# Generated by pormake.
# Topology anh, (6,3)-cn, num edge types: 1
# Building blocks:
#     Node 0, Type 0, BuildingBlock: BETDIP_clean_sbu_0, # of connection points: 6
#     Node 1, Type 0, BuildingBlock: BETDIP_clean_sbu_0, # of connection points: 6
#     Node 2, Type 0, BuildingBlock: BETDIP_clean_sbu_0, # of connection points: 6
#     Node 3, Type 1, BuildingBlock: BETDAH_clean_linker_0, # of connection points: 3
#     Node 4, Type 1, BuildingBlock: BETDAH_clean_linker_0, # of connection points: 3
#     Node 5, Type 1, BuildingBlock: BETDAH_clean_linker_0, # of connection points: 3
#     Node 6, Type 1, BuildingBlock: BETDAH_clean_linker_0, # of connection points: 3
#     Node 7, Type 1, BuildingBlock: BETDAH_clean_linker_0, # of connection points: 3
#     Node 8, Type 1, BuildingBlock: BETDAH_clean_linker_0, # of connection points: 3
#     Edge 9, Type (0, 1), BuildingBlock: EZIPEK_clean_linker_0, # of connection points: 2
#     Edge 10, Type (0, 1), BuildingBlock: EZIPEK_clean_linker_0, # of connection points: 2
#     Edge 11, Type (0, 1), BuildingBlock: EZIPEK_clean_linker_0, # of connection points: 2
#     Edge 12, Type (0, 1), BuildingBlock: EZIPEK_clean_linker_0, # of connection points: 2
#     Edge 13, Type (0, 1), BuildingBlock: EZIPEK_clean_linker_0, # of connection points: 2
#     Edge 14, Type (0, 1), BuildingBlock: EZIPEK_clean_linker_0, # of connection points: 2
#     Edge 15, Type (0, 1), BuildingBlock: EZIPEK_clean_linker_0, # of connection points: 2
#     Edge 16, Type (0, 1), BuildingBlock: EZIPEK_clean_linker_0, # of connection points: 2
#     Edge 17, Type (0, 1), BuildingBlock: EZIPEK_clean_linker_0, # of connection points: 2
#     Edge 18, Type (0, 1), BuildingBlock: EZIPEK_clean_linker_0, # of connection points: 2
#     Edge 19, Type (0, 1), BuildingBlock: EZIPEK_clean_linker_0, # of connection points: 2
#     Edge 20, Type (0, 1), BuildingBlock: EZIPEK_clean_linker_0, # of connection points: 2
#     Edge 21, Type (0, 1), BuildingBlock: EZIPEK_clean_linker_0, # of connection points: 2
#     Edge 22, Type (0, 1), BuildingBlock: EZIPEK_clean_linker_0, # of connection points: 2
#     Edge 23, Type (0, 1), BuildingBlock: EZIPEK_clean_linker_0, # of connection points: 2
#     Edge 24, Type (0, 1), BuildingBlock: EZIPEK_clean_linker_0, # of connection points: 2
#     Edge 25, Type (0, 1), BuildingBlock: EZIPEK_clean_linker_0, # of connection points: 2
#     Edge 26, Type (0, 1), BuildingBlock: EZIPEK_clean_linker_0, # of connection points: 2
# Relax obj value: 0.381
# Max RMSD: 0.160
# Mean RMSD: 0.123
data_MOF--net-anh--node1-BETDIP_clean_sbu_0--node2-BETDAH_clean_linker_0--edge1-EZIPEK_clean_linker_0
_symmetry_space_group_name_H-M    P1
_symmetry_Int_Tables_number       1
_symmetry_cell_setting            triclinic
loop_
_symmetry_equiv_pos_as_xyz
'x, y, z'
_cell_length_a     24.043099
_cell_length_b     24.369695
_cell_length_c     36.291538
_cell_angle_alpha  93.862312
_cell_angle_beta   90.45836
_cell_angle_gamma 119.17637
loop_
_atom_site_label
_atom_site_type_symbol
_atom_site_fract_x
_atom_site_fract_y
_atom_site_fract_z
_atom_type_partial_charge
Tb0 Tb 1.0954 0.68123 0.14247 0.0
Tb1 Tb 1.03717 0.55806 0.15452 0.0
C2 C 0.14832 0.79913 0.14334 0.0
C3 C 0.21408 0.84413 0.13512 0.0
C4 C 0.25186 0.89197 0.16243 0.0
C5 C 0.31795 0.91824 0.16316 0.0
C6 C 0.34642 0.89716 0.13636 0.0
C7 C 0.30965 0.8568 0.10591 0.0
C8 C 0.24342 0.82984 0.10541 0.0
C9 C 1.0683 0.60653 0.0802 0.0
C10 C 0.19094 0.62058 0.1388 0.0
C11 C 0.97791 0.4414 0.15981 0.0
C12 C 0.92748 0.37647 0.14916 0.0
C13 C 0.93054 0.34416 0.11622 0.0
C14 C 0.8993 0.27829 0.11267 0.0
C15 C 0.86494 0.24446 0.14199 0.0
C16 C 0.85597 0.27636 0.17295 0.0
C17 C 0.88703 0.34205 0.1765 0.0
C18 C 1.09772 0.62842 0.21757 0.0
C19 C 0.93872 0.61652 0.1397 0.0
O20 O 0.14406 0.76913 0.17267 0.0
O21 O 0.11156 0.7612 0.11571 0.0
O22 O 1.03319 0.60034 0.10654 0.0
O23 O 0.12321 0.65537 0.08912 0.0
O24 O 0.18731 0.67354 0.1465 0.0
O25 O 0.13338 0.56797 0.13544 0.0
O26 O 1.02348 0.46909 0.137 0.0
O27 O 0.96525 0.48058 0.17963 0.0
O28 O 1.06414 0.63879 0.19472 0.0
O29 O 1.1 0.57997 0.20362 0.0
O30 O 0.94446 0.56497 0.14536 0.0
O31 O 0.99472 0.67001 0.13894 0.0
H32 H 0.23011 0.90361 0.18551 0.0
H33 H 0.34608 0.94965 0.18676 0.0
H34 H 0.33139 0.84068 0.08495 0.0
H35 H 0.21537 0.79309 0.08393 0.0
H36 H 0.96163 0.36943 0.09471 0.0
H37 H 0.9066 0.25409 0.08863 0.0
H38 H 0.82947 0.25062 0.19578 0.0
H39 H 0.88438 0.36574 0.20224 0.0
Tb40 Tb 0.63982 0.08011 0.48633 0.0
Tb41 Tb 0.57225 0.14022 0.47606 0.0
C42 C 0.68312 1.0151 0.51306 0.0
C43 C 0.74285 1.01463 0.52036 0.0
C44 C 0.74466 0.97865 0.54832 0.0
C45 C 0.79533 0.96657 0.55164 0.0
C46 C 0.84478 0.99034 0.527 0.0
C47 C 0.84544 1.03006 0.50053 0.0
C48 C 0.7944 1.04207 0.49714 0.0
C49 C 0.62945 0.08992 0.41605 0.0
C50 C 0.47774 0.98716 0.47199 0.0
C51 C 0.53662 0.21511 0.45577 0.0
C52 C 0.56819 0.28401 0.46378 0.0
C53 C 0.57234 0.3232 0.43603 0.0
C54 C 0.61008 0.38885 0.44225 0.0
C55 C 0.64375 0.41565 0.47633 0.0
C56 C 0.63857 0.37651 0.50418 0.0
C57 C 0.6014 0.31132 0.49796 0.0
C58 C 0.59024 0.13093 0.54837 0.0
C59 C 0.73307 0.23164 0.47467 0.0
O60 O 0.6655 1.01002 0.47839 0.0
O61 O 0.67281 1.05558 0.53308 0.0
O62 O 0.58495 0.07585 0.43851 0.0
O63 O 0.68144 0.10071 0.43348 0.0
O64 O 0.5343 0.99372 0.48487 0.0
O65 O 0.48297 1.04264 0.46405 0.0
O66 O 0.56845 0.1953 0.43503 0.0
O67 O 0.51389 0.18149 0.48406 0.0
O68 O 0.63063 0.14592 0.52355 0.0
O69 O 0.53746 0.12141 0.53266 0.0
O70 O 0.67446 0.22627 0.47142 0.0
O71 O 0.73152 0.17711 0.48202 0.0
H72 H 0.70521 0.95707 0.56637 0.0
H73 H 0.79441 0.93602 0.57227 0.0
H74 H 0.88352 1.0488 0.48142 0.0
H75 H 0.79365 0.07003 0.47536 0.0
H76 H 0.54807 0.30293 0.40927 0.0
H77 H 0.61413 0.41856 0.42039 0.0
H78 H 0.66473 0.39647 0.53051 0.0
H79 H 0.60036 0.2822 0.51952 0.0
Tb80 Tb 0.58182 0.59103 0.80425 0.0
Tb81 Tb 0.71174 0.6527 0.81999 0.0
C82 C 0.46683 0.51054 0.80888 0.0
C83 C 0.40585 0.48789 0.82667 0.0
C84 C 0.38389 0.43275 0.84521 0.0
C85 C 0.32275 0.40351 0.85822 0.0
C86 C 0.28269 0.42906 0.85294 0.0
C87 C 0.30476 0.48524 0.83548 0.0
C88 C 0.36623 0.51454 0.82215 0.0
C89 C 0.64812 0.61943 0.74443 0.0
C90 C 0.64192 0.74385 0.80734 0.0
C91 C 0.831 0.71585 0.81731 0.0
C92 C 0.8788 0.69463 0.81263 0.0
C93 C 0.89328 0.67941 0.7771 0.0
C94 C 0.92582 0.64507 0.77288 0.0
C95 C 0.94314 0.62492 0.80411 0.0
C96 C 0.93496 0.64599 0.83948 0.0
C97 C 0.90354 0.681 0.84375 0.0
C98 C 0.64868 0.61961 0.88197 0.0
C99 C 0.64927 0.49704 0.80341 0.0
O100 O 0.51357 0.51369 0.82913 0.0
O101 O 0.4857 0.55536 0.78626 0.0
O102 O 0.65857 0.59866 0.77276 0.0
O103 O 0.59442 0.6193 0.7472 0.0
O104 O 0.58757 0.68832 0.80795 0.0
O105 O 0.69579 0.73893 0.81053 0.0
O106 O 0.79179 0.7033 0.78888 0.0
O107 O 0.80109 0.70338 0.84817 0.0
O108 O 0.63492 0.64306 0.85511 0.0
O109 O 0.69844 0.61471 0.87388 0.0
O110 O 0.70356 0.55319 0.80975 0.0
O111 O 0.59629 0.50287 0.80096 0.0
H112 H 0.41335 0.41087 0.84849 0.0
H113 H 0.30605 0.36008 0.87158 0.0
H114 H 0.27379 0.50514 0.83124 0.0
H115 H 0.38196 0.55661 0.80756 0.0
H116 H 0.87585 0.69029 0.75255 0.0
H117 H 0.93266 0.62982 0.74538 0.0
H118 H 0.94901 0.6316 0.8639 0.0
H119 H 0.89457 0.69327 0.87147 0.0
H120 H 0.53665 0.97774 0.2488 0.0
H121 H 0.72048 0.9984 0.27704 0.0
H122 H 0.63262 0.92057 0.16856 0.0
C123 C 0.57745 0.97242 0.24128 0.0
C124 C 0.5793 0.94737 0.20578 0.0
C125 C 0.62805 0.99076 0.26709 0.0
C126 C 0.68066 0.98342 0.25734 0.0
C127 C 0.68249 0.95837 0.22169 0.0
C128 C 0.63153 0.94009 0.19605 0.0
N129 N 0.73848 0.95839 0.21023 0.0
C130 C 0.7744 1.00099 0.18516 0.0
H131 H 0.73107 0.59853 0.59086 0.0
H132 H 0.89236 0.76842 0.63868 0.0
H133 H 0.8855 0.71153 0.52305 0.0
C134 C 0.7772 0.63959 0.58785 0.0
C135 C 0.80511 0.64893 0.55344 0.0
C136 C 0.80756 0.68304 0.61834 0.0
C137 C 0.86816 0.73504 0.61501 0.0
C138 C 0.89656 0.745 0.58071 0.0
C139 C 0.86405 0.70312 0.54968 0.0
N140 N 0.95676 0.79855 0.57722 0.0
C141 C 0.95965 0.84912 0.56039 0.0
H142 H 0.99347 0.53515 0.905 0.0
H143 H 0.98022 0.37937 0.96056 0.0
H144 H 0.97122 0.36869 0.84217 0.0
C145 C 0.98661 0.48764 0.90375 0.0
C146 C 0.97816 0.45378 0.86928 0.0
C147 C 0.98974 0.46202 0.9366 0.0
C148 C 0.97823 0.39977 0.93528 0.0
C149 C 0.96878 0.36523 0.90126 0.0
C150 C 0.9721 0.39343 0.86829 0.0
N151 N 0.96773 0.30681 0.90026 0.0
C152 C 1.02456 0.308 0.89314 0.0
H153 H 0.22733 0.74749 0.38138 0.0
H154 H 1.05446 0.57015 0.3884 0.0
H155 H 0.17031 0.67278 0.48821 0.0
C156 C 0.1952 0.71241 0.39899 0.0
C157 C 0.21105 0.72279 0.43771 0.0
C158 C 0.13991 0.65906 0.38139 0.0
C159 C 1.09553 0.60999 0.40261 0.0
C160 C 1.10303 0.61105 0.44144 0.0
C161 C 0.16247 0.66914 0.45855 0.0
N162 N 1.05379 0.55693 0.46286 0.0
C163 C 0.9919 0.49479 0.45727 0.0
H164 H 0.63317 0.24721 0.71289 0.0
H165 H 0.63147 0.07008 0.7195 0.0
H166 H 0.64638 0.18499 0.82018 0.0
C167 C 0.635 0.21381 0.73043 0.0
C168 C 0.64002 0.22832 0.7694 0.0
C169 C 0.63101 0.15776 0.71258 0.0
C170 C 0.63421 0.11182 0.73385 0.0
C171 C 0.64035 0.11847 0.77299 0.0
C172 C 0.64294 0.17818 0.79032 0.0
N173 N 0.64321 0.06792 0.79472 0.0
C174 C 0.64228 1.00547 0.78895 0.0
H175 H 0.70919 0.61834 0.04507 0.0
H176 H 0.53035 0.61999 0.05032 0.0
H177 H 0.62812 0.61804 0.1512 0.0
C178 C 0.67251 0.61878 0.06206 0.0
C179 C 0.6794 0.61775 0.10089 0.0
C180 C 0.62005 0.6197 0.04387 0.0
C181 C 0.56976 0.61972 0.06481 0.0
C182 C 0.5697 0.61953 0.1039 0.0
C183 C 0.62614 0.61867 0.12146 0.0
N184 N 0.51596 0.61997 0.12564 0.0
C185 C 0.45431 0.62016 0.11957 0.0
C186 C 0.27239 0.57262 0.14647 0.0
C187 C 0.25919 0.62025 0.13323 0.0
C188 C 0.37609 0.67023 0.11297 0.0
C189 C 0.38695 0.61966 0.12307 0.0
N190 N 0.33494 0.51689 0.14572 0.0
N191 N 0.30272 0.70882 0.09599 0.0
C192 C 0.33168 0.56952 0.13861 0.0
C193 C 0.31279 0.66747 0.11461 0.0
N194 N 0.22947 0.53115 0.16897 0.0
N195 N 0.42738 0.7231 0.10222 0.0
H196 H 0.259 0.70795 0.09511 0.0
H197 H 0.33533 0.73934 0.0783 0.0
H198 H 0.47211 0.72642 0.09964 0.0
H199 H 0.42688 0.76503 0.09904 0.0
H200 H 0.23776 0.50011 0.18336 0.0
H201 H 0.18832 0.53236 0.17646 0.0
H202 H 0.29573 0.47523 0.15249 0.0
H203 H 0.37596 0.51323 0.14163 0.0
C204 C 0.82049 0.35766 0.49329 0.0
C205 C 0.8005 0.29969 0.46987 0.0
C206 C 0.90354 0.37151 0.43551 0.0
C207 C 0.92596 0.42763 0.46098 0.0
N208 N 0.90491 0.46114 0.52037 0.0
N209 N 0.83454 0.25685 0.41905 0.0
C210 C 0.88363 0.41624 0.49138 0.0
C211 C 0.846 0.30893 0.44134 0.0
N212 N 0.77811 0.35816 0.51782 0.0
N213 N 0.93699 0.37794 0.40443 0.0
H214 H 0.79372 0.21332 0.42081 0.0
H215 H 0.86696 0.25551 0.4007 0.0
H216 H 0.97794 0.42002 0.39984 0.0
H217 H 0.92191 0.34395 0.38218 0.0
H218 H 0.78423 0.39905 0.53258 0.0
H219 H 0.73392 0.31866 0.52064 0.0
H220 H 0.88237 0.45466 0.54536 0.0
H221 H 0.94826 0.50296 0.52039 0.0
C222 C 0.68819 0.87263 0.82092 0.0
C223 C 0.64242 0.81202 0.8022 0.0
C224 C 0.59436 0.87818 0.77608 0.0
C225 C 0.64298 0.93916 0.79245 0.0
N226 N 0.7428 0.98925 0.82743 0.0
N227 N 0.55753 0.76694 0.75506 0.0
C228 C 0.6914 0.93406 0.81383 0.0
C229 C 0.5971 0.81825 0.77821 0.0
N230 N 0.72767 0.87194 0.84786 0.0
N231 N 0.5432 0.87656 0.75846 0.0
H232 H 0.55817 0.72449 0.75444 0.0
H233 H 0.52892 0.76825 0.73385 0.0
H234 H 0.54036 0.91736 0.75517 0.0
H235 H 0.50181 0.83495 0.7499 0.0
H236 H 0.75678 0.91088 0.86596 0.0
H237 H 0.72645 0.83056 0.85472 0.0
H238 H 0.78395 0.99204 0.83902 0.0
H239 H 0.74636 1.03305 0.82412 0.0
C240 C 0.85511 0.66258 0.14796 0.0
C241 C 0.86968 0.6147 0.13237 0.0
C242 C 0.75473 0.56354 0.10358 0.0
C243 C 0.74261 0.61438 0.11606 0.0
N244 N 0.79213 0.71794 0.14737 0.0
N245 N 0.829 0.52385 0.0885 0.0
C246 C 0.79612 0.66502 0.13758 0.0
C247 C 0.81763 0.56635 0.10865 0.0
N248 N 0.89685 0.70549 0.17459 0.0
N249 N 0.70445 0.50994 0.08729 0.0
H250 H 0.87251 0.52445 0.0902 0.0
H251 H 0.79809 0.4924 0.06737 0.0
H252 H 0.65924 0.5053 0.08349 0.0
H253 H 0.70558 0.46814 0.08121 0.0
H254 H 0.88769 0.73721 0.1904 0.0
H255 H 0.9379 0.705 0.18354 0.0
H256 H 0.83054 0.75998 0.1586 0.0
H257 H 0.75119 0.72098 0.14154 0.0
C258 C 0.39122 0.86059 0.48372 0.0
C259 C 0.40861 0.91808 0.46518 0.0
C260 C 0.29205 0.85069 0.43734 0.0
C261 C 0.27758 0.79085 0.45156 0.0
N262 N 0.32738 0.74461 0.48604 0.0
N263 N 0.36948 0.95123 0.41449 0.0
C264 C 0.33149 0.79824 0.47416 0.0
C265 C 0.35679 0.90779 0.43953 0.0
N266 N 0.43071 0.86511 0.5123 0.0
N267 N 0.24222 0.85504 0.42245 0.0
H268 H 0.41468 0.98938 0.412 0.0
H269 H 0.33747 0.94449 0.39284 0.0
H270 H 0.19533 0.8182 0.42202 0.0
H271 H 0.24633 0.89743 0.41508 0.0
H272 H 0.41936 0.8293 0.5298 0.0
H273 H 0.47158 0.90709 0.52097 0.0
H274 H 0.36572 0.74301 0.49845 0.0
H275 H 0.28677 0.7007 0.4805 0.0
C276 C 0.6018 0.37597 0.77084 0.0
C277 C 0.64668 0.42703 0.7968 0.0
C278 C 0.68649 0.34656 0.80845 0.0
C279 C 0.63972 0.29517 0.78343 0.0
N280 N 0.53974 0.26297 0.75097 0.0
N281 N 0.72517 0.44909 0.84531 0.0
C282 C 0.59432 0.31136 0.7677 0.0
C283 C 0.687 0.40831 0.81675 0.0
N284 N 0.56664 0.38905 0.74689 0.0
N285 N 0.73224 0.33709 0.82444 0.0
H286 H 0.72653 0.49186 0.85246 0.0
H287 H 0.75106 0.4387 0.86398 0.0
H288 H 0.73348 0.2951 0.81939 0.0
H289 H 0.77072 0.37135 0.84088 0.0
H290 H 0.53994 0.35839 0.72427 0.0
H291 H 0.56928 0.43291 0.747 0.0
H292 H 0.50094 0.2679 0.74267 0.0
H293 H 0.52992 0.21619 0.74984 0.0
C294 C 0.93899 0.99116 0.55664 0.0
C295 C 0.89169 0.96766 0.52748 0.0
C296 C 0.91437 0.88173 0.51123 0.0
C297 C 0.95033 0.89731 0.54496 0.0
N298 N 1.00376 0.96894 0.5984 0.0
N299 N 0.83485 0.89212 0.47565 0.0
C300 C 0.96592 0.95354 0.56691 0.0
C301 C 0.88065 0.91425 0.5037 0.0
N302 N 0.95688 1.0488 0.5746 0.0
N303 N 0.91197 0.83527 0.48688 0.0
H304 H 0.81012 0.91546 0.46874 0.0
H305 H 0.81899 0.84905 0.46035 0.0
H306 H 0.93731 0.81169 0.49201 0.0
H307 H 0.89045 0.82451 0.46043 0.0
H308 H 0.99413 0.07106 0.59453 0.0
H309 H 0.93745 0.0768 0.56715 0.0
H310 H 1.01156 1.00548 0.61797 0.0
H311 H 1.02617 0.94336 0.60543 0.0
C312 C 1.02396 0.59106 0.81374 0.0
C313 C 0.96159 0.57505 0.80134 0.0
C314 C 0.92348 0.46509 0.81318 0.0
C315 C 0.98001 0.48537 0.83519 0.0
N316 N 1.09144 0.55871 0.84585 0.0
N317 N 0.85368 0.49559 0.78308 0.0
C318 C 1.0333 0.54547 0.83123 0.0
C319 C 0.91254 0.51115 0.79778 0.0
N320 N 1.07249 0.65082 0.81053 0.0
N321 N 0.88028 0.4025 0.80722 0.0
H322 H 0.84418 0.5275 0.77053 0.0
H323 H 0.81359 0.45149 0.7842 0.0
H324 H 0.88477 0.36743 0.81941 0.0
H325 H 0.84325 0.38479 0.78711 0.0
H326 H 0.11951 0.66737 0.81958 0.0
H327 H 1.06523 0.68361 0.79717 0.0
H328 H 0.13274 0.60203 0.84561 0.0
H329 H 1.09822 0.52419 0.85745 0.0
C330 C 0.41301 0.85681 0.16438 0.0
C331 C 0.40969 0.90454 0.14553 0.0
C332 C 0.52345 0.97594 0.1587 0.0
C333 C 0.52567 0.92925 0.17899 0.0
N334 N 0.48007 0.82049 0.19196 0.0
N335 N 0.46197 1.00244 0.11699 0.0
C336 C 0.4729 0.86784 0.17848 0.0
C337 C 0.46531 0.96184 0.13995 0.0
N338 N 0.35848 0.80292 0.17115 0.0
N339 N 0.57623 1.0342 0.1587 0.0
H340 H 0.41951 0.99269 0.10316 0.0
H341 H 0.5015 1.04303 0.10938 0.0
H342 H 0.62021 1.04466 0.17078 0.0
H343 H 0.57632 0.07271 0.1479 0.0
H344 H 0.35727 0.7702 0.18861 0.0
H345 H 0.31324 0.79232 0.16131 0.0
H346 H 0.44504 0.7732 0.18882 0.0
H347 H 0.52338 0.82767 0.20322 0.0
C348 C 0.75409 0.5062 0.48449 0.0
C349 C 0.68768 0.48437 0.48333 0.0
C350 C 0.70728 0.586 0.51231 0.0
C351 C 0.77054 0.60063 0.52213 0.0
N352 N 0.85597 0.57552 0.5164 0.0
N353 N 0.59981 0.50376 0.49404 0.0
C354 C 0.79521 0.56197 0.50703 0.0
C355 C 0.66393 0.52493 0.49585 0.0
N356 N 0.77706 0.47236 0.46482 0.0
N357 N 0.68895 0.6305 0.51932 0.0
H358 H 0.56704 0.45984 0.48121 0.0
H359 H 0.57892 0.52834 0.50678 0.0
H360 H 0.72057 0.67585 0.53096 0.0
H361 H 0.64497 0.62462 0.51037 0.0
H362 H 0.82541 0.48851 0.46146 0.0
H363 H 0.74722 0.43076 0.44866 0.0
H364 H 0.87487 0.54668 0.5081 0.0
H365 H 0.8871 0.61392 0.5342 0.0
C366 C 0.16818 0.35044 0.83827 0.0
C367 C 0.21635 0.39446 0.86428 0.0
C368 C 0.13816 0.37193 0.91171 0.0
C369 C 1.09018 0.32844 0.88561 0.0
N370 N 1.05849 0.26644 0.82727 0.0
N371 N 0.25099 0.44064 0.92678 0.0
C372 C 1.10499 0.31446 0.84985 0.0
C373 C 0.20249 0.40313 0.90142 0.0
N374 N 0.18276 0.34442 0.80238 0.0
N375 N 0.12163 0.38498 0.94586 0.0
H376 H 0.29847 0.46642 0.91983 0.0
H377 H 0.24512 0.44362 0.95508 0.0
H378 H 1.07562 0.35953 0.9552 0.0
H379 H 0.1525 0.42221 0.96446 0.0
H380 H 0.14892 0.3183 0.78111 0.0
H381 H 0.22897 0.36861 0.79315 0.0
H382 H 1.06672 0.24989 0.80187 0.0
H383 H 1.01186 0.23941 0.83544 0.0
C384 C 0.78887 0.12856 0.12952 0.0
C385 C 0.84861 0.17793 0.14401 0.0
C386 C 0.86793 0.1037 0.17664 0.0
C387 C 0.80648 1.05549 0.16418 0.0
N388 N 0.71826 1.01541 0.11985 0.0
N389 N 0.95247 0.21116 0.1724 0.0
C390 C 0.77022 0.0658 0.13746 0.0
C391 C 0.89087 0.16485 0.16444 0.0
N392 N 0.74914 0.14213 0.10974 0.0
N393 N 0.90264 0.09156 0.2016 0.0
H394 H 0.9705 0.25676 0.16422 0.0
H395 H 0.98718 0.20336 0.18442 0.0
H396 H 0.88801 1.0462 0.2094 0.0
H397 H 0.94436 0.12624 0.21551 0.0
H398 H 0.70201 0.10921 0.10205 0.0
H399 H 0.76259 0.18756 0.10257 0.0
H400 H 0.69143 1.019 0.09844 0.0
H401 H 0.70647 0.96916 0.12423 0.0
C402 C 0.98703 0.51241 0.03737 0.0
C403 C 1.04565 0.57117 0.04264 0.0
C404 C 1.06908 0.55519 0.97834 0.0
C405 C 1.00802 0.50119 0.97242 0.0
N406 N 0.9021 0.43995 -0.00632 0.0
N407 N 0.1276 0.65754 0.0112 0.0
C408 C 0.96483 0.48358 0.00108 0.0
C409 C 1.08261 0.5954 0.01119 0.0
N410 N 0.95318 0.4815 0.0664 0.0
N411 N 0.11485 0.5678 0.95315 0.0
H412 H 0.13292 0.6916 0.03192 0.0
H413 H 0.15233 0.677 0.9878 0.0
H414 H 1.10767 0.53856 0.9292 0.0
H415 H 0.16187 0.60371 0.95816 0.0
H416 H 0.91488 0.43567 0.06322 0.0
H417 H 0.96555 0.49752 0.09386 0.0
H418 H 0.86718 0.43049 0.01292 0.0
H419 H 0.88388 0.41838 0.96726 0.0
C420 C 0.59457 0.99742 0.36902 0.0
C421 C 0.61887 0.06342 0.37704 0.0
C422 C 0.64357 0.08089 0.3119 0.0
C423 C 0.62443 1.01596 0.3048 0.0
N424 N 0.58479 0.91228 0.32582 0.0
N425 N 0.67046 0.16888 0.3575 0.0
C426 C 0.60017 0.97408 0.33308 0.0
C427 C 0.64404 0.10536 0.34874 0.0
N428 N 0.56664 0.95689 0.39585 0.0
N429 N 0.66072 0.1189 0.28327 0.0
H430 H 0.66869 0.18811 0.38376 0.0
H431 H 0.69679 0.20284 0.33947 0.0
H432 H 0.66346 0.10315 0.25625 0.0
H433 H 0.6685 0.16493 0.28563 0.0
H434 H 0.54 0.90815 0.39074 0.0
H435 H 0.56696 0.97171 0.42333 0.0
H436 H 0.57476 0.88078 0.346 0.0
H437 H 0.58562 0.89272 0.29951 0.0
C438 C 0.7036 0.69261 0.6944 0.0
C439 C 0.68983 0.63737 0.71223 0.0
C440 C 0.76742 0.62418 0.67451 0.0
C441 C 0.77372 0.67329 0.65331 0.0
N442 N 0.7415 0.74953 0.63965 0.0
N443 N 0.69868 0.54264 0.71264 0.0
C444 C 0.74016 0.70636 0.66232 0.0
C445 C 0.71947 0.60121 0.70073 0.0
N446 N 0.68446 0.7336 0.70884 0.0
N447 N 0.80712 0.59925 0.66943 0.0
H448 H 0.6592 0.52109 0.72867 0.0
H449 H 0.71506 0.51223 0.7027 0.0
H450 H 0.84263 0.61503 0.65019 0.0
H451 H 0.809 0.56777 0.68679 0.0
H452 H 0.69922 0.77773 0.69919 0.0
H453 H 0.65909 0.72663 0.73272 0.0
H454 H 0.7118 0.76938 0.64241 0.0
H455 H 0.7689 0.7621 0.61638 0.0
C456 C 0.55829 0.08976 0.61251 0.0
C457 C 0.60324 0.13617 0.59032 0.0
C458 C 0.67122 0.18935 0.64772 0.0
C459 C 0.62261 0.14772 0.67022 0.0
N460 N 0.51446 0.06371 0.67308 0.0
N461 N 0.69796 0.23786 0.58952 0.0
C462 C 0.56475 0.0993 0.65226 0.0
C463 C 0.65874 0.18782 0.60868 0.0
N464 N 0.51034 1.03485 0.59568 0.0
N465 N 0.73031 0.22987 0.66353 0.0
H466 H 0.68938 0.24063 0.56178 0.0
H467 H 0.73504 0.27966 0.60205 0.0
H468 H 0.74145 0.232 0.69162 0.0
H469 H 0.76972 0.25665 0.64825 0.0
H470 H 0.48019 0.9965 0.61011 0.0
H471 H 0.50482 1.02493 0.56706 0.0
H472 H 0.46887 1.03273 0.66174 0.0
H473 H 0.51671 0.06926 0.70189 0.0
C474 C 0.60331 0.56171 0.93955 0.0
C475 C 0.62971 0.61933 0.92209 0.0
C476 C 0.63779 0.67537 0.98363 0.0
C477 C 0.61809 0.61877 0.00152 0.0
N478 N 0.5841 0.50783 -0.00382 0.0
N479 N 0.67758 0.7325 0.92859 0.0
C480 C 0.60106 0.56188 0.97924 0.0
C481 C 0.64755 0.67645 0.94441 0.0
N482 N 0.57897 0.5062 0.91786 0.0
N483 N 0.64751 0.72857 0.00426 0.0
H484 H 0.68475 0.73547 0.90036 0.0
H485 H 0.69915 0.77633 0.94357 0.0
H486 H 0.64371 0.73038 0.03286 0.0
H487 H 0.65472 0.76951 -0.0071 0.0
H488 H 0.55302 0.46196 0.92782 0.0
H489 H 0.58008 0.50434 0.88909 0.0
H490 H 0.57914 0.46656 0.98265 0.0
H491 H 0.57808 0.50505 0.02456 0.0
C492 C 1.06287 0.64535 0.28344 0.0
C493 C 0.11004 0.64618 0.25936 0.0
C494 C 0.17382 0.65064 0.31504 0.0
C495 C 0.12928 0.65469 0.33919 0.0
N496 N 1.03817 0.67031 0.34521 0.0
N497 N 0.21782 0.66535 0.25415 0.0
C498 C 1.07586 0.65633 0.32296 0.0
C499 C 0.16769 0.65374 0.27591 0.0
N500 N 1.0041 0.63072 0.26918 0.0
N501 N 0.22072 0.64072 0.32919 0.0
H502 H 0.21606 0.6695 0.22579 0.0
H503 H 0.26314 0.67763 0.26476 0.0
H504 H 0.22596 0.63634 0.35721 0.0
H505 H 0.2503 0.63045 0.31273 0.0
H506 H 0.96566 0.62178 0.28557 0.0
H507 H 0.99175 0.62228 0.24105 0.0
H508 H 1.00289 0.67908 0.335 0.0
H509 H 1.04624 0.67919 0.37382 0.0
loop_
_geom_bond_atom_site_label_1
_geom_bond_atom_site_label_2
_geom_bond_distance
_geom_bond_site_symmetry_2
_ccdc_geom_bond_type
Tb0 C2 2.809 . S
Tb0 O20 2.484 . S
Tb0 O21 2.440 . S
Tb0 O22 2.658 1_455 S
Tb0 O23 2.409 . S
Tb0 O24 2.378 . S
Tb0 O28 2.325 . S
Tb0 O31 2.341 1_455 S
Tb1 C11 2.809 . S
Tb1 O22 2.325 . S
Tb1 O25 2.341 1_655 S
Tb1 O26 2.484 . S
Tb1 O27 2.440 . S
Tb1 O28 2.658 1_655 S
Tb1 O29 2.409 . S
Tb1 O30 2.378 . S
C2 Tb0 2.809 . S
C2 C3 1.514 . S
C2 O20 1.248 . S
C2 O21 1.266 . S
C3 C2 1.514 . S
C3 C4 1.359 . S
C3 C8 1.348 . S
C4 C3 1.359 . S
C4 C5 1.380 . S
C4 H32 0.929 . S
C5 C4 1.380 . S
C5 C6 1.347 . S
C5 H33 0.931 . S
C6 C5 1.347 . S
C6 C7 1.369 . S
C7 C6 1.369 . S
C7 C8 1.408 . S
C7 H34 0.930 . S
C8 C3 1.348 . S
C8 C7 1.408 . S
C8 H35 0.930 . S
C9 O22 1.281 1_455 S
C9 O23 1.254 . S
C10 O24 1.236 . S
C10 O25 1.266 . S
C11 Tb1 2.809 . S
C11 C12 1.514 . S
C11 O26 1.248 . S
C11 O27 1.266 . S
C12 C11 1.514 . S
C12 C13 1.359 . S
C12 C17 1.348 . S
C13 C12 1.359 . S
C13 C14 1.380 . S
C13 H36 0.929 . S
C14 C13 1.380 . S
C14 C15 1.347 . S
C14 H37 0.931 . S
C15 C14 1.347 . S
C15 C16 1.369 . S
C16 C15 1.369 . S
C16 C17 1.408 . S
C16 H38 0.930 . S
C17 C12 1.348 . S
C17 C16 1.408 . S
C17 H39 0.930 . S
C18 O28 1.281 . S
C18 O29 1.254 1_455 S
C19 O30 1.236 . S
C19 O31 1.266 . S
O20 Tb0 2.484 . S
O20 C2 1.248 . S
O21 Tb0 2.440 . S
O21 C2 1.266 . S
O22 Tb0 2.658 1_655 S
O22 Tb1 2.325 . S
O22 C9 1.281 1_655 S
O23 Tb0 2.409 . S
O23 C9 1.254 . S
O24 Tb0 2.378 . S
O24 C10 1.236 . S
O25 Tb1 2.341 1_455 S
O25 C10 1.266 . S
O26 Tb1 2.484 . S
O26 C11 1.248 . S
O27 Tb1 2.440 . S
O27 C11 1.266 . S
O28 Tb0 2.325 . S
O28 Tb1 2.658 1_455 S
O28 C18 1.281 . S
O29 Tb1 2.409 . S
O29 C18 1.254 1_655 S
O30 Tb1 2.378 . S
O30 C19 1.236 . S
O31 Tb0 2.341 1_655 S
O31 C19 1.266 . S
H32 C4 0.929 . S
H33 C5 0.931 . S
H34 C7 0.930 . S
H35 C8 0.930 . S
H36 C13 0.929 . S
H37 C14 0.931 . S
H38 C16 0.930 . S
H39 C17 0.930 . S
Tb40 C42 2.809 . S
Tb40 O60 2.484 . S
Tb40 O61 2.440 . S
Tb40 O62 2.658 1_565 S
Tb40 O63 2.409 1_565 S
Tb40 O64 2.378 . S
Tb40 O68 2.325 1_565 S
Tb40 O71 2.341 1_565 S
Tb41 C51 2.809 . S
Tb41 O62 2.325 . S
Tb41 O65 2.341 1_545 S
Tb41 O66 2.484 . S
Tb41 O67 2.440 . S
Tb41 O68 2.658 . S
Tb41 O69 2.409 . S
Tb41 O70 2.378 . S
C42 Tb40 2.809 . S
C42 C43 1.514 . S
C42 O60 1.248 . S
C42 O61 1.266 . S
C43 C42 1.514 . S
C43 C44 1.359 . S
C43 C48 1.348 . S
C44 C43 1.359 . S
C44 C45 1.380 . S
C44 H72 0.929 . S
C45 C44 1.380 . S
C45 C46 1.347 . S
C45 H73 0.931 . S
C46 C45 1.347 . S
C46 C47 1.369 . S
C47 C46 1.369 . S
C47 C48 1.408 . S
C47 H74 0.930 . S
C48 C43 1.348 . S
C48 C47 1.408 . S
C48 H75 0.930 . S
C49 O62 1.281 . S
C49 O63 1.254 . S
C50 O64 1.236 . S
C50 O65 1.266 . S
C51 Tb41 2.809 . S
C51 C52 1.514 . S
C51 O66 1.248 . S
C51 O67 1.266 . S
C52 C51 1.514 . S
C52 C53 1.359 . S
C52 C57 1.348 . S
C53 C52 1.359 . S
C53 C54 1.380 . S
C53 H76 0.929 . S
C54 C53 1.380 . S
C54 C55 1.347 . S
C54 H77 0.931 . S
C55 C54 1.347 . S
C55 C56 1.369 . S
C56 C55 1.369 . S
C56 C57 1.408 . S
C56 H78 0.930 . S
C57 C52 1.348 . S
C57 C56 1.408 . S
C57 H79 0.930 . S
C58 O68 1.281 . S
C58 O69 1.254 . S
C59 O70 1.236 . S
C59 O71 1.266 . S
O60 Tb40 2.484 . S
O60 C42 1.248 . S
O61 Tb40 2.440 . S
O61 C42 1.266 . S
O62 Tb40 2.658 1_545 S
O62 Tb41 2.325 . S
O62 C49 1.281 . S
O63 Tb40 2.409 1_545 S
O63 C49 1.254 . S
O64 Tb40 2.378 . S
O64 C50 1.236 . S
O65 Tb41 2.341 1_565 S
O65 C50 1.266 . S
O66 Tb41 2.484 . S
O66 C51 1.248 . S
O67 Tb41 2.440 . S
O67 C51 1.266 . S
O68 Tb40 2.325 1_545 S
O68 Tb41 2.658 . S
O68 C58 1.281 . S
O69 Tb41 2.409 . S
O69 C58 1.254 . S
O70 Tb41 2.378 . S
O70 C59 1.236 . S
O71 Tb40 2.341 1_545 S
O71 C59 1.266 . S
H72 C44 0.929 . S
H73 C45 0.931 . S
H74 C47 0.930 . S
H75 C48 0.930 . S
H76 C53 0.929 . S
H77 C54 0.931 . S
H78 C56 0.930 . S
H79 C57 0.930 . S
Tb80 C82 2.809 . S
Tb80 O100 2.484 . S
Tb80 O101 2.440 . S
Tb80 O102 2.658 . S
Tb80 O103 2.409 . S
Tb80 O104 2.378 . S
Tb80 O108 2.325 . S
Tb80 O111 2.341 . S
Tb81 C91 2.809 . S
Tb81 O102 2.325 . S
Tb81 O105 2.341 . S
Tb81 O106 2.484 . S
Tb81 O107 2.440 . S
Tb81 O108 2.658 . S
Tb81 O109 2.409 . S
Tb81 O110 2.378 . S
C82 Tb80 2.809 . S
C82 C83 1.514 . S
C82 O100 1.248 . S
C82 O101 1.266 . S
C83 C82 1.514 . S
C83 C84 1.359 . S
C83 C88 1.348 . S
C84 C83 1.359 . S
C84 C85 1.380 . S
C84 H112 0.929 . S
C85 C84 1.380 . S
C85 C86 1.347 . S
C85 H113 0.931 . S
C86 C85 1.347 . S
C86 C87 1.369 . S
C87 C86 1.369 . S
C87 C88 1.408 . S
C87 H114 0.930 . S
C88 C83 1.348 . S
C88 C87 1.408 . S
C88 H115 0.930 . S
C89 O102 1.281 . S
C89 O103 1.254 . S
C90 O104 1.236 . S
C90 O105 1.266 . S
C91 Tb81 2.809 . S
C91 C92 1.514 . S
C91 O106 1.248 . S
C91 O107 1.266 . S
C92 C91 1.514 . S
C92 C93 1.359 . S
C92 C97 1.348 . S
C93 C92 1.359 . S
C93 C94 1.380 . S
C93 H116 0.929 . S
C94 C93 1.380 . S
C94 C95 1.347 . S
C94 H117 0.931 . S
C95 C94 1.347 . S
C95 C96 1.369 . S
C96 C95 1.369 . S
C96 C97 1.408 . S
C96 H118 0.930 . S
C97 C92 1.348 . S
C97 C96 1.408 . S
C97 H119 0.930 . S
C98 O108 1.281 . S
C98 O109 1.254 . S
C99 O110 1.236 . S
C99 O111 1.266 . S
O100 Tb80 2.484 . S
O100 C82 1.248 . S
O101 Tb80 2.440 . S
O101 C82 1.266 . S
O102 Tb80 2.658 . S
O102 Tb81 2.325 . S
O102 C89 1.281 . S
O103 Tb80 2.409 . S
O103 C89 1.254 . S
O104 Tb80 2.378 . S
O104 C90 1.236 . S
O105 Tb81 2.341 . S
O105 C90 1.266 . S
O106 Tb81 2.484 . S
O106 C91 1.248 . S
O107 Tb81 2.440 . S
O107 C91 1.266 . S
O108 Tb80 2.325 . S
O108 Tb81 2.658 . S
O108 C98 1.281 . S
O109 Tb81 2.409 . S
O109 C98 1.254 . S
O110 Tb81 2.378 . S
O110 C99 1.236 . S
O111 Tb80 2.341 . S
O111 C99 1.266 . S
H112 C84 0.929 . S
H113 C85 0.931 . S
H114 C87 0.930 . S
H115 C88 0.930 . S
H116 C93 0.929 . S
H117 C94 0.931 . S
H118 C96 0.930 . S
H119 C97 0.930 . S
H120 C123 0.929 . S
H121 C126 0.929 . S
H122 C128 0.930 . S
C123 H120 0.929 . S
C123 C124 1.398 . S
C123 C125 1.396 1_565 S
C124 C123 1.398 . S
C124 C128 1.407 1_565 S
C125 C123 1.396 1_545 S
C125 C126 1.394 . S
C126 H121 0.929 . S
C126 C125 1.394 . S
C126 C127 1.382 . S
C127 C126 1.382 . S
C127 C128 1.392 . S
C127 N129 1.420 . S
C128 H122 0.930 . S
C128 C124 1.407 1_545 S
C128 C127 1.392 . S
N129 C127 1.420 . S
N129 C130 1.244 . S
C130 N129 1.244 . S
H131 C134 0.929 . S
H132 C137 0.929 . S
H133 C139 0.930 . S
C134 H131 0.929 . S
C134 C135 1.398 . S
C134 C136 1.396 . S
C135 C134 1.398 . S
C135 C139 1.407 . S
C136 C134 1.396 . S
C136 C137 1.394 . S
C137 H132 0.929 . S
C137 C136 1.394 . S
C137 C138 1.382 . S
C138 C137 1.382 . S
C138 C139 1.392 . S
C138 N140 1.420 . S
C139 H133 0.930 . S
C139 C135 1.407 . S
C139 C138 1.392 . S
N140 C138 1.420 . S
N140 C141 1.244 . S
C141 N140 1.244 . S
H142 C145 0.929 . S
H143 C148 0.929 . S
H144 C150 0.930 . S
C145 H142 0.929 . S
C145 C146 1.398 . S
C145 C147 1.396 . S
C146 C145 1.398 . S
C146 C150 1.407 . S
C147 C145 1.396 . S
C147 C148 1.394 1_655 S
C148 H143 0.929 . S
C148 C147 1.394 1_455 S
C148 C149 1.382 . S
C149 C148 1.382 . S
C149 C150 1.392 1_455 S
C149 N151 1.420 . S
C150 H144 0.930 . S
C150 C146 1.407 . S
C150 C149 1.392 1_655 S
N151 C149 1.420 . S
N151 C152 1.244 . S
C152 N151 1.244 . S
H153 C156 0.929 . S
H154 C159 0.929 1_655 S
H155 C161 0.930 . S
C156 H153 0.929 . S
C156 C157 1.398 . S
C156 C158 1.396 . S
C157 C156 1.398 . S
C157 C161 1.407 . S
C158 C156 1.396 . S
C158 C159 1.394 . S
C159 H154 0.929 1_455 S
C159 C158 1.394 . S
C159 C160 1.382 . S
C160 C159 1.382 . S
C160 C161 1.392 . S
C160 N162 1.420 1_455 S
C161 H155 0.930 . S
C161 C157 1.407 . S
C161 C160 1.392 . S
N162 C160 1.420 1_655 S
N162 C163 1.244 . S
C163 N162 1.244 . S
H164 C167 0.929 . S
H165 C170 0.929 . S
H166 C172 0.930 . S
C167 H164 0.929 . S
C167 C168 1.398 . S
C167 C169 1.396 . S
C168 C167 1.398 . S
C168 C172 1.407 . S
C169 C167 1.396 . S
C169 C170 1.394 1_545 S
C170 H165 0.929 . S
C170 C169 1.394 1_565 S
C170 C171 1.382 1_565 S
C171 C170 1.382 1_545 S
C171 C172 1.392 . S
C171 N173 1.420 1_545 S
C172 H166 0.930 . S
C172 C168 1.407 . S
C172 C171 1.392 . S
N173 C171 1.420 1_565 S
N173 C174 1.244 . S
C174 N173 1.244 . S
H175 C178 0.929 . S
H176 C181 0.929 . S
H177 C183 0.930 . S
C178 H175 0.929 . S
C178 C179 1.398 . S
C178 C180 1.396 . S
C179 C178 1.398 . S
C179 C183 1.407 . S
C180 C178 1.396 . S
C180 C181 1.394 . S
C181 H176 0.929 . S
C181 C180 1.394 . S
C181 C182 1.382 . S
C182 C181 1.382 . S
C182 C183 1.392 . S
C182 N184 1.420 . S
C183 H177 0.930 . S
C183 C179 1.407 . S
C183 C182 1.392 . S
N184 C182 1.420 . S
N184 C185 1.244 . S
C185 N184 1.244 . S
C186 C187 1.363 . S
C186 C192 1.379 . S
C186 N194 1.356 . S
C187 C186 1.363 . S
C187 C193 1.363 . S
C188 C189 1.363 . S
C188 C193 1.379 . S
C188 N195 1.356 . S
C189 C188 1.363 . S
C189 C192 1.363 . S
N190 C192 1.356 . S
N190 H202 0.984 . S
N190 H203 0.985 . S
N191 C193 1.356 . S
N191 H196 0.984 . S
N191 H197 0.985 . S
C192 C186 1.379 . S
C192 C189 1.363 . S
C192 N190 1.356 . S
C193 C187 1.363 . S
C193 C188 1.379 . S
C193 N191 1.356 . S
N194 C186 1.356 . S
N194 H200 0.984 . S
N194 H201 0.984 . S
N195 C188 1.356 . S
N195 H198 0.984 . S
N195 H199 0.985 . S
H196 N191 0.984 . S
H197 N191 0.985 . S
H198 N195 0.984 . S
H199 N195 0.985 . S
H200 N194 0.984 . S
H201 N194 0.984 . S
H202 N190 0.984 . S
H203 N190 0.985 . S
C204 C205 1.363 . S
C204 C210 1.379 . S
C204 N212 1.356 . S
C205 C204 1.363 . S
C205 C211 1.363 . S
C206 C207 1.363 . S
C206 C211 1.379 . S
C206 N213 1.356 . S
C207 C206 1.363 . S
C207 C210 1.363 . S
N208 C210 1.356 . S
N208 H220 0.984 . S
N208 H221 0.985 . S
N209 C211 1.356 . S
N209 H214 0.984 . S
N209 H215 0.985 . S
C210 C204 1.379 . S
C210 C207 1.363 . S
C210 N208 1.356 . S
C211 C205 1.363 . S
C211 C206 1.379 . S
C211 N209 1.356 . S
N212 C204 1.356 . S
N212 H218 0.984 . S
N212 H219 0.984 . S
N213 C206 1.356 . S
N213 H216 0.984 . S
N213 H217 0.985 . S
H214 N209 0.984 . S
H215 N209 0.985 . S
H216 N213 0.984 . S
H217 N213 0.985 . S
H218 N212 0.984 . S
H219 N212 0.984 . S
H220 N208 0.984 . S
H221 N208 0.985 . S
C222 C223 1.363 . S
C222 C228 1.379 . S
C222 N230 1.356 . S
C223 C222 1.363 . S
C223 C229 1.363 . S
C224 C225 1.363 . S
C224 C229 1.379 . S
C224 N231 1.356 . S
C225 C224 1.363 . S
C225 C228 1.363 . S
N226 C228 1.356 . S
N226 H238 0.984 . S
N226 H239 0.985 . S
N227 C229 1.356 . S
N227 H232 0.984 . S
N227 H233 0.985 . S
C228 C222 1.379 . S
C228 C225 1.363 . S
C228 N226 1.356 . S
C229 C223 1.363 . S
C229 C224 1.379 . S
C229 N227 1.356 . S
N230 C222 1.356 . S
N230 H236 0.984 . S
N230 H237 0.984 . S
N231 C224 1.356 . S
N231 H234 0.984 . S
N231 H235 0.985 . S
H232 N227 0.984 . S
H233 N227 0.985 . S
H234 N231 0.984 . S
H235 N231 0.985 . S
H236 N230 0.984 . S
H237 N230 0.984 . S
H238 N226 0.984 . S
H239 N226 0.985 . S
C240 C241 1.363 . S
C240 C246 1.379 . S
C240 N248 1.356 . S
C241 C240 1.363 . S
C241 C247 1.363 . S
C242 C243 1.363 . S
C242 C247 1.379 . S
C242 N249 1.356 . S
C243 C242 1.363 . S
C243 C246 1.363 . S
N244 C246 1.356 . S
N244 H256 0.984 . S
N244 H257 0.985 . S
N245 C247 1.356 . S
N245 H250 0.984 . S
N245 H251 0.985 . S
C246 C240 1.379 . S
C246 C243 1.363 . S
C246 N244 1.356 . S
C247 C241 1.363 . S
C247 C242 1.379 . S
C247 N245 1.356 . S
N248 C240 1.356 . S
N248 H254 0.984 . S
N248 H255 0.984 . S
N249 C242 1.356 . S
N249 H252 0.984 . S
N249 H253 0.985 . S
H250 N245 0.984 . S
H251 N245 0.985 . S
H252 N249 0.984 . S
H253 N249 0.985 . S
H254 N248 0.984 . S
H255 N248 0.984 . S
H256 N244 0.984 . S
H257 N244 0.985 . S
C258 C259 1.363 . S
C258 C264 1.379 . S
C258 N266 1.356 . S
C259 C258 1.363 . S
C259 C265 1.363 . S
C260 C261 1.363 . S
C260 C265 1.379 . S
C260 N267 1.356 . S
C261 C260 1.363 . S
C261 C264 1.363 . S
N262 C264 1.356 . S
N262 H274 0.984 . S
N262 H275 0.985 . S
N263 C265 1.356 . S
N263 H268 0.984 . S
N263 H269 0.985 . S
C264 C258 1.379 . S
C264 C261 1.363 . S
C264 N262 1.356 . S
C265 C259 1.363 . S
C265 C260 1.379 . S
C265 N263 1.356 . S
N266 C258 1.356 . S
N266 H272 0.984 . S
N266 H273 0.984 . S
N267 C260 1.356 . S
N267 H270 0.984 . S
N267 H271 0.985 . S
H268 N263 0.984 . S
H269 N263 0.985 . S
H270 N267 0.984 . S
H271 N267 0.985 . S
H272 N266 0.984 . S
H273 N266 0.984 . S
H274 N262 0.984 . S
H275 N262 0.985 . S
C276 C277 1.363 . S
C276 C282 1.379 . S
C276 N284 1.356 . S
C277 C276 1.363 . S
C277 C283 1.363 . S
C278 C279 1.363 . S
C278 C283 1.379 . S
C278 N285 1.356 . S
C279 C278 1.363 . S
C279 C282 1.363 . S
N280 C282 1.356 . S
N280 H292 0.984 . S
N280 H293 0.985 . S
N281 C283 1.356 . S
N281 H286 0.984 . S
N281 H287 0.985 . S
C282 C276 1.379 . S
C282 C279 1.363 . S
C282 N280 1.356 . S
C283 C277 1.363 . S
C283 C278 1.379 . S
C283 N281 1.356 . S
N284 C276 1.356 . S
N284 H290 0.984 . S
N284 H291 0.984 . S
N285 C278 1.356 . S
N285 H288 0.984 . S
N285 H289 0.985 . S
H286 N281 0.984 . S
H287 N281 0.985 . S
H288 N285 0.984 . S
H289 N285 0.985 . S
H290 N284 0.984 . S
H291 N284 0.984 . S
H292 N280 0.984 . S
H293 N280 0.985 . S
C294 C295 1.363 . S
C294 C300 1.379 . S
C294 N302 1.356 . S
C295 C294 1.363 . S
C295 C301 1.363 . S
C296 C297 1.363 . S
C296 C301 1.379 . S
C296 N303 1.356 . S
C297 C296 1.363 . S
C297 C300 1.363 . S
N298 C300 1.356 . S
N298 H310 0.984 . S
N298 H311 0.985 . S
N299 C301 1.356 . S
N299 H304 0.984 . S
N299 H305 0.985 . S
C300 C294 1.379 . S
C300 C297 1.363 . S
C300 N298 1.356 . S
C301 C295 1.363 . S
C301 C296 1.379 . S
C301 N299 1.356 . S
N302 C294 1.356 . S
N302 H308 0.984 . S
N302 H309 0.984 . S
N303 C296 1.356 . S
N303 H306 0.984 . S
N303 H307 0.985 . S
H304 N299 0.984 . S
H305 N299 0.985 . S
H306 N303 0.984 . S
H307 N303 0.985 . S
H308 N302 0.984 . S
H309 N302 0.984 . S
H310 N298 0.984 . S
H311 N298 0.985 . S
C312 C313 1.363 . S
C312 C318 1.379 . S
C312 N320 1.356 . S
C313 C312 1.363 . S
C313 C319 1.363 . S
C314 C315 1.363 . S
C314 C319 1.379 . S
C314 N321 1.356 . S
C315 C314 1.363 . S
C315 C318 1.363 . S
N316 C318 1.356 . S
N316 H328 0.984 1_655 S
N316 H329 0.985 1_655 S
N317 C319 1.356 . S
N317 H322 0.984 . S
N317 H323 0.985 . S
C318 C312 1.379 . S
C318 C315 1.363 . S
C318 N316 1.356 . S
C319 C313 1.363 . S
C319 C314 1.379 . S
C319 N317 1.356 . S
N320 C312 1.356 . S
N320 H326 0.984 . S
N320 H327 0.984 . S
N321 C314 1.356 . S
N321 H324 0.984 . S
N321 H325 0.985 . S
H322 N317 0.984 . S
H323 N317 0.985 . S
H324 N321 0.984 . S
H325 N321 0.985 . S
H326 N320 0.984 . S
H327 N320 0.984 . S
H328 N316 0.984 1_455 S
H329 N316 0.985 1_455 S
C330 C331 1.363 . S
C330 C336 1.379 . S
C330 N338 1.356 . S
C331 C330 1.363 . S
C331 C337 1.363 . S
C332 C333 1.363 . S
C332 C337 1.379 . S
C332 N339 1.356 1_565 S
C333 C332 1.363 . S
C333 C336 1.363 . S
N334 C336 1.356 . S
N334 H346 0.984 . S
N334 H347 0.985 . S
N335 C337 1.356 . S
N335 H340 0.984 . S
N335 H341 0.985 . S
C336 C330 1.379 . S
C336 C333 1.363 . S
C336 N334 1.356 . S
C337 C331 1.363 . S
C337 C332 1.379 . S
C337 N335 1.356 . S
N338 C330 1.356 . S
N338 H344 0.984 . S
N338 H345 0.984 . S
N339 C332 1.356 1_545 S
N339 H342 0.984 . S
N339 H343 0.985 . S
H340 N335 0.984 . S
H341 N335 0.985 . S
H342 N339 0.984 . S
H343 N339 0.985 . S
H344 N338 0.984 . S
H345 N338 0.984 . S
H346 N334 0.984 . S
H347 N334 0.985 . S
C348 C349 1.363 . S
C348 C354 1.379 . S
C348 N356 1.356 . S
C349 C348 1.363 . S
C349 C355 1.363 . S
C350 C351 1.363 . S
C350 C355 1.379 . S
C350 N357 1.356 . S
C351 C350 1.363 . S
C351 C354 1.363 . S
N352 C354 1.356 . S
N352 H364 0.984 . S
N352 H365 0.985 . S
N353 C355 1.356 . S
N353 H358 0.984 . S
N353 H359 0.985 . S
C354 C348 1.379 . S
C354 C351 1.363 . S
C354 N352 1.356 . S
C355 C349 1.363 . S
C355 C350 1.379 . S
C355 N353 1.356 . S
N356 C348 1.356 . S
N356 H362 0.984 . S
N356 H363 0.984 . S
N357 C350 1.356 . S
N357 H360 0.984 . S
N357 H361 0.985 . S
H358 N353 0.984 . S
H359 N353 0.985 . S
H360 N357 0.984 . S
H361 N357 0.985 . S
H362 N356 0.984 . S
H363 N356 0.984 . S
H364 N352 0.984 . S
H365 N352 0.985 . S
C366 C367 1.363 . S
C366 C372 1.379 . S
C366 N374 1.356 . S
C367 C366 1.363 . S
C367 C373 1.363 . S
C368 C369 1.363 . S
C368 C373 1.379 . S
C368 N375 1.356 . S
C369 C368 1.363 . S
C369 C372 1.363 . S
N370 C372 1.356 . S
N370 H382 0.984 . S
N370 H383 0.985 . S
N371 C373 1.356 . S
N371 H376 0.984 . S
N371 H377 0.985 . S
C372 C366 1.379 . S
C372 C369 1.363 . S
C372 N370 1.356 . S
C373 C367 1.363 . S
C373 C368 1.379 . S
C373 N371 1.356 . S
N374 C366 1.356 . S
N374 H380 0.984 . S
N374 H381 0.984 . S
N375 C368 1.356 . S
N375 H378 0.984 . S
N375 H379 0.985 . S
H376 N371 0.984 . S
H377 N371 0.985 . S
H378 N375 0.984 . S
H379 N375 0.985 . S
H380 N374 0.984 . S
H381 N374 0.984 . S
H382 N370 0.984 . S
H383 N370 0.985 . S
C384 C385 1.363 . S
C384 C390 1.379 . S
C384 N392 1.356 . S
C385 C384 1.363 . S
C385 C391 1.363 . S
C386 C387 1.363 . S
C386 C391 1.379 . S
C386 N393 1.356 . S
C387 C386 1.363 . S
C387 C390 1.363 . S
N388 C390 1.356 . S
N388 H400 0.984 . S
N388 H401 0.985 . S
N389 C391 1.356 . S
N389 H394 0.984 . S
N389 H395 0.985 . S
C390 C384 1.379 . S
C390 C387 1.363 . S
C390 N388 1.356 . S
C391 C385 1.363 . S
C391 C386 1.379 . S
C391 N389 1.356 . S
N392 C384 1.356 . S
N392 H398 0.984 . S
N392 H399 0.984 . S
N393 C386 1.356 . S
N393 H396 0.984 . S
N393 H397 0.985 . S
H394 N389 0.984 . S
H395 N389 0.985 . S
H396 N393 0.984 . S
H397 N393 0.985 . S
H398 N392 0.984 . S
H399 N392 0.984 . S
H400 N388 0.984 . S
H401 N388 0.985 . S
C402 C403 1.364 . S
C402 C408 1.378 1_455 S
C402 N410 1.354 . S
C403 C402 1.364 . S
C403 C409 1.363 . S
C404 C405 1.364 . S
C404 C409 1.378 1_656 S
C404 N411 1.354 . S
C405 C404 1.364 . S
C405 C408 1.363 1_556 S
N406 C408 1.356 1_556 S
N406 H418 0.984 1_556 S
N406 H419 0.985 . S
N407 C409 1.356 . S
N407 H412 0.984 . S
N407 H413 0.985 . S
C408 C402 1.378 1_655 S
C408 C405 1.363 1_554 S
C408 N406 1.356 1_554 S
C409 C403 1.363 . S
C409 C404 1.378 1_454 S
C409 N407 1.356 . S
N410 C402 1.354 . S
N410 H416 0.999 1_455 S
N410 H417 0.978 . S
N411 C404 1.354 . S
N411 H414 0.978 . S
N411 H415 0.999 1_655 S
H412 N407 0.984 . S
H413 N407 0.985 . S
H414 N411 0.978 . S
H415 N411 0.999 1_455 S
H416 N410 0.999 1_655 S
H417 N410 0.978 . S
H418 N406 0.984 1_554 S
H419 N406 0.985 . S
C420 C421 1.363 1_565 S
C420 C426 1.379 . S
C420 N428 1.356 . S
C421 C420 1.363 1_545 S
C421 C427 1.363 . S
C422 C423 1.363 . S
C422 C427 1.379 . S
C422 N429 1.356 . S
C423 C422 1.363 . S
C423 C426 1.363 1_545 S
N424 C426 1.356 . S
N424 H436 0.984 . S
N424 H437 0.985 . S
N425 C427 1.356 . S
N425 H430 0.984 . S
N425 H431 0.985 . S
C426 C420 1.379 . S
C426 C423 1.363 1_565 S
C426 N424 1.356 . S
C427 C421 1.363 . S
C427 C422 1.379 . S
C427 N425 1.356 . S
N428 C420 1.356 . S
N428 H434 0.984 . S
N428 H435 0.984 . S
N429 C422 1.356 . S
N429 H432 0.984 . S
N429 H433 0.985 . S
H430 N425 0.984 . S
H431 N425 0.985 . S
H432 N429 0.984 . S
H433 N429 0.985 . S
H434 N428 0.984 . S
H435 N428 0.984 . S
H436 N424 0.984 . S
H437 N424 0.985 . S
C438 C439 1.363 . S
C438 C444 1.379 . S
C438 N446 1.356 . S
C439 C438 1.363 . S
C439 C445 1.363 . S
C440 C441 1.363 . S
C440 C445 1.379 . S
C440 N447 1.356 . S
C441 C440 1.363 . S
C441 C444 1.363 . S
N442 C444 1.356 . S
N442 H454 0.984 . S
N442 H455 0.985 . S
N443 C445 1.356 . S
N443 H448 0.984 . S
N443 H449 0.985 . S
C444 C438 1.379 . S
C444 C441 1.363 . S
C444 N442 1.356 . S
C445 C439 1.363 . S
C445 C440 1.379 . S
C445 N443 1.356 . S
N446 C438 1.356 . S
N446 H452 0.984 . S
N446 H453 0.984 . S
N447 C440 1.356 . S
N447 H450 0.984 . S
N447 H451 0.985 . S
H448 N443 0.984 . S
H449 N443 0.985 . S
H450 N447 0.984 . S
H451 N447 0.985 . S
H452 N446 0.984 . S
H453 N446 0.984 . S
H454 N442 0.984 . S
H455 N442 0.985 . S
C456 C457 1.363 1_565 S
C456 C462 1.379 . S
C456 N464 1.356 . S
C457 C456 1.363 1_545 S
C457 C463 1.363 . S
C458 C459 1.363 . S
C458 C463 1.379 . S
C458 N465 1.356 . S
C459 C458 1.363 . S
C459 C462 1.363 1_545 S
N460 C462 1.356 . S
N460 H472 0.984 . S
N460 H473 0.985 . S
N461 C463 1.356 . S
N461 H466 0.984 . S
N461 H467 0.985 . S
C462 C456 1.379 . S
C462 C459 1.363 1_565 S
C462 N460 1.356 . S
C463 C457 1.363 . S
C463 C458 1.379 . S
C463 N461 1.356 . S
N464 C456 1.356 . S
N464 H470 0.984 . S
N464 H471 0.984 . S
N465 C458 1.356 . S
N465 H468 0.984 . S
N465 H469 0.985 . S
H466 N461 0.984 . S
H467 N461 0.985 . S
H468 N465 0.984 . S
H469 N465 0.985 . S
H470 N464 0.984 . S
H471 N464 0.984 . S
H472 N460 0.984 . S
H473 N460 0.985 . S
C474 C475 1.363 . S
C474 C480 1.379 . S
C474 N482 1.356 . S
C475 C474 1.363 . S
C475 C481 1.363 . S
C476 C477 1.363 1_556 S
C476 C481 1.379 . S
C476 N483 1.356 1_556 S
C477 C476 1.363 1_554 S
C477 C480 1.363 1_554 S
N478 C480 1.356 1_554 S
N478 H490 0.984 . S
N478 H491 0.985 . S
N479 C481 1.356 . S
N479 H484 0.984 . S
N479 H485 0.985 . S
C480 C474 1.379 . S
C480 C477 1.363 1_556 S
C480 N478 1.356 1_556 S
C481 C475 1.363 . S
C481 C476 1.379 . S
C481 N479 1.356 . S
N482 C474 1.356 . S
N482 H488 0.984 . S
N482 H489 0.984 . S
N483 C476 1.356 1_554 S
N483 H486 0.984 . S
N483 H487 0.985 . S
H484 N479 0.984 . S
H485 N479 0.985 . S
H486 N483 0.984 . S
H487 N483 0.985 . S
H488 N482 0.984 . S
H489 N482 0.984 . S
H490 N478 0.984 . S
H491 N478 0.985 . S
C492 C493 1.363 1_655 S
C492 C498 1.379 . S
C492 N500 1.356 . S
C493 C492 1.363 1_455 S
C493 C499 1.363 . S
C494 C495 1.363 . S
C494 C499 1.379 . S
C494 N501 1.356 . S
C495 C494 1.363 . S
C495 C498 1.363 1_455 S
N496 C498 1.356 . S
N496 H508 0.984 . S
N496 H509 0.985 . S
N497 C499 1.356 . S
N497 H502 0.984 . S
N497 H503 0.985 . S
C498 C492 1.379 . S
C498 C495 1.363 1_655 S
C498 N496 1.356 . S
C499 C493 1.363 . S
C499 C494 1.379 . S
C499 N497 1.356 . S
N500 C492 1.356 . S
N500 H506 0.984 . S
N500 H507 0.984 . S
N501 C494 1.356 . S
N501 H504 0.984 . S
N501 H505 0.985 . S
H502 N497 0.984 . S
H503 N497 0.985 . S
H504 N501 0.984 . S
H505 N501 0.985 . S
H506 N500 0.984 . S
H507 N500 0.984 . S
H508 N496 0.984 . S
H509 N496 0.985 . S
C187 C10 3.099 . S
C189 C185 3.044 . S
C205 C59 3.161 . S
C207 C163 3.088 . S
C223 C90 3.089 . S
C225 C174 3.029 . S
C241 C19 3.054 . S
C243 C179 3.011 . S
C261 C157 2.974 . S
C259 C50 3.008 . S
C279 C168 3.021 . S
C277 C99 3.063 . S
C295 C46 0.836 . S
C297 C141 0.865 . S
C313 C95 0.666 . S
C315 C146 0.594 . S
C331 C6 0.540 . S
C333 C124 0.448 . S
C351 C135 0.622 . S
C349 C55 0.676 . S
C369 C152 0.756 . S
C367 C86 0.755 . S
C385 C15 0.750 . S
C387 C130 0.750 . S
C405 C147 1.178 . S
C403 C9 1.185 . S
C421 C49 1.063 . S
C423 C125 1.104 . S
C439 C89 1.141 . S
C441 C136 1.146 . S
C459 C169 1.770 . S
C457 C58 1.725 . S
C477 C180 1.794 . S
C475 C98 1.721 . S
C493 C18 1.708 . S
C495 C158 1.833 . S
