# Generated by pormake.
# Topology pts, (4,4)-cn, num edge types: 1
# Building blocks:
#     Node 0, Type 0, BuildingBlock: MUDLON_clean_linker_0, # of connection points: 4
#     Node 1, Type 0, BuildingBlock: MUDLON_clean_linker_0, # of connection points: 4
#     Node 2, Type 1, BuildingBlock: AZAVOO_clean_sbu_0, # of connection points: 4
#     Node 3, Type 1, BuildingBlock: AZAVOO_clean_sbu_0, # of connection points: 4
#     Edge 4, Type (0, 1), BuildingBlock: EZIPEK_clean_linker_0, # of connection points: 2
#     Edge 5, Type (0, 1), BuildingBlock: EZIPEK_clean_linker_0, # of connection points: 2
#     Edge 6, Type (0, 1), BuildingBlock: EZIPEK_clean_linker_0, # of connection points: 2
#     Edge 7, Type (0, 1), BuildingBlock: EZIPEK_clean_linker_0, # of connection points: 2
#     Edge 8, Type (0, 1), BuildingBlock: EZIPEK_clean_linker_0, # of connection points: 2
#     Edge 9, Type (0, 1), BuildingBlock: EZIPEK_clean_linker_0, # of connection points: 2
#     Edge 10, Type (0, 1), BuildingBlock: EZIPEK_clean_linker_0, # of connection points: 2
#     Edge 11, Type (0, 1), BuildingBlock: EZIPEK_clean_linker_0, # of connection points: 2
# Relax obj value: 0.019
# Max RMSD: 0.069
# Mean RMSD: 0.065
data_MOF--net-pts--node1-AZAVOO_clean_sbu_0--node2-MUDLON_clean_linker_0--edge1-EZIPEK_clean_linker_0
_symmetry_space_group_name_H-M    P1
_symmetry_Int_Tables_number       1
_symmetry_cell_setting            triclinic
loop_
_symmetry_equiv_pos_as_xyz
'x, y, z'
_cell_length_a     26.888984
_cell_length_b     27.978292
_cell_length_c     35.392958
_cell_angle_alpha  89.843476
_cell_angle_beta   96.355071
_cell_angle_gamma 89.764844
loop_
_atom_site_label
_atom_site_type_symbol
_atom_site_fract_x
_atom_site_fract_y
_atom_site_fract_z
_atom_type_partial_charge
H0 H 0.75871 0.10821 0.0583 0.0
N1 N 0.71699 0.04427 0.00967 0.0
H2 H 0.81777 0.09362 0.11534 0.0
H3 H 0.75296 0.95672 0.03625 0.0
H4 H 0.80885 0.94194 0.09439 0.0
H5 H 0.7215 0.95969 0.97183 0.0
H6 H 0.75456 0.94699 0.91277 0.0
H7 H 0.75954 0.10844 0.96861 0.0
H8 H 0.79145 0.09729 0.90802 0.0
H9 H 0.64496 0.10876 0.99396 0.0
H10 H 0.66921 0.96114 0.02614 0.0
H11 H 0.55451 0.09729 0.99168 0.0
H12 H 0.57996 0.95 0.02619 0.0
H13 H 0.30315 0.07428 0.02035 0.0
H14 H 0.2547 0.09239 0.07355 0.0
H15 H 0.29212 0.95359 0.12203 0.0
H16 H 0.34004 0.9352 0.06856 0.0
H17 H 0.28368 0.92322 0.9789 0.0
H18 H 0.22463 0.92915 0.92088 0.0
H19 H 0.28172 0.06905 0.89858 0.0
H20 H 0.34038 0.06331 0.95701 0.0
H21 H 0.39768 0.07237 0.0264 0.0
H22 H 0.48747 0.08579 0.02804 0.0
H23 H 0.50591 0.94259 0.98576 0.0
N24 N 0.3481 0.98861 0.00751 0.0
H25 H 0.41644 0.92881 0.98647 0.0
C26 C 0.75036 0.03375 0.04344 0.0
C27 C 0.76956 0.07186 0.06606 0.0
C28 C 0.80316 0.06352 0.09846 0.0
C29 C 0.81743 0.01665 0.10924 0.0
C30 C 0.79815 0.97835 0.08668 0.0
C31 C 0.76565 0.98684 0.05366 0.0
C32 C 0.73615 0.03556 0.97393 0.0
C33 C 0.73546 0.99013 0.95742 0.0
C34 C 0.75309 0.98341 0.92205 0.0
C35 C 0.76915 0.02248 0.90088 0.0
C36 C 0.7739 0.06697 0.91999 0.0
C37 C 0.75675 0.07351 0.95544 0.0
C38 C 0.66417 0.03625 0.01065 0.0
C39 C 0.63079 0.07409 1.00111 0.0
C40 C 0.5791 0.06747 1.00006 0.0
C41 C 0.55956 0.02267 0.0088 0.0
C42 C 0.59329 0.98483 0.01864 0.0
C43 C 0.64489 0.99136 0.01917 0.0
C44 C 0.32498 0.00309 0.04052 0.0
C45 C 0.30154 0.04799 0.04263 0.0
C46 C 0.27397 0.05838 0.07291 0.0
C47 C 0.26992 0.02422 0.10148 0.0
C48 C 0.29503 0.98034 0.10019 0.0
C49 C 0.32232 0.9699 0.06989 0.0
C50 C 0.31656 0.99246 0.97199 0.0
C51 C 0.28366 0.95496 0.96131 0.0
C52 C 0.25002 0.95843 0.92845 0.0
C53 C 0.24888 -0.00045 0.90563 0.0
C54 C 0.28214 0.03709 0.91596 0.0
C55 C 0.31566 0.03371 0.94909 0.0
C56 C 0.40048 -0.00091 0.00693 0.0
C57 C 0.42106 0.04377 0.01777 0.0
C58 C 0.47257 0.05154 0.01832 0.0
C59 C 0.50441 0.01513 0.0074 0.0
C60 C 0.4831 0.97109 0.99538 0.0
C61 C 0.43185 0.96321 0.99538 0.0
H62 H 1.00201 0.7256 0.52143 0.0
N63 N 0.08769 0.67603 0.50983 0.0
H64 H 0.99157 0.78044 0.57277 0.0
H65 H 0.15514 0.69961 0.56753 0.0
H66 H 0.14556 0.75845 0.61802 0.0
H67 H 0.16402 0.70983 0.47678 0.0
H68 H 0.16003 0.76277 0.42106 0.0
H69 H 1.00348 0.69518 0.46045 0.0
H70 H 0.99935 0.7496 0.40592 0.0
H71 H 0.99031 0.64802 0.51568 0.0
H72 H 0.13919 0.59592 0.50451 0.0
H73 H 0.9599 0.56707 0.51695 0.0
H74 H 0.10818 0.51373 0.5041 0.0
H75 H 0.89638 0.34412 0.56484 0.0
H76 H 0.90316 0.29418 0.62268 0.0
H77 H 0.03795 0.22995 0.58997 0.0
H78 H 0.03248 0.28075 0.53346 0.0
H79 H 0.04058 0.34051 0.47214 0.0
H80 H 0.05743 0.28632 0.4211 0.0
H81 H 0.91038 0.22553 0.42107 0.0
H82 H 0.89256 0.28105 0.47162 0.0
H83 H 0.91019 0.41874 0.477 0.0
H84 H 0.94225 0.50034 0.47619 0.0
H85 H 0.07732 0.45464 0.54471 0.0
N86 N 0.95537 0.3421 0.50906 0.0
H87 H 0.04595 0.37311 0.54391 0.0
C88 C 0.07921 0.707 0.54107 0.0
C89 C 0.03318 0.73048 0.54297 0.0
C90 C 0.02725 0.76243 0.57224 0.0
C91 C 0.06762 0.77321 0.59942 0.0
C92 C 0.11372 0.75005 0.59766 0.0
C93 C 0.1192 0.71675 0.5689 0.0
C94 C 0.08423 0.69937 0.47329 0.0
C95 C 0.12814 0.71716 0.4607 0.0
C96 C 0.12585 0.74711 0.42895 0.0
C97 C 0.07935 0.76024 0.40965 0.0
C98 C 0.03553 0.73976 0.42046 0.0
C99 C 0.03795 0.70911 0.4519 0.0
C100 C 0.06761 0.62839 0.51041 0.0
C101 C 0.01676 0.61945 0.51347 0.0
C102 C 0.99905 0.57269 0.5138 0.0
C103 C 0.03151 0.53379 0.51059 0.0
C104 C 0.08227 0.5428 0.50724 0.0
C105 C 0.10001 0.58966 0.50722 0.0
C106 C 0.96297 0.31541 0.54429 0.0
C107 C 0.92773 0.31975 0.57051 0.0
C108 C 0.93167 0.29152 0.60342 0.0
C109 C 0.97058 0.25791 0.61011 0.0
C110 C 0.00739 0.25537 0.58504 0.0
C111 C 1.00396 0.28413 0.55258 0.0
C112 C 0.96486 0.31504 0.4758 0.0
C113 C 0.0112 0.31672 0.46062 0.0
C114 C 0.02097 0.28578 0.43141 0.0
C115 C 0.98517 0.252 0.4175 0.0
C116 C 0.93832 0.25157 0.4314 0.0
C117 C 0.92824 0.28301 0.46021 0.0
C118 C 0.97509 0.38999 0.51082 0.0
C119 C 0.9466 0.42655 0.49193 0.0
C120 C 0.96493 0.47311 0.49168 0.0
C121 C 0.01228 0.48411 0.51059 0.0
C122 C 0.04094 0.44734 0.52955 0.0
C123 C 0.0227 0.40069 0.52952 0.0
Mg124 Mg 0.07538 0.00761 0.28214 0.0
O125 O 1.00256 0.00085 0.24263 0.0
O126 O 0.94126 0.98079 0.27729 0.0
Mg127 Mg 0.97519 0.97358 0.33941 0.0
C128 C 0.95678 0.9914 0.24552 0.0
C129 C 0.15256 0.0187 0.2266 0.0
O130 O 0.16981 0.98323 0.24869 0.0
O131 O 0.04852 0.07929 0.30346 0.0
O132 O 0.99269 0.05381 0.34175 0.0
O133 O 0.09337 0.92883 0.27979 0.0
O134 O 0.04977 0.96215 0.32195 0.0
C135 C 0.01753 0.08706 0.32772 0.0
C136 C 0.06981 0.92449 0.30955 0.0
O137 O 0.11302 0.04042 0.23364 0.0
Mg138 Mg 0.98328 0.99074 0.73795 0.0
O139 O 0.05698 -0.00478 0.77719 0.0
O140 O 0.11752 0.00957 0.7399 0.0
Mg141 Mg 0.08447 0.00756 0.67739 0.0
C142 C 0.10267 0.00331 0.77261 0.0
C143 C 0.89104 0.01098 0.77816 0.0
O144 O 0.87532 0.01881 0.74221 0.0
O145 O 0.98367 0.07133 0.72712 0.0
O146 O 0.03864 0.07579 0.68403 0.0
O147 O 0.99113 0.91132 0.72978 0.0
O148 O 0.02217 0.96625 0.69462 0.0
C149 C 0.00541 0.09456 0.70255 0.0
C150 C 0.01588 0.9218 0.70152 0.0
O151 O 0.93641 -0.00088 0.78747 0.0
C152 C 0.1861 0.01679 0.12556 0.0
C153 C 0.23653 0.03238 0.13154 0.0
C154 C 0.22818 0.04825 0.19859 0.0
C155 C 0.17838 0.03083 0.19302 0.0
N156 N 0.10613 0.0076 0.15054 0.0
N157 N 0.30275 0.07219 0.17037 0.0
C158 C 0.15596 0.01846 0.15615 0.0
C159 C 0.25661 0.05126 0.16706 0.0
N160 N 0.16794 -0.00183 0.09107 0.0
N161 N 0.2485 0.06069 0.23433 0.0
H162 H 0.32451 0.07435 0.14778 0.0
H163 H 0.31815 0.09049 0.19438 0.0
H164 H 0.22759 0.06205 0.25745 0.0
H165 H 0.28621 0.06817 0.24157 0.0
H166 H 0.13386 0.98059 0.08593 0.0
H167 H 0.18823 -0.00187 0.06759 0.0
H168 H 0.08621 0.00318 0.12387 0.0
H169 H 0.0833 0.00616 0.17245 0.0
C170 C 0.93667 0.18398 0.63844 0.0
C171 C 0.97135 0.22231 0.64143 0.0
C172 C 0.02097 0.18183 0.69448 0.0
C173 C 0.98741 0.14282 0.69031 0.0
N174 N 0.90528 0.1135 0.6676 0.0
N175 N 0.03809 0.26416 0.67816 0.0
C176 C 0.94223 0.14652 0.66572 0.0
C177 C 0.0107 0.22341 0.67163 0.0
N178 N 0.90091 0.18116 0.60788 0.0
N179 N 0.06349 0.1781 0.7193 0.0
H180 H 0.03085 0.29507 0.66185 0.0
H181 H 0.06483 0.26877 0.70145 0.0
H182 H 0.07014 0.14908 0.73782 0.0
H183 H 0.09263 0.20264 0.72071 0.0
H184 H 0.87888 0.15104 0.60174 0.0
H185 H 0.89569 0.20718 0.5867 0.0
H186 H 0.86968 0.11708 0.65294 0.0
H187 H 0.90826 0.08508 0.68677 0.0
C188 C 0.8388 0.02305 0.18008 0.0
C189 C 0.85233 0.00792 0.14437 0.0
C190 C 0.93031 0.97427 0.17634 0.0
C191 C 0.92001 -0.00434 0.21101 0.0
N192 N 0.86915 0.05104 0.2428 0.0
N193 N 0.91619 0.97757 0.10768 0.0
C194 C 0.87545 0.0229 0.21216 0.0
C195 C 0.89957 0.98579 0.14221 0.0
N196 N 0.79066 0.03653 0.1837 0.0
N197 N 0.96829 0.94171 0.17607 0.0
H198 H 0.89565 0.98691 0.08198 0.0
H199 H 0.95244 0.96598 0.10475 0.0
H200 H 0.99029 0.93065 0.20069 0.0
H201 H 0.97433 0.9219 0.15209 0.0
H202 H 0.77799 0.04355 0.20993 0.0
H203 H 0.76223 0.03574 0.16113 0.0
H204 H 0.8394 0.07498 0.24315 0.0
H205 H 0.89627 0.05478 0.26601 0.0
C206 C 0.06447 0.80329 0.66667 0.0
C207 C 0.06184 0.81233 0.627 0.0
C208 C 0.02705 0.89153 0.63623 0.0
C209 C 0.03369 0.88454 0.6763 0.0
N210 N 0.07164 0.83812 0.72963 0.0
N211 N 0.05629 0.87064 0.57633 0.0
C212 C 0.05633 0.84168 0.69162 0.0
C213 C 0.0485 0.85842 0.61261 0.0
N214 N 0.07262 0.75797 0.68046 0.0
N215 N 0.99717 0.9275 0.62017 0.0
H216 H 0.07321 0.84754 0.55843 0.0
H217 H 0.05107 0.90532 0.56573 0.0
H218 H 0.9762 0.95007 0.63565 0.0
H219 H 0.9881 0.93093 0.59088 0.0
H220 H 0.06965 0.74877 0.70867 0.0
H221 H 0.07815 0.72881 0.6631 0.0
H222 H 0.0923 0.80919 0.74161 0.0
H223 H 0.06862 0.86631 0.74847 0.0
C224 C 0.21943 0.97318 0.83931 0.0
C225 C 0.21265 0.00276 0.87082 0.0
C226 C 0.13669 0.03685 0.83603 0.0
C227 C 0.14051 0.0034 0.80639 0.0
N228 N 0.18028 0.93348 0.78312 0.0
N229 N 0.16091 0.05749 0.90194 0.0
C230 C 0.18056 0.96991 0.80884 0.0
C231 C 0.17021 0.03327 0.86996 0.0
N232 N 0.26353 0.94903 0.8381 0.0
N233 N 0.10224 0.07305 0.83125 0.0
H234 H 0.18453 0.05583 0.92736 0.0
H235 H 0.12772 0.07603 0.90426 0.0
H236 H 0.0775 0.07725 0.80659 0.0
H237 H 0.10123 0.10138 0.85018 0.0
H238 H 0.27261 0.93091 0.8141 0.0
H239 H 0.29306 0.95082 0.8598 0.0
H240 H 0.20567 0.90513 0.78594 0.0
H241 H 0.15181 0.92887 0.76093 0.0
C242 C 0.9761 0.21167 0.35358 0.0
C243 C 0.99864 0.21333 0.3918 0.0
C244 C 0.04483 0.13968 0.38202 0.0
C245 C 0.01659 0.13422 0.34611 0.0
N246 N 0.95416 0.16305 0.29739 0.0
N247 N 0.04928 0.17545 0.44434 0.0
C248 C 0.98216 0.16992 0.33156 0.0
C249 C 0.03212 0.1767 0.40647 0.0
N250 N 0.94956 0.25021 0.33837 0.0
N251 N 0.08373 0.10917 0.39279 0.0
H252 H 0.04007 0.20111 0.46373 0.0
H253 H 0.06901 0.14661 0.45733 0.0
H254 H 0.09384 0.08135 0.37556 0.0
H255 H 0.1089 0.11424 0.41699 0.0
H256 H 0.93594 0.25305 0.30975 0.0
H257 H 0.94465 0.28123 0.35386 0.0
H258 H 0.92432 0.18499 0.28707 0.0
H259 H 0.95937 0.13367 0.28012 0.0
C260 C 0.79841 0.97287 0.84593 0.0
C261 C 0.78606 0.01754 0.86129 0.0
C262 C 0.83224 0.05763 0.81435 0.0
C263 C 0.85495 0.01331 0.80677 0.0
N264 N 0.85811 0.92734 0.81451 0.0
N265 N 0.76173 0.09626 0.83877 0.0
C266 C 0.83787 0.97048 0.82251 0.0
C267 C 0.79422 0.05862 0.83921 0.0
N268 N 0.76612 0.93554 0.84645 0.0
N269 N 0.84831 0.099 0.79918 0.0
H270 H 0.73004 0.09492 0.85334 0.0
H271 H 0.76267 0.12552 0.82059 0.0
H272 H 0.87629 0.0998 0.78098 0.0
H273 H 0.83665 0.13272 0.80712 0.0
H274 H 0.77134 0.90307 0.83303 0.0
H275 H 0.73002 0.94055 0.85403 0.0
H276 H 0.84971 0.89594 0.8284 0.0
H277 H 0.88539 0.92345 0.79594 0.0
C278 C 0.06234 0.79495 0.34333 0.0
C279 C 0.07628 0.80135 0.38288 0.0
C280 C 0.09372 0.88551 0.37212 0.0
C281 C 0.07395 0.88085 0.33344 0.0
N282 N 0.03388 0.83254 0.28272 0.0
N283 N 0.09339 0.8553 0.43594 0.0
C284 C 0.05686 0.83585 0.31901 0.0
C285 C 0.08846 0.8474 0.39758 0.0
N286 N 0.05549 0.74989 0.32899 0.0
N287 N 0.11967 0.92556 0.38433 0.0
H288 H 0.08846 0.82868 0.45586 0.0
H289 H 0.09712 0.88936 0.44774 0.0
H290 H 0.12703 0.95352 0.36624 0.0
H291 H 0.13893 0.92851 0.41144 0.0
H292 H 0.05021 0.74255 0.3 0.0
H293 H 0.05896 0.71938 0.34612 0.0
H294 H 0.01608 0.80175 0.27183 0.0
H295 H 0.02927 0.86183 0.26434 0.0
loop_
_geom_bond_atom_site_label_1
_geom_bond_atom_site_label_2
_geom_bond_distance
_geom_bond_site_symmetry_2
_ccdc_geom_bond_type
H0 C27 0.929 . S
N1 C26 1.433 . S
N1 C32 1.435 1_554 S
N1 C38 1.423 . S
H2 C28 0.930 . S
H3 C31 0.931 . S
H4 C30 0.929 . S
H5 C33 0.930 . S
H6 C34 0.932 . S
H7 C37 0.929 . S
H8 C36 0.931 . S
H9 C39 0.929 . S
H10 C43 0.932 1_565 S
H11 C40 0.931 . S
H12 C42 0.921 1_565 S
H13 C45 0.929 . S
H14 C46 0.930 . S
H15 C48 0.929 . S
H16 C49 0.931 . S
H17 C51 0.930 . S
H18 C52 0.932 . S
H19 C54 0.931 . S
H20 C55 0.929 . S
H21 C57 0.929 . S
H22 C58 0.931 . S
H23 C60 0.921 1_565 S
N24 C44 1.449 . S
N24 C50 1.423 1_554 S
N24 C56 1.420 1_554 S
H25 C61 0.932 1_565 S
C26 N1 1.433 . S
C26 C27 1.363 . S
C26 C31 1.370 1_545 S
C27 H0 0.929 . S
C27 C26 1.363 . S
C27 C28 1.385 . S
C28 H2 0.930 . S
C28 C27 1.385 . S
C28 C29 1.357 . S
C29 C28 1.357 . S
C29 C30 1.406 1_545 S
C30 H4 0.929 . S
C30 C29 1.406 1_565 S
C30 C31 1.391 . S
C31 H3 0.931 . S
C31 C26 1.370 1_565 S
C31 C30 1.391 . S
C32 N1 1.435 1_556 S
C32 C33 1.358 1_545 S
C32 C37 1.371 . S
C33 H5 0.930 . S
C33 C32 1.358 1_565 S
C33 C34 1.405 . S
C34 H6 0.932 . S
C34 C33 1.405 . S
C34 C35 1.383 1_565 S
C35 C34 1.383 1_545 S
C35 C36 1.393 . S
C36 H8 0.931 . S
C36 C35 1.393 . S
C36 C37 1.382 . S
C37 H7 0.929 . S
C37 C32 1.371 . S
C37 C36 1.382 . S
C38 N1 1.423 . S
C38 C39 1.370 . S
C38 C43 1.381 1_554 S
C39 H9 0.929 . S
C39 C38 1.370 . S
C39 C40 1.376 . S
C40 H11 0.931 . S
C40 C39 1.376 . S
C40 C41 1.396 1_554 S
C41 C40 1.396 1_556 S
C41 C42 1.348 . S
C41 C59 1.472 . S
C42 H12 0.921 1_545 S
C42 C41 1.348 . S
C42 C43 1.443 . S
C43 H10 0.932 1_545 S
C43 C38 1.381 1_556 S
C43 C42 1.443 . S
C44 N24 1.449 . S
C44 C45 1.363 . S
C44 C49 1.370 1_545 S
C45 H13 0.929 . S
C45 C44 1.363 . S
C45 C46 1.385 . S
C46 H14 0.930 . S
C46 C45 1.385 . S
C46 C47 1.357 . S
C47 C46 1.357 . S
C47 C48 1.406 1_545 S
C48 H15 0.929 . S
C48 C47 1.406 1_565 S
C48 C49 1.391 . S
C49 H16 0.931 . S
C49 C44 1.370 1_565 S
C49 C48 1.391 . S
C50 N24 1.423 1_556 S
C50 C51 1.358 1_545 S
C50 C55 1.371 . S
C51 H17 0.930 . S
C51 C50 1.358 1_565 S
C51 C52 1.405 . S
C52 H18 0.932 . S
C52 C51 1.405 . S
C52 C53 1.383 1_565 S
C53 C52 1.383 1_545 S
C53 C54 1.393 . S
C54 H19 0.931 . S
C54 C53 1.393 . S
C54 C55 1.382 . S
C55 H20 0.929 . S
C55 C50 1.371 . S
C55 C54 1.382 . S
C56 N24 1.420 1_556 S
C56 C57 1.362 1_556 S
C56 C61 1.388 . S
C57 H21 0.929 . S
C57 C56 1.362 1_554 S
C57 C58 1.376 . S
C58 H22 0.931 . S
C58 C57 1.376 . S
C58 C59 1.396 1_554 S
C59 C41 1.472 . S
C59 C58 1.396 1_556 S
C59 C60 1.348 . S
C60 H23 0.921 1_545 S
C60 C59 1.348 . S
C60 C61 1.443 . S
C61 H25 0.932 1_545 S
C61 C56 1.388 . S
C61 C60 1.443 . S
H62 C89 0.929 . S
N63 C88 1.433 . S
N63 C94 1.435 . S
N63 C100 1.423 1_455 S
H64 C90 0.930 . S
H65 C93 0.931 . S
H66 C92 0.929 . S
H67 C95 0.930 . S
H68 C96 0.932 . S
H69 C99 0.929 . S
H70 C98 0.931 . S
H71 C101 0.929 . S
H72 C105 0.932 . S
H73 C102 0.931 . S
H74 C104 0.929 . S
H75 C107 0.929 . S
H76 C108 0.930 . S
H77 C110 0.929 . S
H78 C111 0.931 . S
H79 C113 0.930 . S
H80 C114 0.932 . S
H81 C116 0.931 . S
H82 C117 0.929 . S
H83 C119 0.929 . S
H84 C120 0.931 . S
H85 C122 0.929 . S
N86 C106 1.433 . S
N86 C112 1.435 . S
N86 C118 1.423 1_455 S
H87 C123 0.932 . S
C88 N63 1.433 . S
C88 C89 1.363 1_455 S
C88 C93 1.370 . S
C89 H62 0.929 . S
C89 C88 1.363 1_655 S
C89 C90 1.385 . S
C90 H64 0.930 . S
C90 C89 1.385 . S
C90 C91 1.357 1_655 S
C91 C90 1.357 1_455 S
C91 C92 1.406 . S
C92 H66 0.929 . S
C92 C91 1.406 . S
C92 C93 1.391 . S
C93 H65 0.931 . S
C93 C88 1.370 . S
C93 C92 1.391 . S
C94 N63 1.435 . S
C94 C95 1.358 . S
C94 C99 1.371 1_455 S
C95 H67 0.930 . S
C95 C94 1.358 . S
C95 C96 1.405 . S
C96 H68 0.932 . S
C96 C95 1.405 . S
C96 C97 1.383 . S
C97 C96 1.383 . S
C97 C98 1.393 1_455 S
C98 H70 0.931 . S
C98 C97 1.393 1_655 S
C98 C99 1.382 . S
C99 H69 0.929 . S
C99 C94 1.371 1_655 S
C99 C98 1.382 . S
C100 N63 1.423 1_655 S
C100 C101 1.362 . S
C100 C105 1.388 1_655 S
C101 H71 0.929 . S
C101 C100 1.362 . S
C101 C102 1.376 . S
C102 H73 0.931 . S
C102 C101 1.376 . S
C102 C103 1.396 . S
C103 C102 1.396 . S
C103 C104 1.348 1_655 S
C103 C121 1.472 . S
C104 H74 0.929 . S
C104 C103 1.348 1_455 S
C104 C105 1.443 . S
C105 H72 0.932 . S
C105 C100 1.388 1_455 S
C105 C104 1.443 . S
C106 N86 1.433 . S
C106 C107 1.363 1_455 S
C106 C111 1.370 . S
C107 H75 0.929 . S
C107 C106 1.363 1_655 S
C107 C108 1.385 . S
C108 H76 0.930 . S
C108 C107 1.385 . S
C108 C109 1.357 1_655 S
C109 C108 1.357 1_455 S
C109 C110 1.406 . S
C110 H77 0.929 . S
C110 C109 1.406 . S
C110 C111 1.391 . S
C111 H78 0.931 . S
C111 C106 1.370 . S
C111 C110 1.391 . S
C112 N86 1.435 . S
C112 C113 1.358 . S
C112 C117 1.371 1_455 S
C113 H79 0.930 . S
C113 C112 1.358 . S
C113 C114 1.405 . S
C114 H80 0.932 . S
C114 C113 1.405 . S
C114 C115 1.383 . S
C115 C114 1.383 . S
C115 C116 1.393 1_455 S
C116 H81 0.931 . S
C116 C115 1.393 1_655 S
C116 C117 1.382 . S
C117 H82 0.929 . S
C117 C112 1.371 1_655 S
C117 C116 1.382 . S
C118 N86 1.423 1_655 S
C118 C119 1.362 . S
C118 C123 1.388 1_655 S
C119 H83 0.929 . S
C119 C118 1.362 . S
C119 C120 1.376 . S
C120 H84 0.931 . S
C120 C119 1.376 . S
C120 C121 1.396 . S
C121 C103 1.472 . S
C121 C120 1.396 . S
C121 C122 1.348 1_655 S
C122 H85 0.929 . S
C122 C121 1.348 1_455 S
C122 C123 1.443 . S
C123 H87 0.932 . S
C123 C118 1.388 1_455 S
C123 C122 1.443 . S
Mg124 O125 2.028 . S
Mg124 O131 1.986 . S
Mg124 O133 2.114 1_545 S
Mg124 O134 2.251 1_545 S
Mg124 O137 2.010 . S
O125 Mg124 2.028 . S
O125 C128 1.250 1_455 S
O126 Mg127 2.028 . S
O126 C128 1.248 . S
Mg127 O126 2.028 . S
Mg127 O132 2.032 . S
Mg127 O134 2.079 1_645 S
C128 O125 1.250 1_655 S
C128 O126 1.248 . S
C129 O130 1.264 . S
C129 O137 1.249 . S
O130 C129 1.264 . S
O131 Mg124 1.986 . S
O131 C135 1.246 . S
O132 Mg127 2.032 . S
O132 C135 1.259 1_655 S
O133 Mg124 2.114 1_565 S
O133 C136 1.252 . S
O134 Mg124 2.251 1_565 S
O134 Mg127 2.079 1_465 S
O134 C136 1.273 . S
C135 O131 1.246 . S
C135 O132 1.259 1_455 S
C136 O133 1.252 . S
C136 O134 1.273 . S
O137 Mg124 2.010 . S
O137 C129 1.249 . S
Mg138 O139 2.028 1_655 S
Mg138 O145 1.986 . S
Mg138 O147 2.114 1_545 S
Mg138 O148 2.251 1_645 S
Mg138 O151 2.010 . S
O139 Mg138 2.028 1_455 S
O139 C142 1.250 . S
O140 Mg141 2.028 . S
O140 C142 1.248 . S
Mg141 O140 2.028 . S
Mg141 O146 2.032 . S
Mg141 O148 2.079 1_545 S
C142 O139 1.250 . S
C142 O140 1.248 . S
C143 O144 1.264 . S
C143 O151 1.249 . S
O144 C143 1.264 . S
O145 Mg138 1.986 . S
O145 C149 1.246 1_655 S
O146 Mg141 2.032 . S
O146 C149 1.259 . S
O147 Mg138 2.114 1_565 S
O147 C150 1.252 1_655 S
O148 Mg138 2.251 1_465 S
O148 Mg141 2.079 1_565 S
O148 C150 1.273 . S
C149 O145 1.246 1_455 S
C149 O146 1.259 . S
C150 O147 1.252 1_455 S
C150 O148 1.273 . S
O151 Mg138 2.010 . S
O151 C143 1.249 . S
C152 C153 1.363 . S
C152 C158 1.379 . S
C152 N160 1.356 . S
C153 C152 1.363 . S
C153 C159 1.363 . S
C154 C155 1.363 . S
C154 C159 1.379 . S
C154 N161 1.356 . S
C155 C154 1.363 . S
C155 C158 1.363 . S
N156 C158 1.356 . S
N156 H168 0.984 . S
N156 H169 0.985 . S
N157 C159 1.356 . S
N157 H162 0.984 . S
N157 H163 0.985 . S
C158 C152 1.379 . S
C158 C155 1.363 . S
C158 N156 1.356 . S
C159 C153 1.363 . S
C159 C154 1.379 . S
C159 N157 1.356 . S
N160 C152 1.356 . S
N160 H166 0.984 . S
N160 H167 0.984 . S
N161 C154 1.356 . S
N161 H164 0.984 . S
N161 H165 0.985 . S
H162 N157 0.984 . S
H163 N157 0.985 . S
H164 N161 0.984 . S
H165 N161 0.985 . S
H166 N160 0.984 . S
H167 N160 0.984 . S
H168 N156 0.984 . S
H169 N156 0.985 . S
C170 C171 1.363 . S
C170 C176 1.379 . S
C170 N178 1.356 . S
C171 C170 1.363 . S
C171 C177 1.353 1_455 S
C172 C173 1.363 1_655 S
C172 C177 1.381 . S
C172 N179 1.356 . S
C173 C172 1.363 1_455 S
C173 C176 1.363 . S
N174 C176 1.356 . S
N174 H186 0.984 . S
N174 H187 0.985 . S
N175 C177 1.362 . S
N175 H180 0.984 . S
N175 H181 0.985 . S
C176 C170 1.379 . S
C176 C173 1.363 . S
C176 N174 1.356 . S
C177 C171 1.353 1_655 S
C177 C172 1.381 . S
C177 N175 1.362 . S
N178 C170 1.356 . S
N178 H184 0.984 . S
N178 H185 0.984 . S
N179 C172 1.356 . S
N179 H182 0.984 . S
N179 H183 0.985 . S
H180 N175 0.984 . S
H181 N175 0.985 . S
H182 N179 0.984 . S
H183 N179 0.985 . S
H184 N178 0.984 . S
H185 N178 0.984 . S
H186 N174 0.984 . S
H187 N174 0.985 . S
C188 C189 1.363 . S
C188 C194 1.379 . S
C188 N196 1.356 . S
C189 C188 1.363 . S
C189 C195 1.363 1_545 S
C190 C191 1.363 1_565 S
C190 C195 1.379 . S
C190 N197 1.356 . S
C191 C190 1.363 1_545 S
C191 C194 1.363 . S
N192 C194 1.356 . S
N192 H204 0.984 . S
N192 H205 0.985 . S
N193 C195 1.356 . S
N193 H198 0.984 . S
N193 H199 0.985 . S
C194 C188 1.379 . S
C194 C191 1.363 . S
C194 N192 1.356 . S
C195 C189 1.363 1_565 S
C195 C190 1.379 . S
C195 N193 1.356 . S
N196 C188 1.356 . S
N196 H202 0.984 . S
N196 H203 0.984 . S
N197 C190 1.356 . S
N197 H200 0.984 . S
N197 H201 0.985 . S
H198 N193 0.984 . S
H199 N193 0.985 . S
H200 N197 0.984 . S
H201 N197 0.985 . S
H202 N196 0.984 . S
H203 N196 0.984 . S
H204 N192 0.984 . S
H205 N192 0.985 . S
C206 C207 1.363 . S
C206 C212 1.379 . S
C206 N214 1.356 . S
C207 C206 1.363 . S
C207 C213 1.363 . S
C208 C209 1.363 . S
C208 C213 1.379 . S
C208 N215 1.356 . S
C209 C208 1.363 . S
C209 C212 1.363 . S
N210 C212 1.356 . S
N210 H222 0.984 . S
N210 H223 0.985 . S
N211 C213 1.356 . S
N211 H216 0.984 . S
N211 H217 0.985 . S
C212 C206 1.379 . S
C212 C209 1.363 . S
C212 N210 1.356 . S
C213 C207 1.363 . S
C213 C208 1.379 . S
C213 N211 1.356 . S
N214 C206 1.356 . S
N214 H220 0.984 . S
N214 H221 0.984 . S
N215 C208 1.356 . S
N215 H218 0.984 . S
N215 H219 0.985 . S
H216 N211 0.984 . S
H217 N211 0.985 . S
H218 N215 0.984 . S
H219 N215 0.985 . S
H220 N214 0.984 . S
H221 N214 0.984 . S
H222 N210 0.984 . S
H223 N210 0.985 . S
C224 C225 1.363 1_565 S
C224 C230 1.379 . S
C224 N232 1.356 . S
C225 C224 1.363 1_545 S
C225 C231 1.363 . S
C226 C227 1.363 . S
C226 C231 1.379 . S
C226 N233 1.356 . S
C227 C226 1.363 . S
C227 C230 1.363 1_545 S
N228 C230 1.356 . S
N228 H240 0.984 . S
N228 H241 0.985 . S
N229 C231 1.356 . S
N229 H234 0.984 . S
N229 H235 0.985 . S
C230 C224 1.379 . S
C230 C227 1.363 1_565 S
C230 N228 1.356 . S
C231 C225 1.363 . S
C231 C226 1.379 . S
C231 N229 1.356 . S
N232 C224 1.356 . S
N232 H238 0.984 . S
N232 H239 0.984 . S
N233 C226 1.356 . S
N233 H236 0.984 . S
N233 H237 0.985 . S
H234 N229 0.984 . S
H235 N229 0.985 . S
H236 N233 0.984 . S
H237 N233 0.985 . S
H238 N232 0.984 . S
H239 N232 0.984 . S
H240 N228 0.984 . S
H241 N228 0.985 . S
C242 C243 1.363 . S
C242 C248 1.379 . S
C242 N250 1.356 . S
C243 C242 1.363 . S
C243 C249 1.363 . S
C244 C245 1.363 . S
C244 C249 1.379 . S
C244 N251 1.356 . S
C245 C244 1.363 . S
C245 C248 1.363 . S
N246 C248 1.356 . S
N246 H258 0.984 . S
N246 H259 0.985 . S
N247 C249 1.356 . S
N247 H252 0.984 . S
N247 H253 0.985 . S
C248 C242 1.379 . S
C248 C245 1.363 . S
C248 N246 1.356 . S
C249 C243 1.363 . S
C249 C244 1.379 . S
C249 N247 1.356 . S
N250 C242 1.356 . S
N250 H256 0.984 . S
N250 H257 0.984 . S
N251 C244 1.356 . S
N251 H254 0.984 . S
N251 H255 0.985 . S
H252 N247 0.984 . S
H253 N247 0.985 . S
H254 N251 0.984 . S
H255 N251 0.985 . S
H256 N250 0.984 . S
H257 N250 0.984 . S
H258 N246 0.984 . S
H259 N246 0.985 . S
C260 C261 1.363 1_565 S
C260 C266 1.379 . S
C260 N268 1.356 . S
C261 C260 1.363 1_545 S
C261 C267 1.363 . S
C262 C263 1.363 . S
C262 C267 1.379 . S
C262 N269 1.356 . S
C263 C262 1.363 . S
C263 C266 1.363 1_545 S
N264 C266 1.356 . S
N264 H276 0.984 . S
N264 H277 0.985 . S
N265 C267 1.356 . S
N265 H270 0.984 . S
N265 H271 0.985 . S
C266 C260 1.379 . S
C266 C263 1.363 1_565 S
C266 N264 1.356 . S
C267 C261 1.363 . S
C267 C262 1.379 . S
C267 N265 1.356 . S
N268 C260 1.356 . S
N268 H274 0.984 . S
N268 H275 0.984 . S
N269 C262 1.356 . S
N269 H272 0.984 . S
N269 H273 0.985 . S
H270 N265 0.984 . S
H271 N265 0.985 . S
H272 N269 0.984 . S
H273 N269 0.985 . S
H274 N268 0.984 . S
H275 N268 0.984 . S
H276 N264 0.984 . S
H277 N264 0.985 . S
C278 C279 1.363 . S
C278 C284 1.379 . S
C278 N286 1.356 . S
C279 C278 1.363 . S
C279 C285 1.363 . S
C280 C281 1.363 . S
C280 C285 1.379 . S
C280 N287 1.356 . S
C281 C280 1.363 . S
C281 C284 1.363 . S
N282 C284 1.356 . S
N282 H294 0.984 . S
N282 H295 0.985 . S
N283 C285 1.356 . S
N283 H288 0.984 . S
N283 H289 0.985 . S
C284 C278 1.379 . S
C284 C281 1.363 . S
C284 N282 1.356 . S
C285 C279 1.363 . S
C285 C280 1.379 . S
C285 N283 1.356 . S
N286 C278 1.356 . S
N286 H292 0.984 . S
N286 H293 0.984 . S
N287 C280 1.356 . S
N287 H290 0.984 . S
N287 H291 0.985 . S
H288 N283 0.984 . S
H289 N283 0.985 . S
H290 N287 0.984 . S
H291 N287 0.985 . S
H292 N286 0.984 . S
H293 N286 0.984 . S
H294 N282 0.984 . S
H295 N282 0.985 . S
C155 C129 1.388 . S
C153 C47 1.600 . S
C173 C149 1.712 . S
C171 C109 1.595 . S
C191 C128 1.651 . S
C189 C29 1.595 . S
C209 C150 1.732 . S
C207 C91 1.602 . S
C227 C142 1.423 . S
C225 C53 1.432 . S
C245 C135 1.382 . S
C243 C115 1.416 . S
C263 C143 1.271 . S
C261 C35 1.439 . S
C279 C97 1.426 . S
C281 C136 1.427 . S
