# Generated by pormake.
# Topology anh, (6,3)-cn, num edge types: 1
# Building blocks:
#     Node 0, Type 0, BuildingBlock: BETDAH_clean_sbu_0, # of connection points: 6
#     Node 1, Type 0, BuildingBlock: BETDAH_clean_sbu_0, # of connection points: 6
#     Node 2, Type 0, BuildingBlock: BETDAH_clean_sbu_0, # of connection points: 6
#     Node 3, Type 1, BuildingBlock: BELTOD_clean_linker_0, # of connection points: 3
#     Node 4, Type 1, BuildingBlock: BELTOD_clean_linker_0, # of connection points: 3
#     Node 5, Type 1, BuildingBlock: BELTOD_clean_linker_0, # of connection points: 3
#     Node 6, Type 1, BuildingBlock: BELTOD_clean_linker_0, # of connection points: 3
#     Node 7, Type 1, BuildingBlock: BELTOD_clean_linker_0, # of connection points: 3
#     Node 8, Type 1, BuildingBlock: BELTOD_clean_linker_0, # of connection points: 3
#     Edge 9, Type (0, 1), BuildingBlock: XIVTED_clean_linker_0, # of connection points: 2
#     Edge 10, Type (0, 1), BuildingBlock: XIVTED_clean_linker_0, # of connection points: 2
#     Edge 11, Type (0, 1), BuildingBlock: XIVTED_clean_linker_0, # of connection points: 2
#     Edge 12, Type (0, 1), BuildingBlock: XIVTED_clean_linker_0, # of connection points: 2
#     Edge 13, Type (0, 1), BuildingBlock: XIVTED_clean_linker_0, # of connection points: 2
#     Edge 14, Type (0, 1), BuildingBlock: XIVTED_clean_linker_0, # of connection points: 2
#     Edge 15, Type (0, 1), BuildingBlock: XIVTED_clean_linker_0, # of connection points: 2
#     Edge 16, Type (0, 1), BuildingBlock: XIVTED_clean_linker_0, # of connection points: 2
#     Edge 17, Type (0, 1), BuildingBlock: XIVTED_clean_linker_0, # of connection points: 2
#     Edge 18, Type (0, 1), BuildingBlock: XIVTED_clean_linker_0, # of connection points: 2
#     Edge 19, Type (0, 1), BuildingBlock: XIVTED_clean_linker_0, # of connection points: 2
#     Edge 20, Type (0, 1), BuildingBlock: XIVTED_clean_linker_0, # of connection points: 2
#     Edge 21, Type (0, 1), BuildingBlock: XIVTED_clean_linker_0, # of connection points: 2
#     Edge 22, Type (0, 1), BuildingBlock: XIVTED_clean_linker_0, # of connection points: 2
#     Edge 23, Type (0, 1), BuildingBlock: XIVTED_clean_linker_0, # of connection points: 2
#     Edge 24, Type (0, 1), BuildingBlock: XIVTED_clean_linker_0, # of connection points: 2
#     Edge 25, Type (0, 1), BuildingBlock: XIVTED_clean_linker_0, # of connection points: 2
#     Edge 26, Type (0, 1), BuildingBlock: XIVTED_clean_linker_0, # of connection points: 2
# Relax obj value: 0.179
# Max RMSD: 0.209
# Mean RMSD: 0.149
data_MOF--net-anh--node1-BETDAH_clean_sbu_0--node2-BELTOD_clean_linker_0--edge1-XIVTED_clean_linker_0
_symmetry_space_group_name_H-M    P1
_symmetry_Int_Tables_number       1
_symmetry_cell_setting            triclinic
loop_
_symmetry_equiv_pos_as_xyz
'x, y, z'
_cell_length_a     34.833019
_cell_length_b     41.427933
_cell_length_c     60.76774
_cell_angle_alpha  92.59551
_cell_angle_beta   89.140967
_cell_angle_gamma 128.3336
loop_
_atom_site_label
_atom_site_type_symbol
_atom_site_fract_x
_atom_site_fract_y
_atom_site_fract_z
_atom_type_partial_charge
Ho0 Ho 0.11374 0.53306 0.14255 0.0
Ho1 Ho 0.05676 0.55937 0.1629 0.0
C2 C 0.16795 0.63071 0.15527 0.0
C3 C 0.17066 0.52494 0.11982 0.0
C4 C 0.21704 0.53245 0.12457 0.0
C5 C 0.25715 0.5567 0.11076 0.0
C6 C 0.29984 0.56105 0.11407 0.0
C7 C 0.30287 0.54071 0.1311 0.0
C8 C 0.26335 0.51814 0.14554 0.0
C9 C 0.22113 0.5143 0.14241 0.0
C10 C 0.10802 0.53002 0.1868 0.0
C11 C 1.0016 0.46273 0.14939 0.0
C12 C 0.99459 0.55943 0.18618 0.0
C13 C 0.94172 0.52556 0.18665 0.0
C14 C 0.9157 0.51549 0.20633 0.0
C15 C 0.86704 0.47949 0.20709 0.0
C16 C 0.84433 0.45293 0.18825 0.0
C17 C 0.87039 0.46374 0.16854 0.0
C18 C 0.91849 0.49952 0.16776 0.0
C19 C 0.06341 0.56165 0.11844 0.0
O20 O 0.16689 0.60309 0.1427 0.0
O21 O 0.13059 0.62009 0.16767 0.0
O22 O 0.13223 0.49491 0.13006 0.0
O23 O 0.17251 0.55736 0.11912 0.0
O24 O 0.1103 0.50528 0.17422 0.0
O25 O 0.11397 0.55753 0.1756 0.0
O26 O 1.00427 0.48966 0.16318 0.0
O27 O 1.03766 0.47468 0.13576 0.0
O28 O 1.01108 0.57789 0.16752 0.0
O29 O 1.02159 0.55063 0.19418 0.0
O30 O 0.06315 0.58797 0.13071 0.0
O31 O 0.05656 0.53435 0.1301 0.0
H32 H 0.255 0.57142 0.09707 0.0
H33 H 0.32984 0.57934 0.10287 0.0
H34 H 0.26367 0.50143 0.15863 0.0
H35 H 0.19105 0.49582 0.15355 0.0
H36 H 0.93334 0.53485 0.22116 0.0
H37 H 0.8476 0.47191 0.22245 0.0
H38 H 0.85359 0.44444 0.15362 0.0
H39 H 0.93799 0.50619 0.15245 0.0
Ho40 Ho 0.62334 0.03534 0.47944 0.0
Ho41 Ho 0.55802 0.05809 0.46948 0.0
C42 C 0.50642 0.9631 0.47036 0.0
C43 C 0.66368 0.00559 0.4952 0.0
C44 C 0.65213 0.96521 0.49777 0.0
C45 C 0.60563 0.93087 0.50423 0.0
C46 C 0.59653 0.89342 0.50744 0.0
C47 C 0.6337 0.88963 0.50417 0.0
C48 C 0.67988 0.92396 0.49732 0.0
C49 C 0.68894 0.96133 0.49418 0.0
C50 C 0.6184 0.04717 0.43671 0.0
C51 C 0.67617 0.13032 0.47665 0.0
C52 C 0.51862 0.08992 0.45572 0.0
C53 C 0.5274 0.12928 0.46054 0.0
C54 C 0.57514 0.16658 0.46287 0.0
C55 C 0.58289 0.20316 0.46902 0.0
C56 C 0.54306 0.20317 0.47319 0.0
C57 C 0.49528 0.16585 0.47059 0.0
C58 C 0.48756 0.12929 0.46427 0.0
C59 C 0.56694 0.04965 0.51256 0.0
O60 O 0.54692 0.97442 0.48031 0.0
O61 O 0.50421 0.99032 0.46127 0.0
O62 O 0.67008 0.01774 0.47508 0.0
O63 O 0.63886 0.01384 0.50708 0.0
O64 O 0.65769 0.05776 0.44654 0.0
O65 O 0.58263 0.02863 0.4496 0.0
O66 O 0.63466 0.11902 0.46782 0.0
O67 O 0.67899 0.10341 0.48567 0.0
O68 O 0.50156 0.06521 0.47204 0.0
O69 O 0.55264 0.09157 0.445 0.0
O70 O 0.52706 0.03924 0.50359 0.0
O71 O 0.6005 0.06637 0.4987 0.0
H72 H 0.57655 0.93309 0.50705 0.0
H73 H 0.56043 0.86746 0.5125 0.0
H74 H 0.70954 0.92235 0.49497 0.0
H75 H 0.72508 0.98748 0.48924 0.0
H76 H 0.60651 0.16738 0.46036 0.0
H77 H 0.62015 0.23123 0.47117 0.0
H78 H 0.46383 0.16489 0.47348 0.0
H79 H 0.45043 0.10083 0.46267 0.0
Ho80 Ho 0.58539 0.54008 0.84849 0.0
Ho81 Ho 0.51533 0.44654 0.84484 0.0
C82 C 0.46707 0.49126 0.84686 0.0
C83 C 0.63287 0.61801 0.84365 0.0
C84 C 0.62244 0.64576 0.83723 0.0
C85 C 0.58663 0.63354 0.82117 0.0
C86 C 0.5795 0.66139 0.81447 0.0
C87 C 0.6077 0.70176 0.82388 0.0
C88 C 0.6425 0.71338 0.8404 0.0
C89 C 0.64985 0.68565 0.84695 0.0
C90 C 0.56143 0.5014 0.88666 0.0
C91 C 0.63522 0.49634 0.84702 0.0
C92 C 0.4706 0.3692 0.85026 0.0
C93 C 0.48348 0.34201 0.84516 0.0
C94 C 0.45658 0.30308 0.85407 0.0
C95 C 0.46928 0.27739 0.84945 0.0
C96 C 0.50923 0.29035 0.83588 0.0
C97 C 0.53607 0.32956 0.82704 0.0
C98 C 0.52335 0.35514 0.83166 0.0
C99 C 0.53791 0.48318 0.80609 0.0
O100 O 0.51121 0.52473 0.84164 0.0
O101 O 0.4605 0.45751 0.85228 0.0
O102 O 0.61545 0.60068 0.8625 0.0
O103 O 0.62821 0.5927 0.82817 0.0
O104 O 0.60511 0.53455 0.88274 0.0
O105 O 0.53317 0.49188 0.87074 0.0
O106 O 0.59011 0.461 0.84821 0.0
O107 O 0.64301 0.53168 0.84513 0.0
O108 O 0.46306 0.38297 0.83324 0.0
O109 O 0.49753 0.39799 0.86561 0.0
O110 O 0.49545 0.44916 0.81044 0.0
O111 O 0.56728 0.49453 0.82197 0.0
H112 H 0.56469 0.60271 0.81358 0.0
H113 H 0.55204 0.6514 0.80188 0.0
H114 H 0.66517 0.74435 0.84779 0.0
H115 H 0.67762 0.69562 0.85938 0.0
H116 H 0.4259 0.29261 0.86465 0.0
H117 H 0.44823 0.24763 0.85675 0.0
H118 H 0.56655 0.34034 0.81627 0.0
H119 H 0.54457 0.38517 0.82464 0.0
P120 P 0.63118 0.03338 0.19736 0.0
H121 H 0.60133 0.98188 0.157 0.0
H122 H 0.52206 0.91948 0.14394 0.0
H123 H 0.4517 0.93638 0.19735 0.0
H124 H 0.53055 -0.00016 0.20934 0.0
H125 H 0.73127 0.08553 0.1815 0.0
H126 H 0.78404 0.1551 0.16857 0.0
H127 H 0.66393 0.16024 0.17243 0.0
H128 H 0.61084 0.08983 0.18567 0.0
H129 H 0.58146 0.97416 0.23159 0.0
H130 H 0.66781 0.10584 0.2274 0.0
O131 O 0.66179 0.01449 0.19542 0.0
H132 H 0.57463 0.98088 0.27134 0.0
H133 H 0.6608 0.11268 0.26706 0.0
C134 C 0.57205 0.99494 0.18446 0.0
C135 C 0.56861 0.97269 0.16551 0.0
C136 C 0.52319 0.93663 0.15824 0.0
C137 C 0.4803 0.92191 0.16994 0.0
C138 C 0.48363 0.94641 0.18786 0.0
C139 C 0.52902 0.98277 0.1949 0.0
C140 C 0.66687 0.08222 0.18432 0.0
C141 C 0.71576 0.10111 0.17915 0.0
C142 C 0.74604 0.14107 0.17166 0.0
C143 C 0.72831 0.16338 0.16935 0.0
C144 C 0.67885 0.14404 0.17413 0.0
C145 C 0.64835 0.10371 0.1815 0.0
C146 C 0.62453 0.03934 0.22643 0.0
C147 C 0.59839 0.00447 0.23918 0.0
C148 C 0.5943 0.00832 0.26188 0.0
C149 C 0.61695 0.0473 0.27234 0.0
C150 C 0.6431 0.08225 0.2595 0.0
C151 C 0.64689 0.07831 0.23674 0.0
P152 P 0.68277 0.58838 0.57691 0.0
H153 H 0.73209 0.56238 0.55157 0.0
H154 H 0.70268 0.49794 0.53218 0.0
H155 H 0.55383 0.44669 0.54796 0.0
H156 H 0.58395 0.5115 0.5678 0.0
H157 H 0.67932 0.65174 0.59652 0.0
H158 H 0.65826 0.6929 0.58199 0.0
H159 H 0.62168 0.62677 0.51893 0.0
H160 H 0.64337 0.58575 0.53364 0.0
H161 H 0.73119 0.58682 0.61524 0.0
H162 H 0.59404 0.56164 0.60042 0.0
O163 O 0.7438 0.62068 0.57619 0.0
H164 H 0.70784 0.57161 0.65374 0.0
H165 H 0.57093 0.54762 0.63899 0.0
C166 C 0.66019 0.54169 0.56116 0.0
C167 C 0.69309 0.53745 0.55076 0.0
C168 C 0.67613 0.50054 0.53952 0.0
C169 C 0.62582 0.46703 0.53845 0.0
C170 C 0.59284 0.47167 0.54866 0.0
C171 C 0.60993 0.50874 0.55991 0.0
C172 C 0.66176 0.615 0.56635 0.0
C173 C 0.66582 0.64549 0.5797 0.0
C174 C 0.65364 0.66897 0.57136 0.0
C175 C 0.63783 0.6629 0.54934 0.0
C176 C 0.6338 0.63225 0.53595 0.0
C177 C 0.64583 0.60856 0.54439 0.0
C178 C 0.66475 0.57614 0.60512 0.0
C179 C 0.69618 0.57833 0.62033 0.0
C180 C 0.68289 0.56987 0.64238 0.0
C181 C 0.6377 0.55881 0.64957 0.0
C182 C 0.60584 0.55575 0.63405 0.0
C183 C 0.61913 0.56405 0.612 0.0
P184 P 0.0842 0.53886 0.87689 0.0
H185 H 0.13513 0.54432 0.83653 0.0
H186 H 0.19342 0.53099 0.82851 0.0
H187 H 0.15996 0.47233 0.89047 0.0
H188 H 0.10225 0.48536 0.89825 0.0
H189 H 0.05754 0.57203 0.84387 0.0
H190 H 0.98188 0.56087 0.83584 0.0
H191 H 0.90352 0.45671 0.87747 0.0
H192 H 0.97913 0.4669 0.88458 0.0
H193 H 1.03073 0.47537 0.91019 0.0
H194 H 0.13122 0.60813 0.90973 0.0
O195 O 0.12448 0.58765 0.86968 0.0
H196 H 1.02625 0.47938 0.95013 0.0
H197 H 0.12814 0.61222 0.9497 0.0
C198 C 0.11337 0.51586 0.868 0.0
C199 C 0.13912 0.52743 0.84812 0.0
C200 C 0.17325 0.52035 0.84369 0.0
C201 C 0.18239 0.50106 0.85896 0.0
C202 C 0.15413 0.48706 0.87816 0.0
C203 C 0.12043 0.4945 0.88265 0.0
C204 C 1.0252 0.52109 0.86539 0.0
C205 C 1.0241 0.54614 0.85098 0.0
C206 C 0.98045 0.54005 0.8466 0.0
C207 C 0.93617 0.50868 0.85655 0.0
C208 C 0.93656 0.48149 0.86956 0.0
C209 C 0.98036 0.4875 0.87381 0.0
C210 C 0.08119 0.54136 0.9067 0.0
C211 C 1.05165 0.50542 0.91856 0.0
C212 C 1.04958 0.50774 0.94153 0.0
C213 C 0.07692 0.54615 0.95319 0.0
C214 C 0.10613 0.58213 0.94126 0.0
C215 C 0.10818 0.57974 0.9183 0.0
P216 P 0.13466 0.52569 0.42604 0.0
H217 H 0.19468 0.56629 0.46591 0.0
H218 H 0.24835 0.6384 0.47904 0.0
H219 H 0.19133 0.66771 0.42761 0.0
H220 H 0.1358 0.59525 0.41558 0.0
H221 H 0.10321 0.44654 0.44037 0.0
H222 H 1.02578 0.38603 0.45318 0.0
H223 H 0.96492 0.45049 0.45186 0.0
H224 H 1.04338 0.51149 0.43865 0.0
H225 H 0.19884 0.58198 0.39245 0.0
H226 H 1.04986 0.47044 0.39558 0.0
O227 O 0.17585 0.51756 0.42755 0.0
H228 H 0.18841 0.58337 0.35292 0.0
H229 H 1.03934 0.47165 0.35604 0.0
C230 C 0.1623 0.57559 0.43938 0.0
C231 C 0.1928 0.5881 0.45787 0.0
C232 C 0.22399 0.62955 0.46517 0.0
C233 C 0.22561 0.65941 0.45395 0.0
C234 C 0.19153 0.64591 0.43667 0.0
C235 C 0.15982 0.6043 0.42961 0.0
C236 C 0.07936 0.48381 0.43885 0.0
C237 C 0.07369 0.44815 0.44324 0.0
C238 C 1.02919 0.41341 0.45066 0.0
C239 C 0.98902 0.41331 0.45369 0.0
C240 C 0.99502 0.44943 0.4496 0.0
C241 C 1.03991 0.48443 0.44226 0.0
C242 C 0.12491 0.52664 0.39709 0.0
C243 C 0.16369 0.55807 0.38469 0.0
C244 C 0.15765 0.55892 0.36211 0.0
C245 C 0.11293 0.5278 0.35142 0.0
C246 C 0.07423 0.49602 0.36385 0.0
C247 C 0.08017 0.49546 0.38651 0.0
P248 P 0.66536 0.05765 0.74648 0.0
H249 H 0.70521 0.11611 0.7844 0.0
H250 H 0.67668 0.14977 0.80451 0.0
H251 H 0.54228 0.07621 0.76585 0.0
H252 H 0.5704 0.04148 0.74653 0.0
H253 H 0.71423 0.02108 0.74206 0.0
H254 H 0.6953 0.95762 0.75477 0.0
H255 H 0.56481 0.9275 0.78563 0.0
H256 H 0.58383 0.9912 0.77264 0.0
H257 H 0.64728 0.10379 0.71955 0.0
H258 H 0.6435 0.9979 0.71053 0.0
O259 O 0.72617 0.09319 0.74696 0.0
H260 H 0.62598 0.09767 0.68062 0.0
H261 H 0.62366 0.99255 0.67148 0.0
C262 C 0.64052 0.07723 0.76355 0.0
C263 C 0.66935 0.10688 0.78046 0.0
C264 C 0.65307 0.12631 0.79185 0.0
C265 C 0.60762 0.11648 0.78648 0.0
C266 C 0.57744 0.08464 0.77048 0.0
C267 C 0.59363 0.06495 0.75926 0.0
C268 C 0.65079 0.01108 0.75663 0.0
C269 C 0.68162 0.00092 0.75163 0.0
C270 C 0.67056 0.96448 0.75875 0.0
C271 C 0.62852 0.93756 0.77116 0.0
C272 C 0.59764 0.94785 0.77623 0.0
C273 C 0.60847 0.98419 0.76881 0.0
C274 C 0.64555 0.05057 0.7182 0.0
C275 C 0.64098 0.07875 0.70935 0.0
C276 C 0.62898 0.07536 0.68708 0.0
C277 C 0.6229 0.04448 0.67312 0.0
C278 C 0.62812 0.0166 0.68193 0.0
C279 C 0.63923 0.01956 0.7043 0.0
P280 P 0.41409 0.28275 0.08901 0.0
H281 H 0.40174 0.23382 0.12527 0.0
H282 H 0.46115 0.23684 0.14838 0.0
H283 H 0.57696 0.32416 0.10542 0.0
H284 H 0.51847 0.32283 0.0832 0.0
H285 H 0.35122 0.29056 0.11773 0.0
H286 H 0.36057 0.35098 0.13257 0.0
H287 H 0.50715 0.43024 0.1071 0.0
H288 H 0.49729 0.36977 0.09208 0.0
H289 H 0.46964 0.27768 0.05294 0.0
H290 H 0.37946 0.31556 0.06188 0.0
O291 O 0.35647 0.24019 0.09149 0.0
H292 H 0.49264 0.30709 0.01643 0.0
H293 H 0.40097 0.34362 0.02544 0.0
C294 C 0.45525 0.27674 0.10191 0.0
C295 C 0.43967 0.25252 0.12039 0.0
C296 C 0.4735 0.25435 0.13364 0.0
C297 C 0.52327 0.2801 0.12837 0.0
C298 C 0.53851 0.30316 0.10944 0.0
C299 C 0.50494 0.30212 0.09658 0.0
C300 C 0.4234 0.32579 0.10368 0.0
C301 C 0.38569 0.32087 0.11575 0.0
C302 C 0.39127 0.35545 0.12437 0.0
C303 C 0.43458 0.39536 0.12089 0.0
C304 C 0.47329 0.39991 0.10988 0.0
C305 C 0.46773 0.36537 0.10138 0.0
C306 C 0.42452 0.29607 0.06052 0.0
C307 C 0.45484 0.29231 0.04714 0.0
C308 C 0.46776 0.3089 0.02624 0.0
C309 C 0.44909 0.32811 0.01824 0.0
C310 C 0.41593 0.32899 0.03112 0.0
C311 C 0.40375 0.31307 0.05201 0.0
H312 H 0.34562 0.53714 0.16788 0.0
H313 H 0.46736 0.45925 0.09465 0.0
H314 H 0.35309 0.53783 0.09682 0.0
H315 H 0.40503 0.4135 0.15841 0.0
H316 H 0.45477 0.51084 0.09981 0.0
H317 H 0.39573 0.51437 0.16827 0.0
C318 C 0.35836 0.53323 0.15238 0.0
C319 C 0.34358 0.53815 0.13222 0.0
C320 C 0.44489 0.4901 0.11287 0.0
C321 C 0.40198 0.51329 0.13273 0.0
C322 C 0.45231 0.4608 0.11003 0.0
C323 C 0.43648 0.43163 0.12601 0.0
C324 C 0.42155 0.49027 0.13183 0.0
C325 C 0.41682 0.43492 0.14551 0.0
C326 C 0.3872 0.52049 0.15269 0.0
C327 C 0.36303 0.53425 0.11278 0.0
N328 N 0.40927 0.46338 0.14777 0.0
N329 N 0.39057 0.52143 0.11351 0.0
H330 H 0.76478 0.16783 0.49747 0.0
H331 H 0.89741 0.38082 0.43781 0.0
H332 H 0.68976 0.1924 0.45388 0.0
H333 H 0.97033 0.35743 0.48355 0.0
H334 H 0.81979 0.31398 0.44547 0.0
H335 H 0.83921 0.2386 0.4942 0.0
C336 C 0.76378 0.18813 0.48732 0.0
C337 C 0.72076 0.17399 0.47595 0.0
C338 C 0.85272 0.3236 0.45396 0.0
C339 C 0.80624 0.25531 0.47204 0.0
C340 C 0.89706 0.36196 0.44971 0.0
C341 C 0.94071 0.37477 0.45991 0.0
C342 C 0.85187 0.29772 0.46849 0.0
C343 C 0.93787 0.34861 0.47498 0.0
C344 C 0.80637 0.22864 0.48547 0.0
C345 C 0.72183 0.20189 0.46309 0.0
N346 N 0.8944 0.31134 0.47868 0.0
N347 N 0.76389 0.24107 0.46138 0.0
H348 H 0.59983 0.71578 0.7812 0.0
H349 H 0.60118 0.90656 0.81236 0.0
H350 H 0.60493 0.75781 0.84816 0.0
H351 H 0.63135 0.88141 0.74746 0.0
H352 H 0.58948 0.84575 0.82521 0.0
H353 H 0.59813 0.76982 0.76809 0.0
C354 C 0.59994 0.73604 0.79316 0.0
C355 C 0.60275 0.73238 0.81582 0.0
C356 C 0.5984 0.85345 0.80814 0.0
C357 C 0.60126 0.79459 0.8009 0.0
C358 C 0.60478 0.88796 0.80077 0.0
C359 C 0.61761 0.89918 0.77886 0.0
C360 C 0.60442 0.82978 0.79342 0.0
C361 C 0.62217 0.87417 0.76457 0.0
C362 C 0.59934 0.76708 0.78566 0.0
C363 C 0.6034 0.75987 0.83055 0.0
N364 N 0.61567 0.84073 0.7721 0.0
N365 N 0.60278 0.78986 0.82284 0.0
H366 H 0.80723 0.37675 0.17053 0.0
H367 H 0.53656 0.30574 0.17154 0.0
H368 H 0.76454 0.44236 0.20593 0.0
H369 H 0.59572 0.27395 0.12003 0.0
H370 H 0.61072 0.33612 0.19388 0.0
H371 H 0.72107 0.31992 0.16237 0.0
C372 C 0.7796 0.37881 0.17696 0.0
C373 C 0.79297 0.41479 0.18833 0.0
C374 C 0.60678 0.32141 0.17795 0.0
C375 C 0.69465 0.34999 0.17912 0.0
C376 C 0.56447 0.30389 0.16529 0.0
C377 C 0.5606 0.28786 0.14389 0.0
C378 C 0.64504 0.32254 0.16912 0.0
C379 C 0.59778 0.28647 0.13639 0.0
C380 C 0.73052 0.34636 0.17234 0.0
C381 C 0.75578 0.41539 0.19685 0.0
N382 N 0.63883 0.30413 0.1489 0.0
N383 N 0.70818 0.38377 0.19167 0.0
H384 H 0.41295 0.92715 0.45552 0.0
H385 H 0.32104 0.69752 0.46599 0.0
H386 H 0.50175 0.89756 0.48175 0.0
H387 H 0.22247 0.72451 0.45231 0.0
H388 H 0.38751 0.77083 0.47126 0.0
H389 H 0.34314 0.85349 0.45307 0.0
C390 C 0.41784 0.90525 0.46078 0.0
C391 C 0.46344 0.9187 0.46884 0.0
C392 C 0.35129 0.76079 0.46726 0.0
C393 C 0.38365 0.83433 0.46604 0.0
C394 C 0.31296 0.71869 0.46444 0.0
C395 C 0.26557 0.70434 0.45879 0.0
C396 C 0.34274 0.78924 0.46419 0.0
C397 C 0.25831 0.73387 0.45639 0.0
C398 C 0.37789 0.8632 0.45944 0.0
C399 C 0.46742 0.88882 0.47547 0.0
N400 N 0.29648 0.77485 0.45899 0.0
N401 N 0.42821 0.84818 0.47384 0.0
H402 H 0.44827 0.2065 0.82722 0.0
H403 H 0.66688 0.19963 0.79625 0.0
H404 H 0.60121 0.31205 0.83285 0.0
H405 H 0.51602 0.09041 0.79875 0.0
H406 H 0.64311 0.24076 0.81031 0.0
H407 H 0.47179 0.16307 0.81739 0.0
C408 C 0.48679 0.22053 0.8266 0.0
C409 C 0.52279 0.26313 0.83076 0.0
C410 C 0.61518 0.20776 0.80793 0.0
C411 C 0.54995 0.21358 0.81922 0.0
C412 C 0.6288 0.18409 0.80005 0.0
C413 C 0.59347 0.1413 0.79632 0.0
C414 C 0.56574 0.18874 0.81202 0.0
C415 C 0.54449 0.12331 0.80108 0.0
C416 C 0.50018 0.19571 0.82088 0.0
C417 C 0.57213 0.27956 0.82939 0.0
N418 N 0.53206 0.14712 0.80858 0.0
N419 N 0.58419 0.25483 0.82366 0.0
H420 H 0.58419 0.83911 0.53855 0.0
H421 H 0.6643 0.69836 0.5092 0.0
H422 H 0.66469 0.85175 0.4805 0.0
H423 H 0.59042 0.6901 0.56886 0.0
H424 H 0.65586 0.74869 0.49623 0.0
H425 H 0.57733 0.7789 0.54767 0.0
C426 C 0.59984 0.82891 0.52754 0.0
C427 C 0.62541 0.85079 0.50881 0.0
C428 C 0.64114 0.73564 0.51209 0.0
C429 C 0.61828 0.78209 0.51934 0.0
C430 C 0.64564 0.70664 0.51944 0.0
C431 C 0.62842 0.69019 0.54025 0.0
C432 C 0.61925 0.74835 0.52562 0.0
C433 C 0.60504 0.70251 0.55289 0.0
C434 C 0.5962 0.79465 0.53284 0.0
C435 C 0.64542 0.83632 0.49532 0.0
N436 N 0.60143 0.731 0.54544 0.0
N437 N 0.64168 0.80307 0.50091 0.0
H438 H 0.63661 0.43042 0.84982 0.0
H439 H 0.93084 0.57215 0.85363 0.0
H440 H 0.73331 0.56268 0.84611 0.0
H441 H 0.83756 0.43955 0.85484 0.0
H442 H 0.85847 0.56834 0.85063 0.0
H443 H 0.70843 0.43231 0.85165 0.0
C444 C 0.6728 0.45988 0.84936 0.0
C445 C 0.67847 0.49646 0.84781 0.0
C446 C 0.85365 0.53998 0.85148 0.0
C447 C 0.76143 0.4988 0.84996 0.0
C448 C 0.89528 0.54206 0.85301 0.0
C449 C 0.89107 0.5061 0.85431 0.0
C450 C 0.80664 0.50164 0.85132 0.0
C451 C 0.84322 0.46826 0.85406 0.0
C452 C 0.71392 0.46091 0.85041 0.0
C453 C 0.72665 0.53359 0.84729 0.0
N454 N 0.80315 0.46705 0.85259 0.0
N455 N 0.76589 0.53375 0.84838 0.0
H456 H 0.18005 0.69854 0.17328 0.0
H457 H 0.46823 0.85214 0.15559 0.0
H458 H 0.25815 0.66258 0.13859 0.0
H459 H 0.38503 0.89455 0.17306 0.0
H460 H 0.39207 0.78247 0.15015 0.0
H461 H 0.255 0.77006 0.17481 0.0
C462 C 0.2129 0.70563 0.16595 0.0
C463 C 0.21274 0.67438 0.15585 0.0
C464 C 0.39044 0.80707 0.15501 0.0
C465 C 0.29881 0.75628 0.15764 0.0
C466 C 0.43406 0.84714 0.15795 0.0
C467 C 0.43351 0.87976 0.1648 0.0
C468 C 0.34559 0.79908 0.1592 0.0
C469 C 0.38765 0.87057 0.16813 0.0
C470 C 0.25564 0.74653 0.16676 0.0
C471 C 0.25644 0.68556 0.14654 0.0
N472 N 0.34565 0.83112 0.16546 0.0
N473 N 0.29771 0.72549 0.1478 0.0
H474 H 0.60991 0.28096 0.45824 0.0
H475 H 0.55375 0.38855 0.55157 0.0
H476 H 0.49592 0.21335 0.50597 0.0
H477 H 0.65838 0.45446 0.50003 0.0
H478 H 0.52977 0.32384 0.53436 0.0
H479 H 0.62666 0.34463 0.47278 0.0
C480 C 0.58836 0.2795 0.47178 0.0
C481 C 0.55159 0.24175 0.48095 0.0
C482 C 0.55778 0.35244 0.52675 0.0
C483 C 0.57049 0.31461 0.49769 0.0
C484 C 0.5713 0.38945 0.53649 0.0
C485 C 0.6084 0.42717 0.52734 0.0
C486 C 0.58158 0.35305 0.50771 0.0
C487 C 0.63026 0.42628 0.50793 0.0
C488 C 0.59778 0.31585 0.48001 0.0
C489 C 0.52433 0.24168 0.49826 0.0
N490 N 0.61672 0.38991 0.49886 0.0
N491 N 0.53455 0.27755 0.50616 0.0
H492 H 0.46492 0.55398 0.83557 0.0
H493 H 0.18415 0.43752 0.86938 0.0
H494 H 0.37196 0.43112 0.85958 0.0
H495 H 0.27401 0.55695 0.84119 0.0
H496 H 0.25214 0.43466 0.86589 0.0
H497 H 0.39579 0.5556 0.83744 0.0
C498 C 0.43002 0.52724 0.8412 0.0
C499 C 0.42467 0.49232 0.84742 0.0
C500 C 0.25699 0.46146 0.86038 0.0
C501 C 0.34467 0.4941 0.84969 0.0
C502 C 0.21808 0.46322 0.86245 0.0
C503 C 0.22283 0.49758 0.85561 0.0
C504 C 0.30166 0.49438 0.85151 0.0
C505 C 0.26793 0.52953 0.84647 0.0
C506 C 0.3904 0.52821 0.84226 0.0
C507 C 0.37819 0.45874 0.85457 0.0
N508 N 0.30537 0.52723 0.84481 0.0
N509 N 0.3403 0.46053 0.85556 0.0
H510 H 0.9815 0.3974 0.12362 0.0
H511 H 0.73437 0.22898 0.18661 0.0
H512 H 0.92147 0.42744 0.17577 0.0
H513 H 0.8009 0.19833 0.13854 0.0
H514 H 0.7969 0.3019 0.17946 0.0
H515 H 0.91084 0.32461 0.12593 0.0
C516 C 0.95335 0.3888 0.13544 0.0
C517 C 0.95763 0.41872 0.14954 0.0
C518 C 0.79766 0.2792 0.17038 0.0
C519 C 0.87652 0.33528 0.15231 0.0
C520 C 0.76165 0.23746 0.17431 0.0
C521 C 0.76252 0.20735 0.16332 0.0
C522 C 0.83495 0.29105 0.15534 0.0
C523 C 0.79923 0.22043 0.14772 0.0
C524 C 0.91298 0.34719 0.13676 0.0
C525 C 0.91985 0.4056 0.16452 0.0
N526 N 0.83407 0.26121 0.14432 0.0
N527 N 0.88111 0.36494 0.16557 0.0
H528 H 0.07018 0.61444 0.08999 0.0
H529 H 0.07573 0.49728 0.98267 0.0
H530 H 0.06457 0.50765 0.09185 0.0
H531 H 0.0751 0.60086 0.97967 0.0
H532 H 0.0731 0.50164 0.02276 0.0
H533 H 0.07421 0.6115 0.04965 0.0
C534 C 0.06984 0.59044 0.08189 0.0
C535 C 0.0668 0.56114 0.0942 0.0
C536 C 0.07353 0.52345 0.01336 0.0
C537 C 0.07144 0.55753 0.04821 0.0
C538 C 0.07471 0.5208 0.99041 0.0
C539 C 0.07546 0.54864 0.97769 0.0
C540 C 0.07309 0.55419 0.0238 0.0
C541 C 0.0751 0.579 0.98877 0.0
C542 C 0.07211 0.58872 0.0589 0.0
C543 C 0.06663 0.53072 0.08295 0.0
N544 N 0.07387 0.58091 0.01115 0.0
N545 N 0.06885 0.52969 0.06062 0.0
H546 H 0.53618 0.00939 0.41041 0.0
H547 H 0.69203 0.1044 0.30061 0.0
H548 H 0.69393 0.09303 0.40895 0.0
H549 H 0.53858 -0.0004 0.29955 0.0
H550 H 0.6906 0.1081 0.34078 0.0
H551 H 0.53383 0.01253 0.37017 0.0
C552 C 0.57022 0.02864 0.40163 0.0
C553 C 0.61533 0.05069 0.41289 0.0
C554 C 0.65714 0.08441 0.33177 0.0
C555 C 0.61298 0.05461 0.36717 0.0
C556 C 0.65785 0.08248 0.30881 0.0
C557 C 0.61541 0.05153 0.29668 0.0
C558 C 0.61363 0.05529 0.34277 0.0
C559 C 0.5723 0.02361 0.30827 0.0
C560 C 0.56889 0.03033 0.37872 0.0
C561 C 0.6584 0.07525 0.40083 0.0
N562 N 0.57252 0.02607 0.33068 0.0
N563 N 0.65617 0.07648 0.37864 0.0
H564 H 0.47864 0.45628 0.77006 0.0
H565 H 0.69622 0.59903 0.68659 0.0
H566 H 0.6298 0.54412 0.79104 0.0
H567 H 0.54731 0.4992 0.66633 0.0
H568 H 0.67242 0.58362 0.72507 0.0
H569 H 0.50273 0.47683 0.73223 0.0
C570 C 0.51695 0.48013 0.76669 0.0
C571 C 0.55236 0.49834 0.78363 0.0
C572 C 0.64498 0.56518 0.71218 0.0
C573 C 0.58034 0.52195 0.74029 0.0
C574 C 0.65858 0.57377 0.69018 0.0
C575 C 0.62376 0.55032 0.6731 0.0
C576 C 0.59617 0.53297 0.71719 0.0
C577 C 0.57533 0.51849 0.67887 0.0
C578 C 0.53072 0.49179 0.74507 0.0
C579 C 0.60142 0.52926 0.77839 0.0
N580 N 0.56306 0.51076 0.70037 0.0
N581 N 0.61405 0.53998 0.75712 0.0
H582 H 0.49961 0.02186 0.54505 0.0
H583 H 0.67081 0.04002 0.63865 0.0
H584 H 0.64957 0.07234 0.5337 0.0
H585 H 0.55296 0.04483 0.65354 0.0
H586 H 0.6563 0.03978 0.59924 0.0
H587 H 0.51174 0.0187 0.58432 0.0
C588 C 0.53499 0.03207 0.55082 0.0
C589 C 0.57359 0.04715 0.53615 0.0
C590 C 0.63359 0.0408 0.61116 0.0
C591 C 0.58747 0.04319 0.58081 0.0
C592 C 0.64161 0.04065 0.63357 0.0
C593 C 0.61304 0.0425 0.64928 0.0
C594 C 0.59621 0.0421 0.60443 0.0
C595 C 0.57597 0.04367 0.6419 0.0
C596 C 0.54188 0.03033 0.57319 0.0
C597 C 0.61872 0.06009 0.54445 0.0
N598 N 0.56843 0.04326 0.61997 0.0
N599 N 0.62437 0.0576 0.56623 0.0
H600 H 0.62024 0.50749 0.91894 0.0
H601 H 0.39286 0.32318 0.98536 0.0
H602 H 0.46942 0.437 0.89786 0.0
H603 H 0.54289 0.38181 0.00344 0.0
H604 H 0.42106 0.36452 0.95289 0.0
H605 H 0.59374 0.46254 0.95013 0.0
C606 C 0.58161 0.48265 0.92094 0.0
C607 C 0.54691 0.47588 0.9059 0.0
C608 C 0.44792 0.3682 0.96382 0.0
C609 C 0.51641 0.42447 0.94125 0.0
C610 C 0.43179 0.34459 0.98236 0.0
C611 C 0.4656 0.3492 0.99712 0.0
C612 C 0.49835 0.39703 0.96006 0.0
C613 C 0.51561 0.37712 0.99236 0.0
C614 C 0.56652 0.45691 0.93863 0.0
C615 C 0.49736 0.44323 0.9091 0.0
N616 N 0.53056 0.40031 0.97433 0.0
N617 N 0.48361 0.41883 0.92642 0.0
H618 H 0.08688 0.46847 0.21194 0.0
H619 H 0.14176 0.59279 0.32654 0.0
H620 H 0.12183 0.58832 0.2165 0.0
H621 H 0.07238 0.46297 0.3213 0.0
H622 H 0.13726 0.59292 0.28636 0.0
H623 H 0.08388 0.46684 0.2521 0.0
C624 C 0.09387 0.49444 0.22145 0.0
C625 C 0.10488 0.52867 0.21098 0.0
C626 C 0.1227 0.56435 0.29402 0.0
C627 C 0.1017 0.52715 0.25692 0.0
C628 C 0.12547 0.5643 0.31692 0.0
C629 C 0.10755 0.52783 0.32725 0.0
C630 C 0.10241 0.52777 0.28134 0.0
C631 C 0.08629 0.49169 0.31403 0.0
C632 C 0.09198 0.49344 0.24436 0.0
C633 C 0.11334 0.5614 0.22401 0.0
N634 N 0.08469 0.49265 0.29176 0.0
N635 N 0.11193 0.55998 0.24636 0.0
loop_
_geom_bond_atom_site_label_1
_geom_bond_atom_site_label_2
_geom_bond_distance
_geom_bond_site_symmetry_2
_ccdc_geom_bond_type
Ho0 C3 2.811 . S
Ho0 O20 2.322 . S
Ho0 O22 2.378 . S
Ho0 O23 2.524 . S
Ho0 O24 2.381 . S
Ho0 O25 2.669 . S
Ho0 O27 2.346 1_455 S
Ho0 O31 2.305 . S
Ho1 C12 2.811 . S
Ho1 O21 2.346 1_655 S
Ho1 O25 2.305 1_655 S
Ho1 O26 2.322 . S
Ho1 O28 2.378 . S
Ho1 O29 2.524 . S
Ho1 O30 2.381 1_655 S
Ho1 O31 2.669 1_655 S
C2 O20 1.259 . S
C2 O21 1.268 . S
C3 Ho0 2.811 . S
C3 C4 1.488 . S
C3 O22 1.215 . S
C3 O23 1.289 . S
C4 C3 1.488 . S
C4 C5 1.348 . S
C4 C9 1.413 . S
C5 C4 1.348 . S
C5 C6 1.442 . S
C5 H32 0.930 . S
C6 C5 1.442 . S
C6 C7 1.381 . S
C6 H33 0.931 . S
C7 C6 1.381 . S
C7 C8 1.321 . S
C8 C7 1.321 . S
C8 C9 1.403 . S
C8 H34 0.934 . S
C9 C4 1.413 . S
C9 C8 1.403 . S
C9 H35 0.930 . S
C10 O24 1.275 . S
C10 O25 1.256 . S
C11 O26 1.259 . S
C11 O27 1.268 . S
C12 Ho1 2.811 . S
C12 C13 1.488 . S
C12 O28 1.215 . S
C12 O29 1.289 . S
C13 C12 1.488 . S
C13 C14 1.348 . S
C13 C18 1.413 . S
C14 C13 1.348 . S
C14 C15 1.442 . S
C14 H36 0.930 . S
C15 C14 1.442 . S
C15 C16 1.381 . S
C15 H37 0.931 . S
C16 C15 1.381 . S
C16 C17 1.321 . S
C17 C16 1.321 . S
C17 C18 1.403 . S
C17 H38 0.934 . S
C18 C13 1.413 . S
C18 C17 1.403 . S
C18 H39 0.930 . S
C19 O30 1.275 . S
C19 O31 1.256 . S
O20 Ho0 2.322 . S
O20 C2 1.259 . S
O21 Ho1 2.346 1_455 S
O21 C2 1.268 . S
O22 Ho0 2.378 . S
O22 C3 1.215 . S
O23 Ho0 2.524 . S
O23 C3 1.289 . S
O24 Ho0 2.381 . S
O24 C10 1.275 . S
O25 Ho0 2.669 . S
O25 Ho1 2.305 1_455 S
O25 C10 1.256 . S
O26 Ho1 2.322 . S
O26 C11 1.259 . S
O27 Ho0 2.346 1_655 S
O27 C11 1.268 . S
O28 Ho1 2.378 . S
O28 C12 1.215 . S
O29 Ho1 2.524 . S
O29 C12 1.289 . S
O30 Ho1 2.381 1_455 S
O30 C19 1.275 . S
O31 Ho0 2.305 . S
O31 Ho1 2.669 1_455 S
O31 C19 1.256 . S
H32 C5 0.930 . S
H33 C6 0.931 . S
H34 C8 0.934 . S
H35 C9 0.930 . S
H36 C14 0.930 . S
H37 C15 0.931 . S
H38 C17 0.934 . S
H39 C18 0.930 . S
Ho40 C43 2.811 . S
Ho40 O60 2.322 . S
Ho40 O62 2.378 . S
Ho40 O63 2.524 . S
Ho40 O64 2.381 . S
Ho40 O65 2.669 1_565 S
Ho40 O67 2.346 1_565 S
Ho40 O71 2.305 1_565 S
Ho41 C52 2.811 . S
Ho41 O61 2.346 1_545 S
Ho41 O65 2.305 . S
Ho41 O66 2.322 . S
Ho41 O68 2.378 . S
Ho41 O69 2.524 . S
Ho41 O70 2.381 . S
Ho41 O71 2.669 . S
C42 O60 1.259 . S
C42 O61 1.268 . S
C43 Ho40 2.811 . S
C43 C44 1.488 . S
C43 O62 1.215 . S
C43 O63 1.289 . S
C44 C43 1.488 . S
C44 C45 1.348 . S
C44 C49 1.413 . S
C45 C44 1.348 . S
C45 C46 1.442 . S
C45 H72 0.930 . S
C46 C45 1.442 . S
C46 C47 1.381 . S
C46 H73 0.931 . S
C47 C46 1.381 . S
C47 C48 1.321 . S
C48 C47 1.321 . S
C48 C49 1.403 . S
C48 H74 0.934 . S
C49 C44 1.413 . S
C49 C48 1.403 . S
C49 H75 0.930 . S
C50 O64 1.275 1_545 S
C50 O65 1.256 . S
C51 O66 1.259 . S
C51 O67 1.268 . S
C52 Ho41 2.811 . S
C52 C53 1.488 . S
C52 O68 1.215 . S
C52 O69 1.289 . S
C53 C52 1.488 . S
C53 C54 1.348 . S
C53 C58 1.413 . S
C54 C53 1.348 . S
C54 C55 1.442 . S
C54 H76 0.930 . S
C55 C54 1.442 . S
C55 C56 1.381 . S
C55 H77 0.931 . S
C56 C55 1.381 . S
C56 C57 1.321 . S
C57 C56 1.321 . S
C57 C58 1.403 . S
C57 H78 0.934 . S
C58 C53 1.413 . S
C58 C57 1.403 . S
C58 H79 0.930 . S
C59 O70 1.275 . S
C59 O71 1.256 . S
O60 Ho40 2.322 . S
O60 C42 1.259 . S
O61 Ho41 2.346 1_565 S
O61 C42 1.268 . S
O62 Ho40 2.378 . S
O62 C43 1.215 . S
O63 Ho40 2.524 . S
O63 C43 1.289 . S
O64 Ho40 2.381 . S
O64 C50 1.275 1_565 S
O65 Ho40 2.669 1_545 S
O65 Ho41 2.305 . S
O65 C50 1.256 . S
O66 Ho41 2.322 . S
O66 C51 1.259 . S
O67 Ho40 2.346 1_545 S
O67 C51 1.268 . S
O68 Ho41 2.378 . S
O68 C52 1.215 . S
O69 Ho41 2.524 . S
O69 C52 1.289 . S
O70 Ho41 2.381 . S
O70 C59 1.275 . S
O71 Ho40 2.305 1_545 S
O71 Ho41 2.669 . S
O71 C59 1.256 . S
H72 C45 0.930 . S
H73 C46 0.931 . S
H74 C48 0.934 . S
H75 C49 0.930 . S
H76 C54 0.930 . S
H77 C55 0.931 . S
H78 C57 0.934 . S
H79 C58 0.930 . S
Ho80 C83 2.811 . S
Ho80 O100 2.322 . S
Ho80 O102 2.378 . S
Ho80 O103 2.524 . S
Ho80 O104 2.381 . S
Ho80 O105 2.669 . S
Ho80 O107 2.346 . S
Ho80 O111 2.305 . S
Ho81 C92 2.811 . S
Ho81 O101 2.346 . S
Ho81 O105 2.305 . S
Ho81 O106 2.322 . S
Ho81 O108 2.378 . S
Ho81 O109 2.524 . S
Ho81 O110 2.381 . S
Ho81 O111 2.669 . S
C82 O100 1.259 . S
C82 O101 1.268 . S
C83 Ho80 2.811 . S
C83 C84 1.488 . S
C83 O102 1.215 . S
C83 O103 1.289 . S
C84 C83 1.488 . S
C84 C85 1.348 . S
C84 C89 1.413 . S
C85 C84 1.348 . S
C85 C86 1.442 . S
C85 H112 0.930 . S
C86 C85 1.442 . S
C86 C87 1.381 . S
C86 H113 0.931 . S
C87 C86 1.381 . S
C87 C88 1.321 . S
C88 C87 1.321 . S
C88 C89 1.403 . S
C88 H114 0.934 . S
C89 C84 1.413 . S
C89 C88 1.403 . S
C89 H115 0.930 . S
C90 O104 1.275 . S
C90 O105 1.256 . S
C91 O106 1.259 . S
C91 O107 1.268 . S
C92 Ho81 2.811 . S
C92 C93 1.488 . S
C92 O108 1.215 . S
C92 O109 1.289 . S
C93 C92 1.488 . S
C93 C94 1.348 . S
C93 C98 1.413 . S
C94 C93 1.348 . S
C94 C95 1.442 . S
C94 H116 0.930 . S
C95 C94 1.442 . S
C95 C96 1.381 . S
C95 H117 0.931 . S
C96 C95 1.381 . S
C96 C97 1.321 . S
C97 C96 1.321 . S
C97 C98 1.403 . S
C97 H118 0.934 . S
C98 C93 1.413 . S
C98 C97 1.403 . S
C98 H119 0.930 . S
C99 O110 1.275 . S
C99 O111 1.256 . S
O100 Ho80 2.322 . S
O100 C82 1.259 . S
O101 Ho81 2.346 . S
O101 C82 1.268 . S
O102 Ho80 2.378 . S
O102 C83 1.215 . S
O103 Ho80 2.524 . S
O103 C83 1.289 . S
O104 Ho80 2.381 . S
O104 C90 1.275 . S
O105 Ho80 2.669 . S
O105 Ho81 2.305 . S
O105 C90 1.256 . S
O106 Ho81 2.322 . S
O106 C91 1.259 . S
O107 Ho80 2.346 . S
O107 C91 1.268 . S
O108 Ho81 2.378 . S
O108 C92 1.215 . S
O109 Ho81 2.524 . S
O109 C92 1.289 . S
O110 Ho81 2.381 . S
O110 C99 1.275 . S
O111 Ho80 2.305 . S
O111 Ho81 2.669 . S
O111 C99 1.256 . S
H112 C85 0.930 . S
H113 C86 0.931 . S
H114 C88 0.934 . S
H115 C89 0.930 . S
H116 C94 0.930 . S
H117 C95 0.931 . S
H118 C97 0.934 . S
H119 C98 0.930 . S
P120 O131 1.490 1_545 S
P120 C134 1.812 1_545 S
P120 C140 1.803 . S
P120 C146 1.819 . S
H121 C135 0.941 . S
H122 C136 0.939 . S
H123 C138 0.940 . S
H124 C139 0.940 . S
H125 C141 0.939 . S
H126 C142 0.942 . S
H127 C144 0.940 . S
H128 C145 0.939 . S
H129 C147 0.941 . S
H130 C151 0.939 . S
O131 P120 1.490 1_565 S
H132 C148 0.939 . S
H133 C150 0.940 . S
C134 P120 1.812 1_565 S
C134 C135 1.389 . S
C134 C139 1.391 . S
C135 H121 0.941 . S
C135 C134 1.389 . S
C135 C136 1.397 . S
C136 H122 0.939 . S
C136 C135 1.397 . S
C136 C137 1.378 . S
C137 C136 1.378 . S
C137 C138 1.378 . S
C138 H123 0.940 . S
C138 C137 1.378 . S
C138 C139 1.396 . S
C139 H124 0.940 . S
C139 C134 1.391 . S
C139 C138 1.396 . S
C140 P120 1.803 . S
C140 C141 1.378 . S
C140 C145 1.400 . S
C141 H125 0.939 . S
C141 C140 1.378 . S
C141 C142 1.361 . S
C142 H126 0.942 . S
C142 C141 1.361 . S
C142 C143 1.369 . S
C143 C142 1.369 . S
C143 C144 1.404 . S
C144 H127 0.940 . S
C144 C143 1.404 . S
C144 C145 1.389 . S
C145 H128 0.939 . S
C145 C140 1.400 . S
C145 C144 1.389 . S
C146 P120 1.819 . S
C146 C147 1.391 1_545 S
C146 C151 1.391 . S
C147 H129 0.941 . S
C147 C146 1.391 1_565 S
C147 C148 1.396 . S
C148 H132 0.939 . S
C148 C147 1.396 . S
C148 C149 1.397 1_565 S
C149 C148 1.397 1_545 S
C149 C150 1.385 . S
C150 H133 0.940 . S
C150 C149 1.385 . S
C150 C151 1.388 . S
C151 H130 0.939 . S
C151 C146 1.391 . S
C151 C150 1.388 . S
P152 O163 1.490 . S
P152 C166 1.812 . S
P152 C172 1.803 . S
P152 C178 1.819 . S
H153 C167 0.941 . S
H154 C168 0.939 . S
H155 C170 0.940 . S
H156 C171 0.940 . S
H157 C173 0.939 . S
H158 C174 0.942 . S
H159 C176 0.940 . S
H160 C177 0.939 . S
H161 C179 0.941 . S
H162 C183 0.939 . S
O163 P152 1.490 . S
H164 C180 0.939 . S
H165 C182 0.940 . S
C166 P152 1.812 . S
C166 C167 1.389 . S
C166 C171 1.391 . S
C167 H153 0.941 . S
C167 C166 1.389 . S
C167 C168 1.397 . S
C168 H154 0.939 . S
C168 C167 1.397 . S
C168 C169 1.378 . S
C169 C168 1.378 . S
C169 C170 1.378 . S
C170 H155 0.940 . S
C170 C169 1.378 . S
C170 C171 1.396 . S
C171 H156 0.940 . S
C171 C166 1.391 . S
C171 C170 1.396 . S
C172 P152 1.803 . S
C172 C173 1.378 . S
C172 C177 1.400 . S
C173 H157 0.939 . S
C173 C172 1.378 . S
C173 C174 1.361 . S
C174 H158 0.942 . S
C174 C173 1.361 . S
C174 C175 1.369 . S
C175 C174 1.369 . S
C175 C176 1.404 . S
C176 H159 0.940 . S
C176 C175 1.404 . S
C176 C177 1.389 . S
C177 H160 0.939 . S
C177 C172 1.400 . S
C177 C176 1.389 . S
C178 P152 1.819 . S
C178 C179 1.391 . S
C178 C183 1.391 . S
C179 H161 0.941 . S
C179 C178 1.391 . S
C179 C180 1.396 . S
C180 H164 0.939 . S
C180 C179 1.396 . S
C180 C181 1.397 . S
C181 C180 1.397 . S
C181 C182 1.385 . S
C182 H165 0.940 . S
C182 C181 1.385 . S
C182 C183 1.388 . S
C183 H162 0.939 . S
C183 C178 1.391 . S
C183 C182 1.388 . S
P184 O195 1.490 . S
P184 C198 1.812 . S
P184 C204 1.803 . S
P184 C210 1.819 . S
H185 C199 0.941 . S
H186 C200 0.939 . S
H187 C202 0.940 . S
H188 C203 0.940 . S
H189 C205 0.939 . S
H190 C206 0.942 . S
H191 C208 0.940 . S
H192 C209 0.939 . S
H193 C211 0.941 . S
H194 C215 0.939 . S
O195 P184 1.490 . S
H196 C212 0.939 . S
H197 C214 0.940 1_655 S
C198 P184 1.812 . S
C198 C199 1.389 . S
C198 C203 1.391 . S
C199 H185 0.941 . S
C199 C198 1.389 . S
C199 C200 1.397 . S
C200 H186 0.939 . S
C200 C199 1.397 . S
C200 C201 1.378 . S
C201 C200 1.378 . S
C201 C202 1.378 . S
C202 H187 0.940 . S
C202 C201 1.378 . S
C202 C203 1.396 . S
C203 H188 0.940 . S
C203 C198 1.391 . S
C203 C202 1.396 . S
C204 P184 1.803 . S
C204 C205 1.378 . S
C204 C209 1.400 . S
C205 H189 0.939 . S
C205 C204 1.378 . S
C205 C206 1.361 1_455 S
C206 H190 0.942 . S
C206 C205 1.361 1_655 S
C206 C207 1.369 . S
C207 C206 1.369 . S
C207 C208 1.404 . S
C208 H191 0.940 . S
C208 C207 1.404 . S
C208 C209 1.389 1_655 S
C209 H192 0.939 . S
C209 C204 1.400 . S
C209 C208 1.389 1_455 S
C210 P184 1.819 . S
C210 C211 1.391 . S
C210 C215 1.391 . S
C211 H193 0.941 . S
C211 C210 1.391 . S
C211 C212 1.396 . S
C212 H196 0.939 . S
C212 C211 1.396 . S
C212 C213 1.397 . S
C213 C212 1.397 . S
C213 C214 1.385 . S
C214 H197 0.940 1_455 S
C214 C213 1.385 . S
C214 C215 1.388 . S
C215 H194 0.939 . S
C215 C210 1.391 . S
C215 C214 1.388 . S
P216 O227 1.490 . S
P216 C230 1.812 . S
P216 C236 1.803 1_455 S
P216 C242 1.819 . S
H217 C231 0.941 . S
H218 C232 0.939 . S
H219 C234 0.940 . S
H220 C235 0.940 . S
H221 C237 0.939 . S
H222 C238 0.942 . S
H223 C240 0.940 . S
H224 C241 0.939 . S
H225 C243 0.941 . S
H226 C247 0.939 . S
O227 P216 1.490 . S
H228 C244 0.939 . S
H229 C246 0.940 . S
C230 P216 1.812 . S
C230 C231 1.389 . S
C230 C235 1.391 . S
C231 H217 0.941 . S
C231 C230 1.389 . S
C231 C232 1.397 . S
C232 H218 0.939 . S
C232 C231 1.397 . S
C232 C233 1.378 . S
C233 C232 1.378 . S
C233 C234 1.378 . S
C234 H219 0.940 . S
C234 C233 1.378 . S
C234 C235 1.396 . S
C235 H220 0.940 . S
C235 C230 1.391 . S
C235 C234 1.396 . S
C236 P216 1.803 1_655 S
C236 C237 1.378 . S
C236 C241 1.400 . S
C237 H221 0.939 . S
C237 C236 1.378 . S
C237 C238 1.361 . S
C238 H222 0.942 . S
C238 C237 1.361 . S
C238 C239 1.369 . S
C239 C238 1.369 . S
C239 C240 1.404 . S
C240 H223 0.940 . S
C240 C239 1.404 . S
C240 C241 1.389 . S
C241 H224 0.939 . S
C241 C236 1.400 . S
C241 C240 1.389 . S
C242 P216 1.819 . S
C242 C243 1.391 . S
C242 C247 1.391 1_455 S
C243 H225 0.941 . S
C243 C242 1.391 . S
C243 C244 1.396 . S
C244 H228 0.939 . S
C244 C243 1.396 . S
C244 C245 1.397 . S
C245 C244 1.397 . S
C245 C246 1.385 1_455 S
C246 H229 0.940 . S
C246 C245 1.385 1_655 S
C246 C247 1.388 . S
C247 H226 0.939 . S
C247 C242 1.391 1_655 S
C247 C246 1.388 . S
P248 O259 1.490 . S
P248 C262 1.812 . S
P248 C268 1.803 1_545 S
P248 C274 1.819 . S
H249 C263 0.941 . S
H250 C264 0.939 . S
H251 C266 0.940 . S
H252 C267 0.940 . S
H253 C269 0.939 . S
H254 C270 0.942 . S
H255 C272 0.940 . S
H256 C273 0.939 . S
H257 C275 0.941 . S
H258 C279 0.939 . S
O259 P248 1.490 . S
H260 C276 0.939 . S
H261 C278 0.940 . S
C262 P248 1.812 . S
C262 C263 1.389 . S
C262 C267 1.391 . S
C263 H249 0.941 . S
C263 C262 1.389 . S
C263 C264 1.397 . S
C264 H250 0.939 . S
C264 C263 1.397 . S
C264 C265 1.378 . S
C265 C264 1.378 . S
C265 C266 1.378 . S
C266 H251 0.940 . S
C266 C265 1.378 . S
C266 C267 1.396 . S
C267 H252 0.940 . S
C267 C262 1.391 . S
C267 C266 1.396 . S
C268 P248 1.803 1_565 S
C268 C269 1.378 . S
C268 C273 1.400 . S
C269 H253 0.939 . S
C269 C268 1.378 . S
C269 C270 1.361 . S
C270 H254 0.942 . S
C270 C269 1.361 . S
C270 C271 1.369 . S
C271 C270 1.369 . S
C271 C272 1.404 . S
C272 H255 0.940 . S
C272 C271 1.404 . S
C272 C273 1.389 . S
C273 H256 0.939 . S
C273 C268 1.400 . S
C273 C272 1.389 . S
C274 P248 1.819 . S
C274 C275 1.391 . S
C274 C279 1.391 1_545 S
C275 H257 0.941 . S
C275 C274 1.391 . S
C275 C276 1.396 . S
C276 H260 0.939 . S
C276 C275 1.396 . S
C276 C277 1.397 . S
C277 C276 1.397 . S
C277 C278 1.385 1_545 S
C278 H261 0.940 . S
C278 C277 1.385 1_565 S
C278 C279 1.388 . S
C279 H258 0.939 . S
C279 C274 1.391 1_565 S
C279 C278 1.388 . S
P280 O291 1.490 . S
P280 C294 1.812 . S
P280 C300 1.803 . S
P280 C306 1.819 . S
H281 C295 0.941 . S
H282 C296 0.939 . S
H283 C298 0.940 . S
H284 C299 0.940 . S
H285 C301 0.939 . S
H286 C302 0.942 . S
H287 C304 0.940 . S
H288 C305 0.939 . S
H289 C307 0.941 . S
H290 C311 0.939 . S
O291 P280 1.490 . S
H292 C308 0.939 . S
H293 C310 0.940 . S
C294 P280 1.812 . S
C294 C295 1.389 . S
C294 C299 1.391 . S
C295 H281 0.941 . S
C295 C294 1.389 . S
C295 C296 1.397 . S
C296 H282 0.939 . S
C296 C295 1.397 . S
C296 C297 1.378 . S
C297 C296 1.378 . S
C297 C298 1.378 . S
C298 H283 0.940 . S
C298 C297 1.378 . S
C298 C299 1.396 . S
C299 H284 0.940 . S
C299 C294 1.391 . S
C299 C298 1.396 . S
C300 P280 1.803 . S
C300 C301 1.378 . S
C300 C305 1.400 . S
C301 H285 0.939 . S
C301 C300 1.378 . S
C301 C302 1.361 . S
C302 H286 0.942 . S
C302 C301 1.361 . S
C302 C303 1.369 . S
C303 C302 1.369 . S
C303 C304 1.404 . S
C304 H287 0.940 . S
C304 C303 1.404 . S
C304 C305 1.389 . S
C305 H288 0.939 . S
C305 C300 1.400 . S
C305 C304 1.389 . S
C306 P280 1.819 . S
C306 C307 1.391 . S
C306 C311 1.391 . S
C307 H289 0.941 . S
C307 C306 1.391 . S
C307 C308 1.396 . S
C308 H292 0.939 . S
C308 C307 1.396 . S
C308 C309 1.397 . S
C309 C308 1.397 . S
C309 C310 1.385 . S
C310 H293 0.940 . S
C310 C309 1.385 . S
C310 C311 1.388 . S
C311 H290 0.939 . S
C311 C306 1.391 . S
C311 C310 1.388 . S
H312 C318 0.930 . S
H313 C322 0.930 . S
H314 C327 0.929 . S
H315 C325 0.929 . S
H316 C320 0.929 . S
H317 C326 0.929 . S
C318 H312 0.930 . S
C318 C319 1.367 . S
C318 C326 1.378 . S
C319 C318 1.367 . S
C319 C327 1.433 . S
C320 H316 0.929 . S
C320 C322 1.378 . S
C320 C324 1.350 . S
C321 C324 1.463 . S
C321 C326 1.350 . S
C321 N329 1.427 . S
C322 H313 0.930 . S
C322 C320 1.378 . S
C322 C323 1.367 . S
C323 C322 1.367 . S
C323 C325 1.433 . S
C324 C320 1.350 . S
C324 C321 1.463 . S
C324 N328 1.427 . S
C325 H315 0.929 . S
C325 C323 1.433 . S
C325 N328 1.384 . S
C326 H317 0.929 . S
C326 C318 1.378 . S
C326 C321 1.350 . S
C327 H314 0.929 . S
C327 C319 1.433 . S
C327 N329 1.384 . S
N328 C324 1.427 . S
N328 C325 1.384 . S
N329 C321 1.427 . S
N329 C327 1.384 . S
H330 C336 0.930 . S
H331 C340 0.930 . S
H332 C345 0.929 . S
H333 C343 0.929 . S
H334 C338 0.929 . S
H335 C344 0.929 . S
C336 H330 0.930 . S
C336 C337 1.367 . S
C336 C344 1.378 . S
C337 C336 1.367 . S
C337 C345 1.433 . S
C338 H334 0.929 . S
C338 C340 1.378 . S
C338 C342 1.350 . S
C339 C342 1.463 . S
C339 C344 1.350 . S
C339 N347 1.427 . S
C340 H331 0.930 . S
C340 C338 1.378 . S
C340 C341 1.367 . S
C341 C340 1.367 . S
C341 C343 1.433 . S
C342 C338 1.350 . S
C342 C339 1.463 . S
C342 N346 1.427 . S
C343 H333 0.929 . S
C343 C341 1.433 . S
C343 N346 1.384 . S
C344 H335 0.929 . S
C344 C336 1.378 . S
C344 C339 1.350 . S
C345 H332 0.929 . S
C345 C337 1.433 . S
C345 N347 1.384 . S
N346 C342 1.427 . S
N346 C343 1.384 . S
N347 C339 1.427 . S
N347 C345 1.384 . S
H348 C354 0.930 . S
H349 C358 0.930 . S
H350 C363 0.929 . S
H351 C361 0.929 . S
H352 C356 0.929 . S
H353 C362 0.929 . S
C354 H348 0.930 . S
C354 C355 1.367 . S
C354 C362 1.378 . S
C355 C354 1.367 . S
C355 C363 1.433 . S
C356 H352 0.929 . S
C356 C358 1.378 . S
C356 C360 1.350 . S
C357 C360 1.463 . S
C357 C362 1.350 . S
C357 N365 1.427 . S
C358 H349 0.930 . S
C358 C356 1.378 . S
C358 C359 1.367 . S
C359 C358 1.367 . S
C359 C361 1.433 . S
C360 C356 1.350 . S
C360 C357 1.463 . S
C360 N364 1.427 . S
C361 H351 0.929 . S
C361 C359 1.433 . S
C361 N364 1.384 . S
C362 H353 0.929 . S
C362 C354 1.378 . S
C362 C357 1.350 . S
C363 H350 0.929 . S
C363 C355 1.433 . S
C363 N365 1.384 . S
N364 C360 1.427 . S
N364 C361 1.384 . S
N365 C357 1.427 . S
N365 C363 1.384 . S
H366 C372 0.930 . S
H367 C376 0.930 . S
H368 C381 0.929 . S
H369 C379 0.929 . S
H370 C374 0.929 . S
H371 C380 0.929 . S
C372 H366 0.930 . S
C372 C373 1.367 . S
C372 C380 1.378 . S
C373 C372 1.367 . S
C373 C381 1.433 . S
C374 H370 0.929 . S
C374 C376 1.378 . S
C374 C378 1.350 . S
C375 C378 1.463 . S
C375 C380 1.350 . S
C375 N383 1.427 . S
C376 H367 0.930 . S
C376 C374 1.378 . S
C376 C377 1.367 . S
C377 C376 1.367 . S
C377 C379 1.433 . S
C378 C374 1.350 . S
C378 C375 1.463 . S
C378 N382 1.427 . S
C379 H369 0.929 . S
C379 C377 1.433 . S
C379 N382 1.384 . S
C380 H371 0.929 . S
C380 C372 1.378 . S
C380 C375 1.350 . S
C381 H368 0.929 . S
C381 C373 1.433 . S
C381 N383 1.384 . S
N382 C378 1.427 . S
N382 C379 1.384 . S
N383 C375 1.427 . S
N383 C381 1.384 . S
H384 C390 0.930 . S
H385 C394 0.930 . S
H386 C399 0.929 . S
H387 C397 0.929 . S
H388 C392 0.929 . S
H389 C398 0.929 . S
C390 H384 0.930 . S
C390 C391 1.367 . S
C390 C398 1.378 . S
C391 C390 1.367 . S
C391 C399 1.433 . S
C392 H388 0.929 . S
C392 C394 1.378 . S
C392 C396 1.350 . S
C393 C396 1.463 . S
C393 C398 1.350 . S
C393 N401 1.427 . S
C394 H385 0.930 . S
C394 C392 1.378 . S
C394 C395 1.367 . S
C395 C394 1.367 . S
C395 C397 1.433 . S
C396 C392 1.350 . S
C396 C393 1.463 . S
C396 N400 1.427 . S
C397 H387 0.929 . S
C397 C395 1.433 . S
C397 N400 1.384 . S
C398 H389 0.929 . S
C398 C390 1.378 . S
C398 C393 1.350 . S
C399 H386 0.929 . S
C399 C391 1.433 . S
C399 N401 1.384 . S
N400 C396 1.427 . S
N400 C397 1.384 . S
N401 C393 1.427 . S
N401 C399 1.384 . S
H402 C408 0.930 . S
H403 C412 0.930 . S
H404 C417 0.929 . S
H405 C415 0.929 . S
H406 C410 0.929 . S
H407 C416 0.929 . S
C408 H402 0.930 . S
C408 C409 1.367 . S
C408 C416 1.378 . S
C409 C408 1.367 . S
C409 C417 1.433 . S
C410 H406 0.929 . S
C410 C412 1.378 . S
C410 C414 1.350 . S
C411 C414 1.463 . S
C411 C416 1.350 . S
C411 N419 1.427 . S
C412 H403 0.930 . S
C412 C410 1.378 . S
C412 C413 1.367 . S
C413 C412 1.367 . S
C413 C415 1.433 . S
C414 C410 1.350 . S
C414 C411 1.463 . S
C414 N418 1.427 . S
C415 H405 0.929 . S
C415 C413 1.433 . S
C415 N418 1.384 . S
C416 H407 0.929 . S
C416 C408 1.378 . S
C416 C411 1.350 . S
C417 H404 0.929 . S
C417 C409 1.433 . S
C417 N419 1.384 . S
N418 C414 1.427 . S
N418 C415 1.384 . S
N419 C411 1.427 . S
N419 C417 1.384 . S
H420 C426 0.930 . S
H421 C430 0.930 . S
H422 C435 0.929 . S
H423 C433 0.929 . S
H424 C428 0.929 . S
H425 C434 0.929 . S
C426 H420 0.930 . S
C426 C427 1.367 . S
C426 C434 1.378 . S
C427 C426 1.367 . S
C427 C435 1.433 . S
C428 H424 0.929 . S
C428 C430 1.378 . S
C428 C432 1.350 . S
C429 C432 1.463 . S
C429 C434 1.350 . S
C429 N437 1.427 . S
C430 H421 0.930 . S
C430 C428 1.378 . S
C430 C431 1.367 . S
C431 C430 1.367 . S
C431 C433 1.433 . S
C432 C428 1.350 . S
C432 C429 1.463 . S
C432 N436 1.427 . S
C433 H423 0.929 . S
C433 C431 1.433 . S
C433 N436 1.384 . S
C434 H425 0.929 . S
C434 C426 1.378 . S
C434 C429 1.350 . S
C435 H422 0.929 . S
C435 C427 1.433 . S
C435 N437 1.384 . S
N436 C432 1.427 . S
N436 C433 1.384 . S
N437 C429 1.427 . S
N437 C435 1.384 . S
H438 C444 0.930 . S
H439 C448 0.930 . S
H440 C453 0.929 . S
H441 C451 0.929 . S
H442 C446 0.929 . S
H443 C452 0.929 . S
C444 H438 0.930 . S
C444 C445 1.367 . S
C444 C452 1.378 . S
C445 C444 1.367 . S
C445 C453 1.433 . S
C446 H442 0.929 . S
C446 C448 1.378 . S
C446 C450 1.350 . S
C447 C450 1.463 . S
C447 C452 1.350 . S
C447 N455 1.427 . S
C448 H439 0.930 . S
C448 C446 1.378 . S
C448 C449 1.367 . S
C449 C448 1.367 . S
C449 C451 1.433 . S
C450 C446 1.350 . S
C450 C447 1.463 . S
C450 N454 1.427 . S
C451 H441 0.929 . S
C451 C449 1.433 . S
C451 N454 1.384 . S
C452 H443 0.929 . S
C452 C444 1.378 . S
C452 C447 1.350 . S
C453 H440 0.929 . S
C453 C445 1.433 . S
C453 N455 1.384 . S
N454 C450 1.427 . S
N454 C451 1.384 . S
N455 C447 1.427 . S
N455 C453 1.384 . S
H456 C462 0.930 . S
H457 C466 0.930 . S
H458 C471 0.929 . S
H459 C469 0.929 . S
H460 C464 0.929 . S
H461 C470 0.929 . S
C462 H456 0.930 . S
C462 C463 1.367 . S
C462 C470 1.378 . S
C463 C462 1.367 . S
C463 C471 1.433 . S
C464 H460 0.929 . S
C464 C466 1.378 . S
C464 C468 1.350 . S
C465 C468 1.463 . S
C465 C470 1.350 . S
C465 N473 1.427 . S
C466 H457 0.930 . S
C466 C464 1.378 . S
C466 C467 1.367 . S
C467 C466 1.367 . S
C467 C469 1.433 . S
C468 C464 1.350 . S
C468 C465 1.463 . S
C468 N472 1.427 . S
C469 H459 0.929 . S
C469 C467 1.433 . S
C469 N472 1.384 . S
C470 H461 0.929 . S
C470 C462 1.378 . S
C470 C465 1.350 . S
C471 H458 0.929 . S
C471 C463 1.433 . S
C471 N473 1.384 . S
N472 C468 1.427 . S
N472 C469 1.384 . S
N473 C465 1.427 . S
N473 C471 1.384 . S
H474 C480 0.930 . S
H475 C484 0.930 . S
H476 C489 0.929 . S
H477 C487 0.929 . S
H478 C482 0.929 . S
H479 C488 0.929 . S
C480 H474 0.930 . S
C480 C481 1.367 . S
C480 C488 1.378 . S
C481 C480 1.367 . S
C481 C489 1.433 . S
C482 H478 0.929 . S
C482 C484 1.378 . S
C482 C486 1.350 . S
C483 C486 1.463 . S
C483 C488 1.350 . S
C483 N491 1.427 . S
C484 H475 0.930 . S
C484 C482 1.378 . S
C484 C485 1.367 . S
C485 C484 1.367 . S
C485 C487 1.433 . S
C486 C482 1.350 . S
C486 C483 1.463 . S
C486 N490 1.427 . S
C487 H477 0.929 . S
C487 C485 1.433 . S
C487 N490 1.384 . S
C488 H479 0.929 . S
C488 C480 1.378 . S
C488 C483 1.350 . S
C489 H476 0.929 . S
C489 C481 1.433 . S
C489 N491 1.384 . S
N490 C486 1.427 . S
N490 C487 1.384 . S
N491 C483 1.427 . S
N491 C489 1.384 . S
H492 C498 0.930 . S
H493 C502 0.930 . S
H494 C507 0.929 . S
H495 C505 0.929 . S
H496 C500 0.929 . S
H497 C506 0.929 . S
C498 H492 0.930 . S
C498 C499 1.367 . S
C498 C506 1.378 . S
C499 C498 1.367 . S
C499 C507 1.433 . S
C500 H496 0.929 . S
C500 C502 1.378 . S
C500 C504 1.350 . S
C501 C504 1.463 . S
C501 C506 1.350 . S
C501 N509 1.427 . S
C502 H493 0.930 . S
C502 C500 1.378 . S
C502 C503 1.367 . S
C503 C502 1.367 . S
C503 C505 1.433 . S
C504 C500 1.350 . S
C504 C501 1.463 . S
C504 N508 1.427 . S
C505 H495 0.929 . S
C505 C503 1.433 . S
C505 N508 1.384 . S
C506 H497 0.929 . S
C506 C498 1.378 . S
C506 C501 1.350 . S
C507 H494 0.929 . S
C507 C499 1.433 . S
C507 N509 1.384 . S
N508 C504 1.427 . S
N508 C505 1.384 . S
N509 C501 1.427 . S
N509 C507 1.384 . S
H510 C516 0.930 . S
H511 C520 0.930 . S
H512 C525 0.929 . S
H513 C523 0.929 . S
H514 C518 0.929 . S
H515 C524 0.929 . S
C516 H510 0.930 . S
C516 C517 1.367 . S
C516 C524 1.378 . S
C517 C516 1.367 . S
C517 C525 1.433 . S
C518 H514 0.929 . S
C518 C520 1.378 . S
C518 C522 1.350 . S
C519 C522 1.463 . S
C519 C524 1.350 . S
C519 N527 1.427 . S
C520 H511 0.930 . S
C520 C518 1.378 . S
C520 C521 1.367 . S
C521 C520 1.367 . S
C521 C523 1.433 . S
C522 C518 1.350 . S
C522 C519 1.463 . S
C522 N526 1.427 . S
C523 H513 0.929 . S
C523 C521 1.433 . S
C523 N526 1.384 . S
C524 H515 0.929 . S
C524 C516 1.378 . S
C524 C519 1.350 . S
C525 H512 0.929 . S
C525 C517 1.433 . S
C525 N527 1.384 . S
N526 C522 1.427 . S
N526 C523 1.384 . S
N527 C519 1.427 . S
N527 C525 1.384 . S
H528 C534 0.930 . S
H529 C538 0.930 . S
H530 C543 0.929 . S
H531 C541 0.929 1_655 S
H532 C536 0.929 . S
H533 C542 0.929 . S
C534 H528 0.930 . S
C534 C535 1.367 1_655 S
C534 C542 1.378 . S
C535 C534 1.367 1_455 S
C535 C543 1.433 . S
C536 H532 0.929 . S
C536 C538 1.378 1_554 S
C536 C540 1.350 . S
C537 C540 1.463 . S
C537 C542 1.350 1_455 S
C537 N545 1.427 . S
C538 H529 0.930 . S
C538 C536 1.378 1_556 S
C538 C539 1.367 . S
C539 C538 1.367 . S
C539 C541 1.433 . S
C540 C536 1.350 . S
C540 C537 1.463 . S
C540 N544 1.427 . S
C541 H531 0.929 1_455 S
C541 C539 1.433 . S
C541 N544 1.384 1_556 S
C542 H533 0.929 . S
C542 C534 1.378 . S
C542 C537 1.350 1_655 S
C543 H530 0.929 . S
C543 C535 1.433 . S
C543 N545 1.384 . S
N544 C540 1.427 . S
N544 C541 1.384 1_554 S
N545 C537 1.427 . S
N545 C543 1.384 . S
H546 C552 0.930 . S
H547 C556 0.930 . S
H548 C561 0.929 . S
H549 C559 0.929 . S
H550 C554 0.929 . S
H551 C560 0.929 . S
C552 H546 0.930 . S
C552 C553 1.367 1_565 S
C552 C560 1.378 . S
C553 C552 1.367 1_545 S
C553 C561 1.433 . S
C554 H550 0.929 . S
C554 C556 1.378 . S
C554 C558 1.350 . S
C555 C558 1.463 . S
C555 C560 1.350 1_545 S
C555 N563 1.427 . S
C556 H547 0.930 . S
C556 C554 1.378 . S
C556 C557 1.367 . S
C557 C556 1.367 . S
C557 C559 1.433 1_545 S
C558 C554 1.350 . S
C558 C555 1.463 . S
C558 N562 1.427 1_545 S
C559 H549 0.929 . S
C559 C557 1.433 1_565 S
C559 N562 1.384 . S
C560 H551 0.929 . S
C560 C552 1.378 . S
C560 C555 1.350 1_565 S
C561 H548 0.929 . S
C561 C553 1.433 . S
C561 N563 1.384 . S
N562 C558 1.427 1_565 S
N562 C559 1.384 . S
N563 C555 1.427 . S
N563 C561 1.384 . S
H564 C570 0.930 . S
H565 C574 0.930 . S
H566 C579 0.929 . S
H567 C577 0.929 . S
H568 C572 0.929 . S
H569 C578 0.929 . S
C570 H564 0.930 . S
C570 C571 1.367 . S
C570 C578 1.378 . S
C571 C570 1.367 . S
C571 C579 1.433 . S
C572 H568 0.929 . S
C572 C574 1.378 . S
C572 C576 1.350 . S
C573 C576 1.463 . S
C573 C578 1.350 . S
C573 N581 1.427 . S
C574 H565 0.930 . S
C574 C572 1.378 . S
C574 C575 1.367 . S
C575 C574 1.367 . S
C575 C577 1.433 . S
C576 C572 1.350 . S
C576 C573 1.463 . S
C576 N580 1.427 . S
C577 H567 0.929 . S
C577 C575 1.433 . S
C577 N580 1.384 . S
C578 H569 0.929 . S
C578 C570 1.378 . S
C578 C573 1.350 . S
C579 H566 0.929 . S
C579 C571 1.433 . S
C579 N581 1.384 . S
N580 C576 1.427 . S
N580 C577 1.384 . S
N581 C573 1.427 . S
N581 C579 1.384 . S
H582 C588 0.930 . S
H583 C592 0.930 . S
H584 C597 0.929 . S
H585 C595 0.929 . S
H586 C590 0.929 . S
H587 C596 0.929 . S
C588 H582 0.930 . S
C588 C589 1.367 . S
C588 C596 1.378 . S
C589 C588 1.367 . S
C589 C597 1.433 1_545 S
C590 H586 0.929 . S
C590 C592 1.378 . S
C590 C594 1.350 1_565 S
C591 C594 1.463 . S
C591 C596 1.350 . S
C591 N599 1.427 1_545 S
C592 H583 0.930 . S
C592 C590 1.378 . S
C592 C593 1.367 . S
C593 C592 1.367 . S
C593 C595 1.433 1_565 S
C594 C590 1.350 1_545 S
C594 C591 1.463 . S
C594 N598 1.427 . S
C595 H585 0.929 . S
C595 C593 1.433 1_545 S
C595 N598 1.384 . S
C596 H587 0.929 . S
C596 C588 1.378 . S
C596 C591 1.350 . S
C597 H584 0.929 . S
C597 C589 1.433 1_565 S
C597 N599 1.384 . S
N598 C594 1.427 . S
N598 C595 1.384 . S
N599 C591 1.427 1_565 S
N599 C597 1.384 . S
H600 C606 0.930 . S
H601 C610 0.930 1_554 S
H602 C615 0.929 . S
H603 C613 0.929 . S
H604 C608 0.929 . S
H605 C614 0.929 . S
C606 H600 0.930 . S
C606 C607 1.367 . S
C606 C614 1.378 . S
C607 C606 1.367 . S
C607 C615 1.433 . S
C608 H604 0.929 . S
C608 C610 1.378 . S
C608 C612 1.350 . S
C609 C612 1.463 . S
C609 C614 1.350 . S
C609 N617 1.427 . S
C610 H601 0.930 1_556 S
C610 C608 1.378 . S
C610 C611 1.367 1_556 S
C611 C610 1.367 1_554 S
C611 C613 1.433 1_554 S
C612 C608 1.350 . S
C612 C609 1.463 . S
C612 N616 1.427 . S
C613 H603 0.929 . S
C613 C611 1.433 1_556 S
C613 N616 1.384 . S
C614 H605 0.929 . S
C614 C606 1.378 . S
C614 C609 1.350 . S
C615 H602 0.929 . S
C615 C607 1.433 . S
C615 N617 1.384 . S
N616 C612 1.427 . S
N616 C613 1.384 . S
N617 C609 1.427 . S
N617 C615 1.384 . S
H618 C624 0.930 . S
H619 C628 0.930 . S
H620 C633 0.929 . S
H621 C631 0.929 . S
H622 C626 0.929 . S
H623 C632 0.929 . S
C624 H618 0.930 . S
C624 C625 1.367 1_655 S
C624 C632 1.378 . S
C625 C624 1.367 1_455 S
C625 C633 1.433 . S
C626 H622 0.929 . S
C626 C628 1.378 . S
C626 C630 1.350 . S
C627 C630 1.463 . S
C627 C632 1.350 1_455 S
C627 N635 1.427 . S
C628 H619 0.930 . S
C628 C626 1.378 . S
C628 C629 1.367 . S
C629 C628 1.367 . S
C629 C631 1.433 1_455 S
C630 C626 1.350 . S
C630 C627 1.463 . S
C630 N634 1.427 1_455 S
C631 H621 0.929 . S
C631 C629 1.433 1_655 S
C631 N634 1.384 . S
C632 H623 0.929 . S
C632 C624 1.378 . S
C632 C627 1.350 1_655 S
C633 H620 0.929 . S
C633 C625 1.433 . S
C633 N635 1.384 . S
N634 C630 1.427 1_655 S
N634 C631 1.384 . S
N635 C627 1.427 . S
N635 C633 1.384 . S
C319 C7 0.609 . S
C323 C303 0.557 . S
C337 C51 1.901 . S
C341 C239 1.849 . S
C355 C87 1.244 . S
C359 C271 1.233 . S
C373 C16 0.459 . S
C377 C297 0.422 . S
C395 C233 1.911 . S
C391 C42 1.969 . S
C413 C265 1.279 . S
C409 C96 1.292 . S
C427 C47 1.220 . S
C431 C175 1.230 . S
C445 C91 3.063 . S
C449 C207 2.989 . S
C463 C2 1.996 . S
C467 C137 1.944 . S
C485 C169 1.278 . S
C481 C56 1.283 . S
C503 C201 2.966 . S
C499 C82 2.997 . S
C517 C11 1.896 . S
C521 C143 1.853 . S
C539 C213 1.738 . S
C535 C19 1.717 . S
C553 C50 1.346 . S
C557 C149 1.351 . S
C571 C99 1.459 . S
C575 C181 1.476 . S
C593 C277 1.452 1_565 S
C589 C59 1.448 . S
C611 C309 1.095 . S
C607 C90 1.093 . S
C625 C10 1.338 . S
C629 C245 1.340 . S
