# Generated by pormake.
# Topology ctn, (3,4)-cn, num edge types: 1
# Building blocks:
#     Node 0, Type 0, BuildingBlock: KAKCAD_clean_linker_0, # of connection points: 3
#     Node 1, Type 0, BuildingBlock: KAKCAD_clean_linker_0, # of connection points: 3
#     Node 2, Type 0, BuildingBlock: KAKCAD_clean_linker_0, # of connection points: 3
#     Node 3, Type 0, BuildingBlock: KAKCAD_clean_linker_0, # of connection points: 3
#     Node 4, Type 0, BuildingBlock: KAKCAD_clean_linker_0, # of connection points: 3
#     Node 5, Type 0, BuildingBlock: KAKCAD_clean_linker_0, # of connection points: 3
#     Node 6, Type 0, BuildingBlock: KAKCAD_clean_linker_0, # of connection points: 3
#     Node 7, Type 0, BuildingBlock: KAKCAD_clean_linker_0, # of connection points: 3
#     Node 8, Type 0, BuildingBlock: KAKCAD_clean_linker_0, # of connection points: 3
#     Node 9, Type 0, BuildingBlock: KAKCAD_clean_linker_0, # of connection points: 3
#     Node 10, Type 0, BuildingBlock: KAKCAD_clean_linker_0, # of connection points: 3
#     Node 11, Type 0, BuildingBlock: KAKCAD_clean_linker_0, # of connection points: 3
#     Node 12, Type 0, BuildingBlock: KAKCAD_clean_linker_0, # of connection points: 3
#     Node 13, Type 0, BuildingBlock: KAKCAD_clean_linker_0, # of connection points: 3
#     Node 14, Type 0, BuildingBlock: KAKCAD_clean_linker_0, # of connection points: 3
#     Node 15, Type 0, BuildingBlock: KAKCAD_clean_linker_0, # of connection points: 3
#     Node 16, Type 1, BuildingBlock: TATPOV_clean_sbu_0, # of connection points: 4
#     Node 17, Type 1, BuildingBlock: TATPOV_clean_sbu_0, # of connection points: 4
#     Node 18, Type 1, BuildingBlock: TATPOV_clean_sbu_0, # of connection points: 4
#     Node 19, Type 1, BuildingBlock: TATPOV_clean_sbu_0, # of connection points: 4
#     Node 20, Type 1, BuildingBlock: TATPOV_clean_sbu_0, # of connection points: 4
#     Node 21, Type 1, BuildingBlock: TATPOV_clean_sbu_0, # of connection points: 4
#     Node 22, Type 1, BuildingBlock: TATPOV_clean_sbu_0, # of connection points: 4
#     Node 23, Type 1, BuildingBlock: TATPOV_clean_sbu_0, # of connection points: 4
#     Node 24, Type 1, BuildingBlock: TATPOV_clean_sbu_0, # of connection points: 4
#     Node 25, Type 1, BuildingBlock: TATPOV_clean_sbu_0, # of connection points: 4
#     Node 26, Type 1, BuildingBlock: TATPOV_clean_sbu_0, # of connection points: 4
#     Node 27, Type 1, BuildingBlock: TATPOV_clean_sbu_0, # of connection points: 4
#     Edge 28, Type (0, 1), BuildingBlock: ZUJKAS_clean_linker_0, # of connection points: 2
#     Edge 29, Type (0, 1), BuildingBlock: ZUJKAS_clean_linker_0, # of connection points: 2
#     Edge 30, Type (0, 1), BuildingBlock: ZUJKAS_clean_linker_0, # of connection points: 2
#     Edge 31, Type (0, 1), BuildingBlock: ZUJKAS_clean_linker_0, # of connection points: 2
#     Edge 32, Type (0, 1), BuildingBlock: ZUJKAS_clean_linker_0, # of connection points: 2
#     Edge 33, Type (0, 1), BuildingBlock: ZUJKAS_clean_linker_0, # of connection points: 2
#     Edge 34, Type (0, 1), BuildingBlock: ZUJKAS_clean_linker_0, # of connection points: 2
#     Edge 35, Type (0, 1), BuildingBlock: ZUJKAS_clean_linker_0, # of connection points: 2
#     Edge 36, Type (0, 1), BuildingBlock: ZUJKAS_clean_linker_0, # of connection points: 2
#     Edge 37, Type (0, 1), BuildingBlock: ZUJKAS_clean_linker_0, # of connection points: 2
#     Edge 38, Type (0, 1), BuildingBlock: ZUJKAS_clean_linker_0, # of connection points: 2
#     Edge 39, Type (0, 1), BuildingBlock: ZUJKAS_clean_linker_0, # of connection points: 2
#     Edge 40, Type (0, 1), BuildingBlock: ZUJKAS_clean_linker_0, # of connection points: 2
#     Edge 41, Type (0, 1), BuildingBlock: ZUJKAS_clean_linker_0, # of connection points: 2
#     Edge 42, Type (0, 1), BuildingBlock: ZUJKAS_clean_linker_0, # of connection points: 2
#     Edge 43, Type (0, 1), BuildingBlock: ZUJKAS_clean_linker_0, # of connection points: 2
#     Edge 44, Type (0, 1), BuildingBlock: ZUJKAS_clean_linker_0, # of connection points: 2
#     Edge 45, Type (0, 1), BuildingBlock: ZUJKAS_clean_linker_0, # of connection points: 2
#     Edge 46, Type (0, 1), BuildingBlock: ZUJKAS_clean_linker_0, # of connection points: 2
#     Edge 47, Type (0, 1), BuildingBlock: ZUJKAS_clean_linker_0, # of connection points: 2
#     Edge 48, Type (0, 1), BuildingBlock: ZUJKAS_clean_linker_0, # of connection points: 2
#     Edge 49, Type (0, 1), BuildingBlock: ZUJKAS_clean_linker_0, # of connection points: 2
#     Edge 50, Type (0, 1), BuildingBlock: ZUJKAS_clean_linker_0, # of connection points: 2
#     Edge 51, Type (0, 1), BuildingBlock: ZUJKAS_clean_linker_0, # of connection points: 2
#     Edge 52, Type (0, 1), BuildingBlock: ZUJKAS_clean_linker_0, # of connection points: 2
#     Edge 53, Type (0, 1), BuildingBlock: ZUJKAS_clean_linker_0, # of connection points: 2
#     Edge 54, Type (0, 1), BuildingBlock: ZUJKAS_clean_linker_0, # of connection points: 2
#     Edge 55, Type (0, 1), BuildingBlock: ZUJKAS_clean_linker_0, # of connection points: 2
#     Edge 56, Type (0, 1), BuildingBlock: ZUJKAS_clean_linker_0, # of connection points: 2
#     Edge 57, Type (0, 1), BuildingBlock: ZUJKAS_clean_linker_0, # of connection points: 2
#     Edge 58, Type (0, 1), BuildingBlock: ZUJKAS_clean_linker_0, # of connection points: 2
#     Edge 59, Type (0, 1), BuildingBlock: ZUJKAS_clean_linker_0, # of connection points: 2
#     Edge 60, Type (0, 1), BuildingBlock: ZUJKAS_clean_linker_0, # of connection points: 2
#     Edge 61, Type (0, 1), BuildingBlock: ZUJKAS_clean_linker_0, # of connection points: 2
#     Edge 62, Type (0, 1), BuildingBlock: ZUJKAS_clean_linker_0, # of connection points: 2
#     Edge 63, Type (0, 1), BuildingBlock: ZUJKAS_clean_linker_0, # of connection points: 2
#     Edge 64, Type (0, 1), BuildingBlock: ZUJKAS_clean_linker_0, # of connection points: 2
#     Edge 65, Type (0, 1), BuildingBlock: ZUJKAS_clean_linker_0, # of connection points: 2
#     Edge 66, Type (0, 1), BuildingBlock: ZUJKAS_clean_linker_0, # of connection points: 2
#     Edge 67, Type (0, 1), BuildingBlock: ZUJKAS_clean_linker_0, # of connection points: 2
#     Edge 68, Type (0, 1), BuildingBlock: ZUJKAS_clean_linker_0, # of connection points: 2
#     Edge 69, Type (0, 1), BuildingBlock: ZUJKAS_clean_linker_0, # of connection points: 2
#     Edge 70, Type (0, 1), BuildingBlock: ZUJKAS_clean_linker_0, # of connection points: 2
#     Edge 71, Type (0, 1), BuildingBlock: ZUJKAS_clean_linker_0, # of connection points: 2
#     Edge 72, Type (0, 1), BuildingBlock: ZUJKAS_clean_linker_0, # of connection points: 2
#     Edge 73, Type (0, 1), BuildingBlock: ZUJKAS_clean_linker_0, # of connection points: 2
#     Edge 74, Type (0, 1), BuildingBlock: ZUJKAS_clean_linker_0, # of connection points: 2
#     Edge 75, Type (0, 1), BuildingBlock: ZUJKAS_clean_linker_0, # of connection points: 2
# Relax obj value: 0.002
# Max RMSD: 0.048
# Mean RMSD: 0.020
data_MOF--net-ctn--node1-TATPOV_clean_sbu_0--node2-KAKCAD_clean_linker_0--edge1-ZUJKAS_clean_linker_0
_symmetry_space_group_name_H-M    P1
_symmetry_Int_Tables_number       1
_symmetry_cell_setting            triclinic
loop_
_symmetry_equiv_pos_as_xyz
'x, y, z'
_cell_length_a     84.084595
_cell_length_b     84.016563
_cell_length_c     83.941945
_cell_angle_alpha  90.997361
_cell_angle_beta   91.232436
_cell_angle_gamma 91.134219
loop_
_atom_site_label
_atom_site_type_symbol
_atom_site_fract_x
_atom_site_fract_y
_atom_site_fract_z
_atom_type_partial_charge
C0 C 0.03648 0.0751 0.98761 0.0
C1 C 0.0315 0.09018 0.99282 0.0
C2 C 0.0387 0.06284 0.99844 0.0
C3 C 0.03602 0.06533 0.01477 0.0
C4 C 0.03109 0.08041 0.01998 0.0
C5 C 0.02884 0.09266 0.00915 0.0
C6 C 0.03831 0.05225 0.02633 0.0
C7 C 0.05122 0.04195 0.02499 0.0
C8 C 0.05351 0.02967 0.03593 0.0
C9 C 0.04267 0.02771 0.04828 0.0
C10 C 0.02963 0.0378 0.04978 0.0
C11 C 0.02757 0.05004 0.03876 0.0
C12 C 0.01808 0.03548 0.06278 0.0
C13 C 0.01265 0.02011 0.06664 0.0
C14 C 0.01236 0.0486 0.07138 0.0
C15 C 0.00149 0.04642 0.08357 0.0
C16 C 0.99602 0.03106 0.08741 0.0
C17 C 0.06725 0.0189 0.03447 0.0
C18 C 0.07115 0.0123 0.01959 0.0
C19 C 0.07649 0.01506 0.04797 0.0
C20 C 0.08934 0.00485 0.04662 0.0
C21 C 0.09317 0.99813 0.03177 0.0
C22 C 0.08392 0.00196 0.01827 0.0
C23 C 0.00173 0.01794 0.07879 0.0
H24 H 0.03881 0.0728 0.97515 0.0
H25 H 0.04236 0.05133 0.99398 0.0
H26 H 0.02908 0.08282 0.03249 0.0
H27 H 0.02483 0.10405 0.01357 0.0
H28 H 0.05977 0.04374 0.01568 0.0
H29 H 0.01732 0.0576 0.03962 0.0
H30 H 0.04438 0.01826 0.05675 0.0
H31 H 0.0167 0.00976 0.06015 0.0
H32 H 0.01642 0.06058 0.06879 0.0
H33 H 0.99723 0.0568 0.08988 0.0
H34 H 0.06418 0.01495 0.00899 0.0
H35 H 0.07386 0.02007 0.05957 0.0
H36 H 0.99788 0.00594 0.08154 0.0
H37 H 0.08665 0.99709 0.00664 0.0
H38 H 0.09616 0.00203 0.05726 0.0
C39 C 0.32819 0.73105 0.25709 0.0
C40 C 0.33742 0.7175 0.2597 0.0
C41 C 0.31421 0.72999 0.24781 0.0
C42 C 0.30906 0.71535 0.24096 0.0
C43 C 0.31828 0.70181 0.24353 0.0
C44 C 0.3323 0.70287 0.25278 0.0
C45 C 0.29402 0.71419 0.23136 0.0
C46 C 0.29021 0.72594 0.22026 0.0
C47 C 0.27594 0.72494 0.21121 0.0
C48 C 0.26539 0.71204 0.21349 0.0
C49 C 0.26902 0.70016 0.22448 0.0
C50 C 0.28336 0.70132 0.23334 0.0
C51 C 0.25785 0.68651 0.22668 0.0
C52 C 0.24143 0.68894 0.22779 0.0
C53 C 0.26356 0.67094 0.22767 0.0
C54 C 0.25307 0.65808 0.22972 0.0
C55 C 0.23662 0.66049 0.23088 0.0
C56 C 0.27221 0.73715 0.19913 0.0
C57 C 0.2754 0.7534 0.20232 0.0
C58 C 0.26553 0.73257 0.1842 0.0
C59 C 0.26218 0.74395 0.17274 0.0
C60 C 0.26546 0.76018 0.17588 0.0
C61 C 0.27208 0.76479 0.19082 0.0
C62 C 0.23093 0.67608 0.2299 0.0
H63 H 0.33164 0.74245 0.26246 0.0
H64 H 0.30725 0.74058 0.24626 0.0
H65 H 0.31474 0.6904 0.23823 0.0
H66 H 0.33923 0.69226 0.25435 0.0
H67 H 0.2986 0.73565 0.21834 0.0
H68 H 0.28603 0.69239 0.24212 0.0
H69 H 0.25433 0.71117 0.20663 0.0
H70 H 0.2367 0.70082 0.22729 0.0
H71 H 0.27614 0.66868 0.22663 0.0
H72 H 0.25783 0.64621 0.23016 0.0
H73 H 0.28034 0.75734 0.21378 0.0
H74 H 0.2632 0.72014 0.18123 0.0
H75 H 0.21838 0.67839 0.231 0.0
H76 H 0.27459 0.77722 0.19366 0.0
H77 H 0.25738 0.73996 0.16124 0.0
C78 C 0.99231 0.47856 0.09715 0.0
C79 C 0.00812 0.47782 0.09217 0.0
C80 C 0.97984 0.47298 0.08722 0.0
C81 C 0.98288 0.46662 0.07201 0.0
C82 C 0.9987 0.46615 0.06691 0.0
C83 C 0.0112 0.47163 0.07692 0.0
C84 C 0.96958 0.46038 0.0616 0.0
C85 C 0.95508 0.46833 0.06089 0.0
C86 C 0.94235 0.46251 0.05122 0.0
C87 C 0.94431 0.44859 0.04199 0.0
C88 C 0.95883 0.44058 0.0424 0.0
C89 C 0.97131 0.44647 0.05236 0.0
C90 C 0.96126 0.42632 0.03212 0.0
C91 C 0.94961 0.41412 0.03067 0.0
C92 C 0.97542 0.42486 0.02369 0.0
C93 C 0.97792 0.41151 0.01404 0.0
C94 C 0.96632 0.39928 0.01258 0.0
C95 C 0.92736 0.47153 0.05034 0.0
C96 C 0.92105 0.47833 0.06421 0.0
C97 C 0.91986 0.47433 0.03556 0.0
C98 C 0.90674 0.48426 0.03461 0.0
C99 C 0.90088 0.4916 0.04841 0.0
C100 C 0.90798 0.48829 0.06325 0.0
C101 C 0.95215 0.40067 0.02104 0.0
H102 H 0.98961 0.483 0.10897 0.0
H103 H 0.96784 0.47328 0.09163 0.0
H104 H 0.00143 0.4616 0.05515 0.0
H105 H 0.02328 0.47103 0.07275 0.0
H106 H 0.95385 0.47941 0.06753 0.0
H107 H 0.98235 0.44004 0.05308 0.0
H108 H 0.93463 0.44413 0.03431 0.0
H109 H 0.93862 0.41488 0.03712 0.0
H110 H 0.98456 0.43414 0.02444 0.0
H111 H 0.98904 0.41071 0.00781 0.0
H112 H 0.9264 0.47616 0.0758 0.0
H113 H 0.92453 0.46941 0.02465 0.0
H114 H 0.94296 0.39147 0.02005 0.0
H115 H 0.90356 0.49356 0.07411 0.0
H116 H 0.90163 0.48672 0.02298 0.0
C117 C 0.71628 0.74284 0.17095 0.0
C118 C 0.73163 0.73792 0.16711 0.0
C119 C 0.71409 0.7537 0.18347 0.0
C120 C 0.72722 0.75997 0.19231 0.0
C121 C 0.74256 0.75499 0.18853 0.0
C122 C 0.74474 0.74401 0.1761 0.0
C123 C 0.7249 0.77191 0.20523 0.0
C124 C 0.71279 0.76972 0.21628 0.0
C125 C 0.71013 0.78122 0.22824 0.0
C126 C 0.71978 0.79509 0.229 0.0
C127 C 0.73201 0.79743 0.21807 0.0
C128 C 0.73453 0.78574 0.20629 0.0
C129 C 0.74192 0.81225 0.21863 0.0
C130 C 0.73482 0.82719 0.22012 0.0
C131 C 0.75853 0.81156 0.21732 0.0
C132 C 0.76785 0.82553 0.21749 0.0
C133 C 0.76074 0.84047 0.21882 0.0
C134 C 0.6972 0.77873 0.23981 0.0
C135 C 0.68234 0.77236 0.23466 0.0
C136 C 0.69963 0.78256 0.25607 0.0
C137 C 0.68748 0.78003 0.26692 0.0
C138 C 0.67262 0.77364 0.26176 0.0
C139 C 0.67022 0.76983 0.2455 0.0
C140 C 0.74413 0.84116 0.22013 0.0
H141 H 0.70595 0.73824 0.16431 0.0
H142 H 0.70214 0.75743 0.18603 0.0
H143 H 0.75288 0.75954 0.19522 0.0
H144 H 0.75671 0.74052 0.17332 0.0
H145 H 0.70559 0.75886 0.21571 0.0
H146 H 0.74367 0.78767 0.19757 0.0
H147 H 0.71773 0.80413 0.23806 0.0
H148 H 0.72204 0.82808 0.22101 0.0
H149 H 0.76433 0.8002 0.21624 0.0
H150 H 0.78062 0.82464 0.21638 0.0
H151 H 0.68001 0.76944 0.2222 0.0
H152 H 0.71098 0.78734 0.26044 0.0
H153 H 0.73834 0.85251 0.22133 0.0
H154 H 0.65899 0.76473 0.24114 0.0
H155 H 0.68967 0.78325 0.27934 0.0
C156 C 0.00911 0.9535 0.40348 0.0
C157 C 0.01581 0.96128 0.39045 0.0
C158 C 0.01823 0.95077 0.41721 0.0
C159 C 0.03428 0.95575 0.41823 0.0
C160 C 0.04116 0.96293 0.40495 0.0
C161 C 0.03203 0.96565 0.3912 0.0
C162 C 0.04346 0.95441 0.43345 0.0
C163 C 0.042 0.94075 0.44279 0.0
C164 C 0.0499 0.93994 0.45767 0.0
C165 C 0.05939 0.95293 0.46314 0.0
C166 C 0.06098 0.96665 0.45398 0.0
C167 C 0.05304 0.96727 0.43913 0.0
C168 C 0.07068 0.98047 0.46006 0.0
C169 C 0.06959 0.98572 0.47598 0.0
C170 C 0.08119 0.98842 0.44999 0.0
C171 C 0.0906 0.0012 0.45577 0.0
C172 C 0.08967 0.00637 0.47175 0.0
C173 C 0.0477 0.9259 0.46793 0.0
C174 C 0.03245 0.91925 0.47001 0.0
C175 C 0.06067 0.91961 0.47641 0.0
C176 C 0.05836 0.90724 0.48709 0.0
C177 C 0.04302 0.90095 0.48954 0.0
C178 C 0.03013 0.90692 0.48071 0.0
C179 C 0.07898 0.99854 0.48177 0.0
H180 H 0.99669 0.94979 0.40317 0.0
H181 H 0.01254 0.94531 0.42726 0.0
H182 H 0.05356 0.96671 0.40531 0.0
H183 H 0.03752 0.97173 0.3814 0.0
H184 H 0.03475 0.93072 0.43845 0.0
H185 H 0.05382 0.97806 0.43228 0.0
H186 H 0.06539 0.95246 0.47467 0.0
H187 H 0.0614 0.97997 0.48395 0.0
H188 H 0.08241 0.98452 0.43771 0.0
H189 H 0.09893 0.00675 0.44781 0.0
H190 H 0.0222 0.92391 0.46374 0.0
H191 H 0.0726 0.92439 0.47493 0.0
H192 H 0.07785 0.00236 0.49408 0.0
H193 H 0.0182 0.90215 0.48218 0.0
H194 H 0.06852 0.90294 0.49377 0.0
C195 C 0.17054 0.71736 0.7398 0.0
C196 C 0.16607 0.73303 0.73657 0.0
C197 C 0.18327 0.71446 0.75026 0.0
C198 C 0.19178 0.72717 0.75776 0.0
C199 C 0.1875 0.74284 0.75429 0.0
C200 C 0.1748 0.74574 0.74381 0.0
C201 C 0.20468 0.72409 0.7696 0.0
C202 C 0.21571 0.71206 0.76685 0.0
C203 C 0.22763 0.70878 0.77827 0.0
C204 C 0.22842 0.71775 0.79259 0.0
C205 C 0.21755 0.7299 0.79546 0.0
C206 C 0.20575 0.73299 0.78391 0.0
C207 C 0.21824 0.73925 0.81061 0.0
C208 C 0.21965 0.7316 0.82531 0.0
C209 C 0.21708 0.75591 0.81046 0.0
C210 C 0.2173 0.76475 0.82471 0.0
C211 C 0.21853 0.7571 0.83943 0.0
C212 C 0.23914 0.69592 0.77526 0.0
C213 C 0.23396 0.68134 0.76827 0.0
C214 C 0.25536 0.69807 0.77935 0.0
C215 C 0.26613 0.68591 0.77655 0.0
C216 C 0.26092 0.67133 0.76959 0.0
C217 C 0.24472 0.6692 0.76547 0.0
C218 C 0.21971 0.74044 0.83959 0.0
H219 H 0.16417 0.70731 0.73427 0.0
H220 H 0.18618 0.70224 0.75278 0.0
H221 H 0.19394 0.75289 0.75974 0.0
H222 H 0.17157 0.75795 0.7417 0.0
H223 H 0.21518 0.70543 0.75566 0.0
H224 H 0.19705 0.74202 0.78632 0.0
H225 H 0.23746 0.71525 0.80155 0.0
H226 H 0.22044 0.71877 0.82578 0.0
H227 H 0.21607 0.76212 0.79929 0.0
H228 H 0.21628 0.77757 0.82423 0.0
H229 H 0.22151 0.67919 0.76522 0.0
H230 H 0.25977 0.70924 0.78453 0.0
H231 H 0.22082 0.73425 0.85076 0.0
H232 H 0.24026 0.65801 0.76036 0.0
H233 H 0.27856 0.68799 0.77969 0.0
C234 C 0.96874 0.60189 0.481 0.0
C235 C 0.96741 0.59873 0.49731 0.0
C236 C 0.96349 0.59067 0.46949 0.0
C237 C 0.95686 0.57599 0.47404 0.0
C238 C 0.95569 0.57276 0.49036 0.0
C239 C 0.96086 0.58401 0.50186 0.0
C240 C 0.95129 0.56402 0.46184 0.0
C241 C 0.96021 0.56122 0.44817 0.0
C242 C 0.95537 0.54952 0.43682 0.0
C243 C 0.94138 0.54053 0.43929 0.0
C244 C 0.93238 0.54309 0.45299 0.0
C245 C 0.93733 0.55499 0.46406 0.0
C246 C 0.91831 0.53283 0.45626 0.0
C247 C 0.90687 0.52903 0.44427 0.0
C248 C 0.91636 0.52664 0.47155 0.0
C249 C 0.90332 0.51681 0.47479 0.0
C250 C 0.89189 0.51294 0.46282 0.0
C251 C 0.96556 0.54614 0.423 0.0
C252 C 0.97285 0.55866 0.41477 0.0
C253 C 0.96888 0.53037 0.41857 0.0
C254 C 0.97961 0.5272 0.40651 0.0
C255 C 0.98729 0.53972 0.39862 0.0
C256 C 0.98359 0.55549 0.40271 0.0
C257 C 0.89372 0.51923 0.44754 0.0
H258 H 0.9739 0.61303 0.47709 0.0
H259 H 0.96446 0.59357 0.45703 0.0
H260 H 0.95086 0.56148 0.49427 0.0
H261 H 0.95948 0.58126 0.51431 0.0
H262 H 0.97133 0.56771 0.44668 0.0
H263 H 0.93022 0.55724 0.47445 0.0
H264 H 0.93768 0.53129 0.43075 0.0
H265 H 0.90803 0.53371 0.4324 0.0
H266 H 0.92506 0.52922 0.481 0.0
H267 H 0.90215 0.51228 0.48672 0.0
H268 H 0.9704 0.57094 0.41781 0.0
H269 H 0.96358 0.52046 0.42476 0.0
H270 H 0.88514 0.51636 0.43807 0.0
H271 H 0.98935 0.5654 0.39692 0.0
H272 H 0.98203 0.51491 0.40346 0.0
C273 C 0.80789 0.77257 0.8572 0.0
C274 C 0.7921 0.76753 0.8596 0.0
C275 C 0.81178 0.78146 0.84387 0.0
C276 C 0.79996 0.78552 0.83266 0.0
C277 C 0.78415 0.78054 0.8351 0.0
C278 C 0.78026 0.77165 0.84842 0.0
C279 C 0.80408 0.79497 0.81851 0.0
C280 C 0.81787 0.79174 0.80995 0.0
C281 C 0.8218 0.80068 0.79655 0.0
C282 C 0.81179 0.81299 0.79178 0.0
C283 C 0.79792 0.81629 0.80012 0.0
C284 C 0.79418 0.80726 0.81348 0.0
C285 C 0.78731 0.82917 0.79491 0.0
C286 C 0.79362 0.84411 0.79075 0.0
C287 C 0.77075 0.82663 0.79424 0.0
C288 C 0.76068 0.83882 0.7897 0.0
C289 C 0.76695 0.85385 0.78578 0.0
C290 C 0.83624 0.79707 0.78738 0.0
C291 C 0.85067 0.7936 0.79523 0.0
C292 C 0.8357 0.79725 0.77064 0.0
C293 C 0.84933 0.79432 0.76196 0.0
C294 C 0.86381 0.79109 0.7698 0.0
C295 C 0.86432 0.7906 0.78652 0.0
C296 C 0.78353 0.85635 0.78628 0.0
H297 H 0.81732 0.76942 0.86548 0.0
H298 H 0.82404 0.78526 0.84242 0.0
H299 H 0.77479 0.78334 0.8266 0.0
H300 H 0.76796 0.76805 0.84999 0.0
H301 H 0.82533 0.78198 0.81348 0.0
H302 H 0.78371 0.81006 0.82021 0.0
H303 H 0.81474 0.82 0.78149 0.0
H304 H 0.80634 0.84643 0.79125 0.0
H305 H 0.76557 0.81518 0.79723 0.0
H306 H 0.74794 0.83659 0.78961 0.0
H307 H 0.85151 0.79352 0.80812 0.0
H308 H 0.8247 0.79954 0.76421 0.0
H309 H 0.78869 0.86778 0.78321 0.0
H310 H 0.87535 0.78823 0.79287 0.0
H311 H 0.84848 0.79445 0.74906 0.0
C312 C 0.31125 0.27286 0.35946 0.0
C313 C 0.29551 0.26843 0.36291 0.0
C314 C 0.31459 0.28145 0.34579 0.0
C315 C 0.30225 0.28579 0.33528 0.0
C316 C 0.28649 0.28151 0.33883 0.0
C317 C 0.28316 0.27294 0.3525 0.0
C318 C 0.30576 0.29458 0.32054 0.0
C319 C 0.31871 0.29037 0.31113 0.0
C320 C 0.32179 0.2984 0.29697 0.0
C321 C 0.31193 0.31086 0.29233 0.0
C322 C 0.29903 0.31527 0.30163 0.0
C323 C 0.29601 0.30707 0.3157 0.0
C324 C 0.2887 0.32847 0.29667 0.0
C325 C 0.2954 0.34287 0.29144 0.0
C326 C 0.27208 0.32679 0.29728 0.0
C327 C 0.26233 0.33929 0.29286 0.0
C328 C 0.26902 0.35377 0.28783 0.0
C329 C 0.33523 0.29376 0.28688 0.0
C330 C 0.35045 0.29159 0.29363 0.0
C331 C 0.33298 0.29197 0.27033 0.0
C332 C 0.34577 0.28853 0.26064 0.0
C333 C 0.36115 0.28694 0.26727 0.0
C334 C 0.36331 0.28825 0.2839 0.0
C335 C 0.28564 0.35543 0.28713 0.0
H336 H 0.32101 0.26971 0.36736 0.0
H337 H 0.32683 0.28478 0.3435 0.0
H338 H 0.27674 0.28447 0.33085 0.0
H339 H 0.27093 0.26947 0.35467 0.0
H340 H 0.32611 0.28053 0.31456 0.0
H341 H 0.28623 0.31065 0.32308 0.0
H342 H 0.31428 0.31712 0.28142 0.0
H343 H 0.30818 0.34453 0.29096 0.0
H344 H 0.2666 0.31577 0.30113 0.0
H345 H 0.24956 0.33773 0.29369 0.0
H346 H 0.35251 0.29299 0.30636 0.0
H347 H 0.3213 0.29328 0.26485 0.0
H348 H 0.2911 0.36643 0.2832 0.0
H349 H 0.37501 0.28723 0.28937 0.0
H350 H 0.34362 0.28722 0.24791 0.0
C351 C 0.48887 0.97944 0.59513 0.0
C352 C 0.50521 0.9782 0.59226 0.0
C353 C 0.47758 0.97371 0.58392 0.0
C354 C 0.48236 0.96667 0.56953 0.0
C355 C 0.49869 0.96573 0.56651 0.0
C356 C 0.51 0.97142 0.57775 0.0
C357 C 0.47031 0.96027 0.55779 0.0
C358 C 0.45636 0.96864 0.55467 0.0
C359 C 0.4448 0.96269 0.5437 0.0
C360 C 0.44743 0.94824 0.53557 0.0
C361 C 0.46138 0.93967 0.53851 0.0
C362 C 0.47267 0.94575 0.54974 0.0
C363 C 0.46432 0.92449 0.52978 0.0
C364 C 0.45193 0.91329 0.52673 0.0
C365 C 0.47963 0.92111 0.52443 0.0
C366 C 0.4825 0.90691 0.51621 0.0
C367 C 0.4701 0.89577 0.513 0.0
C368 C 0.43021 0.97188 0.5406 0.0
C369 C 0.42217 0.97894 0.55333 0.0
C370 C 0.42465 0.9743 0.52495 0.0
C371 C 0.41162 0.984 0.52207 0.0
C372 C 0.40386 0.99143 0.5348 0.0
C373 C 0.40914 0.9886 0.55046 0.0
C374 C 0.45479 0.8991 0.51841 0.0
H375 H 0.48479 0.98476 0.60612 0.0
H376 H 0.46509 0.97452 0.58668 0.0
H377 H 0.50275 0.96057 0.55543 0.0
H378 H 0.5225 0.97014 0.57524 0.0
H379 H 0.45466 0.98007 0.56051 0.0
H380 H 0.4832 0.939 0.55248 0.0
H381 H 0.43865 0.94372 0.52692 0.0
H382 H 0.44003 0.91544 0.53084 0.0
H383 H 0.48942 0.92953 0.52641 0.0
H384 H 0.49448 0.90466 0.51239 0.0
H385 H 0.42607 0.97714 0.56554 0.0
H386 H 0.43066 0.96908 0.5149 0.0
H387 H 0.44493 0.89086 0.516 0.0
H388 H 0.4035 0.99423 0.56052 0.0
H389 H 0.4077 0.98578 0.50987 0.0
C390 C 0.21634 0.23476 0.67172 0.0
C391 C 0.2317 0.23137 0.66652 0.0
C392 C 0.21415 0.24582 0.68406 0.0
C393 C 0.22728 0.25369 0.69154 0.0
C394 C 0.24266 0.25018 0.68643 0.0
C395 C 0.24484 0.23917 0.67403 0.0
C396 C 0.22489 0.26572 0.70443 0.0
C397 C 0.21327 0.26318 0.71595 0.0
C398 C 0.2105 0.27471 0.72785 0.0
C399 C 0.21969 0.28889 0.72825 0.0
C400 C 0.23151 0.29154 0.71695 0.0
C401 C 0.23399 0.27992 0.70509 0.0
C402 C 0.24119 0.30652 0.71734 0.0
C403 C 0.23395 0.32133 0.71932 0.0
C404 C 0.25775 0.30608 0.71552 0.0
C405 C 0.26689 0.32016 0.71572 0.0
C406 C 0.25965 0.33498 0.71761 0.0
C407 C 0.19785 0.27195 0.73968 0.0
C408 C 0.18317 0.26495 0.73486 0.0
C409 C 0.20033 0.27623 0.75584 0.0
C410 C 0.18839 0.27354 0.76689 0.0
C411 C 0.17374 0.26647 0.76204 0.0
C412 C 0.17128 0.26222 0.7459 0.0
C413 C 0.24308 0.33543 0.71938 0.0
H414 H 0.20596 0.22912 0.66601 0.0
H415 H 0.20213 0.24843 0.68751 0.0
H416 H 0.25304 0.25585 0.69209 0.0
H417 H 0.25684 0.23665 0.67043 0.0
H418 H 0.20653 0.25205 0.7158 0.0
H419 H 0.24273 0.28217 0.69605 0.0
H420 H 0.21763 0.2979 0.73732 0.0
H421 H 0.22119 0.32204 0.72062 0.0
H422 H 0.26367 0.29483 0.71407 0.0
H423 H 0.27963 0.31945 0.71423 0.0
H424 H 0.18074 0.26178 0.72247 0.0
H425 H 0.21158 0.28145 0.75999 0.0
H426 H 0.23719 0.34667 0.72102 0.0
H427 H 0.16001 0.25705 0.74172 0.0
H428 H 0.1907 0.27682 0.77927 0.0
C429 C 0.82698 0.23243 0.75957 0.0
C430 C 0.83515 0.21846 0.76324 0.0
C431 C 0.81279 0.23172 0.75057 0.0
C432 C 0.80643 0.21701 0.74497 0.0
C433 C 0.81469 0.20306 0.74849 0.0
C434 C 0.82883 0.20377 0.75754 0.0
C435 C 0.79117 0.21615 0.73565 0.0
C436 C 0.78766 0.22751 0.72404 0.0
C437 C 0.77335 0.22652 0.71504 0.0
C438 C 0.76253 0.21394 0.71775 0.0
C439 C 0.76582 0.20246 0.72927 0.0
C440 C 0.78009 0.20378 0.73825 0.0
C441 C 0.75451 0.18893 0.73179 0.0
C442 C 0.73799 0.19122 0.73154 0.0
C443 C 0.76022 0.17355 0.73441 0.0
C444 C 0.74968 0.1608 0.73679 0.0
C445 C 0.73315 0.16307 0.73651 0.0
C446 C 0.76983 0.23843 0.7026 0.0
C447 C 0.77326 0.25471 0.70537 0.0
C448 C 0.76299 0.23359 0.68783 0.0
C449 C 0.75966 0.24472 0.67611 0.0
C450 C 0.76311 0.26099 0.67885 0.0
C451 C 0.76996 0.26586 0.69362 0.0
C452 C 0.72744 0.17844 0.73385 0.0
H453 H 0.83161 0.24398 0.76356 0.0
H454 H 0.80668 0.24269 0.7482 0.0
H455 H 0.81027 0.19154 0.74418 0.0
H456 H 0.8347 0.19275 0.76025 0.0
H457 H 0.7963 0.23686 0.72165 0.0
H458 H 0.78246 0.19527 0.74752 0.0
H459 H 0.75154 0.21301 0.71078 0.0
H460 H 0.73319 0.20293 0.72972 0.0
H461 H 0.77286 0.1713 0.73447 0.0
H462 H 0.75453 0.14919 0.73902 0.0
H463 H 0.77833 0.25887 0.71669 0.0
H464 H 0.76046 0.22112 0.68518 0.0
H465 H 0.71478 0.18059 0.73338 0.0
H466 H 0.77262 0.27833 0.69616 0.0
H467 H 0.75468 0.24053 0.66476 0.0
C468 C 0.53589 0.57686 0.49377 0.0
C469 C 0.53114 0.59167 0.49989 0.0
C470 C 0.53803 0.56395 0.50385 0.0
C471 C 0.53548 0.56554 0.52031 0.0
C472 C 0.53096 0.58042 0.52645 0.0
C473 C 0.5288 0.59331 0.51637 0.0
C474 C 0.53724 0.55169 0.53101 0.0
C475 C 0.54983 0.54107 0.52917 0.0
C476 C 0.55149 0.52795 0.53922 0.0
C477 C 0.5403 0.52552 0.55121 0.0
C478 C 0.52767 0.536 0.55328 0.0
C479 C 0.52624 0.54903 0.54311 0.0
C480 C 0.51593 0.53334 0.56604 0.0
C481 C 0.50984 0.51798 0.56893 0.0
C482 C 0.51074 0.54616 0.57544 0.0
C483 C 0.49977 0.54368 0.58748 0.0
C484 C 0.49367 0.52832 0.59037 0.0
C485 C 0.56491 0.51679 0.53728 0.0
C486 C 0.56967 0.51189 0.52204 0.0
C487 C 0.57294 0.51081 0.5507 0.0
C488 C 0.58528 0.50005 0.54893 0.0
C489 C 0.58995 0.49503 0.5337 0.0
C490 C 0.58205 0.50115 0.52026 0.0
C491 C 0.49882 0.5155 0.58093 0.0
H492 H 0.53761 0.57513 0.48111 0.0
H493 H 0.54132 0.55261 0.4987 0.0
H494 H 0.52918 0.58216 0.53909 0.0
H495 H 0.52543 0.60463 0.52153 0.0
H496 H 0.55859 0.54326 0.52014 0.0
H497 H 0.51626 0.55689 0.54437 0.0
H498 H 0.54143 0.51542 0.55898 0.0
H499 H 0.51348 0.50787 0.56181 0.0
H500 H 0.51531 0.55813 0.57361 0.0
H501 H 0.49593 0.55384 0.59442 0.0
H502 H 0.56361 0.51609 0.51145 0.0
H503 H 0.5698 0.51456 0.56262 0.0
H504 H 0.49448 0.5035 0.58295 0.0
H505 H 0.58521 0.49738 0.50836 0.0
H506 H 0.5913 0.4958 0.55953 0.0
C507 C 0.51527 0.45178 0.89752 0.0
C508 C 0.52231 0.45836 0.88401 0.0
C509 C 0.52419 0.44975 0.91154 0.0
C510 C 0.54033 0.45436 0.91241 0.0
C511 C 0.54753 0.46045 0.89878 0.0
C512 C 0.53863 0.46239 0.88472 0.0
C513 C 0.54934 0.45375 0.92776 0.0
C514 C 0.54802 0.44042 0.93758 0.0
C515 C 0.556 0.4402 0.95246 0.0
C516 C 0.5652 0.45355 0.95752 0.0
C517 C 0.56656 0.46696 0.9479 0.0
C518 C 0.55872 0.46693 0.93298 0.0
C519 C 0.57607 0.48106 0.95356 0.0
C520 C 0.57469 0.4869 0.96925 0.0
C521 C 0.58684 0.48855 0.94341 0.0
C522 C 0.59635 0.50136 0.94897 0.0
C523 C 0.59522 0.50704 0.96477 0.0
C524 C 0.55439 0.42636 0.96307 0.0
C525 C 0.53941 0.41923 0.96549 0.0
C526 C 0.56769 0.42076 0.97156 0.0
C527 C 0.56596 0.40866 0.98262 0.0
C528 C 0.55089 0.40188 0.98543 0.0
C529 C 0.53767 0.40713 0.97657 0.0
C530 C 0.58414 0.49977 0.97478 0.0
H531 H 0.50268 0.44878 0.89751 0.0
H532 H 0.51827 0.44521 0.92191 0.0
H533 H 0.56002 0.46388 0.89905 0.0
H534 H 0.5445 0.46723 0.87446 0.0
H535 H 0.54093 0.43015 0.93355 0.0
H536 H 0.55943 0.47743 0.92569 0.0
H537 H 0.57121 0.45357 0.96907 0.0
H538 H 0.56629 0.48151 0.97724 0.0
H539 H 0.58825 0.48419 0.93131 0.0
H540 H 0.60495 0.50648 0.94101 0.0
H541 H 0.52891 0.42341 0.95928 0.0
H542 H 0.57943 0.42585 0.96974 0.0
H543 H 0.58281 0.504 0.98694 0.0
H544 H 0.52587 0.40229 0.9786 0.0
H545 H 0.57641 0.40469 0.98906 0.0
C546 C 0.66914 0.217 0.24133 0.0
C547 C 0.66362 0.23252 0.23912 0.0
C548 C 0.68177 0.21421 0.25194 0.0
C549 C 0.68927 0.22688 0.26053 0.0
C550 C 0.68386 0.24241 0.2582 0.0
C551 C 0.67116 0.24519 0.24768 0.0
C552 C 0.70259 0.22391 0.27198 0.0
C553 C 0.71415 0.21262 0.26841 0.0
C554 C 0.72666 0.2096 0.27925 0.0
C555 C 0.72769 0.21829 0.29373 0.0
C556 C 0.71632 0.22975 0.29746 0.0
C557 C 0.70376 0.23235 0.28657 0.0
C558 C 0.71751 0.23908 0.31268 0.0
C559 C 0.72186 0.23177 0.32702 0.0
C560 C 0.71427 0.25545 0.31294 0.0
C561 C 0.71536 0.26428 0.32718 0.0
C562 C 0.71977 0.25699 0.34151 0.0
C563 C 0.73853 0.19726 0.27546 0.0
C564 C 0.73362 0.18274 0.26817 0.0
C565 C 0.75479 0.19982 0.27912 0.0
C566 C 0.76585 0.18809 0.27567 0.0
C567 C 0.7609 0.17353 0.26846 0.0
C568 C 0.74466 0.17105 0.26468 0.0
C569 C 0.723 0.24063 0.34128 0.0
H570 H 0.66375 0.20698 0.2348 0.0
H571 H 0.68552 0.20208 0.25356 0.0
H572 H 0.68948 0.25248 0.26445 0.0
H573 H 0.66712 0.25727 0.24644 0.0
H574 H 0.7136 0.20638 0.257 0.0
H575 H 0.69464 0.24073 0.28964 0.0
H576 H 0.73734 0.21611 0.30212 0.0
H577 H 0.72419 0.21915 0.32729 0.0
H578 H 0.71115 0.26151 0.30207 0.0
H579 H 0.71307 0.27692 0.32691 0.0
H580 H 0.72117 0.18029 0.26534 0.0
H581 H 0.75901 0.21094 0.28457 0.0
H582 H 0.72624 0.23463 0.35215 0.0
H583 H 0.74045 0.16006 0.25895 0.0
H584 H 0.77824 0.19035 0.27888 0.0
C585 C 0.46882 0.10156 0.98433 0.0
C586 C 0.46704 0.09937 0.00076 0.0
C587 C 0.46452 0.08942 0.97341 0.0
C588 C 0.45836 0.07481 0.97871 0.0
C589 C 0.45666 0.0726 0.99515 0.0
C590 C 0.46093 0.08475 0.00605 0.0
C591 C 0.45391 0.06181 0.96718 0.0
C592 C 0.4637 0.05836 0.95431 0.0
C593 C 0.46001 0.04554 0.94386 0.0
C594 C 0.44632 0.03613 0.94629 0.0
C595 C 0.43622 0.03959 0.95897 0.0
C596 C 0.44009 0.05251 0.96929 0.0
C597 C 0.42175 0.02964 0.96171 0.0
C598 C 0.41186 0.02435 0.9489 0.0
C599 C 0.41764 0.02555 0.97728 0.0
C600 C 0.40392 0.01647 0.97999 0.0
C601 C 0.39401 0.01116 0.96721 0.0
C602 C 0.47095 0.04173 0.93085 0.0
C603 C 0.47578 0.05361 0.92032 0.0
C604 C 0.4773 0.02646 0.92945 0.0
C605 C 0.48866 0.02325 0.91798 0.0
C606 C 0.49362 0.03518 0.90756 0.0
C607 C 0.48692 0.05032 0.90866 0.0
C608 C 0.39813 0.01521 0.95162 0.0
H609 H 0.47327 0.11279 0.97988 0.0
H610 H 0.46579 0.09155 0.96081 0.0
H611 H 0.45223 0.06138 -0.00037 0.0
H612 H 0.45962 0.08264 0.01866 0.0
H613 H 0.47457 0.06526 0.95273 0.0
H614 H 0.43222 0.05547 0.97891 0.0
H615 H 0.44365 0.02606 0.93837 0.0
H616 H 0.41463 0.02742 0.93678 0.0
H617 H 0.42509 0.02926 0.9874 0.0
H618 H 0.40103 0.01372 0.99216 0.0
H619 H 0.47101 0.06547 0.92119 0.0
H620 H 0.47383 0.01716 0.93753 0.0
H621 H 0.39084 0.01116 0.94149 0.0
H622 H 0.49061 0.05971 0.90079 0.0
H623 H 0.4936 0.01145 0.91726 0.0
Zn624 Zn 0.27624 0.85696 0.00472 0.0
Zn625 Zn 0.24917 0.87268 0.0078 0.0
O626 O 0.25189 0.86169 0.02963 0.0
O627 O 0.27472 0.84957 0.02726 0.0
O628 O 0.22905 0.88536 0.00979 0.0
O629 O 0.2881 0.87712 -0.00017 0.0
O630 O 0.26593 0.89021 0.00283 0.0
C631 C 0.2628 0.85305 0.0355 0.0
C632 C 0.25212 0.84637 0.98208 0.0
O633 O 0.24402 0.85707 0.98895 0.0
O634 O 0.26625 0.84389 0.98677 0.0
C635 C 0.22585 0.89294 0.02253 0.0
O636 O 0.23567 0.89219 0.03488 0.0
C637 C 0.28073 0.8901 -0.00021 0.0
Zn638 Zn 0.10882 0.46417 0.26096 0.0
Zn639 Zn 0.12528 0.492 0.25872 0.0
O640 O 0.11003 0.49655 0.27699 0.0
O641 O 0.09664 0.47391 0.27901 0.0
O642 O 0.13818 0.51232 0.25709 0.0
O643 O 0.12923 0.45277 0.26547 0.0
O644 O 0.14246 0.47544 0.26305 0.0
C645 C 0.09933 0.48817 0.28361 0.0
C646 C 0.10481 0.47914 0.23053 0.0
O647 O 0.11405 0.48974 0.23689 0.0
O648 O 0.10092 0.4669 0.23827 0.0
C649 C 0.13265 0.52453 0.25036 0.0
O650 O 0.11801 0.524 0.24454 0.0
C651 C 0.14229 0.46052 0.26553 0.0
Zn652 Zn 0.76438 0.60918 0.97208 0.0
Zn653 Zn 0.75874 0.62571 0.99925 0.0
O654 O 0.77767 0.61176 0.00545 0.0
O655 O 0.78268 0.59858 0.98326 0.0
O656 O 0.7546 0.63862 0.01913 0.0
O657 O 0.76811 0.62971 0.96066 0.0
O658 O 0.76334 0.64301 0.98281 0.0
C659 C 0.78585 0.60167 0.99782 0.0
C660 C 0.73314 0.60321 0.98457 0.0
O661 O 0.73788 0.61308 0.99542 0.0
O662 O 0.7422 0.59962 0.97324 0.0
C663 C 0.75665 0.63327 0.03308 0.0
O664 O 0.76165 0.61867 0.03482 0.0
C665 C 0.76687 0.64284 0.96812 0.0
Zn666 Zn 0.8613 0.00634 0.2758 0.0
Zn667 Zn 0.87669 0.00933 0.2483 0.0
O668 O 0.86524 0.03082 0.25091 0.0
O669 O 0.85307 0.02849 0.27374 0.0
O670 O 0.88955 0.01237 0.22837 0.0
O671 O 0.88184 0.00284 0.28769 0.0
O672 O 0.8944 0.00498 0.26508 0.0
C673 C 0.85645 0.03663 0.26168 0.0
C674 C 0.85135 0.98284 0.25199 0.0
O675 O 0.8616 0.98998 0.24353 0.0
O676 O 0.84903 0.9876 0.26614 0.0
C677 C 0.88654 0.00592 0.21479 0.0
O678 O 0.87396 0.99651 0.21289 0.0
C679 C 0.89466 0.00272 0.28007 0.0
Zn680 Zn 0.25618 0.1074 0.46758 0.0
Zn681 Zn 0.25476 0.12277 0.49603 0.0
O682 O 0.27321 0.10743 0.49945 0.0
O683 O 0.27471 0.09503 0.47622 0.0
O684 O 0.25379 0.13486 0.51689 0.0
O685 O 0.25982 0.12832 0.45678 0.0
O686 O 0.25872 0.14064 0.48007 0.0
C687 C 0.27969 0.09716 0.49046 0.0
C688 C 0.22636 0.10255 0.48318 0.0
O689 O 0.23287 0.11157 0.49391 0.0
O690 O 0.23384 0.09906 0.47069 0.0
C691 C 0.24721 0.12904 0.52904 0.0
O692 O 0.24102 0.11457 0.52811 0.0
C693 C 0.2604 0.14108 0.46503 0.0
Zn694 Zn 0.3596 0.49962 0.77844 0.0
Zn695 Zn 0.37427 0.50415 0.75072 0.0
O696 O 0.36211 0.5251 0.75415 0.0
O697 O 0.35041 0.52147 0.77706 0.0
O698 O 0.38674 0.50815 0.73073 0.0
O699 O 0.3805 0.49647 0.78985 0.0
O700 O 0.39239 0.49999 0.76706 0.0
C701 C 0.35321 0.53014 0.76521 0.0
C702 C 0.34993 0.47667 0.754 0.0
O703 O 0.35969 0.4845 0.74557 0.0
O704 O 0.34784 0.48078 0.76838 0.0
C705 C 0.38348 0.50232 0.71693 0.0
O706 O 0.37082 0.49306 0.71481 0.0
C707 C 0.39312 0.49716 0.78193 0.0
Zn708 Zn 0.77682 0.35826 0.50862 0.0
Zn709 Zn 0.74947 0.37383 0.51046 0.0
O710 O 0.7513 0.36255 0.53231 0.0
O711 O 0.77401 0.35011 0.53066 0.0
O712 O 0.72955 0.38697 0.51177 0.0
O713 O 0.78913 0.3786 0.50539 0.0
O714 O 0.76652 0.3913 0.50633 0.0
C715 C 0.76181 0.35361 0.53845 0.0
C716 C 0.75373 0.34818 0.48447 0.0
O717 O 0.74514 0.3586 0.49116 0.0
O718 O 0.76769 0.34581 0.48975 0.0
C719 C 0.71791 0.38412 0.5208 0.0
O720 O 0.71823 0.37156 0.5299 0.0
C721 C 0.78157 0.39145 0.50468 0.0
Zn722 Zn 0.6057 0.96546 0.75892 0.0
Zn723 Zn 0.62305 0.99278 0.7583 0.0
O724 O 0.60864 0.99636 0.7775 0.0
O725 O 0.59361 0.97458 0.77733 0.0
O726 O 0.63648 0.01283 0.75731 0.0
O727 O 0.62575 0.95324 0.76283 0.0
O728 O 0.63979 0.97552 0.76121 0.0
C729 C 0.59735 0.98812 0.78332 0.0
C730 C 0.60212 0.98206 0.7295 0.0
O731 O 0.61138 0.99224 0.73654 0.0
O732 O 0.59814 0.96937 0.73643 0.0
C733 C 0.63097 0.02659 0.75992 0.0
O734 O 0.61597 0.02794 0.7637 0.0
C735 C 0.6391 0.96049 0.76299 0.0
Zn736 Zn 0.00244 0.27927 0.85909 0.0
Zn737 Zn 0.00616 0.25255 0.87542 0.0
O738 O 0.02724 0.25482 0.86314 0.0
O739 O 0.02405 0.2769 0.84982 0.0
O740 O 0.00954 0.23307 0.88884 0.0
O741 O -1e-05 0.29202 0.87927 0.0
O742 O 0.00235 0.26989 0.89268 0.0
C743 C 0.03249 0.26515 0.85349 0.0
C744 C 0.97872 0.25514 0.85088 0.0
O745 O 0.98634 0.24705 0.86114 0.0
O746 O 0.98323 0.26924 0.84796 0.0
C747 C 0.00687 0.21881 0.88402 0.0
O748 O 0.00158 0.21616 0.86936 0.0
C749 C 0.00024 0.28487 0.89242 0.0
Zn750 Zn 0.50252 0.77643 0.35998 0.0
Zn751 Zn 0.50674 0.74945 0.37552 0.0
O752 O 0.52805 0.75305 0.36393 0.0
O753 O 0.52491 0.77605 0.35225 0.0
O754 O 0.51049 0.72927 0.38777 0.0
O755 O 0.49749 0.7879 0.38036 0.0
O756 O 0.50199 0.76589 0.39339 0.0
C757 C 0.53349 0.76426 0.35541 0.0
C758 C 0.48023 0.75177 0.34988 0.0
O759 O 0.48732 0.74387 0.36067 0.0
O760 O 0.48481 0.76587 0.34705 0.0
C761 C 0.50086 0.72485 0.39838 0.0
O762 O 0.48821 0.73338 0.40099 0.0
C763 C 0.49827 0.78054 0.39336 0.0
Zn764 Zn 0.96888 0.76145 0.60954 0.0
Zn765 Zn 0.99728 0.75701 0.6242 0.0
O766 O 0.00193 0.77583 0.60963 0.0
O767 O 0.97885 0.77961 0.59754 0.0
O768 O 0.01823 0.75354 0.63543 0.0
O769 O 0.95903 0.76521 0.63089 0.0
O770 O 0.98221 0.76132 0.64271 0.0
C771 C 0.99342 0.78338 0.59967 0.0
C772 C 0.98167 0.73053 0.60326 0.0
O773 O 0.99317 0.73591 0.61204 0.0
O774 O 0.9697 0.73906 0.6005 0.0
C775 C 0.02481 0.76459 0.6439 0.0
O776 O 0.0178 0.77839 0.64508 0.0
C777 C 0.96745 0.76433 0.64352 0.0
Zn778 Zn 0.47081 0.27028 0.10727 0.0
Zn779 Zn 0.49854 0.26304 0.12223 0.0
O780 O 0.50465 0.2822 0.10854 0.0
O781 O 0.48211 0.28846 0.09661 0.0
O782 O 0.51879 0.25769 0.13407 0.0
O783 O 0.46071 0.27379 0.12853 0.0
O784 O 0.48315 0.26727 0.14048 0.0
C785 C 0.49686 0.29098 0.09904 0.0
C786 C 0.48196 0.23884 0.09947 0.0
O787 O 0.49345 0.24289 0.10892 0.0
O788 O 0.4707 0.24834 0.09693 0.0
C789 C 0.52898 0.26834 0.13851 0.0
O790 O 0.52641 0.28328 0.13508 0.0
C791 C 0.46871 0.27148 0.1412 0.0
H792 H 0.20188 0.75108 0.86638 0.0
H793 H 0.20252 0.76651 0.89144 0.0
H794 H 0.23655 0.79942 0.87174 0.0
H795 H 0.23569 0.78426 0.84663 0.0
H796 H 0.22649 0.77196 0.91165 0.0
H797 H 0.20573 0.82995 0.89044 0.0
H798 H 0.20393 0.812 0.87835 0.0
H799 H 0.22232 0.82341 0.87918 0.0
C800 C 0.20943 0.76166 0.8674 0.0
C801 C 0.21869 0.76652 0.85454 0.0
C802 C 0.20973 0.7705 0.88168 0.0
C803 C 0.21932 0.78433 0.88337 0.0
C804 C 0.22865 0.78911 0.87056 0.0
H805 H 0.26733 0.82452 0.96393 0.0
H806 H 0.25685 0.8092 0.94111 0.0
C807 C 0.22824 0.78038 0.85625 0.0
C808 C 0.22052 0.79313 0.89885 0.0
H809 H 0.22079 0.83056 0.91538 0.0
C810 C 0.22497 0.78474 0.91251 0.0
C811 C 0.21819 0.80974 0.90011 0.0
C812 C 0.2121 0.81925 0.88626 0.0
C813 C 0.2281 0.79264 0.92712 0.0
C814 C 0.22718 0.80943 0.928 0.0
C815 C 0.22175 0.81771 0.91463 0.0
C816 C 0.23314 0.81867 0.94219 0.0
C817 C 0.23261 0.78292 0.94142 0.0
C818 C 0.22343 0.82952 0.95012 0.0
C819 C 0.22948 0.83853 0.96319 0.0
C820 C 0.24535 0.83685 0.96844 0.0
C821 C 0.255 0.82603 0.96035 0.0
C822 C 0.249 0.81714 0.94733 0.0
H823 H 0.22739 0.77068 0.94042 0.0
H824 H 0.24574 0.78186 0.94209 0.0
H825 H 0.22861 0.78857 0.95266 0.0
H826 H 0.21119 0.831 0.94622 0.0
H827 H 0.22175 0.8468 0.96912 0.0
H828 H 0.99178 0.55436 0.37005 0.0
H829 H 0.01205 0.54862 0.35035 0.0
H830 H 0.03044 0.51162 0.38011 0.0
H831 H 0.0106 0.51759 0.40007 0.0
H832 H 0.0542 0.53166 0.36719 0.0
H833 H 0.01059 0.50869 0.32113 0.0
H834 H 0.00711 0.52837 0.32884 0.0
H835 H 0.00541 0.51161 0.34171 0.0
C836 C 0.00022 0.54509 0.37246 0.0
C837 C 0.99948 0.53633 0.38656 0.0
C838 C 0.01171 0.54176 0.36114 0.0
C839 C 0.0226 0.52958 0.36372 0.0
C840 C 0.02209 0.52103 0.37789 0.0
H841 H 0.07688 0.47295 0.30103 0.0
H842 H 0.0592 0.48454 0.32049 0.0
C843 C 0.01064 0.52434 0.3892 0.0
C844 C 0.03434 0.5254 0.35154 0.0
H845 H 0.03759 0.50908 0.31429 0.0
C846 C 0.05061 0.52684 0.35556 0.0
C847 C 0.02956 0.51901 0.33647 0.0
C848 C 0.01223 0.51668 0.33175 0.0
C849 C 0.06225 0.52178 0.34496 0.0
C850 C 0.05744 0.51528 0.32994 0.0
C851 C 0.0412 0.51414 0.32581 0.0
C852 C 0.06893 0.50845 0.31875 0.0
C853 C 0.07955 0.52285 0.35011 0.0
C854 C 0.08037 0.51807 0.31141 0.0
C855 C 0.09058 0.51146 0.30025 0.0
C856 C 0.08942 0.49515 0.29621 0.0
C857 C 0.07809 0.48555 0.30381 0.0
C858 C 0.06795 0.49215 0.31494 0.0
H859 H 0.08105 0.52547 0.36308 0.0
H860 H 0.08561 0.51156 0.34726 0.0
H861 H 0.08555 0.53253 0.34355 0.0
H862 H 0.08115 0.53073 0.31406 0.0
H863 H 0.09913 0.51919 0.29455 0.0
H864 H 0.77216 0.74148 0.86006 0.0
H865 H 0.76686 0.72414 0.88244 0.0
H866 H 0.79788 0.75346 0.91279 0.0
H867 H 0.80316 0.77101 0.89044 0.0
H868 H 0.80492 0.72164 0.91355 0.0
H869 H 0.74052 0.72973 0.92241 0.0
H870 H 0.74502 0.72531 0.90202 0.0
H871 H 0.75251 0.74352 0.91126 0.0
C872 C 0.77758 0.74446 0.87158 0.0
C873 C 0.78808 0.75762 0.87347 0.0
C874 C 0.7745 0.73456 0.88437 0.0
C875 C 0.78178 0.73767 0.89933 0.0
C876 C 0.79207 0.75093 0.90135 0.0
H877 H 0.76164 0.67337 0.97872 0.0
H878 H 0.76581 0.69809 0.96406 0.0
C879 C 0.79516 0.76086 0.88855 0.0
C880 C 0.77979 0.72619 0.91233 0.0
H881 H 0.75169 0.70575 0.93296 0.0
C882 C 0.79331 0.71837 0.91802 0.0
C883 C 0.76467 0.72208 0.91829 0.0
C884 C 0.74987 0.73072 0.9133 0.0
C885 C 0.792 0.70588 0.92878 0.0
C886 C 0.77676 0.70101 0.93382 0.0
C887 C 0.76334 0.70944 0.92892 0.0
C888 C 0.77444 0.6863 0.94293 0.0
C889 C 0.80687 0.69768 0.93434 0.0
C890 C 0.77775 0.67158 0.93577 0.0
C891 C 0.77532 0.65752 0.94401 0.0
C892 C 0.76952 0.65789 0.9596 0.0
C893 C 0.76618 0.67269 0.96676 0.0
C894 C 0.76853 0.6868 0.95842 0.0
H895 H 0.81762 0.70542 0.93306 0.0
H896 H 0.806 0.69417 0.94699 0.0
H897 H 0.80843 0.68673 0.927 0.0
H898 H 0.78208 0.67096 0.92372 0.0
H899 H 0.778 0.64635 0.93812 0.0
H900 H 0.02256 0.95926 0.35859 0.0
H901 H 0.00586 0.96779 0.33605 0.0
H902 H 0.9695 0.98174 0.36864 0.0
H903 H 0.98613 0.97364 0.39111 0.0
H904 H 0.97421 0.95714 0.3272 0.0
H905 H 0.97692 0.02167 0.34171 0.0
H906 H 0.99098 0.00784 0.34988 0.0
H907 H 0.97168 0.00984 0.35848 0.0
C908 C 0.01104 0.96424 0.36092 0.0
C909 C 0.00565 0.96577 0.37663 0.0
C910 C 0.00152 0.96905 0.34805 0.0
C911 C 0.98659 0.97563 0.35073 0.0
C912 C 0.98112 0.97695 0.36635 0.0
H913 H 0.89939 0.00119 0.31217 0.0
H914 H 0.92386 0.99523 0.32672 0.0
C915 C 0.99056 0.97212 0.37917 0.0
C916 C 0.97634 0.98082 0.33734 0.0
H917 H 0.9549 0.0125 0.32488 0.0
C918 C 0.97024 0.96931 0.32641 0.0
C919 C 0.97132 0.99674 0.33629 0.0
C920 C 0.97819 0.00977 0.34712 0.0
C921 C 0.9583 0.97309 0.31521 0.0
C922 C 0.95251 0.98877 0.31494 0.0
C923 C 0.95934 0.00047 0.3252 0.0
C924 C 0.93804 0.99275 0.30567 0.0
C925 C 0.95121 0.96012 0.30445 0.0
C926 C 0.938 0.99349 0.28898 0.0
C927 C 0.92396 0.99697 0.28055 0.0
C928 C 0.90979 -0.00033 0.28873 0.0
C929 C 0.91004 0.9991 0.30547 0.0
C930 C 0.92402 0.99573 0.31383 0.0
H931 H 0.95619 0.94827 0.30704 0.0
H932 H 0.9381 0.95946 0.30575 0.0
H933 H 0.95361 0.96295 0.29185 0.0
H934 H 0.94878 0.99135 0.28251 0.0
H935 H 0.92415 0.99733 0.26767 0.0
H936 H 0.21691 0.20238 0.66137 0.0
H937 H 0.22023 0.18385 0.6389 0.0
H938 H 0.25462 0.21612 0.61884 0.0
H939 H 0.25144 0.23463 0.64129 0.0
H940 H 0.21457 0.18882 0.60719 0.0
H941 H 0.27795 0.17435 0.61761 0.0
H942 H 0.26627 0.18423 0.63246 0.0
H943 H 0.27464 0.19533 0.61642 0.0
C944 C 0.22519 0.20551 0.65217 0.0
C945 C 0.23397 0.21993 0.65313 0.0
C946 C 0.22712 0.1949 0.63939 0.0
C947 C 0.23787 0.19849 0.62734 0.0
C948 C 0.24658 0.21291 0.62822 0.0
H949 H 0.26049 0.15848 0.53551 0.0
H950 H 0.25803 0.17474 0.55975 0.0
C951 C 0.24472 0.22349 0.64104 0.0
C952 C 0.23947 0.18747 0.61351 0.0
H953 H 0.26644 0.16626 0.59245 0.0
C954 C 0.22588 0.18377 0.60405 0.0
C955 C 0.25424 0.18089 0.60944 0.0
C956 C 0.26907 0.18376 0.6196 0.0
C957 C 0.22674 0.17399 0.59038 0.0
C958 C 0.24156 0.16765 0.58619 0.0
C959 C 0.25511 0.17121 0.59571 0.0
C960 C 0.24326 0.15755 0.57174 0.0
C961 C 0.21191 0.17085 0.58028 0.0
C962 C 0.23595 0.14241 0.5706 0.0
C963 C 0.23737 0.13305 0.55679 0.0
C964 C 0.24612 0.1387 0.54388 0.0
C965 C 0.25362 0.1538 0.54519 0.0
C966 C 0.25225 0.1631 0.55903 0.0
H967 H 0.20223 0.17908 0.58339 0.0
H968 H 0.2145 0.17206 0.56744 0.0
H969 H 0.20757 0.15848 0.58215 0.0
H970 H 0.22914 0.13784 0.58039 0.0
H971 H 0.23148 0.12146 0.55618 0.0
H972 H 0.49401 0.54149 0.62047 0.0
H973 H 0.47484 0.53705 0.64154 0.0
H974 H 0.44773 0.50488 0.61039 0.0
H975 H 0.46684 0.50925 0.58925 0.0
H976 H 0.44242 0.54256 0.64164 0.0
H977 H 0.45413 0.47845 0.65021 0.0
H978 H 0.46722 0.49127 0.63919 0.0
H979 H 0.44911 0.48345 0.63003 0.0
C980 C 0.48393 0.53352 0.61807 0.0
C981 C 0.482 0.52567 0.60319 0.0
C982 C 0.47302 0.53095 0.63015 0.0
C983 C 0.45999 0.52044 0.62763 0.0
C984 C 0.4579 0.51274 0.61273 0.0
H985 H 0.38112 0.49045 0.68634 0.0
H986 H 0.39925 0.49535 0.66445 0.0
C987 C 0.46883 0.51527 0.60066 0.0
C988 C 0.44845 0.51778 0.6405 0.0
H989 H 0.43221 0.48907 0.66385 0.0
C990 C 0.44022 0.53088 0.64654 0.0
C991 C 0.44559 0.50252 0.64686 0.0
C992 C 0.45457 0.48813 0.64136 0.0
C993 C 0.42906 0.52909 0.65862 0.0
C994 C 0.42621 0.51384 0.66499 0.0
C995 C 0.43438 0.50074 0.65891 0.0
C996 C 0.41502 0.51126 0.67816 0.0
C997 C 0.4202 0.5435 0.6643 0.0
C998 C 0.41793 0.5185 0.69316 0.0
C999 C 0.40761 0.51571 0.70569 0.0
C1000 C 0.39419 0.50558 0.7035 0.0
C1001 C 0.3913 0.49836 0.68844 0.0
C1002 C 0.40166 0.50112 0.67591 0.0
H1003 H 0.42069 0.55327 0.65557 0.0
H1004 H 0.40754 0.5404 0.66648 0.0
H1005 H 0.4257 0.548 0.67568 0.0
H1006 H 0.42833 0.52613 0.69523 0.0
H1007 H 0.41025 0.52142 0.71714 0.0
H1008 H 0.73695 0.26258 0.65897 0.0
H1009 H 0.73297 0.2804 0.63652 0.0
H1010 H 0.77814 0.30366 0.6475 0.0
H1011 H 0.78226 0.28586 0.66992 0.0
H1012 H 0.75308 0.32491 0.63888 0.0
H1013 H 0.75891 0.27443 0.59571 0.0
H1014 H 0.7439 0.27196 0.61042 0.0
H1015 H 0.76452 0.27293 0.61648 0.0
C1016 C 0.74603 0.2715 0.65661 0.0
C1017 C 0.76001 0.27269 0.66612 0.0
C1018 C 0.74371 0.2817 0.64383 0.0
C1019 C 0.75535 0.2932 0.64024 0.0
C1020 C 0.769 0.29487 0.65009 0.0
H1021 H 0.78336 0.33646 0.55515 0.0
H1022 H 0.77984 0.3231 0.58032 0.0
C1023 C 0.77132 0.2847 0.66291 0.0
C1024 C 0.7539 0.30277 0.62564 0.0
H1025 H 0.75464 0.2997 0.58507 0.0
C1026 C 0.75324 0.31943 0.6271 0.0
C1027 C 0.75425 0.29554 0.61031 0.0
C1028 C 0.75556 0.27775 0.60804 0.0
C1029 C 0.75322 0.32907 0.61357 0.0
C1030 C 0.7538 0.32182 0.59828 0.0
C1031 C 0.75407 0.30517 0.59684 0.0
C1032 C 0.75588 0.33119 0.58368 0.0
C1033 C 0.75325 0.34693 0.61566 0.0
C1034 C 0.74358 0.34037 0.5773 0.0
C1035 C 0.74553 0.3481 0.56276 0.0
C1036 C 0.7598 0.34667 0.55442 0.0
C1037 C 0.77217 0.33777 0.56115 0.0
C1038 C 0.77021 0.33011 0.57557 0.0
H1039 H 0.75451 0.35072 0.62838 0.0
H1040 H 0.76312 0.3524 0.60893 0.0
H1041 H 0.74192 0.3516 0.61078 0.0
H1042 H 0.73236 0.3412 0.58333 0.0
H1043 H 0.73577 0.35483 0.55788 0.0
H1044 H 0.53373 0.99409 0.58848 0.0
H1045 H 0.55405 0.00059 0.60913 0.0
H1046 H 0.52397 0.98003 0.64465 0.0
H1047 H 0.50381 0.97334 0.62422 0.0
H1048 H 0.53897 0.01017 0.65361 0.0
H1049 H 0.58114 0.96542 0.63027 0.0
H1050 H 0.57376 0.98012 0.61678 0.0
H1051 H 0.56041 0.96522 0.62421 0.0
C1052 C 0.53147 0.99096 0.6007 0.0
C1053 C 0.51717 0.98316 0.60471 0.0
C1054 C 0.54305 0.99473 0.61246 0.0
C1055 C 0.5405 0.9907 0.62835 0.0
C1056 C 0.5261 0.98332 0.63243 0.0
H1057 H 0.5848 0.96147 0.71035 0.0
H1058 H 0.57262 0.96659 0.68444 0.0
C1059 C 0.51456 0.97955 0.62074 0.0
C1060 C 0.55299 0.99326 0.64083 0.0
H1061 H 0.58714 0.97704 0.65528 0.0
C1062 C 0.54973 0.00325 0.65387 0.0
C1063 C 0.56694 0.98413 0.64104 0.0
C1064 C 0.57084 0.97304 0.6274 0.0
C1065 C 0.55955 0.0036 0.66759 0.0
C1066 C 0.573 0.99379 0.66815 0.0
C1067 C 0.57683 0.98458 0.65471 0.0
C1068 C 0.58158 0.99085 0.68331 0.0
C1069 C 0.55486 0.01353 0.68182 0.0
C1070 C 0.59085 0.00277 0.69115 0.0
C1071 C 0.59786 -0.00011 0.70608 0.0
C1072 C 0.59564 0.98505 0.71334 0.0
C1073 C 0.58668 0.97306 0.70518 0.0
C1074 C 0.57976 0.97593 0.69032 0.0
H1075 H 0.54323 0.01933 0.6799 0.0
H1076 H 0.55414 0.00603 0.69255 0.0
H1077 H 0.56406 0.02296 0.68427 0.0
H1078 H 0.59247 0.01432 0.68582 0.0
H1079 H 0.60475 0.00935 0.71204 0.0
H1080 H 0.86206 0.20099 0.75926 0.0
H1081 H 0.88675 0.20241 0.77517 0.0
H1082 H 0.8673 0.23954 0.80457 0.0
H1083 H 0.84233 0.23766 0.78925 0.0
H1084 H 0.9071 0.22694 0.7787 0.0
H1085 H 0.88534 0.2108 0.83805 0.0
H1086 H 0.87349 0.20761 0.82004 0.0
H1087 H 0.87432 0.22688 0.82982 0.0
C1088 C 0.8629 0.20923 0.76932 0.0
C1089 C 0.85016 0.21918 0.77298 0.0
C1090 C 0.87706 0.21008 0.77835 0.0
C1091 C 0.87879 0.22087 0.79126 0.0
C1092 C 0.86612 0.23083 0.79493 0.0
H1093 H 0.95975 0.27002 0.82935 0.0
H1094 H 0.93642 0.25932 0.81496 0.0
C1095 C 0.85193 0.22993 0.78597 0.0
C1096 C 0.89419 0.22257 0.80015 0.0
H1097 H 0.91062 0.22499 0.83771 0.0
C1098 C 0.9079 0.22626 0.79159 0.0
C1099 C 0.89535 0.22137 0.81694 0.0
C1100 C 0.88136 0.21627 0.82672 0.0
C1101 C 0.9225 0.22968 0.79941 0.0
C1102 C 0.92334 0.22975 0.81627 0.0
C1103 C 0.90989 0.22514 0.8248 0.0
C1104 C 0.93763 0.23591 0.82518 0.0
C1105 C 0.93685 0.23343 0.78955 0.0
C1106 C 0.94582 0.22643 0.83614 0.0
C1107 C 0.95922 0.23258 0.84457 0.0
C1108 C 0.96454 0.24834 0.84222 0.0
C1109 C 0.95611 0.25779 0.83138 0.0
C1110 C 0.9428 0.25167 0.82304 0.0
H1111 H 0.93569 0.22784 0.77747 0.0
H1112 H 0.93789 0.24651 0.78806 0.0
H1113 H 0.94796 0.22929 0.79538 0.0
H1114 H 0.94191 0.21427 0.83807 0.0
H1115 H 0.96541 0.22501 0.85286 0.0
H1116 H 0.45805 0.86559 0.51769 0.0
H1117 H 0.46261 0.84151 0.50163 0.0
H1118 H 0.49347 0.8684 0.47128 0.0
H1119 H 0.48878 0.89247 0.48695 0.0
H1120 H 0.45586 0.83721 0.46887 0.0
H1121 H 0.51992 0.82923 0.48218 0.0
H1122 H 0.50748 0.84145 0.49448 0.0
H1123 H 0.51555 0.84918 0.47643 0.0
C1124 C 0.46579 0.86637 0.50758 0.0
C1125 C 0.47312 0.88096 0.50366 0.0
C1126 C 0.46847 0.85259 0.49851 0.0
C1127 C 0.47863 0.85313 0.48549 0.0
C1128 C 0.48594 0.86764 0.48156 0.0
H1129 H 0.4857 0.80998 0.39642 0.0
H1130 H 0.47996 0.82461 0.42081 0.0
C1131 C 0.48323 0.8814 0.49054 0.0
C1132 C 0.48082 0.8389 0.47518 0.0
H1133 H 0.5096 0.81688 0.45777 0.0
C1134 C 0.46756 0.83252 0.46669 0.0
C1135 C 0.49604 0.83262 0.47253 0.0
C1136 C 0.51054 0.83836 0.48202 0.0
C1137 C 0.46931 0.82084 0.45474 0.0
C1138 C 0.48472 0.81558 0.45114 0.0
C1139 C 0.49782 0.82107 0.46046 0.0
C1140 C 0.48767 0.80605 0.43657 0.0
C1141 C 0.45475 0.81467 0.44563 0.0
C1142 C 0.4942 0.79083 0.43737 0.0
C1143 C 0.49752 0.78233 0.42334 0.0
C1144 C 0.49459 0.7891 0.40836 0.0
C1145 C 0.48812 0.80439 0.40772 0.0
C1146 C 0.48471 0.81275 0.42166 0.0
H1147 H 0.44383 0.81602 0.45272 0.0
H1148 H 0.45323 0.82158 0.43458 0.0
H1149 H 0.45595 0.80192 0.44222 0.0
H1150 H 0.49671 0.78555 0.44881 0.0
H1151 H 0.50253 0.7706 0.42423 0.0
H1152 H 0.15416 0.24027 0.76461 0.0
H1153 H 0.13147 0.23698 0.78213 0.0
H1154 H 0.14149 0.28338 0.80316 0.0
H1155 H 0.16417 0.2868 0.78565 0.0
H1156 H 0.13294 0.25951 0.82557 0.0
H1157 H 0.09039 0.26185 0.77401 0.0
H1158 H 0.10532 0.24692 0.77258 0.0
H1159 H 0.11108 0.26762 0.77256 0.0
C1160 C 0.15154 0.24977 0.77298 0.0
C1161 C 0.16085 0.26387 0.77362 0.0
C1162 C 0.13861 0.24785 0.783 0.0
C1163 C 0.13469 0.26003 0.79377 0.0
C1164 C 0.14433 0.27384 0.79492 0.0
H1165 H 0.04712 0.28611 0.83395 0.0
H1166 H 0.07235 0.28332 0.82068 0.0
C1167 C 0.1573 0.27576 0.78493 0.0
C1168 C 0.12 0.25885 0.80315 0.0
H1169 H 0.07951 0.25813 0.79928 0.0
C1170 C 0.12124 0.25908 0.81986 0.0
C1171 C 0.10478 0.25843 0.79562 0.0
C1172 C 0.10271 0.25882 0.77772 0.0
C1173 C 0.1076 0.2591 0.82926 0.0
C1174 C 0.09241 0.25877 0.82171 0.0
C1175 C 0.0912 0.25826 0.80501 0.0
C1176 C 0.07758 0.26045 0.83074 0.0
C1177 C 0.10949 0.26009 0.84716 0.0
C1178 C 0.07217 0.2485 0.84092 0.0
C1179 C 0.05762 0.25004 0.84861 0.0
C1180 C 0.04827 0.26353 0.84615 0.0
C1181 C 0.05393 0.27553 0.83611 0.0
C1182 C 0.06838 0.27398 0.82848 0.0
H1183 H 0.122 0.26273 0.85104 0.0
H1184 H 0.10177 0.26945 0.85212 0.0
H1185 H 0.10575 0.24856 0.85229 0.0
H1186 H 0.07902 0.23786 0.84265 0.0
H1187 H 0.05359 0.24058 0.85623 0.0
H1188 H 0.54904 0.60116 0.47465 0.0
H1189 H 0.54445 0.62369 0.45711 0.0
H1190 H 0.5025 0.63545 0.48314 0.0
H1191 H 0.50695 0.61298 0.50066 0.0
H1192 H 0.51833 0.63002 0.43744 0.0
H1193 H 0.52728 0.67769 0.48348 0.0
H1194 H 0.53314 0.65741 0.48666 0.0
H1195 H 0.51269 0.66286 0.4886 0.0
C1196 C 0.5388 0.6085 0.4766 0.0
C1197 C 0.52842 0.60532 0.48914 0.0
C1198 C 0.53623 0.62141 0.4666 0.0
C1199 C 0.5233 0.63142 0.46899 0.0
C1200 C 0.51279 0.62814 0.48133 0.0
H1201 H 0.48331 0.71311 0.42275 0.0
H1202 H 0.48901 0.69012 0.43924 0.0
C1203 C 0.51535 0.61527 0.49134 0.0
C1204 C 0.52057 0.64512 0.45839 0.0
H1205 H 0.51644 0.68549 0.45847 0.0
C1206 C 0.51803 0.64217 0.442 0.0
C1207 C 0.5202 0.66096 0.46437 0.0
C1208 C 0.52362 0.66498 0.48171 0.0
C1209 C 0.5147 0.65458 0.4315 0.0
C1210 C 0.51412 0.67038 0.43754 0.0
C1211 C 0.51682 0.67335 0.45389 0.0
C1212 C 0.51057 0.68403 0.42713 0.0
C1213 C 0.5114 0.65064 0.41413 0.0
C1214 C 0.52085 0.68829 0.41489 0.0
C1215 C 0.51764 0.70145 0.40543 0.0
C1216 C 0.5041 0.71063 0.40807 0.0
C1217 C 0.49382 0.70629 0.42035 0.0
C1218 C 0.49706 0.69317 0.42981 0.0
H1219 H 0.50862 0.63777 0.41212 0.0
H1220 H 0.50131 0.65764 0.40944 0.0
H1221 H 0.52207 0.65373 0.40719 0.0
H1222 H 0.5315 0.68158 0.41281 0.0
H1223 H 0.52584 0.70449 0.39613 0.0
H1224 H 0.88593 0.76791 0.77385 0.0
H1225 H 0.90878 0.76242 0.75705 0.0
H1226 H 0.89676 0.80221 0.72764 0.0
H1227 H 0.87424 0.80796 0.7445 0.0
H1228 H 0.90654 0.75463 0.7251 0.0
H1229 H 0.94462 0.80852 0.73413 0.0
H1230 H 0.92906 0.80315 0.74767 0.0
H1231 H 0.92439 0.81346 0.72957 0.0
C1232 C 0.88839 0.77567 0.76399 0.0
C1233 C 0.87827 0.78832 0.76043 0.0
C1234 C 0.9014 0.7725 0.7544 0.0
C1235 C 0.9046 0.78206 0.74126 0.0
C1236 C 0.89472 0.7949 0.73793 0.0
H1237 H 0.93591 0.76764 0.64913 0.0
H1238 H 0.92308 0.77036 0.67473 0.0
C1239 C 0.88172 0.79803 0.74744 0.0
C1240 C 0.91717 0.7778 0.72997 0.0
H1241 H 0.94778 0.79396 0.70919 0.0
C1242 C 0.9158 0.76308 0.72187 0.0
C1243 C 0.92938 0.78873 0.72593 0.0
C1244 C 0.93207 0.80428 0.73491 0.0
C1245 C 0.92554 0.75951 0.70901 0.0
C1246 C 0.93677 0.77103 0.70406 0.0
C1247 C 0.939 0.78524 0.71291 0.0
C1248 C 0.94492 0.76929 0.68873 0.0
C1249 C 0.92332 0.74368 0.70041 0.0
C1250 C 0.96152 0.76818 0.68815 0.0
C1251 C 0.96896 0.7666 0.67345 0.0
C1252 C 0.95988 0.76634 0.65916 0.0
C1253 C 0.94327 0.76776 0.65988 0.0
C1254 C 0.93589 0.76922 0.67451 0.0
H1255 H 0.91786 0.73461 0.70819 0.0
H1256 H 0.91526 0.74513 0.68991 0.0
H1257 H 0.93484 0.73921 0.69613 0.0
H1258 H 0.96866 0.76837 0.69905 0.0
H1259 H 0.98178 0.7656 0.67329 0.0
H1260 H 0.06074 0.87454 0.49546 0.0
H1261 H 0.05598 0.85422 0.51554 0.0
H1262 H 0.01455 0.87917 0.53096 0.0
H1263 H 0.0194 0.89966 0.51125 0.0
H1264 H 0.03542 0.86853 0.55626 0.0
H1265 H 0.0187 0.8209 0.51165 0.0
H1266 H 0.03749 0.83106 0.50914 0.0
H1267 H 0.01934 0.84171 0.50665 0.0
C1268 C 0.05069 0.87574 0.50322 0.0
C1269 C 0.04035 0.88862 0.50168 0.0
C1270 C 0.04795 0.8641 0.5146 0.0
C1271 C 0.03484 0.86516 0.5246 0.0
C1272 C 0.0247 0.87814 0.52331 0.0
H1273 H 0.97871 0.80085 0.57682 0.0
H1274 H 0.99068 0.82054 0.55951 0.0
C1275 C 0.0274 0.88974 0.51194 0.0
C1276 C 0.03128 0.8526 0.53617 0.0
H1277 H 0.01725 0.81437 0.5387 0.0
C1278 C 0.03163 0.85662 0.55248 0.0
C1279 C 0.02626 0.83714 0.53111 0.0
C1280 C 0.02528 0.83237 0.51369 0.0
C1281 C 0.0267 0.84564 0.56388 0.0
C1282 C 0.02137 0.8303 0.55878 0.0
C1283 C 0.02142 0.82615 0.54252 0.0
C1284 C 0.01434 0.81883 0.56989 0.0
C1285 C 0.02656 0.85069 0.58121 0.0
C1286 C 0.02371 0.81145 0.58154 0.0
C1287 C 0.01688 0.80013 0.5915 0.0
C1288 C 0.0006 0.79604 0.58993 0.0
C1289 C 0.99127 0.8037 0.57838 0.0
C1290 C 0.99809 0.81493 0.56844 0.0
H1291 H 0.02907 0.86365 0.58293 0.0
H1292 H 0.01484 0.84775 0.58639 0.0
H1293 H 0.03575 0.84408 0.58792 0.0
H1294 H 0.03631 0.81423 0.58271 0.0
H1295 H 0.02441 0.79442 0.60025 0.0
H1296 H 0.1631 0.7558 0.71378 0.0
H1297 H 0.13944 0.76173 0.69761 0.0
H1298 H 0.11384 0.72302 0.71921 0.0
H1299 H 0.13725 0.71731 0.73575 0.0
H1300 H 0.12197 0.74219 0.67567 0.0
H1301 H 0.08512 0.76143 0.72632 0.0
H1302 H 0.1064 0.75933 0.72813 0.0
H1303 H 0.09347 0.74205 0.72848 0.0
C1304 C 0.1524 0.74863 0.71517 0.0
C1305 C 0.15203 0.73615 0.72612 0.0
C1306 C 0.13894 0.75197 0.70586 0.0
C1307 C 0.12485 0.74297 0.7074 0.0
C1308 C 0.12453 0.73028 0.71804 0.0
H1309 H 0.04198 0.73728 0.64443 0.0
H1310 H 0.06665 0.73253 0.65937 0.0
C1311 C 0.13798 0.72692 0.72735 0.0
C1312 C 0.11046 0.74685 0.69788 0.0
H1313 H 0.0719 0.75819 0.70114 0.0
C1314 C 0.11103 0.74574 0.68121 0.0
C1315 C 0.0963 0.7517 0.70517 0.0
C1316 C 0.09526 0.75386 0.723 0.0
C1317 C 0.09766 0.74904 0.67161 0.0
C1318 C 0.08333 0.75334 0.67892 0.0
C1319 C 0.08287 0.75477 0.69558 0.0
C1320 C 0.06862 0.75636 0.66953 0.0
C1321 C 0.09905 0.74808 0.65372 0.0
C1322 C 0.06139 0.77124 0.67054 0.0
C1323 C 0.04722 0.77397 0.6621 0.0
C1324 C 0.03999 0.76183 0.65256 0.0
C1325 C 0.04728 0.74692 0.6516 0.0
C1326 C 0.06143 0.7442 0.66005 0.0
H1327 H 0.11166 0.74885 0.65005 0.0
H1328 H 0.09396 0.73651 0.64929 0.0
H1329 H 0.09237 0.75775 0.64792 0.0
H1330 H 0.06672 0.78074 0.67787 0.0
H1331 H 0.04191 0.78557 0.66313 0.0
H1332 H 0.96307 0.63086 0.49646 0.0
H1333 H 0.97021 0.65076 0.51703 0.0
H1334 H 0.98955 0.61418 0.54671 0.0
H1335 H 0.98279 0.59413 0.526 0.0
H1336 H 0.96745 0.63447 0.56187 0.0
H1337 H 0.01447 0.66883 0.53149 0.0
H1338 H 0.99679 0.66552 0.5194 0.0
H1339 H 0.00846 0.64884 0.52537 0.0
C1340 C 0.96916 0.62705 0.5072 0.0
C1341 C 0.9724 0.61089 0.50956 0.0
C1342 C 0.97321 0.63845 0.51894 0.0
C1343 C 0.98059 0.63393 0.53326 0.0
C1344 C 0.98394 0.61787 0.53568 0.0
H1345 H 0.00747 0.71121 0.60121 0.0
H1346 H 0.00896 0.68578 0.58656 0.0
C1347 C 0.97996 0.60644 0.52388 0.0
C1348 C 0.98374 0.64595 0.54604 0.0
H1349 H 0.00186 0.68209 0.55333 0.0
C1350 C 0.9752 0.64474 0.56016 0.0
C1351 C 0.99403 0.6592 0.54386 0.0
C1352 C 0.00409 0.66064 0.52927 0.0
C1353 C 0.97589 0.657 0.57172 0.0
C1354 C 0.98524 0.6708 0.56895 0.0
C1355 C 0.9946 0.67153 0.55534 0.0
C1356 C 0.98417 0.68526 0.5791 0.0
C1357 C 0.96626 0.65531 0.58657 0.0
C1358 C 0.96975 0.69331 0.5797 0.0
C1359 C 0.96888 0.70782 0.58791 0.0
C1360 C 0.98244 0.71457 0.59567 0.0
C1361 C 0.99681 0.70628 0.59539 0.0
C1362 C 0.99769 0.69178 0.58704 0.0
H1363 H 0.96376 0.6426 0.58919 0.0
H1364 H 0.97251 0.66101 0.59704 0.0
H1365 H 0.95469 0.66123 0.5848 0.0
H1366 H 0.95926 0.68861 0.57338 0.0
H1367 H 0.95763 0.71388 0.5879 0.0
H1368 H 0.75539 0.86776 0.20241 0.0
H1369 H 0.77135 0.89248 0.20335 0.0
H1370 H 0.80401 0.87151 0.23691 0.0
H1371 H 0.7883 0.84673 0.23577 0.0
H1372 H 0.77715 0.91196 0.22781 0.0
H1373 H 0.83472 0.89063 0.20636 0.0
H1374 H 0.81661 0.87879 0.20439 0.0
H1375 H 0.82803 0.87914 0.22281 0.0
C1376 C 0.76604 0.86842 0.20991 0.0
C1377 C 0.77063 0.8553 0.21899 0.0
C1378 C 0.77518 0.88251 0.21038 0.0
C1379 C 0.78907 0.88377 0.21995 0.0
C1380 C 0.79365 0.87068 0.22904 0.0
H1381 H 0.83059 0.96405 0.268 0.0
H1382 H 0.81539 0.94094 0.258 0.0
C1383 C 0.7846 0.85654 0.22846 0.0
C1384 C 0.79808 0.89912 0.22144 0.0
H1385 H 0.83563 0.91541 0.22146 0.0
C1386 C 0.7899 0.91275 0.22617 0.0
C1387 C 0.81468 0.90029 0.21899 0.0
C1388 C 0.82398 0.88645 0.21268 0.0
C1389 C 0.79796 0.92726 0.22937 0.0
C1390 C 0.81472 0.92807 0.22821 0.0
C1391 C 0.82281 0.91472 0.22259 0.0
C1392 C 0.8241 0.94223 0.23397 0.0
C1393 C 0.78844 0.94155 0.23416 0.0
C1394 C 0.83451 0.95037 0.22392 0.0
C1395 C 0.84343 0.96361 0.22967 0.0
C1396 C 0.84211 0.96885 0.2456 0.0
C1397 C 0.83181 0.96049 0.25563 0.0
C1398 C 0.823 0.9473 0.2499 0.0
H1399 H 0.77605 0.9406 0.2293 0.0
H1400 H 0.78781 0.94219 0.24735 0.0
H1401 H 0.79399 0.95278 0.22998 0.0
H1402 H 0.83565 0.94653 0.21162 0.0
H1403 H 0.85129 0.96974 0.22166 0.0
H1404 H 0.79122 0.17683 0.25718 0.0
H1405 H 0.81036 0.15577 0.25224 0.0
H1406 H 0.77609 0.12059 0.26729 0.0
H1407 H 0.75703 0.14147 0.2725 0.0
H1408 H 0.82262 0.13409 0.27417 0.0
H1409 H 0.7906 0.10259 0.22427 0.0
H1410 H 0.78595 0.12262 0.23054 0.0
H1411 H 0.77828 0.10582 0.24118 0.0
C1412 C 0.78777 0.16461 0.25948 0.0
C1413 C 0.77254 0.16084 0.26515 0.0
C1414 C 0.79868 0.1526 0.25655 0.0
C1415 C 0.79452 0.13661 0.2591 0.0
C1416 C 0.77939 0.13282 0.26483 0.0
H1417 H 0.8418 0.05385 0.28464 0.0
H1418 H 0.82926 0.07957 0.28217 0.0
C1419 C 0.76851 0.14479 0.26781 0.0
C1420 C 0.80617 0.12385 0.25665 0.0
H1421 H 0.81056 0.08772 0.23822 0.0
C1422 C 0.82014 0.12408 0.26611 0.0
C1423 C 0.80306 0.11094 0.24592 0.0
C1424 C 0.78874 0.11052 0.23478 0.0
C1425 C 0.83054 0.11123 0.26588 0.0
C1426 C 0.82676 0.09776 0.25607 0.0
C1427 C 0.81336 0.09799 0.24584 0.0
C1428 C 0.83551 0.08271 0.25755 0.0
C1429 C 0.84528 0.11198 0.27645 0.0
C1430 C 0.84304 0.07582 0.24442 0.0
C1431 C 0.85026 0.06099 0.24578 0.0
C1432 C 0.84982 0.05276 0.26022 0.0
C1433 C 0.84237 0.05983 0.27333 0.0
C1434 C 0.83529 0.07462 0.272 0.0
H1435 H 0.84909 0.12449 0.27916 0.0
H1436 H 0.84269 0.10617 0.28791 0.0
H1437 H 0.85527 0.10568 0.27084 0.0
H1438 H 0.84318 0.08184 0.23311 0.0
H1439 H 0.85585 0.05584 0.23544 0.0
H1440 H 0.36448 0.01273 0.95273 0.0
H1441 H 0.34094 0.99597 0.95761 0.0
H1442 H 0.3674 0.97055 0.99326 0.0
H1443 H 0.39095 0.98697 0.98832 0.0
H1444 H 0.33827 0.96291 0.95427 0.0
H1445 H 0.32648 0.98189 0.01627 0.0
H1446 H 0.33896 0.99337 0.00328 0.0
H1447 H 0.34683 0.97657 0.01363 0.0
C1448 C 0.36529 0.00354 0.96158 0.0
C1449 C 0.37959 0.00124 0.9702 0.0
C1450 C 0.3518 0.99408 0.96444 0.0
C1451 C 0.35235 0.98227 0.97604 0.0
C1452 C 0.3666 0.9799 0.98458 0.0
H1453 H 0.31102 0.89285 0.98928 0.0
H1454 H 0.32562 0.91696 0.98243 0.0
C1455 C 0.38006 0.9893 0.98172 0.0
C1456 C 0.33846 0.97159 0.97857 0.0
H1457 H 0.31552 0.95622 0.00787 0.0
C1458 C 0.33306 0.96166 0.9659 0.0
C1459 C 0.33148 0.97016 0.99368 0.0
C1460 C 0.33612 0.98119 0.00745 0.0
C1461 C 0.32168 0.94955 0.96825 0.0
C1462 C 0.31573 0.94725 0.98369 0.0
C1463 C 0.32024 0.95791 0.99608 0.0
C1464 C 0.30636 0.93281 0.98756 0.0
C1465 C 0.31652 0.93894 0.95432 0.0
C1466 C 0.29076 0.93378 0.99307 0.0
C1467 C 0.28229 0.91992 0.99704 0.0
C1468 C 0.28942 0.90495 0.99576 0.0
C1469 C 0.30513 0.90415 0.9904 0.0
C1470 C 0.31348 0.91792 0.98636 0.0
H1471 H 0.31826 0.94498 0.9428 0.0
H1472 H 0.3238 0.92807 0.95431 0.0
H1473 H 0.30382 0.93524 0.95518 0.0
H1474 H 0.28514 0.94522 0.99423 0.0
H1475 H 0.27023 0.92093 0.00117 0.0
H1476 H 0.24162 0.35283 0.26974 0.0
H1477 H 0.22331 0.37459 0.26498 0.0
H1478 H 0.25455 0.40679 0.29198 0.0
H1479 H 0.27283 0.38499 0.29702 0.0
H1480 H 0.22261 0.40643 0.30169 0.0
H1481 H 0.22673 0.41399 0.23642 0.0
H1482 H 0.22356 0.39369 0.24213 0.0
H1483 H 0.24173 0.40401 0.24806 0.0
C1484 C 0.24464 0.36457 0.27457 0.0
C1485 C 0.25862 0.36722 0.28378 0.0
C1486 C 0.23427 0.37702 0.27169 0.0
C1487 C 0.23771 0.39232 0.27795 0.0
C1488 C 0.25179 0.39508 0.28692 0.0
H1489 H 0.17275 0.47147 0.26081 0.0
H1490 H 0.19747 0.45673 0.26438 0.0
C1491 C 0.26222 0.38265 0.28973 0.0
C1492 C 0.22587 0.40498 0.27633 0.0
H1493 H 0.20384 0.42499 0.24886 0.0
C1494 C 0.21868 0.4107 0.29017 0.0
C1495 C 0.22089 0.41061 0.26129 0.0
C1496 C 0.22873 0.40539 0.24613 0.0
C1497 C 0.20602 0.42127 0.28929 0.0
C1498 C 0.20042 0.42614 0.2742 0.0
C1499 C 0.20815 0.42112 0.26041 0.0
C1500 C 0.18573 0.43531 0.27245 0.0
C1501 C 0.19843 0.42685 0.30446 0.0
C1502 C 0.17106 0.42803 0.27574 0.0
C1503 C 0.15699 0.43631 0.27362 0.0
C1504 C 0.15734 0.45206 0.26822 0.0
C1505 C 0.17211 0.45938 0.26506 0.0
C1506 C 0.18621 0.451 0.26705 0.0
H1507 H 0.20635 0.42516 0.31504 0.0
H1508 H 0.19536 0.43962 0.30379 0.0
H1509 H 0.18726 0.41988 0.30618 0.0
H1510 H 0.17049 0.41585 0.27976 0.0
H1511 H 0.14583 0.43032 0.27617 0.0
H1512 H 0.10571 0.00803 0.50048 0.0
H1513 H 0.1258 0.02787 0.50931 0.0
H1514 H 0.11862 0.05336 0.46565 0.0
H1515 H 0.09806 0.03402 0.45708 0.0
H1516 H 0.1528 0.03197 0.49416 0.0
H1517 H 0.12311 0.08988 0.49711 0.0
H1518 H 0.11211 0.07117 0.49669 0.0
H1519 H 0.11864 0.07993 0.47844 0.0
C1520 C 0.10802 0.01815 0.49299 0.0
C1521 C 0.10036 0.01939 0.47801 0.0
C1522 C 0.11955 0.02945 0.49804 0.0
C1523 C 0.12358 0.04221 0.48824 0.0
C1524 C 0.11546 0.04384 0.4736 0.0
H1525 H 0.20948 0.08301 0.46256 0.0
H1526 H 0.18414 0.06945 0.46696 0.0
C1527 C 0.1039 0.03261 0.46858 0.0
C1528 C 0.13779 0.05239 0.49205 0.0
H1529 H 0.15155 0.09089 0.49155 0.0
C1530 C 0.15245 0.04487 0.49401 0.0
C1531 C 0.13736 0.06922 0.49203 0.0
C1532 C 0.12191 0.078 0.49113 0.0
C1533 C 0.16675 0.05367 0.49471 0.0
C1534 C 0.16639 0.07037 0.49321 0.0
C1535 C 0.15174 0.07804 0.49248 0.0
C1536 C 0.18112 0.07966 0.4905 0.0
C1537 C 0.18223 0.045 0.49632 0.0
C1538 C 0.18753 0.09022 0.50217 0.0
C1539 C 0.20212 0.09803 0.49971 0.0
C1540 C 0.21038 0.09541 0.48551 0.0
C1541 C 0.20352 0.08523 0.47367 0.0
C1542 C 0.18905 0.07745 0.47616 0.0
H1543 H 0.18046 0.033 0.50144 0.0
H1544 H 0.18741 0.04346 0.48435 0.0
H1545 H 0.19094 0.0519 0.50396 0.0
H1546 H 0.18148 0.09208 0.51328 0.0
H1547 H 0.20707 0.10584 0.50904 0.0
H1548 H 0.73542 0.13235 0.72535 0.0
H1549 H 0.71747 0.10979 0.7302 0.0
H1550 H 0.68747 0.14024 0.75779 0.0
H1551 H 0.70558 0.16284 0.75343 0.0
H1552 H 0.70787 0.09879 0.76254 0.0
H1553 H 0.65764 0.1168 0.72292 0.0
H1554 H 0.67777 0.12413 0.72045 0.0
H1555 H 0.66612 0.13169 0.73645 0.0
C1556 C 0.72509 0.13426 0.73257 0.0
C1557 C 0.72198 0.14943 0.73903 0.0
C1558 C 0.71481 0.12137 0.73524 0.0
C1559 C 0.70113 0.12342 0.74424 0.0
C1560 C 0.69789 0.1385 0.75064 0.0
H1561 H 0.62404 0.05751 0.76734 0.0
H1562 H 0.64118 0.08114 0.76449 0.0
C1563 C 0.70822 0.1514 0.74807 0.0
C1564 C 0.69049 0.10964 0.74725 0.0
H1565 H 0.65388 0.09352 0.73776 0.0
C1566 C 0.69606 0.0976 0.75715 0.0
C1567 C 0.67508 0.10827 0.74027 0.0
C1568 C 0.66873 0.12083 0.72934 0.0
C1569 C 0.68655 0.08416 0.76034 0.0
C1570 C 0.67124 0.08257 0.75306 0.0
C1571 C 0.66562 0.09475 0.7433 0.0
C1572 C 0.66101 0.0682 0.75511 0.0
C1573 C 0.6929 0.07196 0.77168 0.0
C1574 C 0.66642 0.05311 0.75062 0.0
C1575 C 0.65672 0.03959 0.75234 0.0
C1576 C 0.64132 0.04092 0.75838 0.0
C1577 C 0.63585 0.05607 0.76269 0.0
C1578 C 0.64562 0.06959 0.76106 0.0
H1579 H 0.70229 0.07718 0.77982 0.0
H1580 H 0.68327 0.06682 0.77898 0.0
H1581 H 0.69828 0.06215 0.76475 0.0
H1582 H 0.67809 0.0518 0.74561 0.0
H1583 H 0.66124 0.02812 0.74876 0.0
H1584 H 0.40204 0.01415 0.51197 0.0
H1585 H 0.38056 0.03275 0.50721 0.0
H1586 H 0.35466 0.01289 0.54621 0.0
H1587 H 0.37592 0.99388 0.55078 0.0
H1588 H 0.33613 0.01652 0.51883 0.0
H1589 H 0.36998 0.07217 0.53407 0.0
H1590 H 0.37959 0.0599 0.51959 0.0
H1591 H 0.37694 0.05273 0.53945 0.0
C1592 C 0.39172 0.01364 0.51946 0.0
C1593 C 0.39068 0.00254 0.53176 0.0
C1594 C 0.37956 0.02443 0.51686 0.0
C1595 C 0.36619 0.0244 0.52657 0.0
C1596 C 0.36499 0.01322 0.53872 0.0
H1597 H 0.29308 0.09746 0.52061 0.0
H1598 H 0.31367 0.07983 0.5309 0.0
C1599 C 0.37716 0.00242 0.54134 0.0
C1600 C 0.35316 0.0356 0.52352 0.0
H1601 H 0.34523 0.07508 0.51984 0.0
C1602 C 0.33806 0.02932 0.51922 0.0
C1603 C 0.35565 0.0523 0.5243 0.0
C1604 C 0.37138 0.0597 0.52976 0.0
C1605 C 0.32556 0.03931 0.51496 0.0
C1606 C 0.32834 0.05596 0.5148 0.0
C1607 C 0.34321 0.06228 0.51981 0.0
C1608 C 0.31619 0.06688 0.50863 0.0
C1609 C 0.30952 0.03195 0.51053 0.0
C1610 C 0.31112 0.06564 0.49264 0.0
C1611 C 0.29946 0.07565 0.48673 0.0
C1612 C 0.29266 0.08718 0.49669 0.0
C1613 C 0.29805 0.08867 0.51264 0.0
C1614 C 0.30978 0.07862 0.51855 0.0
H1615 H 0.30809 0.01984 0.5155 0.0
H1616 H 0.29974 0.03947 0.51486 0.0
H1617 H 0.30836 0.03087 0.49736 0.0
H1618 H 0.31618 0.05686 0.48472 0.0
H1619 H 0.29568 0.07422 0.47437 0.0
H1620 H 0.61414 0.49548 0.5123 0.0
H1621 H 0.63544 0.47623 0.50937 0.0
H1622 H 0.6167 0.44928 0.54824 0.0
H1623 H 0.59518 0.46823 0.55101 0.0
H1624 H 0.65853 0.46767 0.53272 0.0
H1625 H 0.62126 0.41558 0.51248 0.0
H1626 H 0.61414 0.43571 0.51212 0.0
H1627 H 0.61489 0.4251 0.53051 0.0
C1628 C 0.61444 0.48535 0.5201 0.0
C1629 C 0.60292 0.48337 0.53186 0.0
C1630 C 0.62667 0.47442 0.51847 0.0
C1631 C 0.62753 0.46122 0.52845 0.0
C1632 C 0.61611 0.45924 0.54024 0.0
H1633 H 0.6921 0.38277 0.54014 0.0
H1634 H 0.6704 0.40167 0.54183 0.0
C1635 C 0.60392 0.47019 0.54192 0.0
C1636 C 0.64062 0.44975 0.52684 0.0
H1637 H 0.64833 0.41068 0.51887 0.0
C1638 C 0.65633 0.45523 0.5296 0.0
C1639 C 0.63769 0.43352 0.52282 0.0
C1640 C 0.6211 0.4271 0.51917 0.0
C1641 C 0.66918 0.44483 0.52879 0.0
C1642 C 0.66626 0.42858 0.52477 0.0
C1643 C 0.65055 0.42313 0.52196 0.0
C1644 C 0.67935 0.41704 0.5235 0.0
C1645 C 0.68573 0.45127 0.53266 0.0
C1646 C 0.69145 0.41924 0.51244 0.0
C1647 C 0.7039 0.40849 0.51147 0.0
C1648 C 0.70443 0.39523 0.52146 0.0
C1649 C 0.6921 0.39287 0.53229 0.0
C1650 C 0.67967 0.40365 0.53327 0.0
H1651 H 0.68547 0.46265 0.53958 0.0
H1652 H 0.69272 0.44258 0.53959 0.0
H1653 H 0.69199 0.45357 0.5214 0.0
H1654 H 0.69125 0.42928 0.50452 0.0
H1655 H 0.71312 0.41062 0.50291 0.0
H1656 H 0.69984 0.27987 0.35268 0.0
H1657 H 0.70336 0.2965 0.37685 0.0
H1658 H 0.74662 0.27216 0.38854 0.0
H1659 H 0.74338 0.25573 0.36431 0.0
H1660 H 0.70699 0.28691 0.40995 0.0
H1661 H 0.75954 0.32022 0.38796 0.0
H1662 H 0.7461 0.30887 0.37487 0.0
H1663 H 0.76099 0.29894 0.38647 0.0
C1664 C 0.71014 0.27812 0.36037 0.0
C1665 C 0.72139 0.26655 0.35654 0.0
C1666 C 0.71207 0.28755 0.3742 0.0
C1667 C 0.72534 0.28567 0.38433 0.0
C1668 C 0.73639 0.27391 0.38075 0.0
H1669 H 0.76838 0.32374 0.4694 0.0
H1670 H 0.75971 0.30934 0.44526 0.0
C1671 C 0.73445 0.26444 0.36698 0.0
C1672 C 0.72786 0.29611 0.39858 0.0
H1673 H 0.75413 0.32318 0.41553 0.0
C1674 C 0.71718 0.29499 0.41116 0.0
C1675 C 0.74111 0.30669 0.4 0.0
C1676 C 0.75253 0.30891 0.38656 0.0
C1677 C 0.71986 0.30365 0.42548 0.0
C1678 C 0.73342 0.31381 0.42709 0.0
C1679 C 0.74377 0.31532 0.41428 0.0
C1680 C 0.73784 0.32217 0.44227 0.0
C1681 C 0.70856 0.30136 0.43901 0.0
C1682 C 0.72833 0.33415 0.44869 0.0
C1683 C 0.73325 0.34246 0.46262 0.0
C1684 C 0.74781 0.33898 0.47025 0.0
C1685 C 0.75713 0.32681 0.46384 0.0
C1686 C 0.7522 0.31854 0.45001 0.0
H1687 H 0.70039 0.29095 0.43689 0.0
H1688 H 0.71525 0.2997 0.45039 0.0
H1689 H 0.70127 0.31214 0.44037 0.0
H1690 H 0.7173 0.3373 0.44275 0.0
H1691 H 0.72583 0.3518 0.46721 0.0
H1692 H 0.52273 0.02249 0.91299 0.0
H1693 H 0.54323 0.01697 0.89348 0.0
H1694 H 0.51253 0.03434 0.85603 0.0
H1695 H 0.49232 0.04049 0.87564 0.0
H1696 H 0.5427 0.99707 0.86982 0.0
H1697 H 0.55281 0.05685 0.84526 0.0
H1698 H 0.54151 0.05374 0.86301 0.0
H1699 H 0.53219 0.05117 0.84356 0.0
C1700 C 0.52046 0.02522 0.90059 0.0
C1701 C 0.50601 0.03193 0.89577 0.0
C1702 C 0.53217 0.02212 0.88947 0.0
C1703 C 0.52958 0.02553 0.87331 0.0
C1704 C 0.51506 0.03211 0.86848 0.0
H1705 H 0.56893 0.977 0.79384 0.0
H1706 H 0.55395 0.98672 0.81638 0.0
C1707 C 0.50345 0.03548 0.87965 0.0
C1708 C 0.54157 0.02112 0.86136 0.0
H1709 H 0.56127 0.03472 0.82899 0.0
C1710 C 0.54692 0.00539 0.86104 0.0
C1711 C 0.5474 0.03202 0.85009 0.0
C1712 C 0.54331 0.04942 0.85061 0.0
C1713 C 0.55734 9e-05 0.84937 0.0
C1714 C 0.56209 0.01063 0.83731 0.0
C1715 C 0.55739 0.02656 0.83806 0.0
C1716 C 0.57123 0.0051 0.82343 0.0
C1717 C 0.56314 0.98322 0.85013 0.0
C1718 C 0.5856 0.01267 0.81943 0.0
C1719 C 0.5941 0.00731 0.80628 0.0
C1720 C 0.58836 0.99425 0.797 0.0
C1721 C 0.57382 0.98692 0.8009 0.0
C1722 C 0.56528 0.9924 0.81386 0.0
H1723 H 0.56318 0.97884 0.86254 0.0
H1724 H 0.55499 0.97529 0.84289 0.0
H1725 H 0.57533 0.98223 0.84543 0.0
H1726 H 0.59033 0.02262 0.82657 0.0
H1727 H 0.60524 0.01324 0.80353 0.0
H1728 H 0.27116 0.27158 0.38385 0.0
H1729 H 0.26423 0.25378 0.40556 0.0
H1730 H 0.30476 0.22503 0.39504 0.0
H1731 H 0.31172 0.24268 0.37339 0.0
H1732 H 0.25636 0.22244 0.40214 0.0
H1733 H 0.30841 0.22944 0.44318 0.0
H1734 H 0.30422 0.24342 0.4276 0.0
H1735 H 0.31429 0.2252 0.42317 0.0
C1736 C 0.27866 0.26153 0.38627 0.0
C1737 C 0.292 0.25853 0.37692 0.0
C1738 C 0.27474 0.25145 0.39872 0.0
C1739 C 0.28414 0.23825 0.40208 0.0
C1740 C 0.2976 0.2354 0.39295 0.0
H1741 H 0.26322 0.146 0.4332 0.0
H1742 H 0.26749 0.17117 0.41984 0.0
C1743 C 0.30154 0.24548 0.38054 0.0
C1744 C 0.27909 0.22654 0.41403 0.0
H1745 H 0.29292 0.20499 0.44532 0.0
C1746 C 0.26423 0.21884 0.41178 0.0
C1747 C 0.28924 0.22202 0.42675 0.0
C1748 C 0.30485 0.23058 0.43043 0.0
C1749 C 0.2597 0.20603 0.42126 0.0
C1750 C 0.27043 0.20065 0.4331 0.0
C1751 C 0.28482 0.20901 0.43607 0.0
C1752 C 0.26754 0.18557 0.44146 0.0
C1753 C 0.24362 0.19813 0.41827 0.0
C1754 C 0.26655 0.1853 0.45812 0.0
C1755 C 0.26418 0.17086 0.46586 0.0
C1756 C 0.26291 0.15647 0.45705 0.0
C1757 C 0.26407 0.15684 0.44037 0.0
C1758 C 0.2664 0.17124 0.43268 0.0
H1759 H 0.23511 0.20642 0.41267 0.0
H1760 H 0.24491 0.18781 0.40999 0.0
H1761 H 0.23852 0.19373 0.42951 0.0
H1762 H 0.26756 0.19626 0.4651 0.0
H1763 H 0.26338 0.17096 0.47873 0.0
H1764 H 0.49783 0.4404 0.87044 0.0
H1765 H 0.47944 0.4481 0.84918 0.0
H1766 H 0.50613 0.49194 0.84354 0.0
H1767 H 0.52412 0.4847 0.86532 0.0
H1768 H 0.4754 0.49735 0.84693 0.0
H1769 H 0.48156 0.44976 0.80137 0.0
H1770 H 0.47768 0.44165 0.82055 0.0
H1771 H 0.49582 0.45287 0.81758 0.0
C1772 C 0.49986 0.45164 0.86462 0.0
C1773 C 0.51241 0.46196 0.86967 0.0
C1774 C 0.48947 0.45591 0.85228 0.0
C1775 C 0.49154 0.47049 0.84459 0.0
C1776 C 0.50439 0.48056 0.84921 0.0
H1777 H 0.42283 0.49635 0.76887 0.0
H1778 H 0.44821 0.49134 0.78271 0.0
C1779 C 0.51473 0.47635 0.86161 0.0
C1780 C 0.47928 0.47598 0.83309 0.0
H1781 H 0.45701 0.46436 0.80027 0.0
C1782 C 0.47159 0.49026 0.83657 0.0
C1783 C 0.47444 0.46688 0.81942 0.0
C1784 C 0.48294 0.45203 0.81441 0.0
C1785 C 0.45861 0.49523 0.82729 0.0
C1786 C 0.45298 0.48549 0.81439 0.0
C1787 C 0.46123 0.4717 0.81031 0.0
C1788 C 0.43783 0.48877 0.8059 0.0
C1789 C 0.45086 0.51072 0.83159 0.0
C1790 C 0.42362 0.48878 0.81434 0.0
C1791 C 0.40919 0.49162 0.80654 0.0
C1792 C 0.40861 0.49443 0.79007 0.0
C1793 C 0.42287 0.4943 0.78157 0.0
C1794 C 0.43737 0.49142 0.78944 0.0
H1795 H 0.4593 0.51895 0.83814 0.0
H1796 H 0.4463 0.51676 0.8208 0.0
H1797 H 0.44069 0.50828 0.83946 0.0
H1798 H 0.42368 0.48642 0.82699 0.0
H1799 H 0.39846 0.49153 0.81345 0.0
H1800 H 0.75059 0.71185 0.16632 0.0
H1801 H 0.75472 0.69361 0.1437 0.0
H1802 H 0.7221 0.72034 0.11486 0.0
H1803 H 0.71795 0.73867 0.13734 0.0
H1804 H 0.72796 0.6758 0.12428 0.0
H1805 H 0.76636 0.7174 0.09042 0.0
H1806 H 0.76422 0.71916 0.11175 0.0
H1807 H 0.74843 0.72518 0.09863 0.0
C1808 C 0.74436 0.71387 0.15513 0.0
C1809 C 0.73397 0.72669 0.15357 0.0
C1810 C 0.74667 0.70341 0.14228 0.0
C1811 C 0.73877 0.70574 0.12765 0.0
C1812 C 0.72834 0.71844 0.12607 0.0
H1813 H 0.74264 0.66234 0.03374 0.0
H1814 H 0.73786 0.67931 0.05701 0.0
C1815 C 0.72592 0.72882 0.13893 0.0
C1816 C 0.74145 0.6949 0.11398 0.0
H1817 H 0.7591 0.69295 0.07783 0.0
C1818 C 0.73481 0.67947 0.11412 0.0
C1819 C 0.7503 0.69985 0.10079 0.0
C1820 C 0.75786 0.71626 0.1003 0.0
C1821 C 0.73655 0.66888 0.10118 0.0
C1822 C 0.74554 0.67376 0.08798 0.0
C1823 C 0.75223 0.68922 0.08794 0.0
C1824 C 0.74807 0.66313 0.07402 0.0
C1825 C 0.72836 0.65274 0.10157 0.0
C1826 C 0.75551 0.64844 0.07583 0.0
C1827 C 0.75814 0.63864 0.06255 0.0
C1828 C 0.7536 0.64347 0.04719 0.0
C1829 C 0.74629 0.65826 0.0454 0.0
C1830 C 0.74354 0.66798 0.05869 0.0
H1831 H 0.71843 0.65262 0.11009 0.0
H1832 H 0.72359 0.64909 0.0896 0.0
H1833 H 0.73707 0.64378 0.10549 0.0
H1834 H 0.75947 0.64463 0.08749 0.0
H1835 H 0.76393 0.62738 0.06432 0.0
H1836 H 0.97001 0.01089 0.08739 0.0
H1837 H 0.95101 0.00702 0.10873 0.0
H1838 H 0.97677 0.0419 0.13801 0.0
H1839 H 0.99582 0.04586 0.11674 0.0
H1840 H 0.95631 0.99698 0.13945 0.0
H1841 H 0.9314 0.05763 0.13998 0.0
H1842 H 0.9434 0.05031 0.12397 0.0
H1843 H 0.95266 0.05745 0.14231 0.0
C1844 C 0.97167 0.01771 0.09839 0.0
C1845 C 0.9844 0.02874 0.10033 0.0
C1846 C 0.96076 0.01553 0.11055 0.0
C1847 C 0.96231 0.02436 0.12486 0.0
C1848 C 0.9751 0.03525 0.12691 0.0
H1849 H 0.91297 0.02546 0.21445 0.0
H1850 H 0.93114 0.02962 0.19247 0.0
C1851 C 0.98599 0.03748 0.11475 0.0
C1852 C 0.95081 0.02183 0.13781 0.0
H1853 H 0.92415 0.04084 0.16127 0.0
C1854 C 0.9492 0.00654 0.14415 0.0
C1855 C 0.94155 0.03433 0.14394 0.0
C1856 C 0.94219 0.05082 0.13711 0.0
C1857 C 0.93883 0.00348 0.15668 0.0
C1858 C 0.92966 0.016 0.16288 0.0
C1859 C 0.93122 0.03127 0.15651 0.0
C1860 C 0.91847 0.01351 0.17607 0.0
C1861 C 0.93803 0.98697 0.16345 0.0
C1862 C 0.90518 0.00325 0.17405 0.0
C1863 C 0.89474 0.00085 0.18658 0.0
C1864 C 0.89738 0.00872 0.20137 0.0
C1865 C 0.9106 0.01917 0.20325 0.0
C1866 C 0.921 0.02158 0.1907 0.0
H1867 H 0.94839 0.97978 0.15996 0.0
H1868 H 0.93758 0.98752 0.17666 0.0
H1869 H 0.92706 0.98074 0.15889 0.0
H1870 H 0.90286 0.99712 0.16276 0.0
H1871 H 0.88465 0.99278 0.18469 0.0
H1872 H 0.23957 0.76199 0.15567 0.0
H1873 H 0.23594 0.78004 0.13336 0.0
H1874 H 0.28083 0.80338 0.14541 0.0
H1875 H 0.28461 0.78534 0.1677 0.0
H1876 H 0.25566 0.82459 0.13635 0.0
H1877 H 0.26308 0.77439 0.09318 0.0
H1878 H 0.24777 0.77162 0.10754 0.0
H1879 H 0.26824 0.77288 0.11407 0.0
C1880 C 0.24865 0.771 0.1536 0.0
C1881 C 0.26247 0.77211 0.16335 0.0
C1882 C 0.24653 0.78132 0.14089 0.0
C1883 C 0.25821 0.79289 0.13764 0.0
C1884 C 0.27167 0.79453 0.14775 0.0
H1885 H 0.28518 0.83648 0.05175 0.0
H1886 H 0.28258 0.82327 0.07715 0.0
C1887 C 0.27379 0.78423 0.16049 0.0
C1888 C 0.25703 0.80252 0.12307 0.0
H1889 H 0.25837 0.79958 0.08252 0.0
C1890 C 0.25611 0.81915 0.12455 0.0
C1891 C 0.25777 0.79536 0.10773 0.0
C1892 C 0.2594 0.7776 0.10544 0.0
C1893 C 0.2561 0.82884 0.11105 0.0
C1894 C 0.25696 0.82165 0.09576 0.0
C1895 C 0.2576 0.80502 0.09429 0.0
C1896 C 0.25862 0.83107 0.08114 0.0
C1897 C 0.25577 0.84668 0.11321 0.0
C1898 C 0.24604 0.84005 0.07505 0.0
C1899 C 0.24746 0.84769 0.06041 0.0
C1900 C 0.26147 0.84635 0.05164 0.0
C1901 C 0.27417 0.8377 0.05809 0.0
C1902 C 0.27274 0.83014 0.07264 0.0
H1903 H 0.25731 0.85045 0.12591 0.0
H1904 H 0.26529 0.85242 0.1062 0.0
H1905 H 0.24418 0.85107 0.1087 0.0
H1906 H 0.23497 0.84076 0.08138 0.0
H1907 H 0.23746 0.85424 0.05576 0.0
H1908 H 0.01062 0.50456 0.11114 0.0
H1909 H 0.03054 0.51036 0.13225 0.0
H1910 H 0.05487 0.46729 0.11982 0.0
H1911 H 0.03516 0.46158 0.09862 0.0
H1912 H 0.03415 0.49172 0.15717 0.0
H1913 H 0.09212 0.49747 0.12786 0.0
H1914 H 0.07341 0.49868 0.11699 0.0
H1915 H 0.08167 0.4796 0.12145 0.0
C1916 C 0.02041 0.49651 0.11274 0.0
C1917 C 0.02133 0.48259 0.10331 0.0
C1918 C 0.03181 0.49987 0.12473 0.0
C1919 C 0.04431 0.48937 0.12749 0.0
C1920 C 0.04561 0.47581 0.11763 0.0
H1921 H 0.0853 0.45856 0.21347 0.0
H1922 H 0.07172 0.46321 0.18808 0.0
C1923 C 0.03428 0.47251 0.10557 0.0
C1924 C 0.05453 0.49124 0.14202 0.0
H1925 H 0.09304 0.48973 0.15564 0.0
C1926 C 0.04704 0.49163 0.15679 0.0
C1927 C 0.07135 0.49126 0.14157 0.0
C1928 C 0.0801 0.4919 0.12609 0.0
C1929 C 0.05585 0.49108 0.1711 0.0
C1930 C 0.07255 0.48984 0.17059 0.0
C1931 C 0.08018 0.49044 0.15592 0.0
C1932 C 0.08202 0.48675 0.18518 0.0
C1933 C 0.04717 0.49138 0.18665 0.0
C1934 C 0.0927 0.49827 0.19162 0.0
C1935 C 0.10054 0.49566 0.20619 0.0
C1936 C 0.09781 0.48145 0.21444 0.0
C1937 C 0.08758 0.46969 0.20753 0.0
C1938 C 0.07979 0.47232 0.19303 0.0
H1939 H 0.03517 0.49655 0.18526 0.0
H1940 H 0.04565 0.47902 0.1909 0.0
H1941 H 0.05403 0.49835 0.19592 0.0
H1942 H 0.0946 0.50945 0.18564 0.0
H1943 H 0.10839 0.50493 0.21118 0.0
H1944 H 0.34843 0.69638 0.28177 0.0
H1945 H 0.37252 0.69896 0.29866 0.0
H1946 H 0.38396 0.74384 0.2771 0.0
H1947 H 0.36013 0.74127 0.26002 0.0
H1948 H 0.40561 0.70346 0.28973 0.0
H1949 H 0.38308 0.75383 0.32575 0.0
H1950 H 0.37017 0.74096 0.31355 0.0
H1951 H 0.38151 0.75669 0.30462 0.0
C1952 C 0.35616 0.70672 0.2805 0.0
C1953 C 0.35227 0.7187 0.26963 0.0
C1954 C 0.36987 0.70819 0.2902 0.0
C1955 C 0.37985 0.7217 0.28928 0.0
C1956 C 0.37622 0.73347 0.2782 0.0
H1957 H 0.46463 0.7649 0.32478 0.0
H1958 H 0.44038 0.7553 0.31119 0.0
C1959 C 0.36257 0.732 0.26849 0.0
C1960 C 0.39402 0.72373 0.29994 0.0
H1961 H 0.41098 0.74926 0.32771 0.0
C1962 C 0.40675 0.71331 0.29823 0.0
C1963 C 0.39535 0.73651 0.31109 0.0
C1964 C 0.38175 0.74756 0.31401 0.0
C1965 C 0.42117 0.71593 0.30676 0.0
C1966 C 0.42274 0.72919 0.31731 0.0
C1967 C 0.40974 0.73914 0.31954 0.0
C1968 C 0.43813 0.73394 0.32503 0.0
C1969 C 0.43489 0.70503 0.30389 0.0
C1970 C 0.44502 0.72498 0.33724 0.0
C1971 C 0.45901 0.73046 0.34513 0.0
C1972 C 0.46621 0.74502 0.34093 0.0
C1973 C 0.4594 0.75369 0.32841 0.0
C1974 C 0.44552 0.74823 0.3206 0.0
H1975 H 0.43232 0.69639 0.29395 0.0
H1976 H 0.44576 0.71209 0.30113 0.0
H1977 H 0.43746 0.69827 0.31485 0.0
H1978 H 0.43937 0.71399 0.34094 0.0
H1979 H 0.46393 0.72353 0.35474 0.0
H1980 H 0.97835 0.39913 0.9827 0.0
H1981 H 0.98421 0.37611 0.96584 0.0
H1982 H 0.96654 0.34466 0.00177 0.0
H1983 H 0.96061 0.36775 0.0188 0.0
H1984 H 0.00484 0.35125 0.97354 0.0
H1985 H 0.94296 0.32892 0.96071 0.0
H1986 H 0.94719 0.34871 0.96862 0.0
H1987 H 0.94874 0.33182 0.98132 0.0
C1988 C 0.97572 0.38732 0.98704 0.0
C1989 C 0.96908 0.38524 0.0021 0.0
C1990 C 0.97903 0.37419 0.97738 0.0
C1991 C 0.97573 0.3587 0.98253 0.0
C1992 C 0.96895 0.35653 0.99749 0.0
H1993 H 0.99325 0.27366 0.92211 0.0
H1994 H 0.98809 0.28956 0.94627 0.0
C1995 C 0.96557 0.36971 0.00718 0.0
C1996 C 0.97987 0.34499 0.97221 0.0
H1997 H 0.96365 0.31553 0.94808 0.0
C1998 C 0.99586 0.3433 0.96814 0.0
C1999 C 0.96814 0.33457 0.96529 0.0
C2000 C 0.95076 0.33607 0.96908 0.0
C2001 C 0.00034 0.33191 0.95679 0.0
C2002 C 0.98852 0.32208 0.94925 0.0
C2003 C 0.97266 0.32312 0.95395 0.0
C2004 C 0.99211 0.31223 0.93508 0.0
C2005 C 0.01763 0.33081 0.95254 0.0
C2006 C 0.99596 0.31978 0.92088 0.0
C2007 C 0.99877 0.31083 0.90714 0.0
C2008 C 0.99784 0.2941 0.90731 0.0
C2009 C 0.99414 0.28652 0.92163 0.0
C2010 C 0.99115 0.29555 0.9354 0.0
H2011 H 0.02558 0.33602 0.96209 0.0
H2012 H 0.02092 0.31824 0.95032 0.0
H2013 H 0.0197 0.33751 0.94146 0.0
H2014 H 0.99658 0.33266 0.92038 0.0
H2015 H 0.00161 0.31706 0.89635 0.0
H2016 H 0.64098 0.77956 0.25738 0.0
H2017 H 0.6195 0.7752 0.27604 0.0
H2018 H 0.65313 0.75781 0.31077 0.0
H2019 H 0.67475 0.76194 0.29206 0.0
H2020 H 0.61006 0.74617 0.29087 0.0
H2021 H 0.62938 0.79355 0.33471 0.0
H2022 H 0.63677 0.7927 0.31469 0.0
H2023 H 0.64398 0.77915 0.32934 0.0
C2024 C 0.64382 0.77467 0.26892 0.0
C2025 C 0.6596 0.7711 0.27322 0.0
C2026 C 0.63154 0.77225 0.27959 0.0
C2027 C 0.63476 0.7663 0.29481 0.0
C2028 C 0.65045 0.76263 0.29916 0.0
H2029 H 0.55411 0.7392 0.3554 0.0
H2030 H 0.58003 0.73801 0.3425 0.0
C2031 C 0.66278 0.76504 0.28847 0.0
C2032 C 0.62156 0.76404 0.30601 0.0
H2033 H 0.60584 0.77923 0.34007 0.0
C2034 C 0.6092 0.75323 0.30174 0.0
C2035 C 0.6205 0.77335 0.32012 0.0
C2036 C 0.63328 0.78544 0.32502 0.0
C2037 C 0.59554 0.75181 0.31098 0.0
C2038 C 0.59433 0.76137 0.32492 0.0
C2039 C 0.60691 0.77183 0.32945 0.0
C2040 C 0.57934 0.7621 0.33382 0.0
C2041 C 0.58217 0.74071 0.30535 0.0
C2042 C 0.57063 0.77613 0.33355 0.0
C2043 C 0.55593 0.77685 0.34085 0.0
C2044 C 0.54962 0.76355 0.34869 0.0
C2045 C 0.55861 0.74962 0.34942 0.0
C2046 C 0.57337 0.7489 0.34201 0.0
H2047 H 0.58404 0.73593 0.29313 0.0
H2048 H 0.58131 0.73053 0.31355 0.0
H2049 H 0.57064 0.74694 0.30548 0.0
H2050 H 0.57504 0.78645 0.32731 0.0
H2051 H 0.5494 0.78782 0.34014 0.0
H2052 H 0.03931 0.12188 0.99673 0.0
H2053 H 0.03477 0.14335 0.97797 0.0
H2054 H 0.0143 0.10953 0.94378 0.0
H2055 H 0.01821 0.08807 0.96268 0.0
H2056 H 0.04639 0.14719 0.94774 0.0
H2057 H 0.9804 0.14337 0.94564 0.0
H2058 H 0.99218 0.13364 0.96068 0.0
H2059 H 0.98984 0.12493 0.94103 0.0
C2060 C 0.03363 0.11902 0.98531 0.0
C2061 C 0.02903 0.10323 0.98128 0.0
C2062 C 0.03116 0.1313 0.97455 0.0
C2063 C 0.02397 0.12809 0.95957 0.0
C2064 C 0.01957 0.11234 0.95539 0.0
H2065 H 0.00096 0.18702 0.87821 0.0
H2066 H 0.00553 0.16493 0.8963 0.0
C2067 C 0.02201 0.10005 0.96615 0.0
C2068 C 0.02138 0.14121 0.94821 0.0
H2069 H 0.99262 0.16044 0.92707 0.0
C2070 C 0.03463 0.15013 0.94326 0.0
C2071 C 0.00603 0.14501 0.94237 0.0
C2072 C 0.99127 0.13635 0.94779 0.0
C2073 C 0.03296 0.16261 0.93248 0.0
C2074 C 0.01761 0.16642 0.92665 0.0
C2075 C 0.00438 0.15746 0.93153 0.0
C2076 C 0.01501 0.17982 0.91567 0.0
C2077 C 0.04766 0.17147 0.92719 0.0
C2078 C 0.01866 0.19552 0.92064 0.0
C2079 C 0.01604 0.20817 0.91036 0.0
C2080 C 0.00967 0.20536 0.8949 0.0
C2081 C 0.00593 0.18961 0.89 0.0
C2082 C 0.00852 0.17696 0.90032 0.0
H2083 H 0.05863 0.16465 0.92955 0.0
H2084 H 0.04685 0.17406 0.91428 0.0
H2085 H 0.04879 0.18297 0.93386 0.0
H2086 H 0.02342 0.19802 0.93254 0.0
H2087 H 0.019 0.22015 0.91456 0.0
H2088 H 0.36676 0.30125 0.23898 0.0
H2089 H 0.38899 0.2973 0.22132 0.0
H2090 H 0.40953 0.26427 0.25431 0.0
H2091 H 0.38684 0.26764 0.27185 0.0
H2092 H 0.42114 0.30298 0.22735 0.0
H2093 H 0.40858 0.23906 0.21214 0.0
H2094 H 0.39421 0.25144 0.22177 0.0
H2095 H 0.41089 0.24414 0.23296 0.0
C2096 C 0.37585 0.29294 0.2424 0.0
C2097 C 0.37491 0.2846 0.25674 0.0
C2098 C 0.38864 0.29082 0.23236 0.0
C2099 C 0.40081 0.28038 0.23643 0.0
C2100 C 0.40012 0.27221 0.25085 0.0
H2101 H 0.47879 0.26054 0.17026 0.0
H2102 H 0.46484 0.26254 0.19564 0.0
C2103 C 0.38724 0.27427 0.26091 0.0
C2104 C 0.41409 0.27821 0.22536 0.0
H2105 H 0.42954 0.25167 0.1989 0.0
C2106 C 0.42316 0.2917 0.2213 0.0
C2107 C 0.41671 0.26346 0.21755 0.0
C2108 C 0.40705 0.24869 0.22119 0.0
C2109 C 0.43424 0.291 0.2091 0.0
C2110 C 0.43626 0.27648 0.20077 0.0
C2111 C 0.42793 0.26276 0.20542 0.0
C2112 C 0.44524 0.27582 0.18589 0.0
C2113 C 0.44329 0.30592 0.20474 0.0
C2114 C 0.43875 0.28259 0.17215 0.0
C2115 C 0.44652 0.28135 0.15771 0.0
C2116 C 0.46102 0.27337 0.15676 0.0
C2117 C 0.46767 0.26682 0.17065 0.0
C2118 C 0.45974 0.26792 0.18511 0.0
H2119 H 0.44318 0.31508 0.21444 0.0
H2120 H 0.45582 0.30319 0.202 0.0
H2121 H 0.4377 0.311 0.19391 0.0
H2122 H 0.42748 0.28862 0.17255 0.0
H2123 H 0.4411 0.28656 0.14725 0.0
H2124 H 0.53231 0.37475 0.98425 0.0
H2125 H 0.52715 0.35639 0.00593 0.0
H2126 H 0.55982 0.38335 0.03671 0.0
H2127 H 0.5647 0.40206 0.01526 0.0
H2128 H 0.54821 0.33753 0.02452 0.0
H2129 H 0.51746 0.38319 0.06081 0.0
H2130 H 0.52159 0.38588 0.04001 0.0
H2131 H 0.53727 0.3883 0.05476 0.0
C2132 C 0.53838 0.37679 0.99564 0.0
C2133 C 0.54881 0.38994 0.99808 0.0
C2134 C 0.53551 0.36623 0.00796 0.0
C2135 C 0.54296 0.36865 0.02294 0.0
C2136 C 0.55381 0.38141 0.02528 0.0
H2137 H 0.52897 0.29747 0.09781 0.0
H2138 H 0.54231 0.31698 0.08095 0.0
C2139 C 0.55669 0.39199 0.01296 0.0
C2140 C 0.53877 0.35815 0.03623 0.0
H2141 H 0.5188 0.35745 0.07119 0.0
C2142 C 0.54196 0.34187 0.03484 0.0
C2143 C 0.53053 0.36392 0.04959 0.0
C2144 C 0.52637 0.38125 0.05142 0.0
C2145 C 0.53671 0.33108 0.04627 0.0
C2146 C 0.52821 0.33681 0.05947 0.0
C2147 C 0.52544 0.35316 0.0611 0.0
C2148 C 0.52048 0.32586 0.07066 0.0
C2149 C 0.5396 0.31355 0.04375 0.0
C2150 C 0.50383 0.32479 0.07077 0.0
C2151 C 0.4962 0.31376 0.08035 0.0
C2152 C 0.50508 0.30359 0.09007 0.0
C2153 C 0.52179 0.30509 0.0904 0.0
C2154 C 0.52944 0.31615 0.08074 0.0
H2155 H 0.54422 0.31087 0.03172 0.0
H2156 H 0.54845 0.30958 0.05276 0.0
H2157 H 0.52843 0.30652 0.04532 0.0
H2158 H 0.49672 0.33223 0.0631 0.0
H2159 H 0.48333 0.31301 0.07987 0.0
H2160 H 0.65979 0.25751 0.21889 0.0
H2161 H 0.63683 0.26294 0.20165 0.0
H2162 H 0.61401 0.21933 0.21629 0.0
H2163 H 0.63651 0.21422 0.23422 0.0
H2164 H 0.62394 0.24617 0.1765 0.0
H2165 H 0.5797 0.25125 0.22433 0.0
H2166 H 0.60083 0.25091 0.22848 0.0
H2167 H 0.58985 0.23267 0.22426 0.0
C2168 C 0.64979 0.24918 0.21865 0.0
C2169 C 0.64995 0.2355 0.22809 0.0
C2170 C 0.63674 0.25224 0.20867 0.0
C2171 C 0.62359 0.24169 0.2079 0.0
C2172 C 0.62387 0.22782 0.21697 0.0
H2173 H 0.53558 0.23957 0.15163 0.0
H2174 H 0.55889 0.23277 0.16793 0.0
C2175 C 0.63686 0.22481 0.22705 0.0
C2176 C 0.60967 0.24517 0.19748 0.0
H2177 H 0.56958 0.25102 0.19768 0.0
C2178 C 0.61207 0.24728 0.18114 0.0
C2179 C 0.59419 0.24667 0.20358 0.0
C2180 C 0.59097 0.24541 0.22114 0.0
C2181 C 0.59937 0.25068 0.1707 0.0
C2182 C 0.58393 0.25204 0.1768 0.0
C2183 C 0.58147 0.24987 0.19309 0.0
C2184 C 0.57016 0.25603 0.1665 0.0
C2185 C 0.60246 0.25264 0.15321 0.0
C2186 C 0.56883 0.27139 0.1604 0.0
C2187 C 0.55549 0.27536 0.15119 0.0
C2188 C 0.5433 0.26401 0.14788 0.0
C2189 C 0.54478 0.24857 0.15391 0.0
C2190 C 0.55806 0.24466 0.16323 0.0
H2191 H 0.61445 0.24851 0.14996 0.0
H2192 H 0.59336 0.24594 0.14586 0.0
H2193 H 0.60163 0.26541 0.1502 0.0
H2194 H 0.578 0.28036 0.16296 0.0
H2195 H 0.55472 0.28735 0.14673 0.0
H2196 H 0.49329 0.11915 0.00112 0.0
H2197 H 0.49939 0.14149 0.01952 0.0
H2198 H 0.45618 0.13148 0.04461 0.0
H2199 H 0.45004 0.10916 0.02633 0.0
H2200 H 0.48152 0.16773 0.02369 0.0
H2201 H 0.48855 0.13684 0.08103 0.0
H2202 H 0.4888 0.12646 0.06201 0.0
H2203 H 0.47019 0.1315 0.07083 0.0
C2204 C 0.48514 0.12168 0.01061 0.0
C2205 C 0.4712 0.1124 0.01231 0.0
C2206 C 0.48868 0.13437 0.02115 0.0
C2207 C 0.47838 0.13795 0.03359 0.0
C2208 C 0.46452 0.12864 0.03538 0.0
H2209 H 0.4591 0.22648 0.079 0.0
H2210 H 0.45984 0.20176 0.06342 0.0
C2211 C 0.461 0.11593 0.02489 0.0
C2212 C 0.48135 0.15223 0.04386 0.0
H2213 H 0.48373 0.16497 0.0827 0.0
C2214 C 0.48223 0.16711 0.03658 0.0
C2215 C 0.48249 0.15137 0.06067 0.0
C2216 C 0.48263 0.13566 0.06909 0.0
C2217 C 0.48346 0.18123 0.04568 0.0
C2218 C 0.48352 0.18042 0.06249 0.0
C2219 C 0.48344 0.16553 0.06979 0.0
C2220 C 0.48291 0.19495 0.0726 0.0
C2221 C 0.48451 0.19691 0.03722 0.0
C2222 C 0.4954 0.19898 0.08335 0.0
C2223 C 0.49499 0.21311 0.09238 0.0
C2224 C 0.48203 0.22335 0.09083 0.0
C2225 C 0.46932 0.21895 0.0804 0.0
C2226 C 0.46975 0.20487 0.07142 0.0
H2227 H 0.48885 0.19537 0.02489 0.0
H2228 H 0.4725 0.20212 0.03646 0.0
H2229 H 0.49256 0.20549 0.0438 0.0
H2230 H 0.5056 0.19137 0.0845 0.0
H2231 H 0.50495 0.21612 0.10035 0.0
H2232 H 0.25356 0.3628 0.70234 0.0
H2233 H 0.26934 0.38764 0.70365 0.0
H2234 H 0.3032 0.36579 0.73537 0.0
H2235 H 0.28764 0.34093 0.73389 0.0
H2236 H 0.27582 0.40629 0.72872 0.0
H2237 H 0.33272 0.38626 0.70444 0.0
H2238 H 0.31463 0.37437 0.7026 0.0
H2239 H 0.32666 0.37403 0.72061 0.0
C2240 C 0.26442 0.3633 0.70952 0.0
C2241 C 0.2694 0.34991 0.71797 0.0
C2242 C 0.27347 0.37745 0.71019 0.0
C2243 C 0.28764 0.3785 0.71934 0.0
C2244 C 0.2926 0.36514 0.72781 0.0
H2245 H 0.33021 0.45657 0.76974 0.0
H2246 H 0.31497 0.43379 0.75905 0.0
C2247 C 0.28365 0.35096 0.72704 0.0
C2248 C 0.29659 0.39386 0.7211 0.0
H2249 H 0.33403 0.41038 0.72065 0.0
C2250 C 0.2885 0.40723 0.72669 0.0
C2251 C 0.31308 0.39525 0.71816 0.0
C2252 C 0.32223 0.38174 0.71095 0.0
C2253 C 0.2966 0.42163 0.73031 0.0
C2254 C 0.3133 0.42258 0.72866 0.0
C2255 C 0.32126 0.40955 0.72215 0.0
C2256 C 0.32279 0.4365 0.73485 0.0
C2257 C 0.2872 0.43563 0.73609 0.0
C2258 C 0.33275 0.4453 0.72489 0.0
C2259 C 0.34168 0.45836 0.73102 0.0
C2260 C 0.34084 0.46275 0.74724 0.0
C2261 C 0.33105 0.45368 0.75717 0.0
C2262 C 0.32222 0.44067 0.75106 0.0
H2263 H 0.27467 0.43483 0.73163 0.0
H2264 H 0.28703 0.43567 0.74931 0.0
H2265 H 0.29256 0.44708 0.73225 0.0
H2266 H 0.33348 0.44215 0.71236 0.0
H2267 H 0.34915 0.46506 0.72308 0.0
H2268 H 0.26263 0.65129 0.74361 0.0
H2269 H 0.27996 0.62846 0.74024 0.0
H2270 H 0.30213 0.63886 0.78613 0.0
H2271 H 0.28479 0.66163 0.78967 0.0
H2272 H 0.32387 0.63043 0.76152 0.0
H2273 H 0.27307 0.58739 0.76586 0.0
H2274 H 0.27092 0.60229 0.75091 0.0
H2275 H 0.2716 0.6081 0.77161 0.0
C2276 C 0.27118 0.64871 0.753 0.0
C2277 C 0.27222 0.65819 0.76698 0.0
C2278 C 0.2811 0.6357 0.75102 0.0
C2279 C 0.29217 0.63188 0.76302 0.0
C2280 C 0.29366 0.64163 0.77673 0.0
H2281 H 0.33466 0.54426 0.78736 0.0
H2282 H 0.32094 0.56942 0.78551 0.0
C2283 C 0.28376 0.65466 0.77871 0.0
C2284 C 0.30165 0.61726 0.76171 0.0
H2285 H 0.29827 0.57671 0.76136 0.0
C2286 C 0.31831 0.61867 0.76137 0.0
C2287 C 0.29432 0.60197 0.76167 0.0
C2288 C 0.27651 0.59975 0.76266 0.0
C2289 C 0.32786 0.60512 0.76113 0.0
C2290 C 0.3205 0.58984 0.76112 0.0
C2291 C 0.30385 0.58847 0.76125 0.0
C2292 C 0.32977 0.57509 0.76224 0.0
C2293 C 0.34572 0.6072 0.76144 0.0
C2294 C 0.33939 0.56997 0.74976 0.0
C2295 C 0.34732 0.55549 0.75076 0.0
C2296 C 0.34566 0.5459 0.76423 0.0
C2297 C 0.33619 0.55127 0.77677 0.0
C2298 C 0.32832 0.56567 0.77576 0.0
H2299 H 0.34953 0.61972 0.76409 0.0
H2300 H 0.35118 0.5994 0.7705 0.0
H2301 H 0.35037 0.6037 0.74964 0.0
H2302 H 0.34049 0.577 0.73913 0.0
H2303 H 0.35448 0.55168 0.74088 0.0
H2304 H 0.89278 0.48517 0.47901 0.0
H2305 H 0.87046 0.46778 0.4859 0.0
H2306 H 0.83797 0.49882 0.46173 0.0
H2307 H 0.86038 0.51632 0.45469 0.0
H2308 H 0.8443 0.47565 0.50393 0.0
H2309 H 0.8258 0.45486 0.44282 0.0
H2310 H 0.84473 0.46473 0.44699 0.0
H2311 H 0.82684 0.47604 0.44618 0.0
C2312 C 0.88088 0.48831 0.47517 0.0
C2313 C 0.87831 0.50212 0.46635 0.0
C2314 C 0.86815 0.47835 0.47908 0.0
C2315 C 0.85259 0.48196 0.47424 0.0
C2316 C 0.84993 0.49569 0.46535 0.0
H2317 H 0.76956 0.41987 0.49471 0.0
H2318 H 0.78476 0.44403 0.4879 0.0
C2319 C 0.86272 0.50566 0.46134 0.0
C2320 C 0.83927 0.47135 0.47893 0.0
H2321 H 0.81178 0.44414 0.46422 0.0
C2322 C 0.83705 0.46891 0.49525 0.0
C2323 C 0.82977 0.46265 0.46757 0.0
C2324 C 0.8319 0.46456 0.4499 0.0
C2325 C 0.82604 0.45752 0.5005 0.0
C2326 C 0.81711 0.44831 0.48914 0.0
C2327 C 0.81867 0.4513 0.47286 0.0
C2328 C 0.80766 0.43423 0.49388 0.0
C2329 C 0.82437 0.45504 0.51814 0.0
C2330 C 0.81557 0.42082 0.49943 0.0
C2331 C 0.80702 0.40706 0.50317 0.0
C2332 C 0.79035 0.40645 0.50151 0.0
C2333 C 0.78239 0.42002 0.49619 0.0
C2334 C 0.79102 0.43378 0.49226 0.0
H2335 H 0.82898 0.46549 0.52525 0.0
H2336 H 0.81174 0.45276 0.52112 0.0
H2337 H 0.83128 0.4445 0.52168 0.0
H2338 H 0.82844 0.42092 0.50059 0.0
H2339 H 0.81352 0.39685 0.50726 0.0
H2340 H 0.76891 0.88482 0.79628 0.0
H2341 H 0.74971 0.90585 0.79144 0.0
H2342 H 0.72122 0.87346 0.76178 0.0
H2343 H 0.7405 0.85247 0.76628 0.0
H2344 H 0.72535 0.90589 0.74981 0.0
H2345 H 0.70504 0.90312 0.81246 0.0
H2346 H 0.72606 0.90594 0.80968 0.0
H2347 H 0.71647 0.88754 0.80342 0.0
C2348 C 0.75871 0.88227 0.78849 0.0
C2349 C 0.75612 0.86696 0.78176 0.0
C2350 C 0.74772 0.89425 0.78584 0.0
C2351 C 0.73401 0.8911 0.77642 0.0
C2352 C 0.73173 0.87606 0.76914 0.0
H2353 H 0.64151 0.92905 0.76996 0.0
H2354 H 0.66568 0.91373 0.77307 0.0
C2355 C 0.74267 0.86407 0.77182 0.0
C2356 C 0.72151 0.9031 0.77488 0.0
H2357 H 0.69219 0.92111 0.79562 0.0
C2358 C 0.71819 0.90939 0.75982 0.0
C2359 C 0.71216 0.90746 0.78799 0.0
C2360 C 0.71497 0.90062 0.80431 0.0
C2361 C 0.70552 0.9198 0.75749 0.0
C2362 C 0.69607 0.92399 0.77058 0.0
C2363 C 0.69958 0.91792 0.78567 0.0
C2364 C 0.68166 0.93356 0.76861 0.0
C2365 C 0.70192 0.92577 0.74099 0.0
C2366 C 0.68272 0.94982 0.7652 0.0
C2367 C 0.6689 0.95868 0.76347 0.0
C2368 C 0.65383 0.95136 0.76509 0.0
C2369 C 0.6529 0.93506 0.76859 0.0
C2370 C 0.66669 0.92628 0.77039 0.0
H2371 H 0.70912 0.91979 0.73179 0.0
H2372 H 0.68911 0.92386 0.73789 0.0
H2373 H 0.70451 0.93876 0.74068 0.0
H2374 H 0.69422 0.95564 0.76395 0.0
H2375 H 0.67001 0.97121 0.76078 0.0
H2376 H 0.61042 0.50907 0.99391 0.0
H2377 H 0.63077 0.52855 0.00286 0.0
H2378 H 0.62597 0.55287 0.95822 0.0
H2379 H 0.6051 0.53391 0.94949 0.0
H2380 H 0.65851 0.53166 0.98875 0.0
H2381 H 0.62968 0.59014 0.98896 0.0
H2382 H 0.61841 0.5716 0.98849 0.0
H2383 H 0.62604 0.57972 0.97038 0.0
C2384 C 0.61331 0.51886 0.9862 0.0
C2385 C 0.60619 0.51988 0.97094 0.0
C2386 C 0.625 0.52995 0.99131 0.0
C2387 C 0.62977 0.54228 0.98129 0.0
C2388 C 0.62225 0.54369 0.96631 0.0
H2389 H 0.71977 0.58161 0.96343 0.0
H2390 H 0.69423 0.56764 0.9652 0.0
C2391 C 0.6105 0.53267 0.96122 0.0
C2392 C 0.644 0.55228 0.98548 0.0
H2393 H 0.65837 0.59058 0.98569 0.0
C2394 C 0.65839 0.54456 0.98842 0.0
C2395 C 0.64385 0.56911 0.98525 0.0
C2396 C 0.62861 0.57811 0.98327 0.0
C2397 C 0.67277 0.55315 0.9901 0.0
C2398 C 0.67278 0.56986 0.98851 0.0
C2399 C 0.65831 0.57772 0.98665 0.0
C2400 C 0.68783 0.57908 0.98736 0.0
C2401 C 0.68792 0.54424 0.99308 0.0
C2402 C 0.69242 0.5905 0.99903 0.0
C2403 C 0.70707 0.59859 0.99807 0.0
C2404 C 0.71725 0.59541 0.98534 0.0
C2405 C 0.7123 0.58428 0.97345 0.0
C2406 C 0.69773 0.57623 0.97445 0.0
H2407 H 0.6855 0.53248 0.99849 0.0
H2408 H 0.69384 0.54211 0.98157 0.0
H2409 H 0.69627 0.5512 0.00105 0.0
H2410 H 0.68483 0.5929 0.00902 0.0
H2411 H 0.71051 0.60713 0.00738 0.0
H2412 H 0.20713 0.65531 0.217 0.0
H2413 H 0.18873 0.63289 0.22096 0.0
H2414 H 0.22272 0.61192 0.25314 0.0
H2415 H 0.24091 0.63458 0.24978 0.0
H2416 H 0.1931 0.60104 0.2146 0.0
H2417 H 0.18237 0.61104 0.27893 0.0
H2418 H 0.19165 0.62592 0.26675 0.0
H2419 H 0.20305 0.60971 0.27434 0.0
C2420 C 0.2106 0.64606 0.22512 0.0
C2421 C 0.22547 0.6468 0.23315 0.0
C2422 C 0.20011 0.6332 0.22728 0.0
C2423 C 0.20425 0.62087 0.23754 0.0
C2424 C 0.21914 0.62147 0.24542 0.0
H2425 H 0.16277 0.53004 0.26242 0.0
H2426 H 0.17974 0.55366 0.25903 0.0
C2427 C 0.22962 0.63434 0.24331 0.0
C2428 C 0.19319 0.60716 0.23963 0.0
H2429 H 0.17298 0.58633 0.2676 0.0
C2430 C 0.1886 0.59789 0.22616 0.0
C2431 C 0.18734 0.60309 0.25473 0.0
C2432 C 0.19122 0.61304 0.2695 0.0
C2433 C 0.17859 0.58443 0.22746 0.0
C2434 C 0.17292 0.58026 0.24259 0.0
C2435 C 0.17741 0.58957 0.25604 0.0
C2436 C 0.16246 0.56613 0.24474 0.0
C2437 C 0.17448 0.57453 0.21272 0.0
C2438 C 0.14705 0.56545 0.238 0.0
C2439 C 0.13728 0.55199 0.23994 0.0
C2440 C 0.14279 0.53898 0.24867 0.0
C2441 C 0.15818 0.53982 0.25558 0.0
C2442 C 0.1679 0.55331 0.25368 0.0
H2443 H 0.18242 0.57738 0.20271 0.0
H2444 H 0.17527 0.56163 0.21524 0.0
H2445 H 0.16206 0.57691 0.20884 0.0
H2446 H 0.14256 0.57535 0.23126 0.0
H2447 H 0.12548 0.55175 0.23451 0.0
H2448 H 0.89951 0.52052 0.06361 0.0
H2449 H 0.87949 0.54096 0.05999 0.0
H2450 H 0.85371 0.51019 0.02638 0.0
H2451 H 0.87351 0.48955 0.03018 0.0
H2452 H 0.87262 0.55506 0.03076 0.0
H2453 H 0.81867 0.52676 0.05555 0.0
H2454 H 0.83851 0.52003 0.06008 0.0
H2455 H 0.82865 0.51418 0.04161 0.0
C2456 C 0.88938 0.51796 0.05573 0.0
C2457 C 0.88805 0.50341 0.0472 0.0
C2458 C 0.87801 0.52968 0.05363 0.0
C2459 C 0.86504 0.527 0.04308 0.0
C2460 C 0.86348 0.51237 0.0348 0.0
H2461 H 0.80873 0.58389 0.9841 0.0
H2462 H 0.82862 0.56773 0.99735 0.0
C2463 C 0.87488 0.50067 0.03685 0.0
C2464 C 0.8539 0.53995 0.0396 0.0
H2465 H 0.81445 0.54871 0.03807 0.0
C2466 C 0.85993 0.5538 0.0326 0.0
C2467 C 0.83739 0.53835 0.0422 0.0
C2468 C 0.83041 0.52409 0.05042 0.0
C2469 C 0.84975 0.56571 0.02729 0.0
C2470 C 0.83316 0.56361 0.02892 0.0
C2471 C 0.82719 0.55021 0.03674 0.0
C2472 C 0.82177 0.57436 0.02121 0.0
C2473 C 0.85678 0.58026 0.0196 0.0
C2474 C 0.81129 0.58339 0.03029 0.0
C2475 C 0.79989 0.59274 0.02273 0.0
C2476 C 0.79866 0.59294 0.00599 0.0
C2477 C 0.80934 0.584 0.997 0.0
C2478 C 0.82078 0.57481 0.00455 0.0
H2479 H 0.86948 0.58219 0.02315 0.0
H2480 H 0.85607 0.57864 0.00645 0.0
H2481 H 0.85007 0.59107 0.02281 0.0
H2482 H 0.81184 0.58308 0.04319 0.0
H2483 H 0.79178 0.59944 0.02998 0.0
H2484 H 0.123 0.00151 0.04525 0.0
H2485 H 0.14522 0.9832 0.04312 0.0
H2486 H 0.11625 0.95161 0.01308 0.0
H2487 H 0.09392 0.9698 0.01523 0.0
H2488 H 0.13385 0.93712 0.04017 0.0
H2489 H 0.17148 0.97479 0.00151 0.0
H2490 H 0.16351 0.98445 0.01881 0.0
H2491 H 0.15028 0.97737 0.00307 0.0
C2492 C 0.12134 0.99064 0.03824 0.0
C2493 C 0.10671 0.98712 0.03038 0.0
C2494 C 0.13407 0.98026 0.03694 0.0
C2495 C 0.13239 0.96614 0.02783 0.0
C2496 C 0.11779 0.9625 0.02009 0.0
H2497 H 0.20557 0.9008 0.99806 0.0
H2498 H 0.18249 0.9181 0.9993 0.0
C2499 C 0.10509 0.97294 0.02127 0.0
C2500 C 0.14581 0.95506 0.02658 0.0
H2501 H 0.18299 0.95138 0.01151 0.0
C2502 C 0.14459 0.9402 0.03388 0.0
C2503 C 0.15972 0.9591 0.01826 0.0
C2504 C 0.16138 0.97474 0.00984 0.0
C2505 C 0.15708 0.92936 0.03332 0.0
C2506 C 0.17113 0.93353 0.02528 0.0
C2507 C 0.17223 0.94827 0.01773 0.0
C2508 C 0.18487 0.92278 0.02466 0.0
C2509 C 0.15517 0.91347 0.04122 0.0
C2510 C 0.19386 0.91976 0.03851 0.0
C2511 C 0.2071 0.90997 0.03784 0.0
C2512 C 0.21156 0.90297 0.0233 0.0
C2513 C 0.20243 0.90595 0.00946 0.0
C2514 C 0.18927 0.91585 0.01013 0.0
H2515 H 0.14259 0.91082 0.04418 0.0
H2516 H 0.15951 0.90376 0.0334 0.0
H2517 H 0.16239 0.91355 0.05245 0.0
H2518 H 0.19075 0.92515 0.04981 0.0
H2519 H 0.21387 0.90795 0.04871 0.0
loop_
_geom_bond_atom_site_label_1
_geom_bond_atom_site_label_2
_geom_bond_distance
_geom_bond_site_symmetry_2
_ccdc_geom_bond_type
C0 C1 1.386 1_556 S
C0 C2 1.397 1_556 S
C0 H24 0.931 . S
C1 C0 1.386 1_554 S
C1 C5 1.397 . S
C2 C0 1.397 1_554 S
C2 C3 1.384 . S
C2 H25 0.930 . S
C3 C2 1.384 . S
C3 C4 1.377 . S
C3 C6 1.481 . S
C4 C3 1.377 . S
C4 C5 1.389 . S
C4 H26 0.929 . S
C5 C1 1.397 . S
C5 C4 1.389 . S
C5 H27 0.931 . S
C6 C3 1.481 . S
C6 C7 1.387 . S
C6 C11 1.390 . S
C7 C6 1.387 . S
C7 C8 1.401 . S
C7 H28 0.930 . S
C8 C7 1.401 . S
C8 C9 1.376 . S
C8 C17 1.511 . S
C9 C8 1.376 . S
C9 C10 1.392 . S
C9 H30 0.931 . S
C10 C9 1.392 . S
C10 C11 1.361 . S
C10 C12 1.500 . S
C11 C6 1.390 . S
C11 C10 1.361 . S
C11 H29 0.931 . S
C12 C10 1.500 . S
C12 C13 1.371 . S
C12 C14 1.365 . S
C13 C12 1.371 . S
C13 C23 1.386 . S
C13 H31 0.931 . S
C14 C12 1.365 . S
C14 C15 1.409 . S
C14 H32 0.929 . S
C15 C14 1.409 . S
C15 C16 1.380 . S
C15 H33 0.915 1_455 S
C16 C15 1.380 . S
C16 C23 1.357 . S
C17 C8 1.511 . S
C17 C18 1.341 . S
C17 C19 1.371 . S
C18 C17 1.341 . S
C18 C22 1.394 . S
C18 H34 0.930 . S
C19 C17 1.371 . S
C19 C20 1.392 . S
C19 H35 0.931 . S
C20 C19 1.392 . S
C20 C21 1.333 . S
C20 H38 0.932 1_545 S
C21 C20 1.333 . S
C21 C22 1.370 . S
C22 C18 1.394 . S
C22 C21 1.370 . S
C22 H37 0.929 . S
C23 C13 1.386 . S
C23 C16 1.357 . S
C23 H36 0.928 . S
H24 C0 0.931 . S
H25 C2 0.930 . S
H26 C4 0.929 . S
H27 C5 0.931 . S
H28 C7 0.930 . S
H29 C11 0.931 . S
H30 C9 0.931 . S
H31 C13 0.931 . S
H32 C14 0.929 . S
H33 C15 0.915 1_655 S
H34 C18 0.930 . S
H35 C19 0.931 . S
H36 C23 0.928 . S
H37 C22 0.929 . S
H38 C20 0.932 1_565 S
C39 C40 1.386 . S
C39 C41 1.397 . S
C39 H63 0.931 . S
C40 C39 1.386 . S
C40 C44 1.397 . S
C41 C39 1.397 . S
C41 C42 1.384 . S
C41 H64 0.930 . S
C42 C41 1.384 . S
C42 C43 1.377 . S
C42 C45 1.481 . S
C43 C42 1.377 . S
C43 C44 1.389 . S
C43 H65 0.929 . S
C44 C40 1.397 . S
C44 C43 1.389 . S
C44 H66 0.931 . S
C45 C42 1.481 . S
C45 C46 1.387 . S
C45 C50 1.390 . S
C46 C45 1.387 . S
C46 C47 1.401 . S
C46 H67 0.930 . S
C47 C46 1.401 . S
C47 C48 1.376 . S
C47 C56 1.511 . S
C48 C47 1.376 . S
C48 C49 1.392 . S
C48 H69 0.931 . S
C49 C48 1.392 . S
C49 C50 1.361 . S
C49 C51 1.500 . S
C50 C45 1.390 . S
C50 C49 1.361 . S
C50 H68 0.931 . S
C51 C49 1.500 . S
C51 C52 1.371 . S
C51 C53 1.365 . S
C52 C51 1.371 . S
C52 C62 1.386 . S
C52 H70 0.931 . S
C53 C51 1.365 . S
C53 C54 1.409 . S
C53 H71 0.929 . S
C54 C53 1.409 . S
C54 C55 1.380 . S
C54 H72 0.930 . S
C55 C54 1.380 . S
C55 C62 1.357 . S
C56 C47 1.511 . S
C56 C57 1.341 . S
C56 C58 1.371 . S
C57 C56 1.341 . S
C57 C61 1.394 . S
C57 H73 0.930 . S
C58 C56 1.371 . S
C58 C59 1.392 . S
C58 H74 0.931 . S
C59 C58 1.392 . S
C59 C60 1.331 . S
C59 H77 0.932 . S
C60 C59 1.331 . S
C60 C61 1.336 . S
C61 C57 1.394 . S
C61 C60 1.336 . S
C61 H76 0.929 . S
C62 C52 1.386 . S
C62 C55 1.357 . S
C62 H75 0.928 . S
H63 C39 0.931 . S
H64 C41 0.930 . S
H65 C43 0.929 . S
H66 C44 0.931 . S
H67 C46 0.930 . S
H68 C50 0.931 . S
H69 C48 0.931 . S
H70 C52 0.931 . S
H71 C53 0.929 . S
H72 C54 0.930 . S
H73 C57 0.930 . S
H74 C58 0.931 . S
H75 C62 0.928 . S
H76 C61 0.929 . S
H77 C59 0.932 . S
C78 C79 1.386 . S
C78 C80 1.397 . S
C78 H102 0.931 . S
C79 C78 1.386 . S
C79 C83 1.397 . S
C80 C78 1.397 . S
C80 C81 1.384 . S
C80 H103 0.930 . S
C81 C80 1.384 . S
C81 C82 1.377 . S
C81 C84 1.481 . S
C82 C81 1.377 . S
C82 C83 1.389 . S
C82 H104 0.929 . S
C83 C79 1.397 . S
C83 C82 1.389 . S
C83 H105 0.931 1_655 S
C84 C81 1.481 . S
C84 C85 1.387 . S
C84 C89 1.390 . S
C85 C84 1.387 . S
C85 C86 1.401 . S
C85 H106 0.930 . S
C86 C85 1.401 . S
C86 C87 1.376 . S
C86 C95 1.511 . S
C87 C86 1.376 . S
C87 C88 1.392 . S
C87 H108 0.931 . S
C88 C87 1.392 . S
C88 C89 1.361 . S
C88 C90 1.500 . S
C89 C84 1.390 . S
C89 C88 1.361 . S
C89 H107 0.931 . S
C90 C88 1.500 . S
C90 C91 1.371 . S
C90 C92 1.365 . S
C91 C90 1.371 . S
C91 C101 1.386 . S
C91 H109 0.931 . S
C92 C90 1.365 . S
C92 C93 1.409 . S
C92 H110 0.929 . S
C93 C92 1.409 . S
C93 C94 1.380 . S
C93 H111 0.930 . S
C94 C93 1.380 . S
C94 C101 1.357 . S
C95 C86 1.511 . S
C95 C96 1.341 . S
C95 C97 1.371 . S
C96 C95 1.341 . S
C96 C100 1.394 . S
C96 H112 0.930 . S
C97 C95 1.371 . S
C97 C98 1.392 . S
C97 H113 0.931 . S
C98 C97 1.392 . S
C98 C99 1.331 . S
C98 H116 0.932 . S
C99 C98 1.331 . S
C99 C100 1.336 . S
C100 C96 1.394 . S
C100 C99 1.336 . S
C100 H115 0.929 . S
C101 C91 1.386 . S
C101 C94 1.357 . S
C101 H114 0.928 . S
H102 C78 0.931 . S
H103 C80 0.930 . S
H104 C82 0.929 . S
H105 C83 0.931 1_455 S
H106 C85 0.930 . S
H107 C89 0.931 . S
H108 C87 0.931 . S
H109 C91 0.931 . S
H110 C92 0.929 . S
H111 C93 0.930 . S
H112 C96 0.930 . S
H113 C97 0.931 . S
H114 C101 0.928 . S
H115 C100 0.929 . S
H116 C98 0.932 . S
C117 C118 1.386 . S
C117 C119 1.397 . S
C117 H141 0.931 . S
C118 C117 1.386 . S
C118 C122 1.397 . S
C119 C117 1.397 . S
C119 C120 1.384 . S
C119 H142 0.930 . S
C120 C119 1.384 . S
C120 C121 1.377 . S
C120 C123 1.481 . S
C121 C120 1.377 . S
C121 C122 1.389 . S
C121 H143 0.929 . S
C122 C118 1.397 . S
C122 C121 1.389 . S
C122 H144 0.931 . S
C123 C120 1.481 . S
C123 C124 1.387 . S
C123 C128 1.390 . S
C124 C123 1.387 . S
C124 C125 1.401 . S
C124 H145 0.930 . S
C125 C124 1.401 . S
C125 C126 1.376 . S
C125 C134 1.511 . S
C126 C125 1.376 . S
C126 C127 1.392 . S
C126 H147 0.931 . S
C127 C126 1.392 . S
C127 C128 1.361 . S
C127 C129 1.500 . S
C128 C123 1.390 . S
C128 C127 1.361 . S
C128 H146 0.931 . S
C129 C127 1.500 . S
C129 C130 1.371 . S
C129 C131 1.365 . S
C130 C129 1.371 . S
C130 C140 1.386 . S
C130 H148 0.931 . S
C131 C129 1.365 . S
C131 C132 1.409 . S
C131 H149 0.929 . S
C132 C131 1.409 . S
C132 C133 1.380 . S
C132 H150 0.930 . S
C133 C132 1.380 . S
C133 C140 1.357 . S
C134 C125 1.511 . S
C134 C135 1.341 . S
C134 C136 1.371 . S
C135 C134 1.341 . S
C135 C139 1.394 . S
C135 H151 0.930 . S
C136 C134 1.371 . S
C136 C137 1.392 . S
C136 H152 0.931 . S
C137 C136 1.392 . S
C137 C138 1.331 . S
C137 H155 0.932 . S
C138 C137 1.331 . S
C138 C139 1.336 . S
C139 C135 1.394 . S
C139 C138 1.336 . S
C139 H154 0.929 . S
C140 C130 1.386 . S
C140 C133 1.357 . S
C140 H153 0.928 . S
H141 C117 0.931 . S
H142 C119 0.930 . S
H143 C121 0.929 . S
H144 C122 0.931 . S
H145 C124 0.930 . S
H146 C128 0.931 . S
H147 C126 0.931 . S
H148 C130 0.931 . S
H149 C131 0.929 . S
H150 C132 0.930 . S
H151 C135 0.930 . S
H152 C136 0.931 . S
H153 C140 0.928 . S
H154 C139 0.929 . S
H155 C137 0.932 . S
C156 C157 1.386 . S
C156 C158 1.397 . S
C156 H180 0.931 1_455 S
C157 C156 1.386 . S
C157 C161 1.397 . S
C158 C156 1.397 . S
C158 C159 1.384 . S
C158 H181 0.930 . S
C159 C158 1.384 . S
C159 C160 1.377 . S
C159 C162 1.481 . S
C160 C159 1.377 . S
C160 C161 1.389 . S
C160 H182 0.929 . S
C161 C157 1.397 . S
C161 C160 1.389 . S
C161 H183 0.931 . S
C162 C159 1.481 . S
C162 C163 1.387 . S
C162 C167 1.390 . S
C163 C162 1.387 . S
C163 C164 1.401 . S
C163 H184 0.930 . S
C164 C163 1.401 . S
C164 C165 1.376 . S
C164 C173 1.511 . S
C165 C164 1.376 . S
C165 C166 1.392 . S
C165 H186 0.931 . S
C166 C165 1.392 . S
C166 C167 1.361 . S
C166 C168 1.500 . S
C167 C162 1.390 . S
C167 C166 1.361 . S
C167 H185 0.931 . S
C168 C166 1.500 . S
C168 C169 1.371 . S
C168 C170 1.365 . S
C169 C168 1.371 . S
C169 C179 1.386 . S
C169 H187 0.931 . S
C170 C168 1.365 . S
C170 C171 1.409 . S
C170 H188 0.929 . S
C171 C170 1.409 . S
C171 C172 1.380 . S
C171 H189 0.930 . S
C172 C171 1.380 . S
C172 C179 1.357 . S
C173 C164 1.511 . S
C173 C174 1.341 . S
C173 C175 1.371 . S
C174 C173 1.341 . S
C174 C178 1.394 . S
C174 H190 0.930 . S
C175 C173 1.371 . S
C175 C176 1.392 . S
C175 H191 0.931 . S
C176 C175 1.392 . S
C176 C177 1.331 . S
C176 H194 0.932 . S
C177 C176 1.331 . S
C177 C178 1.336 . S
C178 C174 1.394 . S
C178 C177 1.336 . S
C178 H193 0.929 . S
C179 C169 1.386 . S
C179 C172 1.357 . S
C179 H192 0.928 . S
H180 C156 0.931 1_655 S
H181 C158 0.930 . S
H182 C160 0.929 . S
H183 C161 0.931 . S
H184 C163 0.930 . S
H185 C167 0.931 . S
H186 C165 0.931 . S
H187 C169 0.931 . S
H188 C170 0.929 . S
H189 C171 0.930 . S
H190 C174 0.930 . S
H191 C175 0.931 . S
H192 C179 0.928 . S
H193 C178 0.929 . S
H194 C176 0.932 . S
C195 C196 1.386 . S
C195 C197 1.397 . S
C195 H219 0.931 . S
C196 C195 1.386 . S
C196 C200 1.397 . S
C197 C195 1.397 . S
C197 C198 1.384 . S
C197 H220 0.930 . S
C198 C197 1.384 . S
C198 C199 1.377 . S
C198 C201 1.481 . S
C199 C198 1.377 . S
C199 C200 1.389 . S
C199 H221 0.929 . S
C200 C196 1.397 . S
C200 C199 1.389 . S
C200 H222 0.931 . S
C201 C198 1.481 . S
C201 C202 1.387 . S
C201 C206 1.390 . S
C202 C201 1.387 . S
C202 C203 1.401 . S
C202 H223 0.930 . S
C203 C202 1.401 . S
C203 C204 1.376 . S
C203 C212 1.511 . S
C204 C203 1.376 . S
C204 C205 1.392 . S
C204 H225 0.931 . S
C205 C204 1.392 . S
C205 C206 1.361 . S
C205 C207 1.500 . S
C206 C201 1.390 . S
C206 C205 1.361 . S
C206 H224 0.931 . S
C207 C205 1.500 . S
C207 C208 1.371 . S
C207 C209 1.365 . S
C208 C207 1.371 . S
C208 C218 1.386 . S
C208 H226 0.931 . S
C209 C207 1.365 . S
C209 C210 1.409 . S
C209 H227 0.929 . S
C210 C209 1.409 . S
C210 C211 1.380 . S
C210 H228 0.930 . S
C211 C210 1.380 . S
C211 C218 1.357 . S
C212 C203 1.511 . S
C212 C213 1.341 . S
C212 C214 1.371 . S
C213 C212 1.341 . S
C213 C217 1.394 . S
C213 H229 0.930 . S
C214 C212 1.371 . S
C214 C215 1.392 . S
C214 H230 0.931 . S
C215 C214 1.392 . S
C215 C216 1.331 . S
C215 H233 0.932 . S
C216 C215 1.331 . S
C216 C217 1.336 . S
C217 C213 1.394 . S
C217 C216 1.336 . S
C217 H232 0.929 . S
C218 C208 1.386 . S
C218 C211 1.357 . S
C218 H231 0.928 . S
H219 C195 0.931 . S
H220 C197 0.930 . S
H221 C199 0.929 . S
H222 C200 0.931 . S
H223 C202 0.930 . S
H224 C206 0.931 . S
H225 C204 0.931 . S
H226 C208 0.931 . S
H227 C209 0.929 . S
H228 C210 0.930 . S
H229 C213 0.930 . S
H230 C214 0.931 . S
H231 C218 0.928 . S
H232 C217 0.929 . S
H233 C215 0.932 . S
C234 C235 1.386 . S
C234 C236 1.397 . S
C234 H258 0.931 . S
C235 C234 1.386 . S
C235 C239 1.397 . S
C236 C234 1.397 . S
C236 C237 1.384 . S
C236 H259 0.930 . S
C237 C236 1.384 . S
C237 C238 1.377 . S
C237 C240 1.481 . S
C238 C237 1.377 . S
C238 C239 1.389 . S
C238 H260 0.929 . S
C239 C235 1.397 . S
C239 C238 1.389 . S
C239 H261 0.931 . S
C240 C237 1.481 . S
C240 C241 1.387 . S
C240 C245 1.390 . S
C241 C240 1.387 . S
C241 C242 1.401 . S
C241 H262 0.930 . S
C242 C241 1.401 . S
C242 C243 1.376 . S
C242 C251 1.511 . S
C243 C242 1.376 . S
C243 C244 1.392 . S
C243 H264 0.931 . S
C244 C243 1.392 . S
C244 C245 1.361 . S
C244 C246 1.500 . S
C245 C240 1.390 . S
C245 C244 1.361 . S
C245 H263 0.931 . S
C246 C244 1.500 . S
C246 C247 1.371 . S
C246 C248 1.365 . S
C247 C246 1.371 . S
C247 C257 1.386 . S
C247 H265 0.931 . S
C248 C246 1.365 . S
C248 C249 1.409 . S
C248 H266 0.929 . S
C249 C248 1.409 . S
C249 C250 1.380 . S
C249 H267 0.930 . S
C250 C249 1.380 . S
C250 C257 1.357 . S
C251 C242 1.511 . S
C251 C252 1.341 . S
C251 C253 1.371 . S
C252 C251 1.341 . S
C252 C256 1.394 . S
C252 H268 0.930 . S
C253 C251 1.371 . S
C253 C254 1.392 . S
C253 H269 0.931 . S
C254 C253 1.392 . S
C254 C255 1.350 . S
C254 H272 0.932 . S
C255 C254 1.350 . S
C255 C256 1.339 . S
C256 C252 1.394 . S
C256 C255 1.339 . S
C256 H271 0.929 1_655 S
C257 C247 1.386 . S
C257 C250 1.357 . S
C257 H270 0.928 . S
H258 C234 0.931 . S
H259 C236 0.930 . S
H260 C238 0.929 . S
H261 C239 0.931 . S
H262 C241 0.930 . S
H263 C245 0.931 . S
H264 C243 0.931 . S
H265 C247 0.931 . S
H266 C248 0.929 . S
H267 C249 0.930 . S
H268 C252 0.930 . S
H269 C253 0.931 . S
H270 C257 0.928 . S
H271 C256 0.929 1_455 S
H272 C254 0.932 . S
C273 C274 1.386 . S
C273 C275 1.397 . S
C273 H297 0.931 . S
C274 C273 1.386 . S
C274 C278 1.397 . S
C275 C273 1.397 . S
C275 C276 1.384 . S
C275 H298 0.930 . S
C276 C275 1.384 . S
C276 C277 1.377 . S
C276 C279 1.481 . S
C277 C276 1.377 . S
C277 C278 1.389 . S
C277 H299 0.929 . S
C278 C274 1.397 . S
C278 C277 1.389 . S
C278 H300 0.931 . S
C279 C276 1.481 . S
C279 C280 1.387 . S
C279 C284 1.390 . S
C280 C279 1.387 . S
C280 C281 1.401 . S
C280 H301 0.930 . S
C281 C280 1.401 . S
C281 C282 1.376 . S
C281 C290 1.511 . S
C282 C281 1.376 . S
C282 C283 1.392 . S
C282 H303 0.931 . S
C283 C282 1.392 . S
C283 C284 1.361 . S
C283 C285 1.500 . S
C284 C279 1.390 . S
C284 C283 1.361 . S
C284 H302 0.931 . S
C285 C283 1.500 . S
C285 C286 1.371 . S
C285 C287 1.365 . S
C286 C285 1.371 . S
C286 C296 1.386 . S
C286 H304 0.931 . S
C287 C285 1.365 . S
C287 C288 1.409 . S
C287 H305 0.929 . S
C288 C287 1.409 . S
C288 C289 1.380 . S
C288 H306 0.930 . S
C289 C288 1.380 . S
C289 C296 1.357 . S
C290 C281 1.511 . S
C290 C291 1.341 . S
C290 C292 1.371 . S
C291 C290 1.341 . S
C291 C295 1.394 . S
C291 H307 0.930 . S
C292 C290 1.371 . S
C292 C293 1.392 . S
C292 H308 0.931 . S
C293 C292 1.392 . S
C293 C294 1.331 . S
C293 H311 0.932 . S
C294 C293 1.331 . S
C294 C295 1.336 . S
C295 C291 1.394 . S
C295 C294 1.336 . S
C295 H310 0.929 . S
C296 C286 1.386 . S
C296 C289 1.357 . S
C296 H309 0.928 . S
H297 C273 0.931 . S
H298 C275 0.930 . S
H299 C277 0.929 . S
H300 C278 0.931 . S
H301 C280 0.930 . S
H302 C284 0.931 . S
H303 C282 0.931 . S
H304 C286 0.931 . S
H305 C287 0.929 . S
H306 C288 0.930 . S
H307 C291 0.930 . S
H308 C292 0.931 . S
H309 C296 0.928 . S
H310 C295 0.929 . S
H311 C293 0.932 . S
C312 C313 1.386 . S
C312 C314 1.397 . S
C312 H336 0.931 . S
C313 C312 1.386 . S
C313 C317 1.397 . S
C314 C312 1.397 . S
C314 C315 1.384 . S
C314 H337 0.930 . S
C315 C314 1.384 . S
C315 C316 1.377 . S
C315 C318 1.481 . S
C316 C315 1.377 . S
C316 C317 1.389 . S
C316 H338 0.929 . S
C317 C313 1.397 . S
C317 C316 1.389 . S
C317 H339 0.931 . S
C318 C315 1.481 . S
C318 C319 1.387 . S
C318 C323 1.390 . S
C319 C318 1.387 . S
C319 C320 1.401 . S
C319 H340 0.930 . S
C320 C319 1.401 . S
C320 C321 1.376 . S
C320 C329 1.511 . S
C321 C320 1.376 . S
C321 C322 1.392 . S
C321 H342 0.931 . S
C322 C321 1.392 . S
C322 C323 1.361 . S
C322 C324 1.500 . S
C323 C318 1.390 . S
C323 C322 1.361 . S
C323 H341 0.931 . S
C324 C322 1.500 . S
C324 C325 1.371 . S
C324 C326 1.365 . S
C325 C324 1.371 . S
C325 C335 1.386 . S
C325 H343 0.931 . S
C326 C324 1.365 . S
C326 C327 1.409 . S
C326 H344 0.929 . S
C327 C326 1.409 . S
C327 C328 1.380 . S
C327 H345 0.930 . S
C328 C327 1.380 . S
C328 C335 1.357 . S
C329 C320 1.511 . S
C329 C330 1.341 . S
C329 C331 1.371 . S
C330 C329 1.341 . S
C330 C334 1.394 . S
C330 H346 0.930 . S
C331 C329 1.371 . S
C331 C332 1.392 . S
C331 H347 0.931 . S
C332 C331 1.392 . S
C332 C333 1.331 . S
C332 H350 0.932 . S
C333 C332 1.331 . S
C333 C334 1.336 . S
C334 C330 1.394 . S
C334 C333 1.336 . S
C334 H349 0.929 . S
C335 C325 1.386 . S
C335 C328 1.357 . S
C335 H348 0.928 . S
H336 C312 0.931 . S
H337 C314 0.930 . S
H338 C316 0.929 . S
H339 C317 0.931 . S
H340 C319 0.930 . S
H341 C323 0.931 . S
H342 C321 0.931 . S
H343 C325 0.931 . S
H344 C326 0.929 . S
H345 C327 0.930 . S
H346 C330 0.930 . S
H347 C331 0.931 . S
H348 C335 0.928 . S
H349 C334 0.929 . S
H350 C332 0.932 . S
C351 C352 1.386 . S
C351 C353 1.397 . S
C351 H375 0.931 . S
C352 C351 1.386 . S
C352 C356 1.397 . S
C353 C351 1.397 . S
C353 C354 1.384 . S
C353 H376 0.930 . S
C354 C353 1.384 . S
C354 C355 1.377 . S
C354 C357 1.481 . S
C355 C354 1.377 . S
C355 C356 1.389 . S
C355 H377 0.929 . S
C356 C352 1.397 . S
C356 C355 1.389 . S
C356 H378 0.931 . S
C357 C354 1.481 . S
C357 C358 1.387 . S
C357 C362 1.390 . S
C358 C357 1.387 . S
C358 C359 1.401 . S
C358 H379 0.930 . S
C359 C358 1.401 . S
C359 C360 1.376 . S
C359 C368 1.511 . S
C360 C359 1.376 . S
C360 C361 1.392 . S
C360 H381 0.931 . S
C361 C360 1.392 . S
C361 C362 1.361 . S
C361 C363 1.500 . S
C362 C357 1.390 . S
C362 C361 1.361 . S
C362 H380 0.931 . S
C363 C361 1.500 . S
C363 C364 1.371 . S
C363 C365 1.365 . S
C364 C363 1.371 . S
C364 C374 1.386 . S
C364 H382 0.931 . S
C365 C363 1.365 . S
C365 C366 1.409 . S
C365 H383 0.929 . S
C366 C365 1.409 . S
C366 C367 1.380 . S
C366 H384 0.930 . S
C367 C366 1.380 . S
C367 C374 1.357 . S
C368 C359 1.511 . S
C368 C369 1.341 . S
C368 C370 1.371 . S
C369 C368 1.341 . S
C369 C373 1.394 . S
C369 H385 0.930 . S
C370 C368 1.371 . S
C370 C371 1.392 . S
C370 H386 0.931 . S
C371 C370 1.392 . S
C371 C372 1.373 . S
C371 H389 0.932 . S
C372 C371 1.373 . S
C372 C373 1.343 . S
C373 C369 1.394 . S
C373 C372 1.343 . S
C373 H388 0.929 1_565 S
C374 C364 1.386 . S
C374 C367 1.357 . S
C374 H387 0.928 . S
H375 C351 0.931 . S
H376 C353 0.930 . S
H377 C355 0.929 . S
H378 C356 0.931 . S
H379 C358 0.930 . S
H380 C362 0.931 . S
H381 C360 0.931 . S
H382 C364 0.931 . S
H383 C365 0.929 . S
H384 C366 0.930 . S
H385 C369 0.930 . S
H386 C370 0.931 . S
H387 C374 0.928 . S
H388 C373 0.929 1_545 S
H389 C371 0.932 . S
C390 C391 1.386 . S
C390 C392 1.397 . S
C390 H414 0.931 . S
C391 C390 1.386 . S
C391 C395 1.397 . S
C392 C390 1.397 . S
C392 C393 1.384 . S
C392 H415 0.930 . S
C393 C392 1.384 . S
C393 C394 1.377 . S
C393 C396 1.481 . S
C394 C393 1.377 . S
C394 C395 1.389 . S
C394 H416 0.929 . S
C395 C391 1.397 . S
C395 C394 1.389 . S
C395 H417 0.931 . S
C396 C393 1.481 . S
C396 C397 1.387 . S
C396 C401 1.390 . S
C397 C396 1.387 . S
C397 C398 1.401 . S
C397 H418 0.930 . S
C398 C397 1.401 . S
C398 C399 1.376 . S
C398 C407 1.511 . S
C399 C398 1.376 . S
C399 C400 1.392 . S
C399 H420 0.931 . S
C400 C399 1.392 . S
C400 C401 1.361 . S
C400 C402 1.500 . S
C401 C396 1.390 . S
C401 C400 1.361 . S
C401 H419 0.931 . S
C402 C400 1.500 . S
C402 C403 1.371 . S
C402 C404 1.365 . S
C403 C402 1.371 . S
C403 C413 1.386 . S
C403 H421 0.931 . S
C404 C402 1.365 . S
C404 C405 1.409 . S
C404 H422 0.929 . S
C405 C404 1.409 . S
C405 C406 1.380 . S
C405 H423 0.930 . S
C406 C405 1.380 . S
C406 C413 1.357 . S
C407 C398 1.511 . S
C407 C408 1.341 . S
C407 C409 1.371 . S
C408 C407 1.341 . S
C408 C412 1.394 . S
C408 H424 0.930 . S
C409 C407 1.371 . S
C409 C410 1.392 . S
C409 H425 0.931 . S
C410 C409 1.392 . S
C410 C411 1.331 . S
C410 H428 0.932 . S
C411 C410 1.331 . S
C411 C412 1.336 . S
C412 C408 1.394 . S
C412 C411 1.336 . S
C412 H427 0.929 . S
C413 C403 1.386 . S
C413 C406 1.357 . S
C413 H426 0.928 . S
H414 C390 0.931 . S
H415 C392 0.930 . S
H416 C394 0.929 . S
H417 C395 0.931 . S
H418 C397 0.930 . S
H419 C401 0.931 . S
H420 C399 0.931 . S
H421 C403 0.931 . S
H422 C404 0.929 . S
H423 C405 0.930 . S
H424 C408 0.930 . S
H425 C409 0.931 . S
H426 C413 0.928 . S
H427 C412 0.929 . S
H428 C410 0.932 . S
C429 C430 1.386 . S
C429 C431 1.397 . S
C429 H453 0.931 . S
C430 C429 1.386 . S
C430 C434 1.397 . S
C431 C429 1.397 . S
C431 C432 1.384 . S
C431 H454 0.930 . S
C432 C431 1.384 . S
C432 C433 1.377 . S
C432 C435 1.481 . S
C433 C432 1.377 . S
C433 C434 1.389 . S
C433 H455 0.929 . S
C434 C430 1.397 . S
C434 C433 1.389 . S
C434 H456 0.931 . S
C435 C432 1.481 . S
C435 C436 1.387 . S
C435 C440 1.390 . S
C436 C435 1.387 . S
C436 C437 1.401 . S
C436 H457 0.930 . S
C437 C436 1.401 . S
C437 C438 1.376 . S
C437 C446 1.511 . S
C438 C437 1.376 . S
C438 C439 1.392 . S
C438 H459 0.931 . S
C439 C438 1.392 . S
C439 C440 1.361 . S
C439 C441 1.500 . S
C440 C435 1.390 . S
C440 C439 1.361 . S
C440 H458 0.931 . S
C441 C439 1.500 . S
C441 C442 1.371 . S
C441 C443 1.365 . S
C442 C441 1.371 . S
C442 C452 1.386 . S
C442 H460 0.931 . S
C443 C441 1.365 . S
C443 C444 1.409 . S
C443 H461 0.929 . S
C444 C443 1.409 . S
C444 C445 1.380 . S
C444 H462 0.930 . S
C445 C444 1.380 . S
C445 C452 1.357 . S
C446 C437 1.511 . S
C446 C447 1.341 . S
C446 C448 1.371 . S
C447 C446 1.341 . S
C447 C451 1.394 . S
C447 H463 0.930 . S
C448 C446 1.371 . S
C448 C449 1.392 . S
C448 H464 0.931 . S
C449 C448 1.392 . S
C449 C450 1.331 . S
C449 H467 0.932 . S
C450 C449 1.331 . S
C450 C451 1.336 . S
C451 C447 1.394 . S
C451 C450 1.336 . S
C451 H466 0.929 . S
C452 C442 1.386 . S
C452 C445 1.357 . S
C452 H465 0.928 . S
H453 C429 0.931 . S
H454 C431 0.930 . S
H455 C433 0.929 . S
H456 C434 0.931 . S
H457 C436 0.930 . S
H458 C440 0.931 . S
H459 C438 0.931 . S
H460 C442 0.931 . S
H461 C443 0.929 . S
H462 C444 0.930 . S
H463 C447 0.930 . S
H464 C448 0.931 . S
H465 C452 0.928 . S
H466 C451 0.929 . S
H467 C449 0.932 . S
C468 C469 1.386 . S
C468 C470 1.397 . S
C468 H492 0.931 . S
C469 C468 1.386 . S
C469 C473 1.397 . S
C470 C468 1.397 . S
C470 C471 1.384 . S
C470 H493 0.930 . S
C471 C470 1.384 . S
C471 C472 1.377 . S
C471 C474 1.481 . S
C472 C471 1.377 . S
C472 C473 1.389 . S
C472 H494 0.929 . S
C473 C469 1.397 . S
C473 C472 1.389 . S
C473 H495 0.931 . S
C474 C471 1.481 . S
C474 C475 1.387 . S
C474 C479 1.390 . S
C475 C474 1.387 . S
C475 C476 1.401 . S
C475 H496 0.930 . S
C476 C475 1.401 . S
C476 C477 1.376 . S
C476 C485 1.511 . S
C477 C476 1.376 . S
C477 C478 1.392 . S
C477 H498 0.931 . S
C478 C477 1.392 . S
C478 C479 1.361 . S
C478 C480 1.500 . S
C479 C474 1.390 . S
C479 C478 1.361 . S
C479 H497 0.931 . S
C480 C478 1.500 . S
C480 C481 1.371 . S
C480 C482 1.365 . S
C481 C480 1.371 . S
C481 C491 1.386 . S
C481 H499 0.931 . S
C482 C480 1.365 . S
C482 C483 1.409 . S
C482 H500 0.929 . S
C483 C482 1.409 . S
C483 C484 1.380 . S
C483 H501 0.930 . S
C484 C483 1.380 . S
C484 C491 1.357 . S
C485 C476 1.511 . S
C485 C486 1.341 . S
C485 C487 1.371 . S
C486 C485 1.341 . S
C486 C490 1.394 . S
C486 H502 0.930 . S
C487 C485 1.371 . S
C487 C488 1.392 . S
C487 H503 0.931 . S
C488 C487 1.392 . S
C488 C489 1.331 . S
C488 H506 0.932 . S
C489 C488 1.331 . S
C489 C490 1.336 . S
C490 C486 1.394 . S
C490 C489 1.336 . S
C490 H505 0.929 . S
C491 C481 1.386 . S
C491 C484 1.357 . S
C491 H504 0.928 . S
H492 C468 0.931 . S
H493 C470 0.930 . S
H494 C472 0.929 . S
H495 C473 0.931 . S
H496 C475 0.930 . S
H497 C479 0.931 . S
H498 C477 0.931 . S
H499 C481 0.931 . S
H500 C482 0.929 . S
H501 C483 0.930 . S
H502 C486 0.930 . S
H503 C487 0.931 . S
H504 C491 0.928 . S
H505 C490 0.929 . S
H506 C488 0.932 . S
C507 C508 1.386 . S
C507 C509 1.397 . S
C507 H531 0.931 . S
C508 C507 1.386 . S
C508 C512 1.397 . S
C509 C507 1.397 . S
C509 C510 1.384 . S
C509 H532 0.930 . S
C510 C509 1.384 . S
C510 C511 1.377 . S
C510 C513 1.481 . S
C511 C510 1.377 . S
C511 C512 1.389 . S
C511 H533 0.929 . S
C512 C508 1.397 . S
C512 C511 1.389 . S
C512 H534 0.931 . S
C513 C510 1.481 . S
C513 C514 1.387 . S
C513 C518 1.390 . S
C514 C513 1.387 . S
C514 C515 1.401 . S
C514 H535 0.930 . S
C515 C514 1.401 . S
C515 C516 1.376 . S
C515 C524 1.511 . S
C516 C515 1.376 . S
C516 C517 1.392 . S
C516 H537 0.931 . S
C517 C516 1.392 . S
C517 C518 1.361 . S
C517 C519 1.500 . S
C518 C513 1.390 . S
C518 C517 1.361 . S
C518 H536 0.931 . S
C519 C517 1.500 . S
C519 C520 1.371 . S
C519 C521 1.365 . S
C520 C519 1.371 . S
C520 C530 1.386 . S
C520 H538 0.931 . S
C521 C519 1.365 . S
C521 C522 1.409 . S
C521 H539 0.929 . S
C522 C521 1.409 . S
C522 C523 1.380 . S
C522 H540 0.930 . S
C523 C522 1.380 . S
C523 C530 1.357 . S
C524 C515 1.511 . S
C524 C525 1.341 . S
C524 C526 1.371 . S
C525 C524 1.341 . S
C525 C529 1.394 . S
C525 H541 0.930 . S
C526 C524 1.371 . S
C526 C527 1.402 . S
C526 H542 0.931 . S
C527 C526 1.402 . S
C527 C528 1.330 1_556 S
C527 H545 0.923 1_556 S
C528 C527 1.330 1_554 S
C528 C529 1.338 1_554 S
C529 C525 1.394 . S
C529 C528 1.338 1_556 S
C529 H544 0.929 . S
C530 C520 1.386 . S
C530 C523 1.357 . S
C530 H543 0.928 . S
H531 C507 0.931 . S
H532 C509 0.930 . S
H533 C511 0.929 . S
H534 C512 0.931 . S
H535 C514 0.930 . S
H536 C518 0.931 . S
H537 C516 0.931 . S
H538 C520 0.931 . S
H539 C521 0.929 . S
H540 C522 0.930 . S
H541 C525 0.930 . S
H542 C526 0.931 . S
H543 C530 0.928 . S
H544 C529 0.929 . S
H545 C527 0.923 1_554 S
C546 C547 1.386 . S
C546 C548 1.397 . S
C546 H570 0.931 . S
C547 C546 1.386 . S
C547 C551 1.397 . S
C548 C546 1.397 . S
C548 C549 1.384 . S
C548 H571 0.930 . S
C549 C548 1.384 . S
C549 C550 1.377 . S
C549 C552 1.481 . S
C550 C549 1.377 . S
C550 C551 1.389 . S
C550 H572 0.929 . S
C551 C547 1.397 . S
C551 C550 1.389 . S
C551 H573 0.931 . S
C552 C549 1.481 . S
C552 C553 1.387 . S
C552 C557 1.390 . S
C553 C552 1.387 . S
C553 C554 1.401 . S
C553 H574 0.930 . S
C554 C553 1.401 . S
C554 C555 1.376 . S
C554 C563 1.511 . S
C555 C554 1.376 . S
C555 C556 1.392 . S
C555 H576 0.931 . S
C556 C555 1.392 . S
C556 C557 1.361 . S
C556 C558 1.500 . S
C557 C552 1.390 . S
C557 C556 1.361 . S
C557 H575 0.931 . S
C558 C556 1.500 . S
C558 C559 1.371 . S
C558 C560 1.365 . S
C559 C558 1.371 . S
C559 C569 1.386 . S
C559 H577 0.931 . S
C560 C558 1.365 . S
C560 C561 1.409 . S
C560 H578 0.929 . S
C561 C560 1.409 . S
C561 C562 1.380 . S
C561 H579 0.930 . S
C562 C561 1.380 . S
C562 C569 1.357 . S
C563 C554 1.511 . S
C563 C564 1.341 . S
C563 C565 1.371 . S
C564 C563 1.341 . S
C564 C568 1.394 . S
C564 H580 0.930 . S
C565 C563 1.371 . S
C565 C566 1.392 . S
C565 H581 0.931 . S
C566 C565 1.392 . S
C566 C567 1.331 . S
C566 H584 0.932 . S
C567 C566 1.331 . S
C567 C568 1.336 . S
C568 C564 1.394 . S
C568 C567 1.336 . S
C568 H583 0.929 . S
C569 C559 1.386 . S
C569 C562 1.357 . S
C569 H582 0.928 . S
H570 C546 0.931 . S
H571 C548 0.930 . S
H572 C550 0.929 . S
H573 C551 0.931 . S
H574 C553 0.930 . S
H575 C557 0.931 . S
H576 C555 0.931 . S
H577 C559 0.931 . S
H578 C560 0.929 . S
H579 C561 0.930 . S
H580 C564 0.930 . S
H581 C565 0.931 . S
H582 C569 0.928 . S
H583 C568 0.929 . S
H584 C566 0.932 . S
C585 C586 1.386 . S
C585 C587 1.397 . S
C585 H609 0.931 . S
C586 C585 1.386 . S
C586 C590 1.397 . S
C587 C585 1.397 . S
C587 C588 1.384 . S
C587 H610 0.930 . S
C588 C587 1.384 . S
C588 C589 1.377 . S
C588 C591 1.481 . S
C589 C588 1.377 . S
C589 C590 1.389 . S
C589 H611 0.929 . S
C590 C586 1.397 . S
C590 C589 1.389 . S
C590 H612 0.931 1_556 S
C591 C588 1.481 . S
C591 C592 1.387 . S
C591 C596 1.390 . S
C592 C591 1.387 . S
C592 C593 1.401 . S
C592 H613 0.930 . S
C593 C592 1.401 . S
C593 C594 1.376 . S
C593 C602 1.511 . S
C594 C593 1.376 . S
C594 C595 1.392 . S
C594 H615 0.931 . S
C595 C594 1.392 . S
C595 C596 1.361 . S
C595 C597 1.500 . S
C596 C591 1.390 . S
C596 C595 1.361 . S
C596 H614 0.931 . S
C597 C595 1.500 . S
C597 C598 1.371 . S
C597 C599 1.365 . S
C598 C597 1.371 . S
C598 C608 1.386 . S
C598 H616 0.931 . S
C599 C597 1.365 . S
C599 C600 1.409 . S
C599 H617 0.929 . S
C600 C599 1.409 . S
C600 C601 1.380 . S
C600 H618 0.930 . S
C601 C600 1.380 . S
C601 C608 1.357 . S
C602 C593 1.511 . S
C602 C603 1.341 . S
C602 C604 1.371 . S
C603 C602 1.341 . S
C603 C607 1.394 . S
C603 H619 0.930 . S
C604 C602 1.371 . S
C604 C605 1.392 . S
C604 H620 0.931 . S
C605 C604 1.392 . S
C605 C606 1.331 . S
C605 H623 0.932 . S
C606 C605 1.331 . S
C606 C607 1.336 . S
C607 C603 1.394 . S
C607 C606 1.336 . S
C607 H622 0.929 . S
C608 C598 1.386 . S
C608 C601 1.357 . S
C608 H621 0.928 . S
H609 C585 0.931 . S
H610 C587 0.930 . S
H611 C589 0.929 . S
H612 C590 0.931 1_554 S
H613 C592 0.930 . S
H614 C596 0.931 . S
H615 C594 0.931 . S
H616 C598 0.931 . S
H617 C599 0.929 . S
H618 C600 0.930 . S
H619 C603 0.930 . S
H620 C604 0.931 . S
H621 C608 0.928 . S
H622 C607 0.929 . S
H623 C605 0.932 . S
Zn624 O627 2.031 . S
Zn624 O629 2.049 1_554 S
Zn624 O634 2.067 1_554 S
Zn625 O626 1.962 . S
Zn625 O628 1.986 . S
Zn625 O630 1.996 . S
Zn625 O633 1.943 1_554 S
O626 Zn625 1.962 . S
O626 C631 1.254 . S
O627 Zn624 2.031 . S
O627 C631 1.269 . S
O628 Zn625 1.986 . S
O628 C635 1.262 . S
O629 Zn624 2.049 1_556 S
O629 C637 1.260 . S
O630 Zn625 1.996 . S
O630 C637 1.257 1_554 S
C631 O626 1.254 . S
C631 O627 1.269 . S
C632 O633 1.249 . S
C632 O634 1.270 . S
O633 Zn625 1.943 1_556 S
O633 C632 1.249 . S
O634 Zn624 2.067 1_556 S
O634 C632 1.270 . S
C635 O628 1.262 . S
C635 O636 1.232 . S
O636 C635 1.232 . S
C637 O629 1.260 . S
C637 O630 1.257 1_556 S
Zn638 O641 2.031 . S
Zn638 O643 2.049 . S
Zn638 O648 2.067 . S
Zn639 O640 1.962 . S
Zn639 O642 1.986 . S
Zn639 O644 1.996 . S
Zn639 O647 1.943 . S
O640 Zn639 1.962 . S
O640 C645 1.254 . S
O641 Zn638 2.031 . S
O641 C645 1.269 . S
O642 Zn639 1.986 . S
O642 C649 1.262 . S
O643 Zn638 2.049 . S
O643 C651 1.260 . S
O644 Zn639 1.996 . S
O644 C651 1.257 . S
C645 O640 1.254 . S
C645 O641 1.269 . S
C646 O647 1.249 . S
C646 O648 1.270 . S
O647 Zn639 1.943 . S
O647 C646 1.249 . S
O648 Zn638 2.067 . S
O648 C646 1.270 . S
C649 O642 1.262 . S
C649 O650 1.232 . S
O650 C649 1.232 . S
C651 O643 1.260 . S
C651 O644 1.257 . S
Zn652 O655 2.031 . S
Zn652 O657 2.049 . S
Zn652 O662 2.067 . S
Zn653 O654 1.962 . S
Zn653 O656 1.986 . S
Zn653 O658 1.996 1_554 S
Zn653 O661 1.943 . S
O654 Zn653 1.962 . S
O654 C659 1.254 . S
O655 Zn652 2.031 . S
O655 C659 1.269 1_556 S
O656 Zn653 1.986 . S
O656 C663 1.262 . S
O657 Zn652 2.049 . S
O657 C665 1.260 . S
O658 Zn653 1.996 1_556 S
O658 C665 1.257 . S
C659 O654 1.254 . S
C659 O655 1.269 1_554 S
C660 O661 1.249 1_556 S
C660 O662 1.270 . S
O661 Zn653 1.943 . S
O661 C660 1.249 1_554 S
O662 Zn652 2.067 . S
O662 C660 1.270 . S
C663 O656 1.262 . S
C663 O664 1.232 . S
O664 C663 1.232 . S
C665 O657 1.260 . S
C665 O658 1.257 . S
Zn666 O669 2.031 . S
Zn666 O671 2.049 1_545 S
Zn666 O676 2.067 1_545 S
Zn667 O668 1.962 . S
Zn667 O670 1.986 . S
Zn667 O672 1.996 . S
Zn667 O675 1.943 1_545 S
O668 Zn667 1.962 . S
O668 C673 1.254 . S
O669 Zn666 2.031 . S
O669 C673 1.269 . S
O670 Zn667 1.986 . S
O670 C677 1.262 . S
O671 Zn666 2.049 1_565 S
O671 C679 1.260 . S
O672 Zn667 1.996 . S
O672 C679 1.257 1_545 S
C673 O668 1.254 . S
C673 O669 1.269 . S
C674 O675 1.249 . S
C674 O676 1.270 . S
O675 Zn667 1.943 1_565 S
O675 C674 1.249 . S
O676 Zn666 2.067 1_565 S
O676 C674 1.270 . S
C677 O670 1.262 . S
C677 O678 1.232 . S
O678 C677 1.232 . S
C679 O671 1.260 . S
C679 O672 1.257 1_565 S
Zn680 O683 2.031 . S
Zn680 O685 2.049 . S
Zn680 O690 2.067 . S
Zn681 O682 1.962 . S
Zn681 O684 1.986 . S
Zn681 O686 1.996 . S
Zn681 O689 1.943 . S
O682 Zn681 1.962 . S
O682 C687 1.254 . S
O683 Zn680 2.031 . S
O683 C687 1.269 . S
O684 Zn681 1.986 . S
O684 C691 1.262 . S
O685 Zn680 2.049 . S
O685 C693 1.260 . S
O686 Zn681 1.996 . S
O686 C693 1.257 . S
C687 O682 1.254 . S
C687 O683 1.269 . S
C688 O689 1.249 . S
C688 O690 1.270 . S
O689 Zn681 1.943 . S
O689 C688 1.249 . S
O690 Zn680 2.067 . S
O690 C688 1.270 . S
C691 O684 1.262 . S
C691 O692 1.232 . S
O692 C691 1.232 . S
C693 O685 1.260 . S
C693 O686 1.257 . S
Zn694 O697 2.031 . S
Zn694 O699 2.049 . S
Zn694 O704 2.067 . S
Zn695 O696 1.962 . S
Zn695 O698 1.986 . S
Zn695 O700 1.996 . S
Zn695 O703 1.943 . S
O696 Zn695 1.962 . S
O696 C701 1.254 . S
O697 Zn694 2.031 . S
O697 C701 1.269 . S
O698 Zn695 1.986 . S
O698 C705 1.262 . S
O699 Zn694 2.049 . S
O699 C707 1.260 . S
O700 Zn695 1.996 . S
O700 C707 1.257 . S
C701 O696 1.254 . S
C701 O697 1.269 . S
C702 O703 1.249 . S
C702 O704 1.270 . S
O703 Zn695 1.943 . S
O703 C702 1.249 . S
O704 Zn694 2.067 . S
O704 C702 1.270 . S
C705 O698 1.262 . S
C705 O706 1.232 . S
O706 C705 1.232 . S
C707 O699 1.260 . S
C707 O700 1.257 . S
Zn708 O711 2.031 . S
Zn708 O713 2.049 . S
Zn708 O718 2.067 . S
Zn709 O710 1.962 . S
Zn709 O712 1.986 . S
Zn709 O714 1.996 . S
Zn709 O717 1.943 . S
O710 Zn709 1.962 . S
O710 C715 1.254 . S
O711 Zn708 2.031 . S
O711 C715 1.269 . S
O712 Zn709 1.986 . S
O712 C719 1.262 . S
O713 Zn708 2.049 . S
O713 C721 1.260 . S
O714 Zn709 1.996 . S
O714 C721 1.257 . S
C715 O710 1.254 . S
C715 O711 1.269 . S
C716 O717 1.249 . S
C716 O718 1.270 . S
O717 Zn709 1.943 . S
O717 C716 1.249 . S
O718 Zn708 2.067 . S
O718 C716 1.270 . S
C719 O712 1.262 . S
C719 O720 1.232 . S
O720 C719 1.232 . S
C721 O713 1.260 . S
C721 O714 1.257 . S
Zn722 O725 2.031 . S
Zn722 O727 2.049 . S
Zn722 O732 2.067 . S
Zn723 O724 1.962 . S
Zn723 O726 1.986 . S
Zn723 O728 1.996 1_545 S
Zn723 O731 1.943 . S
O724 Zn723 1.962 . S
O724 C729 1.254 . S
O725 Zn722 2.031 . S
O725 C729 1.269 1_565 S
O726 Zn723 1.986 . S
O726 C733 1.262 . S
O727 Zn722 2.049 . S
O727 C735 1.260 . S
O728 Zn723 1.996 1_565 S
O728 C735 1.257 . S
C729 O724 1.254 . S
C729 O725 1.269 1_545 S
C730 O731 1.249 1_565 S
C730 O732 1.270 . S
O731 Zn723 1.943 . S
O731 C730 1.249 1_545 S
O732 Zn722 2.067 . S
O732 C730 1.270 . S
C733 O726 1.262 . S
C733 O734 1.232 . S
O734 C733 1.232 . S
C735 O727 1.260 . S
C735 O728 1.257 . S
Zn736 O739 2.031 . S
Zn736 O741 2.049 1_455 S
Zn736 O746 2.067 1_455 S
Zn737 O738 1.962 . S
Zn737 O740 1.986 . S
Zn737 O742 1.996 . S
Zn737 O745 1.943 1_455 S
O738 Zn737 1.962 . S
O738 C743 1.254 . S
O739 Zn736 2.031 . S
O739 C743 1.269 . S
O740 Zn737 1.986 . S
O740 C747 1.262 . S
O741 Zn736 2.049 1_655 S
O741 C749 1.260 . S
O742 Zn737 1.996 . S
O742 C749 1.257 1_455 S
C743 O738 1.254 . S
C743 O739 1.269 . S
C744 O745 1.249 . S
C744 O746 1.270 . S
O745 Zn737 1.943 1_655 S
O745 C744 1.249 . S
O746 Zn736 2.067 1_655 S
O746 C744 1.270 . S
C747 O740 1.262 . S
C747 O748 1.232 . S
O748 C747 1.232 . S
C749 O741 1.260 . S
C749 O742 1.257 1_655 S
Zn750 O753 2.031 . S
Zn750 O755 2.049 . S
Zn750 O760 2.067 . S
Zn751 O752 1.962 . S
Zn751 O754 1.986 . S
Zn751 O756 1.996 . S
Zn751 O759 1.943 . S
O752 Zn751 1.962 . S
O752 C757 1.254 . S
O753 Zn750 2.031 . S
O753 C757 1.269 . S
O754 Zn751 1.986 . S
O754 C761 1.262 . S
O755 Zn750 2.049 . S
O755 C763 1.260 . S
O756 Zn751 1.996 . S
O756 C763 1.257 . S
C757 O752 1.254 . S
C757 O753 1.269 . S
C758 O759 1.249 . S
C758 O760 1.270 . S
O759 Zn751 1.943 . S
O759 C758 1.249 . S
O760 Zn750 2.067 . S
O760 C758 1.270 . S
C761 O754 1.262 . S
C761 O762 1.232 . S
O762 C761 1.232 . S
C763 O755 1.260 . S
C763 O756 1.257 . S
Zn764 O767 2.031 . S
Zn764 O769 2.049 . S
Zn764 O774 2.067 . S
Zn765 O766 1.962 . S
Zn765 O768 1.986 . S
Zn765 O770 1.996 1_455 S
Zn765 O773 1.943 . S
O766 Zn765 1.962 . S
O766 C771 1.254 . S
O767 Zn764 2.031 . S
O767 C771 1.269 1_655 S
O768 Zn765 1.986 . S
O768 C775 1.262 . S
O769 Zn764 2.049 . S
O769 C777 1.260 . S
O770 Zn765 1.996 1_655 S
O770 C777 1.257 . S
C771 O766 1.254 . S
C771 O767 1.269 1_455 S
C772 O773 1.249 1_655 S
C772 O774 1.270 . S
O773 Zn765 1.943 . S
O773 C772 1.249 1_455 S
O774 Zn764 2.067 . S
O774 C772 1.270 . S
C775 O768 1.262 . S
C775 O776 1.232 . S
O776 C775 1.232 . S
C777 O769 1.260 . S
C777 O770 1.257 . S
Zn778 O781 2.031 . S
Zn778 O783 2.049 . S
Zn778 O788 2.067 . S
Zn779 O780 1.962 . S
Zn779 O782 1.986 . S
Zn779 O784 1.996 . S
Zn779 O787 1.943 . S
O780 Zn779 1.962 . S
O780 C785 1.254 . S
O781 Zn778 2.031 . S
O781 C785 1.269 . S
O782 Zn779 1.986 . S
O782 C789 1.262 . S
O783 Zn778 2.049 . S
O783 C791 1.260 . S
O784 Zn779 1.996 . S
O784 C791 1.257 . S
C785 O780 1.254 . S
C785 O781 1.269 . S
C786 O787 1.249 . S
C786 O788 1.270 . S
O787 Zn779 1.943 . S
O787 C786 1.249 . S
O788 Zn778 2.067 . S
O788 C786 1.270 . S
C789 O782 1.262 . S
C789 O790 1.232 . S
O790 C789 1.232 . S
C791 O783 1.260 . S
C791 O784 1.257 . S
H792 C800 0.929 . S
H793 C802 0.930 . S
H794 C804 0.930 . S
H795 C807 0.929 . S
H796 C810 0.930 . S
H797 C812 0.960 . S
H798 C812 0.960 . S
H799 C812 0.960 . S
C800 H792 0.929 . S
C800 C801 1.377 . S
C800 C802 1.384 . S
C801 C800 1.377 . S
C801 C807 1.390 . S
C802 H793 0.930 . S
C802 C800 1.384 . S
C802 C803 1.372 . S
C803 C802 1.372 . S
C803 C804 1.400 . S
C803 C808 1.490 . S
C804 H794 0.930 . S
C804 C803 1.400 . S
C804 C807 1.386 . S
H805 C821 0.930 . S
H806 C822 0.931 . S
C807 H795 0.929 . S
C807 C801 1.390 . S
C807 C804 1.386 . S
C808 C803 1.490 . S
C808 C810 1.395 . S
C808 C811 1.403 . S
H809 C815 0.930 . S
C810 H796 0.930 . S
C810 C808 1.395 . S
C810 C813 1.403 . S
C811 C808 1.403 . S
C811 C812 1.524 . S
C811 C815 1.400 . S
C812 H797 0.960 . S
C812 H798 0.960 . S
C812 H799 0.960 . S
C812 C811 1.524 . S
C813 C810 1.403 . S
C813 C814 1.392 . S
C813 C817 1.495 . S
C814 C813 1.392 . S
C814 C815 1.385 . S
C814 C816 1.478 . S
C815 H809 0.930 . S
C815 C811 1.400 . S
C815 C814 1.385 . S
C816 C814 1.478 . S
C816 C818 1.381 . S
C816 C822 1.383 . S
C817 C813 1.495 . S
C817 H823 0.959 . S
C817 H824 0.961 . S
C817 H825 0.960 . S
C818 C816 1.381 . S
C818 C819 1.394 . S
C818 H826 0.930 . S
C819 C818 1.394 . S
C819 C820 1.383 . S
C819 H827 0.929 . S
C820 C819 1.383 . S
C820 C821 1.377 . S
C821 H805 0.930 . S
C821 C820 1.377 . S
C821 C822 1.379 . S
C822 H806 0.931 . S
C822 C816 1.383 . S
C822 C821 1.379 . S
H823 C817 0.959 . S
H824 C817 0.961 . S
H825 C817 0.960 . S
H826 C818 0.930 . S
H827 C819 0.929 . S
H828 C836 0.929 . S
H829 C838 0.930 . S
H830 C840 0.930 . S
H831 C843 0.929 . S
H832 C846 0.930 . S
H833 C848 0.960 . S
H834 C848 0.960 . S
H835 C848 0.960 . S
C836 H828 0.929 . S
C836 C837 1.377 . S
C836 C838 1.384 . S
C837 C836 1.377 . S
C837 C843 1.390 . S
C838 H829 0.930 . S
C838 C836 1.384 . S
C838 C839 1.372 . S
C839 C838 1.372 . S
C839 C840 1.400 . S
C839 C844 1.490 . S
C840 H830 0.930 . S
C840 C839 1.400 . S
C840 C843 1.386 . S
H841 C857 0.930 . S
H842 C858 0.931 . S
C843 H831 0.929 . S
C843 C837 1.390 . S
C843 C840 1.386 . S
C844 C839 1.490 . S
C844 C846 1.395 . S
C844 C847 1.403 . S
H845 C851 0.930 . S
C846 H832 0.930 . S
C846 C844 1.395 . S
C846 C849 1.403 . S
C847 C844 1.403 . S
C847 C848 1.524 . S
C847 C851 1.400 . S
C848 H833 0.960 . S
C848 H834 0.960 . S
C848 H835 0.960 . S
C848 C847 1.524 . S
C849 C846 1.403 . S
C849 C850 1.392 . S
C849 C853 1.495 . S
C850 C849 1.392 . S
C850 C851 1.385 . S
C850 C852 1.478 . S
C851 H845 0.930 . S
C851 C847 1.400 . S
C851 C850 1.385 . S
C852 C850 1.478 . S
C852 C854 1.381 . S
C852 C858 1.383 . S
C853 C849 1.495 . S
C853 H859 0.959 . S
C853 H860 0.961 . S
C853 H861 0.960 . S
C854 C852 1.381 . S
C854 C855 1.394 . S
C854 H862 0.930 . S
C855 C854 1.394 . S
C855 C856 1.383 . S
C855 H863 0.929 . S
C856 C855 1.383 . S
C856 C857 1.377 . S
C857 H841 0.930 . S
C857 C856 1.377 . S
C857 C858 1.379 . S
C858 H842 0.931 . S
C858 C852 1.383 . S
C858 C857 1.379 . S
H859 C853 0.959 . S
H860 C853 0.961 . S
H861 C853 0.960 . S
H862 C854 0.930 . S
H863 C855 0.929 . S
H864 C872 0.929 . S
H865 C874 0.930 . S
H866 C876 0.930 . S
H867 C879 0.929 . S
H868 C882 0.930 . S
H869 C884 0.960 . S
H870 C884 0.960 . S
H871 C884 0.960 . S
C872 H864 0.929 . S
C872 C873 1.377 . S
C872 C874 1.384 . S
C873 C872 1.377 . S
C873 C879 1.390 . S
C874 H865 0.930 . S
C874 C872 1.384 . S
C874 C875 1.372 . S
C875 C874 1.372 . S
C875 C876 1.400 . S
C875 C880 1.490 . S
C876 H866 0.930 . S
C876 C875 1.400 . S
C876 C879 1.386 . S
H877 C893 0.930 . S
H878 C894 0.931 . S
C879 H867 0.929 . S
C879 C873 1.390 . S
C879 C876 1.386 . S
C880 C875 1.490 . S
C880 C882 1.395 . S
C880 C883 1.403 . S
H881 C887 0.930 . S
C882 H868 0.930 . S
C882 C880 1.395 . S
C882 C885 1.403 . S
C883 C880 1.403 . S
C883 C884 1.524 . S
C883 C887 1.400 . S
C884 H869 0.960 . S
C884 H870 0.960 . S
C884 H871 0.960 . S
C884 C883 1.524 . S
C885 C882 1.403 . S
C885 C886 1.392 . S
C885 C889 1.495 . S
C886 C885 1.392 . S
C886 C887 1.385 . S
C886 C888 1.478 . S
C887 H881 0.930 . S
C887 C883 1.400 . S
C887 C886 1.385 . S
C888 C886 1.478 . S
C888 C890 1.381 . S
C888 C894 1.383 . S
C889 C885 1.495 . S
C889 H895 0.959 . S
C889 H896 0.961 . S
C889 H897 0.960 . S
C890 C888 1.381 . S
C890 C891 1.394 . S
C890 H898 0.930 . S
C891 C890 1.394 . S
C891 C892 1.383 . S
C891 H899 0.929 . S
C892 C891 1.383 . S
C892 C893 1.377 . S
C893 H877 0.930 . S
C893 C892 1.377 . S
C893 C894 1.379 . S
C894 H878 0.931 . S
C894 C888 1.383 . S
C894 C893 1.379 . S
H895 C889 0.959 . S
H896 C889 0.961 . S
H897 C889 0.960 . S
H898 C890 0.930 . S
H899 C891 0.929 . S
H900 C908 0.929 . S
H901 C910 0.917 1_455 S
H902 C912 0.930 . S
H903 C915 0.929 . S
H904 C918 0.930 . S
H905 C920 0.985 . S
H906 C920 0.973 . S
H907 C920 0.946 1_565 S
C908 H900 0.929 . S
C908 C909 1.377 . S
C908 C910 1.384 1_455 S
C909 C908 1.377 . S
C909 C915 1.390 1_455 S
C910 H901 0.917 1_655 S
C910 C908 1.384 1_655 S
C910 C911 1.372 . S
C911 C910 1.372 . S
C911 C912 1.400 . S
C911 C916 1.490 . S
C912 H902 0.930 . S
C912 C911 1.400 . S
C912 C915 1.386 . S
H913 C929 0.930 . S
H914 C930 0.931 . S
C915 H903 0.929 . S
C915 C909 1.390 1_655 S
C915 C912 1.386 . S
C916 C911 1.490 . S
C916 C918 1.395 . S
C916 C919 1.403 . S
H917 C923 0.930 . S
C918 H904 0.930 . S
C918 C916 1.395 . S
C918 C921 1.403 . S
C919 C916 1.403 . S
C919 C920 1.501 1_565 S
C919 C923 1.400 . S
C920 H905 0.985 . S
C920 H906 0.973 . S
C920 H907 0.946 1_545 S
C920 C919 1.501 1_545 S
C921 C918 1.403 . S
C921 C922 1.392 . S
C921 C925 1.495 . S
C922 C921 1.392 . S
C922 C923 1.385 . S
C922 C924 1.478 . S
C923 H917 0.930 . S
C923 C919 1.400 . S
C923 C922 1.385 . S
C924 C922 1.478 . S
C924 C926 1.381 . S
C924 C930 1.383 . S
C925 C921 1.495 . S
C925 H931 0.959 . S
C925 H932 0.961 . S
C925 H933 0.960 . S
C926 C924 1.381 . S
C926 C927 1.394 . S
C926 H934 0.930 . S
C927 C926 1.394 . S
C927 C928 1.383 . S
C927 H935 0.929 . S
C928 C927 1.383 . S
C928 C929 1.377 . S
C929 H913 0.930 . S
C929 C928 1.377 . S
C929 C930 1.379 . S
C930 H914 0.931 . S
C930 C924 1.383 . S
C930 C929 1.379 . S
H931 C925 0.959 . S
H932 C925 0.961 . S
H933 C925 0.960 . S
H934 C926 0.930 . S
H935 C927 0.929 . S
H936 C944 0.929 . S
H937 C946 0.930 . S
H938 C948 0.930 . S
H939 C951 0.929 . S
H940 C954 0.930 . S
H941 C956 0.960 . S
H942 C956 0.960 . S
H943 C956 0.960 . S
C944 H936 0.929 . S
C944 C945 1.377 . S
C944 C946 1.384 . S
C945 C944 1.377 . S
C945 C951 1.390 . S
C946 H937 0.930 . S
C946 C944 1.384 . S
C946 C947 1.372 . S
C947 C946 1.372 . S
C947 C948 1.400 . S
C947 C952 1.490 . S
C948 H938 0.930 . S
C948 C947 1.400 . S
C948 C951 1.386 . S
H949 C965 0.930 . S
H950 C966 0.931 . S
C951 H939 0.929 . S
C951 C945 1.390 . S
C951 C948 1.386 . S
C952 C947 1.490 . S
C952 C954 1.395 . S
C952 C955 1.403 . S
H953 C959 0.930 . S
C954 H940 0.930 . S
C954 C952 1.395 . S
C954 C957 1.403 . S
C955 C952 1.403 . S
C955 C956 1.524 . S
C955 C959 1.400 . S
C956 H941 0.960 . S
C956 H942 0.960 . S
C956 H943 0.960 . S
C956 C955 1.524 . S
C957 C954 1.403 . S
C957 C958 1.392 . S
C957 C961 1.495 . S
C958 C957 1.392 . S
C958 C959 1.385 . S
C958 C960 1.478 . S
C959 H953 0.930 . S
C959 C955 1.400 . S
C959 C958 1.385 . S
C960 C958 1.478 . S
C960 C962 1.381 . S
C960 C966 1.383 . S
C961 C957 1.495 . S
C961 H967 0.959 . S
C961 H968 0.961 . S
C961 H969 0.960 . S
C962 C960 1.381 . S
C962 C963 1.394 . S
C962 H970 0.930 . S
C963 C962 1.394 . S
C963 C964 1.383 . S
C963 H971 0.929 . S
C964 C963 1.383 . S
C964 C965 1.377 . S
C965 H949 0.930 . S
C965 C964 1.377 . S
C965 C966 1.379 . S
C966 H950 0.931 . S
C966 C960 1.383 . S
C966 C965 1.379 . S
H967 C961 0.959 . S
H968 C961 0.961 . S
H969 C961 0.960 . S
H970 C962 0.930 . S
H971 C963 0.929 . S
H972 C980 0.929 . S
H973 C982 0.930 . S
H974 C984 0.930 . S
H975 C987 0.929 . S
H976 C990 0.930 . S
H977 C992 0.960 . S
H978 C992 0.960 . S
H979 C992 0.960 . S
C980 H972 0.929 . S
C980 C981 1.377 . S
C980 C982 1.384 . S
C981 C980 1.377 . S
C981 C987 1.390 . S
C982 H973 0.930 . S
C982 C980 1.384 . S
C982 C983 1.372 . S
C983 C982 1.372 . S
C983 C984 1.400 . S
C983 C988 1.490 . S
C984 H974 0.930 . S
C984 C983 1.400 . S
C984 C987 1.386 . S
H985 C1001 0.930 . S
H986 C1002 0.931 . S
C987 H975 0.929 . S
C987 C981 1.390 . S
C987 C984 1.386 . S
C988 C983 1.490 . S
C988 C990 1.395 . S
C988 C991 1.403 . S
H989 C995 0.930 . S
C990 H976 0.930 . S
C990 C988 1.395 . S
C990 C993 1.403 . S
C991 C988 1.403 . S
C991 C992 1.524 . S
C991 C995 1.400 . S
C992 H977 0.960 . S
C992 H978 0.960 . S
C992 H979 0.960 . S
C992 C991 1.524 . S
C993 C990 1.403 . S
C993 C994 1.392 . S
C993 C997 1.495 . S
C994 C993 1.392 . S
C994 C995 1.385 . S
C994 C996 1.478 . S
C995 H989 0.930 . S
C995 C991 1.400 . S
C995 C994 1.385 . S
C996 C994 1.478 . S
C996 C998 1.381 . S
C996 C1002 1.383 . S
C997 C993 1.495 . S
C997 H1003 0.959 . S
C997 H1004 0.961 . S
C997 H1005 0.960 . S
C998 C996 1.381 . S
C998 C999 1.394 . S
C998 H1006 0.930 . S
C999 C998 1.394 . S
C999 C1000 1.383 . S
C999 H1007 0.929 . S
C1000 C999 1.383 . S
C1000 C1001 1.377 . S
C1001 H985 0.930 . S
C1001 C1000 1.377 . S
C1001 C1002 1.379 . S
C1002 H986 0.931 . S
C1002 C996 1.383 . S
C1002 C1001 1.379 . S
H1003 C997 0.959 . S
H1004 C997 0.961 . S
H1005 C997 0.960 . S
H1006 C998 0.930 . S
H1007 C999 0.929 . S
H1008 C1016 0.929 . S
H1009 C1018 0.930 . S
H1010 C1020 0.930 . S
H1011 C1023 0.929 . S
H1012 C1026 0.930 . S
H1013 C1028 0.960 . S
H1014 C1028 0.960 . S
H1015 C1028 0.960 . S
C1016 H1008 0.929 . S
C1016 C1017 1.377 . S
C1016 C1018 1.384 . S
C1017 C1016 1.377 . S
C1017 C1023 1.390 . S
C1018 H1009 0.930 . S
C1018 C1016 1.384 . S
C1018 C1019 1.372 . S
C1019 C1018 1.372 . S
C1019 C1020 1.400 . S
C1019 C1024 1.490 . S
C1020 H1010 0.930 . S
C1020 C1019 1.400 . S
C1020 C1023 1.386 . S
H1021 C1037 0.930 . S
H1022 C1038 0.931 . S
C1023 H1011 0.929 . S
C1023 C1017 1.390 . S
C1023 C1020 1.386 . S
C1024 C1019 1.490 . S
C1024 C1026 1.395 . S
C1024 C1027 1.403 . S
H1025 C1031 0.930 . S
C1026 H1012 0.930 . S
C1026 C1024 1.395 . S
C1026 C1029 1.403 . S
C1027 C1024 1.403 . S
C1027 C1028 1.524 . S
C1027 C1031 1.400 . S
C1028 H1013 0.960 . S
C1028 H1014 0.960 . S
C1028 H1015 0.960 . S
C1028 C1027 1.524 . S
C1029 C1026 1.403 . S
C1029 C1030 1.392 . S
C1029 C1033 1.495 . S
C1030 C1029 1.392 . S
C1030 C1031 1.385 . S
C1030 C1032 1.478 . S
C1031 H1025 0.930 . S
C1031 C1027 1.400 . S
C1031 C1030 1.385 . S
C1032 C1030 1.478 . S
C1032 C1034 1.381 . S
C1032 C1038 1.383 . S
C1033 C1029 1.495 . S
C1033 H1039 0.959 . S
C1033 H1040 0.961 . S
C1033 H1041 0.960 . S
C1034 C1032 1.381 . S
C1034 C1035 1.394 . S
C1034 H1042 0.930 . S
C1035 C1034 1.394 . S
C1035 C1036 1.383 . S
C1035 H1043 0.929 . S
C1036 C1035 1.383 . S
C1036 C1037 1.377 . S
C1037 H1021 0.930 . S
C1037 C1036 1.377 . S
C1037 C1038 1.379 . S
C1038 H1022 0.931 . S
C1038 C1032 1.383 . S
C1038 C1037 1.379 . S
H1039 C1033 0.959 . S
H1040 C1033 0.961 . S
H1041 C1033 0.960 . S
H1042 C1034 0.930 . S
H1043 C1035 0.929 . S
H1044 C1052 0.929 . S
H1045 C1054 0.930 . S
H1046 C1056 0.930 . S
H1047 C1059 0.929 . S
H1048 C1062 0.930 1_545 S
H1049 C1064 0.960 . S
H1050 C1064 0.960 . S
H1051 C1064 0.960 . S
C1052 H1044 0.929 . S
C1052 C1053 1.377 . S
C1052 C1054 1.384 . S
C1053 C1052 1.377 . S
C1053 C1059 1.390 . S
C1054 H1045 0.930 . S
C1054 C1052 1.384 . S
C1054 C1055 1.372 . S
C1055 C1054 1.372 . S
C1055 C1056 1.400 . S
C1055 C1060 1.490 . S
C1056 H1046 0.930 . S
C1056 C1055 1.400 . S
C1056 C1059 1.386 . S
H1057 C1073 0.930 . S
H1058 C1074 0.931 . S
C1059 H1047 0.929 . S
C1059 C1053 1.390 . S
C1059 C1056 1.386 . S
C1060 C1055 1.490 . S
C1060 C1062 1.395 . S
C1060 C1063 1.403 . S
H1061 C1067 0.930 . S
C1062 H1048 0.930 1_565 S
C1062 C1060 1.395 . S
C1062 C1065 1.411 . S
C1063 C1060 1.403 . S
C1063 C1064 1.524 . S
C1063 C1067 1.400 . S
C1064 H1049 0.960 . S
C1064 H1050 0.960 . S
C1064 H1051 0.960 . S
C1064 C1063 1.524 . S
C1065 C1062 1.411 . S
C1065 C1066 1.412 . S
C1065 C1069 1.470 1_565 S
C1066 C1065 1.412 . S
C1066 C1067 1.385 . S
C1066 C1068 1.478 . S
C1067 H1061 0.930 . S
C1067 C1063 1.400 . S
C1067 C1066 1.385 . S
C1068 C1066 1.478 . S
C1068 C1070 1.381 1_565 S
C1068 C1074 1.383 . S
C1069 C1065 1.470 1_545 S
C1069 H1075 0.959 . S
C1069 H1076 0.961 . S
C1069 H1077 0.960 . S
C1070 C1068 1.381 1_545 S
C1070 C1071 1.394 . S
C1070 H1078 0.930 . S
C1071 C1070 1.394 . S
C1071 C1072 1.383 1_545 S
C1071 H1079 0.929 . S
C1072 C1071 1.383 1_565 S
C1072 C1073 1.377 . S
C1073 H1057 0.930 . S
C1073 C1072 1.377 . S
C1073 C1074 1.379 . S
C1074 H1058 0.931 . S
C1074 C1068 1.383 . S
C1074 C1073 1.379 . S
H1075 C1069 0.959 . S
H1076 C1069 0.961 . S
H1077 C1069 0.960 . S
H1078 C1070 0.930 . S
H1079 C1071 0.929 . S
H1080 C1088 0.929 . S
H1081 C1090 0.930 . S
H1082 C1092 0.930 . S
H1083 C1095 0.929 . S
H1084 C1098 0.930 . S
H1085 C1100 0.960 . S
H1086 C1100 0.960 . S
H1087 C1100 0.960 . S
C1088 H1080 0.929 . S
C1088 C1089 1.377 . S
C1088 C1090 1.384 . S
C1089 C1088 1.377 . S
C1089 C1095 1.390 . S
C1090 H1081 0.930 . S
C1090 C1088 1.384 . S
C1090 C1091 1.372 . S
C1091 C1090 1.372 . S
C1091 C1092 1.400 . S
C1091 C1096 1.490 . S
C1092 H1082 0.930 . S
C1092 C1091 1.400 . S
C1092 C1095 1.386 . S
H1093 C1109 0.930 . S
H1094 C1110 0.931 . S
C1095 H1083 0.929 . S
C1095 C1089 1.390 . S
C1095 C1092 1.386 . S
C1096 C1091 1.490 . S
C1096 C1098 1.395 . S
C1096 C1099 1.403 . S
H1097 C1103 0.930 . S
C1098 H1084 0.930 . S
C1098 C1096 1.395 . S
C1098 C1101 1.403 . S
C1099 C1096 1.403 . S
C1099 C1100 1.524 . S
C1099 C1103 1.400 . S
C1100 H1085 0.960 . S
C1100 H1086 0.960 . S
C1100 H1087 0.960 . S
C1100 C1099 1.524 . S
C1101 C1098 1.403 . S
C1101 C1102 1.392 . S
C1101 C1105 1.495 . S
C1102 C1101 1.392 . S
C1102 C1103 1.385 . S
C1102 C1104 1.478 . S
C1103 H1097 0.930 . S
C1103 C1099 1.400 . S
C1103 C1102 1.385 . S
C1104 C1102 1.478 . S
C1104 C1106 1.381 . S
C1104 C1110 1.383 . S
C1105 C1101 1.495 . S
C1105 H1111 0.959 . S
C1105 H1112 0.961 . S
C1105 H1113 0.960 . S
C1106 C1104 1.381 . S
C1106 C1107 1.394 . S
C1106 H1114 0.930 . S
C1107 C1106 1.394 . S
C1107 C1108 1.383 . S
C1107 H1115 0.929 . S
C1108 C1107 1.383 . S
C1108 C1109 1.377 . S
C1109 H1093 0.930 . S
C1109 C1108 1.377 . S
C1109 C1110 1.379 . S
C1110 H1094 0.931 . S
C1110 C1104 1.383 . S
C1110 C1109 1.379 . S
H1111 C1105 0.959 . S
H1112 C1105 0.961 . S
H1113 C1105 0.960 . S
H1114 C1106 0.930 . S
H1115 C1107 0.929 . S
H1116 C1124 0.929 . S
H1117 C1126 0.930 . S
H1118 C1128 0.930 . S
H1119 C1131 0.929 . S
H1120 C1134 0.930 . S
H1121 C1136 0.960 . S
H1122 C1136 0.960 . S
H1123 C1136 0.960 . S
C1124 H1116 0.929 . S
C1124 C1125 1.377 . S
C1124 C1126 1.384 . S
C1125 C1124 1.377 . S
C1125 C1131 1.390 . S
C1126 H1117 0.930 . S
C1126 C1124 1.384 . S
C1126 C1127 1.372 . S
C1127 C1126 1.372 . S
C1127 C1128 1.400 . S
C1127 C1132 1.490 . S
C1128 H1118 0.930 . S
C1128 C1127 1.400 . S
C1128 C1131 1.386 . S
H1129 C1145 0.930 . S
H1130 C1146 0.931 . S
C1131 H1119 0.929 . S
C1131 C1125 1.390 . S
C1131 C1128 1.386 . S
C1132 C1127 1.490 . S
C1132 C1134 1.395 . S
C1132 C1135 1.403 . S
H1133 C1139 0.930 . S
C1134 H1120 0.930 . S
C1134 C1132 1.395 . S
C1134 C1137 1.403 . S
C1135 C1132 1.403 . S
C1135 C1136 1.524 . S
C1135 C1139 1.400 . S
C1136 H1121 0.960 . S
C1136 H1122 0.960 . S
C1136 H1123 0.960 . S
C1136 C1135 1.524 . S
C1137 C1134 1.403 . S
C1137 C1138 1.392 . S
C1137 C1141 1.495 . S
C1138 C1137 1.392 . S
C1138 C1139 1.385 . S
C1138 C1140 1.478 . S
C1139 H1133 0.930 . S
C1139 C1135 1.400 . S
C1139 C1138 1.385 . S
C1140 C1138 1.478 . S
C1140 C1142 1.381 . S
C1140 C1146 1.383 . S
C1141 C1137 1.495 . S
C1141 H1147 0.959 . S
C1141 H1148 0.961 . S
C1141 H1149 0.960 . S
C1142 C1140 1.381 . S
C1142 C1143 1.394 . S
C1142 H1150 0.930 . S
C1143 C1142 1.394 . S
C1143 C1144 1.383 . S
C1143 H1151 0.929 . S
C1144 C1143 1.383 . S
C1144 C1145 1.377 . S
C1145 H1129 0.930 . S
C1145 C1144 1.377 . S
C1145 C1146 1.379 . S
C1146 H1130 0.931 . S
C1146 C1140 1.383 . S
C1146 C1145 1.379 . S
H1147 C1141 0.959 . S
H1148 C1141 0.961 . S
H1149 C1141 0.960 . S
H1150 C1142 0.930 . S
H1151 C1143 0.929 . S
H1152 C1160 0.929 . S
H1153 C1162 0.930 . S
H1154 C1164 0.930 . S
H1155 C1167 0.929 . S
H1156 C1170 0.930 . S
H1157 C1172 0.960 . S
H1158 C1172 0.960 . S
H1159 C1172 0.960 . S
C1160 H1152 0.929 . S
C1160 C1161 1.377 . S
C1160 C1162 1.384 . S
C1161 C1160 1.377 . S
C1161 C1167 1.390 . S
C1162 H1153 0.930 . S
C1162 C1160 1.384 . S
C1162 C1163 1.372 . S
C1163 C1162 1.372 . S
C1163 C1164 1.400 . S
C1163 C1168 1.490 . S
C1164 H1154 0.930 . S
C1164 C1163 1.400 . S
C1164 C1167 1.386 . S
H1165 C1181 0.930 . S
H1166 C1182 0.931 . S
C1167 H1155 0.929 . S
C1167 C1161 1.390 . S
C1167 C1164 1.386 . S
C1168 C1163 1.490 . S
C1168 C1170 1.395 . S
C1168 C1171 1.403 . S
H1169 C1175 0.930 . S
C1170 H1156 0.930 . S
C1170 C1168 1.395 . S
C1170 C1173 1.403 . S
C1171 C1168 1.403 . S
C1171 C1172 1.524 . S
C1171 C1175 1.400 . S
C1172 H1157 0.960 . S
C1172 H1158 0.960 . S
C1172 H1159 0.960 . S
C1172 C1171 1.524 . S
C1173 C1170 1.403 . S
C1173 C1174 1.392 . S
C1173 C1177 1.495 . S
C1174 C1173 1.392 . S
C1174 C1175 1.385 . S
C1174 C1176 1.478 . S
C1175 H1169 0.930 . S
C1175 C1171 1.400 . S
C1175 C1174 1.385 . S
C1176 C1174 1.478 . S
C1176 C1178 1.381 . S
C1176 C1182 1.383 . S
C1177 C1173 1.495 . S
C1177 H1183 0.959 . S
C1177 H1184 0.961 . S
C1177 H1185 0.960 . S
C1178 C1176 1.381 . S
C1178 C1179 1.394 . S
C1178 H1186 0.930 . S
C1179 C1178 1.394 . S
C1179 C1180 1.383 . S
C1179 H1187 0.929 . S
C1180 C1179 1.383 . S
C1180 C1181 1.377 . S
C1181 H1165 0.930 . S
C1181 C1180 1.377 . S
C1181 C1182 1.379 . S
C1182 H1166 0.931 . S
C1182 C1176 1.383 . S
C1182 C1181 1.379 . S
H1183 C1177 0.959 . S
H1184 C1177 0.961 . S
H1185 C1177 0.960 . S
H1186 C1178 0.930 . S
H1187 C1179 0.929 . S
H1188 C1196 0.929 . S
H1189 C1198 0.930 . S
H1190 C1200 0.930 . S
H1191 C1203 0.929 . S
H1192 C1206 0.930 . S
H1193 C1208 0.960 . S
H1194 C1208 0.960 . S
H1195 C1208 0.960 . S
C1196 H1188 0.929 . S
C1196 C1197 1.377 . S
C1196 C1198 1.384 . S
C1197 C1196 1.377 . S
C1197 C1203 1.390 . S
C1198 H1189 0.930 . S
C1198 C1196 1.384 . S
C1198 C1199 1.372 . S
C1199 C1198 1.372 . S
C1199 C1200 1.400 . S
C1199 C1204 1.490 . S
C1200 H1190 0.930 . S
C1200 C1199 1.400 . S
C1200 C1203 1.386 . S
H1201 C1217 0.930 . S
H1202 C1218 0.931 . S
C1203 H1191 0.929 . S
C1203 C1197 1.390 . S
C1203 C1200 1.386 . S
C1204 C1199 1.490 . S
C1204 C1206 1.395 . S
C1204 C1207 1.403 . S
H1205 C1211 0.930 . S
C1206 H1192 0.930 . S
C1206 C1204 1.395 . S
C1206 C1209 1.403 . S
C1207 C1204 1.403 . S
C1207 C1208 1.524 . S
C1207 C1211 1.400 . S
C1208 H1193 0.960 . S
C1208 H1194 0.960 . S
C1208 H1195 0.960 . S
C1208 C1207 1.524 . S
C1209 C1206 1.403 . S
C1209 C1210 1.392 . S
C1209 C1213 1.495 . S
C1210 C1209 1.392 . S
C1210 C1211 1.385 . S
C1210 C1212 1.478 . S
C1211 H1205 0.930 . S
C1211 C1207 1.400 . S
C1211 C1210 1.385 . S
C1212 C1210 1.478 . S
C1212 C1214 1.381 . S
C1212 C1218 1.383 . S
C1213 C1209 1.495 . S
C1213 H1219 0.959 . S
C1213 H1220 0.961 . S
C1213 H1221 0.960 . S
C1214 C1212 1.381 . S
C1214 C1215 1.394 . S
C1214 H1222 0.930 . S
C1215 C1214 1.394 . S
C1215 C1216 1.383 . S
C1215 H1223 0.929 . S
C1216 C1215 1.383 . S
C1216 C1217 1.377 . S
C1217 H1201 0.930 . S
C1217 C1216 1.377 . S
C1217 C1218 1.379 . S
C1218 H1202 0.931 . S
C1218 C1212 1.383 . S
C1218 C1217 1.379 . S
H1219 C1213 0.959 . S
H1220 C1213 0.961 . S
H1221 C1213 0.960 . S
H1222 C1214 0.930 . S
H1223 C1215 0.929 . S
H1224 C1232 0.929 . S
H1225 C1234 0.930 . S
H1226 C1236 0.930 . S
H1227 C1239 0.929 . S
H1228 C1242 0.930 . S
H1229 C1244 0.960 . S
H1230 C1244 0.960 . S
H1231 C1244 0.960 . S
C1232 H1224 0.929 . S
C1232 C1233 1.377 . S
C1232 C1234 1.384 . S
C1233 C1232 1.377 . S
C1233 C1239 1.390 . S
C1234 H1225 0.930 . S
C1234 C1232 1.384 . S
C1234 C1235 1.372 . S
C1235 C1234 1.372 . S
C1235 C1236 1.400 . S
C1235 C1240 1.490 . S
C1236 H1226 0.930 . S
C1236 C1235 1.400 . S
C1236 C1239 1.386 . S
H1237 C1253 0.930 . S
H1238 C1254 0.931 . S
C1239 H1227 0.929 . S
C1239 C1233 1.390 . S
C1239 C1236 1.386 . S
C1240 C1235 1.490 . S
C1240 C1242 1.395 . S
C1240 C1243 1.403 . S
H1241 C1247 0.930 . S
C1242 H1228 0.930 . S
C1242 C1240 1.395 . S
C1242 C1245 1.403 . S
C1243 C1240 1.403 . S
C1243 C1244 1.524 . S
C1243 C1247 1.400 . S
C1244 H1229 0.960 . S
C1244 H1230 0.960 . S
C1244 H1231 0.960 . S
C1244 C1243 1.524 . S
C1245 C1242 1.403 . S
C1245 C1246 1.392 . S
C1245 C1249 1.495 . S
C1246 C1245 1.392 . S
C1246 C1247 1.385 . S
C1246 C1248 1.478 . S
C1247 H1241 0.930 . S
C1247 C1243 1.400 . S
C1247 C1246 1.385 . S
C1248 C1246 1.478 . S
C1248 C1250 1.381 . S
C1248 C1254 1.383 . S
C1249 C1245 1.495 . S
C1249 H1255 0.959 . S
C1249 H1256 0.961 . S
C1249 H1257 0.960 . S
C1250 C1248 1.381 . S
C1250 C1251 1.394 . S
C1250 H1258 0.930 . S
C1251 C1250 1.394 . S
C1251 C1252 1.383 . S
C1251 H1259 0.929 . S
C1252 C1251 1.383 . S
C1252 C1253 1.377 . S
C1253 H1237 0.930 . S
C1253 C1252 1.377 . S
C1253 C1254 1.379 . S
C1254 H1238 0.931 . S
C1254 C1248 1.383 . S
C1254 C1253 1.379 . S
H1255 C1249 0.959 . S
H1256 C1249 0.961 . S
H1257 C1249 0.960 . S
H1258 C1250 0.930 . S
H1259 C1251 0.929 . S
H1260 C1268 0.929 . S
H1261 C1270 0.930 . S
H1262 C1272 0.930 . S
H1263 C1275 0.929 . S
H1264 C1278 0.930 . S
H1265 C1280 0.960 1_655 S
H1266 C1280 0.949 1_655 S
H1267 C1280 0.960 . S
C1268 H1260 0.929 . S
C1268 C1269 1.377 . S
C1268 C1270 1.384 . S
C1269 C1268 1.377 . S
C1269 C1275 1.390 . S
C1270 H1261 0.930 . S
C1270 C1268 1.384 . S
C1270 C1271 1.372 . S
C1271 C1270 1.372 . S
C1271 C1272 1.400 . S
C1271 C1276 1.490 . S
C1272 H1262 0.930 . S
C1272 C1271 1.400 . S
C1272 C1275 1.386 . S
H1273 C1289 0.930 . S
H1274 C1290 0.931 . S
C1275 H1263 0.929 . S
C1275 C1269 1.390 . S
C1275 C1272 1.386 . S
C1276 C1271 1.490 . S
C1276 C1278 1.395 . S
C1276 C1279 1.403 . S
H1277 C1283 0.930 . S
C1278 H1264 0.930 . S
C1278 C1276 1.395 . S
C1278 C1281 1.403 . S
C1279 C1276 1.403 . S
C1279 C1280 1.524 . S
C1279 C1283 1.400 . S
C1280 H1265 0.960 1_455 S
C1280 H1266 0.949 1_455 S
C1280 H1267 0.960 . S
C1280 C1279 1.524 . S
C1281 C1278 1.403 . S
C1281 C1282 1.392 . S
C1281 C1285 1.495 . S
C1282 C1281 1.392 . S
C1282 C1283 1.385 . S
C1282 C1284 1.478 . S
C1283 H1277 0.930 . S
C1283 C1279 1.400 . S
C1283 C1282 1.385 . S
C1284 C1282 1.478 . S
C1284 C1286 1.381 . S
C1284 C1290 1.383 . S
C1285 C1281 1.495 . S
C1285 H1291 0.959 . S
C1285 H1292 0.961 . S
C1285 H1293 0.960 . S
C1286 C1284 1.381 . S
C1286 C1287 1.394 . S
C1286 H1294 0.930 . S
C1287 C1286 1.394 . S
C1287 C1288 1.383 . S
C1287 H1295 0.929 . S
C1288 C1287 1.383 . S
C1288 C1289 1.377 . S
C1289 H1273 0.930 . S
C1289 C1288 1.377 . S
C1289 C1290 1.379 . S
C1290 H1274 0.931 . S
C1290 C1284 1.383 . S
C1290 C1289 1.379 . S
H1291 C1285 0.959 . S
H1292 C1285 0.961 . S
H1293 C1285 0.960 . S
H1294 C1286 0.930 . S
H1295 C1287 0.929 . S
H1296 C1304 0.929 . S
H1297 C1306 0.930 . S
H1298 C1308 0.930 . S
H1299 C1311 0.929 . S
H1300 C1314 0.930 . S
H1301 C1316 0.960 . S
H1302 C1316 0.960 . S
H1303 C1316 0.960 . S
C1304 H1296 0.929 . S
C1304 C1305 1.377 . S
C1304 C1306 1.384 . S
C1305 C1304 1.377 . S
C1305 C1311 1.390 . S
C1306 H1297 0.930 . S
C1306 C1304 1.384 . S
C1306 C1307 1.372 . S
C1307 C1306 1.372 . S
C1307 C1308 1.400 . S
C1307 C1312 1.490 . S
C1308 H1298 0.930 . S
C1308 C1307 1.400 . S
C1308 C1311 1.386 . S
H1309 C1325 0.930 . S
H1310 C1326 0.931 . S
C1311 H1299 0.929 . S
C1311 C1305 1.390 . S
C1311 C1308 1.386 . S
C1312 C1307 1.490 . S
C1312 C1314 1.395 . S
C1312 C1315 1.403 . S
H1313 C1319 0.930 . S
C1314 H1300 0.930 . S
C1314 C1312 1.395 . S
C1314 C1317 1.403 . S
C1315 C1312 1.403 . S
C1315 C1316 1.524 . S
C1315 C1319 1.400 . S
C1316 H1301 0.960 . S
C1316 H1302 0.960 . S
C1316 H1303 0.960 . S
C1316 C1315 1.524 . S
C1317 C1314 1.403 . S
C1317 C1318 1.392 . S
C1317 C1321 1.495 . S
C1318 C1317 1.392 . S
C1318 C1319 1.385 . S
C1318 C1320 1.478 . S
C1319 H1313 0.930 . S
C1319 C1315 1.400 . S
C1319 C1318 1.385 . S
C1320 C1318 1.478 . S
C1320 C1322 1.381 . S
C1320 C1326 1.383 . S
C1321 C1317 1.495 . S
C1321 H1327 0.959 . S
C1321 H1328 0.961 . S
C1321 H1329 0.960 . S
C1322 C1320 1.381 . S
C1322 C1323 1.394 . S
C1322 H1330 0.930 . S
C1323 C1322 1.394 . S
C1323 C1324 1.383 . S
C1323 H1331 0.929 . S
C1324 C1323 1.383 . S
C1324 C1325 1.377 . S
C1325 H1309 0.930 . S
C1325 C1324 1.377 . S
C1325 C1326 1.379 . S
C1326 H1310 0.931 . S
C1326 C1320 1.383 . S
C1326 C1325 1.379 . S
H1327 C1321 0.959 . S
H1328 C1321 0.961 . S
H1329 C1321 0.960 . S
H1330 C1322 0.930 . S
H1331 C1323 0.929 . S
H1332 C1340 0.929 . S
H1333 C1342 0.930 . S
H1334 C1344 0.930 . S
H1335 C1347 0.929 . S
H1336 C1350 0.930 . S
H1337 C1352 0.960 . S
H1338 C1352 0.960 . S
H1339 C1352 0.960 . S
C1340 H1332 0.929 . S
C1340 C1341 1.377 . S
C1340 C1342 1.384 . S
C1341 C1340 1.377 . S
C1341 C1347 1.390 . S
C1342 H1333 0.930 . S
C1342 C1340 1.384 . S
C1342 C1343 1.372 . S
C1343 C1342 1.372 . S
C1343 C1344 1.400 . S
C1343 C1348 1.490 . S
C1344 H1334 0.930 . S
C1344 C1343 1.400 . S
C1344 C1347 1.386 . S
H1345 C1361 0.914 1_455 S
H1346 C1362 0.931 . S
C1347 H1335 0.929 . S
C1347 C1341 1.390 . S
C1347 C1344 1.386 . S
C1348 C1343 1.490 . S
C1348 C1350 1.395 . S
C1348 C1351 1.403 . S
H1349 C1355 0.930 1_455 S
C1350 H1336 0.930 . S
C1350 C1348 1.395 . S
C1350 C1353 1.403 . S
C1351 C1348 1.403 . S
C1351 C1352 1.524 1_655 S
C1351 C1355 1.400 . S
C1352 H1337 0.960 . S
C1352 H1338 0.960 . S
C1352 H1339 0.960 . S
C1352 C1351 1.524 1_455 S
C1353 C1350 1.403 . S
C1353 C1354 1.392 . S
C1353 C1357 1.495 . S
C1354 C1353 1.392 . S
C1354 C1355 1.385 . S
C1354 C1356 1.478 . S
C1355 H1349 0.930 1_655 S
C1355 C1351 1.400 . S
C1355 C1354 1.385 . S
C1356 C1354 1.478 . S
C1356 C1358 1.381 . S
C1356 C1362 1.383 . S
C1357 C1353 1.495 . S
C1357 H1363 0.959 . S
C1357 H1364 0.961 . S
C1357 H1365 0.960 . S
C1358 C1356 1.381 . S
C1358 C1359 1.394 . S
C1358 H1366 0.930 . S
C1359 C1358 1.394 . S
C1359 C1360 1.383 . S
C1359 H1367 0.929 . S
C1360 C1359 1.383 . S
C1360 C1361 1.377 . S
C1361 H1345 0.914 1_655 S
C1361 C1360 1.377 . S
C1361 C1362 1.379 . S
C1362 H1346 0.931 . S
C1362 C1356 1.383 . S
C1362 C1361 1.379 . S
H1363 C1357 0.959 . S
H1364 C1357 0.961 . S
H1365 C1357 0.960 . S
H1366 C1358 0.930 . S
H1367 C1359 0.929 . S
H1368 C1376 0.929 . S
H1369 C1378 0.930 . S
H1370 C1380 0.930 . S
H1371 C1383 0.929 . S
H1372 C1386 0.930 . S
H1373 C1388 0.960 . S
H1374 C1388 0.960 . S
H1375 C1388 0.960 . S
C1376 H1368 0.929 . S
C1376 C1377 1.377 . S
C1376 C1378 1.384 . S
C1377 C1376 1.377 . S
C1377 C1383 1.390 . S
C1378 H1369 0.930 . S
C1378 C1376 1.384 . S
C1378 C1379 1.372 . S
C1379 C1378 1.372 . S
C1379 C1380 1.400 . S
C1379 C1384 1.490 . S
C1380 H1370 0.930 . S
C1380 C1379 1.400 . S
C1380 C1383 1.386 . S
H1381 C1397 0.930 . S
H1382 C1398 0.931 . S
C1383 H1371 0.929 . S
C1383 C1377 1.390 . S
C1383 C1380 1.386 . S
C1384 C1379 1.490 . S
C1384 C1386 1.395 . S
C1384 C1387 1.403 . S
H1385 C1391 0.930 . S
C1386 H1372 0.930 . S
C1386 C1384 1.395 . S
C1386 C1389 1.403 . S
C1387 C1384 1.403 . S
C1387 C1388 1.524 . S
C1387 C1391 1.400 . S
C1388 H1373 0.960 . S
C1388 H1374 0.960 . S
C1388 H1375 0.960 . S
C1388 C1387 1.524 . S
C1389 C1386 1.403 . S
C1389 C1390 1.392 . S
C1389 C1393 1.495 . S
C1390 C1389 1.392 . S
C1390 C1391 1.385 . S
C1390 C1392 1.478 . S
C1391 H1385 0.930 . S
C1391 C1387 1.400 . S
C1391 C1390 1.385 . S
C1392 C1390 1.478 . S
C1392 C1394 1.381 . S
C1392 C1398 1.383 . S
C1393 C1389 1.495 . S
C1393 H1399 0.959 . S
C1393 H1400 0.961 . S
C1393 H1401 0.960 . S
C1394 C1392 1.381 . S
C1394 C1395 1.394 . S
C1394 H1402 0.930 . S
C1395 C1394 1.394 . S
C1395 C1396 1.383 . S
C1395 H1403 0.929 . S
C1396 C1395 1.383 . S
C1396 C1397 1.377 . S
C1397 H1381 0.930 . S
C1397 C1396 1.377 . S
C1397 C1398 1.379 . S
C1398 H1382 0.931 . S
C1398 C1392 1.383 . S
C1398 C1397 1.379 . S
H1399 C1393 0.959 . S
H1400 C1393 0.961 . S
H1401 C1393 0.960 . S
H1402 C1394 0.930 . S
H1403 C1395 0.929 . S
H1404 C1412 0.929 . S
H1405 C1414 0.930 . S
H1406 C1416 0.930 . S
H1407 C1419 0.929 . S
H1408 C1422 0.930 . S
H1409 C1424 0.960 . S
H1410 C1424 0.960 . S
H1411 C1424 0.960 . S
C1412 H1404 0.929 . S
C1412 C1413 1.377 . S
C1412 C1414 1.384 . S
C1413 C1412 1.377 . S
C1413 C1419 1.390 . S
C1414 H1405 0.930 . S
C1414 C1412 1.384 . S
C1414 C1415 1.372 . S
C1415 C1414 1.372 . S
C1415 C1416 1.400 . S
C1415 C1420 1.490 . S
C1416 H1406 0.930 . S
C1416 C1415 1.400 . S
C1416 C1419 1.386 . S
H1417 C1433 0.930 . S
H1418 C1434 0.931 . S
C1419 H1407 0.929 . S
C1419 C1413 1.390 . S
C1419 C1416 1.386 . S
C1420 C1415 1.490 . S
C1420 C1422 1.395 . S
C1420 C1423 1.403 . S
H1421 C1427 0.930 . S
C1422 H1408 0.930 . S
C1422 C1420 1.395 . S
C1422 C1425 1.403 . S
C1423 C1420 1.403 . S
C1423 C1424 1.524 . S
C1423 C1427 1.400 . S
C1424 H1409 0.960 . S
C1424 H1410 0.960 . S
C1424 H1411 0.960 . S
C1424 C1423 1.524 . S
C1425 C1422 1.403 . S
C1425 C1426 1.392 . S
C1425 C1429 1.495 . S
C1426 C1425 1.392 . S
C1426 C1427 1.385 . S
C1426 C1428 1.478 . S
C1427 H1421 0.930 . S
C1427 C1423 1.400 . S
C1427 C1426 1.385 . S
C1428 C1426 1.478 . S
C1428 C1430 1.381 . S
C1428 C1434 1.383 . S
C1429 C1425 1.495 . S
C1429 H1435 0.959 . S
C1429 H1436 0.961 . S
C1429 H1437 0.960 . S
C1430 C1428 1.381 . S
C1430 C1431 1.394 . S
C1430 H1438 0.930 . S
C1431 C1430 1.394 . S
C1431 C1432 1.383 . S
C1431 H1439 0.929 . S
C1432 C1431 1.383 . S
C1432 C1433 1.377 . S
C1433 H1417 0.930 . S
C1433 C1432 1.377 . S
C1433 C1434 1.379 . S
C1434 H1418 0.931 . S
C1434 C1428 1.383 . S
C1434 C1433 1.379 . S
H1435 C1429 0.959 . S
H1436 C1429 0.961 . S
H1437 C1429 0.960 . S
H1438 C1430 0.930 . S
H1439 C1431 0.929 . S
H1440 C1448 0.929 . S
H1441 C1450 0.930 . S
H1442 C1452 0.930 . S
H1443 C1455 0.929 . S
H1444 C1458 0.930 . S
H1445 C1460 0.960 . S
H1446 C1460 0.960 1_556 S
H1447 C1460 0.960 . S
C1448 H1440 0.929 . S
C1448 C1449 1.377 . S
C1448 C1450 1.384 1_545 S
C1449 C1448 1.377 . S
C1449 C1455 1.390 1_545 S
C1450 H1441 0.930 . S
C1450 C1448 1.384 1_565 S
C1450 C1451 1.372 . S
C1451 C1450 1.372 . S
C1451 C1452 1.400 . S
C1451 C1456 1.490 . S
C1452 H1442 0.930 . S
C1452 C1451 1.400 . S
C1452 C1455 1.386 . S
H1453 C1469 0.906 1_554 S
H1454 C1470 0.929 . S
C1455 H1443 0.929 . S
C1455 C1449 1.390 1_565 S
C1455 C1452 1.386 . S
C1456 C1451 1.490 . S
C1456 C1458 1.395 . S
C1456 C1459 1.403 . S
H1457 C1463 0.873 1_554 S
C1458 H1444 0.930 . S
C1458 C1456 1.395 . S
C1458 C1461 1.403 . S
C1459 C1456 1.403 . S
C1459 C1460 1.524 1_556 S
C1459 C1463 1.400 . S
C1460 H1445 0.960 . S
C1460 H1446 0.960 1_554 S
C1460 H1447 0.960 . S
C1460 C1459 1.524 1_554 S
C1461 C1458 1.403 . S
C1461 C1462 1.392 . S
C1461 C1465 1.495 . S
C1462 C1461 1.392 . S
C1462 C1463 1.385 . S
C1462 C1464 1.478 . S
C1463 H1457 0.873 1_556 S
C1463 C1459 1.400 . S
C1463 C1462 1.385 . S
C1464 C1462 1.478 . S
C1464 C1466 1.381 . S
C1464 C1470 1.383 . S
C1465 C1461 1.495 . S
C1465 H1471 0.959 . S
C1465 H1472 0.961 . S
C1465 H1473 0.960 . S
C1466 C1464 1.381 . S
C1466 C1467 1.394 . S
C1466 H1474 0.930 . S
C1467 C1466 1.394 . S
C1467 C1468 1.383 . S
C1467 H1475 0.929 . S
C1468 C1467 1.383 . S
C1468 C1469 1.391 . S
C1469 H1453 0.906 1_556 S
C1469 C1468 1.391 . S
C1469 C1470 1.390 . S
C1470 H1454 0.929 . S
C1470 C1464 1.383 . S
C1470 C1469 1.390 . S
H1471 C1465 0.959 . S
H1472 C1465 0.961 . S
H1473 C1465 0.960 . S
H1474 C1466 0.930 . S
H1475 C1467 0.929 . S
H1476 C1484 0.929 . S
H1477 C1486 0.930 . S
H1478 C1488 0.930 . S
H1479 C1491 0.929 . S
H1480 C1494 0.930 . S
H1481 C1496 0.960 . S
H1482 C1496 0.960 . S
H1483 C1496 0.960 . S
C1484 H1476 0.929 . S
C1484 C1485 1.377 . S
C1484 C1486 1.384 . S
C1485 C1484 1.377 . S
C1485 C1491 1.390 . S
C1486 H1477 0.930 . S
C1486 C1484 1.384 . S
C1486 C1487 1.372 . S
C1487 C1486 1.372 . S
C1487 C1488 1.400 . S
C1487 C1492 1.490 . S
C1488 H1478 0.930 . S
C1488 C1487 1.400 . S
C1488 C1491 1.386 . S
H1489 C1505 0.930 . S
H1490 C1506 0.931 . S
C1491 H1479 0.929 . S
C1491 C1485 1.390 . S
C1491 C1488 1.386 . S
C1492 C1487 1.490 . S
C1492 C1494 1.395 . S
C1492 C1495 1.403 . S
H1493 C1499 0.930 . S
C1494 H1480 0.930 . S
C1494 C1492 1.395 . S
C1494 C1497 1.403 . S
C1495 C1492 1.403 . S
C1495 C1496 1.524 . S
C1495 C1499 1.400 . S
C1496 H1481 0.960 . S
C1496 H1482 0.960 . S
C1496 H1483 0.960 . S
C1496 C1495 1.524 . S
C1497 C1494 1.403 . S
C1497 C1498 1.392 . S
C1497 C1501 1.495 . S
C1498 C1497 1.392 . S
C1498 C1499 1.385 . S
C1498 C1500 1.478 . S
C1499 H1493 0.930 . S
C1499 C1495 1.400 . S
C1499 C1498 1.385 . S
C1500 C1498 1.478 . S
C1500 C1502 1.381 . S
C1500 C1506 1.383 . S
C1501 C1497 1.495 . S
C1501 H1507 0.959 . S
C1501 H1508 0.961 . S
C1501 H1509 0.960 . S
C1502 C1500 1.381 . S
C1502 C1503 1.394 . S
C1502 H1510 0.930 . S
C1503 C1502 1.394 . S
C1503 C1504 1.383 . S
C1503 H1511 0.929 . S
C1504 C1503 1.383 . S
C1504 C1505 1.377 . S
C1505 H1489 0.930 . S
C1505 C1504 1.377 . S
C1505 C1506 1.379 . S
C1506 H1490 0.931 . S
C1506 C1500 1.383 . S
C1506 C1505 1.379 . S
H1507 C1501 0.959 . S
H1508 C1501 0.961 . S
H1509 C1501 0.960 . S
H1510 C1502 0.930 . S
H1511 C1503 0.929 . S
H1512 C1520 0.929 1_565 S
H1513 C1522 0.930 . S
H1514 C1524 0.930 . S
H1515 C1527 0.929 . S
H1516 C1530 0.930 . S
H1517 C1532 0.960 . S
H1518 C1532 0.960 . S
H1519 C1532 0.960 . S
C1520 H1512 0.929 1_545 S
C1520 C1521 1.377 . S
C1520 C1522 1.384 . S
C1521 C1520 1.377 . S
C1521 C1527 1.390 . S
C1522 H1513 0.930 . S
C1522 C1520 1.384 . S
C1522 C1523 1.372 . S
C1523 C1522 1.372 . S
C1523 C1524 1.400 . S
C1523 C1528 1.490 . S
C1524 H1514 0.930 . S
C1524 C1523 1.400 . S
C1524 C1527 1.386 . S
H1525 C1541 0.930 . S
H1526 C1542 0.931 . S
C1527 H1515 0.929 . S
C1527 C1521 1.390 . S
C1527 C1524 1.386 . S
C1528 C1523 1.490 . S
C1528 C1530 1.395 . S
C1528 C1531 1.403 . S
H1529 C1535 0.930 . S
C1530 H1516 0.930 . S
C1530 C1528 1.395 . S
C1530 C1533 1.403 . S
C1531 C1528 1.403 . S
C1531 C1532 1.524 . S
C1531 C1535 1.400 . S
C1532 H1517 0.960 . S
C1532 H1518 0.960 . S
C1532 H1519 0.960 . S
C1532 C1531 1.524 . S
C1533 C1530 1.403 . S
C1533 C1534 1.392 . S
C1533 C1537 1.495 . S
C1534 C1533 1.392 . S
C1534 C1535 1.385 . S
C1534 C1536 1.478 . S
C1535 H1529 0.930 . S
C1535 C1531 1.400 . S
C1535 C1534 1.385 . S
C1536 C1534 1.478 . S
C1536 C1538 1.381 . S
C1536 C1542 1.383 . S
C1537 C1533 1.495 . S
C1537 H1543 0.959 . S
C1537 H1544 0.961 . S
C1537 H1545 0.960 . S
C1538 C1536 1.381 . S
C1538 C1539 1.394 . S
C1538 H1546 0.930 . S
C1539 C1538 1.394 . S
C1539 C1540 1.383 . S
C1539 H1547 0.929 . S
C1540 C1539 1.383 . S
C1540 C1541 1.377 . S
C1541 H1525 0.930 . S
C1541 C1540 1.377 . S
C1541 C1542 1.379 . S
C1542 H1526 0.931 . S
C1542 C1536 1.383 . S
C1542 C1541 1.379 . S
H1543 C1537 0.959 . S
H1544 C1537 0.961 . S
H1545 C1537 0.960 . S
H1546 C1538 0.930 . S
H1547 C1539 0.929 . S
H1548 C1556 0.929 . S
H1549 C1558 0.930 . S
H1550 C1560 0.930 . S
H1551 C1563 0.929 . S
H1552 C1566 0.930 . S
H1553 C1568 0.960 . S
H1554 C1568 0.960 . S
H1555 C1568 0.960 . S
C1556 H1548 0.929 . S
C1556 C1557 1.377 . S
C1556 C1558 1.384 . S
C1557 C1556 1.377 . S
C1557 C1563 1.390 . S
C1558 H1549 0.930 . S
C1558 C1556 1.384 . S
C1558 C1559 1.372 . S
C1559 C1558 1.372 . S
C1559 C1560 1.400 . S
C1559 C1564 1.490 . S
C1560 H1550 0.930 . S
C1560 C1559 1.400 . S
C1560 C1563 1.386 . S
H1561 C1577 0.930 . S
H1562 C1578 0.931 . S
C1563 H1551 0.929 . S
C1563 C1557 1.390 . S
C1563 C1560 1.386 . S
C1564 C1559 1.490 . S
C1564 C1566 1.395 . S
C1564 C1567 1.403 . S
H1565 C1571 0.930 . S
C1566 H1552 0.930 . S
C1566 C1564 1.395 . S
C1566 C1569 1.403 . S
C1567 C1564 1.403 . S
C1567 C1568 1.524 . S
C1567 C1571 1.400 . S
C1568 H1553 0.960 . S
C1568 H1554 0.960 . S
C1568 H1555 0.960 . S
C1568 C1567 1.524 . S
C1569 C1566 1.403 . S
C1569 C1570 1.392 . S
C1569 C1573 1.495 . S
C1570 C1569 1.392 . S
C1570 C1571 1.385 . S
C1570 C1572 1.478 . S
C1571 H1565 0.930 . S
C1571 C1567 1.400 . S
C1571 C1570 1.385 . S
C1572 C1570 1.478 . S
C1572 C1574 1.381 . S
C1572 C1578 1.383 . S
C1573 C1569 1.495 . S
C1573 H1579 0.959 . S
C1573 H1580 0.961 . S
C1573 H1581 0.960 . S
C1574 C1572 1.381 . S
C1574 C1575 1.394 . S
C1574 H1582 0.930 . S
C1575 C1574 1.394 . S
C1575 C1576 1.383 . S
C1575 H1583 0.929 . S
C1576 C1575 1.383 . S
C1576 C1577 1.377 . S
C1577 H1561 0.930 . S
C1577 C1576 1.377 . S
C1577 C1578 1.379 . S
C1578 H1562 0.931 . S
C1578 C1572 1.383 . S
C1578 C1577 1.379 . S
H1579 C1573 0.959 . S
H1580 C1573 0.961 . S
H1581 C1573 0.960 . S
H1582 C1574 0.930 . S
H1583 C1575 0.929 . S
H1584 C1592 0.929 . S
H1585 C1594 0.930 . S
H1586 C1596 0.930 . S
H1587 C1599 0.929 . S
H1588 C1602 0.930 . S
H1589 C1604 0.960 . S
H1590 C1604 0.960 . S
H1591 C1604 0.960 . S
C1592 H1584 0.929 . S
C1592 C1593 1.377 . S
C1592 C1594 1.384 . S
C1593 C1592 1.377 . S
C1593 C1599 1.390 . S
C1594 H1585 0.930 . S
C1594 C1592 1.384 . S
C1594 C1595 1.372 . S
C1595 C1594 1.372 . S
C1595 C1596 1.400 . S
C1595 C1600 1.490 . S
C1596 H1586 0.930 . S
C1596 C1595 1.400 . S
C1596 C1599 1.386 . S
H1597 C1613 0.930 . S
H1598 C1614 0.931 . S
C1599 H1587 0.929 . S
C1599 C1593 1.390 . S
C1599 C1596 1.386 . S
C1600 C1595 1.490 . S
C1600 C1602 1.395 . S
C1600 C1603 1.403 . S
H1601 C1607 0.930 . S
C1602 H1588 0.930 . S
C1602 C1600 1.395 . S
C1602 C1605 1.403 . S
C1603 C1600 1.403 . S
C1603 C1604 1.524 . S
C1603 C1607 1.400 . S
C1604 H1589 0.960 . S
C1604 H1590 0.960 . S
C1604 H1591 0.960 . S
C1604 C1603 1.524 . S
C1605 C1602 1.403 . S
C1605 C1606 1.392 . S
C1605 C1609 1.495 . S
C1606 C1605 1.392 . S
C1606 C1607 1.385 . S
C1606 C1608 1.478 . S
C1607 H1601 0.930 . S
C1607 C1603 1.400 . S
C1607 C1606 1.385 . S
C1608 C1606 1.478 . S
C1608 C1610 1.381 . S
C1608 C1614 1.383 . S
C1609 C1605 1.495 . S
C1609 H1615 0.959 . S
C1609 H1616 0.961 . S
C1609 H1617 0.960 . S
C1610 C1608 1.381 . S
C1610 C1611 1.394 . S
C1610 H1618 0.930 . S
C1611 C1610 1.394 . S
C1611 C1612 1.383 . S
C1611 H1619 0.929 . S
C1612 C1611 1.383 . S
C1612 C1613 1.377 . S
C1613 H1597 0.930 . S
C1613 C1612 1.377 . S
C1613 C1614 1.379 . S
C1614 H1598 0.931 . S
C1614 C1608 1.383 . S
C1614 C1613 1.379 . S
H1615 C1609 0.959 . S
H1616 C1609 0.961 . S
H1617 C1609 0.960 . S
H1618 C1610 0.930 . S
H1619 C1611 0.929 . S
H1620 C1628 0.929 . S
H1621 C1630 0.930 . S
H1622 C1632 0.930 . S
H1623 C1635 0.929 . S
H1624 C1638 0.930 . S
H1625 C1640 0.960 . S
H1626 C1640 0.960 . S
H1627 C1640 0.960 . S
C1628 H1620 0.929 . S
C1628 C1629 1.377 . S
C1628 C1630 1.384 . S
C1629 C1628 1.377 . S
C1629 C1635 1.390 . S
C1630 H1621 0.930 . S
C1630 C1628 1.384 . S
C1630 C1631 1.372 . S
C1631 C1630 1.372 . S
C1631 C1632 1.400 . S
C1631 C1636 1.490 . S
C1632 H1622 0.930 . S
C1632 C1631 1.400 . S
C1632 C1635 1.386 . S
H1633 C1649 0.930 . S
H1634 C1650 0.931 . S
C1635 H1623 0.929 . S
C1635 C1629 1.390 . S
C1635 C1632 1.386 . S
C1636 C1631 1.490 . S
C1636 C1638 1.395 . S
C1636 C1639 1.403 . S
H1637 C1643 0.930 . S
C1638 H1624 0.930 . S
C1638 C1636 1.395 . S
C1638 C1641 1.403 . S
C1639 C1636 1.403 . S
C1639 C1640 1.524 . S
C1639 C1643 1.400 . S
C1640 H1625 0.960 . S
C1640 H1626 0.960 . S
C1640 H1627 0.960 . S
C1640 C1639 1.524 . S
C1641 C1638 1.403 . S
C1641 C1642 1.392 . S
C1641 C1645 1.495 . S
C1642 C1641 1.392 . S
C1642 C1643 1.385 . S
C1642 C1644 1.478 . S
C1643 H1637 0.930 . S
C1643 C1639 1.400 . S
C1643 C1642 1.385 . S
C1644 C1642 1.478 . S
C1644 C1646 1.381 . S
C1644 C1650 1.383 . S
C1645 C1641 1.495 . S
C1645 H1651 0.959 . S
C1645 H1652 0.961 . S
C1645 H1653 0.960 . S
C1646 C1644 1.381 . S
C1646 C1647 1.394 . S
C1646 H1654 0.930 . S
C1647 C1646 1.394 . S
C1647 C1648 1.383 . S
C1647 H1655 0.929 . S
C1648 C1647 1.383 . S
C1648 C1649 1.377 . S
C1649 H1633 0.930 . S
C1649 C1648 1.377 . S
C1649 C1650 1.379 . S
C1650 H1634 0.931 . S
C1650 C1644 1.383 . S
C1650 C1649 1.379 . S
H1651 C1645 0.959 . S
H1652 C1645 0.961 . S
H1653 C1645 0.960 . S
H1654 C1646 0.930 . S
H1655 C1647 0.929 . S
H1656 C1664 0.929 . S
H1657 C1666 0.930 . S
H1658 C1668 0.930 . S
H1659 C1671 0.929 . S
H1660 C1674 0.930 . S
H1661 C1676 0.960 . S
H1662 C1676 0.960 . S
H1663 C1676 0.960 . S
C1664 H1656 0.929 . S
C1664 C1665 1.377 . S
C1664 C1666 1.384 . S
C1665 C1664 1.377 . S
C1665 C1671 1.390 . S
C1666 H1657 0.930 . S
C1666 C1664 1.384 . S
C1666 C1667 1.372 . S
C1667 C1666 1.372 . S
C1667 C1668 1.400 . S
C1667 C1672 1.490 . S
C1668 H1658 0.930 . S
C1668 C1667 1.400 . S
C1668 C1671 1.386 . S
H1669 C1685 0.930 . S
H1670 C1686 0.931 . S
C1671 H1659 0.929 . S
C1671 C1665 1.390 . S
C1671 C1668 1.386 . S
C1672 C1667 1.490 . S
C1672 C1674 1.395 . S
C1672 C1675 1.403 . S
H1673 C1679 0.930 . S
C1674 H1660 0.930 . S
C1674 C1672 1.395 . S
C1674 C1677 1.403 . S
C1675 C1672 1.403 . S
C1675 C1676 1.524 . S
C1675 C1679 1.400 . S
C1676 H1661 0.960 . S
C1676 H1662 0.960 . S
C1676 H1663 0.960 . S
C1676 C1675 1.524 . S
C1677 C1674 1.403 . S
C1677 C1678 1.392 . S
C1677 C1681 1.495 . S
C1678 C1677 1.392 . S
C1678 C1679 1.385 . S
C1678 C1680 1.478 . S
C1679 H1673 0.930 . S
C1679 C1675 1.400 . S
C1679 C1678 1.385 . S
C1680 C1678 1.478 . S
C1680 C1682 1.381 . S
C1680 C1686 1.383 . S
C1681 C1677 1.495 . S
C1681 H1687 0.959 . S
C1681 H1688 0.961 . S
C1681 H1689 0.960 . S
C1682 C1680 1.381 . S
C1682 C1683 1.394 . S
C1682 H1690 0.930 . S
C1683 C1682 1.394 . S
C1683 C1684 1.383 . S
C1683 H1691 0.929 . S
C1684 C1683 1.383 . S
C1684 C1685 1.377 . S
C1685 H1669 0.930 . S
C1685 C1684 1.377 . S
C1685 C1686 1.379 . S
C1686 H1670 0.931 . S
C1686 C1680 1.383 . S
C1686 C1685 1.379 . S
H1687 C1681 0.959 . S
H1688 C1681 0.961 . S
H1689 C1681 0.960 . S
H1690 C1682 0.930 . S
H1691 C1683 0.929 . S
H1692 C1700 0.929 . S
H1693 C1702 0.930 . S
H1694 C1704 0.930 . S
H1695 C1707 0.929 . S
H1696 C1710 0.930 . S
H1697 C1712 0.960 . S
H1698 C1712 0.960 . S
H1699 C1712 0.960 . S
C1700 H1692 0.929 . S
C1700 C1701 1.377 . S
C1700 C1702 1.384 . S
C1701 C1700 1.377 . S
C1701 C1707 1.390 . S
C1702 H1693 0.930 . S
C1702 C1700 1.384 . S
C1702 C1703 1.372 . S
C1703 C1702 1.372 . S
C1703 C1704 1.400 . S
C1703 C1708 1.490 . S
C1704 H1694 0.930 . S
C1704 C1703 1.400 . S
C1704 C1707 1.386 . S
H1705 C1721 0.930 . S
H1706 C1722 0.931 . S
C1707 H1695 0.929 . S
C1707 C1701 1.390 . S
C1707 C1704 1.386 . S
C1708 C1703 1.490 . S
C1708 C1710 1.395 . S
C1708 C1711 1.403 . S
H1709 C1715 0.930 . S
C1710 H1696 0.930 . S
C1710 C1708 1.395 . S
C1710 C1713 1.403 . S
C1711 C1708 1.403 . S
C1711 C1712 1.524 . S
C1711 C1715 1.400 . S
C1712 H1697 0.960 . S
C1712 H1698 0.960 . S
C1712 H1699 0.960 . S
C1712 C1711 1.524 . S
C1713 C1710 1.403 . S
C1713 C1714 1.392 . S
C1713 C1717 1.495 1_545 S
C1714 C1713 1.392 . S
C1714 C1715 1.385 . S
C1714 C1716 1.478 . S
C1715 H1709 0.930 . S
C1715 C1711 1.400 . S
C1715 C1714 1.385 . S
C1716 C1714 1.478 . S
C1716 C1718 1.381 . S
C1716 C1722 1.383 . S
C1717 C1713 1.495 1_565 S
C1717 H1723 0.959 . S
C1717 H1724 0.961 . S
C1717 H1725 0.960 . S
C1718 C1716 1.381 . S
C1718 C1719 1.394 . S
C1718 H1726 0.930 . S
C1719 C1718 1.394 . S
C1719 C1720 1.383 . S
C1719 H1727 0.929 . S
C1720 C1719 1.383 . S
C1720 C1721 1.377 . S
C1721 H1705 0.930 . S
C1721 C1720 1.377 . S
C1721 C1722 1.379 . S
C1722 H1706 0.931 . S
C1722 C1716 1.383 . S
C1722 C1721 1.379 . S
H1723 C1717 0.959 . S
H1724 C1717 0.961 . S
H1725 C1717 0.960 . S
H1726 C1718 0.930 . S
H1727 C1719 0.929 . S
H1728 C1736 0.929 . S
H1729 C1738 0.930 . S
H1730 C1740 0.930 . S
H1731 C1743 0.929 . S
H1732 C1746 0.930 . S
H1733 C1748 0.960 . S
H1734 C1748 0.960 . S
H1735 C1748 0.960 . S
C1736 H1728 0.929 . S
C1736 C1737 1.377 . S
C1736 C1738 1.384 . S
C1737 C1736 1.377 . S
C1737 C1743 1.390 . S
C1738 H1729 0.930 . S
C1738 C1736 1.384 . S
C1738 C1739 1.372 . S
C1739 C1738 1.372 . S
C1739 C1740 1.400 . S
C1739 C1744 1.490 . S
C1740 H1730 0.930 . S
C1740 C1739 1.400 . S
C1740 C1743 1.386 . S
H1741 C1757 0.930 . S
H1742 C1758 0.931 . S
C1743 H1731 0.929 . S
C1743 C1737 1.390 . S
C1743 C1740 1.386 . S
C1744 C1739 1.490 . S
C1744 C1746 1.395 . S
C1744 C1747 1.403 . S
H1745 C1751 0.930 . S
C1746 H1732 0.930 . S
C1746 C1744 1.395 . S
C1746 C1749 1.403 . S
C1747 C1744 1.403 . S
C1747 C1748 1.524 . S
C1747 C1751 1.400 . S
C1748 H1733 0.960 . S
C1748 H1734 0.960 . S
C1748 H1735 0.960 . S
C1748 C1747 1.524 . S
C1749 C1746 1.403 . S
C1749 C1750 1.392 . S
C1749 C1753 1.495 . S
C1750 C1749 1.392 . S
C1750 C1751 1.385 . S
C1750 C1752 1.478 . S
C1751 H1745 0.930 . S
C1751 C1747 1.400 . S
C1751 C1750 1.385 . S
C1752 C1750 1.478 . S
C1752 C1754 1.381 . S
C1752 C1758 1.383 . S
C1753 C1749 1.495 . S
C1753 H1759 0.959 . S
C1753 H1760 0.961 . S
C1753 H1761 0.960 . S
C1754 C1752 1.381 . S
C1754 C1755 1.394 . S
C1754 H1762 0.930 . S
C1755 C1754 1.394 . S
C1755 C1756 1.383 . S
C1755 H1763 0.929 . S
C1756 C1755 1.383 . S
C1756 C1757 1.377 . S
C1757 H1741 0.930 . S
C1757 C1756 1.377 . S
C1757 C1758 1.379 . S
C1758 H1742 0.931 . S
C1758 C1752 1.383 . S
C1758 C1757 1.379 . S
H1759 C1753 0.959 . S
H1760 C1753 0.961 . S
H1761 C1753 0.960 . S
H1762 C1754 0.930 . S
H1763 C1755 0.929 . S
H1764 C1772 0.929 . S
H1765 C1774 0.930 . S
H1766 C1776 0.930 . S
H1767 C1779 0.929 . S
H1768 C1782 0.930 . S
H1769 C1784 0.960 . S
H1770 C1784 0.960 . S
H1771 C1784 0.960 . S
C1772 H1764 0.929 . S
C1772 C1773 1.377 . S
C1772 C1774 1.384 . S
C1773 C1772 1.377 . S
C1773 C1779 1.390 . S
C1774 H1765 0.930 . S
C1774 C1772 1.384 . S
C1774 C1775 1.372 . S
C1775 C1774 1.372 . S
C1775 C1776 1.400 . S
C1775 C1780 1.490 . S
C1776 H1766 0.930 . S
C1776 C1775 1.400 . S
C1776 C1779 1.386 . S
H1777 C1793 0.930 . S
H1778 C1794 0.931 . S
C1779 H1767 0.929 . S
C1779 C1773 1.390 . S
C1779 C1776 1.386 . S
C1780 C1775 1.490 . S
C1780 C1782 1.395 . S
C1780 C1783 1.403 . S
H1781 C1787 0.930 . S
C1782 H1768 0.930 . S
C1782 C1780 1.395 . S
C1782 C1785 1.403 . S
C1783 C1780 1.403 . S
C1783 C1784 1.524 . S
C1783 C1787 1.400 . S
C1784 H1769 0.960 . S
C1784 H1770 0.960 . S
C1784 H1771 0.960 . S
C1784 C1783 1.524 . S
C1785 C1782 1.403 . S
C1785 C1786 1.392 . S
C1785 C1789 1.495 . S
C1786 C1785 1.392 . S
C1786 C1787 1.385 . S
C1786 C1788 1.478 . S
C1787 H1781 0.930 . S
C1787 C1783 1.400 . S
C1787 C1786 1.385 . S
C1788 C1786 1.478 . S
C1788 C1790 1.381 . S
C1788 C1794 1.383 . S
C1789 C1785 1.495 . S
C1789 H1795 0.959 . S
C1789 H1796 0.961 . S
C1789 H1797 0.960 . S
C1790 C1788 1.381 . S
C1790 C1791 1.394 . S
C1790 H1798 0.930 . S
C1791 C1790 1.394 . S
C1791 C1792 1.383 . S
C1791 H1799 0.929 . S
C1792 C1791 1.383 . S
C1792 C1793 1.377 . S
C1793 H1777 0.930 . S
C1793 C1792 1.377 . S
C1793 C1794 1.379 . S
C1794 H1778 0.931 . S
C1794 C1788 1.383 . S
C1794 C1793 1.379 . S
H1795 C1789 0.959 . S
H1796 C1789 0.961 . S
H1797 C1789 0.960 . S
H1798 C1790 0.930 . S
H1799 C1791 0.929 . S
H1800 C1808 0.929 . S
H1801 C1810 0.930 . S
H1802 C1812 0.930 . S
H1803 C1815 0.929 . S
H1804 C1818 0.930 . S
H1805 C1820 0.960 . S
H1806 C1820 0.960 . S
H1807 C1820 0.960 . S
C1808 H1800 0.929 . S
C1808 C1809 1.377 . S
C1808 C1810 1.384 . S
C1809 C1808 1.377 . S
C1809 C1815 1.390 . S
C1810 H1801 0.930 . S
C1810 C1808 1.384 . S
C1810 C1811 1.372 . S
C1811 C1810 1.372 . S
C1811 C1812 1.400 . S
C1811 C1816 1.490 . S
C1812 H1802 0.930 . S
C1812 C1811 1.400 . S
C1812 C1815 1.386 . S
H1813 C1829 0.930 . S
H1814 C1830 0.931 . S
C1815 H1803 0.929 . S
C1815 C1809 1.390 . S
C1815 C1812 1.386 . S
C1816 C1811 1.490 . S
C1816 C1818 1.395 . S
C1816 C1819 1.403 . S
H1817 C1823 0.930 . S
C1818 H1804 0.930 . S
C1818 C1816 1.395 . S
C1818 C1821 1.403 . S
C1819 C1816 1.403 . S
C1819 C1820 1.524 . S
C1819 C1823 1.400 . S
C1820 H1805 0.960 . S
C1820 H1806 0.960 . S
C1820 H1807 0.960 . S
C1820 C1819 1.524 . S
C1821 C1818 1.403 . S
C1821 C1822 1.392 . S
C1821 C1825 1.495 . S
C1822 C1821 1.392 . S
C1822 C1823 1.385 . S
C1822 C1824 1.478 . S
C1823 H1817 0.930 . S
C1823 C1819 1.400 . S
C1823 C1822 1.385 . S
C1824 C1822 1.478 . S
C1824 C1826 1.381 . S
C1824 C1830 1.383 . S
C1825 C1821 1.495 . S
C1825 H1831 0.959 . S
C1825 H1832 0.961 . S
C1825 H1833 0.960 . S
C1826 C1824 1.381 . S
C1826 C1827 1.394 . S
C1826 H1834 0.930 . S
C1827 C1826 1.394 . S
C1827 C1828 1.383 . S
C1827 H1835 0.929 . S
C1828 C1827 1.383 . S
C1828 C1829 1.377 . S
C1829 H1813 0.930 . S
C1829 C1828 1.377 . S
C1829 C1830 1.379 . S
C1830 H1814 0.931 . S
C1830 C1824 1.383 . S
C1830 C1829 1.379 . S
H1831 C1825 0.959 . S
H1832 C1825 0.961 . S
H1833 C1825 0.960 . S
H1834 C1826 0.930 . S
H1835 C1827 0.929 . S
H1836 C1844 0.929 . S
H1837 C1846 0.930 . S
H1838 C1848 0.930 . S
H1839 C1851 0.929 1_455 S
H1840 C1854 0.930 1_565 S
H1841 C1856 0.960 . S
H1842 C1856 0.960 . S
H1843 C1856 0.960 . S
C1844 H1836 0.929 . S
C1844 C1845 1.377 . S
C1844 C1846 1.384 . S
C1845 C1844 1.377 . S
C1845 C1851 1.390 . S
C1846 H1837 0.930 . S
C1846 C1844 1.384 . S
C1846 C1847 1.372 . S
C1847 C1846 1.372 . S
C1847 C1848 1.400 . S
C1847 C1852 1.490 . S
C1848 H1838 0.930 . S
C1848 C1847 1.400 . S
C1848 C1851 1.386 . S
H1849 C1865 0.930 . S
H1850 C1866 0.931 . S
C1851 H1839 0.929 1_655 S
C1851 C1845 1.390 . S
C1851 C1848 1.386 . S
C1852 C1847 1.490 . S
C1852 C1854 1.395 . S
C1852 C1855 1.403 . S
H1853 C1859 0.930 . S
C1854 H1840 0.930 1_545 S
C1854 C1852 1.395 . S
C1854 C1857 1.403 . S
C1855 C1852 1.403 . S
C1855 C1856 1.524 . S
C1855 C1859 1.400 . S
C1856 H1841 0.960 . S
C1856 H1842 0.960 . S
C1856 H1843 0.960 . S
C1856 C1855 1.524 . S
C1857 C1854 1.403 . S
C1857 C1858 1.392 . S
C1857 C1861 1.495 1_545 S
C1858 C1857 1.392 . S
C1858 C1859 1.385 . S
C1858 C1860 1.478 . S
C1859 H1853 0.930 . S
C1859 C1855 1.400 . S
C1859 C1858 1.385 . S
C1860 C1858 1.478 . S
C1860 C1862 1.381 . S
C1860 C1866 1.383 . S
C1861 C1857 1.495 1_565 S
C1861 H1867 0.959 . S
C1861 H1868 0.961 . S
C1861 H1869 0.960 . S
C1862 C1860 1.381 . S
C1862 C1863 1.394 . S
C1862 H1870 0.930 . S
C1863 C1862 1.394 . S
C1863 C1864 1.383 . S
C1863 H1871 0.929 . S
C1864 C1863 1.383 . S
C1864 C1865 1.377 . S
C1865 H1849 0.930 . S
C1865 C1864 1.377 . S
C1865 C1866 1.379 . S
C1866 H1850 0.931 . S
C1866 C1860 1.383 . S
C1866 C1865 1.379 . S
H1867 C1861 0.959 . S
H1868 C1861 0.961 . S
H1869 C1861 0.960 . S
H1870 C1862 0.930 . S
H1871 C1863 0.929 . S
H1872 C1880 0.929 . S
H1873 C1882 0.930 . S
H1874 C1884 0.930 . S
H1875 C1887 0.929 . S
H1876 C1890 0.930 . S
H1877 C1892 0.960 . S
H1878 C1892 0.960 . S
H1879 C1892 0.960 . S
C1880 H1872 0.929 . S
C1880 C1881 1.377 . S
C1880 C1882 1.384 . S
C1881 C1880 1.377 . S
C1881 C1887 1.390 . S
C1882 H1873 0.930 . S
C1882 C1880 1.384 . S
C1882 C1883 1.372 . S
C1883 C1882 1.372 . S
C1883 C1884 1.400 . S
C1883 C1888 1.490 . S
C1884 H1874 0.930 . S
C1884 C1883 1.400 . S
C1884 C1887 1.386 . S
H1885 C1901 0.930 . S
H1886 C1902 0.931 . S
C1887 H1875 0.929 . S
C1887 C1881 1.390 . S
C1887 C1884 1.386 . S
C1888 C1883 1.490 . S
C1888 C1890 1.395 . S
C1888 C1891 1.403 . S
H1889 C1895 0.930 . S
C1890 H1876 0.930 . S
C1890 C1888 1.395 . S
C1890 C1893 1.403 . S
C1891 C1888 1.403 . S
C1891 C1892 1.524 . S
C1891 C1895 1.400 . S
C1892 H1877 0.960 . S
C1892 H1878 0.960 . S
C1892 H1879 0.960 . S
C1892 C1891 1.524 . S
C1893 C1890 1.403 . S
C1893 C1894 1.392 . S
C1893 C1897 1.495 . S
C1894 C1893 1.392 . S
C1894 C1895 1.385 . S
C1894 C1896 1.478 . S
C1895 H1889 0.930 . S
C1895 C1891 1.400 . S
C1895 C1894 1.385 . S
C1896 C1894 1.478 . S
C1896 C1898 1.381 . S
C1896 C1902 1.383 . S
C1897 C1893 1.495 . S
C1897 H1903 0.959 . S
C1897 H1904 0.961 . S
C1897 H1905 0.960 . S
C1898 C1896 1.381 . S
C1898 C1899 1.394 . S
C1898 H1906 0.930 . S
C1899 C1898 1.394 . S
C1899 C1900 1.383 . S
C1899 H1907 0.929 . S
C1900 C1899 1.383 . S
C1900 C1901 1.377 . S
C1901 H1885 0.930 . S
C1901 C1900 1.377 . S
C1901 C1902 1.379 . S
C1902 H1886 0.931 . S
C1902 C1896 1.383 . S
C1902 C1901 1.379 . S
H1903 C1897 0.959 . S
H1904 C1897 0.961 . S
H1905 C1897 0.960 . S
H1906 C1898 0.930 . S
H1907 C1899 0.929 . S
H1908 C1916 0.929 . S
H1909 C1918 0.930 . S
H1910 C1920 0.930 . S
H1911 C1923 0.929 . S
H1912 C1926 0.930 . S
H1913 C1928 0.960 . S
H1914 C1928 0.960 . S
H1915 C1928 0.960 . S
C1916 H1908 0.929 . S
C1916 C1917 1.377 . S
C1916 C1918 1.384 . S
C1917 C1916 1.377 . S
C1917 C1923 1.390 . S
C1918 H1909 0.930 . S
C1918 C1916 1.384 . S
C1918 C1919 1.372 . S
C1919 C1918 1.372 . S
C1919 C1920 1.400 . S
C1919 C1924 1.490 . S
C1920 H1910 0.930 . S
C1920 C1919 1.400 . S
C1920 C1923 1.386 . S
H1921 C1937 0.930 . S
H1922 C1938 0.931 . S
C1923 H1911 0.929 . S
C1923 C1917 1.390 . S
C1923 C1920 1.386 . S
C1924 C1919 1.490 . S
C1924 C1926 1.395 . S
C1924 C1927 1.403 . S
H1925 C1931 0.930 . S
C1926 H1912 0.930 . S
C1926 C1924 1.395 . S
C1926 C1929 1.403 . S
C1927 C1924 1.403 . S
C1927 C1928 1.524 . S
C1927 C1931 1.400 . S
C1928 H1913 0.960 . S
C1928 H1914 0.960 . S
C1928 H1915 0.960 . S
C1928 C1927 1.524 . S
C1929 C1926 1.403 . S
C1929 C1930 1.392 . S
C1929 C1933 1.495 . S
C1930 C1929 1.392 . S
C1930 C1931 1.385 . S
C1930 C1932 1.478 . S
C1931 H1925 0.930 . S
C1931 C1927 1.400 . S
C1931 C1930 1.385 . S
C1932 C1930 1.478 . S
C1932 C1934 1.381 . S
C1932 C1938 1.383 . S
C1933 C1929 1.495 . S
C1933 H1939 0.959 . S
C1933 H1940 0.961 . S
C1933 H1941 0.960 . S
C1934 C1932 1.381 . S
C1934 C1935 1.394 . S
C1934 H1942 0.930 . S
C1935 C1934 1.394 . S
C1935 C1936 1.383 . S
C1935 H1943 0.929 . S
C1936 C1935 1.383 . S
C1936 C1937 1.377 . S
C1937 H1921 0.930 . S
C1937 C1936 1.377 . S
C1937 C1938 1.379 . S
C1938 H1922 0.931 . S
C1938 C1932 1.383 . S
C1938 C1937 1.379 . S
H1939 C1933 0.959 . S
H1940 C1933 0.961 . S
H1941 C1933 0.960 . S
H1942 C1934 0.930 . S
H1943 C1935 0.929 . S
H1944 C1952 0.929 . S
H1945 C1954 0.930 . S
H1946 C1956 0.930 . S
H1947 C1959 0.929 . S
H1948 C1962 0.930 . S
H1949 C1964 0.960 . S
H1950 C1964 0.960 . S
H1951 C1964 0.960 . S
C1952 H1944 0.929 . S
C1952 C1953 1.377 . S
C1952 C1954 1.384 . S
C1953 C1952 1.377 . S
C1953 C1959 1.390 . S
C1954 H1945 0.930 . S
C1954 C1952 1.384 . S
C1954 C1955 1.372 . S
C1955 C1954 1.372 . S
C1955 C1956 1.400 . S
C1955 C1960 1.490 . S
C1956 H1946 0.930 . S
C1956 C1955 1.400 . S
C1956 C1959 1.386 . S
H1957 C1973 0.930 . S
H1958 C1974 0.931 . S
C1959 H1947 0.929 . S
C1959 C1953 1.390 . S
C1959 C1956 1.386 . S
C1960 C1955 1.490 . S
C1960 C1962 1.395 . S
C1960 C1963 1.403 . S
H1961 C1967 0.930 . S
C1962 H1948 0.930 . S
C1962 C1960 1.395 . S
C1962 C1965 1.403 . S
C1963 C1960 1.403 . S
C1963 C1964 1.524 . S
C1963 C1967 1.400 . S
C1964 H1949 0.960 . S
C1964 H1950 0.960 . S
C1964 H1951 0.960 . S
C1964 C1963 1.524 . S
C1965 C1962 1.403 . S
C1965 C1966 1.392 . S
C1965 C1969 1.495 . S
C1966 C1965 1.392 . S
C1966 C1967 1.385 . S
C1966 C1968 1.478 . S
C1967 H1961 0.930 . S
C1967 C1963 1.400 . S
C1967 C1966 1.385 . S
C1968 C1966 1.478 . S
C1968 C1970 1.381 . S
C1968 C1974 1.383 . S
C1969 C1965 1.495 . S
C1969 H1975 0.959 . S
C1969 H1976 0.961 . S
C1969 H1977 0.960 . S
C1970 C1968 1.381 . S
C1970 C1971 1.394 . S
C1970 H1978 0.930 . S
C1971 C1970 1.394 . S
C1971 C1972 1.383 . S
C1971 H1979 0.929 . S
C1972 C1971 1.383 . S
C1972 C1973 1.377 . S
C1973 H1957 0.930 . S
C1973 C1972 1.377 . S
C1973 C1974 1.379 . S
C1974 H1958 0.931 . S
C1974 C1968 1.383 . S
C1974 C1973 1.379 . S
H1975 C1969 0.959 . S
H1976 C1969 0.961 . S
H1977 C1969 0.960 . S
H1978 C1970 0.930 . S
H1979 C1971 0.929 . S
H1980 C1988 0.929 . S
H1981 C1990 0.930 . S
H1982 C1992 0.930 . S
H1983 C1995 0.929 . S
H1984 C1998 0.930 . S
H1985 C2000 0.960 . S
H1986 C2000 0.960 . S
H1987 C2000 0.960 . S
C1988 H1980 0.929 . S
C1988 C1989 1.377 1_556 S
C1988 C1990 1.384 . S
C1989 C1988 1.377 1_554 S
C1989 C1995 1.390 . S
C1990 H1981 0.930 . S
C1990 C1988 1.384 . S
C1990 C1991 1.372 . S
C1991 C1990 1.372 . S
C1991 C1992 1.400 . S
C1991 C1996 1.490 . S
C1992 H1982 0.930 . S
C1992 C1991 1.400 . S
C1992 C1995 1.386 1_556 S
H1993 C2009 0.930 . S
H1994 C2010 0.931 . S
C1995 H1983 0.929 . S
C1995 C1989 1.390 . S
C1995 C1992 1.386 1_554 S
C1996 C1991 1.490 . S
C1996 C1998 1.395 . S
C1996 C1999 1.403 . S
H1997 C2003 0.930 . S
C1998 H1984 0.930 . S
C1998 C1996 1.395 . S
C1998 C2001 1.403 . S
C1999 C1996 1.403 . S
C1999 C2000 1.524 . S
C1999 C2003 1.400 . S
C2000 H1985 0.960 . S
C2000 H1986 0.960 . S
C2000 H1987 0.960 . S
C2000 C1999 1.524 . S
C2001 C1998 1.403 . S
C2001 C2002 1.392 . S
C2001 C2005 1.495 1_655 S
C2002 C2001 1.392 . S
C2002 C2003 1.385 . S
C2002 C2004 1.478 . S
C2003 H1997 0.930 . S
C2003 C1999 1.400 . S
C2003 C2002 1.385 . S
C2004 C2002 1.478 . S
C2004 C2006 1.403 . S
C2004 C2010 1.383 . S
C2005 C2001 1.495 1_455 S
C2005 H2011 0.959 . S
C2005 H2012 0.961 . S
C2005 H2013 0.960 . S
C2006 C2004 1.403 . S
C2006 C2007 1.389 1_655 S
C2006 H2014 0.914 1_655 S
C2007 C2006 1.389 1_455 S
C2007 C2008 1.383 1_455 S
C2007 H2015 0.929 . S
C2008 C2007 1.383 1_655 S
C2008 C2009 1.377 . S
C2009 H1993 0.930 . S
C2009 C2008 1.377 . S
C2009 C2010 1.379 . S
C2010 H1994 0.931 . S
C2010 C2004 1.383 . S
C2010 C2009 1.379 . S
H2011 C2005 0.959 . S
H2012 C2005 0.961 . S
H2013 C2005 0.960 . S
H2014 C2006 0.914 1_455 S
H2015 C2007 0.929 . S
H2016 C2024 0.929 . S
H2017 C2026 0.930 . S
H2018 C2028 0.930 . S
H2019 C2031 0.929 . S
H2020 C2034 0.930 . S
H2021 C2036 0.960 . S
H2022 C2036 0.960 . S
H2023 C2036 0.960 . S
C2024 H2016 0.929 . S
C2024 C2025 1.377 . S
C2024 C2026 1.384 . S
C2025 C2024 1.377 . S
C2025 C2031 1.390 . S
C2026 H2017 0.930 . S
C2026 C2024 1.384 . S
C2026 C2027 1.372 . S
C2027 C2026 1.372 . S
C2027 C2028 1.400 . S
C2027 C2032 1.490 . S
C2028 H2018 0.930 . S
C2028 C2027 1.400 . S
C2028 C2031 1.386 . S
H2029 C2045 0.930 . S
H2030 C2046 0.931 . S
C2031 H2019 0.929 . S
C2031 C2025 1.390 . S
C2031 C2028 1.386 . S
C2032 C2027 1.490 . S
C2032 C2034 1.395 . S
C2032 C2035 1.403 . S
H2033 C2039 0.930 . S
C2034 H2020 0.930 . S
C2034 C2032 1.395 . S
C2034 C2037 1.403 . S
C2035 C2032 1.403 . S
C2035 C2036 1.524 . S
C2035 C2039 1.400 . S
C2036 H2021 0.960 . S
C2036 H2022 0.960 . S
C2036 H2023 0.960 . S
C2036 C2035 1.524 . S
C2037 C2034 1.403 . S
C2037 C2038 1.392 . S
C2037 C2041 1.495 . S
C2038 C2037 1.392 . S
C2038 C2039 1.385 . S
C2038 C2040 1.478 . S
C2039 H2033 0.930 . S
C2039 C2035 1.400 . S
C2039 C2038 1.385 . S
C2040 C2038 1.478 . S
C2040 C2042 1.381 . S
C2040 C2046 1.383 . S
C2041 C2037 1.495 . S
C2041 H2047 0.959 . S
C2041 H2048 0.961 . S
C2041 H2049 0.960 . S
C2042 C2040 1.381 . S
C2042 C2043 1.394 . S
C2042 H2050 0.930 . S
C2043 C2042 1.394 . S
C2043 C2044 1.383 . S
C2043 H2051 0.929 . S
C2044 C2043 1.383 . S
C2044 C2045 1.377 . S
C2045 H2029 0.930 . S
C2045 C2044 1.377 . S
C2045 C2046 1.379 . S
C2046 H2030 0.931 . S
C2046 C2040 1.383 . S
C2046 C2045 1.379 . S
H2047 C2041 0.959 . S
H2048 C2041 0.961 . S
H2049 C2041 0.960 . S
H2050 C2042 0.930 . S
H2051 C2043 0.929 . S
H2052 C2060 0.918 1_554 S
H2053 C2062 0.930 . S
H2054 C2064 0.930 . S
H2055 C2067 0.929 . S
H2056 C2070 0.930 . S
H2057 C2072 0.960 . S
H2058 C2072 0.960 . S
H2059 C2072 0.960 1_455 S
C2060 H2052 0.918 1_556 S
C2060 C2061 1.382 . S
C2060 C2062 1.390 . S
C2061 C2060 1.382 . S
C2061 C2067 1.390 . S
C2062 H2053 0.930 . S
C2062 C2060 1.390 . S
C2062 C2063 1.372 . S
C2063 C2062 1.372 . S
C2063 C2064 1.400 . S
C2063 C2068 1.490 . S
C2064 H2054 0.930 . S
C2064 C2063 1.400 . S
C2064 C2067 1.386 . S
H2065 C2081 0.930 . S
H2066 C2082 0.931 . S
C2067 H2055 0.929 . S
C2067 C2061 1.390 . S
C2067 C2064 1.386 . S
C2068 C2063 1.490 . S
C2068 C2070 1.395 . S
C2068 C2071 1.403 . S
H2069 C2075 0.930 . S
C2070 H2056 0.930 . S
C2070 C2068 1.395 . S
C2070 C2073 1.403 . S
C2071 C2068 1.403 . S
C2071 C2072 1.524 1_455 S
C2071 C2075 1.400 . S
C2072 H2057 0.960 . S
C2072 H2058 0.960 . S
C2072 H2059 0.960 1_655 S
C2072 C2071 1.524 1_655 S
C2073 C2070 1.403 . S
C2073 C2074 1.392 . S
C2073 C2077 1.495 . S
C2074 C2073 1.392 . S
C2074 C2075 1.385 . S
C2074 C2076 1.478 . S
C2075 H2069 0.930 . S
C2075 C2071 1.400 . S
C2075 C2074 1.385 . S
C2076 C2074 1.478 . S
C2076 C2078 1.381 . S
C2076 C2082 1.383 . S
C2077 C2073 1.495 . S
C2077 H2083 0.959 . S
C2077 H2084 0.961 . S
C2077 H2085 0.960 . S
C2078 C2076 1.381 . S
C2078 C2079 1.394 . S
C2078 H2086 0.930 . S
C2079 C2078 1.394 . S
C2079 C2080 1.383 . S
C2079 H2087 0.929 . S
C2080 C2079 1.383 . S
C2080 C2081 1.377 . S
C2081 H2065 0.930 . S
C2081 C2080 1.377 . S
C2081 C2082 1.379 . S
C2082 H2066 0.931 . S
C2082 C2076 1.383 . S
C2082 C2081 1.379 . S
H2083 C2077 0.959 . S
H2084 C2077 0.961 . S
H2085 C2077 0.960 . S
H2086 C2078 0.930 . S
H2087 C2079 0.929 . S
H2088 C2096 0.929 . S
H2089 C2098 0.930 . S
H2090 C2100 0.930 . S
H2091 C2103 0.929 . S
H2092 C2106 0.930 . S
H2093 C2108 0.960 . S
H2094 C2108 0.960 . S
H2095 C2108 0.960 . S
C2096 H2088 0.929 . S
C2096 C2097 1.377 . S
C2096 C2098 1.384 . S
C2097 C2096 1.377 . S
C2097 C2103 1.390 . S
C2098 H2089 0.930 . S
C2098 C2096 1.384 . S
C2098 C2099 1.372 . S
C2099 C2098 1.372 . S
C2099 C2100 1.400 . S
C2099 C2104 1.490 . S
C2100 H2090 0.930 . S
C2100 C2099 1.400 . S
C2100 C2103 1.386 . S
H2101 C2117 0.930 . S
H2102 C2118 0.931 . S
C2103 H2091 0.929 . S
C2103 C2097 1.390 . S
C2103 C2100 1.386 . S
C2104 C2099 1.490 . S
C2104 C2106 1.395 . S
C2104 C2107 1.403 . S
H2105 C2111 0.930 . S
C2106 H2092 0.930 . S
C2106 C2104 1.395 . S
C2106 C2109 1.403 . S
C2107 C2104 1.403 . S
C2107 C2108 1.524 . S
C2107 C2111 1.400 . S
C2108 H2093 0.960 . S
C2108 H2094 0.960 . S
C2108 H2095 0.960 . S
C2108 C2107 1.524 . S
C2109 C2106 1.403 . S
C2109 C2110 1.392 . S
C2109 C2113 1.495 . S
C2110 C2109 1.392 . S
C2110 C2111 1.385 . S
C2110 C2112 1.478 . S
C2111 H2105 0.930 . S
C2111 C2107 1.400 . S
C2111 C2110 1.385 . S
C2112 C2110 1.478 . S
C2112 C2114 1.381 . S
C2112 C2118 1.383 . S
C2113 C2109 1.495 . S
C2113 H2119 0.959 . S
C2113 H2120 0.961 . S
C2113 H2121 0.960 . S
C2114 C2112 1.381 . S
C2114 C2115 1.394 . S
C2114 H2122 0.930 . S
C2115 C2114 1.394 . S
C2115 C2116 1.383 . S
C2115 H2123 0.929 . S
C2116 C2115 1.383 . S
C2116 C2117 1.377 . S
C2117 H2101 0.930 . S
C2117 C2116 1.377 . S
C2117 C2118 1.379 . S
C2118 H2102 0.931 . S
C2118 C2112 1.383 . S
C2118 C2117 1.379 . S
H2119 C2113 0.959 . S
H2120 C2113 0.961 . S
H2121 C2113 0.960 . S
H2122 C2114 0.930 . S
H2123 C2115 0.929 . S
H2124 C2132 0.929 . S
H2125 C2134 0.930 . S
H2126 C2136 0.930 . S
H2127 C2139 0.929 . S
H2128 C2142 0.930 . S
H2129 C2144 0.960 . S
H2130 C2144 0.960 . S
H2131 C2144 0.960 . S
C2132 H2124 0.929 . S
C2132 C2133 1.377 . S
C2132 C2134 1.384 . S
C2133 C2132 1.377 . S
C2133 C2139 1.390 . S
C2134 H2125 0.930 . S
C2134 C2132 1.384 . S
C2134 C2135 1.372 . S
C2135 C2134 1.372 . S
C2135 C2136 1.400 . S
C2135 C2140 1.490 . S
C2136 H2126 0.930 . S
C2136 C2135 1.400 . S
C2136 C2139 1.386 . S
H2137 C2153 0.930 . S
H2138 C2154 0.931 . S
C2139 H2127 0.929 . S
C2139 C2133 1.390 . S
C2139 C2136 1.386 . S
C2140 C2135 1.490 . S
C2140 C2142 1.395 . S
C2140 C2143 1.403 . S
H2141 C2147 0.930 . S
C2142 H2128 0.930 . S
C2142 C2140 1.395 . S
C2142 C2145 1.403 . S
C2143 C2140 1.403 . S
C2143 C2144 1.524 . S
C2143 C2147 1.400 . S
C2144 H2129 0.960 . S
C2144 H2130 0.960 . S
C2144 H2131 0.960 . S
C2144 C2143 1.524 . S
C2145 C2142 1.403 . S
C2145 C2146 1.392 . S
C2145 C2149 1.495 . S
C2146 C2145 1.392 . S
C2146 C2147 1.385 . S
C2146 C2148 1.478 . S
C2147 H2141 0.930 . S
C2147 C2143 1.400 . S
C2147 C2146 1.385 . S
C2148 C2146 1.478 . S
C2148 C2150 1.381 . S
C2148 C2154 1.383 . S
C2149 C2145 1.495 . S
C2149 H2155 0.959 . S
C2149 H2156 0.961 . S
C2149 H2157 0.960 . S
C2150 C2148 1.381 . S
C2150 C2151 1.394 . S
C2150 H2158 0.930 . S
C2151 C2150 1.394 . S
C2151 C2152 1.383 . S
C2151 H2159 0.929 . S
C2152 C2151 1.383 . S
C2152 C2153 1.377 . S
C2153 H2137 0.930 . S
C2153 C2152 1.377 . S
C2153 C2154 1.379 . S
C2154 H2138 0.931 . S
C2154 C2148 1.383 . S
C2154 C2153 1.379 . S
H2155 C2149 0.959 . S
H2156 C2149 0.961 . S
H2157 C2149 0.960 . S
H2158 C2150 0.930 . S
H2159 C2151 0.929 . S
H2160 C2168 0.929 . S
H2161 C2170 0.930 . S
H2162 C2172 0.930 . S
H2163 C2175 0.929 . S
H2164 C2178 0.930 . S
H2165 C2180 0.960 . S
H2166 C2180 0.960 . S
H2167 C2180 0.960 . S
C2168 H2160 0.929 . S
C2168 C2169 1.377 . S
C2168 C2170 1.384 . S
C2169 C2168 1.377 . S
C2169 C2175 1.390 . S
C2170 H2161 0.930 . S
C2170 C2168 1.384 . S
C2170 C2171 1.372 . S
C2171 C2170 1.372 . S
C2171 C2172 1.400 . S
C2171 C2176 1.490 . S
C2172 H2162 0.930 . S
C2172 C2171 1.400 . S
C2172 C2175 1.386 . S
H2173 C2189 0.930 . S
H2174 C2190 0.931 . S
C2175 H2163 0.929 . S
C2175 C2169 1.390 . S
C2175 C2172 1.386 . S
C2176 C2171 1.490 . S
C2176 C2178 1.395 . S
C2176 C2179 1.403 . S
H2177 C2183 0.930 . S
C2178 H2164 0.930 . S
C2178 C2176 1.395 . S
C2178 C2181 1.403 . S
C2179 C2176 1.403 . S
C2179 C2180 1.524 . S
C2179 C2183 1.400 . S
C2180 H2165 0.960 . S
C2180 H2166 0.960 . S
C2180 H2167 0.960 . S
C2180 C2179 1.524 . S
C2181 C2178 1.403 . S
C2181 C2182 1.392 . S
C2181 C2185 1.495 . S
C2182 C2181 1.392 . S
C2182 C2183 1.385 . S
C2182 C2184 1.478 . S
C2183 H2177 0.930 . S
C2183 C2179 1.400 . S
C2183 C2182 1.385 . S
C2184 C2182 1.478 . S
C2184 C2186 1.381 . S
C2184 C2190 1.383 . S
C2185 C2181 1.495 . S
C2185 H2191 0.959 . S
C2185 H2192 0.961 . S
C2185 H2193 0.960 . S
C2186 C2184 1.381 . S
C2186 C2187 1.394 . S
C2186 H2194 0.930 . S
C2187 C2186 1.394 . S
C2187 C2188 1.383 . S
C2187 H2195 0.929 . S
C2188 C2187 1.383 . S
C2188 C2189 1.377 . S
C2189 H2173 0.930 . S
C2189 C2188 1.377 . S
C2189 C2190 1.379 . S
C2190 H2174 0.931 . S
C2190 C2184 1.383 . S
C2190 C2189 1.379 . S
H2191 C2185 0.959 . S
H2192 C2185 0.961 . S
H2193 C2185 0.960 . S
H2194 C2186 0.930 . S
H2195 C2187 0.929 . S
H2196 C2204 0.929 . S
H2197 C2206 0.930 . S
H2198 C2208 0.930 . S
H2199 C2211 0.929 . S
H2200 C2214 0.930 . S
H2201 C2216 0.960 . S
H2202 C2216 0.960 . S
H2203 C2216 0.960 . S
C2204 H2196 0.929 . S
C2204 C2205 1.377 . S
C2204 C2206 1.384 . S
C2205 C2204 1.377 . S
C2205 C2211 1.390 . S
C2206 H2197 0.930 . S
C2206 C2204 1.384 . S
C2206 C2207 1.372 . S
C2207 C2206 1.372 . S
C2207 C2208 1.400 . S
C2207 C2212 1.490 . S
C2208 H2198 0.930 . S
C2208 C2207 1.400 . S
C2208 C2211 1.386 . S
H2209 C2225 0.930 . S
H2210 C2226 0.931 . S
C2211 H2199 0.929 . S
C2211 C2205 1.390 . S
C2211 C2208 1.386 . S
C2212 C2207 1.490 . S
C2212 C2214 1.395 . S
C2212 C2215 1.403 . S
H2213 C2219 0.930 . S
C2214 H2200 0.930 . S
C2214 C2212 1.395 . S
C2214 C2217 1.403 . S
C2215 C2212 1.403 . S
C2215 C2216 1.524 . S
C2215 C2219 1.400 . S
C2216 H2201 0.960 . S
C2216 H2202 0.960 . S
C2216 H2203 0.960 . S
C2216 C2215 1.524 . S
C2217 C2214 1.403 . S
C2217 C2218 1.392 . S
C2217 C2221 1.495 . S
C2218 C2217 1.392 . S
C2218 C2219 1.385 . S
C2218 C2220 1.478 . S
C2219 H2213 0.930 . S
C2219 C2215 1.400 . S
C2219 C2218 1.385 . S
C2220 C2218 1.478 . S
C2220 C2222 1.381 . S
C2220 C2226 1.383 . S
C2221 C2217 1.495 . S
C2221 H2227 0.959 . S
C2221 H2228 0.961 . S
C2221 H2229 0.960 . S
C2222 C2220 1.381 . S
C2222 C2223 1.394 . S
C2222 H2230 0.930 . S
C2223 C2222 1.394 . S
C2223 C2224 1.383 . S
C2223 H2231 0.929 . S
C2224 C2223 1.383 . S
C2224 C2225 1.377 . S
C2225 H2209 0.930 . S
C2225 C2224 1.377 . S
C2225 C2226 1.379 . S
C2226 H2210 0.931 . S
C2226 C2220 1.383 . S
C2226 C2225 1.379 . S
H2227 C2221 0.959 . S
H2228 C2221 0.961 . S
H2229 C2221 0.960 . S
H2230 C2222 0.930 . S
H2231 C2223 0.929 . S
H2232 C2240 0.929 . S
H2233 C2242 0.930 . S
H2234 C2244 0.930 . S
H2235 C2247 0.929 . S
H2236 C2250 0.930 . S
H2237 C2252 0.960 . S
H2238 C2252 0.960 . S
H2239 C2252 0.960 . S
C2240 H2232 0.929 . S
C2240 C2241 1.377 . S
C2240 C2242 1.384 . S
C2241 C2240 1.377 . S
C2241 C2247 1.390 . S
C2242 H2233 0.930 . S
C2242 C2240 1.384 . S
C2242 C2243 1.372 . S
C2243 C2242 1.372 . S
C2243 C2244 1.400 . S
C2243 C2248 1.490 . S
C2244 H2234 0.930 . S
C2244 C2243 1.400 . S
C2244 C2247 1.386 . S
H2245 C2261 0.930 . S
H2246 C2262 0.931 . S
C2247 H2235 0.929 . S
C2247 C2241 1.390 . S
C2247 C2244 1.386 . S
C2248 C2243 1.490 . S
C2248 C2250 1.395 . S
C2248 C2251 1.403 . S
H2249 C2255 0.930 . S
C2250 H2236 0.930 . S
C2250 C2248 1.395 . S
C2250 C2253 1.403 . S
C2251 C2248 1.403 . S
C2251 C2252 1.524 . S
C2251 C2255 1.400 . S
C2252 H2237 0.960 . S
C2252 H2238 0.960 . S
C2252 H2239 0.960 . S
C2252 C2251 1.524 . S
C2253 C2250 1.403 . S
C2253 C2254 1.392 . S
C2253 C2257 1.495 . S
C2254 C2253 1.392 . S
C2254 C2255 1.385 . S
C2254 C2256 1.478 . S
C2255 H2249 0.930 . S
C2255 C2251 1.400 . S
C2255 C2254 1.385 . S
C2256 C2254 1.478 . S
C2256 C2258 1.381 . S
C2256 C2262 1.383 . S
C2257 C2253 1.495 . S
C2257 H2263 0.959 . S
C2257 H2264 0.961 . S
C2257 H2265 0.960 . S
C2258 C2256 1.381 . S
C2258 C2259 1.394 . S
C2258 H2266 0.930 . S
C2259 C2258 1.394 . S
C2259 C2260 1.383 . S
C2259 H2267 0.929 . S
C2260 C2259 1.383 . S
C2260 C2261 1.377 . S
C2261 H2245 0.930 . S
C2261 C2260 1.377 . S
C2261 C2262 1.379 . S
C2262 H2246 0.931 . S
C2262 C2256 1.383 . S
C2262 C2261 1.379 . S
H2263 C2257 0.959 . S
H2264 C2257 0.961 . S
H2265 C2257 0.960 . S
H2266 C2258 0.930 . S
H2267 C2259 0.929 . S
H2268 C2276 0.929 . S
H2269 C2278 0.930 . S
H2270 C2280 0.930 . S
H2271 C2283 0.929 . S
H2272 C2286 0.930 . S
H2273 C2288 0.960 . S
H2274 C2288 0.960 . S
H2275 C2288 0.960 . S
C2276 H2268 0.929 . S
C2276 C2277 1.377 . S
C2276 C2278 1.384 . S
C2277 C2276 1.377 . S
C2277 C2283 1.390 . S
C2278 H2269 0.930 . S
C2278 C2276 1.384 . S
C2278 C2279 1.372 . S
C2279 C2278 1.372 . S
C2279 C2280 1.400 . S
C2279 C2284 1.490 . S
C2280 H2270 0.930 . S
C2280 C2279 1.400 . S
C2280 C2283 1.386 . S
H2281 C2297 0.930 . S
H2282 C2298 0.931 . S
C2283 H2271 0.929 . S
C2283 C2277 1.390 . S
C2283 C2280 1.386 . S
C2284 C2279 1.490 . S
C2284 C2286 1.395 . S
C2284 C2287 1.403 . S
H2285 C2291 0.930 . S
C2286 H2272 0.930 . S
C2286 C2284 1.395 . S
C2286 C2289 1.403 . S
C2287 C2284 1.403 . S
C2287 C2288 1.524 . S
C2287 C2291 1.400 . S
C2288 H2273 0.960 . S
C2288 H2274 0.960 . S
C2288 H2275 0.960 . S
C2288 C2287 1.524 . S
C2289 C2286 1.403 . S
C2289 C2290 1.392 . S
C2289 C2293 1.495 . S
C2290 C2289 1.392 . S
C2290 C2291 1.385 . S
C2290 C2292 1.478 . S
C2291 H2285 0.930 . S
C2291 C2287 1.400 . S
C2291 C2290 1.385 . S
C2292 C2290 1.478 . S
C2292 C2294 1.381 . S
C2292 C2298 1.383 . S
C2293 C2289 1.495 . S
C2293 H2299 0.959 . S
C2293 H2300 0.961 . S
C2293 H2301 0.960 . S
C2294 C2292 1.381 . S
C2294 C2295 1.394 . S
C2294 H2302 0.930 . S
C2295 C2294 1.394 . S
C2295 C2296 1.383 . S
C2295 H2303 0.929 . S
C2296 C2295 1.383 . S
C2296 C2297 1.377 . S
C2297 H2281 0.930 . S
C2297 C2296 1.377 . S
C2297 C2298 1.379 . S
C2298 H2282 0.931 . S
C2298 C2292 1.383 . S
C2298 C2297 1.379 . S
H2299 C2293 0.959 . S
H2300 C2293 0.961 . S
H2301 C2293 0.960 . S
H2302 C2294 0.930 . S
H2303 C2295 0.929 . S
H2304 C2312 0.929 . S
H2305 C2314 0.930 . S
H2306 C2316 0.930 . S
H2307 C2319 0.929 . S
H2308 C2322 0.930 . S
H2309 C2324 0.960 . S
H2310 C2324 0.960 . S
H2311 C2324 0.960 . S
C2312 H2304 0.929 . S
C2312 C2313 1.377 . S
C2312 C2314 1.384 . S
C2313 C2312 1.377 . S
C2313 C2319 1.390 . S
C2314 H2305 0.930 . S
C2314 C2312 1.384 . S
C2314 C2315 1.372 . S
C2315 C2314 1.372 . S
C2315 C2316 1.400 . S
C2315 C2320 1.490 . S
C2316 H2306 0.930 . S
C2316 C2315 1.400 . S
C2316 C2319 1.386 . S
H2317 C2333 0.930 . S
H2318 C2334 0.931 . S
C2319 H2307 0.929 . S
C2319 C2313 1.390 . S
C2319 C2316 1.386 . S
C2320 C2315 1.490 . S
C2320 C2322 1.395 . S
C2320 C2323 1.403 . S
H2321 C2327 0.930 . S
C2322 H2308 0.930 . S
C2322 C2320 1.395 . S
C2322 C2325 1.403 . S
C2323 C2320 1.403 . S
C2323 C2324 1.524 . S
C2323 C2327 1.400 . S
C2324 H2309 0.960 . S
C2324 H2310 0.960 . S
C2324 H2311 0.960 . S
C2324 C2323 1.524 . S
C2325 C2322 1.403 . S
C2325 C2326 1.392 . S
C2325 C2329 1.495 . S
C2326 C2325 1.392 . S
C2326 C2327 1.385 . S
C2326 C2328 1.478 . S
C2327 H2321 0.930 . S
C2327 C2323 1.400 . S
C2327 C2326 1.385 . S
C2328 C2326 1.478 . S
C2328 C2330 1.381 . S
C2328 C2334 1.383 . S
C2329 C2325 1.495 . S
C2329 H2335 0.959 . S
C2329 H2336 0.961 . S
C2329 H2337 0.960 . S
C2330 C2328 1.381 . S
C2330 C2331 1.394 . S
C2330 H2338 0.930 . S
C2331 C2330 1.394 . S
C2331 C2332 1.383 . S
C2331 H2339 0.929 . S
C2332 C2331 1.383 . S
C2332 C2333 1.377 . S
C2333 H2317 0.930 . S
C2333 C2332 1.377 . S
C2333 C2334 1.379 . S
C2334 H2318 0.931 . S
C2334 C2328 1.383 . S
C2334 C2333 1.379 . S
H2335 C2329 0.959 . S
H2336 C2329 0.961 . S
H2337 C2329 0.960 . S
H2338 C2330 0.930 . S
H2339 C2331 0.929 . S
H2340 C2348 0.929 . S
H2341 C2350 0.930 . S
H2342 C2352 0.930 . S
H2343 C2355 0.929 . S
H2344 C2358 0.930 . S
H2345 C2360 0.960 . S
H2346 C2360 0.960 . S
H2347 C2360 0.960 . S
C2348 H2340 0.929 . S
C2348 C2349 1.377 . S
C2348 C2350 1.384 . S
C2349 C2348 1.377 . S
C2349 C2355 1.390 . S
C2350 H2341 0.930 . S
C2350 C2348 1.384 . S
C2350 C2351 1.372 . S
C2351 C2350 1.372 . S
C2351 C2352 1.400 . S
C2351 C2356 1.490 . S
C2352 H2342 0.930 . S
C2352 C2351 1.400 . S
C2352 C2355 1.386 . S
H2353 C2369 0.930 . S
H2354 C2370 0.931 . S
C2355 H2343 0.929 . S
C2355 C2349 1.390 . S
C2355 C2352 1.386 . S
C2356 C2351 1.490 . S
C2356 C2358 1.395 . S
C2356 C2359 1.403 . S
H2357 C2363 0.930 . S
C2358 H2344 0.930 . S
C2358 C2356 1.395 . S
C2358 C2361 1.403 . S
C2359 C2356 1.403 . S
C2359 C2360 1.524 . S
C2359 C2363 1.400 . S
C2360 H2345 0.960 . S
C2360 H2346 0.960 . S
C2360 H2347 0.960 . S
C2360 C2359 1.524 . S
C2361 C2358 1.403 . S
C2361 C2362 1.392 . S
C2361 C2365 1.495 . S
C2362 C2361 1.392 . S
C2362 C2363 1.385 . S
C2362 C2364 1.478 . S
C2363 H2357 0.930 . S
C2363 C2359 1.400 . S
C2363 C2362 1.385 . S
C2364 C2362 1.478 . S
C2364 C2366 1.381 . S
C2364 C2370 1.383 . S
C2365 C2361 1.495 . S
C2365 H2371 0.959 . S
C2365 H2372 0.961 . S
C2365 H2373 0.960 . S
C2366 C2364 1.381 . S
C2366 C2367 1.394 . S
C2366 H2374 0.930 . S
C2367 C2366 1.394 . S
C2367 C2368 1.383 . S
C2367 H2375 0.929 . S
C2368 C2367 1.383 . S
C2368 C2369 1.377 . S
C2369 H2353 0.930 . S
C2369 C2368 1.377 . S
C2369 C2370 1.379 . S
C2370 H2354 0.931 . S
C2370 C2364 1.383 . S
C2370 C2369 1.379 . S
H2371 C2365 0.959 . S
H2372 C2365 0.961 . S
H2373 C2365 0.960 . S
H2374 C2366 0.930 . S
H2375 C2367 0.929 . S
H2376 C2384 0.929 . S
H2377 C2386 0.930 1_554 S
H2378 C2388 0.930 . S
H2379 C2391 0.929 . S
H2380 C2394 0.930 . S
H2381 C2396 0.960 . S
H2382 C2396 0.960 . S
H2383 C2396 0.960 . S
C2384 H2376 0.929 . S
C2384 C2385 1.377 . S
C2384 C2386 1.384 . S
C2385 C2384 1.377 . S
C2385 C2391 1.390 . S
C2386 H2377 0.930 1_556 S
C2386 C2384 1.384 . S
C2386 C2387 1.372 . S
C2387 C2386 1.372 . S
C2387 C2388 1.400 . S
C2387 C2392 1.490 . S
C2388 H2378 0.930 . S
C2388 C2387 1.400 . S
C2388 C2391 1.386 . S
H2389 C2405 0.930 . S
H2390 C2406 0.931 . S
C2391 H2379 0.929 . S
C2391 C2385 1.390 . S
C2391 C2388 1.386 . S
C2392 C2387 1.490 . S
C2392 C2394 1.395 . S
C2392 C2395 1.403 . S
H2393 C2399 0.930 . S
C2394 H2380 0.930 . S
C2394 C2392 1.395 . S
C2394 C2397 1.403 . S
C2395 C2392 1.403 . S
C2395 C2396 1.524 . S
C2395 C2399 1.400 . S
C2396 H2381 0.960 . S
C2396 H2382 0.960 . S
C2396 H2383 0.960 . S
C2396 C2395 1.524 . S
C2397 C2394 1.403 . S
C2397 C2398 1.392 . S
C2397 C2401 1.495 . S
C2398 C2397 1.392 . S
C2398 C2399 1.385 . S
C2398 C2400 1.478 . S
C2399 H2393 0.930 . S
C2399 C2395 1.400 . S
C2399 C2398 1.385 . S
C2400 C2398 1.478 . S
C2400 C2402 1.381 1_556 S
C2400 C2406 1.383 . S
C2401 C2397 1.495 . S
C2401 H2407 0.963 . S
C2401 H2408 0.961 . S
C2401 H2409 0.960 1_556 S
C2402 C2400 1.381 1_554 S
C2402 C2403 1.394 . S
C2402 H2410 0.930 . S
C2403 C2402 1.394 . S
C2403 C2404 1.383 1_554 S
C2403 H2411 0.929 . S
C2404 C2403 1.383 1_556 S
C2404 C2405 1.377 . S
C2405 H2389 0.930 . S
C2405 C2404 1.377 . S
C2405 C2406 1.379 . S
C2406 H2390 0.931 . S
C2406 C2400 1.383 . S
C2406 C2405 1.379 . S
H2407 C2401 0.963 . S
H2408 C2401 0.961 . S
H2409 C2401 0.960 1_554 S
H2410 C2402 0.930 . S
H2411 C2403 0.929 . S
H2412 C2420 0.929 . S
H2413 C2422 0.930 . S
H2414 C2424 0.930 . S
H2415 C2427 0.929 . S
H2416 C2430 0.930 . S
H2417 C2432 0.960 . S
H2418 C2432 0.960 . S
H2419 C2432 0.960 . S
C2420 H2412 0.929 . S
C2420 C2421 1.377 . S
C2420 C2422 1.384 . S
C2421 C2420 1.377 . S
C2421 C2427 1.390 . S
C2422 H2413 0.930 . S
C2422 C2420 1.384 . S
C2422 C2423 1.372 . S
C2423 C2422 1.372 . S
C2423 C2424 1.400 . S
C2423 C2428 1.490 . S
C2424 H2414 0.930 . S
C2424 C2423 1.400 . S
C2424 C2427 1.386 . S
H2425 C2441 0.930 . S
H2426 C2442 0.931 . S
C2427 H2415 0.929 . S
C2427 C2421 1.390 . S
C2427 C2424 1.386 . S
C2428 C2423 1.490 . S
C2428 C2430 1.395 . S
C2428 C2431 1.403 . S
H2429 C2435 0.930 . S
C2430 H2416 0.930 . S
C2430 C2428 1.395 . S
C2430 C2433 1.403 . S
C2431 C2428 1.403 . S
C2431 C2432 1.524 . S
C2431 C2435 1.400 . S
C2432 H2417 0.960 . S
C2432 H2418 0.960 . S
C2432 H2419 0.960 . S
C2432 C2431 1.524 . S
C2433 C2430 1.403 . S
C2433 C2434 1.392 . S
C2433 C2437 1.495 . S
C2434 C2433 1.392 . S
C2434 C2435 1.385 . S
C2434 C2436 1.478 . S
C2435 H2429 0.930 . S
C2435 C2431 1.400 . S
C2435 C2434 1.385 . S
C2436 C2434 1.478 . S
C2436 C2438 1.381 . S
C2436 C2442 1.383 . S
C2437 C2433 1.495 . S
C2437 H2443 0.959 . S
C2437 H2444 0.961 . S
C2437 H2445 0.960 . S
C2438 C2436 1.381 . S
C2438 C2439 1.394 . S
C2438 H2446 0.930 . S
C2439 C2438 1.394 . S
C2439 C2440 1.383 . S
C2439 H2447 0.929 . S
C2440 C2439 1.383 . S
C2440 C2441 1.377 . S
C2441 H2425 0.930 . S
C2441 C2440 1.377 . S
C2441 C2442 1.379 . S
C2442 H2426 0.931 . S
C2442 C2436 1.383 . S
C2442 C2441 1.379 . S
H2443 C2437 0.959 . S
H2444 C2437 0.961 . S
H2445 C2437 0.960 . S
H2446 C2438 0.930 . S
H2447 C2439 0.929 . S
H2448 C2456 0.929 . S
H2449 C2458 0.930 . S
H2450 C2460 0.930 . S
H2451 C2463 0.929 . S
H2452 C2466 0.930 . S
H2453 C2468 0.960 . S
H2454 C2468 0.960 . S
H2455 C2468 0.960 . S
C2456 H2448 0.929 . S
C2456 C2457 1.377 . S
C2456 C2458 1.384 . S
C2457 C2456 1.377 . S
C2457 C2463 1.390 . S
C2458 H2449 0.930 . S
C2458 C2456 1.384 . S
C2458 C2459 1.372 . S
C2459 C2458 1.372 . S
C2459 C2460 1.400 . S
C2459 C2464 1.490 . S
C2460 H2450 0.930 . S
C2460 C2459 1.400 . S
C2460 C2463 1.386 . S
H2461 C2477 0.930 1_556 S
H2462 C2478 0.931 . S
C2463 H2451 0.929 . S
C2463 C2457 1.390 . S
C2463 C2460 1.386 . S
C2464 C2459 1.490 . S
C2464 C2466 1.395 . S
C2464 C2467 1.403 . S
H2465 C2471 0.930 . S
C2466 H2452 0.930 . S
C2466 C2464 1.395 . S
C2466 C2469 1.403 . S
C2467 C2464 1.403 . S
C2467 C2468 1.524 . S
C2467 C2471 1.400 . S
C2468 H2453 0.960 . S
C2468 H2454 0.960 . S
C2468 H2455 0.960 . S
C2468 C2467 1.524 . S
C2469 C2466 1.403 . S
C2469 C2470 1.392 . S
C2469 C2473 1.495 . S
C2470 C2469 1.392 . S
C2470 C2471 1.385 . S
C2470 C2472 1.478 . S
C2471 H2465 0.930 . S
C2471 C2467 1.400 . S
C2471 C2470 1.385 . S
C2472 C2470 1.478 . S
C2472 C2474 1.381 . S
C2472 C2478 1.383 . S
C2473 C2469 1.495 . S
C2473 H2479 0.959 . S
C2473 H2480 0.961 . S
C2473 H2481 0.960 . S
C2474 C2472 1.381 . S
C2474 C2475 1.394 . S
C2474 H2482 0.930 . S
C2475 C2474 1.394 . S
C2475 C2476 1.383 . S
C2475 H2483 0.929 . S
C2476 C2475 1.383 . S
C2476 C2477 1.377 . S
C2477 H2461 0.930 1_554 S
C2477 C2476 1.377 . S
C2477 C2478 1.379 . S
C2478 H2462 0.931 . S
C2478 C2472 1.383 . S
C2478 C2477 1.379 . S
H2479 C2473 0.959 . S
H2480 C2473 0.961 . S
H2481 C2473 0.960 . S
H2482 C2474 0.930 . S
H2483 C2475 0.929 . S
H2484 C2492 0.929 . S
H2485 C2494 0.930 . S
H2486 C2496 0.930 . S
H2487 C2499 0.929 . S
H2488 C2502 0.930 . S
H2489 C2504 0.960 . S
H2490 C2504 0.960 . S
H2491 C2504 0.960 . S
C2492 H2484 0.929 . S
C2492 C2493 1.377 . S
C2492 C2494 1.384 . S
C2493 C2492 1.377 . S
C2493 C2499 1.390 . S
C2494 H2485 0.930 . S
C2494 C2492 1.384 . S
C2494 C2495 1.372 . S
C2495 C2494 1.372 . S
C2495 C2496 1.400 . S
C2495 C2500 1.490 . S
C2496 H2486 0.930 . S
C2496 C2495 1.400 . S
C2496 C2499 1.386 . S
H2497 C2513 0.907 1_556 S
H2498 C2514 0.931 1_556 S
C2499 H2487 0.929 . S
C2499 C2493 1.390 . S
C2499 C2496 1.386 . S
C2500 C2495 1.490 . S
C2500 C2502 1.395 . S
C2500 C2503 1.403 . S
H2501 C2507 0.930 . S
C2502 H2488 0.930 . S
C2502 C2500 1.395 . S
C2502 C2505 1.403 . S
C2503 C2500 1.403 . S
C2503 C2504 1.524 . S
C2503 C2507 1.400 . S
C2504 H2489 0.960 . S
C2504 H2490 0.960 . S
C2504 H2491 0.960 . S
C2504 C2503 1.524 . S
C2505 C2502 1.403 . S
C2505 C2506 1.392 . S
C2505 C2509 1.495 . S
C2506 C2505 1.392 . S
C2506 C2507 1.385 . S
C2506 C2508 1.478 . S
C2507 H2501 0.930 . S
C2507 C2503 1.400 . S
C2507 C2506 1.385 . S
C2508 C2506 1.478 . S
C2508 C2510 1.381 . S
C2508 C2514 1.383 . S
C2509 C2505 1.495 . S
C2509 H2515 0.959 . S
C2509 H2516 0.961 . S
C2509 H2517 0.960 . S
C2510 C2508 1.381 . S
C2510 C2511 1.394 . S
C2510 H2518 0.930 . S
C2511 C2510 1.394 . S
C2511 C2512 1.383 . S
C2511 H2519 0.929 . S
C2512 C2511 1.383 . S
C2512 C2513 1.395 . S
C2513 H2497 0.907 1_554 S
C2513 C2512 1.395 . S
C2513 C2514 1.384 . S
C2514 H2498 0.931 1_554 S
C2514 C2508 1.383 . S
C2514 C2513 1.384 . S
H2515 C2509 0.959 . S
H2516 C2509 0.961 . S
H2517 C2509 0.960 . S
H2518 C2510 0.930 . S
H2519 C2511 0.929 . S
C820 C632 1.488 . S
C801 C211 1.514 . S
C856 C645 1.468 . S
C837 C255 1.452 1_455 S
C873 C274 1.679 . S
C892 C665 1.532 . S
C928 C679 1.374 . S
C909 C157 1.433 . S
C964 C691 1.533 . S
C945 C391 1.538 . S
C1000 C705 1.397 . S
C981 C484 1.409 . S
C1017 C450 1.487 . S
C1036 C715 1.486 . S
C1072 C730 1.528 . S
C1053 C352 1.550 . S
C1089 C430 1.518 . S
C1108 C744 1.484 . S
C1144 C763 1.338 . S
C1125 C367 1.442 . S
C1161 C411 1.513 . S
C1180 C743 1.503 . S
C1216 C761 1.396 . S
C1197 C469 1.408 . S
C1233 C294 1.670 . S
C1252 C777 1.541 . S
C1269 C177 1.482 . S
C1288 C771 1.483 . S
C1305 C196 1.525 . S
C1324 C775 1.510 . S
C1341 C235 1.540 . S
C1360 C772 1.482 . S
C1377 C133 1.524 . S
C1396 C674 1.494 . S
C1413 C567 1.487 . S
C1432 C673 1.469 . S
C1468 C637 1.334 . S
C1449 C601 1.424 . S
C1504 C651 1.529 . S
C1485 C328 1.679 . S
C1521 C172 1.543 1_545 S
C1540 C688 1.502 . S
C1576 C733 1.525 . S
C1557 C445 1.528 . S
C1612 C687 1.485 . S
C1593 C372 1.452 1_545 S
C1648 C719 1.396 . S
C1629 C489 1.399 . S
C1684 C716 1.500 . S
C1665 C562 1.514 . S
C1701 C606 1.474 . S
C1720 C729 1.453 . S
C1737 C313 1.676 . S
C1756 C693 1.559 . S
C1792 C707 1.322 . S
C1773 C508 1.434 . S
C1809 C118 1.538 . S
C1828 C663 1.528 . S
C1864 C677 1.409 . S
C1845 C16 1.410 1_655 S
C1900 C631 1.486 . S
C1881 C60 1.487 . S
C1936 C646 1.521 . S
C1917 C79 1.550 1_455 S
C1953 C40 1.517 . S
C1972 C758 1.502 . S
C1989 C94 1.440 . S
C2008 C749 1.375 . S
C2025 C138 1.513 . S
C2044 C757 1.503 . S
C2061 C1 1.408 1_556 S
C2080 C747 1.399 . S
C2116 C791 1.574 . S
C2097 C333 1.671 . S
C2152 C785 1.473 . S
C2133 C528 1.478 . S
C2188 C789 1.510 . S
C2169 C547 1.526 . S
C2205 C586 1.539 1_554 S
C2224 C786 1.507 . S
C2241 C406 1.524 . S
C2260 C702 1.494 . S
C2296 C701 1.476 . S
C2277 C216 1.487 . S
C2332 C721 1.345 . S
C2313 C250 1.423 . S
C2368 C735 1.584 . S
C2349 C289 1.677 . S
C2385 C523 1.543 . S
C2404 C660 1.510 . S
C2440 C649 1.527 . S
C2421 C55 1.528 . S
C2457 C99 1.501 . S
C2476 C659 1.487 . S
C2512 C635 1.387 . S
C2493 C21 1.368 1_565 S
