# Generated by pormake.
# Topology anh, (6,3)-cn, num edge types: 1
# Building blocks:
#     Node 0, Type 0, BuildingBlock: VOLQOD_clean_sbu_1, # of connection points: 6
#     Node 1, Type 0, BuildingBlock: VOLQOD_clean_sbu_1, # of connection points: 6
#     Node 2, Type 0, BuildingBlock: VOLQOD_clean_sbu_1, # of connection points: 6
#     Node 3, Type 1, BuildingBlock: MIDCAF_clean_linker_0, # of connection points: 3
#     Node 4, Type 1, BuildingBlock: MIDCAF_clean_linker_0, # of connection points: 3
#     Node 5, Type 1, BuildingBlock: MIDCAF_clean_linker_0, # of connection points: 3
#     Node 6, Type 1, BuildingBlock: MIDCAF_clean_linker_0, # of connection points: 3
#     Node 7, Type 1, BuildingBlock: MIDCAF_clean_linker_0, # of connection points: 3
#     Node 8, Type 1, BuildingBlock: MIDCAF_clean_linker_0, # of connection points: 3
#     Edge 9, Type (0, 1), BuildingBlock: MIFKUJ_clean_linker_0, # of connection points: 2
#     Edge 10, Type (0, 1), BuildingBlock: MIFKUJ_clean_linker_0, # of connection points: 2
#     Edge 11, Type (0, 1), BuildingBlock: MIFKUJ_clean_linker_0, # of connection points: 2
#     Edge 12, Type (0, 1), BuildingBlock: MIFKUJ_clean_linker_0, # of connection points: 2
#     Edge 13, Type (0, 1), BuildingBlock: MIFKUJ_clean_linker_0, # of connection points: 2
#     Edge 14, Type (0, 1), BuildingBlock: MIFKUJ_clean_linker_0, # of connection points: 2
#     Edge 15, Type (0, 1), BuildingBlock: MIFKUJ_clean_linker_0, # of connection points: 2
#     Edge 16, Type (0, 1), BuildingBlock: MIFKUJ_clean_linker_0, # of connection points: 2
#     Edge 17, Type (0, 1), BuildingBlock: MIFKUJ_clean_linker_0, # of connection points: 2
#     Edge 18, Type (0, 1), BuildingBlock: MIFKUJ_clean_linker_0, # of connection points: 2
#     Edge 19, Type (0, 1), BuildingBlock: MIFKUJ_clean_linker_0, # of connection points: 2
#     Edge 20, Type (0, 1), BuildingBlock: MIFKUJ_clean_linker_0, # of connection points: 2
#     Edge 21, Type (0, 1), BuildingBlock: MIFKUJ_clean_linker_0, # of connection points: 2
#     Edge 22, Type (0, 1), BuildingBlock: MIFKUJ_clean_linker_0, # of connection points: 2
#     Edge 23, Type (0, 1), BuildingBlock: MIFKUJ_clean_linker_0, # of connection points: 2
#     Edge 24, Type (0, 1), BuildingBlock: MIFKUJ_clean_linker_0, # of connection points: 2
#     Edge 25, Type (0, 1), BuildingBlock: MIFKUJ_clean_linker_0, # of connection points: 2
#     Edge 26, Type (0, 1), BuildingBlock: MIFKUJ_clean_linker_0, # of connection points: 2
# Relax obj value: 0.167
# Max RMSD: 0.230
# Mean RMSD: 0.115
data_MOF--net-anh--node1-VOLQOD_clean_sbu_1--node2-MIDCAF_clean_linker_0--edge1-MIFKUJ_clean_linker_0
_symmetry_space_group_name_H-M    P1
_symmetry_Int_Tables_number       1
_symmetry_cell_setting            triclinic
loop_
_symmetry_equiv_pos_as_xyz
'x, y, z'
_cell_length_a     42.550729
_cell_length_b     42.45284
_cell_length_c     91.826521
_cell_angle_alpha  90.013647
_cell_angle_beta   89.899988
_cell_angle_gamma 120.16345
loop_
_atom_site_label
_atom_site_type_symbol
_atom_site_fract_x
_atom_site_fract_y
_atom_site_fract_z
_atom_type_partial_charge
O0 O 0.00213 0.55909 0.192 0.0
Zn1 Zn -0.00079 0.57307 0.17126 0.0
O2 O -0.00035 0.53812 0.15735 0.0
Zn3 Zn 0.95575 0.51658 0.14541 0.0
Zn4 Zn 0.00257 0.50024 0.16821 0.0
Zn5 Zn 0.04135 0.56222 0.14438 0.0
O6 O 0.96667 0.52553 0.12394 0.0
O7 O 0.02666 0.56053 0.12354 0.0
O8 O 0.95275 0.57474 0.16971 0.0
O9 O 0.92482 0.53784 0.15099 0.0
O10 O 0.92559 0.4624 0.14868 0.0
O11 O 0.95837 0.45191 0.16465 0.0
O12 O 0.04585 0.49637 0.16232 0.0
O13 O 0.04265 0.6232 0.16807 0.0
O14 O 0.07233 0.53875 0.14525 0.0
O15 O 0.07208 0.6144 0.14995 0.0
C16 C 0.00456 0.53304 0.19767 0.0
C17 C -0.00373 0.54431 0.11698 0.0
C18 C 0.93022 0.44066 0.15674 0.0
C19 C 0.92624 0.55959 0.16085 0.0
C20 C 0.07093 0.51316 0.15296 0.0
C21 C 0.06946 0.63512 0.15929 0.0
O22 O 0.00534 0.5088 0.18978 0.0
O23 O 0.47043 0.01141 0.46253 0.0
Zn24 Zn 0.45677 0.01278 0.48348 0.0
O25 O 0.48722 0.00284 0.49667 0.0
Zn26 Zn 0.51609 0.04415 0.50934 0.0
Zn27 Zn 0.52062 0.99336 0.48542 0.0
Zn28 Zn 0.45586 0.96097 0.50874 0.0
O29 O 0.50478 0.03167 0.53058 0.0
O30 O 0.46313 0.97296 0.5301 0.0
O31 O 0.46364 0.06283 0.48721 0.0
O32 O 0.50681 0.08415 0.5042 0.0
O33 O 0.56968 0.06503 0.50653 0.0
O34 O 0.57299 0.03079 0.48909 0.0
O35 O 0.51343 0.94398 0.49 0.0
O36 O 0.40357 0.97493 0.48558 0.0
O37 O 0.46642 0.9207 0.50525 0.0
O38 O 0.40338 0.94101 0.50402 0.0
C39 C 0.49295 0.00397 0.45653 0.0
C40 C 0.48332 0.00209 0.53715 0.0
C41 C 0.58831 0.05743 0.49789 0.0
C42 C 0.48582 0.08823 0.49555 0.0
C43 C 0.49012 0.91787 0.49781 0.0
C44 C 0.3866 0.94851 0.49442 0.0
O45 O 0.51301 0.99593 0.46407 0.0
O46 O 0.47864 0.48767 0.80937 0.0
Zn47 Zn 0.46129 0.47085 0.82994 0.0
O48 O 0.5019 0.49513 0.8438 0.0
Zn49 Zn 0.49348 0.52378 0.85803 0.0
Zn50 Zn 0.54684 0.52745 0.8334 0.0
Zn51 Zn 0.50674 0.45882 0.85457 0.0
O52 O 0.49744 0.51125 0.87892 0.0
O53 O 0.4985 0.45997 0.87597 0.0
O54 O 0.42174 0.4825 0.8349 0.0
O55 O 0.44371 0.51522 0.85511 0.0
O56 O 0.52532 0.57723 0.85442 0.0
O57 O 0.5623 0.58057 0.8367 0.0
O58 O 0.58631 0.51596 0.83815 0.0
O59 O 0.44112 0.41591 0.82966 0.0
O60 O 0.55634 0.46625 0.85178 0.0
O61 O 0.47293 0.40913 0.84723 0.0
C62 C 0.51047 0.50546 0.80394 0.0
C63 C 0.49707 0.48332 0.88418 0.0
C64 C 0.55059 0.59588 0.84536 0.0
C65 C 0.41884 0.5001 0.84558 0.0
C66 C 0.58508 0.48952 0.84523 0.0
C67 C 0.44896 0.39573 0.83731 0.0
O68 O 0.5386 0.52011 0.81197 0.0
C69 C 0.41611 0.89065 0.22617 0.0
C70 C 0.41237 0.89656 0.21137 0.0
C71 C 0.44269 0.92341 0.20374 0.0
C72 C 0.47577 0.9445 0.21085 0.0
H73 H 0.58318 0.01424 0.20357 0.0
H74 H 0.63064 0.06269 0.18907 0.0
H75 H 0.68233 0.12231 0.22831 0.0
H76 H 0.63503 0.07359 0.24295 0.0
H77 H 0.59842 0.03726 0.27391 0.0
H78 H 0.59433 0.04399 0.30017 0.0
H79 H 0.48289 0.95598 0.29976 0.0
H80 H 0.48661 0.94923 0.27369 0.0
H81 H 0.45088 0.90708 0.24478 0.0
H82 H 0.39347 0.86962 0.23227 0.0
H83 H 0.44065 0.92891 0.19238 0.0
H84 H 0.49831 0.96553 0.20471 0.0
N85 N 0.54322 0.98788 0.22604 0.0
N86 N 0.57386 0.014 0.24785 0.0
N87 N 0.51368 0.96547 0.24832 0.0
C88 C 0.57373 0.01275 0.23304 0.0
C89 C 0.54388 0.99021 0.25556 0.0
C90 C 0.51314 0.96411 0.23357 0.0
C91 C 0.605 0.04019 0.22445 0.0
C92 C 0.6048 0.03747 0.20917 0.0
C93 C 0.63191 0.06529 0.20083 0.0
C94 C 0.6599 0.09644 0.20755 0.0
C95 C 0.66116 0.09849 0.22283 0.0
C96 C 0.63398 0.07061 0.23122 0.0
C97 C 0.54279 0.99288 0.27163 0.0
C98 C 0.57311 0.01919 0.27943 0.0
C99 C 0.57084 0.02302 0.29446 0.0
C100 C 0.53816 0.00079 0.30195 0.0
C101 C 0.50821 0.97395 0.29422 0.0
C102 C 0.5105 0.96997 0.27926 0.0
C103 C 0.47916 0.93942 0.22577 0.0
C104 C 0.4491 0.91194 0.23331 0.0
C105 C 0.56515 0.42481 0.57192 0.0
C106 C 0.54601 0.4149 0.5587 0.0
C107 C 0.53309 0.43675 0.55288 0.0
C108 C 0.53924 0.46813 0.56012 0.0
H109 H 0.53411 0.55697 0.55304 0.0
H110 H 0.52388 0.59958 0.53904 0.0
H111 H 0.57221 0.67926 0.57335 0.0
H112 H 0.5824 0.63643 0.5876 0.0
H113 H 0.5577 0.58843 0.62008 0.0
H114 H 0.55347 0.58713 0.64656 0.0
H115 H 0.5831 0.50374 0.64807 0.0
H116 H 0.58729 0.50474 0.62153 0.0
H117 H 0.58541 0.46308 0.58956 0.0
H118 H 0.57526 0.40818 0.57658 0.0
H119 H 0.51853 0.42974 0.54264 0.0
H120 H 0.52881 0.48434 0.55532 0.0
N121 N 0.56114 0.53701 0.57336 0.0
N122 N 0.56864 0.57018 0.59469 0.0
N123 N 0.56857 0.51482 0.59565 0.0
C124 C 0.56387 0.56669 0.58005 0.0
C125 C 0.57105 0.54434 0.60257 0.0
C126 C 0.56359 0.51109 0.58101 0.0
C127 C 0.55906 0.59333 0.57146 0.0
C128 C 0.54283 0.58362 0.55762 0.0
C129 C 0.53676 0.60787 0.54961 0.0
C130 C 0.54722 0.64249 0.55517 0.0
C131 C 0.56412 0.65267 0.56884 0.0
C132 C 0.56975 0.62815 0.577 0.0
C133 C 0.57258 0.54647 0.61866 0.0
C134 C 0.5638 0.5701 0.62602 0.0
C135 C 0.56113 0.56925 0.64118 0.0
C136 C 0.56766 0.54514 0.6493 0.0
C137 C 0.57804 0.52267 0.64204 0.0
C138 C 0.58027 0.52316 0.62685 0.0
C139 C 0.55802 0.47804 0.57344 0.0
C140 C 0.5708 0.45602 0.57933 0.0
C141 C 0.90621 0.49371 0.8797 0.0
C142 C 0.90875 0.49626 0.86444 0.0
C143 C 0.94309 0.51668 0.85792 0.0
C144 C 0.97423 0.53484 0.86652 0.0
H145 H 0.08604 0.60712 0.86468 0.0
H146 H 0.14221 0.62028 0.85245 0.0
H147 H 0.18694 0.61329 0.89379 0.0
H148 H 0.13163 0.6017 0.90599 0.0
H149 H 0.08408 0.58856 0.93479 0.0
H150 H 0.077 0.58502 0.96115 0.0
H151 H 0.96295 0.54964 0.95633 0.0
H152 H 0.96972 0.552 0.93 0.0
H153 H 0.93409 0.50986 0.90002 0.0
H154 H 0.88003 0.4788 0.88506 0.0
H155 H 0.94578 0.51911 0.84618 0.0
H156 H 0.00028 0.55073 0.86116 0.0
N157 N 0.03778 0.57033 0.88481 0.0
N158 N 0.0647 0.58761 0.90788 0.0
N159 N 0.00125 0.55386 0.90569 0.0
C160 C 0.06808 0.58762 0.89315 0.0
C161 C 0.03128 0.57107 0.91421 0.0
C162 C 0.00429 0.55328 0.89099 0.0
C163 C 0.10417 0.60263 0.88626 0.0
C164 C 0.10825 0.60925 0.87118 0.0
C165 C 0.1404 0.6167 0.86416 0.0
C166 C 0.1689 0.61719 0.87206 0.0
C167 C 0.1658 0.61351 0.88732 0.0
C168 C 0.13386 0.60655 0.89435 0.0
C169 C 0.02746 0.57046 0.93026 0.0
C170 C 0.05751 0.58015 0.93934 0.0
C171 C 0.05348 0.57827 0.95448 0.0
C172 C 0.01938 0.56697 0.96088 0.0
C173 C 0.98947 0.5578 0.95178 0.0
C174 C 0.99342 0.55937 0.93666 0.0
C175 C 0.97155 0.53315 0.88182 0.0
C176 C 0.93722 0.51197 0.88829 0.0
C177 C 0.06269 0.62885 0.43293 0.0
C178 C 0.07811 0.6294 0.44654 0.0
C179 C 0.07061 0.59606 0.45283 0.0
C180 C 0.04898 0.56317 0.44552 0.0
H181 H 0.96923 0.45191 0.45214 0.0
H182 H 0.92702 0.39553 0.46462 0.0
H183 H 0.88766 0.34221 0.42315 0.0
H184 H 0.92939 0.39845 0.4106 0.0
H185 H 0.95859 0.44245 0.38145 0.0
H186 H 0.95952 0.44571 0.35493 0.0
H187 H 0.03588 0.56133 0.35703 0.0
H188 H 0.03449 0.5584 0.38343 0.0
H189 H 0.0308 0.59677 0.41496 0.0
H190 H 0.06695 0.65376 0.4279 0.0
H191 H 0.08235 0.59534 0.46318 0.0
H192 H 0.04429 0.53803 0.4505 0.0
N193 N 0.99492 0.49636 0.43039 0.0
N194 N 0.97608 0.46639 0.40788 0.0
N195 N 0.01449 0.52967 0.40863 0.0
C196 C 0.97554 0.46501 0.42269 0.0
C197 C -0.00434 0.49862 0.40077 0.0
C198 C 0.01432 0.52878 0.4234 0.0
C199 C 0.95248 0.42995 0.43034 0.0
C200 C 0.95182 0.42813 0.44565 0.0
C201 C 0.9278 0.39575 0.45283 0.0
C202 C 0.90383 0.36458 0.44486 0.0
C203 C 0.90544 0.36599 0.42958 0.0
C204 C 0.92952 0.39825 0.42239 0.0
C205 C -0.00364 0.50017 0.38463 0.0
C206 C 0.97558 0.46859 0.37627 0.0
C207 C 0.97625 0.4704 0.36106 0.0
C208 C -0.00231 0.5038 0.35387 0.0
C209 C 0.01861 0.53528 0.36222 0.0
C210 C 0.01793 0.53351 0.3774 0.0
C211 C 0.03499 0.56301 0.43167 0.0
C212 C 0.04175 0.59611 0.42552 0.0
C213 C 0.46737 0.08991 0.7679 0.0
C214 C 0.46745 0.09288 0.78312 0.0
C215 C 0.47298 0.06858 0.79166 0.0
C216 C 0.47918 0.04239 0.78504 0.0
H217 H 0.50127 0.95672 0.7927 0.0
H218 H 0.51199 0.91295 0.80583 0.0
H219 H 0.52821 0.87273 0.76496 0.0
H220 H 0.51696 0.91563 0.75186 0.0
H221 H 0.50205 0.94172 0.72201 0.0
H222 H 0.50289 0.94259 0.6954 0.0
H223 H 0.48958 0.03695 0.69571 0.0
H224 H 0.48917 0.03654 0.72213 0.0
H225 H 0.47329 0.06279 0.74954 0.0
H226 H 0.46249 0.10773 0.76102 0.0
H227 H 0.47329 0.07033 0.80343 0.0
H228 H 0.48385 0.02437 0.79188 0.0
N229 N 0.49372 0.98961 0.77008 0.0
N230 N 0.50129 0.96548 0.74816 0.0
N231 N 0.48793 0.01253 0.74764 0.0
C232 C 0.50082 0.96562 0.76298 0.0
C233 C 0.4949 0.9889 0.74042 0.0
C234 C 0.4872 0.01319 0.7624 0.0
C235 C 0.508 0.93969 0.77118 0.0
C236 C 0.50711 0.93855 0.78651 0.0
C237 C 0.51346 0.91359 0.79405 0.0
C238 C 0.52072 0.88916 0.78645 0.0
C239 C 0.52204 0.89067 0.77116 0.0
C240 C 0.51575 0.91553 0.76364 0.0
C241 C 0.49558 0.98906 0.72426 0.0
C242 C 0.49941 0.96271 0.71641 0.0
C243 C 0.49971 0.96308 0.70117 0.0
C244 C 0.49644 0.98992 0.69348 0.0
C245 C 0.49269 0.01624 0.70132 0.0
C246 C 0.49221 0.0158 0.71651 0.0
C247 C 0.47974 0.03993 0.76977 0.0
C248 C 0.47342 0.06387 0.76132 0.0
C249 C 0.56861 0.4222 0.11862 0.0
C250 C 0.5708 0.43716 0.13249 0.0
C251 C 0.53955 0.43529 0.13853 0.0
C252 C 0.50733 0.42063 0.13049 0.0
H253 H 0.40245 0.40184 0.13146 0.0
H254 H 0.35218 0.40934 0.13983 0.0
H255 H 0.30011 0.37309 0.09797 0.0
H256 H 0.35033 0.36599 0.08949 0.0
H257 H 0.39583 0.3619 0.06233 0.0
H258 H 0.40423 0.37199 0.03608 0.0
H259 H 0.52062 0.42872 0.04181 0.0
H260 H 0.51248 0.41852 0.06803 0.0
H261 H 0.5363 0.39747 0.09976 0.0
H262 H 0.59201 0.42245 0.11382 0.0
H263 H 0.54047 0.44665 0.14919 0.0
H264 H 0.48413 0.42093 0.1352 0.0
N265 N 0.44226 0.3924 0.11257 0.0
N266 N 0.4172 0.38279 0.08915 0.0
N267 N 0.47677 0.39476 0.09222 0.0
C268 C 0.41372 0.38503 0.10377 0.0
C269 C 0.4486 0.38763 0.08329 0.0
C270 C 0.47376 0.39687 0.10688 0.0
C271 C 0.38079 0.38391 0.10971 0.0
C272 C 0.38002 0.39487 0.1241 0.0
C273 C 0.35116 0.39907 0.12893 0.0
C274 C 0.32254 0.39236 0.11947 0.0
C275 C 0.32221 0.37921 0.1054 0.0
C276 C 0.35098 0.37503 0.10057 0.0
C277 C 0.45347 0.38959 0.06729 0.0
C278 C 0.42322 0.3761 0.05799 0.0
C279 C 0.42798 0.38173 0.04296 0.0
C280 C 0.46306 0.40137 0.03699 0.0
C281 C 0.49329 0.41379 0.04619 0.0
C282 C 0.48857 0.40771 0.06119 0.0
C283 C 0.50587 0.4077 0.11625 0.0
C284 C 0.53659 0.40775 0.11058 0.0
H285 H 0.08585 0.47072 0.17075 0.0
H286 H 0.12863 0.4492 0.16626 0.0
H287 H 0.15969 0.50748 0.12547 0.0
H288 H 0.11726 0.52943 0.1299 0.0
H289 H 0.1411 0.43337 0.1236 0.0
H290 H 0.21646 0.54072 0.15214 0.0
H291 H 0.23167 0.58082 0.17355 0.0
H292 H 0.22446 0.49565 0.20107 0.0
H293 H 0.2087 0.45484 0.17983 0.0
H294 H 0.29733 0.42855 0.10328 0.0
H295 H 0.25315 0.44626 0.11029 0.0
H296 H 0.24115 0.39637 0.15242 0.0
H297 H 0.28586 0.37866 0.14545 0.0
H298 H 0.24704 0.46199 0.15496 0.0
H299 H 0.17488 0.35539 0.12675 0.0
H300 H 0.15883 0.31418 0.10567 0.0
H301 H 0.15789 0.39533 0.07807 0.0
H302 H 0.17445 0.43726 0.09896 0.0
C303 C 0.10194 0.47915 0.16087 0.0
C304 C 0.09814 0.50173 0.15066 0.0
C305 C 0.12642 0.46692 0.15835 0.0
C306 C 0.14725 0.47684 0.14556 0.0
C307 C 0.14376 0.49957 0.13541 0.0
C308 C 0.11964 0.51218 0.13799 0.0
C309 C 0.17184 0.46252 0.14249 0.0
C310 C 0.16452 0.4399 0.13035 0.0
C311 C 0.2015 0.47009 0.15164 0.0
C312 C 0.21098 0.49459 0.16442 0.0
C313 C 0.21777 0.53042 0.16277 0.0
C314 C 0.22657 0.5533 0.17487 0.0
C315 C 0.22891 0.54075 0.18867 0.0
C316 C 0.22257 0.50532 0.19038 0.0
C317 C 0.21373 0.4823 0.17831 0.0
C318 C 0.28489 0.42082 0.11396 0.0
C319 C 0.29471 0.40181 0.12376 0.0
C320 C 0.25969 0.43103 0.11796 0.0
C321 C 0.24341 0.42211 0.13179 0.0
C322 C 0.25332 0.40339 0.14167 0.0
C323 C 0.2788 0.39331 0.13769 0.0
C324 C 0.2167 0.43322 0.13589 0.0
C325 C 0.2235 0.45516 0.14826 0.0
C326 C 0.18631 0.42477 0.12701 0.0
C327 C 0.17619 0.39958 0.11441 0.0
C328 C 0.17151 0.36456 0.11617 0.0
C329 C 0.16228 0.34105 0.10425 0.0
C330 C 0.15742 0.35216 0.09053 0.0
C331 C 0.16169 0.38678 0.08871 0.0
C332 C 0.17096 0.41041 0.10058 0.0
H333 H 0.15027 0.33392 0.08132 0.0
H334 H 0.23574 0.55852 0.19802 0.0
H335 H 0.63205 0.1116 0.51686 0.0
H336 H 0.69375 0.1615 0.51218 0.0
H337 H 0.69515 0.11204 0.47132 0.0
H338 H 0.63406 0.06156 0.47611 0.0
H339 H 0.76245 0.14827 0.48278 0.0
H340 H 0.66353 0.17267 0.47316 0.0
H341 H 0.60968 0.17611 0.48074 0.0
H342 H 0.67247 0.25341 0.51398 0.0
H343 H 0.72668 0.25021 0.50664 0.0
H344 H 0.83229 0.32372 0.43782 0.0
H345 H 0.78509 0.26997 0.45034 0.0
H346 H 0.86378 0.27712 0.48171 0.0
H347 H 0.91155 0.33097 0.46903 0.0
H348 H 0.76082 0.26397 0.47834 0.0
H349 H 0.83507 0.18579 0.49133 0.0
H350 H 0.88635 0.17968 0.4822 0.0
H351 H 0.86993 0.20805 0.43913 0.0
H352 H 0.81829 0.21384 0.44796 0.0
C353 C 0.64586 0.11084 0.50706 0.0
C354 C 0.62789 0.08299 0.49671 0.0
C355 C 0.68112 0.1394 0.5044 0.0
C356 C 0.69865 0.14092 0.49123 0.0
C357 C 0.68206 0.1115 0.48152 0.0
C358 C 0.64701 0.08269 0.48426 0.0
C359 C 0.73149 0.17499 0.48655 0.0
C360 C 0.76235 0.17372 0.482 0.0
C361 C 0.73119 0.2081 0.48536 0.0
C362 C 0.69899 0.21096 0.48944 0.0
C363 C 0.6658 0.19035 0.4821 0.0
C364 C 0.63523 0.19223 0.48636 0.0
C365 C 0.63762 0.21484 0.49788 0.0
C366 C 0.67066 0.23585 0.50509 0.0
C367 C 0.70132 0.23407 0.50086 0.0
C368 C 0.83969 0.31364 0.44728 0.0
C369 C 0.87566 0.33141 0.45239 0.0
C370 C 0.81263 0.28314 0.4545 0.0
C371 C 0.82097 0.26959 0.46693 0.0
C372 C 0.85686 0.2871 0.47209 0.0
C373 C 0.88402 0.31788 0.46489 0.0
C374 C 0.79165 0.23719 0.4744 0.0
C375 C 0.76139 0.23882 0.47947 0.0
C376 C 0.79238 0.20437 0.47584 0.0
C377 C 0.82317 0.20072 0.47036 0.0
C378 C 0.8424 0.19067 0.47991 0.0
C379 C 0.87151 0.18725 0.47478 0.0
C380 C 0.88149 0.19363 0.46011 0.0
C381 C 0.86229 0.20329 0.45051 0.0
C382 C 0.83314 0.20671 0.45557 0.0
H383 H 0.90404 0.19098 0.45616 0.0
H384 H 0.61392 0.21615 0.50122 0.0
H385 H 0.53179 0.63754 0.86188 0.0
H386 H 0.53375 0.69358 0.85433 0.0
H387 H 0.59314 0.69739 0.81565 0.0
H388 H 0.59149 0.64133 0.82312 0.0
H389 H 0.61374 0.76634 0.82596 0.0
H390 H 0.50426 0.65477 0.81446 0.0
H391 H 0.44983 0.59534 0.81965 0.0
H392 H 0.40847 0.64729 0.84759 0.0
H393 H 0.46315 0.70702 0.84285 0.0
H394 H 0.49423 0.81779 0.77925 0.0
H395 H 0.50562 0.77334 0.79133 0.0
H396 H 0.57039 0.85328 0.82377 0.0
H397 H 0.56003 0.89845 0.81141 0.0
H398 H 0.48892 0.74381 0.81746 0.0
H399 H 0.63856 0.83653 0.83462 0.0
H400 H 0.69289 0.89355 0.8268 0.0
H401 H 0.65306 0.87533 0.78288 0.0
H402 H 0.59877 0.81799 0.7904 0.0
C403 C 0.54622 0.65078 0.85197 0.0
C404 C 0.5609 0.63448 0.84297 0.0
C405 C 0.5472 0.68281 0.84765 0.0
C406 C 0.56281 0.69912 0.83427 0.0
C407 C 0.58073 0.68507 0.82598 0.0
C408 C 0.57978 0.65298 0.83029 0.0
C409 C 0.55655 0.7278 0.82808 0.0
C410 C 0.58648 0.76159 0.82422 0.0
C411 C 0.52092 0.72125 0.82552 0.0
C412 C 0.48808 0.68533 0.82846 0.0
C413 C 0.48379 0.6535 0.82185 0.0
C414 C 0.45288 0.61977 0.82469 0.0
C415 C 0.42581 0.61756 0.83398 0.0
C416 C 0.42956 0.64907 0.84044 0.0
C417 C 0.46053 0.68286 0.83769 0.0
C418 C 0.51118 0.82608 0.78888 0.0
C419 C 0.52649 0.8618 0.79429 0.0
C420 C 0.5174 0.80051 0.79585 0.0
C421 C 0.53911 0.81001 0.80838 0.0
C422 C 0.5539 0.84544 0.81401 0.0
C423 C 0.54768 0.87113 0.80701 0.0
C424 C 0.54611 0.78262 0.81543 0.0
C425 C 0.51623 0.7489 0.81943 0.0
C426 C 0.58174 0.78898 0.8178 0.0
C427 C 0.61442 0.82322 0.81312 0.0
C428 C 0.64146 0.84466 0.82329 0.0
C429 C 0.67224 0.87704 0.81891 0.0
C430 C 0.67635 0.88813 0.80436 0.0
C431 C 0.64976 0.86679 0.79415 0.0
C432 C 0.61897 0.83438 0.79847 0.0
H433 H 0.70018 0.9132 0.80099 0.0
H434 H 0.40188 0.59147 0.83612 0.0
H435 H 0.8861 0.56664 0.13967 0.0
H436 H 0.82606 0.56028 0.14241 0.0
H437 H 0.83292 0.55283 0.18903 0.0
H438 H 0.89388 0.56047 0.18634 0.0
H439 H 0.7736 0.49064 0.17431 0.0
H440 H 0.82203 0.61755 0.17931 0.0
H441 H 0.86222 0.68272 0.17383 0.0
H442 H 0.81595 0.66692 0.13108 0.0
H443 H 0.77585 0.60154 0.1362 0.0
H444 H 0.58571 0.43432 0.16147 0.0
H445 H 0.64546 0.46636 0.17337 0.0
H446 H 0.69524 0.5158 0.13229 0.0
H447 H 0.63607 0.48505 0.12056 0.0
H448 H 0.72385 0.56434 0.15352 0.0
H449 H 0.69348 0.43862 0.14536 0.0
H450 H 0.65826 0.37189 0.14846 0.0
H451 H 0.67442 0.38431 0.19472 0.0
H452 H 0.70943 0.45119 0.19189 0.0
C453 C 0.87531 0.56493 0.15052 0.0
C454 C 0.89439 0.564 0.16279 0.0
C455 C 0.84114 0.56144 0.15209 0.0
C456 C 0.82523 0.55621 0.16593 0.0
C457 C 0.84501 0.5572 0.17829 0.0
C458 C 0.87974 0.56165 0.17674 0.0
C459 C 0.78608 0.5438 0.16689 0.0
C460 C 0.76246 0.50703 0.17027 0.0
C461 C 0.77195 0.56514 0.16133 0.0
C462 C 0.79592 0.60454 0.15816 0.0
C463 C 0.82056 0.6279 0.1687 0.0
C464 C 0.84332 0.66491 0.16566 0.0
C465 C 0.84165 0.67895 0.15211 0.0
C466 C 0.81718 0.65601 0.14158 0.0
C467 C 0.79436 0.61897 0.14456 0.0
C468 C 0.60943 0.45236 0.15506 0.0
C469 C 0.60632 0.45679 0.14004 0.0
C470 C 0.64349 0.4705 0.16184 0.0
C471 C 0.67481 0.4933 0.15369 0.0
C472 C 0.67147 0.49843 0.13881 0.0
C473 C 0.63766 0.48044 0.13207 0.0
C474 C 0.71163 0.51066 0.16017 0.0
C475 C 0.73473 0.54831 0.15817 0.0
C476 C 0.72549 0.48995 0.1667 0.0
C477 C 0.70343 0.44987 0.16844 0.0
C478 C 0.68908 0.42713 0.15621 0.0
C479 C 0.66927 0.38928 0.15791 0.0
C480 C 0.66391 0.37388 0.17179 0.0
C481 C 0.67841 0.39629 0.18399 0.0
C482 C 0.69822 0.43415 0.18234 0.0
H483 H 0.6487 0.34457 0.17308 0.0
H484 H 0.85929 0.70761 0.14978 0.0
H485 H 0.33862 0.90117 0.51442 0.0
H486 H 0.27728 0.85079 0.50972 0.0
H487 H 0.28506 0.8867 0.46522 0.0
H488 H 0.34593 0.93788 0.46998 0.0
H489 H 0.21667 0.8568 0.47452 0.0
H490 H 0.31041 0.82467 0.47485 0.0
H491 H 0.36147 0.82066 0.48551 0.0
H492 H 0.29269 0.75529 0.52056 0.0
H493 H 0.24135 0.75941 0.51023 0.0
H494 H 0.12736 0.69371 0.43355 0.0
H495 H 0.17017 0.75087 0.44521 0.0
H496 H 0.13125 0.70248 0.48745 0.0
H497 H 0.08666 0.6453 0.47589 0.0
H498 H 0.20903 0.73759 0.48281 0.0
H499 H 0.11176 0.76265 0.4785 0.0
H500 H 0.06274 0.76641 0.46581 0.0
H501 H 0.14032 0.84425 0.43577 0.0
H502 H 0.18978 0.84055 0.44814 0.0
C503 C 0.3269 0.89885 0.50373 0.0
C504 C 0.34729 0.92309 0.49249 0.0
C505 C 0.29189 0.87 0.50105 0.0
C506 C 0.27703 0.86444 0.48702 0.0
C507 C 0.2961 0.89036 0.47612 0.0
C508 C 0.33093 0.91959 0.47885 0.0
C509 C 0.24386 0.82971 0.48322 0.0
C510 C 0.21498 0.83074 0.47632 0.0
C511 C 0.24149 0.79563 0.48573 0.0
C512 C 0.27218 0.79272 0.49187 0.0
C513 C 0.30625 0.80964 0.48489 0.0
C514 C 0.33523 0.80734 0.49086 0.0
C515 C 0.33036 0.78783 0.50373 0.0
C516 C 0.29645 0.77047 0.51062 0.0
C517 C 0.2674 0.77278 0.50471 0.0
C518 C 0.127 0.69527 0.44531 0.0
C519 C 0.10327 0.66471 0.45374 0.0
C520 C 0.15172 0.72801 0.45195 0.0
C521 C 0.1536 0.73087 0.46716 0.0
C522 C 0.13004 0.7007 0.47567 0.0
C523 C 0.10481 0.66799 0.46903 0.0
C524 C 0.1821 0.76476 0.47399 0.0
C525 C 0.21029 0.76357 0.48135 0.0
C526 C 0.1841 0.79864 0.47163 0.0
C527 C 0.15447 0.80112 0.4642 0.0
C528 C 0.11835 0.78036 0.46912 0.0
C529 C 0.09048 0.78252 0.46199 0.0
C530 C 0.0984 0.80551 0.44998 0.0
C531 C 0.13423 0.82644 0.44508 0.0
C532 C 0.1622 0.82436 0.45216 0.0
H533 H 0.07679 0.80714 0.44448 0.0
H534 H 0.35284 0.78609 0.50834 0.0
H535 H 0.45062 0.3434 0.85382 0.0
H536 H 0.44441 0.28634 0.84512 0.0
H537 H 0.41018 0.3033 0.80314 0.0
H538 H 0.4167 0.36102 0.81171 0.0
H539 H 0.37612 0.22561 0.81352 0.0
H540 H 0.49168 0.33401 0.80427 0.0
H541 H 0.54528 0.39238 0.81131 0.0
H542 H 0.57318 0.33748 0.8436 0.0
H543 H 0.51933 0.27878 0.8369 0.0
H544 H 0.49876 0.16397 0.77484 0.0
H545 H 0.48767 0.21094 0.7846 0.0
H546 H 0.4143 0.13495 0.81656 0.0
H547 H 0.42465 0.08729 0.80653 0.0
H548 H 0.50011 0.2422 0.81052 0.0
H549 H 0.34616 0.1557 0.8227 0.0
H550 H 0.29229 0.09963 0.81393 0.0
H551 H 0.3421 0.11385 0.7719 0.0
H552 H 0.396 0.17023 0.78035 0.0
C553 C 0.44074 0.33459 0.84286 0.0
C554 C 0.43483 0.35711 0.83336 0.0
C555 C 0.43714 0.3019 0.83793 0.0
C556 C 0.42742 0.29103 0.82346 0.0
C557 C 0.41775 0.31137 0.81437 0.0
C558 C 0.42148 0.34432 0.81928 0.0
C559 C 0.43309 0.26203 0.81736 0.0
C560 C 0.40313 0.22904 0.81288 0.0
C561 C 0.46848 0.26699 0.81631 0.0
C562 C 0.50125 0.30208 0.8202 0.0
C563 C 0.50907 0.33442 0.81296 0.0
C564 C 0.5395 0.36755 0.81687 0.0
C565 C 0.56252 0.36864 0.82793 0.0
C566 C 0.55526 0.33658 0.83506 0.0
C567 C 0.52479 0.30337 0.8312 0.0
C568 C 0.4801 0.15715 0.7839 0.0
C569 C 0.46231 0.12182 0.78983 0.0
C570 C 0.47397 0.18411 0.78953 0.0
C571 C 0.44986 0.17637 0.8012 0.0
C572 C 0.43266 0.14137 0.80741 0.0
C573 C 0.43884 0.11429 0.80178 0.0
C574 C 0.44305 0.20522 0.80678 0.0
C575 C 0.47296 0.23841 0.8112 0.0
C576 C 0.40769 0.2006 0.80747 0.0
C577 C 0.37527 0.16694 0.80222 0.0
C578 C 0.34555 0.1469 0.81157 0.0
C579 C 0.31502 0.11507 0.80666 0.0
C580 C 0.31383 0.10311 0.79238 0.0
C581 C 0.34311 0.12305 0.78297 0.0
C582 C 0.37368 0.15491 0.78783 0.0
H583 H 0.29018 0.07845 0.7886 0.0
H584 H 0.58602 0.39432 0.83095 0.0
H585 H 0.55 0.91095 0.49517 0.0
H586 H 0.55478 0.85756 0.50107 0.0
H587 H 0.43897 0.79539 0.50877 0.0
H588 H 0.43448 0.84948 0.50363 0.0
H589 H 0.47051 0.78712 0.5303 0.0
H590 H 0.48295 0.77737 0.47949 0.0
H591 H 0.50601 0.7974 0.45457 0.0
H592 H 0.61344 0.82568 0.46832 0.0
H593 H 0.59116 0.80632 0.49338 0.0
H594 H 0.4825 0.62771 0.54367 0.0
H595 H 0.46899 0.66947 0.5303 0.0
H596 H 0.58092 0.75473 0.53436 0.0
H597 H 0.59452 0.71314 0.54793 0.0
H598 H 0.54534 0.74436 0.50498 0.0
H599 H 0.52999 0.75967 0.55675 0.0
H600 H 0.50383 0.73661 0.58107 0.0
H601 H 0.3962 0.69302 0.56372 0.0
H602 H 0.42177 0.71538 0.53924 0.0
C603 C 0.52548 0.88569 0.49785 0.0
C604 C 0.49195 0.88433 0.49909 0.0
C605 C 0.52817 0.85506 0.50111 0.0
C606 C 0.49717 0.82228 0.50525 0.0
C607 C 0.46328 0.82041 0.50566 0.0
C608 C 0.46072 0.85127 0.50273 0.0
C609 C 0.50091 0.79156 0.51079 0.0
C610 C 0.48616 0.77725 0.52454 0.0
C611 C 0.5218 0.77895 0.50344 0.0
C612 C 0.53539 0.79059 0.48836 0.0
C613 C 0.51155 0.78811 0.47723 0.0
C614 C 0.52448 0.7993 0.46307 0.0
C615 C 0.56118 0.81286 0.45987 0.0
C616 C 0.58502 0.81518 0.47082 0.0
C617 C 0.57224 0.80404 0.485 0.0
C618 C 0.50423 0.65529 0.54159 0.0
C619 C 0.53949 0.66743 0.54682 0.0
C620 C 0.4965 0.67898 0.53398 0.0
C621 C 0.52403 0.71494 0.53137 0.0
C622 C 0.55948 0.72691 0.53625 0.0
C623 C 0.56711 0.70337 0.54407 0.0
C624 C 0.51533 0.74079 0.52438 0.0
C625 C 0.5292 0.75404 0.51047 0.0
C626 C 0.49309 0.75201 0.53142 0.0
C627 C 0.47777 0.73878 0.54615 0.0
C628 C 0.50075 0.74486 0.5581 0.0
C629 C 0.48603 0.73198 0.57191 0.0
C630 C 0.44837 0.71325 0.57393 0.0
C631 C 0.42536 0.70746 0.56214 0.0
C632 C 0.43995 0.72024 0.5483 0.0
H633 H 0.43702 0.70331 0.58464 0.0
H634 H 0.57113 0.82152 0.4489 0.0
H635 H 0.64861 0.52742 0.82982 0.0
H636 H 0.69933 0.51574 0.82906 0.0
H637 H 0.64299 0.42659 0.85924 0.0
H638 H 0.5925 0.43821 0.86022 0.0
H639 H 0.71164 0.47116 0.86734 0.0
H640 H 0.65048 0.40803 0.82443 0.0
H641 H 0.61951 0.39942 0.80086 0.0
H642 H 0.71771 0.48591 0.78219 0.0
H643 H 0.74911 0.49546 0.80574 0.0
H644 H 0.84732 0.42949 0.86701 0.0
H645 H 0.78689 0.41386 0.85834 0.0
H646 H 0.8337 0.51382 0.8337 0.0
H647 H 0.89404 0.5298 0.84239 0.0
H648 H 0.76498 0.45392 0.82197 0.0
H649 H 0.8202 0.52289 0.86678 0.0
H650 H 0.85079 0.53046 0.89038 0.0
H651 H 0.76075 0.4295 0.90545 0.0
H652 H 0.72993 0.42108 0.8818 0.0
C653 C 0.64708 0.50543 0.83633 0.0
C654 C 0.61662 0.48392 0.84514 0.0
C655 C 0.67587 0.49853 0.83576 0.0
C656 C 0.67459 0.46999 0.84395 0.0
C657 C 0.64436 0.44864 0.8528 0.0
C658 C 0.61561 0.45546 0.85337 0.0
C659 C 0.70589 0.464 0.84406 0.0
C660 C 0.72276 0.46657 0.85744 0.0
C661 C 0.7206 0.45846 0.83112 0.0
C662 C 0.70204 0.45269 0.81689 0.0
C663 C 0.66537 0.42544 0.81533 0.0
C664 C 0.64776 0.42035 0.80197 0.0
C665 C 0.66661 0.44217 0.79004 0.0
C666 C 0.70314 0.46906 0.79144 0.0
C667 C 0.72087 0.4743 0.80479 0.0
C668 C 0.84483 0.44748 0.85932 0.0
C669 C 0.87514 0.4813 0.85568 0.0
C670 C 0.81039 0.43836 0.85428 0.0
C671 C 0.80598 0.46308 0.84563 0.0
C672 C 0.83669 0.49444 0.84037 0.0
C673 C 0.87117 0.50358 0.8454 0.0
C674 C 0.77048 0.46125 0.84521 0.0
C675 C 0.75316 0.45763 0.83183 0.0
C676 C 0.75501 0.46561 0.85816 0.0
C677 C 0.77298 0.47118 0.8725 0.0
C678 C 0.80704 0.50224 0.87511 0.0
C679 C 0.8244 0.50669 0.88849 0.0
C680 C 0.80776 0.48044 0.8994 0.0
C681 C 0.77364 0.44977 0.89697 0.0
C682 C 0.75621 0.44515 0.88359 0.0
H683 H 0.82128 0.48389 0.90974 0.0
H684 H 0.65293 0.4382 0.77971 0.0
H685 H 0.08367 0.6819 0.18211 0.0
H686 H 0.1416 0.7367 0.18737 0.0
H687 H 0.18358 0.72736 0.14579 0.0
H688 H 0.12597 0.67243 0.14049 0.0
H689 H 0.22295 0.72526 0.16823 0.0
H690 H 0.17566 0.80109 0.15325 0.0
H691 H 0.13178 0.82283 0.15252 0.0
H692 H 0.14776 0.84738 0.1982 0.0
H693 H 0.19137 0.82529 0.19926 0.0
H694 H 0.39919 0.86912 0.18363 0.0
H695 H 0.34041 0.83379 0.17164 0.0
H696 H 0.2863 0.83936 0.21052 0.0
H697 H 0.34507 0.87638 0.22233 0.0
H698 H 0.25453 0.84728 0.18693 0.0
H699 H 0.29362 0.76448 0.20295 0.0
H700 H 0.33524 0.74011 0.20491 0.0
H701 H 0.33175 0.72572 0.15854 0.0
H702 H 0.29046 0.75049 0.15629 0.0
C703 C 0.10483 0.69211 0.1739 0.0
C704 C 0.10052 0.67245 0.16101 0.0
C705 C 0.13789 0.72354 0.1769 0.0
C706 C 0.16688 0.73589 0.16699 0.0
C707 C 0.16154 0.7181 0.15359 0.0
C708 C 0.12862 0.68668 0.15061 0.0
C709 C 0.20404 0.76326 0.17157 0.0
C710 C 0.23012 0.75231 0.17198 0.0
C711 C 0.21284 0.79793 0.17694 0.0
C712 C 0.18662 0.81126 0.17635 0.0
C713 C 0.16961 0.81083 0.16317 0.0
C714 C 0.14482 0.82329 0.16269 0.0
C715 C 0.13693 0.83641 0.17531 0.0
C716 C 0.15388 0.83719 0.18843 0.0
C717 C 0.17868 0.82475 0.18897 0.0
C718 C 0.37484 0.86334 0.18956 0.0
C719 C 0.37679 0.87528 0.20399 0.0
C720 C 0.34126 0.84292 0.18272 0.0
C721 C 0.30902 0.83359 0.19027 0.0
C722 C 0.31089 0.84622 0.20452 0.0
C723 C 0.34446 0.86692 0.21132 0.0
C724 C 0.27325 0.80914 0.18359 0.0
C725 C 0.24746 0.8205 0.1829 0.0
C726 C 0.26439 0.77452 0.17811 0.0
C727 C 0.28933 0.75976 0.17944 0.0
C728 C 0.30199 0.75642 0.19316 0.0
C729 C 0.32547 0.74248 0.19433 0.0
C730 C 0.33623 0.73149 0.18185 0.0
C731 C 0.32346 0.73433 0.16819 0.0
C732 C 0.30002 0.7483 0.16696 0.0
H733 H 0.35438 0.72067 0.18278 0.0
H734 H 0.11774 0.84605 0.17492 0.0
H735 H 0.54658 0.15261 0.4914 0.0
H736 H 0.55519 0.21262 0.49725 0.0
H737 H 0.44056 0.16395 0.50622 0.0
H738 H 0.43159 0.10375 0.49971 0.0
H739 H 0.47706 0.23961 0.49504 0.0
H740 H 0.48889 0.1655 0.53317 0.0
H741 H 0.51379 0.12767 0.54212 0.0
H742 H 0.62237 0.2174 0.53637 0.0
H743 H 0.59807 0.25559 0.5272 0.0
H744 H 0.48131 0.35985 0.54907 0.0
H745 H 0.47045 0.3065 0.53494 0.0
H746 H 0.58535 0.34352 0.53583 0.0
H747 H 0.59597 0.39624 0.55048 0.0
H748 H 0.5497 0.27483 0.54059 0.0
H749 H 0.54132 0.35159 0.50485 0.0
H750 H 0.52011 0.39059 0.49387 0.0
H751 H 0.41082 0.3001 0.49295 0.0
H752 H 0.4313 0.26065 0.50412 0.0
C753 C 0.52307 0.15503 0.49405 0.0
C754 C 0.48854 0.12393 0.49528 0.0
C755 C 0.52799 0.18917 0.49737 0.0
C756 C 0.49866 0.19236 0.50246 0.0
C757 C 0.46347 0.16183 0.50232 0.0
C758 C 0.45838 0.12759 0.49865 0.0
C759 C 0.50597 0.22547 0.51044 0.0
C760 C 0.49258 0.24729 0.50508 0.0
C761 C 0.5271 0.23571 0.5233 0.0
C762 C 0.54168 0.21332 0.52946 0.0
C763 C 0.51807 0.17713 0.53381 0.0
C764 C 0.53207 0.15562 0.5389 0.0
C765 C 0.56964 0.17012 0.5398 0.0
C766 C 0.59328 0.20622 0.53568 0.0
C767 C 0.57941 0.22783 0.53057 0.0
C768 C 0.50415 0.35643 0.54625 0.0
C769 C 0.53944 0.38195 0.55079 0.0
C770 C 0.49801 0.32618 0.53809 0.0
C771 C 0.52719 0.32144 0.53404 0.0
C772 C 0.56244 0.34672 0.53878 0.0
C773 C 0.5685 0.37669 0.54716 0.0
C774 C 0.52077 0.28949 0.52527 0.0
C775 C 0.53427 0.26758 0.53053 0.0
C776 C 0.50025 0.27964 0.51221 0.0
C777 C 0.4878 0.30325 0.50546 0.0
C778 C 0.51271 0.34007 0.50241 0.0
C779 C 0.50083 0.36224 0.49614 0.0
C780 C 0.46413 0.34785 0.49275 0.0
C781 C 0.43924 0.31122 0.4956 0.0
C782 C 0.45098 0.28893 0.50189 0.0
H783 H 0.45498 0.36506 0.48788 0.0
H784 H 0.58043 0.15339 0.5437 0.0
H785 H 0.40072 0.52802 0.86854 0.0
H786 H 0.35591 0.54719 0.86928 0.0
H787 H 0.32184 0.50686 0.82563 0.0
H788 H 0.36793 0.48823 0.8246 0.0
H789 H 0.33243 0.57515 0.82896 0.0
H790 H 0.2663 0.46241 0.85406 0.0
H791 H 0.25627 0.41455 0.87175 0.0
H792 H 0.27749 0.48898 0.90704 0.0
H793 H 0.28816 0.53747 0.88955 0.0
H794 H 0.16515 0.58134 0.84676 0.0
H795 H 0.20957 0.56573 0.83786 0.0
H796 H 0.28396 0.63102 0.87168 0.0
H797 H 0.2405 0.64855 0.88028 0.0
H798 H 0.24748 0.54525 0.87057 0.0
H799 H 0.31844 0.65905 0.84441 0.0
H800 H 0.32745 0.70558 0.82622 0.0
H801 H 0.29328 0.62564 0.79221 0.0
H802 H 0.28355 0.57847 0.81025 0.0
C803 C 0.38348 0.5227 0.85912 0.0
C804 C 0.38789 0.50655 0.8465 0.0
C805 C 0.3577 0.53356 0.8596 0.0
C806 C 0.33528 0.52805 0.84758 0.0
C807 C 0.33885 0.51116 0.83504 0.0
C808 C 0.36493 0.5003 0.83452 0.0
C809 C 0.30961 0.54185 0.84813 0.0
C810 C 0.31326 0.56804 0.83787 0.0
C811 C 0.28499 0.53288 0.85987 0.0
C812 C 0.27821 0.50365 0.87047 0.0
C813 C 0.26904 0.46865 0.86559 0.0
C814 C 0.26321 0.44139 0.87558 0.0
C815 C 0.26629 0.44873 0.89051 0.0
C816 C 0.27511 0.48333 0.89547 0.0
C817 C 0.28098 0.5107 0.88552 0.0
C818 C 0.19158 0.59393 0.85191 0.0
C819 C 0.19898 0.61575 0.86444 0.0
C820 C 0.21687 0.58478 0.84681 0.0
C821 C 0.24974 0.59712 0.85418 0.0
C822 C 0.25859 0.62135 0.86587 0.0
C823 C 0.23359 0.63101 0.87085 0.0
C824 C 0.27112 0.57913 0.85167 0.0
C825 C 0.26635 0.55194 0.86156 0.0
C826 C 0.29421 0.58689 0.83952 0.0
C827 C 0.29973 0.61513 0.82871 0.0
C828 C 0.31237 0.65128 0.83308 0.0
C829 C 0.31775 0.6778 0.82279 0.0
C830 C 0.3108 0.66854 0.80807 0.0
C831 C 0.29856 0.63275 0.80361 0.0
C832 C 0.29313 0.60612 0.81387 0.0
H833 H 0.31501 0.68912 0.80012 0.0
H834 H 0.2618 0.4276 0.89823 0.0
H835 H 0.86516 0.40567 0.14213 0.0
H836 H 0.81615 0.34259 0.14545 0.0
H837 H 0.88135 0.32558 0.17694 0.0
H838 H 0.93046 0.38784 0.17349 0.0
H839 H 0.84636 0.26766 0.15985 0.0
H840 H 0.8163 0.34847 0.18676 0.0
H841 H 0.80254 0.39824 0.18892 0.0
H842 H 0.71261 0.3423 0.15959 0.0
H843 H 0.72613 0.29239 0.15713 0.0
H844 H 0.73338 0.13791 0.21145 0.0
H845 H 0.77619 0.19191 0.19765 0.0
H846 H 0.68921 0.17915 0.16965 0.0
H847 H 0.64606 0.12565 0.18364 0.0
H848 H 0.72905 0.24794 0.17941 0.0
H849 H 0.75258 0.16178 0.15633 0.0
H850 H 0.76563 0.1115 0.15476 0.0
H851 H 0.86703 0.17662 0.1769 0.0
H852 H 0.85437 0.22714 0.17881 0.0
C853 C 0.86919 0.38834 0.14963 0.0
C854 C 0.9016 0.4019 0.15764 0.0
C855 C 0.84113 0.35237 0.15154 0.0
C856 C 0.84499 0.32961 0.16158 0.0
C857 C 0.87782 0.34269 0.16913 0.0
C858 C 0.90584 0.37841 0.16718 0.0
C859 C 0.81452 0.29276 0.16498 0.0
C860 C 0.82069 0.26329 0.16414 0.0
C861 C 0.7806 0.28692 0.17011 0.0
C862 C 0.77253 0.31695 0.17161 0.0
C863 C 0.79378 0.34693 0.18069 0.0
C864 C 0.78598 0.37514 0.18198 0.0
C865 C 0.75679 0.3735 0.17436 0.0
C866 C 0.73526 0.34358 0.16546 0.0
C867 C 0.74298 0.31533 0.16411 0.0
C868 C 0.72343 0.14656 0.20233 0.0
C869 C 0.68642 0.12757 0.19861 0.0
C870 C 0.74793 0.17716 0.19437 0.0
C871 C 0.73588 0.18922 0.18253 0.0
C872 C 0.69904 0.1701 0.17869 0.0
C873 C 0.67452 0.13944 0.18663 0.0
C874 C 0.76151 0.22317 0.17483 0.0
C875 C 0.75436 0.25204 0.17482 0.0
C876 C 0.79455 0.22848 0.16895 0.0
C877 C 0.8024 0.19821 0.16778 0.0
C878 C 0.77755 0.16531 0.16096 0.0
C879 C 0.7849 0.13677 0.15999 0.0
C880 C 0.81711 0.14084 0.16574 0.0
C881 C 0.84209 0.1735 0.17245 0.0
C882 C 0.83486 0.20213 0.17346 0.0
H883 H 0.82275 0.11871 0.16498 0.0
H884 H 0.75082 0.39536 0.17537 0.0
H885 H 0.0514 0.59144 0.09916 0.0
H886 H 0.0511 0.59484 0.07263 0.0
H887 H 0.9399 0.50676 0.07183 0.0
H888 H 0.93981 0.50317 0.09846 0.0
H889 H 0.98586 0.49811 0.0522 0.0
H890 H 0.95511 0.58867 0.06522 0.0
H891 H 0.96238 0.64277 0.07821 0.0
H892 H 0.06707 0.70858 0.05836 0.0
H893 H 0.06066 0.65473 0.04542 0.0
H894 H 0.96223 0.51486 0.97677 0.0
H895 H 0.95484 0.51106 0.00318 0.0
H896 H 0.05964 0.60827 0.00793 0.0
H897 H 0.06636 0.61343 0.98149 0.0
H898 H 0.01275 0.61086 0.02572 0.0
H899 H 0.0464 0.52148 0.01395 0.0
H900 H 0.04161 0.46792 0.00136 0.0
H901 H 0.9347 0.40061 0.01915 0.0
H902 H 0.93867 0.4539 0.0317 0.0
C903 C 0.02679 0.57284 0.09338 0.0
C904 C -0.00439 0.54702 0.10093 0.0
C905 C 0.02665 0.57494 0.07822 0.0
C906 C -0.00459 0.5512 0.07031 0.0
C907 C 0.96424 0.52535 0.07777 0.0
C908 C 0.96422 0.52345 0.09297 0.0
C909 C -0.00417 0.5529 0.05422 0.0
C910 C 0.9911 0.52251 0.04636 0.0
C911 C 0.00363 0.5851 0.04671 0.0
C912 C 0.00753 0.61758 0.05445 0.0
C913 C 0.97981 0.61461 0.06372 0.0
C914 C 0.98376 0.64525 0.07106 0.0
C915 C 0.0152 0.67908 0.06914 0.0
C916 C 0.04274 0.68235 0.05985 0.0
C917 C 0.03895 0.65179 0.0525 0.0
C918 C 0.98352 0.53574 0.98341 0.0
C919 C 0.01494 0.56444 0.97698 0.0
C920 C 0.97944 0.53326 -0.00147 0.0
C921 C 0.00692 0.55907 0.00755 0.0
C922 C 0.03813 0.58794 0.00118 0.0
C923 C 0.04211 0.59063 0.98606 0.0
C924 C 0.00316 0.55615 0.02363 0.0
C925 C 0.00727 0.58633 0.03151 0.0
C926 C 0.99514 0.52384 0.03117 0.0
C927 C 0.99268 0.49176 0.02363 0.0
C928 C 0.02175 0.49532 0.01508 0.0
C929 C 0.01921 0.46499 0.00797 0.0
C930 C 0.98783 0.4309 0.00942 0.0
C931 C 0.95897 0.42705 0.01802 0.0
C932 C 0.96136 0.45729 0.02514 0.0
H933 H 0.98592 0.40746 0.00391 0.0
H934 H 0.0182 0.70277 0.07482 0.0
H935 H 0.54675 0.00346 0.44053 0.0
H936 H 0.55385 0.00699 0.41412 0.0
H937 H 0.4554 0.01168 0.40974 0.0
H938 H 0.448 0.00828 0.43627 0.0
H939 H 0.4596 0.96167 0.39088 0.0
H940 H 0.5321 0.08676 0.40484 0.0
H941 H 0.579 0.13839 0.41894 0.0
H942 H 0.66075 0.11674 0.40243 0.0
H943 H 0.61422 0.06459 0.38838 0.0
H944 H 0.48287 0.00326 0.31586 0.0
H945 H 0.47527 0.00752 0.34203 0.0
H946 H 0.57805 0.01336 0.34984 0.0
H947 H 0.58596 0.00944 0.32359 0.0
H948 H 0.5701 0.06031 0.36698 0.0
H949 H 0.49831 0.93372 0.35432 0.0
H950 H 0.452 0.88086 0.34056 0.0
H951 H 0.36963 0.90396 0.35499 0.0
H952 H 0.41558 0.95731 0.36868 0.0
C953 C 0.52652 0.00519 0.43398 0.0
C954 C 0.49679 0.0056 0.44051 0.0
C955 C 0.53076 0.00741 0.4189 0.0
C956 C 0.50534 0.00995 0.41004 0.0
C957 C 0.47536 0.00988 0.41644 0.0
C958 C 0.47124 0.00801 0.43158 0.0
C959 C 0.50992 0.01195 0.39405 0.0
C960 C 0.48342 0.98355 0.3856 0.0
C961 C 0.54149 0.04006 0.38729 0.0
C962 C 0.5696 0.07155 0.39566 0.0
C963 C 0.56003 0.09281 0.4043 0.0
C964 C 0.58656 0.12221 0.41227 0.0
C965 C 0.62282 0.13079 0.41161 0.0
C966 C 0.63264 0.11004 0.40295 0.0
C967 C 0.6062 0.08058 0.39496 0.0
C968 C 0.50383 0.00542 0.32317 0.0
C969 C 0.53482 0.0056 0.31773 0.0
C970 C 0.49947 0.00788 0.3381 0.0
C971 C 0.5258 0.01012 0.34788 0.0
C972 C 0.55738 0.01157 0.34246 0.0
C973 C 0.56188 0.00935 0.32749 0.0
C974 C 0.51987 0.00988 0.36379 0.0
C975 C 0.54614 0.03857 0.37223 0.0
C976 C 0.48817 0.98189 0.37057 0.0
C977 C 0.46046 0.94973 0.3624 0.0
C978 C 0.47037 0.9277 0.35447 0.0
C979 C 0.44418 0.89762 0.3467 0.0
C980 C 0.40791 0.88911 0.34687 0.0
C981 C 0.39774 0.91062 0.35485 0.0
C982 C 0.42385 0.94076 0.36262 0.0
H983 H 0.38767 0.86581 0.34085 0.0
H984 H 0.64332 0.15356 0.41779 0.0
H985 H 0.4594 0.4937 0.78323 0.0
H986 H 0.46832 0.50092 0.75685 0.0
H987 H 0.5809 0.53153 0.76224 0.0
H988 H 0.57253 0.52562 0.78856 0.0
H989 H 0.57673 0.57479 0.74359 0.0
H990 H 0.51464 0.44527 0.75006 0.0
H991 H 0.46579 0.38541 0.75861 0.0
H992 H 0.38795 0.39753 0.73315 0.0
H993 H 0.43629 0.45772 0.72461 0.0
H994 H 0.61306 0.5453 0.67033 0.0
H995 H 0.60237 0.53907 0.69672 0.0
H996 H 0.49826 0.53127 0.69041 0.0
H997 H 0.50884 0.53764 0.66407 0.0
H998 H 0.49719 0.47688 0.70916 0.0
H999 H 0.56249 0.60718 0.7024 0.0
H1000 H 0.61337 0.66564 0.6937 0.0
H1001 H 0.68792 0.64953 0.7197 0.0
H1002 H 0.63752 0.59068 0.72839 0.0
C1003 C 0.48602 0.5019 0.77878 0.0
C1004 C 0.51525 0.50908 0.78797 0.0
C1005 C 0.49105 0.50587 0.7637 0.0
C1006 C 0.52519 0.51635 0.75755 0.0
C1007 C 0.55435 0.52351 0.76673 0.0
C1008 C 0.54948 0.52004 0.78178 0.0
C1009 C 0.53086 0.52035 0.74156 0.0
C1010 C 0.55957 0.55316 0.73609 0.0
C1011 C 0.50813 0.49241 0.73174 0.0
C1012 C 0.47902 0.45617 0.73682 0.0
C1013 C 0.48706 0.43529 0.74638 0.0
C1014 C 0.45947 0.40128 0.7512 0.0
C1015 C 0.42377 0.38772 0.74646 0.0
C1016 C 0.41561 0.4081 0.73684 0.0
C1017 C 0.44309 0.44215 0.73199 0.0
C1018 C 0.58794 0.54226 0.67461 0.0
C1019 C 0.56185 0.54214 0.66523 0.0
C1020 C 0.58193 0.53883 0.68963 0.0
C1021 C 0.5496 0.53486 0.69545 0.0
C1022 C 0.52337 0.53436 0.68609 0.0
C1023 C 0.52956 0.53826 0.6711 0.0
C1024 C 0.54307 0.53109 0.71132 0.0
C1025 C 0.51422 0.4984 0.71672 0.0
C1026 C 0.56597 0.55889 0.72109 0.0
C1027 C 0.59628 0.59435 0.71593 0.0
C1028 C 0.58977 0.61595 0.70616 0.0
C1029 C 0.61852 0.64919 0.70125 0.0
C1030 C 0.65387 0.66125 0.70612 0.0
C1031 C 0.66053 0.64013 0.71593 0.0
C1032 C 0.63188 0.60685 0.72086 0.0
H1033 H 0.67609 0.687 0.7023 0.0
H1034 H 0.40245 0.36138 0.75021 0.0
H1035 H 0.52016 0.05914 0.556 0.0
H1036 H 0.52186 0.05668 0.58255 0.0
H1037 H 0.448 0.9406 0.58138 0.0
H1038 H 0.44561 0.94282 0.55486 0.0
H1039 H 0.43017 0.97148 0.6028 0.0
H1040 H 0.53906 0.97527 0.58617 0.0
H1041 H 0.59649 -0.00018 0.57242 0.0
H1042 H 0.64031 0.10045 0.59605 0.0
H1043 H 0.58293 0.07666 0.6098 0.0
H1044 H 0.46066 0.93224 0.67487 0.0
H1045 H 0.45859 0.93395 0.64825 0.0
H1046 H 0.52951 0.05058 0.64903 0.0
H1047 H 0.53237 0.04896 0.67559 0.0
H1048 H 0.54877 0.01888 0.62782 0.0
H1049 H 0.43958 0.01485 0.64441 0.0
H1050 H 0.38207 0.9901 0.6581 0.0
H1051 H 0.3388 0.88942 0.63455 0.0
H1052 H 0.39628 0.91341 0.62084 0.0
C1053 C 0.50413 0.03308 0.56137 0.0
C1054 C 0.48293 0.00112 0.55328 0.0
C1055 C 0.50526 0.03172 0.57655 0.0
C1056 C 0.48551 -0.00164 0.58392 0.0
C1057 C 0.46355 0.96661 0.57591 0.0
C1058 C 0.46228 0.96794 0.56074 0.0
C1059 C 0.4881 0.99644 0.59997 0.0
C1060 C 0.45605 0.9814 0.60826 0.0
C1061 C 0.52195 0.01002 0.6071 0.0
C1062 C 0.55657 0.0243 0.59892 0.0
C1063 C 0.56085 0.00273 0.58836 0.0
C1064 C 0.59341 0.01649 0.58058 0.0
C1065 C 0.622 0.05171 0.58333 0.0
C1066 C 0.61812 0.0732 0.59391 0.0
C1067 C 0.5856 0.05958 0.60171 0.0
C1068 C 0.47616 0.95817 0.66935 0.0
C1069 C 0.49651 0.9905 0.67732 0.0
C1070 C 0.47471 0.95915 0.65416 0.0
C1071 C 0.49352 0.99246 0.64669 0.0
C1072 C 0.51466 0.02462 0.65459 0.0
C1073 C 0.51605 0.02368 0.66976 0.0
C1074 C 0.49085 0.99396 0.63064 0.0
C1075 C 0.52289 0.00892 0.62236 0.0
C1076 C 0.45699 0.98024 0.62352 0.0
C1077 C 0.42237 0.9658 0.63171 0.0
C1078 C 0.41791 0.98733 0.64223 0.0
C1079 C 0.3853 0.97345 0.64998 0.0
C1080 C 0.35683 0.93817 0.64723 0.0
C1081 C 0.36089 0.91672 0.63668 0.0
C1082 C 0.39347 0.93046 0.62892 0.0
H1083 H 0.3316 0.92748 0.65323 0.0
H1084 H 0.64718 0.06232 0.5773 0.0
H1085 H 0.47258 0.4189 0.89838 0.0
H1086 H 0.46718 0.40819 0.92465 0.0
H1087 H 0.51011 0.52285 0.93227 0.0
H1088 H 0.5149 0.53383 0.90588 0.0
H1089 H 0.54263 0.48453 0.94903 0.0
H1090 H 0.42921 0.47865 0.93776 0.0
H1091 H 0.37251 0.45752 0.92391 0.0
H1092 H 0.33728 0.34691 0.93593 0.0
H1093 H 0.39408 0.36735 0.94968 0.0
H1094 H 0.5056 0.46812 0.02483 0.0
H1095 H 0.51203 0.48432 -0.00097 0.0
H1096 H 0.4386 0.37169 0.988 0.0
H1097 H 0.43116 0.35568 0.01391 0.0
H1098 H 0.42207 0.41229 0.97278 0.0
H1099 H 0.53369 0.41492 0.98302 0.0
H1100 H 0.59087 0.43284 0.99605 0.0
H1101 H 0.63035 0.545 0.98524 0.0
H1102 H 0.57317 0.5278 0.9723 0.0
C1103 C 0.48092 0.44189 0.90563 0.0
C1104 C 0.49417 0.47723 0.90008 0.0
C1105 C 0.47772 0.43568 0.92061 0.0
C1106 C 0.48818 0.46473 0.93031 0.0
C1107 C 0.5019 0.50014 0.92488 0.0
C1108 C 0.50448 0.50632 0.90985 0.0
C1109 C 0.4847 0.45773 0.94614 0.0
C1110 C 0.51635 0.46931 0.95434 0.0
C1111 C 0.45034 0.43686 0.95282 0.0
C1112 C 0.41607 0.42451 0.94463 0.0
C1113 C 0.40954 0.44979 0.93734 0.0
C1114 C 0.37734 0.43794 0.92953 0.0
C1115 C 0.35135 0.40088 0.92901 0.0
C1116 C 0.35746 0.37561 0.93633 0.0
C1117 C 0.38964 0.38731 0.94414 0.0
C1118 C 0.49113 0.44681 0.01687 0.0
C1119 C 0.46808 0.41062 0.02131 0.0
C1120 C 0.49486 0.45606 0.00213 0.0
C1121 C 0.47625 0.42915 0.99153 0.0
C1122 C 0.45324 0.39294 0.99597 0.0
C1123 C 0.44905 0.38378 0.01074 0.0
C1124 C 0.48011 0.43887 0.97583 0.0
C1125 C 0.44847 0.42773 0.96759 0.0
C1126 C 0.51455 0.45968 0.96907 0.0
C1127 C 0.54899 0.47011 0.97682 0.0
C1128 C 0.55445 0.44344 0.98352 0.0
C1129 C 0.58688 0.45346 0.99087 0.0
C1130 C 0.61418 0.49004 0.99151 0.0
C1131 C 0.60915 0.51668 0.98476 0.0
C1132 C 0.57675 0.50681 0.9774 0.0
H1133 H 0.63928 0.49775 0.99721 0.0
H1134 H 0.32644 0.39177 0.92296 0.0
H1135 H 0.00484 0.58018 0.21812 0.0
H1136 H 0.00512 0.57466 0.24459 0.0
H1137 H 0.00731 0.47464 0.2401 0.0
H1138 H 0.00665 0.47966 0.21362 0.0
H1139 H 0.95772 0.46812 0.26006 0.0
H1140 H 0.08307 0.55212 0.24987 0.0
H1141 H 0.13497 0.60719 0.23935 0.0
H1142 H 0.10613 0.67464 0.26422 0.0
H1143 H 0.05372 0.61993 0.27473 0.0
H1144 H -6e-05 0.4563 0.33425 0.0
H1145 H 0.0017 0.46068 0.30766 0.0
H1146 H -0.001 0.56073 0.31041 0.0
H1147 H -0.00311 0.55639 0.33695 0.0
H1148 H 0.05007 0.5664 0.29127 0.0
H1149 H 0.92384 0.48211 0.301 0.0
H1150 H 0.87201 0.42691 0.31147 0.0
H1151 H 0.90284 0.35985 0.28743 0.0
H1152 H 0.95519 0.41471 0.27697 0.0
C1153 C 0.00551 0.55705 0.22274 0.0
C1154 C 0.00577 0.53039 0.21372 0.0
C1155 C 0.00581 0.55402 0.23788 0.0
C1156 C 0.00655 0.5244 0.2443 0.0
C1157 C 0.00676 0.49772 0.23536 0.0
C1158 C 0.0065 0.50073 0.22022 0.0
C1159 C 0.00637 0.52087 0.26036 0.0
C1160 C 0.97822 0.48937 0.26688 0.0
C1161 C 0.0327 0.54893 0.26925 0.0
C1162 C 0.06426 0.5819 0.26298 0.0
C1163 C 0.08761 0.57869 0.253 0.0
C1164 C 0.11716 0.60984 0.24706 0.0
C1165 C 0.12379 0.64439 0.25109 0.0
C1166 C 0.10093 0.64786 0.2611 0.0
C1167 C 0.07132 0.61679 0.26706 0.0
C1168 C -0.00068 0.47902 0.32919 0.0
C1169 C -0.00174 0.506 0.33772 0.0
C1170 C 0.00043 0.48154 0.314 0.0
C1171 C 0.00026 0.51092 0.30707 0.0
C1172 C -0.0007 0.53791 0.31555 0.0
C1173 C -0.00181 0.53543 0.33071 0.0
C1174 C 0.00132 0.51375 0.29097 0.0
C1175 C 0.02964 0.54512 0.28444 0.0
C1176 C 0.97517 0.48555 0.28208 0.0
C1177 C 0.94365 0.45253 0.28832 0.0
C1178 C 0.91975 0.4556 0.29804 0.0
C1179 C 0.89024 0.42437 0.30396 0.0
C1180 C 0.88419 0.3899 0.30015 0.0
C1181 C 0.90759 0.38658 0.29039 0.0
C1182 C 0.93717 0.41772 0.28445 0.0
H1183 H 0.86133 0.36575 0.30474 0.0
H1184 H 0.14668 0.66848 0.24648 0.0
loop_
_geom_bond_atom_site_label_1
_geom_bond_atom_site_label_2
_geom_bond_distance
_geom_bond_site_symmetry_2
_ccdc_geom_bond_type
O0 Zn1 1.954 1_655 S
O0 C16 1.225 1_655 S
Zn1 O0 1.954 1_455 S
Zn1 O2 1.952 . S
Zn1 O8 1.912 1_455 S
Zn1 O13 1.927 . S
O2 Zn1 1.952 . S
O2 Zn3 1.923 1_455 S
O2 Zn4 1.950 . S
O2 Zn5 1.945 . S
Zn3 O2 1.923 1_655 S
Zn3 O6 1.933 . S
Zn3 O9 1.941 . S
Zn3 O10 1.965 . S
Zn4 O2 1.950 . S
Zn4 O11 1.938 1_455 S
Zn4 O12 1.906 . S
Zn4 O22 1.953 . S
Zn5 O2 1.945 . S
Zn5 O7 1.932 . S
Zn5 O14 1.977 . S
Zn5 O15 1.910 . S
O6 Zn3 1.933 . S
O6 C17 1.226 1_655 S
O7 Zn5 1.932 . S
O7 C17 1.307 . S
O8 Zn1 1.912 1_655 S
O8 C19 1.253 . S
O9 Zn3 1.941 . S
O9 C19 1.283 . S
O10 Zn3 1.965 . S
O10 C18 1.303 . S
O11 Zn4 1.938 1_655 S
O11 C18 1.247 . S
O12 Zn4 1.906 . S
O12 C20 1.304 . S
O13 Zn1 1.927 . S
O13 C21 1.311 . S
O14 Zn5 1.977 . S
O14 C20 1.272 . S
O15 Zn5 1.910 . S
O15 C21 1.231 . S
C16 O0 1.225 1_455 S
C16 O22 1.298 . S
C17 O6 1.226 1_455 S
C17 O7 1.307 . S
C18 O10 1.303 . S
C18 O11 1.247 . S
C19 O8 1.253 . S
C19 O9 1.283 . S
C20 O12 1.304 . S
C20 O14 1.272 . S
C21 O13 1.311 . S
C21 O15 1.231 . S
O22 Zn4 1.953 . S
O22 C16 1.298 . S
O23 Zn24 1.953 . S
O23 C39 1.225 . S
Zn24 O23 1.953 . S
Zn24 O25 1.949 . S
Zn24 O31 1.919 . S
Zn24 O36 1.924 1_545 S
O25 Zn24 1.949 . S
O25 Zn26 1.923 . S
O25 Zn27 1.950 1_545 S
O25 Zn28 1.945 1_545 S
Zn26 O25 1.923 . S
Zn26 O29 1.933 . S
Zn26 O32 1.941 . S
Zn26 O33 1.965 . S
Zn27 O25 1.950 1_565 S
Zn27 O34 1.938 1_565 S
Zn27 O35 1.906 . S
Zn27 O45 1.953 . S
Zn28 O25 1.945 1_565 S
Zn28 O30 1.932 . S
Zn28 O37 1.977 . S
Zn28 O38 1.910 . S
O29 Zn26 1.933 . S
O29 C40 1.226 . S
O30 Zn28 1.932 . S
O30 C40 1.307 1_565 S
O31 Zn24 1.919 . S
O31 C42 1.253 . S
O32 Zn26 1.941 . S
O32 C42 1.283 . S
O33 Zn26 1.965 . S
O33 C41 1.303 . S
O34 Zn27 1.938 1_545 S
O34 C41 1.247 . S
O35 Zn27 1.906 . S
O35 C43 1.304 . S
O36 Zn24 1.924 1_565 S
O36 C44 1.311 . S
O37 Zn28 1.977 . S
O37 C43 1.272 . S
O38 Zn28 1.910 . S
O38 C44 1.231 . S
C39 O23 1.225 . S
C39 O45 1.298 1_545 S
C40 O29 1.226 . S
C40 O30 1.307 1_545 S
C41 O33 1.303 . S
C41 O34 1.247 . S
C42 O31 1.253 . S
C42 O32 1.283 . S
C43 O35 1.304 . S
C43 O37 1.272 . S
C44 O36 1.311 . S
C44 O38 1.231 . S
O45 Zn27 1.953 . S
O45 C39 1.298 1_565 S
O46 Zn47 1.953 . S
O46 C62 1.225 . S
Zn47 O46 1.953 . S
Zn47 O48 1.949 . S
Zn47 O54 1.919 . S
Zn47 O59 1.924 . S
O48 Zn47 1.949 . S
O48 Zn49 1.923 . S
O48 Zn50 1.950 . S
O48 Zn51 1.945 . S
Zn49 O48 1.923 . S
Zn49 O52 1.933 . S
Zn49 O55 1.941 . S
Zn49 O56 1.965 . S
Zn50 O48 1.950 . S
Zn50 O57 1.938 . S
Zn50 O58 1.906 . S
Zn50 O68 1.953 . S
Zn51 O48 1.945 . S
Zn51 O53 1.932 . S
Zn51 O60 1.977 . S
Zn51 O61 1.910 . S
O52 Zn49 1.933 . S
O52 C63 1.226 . S
O53 Zn51 1.932 . S
O53 C63 1.307 . S
O54 Zn47 1.919 . S
O54 C65 1.253 . S
O55 Zn49 1.941 . S
O55 C65 1.283 . S
O56 Zn49 1.965 . S
O56 C64 1.303 . S
O57 Zn50 1.938 . S
O57 C64 1.247 . S
O58 Zn50 1.906 . S
O58 C66 1.304 . S
O59 Zn47 1.924 . S
O59 C67 1.311 . S
O60 Zn51 1.977 . S
O60 C66 1.272 . S
O61 Zn51 1.910 . S
O61 C67 1.231 . S
C62 O46 1.225 . S
C62 O68 1.298 . S
C63 O52 1.226 . S
C63 O53 1.307 . S
C64 O56 1.303 . S
C64 O57 1.247 . S
C65 O54 1.253 . S
C65 O55 1.283 . S
C66 O58 1.304 . S
C66 O60 1.272 . S
C67 O59 1.311 . S
C67 O61 1.231 . S
O68 Zn50 1.953 . S
O68 C62 1.298 . S
C69 C70 1.384 . S
C69 H82 0.947 . S
C69 C104 1.382 . S
C70 C69 1.384 . S
C70 C71 1.378 . S
C71 C70 1.378 . S
C71 C72 1.378 . S
C71 H83 0.952 . S
C72 C71 1.378 . S
C72 H84 0.950 . S
C72 C103 1.383 . S
H73 C92 0.947 . S
H74 C93 0.946 . S
H75 C95 0.953 . S
H76 C96 0.945 . S
H77 C98 0.952 . S
H78 C99 0.949 . S
H79 C101 0.950 . S
H80 C102 0.948 . S
H81 C104 0.951 . S
H82 C69 0.947 . S
H83 C71 0.952 . S
H84 C72 0.950 . S
N85 C88 1.382 . S
N85 C90 1.363 1_545 S
N86 C88 1.371 . S
N86 C89 1.372 . S
N87 C89 1.361 1_565 S
N87 C90 1.377 . S
C88 N85 1.382 . S
C88 N86 1.371 . S
C88 C91 1.480 . S
C89 N86 1.372 . S
C89 N87 1.361 1_545 S
C89 C97 1.457 . S
C90 N85 1.363 1_565 S
C90 N87 1.377 . S
C90 C103 1.479 . S
C91 C88 1.480 . S
C91 C92 1.383 . S
C91 C96 1.385 . S
C92 H73 0.947 . S
C92 C91 1.383 . S
C92 C93 1.388 . S
C93 H74 0.946 . S
C93 C92 1.388 . S
C93 C94 1.384 . S
C94 C93 1.384 . S
C94 C95 1.377 . S
C95 H75 0.953 . S
C95 C94 1.377 . S
C95 C96 1.369 . S
C96 H76 0.945 . S
C96 C91 1.385 . S
C96 C95 1.369 . S
C97 C89 1.457 . S
C97 C98 1.372 . S
C97 C102 1.364 1_545 S
C98 H77 0.952 . S
C98 C97 1.372 . S
C98 C99 1.389 . S
C99 H78 0.949 . S
C99 C98 1.389 . S
C99 C100 1.387 . S
C100 C99 1.387 . S
C100 C101 1.372 1_545 S
C101 H79 0.950 . S
C101 C100 1.372 1_565 S
C101 C102 1.379 . S
C102 H80 0.948 . S
C102 C97 1.364 1_565 S
C102 C101 1.379 . S
C103 C72 1.383 . S
C103 C90 1.479 . S
C103 C104 1.398 . S
C104 C69 1.382 . S
C104 H81 0.951 . S
C104 C103 1.398 . S
C105 C106 1.384 . S
C105 H118 0.947 . S
C105 C140 1.382 . S
C106 C105 1.384 . S
C106 C107 1.378 . S
C107 C106 1.378 . S
C107 C108 1.378 . S
C107 H119 0.952 . S
C108 C107 1.378 . S
C108 H120 0.950 . S
C108 C139 1.383 . S
H109 C128 0.947 . S
H110 C129 0.946 . S
H111 C131 0.953 . S
H112 C132 0.945 . S
H113 C134 0.952 . S
H114 C135 0.949 . S
H115 C137 0.950 . S
H116 C138 0.948 . S
H117 C140 0.951 . S
H118 C105 0.947 . S
H119 C107 0.952 . S
H120 C108 0.950 . S
N121 C124 1.382 . S
N121 C126 1.363 . S
N122 C124 1.371 . S
N122 C125 1.372 . S
N123 C125 1.361 . S
N123 C126 1.377 . S
C124 N121 1.382 . S
C124 N122 1.371 . S
C124 C127 1.480 . S
C125 N122 1.372 . S
C125 N123 1.361 . S
C125 C133 1.457 . S
C126 N121 1.363 . S
C126 N123 1.377 . S
C126 C139 1.479 . S
C127 C124 1.480 . S
C127 C128 1.383 . S
C127 C132 1.385 . S
C128 H109 0.947 . S
C128 C127 1.383 . S
C128 C129 1.388 . S
C129 H110 0.946 . S
C129 C128 1.388 . S
C129 C130 1.384 . S
C130 C129 1.384 . S
C130 C131 1.377 . S
C131 H111 0.953 . S
C131 C130 1.377 . S
C131 C132 1.369 . S
C132 H112 0.945 . S
C132 C127 1.385 . S
C132 C131 1.369 . S
C133 C125 1.457 . S
C133 C134 1.372 . S
C133 C138 1.364 . S
C134 H113 0.952 . S
C134 C133 1.372 . S
C134 C135 1.389 . S
C135 H114 0.949 . S
C135 C134 1.389 . S
C135 C136 1.387 . S
C136 C135 1.387 . S
C136 C137 1.372 . S
C137 H115 0.950 . S
C137 C136 1.372 . S
C137 C138 1.379 . S
C138 H116 0.948 . S
C138 C133 1.364 . S
C138 C137 1.379 . S
C139 C108 1.383 . S
C139 C126 1.479 . S
C139 C140 1.398 . S
C140 C105 1.382 . S
C140 H117 0.951 . S
C140 C139 1.398 . S
C141 C142 1.384 . S
C141 H154 0.947 . S
C141 C176 1.382 . S
C142 C141 1.384 . S
C142 C143 1.378 . S
C143 C142 1.378 . S
C143 C144 1.378 . S
C143 H155 0.952 . S
C144 C143 1.378 . S
C144 H156 0.950 . S
C144 C175 1.383 . S
H145 C164 0.947 . S
H146 C165 0.946 . S
H147 C167 0.953 . S
H148 C168 0.945 . S
H149 C170 0.952 . S
H150 C171 0.949 . S
H151 C173 0.950 . S
H152 C174 0.948 . S
H153 C176 0.951 . S
H154 C141 0.947 . S
H155 C143 0.952 . S
H156 C144 0.950 . S
N157 C160 1.382 . S
N157 C162 1.363 1_455 S
N158 C160 1.371 . S
N158 C161 1.372 . S
N159 C161 1.361 1_655 S
N159 C162 1.377 . S
C160 N157 1.382 . S
C160 N158 1.371 . S
C160 C163 1.480 . S
C161 N158 1.372 . S
C161 N159 1.361 1_455 S
C161 C169 1.457 . S
C162 N157 1.363 1_655 S
C162 N159 1.377 . S
C162 C175 1.479 . S
C163 C160 1.480 . S
C163 C164 1.383 . S
C163 C168 1.385 . S
C164 H145 0.947 . S
C164 C163 1.383 . S
C164 C165 1.388 . S
C165 H146 0.946 . S
C165 C164 1.388 . S
C165 C166 1.384 . S
C166 C165 1.384 . S
C166 C167 1.377 . S
C167 H147 0.953 . S
C167 C166 1.377 . S
C167 C168 1.369 . S
C168 H148 0.945 . S
C168 C163 1.385 . S
C168 C167 1.369 . S
C169 C161 1.457 . S
C169 C170 1.372 . S
C169 C174 1.364 1_455 S
C170 H149 0.952 . S
C170 C169 1.372 . S
C170 C171 1.389 . S
C171 H150 0.949 . S
C171 C170 1.389 . S
C171 C172 1.387 . S
C172 C171 1.387 . S
C172 C173 1.372 1_455 S
C173 H151 0.950 . S
C173 C172 1.372 1_655 S
C173 C174 1.379 . S
C174 H152 0.948 . S
C174 C169 1.364 1_655 S
C174 C173 1.379 . S
C175 C144 1.383 . S
C175 C162 1.479 . S
C175 C176 1.398 . S
C176 C141 1.382 . S
C176 H153 0.951 . S
C176 C175 1.398 . S
C177 C178 1.384 . S
C177 H190 0.947 . S
C177 C212 1.382 . S
C178 C177 1.384 . S
C178 C179 1.378 . S
C179 C178 1.378 . S
C179 C180 1.378 . S
C179 H191 0.952 . S
C180 C179 1.378 . S
C180 H192 0.950 . S
C180 C211 1.383 . S
H181 C200 0.947 . S
H182 C201 0.946 . S
H183 C203 0.953 . S
H184 C204 0.945 . S
H185 C206 0.952 . S
H186 C207 0.949 . S
H187 C209 0.950 . S
H188 C210 0.948 . S
H189 C212 0.951 . S
H190 C177 0.947 . S
H191 C179 0.952 . S
H192 C180 0.950 . S
N193 C196 1.382 1_455 S
N193 C198 1.363 . S
N194 C196 1.371 . S
N194 C197 1.372 1_655 S
N195 C197 1.361 . S
N195 C198 1.377 . S
C196 N193 1.382 1_655 S
C196 N194 1.371 . S
C196 C199 1.480 . S
C197 N194 1.372 1_455 S
C197 N195 1.361 . S
C197 C205 1.457 . S
C198 N193 1.363 . S
C198 N195 1.377 . S
C198 C211 1.479 . S
C199 C196 1.480 . S
C199 C200 1.383 . S
C199 C204 1.385 . S
C200 H181 0.947 . S
C200 C199 1.383 . S
C200 C201 1.388 . S
C201 H182 0.946 . S
C201 C200 1.388 . S
C201 C202 1.384 . S
C202 C201 1.384 . S
C202 C203 1.377 . S
C203 H183 0.953 . S
C203 C202 1.377 . S
C203 C204 1.369 . S
C204 H184 0.945 . S
C204 C199 1.385 . S
C204 C203 1.369 . S
C205 C197 1.457 . S
C205 C206 1.372 1_455 S
C205 C210 1.364 . S
C206 H185 0.952 . S
C206 C205 1.372 1_655 S
C206 C207 1.389 . S
C207 H186 0.949 . S
C207 C206 1.389 . S
C207 C208 1.387 1_655 S
C208 C207 1.387 1_455 S
C208 C209 1.372 . S
C209 H187 0.950 . S
C209 C208 1.372 . S
C209 C210 1.379 . S
C210 H188 0.948 . S
C210 C205 1.364 . S
C210 C209 1.379 . S
C211 C180 1.383 . S
C211 C198 1.479 . S
C211 C212 1.398 . S
C212 C177 1.382 . S
C212 H189 0.951 . S
C212 C211 1.398 . S
C213 C214 1.384 . S
C213 H226 0.947 . S
C213 C248 1.382 . S
C214 C213 1.384 . S
C214 C215 1.378 . S
C215 C214 1.378 . S
C215 C216 1.378 . S
C215 H227 0.952 . S
C216 C215 1.378 . S
C216 H228 0.950 . S
C216 C247 1.383 . S
H217 C236 0.947 . S
H218 C237 0.946 . S
H219 C239 0.953 . S
H220 C240 0.945 . S
H221 C242 0.952 . S
H222 C243 0.949 . S
H223 C245 0.950 . S
H224 C246 0.948 . S
H225 C248 0.951 . S
H226 C213 0.947 . S
H227 C215 0.952 . S
H228 C216 0.950 . S
N229 C232 1.382 1_545 S
N229 C234 1.363 . S
N230 C232 1.371 . S
N230 C233 1.372 1_565 S
N231 C233 1.361 . S
N231 C234 1.377 . S
C232 N229 1.382 1_565 S
C232 N230 1.371 . S
C232 C235 1.480 . S
C233 N230 1.372 1_545 S
C233 N231 1.361 . S
C233 C241 1.457 . S
C234 N229 1.363 . S
C234 N231 1.377 . S
C234 C247 1.479 . S
C235 C232 1.480 . S
C235 C236 1.383 . S
C235 C240 1.385 . S
C236 H217 0.947 . S
C236 C235 1.383 . S
C236 C237 1.388 . S
C237 H218 0.946 . S
C237 C236 1.388 . S
C237 C238 1.384 . S
C238 C237 1.384 . S
C238 C239 1.377 . S
C239 H219 0.953 . S
C239 C238 1.377 . S
C239 C240 1.369 . S
C240 H220 0.945 . S
C240 C235 1.385 . S
C240 C239 1.369 . S
C241 C233 1.457 . S
C241 C242 1.372 1_545 S
C241 C246 1.364 . S
C242 H221 0.952 . S
C242 C241 1.372 1_565 S
C242 C243 1.389 . S
C243 H222 0.949 . S
C243 C242 1.389 . S
C243 C244 1.387 1_565 S
C244 C243 1.387 1_545 S
C244 C245 1.372 . S
C245 H223 0.950 . S
C245 C244 1.372 . S
C245 C246 1.379 . S
C246 H224 0.948 . S
C246 C241 1.364 . S
C246 C245 1.379 . S
C247 C216 1.383 . S
C247 C234 1.479 . S
C247 C248 1.398 . S
C248 C213 1.382 . S
C248 H225 0.951 . S
C248 C247 1.398 . S
C249 C250 1.384 . S
C249 H262 0.947 . S
C249 C284 1.382 . S
C250 C249 1.384 . S
C250 C251 1.378 . S
C251 C250 1.378 . S
C251 C252 1.378 . S
C251 H263 0.952 . S
C252 C251 1.378 . S
C252 H264 0.950 . S
C252 C283 1.383 . S
H253 C272 0.947 . S
H254 C273 0.946 . S
H255 C275 0.953 . S
H256 C276 0.945 . S
H257 C278 0.952 . S
H258 C279 0.949 . S
H259 C281 0.950 . S
H260 C282 0.948 . S
H261 C284 0.951 . S
H262 C249 0.947 . S
H263 C251 0.952 . S
H264 C252 0.950 . S
N265 C268 1.382 . S
N265 C270 1.363 . S
N266 C268 1.371 . S
N266 C269 1.372 . S
N267 C269 1.361 . S
N267 C270 1.377 . S
C268 N265 1.382 . S
C268 N266 1.371 . S
C268 C271 1.480 . S
C269 N266 1.372 . S
C269 N267 1.361 . S
C269 C277 1.457 . S
C270 N265 1.363 . S
C270 N267 1.377 . S
C270 C283 1.479 . S
C271 C268 1.480 . S
C271 C272 1.383 . S
C271 C276 1.385 . S
C272 H253 0.947 . S
C272 C271 1.383 . S
C272 C273 1.388 . S
C273 H254 0.946 . S
C273 C272 1.388 . S
C273 C274 1.384 . S
C274 C273 1.384 . S
C274 C275 1.377 . S
C275 H255 0.953 . S
C275 C274 1.377 . S
C275 C276 1.369 . S
C276 H256 0.945 . S
C276 C271 1.385 . S
C276 C275 1.369 . S
C277 C269 1.457 . S
C277 C278 1.372 . S
C277 C282 1.364 . S
C278 H257 0.952 . S
C278 C277 1.372 . S
C278 C279 1.389 . S
C279 H258 0.949 . S
C279 C278 1.389 . S
C279 C280 1.387 . S
C280 C279 1.387 . S
C280 C281 1.372 . S
C281 H259 0.950 . S
C281 C280 1.372 . S
C281 C282 1.379 . S
C282 H260 0.948 . S
C282 C277 1.364 . S
C282 C281 1.379 . S
C283 C252 1.383 . S
C283 C270 1.479 . S
C283 C284 1.398 . S
C284 C249 1.382 . S
C284 H261 0.951 . S
C284 C283 1.398 . S
H285 C303 0.951 . S
H286 C305 0.951 . S
H287 C307 0.950 . S
H288 C308 0.950 . S
H289 C310 0.950 . S
H290 C313 0.950 . S
H291 C314 0.950 . S
H292 C316 0.950 . S
H293 C317 0.950 . S
H294 C318 0.951 . S
H295 C320 0.951 . S
H296 C322 0.950 . S
H297 C323 0.950 . S
H298 C325 0.950 . S
H299 C328 0.950 . S
H300 C329 0.950 . S
H301 C331 0.950 . S
H302 C332 0.950 . S
C303 H285 0.951 . S
C303 C304 1.366 . S
C303 C305 1.388 . S
C304 C303 1.366 . S
C304 C308 1.385 . S
C305 H286 0.951 . S
C305 C303 1.388 . S
C305 C306 1.366 . S
C306 C305 1.366 . S
C306 C307 1.414 . S
C306 C309 1.499 . S
C307 H287 0.950 . S
C307 C306 1.414 . S
C307 C308 1.374 . S
C308 H288 0.950 . S
C308 C304 1.385 . S
C308 C307 1.374 . S
C309 C306 1.499 . S
C309 C310 1.373 . S
C309 C311 1.389 . S
C310 H289 0.950 . S
C310 C309 1.373 . S
C310 C326 1.377 . S
C311 C309 1.389 . S
C311 C312 1.524 . S
C311 C325 1.377 . S
C312 C311 1.524 . S
C312 C313 1.397 . S
C312 C317 1.363 . S
C313 H290 0.950 . S
C313 C312 1.397 . S
C313 C314 1.334 . S
C314 H291 0.950 . S
C314 C313 1.334 . S
C314 C315 1.287 . S
C315 C314 1.287 . S
C315 C316 1.524 . S
C315 H334 0.913 . S
C316 H292 0.950 . S
C316 C315 1.524 . S
C316 C317 1.415 . S
C317 H293 0.950 . S
C317 C312 1.363 . S
C317 C316 1.415 . S
C318 H294 0.951 . S
C318 C319 1.366 . S
C318 C320 1.388 . S
C319 C318 1.366 . S
C319 C323 1.385 . S
C320 H295 0.951 . S
C320 C318 1.388 . S
C320 C321 1.366 . S
C321 C320 1.366 . S
C321 C322 1.414 . S
C321 C324 1.499 . S
C322 H296 0.950 . S
C322 C321 1.414 . S
C322 C323 1.374 . S
C323 H297 0.950 . S
C323 C319 1.385 . S
C323 C322 1.374 . S
C324 C321 1.499 . S
C324 C325 1.373 . S
C324 C326 1.389 . S
C325 H298 0.950 . S
C325 C311 1.377 . S
C325 C324 1.373 . S
C326 C310 1.377 . S
C326 C324 1.389 . S
C326 C327 1.524 . S
C327 C326 1.524 . S
C327 C328 1.397 . S
C327 C332 1.363 . S
C328 H299 0.950 . S
C328 C327 1.397 . S
C328 C329 1.334 . S
C329 H300 0.950 . S
C329 C328 1.334 . S
C329 C330 1.287 . S
C330 C329 1.287 . S
C330 C331 1.524 . S
C330 H333 0.999 . S
C331 H301 0.950 . S
C331 C330 1.524 . S
C331 C332 1.415 . S
C332 H302 0.950 . S
C332 C327 1.363 . S
C332 C331 1.415 . S
H333 C330 0.999 . S
H334 C315 0.913 . S
H335 C353 0.951 . S
H336 C355 0.951 . S
H337 C357 0.950 . S
H338 C358 0.950 . S
H339 C360 0.950 . S
H340 C363 0.950 . S
H341 C364 0.950 . S
H342 C366 0.950 . S
H343 C367 0.950 . S
H344 C368 0.951 . S
H345 C370 0.951 . S
H346 C372 0.950 . S
H347 C373 0.950 . S
H348 C375 0.950 . S
H349 C378 0.950 . S
H350 C379 0.950 . S
H351 C381 0.950 . S
H352 C382 0.950 . S
C353 H335 0.951 . S
C353 C354 1.366 . S
C353 C355 1.388 . S
C354 C353 1.366 . S
C354 C358 1.385 . S
C355 H336 0.951 . S
C355 C353 1.388 . S
C355 C356 1.366 . S
C356 C355 1.366 . S
C356 C357 1.414 . S
C356 C359 1.499 . S
C357 H337 0.950 . S
C357 C356 1.414 . S
C357 C358 1.374 . S
C358 H338 0.950 . S
C358 C354 1.385 . S
C358 C357 1.374 . S
C359 C356 1.499 . S
C359 C360 1.373 . S
C359 C361 1.389 . S
C360 H339 0.950 . S
C360 C359 1.373 . S
C360 C376 1.377 . S
C361 C359 1.389 . S
C361 C362 1.524 . S
C361 C375 1.377 . S
C362 C361 1.524 . S
C362 C363 1.397 . S
C362 C367 1.363 . S
C363 H340 0.950 . S
C363 C362 1.397 . S
C363 C364 1.334 . S
C364 H341 0.950 . S
C364 C363 1.334 . S
C364 C365 1.287 . S
C365 C364 1.287 . S
C365 C366 1.524 . S
C365 H384 0.913 . S
C366 H342 0.950 . S
C366 C365 1.524 . S
C366 C367 1.415 . S
C367 H343 0.950 . S
C367 C362 1.363 . S
C367 C366 1.415 . S
C368 H344 0.951 . S
C368 C369 1.366 . S
C368 C370 1.388 . S
C369 C368 1.366 . S
C369 C373 1.385 . S
C370 H345 0.951 . S
C370 C368 1.388 . S
C370 C371 1.366 . S
C371 C370 1.366 . S
C371 C372 1.414 . S
C371 C374 1.499 . S
C372 H346 0.950 . S
C372 C371 1.414 . S
C372 C373 1.374 . S
C373 H347 0.950 . S
C373 C369 1.385 . S
C373 C372 1.374 . S
C374 C371 1.499 . S
C374 C375 1.373 . S
C374 C376 1.389 . S
C375 H348 0.950 . S
C375 C361 1.377 . S
C375 C374 1.373 . S
C376 C360 1.377 . S
C376 C374 1.389 . S
C376 C377 1.524 . S
C377 C376 1.524 . S
C377 C378 1.397 . S
C377 C382 1.363 . S
C378 H349 0.950 . S
C378 C377 1.397 . S
C378 C379 1.334 . S
C379 H350 0.950 . S
C379 C378 1.334 . S
C379 C380 1.287 . S
C380 C379 1.287 . S
C380 C381 1.524 . S
C380 H383 0.999 . S
C381 H351 0.950 . S
C381 C380 1.524 . S
C381 C382 1.415 . S
C382 H352 0.950 . S
C382 C377 1.363 . S
C382 C381 1.415 . S
H383 C380 0.999 . S
H384 C365 0.913 . S
H385 C403 0.951 . S
H386 C405 0.951 . S
H387 C407 0.950 . S
H388 C408 0.950 . S
H389 C410 0.950 . S
H390 C413 0.950 . S
H391 C414 0.950 . S
H392 C416 0.950 . S
H393 C417 0.950 . S
H394 C418 0.951 . S
H395 C420 0.951 . S
H396 C422 0.950 . S
H397 C423 0.950 . S
H398 C425 0.950 . S
H399 C428 0.950 . S
H400 C429 0.950 . S
H401 C431 0.950 . S
H402 C432 0.950 . S
C403 H385 0.951 . S
C403 C404 1.366 . S
C403 C405 1.388 . S
C404 C403 1.366 . S
C404 C408 1.385 . S
C405 H386 0.951 . S
C405 C403 1.388 . S
C405 C406 1.366 . S
C406 C405 1.366 . S
C406 C407 1.414 . S
C406 C409 1.499 . S
C407 H387 0.950 . S
C407 C406 1.414 . S
C407 C408 1.374 . S
C408 H388 0.950 . S
C408 C404 1.385 . S
C408 C407 1.374 . S
C409 C406 1.499 . S
C409 C410 1.373 . S
C409 C411 1.389 . S
C410 H389 0.950 . S
C410 C409 1.373 . S
C410 C426 1.377 . S
C411 C409 1.389 . S
C411 C412 1.524 . S
C411 C425 1.377 . S
C412 C411 1.524 . S
C412 C413 1.397 . S
C412 C417 1.363 . S
C413 H390 0.950 . S
C413 C412 1.397 . S
C413 C414 1.334 . S
C414 H391 0.950 . S
C414 C413 1.334 . S
C414 C415 1.287 . S
C415 C414 1.287 . S
C415 C416 1.524 . S
C415 H434 0.913 . S
C416 H392 0.950 . S
C416 C415 1.524 . S
C416 C417 1.415 . S
C417 H393 0.950 . S
C417 C412 1.363 . S
C417 C416 1.415 . S
C418 H394 0.951 . S
C418 C419 1.366 . S
C418 C420 1.388 . S
C419 C418 1.366 . S
C419 C423 1.385 . S
C420 H395 0.951 . S
C420 C418 1.388 . S
C420 C421 1.366 . S
C421 C420 1.366 . S
C421 C422 1.414 . S
C421 C424 1.499 . S
C422 H396 0.950 . S
C422 C421 1.414 . S
C422 C423 1.374 . S
C423 H397 0.950 . S
C423 C419 1.385 . S
C423 C422 1.374 . S
C424 C421 1.499 . S
C424 C425 1.373 . S
C424 C426 1.389 . S
C425 H398 0.950 . S
C425 C411 1.377 . S
C425 C424 1.373 . S
C426 C410 1.377 . S
C426 C424 1.389 . S
C426 C427 1.524 . S
C427 C426 1.524 . S
C427 C428 1.397 . S
C427 C432 1.363 . S
C428 H399 0.950 . S
C428 C427 1.397 . S
C428 C429 1.334 . S
C429 H400 0.950 . S
C429 C428 1.334 . S
C429 C430 1.287 . S
C430 C429 1.287 . S
C430 C431 1.524 . S
C430 H433 0.999 . S
C431 H401 0.950 . S
C431 C430 1.524 . S
C431 C432 1.415 . S
C432 H402 0.950 . S
C432 C427 1.363 . S
C432 C431 1.415 . S
H433 C430 0.999 . S
H434 C415 0.913 . S
H435 C453 0.951 . S
H436 C455 0.951 . S
H437 C457 0.950 . S
H438 C458 0.950 . S
H439 C460 0.950 . S
H440 C463 0.950 . S
H441 C464 0.950 . S
H442 C466 0.950 . S
H443 C467 0.950 . S
H444 C468 0.951 . S
H445 C470 0.951 . S
H446 C472 0.950 . S
H447 C473 0.950 . S
H448 C475 0.950 . S
H449 C478 0.950 . S
H450 C479 0.950 . S
H451 C481 0.950 . S
H452 C482 0.950 . S
C453 H435 0.951 . S
C453 C454 1.366 . S
C453 C455 1.388 . S
C454 C453 1.366 . S
C454 C458 1.385 . S
C455 H436 0.951 . S
C455 C453 1.388 . S
C455 C456 1.366 . S
C456 C455 1.366 . S
C456 C457 1.414 . S
C456 C459 1.499 . S
C457 H437 0.950 . S
C457 C456 1.414 . S
C457 C458 1.374 . S
C458 H438 0.950 . S
C458 C454 1.385 . S
C458 C457 1.374 . S
C459 C456 1.499 . S
C459 C460 1.373 . S
C459 C461 1.389 . S
C460 H439 0.950 . S
C460 C459 1.373 . S
C460 C476 1.377 . S
C461 C459 1.389 . S
C461 C462 1.524 . S
C461 C475 1.377 . S
C462 C461 1.524 . S
C462 C463 1.397 . S
C462 C467 1.363 . S
C463 H440 0.950 . S
C463 C462 1.397 . S
C463 C464 1.334 . S
C464 H441 0.950 . S
C464 C463 1.334 . S
C464 C465 1.287 . S
C465 C464 1.287 . S
C465 C466 1.524 . S
C465 H484 0.913 . S
C466 H442 0.950 . S
C466 C465 1.524 . S
C466 C467 1.415 . S
C467 H443 0.950 . S
C467 C462 1.363 . S
C467 C466 1.415 . S
C468 H444 0.951 . S
C468 C469 1.366 . S
C468 C470 1.388 . S
C469 C468 1.366 . S
C469 C473 1.385 . S
C470 H445 0.951 . S
C470 C468 1.388 . S
C470 C471 1.366 . S
C471 C470 1.366 . S
C471 C472 1.414 . S
C471 C474 1.499 . S
C472 H446 0.950 . S
C472 C471 1.414 . S
C472 C473 1.374 . S
C473 H447 0.950 . S
C473 C469 1.385 . S
C473 C472 1.374 . S
C474 C471 1.499 . S
C474 C475 1.373 . S
C474 C476 1.389 . S
C475 H448 0.950 . S
C475 C461 1.377 . S
C475 C474 1.373 . S
C476 C460 1.377 . S
C476 C474 1.389 . S
C476 C477 1.524 . S
C477 C476 1.524 . S
C477 C478 1.397 . S
C477 C482 1.363 . S
C478 H449 0.950 . S
C478 C477 1.397 . S
C478 C479 1.334 . S
C479 H450 0.950 . S
C479 C478 1.334 . S
C479 C480 1.287 . S
C480 C479 1.287 . S
C480 C481 1.524 . S
C480 H483 0.999 . S
C481 H451 0.950 . S
C481 C480 1.524 . S
C481 C482 1.415 . S
C482 H452 0.950 . S
C482 C477 1.363 . S
C482 C481 1.415 . S
H483 C480 0.999 . S
H484 C465 0.913 . S
H485 C503 0.951 . S
H486 C505 0.951 . S
H487 C507 0.950 . S
H488 C508 0.950 . S
H489 C510 0.950 . S
H490 C513 0.950 . S
H491 C514 0.950 . S
H492 C516 0.950 . S
H493 C517 0.950 . S
H494 C518 0.951 . S
H495 C520 0.951 . S
H496 C522 0.950 . S
H497 C523 0.950 . S
H498 C525 0.950 . S
H499 C528 0.950 . S
H500 C529 0.950 . S
H501 C531 0.950 . S
H502 C532 0.950 . S
C503 H485 0.951 . S
C503 C504 1.366 . S
C503 C505 1.388 . S
C504 C503 1.366 . S
C504 C508 1.385 . S
C505 H486 0.951 . S
C505 C503 1.388 . S
C505 C506 1.366 . S
C506 C505 1.366 . S
C506 C507 1.414 . S
C506 C509 1.499 . S
C507 H487 0.950 . S
C507 C506 1.414 . S
C507 C508 1.374 . S
C508 H488 0.950 . S
C508 C504 1.385 . S
C508 C507 1.374 . S
C509 C506 1.499 . S
C509 C510 1.373 . S
C509 C511 1.389 . S
C510 H489 0.950 . S
C510 C509 1.373 . S
C510 C526 1.377 . S
C511 C509 1.389 . S
C511 C512 1.524 . S
C511 C525 1.377 . S
C512 C511 1.524 . S
C512 C513 1.397 . S
C512 C517 1.363 . S
C513 H490 0.950 . S
C513 C512 1.397 . S
C513 C514 1.334 . S
C514 H491 0.950 . S
C514 C513 1.334 . S
C514 C515 1.287 . S
C515 C514 1.287 . S
C515 C516 1.524 . S
C515 H534 0.913 . S
C516 H492 0.950 . S
C516 C515 1.524 . S
C516 C517 1.415 . S
C517 H493 0.950 . S
C517 C512 1.363 . S
C517 C516 1.415 . S
C518 H494 0.951 . S
C518 C519 1.366 . S
C518 C520 1.388 . S
C519 C518 1.366 . S
C519 C523 1.385 . S
C520 H495 0.951 . S
C520 C518 1.388 . S
C520 C521 1.366 . S
C521 C520 1.366 . S
C521 C522 1.414 . S
C521 C524 1.499 . S
C522 H496 0.950 . S
C522 C521 1.414 . S
C522 C523 1.374 . S
C523 H497 0.950 . S
C523 C519 1.385 . S
C523 C522 1.374 . S
C524 C521 1.499 . S
C524 C525 1.373 . S
C524 C526 1.389 . S
C525 H498 0.950 . S
C525 C511 1.377 . S
C525 C524 1.373 . S
C526 C510 1.377 . S
C526 C524 1.389 . S
C526 C527 1.524 . S
C527 C526 1.524 . S
C527 C528 1.397 . S
C527 C532 1.363 . S
C528 H499 0.950 . S
C528 C527 1.397 . S
C528 C529 1.334 . S
C529 H500 0.950 . S
C529 C528 1.334 . S
C529 C530 1.287 . S
C530 C529 1.287 . S
C530 C531 1.524 . S
C530 H533 0.999 . S
C531 H501 0.950 . S
C531 C530 1.524 . S
C531 C532 1.415 . S
C532 H502 0.950 . S
C532 C527 1.363 . S
C532 C531 1.415 . S
H533 C530 0.999 . S
H534 C515 0.913 . S
H535 C553 0.951 . S
H536 C555 0.951 . S
H537 C557 0.950 . S
H538 C558 0.950 . S
H539 C560 0.950 . S
H540 C563 0.950 . S
H541 C564 0.950 . S
H542 C566 0.950 . S
H543 C567 0.950 . S
H544 C568 0.951 . S
H545 C570 0.951 . S
H546 C572 0.950 . S
H547 C573 0.950 . S
H548 C575 0.950 . S
H549 C578 0.950 . S
H550 C579 0.950 . S
H551 C581 0.950 . S
H552 C582 0.950 . S
C553 H535 0.951 . S
C553 C554 1.366 . S
C553 C555 1.388 . S
C554 C553 1.366 . S
C554 C558 1.385 . S
C555 H536 0.951 . S
C555 C553 1.388 . S
C555 C556 1.366 . S
C556 C555 1.366 . S
C556 C557 1.414 . S
C556 C559 1.499 . S
C557 H537 0.950 . S
C557 C556 1.414 . S
C557 C558 1.374 . S
C558 H538 0.950 . S
C558 C554 1.385 . S
C558 C557 1.374 . S
C559 C556 1.499 . S
C559 C560 1.373 . S
C559 C561 1.389 . S
C560 H539 0.950 . S
C560 C559 1.373 . S
C560 C576 1.377 . S
C561 C559 1.389 . S
C561 C562 1.524 . S
C561 C575 1.377 . S
C562 C561 1.524 . S
C562 C563 1.397 . S
C562 C567 1.363 . S
C563 H540 0.950 . S
C563 C562 1.397 . S
C563 C564 1.334 . S
C564 H541 0.950 . S
C564 C563 1.334 . S
C564 C565 1.287 . S
C565 C564 1.287 . S
C565 C566 1.524 . S
C565 H584 0.913 . S
C566 H542 0.950 . S
C566 C565 1.524 . S
C566 C567 1.415 . S
C567 H543 0.950 . S
C567 C562 1.363 . S
C567 C566 1.415 . S
C568 H544 0.951 . S
C568 C569 1.366 . S
C568 C570 1.388 . S
C569 C568 1.366 . S
C569 C573 1.385 . S
C570 H545 0.951 . S
C570 C568 1.388 . S
C570 C571 1.366 . S
C571 C570 1.366 . S
C571 C572 1.414 . S
C571 C574 1.499 . S
C572 H546 0.950 . S
C572 C571 1.414 . S
C572 C573 1.374 . S
C573 H547 0.950 . S
C573 C569 1.385 . S
C573 C572 1.374 . S
C574 C571 1.499 . S
C574 C575 1.373 . S
C574 C576 1.389 . S
C575 H548 0.950 . S
C575 C561 1.377 . S
C575 C574 1.373 . S
C576 C560 1.377 . S
C576 C574 1.389 . S
C576 C577 1.524 . S
C577 C576 1.524 . S
C577 C578 1.397 . S
C577 C582 1.363 . S
C578 H549 0.950 . S
C578 C577 1.397 . S
C578 C579 1.334 . S
C579 H550 0.950 . S
C579 C578 1.334 . S
C579 C580 1.287 . S
C580 C579 1.287 . S
C580 C581 1.524 . S
C580 H583 0.999 . S
C581 H551 0.950 . S
C581 C580 1.524 . S
C581 C582 1.415 . S
C582 H552 0.950 . S
C582 C577 1.363 . S
C582 C581 1.415 . S
H583 C580 0.999 . S
H584 C565 0.913 . S
H585 C603 0.951 . S
H586 C605 0.951 . S
H587 C607 0.950 . S
H588 C608 0.950 . S
H589 C610 0.950 . S
H590 C613 0.950 . S
H591 C614 0.950 . S
H592 C616 0.950 . S
H593 C617 0.950 . S
H594 C618 0.951 . S
H595 C620 0.951 . S
H596 C622 0.950 . S
H597 C623 0.950 . S
H598 C625 0.950 . S
H599 C628 0.950 . S
H600 C629 0.950 . S
H601 C631 0.950 . S
H602 C632 0.950 . S
C603 H585 0.951 . S
C603 C604 1.366 . S
C603 C605 1.388 . S
C604 C603 1.366 . S
C604 C608 1.385 . S
C605 H586 0.951 . S
C605 C603 1.388 . S
C605 C606 1.366 . S
C606 C605 1.366 . S
C606 C607 1.414 . S
C606 C609 1.499 . S
C607 H587 0.950 . S
C607 C606 1.414 . S
C607 C608 1.374 . S
C608 H588 0.950 . S
C608 C604 1.385 . S
C608 C607 1.374 . S
C609 C606 1.499 . S
C609 C610 1.373 . S
C609 C611 1.389 . S
C610 H589 0.950 . S
C610 C609 1.373 . S
C610 C626 1.377 . S
C611 C609 1.389 . S
C611 C612 1.524 . S
C611 C625 1.377 . S
C612 C611 1.524 . S
C612 C613 1.397 . S
C612 C617 1.363 . S
C613 H590 0.950 . S
C613 C612 1.397 . S
C613 C614 1.334 . S
C614 H591 0.950 . S
C614 C613 1.334 . S
C614 C615 1.287 . S
C615 C614 1.287 . S
C615 C616 1.524 . S
C615 H634 0.913 . S
C616 H592 0.950 . S
C616 C615 1.524 . S
C616 C617 1.415 . S
C617 H593 0.950 . S
C617 C612 1.363 . S
C617 C616 1.415 . S
C618 H594 0.951 . S
C618 C619 1.366 . S
C618 C620 1.388 . S
C619 C618 1.366 . S
C619 C623 1.385 . S
C620 H595 0.951 . S
C620 C618 1.388 . S
C620 C621 1.366 . S
C621 C620 1.366 . S
C621 C622 1.414 . S
C621 C624 1.499 . S
C622 H596 0.950 . S
C622 C621 1.414 . S
C622 C623 1.374 . S
C623 H597 0.950 . S
C623 C619 1.385 . S
C623 C622 1.374 . S
C624 C621 1.499 . S
C624 C625 1.373 . S
C624 C626 1.389 . S
C625 H598 0.950 . S
C625 C611 1.377 . S
C625 C624 1.373 . S
C626 C610 1.377 . S
C626 C624 1.389 . S
C626 C627 1.524 . S
C627 C626 1.524 . S
C627 C628 1.397 . S
C627 C632 1.363 . S
C628 H599 0.950 . S
C628 C627 1.397 . S
C628 C629 1.334 . S
C629 H600 0.950 . S
C629 C628 1.334 . S
C629 C630 1.287 . S
C630 C629 1.287 . S
C630 C631 1.524 . S
C630 H633 0.999 . S
C631 H601 0.950 . S
C631 C630 1.524 . S
C631 C632 1.415 . S
C632 H602 0.950 . S
C632 C627 1.363 . S
C632 C631 1.415 . S
H633 C630 0.999 . S
H634 C615 0.913 . S
H635 C653 0.951 . S
H636 C655 0.951 . S
H637 C657 0.950 . S
H638 C658 0.950 . S
H639 C660 0.950 . S
H640 C663 0.950 . S
H641 C664 0.950 . S
H642 C666 0.950 . S
H643 C667 0.950 . S
H644 C668 0.951 . S
H645 C670 0.951 . S
H646 C672 0.950 . S
H647 C673 0.950 . S
H648 C675 0.950 . S
H649 C678 0.950 . S
H650 C679 0.950 . S
H651 C681 0.950 . S
H652 C682 0.950 . S
C653 H635 0.951 . S
C653 C654 1.366 . S
C653 C655 1.388 . S
C654 C653 1.366 . S
C654 C658 1.385 . S
C655 H636 0.951 . S
C655 C653 1.388 . S
C655 C656 1.366 . S
C656 C655 1.366 . S
C656 C657 1.414 . S
C656 C659 1.499 . S
C657 H637 0.950 . S
C657 C656 1.414 . S
C657 C658 1.374 . S
C658 H638 0.950 . S
C658 C654 1.385 . S
C658 C657 1.374 . S
C659 C656 1.499 . S
C659 C660 1.373 . S
C659 C661 1.389 . S
C660 H639 0.950 . S
C660 C659 1.373 . S
C660 C676 1.377 . S
C661 C659 1.389 . S
C661 C662 1.524 . S
C661 C675 1.377 . S
C662 C661 1.524 . S
C662 C663 1.397 . S
C662 C667 1.363 . S
C663 H640 0.950 . S
C663 C662 1.397 . S
C663 C664 1.334 . S
C664 H641 0.950 . S
C664 C663 1.334 . S
C664 C665 1.287 . S
C665 C664 1.287 . S
C665 C666 1.524 . S
C665 H684 0.913 . S
C666 H642 0.950 . S
C666 C665 1.524 . S
C666 C667 1.415 . S
C667 H643 0.950 . S
C667 C662 1.363 . S
C667 C666 1.415 . S
C668 H644 0.951 . S
C668 C669 1.366 . S
C668 C670 1.388 . S
C669 C668 1.366 . S
C669 C673 1.385 . S
C670 H645 0.951 . S
C670 C668 1.388 . S
C670 C671 1.366 . S
C671 C670 1.366 . S
C671 C672 1.414 . S
C671 C674 1.499 . S
C672 H646 0.950 . S
C672 C671 1.414 . S
C672 C673 1.374 . S
C673 H647 0.950 . S
C673 C669 1.385 . S
C673 C672 1.374 . S
C674 C671 1.499 . S
C674 C675 1.373 . S
C674 C676 1.389 . S
C675 H648 0.950 . S
C675 C661 1.377 . S
C675 C674 1.373 . S
C676 C660 1.377 . S
C676 C674 1.389 . S
C676 C677 1.524 . S
C677 C676 1.524 . S
C677 C678 1.397 . S
C677 C682 1.363 . S
C678 H649 0.950 . S
C678 C677 1.397 . S
C678 C679 1.334 . S
C679 H650 0.950 . S
C679 C678 1.334 . S
C679 C680 1.287 . S
C680 C679 1.287 . S
C680 C681 1.524 . S
C680 H683 0.999 . S
C681 H651 0.950 . S
C681 C680 1.524 . S
C681 C682 1.415 . S
C682 H652 0.950 . S
C682 C677 1.363 . S
C682 C681 1.415 . S
H683 C680 0.999 . S
H684 C665 0.913 . S
H685 C703 0.951 . S
H686 C705 0.951 . S
H687 C707 0.950 . S
H688 C708 0.950 . S
H689 C710 0.950 . S
H690 C713 0.950 . S
H691 C714 0.950 . S
H692 C716 0.950 . S
H693 C717 0.950 . S
H694 C718 0.951 . S
H695 C720 0.951 . S
H696 C722 0.950 . S
H697 C723 0.950 . S
H698 C725 0.950 . S
H699 C728 0.950 . S
H700 C729 0.950 . S
H701 C731 0.950 . S
H702 C732 0.950 . S
C703 H685 0.951 . S
C703 C704 1.366 . S
C703 C705 1.388 . S
C704 C703 1.366 . S
C704 C708 1.385 . S
C705 H686 0.951 . S
C705 C703 1.388 . S
C705 C706 1.366 . S
C706 C705 1.366 . S
C706 C707 1.414 . S
C706 C709 1.499 . S
C707 H687 0.950 . S
C707 C706 1.414 . S
C707 C708 1.374 . S
C708 H688 0.950 . S
C708 C704 1.385 . S
C708 C707 1.374 . S
C709 C706 1.499 . S
C709 C710 1.373 . S
C709 C711 1.389 . S
C710 H689 0.950 . S
C710 C709 1.373 . S
C710 C726 1.377 . S
C711 C709 1.389 . S
C711 C712 1.524 . S
C711 C725 1.377 . S
C712 C711 1.524 . S
C712 C713 1.397 . S
C712 C717 1.363 . S
C713 H690 0.950 . S
C713 C712 1.397 . S
C713 C714 1.334 . S
C714 H691 0.950 . S
C714 C713 1.334 . S
C714 C715 1.287 . S
C715 C714 1.287 . S
C715 C716 1.524 . S
C715 H734 0.913 . S
C716 H692 0.950 . S
C716 C715 1.524 . S
C716 C717 1.415 . S
C717 H693 0.950 . S
C717 C712 1.363 . S
C717 C716 1.415 . S
C718 H694 0.951 . S
C718 C719 1.366 . S
C718 C720 1.388 . S
C719 C718 1.366 . S
C719 C723 1.385 . S
C720 H695 0.951 . S
C720 C718 1.388 . S
C720 C721 1.366 . S
C721 C720 1.366 . S
C721 C722 1.414 . S
C721 C724 1.499 . S
C722 H696 0.950 . S
C722 C721 1.414 . S
C722 C723 1.374 . S
C723 H697 0.950 . S
C723 C719 1.385 . S
C723 C722 1.374 . S
C724 C721 1.499 . S
C724 C725 1.373 . S
C724 C726 1.389 . S
C725 H698 0.950 . S
C725 C711 1.377 . S
C725 C724 1.373 . S
C726 C710 1.377 . S
C726 C724 1.389 . S
C726 C727 1.524 . S
C727 C726 1.524 . S
C727 C728 1.397 . S
C727 C732 1.363 . S
C728 H699 0.950 . S
C728 C727 1.397 . S
C728 C729 1.334 . S
C729 H700 0.950 . S
C729 C728 1.334 . S
C729 C730 1.287 . S
C730 C729 1.287 . S
C730 C731 1.524 . S
C730 H733 0.999 . S
C731 H701 0.950 . S
C731 C730 1.524 . S
C731 C732 1.415 . S
C732 H702 0.950 . S
C732 C727 1.363 . S
C732 C731 1.415 . S
H733 C730 0.999 . S
H734 C715 0.913 . S
H735 C753 0.951 . S
H736 C755 0.951 . S
H737 C757 0.950 . S
H738 C758 0.950 . S
H739 C760 0.950 . S
H740 C763 0.950 . S
H741 C764 0.950 . S
H742 C766 0.950 . S
H743 C767 0.950 . S
H744 C768 0.951 . S
H745 C770 0.951 . S
H746 C772 0.950 . S
H747 C773 0.950 . S
H748 C775 0.950 . S
H749 C778 0.950 . S
H750 C779 0.950 . S
H751 C781 0.950 . S
H752 C782 0.950 . S
C753 H735 0.951 . S
C753 C754 1.366 . S
C753 C755 1.388 . S
C754 C753 1.366 . S
C754 C758 1.385 . S
C755 H736 0.951 . S
C755 C753 1.388 . S
C755 C756 1.366 . S
C756 C755 1.366 . S
C756 C757 1.414 . S
C756 C759 1.499 . S
C757 H737 0.950 . S
C757 C756 1.414 . S
C757 C758 1.374 . S
C758 H738 0.950 . S
C758 C754 1.385 . S
C758 C757 1.374 . S
C759 C756 1.499 . S
C759 C760 1.373 . S
C759 C761 1.389 . S
C760 H739 0.950 . S
C760 C759 1.373 . S
C760 C776 1.377 . S
C761 C759 1.389 . S
C761 C762 1.524 . S
C761 C775 1.377 . S
C762 C761 1.524 . S
C762 C763 1.397 . S
C762 C767 1.363 . S
C763 H740 0.950 . S
C763 C762 1.397 . S
C763 C764 1.334 . S
C764 H741 0.950 . S
C764 C763 1.334 . S
C764 C765 1.287 . S
C765 C764 1.287 . S
C765 C766 1.524 . S
C765 H784 0.913 . S
C766 H742 0.950 . S
C766 C765 1.524 . S
C766 C767 1.415 . S
C767 H743 0.950 . S
C767 C762 1.363 . S
C767 C766 1.415 . S
C768 H744 0.951 . S
C768 C769 1.366 . S
C768 C770 1.388 . S
C769 C768 1.366 . S
C769 C773 1.385 . S
C770 H745 0.951 . S
C770 C768 1.388 . S
C770 C771 1.366 . S
C771 C770 1.366 . S
C771 C772 1.414 . S
C771 C774 1.499 . S
C772 H746 0.950 . S
C772 C771 1.414 . S
C772 C773 1.374 . S
C773 H747 0.950 . S
C773 C769 1.385 . S
C773 C772 1.374 . S
C774 C771 1.499 . S
C774 C775 1.373 . S
C774 C776 1.389 . S
C775 H748 0.950 . S
C775 C761 1.377 . S
C775 C774 1.373 . S
C776 C760 1.377 . S
C776 C774 1.389 . S
C776 C777 1.524 . S
C777 C776 1.524 . S
C777 C778 1.397 . S
C777 C782 1.363 . S
C778 H749 0.950 . S
C778 C777 1.397 . S
C778 C779 1.334 . S
C779 H750 0.950 . S
C779 C778 1.334 . S
C779 C780 1.287 . S
C780 C779 1.287 . S
C780 C781 1.524 . S
C780 H783 0.999 . S
C781 H751 0.950 . S
C781 C780 1.524 . S
C781 C782 1.415 . S
C782 H752 0.950 . S
C782 C777 1.363 . S
C782 C781 1.415 . S
H783 C780 0.999 . S
H784 C765 0.913 . S
H785 C803 0.951 . S
H786 C805 0.951 . S
H787 C807 0.950 . S
H788 C808 0.950 . S
H789 C810 0.950 . S
H790 C813 0.950 . S
H791 C814 0.950 . S
H792 C816 0.950 . S
H793 C817 0.950 . S
H794 C818 0.951 . S
H795 C820 0.951 . S
H796 C822 0.950 . S
H797 C823 0.950 . S
H798 C825 0.950 . S
H799 C828 0.950 . S
H800 C829 0.950 . S
H801 C831 0.950 . S
H802 C832 0.950 . S
C803 H785 0.951 . S
C803 C804 1.366 . S
C803 C805 1.388 . S
C804 C803 1.366 . S
C804 C808 1.385 . S
C805 H786 0.951 . S
C805 C803 1.388 . S
C805 C806 1.366 . S
C806 C805 1.366 . S
C806 C807 1.414 . S
C806 C809 1.499 . S
C807 H787 0.950 . S
C807 C806 1.414 . S
C807 C808 1.374 . S
C808 H788 0.950 . S
C808 C804 1.385 . S
C808 C807 1.374 . S
C809 C806 1.499 . S
C809 C810 1.373 . S
C809 C811 1.389 . S
C810 H789 0.950 . S
C810 C809 1.373 . S
C810 C826 1.377 . S
C811 C809 1.389 . S
C811 C812 1.524 . S
C811 C825 1.377 . S
C812 C811 1.524 . S
C812 C813 1.397 . S
C812 C817 1.363 . S
C813 H790 0.950 . S
C813 C812 1.397 . S
C813 C814 1.334 . S
C814 H791 0.950 . S
C814 C813 1.334 . S
C814 C815 1.287 . S
C815 C814 1.287 . S
C815 C816 1.524 . S
C815 H834 0.913 . S
C816 H792 0.950 . S
C816 C815 1.524 . S
C816 C817 1.415 . S
C817 H793 0.950 . S
C817 C812 1.363 . S
C817 C816 1.415 . S
C818 H794 0.951 . S
C818 C819 1.366 . S
C818 C820 1.388 . S
C819 C818 1.366 . S
C819 C823 1.385 . S
C820 H795 0.951 . S
C820 C818 1.388 . S
C820 C821 1.366 . S
C821 C820 1.366 . S
C821 C822 1.414 . S
C821 C824 1.499 . S
C822 H796 0.950 . S
C822 C821 1.414 . S
C822 C823 1.374 . S
C823 H797 0.950 . S
C823 C819 1.385 . S
C823 C822 1.374 . S
C824 C821 1.499 . S
C824 C825 1.373 . S
C824 C826 1.389 . S
C825 H798 0.950 . S
C825 C811 1.377 . S
C825 C824 1.373 . S
C826 C810 1.377 . S
C826 C824 1.389 . S
C826 C827 1.524 . S
C827 C826 1.524 . S
C827 C828 1.397 . S
C827 C832 1.363 . S
C828 H799 0.950 . S
C828 C827 1.397 . S
C828 C829 1.334 . S
C829 H800 0.950 . S
C829 C828 1.334 . S
C829 C830 1.287 . S
C830 C829 1.287 . S
C830 C831 1.524 . S
C830 H833 0.999 . S
C831 H801 0.950 . S
C831 C830 1.524 . S
C831 C832 1.415 . S
C832 H802 0.950 . S
C832 C827 1.363 . S
C832 C831 1.415 . S
H833 C830 0.999 . S
H834 C815 0.913 . S
H835 C853 0.951 . S
H836 C855 0.951 . S
H837 C857 0.950 . S
H838 C858 0.950 . S
H839 C860 0.950 . S
H840 C863 0.950 . S
H841 C864 0.950 . S
H842 C866 0.950 . S
H843 C867 0.950 . S
H844 C868 0.951 . S
H845 C870 0.951 . S
H846 C872 0.950 . S
H847 C873 0.950 . S
H848 C875 0.950 . S
H849 C878 0.950 . S
H850 C879 0.950 . S
H851 C881 0.950 . S
H852 C882 0.950 . S
C853 H835 0.951 . S
C853 C854 1.366 . S
C853 C855 1.388 . S
C854 C853 1.366 . S
C854 C858 1.385 . S
C855 H836 0.951 . S
C855 C853 1.388 . S
C855 C856 1.366 . S
C856 C855 1.366 . S
C856 C857 1.414 . S
C856 C859 1.499 . S
C857 H837 0.950 . S
C857 C856 1.414 . S
C857 C858 1.374 . S
C858 H838 0.950 . S
C858 C854 1.385 . S
C858 C857 1.374 . S
C859 C856 1.499 . S
C859 C860 1.373 . S
C859 C861 1.389 . S
C860 H839 0.950 . S
C860 C859 1.373 . S
C860 C876 1.377 . S
C861 C859 1.389 . S
C861 C862 1.524 . S
C861 C875 1.377 . S
C862 C861 1.524 . S
C862 C863 1.397 . S
C862 C867 1.363 . S
C863 H840 0.950 . S
C863 C862 1.397 . S
C863 C864 1.334 . S
C864 H841 0.950 . S
C864 C863 1.334 . S
C864 C865 1.287 . S
C865 C864 1.287 . S
C865 C866 1.524 . S
C865 H884 0.913 . S
C866 H842 0.950 . S
C866 C865 1.524 . S
C866 C867 1.415 . S
C867 H843 0.950 . S
C867 C862 1.363 . S
C867 C866 1.415 . S
C868 H844 0.951 . S
C868 C869 1.366 . S
C868 C870 1.388 . S
C869 C868 1.366 . S
C869 C873 1.385 . S
C870 H845 0.951 . S
C870 C868 1.388 . S
C870 C871 1.366 . S
C871 C870 1.366 . S
C871 C872 1.414 . S
C871 C874 1.499 . S
C872 H846 0.950 . S
C872 C871 1.414 . S
C872 C873 1.374 . S
C873 H847 0.950 . S
C873 C869 1.385 . S
C873 C872 1.374 . S
C874 C871 1.499 . S
C874 C875 1.373 . S
C874 C876 1.389 . S
C875 H848 0.950 . S
C875 C861 1.377 . S
C875 C874 1.373 . S
C876 C860 1.377 . S
C876 C874 1.389 . S
C876 C877 1.524 . S
C877 C876 1.524 . S
C877 C878 1.397 . S
C877 C882 1.363 . S
C878 H849 0.950 . S
C878 C877 1.397 . S
C878 C879 1.334 . S
C879 H850 0.950 . S
C879 C878 1.334 . S
C879 C880 1.287 . S
C880 C879 1.287 . S
C880 C881 1.524 . S
C880 H883 0.999 . S
C881 H851 0.950 . S
C881 C880 1.524 . S
C881 C882 1.415 . S
C882 H852 0.950 . S
C882 C877 1.363 . S
C882 C881 1.415 . S
H883 C880 0.999 . S
H884 C865 0.913 . S
H885 C903 0.951 . S
H886 C905 0.951 . S
H887 C907 0.950 . S
H888 C908 0.950 . S
H889 C910 0.950 . S
H890 C913 0.950 1_655 S
H891 C914 0.950 . S
H892 C916 0.950 . S
H893 C917 0.950 . S
H894 C918 0.951 . S
H895 C920 0.951 . S
H896 C922 0.950 . S
H897 C923 0.950 . S
H898 C925 0.950 . S
H899 C928 0.950 . S
H900 C929 0.950 . S
H901 C931 0.950 . S
H902 C932 0.950 . S
C903 H885 0.951 . S
C903 C904 1.366 . S
C903 C905 1.388 . S
C904 C903 1.366 . S
C904 C908 1.385 1_455 S
C905 H886 0.951 . S
C905 C903 1.388 . S
C905 C906 1.366 . S
C906 C905 1.366 . S
C906 C907 1.414 1_455 S
C906 C909 1.499 . S
C907 H887 0.950 . S
C907 C906 1.414 1_655 S
C907 C908 1.374 . S
C908 H888 0.950 . S
C908 C904 1.385 1_655 S
C908 C907 1.374 . S
C909 C906 1.499 . S
C909 C910 1.373 1_455 S
C909 C911 1.389 . S
C910 H889 0.950 . S
C910 C909 1.373 1_655 S
C910 C926 1.377 1_655 S
C911 C909 1.389 . S
C911 C912 1.524 . S
C911 C925 1.377 . S
C912 C911 1.524 . S
C912 C913 1.397 . S
C912 C917 1.363 . S
C913 H890 0.950 1_455 S
C913 C912 1.397 . S
C913 C914 1.334 . S
C914 H891 0.950 . S
C914 C913 1.334 . S
C914 C915 1.287 . S
C915 C914 1.287 . S
C915 C916 1.524 . S
C915 H934 0.913 . S
C916 H892 0.950 . S
C916 C915 1.524 . S
C916 C917 1.415 . S
C917 H893 0.950 . S
C917 C912 1.363 . S
C917 C916 1.415 . S
C918 H894 0.951 . S
C918 C919 1.366 1_655 S
C918 C920 1.388 1_556 S
C919 C918 1.366 1_455 S
C919 C923 1.385 . S
C920 H895 0.951 . S
C920 C918 1.388 1_554 S
C920 C921 1.366 1_655 S
C921 C920 1.366 1_455 S
C921 C922 1.414 . S
C921 C924 1.499 . S
C922 H896 0.950 . S
C922 C921 1.414 . S
C922 C923 1.374 1_554 S
C923 H897 0.950 . S
C923 C919 1.385 . S
C923 C922 1.374 1_556 S
C924 C921 1.499 . S
C924 C925 1.373 . S
C924 C926 1.389 . S
C925 H898 0.950 . S
C925 C911 1.377 . S
C925 C924 1.373 . S
C926 C910 1.377 1_455 S
C926 C924 1.389 . S
C926 C927 1.524 1_455 S
C927 C926 1.524 1_655 S
C927 C928 1.397 1_655 S
C927 C932 1.363 . S
C928 H899 0.950 . S
C928 C927 1.397 1_455 S
C928 C929 1.334 . S
C929 H900 0.950 . S
C929 C928 1.334 . S
C929 C930 1.287 1_455 S
C930 C929 1.287 1_655 S
C930 C931 1.524 . S
C930 H933 0.999 . S
C931 H901 0.950 . S
C931 C930 1.524 . S
C931 C932 1.415 . S
C932 H902 0.950 . S
C932 C927 1.363 . S
C932 C931 1.415 . S
H933 C930 0.999 . S
H934 C915 0.913 . S
H935 C953 0.951 . S
H936 C955 0.951 . S
H937 C957 0.950 . S
H938 C958 0.950 . S
H939 C960 0.950 . S
H940 C963 0.950 . S
H941 C964 0.950 . S
H942 C966 0.950 . S
H943 C967 0.950 . S
H944 C968 0.951 . S
H945 C970 0.951 . S
H946 C972 0.950 . S
H947 C973 0.950 . S
H948 C975 0.950 . S
H949 C978 0.950 . S
H950 C979 0.950 . S
H951 C981 0.950 . S
H952 C982 0.950 . S
C953 H935 0.951 . S
C953 C954 1.366 . S
C953 C955 1.388 . S
C954 C953 1.366 . S
C954 C958 1.385 1_545 S
C955 H936 0.951 . S
C955 C953 1.388 . S
C955 C956 1.366 . S
C956 C955 1.366 . S
C956 C957 1.414 1_545 S
C956 C959 1.499 . S
C957 H937 0.950 . S
C957 C956 1.414 1_565 S
C957 C958 1.374 . S
C958 H938 0.950 . S
C958 C954 1.385 1_565 S
C958 C957 1.374 . S
C959 C956 1.499 . S
C959 C960 1.373 1_545 S
C959 C961 1.389 . S
C960 H939 0.950 . S
C960 C959 1.373 1_565 S
C960 C976 1.377 . S
C961 C959 1.389 . S
C961 C962 1.524 . S
C961 C975 1.377 . S
C962 C961 1.524 . S
C962 C963 1.397 . S
C962 C967 1.363 . S
C963 H940 0.950 . S
C963 C962 1.397 . S
C963 C964 1.334 . S
C964 H941 0.950 . S
C964 C963 1.334 . S
C964 C965 1.287 . S
C965 C964 1.287 . S
C965 C966 1.524 . S
C965 H984 0.913 . S
C966 H942 0.950 . S
C966 C965 1.524 . S
C966 C967 1.415 . S
C967 H943 0.950 . S
C967 C962 1.363 . S
C967 C966 1.415 . S
C968 H944 0.951 . S
C968 C969 1.366 1_565 S
C968 C970 1.388 . S
C969 C968 1.366 1_545 S
C969 C973 1.385 . S
C970 H945 0.951 . S
C970 C968 1.388 . S
C970 C971 1.366 1_565 S
C971 C970 1.366 1_545 S
C971 C972 1.414 . S
C971 C974 1.499 . S
C972 H946 0.950 . S
C972 C971 1.414 . S
C972 C973 1.374 . S
C973 H947 0.950 . S
C973 C969 1.385 . S
C973 C972 1.374 . S
C974 C971 1.499 . S
C974 C975 1.373 . S
C974 C976 1.389 1_545 S
C975 H948 0.950 . S
C975 C961 1.377 . S
C975 C974 1.373 . S
C976 C960 1.377 . S
C976 C974 1.389 1_565 S
C976 C977 1.524 . S
C977 C976 1.524 . S
C977 C978 1.397 . S
C977 C982 1.363 . S
C978 H949 0.950 . S
C978 C977 1.397 . S
C978 C979 1.334 . S
C979 H950 0.950 . S
C979 C978 1.334 . S
C979 C980 1.287 . S
C980 C979 1.287 . S
C980 C981 1.524 . S
C980 H983 0.999 . S
C981 H951 0.950 . S
C981 C980 1.524 . S
C981 C982 1.415 . S
C982 H952 0.950 . S
C982 C977 1.363 . S
C982 C981 1.415 . S
H983 C980 0.999 . S
H984 C965 0.913 . S
H985 C1003 0.951 . S
H986 C1005 0.951 . S
H987 C1007 0.950 . S
H988 C1008 0.950 . S
H989 C1010 0.950 . S
H990 C1013 0.950 . S
H991 C1014 0.950 . S
H992 C1016 0.950 . S
H993 C1017 0.950 . S
H994 C1018 0.951 . S
H995 C1020 0.951 . S
H996 C1022 0.950 . S
H997 C1023 0.950 . S
H998 C1025 0.950 . S
H999 C1028 0.950 . S
H1000 C1029 0.950 . S
H1001 C1031 0.950 . S
H1002 C1032 0.950 . S
C1003 H985 0.951 . S
C1003 C1004 1.366 . S
C1003 C1005 1.388 . S
C1004 C1003 1.366 . S
C1004 C1008 1.385 . S
C1005 H986 0.951 . S
C1005 C1003 1.388 . S
C1005 C1006 1.366 . S
C1006 C1005 1.366 . S
C1006 C1007 1.414 . S
C1006 C1009 1.499 . S
C1007 H987 0.950 . S
C1007 C1006 1.414 . S
C1007 C1008 1.374 . S
C1008 H988 0.950 . S
C1008 C1004 1.385 . S
C1008 C1007 1.374 . S
C1009 C1006 1.499 . S
C1009 C1010 1.373 . S
C1009 C1011 1.389 . S
C1010 H989 0.950 . S
C1010 C1009 1.373 . S
C1010 C1026 1.377 . S
C1011 C1009 1.389 . S
C1011 C1012 1.524 . S
C1011 C1025 1.377 . S
C1012 C1011 1.524 . S
C1012 C1013 1.397 . S
C1012 C1017 1.363 . S
C1013 H990 0.950 . S
C1013 C1012 1.397 . S
C1013 C1014 1.334 . S
C1014 H991 0.950 . S
C1014 C1013 1.334 . S
C1014 C1015 1.287 . S
C1015 C1014 1.287 . S
C1015 C1016 1.524 . S
C1015 H1034 0.913 . S
C1016 H992 0.950 . S
C1016 C1015 1.524 . S
C1016 C1017 1.415 . S
C1017 H993 0.950 . S
C1017 C1012 1.363 . S
C1017 C1016 1.415 . S
C1018 H994 0.951 . S
C1018 C1019 1.366 . S
C1018 C1020 1.388 . S
C1019 C1018 1.366 . S
C1019 C1023 1.385 . S
C1020 H995 0.951 . S
C1020 C1018 1.388 . S
C1020 C1021 1.366 . S
C1021 C1020 1.366 . S
C1021 C1022 1.414 . S
C1021 C1024 1.499 . S
C1022 H996 0.950 . S
C1022 C1021 1.414 . S
C1022 C1023 1.374 . S
C1023 H997 0.950 . S
C1023 C1019 1.385 . S
C1023 C1022 1.374 . S
C1024 C1021 1.499 . S
C1024 C1025 1.373 . S
C1024 C1026 1.389 . S
C1025 H998 0.950 . S
C1025 C1011 1.377 . S
C1025 C1024 1.373 . S
C1026 C1010 1.377 . S
C1026 C1024 1.389 . S
C1026 C1027 1.524 . S
C1027 C1026 1.524 . S
C1027 C1028 1.397 . S
C1027 C1032 1.363 . S
C1028 H999 0.950 . S
C1028 C1027 1.397 . S
C1028 C1029 1.334 . S
C1029 H1000 0.950 . S
C1029 C1028 1.334 . S
C1029 C1030 1.287 . S
C1030 C1029 1.287 . S
C1030 C1031 1.524 . S
C1030 H1033 0.999 . S
C1031 H1001 0.950 . S
C1031 C1030 1.524 . S
C1031 C1032 1.415 . S
C1032 H1002 0.950 . S
C1032 C1027 1.363 . S
C1032 C1031 1.415 . S
H1033 C1030 0.999 . S
H1034 C1015 0.913 . S
H1035 C1053 0.951 . S
H1036 C1055 0.951 . S
H1037 C1057 0.950 . S
H1038 C1058 0.950 . S
H1039 C1060 0.950 . S
H1040 C1063 0.950 . S
H1041 C1064 0.974 . S
H1042 C1066 0.950 . S
H1043 C1067 0.950 . S
H1044 C1068 0.951 . S
H1045 C1070 0.951 . S
H1046 C1072 0.950 . S
H1047 C1073 0.950 . S
H1048 C1075 0.950 . S
H1049 C1078 0.950 . S
H1050 C1079 0.950 . S
H1051 C1081 0.950 . S
H1052 C1082 0.950 . S
C1053 H1035 0.951 . S
C1053 C1054 1.366 . S
C1053 C1055 1.388 . S
C1054 C1053 1.366 . S
C1054 C1058 1.385 1_545 S
C1055 H1036 0.951 . S
C1055 C1053 1.388 . S
C1055 C1056 1.366 . S
C1056 C1055 1.366 . S
C1056 C1057 1.414 1_545 S
C1056 C1059 1.499 . S
C1057 H1037 0.950 . S
C1057 C1056 1.414 1_565 S
C1057 C1058 1.374 . S
C1058 H1038 0.950 . S
C1058 C1054 1.385 1_565 S
C1058 C1057 1.374 . S
C1059 C1056 1.499 . S
C1059 C1060 1.373 1_545 S
C1059 C1061 1.389 . S
C1060 H1039 0.950 . S
C1060 C1059 1.373 1_565 S
C1060 C1076 1.377 . S
C1061 C1059 1.389 . S
C1061 C1062 1.524 . S
C1061 C1075 1.377 . S
C1062 C1061 1.524 . S
C1062 C1063 1.397 1_545 S
C1062 C1067 1.363 . S
C1063 H1040 0.950 . S
C1063 C1062 1.397 1_565 S
C1063 C1064 1.324 . S
C1064 H1041 0.974 . S
C1064 C1063 1.324 . S
C1064 C1065 1.273 1_565 S
C1065 C1064 1.273 1_545 S
C1065 C1066 1.524 . S
C1065 H1084 0.913 . S
C1066 H1042 0.950 . S
C1066 C1065 1.524 . S
C1066 C1067 1.415 . S
C1067 H1043 0.950 . S
C1067 C1062 1.363 . S
C1067 C1066 1.415 . S
C1068 H1044 0.951 . S
C1068 C1069 1.362 1_565 S
C1068 C1070 1.388 . S
C1069 C1068 1.362 1_545 S
C1069 C1073 1.389 . S
C1070 H1045 0.951 . S
C1070 C1068 1.388 . S
C1070 C1071 1.366 1_565 S
C1071 C1070 1.366 1_545 S
C1071 C1072 1.414 . S
C1071 C1074 1.499 . S
C1072 H1046 0.950 . S
C1072 C1071 1.414 . S
C1072 C1073 1.374 . S
C1073 H1047 0.950 . S
C1073 C1069 1.389 . S
C1073 C1072 1.374 . S
C1074 C1071 1.499 . S
C1074 C1075 1.373 . S
C1074 C1076 1.389 1_545 S
C1075 H1048 0.950 . S
C1075 C1061 1.377 . S
C1075 C1074 1.373 . S
C1076 C1060 1.377 . S
C1076 C1074 1.389 1_565 S
C1076 C1077 1.524 . S
C1077 C1076 1.524 . S
C1077 C1078 1.397 1_565 S
C1077 C1082 1.363 . S
C1078 H1049 0.950 . S
C1078 C1077 1.397 1_545 S
C1078 C1079 1.334 . S
C1079 H1050 0.950 . S
C1079 C1078 1.334 . S
C1079 C1080 1.287 1_545 S
C1080 C1079 1.287 1_565 S
C1080 C1081 1.524 . S
C1080 H1083 0.999 . S
C1081 H1051 0.950 . S
C1081 C1080 1.524 . S
C1081 C1082 1.415 . S
C1082 H1052 0.950 . S
C1082 C1077 1.363 . S
C1082 C1081 1.415 . S
H1083 C1080 0.999 . S
H1084 C1065 0.913 . S
H1085 C1103 0.951 . S
H1086 C1105 0.951 . S
H1087 C1107 0.950 . S
H1088 C1108 0.950 . S
H1089 C1110 0.950 . S
H1090 C1113 0.950 . S
H1091 C1114 0.950 . S
H1092 C1116 0.950 . S
H1093 C1117 0.950 . S
H1094 C1118 0.951 . S
H1095 C1120 0.951 . S
H1096 C1122 0.950 . S
H1097 C1123 0.950 . S
H1098 C1125 0.950 . S
H1099 C1128 0.950 . S
H1100 C1129 0.950 . S
H1101 C1131 0.950 . S
H1102 C1132 0.950 . S
C1103 H1085 0.951 . S
C1103 C1104 1.366 . S
C1103 C1105 1.388 . S
C1104 C1103 1.366 . S
C1104 C1108 1.385 . S
C1105 H1086 0.951 . S
C1105 C1103 1.388 . S
C1105 C1106 1.366 . S
C1106 C1105 1.366 . S
C1106 C1107 1.414 . S
C1106 C1109 1.499 . S
C1107 H1087 0.950 . S
C1107 C1106 1.414 . S
C1107 C1108 1.374 . S
C1108 H1088 0.950 . S
C1108 C1104 1.385 . S
C1108 C1107 1.374 . S
C1109 C1106 1.499 . S
C1109 C1110 1.373 . S
C1109 C1111 1.389 . S
C1110 H1089 0.950 . S
C1110 C1109 1.373 . S
C1110 C1126 1.377 . S
C1111 C1109 1.389 . S
C1111 C1112 1.524 . S
C1111 C1125 1.377 . S
C1112 C1111 1.524 . S
C1112 C1113 1.397 . S
C1112 C1117 1.363 . S
C1113 H1090 0.950 . S
C1113 C1112 1.397 . S
C1113 C1114 1.334 . S
C1114 H1091 0.950 . S
C1114 C1113 1.334 . S
C1114 C1115 1.287 . S
C1115 C1114 1.287 . S
C1115 C1116 1.524 . S
C1115 H1134 0.913 . S
C1116 H1092 0.950 . S
C1116 C1115 1.524 . S
C1116 C1117 1.415 . S
C1117 H1093 0.950 . S
C1117 C1112 1.363 . S
C1117 C1116 1.415 . S
C1118 H1094 0.951 . S
C1118 C1119 1.366 . S
C1118 C1120 1.388 1_554 S
C1119 C1118 1.366 . S
C1119 C1123 1.385 . S
C1120 H1095 0.951 . S
C1120 C1118 1.388 1_556 S
C1120 C1121 1.366 . S
C1121 C1120 1.366 . S
C1121 C1122 1.414 . S
C1121 C1124 1.499 . S
C1122 H1096 0.950 . S
C1122 C1121 1.414 . S
C1122 C1123 1.374 1_556 S
C1123 H1097 0.950 . S
C1123 C1119 1.385 . S
C1123 C1122 1.374 1_554 S
C1124 C1121 1.499 . S
C1124 C1125 1.373 . S
C1124 C1126 1.389 . S
C1125 H1098 0.950 . S
C1125 C1111 1.377 . S
C1125 C1124 1.373 . S
C1126 C1110 1.377 . S
C1126 C1124 1.389 . S
C1126 C1127 1.524 . S
C1127 C1126 1.524 . S
C1127 C1128 1.397 . S
C1127 C1132 1.363 . S
C1128 H1099 0.950 . S
C1128 C1127 1.397 . S
C1128 C1129 1.334 . S
C1129 H1100 0.950 . S
C1129 C1128 1.334 . S
C1129 C1130 1.287 . S
C1130 C1129 1.287 . S
C1130 C1131 1.524 . S
C1130 H1133 0.999 . S
C1131 H1101 0.950 . S
C1131 C1130 1.524 . S
C1131 C1132 1.415 . S
C1132 H1102 0.950 . S
C1132 C1127 1.363 . S
C1132 C1131 1.415 . S
H1133 C1130 0.999 . S
H1134 C1115 0.913 . S
H1135 C1153 0.951 . S
H1136 C1155 0.951 . S
H1137 C1157 0.950 . S
H1138 C1158 0.950 . S
H1139 C1160 0.950 . S
H1140 C1163 0.950 . S
H1141 C1164 0.950 . S
H1142 C1166 0.950 . S
H1143 C1167 0.950 . S
H1144 C1168 0.951 . S
H1145 C1170 0.951 . S
H1146 C1172 0.950 . S
H1147 C1173 0.950 . S
H1148 C1175 0.950 . S
H1149 C1178 0.950 . S
H1150 C1179 0.950 . S
H1151 C1181 0.950 . S
H1152 C1182 0.950 . S
C1153 H1135 0.951 . S
C1153 C1154 1.366 . S
C1153 C1155 1.388 . S
C1154 C1153 1.366 . S
C1154 C1158 1.385 1_455 S
C1155 H1136 0.951 . S
C1155 C1153 1.388 . S
C1155 C1156 1.366 . S
C1156 C1155 1.366 . S
C1156 C1157 1.414 1_455 S
C1156 C1159 1.499 . S
C1157 H1137 0.950 . S
C1157 C1156 1.414 1_655 S
C1157 C1158 1.374 . S
C1158 H1138 0.950 . S
C1158 C1154 1.385 1_655 S
C1158 C1157 1.374 . S
C1159 C1156 1.499 . S
C1159 C1160 1.373 1_455 S
C1159 C1161 1.389 . S
C1160 H1139 0.950 . S
C1160 C1159 1.373 1_655 S
C1160 C1176 1.377 . S
C1161 C1159 1.389 . S
C1161 C1162 1.524 . S
C1161 C1175 1.377 . S
C1162 C1161 1.524 . S
C1162 C1163 1.397 . S
C1162 C1167 1.363 . S
C1163 H1140 0.950 . S
C1163 C1162 1.397 . S
C1163 C1164 1.334 . S
C1164 H1141 0.950 . S
C1164 C1163 1.334 . S
C1164 C1165 1.287 . S
C1165 C1164 1.287 . S
C1165 C1166 1.524 . S
C1165 H1184 0.913 . S
C1166 H1142 0.950 . S
C1166 C1165 1.524 . S
C1166 C1167 1.415 . S
C1167 H1143 0.950 . S
C1167 C1162 1.363 . S
C1167 C1166 1.415 . S
C1168 H1144 0.951 . S
C1168 C1169 1.366 1_655 S
C1168 C1170 1.388 . S
C1169 C1168 1.366 1_455 S
C1169 C1173 1.385 . S
C1170 H1145 0.951 . S
C1170 C1168 1.388 . S
C1170 C1171 1.366 1_655 S
C1171 C1170 1.366 1_455 S
C1171 C1172 1.414 . S
C1171 C1174 1.499 . S
C1172 H1146 0.950 . S
C1172 C1171 1.414 . S
C1172 C1173 1.374 . S
C1173 H1147 0.950 . S
C1173 C1169 1.385 . S
C1173 C1172 1.374 . S
C1174 C1171 1.499 . S
C1174 C1175 1.373 . S
C1174 C1176 1.389 1_455 S
C1175 H1148 0.950 . S
C1175 C1161 1.377 . S
C1175 C1174 1.373 . S
C1176 C1160 1.377 . S
C1176 C1174 1.389 1_655 S
C1176 C1177 1.524 . S
C1177 C1176 1.524 . S
C1177 C1178 1.397 . S
C1177 C1182 1.363 . S
C1178 H1149 0.950 . S
C1178 C1177 1.397 . S
C1178 C1179 1.334 . S
C1179 H1150 0.950 . S
C1179 C1178 1.334 . S
C1179 C1180 1.287 . S
C1180 C1179 1.287 . S
C1180 C1181 1.524 . S
C1180 H1183 0.999 . S
C1181 H1151 0.950 . S
C1181 C1180 1.524 . S
C1181 C1182 1.415 . S
C1182 H1152 0.950 . S
C1182 C1177 1.363 . S
C1182 C1181 1.415 . S
H1183 C1180 0.999 . S
H1184 C1165 0.913 . S
C304 C20 1.066 . S
C319 C274 1.077 . S
C354 C41 1.122 . S
C369 C202 1.105 . S
C404 C64 1.143 . S
C419 C238 1.124 . S
C454 C19 1.110 . S
C469 C250 1.145 . S
C519 C178 1.116 . S
C504 C44 1.113 . S
C569 C214 1.106 . S
C554 C67 1.105 . S
C604 C43 1.059 . S
C619 C130 1.072 . S
C654 C66 1.062 . S
C669 C142 1.085 . S
C704 C21 1.111 . S
C719 C70 1.114 . S
C769 C106 1.135 . S
C754 C42 1.104 . S
C819 C166 1.128 . S
C804 C65 1.112 . S
C854 C18 1.124 . S
C869 C94 1.106 . S
C919 C172 1.446 . S
C904 C17 1.451 . S
C954 C39 1.448 . S
C969 C100 1.444 . S
C1004 C62 1.468 . S
C1019 C136 1.466 . S
C1069 C244 1.426 . S
C1054 C40 1.430 . S
C1119 C280 1.450 . S
C1104 C63 1.452 . S
C1154 C16 1.447 . S
C1169 C208 1.443 . S
