# Generated by pormake.
# Topology sqc, (4,8)-cn, num edge types: 1
# Building blocks:
#     Node 0, Type 0, BuildingBlock: KUFVIS_clean_linker_0, # of connection points: 4
#     Node 1, Type 0, BuildingBlock: KUFVIS_clean_linker_0, # of connection points: 4
#     Node 2, Type 0, BuildingBlock: KUFVIS_clean_linker_0, # of connection points: 4
#     Node 3, Type 0, BuildingBlock: KUFVIS_clean_linker_0, # of connection points: 4
#     Node 4, Type 0, BuildingBlock: KUFVIS_clean_linker_0, # of connection points: 4
#     Node 5, Type 0, BuildingBlock: KUFVIS_clean_linker_0, # of connection points: 4
#     Node 6, Type 0, BuildingBlock: KUFVIS_clean_linker_0, # of connection points: 4
#     Node 7, Type 0, BuildingBlock: KUFVIS_clean_linker_0, # of connection points: 4
#     Node 8, Type 1, BuildingBlock: TAGTUT_clean_sbu_3, # of connection points: 8
#     Node 9, Type 1, BuildingBlock: TAGTUT_clean_sbu_3, # of connection points: 8
#     Node 10, Type 1, BuildingBlock: TAGTUT_clean_sbu_3, # of connection points: 8
#     Node 11, Type 1, BuildingBlock: TAGTUT_clean_sbu_3, # of connection points: 8
#     Edge 12, Type (0, 1), BuildingBlock: EZIPEK_clean_linker_0, # of connection points: 2
#     Edge 13, Type (0, 1), BuildingBlock: EZIPEK_clean_linker_0, # of connection points: 2
#     Edge 14, Type (0, 1), BuildingBlock: EZIPEK_clean_linker_0, # of connection points: 2
#     Edge 15, Type (0, 1), BuildingBlock: EZIPEK_clean_linker_0, # of connection points: 2
#     Edge 16, Type (0, 1), BuildingBlock: EZIPEK_clean_linker_0, # of connection points: 2
#     Edge 17, Type (0, 1), BuildingBlock: EZIPEK_clean_linker_0, # of connection points: 2
#     Edge 18, Type (0, 1), BuildingBlock: EZIPEK_clean_linker_0, # of connection points: 2
#     Edge 19, Type (0, 1), BuildingBlock: EZIPEK_clean_linker_0, # of connection points: 2
#     Edge 20, Type (0, 1), BuildingBlock: EZIPEK_clean_linker_0, # of connection points: 2
#     Edge 21, Type (0, 1), BuildingBlock: EZIPEK_clean_linker_0, # of connection points: 2
#     Edge 22, Type (0, 1), BuildingBlock: EZIPEK_clean_linker_0, # of connection points: 2
#     Edge 23, Type (0, 1), BuildingBlock: EZIPEK_clean_linker_0, # of connection points: 2
#     Edge 24, Type (0, 1), BuildingBlock: EZIPEK_clean_linker_0, # of connection points: 2
#     Edge 25, Type (0, 1), BuildingBlock: EZIPEK_clean_linker_0, # of connection points: 2
#     Edge 26, Type (0, 1), BuildingBlock: EZIPEK_clean_linker_0, # of connection points: 2
#     Edge 27, Type (0, 1), BuildingBlock: EZIPEK_clean_linker_0, # of connection points: 2
#     Edge 28, Type (0, 1), BuildingBlock: EZIPEK_clean_linker_0, # of connection points: 2
#     Edge 29, Type (0, 1), BuildingBlock: EZIPEK_clean_linker_0, # of connection points: 2
#     Edge 30, Type (0, 1), BuildingBlock: EZIPEK_clean_linker_0, # of connection points: 2
#     Edge 31, Type (0, 1), BuildingBlock: EZIPEK_clean_linker_0, # of connection points: 2
#     Edge 32, Type (0, 1), BuildingBlock: EZIPEK_clean_linker_0, # of connection points: 2
#     Edge 33, Type (0, 1), BuildingBlock: EZIPEK_clean_linker_0, # of connection points: 2
#     Edge 34, Type (0, 1), BuildingBlock: EZIPEK_clean_linker_0, # of connection points: 2
#     Edge 35, Type (0, 1), BuildingBlock: EZIPEK_clean_linker_0, # of connection points: 2
#     Edge 36, Type (0, 1), BuildingBlock: EZIPEK_clean_linker_0, # of connection points: 2
#     Edge 37, Type (0, 1), BuildingBlock: EZIPEK_clean_linker_0, # of connection points: 2
#     Edge 38, Type (0, 1), BuildingBlock: EZIPEK_clean_linker_0, # of connection points: 2
#     Edge 39, Type (0, 1), BuildingBlock: EZIPEK_clean_linker_0, # of connection points: 2
#     Edge 40, Type (0, 1), BuildingBlock: EZIPEK_clean_linker_0, # of connection points: 2
#     Edge 41, Type (0, 1), BuildingBlock: EZIPEK_clean_linker_0, # of connection points: 2
#     Edge 42, Type (0, 1), BuildingBlock: EZIPEK_clean_linker_0, # of connection points: 2
#     Edge 43, Type (0, 1), BuildingBlock: EZIPEK_clean_linker_0, # of connection points: 2
# Relax obj value: 0.173
# Max RMSD: 0.268
# Mean RMSD: 0.220
data_MOF--net-sqc--node1-TAGTUT_clean_sbu_3--node2-KUFVIS_clean_linker_0--edge1-EZIPEK_clean_linker_0
_symmetry_space_group_name_H-M    P1
_symmetry_Int_Tables_number       1
_symmetry_cell_setting            triclinic
loop_
_symmetry_equiv_pos_as_xyz
'x, y, z'
_cell_length_a     18.685219
_cell_length_b     18.567237
_cell_length_c     55.190031
_cell_angle_alpha  90.644269
_cell_angle_beta   89.884558
_cell_angle_gamma 90.23819
loop_
_atom_site_label
_atom_site_type_symbol
_atom_site_fract_x
_atom_site_fract_y
_atom_site_fract_z
_atom_type_partial_charge
H0 H 0.7952 0.01707 0.47319 0.0
H1 H 0.99432 0.06678 0.50712 0.0
H2 H 0.98832 0.96101 0.43628 0.0
H3 H 0.0984 0.9344 0.44193 0.0
H4 H 0.29653 0.02088 0.46767 0.0
H5 H 0.10274 0.09522 0.49993 0.0
C6 C 0.85332 0.01673 0.47261 0.0
C7 C 0.8881 0.98431 0.45318 0.0
C8 C 0.89173 0.0464 0.49172 0.0
C9 C 0.96704 0.0451 0.49143 0.0
C10 C 0.00515 0.0153 0.47136 0.0
C11 C 0.96359 0.98448 0.45218 0.0
C12 C 0.08679 0.01633 0.47051 0.0
C13 C 0.12541 0.97196 0.45389 0.0
C14 C 0.20068 0.97578 0.4523 0.0
C15 C 0.23844 0.02001 0.46832 0.0
C16 C 0.20332 0.05992 0.48606 0.0
C17 C 0.12781 0.06092 0.48652 0.0
H18 H 0.30781 0.93089 0.70657 0.0
H19 H 0.31959 0.7584 0.75785 0.0
H20 H 0.36108 0.72097 0.68143 0.0
H21 H 0.4261 0.63441 0.6948 0.0
H22 H 0.35571 0.43867 0.72695 0.0
H23 H 0.28104 0.63968 0.75626 0.0
C24 C 0.31562 0.8744 0.7106 0.0
C25 C 0.33989 0.82861 0.69233 0.0
C26 C 0.30889 0.85024 0.7344 0.0
C27 C 0.32216 0.77672 0.73932 0.0
C28 C 0.33906 0.72766 0.7203 0.0
C29 C 0.34682 0.75517 0.69665 0.0
C30 C 0.35013 0.64857 0.72453 0.0
C31 C 0.39359 0.60829 0.70839 0.0
C32 C 0.39225 0.53299 0.7084 0.0
C33 C 0.35548 0.49712 0.72662 0.0
C34 C 0.31883 0.53541 0.74454 0.0
C35 C 0.31398 0.61113 0.7432 0.0
H36 H 0.91904 0.99568 -0.02697 0.0
H37 H 0.71979 0.97944 0.00985 0.0
H38 H 0.72826 0.99702 0.93136 0.0
H39 H 0.61863 0.02337 0.93265 0.0
H40 H 0.42203 0.97146 0.96784 0.0
H41 H 0.61724 0.9358 0.00533 0.0
C42 C 0.86108 0.99303 -0.02759 0.0
C43 C 0.8262 0.00502 0.95052 0.0
C44 C 0.82253 0.97921 -0.00644 0.0
C45 C 0.74775 0.98186 -0.00724 0.0
C46 C 0.71109 0.9854 0.97031 0.0
C47 C 0.75226 0.99481 0.94909 0.0
C48 C 0.63103 0.97981 0.96909 0.0
C49 C 0.59244 1.00061 0.94825 0.0
C50 C 0.51768 0.99504 0.94755 0.0
C51 C 0.4801 0.97237 0.96794 0.0
C52 C 0.51709 0.95385 -0.01119 0.0
C53 C 0.59163 0.95469 -0.01089 0.0
H54 H 0.37955 0.56783 0.21492 0.0
H55 H 0.43416 0.37216 0.24981 0.0
H56 H 0.28268 0.37064 0.19029 0.0
H57 H 0.31356 0.25355 0.187 0.0
H58 H 0.3319 0.07244 0.234 0.0
H59 H 0.37258 0.28268 0.26257 0.0
C60 C 0.37508 0.50963 0.21591 0.0
C61 C 0.33083 0.47241 0.19974 0.0
C62 C 0.40901 0.47334 0.2345 0.0
C63 C 0.40383 0.39836 0.23581 0.0
C64 C 0.35712 0.35927 0.22032 0.0
C65 C 0.32034 0.39765 0.2022 0.0
C66 C 0.34506 0.28006 0.2241 0.0
C67 C 0.32328 0.23325 0.20499 0.0
C68 C 0.31651 0.15863 0.20891 0.0
C69 C 0.33366 0.13029 0.23137 0.0
C70 C 0.35575 0.17529 0.25021 0.0
C71 C 0.35815 0.24972 0.24705 0.0
H72 H 0.83724 0.44133 0.21877 0.0
H73 H 0.83135 0.25643 0.2645 0.0
H74 H 0.88485 0.23536 0.18814 0.0
H75 H 0.94486 0.14318 0.1992 0.0
H76 H 0.88047 0.94396 0.23036 0.0
H77 H 0.80044 0.14066 0.26091 0.0
C78 C 0.84233 0.38354 0.22094 0.0
C79 C 0.86493 0.34106 0.20151 0.0
C80 C 0.82867 0.35272 0.24338 0.0
C81 C 0.8391 0.27839 0.24662 0.0
C82 C 0.85994 0.23381 0.22687 0.0
C83 C 0.87078 0.26654 0.20409 0.0
C84 C 0.87051 0.15404 0.22959 0.0
C85 C 0.91379 0.11575 0.21286 0.0
C86 C 0.91422 0.04046 0.21244 0.0
C87 C 0.8793 1.00241 0.23055 0.0
C88 C 0.84088 0.03876 0.24848 0.0
C89 C 0.8347 0.11427 0.24776 0.0
H90 H 0.85719 0.06308 0.7212 0.0
H91 H 0.88428 0.87219 0.76136 0.0
H92 H 0.7804 0.86391 0.69095 0.0
H93 H 0.75906 0.75138 0.69719 0.0
H94 H 0.82818 0.56249 0.73425 0.0
H95 H 0.90557 0.76463 0.75833 0.0
C96 C 0.8511 0.00506 0.72237 0.0
C97 C 0.81446 0.96715 0.70431 0.0
C98 C 0.87691 0.96937 0.7425 0.0
C99 C 0.86712 0.8952 0.74453 0.0
C100 C 0.83465 0.85365 0.72585 0.0
C101 C 0.80728 0.89155 0.70567 0.0
C102 C 0.83052 0.77232 0.72787 0.0
C103 C 0.78972 0.72833 0.71171 0.0
C104 C 0.79134 0.65232 0.71339 0.0
C105 C 0.82762 0.62067 0.73252 0.0
C106 C 0.86489 0.66266 0.74916 0.0
C107 C 0.86987 0.73681 0.7461 0.0
H108 H 0.79528 0.51773 -0.02738 0.0
H109 H 0.60033 0.43035 0.9447 0.0
H110 H 0.59786 0.59219 0.0024 0.0
H111 H 0.48843 0.56581 0.00855 0.0
H112 H 0.29364 0.50164 -0.02575 0.0
H113 H 0.49074 0.45564 0.93841 0.0
C114 C 0.73717 0.51645 -0.02733 0.0
C115 C 0.69979 0.55708 -0.01025 0.0
C116 C 0.70129 0.47242 0.95614 0.0
C117 C 0.62585 0.46785 0.95704 0.0
C118 C 0.58527 0.51198 -0.0267 0.0
C119 C 0.6244 0.55748 -0.01056 0.0
C120 C 0.50358 0.51003 -0.0264 0.0
C121 C 0.463 0.54066 -0.00692 0.0
C122 C 0.38747 0.53838 -0.00703 0.0
C123 C 0.35175 0.50399 -0.02587 0.0
C124 C 0.38919 0.47391 0.95488 0.0
C125 C 0.46439 0.47764 0.95424 0.0
H126 H 0.41025 0.4797 0.4648 0.0
H127 H 0.23062 0.46897 0.51284 0.0
H128 H 0.21776 0.58724 0.44596 0.0
H129 H 0.11133 0.54537 0.44289 0.0
H130 H 0.92212 0.53005 0.48553 0.0
H131 H 0.12502 0.50575 0.52012 0.0
C132 C 0.35462 0.49154 0.46882 0.0
C133 C 0.31626 0.5349 0.45312 0.0
C134 C 0.32529 0.47225 0.49118 0.0
C135 C 0.25276 0.48642 0.49582 0.0
C136 C 0.21036 0.52237 0.47862 0.0
C137 C 0.24494 0.55118 0.4581 0.0
C138 C 0.13081 0.52816 0.48137 0.0
C139 C 0.0882 0.54007 0.46075 0.0
C140 C 0.01397 0.5437 0.46253 0.0
C141 C 0.98011 0.53063 0.48453 0.0
C142 C 0.02074 0.51479 0.50496 0.0
C143 C 0.0957 0.51633 0.50372 0.0
C144 C 0.18631 0.63792 0.12771 0.0
C145 C 0.94211 0.53546 0.12661 0.0
C146 C 0.90446 0.65314 0.06106 0.0
Mg147 Mg 0.26035 0.7826 0.10778 0.0
Mg148 Mg 0.17744 0.92514 0.08681 0.0
O149 O 0.17959 0.826 0.08978 0.0
Mg150 Mg 0.10107 0.75976 0.09825 0.0
O151 O 0.02938 0.68562 0.10731 0.0
Mg152 Mg 0.06232 0.60234 0.08718 0.0
Mg153 Mg 0.93253 0.69718 0.11386 0.0
C154 C 0.02422 0.89034 0.06607 0.0
O155 O 0.05522 0.8332 0.12806 0.0
O156 O 0.33687 0.85291 0.08493 0.0
O157 O 0.94069 0.79747 0.13424 0.0
O158 O 0.25658 0.87475 0.13787 0.0
O159 O 0.26957 0.93157 0.0642 0.0
O160 O 0.20556 0.97026 0.1205 0.0
O161 O 0.14199 0.68184 0.06812 0.0
O162 O 0.25784 0.70066 0.07723 0.0
C163 C 0.20914 0.66895 0.06482 0.0
C164 C 0.3287 0.89912 0.06805 0.0
O165 O 0.02876 0.82274 0.07107 0.0
O166 O 0.99088 0.52792 0.11043 0.0
O167 O 0.0701 0.93693 0.07355 0.0
O168 O 0.96434 0.61894 0.06067 0.0
O169 O 0.91399 0.5964 0.13193 0.0
O170 O 0.88444 0.69146 0.07912 0.0
O171 O 0.17711 0.70624 0.12561 0.0
O172 O 0.15006 0.59201 0.11535 0.0
C173 C 0.23727 0.9413 0.13823 0.0
C174 C 0.99392 0.83979 0.13833 0.0
C175 C 0.71167 0.84408 0.38326 0.0
C176 C 0.82383 0.60784 0.38457 0.0
C177 C 0.73629 0.5632 0.3145 0.0
Mg178 Mg 0.57027 0.91151 0.35933 0.0
Mg179 Mg 0.43957 0.81827 0.33352 0.0
O180 O 0.53725 0.82988 0.33822 0.0
Mg181 Mg 0.60417 0.75341 0.34886 0.0
O182 O 0.6784 0.68517 0.35961 0.0
Mg183 Mg 0.76439 0.72444 0.34302 0.0
Mg184 Mg 0.67238 0.58702 0.36523 0.0
C185 C 0.49598 0.67613 0.30795 0.0
O186 O 0.52471 0.69691 0.37494 0.0
O187 O 0.50215 0.98688 0.33622 0.0
O188 O 0.56703 0.58424 0.38087 0.0
O189 O 0.46924 0.89928 0.38498 0.0
O190 O 0.41856 0.9203 0.31689 0.0
O191 O 0.3935 0.81814 0.3687 0.0
O192 O 0.68713 0.80195 0.32255 0.0
O193 O 0.6604 0.91724 0.3317 0.0
C194 C 0.69732 0.87025 0.3201 0.0
C195 C 0.44999 0.98036 0.32135 0.0
O196 O 0.55699 0.67925 0.31871 0.0
O197 O 0.83479 0.6545 0.36798 0.0
O198 O 0.44528 0.72115 0.31194 0.0
O199 O 0.76093 0.62815 0.31479 0.0
O200 O 0.76324 0.57748 0.38799 0.0
O201 O 0.69869 0.53765 0.33171 0.0
O202 O 0.64494 0.83114 0.37906 0.0
O203 O 0.76158 0.81025 0.37219 0.0
C204 C 0.41035 0.86299 0.3854 0.0
C205 C 0.51938 0.6331 0.38371 0.0
C206 C 0.68634 0.13431 0.62927 0.0
C207 C 0.44219 0.02232 0.62169 0.0
C208 C 0.41409 0.14534 0.55748 0.0
Mg209 Mg 0.75717 0.28419 0.61089 0.0
Mg210 Mg 0.66422 0.42155 0.59134 0.0
O211 O 0.67811 0.32255 0.59052 0.0
Mg212 Mg 0.60167 0.25234 0.59859 0.0
O213 O 0.53178 0.17548 0.60688 0.0
Mg214 Mg 0.56938 0.09539 0.58624 0.0
Mg215 Mg 0.43352 0.18552 0.61094 0.0
C216 C 0.52427 0.37424 0.56379 0.0
O217 O 0.54866 0.32473 0.62732 0.0
O218 O 0.83243 0.36111 0.59027 0.0
O219 O 0.43472 0.28526 0.63183 0.0
O220 O 0.74363 0.37712 0.64063 0.0
O221 O 0.76541 0.44997 0.57478 0.0
O222 O 0.66064 0.45447 0.62789 0.0
O223 O 0.65047 0.17755 0.56955 0.0
O224 O 0.76445 0.202 0.5802 0.0
C225 C 0.71854 0.16796 0.56717 0.0
C226 C 0.82538 0.41771 0.57739 0.0
O227 O 0.53041 0.30803 0.57005 0.0
O228 O 0.49521 0.01744 0.60701 0.0
O229 O 0.56543 0.42444 0.5718 0.0
O230 O 0.47423 0.11136 0.55787 0.0
O231 O 0.41196 0.08225 0.62702 0.0
O232 O 0.39188 0.18289 0.57538 0.0
O233 O 0.67546 0.2025 0.62717 0.0
O234 O 0.65279 0.08747 0.61631 0.0
C235 C 0.70527 0.434 0.64367 0.0
C236 C 0.48583 0.32957 0.63656 0.0
C237 C 0.21867 0.33529 0.88261 0.0
C238 C 0.32553 0.08213 0.87232 0.0
C239 C 0.2228 0.07295 0.80385 0.0
Mg240 Mg 0.07378 0.40451 0.86122 0.0
Mg241 Mg 0.93888 0.31338 0.8366 0.0
O242 O 0.0365 0.32124 0.84189 0.0
Mg243 Mg 0.10671 0.24549 0.85027 0.0
O244 O 0.18353 0.17711 0.85889 0.0
Mg245 Mg 0.26551 0.21841 0.83986 0.0
Mg246 Mg 0.16807 0.07955 0.85338 0.0
C247 C 0.99074 0.16611 0.81279 0.0
O248 O 0.03445 0.18584 0.87791 0.0
O249 O 0.00489 0.48005 0.83839 0.0
O250 O 0.06613 0.07049 0.87067 0.0
O251 O 0.97668 0.3938 0.88915 0.0
O252 O 0.9263 0.41201 0.81732 0.0
O253 O 0.89083 0.32702 0.87124 0.0
O254 O 0.18353 0.29561 0.82185 0.0
O255 O 0.15806 0.41031 0.83157 0.0
C256 C 0.19249 0.36378 0.81898 0.0
C257 C 0.9564 0.47246 0.82223 0.0
O258 O 0.05414 0.1712 0.82163 0.0
O259 O 0.33554 0.14255 0.86176 0.0
O260 O 0.94051 0.2111 0.81755 0.0
O261 O 0.26421 0.12523 0.81009 0.0
O262 O 0.26636 0.04683 0.87108 0.0
O263 O 0.16594 0.0609 0.81562 0.0
O264 O 0.15144 0.32314 0.87945 0.0
O265 O 0.26679 0.30198 0.87039 0.0
C266 C 0.9142 0.36388 0.88918 0.0
C267 C 0.02592 0.11757 0.88087 0.0
C268 C 0.29867 0.88854 0.44273 0.0
C269 C 0.24342 0.93401 0.43418 0.0
C270 C 0.29079 0.92066 0.39298 0.0
C271 C 0.3524 0.8853 0.40231 0.0
N272 N 0.41997 0.84648 0.43684 0.0
N273 N 0.19331 1.00248 0.40138 0.0
C274 C 0.35774 0.8721 0.42742 0.0
C275 C 0.24038 0.95168 0.40929 0.0
N276 N 0.29445 0.86131 0.46558 0.0
N277 N 0.2808 0.92653 0.36854 0.0
H278 H 0.15572 0.02751 0.41255 0.0
H279 H 0.19542 0.02443 0.38411 0.0
H280 H 0.31876 0.91178 0.35562 0.0
H281 H 0.23251 0.94275 0.36097 0.0
H282 H 0.33031 0.82357 0.47221 0.0
H283 H 0.2508 0.87127 0.47696 0.0
H284 H 0.42969 0.84435 0.4554 0.0
H285 H 0.46425 0.83392 0.42611 0.0
C286 C 0.44349 0.88797 0.67262 0.0
C287 C 0.37233 0.86154 0.67069 0.0
C288 C 0.35919 0.92081 0.63173 0.0
C289 C 0.42367 0.95883 0.63626 0.0
N290 N 0.52927 0.97884 0.6606 0.0
N291 N 0.26185 0.85035 0.64863 0.0
C292 C 0.46721 0.94148 0.65635 0.0
C293 C 0.33012 0.87653 0.65013 0.0
N294 N 0.48784 0.86246 0.69023 0.0
N295 N 0.32749 0.92546 0.60957 0.0
H296 H 0.24049 0.81534 0.66146 0.0
H297 H 0.22559 0.86596 0.63541 0.0
H298 H 0.35187 0.95295 0.5954 0.0
H299 H 0.28264 0.89556 0.60445 0.0
H300 H 0.54232 0.87418 0.69108 0.0
H301 H 0.47175 0.82425 0.70284 0.0
H302 H 0.55861 0.97518 0.67654 0.0
H303 H 0.54979 0.01694 0.64869 0.0
C304 C 0.45946 0.97013 0.90735 0.0
C305 C 0.47694 0.01944 0.92628 0.0
C306 C 0.39414 0.10772 0.9101 0.0
C307 C 0.37927 0.0603 0.89032 0.0
N308 N 0.40558 0.95192 0.86769 0.0
N309 N 0.47412 0.13992 0.94295 0.0
C310 C 0.41427 0.99296 0.8882 0.0
C311 C 0.44877 0.08997 0.92666 0.0
N312 N 0.48439 0.90109 0.90809 0.0
N313 N 0.35283 0.16739 0.91406 0.0
H314 H 0.51338 0.12833 0.95572 0.0
H315 H 0.4612 0.1944 0.94234 0.0
H316 H 0.30955 0.18116 0.90319 0.0
H317 H 0.35668 0.1994 0.92959 0.0
H318 H 0.46717 0.86022 0.8964 0.0
H319 H 0.51965 0.88353 0.9214 0.0
H320 H 0.43494 0.90555 0.86397 0.0
H321 H 0.37277 0.96742 0.8534 0.0
C322 C 0.34972 0.06859 0.17691 0.0
C323 C 0.29549 0.10696 0.18951 0.0
C324 C 0.20318 0.03304 0.16981 0.0
C325 C 0.25743 0.99082 0.15844 0.0
N326 N 0.38314 0.96509 0.1523 0.0
N327 N 0.17172 0.12075 0.20086 0.0
C328 C 0.331 0.00725 0.16249 0.0
C329 C 0.2225 0.08788 0.18674 0.0
N330 N 0.41902 0.09247 0.17823 0.0
N331 N 0.13298 0.02215 0.16386 0.0
H332 H 0.18336 0.16342 0.21269 0.0
H333 H 0.11886 0.10305 0.20199 0.0
H334 H 0.11574 0.97937 0.15296 0.0
H335 H 0.09226 0.05779 0.16859 0.0
H336 H 0.46053 0.0723 0.1676 0.0
H337 H 0.43445 0.13702 0.18869 0.0
H338 H 0.43697 0.96856 0.15697 0.0
H339 H 0.37292 0.92324 0.14009 0.0
C340 C 0.29946 0.14623 0.50011 0.0
C341 C 0.24858 0.0916 0.50574 0.0
C342 C 0.302 0.07974 0.54593 0.0
C343 C 0.35901 0.12641 0.53907 0.0
N344 N 0.41399 0.20321 0.50955 0.0
N345 N 0.20988 0.99709 0.53264 0.0
C346 C 0.35838 0.15947 0.51607 0.0
C347 C 0.25161 0.05638 0.52836 0.0
N348 N 0.29047 0.1858 0.47963 0.0
N349 N 0.29503 0.05799 0.5694 0.0
H350 H 0.17207 0.97697 0.52047 0.0
H351 H 0.21712 0.96381 0.54751 0.0
H352 H 0.33221 0.06991 0.58289 0.0
H353 H 0.2492 0.0325 0.57592 0.0
H354 H 0.32177 0.23032 0.47528 0.0
H355 H 0.24719 0.1776 0.46797 0.0
H356 H 0.42028 0.22428 0.49228 0.0
H357 H 0.45645 0.21522 0.52119 0.0
C358 C 0.32709 0.97255 0.75429 0.0
C359 C 0.29127 0.90457 0.75375 0.0
C360 C 0.22522 0.94254 0.78965 0.0
C361 C 0.24744 0.01567 0.78642 0.0
N362 N 0.31061 0.10012 0.76082 0.0
N363 N 0.19045 0.8345 0.7682 0.0
C364 C 0.29597 0.03091 0.76733 0.0
C365 C 0.23537 0.89229 0.77054 0.0
N366 N 0.39159 0.98113 0.743 0.0
N367 N 0.19992 0.91867 0.81138 0.0
H368 H 0.19243 0.79864 0.75355 0.0
H369 H 0.14608 0.8276 0.77947 0.0
H370 H 0.2031 0.94895 0.82736 0.0
H371 H 0.18704 0.86468 0.81425 0.0
H372 H 0.42139 0.02862 0.74439 0.0
H373 H 0.41876 0.93827 0.73482 0.0
H374 H 0.34222 0.11236 0.74581 0.0
H375 H 0.28433 0.14444 0.76834 0.0
C376 C 0.45235 0.99691 0.02571 0.0
C377 C 0.47733 0.93863 0.01121 0.0
C378 C 0.41343 0.85242 0.03631 0.0
C379 C 0.38762 0.91084 0.05077 0.0
N380 N 0.39684 0.03495 0.06347 0.0
N381 N 0.49686 0.81141 0.00542 0.0
C382 C 0.41162 0.9821 0.04676 0.0
C383 C 0.46328 0.86641 0.01755 0.0
N384 N 0.46621 0.06631 0.01901 0.0
N385 N 0.38677 0.78444 0.0393 0.0
H386 H 0.53102 0.81969 -0.00927 0.0
H387 H 0.4956 0.75804 0.01099 0.0
H388 H 0.34847 0.77136 0.05219 0.0
H389 H 0.39865 0.7413 0.02784 0.0
H390 H 0.44214 0.11099 0.0271 0.0
H391 H 0.49905 0.07941 0.00439 0.0
H392 H 0.41825 0.08674 0.0628 0.0
H393 H 0.3684 0.02498 0.07939 0.0
C394 C 0.45691 0.11801 0.27146 0.0
C395 C 0.38501 0.14186 0.27214 0.0
C396 C 0.36471 0.07696 0.30977 0.0
C397 C 0.43155 0.04258 0.30642 0.0
N398 N 0.54154 0.02732 0.28382 0.0
N399 N 0.26953 0.1462 0.29149 0.0
C400 C 0.4785 0.06319 0.28747 0.0
C401 C 0.33875 0.12275 0.29137 0.0
N402 N 0.50398 0.14714 0.25525 0.0
N403 N 0.32718 0.0667 0.33071 0.0
H404 H 0.25011 0.1823 0.27874 0.0
H405 H 0.23071 0.12746 0.30345 0.0
H406 H 0.34718 0.03576 0.3448 0.0
H407 H 0.28045 0.09426 0.33513 0.0
H408 H 0.55877 0.13711 0.25543 0.0
H409 H 0.48935 0.18671 0.24297 0.0
H410 H 0.57371 0.03401 0.26858 0.0
H411 H 0.5598 0.98686 0.29517 0.0
C412 C 0.83335 0.03546 0.53242 0.0
C413 C 0.84958 0.07798 0.51193 0.0
C414 C 0.75936 0.16656 0.52447 0.0
C415 C 0.74897 0.12824 0.54628 0.0
N416 N 0.77797 0.02889 0.57206 0.0
N417 N 0.83417 0.18659 0.48911 0.0
C418 C 0.78628 0.06315 0.55047 0.0
C419 C 0.81405 0.14429 0.50812 0.0
N420 N 0.86106 0.96767 0.5342 0.0
N421 N 0.71716 0.22462 0.51959 0.0
H422 H 0.87501 0.17226 0.47709 0.0
H423 H 0.81492 0.23828 0.48625 0.0
H424 H 0.67705 0.24252 0.53133 0.0
H425 H 0.71747 0.25152 0.50316 0.0
H426 H 0.84469 0.93073 0.54716 0.0
H427 H 0.89752 0.94639 0.52174 0.0
H428 H 0.81054 0.98702 0.57776 0.0
H429 H 0.73976 0.04473 0.58477 0.0
C430 C 0.83974 0.98223 0.28945 0.0
C431 C 0.80467 0.99504 0.26716 0.0
C432 C 0.71232 0.90606 0.27726 0.0
C433 C 0.74292 0.89923 0.30062 0.0
N434 N 0.83191 0.93442 0.33001 0.0
N435 N 0.70456 0.97577 0.2404 0.0
C436 C 0.80592 0.938 0.30694 0.0
C437 C 0.74022 0.95844 0.26115 0.0
N438 N 0.90612 0.01104 0.29364 0.0
N439 N 0.65603 0.86289 0.27064 0.0
H440 H 0.72346 0.01412 0.22826 0.0
H441 H 0.65365 0.95677 0.23608 0.0
H442 H 0.63341 0.82504 0.2822 0.0
H443 H 0.63539 0.86011 0.25315 0.0
H444 H 0.93806 0.99699 0.30826 0.0
H445 H 0.93157 0.04572 0.28159 0.0
H446 H 0.8715 0.9686 0.33685 0.0
H447 H 0.81113 0.89907 0.34274 0.0
C448 C 0.8506 0.9004 0.03 0.0
C449 C 0.86288 0.96372 0.01623 0.0
C450 C 0.98089 0.97556 0.03403 0.0
C451 C 0.96689 0.91662 0.04967 0.0
N452 N 0.87496 0.84319 0.06818 0.0
N453 N 0.92703 0.07658 0.01414 0.0
C454 C 0.89742 0.88521 0.04954 0.0
C455 C 0.92331 0.00691 0.02165 0.0
N456 N 0.7979 0.85242 0.02391 0.0
N457 N 0.04903 0.9979 0.02899 0.0
H458 H 0.88423 0.1015 0.00549 0.0
H459 H 0.96933 0.11073 0.01892 0.0
H460 H 0.09444 0.96968 0.0342 0.0
H461 H 0.05986 0.0382 0.01646 0.0
H462 H 0.79093 0.80379 0.03288 0.0
H463 H 0.76589 0.85717 0.00862 0.0
H464 H 0.82243 0.82445 0.06956 0.0
H465 H 0.90587 0.83474 0.08358 0.0
C466 C 0.87708 0.02199 0.78448 0.0
C467 C 0.91262 0.01087 0.76206 0.0
C468 C 0.0079 0.09434 0.77426 0.0
C469 C 0.97249 0.10464 0.7968 0.0
N470 N 0.88867 0.06006 0.82632 0.0
N471 N 0.02061 0.01952 0.73824 0.0
C472 C 0.91194 0.06236 0.80286 0.0
C473 C 0.98113 0.04147 0.75783 0.0
N474 N 0.80878 0.99729 0.78783 0.0
N475 N 0.06408 0.1376 0.76789 0.0
H476 H 0.00235 0.98071 0.72587 0.0
H477 H 0.0738 0.03456 0.73557 0.0
H478 H 0.08551 0.17709 0.77932 0.0
H479 H 0.08637 0.13774 0.75058 0.0
H480 H 0.77791 0.01088 0.80293 0.0
H481 H 0.78053 0.96835 0.77465 0.0
H482 H 0.84841 0.02539 0.8322 0.0
H483 H 0.91552 0.08682 0.84032 0.0
C484 C 0.82186 0.98506 0.41368 0.0
C485 C 0.8419 0.94767 0.43489 0.0
C486 C 0.7541 0.85228 0.42556 0.0
C487 C 0.73603 0.88864 0.40402 0.0
N488 N 0.73735 0.99583 0.38044 0.0
N489 N 0.82271 0.85046 0.46288 0.0
C490 C 0.76531 0.95721 0.39903 0.0
C491 C 0.80628 0.88275 0.44143 0.0
N492 N 0.85745 0.04671 0.40751 0.0
N493 N 0.72361 0.78662 0.43003 0.0
H494 H 0.86486 0.86758 0.47393 0.0
H495 H 0.79382 0.80796 0.47022 0.0
H496 H 0.68236 0.76546 0.41935 0.0
H497 H 0.73981 0.75215 0.44366 0.0
H498 H 0.85029 0.07329 0.39121 0.0
H499 H 0.89806 0.06925 0.41812 0.0
H500 H 0.75244 0.04819 0.37621 0.0
H501 H 0.69314 0.97716 0.37072 0.0
C502 C 0.90939 0.99985 0.16903 0.0
C503 C 0.94483 0.9997 0.19178 0.0
C504 C 0.01785 0.89746 0.17873 0.0
C505 C 0.98354 0.89902 0.15584 0.0
N506 N 0.91324 0.96359 0.12679 0.0
N507 N 0.04428 0.96192 0.21614 0.0
C508 C 0.93474 0.9543 0.1502 0.0
C509 C 0.00298 0.95276 0.19593 0.0
N510 N 0.84872 0.03957 0.16582 0.0
N511 N 0.06251 0.842 0.18435 0.0
H512 H 0.03481 1.00282 0.22887 0.0
H513 H 0.09164 0.93396 0.21904 0.0
H514 H 0.07571 0.80112 0.17206 0.0
H515 H 0.08277 0.83389 0.20167 0.0
H516 H 0.8165 0.03481 0.1505 0.0
H517 H 0.82675 0.07281 0.17919 0.0
H518 H 0.88302 0.00743 0.12123 0.0
H519 H 0.93199 0.93155 0.11251 0.0
C520 C 0.93206 0.99148 0.92364 0.0
C521 C 0.86901 0.02955 0.92949 0.0
C522 C 0.90175 0.12016 0.89952 0.0
C523 C 0.97129 0.08986 0.89792 0.0
N524 N 0.05712 0.00774 0.91563 0.0
N525 N 0.80033 0.13975 0.92585 0.0
C526 C 0.98788 0.0283 0.91191 0.0
C527 C 0.85506 0.09656 0.91816 0.0
N528 N 0.93935 0.92088 0.92979 0.0
N529 N 0.87911 0.16934 0.88307 0.0
H530 H 0.76724 0.12754 0.94044 0.0
H531 H 0.79238 0.19141 0.9192 0.0
H532 H 0.91018 0.1855 0.86841 0.0
H533 H 0.8265 0.18771 0.88249 0.0
H534 H 0.98332 0.89011 0.92441 0.0
H535 H 0.898 0.89175 0.9379 0.0
H536 H 0.0706 0.9658 0.92716 0.0
H537 H 0.101 0.03835 0.9101 0.0
C538 C 0.71686 0.04814 0.68998 0.0
C539 C 0.78085 0.00968 0.6848 0.0
C540 C 0.79271 0.0721 0.64608 0.0
C541 C 0.7256 0.10529 0.65021 0.0
N542 N 0.62196 0.12534 0.67537 0.0
N543 N 0.87822 0.98067 0.6578 0.0
C544 C 0.68761 0.0942 0.67215 0.0
C545 C 0.81845 0.0205 0.66279 0.0
N546 N 0.68446 0.04071 0.71209 0.0
N547 N 0.83236 0.09177 0.6264 0.0
H548 H 0.89939 0.94369 0.66991 0.0
H549 H 0.90433 0.98036 0.64113 0.0
H550 H 0.81527 0.13144 0.61458 0.0
H551 H 0.88423 0.07429 0.62295 0.0
H552 H 0.64297 0.07322 0.71832 0.0
H553 H 0.70111 0.00348 0.7249 0.0
H554 H 0.58716 0.11332 0.68951 0.0
H555 H 0.60026 0.16152 0.66311 0.0
C556 C 0.7933 0.37839 0.94516 0.0
C557 C 0.74595 0.43384 0.93767 0.0
C558 C 0.81077 0.44348 0.89914 0.0
C559 C 0.85883 0.38887 0.90671 0.0
N560 N 0.8916 0.29728 0.93495 0.0
N561 N 0.70155 0.51089 0.90628 0.0
C562 C 0.84877 0.35409 0.92918 0.0
C563 C 0.75201 0.46341 0.91418 0.0
N564 N 0.78563 0.35032 0.96782 0.0
N565 N 0.82305 0.47824 0.87778 0.0
H566 H 0.65971 0.52972 0.91706 0.0
H567 H 0.69741 0.52804 0.88846 0.0
H568 H 0.86411 0.46416 0.86588 0.0
H569 H 0.7959 0.52407 0.87236 0.0
H570 H 0.82196 0.31548 -0.02427 0.0
H571 H 0.74271 0.36356 -0.02087 0.0
H572 H 0.88403 0.26491 0.95 0.0
H573 H 0.93343 0.27991 0.9238 0.0
C574 C 0.9599 0.40516 0.17858 0.0
C575 C 0.88927 0.37715 0.17924 0.0
C576 C 0.86189 0.43631 0.14103 0.0
C577 C 0.92753 0.47435 0.14279 0.0
N578 N 0.03954 0.49729 0.16333 0.0
N579 N 0.77188 0.36503 0.1617 0.0
C580 C 0.97732 0.45857 0.16137 0.0
C581 C 0.84002 0.39178 0.16047 0.0
N582 N 0.00997 0.38086 0.19455 0.0
N583 N 0.82182 0.44141 0.12049 0.0
H584 H 0.75526 0.32992 0.17525 0.0
H585 H 0.73101 0.38045 0.15009 0.0
H586 H 0.83938 0.47063 0.1056 0.0
H587 H 0.77591 0.41094 0.11718 0.0
H588 H 0.06418 0.39365 0.19347 0.0
H589 H 0.99851 0.34254 0.2077 0.0
H590 H 0.07381 0.49444 0.17813 0.0
H591 H 0.05511 0.53606 0.15084 0.0
C592 C 0.94367 0.50372 0.42629 0.0
C593 C 0.97133 0.56044 0.44094 0.0
C594 C 0.90786 0.64963 0.4171 0.0
C595 C 0.88119 0.59304 0.40203 0.0
N596 N 0.88624 0.46939 0.38849 0.0
N597 N 0.99363 0.68716 0.44763 0.0
C598 C 0.90297 0.52087 0.40549 0.0
C599 C 0.9582 0.63342 0.43537 0.0
N600 N 0.955 0.43367 0.4326 0.0
N601 N 0.88169 0.71798 0.41512 0.0
H602 H 0.02869 0.67751 0.46191 0.0
H603 H 0.99287 0.74092 0.44247 0.0
H604 H 0.84348 0.73267 0.40244 0.0
H605 H 0.89354 0.75939 0.42733 0.0
H606 H 0.92939 0.39009 0.42428 0.0
H607 H 0.98681 0.41913 0.44725 0.0
H608 H 0.90605 0.41709 0.38876 0.0
H609 H 0.85779 0.48092 0.37275 0.0
C610 C 0.71494 0.54575 0.7017 0.0
C611 C 0.76112 0.60289 0.69451 0.0
C612 C 0.7642 0.55191 0.65352 0.0
C613 C 0.72691 0.48964 0.66168 0.0
N614 N 0.6787 0.4217 0.69474 0.0
N615 N 0.84407 0.64894 0.66459 0.0
C616 C 0.70576 0.48479 0.68616 0.0
C617 C 0.7893 0.60339 0.67064 0.0
N618 N 0.67915 0.55037 0.72325 0.0
N619 N 0.77631 0.56225 0.62939 0.0
H620 H 0.86753 0.68542 0.67666 0.0
H621 H 0.87156 0.64516 0.64817 0.0
H622 H 0.76388 0.52424 0.61605 0.0
H623 H 0.79459 0.61109 0.62252 0.0
H624 H 0.64115 0.51263 0.72868 0.0
H625 H 0.6826 0.59567 0.73457 0.0
H626 H 0.67142 0.41242 0.71316 0.0
H627 H 0.67101 0.37644 0.68366 0.0
C628 C 0.79131 0.64814 0.00352 0.0
C629 C 0.74226 0.59219 0.00937 0.0
C630 C 0.79258 0.58662 0.05017 0.0
C631 C 0.84848 0.63425 0.0431 0.0
N632 N 0.90323 0.70963 0.01307 0.0
N633 N 0.70327 0.5003 0.03723 0.0
C634 C 0.84849 0.66497 0.01974 0.0
C635 C 0.74409 0.55993 0.03252 0.0
N636 N 0.78227 0.68543 -0.01745 0.0
N637 N 0.78539 0.56663 0.07382 0.0
H638 H 0.66681 0.47803 0.02499 0.0
H639 H 0.70984 0.46899 0.05261 0.0
H640 H 0.82145 0.58123 0.08738 0.0
H641 H 0.74027 0.54003 0.0804 0.0
H642 H 0.81206 0.73085 -0.02196 0.0
H643 H 0.7402 0.67447 0.97063 0.0
H644 H 0.91021 0.72861 -0.00445 0.0
H645 H 0.94417 0.72483 0.02493 0.0
C646 C 0.85706 0.44509 0.2753 0.0
C647 C 0.80552 0.40104 0.26343 0.0
C648 C 0.70837 0.46823 0.28316 0.0
C649 C 0.76011 0.51112 0.2956 0.0
N650 N 0.88296 0.52636 0.30865 0.0
N651 N 0.68331 0.363 0.25779 0.0
C652 C 0.83435 0.49607 0.29301 0.0
C653 C 0.73138 0.41004 0.26803 0.0
N654 N 0.92791 0.43879 0.2694 0.0
N655 N 0.63733 0.48427 0.28553 0.0
H656 H 0.69847 0.32107 0.24617 0.0
H657 H 0.62894 0.36187 0.26181 0.0
H658 H 0.61886 0.52756 0.29593 0.0
H659 H 0.59643 0.45775 0.2763 0.0
H660 H 0.96675 0.47587 0.2749 0.0
H661 H 0.94747 0.39876 0.25776 0.0
H662 H 0.9364 0.51085 0.30939 0.0
H663 H 0.86916 0.56179 0.32265 0.0
C664 C 0.96376 0.53326 0.54581 0.0
C665 C 0.98339 0.48658 0.52649 0.0
C666 C 0.90499 0.39212 0.54198 0.0
C667 C 0.8855 0.43853 0.56151 0.0
N668 N 0.91093 0.5437 0.58587 0.0
N669 N 0.98909 0.3664 0.50961 0.0
C670 C 0.91942 0.50638 0.56463 0.0
C671 C 0.95964 0.41405 0.52583 0.0
N672 N 0.98563 0.60356 0.54576 0.0
N673 N 0.86834 0.32921 0.53791 0.0
H674 H 0.02882 0.38104 0.49728 0.0
H675 H 0.97922 0.31117 0.5099 0.0
H676 H 0.82684 0.31109 0.54893 0.0
H677 H 0.87507 0.29755 0.52241 0.0
H678 H 0.96646 0.64229 0.5579 0.0
H679 H 0.02015 0.62404 0.53262 0.0
H680 H 0.93842 0.5911 0.59007 0.0
H681 H 0.88228 0.52246 0.60035 0.0
C682 C 0.87034 0.63233 0.79325 0.0
C683 C 0.9002 0.62698 0.76962 0.0
C684 C 0.97648 0.52799 0.78207 0.0
C685 C 0.94502 0.532 0.80544 0.0
N686 N 0.8827 0.60211 0.83563 0.0
N687 N 0.99526 0.58606 0.74344 0.0
C688 C 0.89878 0.58909 0.81186 0.0
C689 C 0.95803 0.5801 0.76468 0.0
N690 N 0.81235 0.67527 0.79758 0.0
N691 N 0.02233 0.47318 0.77634 0.0
H692 H 0.98298 0.62467 0.73051 0.0
H693 H 0.04202 0.55772 0.73966 0.0
H694 H 0.04102 0.43676 0.7891 0.0
H695 H 0.03877 0.46158 0.75871 0.0
H696 H 0.78349 0.6746 0.81375 0.0
H697 H 0.78976 0.70805 0.78446 0.0
H698 H 0.85355 0.64663 0.84159 0.0
H699 H 0.90566 0.57279 0.84958 0.0
C700 C 0.30615 0.63834 0.00614 0.0
C701 C 0.342 0.57324 0.01184 0.0
C702 C 0.26577 0.55926 0.04776 0.0
C703 C 0.23604 0.62795 0.04361 0.0
N704 N 0.22643 0.73419 0.01936 0.0
N705 N 0.35882 0.47229 0.03822 0.0
C706 C 0.25486 0.66723 0.02264 0.0
C707 C 0.32248 0.53374 0.03272 0.0
N708 N 0.32127 0.67235 -0.01515 0.0
N709 N 0.23836 0.51838 0.066 0.0
H710 H 0.39982 0.45168 0.02736 0.0
H711 H 0.35205 0.44418 0.05427 0.0
H712 H 0.19467 0.5356 0.07628 0.0
H713 H 0.25357 0.46568 0.06947 0.0
H714 H 0.29148 0.71486 -0.02189 0.0
H715 H 0.36249 0.65615 -0.02674 0.0
H716 H 0.24458 0.77043 0.00646 0.0
H717 H 0.18582 0.75483 0.0304 0.0
C718 C 0.22504 0.44922 0.75879 0.0
C719 C 0.2856 0.49288 0.76425 0.0
C720 C 0.29513 0.43735 0.80422 0.0
C721 C 0.235 0.39327 0.7987 0.0
N722 N 0.1514 0.34601 0.76938 0.0
N723 N 0.38656 0.51996 0.78999 0.0
C724 C 0.20306 0.39534 0.77542 0.0
C725 C 0.32302 0.48459 0.78639 0.0
N726 N 0.18776 0.46086 0.7379 0.0
N727 N 0.32459 0.43476 0.82682 0.0
H728 H 0.40765 0.55667 0.77769 0.0
H729 H 0.42073 0.50998 0.80442 0.0
H730 H 0.30948 0.39609 0.8394 0.0
H731 H 0.36188 0.47188 0.83339 0.0
H732 H 0.14049 0.43445 0.73325 0.0
H733 H 0.20149 0.50127 0.72573 0.0
H734 H 0.12998 0.3401 0.75209 0.0
H735 H 0.13368 0.30652 0.78127 0.0
C736 C 0.35619 0.38469 0.52479 0.0
C737 C 0.37371 0.44544 0.51046 0.0
C738 C 0.49332 0.44603 0.52754 0.0
C739 C 0.47226 0.39446 0.5449 0.0
N740 N 0.3742 0.33107 0.56395 0.0
N741 N 0.45135 0.54994 0.50668 0.0
C742 C 0.40088 0.368 0.54472 0.0
C743 C 0.44 0.48121 0.51438 0.0
N744 N 0.29905 0.34174 0.51915 0.0
N745 N 0.5638 0.46041 0.523 0.0
H746 H 0.41069 0.58124 0.49942 0.0
H747 H 0.49827 0.5784 0.51062 0.0
H748 H 0.60537 0.43087 0.53056 0.0
H749 H 0.57994 0.49527 0.5093 0.0
H750 H 0.28722 0.29487 0.52861 0.0
H751 H 0.26859 0.3486 0.50355 0.0
H752 H 0.32046 0.31612 0.5652 0.0
H753 H 0.40363 0.32276 0.57969 0.0
C754 C 0.39523 0.52662 0.2759 0.0
C755 C 0.4383 0.51608 0.25496 0.0
C756 C 0.52226 0.6088 0.26913 0.0
C757 C 0.48099 0.61678 0.29064 0.0
N758 N 0.3864 0.57397 0.31673 0.0
N759 N 0.54856 0.53573 0.23345 0.0
C760 C 0.42021 0.57246 0.29473 0.0
C761 C 0.50381 0.55363 0.25216 0.0
N762 N 0.32835 0.49646 0.27718 0.0
N763 N 0.5767 0.65597 0.26431 0.0
H764 H 0.53606 0.49545 0.22079 0.0
H765 H 0.60045 0.55575 0.23177 0.0
H766 H 0.59187 0.69726 0.27618 0.0
H767 H 0.60352 0.65767 0.24777 0.0
H768 H 0.29103 0.50999 0.29049 0.0
H769 H 0.30731 0.46215 0.2639 0.0
H770 H 0.34735 0.5368 0.32175 0.0
H771 H 0.40152 0.60847 0.33085 0.0
C772 C 0.31572 0.36991 0.94039 0.0
C773 C 0.34618 0.43851 0.93563 0.0
C774 C 0.27429 0.44816 0.89874 0.0
C775 C 0.2452 0.37901 0.90324 0.0
N776 N 0.22356 0.28153 0.93053 0.0
N777 N 0.34736 0.54862 0.9129 0.0
C778 C 0.26113 0.34246 0.92491 0.0
C779 C 0.32345 0.47937 0.9155 0.0
N780 N 0.34038 0.33072 0.95947 0.0
N781 N 0.255 0.4833 0.8782 0.0
H782 H 0.38531 0.57218 0.92438 0.0
H783 H 0.32768 0.58421 0.90014 0.0
H784 H 0.21326 0.46479 0.86732 0.0
H785 H 0.28003 0.52952 0.87182 0.0
H786 H 0.32412 0.27842 0.96326 0.0
H787 H 0.38139 0.34886 0.97084 0.0
H788 H 0.22801 0.25463 0.94689 0.0
H789 H 0.18303 0.26094 0.91944 0.0
C790 C 0.39984 0.49324 0.66472 0.0
C791 C 0.42643 0.48988 0.68881 0.0
C792 C 0.49595 0.38254 0.67819 0.0
C793 C 0.47172 0.38823 0.65398 0.0
N794 N 0.41636 0.45797 0.6227 0.0
N795 N 0.51024 0.44138 0.71739 0.0
C796 C 0.42902 0.44682 0.64675 0.0
C797 C 0.47838 0.43781 0.69512 0.0
N798 N 0.34306 0.53641 0.65931 0.0
N799 N 0.53313 0.32299 0.68516 0.0
H800 H 0.50084 0.48342 0.72968 0.0
H801 H 0.54974 0.4062 0.72309 0.0
H802 H 0.54848 0.28236 0.67306 0.0
H803 H 0.54521 0.31149 0.7031 0.0
H804 H 0.31681 0.53453 0.64268 0.0
H805 H 0.31737 0.56929 0.67199 0.0
H806 H 0.39152 0.504 0.6162 0.0
H807 H 0.43696 0.42453 0.60908 0.0
C808 C 0.35828 0.53573 0.4101 0.0
C809 C 0.35511 0.56987 0.4331 0.0
C810 C 0.4535 0.65064 0.42258 0.0
C811 C 0.45844 0.61576 0.39962 0.0
N812 N 0.42061 0.52233 0.37164 0.0
N813 N 0.38462 0.66995 0.45929 0.0
C814 C 0.41144 0.55806 0.39323 0.0
C815 C 0.39781 0.6309 0.43862 0.0
N816 N 0.31018 0.48229 0.4046 0.0
N817 N 0.50594 0.69762 0.42995 0.0
H818 H 0.34286 0.65769 0.47114 0.0
H819 H 0.41077 0.71779 0.46375 0.0
H820 H 0.54841 0.71357 0.41895 0.0
H821 H 0.5109 0.71668 0.44768 0.0
H822 H 0.30551 0.45738 0.38772 0.0
H823 H 0.27104 0.46529 0.4168 0.0
H824 H 0.39252 0.47637 0.36638 0.0
H825 H 0.45915 0.53709 0.35894 0.0
C826 C 0.32042 0.51674 0.15729 0.0
C827 C 0.29276 0.51471 0.18121 0.0
C828 C 0.20206 0.60475 0.17101 0.0
C829 C 0.23081 0.60791 0.14721 0.0
N830 N 0.32302 0.57713 0.11855 0.0
N831 N 0.21261 0.56031 0.21203 0.0
C832 C 0.29178 0.56678 0.14064 0.0
C833 C 0.23529 0.56009 0.18844 0.0
N834 N 0.37353 0.47016 0.15047 0.0
N835 N 0.14054 0.64125 0.1765 0.0
H836 H 0.23119 0.52393 0.22482 0.0
H837 H 0.17775 0.59834 0.21935 0.0
H838 H 0.11562 0.67586 0.16444 0.0
H839 H 0.1115 0.63453 0.19242 0.0
H840 H 0.39085 0.46298 0.13269 0.0
H841 H 0.39775 0.43466 0.16241 0.0
H842 H 0.37106 0.55397 0.11306 0.0
H843 H 0.30366 0.61444 0.10633 0.0
loop_
_geom_bond_atom_site_label_1
_geom_bond_atom_site_label_2
_geom_bond_distance
_geom_bond_site_symmetry_2
_ccdc_geom_bond_type
H0 C6 0.930 . S
H1 C9 0.931 . S
H2 C11 0.931 . S
H3 C13 0.930 . S
H4 C15 0.930 . S
H5 C17 0.931 . S
C6 H0 0.930 . S
C6 C7 1.380 1_545 S
C6 C8 1.394 . S
C7 C6 1.380 1_565 S
C7 C11 1.382 . S
C8 C6 1.394 . S
C8 C9 1.400 . S
C9 H1 0.931 . S
C9 C8 1.400 . S
C9 C10 1.375 1_545 S
C10 C9 1.375 1_565 S
C10 C11 1.415 . S
C10 C12 1.501 1_655 S
C11 H2 0.931 . S
C11 C7 1.382 . S
C11 C10 1.415 . S
C12 C10 1.501 1_455 S
C12 C13 1.384 . S
C12 C17 1.408 1_565 S
C13 H3 0.930 . S
C13 C12 1.384 . S
C13 C14 1.389 . S
C14 C13 1.389 . S
C14 C15 1.405 . S
C15 H4 0.930 . S
C15 C14 1.405 . S
C15 C16 1.364 1_565 S
C16 C15 1.364 1_545 S
C16 C17 1.400 . S
C17 H5 0.931 . S
C17 C12 1.408 1_545 S
C17 C16 1.400 . S
H18 C24 0.930 . S
H19 C27 0.931 . S
H20 C29 0.931 . S
H21 C31 0.930 . S
H22 C33 0.930 . S
H23 C35 0.931 . S
C24 H18 0.930 . S
C24 C25 1.380 . S
C24 C26 1.394 . S
C25 C24 1.380 . S
C25 C29 1.382 . S
C26 C24 1.394 . S
C26 C27 1.400 . S
C27 H19 0.931 . S
C27 C26 1.400 . S
C27 C28 1.375 . S
C28 C27 1.375 . S
C28 C29 1.415 . S
C28 C30 1.501 . S
C29 H20 0.931 . S
C29 C25 1.382 . S
C29 C28 1.415 . S
C30 C28 1.501 . S
C30 C31 1.384 . S
C30 C35 1.408 . S
C31 H21 0.930 . S
C31 C30 1.384 . S
C31 C32 1.389 . S
C32 C31 1.389 . S
C32 C33 1.405 . S
C33 H22 0.930 . S
C33 C32 1.405 . S
C33 C34 1.364 . S
C34 C33 1.364 . S
C34 C35 1.400 . S
C35 H23 0.931 . S
C35 C30 1.408 . S
C35 C34 1.400 . S
H36 C42 0.931 . S
H37 C45 0.931 . S
H38 C47 0.931 . S
H39 C49 0.930 . S
H40 C51 0.930 . S
H41 C53 0.931 . S
C42 H36 0.931 . S
C42 C43 1.381 1_564 S
C42 C44 1.394 . S
C43 C42 1.381 1_546 S
C43 C47 1.382 . S
C44 C42 1.394 . S
C44 C45 1.400 . S
C45 H37 0.931 . S
C45 C44 1.400 . S
C45 C46 1.375 1_565 S
C46 C45 1.375 1_545 S
C46 C47 1.415 1_554 S
C46 C48 1.501 . S
C47 H38 0.931 . S
C47 C43 1.382 . S
C47 C46 1.415 1_556 S
C48 C46 1.501 . S
C48 C49 1.384 1_554 S
C48 C53 1.408 1_545 S
C49 H39 0.930 . S
C49 C48 1.384 1_556 S
C49 C50 1.389 . S
C50 C49 1.389 . S
C50 C51 1.405 1_556 S
C51 H40 0.930 . S
C51 C50 1.405 1_554 S
C51 C52 1.364 1_545 S
C52 C51 1.364 1_565 S
C52 C53 1.400 . S
C53 H41 0.931 . S
C53 C48 1.408 1_565 S
C53 C52 1.400 . S
H54 C60 0.930 . S
H55 C63 0.931 . S
H56 C65 0.931 . S
H57 C67 0.930 . S
H58 C69 0.930 . S
H59 C71 0.931 . S
C60 H54 0.930 . S
C60 C61 1.380 . S
C60 C62 1.394 . S
C61 C60 1.380 . S
C61 C65 1.382 . S
C62 C60 1.394 . S
C62 C63 1.400 . S
C63 H55 0.931 . S
C63 C62 1.400 . S
C63 C64 1.375 . S
C64 C63 1.375 . S
C64 C65 1.415 . S
C64 C66 1.501 . S
C65 H56 0.931 . S
C65 C61 1.382 . S
C65 C64 1.415 . S
C66 C64 1.501 . S
C66 C67 1.384 . S
C66 C71 1.408 . S
C67 H57 0.930 . S
C67 C66 1.384 . S
C67 C68 1.389 . S
C68 C67 1.389 . S
C68 C69 1.405 . S
C69 H58 0.930 . S
C69 C68 1.405 . S
C69 C70 1.364 . S
C70 C69 1.364 . S
C70 C71 1.400 . S
C71 H59 0.931 . S
C71 C66 1.408 . S
C71 C70 1.400 . S
H72 C78 0.930 . S
H73 C81 0.931 . S
H74 C83 0.931 . S
H75 C85 0.930 . S
H76 C87 0.930 . S
H77 C89 0.931 . S
C78 H72 0.930 . S
C78 C79 1.380 . S
C78 C80 1.394 . S
C79 C78 1.380 . S
C79 C83 1.382 . S
C80 C78 1.394 . S
C80 C81 1.400 . S
C81 H73 0.931 . S
C81 C80 1.400 . S
C81 C82 1.375 . S
C82 C81 1.375 . S
C82 C83 1.415 . S
C82 C84 1.501 . S
C83 H74 0.931 . S
C83 C79 1.382 . S
C83 C82 1.415 . S
C84 C82 1.501 . S
C84 C85 1.384 . S
C84 C89 1.408 . S
C85 H75 0.930 . S
C85 C84 1.384 . S
C85 C86 1.389 . S
C86 C85 1.389 . S
C86 C87 1.405 1_545 S
C87 H76 0.930 . S
C87 C86 1.405 1_565 S
C87 C88 1.364 1_565 S
C88 C87 1.364 1_545 S
C88 C89 1.400 . S
C89 H77 0.931 . S
C89 C84 1.408 . S
C89 C88 1.400 . S
H90 C96 0.930 . S
H91 C99 0.931 . S
H92 C101 0.931 . S
H93 C103 0.930 . S
H94 C105 0.930 . S
H95 C107 0.931 . S
C96 H90 0.930 . S
C96 C97 1.380 1_545 S
C96 C98 1.394 1_545 S
C97 C96 1.380 1_565 S
C97 C101 1.382 . S
C98 C96 1.394 1_565 S
C98 C99 1.400 . S
C99 H91 0.931 . S
C99 C98 1.400 . S
C99 C100 1.375 . S
C100 C99 1.375 . S
C100 C101 1.415 . S
C100 C102 1.501 . S
C101 H92 0.931 . S
C101 C97 1.382 . S
C101 C100 1.415 . S
C102 C100 1.501 . S
C102 C103 1.384 . S
C102 C107 1.408 . S
C103 H93 0.930 . S
C103 C102 1.384 . S
C103 C104 1.389 . S
C104 C103 1.389 . S
C104 C105 1.405 . S
C105 H94 0.930 . S
C105 C104 1.405 . S
C105 C106 1.364 . S
C106 C105 1.364 . S
C106 C107 1.400 . S
C107 H95 0.931 . S
C107 C102 1.408 . S
C107 C106 1.400 . S
H108 C114 0.932 . S
H109 C117 0.931 . S
H110 C119 0.931 . S
H111 C121 0.930 . S
H112 C123 0.930 . S
H113 C125 0.931 . S
C114 H108 0.932 . S
C114 C115 1.380 . S
C114 C116 1.394 1_554 S
C115 C114 1.380 . S
C115 C119 1.382 . S
C116 C114 1.394 1_556 S
C116 C117 1.400 . S
C117 H109 0.931 . S
C117 C116 1.400 . S
C117 C118 1.375 1_556 S
C118 C117 1.375 1_554 S
C118 C119 1.415 . S
C118 C120 1.501 . S
C119 H110 0.931 . S
C119 C115 1.382 . S
C119 C118 1.415 . S
C120 C118 1.501 . S
C120 C121 1.384 . S
C120 C125 1.408 1_554 S
C121 H111 0.930 . S
C121 C120 1.384 . S
C121 C122 1.389 . S
C122 C121 1.389 . S
C122 C123 1.405 . S
C123 H112 0.930 . S
C123 C122 1.405 . S
C123 C124 1.364 1_554 S
C124 C123 1.364 1_556 S
C124 C125 1.400 . S
C125 H113 0.931 . S
C125 C120 1.408 1_556 S
C125 C124 1.400 . S
H126 C132 0.930 . S
H127 C135 0.931 . S
H128 C137 0.931 . S
H129 C139 0.930 . S
H130 C141 0.927 1_655 S
H131 C143 0.931 . S
C132 H126 0.930 . S
C132 C133 1.380 . S
C132 C134 1.394 . S
C133 C132 1.380 . S
C133 C137 1.382 . S
C134 C132 1.394 . S
C134 C135 1.400 . S
C135 H127 0.931 . S
C135 C134 1.400 . S
C135 C136 1.375 . S
C136 C135 1.375 . S
C136 C137 1.415 . S
C136 C138 1.501 . S
C137 H128 0.931 . S
C137 C133 1.382 . S
C137 C136 1.415 . S
C138 C136 1.501 . S
C138 C139 1.384 . S
C138 C143 1.408 . S
C139 H129 0.930 . S
C139 C138 1.384 . S
C139 C140 1.389 . S
C140 C139 1.389 . S
C140 C141 1.406 . S
C141 H130 0.927 1_455 S
C141 C140 1.406 . S
C141 C142 1.366 . S
C142 C141 1.366 . S
C142 C143 1.400 . S
C143 H131 0.931 . S
C143 C138 1.408 . S
C143 C142 1.400 . S
C144 O171 1.312 . S
C144 O172 1.208 . S
C145 O166 1.331 1_655 S
C145 O169 1.244 . S
C146 O168 1.264 1_655 S
C146 O170 1.273 . S
Mg147 O149 1.936 . S
Mg147 O156 2.081 . S
Mg147 O158 2.023 . S
Mg147 O162 2.031 . S
Mg147 O171 2.291 . S
Mg148 O149 1.963 . S
Mg148 O159 1.942 . S
Mg148 O160 1.955 . S
Mg148 O167 1.986 . S
O149 Mg147 1.936 . S
O149 Mg148 1.963 . S
O149 Mg150 1.915 . S
Mg150 O149 1.915 . S
Mg150 O151 1.915 . S
Mg150 O155 2.013 . S
Mg150 O161 2.114 . S
Mg150 O165 2.013 . S
Mg150 O171 2.114 . S
O151 Mg150 1.915 . S
O151 Mg152 1.936 . S
O151 Mg153 1.963 1_455 S
Mg152 O151 1.936 . S
Mg152 O161 2.291 . S
Mg152 O166 2.081 . S
Mg152 O168 2.023 . S
Mg152 O172 2.031 . S
Mg153 O151 1.963 1_655 S
Mg153 O157 1.986 . S
Mg153 O169 1.942 . S
Mg153 O170 1.955 . S
C154 O165 1.191 . S
C154 O167 1.307 . S
O155 Mg150 2.013 . S
O155 C174 1.191 . S
O156 Mg147 2.081 . S
O156 C164 1.331 . S
O157 Mg153 1.986 . S
O157 C174 1.307 1_655 S
O158 Mg147 2.023 . S
O158 C173 1.264 . S
O159 Mg148 1.942 . S
O159 C164 1.244 . S
O160 Mg148 1.955 . S
O160 C173 1.273 . S
O161 Mg150 2.114 . S
O161 Mg152 2.291 . S
O161 C163 1.312 . S
O162 Mg147 2.031 . S
O162 C163 1.208 . S
C163 O161 1.312 . S
C163 O162 1.208 . S
C164 O156 1.331 . S
C164 O159 1.244 . S
O165 Mg150 2.013 . S
O165 C154 1.191 . S
O166 C145 1.331 1_455 S
O166 Mg152 2.081 . S
O167 Mg148 1.986 . S
O167 C154 1.307 . S
O168 C146 1.264 1_455 S
O168 Mg152 2.023 . S
O169 C145 1.244 . S
O169 Mg153 1.942 . S
O170 C146 1.273 . S
O170 Mg153 1.955 . S
O171 C144 1.312 . S
O171 Mg147 2.291 . S
O171 Mg150 2.114 . S
O172 C144 1.208 . S
O172 Mg152 2.031 . S
C173 O158 1.264 . S
C173 O160 1.273 . S
C174 O155 1.191 . S
C174 O157 1.307 1_455 S
C175 O202 1.312 . S
C175 O203 1.208 . S
C176 O197 1.331 . S
C176 O200 1.244 . S
C177 O199 1.264 . S
C177 O201 1.273 . S
Mg178 O180 1.936 . S
Mg178 O187 2.081 . S
Mg178 O189 2.023 . S
Mg178 O193 2.031 . S
Mg178 O202 2.291 . S
Mg179 O180 1.963 . S
Mg179 O190 1.942 . S
Mg179 O191 1.955 . S
Mg179 O198 1.986 . S
O180 Mg178 1.936 . S
O180 Mg179 1.963 . S
O180 Mg181 1.915 . S
Mg181 O180 1.915 . S
Mg181 O182 1.915 . S
Mg181 O186 2.013 . S
Mg181 O192 2.114 . S
Mg181 O196 2.013 . S
Mg181 O202 2.114 . S
O182 Mg181 1.915 . S
O182 Mg183 1.936 . S
O182 Mg184 1.963 . S
Mg183 O182 1.936 . S
Mg183 O192 2.291 . S
Mg183 O197 2.081 . S
Mg183 O199 2.023 . S
Mg183 O203 2.031 . S
Mg184 O182 1.963 . S
Mg184 O188 1.986 . S
Mg184 O200 1.942 . S
Mg184 O201 1.955 . S
C185 O196 1.191 . S
C185 O198 1.307 . S
O186 Mg181 2.013 . S
O186 C205 1.191 . S
O187 Mg178 2.081 . S
O187 C195 1.331 . S
O188 Mg184 1.986 . S
O188 C205 1.307 . S
O189 Mg178 2.023 . S
O189 C204 1.264 . S
O190 Mg179 1.942 . S
O190 C195 1.244 . S
O191 Mg179 1.955 . S
O191 C204 1.273 . S
O192 Mg181 2.114 . S
O192 Mg183 2.291 . S
O192 C194 1.312 . S
O193 Mg178 2.031 . S
O193 C194 1.208 . S
C194 O192 1.312 . S
C194 O193 1.208 . S
C195 O187 1.331 . S
C195 O190 1.244 . S
O196 Mg181 2.013 . S
O196 C185 1.191 . S
O197 C176 1.331 . S
O197 Mg183 2.081 . S
O198 Mg179 1.986 . S
O198 C185 1.307 . S
O199 C177 1.264 . S
O199 Mg183 2.023 . S
O200 C176 1.244 . S
O200 Mg184 1.942 . S
O201 C177 1.273 . S
O201 Mg184 1.955 . S
O202 C175 1.312 . S
O202 Mg178 2.291 . S
O202 Mg181 2.114 . S
O203 C175 1.208 . S
O203 Mg183 2.031 . S
C204 O189 1.264 . S
C204 O191 1.273 . S
C205 O186 1.191 . S
C205 O188 1.307 . S
C206 O233 1.312 . S
C206 O234 1.208 . S
C207 O228 1.331 . S
C207 O231 1.244 . S
C208 O230 1.264 . S
C208 O232 1.273 . S
Mg209 O211 1.936 . S
Mg209 O218 2.081 . S
Mg209 O220 2.023 . S
Mg209 O224 2.031 . S
Mg209 O233 2.291 . S
Mg210 O211 1.963 . S
Mg210 O221 1.942 . S
Mg210 O222 1.955 . S
Mg210 O229 1.986 . S
O211 Mg209 1.936 . S
O211 Mg210 1.963 . S
O211 Mg212 1.915 . S
Mg212 O211 1.915 . S
Mg212 O213 1.915 . S
Mg212 O217 2.013 . S
Mg212 O223 2.114 . S
Mg212 O227 2.013 . S
Mg212 O233 2.114 . S
O213 Mg212 1.915 . S
O213 Mg214 1.936 . S
O213 Mg215 1.963 . S
Mg214 O213 1.936 . S
Mg214 O223 2.291 . S
Mg214 O228 2.081 . S
Mg214 O230 2.023 . S
Mg214 O234 2.031 . S
Mg215 O213 1.963 . S
Mg215 O219 1.986 . S
Mg215 O231 1.942 . S
Mg215 O232 1.955 . S
C216 O227 1.191 . S
C216 O229 1.307 . S
O217 Mg212 2.013 . S
O217 C236 1.191 . S
O218 Mg209 2.081 . S
O218 C226 1.331 . S
O219 Mg215 1.986 . S
O219 C236 1.307 . S
O220 Mg209 2.023 . S
O220 C235 1.264 . S
O221 Mg210 1.942 . S
O221 C226 1.244 . S
O222 Mg210 1.955 . S
O222 C235 1.273 . S
O223 Mg212 2.114 . S
O223 Mg214 2.291 . S
O223 C225 1.312 . S
O224 Mg209 2.031 . S
O224 C225 1.208 . S
C225 O223 1.312 . S
C225 O224 1.208 . S
C226 O218 1.331 . S
C226 O221 1.244 . S
O227 Mg212 2.013 . S
O227 C216 1.191 . S
O228 C207 1.331 . S
O228 Mg214 2.081 . S
O229 Mg210 1.986 . S
O229 C216 1.307 . S
O230 C208 1.264 . S
O230 Mg214 2.023 . S
O231 C207 1.244 . S
O231 Mg215 1.942 . S
O232 C208 1.273 . S
O232 Mg215 1.955 . S
O233 C206 1.312 . S
O233 Mg209 2.291 . S
O233 Mg212 2.114 . S
O234 C206 1.208 . S
O234 Mg214 2.031 . S
C235 O220 1.264 . S
C235 O222 1.273 . S
C236 O217 1.191 . S
C236 O219 1.307 . S
C237 O264 1.312 . S
C237 O265 1.208 . S
C238 O259 1.331 . S
C238 O262 1.244 . S
C239 O261 1.264 . S
C239 O263 1.273 . S
Mg240 O242 1.936 . S
Mg240 O249 2.081 . S
Mg240 O251 2.023 . S
Mg240 O255 2.031 . S
Mg240 O264 2.291 . S
Mg241 O242 1.963 1_655 S
Mg241 O252 1.942 . S
Mg241 O253 1.955 . S
Mg241 O260 1.986 . S
O242 Mg240 1.936 . S
O242 Mg241 1.963 1_455 S
O242 Mg243 1.915 . S
Mg243 O242 1.915 . S
Mg243 O244 1.915 . S
Mg243 O248 2.013 . S
Mg243 O254 2.114 . S
Mg243 O258 2.013 . S
Mg243 O264 2.114 . S
O244 Mg243 1.915 . S
O244 Mg245 1.936 . S
O244 Mg246 1.963 . S
Mg245 O244 1.936 . S
Mg245 O254 2.291 . S
Mg245 O259 2.081 . S
Mg245 O261 2.023 . S
Mg245 O265 2.031 . S
Mg246 O244 1.963 . S
Mg246 O250 1.986 . S
Mg246 O262 1.942 . S
Mg246 O263 1.955 . S
C247 O258 1.191 . S
C247 O260 1.307 1_455 S
O248 Mg243 2.013 . S
O248 C267 1.191 . S
O249 Mg240 2.081 . S
O249 C257 1.331 1_455 S
O250 Mg246 1.986 . S
O250 C267 1.307 . S
O251 Mg240 2.023 . S
O251 C266 1.264 1_455 S
O252 Mg241 1.942 . S
O252 C257 1.244 . S
O253 Mg241 1.955 . S
O253 C266 1.273 . S
O254 Mg243 2.114 . S
O254 Mg245 2.291 . S
O254 C256 1.312 . S
O255 Mg240 2.031 . S
O255 C256 1.208 . S
C256 O254 1.312 . S
C256 O255 1.208 . S
C257 O249 1.331 1_655 S
C257 O252 1.244 . S
O258 Mg243 2.013 . S
O258 C247 1.191 . S
O259 C238 1.331 . S
O259 Mg245 2.081 . S
O260 Mg241 1.986 . S
O260 C247 1.307 1_655 S
O261 C239 1.264 . S
O261 Mg245 2.023 . S
O262 C238 1.244 . S
O262 Mg246 1.942 . S
O263 C239 1.273 . S
O263 Mg246 1.955 . S
O264 C237 1.312 . S
O264 Mg240 2.291 . S
O264 Mg243 2.114 . S
O265 C237 1.208 . S
O265 Mg245 2.031 . S
C266 O251 1.264 1_655 S
C266 O253 1.273 . S
C267 O248 1.191 . S
C267 O250 1.307 . S
C268 C269 1.363 . S
C268 C274 1.379 . S
C268 N276 1.356 . S
C269 C268 1.363 . S
C269 C275 1.363 . S
C270 C271 1.363 . S
C270 C275 1.379 . S
C270 N277 1.356 . S
C271 C270 1.363 . S
C271 C274 1.363 . S
N272 C274 1.356 . S
N272 H284 0.984 . S
N272 H285 0.985 . S
N273 C275 1.356 1_545 S
N273 H278 0.984 1_545 S
N273 H279 0.985 . S
C274 C268 1.379 . S
C274 C271 1.363 . S
C274 N272 1.356 . S
C275 C269 1.363 . S
C275 C270 1.379 . S
C275 N273 1.356 1_565 S
N276 C268 1.356 . S
N276 H282 0.984 . S
N276 H283 0.984 . S
N277 C270 1.356 . S
N277 H280 0.984 . S
N277 H281 0.985 1_565 S
H278 N273 0.984 1_565 S
H279 N273 0.985 . S
H280 N277 0.984 . S
H281 N277 0.985 1_545 S
H282 N276 0.984 . S
H283 N276 0.984 . S
H284 N272 0.984 . S
H285 N272 0.985 . S
C286 C287 1.363 . S
C286 C292 1.379 1_565 S
C286 N294 1.356 . S
C287 C286 1.363 . S
C287 C293 1.363 . S
C288 C289 1.363 1_565 S
C288 C293 1.379 . S
C288 N295 1.356 . S
C289 C288 1.363 1_545 S
C289 C292 1.363 . S
N290 C292 1.356 . S
N290 H302 0.984 . S
N290 H303 0.985 . S
N291 C293 1.356 . S
N291 H296 0.984 . S
N291 H297 0.985 . S
C292 C286 1.379 1_545 S
C292 C289 1.363 . S
C292 N290 1.356 . S
C293 C287 1.363 . S
C293 C288 1.379 . S
C293 N291 1.356 . S
N294 C286 1.356 . S
N294 H300 0.984 . S
N294 H301 0.984 . S
N295 C288 1.356 . S
N295 H298 0.984 1_565 S
N295 H299 0.985 . S
H296 N291 0.984 . S
H297 N291 0.985 . S
H298 N295 0.984 1_545 S
H299 N295 0.985 . S
H300 N294 0.984 . S
H301 N294 0.984 . S
H302 N290 0.984 . S
H303 N290 0.985 . S
C304 C305 1.363 . S
C304 C310 1.379 . S
C304 N312 1.356 1_545 S
C305 C304 1.363 . S
C305 C311 1.363 . S
C306 C307 1.363 . S
C306 C311 1.379 . S
C306 N313 1.356 . S
C307 C306 1.363 . S
C307 C310 1.363 . S
N308 C310 1.356 1_565 S
N308 H320 0.984 . S
N308 H321 0.985 1_565 S
N309 C311 1.356 . S
N309 H314 0.984 . S
N309 H315 0.985 . S
C310 C304 1.379 . S
C310 C307 1.363 . S
C310 N308 1.356 1_545 S
C311 C305 1.363 . S
C311 C306 1.379 . S
C311 N309 1.356 . S
N312 C304 1.356 1_565 S
N312 H318 0.984 . S
N312 H319 0.984 . S
N313 C306 1.356 . S
N313 H316 0.984 . S
N313 H317 0.985 . S
H314 N309 0.984 . S
H315 N309 0.985 . S
H316 N313 0.984 . S
H317 N313 0.985 . S
H318 N312 0.984 . S
H319 N312 0.984 . S
H320 N308 0.984 . S
H321 N308 0.985 1_545 S
C322 C323 1.363 . S
C322 C328 1.379 1_545 S
C322 N330 1.356 . S
C323 C322 1.363 . S
C323 C329 1.363 . S
C324 C325 1.363 1_545 S
C324 C329 1.379 . S
C324 N331 1.355 1_545 S
C325 C324 1.363 1_565 S
C325 C328 1.363 . S
N326 C328 1.356 . S
N326 H338 0.984 . S
N326 H339 0.985 . S
N327 C329 1.356 . S
N327 H332 0.984 . S
N327 H333 0.985 . S
C328 C322 1.379 1_565 S
C328 C325 1.363 . S
C328 N326 1.356 . S
C329 C323 1.363 . S
C329 C324 1.379 . S
C329 N327 1.356 . S
N330 C322 1.356 . S
N330 H336 0.984 . S
N330 H337 0.984 . S
N331 C324 1.355 1_565 S
N331 H334 0.986 . S
N331 H335 0.983 1_565 S
H332 N327 0.984 . S
H333 N327 0.985 . S
H334 N331 0.986 . S
H335 N331 0.983 1_545 S
H336 N330 0.984 . S
H337 N330 0.984 . S
H338 N326 0.984 . S
H339 N326 0.985 . S
C340 C341 1.363 . S
C340 C346 1.379 . S
C340 N348 1.356 . S
C341 C340 1.363 . S
C341 C347 1.363 . S
C342 C343 1.363 . S
C342 C347 1.379 . S
C342 N349 1.356 . S
C343 C342 1.363 . S
C343 C346 1.363 . S
N344 C346 1.356 . S
N344 H356 0.984 . S
N344 H357 0.985 . S
N345 C347 1.356 1_565 S
N345 H350 0.984 . S
N345 H351 0.985 . S
C346 C340 1.379 . S
C346 C343 1.363 . S
C346 N344 1.356 . S
C347 C341 1.363 . S
C347 C342 1.379 . S
C347 N345 1.356 1_545 S
N348 C340 1.356 . S
N348 H354 0.984 . S
N348 H355 0.984 . S
N349 C342 1.356 . S
N349 H352 0.984 . S
N349 H353 0.985 1_545 S
H350 N345 0.984 . S
H351 N345 0.985 . S
H352 N349 0.984 . S
H353 N349 0.985 1_565 S
H354 N348 0.984 . S
H355 N348 0.984 . S
H356 N344 0.984 . S
H357 N344 0.985 . S
C358 C359 1.363 . S
C358 C364 1.379 1_565 S
C358 N366 1.356 . S
C359 C358 1.363 . S
C359 C365 1.363 . S
C360 C361 1.363 1_565 S
C360 C365 1.379 . S
C360 N367 1.356 . S
C361 C360 1.363 1_545 S
C361 C364 1.363 . S
N362 C364 1.356 . S
N362 H374 0.984 . S
N362 H375 0.985 . S
N363 C365 1.356 . S
N363 H368 0.984 . S
N363 H369 0.985 . S
C364 C358 1.379 1_545 S
C364 C361 1.363 . S
C364 N362 1.356 . S
C365 C359 1.363 . S
C365 C360 1.379 . S
C365 N363 1.356 . S
N366 C358 1.356 . S
N366 H372 0.984 . S
N366 H373 0.984 . S
N367 C360 1.356 . S
N367 H370 0.984 1_565 S
N367 H371 0.985 . S
H368 N363 0.984 . S
H369 N363 0.985 . S
H370 N367 0.984 1_545 S
H371 N367 0.985 . S
H372 N366 0.984 . S
H373 N366 0.984 . S
H374 N362 0.984 . S
H375 N362 0.985 . S
C376 C377 1.363 . S
C376 C382 1.379 . S
C376 N384 1.356 . S
C377 C376 1.363 . S
C377 C383 1.363 . S
C378 C379 1.363 . S
C378 C383 1.379 . S
C378 N385 1.356 . S
C379 C378 1.363 . S
C379 C382 1.363 . S
N380 C382 1.356 . S
N380 H392 0.984 1_565 S
N380 H393 0.985 . S
N381 C383 1.356 . S
N381 H386 0.990 . S
N381 H387 0.985 1_554 S
C382 C376 1.379 . S
C382 C379 1.363 . S
C382 N380 1.356 . S
C383 C377 1.363 . S
C383 C378 1.379 . S
C383 N381 1.356 . S
N384 C376 1.356 . S
N384 H390 0.984 1_565 S
N384 H391 0.984 . S
N385 C378 1.356 . S
N385 H388 0.984 . S
N385 H389 0.985 . S
H386 N381 0.990 . S
H387 N381 0.985 1_556 S
H388 N385 0.984 . S
H389 N385 0.985 . S
H390 N384 0.984 1_545 S
H391 N384 0.984 . S
H392 N380 0.984 1_545 S
H393 N380 0.985 . S
C394 C395 1.363 . S
C394 C400 1.379 1_545 S
C394 N402 1.356 . S
C395 C394 1.363 . S
C395 C401 1.363 . S
C396 C397 1.363 1_545 S
C396 C401 1.379 . S
C396 N403 1.356 . S
C397 C396 1.363 1_565 S
C397 C400 1.363 . S
N398 C400 1.356 . S
N398 H410 0.984 . S
N398 H411 0.985 . S
N399 C401 1.356 . S
N399 H404 0.984 . S
N399 H405 0.985 . S
C400 C394 1.379 1_565 S
C400 C397 1.363 . S
C400 N398 1.356 . S
C401 C395 1.363 . S
C401 C396 1.379 . S
C401 N399 1.356 . S
N402 C394 1.356 . S
N402 H408 0.984 . S
N402 H409 0.984 . S
N403 C396 1.356 . S
N403 H406 0.984 1_545 S
N403 H407 0.985 . S
H404 N399 0.984 . S
H405 N399 0.985 . S
H406 N403 0.984 1_565 S
H407 N403 0.985 . S
H408 N402 0.984 . S
H409 N402 0.984 . S
H410 N398 0.984 . S
H411 N398 0.985 . S
C412 C413 1.363 . S
C412 C418 1.379 . S
C412 N420 1.356 . S
C413 C412 1.363 . S
C413 C419 1.363 . S
C414 C415 1.363 . S
C414 C419 1.379 . S
C414 N421 1.356 . S
C415 C414 1.363 . S
C415 C418 1.363 . S
N416 C418 1.356 . S
N416 H428 0.984 . S
N416 H429 0.985 . S
N417 C419 1.356 . S
N417 H422 0.984 . S
N417 H423 0.985 . S
C418 C412 1.379 . S
C418 C415 1.363 . S
C418 N416 1.356 . S
C419 C413 1.363 . S
C419 C414 1.379 . S
C419 N417 1.356 . S
N420 C412 1.356 . S
N420 H426 0.984 . S
N420 H427 0.984 . S
N421 C414 1.356 . S
N421 H424 0.984 . S
N421 H425 0.985 . S
H422 N417 0.984 . S
H423 N417 0.985 . S
H424 N421 0.984 . S
H425 N421 0.985 . S
H426 N420 0.984 . S
H427 N420 0.984 . S
H428 N416 0.984 . S
H429 N416 0.985 . S
C430 C431 1.363 . S
C430 C436 1.379 . S
C430 N438 1.356 1_565 S
C431 C430 1.363 . S
C431 C437 1.363 . S
C432 C433 1.363 . S
C432 C437 1.379 . S
C432 N439 1.356 . S
C433 C432 1.363 . S
C433 C436 1.363 . S
N434 C436 1.356 . S
N434 H446 0.984 . S
N434 H447 0.985 . S
N435 C437 1.356 . S
N435 H440 0.984 . S
N435 H441 0.985 . S
C436 C430 1.379 . S
C436 C433 1.363 . S
C436 N434 1.356 . S
C437 C431 1.363 . S
C437 C432 1.379 . S
C437 N435 1.356 . S
N438 C430 1.356 1_545 S
N438 H444 0.984 . S
N438 H445 0.984 . S
N439 C432 1.356 . S
N439 H442 0.984 . S
N439 H443 0.985 . S
H440 N435 0.984 . S
H441 N435 0.985 . S
H442 N439 0.984 . S
H443 N439 0.985 . S
H444 N438 0.984 . S
H445 N438 0.984 . S
H446 N434 0.984 . S
H447 N434 0.985 . S
C448 C449 1.363 . S
C448 C454 1.379 . S
C448 N456 1.356 . S
C449 C448 1.363 . S
C449 C455 1.363 . S
C450 C451 1.363 . S
C450 C455 1.379 . S
C450 N457 1.356 1_655 S
C451 C450 1.363 . S
C451 C454 1.363 . S
N452 C454 1.356 . S
N452 H464 0.984 . S
N452 H465 0.985 . S
N453 C455 1.356 1_545 S
N453 H458 0.984 . S
N453 H459 0.985 . S
C454 C448 1.379 . S
C454 C451 1.363 . S
C454 N452 1.356 . S
C455 C449 1.363 . S
C455 C450 1.379 . S
C455 N453 1.356 1_565 S
N456 C448 1.356 . S
N456 H462 0.984 . S
N456 H463 0.984 . S
N457 C450 1.356 1_455 S
N457 H460 0.984 . S
N457 H461 0.985 . S
H458 N453 0.984 . S
H459 N453 0.985 . S
H460 N457 0.984 . S
H461 N457 0.985 . S
H462 N456 0.984 . S
H463 N456 0.984 . S
H464 N452 0.984 . S
H465 N452 0.985 . S
C466 C467 1.363 . S
C466 C472 1.379 . S
C466 N474 1.356 1_545 S
C467 C466 1.363 . S
C467 C473 1.363 . S
C468 C469 1.363 . S
C468 C473 1.379 . S
C468 N475 1.356 . S
C469 C468 1.363 . S
C469 C472 1.363 . S
N470 C472 1.356 1_455 S
N470 H482 0.984 . S
N470 H483 0.985 . S
N471 C473 1.356 . S
N471 H476 0.984 . S
N471 H477 0.985 . S
C472 C466 1.379 . S
C472 C469 1.363 . S
C472 N470 1.356 1_655 S
C473 C467 1.363 . S
C473 C468 1.379 . S
C473 N471 1.356 . S
N474 C466 1.356 1_565 S
N474 H480 0.984 . S
N474 H481 0.984 . S
N475 C468 1.356 . S
N475 H478 0.984 1_655 S
N475 H479 0.985 . S
H476 N471 0.984 . S
H477 N471 0.985 . S
H478 N475 0.984 1_455 S
H479 N475 0.985 . S
H480 N474 0.984 . S
H481 N474 0.984 . S
H482 N470 0.984 . S
H483 N470 0.985 . S
C484 C485 1.363 . S
C484 C490 1.379 . S
C484 N492 1.356 1_565 S
C485 C484 1.363 . S
C485 C491 1.363 . S
C486 C487 1.363 . S
C486 C491 1.379 . S
C486 N493 1.356 . S
C487 C486 1.363 . S
C487 C490 1.363 . S
N488 C490 1.356 . S
N488 H500 0.984 1_565 S
N488 H501 0.985 . S
N489 C491 1.356 . S
N489 H494 0.984 . S
N489 H495 0.985 . S
C490 C484 1.379 . S
C490 C487 1.363 . S
C490 N488 1.356 . S
C491 C485 1.363 . S
C491 C486 1.379 . S
C491 N489 1.356 . S
N492 C484 1.356 1_545 S
N492 H498 0.984 . S
N492 H499 0.984 . S
N493 C486 1.356 . S
N493 H496 0.984 . S
N493 H497 0.985 . S
H494 N489 0.984 . S
H495 N489 0.985 . S
H496 N493 0.984 . S
H497 N493 0.985 . S
H498 N492 0.984 . S
H499 N492 0.984 . S
H500 N488 0.984 1_545 S
H501 N488 0.985 . S
C502 C503 1.363 . S
C502 C508 1.379 . S
C502 N510 1.356 1_565 S
C503 C502 1.363 . S
C503 C509 1.363 . S
C504 C505 1.363 . S
C504 C509 1.379 . S
C504 N511 1.356 1_655 S
C505 C504 1.363 . S
C505 C508 1.363 . S
N506 C508 1.356 . S
N506 H518 0.984 . S
N506 H519 0.985 . S
N507 C509 1.356 . S
N507 H512 0.984 . S
N507 H513 0.985 . S
C508 C502 1.379 . S
C508 C505 1.363 . S
C508 N506 1.356 . S
C509 C503 1.363 . S
C509 C504 1.379 . S
C509 N507 1.356 . S
N510 C502 1.356 1_545 S
N510 H516 0.984 . S
N510 H517 0.984 . S
N511 C504 1.356 1_455 S
N511 H514 0.984 . S
N511 H515 0.985 . S
H512 N507 0.984 . S
H513 N507 0.985 . S
H514 N511 0.984 . S
H515 N511 0.985 . S
H516 N510 0.984 . S
H517 N510 0.984 . S
H518 N506 0.984 . S
H519 N506 0.985 . S
C520 C521 1.363 . S
C520 C526 1.379 1_655 S
C520 N528 1.356 1_545 S
C521 C520 1.363 . S
C521 C527 1.363 . S
C522 C523 1.363 . S
C522 C527 1.379 . S
C522 N529 1.356 . S
C523 C522 1.363 . S
C523 C526 1.363 1_655 S
N524 C526 1.356 . S
N524 H536 0.984 . S
N524 H537 0.985 . S
N525 C527 1.356 . S
N525 H530 0.984 . S
N525 H531 0.985 . S
C526 C520 1.379 1_455 S
C526 C523 1.363 1_455 S
C526 N524 1.356 . S
C527 C521 1.363 . S
C527 C522 1.379 . S
C527 N525 1.356 . S
N528 C520 1.356 1_565 S
N528 H534 0.984 . S
N528 H535 0.984 . S
N529 C522 1.356 . S
N529 H532 0.984 . S
N529 H533 0.985 . S
H530 N525 0.984 . S
H531 N525 0.985 . S
H532 N529 0.984 . S
H533 N529 0.985 . S
H534 N528 0.984 . S
H535 N528 0.984 . S
H536 N524 0.984 . S
H537 N524 0.985 . S
C538 C539 1.363 . S
C538 C544 1.379 . S
C538 N546 1.356 . S
C539 C538 1.363 . S
C539 C545 1.363 . S
C540 C541 1.363 . S
C540 C545 1.379 . S
C540 N547 1.356 . S
C541 C540 1.363 . S
C541 C544 1.363 . S
N542 C544 1.356 . S
N542 H554 0.984 . S
N542 H555 0.985 . S
N543 C545 1.356 1_565 S
N543 H548 0.984 . S
N543 H549 0.985 . S
C544 C538 1.379 . S
C544 C541 1.363 . S
C544 N542 1.356 . S
C545 C539 1.363 . S
C545 C540 1.379 . S
C545 N543 1.356 1_545 S
N546 C538 1.356 . S
N546 H552 0.984 . S
N546 H553 0.984 . S
N547 C540 1.356 . S
N547 H550 0.984 . S
N547 H551 0.985 . S
H548 N543 0.984 . S
H549 N543 0.985 . S
H550 N547 0.984 . S
H551 N547 0.985 . S
H552 N546 0.984 . S
H553 N546 0.984 . S
H554 N542 0.984 . S
H555 N542 0.985 . S
C556 C557 1.363 . S
C556 C562 1.379 . S
C556 N564 1.356 . S
C557 C556 1.363 . S
C557 C563 1.363 . S
C558 C559 1.363 . S
C558 C563 1.379 . S
C558 N565 1.356 . S
C559 C558 1.363 . S
C559 C562 1.363 . S
N560 C562 1.356 . S
N560 H572 0.984 . S
N560 H573 0.985 . S
N561 C563 1.356 . S
N561 H566 0.984 . S
N561 H567 0.985 . S
C562 C556 1.379 . S
C562 C559 1.363 . S
C562 N560 1.356 . S
C563 C557 1.363 . S
C563 C558 1.379 . S
C563 N561 1.356 . S
N564 C556 1.356 . S
N564 H570 0.984 . S
N564 H571 0.984 . S
N565 C558 1.356 . S
N565 H568 0.984 . S
N565 H569 0.985 . S
H566 N561 0.984 . S
H567 N561 0.985 . S
H568 N565 0.984 . S
H569 N565 0.985 . S
H570 N564 0.984 . S
H571 N564 0.984 . S
H572 N560 0.984 . S
H573 N560 0.985 . S
C574 C575 1.363 . S
C574 C580 1.379 . S
C574 N582 1.356 . S
C575 C574 1.363 . S
C575 C581 1.363 . S
C576 C577 1.363 . S
C576 C581 1.379 . S
C576 N583 1.356 . S
C577 C576 1.363 . S
C577 C580 1.363 . S
N578 C580 1.356 . S
N578 H590 0.984 1_655 S
N578 H591 0.985 . S
N579 C581 1.356 . S
N579 H584 0.984 . S
N579 H585 0.985 . S
C580 C574 1.379 . S
C580 C577 1.363 . S
C580 N578 1.356 . S
C581 C575 1.363 . S
C581 C576 1.379 . S
C581 N579 1.356 . S
N582 C574 1.356 . S
N582 H588 0.984 1_655 S
N582 H589 0.984 . S
N583 C576 1.356 . S
N583 H586 0.984 . S
N583 H587 0.985 . S
H584 N579 0.984 . S
H585 N579 0.985 . S
H586 N583 0.984 . S
H587 N583 0.985 . S
H588 N582 0.984 1_455 S
H589 N582 0.984 . S
H590 N578 0.984 1_455 S
H591 N578 0.985 . S
C592 C593 1.363 . S
C592 C598 1.379 . S
C592 N600 1.356 1_655 S
C593 C592 1.363 . S
C593 C599 1.363 . S
C594 C595 1.363 . S
C594 C599 1.379 . S
C594 N601 1.356 . S
C595 C594 1.363 . S
C595 C598 1.363 . S
N596 C598 1.356 . S
N596 H608 0.984 . S
N596 H609 0.985 . S
N597 C599 1.356 . S
N597 H602 0.984 . S
N597 H603 0.985 . S
C598 C592 1.379 . S
C598 C595 1.363 . S
C598 N596 1.356 . S
C599 C593 1.363 . S
C599 C594 1.379 . S
C599 N597 1.356 . S
N600 C592 1.356 1_455 S
N600 H606 0.984 . S
N600 H607 0.984 . S
N601 C594 1.356 . S
N601 H604 0.984 . S
N601 H605 0.985 . S
H602 N597 0.984 . S
H603 N597 0.985 . S
H604 N601 0.984 . S
H605 N601 0.985 . S
H606 N600 0.984 . S
H607 N600 0.984 . S
H608 N596 0.984 . S
H609 N596 0.985 . S
C610 C611 1.363 . S
C610 C616 1.379 . S
C610 N618 1.356 . S
C611 C610 1.363 . S
C611 C617 1.363 . S
C612 C613 1.363 . S
C612 C617 1.379 . S
C612 N619 1.356 . S
C613 C612 1.363 . S
C613 C616 1.363 . S
N614 C616 1.356 . S
N614 H626 0.984 . S
N614 H627 0.985 . S
N615 C617 1.356 . S
N615 H620 0.984 . S
N615 H621 0.985 . S
C616 C610 1.379 . S
C616 C613 1.363 . S
C616 N614 1.356 . S
C617 C611 1.363 . S
C617 C612 1.379 . S
C617 N615 1.356 . S
N618 C610 1.356 . S
N618 H624 0.984 . S
N618 H625 0.984 . S
N619 C612 1.356 . S
N619 H622 0.984 . S
N619 H623 0.985 . S
H620 N615 0.984 . S
H621 N615 0.985 . S
H622 N619 0.984 . S
H623 N619 0.985 . S
H624 N618 0.984 . S
H625 N618 0.984 . S
H626 N614 0.984 . S
H627 N614 0.985 . S
C628 C629 1.363 . S
C628 C634 1.379 . S
C628 N636 1.356 . S
C629 C628 1.363 . S
C629 C635 1.363 . S
C630 C631 1.363 . S
C630 C635 1.379 . S
C630 N637 1.356 . S
C631 C630 1.363 . S
C631 C634 1.363 . S
N632 C634 1.356 . S
N632 H644 0.984 . S
N632 H645 0.985 . S
N633 C635 1.356 . S
N633 H638 0.984 . S
N633 H639 0.985 . S
C634 C628 1.379 . S
C634 C631 1.363 . S
C634 N632 1.356 . S
C635 C629 1.363 . S
C635 C630 1.379 . S
C635 N633 1.356 . S
N636 C628 1.356 . S
N636 H642 0.984 . S
N636 H643 0.984 . S
N637 C630 1.356 . S
N637 H640 0.984 . S
N637 H641 0.985 . S
H638 N633 0.984 . S
H639 N633 0.985 . S
H640 N637 0.984 . S
H641 N637 0.985 . S
H642 N636 0.984 . S
H643 N636 0.984 . S
H644 N632 0.984 . S
H645 N632 0.985 . S
C646 C647 1.363 . S
C646 C652 1.379 . S
C646 N654 1.356 . S
C647 C646 1.363 . S
C647 C653 1.363 . S
C648 C649 1.363 . S
C648 C653 1.379 . S
C648 N655 1.356 . S
C649 C648 1.363 . S
C649 C652 1.363 . S
N650 C652 1.356 . S
N650 H662 0.984 . S
N650 H663 0.985 . S
N651 C653 1.356 . S
N651 H656 0.984 . S
N651 H657 0.985 . S
C652 C646 1.379 . S
C652 C649 1.363 . S
C652 N650 1.356 . S
C653 C647 1.363 . S
C653 C648 1.379 . S
C653 N651 1.356 . S
N654 C646 1.356 . S
N654 H660 0.984 . S
N654 H661 0.984 . S
N655 C648 1.356 . S
N655 H658 0.984 . S
N655 H659 0.985 . S
H656 N651 0.984 . S
H657 N651 0.985 . S
H658 N655 0.984 . S
H659 N655 0.985 . S
H660 N654 0.984 . S
H661 N654 0.984 . S
H662 N650 0.984 . S
H663 N650 0.985 . S
C664 C665 1.363 . S
C664 C670 1.379 . S
C664 N672 1.356 1_655 S
C665 C664 1.363 . S
C665 C671 1.363 . S
C666 C667 1.363 . S
C666 C671 1.379 . S
C666 N673 1.356 . S
C667 C666 1.363 . S
C667 C670 1.363 . S
N668 C670 1.356 . S
N668 H680 0.984 . S
N668 H681 0.985 . S
N669 C671 1.356 . S
N669 H674 0.984 1_655 S
N669 H675 0.985 . S
C670 C664 1.379 . S
C670 C667 1.363 . S
C670 N668 1.356 . S
C671 C665 1.363 . S
C671 C666 1.379 . S
C671 N669 1.356 . S
N672 C664 1.356 1_455 S
N672 H678 0.984 . S
N672 H679 0.984 . S
N673 C666 1.356 . S
N673 H676 0.984 . S
N673 H677 0.985 . S
H674 N669 0.984 1_455 S
H675 N669 0.985 . S
H676 N673 0.984 . S
H677 N673 0.985 . S
H678 N672 0.984 . S
H679 N672 0.984 . S
H680 N668 0.984 . S
H681 N668 0.985 . S
C682 C683 1.363 . S
C682 C688 1.379 . S
C682 N690 1.356 . S
C683 C682 1.363 . S
C683 C689 1.363 . S
C684 C685 1.363 . S
C684 C689 1.379 . S
C684 N691 1.356 . S
C685 C684 1.363 . S
C685 C688 1.363 . S
N686 C688 1.356 . S
N686 H698 0.984 . S
N686 H699 0.985 . S
N687 C689 1.356 . S
N687 H692 0.984 . S
N687 H693 0.985 . S
C688 C682 1.379 . S
C688 C685 1.363 . S
C688 N686 1.356 . S
C689 C683 1.363 . S
C689 C684 1.379 . S
C689 N687 1.356 . S
N690 C682 1.356 . S
N690 H696 0.984 . S
N690 H697 0.984 . S
N691 C684 1.356 . S
N691 H694 0.984 . S
N691 H695 0.985 . S
H692 N687 0.984 . S
H693 N687 0.985 . S
H694 N691 0.984 . S
H695 N691 0.985 . S
H696 N690 0.984 . S
H697 N690 0.984 . S
H698 N686 0.984 . S
H699 N686 0.985 . S
C700 C701 1.363 . S
C700 C706 1.379 . S
C700 N708 1.356 . S
C701 C700 1.363 . S
C701 C707 1.363 . S
C702 C703 1.363 . S
C702 C707 1.379 . S
C702 N709 1.356 . S
C703 C702 1.363 . S
C703 C706 1.363 . S
N704 C706 1.356 . S
N704 H716 0.984 . S
N704 H717 0.985 . S
N705 C707 1.356 . S
N705 H710 0.984 . S
N705 H711 0.985 . S
C706 C700 1.379 . S
C706 C703 1.363 . S
C706 N704 1.356 . S
C707 C701 1.363 . S
C707 C702 1.379 . S
C707 N705 1.356 . S
N708 C700 1.356 . S
N708 H714 0.984 . S
N708 H715 0.984 . S
N709 C702 1.356 . S
N709 H712 0.984 . S
N709 H713 0.985 . S
H710 N705 0.984 . S
H711 N705 0.985 . S
H712 N709 0.984 . S
H713 N709 0.985 . S
H714 N708 0.984 . S
H715 N708 0.984 . S
H716 N704 0.984 . S
H717 N704 0.985 . S
C718 C719 1.363 . S
C718 C724 1.379 . S
C718 N726 1.356 . S
C719 C718 1.363 . S
C719 C725 1.363 . S
C720 C721 1.363 . S
C720 C725 1.379 . S
C720 N727 1.356 . S
C721 C720 1.363 . S
C721 C724 1.363 . S
N722 C724 1.356 . S
N722 H734 0.984 . S
N722 H735 0.985 . S
N723 C725 1.356 . S
N723 H728 0.984 . S
N723 H729 0.985 . S
C724 C718 1.379 . S
C724 C721 1.363 . S
C724 N722 1.356 . S
C725 C719 1.363 . S
C725 C720 1.379 . S
C725 N723 1.356 . S
N726 C718 1.356 . S
N726 H732 0.984 . S
N726 H733 0.984 . S
N727 C720 1.356 . S
N727 H730 0.984 . S
N727 H731 0.985 . S
H728 N723 0.984 . S
H729 N723 0.985 . S
H730 N727 0.984 . S
H731 N727 0.985 . S
H732 N726 0.984 . S
H733 N726 0.984 . S
H734 N722 0.984 . S
H735 N722 0.985 . S
C736 C737 1.363 . S
C736 C742 1.379 . S
C736 N744 1.356 . S
C737 C736 1.363 . S
C737 C743 1.363 . S
C738 C739 1.363 . S
C738 C743 1.379 . S
C738 N745 1.356 . S
C739 C738 1.363 . S
C739 C742 1.363 . S
N740 C742 1.356 . S
N740 H752 0.984 . S
N740 H753 0.985 . S
N741 C743 1.356 . S
N741 H746 0.984 . S
N741 H747 0.985 . S
C742 C736 1.379 . S
C742 C739 1.363 . S
C742 N740 1.356 . S
C743 C737 1.363 . S
C743 C738 1.379 . S
C743 N741 1.356 . S
N744 C736 1.356 . S
N744 H750 0.984 . S
N744 H751 0.984 . S
N745 C738 1.356 . S
N745 H748 0.984 . S
N745 H749 0.985 . S
H746 N741 0.984 . S
H747 N741 0.985 . S
H748 N745 0.984 . S
H749 N745 0.985 . S
H750 N744 0.984 . S
H751 N744 0.984 . S
H752 N740 0.984 . S
H753 N740 0.985 . S
C754 C755 1.363 . S
C754 C760 1.379 . S
C754 N762 1.356 . S
C755 C754 1.363 . S
C755 C761 1.363 . S
C756 C757 1.363 . S
C756 C761 1.379 . S
C756 N763 1.356 . S
C757 C756 1.363 . S
C757 C760 1.363 . S
N758 C760 1.356 . S
N758 H770 0.984 . S
N758 H771 0.985 . S
N759 C761 1.356 . S
N759 H764 0.984 . S
N759 H765 0.985 . S
C760 C754 1.379 . S
C760 C757 1.363 . S
C760 N758 1.356 . S
C761 C755 1.363 . S
C761 C756 1.379 . S
C761 N759 1.356 . S
N762 C754 1.356 . S
N762 H768 0.984 . S
N762 H769 0.984 . S
N763 C756 1.356 . S
N763 H766 0.984 . S
N763 H767 0.985 . S
H764 N759 0.984 . S
H765 N759 0.985 . S
H766 N763 0.984 . S
H767 N763 0.985 . S
H768 N762 0.984 . S
H769 N762 0.984 . S
H770 N758 0.984 . S
H771 N758 0.985 . S
C772 C773 1.363 . S
C772 C778 1.379 . S
C772 N780 1.356 . S
C773 C772 1.363 . S
C773 C779 1.363 . S
C774 C775 1.363 . S
C774 C779 1.379 . S
C774 N781 1.356 . S
C775 C774 1.363 . S
C775 C778 1.363 . S
N776 C778 1.356 . S
N776 H788 0.984 . S
N776 H789 0.985 . S
N777 C779 1.356 . S
N777 H782 0.984 . S
N777 H783 0.985 . S
C778 C772 1.379 . S
C778 C775 1.363 . S
C778 N776 1.356 . S
C779 C773 1.363 . S
C779 C774 1.379 . S
C779 N777 1.356 . S
N780 C772 1.356 . S
N780 H786 0.984 . S
N780 H787 0.984 . S
N781 C774 1.356 . S
N781 H784 0.984 . S
N781 H785 0.985 . S
H782 N777 0.984 . S
H783 N777 0.985 . S
H784 N781 0.984 . S
H785 N781 0.985 . S
H786 N780 0.984 . S
H787 N780 0.984 . S
H788 N776 0.984 . S
H789 N776 0.985 . S
C790 C791 1.363 . S
C790 C796 1.379 . S
C790 N798 1.356 . S
C791 C790 1.363 . S
C791 C797 1.363 . S
C792 C793 1.363 . S
C792 C797 1.379 . S
C792 N799 1.356 . S
C793 C792 1.363 . S
C793 C796 1.363 . S
N794 C796 1.356 . S
N794 H806 0.984 . S
N794 H807 0.985 . S
N795 C797 1.356 . S
N795 H800 0.984 . S
N795 H801 0.985 . S
C796 C790 1.379 . S
C796 C793 1.363 . S
C796 N794 1.356 . S
C797 C791 1.363 . S
C797 C792 1.379 . S
C797 N795 1.356 . S
N798 C790 1.356 . S
N798 H804 0.984 . S
N798 H805 0.984 . S
N799 C792 1.356 . S
N799 H802 0.984 . S
N799 H803 0.985 . S
H800 N795 0.984 . S
H801 N795 0.985 . S
H802 N799 0.984 . S
H803 N799 0.985 . S
H804 N798 0.984 . S
H805 N798 0.984 . S
H806 N794 0.984 . S
H807 N794 0.985 . S
C808 C809 1.363 . S
C808 C814 1.379 . S
C808 N816 1.356 . S
C809 C808 1.363 . S
C809 C815 1.363 . S
C810 C811 1.363 . S
C810 C815 1.379 . S
C810 N817 1.356 . S
C811 C810 1.363 . S
C811 C814 1.363 . S
N812 C814 1.356 . S
N812 H824 0.984 . S
N812 H825 0.985 . S
N813 C815 1.356 . S
N813 H818 0.984 . S
N813 H819 0.985 . S
C814 C808 1.379 . S
C814 C811 1.363 . S
C814 N812 1.356 . S
C815 C809 1.363 . S
C815 C810 1.379 . S
C815 N813 1.356 . S
N816 C808 1.356 . S
N816 H822 0.984 . S
N816 H823 0.984 . S
N817 C810 1.356 . S
N817 H820 0.984 . S
N817 H821 0.985 . S
H818 N813 0.984 . S
H819 N813 0.985 . S
H820 N817 0.984 . S
H821 N817 0.985 . S
H822 N816 0.984 . S
H823 N816 0.984 . S
H824 N812 0.984 . S
H825 N812 0.985 . S
C826 C827 1.363 . S
C826 C832 1.379 . S
C826 N834 1.356 . S
C827 C826 1.363 . S
C827 C833 1.363 . S
C828 C829 1.363 . S
C828 C833 1.379 . S
C828 N835 1.356 . S
C829 C828 1.363 . S
C829 C832 1.363 . S
N830 C832 1.356 . S
N830 H842 0.984 . S
N830 H843 0.985 . S
N831 C833 1.356 . S
N831 H836 0.984 . S
N831 H837 0.985 . S
C832 C826 1.379 . S
C832 C829 1.363 . S
C832 N830 1.356 . S
C833 C827 1.363 . S
C833 C828 1.379 . S
C833 N831 1.356 . S
N834 C826 1.356 . S
N834 H840 0.984 . S
N834 H841 0.984 . S
N835 C828 1.356 . S
N835 H838 0.984 . S
N835 H839 0.985 . S
H836 N831 0.984 . S
H837 N831 0.985 . S
H838 N835 0.984 . S
H839 N835 0.985 . S
H840 N834 0.984 . S
H841 N834 0.984 . S
H842 N830 0.984 . S
H843 N830 0.985 . S
C271 C204 1.748 . S
C269 C14 1.758 . S
C287 C25 1.669 . S
C289 C207 1.695 . S
C305 C50 1.664 . S
C307 C238 1.678 . S
C325 C173 1.731 . S
C323 C68 1.740 . S
C343 C208 1.748 . S
C341 C16 1.740 . S
C361 C239 1.727 . S
C359 C26 1.734 . S
C379 C164 1.679 . S
C377 C52 1.645 . S
C397 C195 1.694 . S
C395 C70 1.663 . S
C413 C8 1.473 . S
C415 C225 1.379 . S
C431 C88 1.452 1_565 S
C433 C194 1.365 . S
C449 C44 1.385 . S
C451 C154 1.362 1_655 S
C469 C247 1.382 1_655 S
C467 C98 1.405 1_545 S
C487 C175 1.385 . S
C485 C7 1.476 . S
C503 C86 1.413 1_565 S
C505 C174 1.390 1_655 S
C521 C43 1.389 . S
C523 C267 1.369 1_655 S
C541 C206 1.367 . S
C539 C97 1.457 1_545 S
C557 C116 1.751 . S
C559 C266 1.742 . S
C575 C79 1.669 . S
C577 C145 1.695 . S
C593 C140 1.664 1_655 S
C595 C176 1.678 . S
C611 C104 1.740 . S
C613 C235 1.731 . S
C631 C146 1.751 . S
C629 C115 1.748 . S
C647 C80 1.734 . S
C649 C177 1.726 . S
C665 C142 1.645 1_655 S
C667 C226 1.678 . S
C685 C257 1.694 . S
C683 C106 1.663 . S
C701 C122 1.477 . S
C703 C163 1.383 . S
C719 C34 1.452 . S
C721 C256 1.365 . S
C737 C134 1.385 . S
C739 C216 1.361 . S
C757 C185 1.383 . S
C755 C62 1.406 . S
C775 C237 1.387 . S
C773 C124 1.474 . S
C793 C236 1.390 . S
C791 C32 1.414 . S
C811 C205 1.369 . S
C809 C133 1.389 . S
C829 C144 1.367 . S
C827 C61 1.457 . S
