# Generated by pormake.
# Topology zzz, (3,6)-cn, num edge types: 1
# Building blocks:
#     Node 0, Type 0, BuildingBlock: BELTOD_clean_linker_0, # of connection points: 3
#     Node 1, Type 0, BuildingBlock: BELTOD_clean_linker_0, # of connection points: 3
#     Node 2, Type 0, BuildingBlock: BELTOD_clean_linker_0, # of connection points: 3
#     Node 3, Type 0, BuildingBlock: BELTOD_clean_linker_0, # of connection points: 3
#     Node 4, Type 0, BuildingBlock: BELTOD_clean_linker_0, # of connection points: 3
#     Node 5, Type 0, BuildingBlock: BELTOD_clean_linker_0, # of connection points: 3
#     Node 6, Type 0, BuildingBlock: BELTOD_clean_linker_0, # of connection points: 3
#     Node 7, Type 0, BuildingBlock: BELTOD_clean_linker_0, # of connection points: 3
#     Node 8, Type 1, BuildingBlock: KUMJIN_clean_sbu_1, # of connection points: 6
#     Node 9, Type 1, BuildingBlock: KUMJIN_clean_sbu_1, # of connection points: 6
#     Node 10, Type 1, BuildingBlock: KUMJIN_clean_sbu_1, # of connection points: 6
#     Node 11, Type 1, BuildingBlock: KUMJIN_clean_sbu_1, # of connection points: 6
#     Edge 12, Type (0, 1), BuildingBlock: OJICUG_clean_linker_0, # of connection points: 2
#     Edge 13, Type (0, 1), BuildingBlock: OJICUG_clean_linker_0, # of connection points: 2
#     Edge 14, Type (0, 1), BuildingBlock: OJICUG_clean_linker_0, # of connection points: 2
#     Edge 15, Type (0, 1), BuildingBlock: OJICUG_clean_linker_0, # of connection points: 2
#     Edge 16, Type (0, 1), BuildingBlock: OJICUG_clean_linker_0, # of connection points: 2
#     Edge 17, Type (0, 1), BuildingBlock: OJICUG_clean_linker_0, # of connection points: 2
#     Edge 18, Type (0, 1), BuildingBlock: OJICUG_clean_linker_0, # of connection points: 2
#     Edge 19, Type (0, 1), BuildingBlock: OJICUG_clean_linker_0, # of connection points: 2
#     Edge 20, Type (0, 1), BuildingBlock: OJICUG_clean_linker_0, # of connection points: 2
#     Edge 21, Type (0, 1), BuildingBlock: OJICUG_clean_linker_0, # of connection points: 2
#     Edge 22, Type (0, 1), BuildingBlock: OJICUG_clean_linker_0, # of connection points: 2
#     Edge 23, Type (0, 1), BuildingBlock: OJICUG_clean_linker_0, # of connection points: 2
#     Edge 24, Type (0, 1), BuildingBlock: OJICUG_clean_linker_0, # of connection points: 2
#     Edge 25, Type (0, 1), BuildingBlock: OJICUG_clean_linker_0, # of connection points: 2
#     Edge 26, Type (0, 1), BuildingBlock: OJICUG_clean_linker_0, # of connection points: 2
#     Edge 27, Type (0, 1), BuildingBlock: OJICUG_clean_linker_0, # of connection points: 2
#     Edge 28, Type (0, 1), BuildingBlock: OJICUG_clean_linker_0, # of connection points: 2
#     Edge 29, Type (0, 1), BuildingBlock: OJICUG_clean_linker_0, # of connection points: 2
#     Edge 30, Type (0, 1), BuildingBlock: OJICUG_clean_linker_0, # of connection points: 2
#     Edge 31, Type (0, 1), BuildingBlock: OJICUG_clean_linker_0, # of connection points: 2
#     Edge 32, Type (0, 1), BuildingBlock: OJICUG_clean_linker_0, # of connection points: 2
#     Edge 33, Type (0, 1), BuildingBlock: OJICUG_clean_linker_0, # of connection points: 2
#     Edge 34, Type (0, 1), BuildingBlock: OJICUG_clean_linker_0, # of connection points: 2
#     Edge 35, Type (0, 1), BuildingBlock: OJICUG_clean_linker_0, # of connection points: 2
# Relax obj value: 0.350
# Max RMSD: 0.188
# Mean RMSD: 0.174
data_MOF--net-zzz--node1-KUMJIN_clean_sbu_1--node2-BELTOD_clean_linker_0--edge1-OJICUG_clean_linker_0
_symmetry_space_group_name_H-M    P1
_symmetry_Int_Tables_number       1
_symmetry_cell_setting            triclinic
loop_
_symmetry_equiv_pos_as_xyz
'x, y, z'
_cell_length_a     40.255564
_cell_length_b     40.314366
_cell_length_c     15.070805
_cell_angle_alpha  90.176606
_cell_angle_beta   89.962056
_cell_angle_gamma 90.355688
loop_
_atom_site_label
_atom_site_type_symbol
_atom_site_fract_x
_atom_site_fract_y
_atom_site_fract_z
_atom_type_partial_charge
P0 P 0.73747 0.49865 0.26672 0.0
H1 H 0.76077 0.48338 0.44621 0.0
H2 H 0.81245 0.49359 0.52291 0.0
H3 H 0.84171 0.56305 0.31942 0.0
H4 H 0.78941 0.5523 0.24139 0.0
H5 H 0.66997 0.47561 0.2411 0.0
H6 H 0.62652 0.49121 0.13934 0.0
H7 H 0.68034 0.58029 0.07217 0.0
H8 H 0.72552 0.5638 0.17381 0.0
H9 H 0.74479 0.43035 0.19979 0.0
H10 H 0.76966 0.52961 0.11476 0.0
O11 O 0.72236 0.46685 0.32539 0.0
H12 H 0.76468 0.40854 0.05777 0.0
H13 H 0.79027 0.5081 0.97553 0.0
C14 C 0.77061 0.51661 0.33618 0.0
C15 C 0.77769 0.50146 0.41811 0.0
C16 C 0.80775 0.50737 0.46278 0.0
C17 C 0.83212 0.5288 0.42752 0.0
C18 C 0.82419 0.54567 0.34816 0.0
C19 C 0.79387 0.53972 0.30333 0.0
C20 C 0.70112 0.51889 0.21858 0.0
C21 C 0.67236 0.49925 0.20787 0.0
C22 C 0.64724 0.50809 0.14863 0.0
C23 C 0.64936 0.53733 0.09872 0.0
C24 C 0.67771 0.5577 0.11025 0.0
C25 C 0.70336 0.54854 0.16956 0.0
C26 C 0.7564 0.48163 0.16895 0.0
C27 C 0.75499 0.44744 0.15153 0.0
C28 C 0.76613 0.43498 0.07015 0.0
C29 C 0.77852 0.45666 1.00502 0.0
C30 C 0.7801 0.4908 0.02339 0.0
C31 C 0.76901 0.50312 0.10426 0.0
P32 P 0.03635 0.72793 0.30962 0.0
H33 H 0.04128 0.74846 0.49603 0.0
H34 H 0.03318 0.80175 0.56882 0.0
H35 H 0.98194 0.8379 0.33821 0.0
H36 H 0.99114 0.78435 0.26279 0.0
H37 H 0.05598 0.6593 0.28712 0.0
H38 H 0.04579 0.61927 0.17041 0.0
H39 H 0.96602 0.67934 0.07041 0.0
H40 H 0.97618 0.7201 0.19024 0.0
H41 H 0.01871 0.75603 0.13829 0.0
H42 H 0.10735 0.74593 0.29674 0.0
O43 O 0.06296 0.71024 0.37983 0.0
H44 H 0.05057 0.78288 0.02268 0.0
H45 H 0.13961 0.77399 0.18027 0.0
C46 C 0.01695 0.76173 0.37281 0.0
C47 C 0.02749 0.76724 0.46085 0.0
C48 C 0.0231 0.79805 0.50286 0.0
C49 C 1.00732 0.82431 0.45917 0.0
C50 C 0.99428 0.81819 0.37374 0.0
C51 C 0.99929 0.78734 0.33073 0.0
C52 C 0.01709 0.69335 0.2486 0.0
C53 C 0.03541 0.66379 0.2427 0.0
C54 C 0.02987 0.6408 0.17446 0.0
C55 C 1.00567 0.64631 0.10915 0.0
C56 C 0.98503 0.6743 0.11924 0.0
C57 C 0.99076 0.69765 0.18818 0.0
C58 C 0.06067 0.74822 0.22553 0.0
C59 C 0.04515 0.75896 0.14777 0.0
C60 C 0.06349 0.77423 0.08119 0.0
C61 C 0.09771 0.77973 0.09166 0.0
C62 C 0.11333 0.76951 0.17021 0.0
C63 C 0.09489 0.75364 0.2367 0.0
P64 P 0.80458 0.02546 0.34368 0.0
H65 H 0.78636 0.01652 0.53075 0.0
H66 H 0.73249 0.01028 0.60008 0.0
H67 H 0.69026 0.98225 0.34687 0.0
H68 H 0.74434 0.99067 0.27705 0.0
H69 H 0.87713 0.0242 0.32693 0.0
H70 H 0.91417 0.01141 0.2043 0.0
H71 H 0.83133 0.97259 0.05419 0.0
H72 H 0.79407 0.98458 0.1795 0.0
H73 H 0.76808 0.07961 0.42206 0.0
H74 H 0.79004 0.04557 0.15679 0.0
O75 O 0.82852 0.04169 0.42339 0.0
H76 H 0.71658 0.10389 0.36871 0.0
H77 H 0.73866 0.06963 0.10394 0.0
C78 C 0.77013 1.00366 0.39805 0.0
C79 C 0.76593 1.00777 0.49016 0.0
C80 C 0.73455 1.00434 0.53027 0.0
C81 C 0.70608 0.99636 0.47983 0.0
C82 C 0.71097 0.98938 0.38861 0.0
C83 C 0.7424 0.99322 0.34837 0.0
C84 C 0.83237 1.00579 0.26306 0.0
C85 C 0.86676 0.01201 0.26908 0.0
C86 C 0.88817 1.00469 0.19828 0.0
C87 C 0.87581 0.99144 0.11833 0.0
C88 C 0.8417 0.98322 0.11423 0.0
C89 C 0.82034 0.98981 0.18637 0.0
C90 C 0.78227 0.05936 0.2945 0.0
C91 C 0.76291 0.07888 0.35154 0.0
C92 C 0.73333 0.09263 0.32122 0.0
C93 C 0.72338 0.08768 0.23294 0.0
C94 C 0.74569 0.0734 0.17264 0.0
C95 C 0.77506 0.05924 0.20338 0.0
P96 P 0.4818 0.80904 0.32966 0.0
H97 H 0.49787 0.79342 0.51506 0.0
H98 H 0.50608 0.74052 0.58983 0.0
H99 H 0.51625 0.69193 0.33575 0.0
H100 H 0.50837 0.74512 0.26122 0.0
H101 H 0.46171 0.87662 0.30182 0.0
H102 H 0.47381 0.91619 0.1858 0.0
H103 H 0.55608 0.85647 0.0981 0.0
H104 H 0.54316 0.81564 0.21543 0.0
H105 H 0.41325 0.78393 0.34397 0.0
H106 H 0.48838 0.7935 0.14112 0.0
O107 O 0.45903 0.82682 0.40911 0.0
H108 H 0.37656 0.75601 0.23671 0.0
H109 H 0.45241 0.76646 0.03544 0.0
C110 C 0.50222 0.77368 0.38186 0.0
C111 C 0.5029 0.77168 0.47501 0.0
C112 C 0.50708 0.74108 0.51804 0.0
C113 C 0.51095 0.71145 0.46929 0.0
C114 C 0.51322 0.71399 0.37605 0.0
C115 C 0.5089 0.74467 0.33298 0.0
C116 C 0.50168 0.843 0.26909 0.0
C117 C 0.48327 0.87232 0.26048 0.0
C118 C 0.49 0.89502 0.19286 0.0
C119 C 0.51574 0.88958 0.13167 0.0
C120 C 0.53614 0.86159 0.1443 0.0
C121 C 0.52901 0.83834 0.21208 0.0
C122 C 0.4533 0.79158 0.25018 0.0
C123 C 0.42157 0.78081 0.27614 0.0
C124 C 0.40064 0.76493 0.21494 0.0
C125 C 0.41131 0.75967 0.12714 0.0
C126 C 0.44289 0.77113 0.10154 0.0
C127 C 0.46371 0.7866 0.16252 0.0
P128 P 0.28986 0.45495 0.11191 0.0
H129 H 0.26973 0.43873 0.92921 0.0
H130 H 0.22221 0.45383 0.83907 0.0
H131 H 0.19302 0.52543 0.03781 0.0
H132 H 0.24199 0.51111 0.12601 0.0
H133 H 0.36244 0.44739 0.09757 0.0
H134 H 0.40636 0.46314 0.20075 0.0
H135 H 0.33841 0.52848 0.33618 0.0
H136 H 0.29474 0.51303 0.2313 0.0
H137 H 0.21898 0.44819 0.16658 0.0
H138 H 0.31546 0.42894 0.27924 0.0
O139 O 0.30512 0.42115 0.06273 0.0
H140 H 0.19526 0.4507 0.31446 0.0
H141 H 0.29172 0.43157 0.42803 0.0
C142 C 0.25975 0.47353 0.03544 0.0
C143 C 0.25368 0.45828 0.95293 0.0
C144 C 0.22585 0.46664 0.90156 0.0
C145 C 0.20265 0.49029 0.93132 0.0
C146 C 0.20997 0.50711 1.01162 0.0
C147 C 0.23825 0.49902 0.06251 0.0
C148 C 0.32494 0.47908 0.15542 0.0
C149 C 0.35721 0.46624 0.14685 0.0
C150 C 0.38237 0.47482 0.20757 0.0
C151 C 0.37612 0.49656 0.27903 0.0
C152 C 0.3446 0.51176 0.28242 0.0
C153 C 0.31946 0.50324 0.22125 0.0
C154 C 0.26948 0.44101 0.2121 0.0
C155 C 0.23505 0.44387 0.2227 0.0
C156 C 0.22133 0.44469 0.30777 0.0
C157 C 0.24194 0.44245 0.38294 0.0
C158 C 0.27543 0.4341 0.37127 0.0
C159 C 0.28899 0.4328 0.28608 0.0
P160 P 0.08122 0.28268 0.09813 0.0
H161 H 0.1042 0.256 0.92693 0.0
H162 H 0.08447 0.20969 0.83719 0.0
H163 H 0.99291 0.20796 0.98629 0.0
H164 H 0.01316 0.25443 0.07719 0.0
H165 H 0.11755 0.34447 0.13272 0.0
H166 H 0.10571 0.39099 0.22853 0.0
H167 H 1.0031 0.35915 0.24527 0.0
H168 H 0.01615 0.3109 0.15326 0.0
H169 H 0.07347 0.2107 0.12571 0.0
H170 H 0.08732 0.29762 0.28983 0.0
O171 O 0.12134 0.2855 0.071 0.0
H172 H 0.05437 0.17992 0.25246 0.0
H173 H 0.07074 0.26605 0.41969 0.0
C174 C 0.06026 0.2593 1.00939 0.0
C175 C 0.07931 0.24669 0.93867 0.0
C176 C 0.06797 0.2198 0.88704 0.0
C177 C 0.03718 0.20437 0.90466 0.0
C178 C 0.01699 0.21866 0.97121 0.0
C179 C 0.02828 0.24587 0.0224 0.0
C180 C 0.06774 0.32393 0.13386 0.0
C181 C 0.09216 0.34787 0.15434 0.0
C182 C 0.08525 0.37485 0.21041 0.0
C183 C 0.05342 0.37924 0.24768 0.0
C184 C 0.02825 0.35657 0.22105 0.0
C185 C 0.03541 0.32915 0.16591 0.0
C186 C 0.07895 0.25731 0.19649 0.0
C187 C 0.07277 0.2232 0.18928 0.0
C188 C 0.06248 0.20524 0.26321 0.0
C189 C 0.05952 0.22079 0.34675 0.0
C190 C 0.07099 0.25366 0.35586 0.0
C191 C 0.08057 0.2718 0.28122 0.0
P192 P 0.23641 0.07944 0.08196 0.0
H193 H 0.24958 0.07745 0.89052 0.0
H194 H 0.2984 0.05867 0.81082 0.0
H195 H 0.32847 1.00238 0.04016 0.0
H196 H 0.27949 0.022 0.12037 0.0
H197 H 0.20283 0.11579 0.21994 0.0
H198 H 0.15923 0.10298 0.32598 0.0
H199 H 0.15303 1.00314 0.2217 0.0
H200 H 0.19813 0.01627 0.11629 0.0
H201 H 0.28831 0.12597 0.02966 0.0
H202 H 0.26058 0.07108 0.26375 0.0
O203 O 0.21954 0.10841 0.01756 0.0
H204 H 0.34562 0.12888 0.0824 0.0
H205 H 0.31709 0.07442 0.31705 0.0
C206 C 0.26024 0.0511 1.012 0.0
C207 C 0.26569 0.05981 0.92281 0.0
C208 C 0.29414 0.04916 0.87696 0.0
C209 C 0.31824 0.02943 0.91891 0.0
C210 C 0.31111 0.01816 1.00564 0.0
C211 C 0.28249 0.02876 0.05133 0.0
C212 C 0.20424 0.06693 0.16067 0.0
C213 C 0.19229 0.091 0.21997 0.0
C214 C 0.16686 0.08369 0.28034 0.0
C215 C 0.15198 0.05201 0.28292 0.0
C216 C 0.16393 0.02775 0.22283 0.0
C217 C 0.18973 0.03518 0.16211 0.0
C218 C 0.27011 0.09823 0.14253 0.0
C219 C 0.294 0.11643 0.09499 0.0
C220 C 0.32685 0.11785 0.12479 0.0
C221 C 0.33597 0.10134 0.20294 0.0
C222 C 0.31092 0.08757 0.25674 0.0
C223 C 0.27828 0.08572 0.22627 0.0
P224 P 0.45746 0.25959 0.18374 0.0
H225 H 0.42133 0.28606 0.03024 0.0
H226 H 0.43381 0.33119 0.92819 0.0
H227 H 0.53488 0.33406 0.02308 0.0
H228 H 0.52218 0.28838 0.12567 0.0
H229 H 0.42133 0.19602 0.18755 0.0
H230 H 0.43301 0.14562 0.26991 0.0
H231 H 0.53404 0.17885 0.3102 0.0
H232 H 0.52233 0.22909 0.22511 0.0
H233 H 0.47632 0.32926 0.22264 0.0
H234 H 0.4634 0.23826 0.36948 0.0
O235 O 0.416 0.25966 0.18502 0.0
H236 H 0.50262 0.35471 0.35128 0.0
H237 H 0.49062 0.26333 0.49734 0.0
C238 C 0.47069 0.28363 0.0868 0.0
C239 C 0.44654 0.29548 0.02756 0.0
C240 C 0.4537 0.32158 0.96884 0.0
C241 C 0.48523 0.33686 0.96799 0.0
C242 C 0.51015 0.32333 0.02273 0.0
C243 C 0.50306 0.29678 0.08066 0.0
C244 C 0.47083 0.21682 0.19996 0.0
C245 C 0.44644 0.19204 0.21062 0.0
C246 C 0.453 0.1633 0.25973 0.0
C247 C 0.48416 0.15848 0.3 0.0
C248 C 0.50966 0.18158 0.28094 0.0
C249 C 0.50311 0.2103 0.23094 0.0
C250 C 0.47025 0.28096 0.28368 0.0
C251 C 0.47956 0.31448 0.28172 0.0
C252 C 0.49454 0.3291 0.35565 0.0
C253 C 0.49994 0.31059 0.43327 0.0
C254 C 0.48739 0.2781 0.43808 0.0
C255 C 0.47219 0.2636 0.36425 0.0
Eu256 Eu 0.97324 0.02846 0.60842 0.0
C257 C 0.09193 0.06891 0.81123 0.0
N258 N 0.0896 0.04553 0.74608 0.0
C259 C 0.13555 0.07088 0.66982 0.0
C260 C 0.11481 0.09547 0.80488 0.0
C261 C 0.11286 0.04478 0.68004 0.0
C262 C 0.13597 0.09682 0.73132 0.0
C263 C 0.07636 0.08752 0.95894 0.0
C264 C 0.07308 0.065 0.88762 0.0
C265 C 0.09777 0.11496 0.95072 0.0
C266 C 0.11689 0.11898 0.87375 0.0
Eu267 Eu 0.04793 1.00402 0.76696 0.0
N268 N 0.0519 0.03874 0.89288 0.0
C269 C 0.05814 0.08164 0.0366 0.0
C270 C 0.03524 0.032 0.96962 0.0
C271 C 0.03779 0.05352 0.04228 0.0
H272 H 0.11473 0.02371 0.63623 0.0
H273 H 0.02403 0.04842 0.10244 0.0
H274 H 0.90768 0.98316 0.66899 0.0
H275 H 0.01839 0.04942 0.26953 0.0
H276 H 0.01975 0.01018 0.97425 0.0
H277 H 0.05998 0.09835 0.09286 0.0
H278 H 1.00602 0.06496 0.42447 0.0
H279 H 0.15321 0.07058 0.61562 0.0
H280 H 0.1002 0.13286 1.00416 0.0
H281 H 0.13398 0.13978 0.86934 0.0
H282 H 0.87248 0.93771 0.60855 0.0
H283 H 0.15389 0.11679 0.72395 0.0
H284 H 0.99703 0.99628 0.20848 0.0
N285 N 0.93865 0.98545 0.55511 0.0
C286 C 0.94412 0.97479 0.47104 0.0
C287 C 0.89276 0.94769 0.56952 0.0
C288 C 0.92531 0.9485 0.43452 0.0
C289 C 0.91266 0.97332 0.60359 0.0
C290 C 0.8995 0.93479 0.48519 0.0
N291 N 0.98155 0.01941 0.45415 0.0
C292 C 0.99789 0.04109 0.39977 0.0
C293 C 0.97236 0.98232 0.33072 0.0
C294 C 0.96698 0.9918 0.41966 0.0
C295 C 0.99233 1.00262 0.27727 0.0
C296 C 1.00439 0.03262 0.31138 0.0
H297 H 0.8843 0.91473 0.45924 0.0
H298 H 0.91906 0.91644 0.31996 0.0
H299 H 0.96152 0.9451 0.23068 0.0
O300 O 0.93715 0.05605 0.53055 0.0
O301 O 0.98099 0.97306 0.63884 0.0
O302 O 0.03741 0.9692 0.6504 0.0
O303 O 0.93716 0.06087 0.6729 0.0
O304 O 0.02546 0.04589 0.56783 0.0
O305 O 0.05895 1.0042 0.61786 0.0
O306 O 0.05332 0.95748 0.83986 0.0
O307 O 0.01422 0.04828 0.79571 0.0
O308 O 0.00891 0.06867 0.65761 0.0
O309 O 0.0961 0.98885 0.81738 0.0
O310 O 0.99806 0.9867 0.82471 0.0
O311 O 0.95694 0.01565 0.74894 0.0
C312 C 0.0086 0.95618 0.6274 0.0
C313 C 0.92583 0.10829 0.58984 0.0
C314 C 0.95686 0.15847 0.55161 0.0
C315 C 0.92701 0.17655 0.5581 0.0
C316 C 0.89653 0.12654 0.59643 0.0
C317 C 0.89726 0.1607 0.58164 0.0
C318 C 0.95583 0.12441 0.57072 0.0
C319 C 0.05187 0.02703 0.55858 0.0
C320 C 0.92548 0.07217 0.59856 0.0
C321 C 0.93244 0.93732 0.34832 0.0
C322 C 0.9564 0.95386 0.29712 0.0
C323 C 0.0125 0.07396 0.74287 0.0
C324 C 0.10442 0.93154 0.81093 0.0
C325 C 0.1279 0.87709 0.83823 0.0
C326 C 0.13816 0.87534 0.74923 0.0
C327 C 0.11483 0.92965 0.72206 0.0
C328 C 0.11121 0.90545 0.86858 0.0
C329 C 0.13182 0.90168 0.69166 0.0
C330 C 0.96723 0.9977 0.81665 0.0
C331 C 0.08555 0.96004 0.84377 0.0
H332 H 0.92607 0.20264 0.54201 0.0
H333 H 0.87316 0.11434 0.61166 0.0
H334 H 0.87452 0.17482 0.58575 0.0
H335 H 0.97815 0.10982 0.56806 0.0
H336 H 0.15066 0.85351 0.72421 0.0
H337 H 0.10958 0.94959 0.67622 0.0
H338 H 0.10221 0.90669 0.93637 0.0
H339 H 0.13962 0.90021 0.62302 0.0
Eu340 Eu 0.52618 0.05212 0.76427 0.0
C341 C 0.531 0.9072 0.65265 0.0
N342 N 0.53713 0.9344 0.60204 0.0
C343 C 0.58717 0.90952 0.54739 0.0
C344 C 0.55372 0.88074 0.65606 0.0
C345 C 0.56362 0.93485 0.54536 0.0
C346 C 0.58257 0.88265 0.60441 0.0
C347 C 0.49227 0.87583 0.74354 0.0
C348 C 0.50064 0.9046 0.6953 0.0
C349 C 0.5156 0.85025 0.75141 0.0
C350 C 0.54626 0.85268 0.70768 0.0
Eu351 Eu 0.49703 0.9773 0.60935 0.0
N352 N 0.47861 0.92967 0.68616 0.0
C353 C 0.46036 0.87328 0.78011 0.0
C354 C 0.44683 0.92656 0.71691 0.0
C355 C 0.43737 0.89853 0.76547 0.0
H356 H 0.56649 0.95453 0.49754 0.0
H357 H 0.41243 0.89646 0.79184 0.0
H358 H 0.45774 0.098 0.7794 0.0
H359 H 0.6488 0.08934 0.63735 0.0
H360 H 0.42915 0.9462 0.70596 0.0
H361 H 0.45298 0.85159 0.81774 0.0
H362 H 0.60989 0.05769 0.73098 0.0
H363 H 0.60858 0.9105 0.50397 0.0
H364 H 0.50979 0.82808 0.78895 0.0
H365 H 0.56358 0.83228 0.71187 0.0
H366 H 0.43531 0.15032 0.71802 0.0
H367 H 0.60064 0.86285 0.60507 0.0
H368 H 0.62859 0.13672 0.54895 0.0
N369 N 0.50366 0.10229 0.71081 0.0
C370 C 0.52366 0.12151 0.65949 0.0
C371 C 0.46011 0.14238 0.70055 0.0
C372 C 0.51189 0.15125 0.62228 0.0
C373 C 0.47281 0.11292 0.73527 0.0
C374 C 0.47954 0.16138 0.64269 0.0
N375 N 0.56709 0.08377 0.68698 0.0
C376 C 0.60033 0.07711 0.68919 0.0
C377 C 0.57775 0.13129 0.59389 0.0
C378 C 0.55612 0.11154 0.64551 0.0
C379 C 0.61119 0.12228 0.58809 0.0
C380 C 0.62267 0.09552 0.63769 0.0
H381 H 0.46957 0.18406 0.61536 0.0
H382 H 0.52402 0.1926 0.53631 0.0
H383 H 0.58178 0.17516 0.51157 0.0
O384 O 0.55573 0.08156 0.85807 0.0
O385 O 0.49231 0.05871 0.64351 0.0
O386 O 0.51496 0.02454 0.54186 0.0
O387 O 0.50637 0.06549 0.89391 0.0
O388 O 0.56715 0.01627 0.71783 0.0
O389 O 0.54692 1.00215 0.58078 0.0
O390 O 0.45275 0.98199 0.52744 0.0
O391 O 0.49705 0.97049 0.75987 0.0
O392 O 0.54131 1.00062 0.8125 0.0
O393 O 0.49006 0.94626 0.49154 0.0
O394 O 0.45378 1.00596 0.67346 0.0
O395 O 0.47521 0.03092 0.80089 0.0
C396 C 0.50204 0.05327 0.56184 0.0
C397 C 0.54311 0.07718 0.01288 0.0
C398 C 0.58562 0.07887 0.12876 0.0
C399 C 0.56044 0.07533 0.19288 0.0
C400 C 0.51848 0.07467 0.07856 0.0
C401 C 0.52718 0.07353 0.16785 0.0
C402 C 0.57667 0.07933 0.03838 0.0
C403 C 0.57209 1.00645 0.6352 0.0
C404 C 0.53302 0.08114 0.91947 0.0
C405 C 0.5328 0.17 0.56691 0.0
C406 C 0.56565 0.15999 0.55257 0.0
C407 C 0.52092 0.97505 0.81828 0.0
C408 C 0.46617 0.97759 0.37534 0.0
C409 C 0.44788 0.02059 0.27204 0.0
C410 C 0.47254 0.0103 0.21184 0.0
C411 C 0.49105 0.9683 0.31487 0.0
C412 C 0.44438 1.00321 0.35243 0.0
C413 C 0.49394 0.98442 0.23335 0.0
C414 C 0.45005 0.01921 0.75353 0.0
C415 C 0.46427 0.96279 0.46501 0.0
H416 H 0.56629 0.07478 0.26283 0.0
H417 H 0.49239 0.07405 0.06094 0.0
H418 H 0.50803 0.07178 0.21801 0.0
H419 H 0.59571 0.08152 0.98793 0.0
H420 H 0.47571 0.02238 0.14849 0.0
H421 H 0.50839 0.94875 0.3306 0.0
H422 H 0.42458 1.00953 0.398 0.0
H423 H 0.51304 0.97699 0.18687 0.0
Eu424 Eu 0.54202 0.50527 0.65426 0.0
C425 C 0.4124 0.47142 0.79508 0.0
N426 N 0.41868 0.49846 0.74377 0.0
C427 C 0.37342 0.48307 0.64793 0.0
C428 C 0.38813 0.44772 0.77045 0.0
C429 C 0.39739 0.50604 0.6762 0.0
C430 C 0.36946 0.45327 0.6937 0.0
C431 C 0.42003 0.44303 0.93541 0.0
C432 C 0.42768 0.4693 0.87717 0.0
C433 C 0.39789 0.41798 0.90804 0.0
C434 C 0.38191 0.42036 0.82574 0.0
Eu435 Eu 0.46305 0.53353 0.79303 0.0
N436 N 0.44883 0.49392 0.90196 0.0
C437 C 0.43422 0.44322 0.02023 0.0
C438 C 0.46112 0.49543 0.98631 0.0
C439 C 0.45438 0.46986 0.04634 0.0
H440 H 0.39873 0.52982 0.64368 0.0
H441 H 0.46487 0.47061 0.11242 0.0
H442 H 0.59839 0.56627 0.65434 0.0
H443 H 0.5177 0.41247 0.39718 0.0
H444 H 0.477 0.51587 1.00601 0.0
H445 H 0.42907 0.42341 0.06678 0.0
H446 H 0.51764 0.43553 0.54913 0.0
H447 H 0.35764 0.48866 0.59187 0.0
H448 H 0.39208 0.39732 0.95129 0.0
H449 H 0.36377 0.40163 0.80713 0.0
H450 H 0.63262 0.5976 0.54627 0.0
H451 H 0.35056 0.43572 0.6725 0.0
H452 H 0.54486 0.44352 0.27526 0.0
N453 N 0.5778 0.53403 0.55695 0.0
C454 C 0.57779 0.52429 0.47102 0.0
C455 C 0.61719 0.57712 0.52411 0.0
C456 C 0.59666 0.5414 0.407 0.0
C457 C 0.59794 0.55931 0.5851 0.0
C458 C 0.61618 0.56843 0.43431 0.0
N459 N 0.54408 0.47935 0.51332 0.0
C460 C 0.52972 0.4492 0.49648 0.0
C461 C 0.56095 0.48384 0.36069 0.0
C462 C 0.56028 0.49599 0.44837 0.0
C463 C 0.54492 0.45371 0.34188 0.0
C464 C 0.52965 0.43607 0.41048 0.0
H465 H 0.6311 0.58222 0.38706 0.0
H466 H 0.60977 0.54396 0.26845 0.0
H467 H 0.57827 0.49308 0.2274 0.0
O468 O 0.58866 0.47784 0.65208 0.0
O469 O 0.53042 0.55973 0.62596 0.0
O470 O 0.48105 0.57446 0.69762 0.0
O471 O 0.56357 0.48567 0.77672 0.0
O472 O 0.49099 0.49149 0.59782 0.0
O473 O 0.45801 0.53462 0.6419 0.0
O474 O 0.46007 0.58089 0.86432 0.0
O475 O 0.49669 0.4904 0.83003 0.0
O476 O 0.50418 0.46637 0.69708 0.0
O477 O 0.41675 0.54952 0.85332 0.0
O478 O 0.51193 0.53647 0.86861 0.0
O479 O 0.54806 0.54736 0.75518 0.0
C480 C 0.50649 0.58113 0.64406 0.0
C481 C 0.58743 0.43374 0.75515 0.0
C482 C 0.5713 0.37758 0.71193 0.0
C483 C 0.57912 0.36636 0.79747 0.0
C484 C 0.59559 0.42227 0.8401 0.0
C485 C 0.59157 0.38864 0.86092 0.0
C486 C 0.57563 0.41121 0.69176 0.0
C487 C 0.46667 0.51235 0.58226 0.0
C488 C 0.58671 0.46945 0.73557 0.0
C489 C 0.59601 0.53054 0.31857 0.0
C490 C 0.57817 0.50175 0.29538 0.0
C491 C 0.49766 0.46335 0.78163 0.0
C492 C 0.40807 0.6066 0.84641 0.0
C493 C 0.38175 0.65935 0.88014 0.0
C494 C 0.36939 0.66058 0.793 0.0
C495 C 0.39579 0.60817 0.75933 0.0
C496 C 0.401 0.63207 0.90622 0.0
C497 C 0.37635 0.635 0.73308 0.0
C498 C 0.54164 0.54549 0.84068 0.0
C499 C 0.42811 0.57848 0.87593 0.0
H500 H 0.57563 0.34054 0.81509 0.0
H501 H 0.60412 0.43943 0.89079 0.0
H502 H 0.59746 0.37995 0.9269 0.0
H503 H 0.56835 0.42018 0.62719 0.0
H504 H 0.35468 0.68141 0.77112 0.0
H505 H 0.40124 0.58871 0.71188 0.0
H506 H 0.41148 0.63105 0.97243 0.0
H507 H 0.36692 0.63613 0.66592 0.0
Eu508 Eu 0.04279 0.55599 0.59052 0.0
C509 C 0.04632 0.44474 0.87046 0.0
N510 N 0.03899 0.44418 0.78266 0.0
C511 C 0.0734 0.39639 0.76216 0.0
C512 C 0.06912 0.42214 0.90687 0.0
C513 C 0.05084 0.41952 0.72903 0.0
C514 C 0.08306 0.39808 0.85115 0.0
C515 C 0.03532 0.467 0.01688 0.0
C516 C 0.02944 0.46671 0.92457 0.0
C517 C 0.05954 0.446 0.05279 0.0
C518 C 0.07635 0.42354 0.99793 0.0
Eu519 Eu 1.0006 0.48379 0.7308 0.0
N520 N 1.00546 0.48588 0.888 0.0
C521 C 0.01577 0.48741 0.07074 0.0
C522 C 0.98456 0.50365 0.94124 0.0
C523 C 0.9899 0.50539 0.03286 0.0
H524 H 0.04346 0.41843 0.66009 0.0
H525 H 0.97377 0.52022 0.07433 0.0
H526 H 0.03864 0.62464 0.72088 0.0
H527 H 1.00602 0.54201 0.24464 0.0
H528 H 0.96351 0.51643 0.91345 0.0
H529 H 0.01956 0.48839 0.14189 0.0
H530 H 0.03432 0.52706 0.38474 0.0
H531 H 0.08342 0.37741 0.71905 0.0
H532 H 0.06462 0.44616 0.12327 0.0
H533 H 0.09421 0.40677 0.02691 0.0
H534 H 0.01053 0.67856 0.72217 0.0
H535 H 0.10057 0.38018 0.8767 0.0
H536 H 0.97292 0.59344 0.23688 0.0
N537 N 0.01791 0.60926 0.5972 0.0
C538 C 1.00047 0.61881 0.52449 0.0
C539 C 1.00709 0.6618 0.66664 0.0
C540 C 0.9848 0.65001 0.52117 0.0
C541 C 0.02248 0.63079 0.66639 0.0
C542 C 0.98784 0.67132 0.59418 0.0
N543 N 0.01657 0.56907 0.45508 0.0
C544 C 0.01985 0.54947 0.38157 0.0
C545 C 0.98353 0.6078 0.37264 0.0
C546 C 0.99996 0.59817 0.45099 0.0
C547 C 0.98524 0.58695 0.29828 0.0
C548 C 1.00392 0.5579 0.30236 0.0
H549 H 0.97629 0.69553 0.59412 0.0
H550 H 0.95525 0.68316 0.44067 0.0
H551 H 0.95385 0.64597 0.31091 0.0
O552 O 0.0867 0.54705 0.51058 0.0
O553 O 0.99111 0.53746 0.54675 0.0
O554 O 0.96711 0.5247 0.67941 0.0
O555 O 0.08073 0.59478 0.57315 0.0
O556 O 0.05366 0.50308 0.5428 0.0
O557 O 1.00665 0.47438 0.58294 0.0
O558 O 0.95792 0.45788 0.78994 0.0
O559 O 0.05768 0.48604 0.7181 0.0
O560 O 0.06761 0.54146 0.72017 0.0
O561 O 0.97734 0.44205 0.66354 0.0
O562 O 0.98817 0.53671 0.77858 0.0
O563 O 0.03502 0.56596 0.73872 0.0
C564 C 0.96431 0.53231 0.5951 0.0
C565 C 0.13377 0.56913 0.58145 0.0
C566 C 0.18045 0.53209 0.60959 0.0
C567 C 0.19118 0.55299 0.67857 0.0
C568 C 0.14469 0.58975 0.65113 0.0
C569 C 0.17337 0.58175 0.6989 0.0
C570 C 0.15225 0.54081 0.56046 0.0
C571 C 0.03288 0.47798 0.53203 0.0
C572 C 0.10149 0.57419 0.53653 0.0
C573 C 0.96751 0.65934 0.44429 0.0
C574 C 0.96674 0.6382 0.37033 0.0
C575 C 0.07687 0.51129 0.73989 0.0
C576 C 0.91944 0.43772 0.68276 0.0
C577 C 0.85987 0.43217 0.70747 0.0
C578 C 0.85425 0.43628 0.61622 0.0
C579 C 0.91348 0.44172 0.59131 0.0
C580 C 0.89258 0.43262 0.73984 0.0
C581 C 0.88103 0.44085 0.55846 0.0
C582 C 0.0093 0.56142 0.79164 0.0
C583 C 0.95326 0.43921 0.72025 0.0
H584 H 0.21313 0.54704 0.71673 0.0
H585 H 0.13082 0.61162 0.66981 0.0
H586 H 0.18154 0.59764 0.75273 0.0
H587 H 0.14449 0.52525 0.50531 0.0
H588 H 0.82922 0.43633 0.58993 0.0
H589 H 0.93375 0.44586 0.54526 0.0
H590 H 0.89717 0.43039 0.81048 0.0
H591 H 0.87659 0.44427 0.48826 0.0
C592 C 0.10181 0.06951 0.3745 0.0
C593 C 0.12467 0.04474 0.34914 0.0
H594 H 0.06172 0.08379 0.46031 0.0
C595 C 0.12204 0.01362 0.39099 0.0
H596 H 0.10237 0.09365 0.34329 0.0
C597 C 0.09805 1.00779 0.45721 0.0
C598 C 0.07588 0.03285 0.48391 0.0
H599 H 0.13918 0.99394 0.37462 0.0
H600 H 0.09722 0.98367 0.48864 0.0
C601 C 0.078 0.06373 0.44107 0.0
C602 C 0.51908 0.11354 0.37216 0.0
C603 C 0.48897 0.13099 0.36624 0.0
H604 H 0.54636 0.0743 0.43536 0.0
C605 C 0.46347 0.1226 0.42649 0.0
H606 H 0.53962 0.12001 0.32928 0.0
C607 C 0.46777 0.09737 0.48937 0.0
C608 C 0.49733 0.07914 0.49259 0.0
H609 H 0.44026 0.13603 0.42648 0.0
H610 H 0.44779 0.09197 0.53539 0.0
C611 C 0.52293 0.08735 0.43291 0.0
C612 C 0.42177 0.47505 0.38073 0.0
C613 C 0.40131 0.50139 0.35263 0.0
H614 H 0.45799 0.45758 0.4741 0.0
C615 C 0.40416 0.53178 0.39859 0.0
H616 H 0.42015 0.45101 0.34881 0.0
C617 C 0.42596 0.53545 0.47095 0.0
C618 C 0.44568 0.50886 0.50029 0.0
H619 H 0.38946 0.55291 0.37889 0.0
H620 H 0.42704 0.55916 0.50488 0.0
C621 C 0.44361 0.47875 0.45315 0.0
C622 C 0.06689 0.43488 0.32345 0.0
C623 C 0.04735 0.4056 0.31817 0.0
H624 H 0.07819 0.48006 0.39384 0.0
C625 C 0.023 0.40097 0.38451 0.0
H626 H 0.08575 0.44013 0.27429 0.0
C627 C 0.01835 0.42442 0.45258 0.0
C628 C 0.03811 0.45332 0.4582 0.0
H629 H 1.00785 0.37873 0.38586 0.0
H630 H 0.99938 0.41946 0.50182 0.0
C631 C 0.06249 0.45815 0.39244 0.0
C632 C 0.93078 0.97722 0.04508 0.0
C633 C 0.89803 0.98903 0.0382 0.0
H634 H 0.97773 0.96917 0.98126 0.0
C635 C 0.88759 1.00113 0.9554 0.0
H636 H 0.93958 0.96747 0.10722 0.0
C637 C 0.90968 1.00286 0.88322 0.0
C638 C 0.94288 0.99211 0.89096 0.0
H639 H 0.8627 0.01073 0.94737 0.0
H640 H 0.90081 0.01352 0.82185 0.0
C641 C 0.95274 0.97832 0.97245 0.0
C642 C 0.48933 0.91941 1.00376 0.0
C643 C 0.51833 0.91134 0.05097 0.0
H644 H 0.46746 0.94586 0.89613 0.0
C645 C 0.54876 0.92475 0.02103 0.0
H646 H 0.46546 0.90942 0.02393 0.0
C647 C 0.5499 0.94603 0.94662 0.0
C648 C 0.52072 0.95375 0.8995 0.0
H649 H 0.57156 0.91921 0.05591 0.0
H650 H 0.5736 0.95602 0.92519 0.0
C651 C 0.49052 0.94014 0.92953 0.0
C652 C 0.58869 0.5431 0.06006 0.0
C653 C 0.62218 0.54497 0.03355 0.0
H654 H 0.53751 0.54226 0.0218 0.0
C655 C 0.62895 0.5503 0.94301 0.0
H656 H 0.58237 0.53947 0.12893 0.0
C657 C 0.60291 0.5519 0.88046 0.0
C658 C 0.56941 0.54843 0.90694 0.0
H659 H 0.65441 0.55157 0.91993 0.0
H660 H 0.60917 0.55455 0.81102 0.0
C661 C 0.5628 0.54483 0.9981 0.0
C662 C 0.97577 0.61074 0.99207 0.0
C663 C 1.00518 0.62476 0.02715 0.0
H664 H 0.95373 0.57934 0.89131 0.0
C665 C 0.03527 0.61772 0.9835 0.0
H666 H 0.95215 0.61552 0.02392 0.0
C667 C 0.03614 0.59743 0.90789 0.0
C668 C 1.00701 0.58295 0.8731 0.0
H669 H 0.05841 0.62824 1.00755 0.0
H670 H 0.05999 0.59285 0.87699 0.0
C671 C 0.97671 0.58982 0.91642 0.0
C672 C 0.01851 0.22363 0.47246 0.0
C673 C 0.03969 0.20462 0.41826 0.0
H674 H 0.97718 0.22408 0.56096 0.0
C675 C 0.03726 0.16992 0.42255 0.0
H676 H 0.01954 0.25046 0.47211 0.0
C677 C 0.01135 0.15486 0.46885 0.0
C678 C 0.988 0.174 0.51623 0.0
H679 H 0.05395 0.15425 0.38504 0.0
H680 H 0.00878 0.1283 0.46162 0.0
C681 C 0.99338 0.20844 0.52201 0.0
C682 C 0.3876 0.07504 0.14655 0.0
C683 C 0.37068 0.09052 0.21684 0.0
H684 H 0.42455 0.04014 0.10839 0.0
C685 C 0.38371 0.08814 0.30278 0.0
H686 H 0.37822 0.07658 0.0794 0.0
C687 C 0.41061 0.06744 0.31953 0.0
C688 C 0.4248 0.04832 0.25095 0.0
H689 H 0.37157 0.10033 0.35803 0.0
H690 H 0.41885 0.06495 0.38739 0.0
C691 C 0.41424 0.05395 0.16341 0.0
C692 C 0.54853 0.34355 0.48721 0.0
C693 C 0.51999 0.32475 0.50671 0.0
H694 H 0.58782 0.374 0.53738 0.0
C695 C 0.5111 0.31972 0.59599 0.0
H696 H 0.55672 0.34696 0.41934 0.0
C697 C 0.52935 0.3349 0.66403 0.0
C698 C 0.55646 0.3556 0.64367 0.0
H699 H 0.48936 0.30514 0.61314 0.0
H700 H 0.52127 0.33179 0.73198 0.0
C701 C 0.56656 0.35875 0.55486 0.0
C702 C 0.24887 0.48309 0.50598 0.0
C703 C 0.23038 0.45695 0.46779 0.0
H704 H 0.24719 0.52785 0.58242 0.0
C705 C 0.19786 0.45104 0.49769 0.0
H706 H 0.27401 0.48832 0.48417 0.0
C707 C 0.18263 0.47361 0.55485 0.0
C708 C 0.19956 0.50262 0.58152 0.0
H709 H 0.18326 0.4308 0.47034 0.0
H710 H 0.15658 0.47015 0.57085 0.0
C711 C 0.23351 0.50585 0.56238 0.0
C712 C 0.10994 0.79329 0.93364 0.0
C713 C 0.11543 0.79956 0.02426 0.0
H714 H 0.11013 0.81332 0.80241 0.0
C715 C 0.13227 0.8286 0.04988 0.0
H716 H 0.09729 0.77083 0.91239 0.0
C717 C 0.1397 0.85285 0.98697 0.0
C718 C 0.13048 0.84824 0.89783 0.0
H719 H 0.13677 0.834 0.11931 0.0
H720 H 0.15014 0.87629 1.00908 0.0
C721 C 0.11747 0.81748 0.87071 0.0
C722 C 0.66549 0.06952 0.25924 0.0
C723 C 0.68783 0.08895 0.21003 0.0
H724 H 0.61658 0.04966 0.27019 0.0
C725 C 0.67659 0.10552 0.13431 0.0
H726 H 0.67392 0.05577 0.31651 0.0
C727 C 0.64329 0.10277 0.10853 0.0
C728 C 0.62094 0.08259 0.15664 0.0
H729 H 0.69358 0.12035 0.09496 0.0
H730 H 0.63516 0.11646 0.05089 0.0
C731 C 0.63257 0.06607 0.23246 0.0
C732 C 0.39251 0.74502 0.97384 0.0
C733 C 0.39252 0.73807 0.06523 0.0
H734 H 0.38909 0.72512 0.84257 0.0
C735 C 0.38081 0.70709 0.09437 0.0
H736 H 0.4008 0.76897 0.94971 0.0
C737 C 0.37358 0.68213 0.03298 0.0
C738 C 0.37821 0.68773 0.94178 0.0
H739 H 0.3804 0.701 0.16431 0.0
H740 H 0.36713 0.65764 0.05718 0.0
C741 C 0.38555 0.71997 0.91245 0.0
C742 C 0.81408 0.41712 0.9205 0.0
C743 C 0.79224 0.44411 0.92042 0.0
H744 H 0.85227 0.39136 0.85031 0.0
C745 C 0.78762 0.46206 0.84157 0.0
H746 H 0.81804 0.40271 0.98006 0.0
C747 C 0.80755 0.45588 0.76776 0.0
C748 C 0.83219 0.43148 0.77174 0.0
H749 H 0.77027 0.48248 0.83909 0.0
H750 H 0.80566 0.47215 0.71091 0.0
C751 C 0.83383 0.41077 0.84645 0.0
C752 C 0.03572 0.16583 0.76953 0.0
C753 C 0.02777 0.17208 0.8594 0.0
H754 H 0.0368 0.13047 0.66197 0.0
C755 C 0.01264 0.14618 0.90771 0.0
H756 H 0.04702 0.18507 0.72941 0.0
C757 C 1.00679 0.11493 0.86881 0.0
C758 C 0.01581 0.10838 0.78025 0.0
H759 H 1.00649 0.14953 0.97709 0.0
H760 H 0.99583 0.09553 0.90907 0.0
C761 C 0.02963 0.13452 0.73042 0.0
C762 C 0.38098 0.02376 0.92735 0.0
C763 C 0.35174 0.0237 0.87591 0.0
H764 H 0.43423 0.02303 0.93011 0.0
C765 C 0.35533 0.02051 0.783 0.0
H766 H 0.37964 0.0259 0.99869 0.0
C767 C 0.38699 0.01832 0.74322 0.0
C768 C 0.4161 0.01987 0.79488 0.0
H769 H 0.33364 0.01979 0.74061 0.0
H770 H 0.38864 0.01621 0.6717 0.0
C771 C 0.41253 0.02227 0.88765 0.0
C772 C 0.50764 0.39548 0.95509 0.0
C773 C 0.49098 0.36829 0.91611 0.0
H774 H 0.52249 0.44657 0.94386 0.0
C775 C 0.47797 0.37238 0.82991 0.0
H776 H 0.51757 0.39364 0.02164 0.0
C777 C 0.48149 0.40267 0.78437 0.0
C778 C 0.49704 0.43007 0.82506 0.0
H779 H 0.46497 0.3521 0.79754 0.0
H780 H 0.47088 0.40504 0.71868 0.0
C781 C 0.51029 0.42598 0.91066 0.0
C782 C 0.15493 0.47008 0.83314 0.0
C783 C 0.17058 0.49607 0.88082 0.0
H784 H 0.11431 0.45458 0.75033 0.0
C785 C 0.15486 0.52728 0.8804 0.0
H786 H 0.16549 0.44546 0.83214 0.0
C787 C 0.12474 0.53216 0.83464 0.0
C788 C 0.10917 0.50605 0.7878 0.0
H789 H 0.16598 0.54823 0.91451 0.0
H790 H 0.11359 0.55653 0.8363 0.0
C791 C 0.12496 0.47506 0.78715 0.0
C792 C 0.97733 0.87394 0.52558 0.0
C793 C 1.00708 0.85831 0.50067 0.0
H794 H 0.95459 0.91555 0.59035 0.0
C795 C 0.0372 0.87489 0.51914 0.0
H796 H 0.95372 0.86166 0.51387 0.0
C797 C 0.03759 0.90641 0.55967 0.0
C798 C 1.00786 0.92222 0.58489 0.0
H799 H 0.0606 0.86351 0.5014 0.0
H800 H 0.06136 0.91839 0.57115 0.0
C801 C 0.97781 0.9051 0.56861 0.0
C802 C 0.64376 1.00652 0.46882 0.0
C803 C 0.67155 0.99778 0.52057 0.0
H804 H 0.59156 0.01641 0.46379 0.0
C805 C 0.66597 0.99207 0.6121 0.0
H806 H 0.64638 0.01184 0.39894 0.0
C807 C 0.63405 0.99528 0.64999 0.0
C808 C 0.60657 1.00389 0.59756 0.0
H809 H 0.68617 0.98477 0.65495 0.0
H810 H 0.63081 0.99053 0.72017 0.0
C811 C 0.61199 1.00942 0.50647 0.0
C812 C 0.53089 0.65189 0.48644 0.0
C813 C 0.51052 0.67815 0.51512 0.0
H814 H 0.54566 0.60126 0.5035 0.0
C815 C 0.48878 0.67196 0.58684 0.0
H816 H 0.54802 0.65547 0.43185 0.0
C817 C 0.48741 0.64072 0.6282 0.0
C818 C 0.50793 0.61455 0.59989 0.0
H819 H 0.47221 0.69115 0.61021 0.0
H820 H 0.4702 0.63714 0.68268 0.0
C821 C 0.5297 0.6207 0.52828 0.0
C822 C 0.86974 0.52905 0.56407 0.0
C823 C 0.86594 0.53195 0.4712 0.0
H824 H 0.90297 0.52682 0.67533 0.0
C825 C 0.8951 0.53601 0.42025 0.0
H826 H 0.84822 0.52627 0.60655 0.0
C827 C 0.92672 0.53659 0.4603 0.0
C828 C 0.93045 0.53317 0.55277 0.0
H829 H 0.89371 0.53773 0.34869 0.0
H830 H 0.94831 0.53895 0.41815 0.0
C831 C 0.90137 0.52956 0.604 0.0
loop_
_geom_bond_atom_site_label_1
_geom_bond_atom_site_label_2
_geom_bond_distance
_geom_bond_site_symmetry_2
_ccdc_geom_bond_type
P0 O11 1.490 . S
P0 C14 1.812 . S
P0 C20 1.803 . S
P0 C26 1.819 . S
H1 C15 0.941 . S
H2 C16 0.939 . S
H3 C18 0.940 . S
H4 C19 0.940 . S
H5 C21 0.939 . S
H6 C22 0.942 . S
H7 C24 0.940 . S
H8 C25 0.939 . S
H9 C27 0.941 . S
H10 C31 0.939 . S
O11 P0 1.490 . S
H12 C28 0.939 . S
H13 C30 0.940 . S
C14 P0 1.812 . S
C14 C15 1.389 . S
C14 C19 1.391 . S
C15 H1 0.941 . S
C15 C14 1.389 . S
C15 C16 1.397 . S
C16 H2 0.939 . S
C16 C15 1.397 . S
C16 C17 1.378 . S
C17 C16 1.378 . S
C17 C18 1.378 . S
C18 H3 0.940 . S
C18 C17 1.378 . S
C18 C19 1.396 . S
C19 H4 0.940 . S
C19 C14 1.391 . S
C19 C18 1.396 . S
C20 P0 1.803 . S
C20 C21 1.378 . S
C20 C25 1.400 . S
C21 H5 0.939 . S
C21 C20 1.378 . S
C21 C22 1.361 . S
C22 H6 0.942 . S
C22 C21 1.361 . S
C22 C23 1.369 . S
C23 C22 1.369 . S
C23 C24 1.404 . S
C24 H7 0.940 . S
C24 C23 1.404 . S
C24 C25 1.389 . S
C25 H8 0.939 . S
C25 C20 1.400 . S
C25 C24 1.389 . S
C26 P0 1.819 . S
C26 C27 1.391 . S
C26 C31 1.391 . S
C27 H9 0.941 . S
C27 C26 1.391 . S
C27 C28 1.396 . S
C28 H12 0.939 . S
C28 C27 1.396 . S
C28 C29 1.397 . S
C29 C28 1.397 . S
C29 C30 1.385 . S
C30 H13 0.940 . S
C30 C29 1.385 . S
C30 C31 1.388 . S
C31 H10 0.939 . S
C31 C26 1.391 . S
C31 C30 1.388 . S
P32 O43 1.490 . S
P32 C46 1.812 . S
P32 C52 1.803 . S
P32 C58 1.819 . S
H33 C47 0.941 . S
H34 C48 0.939 . S
H35 C50 0.940 . S
H36 C51 0.940 . S
H37 C53 0.939 . S
H38 C54 0.942 . S
H39 C56 0.940 . S
H40 C57 0.939 . S
H41 C59 0.941 . S
H42 C63 0.939 . S
O43 P32 1.490 . S
H44 C60 0.939 . S
H45 C62 0.940 . S
C46 P32 1.812 . S
C46 C47 1.389 . S
C46 C51 1.391 1_455 S
C47 H33 0.941 . S
C47 C46 1.389 . S
C47 C48 1.397 . S
C48 H34 0.939 . S
C48 C47 1.397 . S
C48 C49 1.378 1_455 S
C49 C48 1.378 1_655 S
C49 C50 1.378 . S
C50 H35 0.940 . S
C50 C49 1.378 . S
C50 C51 1.396 . S
C51 H36 0.940 . S
C51 C46 1.391 1_655 S
C51 C50 1.396 . S
C52 P32 1.803 . S
C52 C53 1.378 . S
C52 C57 1.400 1_455 S
C53 H37 0.939 . S
C53 C52 1.378 . S
C53 C54 1.361 . S
C54 H38 0.942 . S
C54 C53 1.361 . S
C54 C55 1.369 1_455 S
C55 C54 1.369 1_655 S
C55 C56 1.404 . S
C56 H39 0.940 . S
C56 C55 1.404 . S
C56 C57 1.389 . S
C57 H40 0.939 . S
C57 C52 1.400 1_655 S
C57 C56 1.389 . S
C58 P32 1.819 . S
C58 C59 1.391 . S
C58 C63 1.391 1_455 S
C59 H41 0.941 . S
C59 C58 1.391 . S
C59 C60 1.396 . S
C60 H44 0.939 . S
C60 C59 1.396 . S
C60 C61 1.397 1_455 S
C61 C60 1.397 1_655 S
C61 C62 1.385 . S
C62 H45 0.940 . S
C62 C61 1.385 . S
C62 C63 1.388 . S
C63 H42 0.939 . S
C63 C58 1.391 1_655 S
C63 C62 1.388 . S
P64 O75 1.490 . S
P64 C78 1.812 . S
P64 C84 1.803 . S
P64 C90 1.819 . S
H65 C79 0.941 . S
H66 C80 0.939 . S
H67 C82 0.940 . S
H68 C83 0.940 . S
H69 C85 0.939 . S
H70 C86 0.942 . S
H71 C88 0.940 . S
H72 C89 0.939 . S
H73 C91 0.941 . S
H74 C95 0.939 . S
O75 P64 1.490 . S
H76 C92 0.939 . S
H77 C94 0.940 . S
C78 P64 1.812 . S
C78 C79 1.389 . S
C78 C83 1.391 1_545 S
C79 H65 0.941 . S
C79 C78 1.389 . S
C79 C80 1.397 . S
C80 H66 0.939 . S
C80 C79 1.397 . S
C80 C81 1.378 1_545 S
C81 C80 1.378 1_565 S
C81 C82 1.378 . S
C82 H67 0.940 . S
C82 C81 1.378 . S
C82 C83 1.396 . S
C83 H68 0.940 . S
C83 C78 1.391 1_565 S
C83 C82 1.396 . S
C84 P64 1.803 . S
C84 C85 1.378 . S
C84 C89 1.400 1_545 S
C85 H69 0.939 . S
C85 C84 1.378 . S
C85 C86 1.361 . S
C86 H70 0.942 . S
C86 C85 1.361 . S
C86 C87 1.369 1_545 S
C87 C86 1.369 1_565 S
C87 C88 1.404 . S
C88 H71 0.940 . S
C88 C87 1.404 . S
C88 C89 1.389 . S
C89 H72 0.939 . S
C89 C84 1.400 1_565 S
C89 C88 1.389 . S
C90 P64 1.819 . S
C90 C91 1.391 . S
C90 C95 1.391 1_545 S
C91 H73 0.941 . S
C91 C90 1.391 . S
C91 C92 1.396 . S
C92 H76 0.939 . S
C92 C91 1.396 . S
C92 C93 1.397 1_545 S
C93 C92 1.397 1_565 S
C93 C94 1.385 . S
C94 H77 0.940 . S
C94 C93 1.385 . S
C94 C95 1.388 . S
C95 H74 0.939 . S
C95 C90 1.391 1_565 S
C95 C94 1.388 . S
P96 O107 1.490 . S
P96 C110 1.812 . S
P96 C116 1.803 . S
P96 C122 1.819 . S
H97 C111 0.941 . S
H98 C112 0.939 . S
H99 C114 0.940 . S
H100 C115 0.940 . S
H101 C117 0.939 . S
H102 C118 0.942 . S
H103 C120 0.940 . S
H104 C121 0.939 . S
H105 C123 0.941 . S
H106 C127 0.939 . S
O107 P96 1.490 . S
H108 C124 0.939 . S
H109 C126 0.940 . S
C110 P96 1.812 . S
C110 C111 1.389 . S
C110 C115 1.391 . S
C111 H97 0.941 . S
C111 C110 1.389 . S
C111 C112 1.397 . S
C112 H98 0.939 . S
C112 C111 1.397 . S
C112 C113 1.378 . S
C113 C112 1.378 . S
C113 C114 1.378 . S
C114 H99 0.940 . S
C114 C113 1.378 . S
C114 C115 1.396 . S
C115 H100 0.940 . S
C115 C110 1.391 . S
C115 C114 1.396 . S
C116 P96 1.803 . S
C116 C117 1.378 . S
C116 C121 1.400 . S
C117 H101 0.939 . S
C117 C116 1.378 . S
C117 C118 1.361 . S
C118 H102 0.942 . S
C118 C117 1.361 . S
C118 C119 1.369 . S
C119 C118 1.369 . S
C119 C120 1.404 . S
C120 H103 0.940 . S
C120 C119 1.404 . S
C120 C121 1.389 . S
C121 H104 0.939 . S
C121 C116 1.400 . S
C121 C120 1.389 . S
C122 P96 1.819 . S
C122 C123 1.391 . S
C122 C127 1.391 . S
C123 H105 0.941 . S
C123 C122 1.391 . S
C123 C124 1.396 . S
C124 H108 0.939 . S
C124 C123 1.396 . S
C124 C125 1.397 . S
C125 C124 1.397 . S
C125 C126 1.385 . S
C126 H109 0.940 . S
C126 C125 1.385 . S
C126 C127 1.388 . S
C127 H106 0.939 . S
C127 C122 1.391 . S
C127 C126 1.388 . S
P128 O139 1.490 . S
P128 C142 1.812 1_554 S
P128 C148 1.803 . S
P128 C154 1.819 . S
H129 C143 0.941 . S
H130 C144 0.939 . S
H131 C146 0.940 . S
H132 C147 0.940 . S
H133 C149 0.939 . S
H134 C150 0.942 . S
H135 C152 0.940 . S
H136 C153 0.939 . S
H137 C155 0.941 . S
H138 C159 0.939 . S
O139 P128 1.490 . S
H140 C156 0.939 . S
H141 C158 0.940 . S
C142 P128 1.812 1_556 S
C142 C143 1.389 . S
C142 C147 1.391 . S
C143 H129 0.941 . S
C143 C142 1.389 . S
C143 C144 1.397 . S
C144 H130 0.939 . S
C144 C143 1.397 . S
C144 C145 1.378 . S
C145 C144 1.378 . S
C145 C146 1.378 . S
C146 H131 0.940 . S
C146 C145 1.378 . S
C146 C147 1.396 . S
C147 H132 0.940 . S
C147 C142 1.391 . S
C147 C146 1.396 . S
C148 P128 1.803 . S
C148 C149 1.378 . S
C148 C153 1.400 . S
C149 H133 0.939 . S
C149 C148 1.378 . S
C149 C150 1.361 . S
C150 H134 0.942 . S
C150 C149 1.361 . S
C150 C151 1.369 . S
C151 C150 1.369 . S
C151 C152 1.404 . S
C152 H135 0.940 . S
C152 C151 1.404 . S
C152 C153 1.389 . S
C153 H136 0.939 . S
C153 C148 1.400 . S
C153 C152 1.389 . S
C154 P128 1.819 . S
C154 C155 1.391 . S
C154 C159 1.391 . S
C155 H137 0.941 . S
C155 C154 1.391 . S
C155 C156 1.396 . S
C156 H140 0.939 . S
C156 C155 1.396 . S
C156 C157 1.397 . S
C157 C156 1.397 . S
C157 C158 1.385 . S
C158 H141 0.940 . S
C158 C157 1.385 . S
C158 C159 1.388 . S
C159 H138 0.939 . S
C159 C154 1.391 . S
C159 C158 1.388 . S
P160 O171 1.490 . S
P160 C174 1.812 1_554 S
P160 C180 1.803 . S
P160 C186 1.819 . S
H161 C175 0.941 . S
H162 C176 0.939 . S
H163 C178 0.940 . S
H164 C179 0.940 . S
H165 C181 0.939 . S
H166 C182 0.942 . S
H167 C184 0.940 . S
H168 C185 0.939 . S
H169 C187 0.941 . S
H170 C191 0.939 . S
O171 P160 1.490 . S
H172 C188 0.939 . S
H173 C190 0.940 . S
C174 P160 1.812 1_556 S
C174 C175 1.389 . S
C174 C179 1.391 . S
C175 H161 0.941 . S
C175 C174 1.389 . S
C175 C176 1.397 . S
C176 H162 0.939 . S
C176 C175 1.397 . S
C176 C177 1.378 . S
C177 C176 1.378 . S
C177 C178 1.378 . S
C178 H163 0.940 . S
C178 C177 1.378 . S
C178 C179 1.396 . S
C179 H164 0.940 . S
C179 C174 1.391 . S
C179 C178 1.396 . S
C180 P160 1.803 . S
C180 C181 1.378 . S
C180 C185 1.400 . S
C181 H165 0.939 . S
C181 C180 1.378 . S
C181 C182 1.361 . S
C182 H166 0.942 . S
C182 C181 1.361 . S
C182 C183 1.369 . S
C183 C182 1.369 . S
C183 C184 1.404 . S
C184 H167 0.940 . S
C184 C183 1.404 . S
C184 C185 1.389 . S
C185 H168 0.939 . S
C185 C180 1.400 . S
C185 C184 1.389 . S
C186 P160 1.819 . S
C186 C187 1.391 . S
C186 C191 1.391 . S
C187 H169 0.941 . S
C187 C186 1.391 . S
C187 C188 1.396 . S
C188 H172 0.939 . S
C188 C187 1.396 . S
C188 C189 1.397 . S
C189 C188 1.397 . S
C189 C190 1.385 . S
C190 H173 0.940 . S
C190 C189 1.385 . S
C190 C191 1.388 . S
C191 H170 0.939 . S
C191 C186 1.391 . S
C191 C190 1.388 . S
P192 O203 1.490 . S
P192 C206 1.812 1_554 S
P192 C212 1.803 . S
P192 C218 1.819 . S
H193 C207 0.941 . S
H194 C208 0.939 . S
H195 C210 0.940 . S
H196 C211 0.940 . S
H197 C213 0.939 . S
H198 C214 0.942 . S
H199 C216 0.940 . S
H200 C217 0.939 . S
H201 C219 0.941 . S
H202 C223 0.939 . S
O203 P192 1.490 . S
H204 C220 0.939 . S
H205 C222 0.940 . S
C206 P192 1.812 1_556 S
C206 C207 1.389 . S
C206 C211 1.391 . S
C207 H193 0.941 . S
C207 C206 1.389 . S
C207 C208 1.397 . S
C208 H194 0.939 . S
C208 C207 1.397 . S
C208 C209 1.378 . S
C209 C208 1.378 . S
C209 C210 1.378 . S
C210 H195 0.940 . S
C210 C209 1.378 . S
C210 C211 1.396 . S
C211 H196 0.940 . S
C211 C206 1.391 . S
C211 C210 1.396 . S
C212 P192 1.803 . S
C212 C213 1.378 . S
C212 C217 1.400 . S
C213 H197 0.939 . S
C213 C212 1.378 . S
C213 C214 1.361 . S
C214 H198 0.942 . S
C214 C213 1.361 . S
C214 C215 1.369 . S
C215 C214 1.369 . S
C215 C216 1.404 . S
C216 H199 0.940 . S
C216 C215 1.404 . S
C216 C217 1.389 . S
C217 H200 0.939 . S
C217 C212 1.400 . S
C217 C216 1.389 . S
C218 P192 1.819 . S
C218 C219 1.391 . S
C218 C223 1.391 . S
C219 H201 0.941 . S
C219 C218 1.391 . S
C219 C220 1.396 . S
C220 H204 0.939 . S
C220 C219 1.396 . S
C220 C221 1.397 . S
C221 C220 1.397 . S
C221 C222 1.385 . S
C222 H205 0.940 . S
C222 C221 1.385 . S
C222 C223 1.388 . S
C223 H202 0.939 . S
C223 C218 1.391 . S
C223 C222 1.388 . S
P224 O235 1.490 . S
P224 C238 1.812 1_554 S
P224 C244 1.803 . S
P224 C250 1.819 . S
H225 C239 0.941 . S
H226 C240 0.939 . S
H227 C242 0.940 . S
H228 C243 0.940 . S
H229 C245 0.939 . S
H230 C246 0.942 . S
H231 C248 0.940 . S
H232 C249 0.939 . S
H233 C251 0.941 . S
H234 C255 0.939 . S
O235 P224 1.490 . S
H236 C252 0.939 . S
H237 C254 0.940 . S
C238 P224 1.812 1_556 S
C238 C239 1.389 . S
C238 C243 1.391 . S
C239 H225 0.941 . S
C239 C238 1.389 . S
C239 C240 1.397 . S
C240 H226 0.939 . S
C240 C239 1.397 . S
C240 C241 1.378 . S
C241 C240 1.378 . S
C241 C242 1.378 . S
C242 H227 0.940 . S
C242 C241 1.378 . S
C242 C243 1.396 . S
C243 H228 0.940 . S
C243 C238 1.391 . S
C243 C242 1.396 . S
C244 P224 1.803 . S
C244 C245 1.378 . S
C244 C249 1.400 . S
C245 H229 0.939 . S
C245 C244 1.378 . S
C245 C246 1.361 . S
C246 H230 0.942 . S
C246 C245 1.361 . S
C246 C247 1.369 . S
C247 C246 1.369 . S
C247 C248 1.404 . S
C248 H231 0.940 . S
C248 C247 1.404 . S
C248 C249 1.389 . S
C249 H232 0.939 . S
C249 C244 1.400 . S
C249 C248 1.389 . S
C250 P224 1.819 . S
C250 C251 1.391 . S
C250 C255 1.391 . S
C251 H233 0.941 . S
C251 C250 1.391 . S
C251 C252 1.396 . S
C252 H236 0.939 . S
C252 C251 1.396 . S
C252 C253 1.397 . S
C253 C252 1.397 . S
C253 C254 1.385 . S
C254 H237 0.940 . S
C254 C253 1.385 . S
C254 C255 1.388 . S
C255 H234 0.939 . S
C255 C250 1.391 . S
C255 C254 1.388 . S
Eu256 N285 2.600 . S
Eu256 N291 2.562 . S
Eu256 O300 2.462 . S
Eu256 O301 2.373 1_545 S
Eu256 O303 2.432 . S
Eu256 O304 2.291 1_655 S
Eu256 O308 2.335 1_655 S
Eu256 O311 2.372 . S
Eu256 C320 2.787 . S
C257 N258 1.365 . S
C257 C260 1.405 . S
C257 C264 1.448 . S
N258 C257 1.365 . S
N258 C261 1.319 1_545 S
N258 Eu267 2.600 1_545 S
C259 C261 1.397 1_545 S
C259 C262 1.367 . S
C259 H279 0.931 . S
C260 C257 1.405 . S
C260 C262 1.403 . S
C260 C266 1.439 . S
C261 N258 1.319 1_565 S
C261 C259 1.397 1_565 S
C261 H272 0.930 . S
C262 C259 1.367 . S
C262 C260 1.403 . S
C262 H283 0.929 . S
C263 C264 1.430 1_554 S
C263 C265 1.387 . S
C263 C269 1.404 . S
C264 C257 1.448 . S
C264 C263 1.430 1_556 S
C264 N268 1.351 . S
C265 C263 1.387 . S
C265 C266 1.374 1_554 S
C265 H280 0.931 . S
C266 C260 1.439 . S
C266 C265 1.374 1_556 S
C266 H281 0.931 1_556 S
Eu267 N258 2.600 1_565 S
Eu267 N268 2.562 1_565 S
Eu267 O302 2.335 . S
Eu267 O305 2.372 . S
Eu267 O306 2.462 . S
Eu267 O307 2.373 1_565 S
Eu267 O309 2.432 . S
Eu267 O310 2.288 1_465 S
Eu267 C331 2.787 . S
N268 C264 1.351 . S
N268 Eu267 2.562 1_545 S
N268 C270 1.325 . S
C269 C263 1.404 . S
C269 C271 1.366 . S
C269 H277 0.930 . S
C270 N268 1.325 . S
C270 C271 1.416 1_556 S
C270 H276 0.929 . S
C271 C269 1.366 . S
C271 C270 1.416 1_554 S
C271 H273 0.930 . S
H272 C261 0.930 . S
H273 C271 0.930 . S
H274 C289 0.930 . S
H275 C296 0.930 1_455 S
H276 C270 0.929 . S
H277 C269 0.930 . S
H278 C292 0.929 1_455 S
H279 C259 0.931 . S
H280 C265 0.931 . S
H281 C266 0.931 1_554 S
H282 C287 0.931 . S
H283 C262 0.929 . S
H284 C295 0.930 . S
N285 Eu256 2.600 . S
N285 C286 1.365 1_545 S
N285 C289 1.319 . S
C286 N285 1.365 1_565 S
C286 C288 1.405 . S
C286 C294 1.448 . S
C287 H282 0.931 . S
C287 C289 1.397 . S
C287 C290 1.367 1_545 S
C288 C286 1.405 . S
C288 C290 1.403 . S
C288 C321 1.439 . S
C289 H274 0.930 . S
C289 N285 1.319 . S
C289 C287 1.397 . S
C290 C287 1.367 1_565 S
C290 C288 1.403 . S
C290 H297 0.929 . S
N291 Eu256 2.562 . S
N291 C292 1.325 . S
N291 C294 1.351 1_545 S
C292 H278 0.929 1_655 S
C292 N291 1.325 . S
C292 C296 1.416 1_545 S
C293 C294 1.430 . S
C293 C295 1.404 . S
C293 C322 1.387 . S
C294 C286 1.448 . S
C294 N291 1.351 1_565 S
C294 C293 1.430 . S
C295 H284 0.930 . S
C295 C293 1.404 . S
C295 C296 1.366 . S
C296 H275 0.930 1_655 S
C296 C292 1.416 1_565 S
C296 C295 1.366 . S
H297 C290 0.929 . S
H298 C321 0.931 . S
H299 C322 0.931 . S
O300 Eu256 2.462 . S
O300 C320 1.252 . S
O301 Eu256 2.373 1_565 S
O301 C312 1.249 . S
O302 Eu267 2.335 . S
O302 C312 1.264 1_455 S
O303 Eu256 2.432 . S
O303 C320 1.268 . S
O304 Eu256 2.291 1_455 S
O304 C319 1.255 . S
O305 Eu267 2.372 . S
O305 C319 1.257 1_565 S
O306 Eu267 2.462 . S
O306 C331 1.252 . S
O307 Eu267 2.373 1_545 S
O307 C323 1.249 . S
O308 Eu256 2.335 1_455 S
O308 C323 1.264 . S
O309 Eu267 2.432 . S
O309 C331 1.268 . S
O310 Eu267 2.288 1_645 S
O310 C330 1.258 . S
O311 Eu256 2.372 . S
O311 C330 1.257 . S
C312 O301 1.249 . S
C312 O302 1.264 1_655 S
C313 C316 1.382 . S
C313 C318 1.390 . S
C313 C320 1.506 . S
C314 C315 1.398 . S
C314 C318 1.392 . S
C315 C314 1.398 . S
C315 C317 1.372 . S
C315 H332 0.931 . S
C316 C313 1.382 . S
C316 C317 1.390 . S
C316 H333 0.931 . S
C317 C315 1.372 . S
C317 C316 1.390 . S
C317 H334 0.929 . S
C318 C313 1.390 . S
C318 C314 1.392 . S
C318 H335 0.930 1_655 S
C319 O304 1.255 . S
C319 O305 1.257 1_545 S
C320 Eu256 2.787 . S
C320 O300 1.252 . S
C320 O303 1.268 . S
C320 C313 1.506 . S
C321 C288 1.439 . S
C321 H298 0.931 . S
C321 C322 1.374 . S
C322 C293 1.387 . S
C322 H299 0.931 . S
C322 C321 1.374 . S
C323 O307 1.249 . S
C323 O308 1.264 . S
C324 C327 1.382 . S
C324 C328 1.390 . S
C324 C331 1.506 . S
C325 C326 1.398 . S
C325 C328 1.392 . S
C326 C325 1.398 . S
C326 C329 1.372 . S
C326 H336 0.931 1_556 S
C327 C324 1.382 . S
C327 C329 1.390 . S
C327 H337 0.931 . S
C328 C324 1.390 . S
C328 C325 1.392 . S
C328 H338 0.930 . S
C329 C326 1.372 . S
C329 C327 1.390 . S
C329 H339 0.929 . S
C330 O310 1.258 . S
C330 O311 1.257 . S
C331 Eu267 2.787 . S
C331 O306 1.252 . S
C331 O309 1.268 . S
C331 C324 1.506 . S
H332 C315 0.931 . S
H333 C316 0.931 . S
H334 C317 0.929 . S
H335 C318 0.930 1_455 S
H336 C326 0.931 1_554 S
H337 C327 0.931 . S
H338 C328 0.930 . S
H339 C329 0.929 . S
Eu340 N369 2.600 . S
Eu340 N375 2.562 . S
Eu340 O384 2.462 . S
Eu340 O385 2.373 . S
Eu340 O387 2.432 . S
Eu340 O388 2.291 . S
Eu340 O392 2.335 1_545 S
Eu340 O395 2.372 . S
Eu340 C404 2.787 . S
C341 N342 1.365 . S
C341 C344 1.405 . S
C341 C348 1.448 . S
N342 C341 1.365 . S
N342 C345 1.319 . S
N342 Eu351 2.600 . S
C343 C345 1.397 . S
C343 C346 1.367 . S
C343 H363 0.931 . S
C344 C341 1.405 . S
C344 C346 1.403 . S
C344 C350 1.439 . S
C345 N342 1.319 . S
C345 C343 1.397 . S
C345 H356 0.930 . S
C346 C343 1.367 . S
C346 C344 1.403 . S
C346 H367 0.929 . S
C347 C348 1.430 . S
C347 C349 1.387 . S
C347 C353 1.404 . S
C348 C341 1.448 . S
C348 C347 1.430 . S
C348 N352 1.351 . S
C349 C347 1.387 . S
C349 C350 1.374 . S
C349 H364 0.931 . S
C350 C344 1.439 . S
C350 C349 1.374 . S
C350 H365 0.931 . S
Eu351 N342 2.600 . S
Eu351 N352 2.562 . S
Eu351 O386 2.335 1_565 S
Eu351 O389 2.372 . S
Eu351 O390 2.462 . S
Eu351 O391 2.373 . S
Eu351 O393 2.432 . S
Eu351 O394 2.285 1_565 S
Eu351 C415 2.787 . S
N352 C348 1.351 . S
N352 Eu351 2.562 . S
N352 C354 1.325 . S
C353 C347 1.404 . S
C353 C355 1.366 . S
C353 H361 0.930 . S
C354 N352 1.325 . S
C354 C355 1.416 . S
C354 H360 0.929 . S
C355 C353 1.366 . S
C355 C354 1.416 . S
C355 H357 0.930 . S
H356 C345 0.930 . S
H357 C355 0.930 . S
H358 C373 0.930 . S
H359 C380 0.930 . S
H360 C354 0.929 . S
H361 C353 0.930 . S
H362 C376 0.929 . S
H363 C343 0.931 . S
H364 C349 0.931 . S
H365 C350 0.931 . S
H366 C371 0.931 . S
H367 C346 0.929 . S
H368 C379 0.930 . S
N369 Eu340 2.600 . S
N369 C370 1.365 . S
N369 C373 1.319 . S
C370 N369 1.365 . S
C370 C372 1.405 . S
C370 C378 1.448 . S
C371 H366 0.931 . S
C371 C373 1.397 . S
C371 C374 1.367 . S
C372 C370 1.405 . S
C372 C374 1.403 . S
C372 C405 1.439 . S
C373 H358 0.930 . S
C373 N369 1.319 . S
C373 C371 1.397 . S
C374 C371 1.367 . S
C374 C372 1.403 . S
C374 H381 0.929 . S
N375 Eu340 2.562 . S
N375 C376 1.325 . S
N375 C378 1.351 . S
C376 H362 0.929 . S
C376 N375 1.325 . S
C376 C380 1.416 . S
C377 C378 1.430 . S
C377 C379 1.404 . S
C377 C406 1.387 . S
C378 C370 1.448 . S
C378 N375 1.351 . S
C378 C377 1.430 . S
C379 H368 0.930 . S
C379 C377 1.404 . S
C379 C380 1.366 . S
C380 H359 0.930 . S
C380 C376 1.416 . S
C380 C379 1.366 . S
H381 C374 0.929 . S
H382 C405 0.931 . S
H383 C406 0.931 . S
O384 Eu340 2.462 . S
O384 C404 1.252 . S
O385 Eu340 2.373 . S
O385 C396 1.249 . S
O386 Eu351 2.335 1_545 S
O386 C396 1.264 . S
O387 Eu340 2.432 . S
O387 C404 1.268 . S
O388 Eu340 2.291 . S
O388 C403 1.255 1_545 S
O389 Eu351 2.372 . S
O389 C403 1.257 . S
O390 Eu351 2.462 . S
O390 C415 1.252 . S
O391 Eu351 2.373 . S
O391 C407 1.249 . S
O392 Eu340 2.335 1_565 S
O392 C407 1.264 . S
O393 Eu351 2.432 . S
O393 C415 1.268 . S
O394 Eu351 2.285 1_545 S
O394 C414 1.264 . S
O395 Eu340 2.372 . S
O395 C414 1.257 . S
C396 O385 1.249 . S
C396 O386 1.264 . S
C397 C400 1.382 1_556 S
C397 C402 1.390 . S
C397 C404 1.506 . S
C398 C399 1.398 . S
C398 C402 1.392 1_554 S
C399 C398 1.398 . S
C399 C401 1.372 . S
C399 H416 0.931 . S
C400 C397 1.382 1_554 S
C400 C401 1.390 . S
C400 H417 0.931 . S
C401 C399 1.372 . S
C401 C400 1.390 . S
C401 H418 0.929 . S
C402 C397 1.390 . S
C402 C398 1.392 1_556 S
C402 H419 0.930 . S
C403 O388 1.255 1_565 S
C403 O389 1.257 . S
C404 Eu340 2.787 . S
C404 O384 1.252 . S
C404 O387 1.268 . S
C404 C397 1.506 . S
C405 C372 1.439 . S
C405 H382 0.931 . S
C405 C406 1.374 . S
C406 C377 1.387 . S
C406 H383 0.931 . S
C406 C405 1.374 . S
C407 O391 1.249 . S
C407 O392 1.264 . S
C408 C411 1.382 . S
C408 C412 1.390 . S
C408 C415 1.506 . S
C409 C410 1.398 . S
C409 C412 1.392 . S
C410 C409 1.398 . S
C410 C413 1.372 . S
C410 H420 0.931 . S
C411 C408 1.382 . S
C411 C413 1.390 . S
C411 H421 0.931 . S
C412 C408 1.390 . S
C412 C409 1.392 . S
C412 H422 0.930 . S
C413 C410 1.372 . S
C413 C411 1.390 . S
C413 H423 0.929 . S
C414 O394 1.264 . S
C414 O395 1.257 . S
C415 Eu351 2.787 . S
C415 O390 1.252 . S
C415 O393 1.268 . S
C415 C408 1.506 . S
H416 C399 0.931 . S
H417 C400 0.931 . S
H418 C401 0.929 . S
H419 C402 0.930 . S
H420 C410 0.931 . S
H421 C411 0.931 . S
H422 C412 0.930 . S
H423 C413 0.929 . S
Eu424 N453 2.600 . S
Eu424 N459 2.562 . S
Eu424 O468 2.462 . S
Eu424 O469 2.373 . S
Eu424 O471 2.432 . S
Eu424 O472 2.291 . S
Eu424 O476 2.335 . S
Eu424 O479 2.372 . S
Eu424 C488 2.787 . S
C425 N426 1.365 . S
C425 C428 1.405 . S
C425 C432 1.448 . S
N426 C425 1.365 . S
N426 C429 1.319 . S
N426 Eu435 2.600 . S
C427 C429 1.397 . S
C427 C430 1.367 . S
C427 H447 0.931 . S
C428 C425 1.405 . S
C428 C430 1.403 . S
C428 C434 1.439 . S
C429 N426 1.319 . S
C429 C427 1.397 . S
C429 H440 0.930 . S
C430 C427 1.367 . S
C430 C428 1.403 . S
C430 H451 0.929 . S
C431 C432 1.430 1_554 S
C431 C433 1.387 . S
C431 C437 1.404 . S
C432 C425 1.448 . S
C432 C431 1.430 1_556 S
C432 N436 1.351 . S
C433 C431 1.387 . S
C433 C434 1.374 1_554 S
C433 H448 0.931 . S
C434 C428 1.439 . S
C434 C433 1.374 1_556 S
C434 H449 0.931 1_556 S
Eu435 N426 2.600 . S
Eu435 N436 2.562 . S
Eu435 O470 2.335 . S
Eu435 O473 2.372 . S
Eu435 O474 2.462 . S
Eu435 O475 2.373 . S
Eu435 O477 2.432 . S
Eu435 O478 2.291 . S
Eu435 C499 2.787 . S
N436 C432 1.351 . S
N436 Eu435 2.562 . S
N436 C438 1.325 . S
C437 C431 1.404 . S
C437 C439 1.366 . S
C437 H445 0.930 . S
C438 N436 1.325 . S
C438 C439 1.416 1_556 S
C438 H444 0.929 . S
C439 C437 1.366 . S
C439 C438 1.416 1_554 S
C439 H441 0.930 . S
H440 C429 0.930 . S
H441 C439 0.930 . S
H442 C457 0.930 . S
H443 C464 0.930 . S
H444 C438 0.929 . S
H445 C437 0.930 . S
H446 C460 0.929 . S
H447 C427 0.931 . S
H448 C433 0.931 . S
H449 C434 0.931 1_554 S
H450 C455 0.931 . S
H451 C430 0.929 . S
H452 C463 0.930 . S
N453 Eu424 2.600 . S
N453 C454 1.365 . S
N453 C457 1.319 . S
C454 N453 1.365 . S
C454 C456 1.405 . S
C454 C462 1.448 . S
C455 H450 0.931 . S
C455 C457 1.397 . S
C455 C458 1.367 . S
C456 C454 1.405 . S
C456 C458 1.403 . S
C456 C489 1.439 . S
C457 H442 0.930 . S
C457 N453 1.319 . S
C457 C455 1.397 . S
C458 C455 1.367 . S
C458 C456 1.403 . S
C458 H465 0.929 . S
N459 Eu424 2.562 . S
N459 C460 1.325 . S
N459 C462 1.351 . S
C460 H446 0.929 . S
C460 N459 1.325 . S
C460 C464 1.416 . S
C461 C462 1.430 . S
C461 C463 1.404 . S
C461 C490 1.387 . S
C462 C454 1.448 . S
C462 N459 1.351 . S
C462 C461 1.430 . S
C463 H452 0.930 . S
C463 C461 1.404 . S
C463 C464 1.366 . S
C464 H443 0.930 . S
C464 C460 1.416 . S
C464 C463 1.366 . S
H465 C458 0.929 . S
H466 C489 0.931 . S
H467 C490 0.931 . S
O468 Eu424 2.462 . S
O468 C488 1.252 . S
O469 Eu424 2.373 . S
O469 C480 1.249 . S
O470 Eu435 2.335 . S
O470 C480 1.264 . S
O471 Eu424 2.432 . S
O471 C488 1.268 . S
O472 Eu424 2.291 . S
O472 C487 1.255 . S
O473 Eu435 2.372 . S
O473 C487 1.257 . S
O474 Eu435 2.462 . S
O474 C499 1.252 . S
O475 Eu435 2.373 . S
O475 C491 1.249 . S
O476 Eu424 2.335 . S
O476 C491 1.264 . S
O477 Eu435 2.432 . S
O477 C499 1.268 . S
O478 Eu435 2.291 . S
O478 C498 1.255 . S
O479 Eu424 2.372 . S
O479 C498 1.257 . S
C480 O469 1.249 . S
C480 O470 1.264 . S
C481 C484 1.382 . S
C481 C486 1.390 . S
C481 C488 1.506 . S
C482 C483 1.398 . S
C482 C486 1.392 . S
C483 C482 1.398 . S
C483 C485 1.372 . S
C483 H500 0.931 . S
C484 C481 1.382 . S
C484 C485 1.390 . S
C484 H501 0.931 . S
C485 C483 1.372 . S
C485 C484 1.390 . S
C485 H502 0.929 . S
C486 C481 1.390 . S
C486 C482 1.392 . S
C486 H503 0.930 . S
C487 O472 1.255 . S
C487 O473 1.257 . S
C488 Eu424 2.787 . S
C488 O468 1.252 . S
C488 O471 1.268 . S
C488 C481 1.506 . S
C489 C456 1.439 . S
C489 H466 0.931 . S
C489 C490 1.374 . S
C490 C461 1.387 . S
C490 H467 0.931 . S
C490 C489 1.374 . S
C491 O475 1.249 . S
C491 O476 1.264 . S
C492 C495 1.382 . S
C492 C496 1.390 . S
C492 C499 1.506 . S
C493 C494 1.398 1_554 S
C493 C496 1.392 1_554 S
C494 C493 1.398 1_556 S
C494 C497 1.372 . S
C494 H504 0.931 1_556 S
C495 C492 1.382 . S
C495 C497 1.390 . S
C495 H505 0.931 . S
C496 C492 1.390 . S
C496 C493 1.392 1_556 S
C496 H506 0.930 . S
C497 C494 1.372 . S
C497 C495 1.390 . S
C497 H507 0.929 . S
C498 O478 1.255 . S
C498 O479 1.257 . S
C499 Eu435 2.787 . S
C499 O474 1.252 . S
C499 O477 1.268 . S
C499 C492 1.506 . S
H500 C483 0.931 . S
H501 C484 0.931 . S
H502 C485 0.929 . S
H503 C486 0.930 . S
H504 C494 0.931 1_554 S
H505 C495 0.931 . S
H506 C496 0.930 . S
H507 C497 0.929 . S
Eu508 N537 2.600 . S
Eu508 N543 2.562 . S
Eu508 O552 2.462 . S
Eu508 O553 2.373 1_455 S
Eu508 O555 2.432 . S
Eu508 O556 2.291 . S
Eu508 O560 2.335 . S
Eu508 O563 2.372 . S
Eu508 C572 2.787 . S
C509 N510 1.365 1_455 S
C509 C512 1.405 . S
C509 C516 1.448 . S
N510 C509 1.365 1_655 S
N510 C513 1.319 . S
N510 Eu519 2.600 . S
C511 C513 1.397 1_455 S
C511 C514 1.367 . S
C511 H531 0.931 . S
C512 C509 1.405 . S
C512 C514 1.403 . S
C512 C518 1.439 . S
C513 N510 1.319 . S
C513 C511 1.397 1_655 S
C513 H524 0.930 . S
C514 C511 1.367 . S
C514 C512 1.403 . S
C514 H535 0.929 . S
C515 C516 1.430 1_554 S
C515 C517 1.387 . S
C515 C521 1.404 . S
C516 C509 1.448 . S
C516 C515 1.430 1_556 S
C516 N520 1.351 . S
C517 C515 1.387 . S
C517 C518 1.374 1_554 S
C517 H532 0.931 . S
C518 C512 1.439 . S
C518 C517 1.374 1_556 S
C518 H533 0.931 1_556 S
Eu519 N510 2.600 . S
Eu519 N520 2.562 1_655 S
Eu519 O554 2.335 . S
Eu519 O557 2.372 . S
Eu519 O558 2.462 . S
Eu519 O559 2.373 1_655 S
Eu519 O561 2.432 . S
Eu519 O562 2.291 . S
Eu519 C583 2.787 . S
N520 C516 1.351 . S
N520 Eu519 2.562 1_455 S
N520 C522 1.325 . S
C521 C515 1.404 . S
C521 C523 1.366 . S
C521 H529 0.930 . S
C522 N520 1.325 . S
C522 C523 1.416 1_556 S
C522 H528 0.929 . S
C523 C521 1.366 . S
C523 C522 1.416 1_554 S
C523 H525 0.930 . S
H524 C513 0.930 . S
H525 C523 0.930 . S
H526 C541 0.930 . S
H527 C548 0.930 . S
H528 C522 0.929 . S
H529 C521 0.930 . S
H530 C544 0.929 . S
H531 C511 0.931 . S
H532 C517 0.931 . S
H533 C518 0.931 1_554 S
H534 C539 0.931 . S
H535 C514 0.929 . S
H536 C547 0.930 . S
N537 Eu508 2.600 . S
N537 C538 1.365 1_455 S
N537 C541 1.319 . S
C538 N537 1.365 1_655 S
C538 C540 1.405 . S
C538 C546 1.448 . S
C539 H534 0.931 . S
C539 C541 1.397 . S
C539 C542 1.367 1_455 S
C540 C538 1.405 . S
C540 C542 1.403 . S
C540 C573 1.439 . S
C541 H526 0.930 . S
C541 N537 1.319 . S
C541 C539 1.397 . S
C542 C539 1.367 1_655 S
C542 C540 1.403 . S
C542 H549 0.929 . S
N543 Eu508 2.562 . S
N543 C544 1.325 . S
N543 C546 1.351 1_455 S
C544 H530 0.929 . S
C544 N543 1.325 . S
C544 C548 1.416 1_455 S
C545 C546 1.430 . S
C545 C547 1.404 . S
C545 C574 1.387 . S
C546 C538 1.448 . S
C546 N543 1.351 1_655 S
C546 C545 1.430 . S
C547 H536 0.930 . S
C547 C545 1.404 . S
C547 C548 1.366 . S
C548 H527 0.930 . S
C548 C544 1.416 1_655 S
C548 C547 1.366 . S
H549 C542 0.929 . S
H550 C573 0.931 . S
H551 C574 0.931 . S
O552 Eu508 2.462 . S
O552 C572 1.252 . S
O553 Eu508 2.373 1_655 S
O553 C564 1.249 . S
O554 Eu519 2.335 . S
O554 C564 1.264 . S
O555 Eu508 2.432 . S
O555 C572 1.268 . S
O556 Eu508 2.291 . S
O556 C571 1.255 . S
O557 Eu519 2.372 . S
O557 C571 1.257 1_655 S
O558 Eu519 2.462 . S
O558 C583 1.252 . S
O559 Eu519 2.373 1_455 S
O559 C575 1.249 . S
O560 Eu508 2.335 . S
O560 C575 1.264 . S
O561 Eu519 2.432 . S
O561 C583 1.268 . S
O562 Eu519 2.291 . S
O562 C582 1.255 1_655 S
O563 Eu508 2.372 . S
O563 C582 1.257 . S
C564 O553 1.249 . S
C564 O554 1.264 . S
C565 C568 1.382 . S
C565 C570 1.390 . S
C565 C572 1.506 . S
C566 C567 1.398 . S
C566 C570 1.392 . S
C567 C566 1.398 . S
C567 C569 1.372 . S
C567 H584 0.931 . S
C568 C565 1.382 . S
C568 C569 1.390 . S
C568 H585 0.931 . S
C569 C567 1.372 . S
C569 C568 1.390 . S
C569 H586 0.929 . S
C570 C565 1.390 . S
C570 C566 1.392 . S
C570 H587 0.930 . S
C571 O556 1.255 . S
C571 O557 1.257 1_455 S
C572 Eu508 2.787 . S
C572 O552 1.252 . S
C572 O555 1.268 . S
C572 C565 1.506 . S
C573 C540 1.439 . S
C573 H550 0.931 . S
C573 C574 1.374 . S
C574 C545 1.387 . S
C574 H551 0.931 . S
C574 C573 1.374 . S
C575 O559 1.249 . S
C575 O560 1.264 . S
C576 C579 1.382 . S
C576 C580 1.390 . S
C576 C583 1.506 . S
C577 C578 1.398 1_554 S
C577 C580 1.391 1_554 S
C578 C577 1.398 1_556 S
C578 C581 1.372 . S
C578 H588 0.931 1_556 S
C579 C576 1.382 . S
C579 C581 1.390 . S
C579 H589 0.931 . S
C580 C576 1.390 . S
C580 C577 1.391 1_556 S
C580 H590 0.930 . S
C581 C578 1.372 . S
C581 C579 1.390 . S
C581 H591 0.929 . S
C582 O562 1.255 1_455 S
C582 O563 1.257 . S
C583 Eu519 2.787 . S
C583 O558 1.252 . S
C583 O561 1.268 . S
C583 C576 1.506 . S
H584 C567 0.931 . S
H585 C568 0.931 . S
H586 C569 0.929 . S
H587 C570 0.930 . S
H588 C578 0.931 1_554 S
H589 C579 0.931 . S
H590 C580 0.930 . S
H591 C581 0.929 . S
C592 C593 1.387 . S
C592 H596 0.950 . S
C592 C601 1.390 . S
C593 C592 1.387 . S
C593 C595 1.413 . S
H594 C601 0.950 . S
C595 C593 1.413 . S
C595 C597 1.387 1_545 S
C595 H599 0.928 1_545 S
H596 C592 0.950 . S
C597 C595 1.387 1_565 S
C597 C598 1.387 1_565 S
C597 H600 0.950 . S
C598 C597 1.387 1_545 S
C598 C601 1.387 . S
H599 C595 0.928 1_565 S
H600 C597 0.950 . S
C601 C592 1.390 . S
C601 H594 0.950 . S
C601 C598 1.387 . S
C602 C603 1.387 . S
C602 H606 0.950 . S
C602 C611 1.390 . S
C603 C602 1.387 . S
C603 C605 1.387 . S
H604 C611 0.950 . S
C605 C603 1.387 . S
C605 C607 1.390 . S
C605 H609 0.950 . S
H606 C602 0.950 . S
C607 C605 1.390 . S
C607 C608 1.387 . S
C607 H610 0.950 . S
C608 C607 1.387 . S
C608 C611 1.387 . S
H609 C605 0.950 . S
H610 C607 0.950 . S
C611 C602 1.390 . S
C611 H604 0.950 . S
C611 C608 1.387 . S
C612 C613 1.387 . S
C612 H616 0.950 . S
C612 C621 1.390 . S
C613 C612 1.387 . S
C613 C615 1.387 . S
H614 C621 0.950 . S
C615 C613 1.387 . S
C615 C617 1.390 . S
C615 H619 0.950 . S
H616 C612 0.950 . S
C617 C615 1.390 . S
C617 C618 1.387 . S
C617 H620 0.950 . S
C618 C617 1.387 . S
C618 C621 1.387 . S
H619 C615 0.950 . S
H620 C617 0.950 . S
C621 C612 1.390 . S
C621 H614 0.950 . S
C621 C618 1.387 . S
C622 C623 1.387 . S
C622 H626 0.950 . S
C622 C631 1.390 . S
C623 C622 1.387 . S
C623 C625 1.387 . S
H624 C631 0.950 . S
C625 C623 1.387 . S
C625 C627 1.390 . S
C625 H629 0.950 . S
H626 C622 0.950 . S
C627 C625 1.390 . S
C627 C628 1.387 . S
C627 H630 0.947 1_455 S
C628 C627 1.387 . S
C628 C631 1.387 . S
H629 C625 0.950 . S
H630 C627 0.947 1_655 S
C631 C622 1.390 . S
C631 H624 0.950 . S
C631 C628 1.387 . S
C632 C633 1.387 . S
C632 H636 0.950 . S
C632 C641 1.390 1_554 S
C633 C632 1.387 . S
C633 C635 1.387 1_565 S
H634 C641 0.950 . S
C635 C633 1.387 1_545 S
C635 C637 1.390 1_554 S
C635 H639 0.950 . S
H636 C632 0.950 . S
C637 C635 1.390 1_556 S
C637 C638 1.387 1_545 S
C637 H640 0.950 . S
C638 C637 1.387 1_565 S
C638 C641 1.387 . S
H639 C635 0.950 . S
H640 C637 0.950 . S
C641 C632 1.390 1_556 S
C641 H634 0.950 . S
C641 C638 1.387 . S
C642 C643 1.387 . S
C642 H646 0.950 . S
C642 C651 1.390 1_554 S
C643 C642 1.387 . S
C643 C645 1.387 . S
H644 C651 0.950 . S
C645 C643 1.387 . S
C645 C647 1.390 1_554 S
C645 H649 0.950 . S
H646 C642 0.950 . S
C647 C645 1.390 1_556 S
C647 C648 1.387 . S
C647 H650 0.950 . S
C648 C647 1.387 . S
C648 C651 1.387 . S
H649 C645 0.950 . S
H650 C647 0.950 . S
C651 C642 1.390 1_556 S
C651 H644 0.950 . S
C651 C648 1.387 . S
C652 C653 1.387 . S
C652 H656 0.950 . S
C652 C661 1.390 1_554 S
C653 C652 1.387 . S
C653 C655 1.387 . S
H654 C661 0.950 . S
C655 C653 1.387 . S
C655 C657 1.390 1_554 S
C655 H659 0.950 . S
H656 C652 0.950 . S
C657 C655 1.390 1_556 S
C657 C658 1.387 . S
C657 H660 0.950 . S
C658 C657 1.387 . S
C658 C661 1.387 . S
H659 C655 0.950 . S
H660 C657 0.950 . S
C661 C652 1.390 1_556 S
C661 H654 0.950 . S
C661 C658 1.387 . S
C662 C663 1.387 . S
C662 H666 0.950 . S
C662 C671 1.390 1_554 S
C663 C662 1.387 . S
C663 C665 1.387 . S
H664 C671 0.950 . S
C665 C663 1.387 . S
C665 C667 1.390 1_554 S
C665 H669 0.950 . S
H666 C662 0.950 . S
C667 C665 1.390 1_556 S
C667 C668 1.387 . S
C667 H670 0.950 . S
C668 C667 1.387 . S
C668 C671 1.387 . S
H669 C665 0.950 . S
H670 C667 0.950 . S
C671 C662 1.390 1_556 S
C671 H664 0.950 . S
C671 C668 1.387 . S
C672 C673 1.387 . S
C672 H676 0.950 . S
C672 C681 1.390 1_455 S
C673 C672 1.387 . S
C673 C675 1.387 . S
H674 C681 0.950 . S
C675 C673 1.387 . S
C675 C677 1.390 . S
C675 H679 0.950 . S
H676 C672 0.950 . S
C677 C675 1.390 . S
C677 C678 1.387 1_455 S
C677 H680 0.950 . S
C678 C677 1.387 1_655 S
C678 C681 1.387 . S
H679 C675 0.950 . S
H680 C677 0.950 . S
C681 C672 1.390 1_655 S
C681 H674 0.950 . S
C681 C678 1.387 . S
C682 C683 1.387 . S
C682 H686 0.949 . S
C682 C691 1.390 1_545 S
C683 C682 1.387 . S
C683 C685 1.387 . S
H684 C691 0.950 . S
C685 C683 1.387 . S
C685 C687 1.390 . S
C685 H689 0.950 . S
H686 C682 0.949 . S
C687 C685 1.390 . S
C687 C688 1.387 1_545 S
C687 H690 0.950 . S
C688 C687 1.387 1_565 S
C688 C691 1.387 . S
H689 C685 0.950 . S
H690 C687 0.950 . S
C691 C682 1.390 1_565 S
C691 H684 0.950 . S
C691 C688 1.387 . S
C692 C693 1.387 . S
C692 H696 0.950 . S
C692 C701 1.390 . S
C693 C692 1.387 . S
C693 C695 1.387 . S
H694 C701 0.950 . S
C695 C693 1.387 . S
C695 C697 1.390 . S
C695 H699 0.950 . S
H696 C692 0.950 . S
C697 C695 1.390 . S
C697 C698 1.387 . S
C697 H700 0.950 . S
C698 C697 1.387 . S
C698 C701 1.387 . S
H699 C695 0.950 . S
H700 C697 0.950 . S
C701 C692 1.390 . S
C701 H694 0.950 . S
C701 C698 1.387 . S
C702 C703 1.387 . S
C702 H706 0.950 . S
C702 C711 1.390 . S
C703 C702 1.387 . S
C703 C705 1.387 . S
H704 C711 0.950 . S
C705 C703 1.387 . S
C705 C707 1.390 . S
C705 H709 0.950 . S
H706 C702 0.950 . S
C707 C705 1.390 . S
C707 C708 1.387 . S
C707 H710 0.950 . S
C708 C707 1.387 . S
C708 C711 1.387 . S
H709 C705 0.950 . S
H710 C707 0.950 . S
C711 C702 1.390 . S
C711 H704 0.950 . S
C711 C708 1.387 . S
C712 C713 1.387 . S
C712 H716 0.950 . S
C712 C721 1.392 . S
C713 C712 1.387 . S
C713 C715 1.387 1_655 S
H714 C721 0.947 1_556 S
C715 C713 1.387 1_455 S
C715 C717 1.390 . S
C715 H719 0.950 . S
H716 C712 0.950 . S
C717 C715 1.390 . S
C717 C718 1.387 . S
C717 H720 0.950 . S
C718 C717 1.387 . S
C718 C721 1.389 1_455 S
H719 C715 0.950 . S
H720 C717 0.950 . S
C721 C712 1.392 . S
C721 H714 0.947 1_554 S
C721 C718 1.389 1_655 S
C722 C723 1.387 . S
C722 H726 0.950 . S
C722 C731 1.390 . S
C723 C722 1.387 . S
C723 C725 1.387 1_565 S
H724 C731 0.950 1_556 S
C725 C723 1.387 1_545 S
C725 C727 1.390 . S
C725 H729 0.950 . S
H726 C722 0.950 . S
C727 C725 1.390 . S
C727 C728 1.387 . S
C727 H730 0.950 . S
C728 C727 1.387 . S
C728 C731 1.387 1_545 S
H729 C725 0.950 . S
H730 C727 0.950 . S
C731 C722 1.390 . S
C731 H724 0.950 1_554 S
C731 C728 1.387 1_565 S
C732 C733 1.387 . S
C732 H736 0.950 1_554 S
C732 C741 1.390 1_554 S
C733 C732 1.387 . S
C733 C735 1.387 . S
H734 C741 0.950 . S
C735 C733 1.387 . S
C735 C737 1.390 . S
C735 H739 0.950 . S
H736 C732 0.950 1_556 S
C737 C735 1.390 . S
C737 C738 1.387 . S
C737 H740 0.950 . S
C738 C737 1.387 . S
C738 C741 1.387 1_554 S
H739 C735 0.950 . S
H740 C737 0.950 . S
C741 C732 1.390 1_556 S
C741 H734 0.950 . S
C741 C738 1.387 1_556 S
C742 C743 1.387 . S
C742 H746 0.950 . S
C742 C751 1.390 . S
C743 C742 1.387 . S
C743 C745 1.387 . S
H744 C751 0.950 . S
C745 C743 1.387 . S
C745 C747 1.390 1_554 S
C745 H749 0.950 1_554 S
H746 C742 0.950 . S
C747 C745 1.390 1_556 S
C747 C748 1.387 1_556 S
C747 H750 0.950 . S
C748 C747 1.387 1_554 S
C748 C751 1.387 . S
H749 C745 0.950 1_556 S
H750 C747 0.950 . S
C751 C742 1.390 . S
C751 H744 0.950 . S
C751 C748 1.387 . S
C752 C753 1.387 . S
C752 H756 0.950 . S
C752 C761 1.390 . S
C753 C752 1.387 . S
C753 C755 1.387 . S
H754 C761 0.950 . S
C755 C753 1.387 . S
C755 C757 1.390 . S
C755 H759 0.950 . S
H756 C752 0.950 . S
C757 C755 1.390 . S
C757 C758 1.387 . S
C757 H760 0.950 . S
C758 C757 1.387 . S
C758 C761 1.387 . S
H759 C755 0.950 . S
H760 C757 0.950 . S
C761 C752 1.390 . S
C761 H754 0.950 . S
C761 C758 1.387 . S
C762 C763 1.387 . S
C762 H766 0.950 . S
C762 C771 1.390 . S
C763 C762 1.387 . S
C763 C765 1.387 . S
H764 C771 0.950 . S
C765 C763 1.387 . S
C765 C767 1.390 . S
C765 H769 0.950 . S
H766 C762 0.950 . S
C767 C765 1.390 . S
C767 C768 1.387 . S
C767 H770 0.950 . S
C768 C767 1.387 . S
C768 C771 1.387 . S
H769 C765 0.950 . S
H770 C767 0.950 . S
C771 C762 1.390 . S
C771 H764 0.950 . S
C771 C768 1.387 . S
C772 C773 1.387 . S
C772 H776 0.950 . S
C772 C781 1.390 . S
C773 C772 1.387 . S
C773 C775 1.387 . S
H774 C781 0.950 . S
C775 C773 1.387 . S
C775 C777 1.390 . S
C775 H779 0.950 . S
H776 C772 0.950 . S
C777 C775 1.390 . S
C777 C778 1.387 . S
C777 H780 0.950 . S
C778 C777 1.387 . S
C778 C781 1.387 . S
H779 C775 0.950 . S
H780 C777 0.950 . S
C781 C772 1.390 . S
C781 H774 0.950 . S
C781 C778 1.387 . S
C782 C783 1.387 . S
C782 H786 0.950 . S
C782 C791 1.390 . S
C783 C782 1.387 . S
C783 C785 1.387 . S
H784 C791 0.950 . S
C785 C783 1.387 . S
C785 C787 1.390 . S
C785 H789 0.950 . S
H786 C782 0.950 . S
C787 C785 1.390 . S
C787 C788 1.387 . S
C787 H790 0.950 . S
C788 C787 1.387 . S
C788 C791 1.387 . S
H789 C785 0.950 . S
H790 C787 0.950 . S
C791 C782 1.390 . S
C791 H784 0.950 . S
C791 C788 1.387 . S
C792 C793 1.387 . S
C792 H796 0.950 . S
C792 C801 1.390 . S
C793 C792 1.387 . S
C793 C795 1.387 . S
H794 C801 0.950 . S
C795 C793 1.387 . S
C795 C797 1.390 . S
C795 H799 0.950 1_655 S
H796 C792 0.950 . S
C797 C795 1.390 . S
C797 C798 1.390 . S
C797 H800 0.947 1_655 S
C798 C797 1.390 . S
C798 C801 1.387 . S
H799 C795 0.950 1_455 S
H800 C797 0.947 1_455 S
C801 C792 1.390 . S
C801 H794 0.950 . S
C801 C798 1.387 . S
C802 C803 1.387 . S
C802 H806 0.950 . S
C802 C811 1.390 . S
C803 C802 1.387 . S
C803 C805 1.387 1_565 S
H804 C811 0.950 . S
C805 C803 1.387 1_545 S
C805 C807 1.390 . S
C805 H809 0.950 . S
H806 C802 0.950 . S
C807 C805 1.390 . S
C807 C808 1.387 1_545 S
C807 H810 0.950 . S
C808 C807 1.387 1_565 S
C808 C811 1.387 . S
H809 C805 0.950 . S
H810 C807 0.950 . S
C811 C802 1.390 . S
C811 H804 0.950 . S
C811 C808 1.387 . S
C812 C813 1.387 . S
C812 H816 0.950 . S
C812 C821 1.390 . S
C813 C812 1.387 . S
C813 C815 1.387 . S
H814 C821 0.950 . S
C815 C813 1.387 . S
C815 C817 1.390 . S
C815 H819 0.950 . S
H816 C812 0.950 . S
C817 C815 1.390 . S
C817 C818 1.387 . S
C817 H820 0.950 . S
C818 C817 1.387 . S
C818 C821 1.387 . S
H819 C815 0.950 . S
H820 C817 0.950 . S
C821 C812 1.390 . S
C821 H814 0.950 . S
C821 C818 1.387 . S
C822 C823 1.387 . S
C822 H826 0.950 . S
C822 C831 1.390 . S
C823 C822 1.387 . S
C823 C825 1.387 . S
H824 C831 0.950 . S
C825 C823 1.387 . S
C825 C827 1.390 . S
C825 H829 0.950 . S
H826 C822 0.950 . S
C827 C825 1.390 . S
C827 C828 1.387 . S
C827 H830 0.950 . S
C828 C827 1.387 . S
C828 C831 1.387 . S
H829 C825 0.950 . S
H830 C827 0.950 . S
C831 C822 1.390 . S
C831 H824 0.950 . S
C831 C828 1.387 . S
C593 C215 2.393 . S
C598 C319 2.582 . S
C608 C396 2.581 . S
C603 C247 2.393 . S
C618 C487 2.587 . S
C613 C151 2.396 . S
C628 C571 2.567 . S
C623 C183 2.379 . S
C638 C330 2.584 1_565 S
C633 C87 2.334 . S
C643 C119 2.332 . S
C648 C407 2.581 . S
C653 C23 2.338 . S
C658 C498 2.588 . S
C663 C55 2.319 . S
C668 C582 2.568 1_655 S
C678 C314 0.771 . S
C673 C189 0.772 . S
C688 C409 0.753 . S
C683 C221 0.758 . S
C698 C482 0.783 . S
C693 C253 0.781 . S
C703 C157 0.757 . S
C708 C566 0.760 . S
C713 C61 0.758 . S
C718 C325 0.772 1_554 S
C728 C398 0.752 . S
C723 C93 0.753 . S
C738 C493 0.782 . S
C733 C125 0.759 . S
C743 C29 0.757 . S
C748 C577 0.758 . S
C753 C177 2.589 . S
C758 C323 2.897 . S
C763 C209 2.601 . S
C768 C414 2.983 . S
C778 C491 2.914 . S
C773 C241 2.605 . S
C788 C575 2.918 . S
C783 C145 2.609 . S
C793 C49 2.560 . S
C798 C312 2.897 . S
C808 C403 2.983 . S
C803 C81 2.566 . S
C818 C480 2.913 . S
C813 C113 2.572 . S
C823 C17 2.580 . S
C828 C564 2.917 . S
