# Generated by pormake.
# Topology zzz, (3,6)-cn, num edge types: 1
# Building blocks:
#     Node 0, Type 0, BuildingBlock: BELTOD_clean_linker_0, # of connection points: 3
#     Node 1, Type 0, BuildingBlock: BELTOD_clean_linker_0, # of connection points: 3
#     Node 2, Type 0, BuildingBlock: BELTOD_clean_linker_0, # of connection points: 3
#     Node 3, Type 0, BuildingBlock: BELTOD_clean_linker_0, # of connection points: 3
#     Node 4, Type 0, BuildingBlock: BELTOD_clean_linker_0, # of connection points: 3
#     Node 5, Type 0, BuildingBlock: BELTOD_clean_linker_0, # of connection points: 3
#     Node 6, Type 0, BuildingBlock: BELTOD_clean_linker_0, # of connection points: 3
#     Node 7, Type 0, BuildingBlock: BELTOD_clean_linker_0, # of connection points: 3
#     Node 8, Type 1, BuildingBlock: VOLQOD_clean_sbu_1, # of connection points: 6
#     Node 9, Type 1, BuildingBlock: VOLQOD_clean_sbu_1, # of connection points: 6
#     Node 10, Type 1, BuildingBlock: VOLQOD_clean_sbu_1, # of connection points: 6
#     Node 11, Type 1, BuildingBlock: VOLQOD_clean_sbu_1, # of connection points: 6
#     Edge 12, Type (0, 1), BuildingBlock: KIFKEQ_clean_linker_1, # of connection points: 2
#     Edge 13, Type (0, 1), BuildingBlock: KIFKEQ_clean_linker_1, # of connection points: 2
#     Edge 14, Type (0, 1), BuildingBlock: KIFKEQ_clean_linker_1, # of connection points: 2
#     Edge 15, Type (0, 1), BuildingBlock: KIFKEQ_clean_linker_1, # of connection points: 2
#     Edge 16, Type (0, 1), BuildingBlock: KIFKEQ_clean_linker_1, # of connection points: 2
#     Edge 17, Type (0, 1), BuildingBlock: KIFKEQ_clean_linker_1, # of connection points: 2
#     Edge 18, Type (0, 1), BuildingBlock: KIFKEQ_clean_linker_1, # of connection points: 2
#     Edge 19, Type (0, 1), BuildingBlock: KIFKEQ_clean_linker_1, # of connection points: 2
#     Edge 20, Type (0, 1), BuildingBlock: KIFKEQ_clean_linker_1, # of connection points: 2
#     Edge 21, Type (0, 1), BuildingBlock: KIFKEQ_clean_linker_1, # of connection points: 2
#     Edge 22, Type (0, 1), BuildingBlock: KIFKEQ_clean_linker_1, # of connection points: 2
#     Edge 23, Type (0, 1), BuildingBlock: KIFKEQ_clean_linker_1, # of connection points: 2
#     Edge 24, Type (0, 1), BuildingBlock: KIFKEQ_clean_linker_1, # of connection points: 2
#     Edge 25, Type (0, 1), BuildingBlock: KIFKEQ_clean_linker_1, # of connection points: 2
#     Edge 26, Type (0, 1), BuildingBlock: KIFKEQ_clean_linker_1, # of connection points: 2
#     Edge 27, Type (0, 1), BuildingBlock: KIFKEQ_clean_linker_1, # of connection points: 2
#     Edge 28, Type (0, 1), BuildingBlock: KIFKEQ_clean_linker_1, # of connection points: 2
#     Edge 29, Type (0, 1), BuildingBlock: KIFKEQ_clean_linker_1, # of connection points: 2
#     Edge 30, Type (0, 1), BuildingBlock: KIFKEQ_clean_linker_1, # of connection points: 2
#     Edge 31, Type (0, 1), BuildingBlock: KIFKEQ_clean_linker_1, # of connection points: 2
#     Edge 32, Type (0, 1), BuildingBlock: KIFKEQ_clean_linker_1, # of connection points: 2
#     Edge 33, Type (0, 1), BuildingBlock: KIFKEQ_clean_linker_1, # of connection points: 2
#     Edge 34, Type (0, 1), BuildingBlock: KIFKEQ_clean_linker_1, # of connection points: 2
#     Edge 35, Type (0, 1), BuildingBlock: KIFKEQ_clean_linker_1, # of connection points: 2
# Relax obj value: 0.335
# Max RMSD: 0.254
# Mean RMSD: 0.197
data_MOF--net-zzz--node1-VOLQOD_clean_sbu_1--node2-BELTOD_clean_linker_0--edge1-KIFKEQ_clean_linker_1
_symmetry_space_group_name_H-M    P1
_symmetry_Int_Tables_number       1
_symmetry_cell_setting            triclinic
loop_
_symmetry_equiv_pos_as_xyz
'x, y, z'
_cell_length_a     55.03664
_cell_length_b     54.125398
_cell_length_c     21.410335
_cell_angle_alpha  90.133446
_cell_angle_beta   90.038383
_cell_angle_gamma 92.11599
loop_
_atom_site_label
_atom_site_type_symbol
_atom_site_fract_x
_atom_site_fract_y
_atom_site_fract_z
_atom_type_partial_charge
P0 P 0.77665 0.41657 0.16673 0.0
H1 H 0.76154 0.43227 0.29143 0.0
H2 H 0.78109 0.45974 0.36873 0.0
H3 H 0.83667 0.48015 0.23345 0.0
H4 H 0.81604 0.45423 0.15606 0.0
H5 H 0.73812 0.39016 0.09892 0.0
H6 H 0.70753 0.40342 0.0245 0.0
H7 H 0.73259 0.47935 0.05007 0.0
H8 H 0.76324 0.46593 0.12443 0.0
H9 H 0.82383 0.39814 0.20013 0.0
H10 H 0.78503 0.41398 0.03043 0.0
O11 O 0.76624 0.39253 0.2088 0.0
H12 H 0.8608 0.39191 0.13919 0.0
H13 H 0.82166 0.40733 0.96974 0.0
C14 C 0.78791 0.44048 0.21898 0.0
C15 C 0.77764 0.44313 0.27828 0.0
C16 C 0.78897 0.45876 0.32252 0.0
C17 C 0.81097 0.47171 0.30829 0.0
C18 C 0.81983 0.47062 0.24667 0.0
C19 C 0.80821 0.4554 0.2023 0.0
C20 C 0.75257 0.4271 0.11802 0.0
C21 C 0.73678 0.40969 0.08919 0.0
C22 C 0.7195 0.41726 0.04625 0.0
C23 C 0.71774 0.44241 0.03146 0.0
C24 C 0.73341 0.45988 0.0611 0.0
C25 C 0.75088 0.45223 0.10366 0.0
C26 C 0.80174 0.40674 0.12002 0.0
C27 C 0.82309 0.39964 0.14973 0.0
C28 C 0.84417 0.39614 0.11501 0.0
C29 C 0.84403 0.39921 0.04989 0.0
C30 C 0.82217 0.40463 0.01984 0.0
C31 C 0.80121 0.40854 0.05469 0.0
P32 P 0.04553 0.75131 0.21052 0.0
H33 H 0.0287 0.74319 0.33887 0.0
H34 H 0.00521 0.76865 0.4095 0.0
H35 H 0.99157 0.81868 0.25709 0.0
H36 H 0.01356 0.79244 0.18692 0.0
H37 H 0.06939 0.71219 0.14594 0.0
H38 H 0.05477 0.6799 0.07391 0.0
H39 H 0.98083 0.70064 0.10665 0.0
H40 H 0.99568 0.73323 0.17879 0.0
H41 H 0.08095 0.79269 0.22167 0.0
H42 H 0.03472 0.76007 0.07858 0.0
O43 O 0.06827 0.74251 0.25596 0.0
H44 H 0.09272 0.82649 0.15046 0.0
H45 H 0.04596 0.79356 0.00827 0.0
C46 C 0.02351 0.76634 0.25821 0.0
C47 C 0.02008 0.75932 0.32057 0.0
C48 C 0.0068 0.77405 0.36098 0.0
C49 C 0.99695 0.7962 0.33969 0.0
C50 C 0.99872 0.80184 0.27564 0.0
C51 C 0.01165 0.78691 0.23525 0.0
C52 C 0.03361 0.72478 0.16839 0.0
C53 C 0.05 0.70945 0.13871 0.0
C54 C 0.04164 0.69121 0.09708 0.0
C55 C 0.01669 0.68795 0.08436 0.0
C56 C 0.00014 0.70273 0.11592 0.0
C57 C 0.00859 0.72125 0.15726 0.0
C58 C 0.0574 0.77358 0.15505 0.0
C59 C 0.0738 0.79249 0.17453 0.0
C60 C 0.08034 0.81187 0.13401 0.0
C61 C 0.07043 0.81265 0.07347 0.0
C62 C 0.05444 0.79328 0.05391 0.0
C63 C 0.04792 0.77403 0.09434 0.0
P64 P 0.76341 0.07362 0.17675 0.0
H65 H 0.74976 0.07686 0.30816 0.0
H66 H 0.7249 0.04985 0.37439 0.0
H67 H 0.72366 0.99374 0.22998 0.0
H68 H 0.74742 0.02175 0.16245 0.0
H69 H 0.79369 0.09905 0.08576 0.0
H70 H 0.82805 0.08678 0.0224 0.0
H71 H 0.82694 0.01592 0.11511 0.0
H72 H 0.79255 0.02841 0.17871 0.0
H73 H 0.72001 0.10315 0.1794 0.0
H74 H 0.75408 0.05324 0.05198 0.0
O75 O 0.76984 0.10019 0.21396 0.0
H76 H 0.68593 0.1068 0.1063 0.0
H77 H 0.72044 0.05684 0.97927 0.0
C78 C 0.75075 0.0512 0.23069 0.0
C79 C 0.74466 0.05853 0.29124 0.0
C80 C 0.73047 0.04288 0.32939 0.0
C81 C 0.7221 0.01948 0.30777 0.0
C82 C 0.72941 0.01172 0.24803 0.0
C83 C 0.74332 0.02758 0.20958 0.0
C84 C 0.79044 0.06463 0.13658 0.0
C85 C 0.80104 0.08099 0.09302 0.0
C86 C 0.82071 0.07396 0.05691 0.0
C87 C 0.83018 0.05034 0.06363 0.0
C88 C 0.81983 0.03412 0.10835 0.0
C89 C 0.80017 0.04127 0.14482 0.0
C90 C 0.73988 0.07851 0.1203 0.0
C91 C 0.72038 0.0934 0.1352 0.0
C92 C 0.70089 0.09535 0.09368 0.0
C93 C 0.70067 0.08238 0.03668 0.0
C94 C 0.72035 0.06757 0.02204 0.0
C95 C 0.73964 0.06548 0.06369 0.0
P96 P 0.49796 0.74356 0.21122 0.0
H97 H 0.50853 0.74042 0.34511 0.0
H98 H 0.53367 0.71212 0.40318 0.0
H99 H 0.56515 0.6875 0.23025 0.0
H100 H 0.5401 0.71595 0.17238 0.0
H101 H 0.46931 0.78286 0.16332 0.0
H102 H 0.47874 0.81791 0.09557 0.0
H103 H 0.55482 0.8007 0.09978 0.0
H104 H 0.54502 0.76516 0.16717 0.0
H105 H 0.46597 0.69951 0.22129 0.0
H106 H 0.50916 0.73625 0.07887 0.0
O107 O 0.47501 0.74916 0.25951 0.0
H108 H 0.45704 0.66503 0.14958 0.0
H109 H 0.50104 0.70189 0.0081 0.0
C110 C 0.52208 0.72989 0.25439 0.0
C111 C 0.52144 0.72959 0.31981 0.0
C112 C 0.53592 0.71347 0.35303 0.0
C113 C 0.55108 0.69736 0.32105 0.0
C114 C 0.55342 0.69953 0.25593 0.0
C115 C 0.53911 0.7158 0.22288 0.0
C116 C 0.5065 0.77171 0.17121 0.0
C117 C 0.48811 0.78696 0.15092 0.0
C118 C 0.49356 0.80706 0.11217 0.0
C119 C 0.51759 0.81225 0.09247 0.0
C120 C 0.53612 0.79714 0.11387 0.0
C121 C 0.53059 0.77696 0.15287 0.0
C122 C 0.48777 0.72068 0.15502 0.0
C123 C 0.47307 0.7004 0.17416 0.0
C124 C 0.46821 0.6806 0.13334 0.0
C125 C 0.47825 0.68067 0.0729 0.0
C126 C 0.4925 0.70139 0.05365 0.0
C127 C 0.49724 0.72114 0.09432 0.0
P128 P 0.23146 0.4831 0.25715 0.0
H129 H 0.23198 0.44277 0.16601 0.0
H130 H 0.21586 0.44074 0.05982 0.0
H131 H 0.21131 0.52031 0.05882 0.0
H132 H 0.22838 0.52218 0.16369 0.0
H133 H 0.24888 0.4745 0.38167 0.0
H134 H 0.28764 0.48302 0.43383 0.0
H135 H 0.31715 0.51399 0.26286 0.0
H136 H 0.27799 0.50511 0.21048 0.0
H137 H 0.17983 0.48683 0.23666 0.0
H138 H 0.23675 0.52956 0.33031 0.0
O139 O 0.22082 0.45569 0.28283 0.0
H140 H 0.15005 0.5162 0.27142 0.0
H141 H 0.20694 0.559 0.36559 0.0
C142 C 0.23064 0.48256 0.17321 0.0
C143 C 0.22847 0.45984 0.14191 0.0
C144 C 0.21903 0.4587 0.08134 0.0
C145 C 0.21144 0.48027 0.05164 0.0
C146 C 0.2168 0.50329 0.08021 0.0
C147 C 0.22651 0.5044 0.1405 0.0
C148 C 0.26078 0.48879 0.29209 0.0
C149 C 0.26374 0.48296 0.35523 0.0
C150 C 0.28583 0.4881 0.38518 0.0
C151 C 0.30542 0.49929 0.35256 0.0
C152 C 0.30241 0.50518 0.28902 0.0
C153 C 0.28011 0.50012 0.25906 0.0
C154 C 0.21035 0.50573 0.28193 0.0
C155 C 0.18591 0.50263 0.26446 0.0
C156 C 0.16898 0.51962 0.28362 0.0
C157 C 0.1762 0.53997 0.32101 0.0
C158 C 0.20089 0.54343 0.33697 0.0
C159 C 0.21789 0.52651 0.31717 0.0
P160 P 0.12499 0.24458 0.20599 0.0
H161 H 0.14664 0.2358 0.08277 0.0
H162 H 0.13351 0.20742 0.99894 0.0
H163 H 0.06371 0.19679 0.08849 0.0
H164 H 0.07673 0.22503 0.17172 0.0
H165 H 0.15024 0.28846 0.25675 0.0
H166 H 0.13569 0.32604 0.30422 0.0
H167 H 0.06191 0.30342 0.25535 0.0
H168 H 0.07683 0.2665 0.20516 0.0
H169 H 0.13143 0.19187 0.21241 0.0
H170 H 0.09661 0.24689 0.32378 0.0
O171 O 0.1553 0.24537 0.20254 0.0
H172 H 0.11019 0.15925 0.27099 0.0
H173 H 0.07583 0.21436 0.38387 0.0
C174 C 0.11268 0.23257 0.1336 0.0
C175 C 0.12818 0.22817 0.08308 0.0
C176 C 0.12071 0.21188 0.0353 0.0
C177 C 0.09777 0.19966 0.03806 0.0
C178 C 0.08157 0.20582 0.08573 0.0
C179 C 0.08892 0.22227 0.13288 0.0
C180 C 0.11466 0.27469 0.22704 0.0
C181 C 0.13101 0.29192 0.25457 0.0
C182 C 0.12259 0.31329 0.28255 0.0
C183 C 0.09754 0.31762 0.28477 0.0
C184 C 0.08133 0.30088 0.25417 0.0
C185 C 0.08985 0.27966 0.22537 0.0
C186 C 0.11536 0.22181 0.26288 0.0
C187 C 0.11979 0.19693 0.25081 0.0
C188 C 0.10758 0.17827 0.28443 0.0
C189 C 0.09091 0.18417 0.33149 0.0
C190 C 0.08801 0.20918 0.34675 0.0
C191 C 0.1001 0.22786 0.31262 0.0
P192 P 0.2913 0.05871 0.20821 0.0
H193 H 0.2953 0.09067 0.09794 0.0
H194 H 0.31583 0.08411 0.99871 0.0
H195 H 0.32047 0.00642 0.04295 0.0
H196 H 0.29839 0.01296 0.13904 0.0
H197 H 0.26626 0.08084 0.31126 0.0
H198 H 0.23027 0.06756 0.37028 0.0
H199 H 0.21455 0.01019 0.23424 0.0
H200 H 0.25105 0.02351 0.17507 0.0
H201 H 0.34349 0.05388 0.20099 0.0
H202 H 0.28387 0.01963 0.30412 0.0
O203 O 0.30008 0.08803 0.22256 0.0
H204 H 0.37127 0.02486 0.24762 0.0
H205 H 0.31156 0.99085 0.35082 0.0
C206 C 0.29587 0.05241 0.12651 0.0
C207 C 0.29983 0.07206 0.08486 0.0
C208 C 0.312 0.06831 0.02848 0.0
C209 C 0.32085 0.04491 0.0135 0.0
C210 C 0.31417 0.02477 0.05227 0.0
C211 C 0.30148 0.02847 0.10779 0.0
C212 C 0.26105 0.05348 0.23813 0.0
C213 C 0.25468 0.06593 0.29282 0.0
C214 C 0.23429 0.05815 0.32699 0.0
C215 C 0.21985 0.03772 0.30709 0.0
C216 C 0.22539 0.02607 0.25033 0.0
C217 C 0.24608 0.03376 0.21632 0.0
C218 C 0.31165 0.03911 0.2492 0.0
C219 C 0.33642 0.0403 0.23404 0.0
C220 C 0.35218 0.02353 0.26001 0.0
C221 C 0.34345 0.00544 0.30217 0.0
C222 C 0.31872 0.0046 0.31834 0.0
C223 C 0.3029 0.02119 0.29174 0.0
P224 P 0.41802 0.25115 0.17923 0.0
H225 H 0.39326 0.25939 0.06 0.0
H226 H 0.40589 0.28461 0.97065 0.0
H227 H 0.47907 0.28984 0.04459 0.0
H228 H 0.46649 0.26374 0.13173 0.0
H229 H 0.39943 0.22178 0.28166 0.0
H230 H 0.41547 0.18734 0.33881 0.0
H231 H 0.47258 0.18144 0.20135 0.0
H232 H 0.4568 0.21694 0.14582 0.0
H233 H 0.41165 0.30405 0.18169 0.0
H234 H 0.45359 0.25148 0.28294 0.0
O235 O 0.38776 0.25225 0.18108 0.0
H236 H 0.43424 0.33795 0.23318 0.0
H237 H 0.47527 0.28506 0.33674 0.0
C238 C 0.42891 0.25974 0.10269 0.0
C239 C 0.41225 0.26508 0.05554 0.0
C240 C 0.41944 0.2799 0.00489 0.0
C241 C 0.44337 0.28993 0.00105 0.0
C242 C 0.46051 0.28247 0.04543 0.0
C243 C 0.45335 0.26739 0.0955 0.0
C244 C 0.42668 0.22169 0.20903 0.0
C245 C 0.41502 0.21264 0.26284 0.0
C246 C 0.42428 0.19284 0.29558 0.0
C247 C 0.44543 0.18146 0.27501 0.0
C248 C 0.4565 0.18995 0.21925 0.0
C249 C 0.44731 0.21005 0.18683 0.0
C250 C 0.43064 0.27523 0.22885 0.0
C251 C 0.42517 0.2998 0.21648 0.0
C252 C 0.43815 0.31916 0.24595 0.0
C253 C 0.45675 0.31426 0.28883 0.0
C254 C 0.46144 0.28953 0.30302 0.0
C255 C 0.44868 0.27021 0.27287 0.0
O256 O 0.08086 0.00078 0.65099 0.0
Zn257 Zn 0.05487 0.0017 0.71811 0.0
O258 O 0.02234 0.00031 0.67934 0.0
Zn259 Zn 0.00681 0.03164 0.69212 0.0
Zn260 Zn 0.0251 0.9943 0.5899 0.0
Zn261 Zn 0.00203 0.97386 0.71568 0.0
O262 O 0.97495 0.02711 0.73714 0.0
O263 O 0.97354 0.98737 0.76311 0.0
O264 O 0.06072 0.03341 0.76767 0.0
O265 O 0.02773 0.05409 0.74548 0.0
O266 O 0.00331 0.05035 0.61207 0.0
O267 O 0.01599 0.02407 0.54074 0.0
O268 O 0.00563 0.96411 0.56191 0.0
O269 O 0.0589 0.97246 0.77597 0.0
O270 O 0.98972 0.9495 0.65022 0.0
O271 O 0.02206 0.95412 0.77379 0.0
C272 C 0.08003 0.99485 0.5933 0.0
C273 C 0.96473 0.00882 0.76535 0.0
C274 C 0.00832 0.04518 0.55563 0.0
C275 C 0.04825 0.05272 0.77229 0.0
C276 C 0.99278 0.94794 0.59139 0.0
C277 C 0.04398 0.95517 0.79294 0.0
O278 O 0.05988 0.99008 0.56585 0.0
O279 O 0.51055 0.05406 0.62006 0.0
Zn280 Zn 0.51585 0.0291 0.68934 0.0
O281 O 0.52135 0.99615 0.65314 0.0
Zn282 Zn 0.49422 0.97365 0.67486 0.0
Zn283 Zn 0.52374 0.9984 0.56281 0.0
Zn284 Zn 0.55156 0.98274 0.68397 0.0
O285 O 0.50515 0.94684 0.73193 0.0
O286 O 0.54522 0.95271 0.73864 0.0
O287 O 0.48507 0.02878 0.74183 0.0
O288 O 0.46846 0.99166 0.72075 0.0
O289 O 0.47767 0.95896 0.59894 0.0
O290 O 0.49812 0.97697 0.52128 0.0
O291 O 0.55629 0.98904 0.53127 0.0
O292 O 0.54482 0.04078 0.74249 0.0
O293 O 0.5753 0.97514 0.61464 0.0
O294 O 0.56866 0.00855 0.73604 0.0
C295 C 0.51235 0.05274 0.56075 0.0
C296 C 0.52566 0.94082 0.75362 0.0
C297 C 0.48104 0.96251 0.54079 0.0
C298 C 0.46749 0.01286 0.74622 0.0
C299 C 0.57479 0.97972 0.55632 0.0
C300 C 0.56454 0.03023 0.75559 0.0
O301 O 0.51793 0.03279 0.53369 0.0
O302 O 0.46382 0.49851 0.64561 0.0
Zn303 Zn 0.4912 0.49334 0.70734 0.0
O304 O 0.52273 0.49449 0.66327 0.0
Zn305 Zn 0.53783 0.46261 0.6703 0.0
Zn306 Zn 0.51812 0.50159 0.57514 0.0
Zn307 Zn 0.54435 0.52033 0.69819 0.0
O308 O 0.5702 0.46596 0.71336 0.0
O309 O 0.57362 0.50574 0.73909 0.0
O310 O 0.48486 0.46017 0.75064 0.0
O311 O 0.51708 0.43944 0.72185 0.0
O312 O 0.54049 0.44534 0.58734 0.0
O313 O 0.52489 0.47226 0.52221 0.0
O314 O 0.53883 0.53055 0.54576 0.0
O315 O 0.48995 0.52106 0.7713 0.0
O316 O 0.55584 0.54509 0.63309 0.0
O317 O 0.52642 0.53972 0.76165 0.0
C318 C 0.46365 0.50538 0.58864 0.0
C319 C 0.58167 0.48396 0.73999 0.0
C320 C 0.53368 0.45128 0.53275 0.0
C321 C 0.49693 0.44049 0.7506 0.0
C322 C 0.5524 0.54639 0.57441 0.0
C323 C 0.50536 0.53824 0.78623 0.0
O324 O 0.4833 0.50849 0.55786 0.0
O325 O 0.96434 0.52323 0.60024 0.0
Zn326 Zn 0.99684 0.53042 0.64402 0.0
O327 O 0.01166 0.49949 0.67197 0.0
Zn328 Zn 0.01352 0.49827 0.76286 0.0
Zn329 Zn 0.99242 0.47088 0.64216 0.0
Zn330 Zn 0.04446 0.49764 0.63926 0.0
O331 O 0.04769 0.4931 0.79299 0.0
O332 O 0.06972 0.49509 0.70645 0.0
O333 O 0.99187 0.55304 0.71845 0.0
O334 O 0.00306 0.53035 0.79929 0.0
O335 O 0.99184 0.47098 0.79769 0.0
O336 O 0.97803 0.45103 0.7134 0.0
O337 O 0.01148 0.44886 0.5852 0.0
O338 O 0.01908 0.54916 0.58306 0.0
O339 O 0.04769 0.46822 0.58299 0.0
O340 O 0.05261 0.52744 0.58845 0.0
C341 C 0.95427 0.50273 0.58284 0.0
C342 C 0.06817 0.49284 0.76543 0.0
C343 C 0.97908 0.45358 0.77248 0.0
C344 C 0.99512 0.55032 0.77703 0.0
C345 C 0.03336 0.4505 0.5658 0.0
C346 C 0.04116 0.54581 0.56861 0.0
O347 O 0.96387 0.48224 0.59468 0.0
H348 H 0.17222 0.02725 0.27726 0.0
H349 H 0.22349 0.02567 0.42952 0.0
H350 H 0.13951 0.01387 0.34806 0.0
H351 H 0.19126 0.0113 0.49989 0.0
H352 H 0.12327 0.01878 0.62132 0.0
H353 H 0.15755 0.02671 0.55178 0.0
H354 H 0.12201 0.98166 0.40916 0.0
H355 H 0.08725 0.97465 0.47801 0.0
C356 C 0.17649 0.02364 0.32571 0.0
C357 C 0.20022 0.02778 0.34821 0.0
C358 C 0.15783 0.01583 0.36633 0.0
C359 C 0.16264 0.01162 0.43007 0.0
C360 C 0.18669 0.01489 0.45165 0.0
C361 C 0.2052 0.02303 0.41131 0.0
C362 C 0.12294 0.01024 0.57551 0.0
C363 C 0.10246 0.99622 0.55511 0.0
C364 C 0.14267 0.01473 0.53549 0.0
C365 C 0.14254 0.00502 0.47437 0.0
C366 C 0.12254 0.98994 0.45525 0.0
C367 C 0.10269 0.98571 0.49499 0.0
H368 H 0.49399 0.17344 0.29402 0.0
H369 H 0.42215 0.14536 0.34537 0.0
H370 H 0.51191 0.14346 0.36377 0.0
H371 H 0.44024 0.11642 0.4172 0.0
H372 H 0.48207 0.08995 0.59027 0.0
H373 H 0.4668 0.12141 0.51985 0.0
H374 H 0.51213 0.09466 0.37185 0.0
H375 H 0.52712 0.06292 0.44166 0.0
C376 C 0.48198 0.16078 0.31946 0.0
C377 C 0.45653 0.16201 0.31399 0.0
C378 C 0.4923 0.14378 0.35985 0.0
C379 C 0.47743 0.12794 0.39643 0.0
C380 C 0.45209 0.1288 0.39038 0.0
C381 C 0.44177 0.14545 0.34925 0.0
C382 C 0.48907 0.09104 0.54304 0.0
C383 C 0.50574 0.07393 0.52144 0.0
C384 C 0.48019 0.10889 0.50267 0.0
C385 C 0.48819 0.11028 0.4404 0.0
C386 C 0.50573 0.09398 0.41967 0.0
C387 C 0.51424 0.07582 0.45961 0.0
H388 H 0.31268 0.51885 0.4691 0.0
H389 H 0.35117 0.49072 0.30989 0.0
H390 H 0.35082 0.52333 0.52674 0.0
H391 H 0.38933 0.49502 0.36761 0.0
H392 H 0.45665 0.52261 0.47033 0.0
H393 H 0.4186 0.52439 0.41293 0.0
H394 H 0.37956 0.49608 0.57412 0.0
H395 H 0.41759 0.49478 0.63219 0.0
C396 C 0.32932 0.51365 0.44641 0.0
C397 C 0.32891 0.50425 0.38512 0.0
C398 C 0.35116 0.51618 0.47947 0.0
C399 C 0.3731 0.50935 0.45201 0.0
C400 C 0.3728 0.50072 0.38993 0.0
C401 C 0.35094 0.49825 0.3568 0.0
C402 C 0.43995 0.51697 0.49384 0.0
C403 C 0.44022 0.50841 0.55585 0.0
C404 C 0.41813 0.51786 0.46072 0.0
C405 C 0.39606 0.5102 0.48871 0.0
C406 C 0.39621 0.50237 0.55134 0.0
C407 C 0.41805 0.50151 0.58457 0.0
H408 H 0.11485 0.33465 0.39726 0.0
H409 H 0.05893 0.34714 0.26009 0.0
H410 H 0.09927 0.36736 0.46208 0.0
H411 H 0.04292 0.37956 0.32649 0.0
H412 H 0.00716 0.41392 0.50383 0.0
H413 H 0.02262 0.38268 0.43294 0.0
H414 H 0.09552 0.41329 0.45823 0.0
H415 H 0.08025 0.44439 0.52895 0.0
C416 C 0.09946 0.34459 0.38032 0.0
C417 C 0.08832 0.33833 0.32296 0.0
C418 C 0.09045 0.36328 0.41779 0.0
C419 C 0.06991 0.37603 0.39931 0.0
C420 C 0.05866 0.36985 0.34215 0.0
C421 C 0.06784 0.35127 0.30421 0.0
C422 C 0.02648 0.41399 0.49425 0.0
C423 C 0.04247 0.4316 0.52235 0.0
C424 C 0.03529 0.39622 0.45331 0.0
C425 C 0.06027 0.39554 0.4402 0.0
C426 C 0.07621 0.41322 0.46795 0.0
C427 C 0.06741 0.43109 0.50832 0.0
H428 H 0.83461 0.00615 0.00278 0.0
H429 H 0.87119 0.07723 0.03161 0.0
H430 H 0.86623 0.99492 0.92893 0.0
H431 H 0.90279 0.06602 0.95843 0.0
H432 H 0.93933 0.05106 0.77485 0.0
H433 H 0.9067 0.05979 0.84707 0.0
H434 H 0.90927 0.98564 0.92039 0.0
H435 H 0.94172 0.97665 0.84696 0.0
C436 C 0.84959 0.01923 0.99402 0.0
C437 C 0.85032 0.04265 0.02266 0.0
C438 C 0.86767 0.01281 0.95166 0.0
C439 C 0.88688 0.02969 0.93716 0.0
C440 C 0.88794 0.05281 0.96734 0.0
C441 C 0.86988 0.05922 0.00946 0.0
C442 C 0.93285 0.0365 0.80594 0.0
C443 C 0.94329 0.01319 0.80528 0.0
C444 C 0.91424 0.04159 0.84775 0.0
C445 C 0.90562 0.02354 0.89018 0.0
C446 C 0.91543 0.99993 0.88815 0.0
C447 C 0.93407 0.9948 0.84611 0.0
H448 H 0.49841 0.85812 0.0902 0.0
H449 H 0.54808 0.81207 0.99102 0.0
H450 H 0.50207 0.8889 0.00755 0.0
H451 H 0.55211 0.8433 0.90888 0.0
H452 H 0.56568 0.91929 0.80408 0.0
H453 H 0.56625 0.88875 0.88836 0.0
H454 H 0.48783 0.88722 0.89476 0.0
H455 H 0.4871 0.91742 0.81105 0.0
C456 C 0.51024 0.85463 0.05098 0.0
C457 C 0.52268 0.83246 0.04683 0.0
C458 C 0.51234 0.87227 0.00372 0.0
C459 C 0.5271 0.86829 0.95145 0.0
C460 C 0.54065 0.84683 0.94879 0.0
C461 C 0.5384 0.82902 0.99596 0.0
C462 C 0.54857 0.91228 0.82317 0.0
C463 C 0.52635 0.92089 0.80089 0.0
C464 C 0.54892 0.8948 0.87131 0.0
C465 C 0.5271 0.8859 0.89854 0.0
C466 C 0.50494 0.89409 0.87533 0.0
C467 C 0.50456 0.91127 0.82695 0.0
H468 H 0.68653 0.48037 0.04004 0.0
H469 H 0.70868 0.42209 0.91692 0.0
H470 H 0.65535 0.49153 0.9651 0.0
H471 H 0.678 0.43353 0.84124 0.0
H472 H 0.60075 0.43916 0.76466 0.0
H473 H 0.63491 0.43051 0.8318 0.0
H474 H 0.64759 0.50879 0.86403 0.0
H475 H 0.61278 0.51747 0.79811 0.0
C476 C 0.68493 0.4702 0.99649 0.0
C477 C 0.69982 0.45022 0.98451 0.0
C478 C 0.66716 0.47664 0.95341 0.0
C479 C 0.66405 0.46333 0.89724 0.0
C480 C 0.67953 0.44384 0.88457 0.0
C481 C 0.69713 0.43729 0.92783 0.0
C482 C 0.61092 0.4546 0.78554 0.0
C483 C 0.60392 0.47902 0.77617 0.0
C484 C 0.63064 0.44961 0.82387 0.0
C485 C 0.64401 0.46894 0.85349 0.0
C486 C 0.63745 0.49344 0.84272 0.0
C487 C 0.61759 0.49843 0.80458 0.0
H488 H 0.98026 0.65224 0.09334 0.0
H489 H 0.03448 0.68282 0.96698 0.0
H490 H 0.96944 0.62001 0.01635 0.0
H491 H 0.02389 0.65075 0.89061 0.0
H492 H 0.99066 0.59924 0.74777 0.0
H493 H 0.99087 0.63423 0.82019 0.0
H494 H 0.99216 0.58386 0.97614 0.0
H495 H 0.99185 0.54895 0.90419 0.0
C496 C 0.98959 0.65225 0.04881 0.0
C497 C 0.00838 0.6698 0.03629 0.0
C498 C 0.98349 0.6338 0.00495 0.0
C499 C 0.99584 0.63285 0.9475 0.0
C500 C 0.01386 0.65112 0.93411 0.0
C501 C 0.02012 0.66932 0.97809 0.0
C502 C 0.99051 0.59561 0.7975 0.0
C503 C 0.99154 0.57132 0.82018 0.0
C504 C 0.99074 0.61565 0.83893 0.0
C505 C 0.99171 0.61178 0.9038 0.0
C506 C 0.99123 0.58744 0.92646 0.0
C507 C 0.99124 0.56744 0.88513 0.0
H508 H 0.04275 0.18539 0.36384 0.0
H509 H 0.10424 0.13792 0.36629 0.0
H510 H 0.0172 0.15212 0.40882 0.0
H511 H 0.07851 0.10463 0.4093 0.0
H512 H 0.99845 0.09402 0.57267 0.0
H513 H 0.01548 0.12852 0.51195 0.0
H514 H 0.04223 0.0774 0.37549 0.0
H515 H 0.02531 0.04284 0.43583 0.0
C516 C 0.05089 0.16798 0.37439 0.0
C517 C 0.0756 0.16435 0.36147 0.0
C518 C 0.03617 0.14889 0.39955 0.0
C519 C 0.04578 0.12572 0.41151 0.0
C520 C 0.07046 0.12213 0.39904 0.0
C521 C 0.08522 0.14124 0.37457 0.0
C522 C 0.00723 0.09011 0.52867 0.0
C523 C 0.011 0.0656 0.50994 0.0
C524 C 0.01702 0.10992 0.49394 0.0
C525 C 0.03072 0.10553 0.44003 0.0
C526 C 0.03221 0.08122 0.41775 0.0
C527 C 0.02231 0.06144 0.45215 0.0
H528 H 0.3474 0.99424 0.42532 0.0
H529 H 0.37782 0.97829 0.24457 0.0
H530 H 0.37958 0.97212 0.47548 0.0
H531 H 0.40985 0.95529 0.29455 0.0
H532 H 0.48042 0.9695 0.41462 0.0
H533 H 0.44443 0.97004 0.35017 0.0
H534 H 0.40196 0.93667 0.49964 0.0
H535 H 0.43806 0.93707 0.56553 0.0
C536 C 0.36058 0.98528 0.39627 0.0
C537 C 0.36044 0.98834 0.33126 0.0
C538 C 0.37898 0.97237 0.42494 0.0
C539 C 0.39754 0.96207 0.38911 0.0
C540 C 0.39615 0.9634 0.32361 0.0
C541 C 0.37787 0.97658 0.29498 0.0
C542 C 0.4636 0.96155 0.43329 0.0
C543 C 0.46193 0.95416 0.49606 0.0
C544 C 0.44285 0.96169 0.39595 0.0
C545 C 0.42007 0.95416 0.42044 0.0
C546 C 0.41911 0.94337 0.48014 0.0
C547 C 0.43987 0.94342 0.51776 0.0
H548 H 0.44158 0.35934 0.3279 0.0
H549 H 0.50571 0.31579 0.31408 0.0
H550 H 0.4659 0.39295 0.3747 0.0
H551 H 0.52982 0.34929 0.36322 0.0
H552 H 0.51624 0.45626 0.41414 0.0
H553 H 0.50111 0.42299 0.34631 0.0
H554 H 0.52963 0.36921 0.47268 0.0
H555 H 0.5448 0.40242 0.54106 0.0
C556 C 0.46089 0.357 0.33414 0.0
C557 C 0.47163 0.3348 0.31731 0.0
C558 C 0.47483 0.37628 0.3609 0.0
C559 C 0.49976 0.37374 0.37204 0.0
C560 C 0.51061 0.35165 0.3552 0.0
C561 C 0.49672 0.33243 0.32763 0.0
C562 C 0.51993 0.4374 0.42679 0.0
C563 C 0.53125 0.43199 0.48383 0.0
C564 C 0.51113 0.41837 0.38801 0.0
C565 C 0.51374 0.39361 0.40511 0.0
C566 C 0.52732 0.38819 0.45859 0.0
C567 C 0.53599 0.40724 0.49773 0.0
H568 H 0.17289 0.55428 0.44221 0.0
H569 H 0.1369 0.56006 0.26395 0.0
H570 H 0.13746 0.56939 0.49419 0.0
H571 H 0.10123 0.57608 0.31594 0.0
H572 H 0.03862 0.54213 0.44369 0.0
H573 H 0.07183 0.55349 0.37393 0.0
H574 H 0.10678 0.59603 0.52232 0.0
H575 H 0.07382 0.58325 0.59286 0.0
C576 C 0.15773 0.55981 0.41382 0.0
C577 C 0.15746 0.55548 0.34922 0.0
C578 C 0.13729 0.56867 0.44367 0.0
C579 C 0.11612 0.57357 0.40949 0.0
C580 C 0.11695 0.57191 0.34392 0.0
C581 C 0.13737 0.56276 0.3141 0.0
C582 C 0.05279 0.55497 0.46023 0.0
C583 C 0.05386 0.56179 0.52329 0.0
C584 C 0.07197 0.56154 0.42026 0.0
C585 C 0.09249 0.57508 0.44297 0.0
C586 C 0.09163 0.58496 0.50382 0.0
C587 C 0.07261 0.57798 0.54406 0.0
H588 H 0.07785 0.81308 0.94714 0.0
H589 H 0.07225 0.86165 0.10663 0.0
H590 H 0.07597 0.84859 0.87753 0.0
H591 H 0.07108 0.89719 0.03666 0.0
H592 H 0.08189 0.95618 0.87686 0.0
H593 H 0.09427 0.92222 0.94469 0.0
H594 H 0.03732 0.87488 0.86572 0.0
H595 H 0.02474 0.90848 0.79944 0.0
C596 C 0.07668 0.83135 0.9674 0.0
C597 C 0.07472 0.83447 0.03239 0.0
C598 C 0.07573 0.85165 0.92756 0.0
C599 C 0.07311 0.8755 0.95188 0.0
C600 C 0.07323 0.87896 0.01686 0.0
C601 C 0.07395 0.85859 0.05685 0.0
C602 C 0.07214 0.93846 0.874 0.0
C603 C 0.05226 0.93501 0.83319 0.0
C604 C 0.0792 0.91912 0.91271 0.0
C605 C 0.06687 0.89595 0.90982 0.0
C606 C 0.04733 0.89247 0.86821 0.0
C607 C 0.04 0.9118 0.83071 0.0
H608 H 0.65237 0.07832 0.06693 0.0
H609 H 0.70111 0.08695 0.90984 0.0
H610 H 0.6182 0.07122 0.99525 0.0
H611 H 0.66702 0.07981 0.83838 0.0
H612 H 0.61254 0.02102 0.75658 0.0
H613 H 0.64419 0.03967 0.82189 0.0
H614 H 0.59205 0.08736 0.90575 0.0
H615 H 0.55988 0.06849 0.8394 0.0
C616 C 0.65567 0.07941 0.01713 0.0
C617 C 0.67946 0.08276 0.99393 0.0
C618 C 0.6361 0.07537 0.97612 0.0
C619 C 0.64004 0.07461 0.91132 0.0
C620 C 0.66354 0.07987 0.88818 0.0
C621 C 0.68304 0.0839 0.92904 0.0
C622 C 0.60774 0.0356 0.78856 0.0
C623 C 0.58366 0.04317 0.79315 0.0
C624 C 0.62597 0.04647 0.82558 0.0
C625 C 0.62063 0.06508 0.86864 0.0
C626 C 0.59663 0.07303 0.87287 0.0
C627 C 0.5783 0.06231 0.83487 0.0
H628 H 0.47921 0.63174 0.10599 0.0
H629 H 0.47196 0.67951 0.94597 0.0
H630 H 0.48173 0.59611 0.03633 0.0
H631 H 0.47539 0.64395 0.87676 0.0
H632 H 0.52597 0.58439 0.79569 0.0
H633 H 0.51454 0.61779 0.86448 0.0
H634 H 0.45777 0.57078 0.94465 0.0
H635 H 0.46895 0.53703 0.87438 0.0
C636 C 0.47755 0.63461 0.05617 0.0
C637 C 0.47574 0.65859 0.03156 0.0
C638 C 0.47906 0.61419 0.01637 0.0
C639 C 0.47903 0.61742 0.95138 0.0
C640 C 0.47576 0.64108 0.92681 0.0
C641 C 0.47394 0.66142 0.96646 0.0
C642 C 0.51106 0.58105 0.82793 0.0
C643 C 0.4984 0.55802 0.82973 0.0
C644 C 0.50439 0.60027 0.86691 0.0
C645 C 0.48516 0.59687 0.90932 0.0
C646 C 0.47263 0.57381 0.91207 0.0
C647 C 0.47901 0.55459 0.87197 0.0
H648 H 0.85435 0.37502 0.94118 0.0
H649 H 0.88518 0.42596 0.07748 0.0
H650 H 0.89039 0.38131 0.87566 0.0
H651 H 0.92041 0.4334 0.01143 0.0
H652 H 0.98553 0.44181 0.89514 0.0
H653 H 0.95597 0.42168 0.96478 0.0
H654 H 0.90597 0.41188 0.80985 0.0
H655 H 0.93613 0.43048 0.74015 0.0
C656 C 0.869 0.38737 0.95726 0.0
C657 C 0.86706 0.40001 0.01423 0.0
C658 C 0.88957 0.39115 0.91964 0.0
C659 C 0.90836 0.40809 0.93764 0.0
C660 C 0.9067 0.41986 0.99615 0.0
C661 C 0.88639 0.4157 0.03413 0.0
C662 C 0.9684 0.4348 0.87594 0.0
C663 C 0.96302 0.43792 0.81242 0.0
C664 C 0.95134 0.42344 0.91589 0.0
C665 C 0.92826 0.41555 0.89351 0.0
C666 C 0.92354 0.4174 0.82906 0.0
C667 C 0.94083 0.42824 0.78891 0.0
H668 H 0.08288 0.1535 0.07297 0.0
H669 H 0.09992 0.19775 0.91023 0.0
H670 H 0.07328 0.11781 0.00619 0.0
H671 H 0.08997 0.16191 0.84295 0.0
H672 H 0.03551 0.10055 0.75998 0.0
H673 H 0.04959 0.13625 0.82153 0.0
H674 H 0.09615 0.08972 0.92827 0.0
H675 H 0.08231 0.05382 0.86595 0.0
C676 C 0.08443 0.15557 0.02279 0.0
C677 C 0.09185 0.17839 0.99653 0.0
C678 C 0.07919 0.13511 0.98472 0.0
C679 C 0.08095 0.13713 0.91956 0.0
C680 C 0.08843 0.15994 0.89315 0.0
C681 C 0.09411 0.18036 0.93142 0.0
C682 C 0.04884 0.09791 0.79637 0.0
C683 C 0.05769 0.07433 0.80844 0.0
C684 C 0.05702 0.1184 0.8312 0.0
C685 C 0.07392 0.1157 0.87952 0.0
C686 C 0.08302 0.09223 0.8913 0.0
C687 C 0.07516 0.07174 0.85562 0.0
H688 H 0.3561 0.07893 0.97546 0.0
H689 H 0.32877 0.00437 0.93853 0.0
H690 H 0.38953 0.07291 0.90466 0.0
H691 H 0.36368 0.9975 0.87284 0.0
H692 H 0.42152 0.9944 0.72583 0.0
H693 H 0.38457 0.00411 0.78135 0.0
H694 H 0.42632 0.05407 0.90171 0.0
H695 H 0.46294 0.04544 0.84303 0.0
C696 C 0.35692 0.0613 0.95181 0.0
C697 C 0.33953 0.04211 0.9635 0.0
C698 C 0.37659 0.05764 0.91202 0.0
C699 C 0.37983 0.03453 0.88366 0.0
C700 C 0.36192 0.01565 0.89327 0.0
C701 C 0.34194 0.01948 0.93201 0.0
C702 C 0.42273 0.00754 0.76404 0.0
C703 C 0.44514 0.01909 0.78028 0.0
C704 C 0.40152 0.01304 0.79626 0.0
C705 C 0.40223 0.02982 0.84661 0.0
C706 C 0.42477 0.04144 0.86253 0.0
C707 C 0.4459 0.03636 0.82927 0.0
H708 H 0.41474 0.3273 0.96154 0.0
H709 H 0.48671 0.29909 0.93965 0.0
H710 H 0.42615 0.36251 0.89656 0.0
H711 H 0.49868 0.33528 0.87871 0.0
H712 H 0.50946 0.393 0.73009 0.0
H713 H 0.49504 0.35588 0.78386 0.0
H714 H 0.44928 0.39988 0.90079 0.0
H715 H 0.46299 0.43702 0.8445 0.0
C716 C 0.43293 0.32837 0.94232 0.0
C717 C 0.44977 0.31017 0.95603 0.0
C718 C 0.43963 0.34893 0.90592 0.0
C719 C 0.46344 0.35204 0.88272 0.0
C720 C 0.4801 0.33352 0.89507 0.0
C721 C 0.47331 0.31281 0.93084 0.0
C722 C 0.49627 0.39478 0.7672 0.0
C723 C 0.48748 0.41802 0.78329 0.0
C724 C 0.48807 0.37344 0.79837 0.0
C725 C 0.47111 0.37474 0.84724 0.0
C726 C 0.46208 0.39801 0.86285 0.0
C727 C 0.47004 0.41938 0.8309 0.0
H728 H 0.17411 0.44644 0.03482 0.0
H729 H 0.20877 0.51082 0.94906 0.0
H730 H 0.14114 0.44779 0.9599 0.0
H731 H 0.175 0.51261 0.875 0.0
H732 H 0.11553 0.49625 0.72536 0.0
H733 H 0.15231 0.49093 0.78729 0.0
H734 H 0.10819 0.47735 0.95125 0.0
H735 H 0.07156 0.48244 0.88979 0.0
C736 C 0.17509 0.46054 0.99899 0.0
C737 C 0.19415 0.4786 0.99821 0.0
C738 C 0.15592 0.4615 0.95661 0.0
C739 C 0.15525 0.48057 0.9124 0.0
C740 C 0.17502 0.49771 0.90869 0.0
C741 C 0.19427 0.49677 0.95131 0.0
C742 C 0.11368 0.49206 0.77461 0.0
C743 C 0.09057 0.48973 0.80261 0.0
C744 C 0.13476 0.48911 0.81002 0.0
C745 C 0.13312 0.48353 0.87393 0.0
C746 C 0.11003 0.48122 0.90182 0.0
C747 C 0.08902 0.48432 0.86665 0.0
H748 H 0.01366 0.80657 0.45784 0.0
H749 H 0.96012 0.82891 0.32321 0.0
H750 H 0.00467 0.84181 0.52268 0.0
H751 H 0.95204 0.86502 0.38756 0.0
H752 H 0.97878 0.90318 0.64136 0.0
H753 H 0.9725 0.86408 0.5854 0.0
H754 H 0.98111 0.90239 0.40976 0.0
H755 H 0.98756 0.94144 0.4654 0.0
C756 C -0.00057 0.81848 0.44271 0.0
C757 C 0.98787 0.81489 0.38454 0.0
C758 C 0.99436 0.83883 0.48003 0.0
C759 C 0.97782 0.85627 0.45987 0.0
C760 C 0.96508 0.85197 0.40382 0.0
C761 C 0.96986 0.83136 0.36685 0.0
C762 C 0.9787 0.90338 0.59077 0.0
C763 C 0.98398 0.92539 0.5578 0.0
C764 C 0.9752 0.88097 0.55883 0.0
C765 C 0.97649 0.88019 0.49333 0.0
C766 C 0.97984 0.90245 0.46025 0.0
C767 C 0.98369 0.9248 0.49216 0.0
H768 H 0.68345 0.99105 0.26346 0.0
H769 H 0.7185 0.0146 0.4355 0.0
H770 H 0.64968 0.97314 0.32247 0.0
H771 H 0.68368 0.99849 0.4942 0.0
H772 H 0.61976 0.96449 0.59323 0.0
H773 H 0.65729 0.96634 0.53231 0.0
H774 H 0.61724 0.99168 0.37239 0.0
H775 H 0.58 0.98889 0.4319 0.0
C776 C 0.68428 0.99206 0.31392 0.0
C777 C 0.70365 0.00476 0.34446 0.0
C778 C 0.66461 0.98207 0.34783 0.0
C779 C 0.66355 0.9849 0.41308 0.0
C780 C 0.68376 0.99591 0.44404 0.0
C781 C 0.70363 0.00555 0.41017 0.0
C782 C 0.61893 0.96991 0.54461 0.0
C783 C 0.59688 0.97683 0.51774 0.0
C784 C 0.64049 0.97114 0.5098 0.0
C785 C 0.64045 0.9794 0.44748 0.0
C786 C 0.6181 0.9849 0.41985 0.0
C787 C 0.59663 0.98352 0.45435 0.0
H788 H 0.57614 0.69607 0.43206 0.0
H789 H 0.54627 0.64957 0.28493 0.0
H790 H 0.58509 0.65933 0.49297 0.0
H791 H 0.55372 0.61322 0.34602 0.0
H792 H 0.56866 0.54796 0.45441 0.0
H793 H 0.57742 0.58469 0.39163 0.0
H794 H 0.56365 0.63065 0.55261 0.0
H795 H 0.55691 0.59383 0.61579 0.0
C796 C 0.57182 0.67796 0.4125 0.0
C797 C 0.56057 0.67564 0.3538 0.0
C798 C 0.57673 0.65688 0.4475 0.0
C799 C 0.56993 0.63309 0.42511 0.0
C800 C 0.55977 0.63097 0.36486 0.0
C801 C 0.55535 0.65193 0.32958 0.0
C802 C 0.56819 0.56598 0.47646 0.0
C803 C 0.56189 0.56813 0.53963 0.0
C804 C 0.57295 0.58709 0.44044 0.0
C805 C 0.57062 0.61086 0.46626 0.0
C806 C 0.56588 0.61284 0.53073 0.0
C807 C 0.56185 0.59168 0.56714 0.0
H808 H 0.84215 0.51295 0.3023 0.0
H809 H 0.81548 0.45609 0.42923 0.0
H810 H 0.87471 0.52395 0.37571 0.0
H811 H 0.84668 0.46837 0.50365 0.0
H812 H 0.92668 0.46196 0.55184 0.0
H813 H 0.88905 0.45946 0.49423 0.0
H814 H 0.88988 0.53907 0.4791 0.0
H815 H 0.92847 0.54168 0.53691 0.0
C816 C 0.84281 0.50316 0.34627 0.0
C817 C 0.82646 0.48311 0.3587 0.0
C818 C 0.86131 0.50974 0.38874 0.0
C819 C 0.86365 0.49658 0.44478 0.0
C820 C 0.84575 0.47843 0.46009 0.0
C821 C 0.82753 0.47163 0.41749 0.0
C822 C 0.91895 0.47907 0.53671 0.0
C823 C 0.93074 0.50205 0.54898 0.0
C824 C 0.8971 0.47761 0.50412 0.0
C825 C 0.88622 0.49908 0.48279 0.0
C826 C 0.89782 0.5222 0.49505 0.0
C827 C 0.91986 0.52369 0.52819 0.0
loop_
_geom_bond_atom_site_label_1
_geom_bond_atom_site_label_2
_geom_bond_distance
_geom_bond_site_symmetry_2
_ccdc_geom_bond_type
P0 O11 1.490 . S
P0 C14 1.812 . S
P0 C20 1.803 . S
P0 C26 1.819 1_554 S
H1 C15 0.941 . S
H2 C16 0.939 . S
H3 C18 0.940 . S
H4 C19 0.940 . S
H5 C21 0.939 . S
H6 C22 0.942 . S
H7 C24 0.940 . S
H8 C25 0.939 . S
H9 C27 0.941 1_554 S
H10 C31 0.939 . S
O11 P0 1.490 . S
H12 C28 0.939 . S
H13 C30 0.940 . S
C14 P0 1.812 . S
C14 C15 1.389 . S
C14 C19 1.391 . S
C15 H1 0.941 . S
C15 C14 1.389 . S
C15 C16 1.397 . S
C16 H2 0.939 . S
C16 C15 1.397 . S
C16 C17 1.378 . S
C17 C16 1.378 . S
C17 C18 1.378 . S
C18 H3 0.940 . S
C18 C17 1.378 . S
C18 C19 1.396 . S
C19 H4 0.940 . S
C19 C14 1.391 . S
C19 C18 1.396 . S
C20 P0 1.803 . S
C20 C21 1.378 1_554 S
C20 C25 1.400 . S
C21 H5 0.939 . S
C21 C20 1.378 1_556 S
C21 C22 1.361 . S
C22 H6 0.942 . S
C22 C21 1.361 . S
C22 C23 1.369 . S
C23 C22 1.369 . S
C23 C24 1.404 1_556 S
C24 H7 0.940 . S
C24 C23 1.404 1_554 S
C24 C25 1.389 . S
C25 H8 0.939 . S
C25 C20 1.400 . S
C25 C24 1.389 . S
C26 P0 1.819 1_556 S
C26 C27 1.391 . S
C26 C31 1.391 . S
C27 H9 0.941 1_556 S
C27 C26 1.391 . S
C27 C28 1.396 . S
C28 H12 0.939 . S
C28 C27 1.396 . S
C28 C29 1.397 . S
C29 C28 1.397 . S
C29 C30 1.385 . S
C30 H13 0.940 . S
C30 C29 1.385 . S
C30 C31 1.388 . S
C31 H10 0.939 . S
C31 C26 1.391 . S
C31 C30 1.388 . S
P32 O43 1.490 . S
P32 C46 1.812 . S
P32 C52 1.803 . S
P32 C58 1.819 . S
H33 C47 0.941 . S
H34 C48 0.939 . S
H35 C50 0.940 . S
H36 C51 0.940 . S
H37 C53 0.939 . S
H38 C54 0.942 . S
H39 C56 0.940 . S
H40 C57 0.939 . S
H41 C59 0.941 . S
H42 C63 0.925 1_655 S
O43 P32 1.490 . S
H44 C60 0.939 . S
H45 C62 0.940 . S
C46 P32 1.812 . S
C46 C47 1.389 . S
C46 C51 1.391 1_455 S
C47 H33 0.941 . S
C47 C46 1.389 . S
C47 C48 1.397 . S
C48 H34 0.939 . S
C48 C47 1.397 . S
C48 C49 1.401 . S
C49 C48 1.401 . S
C49 C50 1.364 1_455 S
C50 H35 0.940 . S
C50 C49 1.364 1_655 S
C50 C51 1.396 . S
C51 H36 0.940 . S
C51 C46 1.391 1_655 S
C51 C50 1.396 . S
C52 P32 1.803 . S
C52 C53 1.378 . S
C52 C57 1.400 1_455 S
C53 H37 0.939 . S
C53 C52 1.378 . S
C53 C54 1.361 . S
C54 H38 0.942 . S
C54 C53 1.361 . S
C54 C55 1.369 1_455 S
C55 C54 1.369 1_655 S
C55 C56 1.404 . S
C56 H39 0.940 . S
C56 C55 1.404 . S
C56 C57 1.389 . S
C57 H40 0.939 . S
C57 C52 1.400 1_655 S
C57 C56 1.389 . S
C58 P32 1.819 . S
C58 C59 1.391 . S
C58 C63 1.423 . S
C59 H41 0.941 . S
C59 C58 1.391 . S
C59 C60 1.396 . S
C60 H44 0.939 . S
C60 C59 1.396 . S
C60 C61 1.397 1_554 S
C61 C60 1.397 1_556 S
C61 C62 1.385 1_455 S
C62 H45 0.940 . S
C62 C61 1.385 1_655 S
C62 C63 1.373 1_656 S
C63 H42 0.925 1_455 S
C63 C58 1.423 . S
C63 C62 1.373 1_454 S
P64 O75 1.490 . S
P64 C78 1.812 . S
P64 C84 1.803 . S
P64 C90 1.819 . S
H65 C79 0.941 . S
H66 C80 0.939 . S
H67 C82 0.940 . S
H68 C83 0.948 . S
H69 C85 0.939 . S
H70 C86 0.942 1_556 S
H71 C88 0.940 . S
H72 C89 0.963 . S
H73 C91 0.941 . S
H74 C95 0.928 1_565 S
O75 P64 1.490 . S
H76 C92 0.939 . S
H77 C94 0.940 . S
C78 P64 1.812 . S
C78 C79 1.389 . S
C78 C83 1.378 1_545 S
C79 H65 0.941 . S
C79 C78 1.389 . S
C79 C80 1.397 . S
C80 H66 0.939 . S
C80 C79 1.397 . S
C80 C81 1.378 . S
C81 C80 1.378 . S
C81 C82 1.378 1_545 S
C82 H67 0.940 . S
C82 C81 1.378 1_565 S
C82 C83 1.401 . S
C83 H68 0.948 . S
C83 C78 1.378 1_565 S
C83 C82 1.401 . S
C84 P64 1.803 . S
C84 C85 1.378 . S
C84 C89 1.361 1_545 S
C85 H69 0.939 . S
C85 C84 1.378 . S
C85 C86 1.361 . S
C86 H70 0.942 1_554 S
C86 C85 1.361 . S
C86 C87 1.369 . S
C87 C86 1.369 . S
C87 C88 1.404 1_545 S
C88 H71 0.940 . S
C88 C87 1.404 1_565 S
C88 C89 1.406 . S
C89 H72 0.963 . S
C89 C84 1.361 1_565 S
C89 C88 1.406 . S
C90 P64 1.819 . S
C90 C91 1.391 . S
C90 C95 1.391 1_554 S
C91 H73 0.941 . S
C91 C90 1.391 . S
C91 C92 1.396 1_554 S
C92 H76 0.939 . S
C92 C91 1.396 1_556 S
C92 C93 1.397 . S
C93 C92 1.397 . S
C93 C94 1.385 1_545 S
C94 H77 0.940 . S
C94 C93 1.385 1_565 S
C94 C95 1.388 1_565 S
C95 H74 0.928 1_545 S
C95 C90 1.391 1_556 S
C95 C94 1.388 1_545 S
P96 O107 1.490 . S
P96 C110 1.812 . S
P96 C116 1.803 . S
P96 C122 1.819 1_554 S
H97 C111 0.941 . S
H98 C112 0.939 . S
H99 C114 0.940 . S
H100 C115 0.940 . S
H101 C117 0.939 1_556 S
H102 C118 0.942 . S
H103 C120 0.940 . S
H104 C121 0.939 . S
H105 C123 0.941 1_554 S
H106 C127 0.939 . S
O107 P96 1.490 . S
H108 C124 0.939 . S
H109 C126 0.940 . S
C110 P96 1.812 . S
C110 C111 1.389 . S
C110 C115 1.391 . S
C111 H97 0.941 . S
C111 C110 1.389 . S
C111 C112 1.397 . S
C112 H98 0.939 . S
C112 C111 1.397 . S
C112 C113 1.378 . S
C113 C112 1.378 . S
C113 C114 1.378 . S
C114 H99 0.940 . S
C114 C113 1.378 . S
C114 C115 1.396 . S
C115 H100 0.940 . S
C115 C110 1.391 . S
C115 C114 1.396 . S
C116 P96 1.803 . S
C116 C117 1.378 . S
C116 C121 1.400 . S
C117 H101 0.939 1_554 S
C117 C116 1.378 . S
C117 C118 1.361 1_554 S
C118 H102 0.942 . S
C118 C117 1.361 1_556 S
C118 C119 1.369 1_556 S
C119 C118 1.369 1_554 S
C119 C120 1.404 . S
C120 H103 0.940 . S
C120 C119 1.404 . S
C120 C121 1.389 . S
C121 H104 0.939 . S
C121 C116 1.400 . S
C121 C120 1.389 . S
C122 P96 1.819 1_556 S
C122 C123 1.391 . S
C122 C127 1.391 . S
C123 H105 0.941 1_556 S
C123 C122 1.391 . S
C123 C124 1.396 . S
C124 H108 0.939 . S
C124 C123 1.396 . S
C124 C125 1.397 . S
C125 C124 1.397 . S
C125 C126 1.385 . S
C126 H109 0.940 . S
C126 C125 1.385 . S
C126 C127 1.388 . S
C127 H106 0.939 . S
C127 C122 1.391 . S
C127 C126 1.388 . S
P128 O139 1.490 . S
P128 C142 1.812 . S
P128 C148 1.803 . S
P128 C154 1.819 . S
H129 C143 0.941 . S
H130 C144 0.939 . S
H131 C146 0.940 . S
H132 C147 0.940 . S
H133 C149 0.939 . S
H134 C150 0.942 . S
H135 C152 0.940 . S
H136 C153 0.939 . S
H137 C155 0.941 . S
H138 C159 0.939 . S
O139 P128 1.490 . S
H140 C156 0.939 . S
H141 C158 0.940 . S
C142 P128 1.812 . S
C142 C143 1.389 . S
C142 C147 1.391 . S
C143 H129 0.941 . S
C143 C142 1.389 . S
C143 C144 1.397 . S
C144 H130 0.939 . S
C144 C143 1.397 . S
C144 C145 1.378 . S
C145 C144 1.378 . S
C145 C146 1.378 . S
C146 H131 0.940 . S
C146 C145 1.378 . S
C146 C147 1.396 . S
C147 H132 0.940 . S
C147 C142 1.391 . S
C147 C146 1.396 . S
C148 P128 1.803 . S
C148 C149 1.378 . S
C148 C153 1.400 . S
C149 H133 0.939 . S
C149 C148 1.378 . S
C149 C150 1.361 . S
C150 H134 0.942 . S
C150 C149 1.361 . S
C150 C151 1.369 . S
C151 C150 1.369 . S
C151 C152 1.404 . S
C152 H135 0.940 . S
C152 C151 1.404 . S
C152 C153 1.389 . S
C153 H136 0.939 . S
C153 C148 1.400 . S
C153 C152 1.389 . S
C154 P128 1.819 . S
C154 C155 1.391 . S
C154 C159 1.391 . S
C155 H137 0.941 . S
C155 C154 1.391 . S
C155 C156 1.396 . S
C156 H140 0.939 . S
C156 C155 1.396 . S
C156 C157 1.397 . S
C157 C156 1.397 . S
C157 C158 1.385 . S
C158 H141 0.940 . S
C158 C157 1.385 . S
C158 C159 1.388 . S
C159 H138 0.939 . S
C159 C154 1.391 . S
C159 C158 1.388 . S
P160 O171 1.490 . S
P160 C174 1.812 . S
P160 C180 1.803 . S
P160 C186 1.819 . S
H161 C175 0.941 . S
H162 C176 0.939 . S
H163 C178 0.940 . S
H164 C179 0.940 . S
H165 C181 0.939 . S
H166 C182 0.942 . S
H167 C184 0.940 . S
H168 C185 0.939 . S
H169 C187 0.941 . S
H170 C191 0.939 . S
O171 P160 1.490 . S
H172 C188 0.939 . S
H173 C190 0.940 . S
C174 P160 1.812 . S
C174 C175 1.389 . S
C174 C179 1.391 . S
C175 H161 0.941 . S
C175 C174 1.389 . S
C175 C176 1.397 . S
C176 H162 0.939 . S
C176 C175 1.397 . S
C176 C177 1.378 . S
C177 C176 1.378 . S
C177 C178 1.378 . S
C178 H163 0.940 . S
C178 C177 1.378 . S
C178 C179 1.396 . S
C179 H164 0.940 . S
C179 C174 1.391 . S
C179 C178 1.396 . S
C180 P160 1.803 . S
C180 C181 1.378 . S
C180 C185 1.400 . S
C181 H165 0.939 . S
C181 C180 1.378 . S
C181 C182 1.361 . S
C182 H166 0.942 . S
C182 C181 1.361 . S
C182 C183 1.369 . S
C183 C182 1.369 . S
C183 C184 1.404 . S
C184 H167 0.940 . S
C184 C183 1.404 . S
C184 C185 1.389 . S
C185 H168 0.939 . S
C185 C180 1.400 . S
C185 C184 1.389 . S
C186 P160 1.819 . S
C186 C187 1.391 . S
C186 C191 1.391 . S
C187 H169 0.941 . S
C187 C186 1.391 . S
C187 C188 1.396 . S
C188 H172 0.939 . S
C188 C187 1.396 . S
C188 C189 1.397 . S
C189 C188 1.397 . S
C189 C190 1.385 . S
C190 H173 0.940 . S
C190 C189 1.385 . S
C190 C191 1.388 . S
C191 H170 0.939 . S
C191 C186 1.391 . S
C191 C190 1.388 . S
P192 O203 1.490 . S
P192 C206 1.812 . S
P192 C212 1.803 . S
P192 C218 1.819 . S
H193 C207 0.941 . S
H194 C208 0.939 . S
H195 C210 0.940 . S
H196 C211 0.942 . S
H197 C213 0.939 . S
H198 C214 0.942 . S
H199 C216 0.940 . S
H200 C217 0.958 . S
H201 C219 0.941 . S
H202 C223 0.933 1_565 S
O203 P192 1.490 . S
H204 C220 0.939 . S
H205 C222 0.940 . S
C206 P192 1.812 . S
C206 C207 1.389 . S
C206 C211 1.388 1_545 S
C207 H193 0.941 . S
C207 C206 1.389 . S
C207 C208 1.397 . S
C208 H194 0.939 . S
C208 C207 1.397 . S
C208 C209 1.378 . S
C209 C208 1.378 . S
C209 C210 1.378 1_545 S
C210 H195 0.940 . S
C210 C209 1.378 1_565 S
C210 C211 1.398 . S
C211 H196 0.942 . S
C211 C206 1.388 1_565 S
C211 C210 1.398 . S
C212 P192 1.803 . S
C212 C213 1.378 . S
C212 C217 1.372 1_545 S
C213 H197 0.939 . S
C213 C212 1.378 . S
C213 C214 1.361 . S
C214 H198 0.942 . S
C214 C213 1.361 . S
C214 C215 1.369 . S
C215 C214 1.369 . S
C215 C216 1.404 1_545 S
C216 H199 0.940 . S
C216 C215 1.404 1_565 S
C216 C217 1.400 . S
C217 H200 0.958 . S
C217 C212 1.372 1_565 S
C217 C216 1.400 . S
C218 P192 1.819 . S
C218 C219 1.391 . S
C218 C223 1.391 . S
C219 H201 0.941 . S
C219 C218 1.391 . S
C219 C220 1.396 . S
C220 H204 0.939 . S
C220 C219 1.396 . S
C220 C221 1.397 . S
C221 C220 1.397 . S
C221 C222 1.385 1_545 S
C222 H205 0.940 . S
C222 C221 1.385 1_565 S
C222 C223 1.388 1_565 S
C223 H202 0.933 1_545 S
C223 C218 1.391 . S
C223 C222 1.388 1_545 S
P224 O235 1.490 . S
P224 C238 1.812 . S
P224 C244 1.803 . S
P224 C250 1.819 . S
H225 C239 0.941 . S
H226 C240 0.939 . S
H227 C242 0.940 . S
H228 C243 0.940 . S
H229 C245 0.939 . S
H230 C246 0.942 . S
H231 C248 0.940 . S
H232 C249 0.939 . S
H233 C251 0.941 . S
H234 C255 0.939 . S
O235 P224 1.490 . S
H236 C252 0.939 . S
H237 C254 0.940 . S
C238 P224 1.812 . S
C238 C239 1.389 . S
C238 C243 1.391 . S
C239 H225 0.941 . S
C239 C238 1.389 . S
C239 C240 1.397 . S
C240 H226 0.939 . S
C240 C239 1.397 . S
C240 C241 1.378 . S
C241 C240 1.378 . S
C241 C242 1.378 . S
C242 H227 0.940 . S
C242 C241 1.378 . S
C242 C243 1.396 . S
C243 H228 0.940 . S
C243 C238 1.391 . S
C243 C242 1.396 . S
C244 P224 1.803 . S
C244 C245 1.378 . S
C244 C249 1.400 . S
C245 H229 0.939 . S
C245 C244 1.378 . S
C245 C246 1.361 . S
C246 H230 0.942 . S
C246 C245 1.361 . S
C246 C247 1.369 . S
C247 C246 1.369 . S
C247 C248 1.404 . S
C248 H231 0.940 . S
C248 C247 1.404 . S
C248 C249 1.389 . S
C249 H232 0.939 . S
C249 C244 1.400 . S
C249 C248 1.389 . S
C250 P224 1.819 . S
C250 C251 1.391 . S
C250 C255 1.391 . S
C251 H233 0.941 . S
C251 C250 1.391 . S
C251 C252 1.396 . S
C252 H236 0.939 . S
C252 C251 1.396 . S
C252 C253 1.397 . S
C253 C252 1.397 . S
C253 C254 1.385 . S
C254 H237 0.940 . S
C254 C253 1.385 . S
C254 C255 1.388 . S
C255 H234 0.939 . S
C255 C250 1.391 . S
C255 C254 1.388 . S
O256 Zn257 1.954 . S
O256 C272 1.228 . S
Zn257 O256 1.954 . S
Zn257 O258 1.948 . S
Zn257 O264 1.890 1_565 S
Zn257 O269 1.959 . S
O258 Zn257 1.948 . S
O258 Zn259 1.902 1_565 S
O258 Zn260 1.953 . S
O258 Zn261 1.963 . S
Zn259 O258 1.902 1_545 S
Zn259 O262 1.933 1_455 S
Zn259 O265 1.941 . S
Zn259 O266 1.965 . S
Zn260 O258 1.953 . S
Zn260 O267 1.938 1_565 S
Zn260 O268 1.906 . S
Zn260 O278 1.953 . S
Zn261 O258 1.963 . S
Zn261 O263 1.932 1_455 S
Zn261 O270 1.977 . S
Zn261 O271 1.910 . S
O262 Zn259 1.933 1_655 S
O262 C273 1.226 . S
O263 Zn261 1.932 1_655 S
O263 C273 1.307 1_565 S
O264 Zn257 1.890 1_545 S
O264 C275 1.253 . S
O265 Zn259 1.941 . S
O265 C275 1.283 . S
O266 Zn259 1.965 . S
O266 C274 1.303 . S
O267 Zn260 1.938 1_545 S
O267 C274 1.247 . S
O268 Zn260 1.906 . S
O268 C276 1.304 . S
O269 Zn257 1.959 . S
O269 C277 1.311 . S
O270 Zn261 1.977 . S
O270 C276 1.272 . S
O271 Zn261 1.910 . S
O271 C277 1.231 . S
C272 O256 1.228 . S
C272 O278 1.298 . S
C273 O262 1.226 . S
C273 O263 1.307 1_545 S
C274 O266 1.303 . S
C274 O267 1.247 . S
C275 O264 1.253 . S
C275 O265 1.283 . S
C276 O268 1.304 . S
C276 O270 1.272 . S
C277 O269 1.311 . S
C277 O271 1.231 . S
O278 Zn260 1.953 . S
O278 C272 1.298 . S
O279 Zn280 1.953 . S
O279 C295 1.225 . S
Zn280 O279 1.953 . S
Zn280 O281 1.949 . S
Zn280 O287 1.919 . S
Zn280 O292 1.924 . S
O281 Zn280 1.949 . S
O281 Zn282 1.923 1_545 S
O281 Zn283 1.950 . S
O281 Zn284 1.945 1_545 S
Zn282 O281 1.923 1_565 S
Zn282 O285 1.933 . S
Zn282 O288 1.941 . S
Zn282 O289 1.965 . S
Zn283 O281 1.950 . S
Zn283 O290 1.938 . S
Zn283 O291 1.892 1_545 S
Zn283 O301 1.953 . S
Zn284 O281 1.945 1_565 S
Zn284 O286 1.932 . S
Zn284 O293 1.977 . S
Zn284 O294 1.910 1_565 S
O285 Zn282 1.933 . S
O285 C296 1.226 . S
O286 Zn284 1.932 . S
O286 C296 1.307 . S
O287 Zn280 1.919 . S
O287 C298 1.253 . S
O288 Zn282 1.941 . S
O288 C298 1.283 1_565 S
O289 Zn282 1.965 . S
O289 C297 1.303 . S
O290 Zn283 1.938 . S
O290 C297 1.247 1_545 S
O291 Zn283 1.892 1_565 S
O291 C299 1.325 . S
O292 Zn280 1.924 . S
O292 C300 1.311 . S
O293 Zn284 1.977 . S
O293 C299 1.272 . S
O294 Zn284 1.910 1_545 S
O294 C300 1.231 . S
C295 O279 1.225 . S
C295 O301 1.298 . S
C296 O285 1.226 . S
C296 O286 1.307 . S
C297 O289 1.303 . S
C297 O290 1.247 1_565 S
C298 O287 1.253 . S
C298 O288 1.283 1_545 S
C299 O291 1.325 . S
C299 O293 1.272 . S
C300 O292 1.311 . S
C300 O294 1.231 . S
O301 Zn283 1.953 . S
O301 C295 1.298 . S
O302 Zn303 1.953 . S
O302 C318 1.225 . S
Zn303 O302 1.953 . S
Zn303 O304 1.949 . S
Zn303 O310 1.919 . S
Zn303 O315 1.924 . S
O304 Zn303 1.949 . S
O304 Zn305 1.923 . S
O304 Zn306 1.950 . S
O304 Zn307 1.945 . S
Zn305 O304 1.923 . S
Zn305 O308 1.933 . S
Zn305 O311 1.941 . S
Zn305 O312 1.965 . S
Zn306 O304 1.950 . S
Zn306 O313 1.938 . S
Zn306 O314 1.906 . S
Zn306 O324 1.953 . S
Zn307 O304 1.945 . S
Zn307 O309 1.932 . S
Zn307 O316 1.977 . S
Zn307 O317 1.910 . S
O308 Zn305 1.933 . S
O308 C319 1.226 . S
O309 Zn307 1.932 . S
O309 C319 1.307 . S
O310 Zn303 1.919 . S
O310 C321 1.253 . S
O311 Zn305 1.941 . S
O311 C321 1.283 . S
O312 Zn305 1.965 . S
O312 C320 1.303 . S
O313 Zn306 1.938 . S
O313 C320 1.247 . S
O314 Zn306 1.906 . S
O314 C322 1.304 . S
O315 Zn303 1.924 . S
O315 C323 1.311 . S
O316 Zn307 1.977 . S
O316 C322 1.272 . S
O317 Zn307 1.910 . S
O317 C323 1.231 . S
C318 O302 1.225 . S
C318 O324 1.298 . S
C319 O308 1.226 . S
C319 O309 1.307 . S
C320 O312 1.303 . S
C320 O313 1.247 . S
C321 O310 1.253 . S
C321 O311 1.283 . S
C322 O314 1.304 . S
C322 O316 1.272 . S
C323 O315 1.311 . S
C323 O317 1.231 . S
O324 Zn306 1.953 . S
O324 C318 1.298 . S
O325 Zn326 1.953 1_655 S
O325 C341 1.225 . S
Zn326 O325 1.953 1_455 S
Zn326 O327 1.949 . S
Zn326 O333 1.919 . S
Zn326 O338 1.924 . S
O327 Zn326 1.949 . S
O327 Zn328 1.923 . S
O327 Zn329 1.950 1_455 S
O327 Zn330 1.945 . S
Zn328 O327 1.923 . S
Zn328 O331 1.933 . S
Zn328 O334 1.946 . S
Zn328 O335 1.965 1_455 S
Zn329 O327 1.950 1_655 S
Zn329 O336 1.938 . S
Zn329 O337 1.906 1_655 S
Zn329 O347 1.953 . S
Zn330 O327 1.945 . S
Zn330 O332 1.932 . S
Zn330 O339 1.977 . S
Zn330 O340 1.910 . S
O331 Zn328 1.933 . S
O331 C342 1.226 . S
O332 Zn330 1.932 . S
O332 C342 1.307 . S
O333 Zn326 1.919 . S
O333 C344 1.253 . S
O334 Zn328 1.946 . S
O334 C344 1.289 . S
O335 Zn328 1.965 1_655 S
O335 C343 1.303 . S
O336 Zn329 1.938 . S
O336 C343 1.247 . S
O337 Zn329 1.906 1_455 S
O337 C345 1.304 . S
O338 Zn326 1.924 . S
O338 C346 1.311 . S
O339 Zn330 1.977 . S
O339 C345 1.272 . S
O340 Zn330 1.910 . S
O340 C346 1.231 . S
C341 O325 1.225 . S
C341 O347 1.298 . S
C342 O331 1.226 . S
C342 O332 1.307 . S
C343 O335 1.303 . S
C343 O336 1.247 . S
C344 O333 1.253 . S
C344 O334 1.289 . S
C345 O337 1.304 . S
C345 O339 1.272 . S
C346 O338 1.311 . S
C346 O340 1.231 . S
O347 Zn329 1.953 . S
O347 C341 1.298 . S
H348 C356 0.950 . S
H349 C361 0.950 . S
H350 C358 0.950 . S
H351 C360 0.950 . S
H352 C362 0.945 1_545 S
H353 C364 0.950 1_545 S
H354 C366 0.950 . S
H355 C367 0.950 . S
C356 H348 0.950 . S
C356 C357 1.386 . S
C356 C358 1.391 . S
C357 C356 1.386 . S
C357 C361 1.393 1_565 S
C358 H350 0.950 . S
C358 C356 1.391 . S
C358 C359 1.400 . S
C359 C358 1.400 . S
C359 C360 1.399 1_565 S
C359 C365 1.491 . S
C360 H351 0.950 . S
C360 C359 1.399 1_545 S
C360 C361 1.391 . S
C361 H349 0.950 . S
C361 C357 1.393 1_545 S
C361 C360 1.391 . S
C362 H352 0.945 1_565 S
C362 C363 1.391 . S
C362 C364 1.392 . S
C363 C362 1.391 . S
C363 C367 1.393 . S
C364 H353 0.950 1_565 S
C364 C362 1.392 . S
C364 C365 1.400 . S
C365 C359 1.491 . S
C365 C364 1.400 . S
C365 C366 1.398 . S
C366 H354 0.950 . S
C366 C365 1.398 . S
C366 C367 1.391 . S
C367 H355 0.950 . S
C367 C363 1.393 . S
C367 C366 1.391 . S
H368 C376 0.950 . S
H369 C381 0.950 . S
H370 C378 0.950 . S
H371 C380 0.950 . S
H372 C382 0.950 . S
H373 C384 0.950 . S
H374 C386 0.950 . S
H375 C387 0.950 . S
C376 H368 0.950 . S
C376 C377 1.386 . S
C376 C378 1.391 . S
C377 C376 1.386 . S
C377 C381 1.393 . S
C378 H370 0.950 . S
C378 C376 1.391 . S
C378 C379 1.400 . S
C379 C378 1.400 . S
C379 C380 1.398 . S
C379 C385 1.491 . S
C380 H371 0.950 . S
C380 C379 1.398 . S
C380 C381 1.391 . S
C381 H369 0.950 . S
C381 C377 1.393 . S
C381 C380 1.391 . S
C382 H372 0.950 . S
C382 C383 1.386 . S
C382 C384 1.391 . S
C383 C382 1.386 . S
C383 C387 1.393 . S
C384 H373 0.950 . S
C384 C382 1.391 . S
C384 C385 1.400 . S
C385 C379 1.491 . S
C385 C384 1.400 . S
C385 C386 1.398 . S
C386 H374 0.950 . S
C386 C385 1.398 . S
C386 C387 1.391 . S
C387 H375 0.950 . S
C387 C383 1.393 . S
C387 C386 1.391 . S
H388 C396 0.950 . S
H389 C401 0.950 . S
H390 C398 0.950 . S
H391 C400 0.950 . S
H392 C402 0.950 . S
H393 C404 0.950 . S
H394 C406 0.950 . S
H395 C407 0.950 . S
C396 H388 0.950 . S
C396 C397 1.386 . S
C396 C398 1.391 . S
C397 C396 1.386 . S
C397 C401 1.393 . S
C398 H390 0.950 . S
C398 C396 1.391 . S
C398 C399 1.400 . S
C399 C398 1.400 . S
C399 C400 1.398 . S
C399 C405 1.491 . S
C400 H391 0.950 . S
C400 C399 1.398 . S
C400 C401 1.391 . S
C401 H389 0.950 . S
C401 C397 1.393 . S
C401 C400 1.391 . S
C402 H392 0.950 . S
C402 C403 1.386 . S
C402 C404 1.391 . S
C403 C402 1.386 . S
C403 C407 1.393 . S
C404 H393 0.950 . S
C404 C402 1.391 . S
C404 C405 1.400 . S
C405 C399 1.491 . S
C405 C404 1.400 . S
C405 C406 1.398 . S
C406 H394 0.950 . S
C406 C405 1.398 . S
C406 C407 1.391 . S
C407 H395 0.950 . S
C407 C403 1.393 . S
C407 C406 1.391 . S
H408 C416 0.950 . S
H409 C421 0.950 . S
H410 C418 0.950 . S
H411 C420 0.950 . S
H412 C422 0.950 . S
H413 C424 0.950 . S
H414 C426 0.950 . S
H415 C427 0.950 . S
C416 H408 0.950 . S
C416 C417 1.386 . S
C416 C418 1.391 . S
C417 C416 1.386 . S
C417 C421 1.393 . S
C418 H410 0.950 . S
C418 C416 1.391 . S
C418 C419 1.400 . S
C419 C418 1.400 . S
C419 C420 1.398 . S
C419 C425 1.491 . S
C420 H411 0.950 . S
C420 C419 1.398 . S
C420 C421 1.391 . S
C421 H409 0.950 . S
C421 C417 1.393 . S
C421 C420 1.391 . S
C422 H412 0.950 . S
C422 C423 1.386 . S
C422 C424 1.391 . S
C423 C422 1.386 . S
C423 C427 1.393 . S
C424 H413 0.950 . S
C424 C422 1.391 . S
C424 C425 1.400 . S
C425 C419 1.491 . S
C425 C424 1.400 . S
C425 C426 1.398 . S
C426 H414 0.950 . S
C426 C425 1.398 . S
C426 C427 1.391 . S
C427 H415 0.950 . S
C427 C423 1.393 . S
C427 C426 1.391 . S
H428 C436 0.950 . S
H429 C441 0.950 . S
H430 C438 0.950 . S
H431 C440 0.950 . S
H432 C442 0.950 . S
H433 C444 0.950 . S
H434 C446 0.950 . S
H435 C447 0.950 . S
C436 H428 0.950 . S
C436 C437 1.386 1_565 S
C436 C438 1.391 . S
C437 C436 1.386 1_545 S
C437 C441 1.393 1_556 S
C438 H430 0.950 . S
C438 C436 1.391 . S
C438 C439 1.400 1_565 S
C439 C438 1.400 1_545 S
C439 C440 1.398 . S
C439 C445 1.491 . S
C440 H431 0.950 . S
C440 C439 1.398 . S
C440 C441 1.391 1_556 S
C441 H429 0.950 . S
C441 C437 1.393 1_554 S
C441 C440 1.391 1_554 S
C442 H432 0.950 . S
C442 C443 1.386 . S
C442 C444 1.391 . S
C443 C442 1.386 . S
C443 C447 1.393 1_545 S
C444 H433 0.950 . S
C444 C442 1.391 . S
C444 C445 1.400 . S
C445 C439 1.491 . S
C445 C444 1.400 . S
C445 C446 1.398 1_545 S
C446 H434 0.950 . S
C446 C445 1.398 1_565 S
C446 C447 1.391 . S
C447 H435 0.950 . S
C447 C443 1.393 1_565 S
C447 C446 1.391 . S
H448 C456 0.954 . S
H449 C461 0.950 . S
H450 C458 0.950 . S
H451 C460 0.950 . S
H452 C462 0.950 . S
H453 C464 0.950 . S
H454 C466 0.950 . S
H455 C467 0.950 . S
C456 H448 0.954 . S
C456 C457 1.386 . S
C456 C458 1.391 . S
C457 C456 1.386 . S
C457 C461 1.393 . S
C458 H450 0.950 . S
C458 C456 1.391 . S
C458 C459 1.400 . S
C459 C458 1.400 . S
C459 C460 1.398 . S
C459 C465 1.491 . S
C460 H451 0.950 . S
C460 C459 1.398 . S
C460 C461 1.391 . S
C461 H449 0.950 . S
C461 C457 1.393 . S
C461 C460 1.391 . S
C462 H452 0.950 . S
C462 C463 1.386 . S
C462 C464 1.391 . S
C463 C462 1.386 . S
C463 C467 1.393 . S
C464 H453 0.950 . S
C464 C462 1.391 . S
C464 C465 1.400 . S
C465 C459 1.491 . S
C465 C464 1.400 . S
C465 C466 1.398 . S
C466 H454 0.950 . S
C466 C465 1.398 . S
C466 C467 1.391 . S
C467 H455 0.950 . S
C467 C463 1.393 . S
C467 C466 1.391 . S
H468 C476 0.950 1_554 S
H469 C481 0.950 . S
H470 C478 0.950 . S
H471 C480 0.950 . S
H472 C482 0.950 . S
H473 C484 0.950 . S
H474 C486 0.950 . S
H475 C487 0.950 . S
C476 H468 0.950 1_556 S
C476 C477 1.386 . S
C476 C478 1.391 . S
C477 C476 1.386 . S
C477 C481 1.393 . S
C478 H470 0.950 . S
C478 C476 1.391 . S
C478 C479 1.400 . S
C479 C478 1.400 . S
C479 C480 1.398 . S
C479 C485 1.491 . S
C480 H471 0.950 . S
C480 C479 1.398 . S
C480 C481 1.391 . S
C481 H469 0.950 . S
C481 C477 1.393 . S
C481 C480 1.391 . S
C482 H472 0.950 . S
C482 C483 1.386 . S
C482 C484 1.391 . S
C483 C482 1.386 . S
C483 C487 1.393 . S
C484 H473 0.950 . S
C484 C482 1.391 . S
C484 C485 1.400 . S
C485 C479 1.491 . S
C485 C484 1.400 . S
C485 C486 1.398 . S
C486 H474 0.950 . S
C486 C485 1.398 . S
C486 C487 1.391 . S
C487 H475 0.950 . S
C487 C483 1.393 . S
C487 C486 1.391 . S
H488 C496 0.946 1_455 S
H489 C501 0.950 . S
H490 C498 0.950 . S
H491 C500 0.950 . S
H492 C502 0.957 . S
H493 C504 0.950 . S
H494 C506 0.950 . S
H495 C507 0.950 . S
C496 H488 0.946 1_655 S
C496 C497 1.396 . S
C496 C498 1.387 1_654 S
C497 C496 1.396 . S
C497 C501 1.393 1_554 S
C498 H490 0.950 . S
C498 C496 1.387 1_456 S
C498 C499 1.395 1_455 S
C499 C498 1.395 1_655 S
C499 C500 1.412 . S
C499 C505 1.484 1_655 S
C500 H491 0.950 . S
C500 C499 1.412 . S
C500 C501 1.391 . S
C501 H489 0.950 . S
C501 C497 1.393 1_556 S
C501 C500 1.391 . S
C502 H492 0.957 . S
C502 C503 1.386 . S
C502 C504 1.391 1_455 S
C503 C502 1.386 . S
C503 C507 1.393 . S
C504 H493 0.950 . S
C504 C502 1.391 1_655 S
C504 C505 1.400 1_655 S
C505 C499 1.484 1_455 S
C505 C504 1.400 1_455 S
C505 C506 1.398 . S
C506 H494 0.950 . S
C506 C505 1.398 . S
C506 C507 1.391 . S
C507 H495 0.950 . S
C507 C503 1.393 . S
C507 C506 1.391 . S
H508 C516 0.950 . S
H509 C521 0.950 . S
H510 C518 0.950 . S
H511 C520 0.950 . S
H512 C522 0.950 . S
H513 C524 0.950 . S
H514 C526 0.950 . S
H515 C527 0.950 . S
C516 H508 0.950 . S
C516 C517 1.386 . S
C516 C518 1.391 . S
C517 C516 1.386 . S
C517 C521 1.393 . S
C518 H510 0.950 . S
C518 C516 1.391 . S
C518 C519 1.400 . S
C519 C518 1.400 . S
C519 C520 1.398 . S
C519 C525 1.491 . S
C520 H511 0.950 . S
C520 C519 1.398 . S
C520 C521 1.391 . S
C521 H509 0.950 . S
C521 C517 1.393 . S
C521 C520 1.391 . S
C522 H512 0.950 . S
C522 C523 1.386 . S
C522 C524 1.391 . S
C523 C522 1.386 . S
C523 C527 1.393 . S
C524 H513 0.950 . S
C524 C522 1.391 . S
C524 C525 1.400 . S
C525 C519 1.491 . S
C525 C524 1.400 . S
C525 C526 1.398 . S
C526 H514 0.950 . S
C526 C525 1.398 . S
C526 C527 1.391 . S
C527 H515 0.950 . S
C527 C523 1.393 . S
C527 C526 1.391 . S
H528 C536 0.950 . S
H529 C541 0.950 . S
H530 C538 0.950 . S
H531 C540 0.950 . S
H532 C542 0.950 . S
H533 C544 0.950 . S
H534 C546 0.950 . S
H535 C547 0.950 . S
C536 H528 0.950 . S
C536 C537 1.388 . S
C536 C538 1.391 . S
C537 C536 1.388 . S
C537 C541 1.392 1_565 S
C538 H530 0.950 . S
C538 C536 1.391 . S
C538 C539 1.400 . S
C539 C538 1.400 . S
C539 C540 1.398 1_565 S
C539 C545 1.490 . S
C540 H531 0.950 . S
C540 C539 1.398 1_545 S
C540 C541 1.391 . S
C541 H529 0.950 . S
C541 C537 1.392 1_545 S
C541 C540 1.391 . S
C542 H532 0.950 . S
C542 C543 1.386 1_545 S
C542 C544 1.391 . S
C543 C542 1.386 1_565 S
C543 C547 1.393 . S
C544 H533 0.950 . S
C544 C542 1.391 . S
C544 C545 1.397 1_545 S
C545 C539 1.490 . S
C545 C544 1.397 1_565 S
C545 C546 1.403 . S
C546 H534 0.950 . S
C546 C545 1.403 . S
C546 C547 1.391 . S
C547 H535 0.950 . S
C547 C543 1.393 . S
C547 C546 1.391 . S
H548 C556 0.950 . S
H549 C561 0.950 . S
H550 C558 0.950 . S
H551 C560 0.950 . S
H552 C562 0.950 . S
H553 C564 0.950 . S
H554 C566 0.950 . S
H555 C567 0.950 . S
C556 H548 0.950 . S
C556 C557 1.386 . S
C556 C558 1.391 . S
C557 C556 1.386 . S
C557 C561 1.393 . S
C558 H550 0.950 . S
C558 C556 1.391 . S
C558 C559 1.400 . S
C559 C558 1.400 . S
C559 C560 1.398 . S
C559 C565 1.491 . S
C560 H551 0.950 . S
C560 C559 1.398 . S
C560 C561 1.391 . S
C561 H549 0.950 . S
C561 C557 1.393 . S
C561 C560 1.391 . S
C562 H552 0.950 . S
C562 C563 1.386 . S
C562 C564 1.391 . S
C563 C562 1.386 . S
C563 C567 1.393 . S
C564 H553 0.950 . S
C564 C562 1.391 . S
C564 C565 1.400 . S
C565 C559 1.491 . S
C565 C564 1.400 . S
C565 C566 1.398 . S
C566 H554 0.950 . S
C566 C565 1.398 . S
C566 C567 1.391 . S
C567 H555 0.950 . S
C567 C563 1.393 . S
C567 C566 1.391 . S
H568 C576 0.950 . S
H569 C581 0.950 . S
H570 C578 0.950 . S
H571 C580 0.950 . S
H572 C582 0.950 . S
H573 C584 0.950 . S
H574 C586 0.950 . S
H575 C587 0.950 . S
C576 H568 0.950 . S
C576 C577 1.386 . S
C576 C578 1.391 . S
C577 C576 1.386 . S
C577 C581 1.393 . S
C578 H570 0.950 . S
C578 C576 1.391 . S
C578 C579 1.400 . S
C579 C578 1.400 . S
C579 C580 1.398 . S
C579 C585 1.491 . S
C580 H571 0.950 . S
C580 C579 1.398 . S
C580 C581 1.391 . S
C581 H569 0.950 . S
C581 C577 1.393 . S
C581 C580 1.391 . S
C582 H572 0.950 . S
C582 C583 1.386 . S
C582 C584 1.391 . S
C583 C582 1.386 . S
C583 C587 1.393 . S
C584 H573 0.950 . S
C584 C582 1.391 . S
C584 C585 1.400 . S
C585 C579 1.491 . S
C585 C584 1.400 . S
C585 C586 1.398 . S
C586 H574 0.950 . S
C586 C585 1.398 . S
C586 C587 1.391 . S
C587 H575 0.950 . S
C587 C583 1.393 . S
C587 C586 1.391 . S
H588 C596 0.950 . S
H589 C601 0.950 1_554 S
H590 C598 0.950 . S
H591 C600 0.950 . S
H592 C602 0.950 . S
H593 C604 0.950 . S
H594 C606 0.950 . S
H595 C607 0.950 . S
C596 H588 0.950 . S
C596 C597 1.386 . S
C596 C598 1.391 1_655 S
C597 C596 1.386 . S
C597 C601 1.393 1_655 S
C598 H590 0.950 . S
C598 C596 1.391 1_455 S
C598 C599 1.400 . S
C599 C598 1.400 . S
C599 C600 1.398 . S
C599 C605 1.491 . S
C600 H591 0.950 . S
C600 C599 1.398 . S
C600 C601 1.391 . S
C601 H589 0.950 1_556 S
C601 C597 1.393 1_455 S
C601 C600 1.391 . S
C602 H592 0.950 . S
C602 C603 1.386 . S
C602 C604 1.391 . S
C603 C602 1.386 . S
C603 C607 1.393 . S
C604 H593 0.950 . S
C604 C602 1.391 . S
C604 C605 1.400 . S
C605 C599 1.491 . S
C605 C604 1.400 . S
C605 C606 1.398 . S
C606 H594 0.950 . S
C606 C605 1.398 . S
C606 C607 1.391 . S
C607 H595 0.950 . S
C607 C603 1.393 . S
C607 C606 1.391 . S
H608 C616 0.950 . S
H609 C621 0.950 . S
H610 C618 0.950 . S
H611 C620 0.950 . S
H612 C622 0.950 . S
H613 C624 0.950 . S
H614 C626 0.950 1_565 S
H615 C627 0.950 1_565 S
C616 H608 0.950 . S
C616 C617 1.386 . S
C616 C618 1.391 . S
C617 C616 1.386 . S
C617 C621 1.393 1_565 S
C618 H610 0.950 . S
C618 C616 1.391 . S
C618 C619 1.400 1_565 S
C619 C618 1.400 1_545 S
C619 C620 1.398 . S
C619 C625 1.491 . S
C620 H611 0.950 . S
C620 C619 1.398 . S
C620 C621 1.391 . S
C621 H609 0.950 . S
C621 C617 1.393 1_545 S
C621 C620 1.391 . S
C622 H612 0.950 . S
C622 C623 1.386 . S
C622 C624 1.391 . S
C623 C622 1.386 . S
C623 C627 1.393 . S
C624 H613 0.950 . S
C624 C622 1.391 . S
C624 C625 1.400 . S
C625 C619 1.491 . S
C625 C624 1.400 . S
C625 C626 1.398 . S
C626 H614 0.950 1_545 S
C626 C625 1.398 . S
C626 C627 1.391 . S
C627 H615 0.950 1_545 S
C627 C623 1.393 . S
C627 C626 1.391 . S
H628 C636 0.950 . S
H629 C641 0.950 . S
H630 C638 0.950 . S
H631 C640 0.950 . S
H632 C642 0.950 . S
H633 C644 0.950 . S
H634 C646 0.950 . S
H635 C647 0.950 . S
C636 H628 0.950 . S
C636 C637 1.386 . S
C636 C638 1.391 . S
C637 C636 1.386 . S
C637 C641 1.393 . S
C638 H630 0.950 . S
C638 C636 1.391 . S
C638 C639 1.400 . S
C639 C638 1.400 . S
C639 C640 1.398 . S
C639 C645 1.491 . S
C640 H631 0.950 . S
C640 C639 1.398 . S
C640 C641 1.391 . S
C641 H629 0.950 . S
C641 C637 1.393 . S
C641 C640 1.391 . S
C642 H632 0.950 . S
C642 C643 1.386 . S
C642 C644 1.391 . S
C643 C642 1.386 . S
C643 C647 1.393 . S
C644 H633 0.950 . S
C644 C642 1.391 . S
C644 C645 1.400 . S
C645 C639 1.491 . S
C645 C644 1.400 . S
C645 C646 1.398 . S
C646 H634 0.950 . S
C646 C645 1.398 . S
C646 C647 1.391 . S
C647 H635 0.950 . S
C647 C643 1.393 . S
C647 C646 1.391 . S
H648 C656 0.950 . S
H649 C661 0.950 . S
H650 C658 0.950 . S
H651 C660 0.950 . S
H652 C662 0.950 . S
H653 C664 0.950 . S
H654 C666 0.950 . S
H655 C667 0.950 . S
C656 H648 0.950 . S
C656 C657 1.386 . S
C656 C658 1.391 . S
C657 C656 1.386 . S
C657 C661 1.393 . S
C658 H650 0.950 . S
C658 C656 1.391 . S
C658 C659 1.400 . S
C659 C658 1.400 . S
C659 C660 1.398 . S
C659 C665 1.491 . S
C660 H651 0.950 . S
C660 C659 1.398 . S
C660 C661 1.391 . S
C661 H649 0.950 . S
C661 C657 1.393 . S
C661 C660 1.391 . S
C662 H652 0.950 . S
C662 C663 1.386 . S
C662 C664 1.391 . S
C663 C662 1.386 . S
C663 C667 1.393 . S
C664 H653 0.950 . S
C664 C662 1.391 . S
C664 C665 1.400 . S
C665 C659 1.491 . S
C665 C664 1.400 . S
C665 C666 1.398 . S
C666 H654 0.950 . S
C666 C665 1.398 . S
C666 C667 1.391 . S
C667 H655 0.950 . S
C667 C663 1.393 . S
C667 C666 1.391 . S
H668 C676 0.950 . S
H669 C681 0.950 . S
H670 C678 0.950 . S
H671 C680 0.950 . S
H672 C682 0.950 . S
H673 C684 0.950 . S
H674 C686 0.950 1_554 S
H675 C687 0.950 . S
C676 H668 0.950 . S
C676 C677 1.386 . S
C676 C678 1.391 . S
C677 C676 1.386 . S
C677 C681 1.393 . S
C678 H670 0.950 . S
C678 C676 1.391 . S
C678 C679 1.400 . S
C679 C678 1.400 . S
C679 C680 1.398 1_554 S
C679 C685 1.491 1_554 S
C680 H671 0.950 . S
C680 C679 1.398 1_556 S
C680 C681 1.391 1_556 S
C681 H669 0.950 . S
C681 C677 1.393 . S
C681 C680 1.391 1_554 S
C682 H672 0.950 . S
C682 C683 1.386 . S
C682 C684 1.391 . S
C683 C682 1.386 . S
C683 C687 1.393 . S
C684 H673 0.950 . S
C684 C682 1.391 . S
C684 C685 1.400 . S
C685 C679 1.491 1_556 S
C685 C684 1.400 . S
C685 C686 1.398 . S
C686 H674 0.950 1_556 S
C686 C685 1.398 . S
C686 C687 1.391 . S
C687 H675 0.950 . S
C687 C683 1.393 . S
C687 C686 1.391 . S
H688 C696 0.950 . S
H689 C701 0.950 . S
H690 C698 0.950 . S
H691 C700 0.950 . S
H692 C702 0.950 . S
H693 C704 0.950 . S
H694 C706 0.950 . S
H695 C707 0.950 . S
C696 H688 0.950 . S
C696 C697 1.389 . S
C696 C698 1.391 1_554 S
C697 C696 1.389 . S
C697 C701 1.390 1_545 S
C698 H690 0.950 . S
C698 C696 1.391 1_556 S
C698 C699 1.398 . S
C699 C698 1.398 . S
C699 C700 1.400 1_545 S
C699 C705 1.491 1_545 S
C700 H691 0.950 . S
C700 C699 1.400 1_565 S
C700 C701 1.391 1_556 S
C701 H689 0.950 . S
C701 C697 1.390 1_565 S
C701 C700 1.391 1_554 S
C702 H692 0.950 . S
C702 C703 1.389 . S
C702 C704 1.391 . S
C703 C702 1.389 . S
C703 C707 1.389 1_565 S
C704 H693 0.950 . S
C704 C702 1.391 . S
C704 C705 1.398 . S
C705 C699 1.491 1_565 S
C705 C704 1.398 . S
C705 C706 1.400 1_565 S
C706 H694 0.950 . S
C706 C705 1.400 1_545 S
C706 C707 1.391 . S
C707 H695 0.950 . S
C707 C703 1.389 1_545 S
C707 C706 1.391 . S
H708 C716 0.950 1_554 S
H709 C721 0.950 . S
H710 C718 0.950 . S
H711 C720 0.950 . S
H712 C722 0.950 . S
H713 C724 0.950 . S
H714 C726 0.950 . S
H715 C727 0.950 . S
C716 H708 0.950 1_556 S
C716 C717 1.386 1_556 S
C716 C718 1.391 . S
C717 C716 1.386 1_554 S
C717 C721 1.393 . S
C718 H710 0.950 . S
C718 C716 1.391 . S
C718 C719 1.400 . S
C719 C718 1.400 . S
C719 C720 1.398 . S
C719 C725 1.491 . S
C720 H711 0.950 . S
C720 C719 1.398 . S
C720 C721 1.391 1_556 S
C721 H709 0.950 . S
C721 C717 1.393 . S
C721 C720 1.391 1_554 S
C722 H712 0.950 . S
C722 C723 1.386 . S
C722 C724 1.391 . S
C723 C722 1.386 . S
C723 C727 1.393 . S
C724 H713 0.950 . S
C724 C722 1.391 . S
C724 C725 1.400 . S
C725 C719 1.491 . S
C725 C724 1.400 . S
C725 C726 1.398 . S
C726 H714 0.950 . S
C726 C725 1.398 . S
C726 C727 1.391 . S
C727 H715 0.950 . S
C727 C723 1.393 . S
C727 C726 1.391 . S
H728 C736 0.950 . S
H729 C741 0.950 . S
H730 C738 0.949 1_554 S
H731 C740 0.950 . S
H732 C742 0.950 . S
H733 C744 0.950 . S
H734 C746 0.950 . S
H735 C747 0.950 . S
C736 H728 0.950 . S
C736 C737 1.386 . S
C736 C738 1.390 1_554 S
C737 C736 1.386 . S
C737 C741 1.393 1_554 S
C738 H730 0.949 1_556 S
C738 C736 1.390 1_556 S
C738 C739 1.402 . S
C739 C738 1.402 . S
C739 C740 1.398 . S
C739 C745 1.491 . S
C740 H731 0.950 . S
C740 C739 1.398 . S
C740 C741 1.391 . S
C741 H729 0.950 . S
C741 C737 1.393 1_556 S
C741 C740 1.391 . S
C742 H732 0.950 . S
C742 C743 1.386 . S
C742 C744 1.391 . S
C743 C742 1.386 . S
C743 C747 1.393 . S
C744 H733 0.950 . S
C744 C742 1.391 . S
C744 C745 1.400 . S
C745 C739 1.491 . S
C745 C744 1.400 . S
C745 C746 1.398 . S
C746 H734 0.950 . S
C746 C745 1.398 . S
C746 C747 1.391 . S
C747 H735 0.950 . S
C747 C743 1.393 . S
C747 C746 1.391 . S
H748 C756 0.950 . S
H749 C761 0.950 . S
H750 C758 0.950 . S
H751 C760 0.950 . S
H752 C762 0.950 . S
H753 C764 0.950 . S
H754 C766 0.950 . S
H755 C767 0.950 . S
C756 H748 0.950 . S
C756 C757 1.386 1_455 S
C756 C758 1.391 . S
C757 C756 1.386 1_655 S
C757 C761 1.393 . S
C758 H750 0.950 . S
C758 C756 1.391 . S
C758 C759 1.400 1_455 S
C759 C758 1.400 1_655 S
C759 C760 1.398 . S
C759 C765 1.491 . S
C760 H751 0.950 . S
C760 C759 1.398 . S
C760 C761 1.391 . S
C761 H749 0.950 . S
C761 C757 1.393 . S
C761 C760 1.391 . S
C762 H752 0.950 . S
C762 C763 1.386 . S
C762 C764 1.391 . S
C763 C762 1.386 . S
C763 C767 1.393 1_655 S
C764 H753 0.950 . S
C764 C762 1.391 . S
C764 C765 1.400 . S
C765 C759 1.491 . S
C765 C764 1.400 . S
C765 C766 1.398 1_655 S
C766 H754 0.950 . S
C766 C765 1.398 1_455 S
C766 C767 1.391 . S
C767 H755 0.950 . S
C767 C763 1.393 1_455 S
C767 C766 1.391 . S
H768 C776 0.950 . S
H769 C781 0.950 1_545 S
H770 C778 0.950 . S
H771 C780 0.950 . S
H772 C782 0.950 . S
H773 C784 0.950 . S
H774 C786 0.950 . S
H775 C787 0.950 . S
C776 H768 0.950 . S
C776 C777 1.386 . S
C776 C778 1.391 . S
C777 C776 1.386 . S
C777 C781 1.393 . S
C778 H770 0.950 . S
C778 C776 1.391 . S
C778 C779 1.400 . S
C779 C778 1.400 . S
C779 C780 1.398 . S
C779 C785 1.491 . S
C780 H771 0.950 . S
C780 C779 1.398 . S
C780 C781 1.391 . S
C781 H769 0.950 1_565 S
C781 C777 1.393 . S
C781 C780 1.391 . S
C782 H772 0.950 . S
C782 C783 1.386 . S
C782 C784 1.391 . S
C783 C782 1.386 . S
C783 C787 1.393 . S
C784 H773 0.950 . S
C784 C782 1.391 . S
C784 C785 1.400 . S
C785 C779 1.491 . S
C785 C784 1.400 . S
C785 C786 1.398 . S
C786 H774 0.950 . S
C786 C785 1.398 . S
C786 C787 1.391 . S
C787 H775 0.950 . S
C787 C783 1.393 . S
C787 C786 1.391 . S
H788 C796 0.950 . S
H789 C801 0.950 . S
H790 C798 0.950 . S
H791 C800 0.950 . S
H792 C802 0.950 . S
H793 C804 0.950 . S
H794 C806 0.950 . S
H795 C807 0.950 . S
C796 H788 0.950 . S
C796 C797 1.386 . S
C796 C798 1.391 . S
C797 C796 1.386 . S
C797 C801 1.393 . S
C798 H790 0.950 . S
C798 C796 1.391 . S
C798 C799 1.400 . S
C799 C798 1.400 . S
C799 C800 1.398 . S
C799 C805 1.491 . S
C800 H791 0.950 . S
C800 C799 1.398 . S
C800 C801 1.391 . S
C801 H789 0.950 . S
C801 C797 1.393 . S
C801 C800 1.391 . S
C802 H792 0.950 . S
C802 C803 1.386 . S
C802 C804 1.391 . S
C803 C802 1.386 . S
C803 C807 1.393 . S
C804 H793 0.950 . S
C804 C802 1.391 . S
C804 C805 1.400 . S
C805 C799 1.491 . S
C805 C804 1.400 . S
C805 C806 1.398 . S
C806 H794 0.950 . S
C806 C805 1.398 . S
C806 C807 1.391 . S
C807 H795 0.950 . S
C807 C803 1.393 . S
C807 C806 1.391 . S
H808 C816 0.950 . S
H809 C821 0.950 . S
H810 C818 0.950 . S
H811 C820 0.950 . S
H812 C822 0.950 . S
H813 C824 0.950 . S
H814 C826 0.950 . S
H815 C827 0.950 . S
C816 H808 0.950 . S
C816 C817 1.386 . S
C816 C818 1.391 . S
C817 C816 1.386 . S
C817 C821 1.393 . S
C818 H810 0.950 . S
C818 C816 1.391 . S
C818 C819 1.400 . S
C819 C818 1.400 . S
C819 C820 1.398 . S
C819 C825 1.491 . S
C820 H811 0.950 . S
C820 C819 1.398 . S
C820 C821 1.391 . S
C821 H809 0.950 . S
C821 C817 1.393 . S
C821 C820 1.391 . S
C822 H812 0.950 . S
C822 C823 1.386 . S
C822 C824 1.391 . S
C823 C822 1.386 . S
C823 C827 1.393 . S
C824 H813 0.950 . S
C824 C822 1.391 . S
C824 C825 1.400 . S
C825 C819 1.491 . S
C825 C824 1.400 . S
C825 C826 1.398 . S
C826 H814 0.950 . S
C826 C825 1.398 . S
C826 C827 1.391 . S
C827 H815 0.950 . S
C827 C823 1.393 . S
C827 C826 1.391 . S
C357 C215 1.603 1_565 S
C363 C272 1.603 . S
C383 C295 1.754 . S
C377 C247 1.768 . S
C403 C318 1.675 . S
C397 C151 1.624 . S
C423 C345 1.576 . S
C417 C183 1.676 . S
C443 C273 1.554 . S
C437 C87 1.512 1_556 S
C457 C119 1.512 1_556 S
C463 C296 1.579 . S
C477 C23 1.433 . S
C483 C319 1.446 . S
C497 C55 1.601 . S
C503 C344 1.644 . S
C523 C274 0.130 . S
C517 C189 0.232 . S
C543 C297 0.211 . S
C537 C221 0.405 1_565 S
C563 C320 0.166 . S
C557 C253 0.240 . S
C577 C157 0.404 . S
C583 C346 0.488 . S
C597 C61 0.608 1_655 S
C603 C277 0.634 . S
C623 C300 0.591 . S
C617 C93 0.483 1_565 S
C643 C323 0.568 . S
C637 C125 0.570 . S
C657 C29 0.379 . S
C663 C343 0.127 . S
C677 C177 1.828 . S
C683 C275 1.775 . S
C697 C209 1.688 . S
C703 C298 1.710 1_565 S
C723 C321 1.738 . S
C717 C241 1.742 . S
C743 C342 1.517 . S
C737 C145 1.433 . S
C757 C49 1.786 1_655 S
C763 C276 1.732 1_655 S
C783 C299 1.639 . S
C777 C81 1.717 1_565 S
C803 C322 1.642 . S
C797 C113 1.654 . S
C817 C17 1.837 . S
C823 C341 1.889 . S
