# Generated by pormake.
# Topology zzz, (3,6)-cn, num edge types: 1
# Building blocks:
#     Node 0, Type 0, BuildingBlock: QEWDON_clean_linker_0, # of connection points: 3
#     Node 1, Type 0, BuildingBlock: QEWDON_clean_linker_0, # of connection points: 3
#     Node 2, Type 0, BuildingBlock: QEWDON_clean_linker_0, # of connection points: 3
#     Node 3, Type 0, BuildingBlock: QEWDON_clean_linker_0, # of connection points: 3
#     Node 4, Type 0, BuildingBlock: QEWDON_clean_linker_0, # of connection points: 3
#     Node 5, Type 0, BuildingBlock: QEWDON_clean_linker_0, # of connection points: 3
#     Node 6, Type 0, BuildingBlock: QEWDON_clean_linker_0, # of connection points: 3
#     Node 7, Type 0, BuildingBlock: QEWDON_clean_linker_0, # of connection points: 3
#     Node 8, Type 1, BuildingBlock: BETFEN_clean_sbu_0, # of connection points: 6
#     Node 9, Type 1, BuildingBlock: BETFEN_clean_sbu_0, # of connection points: 6
#     Node 10, Type 1, BuildingBlock: BETFEN_clean_sbu_0, # of connection points: 6
#     Node 11, Type 1, BuildingBlock: BETFEN_clean_sbu_0, # of connection points: 6
#     Edge 12, Type (0, 1), BuildingBlock: MIFKUJ_clean_linker_0, # of connection points: 2
#     Edge 13, Type (0, 1), BuildingBlock: MIFKUJ_clean_linker_0, # of connection points: 2
#     Edge 14, Type (0, 1), BuildingBlock: MIFKUJ_clean_linker_0, # of connection points: 2
#     Edge 15, Type (0, 1), BuildingBlock: MIFKUJ_clean_linker_0, # of connection points: 2
#     Edge 16, Type (0, 1), BuildingBlock: MIFKUJ_clean_linker_0, # of connection points: 2
#     Edge 17, Type (0, 1), BuildingBlock: MIFKUJ_clean_linker_0, # of connection points: 2
#     Edge 18, Type (0, 1), BuildingBlock: MIFKUJ_clean_linker_0, # of connection points: 2
#     Edge 19, Type (0, 1), BuildingBlock: MIFKUJ_clean_linker_0, # of connection points: 2
#     Edge 20, Type (0, 1), BuildingBlock: MIFKUJ_clean_linker_0, # of connection points: 2
#     Edge 21, Type (0, 1), BuildingBlock: MIFKUJ_clean_linker_0, # of connection points: 2
#     Edge 22, Type (0, 1), BuildingBlock: MIFKUJ_clean_linker_0, # of connection points: 2
#     Edge 23, Type (0, 1), BuildingBlock: MIFKUJ_clean_linker_0, # of connection points: 2
#     Edge 24, Type (0, 1), BuildingBlock: MIFKUJ_clean_linker_0, # of connection points: 2
#     Edge 25, Type (0, 1), BuildingBlock: MIFKUJ_clean_linker_0, # of connection points: 2
#     Edge 26, Type (0, 1), BuildingBlock: MIFKUJ_clean_linker_0, # of connection points: 2
#     Edge 27, Type (0, 1), BuildingBlock: MIFKUJ_clean_linker_0, # of connection points: 2
#     Edge 28, Type (0, 1), BuildingBlock: MIFKUJ_clean_linker_0, # of connection points: 2
#     Edge 29, Type (0, 1), BuildingBlock: MIFKUJ_clean_linker_0, # of connection points: 2
#     Edge 30, Type (0, 1), BuildingBlock: MIFKUJ_clean_linker_0, # of connection points: 2
#     Edge 31, Type (0, 1), BuildingBlock: MIFKUJ_clean_linker_0, # of connection points: 2
#     Edge 32, Type (0, 1), BuildingBlock: MIFKUJ_clean_linker_0, # of connection points: 2
#     Edge 33, Type (0, 1), BuildingBlock: MIFKUJ_clean_linker_0, # of connection points: 2
#     Edge 34, Type (0, 1), BuildingBlock: MIFKUJ_clean_linker_0, # of connection points: 2
#     Edge 35, Type (0, 1), BuildingBlock: MIFKUJ_clean_linker_0, # of connection points: 2
# Relax obj value: 0.142
# Max RMSD: 0.162
# Mean RMSD: 0.120
data_MOF--net-zzz--node1-BETFEN_clean_sbu_0--node2-QEWDON_clean_linker_0--edge1-MIFKUJ_clean_linker_0
_symmetry_space_group_name_H-M    P1
_symmetry_Int_Tables_number       1
_symmetry_cell_setting            triclinic
loop_
_symmetry_equiv_pos_as_xyz
'x, y, z'
_cell_length_a     72.175559
_cell_length_b     72.26605
_cell_length_c     16.498586
_cell_angle_alpha  89.941721
_cell_angle_beta   89.924738
_cell_angle_gamma 90.080777
loop_
_atom_site_label
_atom_site_type_symbol
_atom_site_fract_x
_atom_site_fract_y
_atom_site_fract_z
_atom_type_partial_charge
H0 H 0.74905 0.53936 0.18896 0.0
C1 C 0.75949 0.53595 0.23358 0.0
C2 C 0.77813 0.53855 0.21293 0.0
C3 C 0.75438 0.52944 0.31106 0.0
H4 H 0.80639 0.53665 0.25421 0.0
C5 C 0.79191 0.53497 0.27049 0.0
C6 C 0.78748 0.52838 0.34765 0.0
C7 C 0.76869 0.52544 0.36796 0.0
C8 C 0.73415 0.52778 0.33237 0.0
H9 H 0.76535 0.52004 0.42742 0.0
C10 C 0.72045 0.52395 0.27263 0.0
C11 C 0.70129 0.52431 0.29158 0.0
C12 C 0.72822 0.53132 0.41206 0.0
H13 H 0.73802 0.53475 0.45929 0.0
C14 C 0.70942 0.5313 0.43162 0.0
H15 H 0.72463 0.52058 0.2114 0.0
C16 C 0.69609 0.52802 0.37219 0.0
H17 H 0.68165 0.52888 0.38943 0.0
H18 H 0.70511 0.5343 0.49308 0.0
H19 H 0.02457 0.74613 0.16868 0.0
C20 C 0.02522 0.75613 0.21732 0.0
C21 C 0.0334 0.77327 0.20093 0.0
C22 C 0.01695 0.75235 0.29303 0.0
H23 H 0.0388 0.80062 0.24688 0.0
C24 C 0.03341 0.78698 0.261 0.0
C25 C 0.02467 0.78425 0.33574 0.0
C26 C 1.01652 0.76681 0.35203 0.0
C27 C 1.00758 0.73388 0.30591 0.0
H28 H 1.00998 0.76467 0.4103 0.0
C29 C 1.013 0.71788 0.26143 0.0
C30 C 1.00289 0.70113 0.26616 0.0
C31 C 0.99226 0.7323 0.35834 0.0
H32 H 0.98717 0.74406 0.3921 0.0
C33 C 0.98266 0.7156 0.36577 0.0
H34 H 0.02511 0.71831 0.22277 0.0
C35 C 0.98776 0.70023 0.31978 0.0
H36 H 0.97945 0.68779 0.3246 0.0
H37 H 0.9708 0.71472 0.40586 0.0
H38 H 0.78421 0.01841 0.15729 0.0
C39 C 0.77462 0.02004 0.20724 0.0
C40 C 0.75733 0.02793 0.19119 0.0
C41 C 0.77913 1.01343 0.28515 0.0
H42 H 0.73047 0.03459 0.24001 0.0
C43 C 0.74416 0.02923 0.25341 0.0
C44 C 0.74763 0.02189 0.33037 0.0
C45 C 0.76522 1.01416 0.34653 0.0
C46 C 0.79778 1.0046 0.2988 0.0
H47 H 0.76789 1.00878 0.40661 0.0
C48 C 0.81349 1.00961 0.25131 0.0
C49 C 0.8305 1.00005 0.25822 0.0
C50 C 0.79983 0.99024 0.35579 0.0
H51 H 0.78826 0.98551 0.39204 0.0
C52 C 0.81676 0.98118 0.36489 0.0
H53 H 0.8126 0.02098 0.2088 0.0
C54 C 0.83189 0.98588 0.31634 0.0
H55 H 0.84455 0.97799 0.32291 0.0
H56 H 0.81802 0.97005 0.40853 0.0
H57 H 0.51505 0.77966 0.19824 0.0
C58 C 0.51879 0.76968 0.24436 0.0
C59 C 0.52072 0.75118 0.22141 0.0
C60 C 0.52091 0.77512 0.32585 0.0
H61 H 0.52507 0.72324 0.26219 0.0
C62 C 0.52438 0.73768 0.28005 0.0
C63 C 0.52563 0.74228 0.36212 0.0
C64 C 0.52409 0.76107 0.38509 0.0
C65 C 0.51855 0.79522 0.34783 0.0
H66 H 0.52539 0.76455 0.44859 0.0
C67 C 0.52251 0.80961 0.29132 0.0
C68 C 0.51868 0.82838 0.30927 0.0
C69 C 0.51125 0.80022 0.42382 0.0
H70 H 0.50754 0.78985 0.4683 0.0
C71 C 0.50793 0.81873 0.4428 0.0
H72 H 0.52868 0.80633 0.23331 0.0
C73 C 0.51145 0.83265 0.38617 0.0
H74 H 0.50801 0.84676 0.40218 0.0
H75 H 0.50215 0.82228 0.50131 0.0
H76 H 0.28389 0.53508 0.17401 0.0
C77 C 0.27248 0.53243 0.1332 0.0
C78 C 0.25489 0.53828 0.1569 0.0
C79 C 0.27531 0.52365 0.05787 0.0
H80 H 0.22621 0.54004 0.12493 0.0
C81 C 0.23988 0.53594 0.1045 0.0
C82 C 0.24187 0.52741 0.02886 0.0
C83 C 0.25966 0.52091 0.00623 0.0
C84 C 0.29474 0.51837 0.0333 0.0
H85 H 0.26121 0.51393 0.94865 0.0
C86 C 0.30873 0.51469 0.09198 0.0
C87 C 0.3275 0.51221 0.06948 0.0
C88 C 0.29991 0.51841 0.95106 0.0
H89 H 0.28998 0.52152 0.90395 0.0
C90 C 0.31825 0.51523 0.92813 0.0
H91 H 0.30514 0.51376 0.15549 0.0
C92 C 0.33194 0.51239 0.98645 0.0
H93 H 0.34612 0.51086 0.96617 0.0
H94 H 0.32199 0.51554 0.86458 0.0
H95 H 1.00376 0.28042 0.16201 0.0
C96 C 1.00588 0.26951 0.1183 0.0
C97 C 1.0014 0.25154 0.14232 0.0
C98 C 1.0126 0.27324 0.03948 0.0
H99 H 0.99958 0.22302 0.10677 0.0
C100 C 1.00281 0.23698 0.08699 0.0
C101 C 1.00926 0.23989 0.00811 0.0
C102 C 1.01464 0.25799 0.98499 0.0
C103 C 1.01664 0.29301 0.01462 0.0
H104 H 0.02021 0.25999 0.92476 0.0
C105 C 0.01995 0.30722 0.07284 0.0
C106 C 0.02158 0.32602 0.0498 0.0
C107 C 1.01602 0.29819 0.93231 0.0
H108 H 1.01305 0.28824 0.88522 0.0
C109 C 0.01862 0.31657 0.9089 0.0
H110 H 0.02086 0.30393 0.13653 0.0
C111 C 0.02125 0.33036 0.96678 0.0
H112 H 0.02298 0.3445 0.94627 0.0
H113 H 0.01816 0.32023 0.84529 0.0
H114 H 0.25407 0.02423 0.18376 0.0
C115 C 0.26462 0.02543 0.13738 0.0
C116 C 0.28231 0.03094 0.16136 0.0
C117 C 0.26089 0.02052 0.05621 0.0
H118 H 0.31068 0.0344 0.1254 0.0
C119 C 0.2968 0.03094 0.10508 0.0
C120 C 0.29414 0.02488 0.02532 0.0
C121 C 0.27597 0.02037 -3e-05 0.0
C122 C 0.24171 1.01386 0.0344 0.0
H123 H 0.27388 0.01611 0.93783 0.0
C124 C 0.22591 0.0194 0.07996 0.0
C125 C 0.20835 1.01115 0.06793 0.0
C126 C 0.23915 1.00071 0.97257 0.0
H127 H 0.25067 0.99563 0.93712 0.0
C128 C 0.22167 0.99316 0.95762 0.0
H129 H 0.22721 0.03006 0.12556 0.0
C130 C 0.20648 0.9981 0.00529 0.0
H131 H 0.19341 0.99118 0.99448 0.0
H132 H 0.22002 0.9829 0.91041 0.0
H133 H 0.52981 0.24871 0.18387 0.0
C134 C 0.52778 0.2592 0.13791 0.0
C135 C 0.53038 0.27767 0.16008 0.0
C136 C 0.52356 0.25436 0.05716 0.0
H137 H 0.53106 0.30595 0.11942 0.0
C138 C 0.52901 0.29164 0.10167 0.0
C139 C 0.52463 0.28757 0.0212 0.0
C140 C 0.52156 0.26891 -0.00088 0.0
C141 C 0.52275 0.23418 0.03373 0.0
H142 H 0.51799 0.26587 0.93687 0.0
C143 C 0.51841 0.22006 0.09113 0.0
C144 C 0.52001 0.20105 0.07142 0.0
C145 C 0.52788 0.22869 0.95502 0.0
H146 H 0.53183 0.23872 0.90949 0.0
C147 C 0.52886 0.21001 0.93436 0.0
H148 H 0.51377 0.22376 0.15131 0.0
C149 C 0.5252 0.19634 0.99186 0.0
H150 H 0.527 0.18204 0.97417 0.0
H151 H 0.53306 0.20609 0.87376 0.0
Pr152 Pr 0.02879 1.00732 0.75874 0.0
Pr153 Pr 1.01208 0.01797 0.57425 0.0
C154 C 0.03135 0.99473 0.91074 0.0
C155 C 0.02421 0.97723 0.94232 0.0
C156 C 0.03434 0.96753 0.00083 0.0
C157 C 0.03148 0.94855 0.011 0.0
C158 C 0.01863 0.93919 0.9619 0.0
C159 C 1.00731 0.9493 0.90901 0.0
C160 C 1.01006 0.96822 0.89934 0.0
C161 C 0.05701 1.0133 0.6431 0.0
C162 C 0.01829 0.97352 0.62138 0.0
C163 C 1.01051 0.03326 0.42723 0.0
C164 C 1.00602 0.05266 0.40811 0.0
C165 C 0.98967 0.06072 0.43828 0.0
C166 C 0.98791 0.07993 0.442 0.0
C167 C 1.00255 0.09132 0.4166 0.0
C168 C 0.01832 0.08333 0.38125 0.0
C169 C 0.01997 0.06413 0.3764 0.0
C170 C 0.98341 1.01371 0.68917 0.0
C171 C 0.02083 0.05179 0.71384 0.0
O172 O 0.01896 1.00699 0.8891 0.0
O173 O 0.04458 0.9926 0.85723 0.0
O174 O 0.03974 1.01329 0.63399 0.0
O175 O 0.0605 1.01063 0.71955 0.0
O176 O 1.01638 0.98587 0.56214 0.0
O177 O 0.02101 0.97833 0.69855 0.0
O178 O 0.02608 0.03126 0.46693 0.0
O179 O 0.99705 0.02286 0.45562 0.0
O180 O 1.00064 1.01199 0.70008 0.0
O181 O 0.98044 0.01772 0.61332 0.0
O182 O 0.02528 0.0395 0.77049 0.0
O183 O 1.01641 0.04705 0.63833 0.0
H184 H 0.0455 0.97425 0.03345 0.0
H185 H 0.04042 0.94095 0.05188 0.0
H186 H 0.99724 0.94233 0.87102 0.0
H187 H 1.00227 0.97541 0.85296 0.0
H188 H 0.97873 0.05228 0.46408 0.0
H189 H 0.97562 0.08584 0.46937 0.0
H190 H 0.02965 0.09193 0.36014 0.0
H191 H 0.03274 0.05824 0.35347 0.0
Pr192 Pr 0.526 0.02292 0.77522 0.0
Pr193 Pr 0.51627 1.00459 0.59516 0.0
C194 C 0.539 0.02846 0.9245 0.0
C195 C 0.55706 0.03651 0.94457 0.0
C196 C 0.5647 0.05 0.89271 0.0
C197 C 0.58387 0.05214 0.8872 0.0
C198 C 0.59551 0.04072 0.93294 0.0
C199 C 0.58783 0.02883 0.9915 0.0
C200 C 0.56867 0.0268 -0.00244 0.0
C201 C 0.52192 0.05074 0.65626 0.0
C202 C 0.56072 1.01294 0.642 0.0
C203 C 0.50375 1.00041 0.44366 0.0
C204 C 0.48511 1.00492 0.41248 0.0
C205 C 0.47158 0.99094 0.40958 0.0
C206 C 0.45286 0.99553 0.40628 0.0
C207 C 0.44739 1.01414 0.40419 0.0
C208 C 0.46089 0.02803 0.39765 0.0
C209 C 0.47965 0.02346 0.40172 0.0
C210 C 0.52022 0.97696 0.71546 0.0
C211 C 0.48193 1.01515 0.72655 0.0
O212 O 0.54039 1.01255 0.88717 0.0
O213 O 0.52675 0.03957 0.89164 0.0
O214 O 0.52034 0.03345 0.64747 0.0
O215 O 0.5258 0.05418 0.73159 0.0
O216 O 0.54861 1.00781 0.58566 0.0
O217 O 0.55565 0.01818 0.71611 0.0
O218 O 0.51429 1.01436 0.46487 0.0
O219 O 0.50421 0.98682 0.49609 0.0
O220 O 0.52165 0.99425 0.72327 0.0
O221 O 0.51719 0.9733 0.63954 0.0
O222 O 0.49411 0.01682 0.78642 0.0
O223 O 0.48703 1.01304 0.64959 0.0
H224 H 0.55605 0.05749 0.85031 0.0
H225 H 0.58955 0.06137 0.8417 0.0
H226 H 0.59668 0.02005 0.02799 0.0
H227 H 0.56307 0.0162 0.03716 0.0
H228 H 0.47537 0.97651 0.41623 0.0
H229 H 0.44262 0.98456 0.40896 0.0
H230 H 0.45694 0.04247 0.3947 0.0
H231 H 0.48973 0.03455 0.4019 0.0
Pr232 Pr 0.50752 0.51844 0.76329 0.0
Pr233 Pr 0.52542 0.50911 0.57993 0.0
C234 C 0.50519 0.53175 0.91378 0.0
C235 C 0.50684 0.55128 0.93719 0.0
C236 C 0.49246 0.55975 0.98052 0.0
C237 C 0.49124 0.57902 0.98343 0.0
C238 C 0.50438 0.59006 0.94281 0.0
C239 C 0.51951 0.58153 0.90468 0.0
C240 C 0.52072 0.56233 0.90175 0.0
C241 C 0.47957 0.51465 0.64518 0.0
C242 C 0.51742 0.55314 0.62883 0.0
C243 C 0.52957 0.49441 0.43292 0.0
C244 C 0.53363 0.47477 0.4168 0.0
C245 C 0.54914 0.46632 0.45282 0.0
C246 C 0.54983 0.44714 0.4619 0.0
C247 C 0.53498 0.43614 0.43578 0.0
C248 C 0.52029 0.4444 0.3934 0.0
C249 C 0.51969 0.46356 0.38343 0.0
C250 C 0.55303 0.51341 0.69938 0.0
C251 C 0.51579 0.4743 0.71514 0.0
O252 O 0.52027 0.52395 0.88596 0.0
O253 O 0.49048 0.5279 0.87059 0.0
O254 O 0.49687 0.51312 0.63579 0.0
O255 O 0.47613 0.51805 0.72115 0.0
O256 O 0.52047 0.54117 0.56906 0.0
O257 O 0.51412 0.54783 0.70492 0.0
O258 O 0.51328 0.49727 0.46537 0.0
O259 O 0.54273 0.50418 0.4672 0.0
O260 O 0.53569 0.5141 0.70698 0.0
O261 O 0.5569 0.51074 0.62328 0.0
O262 O 0.51074 0.4862 0.77242 0.0
O263 O 0.5209 0.47957 0.64094 0.0
H264 H 0.48156 0.55148 0.00769 0.0
H265 H 0.47966 0.58527 0.01497 0.0
H266 H 0.5298 0.58962 0.87245 0.0
H267 H 0.53186 0.55622 0.86685 0.0
H268 H 0.56009 0.47453 0.47971 0.0
H269 H 0.56135 0.44106 0.49445 0.0
H270 H 0.50886 0.43611 0.37115 0.0
H271 H 0.50757 0.46973 0.35569 0.0
Pr272 Pr 1.00937 0.50133 0.75363 0.0
Pr273 Pr 0.02187 0.519 0.58887 0.0
C274 C 0.99025 0.49393 0.88853 0.0
C275 C 0.97137 0.50026 0.90648 0.0
C276 C 0.95804 0.48762 0.93384 0.0
C277 C 0.93925 0.4922 0.93113 0.0
C278 C 0.93353 0.50947 0.90041 0.0
C279 C 0.94704 0.52251 0.878 0.0
C280 C 0.96576 0.51793 0.88075 0.0
C281 C 0.0196 0.47604 0.63378 0.0
C282 C 0.97708 0.51485 0.61508 0.0
C283 C 0.04062 0.52206 0.45025 0.0
C284 C 0.05987 0.52858 0.44093 0.0
C285 C 0.0659 0.54466 0.48129 0.0
C286 C 0.08481 0.54818 0.49115 0.0
C287 C 0.09794 0.53553 0.46209 0.0
C288 C 0.09196 0.52 0.41815 0.0
C289 C 0.07308 0.51662 0.40718 0.0
C290 C 0.01876 0.54768 0.70364 0.0
C291 C 0.05366 0.50914 0.73423 0.0
O292 O 1.00304 0.5068 0.88577 0.0
O293 O 0.9913 0.48222 0.82829 0.0
O294 O 1.01002 0.49047 0.62277 0.0
O295 O 0.02404 0.4741 0.70981 0.0
O296 O 0.99016 0.51731 0.5598 0.0
O297 O 0.98121 0.51083 0.69151 0.0
O298 O 0.0392 0.50637 0.4897 0.0
O299 O 0.02817 0.53433 0.47207 0.0
O300 O 1.01572 0.53071 0.71537 0.0
O301 O 0.02307 0.55044 0.62817 0.0
O302 O 0.04037 0.50623 0.78786 0.0
O303 O 0.0499 0.51211 0.65677 0.0
H304 H 0.96208 0.47386 0.95306 0.0
H305 H 0.92919 0.48202 0.95086 0.0
H306 H 0.94315 0.53585 0.85339 0.0
H307 H 0.97574 0.52785 0.8577 0.0
H308 H 0.05607 0.55397 0.50941 0.0
H309 H 0.08914 0.56023 0.52527 0.0
H310 H 0.1019 0.51018 0.3943 0.0
H311 H 0.06877 0.50404 0.37686 0.0
H312 H 0.20906 0.01796 0.2323 0.0
H313 H 0.18293 0.02122 0.3249 0.0
H314 H 0.14493 1.0151 0.1253 0.0
H315 H 0.17102 1.01298 0.03133 0.0
H316 H 0.13095 0.03899 0.22726 0.0
H317 H 0.15642 0.97824 0.25513 0.0
H318 H 0.18082 0.95494 0.27764 0.0
H319 H 0.19107 0.97715 0.51472 0.0
H320 H 0.16688 1.00075 0.49317 0.0
H321 H 0.05377 1.00964 0.47757 0.0
H322 H 0.07855 1.01207 0.37586 0.0
H323 H 0.11793 0.02386 0.56533 0.0
H324 H 0.0932 0.0218 0.66635 0.0
H325 H 0.13039 0.99706 0.46544 0.0
H326 H 0.10329 0.05756 0.43526 0.0
H327 H 0.0777 0.07942 0.41059 0.0
H328 H 0.06907 0.05596 0.17467 0.0
H329 H 0.09442 0.03373 0.19843 0.0
C330 C 0.1952 0.01774 0.20739 0.0
C331 C 0.19232 1.015 0.12378 0.0
C332 C 0.18018 0.01935 0.26092 0.0
C333 C 0.16183 0.01793 0.23281 0.0
C334 C 0.15888 0.01607 0.14904 0.0
C335 C 0.1739 1.01465 0.09528 0.0
C336 C 0.14583 0.01762 0.29093 0.0
C337 C 0.13077 0.02967 0.2788 0.0
C338 C 0.14547 1.00558 0.35891 0.0
C339 C 0.15997 0.99137 0.3722 0.0
C340 C 0.16397 0.97823 0.31184 0.0
C341 C 0.17774 0.96496 0.32446 0.0
C342 C 0.18752 0.9646 0.39748 0.0
C343 C 0.1835 0.97747 0.45814 0.0
C344 C 0.16975 0.99078 0.44578 0.0
C345 C 0.06758 1.01335 0.49706 0.0
C346 C 0.07142 1.01598 0.57975 0.0
C347 C 0.0818 1.01456 0.43899 0.0
C348 C 0.10017 0.01831 0.46265 0.0
C349 C 0.10393 0.02099 0.54531 0.0
C350 C 0.08975 0.01986 0.60305 0.0
C351 C 0.11568 0.01858 0.40244 0.0
C352 C 0.13061 1.00643 0.41401 0.0
C353 C 0.11576 0.03035 0.33367 0.0
C354 C 0.10065 0.04386 0.31894 0.0
C355 C 0.09585 0.05696 0.37835 0.0
C356 C 0.0814 0.06944 0.3645 0.0
C357 C 0.07176 0.06907 0.29115 0.0
C358 C 0.07655 0.05622 0.23147 0.0
C359 C 0.09097 0.04369 0.24507 0.0
H360 H 0.06058 0.07874 0.28053 0.0
H361 H 0.19818 0.95431 0.40714 0.0
H362 H 0.50516 0.16613 0.05083 0.0
H363 H 0.5046 0.14055 0.14686 0.0
H364 H 0.52742 0.17606 0.33151 0.0
H365 H 0.5292 0.20147 0.23392 0.0
H366 H 0.54465 0.14501 0.337 0.0
H367 H 0.47983 0.16006 0.32553 0.0
H368 H 0.4497 0.16581 0.25986 0.0
H369 H 0.44994 0.11078 0.16189 0.0
H370 H 0.48019 0.10478 0.22614 0.0
H371 H 0.52909 0.0873 0.67495 0.0
H372 H 0.52738 0.11201 0.57458 0.0
H373 H 0.50991 0.07265 0.39377 0.0
H374 H 0.51131 0.04782 0.49581 0.0
H375 H 0.49006 0.10454 0.38267 0.0
H376 H 0.55446 0.08935 0.39603 0.0
H377 H 0.58435 0.08335 0.46327 0.0
H378 H 0.58468 0.13864 0.55831 0.0
H379 H 0.55465 0.1449 0.49256 0.0
C380 C 0.51016 0.16858 0.11171 0.0
C381 C 0.51738 0.18603 0.13377 0.0
C382 C 0.50957 0.15389 0.16728 0.0
C383 C 0.51577 0.15624 0.24739 0.0
C384 C 0.52252 0.17376 0.27032 0.0
C385 C 0.52332 0.18843 0.21442 0.0
C386 C 0.51605 0.14028 0.30595 0.0
C387 C 0.53257 0.13639 0.34772 0.0
C388 C 0.50056 0.12846 0.3186 0.0
C389 C 0.48236 0.13204 0.28002 0.0
C390 C 0.47352 0.14924 0.2895 0.0
C391 C 0.45641 0.15253 0.25261 0.0
C392 C 0.44793 0.13869 0.20656 0.0
C393 C 0.45653 0.1215 0.19748 0.0
C394 C 0.47365 0.11814 0.23419 0.0
C395 C 0.52489 0.08383 0.61382 0.0
C396 C 0.52054 0.06544 0.59306 0.0
C397 C 0.524 0.09803 0.5562 0.0
C398 C 0.51885 0.09427 0.47579 0.0
C399 C 0.51407 0.07596 0.45512 0.0
C400 C 0.51498 0.0617 0.5132 0.0
C401 C 0.51854 0.10953 0.41415 0.0
C402 C 0.50208 0.11322 0.37176 0.0
C403 C 0.53407 0.1212 0.40087 0.0
C404 C 0.55222 0.11754 0.43987 0.0
C405 C 0.56084 0.10019 0.4317 0.0
C406 C 0.57782 0.09675 0.46949 0.0
C407 C 0.58639 0.1106 0.51517 0.0
C408 C 0.57802 0.12793 0.52296 0.0
C409 C 0.56103 0.13144 0.48536 0.0
H410 H 0.59953 0.1079 0.54441 0.0
H411 H 0.43469 0.14127 0.17806 0.0
H412 H 0.35943 0.49123 0.06245 0.0
H413 H 0.38544 0.49109 0.15651 0.0
H414 H 0.35603 0.52851 0.3141 0.0
H415 H 0.33036 0.52959 0.21783 0.0
H416 H 0.38997 0.53972 0.30228 0.0
H417 H 0.36271 0.48032 0.35602 0.0
H418 H 0.35064 0.44932 0.32249 0.0
H419 H 0.40385 0.43371 0.22823 0.0
H420 H 0.41618 0.46471 0.26026 0.0
H421 H 0.44541 0.5299 0.65309 0.0
H422 H 0.42043 0.52863 0.55361 0.0
H423 H 0.45495 0.49609 0.39507 0.0
H424 H 0.47992 0.49701 0.49626 0.0
H425 H 0.41962 0.48226 0.40304 0.0
H426 H 0.44697 0.54157 0.35402 0.0
H427 H 0.45894 0.57243 0.39048 0.0
H428 H 0.4052 0.58807 0.47859 0.0
H429 H 0.39296 0.5572 0.44372 0.0
C430 C 0.35843 0.49952 0.11687 0.0
C431 C 0.34263 0.51049 0.13175 0.0
C432 C 0.37333 0.49923 0.17146 0.0
C433 C 0.37279 0.50963 0.24345 0.0
C434 C 0.3569 0.52032 0.25927 0.0
C435 C 0.34205 0.52074 0.20435 0.0
C436 C 0.38898 0.50993 0.30062 0.0
C437 C 0.39623 0.52711 0.32508 0.0
C438 C 0.39769 0.49355 0.32902 0.0
C439 C 0.39031 0.4749 0.3098 0.0
C440 C 0.3718 0.47032 0.32758 0.0
C441 C 0.36492 0.45274 0.30894 0.0
C442 C 0.37646 0.43957 0.27305 0.0
C443 C 0.39492 0.44393 0.25592 0.0
C444 C 0.40186 0.4615 0.27437 0.0
C445 C 0.44776 0.52254 0.59686 0.0
C446 C 0.46489 0.51391 0.58181 0.0
C447 C 0.43345 0.52189 0.53973 0.0
C448 C 0.43581 0.51254 0.46583 0.0
C449 C 0.4528 0.50358 0.45112 0.0
C450 C 0.46721 0.50433 0.50845 0.0
C451 C 0.42039 0.51202 0.40511 0.0
C452 C 0.41333 0.49483 0.37997 0.0
C453 C 0.41179 0.52838 0.37628 0.0
C454 C 0.41909 0.54701 0.39685 0.0
C455 C 0.43773 0.55154 0.38171 0.0
C456 C 0.44457 0.56905 0.402 0.0
C457 C 0.43285 0.58219 0.43698 0.0
C458 C 0.41426 0.57787 0.45155 0.0
C459 C 0.40737 0.56038 0.43145 0.0
H460 H 0.43816 0.59573 0.45265 0.0
H461 H 0.37111 0.42597 0.25867 0.0
H462 H 0.04064 0.32672 0.19554 0.0
H463 H 0.04196 0.35186 0.29506 0.0
H464 H 1.00654 0.38512 0.14361 0.0
H465 H 1.00489 0.3601 0.04492 0.0
H466 H 0.03477 0.40563 0.20083 0.0
H467 H 0.99004 0.36314 0.31356 0.0
H468 H 0.97901 0.33287 0.36337 0.0
H469 H 0.02158 0.33266 0.54497 0.0
H470 H 0.03302 0.36282 0.49544 0.0
H471 H 1.00588 0.47496 0.47905 0.0
H472 H 1.00785 0.44952 0.38151 0.0
H473 H 0.04038 0.41795 0.55155 0.0
H474 H 0.03804 0.4432 0.64999 0.0
H475 H 1.01549 0.39619 0.48655 0.0
H476 H 0.05974 0.43889 0.37935 0.0
H477 H 0.07109 0.46918 0.3315 0.0
H478 H 0.03056 0.46901 0.14122 0.0
H479 H 0.01879 0.4388 0.18861 0.0
C480 C 0.03299 0.33931 0.1836 0.0
C481 C 0.02271 0.34127 0.11153 0.0
C482 C 0.03381 0.35374 0.24062 0.0
C483 C 0.02429 0.37046 0.2273 0.0
C484 C 1.01413 0.37247 0.15534 0.0
C485 C 1.01327 0.3581 0.09859 0.0
C486 C 0.02468 0.38585 0.28812 0.0
C487 C 0.03039 0.40359 0.26311 0.0
C488 C 0.01943 0.38321 0.37015 0.0
C489 C 1.01251 0.36513 0.40021 0.0
C490 C 0.99714 0.35657 0.3637 0.0
C491 C 0.9908 0.33944 0.39194 0.0
C492 C 0.99962 0.33082 0.45713 0.0
C493 C 1.01478 0.33933 0.49437 0.0
C494 C 0.02119 0.35645 0.46627 0.0
C495 C 1.01356 0.46265 0.49544 0.0
C496 C 0.02182 0.46113 0.57232 0.0
C497 C 1.01475 0.44809 0.43941 0.0
C498 C 0.02444 0.43175 0.4584 0.0
C499 C 0.03281 0.43032 0.53509 0.0
C500 C 0.03154 0.44483 0.59129 0.0
C501 C 0.02547 0.41604 0.39921 0.0
C502 C 0.02001 0.39825 0.42445 0.0
C503 C 0.03106 0.4186 0.31751 0.0
C504 C 0.03828 0.43664 0.28799 0.0
C505 C 0.05317 0.44536 0.3276 0.0
C506 C 0.05968 0.46252 0.30054 0.0
C507 C 0.05151 0.47105 0.23353 0.0
C508 C 0.03686 0.4624 0.1932 0.0
C509 C 0.03027 0.44524 0.22007 0.0
H510 H 0.05656 0.48435 0.21276 0.0
H511 H 0.9947 0.31756 0.47892 0.0
H512 H 0.82972 1.00844 0.09531 0.0
H513 H 0.85591 1.01197 0.00246 0.0
H514 H 0.89389 1.00316 0.20022 0.0
H515 H 0.8678 1.00041 0.29404 0.0
H516 H 0.90753 0.02886 0.10273 0.0
H517 H 0.88231 0.96807 0.06465 0.0
H518 H 0.8579 0.94501 0.03719 0.0
H519 H 0.84829 0.96935 0.80349 0.0
H520 H 0.87249 0.99272 0.83003 0.0
H521 H 0.98604 1.00653 0.85327 0.0
H522 H 0.96079 1.00493 0.95275 0.0
H523 H 0.92129 1.01599 0.76293 0.0
H524 H 0.94646 0.01748 0.66408 0.0
H525 H 0.90899 0.98878 0.8589 0.0
H526 H 0.93457 0.04959 0.8979 0.0
H527 H 0.95946 0.07213 0.92551 0.0
H528 H 0.9689 0.04718 0.15813 0.0
H529 H 0.94425 0.02429 0.13133 0.0
C530 C 0.84363 1.00761 0.11958 0.0
C531 C 0.84652 1.00397 0.2025 0.0
C532 C 0.85865 1.00941 0.06602 0.0
C533 C 0.87699 1.00744 0.09366 0.0
C534 C 0.87995 1.0046 0.1769 0.0
C535 C 0.86494 1.00287 0.23053 0.0
C536 C 0.89302 1.00778 0.03571 0.0
C537 C 0.90792 0.01992 0.04999 0.0
C538 C 0.89359 0.99633 0.96595 0.0
C539 C 0.87909 0.98225 0.94967 0.0
C540 C 0.8749 0.96858 0.00765 0.0
C541 C 0.86112 0.95545 0.99221 0.0
C542 C 0.85152 0.95575 0.91873 0.0
C543 C 0.85572 0.96916 0.86043 0.0
C544 C 0.86948 0.98234 0.87561 0.0
C545 C 0.97204 1.00862 0.83297 0.0
C546 C 0.96838 1.0122 0.75086 0.0
C547 C 0.95754 1.00777 0.88989 0.0
C548 C 0.93904 1.01053 0.86577 0.0
C549 C 0.93538 1.01382 0.78343 0.0
C550 C 0.94984 1.01471 0.72687 0.0
C551 C 0.92341 1.00995 0.92555 0.0
C552 C 0.9086 0.99772 0.91167 0.0
C553 C 0.92299 0.02126 -0.0043 0.0
C554 C 0.9377 0.03511 0.01224 0.0
C555 C 0.94205 0.04882 0.95468 0.0
C556 C 0.9561 0.06167 0.97021 0.0
C557 C 0.96579 0.06106 0.04343 0.0
C558 C 0.9614 0.04762 0.10137 0.0
C559 C 0.94739 0.03471 0.08606 0.0
H560 H 0.97666 0.07101 0.05535 0.0
H561 H 0.84085 0.94556 0.90689 0.0
H562 H 0.51198 0.82734 0.14475 0.0
H563 H 0.51396 0.85276 0.04702 0.0
H564 H 0.53285 0.88937 0.23584 0.0
H565 H 0.53117 0.864 0.33361 0.0
H566 H 0.5061 0.90572 0.14761 0.0
H567 H 0.56255 0.8732 0.08905 0.0
H568 H 0.58162 0.84604 0.0544 0.0
H569 H 0.5517 0.83951 0.83143 0.0
H570 H 0.53229 0.86649 0.86527 0.0
H571 H 0.52676 0.98102 0.87988 0.0
H572 H 0.52866 0.95658 0.98269 0.0
H573 H 0.51662 0.91572 0.79953 0.0
H574 H 0.51584 0.93995 0.69683 0.0
H575 H 0.54125 0.90205 0.8898 0.0
H576 H 0.48384 0.93321 0.94836 0.0
H577 H 0.46389 0.95981 0.98204 0.0
H578 H 0.49411 0.96826 0.20297 0.0
H579 H 0.51444 0.94188 0.16995 0.0
C580 C 0.5169 0.84068 0.1654 0.0
C581 C 0.52137 0.84349 0.24761 0.0
C582 C 0.51795 0.85529 0.10929 0.0
C583 C 0.5236 0.87309 0.13365 0.0
C584 C 0.52833 0.87586 0.21531 0.0
C585 C 0.52732 0.86128 0.27135 0.0
C586 C 0.52419 0.8889 0.07466 0.0
C587 C 0.514 0.90501 0.09171 0.0
C588 C 0.53413 0.88795 0.0007 0.0
C589 C 0.54586 0.87177 0.98007 0.0
C590 C 0.55995 0.86589 0.03292 0.0
C591 C 0.57083 0.85054 0.01337 0.0
C592 C 0.56784 0.84103 0.94086 0.0
C593 C 0.55399 0.84688 0.88762 0.0
C594 C 0.54306 0.86221 0.90692 0.0
C595 C 0.5248 0.96684 0.86154 0.0
C596 C 0.52137 0.96251 0.77992 0.0
C597 C 0.52563 0.9528 0.92063 0.0
C598 C 0.52255 0.93412 0.89974 0.0
C599 C 0.51913 0.92988 0.81796 0.0
C600 C 0.51861 0.94383 0.75904 0.0
C601 C 0.52292 0.91888 0.96192 0.0
C602 C 0.53334 0.90285 0.94563 0.0
C603 C 0.51302 0.91985 0.03623 0.0
C604 C 0.50079 0.93569 0.05622 0.0
C605 C 0.48632 0.94082 0.00381 0.0
C606 C 0.47494 0.95585 0.02282 0.0
C607 C 0.47777 0.96575 0.09448 0.0
C608 C 0.49196 0.96061 0.14739 0.0
C609 C 0.50342 0.94562 0.12856 0.0
H610 H 0.46893 0.97737 0.1091 0.0
H611 H 0.57629 0.82914 0.92584 0.0
H612 H 0.6673 0.50716 0.30713 0.0
H613 H 0.64215 0.50578 0.2094 0.0
H614 H 0.67657 0.53298 0.03158 0.0
H615 H 0.7015 0.53556 0.13127 0.0
H616 H 0.64414 0.54737 0.02347 0.0
H617 H 0.66484 0.4846 0.02769 0.0
H618 H 0.67343 0.45456 0.08771 0.0
H619 H 0.61841 0.44835 0.18343 0.0
H620 H 0.60956 0.47849 0.12494 0.0
H621 H 0.58837 0.52536 0.68034 0.0
H622 H 0.61288 0.52741 0.78219 0.0
H623 H 0.57481 0.50802 0.96523 0.0
H624 H 0.55024 0.50569 0.86244 0.0
H625 H 0.60839 0.48994 0.97176 0.0
H626 H 0.58799 0.55313 0.95891 0.0
H627 H 0.58021 0.58253 0.89099 0.0
H628 H 0.63601 0.58709 0.80255 0.0
H629 H 0.64405 0.55756 0.86869 0.0
C630 C 0.6696 0.513 0.2475 0.0
C631 C 0.68659 0.52161 0.22797 0.0
C632 C 0.65517 0.51194 0.19089 0.0
C633 C 0.65735 0.51905 0.11208 0.0
C634 C 0.67441 0.52734 0.09171 0.0
C635 C 0.68882 0.5286 0.14875 0.0
C636 C 0.64168 0.51838 0.05215 0.0
C637 C 0.63654 0.53471 0.0115 0.0
C638 C 0.6313 0.50202 0.03717 0.0
C639 C 0.6366 0.48391 0.07264 0.0
C640 C 0.65462 0.47691 0.06212 0.0
C641 C 0.65952 0.45984 0.09577 0.0
C642 C 0.64649 0.44958 0.13956 0.0
C643 C 0.62851 0.45633 0.14962 0.0
C644 C 0.62353 0.4734 0.11619 0.0
C645 C 0.58515 0.52174 0.74251 0.0
C646 C 0.56723 0.51578 0.76376 0.0
C647 C 0.59918 0.52296 0.80083 0.0
C648 C 0.59572 0.51812 0.88195 0.0
C649 C 0.57782 0.51202 0.90332 0.0
C650 C 0.56369 0.51095 0.84484 0.0
C651 C 0.61098 0.51888 0.94332 0.0
C652 C 0.61601 0.50257 0.98411 0.0
C653 C 0.6214 0.53519 0.95761 0.0
C654 C 0.61658 0.55304 0.91827 0.0
C655 C 0.59857 0.56032 0.92446 0.0
C656 C 0.59412 0.57703 0.88634 0.0
C657 C 0.60761 0.58665 0.84241 0.0
C658 C 0.62558 0.57961 0.83657 0.0
C659 C 0.63009 0.5629 0.8744 0.0
H660 H 0.60418 0.59958 0.81301 0.0
H661 H 0.65032 0.43637 0.16553 0.0
H662 H 1.01367 0.70142 0.10592 0.0
H663 H 0.01775 0.67504 0.01501 0.0
H664 H 1.00514 0.63764 0.21127 0.0
H665 H 1.00174 0.66392 0.30332 0.0
H666 H 0.03205 0.62333 0.11976 0.0
H667 H 0.97222 0.6498 0.06794 0.0
H668 H 0.95019 0.67471 0.03466 0.0
H669 H 0.97756 0.68344 0.80652 0.0
H670 H 0.99992 0.65873 0.83895 0.0
H671 H 1.01067 0.54498 0.86681 0.0
H672 H 1.00891 0.57031 0.96601 0.0
H673 H 0.02223 0.60961 0.77778 0.0
H674 H 0.02385 0.58451 0.6791 0.0
H675 H 0.99457 0.62239 0.86803 0.0
H676 H 0.05437 0.59585 0.91924 0.0
H677 H 0.07626 0.57074 0.95171 0.0
H678 H 0.04896 0.56194 0.17993 0.0
H679 H 0.02671 0.58681 0.14825 0.0
C680 C 1.01212 0.6876 0.13038 0.0
C681 C 1.00721 0.68494 0.21226 0.0
C682 C 1.01425 0.67246 0.07788 0.0
C683 C 1.01139 0.65424 0.10551 0.0
C684 C 1.0073 0.6515 0.18795 0.0
C685 C 1.0052 0.66661 0.24052 0.0
C686 C 1.01202 0.63815 0.04814 0.0
C687 C 0.02368 0.62305 0.06525 0.0
C688 C 1.00134 0.63774 0.97605 0.0
C689 C 0.98785 0.65254 0.95623 0.0
C690 C 0.97362 0.65712 0.01093 0.0
C691 C 0.96106 0.67119 0.99218 0.0
C692 C 0.9625 0.68068 0.91862 0.0
C693 C 0.97648 0.67609 0.86354 0.0
C694 C 0.98909 0.66204 0.88204 0.0
C695 C 1.0132 0.55902 0.84677 0.0
C696 C 0.0174 0.56271 0.76505 0.0
C697 C 1.01228 0.57351 0.90357 0.0
C698 C 1.01558 0.59197 0.87981 0.0
C699 C 0.0196 0.59558 0.79798 0.0
C700 C 0.02056 0.58116 0.74151 0.0
C701 C 1.01471 0.60763 0.93923 0.0
C702 C 1.00295 0.62265 0.92256 0.0
C703 C 0.0253 0.60793 0.01155 0.0
C704 C 0.03874 0.59306 0.03098 0.0
C705 C 0.05294 0.58846 0.97607 0.0
C706 C 0.06543 0.57429 0.99435 0.0
C707 C 0.06397 0.56472 0.06772 0.0
C708 C 0.05005 0.56934 0.12305 0.0
C709 C 0.0375 0.58348 0.10498 0.0
H710 H 0.07364 0.55375 0.08177 0.0
H711 H 0.95276 0.69157 0.90421 0.0
H712 H 0.97091 0.23406 0.20134 0.0
H713 H 0.97066 0.21522 0.32344 0.0
H714 H 0.02286 0.23916 0.39631 0.0
H715 H 0.0231 0.25805 0.27325 0.0
H716 H 0.02657 0.20447 0.35015 0.0
H717 H 0.98858 0.23379 0.53964 0.0
H718 H 0.96238 0.25172 0.59418 0.0
H719 H 0.92463 0.20885 0.522 0.0
H720 H 0.95052 0.19077 0.46579 0.0
H721 H 0.02832 0.11242 0.49304 0.0
H722 H 0.02811 0.1461 0.51066 0.0
H723 H 0.97517 0.14895 0.39003 0.0
H724 H 0.97508 0.11524 0.37468 0.0
H725 H 0.97789 0.17428 0.51629 0.0
H726 H 1.01377 0.15348 0.28282 0.0
H727 H 0.03882 0.13611 0.21545 0.0
H728 H 0.07926 0.16432 0.36082 0.0
H729 H 0.05438 0.18163 0.43009 0.0
C730 C 0.98177 0.23606 0.24581 0.0
C731 C 0.99721 0.2471 0.22759 0.0
C732 C 0.98158 0.22539 0.31614 0.0
C733 C 0.99692 0.22555 0.3685 0.0
C734 C 1.01093 0.2388 0.35659 0.0
C735 C 1.01106 0.24958 0.28626 0.0
C736 C 1.00089 0.2085 0.41506 0.0
C737 C 1.01631 0.19816 0.38968 0.0
C738 C 0.98736 0.2001 0.46506 0.0
C739 C 0.97158 0.21089 0.49842 0.0
C740 C 0.97469 0.22822 0.53486 0.0
C741 C 0.95987 0.23841 0.56618 0.0
C742 C 0.94185 0.23142 0.56159 0.0
C743 C 0.9386 0.21423 0.52567 0.0
C744 C 0.95337 0.20397 0.49425 0.0
C745 C 1.01659 0.12029 0.47098 0.0
C746 C 1.00186 0.11142 0.4312 0.0
C747 C 1.01642 0.13943 0.48165 0.0
C748 C 1.00168 0.14997 0.45119 0.0
C749 C 0.98661 0.14102 0.41442 0.0
C750 C 0.98662 0.12184 0.4051 0.0
C751 C 1.00293 0.17034 0.4475 0.0
C752 C 0.98857 0.18102 0.48069 0.0
C753 C 0.01728 0.17912 0.40354 0.0
C754 C 0.03222 0.16859 0.36261 0.0
C755 C 0.02799 0.1558 0.30111 0.0
C756 C 0.04215 0.14598 0.26257 0.0
C757 C 0.06062 0.14904 0.28417 0.0
C758 C 0.06495 0.16192 0.34438 0.0
C759 C 0.05083 0.17171 0.38341 0.0
H760 H 0.07157 0.14149 0.25396 0.0
H761 H 0.9304 0.23934 0.58587 0.0
H762 H 0.27967 1.00517 0.27971 0.0
H763 H 0.30124 1.00342 0.39315 0.0
H764 H 0.31798 0.05981 0.34925 0.0
H765 H 0.29677 0.06144 0.23449 0.0
H766 H 0.33464 1.01142 0.29335 0.0
H767 H 0.34476 0.06839 0.54581 0.0
H768 H 0.3275 0.08133 0.66162 0.0
H769 H 0.29196 0.03365 0.66498 0.0
H770 H 0.30907 0.02033 0.54977 0.0
H771 H 0.42674 0.03721 0.30995 0.0
H772 H 0.39324 0.04247 0.31919 0.0
H773 H 0.39046 1.00733 0.53043 0.0
H774 H 0.42392 1.00204 0.52153 0.0
H775 H 0.36537 0.04034 0.53034 0.0
H776 H 0.38284 0.98612 0.37436 0.0
H777 H 0.40138 0.97025 0.26981 0.0
H778 H 0.38028 1.0072 0.08836 0.0
H779 H 0.36177 0.02346 0.19195 0.0
C780 C 0.28702 0.01759 0.29776 0.0
C781 C 0.28701 0.03329 0.24766 0.0
C782 C 0.29926 0.01661 0.36308 0.0
C783 C 0.31143 0.03137 0.37841 0.0
C784 C 0.30868 0.04828 0.33842 0.0
C785 C 0.29666 0.04918 0.27233 0.0
C786 C 0.33052 0.02704 0.40335 0.0
C787 C 0.34124 0.01741 0.34633 0.0
C788 C 0.33908 0.03497 0.47197 0.0
C789 C 0.32808 0.04347 0.53821 0.0
C790 C 0.33322 0.06069 0.57096 0.0
C791 C 0.32346 0.06809 0.63664 0.0
C792 C 0.30859 0.05836 0.67042 0.0
C793 C 0.30339 0.04124 0.63839 0.0
C794 C 0.31306 0.03381 0.57257 0.0
C795 C 0.419 0.03094 0.35917 0.0
C796 C 0.4277 0.01894 0.41399 0.0
C797 C 0.39998 0.03402 0.36471 0.0
C798 C 0.38951 0.02523 0.4254 0.0
C799 C 0.39838 1.01428 0.48357 0.0
C800 C 0.41737 1.01106 0.47762 0.0
C801 C 0.36917 0.02505 0.41975 0.0
C802 C 0.35849 0.03403 0.47893 0.0
C803 C 0.36041 0.01619 0.354 0.0
C804 C 0.37106 1.00609 0.29104 0.0
C805 C 0.38223 0.99092 0.31221 0.0
C806 C 0.39271 0.98185 0.25309 0.0
C807 C 0.39202 0.98774 0.17246 0.0
C808 C 0.38078 1.00266 0.15076 0.0
C809 C 0.37027 1.01179 0.20963 0.0
H810 H 0.40018 0.98074 0.12677 0.0
H811 H 0.30114 0.06405 0.7216 0.0
H812 H 0.50825 0.27138 0.29086 0.0
H813 H 0.50821 0.29008 0.4148 0.0
H814 H 0.5598 0.31527 0.34125 0.0
H815 H 0.55989 0.2966 0.21842 0.0
H816 H 0.55398 0.31784 0.50951 0.0
H817 H 0.52093 0.3299 0.2497 0.0
H818 H 0.49803 0.32123 0.14531 0.0
H819 H 0.45581 0.31678 0.32805 0.0
H820 H 0.47852 0.32537 0.43338 0.0
H821 H 0.5622 0.41037 0.41821 0.0
H822 H 0.55993 0.37718 0.44394 0.0
H823 H 0.50398 0.38428 0.53164 0.0
H824 H 0.5061 0.4175 0.50382 0.0
H825 H 0.50428 0.36039 0.41885 0.0
H826 H 0.53877 0.36837 0.64989 0.0
H827 H 0.56241 0.37835 0.74749 0.0
H828 H 0.60371 0.34752 0.61782 0.0
H829 H 0.58029 0.33744 0.51904 0.0
C830 C 0.52006 0.28017 0.30367 0.0
C831 C 0.53387 0.28298 0.24491 0.0
C832 C 0.52005 0.29081 0.37447 0.0
C833 C 0.53377 0.30436 0.38604 0.0
C834 C 0.54904 0.30496 0.3334 0.0
C835 C 0.54903 0.29441 0.26283 0.0
C836 C 0.52988 0.32109 0.43465 0.0
C837 C 0.5431 0.32724 0.49089 0.0
C838 C 0.51513 0.33294 0.41248 0.0
C839 C 0.50145 0.3279 0.34941 0.0
C840 C 0.50678 0.32695 0.26753 0.0
C841 C 0.49385 0.32208 0.20824 0.0
C842 C 0.47551 0.31833 0.23012 0.0
C843 C 0.47005 0.31957 0.31127 0.0
C844 C 0.48294 0.32443 0.3708 0.0
C845 C 0.54955 0.40485 0.44415 0.0
C846 C 0.5342 0.41633 0.45735 0.0
C847 C 0.54831 0.38593 0.4599 0.0
C848 C 0.53182 0.37824 0.49044 0.0
C849 C 0.51682 0.38991 0.508 0.0
C850 C 0.51797 0.4088 0.49118 0.0
C851 C 0.5293 0.3579 0.48939 0.0
C852 C 0.51479 0.35102 0.44173 0.0
C853 C 0.54304 0.34564 0.51896 0.0
C854 C 0.55753 0.35192 0.57725 0.0
C855 C 0.55284 0.36367 0.64209 0.0
C856 C 0.56625 0.36938 0.69771 0.0
C857 C 0.58456 0.36352 0.68907 0.0
C858 C 0.58948 0.35197 0.62469 0.0
C859 C 0.57608 0.34618 0.569 0.0
H860 H 0.59495 0.36796 0.73212 0.0
H861 H 0.46551 0.31456 0.18416 0.0
H862 H 0.26358 0.52084 0.29769 0.0
H863 H 0.24527 0.52348 0.42175 0.0
H864 H 0.21839 0.57201 0.32555 0.0
H865 H 0.23696 0.56968 0.20265 0.0
H866 H 0.2149 0.56921 0.49678 0.0
H867 H 0.20171 0.53126 0.24696 0.0
H868 H 0.21118 0.50766 0.14682 0.0
H869 H 0.22474 0.47012 0.33963 0.0
H870 H 0.21509 0.49344 0.44073 0.0
H871 H 0.11933 0.56586 0.432 0.0
H872 H 0.15294 0.56835 0.44582 0.0
H873 H 0.15474 0.51354 0.54982 0.0
H874 H 0.12119 0.51075 0.53225 0.0
H875 H 0.17551 0.51543 0.42359 0.0
H876 H 0.18319 0.55256 0.67572 0.0
H877 H 0.17336 0.57688 0.7717 0.0
H878 H 0.17001 0.61602 0.57625 0.0
H879 H 0.18005 0.59194 0.47952 0.0
C880 C 0.25466 0.53276 0.30534 0.0
C881 C 0.25118 0.54475 0.24012 0.0
C882 C 0.24417 0.53423 0.37623 0.0
C883 C 0.23005 0.54754 0.38128 0.0
C884 C 0.22908 0.56152 0.32244 0.0
C885 C 0.23962 0.56013 0.25194 0.0
C886 C 0.21323 0.54374 0.42949 0.0
C887 C 0.20639 0.55727 0.48241 0.0
C888 C 0.20216 0.52809 0.41133 0.0
C889 C 0.20788 0.51407 0.35106 0.0
C890 C 0.20676 0.51797 0.26778 0.0
C891 C 0.21217 0.50469 0.21097 0.0
C892 C 0.21873 0.48749 0.23688 0.0
C893 C 0.21973 0.48348 0.31967 0.0
C894 C 0.21424 0.49669 0.37673 0.0
C895 C 0.12691 0.55454 0.45937 0.0
C896 C 0.11782 0.53805 0.48015 0.0
C897 C 0.14609 0.55607 0.46861 0.0
C898 C 0.15642 0.54129 0.50063 0.0
C899 C 0.14709 0.5252 0.52576 0.0
C900 C 0.12798 0.52355 0.51511 0.0
C901 C 0.17683 0.54106 0.49041 0.0
C902 C 0.18427 0.52683 0.44281 0.0
C903 C 0.18833 0.55601 0.51367 0.0
C904 C 0.18193 0.57042 0.57051 0.0
C905 C 0.18023 0.56634 0.65335 0.0
C906 C 0.17474 0.58009 0.70789 0.0
C907 C 0.17093 0.59795 0.68001 0.0
C908 C 0.17284 0.60215 0.59769 0.0
C909 C 0.17849 0.58849 0.54308 0.0
H910 H 0.16658 0.60855 0.72222 0.0
H911 H 0.22291 0.47723 0.19277 0.0
H912 H 0.06396 0.79266 0.15158 0.0
H913 H 0.06266 0.81495 0.04165 0.0
H914 H 1.01386 0.78804 0.94752 0.0
H915 H 1.01436 0.76645 0.06063 0.0
H916 H 0.05649 0.82643 0.88986 0.0
H917 H 0.98037 0.81893 0.94469 0.0
H918 H 0.95754 0.80234 0.02967 0.0
H919 H 0.99569 0.80258 0.22902 0.0
H920 H 0.01881 0.81893 0.1448 0.0
H921 H 0.02228 0.91883 0.82562 0.0
H922 H 0.02578 0.88537 0.81475 0.0
H923 H 0.02008 0.88046 0.07436 0.0
H924 H 0.01696 0.91409 0.08537 0.0
H925 H 0.99967 0.85538 0.00221 0.0
H926 H 0.06384 0.87786 0.96905 0.0
H927 H 0.08733 0.89669 0.89771 0.0
H928 H 0.07441 0.86917 0.67415 0.0
H929 H 0.05077 0.85026 0.74426 0.0
C930 C 0.05347 0.79093 0.10527 0.0
C931 C 0.03865 0.7786 0.11721 0.0
C932 C 0.05281 0.80361 0.04175 0.0
C933 C 0.03752 0.80373 0.98925 0.0
C934 C 0.02541 0.78852 0.98934 0.0
C935 C 0.02579 0.77607 0.05415 0.0
C936 C 0.03136 0.82187 0.95768 0.0
C937 C 0.04383 0.83266 0.91243 0.0
C938 C 1.01489 0.83011 0.98766 0.0
C939 C 1.0013 0.82001 0.03842 0.0
C940 C 0.98387 0.81538 0.00661 0.0
C941 C 0.97092 0.80599 0.05455 0.0
C942 C 0.97521 0.80134 0.13461 0.0
C943 C 0.99244 0.80612 0.16696 0.0
C944 C 1.00546 0.81545 0.11918 0.0
C945 C 0.02149 0.91053 0.88009 0.0
C946 C 0.01912 0.91889 0.95623 0.0
C947 C 0.02358 0.89144 0.87385 0.0
C948 C 0.02302 0.88038 0.94354 0.0
C949 C 0.02041 0.88874 0.01966 0.0
C950 C 0.01863 0.90788 0.02607 0.0
C951 C 0.02529 0.8601 0.93849 0.0
C952 C 1.01195 0.84901 0.9764 0.0
C953 C 0.04106 0.85175 0.90309 0.0
C954 C 0.05554 0.86275 0.86165 0.0
C955 C 0.06603 0.87586 0.90467 0.0
C956 C 0.07935 0.88654 0.86449 0.0
C957 C 0.08235 0.88414 0.78144 0.0
C958 C 0.07208 0.871 0.73847 0.0
C959 C 0.05875 0.86028 0.77839 0.0
H960 H 0.09264 0.89245 0.7504 0.0
H961 H 0.96516 0.79408 0.17166 0.0
H962 H 0.7405 0.0591 0.13433 0.0
H963 H 0.72026 0.06012 0.01613 0.0
H964 H 0.74017 1.00656 0.94132 0.0
H965 H 0.76032 1.00539 0.05985 0.0
H966 H 0.71487 0.05163 0.84182 0.0
H967 H 0.7021 0.97977 0.95352 0.0
H968 H 0.70964 0.95835 0.0656 0.0
H969 H 0.71141 1.00397 0.23195 0.0
H970 H 0.70434 0.02561 0.12044 0.0
H971 H 0.61302 1.0094 0.88922 0.0
H972 H 0.6459 1.0052 0.86325 0.0
H973 H 0.65508 0.06365 0.89916 0.0
H974 H 0.62187 0.06792 0.9241 0.0
H975 H 0.66968 1.00847 0.96748 0.0
H976 H 0.69533 0.0789 0.81988 0.0
H977 H 0.68619 0.09911 0.70651 0.0
H978 H 0.65539 0.05457 0.59989 0.0
H979 H 0.66473 0.03387 0.71101 0.0
C980 C 0.74124 0.04799 0.0904 0.0
C981 C 0.75152 0.03196 0.10713 0.0
C982 C 0.72983 0.04866 0.02234 0.0
C983 C 0.72846 0.03322 0.97121 0.0
C984 C 0.74102 0.01857 0.9804 0.0
C985 C 0.75249 0.0179 0.04844 0.0
C986 C 0.71063 0.03007 0.92983 0.0
C987 C 0.7049 0.0421 0.86796 0.0
C988 C 0.69795 0.01706 0.96202 0.0
C989 C 0.70284 1.00426 0.0288 0.0
C990 C 0.70423 0.98519 0.01399 0.0
C991 C 0.70848 0.97304 0.0773 0.0
C992 C 0.71114 0.97982 0.15578 0.0
C993 C 0.70954 0.99876 0.17108 0.0
C994 C 0.70545 1.01097 0.10786 0.0
C995 C 0.62208 0.02137 0.89058 0.0
C996 C 0.61517 0.03889 0.91079 0.0
C997 C 0.64081 0.01901 0.87426 0.0
C998 C 0.65305 0.03407 0.87805 0.0
C999 C 0.64593 0.05183 0.8939 0.0
C1000 C 0.62704 0.05426 0.90942 0.0
C1001 C 0.6733 0.03074 0.88143 0.0
C1002 C 0.67954 0.01747 0.93709 0.0
C1003 C 0.68632 0.04236 0.84199 0.0
C1004 C 0.68075 0.05479 0.77434 0.0
C1005 C 0.68678 0.07331 0.77189 0.0
C1006 C 0.68154 0.08486 0.70788 0.0
C1007 C 0.67027 0.07809 0.64586 0.0
C1008 C 0.66419 0.05975 0.64771 0.0
C1009 C 0.66944 0.0481 0.71129 0.0
H1010 H 0.6662 0.08707 0.59643 0.0
H1011 H 0.71435 0.97039 0.20479 0.0
H1012 H 0.54345 0.73255 0.11908 0.0
H1013 H 0.53339 0.71362 0.00505 0.0
H1014 H 0.47831 0.73631 0.02536 0.0
H1015 H 0.48851 0.75551 0.13914 0.0
H1016 H 0.48059 0.70055 0.07143 0.0
H1017 H 0.49651 0.73406 0.84021 0.0
H1018 H 0.5137 0.75331 0.74237 0.0
H1019 H 0.55548 0.71135 0.72187 0.0
H1020 H 0.53887 0.69202 0.82103 0.0
H1021 H 0.47213 0.60884 0.91496 0.0
H1022 H 0.46787 0.64241 0.90722 0.0
H1023 H 0.52646 0.65037 0.94387 0.0
H1024 H 0.53087 0.61698 0.95301 0.0
H1025 H 0.51022 0.67479 0.82505 0.0
H1026 H 0.5007 0.65068 0.10066 0.0
H1027 H 0.48473 0.6309 0.20072 0.0
H1028 H 0.43272 0.65601 0.13913 0.0
H1029 H 0.4484 0.67574 0.03762 0.0
C1030 C 0.52947 0.73418 0.0963 0.0
C1031 C 0.51666 0.74519 0.138 0.0
C1032 C 0.52374 0.7235 0.03063 0.0
C1033 C 0.50505 0.72349 0.007 0.0
C1034 C 0.49281 0.73624 0.04233 0.0
C1035 C 0.49862 0.74712 0.10744 0.0
C1036 C 0.49775 0.70667 0.96737 0.0
C1037 C 0.48647 0.69522 0.01556 0.0
C1038 C 0.50566 0.69959 0.89533 0.0
C1039 C 0.51636 0.71154 0.83853 0.0
C1040 C 0.50949 0.729 0.8158 0.0
C1041 C 0.51913 0.73993 0.75986 0.0
C1042 C 0.53567 0.73356 0.7259 0.0
C1043 C 0.54266 0.71627 0.74816 0.0
C1044 C 0.53311 0.70531 0.80426 0.0
C1045 C 0.4841 0.61776 0.92151 0.0
C1046 C 0.50181 0.6103 0.93587 0.0
C1047 C 0.48167 0.63686 0.91573 0.0
C1048 C 0.49691 0.64873 0.924 0.0
C1049 C 0.51464 0.64132 0.93549 0.0
C1050 C 0.51709 0.62227 0.9415 0.0
C1051 C 0.49439 0.66884 0.93226 0.0
C1052 C 0.50373 0.68064 0.87847 0.0
C1053 C 0.48505 0.67629 -9e-05 0.0
C1054 C 0.47563 0.66441 0.06061 0.0
C1055 C 0.48582 0.65178 0.10767 0.0
C1056 C 0.47683 0.6406 0.16469 0.0
C1057 C 0.4577 0.64209 0.17583 0.0
C1058 C 0.44753 0.6548 0.13011 0.0
C1059 C 0.45645 0.66597 0.07277 0.0
H1060 H 0.45078 0.63349 0.22029 0.0
H1061 H 0.54306 0.742 0.6823 0.0
H1062 H 0.76629 0.52195 0.07422 0.0
H1063 H 0.78435 0.52003 0.94923 0.0
H1064 H 0.82147 0.56205 0.03887 0.0
H1065 H 0.80324 0.56438 0.16281 0.0
H1066 H 0.82137 0.55606 0.85658 0.0
H1067 H 0.83749 0.5216 0.12321 0.0
H1068 H 0.82572 0.50412 0.24078 0.0
H1069 H 0.79229 0.47063 0.08315 0.0
H1070 H 0.80429 0.48776 0.96426 0.0
H1071 H 0.91546 0.54233 0.92487 0.0
H1072 H 0.88244 0.54845 0.91122 0.0
H1073 H 0.87332 0.49199 0.83704 0.0
H1074 H 0.90651 0.48591 0.84708 0.0
H1075 H 0.85328 0.50015 0.96116 0.0
H1076 H 0.86304 0.52811 0.70727 0.0
H1077 H 0.87796 0.54799 0.60506 0.0
H1078 H 0.86316 0.59635 0.74061 0.0
H1079 H 0.8486 0.57684 0.84538 0.0
C1080 C 0.77761 0.53159 0.06514 0.0
C1081 C 0.78377 0.5429 0.12889 0.0
C1082 C 0.7879 0.53051 0.99352 0.0
C1083 C 0.80445 0.54057 0.98601 0.0
C1084 C 0.80875 0.55414 0.04369 0.0
C1085 C 0.79845 0.5553 0.11497 0.0
C1086 C 0.81991 0.53291 0.93822 0.0
C1087 C 0.82828 0.54364 0.87751 0.0
C1088 C 0.8287 0.51658 0.96533 0.0
C1089 C 0.82165 0.50596 0.03547 0.0
C1090 C 0.82766 0.51046 0.11388 0.0
C1091 C 0.82095 0.50063 0.18065 0.0
C1092 C 0.80813 0.48634 0.16967 0.0
C1093 C 0.80217 0.48173 0.09162 0.0
C1094 C 0.80899 0.49143 0.02447 0.0
C1095 C 0.90655 0.53134 0.90324 0.0
C1096 C 0.91361 0.51355 0.88809 0.0
C1097 C 0.88766 0.53491 0.89477 0.0
C1098 C 0.87547 0.52076 0.87114 0.0
C1099 C 0.88256 0.50317 0.85354 0.0
C1100 C 0.90147 0.49964 0.86108 0.0
C1101 C 0.85526 0.52347 0.87986 0.0
C1102 C 0.84608 0.51191 0.93504 0.0
C1103 C 0.84595 0.53905 0.8474 0.0
C1104 C 0.85469 0.55095 0.78447 0.0
C1105 C 0.86305 0.54297 0.71577 0.0
C1106 C 0.87143 0.55419 0.65721 0.0
C1107 C 0.87144 0.5734 0.666 0.0
C1108 C 0.8631 0.58146 0.7337 0.0
C1109 C 0.85476 0.57033 0.79277 0.0
H1110 H 0.87793 0.58202 0.6204 0.0
H1111 H 0.80286 0.47881 0.22157 0.0
H1112 H 0.98171 0.21562 0.97216 0.0
H1113 H 0.98454 0.18501 0.91121 0.0
H1114 H 0.04227 0.19556 0.86118 0.0
H1115 H 0.0395 0.22627 0.92457 0.0
H1116 H 0.99181 0.16933 0.77735 0.0
H1117 H 0.06716 0.15513 0.88978 0.0
H1118 H 0.08776 0.16467 0.00156 0.0
H1119 H 0.04051 0.17932 0.14613 0.0
H1120 H 0.01964 0.16945 0.03619 0.0
H1121 H 0.01776 0.08222 0.61348 0.0
H1122 H 0.0169 0.11492 0.65177 0.0
H1123 H 0.02177 0.09972 0.90366 0.0
H1124 H 0.02322 0.06712 0.86582 0.0
H1125 H 0.04118 0.12849 0.88479 0.0
H1126 H 0.98051 0.11232 0.81064 0.0
H1127 H 0.95482 0.10036 0.72766 0.0
H1128 H 0.96379 0.14347 0.55307 0.0
H1129 H 0.99025 0.15518 0.63294 0.0
C1130 C 0.99494 0.21158 0.9466 0.0
C1131 C 1.01039 0.2234 0.95343 0.0
C1132 C 0.99655 0.19401 0.91162 0.0
C1133 C 1.0137 0.18764 0.8825 0.0
C1134 C 0.02893 0.19991 0.88434 0.0
C1135 C 0.02731 0.2176 0.91961 0.0
C1136 C 1.01566 0.16787 0.85532 0.0
C1137 C 1.00276 0.16049 0.80013 0.0
C1138 C 0.02938 0.1559 0.88757 0.0
C1139 C 0.04186 0.16182 0.95412 0.0
C1140 C 0.06118 0.16035 0.94549 0.0
C1141 C 0.0729 0.16578 0.00863 0.0
C1142 C 0.06545 0.17264 0.08081 0.0
C1143 C 0.04626 0.17404 0.09014 0.0
C1144 C 0.03449 0.16853 0.02743 0.0
C1145 C 0.01872 0.0858 0.67709 0.0
C1146 C 0.02053 0.07187 0.73646 0.0
C1147 C 0.01816 0.10459 0.699 0.0
C1148 C 0.01908 0.11001 0.78092 0.0
C1149 C 0.02112 0.09611 0.84003 0.0
C1150 C 0.02187 0.07735 0.81818 0.0
C1151 C 0.01755 0.13002 0.80539 0.0
C1152 C 0.03045 0.13741 0.86054 0.0
C1153 C 1.00318 0.14171 0.77664 0.0
C1154 C 0.98761 0.13445 0.7271 0.0
C1155 C 0.97727 0.11906 0.75372 0.0
C1156 C 0.9626 0.11229 0.70713 0.0
C1157 C 0.95785 0.12102 0.63455 0.0
C1158 C 0.96773 0.13656 0.60856 0.0
C1159 C 0.98261 0.14323 0.6543 0.0
H1160 H 0.94641 0.11584 0.59876 0.0
H1161 H 0.07454 0.17683 0.12961 0.0
H1162 H 0.30273 0.0374 0.86986 0.0
H1163 H 0.33322 0.03548 0.80164 0.0
H1164 H 0.3542 1.00306 0.00052 0.0
H1165 H 0.3242 1.00475 0.06769 0.0
H1166 H 0.37502 0.03678 0.9621 0.0
H1167 H 0.34726 0.9829 0.83802 0.0
H1168 H 0.32459 0.96635 0.75323 0.0
H1169 H 0.34169 0.99787 0.54556 0.0
H1170 H 0.36404 1.01512 0.63012 0.0
H1171 H 0.46555 1.00894 0.87385 0.0
H1172 H 0.43278 1.01021 0.90891 0.0
H1173 H 0.41941 0.02454 0.66192 0.0
H1174 H 0.45231 0.02232 0.62547 0.0
H1175 H 0.39356 1.00336 0.71261 0.0
H1176 H 0.42014 0.05757 0.82694 0.0
H1177 H 0.44213 0.07645 0.90598 0.0
H1178 H 0.42679 0.04734 0.12302 0.0
H1179 H 0.40493 0.02812 0.04506 0.0
C1180 C 0.31376 0.02955 0.89796 0.0
C1181 C 0.31108 0.02145 0.9748 0.0
C1182 C 0.33121 0.02854 0.8592 0.0
C1183 C 0.34617 0.0194 0.89678 0.0
C1184 C 0.34308 1.01049 0.97107 0.0
C1185 C 0.32583 1.01141 0.00922 0.0
C1186 C 0.36546 0.01995 0.86321 0.0
C1187 C 0.37908 0.0294 0.90769 0.0
C1188 C 0.37072 1.01083 0.79081 0.0
C1189 C 0.35707 1.0006 0.74068 0.0
C1190 C 0.34595 0.9866 0.77468 0.0
C1191 C 0.33317 0.97705 0.72663 0.0
C1192 C 0.33158 0.98119 0.6442 0.0
C1193 C 0.34281 0.99483 0.60958 0.0
C1194 C 0.35549 1.00453 0.65755 0.0
C1195 C 0.45569 1.0124 0.8268 0.0
C1196 C 0.46172 1.01576 0.74697 0.0
C1197 C 0.43684 1.01325 0.84711 0.0
C1198 C 0.4234 0.01803 0.78889 0.0
C1199 C 0.42935 0.02096 0.7085 0.0
C1200 C 0.44824 0.01975 0.6877 0.0
C1201 C 0.40331 0.01993 0.81253 0.0
C1202 C 0.38953 1.01096 0.76644 0.0
C1203 C 0.39775 0.02982 0.8828 0.0
C1204 C 0.41096 0.04132 0.93 0.0
C1205 C 0.42154 0.05512 0.89142 0.0
C1206 C 0.43398 0.06589 0.93605 0.0
C1207 C 0.43587 0.06309 0.01945 0.0
C1208 C 0.42532 0.04951 0.05841 0.0
C1209 C 0.41288 0.03868 0.01404 0.0
H1210 H 0.4455 0.07145 0.05389 0.0
H1211 H 0.32173 0.97375 0.60703 0.0
H1212 H 0.4945 0.30241 0.94232 0.0
H1213 H 0.49303 0.33271 0.87407 0.0
H1214 H 0.552 0.33923 0.90547 0.0
H1215 H 0.55334 0.30926 0.97425 0.0
H1216 H 0.53598 0.3686 0.95768 0.0
H1217 H 0.53149 0.33225 0.72328 0.0
H1218 H 0.52017 0.3089 0.62695 0.0
H1219 H 0.46901 0.33852 0.60163 0.0
H1220 H 0.47972 0.36178 0.70031 0.0
H1221 H 0.52845 0.44499 0.62271 0.0
H1222 H 0.5301 0.41219 0.66066 0.0
H1223 H 0.50482 0.42468 0.89088 0.0
H1224 H 0.50359 0.4574 0.85472 0.0
H1225 H 0.50551 0.38552 0.69895 0.0
H1226 H 0.52321 0.39813 0.03741 0.0
H1227 H 0.53942 0.42129 0.12137 0.0
H1228 H 0.57218 0.43776 0.91609 0.0
H1229 H 0.55636 0.41453 0.83125 0.0
C1230 C 0.5072 0.31007 0.93208 0.0
C1231 C 0.52408 0.30334 0.96263 0.0
C1232 C 0.50636 0.32748 0.89351 0.0
C1233 C 0.5224 0.33847 0.88467 0.0
C1234 C 0.53938 0.33122 0.91179 0.0
C1235 C 0.54019 0.31396 0.95037 0.0
C1236 C 0.52148 0.35802 0.85344 0.0
C1237 C 0.52924 0.37218 0.90108 0.0
C1238 C 0.51307 0.36291 0.77863 0.0
C1239 C 0.5063 0.34864 0.72078 0.0
C1240 C 0.51766 0.33363 0.69868 0.0
C1241 C 0.51137 0.32042 0.6434 0.0
C1242 C 0.49384 0.32216 0.60858 0.0
C1243 C 0.48256 0.33714 0.62899 0.0
C1244 C 0.48872 0.35033 0.68484 0.0
C1245 C 0.52317 0.44079 0.68137 0.0
C1246 C 0.51601 0.45405 0.73575 0.0
C1247 C 0.52402 0.42194 0.70277 0.0
C1248 C 0.51769 0.41582 0.77892 0.0
C1249 C 0.51007 0.42895 0.83223 0.0
C1250 C 0.50933 0.44776 0.81123 0.0
C1251 C 0.51961 0.39592 0.80427 0.0
C1252 C 0.51201 0.38179 0.75585 0.0
C1253 C 0.52872 0.39087 0.87703 0.0
C1254 C 0.53844 0.40474 0.92784 0.0
C1255 C 0.53392 0.40666 0.0103 0.0
C1256 C 0.54303 0.4198 0.05802 0.0
C1257 C 0.55678 0.43103 0.02401 0.0
C1258 C 0.56148 0.4291 0.94228 0.0
C1259 C 0.55243 0.41597 0.89433 0.0
H1260 H 0.56381 0.4412 0.06104 0.0
H1261 H 0.48905 0.31193 0.56557 0.0
H1262 H 0.215 0.55316 0.00094 0.0
H1263 H 0.18417 0.54839 0.94673 0.0
H1264 H 0.19882 0.49249 0.88077 0.0
H1265 H 0.22952 0.49685 0.94216 0.0
H1266 H 0.16744 0.54337 0.82312 0.0
H1267 H 0.16266 0.46439 0.87471 0.0
H1268 H 0.17472 0.44035 0.967 0.0
H1269 H 0.1821 0.481 0.15372 0.0
H1270 H 0.17036 0.50533 0.06221 0.0
H1271 H 0.08464 0.5147 0.64067 0.0
H1272 H 0.11691 0.51603 0.68394 0.0
H1273 H 0.10032 0.50553 0.93068 0.0
H1274 H 0.06783 0.50391 0.88786 0.0
H1275 H 0.13192 0.48706 0.89784 0.0
H1276 H 0.11267 0.54977 0.88265 0.0
H1277 H 0.09701 0.5767 0.82129 0.0
H1278 H 0.13289 0.57334 0.61431 0.0
H1279 H 0.14821 0.54584 0.6734 0.0
C1280 C 0.21173 0.53978 0.97498 0.0
C1281 C 0.22475 0.52526 0.97778 0.0
C1282 C 0.19398 0.53709 0.94314 0.0
C1283 C 0.18864 0.51989 0.91105 0.0
C1284 C 0.20214 0.50575 0.90759 0.0
C1285 C 0.21992 0.50834 0.94132 0.0
C1286 C 0.16886 0.51693 0.88414 0.0
C1287 C 0.15987 0.53095 0.83952 0.0
C1288 C 0.15834 0.50108 0.90668 0.0
C1289 C 0.16583 0.48667 0.96136 0.0
C1290 C 0.16695 0.46819 0.93537 0.0
C1291 C 0.17378 0.45454 0.98743 0.0
C1292 C 0.17934 0.45919 0.06595 0.0
C1293 C 0.17805 0.47749 0.09257 0.0
C1294 C 0.17136 0.49122 0.04056 0.0
C1295 C 0.08775 0.51255 0.7042 0.0
C1296 C 0.07347 0.50927 0.76076 0.0
C1297 C 0.1063 0.51336 0.72886 0.0
C1298 C 0.11116 0.51105 0.81073 0.0
C1299 C 0.09702 0.50732 0.86714 0.0
C1300 C 0.07838 0.50649 0.84253 0.0
C1301 C 0.13089 0.5134 0.8372 0.0
C1302 C 0.13974 0.49934 0.88132 0.0
C1303 C 0.141 0.52963 0.8185 0.0
C1304 C 0.13172 0.54594 0.78241 0.0
C1305 C 0.11714 0.55473 0.82379 0.0
C1306 C 0.10825 0.57 0.78931 0.0
C1307 C 0.11393 0.57668 0.71373 0.0
C1308 C 0.12843 0.56804 0.67243 0.0
C1309 C 0.13723 0.55265 0.70637 0.0
H1310 H 0.1071 0.58855 0.68723 0.0
H1311 H 0.18455 0.44859 0.1063 0.0
H1312 H 0.99301 0.80013 0.39769 0.0
H1313 H 0.99009 0.83145 0.45478 0.0
H1314 H 0.0495 0.83753 0.44892 0.0
H1315 H 0.05239 0.80648 0.39169 0.0
H1316 H 1.00112 0.85132 0.58306 0.0
H1317 H 0.06156 0.87898 0.38303 0.0
H1318 H 0.07511 0.87361 0.24757 0.0
H1319 H 0.02341 0.85128 0.16448 0.0
H1320 H 1.00963 0.85621 0.29958 0.0
H1321 H 0.02559 0.94306 0.71797 0.0
H1322 H 0.0249 0.91021 0.67985 0.0
H1323 H 1.00786 0.92525 0.43837 0.0
H1324 H 1.00897 0.9579 0.47516 0.0
H1325 H 0.03234 0.90061 0.42414 0.0
H1326 H 0.9794 0.90691 0.58872 0.0
H1327 H 0.95996 0.91347 0.70786 0.0
H1328 H 0.98635 0.86953 0.83918 0.0
H1329 H 1.00658 0.8632 0.72221 0.0
C1330 C 1.00546 0.80792 0.41123 0.0
C1331 C 0.02294 0.80073 0.39041 0.0
C1332 C 1.00378 0.82594 0.44319 0.0
C1333 C 0.01954 0.83717 0.45467 0.0
C1334 C 0.03706 0.82944 0.43919 0.0
C1335 C 0.03873 0.81154 0.4073 0.0
C1336 C 0.01785 0.8572 0.47847 0.0
C1337 C 1.00805 0.86213 0.54888 0.0
C1338 C 0.0262 0.87149 0.43209 0.0
C1339 C 0.03465 0.86779 0.35169 0.0
C1340 C 0.05313 0.87281 0.33596 0.0
C1341 C 0.06085 0.86978 0.2593 0.0
C1342 C 0.05017 0.86192 0.19766 0.0
C1343 C 0.03175 0.85704 0.21264 0.0
C1344 C 0.024 0.85989 0.2893 0.0
C1345 C 0.02161 0.93938 0.65681 0.0
C1346 C 0.01736 0.95331 0.59982 0.0
C1347 C 0.02113 0.92051 0.63515 0.0
C1348 C 1.01617 0.915 0.55618 0.0
C1349 C 1.01182 0.92892 0.49959 0.0
C1350 C 1.01241 0.94772 0.52094 0.0
C1351 C 1.0161 0.89492 0.53106 0.0
C1352 C 0.02556 0.88992 0.4597 0.0
C1353 C 1.00678 0.88074 0.57529 0.0
C1354 C 0.99489 0.88486 0.64683 0.0
C1355 C 0.9814 0.89889 0.64346 0.0
C1356 C 0.97018 0.90255 0.71071 0.0
C1357 C 0.97202 0.89203 0.78129 0.0
C1358 C 0.98501 0.87775 0.7846 0.0
C1359 C 0.99641 0.87417 0.71788 0.0
H1360 H 0.96331 0.89487 0.83323 0.0
H1361 H 0.0561 0.85973 0.13814 0.0
H1362 H 0.73011 0.99096 0.38703 0.0
H1363 H 0.69952 0.98938 0.45173 0.0
H1364 H 0.6983 0.04896 0.46703 0.0
H1365 H 0.72842 0.05048 0.39854 0.0
H1366 H 0.68263 0.99768 0.58318 0.0
H1367 H 0.65668 0.06586 0.44693 0.0
H1368 H 0.6617 0.08601 0.32798 0.0
H1369 H 0.67906 0.0391 0.18801 0.0
H1370 H 0.67448 0.0187 0.3065 0.0
H1371 H 0.59108 0.01973 0.74056 0.0
H1372 H 0.62396 0.02059 0.70168 0.0
H1373 H 0.60912 1.00752 0.45537 0.0
H1374 H 0.57648 1.00663 0.49318 0.0
H1375 H 0.63299 0.03538 0.45785 0.0
H1376 H 0.6273 0.9766 0.58223 0.0
H1377 H 0.6217 0.95283 0.6863 0.0
H1378 H 0.66619 0.97472 0.82978 0.0
H1379 H 0.67152 0.99919 0.72848 0.0
C1380 C 0.72352 1.00367 0.40634 0.0
C1381 C 0.73176 0.02083 0.38841 0.0
C1382 C 0.70592 1.00279 0.44287 0.0
C1383 C 0.69618 0.01906 0.46281 0.0
C1384 C 0.7051 0.03618 0.45027 0.0
C1385 C 0.7225 0.03706 0.41232 0.0
C1386 C 0.67645 0.01813 0.49249 0.0
C1387 C 0.6718 1.00606 0.55636 0.0
C1388 C 0.66207 0.02869 0.45658 0.0
C1389 C 0.66538 0.04083 0.38567 0.0
C1390 C 0.66165 0.05988 0.39082 0.0
C1391 C 0.6645 0.07133 0.32361 0.0
C1392 C 0.67086 0.06384 0.25067 0.0
C1393 C 0.67441 0.04489 0.24485 0.0
C1394 C 0.67175 0.03339 0.31207 0.0
C1395 C 0.59479 0.01694 0.67813 0.0
C1396 C 0.58094 1.01308 0.62015 0.0
C1397 C 0.61367 0.01737 0.65608 0.0
C1398 C 0.61917 1.01402 0.5755 0.0
C1399 C 0.60536 1.01017 0.51787 0.0
C1400 C 0.58659 1.00961 0.53982 0.0
C1401 C 0.63912 1.01511 0.54963 0.0
C1402 C 0.64381 0.02717 0.48593 0.0
C1403 C 0.65339 1.00424 0.58493 0.0
C1404 C 0.64953 0.99008 0.64822 0.0
C1405 C 0.6356 0.97669 0.63683 0.0
C1406 C 0.63251 0.96302 0.69533 0.0
C1407 C 0.6435 0.96233 0.76486 0.0
C1408 C 0.65763 0.97529 0.77599 0.0
C1409 C 0.66061 0.98917 0.71827 0.0
H1410 H 0.64114 0.95168 0.80989 0.0
H1411 H 0.67296 0.07271 0.19853 0.0
H1412 H 0.55498 0.71938 0.39004 0.0
H1413 H 0.55393 0.68871 0.45418 0.0
H1414 H 0.49709 0.69805 0.52278 0.0
H1415 H 0.49826 0.72889 0.46001 0.0
H1416 H 0.54326 0.67264 0.6123 0.0
H1417 H 0.4743 0.65853 0.4541 0.0
H1418 H 0.45596 0.67167 0.34173 0.0
H1419 H 0.50596 0.68778 0.21922 0.0
H1420 H 0.5246 0.67443 0.33005 0.0
H1421 H 0.51111 0.58252 0.73194 0.0
H1422 H 0.5125 0.61564 0.70166 0.0
H1423 H 0.52597 0.60334 0.45284 0.0
H1424 H 0.52454 0.57022 0.4826 0.0
H1425 H 0.50159 0.63094 0.45769 0.0
H1426 H 0.55834 0.61635 0.59529 0.0
H1427 H 0.57738 0.60463 0.70803 0.0
H1428 H 0.55495 0.6462 0.86549 0.0
H1429 H 0.53516 0.65771 0.7546 0.0
C1430 C 0.54254 0.71521 0.4221 0.0
C1431 C 0.52681 0.72669 0.42131 0.0
C1432 C 0.54191 0.69762 0.45842 0.0
C1433 C 0.5254 0.69093 0.49296 0.0
C1434 C 0.51001 0.70285 0.49666 0.0
C1435 C 0.51073 0.72057 0.4614 0.0
C1436 C 0.52358 0.67087 0.51493 0.0
C1437 C 0.53405 0.66353 0.57904 0.0
C1438 C 0.51182 0.65885 0.47065 0.0
C1439 C 0.50081 0.6657 0.40093 0.0
C1440 C 0.48138 0.66474 0.40289 0.0
C1441 C 0.47093 0.67228 0.33961 0.0
C1442 C 0.47979 0.68075 0.27395 0.0
C1443 C 0.49912 0.68138 0.27056 0.0
C1444 C 0.50962 0.67381 0.33351 0.0
C1445 C 0.51443 0.5868 0.67077 0.0
C1446 C 0.51789 0.57349 0.61008 0.0
C1447 C 0.51523 0.60585 0.65345 0.0
C1448 C 0.51954 0.6122 0.57492 0.0
C1449 C 0.52261 0.59894 0.51393 0.0
C1450 C 0.52186 0.57991 0.53123 0.0
C1451 C 0.52115 0.63253 0.55615 0.0
C1452 C 0.51067 0.63997 0.49198 0.0
C1453 C 0.53306 0.64458 0.60012 0.0
C1454 C 0.54503 0.63772 0.66682 0.0
C1455 C 0.55726 0.62284 0.65424 0.0
C1456 C 0.56816 0.61621 0.7179 0.0
C1457 C 0.56723 0.62457 0.79411 0.0
C1458 C 0.55547 0.63962 0.80668 0.0
C1459 C 0.54436 0.64617 0.74351 0.0
H1460 H 0.5757 0.61946 0.84335 0.0
H1461 H 0.47168 0.6867 0.22535 0.0
H1462 H 0.80608 0.55285 0.44278 0.0
H1463 H 0.83739 0.54896 0.49772 0.0
H1464 H 0.83713 0.49188 0.42167 0.0
H1465 H 0.80547 0.49564 0.37008 0.0
H1466 H 0.85733 0.49433 0.55168 0.0
H1467 H 0.85565 0.5265 0.30165 0.0
H1468 H 0.84524 0.55056 0.20594 0.0
H1469 H 0.86811 0.59273 0.35944 0.0
H1470 H 0.87831 0.56895 0.45705 0.0
H1471 H 0.96228 0.51962 0.46243 0.0
H1472 H 0.92961 0.52004 0.42311 0.0
H1473 H 0.91364 0.51371 0.67368 0.0
H1474 H 0.94623 0.51252 0.71263 0.0
H1475 H 0.90185 0.54065 0.4444 0.0
H1476 H 0.8715 0.48912 0.68858 0.0
H1477 H 0.88159 0.46138 0.76376 0.0
H1478 H 0.92406 0.45151 0.58679 0.0
H1479 H 0.91394 0.47883 0.50943 0.0
C1480 C 0.81241 0.53927 0.44123 0.0
C1481 C 0.80322 0.52447 0.40331 0.0
C1482 C 0.83046 0.53711 0.47132 0.0
C1483 C 0.83998 0.52025 0.46197 0.0
C1484 C 0.83025 0.50506 0.42958 0.0
C1485 C 0.81206 0.50716 0.40059 0.0
C1486 C 0.86038 0.51892 0.4796 0.0
C1487 C 0.86705 0.50455 0.52896 0.0
C1488 C 0.87335 0.53163 0.44638 0.0
C1489 C 0.86765 0.54595 0.38692 0.0
C1490 C 0.8584 0.54091 0.31517 0.0
C1491 C 0.85252 0.55449 0.26061 0.0
C1492 C 0.85601 0.57315 0.27662 0.0
C1493 C 0.86542 0.57827 0.34716 0.0
C1494 C 0.87125 0.56474 0.40214 0.0
C1495 C 0.95185 0.51833 0.50931 0.0
C1496 C 0.95706 0.51604 0.59097 0.0
C1497 C 0.93306 0.51862 0.48668 0.0
C1498 C 0.91891 0.51666 0.54495 0.0
C1499 C 0.92411 0.51485 0.62682 0.0
C1500 C 0.94287 0.51434 0.6493 0.0
C1501 C 0.89881 0.51653 0.52027 0.0
C1502 C 0.89221 0.53048 0.46819 0.0
C1503 C 0.88605 0.50294 0.54834 0.0
C1504 C 0.89221 0.48635 0.59427 0.0
C1505 C 0.88301 0.48104 0.66576 0.0
C1506 C 0.88869 0.46534 0.70859 0.0
C1507 C 0.90357 0.4548 0.6805 0.0
C1508 C 0.91265 0.45979 0.60893 0.0
C1509 C 0.90693 0.47539 0.56556 0.0
H1510 H 0.90798 0.44269 0.71393 0.0
H1511 H 0.85145 0.58365 0.23431 0.0
loop_
_geom_bond_atom_site_label_1
_geom_bond_atom_site_label_2
_geom_bond_distance
_geom_bond_site_symmetry_2
_ccdc_geom_bond_type
H0 C1 0.949 . S
C1 H0 0.949 . S
C1 C2 1.395 . S
C1 C3 1.391 . S
C2 C1 1.395 . S
C2 C5 1.390 . S
C3 C1 1.391 . S
C3 C7 1.387 . S
C3 C8 1.491 . S
H4 C5 0.950 . S
C5 C2 1.390 . S
C5 H4 0.950 . S
C5 C6 1.378 . S
C6 C5 1.378 . S
C6 C7 1.409 . S
C7 C3 1.387 . S
C7 C6 1.409 . S
C7 H9 0.951 . S
C8 C3 1.491 . S
C8 C10 1.382 . S
C8 C12 1.404 . S
H9 C7 0.951 . S
C10 C8 1.382 . S
C10 C11 1.390 . S
C10 H15 0.949 . S
C11 C10 1.390 . S
C11 C16 1.399 . S
C12 C8 1.404 . S
C12 H13 0.950 . S
C12 C14 1.375 . S
H13 C12 0.950 . S
C14 C12 1.375 . S
C14 C16 1.382 . S
C14 H18 0.950 . S
H15 C10 0.949 . S
C16 C11 1.399 . S
C16 C14 1.382 . S
C16 H17 0.952 . S
H17 C16 0.952 . S
H18 C14 0.950 . S
H19 C20 0.949 . S
C20 H19 0.949 . S
C20 C21 1.406 . S
C20 C22 1.391 . S
C21 C20 1.406 . S
C21 C24 1.387 1_655 S
C22 C20 1.391 . S
C22 C26 1.387 . S
C22 C27 1.491 . S
H23 C24 0.951 . S
C24 C21 1.387 1_455 S
C24 H23 0.951 . S
C24 C25 1.377 1_455 S
C25 C24 1.377 1_655 S
C25 C26 1.409 . S
C26 C22 1.387 . S
C26 C25 1.409 . S
C26 H28 0.951 . S
C27 C22 1.491 . S
C27 C29 1.382 . S
C27 C31 1.404 . S
H28 C26 0.951 . S
C29 C27 1.382 . S
C29 C30 1.390 . S
C29 H34 0.949 1_655 S
C30 C29 1.390 . S
C30 C35 1.399 . S
C31 C27 1.404 . S
C31 H32 0.950 . S
C31 C33 1.375 . S
H32 C31 0.950 . S
C33 C31 1.375 . S
C33 C35 1.382 . S
C33 H37 0.950 . S
H34 C29 0.949 1_455 S
C35 C30 1.399 . S
C35 C33 1.382 . S
C35 H36 0.952 . S
H36 C35 0.952 . S
H37 C33 0.950 . S
H38 C39 0.949 . S
C39 H38 0.949 . S
C39 C40 1.395 . S
C39 C41 1.391 . S
C40 C39 1.395 . S
C40 C43 1.391 1_565 S
C41 C39 1.391 . S
C41 C45 1.387 . S
C41 C46 1.491 . S
H42 C43 0.949 . S
C43 C40 1.391 1_545 S
C43 H42 0.949 . S
C43 C44 1.378 1_545 S
C44 C43 1.378 1_565 S
C44 C45 1.409 . S
C45 C41 1.387 . S
C45 C44 1.409 . S
C45 H47 0.951 . S
C46 C41 1.491 . S
C46 C48 1.382 . S
C46 C50 1.404 . S
H47 C45 0.951 . S
C48 C46 1.382 . S
C48 C49 1.390 . S
C48 H53 0.949 1_565 S
C49 C48 1.390 . S
C49 C54 1.399 . S
C50 C46 1.404 . S
C50 H51 0.950 . S
C50 C52 1.375 . S
H51 C50 0.950 . S
C52 C50 1.375 . S
C52 C54 1.382 . S
C52 H56 0.950 . S
H53 C48 0.949 1_545 S
C54 C49 1.399 . S
C54 C52 1.382 . S
C54 H55 0.952 . S
H55 C54 0.952 . S
H56 C52 0.950 . S
H57 C58 0.949 . S
C58 H57 0.949 . S
C58 C59 1.395 . S
C58 C60 1.391 . S
C59 C58 1.395 . S
C59 C62 1.390 . S
C60 C58 1.391 . S
C60 C64 1.387 . S
C60 C65 1.491 . S
H61 C62 0.950 . S
C62 C59 1.390 . S
C62 H61 0.950 . S
C62 C63 1.378 . S
C63 C62 1.378 . S
C63 C64 1.409 . S
C64 C60 1.387 . S
C64 C63 1.409 . S
C64 H66 0.951 . S
C65 C60 1.491 . S
C65 C67 1.382 . S
C65 C69 1.404 . S
H66 C64 0.951 . S
C67 C65 1.382 . S
C67 C68 1.390 . S
C67 H72 0.949 . S
C68 C67 1.390 . S
C68 C73 1.399 . S
C69 C65 1.404 . S
C69 H70 0.950 . S
C69 C71 1.375 . S
H70 C69 0.950 . S
C71 C69 1.375 . S
C71 C73 1.382 . S
C71 H75 0.950 . S
H72 C67 0.949 . S
C73 C68 1.399 . S
C73 C71 1.382 . S
C73 H74 0.952 . S
H74 C73 0.952 . S
H75 C71 0.950 . S
H76 C77 0.949 . S
C77 H76 0.949 . S
C77 C78 1.395 . S
C77 C79 1.391 1_554 S
C78 C77 1.395 . S
C78 C81 1.390 1_554 S
C79 C77 1.391 1_556 S
C79 C83 1.387 . S
C79 C84 1.491 . S
H80 C81 0.950 . S
C81 C78 1.390 1_556 S
C81 H80 0.950 . S
C81 C82 1.378 . S
C82 C81 1.378 . S
C82 C83 1.409 . S
C83 C79 1.387 . S
C83 C82 1.409 . S
C83 H85 0.951 . S
C84 C79 1.491 . S
C84 C86 1.382 1_556 S
C84 C88 1.404 . S
H85 C83 0.951 . S
C86 C84 1.382 1_554 S
C86 C87 1.390 . S
C86 H91 0.949 . S
C87 C86 1.390 . S
C87 C92 1.399 1_554 S
C88 C84 1.404 . S
C88 H89 0.950 . S
C88 C90 1.375 . S
H89 C88 0.950 . S
C90 C88 1.375 . S
C90 C92 1.382 . S
C90 H94 0.950 . S
H91 C86 0.949 . S
C92 C87 1.399 1_556 S
C92 C90 1.382 . S
C92 H93 0.952 . S
H93 C92 0.952 . S
H94 C90 0.950 . S
H95 C96 0.948 1_655 S
C96 H95 0.948 1_455 S
C96 C97 1.397 . S
C96 C98 1.389 1_454 S
C97 C96 1.397 . S
C97 C100 1.390 1_554 S
C98 C96 1.389 1_656 S
C98 C102 1.388 . S
C98 C103 1.491 . S
H99 C100 0.950 . S
C100 C97 1.390 1_556 S
C100 H99 0.950 . S
C100 C101 1.378 . S
C101 C100 1.378 . S
C101 C102 1.409 1_455 S
C102 C98 1.388 . S
C102 C101 1.409 1_655 S
C102 H104 0.951 . S
C103 C98 1.491 . S
C103 C105 1.382 1_656 S
C103 C107 1.404 . S
H104 C102 0.951 . S
C105 C103 1.382 1_454 S
C105 C106 1.390 1_455 S
C105 H110 0.949 . S
C106 C105 1.390 1_655 S
C106 C111 1.399 1_554 S
C107 C103 1.404 . S
C107 H108 0.950 . S
C107 C109 1.375 . S
H108 C107 0.950 . S
C109 C107 1.375 . S
C109 C111 1.382 . S
C109 H113 0.950 . S
H110 C105 0.949 . S
C111 C106 1.399 1_556 S
C111 C109 1.382 . S
C111 H112 0.952 . S
H112 C111 0.952 . S
H113 C109 0.950 . S
H114 C115 0.948 1_565 S
C115 H114 0.948 1_545 S
C115 C116 1.396 . S
C115 C117 1.390 1_544 S
C116 C115 1.396 . S
C116 C119 1.390 1_554 S
C117 C115 1.390 1_566 S
C117 C121 1.388 . S
C117 C122 1.491 . S
H118 C119 0.950 . S
C119 C116 1.390 1_556 S
C119 H118 0.950 . S
C119 C120 1.378 . S
C120 C119 1.378 . S
C120 C121 1.408 1_545 S
C121 C117 1.388 . S
C121 C120 1.408 1_565 S
C121 H123 0.952 . S
C122 C117 1.491 . S
C122 C124 1.382 1_566 S
C122 C126 1.404 . S
H123 C121 0.952 . S
C124 C122 1.382 1_544 S
C124 C125 1.390 1_545 S
C124 H129 0.949 . S
C125 C124 1.390 1_565 S
C125 C130 1.399 1_554 S
C126 C122 1.404 . S
C126 H127 0.950 . S
C126 C128 1.375 . S
H127 C126 0.950 . S
C128 C126 1.375 . S
C128 C130 1.382 . S
C128 H132 0.950 . S
H129 C124 0.949 . S
C130 C125 1.399 1_556 S
C130 C128 1.382 . S
C130 H131 0.952 . S
H131 C130 0.952 . S
H132 C128 0.950 . S
H133 C134 0.949 . S
C134 H133 0.949 . S
C134 C135 1.395 . S
C134 C136 1.391 1_554 S
C135 C134 1.395 . S
C135 C138 1.390 1_554 S
C136 C134 1.391 1_556 S
C136 C140 1.387 . S
C136 C141 1.491 . S
H137 C138 0.950 . S
C138 C135 1.390 1_556 S
C138 H137 0.950 . S
C138 C139 1.378 . S
C139 C138 1.378 . S
C139 C140 1.409 . S
C140 C136 1.387 . S
C140 C139 1.409 . S
C140 H142 0.951 . S
C141 C136 1.491 . S
C141 C143 1.382 1_556 S
C141 C145 1.404 . S
H142 C140 0.951 . S
C143 C141 1.382 1_554 S
C143 C144 1.390 . S
C143 H148 0.949 . S
C144 C143 1.390 . S
C144 C149 1.399 1_554 S
C145 C141 1.404 . S
C145 H146 0.950 . S
C145 C147 1.375 . S
H146 C145 0.950 . S
C147 C145 1.375 . S
C147 C149 1.382 . S
C147 H151 0.950 . S
H148 C143 0.949 . S
C149 C144 1.399 1_556 S
C149 C147 1.382 . S
C149 H150 0.952 . S
H150 C149 0.952 . S
H151 C147 0.950 . S
Pr152 C154 2.880 . S
Pr152 O172 2.557 1_455 S
Pr152 O173 2.490 . S
Pr152 O174 2.695 1_565 S
Pr152 O175 2.512 . S
Pr152 O177 2.437 . S
Pr152 O180 2.436 1_455 S
Pr152 O182 2.438 1_565 S
Pr153 C163 2.880 . S
Pr153 O174 2.436 1_655 S
Pr153 O176 2.438 1_545 S
Pr153 O178 2.562 1_655 S
Pr153 O179 2.490 . S
Pr153 O180 2.695 1_545 S
Pr153 O181 2.512 . S
Pr153 O183 2.437 . S
C154 Pr152 2.880 . S
C154 C155 1.491 . S
C154 O172 1.242 1_455 S
C154 O173 1.225 . S
C155 C154 1.491 . S
C155 C156 1.392 . S
C155 C160 1.356 . S
C156 C155 1.392 . S
C156 C157 1.368 . S
C156 H184 0.929 . S
C157 C156 1.368 . S
C157 C158 1.386 . S
C157 H185 0.929 . S
C158 C157 1.386 . S
C158 C159 1.373 . S
C159 C158 1.373 . S
C159 C160 1.409 . S
C159 H186 0.931 1_455 S
C160 C155 1.356 . S
C160 C159 1.409 . S
C160 H187 0.930 1_455 S
C161 O174 1.270 . S
C161 O175 1.249 1_545 S
C162 O176 1.267 . S
C162 O177 1.278 1_655 S
C163 Pr153 2.880 . S
C163 C164 1.491 . S
C163 O178 1.254 1_655 S
C163 O179 1.225 . S
C164 C163 1.491 . S
C164 C165 1.392 . S
C164 C169 1.348 1_655 S
C165 C164 1.392 . S
C165 C166 1.368 . S
C165 H188 0.929 . S
C166 C165 1.368 . S
C166 C167 1.386 . S
C166 H189 0.929 . S
C167 C166 1.386 . S
C167 C168 1.373 . S
C168 C167 1.373 . S
C168 C169 1.408 1_655 S
C168 H190 0.931 1_655 S
C169 C164 1.348 1_455 S
C169 C168 1.408 1_455 S
C169 H191 0.938 . S
C170 O180 1.270 1_545 S
C170 O181 1.248 . S
C171 O182 1.267 . S
C171 O183 1.278 1_455 S
O172 Pr152 2.557 1_655 S
O172 C154 1.242 1_655 S
O173 Pr152 2.490 . S
O173 C154 1.225 . S
O174 Pr152 2.695 1_545 S
O174 Pr153 2.436 1_455 S
O174 C161 1.270 . S
O175 Pr152 2.512 . S
O175 C161 1.249 1_565 S
O176 Pr153 2.438 1_565 S
O176 C162 1.267 . S
O177 Pr152 2.437 . S
O177 C162 1.278 1_455 S
O178 Pr153 2.562 1_455 S
O178 C163 1.254 1_455 S
O179 Pr153 2.490 . S
O179 C163 1.225 . S
O180 Pr152 2.436 1_655 S
O180 Pr153 2.695 1_565 S
O180 C170 1.270 1_565 S
O181 Pr153 2.512 . S
O181 C170 1.248 . S
O182 Pr152 2.438 1_545 S
O182 C171 1.267 . S
O183 Pr153 2.437 . S
O183 C171 1.278 1_655 S
H184 C156 0.929 . S
H185 C157 0.929 . S
H186 C159 0.931 1_655 S
H187 C160 0.930 1_655 S
H188 C165 0.929 . S
H189 C166 0.929 . S
H190 C168 0.931 1_455 S
H191 C169 0.938 . S
Pr192 C194 2.880 . S
Pr192 O212 2.552 1_545 S
Pr192 O213 2.490 . S
Pr192 O214 2.695 . S
Pr192 O215 2.512 . S
Pr192 O217 2.437 . S
Pr192 O220 2.436 1_545 S
Pr192 O222 2.438 . S
Pr193 C203 2.880 . S
Pr193 O214 2.436 1_565 S
Pr193 O216 2.438 . S
Pr193 O218 2.562 1_565 S
Pr193 O219 2.490 . S
Pr193 O220 2.695 . S
Pr193 O221 2.512 . S
Pr193 O223 2.437 . S
C194 Pr192 2.880 . S
C194 C195 1.491 . S
C194 O212 1.231 1_545 S
C194 O213 1.225 . S
C195 C194 1.491 . S
C195 C196 1.392 . S
C195 C200 1.356 . S
C196 C195 1.392 . S
C196 C197 1.368 . S
C196 H224 0.929 . S
C197 C196 1.368 . S
C197 C198 1.386 . S
C197 H225 0.929 . S
C198 C197 1.386 . S
C198 C199 1.373 . S
C199 C198 1.373 . S
C199 C200 1.409 . S
C199 H226 0.931 1_545 S
C200 C195 1.356 . S
C200 C199 1.409 . S
C200 H227 0.930 1_545 S
C201 O214 1.270 . S
C201 O215 1.248 . S
C202 O216 1.267 . S
C202 O217 1.278 1_565 S
C203 Pr193 2.880 . S
C203 C204 1.491 . S
C203 O218 1.254 1_565 S
C203 O219 1.225 . S
C204 C203 1.491 . S
C204 C205 1.392 . S
C204 C209 1.357 1_565 S
C205 C204 1.392 . S
C205 C206 1.368 . S
C205 H228 0.929 . S
C206 C205 1.368 . S
C206 C207 1.386 . S
C206 H229 0.929 . S
C207 C206 1.386 . S
C207 C208 1.373 . S
C208 C207 1.373 . S
C208 C209 1.409 1_565 S
C208 H230 0.931 1_565 S
C209 C204 1.357 1_545 S
C209 C208 1.409 1_545 S
C209 H231 0.928 . S
C210 O220 1.270 . S
C210 O221 1.248 . S
C211 O222 1.267 . S
C211 O223 1.278 1_545 S
O212 Pr192 2.552 1_565 S
O212 C194 1.231 1_565 S
O213 Pr192 2.490 . S
O213 C194 1.225 . S
O214 Pr192 2.695 . S
O214 Pr193 2.436 1_545 S
O214 C201 1.270 . S
O215 Pr192 2.512 . S
O215 C201 1.248 . S
O216 Pr193 2.438 . S
O216 C202 1.267 . S
O217 Pr192 2.437 . S
O217 C202 1.278 1_545 S
O218 Pr193 2.562 1_545 S
O218 C203 1.254 1_545 S
O219 Pr193 2.490 . S
O219 C203 1.225 . S
O220 Pr192 2.436 1_565 S
O220 Pr193 2.695 . S
O220 C210 1.270 . S
O221 Pr193 2.512 . S
O221 C210 1.248 . S
O222 Pr192 2.438 . S
O222 C211 1.267 . S
O223 Pr193 2.437 . S
O223 C211 1.278 1_565 S
H224 C196 0.929 . S
H225 C197 0.929 . S
H226 C199 0.931 1_565 S
H227 C200 0.930 1_565 S
H228 C205 0.929 . S
H229 C206 0.929 . S
H230 C208 0.931 1_545 S
H231 C209 0.928 . S
Pr232 C234 2.880 . S
Pr232 O252 2.562 . S
Pr232 O253 2.490 . S
Pr232 O254 2.695 . S
Pr232 O255 2.512 . S
Pr232 O257 2.437 . S
Pr232 O260 2.436 . S
Pr232 O262 2.438 . S
Pr233 C243 2.880 . S
Pr233 O254 2.436 . S
Pr233 O256 2.438 . S
Pr233 O258 2.562 . S
Pr233 O259 2.490 . S
Pr233 O260 2.695 . S
Pr233 O261 2.512 . S
Pr233 O263 2.437 . S
C234 Pr232 2.880 . S
C234 C235 1.491 . S
C234 O252 1.254 . S
C234 O253 1.225 . S
C235 C234 1.491 . S
C235 C236 1.392 . S
C235 C240 1.356 . S
C236 C235 1.392 . S
C236 C237 1.368 . S
C236 H264 0.929 . S
C237 C236 1.368 . S
C237 C238 1.386 . S
C237 H265 0.929 . S
C238 C237 1.386 . S
C238 C239 1.373 . S
C239 C238 1.373 . S
C239 C240 1.409 . S
C239 H266 0.931 . S
C240 C235 1.356 . S
C240 C239 1.409 . S
C240 H267 0.930 . S
C241 O254 1.270 . S
C241 O255 1.248 . S
C242 O256 1.267 . S
C242 O257 1.278 . S
C243 Pr233 2.880 . S
C243 C244 1.491 . S
C243 O258 1.254 . S
C243 O259 1.225 . S
C244 C243 1.491 . S
C244 C245 1.392 . S
C244 C249 1.356 . S
C245 C244 1.392 . S
C245 C246 1.368 . S
C245 H268 0.929 . S
C246 C245 1.368 . S
C246 C247 1.386 . S
C246 H269 0.929 . S
C247 C246 1.386 . S
C247 C248 1.373 . S
C248 C247 1.373 . S
C248 C249 1.409 . S
C248 H270 0.931 . S
C249 C244 1.356 . S
C249 C248 1.409 . S
C249 H271 0.930 . S
C250 O260 1.270 . S
C250 O261 1.248 . S
C251 O262 1.267 . S
C251 O263 1.278 . S
O252 Pr232 2.562 . S
O252 C234 1.254 . S
O253 Pr232 2.490 . S
O253 C234 1.225 . S
O254 Pr232 2.695 . S
O254 Pr233 2.436 . S
O254 C241 1.270 . S
O255 Pr232 2.512 . S
O255 C241 1.248 . S
O256 Pr233 2.438 . S
O256 C242 1.267 . S
O257 Pr232 2.437 . S
O257 C242 1.278 . S
O258 Pr233 2.562 . S
O258 C243 1.254 . S
O259 Pr233 2.490 . S
O259 C243 1.225 . S
O260 Pr232 2.436 . S
O260 Pr233 2.695 . S
O260 C250 1.270 . S
O261 Pr233 2.512 . S
O261 C250 1.248 . S
O262 Pr232 2.438 . S
O262 C251 1.267 . S
O263 Pr233 2.437 . S
O263 C251 1.278 . S
H264 C236 0.929 . S
H265 C237 0.929 . S
H266 C239 0.931 . S
H267 C240 0.930 . S
H268 C245 0.929 . S
H269 C246 0.929 . S
H270 C248 0.931 . S
H271 C249 0.930 . S
Pr272 C274 2.880 . S
Pr272 O292 2.562 . S
Pr272 O293 2.490 . S
Pr272 O294 2.695 1_655 S
Pr272 O295 2.512 . S
Pr272 O297 2.437 . S
Pr272 O300 2.436 . S
Pr272 O302 2.438 1_655 S
Pr273 C283 2.880 . S
Pr273 O294 2.436 . S
Pr273 O296 2.438 1_455 S
Pr273 O298 2.562 . S
Pr273 O299 2.490 . S
Pr273 O300 2.695 1_455 S
Pr273 O301 2.512 . S
Pr273 O303 2.437 . S
C274 Pr272 2.880 . S
C274 C275 1.491 . S
C274 O292 1.254 . S
C274 O293 1.225 . S
C275 C274 1.491 . S
C275 C276 1.392 . S
C275 C280 1.356 . S
C276 C275 1.392 . S
C276 C277 1.368 . S
C276 H304 0.929 . S
C277 C276 1.368 . S
C277 C278 1.386 . S
C277 H305 0.929 . S
C278 C277 1.386 . S
C278 C279 1.373 . S
C279 C278 1.373 . S
C279 C280 1.409 . S
C279 H306 0.931 . S
C280 C275 1.356 . S
C280 C279 1.409 . S
C280 H307 0.930 . S
C281 O294 1.274 . S
C281 O295 1.243 1_455 S
C282 O296 1.267 . S
C282 O297 1.278 . S
C283 Pr273 2.880 . S
C283 C284 1.491 . S
C283 O298 1.254 . S
C283 O299 1.225 . S
C284 C283 1.491 . S
C284 C285 1.392 . S
C284 C289 1.356 . S
C285 C284 1.392 . S
C285 C286 1.368 . S
C285 H308 0.929 . S
C286 C285 1.368 . S
C286 C287 1.386 . S
C286 H309 0.929 . S
C287 C286 1.386 . S
C287 C288 1.373 . S
C288 C287 1.373 . S
C288 C289 1.409 . S
C288 H310 0.931 . S
C289 C284 1.356 . S
C289 C288 1.409 . S
C289 H311 0.930 . S
C290 O300 1.270 1_455 S
C290 O301 1.248 . S
C291 O302 1.267 . S
C291 O303 1.278 . S
O292 Pr272 2.562 . S
O292 C274 1.254 . S
O293 Pr272 2.490 . S
O293 C274 1.225 . S
O294 Pr272 2.695 1_455 S
O294 Pr273 2.436 . S
O294 C281 1.274 . S
O295 Pr272 2.512 . S
O295 C281 1.243 1_655 S
O296 Pr273 2.438 1_655 S
O296 C282 1.267 . S
O297 Pr272 2.437 . S
O297 C282 1.278 . S
O298 Pr273 2.562 . S
O298 C283 1.254 . S
O299 Pr273 2.490 . S
O299 C283 1.225 . S
O300 Pr272 2.436 . S
O300 Pr273 2.695 1_655 S
O300 C290 1.270 1_655 S
O301 Pr273 2.512 . S
O301 C290 1.248 . S
O302 Pr272 2.438 1_455 S
O302 C291 1.267 . S
O303 Pr273 2.437 . S
O303 C291 1.278 . S
H304 C276 0.929 . S
H305 C277 0.929 . S
H306 C279 0.931 . S
H307 C280 0.930 . S
H308 C285 0.929 . S
H309 C286 0.929 . S
H310 C288 0.931 . S
H311 C289 0.930 . S
H312 C330 0.951 . S
H313 C332 0.951 . S
H314 C334 0.950 . S
H315 C335 0.950 . S
H316 C337 0.950 . S
H317 C340 0.950 . S
H318 C341 0.950 . S
H319 C343 0.950 . S
H320 C344 0.950 . S
H321 C345 0.951 . S
H322 C347 0.962 . S
H323 C349 0.950 . S
H324 C350 0.950 . S
H325 C352 0.950 . S
H326 C355 0.950 . S
H327 C356 0.950 . S
H328 C358 0.950 . S
H329 C359 0.950 . S
C330 H312 0.951 . S
C330 C331 1.366 . S
C330 C332 1.388 . S
C331 C330 1.366 . S
C331 C335 1.385 1_545 S
C332 H313 0.951 . S
C332 C330 1.388 . S
C332 C333 1.366 . S
C333 C332 1.366 . S
C333 C334 1.414 1_545 S
C333 C336 1.499 . S
C334 H314 0.950 . S
C334 C333 1.414 1_565 S
C334 C335 1.374 . S
C335 H315 0.950 . S
C335 C331 1.385 1_565 S
C335 C334 1.374 . S
C336 C333 1.499 . S
C336 C337 1.373 . S
C336 C338 1.389 1_545 S
C337 H316 0.950 . S
C337 C336 1.373 . S
C337 C353 1.377 . S
C338 C336 1.389 1_565 S
C338 C339 1.524 . S
C338 C352 1.377 . S
C339 C338 1.524 . S
C339 C340 1.397 . S
C339 C344 1.363 . S
C340 H317 0.950 . S
C340 C339 1.397 . S
C340 C341 1.334 . S
C341 H318 0.950 . S
C341 C340 1.334 . S
C341 C342 1.287 . S
C342 C341 1.287 . S
C342 C343 1.524 . S
C342 H361 0.913 . S
C343 H319 0.950 . S
C343 C342 1.524 . S
C343 C344 1.415 . S
C344 H320 0.950 . S
C344 C339 1.363 . S
C344 C343 1.415 . S
C345 H321 0.951 . S
C345 C346 1.366 1_565 S
C345 C347 1.390 . S
C346 C345 1.366 1_545 S
C346 C350 1.385 . S
C347 H322 0.962 . S
C347 C345 1.390 . S
C347 C348 1.355 1_565 S
C348 C347 1.355 1_545 S
C348 C349 1.414 . S
C348 C351 1.499 . S
C349 H323 0.950 . S
C349 C348 1.414 . S
C349 C350 1.374 . S
C350 H324 0.950 . S
C350 C346 1.385 . S
C350 C349 1.374 . S
C351 C348 1.499 . S
C351 C352 1.373 1_545 S
C351 C353 1.389 . S
C352 H325 0.950 . S
C352 C338 1.377 . S
C352 C351 1.373 1_565 S
C353 C337 1.377 . S
C353 C351 1.389 . S
C353 C354 1.524 . S
C354 C353 1.524 . S
C354 C355 1.397 . S
C354 C359 1.363 . S
C355 H326 0.950 . S
C355 C354 1.397 . S
C355 C356 1.334 . S
C356 H327 0.950 . S
C356 C355 1.334 . S
C356 C357 1.287 . S
C357 C356 1.287 . S
C357 C358 1.524 . S
C357 H360 0.999 . S
C358 H328 0.950 . S
C358 C357 1.524 . S
C358 C359 1.415 . S
C359 H329 0.950 . S
C359 C354 1.363 . S
C359 C358 1.415 . S
H360 C357 0.999 . S
H361 C342 0.913 . S
H362 C380 0.951 . S
H363 C382 0.951 . S
H364 C384 0.950 . S
H365 C385 0.950 . S
H366 C387 0.950 . S
H367 C390 0.950 . S
H368 C391 0.950 . S
H369 C393 0.950 . S
H370 C394 0.950 . S
H371 C395 0.951 . S
H372 C397 0.951 . S
H373 C399 0.950 . S
H374 C400 0.950 . S
H375 C402 0.950 . S
H376 C405 0.950 . S
H377 C406 0.950 . S
H378 C408 0.950 . S
H379 C409 0.950 . S
C380 H362 0.951 . S
C380 C381 1.366 . S
C380 C382 1.388 . S
C381 C380 1.366 . S
C381 C385 1.385 . S
C382 H363 0.951 . S
C382 C380 1.388 . S
C382 C383 1.366 . S
C383 C382 1.366 . S
C383 C384 1.414 . S
C383 C386 1.499 . S
C384 H364 0.950 . S
C384 C383 1.414 . S
C384 C385 1.374 . S
C385 H365 0.950 . S
C385 C381 1.385 . S
C385 C384 1.374 . S
C386 C383 1.499 . S
C386 C387 1.373 . S
C386 C388 1.389 . S
C387 H366 0.950 . S
C387 C386 1.373 . S
C387 C403 1.377 . S
C388 C386 1.389 . S
C388 C389 1.524 . S
C388 C402 1.377 . S
C389 C388 1.524 . S
C389 C390 1.397 . S
C389 C394 1.363 . S
C390 H367 0.950 . S
C390 C389 1.397 . S
C390 C391 1.334 . S
C391 H368 0.950 . S
C391 C390 1.334 . S
C391 C392 1.287 . S
C392 C391 1.287 . S
C392 C393 1.524 . S
C392 H411 0.913 1_554 S
C393 H369 0.950 . S
C393 C392 1.524 . S
C393 C394 1.415 . S
C394 H370 0.950 . S
C394 C389 1.363 . S
C394 C393 1.415 . S
C395 H371 0.951 . S
C395 C396 1.366 . S
C395 C397 1.388 . S
C396 C395 1.366 . S
C396 C400 1.385 . S
C397 H372 0.951 . S
C397 C395 1.388 . S
C397 C398 1.366 . S
C398 C397 1.366 . S
C398 C399 1.414 . S
C398 C401 1.499 . S
C399 H373 0.950 . S
C399 C398 1.414 . S
C399 C400 1.374 . S
C400 H374 0.950 . S
C400 C396 1.385 . S
C400 C399 1.374 . S
C401 C398 1.499 . S
C401 C402 1.373 . S
C401 C403 1.389 . S
C402 H375 0.950 . S
C402 C388 1.377 . S
C402 C401 1.373 . S
C403 C387 1.377 . S
C403 C401 1.389 . S
C403 C404 1.524 . S
C404 C403 1.524 . S
C404 C405 1.397 . S
C404 C409 1.363 . S
C405 H376 0.950 . S
C405 C404 1.397 . S
C405 C406 1.334 . S
C406 H377 0.950 . S
C406 C405 1.334 . S
C406 C407 1.287 . S
C407 C406 1.287 . S
C407 C408 1.524 . S
C407 H410 0.999 . S
C408 H378 0.950 . S
C408 C407 1.524 . S
C408 C409 1.415 . S
C409 H379 0.950 . S
C409 C404 1.363 . S
C409 C408 1.415 . S
H410 C407 0.999 . S
H411 C392 0.913 1_556 S
H412 C430 0.951 . S
H413 C432 0.951 . S
H414 C434 0.950 . S
H415 C435 0.950 . S
H416 C437 0.950 . S
H417 C440 0.950 . S
H418 C441 0.950 . S
H419 C443 0.950 . S
H420 C444 0.950 . S
H421 C445 0.951 . S
H422 C447 0.951 . S
H423 C449 0.950 . S
H424 C450 0.950 . S
H425 C452 0.950 . S
H426 C455 0.950 . S
H427 C456 0.950 . S
H428 C458 0.950 . S
H429 C459 0.950 . S
C430 H412 0.951 . S
C430 C431 1.366 . S
C430 C432 1.388 . S
C431 C430 1.366 . S
C431 C435 1.385 . S
C432 H413 0.951 . S
C432 C430 1.388 . S
C432 C433 1.366 . S
C433 C432 1.366 . S
C433 C434 1.414 . S
C433 C436 1.499 . S
C434 H414 0.950 . S
C434 C433 1.414 . S
C434 C435 1.374 . S
C435 H415 0.950 . S
C435 C431 1.385 . S
C435 C434 1.374 . S
C436 C433 1.499 . S
C436 C437 1.373 . S
C436 C438 1.389 . S
C437 H416 0.950 . S
C437 C436 1.373 . S
C437 C453 1.377 . S
C438 C436 1.389 . S
C438 C439 1.524 . S
C438 C452 1.377 . S
C439 C438 1.524 . S
C439 C440 1.397 . S
C439 C444 1.363 . S
C440 H417 0.950 . S
C440 C439 1.397 . S
C440 C441 1.334 . S
C441 H418 0.950 . S
C441 C440 1.334 . S
C441 C442 1.287 . S
C442 C441 1.287 . S
C442 C443 1.524 . S
C442 H461 0.913 . S
C443 H419 0.950 . S
C443 C442 1.524 . S
C443 C444 1.415 . S
C444 H420 0.950 . S
C444 C439 1.363 . S
C444 C443 1.415 . S
C445 H421 0.951 . S
C445 C446 1.366 . S
C445 C447 1.388 . S
C446 C445 1.366 . S
C446 C450 1.385 . S
C447 H422 0.951 . S
C447 C445 1.388 . S
C447 C448 1.366 . S
C448 C447 1.366 . S
C448 C449 1.414 . S
C448 C451 1.499 . S
C449 H423 0.950 . S
C449 C448 1.414 . S
C449 C450 1.374 . S
C450 H424 0.950 . S
C450 C446 1.385 . S
C450 C449 1.374 . S
C451 C448 1.499 . S
C451 C452 1.373 . S
C451 C453 1.389 . S
C452 H425 0.950 . S
C452 C438 1.377 . S
C452 C451 1.373 . S
C453 C437 1.377 . S
C453 C451 1.389 . S
C453 C454 1.524 . S
C454 C453 1.524 . S
C454 C455 1.397 . S
C454 C459 1.363 . S
C455 H426 0.950 . S
C455 C454 1.397 . S
C455 C456 1.334 . S
C456 H427 0.950 . S
C456 C455 1.334 . S
C456 C457 1.287 . S
C457 C456 1.287 . S
C457 C458 1.524 . S
C457 H460 0.999 . S
C458 H428 0.950 . S
C458 C457 1.524 . S
C458 C459 1.415 . S
C459 H429 0.950 . S
C459 C454 1.363 . S
C459 C458 1.415 . S
H460 C457 0.999 . S
H461 C442 0.913 . S
H462 C480 0.951 . S
H463 C482 0.951 . S
H464 C484 0.950 . S
H465 C485 0.950 . S
H466 C487 0.950 . S
H467 C490 0.950 . S
H468 C491 0.971 . S
H469 C493 0.950 . S
H470 C494 0.950 . S
H471 C495 0.951 . S
H472 C497 0.951 . S
H473 C499 0.950 . S
H474 C500 0.950 . S
H475 C502 0.950 . S
H476 C505 0.950 . S
H477 C506 0.950 . S
H478 C508 0.950 . S
H479 C509 0.950 . S
C480 H462 0.951 . S
C480 C481 1.366 . S
C480 C482 1.388 . S
C481 C480 1.366 . S
C481 C485 1.385 1_455 S
C482 H463 0.951 . S
C482 C480 1.388 . S
C482 C483 1.366 . S
C483 C482 1.366 . S
C483 C484 1.414 1_455 S
C483 C486 1.499 . S
C484 H464 0.950 . S
C484 C483 1.414 1_655 S
C484 C485 1.374 . S
C485 H465 0.950 . S
C485 C481 1.385 1_655 S
C485 C484 1.374 . S
C486 C483 1.499 . S
C486 C487 1.373 1_455 S
C486 C488 1.389 . S
C487 H466 0.950 . S
C487 C486 1.373 1_655 S
C487 C503 1.377 . S
C488 C486 1.389 . S
C488 C489 1.524 . S
C488 C502 1.377 . S
C489 C488 1.524 . S
C489 C490 1.397 1_455 S
C489 C494 1.363 . S
C490 H467 0.950 . S
C490 C489 1.397 1_655 S
C490 C491 1.338 . S
C491 H468 0.971 . S
C491 C490 1.338 . S
C491 C492 1.263 1_655 S
C492 C491 1.263 1_455 S
C492 C493 1.524 . S
C492 H511 0.913 . S
C493 H469 0.950 . S
C493 C492 1.524 . S
C493 C494 1.415 . S
C494 H470 0.950 . S
C494 C489 1.363 . S
C494 C493 1.415 . S
C495 H471 0.951 . S
C495 C496 1.366 1_655 S
C495 C497 1.388 . S
C496 C495 1.366 1_455 S
C496 C500 1.385 . S
C497 H472 0.951 . S
C497 C495 1.388 . S
C497 C498 1.366 1_655 S
C498 C497 1.366 1_455 S
C498 C499 1.414 . S
C498 C501 1.499 . S
C499 H473 0.950 . S
C499 C498 1.414 . S
C499 C500 1.374 . S
C500 H474 0.950 . S
C500 C496 1.385 . S
C500 C499 1.374 . S
C501 C498 1.499 . S
C501 C502 1.373 . S
C501 C503 1.389 1_455 S
C502 H475 0.950 . S
C502 C488 1.377 . S
C502 C501 1.373 . S
C503 C487 1.377 . S
C503 C501 1.389 1_655 S
C503 C504 1.524 . S
C504 C503 1.524 . S
C504 C505 1.397 1_655 S
C504 C509 1.363 . S
C505 H476 0.950 . S
C505 C504 1.397 1_455 S
C505 C506 1.334 . S
C506 H477 0.950 . S
C506 C505 1.334 . S
C506 C507 1.287 1_455 S
C507 C506 1.287 1_655 S
C507 C508 1.524 . S
C507 H510 0.999 . S
C508 H478 0.950 . S
C508 C507 1.524 . S
C508 C509 1.415 . S
C509 H479 0.950 . S
C509 C504 1.363 . S
C509 C508 1.415 . S
H510 C507 0.999 . S
H511 C492 0.913 . S
H512 C530 0.951 . S
H513 C532 0.951 . S
H514 C534 0.950 . S
H515 C535 0.950 . S
H516 C537 0.950 . S
H517 C540 0.950 . S
H518 C541 0.950 . S
H519 C543 0.950 . S
H520 C544 0.950 . S
H521 C545 0.951 . S
H522 C547 0.951 . S
H523 C549 0.950 . S
H524 C550 0.950 . S
H525 C552 0.950 . S
H526 C555 0.950 1_556 S
H527 C556 0.950 1_556 S
H528 C558 0.950 . S
H529 C559 0.950 . S
C530 H512 0.951 . S
C530 C531 1.354 1_545 S
C530 C532 1.388 . S
C531 C530 1.354 1_565 S
C531 C535 1.401 . S
C532 H513 0.951 . S
C532 C530 1.388 . S
C532 C533 1.366 1_545 S
C533 C532 1.366 1_565 S
C533 C534 1.414 . S
C533 C536 1.499 . S
C534 H514 0.950 . S
C534 C533 1.414 . S
C534 C535 1.374 . S
C535 H515 0.950 . S
C535 C531 1.401 . S
C535 C534 1.374 . S
C536 C533 1.499 . S
C536 C537 1.373 1_565 S
C536 C538 1.389 . S
C537 H516 0.950 . S
C537 C536 1.373 1_545 S
C537 C553 1.377 . S
C538 C536 1.389 . S
C538 C539 1.524 1_554 S
C538 C552 1.377 1_554 S
C539 C538 1.524 1_556 S
C539 C540 1.397 1_556 S
C539 C544 1.363 . S
C540 H517 0.950 . S
C540 C539 1.397 1_554 S
C540 C541 1.334 . S
C541 H518 0.950 . S
C541 C540 1.334 . S
C541 C542 1.287 1_554 S
C542 C541 1.287 1_556 S
C542 C543 1.524 . S
C542 H561 0.913 . S
C543 H519 0.950 . S
C543 C542 1.524 . S
C543 C544 1.415 . S
C544 H520 0.950 . S
C544 C539 1.363 . S
C544 C543 1.415 . S
C545 H521 0.951 . S
C545 C546 1.369 . S
C545 C547 1.388 . S
C546 C545 1.369 . S
C546 C550 1.381 1_565 S
C547 H522 0.951 . S
C547 C545 1.388 . S
C547 C548 1.360 1_565 S
C548 C547 1.360 1_545 S
C548 C549 1.419 . S
C548 C551 1.499 . S
C549 H523 0.950 . S
C549 C548 1.419 . S
C549 C550 1.374 . S
C550 H524 0.950 . S
C550 C546 1.381 1_545 S
C550 C549 1.374 . S
C551 C548 1.499 . S
C551 C552 1.355 1_545 S
C551 C553 1.406 1_556 S
C552 H525 0.950 . S
C552 C538 1.377 1_556 S
C552 C551 1.355 1_565 S
C553 C537 1.377 . S
C553 C551 1.406 1_554 S
C553 C554 1.524 . S
C554 C553 1.524 . S
C554 C555 1.397 . S
C554 C559 1.363 . S
C555 H526 0.950 1_554 S
C555 C554 1.397 . S
C555 C556 1.334 . S
C556 H527 0.950 1_554 S
C556 C555 1.334 . S
C556 C557 1.287 . S
C557 C556 1.287 . S
C557 C558 1.524 . S
C557 H560 0.999 . S
C558 H528 0.950 . S
C558 C557 1.524 . S
C558 C559 1.415 . S
C559 H529 0.950 . S
C559 C554 1.363 . S
C559 C558 1.415 . S
H560 C557 0.999 . S
H561 C542 0.913 . S
H562 C580 0.951 . S
H563 C582 0.951 . S
H564 C584 0.950 . S
H565 C585 0.950 . S
H566 C587 0.950 . S
H567 C590 0.950 1_554 S
H568 C591 0.950 . S
H569 C593 0.950 . S
H570 C594 0.950 . S
H571 C595 0.951 . S
H572 C597 0.951 . S
H573 C599 0.950 . S
H574 C600 0.950 . S
H575 C602 0.950 . S
H576 C605 0.950 . S
H577 C606 0.950 . S
H578 C608 0.950 . S
H579 C609 0.950 . S
C580 H562 0.951 . S
C580 C581 1.366 . S
C580 C582 1.388 . S
C581 C580 1.366 . S
C581 C585 1.385 . S
C582 H563 0.951 . S
C582 C580 1.388 . S
C582 C583 1.366 . S
C583 C582 1.366 . S
C583 C584 1.414 . S
C583 C586 1.499 . S
C584 H564 0.950 . S
C584 C583 1.414 . S
C584 C585 1.374 . S
C585 H565 0.950 . S
C585 C581 1.385 . S
C585 C584 1.374 . S
C586 C583 1.499 . S
C586 C587 1.373 . S
C586 C588 1.389 1_554 S
C587 H566 0.950 . S
C587 C586 1.373 . S
C587 C603 1.377 . S
C588 C586 1.389 1_556 S
C588 C589 1.524 . S
C588 C602 1.377 . S
C589 C588 1.524 . S
C589 C590 1.397 . S
C589 C594 1.363 . S
C590 H567 0.950 1_556 S
C590 C589 1.397 . S
C590 C591 1.334 . S
C591 H568 0.950 . S
C591 C590 1.334 . S
C591 C592 1.287 . S
C592 C591 1.287 . S
C592 C593 1.524 . S
C592 H611 0.913 . S
C593 H569 0.950 . S
C593 C592 1.524 . S
C593 C594 1.415 . S
C594 H570 0.950 . S
C594 C589 1.363 . S
C594 C593 1.415 . S
C595 H571 0.951 . S
C595 C596 1.366 . S
C595 C597 1.388 . S
C596 C595 1.366 . S
C596 C600 1.385 . S
C597 H572 0.951 . S
C597 C595 1.388 . S
C597 C598 1.366 . S
C598 C597 1.366 . S
C598 C599 1.414 . S
C598 C601 1.499 . S
C599 H573 0.950 . S
C599 C598 1.414 . S
C599 C600 1.374 . S
C600 H574 0.950 . S
C600 C596 1.385 . S
C600 C599 1.374 . S
C601 C598 1.499 . S
C601 C602 1.373 . S
C601 C603 1.389 1_556 S
C602 H575 0.950 . S
C602 C588 1.377 . S
C602 C601 1.373 . S
C603 C587 1.377 . S
C603 C601 1.389 1_554 S
C603 C604 1.524 . S
C604 C603 1.524 . S
C604 C605 1.397 . S
C604 C609 1.363 . S
C605 H576 0.950 . S
C605 C604 1.397 . S
C605 C606 1.334 . S
C606 H577 0.950 . S
C606 C605 1.334 . S
C606 C607 1.287 . S
C607 C606 1.287 . S
C607 C608 1.524 . S
C607 H610 0.999 . S
C608 H578 0.950 . S
C608 C607 1.524 . S
C608 C609 1.415 . S
C609 H579 0.950 . S
C609 C604 1.363 . S
C609 C608 1.415 . S
H610 C607 0.999 . S
H611 C592 0.913 . S
H612 C630 0.951 . S
H613 C632 0.951 . S
H614 C634 0.950 . S
H615 C635 0.950 . S
H616 C637 0.950 . S
H617 C640 0.950 . S
H618 C641 0.950 . S
H619 C643 0.950 . S
H620 C644 0.950 . S
H621 C645 0.951 . S
H622 C647 0.951 . S
H623 C649 0.960 . S
H624 C650 0.950 . S
H625 C652 0.950 . S
H626 C655 0.950 . S
H627 C656 0.950 . S
H628 C658 0.950 . S
H629 C659 0.950 . S
C630 H612 0.951 . S
C630 C631 1.366 . S
C630 C632 1.388 . S
C631 C630 1.366 . S
C631 C635 1.385 . S
C632 H613 0.951 . S
C632 C630 1.388 . S
C632 C633 1.366 . S
C633 C632 1.366 . S
C633 C634 1.414 . S
C633 C636 1.499 . S
C634 H614 0.950 . S
C634 C633 1.414 . S
C634 C635 1.374 . S
C635 H615 0.950 . S
C635 C631 1.385 . S
C635 C634 1.374 . S
C636 C633 1.499 . S
C636 C637 1.373 . S
C636 C638 1.389 . S
C637 H616 0.950 . S
C637 C636 1.373 . S
C637 C653 1.377 1_554 S
C638 C636 1.389 . S
C638 C639 1.524 . S
C638 C652 1.377 . S
C639 C638 1.524 . S
C639 C640 1.397 . S
C639 C644 1.363 . S
C640 H617 0.950 . S
C640 C639 1.397 . S
C640 C641 1.334 . S
C641 H618 0.950 . S
C641 C640 1.334 . S
C641 C642 1.287 . S
C642 C641 1.287 . S
C642 C643 1.524 . S
C642 H661 0.913 . S
C643 H619 0.950 . S
C643 C642 1.524 . S
C643 C644 1.415 . S
C644 H620 0.950 . S
C644 C639 1.363 . S
C644 C643 1.415 . S
C645 H621 0.951 . S
C645 C646 1.366 . S
C645 C647 1.388 . S
C646 C645 1.366 . S
C646 C650 1.385 . S
C647 H622 0.951 . S
C647 C645 1.388 . S
C647 C648 1.366 . S
C648 C647 1.366 . S
C648 C649 1.414 . S
C648 C651 1.499 . S
C649 H623 0.960 . S
C649 C648 1.414 . S
C649 C650 1.374 . S
C650 H624 0.950 . S
C650 C646 1.385 . S
C650 C649 1.374 . S
C651 C648 1.499 . S
C651 C652 1.373 1_556 S
C651 C653 1.389 . S
C652 H625 0.950 . S
C652 C638 1.377 . S
C652 C651 1.373 1_554 S
C653 C637 1.377 1_556 S
C653 C651 1.389 . S
C653 C654 1.524 . S
C654 C653 1.524 . S
C654 C655 1.397 . S
C654 C659 1.363 . S
C655 H626 0.950 . S
C655 C654 1.397 . S
C655 C656 1.334 . S
C656 H627 0.950 . S
C656 C655 1.334 . S
C656 C657 1.287 . S
C657 C656 1.287 . S
C657 C658 1.524 . S
C657 H660 0.999 . S
C658 H628 0.950 . S
C658 C657 1.524 . S
C658 C659 1.415 . S
C659 H629 0.950 . S
C659 C654 1.363 . S
C659 C658 1.415 . S
H660 C657 0.999 . S
H661 C642 0.913 . S
H662 C680 0.951 . S
H663 C682 0.951 . S
H664 C684 0.950 . S
H665 C685 0.950 . S
H666 C687 0.950 . S
H667 C690 0.950 . S
H668 C691 0.950 1_554 S
H669 C693 0.950 . S
H670 C694 0.950 . S
H671 C695 0.951 . S
H672 C697 0.951 . S
H673 C699 0.950 . S
H674 C700 0.950 . S
H675 C702 0.950 . S
H676 C705 0.950 1_556 S
H677 C706 0.950 . S
H678 C708 0.950 . S
H679 C709 0.950 . S
C680 H662 0.951 . S
C680 C681 1.349 1_455 S
C680 C682 1.388 . S
C681 C680 1.349 1_655 S
C681 C685 1.404 . S
C682 H663 0.951 . S
C682 C680 1.388 . S
C682 C683 1.366 1_455 S
C683 C682 1.366 1_655 S
C683 C684 1.414 . S
C683 C686 1.499 . S
C684 H664 0.950 . S
C684 C683 1.414 . S
C684 C685 1.374 . S
C685 H665 0.950 . S
C685 C681 1.404 . S
C685 C684 1.374 . S
C686 C683 1.499 . S
C686 C687 1.373 1_655 S
C686 C688 1.389 1_554 S
C687 H666 0.950 . S
C687 C686 1.373 1_455 S
C687 C703 1.377 . S
C688 C686 1.389 1_556 S
C688 C689 1.524 . S
C688 C702 1.377 . S
C689 C688 1.524 . S
C689 C690 1.397 1_556 S
C689 C694 1.363 . S
C690 H667 0.950 . S
C690 C689 1.397 1_554 S
C690 C691 1.334 1_554 S
C691 H668 0.950 1_556 S
C691 C690 1.334 1_556 S
C691 C692 1.287 . S
C692 C691 1.287 . S
C692 C693 1.524 . S
C692 H711 0.913 . S
C693 H669 0.950 . S
C693 C692 1.524 . S
C693 C694 1.415 . S
C694 H670 0.950 . S
C694 C689 1.363 . S
C694 C693 1.415 . S
C695 H671 0.951 . S
C695 C696 1.367 . S
C695 C697 1.388 . S
C696 C695 1.367 . S
C696 C700 1.383 1_655 S
C697 H672 0.951 . S
C697 C695 1.388 . S
C697 C698 1.353 1_655 S
C698 C697 1.353 1_455 S
C698 C699 1.426 . S
C698 C701 1.499 . S
C699 H673 0.950 . S
C699 C698 1.426 . S
C699 C700 1.374 . S
C700 H674 0.950 . S
C700 C696 1.383 1_455 S
C700 C699 1.374 . S
C701 C698 1.499 . S
C701 C702 1.353 1_455 S
C701 C703 1.408 1_556 S
C702 H675 0.950 . S
C702 C688 1.377 . S
C702 C701 1.353 1_655 S
C703 C687 1.377 . S
C703 C701 1.408 1_554 S
C703 C704 1.524 . S
C704 C703 1.524 . S
C704 C705 1.397 . S
C704 C709 1.363 . S
C705 H676 0.950 1_554 S
C705 C704 1.397 . S
C705 C706 1.334 . S
C706 H677 0.950 . S
C706 C705 1.334 . S
C706 C707 1.287 . S
C707 C706 1.287 . S
C707 C708 1.524 . S
C707 H710 0.999 . S
C708 H678 0.950 . S
C708 C707 1.524 . S
C708 C709 1.415 . S
C709 H679 0.950 . S
C709 C704 1.363 . S
C709 C708 1.415 . S
H710 C707 0.999 . S
H711 C692 0.913 . S
H712 C730 0.951 1_556 S
H713 C732 0.951 . S
H714 C734 0.950 . S
H715 C735 0.950 . S
H716 C737 0.950 . S
H717 C740 0.950 . S
H718 C741 0.950 . S
H719 C743 0.950 . S
H720 C744 0.950 . S
H721 C745 0.951 . S
H722 C747 0.951 . S
H723 C749 0.950 . S
H724 C750 0.950 . S
H725 C752 0.950 . S
H726 C755 0.950 . S
H727 C756 0.950 . S
H728 C758 0.950 . S
H729 C759 0.950 . S
C730 H712 0.951 1_554 S
C730 C731 1.366 1_655 S
C730 C732 1.388 . S
C731 C730 1.366 1_455 S
C731 C735 1.385 . S
C732 H713 0.951 . S
C732 C730 1.388 . S
C732 C733 1.366 . S
C733 C732 1.366 . S
C733 C734 1.414 1_655 S
C733 C736 1.499 . S
C734 H714 0.950 . S
C734 C733 1.414 1_455 S
C734 C735 1.374 . S
C735 H715 0.950 . S
C735 C731 1.385 . S
C735 C734 1.374 . S
C736 C733 1.499 . S
C736 C737 1.373 1_655 S
C736 C738 1.389 . S
C737 H716 0.950 . S
C737 C736 1.373 1_455 S
C737 C753 1.377 . S
C738 C736 1.389 . S
C738 C739 1.524 . S
C738 C752 1.377 . S
C739 C738 1.524 . S
C739 C740 1.397 . S
C739 C744 1.363 . S
C740 H717 0.950 . S
C740 C739 1.397 . S
C740 C741 1.334 . S
C741 H718 0.950 . S
C741 C740 1.334 . S
C741 C742 1.287 . S
C742 C741 1.287 . S
C742 C743 1.524 . S
C742 H761 0.913 . S
C743 H719 0.950 . S
C743 C742 1.524 . S
C743 C744 1.415 . S
C744 H720 0.950 . S
C744 C739 1.363 . S
C744 C743 1.415 . S
C745 H721 0.951 . S
C745 C746 1.366 . S
C745 C747 1.388 . S
C746 C745 1.366 . S
C746 C750 1.385 . S
C747 H722 0.951 . S
C747 C745 1.388 . S
C747 C748 1.366 . S
C748 C747 1.366 . S
C748 C749 1.414 . S
C748 C751 1.499 . S
C749 H723 0.950 . S
C749 C748 1.414 . S
C749 C750 1.374 . S
C750 H724 0.950 . S
C750 C746 1.385 . S
C750 C749 1.374 . S
C751 C748 1.499 . S
C751 C752 1.373 . S
C751 C753 1.389 1_655 S
C752 H725 0.950 . S
C752 C738 1.377 . S
C752 C751 1.373 . S
C753 C737 1.377 . S
C753 C751 1.389 1_455 S
C753 C754 1.524 . S
C754 C753 1.524 . S
C754 C755 1.397 . S
C754 C759 1.363 . S
C755 H726 0.950 . S
C755 C754 1.397 . S
C755 C756 1.334 . S
C756 H727 0.950 . S
C756 C755 1.334 . S
C756 C757 1.287 . S
C757 C756 1.287 . S
C757 C758 1.524 . S
C757 H760 0.999 . S
C758 H728 0.950 . S
C758 C757 1.524 . S
C758 C759 1.415 . S
C759 H729 0.950 . S
C759 C754 1.363 . S
C759 C758 1.415 . S
H760 C757 0.999 . S
H761 C742 0.913 . S
H762 C780 0.951 . S
H763 C782 0.951 . S
H764 C784 0.950 . S
H765 C785 0.950 . S
H766 C787 0.950 . S
H767 C790 0.950 . S
H768 C791 0.950 . S
H769 C793 0.950 . S
H770 C794 0.950 . S
H771 C795 0.951 . S
H772 C797 0.951 1_545 S
H773 C799 0.950 . S
H774 C800 0.950 . S
H775 C802 0.950 . S
H776 C805 0.950 . S
H777 C806 0.950 . S
H778 C808 0.950 1_556 S
H779 C809 0.950 1_545 S
C780 H762 0.951 . S
C780 C781 1.366 1_565 S
C780 C782 1.388 . S
C781 C780 1.366 1_545 S
C781 C785 1.385 . S
C782 H763 0.951 . S
C782 C780 1.388 . S
C782 C783 1.366 . S
C783 C782 1.366 . S
C783 C784 1.414 1_565 S
C783 C786 1.499 . S
C784 H764 0.950 . S
C784 C783 1.414 1_545 S
C784 C785 1.374 . S
C785 H765 0.950 . S
C785 C781 1.385 . S
C785 C784 1.374 . S
C786 C783 1.499 . S
C786 C787 1.373 . S
C786 C788 1.389 . S
C787 H766 0.950 . S
C787 C786 1.373 . S
C787 C803 1.377 . S
C788 C786 1.389 . S
C788 C789 1.517 1_565 S
C788 C802 1.377 . S
C789 C788 1.517 1_545 S
C789 C790 1.425 . S
C789 C794 1.345 1_545 S
C790 H767 0.950 . S
C790 C789 1.425 . S
C790 C791 1.334 . S
C791 H768 0.950 . S
C791 C790 1.334 . S
C791 C792 1.287 . S
C792 C791 1.287 . S
C792 C793 1.524 1_545 S
C792 H811 0.913 . S
C793 H769 0.950 . S
C793 C792 1.524 1_565 S
C793 C794 1.415 . S
C794 H770 0.950 . S
C794 C789 1.345 1_565 S
C794 C793 1.415 . S
C795 H771 0.951 . S
C795 C796 1.366 . S
C795 C797 1.388 . S
C796 C795 1.366 . S
C796 C800 1.385 . S
C797 H772 0.951 1_565 S
C797 C795 1.388 . S
C797 C798 1.366 . S
C798 C797 1.366 . S
C798 C799 1.414 . S
C798 C801 1.499 . S
C799 H773 0.950 . S
C799 C798 1.414 . S
C799 C800 1.374 . S
C800 H774 0.950 . S
C800 C796 1.385 . S
C800 C799 1.374 . S
C801 C798 1.499 . S
C801 C802 1.373 . S
C801 C803 1.389 . S
C802 H775 0.950 . S
C802 C788 1.377 . S
C802 C801 1.373 . S
C803 C787 1.377 . S
C803 C801 1.389 . S
C803 C804 1.524 . S
C804 C803 1.524 . S
C804 C805 1.397 . S
C804 C809 1.363 . S
C805 H776 0.950 . S
C805 C804 1.397 . S
C805 C806 1.334 . S
C806 H777 0.950 . S
C806 C805 1.334 . S
C806 C807 1.287 . S
C807 C806 1.287 . S
C807 C808 1.524 . S
C807 H810 0.999 1_554 S
C808 H778 0.950 1_554 S
C808 C807 1.524 . S
C808 C809 1.415 . S
C809 H779 0.950 1_565 S
C809 C804 1.363 . S
C809 C808 1.415 . S
H810 C807 0.999 1_556 S
H811 C792 0.913 . S
H812 C830 0.951 . S
H813 C832 0.951 . S
H814 C834 0.950 . S
H815 C835 0.950 1_556 S
H816 C837 0.950 . S
H817 C840 0.950 . S
H818 C841 0.950 . S
H819 C843 0.950 . S
H820 C844 0.950 . S
H821 C845 0.951 . S
H822 C847 0.951 . S
H823 C849 0.950 . S
H824 C850 0.950 . S
H825 C852 0.950 . S
H826 C855 0.950 . S
H827 C856 0.950 . S
H828 C858 0.950 . S
H829 C859 0.950 . S
C830 H812 0.951 . S
C830 C831 1.366 . S
C830 C832 1.388 . S
C831 C830 1.366 . S
C831 C835 1.385 . S
C832 H813 0.951 . S
C832 C830 1.388 . S
C832 C833 1.366 . S
C833 C832 1.366 . S
C833 C834 1.414 . S
C833 C836 1.499 . S
C834 H814 0.950 . S
C834 C833 1.414 . S
C834 C835 1.374 . S
C835 H815 0.950 1_554 S
C835 C831 1.385 . S
C835 C834 1.374 . S
C836 C833 1.499 . S
C836 C837 1.373 . S
C836 C838 1.389 . S
C837 H816 0.950 . S
C837 C836 1.373 . S
C837 C853 1.377 . S
C838 C836 1.389 . S
C838 C839 1.524 . S
C838 C852 1.377 . S
C839 C838 1.524 . S
C839 C840 1.397 . S
C839 C844 1.363 . S
C840 H817 0.950 . S
C840 C839 1.397 . S
C840 C841 1.334 . S
C841 H818 0.950 . S
C841 C840 1.334 . S
C841 C842 1.287 . S
C842 C841 1.287 . S
C842 C843 1.524 . S
C842 H861 0.913 . S
C843 H819 0.950 . S
C843 C842 1.524 . S
C843 C844 1.415 . S
C844 H820 0.950 . S
C844 C839 1.363 . S
C844 C843 1.415 . S
C845 H821 0.951 . S
C845 C846 1.366 . S
C845 C847 1.388 . S
C846 C845 1.366 . S
C846 C850 1.385 . S
C847 H822 0.951 . S
C847 C845 1.388 . S
C847 C848 1.366 . S
C848 C847 1.366 . S
C848 C849 1.414 . S
C848 C851 1.499 . S
C849 H823 0.950 . S
C849 C848 1.414 . S
C849 C850 1.374 . S
C850 H824 0.950 . S
C850 C846 1.385 . S
C850 C849 1.374 . S
C851 C848 1.499 . S
C851 C852 1.373 . S
C851 C853 1.389 . S
C852 H825 0.950 . S
C852 C838 1.377 . S
C852 C851 1.373 . S
C853 C837 1.377 . S
C853 C851 1.389 . S
C853 C854 1.524 . S
C854 C853 1.524 . S
C854 C855 1.397 . S
C854 C859 1.363 . S
C855 H826 0.950 . S
C855 C854 1.397 . S
C855 C856 1.334 . S
C856 H827 0.950 . S
C856 C855 1.334 . S
C856 C857 1.287 . S
C857 C856 1.287 . S
C857 C858 1.524 . S
C857 H860 0.999 . S
C858 H828 0.950 . S
C858 C857 1.524 . S
C858 C859 1.415 . S
C859 H829 0.950 . S
C859 C854 1.363 . S
C859 C858 1.415 . S
H860 C857 0.999 . S
H861 C842 0.913 . S
H862 C880 0.951 . S
H863 C882 0.951 . S
H864 C884 0.950 . S
H865 C885 0.950 . S
H866 C887 0.950 . S
H867 C890 0.950 . S
H868 C891 0.950 . S
H869 C893 0.950 . S
H870 C894 0.950 . S
H871 C895 0.951 . S
H872 C897 0.951 . S
H873 C899 0.950 . S
H874 C900 0.950 . S
H875 C902 0.950 . S
H876 C905 0.950 . S
H877 C906 0.950 . S
H878 C908 0.950 . S
H879 C909 0.950 . S
C880 H862 0.951 . S
C880 C881 1.366 . S
C880 C882 1.388 . S
C881 C880 1.366 . S
C881 C885 1.385 . S
C882 H863 0.951 . S
C882 C880 1.388 . S
C882 C883 1.366 . S
C883 C882 1.366 . S
C883 C884 1.414 . S
C883 C886 1.499 . S
C884 H864 0.950 . S
C884 C883 1.414 . S
C884 C885 1.374 . S
C885 H865 0.950 . S
C885 C881 1.385 . S
C885 C884 1.374 . S
C886 C883 1.499 . S
C886 C887 1.373 . S
C886 C888 1.389 . S
C887 H866 0.950 . S
C887 C886 1.373 . S
C887 C903 1.377 . S
C888 C886 1.389 . S
C888 C889 1.524 . S
C888 C902 1.377 . S
C889 C888 1.524 . S
C889 C890 1.397 . S
C889 C894 1.363 . S
C890 H867 0.950 . S
C890 C889 1.397 . S
C890 C891 1.334 1_554 S
C891 H868 0.950 . S
C891 C890 1.334 1_556 S
C891 C892 1.287 . S
C892 C891 1.287 . S
C892 C893 1.524 1_556 S
C892 H911 0.913 . S
C893 H869 0.950 . S
C893 C892 1.524 1_554 S
C893 C894 1.415 . S
C894 H870 0.950 . S
C894 C889 1.363 . S
C894 C893 1.415 . S
C895 H871 0.951 . S
C895 C896 1.366 . S
C895 C897 1.388 . S
C896 C895 1.366 . S
C896 C900 1.385 . S
C897 H872 0.951 . S
C897 C895 1.388 . S
C897 C898 1.366 . S
C898 C897 1.366 . S
C898 C899 1.414 . S
C898 C901 1.499 . S
C899 H873 0.950 . S
C899 C898 1.414 . S
C899 C900 1.374 . S
C900 H874 0.950 . S
C900 C896 1.385 . S
C900 C899 1.374 . S
C901 C898 1.499 . S
C901 C902 1.373 . S
C901 C903 1.389 . S
C902 H875 0.950 . S
C902 C888 1.377 . S
C902 C901 1.373 . S
C903 C887 1.377 . S
C903 C901 1.389 . S
C903 C904 1.524 . S
C904 C903 1.524 . S
C904 C905 1.397 . S
C904 C909 1.363 . S
C905 H876 0.950 . S
C905 C904 1.397 . S
C905 C906 1.334 . S
C906 H877 0.950 . S
C906 C905 1.334 . S
C906 C907 1.287 . S
C907 C906 1.287 . S
C907 C908 1.524 . S
C907 H910 0.999 . S
C908 H878 0.950 . S
C908 C907 1.524 . S
C908 C909 1.415 . S
C909 H879 0.950 . S
C909 C904 1.363 . S
C909 C908 1.415 . S
H910 C907 0.999 . S
H911 C892 0.913 . S
H912 C930 0.951 . S
H913 C932 0.951 . S
H914 C934 0.950 . S
H915 C935 0.950 . S
H916 C937 0.950 . S
H917 C940 0.950 . S
H918 C941 0.950 . S
H919 C943 0.950 . S
H920 C944 0.950 . S
H921 C945 0.951 . S
H922 C947 0.951 . S
H923 C949 0.950 . S
H924 C950 0.950 . S
H925 C952 0.950 1_655 S
H926 C955 0.950 . S
H927 C956 0.950 . S
H928 C958 0.950 . S
H929 C959 0.950 . S
C930 H912 0.951 . S
C930 C931 1.366 1_455 S
C930 C932 1.388 . S
C931 C930 1.366 1_655 S
C931 C935 1.385 . S
C932 H913 0.951 . S
C932 C930 1.388 . S
C932 C933 1.366 . S
C933 C932 1.366 . S
C933 C934 1.414 1_455 S
C933 C936 1.499 . S
C934 H914 0.950 . S
C934 C933 1.414 1_655 S
C934 C935 1.374 . S
C935 H915 0.950 . S
C935 C931 1.385 . S
C935 C934 1.374 . S
C936 C933 1.499 . S
C936 C937 1.373 . S
C936 C938 1.368 1_455 S
C937 H916 0.950 . S
C937 C936 1.373 . S
C937 C953 1.377 . S
C938 C936 1.368 1_655 S
C938 C939 1.565 . S
C938 C952 1.364 1_655 S
C939 C938 1.565 . S
C939 C940 1.397 . S
C939 C944 1.363 . S
C940 H917 0.950 . S
C940 C939 1.397 . S
C940 C941 1.334 . S
C941 H918 0.950 . S
C941 C940 1.334 . S
C941 C942 1.287 . S
C942 C941 1.287 . S
C942 C943 1.524 . S
C942 H961 0.913 . S
C943 H919 0.950 . S
C943 C942 1.524 . S
C943 C944 1.415 . S
C944 H920 0.950 . S
C944 C939 1.363 . S
C944 C943 1.415 . S
C945 H921 0.951 . S
C945 C946 1.366 . S
C945 C947 1.388 . S
C946 C945 1.366 . S
C946 C950 1.385 1_556 S
C947 H922 0.951 . S
C947 C945 1.388 . S
C947 C948 1.366 1_556 S
C948 C947 1.366 1_554 S
C948 C949 1.414 . S
C948 C951 1.499 . S
C949 H923 0.950 . S
C949 C948 1.414 . S
C949 C950 1.374 . S
C950 H924 0.950 . S
C950 C946 1.385 1_554 S
C950 C949 1.374 . S
C951 C948 1.499 . S
C951 C952 1.373 . S
C951 C953 1.389 . S
C952 H925 0.950 1_455 S
C952 C938 1.364 1_455 S
C952 C951 1.373 . S
C953 C937 1.377 . S
C953 C951 1.389 . S
C953 C954 1.524 1_554 S
C954 C953 1.524 1_556 S
C954 C955 1.397 1_556 S
C954 C959 1.363 . S
C955 H926 0.950 . S
C955 C954 1.397 1_554 S
C955 C956 1.334 1_554 S
C956 H927 0.950 . S
C956 C955 1.334 1_556 S
C956 C957 1.287 . S
C957 C956 1.287 . S
C957 C958 1.524 . S
C957 H960 0.999 . S
C958 H928 0.950 . S
C958 C957 1.524 . S
C958 C959 1.415 . S
C959 H929 0.950 . S
C959 C954 1.363 . S
C959 C958 1.415 . S
H960 C957 0.999 . S
H961 C942 0.913 . S
H962 C980 0.951 . S
H963 C982 0.951 . S
H964 C984 0.950 . S
H965 C985 0.950 . S
H966 C987 0.950 . S
H967 C990 0.950 . S
H968 C991 0.950 . S
H969 C993 0.950 . S
H970 C994 0.950 . S
H971 C995 0.951 . S
H972 C997 0.951 1_565 S
H973 C999 0.950 . S
H974 C1000 0.950 . S
H975 C1002 0.950 . S
H976 C1005 0.950 . S
H977 C1006 0.950 . S
H978 C1008 0.950 1_565 S
H979 C1009 0.950 1_565 S
C980 H962 0.951 . S
C980 C981 1.366 1_545 S
C980 C982 1.388 . S
C981 C980 1.366 1_565 S
C981 C985 1.385 . S
C982 H963 0.951 . S
C982 C980 1.388 . S
C982 C983 1.366 . S
C983 C982 1.366 . S
C983 C984 1.414 1_545 S
C983 C986 1.499 . S
C984 H964 0.950 . S
C984 C983 1.414 1_565 S
C984 C985 1.374 . S
C985 H965 0.950 . S
C985 C981 1.385 . S
C985 C984 1.374 . S
C986 C983 1.499 . S
C986 C987 1.373 . S
C986 C988 1.389 . S
C987 H966 0.950 . S
C987 C986 1.373 . S
C987 C1003 1.377 . S
C988 C986 1.389 . S
C988 C989 1.524 . S
C988 C1002 1.377 . S
C989 C988 1.524 . S
C989 C990 1.397 1_545 S
C989 C994 1.363 . S
C990 H967 0.950 . S
C990 C989 1.397 1_565 S
C990 C991 1.334 . S
C991 H968 0.950 . S
C991 C990 1.334 . S
C991 C992 1.287 . S
C992 C991 1.287 . S
C992 C993 1.524 1_565 S
C992 H1011 0.913 . S
C993 H969 0.950 . S
C993 C992 1.524 1_545 S
C993 C994 1.415 . S
C994 H970 0.950 . S
C994 C989 1.363 . S
C994 C993 1.415 . S
C995 H971 0.951 . S
C995 C996 1.366 . S
C995 C997 1.388 . S
C996 C995 1.366 . S
C996 C1000 1.385 1_556 S
C997 H972 0.951 1_545 S
C997 C995 1.388 . S
C997 C998 1.366 1_556 S
C998 C997 1.366 1_554 S
C998 C999 1.414 . S
C998 C1001 1.499 . S
C999 H973 0.950 . S
C999 C998 1.414 . S
C999 C1000 1.374 . S
C1000 H974 0.950 . S
C1000 C996 1.385 1_554 S
C1000 C999 1.374 . S
C1001 C998 1.499 . S
C1001 C1002 1.373 . S
C1001 C1003 1.389 . S
C1002 H975 0.950 . S
C1002 C988 1.377 . S
C1002 C1001 1.373 . S
C1003 C987 1.377 . S
C1003 C1001 1.389 . S
C1003 C1004 1.524 1_554 S
C1004 C1003 1.524 1_556 S
C1004 C1005 1.397 . S
C1004 C1009 1.363 . S
C1005 H976 0.950 . S
C1005 C1004 1.397 . S
C1005 C1006 1.334 . S
C1006 H977 0.950 . S
C1006 C1005 1.334 . S
C1006 C1007 1.287 . S
C1007 C1006 1.287 . S
C1007 C1008 1.524 . S
C1007 H1010 0.999 . S
C1008 H978 0.950 1_545 S
C1008 C1007 1.524 . S
C1008 C1009 1.415 . S
C1009 H979 0.950 1_545 S
C1009 C1004 1.363 . S
C1009 C1008 1.415 . S
H1010 C1007 0.999 . S
H1011 C992 0.913 . S
H1012 C1030 0.951 . S
H1013 C1032 0.951 . S
H1014 C1034 0.950 . S
H1015 C1035 0.950 . S
H1016 C1037 0.950 . S
H1017 C1040 0.950 . S
H1018 C1041 0.950 1_556 S
H1019 C1043 0.950 . S
H1020 C1044 0.950 . S
H1021 C1045 0.951 . S
H1022 C1047 0.951 . S
H1023 C1049 0.950 . S
H1024 C1050 0.950 . S
H1025 C1052 0.950 . S
H1026 C1055 0.950 . S
H1027 C1056 0.950 . S
H1028 C1058 0.950 . S
H1029 C1059 0.950 . S
C1030 H1012 0.951 . S
C1030 C1031 1.366 . S
C1030 C1032 1.388 . S
C1031 C1030 1.366 . S
C1031 C1035 1.385 . S
C1032 H1013 0.951 . S
C1032 C1030 1.388 . S
C1032 C1033 1.366 . S
C1033 C1032 1.366 . S
C1033 C1034 1.414 . S
C1033 C1036 1.499 . S
C1034 H1014 0.950 . S
C1034 C1033 1.414 . S
C1034 C1035 1.374 . S
C1035 H1015 0.950 . S
C1035 C1031 1.385 . S
C1035 C1034 1.374 . S
C1036 C1033 1.499 . S
C1036 C1037 1.373 . S
C1036 C1038 1.389 . S
C1037 H1016 0.950 . S
C1037 C1036 1.373 . S
C1037 C1053 1.377 . S
C1038 C1036 1.389 . S
C1038 C1039 1.524 . S
C1038 C1052 1.377 . S
C1039 C1038 1.524 . S
C1039 C1040 1.397 . S
C1039 C1044 1.363 . S
C1040 H1017 0.950 . S
C1040 C1039 1.397 . S
C1040 C1041 1.334 . S
C1041 H1018 0.950 1_554 S
C1041 C1040 1.334 . S
C1041 C1042 1.287 . S
C1042 C1041 1.287 . S
C1042 C1043 1.524 . S
C1042 H1061 0.913 . S
C1043 H1019 0.950 . S
C1043 C1042 1.524 . S
C1043 C1044 1.415 . S
C1044 H1020 0.950 . S
C1044 C1039 1.363 . S
C1044 C1043 1.415 . S
C1045 H1021 0.951 . S
C1045 C1046 1.366 . S
C1045 C1047 1.388 1_556 S
C1046 C1045 1.366 . S
C1046 C1050 1.385 1_556 S
C1047 H1022 0.951 . S
C1047 C1045 1.388 1_554 S
C1047 C1048 1.366 . S
C1048 C1047 1.366 . S
C1048 C1049 1.414 . S
C1048 C1051 1.499 . S
C1049 H1023 0.950 . S
C1049 C1048 1.414 . S
C1049 C1050 1.374 . S
C1050 H1024 0.950 . S
C1050 C1046 1.385 1_554 S
C1050 C1049 1.374 . S
C1051 C1048 1.499 . S
C1051 C1052 1.373 . S
C1051 C1053 1.389 . S
C1052 H1025 0.950 . S
C1052 C1038 1.377 . S
C1052 C1051 1.373 . S
C1053 C1037 1.377 . S
C1053 C1051 1.389 . S
C1053 C1054 1.524 . S
C1054 C1053 1.524 . S
C1054 C1055 1.397 . S
C1054 C1059 1.363 . S
C1055 H1026 0.950 . S
C1055 C1054 1.397 . S
C1055 C1056 1.334 . S
C1056 H1027 0.950 . S
C1056 C1055 1.334 . S
C1056 C1057 1.287 . S
C1057 C1056 1.287 . S
C1057 C1058 1.524 . S
C1057 H1060 0.999 . S
C1058 H1028 0.950 . S
C1058 C1057 1.524 . S
C1058 C1059 1.415 . S
C1059 H1029 0.950 . S
C1059 C1054 1.363 . S
C1059 C1058 1.415 . S
H1060 C1057 0.999 . S
H1061 C1042 0.913 . S
H1062 C1080 0.951 . S
H1063 C1082 0.951 . S
H1064 C1084 0.950 . S
H1065 C1085 0.950 . S
H1066 C1087 0.950 . S
H1067 C1090 0.950 . S
H1068 C1091 0.950 . S
H1069 C1093 0.950 . S
H1070 C1094 0.950 . S
H1071 C1095 0.951 . S
H1072 C1097 0.951 . S
H1073 C1099 0.950 . S
H1074 C1100 0.950 . S
H1075 C1102 0.950 . S
H1076 C1105 0.950 . S
H1077 C1106 0.950 . S
H1078 C1108 0.950 . S
H1079 C1109 0.950 . S
C1080 H1062 0.951 . S
C1080 C1081 1.366 . S
C1080 C1082 1.388 . S
C1081 C1080 1.366 . S
C1081 C1085 1.385 . S
C1082 H1063 0.951 . S
C1082 C1080 1.388 . S
C1082 C1083 1.366 . S
C1083 C1082 1.366 . S
C1083 C1084 1.414 . S
C1083 C1086 1.499 . S
C1084 H1064 0.950 . S
C1084 C1083 1.414 . S
C1084 C1085 1.374 . S
C1085 H1065 0.950 . S
C1085 C1081 1.385 . S
C1085 C1084 1.374 . S
C1086 C1083 1.499 . S
C1086 C1087 1.373 . S
C1086 C1088 1.389 . S
C1087 H1066 0.950 . S
C1087 C1086 1.373 . S
C1087 C1103 1.377 . S
C1088 C1086 1.389 . S
C1088 C1089 1.524 . S
C1088 C1102 1.377 . S
C1089 C1088 1.524 . S
C1089 C1090 1.397 . S
C1089 C1094 1.363 . S
C1090 H1067 0.950 . S
C1090 C1089 1.397 . S
C1090 C1091 1.334 . S
C1091 H1068 0.950 . S
C1091 C1090 1.334 . S
C1091 C1092 1.287 . S
C1092 C1091 1.287 . S
C1092 C1093 1.524 . S
C1092 H1111 0.913 . S
C1093 H1069 0.950 . S
C1093 C1092 1.524 . S
C1093 C1094 1.415 . S
C1094 H1070 0.950 . S
C1094 C1089 1.363 . S
C1094 C1093 1.415 . S
C1095 H1071 0.951 . S
C1095 C1096 1.366 1_554 S
C1095 C1097 1.388 . S
C1096 C1095 1.366 1_556 S
C1096 C1100 1.385 . S
C1097 H1072 0.951 . S
C1097 C1095 1.388 . S
C1097 C1098 1.366 . S
C1098 C1097 1.366 . S
C1098 C1099 1.414 1_554 S
C1098 C1101 1.499 . S
C1099 H1073 0.950 . S
C1099 C1098 1.414 1_556 S
C1099 C1100 1.374 . S
C1100 H1074 0.950 . S
C1100 C1096 1.385 . S
C1100 C1099 1.374 . S
C1101 C1098 1.499 . S
C1101 C1102 1.373 . S
C1101 C1103 1.389 . S
C1102 H1075 0.950 . S
C1102 C1088 1.377 . S
C1102 C1101 1.373 . S
C1103 C1087 1.377 . S
C1103 C1101 1.389 . S
C1103 C1104 1.524 . S
C1104 C1103 1.524 . S
C1104 C1105 1.397 1_554 S
C1104 C1109 1.363 . S
C1105 H1076 0.950 . S
C1105 C1104 1.397 1_556 S
C1105 C1106 1.334 . S
C1106 H1077 0.950 . S
C1106 C1105 1.334 . S
C1106 C1107 1.287 . S
C1107 C1106 1.287 . S
C1107 C1108 1.524 1_556 S
C1107 H1110 0.999 . S
C1108 H1078 0.950 . S
C1108 C1107 1.524 1_554 S
C1108 C1109 1.415 . S
C1109 H1079 0.950 . S
C1109 C1104 1.363 . S
C1109 C1108 1.415 . S
H1110 C1107 0.999 . S
H1111 C1092 0.913 . S
H1112 C1130 0.951 . S
H1113 C1132 0.951 . S
H1114 C1134 0.950 . S
H1115 C1135 0.950 . S
H1116 C1137 0.950 . S
H1117 C1140 0.950 . S
H1118 C1141 0.950 . S
H1119 C1143 0.950 . S
H1120 C1144 0.950 . S
H1121 C1145 0.951 . S
H1122 C1147 0.951 . S
H1123 C1149 0.950 . S
H1124 C1150 0.950 . S
H1125 C1152 0.950 . S
H1126 C1155 0.950 . S
H1127 C1156 0.950 . S
H1128 C1158 0.950 . S
H1129 C1159 0.950 . S
C1130 H1112 0.951 . S
C1130 C1131 1.366 . S
C1130 C1132 1.388 . S
C1131 C1130 1.366 . S
C1131 C1135 1.385 . S
C1132 H1113 0.951 . S
C1132 C1130 1.388 . S
C1132 C1133 1.366 . S
C1133 C1132 1.366 . S
C1133 C1134 1.414 . S
C1133 C1136 1.499 . S
C1134 H1114 0.950 . S
C1134 C1133 1.414 . S
C1134 C1135 1.374 . S
C1135 H1115 0.950 . S
C1135 C1131 1.385 . S
C1135 C1134 1.374 . S
C1136 C1133 1.499 . S
C1136 C1137 1.373 1_455 S
C1136 C1138 1.389 . S
C1137 H1116 0.950 . S
C1137 C1136 1.373 1_655 S
C1137 C1153 1.377 . S
C1138 C1136 1.389 . S
C1138 C1139 1.524 . S
C1138 C1152 1.377 . S
C1139 C1138 1.524 . S
C1139 C1140 1.397 . S
C1139 C1144 1.363 1_556 S
C1140 H1117 0.950 . S
C1140 C1139 1.397 . S
C1140 C1141 1.334 . S
C1141 H1118 0.950 . S
C1141 C1140 1.334 . S
C1141 C1142 1.287 1_556 S
C1142 C1141 1.287 1_554 S
C1142 C1143 1.524 . S
C1142 H1161 0.913 . S
C1143 H1119 0.950 . S
C1143 C1142 1.524 . S
C1143 C1144 1.415 . S
C1144 H1120 0.950 . S
C1144 C1139 1.363 1_554 S
C1144 C1143 1.415 . S
C1145 H1121 0.951 . S
C1145 C1146 1.366 . S
C1145 C1147 1.388 . S
C1146 C1145 1.366 . S
C1146 C1150 1.385 . S
C1147 H1122 0.951 . S
C1147 C1145 1.388 . S
C1147 C1148 1.366 . S
C1148 C1147 1.366 . S
C1148 C1149 1.414 . S
C1148 C1151 1.499 . S
C1149 H1123 0.950 . S
C1149 C1148 1.414 . S
C1149 C1150 1.374 . S
C1150 H1124 0.950 . S
C1150 C1146 1.385 . S
C1150 C1149 1.374 . S
C1151 C1148 1.499 . S
C1151 C1152 1.373 . S
C1151 C1153 1.389 1_455 S
C1152 H1125 0.950 . S
C1152 C1138 1.377 . S
C1152 C1151 1.373 . S
C1153 C1137 1.377 . S
C1153 C1151 1.389 1_655 S
C1153 C1154 1.524 . S
C1154 C1153 1.524 . S
C1154 C1155 1.397 . S
C1154 C1159 1.363 . S
C1155 H1126 0.950 . S
C1155 C1154 1.397 . S
C1155 C1156 1.334 . S
C1156 H1127 0.950 . S
C1156 C1155 1.334 . S
C1156 C1157 1.287 . S
C1157 C1156 1.287 . S
C1157 C1158 1.524 . S
C1157 H1160 0.999 . S
C1158 H1128 0.950 . S
C1158 C1157 1.524 . S
C1158 C1159 1.415 . S
C1159 H1129 0.950 . S
C1159 C1154 1.363 . S
C1159 C1158 1.415 . S
H1160 C1157 0.999 . S
H1161 C1142 0.913 . S
H1162 C1180 0.951 . S
H1163 C1182 0.951 . S
H1164 C1184 0.950 . S
H1165 C1185 0.950 . S
H1166 C1187 0.950 . S
H1167 C1190 0.950 . S
H1168 C1191 0.950 . S
H1169 C1193 0.950 . S
H1170 C1194 0.950 1_545 S
H1171 C1195 0.951 1_565 S
H1172 C1197 0.951 1_565 S
H1173 C1199 0.950 . S
H1174 C1200 0.950 . S
H1175 C1202 0.934 1_565 S
H1176 C1205 0.950 . S
H1177 C1206 0.950 . S
H1178 C1208 0.950 . S
H1179 C1209 0.950 . S
C1180 H1162 0.951 . S
C1180 C1181 1.366 . S
C1180 C1182 1.388 . S
C1181 C1180 1.366 . S
C1181 C1185 1.385 1_545 S
C1182 H1163 0.951 . S
C1182 C1180 1.388 . S
C1182 C1183 1.366 . S
C1183 C1182 1.366 . S
C1183 C1184 1.414 1_545 S
C1183 C1186 1.499 . S
C1184 H1164 0.950 . S
C1184 C1183 1.414 1_565 S
C1184 C1185 1.374 . S
C1185 H1165 0.950 . S
C1185 C1181 1.385 1_565 S
C1185 C1184 1.374 . S
C1186 C1183 1.499 . S
C1186 C1187 1.373 . S
C1186 C1188 1.374 1_545 S
C1187 H1166 0.950 . S
C1187 C1186 1.373 . S
C1187 C1203 1.377 . S
C1188 C1186 1.374 1_565 S
C1188 C1189 1.553 . S
C1188 C1202 1.369 1_565 S
C1189 C1188 1.553 . S
C1189 C1190 1.397 . S
C1189 C1194 1.363 . S
C1190 H1167 0.950 . S
C1190 C1189 1.397 . S
C1190 C1191 1.334 . S
C1191 H1168 0.950 . S
C1191 C1190 1.334 . S
C1191 C1192 1.287 . S
C1192 C1191 1.287 . S
C1192 C1193 1.524 . S
C1192 H1211 0.913 . S
C1193 H1169 0.950 . S
C1193 C1192 1.524 . S
C1193 C1194 1.415 . S
C1194 H1170 0.950 1_565 S
C1194 C1189 1.363 . S
C1194 C1193 1.415 . S
C1195 H1171 0.951 1_545 S
C1195 C1196 1.366 . S
C1195 C1197 1.388 . S
C1196 C1195 1.366 . S
C1196 C1200 1.385 . S
C1197 H1172 0.951 1_545 S
C1197 C1195 1.388 . S
C1197 C1198 1.366 . S
C1198 C1197 1.366 . S
C1198 C1199 1.414 . S
C1198 C1201 1.499 . S
C1199 H1173 0.950 . S
C1199 C1198 1.414 . S
C1199 C1200 1.374 . S
C1200 H1174 0.950 . S
C1200 C1196 1.385 . S
C1200 C1199 1.374 . S
C1201 C1198 1.499 . S
C1201 C1202 1.400 . S
C1201 C1203 1.389 . S
C1202 H1175 0.934 1_545 S
C1202 C1188 1.369 1_545 S
C1202 C1201 1.400 . S
C1203 C1187 1.377 . S
C1203 C1201 1.389 . S
C1203 C1204 1.524 . S
C1204 C1203 1.524 . S
C1204 C1205 1.397 . S
C1204 C1209 1.363 1_556 S
C1205 H1176 0.950 . S
C1205 C1204 1.397 . S
C1205 C1206 1.334 . S
C1206 H1177 0.950 . S
C1206 C1205 1.334 . S
C1206 C1207 1.287 1_556 S
C1207 C1206 1.287 1_554 S
C1207 C1208 1.524 . S
C1207 H1210 0.999 . S
C1208 H1178 0.950 . S
C1208 C1207 1.524 . S
C1208 C1209 1.415 . S
C1209 H1179 0.950 . S
C1209 C1204 1.363 1_554 S
C1209 C1208 1.415 . S
H1210 C1207 0.999 . S
H1211 C1192 0.913 . S
H1212 C1230 0.951 . S
H1213 C1232 0.951 . S
H1214 C1234 0.950 . S
H1215 C1235 0.950 . S
H1216 C1237 0.950 . S
H1217 C1240 0.950 . S
H1218 C1241 0.950 . S
H1219 C1243 0.950 . S
H1220 C1244 0.950 . S
H1221 C1245 0.951 . S
H1222 C1247 0.951 . S
H1223 C1249 0.950 . S
H1224 C1250 0.950 . S
H1225 C1252 0.950 . S
H1226 C1255 0.950 . S
H1227 C1256 0.950 . S
H1228 C1258 0.950 . S
H1229 C1259 0.950 . S
C1230 H1212 0.951 . S
C1230 C1231 1.366 . S
C1230 C1232 1.388 . S
C1231 C1230 1.366 . S
C1231 C1235 1.385 . S
C1232 H1213 0.951 . S
C1232 C1230 1.388 . S
C1232 C1233 1.366 . S
C1233 C1232 1.366 . S
C1233 C1234 1.414 . S
C1233 C1236 1.499 . S
C1234 H1214 0.950 . S
C1234 C1233 1.414 . S
C1234 C1235 1.374 . S
C1235 H1215 0.950 . S
C1235 C1231 1.385 . S
C1235 C1234 1.374 . S
C1236 C1233 1.499 . S
C1236 C1237 1.373 . S
C1236 C1238 1.389 . S
C1237 H1216 0.950 . S
C1237 C1236 1.373 . S
C1237 C1253 1.377 . S
C1238 C1236 1.389 . S
C1238 C1239 1.524 . S
C1238 C1252 1.377 . S
C1239 C1238 1.524 . S
C1239 C1240 1.397 . S
C1239 C1244 1.363 . S
C1240 H1217 0.950 . S
C1240 C1239 1.397 . S
C1240 C1241 1.334 . S
C1241 H1218 0.950 . S
C1241 C1240 1.334 . S
C1241 C1242 1.287 . S
C1242 C1241 1.287 . S
C1242 C1243 1.524 . S
C1242 H1261 0.913 . S
C1243 H1219 0.950 . S
C1243 C1242 1.524 . S
C1243 C1244 1.415 . S
C1244 H1220 0.950 . S
C1244 C1239 1.363 . S
C1244 C1243 1.415 . S
C1245 H1221 0.951 . S
C1245 C1246 1.366 . S
C1245 C1247 1.388 . S
C1246 C1245 1.366 . S
C1246 C1250 1.385 . S
C1247 H1222 0.951 . S
C1247 C1245 1.388 . S
C1247 C1248 1.366 . S
C1248 C1247 1.366 . S
C1248 C1249 1.414 . S
C1248 C1251 1.499 . S
C1249 H1223 0.950 . S
C1249 C1248 1.414 . S
C1249 C1250 1.374 . S
C1250 H1224 0.950 . S
C1250 C1246 1.385 . S
C1250 C1249 1.374 . S
C1251 C1248 1.499 . S
C1251 C1252 1.373 . S
C1251 C1253 1.389 . S
C1252 H1225 0.950 . S
C1252 C1238 1.377 . S
C1252 C1251 1.373 . S
C1253 C1237 1.377 . S
C1253 C1251 1.389 . S
C1253 C1254 1.524 . S
C1254 C1253 1.524 . S
C1254 C1255 1.397 . S
C1254 C1259 1.363 . S
C1255 H1226 0.950 . S
C1255 C1254 1.397 . S
C1255 C1256 1.334 1_556 S
C1256 H1227 0.950 . S
C1256 C1255 1.334 1_554 S
C1256 C1257 1.287 . S
C1257 C1256 1.287 . S
C1257 C1258 1.524 . S
C1257 H1260 0.999 . S
C1258 H1228 0.950 . S
C1258 C1257 1.524 . S
C1258 C1259 1.415 1_554 S
C1259 H1229 0.950 . S
C1259 C1254 1.363 . S
C1259 C1258 1.415 1_556 S
H1260 C1257 0.999 . S
H1261 C1242 0.913 . S
H1262 C1280 0.951 . S
H1263 C1282 0.951 . S
H1264 C1284 0.950 . S
H1265 C1285 0.950 . S
H1266 C1287 0.950 . S
H1267 C1290 0.950 . S
H1268 C1291 0.951 . S
H1269 C1293 0.950 . S
H1270 C1294 0.950 . S
H1271 C1295 0.951 . S
H1272 C1297 0.951 . S
H1273 C1299 0.950 . S
H1274 C1300 0.950 . S
H1275 C1302 0.950 . S
H1276 C1305 0.950 . S
H1277 C1306 0.950 . S
H1278 C1308 0.950 . S
H1279 C1309 0.950 . S
C1280 H1262 0.951 . S
C1280 C1281 1.366 . S
C1280 C1282 1.388 . S
C1281 C1280 1.366 . S
C1281 C1285 1.385 . S
C1282 H1263 0.951 . S
C1282 C1280 1.388 . S
C1282 C1283 1.366 . S
C1283 C1282 1.366 . S
C1283 C1284 1.414 . S
C1283 C1286 1.499 . S
C1284 H1264 0.950 . S
C1284 C1283 1.414 . S
C1284 C1285 1.374 . S
C1285 H1265 0.950 . S
C1285 C1281 1.385 . S
C1285 C1284 1.374 . S
C1286 C1283 1.499 . S
C1286 C1287 1.373 . S
C1286 C1288 1.389 . S
C1287 H1266 0.950 . S
C1287 C1286 1.373 . S
C1287 C1303 1.377 . S
C1288 C1286 1.389 . S
C1288 C1289 1.524 . S
C1288 C1302 1.377 . S
C1289 C1288 1.524 . S
C1289 C1290 1.397 . S
C1289 C1294 1.363 1_556 S
C1290 H1267 0.950 . S
C1290 C1289 1.397 . S
C1290 C1291 1.338 . S
C1291 H1268 0.951 . S
C1291 C1290 1.338 . S
C1291 C1292 1.282 1_556 S
C1292 C1291 1.282 1_554 S
C1292 C1293 1.524 . S
C1292 H1311 0.913 . S
C1293 H1269 0.950 . S
C1293 C1292 1.524 . S
C1293 C1294 1.415 . S
C1294 H1270 0.950 . S
C1294 C1289 1.363 1_554 S
C1294 C1293 1.415 . S
C1295 H1271 0.951 . S
C1295 C1296 1.366 . S
C1295 C1297 1.388 . S
C1296 C1295 1.366 . S
C1296 C1300 1.385 . S
C1297 H1272 0.951 . S
C1297 C1295 1.388 . S
C1297 C1298 1.366 . S
C1298 C1297 1.366 . S
C1298 C1299 1.414 . S
C1298 C1301 1.499 . S
C1299 H1273 0.950 . S
C1299 C1298 1.414 . S
C1299 C1300 1.374 . S
C1300 H1274 0.950 . S
C1300 C1296 1.385 . S
C1300 C1299 1.374 . S
C1301 C1298 1.499 . S
C1301 C1302 1.373 . S
C1301 C1303 1.389 . S
C1302 H1275 0.950 . S
C1302 C1288 1.377 . S
C1302 C1301 1.373 . S
C1303 C1287 1.377 . S
C1303 C1301 1.389 . S
C1303 C1304 1.524 . S
C1304 C1303 1.524 . S
C1304 C1305 1.397 . S
C1304 C1309 1.363 . S
C1305 H1276 0.950 . S
C1305 C1304 1.397 . S
C1305 C1306 1.334 . S
C1306 H1277 0.950 . S
C1306 C1305 1.334 . S
C1306 C1307 1.287 . S
C1307 C1306 1.287 . S
C1307 C1308 1.524 . S
C1307 H1310 0.999 . S
C1308 H1278 0.950 . S
C1308 C1307 1.524 . S
C1308 C1309 1.415 . S
C1309 H1279 0.950 . S
C1309 C1304 1.363 . S
C1309 C1308 1.415 . S
H1310 C1307 0.999 . S
H1311 C1292 0.913 . S
H1312 C1330 0.951 . S
H1313 C1332 0.951 . S
H1314 C1334 0.950 . S
H1315 C1335 0.950 . S
H1316 C1337 0.950 . S
H1317 C1340 0.950 . S
H1318 C1341 0.950 . S
H1319 C1343 0.950 1_655 S
H1320 C1344 0.950 . S
H1321 C1345 0.951 . S
H1322 C1347 0.951 . S
H1323 C1349 0.950 . S
H1324 C1350 0.950 . S
H1325 C1352 0.951 . S
H1326 C1355 0.950 . S
H1327 C1356 0.950 . S
H1328 C1358 0.950 . S
H1329 C1359 0.950 1_455 S
C1330 H1312 0.951 . S
C1330 C1331 1.366 . S
C1330 C1332 1.388 . S
C1331 C1330 1.366 . S
C1331 C1335 1.385 1_655 S
C1332 H1313 0.951 . S
C1332 C1330 1.388 . S
C1332 C1333 1.366 . S
C1333 C1332 1.366 . S
C1333 C1334 1.414 1_655 S
C1333 C1336 1.499 . S
C1334 H1314 0.950 . S
C1334 C1333 1.414 1_455 S
C1334 C1335 1.374 . S
C1335 H1315 0.950 . S
C1335 C1331 1.385 1_455 S
C1335 C1334 1.374 . S
C1336 C1333 1.499 . S
C1336 C1337 1.373 . S
C1336 C1338 1.389 1_655 S
C1337 H1316 0.950 . S
C1337 C1336 1.373 . S
C1337 C1353 1.377 . S
C1338 C1336 1.389 1_455 S
C1338 C1339 1.526 . S
C1338 C1352 1.376 1_455 S
C1339 C1338 1.526 . S
C1339 C1340 1.397 . S
C1339 C1344 1.363 1_455 S
C1340 H1317 0.950 . S
C1340 C1339 1.397 . S
C1340 C1341 1.334 . S
C1341 H1318 0.950 . S
C1341 C1340 1.334 . S
C1341 C1342 1.287 . S
C1342 C1341 1.287 . S
C1342 C1343 1.524 . S
C1342 H1361 0.913 . S
C1343 H1319 0.950 1_455 S
C1343 C1342 1.524 . S
C1343 C1344 1.415 1_455 S
C1344 H1320 0.950 . S
C1344 C1339 1.363 1_655 S
C1344 C1343 1.415 1_655 S
C1345 H1321 0.951 . S
C1345 C1346 1.366 1_455 S
C1345 C1347 1.388 . S
C1346 C1345 1.366 1_655 S
C1346 C1350 1.385 . S
C1347 H1322 0.951 . S
C1347 C1345 1.388 . S
C1347 C1348 1.366 1_455 S
C1348 C1347 1.366 1_655 S
C1348 C1349 1.414 . S
C1348 C1351 1.499 . S
C1349 H1323 0.950 . S
C1349 C1348 1.414 . S
C1349 C1350 1.374 . S
C1350 H1324 0.950 . S
C1350 C1346 1.385 . S
C1350 C1349 1.374 . S
C1351 C1348 1.499 . S
C1351 C1352 1.373 . S
C1351 C1353 1.389 . S
C1352 H1325 0.951 . S
C1352 C1338 1.376 1_655 S
C1352 C1351 1.373 . S
C1353 C1337 1.377 . S
C1353 C1351 1.389 . S
C1353 C1354 1.524 . S
C1354 C1353 1.524 . S
C1354 C1355 1.397 . S
C1354 C1359 1.363 . S
C1355 H1326 0.950 . S
C1355 C1354 1.397 . S
C1355 C1356 1.334 . S
C1356 H1327 0.950 . S
C1356 C1355 1.334 . S
C1356 C1357 1.287 . S
C1357 C1356 1.287 . S
C1357 C1358 1.524 . S
C1357 H1360 0.999 . S
C1358 H1328 0.950 . S
C1358 C1357 1.524 . S
C1358 C1359 1.415 . S
C1359 H1329 0.950 1_655 S
C1359 C1354 1.363 . S
C1359 C1358 1.415 . S
H1360 C1357 0.999 . S
H1361 C1342 0.913 . S
H1362 C1380 0.951 . S
H1363 C1382 0.951 . S
H1364 C1384 0.950 . S
H1365 C1385 0.951 . S
H1366 C1387 0.950 . S
H1367 C1390 0.950 . S
H1368 C1391 0.950 . S
H1369 C1393 0.950 . S
H1370 C1394 0.950 . S
H1371 C1395 0.951 . S
H1372 C1397 0.951 . S
H1373 C1399 0.950 . S
H1374 C1400 0.950 . S
H1375 C1402 0.950 . S
H1376 C1405 0.950 . S
H1377 C1406 0.950 . S
H1378 C1408 0.950 . S
H1379 C1409 0.950 . S
C1380 H1362 0.951 . S
C1380 C1381 1.366 . S
C1380 C1382 1.388 . S
C1381 C1380 1.366 . S
C1381 C1385 1.385 . S
C1382 H1363 0.951 . S
C1382 C1380 1.388 . S
C1382 C1383 1.366 . S
C1383 C1382 1.366 . S
C1383 C1384 1.414 . S
C1383 C1386 1.499 . S
C1384 H1364 0.950 . S
C1384 C1383 1.414 . S
C1384 C1385 1.374 . S
C1385 H1365 0.951 . S
C1385 C1381 1.385 . S
C1385 C1384 1.374 . S
C1386 C1383 1.499 . S
C1386 C1387 1.373 . S
C1386 C1388 1.389 1_565 S
C1387 H1366 0.950 . S
C1387 C1386 1.373 . S
C1387 C1403 1.377 . S
C1388 C1386 1.389 1_545 S
C1388 C1389 1.524 . S
C1388 C1402 1.377 . S
C1389 C1388 1.524 . S
C1389 C1390 1.397 . S
C1389 C1394 1.363 . S
C1390 H1367 0.950 . S
C1390 C1389 1.397 . S
C1390 C1391 1.334 . S
C1391 H1368 0.950 . S
C1391 C1390 1.334 . S
C1391 C1392 1.287 . S
C1392 C1391 1.287 . S
C1392 C1393 1.524 . S
C1392 H1411 0.913 . S
C1393 H1369 0.950 . S
C1393 C1392 1.524 . S
C1393 C1394 1.415 . S
C1394 H1370 0.950 . S
C1394 C1389 1.363 . S
C1394 C1393 1.415 . S
C1395 H1371 0.951 . S
C1395 C1396 1.366 . S
C1395 C1397 1.388 . S
C1396 C1395 1.366 . S
C1396 C1400 1.385 . S
C1397 H1372 0.951 . S
C1397 C1395 1.388 . S
C1397 C1398 1.366 . S
C1398 C1397 1.366 . S
C1398 C1399 1.414 . S
C1398 C1401 1.499 . S
C1399 H1373 0.950 . S
C1399 C1398 1.414 . S
C1399 C1400 1.374 . S
C1400 H1374 0.950 . S
C1400 C1396 1.385 . S
C1400 C1399 1.374 . S
C1401 C1398 1.499 . S
C1401 C1402 1.373 1_565 S
C1401 C1403 1.389 . S
C1402 H1375 0.950 . S
C1402 C1388 1.377 . S
C1402 C1401 1.373 1_545 S
C1403 C1387 1.377 . S
C1403 C1401 1.389 . S
C1403 C1404 1.524 . S
C1404 C1403 1.524 . S
C1404 C1405 1.397 . S
C1404 C1409 1.363 . S
C1405 H1376 0.950 . S
C1405 C1404 1.397 . S
C1405 C1406 1.334 . S
C1406 H1377 0.950 . S
C1406 C1405 1.334 . S
C1406 C1407 1.287 . S
C1407 C1406 1.287 . S
C1407 C1408 1.524 . S
C1407 H1410 0.999 . S
C1408 H1378 0.950 . S
C1408 C1407 1.524 . S
C1408 C1409 1.415 . S
C1409 H1379 0.950 . S
C1409 C1404 1.363 . S
C1409 C1408 1.415 . S
H1410 C1407 0.999 . S
H1411 C1392 0.913 . S
H1412 C1430 0.951 . S
H1413 C1432 0.951 . S
H1414 C1434 0.950 . S
H1415 C1435 0.950 . S
H1416 C1437 0.950 . S
H1417 C1440 0.950 . S
H1418 C1441 0.950 . S
H1419 C1443 0.950 . S
H1420 C1444 0.950 . S
H1421 C1445 0.951 . S
H1422 C1447 0.951 . S
H1423 C1449 0.950 . S
H1424 C1450 0.950 . S
H1425 C1452 0.950 . S
H1426 C1455 0.950 . S
H1427 C1456 0.950 . S
H1428 C1458 0.950 . S
H1429 C1459 0.950 . S
C1430 H1412 0.951 . S
C1430 C1431 1.366 . S
C1430 C1432 1.388 . S
C1431 C1430 1.366 . S
C1431 C1435 1.385 . S
C1432 H1413 0.951 . S
C1432 C1430 1.388 . S
C1432 C1433 1.366 . S
C1433 C1432 1.366 . S
C1433 C1434 1.414 . S
C1433 C1436 1.499 . S
C1434 H1414 0.950 . S
C1434 C1433 1.414 . S
C1434 C1435 1.374 . S
C1435 H1415 0.950 . S
C1435 C1431 1.385 . S
C1435 C1434 1.374 . S
C1436 C1433 1.499 . S
C1436 C1437 1.373 . S
C1436 C1438 1.389 . S
C1437 H1416 0.950 . S
C1437 C1436 1.373 . S
C1437 C1453 1.377 . S
C1438 C1436 1.389 . S
C1438 C1439 1.524 . S
C1438 C1452 1.377 . S
C1439 C1438 1.524 . S
C1439 C1440 1.397 . S
C1439 C1444 1.363 . S
C1440 H1417 0.950 . S
C1440 C1439 1.397 . S
C1440 C1441 1.334 . S
C1441 H1418 0.950 . S
C1441 C1440 1.334 . S
C1441 C1442 1.287 . S
C1442 C1441 1.287 . S
C1442 C1443 1.524 . S
C1442 H1461 0.913 . S
C1443 H1419 0.950 . S
C1443 C1442 1.524 . S
C1443 C1444 1.415 . S
C1444 H1420 0.950 . S
C1444 C1439 1.363 . S
C1444 C1443 1.415 . S
C1445 H1421 0.951 . S
C1445 C1446 1.366 . S
C1445 C1447 1.388 . S
C1446 C1445 1.366 . S
C1446 C1450 1.385 . S
C1447 H1422 0.951 . S
C1447 C1445 1.388 . S
C1447 C1448 1.366 . S
C1448 C1447 1.366 . S
C1448 C1449 1.414 . S
C1448 C1451 1.499 . S
C1449 H1423 0.950 . S
C1449 C1448 1.414 . S
C1449 C1450 1.374 . S
C1450 H1424 0.950 . S
C1450 C1446 1.385 . S
C1450 C1449 1.374 . S
C1451 C1448 1.499 . S
C1451 C1452 1.373 . S
C1451 C1453 1.389 . S
C1452 H1425 0.950 . S
C1452 C1438 1.377 . S
C1452 C1451 1.373 . S
C1453 C1437 1.377 . S
C1453 C1451 1.389 . S
C1453 C1454 1.524 . S
C1454 C1453 1.524 . S
C1454 C1455 1.397 . S
C1454 C1459 1.363 . S
C1455 H1426 0.950 . S
C1455 C1454 1.397 . S
C1455 C1456 1.334 . S
C1456 H1427 0.950 . S
C1456 C1455 1.334 . S
C1456 C1457 1.287 . S
C1457 C1456 1.287 . S
C1457 C1458 1.524 . S
C1457 H1460 0.999 . S
C1458 H1428 0.950 . S
C1458 C1457 1.524 . S
C1458 C1459 1.415 . S
C1459 H1429 0.950 . S
C1459 C1454 1.363 . S
C1459 C1458 1.415 . S
H1460 C1457 0.999 . S
H1461 C1442 0.913 . S
H1462 C1480 0.951 . S
H1463 C1482 0.951 . S
H1464 C1484 0.950 . S
H1465 C1485 0.950 . S
H1466 C1487 0.950 . S
H1467 C1490 0.950 . S
H1468 C1491 0.950 . S
H1469 C1493 0.950 . S
H1470 C1494 0.950 . S
H1471 C1495 0.951 . S
H1472 C1497 0.951 . S
H1473 C1499 0.950 . S
H1474 C1500 0.950 . S
H1475 C1502 0.950 . S
H1476 C1505 0.950 . S
H1477 C1506 0.950 . S
H1478 C1508 0.950 . S
H1479 C1509 0.950 . S
C1480 H1462 0.951 . S
C1480 C1481 1.366 . S
C1480 C1482 1.388 . S
C1481 C1480 1.366 . S
C1481 C1485 1.385 . S
C1482 H1463 0.951 . S
C1482 C1480 1.388 . S
C1482 C1483 1.366 . S
C1483 C1482 1.366 . S
C1483 C1484 1.414 . S
C1483 C1486 1.499 . S
C1484 H1464 0.950 . S
C1484 C1483 1.414 . S
C1484 C1485 1.374 . S
C1485 H1465 0.950 . S
C1485 C1481 1.385 . S
C1485 C1484 1.374 . S
C1486 C1483 1.499 . S
C1486 C1487 1.373 . S
C1486 C1488 1.389 . S
C1487 H1466 0.950 . S
C1487 C1486 1.373 . S
C1487 C1503 1.377 . S
C1488 C1486 1.389 . S
C1488 C1489 1.524 . S
C1488 C1502 1.377 . S
C1489 C1488 1.524 . S
C1489 C1490 1.397 . S
C1489 C1494 1.363 . S
C1490 H1467 0.950 . S
C1490 C1489 1.397 . S
C1490 C1491 1.334 . S
C1491 H1468 0.950 . S
C1491 C1490 1.334 . S
C1491 C1492 1.287 . S
C1492 C1491 1.287 . S
C1492 C1493 1.524 . S
C1492 H1511 0.913 . S
C1493 H1469 0.950 . S
C1493 C1492 1.524 . S
C1493 C1494 1.415 . S
C1494 H1470 0.950 . S
C1494 C1489 1.363 . S
C1494 C1493 1.415 . S
C1495 H1471 0.951 . S
C1495 C1496 1.366 . S
C1495 C1497 1.388 . S
C1496 C1495 1.366 . S
C1496 C1500 1.385 . S
C1497 H1472 0.951 . S
C1497 C1495 1.388 . S
C1497 C1498 1.366 . S
C1498 C1497 1.366 . S
C1498 C1499 1.414 . S
C1498 C1501 1.499 . S
C1499 H1473 0.950 . S
C1499 C1498 1.414 . S
C1499 C1500 1.374 . S
C1500 H1474 0.950 . S
C1500 C1496 1.385 . S
C1500 C1499 1.374 . S
C1501 C1498 1.499 . S
C1501 C1502 1.373 . S
C1501 C1503 1.389 . S
C1502 H1475 0.950 . S
C1502 C1488 1.377 . S
C1502 C1501 1.373 . S
C1503 C1487 1.377 . S
C1503 C1501 1.389 . S
C1503 C1504 1.524 . S
C1504 C1503 1.524 . S
C1504 C1505 1.397 . S
C1504 C1509 1.363 . S
C1505 H1476 0.950 . S
C1505 C1504 1.397 . S
C1505 C1506 1.334 . S
C1506 H1477 0.950 . S
C1506 C1505 1.334 . S
C1506 C1507 1.287 . S
C1507 C1506 1.287 . S
C1507 C1508 1.524 . S
C1507 H1510 0.999 . S
C1508 H1478 0.950 . S
C1508 C1507 1.524 . S
C1508 C1509 1.415 . S
C1509 H1479 0.950 . S
C1509 C1504 1.363 . S
C1509 C1508 1.415 . S
H1510 C1507 0.999 . S
H1511 C1492 0.913 . S
C331 C125 1.790 1_545 S
C346 C161 1.828 . S
C396 C201 1.829 . S
C381 C144 1.790 . S
C446 C241 1.829 . S
C431 C87 1.790 . S
C496 C281 1.828 . S
C481 C106 1.789 1_455 S
C546 C170 1.827 1_565 S
C531 C49 1.807 . S
C581 C68 1.792 . S
C596 C210 1.828 . S
C631 C11 1.792 . S
C646 C250 1.828 . S
C681 C30 1.804 . S
C696 C290 1.829 1_655 S
C746 C167 0.363 . S
C731 C97 0.464 . S
C796 C207 0.361 . S
C781 C116 0.462 . S
C846 C247 0.360 . S
C831 C135 0.464 . S
C881 C78 0.466 . S
C896 C287 0.362 . S
C931 C21 0.476 . S
C946 C158 0.361 . S
C996 C198 0.361 . S
C981 C40 0.464 . S
C1046 C238 0.360 . S
C1031 C59 0.461 . S
C1081 C2 0.464 . S
C1096 C278 0.363 . S
C1131 C101 1.916 . S
C1146 C171 2.088 . S
C1181 C120 1.916 . S
C1196 C211 2.088 . S
C1246 C251 2.089 . S
C1231 C139 1.916 . S
C1296 C291 2.088 . S
C1281 C82 1.917 . S
C1331 C25 1.916 . S
C1346 C162 2.088 . S
C1396 C202 2.088 . S
C1381 C44 1.916 . S
C1446 C242 2.088 . S
C1431 C63 1.916 . S
C1481 C6 1.916 . S
C1496 C282 2.088 . S
