# Generated by pormake.
# Topology ctn, (3,4)-cn, num edge types: 1
# Building blocks:
#     Node 0, Type 0, BuildingBlock: MIDCAF_clean_linker_0, # of connection points: 3
#     Node 1, Type 0, BuildingBlock: MIDCAF_clean_linker_0, # of connection points: 3
#     Node 2, Type 0, BuildingBlock: MIDCAF_clean_linker_0, # of connection points: 3
#     Node 3, Type 0, BuildingBlock: MIDCAF_clean_linker_0, # of connection points: 3
#     Node 4, Type 0, BuildingBlock: MIDCAF_clean_linker_0, # of connection points: 3
#     Node 5, Type 0, BuildingBlock: MIDCAF_clean_linker_0, # of connection points: 3
#     Node 6, Type 0, BuildingBlock: MIDCAF_clean_linker_0, # of connection points: 3
#     Node 7, Type 0, BuildingBlock: MIDCAF_clean_linker_0, # of connection points: 3
#     Node 8, Type 0, BuildingBlock: MIDCAF_clean_linker_0, # of connection points: 3
#     Node 9, Type 0, BuildingBlock: MIDCAF_clean_linker_0, # of connection points: 3
#     Node 10, Type 0, BuildingBlock: MIDCAF_clean_linker_0, # of connection points: 3
#     Node 11, Type 0, BuildingBlock: MIDCAF_clean_linker_0, # of connection points: 3
#     Node 12, Type 0, BuildingBlock: MIDCAF_clean_linker_0, # of connection points: 3
#     Node 13, Type 0, BuildingBlock: MIDCAF_clean_linker_0, # of connection points: 3
#     Node 14, Type 0, BuildingBlock: MIDCAF_clean_linker_0, # of connection points: 3
#     Node 15, Type 0, BuildingBlock: MIDCAF_clean_linker_0, # of connection points: 3
#     Node 16, Type 1, BuildingBlock: AZAVOO_clean_sbu_0, # of connection points: 4
#     Node 17, Type 1, BuildingBlock: AZAVOO_clean_sbu_0, # of connection points: 4
#     Node 18, Type 1, BuildingBlock: AZAVOO_clean_sbu_0, # of connection points: 4
#     Node 19, Type 1, BuildingBlock: AZAVOO_clean_sbu_0, # of connection points: 4
#     Node 20, Type 1, BuildingBlock: AZAVOO_clean_sbu_0, # of connection points: 4
#     Node 21, Type 1, BuildingBlock: AZAVOO_clean_sbu_0, # of connection points: 4
#     Node 22, Type 1, BuildingBlock: AZAVOO_clean_sbu_0, # of connection points: 4
#     Node 23, Type 1, BuildingBlock: AZAVOO_clean_sbu_0, # of connection points: 4
#     Node 24, Type 1, BuildingBlock: AZAVOO_clean_sbu_0, # of connection points: 4
#     Node 25, Type 1, BuildingBlock: AZAVOO_clean_sbu_0, # of connection points: 4
#     Node 26, Type 1, BuildingBlock: AZAVOO_clean_sbu_0, # of connection points: 4
#     Node 27, Type 1, BuildingBlock: AZAVOO_clean_sbu_0, # of connection points: 4
#     Edge 28, Type (0, 1), BuildingBlock: UVAHIK_clean_linker_0, # of connection points: 2
#     Edge 29, Type (0, 1), BuildingBlock: UVAHIK_clean_linker_0, # of connection points: 2
#     Edge 30, Type (0, 1), BuildingBlock: UVAHIK_clean_linker_0, # of connection points: 2
#     Edge 31, Type (0, 1), BuildingBlock: UVAHIK_clean_linker_0, # of connection points: 2
#     Edge 32, Type (0, 1), BuildingBlock: UVAHIK_clean_linker_0, # of connection points: 2
#     Edge 33, Type (0, 1), BuildingBlock: UVAHIK_clean_linker_0, # of connection points: 2
#     Edge 34, Type (0, 1), BuildingBlock: UVAHIK_clean_linker_0, # of connection points: 2
#     Edge 35, Type (0, 1), BuildingBlock: UVAHIK_clean_linker_0, # of connection points: 2
#     Edge 36, Type (0, 1), BuildingBlock: UVAHIK_clean_linker_0, # of connection points: 2
#     Edge 37, Type (0, 1), BuildingBlock: UVAHIK_clean_linker_0, # of connection points: 2
#     Edge 38, Type (0, 1), BuildingBlock: UVAHIK_clean_linker_0, # of connection points: 2
#     Edge 39, Type (0, 1), BuildingBlock: UVAHIK_clean_linker_0, # of connection points: 2
#     Edge 40, Type (0, 1), BuildingBlock: UVAHIK_clean_linker_0, # of connection points: 2
#     Edge 41, Type (0, 1), BuildingBlock: UVAHIK_clean_linker_0, # of connection points: 2
#     Edge 42, Type (0, 1), BuildingBlock: UVAHIK_clean_linker_0, # of connection points: 2
#     Edge 43, Type (0, 1), BuildingBlock: UVAHIK_clean_linker_0, # of connection points: 2
#     Edge 44, Type (0, 1), BuildingBlock: UVAHIK_clean_linker_0, # of connection points: 2
#     Edge 45, Type (0, 1), BuildingBlock: UVAHIK_clean_linker_0, # of connection points: 2
#     Edge 46, Type (0, 1), BuildingBlock: UVAHIK_clean_linker_0, # of connection points: 2
#     Edge 47, Type (0, 1), BuildingBlock: UVAHIK_clean_linker_0, # of connection points: 2
#     Edge 48, Type (0, 1), BuildingBlock: UVAHIK_clean_linker_0, # of connection points: 2
#     Edge 49, Type (0, 1), BuildingBlock: UVAHIK_clean_linker_0, # of connection points: 2
#     Edge 50, Type (0, 1), BuildingBlock: UVAHIK_clean_linker_0, # of connection points: 2
#     Edge 51, Type (0, 1), BuildingBlock: UVAHIK_clean_linker_0, # of connection points: 2
#     Edge 52, Type (0, 1), BuildingBlock: UVAHIK_clean_linker_0, # of connection points: 2
#     Edge 53, Type (0, 1), BuildingBlock: UVAHIK_clean_linker_0, # of connection points: 2
#     Edge 54, Type (0, 1), BuildingBlock: UVAHIK_clean_linker_0, # of connection points: 2
#     Edge 55, Type (0, 1), BuildingBlock: UVAHIK_clean_linker_0, # of connection points: 2
#     Edge 56, Type (0, 1), BuildingBlock: UVAHIK_clean_linker_0, # of connection points: 2
#     Edge 57, Type (0, 1), BuildingBlock: UVAHIK_clean_linker_0, # of connection points: 2
#     Edge 58, Type (0, 1), BuildingBlock: UVAHIK_clean_linker_0, # of connection points: 2
#     Edge 59, Type (0, 1), BuildingBlock: UVAHIK_clean_linker_0, # of connection points: 2
#     Edge 60, Type (0, 1), BuildingBlock: UVAHIK_clean_linker_0, # of connection points: 2
#     Edge 61, Type (0, 1), BuildingBlock: UVAHIK_clean_linker_0, # of connection points: 2
#     Edge 62, Type (0, 1), BuildingBlock: UVAHIK_clean_linker_0, # of connection points: 2
#     Edge 63, Type (0, 1), BuildingBlock: UVAHIK_clean_linker_0, # of connection points: 2
#     Edge 64, Type (0, 1), BuildingBlock: UVAHIK_clean_linker_0, # of connection points: 2
#     Edge 65, Type (0, 1), BuildingBlock: UVAHIK_clean_linker_0, # of connection points: 2
#     Edge 66, Type (0, 1), BuildingBlock: UVAHIK_clean_linker_0, # of connection points: 2
#     Edge 67, Type (0, 1), BuildingBlock: UVAHIK_clean_linker_0, # of connection points: 2
#     Edge 68, Type (0, 1), BuildingBlock: UVAHIK_clean_linker_0, # of connection points: 2
#     Edge 69, Type (0, 1), BuildingBlock: UVAHIK_clean_linker_0, # of connection points: 2
#     Edge 70, Type (0, 1), BuildingBlock: UVAHIK_clean_linker_0, # of connection points: 2
#     Edge 71, Type (0, 1), BuildingBlock: UVAHIK_clean_linker_0, # of connection points: 2
#     Edge 72, Type (0, 1), BuildingBlock: UVAHIK_clean_linker_0, # of connection points: 2
#     Edge 73, Type (0, 1), BuildingBlock: UVAHIK_clean_linker_0, # of connection points: 2
#     Edge 74, Type (0, 1), BuildingBlock: UVAHIK_clean_linker_0, # of connection points: 2
#     Edge 75, Type (0, 1), BuildingBlock: UVAHIK_clean_linker_0, # of connection points: 2
# Relax obj value: 0.002
# Max RMSD: 0.044
# Mean RMSD: 0.023
data_MOF--net-ctn--node1-AZAVOO_clean_sbu_0--node2-MIDCAF_clean_linker_0--edge1-UVAHIK_clean_linker_0
_symmetry_space_group_name_H-M    P1
_symmetry_Int_Tables_number       1
_symmetry_cell_setting            triclinic
loop_
_symmetry_equiv_pos_as_xyz
'x, y, z'
_cell_length_a     82.422093
_cell_length_b     83.600751
_cell_length_c     83.588371
_cell_angle_alpha  90.145082
_cell_angle_beta   92.501591
_cell_angle_gamma 92.797242
loop_
_atom_site_label
_atom_site_type_symbol
_atom_site_fract_x
_atom_site_fract_y
_atom_site_fract_z
_atom_type_partial_charge
C0 C 0.98682 0.01988 0.05302 0.0
C1 C 0.99006 0.00825 0.06467 0.0
C2 C 0.00143 0.99676 0.06158 0.0
C3 C 0.00972 0.99718 0.04731 0.0
H4 H 0.05064 0.98092 0.02666 0.0
H5 H 0.07485 0.96576 0.02369 0.0
H6 H 0.07949 0.98417 0.97581 0.0
H7 H 0.05523 -0.00073 0.97864 0.0
H8 H 0.03149 0.02741 0.96619 0.0
H9 H 0.02899 0.05089 0.94918 0.0
H10 H 0.00524 0.07492 0.98693 0.0
H11 H 0.007 0.05129 0.00346 0.0
H12 H 0.99228 0.02956 0.0302 0.0
H13 H 0.97793 0.02873 0.05494 0.0
H14 H 0.00423 0.9877 0.07038 0.0
H15 H 0.01863 0.98834 0.04544 0.0
N16 N 0.02815 0.00015 0.01843 0.0
N17 N 0.03392 0.01354 0.99454 0.0
N18 N 0.0132 0.02207 0.01034 0.0
C19 C 0.0371 0.0017 0.00517 0.0
C20 C 0.02199 0.02378 0.99705 0.0
C21 C 0.01608 0.01024 0.02104 0.0
C22 C 0.051 0.99142 0.00292 0.0
C23 C 0.05669 0.98164 0.01542 0.0
C24 C 0.07064 0.97303 0.01378 0.0
C25 C 0.07913 0.97388 -0.00044 0.0
C26 C 0.07315 0.98321 0.98687 0.0
C27 C 0.05928 0.99193 0.98855 0.0
C28 C 0.0195 0.03749 0.9862 0.0
C29 C 0.02557 0.03766 0.97075 0.0
C30 C 0.02422 0.05118 0.96104 0.0
C31 C 0.01699 0.06492 0.96666 0.0
C32 C 0.0106 0.06452 0.982 0.0
C33 C 0.01172 0.05095 0.99158 0.0
C34 C 0.00674 0.00908 0.03581 0.0
C35 C 0.99502 0.02028 0.03878 0.0
C36 C 0.28063 0.67153 0.24522 0.0
C37 C 0.27157 0.66546 0.23174 0.0
C38 C 0.27357 0.67283 0.21684 0.0
C39 C 0.2842 0.68625 0.2155 0.0
H40 H 0.29184 0.72531 0.18725 0.0
H41 H 0.28744 0.74308 0.1647 0.0
H42 H 0.32002 0.77914 0.18742 0.0
H43 H 0.32445 0.76135 0.21022 0.0
H44 H 0.3397 0.75284 0.24738 0.0
H45 H 0.36238 0.75797 0.26699 0.0
H46 H 0.36581 0.70714 0.2741 0.0
H47 H 0.34293 0.70194 0.25488 0.0
H48 H 0.29821 0.68926 0.25448 0.0
H49 H 0.27936 0.66597 0.25682 0.0
H50 H 0.26666 0.66841 0.20628 0.0
H51 H 0.28533 0.6918 0.20388 0.0
N52 N 0.3017 0.71724 0.21538 0.0
N53 N 0.32332 0.73412 0.22549 0.0
N54 N 0.31628 0.71022 0.23879 0.0
C55 C 0.31123 0.73087 0.2142 0.0
C56 C 0.32597 0.72377 0.23775 0.0
C57 C 0.30407 0.70693 0.22766 0.0
C58 C 0.30853 0.74187 0.20057 0.0
C59 C 0.29808 0.73702 0.18753 0.0
C60 C 0.29563 0.74716 0.17452 0.0
C61 C 0.30347 0.76244 0.17426 0.0
C62 C 0.31377 0.76743 0.18735 0.0
C63 C 0.31636 0.75721 0.20035 0.0
C64 C 0.33954 0.72699 0.24963 0.0
C65 C 0.34528 0.74278 0.25316 0.0
C66 C 0.35818 0.74572 0.26437 0.0
C67 C 0.36578 0.73293 0.27193 0.0
C68 C 0.36015 0.71717 0.26833 0.0
C69 C 0.34702 0.71423 0.25742 0.0
C70 C 0.29323 0.6924 0.229 0.0
C71 C 0.29147 0.68479 0.24384 0.0
C72 C 0.99617 0.43329 0.01117 0.0
C73 C 0.98366 0.42802 0.00017 0.0
C74 C 0.96899 0.43593 -0.00037 0.0
C75 C 0.96672 0.44858 0.01015 0.0
H76 H 0.93818 0.4874 0.01792 0.0
H77 H 0.91443 0.50348 0.01516 0.0
H78 H 0.92322 0.52061 0.06374 0.0
H79 H 0.94726 0.50492 0.06636 0.0
H80 H 0.97767 0.48972 0.08796 0.0
H81 H 0.99659 0.49238 0.11115 0.0
H82 H 0.03549 0.47794 0.08198 0.0
H83 H 0.01636 0.47442 0.05918 0.0
H84 H 0.00367 0.44935 0.03031 0.0
H85 H 0.00756 0.42734 0.01197 0.0
H86 H 0.95919 0.43224 0.99116 0.0
H87 H 0.95515 0.45421 0.00958 0.0
N88 N 0.96255 0.47452 0.03245 0.0
N89 N 0.97018 0.48771 0.05663 0.0
N90 N 0.98684 0.46858 0.0463 0.0
C91 C 0.95949 0.48545 0.04387 0.0
C92 C 0.98391 0.47937 0.05787 0.0
C93 C 0.97618 0.466 0.0336 0.0
C94 C 0.94471 0.49488 0.04235 0.0
C95 C 0.93506 0.49456 0.02805 0.0
C96 C 0.92135 0.50374 0.02648 0.0
C97 C 0.91689 0.51339 0.03921 0.0
C98 C 0.92644 0.51355 0.05358 0.0
C99 C 0.9402 0.50446 0.05512 0.0
C100 C 0.99551 0.48177 0.07178 0.0
C101 C 0.99028 0.48714 0.08655 0.0
C102 C 0.00119 0.48874 0.09983 0.0
C103 C 0.01764 0.48529 0.09857 0.0
C104 C 0.02287 0.4803 0.08362 0.0
C105 C 0.01191 0.47839 0.07046 0.0
C106 C 0.97904 0.4535 0.02155 0.0
C107 C 0.99387 0.44585 0.02177 0.0
C108 C 0.73627 0.78429 0.17969 0.0
C109 C 0.72328 0.77533 0.17209 0.0
C110 C 0.70729 0.77858 0.1757 0.0
C111 C 0.70434 0.79053 0.18679 0.0
H112 H 0.66863 0.80713 0.21587 0.0
H113 H 0.64437 0.80404 0.23136 0.0
H114 H 0.66688 0.83562 0.26783 0.0
H115 H 0.69085 0.83921 0.25203 0.0
H116 H 0.71896 0.86632 0.23096 0.0
H117 H 0.73989 0.88782 0.2357 0.0
H118 H 0.77666 0.85612 0.22185 0.0
H119 H 0.75582 0.83471 0.21684 0.0
H120 H 0.74361 0.80316 0.19618 0.0
H121 H 0.74872 0.7821 0.17701 0.0
H122 H 0.69707 0.77178 0.17005 0.0
H123 H 0.69187 0.79274 0.18934 0.0
N124 N 0.69985 0.81251 0.21318 0.0
N125 N 0.70868 0.83584 0.22733 0.0
N126 N 0.72583 0.82416 0.20941 0.0
C127 C 0.69701 0.8241 0.22401 0.0
C128 C 0.7231 0.83597 0.22002 0.0
C129 C 0.71423 0.81245 0.20586 0.0
C130 C 0.68174 0.82332 0.23276 0.0
C131 C 0.66834 0.81354 0.22712 0.0
C132 C 0.65445 0.8117 0.23607 0.0
C133 C 0.65368 0.81942 0.25097 0.0
C134 C 0.6669 0.82963 0.25634 0.0
C135 C 0.68073 0.83162 0.24729 0.0
C136 C 0.73574 0.84883 0.22349 0.0
C137 C 0.73152 0.86392 0.229 0.0
C138 C 0.74345 0.87624 0.23164 0.0
C139 C 0.75984 0.87358 0.22916 0.0
C140 C 0.7641 0.85843 0.22395 0.0
C141 C 0.75216 0.84622 0.22101 0.0
C142 C 0.71733 0.79964 0.19428 0.0
C143 C 0.73333 0.79641 0.19058 0.0
C144 C 0.04269 0.94159 0.52264 0.0
C145 C 0.03343 0.9287 0.51553 0.0
C146 C 0.02609 0.93063 0.50023 0.0
C147 C 0.02798 0.94515 0.49215 0.0
H148 H 0.00619 0.97124 0.45698 0.0
H149 H 0.98869 0.97599 0.4335 0.0
H150 H 0.01338 0.02213 0.42714 0.0
H151 H 0.03089 0.01753 0.45082 0.0
H152 H 0.05771 0.02981 0.48088 0.0
H153 H 0.08155 0.04778 0.48692 0.0
H154 H 0.10775 0.00802 0.50572 0.0
H155 H 0.08385 0.99005 0.50005 0.0
H156 H 0.05214 0.96573 0.52015 0.0
H157 H 0.04854 0.94035 0.5344 0.0
H158 H 0.0188 0.9209 0.49455 0.0
H159 H 0.02219 0.9462 0.48034 0.0
N160 N 0.02931 0.97675 0.47794 0.0
N161 N 0.044 0.00099 0.47379 0.0
N162 N 0.05246 0.98365 0.49424 0.0
C163 C 0.03129 0.99061 0.46964 0.0
C164 C 0.05466 0.99755 0.48604 0.0
C165 C 0.03975 0.97323 0.4903 0.0
C166 C 0.02008 0.99396 0.45579 0.0
C167 C 0.00789 0.98247 0.45069 0.0
C168 C 0.99788 0.98514 0.43715 0.0
C169 C -0.00027 -0.00062 0.4284 0.0
C170 C 0.01159 0.01108 0.43371 0.0
C171 C 0.02169 0.00838 0.44724 0.0
C172 C 0.0689 0.00853 0.49001 0.0
C173 C 0.06853 0.02491 0.48636 0.0
C174 C 0.08211 0.0352 0.48987 0.0
C175 C 0.09642 0.02923 0.49676 0.0
C176 C 0.09685 0.01286 0.50036 0.0
C177 C 0.08315 0.00264 0.49718 0.0
C178 C 0.03748 0.95799 0.4991 0.0
C179 C 0.04482 0.95605 0.51444 0.0
C180 C 0.22867 0.74062 0.81699 0.0
C181 C 0.21642 0.74998 0.82271 0.0
C182 C 0.20093 0.7489 0.81488 0.0
C183 C 0.19772 0.73847 0.80189 0.0
H184 H 0.17559 0.73552 0.75317 0.0
H185 H 0.15272 0.73905 0.73412 0.0
H186 H 0.14965 0.68826 0.72443 0.0
H187 H 0.17281 0.68466 0.74326 0.0
H188 H 0.21462 0.67342 0.74393 0.0
H189 H 0.23424 0.65289 0.74023 0.0
H190 H 0.25623 0.66374 0.78707 0.0
H191 H 0.23668 0.68412 0.79088 0.0
H192 H 0.23511 0.72292 0.80023 0.0
H193 H 0.24085 0.7414 0.82244 0.0
H194 H 0.19113 0.75577 0.81905 0.0
H195 H 0.18559 0.73772 0.79632 0.0
N196 N 0.19332 0.71859 0.77307 0.0
N197 N 0.19989 0.69536 0.75939 0.0
N198 N 0.21608 0.70465 0.78157 0.0
C199 C 0.19003 0.70779 0.76105 0.0
C200 C 0.21298 0.69373 0.76964 0.0
C201 C 0.20633 0.71708 0.78339 0.0
C202 C 0.17601 0.70981 0.74969 0.0
C203 C 0.17004 0.72508 0.74701 0.0
C204 C 0.15701 0.72714 0.73608 0.0
C205 C 0.14949 0.71392 0.72787 0.0
C206 C 0.15524 0.69861 0.7307 0.0
C207 C 0.16852 0.69659 0.74139 0.0
C208 C 0.22411 0.68052 0.76766 0.0
C209 C 0.22353 0.67133 0.75351 0.0
C210 C 0.23482 0.65962 0.75134 0.0
C211 C 0.24679 0.65673 0.76334 0.0
C212 C 0.24706 0.66557 0.77766 0.0
C213 C 0.2359 0.67736 0.77978 0.0
C214 C 0.20986 0.72876 0.79657 0.0
C215 C 0.22541 0.73006 0.80418 0.0
C216 C 0.99448 0.55602 0.49314 0.0
C217 C 0.98234 0.56136 0.50287 0.0
C218 C 0.96748 0.55238 0.50325 0.0
C219 C 0.9647 0.5386 0.49382 0.0
H220 H 0.9315 0.50162 0.48412 0.0
H221 H 0.90706 0.48454 0.48693 0.0
H222 H 0.92169 0.45387 0.44904 0.0
H223 H 0.94632 0.47078 0.44633 0.0
H224 H 0.97539 0.48664 0.42336 0.0
H225 H 0.99425 0.48331 0.40201 0.0
H226 H 0.03194 0.50951 0.43025 0.0
H227 H 0.013 0.51335 0.45118 0.0
H228 H 0.00127 0.53866 0.4762 0.0
H229 H 0.00617 0.56249 0.49278 0.0
H230 H 0.9578 0.55625 0.51047 0.0
H231 H 0.95298 0.53218 0.49419 0.0
N232 N 0.95945 0.51026 0.47388 0.0
N233 N 0.96696 0.49449 0.4524 0.0
N234 N 0.9841 0.51604 0.46173 0.0
C235 C 0.95616 0.49769 0.4637 0.0
C236 C 0.98098 0.5036 0.45138 0.0
C237 C 0.9734 0.51949 0.47298 0.0
C238 C 0.94098 0.48757 0.46503 0.0
C239 C 0.92954 0.49126 0.47633 0.0
C240 C 0.91544 0.48153 0.4779 0.0
C241 C 0.91244 0.46784 0.46823 0.0
C242 C 0.92376 0.46423 0.45681 0.0
C243 C 0.93785 0.47399 0.4552 0.0
C244 C 0.99264 0.50042 0.4389 0.0
C245 C 0.98774 0.49161 0.42502 0.0
C246 C 0.99857 0.48965 0.4128 0.0
C247 C 0.01458 0.49631 0.41428 0.0
C248 C 0.01959 0.50459 0.42846 0.0
C249 C 0.00874 0.50671 0.44054 0.0
C250 C 0.97668 0.53351 0.48375 0.0
C251 C 0.99168 0.54228 0.48368 0.0
C252 C 0.84467 0.76277 0.75072 0.0
C253 C 0.84873 0.77586 0.74093 0.0
C254 C 0.84042 0.79002 0.7424 0.0
C255 C 0.82787 0.79087 0.75306 0.0
H256 H 0.78809 0.81735 0.76274 0.0
H257 H 0.7689 0.83852 0.76028 0.0
H258 H 0.73622 0.81196 0.79066 0.0
H259 H 0.75556 0.79101 0.7935 0.0
H260 H 0.76534 0.7561 0.80593 0.0
H261 H 0.76125 0.73728 0.82764 0.0
H262 H 0.81303 0.7309 0.83165 0.0
H263 H 0.81696 0.7492 0.80931 0.0
H264 H 0.82928 0.75325 0.76867 0.0
H265 H 0.85099 0.75175 0.74992 0.0
H266 H 0.84326 0.80025 0.73491 0.0
H267 H 0.82145 0.80184 0.75365 0.0
N268 N 0.79859 0.7897 0.77124 0.0
N269 N 0.78308 0.77811 0.7914 0.0
N270 N 0.80715 0.76658 0.78437 0.0
C271 C 0.78532 0.78978 0.78034 0.0
C272 C 0.79395 0.76653 0.79354 0.0
C273 C 0.80952 0.7781 0.77313 0.0
C274 C 0.77344 0.80247 0.77837 0.0
C275 C 0.7768 0.81598 0.76887 0.0
C276 C 0.76573 0.8281 0.76738 0.0
C277 C 0.75099 0.82697 0.77528 0.0
C278 C 0.74756 0.81336 0.78462 0.0
C279 C 0.75865 0.80129 0.78618 0.0
C280 C 0.79149 0.75425 0.80602 0.0
C281 C 0.77584 0.75059 0.81137 0.0
C282 C 0.77352 0.73985 0.82391 0.0
C283 C 0.78683 0.73272 0.83164 0.0
C284 C 0.80246 0.73601 0.82592 0.0
C285 C 0.80474 0.74658 0.81316 0.0
C286 C 0.82351 0.77763 0.7626 0.0
C287 C 0.83227 0.76367 0.76151 0.0
C288 C 0.35492 0.2698 0.26017 0.0
C289 C 0.35605 0.2787 0.24597 0.0
C290 C 0.34271 0.2875 0.24073 0.0
C291 C 0.32853 0.28719 0.24932 0.0
H292 H 0.28819 0.31365 0.25801 0.0
H293 H 0.26813 0.33383 0.25415 0.0
H294 H 0.23473 0.306 0.28272 0.0
H295 H 0.25494 0.286 0.28697 0.0
H296 H 0.26639 0.25254 0.30167 0.0
H297 H 0.26194 0.23372 0.32331 0.0
H298 H 0.31391 0.23055 0.33096 0.0
H299 H 0.31831 0.24887 0.30875 0.0
H300 H 0.34022 0.26228 0.27949 0.0
H301 H 0.36504 0.26311 0.26472 0.0
H302 H 0.34302 0.29429 0.22973 0.0
H303 H 0.31843 0.29391 0.24477 0.0
N304 N 0.30009 0.2874 0.2685 0.0
N305 N 0.28357 0.27491 0.28736 0.0
N306 N 0.30951 0.26568 0.28336 0.0
C307 C 0.28588 0.28645 0.27618 0.0
C308 C 0.29531 0.2645 0.29103 0.0
C309 C 0.31194 0.27704 0.27198 0.0
C310 C 0.27326 0.29821 0.27289 0.0
C311 C 0.27654 0.31175 0.2634 0.0
C312 C 0.26498 0.32331 0.26111 0.0
C313 C 0.24981 0.32158 0.26816 0.0
C314 C 0.24639 0.30785 0.27733 0.0
C315 C 0.25797 0.29633 0.2797 0.0
C316 C 0.2927 0.25232 0.30358 0.0
C317 C 0.27687 0.24775 0.3079 0.0
C318 C 0.27433 0.23701 0.32039 0.0
C319 C 0.28756 0.23075 0.32908 0.0
C320 C 0.30341 0.23497 0.32445 0.0
C321 C 0.30595 0.24556 0.31177 0.0
C322 C 0.32727 0.27797 0.2633 0.0
C323 C 0.34069 0.26938 0.26869 0.0
C324 C 0.49896 0.93302 0.52235 0.0
C325 C 0.49174 0.93202 0.50683 0.0
C326 C 0.48202 0.94437 0.50133 0.0
C327 C 0.47918 0.95727 0.51135 0.0
H328 H 0.44139 0.98689 0.5225 0.0
H329 H 0.41856 0.00362 0.5162 0.0
H330 H 0.43617 0.0372 0.55303 0.0
H331 H 0.45904 0.02056 0.55938 0.0
H332 H 0.4805 0.99839 0.59043 0.0
H333 H 0.49808 0.0028 0.61466 0.0
H334 H 0.53871 0.98582 0.58982 0.0
H335 H 0.52118 0.98096 0.56577 0.0
H336 H 0.50195 0.94629 0.54424 0.0
H337 H 0.50661 0.92369 0.52682 0.0
H338 H 0.47624 0.94383 0.48943 0.0
H339 H 0.4714 0.96648 0.50687 0.0
N340 N 0.46975 0.98053 0.53481 0.0
N341 N 0.47585 0.99518 0.55848 0.0
N342 N 0.4923 0.97442 0.55133 0.0
C343 C 0.46622 0.99243 0.54503 0.0
C344 C 0.48893 0.98624 0.56167 0.0
C345 C 0.48275 0.97146 0.5379 0.0
C346 C 0.45211 0.00238 0.54143 0.0
C347 C 0.44042 0.99782 0.52929 0.0
C348 C 0.42727 0.00735 0.52573 0.0
C349 C 0.42561 0.02173 0.5341 0.0
C350 C 0.43723 0.02626 0.54628 0.0
C351 C 0.45029 0.01666 0.54996 0.0
C352 C 0.49948 0.98931 0.57622 0.0
C353 C 0.49319 0.99562 0.59015 0.0
C354 C 0.50318 0.99809 0.604 0.0
C355 C 0.51968 0.99467 0.604 0.0
C356 C 0.52602 0.98859 0.59004 0.0
C357 C 0.51598 0.98576 0.57634 0.0
C358 C 0.48622 0.95817 0.52699 0.0
C359 C 0.49633 0.94601 0.53228 0.0
C360 C 0.23446 0.29164 0.66833 0.0
C361 C 0.22198 0.28045 0.66339 0.0
C362 C 0.20643 0.2817 0.66938 0.0
C363 C 0.20351 0.29372 0.6804 0.0
H364 H 0.18067 0.29803 0.72421 0.0
H365 H 0.16073 0.29265 0.74444 0.0
H366 H 0.16702 0.3416 0.76098 0.0
H367 H 0.18704 0.34709 0.74076 0.0
H368 H 0.22883 0.3585 0.73833 0.0
H369 H 0.24932 0.38048 0.74229 0.0
H370 H 0.26016 0.37814 0.69233 0.0
H371 H 0.23992 0.35592 0.68835 0.0
H372 H 0.2414 0.31221 0.68278 0.0
H373 H 0.24651 0.291 0.66377 0.0
H374 H 0.19663 0.27316 0.66578 0.0
H375 H 0.19146 0.29425 0.68498 0.0
N376 N 0.2008 0.31505 0.70768 0.0
N377 N 0.20887 0.33906 0.72097 0.0
N378 N 0.22332 0.33049 0.69922 0.0
C379 C 0.19855 0.32591 0.7194 0.0
C380 C 0.22122 0.34146 0.71087 0.0
C381 C 0.21315 0.31725 0.69755 0.0
C382 C 0.18557 0.32298 0.73092 0.0
C383 C 0.17773 0.30772 0.73204 0.0
C384 C 0.16636 0.30459 0.74367 0.0
C385 C 0.16241 0.31669 0.75431 0.0
C386 C 0.16978 0.33209 0.75286 0.0
C387 C 0.18132 0.33518 0.74134 0.0
C388 C 0.23281 0.35545 0.71304 0.0
C389 C 0.23548 0.36275 0.72815 0.0
C390 C 0.24723 0.37527 0.73045 0.0
C391 C 0.25625 0.38094 0.7176 0.0
C392 C 0.25326 0.374 0.70239 0.0
C393 C 0.24176 0.36126 0.70015 0.0
C394 C 0.21602 0.3049 0.68541 0.0
C395 C 0.23148 0.30384 0.67912 0.0
C396 C 0.77837 0.17593 0.7467 0.0
C397 C 0.76897 0.16899 0.73383 0.0
C398 C 0.77093 0.17503 0.71835 0.0
C399 C 0.78204 0.18781 0.71577 0.0
H400 H 0.79384 0.22127 0.68251 0.0
H401 H 0.78967 0.23712 0.65851 0.0
H402 H 0.8239 0.27379 0.67762 0.0
H403 H 0.8281 0.25792 0.70187 0.0
H404 H 0.85615 0.2396 0.72796 0.0
H405 H 0.87979 0.24341 0.74629 0.0
H406 H 0.85316 0.21971 0.78365 0.0
H407 H 0.82981 0.2153 0.76511 0.0
H408 H 0.79683 0.19361 0.75423 0.0
H409 H 0.77714 0.1714 0.75874 0.0
H410 H 0.76375 0.16997 0.70825 0.0
H411 H 0.78325 0.19217 0.70367 0.0
N412 N 0.80226 0.21668 0.71202 0.0
N413 N 0.82565 0.23231 0.71984 0.0
N414 N 0.81599 0.21168 0.73648 0.0
C415 C 0.81317 0.22888 0.70903 0.0
C416 C 0.82715 0.22373 0.73358 0.0
C417 C 0.80354 0.20806 0.7257 0.0
C418 C 0.81128 0.23833 0.69416 0.0
C419 C 0.80055 0.23268 0.68164 0.0
C420 C 0.79824 0.24171 0.66781 0.0
C421 C 0.8065 0.25666 0.66618 0.0
C422 C 0.81731 0.26233 0.67861 0.0
C423 C 0.81977 0.2532 0.69244 0.0
C424 C 0.84113 0.22705 0.74504 0.0
C425 C 0.85532 0.23528 0.74011 0.0
C426 C 0.86887 0.23753 0.75067 0.0
C427 C 0.86849 0.23178 0.76646 0.0
C428 C 0.85408 0.22397 0.77148 0.0
C429 C 0.84062 0.22153 0.76087 0.0
C430 C 0.79161 0.19467 0.72859 0.0
C431 C 0.78969 0.18856 0.74409 0.0
C432 C 0.48458 0.51078 0.54708 0.0
C433 C 0.49146 0.50489 0.56148 0.0
C434 C 0.50768 0.50029 0.56173 0.0
C435 C 0.51684 0.50187 0.5481 0.0
H436 H 0.55922 0.48834 0.52857 0.0
H437 H 0.58484 0.47527 0.52651 0.0
H438 H 0.58915 0.49324 0.47843 0.0
H439 H 0.56348 0.50635 0.48039 0.0
H440 H 0.54533 0.53962 0.47396 0.0
H441 H 0.54137 0.5642 0.45919 0.0
H442 H 0.49486 0.56855 0.4803 0.0
H443 H 0.49897 0.54414 0.49546 0.0
H444 H 0.48825 0.51747 0.52275 0.0
H445 H 0.47204 0.5141 0.54627 0.0
H446 H 0.51353 0.49596 0.57261 0.0
H447 H 0.5294 0.49856 0.54886 0.0
N448 N 0.53416 0.50348 0.51844 0.0
N449 N 0.53985 0.51827 0.49538 0.0
N450 N 0.51634 0.52279 0.50918 0.0
C451 C 0.54393 0.50676 0.50606 0.0
C452 C 0.52608 0.52636 0.49685 0.0
C453 C 0.52028 0.51136 0.52 0.0
C454 C 0.55927 0.49843 0.50465 0.0
C455 C 0.56556 0.48948 0.51752 0.0
C456 C 0.5803 0.48208 0.5164 0.0
C457 C 0.589 0.4833 0.50234 0.0
C458 C 0.58264 0.49203 0.48938 0.0
C459 C 0.56798 0.49959 0.49055 0.0
C460 C 0.52259 0.53999 0.48612 0.0
C461 C 0.53414 0.54566 0.47532 0.0
C462 C 0.53183 0.55975 0.46674 0.0
C463 C 0.51787 0.56846 0.46868 0.0
C464 C 0.5059 0.5623 0.47878 0.0
C465 C 0.50823 0.54825 0.48742 0.0
C466 C 0.51012 0.50835 0.53396 0.0
C467 C 0.49384 0.51262 0.53354 0.0
C468 C 0.54704 0.44521 0.01917 0.0
C469 C 0.5376 0.43221 0.01253 0.0
C470 C 0.52985 0.43386 0.99737 0.0
C471 C 0.53148 0.44825 0.989 0.0
H472 H 0.50852 0.47399 0.95404 0.0
H473 H 0.49044 0.47846 0.9309 0.0
H474 H 0.51516 0.52434 0.92322 0.0
H475 H 0.53322 0.52004 0.94656 0.0
H476 H 0.55985 0.53311 0.97674 0.0
H477 H 0.58308 0.55152 0.98284 0.0
H478 H 0.61067 0.51199 0.00045 0.0
H479 H 0.58708 0.49385 0.99523 0.0
H480 H 0.55633 0.46932 0.01608 0.0
H481 H 0.5532 0.4442 0.03082 0.0
H482 H 0.52241 0.42404 0.99204 0.0
H483 H 0.52535 0.44911 0.97733 0.0
N484 N 0.53233 0.47965 0.97426 0.0
N485 N 0.54661 0.50404 0.9697 0.0
N486 N 0.55566 0.48697 0.99013 0.0
C487 C 0.53398 0.49347 0.96583 0.0
C488 C 0.55752 0.50083 0.9818 0.0
C489 C 0.54304 0.47636 0.98647 0.0
C490 C 0.52245 0.49661 0.95217 0.0
C491 C 0.5101 0.4851 0.94752 0.0
C492 C 0.49975 0.48761 0.93419 0.0
C493 C 0.50143 0.5017 0.92516 0.0
C494 C 0.51348 0.51341 0.93001 0.0
C495 C 0.52389 0.51089 0.94334 0.0
C496 C 0.57162 0.51205 0.98554 0.0
C497 C 0.57088 0.5284 0.98197 0.0
C498 C 0.58429 0.53894 0.98537 0.0
C499 C 0.59891 0.53332 0.9921 0.0
C500 C 0.5996 0.5169 0.99559 0.0
C501 C 0.58607 0.50643 0.9925 0.0
C502 C 0.54111 0.46122 0.99551 0.0
C503 C 0.54889 0.45954 0.01069 0.0
C504 C 0.72368 0.24284 0.3128 0.0
C505 C 0.71094 0.25133 0.31886 0.0
C506 C 0.69515 0.24859 0.31198 0.0
C507 C 0.69216 0.23743 0.29956 0.0
H508 H 0.66263 0.22808 0.2584 0.0
H509 H 0.63997 0.23034 0.23908 0.0
H510 H 0.65386 0.18773 0.21489 0.0
H511 H 0.6768 0.18558 0.23401 0.0
H512 H 0.71262 0.17258 0.24282 0.0
H513 H 0.73276 0.15234 0.24014 0.0
H514 H 0.75329 0.16453 0.28725 0.0
H515 H 0.73325 0.18467 0.29002 0.0
H516 H 0.73075 0.22514 0.29635 0.0
H517 H 0.73607 0.24491 0.31747 0.0
H518 H 0.685 0.25474 0.31644 0.0
H519 H 0.67984 0.23542 0.29467 0.0
N520 N 0.68854 0.21684 0.27102 0.0
N521 N 0.69649 0.19387 0.2578 0.0
N522 N 0.71221 0.20444 0.27973 0.0
C523 C 0.68585 0.20569 0.25921 0.0
C524 C 0.70967 0.19313 0.26809 0.0
C525 C 0.70174 0.21632 0.28128 0.0
C526 C 0.67164 0.20667 0.24777 0.0
C527 C 0.66088 0.21913 0.24901 0.0
C528 C 0.64778 0.22039 0.23798 0.0
C529 C 0.6451 0.20922 0.22543 0.0
C530 C 0.65572 0.19665 0.22429 0.0
C531 C 0.66883 0.19538 0.23533 0.0
C532 C 0.72135 0.18033 0.2666 0.0
C533 C 0.72135 0.17088 0.25266 0.0
C534 C 0.73292 0.15933 0.25108 0.0
C535 C 0.74459 0.15686 0.26349 0.0
C536 C 0.74435 0.16604 0.27756 0.0
C537 C 0.73292 0.17768 0.27907 0.0
C538 C 0.70485 0.22862 0.29392 0.0
C539 C 0.72065 0.23154 0.30061 0.0
C540 C 0.48622 0.06283 0.99501 0.0
C541 C 0.47405 0.06776 0.00494 0.0
C542 C 0.4597 0.05807 0.00592 0.0
C543 C 0.45743 0.04397 0.99691 0.0
H544 H 0.42502 0.00701 0.98764 0.0
H545 H 0.40088 0.98983 0.99125 0.0
H546 H 0.4167 0.95679 0.95601 0.0
H547 H 0.44084 0.97416 0.9521 0.0
H548 H 0.47001 0.99061 0.92793 0.0
H549 H 0.48944 0.98695 0.90713 0.0
H550 H 0.52645 0.0135 0.93592 0.0
H551 H 0.50695 0.01768 0.95624 0.0
H552 H 0.49353 0.04545 0.97833 0.0
H553 H 0.49752 0.0699 0.99418 0.0
H554 H 0.45 0.0616 0.0133 0.0
H555 H 0.44609 0.03697 0.99776 0.0
N556 N 0.4529 0.0153 0.97755 0.0
N557 N 0.46102 0.99876 0.95693 0.0
N558 N 0.47761 0.02103 0.96553 0.0
C559 C 0.44999 0.00226 0.96792 0.0
C560 C 0.4749 0.0081 0.95572 0.0
C561 C 0.46666 0.02475 0.97644 0.0
C562 C 0.43499 0.99196 0.96962 0.0
C563 C 0.4234 0.99612 0.98058 0.0
C564 C 0.40955 0.98622 0.98274 0.0
C565 C 0.40691 0.97188 0.97401 0.0
C566 C 0.41831 0.96783 0.96282 0.0
C567 C 0.4322 0.97776 0.96064 0.0
C568 C 0.48688 0.00461 0.94365 0.0
C569 C 0.48233 0.99558 0.92982 0.0
C570 C 0.49349 0.99343 0.91792 0.0
C571 C 0.50948 0.00012 0.9197 0.0
C572 C 0.51413 0.00857 0.93388 0.0
C573 C 0.50296 0.01089 0.94562 0.0
C574 C 0.46944 0.03924 0.98667 0.0
C575 C 0.48395 0.04876 0.98597 0.0
Mg576 Mg 0.23502 0.84835 0.00562 0.0
O577 O 0.25974 0.86176 0.00233 0.0
O578 O 0.2787 0.84357 0.00489 0.0
Mg579 Mg 0.26653 0.81903 0.0095 0.0
C580 C 0.27458 0.85793 0.00249 0.0
C581 C 0.22088 0.88216 0.00492 0.0
O582 O 0.22981 0.88313 0.01833 0.0
O583 O 0.2359 0.83787 0.98049 0.0
O584 O 0.25452 0.81951 0.98416 0.0
O585 O 0.23773 0.8522 0.03211 0.0
O586 O 0.24632 0.83118 0.01954 0.0
C587 C 0.24419 0.82663 0.97521 0.0
C588 C 0.24547 0.83909 0.03267 0.0
O589 O 0.22116 0.86961 0.99635 0.0
Mg590 Mg 0.15382 0.4999 0.26452 0.0
O591 O 0.13798 0.4989 0.24104 0.0
O592 O 0.15535 0.49912 0.22116 0.0
Mg593 Mg 0.18146 0.50165 0.23138 0.0
C594 C 0.14091 0.49844 0.22614 0.0
C595 C 0.13178 0.50163 0.29192 0.0
O596 O 0.1433 0.51292 0.2943 0.0
O597 O 0.16032 0.47392 0.26106 0.0
O598 O 0.17814 0.47629 0.24168 0.0
O599 O 0.15428 0.52657 0.26459 0.0
O600 O 0.17245 0.51243 0.25305 0.0
C601 C 0.17031 0.46784 0.25178 0.0
C602 C 0.16706 0.52625 0.25617 0.0
O603 O 0.13213 0.49282 0.27953 0.0
Mg604 Mg 0.775 0.65547 0.02216 0.0
O605 O 0.74969 0.64238 0.02 0.0
O606 O 0.73162 0.66142 0.01708 0.0
Mg607 Mg 0.74473 0.68606 0.01871 0.0
C608 C 0.73508 0.64671 0.01789 0.0
C609 C 0.78649 0.621 0.02787 0.0
O610 O 0.77697 0.62251 0.03993 0.0
O611 O 0.77339 0.66112 0.9954 0.0
O612 O 0.75584 0.68068 0.99471 0.0
O613 O 0.77381 0.65691 0.04877 0.0
O614 O 0.76484 0.67532 0.03221 0.0
C615 C 0.76543 0.67162 0.98775 0.0
C616 C 0.76653 0.67016 0.04667 0.0
O617 O 0.78766 0.63229 0.01777 0.0
Mg618 Mg 0.90481 0.03202 0.2424 0.0
O619 O 0.88923 0.00844 0.24081 0.0
O620 O 0.90569 0.98869 0.23583 0.0
Mg621 Mg 0.93177 -0.00072 0.2359 0.0
C622 C 0.89157 0.9937 0.23807 0.0
C623 C 0.8802 0.05763 0.24303 0.0
O624 O 0.88968 0.06161 0.2313 0.0
O625 O 0.91377 0.02568 0.2677 0.0
O626 O 0.93024 0.00597 0.26257 0.0
O627 O 0.90236 0.03451 0.2159 0.0
O628 O 0.92236 0.0223 0.22841 0.0
C629 C 0.92367 0.01519 0.27239 0.0
C630 C 0.91519 0.02629 0.21512 0.0
O631 O 0.88325 0.04524 0.2512 0.0
Mg632 Mg 0.27231 0.15394 0.51907 0.0
O633 O 0.24754 0.13973 0.51707 0.0
O634 O 0.22879 0.15807 0.51349 0.0
Mg635 Mg 0.24081 0.18321 0.51482 0.0
C636 C 0.23278 0.14353 0.51469 0.0
C637 C 0.30137 0.13461 0.51266 0.0
O638 O 0.30674 0.14965 0.5121 0.0
O639 O 0.2706 0.15913 0.49226 0.0
O640 O 0.25239 0.17806 0.49099 0.0
O641 O 0.27111 0.15574 0.54566 0.0
O642 O 0.26115 0.17333 0.52873 0.0
C643 C 0.26239 0.16923 0.48433 0.0
C644 C 0.26319 0.16858 0.54329 0.0
O645 O 0.28639 0.13161 0.51501 0.0
Mg646 Mg 0.40739 0.53281 0.73874 0.0
O647 O 0.39053 0.51011 0.73647 0.0
O648 O 0.40617 0.48918 0.73396 0.0
Mg649 Mg 0.43267 0.49846 0.73365 0.0
C650 C 0.39224 0.49508 0.73495 0.0
C651 C 0.38262 0.55888 0.73841 0.0
O652 O 0.39134 0.56229 0.72598 0.0
O653 O 0.41525 0.52615 0.76434 0.0
O654 O 0.43129 0.50591 0.76005 0.0
O655 O 0.40598 0.53557 0.71229 0.0
O656 O 0.4246 0.52183 0.72519 0.0
C657 C 0.42477 0.51552 0.76949 0.0
C658 C 0.41813 0.5264 0.71174 0.0
O659 O 0.38629 0.54701 0.7471 0.0
Mg660 Mg 0.73682 0.35022 0.50038 0.0
O661 O 0.76202 0.36259 0.49709 0.0
O662 O 0.78004 0.34343 0.49771 0.0
Mg663 Mg 0.76675 0.31921 0.5013 0.0
C664 C 0.77658 0.35811 0.49639 0.0
C665 C 0.72603 0.38524 0.50203 0.0
O666 O 0.73636 0.38507 0.51444 0.0
O667 O 0.73632 0.34126 0.47452 0.0
O668 O 0.75409 0.32192 0.47651 0.0
O669 O 0.74049 0.35211 0.52703 0.0
O670 O 0.74743 0.33156 0.51266 0.0
C671 C 0.74391 0.32998 0.46831 0.0
C672 C 0.74732 0.33852 0.52639 0.0
O673 O 0.72414 0.37286 0.49316 0.0
Mg674 Mg 0.6522 0.00416 0.77314 0.0
O675 O 0.63646 0.00324 0.74957 0.0
O676 O 0.65392 0.00359 0.72977 0.0
Mg677 Mg 0.67998 0.00615 0.7401 0.0
C678 C 0.63946 0.00286 0.73469 0.0
C679 C 0.62979 0.00563 0.80037 0.0
O680 O 0.64117 0.01702 0.80296 0.0
O681 O 0.65888 0.9782 0.76963 0.0
O682 O 0.67674 0.98078 0.75031 0.0
O683 O 0.6526 0.03086 0.7733 0.0
O684 O 0.67085 0.0168 0.76178 0.0
C685 C 0.66894 0.97224 0.76035 0.0
C686 C 0.6654 0.0306 0.7649 0.0
O687 O 0.63041 0.9969 0.78796 0.0
Mg688 Mg 0.03418 0.25536 0.90306 0.0
O689 O 0.01132 0.25123 0.8864 0.0
O690 O 0.99177 0.24031 0.90127 0.0
Mg691 Mg 0.00142 0.23881 0.92715 0.0
C692 C 0.99687 0.2453 0.88788 0.0
C693 C 0.06143 0.26607 0.88211 0.0
O694 O 0.06736 0.25491 0.89139 0.0
O695 O 0.02343 0.27738 0.91357 0.0
O696 O 0.00397 0.26642 0.92843 0.0
O697 O 0.04137 0.23062 0.89831 0.0
O698 O 0.02588 0.23697 0.91804 0.0
C699 C 0.01194 0.27867 0.92317 0.0
C700 C 0.03246 0.22602 0.90997 0.0
O701 O 0.04691 0.26998 0.88391 0.0
Mg702 Mg 0.53342 0.75945 0.40369 0.0
O703 O 0.50891 0.75507 0.39 0.0
O704 O 0.49059 0.74654 0.40744 0.0
Mg705 Mg 0.50367 0.74435 0.432 0.0
C706 C 0.49443 0.7505 0.3933 0.0
C707 C 0.5439 0.76609 0.36915 0.0
O708 O 0.53826 0.75115 0.36799 0.0
O709 O 0.5243 0.78213 0.41493 0.0
O710 O 0.50755 0.77173 0.43293 0.0
O711 O 0.53941 0.73413 0.39909 0.0
O712 O 0.52679 0.742 0.42027 0.0
C713 C 0.5147 0.78376 0.42636 0.0
C714 C 0.53198 0.73044 0.412 0.0
O715 O 0.5433 0.77336 0.38248 0.0
Mg716 Mg 0.9853 0.74176 0.59419 0.0
O717 O 0.00857 0.73771 0.60954 0.0
O718 O 0.028 0.73279 0.59254 0.0
Mg719 Mg 0.01707 0.73225 0.56692 0.0
C720 C 0.02324 0.73475 0.60672 0.0
C721 C 0.95846 0.74634 0.61663 0.0
O722 O 0.95281 0.73568 0.60595 0.0
O723 O 0.99576 0.7663 0.58662 0.0
O724 O 0.01364 0.7593 0.56881 0.0
O725 O 0.97837 0.71567 0.59523 0.0
O726 O 0.99306 0.72676 0.5764 0.0
C727 C 0.00621 0.76996 0.57621 0.0
C728 C 0.98672 0.71398 0.58264 0.0
O729 O 0.97287 0.75223 0.61545 0.0
Mg730 Mg 0.48288 0.24964 0.09489 0.0
O731 O 0.50643 0.24238 0.10798 0.0
O732 O 0.5234 0.23469 0.08963 0.0
Mg733 Mg 0.51078 0.23705 0.06488 0.0
C734 C 0.52006 0.23716 0.10418 0.0
C735 C 0.47316 0.25194 0.13006 0.0
O736 O 0.4777 0.23712 0.12925 0.0
O737 O 0.49559 0.27305 0.08718 0.0
O738 O 0.51125 0.26443 0.06809 0.0
O739 O 0.47294 0.22436 0.09569 0.0
O740 O 0.48711 0.23436 0.07593 0.0
C741 C 0.50575 0.27575 0.07627 0.0
C742 C 0.47998 0.22211 0.08239 0.0
O743 O 0.47443 0.26083 0.11781 0.0
C744 C 0.22976 0.75521 0.8499 0.0
C745 C 0.21968 0.76036 0.8371 0.0
C746 C 0.23282 0.76476 0.8635 0.0
C747 C 0.2158 0.79561 0.88746 0.0
H748 H 0.2597 0.80043 0.90609 0.0
C749 C 0.23099 0.82907 0.94763 0.0
C750 C 0.24179 0.82143 0.95827 0.0
C751 C 0.22865 0.82379 0.93174 0.0
C752 C 0.24736 0.79913 0.9011 0.0
H753 H 0.20498 0.77975 0.82866 0.0
H754 H 0.21003 0.79625 0.85274 0.0
H755 H 0.25486 0.78707 0.88026 0.0
H756 H 0.25861 0.80226 0.96045 0.0
H757 H 0.25432 0.79298 0.93307 0.0
H758 H 0.2082 0.80711 0.90861 0.0
C759 C 0.21557 0.7848 0.85209 0.0
C760 C 0.24461 0.79152 0.88629 0.0
C761 C 0.21264 0.7753 0.83835 0.0
C762 C 0.25025 0.8085 0.95262 0.0
C763 C 0.24789 0.80324 0.93682 0.0
C764 C 0.21854 0.80313 0.90238 0.0
C765 C 0.22575 0.77962 0.86475 0.0
C766 C 0.22877 0.78936 0.8795 0.0
C767 C 0.23707 0.81079 0.92618 0.0
C768 C 0.23431 0.80462 0.90954 0.0
H769 H 0.23507 0.74363 0.84959 0.0
H770 H 0.24046 0.76033 0.87322 0.0
H771 H 0.20346 0.79402 0.88252 0.0
H772 H 0.22431 0.83909 0.95156 0.0
H773 H 0.22031 0.82994 0.9238 0.0
C774 C 0.03681 0.50811 0.39773 0.0
C775 C 0.02597 0.49513 0.40101 0.0
C776 C 0.0479 0.50701 0.3857 0.0
C777 C 0.05605 0.48688 0.34842 0.0
H778 H 0.10067 0.50114 0.35923 0.0
C779 C 0.10793 0.48599 0.30309 0.0
C780 C 0.11897 0.49938 0.30369 0.0
C781 C 0.09633 0.48388 0.31479 0.0
C782 C 0.08824 0.49724 0.35594 0.0
H783 H 0.01814 0.47089 0.39383 0.0
H784 H 0.03739 0.46918 0.37245 0.0
H785 H 0.08072 0.50048 0.37986 0.0
H786 H 0.12611 0.52127 0.31672 0.0
H787 H 0.10585 0.51779 0.33671 0.0
H788 H 0.06351 0.48414 0.32433 0.0
C789 C 0.03725 0.48014 0.37937 0.0
C790 C 0.07684 0.49682 0.36779 0.0
C791 C 0.02622 0.48116 0.39158 0.0
C792 C 0.11794 0.51072 0.31598 0.0
C793 C 0.10636 0.50866 0.32755 0.0
C794 C 0.06747 0.48745 0.33647 0.0
C795 C 0.04834 0.49299 0.37649 0.0
C796 C 0.06057 0.49194 0.3641 0.0
C797 C 0.09555 0.49513 0.32726 0.0
C798 C 0.08363 0.49298 0.34004 0.0
H799 H 0.03668 0.51922 0.40439 0.0
H800 H 0.0561 0.51722 0.38352 0.0
H801 H 0.04356 0.48311 0.34526 0.0
H802 H 0.10843 0.47705 0.29376 0.0
H803 H 0.08821 0.47329 0.31425 0.0
C804 C 0.79391 0.70932 0.84929 0.0
C805 C 0.78445 0.72264 0.8461 0.0
C806 C 0.79189 0.70033 0.86324 0.0
C807 C 0.76261 0.69108 0.8943 0.0
H808 H 0.80023 0.68498 0.92273 0.0
C809 C 0.75723 0.68395 0.96163 0.0
C810 C 0.76733 0.67368 0.9703 0.0
C811 C 0.75923 0.68661 0.94537 0.0
C812 C 0.78963 0.68626 0.9148 0.0
H813 H 0.76567 0.737 0.85539 0.0
H814 H 0.7619 0.72111 0.87928 0.0
H815 H 0.80398 0.69566 0.89585 0.0
H816 H 0.7873 0.65788 0.96852 0.0
H817 H 0.7908 0.66259 0.93993 0.0
H818 H 0.74821 0.68208 0.91326 0.0
C819 C 0.77073 0.71752 0.87091 0.0
C820 C 0.79179 0.69239 0.89943 0.0
C821 C 0.77287 0.72661 0.85714 0.0
C822 C 0.77933 0.66588 0.9622 0.0
C823 C 0.78138 0.66862 0.94586 0.0
C824 C 0.76046 0.68487 0.90958 0.0
C825 C 0.78024 0.70434 0.87415 0.0
C826 C 0.77825 0.69537 0.88926 0.0
C827 C 0.77137 0.67908 0.93729 0.0
C828 C 0.77391 0.68294 0.92022 0.0
H829 H 0.80281 0.70579 0.84099 0.0
H830 H 0.79935 0.69018 0.86546 0.0
H831 H 0.75198 0.69298 0.88658 0.0
H832 H 0.74784 0.69016 0.96741 0.0
H833 H 0.7515 0.69497 0.93924 0.0
C834 C 0.98286 0.01645 0.41005 0.0
C835 C 0.9897 0.00169 0.41345 0.0
C836 C 0.97355 0.01851 0.39585 0.0
C837 C 0.95131 0.99547 0.36286 0.0
H838 H 0.95738 0.03482 0.33891 0.0
C839 C 0.93572 0.00012 0.29544 0.0
C840 C 0.92822 0.01384 0.28967 0.0
C841 C 0.941 -0.0009 0.31148 0.0
C842 C 0.95536 0.02386 0.34558 0.0
H843 H 0.99245 0.97767 0.40448 0.0
H844 H 0.97649 0.98129 0.37973 0.0
H845 H 0.97107 0.03227 0.36521 0.0
H846 H 0.92012 0.03715 0.29633 0.0
H847 H 0.92958 0.0354 0.32443 0.0
H848 H 0.93608 0.98688 0.34295 0.0
C849 C 0.97788 0.99117 0.38816 0.0
C850 C 0.96319 0.02239 0.36067 0.0
C851 C 0.98708 0.98909 0.40235 0.0
C852 C 0.92583 0.0264 0.30041 0.0
C853 C 0.93132 0.02546 0.31646 0.0
C854 C 0.9436 0.9969 0.34775 0.0
C855 C 0.97097 0.00589 0.38472 0.0
C856 C 0.96151 0.00806 0.36936 0.0
C857 C 0.93905 0.01182 0.32211 0.0
C858 C 0.94578 0.011 0.33883 0.0
H859 H 0.98454 0.02634 0.41845 0.0
H860 H 0.96827 0.02995 0.39367 0.0
H861 H 0.94942 0.9844 0.36937 0.0
H862 H 0.9377 0.99019 0.28752 0.0
H863 H 0.94706 0.98851 0.31544 0.0
C864 C 0.23859 0.25786 0.65507 0.0
C865 C 0.22525 0.26741 0.65215 0.0
C866 C 0.24183 0.24566 0.6444 0.0
C867 C 0.22342 0.22166 0.60982 0.0
H868 H 0.2685 0.21426 0.60208 0.0
C869 C 0.24531 0.18904 0.55418 0.0
C870 C 0.25704 0.17759 0.55682 0.0
C871 C 0.24046 0.19841 0.56681 0.0
C872 C 0.25586 0.21607 0.60427 0.0
H873 H 0.20487 0.27182 0.63582 0.0
H874 H 0.21083 0.25097 0.6168 0.0
H875 H 0.26209 0.23403 0.62198 0.0
H876 H 0.27269 0.16677 0.57486 0.0
H877 H 0.26446 0.18347 0.59689 0.0
H878 H 0.21734 0.20415 0.59146 0.0
C879 C 0.21854 0.25248 0.62756 0.0
C880 C 0.25215 0.22737 0.61572 0.0
C881 C 0.21516 0.26451 0.6384 0.0
C882 C 0.26358 0.17547 0.57244 0.0
C883 C 0.25895 0.18505 0.58503 0.0
C884 C 0.22716 0.21055 0.59818 0.0
C885 C 0.23196 0.2429 0.63039 0.0
C886 C 0.23587 0.2304 0.6186 0.0
C887 C 0.24746 0.19671 0.58228 0.0
C888 C 0.24341 0.20771 0.59526 0.0
H889 H 0.24643 0.25974 0.66573 0.0
H890 H 0.25205 0.23834 0.6472 0.0
H891 H 0.21075 0.22339 0.61191 0.0
H892 H 0.23998 0.19097 0.54235 0.0
H893 H 0.23165 0.2074 0.56436 0.0
C894 C 0.47117 0.51623 0.57952 0.0
C895 C 0.48207 0.50428 0.57634 0.0
C896 C 0.46302 0.51622 0.59381 0.0
C897 C 0.46748 0.50457 0.63534 0.0
H898 H 0.42132 0.5112 0.63651 0.0
C899 C 0.43605 0.50992 0.69538 0.0
C900 C 0.42415 0.52133 0.69619 0.0
C901 C 0.44212 0.50574 0.68065 0.0
C902 C 0.43426 0.50952 0.63643 0.0
H903 H 0.49242 0.4826 0.58568 0.0
H904 H 0.47861 0.48302 0.61093 0.0
H905 H 0.43372 0.50793 0.6108 0.0
H906 H 0.40928 0.53729 0.68214 0.0
H907 H 0.42023 0.53052 0.65666 0.0
H908 H 0.46832 0.50694 0.66082 0.0
C909 C 0.47643 0.49234 0.60223 0.0
C910 C 0.44131 0.50755 0.62169 0.0
C911 C 0.48439 0.49219 0.5878 0.0
C912 C 0.41836 0.52836 0.68194 0.0
C913 C 0.42458 0.52437 0.66726 0.0
C914 C 0.46049 0.50678 0.65007 0.0
C915 C 0.46574 0.50442 0.60539 0.0
C916 C 0.45801 0.50523 0.62101 0.0
C917 C 0.43661 0.51306 0.66641 0.0
C918 C 0.44381 0.50949 0.65081 0.0
H919 H 0.46928 0.52594 0.5712 0.0
H920 H 0.455 0.52579 0.59606 0.0
H921 H 0.48043 0.50296 0.63512 0.0
H922 H 0.44079 0.50427 0.7061 0.0
H923 H 0.45118 0.4968 0.68047 0.0
C924 C 0.80245 0.25914 0.63648 0.0
C925 C 0.80335 0.26639 0.65168 0.0
C926 C 0.79787 0.26782 0.62294 0.0
C927 C 0.79231 0.3087 0.60728 0.0
H928 H 0.76146 0.28627 0.57774 0.0
C929 C 0.75664 0.3397 0.55539 0.0
C930 C 0.75512 0.33135 0.54074 0.0
C931 C 0.76345 0.3325 0.56904 0.0
C932 C 0.7702 0.29266 0.58577 0.0
H933 H 0.80067 0.28856 0.66458 0.0
H934 H 0.79249 0.30376 0.64087 0.0
H935 H 0.77206 0.27247 0.60121 0.0
H936 H 0.75968 0.30898 0.5289 0.0
H937 H 0.77168 0.29658 0.55254 0.0
H938 H 0.79023 0.32897 0.59178 0.0
C939 C 0.79551 0.29139 0.63942 0.0
C940 C 0.77631 0.28473 0.59921 0.0
C941 C 0.80019 0.2827 0.65299 0.0
C942 C 0.76074 0.31579 0.53996 0.0
C943 C 0.7675 0.30861 0.55355 0.0
C944 C 0.78614 0.31666 0.59379 0.0
C945 C 0.79397 0.28394 0.62429 0.0
C946 C 0.78753 0.2926 0.61007 0.0
C947 C 0.76876 0.3168 0.56828 0.0
C948 C 0.77512 0.30866 0.58284 0.0
H949 H 0.80511 0.24666 0.63509 0.0
H950 H 0.79717 0.26183 0.61141 0.0
H951 H 0.80101 0.31505 0.61537 0.0
H952 H 0.75241 0.35172 0.55636 0.0
H953 H 0.76417 0.33906 0.58026 0.0
C954 C 0.54448 0.0073 0.61792 0.0
C955 C 0.53038 0.99728 0.61851 0.0
C956 C 0.55522 0.00898 0.63127 0.0
C957 C 0.55994 -0.0003 0.67505 0.0
H958 H 0.60563 0.0042 0.66603 0.0
C959 C 0.61079 0.00794 0.7253 0.0
C960 C 0.62587 0.00155 0.72254 0.0
C961 C 0.59849 0.00767 0.71315 0.0
C962 C 0.59295 0.0027 0.66884 0.0
H963 H 0.51623 0.9813 0.63339 0.0
H964 H 0.53534 0.98356 0.65655 0.0
H965 H 0.58553 0.00319 0.64413 0.0
H966 H 0.6396 0.98906 0.70531 0.0
H967 H 0.61808 0.98785 0.68455 0.0
H968 H 0.56755 0.99826 0.6998 0.0
C969 C 0.53794 0.99058 0.64602 0.0
C970 C 0.58132 0.00247 0.6562 0.0
C971 C 0.52701 0.98918 0.63275 0.0
C972 C 0.6282 0.99433 0.70769 0.0
C973 C 0.61586 0.99376 0.69572 0.0
C974 C 0.57163 -0.00034 0.68772 0.0
C975 C 0.55233 0.00034 0.6454 0.0
C976 C 0.56463 0.00097 0.65908 0.0
C977 C 0.60095 0.00075 0.69811 0.0
C978 C 0.58832 0.00107 0.68478 0.0
H979 H 0.54721 0.01378 0.60708 0.0
H980 H 0.56588 0.01697 0.63041 0.0
H981 H 0.54722 0.99875 0.67782 0.0
H982 H 0.60869 0.01363 0.73663 0.0
H983 H 0.58727 0.0133 0.71544 0.0
C984 C 0.8868 0.2213 0.78843 0.0
C985 C 0.88313 0.23354 0.77754 0.0
C986 C 0.90044 0.22288 0.79891 0.0
C987 C 0.93011 0.25323 0.81711 0.0
H988 H 0.95278 0.2154 0.82983 0.0
C989 C 0.98744 0.25425 0.8605 0.0
C990 C 0.98556 0.24399 0.87366 0.0
C991 C 0.97622 0.25327 0.84742 0.0
C992 C 0.94657 0.22605 0.82633 0.0
H993 H 0.89109 0.25709 0.76921 0.0
H994 H 0.91526 0.25954 0.78701 0.0
H995 H 0.93098 0.21322 0.80917 0.0
H996 H 0.97077 0.2244 0.88325 0.0
H997 H 0.95148 0.22249 0.8603 0.0
H998 H 0.94597 0.26602 0.83428 0.0
C999 C 0.90737 0.24884 0.78768 0.0
C1000 C 0.934 0.22482 0.81459 0.0
C1001 C 0.8936 0.24734 0.7773 0.0
C1002 C 0.9725 0.23253 0.87333 0.0
C1003 C 0.96151 0.23135 0.86017 0.0
C1004 C 0.94288 0.25449 0.8287 0.0
C1005 C 0.91095 0.23664 0.79867 0.0
C1006 C 0.92533 0.23831 0.81009 0.0
C1007 C 0.96318 0.24179 0.84716 0.0
C1008 C 0.95097 0.24085 0.83364 0.0
H1009 H 0.87922 0.21038 0.78881 0.0
H1010 H 0.90258 0.21335 0.80737 0.0
H1011 H 0.92362 0.26384 0.81412 0.0
H1012 H 0.99737 0.26323 0.86045 0.0
H1013 H 0.97775 0.26143 0.83748 0.0
C1014 C 0.49828 0.91934 0.48075 0.0
C1015 C 0.49379 0.91775 0.49672 0.0
C1016 C 0.50016 0.90573 0.47133 0.0
C1017 C 0.48666 0.86361 0.46739 0.0
H1018 H 0.52679 0.85758 0.44607 0.0
C1019 C 0.50345 0.80163 0.44669 0.0
C1020 C 0.5118 0.79998 0.43252 0.0
C1021 C 0.50075 0.81673 0.45282 0.0
C1022 C 0.51538 0.85918 0.45168 0.0
H1023 H 0.48749 0.90081 0.51529 0.0
H1024 H 0.49053 0.87709 0.4988 0.0
H1025 H 0.52288 0.8829 0.4598 0.0
H1026 H 0.5238 0.81303 0.41362 0.0
H1027 H 0.51878 0.83956 0.42421 0.0
H1028 H 0.47902 0.84008 0.45932 0.0
C1029 C 0.4927 0.88881 0.4936 0.0
C1030 C 0.51319 0.87366 0.45957 0.0
C1031 C 0.49108 0.90236 0.50306 0.0
C1032 C 0.51735 0.81388 0.42458 0.0
C1033 C 0.51454 0.82908 0.43069 0.0
C1034 C 0.48875 0.84926 0.45936 0.0
C1035 C 0.49725 0.89035 0.47766 0.0
C1036 C 0.49897 0.87583 0.46783 0.0
C1037 C 0.50617 0.83067 0.44489 0.0
C1038 C 0.50331 0.84668 0.45178 0.0
H1039 H 0.50049 0.93109 0.47562 0.0
H1040 H 0.50365 0.90721 0.45906 0.0
H1041 H 0.47547 0.8651 0.47344 0.0
H1042 H 0.49912 0.79122 0.45324 0.0
H1043 H 0.49462 0.81744 0.46398 0.0
C1044 C 0.13867 0.32306 0.77068 0.0
C1045 C 0.1513 0.31299 0.76741 0.0
C1046 C 0.12847 0.31959 0.7833 0.0
C1047 C 0.12758 0.29871 0.82164 0.0
H1048 H 0.08065 0.29647 0.81512 0.0
C1049 C 0.08658 0.26723 0.86653 0.0
C1050 C 0.07142 0.27334 0.86949 0.0
C1051 C 0.09603 0.27364 0.85446 0.0
C1052 C 0.09372 0.29733 0.81723 0.0
H1053 H 0.1633 0.29156 0.77483 0.0
H1054 H 0.1456 0.28559 0.79691 0.0
H1055 H 0.09771 0.30495 0.79316 0.0
H1056 H 0.05433 0.29112 0.86216 0.0
H1057 H 0.07106 0.30261 0.84119 0.0
H1058 H 0.12376 0.29123 0.84564 0.0
C1059 C 0.14354 0.29611 0.7897 0.0
C1060 C 0.10347 0.30213 0.80464 0.0
C1061 C 0.15357 0.29944 0.77699 0.0
C1062 C 0.06595 0.28613 0.86015 0.0
C1063 C 0.0755 0.29265 0.84808 0.0
C1064 C 0.11787 0.29409 0.83424 0.0
C1065 C 0.13093 0.30615 0.79301 0.0
C1066 C 0.12049 0.30252 0.80664 0.0
C1067 C 0.09066 0.28646 0.8451 0.0
C1068 C 0.10082 0.29297 0.83211 0.0
H1069 H 0.13665 0.33355 0.76342 0.0
H1070 H 0.11884 0.32754 0.78564 0.0
H1071 H 0.14068 0.29919 0.82357 0.0
H1072 H 0.09111 0.2573 0.8734 0.0
H1073 H 0.10745 0.26831 0.85229 0.0
C1074 C 0.51081 0.59723 0.47016 0.0
C1075 C 0.51651 0.58452 0.46128 0.0
C1076 C 0.51104 0.61272 0.46397 0.0
C1077 C 0.51478 0.63641 0.42683 0.0
H1078 H 0.53083 0.66994 0.45641 0.0
C1079 C 0.53323 0.70096 0.40686 0.0
C1080 C 0.52895 0.71356 0.41675 0.0
C1081 C 0.53079 0.68503 0.41166 0.0
C1082 C 0.52612 0.66077 0.44804 0.0
H1083 H 0.52622 0.57804 0.43857 0.0
H1084 H 0.5269 0.60521 0.42786 0.0
H1085 H 0.52782 0.6425 0.46576 0.0
H1086 H 0.51865 0.71931 0.43939 0.0
H1087 H 0.51417 0.69163 0.4476 0.0
H1088 H 0.51323 0.65479 0.40907 0.0
C1089 C 0.52216 0.60313 0.4396 0.0
C1090 C 0.52438 0.64502 0.4534 0.0
C1091 C 0.52192 0.58759 0.4458 0.0
C1092 C 0.52202 0.70991 0.43144 0.0
C1093 C 0.51958 0.69403 0.43622 0.0
C1094 C 0.51652 0.65221 0.42145 0.0
C1095 C 0.51702 0.61592 0.44876 0.0
C1096 C 0.51864 0.63266 0.4429 0.0
C1097 C 0.52407 0.6814 0.42647 0.0
C1098 C 0.52217 0.66457 0.43202 0.0
H1099 H 0.50673 0.59536 0.48219 0.0
H1100 H 0.50675 0.62226 0.47123 0.0
H1101 H 0.5102 0.62716 0.41848 0.0
H1102 H 0.53861 0.70338 0.39547 0.0
H1103 H 0.53452 0.67558 0.40394 0.0
C1104 C 0.87324 0.78637 0.72662 0.0
C1105 C 0.86094 0.77437 0.72857 0.0
C1106 C 0.88446 0.78496 0.71464 0.0
C1107 C 0.88874 0.76623 0.67564 0.0
H1108 H 0.93529 0.77001 0.68489 0.0
C1109 C 0.93317 0.74265 0.63175 0.0
C1110 C 0.94807 0.7511 0.62966 0.0
C1111 C 0.92304 0.74701 0.64378 0.0
C1112 C 0.92234 0.76919 0.68204 0.0
H1113 H 0.85061 0.75163 0.71948 0.0
H1114 H 0.87004 0.74925 0.69851 0.0
H1115 H 0.91659 0.77509 0.7061 0.0
H1116 H 0.96409 0.77074 0.63866 0.0
H1117 H 0.94615 0.77859 0.65962 0.0
H1118 H 0.89427 0.76047 0.65166 0.0
C1119 C 0.87108 0.75969 0.70626 0.0
C1120 C 0.91165 0.77206 0.69419 0.0
C1121 C 0.86005 0.76098 0.71834 0.0
C1122 C 0.95268 0.76399 0.63999 0.0
C1123 C 0.94243 0.76844 0.65203 0.0
C1124 C 0.89936 0.76355 0.66349 0.0
C1125 C 0.88335 0.77168 0.70425 0.0
C1126 C 0.89476 0.77023 0.69117 0.0
C1127 C 0.92743 0.76004 0.65398 0.0
C1128 C 0.9163 0.76458 0.66661 0.0
H1129 H 0.87422 0.79679 0.7344 0.0
H1130 H 0.8938 0.79438 0.71329 0.0
H1131 H 0.87576 0.76504 0.67292 0.0
H1132 H 0.9293 0.73256 0.62413 0.0
H1133 H 0.9118 0.73999 0.64516 0.0
C1134 C 0.03473 0.89892 0.51582 0.0
C1135 C 0.03166 0.91315 0.52386 0.0
C1136 C 0.03294 0.88418 0.52349 0.0
C1137 C 0.01094 0.86326 0.55443 0.0
H1138 H 0.04458 0.83264 0.55186 0.0
C1139 C 0.00414 0.79948 0.58149 0.0
C1140 C 0.00981 0.78701 0.57224 0.0
C1141 C 0.00758 0.8155 0.57743 0.0
C1142 C 0.03499 0.84097 0.55257 0.0
H1143 H 0.02425 0.92319 0.54616 0.0
H1144 H 0.02078 0.89721 0.55956 0.0
H1145 H 0.04908 0.85947 0.54113 0.0
H1146 H 0.0234 0.78167 0.55135 0.0
H1147 H 0.02895 0.80933 0.5441 0.0
H1148 H 0.99653 0.84459 0.56523 0.0
C1149 C 0.02469 0.89756 0.54735 0.0
C1150 C 0.03762 0.85636 0.54649 0.0
C1151 C 0.02675 0.91237 0.53974 0.0
C1152 C 0.01895 0.79093 0.55886 0.0
C1153 C 0.02225 0.80686 0.55475 0.0
C1154 C 0.0082 0.84776 0.56035 0.0
C1155 C 0.02782 0.88334 0.53929 0.0
C1156 C 0.02553 0.86756 0.54711 0.0
C1157 C 0.01668 0.81938 0.56398 0.0
C1158 C 0.02008 0.83632 0.5592 0.0
H1159 H 0.03862 0.89922 0.5036 0.0
H1160 H 0.03529 0.87338 0.51697 0.0
H1161 H 0.00139 0.87167 0.55497 0.0
H1162 H 0.99712 0.79687 0.59191 0.0
H1163 H 0.00322 0.82484 0.5849 0.0
C1164 C 0.12092 0.70757 0.71755 0.0
C1165 C 0.13581 0.71622 0.7162 0.0
C1166 C 0.10791 0.71007 0.70667 0.0
C1167 C 0.09392 0.73871 0.67519 0.0
H1168 H 0.06421 0.70309 0.66244 0.0
C1169 C 0.05182 0.73712 0.61802 0.0
C1170 C 0.03524 0.7335 0.62027 0.0
C1171 C 0.06329 0.73567 0.63065 0.0
C1172 C 0.07235 0.71315 0.66603 0.0
H1173 H 0.14903 0.73391 0.70233 0.0
H1174 H 0.12673 0.73774 0.68288 0.0
H1175 H 0.08607 0.69897 0.68241 0.0
H1176 H 0.01768 0.72544 0.63745 0.0
H1177 H 0.03797 0.72237 0.65948 0.0
H1178 H 0.08057 0.75259 0.65807 0.0
C1179 C 0.12472 0.7295 0.69264 0.0
C1180 C 0.08485 0.71085 0.67754 0.0
C1181 C 0.13758 0.72723 0.70369 0.0
C1182 C 0.03037 0.72838 0.63541 0.0
C1183 C 0.04193 0.72656 0.64796 0.0
C1184 C 0.08164 0.7409 0.66346 0.0
C1185 C 0.10964 0.72104 0.69402 0.0
C1186 C 0.0959 0.72358 0.68221 0.0
C1187 C 0.05847 0.73023 0.64566 0.0
C1188 C 0.07082 0.72812 0.65874 0.0
H1189 H 0.11926 0.69911 0.7272 0.0
H1190 H 0.09646 0.70352 0.70835 0.0
H1191 H 0.10185 0.74893 0.67872 0.0
H1192 H 0.05591 0.74116 0.60651 0.0
H1193 H 0.076 0.73849 0.62861 0.0
C1194 C 0.99272 0.59003 0.50514 0.0
C1195 C 0.9849 0.57659 0.51206 0.0
C1196 C 0.99448 0.60459 0.51339 0.0
C1197 C 0.99317 0.62298 0.55366 0.0
H1198 H 0.98438 0.66131 0.5294 0.0
C1199 C 0.98245 0.68413 0.58308 0.0
C1200 C 0.98887 0.69798 0.57569 0.0
C1201 C 0.98342 0.66911 0.57589 0.0
C1202 C 0.98711 0.65076 0.53632 0.0
H1203 H 0.97321 0.56785 0.53331 0.0
H1204 H 0.97595 0.5934 0.54758 0.0
H1205 H 0.98329 0.6355 0.51582 0.0
H1206 H 0.00169 0.70688 0.55515 0.0
H1207 H 0.00356 0.68068 0.54274 0.0
H1208 H 0.99675 0.63832 0.57422 0.0
C1209 C 0.98087 0.5926 0.53582 0.0
C1210 C 0.98648 0.63595 0.52853 0.0
C1211 C 0.97913 0.57801 0.52756 0.0
C1212 C 0.99665 0.69646 0.56118 0.0
C1213 C 0.9976 0.68145 0.55399 0.0
C1214 C 0.99377 0.63783 0.56147 0.0
C1215 C 0.98841 0.60611 0.52875 0.0
C1216 C 0.98947 0.62187 0.5371 0.0
C1217 C 0.99079 0.66763 0.56114 0.0
C1218 C 0.99071 0.65188 0.55288 0.0
H1219 H 0.99716 0.58943 0.49316 0.0
H1220 H 0.00054 0.6147 0.50769 0.0
H1221 H 0.99573 0.61238 0.56057 0.0
H1222 H 0.97636 0.6849 0.59426 0.0
H1223 H 0.97792 0.65872 0.58164 0.0
C1224 C 0.77081 0.90145 0.22408 0.0
C1225 C 0.7725 0.88662 0.23163 0.0
C1226 C 0.78326 0.91341 0.22555 0.0
C1227 C 0.82745 0.91881 0.23655 0.0
H1228 H 0.81818 0.96381 0.2355 0.0
C1229 C 0.87849 0.96728 0.22947 0.0
C1230 C 0.87751 0.98197 0.23746 0.0
C1231 C 0.86538 0.95604 0.22903 0.0
C1232 C 0.82103 0.95131 0.23602 0.0
H1233 H 0.78812 0.8728 0.24715 0.0
H1234 H 0.80957 0.89383 0.25035 0.0
H1235 H 0.79586 0.94369 0.23535 0.0
H1236 H 0.86203 0.99639 0.25133 0.0
H1237 H 0.83935 0.97654 0.25112 0.0
H1238 H 0.85258 0.92637 0.23797 0.0
C1239 C 0.79896 0.89613 0.24278 0.0
C1240 C 0.80818 0.93973 0.23568 0.0
C1241 C 0.78663 0.8841 0.24106 0.0
C1242 C 0.86311 0.98521 0.24498 0.0
C1243 C 0.85006 0.97383 0.24478 0.0
C1244 C 0.84028 0.93037 0.23714 0.0
C1245 C 0.79758 0.91087 0.23483 0.0
C1246 C 0.81121 0.9233 0.23581 0.0
C1247 C 0.85104 0.95906 0.23683 0.0
C1248 C 0.83727 0.94679 0.23671 0.0
H1249 H 0.76007 0.90362 0.21661 0.0
H1250 H 0.78181 0.92445 0.21903 0.0
H1251 H 0.83036 0.90632 0.23641 0.0
H1252 H 0.88935 0.9645 0.22338 0.0
H1253 H 0.86649 0.94501 0.22243 0.0
C1254 C 0.76178 0.13491 0.27408 0.0
C1255 C 0.75746 0.14529 0.26156 0.0
C1256 C 0.77463 0.12475 0.2726 0.0
C1257 C 0.81238 0.1217 0.25167 0.0
H1258 H 0.80936 0.07675 0.2631 0.0
C1259 C 0.86169 0.07931 0.23529 0.0
C1260 C 0.86604 0.06725 0.24611 0.0
C1261 C 0.84836 0.08847 0.23787 0.0
C1262 C 0.81049 0.08934 0.26009 0.0
H1263 H 0.76311 0.15307 0.23763 0.0
H1264 H 0.78556 0.13535 0.23505 0.0
H1265 H 0.78596 0.09323 0.26617 0.0
H1266 H 0.85976 0.05535 0.26817 0.0
H1267 H 0.83657 0.07168 0.2729 0.0
H1268 H 0.83689 0.11804 0.24583 0.0
C1269 C 0.77901 0.13509 0.24602 0.0
C1270 C 0.79707 0.09874 0.26179 0.0
C1271 C 0.76607 0.14511 0.24743 0.0
C1272 C 0.8567 0.06455 0.2596 0.0
C1273 C 0.84336 0.07384 0.26226 0.0
C1274 C 0.82582 0.11238 0.25012 0.0
C1275 C 0.78353 0.12493 0.25865 0.0
C1276 C 0.79783 0.11496 0.25739 0.0
C1277 C 0.83907 0.08596 0.25143 0.0
C1278 C 0.82499 0.09601 0.25408 0.0
H1279 H 0.75527 0.13472 0.28507 0.0
H1280 H 0.77789 0.11709 0.28254 0.0
H1281 H 0.81343 0.13425 0.2485 0.0
H1282 H 0.8685 0.08162 0.22468 0.0
H1283 H 0.84522 0.09742 0.22907 0.0
C1284 C 0.38767 0.95824 0.99264 0.0
C1285 C 0.39254 0.96103 0.97694 0.0
C1286 C 0.37433 0.94787 0.99552 0.0
C1287 C 0.35291 0.91769 0.99869 0.0
H1288 H 0.31366 0.91709 0.97131 0.0
C1289 C 0.30397 0.86649 0.00056 0.0
C1290 C 0.28755 0.87044 -0.00024 0.0
C1291 C 0.31629 0.8781 0.99796 0.0
C1292 C 0.32449 0.91722 0.97914 0.0
H1293 H 0.38701 0.9553 0.95192 0.0
H1294 H 0.36383 0.93695 0.95697 0.0
H1295 H 0.33596 0.93659 0.96643 0.0
H1296 H 0.27128 0.88978 0.99555 0.0
H1297 H 0.29291 0.91012 0.99106 0.0
H1298 H 0.34145 0.89845 0.01149 0.0
C1299 C 0.37027 0.94292 0.96705 0.0
C1300 C 0.33732 0.92826 0.97624 0.0
C1301 C 0.38366 0.95328 0.96416 0.0
C1302 C 0.28378 0.88632 0.99626 0.0
C1303 C 0.29616 0.89795 0.9936 0.0
C1304 C 0.34012 0.90665 0.00156 0.0
C1305 C 0.36552 0.94003 0.98277 0.0
C1306 C 0.35171 0.92856 0.98595 0.0
C1307 C 0.31256 0.89397 0.99447 0.0
C1308 C 0.32581 0.9062 0.99176 0.0
H1309 H 0.39434 0.96387 0.00277 0.0
H1310 H 0.37089 0.94604 0.00776 0.0
H1311 H 0.36387 0.9175 0.00631 0.0
H1312 H 0.30737 0.85439 0.00317 0.0
H1313 H 0.32878 0.87458 0.99848 0.0
C1314 C 0.22888 0.33882 0.27946 0.0
C1315 C 0.23787 0.33431 0.26639 0.0
C1316 C 0.21837 0.35142 0.27808 0.0
C1317 C 0.19739 0.37728 0.24832 0.0
H1318 H 0.19944 0.40793 0.28334 0.0
C1319 C 0.18166 0.44308 0.24086 0.0
C1320 C 0.17365 0.45064 0.2531 0.0
C1321 C 0.18634 0.42735 0.24261 0.0
C1322 C 0.19847 0.39935 0.27358 0.0
H1323 H 0.24234 0.33915 0.24145 0.0
H1324 H 0.22445 0.36141 0.23919 0.0
H1325 H 0.21374 0.38323 0.2862 0.0
H1326 H 0.16375 0.44736 0.27655 0.0
H1327 H 0.17212 0.41981 0.27968 0.0
H1328 H 0.18265 0.3938 0.23549 0.0
C1329 C 0.22533 0.35508 0.25045 0.0
C1330 C 0.20668 0.38516 0.2752 0.0
C1331 C 0.23578 0.34245 0.25181 0.0
C1332 C 0.16991 0.44189 0.26691 0.0
C1333 C 0.17477 0.42615 0.26874 0.0
C1334 C 0.18927 0.39151 0.24667 0.0
C1335 C 0.21663 0.35985 0.26362 0.0
C1336 C 0.20651 0.3741 0.26247 0.0
C1337 C 0.18325 0.41882 0.2567 0.0
C1338 C 0.19 0.40284 0.25916 0.0
H1339 H 0.23029 0.33292 0.29092 0.0
H1340 H 0.21172 0.35464 0.28841 0.0
H1341 H 0.19673 0.36888 0.23841 0.0
H1342 H 0.18465 0.44944 0.23002 0.0
H1343 H 0.193 0.42211 0.23319 0.0
C1344 C 0.12591 0.03657 0.4937 0.0
C1345 C 0.11095 0.04004 0.49996 0.0
C1346 C 0.13946 0.04716 0.49612 0.0
C1347 C 0.15035 0.08954 0.50768 0.0
H1348 H 0.19411 0.07446 0.50972 0.0
C1349 C 0.20534 0.13378 0.50406 0.0
C1350 C 0.21969 0.13082 0.513 0.0
C1351 C 0.1926 0.12219 0.50275 0.0
C1352 C 0.18199 0.0789 0.50939 0.0
H1353 H 0.09847 0.05684 0.51416 0.0
H1354 H 0.12222 0.07498 0.51909 0.0
H1355 H 0.17102 0.05519 0.50807 0.0
H1356 H 0.23204 0.11331 0.52749 0.0
H1357 H 0.20947 0.0932 0.52581 0.0
H1358 H 0.16119 0.11317 0.50982 0.0
C1359 C 0.12347 0.06446 0.51176 0.0
C1360 C 0.16869 0.06782 0.50818 0.0
C1361 C 0.10985 0.05403 0.50905 0.0
C1362 C 0.22112 0.11589 0.52047 0.0
C1363 C 0.2082 0.10435 0.51943 0.0
C1364 C 0.1636 0.10057 0.50917 0.0
C1365 C 0.13843 0.06132 0.50512 0.0
C1366 C 0.15267 0.073 0.50713 0.0
C1367 C 0.19369 0.10741 0.51065 0.0
C1368 C 0.17962 0.09545 0.50981 0.0
H1369 H 0.12699 0.02588 0.48655 0.0
H1370 H 0.15062 0.0444 0.49056 0.0
H1371 H 0.13828 0.0941 0.50666 0.0
H1372 H 0.20397 0.14508 0.49794 0.0
H1373 H 0.1819 0.12486 0.49547 0.0
C1374 C 0.746 0.1561 0.74857 0.0
C1375 C 0.75723 0.15539 0.73647 0.0
C1376 C 0.73478 0.14332 0.75088 0.0
C1377 C 0.71647 0.10626 0.73101 0.0
H1378 H 0.70527 0.09508 0.77429 0.0
C1379 C 0.6866 0.04526 0.74914 0.0
C1380 C 0.67375 0.04561 0.75963 0.0
C1381 C 0.69538 0.05934 0.74532 0.0
C1382 C 0.70815 0.09818 0.76212 0.0
H1383 H 0.7658 0.14072 0.7175 0.0
H1384 H 0.74668 0.11818 0.72185 0.0
H1385 H 0.72369 0.11816 0.76987 0.0
H1386 H 0.65984 0.0611 0.77409 0.0
H1387 H 0.67542 0.08567 0.7676 0.0
H1388 H 0.70136 0.08578 0.72344 0.0
C1389 C 0.74609 0.12876 0.72925 0.0
C1390 C 0.71867 0.11145 0.75956 0.0
C1391 C 0.75713 0.14163 0.7268 0.0
C1392 C 0.66965 0.06042 0.76594 0.0
C1393 C 0.6786 0.07447 0.76231 0.0
C1394 C 0.70613 0.09285 0.73362 0.0
C1395 C 0.73471 0.12944 0.74129 0.0
C1396 C 0.72305 0.11562 0.74397 0.0
C1397 C 0.69166 0.07403 0.75211 0.0
C1398 C 0.70193 0.08867 0.7492 0.0
H1399 H 0.74571 0.16667 0.75606 0.0
H1400 H 0.72605 0.14442 0.76008 0.0
H1401 H 0.71926 0.10927 0.71881 0.0
H1402 H 0.69014 0.03408 0.74413 0.0
H1403 H 0.70548 0.05867 0.73751 0.0
C1404 C 0.39598 0.02557 0.52777 0.0
C1405 C 0.41196 0.03211 0.52999 0.0
C1406 C 0.38313 0.03546 0.52412 0.0
C1407 C 0.37407 0.07492 0.50744 0.0
H1408 H 0.33539 0.07108 0.53222 0.0
C1409 C 0.32958 0.12543 0.51051 0.0
C1410 C 0.3129 0.12162 0.51184 0.0
C1411 C 0.34077 0.11343 0.51088 0.0
C1412 C 0.34595 0.07214 0.52496 0.0
H1413 H 0.42707 0.05407 0.5298 0.0
H1414 H 0.40466 0.07133 0.52342 0.0
H1415 H 0.35665 0.05201 0.53634 0.0
H1416 H 0.29483 0.10211 0.51409 0.0
H1417 H 0.31441 0.08105 0.51446 0.0
H1418 H 0.36349 0.09504 0.49609 0.0
C1419 C 0.40206 0.05856 0.52448 0.0
C1420 C 0.35815 0.06123 0.52737 0.0
C1421 C 0.41486 0.04871 0.5283 0.0
C1422 C 0.30761 0.10545 0.5131 0.0
C1423 C 0.31884 0.09339 0.51342 0.0
C1424 C 0.36183 0.08574 0.50495 0.0
C1425 C 0.38605 0.05206 0.52242 0.0
C1426 C 0.37248 0.06271 0.51887 0.0
C1427 C 0.33559 0.09726 0.51249 0.0
C1428 C 0.34777 0.08471 0.51392 0.0
H1429 H 0.39339 0.01282 0.52909 0.0
H1430 H 0.37092 0.03012 0.52252 0.0
H1431 H 0.38485 0.07617 0.50051 0.0
H1432 H 0.3341 0.13776 0.50956 0.0
H1433 H 0.35357 0.11692 0.51041 0.0
C1434 C 0.61645 0.47688 0.51392 0.0
C1435 C 0.60469 0.4755 0.50125 0.0
C1436 C 0.63104 0.46915 0.51316 0.0
C1437 C 0.65732 0.44871 0.48514 0.0
H1438 H 0.67323 0.42846 0.52405 0.0
C1439 C 0.70335 0.39847 0.48706 0.0
C1440 C 0.71497 0.39857 0.49989 0.0
C1441 C 0.69145 0.40984 0.48629 0.0
C1442 C 0.6691 0.43425 0.51313 0.0
H1443 H 0.599 0.46504 0.47782 0.0
H1444 H 0.62431 0.4512 0.47661 0.0
H1445 H 0.64928 0.44425 0.52463 0.0
H1446 H 0.72377 0.41127 0.52148 0.0
H1447 H 0.70299 0.43106 0.52013 0.0
H1448 H 0.67695 0.43815 0.47359 0.0
C1449 C 0.62245 0.45855 0.48699 0.0
C1450 C 0.65536 0.44334 0.51346 0.0
C1451 C 0.60792 0.46642 0.4877 0.0
C1452 C 0.71494 0.41078 0.51148 0.0
C1453 C 0.70299 0.42207 0.51077 0.0
C1454 C 0.67102 0.43949 0.4848 0.0
C1455 C 0.63415 0.45971 0.49978 0.0
C1456 C 0.64922 0.45062 0.49945 0.0
C1457 C 0.69088 0.42147 0.49839 0.0
C1458 C 0.677 0.43211 0.49878 0.0
H1459 H 0.61439 0.48403 0.5244 0.0
H1460 H 0.63989 0.47059 0.52308 0.0
H1461 H 0.65308 0.45434 0.47419 0.0
H1462 H 0.70306 0.38927 0.47789 0.0
H1463 H 0.68223 0.40903 0.47665 0.0
C1464 C 0.70575 0.27679 0.33377 0.0
C1465 C 0.71413 0.26257 0.33263 0.0
C1466 C 0.70882 0.28715 0.34686 0.0
C1467 C 0.73994 0.29834 0.37806 0.0
H1468 H 0.70446 0.30997 0.40406 0.0
C1469 C 0.74995 0.31404 0.44417 0.0
C1470 C 0.74082 0.32575 0.45118 0.0
C1471 C 0.74679 0.30937 0.42829 0.0
C1472 C 0.71448 0.30715 0.39676 0.0
H1473 H 0.73198 0.24798 0.34471 0.0
H1474 H 0.73762 0.26624 0.3671 0.0
H1475 H 0.69855 0.29614 0.37847 0.0
H1476 H 0.72135 0.34197 0.4468 0.0
H1477 H 0.71585 0.33377 0.41887 0.0
H1478 H 0.75591 0.30901 0.39633 0.0
C1479 C 0.72881 0.26943 0.35779 0.0
C1480 C 0.71109 0.2992 0.38214 0.0
C1481 C 0.72561 0.259 0.34489 0.0
C1482 C 0.7286 0.3329 0.44178 0.0
C1483 C 0.7254 0.32816 0.42581 0.0
C1484 C 0.74332 0.30637 0.39255 0.0
C1485 C 0.72048 0.2836 0.35891 0.0
C1486 C 0.72382 0.29426 0.37296 0.0
C1487 C 0.73443 0.31628 0.41893 0.0
C1488 C 0.73066 0.31035 0.40235 0.0
H1489 H 0.69697 0.28003 0.32448 0.0
H1490 H 0.70225 0.29803 0.34747 0.0
H1491 H 0.74996 0.2949 0.37105 0.0
H1492 H 0.75946 0.30826 0.45099 0.0
H1493 H 0.75377 0.29996 0.4235 0.0
C1494 C 0.53216 0.01177 0.90363 0.0
C1495 C 0.52121 0.99883 0.90674 0.0
C1496 C 0.5436 0.01058 0.89194 0.0
C1497 C 0.55274 0.99039 0.85504 0.0
H1498 H 0.59715 0.00445 0.86706 0.0
C1499 C 0.60575 0.98982 0.81097 0.0
C1500 C 0.61678 0.0032 0.81192 0.0
C1501 C 0.59389 0.98758 0.8224 0.0
C1502 C 0.58479 0.00061 0.86344 0.0
H1503 H 0.51354 0.97455 0.89955 0.0
H1504 H 0.53338 0.97268 0.87872 0.0
H1505 H 0.57662 0.00377 0.88712 0.0
H1506 H 0.62369 0.02493 0.82532 0.0
H1507 H 0.60299 0.02124 0.84484 0.0
H1508 H 0.56084 0.98775 0.83118 0.0
C1509 C 0.53307 0.98368 0.88554 0.0
C1510 C 0.57305 0.00016 0.87496 0.0
C1511 C 0.5217 0.98479 0.89743 0.0
C1512 C 0.61552 0.01439 0.82431 0.0
C1513 C 0.60369 0.01221 0.83561 0.0
C1514 C 0.5645 0.99098 0.84341 0.0
C1515 C 0.54427 0.9965 0.88287 0.0
C1516 C 0.55686 0.99537 0.87083 0.0
C1517 C 0.59284 0.9987 0.83495 0.0
C1518 C 0.58059 0.99645 0.84742 0.0
H1519 H 0.53187 0.02294 0.91018 0.0
H1520 H 0.55188 0.02076 0.8899 0.0
H1521 H 0.54031 0.98668 0.85156 0.0
H1522 H 0.60643 0.98099 0.80155 0.0
H1523 H 0.58576 0.97701 0.82158 0.0
C1524 C 0.27228 0.22389 0.35364 0.0
C1525 C 0.28479 0.22056 0.3434 0.0
C1526 C 0.26981 0.21476 0.36733 0.0
C1527 C 0.29088 0.19082 0.39707 0.0
H1528 H 0.24707 0.17876 0.40917 0.0
C1529 C 0.2772 0.16387 0.45926 0.0
C1530 C 0.26459 0.17117 0.46692 0.0
C1531 C 0.27966 0.16663 0.443 0.0
C1532 C 0.25939 0.18205 0.40597 0.0
H1533 H 0.30443 0.20479 0.33955 0.0
H1534 H 0.30034 0.18908 0.36384 0.0
H1535 H 0.2515 0.18976 0.38264 0.0
H1536 H 0.24441 0.18672 0.46331 0.0
H1537 H 0.24876 0.19159 0.43525 0.0
H1538 H 0.29869 0.18378 0.42068 0.0
C1539 C 0.29243 0.19877 0.3611 0.0
C1540 C 0.26191 0.18832 0.39078 0.0
C1541 C 0.2948 0.20782 0.34725 0.0
C1542 C 0.25427 0.18092 0.45786 0.0
C1543 C 0.25667 0.1836 0.44168 0.0
C1544 C 0.28834 0.18461 0.41234 0.0
C1545 C 0.2799 0.20217 0.37126 0.0
C1546 C 0.27761 0.19322 0.38635 0.0
C1547 C 0.26946 0.17662 0.43407 0.0
C1548 C 0.2725 0.18065 0.41712 0.0
H1549 H 0.26458 0.23384 0.35135 0.0
H1550 H 0.26027 0.21788 0.37512 0.0
H1551 H 0.30311 0.19458 0.39399 0.0
H1552 H 0.28537 0.15628 0.46589 0.0
H1553 H 0.28956 0.16101 0.43743 0.0
C1554 C 0.48437 0.51866 0.90686 0.0
C1555 C 0.49104 0.50385 0.91041 0.0
C1556 C 0.47482 0.52061 0.8928 0.0
C1557 C 0.45159 0.49738 0.86055 0.0
H1558 H 0.4584 0.536 0.83563 0.0
C1559 C 0.43592 0.50064 0.79309 0.0
C1560 C 0.42896 0.51446 0.78687 0.0
C1561 C 0.44104 0.49989 0.80918 0.0
C1562 C 0.45616 0.52526 0.84258 0.0
H1563 H 0.49314 0.47957 0.90184 0.0
H1564 H 0.47672 0.48298 0.87733 0.0
H1565 H 0.47225 0.53376 0.86189 0.0
H1566 H 0.4216 0.53824 0.79282 0.0
H1567 H 0.4308 0.53697 0.82105 0.0
H1568 H 0.43597 0.48868 0.84096 0.0
C1569 C 0.47847 0.493 0.88556 0.0
C1570 C 0.46408 0.52396 0.85764 0.0
C1571 C 0.48793 0.49105 0.89961 0.0
C1572 C 0.4269 0.52741 0.79725 0.0
C1573 C 0.43223 0.52673 0.81337 0.0
C1574 C 0.44377 0.49864 0.84548 0.0
C1575 C 0.47179 0.5078 0.88195 0.0
C1576 C 0.46216 0.50987 0.86667 0.0
C1577 C 0.43948 0.51299 0.81945 0.0
C1578 C 0.44622 0.51246 0.8362 0.0
H1579 H 0.48641 0.5287 0.91504 0.0
H1580 H 0.46973 0.53212 0.89049 0.0
H1581 H 0.44952 0.4865 0.86733 0.0
H1582 H 0.43763 0.49042 0.78546 0.0
H1583 H 0.44674 0.48921 0.81347 0.0
C1584 C 0.73791 0.75131 0.16376 0.0
C1585 C 0.72644 0.76281 0.16022 0.0
C1586 C 0.74121 0.73977 0.15238 0.0
C1587 C 0.72543 0.72161 0.11351 0.0
H1588 H 0.77007 0.70962 0.11053 0.0
C1589 C 0.75063 0.69215 0.05778 0.0
C1590 C 0.76035 0.67896 0.06035 0.0
C1591 C 0.74548 0.70091 0.0707 0.0
C1592 C 0.75752 0.71272 0.11135 0.0
H1593 H 0.70948 0.77135 0.14206 0.0
H1594 H 0.7156 0.75162 0.12197 0.0
H1595 H 0.76313 0.72792 0.13161 0.0
H1596 H 0.77223 0.6646 0.07856 0.0
H1597 H 0.76349 0.68022 0.10115 0.0
H1598 H 0.72008 0.70689 0.09273 0.0
C1599 C 0.72173 0.75112 0.13367 0.0
C1600 C 0.7535 0.72317 0.12347 0.0
C1601 C 0.71826 0.7625 0.14514 0.0
C1602 C 0.7647 0.67466 0.07616 0.0
C1603 C 0.75977 0.68361 0.08909 0.0
C1604 C 0.72952 0.71135 0.10125 0.0
C1605 C 0.7333 0.73962 0.13711 0.0
C1606 C 0.73741 0.72786 0.12465 0.0
C1607 C 0.75017 0.69686 0.08646 0.0
C1608 C 0.74561 0.7069 0.10001 0.0
H1609 H 0.74425 0.75119 0.17538 0.0
H1610 H 0.74995 0.73094 0.15561 0.0
H1611 H 0.71286 0.72465 0.11422 0.0
H1612 H 0.74716 0.69589 0.04581 0.0
H1613 H 0.73823 0.71118 0.06834 0.0
C1614 C 0.9755 0.99436 0.08697 0.0
C1615 C 0.9819 0.00853 0.08014 0.0
C1616 C 0.96744 0.99486 0.10135 0.0
C1617 C 0.9467 0.02292 0.12706 0.0
H1618 H 0.95323 0.99095 0.15992 0.0
C1619 C 0.91218 0.02417 0.18527 0.0
C1620 C 0.92131 0.02155 0.19952 0.0
C1621 C 0.91848 0.02084 0.17044 0.0
C1622 C 0.95133 1e-05 0.15089 0.0
H1623 H 0.98544 0.03423 0.08334 0.0
H1624 H 0.9716 0.0351 0.1084 0.0
H1625 H 0.96683 0.9889 0.13469 0.0
H1626 H 0.94403 0.01301 0.20943 0.0
H1627 H 0.95516 0.0075 0.18357 0.0
H1628 H 0.93176 0.03441 0.14339 0.0
C1629 C 0.97237 0.02364 0.10249 0.0
C1630 C 0.95898 0.99873 0.13635 0.0
C1631 C 0.98034 0.02314 0.08813 0.0
C1632 C 0.93667 0.01509 0.19866 0.0
C1633 C 0.94302 0.01186 0.18382 0.0
C1634 C 0.93912 0.02423 0.14157 0.0
C1635 C 0.96568 0.00954 0.10921 0.0
C1636 C 0.95691 0.01029 0.12434 0.0
C1637 C 0.9341 0.01494 0.16951 0.0
C1638 C 0.94144 0.01288 0.15373 0.0
H1639 H 0.97642 0.98294 0.08102 0.0
H1640 H 0.96231 0.9838 0.10613 0.0
H1641 H 0.94463 0.0319 0.11798 0.0
H1642 H 0.90024 0.02901 0.18554 0.0
H1643 H 0.91115 0.02307 0.15968 0.0
C1644 C 0.30107 0.76678 0.1447 0.0
C1645 C 0.30081 0.77302 0.16029 0.0
C1646 C 0.29749 0.77633 0.13148 0.0
C1647 C 0.27453 0.81101 0.11983 0.0
H1648 H 0.29714 0.80732 0.08036 0.0
C1649 C 0.25433 0.84331 0.06154 0.0
C1650 C 0.2537 0.83375 0.04765 0.0
C1651 C 0.26187 0.83798 0.07574 0.0
C1652 C 0.29068 0.80844 0.09128 0.0
H1653 H 0.29697 0.79425 0.17429 0.0
H1654 H 0.2907 0.81104 0.15108 0.0
H1655 H 0.30753 0.79435 0.10456 0.0
H1656 H 0.26033 0.81105 0.03782 0.0
H1657 H 0.27338 0.80179 0.06246 0.0
H1658 H 0.25739 0.82469 0.10643 0.0
C1659 C 0.29362 0.79872 0.14913 0.0
C1660 C 0.29664 0.80104 0.10513 0.0
C1661 C 0.29732 0.78916 0.16239 0.0
C1662 C 0.26081 0.81882 0.04822 0.0
C1663 C 0.26836 0.81353 0.06236 0.0
C1664 C 0.26854 0.8184 0.10595 0.0
C1665 C 0.29352 0.79234 0.13355 0.0
C1666 C 0.28841 0.80192 0.11946 0.0
C1667 C 0.26894 0.82301 0.0763 0.0
C1668 C 0.27633 0.81686 0.09144 0.0
H1669 H 0.30388 0.75442 0.14272 0.0
H1670 H 0.29734 0.771 0.11964 0.0
H1671 H 0.26784 0.81178 0.13065 0.0
H1672 H 0.24897 0.85488 0.06147 0.0
H1673 H 0.26221 0.84559 0.08627 0.0
C1674 C 0.04215 0.47629 0.11453 0.0
C1675 C 0.02932 0.48676 0.11273 0.0
C1676 C 0.05351 0.478 0.12737 0.0
C1677 C 0.06032 0.49138 0.16817 0.0
H1678 H 0.10552 0.49773 0.15769 0.0
C1679 C 0.11203 0.5029 0.217 0.0
C1680 C 0.12725 0.49691 0.21408 0.0
C1681 C 0.09953 0.50211 0.20506 0.0
C1682 C 0.09302 0.49568 0.16091 0.0
H1683 H 0.01839 0.50713 0.12345 0.0
H1684 H 0.03793 0.50957 0.14628 0.0
H1685 H 0.0846 0.49505 0.13629 0.0
H1686 H 0.14111 0.48471 0.19674 0.0
H1687 H 0.11927 0.48259 0.17635 0.0
H1688 H 0.06868 0.49129 0.19277 0.0
C1689 C 0.03914 0.50018 0.13753 0.0
C1690 C 0.08104 0.49429 0.1486 0.0
C1691 C 0.02792 0.49869 0.12448 0.0
C1692 C 0.12958 0.48967 0.19924 0.0
C1693 C 0.11705 0.48858 0.18748 0.0
C1694 C 0.07236 0.49245 0.18053 0.0
C1695 C 0.05214 0.48998 0.13893 0.0
C1696 C 0.06462 0.49204 0.15211 0.0
C1697 C 0.10192 0.49504 0.19007 0.0
C1698 C 0.08891 0.49448 0.17706 0.0
H1699 H 0.04344 0.46667 0.10605 0.0
H1700 H 0.06336 0.46988 0.12833 0.0
H1701 H 0.04769 0.48958 0.17112 0.0
H1702 H 0.10992 0.5086 0.22832 0.0
H1703 H 0.08814 0.50736 0.20749 0.0
C1704 C 0.39453 0.72924 0.2812 0.0
C1705 C 0.37956 0.73594 0.28359 0.0
C1706 C 0.40748 0.73173 0.29242 0.0
C1707 C 0.42127 0.75678 0.32814 0.0
H1708 H 0.45077 0.72249 0.33532 0.0
C1709 C 0.46529 0.7512 0.38374 0.0
C1710 C 0.48169 0.74969 0.3803 0.0
C1711 C 0.45322 0.75035 0.37147 0.0
C1712 C 0.44266 0.73218 0.33333 0.0
H1713 H 0.36618 0.75037 0.29944 0.0
H1714 H 0.38845 0.75411 0.31949 0.0
H1715 H 0.42874 0.71925 0.315 0.0
H1716 H 0.49831 0.746 0.36136 0.0
H1717 H 0.47703 0.74396 0.33994 0.0
H1718 H 0.43489 0.76927 0.34718 0.0
C1719 C 0.39053 0.74741 0.30874 0.0
C1720 C 0.43009 0.73041 0.32161 0.0
C1721 C 0.3777 0.7452 0.29733 0.0
C1722 C 0.48577 0.74726 0.36435 0.0
C1723 C 0.47364 0.74604 0.35213 0.0
C1724 C 0.43364 0.75837 0.3401 0.0
C1725 C 0.40562 0.74068 0.30647 0.0
C1726 C 0.4192 0.74269 0.31882 0.0
C1727 C 0.45729 0.74762 0.3556 0.0
C1728 C 0.44443 0.7461 0.34276 0.0
H1729 H 0.39624 0.72216 0.27058 0.0
H1730 H 0.41896 0.72666 0.28999 0.0
H1731 H 0.41342 0.76665 0.32617 0.0
H1732 H 0.4618 0.75316 0.39591 0.0
H1733 H 0.44065 0.75153 0.3744 0.0
C1734 C 0.00019 0.41165 0.98227 0.0
C1735 C 0.9856 0.41375 0.98996 0.0
C1736 C 0.00235 0.39765 0.97356 0.0
C1737 C 0.98837 0.35548 0.97172 0.0
H1738 H 0.00779 0.35541 0.9303 0.0
C1739 C 0.99356 0.29686 0.9368 0.0
C1740 C 0.008 0.29477 0.92887 0.0
C1741 C 0.99022 0.31179 0.94303 0.0
C1742 C 0.00252 0.35521 0.94194 0.0
H1743 H 0.96178 0.40292 0.99439 0.0
H1744 H 0.96554 0.37854 0.97917 0.0
H1745 H 0.0032 0.38086 0.94341 0.0
H1746 H 0.03012 0.30686 0.92099 0.0
H1747 H 0.02449 0.33284 0.93223 0.0
H1748 H 0.98803 0.32995 0.97058 0.0
C1749 C 0.97531 0.3877 0.9799 0.0
C1750 C -0.00015 0.36979 0.94941 0.0
C1751 C 0.9731 0.40172 0.98848 0.0
C1752 C 0.01886 0.30807 0.92699 0.0
C1753 C 0.01558 0.323 0.93338 0.0
C1754 C 0.99116 0.34094 0.96434 0.0
C1755 C 0.99002 0.38543 0.97252 0.0
C1756 C 0.99271 0.37006 0.96437 0.0
C1757 C 0.00131 0.325 0.94166 0.0
C1758 C 0.99822 0.34059 0.94933 0.0
H1759 H 0.00999 0.42077 0.9831 0.0
H1760 H 0.01385 0.3962 0.96807 0.0
H1761 H 0.98313 0.35531 0.98338 0.0
H1762 H 0.98484 0.28692 0.93829 0.0
H1763 H 0.97893 0.31295 0.94899 0.0
C1764 C 0.6339 0.8282 0.27105 0.0
C1765 C 0.63961 0.81614 0.26128 0.0
C1766 C 0.62149 0.82471 0.28159 0.0
C1767 C 0.58819 0.7953 0.2901 0.0
H1768 H 0.59676 0.80817 0.33438 0.0
C1769 C 0.55507 0.76485 0.34186 0.0
C1770 C 0.55205 0.77383 0.35555 0.0
C1771 C 0.5639 0.77169 0.32951 0.0
C1772 C 0.59396 0.80474 0.32203 0.0
H1773 H 0.63651 0.79093 0.25492 0.0
H1774 H 0.6147 0.78501 0.27297 0.0
H1775 H 0.61539 0.8173 0.3141 0.0
H1776 H 0.55535 0.79729 0.36669 0.0
H1777 H 0.57045 0.80937 0.34495 0.0
H1778 H 0.56683 0.78265 0.29797 0.0
C1779 C 0.61976 0.79719 0.27239 0.0
C1780 C 0.60468 0.80996 0.31041 0.0
C1781 C 0.63226 0.80062 0.26199 0.0
C1782 C 0.55758 0.79 0.35636 0.0
C1783 C 0.56632 0.7969 0.34393 0.0
C1784 C 0.57738 0.7902 0.30168 0.0
C1785 C 0.6144 0.80913 0.28245 0.0
C1786 C 0.60209 0.80502 0.29439 0.0
C1787 C 0.56981 0.78775 0.33047 0.0
C1788 C 0.58032 0.79456 0.31786 0.0
H1789 H 0.63906 0.84035 0.27064 0.0
H1790 H 0.61748 0.83419 0.28911 0.0
H1791 H 0.58578 0.79149 0.27779 0.0
H1792 H 0.55103 0.75235 0.34086 0.0
H1793 H 0.56655 0.76418 0.31947 0.0
C1794 C 0.00417 0.09041 0.95798 0.0
C1795 C 0.01696 0.07994 0.9571 0.0
C1796 C 0.00507 0.10537 0.95059 0.0
C1797 C 0.03573 0.1349 0.93543 0.0
H1798 H 0.99746 0.15677 0.9207 0.0
C1799 C 0.03897 0.19741 0.90613 0.0
C1800 C 0.02965 0.20879 0.91344 0.0
C1801 C 0.03687 0.18117 0.90978 0.0
C1802 C 0.00822 0.15076 0.92478 0.0
H1803 H 0.04043 0.07687 0.94694 0.0
H1804 H 0.04152 0.10243 0.93329 0.0
H1805 H 0.99469 0.12886 0.92915 0.0
H1806 H 0.01064 0.21192 0.93016 0.0
H1807 H 0.0067 0.18349 0.93619 0.0
H1808 H 0.04923 0.1568 0.93076 0.0
C1809 C 0.03103 0.09934 0.94022 0.0
C1810 C 0.00666 0.13481 0.92971 0.0
C1811 C 0.03026 0.08449 0.94784 0.0
C1812 C 0.01795 0.20352 0.92424 0.0
C1813 C 0.01565 0.18723 0.92767 0.0
C1814 C 0.0373 0.15073 0.93024 0.0
C1815 C 0.01866 0.11018 0.94185 0.0
C1816 C 0.02037 0.12673 0.93533 0.0
C1817 C 0.02522 0.17595 0.9206 0.0
C1818 C 0.02355 0.15887 0.92509 0.0
H1819 H 0.99355 0.08721 0.96468 0.0
H1820 H 0.99533 0.11336 0.95226 0.0
H1821 H 0.04653 0.12928 0.93998 0.0
H1822 H 0.04811 0.20107 0.89778 0.0
H1823 H 0.04436 0.17267 0.90414 0.0
C1824 C 0.37657 0.29206 0.22821 0.0
C1825 C 0.37079 0.27833 0.23631 0.0
C1826 C 0.38979 0.29137 0.21835 0.0
C1827 C 0.42483 0.26747 0.20934 0.0
H1828 H 0.41884 0.28421 0.16639 0.0
C1829 C 0.46143 0.24675 0.15675 0.0
C1830 C 0.46491 0.25748 0.1443 0.0
C1831 C 0.45206 0.2513 0.16936 0.0
C1832 C 0.42092 0.27976 0.17842 0.0
H1833 H 0.37462 0.25313 0.24044 0.0
H1834 H 0.39779 0.25204 0.22349 0.0
H1835 H 0.39855 0.28858 0.18604 0.0
H1836 H 0.46203 0.2817 0.13579 0.0
H1837 H 0.44592 0.28977 0.15799 0.0
H1838 H 0.44711 0.25847 0.2017 0.0
C1839 C 0.39216 0.26337 0.22489 0.0
C1840 C 0.40924 0.28224 0.18968 0.0
C1841 C 0.37887 0.26401 0.23463 0.0
C1842 C 0.45945 0.27311 0.14513 0.0
C1843 C 0.45013 0.2777 0.15781 0.0
C1844 C 0.43658 0.26508 0.19812 0.0
C1845 C 0.39764 0.27697 0.21648 0.0
C1846 C 0.4109 0.27583 0.20515 0.0
C1847 C 0.44602 0.26673 0.1699 0.0
C1848 C 0.43459 0.27089 0.18241 0.0
H1849 H 0.37084 0.30335 0.22945 0.0
H1850 H 0.39387 0.30209 0.21214 0.0
H1851 H 0.42655 0.26259 0.22126 0.0
H1852 H 0.46544 0.23461 0.1565 0.0
H1853 H 0.44898 0.24246 0.17831 0.0
C1854 C 0.53166 0.41654 0.03733 0.0
C1855 C 0.53597 0.41686 0.02125 0.0
C1856 C 0.52963 0.40194 0.04533 0.0
C1857 C 0.54123 0.3602 0.04473 0.0
H1858 H 0.50075 0.35044 0.06542 0.0
C1859 C 0.51996 0.2957 0.05881 0.0
C1860 C 0.51093 0.29249 0.07242 0.0
C1861 C 0.5242 0.31141 0.05452 0.0
C1862 C 0.51227 0.35305 0.06 0.0
H1863 H 0.54195 0.40232 0.00105 0.0
H1864 H 0.53862 0.37684 0.01508 0.0
H1865 H 0.50616 0.37711 0.05444 0.0
H1866 H 0.49965 0.30337 0.09246 0.0
H1867 H 0.50739 0.33087 0.08514 0.0
H1868 H 0.54746 0.33627 0.05026 0.0
C1869 C 0.53674 0.38784 0.02147 0.0
C1870 C 0.51532 0.36832 0.05367 0.0
C1871 C 0.53851 0.40238 0.01341 0.0
C1872 C 0.50654 0.30541 0.08185 0.0
C1873 C 0.5109 0.32119 0.07761 0.0
C1874 C 0.53829 0.34502 0.05122 0.0
C1875 C 0.53217 0.38747 0.03747 0.0
C1876 C 0.52967 0.3719 0.04566 0.0
C1877 C 0.51968 0.32439 0.0638 0.0
C1878 C 0.52359 0.3411 0.05859 0.0
H1879 H 0.52955 0.42755 0.04361 0.0
H1880 H 0.52614 0.40196 0.05768 0.0
H1881 H 0.55251 0.36275 0.03883 0.0
H1882 H 0.52349 0.28609 0.05119 0.0
H1883 H 0.53066 0.31337 0.04363 0.0
C1884 C 0.63379 0.20833 0.19703 0.0
C1885 C 0.63149 0.21094 0.21338 0.0
C1886 C 0.62119 0.21047 0.18563 0.0
C1887 C 0.58311 0.23135 0.17928 0.0
H1888 H 0.57591 0.20202 0.14338 0.0
C1889 C 0.52906 0.23597 0.13325 0.0
C1890 C 0.53237 0.23376 0.11705 0.0
C1891 C 0.54069 0.23273 0.14534 0.0
C1892 C 0.57786 0.21041 0.15325 0.0
H1893 H 0.61397 0.21745 0.23059 0.0
H1894 H 0.59197 0.22122 0.21067 0.0
H1895 H 0.59698 0.19702 0.16388 0.0
H1896 H 0.55058 0.22641 0.1009 0.0
H1897 H 0.57085 0.22095 0.12194 0.0
H1898 H 0.56408 0.24481 0.16858 0.0
C1899 C 0.60362 0.21774 0.20667 0.0
C1900 C 0.58993 0.20754 0.16501 0.0
C1901 C 0.61622 0.21558 0.21807 0.0
C1902 C 0.54757 0.22821 0.11324 0.0
C1903 C 0.55918 0.22498 0.12532 0.0
C1904 C 0.57104 0.23423 0.16752 0.0
C1905 C 0.60599 0.21529 0.1903 0.0
C1906 C 0.59277 0.21803 0.1781 0.0
C1907 C 0.55589 0.22719 0.14151 0.0
C1908 C 0.56835 0.22385 0.1543 0.0
H1909 H 0.64548 0.205 0.19299 0.0
H1910 H 0.62349 0.20872 0.17311 0.0
H1911 H 0.58513 0.23979 0.1891 0.0
H1912 H 0.51746 0.24018 0.13664 0.0
H1913 H 0.5377 0.2344 0.15771 0.0
C1914 C 0.48278 0.09691 0.00631 0.0
C1915 C 0.47601 0.08324 0.01375 0.0
C1916 C 0.48394 0.11167 0.01423 0.0
C1917 C 0.4833 0.13061 0.05424 0.0
H1918 H 0.47189 0.16802 0.02966 0.0
C1919 C 0.47415 0.19242 0.08319 0.0
C1920 C 0.4804 0.20597 0.07518 0.0
C1921 C 0.47415 0.17724 0.07611 0.0
C1922 C 0.4753 0.15773 0.03665 0.0
H1923 H 0.46556 0.0743 0.03556 0.0
H1924 H 0.46728 0.10017 0.04928 0.0
H1925 H 0.47104 0.14192 0.01662 0.0
H1926 H 0.4916 0.21421 0.05348 0.0
H1927 H 0.49179 0.18778 0.04126 0.0
H1928 H 0.48745 0.14649 0.07432 0.0
C1929 C 0.47183 0.09942 0.03735 0.0
C1930 C 0.47483 0.14276 0.02917 0.0
C1931 C 0.47067 0.08464 0.02942 0.0
C1932 C 0.48677 0.20402 0.06002 0.0
C1933 C 0.48674 0.18888 0.05294 0.0
C1934 C 0.48376 0.14561 0.06174 0.0
C1935 C 0.47832 0.11314 0.02978 0.0
C1936 C 0.47887 0.12903 0.03785 0.0
C1937 C 0.48034 0.17533 0.06085 0.0
C1938 C 0.47981 0.15934 0.05301 0.0
H1939 H 0.48686 0.09631 0.99419 0.0
H1940 H 0.48921 0.12196 0.00814 0.0
H1941 H 0.48665 0.12029 0.06122 0.0
H1942 H 0.46913 0.19353 0.09488 0.0
H1943 H 0.46898 0.16705 0.08245 0.0
C1944 C 0.28175 0.39154 0.73193 0.0
C1945 C 0.26931 0.39355 0.72021 0.0
C1946 C 0.29462 0.40298 0.73386 0.0
C1947 C 0.30662 0.44471 0.72917 0.0
H1948 H 0.35013 0.4303 0.72429 0.0
C1949 C 0.36265 0.48921 0.72807 0.0
C1950 C 0.37766 0.48406 0.73413 0.0
C1951 C 0.3491 0.47847 0.72658 0.0
C1952 C 0.33813 0.43455 0.72603 0.0
H1953 H 0.26022 0.40918 0.7016 0.0
H1954 H 0.28259 0.42954 0.70534 0.0
H1955 H 0.32697 0.41114 0.72185 0.0
H1956 H 0.39013 0.46386 0.74403 0.0
H1957 H 0.36643 0.44539 0.74225 0.0
H1958 H 0.31766 0.46799 0.73398 0.0
C1959 C 0.28242 0.41901 0.71287 0.0
C1960 C 0.32487 0.42354 0.72449 0.0
C1961 C 0.26972 0.40738 0.71069 0.0
C1962 C 0.37875 0.46811 0.7391 0.0
C1963 C 0.36515 0.45748 0.73795 0.0
C1964 C 0.31993 0.4557 0.73106 0.0
C1965 C 0.29507 0.41678 0.72433 0.0
C1966 C 0.30902 0.42853 0.72602 0.0
C1967 C 0.35018 0.46242 0.73143 0.0
C1968 C 0.3359 0.45078 0.7295 0.0
H1969 H 0.28173 0.38091 0.73932 0.0
H1970 H 0.30424 0.40105 0.74279 0.0
H1971 H 0.29447 0.44878 0.73049 0.0
H1972 H 0.36149 0.50143 0.72405 0.0
H1973 H 0.3379 0.48272 0.72127 0.0
C1974 C 0.26754 0.64517 0.74621 0.0
C1975 C 0.25952 0.64516 0.7607 0.0
C1976 C 0.28045 0.63525 0.74415 0.0
C1977 C 0.29961 0.59905 0.75919 0.0
H1978 H 0.33834 0.61872 0.74136 0.0
C1979 C 0.35973 0.56601 0.75566 0.0
C1980 C 0.3685 0.56847 0.74175 0.0
C1981 C 0.34634 0.57514 0.75853 0.0
C1982 C 0.32757 0.61296 0.74617 0.0
H1983 H 0.25833 0.63429 0.78417 0.0
H1984 H 0.28093 0.61689 0.78055 0.0
H1985 H 0.31477 0.6346 0.74482 0.0
H1986 H 0.36992 0.58227 0.71986 0.0
H1987 H 0.34653 0.59783 0.72467 0.0
H1988 H 0.31233 0.57732 0.76031 0.0
C1989 C 0.27722 0.62462 0.7708 0.0
C1990 C 0.31406 0.62208 0.74817 0.0
C1991 C 0.26438 0.63465 0.77292 0.0
C1992 C 0.36355 0.58015 0.73077 0.0
C1993 C 0.35015 0.58917 0.73358 0.0
C1994 C 0.31311 0.58986 0.75707 0.0
C1995 C 0.28556 0.62501 0.75649 0.0
C1996 C 0.2999 0.61522 0.75459 0.0
C1997 C 0.34141 0.58686 0.74752 0.0
C1998 C 0.32722 0.59668 0.75042 0.0
H1999 H 0.26417 0.65323 0.73663 0.0
H2000 H 0.28654 0.63568 0.73292 0.0
H2001 H 0.28881 0.59342 0.76409 0.0
H2002 H 0.36325 0.55711 0.76436 0.0
H2003 H 0.33999 0.57315 0.76948 0.0
C2004 C 0.88258 0.46358 0.47271 0.0
C2005 C 0.89775 0.45717 0.47032 0.0
C2006 C 0.86884 0.45349 0.47498 0.0
C2007 C 0.85293 0.41164 0.46873 0.0
H2008 H 0.82298 0.42196 0.50132 0.0
C2009 C 0.80577 0.36527 0.49138 0.0
C2010 C 0.78993 0.37018 0.49354 0.0
C2011 C 0.81833 0.37644 0.4882 0.0
C2012 C 0.83113 0.41902 0.49205 0.0
H2013 H 0.91043 0.43515 0.46868 0.0
H2014 H 0.88655 0.41756 0.4727 0.0
H2015 H 0.84605 0.44044 0.49625 0.0
H2016 H 0.77497 0.39082 0.49426 0.0
H2017 H 0.79702 0.41037 0.4887 0.0
H2018 H 0.83817 0.39013 0.46468 0.0
C2019 C 0.88517 0.43038 0.47251 0.0
C2020 C 0.84434 0.42961 0.48913 0.0
C2021 C 0.89887 0.44046 0.47021 0.0
C2022 C 0.78702 0.38661 0.49265 0.0
C2023 C 0.79965 0.39782 0.48953 0.0
C2024 C 0.83979 0.40106 0.47168 0.0
C2025 C 0.86999 0.43676 0.47493 0.0
C2026 C 0.85549 0.42595 0.47755 0.0
C2027 C 0.81541 0.39282 0.48714 0.0
C2028 C 0.82885 0.40454 0.48349 0.0
H2029 H 0.88128 0.47641 0.47267 0.0
H2030 H 0.85729 0.45879 0.4766 0.0
H2031 H 0.86109 0.40861 0.45949 0.0
H2032 H 0.80851 0.35274 0.49203 0.0
H2033 H 0.83039 0.37224 0.48668 0.0
C2034 C 0.73103 0.84479 0.78739 0.0
C2035 C 0.73937 0.84003 0.77398 0.0
C2036 C 0.72049 0.85738 0.78629 0.0
C2037 C 0.6979 0.88235 0.75692 0.0
H2038 H 0.7005 0.91353 0.79148 0.0
C2039 C 0.68024 0.94757 0.74922 0.0
C2040 C 0.67252 0.9551 0.76167 0.0
C2041 C 0.68534 0.93199 0.75098 0.0
C2042 C 0.69939 0.90479 0.78186 0.0
H2043 H 0.74277 0.84454 0.74877 0.0
H2044 H 0.72486 0.8668 0.74699 0.0
H2045 H 0.71557 0.88926 0.79412 0.0
H2046 H 0.66352 0.9519 0.78551 0.0
H2047 H 0.67264 0.92459 0.78865 0.0
H2048 H 0.68222 0.89827 0.74442 0.0
C2049 C 0.72625 0.86065 0.75831 0.0
C2050 C 0.70804 0.89086 0.78336 0.0
C2051 C 0.73673 0.84802 0.7594 0.0
C2052 C 0.66943 0.94643 0.7757 0.0
C2053 C 0.67473 0.93085 0.77754 0.0
C2054 C 0.68934 0.89633 0.75538 0.0
C2055 C 0.71807 0.86557 0.77177 0.0
C2056 C 0.70766 0.87961 0.77078 0.0
C2057 C 0.68298 0.92358 0.76528 0.0
C2058 C 0.69025 0.90784 0.76771 0.0
H2059 H 0.73289 0.83902 0.79886 0.0
H2060 H 0.71427 0.86074 0.79685 0.0
H2061 H 0.69704 0.87379 0.74714 0.0
H2062 H 0.68271 0.95387 0.73821 0.0
H2063 H 0.69179 0.92678 0.74138 0.0
C2064 C 0.61642 0.55773 0.9853 0.0
C2065 C 0.61338 0.54451 0.99533 0.0
C2066 C 0.62979 0.56836 0.98845 0.0
C2067 C 0.67055 0.57199 0.00592 0.0
H2068 H 0.6628 0.61702 0.01114 0.0
C2069 C 0.72288 0.61899 0.02225 0.0
C2070 C 0.72163 0.63441 0.01583 0.0
C2071 C 0.70984 0.60764 0.02047 0.0
C2072 C 0.66528 0.60455 0.00944 0.0
H2073 H 0.6223 0.53226 0.01665 0.0
H2074 H 0.64605 0.55047 0.0216 0.0
H2075 H 0.63991 0.5979 0.00614 0.0
H2076 H 0.70601 0.64984 0.00198 0.0
H2077 H 0.68373 0.63001 0.99822 0.0
H2078 H 0.69594 0.5786 0.00848 0.0
C2079 C 0.63789 0.55255 0.01139 0.0
C2080 C 0.65211 0.5936 0.00671 0.0
C2081 C 0.62432 0.54209 0.00845 0.0
C2082 C 0.70726 0.63814 0.0073 0.0
C2083 C 0.6944 0.62675 0.00525 0.0
C2084 C 0.6838 0.583 0.00833 0.0
C2085 C 0.64064 0.56584 0.00149 0.0
C2086 C 0.65464 0.57726 0.00485 0.0
C2087 C 0.69538 0.61139 0.01197 0.0
C2088 C 0.68134 0.59947 0.01001 0.0
H2089 H 0.60858 0.55984 0.97487 0.0
H2090 H 0.63178 0.57846 0.98057 0.0
H2091 H 0.67277 0.55942 0.00444 0.0
H2092 H 0.73381 0.61581 0.02893 0.0
H2093 H 0.71103 0.59604 0.026 0.0
C2094 C 0.26006 0.63846 0.22285 0.0
C2095 C 0.25985 0.65164 0.23326 0.0
C2096 C 0.24907 0.62535 0.22443 0.0
C2097 C 0.22125 0.60637 0.25353 0.0
H2098 H 0.2046 0.5821 0.21622 0.0
C2099 C 0.17143 0.55602 0.25739 0.0
C2100 C 0.17554 0.54124 0.25104 0.0
C2101 C 0.18062 0.57002 0.25413 0.0
C2102 C 0.20919 0.58879 0.22672 0.0
H2103 H 0.24776 0.66175 0.25313 0.0
H2104 H 0.22818 0.63918 0.25558 0.0
H2105 H 0.22271 0.60574 0.2128 0.0
H2106 H 0.19211 0.52972 0.23572 0.0
H2107 H 0.2079 0.55427 0.22975 0.0
H2108 H 0.20743 0.58953 0.26738 0.0
C2109 C 0.23714 0.63863 0.24653 0.0
C2110 C 0.21964 0.60226 0.2248 0.0
C2111 C 0.2483 0.65161 0.24511 0.0
C2112 C 0.18859 0.54088 0.24077 0.0
C2113 C 0.19762 0.55494 0.23732 0.0
C2114 C 0.21061 0.59307 0.25541 0.0
C2115 C 0.23745 0.62525 0.2363 0.0
C2116 C 0.22592 0.61117 0.23821 0.0
C2117 C 0.19394 0.56956 0.24426 0.0
C2118 C 0.20457 0.58409 0.24204 0.0
H2119 H 0.26894 0.63817 0.21369 0.0
H2120 H 0.24991 0.61518 0.21652 0.0
H2121 H 0.22606 0.61266 0.26417 0.0
H2122 H 0.16147 0.55671 0.26536 0.0
H2123 H 0.17746 0.58118 0.25953 0.0
C2124 C 0.90289 0.53887 0.04418 0.0
C2125 C 0.90247 0.5234 0.03747 0.0
C2126 C 0.88937 0.54827 0.04266 0.0
C2127 C 0.85206 0.55394 0.0181 0.0
H2128 H 0.83937 0.57748 0.05521 0.0
C2129 C 0.80828 0.60618 0.01497 0.0
C2130 C 0.79734 0.60741 0.02731 0.0
C2131 C 0.81983 0.59446 0.01551 0.0
C2132 C 0.84264 0.57086 0.04477 0.0
H2133 H 0.88735 0.50571 0.02391 0.0
H2134 H 0.8638 0.52227 0.02107 0.0
H2135 H 0.86217 0.56002 0.05772 0.0
H2136 H 0.78943 0.59674 0.04948 0.0
H2137 H 0.80955 0.57631 0.05038 0.0
H2138 H 0.83254 0.56491 0.00513 0.0
C2139 C 0.87469 0.52711 0.02744 0.0
C2140 C 0.85582 0.561 0.04617 0.0
C2141 C 0.8882 0.51765 0.02905 0.0
C2142 C 0.79773 0.59621 0.03982 0.0
C2143 C 0.80933 0.58455 0.0404 0.0
C2144 C 0.83893 0.56392 0.01666 0.0
C2145 C 0.87511 0.54249 0.0343 0.0
C2146 C 0.86074 0.55252 0.03284 0.0
C2147 C 0.82073 0.58377 0.02843 0.0
C2148 C 0.83413 0.57254 0.02997 0.0
H2149 H 0.91377 0.54384 0.05045 0.0
H2150 H 0.89015 0.56018 0.04785 0.0
H2151 H 0.85564 0.54762 0.00759 0.0
H2152 H 0.80828 0.6146 0.00514 0.0
H2153 H 0.82851 0.59422 0.00616 0.0
C2154 C 0.10632 0.96625 0.01082 0.0
C2155 C 0.09448 0.96551 0.99819 0.0
C2156 C 0.12089 0.95859 0.00954 0.0
C2157 C 0.13885 0.92556 0.98893 0.0
H2158 H 0.17973 0.94645 0.00404 0.0
C2159 C 0.19871 0.89303 0.98719 0.0
C2160 C 0.20879 0.8943 0.00118 0.0
C2161 C 0.18586 0.9032 0.98475 0.0
C2162 C 0.16841 0.94041 -0.00015 0.0
H2163 H 0.08859 0.95612 0.97434 0.0
H2164 H 0.1141 0.94265 0.97211 0.0
H2165 H 0.15485 0.96112 0.004 0.0
H2166 H 0.21379 0.90779 0.0232 0.0
H2167 H 0.19129 0.92528 0.01912 0.0
H2168 H 0.15222 0.90468 0.98527 0.0
C2169 C 0.11207 0.94917 0.983 0.0
C2170 C 0.15417 0.94882 -0.00018 0.0
C2171 C 0.09753 0.95696 0.98423 0.0
C2172 C 0.20625 0.90647 0.01229 0.0
C2173 C 0.19337 0.91658 0.0099 0.0
C2174 C 0.15307 0.9171 0.98905 0.0
C2175 C 0.12391 0.94994 0.99563 0.0
C2176 C 0.13921 0.94141 0.99457 0.0
C2177 C 0.18278 0.91483 0.99628 0.0
C2178 C 0.168 0.92435 0.99473 0.0
H2179 H 0.10439 0.9729 0.02166 0.0
H2180 H 0.12971 0.95924 0.01955 0.0
H2181 H 0.12747 0.91947 0.98497 0.0
H2182 H 0.20042 0.88386 0.97833 0.0
H2183 H 0.17815 0.90173 0.97398 0.0
loop_
_geom_bond_atom_site_label_1
_geom_bond_atom_site_label_2
_geom_bond_distance
_geom_bond_site_symmetry_2
_ccdc_geom_bond_type
C0 C1 1.384 . S
C0 H13 0.947 . S
C0 C35 1.382 1_655 S
C1 C0 1.384 . S
C1 C2 1.378 1_655 S
C2 C1 1.378 1_455 S
C2 C3 1.378 . S
C2 H14 0.952 . S
C3 C2 1.378 . S
C3 H15 0.950 . S
C3 C34 1.383 . S
H4 C23 0.947 . S
H5 C24 0.946 . S
H6 C26 0.953 . S
H7 C27 0.945 . S
H8 C29 0.952 . S
H9 C30 0.949 . S
H10 C32 0.950 . S
H11 C33 0.948 . S
H12 C35 0.951 . S
H13 C0 0.947 . S
H14 C2 0.952 . S
H15 C3 0.950 . S
N16 C19 1.382 . S
N16 C21 1.363 . S
N17 C19 1.371 . S
N17 C20 1.372 . S
N18 C20 1.361 . S
N18 C21 1.377 . S
C19 N16 1.382 . S
C19 N17 1.371 . S
C19 C22 1.480 . S
C20 N17 1.372 . S
C20 N18 1.361 . S
C20 C28 1.457 . S
C21 N16 1.363 . S
C21 N18 1.377 . S
C21 C34 1.479 . S
C22 C19 1.480 . S
C22 C23 1.383 . S
C22 C27 1.385 . S
C23 H4 0.947 . S
C23 C22 1.383 . S
C23 C24 1.388 1_545 S
C24 H5 0.946 . S
C24 C23 1.388 1_565 S
C24 C25 1.384 . S
C25 C24 1.384 . S
C25 C26 1.377 1_565 S
C26 H6 0.953 . S
C26 C25 1.377 1_545 S
C26 C27 1.369 . S
C27 H7 0.945 . S
C27 C22 1.385 . S
C27 C26 1.369 . S
C28 C20 1.457 . S
C28 C29 1.372 1_554 S
C28 C33 1.364 . S
C29 H8 0.952 . S
C29 C28 1.372 1_556 S
C29 C30 1.389 . S
C30 H9 0.949 . S
C30 C29 1.389 . S
C30 C31 1.387 . S
C31 C30 1.387 . S
C31 C32 1.372 1_556 S
C32 H10 0.950 . S
C32 C31 1.372 1_554 S
C32 C33 1.379 . S
C33 H11 0.948 . S
C33 C28 1.364 . S
C33 C32 1.379 . S
C34 C3 1.383 . S
C34 C21 1.479 . S
C34 C35 1.398 . S
C35 C0 1.382 1_455 S
C35 H12 0.951 . S
C35 C34 1.398 . S
C36 C37 1.384 . S
C36 H49 0.947 . S
C36 C71 1.382 . S
C37 C36 1.384 . S
C37 C38 1.378 . S
C38 C37 1.378 . S
C38 C39 1.378 . S
C38 H50 0.952 . S
C39 C38 1.378 . S
C39 H51 0.950 . S
C39 C70 1.383 . S
H40 C59 0.947 . S
H41 C60 0.946 . S
H42 C62 0.953 . S
H43 C63 0.945 . S
H44 C65 0.952 . S
H45 C66 0.949 . S
H46 C68 0.950 . S
H47 C69 0.948 . S
H48 C71 0.951 . S
H49 C36 0.947 . S
H50 C38 0.952 . S
H51 C39 0.950 . S
N52 C55 1.382 . S
N52 C57 1.363 . S
N53 C55 1.371 . S
N53 C56 1.372 . S
N54 C56 1.361 . S
N54 C57 1.377 . S
C55 N52 1.382 . S
C55 N53 1.371 . S
C55 C58 1.480 . S
C56 N53 1.372 . S
C56 N54 1.361 . S
C56 C64 1.457 . S
C57 N52 1.363 . S
C57 N54 1.377 . S
C57 C70 1.479 . S
C58 C55 1.480 . S
C58 C59 1.383 . S
C58 C63 1.385 . S
C59 H40 0.947 . S
C59 C58 1.383 . S
C59 C60 1.388 . S
C60 H41 0.946 . S
C60 C59 1.388 . S
C60 C61 1.384 . S
C61 C60 1.384 . S
C61 C62 1.377 . S
C62 H42 0.953 . S
C62 C61 1.377 . S
C62 C63 1.369 . S
C63 H43 0.945 . S
C63 C58 1.385 . S
C63 C62 1.369 . S
C64 C56 1.457 . S
C64 C65 1.372 . S
C64 C69 1.364 . S
C65 H44 0.952 . S
C65 C64 1.372 . S
C65 C66 1.389 . S
C66 H45 0.949 . S
C66 C65 1.389 . S
C66 C67 1.387 . S
C67 C66 1.387 . S
C67 C68 1.372 . S
C68 H46 0.950 . S
C68 C67 1.372 . S
C68 C69 1.379 . S
C69 H47 0.948 . S
C69 C64 1.364 . S
C69 C68 1.379 . S
C70 C39 1.383 . S
C70 C57 1.479 . S
C70 C71 1.398 . S
C71 C36 1.382 . S
C71 H48 0.951 . S
C71 C70 1.398 . S
C72 C73 1.384 . S
C72 H85 0.947 1_655 S
C72 C107 1.382 . S
C73 C72 1.384 . S
C73 C74 1.369 1_554 S
C74 C73 1.369 1_556 S
C74 C75 1.347 1_556 S
C74 H86 0.996 . S
C75 C74 1.347 1_554 S
C75 H87 0.950 . S
C75 C106 1.383 . S
H76 C95 0.947 . S
H77 C96 0.946 . S
H78 C98 0.953 . S
H79 C99 0.945 . S
H80 C101 0.952 . S
H81 C102 0.949 . S
H82 C104 0.950 . S
H83 C105 0.948 . S
H84 C107 0.951 1_455 S
H85 C72 0.947 1_455 S
H86 C74 0.996 . S
H87 C75 0.950 . S
N88 C91 1.382 . S
N88 C93 1.363 . S
N89 C91 1.371 . S
N89 C92 1.372 . S
N90 C92 1.361 . S
N90 C93 1.377 . S
C91 N88 1.382 . S
C91 N89 1.371 . S
C91 C94 1.480 . S
C92 N89 1.372 . S
C92 N90 1.361 . S
C92 C100 1.457 1_655 S
C93 N88 1.363 . S
C93 N90 1.377 . S
C93 C106 1.479 . S
C94 C91 1.480 . S
C94 C95 1.383 . S
C94 C99 1.385 . S
C95 H76 0.947 . S
C95 C94 1.383 . S
C95 C96 1.388 . S
C96 H77 0.946 . S
C96 C95 1.388 . S
C96 C97 1.384 . S
C97 C96 1.384 . S
C97 C98 1.377 . S
C98 H78 0.953 . S
C98 C97 1.377 . S
C98 C99 1.369 . S
C99 H79 0.945 . S
C99 C94 1.385 . S
C99 C98 1.369 . S
C100 C92 1.457 1_455 S
C100 C101 1.372 1_455 S
C100 C105 1.364 . S
C101 H80 0.952 . S
C101 C100 1.372 1_655 S
C101 C102 1.389 1_655 S
C102 H81 0.949 . S
C102 C101 1.389 1_455 S
C102 C103 1.387 . S
C103 C102 1.387 . S
C103 C104 1.372 . S
C104 H82 0.950 . S
C104 C103 1.372 . S
C104 C105 1.379 . S
C105 H83 0.948 . S
C105 C100 1.364 . S
C105 C104 1.379 . S
C106 C75 1.383 . S
C106 C93 1.479 . S
C106 C107 1.398 . S
C107 C72 1.382 . S
C107 H84 0.951 1_655 S
C107 C106 1.398 . S
C108 C109 1.384 . S
C108 H121 0.947 . S
C108 C143 1.382 . S
C109 C108 1.384 . S
C109 C110 1.378 . S
C110 C109 1.378 . S
C110 C111 1.378 . S
C110 H122 0.952 . S
C111 C110 1.378 . S
C111 H123 0.950 . S
C111 C142 1.383 . S
H112 C131 0.947 . S
H113 C132 0.946 . S
H114 C134 0.953 . S
H115 C135 0.945 . S
H116 C137 0.952 . S
H117 C138 0.949 . S
H118 C140 0.950 . S
H119 C141 0.948 . S
H120 C143 0.951 . S
H121 C108 0.947 . S
H122 C110 0.952 . S
H123 C111 0.950 . S
N124 C127 1.382 . S
N124 C129 1.363 . S
N125 C127 1.371 . S
N125 C128 1.372 . S
N126 C128 1.361 . S
N126 C129 1.377 . S
C127 N124 1.382 . S
C127 N125 1.371 . S
C127 C130 1.480 . S
C128 N125 1.372 . S
C128 N126 1.361 . S
C128 C136 1.457 . S
C129 N124 1.363 . S
C129 N126 1.377 . S
C129 C142 1.479 . S
C130 C127 1.480 . S
C130 C131 1.383 . S
C130 C135 1.385 . S
C131 H112 0.947 . S
C131 C130 1.383 . S
C131 C132 1.388 . S
C132 H113 0.946 . S
C132 C131 1.388 . S
C132 C133 1.384 . S
C133 C132 1.384 . S
C133 C134 1.377 . S
C134 H114 0.953 . S
C134 C133 1.377 . S
C134 C135 1.369 . S
C135 H115 0.945 . S
C135 C130 1.385 . S
C135 C134 1.369 . S
C136 C128 1.457 . S
C136 C137 1.372 . S
C136 C141 1.364 . S
C137 H116 0.952 . S
C137 C136 1.372 . S
C137 C138 1.389 . S
C138 H117 0.949 . S
C138 C137 1.389 . S
C138 C139 1.387 . S
C139 C138 1.387 . S
C139 C140 1.372 . S
C140 H118 0.950 . S
C140 C139 1.372 . S
C140 C141 1.379 . S
C141 H119 0.948 . S
C141 C136 1.364 . S
C141 C140 1.379 . S
C142 C111 1.383 . S
C142 C129 1.479 . S
C142 C143 1.398 . S
C143 C108 1.382 . S
C143 H120 0.951 . S
C143 C142 1.398 . S
C144 C145 1.384 . S
C144 H157 0.947 . S
C144 C179 1.382 . S
C145 C144 1.384 . S
C145 C146 1.378 . S
C146 C145 1.378 . S
C146 C147 1.378 . S
C146 H158 0.952 . S
C147 C146 1.378 . S
C147 H159 0.950 . S
C147 C178 1.383 . S
H148 C167 0.947 . S
H149 C168 0.946 1_655 S
H150 C170 0.953 1_545 S
H151 C171 0.945 . S
H152 C173 0.952 . S
H153 C174 0.949 . S
H154 C176 0.950 . S
H155 C177 0.948 . S
H156 C179 0.951 . S
H157 C144 0.947 . S
H158 C146 0.952 . S
H159 C147 0.950 . S
N160 C163 1.382 . S
N160 C165 1.363 . S
N161 C163 1.371 . S
N161 C164 1.372 . S
N162 C164 1.361 . S
N162 C165 1.377 . S
C163 N160 1.382 . S
C163 N161 1.371 . S
C163 C166 1.480 . S
C164 N161 1.372 . S
C164 N162 1.361 . S
C164 C172 1.457 . S
C165 N160 1.363 . S
C165 N162 1.377 . S
C165 C178 1.479 . S
C166 C163 1.480 . S
C166 C167 1.383 . S
C166 C171 1.385 . S
C167 H148 0.947 . S
C167 C166 1.383 . S
C167 C168 1.388 . S
C168 H149 0.946 1_455 S
C168 C167 1.388 . S
C168 C169 1.384 . S
C169 C168 1.384 . S
C169 C170 1.377 . S
C170 H150 0.953 1_565 S
C170 C169 1.377 . S
C170 C171 1.369 . S
C171 H151 0.945 . S
C171 C166 1.385 . S
C171 C170 1.369 . S
C172 C164 1.457 . S
C172 C173 1.372 1_565 S
C172 C177 1.364 . S
C173 H152 0.952 . S
C173 C172 1.372 1_545 S
C173 C174 1.389 . S
C174 H153 0.949 . S
C174 C173 1.389 . S
C174 C175 1.387 . S
C175 C174 1.387 . S
C175 C176 1.372 1_545 S
C176 H154 0.950 . S
C176 C175 1.372 1_565 S
C176 C177 1.379 . S
C177 H155 0.948 . S
C177 C172 1.364 . S
C177 C176 1.379 . S
C178 C147 1.383 . S
C178 C165 1.479 . S
C178 C179 1.398 . S
C179 C144 1.382 . S
C179 H156 0.951 . S
C179 C178 1.398 . S
C180 C181 1.384 . S
C180 H193 0.947 . S
C180 C215 1.382 . S
C181 C180 1.384 . S
C181 C182 1.378 . S
C182 C181 1.378 . S
C182 C183 1.378 . S
C182 H194 0.952 . S
C183 C182 1.378 . S
C183 H195 0.950 . S
C183 C214 1.383 . S
H184 C203 0.947 . S
H185 C204 0.946 . S
H186 C206 0.953 . S
H187 C207 0.945 . S
H188 C209 0.952 . S
H189 C210 0.949 . S
H190 C212 0.950 . S
H191 C213 0.948 . S
H192 C215 0.951 . S
H193 C180 0.947 . S
H194 C182 0.952 . S
H195 C183 0.950 . S
N196 C199 1.382 . S
N196 C201 1.363 . S
N197 C199 1.371 . S
N197 C200 1.372 . S
N198 C200 1.361 . S
N198 C201 1.377 . S
C199 N196 1.382 . S
C199 N197 1.371 . S
C199 C202 1.480 . S
C200 N197 1.372 . S
C200 N198 1.361 . S
C200 C208 1.457 . S
C201 N196 1.363 . S
C201 N198 1.377 . S
C201 C214 1.479 . S
C202 C199 1.480 . S
C202 C203 1.383 . S
C202 C207 1.385 . S
C203 H184 0.947 . S
C203 C202 1.383 . S
C203 C204 1.388 . S
C204 H185 0.946 . S
C204 C203 1.388 . S
C204 C205 1.384 . S
C205 C204 1.384 . S
C205 C206 1.377 . S
C206 H186 0.953 . S
C206 C205 1.377 . S
C206 C207 1.369 . S
C207 H187 0.945 . S
C207 C202 1.385 . S
C207 C206 1.369 . S
C208 C200 1.457 . S
C208 C209 1.372 . S
C208 C213 1.364 . S
C209 H188 0.952 . S
C209 C208 1.372 . S
C209 C210 1.389 . S
C210 H189 0.949 . S
C210 C209 1.389 . S
C210 C211 1.387 . S
C211 C210 1.387 . S
C211 C212 1.372 . S
C212 H190 0.950 . S
C212 C211 1.372 . S
C212 C213 1.379 . S
C213 H191 0.948 . S
C213 C208 1.364 . S
C213 C212 1.379 . S
C214 C183 1.383 . S
C214 C201 1.479 . S
C214 C215 1.398 . S
C215 C180 1.382 . S
C215 H192 0.951 . S
C215 C214 1.398 . S
C216 C217 1.384 . S
C216 H229 0.947 . S
C216 C251 1.382 . S
C217 C216 1.384 . S
C217 C218 1.378 . S
C218 C217 1.378 . S
C218 C219 1.378 . S
C218 H230 0.952 . S
C219 C218 1.378 . S
C219 H231 0.950 . S
C219 C250 1.383 . S
H220 C239 0.947 . S
H221 C240 0.946 . S
H222 C242 0.953 . S
H223 C243 0.945 . S
H224 C245 0.952 . S
H225 C246 0.949 . S
H226 C248 0.950 . S
H227 C249 0.948 . S
H228 C251 0.951 . S
H229 C216 0.947 . S
H230 C218 0.952 . S
H231 C219 0.950 . S
N232 C235 1.382 . S
N232 C237 1.363 . S
N233 C235 1.371 . S
N233 C236 1.372 . S
N234 C236 1.361 . S
N234 C237 1.377 . S
C235 N232 1.382 . S
C235 N233 1.371 . S
C235 C238 1.480 . S
C236 N233 1.372 . S
C236 N234 1.361 . S
C236 C244 1.457 . S
C237 N232 1.363 . S
C237 N234 1.377 . S
C237 C250 1.479 . S
C238 C235 1.480 . S
C238 C239 1.383 . S
C238 C243 1.385 . S
C239 H220 0.947 . S
C239 C238 1.383 . S
C239 C240 1.388 . S
C240 H221 0.946 . S
C240 C239 1.388 . S
C240 C241 1.384 . S
C241 C240 1.384 . S
C241 C242 1.377 . S
C242 H222 0.953 . S
C242 C241 1.377 . S
C242 C243 1.369 . S
C243 H223 0.945 . S
C243 C238 1.385 . S
C243 C242 1.369 . S
C244 C236 1.457 . S
C244 C245 1.372 . S
C244 C249 1.364 1_655 S
C245 H224 0.952 . S
C245 C244 1.372 . S
C245 C246 1.389 . S
C246 H225 0.949 . S
C246 C245 1.389 . S
C246 C247 1.387 1_655 S
C247 C246 1.387 1_455 S
C247 C248 1.372 . S
C248 H226 0.950 . S
C248 C247 1.372 . S
C248 C249 1.379 . S
C249 H227 0.948 . S
C249 C244 1.364 1_455 S
C249 C248 1.379 . S
C250 C219 1.383 . S
C250 C237 1.479 . S
C250 C251 1.398 . S
C251 C216 1.382 . S
C251 H228 0.951 . S
C251 C250 1.398 . S
C252 C253 1.384 . S
C252 H265 0.947 . S
C252 C287 1.382 . S
C253 C252 1.384 . S
C253 C254 1.378 . S
C254 C253 1.378 . S
C254 C255 1.378 . S
C254 H266 0.952 . S
C255 C254 1.378 . S
C255 H267 0.950 . S
C255 C286 1.383 . S
H256 C275 0.947 . S
H257 C276 0.946 . S
H258 C278 0.953 . S
H259 C279 0.945 . S
H260 C281 0.952 . S
H261 C282 0.949 . S
H262 C284 0.950 . S
H263 C285 0.948 . S
H264 C287 0.951 . S
H265 C252 0.947 . S
H266 C254 0.952 . S
H267 C255 0.950 . S
N268 C271 1.382 . S
N268 C273 1.363 . S
N269 C271 1.371 . S
N269 C272 1.372 . S
N270 C272 1.361 . S
N270 C273 1.377 . S
C271 N268 1.382 . S
C271 N269 1.371 . S
C271 C274 1.480 . S
C272 N269 1.372 . S
C272 N270 1.361 . S
C272 C280 1.457 . S
C273 N268 1.363 . S
C273 N270 1.377 . S
C273 C286 1.479 . S
C274 C271 1.480 . S
C274 C275 1.383 . S
C274 C279 1.385 . S
C275 H256 0.947 . S
C275 C274 1.383 . S
C275 C276 1.388 . S
C276 H257 0.946 . S
C276 C275 1.388 . S
C276 C277 1.384 . S
C277 C276 1.384 . S
C277 C278 1.377 . S
C278 H258 0.953 . S
C278 C277 1.377 . S
C278 C279 1.369 . S
C279 H259 0.945 . S
C279 C274 1.385 . S
C279 C278 1.369 . S
C280 C272 1.457 . S
C280 C281 1.372 . S
C280 C285 1.364 . S
C281 H260 0.952 . S
C281 C280 1.372 . S
C281 C282 1.389 . S
C282 H261 0.949 . S
C282 C281 1.389 . S
C282 C283 1.387 . S
C283 C282 1.387 . S
C283 C284 1.372 . S
C284 H262 0.950 . S
C284 C283 1.372 . S
C284 C285 1.379 . S
C285 H263 0.948 . S
C285 C280 1.364 . S
C285 C284 1.379 . S
C286 C255 1.383 . S
C286 C273 1.479 . S
C286 C287 1.398 . S
C287 C252 1.382 . S
C287 H264 0.951 . S
C287 C286 1.398 . S
C288 C289 1.384 . S
C288 H301 0.947 . S
C288 C323 1.382 . S
C289 C288 1.384 . S
C289 C290 1.378 . S
C290 C289 1.378 . S
C290 C291 1.378 . S
C290 H302 0.952 . S
C291 C290 1.378 . S
C291 H303 0.950 . S
C291 C322 1.383 . S
H292 C311 0.947 . S
H293 C312 0.946 . S
H294 C314 0.953 . S
H295 C315 0.945 . S
H296 C317 0.952 . S
H297 C318 0.949 . S
H298 C320 0.950 . S
H299 C321 0.948 . S
H300 C323 0.951 . S
H301 C288 0.947 . S
H302 C290 0.952 . S
H303 C291 0.950 . S
N304 C307 1.382 . S
N304 C309 1.363 . S
N305 C307 1.371 . S
N305 C308 1.372 . S
N306 C308 1.361 . S
N306 C309 1.377 . S
C307 N304 1.382 . S
C307 N305 1.371 . S
C307 C310 1.480 . S
C308 N305 1.372 . S
C308 N306 1.361 . S
C308 C316 1.457 . S
C309 N304 1.363 . S
C309 N306 1.377 . S
C309 C322 1.479 . S
C310 C307 1.480 . S
C310 C311 1.383 . S
C310 C315 1.385 . S
C311 H292 0.947 . S
C311 C310 1.383 . S
C311 C312 1.388 . S
C312 H293 0.946 . S
C312 C311 1.388 . S
C312 C313 1.384 . S
C313 C312 1.384 . S
C313 C314 1.377 . S
C314 H294 0.953 . S
C314 C313 1.377 . S
C314 C315 1.369 . S
C315 H295 0.945 . S
C315 C310 1.385 . S
C315 C314 1.369 . S
C316 C308 1.457 . S
C316 C317 1.372 . S
C316 C321 1.364 . S
C317 H296 0.952 . S
C317 C316 1.372 . S
C317 C318 1.389 . S
C318 H297 0.949 . S
C318 C317 1.389 . S
C318 C319 1.387 . S
C319 C318 1.387 . S
C319 C320 1.372 . S
C320 H298 0.950 . S
C320 C319 1.372 . S
C320 C321 1.379 . S
C321 H299 0.948 . S
C321 C316 1.364 . S
C321 C320 1.379 . S
C322 C291 1.383 . S
C322 C309 1.479 . S
C322 C323 1.398 . S
C323 C288 1.382 . S
C323 H300 0.951 . S
C323 C322 1.398 . S
C324 C325 1.384 . S
C324 H337 0.947 . S
C324 C359 1.382 . S
C325 C324 1.384 . S
C325 C326 1.378 . S
C326 C325 1.378 . S
C326 C327 1.378 . S
C326 H338 0.952 . S
C327 C326 1.378 . S
C327 H339 0.950 . S
C327 C358 1.383 . S
H328 C347 0.947 . S
H329 C348 0.946 . S
H330 C350 0.953 . S
H331 C351 0.945 . S
H332 C353 0.952 . S
H333 C354 0.949 . S
H334 C356 0.950 . S
H335 C357 0.948 . S
H336 C359 0.951 . S
H337 C324 0.947 . S
H338 C326 0.952 . S
H339 C327 0.950 . S
N340 C343 1.382 . S
N340 C345 1.363 . S
N341 C343 1.371 . S
N341 C344 1.372 . S
N342 C344 1.361 . S
N342 C345 1.377 . S
C343 N340 1.382 . S
C343 N341 1.371 . S
C343 C346 1.480 . S
C344 N341 1.372 . S
C344 N342 1.361 . S
C344 C352 1.457 . S
C345 N340 1.363 . S
C345 N342 1.377 . S
C345 C358 1.479 . S
C346 C343 1.480 . S
C346 C347 1.383 . S
C346 C351 1.385 1_565 S
C347 H328 0.947 . S
C347 C346 1.383 . S
C347 C348 1.388 . S
C348 H329 0.946 . S
C348 C347 1.388 . S
C348 C349 1.384 1_565 S
C349 C348 1.384 1_545 S
C349 C350 1.377 . S
C350 H330 0.953 . S
C350 C349 1.377 . S
C350 C351 1.369 . S
C351 H331 0.945 . S
C351 C346 1.385 1_545 S
C351 C350 1.369 . S
C352 C344 1.457 . S
C352 C353 1.372 . S
C352 C357 1.364 . S
C353 H332 0.952 . S
C353 C352 1.372 . S
C353 C354 1.389 . S
C354 H333 0.949 . S
C354 C353 1.389 . S
C354 C355 1.387 . S
C355 C354 1.387 . S
C355 C356 1.372 . S
C356 H334 0.950 . S
C356 C355 1.372 . S
C356 C357 1.379 . S
C357 H335 0.948 . S
C357 C352 1.364 . S
C357 C356 1.379 . S
C358 C327 1.383 . S
C358 C345 1.479 . S
C358 C359 1.398 . S
C359 C324 1.382 . S
C359 H336 0.951 . S
C359 C358 1.398 . S
C360 C361 1.384 . S
C360 H373 0.947 . S
C360 C395 1.382 . S
C361 C360 1.384 . S
C361 C362 1.378 . S
C362 C361 1.378 . S
C362 C363 1.378 . S
C362 H374 0.952 . S
C363 C362 1.378 . S
C363 H375 0.950 . S
C363 C394 1.383 . S
H364 C383 0.947 . S
H365 C384 0.946 . S
H366 C386 0.953 . S
H367 C387 0.945 . S
H368 C389 0.952 . S
H369 C390 0.949 . S
H370 C392 0.950 . S
H371 C393 0.948 . S
H372 C395 0.951 . S
H373 C360 0.947 . S
H374 C362 0.952 . S
H375 C363 0.950 . S
N376 C379 1.382 . S
N376 C381 1.363 . S
N377 C379 1.371 . S
N377 C380 1.372 . S
N378 C380 1.361 . S
N378 C381 1.377 . S
C379 N376 1.382 . S
C379 N377 1.371 . S
C379 C382 1.480 . S
C380 N377 1.372 . S
C380 N378 1.361 . S
C380 C388 1.457 . S
C381 N376 1.363 . S
C381 N378 1.377 . S
C381 C394 1.479 . S
C382 C379 1.480 . S
C382 C383 1.383 . S
C382 C387 1.385 . S
C383 H364 0.947 . S
C383 C382 1.383 . S
C383 C384 1.388 . S
C384 H365 0.946 . S
C384 C383 1.388 . S
C384 C385 1.384 . S
C385 C384 1.384 . S
C385 C386 1.377 . S
C386 H366 0.953 . S
C386 C385 1.377 . S
C386 C387 1.369 . S
C387 H367 0.945 . S
C387 C382 1.385 . S
C387 C386 1.369 . S
C388 C380 1.457 . S
C388 C389 1.372 . S
C388 C393 1.364 . S
C389 H368 0.952 . S
C389 C388 1.372 . S
C389 C390 1.389 . S
C390 H369 0.949 . S
C390 C389 1.389 . S
C390 C391 1.387 . S
C391 C390 1.387 . S
C391 C392 1.372 . S
C392 H370 0.950 . S
C392 C391 1.372 . S
C392 C393 1.379 . S
C393 H371 0.948 . S
C393 C388 1.364 . S
C393 C392 1.379 . S
C394 C363 1.383 . S
C394 C381 1.479 . S
C394 C395 1.398 . S
C395 C360 1.382 . S
C395 H372 0.951 . S
C395 C394 1.398 . S
C396 C397 1.384 . S
C396 H409 0.947 . S
C396 C431 1.382 . S
C397 C396 1.384 . S
C397 C398 1.378 . S
C398 C397 1.378 . S
C398 C399 1.378 . S
C398 H410 0.952 . S
C399 C398 1.378 . S
C399 H411 0.950 . S
C399 C430 1.383 . S
H400 C419 0.947 . S
H401 C420 0.946 . S
H402 C422 0.953 . S
H403 C423 0.945 . S
H404 C425 0.952 . S
H405 C426 0.949 . S
H406 C428 0.950 . S
H407 C429 0.948 . S
H408 C431 0.951 . S
H409 C396 0.947 . S
H410 C398 0.952 . S
H411 C399 0.950 . S
N412 C415 1.382 . S
N412 C417 1.363 . S
N413 C415 1.371 . S
N413 C416 1.372 . S
N414 C416 1.361 . S
N414 C417 1.377 . S
C415 N412 1.382 . S
C415 N413 1.371 . S
C415 C418 1.480 . S
C416 N413 1.372 . S
C416 N414 1.361 . S
C416 C424 1.457 . S
C417 N412 1.363 . S
C417 N414 1.377 . S
C417 C430 1.479 . S
C418 C415 1.480 . S
C418 C419 1.383 . S
C418 C423 1.385 . S
C419 H400 0.947 . S
C419 C418 1.383 . S
C419 C420 1.388 . S
C420 H401 0.946 . S
C420 C419 1.388 . S
C420 C421 1.384 . S
C421 C420 1.384 . S
C421 C422 1.377 . S
C422 H402 0.953 . S
C422 C421 1.377 . S
C422 C423 1.369 . S
C423 H403 0.945 . S
C423 C418 1.385 . S
C423 C422 1.369 . S
C424 C416 1.457 . S
C424 C425 1.372 . S
C424 C429 1.364 . S
C425 H404 0.952 . S
C425 C424 1.372 . S
C425 C426 1.389 . S
C426 H405 0.949 . S
C426 C425 1.389 . S
C426 C427 1.387 . S
C427 C426 1.387 . S
C427 C428 1.372 . S
C428 H406 0.950 . S
C428 C427 1.372 . S
C428 C429 1.379 . S
C429 H407 0.948 . S
C429 C424 1.364 . S
C429 C428 1.379 . S
C430 C399 1.383 . S
C430 C417 1.479 . S
C430 C431 1.398 . S
C431 C396 1.382 . S
C431 H408 0.951 . S
C431 C430 1.398 . S
C432 C433 1.384 . S
C432 H445 0.947 . S
C432 C467 1.382 . S
C433 C432 1.384 . S
C433 C434 1.378 . S
C434 C433 1.378 . S
C434 C435 1.378 . S
C434 H446 0.952 . S
C435 C434 1.378 . S
C435 H447 0.950 . S
C435 C466 1.383 . S
H436 C455 0.947 . S
H437 C456 0.946 . S
H438 C458 0.953 . S
H439 C459 0.945 . S
H440 C461 0.952 . S
H441 C462 0.949 . S
H442 C464 0.950 . S
H443 C465 0.948 . S
H444 C467 0.951 . S
H445 C432 0.947 . S
H446 C434 0.952 . S
H447 C435 0.950 . S
N448 C451 1.382 . S
N448 C453 1.363 . S
N449 C451 1.371 . S
N449 C452 1.372 . S
N450 C452 1.361 . S
N450 C453 1.377 . S
C451 N448 1.382 . S
C451 N449 1.371 . S
C451 C454 1.480 . S
C452 N449 1.372 . S
C452 N450 1.361 . S
C452 C460 1.457 . S
C453 N448 1.363 . S
C453 N450 1.377 . S
C453 C466 1.479 . S
C454 C451 1.480 . S
C454 C455 1.383 . S
C454 C459 1.385 . S
C455 H436 0.947 . S
C455 C454 1.383 . S
C455 C456 1.388 . S
C456 H437 0.946 . S
C456 C455 1.388 . S
C456 C457 1.384 . S
C457 C456 1.384 . S
C457 C458 1.377 . S
C458 H438 0.953 . S
C458 C457 1.377 . S
C458 C459 1.369 . S
C459 H439 0.945 . S
C459 C454 1.385 . S
C459 C458 1.369 . S
C460 C452 1.457 . S
C460 C461 1.372 . S
C460 C465 1.364 . S
C461 H440 0.952 . S
C461 C460 1.372 . S
C461 C462 1.389 . S
C462 H441 0.949 . S
C462 C461 1.389 . S
C462 C463 1.387 . S
C463 C462 1.387 . S
C463 C464 1.372 . S
C464 H442 0.950 . S
C464 C463 1.372 . S
C464 C465 1.379 . S
C465 H443 0.948 . S
C465 C460 1.364 . S
C465 C464 1.379 . S
C466 C435 1.383 . S
C466 C453 1.479 . S
C466 C467 1.398 . S
C467 C432 1.382 . S
C467 H444 0.951 . S
C467 C466 1.398 . S
C468 C469 1.384 . S
C468 H481 0.947 . S
C468 C503 1.382 1_554 S
C469 C468 1.384 . S
C469 C470 1.378 1_554 S
C470 C469 1.378 1_556 S
C470 C471 1.378 . S
C470 H482 0.952 . S
C471 C470 1.378 . S
C471 H483 0.950 . S
C471 C502 1.383 . S
H472 C491 0.947 . S
H473 C492 0.946 . S
H474 C494 0.953 . S
H475 C495 0.945 . S
H476 C497 0.952 . S
H477 C498 0.949 . S
H478 C500 0.950 . S
H479 C501 0.948 . S
H480 C503 0.951 . S
H481 C468 0.947 . S
H482 C470 0.952 . S
H483 C471 0.950 . S
N484 C487 1.382 . S
N484 C489 1.363 . S
N485 C487 1.371 . S
N485 C488 1.372 . S
N486 C488 1.361 . S
N486 C489 1.377 . S
C487 N484 1.382 . S
C487 N485 1.371 . S
C487 C490 1.480 . S
C488 N485 1.372 . S
C488 N486 1.361 . S
C488 C496 1.457 . S
C489 N484 1.363 . S
C489 N486 1.377 . S
C489 C502 1.479 . S
C490 C487 1.480 . S
C490 C491 1.383 . S
C490 C495 1.385 . S
C491 H472 0.947 . S
C491 C490 1.383 . S
C491 C492 1.388 . S
C492 H473 0.946 . S
C492 C491 1.388 . S
C492 C493 1.384 . S
C493 C492 1.384 . S
C493 C494 1.377 . S
C494 H474 0.953 . S
C494 C493 1.377 . S
C494 C495 1.369 . S
C495 H475 0.945 . S
C495 C490 1.385 . S
C495 C494 1.369 . S
C496 C488 1.457 . S
C496 C497 1.372 . S
C496 C501 1.364 . S
C497 H476 0.952 . S
C497 C496 1.372 . S
C497 C498 1.389 . S
C498 H477 0.949 . S
C498 C497 1.389 . S
C498 C499 1.387 . S
C499 C498 1.387 . S
C499 C500 1.372 . S
C500 H478 0.950 . S
C500 C499 1.372 . S
C500 C501 1.379 . S
C501 H479 0.948 . S
C501 C496 1.364 . S
C501 C500 1.379 . S
C502 C471 1.383 . S
C502 C489 1.479 . S
C502 C503 1.398 . S
C503 C468 1.382 1_556 S
C503 H480 0.951 . S
C503 C502 1.398 . S
C504 C505 1.384 . S
C504 H517 0.947 . S
C504 C539 1.382 . S
C505 C504 1.384 . S
C505 C506 1.378 . S
C506 C505 1.378 . S
C506 C507 1.378 . S
C506 H518 0.952 . S
C507 C506 1.378 . S
C507 H519 0.950 . S
C507 C538 1.383 . S
H508 C527 0.947 . S
H509 C528 0.946 . S
H510 C530 0.953 . S
H511 C531 0.945 . S
H512 C533 0.952 . S
H513 C534 0.949 . S
H514 C536 0.950 . S
H515 C537 0.948 . S
H516 C539 0.951 . S
H517 C504 0.947 . S
H518 C506 0.952 . S
H519 C507 0.950 . S
N520 C523 1.382 . S
N520 C525 1.363 . S
N521 C523 1.371 . S
N521 C524 1.372 . S
N522 C524 1.361 . S
N522 C525 1.377 . S
C523 N520 1.382 . S
C523 N521 1.371 . S
C523 C526 1.480 . S
C524 N521 1.372 . S
C524 N522 1.361 . S
C524 C532 1.457 . S
C525 N520 1.363 . S
C525 N522 1.377 . S
C525 C538 1.479 . S
C526 C523 1.480 . S
C526 C527 1.383 . S
C526 C531 1.385 . S
C527 H508 0.947 . S
C527 C526 1.383 . S
C527 C528 1.388 . S
C528 H509 0.946 . S
C528 C527 1.388 . S
C528 C529 1.384 . S
C529 C528 1.384 . S
C529 C530 1.377 . S
C530 H510 0.953 . S
C530 C529 1.377 . S
C530 C531 1.369 . S
C531 H511 0.945 . S
C531 C526 1.385 . S
C531 C530 1.369 . S
C532 C524 1.457 . S
C532 C533 1.372 . S
C532 C537 1.364 . S
C533 H512 0.952 . S
C533 C532 1.372 . S
C533 C534 1.389 . S
C534 H513 0.949 . S
C534 C533 1.389 . S
C534 C535 1.387 . S
C535 C534 1.387 . S
C535 C536 1.372 . S
C536 H514 0.950 . S
C536 C535 1.372 . S
C536 C537 1.379 . S
C537 H515 0.948 . S
C537 C532 1.364 . S
C537 C536 1.379 . S
C538 C507 1.383 . S
C538 C525 1.479 . S
C538 C539 1.398 . S
C539 C504 1.382 . S
C539 H516 0.951 . S
C539 C538 1.398 . S
C540 C541 1.345 1_556 S
C540 H553 0.960 . S
C540 C575 1.411 . S
C541 C540 1.345 1_554 S
C541 C542 1.378 . S
C542 C541 1.378 . S
C542 C543 1.378 . S
C542 H554 0.952 . S
C543 C542 1.378 . S
C543 H555 0.950 . S
C543 C574 1.383 1_554 S
H544 C563 0.947 . S
H545 C564 0.946 . S
H546 C566 0.953 . S
H547 C567 0.945 . S
H548 C569 0.952 . S
H549 C570 0.949 . S
H550 C572 0.950 . S
H551 C573 0.948 . S
H552 C575 0.951 . S
H553 C540 0.960 . S
H554 C542 0.952 . S
H555 C543 0.950 . S
N556 C559 1.382 . S
N556 C561 1.363 . S
N557 C559 1.371 . S
N557 C560 1.372 . S
N558 C560 1.361 . S
N558 C561 1.377 . S
C559 N556 1.382 . S
C559 N557 1.371 . S
C559 C562 1.480 . S
C560 N557 1.372 . S
C560 N558 1.361 . S
C560 C568 1.457 . S
C561 N556 1.363 . S
C561 N558 1.377 . S
C561 C574 1.479 . S
C562 C559 1.480 . S
C562 C563 1.383 . S
C562 C567 1.385 1_545 S
C563 H544 0.947 . S
C563 C562 1.383 . S
C563 C564 1.388 . S
C564 H545 0.946 . S
C564 C563 1.388 . S
C564 C565 1.384 1_545 S
C565 C564 1.384 1_565 S
C565 C566 1.377 . S
C566 H546 0.953 . S
C566 C565 1.377 . S
C566 C567 1.369 . S
C567 H547 0.945 . S
C567 C562 1.385 1_565 S
C567 C566 1.369 . S
C568 C560 1.457 . S
C568 C569 1.372 . S
C568 C573 1.364 . S
C569 H548 0.952 . S
C569 C568 1.372 . S
C569 C570 1.389 . S
C570 H549 0.949 . S
C570 C569 1.389 . S
C570 C571 1.387 . S
C571 C570 1.387 . S
C571 C572 1.372 . S
C572 H550 0.950 . S
C572 C571 1.372 . S
C572 C573 1.379 . S
C573 H551 0.948 . S
C573 C568 1.364 . S
C573 C572 1.379 . S
C574 C543 1.383 1_556 S
C574 C561 1.479 . S
C574 C575 1.398 . S
C575 C540 1.411 . S
C575 H552 0.951 . S
C575 C574 1.398 . S
Mg576 O577 2.039 . S
Mg576 O583 1.986 1_554 S
Mg576 O585 2.114 . S
Mg576 O586 2.251 . S
Mg576 O589 2.010 . S
O577 Mg576 2.039 . S
O577 C580 1.242 1_554 S
O578 Mg579 2.028 . S
O578 C580 1.248 . S
Mg579 O578 2.028 . S
Mg579 O584 2.032 . S
Mg579 O586 2.079 1_556 S
C580 O577 1.242 1_556 S
C580 O578 1.248 . S
C581 O582 1.264 . S
C581 O589 1.249 . S
O582 C581 1.264 . S
O583 Mg576 1.986 1_556 S
O583 C587 1.246 . S
O584 Mg579 2.032 . S
O584 C587 1.259 . S
O585 Mg576 2.114 . S
O585 C588 1.252 . S
O586 Mg576 2.251 . S
O586 Mg579 2.079 1_554 S
O586 C588 1.273 . S
C587 O583 1.246 . S
C587 O584 1.259 . S
C588 O585 1.252 . S
C588 O586 1.273 . S
O589 Mg576 2.010 . S
O589 C581 1.249 . S
Mg590 O591 2.028 . S
Mg590 O597 1.986 . S
Mg590 O599 2.114 . S
Mg590 O600 2.251 . S
Mg590 O603 2.010 . S
O591 Mg590 2.028 . S
O591 C594 1.250 . S
O592 Mg593 2.028 . S
O592 C594 1.248 . S
Mg593 O592 2.028 . S
Mg593 O598 2.032 . S
Mg593 O600 2.079 . S
C594 O591 1.250 . S
C594 O592 1.248 . S
C595 O596 1.264 . S
C595 O603 1.249 . S
O596 C595 1.264 . S
O597 Mg590 1.986 . S
O597 C601 1.246 . S
O598 Mg593 2.032 . S
O598 C601 1.259 . S
O599 Mg590 2.114 . S
O599 C602 1.252 . S
O600 Mg590 2.251 . S
O600 Mg593 2.079 . S
O600 C602 1.273 . S
C601 O597 1.246 . S
C601 O598 1.259 . S
C602 O599 1.252 . S
C602 O600 1.273 . S
O603 Mg590 2.010 . S
O603 C595 1.249 . S
Mg604 O605 2.028 . S
Mg604 O611 1.986 1_554 S
Mg604 O613 2.114 . S
Mg604 O614 2.251 . S
Mg604 O617 2.010 . S
O605 Mg604 2.028 . S
O605 C608 1.262 . S
O606 Mg607 2.031 . S
O606 C608 1.243 1_556 S
Mg607 O606 2.031 . S
Mg607 O612 2.032 . S
Mg607 O614 2.079 1_556 S
C608 O605 1.262 . S
C608 O606 1.243 1_554 S
C609 O610 1.264 . S
C609 O617 1.249 . S
O610 C609 1.264 . S
O611 Mg604 1.986 1_556 S
O611 C615 1.246 . S
O612 Mg607 2.032 . S
O612 C615 1.259 . S
O613 Mg604 2.114 . S
O613 C616 1.252 . S
O614 Mg604 2.251 . S
O614 Mg607 2.079 1_554 S
O614 C616 1.273 . S
C615 O611 1.246 . S
C615 O612 1.259 . S
C616 O613 1.252 . S
C616 O614 1.273 . S
O617 Mg604 2.010 . S
O617 C609 1.249 . S
Mg618 O619 2.028 . S
Mg618 O625 1.986 . S
Mg618 O627 2.114 . S
Mg618 O628 2.251 . S
Mg618 O631 2.010 . S
O619 Mg618 2.028 . S
O619 C622 1.250 1_545 S
O620 Mg621 2.028 . S
O620 C622 1.248 . S
Mg621 O620 2.028 . S
Mg621 O626 2.032 . S
Mg621 O628 2.079 1_565 S
C622 O619 1.250 1_565 S
C622 O620 1.248 . S
C623 O624 1.264 . S
C623 O631 1.249 . S
O624 C623 1.264 . S
O625 Mg618 1.986 . S
O625 C629 1.246 . S
O626 Mg621 2.032 . S
O626 C629 1.259 1_565 S
O627 Mg618 2.114 . S
O627 C630 1.252 . S
O628 Mg618 2.251 . S
O628 Mg621 2.079 1_545 S
O628 C630 1.273 . S
C629 O625 1.246 . S
C629 O626 1.259 1_545 S
C630 O627 1.252 . S
C630 O628 1.273 . S
O631 Mg618 2.010 . S
O631 C623 1.249 . S
Mg632 O633 2.028 . S
Mg632 O639 1.986 . S
Mg632 O641 2.114 . S
Mg632 O642 2.251 . S
Mg632 O645 2.010 . S
O633 Mg632 2.028 . S
O633 C636 1.250 . S
O634 Mg635 2.028 . S
O634 C636 1.248 . S
Mg635 O634 2.028 . S
Mg635 O640 2.032 . S
Mg635 O642 2.079 . S
C636 O633 1.250 . S
C636 O634 1.248 . S
C637 O638 1.264 . S
C637 O645 1.249 . S
O638 C637 1.264 . S
O639 Mg632 1.986 . S
O639 C643 1.246 . S
O640 Mg635 2.032 . S
O640 C643 1.259 . S
O641 Mg632 2.114 . S
O641 C644 1.252 . S
O642 Mg632 2.251 . S
O642 Mg635 2.079 . S
O642 C644 1.273 . S
C643 O639 1.246 . S
C643 O640 1.259 . S
C644 O641 1.252 . S
C644 O642 1.273 . S
O645 Mg632 2.010 . S
O645 C637 1.249 . S
Mg646 O647 2.028 . S
Mg646 O653 1.986 . S
Mg646 O655 2.114 . S
Mg646 O656 2.251 . S
Mg646 O659 2.010 . S
O647 Mg646 2.028 . S
O647 C650 1.250 . S
O648 Mg649 2.028 . S
O648 C650 1.248 . S
Mg649 O648 2.028 . S
Mg649 O654 2.032 . S
Mg649 O656 2.079 . S
C650 O647 1.250 . S
C650 O648 1.248 . S
C651 O652 1.264 . S
C651 O659 1.249 . S
O652 C651 1.264 . S
O653 Mg646 1.986 . S
O653 C657 1.246 . S
O654 Mg649 2.032 . S
O654 C657 1.259 . S
O655 Mg646 2.114 . S
O655 C658 1.252 . S
O656 Mg646 2.251 . S
O656 Mg649 2.079 . S
O656 C658 1.273 . S
C657 O653 1.246 . S
C657 O654 1.259 . S
C658 O655 1.252 . S
C658 O656 1.273 . S
O659 Mg646 2.010 . S
O659 C651 1.249 . S
Mg660 O661 2.028 . S
Mg660 O667 1.986 . S
Mg660 O669 2.114 . S
Mg660 O670 2.251 . S
Mg660 O673 2.010 . S
O661 Mg660 2.028 . S
O661 C664 1.250 . S
O662 Mg663 2.028 . S
O662 C664 1.248 . S
Mg663 O662 2.028 . S
Mg663 O668 2.032 . S
Mg663 O670 2.079 . S
C664 O661 1.250 . S
C664 O662 1.248 . S
C665 O666 1.264 . S
C665 O673 1.249 . S
O666 C665 1.264 . S
O667 Mg660 1.986 . S
O667 C671 1.246 . S
O668 Mg663 2.032 . S
O668 C671 1.259 . S
O669 Mg660 2.114 . S
O669 C672 1.252 . S
O670 Mg660 2.251 . S
O670 Mg663 2.079 . S
O670 C672 1.273 . S
C671 O667 1.246 . S
C671 O668 1.259 . S
C672 O669 1.252 . S
C672 O670 1.273 . S
O673 Mg660 2.010 . S
O673 C665 1.249 . S
Mg674 O675 2.028 1_545 S
Mg674 O681 1.986 1_545 S
Mg674 O683 2.114 . S
Mg674 O684 2.251 . S
Mg674 O687 2.010 . S
O675 Mg674 2.028 1_565 S
O675 C678 1.250 . S
O676 Mg677 2.028 . S
O676 C678 1.248 . S
Mg677 O676 2.028 . S
Mg677 O682 2.032 . S
Mg677 O684 2.079 1_565 S
C678 O675 1.250 . S
C678 O676 1.248 . S
C679 O680 1.264 . S
C679 O687 1.249 . S
O680 C679 1.264 . S
O681 Mg674 1.986 1_565 S
O681 C685 1.246 . S
O682 Mg677 2.032 . S
O682 C685 1.259 . S
O683 Mg674 2.114 . S
O683 C686 1.252 . S
O684 Mg674 2.251 . S
O684 Mg677 2.079 1_545 S
O684 C686 1.273 . S
C685 O681 1.246 . S
C685 O682 1.259 . S
C686 O683 1.252 . S
C686 O684 1.273 . S
O687 Mg674 2.010 . S
O687 C679 1.249 . S
Mg688 O689 2.028 . S
Mg688 O695 1.986 . S
Mg688 O697 2.114 . S
Mg688 O698 2.251 . S
Mg688 O701 2.010 . S
O689 Mg688 2.028 . S
O689 C692 1.250 1_455 S
O690 Mg691 2.028 . S
O690 C692 1.248 . S
Mg691 O690 2.028 . S
Mg691 O696 2.032 . S
Mg691 O698 2.079 1_655 S
C692 O689 1.250 1_655 S
C692 O690 1.248 . S
C693 O694 1.264 . S
C693 O701 1.249 . S
O694 C693 1.264 . S
O695 Mg688 1.986 . S
O695 C699 1.246 . S
O696 Mg691 2.032 . S
O696 C699 1.259 1_655 S
O697 Mg688 2.114 . S
O697 C700 1.252 . S
O698 Mg688 2.251 . S
O698 Mg691 2.079 1_455 S
O698 C700 1.273 . S
C699 O695 1.246 . S
C699 O696 1.259 1_455 S
C700 O697 1.252 . S
C700 O698 1.273 . S
O701 Mg688 2.010 . S
O701 C693 1.249 . S
Mg702 O703 2.028 . S
Mg702 O709 1.986 . S
Mg702 O711 2.114 . S
Mg702 O712 2.251 . S
Mg702 O715 2.010 . S
O703 Mg702 2.028 . S
O703 C706 1.250 . S
O704 Mg705 2.028 . S
O704 C706 1.248 . S
Mg705 O704 2.028 . S
Mg705 O710 2.032 . S
Mg705 O712 2.079 . S
C706 O703 1.250 . S
C706 O704 1.248 . S
C707 O708 1.264 . S
C707 O715 1.249 . S
O708 C707 1.264 . S
O709 Mg702 1.986 . S
O709 C713 1.246 . S
O710 Mg705 2.032 . S
O710 C713 1.259 . S
O711 Mg702 2.114 . S
O711 C714 1.252 . S
O712 Mg702 2.251 . S
O712 Mg705 2.079 . S
O712 C714 1.273 . S
C713 O709 1.246 . S
C713 O710 1.259 . S
C714 O711 1.252 . S
C714 O712 1.273 . S
O715 Mg702 2.010 . S
O715 C707 1.249 . S
Mg716 O717 2.028 1_655 S
Mg716 O723 2.001 . S
Mg716 O725 2.114 . S
Mg716 O726 2.251 1_655 S
Mg716 O729 2.010 . S
O717 Mg716 2.028 1_455 S
O717 C720 1.250 . S
O718 Mg719 2.028 . S
O718 C720 1.248 . S
Mg719 O718 2.028 . S
Mg719 O724 2.032 . S
Mg719 O726 2.079 . S
C720 O717 1.250 . S
C720 O718 1.248 . S
C721 O722 1.264 . S
C721 O729 1.249 . S
O722 C721 1.264 . S
O723 Mg716 2.001 . S
O723 C727 1.206 1_655 S
O724 Mg719 2.032 . S
O724 C727 1.259 . S
O725 Mg716 2.114 . S
O725 C728 1.252 . S
O726 Mg716 2.251 1_455 S
O726 Mg719 2.079 . S
O726 C728 1.273 1_455 S
C727 O723 1.206 1_455 S
C727 O724 1.259 . S
C728 O725 1.252 . S
C728 O726 1.273 1_655 S
O729 Mg716 2.010 . S
O729 C721 1.249 . S
Mg730 O731 2.028 . S
Mg730 O737 1.986 . S
Mg730 O739 2.114 . S
Mg730 O740 2.251 . S
Mg730 O743 2.010 . S
O731 Mg730 2.028 . S
O731 C734 1.250 . S
O732 Mg733 2.028 . S
O732 C734 1.248 . S
Mg733 O732 2.028 . S
Mg733 O738 2.032 . S
Mg733 O740 2.079 . S
C734 O731 1.250 . S
C734 O732 1.248 . S
C735 O736 1.264 . S
C735 O743 1.249 . S
O736 C735 1.264 . S
O737 Mg730 1.986 . S
O737 C741 1.246 . S
O738 Mg733 2.032 . S
O738 C741 1.259 . S
O739 Mg730 2.114 . S
O739 C742 1.252 . S
O740 Mg730 2.251 . S
O740 Mg733 2.079 . S
O740 C742 1.273 . S
C741 O737 1.246 . S
C741 O738 1.259 . S
C742 O739 1.252 . S
C742 O740 1.273 . S
O743 Mg730 2.010 . S
O743 C735 1.249 . S
C744 C745 1.349 . S
C744 C746 1.327 . S
C744 H769 0.950 . S
C745 C744 1.349 . S
C745 C761 1.349 . S
C746 C744 1.327 . S
C746 C765 1.429 . S
C746 H770 0.950 . S
C747 C764 1.574 . S
C747 C766 1.368 . S
C747 H771 0.949 . S
H748 C752 0.949 . S
C749 C750 1.349 . S
C749 C751 1.327 . S
C749 H772 0.950 . S
C750 C749 1.349 . S
C750 C762 1.349 . S
C751 C749 1.327 . S
C751 C767 1.429 . S
C751 H773 0.950 . S
C752 H748 0.949 . S
C752 C760 1.574 . S
C752 C768 1.368 . S
H753 C761 0.950 . S
H754 C759 0.950 . S
H755 C760 0.949 . S
H756 C762 0.950 . S
H757 C763 0.950 . S
H758 C764 0.949 . S
C759 H754 0.950 . S
C759 C761 1.327 . S
C759 C765 1.429 . S
C760 C752 1.574 . S
C760 H755 0.949 . S
C760 C766 1.368 . S
C761 C745 1.349 . S
C761 H753 0.950 . S
C761 C759 1.327 . S
C762 C750 1.349 . S
C762 H756 0.950 . S
C762 C763 1.327 . S
C763 H757 0.950 . S
C763 C762 1.327 . S
C763 C767 1.429 . S
C764 C747 1.574 . S
C764 H758 0.949 . S
C764 C768 1.368 . S
C765 C746 1.429 . S
C765 C759 1.429 . S
C765 C766 1.523 . S
C766 C747 1.368 . S
C766 C760 1.368 . S
C766 C765 1.523 . S
C767 C751 1.429 . S
C767 C763 1.429 . S
C767 C768 1.523 . S
C768 C752 1.368 . S
C768 C764 1.368 . S
C768 C767 1.523 . S
H769 C744 0.950 . S
H770 C746 0.950 . S
H771 C747 0.949 . S
H772 C749 0.950 . S
H773 C751 0.950 . S
C774 C775 1.349 . S
C774 C776 1.327 . S
C774 H799 0.950 . S
C775 C774 1.349 . S
C775 C791 1.349 . S
C776 C774 1.327 . S
C776 C795 1.429 . S
C776 H800 0.950 . S
C777 C794 1.574 . S
C777 C796 1.368 . S
C777 H801 0.949 . S
H778 C782 0.949 . S
C779 C780 1.349 . S
C779 C781 1.327 . S
C779 H802 0.950 . S
C780 C779 1.349 . S
C780 C792 1.349 . S
C781 C779 1.327 . S
C781 C797 1.429 . S
C781 H803 0.950 . S
C782 H778 0.949 . S
C782 C790 1.574 . S
C782 C798 1.368 . S
H783 C791 0.950 . S
H784 C789 0.950 . S
H785 C790 0.949 . S
H786 C792 0.950 . S
H787 C793 0.950 . S
H788 C794 0.949 . S
C789 H784 0.950 . S
C789 C791 1.327 . S
C789 C795 1.429 . S
C790 C782 1.574 . S
C790 H785 0.949 . S
C790 C796 1.368 . S
C791 C775 1.349 . S
C791 H783 0.950 . S
C791 C789 1.327 . S
C792 C780 1.349 . S
C792 H786 0.950 . S
C792 C793 1.327 . S
C793 H787 0.950 . S
C793 C792 1.327 . S
C793 C797 1.429 . S
C794 C777 1.574 . S
C794 H788 0.949 . S
C794 C798 1.368 . S
C795 C776 1.429 . S
C795 C789 1.429 . S
C795 C796 1.523 . S
C796 C777 1.368 . S
C796 C790 1.368 . S
C796 C795 1.523 . S
C797 C781 1.429 . S
C797 C793 1.429 . S
C797 C798 1.523 . S
C798 C782 1.368 . S
C798 C794 1.368 . S
C798 C797 1.523 . S
H799 C774 0.950 . S
H800 C776 0.950 . S
H801 C777 0.949 . S
H802 C779 0.950 . S
H803 C781 0.950 . S
C804 C805 1.349 . S
C804 C806 1.327 . S
C804 H829 0.950 . S
C805 C804 1.349 . S
C805 C821 1.349 . S
C806 C804 1.327 . S
C806 C825 1.429 . S
C806 H830 0.950 . S
C807 C824 1.574 . S
C807 C826 1.368 . S
C807 H831 0.949 . S
H808 C812 0.949 . S
C809 C810 1.349 . S
C809 C811 1.327 . S
C809 H832 0.950 . S
C810 C809 1.349 . S
C810 C822 1.349 . S
C811 C809 1.327 . S
C811 C827 1.429 . S
C811 H833 0.950 . S
C812 H808 0.949 . S
C812 C820 1.574 . S
C812 C828 1.368 . S
H813 C821 0.950 . S
H814 C819 0.950 . S
H815 C820 0.949 . S
H816 C822 0.950 . S
H817 C823 0.950 . S
H818 C824 0.949 . S
C819 H814 0.950 . S
C819 C821 1.327 . S
C819 C825 1.429 . S
C820 C812 1.574 . S
C820 H815 0.949 . S
C820 C826 1.368 . S
C821 C805 1.349 . S
C821 H813 0.950 . S
C821 C819 1.327 . S
C822 C810 1.349 . S
C822 H816 0.950 . S
C822 C823 1.327 . S
C823 H817 0.950 . S
C823 C822 1.327 . S
C823 C827 1.429 . S
C824 C807 1.574 . S
C824 H818 0.949 . S
C824 C828 1.368 . S
C825 C806 1.429 . S
C825 C819 1.429 . S
C825 C826 1.523 . S
C826 C807 1.368 . S
C826 C820 1.368 . S
C826 C825 1.523 . S
C827 C811 1.429 . S
C827 C823 1.429 . S
C827 C828 1.523 . S
C828 C812 1.368 . S
C828 C824 1.368 . S
C828 C827 1.523 . S
H829 C804 0.950 . S
H830 C806 0.950 . S
H831 C807 0.949 . S
H832 C809 0.950 . S
H833 C811 0.950 . S
C834 C835 1.290 1_545 S
C834 C836 1.352 . S
C834 H859 0.988 1_655 S
C835 C834 1.290 1_565 S
C835 C851 1.349 . S
C836 C834 1.352 . S
C836 C855 1.429 1_545 S
C836 H860 0.950 . S
C837 C854 1.574 . S
C837 C856 1.368 . S
C837 H861 0.949 . S
H838 C842 0.949 . S
C839 C840 1.349 1_565 S
C839 C841 1.327 . S
C839 H862 0.950 . S
C840 C839 1.349 1_545 S
C840 C852 1.349 . S
C841 C839 1.327 . S
C841 C857 1.429 1_565 S
C841 H863 0.950 . S
C842 H838 0.949 . S
C842 C850 1.574 . S
C842 C858 1.369 1_545 S
H843 C851 0.950 . S
H844 C849 0.950 . S
H845 C850 0.949 . S
H846 C852 0.950 . S
H847 C853 0.950 . S
H848 C854 0.949 . S
C849 H844 0.950 . S
C849 C851 1.327 . S
C849 C855 1.429 . S
C850 C842 1.574 . S
C850 H845 0.949 . S
C850 C856 1.368 1_545 S
C851 C835 1.349 . S
C851 H843 0.950 . S
C851 C849 1.327 . S
C852 C840 1.349 . S
C852 H846 0.950 . S
C852 C853 1.327 . S
C853 H847 0.950 . S
C853 C852 1.327 . S
C853 C857 1.429 . S
C854 C837 1.574 . S
C854 H848 0.949 . S
C854 C858 1.367 . S
C855 C836 1.429 1_565 S
C855 C849 1.429 . S
C855 C856 1.523 . S
C856 C837 1.368 . S
C856 C850 1.368 1_565 S
C856 C855 1.523 . S
C857 C841 1.429 1_545 S
C857 C853 1.429 . S
C857 C858 1.523 1_545 S
C858 C842 1.369 1_565 S
C858 C854 1.367 . S
C858 C857 1.523 1_565 S
H859 C834 0.988 1_455 S
H860 C836 0.950 . S
H861 C837 0.949 . S
H862 C839 0.950 . S
H863 C841 0.950 . S
C864 C865 1.349 . S
C864 C866 1.327 . S
C864 H889 0.950 . S
C865 C864 1.349 . S
C865 C881 1.349 . S
C866 C864 1.327 . S
C866 C885 1.429 . S
C866 H890 0.950 . S
C867 C884 1.574 . S
C867 C886 1.368 . S
C867 H891 0.949 . S
H868 C872 0.949 . S
C869 C870 1.349 . S
C869 C871 1.327 . S
C869 H892 0.950 . S
C870 C869 1.349 . S
C870 C882 1.349 . S
C871 C869 1.327 . S
C871 C887 1.429 . S
C871 H893 0.950 . S
C872 H868 0.949 . S
C872 C880 1.574 . S
C872 C888 1.368 . S
H873 C881 0.950 . S
H874 C879 0.950 . S
H875 C880 0.949 . S
H876 C882 0.950 . S
H877 C883 0.950 . S
H878 C884 0.949 . S
C879 H874 0.950 . S
C879 C881 1.327 . S
C879 C885 1.429 . S
C880 C872 1.574 . S
C880 H875 0.949 . S
C880 C886 1.368 . S
C881 C865 1.349 . S
C881 H873 0.950 . S
C881 C879 1.327 . S
C882 C870 1.349 . S
C882 H876 0.950 . S
C882 C883 1.327 . S
C883 H877 0.950 . S
C883 C882 1.327 . S
C883 C887 1.429 . S
C884 C867 1.574 . S
C884 H878 0.949 . S
C884 C888 1.368 . S
C885 C866 1.429 . S
C885 C879 1.429 . S
C885 C886 1.523 . S
C886 C867 1.368 . S
C886 C880 1.368 . S
C886 C885 1.523 . S
C887 C871 1.429 . S
C887 C883 1.429 . S
C887 C888 1.523 . S
C888 C872 1.368 . S
C888 C884 1.368 . S
C888 C887 1.523 . S
H889 C864 0.950 . S
H890 C866 0.950 . S
H891 C867 0.949 . S
H892 C869 0.950 . S
H893 C871 0.950 . S
C894 C895 1.349 . S
C894 C896 1.327 . S
C894 H919 0.950 . S
C895 C894 1.349 . S
C895 C911 1.349 . S
C896 C894 1.327 . S
C896 C915 1.429 . S
C896 H920 0.950 . S
C897 C914 1.574 . S
C897 C916 1.368 . S
C897 H921 0.949 . S
H898 C902 0.949 . S
C899 C900 1.349 . S
C899 C901 1.327 . S
C899 H922 0.950 . S
C900 C899 1.349 . S
C900 C912 1.349 . S
C901 C899 1.327 . S
C901 C917 1.429 . S
C901 H923 0.950 . S
C902 H898 0.949 . S
C902 C910 1.574 . S
C902 C918 1.368 . S
H903 C911 0.950 . S
H904 C909 0.950 . S
H905 C910 0.949 . S
H906 C912 0.950 . S
H907 C913 0.950 . S
H908 C914 0.949 . S
C909 H904 0.950 . S
C909 C911 1.327 . S
C909 C915 1.429 . S
C910 C902 1.574 . S
C910 H905 0.949 . S
C910 C916 1.368 . S
C911 C895 1.349 . S
C911 H903 0.950 . S
C911 C909 1.327 . S
C912 C900 1.349 . S
C912 H906 0.950 . S
C912 C913 1.327 . S
C913 H907 0.950 . S
C913 C912 1.327 . S
C913 C917 1.429 . S
C914 C897 1.574 . S
C914 H908 0.949 . S
C914 C918 1.368 . S
C915 C896 1.429 . S
C915 C909 1.429 . S
C915 C916 1.523 . S
C916 C897 1.368 . S
C916 C910 1.368 . S
C916 C915 1.523 . S
C917 C901 1.429 . S
C917 C913 1.429 . S
C917 C918 1.523 . S
C918 C902 1.368 . S
C918 C914 1.368 . S
C918 C917 1.523 . S
H919 C894 0.950 . S
H920 C896 0.950 . S
H921 C897 0.949 . S
H922 C899 0.950 . S
H923 C901 0.950 . S
C924 C925 1.349 . S
C924 C926 1.327 . S
C924 H949 0.950 . S
C925 C924 1.349 . S
C925 C941 1.349 . S
C926 C924 1.327 . S
C926 C945 1.429 . S
C926 H950 0.950 . S
C927 C944 1.574 . S
C927 C946 1.368 . S
C927 H951 0.949 . S
H928 C932 0.949 . S
C929 C930 1.349 . S
C929 C931 1.327 . S
C929 H952 0.950 . S
C930 C929 1.349 . S
C930 C942 1.349 . S
C931 C929 1.327 . S
C931 C947 1.429 . S
C931 H953 0.950 . S
C932 H928 0.949 . S
C932 C940 1.574 . S
C932 C948 1.368 . S
H933 C941 0.950 . S
H934 C939 0.950 . S
H935 C940 0.949 . S
H936 C942 0.950 . S
H937 C943 0.950 . S
H938 C944 0.949 . S
C939 H934 0.950 . S
C939 C941 1.327 . S
C939 C945 1.429 . S
C940 C932 1.574 . S
C940 H935 0.949 . S
C940 C946 1.368 . S
C941 C925 1.349 . S
C941 H933 0.950 . S
C941 C939 1.327 . S
C942 C930 1.349 . S
C942 H936 0.950 . S
C942 C943 1.327 . S
C943 H937 0.950 . S
C943 C942 1.327 . S
C943 C947 1.429 . S
C944 C927 1.574 . S
C944 H938 0.949 . S
C944 C948 1.368 . S
C945 C926 1.429 . S
C945 C939 1.429 . S
C945 C946 1.523 . S
C946 C927 1.368 . S
C946 C940 1.368 . S
C946 C945 1.523 . S
C947 C931 1.429 . S
C947 C943 1.429 . S
C947 C948 1.523 . S
C948 C932 1.368 . S
C948 C944 1.368 . S
C948 C947 1.523 . S
H949 C924 0.950 . S
H950 C926 0.950 . S
H951 C927 0.949 . S
H952 C929 0.950 . S
H953 C931 0.950 . S
C954 C955 1.349 . S
C954 C956 1.327 . S
C954 H979 0.950 . S
C955 C954 1.349 . S
C955 C971 1.349 . S
C956 C954 1.327 . S
C956 C975 1.429 . S
C956 H980 0.950 . S
C957 C974 1.574 . S
C957 C976 1.368 . S
C957 H981 0.949 . S
H958 C962 0.949 . S
C959 C960 1.349 1_545 S
C959 C961 1.325 1_545 S
C959 H982 0.950 . S
C960 C959 1.349 1_565 S
C960 C972 1.349 . S
C961 C959 1.325 1_565 S
C961 C977 1.442 . S
C961 H983 0.938 1_565 S
C962 H958 0.949 . S
C962 C970 1.574 . S
C962 C978 1.368 . S
H963 C971 0.950 . S
H964 C969 0.950 . S
H965 C970 0.949 . S
H966 C972 0.950 . S
H967 C973 0.950 . S
H968 C974 0.949 1_545 S
C969 H964 0.950 . S
C969 C971 1.327 . S
C969 C975 1.429 . S
C970 C962 1.574 . S
C970 H965 0.949 . S
C970 C976 1.368 . S
C971 C955 1.349 . S
C971 H963 0.950 . S
C971 C969 1.327 . S
C972 C960 1.349 . S
C972 H966 0.950 . S
C972 C973 1.327 . S
C973 H967 0.950 . S
C973 C972 1.327 . S
C973 C977 1.429 . S
C974 C957 1.574 . S
C974 H968 0.949 1_565 S
C974 C978 1.368 . S
C975 C956 1.429 . S
C975 C969 1.429 . S
C975 C976 1.523 . S
C976 C957 1.368 . S
C976 C970 1.368 . S
C976 C975 1.523 . S
C977 C961 1.442 . S
C977 C973 1.429 . S
C977 C978 1.523 . S
C978 C962 1.368 . S
C978 C974 1.368 . S
C978 C977 1.523 . S
H979 C954 0.950 . S
H980 C956 0.950 . S
H981 C957 0.949 . S
H982 C959 0.950 . S
H983 C961 0.938 1_545 S
C984 C985 1.349 . S
C984 C986 1.327 . S
C984 H1009 0.950 . S
C985 C984 1.349 . S
C985 C1001 1.349 . S
C986 C984 1.327 . S
C986 C1005 1.429 . S
C986 H1010 0.950 . S
C987 C1004 1.574 . S
C987 C1006 1.368 . S
C987 H1011 0.949 . S
H988 C992 0.949 . S
C989 C990 1.349 . S
C989 C991 1.327 . S
C989 H1012 0.950 . S
C990 C989 1.349 . S
C990 C1002 1.349 . S
C991 C989 1.327 . S
C991 C1007 1.429 . S
C991 H1013 0.950 . S
C992 H988 0.949 . S
C992 C1000 1.574 . S
C992 C1008 1.368 . S
H993 C1001 0.950 . S
H994 C999 0.950 . S
H995 C1000 0.949 . S
H996 C1002 0.950 . S
H997 C1003 0.950 . S
H998 C1004 0.949 . S
C999 H994 0.950 . S
C999 C1001 1.327 . S
C999 C1005 1.429 . S
C1000 C992 1.574 . S
C1000 H995 0.949 . S
C1000 C1006 1.368 . S
C1001 C985 1.349 . S
C1001 H993 0.950 . S
C1001 C999 1.327 . S
C1002 C990 1.349 . S
C1002 H996 0.950 . S
C1002 C1003 1.327 . S
C1003 H997 0.950 . S
C1003 C1002 1.327 . S
C1003 C1007 1.429 . S
C1004 C987 1.574 . S
C1004 H998 0.949 . S
C1004 C1008 1.368 . S
C1005 C986 1.429 . S
C1005 C999 1.429 . S
C1005 C1006 1.523 . S
C1006 C987 1.368 . S
C1006 C1000 1.368 . S
C1006 C1005 1.523 . S
C1007 C991 1.429 . S
C1007 C1003 1.429 . S
C1007 C1008 1.523 . S
C1008 C992 1.368 . S
C1008 C1004 1.368 . S
C1008 C1007 1.523 . S
H1009 C984 0.950 . S
H1010 C986 0.950 . S
H1011 C987 0.949 . S
H1012 C989 0.950 . S
H1013 C991 0.950 . S
C1014 C1015 1.349 . S
C1014 C1016 1.327 . S
C1014 H1039 0.950 . S
C1015 C1014 1.349 . S
C1015 C1031 1.349 . S
C1016 C1014 1.327 . S
C1016 C1035 1.429 . S
C1016 H1040 0.950 . S
C1017 C1034 1.574 . S
C1017 C1036 1.368 . S
C1017 H1041 0.949 . S
H1018 C1022 0.949 . S
C1019 C1020 1.349 . S
C1019 C1021 1.327 . S
C1019 H1042 0.950 . S
C1020 C1019 1.349 . S
C1020 C1032 1.349 . S
C1021 C1019 1.327 . S
C1021 C1037 1.429 . S
C1021 H1043 0.950 . S
C1022 H1018 0.949 . S
C1022 C1030 1.574 . S
C1022 C1038 1.368 . S
H1023 C1031 0.950 . S
H1024 C1029 0.950 . S
H1025 C1030 0.949 . S
H1026 C1032 0.950 . S
H1027 C1033 0.950 . S
H1028 C1034 0.949 . S
C1029 H1024 0.950 . S
C1029 C1031 1.327 . S
C1029 C1035 1.429 . S
C1030 C1022 1.574 . S
C1030 H1025 0.949 . S
C1030 C1036 1.368 . S
C1031 C1015 1.349 . S
C1031 H1023 0.950 . S
C1031 C1029 1.327 . S
C1032 C1020 1.349 . S
C1032 H1026 0.950 . S
C1032 C1033 1.327 . S
C1033 H1027 0.950 . S
C1033 C1032 1.327 . S
C1033 C1037 1.429 . S
C1034 C1017 1.574 . S
C1034 H1028 0.949 . S
C1034 C1038 1.368 . S
C1035 C1016 1.429 . S
C1035 C1029 1.429 . S
C1035 C1036 1.523 . S
C1036 C1017 1.368 . S
C1036 C1030 1.368 . S
C1036 C1035 1.523 . S
C1037 C1021 1.429 . S
C1037 C1033 1.429 . S
C1037 C1038 1.523 . S
C1038 C1022 1.368 . S
C1038 C1034 1.368 . S
C1038 C1037 1.523 . S
H1039 C1014 0.950 . S
H1040 C1016 0.950 . S
H1041 C1017 0.949 . S
H1042 C1019 0.950 . S
H1043 C1021 0.950 . S
C1044 C1045 1.349 . S
C1044 C1046 1.327 . S
C1044 H1069 0.950 . S
C1045 C1044 1.349 . S
C1045 C1061 1.349 . S
C1046 C1044 1.327 . S
C1046 C1065 1.429 . S
C1046 H1070 0.950 . S
C1047 C1064 1.574 . S
C1047 C1066 1.368 . S
C1047 H1071 0.949 . S
H1048 C1052 0.949 . S
C1049 C1050 1.349 . S
C1049 C1051 1.327 . S
C1049 H1072 0.950 . S
C1050 C1049 1.349 . S
C1050 C1062 1.349 . S
C1051 C1049 1.327 . S
C1051 C1067 1.429 . S
C1051 H1073 0.950 . S
C1052 H1048 0.949 . S
C1052 C1060 1.574 . S
C1052 C1068 1.368 . S
H1053 C1061 0.950 . S
H1054 C1059 0.950 . S
H1055 C1060 0.949 . S
H1056 C1062 0.950 . S
H1057 C1063 0.950 . S
H1058 C1064 0.949 . S
C1059 H1054 0.950 . S
C1059 C1061 1.327 . S
C1059 C1065 1.429 . S
C1060 C1052 1.574 . S
C1060 H1055 0.949 . S
C1060 C1066 1.368 . S
C1061 C1045 1.349 . S
C1061 H1053 0.950 . S
C1061 C1059 1.327 . S
C1062 C1050 1.349 . S
C1062 H1056 0.950 . S
C1062 C1063 1.327 . S
C1063 H1057 0.950 . S
C1063 C1062 1.327 . S
C1063 C1067 1.429 . S
C1064 C1047 1.574 . S
C1064 H1058 0.949 . S
C1064 C1068 1.368 . S
C1065 C1046 1.429 . S
C1065 C1059 1.429 . S
C1065 C1066 1.523 . S
C1066 C1047 1.368 . S
C1066 C1060 1.368 . S
C1066 C1065 1.523 . S
C1067 C1051 1.429 . S
C1067 C1063 1.429 . S
C1067 C1068 1.523 . S
C1068 C1052 1.368 . S
C1068 C1064 1.368 . S
C1068 C1067 1.523 . S
H1069 C1044 0.950 . S
H1070 C1046 0.950 . S
H1071 C1047 0.949 . S
H1072 C1049 0.950 . S
H1073 C1051 0.950 . S
C1074 C1075 1.349 . S
C1074 C1076 1.327 . S
C1074 H1099 0.950 . S
C1075 C1074 1.349 . S
C1075 C1091 1.349 . S
C1076 C1074 1.327 . S
C1076 C1095 1.429 . S
C1076 H1100 0.950 . S
C1077 C1094 1.574 . S
C1077 C1096 1.368 . S
C1077 H1101 0.949 . S
H1078 C1082 0.949 . S
C1079 C1080 1.349 . S
C1079 C1081 1.327 . S
C1079 H1102 0.950 . S
C1080 C1079 1.349 . S
C1080 C1092 1.349 . S
C1081 C1079 1.327 . S
C1081 C1097 1.429 . S
C1081 H1103 0.950 . S
C1082 H1078 0.949 . S
C1082 C1090 1.574 . S
C1082 C1098 1.368 . S
H1083 C1091 0.950 . S
H1084 C1089 0.950 . S
H1085 C1090 0.949 . S
H1086 C1092 0.950 . S
H1087 C1093 0.950 . S
H1088 C1094 0.949 . S
C1089 H1084 0.950 . S
C1089 C1091 1.327 . S
C1089 C1095 1.429 . S
C1090 C1082 1.574 . S
C1090 H1085 0.949 . S
C1090 C1096 1.368 . S
C1091 C1075 1.349 . S
C1091 H1083 0.950 . S
C1091 C1089 1.327 . S
C1092 C1080 1.349 . S
C1092 H1086 0.950 . S
C1092 C1093 1.327 . S
C1093 H1087 0.950 . S
C1093 C1092 1.327 . S
C1093 C1097 1.429 . S
C1094 C1077 1.574 . S
C1094 H1088 0.949 . S
C1094 C1098 1.368 . S
C1095 C1076 1.429 . S
C1095 C1089 1.429 . S
C1095 C1096 1.523 . S
C1096 C1077 1.368 . S
C1096 C1090 1.368 . S
C1096 C1095 1.523 . S
C1097 C1081 1.429 . S
C1097 C1093 1.429 . S
C1097 C1098 1.523 . S
C1098 C1082 1.368 . S
C1098 C1094 1.368 . S
C1098 C1097 1.523 . S
H1099 C1074 0.950 . S
H1100 C1076 0.950 . S
H1101 C1077 0.949 . S
H1102 C1079 0.950 . S
H1103 C1081 0.950 . S
C1104 C1105 1.349 . S
C1104 C1106 1.327 . S
C1104 H1129 0.950 . S
C1105 C1104 1.349 . S
C1105 C1121 1.349 . S
C1106 C1104 1.327 . S
C1106 C1125 1.429 . S
C1106 H1130 0.950 . S
C1107 C1124 1.574 . S
C1107 C1126 1.368 . S
C1107 H1131 0.949 . S
H1108 C1112 0.949 . S
C1109 C1110 1.349 . S
C1109 C1111 1.327 . S
C1109 H1132 0.950 . S
C1110 C1109 1.349 . S
C1110 C1122 1.349 . S
C1111 C1109 1.327 . S
C1111 C1127 1.429 . S
C1111 H1133 0.950 . S
C1112 H1108 0.949 . S
C1112 C1120 1.574 . S
C1112 C1128 1.368 . S
H1113 C1121 0.950 . S
H1114 C1119 0.950 . S
H1115 C1120 0.949 . S
H1116 C1122 0.950 . S
H1117 C1123 0.950 . S
H1118 C1124 0.949 . S
C1119 H1114 0.950 . S
C1119 C1121 1.327 . S
C1119 C1125 1.429 . S
C1120 C1112 1.574 . S
C1120 H1115 0.949 . S
C1120 C1126 1.368 . S
C1121 C1105 1.349 . S
C1121 H1113 0.950 . S
C1121 C1119 1.327 . S
C1122 C1110 1.349 . S
C1122 H1116 0.950 . S
C1122 C1123 1.327 . S
C1123 H1117 0.950 . S
C1123 C1122 1.327 . S
C1123 C1127 1.429 . S
C1124 C1107 1.574 . S
C1124 H1118 0.949 . S
C1124 C1128 1.368 . S
C1125 C1106 1.429 . S
C1125 C1119 1.429 . S
C1125 C1126 1.523 . S
C1126 C1107 1.368 . S
C1126 C1120 1.368 . S
C1126 C1125 1.523 . S
C1127 C1111 1.429 . S
C1127 C1123 1.429 . S
C1127 C1128 1.523 . S
C1128 C1112 1.368 . S
C1128 C1124 1.368 . S
C1128 C1127 1.523 . S
H1129 C1104 0.950 . S
H1130 C1106 0.950 . S
H1131 C1107 0.949 . S
H1132 C1109 0.950 . S
H1133 C1111 0.950 . S
C1134 C1135 1.349 . S
C1134 C1136 1.327 . S
C1134 H1159 0.950 . S
C1135 C1134 1.349 . S
C1135 C1151 1.349 . S
C1136 C1134 1.327 . S
C1136 C1155 1.429 . S
C1136 H1160 0.950 . S
C1137 C1154 1.574 . S
C1137 C1156 1.368 . S
C1137 H1161 0.949 . S
H1138 C1142 0.949 . S
C1139 C1140 1.349 . S
C1139 C1141 1.327 . S
C1139 H1162 0.951 . S
C1140 C1139 1.349 . S
C1140 C1152 1.349 . S
C1141 C1139 1.327 . S
C1141 C1157 1.429 . S
C1141 H1163 0.950 . S
C1142 H1138 0.949 . S
C1142 C1150 1.574 . S
C1142 C1158 1.368 . S
H1143 C1151 0.950 . S
H1144 C1149 0.950 . S
H1145 C1150 0.949 . S
H1146 C1152 0.950 . S
H1147 C1153 0.950 . S
H1148 C1154 0.949 . S
C1149 H1144 0.950 . S
C1149 C1151 1.327 . S
C1149 C1155 1.429 . S
C1150 C1142 1.574 . S
C1150 H1145 0.949 . S
C1150 C1156 1.368 . S
C1151 C1135 1.349 . S
C1151 H1143 0.950 . S
C1151 C1149 1.327 . S
C1152 C1140 1.349 . S
C1152 H1146 0.950 . S
C1152 C1153 1.327 . S
C1153 H1147 0.950 . S
C1153 C1152 1.327 . S
C1153 C1157 1.429 . S
C1154 C1137 1.574 . S
C1154 H1148 0.949 . S
C1154 C1158 1.368 . S
C1155 C1136 1.429 . S
C1155 C1149 1.429 . S
C1155 C1156 1.523 . S
C1156 C1137 1.368 . S
C1156 C1150 1.368 . S
C1156 C1155 1.523 . S
C1157 C1141 1.429 . S
C1157 C1153 1.429 . S
C1157 C1158 1.523 . S
C1158 C1142 1.368 . S
C1158 C1154 1.368 . S
C1158 C1157 1.523 . S
H1159 C1134 0.950 . S
H1160 C1136 0.950 . S
H1161 C1137 0.949 . S
H1162 C1139 0.951 . S
H1163 C1141 0.950 . S
C1164 C1165 1.349 . S
C1164 C1166 1.327 . S
C1164 H1189 0.950 . S
C1165 C1164 1.349 . S
C1165 C1181 1.349 . S
C1166 C1164 1.327 . S
C1166 C1185 1.429 . S
C1166 H1190 0.950 . S
C1167 C1184 1.574 . S
C1167 C1186 1.368 . S
C1167 H1191 0.949 . S
H1168 C1172 0.949 . S
C1169 C1170 1.349 . S
C1169 C1171 1.327 . S
C1169 H1192 0.950 . S
C1170 C1169 1.349 . S
C1170 C1182 1.349 . S
C1171 C1169 1.327 . S
C1171 C1187 1.429 . S
C1171 H1193 0.950 . S
C1172 H1168 0.949 . S
C1172 C1180 1.574 . S
C1172 C1188 1.368 . S
H1173 C1181 0.950 . S
H1174 C1179 0.950 . S
H1175 C1180 0.949 . S
H1176 C1182 0.950 . S
H1177 C1183 0.950 . S
H1178 C1184 0.949 . S
C1179 H1174 0.950 . S
C1179 C1181 1.327 . S
C1179 C1185 1.429 . S
C1180 C1172 1.574 . S
C1180 H1175 0.949 . S
C1180 C1186 1.368 . S
C1181 C1165 1.349 . S
C1181 H1173 0.950 . S
C1181 C1179 1.327 . S
C1182 C1170 1.349 . S
C1182 H1176 0.950 . S
C1182 C1183 1.327 . S
C1183 H1177 0.950 . S
C1183 C1182 1.327 . S
C1183 C1187 1.429 . S
C1184 C1167 1.574 . S
C1184 H1178 0.949 . S
C1184 C1188 1.368 . S
C1185 C1166 1.429 . S
C1185 C1179 1.429 . S
C1185 C1186 1.523 . S
C1186 C1167 1.368 . S
C1186 C1180 1.368 . S
C1186 C1185 1.523 . S
C1187 C1171 1.429 . S
C1187 C1183 1.429 . S
C1187 C1188 1.523 . S
C1188 C1172 1.368 . S
C1188 C1184 1.368 . S
C1188 C1187 1.523 . S
H1189 C1164 0.950 . S
H1190 C1166 0.950 . S
H1191 C1167 0.949 . S
H1192 C1169 0.950 . S
H1193 C1171 0.950 . S
C1194 C1195 1.349 . S
C1194 C1196 1.327 . S
C1194 H1219 0.950 . S
C1195 C1194 1.349 . S
C1195 C1211 1.349 . S
C1196 C1194 1.327 . S
C1196 C1215 1.429 . S
C1196 H1220 0.950 . S
C1197 C1214 1.574 . S
C1197 C1216 1.368 . S
C1197 H1221 0.949 . S
H1198 C1202 0.949 . S
C1199 C1200 1.351 1_455 S
C1199 C1201 1.327 1_455 S
C1199 H1222 0.947 . S
C1200 C1199 1.351 1_655 S
C1200 C1212 1.349 . S
C1201 C1199 1.327 1_655 S
C1201 C1217 1.429 . S
C1201 H1223 0.950 1_655 S
C1202 H1198 0.949 . S
C1202 C1210 1.574 . S
C1202 C1218 1.368 . S
H1203 C1211 0.950 . S
H1204 C1209 0.950 . S
H1205 C1210 0.949 . S
H1206 C1212 0.950 . S
H1207 C1213 0.950 . S
H1208 C1214 0.959 . S
C1209 H1204 0.950 . S
C1209 C1211 1.327 . S
C1209 C1215 1.429 . S
C1210 C1202 1.574 . S
C1210 H1205 0.949 . S
C1210 C1216 1.368 . S
C1211 C1195 1.349 . S
C1211 H1203 0.950 . S
C1211 C1209 1.327 . S
C1212 C1200 1.349 . S
C1212 H1206 0.950 . S
C1212 C1213 1.327 . S
C1213 H1207 0.950 . S
C1213 C1212 1.327 . S
C1213 C1217 1.429 . S
C1214 C1197 1.574 . S
C1214 H1208 0.959 . S
C1214 C1218 1.368 . S
C1215 C1196 1.429 . S
C1215 C1209 1.429 . S
C1215 C1216 1.523 . S
C1216 C1197 1.368 . S
C1216 C1210 1.368 . S
C1216 C1215 1.523 . S
C1217 C1201 1.429 . S
C1217 C1213 1.429 . S
C1217 C1218 1.523 . S
C1218 C1202 1.368 . S
C1218 C1214 1.368 . S
C1218 C1217 1.523 . S
H1219 C1194 0.950 . S
H1220 C1196 0.950 . S
H1221 C1197 0.949 . S
H1222 C1199 0.947 . S
H1223 C1201 0.950 1_455 S
C1224 C1225 1.349 . S
C1224 C1226 1.327 . S
C1224 H1249 0.950 . S
C1225 C1224 1.349 . S
C1225 C1241 1.349 . S
C1226 C1224 1.327 . S
C1226 C1245 1.429 . S
C1226 H1250 0.950 . S
C1227 C1244 1.574 . S
C1227 C1246 1.368 . S
C1227 H1251 0.949 . S
H1228 C1232 0.949 . S
C1229 C1230 1.349 . S
C1229 C1231 1.327 . S
C1229 H1252 0.950 . S
C1230 C1229 1.349 . S
C1230 C1242 1.349 . S
C1231 C1229 1.327 . S
C1231 C1247 1.429 . S
C1231 H1253 0.950 . S
C1232 H1228 0.949 . S
C1232 C1240 1.574 . S
C1232 C1248 1.368 . S
H1233 C1241 0.950 . S
H1234 C1239 0.950 . S
H1235 C1240 0.949 . S
H1236 C1242 0.950 . S
H1237 C1243 0.950 . S
H1238 C1244 0.949 . S
C1239 H1234 0.950 . S
C1239 C1241 1.327 . S
C1239 C1245 1.429 . S
C1240 C1232 1.574 . S
C1240 H1235 0.949 . S
C1240 C1246 1.368 . S
C1241 C1225 1.349 . S
C1241 H1233 0.950 . S
C1241 C1239 1.327 . S
C1242 C1230 1.349 . S
C1242 H1236 0.950 . S
C1242 C1243 1.327 . S
C1243 H1237 0.950 . S
C1243 C1242 1.327 . S
C1243 C1247 1.429 . S
C1244 C1227 1.574 . S
C1244 H1238 0.949 . S
C1244 C1248 1.368 . S
C1245 C1226 1.429 . S
C1245 C1239 1.429 . S
C1245 C1246 1.523 . S
C1246 C1227 1.368 . S
C1246 C1240 1.368 . S
C1246 C1245 1.523 . S
C1247 C1231 1.429 . S
C1247 C1243 1.429 . S
C1247 C1248 1.523 . S
C1248 C1232 1.368 . S
C1248 C1244 1.368 . S
C1248 C1247 1.523 . S
H1249 C1224 0.950 . S
H1250 C1226 0.950 . S
H1251 C1227 0.949 . S
H1252 C1229 0.950 . S
H1253 C1231 0.950 . S
C1254 C1255 1.349 . S
C1254 C1256 1.327 . S
C1254 H1279 0.950 . S
C1255 C1254 1.349 . S
C1255 C1271 1.349 . S
C1256 C1254 1.327 . S
C1256 C1275 1.429 . S
C1256 H1280 0.950 . S
C1257 C1274 1.574 . S
C1257 C1276 1.368 . S
C1257 H1281 0.949 . S
H1258 C1262 0.949 . S
C1259 C1260 1.349 . S
C1259 C1261 1.327 . S
C1259 H1282 0.950 . S
C1260 C1259 1.349 . S
C1260 C1272 1.349 . S
C1261 C1259 1.327 . S
C1261 C1277 1.429 . S
C1261 H1283 0.950 . S
C1262 H1258 0.949 . S
C1262 C1270 1.574 . S
C1262 C1278 1.368 . S
H1263 C1271 0.950 . S
H1264 C1269 0.950 . S
H1265 C1270 0.949 . S
H1266 C1272 0.950 . S
H1267 C1273 0.950 . S
H1268 C1274 0.949 . S
C1269 H1264 0.950 . S
C1269 C1271 1.327 . S
C1269 C1275 1.429 . S
C1270 C1262 1.574 . S
C1270 H1265 0.949 . S
C1270 C1276 1.368 . S
C1271 C1255 1.349 . S
C1271 H1263 0.950 . S
C1271 C1269 1.327 . S
C1272 C1260 1.349 . S
C1272 H1266 0.950 . S
C1272 C1273 1.327 . S
C1273 H1267 0.950 . S
C1273 C1272 1.327 . S
C1273 C1277 1.429 . S
C1274 C1257 1.574 . S
C1274 H1268 0.949 . S
C1274 C1278 1.368 . S
C1275 C1256 1.429 . S
C1275 C1269 1.429 . S
C1275 C1276 1.523 . S
C1276 C1257 1.368 . S
C1276 C1270 1.368 . S
C1276 C1275 1.523 . S
C1277 C1261 1.429 . S
C1277 C1273 1.429 . S
C1277 C1278 1.523 . S
C1278 C1262 1.368 . S
C1278 C1274 1.368 . S
C1278 C1277 1.523 . S
H1279 C1254 0.950 . S
H1280 C1256 0.950 . S
H1281 C1257 0.949 . S
H1282 C1259 0.950 . S
H1283 C1261 0.950 . S
C1284 C1285 1.349 . S
C1284 C1286 1.327 . S
C1284 H1309 0.951 1_556 S
C1285 C1284 1.349 . S
C1285 C1301 1.349 . S
C1286 C1284 1.327 . S
C1286 C1305 1.429 . S
C1286 H1310 0.950 1_556 S
C1287 C1304 1.574 . S
C1287 C1306 1.368 . S
C1287 H1311 0.949 . S
H1288 C1292 0.949 . S
C1289 C1290 1.349 . S
C1289 C1291 1.327 . S
C1289 H1312 0.950 . S
C1290 C1289 1.349 . S
C1290 C1302 1.349 1_556 S
C1291 C1289 1.327 . S
C1291 C1307 1.429 . S
C1291 H1313 0.950 . S
C1292 H1288 0.949 . S
C1292 C1300 1.573 1_554 S
C1292 C1308 1.368 1_554 S
H1293 C1301 0.950 . S
H1294 C1299 0.950 . S
H1295 C1300 0.948 1_554 S
H1296 C1302 0.950 . S
H1297 C1303 0.950 . S
H1298 C1304 0.949 . S
C1299 H1294 0.950 . S
C1299 C1301 1.327 . S
C1299 C1305 1.429 . S
C1300 C1292 1.573 1_556 S
C1300 H1295 0.948 1_556 S
C1300 C1306 1.370 . S
C1301 C1285 1.349 . S
C1301 H1293 0.950 . S
C1301 C1299 1.327 . S
C1302 C1290 1.349 1_554 S
C1302 H1296 0.950 . S
C1302 C1303 1.327 . S
C1303 H1297 0.950 . S
C1303 C1302 1.327 . S
C1303 C1307 1.429 1_554 S
C1304 C1287 1.574 . S
C1304 H1298 0.949 . S
C1304 C1308 1.368 . S
C1305 C1286 1.429 . S
C1305 C1299 1.429 . S
C1305 C1306 1.523 . S
C1306 C1287 1.368 . S
C1306 C1300 1.370 . S
C1306 C1305 1.523 . S
C1307 C1291 1.429 . S
C1307 C1303 1.429 1_556 S
C1307 C1308 1.523 . S
C1308 C1292 1.368 1_556 S
C1308 C1304 1.368 . S
C1308 C1307 1.523 . S
H1309 C1284 0.951 1_554 S
H1310 C1286 0.950 1_554 S
H1311 C1287 0.949 . S
H1312 C1289 0.950 . S
H1313 C1291 0.950 . S
C1314 C1315 1.349 . S
C1314 C1316 1.327 . S
C1314 H1339 0.950 . S
C1315 C1314 1.349 . S
C1315 C1331 1.349 . S
C1316 C1314 1.327 . S
C1316 C1335 1.429 . S
C1316 H1340 0.950 . S
C1317 C1334 1.574 . S
C1317 C1336 1.368 . S
C1317 H1341 0.949 . S
H1318 C1322 0.949 . S
C1319 C1320 1.349 . S
C1319 C1321 1.327 . S
C1319 H1342 0.950 . S
C1320 C1319 1.349 . S
C1320 C1332 1.349 . S
C1321 C1319 1.327 . S
C1321 C1337 1.429 . S
C1321 H1343 0.950 . S
C1322 H1318 0.949 . S
C1322 C1330 1.574 . S
C1322 C1338 1.368 . S
H1323 C1331 0.950 . S
H1324 C1329 0.950 . S
H1325 C1330 0.949 . S
H1326 C1332 0.950 . S
H1327 C1333 0.950 . S
H1328 C1334 0.949 . S
C1329 H1324 0.950 . S
C1329 C1331 1.327 . S
C1329 C1335 1.429 . S
C1330 C1322 1.574 . S
C1330 H1325 0.949 . S
C1330 C1336 1.368 . S
C1331 C1315 1.349 . S
C1331 H1323 0.950 . S
C1331 C1329 1.327 . S
C1332 C1320 1.349 . S
C1332 H1326 0.950 . S
C1332 C1333 1.327 . S
C1333 H1327 0.950 . S
C1333 C1332 1.327 . S
C1333 C1337 1.429 . S
C1334 C1317 1.574 . S
C1334 H1328 0.949 . S
C1334 C1338 1.368 . S
C1335 C1316 1.429 . S
C1335 C1329 1.429 . S
C1335 C1336 1.523 . S
C1336 C1317 1.368 . S
C1336 C1330 1.368 . S
C1336 C1335 1.523 . S
C1337 C1321 1.429 . S
C1337 C1333 1.429 . S
C1337 C1338 1.523 . S
C1338 C1322 1.368 . S
C1338 C1334 1.368 . S
C1338 C1337 1.523 . S
H1339 C1314 0.950 . S
H1340 C1316 0.950 . S
H1341 C1317 0.949 . S
H1342 C1319 0.950 . S
H1343 C1321 0.950 . S
C1344 C1345 1.349 . S
C1344 C1346 1.327 . S
C1344 H1369 0.950 . S
C1345 C1344 1.349 . S
C1345 C1361 1.349 . S
C1346 C1344 1.327 . S
C1346 C1365 1.429 . S
C1346 H1370 0.950 . S
C1347 C1364 1.574 . S
C1347 C1366 1.368 . S
C1347 H1371 0.949 . S
H1348 C1352 0.949 . S
C1349 C1350 1.349 . S
C1349 C1351 1.327 . S
C1349 H1372 0.950 . S
C1350 C1349 1.349 . S
C1350 C1362 1.349 . S
C1351 C1349 1.327 . S
C1351 C1367 1.429 . S
C1351 H1373 0.950 . S
C1352 H1348 0.949 . S
C1352 C1360 1.574 . S
C1352 C1368 1.368 . S
H1353 C1361 0.950 . S
H1354 C1359 0.950 . S
H1355 C1360 0.949 . S
H1356 C1362 0.950 . S
H1357 C1363 0.950 . S
H1358 C1364 0.949 . S
C1359 H1354 0.950 . S
C1359 C1361 1.327 . S
C1359 C1365 1.429 . S
C1360 C1352 1.574 . S
C1360 H1355 0.949 . S
C1360 C1366 1.368 . S
C1361 C1345 1.349 . S
C1361 H1353 0.950 . S
C1361 C1359 1.327 . S
C1362 C1350 1.349 . S
C1362 H1356 0.950 . S
C1362 C1363 1.327 . S
C1363 H1357 0.950 . S
C1363 C1362 1.327 . S
C1363 C1367 1.429 . S
C1364 C1347 1.574 . S
C1364 H1358 0.949 . S
C1364 C1368 1.368 . S
C1365 C1346 1.429 . S
C1365 C1359 1.429 . S
C1365 C1366 1.523 . S
C1366 C1347 1.368 . S
C1366 C1360 1.368 . S
C1366 C1365 1.523 . S
C1367 C1351 1.429 . S
C1367 C1363 1.429 . S
C1367 C1368 1.523 . S
C1368 C1352 1.368 . S
C1368 C1364 1.368 . S
C1368 C1367 1.523 . S
H1369 C1344 0.950 . S
H1370 C1346 0.950 . S
H1371 C1347 0.949 . S
H1372 C1349 0.950 . S
H1373 C1351 0.950 . S
C1374 C1375 1.349 . S
C1374 C1376 1.327 . S
C1374 H1399 0.950 . S
C1375 C1374 1.349 . S
C1375 C1391 1.349 . S
C1376 C1374 1.327 . S
C1376 C1395 1.429 . S
C1376 H1400 0.950 . S
C1377 C1394 1.574 . S
C1377 C1396 1.368 . S
C1377 H1401 0.949 . S
H1378 C1382 0.949 . S
C1379 C1380 1.349 . S
C1379 C1381 1.327 . S
C1379 H1402 0.950 . S
C1380 C1379 1.349 . S
C1380 C1392 1.349 . S
C1381 C1379 1.327 . S
C1381 C1397 1.429 . S
C1381 H1403 0.950 . S
C1382 H1378 0.949 . S
C1382 C1390 1.574 . S
C1382 C1398 1.368 . S
H1383 C1391 0.950 . S
H1384 C1389 0.950 . S
H1385 C1390 0.949 . S
H1386 C1392 0.950 . S
H1387 C1393 0.950 . S
H1388 C1394 0.949 . S
C1389 H1384 0.950 . S
C1389 C1391 1.327 . S
C1389 C1395 1.429 . S
C1390 C1382 1.574 . S
C1390 H1385 0.949 . S
C1390 C1396 1.368 . S
C1391 C1375 1.349 . S
C1391 H1383 0.950 . S
C1391 C1389 1.327 . S
C1392 C1380 1.349 . S
C1392 H1386 0.950 . S
C1392 C1393 1.327 . S
C1393 H1387 0.950 . S
C1393 C1392 1.327 . S
C1393 C1397 1.429 . S
C1394 C1377 1.574 . S
C1394 H1388 0.949 . S
C1394 C1398 1.368 . S
C1395 C1376 1.429 . S
C1395 C1389 1.429 . S
C1395 C1396 1.523 . S
C1396 C1377 1.368 . S
C1396 C1390 1.368 . S
C1396 C1395 1.523 . S
C1397 C1381 1.429 . S
C1397 C1393 1.429 . S
C1397 C1398 1.523 . S
C1398 C1382 1.368 . S
C1398 C1394 1.368 . S
C1398 C1397 1.523 . S
H1399 C1374 0.950 . S
H1400 C1376 0.950 . S
H1401 C1377 0.949 . S
H1402 C1379 0.950 . S
H1403 C1381 0.950 . S
C1404 C1405 1.349 . S
C1404 C1406 1.327 . S
C1404 H1429 0.950 . S
C1405 C1404 1.349 . S
C1405 C1421 1.349 . S
C1406 C1404 1.327 . S
C1406 C1425 1.429 . S
C1406 H1430 0.950 . S
C1407 C1424 1.574 . S
C1407 C1426 1.368 . S
C1407 H1431 0.949 . S
H1408 C1412 0.949 . S
C1409 C1410 1.349 . S
C1409 C1411 1.327 . S
C1409 H1432 0.950 . S
C1410 C1409 1.349 . S
C1410 C1422 1.349 . S
C1411 C1409 1.327 . S
C1411 C1427 1.429 . S
C1411 H1433 0.950 . S
C1412 H1408 0.949 . S
C1412 C1420 1.574 . S
C1412 C1428 1.368 . S
H1413 C1421 0.950 . S
H1414 C1419 0.950 . S
H1415 C1420 0.949 . S
H1416 C1422 0.950 . S
H1417 C1423 0.950 . S
H1418 C1424 0.949 . S
C1419 H1414 0.950 . S
C1419 C1421 1.327 . S
C1419 C1425 1.429 . S
C1420 C1412 1.574 . S
C1420 H1415 0.949 . S
C1420 C1426 1.368 . S
C1421 C1405 1.349 . S
C1421 H1413 0.950 . S
C1421 C1419 1.327 . S
C1422 C1410 1.349 . S
C1422 H1416 0.950 . S
C1422 C1423 1.327 . S
C1423 H1417 0.950 . S
C1423 C1422 1.327 . S
C1423 C1427 1.429 . S
C1424 C1407 1.574 . S
C1424 H1418 0.949 . S
C1424 C1428 1.368 . S
C1425 C1406 1.429 . S
C1425 C1419 1.429 . S
C1425 C1426 1.523 . S
C1426 C1407 1.368 . S
C1426 C1420 1.368 . S
C1426 C1425 1.523 . S
C1427 C1411 1.429 . S
C1427 C1423 1.429 . S
C1427 C1428 1.523 . S
C1428 C1412 1.368 . S
C1428 C1424 1.368 . S
C1428 C1427 1.523 . S
H1429 C1404 0.950 . S
H1430 C1406 0.950 . S
H1431 C1407 0.949 . S
H1432 C1409 0.950 . S
H1433 C1411 0.950 . S
C1434 C1435 1.349 . S
C1434 C1436 1.327 . S
C1434 H1459 0.950 . S
C1435 C1434 1.349 . S
C1435 C1451 1.349 . S
C1436 C1434 1.327 . S
C1436 C1455 1.429 . S
C1436 H1460 0.950 . S
C1437 C1454 1.574 . S
C1437 C1456 1.368 . S
C1437 H1461 0.949 . S
H1438 C1442 0.949 . S
C1439 C1440 1.349 . S
C1439 C1441 1.327 . S
C1439 H1462 0.950 . S
C1440 C1439 1.349 . S
C1440 C1452 1.349 . S
C1441 C1439 1.327 . S
C1441 C1457 1.429 . S
C1441 H1463 0.950 . S
C1442 H1438 0.949 . S
C1442 C1450 1.574 . S
C1442 C1458 1.368 . S
H1443 C1451 0.950 . S
H1444 C1449 0.950 . S
H1445 C1450 0.949 . S
H1446 C1452 0.950 . S
H1447 C1453 0.950 . S
H1448 C1454 0.949 . S
C1449 H1444 0.950 . S
C1449 C1451 1.327 . S
C1449 C1455 1.429 . S
C1450 C1442 1.574 . S
C1450 H1445 0.949 . S
C1450 C1456 1.368 . S
C1451 C1435 1.349 . S
C1451 H1443 0.950 . S
C1451 C1449 1.327 . S
C1452 C1440 1.349 . S
C1452 H1446 0.950 . S
C1452 C1453 1.327 . S
C1453 H1447 0.950 . S
C1453 C1452 1.327 . S
C1453 C1457 1.429 . S
C1454 C1437 1.574 . S
C1454 H1448 0.949 . S
C1454 C1458 1.368 . S
C1455 C1436 1.429 . S
C1455 C1449 1.429 . S
C1455 C1456 1.523 . S
C1456 C1437 1.368 . S
C1456 C1450 1.368 . S
C1456 C1455 1.523 . S
C1457 C1441 1.429 . S
C1457 C1453 1.429 . S
C1457 C1458 1.523 . S
C1458 C1442 1.368 . S
C1458 C1454 1.368 . S
C1458 C1457 1.523 . S
H1459 C1434 0.950 . S
H1460 C1436 0.950 . S
H1461 C1437 0.949 . S
H1462 C1439 0.950 . S
H1463 C1441 0.950 . S
C1464 C1465 1.349 . S
C1464 C1466 1.327 . S
C1464 H1489 0.950 . S
C1465 C1464 1.349 . S
C1465 C1481 1.349 . S
C1466 C1464 1.327 . S
C1466 C1485 1.429 . S
C1466 H1490 0.950 . S
C1467 C1484 1.574 . S
C1467 C1486 1.368 . S
C1467 H1491 0.949 . S
H1468 C1472 0.949 . S
C1469 C1470 1.349 . S
C1469 C1471 1.327 . S
C1469 H1492 0.950 . S
C1470 C1469 1.349 . S
C1470 C1482 1.349 . S
C1471 C1469 1.327 . S
C1471 C1487 1.429 . S
C1471 H1493 0.950 . S
C1472 H1468 0.949 . S
C1472 C1480 1.574 . S
C1472 C1488 1.368 . S
H1473 C1481 0.950 . S
H1474 C1479 0.950 . S
H1475 C1480 0.949 . S
H1476 C1482 0.950 . S
H1477 C1483 0.950 . S
H1478 C1484 0.949 . S
C1479 H1474 0.950 . S
C1479 C1481 1.327 . S
C1479 C1485 1.429 . S
C1480 C1472 1.574 . S
C1480 H1475 0.949 . S
C1480 C1486 1.368 . S
C1481 C1465 1.349 . S
C1481 H1473 0.950 . S
C1481 C1479 1.327 . S
C1482 C1470 1.349 . S
C1482 H1476 0.950 . S
C1482 C1483 1.327 . S
C1483 H1477 0.950 . S
C1483 C1482 1.327 . S
C1483 C1487 1.429 . S
C1484 C1467 1.574 . S
C1484 H1478 0.949 . S
C1484 C1488 1.368 . S
C1485 C1466 1.429 . S
C1485 C1479 1.429 . S
C1485 C1486 1.523 . S
C1486 C1467 1.368 . S
C1486 C1480 1.368 . S
C1486 C1485 1.523 . S
C1487 C1471 1.429 . S
C1487 C1483 1.429 . S
C1487 C1488 1.523 . S
C1488 C1472 1.368 . S
C1488 C1484 1.368 . S
C1488 C1487 1.523 . S
H1489 C1464 0.950 . S
H1490 C1466 0.950 . S
H1491 C1467 0.949 . S
H1492 C1469 0.950 . S
H1493 C1471 0.950 . S
C1494 C1495 1.349 . S
C1494 C1496 1.327 . S
C1494 H1519 0.950 . S
C1495 C1494 1.349 . S
C1495 C1511 1.349 . S
C1496 C1494 1.327 . S
C1496 C1515 1.429 . S
C1496 H1520 0.950 . S
C1497 C1514 1.570 1_545 S
C1497 C1516 1.368 . S
C1497 H1521 0.949 1_545 S
H1498 C1502 0.949 . S
C1499 C1500 1.349 1_565 S
C1499 C1501 1.327 . S
C1499 H1522 0.950 . S
C1500 C1499 1.349 1_545 S
C1500 C1512 1.349 . S
C1501 C1499 1.327 . S
C1501 C1517 1.429 1_565 S
C1501 H1523 0.950 . S
C1502 H1498 0.949 . S
C1502 C1510 1.574 . S
C1502 C1518 1.368 . S
H1503 C1511 0.945 1_565 S
H1504 C1509 0.950 1_565 S
H1505 C1510 0.949 . S
H1506 C1512 0.950 . S
H1507 C1513 0.950 . S
H1508 C1514 0.970 . S
C1509 H1504 0.950 1_545 S
C1509 C1511 1.327 . S
C1509 C1515 1.429 . S
C1510 C1502 1.574 . S
C1510 H1505 0.949 . S
C1510 C1516 1.368 . S
C1511 C1495 1.349 . S
C1511 H1503 0.945 1_545 S
C1511 C1509 1.327 . S
C1512 C1500 1.349 . S
C1512 H1506 0.950 . S
C1512 C1513 1.327 . S
C1513 H1507 0.950 . S
C1513 C1512 1.327 . S
C1513 C1517 1.429 . S
C1514 C1497 1.570 1_565 S
C1514 H1508 0.970 . S
C1514 C1518 1.349 1_565 S
C1515 C1496 1.429 . S
C1515 C1509 1.429 . S
C1515 C1516 1.523 . S
C1516 C1497 1.368 . S
C1516 C1510 1.368 . S
C1516 C1515 1.523 . S
C1517 C1501 1.429 1_545 S
C1517 C1513 1.429 . S
C1517 C1518 1.523 . S
C1518 C1502 1.368 . S
C1518 C1514 1.349 1_545 S
C1518 C1517 1.523 . S
H1519 C1494 0.950 . S
H1520 C1496 0.950 . S
H1521 C1497 0.949 1_565 S
H1522 C1499 0.950 . S
H1523 C1501 0.950 . S
C1524 C1525 1.349 . S
C1524 C1526 1.327 . S
C1524 H1549 0.950 . S
C1525 C1524 1.349 . S
C1525 C1541 1.349 . S
C1526 C1524 1.327 . S
C1526 C1545 1.429 . S
C1526 H1550 0.950 . S
C1527 C1544 1.574 . S
C1527 C1546 1.368 . S
C1527 H1551 0.949 . S
H1528 C1532 0.949 . S
C1529 C1530 1.349 . S
C1529 C1531 1.327 . S
C1529 H1552 0.950 . S
C1530 C1529 1.349 . S
C1530 C1542 1.349 . S
C1531 C1529 1.327 . S
C1531 C1547 1.429 . S
C1531 H1553 0.950 . S
C1532 H1528 0.949 . S
C1532 C1540 1.574 . S
C1532 C1548 1.368 . S
H1533 C1541 0.950 . S
H1534 C1539 0.950 . S
H1535 C1540 0.949 . S
H1536 C1542 0.950 . S
H1537 C1543 0.950 . S
H1538 C1544 0.949 . S
C1539 H1534 0.950 . S
C1539 C1541 1.327 . S
C1539 C1545 1.429 . S
C1540 C1532 1.574 . S
C1540 H1535 0.949 . S
C1540 C1546 1.368 . S
C1541 C1525 1.349 . S
C1541 H1533 0.950 . S
C1541 C1539 1.327 . S
C1542 C1530 1.349 . S
C1542 H1536 0.950 . S
C1542 C1543 1.327 . S
C1543 H1537 0.950 . S
C1543 C1542 1.327 . S
C1543 C1547 1.429 . S
C1544 C1527 1.574 . S
C1544 H1538 0.949 . S
C1544 C1548 1.368 . S
C1545 C1526 1.429 . S
C1545 C1539 1.429 . S
C1545 C1546 1.523 . S
C1546 C1527 1.368 . S
C1546 C1540 1.368 . S
C1546 C1545 1.523 . S
C1547 C1531 1.429 . S
C1547 C1543 1.429 . S
C1547 C1548 1.523 . S
C1548 C1532 1.368 . S
C1548 C1544 1.368 . S
C1548 C1547 1.523 . S
H1549 C1524 0.950 . S
H1550 C1526 0.950 . S
H1551 C1527 0.949 . S
H1552 C1529 0.950 . S
H1553 C1531 0.950 . S
C1554 C1555 1.349 . S
C1554 C1556 1.327 . S
C1554 H1579 0.950 . S
C1555 C1554 1.349 . S
C1555 C1571 1.349 . S
C1556 C1554 1.327 . S
C1556 C1575 1.429 . S
C1556 H1580 0.950 . S
C1557 C1574 1.574 . S
C1557 C1576 1.368 . S
C1557 H1581 0.949 . S
H1558 C1562 0.949 . S
C1559 C1560 1.349 . S
C1559 C1561 1.327 . S
C1559 H1582 0.950 . S
C1560 C1559 1.349 . S
C1560 C1572 1.349 . S
C1561 C1559 1.327 . S
C1561 C1577 1.429 . S
C1561 H1583 0.950 . S
C1562 H1558 0.949 . S
C1562 C1570 1.574 . S
C1562 C1578 1.368 . S
H1563 C1571 0.950 . S
H1564 C1569 0.950 . S
H1565 C1570 0.949 . S
H1566 C1572 0.950 . S
H1567 C1573 0.950 . S
H1568 C1574 0.949 . S
C1569 H1564 0.950 . S
C1569 C1571 1.327 . S
C1569 C1575 1.429 . S
C1570 C1562 1.574 . S
C1570 H1565 0.949 . S
C1570 C1576 1.368 . S
C1571 C1555 1.349 . S
C1571 H1563 0.950 . S
C1571 C1569 1.327 . S
C1572 C1560 1.349 . S
C1572 H1566 0.950 . S
C1572 C1573 1.327 . S
C1573 H1567 0.950 . S
C1573 C1572 1.327 . S
C1573 C1577 1.429 . S
C1574 C1557 1.574 . S
C1574 H1568 0.949 . S
C1574 C1578 1.368 . S
C1575 C1556 1.429 . S
C1575 C1569 1.429 . S
C1575 C1576 1.523 . S
C1576 C1557 1.368 . S
C1576 C1570 1.368 . S
C1576 C1575 1.523 . S
C1577 C1561 1.429 . S
C1577 C1573 1.429 . S
C1577 C1578 1.523 . S
C1578 C1562 1.368 . S
C1578 C1574 1.368 . S
C1578 C1577 1.523 . S
H1579 C1554 0.950 . S
H1580 C1556 0.950 . S
H1581 C1557 0.949 . S
H1582 C1559 0.950 . S
H1583 C1561 0.950 . S
C1584 C1585 1.349 . S
C1584 C1586 1.327 . S
C1584 H1609 0.950 . S
C1585 C1584 1.349 . S
C1585 C1601 1.349 . S
C1586 C1584 1.327 . S
C1586 C1605 1.429 . S
C1586 H1610 0.950 . S
C1587 C1604 1.574 . S
C1587 C1606 1.368 . S
C1587 H1611 0.949 . S
H1588 C1592 0.949 . S
C1589 C1590 1.349 . S
C1589 C1591 1.327 . S
C1589 H1612 0.950 . S
C1590 C1589 1.349 . S
C1590 C1602 1.349 . S
C1591 C1589 1.327 . S
C1591 C1607 1.429 . S
C1591 H1613 0.950 . S
C1592 H1588 0.949 . S
C1592 C1600 1.574 . S
C1592 C1608 1.368 . S
H1593 C1601 0.950 . S
H1594 C1599 0.950 . S
H1595 C1600 0.949 . S
H1596 C1602 0.950 . S
H1597 C1603 0.950 . S
H1598 C1604 0.949 . S
C1599 H1594 0.950 . S
C1599 C1601 1.327 . S
C1599 C1605 1.429 . S
C1600 C1592 1.574 . S
C1600 H1595 0.949 . S
C1600 C1606 1.368 . S
C1601 C1585 1.349 . S
C1601 H1593 0.950 . S
C1601 C1599 1.327 . S
C1602 C1590 1.349 . S
C1602 H1596 0.950 . S
C1602 C1603 1.327 . S
C1603 H1597 0.950 . S
C1603 C1602 1.327 . S
C1603 C1607 1.429 . S
C1604 C1587 1.574 . S
C1604 H1598 0.949 . S
C1604 C1608 1.368 . S
C1605 C1586 1.429 . S
C1605 C1599 1.429 . S
C1605 C1606 1.523 . S
C1606 C1587 1.368 . S
C1606 C1600 1.368 . S
C1606 C1605 1.523 . S
C1607 C1591 1.429 . S
C1607 C1603 1.429 . S
C1607 C1608 1.523 . S
C1608 C1592 1.368 . S
C1608 C1604 1.368 . S
C1608 C1607 1.523 . S
H1609 C1584 0.950 . S
H1610 C1586 0.950 . S
H1611 C1587 0.949 . S
H1612 C1589 0.950 . S
H1613 C1591 0.950 . S
C1614 C1615 1.349 . S
C1614 C1616 1.327 . S
C1614 H1639 0.950 . S
C1615 C1614 1.349 . S
C1615 C1631 1.349 . S
C1616 C1614 1.327 . S
C1616 C1635 1.429 . S
C1616 H1640 0.950 . S
C1617 C1634 1.574 . S
C1617 C1636 1.368 . S
C1617 H1641 0.949 . S
H1618 C1622 0.949 . S
C1619 C1620 1.349 . S
C1619 C1621 1.327 . S
C1619 H1642 0.950 . S
C1620 C1619 1.349 . S
C1620 C1632 1.349 . S
C1621 C1619 1.327 . S
C1621 C1637 1.429 . S
C1621 H1643 0.950 . S
C1622 H1618 0.949 . S
C1622 C1630 1.574 . S
C1622 C1638 1.368 . S
H1623 C1631 0.950 . S
H1624 C1629 0.950 . S
H1625 C1630 0.949 . S
H1626 C1632 0.950 . S
H1627 C1633 0.950 . S
H1628 C1634 0.949 . S
C1629 H1624 0.950 . S
C1629 C1631 1.327 . S
C1629 C1635 1.429 . S
C1630 C1622 1.574 . S
C1630 H1625 0.949 . S
C1630 C1636 1.368 . S
C1631 C1615 1.349 . S
C1631 H1623 0.950 . S
C1631 C1629 1.327 . S
C1632 C1620 1.349 . S
C1632 H1626 0.950 . S
C1632 C1633 1.327 . S
C1633 H1627 0.950 . S
C1633 C1632 1.327 . S
C1633 C1637 1.429 . S
C1634 C1617 1.574 . S
C1634 H1628 0.949 . S
C1634 C1638 1.368 . S
C1635 C1616 1.429 . S
C1635 C1629 1.429 . S
C1635 C1636 1.523 . S
C1636 C1617 1.368 . S
C1636 C1630 1.368 . S
C1636 C1635 1.523 . S
C1637 C1621 1.429 . S
C1637 C1633 1.429 . S
C1637 C1638 1.523 . S
C1638 C1622 1.368 . S
C1638 C1634 1.368 . S
C1638 C1637 1.523 . S
H1639 C1614 0.950 . S
H1640 C1616 0.950 . S
H1641 C1617 0.949 . S
H1642 C1619 0.950 . S
H1643 C1621 0.950 . S
C1644 C1645 1.349 . S
C1644 C1646 1.327 . S
C1644 H1669 0.950 . S
C1645 C1644 1.349 . S
C1645 C1661 1.349 . S
C1646 C1644 1.327 . S
C1646 C1665 1.429 . S
C1646 H1670 0.950 . S
C1647 C1664 1.574 . S
C1647 C1666 1.368 . S
C1647 H1671 0.949 . S
H1648 C1652 0.949 . S
C1649 C1650 1.349 . S
C1649 C1651 1.327 . S
C1649 H1672 0.950 . S
C1650 C1649 1.349 . S
C1650 C1662 1.349 . S
C1651 C1649 1.327 . S
C1651 C1667 1.429 . S
C1651 H1673 0.950 . S
C1652 H1648 0.949 . S
C1652 C1660 1.574 . S
C1652 C1668 1.368 . S
H1653 C1661 0.950 . S
H1654 C1659 0.950 . S
H1655 C1660 0.949 . S
H1656 C1662 0.950 . S
H1657 C1663 0.950 . S
H1658 C1664 0.949 . S
C1659 H1654 0.950 . S
C1659 C1661 1.327 . S
C1659 C1665 1.429 . S
C1660 C1652 1.574 . S
C1660 H1655 0.949 . S
C1660 C1666 1.368 . S
C1661 C1645 1.349 . S
C1661 H1653 0.950 . S
C1661 C1659 1.327 . S
C1662 C1650 1.349 . S
C1662 H1656 0.950 . S
C1662 C1663 1.327 . S
C1663 H1657 0.950 . S
C1663 C1662 1.327 . S
C1663 C1667 1.429 . S
C1664 C1647 1.574 . S
C1664 H1658 0.949 . S
C1664 C1668 1.368 . S
C1665 C1646 1.429 . S
C1665 C1659 1.429 . S
C1665 C1666 1.523 . S
C1666 C1647 1.368 . S
C1666 C1660 1.368 . S
C1666 C1665 1.523 . S
C1667 C1651 1.429 . S
C1667 C1663 1.429 . S
C1667 C1668 1.523 . S
C1668 C1652 1.368 . S
C1668 C1664 1.368 . S
C1668 C1667 1.523 . S
H1669 C1644 0.950 . S
H1670 C1646 0.950 . S
H1671 C1647 0.949 . S
H1672 C1649 0.950 . S
H1673 C1651 0.950 . S
C1674 C1675 1.349 . S
C1674 C1676 1.327 . S
C1674 H1699 0.950 . S
C1675 C1674 1.349 . S
C1675 C1691 1.349 . S
C1676 C1674 1.327 . S
C1676 C1695 1.429 . S
C1676 H1700 0.950 . S
C1677 C1694 1.574 . S
C1677 C1696 1.368 . S
C1677 H1701 0.949 . S
H1678 C1682 0.949 . S
C1679 C1680 1.349 . S
C1679 C1681 1.327 . S
C1679 H1702 0.950 . S
C1680 C1679 1.349 . S
C1680 C1692 1.349 . S
C1681 C1679 1.327 . S
C1681 C1697 1.429 . S
C1681 H1703 0.950 . S
C1682 H1678 0.949 . S
C1682 C1690 1.574 . S
C1682 C1698 1.368 . S
H1683 C1691 0.950 . S
H1684 C1689 0.950 . S
H1685 C1690 0.949 . S
H1686 C1692 0.950 . S
H1687 C1693 0.950 . S
H1688 C1694 0.949 . S
C1689 H1684 0.950 . S
C1689 C1691 1.327 . S
C1689 C1695 1.429 . S
C1690 C1682 1.574 . S
C1690 H1685 0.949 . S
C1690 C1696 1.368 . S
C1691 C1675 1.349 . S
C1691 H1683 0.950 . S
C1691 C1689 1.327 . S
C1692 C1680 1.349 . S
C1692 H1686 0.950 . S
C1692 C1693 1.327 . S
C1693 H1687 0.950 . S
C1693 C1692 1.327 . S
C1693 C1697 1.429 . S
C1694 C1677 1.574 . S
C1694 H1688 0.949 . S
C1694 C1698 1.368 . S
C1695 C1676 1.429 . S
C1695 C1689 1.429 . S
C1695 C1696 1.523 . S
C1696 C1677 1.368 . S
C1696 C1690 1.368 . S
C1696 C1695 1.523 . S
C1697 C1681 1.429 . S
C1697 C1693 1.429 . S
C1697 C1698 1.523 . S
C1698 C1682 1.368 . S
C1698 C1694 1.368 . S
C1698 C1697 1.523 . S
H1699 C1674 0.950 . S
H1700 C1676 0.950 . S
H1701 C1677 0.949 . S
H1702 C1679 0.950 . S
H1703 C1681 0.950 . S
C1704 C1705 1.349 . S
C1704 C1706 1.327 . S
C1704 H1729 0.950 . S
C1705 C1704 1.349 . S
C1705 C1721 1.349 . S
C1706 C1704 1.327 . S
C1706 C1725 1.429 . S
C1706 H1730 0.950 . S
C1707 C1724 1.574 . S
C1707 C1726 1.368 . S
C1707 H1731 0.949 . S
H1708 C1712 0.949 . S
C1709 C1710 1.349 . S
C1709 C1711 1.327 . S
C1709 H1732 0.950 . S
C1710 C1709 1.349 . S
C1710 C1722 1.349 . S
C1711 C1709 1.327 . S
C1711 C1727 1.429 . S
C1711 H1733 0.950 . S
C1712 H1708 0.949 . S
C1712 C1720 1.574 . S
C1712 C1728 1.368 . S
H1713 C1721 0.950 . S
H1714 C1719 0.950 . S
H1715 C1720 0.949 . S
H1716 C1722 0.950 . S
H1717 C1723 0.950 . S
H1718 C1724 0.949 . S
C1719 H1714 0.950 . S
C1719 C1721 1.327 . S
C1719 C1725 1.429 . S
C1720 C1712 1.574 . S
C1720 H1715 0.949 . S
C1720 C1726 1.368 . S
C1721 C1705 1.349 . S
C1721 H1713 0.950 . S
C1721 C1719 1.327 . S
C1722 C1710 1.349 . S
C1722 H1716 0.950 . S
C1722 C1723 1.327 . S
C1723 H1717 0.950 . S
C1723 C1722 1.327 . S
C1723 C1727 1.429 . S
C1724 C1707 1.574 . S
C1724 H1718 0.949 . S
C1724 C1728 1.368 . S
C1725 C1706 1.429 . S
C1725 C1719 1.429 . S
C1725 C1726 1.523 . S
C1726 C1707 1.368 . S
C1726 C1720 1.368 . S
C1726 C1725 1.523 . S
C1727 C1711 1.429 . S
C1727 C1723 1.429 . S
C1727 C1728 1.523 . S
C1728 C1712 1.368 . S
C1728 C1724 1.368 . S
C1728 C1727 1.523 . S
H1729 C1704 0.950 . S
H1730 C1706 0.950 . S
H1731 C1707 0.949 . S
H1732 C1709 0.950 . S
H1733 C1711 0.950 . S
C1734 C1735 1.349 1_455 S
C1734 C1736 1.327 . S
C1734 H1759 0.950 . S
C1735 C1734 1.349 1_655 S
C1735 C1751 1.349 . S
C1736 C1734 1.327 . S
C1736 C1755 1.429 1_455 S
C1736 H1760 0.950 . S
C1737 C1754 1.574 . S
C1737 C1756 1.368 . S
C1737 H1761 0.949 . S
H1738 C1742 0.949 . S
C1739 C1740 1.349 1_655 S
C1739 C1741 1.327 . S
C1739 H1762 0.950 . S
C1740 C1739 1.349 1_455 S
C1740 C1752 1.349 . S
C1741 C1739 1.327 . S
C1741 C1757 1.429 1_655 S
C1741 H1763 0.950 . S
C1742 H1738 0.949 . S
C1742 C1750 1.574 . S
C1742 C1758 1.368 . S
H1743 C1751 0.941 1_554 S
H1744 C1749 0.950 . S
H1745 C1750 0.949 . S
H1746 C1752 0.950 . S
H1747 C1753 0.950 . S
H1748 C1754 0.949 . S
C1749 H1744 0.950 . S
C1749 C1751 1.327 . S
C1749 C1755 1.429 . S
C1750 C1742 1.574 . S
C1750 H1745 0.949 . S
C1750 C1756 1.368 1_455 S
C1751 C1735 1.349 . S
C1751 H1743 0.941 1_556 S
C1751 C1749 1.327 . S
C1752 C1740 1.349 . S
C1752 H1746 0.950 . S
C1752 C1753 1.327 . S
C1753 H1747 0.950 . S
C1753 C1752 1.327 . S
C1753 C1757 1.429 . S
C1754 C1737 1.574 . S
C1754 H1748 0.949 . S
C1754 C1758 1.368 1_655 S
C1755 C1736 1.429 1_655 S
C1755 C1749 1.429 . S
C1755 C1756 1.523 . S
C1756 C1737 1.368 . S
C1756 C1750 1.368 1_655 S
C1756 C1755 1.523 . S
C1757 C1741 1.429 1_455 S
C1757 C1753 1.429 . S
C1757 C1758 1.523 . S
C1758 C1742 1.368 . S
C1758 C1754 1.368 1_455 S
C1758 C1757 1.523 . S
H1759 C1734 0.950 . S
H1760 C1736 0.950 . S
H1761 C1737 0.949 . S
H1762 C1739 0.950 . S
H1763 C1741 0.950 . S
C1764 C1765 1.349 . S
C1764 C1766 1.327 . S
C1764 H1789 0.950 . S
C1765 C1764 1.349 . S
C1765 C1781 1.349 . S
C1766 C1764 1.327 . S
C1766 C1785 1.429 . S
C1766 H1790 0.950 . S
C1767 C1784 1.574 . S
C1767 C1786 1.368 . S
C1767 H1791 0.949 . S
H1768 C1772 0.949 . S
C1769 C1770 1.349 . S
C1769 C1771 1.327 . S
C1769 H1792 0.950 . S
C1770 C1769 1.349 . S
C1770 C1782 1.349 . S
C1771 C1769 1.327 . S
C1771 C1787 1.429 . S
C1771 H1793 0.950 . S
C1772 H1768 0.949 . S
C1772 C1780 1.574 . S
C1772 C1788 1.368 . S
H1773 C1781 0.950 . S
H1774 C1779 0.950 . S
H1775 C1780 0.949 . S
H1776 C1782 0.950 . S
H1777 C1783 0.950 . S
H1778 C1784 0.949 . S
C1779 H1774 0.950 . S
C1779 C1781 1.327 . S
C1779 C1785 1.429 . S
C1780 C1772 1.574 . S
C1780 H1775 0.949 . S
C1780 C1786 1.368 . S
C1781 C1765 1.349 . S
C1781 H1773 0.950 . S
C1781 C1779 1.327 . S
C1782 C1770 1.349 . S
C1782 H1776 0.950 . S
C1782 C1783 1.327 . S
C1783 H1777 0.950 . S
C1783 C1782 1.327 . S
C1783 C1787 1.429 . S
C1784 C1767 1.574 . S
C1784 H1778 0.949 . S
C1784 C1788 1.368 . S
C1785 C1766 1.429 . S
C1785 C1779 1.429 . S
C1785 C1786 1.523 . S
C1786 C1767 1.368 . S
C1786 C1780 1.368 . S
C1786 C1785 1.523 . S
C1787 C1771 1.429 . S
C1787 C1783 1.429 . S
C1787 C1788 1.523 . S
C1788 C1772 1.368 . S
C1788 C1784 1.368 . S
C1788 C1787 1.523 . S
H1789 C1764 0.950 . S
H1790 C1766 0.950 . S
H1791 C1767 0.949 . S
H1792 C1769 0.950 . S
H1793 C1771 0.950 . S
C1794 C1795 1.349 . S
C1794 C1796 1.327 . S
C1794 H1819 0.950 . S
C1795 C1794 1.349 . S
C1795 C1811 1.349 . S
C1796 C1794 1.327 . S
C1796 C1815 1.429 . S
C1796 H1820 0.950 . S
C1797 C1814 1.574 . S
C1797 C1816 1.368 . S
C1797 H1821 0.949 . S
H1798 C1802 0.949 . S
C1799 C1800 1.349 . S
C1799 C1801 1.327 . S
C1799 H1822 0.950 . S
C1800 C1799 1.349 . S
C1800 C1812 1.349 . S
C1801 C1799 1.327 . S
C1801 C1817 1.429 . S
C1801 H1823 0.950 . S
C1802 H1798 0.949 . S
C1802 C1810 1.574 . S
C1802 C1818 1.368 . S
H1803 C1811 0.950 . S
H1804 C1809 0.950 . S
H1805 C1810 0.949 . S
H1806 C1812 0.984 . S
H1807 C1813 0.950 . S
H1808 C1814 0.949 . S
C1809 H1804 0.950 . S
C1809 C1811 1.327 . S
C1809 C1815 1.429 . S
C1810 C1802 1.574 . S
C1810 H1805 0.949 . S
C1810 C1816 1.368 . S
C1811 C1795 1.349 . S
C1811 H1803 0.950 . S
C1811 C1809 1.327 . S
C1812 C1800 1.349 . S
C1812 H1806 0.984 . S
C1812 C1813 1.327 . S
C1813 H1807 0.950 . S
C1813 C1812 1.327 . S
C1813 C1817 1.429 . S
C1814 C1797 1.574 . S
C1814 H1808 0.949 . S
C1814 C1818 1.368 . S
C1815 C1796 1.429 . S
C1815 C1809 1.429 . S
C1815 C1816 1.523 . S
C1816 C1797 1.368 . S
C1816 C1810 1.368 . S
C1816 C1815 1.523 . S
C1817 C1801 1.429 . S
C1817 C1813 1.429 . S
C1817 C1818 1.523 . S
C1818 C1802 1.368 . S
C1818 C1814 1.368 . S
C1818 C1817 1.523 . S
H1819 C1794 0.950 . S
H1820 C1796 0.950 . S
H1821 C1797 0.949 . S
H1822 C1799 0.950 . S
H1823 C1801 0.950 . S
C1824 C1825 1.349 . S
C1824 C1826 1.327 . S
C1824 H1849 0.950 . S
C1825 C1824 1.349 . S
C1825 C1841 1.349 . S
C1826 C1824 1.327 . S
C1826 C1845 1.429 . S
C1826 H1850 0.950 . S
C1827 C1844 1.574 . S
C1827 C1846 1.368 . S
C1827 H1851 0.949 . S
H1828 C1832 0.949 . S
C1829 C1830 1.349 . S
C1829 C1831 1.327 . S
C1829 H1852 0.950 . S
C1830 C1829 1.349 . S
C1830 C1842 1.349 . S
C1831 C1829 1.327 . S
C1831 C1847 1.429 . S
C1831 H1853 0.950 . S
C1832 H1828 0.949 . S
C1832 C1840 1.574 . S
C1832 C1848 1.368 . S
H1833 C1841 0.950 . S
H1834 C1839 0.950 . S
H1835 C1840 0.949 . S
H1836 C1842 0.950 . S
H1837 C1843 0.950 . S
H1838 C1844 0.949 . S
C1839 H1834 0.950 . S
C1839 C1841 1.327 . S
C1839 C1845 1.429 . S
C1840 C1832 1.574 . S
C1840 H1835 0.949 . S
C1840 C1846 1.368 . S
C1841 C1825 1.349 . S
C1841 H1833 0.950 . S
C1841 C1839 1.327 . S
C1842 C1830 1.349 . S
C1842 H1836 0.950 . S
C1842 C1843 1.327 . S
C1843 H1837 0.950 . S
C1843 C1842 1.327 . S
C1843 C1847 1.429 . S
C1844 C1827 1.574 . S
C1844 H1838 0.949 . S
C1844 C1848 1.368 . S
C1845 C1826 1.429 . S
C1845 C1839 1.429 . S
C1845 C1846 1.523 . S
C1846 C1827 1.368 . S
C1846 C1840 1.368 . S
C1846 C1845 1.523 . S
C1847 C1831 1.429 . S
C1847 C1843 1.429 . S
C1847 C1848 1.523 . S
C1848 C1832 1.368 . S
C1848 C1844 1.368 . S
C1848 C1847 1.523 . S
H1849 C1824 0.950 . S
H1850 C1826 0.950 . S
H1851 C1827 0.949 . S
H1852 C1829 0.950 . S
H1853 C1831 0.950 . S
C1854 C1855 1.349 . S
C1854 C1856 1.327 . S
C1854 H1879 0.950 . S
C1855 C1854 1.349 . S
C1855 C1871 1.349 . S
C1856 C1854 1.327 . S
C1856 C1875 1.429 . S
C1856 H1880 0.950 . S
C1857 C1874 1.574 . S
C1857 C1876 1.368 . S
C1857 H1881 0.949 . S
H1858 C1862 0.949 . S
C1859 C1860 1.349 . S
C1859 C1861 1.327 . S
C1859 H1882 0.950 . S
C1860 C1859 1.349 . S
C1860 C1872 1.349 . S
C1861 C1859 1.327 . S
C1861 C1877 1.429 . S
C1861 H1883 0.950 . S
C1862 H1858 0.949 . S
C1862 C1870 1.574 . S
C1862 C1878 1.368 . S
H1863 C1871 0.948 . S
H1864 C1869 0.950 . S
H1865 C1870 0.949 . S
H1866 C1872 0.950 . S
H1867 C1873 0.950 . S
H1868 C1874 0.949 . S
C1869 H1864 0.950 . S
C1869 C1871 1.327 . S
C1869 C1875 1.429 . S
C1870 C1862 1.574 . S
C1870 H1865 0.949 . S
C1870 C1876 1.368 . S
C1871 C1855 1.349 . S
C1871 H1863 0.948 . S
C1871 C1869 1.327 . S
C1872 C1860 1.349 . S
C1872 H1866 0.950 . S
C1872 C1873 1.327 . S
C1873 H1867 0.950 . S
C1873 C1872 1.327 . S
C1873 C1877 1.429 . S
C1874 C1857 1.574 . S
C1874 H1868 0.949 . S
C1874 C1878 1.368 . S
C1875 C1856 1.429 . S
C1875 C1869 1.429 . S
C1875 C1876 1.523 . S
C1876 C1857 1.368 . S
C1876 C1870 1.368 . S
C1876 C1875 1.523 . S
C1877 C1861 1.429 . S
C1877 C1873 1.429 . S
C1877 C1878 1.523 . S
C1878 C1862 1.368 . S
C1878 C1874 1.368 . S
C1878 C1877 1.523 . S
H1879 C1854 0.950 . S
H1880 C1856 0.950 . S
H1881 C1857 0.949 . S
H1882 C1859 0.950 . S
H1883 C1861 0.950 . S
C1884 C1885 1.349 . S
C1884 C1886 1.327 . S
C1884 H1909 0.950 . S
C1885 C1884 1.349 . S
C1885 C1901 1.349 . S
C1886 C1884 1.327 . S
C1886 C1905 1.429 . S
C1886 H1910 0.950 . S
C1887 C1904 1.574 . S
C1887 C1906 1.368 . S
C1887 H1911 0.949 . S
H1888 C1892 0.949 . S
C1889 C1890 1.349 . S
C1889 C1891 1.327 . S
C1889 H1912 0.950 . S
C1890 C1889 1.349 . S
C1890 C1902 1.349 . S
C1891 C1889 1.327 . S
C1891 C1907 1.429 . S
C1891 H1913 0.950 . S
C1892 H1888 0.949 . S
C1892 C1900 1.574 . S
C1892 C1908 1.368 . S
H1893 C1901 0.950 . S
H1894 C1899 0.950 . S
H1895 C1900 0.949 . S
H1896 C1902 0.950 . S
H1897 C1903 0.950 . S
H1898 C1904 0.949 . S
C1899 H1894 0.950 . S
C1899 C1901 1.327 . S
C1899 C1905 1.429 . S
C1900 C1892 1.574 . S
C1900 H1895 0.949 . S
C1900 C1906 1.368 . S
C1901 C1885 1.349 . S
C1901 H1893 0.950 . S
C1901 C1899 1.327 . S
C1902 C1890 1.349 . S
C1902 H1896 0.950 . S
C1902 C1903 1.327 . S
C1903 H1897 0.950 . S
C1903 C1902 1.327 . S
C1903 C1907 1.429 . S
C1904 C1887 1.574 . S
C1904 H1898 0.949 . S
C1904 C1908 1.368 . S
C1905 C1886 1.429 . S
C1905 C1899 1.429 . S
C1905 C1906 1.523 . S
C1906 C1887 1.368 . S
C1906 C1900 1.368 . S
C1906 C1905 1.523 . S
C1907 C1891 1.429 . S
C1907 C1903 1.429 . S
C1907 C1908 1.523 . S
C1908 C1892 1.368 . S
C1908 C1904 1.368 . S
C1908 C1907 1.523 . S
H1909 C1884 0.950 . S
H1910 C1886 0.950 . S
H1911 C1887 0.949 . S
H1912 C1889 0.950 . S
H1913 C1891 0.950 . S
C1914 C1915 1.349 . S
C1914 C1916 1.327 . S
C1914 H1939 0.950 . S
C1915 C1914 1.349 . S
C1915 C1931 1.349 . S
C1916 C1914 1.327 . S
C1916 C1935 1.429 . S
C1916 H1940 0.950 . S
C1917 C1934 1.574 . S
C1917 C1936 1.368 . S
C1917 H1941 0.949 . S
H1918 C1922 0.949 . S
C1919 C1920 1.349 . S
C1919 C1921 1.327 . S
C1919 H1942 0.950 . S
C1920 C1919 1.349 . S
C1920 C1932 1.349 . S
C1921 C1919 1.327 . S
C1921 C1937 1.429 . S
C1921 H1943 0.950 . S
C1922 H1918 0.949 . S
C1922 C1930 1.574 . S
C1922 C1938 1.368 . S
H1923 C1931 0.950 . S
H1924 C1929 0.950 . S
H1925 C1930 0.949 . S
H1926 C1932 0.950 . S
H1927 C1933 0.950 . S
H1928 C1934 0.949 . S
C1929 H1924 0.950 . S
C1929 C1931 1.327 . S
C1929 C1935 1.429 . S
C1930 C1922 1.574 . S
C1930 H1925 0.949 . S
C1930 C1936 1.368 . S
C1931 C1915 1.349 . S
C1931 H1923 0.950 . S
C1931 C1929 1.327 . S
C1932 C1920 1.349 . S
C1932 H1926 0.950 . S
C1932 C1933 1.327 . S
C1933 H1927 0.950 . S
C1933 C1932 1.327 . S
C1933 C1937 1.429 . S
C1934 C1917 1.574 . S
C1934 H1928 0.949 . S
C1934 C1938 1.368 . S
C1935 C1916 1.429 . S
C1935 C1929 1.429 . S
C1935 C1936 1.523 . S
C1936 C1917 1.368 . S
C1936 C1930 1.368 . S
C1936 C1935 1.523 . S
C1937 C1921 1.429 . S
C1937 C1933 1.429 . S
C1937 C1938 1.523 . S
C1938 C1922 1.368 . S
C1938 C1934 1.368 . S
C1938 C1937 1.523 . S
H1939 C1914 0.950 . S
H1940 C1916 0.950 . S
H1941 C1917 0.949 . S
H1942 C1919 0.950 . S
H1943 C1921 0.950 . S
C1944 C1945 1.349 . S
C1944 C1946 1.327 . S
C1944 H1969 0.950 . S
C1945 C1944 1.349 . S
C1945 C1961 1.349 . S
C1946 C1944 1.327 . S
C1946 C1965 1.429 . S
C1946 H1970 0.950 . S
C1947 C1964 1.574 . S
C1947 C1966 1.368 . S
C1947 H1971 0.949 . S
H1948 C1952 0.949 . S
C1949 C1950 1.349 . S
C1949 C1951 1.327 . S
C1949 H1972 0.950 . S
C1950 C1949 1.349 . S
C1950 C1962 1.349 . S
C1951 C1949 1.327 . S
C1951 C1967 1.429 . S
C1951 H1973 0.950 . S
C1952 H1948 0.949 . S
C1952 C1960 1.574 . S
C1952 C1968 1.368 . S
H1953 C1961 0.950 . S
H1954 C1959 0.950 . S
H1955 C1960 0.949 . S
H1956 C1962 0.950 . S
H1957 C1963 0.950 . S
H1958 C1964 0.949 . S
C1959 H1954 0.950 . S
C1959 C1961 1.327 . S
C1959 C1965 1.429 . S
C1960 C1952 1.574 . S
C1960 H1955 0.949 . S
C1960 C1966 1.368 . S
C1961 C1945 1.349 . S
C1961 H1953 0.950 . S
C1961 C1959 1.327 . S
C1962 C1950 1.349 . S
C1962 H1956 0.950 . S
C1962 C1963 1.327 . S
C1963 H1957 0.950 . S
C1963 C1962 1.327 . S
C1963 C1967 1.429 . S
C1964 C1947 1.574 . S
C1964 H1958 0.949 . S
C1964 C1968 1.368 . S
C1965 C1946 1.429 . S
C1965 C1959 1.429 . S
C1965 C1966 1.523 . S
C1966 C1947 1.368 . S
C1966 C1960 1.368 . S
C1966 C1965 1.523 . S
C1967 C1951 1.429 . S
C1967 C1963 1.429 . S
C1967 C1968 1.523 . S
C1968 C1952 1.368 . S
C1968 C1964 1.368 . S
C1968 C1967 1.523 . S
H1969 C1944 0.950 . S
H1970 C1946 0.950 . S
H1971 C1947 0.949 . S
H1972 C1949 0.950 . S
H1973 C1951 0.950 . S
C1974 C1975 1.349 . S
C1974 C1976 1.327 . S
C1974 H1999 0.950 . S
C1975 C1974 1.349 . S
C1975 C1991 1.349 . S
C1976 C1974 1.327 . S
C1976 C1995 1.429 . S
C1976 H2000 0.950 . S
C1977 C1994 1.574 . S
C1977 C1996 1.368 . S
C1977 H2001 0.949 . S
H1978 C1982 0.949 . S
C1979 C1980 1.349 . S
C1979 C1981 1.327 . S
C1979 H2002 0.950 . S
C1980 C1979 1.349 . S
C1980 C1992 1.349 . S
C1981 C1979 1.327 . S
C1981 C1997 1.429 . S
C1981 H2003 0.950 . S
C1982 H1978 0.949 . S
C1982 C1990 1.574 . S
C1982 C1998 1.368 . S
H1983 C1991 0.950 . S
H1984 C1989 0.950 . S
H1985 C1990 0.949 . S
H1986 C1992 0.950 . S
H1987 C1993 0.950 . S
H1988 C1994 0.949 . S
C1989 H1984 0.950 . S
C1989 C1991 1.327 . S
C1989 C1995 1.429 . S
C1990 C1982 1.574 . S
C1990 H1985 0.949 . S
C1990 C1996 1.368 . S
C1991 C1975 1.349 . S
C1991 H1983 0.950 . S
C1991 C1989 1.327 . S
C1992 C1980 1.349 . S
C1992 H1986 0.950 . S
C1992 C1993 1.327 . S
C1993 H1987 0.950 . S
C1993 C1992 1.327 . S
C1993 C1997 1.429 . S
C1994 C1977 1.574 . S
C1994 H1988 0.949 . S
C1994 C1998 1.368 . S
C1995 C1976 1.429 . S
C1995 C1989 1.429 . S
C1995 C1996 1.523 . S
C1996 C1977 1.368 . S
C1996 C1990 1.368 . S
C1996 C1995 1.523 . S
C1997 C1981 1.429 . S
C1997 C1993 1.429 . S
C1997 C1998 1.523 . S
C1998 C1982 1.368 . S
C1998 C1994 1.368 . S
C1998 C1997 1.523 . S
H1999 C1974 0.950 . S
H2000 C1976 0.950 . S
H2001 C1977 0.949 . S
H2002 C1979 0.950 . S
H2003 C1981 0.950 . S
C2004 C2005 1.349 . S
C2004 C2006 1.327 . S
C2004 H2029 0.950 . S
C2005 C2004 1.349 . S
C2005 C2021 1.349 . S
C2006 C2004 1.327 . S
C2006 C2025 1.429 . S
C2006 H2030 0.950 . S
C2007 C2024 1.574 . S
C2007 C2026 1.368 . S
C2007 H2031 0.949 . S
H2008 C2012 0.949 . S
C2009 C2010 1.349 . S
C2009 C2011 1.327 . S
C2009 H2032 0.950 . S
C2010 C2009 1.349 . S
C2010 C2022 1.349 . S
C2011 C2009 1.327 . S
C2011 C2027 1.429 . S
C2011 H2033 0.950 . S
C2012 H2008 0.949 . S
C2012 C2020 1.574 . S
C2012 C2028 1.368 . S
H2013 C2021 0.950 . S
H2014 C2019 0.950 . S
H2015 C2020 0.949 . S
H2016 C2022 0.950 . S
H2017 C2023 0.950 . S
H2018 C2024 0.949 . S
C2019 H2014 0.950 . S
C2019 C2021 1.327 . S
C2019 C2025 1.429 . S
C2020 C2012 1.574 . S
C2020 H2015 0.949 . S
C2020 C2026 1.368 . S
C2021 C2005 1.349 . S
C2021 H2013 0.950 . S
C2021 C2019 1.327 . S
C2022 C2010 1.349 . S
C2022 H2016 0.950 . S
C2022 C2023 1.327 . S
C2023 H2017 0.950 . S
C2023 C2022 1.327 . S
C2023 C2027 1.429 . S
C2024 C2007 1.574 . S
C2024 H2018 0.949 . S
C2024 C2028 1.368 . S
C2025 C2006 1.429 . S
C2025 C2019 1.429 . S
C2025 C2026 1.523 . S
C2026 C2007 1.368 . S
C2026 C2020 1.368 . S
C2026 C2025 1.523 . S
C2027 C2011 1.429 . S
C2027 C2023 1.429 . S
C2027 C2028 1.523 . S
C2028 C2012 1.368 . S
C2028 C2024 1.368 . S
C2028 C2027 1.523 . S
H2029 C2004 0.950 . S
H2030 C2006 0.950 . S
H2031 C2007 0.949 . S
H2032 C2009 0.950 . S
H2033 C2011 0.950 . S
C2034 C2035 1.349 . S
C2034 C2036 1.327 . S
C2034 H2059 0.950 . S
C2035 C2034 1.349 . S
C2035 C2051 1.349 . S
C2036 C2034 1.327 . S
C2036 C2055 1.429 . S
C2036 H2060 0.950 . S
C2037 C2054 1.574 . S
C2037 C2056 1.368 . S
C2037 H2061 0.949 . S
H2038 C2042 0.949 . S
C2039 C2040 1.349 . S
C2039 C2041 1.327 . S
C2039 H2062 0.950 . S
C2040 C2039 1.349 . S
C2040 C2052 1.349 . S
C2041 C2039 1.327 . S
C2041 C2057 1.429 . S
C2041 H2063 0.950 . S
C2042 H2038 0.949 . S
C2042 C2050 1.574 . S
C2042 C2058 1.368 . S
H2043 C2051 0.950 . S
H2044 C2049 0.950 . S
H2045 C2050 0.949 . S
H2046 C2052 0.950 . S
H2047 C2053 0.950 . S
H2048 C2054 0.949 . S
C2049 H2044 0.950 . S
C2049 C2051 1.327 . S
C2049 C2055 1.429 . S
C2050 C2042 1.574 . S
C2050 H2045 0.949 . S
C2050 C2056 1.368 . S
C2051 C2035 1.349 . S
C2051 H2043 0.950 . S
C2051 C2049 1.327 . S
C2052 C2040 1.349 . S
C2052 H2046 0.950 . S
C2052 C2053 1.327 . S
C2053 H2047 0.950 . S
C2053 C2052 1.327 . S
C2053 C2057 1.429 . S
C2054 C2037 1.574 . S
C2054 H2048 0.949 . S
C2054 C2058 1.368 . S
C2055 C2036 1.429 . S
C2055 C2049 1.429 . S
C2055 C2056 1.523 . S
C2056 C2037 1.368 . S
C2056 C2050 1.368 . S
C2056 C2055 1.523 . S
C2057 C2041 1.429 . S
C2057 C2053 1.429 . S
C2057 C2058 1.523 . S
C2058 C2042 1.368 . S
C2058 C2054 1.368 . S
C2058 C2057 1.523 . S
H2059 C2034 0.950 . S
H2060 C2036 0.950 . S
H2061 C2037 0.949 . S
H2062 C2039 0.950 . S
H2063 C2041 0.950 . S
C2064 C2065 1.349 . S
C2064 C2066 1.327 . S
C2064 H2089 0.950 . S
C2065 C2064 1.349 . S
C2065 C2081 1.349 . S
C2066 C2064 1.327 . S
C2066 C2085 1.429 . S
C2066 H2090 0.950 . S
C2067 C2084 1.571 1_556 S
C2067 C2086 1.391 . S
C2067 H2091 0.932 1_556 S
H2068 C2072 0.949 . S
C2069 C2070 1.304 1_554 S
C2069 C2071 1.327 . S
C2069 H2092 0.950 . S
C2070 C2069 1.304 1_556 S
C2070 C2082 1.404 . S
C2071 C2069 1.327 . S
C2071 C2087 1.429 1_554 S
C2071 H2093 0.950 . S
C2072 H2068 0.949 . S
C2072 C2080 1.574 . S
C2072 C2088 1.368 . S
H2073 C2081 0.950 . S
H2074 C2079 0.950 1_554 S
H2075 C2080 0.949 . S
H2076 C2082 0.950 . S
H2077 C2083 0.950 . S
H2078 C2084 0.949 . S
C2079 H2074 0.950 1_556 S
C2079 C2081 1.327 . S
C2079 C2085 1.429 . S
C2080 C2072 1.574 . S
C2080 H2075 0.949 . S
C2080 C2086 1.368 . S
C2081 C2065 1.349 . S
C2081 H2073 0.950 . S
C2081 C2079 1.327 . S
C2082 C2070 1.404 . S
C2082 H2076 0.950 . S
C2082 C2083 1.327 . S
C2083 H2077 0.950 . S
C2083 C2082 1.327 . S
C2083 C2087 1.429 . S
C2084 C2067 1.571 1_554 S
C2084 H2078 0.949 . S
C2084 C2088 1.368 1_554 S
C2085 C2066 1.429 . S
C2085 C2079 1.429 . S
C2085 C2086 1.523 . S
C2086 C2067 1.391 . S
C2086 C2080 1.368 . S
C2086 C2085 1.523 . S
C2087 C2071 1.429 1_556 S
C2087 C2083 1.429 . S
C2087 C2088 1.523 . S
C2088 C2072 1.368 . S
C2088 C2084 1.368 1_556 S
C2088 C2087 1.523 . S
H2089 C2064 0.950 . S
H2090 C2066 0.950 . S
H2091 C2067 0.932 1_554 S
H2092 C2069 0.950 . S
H2093 C2071 0.950 . S
C2094 C2095 1.349 . S
C2094 C2096 1.327 . S
C2094 H2119 0.950 . S
C2095 C2094 1.349 . S
C2095 C2111 1.349 . S
C2096 C2094 1.327 . S
C2096 C2115 1.429 . S
C2096 H2120 0.950 . S
C2097 C2114 1.574 . S
C2097 C2116 1.368 . S
C2097 H2121 0.949 . S
H2098 C2102 0.949 . S
C2099 C2100 1.349 . S
C2099 C2101 1.327 . S
C2099 H2122 0.950 . S
C2100 C2099 1.349 . S
C2100 C2112 1.349 . S
C2101 C2099 1.327 . S
C2101 C2117 1.429 . S
C2101 H2123 0.950 . S
C2102 H2098 0.949 . S
C2102 C2110 1.574 . S
C2102 C2118 1.368 . S
H2103 C2111 0.950 . S
H2104 C2109 0.950 . S
H2105 C2110 0.949 . S
H2106 C2112 0.950 . S
H2107 C2113 0.950 . S
H2108 C2114 0.949 . S
C2109 H2104 0.950 . S
C2109 C2111 1.327 . S
C2109 C2115 1.429 . S
C2110 C2102 1.574 . S
C2110 H2105 0.949 . S
C2110 C2116 1.368 . S
C2111 C2095 1.349 . S
C2111 H2103 0.950 . S
C2111 C2109 1.327 . S
C2112 C2100 1.349 . S
C2112 H2106 0.950 . S
C2112 C2113 1.327 . S
C2113 H2107 0.950 . S
C2113 C2112 1.327 . S
C2113 C2117 1.429 . S
C2114 C2097 1.574 . S
C2114 H2108 0.949 . S
C2114 C2118 1.368 . S
C2115 C2096 1.429 . S
C2115 C2109 1.429 . S
C2115 C2116 1.523 . S
C2116 C2097 1.368 . S
C2116 C2110 1.368 . S
C2116 C2115 1.523 . S
C2117 C2101 1.429 . S
C2117 C2113 1.429 . S
C2117 C2118 1.523 . S
C2118 C2102 1.368 . S
C2118 C2114 1.368 . S
C2118 C2117 1.523 . S
H2119 C2094 0.950 . S
H2120 C2096 0.950 . S
H2121 C2097 0.949 . S
H2122 C2099 0.950 . S
H2123 C2101 0.950 . S
C2124 C2125 1.349 . S
C2124 C2126 1.327 . S
C2124 H2149 0.950 . S
C2125 C2124 1.349 . S
C2125 C2141 1.349 . S
C2126 C2124 1.327 . S
C2126 C2145 1.429 . S
C2126 H2150 0.950 . S
C2127 C2144 1.574 . S
C2127 C2146 1.368 . S
C2127 H2151 0.949 . S
H2128 C2132 0.949 . S
C2129 C2130 1.349 . S
C2129 C2131 1.327 . S
C2129 H2152 0.950 1_554 S
C2130 C2129 1.349 . S
C2130 C2142 1.349 . S
C2131 C2129 1.327 . S
C2131 C2147 1.429 . S
C2131 H2153 0.963 . S
C2132 H2128 0.949 . S
C2132 C2140 1.574 . S
C2132 C2148 1.368 . S
H2133 C2141 0.950 . S
H2134 C2139 0.950 . S
H2135 C2140 0.949 . S
H2136 C2142 0.950 . S
H2137 C2143 0.950 . S
H2138 C2144 0.949 . S
C2139 H2134 0.950 . S
C2139 C2141 1.327 . S
C2139 C2145 1.429 . S
C2140 C2132 1.574 . S
C2140 H2135 0.949 . S
C2140 C2146 1.368 . S
C2141 C2125 1.349 . S
C2141 H2133 0.950 . S
C2141 C2139 1.327 . S
C2142 C2130 1.349 . S
C2142 H2136 0.950 . S
C2142 C2143 1.327 . S
C2143 H2137 0.950 . S
C2143 C2142 1.327 . S
C2143 C2147 1.429 . S
C2144 C2127 1.574 . S
C2144 H2138 0.949 . S
C2144 C2148 1.368 . S
C2145 C2126 1.429 . S
C2145 C2139 1.429 . S
C2145 C2146 1.523 . S
C2146 C2127 1.368 . S
C2146 C2140 1.368 . S
C2146 C2145 1.523 . S
C2147 C2131 1.429 . S
C2147 C2143 1.429 . S
C2147 C2148 1.523 . S
C2148 C2132 1.368 . S
C2148 C2144 1.368 . S
C2148 C2147 1.523 . S
H2149 C2124 0.950 . S
H2150 C2126 0.950 . S
H2151 C2127 0.949 . S
H2152 C2129 0.950 1_556 S
H2153 C2131 0.963 . S
C2154 C2155 1.349 . S
C2154 C2156 1.327 . S
C2154 H2179 1.011 . S
C2155 C2154 1.349 . S
C2155 C2171 1.349 . S
C2156 C2154 1.327 . S
C2156 C2175 1.429 . S
C2156 H2180 0.950 . S
C2157 C2174 1.574 . S
C2157 C2176 1.368 . S
C2157 H2181 0.949 . S
H2158 C2162 0.949 . S
C2159 C2160 1.349 . S
C2159 C2161 1.327 . S
C2159 H2182 0.950 1_554 S
C2160 C2159 1.349 . S
C2160 C2172 1.349 . S
C2161 C2159 1.327 . S
C2161 C2177 1.429 . S
C2161 H2183 0.950 1_554 S
C2162 H2158 0.949 . S
C2162 C2170 1.574 . S
C2162 C2178 1.368 . S
H2163 C2171 0.950 . S
H2164 C2169 0.950 . S
H2165 C2170 0.949 . S
H2166 C2172 0.950 . S
H2167 C2173 0.950 . S
H2168 C2174 0.923 1_556 S
C2169 H2164 0.950 . S
C2169 C2171 1.327 . S
C2169 C2175 1.429 . S
C2170 C2162 1.574 . S
C2170 H2165 0.949 . S
C2170 C2176 1.368 . S
C2171 C2155 1.349 . S
C2171 H2163 0.950 . S
C2171 C2169 1.327 . S
C2172 C2160 1.349 . S
C2172 H2166 0.950 . S
C2172 C2173 1.327 . S
C2173 H2167 0.950 . S
C2173 C2172 1.327 . S
C2173 C2177 1.429 . S
C2174 C2157 1.574 . S
C2174 H2168 0.923 1_554 S
C2174 C2178 1.368 . S
C2175 C2156 1.429 . S
C2175 C2169 1.429 . S
C2175 C2176 1.523 . S
C2176 C2157 1.368 . S
C2176 C2170 1.368 . S
C2176 C2175 1.523 . S
C2177 C2161 1.429 . S
C2177 C2173 1.429 . S
C2177 C2178 1.523 . S
C2178 C2162 1.368 . S
C2178 C2174 1.368 . S
C2178 C2177 1.523 . S
H2179 C2154 1.011 . S
H2180 C2156 0.950 . S
H2181 C2157 0.949 . S
H2182 C2159 0.950 1_556 S
H2183 C2161 0.950 1_556 S
C750 C587 1.425 . S
C745 C181 1.441 . S
C780 C595 1.289 . S
C775 C247 1.548 . S
C805 C283 1.425 . S
C810 C615 1.410 . S
C840 C629 1.504 . S
C835 C169 1.520 1_655 S
C870 C644 1.538 . S
C865 C361 1.535 . S
C900 C658 1.512 . S
C895 C433 1.502 . S
C925 C421 1.567 . S
C930 C672 1.573 . S
C960 C678 1.451 . S
C955 C355 1.492 . S
C985 C427 1.533 . S
C990 C692 1.502 . S
C1020 C713 1.544 . S
C1015 C325 1.567 . S
C1045 C385 1.453 . S
C1050 C693 1.228 . S
C1080 C714 1.546 . S
C1075 C463 1.533 . S
C1105 C253 1.480 . S
C1110 C721 1.236 . S
C1135 C145 1.512 . S
C1140 C727 1.497 . S
C1165 C205 1.481 . S
C1170 C720 1.446 . S
C1195 C217 1.466 . S
C1200 C728 1.467 . S
C1225 C139 1.504 . S
C1230 C622 1.468 . S
C1255 C535 1.483 . S
C1260 C623 1.248 . S
C1290 C580 1.503 . S
C1285 C565 1.548 . S
C1320 C601 1.428 . S
C1315 C313 1.443 . S
C1345 C175 1.500 . S
C1350 C636 1.466 . S
C1380 C686 1.530 . S
C1375 C397 1.523 . S
C1410 C637 1.209 . S
C1405 C349 1.439 . S
C1440 C665 1.298 . S
C1435 C457 1.556 . S
C1470 C671 1.425 . S
C1465 C505 1.441 . S
C1495 C571 1.548 . S
C1500 C679 1.289 . S
C1525 C319 1.425 . S
C1530 C643 1.410 . S
C1560 C657 1.504 . S
C1555 C493 1.520 . S
C1585 C109 1.535 . S
C1590 C616 1.538 . S
C1620 C630 1.512 . S
C1615 C1 1.502 . S
C1650 C588 1.573 . S
C1645 C61 1.567 . S
C1680 C594 1.451 . S
C1675 C103 1.491 . S
C1705 C67 1.533 . S
C1710 C706 1.502 . S
C1735 C73 1.567 1_556 S
C1740 C699 1.544 . S
C1765 C133 1.453 . S
C1770 C707 1.228 . S
C1795 C31 1.533 . S
C1800 C700 1.546 . S
C1830 C735 1.236 . S
C1825 C289 1.479 . S
C1860 C741 1.497 . S
C1855 C469 1.512 . S
C1890 C734 1.447 . S
C1885 C529 1.482 . S
C1915 C541 1.466 . S
C1920 C742 1.467 . S
C1945 C391 1.505 . S
C1950 C650 1.468 . S
C1980 C651 1.248 . S
C1975 C211 1.483 . S
C2010 C664 1.503 . S
C2005 C241 1.548 . S
C2040 C685 1.429 . S
C2035 C277 1.446 . S
C2065 C499 1.500 . S
C2070 C608 1.462 1_556 S
C2100 C602 1.530 . S
C2095 C37 1.526 . S
C2125 C97 1.439 . S
C2130 C609 1.209 . S
C2160 C581 1.298 . S
C2155 C25 1.556 . S
