# Generated by pormake.
# Topology dag, (6,3)-cn, num edge types: 1
# Building blocks:
#     Node 0, Type 0, BuildingBlock: IZENUY_clean_sbu_0, # of connection points: 6
#     Node 1, Type 0, BuildingBlock: IZENUY_clean_sbu_0, # of connection points: 6
#     Node 2, Type 0, BuildingBlock: IZENUY_clean_sbu_0, # of connection points: 6
#     Node 3, Type 0, BuildingBlock: IZENUY_clean_sbu_0, # of connection points: 6
#     Node 4, Type 1, BuildingBlock: KAKCAD_clean_linker_0, # of connection points: 3
#     Node 5, Type 1, BuildingBlock: KAKCAD_clean_linker_0, # of connection points: 3
#     Node 6, Type 1, BuildingBlock: KAKCAD_clean_linker_0, # of connection points: 3
#     Node 7, Type 1, BuildingBlock: KAKCAD_clean_linker_0, # of connection points: 3
#     Node 8, Type 1, BuildingBlock: KAKCAD_clean_linker_0, # of connection points: 3
#     Node 9, Type 1, BuildingBlock: KAKCAD_clean_linker_0, # of connection points: 3
#     Node 10, Type 1, BuildingBlock: KAKCAD_clean_linker_0, # of connection points: 3
#     Node 11, Type 1, BuildingBlock: KAKCAD_clean_linker_0, # of connection points: 3
#     Edge 12, Type (0, 1), BuildingBlock: MIFKUJ_clean_linker_0, # of connection points: 2
#     Edge 13, Type (0, 1), BuildingBlock: MIFKUJ_clean_linker_0, # of connection points: 2
#     Edge 14, Type (0, 1), BuildingBlock: MIFKUJ_clean_linker_0, # of connection points: 2
#     Edge 15, Type (0, 1), BuildingBlock: MIFKUJ_clean_linker_0, # of connection points: 2
#     Edge 16, Type (0, 1), BuildingBlock: MIFKUJ_clean_linker_0, # of connection points: 2
#     Edge 17, Type (0, 1), BuildingBlock: MIFKUJ_clean_linker_0, # of connection points: 2
#     Edge 18, Type (0, 1), BuildingBlock: MIFKUJ_clean_linker_0, # of connection points: 2
#     Edge 19, Type (0, 1), BuildingBlock: MIFKUJ_clean_linker_0, # of connection points: 2
#     Edge 20, Type (0, 1), BuildingBlock: MIFKUJ_clean_linker_0, # of connection points: 2
#     Edge 21, Type (0, 1), BuildingBlock: MIFKUJ_clean_linker_0, # of connection points: 2
#     Edge 22, Type (0, 1), BuildingBlock: MIFKUJ_clean_linker_0, # of connection points: 2
#     Edge 23, Type (0, 1), BuildingBlock: MIFKUJ_clean_linker_0, # of connection points: 2
#     Edge 24, Type (0, 1), BuildingBlock: MIFKUJ_clean_linker_0, # of connection points: 2
#     Edge 25, Type (0, 1), BuildingBlock: MIFKUJ_clean_linker_0, # of connection points: 2
#     Edge 26, Type (0, 1), BuildingBlock: MIFKUJ_clean_linker_0, # of connection points: 2
#     Edge 27, Type (0, 1), BuildingBlock: MIFKUJ_clean_linker_0, # of connection points: 2
#     Edge 28, Type (0, 1), BuildingBlock: MIFKUJ_clean_linker_0, # of connection points: 2
#     Edge 29, Type (0, 1), BuildingBlock: MIFKUJ_clean_linker_0, # of connection points: 2
#     Edge 30, Type (0, 1), BuildingBlock: MIFKUJ_clean_linker_0, # of connection points: 2
#     Edge 31, Type (0, 1), BuildingBlock: MIFKUJ_clean_linker_0, # of connection points: 2
#     Edge 32, Type (0, 1), BuildingBlock: MIFKUJ_clean_linker_0, # of connection points: 2
#     Edge 33, Type (0, 1), BuildingBlock: MIFKUJ_clean_linker_0, # of connection points: 2
#     Edge 34, Type (0, 1), BuildingBlock: MIFKUJ_clean_linker_0, # of connection points: 2
#     Edge 35, Type (0, 1), BuildingBlock: MIFKUJ_clean_linker_0, # of connection points: 2
# Relax obj value: 0.254
# Max RMSD: 0.193
# Mean RMSD: 0.159
data_MOF--net-dag--node1-IZENUY_clean_sbu_0--node2-KAKCAD_clean_linker_0--edge1-MIFKUJ_clean_linker_0
_symmetry_space_group_name_H-M    P1
_symmetry_Int_Tables_number       1
_symmetry_cell_setting            triclinic
loop_
_symmetry_equiv_pos_as_xyz
'x, y, z'
_cell_length_a     57.928188
_cell_length_b     60.355974
_cell_length_c     51.025724
_cell_angle_alpha  95.105818
_cell_angle_beta   90.183953
_cell_angle_gamma 90.051238
loop_
_atom_site_label
_atom_site_type_symbol
_atom_site_fract_x
_atom_site_fract_y
_atom_site_fract_z
_atom_type_partial_charge
Fe0 Fe 0.18702 0.84276 0.08832 0.0
Fe1 Fe 0.14335 0.85537 0.05918 0.0
O2 O 0.16202 0.83477 0.06969 0.0
Fe3 Fe 0.15567 0.80614 0.06168 0.0
O4 O 0.15405 0.80124 0.09613 0.0
O5 O 0.18635 0.8187 0.10779 0.0
O6 O 0.17011 0.85728 0.11423 0.0
C7 C 0.15586 0.87252 0.11081 0.0
C8 C 0.20412 0.80851 0.05547 0.0
O9 O 0.14817 0.87524 0.08806 0.0
C10 C 0.14494 0.82306 0.01536 0.0
O11 O 0.19204 0.86844 0.0724 0.0
O12 O 0.16614 0.86744 0.04081 0.0
O13 O 0.18606 0.79745 0.05948 0.0
O14 O 0.20559 0.8288 0.06361 0.0
C15 C 0.1118 0.82505 0.07348 0.0
O16 O 0.13522 0.83925 0.02842 0.0
O17 O 0.15674 0.80914 0.02665 0.0
C18 C 0.18498 0.8746 0.05069 0.0
O19 O 0.11931 0.84471 0.07689 0.0
O20 O 0.12411 0.80965 0.06236 0.0
C21 C 0.16967 0.80624 0.11287 0.0
Fe22 Fe 0.68388 0.65621 0.48267 0.0
Fe23 Fe 0.65012 0.6918 0.50587 0.0
O24 O 0.65724 0.66348 0.49795 0.0
Fe25 Fe 0.63772 0.64238 0.50515 0.0
O26 O 0.65861 0.63041 0.52634 0.0
O27 O 0.6871 0.63001 0.49806 0.0
O28 O 0.69987 0.66952 0.51026 0.0
C29 C 0.69772 0.68971 0.51862 0.0
C30 C 0.65496 0.627 0.45508 0.0
O31 O 0.68009 0.70071 0.51272 0.0
C32 C 0.60785 0.67255 0.48716 0.0
O33 O 0.68549 0.68104 0.46449 0.0
O34 O 0.65206 0.69752 0.47166 0.0
O35 O 0.64576 0.62317 0.47672 0.0
O36 O 0.66943 0.64251 0.45411 0.0
C37 C 0.63419 0.67387 0.54959 0.0
O38 O 0.61891 0.68791 0.50035 0.0
O39 O 0.61566 0.65299 0.48445 0.0
C40 C 0.66959 0.69361 0.45743 0.0
O41 O 0.6476 0.68782 0.54062 0.0
O42 O 0.62603 0.65781 0.53473 0.0
C43 C 0.67831 0.62369 0.51884 0.0
Fe44 Fe 0.847 0.19908 0.02173 0.0
Fe45 Fe 0.86148 0.14999 0.01458 0.0
O46 O 0.84136 0.17117 0.00921 0.0
Fe47 Fe 0.81564 0.16421 0.99134 0.0
O48 O 0.82279 0.18272 0.96692 0.0
O49 O 0.83324 0.21157 0.99395 0.0
O50 O 0.87387 0.20003 0.00368 0.0
C51 C 0.89 0.18617 0.00473 0.0
C52 C 0.8007 0.19623 0.03173 0.0
O53 O 0.8869 0.16789 0.01445 0.0
C54 C 0.81849 0.1286 0.02035 0.0
O55 O 0.86183 0.1914 0.05158 0.0
O56 O 0.8584 0.15497 0.04987 0.0
O57 O 0.79781 0.18541 0.00957 0.0
O58 O 0.82065 0.2003 0.04081 0.0
C59 C 0.84993 0.13839 0.96336 0.0
O60 O 0.8399 0.1279 0.01558 0.0
O61 O 0.8066 0.14501 0.01477 0.0
C62 C 0.86173 0.17348 0.06285 0.0
O63 O 0.8658 0.14385 0.97962 0.0
O64 O 0.82895 0.14191 0.96942 0.0
C65 C 0.82754 0.20307 0.97123 0.0
Fe66 Fe 0.36142 0.3524 0.56489 0.0
Fe67 Fe 0.31611 0.34121 0.59118 0.0
O68 O 0.34193 0.33245 0.57506 0.0
Fe69 Fe 0.34836 0.30377 0.56905 0.0
O70 O 0.3799 0.30748 0.57212 0.0
O71 O 0.38385 0.34284 0.58585 0.0
O72 O 0.35473 0.37364 0.59175 0.0
C73 C 0.34657 0.37151 0.61436 0.0
C74 C 0.362 0.31883 0.52276 0.0
O75 O 0.33189 0.3566 0.61767 0.0
C76 C 0.30042 0.30583 0.55902 0.0
O77 O 0.33997 0.36297 0.54341 0.0
O78 O 0.31248 0.36607 0.5731 0.0
O79 O 0.34902 0.30565 0.5337 0.0
O80 O 0.37175 0.33486 0.53619 0.0
C81 C 0.33146 0.30551 0.61908 0.0
O82 O 0.29879 0.32638 0.56569 0.0
O83 O 0.31804 0.29495 0.5651 0.0
C84 C 0.32053 0.37032 0.55101 0.0
O85 O 0.31533 0.31794 0.61208 0.0
O86 O 0.34809 0.30028 0.60389 0.0
C87 C 0.39134 0.32318 0.5842 0.0
C88 C 0.99519 0.16923 0.30954 0.0
C89 C 0.97593 0.15506 0.30572 0.0
C90 C 0.01387 0.16337 0.3249 0.0
C91 C 0.01373 0.14315 0.33655 0.0
C92 C 0.99391 0.1297 0.33417 0.0
C93 C 0.97515 0.13565 0.31905 0.0
C94 C 0.03517 0.13478 0.34808 0.0
C95 C 0.04853 0.14837 0.36601 0.0
C96 C 0.07004 0.141 0.37482 0.0
C97 C 0.0779 0.11967 0.3654 0.0
C98 C 0.06468 0.10588 0.3475 0.0
C99 C 0.04328 0.11359 0.33912 0.0
C100 C 0.07376 0.08414 0.33584 0.0
C101 C 0.09705 0.08191 0.32829 0.0
C102 C 0.0588 0.06593 0.33032 0.0
C103 C 0.0666 0.04647 0.31629 0.0
C104 C 0.0896 0.04467 0.30779 0.0
C105 C 0.0849 0.15583 0.39272 0.0
C106 C 0.08587 0.17885 0.39028 0.0
C107 C 0.09904 0.14695 0.41164 0.0
C108 C 0.11441 0.16051 0.42689 0.0
C109 C 0.11576 0.18346 0.42408 0.0
C110 C 0.10095 0.1925 0.4059 0.0
C111 C 0.10491 0.06232 0.31452 0.0
H112 H 0.99651 0.18419 0.29938 0.0
H113 H 0.02903 0.17394 0.32624 0.0
H114 H 0.9933 0.11414 0.34322 0.0
H115 H 0.96038 0.12462 0.31702 0.0
H116 H 0.0421 0.16467 0.37301 0.0
H117 H 0.03342 0.10357 0.32435 0.0
H118 H 0.09462 0.11395 0.37149 0.0
H119 H 0.109 0.09566 0.33188 0.0
H120 H 0.04089 0.0669 0.33632 0.0
H121 H 0.05453 0.03296 0.31162 0.0
H122 H 0.07547 0.18633 0.37578 0.0
H123 H 0.09849 0.1294 0.41452 0.0
H124 H 0.12269 0.06141 0.30799 0.0
H125 H 0.10108 0.21014 0.40349 0.0
H126 H 0.12567 0.15278 0.44038 0.0
C127 C 0.40283 0.5618 0.81076 0.0
C128 C 0.41971 0.54546 0.80482 0.0
C129 C 0.40905 0.58282 0.82232 0.0
C130 C 0.43227 0.58791 0.82849 0.0
C131 C 0.44897 0.57113 0.82364 0.0
C132 C 0.44278 0.55019 0.81175 0.0
C133 C 0.43917 0.61102 0.83809 0.0
C134 C 0.42476 0.62444 0.85497 0.0
C135 C 0.43003 0.64698 0.86181 0.0
C136 C 0.45031 0.65599 0.85202 0.0
C137 C 0.46514 0.64271 0.83558 0.0
C138 C 0.45948 0.62032 0.82876 0.0
C139 C 0.4856 0.6524 0.82351 0.0
C140 C 0.48327 0.67122 0.80944 0.0
C141 C 0.50704 0.64159 0.82376 0.0
C142 C 0.52551 0.64883 0.80916 0.0
C143 C 0.52282 0.6668 0.79364 0.0
C144 C 0.41377 0.66125 0.87823 0.0
C145 C 0.38986 0.65951 0.87372 0.0
C146 C 0.42192 0.67673 0.89837 0.0
C147 C 0.40646 0.68996 0.91387 0.0
C148 C 0.38252 0.688 0.90953 0.0
C149 C 0.37444 0.67271 0.88917 0.0
C150 C 0.50163 0.67828 0.79454 0.0
H151 H 0.38495 0.55868 0.80532 0.0
H152 H 0.39573 0.59536 0.82533 0.0
H153 H 0.46694 0.57427 0.8286 0.0
H154 H 0.45609 0.53778 0.80764 0.0
H155 H 0.40934 0.61733 0.8628 0.0
H156 H 0.47036 0.6105 0.81495 0.0
H157 H 0.45434 0.67344 0.85668 0.0
H158 H 0.46683 0.6797 0.80874 0.0
H159 H 0.5093 0.62716 0.83469 0.0
H160 H 0.54169 0.63989 0.80942 0.0
H161 H 0.38304 0.64809 0.858 0.0
H162 H 0.44023 0.67834 0.90247 0.0
H163 H 0.49873 0.69197 0.78258 0.0
H164 H 0.35615 0.67109 0.88495 0.0
H165 H 0.41322 0.7014 0.92959 0.0
C166 C 0.85807 0.79658 0.14058 0.0
C167 C 0.87605 0.81199 0.14624 0.0
C168 C 0.83499 0.80304 0.14418 0.0
C169 C 0.8295 0.82506 0.15327 0.0
C170 C 0.8475 0.84023 0.15962 0.0
C171 C 0.87046 0.83379 0.15613 0.0
C172 C 0.80518 0.83269 0.15533 0.0
C173 C 0.78838 0.82036 0.16743 0.0
C174 C 0.76572 0.82854 0.17092 0.0
C175 C 0.75989 0.84909 0.16161 0.0
C176 C 0.77657 0.86153 0.14945 0.0
C177 C 0.79902 0.85308 0.14616 0.0
C178 C 0.77128 0.88381 0.14095 0.0
C179 C 0.75198 0.88731 0.12508 0.0
C180 C 0.78669 0.90145 0.14731 0.0
C181 C 0.78373 0.92174 0.13676 0.0
C182 C 0.76529 0.92488 0.11955 0.0
C183 C 0.74899 0.81652 0.18648 0.0
C184 C 0.74739 0.79321 0.18311 0.0
C185 C 0.73606 0.82815 0.20651 0.0
C186 C 0.72292 0.81663 0.22378 0.0
C187 C 0.72241 0.79326 0.22137 0.0
C188 C 0.73422 0.7817 0.20035 0.0
C189 C 0.749 0.90774 0.11443 0.0
H190 H 0.86185 0.77961 0.13312 0.0
H191 H 0.82145 0.79101 0.13913 0.0
H192 H 0.84381 0.85723 0.16703 0.0
H193 H 0.88381 0.84618 0.16037 0.0
H194 H 0.79329 0.80497 0.17538 0.0
H195 H 0.81184 0.8625 0.13637 0.0
H196 H 0.74259 0.85568 0.16444 0.0
H197 H 0.73984 0.87395 0.11993 0.0
H198 H 0.80143 0.89935 0.15999 0.0
H199 H 0.79624 0.93484 0.14155 0.0
H200 H 0.75688 0.78383 0.16759 0.0
H201 H 0.73713 0.8461 0.20981 0.0
H202 H 0.73463 0.90976 0.10122 0.0
H203 H 0.73386 0.76369 0.19773 0.0
H204 H 0.71428 0.82604 0.23995 0.0
C205 C 0.64383 0.31444 0.66224 0.0
C206 C 0.63377 0.31478 0.6372 0.0
C207 C 0.6674 0.31843 0.66586 0.0
C208 C 0.68143 0.32293 0.64453 0.0
C209 C 0.67154 0.32244 0.6193 0.0
C210 C 0.64794 0.3183 0.61564 0.0
C211 C 0.70575 0.32996 0.64922 0.0
C212 C 0.71965 0.31937 0.66685 0.0
C213 C 0.74138 0.32804 0.67466 0.0
C214 C 0.74949 0.34724 0.66393 0.0
C215 C 0.73596 0.35777 0.6458 0.0
C216 C 0.71423 0.3489 0.6384 0.0
C217 C 0.74297 0.37942 0.63676 0.0
C218 C 0.74955 0.39704 0.65512 0.0
C219 C 0.74048 0.38337 0.61019 0.0
C220 C 0.74332 0.40478 0.60233 0.0
C221 C 0.74848 0.42268 0.62095 0.0
C222 C 0.75457 0.31798 0.69559 0.0
C223 C 0.7429 0.31111 0.71757 0.0
C224 C 0.77867 0.31527 0.69403 0.0
C225 C 0.79072 0.30549 0.71387 0.0
C226 C 0.77885 0.2982 0.7355 0.0
C227 C 0.75487 0.30131 0.73721 0.0
C228 C 0.75217 0.41851 0.6473 0.0
H229 H 0.63335 0.31156 0.67915 0.0
H230 H 0.67443 0.31893 0.6856 0.0
H231 H 0.68197 0.32573 0.60249 0.0
H232 H 0.64062 0.31878 0.59614 0.0
H233 H 0.71325 0.30455 0.67496 0.0
H234 H 0.70323 0.3577 0.62558 0.0
H235 H 0.76592 0.35446 0.67034 0.0
H236 H 0.7514 0.39448 0.67577 0.0
H237 H 0.73548 0.37003 0.59566 0.0
H238 H 0.7402 0.40751 0.58193 0.0
H239 H 0.72446 0.31353 0.71978 0.0
H240 H 0.78812 0.32037 0.6773 0.0
H241 H 0.75632 0.432 0.66201 0.0
H242 H 0.74533 0.29639 0.75399 0.0
H243 H 0.80922 0.30328 0.71207 0.0
C244 C 0.58792 0.44352 0.24774 0.0
C245 C 0.5895 0.44907 0.27504 0.0
C246 C 0.57881 0.42294 0.23783 0.0
C247 C 0.57083 0.40771 0.25507 0.0
C248 C 0.5722 0.41344 0.28233 0.0
C249 C 0.58142 0.43385 0.29218 0.0
C250 C 0.56176 0.38554 0.24505 0.0
C251 C 0.57383 0.3722 0.22576 0.0
C252 C 0.56698 0.35009 0.21879 0.0
C253 C 0.54747 0.34157 0.23079 0.0
C254 C 0.53513 0.35478 0.24995 0.0
C255 C 0.54223 0.3768 0.25668 0.0
C256 C 0.51619 0.34511 0.26479 0.0
C257 C 0.49872 0.33212 0.25186 0.0
C258 C 0.51578 0.34873 0.29235 0.0
C259 C 0.49826 0.33968 0.30671 0.0
C260 C 0.48068 0.32679 0.2939 0.0
C261 C 0.58175 0.33531 0.20121 0.0
C262 C 0.59041 0.34245 0.17768 0.0
C263 C 0.58857 0.31449 0.20886 0.0
C264 C 0.6043 0.30138 0.19373 0.0
C265 C 0.61336 0.30873 0.17052 0.0
C266 C 0.60595 0.3292 0.16236 0.0
C267 C 0.48098 0.32317 0.2663 0.0
H268 H 0.5941 0.45493 0.23409 0.0
H269 H 0.57791 0.41895 0.21673 0.0
H270 H 0.56651 0.40196 0.29613 0.0
H271 H 0.58213 0.43776 0.3133 0.0
H272 H 0.58945 0.37852 0.21746 0.0
H273 H 0.53275 0.38707 0.27148 0.0
H274 H 0.54244 0.32438 0.22597 0.0
H275 H 0.49863 0.32912 0.23061 0.0
H276 H 0.52917 0.35842 0.30289 0.0
H277 H 0.49833 0.34304 0.32792 0.0
H278 H 0.58538 0.35842 0.17133 0.0
H279 H 0.58239 0.30867 0.22706 0.0
H280 H 0.46765 0.31326 0.25594 0.0
H281 H 0.61279 0.33531 0.14462 0.0
H282 H 0.6096 0.28559 0.20034 0.0
C283 C 0.14078 0.1963 0.93105 0.0
C284 C 0.13183 0.1966 0.9566 0.0
C285 C 0.16397 0.1913 0.92627 0.0
C286 C 0.17864 0.18627 0.94691 0.0
C287 C 0.16987 0.18722 0.97263 0.0
C288 C 0.14667 0.19252 0.97747 0.0
C289 C 0.20248 0.17848 0.94102 0.0
C290 C 0.21622 0.1893 0.92354 0.0
C291 C 0.23744 0.18027 0.91469 0.0
C292 C 0.24517 0.16038 0.92414 0.0
C293 C 0.23174 0.14949 0.94199 0.0
C294 C 0.21054 0.15879 0.95053 0.0
C295 C 0.23845 0.12726 0.94968 0.0
C296 C 0.24521 0.11042 0.93045 0.0
C297 C 0.2361 0.12214 0.97587 0.0
C298 C 0.2395 0.10042 0.98249 0.0
C299 C 0.24514 0.08335 0.96303 0.0
C300 C 0.25053 0.19083 0.89415 0.0
C301 C 0.23867 0.19906 0.87299 0.0
C302 C 0.27473 0.19269 0.89528 0.0
C303 C 0.28673 0.20291 0.87583 0.0
C304 C 0.27472 0.2115 0.85502 0.0
C305 C 0.25061 0.20931 0.85373 0.0
C306 C 0.24844 0.08865 0.93704 0.0
H307 H 0.12969 0.19948 0.91466 0.0
H308 H 0.17019 0.19046 0.9062 0.0
H309 H 0.18084 0.18348 0.98888 0.0
H310 H 0.14011 0.19249 0.99732 0.0
H311 H 0.21009 0.20465 0.91643 0.0
H312 H 0.19957 0.1499 0.96323 0.0
H313 H 0.26124 0.15297 0.91696 0.0
H314 H 0.24695 0.11383 0.91006 0.0
H315 H 0.23101 0.13484 0.99109 0.0
H316 H 0.23664 0.09679 0.00265 0.0
H317 H 0.22011 0.19735 0.87111 0.0
H318 H 0.28433 0.18659 0.9114 0.0
H319 H 0.25294 0.07585 0.92168 0.0
H320 H 0.24093 0.21528 0.83757 0.0
H321 H 0.30533 0.20444 0.87732 0.0
C322 C 0.35224 0.69502 0.42554 0.0
C323 C 0.3704 0.68072 0.41703 0.0
C324 C 0.32926 0.68838 0.42138 0.0
C325 C 0.32411 0.66721 0.40904 0.0
C326 C 0.34226 0.65318 0.39997 0.0
C327 C 0.36515 0.6599 0.40383 0.0
C328 C 0.29997 0.65919 0.40661 0.0
C329 C 0.28286 0.67188 0.3955 0.0
C330 C 0.26011 0.66374 0.39212 0.0
C331 C 0.25472 0.64276 0.40065 0.0
C332 C 0.27188 0.6297 0.41114 0.0
C333 C 0.29433 0.6382 0.41439 0.0
C334 C 0.267 0.60657 0.41709 0.0
C335 C 0.24724 0.60128 0.43118 0.0
C336 C 0.28256 0.58957 0.40879 0.0
C337 C 0.27888 0.56788 0.41511 0.0
C338 C 0.25948 0.56258 0.42979 0.0
C339 C 0.24277 0.67618 0.37747 0.0
C340 C 0.24332 0.69955 0.3786 0.0
C341 C 0.22668 0.66471 0.36055 0.0
C342 C 0.21241 0.67617 0.3443 0.0
C343 C 0.21428 0.69938 0.3439 0.0
C344 C 0.22949 0.71097 0.36182 0.0
C345 C 0.24356 0.57947 0.43759 0.0
H346 H 0.35583 0.7112 0.43566 0.0
H347 H 0.31553 0.69947 0.42857 0.0
H348 H 0.33873 0.63685 0.39018 0.0
H349 H 0.37877 0.64843 0.3973 0.0
H350 H 0.28773 0.68756 0.38828 0.0
H351 H 0.30757 0.62837 0.42296 0.0
H352 H 0.23738 0.63615 0.3983 0.0
H353 H 0.23497 0.61409 0.43781 0.0
H354 H 0.29775 0.59307 0.39753 0.0
H355 H 0.2917 0.5554 0.40913 0.0
H356 H 0.25498 0.70908 0.39186 0.0
H357 H 0.22571 0.64674 0.35879 0.0
H358 H 0.22839 0.57586 0.44882 0.0
H359 H 0.23163 0.7288 0.36214 0.0
H360 H 0.20047 0.66666 0.33138 0.0
C361 C 0.99539 0.82858 0.77792 0.0
C362 C 0.99357 0.83178 0.80548 0.0
C363 C 0.97784 0.83603 0.76187 0.0
C364 C 0.95832 0.84681 0.77321 0.0
C365 C 0.95599 0.8488 0.80069 0.0
C366 C 0.97336 0.84134 0.81662 0.0
C367 C 0.94103 0.85738 0.75691 0.0
C368 C 0.93044 0.84549 0.73521 0.0
C369 C 0.91276 0.85534 0.72118 0.0
C370 C 0.90651 0.87758 0.72854 0.0
C371 C 0.9168 0.88944 0.75037 0.0
C372 C 0.93413 0.87931 0.76427 0.0
C373 C 0.90813 0.91166 0.76026 0.0
C374 C 0.90627 0.92894 0.74366 0.0
C375 C 0.90171 0.91561 0.78676 0.0
C376 C 0.89378 0.93648 0.79662 0.0
C377 C 0.89229 0.95393 0.78024 0.0
C378 C 0.89927 0.8419 0.70063 0.0
C379 C 0.91003 0.82604 0.68281 0.0
C380 C 0.87516 0.84429 0.69946 0.0
C381 C 0.86212 0.83126 0.68099 0.0
C382 C 0.87279 0.81534 0.6633 0.0
C383 C 0.89689 0.81283 0.66437 0.0
C384 C 0.89863 0.95003 0.75366 0.0
H385 H 0.01078 0.82127 0.7688 0.0
H386 H 0.97999 0.83428 0.74071 0.0
H387 H 0.94087 0.85661 0.80991 0.0
H388 H 0.97118 0.8435 0.83777 0.0
H389 H 0.93506 0.82823 0.73028 0.0
H390 H 0.94216 0.88854 0.78111 0.0
H391 H 0.89295 0.88542 0.71799 0.0
H392 H 0.91115 0.92624 0.72315 0.0
H393 H 0.90279 0.90248 0.79989 0.0
H394 H 0.88929 0.93911 0.81726 0.0
H395 H 0.92858 0.82388 0.68307 0.0
H396 H 0.86618 0.85586 0.71331 0.0
H397 H 0.89764 0.96326 0.74068 0.0
H398 H 0.90558 0.80076 0.65085 0.0
H399 H 0.84353 0.83324 0.68103 0.0
H400 H 0.12194 0.90385 0.11228 0.0
H401 H 0.11285 0.93191 0.14805 0.0
H402 H 0.16702 0.90666 0.19539 0.0
H403 H 0.17587 0.87803 0.1598 0.0
H404 H 0.13043 0.91668 0.22482 0.0
H405 H 0.17491 0.95423 0.16464 0.0
H406 H 0.18678 0.96632 0.12178 0.0
H407 H 0.1218 0.99946 0.11466 0.0
H408 H 0.10939 0.98729 0.15731 0.0
H409 H 0.12833 0.01911 0.31173 0.0
H410 H 0.14144 0.98836 0.28048 0.0
H411 H 0.0812 0.99647 0.2324 0.0
H412 H 0.06793 0.02691 0.26356 0.0
H413 H 0.12528 0.99563 0.20535 0.0
H414 H 0.08125 0.95493 0.26627 0.0
H415 H 0.07192 0.94339 0.31017 0.0
H416 H 0.14039 0.91728 0.31709 0.0
H417 H 0.15023 0.92897 0.27335 0.0
C418 C 0.13193 0.90421 0.13029 0.0
C419 C 0.14981 0.88886 0.13306 0.0
C420 C 0.12677 0.92033 0.15071 0.0
C421 C 0.13959 0.92171 0.17419 0.0
C422 C 0.157 0.906 0.17737 0.0
C423 C 0.16206 0.88968 0.15699 0.0
C424 C 0.13477 0.93969 0.19521 0.0
C425 C 0.12969 0.93398 0.22065 0.0
C426 C 0.13377 0.96229 0.1898 0.0
C427 C 0.14115 0.96968 0.16411 0.0
C428 C 0.16307 0.96395 0.15385 0.0
C429 C 0.16991 0.97084 0.1296 0.0
C430 C 0.15504 0.98362 0.11549 0.0
C431 C 0.1333 0.98955 0.12561 0.0
C432 C 0.12636 0.98268 0.14984 0.0
C433 C 0.11786 0.01417 0.29457 0.0
C434 C 0.09708 0.02526 0.29008 0.0
C435 C 0.12531 0.99664 0.27683 0.0
C436 C 0.11224 0.99022 0.25421 0.0
C437 C 0.09148 0.00121 0.24978 0.0
C438 C 0.08386 0.01846 0.26766 0.0
C439 C 0.12041 0.97249 0.23459 0.0
C440 C 0.12623 0.97832 0.20946 0.0
C441 C 0.1225 0.95013 0.24044 0.0
C442 C 0.11656 0.94307 0.26669 0.0
C443 C 0.09439 0.94693 0.27726 0.0
C444 C 0.08899 0.94032 0.30209 0.0
C445 C 0.10557 0.92967 0.31645 0.0
C446 C 0.12757 0.92557 0.30597 0.0
C447 C 0.13307 0.93217 0.28116 0.0
H448 H 0.10136 0.92455 0.33566 0.0
H449 H 0.16037 0.98895 0.09673 0.0
H450 H 0.65235 0.70112 0.59063 0.0
H451 H 0.63811 0.70605 0.63611 0.0
H452 H 0.583 0.65956 0.61561 0.0
H453 H 0.59699 0.65447 0.57057 0.0
H454 H 0.56792 0.69763 0.64481 0.0
H455 H 0.62862 0.64197 0.64633 0.0
H456 H 0.66865 0.62883 0.63945 0.0
H457 H 0.69328 0.68228 0.69354 0.0
H458 H 0.65335 0.69584 0.70057 0.0
H459 H 0.55059 0.63757 0.7643 0.0
H460 H 0.57569 0.64529 0.72811 0.0
H461 H 0.56069 0.71529 0.74199 0.0
H462 H 0.53594 0.70785 0.77901 0.0
H463 H 0.61398 0.67216 0.71863 0.0
H464 H 0.54809 0.732 0.68032 0.0
H465 H 0.5069 0.74192 0.68547 0.0
H466 H 0.49107 0.67518 0.70247 0.0
H467 H 0.53207 0.66481 0.69703 0.0
C468 C 0.63715 0.69204 0.59585 0.0
C469 C 0.62583 0.67737 0.57701 0.0
C470 C 0.62909 0.69485 0.62179 0.0
C471 C 0.60949 0.68319 0.62914 0.0
C472 C 0.59807 0.6688 0.61029 0.0
C473 C 0.6062 0.66582 0.58457 0.0
C474 C 0.6009 0.68527 0.65653 0.0
C475 C 0.57813 0.69245 0.66105 0.0
C476 C 0.61416 0.67834 0.67764 0.0
C477 C 0.63807 0.67002 0.67378 0.0
C478 C 0.6426 0.65098 0.65664 0.0
C479 C 0.66524 0.64345 0.65274 0.0
C480 C 0.68349 0.65473 0.66602 0.0
C481 C 0.67912 0.67356 0.68328 0.0
C482 C 0.65649 0.68116 0.68725 0.0
C483 C 0.55319 0.65474 0.7604 0.0
C484 C 0.54097 0.67206 0.77451 0.0
C485 C 0.56758 0.6591 0.7396 0.0
C486 C 0.56989 0.68082 0.73224 0.0
C487 C 0.559 0.69838 0.74728 0.0
C488 C 0.54469 0.69405 0.76827 0.0
C489 C 0.58092 0.68435 0.70679 0.0
C490 C 0.60406 0.67812 0.7026 0.0
C491 C 0.5679 0.69185 0.6858 0.0
C492 C 0.54315 0.69775 0.68863 0.0
C493 C 0.53578 0.71945 0.68509 0.0
C494 C 0.51248 0.72514 0.68805 0.0
C495 C 0.4964 0.70921 0.6944 0.0
C496 C 0.50355 0.68752 0.69766 0.0
C497 C 0.52682 0.68174 0.69465 0.0
H498 H 0.47838 0.71366 0.69673 0.0
H499 H 0.701 0.64884 0.663 0.0
H500 H 0.83907 0.08982 0.03062 0.0
H501 H 0.82087 0.05604 0.043 0.0
H502 H 0.75417 0.0877 0.04291 0.0
H503 H 0.77237 0.12202 0.03039 0.0
H504 H 0.76223 0.06314 0.08688 0.0
H505 H 0.76524 0.05138 0.99364 0.0
H506 H 0.78289 0.0515 0.94976 0.0
H507 H 0.83364 0.00425 0.97054 0.0
H508 H 0.81655 0.00412 0.01474 0.0
H509 H 0.72791 0.9518 0.11218 0.0
H510 H 0.72776 0.98676 0.09072 0.0
H511 H 0.8005 0.97882 0.07448 0.0
H512 H 0.80062 0.94406 0.09525 0.0
H513 H 0.77763 0.99233 0.03268 0.0
H514 H 0.78116 0.01188 0.12765 0.0
H515 H 0.76603 0.01274 0.17287 0.0
H516 H 0.70465 0.04556 0.14915 0.0
H517 H 0.71934 0.04464 0.10369 0.0
C518 C 0.82052 0.08975 0.03321 0.0
C519 C 0.80716 0.10861 0.02927 0.0
C520 C 0.81014 0.07034 0.04019 0.0
C521 C 0.78615 0.06927 0.04336 0.0
C522 C 0.77271 0.0882 0.04029 0.0
C523 C 0.78313 0.10774 0.03315 0.0
C524 C 0.77563 0.04819 0.05016 0.0
C525 C 0.76496 0.04769 0.07473 0.0
C526 C 0.77942 0.02806 0.03433 0.0
C527 C 0.78961 0.0278 0.00759 0.0
C528 C 0.78024 0.0411 0.98893 0.0
C529 C 0.79015 0.04117 0.96398 0.0
C530 C 0.80938 0.02791 0.95738 0.0
C531 C 0.81872 0.01451 0.97569 0.0
C532 C 0.8089 0.0144 0.00068 0.0
C533 C 0.74375 0.95748 0.10375 0.0
C534 C 0.76435 0.94542 0.10568 0.0
C535 C 0.74367 0.97743 0.09162 0.0
C536 C 0.76417 0.98543 0.08117 0.0
C537 C 0.78449 0.97296 0.08238 0.0
C538 C 0.78459 0.95322 0.09451 0.0
C539 C 0.76524 0.00721 0.06991 0.0
C540 C 0.77414 0.00783 0.04444 0.0
C541 C 0.75998 0.02739 0.08498 0.0
C542 C 0.75118 0.02791 0.11224 0.0
C543 C 0.76435 0.0191 0.13204 0.0
C544 C 0.75588 0.01964 0.15771 0.0
C545 C 0.73435 0.02913 0.16386 0.0
C546 C 0.72129 0.03816 0.14435 0.0
C547 C 0.72968 0.03764 0.11863 0.0
H548 H 0.72783 0.02954 0.18374 0.0
H549 H 0.81704 0.02801 0.93807 0.0
H550 H 0.41466 0.34629 0.62411 0.0
H551 H 0.4551 0.34206 0.63644 0.0
H552 H 0.46235 0.28789 0.57585 0.0
H553 H 0.42154 0.29133 0.56436 0.0
H554 H 0.48691 0.27925 0.61623 0.0
H555 H 0.47876 0.3428 0.56691 0.0
H556 H 0.46264 0.37875 0.55632 0.0
H557 H 0.48675 0.40955 0.63045 0.0
H558 H 0.50254 0.37364 0.6418 0.0
H559 H 0.6094 0.28983 0.59903 0.0
H560 H 0.56738 0.28883 0.59274 0.0
H561 H 0.55906 0.33499 0.66158 0.0
H562 H 0.60091 0.33619 0.66785 0.0
H563 H 0.53529 0.34725 0.61781 0.0
H564 H 0.54516 0.28242 0.66527 0.0
H565 H 0.56183 0.24611 0.67353 0.0
H566 H 0.53571 0.21754 0.59922 0.0
H567 H 0.51915 0.25378 0.59033 0.0
C568 C 0.42485 0.33333 0.61363 0.0
C569 C 0.4151 0.31929 0.59308 0.0
C570 C 0.44796 0.33099 0.62061 0.0
C571 C 0.46195 0.31506 0.6066 0.0
C572 C 0.45195 0.30037 0.58685 0.0
C573 C 0.42865 0.30237 0.58026 0.0
C574 C 0.48718 0.31442 0.61167 0.0
C575 C 0.49752 0.29408 0.61628 0.0
C576 C 0.50103 0.33382 0.61206 0.0
C577 C 0.49165 0.35548 0.60529 0.0
C578 C 0.48046 0.3572 0.58105 0.0
C579 C 0.47137 0.37756 0.57493 0.0
C580 C 0.47357 0.39639 0.59277 0.0
C581 C 0.48495 0.39491 0.61674 0.0
C582 C 0.49398 0.37456 0.62302 0.0
C583 C 0.59856 0.29968 0.61284 0.0
C584 C 0.60839 0.31302 0.63397 0.0
C585 C 0.57461 0.29899 0.60934 0.0
C586 C 0.56017 0.31175 0.62681 0.0
C587 C 0.56993 0.32497 0.64796 0.0
C588 C 0.59381 0.32552 0.65161 0.0
C589 C 0.53492 0.31215 0.62241 0.0
C590 C 0.52462 0.33246 0.61784 0.0
C591 C 0.52123 0.29269 0.62167 0.0
C592 C 0.53111 0.27088 0.62702 0.0
C593 C 0.54314 0.26845 0.65058 0.0
C594 C 0.55253 0.24787 0.6554 0.0
C595 C 0.54988 0.22954 0.63688 0.0
C596 C 0.53777 0.23175 0.61353 0.0
C597 C 0.52836 0.25231 0.6086 0.0
H598 H 0.55716 0.21362 0.64065 0.0
H599 H 0.46654 0.41215 0.58799 0.0
H600 H 0.67278 0.62837 0.40539 0.0
H601 H 0.66346 0.60358 0.36606 0.0
H602 H 0.61618 0.56732 0.4115 0.0
H603 H 0.62515 0.5919 0.45061 0.0
H604 H 0.66869 0.55871 0.35636 0.0
H605 H 0.56977 0.55229 0.37583 0.0
H606 H 0.53873 0.57664 0.39467 0.0
H607 H 0.57651 0.63426 0.3756 0.0
H608 H 0.6076 0.61027 0.35625 0.0
H609 H 0.62048 0.45583 0.31517 0.0
H610 H 0.63406 0.4912 0.33647 0.0
H611 H 0.59524 0.52637 0.28096 0.0
H612 H 0.58108 0.49077 0.25983 0.0
H613 H 0.58729 0.54345 0.32991 0.0
H614 H 0.65395 0.52703 0.27917 0.0
H615 H 0.68585 0.50448 0.25918 0.0
H616 H 0.71346 0.49619 0.33587 0.0
H617 H 0.68155 0.51841 0.35637 0.0
C618 C 0.66038 0.61512 0.40698 0.0
C619 C 0.64972 0.61211 0.43117 0.0
C620 C 0.6551 0.601 0.3845 0.0
C621 C 0.63892 0.58383 0.38582 0.0
C622 C 0.62841 0.58072 0.40995 0.0
C623 C 0.63368 0.59474 0.43235 0.0
C624 C 0.63326 0.56852 0.36236 0.0
C625 C 0.65095 0.5555 0.35031 0.0
C626 C 0.61016 0.56492 0.35391 0.0
C627 C 0.59109 0.57943 0.36467 0.0
C628 C 0.57137 0.57014 0.37542 0.0
C629 C 0.55378 0.58389 0.38625 0.0
C630 C 0.55567 0.60698 0.38639 0.0
C631 C 0.57509 0.61638 0.37555 0.0
C632 C 0.59271 0.6027 0.36466 0.0
C633 C 0.61493 0.47108 0.30739 0.0
C634 C 0.59957 0.47055 0.28597 0.0
C635 C 0.62291 0.4913 0.3194 0.0
C636 C 0.61586 0.51145 0.31016 0.0
C637 C 0.60098 0.511 0.28832 0.0
C638 C 0.59301 0.49069 0.2762 0.0
C639 C 0.62262 0.53278 0.32491 0.0
C640 C 0.60511 0.54696 0.33539 0.0
C641 C 0.64594 0.53772 0.3315 0.0
C642 C 0.66527 0.52435 0.31932 0.0
C643 C 0.66673 0.52029 0.29179 0.0
C644 C 0.68484 0.50757 0.28037 0.0
C645 C 0.70166 0.4989 0.29624 0.0
C646 C 0.70043 0.50294 0.32359 0.0
C647 C 0.68235 0.51563 0.33513 0.0
H648 H 0.71566 0.48906 0.28736 0.0
H649 H 0.54208 0.6176 0.39488 0.0
H650 H 0.91808 0.1602 0.9734 0.0
H651 H 0.95882 0.16641 0.96435 0.0
H652 H 0.956 0.22985 0.01059 0.0
H653 H 0.91459 0.22416 0.01826 0.0
H654 H 0.98474 0.23288 0.97182 0.0
H655 H 0.976 0.1819 0.03695 0.0
H656 H 0.96087 0.14906 0.05678 0.0
H657 H 0.99114 0.10608 0.99463 0.0
H658 H 0.00618 0.13868 0.97421 0.0
H659 H 0.10983 0.22468 0.99362 0.0
H660 H 0.06799 0.22738 0.00169 0.0
H661 H 0.05587 0.17669 0.93812 0.0
H662 H 0.09737 0.17416 0.92973 0.0
H663 H 0.03572 0.17011 0.99055 0.0
H664 H 0.04285 0.22406 0.92542 0.0
H665 H 0.05864 0.25811 0.90891 0.0
H666 H 0.03271 0.29703 0.97702 0.0
H667 H 0.01706 0.26313 0.99412 0.0
C668 C 0.92611 0.17564 0.98119 0.0
C669 C 0.91345 0.19165 0.99665 0.0
C670 C 0.94939 0.17913 0.97621 0.0
C671 C 0.96069 0.19826 0.98755 0.0
C672 C 0.94771 0.21487 0.00184 0.0
C673 C 0.92413 0.21165 0.00621 0.0
C674 C 0.98618 0.20012 0.98554 0.0
C675 C 0.99589 0.21928 0.9763 0.0
C676 C 0.00085 0.18246 0.99156 0.0
C677 C 0.99209 0.16276 0.00396 0.0
C678 C 0.97933 0.16545 0.02744 0.0
C679 C 0.97077 0.14688 0.03879 0.0
C680 C 0.97501 0.1255 0.02695 0.0
C681 C 0.98787 0.12265 0.00378 0.0
C682 C 0.99644 0.14117 0.99232 0.0
C683 C 0.09815 0.21428 0.9813 0.0
C684 C 0.10673 0.19928 0.96101 0.0
C685 C 0.07436 0.21589 0.98584 0.0
C686 C 0.05898 0.20227 0.97041 0.0
C687 C 0.06753 0.18738 0.95012 0.0
C688 C 0.09118 0.18603 0.9453 0.0
C689 C 0.03402 0.20247 0.97613 0.0
C690 C 0.02449 0.18372 0.98629 0.0
C691 C 0.01971 0.22068 0.97155 0.0
C692 C 0.02905 0.24103 0.9612 0.0
C693 C 0.04073 0.23984 0.93701 0.0
C694 C 0.04961 0.25912 0.92751 0.0
C695 C 0.04675 0.27971 0.94195 0.0
C696 C 0.03495 0.28107 0.96588 0.0
C697 C 0.02606 0.26183 0.97548 0.0
H698 H 0.05363 0.29462 0.93456 0.0
H699 H 0.96835 0.11114 0.03576 0.0
H700 H 0.32455 0.37451 0.49848 0.0
H701 H 0.30752 0.4032 0.47358 0.0
H702 H 0.27347 0.4316 0.54385 0.0
H703 H 0.28963 0.40235 0.56854 0.0
H704 H 0.24645 0.43542 0.5036 0.0
H705 H 0.3263 0.45058 0.52278 0.0
H706 H 0.36814 0.44312 0.52305 0.0
H707 H 0.36889 0.4377 0.4386 0.0
H708 H 0.32693 0.44452 0.43779 0.0
H709 H 0.24643 0.55068 0.47812 0.0
H710 H 0.24951 0.51385 0.49426 0.0
H711 H 0.27117 0.48637 0.41737 0.0
H712 H 0.26758 0.523 0.40087 0.0
H713 H 0.30259 0.48021 0.45742 0.0
H714 H 0.22176 0.4697 0.44023 0.0
H715 H 0.18051 0.47967 0.44262 0.0
H716 H 0.18258 0.48016 0.52679 0.0
H717 H 0.22394 0.4705 0.52495 0.0
C718 C 0.31323 0.38674 0.50853 0.0
C719 C 0.30867 0.38642 0.53552 0.0
C720 C 0.30353 0.40314 0.4943 0.0
C721 C 0.28964 0.41987 0.50699 0.0
C722 C 0.28418 0.41891 0.53366 0.0
C723 C 0.2935 0.40225 0.54778 0.0
C724 C 0.28216 0.43921 0.49307 0.0
C725 C 0.25874 0.44529 0.49362 0.0
C726 C 0.29816 0.45197 0.47978 0.0
C727 C 0.3234 0.44775 0.48022 0.0
C728 C 0.33534 0.44754 0.50426 0.0
C729 C 0.35908 0.44342 0.50451 0.0
C730 C 0.37114 0.43979 0.48085 0.0
C731 C 0.3595 0.44035 0.4569 0.0
C732 C 0.33573 0.44433 0.45653 0.0
C733 C 0.25109 0.53668 0.46441 0.0
C734 C 0.25707 0.53981 0.4383 0.0
C735 C 0.25288 0.51564 0.47369 0.0
C736 C 0.26066 0.49746 0.45701 0.0
C737 C 0.26523 0.50025 0.43055 0.0
C738 C 0.26329 0.5212 0.42122 0.0
C739 C 0.26694 0.47639 0.46795 0.0
C740 C 0.29024 0.47011 0.46701 0.0
C741 C 0.25092 0.46381 0.48129 0.0
C742 C 0.22602 0.46954 0.48245 0.0
C743 C 0.21348 0.47211 0.45927 0.0
C744 C 0.19006 0.47767 0.46052 0.0
C745 C 0.17894 0.48059 0.48484 0.0
C746 C 0.19122 0.47791 0.50796 0.0
C747 C 0.21464 0.47236 0.50682 0.0
H748 H 0.16081 0.4849 0.48577 0.0
H749 H 0.38953 0.43664 0.48108 0.0
H750 H 0.13605 0.85368 0.98111 0.0
H751 H 0.11747 0.84718 0.93811 0.0
H752 H 0.1205 0.7764 0.94362 0.0
H753 H 0.13964 0.78277 0.98669 0.0
H754 H 0.12454 0.80406 0.88536 0.0
H755 H 0.07265 0.78032 0.95875 0.0
H756 H 0.06384 0.78673 0.0062 0.0
H757 H 0.05714 0.85676 0.99889 0.0
H758 H 0.06549 0.85064 0.95137 0.0
H759 H 0.02121 0.7945 0.8026 0.0
H760 H 0.0522 0.78608 0.83327 0.0
H761 H 0.0408 0.8493 0.87774 0.0
H762 H 0.01019 0.85775 0.84744 0.0
H763 H 0.04227 0.81649 0.90946 0.0
H764 H 0.08663 0.84065 0.83672 0.0
H765 H 0.0999 0.83889 0.7907 0.0
H766 H 0.12519 0.77262 0.79636 0.0
H767 H 0.11178 0.7739 0.84235 0.0
C768 C 0.1335 0.83671 0.97276 0.0
C769 C 0.13895 0.81873 0.98729 0.0
C770 C 0.12313 0.83302 0.9481 0.0
C771 C 0.11774 0.81134 0.93776 0.0
C772 C 0.12489 0.79322 0.95117 0.0
C773 C 0.13565 0.7969 0.9758 0.0
C774 C 0.10001 0.80847 0.91695 0.0
C775 C 0.10644 0.80609 0.89041 0.0
C776 C 0.07659 0.81163 0.92375 0.0
C777 C 0.06946 0.81501 0.95162 0.0
C778 C 0.06897 0.79702 0.96727 0.0
C779 C 0.06414 0.80061 0.99416 0.0
C780 C 0.05995 0.82214 0.00554 0.0
C781 C 0.06032 0.84009 0.99003 0.0
C782 C 0.06489 0.83655 0.96311 0.0
C783 C 0.02551 0.80662 0.81883 0.0
C784 C 0.01306 0.82663 0.82287 0.0
C785 C 0.04316 0.8018 0.83631 0.0
C786 C 0.04868 0.81702 0.85788 0.0
C787 C 0.03662 0.83719 0.86145 0.0
C788 C 0.01908 0.84196 0.84415 0.0
C789 C 0.06656 0.81216 0.87739 0.0
C790 C 0.06014 0.81341 0.904 0.0
C791 C 0.08994 0.80803 0.87044 0.0
C792 C 0.09792 0.80725 0.84282 0.0
C793 C 0.09482 0.82563 0.82806 0.0
C794 C 0.10241 0.82474 0.80201 0.0
C795 C 0.1133 0.80562 0.79058 0.0
C796 C 0.11669 0.78739 0.80522 0.0
C797 C 0.10911 0.78819 0.83127 0.0
H798 H 0.11918 0.80497 0.77041 0.0
H799 H 0.05634 0.82494 0.02636 0.0
H800 H 0.89121 0.1187 0.95012 0.0
H801 H 0.89927 0.09206 0.91246 0.0
H802 H 0.83035 0.10059 0.88289 0.0
H803 H 0.82191 0.12716 0.92083 0.0
H804 H 0.87206 0.05285 0.90562 0.0
H805 H 0.83837 0.09027 0.81154 0.0
H806 H 0.83743 0.12611 0.79178 0.0
H807 H 0.89548 0.14918 0.83915 0.0
H808 H 0.89692 0.11344 0.85901 0.0
H809 H 0.85465 0.9645 0.8106 0.0
H810 H 0.84656 6e-05 0.83569 0.0
H811 H 0.90613 0.02909 0.80139 0.0
H812 H 0.91405 0.99356 0.77585 0.0
H813 H 0.87126 0.05942 0.80937 0.0
H814 H 0.91109 0.00683 0.85882 0.0
H815 H 0.91694 0.97082 0.87722 0.0
H816 H 0.8534 0.97944 0.92004 0.0
H817 H 0.84695 0.01529 0.90145 0.0
C818 C 0.87783 0.11523 0.93544 0.0
C819 C 0.85574 0.12472 0.93874 0.0
C820 C 0.88252 0.10005 0.91389 0.0
C821 C 0.8654 0.09439 0.89499 0.0
C822 C 0.84382 0.10487 0.89725 0.0
C823 C 0.83898 0.11989 0.91902 0.0
C824 C 0.86906 0.07528 0.87526 0.0
C825 C 0.87185 0.05429 0.88457 0.0
C826 C 0.869 0.07729 0.84787 0.0
C827 C 0.86758 0.09923 0.83696 0.0
C828 C 0.85091 0.103 0.81778 0.0
C829 C 0.85034 0.12327 0.80648 0.0
C830 C 0.86647 0.13986 0.81409 0.0
C831 C 0.88305 0.13629 0.83322 0.0
C832 C 0.88365 0.11608 0.84462 0.0
C833 C 0.86575 0.9786 0.80807 0.0
C834 C 0.88514 0.97627 0.7916 0.0
C835 C 0.86111 0.99888 0.82236 0.0
C836 C 0.87603 0.01705 0.82079 0.0
C837 C 0.89445 0.01524 0.80292 0.0
C838 C 0.89896 0.99497 0.78837 0.0
C839 C 0.87385 0.03698 0.83979 0.0
C840 C 0.87129 0.05803 0.83042 0.0
C841 C 0.8745 0.03517 0.86726 0.0
C842 C 0.87842 0.01363 0.87853 0.0
C843 C 0.89827 0.00095 0.87198 0.0
C844 C 0.9017 0.98057 0.88245 0.0
C845 C 0.88552 0.97281 0.89973 0.0
C846 C 0.86589 0.98544 0.90661 0.0
C847 C 0.86234 0.00578 0.8961 0.0
H848 H 0.88822 0.95704 0.90783 0.0
H849 H 0.866 0.15554 0.80534 0.0
H850 H 0.39092 0.34312 0.49478 0.0
H851 H 0.40039 0.33745 0.44845 0.0
H852 H 0.35515 0.28044 0.43942 0.0
H853 H 0.34566 0.28583 0.48651 0.0
H854 H 0.39604 0.2722 0.41462 0.0
H855 H 0.33862 0.32676 0.41365 0.0
H856 H 0.31726 0.36071 0.42915 0.0
H857 H 0.3759 0.40072 0.41279 0.0
H858 H 0.39782 0.36704 0.39782 0.0
H859 H 0.434 0.32745 0.28485 0.0
H860 H 0.40333 0.31741 0.31471 0.0
H861 H 0.45485 0.29675 0.36876 0.0
H862 H 0.48525 0.30602 0.3388 0.0
H863 H 0.39577 0.3369 0.36104 0.0
H864 H 0.43674 0.25993 0.40678 0.0
H865 H 0.45654 0.22516 0.39107 0.0
H866 H 0.4261 0.22777 0.31459 0.0
H867 H 0.40581 0.26237 0.3299 0.0
C868 C 0.38287 0.32935 0.48309 0.0
C869 C 0.36751 0.31492 0.49442 0.0
C870 C 0.3882 0.32623 0.45648 0.0
C871 C 0.37813 0.3088 0.44037 0.0
C872 C 0.36295 0.29412 0.45151 0.0
C873 C 0.35758 0.29722 0.47837 0.0
C874 C 0.38456 0.30585 0.41219 0.0
C875 C 0.3957 0.28617 0.40264 0.0
C876 C 0.38318 0.32379 0.39617 0.0
C877 C 0.36989 0.34428 0.40456 0.0
C878 C 0.34701 0.34279 0.41345 0.0
C879 C 0.3348 0.362 0.42219 0.0
C880 C 0.34521 0.38286 0.42196 0.0
C881 C 0.36784 0.38456 0.41296 0.0
C882 C 0.38016 0.3654 0.40429 0.0
C883 C 0.43868 0.32013 0.30275 0.0
C884 C 0.46201 0.31771 0.30965 0.0
C885 C 0.42117 0.3145 0.31983 0.0
C886 C 0.42672 0.30616 0.34392 0.0
C887 C 0.45001 0.30272 0.35011 0.0
C888 C 0.46743 0.30831 0.33311 0.0
C889 C 0.40886 0.30385 0.36433 0.0
C890 C 0.39549 0.32258 0.37246 0.0
C891 C 0.40779 0.28486 0.37873 0.0
C892 C 0.41975 0.26383 0.36952 0.0
C893 C 0.43409 0.25301 0.38667 0.0
C894 C 0.44545 0.23334 0.37781 0.0
C895 C 0.4426 0.22427 0.35185 0.0
C896 C 0.42834 0.23484 0.33469 0.0
C897 C 0.41692 0.2545 0.34344 0.0
H898 H 0.45143 0.20906 0.34503 0.0
H899 H 0.33571 0.3977 0.42873 0.0
H900 H 0.17642 0.891 0.00325 0.0
H901 H 0.19353 0.92398 0.98651 0.0
H902 H 0.23768 0.93279 0.05487 0.0
H903 H 0.22073 0.89989 0.07179 0.0
H904 H 0.21281 0.97019 0.04638 0.0
H905 H 0.26075 0.91748 0.9966 0.0
H906 H 0.26904 0.88416 0.96657 0.0
H907 H 0.23118 0.91194 0.90487 0.0
H908 H 0.22231 0.94526 0.93465 0.0
H909 H 0.26569 0.06621 0.00521 0.0
H910 H 0.26209 0.02831 0.01834 0.0
H911 H 0.22119 0.0099 0.94897 0.0
H912 H 0.22504 0.04758 0.93558 0.0
H913 H 0.24841 0.97636 0.95902 0.0
H914 H 0.19624 0.02579 0.00853 0.0
H915 H 0.18505 0.05864 0.03794 0.0
H916 H 0.22768 0.03638 0.09938 0.0
H917 H 0.23942 0.00356 0.07017 0.0
C918 C 0.19 0.89976 0.01455 0.0
C919 C 0.19706 0.89292 0.03897 0.0
C920 C 0.19984 0.91853 0.00488 0.0
C921 C 0.21691 0.93076 0.01944 0.0
C922 C 0.22454 0.92355 0.04335 0.0
C923 C 0.21484 0.90471 0.05295 0.0
C924 C 0.22523 0.95216 0.01091 0.0
C925 C 0.22107 0.97151 0.02752 0.0
C926 C 0.23532 0.95384 0.98596 0.0
C927 C 0.24071 0.93383 0.96795 0.0
C928 C 0.25402 0.91642 0.9767 0.0
C929 C 0.25885 0.89753 0.95971 0.0
C930 C 0.25062 0.89593 0.93384 0.0
C931 C 0.23754 0.91321 0.92491 0.0
C932 C 0.23262 0.9321 0.94184 0.0
C933 C 0.25616 0.05398 0.99265 0.0
C934 C 0.24552 0.05987 0.96947 0.0
C935 C 0.25411 0.03236 0.00015 0.0
C936 C 0.24103 0.01638 0.98486 0.0
C937 C 0.23137 0.02194 0.96106 0.0
C938 C 0.23361 0.04348 0.95342 0.0
C939 C 0.23592 0.99441 0.99449 0.0
C940 C 0.24053 0.97499 0.97806 0.0
C941 C 0.22592 0.99261 0.0195 0.0
C942 C 0.21896 0.01238 0.03705 0.0
C943 C 0.2034 0.02801 0.02823 0.0
C944 C 0.19693 0.0466 0.04487 0.0
C945 C 0.20571 0.04963 0.07048 0.0
C946 C 0.22094 0.03404 0.07952 0.0
C947 C 0.22752 0.01545 0.06293 0.0
H948 H 0.20066 0.06402 0.08335 0.0
H949 H 0.25442 0.88134 0.92069 0.0
H950 H 0.58472 0.71226 0.49003 0.0
H951 H 0.54459 0.71863 0.47757 0.0
H952 H 0.53753 0.64927 0.45022 0.0
H953 H 0.57752 0.64267 0.46257 0.0
H954 H 0.51964 0.71137 0.42997 0.0
H955 H 0.48561 0.63221 0.47281 0.0
H956 H 0.49615 0.60777 0.50723 0.0
H957 H 0.53076 0.66221 0.55091 0.0
H958 H 0.52012 0.68705 0.51698 0.0
H959 H 0.40774 0.67623 0.38439 0.0
H960 H 0.44846 0.68091 0.3966 0.0
H961 H 0.42881 0.70282 0.47618 0.0
H962 H 0.38805 0.69793 0.46414 0.0
H963 H 0.45989 0.66914 0.47423 0.0
H964 H 0.45247 0.73919 0.43875 0.0
H965 H 0.44207 0.76506 0.40587 0.0
H966 H 0.48965 0.73231 0.35092 0.0
H967 H 0.5001 0.70602 0.38335 0.0
C968 C 0.5747 0.69838 0.48118 0.0
C969 C 0.58425 0.67689 0.47765 0.0
C970 C 0.55182 0.7021 0.47397 0.0
C971 C 0.53809 0.68437 0.46331 0.0
C972 C 0.54782 0.66311 0.45874 0.0
C973 C 0.57068 0.65939 0.46582 0.0
C974 C 0.51322 0.68773 0.4583 0.0
C975 C 0.50653 0.70219 0.43962 0.0
C976 C 0.49618 0.6761 0.4714 0.0
C977 C 0.50223 0.66142 0.49222 0.0
C978 C 0.49536 0.63899 0.48983 0.0
C979 C 0.50137 0.62507 0.50925 0.0
C980 C 0.51417 0.63342 0.53121 0.0
C981 C 0.52091 0.65574 0.53386 0.0
C982 C 0.51491 0.66974 0.51452 0.0
C983 C 0.41212 0.68232 0.4044 0.0
C984 C 0.39476 0.68663 0.42335 0.0
C985 C 0.43536 0.68514 0.4113 0.0
C986 C 0.44163 0.69225 0.43728 0.0
C987 C 0.4243 0.69735 0.45601 0.0
C988 C 0.40105 0.69469 0.44907 0.0
C989 C 0.46622 0.69239 0.44536 0.0
C990 C 0.47291 0.67849 0.46464 0.0
C991 C 0.48317 0.70474 0.43301 0.0
C992 C 0.47693 0.72051 0.41343 0.0
C993 C 0.46058 0.73737 0.41958 0.0
C994 C 0.4547 0.75214 0.40104 0.0
C995 C 0.46516 0.7503 0.37631 0.0
C996 C 0.48155 0.73371 0.37008 0.0
C997 C 0.48748 0.71888 0.38855 0.0
H998 H 0.46059 0.76176 0.36198 0.0
H999 H 0.51883 0.62261 0.54619 0.0
H1000 H 0.38138 0.40198 0.61532 0.0
H1001 H 0.39363 0.42801 0.65202 0.0
H1002 H 0.34046 0.40326 0.70073 0.0
H1003 H 0.32798 0.377 0.66396 0.0
H1004 H 0.3427 0.44978 0.70312 0.0
H1005 H 0.39416 0.38834 0.70923 0.0
H1006 H 0.42234 0.36003 0.69235 0.0
H1007 H 0.46998 0.41143 0.67574 0.0
H1008 H 0.44182 0.44006 0.69165 0.0
H1009 H 0.38411 0.51729 0.81383 0.0
H1010 H 0.37191 0.48406 0.78613 0.0
H1011 H 0.42839 0.4933 0.73318 0.0
H1012 H 0.44101 0.52599 0.76125 0.0
H1013 H 0.42312 0.45114 0.73702 0.0
H1014 H 0.37179 0.51147 0.72201 0.0
H1015 H 0.34408 0.54154 0.73451 0.0
H1016 H 0.29744 0.49431 0.76389 0.0
H1017 H 0.32504 0.46399 0.75186 0.0
C1018 C 0.37221 0.40205 0.63379 0.0
C1019 C 0.35364 0.38744 0.63668 0.0
C1020 C 0.37935 0.41686 0.6548 0.0
C1021 C 0.36811 0.41737 0.67914 0.0
C1022 C 0.3494 0.40302 0.6821 0.0
C1023 C 0.34232 0.38804 0.66109 0.0
C1024 C 0.37568 0.43334 0.70121 0.0
C1025 C 0.36014 0.44983 0.71096 0.0
C1026 C 0.39864 0.43368 0.71082 0.0
C1027 C 0.41574 0.4164 0.70147 0.0
C1028 C 0.41054 0.39363 0.70172 0.0
C1029 C 0.42652 0.37751 0.69228 0.0
C1030 C 0.4479 0.38393 0.68285 0.0
C1031 C 0.45336 0.40647 0.68288 0.0
C1032 C 0.43739 0.42266 0.6921 0.0
C1033 C 0.39401 0.51204 0.79641 0.0
C1034 C 0.41344 0.52423 0.78961 0.0
C1035 C 0.38701 0.49312 0.78055 0.0
C1036 C 0.39897 0.48639 0.75727 0.0
C1037 C 0.41888 0.49811 0.75103 0.0
C1038 C 0.42608 0.5168 0.76708 0.0
C1039 C 0.39025 0.46789 0.73865 0.0
C1040 C 0.40557 0.45091 0.72951 0.0
C1041 C 0.36722 0.46733 0.72915 0.0
C1042 C 0.35059 0.48552 0.73634 0.0
C1043 C 0.3557 0.50753 0.73132 0.0
C1044 C 0.34 0.52461 0.73829 0.0
C1045 C 0.31904 0.51985 0.75007 0.0
C1046 C 0.31371 0.49798 0.75482 0.0
C1047 C 0.32936 0.48084 0.74793 0.0
H1048 H 0.30691 0.53309 0.75544 0.0
H1049 H 0.46028 0.37144 0.67564 0.0
H1050 H 0.08462 0.79009 0.05456 0.0
H1051 H 0.04433 0.78298 0.06595 0.0
H1052 H 0.04451 0.84177 0.12047 0.0
H1053 H 0.0845 0.84945 0.10865 0.0
H1054 H 0.02732 0.79354 0.13671 0.0
H1055 H 0.01709 0.85376 0.07883 0.0
H1056 H 0.02078 0.87195 0.03761 0.0
H1057 H 0.99159 0.81441 0.99413 0.0
H1058 H 0.98785 0.79585 0.03514 0.0
H1059 H 0.91423 0.82349 0.17614 0.0
H1060 H 0.95455 0.81918 0.16322 0.0
H1061 H 0.93378 0.78237 0.09058 0.0
H1062 H 0.89325 0.78749 0.10292 0.0
H1063 H 0.96199 0.81404 0.08064 0.0
H1064 H 0.964 0.75741 0.13917 0.0
H1065 H 0.95766 0.73964 0.18022 0.0
H1066 H 0.00186 0.78787 0.22206 0.0
H1067 H 0.0082 0.80616 0.18135 0.0
C1068 C 0.07609 0.80149 0.06899 0.0
C1069 C 0.08769 0.82037 0.08066 0.0
C1070 C 0.0531 0.79742 0.0754 0.0
C1071 C 0.04159 0.81189 0.09398 0.0
C1072 C 0.0532 0.83049 0.10602 0.0
C1073 C 0.07598 0.83485 0.0992 0.0
C1074 C 0.01742 0.80759 0.10106 0.0
C1075 C 0.01295 0.79808 0.12461 0.0
C1076 C 0.99888 0.81281 0.08472 0.0
C1077 C 0.00249 0.82333 0.05994 0.0
C1078 C 0.01179 0.84487 0.06042 0.0
C1079 C 0.01369 0.85532 0.03715 0.0
C1080 C 0.00629 0.84439 0.0133 0.0
C1081 C 0.99721 0.82289 0.01263 0.0
C1082 C 0.9952 0.8124 0.03587 0.0
C1083 C 0.91824 0.81429 0.15751 0.0
C1084 C 0.90051 0.80604 0.14044 0.0
C1085 C 0.94135 0.8116 0.15028 0.0
C1086 C 0.94726 0.80033 0.12597 0.0
C1087 C 0.92964 0.7911 0.10945 0.0
C1088 C 0.90647 0.79389 0.11663 0.0
C1089 C 0.97157 0.80033 0.11676 0.0
C1090 C 0.9762 0.80904 0.09269 0.0
C1091 C 0.99022 0.79417 0.1326 0.0
C1092 C 0.98645 0.78326 0.1572 0.0
C1093 C 0.97222 0.76435 0.15716 0.0
C1094 C 0.96866 0.75416 0.18037 0.0
C1095 C 0.97932 0.76264 0.20374 0.0
C1096 C 0.9936 0.78132 0.20394 0.0
C1097 C 0.99722 0.79159 0.18079 0.0
H1098 H 0.97654 0.75472 0.22168 0.0
H1099 H 0.00774 0.85252 0.9953 0.0
H1100 H 0.7166 0.59994 0.50269 0.0
H1101 H 0.73354 0.56835 0.52245 0.0
H1102 H 0.68341 0.57547 0.5849 0.0
H1103 H 0.6662 0.60719 0.56525 0.0
H1104 H 0.72926 0.5656 0.60178 0.0
H1105 H 0.67273 0.53912 0.53629 0.0
H1106 H 0.65535 0.53633 0.49193 0.0
H1107 H 0.71851 0.5092 0.45907 0.0
H1108 H 0.73639 0.51217 0.50322 0.0
H1109 H 0.7262 0.45794 0.64636 0.0
H1110 H 0.71996 0.49457 0.631 0.0
H1111 H 0.76195 0.4763 0.56275 0.0
H1112 H 0.76782 0.4393 0.57786 0.0
H1113 H 0.72351 0.49308 0.5481 0.0
H1114 H 0.77949 0.51619 0.61341 0.0
H1115 H 0.79781 0.51955 0.65726 0.0
H1116 H 0.73788 0.55324 0.69009 0.0
H1117 H 0.71904 0.5498 0.6465 0.0
C1118 C 0.70927 0.59499 0.52078 0.0
C1119 C 0.68983 0.60591 0.5322 0.0
C1120 C 0.71901 0.57693 0.53203 0.0
C1121 C 0.70956 0.56949 0.55494 0.0
C1122 C 0.6909 0.58099 0.56717 0.0
C1123 C 0.68102 0.599 0.55583 0.0
C1124 C 0.71808 0.54875 0.565 0.0
C1125 C 0.72788 0.54967 0.59023 0.0
C1126 C 0.71681 0.52817 0.54951 0.0
C1127 C 0.70597 0.52609 0.52301 0.0
C1128 C 0.68297 0.53272 0.51957 0.0
C1129 C 0.67302 0.53109 0.49448 0.0
C1130 C 0.68584 0.52265 0.47268 0.0
C1131 C 0.70861 0.51577 0.47596 0.0
C1132 C 0.71866 0.51741 0.50102 0.0
C1133 C 0.73458 0.46191 0.62841 0.0
C1134 C 0.74754 0.44579 0.61332 0.0
C1135 C 0.73102 0.48289 0.61965 0.0
C1136 C 0.74067 0.48832 0.59582 0.0
C1137 C 0.75432 0.47249 0.58118 0.0
C1138 C 0.75768 0.45139 0.58981 0.0
C1139 C 0.73475 0.50971 0.58513 0.0
C1140 C 0.72527 0.50896 0.5597 0.0
C1141 C 0.7365 0.53043 0.60042 0.0
C1142 C 0.74778 0.53258 0.62669 0.0
C1143 C 0.77014 0.52417 0.63001 0.0
C1144 C 0.78063 0.52611 0.65482 0.0
C1145 C 0.769 0.53656 0.67646 0.0
C1146 C 0.74687 0.54513 0.67331 0.0
C1147 C 0.73628 0.54322 0.64855 0.0
H1148 H 0.77715 0.53805 0.69565 0.0
H1149 H 0.67811 0.52141 0.45327 0.0
H1150 H 0.86895 0.13806 0.09177 0.0
H1151 H 0.88237 0.13881 0.13713 0.0
H1152 H 0.8824 0.21058 0.14339 0.0
H1153 H 0.86943 0.21 0.09767 0.0
H1154 H 0.92149 0.19564 0.16146 0.0
H1155 H 0.84204 0.18105 0.17613 0.0
H1156 H 0.80452 0.1622 0.16866 0.0
H1157 H 0.83448 0.10065 0.18796 0.0
H1158 H 0.87228 0.11905 0.19518 0.0
H1159 H 0.95681 0.19503 0.29496 0.0
H1160 H 0.93143 0.20187 0.25803 0.0
H1161 H 0.92947 0.1315 0.23434 0.0
H1162 H 0.95498 0.12455 0.27069 0.0
H1163 H 0.88726 0.15095 0.22861 0.0
H1164 H 0.96724 0.16437 0.20664 0.0
H1165 H 0.00517 0.18267 0.21319 0.0
H1166 H 0.9737 0.2464 0.20708 0.0
H1167 H 0.93551 0.22848 0.20086 0.0
C1168 C 0.87158 0.15404 0.10282 0.0
C1169 C 0.86821 0.17398 0.091 0.0
C1170 C 0.87912 0.15444 0.12886 0.0
C1171 C 0.88313 0.17476 0.1438 0.0
C1172 C 0.87936 0.19471 0.13225 0.0
C1173 C 0.87194 0.19433 0.10611 0.0
C1174 C 0.89278 0.17503 0.17082 0.0
C1175 C 0.91367 0.18631 0.17636 0.0
C1176 C 0.88283 0.16255 0.19013 0.0
C1177 C 0.86005 0.15143 0.18605 0.0
C1178 C 0.84068 0.16347 0.17863 0.0
C1179 C 0.81935 0.15286 0.17446 0.0
C1180 C 0.81713 0.13023 0.1778 0.0
C1181 C 0.83623 0.11818 0.18538 0.0
C1182 C 0.8576 0.1287 0.18956 0.0
C1183 C 0.95083 0.181 0.28199 0.0
C1184 C 0.95805 0.15925 0.28575 0.0
C1185 C 0.93626 0.18493 0.26098 0.0
C1186 C 0.92875 0.1672 0.24332 0.0
C1187 C 0.93496 0.14541 0.24781 0.0
C1188 C 0.94952 0.14147 0.26872 0.0
C1189 C 0.91606 0.17122 0.21893 0.0
C1190 C 0.8947 0.1607 0.21388 0.0
C1191 C 0.92555 0.18438 0.20002 0.0
C1192 C 0.9485 0.19513 0.20362 0.0
C1193 C 0.96839 0.18231 0.20691 0.0
C1194 C 0.98993 0.1926 0.21053 0.0
C1195 C 0.99183 0.21569 0.21064 0.0
C1196 C 0.97219 0.22853 0.20705 0.0
C1197 C 0.9506 0.21831 0.20348 0.0
H1198 H 0.00853 0.22363 0.21343 0.0
H1199 H 0.8006 0.12205 0.17455 0.0
H1200 H 0.1812 0.82697 0.16021 0.0
H1201 H 0.18211 0.81121 0.20265 0.0
H1202 H 0.15942 0.74792 0.16511 0.0
H1203 H 0.15696 0.76424 0.12286 0.0
H1204 H 0.14089 0.75297 0.21044 0.0
H1205 H 0.21849 0.76111 0.18036 0.0
H1206 H 0.25219 0.78081 0.16421 0.0
H1207 H 0.25288 0.82495 0.23502 0.0
H1208 H 0.21899 0.80567 0.25145 0.0
H1209 H 0.20428 0.68331 0.29308 0.0
H1210 H 0.18902 0.70365 0.25786 0.0
H1211 H 0.18355 0.76287 0.31117 0.0
H1212 H 0.19729 0.7423 0.34736 0.0
H1213 H 0.21387 0.76234 0.26142 0.0
H1214 H 0.13736 0.74812 0.29239 0.0
H1215 H 0.10592 0.72444 0.30664 0.0
H1216 H 0.1064 0.68655 0.23132 0.0
H1217 H 0.13811 0.70979 0.21675 0.0
C1218 C 0.1763 0.80972 0.16112 0.0
C1219 C 0.16935 0.79666 0.13835 0.0
C1220 C 0.17689 0.8007 0.18533 0.0
C1221 C 0.17148 0.77817 0.18702 0.0
C1222 C 0.16378 0.7653 0.16433 0.0
C1223 C 0.16249 0.77456 0.1402 0.0
C1224 C 0.17481 0.76784 0.21212 0.0
C1225 C 0.15692 0.75492 0.22145 0.0
C1226 C 0.19562 0.77055 0.22678 0.0
C1227 C 0.21606 0.78211 0.217 0.0
C1228 C 0.22574 0.77511 0.19241 0.0
C1229 C 0.24488 0.78619 0.18321 0.0
C1230 C 0.25463 0.80416 0.19855 0.0
C1231 C 0.24529 0.81105 0.22315 0.0
C1232 C 0.22613 0.80005 0.23242 0.0
C1233 C 0.19903 0.70039 0.29782 0.0
C1234 C 0.20221 0.7111 0.32328 0.0
C1235 C 0.19044 0.71203 0.27749 0.0
C1236 C 0.18521 0.73467 0.28202 0.0
C1237 C 0.18752 0.74534 0.30742 0.0
C1238 C 0.19562 0.73358 0.32798 0.0
C1239 C 0.18005 0.74755 0.25948 0.0
C1240 C 0.19772 0.76077 0.25054 0.0
C1241 C 0.15937 0.74456 0.24488 0.0
C1242 C 0.14027 0.73059 0.25357 0.0
C1243 C 0.13093 0.7346 0.27895 0.0
C1244 C 0.11301 0.72129 0.28707 0.0
C1245 C 0.1042 0.70397 0.26992 0.0
C1246 C 0.11326 0.69996 0.24459 0.0
C1247 C 0.13118 0.71322 0.23639 0.0
H1248 H 0.09033 0.69368 0.27623 0.0
H1249 H 0.26945 0.81271 0.19139 0.0
H1250 H 0.73624 0.67116 0.53888 0.0
H1251 H 0.76871 0.69054 0.56161 0.0
H1252 H 0.73562 0.75356 0.55351 0.0
H1253 H 0.70312 0.73442 0.53081 0.0
H1254 H 0.78176 0.75322 0.53931 0.0
H1255 H 0.73462 0.73242 0.61094 0.0
H1256 H 0.71336 0.7064 0.63669 0.0
H1257 H 0.77592 0.67039 0.64827 0.0
H1258 H 0.7975 0.69601 0.62224 0.0
H1259 H 0.83727 0.82816 0.63292 0.0
H1260 H 0.8109 0.80434 0.60572 0.0
H1261 H 0.84949 0.74647 0.62375 0.0
H1262 H 0.87573 0.77029 0.65161 0.0
H1263 H 0.80372 0.74102 0.63098 0.0
H1264 H 0.8516 0.76378 0.56259 0.0
H1265 H 0.8729 0.78996 0.53715 0.0
H1266 H 0.80941 0.82214 0.51929 0.0
H1267 H 0.78774 0.79635 0.54495 0.0
C1268 C 0.73585 0.68915 0.54196 0.0
C1269 C 0.7171 0.70125 0.533 0.0
C1270 C 0.75438 0.70016 0.55501 0.0
C1271 C 0.7545 0.72345 0.55925 0.0
C1272 C 0.73585 0.73557 0.55034 0.0
C1273 C 0.71725 0.72458 0.53748 0.0
C1274 C 0.77409 0.73531 0.57289 0.0
C1275 C 0.78648 0.75072 0.55943 0.0
C1276 C 0.78062 0.73145 0.59882 0.0
C1277 C 0.76763 0.71598 0.61437 0.0
C1278 C 0.7438 0.71882 0.61875 0.0
C1279 C 0.7317 0.70418 0.63344 0.0
C1280 C 0.74328 0.68673 0.64405 0.0
C1281 C 0.76698 0.6839 0.64 0.0
C1282 C 0.77915 0.69848 0.62529 0.0
C1283 C 0.84023 0.81037 0.63097 0.0
C1284 C 0.85849 0.80107 0.64448 0.0
C1285 C 0.82526 0.7968 0.61524 0.0
C1286 C 0.82832 0.77364 0.61257 0.0
C1287 C 0.84687 0.76431 0.62551 0.0
C1288 C 0.86193 0.77793 0.64123 0.0
C1289 C 0.81123 0.75926 0.59757 0.0
C1290 C 0.79926 0.74335 0.61075 0.0
C1291 C 0.8051 0.76264 0.57136 0.0
C1292 C 0.81806 0.77821 0.55588 0.0
C1293 C 0.84219 0.77655 0.55342 0.0
C1294 C 0.85433 0.7913 0.53892 0.0
C1295 C 0.84252 0.80773 0.52665 0.0
C1296 C 0.81854 0.80941 0.52882 0.0
C1297 C 0.80631 0.79471 0.54331 0.0
H1298 H 0.85195 0.81913 0.51543 0.0
H1299 H 0.73391 0.67545 0.65549 0.0
H1300 H 0.75738 0.20225 0.01231 0.0
H1301 H 0.72437 0.21986 0.03552 0.0
H1302 H 0.76498 0.22967 0.10658 0.0
H1303 H 0.79825 0.21229 0.08346 0.0
H1304 H 0.71875 0.21225 0.11288 0.0
H1305 H 0.75861 0.27185 0.07429 0.0
H1306 H 0.77612 0.28977 0.03756 0.0
H1307 H 0.71089 0.2876 0.99718 0.0
H1308 H 0.69308 0.26935 0.03352 0.0
H1309 H 0.65213 0.29074 0.19001 0.0
H1310 H 0.68249 0.26993 0.16563 0.0
H1311 H 0.64548 0.27599 0.09305 0.0
H1312 H 0.61531 0.29746 0.11744 0.0
H1313 H 0.68876 0.2838 0.08583 0.0
H1314 H 0.64776 0.22605 0.12344 0.0
H1315 H 0.62921 0.20667 0.15836 0.0
H1316 H 0.6943 0.2032 0.19828 0.0
H1317 H 0.7132 0.22284 0.16378 0.0
C1318 C 0.75928 0.20804 0.03292 0.0
C1319 C 0.78046 0.206 0.04604 0.0
C1320 C 0.74042 0.21813 0.0461 0.0
C1321 C 0.74234 0.22613 0.07266 0.0
C1322 C 0.76322 0.22358 0.08604 0.0
C1323 C 0.78221 0.21376 0.07279 0.0
C1324 C 0.72272 0.23771 0.08631 0.0
C1325 C 0.71229 0.22802 0.10724 0.0
C1326 C 0.71393 0.25787 0.07823 0.0
C1327 C 0.72458 0.26902 0.05649 0.0
C1328 C 0.74805 0.27502 0.05747 0.0
C1329 C 0.75802 0.28527 0.03675 0.0
C1330 C 0.74464 0.28976 0.01501 0.0
C1331 C 0.72124 0.28408 0.01401 0.0
C1332 C 0.7112 0.27379 0.03467 0.0
C1333 C 0.65037 0.28743 0.16889 0.0
C1334 C 0.63132 0.29556 0.15561 0.0
C1335 C 0.6677 0.27548 0.15496 0.0
C1336 C 0.6661 0.27101 0.12753 0.0
C1337 C 0.64707 0.27917 0.11421 0.0
C1338 C 0.62986 0.29141 0.12812 0.0
C1339 C 0.68469 0.25848 0.11274 0.0
C1340 C 0.69501 0.26797 0.09151 0.0
C1341 C 0.69315 0.23795 0.12033 0.0
C1342 C 0.68186 0.2261 0.14113 0.0
C1343 C 0.65809 0.22131 0.13977 0.0
C1344 C 0.64752 0.21025 0.15947 0.0
C1345 C 0.66055 0.20376 0.18056 0.0
C1346 C 0.68421 0.20826 0.18195 0.0
C1347 C 0.69487 0.21934 0.16231 0.0
H1348 H 0.65234 0.19519 0.19579 0.0
H1349 H 0.75239 0.29769 0.99898 0.0
H1350 H 0.35947 0.27397 0.63803 0.0
H1351 H 0.35679 0.25835 0.68057 0.0
H1352 H 0.29788 0.30002 0.70073 0.0
H1353 H 0.30044 0.31578 0.65842 0.0
H1354 H 0.32933 0.29941 0.74161 0.0
H1355 H 0.29014 0.24683 0.67895 0.0
H1356 H 0.28769 0.22113 0.63865 0.0
H1357 H 0.34323 0.18229 0.66649 0.0
H1358 H 0.3462 0.20796 0.70681 0.0
H1359 H 0.26285 0.25007 0.83464 0.0
H1360 H 0.2802 0.26632 0.79734 0.0
H1361 H 0.3319 0.21469 0.79156 0.0
H1362 H 0.3141 0.19792 0.82867 0.0
H1363 H 0.31232 0.21912 0.74486 0.0
H1364 H 0.34705 0.26829 0.8111 0.0
H1365 H 0.3493 0.29383 0.8515 0.0
H1366 H 0.30302 0.33905 0.81769 0.0
H1367 H 0.30021 0.31364 0.77721 0.0
C1368 C 0.34595 0.27982 0.65152 0.0
C1369 C 0.33002 0.29598 0.64474 0.0
C1370 C 0.34446 0.27088 0.6758 0.0
C1371 C 0.32708 0.27798 0.69369 0.0
C1372 C 0.31145 0.29437 0.68719 0.0
C1373 C 0.31285 0.30324 0.66291 0.0
C1374 C 0.32455 0.26793 0.71893 0.0
C1375 C 0.32553 0.28188 0.7424 0.0
C1376 C 0.32044 0.24492 0.71989 0.0
C1377 C 0.31858 0.22945 0.69572 0.0
C1378 C 0.30196 0.23291 0.67636 0.0
C1379 C 0.30045 0.21834 0.65354 0.0
C1380 C 0.31535 0.20013 0.64997 0.0
C1381 C 0.33174 0.19643 0.66925 0.0
C1382 C 0.33334 0.21098 0.6921 0.0
C1383 C 0.27801 0.24225 0.82554 0.0
C1384 C 0.28702 0.22264 0.8344 0.0
C1385 C 0.28807 0.25169 0.8044 0.0
C1386 C 0.30749 0.24184 0.79181 0.0
C1387 C 0.31698 0.22261 0.80109 0.0
C1388 C 0.3069 0.21313 0.82235 0.0
C1389 C 0.31641 0.25072 0.76765 0.0
C1390 C 0.31663 0.23657 0.74428 0.0
C1391 C 0.32168 0.27355 0.76682 0.0
C1392 C 0.32333 0.28896 0.79113 0.0
C1393 C 0.33722 0.2836 0.81233 0.0
C1394 C 0.33861 0.29807 0.83525 0.0
C1395 C 0.32629 0.31803 0.83718 0.0
C1396 C 0.31257 0.32358 0.81617 0.0
C1397 C 0.3111 0.30916 0.79321 0.0
H1398 H 0.32739 0.32922 0.85493 0.0
H1399 H 0.31415 0.18886 0.63229 0.0
H1400 H 0.63949 0.72198 0.43558 0.0
H1401 H 0.6444 0.73966 0.39455 0.0
H1402 H 0.71052 0.70757 0.3827 0.0
H1403 H 0.70596 0.69012 0.42358 0.0
H1404 H 0.71287 0.75076 0.3746 0.0
H1405 H 0.66315 0.68844 0.34864 0.0
H1406 H 0.62823 0.66537 0.35144 0.0
H1407 H 0.58578 0.72077 0.33492 0.0
H1408 H 0.62046 0.74427 0.3324 0.0
H1409 H 0.74024 0.75766 0.24369 0.0
H1410 H 0.72632 0.74102 0.28245 0.0
H1411 H 0.66768 0.78512 0.28657 0.0
H1412 H 0.68132 0.80173 0.2472 0.0
H1413 H 0.65818 0.73948 0.29947 0.0
H1414 H 0.70909 0.80105 0.3231 0.0
H1415 H 0.74462 0.82315 0.31984 0.0
H1416 H 0.78534 0.76793 0.34075 0.0
H1417 H 0.75006 0.74537 0.3437 0.0
C1418 C 0.6551 0.71876 0.42427 0.0
C1419 C 0.67238 0.70471 0.43293 0.0
C1420 C 0.65781 0.72877 0.40078 0.0
C1421 C 0.67776 0.7248 0.38554 0.0
C1422 C 0.69502 0.71089 0.39421 0.0
C1423 C 0.69235 0.7009 0.4176 0.0
C1424 C 0.68107 0.73529 0.36066 0.0
C1425 C 0.70097 0.74816 0.35815 0.0
C1426 C 0.66522 0.73236 0.33944 0.0
C1427 C 0.64438 0.71818 0.34062 0.0
C1428 C 0.64636 0.69575 0.3458 0.0
C1429 C 0.62662 0.68259 0.3473 0.0
C1430 C 0.6048 0.69162 0.34344 0.0
C1431 C 0.60269 0.71381 0.33795 0.0
C1432 C 0.62239 0.72705 0.33647 0.0
C1433 C 0.72402 0.76343 0.25229 0.0
C1434 C 0.71193 0.7811 0.24242 0.0
C1435 C 0.71617 0.75398 0.27457 0.0
C1436 C 0.69614 0.76204 0.28747 0.0
C1437 C 0.68321 0.77873 0.27685 0.0
C1438 C 0.69111 0.78829 0.25453 0.0
C1439 C 0.69023 0.75442 0.31336 0.0
C1440 C 0.66989 0.74222 0.31608 0.0
C1441 C 0.7057 0.75784 0.33484 0.0
C1442 C 0.72694 0.77146 0.33341 0.0
C1443 C 0.72563 0.79356 0.32681 0.0
C1444 C 0.74572 0.80618 0.32504 0.0
C1445 C 0.76723 0.79694 0.33004 0.0
C1446 C 0.76867 0.77507 0.33687 0.0
C1447 C 0.74863 0.76236 0.33861 0.0
H1448 H 0.78276 0.80673 0.32866 0.0
H1449 H 0.58953 0.68141 0.34463 0.0
H1450 H 0.795 0.19935 0.93316 0.0
H1451 H 0.79383 0.21839 0.89304 0.0
H1452 H 0.85409 0.25657 0.91866 0.0
H1453 H 0.85477 0.23798 0.95973 0.0
H1454 H 0.82185 0.28098 0.89221 0.0
H1455 H 0.86115 0.2112 0.87756 0.0
H1456 H 0.86423 0.17118 0.88339 0.0
H1457 H 0.80274 0.1583 0.83738 0.0
H1458 H 0.79895 0.1983 0.83176 0.0
H1459 H 0.8193 0.31125 0.76045 0.0
H1460 H 0.83637 0.29606 0.79913 0.0
H1461 H 0.78254 0.24644 0.79704 0.0
H1462 H 0.76596 0.26103 0.75815 0.0
H1463 H 0.82252 0.22911 0.811 0.0
H1464 H 0.7781 0.29646 0.83504 0.0
H1465 H 0.76933 0.33638 0.83414 0.0
H1466 H 0.83713 0.35318 0.8639 0.0
H1467 H 0.84638 0.31331 0.86466 0.0
C1468 C 0.80778 0.21206 0.93044 0.0
C1469 C 0.82515 0.21706 0.94926 0.0
C1470 C 0.80715 0.22287 0.90751 0.0
C1471 C 0.8243 0.23837 0.90258 0.0
C1472 C 0.84086 0.24447 0.92206 0.0
C1473 C 0.84122 0.23391 0.94542 0.0
C1474 C 0.82539 0.24692 0.87633 0.0
C1475 C 0.82264 0.26976 0.87439 0.0
C1476 C 0.82625 0.23214 0.85316 0.0
C1477 C 0.82971 0.20782 0.85435 0.0
C1478 C 0.8483 0.19984 0.86863 0.0
C1479 C 0.85009 0.17718 0.87205 0.0
C1480 C 0.83354 0.16227 0.86102 0.0
C1481 C 0.81544 0.16991 0.84608 0.0
C1482 C 0.81349 0.19258 0.84272 0.0
C1483 C 0.81147 0.29678 0.76792 0.0
C1484 C 0.7911 0.28752 0.75658 0.0
C1485 C 0.82114 0.28822 0.79008 0.0
C1486 C 0.81051 0.27034 0.8012 0.0
C1487 C 0.79101 0.26028 0.78886 0.0
C1488 C 0.78141 0.26877 0.7668 0.0
C1489 C 0.81811 0.26314 0.82687 0.0
C1490 C 0.82257 0.24047 0.82872 0.0
C1491 C 0.81861 0.27804 0.84996 0.0
C1492 C 0.81303 0.30196 0.84957 0.0
C1493 C 0.79118 0.30868 0.8412 0.0
C1494 C 0.78612 0.33129 0.84075 0.0
C1495 C 0.80269 0.34731 0.84887 0.0
C1496 C 0.82434 0.34075 0.85754 0.0
C1497 C 0.8295 0.31816 0.85799 0.0
H1498 H 0.79874 0.3648 0.84851 0.0
H1499 H 0.83486 0.14475 0.86384 0.0
H1500 H 0.28697 0.26306 0.56314 0.0
H1501 H 0.25442 0.24341 0.54117 0.0
H1502 H 0.23775 0.30191 0.50196 0.0
H1503 H 0.26949 0.32202 0.52525 0.0
H1504 H 0.20018 0.28495 0.51469 0.0
H1505 H 0.2667 0.25426 0.47084 0.0
H1506 H 0.30517 0.23692 0.46641 0.0
H1507 H 0.27976 0.17921 0.50064 0.0
H1508 H 0.24119 0.19635 0.50563 0.0
H1509 H 0.13985 0.2192 0.40817 0.0
H1510 H 0.16946 0.24138 0.43248 0.0
H1511 H 0.16226 0.2014 0.49782 0.0
H1512 H 0.1315 0.17996 0.47455 0.0
H1513 H 0.21127 0.20916 0.4704 0.0
H1514 H 0.14331 0.24385 0.51356 0.0
H1515 H 0.10557 0.26265 0.51276 0.0
H1516 H 0.13569 0.31479 0.47204 0.0
H1517 H 0.17355 0.29609 0.47225 0.0
C1518 C 0.27632 0.2717 0.54983 0.0
C1519 C 0.28076 0.29399 0.54576 0.0
C1520 C 0.2578 0.26043 0.53715 0.0
C1521 C 0.24387 0.27097 0.51937 0.0
C1522 C 0.24821 0.29336 0.51551 0.0
C1523 C 0.26637 0.30483 0.52876 0.0
C1524 C 0.22477 0.25866 0.50494 0.0
C1525 C 0.20278 0.26849 0.5048 0.0
C1526 C 0.22796 0.23713 0.49193 0.0
C1527 C 0.2511 0.22668 0.48883 0.0
C1528 C 0.26935 0.23793 0.47758 0.0
C1529 C 0.29117 0.22813 0.47495 0.0
C1530 C 0.29492 0.207 0.48329 0.0
C1531 C 0.27684 0.19559 0.49422 0.0
C1532 C 0.25499 0.20533 0.49693 0.0
C1533 C 0.14404 0.21538 0.42796 0.0
C1534 C 0.13316 0.19766 0.43929 0.0
C1535 C 0.16115 0.22799 0.4417 0.0
C1536 C 0.16797 0.22292 0.46682 0.0
C1537 C 0.1572 0.20544 0.47835 0.0
C1538 C 0.13975 0.1931 0.46488 0.0
C1539 C 0.18698 0.23539 0.48065 0.0
C1540 C 0.2089 0.22561 0.48045 0.0
C1541 C 0.18389 0.25716 0.49263 0.0
C1542 C 0.16118 0.26843 0.49264 0.0
C1543 C 0.14182 0.25919 0.50418 0.0
C1544 C 0.12042 0.26986 0.5039 0.0
C1545 C 0.11821 0.28987 0.49228 0.0
C1546 C 0.13741 0.29928 0.48099 0.0
C1547 C 0.15885 0.28866 0.4812 0.0
H1548 H 0.10163 0.29811 0.49208 0.0
H1549 H 0.31183 0.19943 0.48124 0.0
H1550 H 0.24581 0.82662 0.04356 0.0
H1551 H 0.27846 0.80777 0.02101 0.0
H1552 H 0.24046 0.74602 0.01489 0.0
H1553 H 0.20788 0.76459 0.03766 0.0
H1554 H 0.28481 0.74017 0.02998 0.0
H1555 H 0.2448 0.77669 0.96253 0.0
H1556 H 0.22772 0.8092 0.94371 0.0
H1557 H 0.29385 0.84153 0.94641 0.0
H1558 H 0.31129 0.80927 0.96553 0.0
H1559 H 0.34164 0.6746 0.92955 0.0
H1560 H 0.31386 0.69698 0.95614 0.0
H1561 H 0.35815 0.75435 0.95481 0.0
H1562 H 0.3858 0.73216 0.92735 0.0
H1563 H 0.3137 0.76494 0.94588 0.0
H1564 H 0.3545 0.72707 0.00983 0.0
H1565 H 0.37149 0.69496 0.02952 0.0
H1566 H 0.30425 0.66564 0.03443 0.0
H1567 H 0.28688 0.69743 0.0144 0.0
C1568 C 0.24442 0.809 0.03752 0.0
C1569 C 0.22419 0.79712 0.0424 0.0
C1570 C 0.26308 0.79828 0.02455 0.0
C1571 C 0.26179 0.77554 0.01608 0.0
C1572 C 0.2418 0.76358 0.02129 0.0
C1573 C 0.22316 0.77426 0.03424 0.0
C1574 C 0.2811 0.76414 0.00144 0.0
C1575 C 0.29101 0.74545 0.01147 0.0
C1576 C 0.28963 0.77148 0.97772 0.0
C1577 C 0.2793 0.79067 0.96569 0.0
C1578 C 0.25568 0.79078 0.95923 0.0
C1579 C 0.24594 0.80914 0.9485 0.0
C1580 C 0.25968 0.82743 0.94394 0.0
C1581 C 0.28323 0.82735 0.94998 0.0
C1582 C 0.29305 0.80902 0.96074 0.0
C1583 C 0.34543 0.69202 0.93472 0.0
C1584 C 0.36594 0.7016 0.92629 0.0
C1585 C 0.32963 0.70474 0.95016 0.0
C1586 C 0.33406 0.72727 0.95774 0.0
C1587 C 0.35445 0.73697 0.94928 0.0
C1588 C 0.3703 0.72422 0.93378 0.0
C1589 C 0.31714 0.74065 0.97417 0.0
C1590 C 0.30769 0.75975 0.9645 0.0
C1591 C 0.30905 0.73371 0.99829 0.0
C1592 C 0.31941 0.71457 0.01042 0.0
C1593 C 0.34335 0.7137 0.01492 0.0
C1594 C 0.35305 0.69557 0.02618 0.0
C1595 C 0.33897 0.67825 0.03317 0.0
C1596 C 0.31514 0.67906 0.02898 0.0
C1597 C 0.30536 0.69715 0.01771 0.0
H1598 H 0.3465 0.66422 0.04189 0.0
H1599 H 0.25209 0.84165 0.93567 0.0
loop_
_geom_bond_atom_site_label_1
_geom_bond_atom_site_label_2
_geom_bond_distance
_geom_bond_site_symmetry_2
_ccdc_geom_bond_type
Fe0 O2 1.918 . S
Fe0 O5 1.997 . S
Fe0 O6 2.002 . S
Fe0 O11 1.976 . S
Fe0 O14 1.996 . S
Fe1 O2 1.918 . S
Fe1 O9 1.997 . S
Fe1 O12 1.996 . S
Fe1 O16 1.976 . S
Fe1 O19 2.002 . S
O2 Fe0 1.918 . S
O2 Fe1 1.918 . S
O2 Fe3 1.918 . S
Fe3 O2 1.918 . S
Fe3 O4 2.002 . S
Fe3 O13 1.976 . S
Fe3 O17 1.996 . S
Fe3 O20 1.997 . S
O4 Fe3 2.002 . S
O4 C21 1.295 . S
O5 Fe0 1.997 . S
O5 C21 1.235 . S
O6 Fe0 2.002 . S
O6 C7 1.295 . S
C7 O6 1.295 . S
C7 O9 1.235 . S
C8 O13 1.287 . S
C8 O14 1.255 . S
O9 Fe1 1.997 . S
O9 C7 1.235 . S
C10 O16 1.287 . S
C10 O17 1.255 . S
O11 Fe0 1.976 . S
O11 C18 1.287 . S
O12 Fe1 1.996 . S
O12 C18 1.255 . S
O13 Fe3 1.976 . S
O13 C8 1.287 . S
O14 Fe0 1.996 . S
O14 C8 1.255 . S
C15 O19 1.295 . S
C15 O20 1.235 . S
O16 Fe1 1.976 . S
O16 C10 1.287 . S
O17 Fe3 1.996 . S
O17 C10 1.255 . S
C18 O11 1.287 . S
C18 O12 1.255 . S
O19 Fe1 2.002 . S
O19 C15 1.295 . S
O20 Fe3 1.997 . S
O20 C15 1.235 . S
C21 O4 1.295 . S
C21 O5 1.235 . S
Fe22 O24 1.918 . S
Fe22 O27 1.997 . S
Fe22 O28 2.002 . S
Fe22 O33 1.976 . S
Fe22 O36 1.996 . S
Fe23 O24 1.918 . S
Fe23 O31 1.997 . S
Fe23 O34 1.996 . S
Fe23 O38 1.976 . S
Fe23 O41 2.002 . S
O24 Fe22 1.918 . S
O24 Fe23 1.918 . S
O24 Fe25 1.918 . S
Fe25 O24 1.918 . S
Fe25 O26 2.002 . S
Fe25 O35 1.976 . S
Fe25 O39 1.996 . S
Fe25 O42 1.997 . S
O26 Fe25 2.002 . S
O26 C43 1.295 . S
O27 Fe22 1.997 . S
O27 C43 1.235 . S
O28 Fe22 2.002 . S
O28 C29 1.295 . S
C29 O28 1.295 . S
C29 O31 1.235 . S
C30 O35 1.287 . S
C30 O36 1.255 . S
O31 Fe23 1.997 . S
O31 C29 1.235 . S
C32 O38 1.287 . S
C32 O39 1.255 . S
O33 Fe22 1.976 . S
O33 C40 1.287 . S
O34 Fe23 1.996 . S
O34 C40 1.255 . S
O35 Fe25 1.976 . S
O35 C30 1.287 . S
O36 Fe22 1.996 . S
O36 C30 1.255 . S
C37 O41 1.295 . S
C37 O42 1.235 . S
O38 Fe23 1.976 . S
O38 C32 1.287 . S
O39 Fe25 1.996 . S
O39 C32 1.255 . S
C40 O33 1.287 . S
C40 O34 1.255 . S
O41 Fe23 2.002 . S
O41 C37 1.295 . S
O42 Fe25 1.997 . S
O42 C37 1.235 . S
C43 O26 1.295 . S
C43 O27 1.235 . S
Fe44 O46 1.918 . S
Fe44 O49 1.997 1_554 S
Fe44 O50 2.002 . S
Fe44 O55 1.976 . S
Fe44 O58 1.996 . S
Fe45 O46 1.918 . S
Fe45 O53 1.997 . S
Fe45 O56 1.996 . S
Fe45 O60 1.976 . S
Fe45 O63 2.002 1_554 S
O46 Fe44 1.918 . S
O46 Fe45 1.918 . S
O46 Fe47 1.918 1_554 S
Fe47 O46 1.918 1_556 S
Fe47 O48 2.002 . S
Fe47 O57 1.976 1_556 S
Fe47 O61 1.996 1_556 S
Fe47 O64 1.997 . S
O48 Fe47 2.002 . S
O48 C65 1.295 . S
O49 Fe44 1.997 1_556 S
O49 C65 1.235 . S
O50 Fe44 2.002 . S
O50 C51 1.295 1_554 S
C51 O50 1.295 1_556 S
C51 O53 1.235 1_556 S
C52 O57 1.287 . S
C52 O58 1.255 . S
O53 Fe45 1.997 . S
O53 C51 1.235 1_554 S
C54 O60 1.287 . S
C54 O61 1.255 . S
O55 Fe44 1.976 . S
O55 C62 1.287 . S
O56 Fe45 1.996 . S
O56 C62 1.255 . S
O57 Fe47 1.976 1_554 S
O57 C52 1.287 . S
O58 Fe44 1.996 . S
O58 C52 1.255 . S
C59 O63 1.295 . S
C59 O64 1.235 . S
O60 Fe45 1.976 . S
O60 C54 1.287 . S
O61 Fe47 1.996 1_554 S
O61 C54 1.255 . S
C62 O55 1.287 . S
C62 O56 1.255 . S
O63 Fe45 2.002 1_556 S
O63 C59 1.295 . S
O64 Fe47 1.997 . S
O64 C59 1.235 . S
C65 O48 1.295 . S
C65 O49 1.235 . S
Fe66 O68 1.918 . S
Fe66 O71 1.997 . S
Fe66 O72 2.002 . S
Fe66 O77 1.976 . S
Fe66 O80 1.996 . S
Fe67 O68 1.918 . S
Fe67 O75 1.997 . S
Fe67 O78 1.996 . S
Fe67 O82 1.976 . S
Fe67 O85 2.002 . S
O68 Fe66 1.918 . S
O68 Fe67 1.918 . S
O68 Fe69 1.918 . S
Fe69 O68 1.918 . S
Fe69 O70 2.002 . S
Fe69 O79 1.976 . S
Fe69 O83 1.996 . S
Fe69 O86 1.997 . S
O70 Fe69 2.002 . S
O70 C87 1.295 . S
O71 Fe66 1.997 . S
O71 C87 1.235 . S
O72 Fe66 2.002 . S
O72 C73 1.295 . S
C73 O72 1.295 . S
C73 O75 1.235 . S
C74 O79 1.287 . S
C74 O80 1.255 . S
O75 Fe67 1.997 . S
O75 C73 1.235 . S
C76 O82 1.287 . S
C76 O83 1.255 . S
O77 Fe66 1.976 . S
O77 C84 1.287 . S
O78 Fe67 1.996 . S
O78 C84 1.255 . S
O79 Fe69 1.976 . S
O79 C74 1.287 . S
O80 Fe66 1.996 . S
O80 C74 1.255 . S
C81 O85 1.295 . S
C81 O86 1.235 . S
O82 Fe67 1.976 . S
O82 C76 1.287 . S
O83 Fe69 1.996 . S
O83 C76 1.255 . S
C84 O77 1.287 . S
C84 O78 1.255 . S
O85 Fe67 2.002 . S
O85 C81 1.295 . S
O86 Fe69 1.997 . S
O86 C81 1.235 . S
C87 O70 1.295 . S
C87 O71 1.235 . S
C88 C89 1.386 1_455 S
C88 C90 1.397 . S
C88 H112 0.931 . S
C89 C88 1.386 1_655 S
C89 C93 1.397 . S
C90 C88 1.397 . S
C90 C91 1.384 . S
C90 H113 0.930 . S
C91 C90 1.384 . S
C91 C92 1.377 . S
C91 C94 1.481 . S
C92 C91 1.377 . S
C92 C93 1.389 1_455 S
C92 H114 0.929 . S
C93 C89 1.397 . S
C93 C92 1.389 1_655 S
C93 H115 0.931 . S
C94 C91 1.481 . S
C94 C95 1.387 . S
C94 C99 1.390 . S
C95 C94 1.387 . S
C95 C96 1.401 . S
C95 H116 0.930 . S
C96 C95 1.401 . S
C96 C97 1.376 . S
C96 C105 1.511 . S
C97 C96 1.376 . S
C97 C98 1.392 . S
C97 H118 0.931 . S
C98 C97 1.392 . S
C98 C99 1.361 . S
C98 C100 1.500 . S
C99 C94 1.390 . S
C99 C98 1.361 . S
C99 H117 0.931 . S
C100 C98 1.500 . S
C100 C101 1.371 . S
C100 C102 1.365 . S
C101 C100 1.371 . S
C101 C111 1.386 . S
C101 H119 0.931 . S
C102 C100 1.365 . S
C102 C103 1.409 . S
C102 H120 0.929 . S
C103 C102 1.409 . S
C103 C104 1.380 . S
C103 H121 0.930 . S
C104 C103 1.380 . S
C104 C111 1.357 . S
C105 C96 1.511 . S
C105 C106 1.341 . S
C105 C107 1.371 . S
C106 C105 1.341 . S
C106 C110 1.394 . S
C106 H122 0.930 . S
C107 C105 1.371 . S
C107 C108 1.392 . S
C107 H123 0.931 . S
C108 C107 1.392 . S
C108 C109 1.331 . S
C108 H126 0.932 . S
C109 C108 1.331 . S
C109 C110 1.336 . S
C110 C106 1.394 . S
C110 C109 1.336 . S
C110 H125 0.929 . S
C111 C101 1.386 . S
C111 C104 1.357 . S
C111 H124 0.928 . S
H112 C88 0.931 . S
H113 C90 0.930 . S
H114 C92 0.929 . S
H115 C93 0.931 . S
H116 C95 0.930 . S
H117 C99 0.931 . S
H118 C97 0.931 . S
H119 C101 0.931 . S
H120 C102 0.929 . S
H121 C103 0.930 . S
H122 C106 0.930 . S
H123 C107 0.931 . S
H124 C111 0.928 . S
H125 C110 0.929 . S
H126 C108 0.932 . S
C127 C128 1.386 . S
C127 C129 1.397 . S
C127 H151 0.931 . S
C128 C127 1.386 . S
C128 C132 1.397 . S
C129 C127 1.397 . S
C129 C130 1.384 . S
C129 H152 0.930 . S
C130 C129 1.384 . S
C130 C131 1.377 . S
C130 C133 1.481 . S
C131 C130 1.377 . S
C131 C132 1.389 . S
C131 H153 0.929 . S
C132 C128 1.397 . S
C132 C131 1.389 . S
C132 H154 0.931 . S
C133 C130 1.481 . S
C133 C134 1.387 . S
C133 C138 1.390 . S
C134 C133 1.387 . S
C134 C135 1.401 . S
C134 H155 0.930 . S
C135 C134 1.401 . S
C135 C136 1.376 . S
C135 C144 1.511 . S
C136 C135 1.376 . S
C136 C137 1.392 . S
C136 H157 0.931 . S
C137 C136 1.392 . S
C137 C138 1.361 . S
C137 C139 1.500 . S
C138 C133 1.390 . S
C138 C137 1.361 . S
C138 H156 0.931 . S
C139 C137 1.500 . S
C139 C140 1.371 . S
C139 C141 1.365 . S
C140 C139 1.371 . S
C140 C150 1.386 . S
C140 H158 0.931 . S
C141 C139 1.365 . S
C141 C142 1.409 . S
C141 H159 0.929 . S
C142 C141 1.409 . S
C142 C143 1.380 . S
C142 H160 0.930 . S
C143 C142 1.380 . S
C143 C150 1.357 . S
C144 C135 1.511 . S
C144 C145 1.341 . S
C144 C146 1.371 . S
C145 C144 1.341 . S
C145 C149 1.394 . S
C145 H161 0.930 . S
C146 C144 1.371 . S
C146 C147 1.392 . S
C146 H162 0.931 . S
C147 C146 1.392 . S
C147 C148 1.331 . S
C147 H165 0.932 . S
C148 C147 1.331 . S
C148 C149 1.336 . S
C149 C145 1.394 . S
C149 C148 1.336 . S
C149 H164 0.929 . S
C150 C140 1.386 . S
C150 C143 1.357 . S
C150 H163 0.928 . S
H151 C127 0.931 . S
H152 C129 0.930 . S
H153 C131 0.929 . S
H154 C132 0.931 . S
H155 C134 0.930 . S
H156 C138 0.931 . S
H157 C136 0.931 . S
H158 C140 0.931 . S
H159 C141 0.929 . S
H160 C142 0.930 . S
H161 C145 0.930 . S
H162 C146 0.931 . S
H163 C150 0.928 . S
H164 C149 0.929 . S
H165 C147 0.932 . S
C166 C167 1.386 . S
C166 C168 1.397 . S
C166 H190 0.931 . S
C167 C166 1.386 . S
C167 C171 1.397 . S
C168 C166 1.397 . S
C168 C169 1.384 . S
C168 H191 0.930 . S
C169 C168 1.384 . S
C169 C170 1.377 . S
C169 C172 1.481 . S
C170 C169 1.377 . S
C170 C171 1.389 . S
C170 H192 0.929 . S
C171 C167 1.397 . S
C171 C170 1.389 . S
C171 H193 0.931 . S
C172 C169 1.481 . S
C172 C173 1.387 . S
C172 C177 1.390 . S
C173 C172 1.387 . S
C173 C174 1.401 . S
C173 H194 0.930 . S
C174 C173 1.401 . S
C174 C175 1.376 . S
C174 C183 1.511 . S
C175 C174 1.376 . S
C175 C176 1.392 . S
C175 H196 0.931 . S
C176 C175 1.392 . S
C176 C177 1.361 . S
C176 C178 1.500 . S
C177 C172 1.390 . S
C177 C176 1.361 . S
C177 H195 0.931 . S
C178 C176 1.500 . S
C178 C179 1.371 . S
C178 C180 1.365 . S
C179 C178 1.371 . S
C179 C189 1.386 . S
C179 H197 0.931 . S
C180 C178 1.365 . S
C180 C181 1.409 . S
C180 H198 0.929 . S
C181 C180 1.409 . S
C181 C182 1.380 . S
C181 H199 0.930 . S
C182 C181 1.380 . S
C182 C189 1.357 . S
C183 C174 1.511 . S
C183 C184 1.341 . S
C183 C185 1.371 . S
C184 C183 1.341 . S
C184 C188 1.394 . S
C184 H200 0.930 . S
C185 C183 1.371 . S
C185 C186 1.392 . S
C185 H201 0.931 . S
C186 C185 1.392 . S
C186 C187 1.331 . S
C186 H204 0.932 . S
C187 C186 1.331 . S
C187 C188 1.336 . S
C188 C184 1.394 . S
C188 C187 1.336 . S
C188 H203 0.929 . S
C189 C179 1.386 . S
C189 C182 1.357 . S
C189 H202 0.928 . S
H190 C166 0.931 . S
H191 C168 0.930 . S
H192 C170 0.929 . S
H193 C171 0.931 . S
H194 C173 0.930 . S
H195 C177 0.931 . S
H196 C175 0.931 . S
H197 C179 0.931 . S
H198 C180 0.929 . S
H199 C181 0.930 . S
H200 C184 0.930 . S
H201 C185 0.931 . S
H202 C189 0.928 . S
H203 C188 0.929 . S
H204 C186 0.932 . S
C205 C206 1.386 . S
C205 C207 1.397 . S
C205 H229 0.931 . S
C206 C205 1.386 . S
C206 C210 1.397 . S
C207 C205 1.397 . S
C207 C208 1.384 . S
C207 H230 0.930 . S
C208 C207 1.384 . S
C208 C209 1.377 . S
C208 C211 1.481 . S
C209 C208 1.377 . S
C209 C210 1.389 . S
C209 H231 0.929 . S
C210 C206 1.397 . S
C210 C209 1.389 . S
C210 H232 0.931 . S
C211 C208 1.481 . S
C211 C212 1.387 . S
C211 C216 1.390 . S
C212 C211 1.387 . S
C212 C213 1.401 . S
C212 H233 0.930 . S
C213 C212 1.401 . S
C213 C214 1.376 . S
C213 C222 1.511 . S
C214 C213 1.376 . S
C214 C215 1.392 . S
C214 H235 0.931 . S
C215 C214 1.392 . S
C215 C216 1.361 . S
C215 C217 1.500 . S
C216 C211 1.390 . S
C216 C215 1.361 . S
C216 H234 0.931 . S
C217 C215 1.500 . S
C217 C218 1.371 . S
C217 C219 1.365 . S
C218 C217 1.371 . S
C218 C228 1.386 . S
C218 H236 0.931 . S
C219 C217 1.365 . S
C219 C220 1.409 . S
C219 H237 0.929 . S
C220 C219 1.409 . S
C220 C221 1.380 . S
C220 H238 0.930 . S
C221 C220 1.380 . S
C221 C228 1.357 . S
C222 C213 1.511 . S
C222 C223 1.341 . S
C222 C224 1.371 . S
C223 C222 1.341 . S
C223 C227 1.394 . S
C223 H239 0.930 . S
C224 C222 1.371 . S
C224 C225 1.392 . S
C224 H240 0.931 . S
C225 C224 1.392 . S
C225 C226 1.331 . S
C225 H243 0.932 . S
C226 C225 1.331 . S
C226 C227 1.336 . S
C227 C223 1.394 . S
C227 C226 1.336 . S
C227 H242 0.929 . S
C228 C218 1.386 . S
C228 C221 1.357 . S
C228 H241 0.928 . S
H229 C205 0.931 . S
H230 C207 0.930 . S
H231 C209 0.929 . S
H232 C210 0.931 . S
H233 C212 0.930 . S
H234 C216 0.931 . S
H235 C214 0.931 . S
H236 C218 0.931 . S
H237 C219 0.929 . S
H238 C220 0.930 . S
H239 C223 0.930 . S
H240 C224 0.931 . S
H241 C228 0.928 . S
H242 C227 0.929 . S
H243 C225 0.932 . S
C244 C245 1.386 . S
C244 C246 1.397 . S
C244 H268 0.931 . S
C245 C244 1.386 . S
C245 C249 1.397 . S
C246 C244 1.397 . S
C246 C247 1.384 . S
C246 H269 0.930 . S
C247 C246 1.384 . S
C247 C248 1.377 . S
C247 C250 1.481 . S
C248 C247 1.377 . S
C248 C249 1.389 . S
C248 H270 0.929 . S
C249 C245 1.397 . S
C249 C248 1.389 . S
C249 H271 0.931 . S
C250 C247 1.481 . S
C250 C251 1.387 . S
C250 C255 1.390 . S
C251 C250 1.387 . S
C251 C252 1.401 . S
C251 H272 0.930 . S
C252 C251 1.401 . S
C252 C253 1.376 . S
C252 C261 1.511 . S
C253 C252 1.376 . S
C253 C254 1.392 . S
C253 H274 0.931 . S
C254 C253 1.392 . S
C254 C255 1.361 . S
C254 C256 1.500 . S
C255 C250 1.390 . S
C255 C254 1.361 . S
C255 H273 0.931 . S
C256 C254 1.500 . S
C256 C257 1.371 . S
C256 C258 1.365 . S
C257 C256 1.371 . S
C257 C267 1.386 . S
C257 H275 0.931 . S
C258 C256 1.365 . S
C258 C259 1.409 . S
C258 H276 0.929 . S
C259 C258 1.409 . S
C259 C260 1.380 . S
C259 H277 0.930 . S
C260 C259 1.380 . S
C260 C267 1.357 . S
C261 C252 1.511 . S
C261 C262 1.341 . S
C261 C263 1.371 . S
C262 C261 1.341 . S
C262 C266 1.394 . S
C262 H278 0.930 . S
C263 C261 1.371 . S
C263 C264 1.392 . S
C263 H279 0.931 . S
C264 C263 1.392 . S
C264 C265 1.331 . S
C264 H282 0.932 . S
C265 C264 1.331 . S
C265 C266 1.336 . S
C266 C262 1.394 . S
C266 C265 1.336 . S
C266 H281 0.929 . S
C267 C257 1.386 . S
C267 C260 1.357 . S
C267 H280 0.928 . S
H268 C244 0.931 . S
H269 C246 0.930 . S
H270 C248 0.929 . S
H271 C249 0.931 . S
H272 C251 0.930 . S
H273 C255 0.931 . S
H274 C253 0.931 . S
H275 C257 0.931 . S
H276 C258 0.929 . S
H277 C259 0.930 . S
H278 C262 0.930 . S
H279 C263 0.931 . S
H280 C267 0.928 . S
H281 C266 0.929 . S
H282 C264 0.932 . S
C283 C284 1.386 . S
C283 C285 1.397 . S
C283 H307 0.931 . S
C284 C283 1.386 . S
C284 C288 1.397 . S
C285 C283 1.397 . S
C285 C286 1.384 . S
C285 H308 0.930 . S
C286 C285 1.384 . S
C286 C287 1.377 . S
C286 C289 1.481 . S
C287 C286 1.377 . S
C287 C288 1.389 . S
C287 H309 0.929 . S
C288 C284 1.397 . S
C288 C287 1.389 . S
C288 H310 0.931 . S
C289 C286 1.481 . S
C289 C290 1.387 . S
C289 C294 1.390 . S
C290 C289 1.387 . S
C290 C291 1.401 . S
C290 H311 0.930 . S
C291 C290 1.401 . S
C291 C292 1.376 . S
C291 C300 1.511 . S
C292 C291 1.376 . S
C292 C293 1.392 . S
C292 H313 0.931 . S
C293 C292 1.392 . S
C293 C294 1.361 . S
C293 C295 1.500 . S
C294 C289 1.390 . S
C294 C293 1.361 . S
C294 H312 0.931 . S
C295 C293 1.500 . S
C295 C296 1.371 . S
C295 C297 1.365 . S
C296 C295 1.371 . S
C296 C306 1.386 . S
C296 H314 0.931 . S
C297 C295 1.365 . S
C297 C298 1.409 . S
C297 H315 0.929 . S
C298 C297 1.409 . S
C298 C299 1.380 . S
C298 H316 0.930 . S
C299 C298 1.380 . S
C299 C306 1.357 . S
C300 C291 1.511 . S
C300 C301 1.341 . S
C300 C302 1.371 . S
C301 C300 1.341 . S
C301 C305 1.394 . S
C301 H317 0.930 . S
C302 C300 1.371 . S
C302 C303 1.392 . S
C302 H318 0.931 . S
C303 C302 1.392 . S
C303 C304 1.331 . S
C303 H321 0.932 . S
C304 C303 1.331 . S
C304 C305 1.336 . S
C305 C301 1.394 . S
C305 C304 1.336 . S
C305 H320 0.929 . S
C306 C296 1.386 . S
C306 C299 1.357 . S
C306 H319 0.928 . S
H307 C283 0.931 . S
H308 C285 0.930 . S
H309 C287 0.929 . S
H310 C288 0.931 . S
H311 C290 0.930 . S
H312 C294 0.931 . S
H313 C292 0.931 . S
H314 C296 0.931 . S
H315 C297 0.929 . S
H316 C298 0.930 . S
H317 C301 0.930 . S
H318 C302 0.931 . S
H319 C306 0.928 . S
H320 C305 0.929 . S
H321 C303 0.932 . S
C322 C323 1.386 . S
C322 C324 1.397 . S
C322 H346 0.931 . S
C323 C322 1.386 . S
C323 C327 1.397 . S
C324 C322 1.397 . S
C324 C325 1.384 . S
C324 H347 0.930 . S
C325 C324 1.384 . S
C325 C326 1.377 . S
C325 C328 1.481 . S
C326 C325 1.377 . S
C326 C327 1.389 . S
C326 H348 0.929 . S
C327 C323 1.397 . S
C327 C326 1.389 . S
C327 H349 0.931 . S
C328 C325 1.481 . S
C328 C329 1.387 . S
C328 C333 1.390 . S
C329 C328 1.387 . S
C329 C330 1.401 . S
C329 H350 0.930 . S
C330 C329 1.401 . S
C330 C331 1.376 . S
C330 C339 1.511 . S
C331 C330 1.376 . S
C331 C332 1.392 . S
C331 H352 0.931 . S
C332 C331 1.392 . S
C332 C333 1.361 . S
C332 C334 1.500 . S
C333 C328 1.390 . S
C333 C332 1.361 . S
C333 H351 0.931 . S
C334 C332 1.500 . S
C334 C335 1.371 . S
C334 C336 1.365 . S
C335 C334 1.371 . S
C335 C345 1.386 . S
C335 H353 0.931 . S
C336 C334 1.365 . S
C336 C337 1.409 . S
C336 H354 0.929 . S
C337 C336 1.409 . S
C337 C338 1.380 . S
C337 H355 0.930 . S
C338 C337 1.380 . S
C338 C345 1.357 . S
C339 C330 1.511 . S
C339 C340 1.341 . S
C339 C341 1.371 . S
C340 C339 1.341 . S
C340 C344 1.394 . S
C340 H356 0.930 . S
C341 C339 1.371 . S
C341 C342 1.392 . S
C341 H357 0.931 . S
C342 C341 1.392 . S
C342 C343 1.331 . S
C342 H360 0.932 . S
C343 C342 1.331 . S
C343 C344 1.336 . S
C344 C340 1.394 . S
C344 C343 1.336 . S
C344 H359 0.929 . S
C345 C335 1.386 . S
C345 C338 1.357 . S
C345 H358 0.928 . S
H346 C322 0.931 . S
H347 C324 0.930 . S
H348 C326 0.929 . S
H349 C327 0.931 . S
H350 C329 0.930 . S
H351 C333 0.931 . S
H352 C331 0.931 . S
H353 C335 0.931 . S
H354 C336 0.929 . S
H355 C337 0.930 . S
H356 C340 0.930 . S
H357 C341 0.931 . S
H358 C345 0.928 . S
H359 C344 0.929 . S
H360 C342 0.932 . S
C361 C362 1.386 . S
C361 C363 1.397 1_455 S
C361 H385 0.931 . S
C362 C361 1.386 . S
C362 C366 1.397 1_455 S
C363 C361 1.397 1_655 S
C363 C364 1.384 . S
C363 H386 0.930 . S
C364 C363 1.384 . S
C364 C365 1.377 . S
C364 C367 1.481 . S
C365 C364 1.377 . S
C365 C366 1.389 . S
C365 H387 0.929 . S
C366 C362 1.397 1_655 S
C366 C365 1.389 . S
C366 H388 0.931 . S
C367 C364 1.481 . S
C367 C368 1.387 . S
C367 C372 1.390 . S
C368 C367 1.387 . S
C368 C369 1.401 . S
C368 H389 0.930 . S
C369 C368 1.401 . S
C369 C370 1.376 . S
C369 C378 1.511 . S
C370 C369 1.376 . S
C370 C371 1.392 . S
C370 H391 0.931 . S
C371 C370 1.392 . S
C371 C372 1.361 . S
C371 C373 1.500 . S
C372 C367 1.390 . S
C372 C371 1.361 . S
C372 H390 0.931 . S
C373 C371 1.500 . S
C373 C374 1.371 . S
C373 C375 1.365 . S
C374 C373 1.371 . S
C374 C384 1.386 . S
C374 H392 0.931 . S
C375 C373 1.365 . S
C375 C376 1.409 . S
C375 H393 0.929 . S
C376 C375 1.409 . S
C376 C377 1.380 . S
C376 H394 0.930 . S
C377 C376 1.380 . S
C377 C384 1.357 . S
C378 C369 1.511 . S
C378 C379 1.341 . S
C378 C380 1.371 . S
C379 C378 1.341 . S
C379 C383 1.394 . S
C379 H395 0.930 . S
C380 C378 1.371 . S
C380 C381 1.392 . S
C380 H396 0.931 . S
C381 C380 1.392 . S
C381 C382 1.331 . S
C381 H399 0.932 . S
C382 C381 1.331 . S
C382 C383 1.336 . S
C383 C379 1.394 . S
C383 C382 1.336 . S
C383 H398 0.929 . S
C384 C374 1.386 . S
C384 C377 1.357 . S
C384 H397 0.928 . S
H385 C361 0.931 . S
H386 C363 0.930 . S
H387 C365 0.929 . S
H388 C366 0.931 . S
H389 C368 0.930 . S
H390 C372 0.931 . S
H391 C370 0.931 . S
H392 C374 0.931 . S
H393 C375 0.929 . S
H394 C376 0.930 . S
H395 C379 0.930 . S
H396 C380 0.931 . S
H397 C384 0.928 . S
H398 C383 0.929 . S
H399 C381 0.932 . S
H400 C418 0.951 . S
H401 C420 0.951 . S
H402 C422 0.950 . S
H403 C423 0.950 . S
H404 C425 0.950 . S
H405 C428 0.950 . S
H406 C429 0.950 . S
H407 C431 0.931 1_545 S
H408 C432 0.950 . S
H409 C433 0.951 . S
H410 C435 0.951 . S
H411 C437 0.950 . S
H412 C438 0.950 . S
H413 C440 0.950 . S
H414 C443 0.950 . S
H415 C444 0.950 . S
H416 C446 0.950 . S
H417 C447 0.950 . S
C418 H400 0.951 . S
C418 C419 1.366 . S
C418 C420 1.388 . S
C419 C418 1.366 . S
C419 C423 1.385 . S
C420 H401 0.951 . S
C420 C418 1.388 . S
C420 C421 1.366 . S
C421 C420 1.366 . S
C421 C422 1.414 . S
C421 C424 1.499 . S
C422 H402 0.950 . S
C422 C421 1.414 . S
C422 C423 1.374 . S
C423 H403 0.950 . S
C423 C419 1.385 . S
C423 C422 1.374 . S
C424 C421 1.499 . S
C424 C425 1.373 . S
C424 C426 1.389 . S
C425 H404 0.950 . S
C425 C424 1.373 . S
C425 C441 1.377 . S
C426 C424 1.389 . S
C426 C427 1.524 . S
C426 C440 1.377 . S
C427 C426 1.524 . S
C427 C428 1.397 . S
C427 C432 1.363 . S
C428 H405 0.950 . S
C428 C427 1.397 . S
C428 C429 1.334 . S
C429 H406 0.950 . S
C429 C428 1.334 . S
C429 C430 1.287 . S
C430 C429 1.287 . S
C430 C431 1.533 . S
C430 H449 0.913 . S
C431 H407 0.931 1_565 S
C431 C430 1.533 . S
C431 C432 1.428 . S
C432 H408 0.950 . S
C432 C427 1.363 . S
C432 C431 1.428 . S
C433 H409 0.951 . S
C433 C434 1.366 . S
C433 C435 1.388 1_545 S
C434 C433 1.366 . S
C434 C438 1.385 . S
C435 H410 0.951 . S
C435 C433 1.388 1_565 S
C435 C436 1.366 . S
C436 C435 1.366 . S
C436 C437 1.414 1_565 S
C436 C439 1.499 . S
C437 H411 0.950 . S
C437 C436 1.414 1_545 S
C437 C438 1.374 . S
C438 H412 0.950 . S
C438 C434 1.385 . S
C438 C437 1.374 . S
C439 C436 1.499 . S
C439 C440 1.373 . S
C439 C441 1.389 . S
C440 H413 0.950 . S
C440 C426 1.377 . S
C440 C439 1.373 . S
C441 C425 1.377 . S
C441 C439 1.389 . S
C441 C442 1.524 . S
C442 C441 1.524 . S
C442 C443 1.397 . S
C442 C447 1.363 . S
C443 H414 0.950 . S
C443 C442 1.397 . S
C443 C444 1.334 . S
C444 H415 0.950 . S
C444 C443 1.334 . S
C444 C445 1.287 . S
C445 C444 1.287 . S
C445 C446 1.524 . S
C445 H448 0.999 . S
C446 H416 0.950 . S
C446 C445 1.524 . S
C446 C447 1.415 . S
C447 H417 0.950 . S
C447 C442 1.363 . S
C447 C446 1.415 . S
H448 C445 0.999 . S
H449 C430 0.913 . S
H450 C468 0.951 . S
H451 C470 0.951 . S
H452 C472 0.950 . S
H453 C473 0.950 . S
H454 C475 0.950 . S
H455 C478 0.950 . S
H456 C479 0.950 . S
H457 C481 0.950 . S
H458 C482 0.950 . S
H459 C483 0.951 . S
H460 C485 0.951 . S
H461 C487 0.950 . S
H462 C488 0.950 . S
H463 C490 0.950 . S
H464 C493 0.950 . S
H465 C494 0.950 . S
H466 C496 0.950 . S
H467 C497 0.950 . S
C468 H450 0.951 . S
C468 C469 1.366 . S
C468 C470 1.388 . S
C469 C468 1.366 . S
C469 C473 1.385 . S
C470 H451 0.951 . S
C470 C468 1.388 . S
C470 C471 1.366 . S
C471 C470 1.366 . S
C471 C472 1.414 . S
C471 C474 1.499 . S
C472 H452 0.950 . S
C472 C471 1.414 . S
C472 C473 1.374 . S
C473 H453 0.950 . S
C473 C469 1.385 . S
C473 C472 1.374 . S
C474 C471 1.499 . S
C474 C475 1.373 . S
C474 C476 1.389 . S
C475 H454 0.950 . S
C475 C474 1.373 . S
C475 C491 1.377 . S
C476 C474 1.389 . S
C476 C477 1.524 . S
C476 C490 1.377 . S
C477 C476 1.524 . S
C477 C478 1.397 . S
C477 C482 1.363 . S
C478 H455 0.950 . S
C478 C477 1.397 . S
C478 C479 1.334 . S
C479 H456 0.950 . S
C479 C478 1.334 . S
C479 C480 1.287 . S
C480 C479 1.287 . S
C480 C481 1.524 . S
C480 H499 0.913 . S
C481 H457 0.950 . S
C481 C480 1.524 . S
C481 C482 1.415 . S
C482 H458 0.950 . S
C482 C477 1.363 . S
C482 C481 1.415 . S
C483 H459 0.951 . S
C483 C484 1.366 . S
C483 C485 1.388 . S
C484 C483 1.366 . S
C484 C488 1.385 . S
C485 H460 0.951 . S
C485 C483 1.388 . S
C485 C486 1.366 . S
C486 C485 1.366 . S
C486 C487 1.414 . S
C486 C489 1.499 . S
C487 H461 0.950 . S
C487 C486 1.414 . S
C487 C488 1.374 . S
C488 H462 0.950 . S
C488 C484 1.385 . S
C488 C487 1.374 . S
C489 C486 1.499 . S
C489 C490 1.373 . S
C489 C491 1.389 . S
C490 H463 0.950 . S
C490 C476 1.377 . S
C490 C489 1.373 . S
C491 C475 1.377 . S
C491 C489 1.389 . S
C491 C492 1.524 . S
C492 C491 1.524 . S
C492 C493 1.397 . S
C492 C497 1.363 . S
C493 H464 0.950 . S
C493 C492 1.397 . S
C493 C494 1.334 . S
C494 H465 0.950 . S
C494 C493 1.334 . S
C494 C495 1.287 . S
C495 C494 1.287 . S
C495 C496 1.524 . S
C495 H498 0.999 . S
C496 H466 0.950 . S
C496 C495 1.524 . S
C496 C497 1.415 . S
C497 H467 0.950 . S
C497 C492 1.363 . S
C497 C496 1.415 . S
H498 C495 0.999 . S
H499 C480 0.913 . S
H500 C518 0.951 . S
H501 C520 0.951 . S
H502 C522 0.950 . S
H503 C523 0.950 . S
H504 C525 0.950 . S
H505 C528 0.950 . S
H506 C529 0.950 . S
H507 C531 0.950 . S
H508 C532 0.950 . S
H509 C533 0.951 . S
H510 C535 0.951 . S
H511 C537 0.950 . S
H512 C538 0.950 . S
H513 C540 0.950 . S
H514 C543 0.950 1_565 S
H515 C544 0.950 1_565 S
H516 C546 0.950 . S
H517 C547 0.950 . S
C518 H500 0.951 . S
C518 C519 1.366 . S
C518 C520 1.388 . S
C519 C518 1.366 . S
C519 C523 1.385 . S
C520 H501 0.951 . S
C520 C518 1.388 . S
C520 C521 1.366 . S
C521 C520 1.366 . S
C521 C522 1.414 . S
C521 C524 1.499 . S
C522 H502 0.950 . S
C522 C521 1.414 . S
C522 C523 1.374 . S
C523 H503 0.950 . S
C523 C519 1.385 . S
C523 C522 1.374 . S
C524 C521 1.499 . S
C524 C525 1.373 . S
C524 C526 1.389 . S
C525 H504 0.950 . S
C525 C524 1.373 . S
C525 C541 1.377 . S
C526 C524 1.389 . S
C526 C527 1.524 . S
C526 C540 1.377 1_545 S
C527 C526 1.524 . S
C527 C528 1.397 . S
C527 C532 1.363 1_545 S
C528 H505 0.950 . S
C528 C527 1.397 . S
C528 C529 1.334 1_554 S
C529 H506 0.950 . S
C529 C528 1.334 1_556 S
C529 C530 1.287 . S
C530 C529 1.287 . S
C530 C531 1.524 1_545 S
C530 H549 0.913 . S
C531 H507 0.950 . S
C531 C530 1.524 1_565 S
C531 C532 1.415 1_556 S
C532 H508 0.950 . S
C532 C527 1.363 1_565 S
C532 C531 1.415 1_554 S
C533 H509 0.951 . S
C533 C534 1.366 . S
C533 C535 1.388 . S
C534 C533 1.366 . S
C534 C538 1.385 . S
C535 H510 0.951 . S
C535 C533 1.388 . S
C535 C536 1.366 . S
C536 C535 1.366 . S
C536 C537 1.414 . S
C536 C539 1.499 . S
C537 H511 0.950 . S
C537 C536 1.414 . S
C537 C538 1.374 . S
C538 H512 0.950 . S
C538 C534 1.385 . S
C538 C537 1.374 . S
C539 C536 1.499 . S
C539 C540 1.373 . S
C539 C541 1.389 1_565 S
C540 H513 0.950 . S
C540 C526 1.377 1_565 S
C540 C539 1.373 . S
C541 C525 1.377 . S
C541 C539 1.389 1_545 S
C541 C542 1.524 . S
C542 C541 1.524 . S
C542 C543 1.397 . S
C542 C547 1.363 . S
C543 H514 0.950 1_545 S
C543 C542 1.397 . S
C543 C544 1.334 . S
C544 H515 0.950 1_545 S
C544 C543 1.334 . S
C544 C545 1.287 . S
C545 C544 1.287 . S
C545 C546 1.524 . S
C545 H548 0.999 . S
C546 H516 0.950 . S
C546 C545 1.524 . S
C546 C547 1.415 . S
C547 H517 0.950 . S
C547 C542 1.363 . S
C547 C546 1.415 . S
H548 C545 0.999 . S
H549 C530 0.913 . S
H550 C568 0.951 . S
H551 C570 0.951 . S
H552 C572 0.950 . S
H553 C573 0.950 . S
H554 C575 0.950 . S
H555 C578 0.950 . S
H556 C579 0.950 . S
H557 C581 0.950 . S
H558 C582 0.950 . S
H559 C583 0.951 . S
H560 C585 0.951 . S
H561 C587 0.950 . S
H562 C588 0.950 . S
H563 C590 0.950 . S
H564 C593 0.950 . S
H565 C594 0.950 . S
H566 C596 0.950 . S
H567 C597 0.950 . S
C568 H550 0.951 . S
C568 C569 1.366 . S
C568 C570 1.388 . S
C569 C568 1.366 . S
C569 C573 1.385 . S
C570 H551 0.951 . S
C570 C568 1.388 . S
C570 C571 1.366 . S
C571 C570 1.366 . S
C571 C572 1.414 . S
C571 C574 1.499 . S
C572 H552 0.950 . S
C572 C571 1.414 . S
C572 C573 1.374 . S
C573 H553 0.950 . S
C573 C569 1.385 . S
C573 C572 1.374 . S
C574 C571 1.499 . S
C574 C575 1.373 . S
C574 C576 1.389 . S
C575 H554 0.950 . S
C575 C574 1.373 . S
C575 C591 1.377 . S
C576 C574 1.389 . S
C576 C577 1.524 . S
C576 C590 1.377 . S
C577 C576 1.524 . S
C577 C578 1.397 . S
C577 C582 1.363 . S
C578 H555 0.950 . S
C578 C577 1.397 . S
C578 C579 1.334 . S
C579 H556 0.950 . S
C579 C578 1.334 . S
C579 C580 1.287 . S
C580 C579 1.287 . S
C580 C581 1.524 . S
C580 H599 0.913 . S
C581 H557 0.950 . S
C581 C580 1.524 . S
C581 C582 1.415 . S
C582 H558 0.950 . S
C582 C577 1.363 . S
C582 C581 1.415 . S
C583 H559 0.951 . S
C583 C584 1.366 . S
C583 C585 1.388 . S
C584 C583 1.366 . S
C584 C588 1.385 . S
C585 H560 0.951 . S
C585 C583 1.388 . S
C585 C586 1.366 . S
C586 C585 1.366 . S
C586 C587 1.414 . S
C586 C589 1.499 . S
C587 H561 0.950 . S
C587 C586 1.414 . S
C587 C588 1.374 . S
C588 H562 0.950 . S
C588 C584 1.385 . S
C588 C587 1.374 . S
C589 C586 1.499 . S
C589 C590 1.373 . S
C589 C591 1.389 . S
C590 H563 0.950 . S
C590 C576 1.377 . S
C590 C589 1.373 . S
C591 C575 1.377 . S
C591 C589 1.389 . S
C591 C592 1.524 . S
C592 C591 1.524 . S
C592 C593 1.397 . S
C592 C597 1.363 . S
C593 H564 0.950 . S
C593 C592 1.397 . S
C593 C594 1.334 . S
C594 H565 0.950 . S
C594 C593 1.334 . S
C594 C595 1.287 . S
C595 C594 1.287 . S
C595 C596 1.524 . S
C595 H598 0.999 . S
C596 H566 0.950 . S
C596 C595 1.524 . S
C596 C597 1.415 . S
C597 H567 0.950 . S
C597 C592 1.363 . S
C597 C596 1.415 . S
H598 C595 0.999 . S
H599 C580 0.913 . S
H600 C618 0.951 . S
H601 C620 0.951 . S
H602 C622 0.950 . S
H603 C623 0.950 . S
H604 C625 0.950 . S
H605 C628 0.950 . S
H606 C629 0.950 . S
H607 C631 0.950 . S
H608 C632 0.950 . S
H609 C633 0.951 . S
H610 C635 0.951 . S
H611 C637 0.950 . S
H612 C638 0.950 . S
H613 C640 0.950 . S
H614 C643 0.950 . S
H615 C644 0.950 . S
H616 C646 0.950 . S
H617 C647 0.950 . S
C618 H600 0.951 . S
C618 C619 1.366 . S
C618 C620 1.388 . S
C619 C618 1.366 . S
C619 C623 1.385 . S
C620 H601 0.951 . S
C620 C618 1.388 . S
C620 C621 1.366 . S
C621 C620 1.366 . S
C621 C622 1.414 . S
C621 C624 1.499 . S
C622 H602 0.950 . S
C622 C621 1.414 . S
C622 C623 1.374 . S
C623 H603 0.950 . S
C623 C619 1.385 . S
C623 C622 1.374 . S
C624 C621 1.499 . S
C624 C625 1.373 . S
C624 C626 1.389 . S
C625 H604 0.950 . S
C625 C624 1.373 . S
C625 C641 1.377 . S
C626 C624 1.389 . S
C626 C627 1.524 . S
C626 C640 1.377 . S
C627 C626 1.524 . S
C627 C628 1.397 . S
C627 C632 1.363 . S
C628 H605 0.950 . S
C628 C627 1.397 . S
C628 C629 1.334 . S
C629 H606 0.950 . S
C629 C628 1.334 . S
C629 C630 1.287 . S
C630 C629 1.287 . S
C630 C631 1.524 . S
C630 H649 0.913 . S
C631 H607 0.950 . S
C631 C630 1.524 . S
C631 C632 1.415 . S
C632 H608 0.950 . S
C632 C627 1.363 . S
C632 C631 1.415 . S
C633 H609 0.951 . S
C633 C634 1.366 . S
C633 C635 1.388 . S
C634 C633 1.366 . S
C634 C638 1.385 . S
C635 H610 0.951 . S
C635 C633 1.388 . S
C635 C636 1.366 . S
C636 C635 1.366 . S
C636 C637 1.414 . S
C636 C639 1.499 . S
C637 H611 0.950 . S
C637 C636 1.414 . S
C637 C638 1.374 . S
C638 H612 0.950 . S
C638 C634 1.385 . S
C638 C637 1.374 . S
C639 C636 1.499 . S
C639 C640 1.373 . S
C639 C641 1.389 . S
C640 H613 0.950 . S
C640 C626 1.377 . S
C640 C639 1.373 . S
C641 C625 1.377 . S
C641 C639 1.389 . S
C641 C642 1.524 . S
C642 C641 1.524 . S
C642 C643 1.397 . S
C642 C647 1.363 . S
C643 H614 0.950 . S
C643 C642 1.397 . S
C643 C644 1.334 . S
C644 H615 0.950 . S
C644 C643 1.334 . S
C644 C645 1.287 . S
C645 C644 1.287 . S
C645 C646 1.524 . S
C645 H648 0.999 . S
C646 H616 0.950 . S
C646 C645 1.524 . S
C646 C647 1.415 . S
C647 H617 0.950 . S
C647 C642 1.363 . S
C647 C646 1.415 . S
H648 C645 0.999 . S
H649 C630 0.913 . S
H650 C668 0.951 . S
H651 C670 0.951 . S
H652 C672 0.950 . S
H653 C673 0.950 . S
H654 C675 0.950 1_655 S
H655 C678 0.950 1_554 S
H656 C679 0.950 1_554 S
H657 C681 0.950 1_455 S
H658 C682 0.950 . S
H659 C683 0.951 . S
H660 C685 0.914 1_554 S
H661 C687 0.950 . S
H662 C688 0.950 . S
H663 C690 0.950 . S
H664 C693 0.950 . S
H665 C694 0.950 . S
H666 C696 0.950 . S
H667 C697 0.950 . S
C668 H650 0.951 . S
C668 C669 1.366 . S
C668 C670 1.388 . S
C669 C668 1.366 . S
C669 C673 1.385 1_556 S
C670 H651 0.951 . S
C670 C668 1.388 . S
C670 C671 1.366 . S
C671 C670 1.366 . S
C671 C672 1.414 1_556 S
C671 C674 1.499 . S
C672 H652 0.950 . S
C672 C671 1.414 1_554 S
C672 C673 1.374 . S
C673 H653 0.950 . S
C673 C669 1.385 1_554 S
C673 C672 1.374 . S
C674 C671 1.499 . S
C674 C675 1.373 1_655 S
C674 C676 1.389 1_655 S
C675 H654 0.950 1_455 S
C675 C674 1.373 1_455 S
C675 C691 1.377 . S
C676 C674 1.389 1_455 S
C676 C677 1.524 . S
C676 C690 1.377 . S
C677 C676 1.524 . S
C677 C678 1.397 1_455 S
C677 C682 1.363 . S
C678 H655 0.950 1_556 S
C678 C677 1.397 1_655 S
C678 C679 1.334 . S
C679 H656 0.950 1_556 S
C679 C678 1.334 . S
C679 C680 1.287 . S
C680 C679 1.287 . S
C680 C681 1.524 . S
C680 H699 0.913 . S
C681 H657 0.950 1_655 S
C681 C680 1.524 . S
C681 C682 1.415 1_655 S
C682 H658 0.950 . S
C682 C677 1.363 . S
C682 C681 1.415 1_455 S
C683 H659 0.951 . S
C683 C684 1.366 . S
C683 C685 1.388 . S
C684 C683 1.366 . S
C684 C688 1.385 . S
C685 H660 0.914 1_556 S
C685 C683 1.388 . S
C685 C686 1.366 . S
C686 C685 1.366 . S
C686 C687 1.414 . S
C686 C689 1.499 . S
C687 H661 0.950 . S
C687 C686 1.414 . S
C687 C688 1.374 . S
C688 H662 0.950 . S
C688 C684 1.385 . S
C688 C687 1.374 . S
C689 C686 1.499 . S
C689 C690 1.373 . S
C689 C691 1.389 . S
C690 H663 0.950 . S
C690 C676 1.377 . S
C690 C689 1.373 . S
C691 C675 1.377 . S
C691 C689 1.389 . S
C691 C692 1.524 . S
C692 C691 1.524 . S
C692 C693 1.397 . S
C692 C697 1.363 1_556 S
C693 H664 0.950 . S
C693 C692 1.397 . S
C693 C694 1.334 . S
C694 H665 0.950 . S
C694 C693 1.334 . S
C694 C695 1.287 . S
C695 C694 1.287 . S
C695 C696 1.524 1_556 S
C695 H698 0.999 . S
C696 H666 0.950 . S
C696 C695 1.524 1_554 S
C696 C697 1.415 . S
C697 H667 0.950 . S
C697 C692 1.363 1_554 S
C697 C696 1.415 . S
H698 C695 0.999 . S
H699 C680 0.913 . S
H700 C718 0.951 . S
H701 C720 0.951 . S
H702 C722 0.950 . S
H703 C723 0.950 . S
H704 C725 0.950 . S
H705 C728 0.950 . S
H706 C729 0.950 . S
H707 C731 0.950 . S
H708 C732 0.950 . S
H709 C733 0.951 . S
H710 C735 0.951 . S
H711 C737 0.950 . S
H712 C738 0.950 . S
H713 C740 0.950 . S
H714 C743 0.950 . S
H715 C744 0.950 . S
H716 C746 0.950 . S
H717 C747 0.950 . S
C718 H700 0.951 . S
C718 C719 1.366 . S
C718 C720 1.388 . S
C719 C718 1.366 . S
C719 C723 1.385 . S
C720 H701 0.951 . S
C720 C718 1.388 . S
C720 C721 1.366 . S
C721 C720 1.366 . S
C721 C722 1.414 . S
C721 C724 1.499 . S
C722 H702 0.950 . S
C722 C721 1.414 . S
C722 C723 1.374 . S
C723 H703 0.950 . S
C723 C719 1.385 . S
C723 C722 1.374 . S
C724 C721 1.499 . S
C724 C725 1.373 . S
C724 C726 1.389 . S
C725 H704 0.950 . S
C725 C724 1.373 . S
C725 C741 1.377 . S
C726 C724 1.389 . S
C726 C727 1.524 . S
C726 C740 1.377 . S
C727 C726 1.524 . S
C727 C728 1.397 . S
C727 C732 1.363 . S
C728 H705 0.950 . S
C728 C727 1.397 . S
C728 C729 1.334 . S
C729 H706 0.950 . S
C729 C728 1.334 . S
C729 C730 1.287 . S
C730 C729 1.287 . S
C730 C731 1.524 . S
C730 H749 0.913 . S
C731 H707 0.950 . S
C731 C730 1.524 . S
C731 C732 1.415 . S
C732 H708 0.950 . S
C732 C727 1.363 . S
C732 C731 1.415 . S
C733 H709 0.951 . S
C733 C734 1.366 . S
C733 C735 1.388 . S
C734 C733 1.366 . S
C734 C738 1.385 . S
C735 H710 0.951 . S
C735 C733 1.388 . S
C735 C736 1.366 . S
C736 C735 1.366 . S
C736 C737 1.414 . S
C736 C739 1.499 . S
C737 H711 0.950 . S
C737 C736 1.414 . S
C737 C738 1.374 . S
C738 H712 0.950 . S
C738 C734 1.385 . S
C738 C737 1.374 . S
C739 C736 1.499 . S
C739 C740 1.373 . S
C739 C741 1.389 . S
C740 H713 0.950 . S
C740 C726 1.377 . S
C740 C739 1.373 . S
C741 C725 1.377 . S
C741 C739 1.389 . S
C741 C742 1.524 . S
C742 C741 1.524 . S
C742 C743 1.397 . S
C742 C747 1.363 . S
C743 H714 0.950 . S
C743 C742 1.397 . S
C743 C744 1.334 . S
C744 H715 0.950 . S
C744 C743 1.334 . S
C744 C745 1.287 . S
C745 C744 1.287 . S
C745 C746 1.524 . S
C745 H748 0.999 . S
C746 H716 0.950 . S
C746 C745 1.524 . S
C746 C747 1.415 . S
C747 H717 0.950 . S
C747 C742 1.363 . S
C747 C746 1.415 . S
H748 C745 0.999 . S
H749 C730 0.913 . S
H750 C768 0.951 . S
H751 C770 0.951 . S
H752 C772 0.950 . S
H753 C773 0.950 . S
H754 C775 0.950 . S
H755 C778 0.950 . S
H756 C779 0.950 . S
H757 C781 0.938 1_655 S
H758 C782 0.950 . S
H759 C783 0.951 . S
H760 C785 0.951 . S
H761 C787 0.950 . S
H762 C788 0.950 . S
H763 C790 0.950 . S
H764 C793 0.950 . S
H765 C794 0.950 . S
H766 C796 0.950 . S
H767 C797 0.950 . S
C768 H750 0.951 . S
C768 C769 1.366 . S
C768 C770 1.388 . S
C769 C768 1.366 . S
C769 C773 1.385 . S
C770 H751 0.951 . S
C770 C768 1.388 . S
C770 C771 1.366 . S
C771 C770 1.366 . S
C771 C772 1.414 . S
C771 C774 1.499 . S
C772 H752 0.950 . S
C772 C771 1.414 . S
C772 C773 1.374 . S
C773 H753 0.950 . S
C773 C769 1.385 . S
C773 C772 1.374 . S
C774 C771 1.499 . S
C774 C775 1.373 . S
C774 C776 1.389 . S
C775 H754 0.950 . S
C775 C774 1.373 . S
C775 C791 1.377 . S
C776 C774 1.389 . S
C776 C777 1.524 . S
C776 C790 1.377 . S
C777 C776 1.524 . S
C777 C778 1.397 . S
C777 C782 1.363 . S
C778 H755 0.950 . S
C778 C777 1.397 . S
C778 C779 1.334 . S
C779 H756 0.950 . S
C779 C778 1.334 . S
C779 C780 1.287 . S
C780 C779 1.287 . S
C780 C781 1.524 . S
C780 H799 0.913 . S
C781 H757 0.938 1_455 S
C781 C780 1.524 . S
C781 C782 1.415 . S
C782 H758 0.950 . S
C782 C777 1.363 . S
C782 C781 1.415 . S
C783 H759 0.951 . S
C783 C784 1.366 . S
C783 C785 1.388 . S
C784 C783 1.366 . S
C784 C788 1.385 . S
C785 H760 0.951 . S
C785 C783 1.388 . S
C785 C786 1.366 . S
C786 C785 1.366 . S
C786 C787 1.414 . S
C786 C789 1.499 . S
C787 H761 0.950 . S
C787 C786 1.414 . S
C787 C788 1.374 . S
C788 H762 0.950 . S
C788 C784 1.385 . S
C788 C787 1.374 . S
C789 C786 1.499 . S
C789 C790 1.373 . S
C789 C791 1.389 . S
C790 H763 0.950 . S
C790 C776 1.377 . S
C790 C789 1.373 . S
C791 C775 1.377 . S
C791 C789 1.389 . S
C791 C792 1.524 . S
C792 C791 1.524 . S
C792 C793 1.397 . S
C792 C797 1.363 . S
C793 H764 0.950 . S
C793 C792 1.397 . S
C793 C794 1.334 . S
C794 H765 0.950 . S
C794 C793 1.334 . S
C794 C795 1.287 . S
C795 C794 1.287 . S
C795 C796 1.524 . S
C795 H798 0.999 . S
C796 H766 0.950 . S
C796 C795 1.524 . S
C796 C797 1.415 . S
C797 H767 0.950 . S
C797 C792 1.363 . S
C797 C796 1.415 . S
H798 C795 0.999 . S
H799 C780 0.913 . S
H800 C818 0.951 . S
H801 C820 0.951 . S
H802 C822 0.950 . S
H803 C823 0.950 . S
H804 C825 0.950 . S
H805 C828 0.950 . S
H806 C829 0.950 . S
H807 C831 0.950 . S
H808 C832 0.950 . S
H809 C833 0.951 . S
H810 C835 0.951 . S
H811 C837 0.950 . S
H812 C838 0.950 . S
H813 C840 0.950 . S
H814 C843 0.950 1_545 S
H815 C844 0.950 . S
H816 C846 0.950 . S
H817 C847 0.950 . S
C818 H800 0.951 . S
C818 C819 1.366 . S
C818 C820 1.388 . S
C819 C818 1.366 . S
C819 C823 1.385 . S
C820 H801 0.951 . S
C820 C818 1.388 . S
C820 C821 1.366 . S
C821 C820 1.366 . S
C821 C822 1.414 . S
C821 C824 1.499 . S
C822 H802 0.950 . S
C822 C821 1.414 . S
C822 C823 1.374 . S
C823 H803 0.950 . S
C823 C819 1.385 . S
C823 C822 1.374 . S
C824 C821 1.499 . S
C824 C825 1.373 . S
C824 C826 1.389 . S
C825 H804 0.950 . S
C825 C824 1.373 . S
C825 C841 1.377 . S
C826 C824 1.389 . S
C826 C827 1.524 . S
C826 C840 1.377 . S
C827 C826 1.524 . S
C827 C828 1.397 . S
C827 C832 1.363 . S
C828 H805 0.950 . S
C828 C827 1.397 . S
C828 C829 1.334 . S
C829 H806 0.950 . S
C829 C828 1.334 . S
C829 C830 1.287 . S
C830 C829 1.287 . S
C830 C831 1.524 . S
C830 H849 0.913 . S
C831 H807 0.950 . S
C831 C830 1.524 . S
C831 C832 1.415 . S
C832 H808 0.950 . S
C832 C827 1.363 . S
C832 C831 1.415 . S
C833 H809 0.951 . S
C833 C834 1.366 . S
C833 C835 1.388 . S
C834 C833 1.366 . S
C834 C838 1.385 . S
C835 H810 0.951 . S
C835 C833 1.388 . S
C835 C836 1.366 1_565 S
C836 C835 1.366 1_545 S
C836 C837 1.414 . S
C836 C839 1.499 . S
C837 H811 0.950 . S
C837 C836 1.414 . S
C837 C838 1.374 1_545 S
C838 H812 0.950 . S
C838 C834 1.385 . S
C838 C837 1.374 1_565 S
C839 C836 1.499 . S
C839 C840 1.373 . S
C839 C841 1.389 . S
C840 H813 0.950 . S
C840 C826 1.377 . S
C840 C839 1.373 . S
C841 C825 1.377 . S
C841 C839 1.389 . S
C841 C842 1.524 1_545 S
C842 C841 1.524 1_565 S
C842 C843 1.397 . S
C842 C847 1.363 . S
C843 H814 0.950 1_565 S
C843 C842 1.397 . S
C843 C844 1.334 . S
C844 H815 0.950 . S
C844 C843 1.334 . S
C844 C845 1.287 . S
C845 C844 1.287 . S
C845 C846 1.524 . S
C845 H848 0.999 . S
C846 H816 0.950 . S
C846 C845 1.524 . S
C846 C847 1.415 . S
C847 H817 0.950 . S
C847 C842 1.363 . S
C847 C846 1.415 . S
H848 C845 0.999 . S
H849 C830 0.913 . S
H850 C868 0.951 . S
H851 C870 0.951 . S
H852 C872 0.950 . S
H853 C873 0.950 . S
H854 C875 0.950 . S
H855 C878 0.950 . S
H856 C879 0.950 . S
H857 C881 0.950 . S
H858 C882 0.950 . S
H859 C883 0.951 . S
H860 C885 0.951 . S
H861 C887 0.950 . S
H862 C888 0.950 . S
H863 C890 0.950 . S
H864 C893 0.950 . S
H865 C894 0.950 . S
H866 C896 0.950 . S
H867 C897 0.950 . S
C868 H850 0.951 . S
C868 C869 1.366 . S
C868 C870 1.388 . S
C869 C868 1.366 . S
C869 C873 1.385 . S
C870 H851 0.951 . S
C870 C868 1.388 . S
C870 C871 1.366 . S
C871 C870 1.366 . S
C871 C872 1.414 . S
C871 C874 1.499 . S
C872 H852 0.950 . S
C872 C871 1.414 . S
C872 C873 1.374 . S
C873 H853 0.950 . S
C873 C869 1.385 . S
C873 C872 1.374 . S
C874 C871 1.499 . S
C874 C875 1.373 . S
C874 C876 1.389 . S
C875 H854 0.950 . S
C875 C874 1.373 . S
C875 C891 1.377 . S
C876 C874 1.389 . S
C876 C877 1.524 . S
C876 C890 1.377 . S
C877 C876 1.524 . S
C877 C878 1.397 . S
C877 C882 1.363 . S
C878 H855 0.950 . S
C878 C877 1.397 . S
C878 C879 1.334 . S
C879 H856 0.950 . S
C879 C878 1.334 . S
C879 C880 1.287 . S
C880 C879 1.287 . S
C880 C881 1.524 . S
C880 H899 0.913 . S
C881 H857 0.950 . S
C881 C880 1.524 . S
C881 C882 1.415 . S
C882 H858 0.950 . S
C882 C877 1.363 . S
C882 C881 1.415 . S
C883 H859 0.951 . S
C883 C884 1.366 . S
C883 C885 1.388 . S
C884 C883 1.366 . S
C884 C888 1.385 . S
C885 H860 0.951 . S
C885 C883 1.388 . S
C885 C886 1.366 . S
C886 C885 1.366 . S
C886 C887 1.414 . S
C886 C889 1.499 . S
C887 H861 0.950 . S
C887 C886 1.414 . S
C887 C888 1.374 . S
C888 H862 0.950 . S
C888 C884 1.385 . S
C888 C887 1.374 . S
C889 C886 1.499 . S
C889 C890 1.373 . S
C889 C891 1.389 . S
C890 H863 0.950 . S
C890 C876 1.377 . S
C890 C889 1.373 . S
C891 C875 1.377 . S
C891 C889 1.389 . S
C891 C892 1.524 . S
C892 C891 1.524 . S
C892 C893 1.397 . S
C892 C897 1.363 . S
C893 H864 0.950 . S
C893 C892 1.397 . S
C893 C894 1.334 . S
C894 H865 0.950 . S
C894 C893 1.334 . S
C894 C895 1.287 . S
C895 C894 1.287 . S
C895 C896 1.524 . S
C895 H898 0.999 . S
C896 H866 0.950 . S
C896 C895 1.524 . S
C896 C897 1.415 . S
C897 H867 0.950 . S
C897 C892 1.363 . S
C897 C896 1.415 . S
H898 C895 0.999 . S
H899 C880 0.913 . S
H900 C918 0.951 . S
H901 C920 0.943 1_556 S
H902 C922 0.950 . S
H903 C923 0.950 . S
H904 C925 0.950 . S
H905 C928 0.950 . S
H906 C929 0.950 . S
H907 C931 0.950 . S
H908 C932 0.950 . S
H909 C933 0.951 . S
H910 C935 0.951 1_554 S
H911 C937 0.950 . S
H912 C938 0.950 . S
H913 C940 0.950 . S
H914 C943 0.950 . S
H915 C944 0.950 . S
H916 C946 0.950 . S
H917 C947 0.950 1_565 S
C918 H900 0.951 . S
C918 C919 1.366 . S
C918 C920 1.388 . S
C919 C918 1.366 . S
C919 C923 1.385 . S
C920 H901 0.943 1_554 S
C920 C918 1.388 . S
C920 C921 1.366 . S
C921 C920 1.366 . S
C921 C922 1.414 . S
C921 C924 1.499 . S
C922 H902 0.950 . S
C922 C921 1.414 . S
C922 C923 1.374 . S
C923 H903 0.950 . S
C923 C919 1.385 . S
C923 C922 1.374 . S
C924 C921 1.499 . S
C924 C925 1.373 . S
C924 C926 1.389 1_554 S
C925 H904 0.950 . S
C925 C924 1.373 . S
C925 C941 1.420 . S
C926 C924 1.389 1_556 S
C926 C927 1.524 . S
C926 C940 1.377 . S
C927 C926 1.524 . S
C927 C928 1.397 . S
C927 C932 1.363 . S
C928 H905 0.950 . S
C928 C927 1.397 . S
C928 C929 1.334 . S
C929 H906 0.950 . S
C929 C928 1.334 . S
C929 C930 1.287 . S
C930 C929 1.287 . S
C930 C931 1.524 . S
C930 H949 0.913 . S
C931 H907 0.950 . S
C931 C930 1.524 . S
C931 C932 1.415 . S
C932 H908 0.950 . S
C932 C927 1.363 . S
C932 C931 1.415 . S
C933 H909 0.951 . S
C933 C934 1.366 . S
C933 C935 1.388 . S
C934 C933 1.366 . S
C934 C938 1.385 . S
C935 H910 0.951 1_556 S
C935 C933 1.388 . S
C935 C936 1.366 . S
C936 C935 1.366 . S
C936 C937 1.414 . S
C936 C939 1.499 . S
C937 H911 0.950 . S
C937 C936 1.414 . S
C937 C938 1.374 . S
C938 H912 0.950 . S
C938 C934 1.385 . S
C938 C937 1.374 . S
C939 C936 1.499 . S
C939 C940 1.373 1_545 S
C939 C941 1.373 1_546 S
C940 H913 0.950 . S
C940 C926 1.377 . S
C940 C939 1.373 1_565 S
C941 C925 1.420 . S
C941 C939 1.373 1_564 S
C941 C942 1.499 1_565 S
C942 C941 1.499 1_545 S
C942 C943 1.397 . S
C942 C947 1.363 . S
C943 H914 0.950 . S
C943 C942 1.397 . S
C943 C944 1.334 . S
C944 H915 0.950 . S
C944 C943 1.334 . S
C944 C945 1.287 . S
C945 C944 1.287 . S
C945 C946 1.524 . S
C945 H948 0.999 . S
C946 H916 0.950 . S
C946 C945 1.524 . S
C946 C947 1.415 . S
C947 H917 0.950 1_545 S
C947 C942 1.363 . S
C947 C946 1.415 . S
H948 C945 0.999 . S
H949 C930 0.913 . S
H950 C968 0.951 . S
H951 C970 0.951 . S
H952 C972 0.950 . S
H953 C973 0.950 . S
H954 C975 0.950 . S
H955 C978 0.950 . S
H956 C979 0.950 . S
H957 C981 0.950 . S
H958 C982 0.950 . S
H959 C983 0.951 . S
H960 C985 0.951 . S
H961 C987 0.950 . S
H962 C988 0.950 . S
H963 C990 0.950 . S
H964 C993 0.950 . S
H965 C994 0.950 . S
H966 C996 0.950 . S
H967 C997 0.950 . S
C968 H950 0.951 . S
C968 C969 1.366 . S
C968 C970 1.388 . S
C969 C968 1.366 . S
C969 C973 1.385 . S
C970 H951 0.951 . S
C970 C968 1.388 . S
C970 C971 1.366 . S
C971 C970 1.366 . S
C971 C972 1.414 . S
C971 C974 1.499 . S
C972 H952 0.950 . S
C972 C971 1.414 . S
C972 C973 1.374 . S
C973 H953 0.950 . S
C973 C969 1.385 . S
C973 C972 1.374 . S
C974 C971 1.499 . S
C974 C975 1.373 . S
C974 C976 1.389 . S
C975 H954 0.950 . S
C975 C974 1.373 . S
C975 C991 1.377 . S
C976 C974 1.389 . S
C976 C977 1.524 . S
C976 C990 1.377 . S
C977 C976 1.524 . S
C977 C978 1.397 . S
C977 C982 1.363 . S
C978 H955 0.950 . S
C978 C977 1.397 . S
C978 C979 1.334 . S
C979 H956 0.950 . S
C979 C978 1.334 . S
C979 C980 1.287 . S
C980 C979 1.287 . S
C980 C981 1.524 . S
C980 H999 0.913 . S
C981 H957 0.950 . S
C981 C980 1.524 . S
C981 C982 1.415 . S
C982 H958 0.950 . S
C982 C977 1.363 . S
C982 C981 1.415 . S
C983 H959 0.951 . S
C983 C984 1.366 . S
C983 C985 1.388 . S
C984 C983 1.366 . S
C984 C988 1.385 . S
C985 H960 0.951 . S
C985 C983 1.388 . S
C985 C986 1.366 . S
C986 C985 1.366 . S
C986 C987 1.414 . S
C986 C989 1.499 . S
C987 H961 0.950 . S
C987 C986 1.414 . S
C987 C988 1.374 . S
C988 H962 0.950 . S
C988 C984 1.385 . S
C988 C987 1.374 . S
C989 C986 1.499 . S
C989 C990 1.373 . S
C989 C991 1.389 . S
C990 H963 0.950 . S
C990 C976 1.377 . S
C990 C989 1.373 . S
C991 C975 1.377 . S
C991 C989 1.389 . S
C991 C992 1.524 . S
C992 C991 1.524 . S
C992 C993 1.397 . S
C992 C997 1.363 . S
C993 H964 0.950 . S
C993 C992 1.397 . S
C993 C994 1.334 . S
C994 H965 0.950 . S
C994 C993 1.334 . S
C994 C995 1.287 . S
C995 C994 1.287 . S
C995 C996 1.524 . S
C995 H998 0.999 . S
C996 H966 0.950 . S
C996 C995 1.524 . S
C996 C997 1.415 . S
C997 H967 0.950 . S
C997 C992 1.363 . S
C997 C996 1.415 . S
H998 C995 0.999 . S
H999 C980 0.913 . S
H1000 C1018 0.951 . S
H1001 C1020 0.951 . S
H1002 C1022 0.950 . S
H1003 C1023 0.950 . S
H1004 C1025 0.950 . S
H1005 C1028 0.950 . S
H1006 C1029 0.950 . S
H1007 C1031 0.950 . S
H1008 C1032 0.950 . S
H1009 C1033 0.951 . S
H1010 C1035 0.951 . S
H1011 C1037 0.950 . S
H1012 C1038 0.950 . S
H1013 C1040 0.950 . S
H1014 C1043 0.950 . S
H1015 C1044 0.950 . S
H1016 C1046 0.950 . S
H1017 C1047 0.950 . S
C1018 H1000 0.951 . S
C1018 C1019 1.366 . S
C1018 C1020 1.388 . S
C1019 C1018 1.366 . S
C1019 C1023 1.385 . S
C1020 H1001 0.951 . S
C1020 C1018 1.388 . S
C1020 C1021 1.366 . S
C1021 C1020 1.366 . S
C1021 C1022 1.414 . S
C1021 C1024 1.499 . S
C1022 H1002 0.950 . S
C1022 C1021 1.414 . S
C1022 C1023 1.374 . S
C1023 H1003 0.950 . S
C1023 C1019 1.385 . S
C1023 C1022 1.374 . S
C1024 C1021 1.499 . S
C1024 C1025 1.373 . S
C1024 C1026 1.389 . S
C1025 H1004 0.950 . S
C1025 C1024 1.373 . S
C1025 C1041 1.377 . S
C1026 C1024 1.389 . S
C1026 C1027 1.524 . S
C1026 C1040 1.377 . S
C1027 C1026 1.524 . S
C1027 C1028 1.397 . S
C1027 C1032 1.363 . S
C1028 H1005 0.950 . S
C1028 C1027 1.397 . S
C1028 C1029 1.334 . S
C1029 H1006 0.950 . S
C1029 C1028 1.334 . S
C1029 C1030 1.287 . S
C1030 C1029 1.287 . S
C1030 C1031 1.524 . S
C1030 H1049 0.913 . S
C1031 H1007 0.950 . S
C1031 C1030 1.524 . S
C1031 C1032 1.415 . S
C1032 H1008 0.950 . S
C1032 C1027 1.363 . S
C1032 C1031 1.415 . S
C1033 H1009 0.951 . S
C1033 C1034 1.366 . S
C1033 C1035 1.388 . S
C1034 C1033 1.366 . S
C1034 C1038 1.385 . S
C1035 H1010 0.951 . S
C1035 C1033 1.388 . S
C1035 C1036 1.366 . S
C1036 C1035 1.366 . S
C1036 C1037 1.414 . S
C1036 C1039 1.499 . S
C1037 H1011 0.950 . S
C1037 C1036 1.414 . S
C1037 C1038 1.374 . S
C1038 H1012 0.950 . S
C1038 C1034 1.385 . S
C1038 C1037 1.374 . S
C1039 C1036 1.499 . S
C1039 C1040 1.373 . S
C1039 C1041 1.389 . S
C1040 H1013 0.950 . S
C1040 C1026 1.377 . S
C1040 C1039 1.373 . S
C1041 C1025 1.377 . S
C1041 C1039 1.389 . S
C1041 C1042 1.524 . S
C1042 C1041 1.524 . S
C1042 C1043 1.397 . S
C1042 C1047 1.363 . S
C1043 H1014 0.950 . S
C1043 C1042 1.397 . S
C1043 C1044 1.334 . S
C1044 H1015 0.950 . S
C1044 C1043 1.334 . S
C1044 C1045 1.287 . S
C1045 C1044 1.287 . S
C1045 C1046 1.524 . S
C1045 H1048 0.999 . S
C1046 H1016 0.950 . S
C1046 C1045 1.524 . S
C1046 C1047 1.415 . S
C1047 H1017 0.950 . S
C1047 C1042 1.363 . S
C1047 C1046 1.415 . S
H1048 C1045 0.999 . S
H1049 C1030 0.913 . S
H1050 C1068 0.951 . S
H1051 C1070 0.951 . S
H1052 C1072 0.950 . S
H1053 C1073 0.950 . S
H1054 C1075 0.950 1_455 S
H1055 C1078 0.950 . S
H1056 C1079 0.950 . S
H1057 C1081 0.950 . S
H1058 C1082 0.950 . S
H1059 C1083 0.951 . S
H1060 C1085 0.951 . S
H1061 C1087 0.950 . S
H1062 C1088 0.950 . S
H1063 C1090 0.950 . S
H1064 C1093 0.950 . S
H1065 C1094 0.950 . S
H1066 C1096 0.950 . S
H1067 C1097 0.950 . S
C1068 H1050 0.951 . S
C1068 C1069 1.366 . S
C1068 C1070 1.388 . S
C1069 C1068 1.366 . S
C1069 C1073 1.385 . S
C1070 H1051 0.951 . S
C1070 C1068 1.388 . S
C1070 C1071 1.366 . S
C1071 C1070 1.366 . S
C1071 C1072 1.414 . S
C1071 C1074 1.499 . S
C1072 H1052 0.950 . S
C1072 C1071 1.414 . S
C1072 C1073 1.374 . S
C1073 H1053 0.950 . S
C1073 C1069 1.385 . S
C1073 C1072 1.374 . S
C1074 C1071 1.499 . S
C1074 C1075 1.373 1_455 S
C1074 C1076 1.389 1_455 S
C1075 H1054 0.950 1_655 S
C1075 C1074 1.373 1_655 S
C1075 C1091 1.377 . S
C1076 C1074 1.389 1_655 S
C1076 C1077 1.524 . S
C1076 C1090 1.377 . S
C1077 C1076 1.524 . S
C1077 C1078 1.397 1_655 S
C1077 C1082 1.363 . S
C1078 H1055 0.950 . S
C1078 C1077 1.397 1_455 S
C1078 C1079 1.334 . S
C1079 H1056 0.950 . S
C1079 C1078 1.334 . S
C1079 C1080 1.287 . S
C1080 C1079 1.287 . S
C1080 C1081 1.524 1_455 S
C1080 H1099 0.913 . S
C1081 H1057 0.950 . S
C1081 C1080 1.524 1_655 S
C1081 C1082 1.415 . S
C1082 H1058 0.950 . S
C1082 C1077 1.363 . S
C1082 C1081 1.415 . S
C1083 H1059 0.951 . S
C1083 C1084 1.366 . S
C1083 C1085 1.388 . S
C1084 C1083 1.366 . S
C1084 C1088 1.385 . S
C1085 H1060 0.951 . S
C1085 C1083 1.388 . S
C1085 C1086 1.366 . S
C1086 C1085 1.366 . S
C1086 C1087 1.414 . S
C1086 C1089 1.499 . S
C1087 H1061 0.950 . S
C1087 C1086 1.414 . S
C1087 C1088 1.374 . S
C1088 H1062 0.950 . S
C1088 C1084 1.385 . S
C1088 C1087 1.374 . S
C1089 C1086 1.499 . S
C1089 C1090 1.373 . S
C1089 C1091 1.389 . S
C1090 H1063 0.950 . S
C1090 C1076 1.377 . S
C1090 C1089 1.373 . S
C1091 C1075 1.377 . S
C1091 C1089 1.389 . S
C1091 C1092 1.524 . S
C1092 C1091 1.524 . S
C1092 C1093 1.397 . S
C1092 C1097 1.363 . S
C1093 H1064 0.950 . S
C1093 C1092 1.397 . S
C1093 C1094 1.334 . S
C1094 H1065 0.950 . S
C1094 C1093 1.334 . S
C1094 C1095 1.287 . S
C1095 C1094 1.287 . S
C1095 C1096 1.524 . S
C1095 H1098 0.999 . S
C1096 H1066 0.950 . S
C1096 C1095 1.524 . S
C1096 C1097 1.415 . S
C1097 H1067 0.950 . S
C1097 C1092 1.363 . S
C1097 C1096 1.415 . S
H1098 C1095 0.999 . S
H1099 C1080 0.913 . S
H1100 C1118 0.951 . S
H1101 C1120 0.951 . S
H1102 C1122 0.950 . S
H1103 C1123 0.950 . S
H1104 C1125 0.950 . S
H1105 C1128 0.950 . S
H1106 C1129 0.950 . S
H1107 C1131 0.950 . S
H1108 C1132 0.950 . S
H1109 C1133 0.951 . S
H1110 C1135 0.951 . S
H1111 C1137 0.950 . S
H1112 C1138 0.950 . S
H1113 C1140 0.950 . S
H1114 C1143 0.950 . S
H1115 C1144 0.950 . S
H1116 C1146 0.950 . S
H1117 C1147 0.950 . S
C1118 H1100 0.951 . S
C1118 C1119 1.366 . S
C1118 C1120 1.388 . S
C1119 C1118 1.366 . S
C1119 C1123 1.385 . S
C1120 H1101 0.951 . S
C1120 C1118 1.388 . S
C1120 C1121 1.366 . S
C1121 C1120 1.366 . S
C1121 C1122 1.414 . S
C1121 C1124 1.499 . S
C1122 H1102 0.950 . S
C1122 C1121 1.414 . S
C1122 C1123 1.374 . S
C1123 H1103 0.950 . S
C1123 C1119 1.385 . S
C1123 C1122 1.374 . S
C1124 C1121 1.499 . S
C1124 C1125 1.373 . S
C1124 C1126 1.389 . S
C1125 H1104 0.950 . S
C1125 C1124 1.373 . S
C1125 C1141 1.377 . S
C1126 C1124 1.389 . S
C1126 C1127 1.524 . S
C1126 C1140 1.377 . S
C1127 C1126 1.524 . S
C1127 C1128 1.397 . S
C1127 C1132 1.363 . S
C1128 H1105 0.950 . S
C1128 C1127 1.397 . S
C1128 C1129 1.334 . S
C1129 H1106 0.950 . S
C1129 C1128 1.334 . S
C1129 C1130 1.287 . S
C1130 C1129 1.287 . S
C1130 C1131 1.524 . S
C1130 H1149 0.913 . S
C1131 H1107 0.950 . S
C1131 C1130 1.524 . S
C1131 C1132 1.415 . S
C1132 H1108 0.950 . S
C1132 C1127 1.363 . S
C1132 C1131 1.415 . S
C1133 H1109 0.951 . S
C1133 C1134 1.366 . S
C1133 C1135 1.388 . S
C1134 C1133 1.366 . S
C1134 C1138 1.385 . S
C1135 H1110 0.951 . S
C1135 C1133 1.388 . S
C1135 C1136 1.366 . S
C1136 C1135 1.366 . S
C1136 C1137 1.414 . S
C1136 C1139 1.499 . S
C1137 H1111 0.950 . S
C1137 C1136 1.414 . S
C1137 C1138 1.374 . S
C1138 H1112 0.950 . S
C1138 C1134 1.385 . S
C1138 C1137 1.374 . S
C1139 C1136 1.499 . S
C1139 C1140 1.373 . S
C1139 C1141 1.389 . S
C1140 H1113 0.950 . S
C1140 C1126 1.377 . S
C1140 C1139 1.373 . S
C1141 C1125 1.377 . S
C1141 C1139 1.389 . S
C1141 C1142 1.524 . S
C1142 C1141 1.524 . S
C1142 C1143 1.397 . S
C1142 C1147 1.363 . S
C1143 H1114 0.950 . S
C1143 C1142 1.397 . S
C1143 C1144 1.334 . S
C1144 H1115 0.950 . S
C1144 C1143 1.334 . S
C1144 C1145 1.287 . S
C1145 C1144 1.287 . S
C1145 C1146 1.524 . S
C1145 H1148 0.999 . S
C1146 H1116 0.950 . S
C1146 C1145 1.524 . S
C1146 C1147 1.415 . S
C1147 H1117 0.950 . S
C1147 C1142 1.363 . S
C1147 C1146 1.415 . S
H1148 C1145 0.999 . S
H1149 C1130 0.913 . S
H1150 C1168 0.951 . S
H1151 C1170 0.951 . S
H1152 C1172 0.950 . S
H1153 C1173 0.950 . S
H1154 C1175 0.950 . S
H1155 C1178 0.950 . S
H1156 C1179 0.950 . S
H1157 C1181 0.950 . S
H1158 C1182 0.950 . S
H1159 C1183 0.951 . S
H1160 C1185 0.951 . S
H1161 C1187 0.950 . S
H1162 C1188 0.950 . S
H1163 C1190 0.950 . S
H1164 C1193 0.950 . S
H1165 C1194 0.950 1_455 S
H1166 C1196 0.950 . S
H1167 C1197 0.950 . S
C1168 H1150 0.951 . S
C1168 C1169 1.366 . S
C1168 C1170 1.388 . S
C1169 C1168 1.366 . S
C1169 C1173 1.385 . S
C1170 H1151 0.951 . S
C1170 C1168 1.388 . S
C1170 C1171 1.366 . S
C1171 C1170 1.366 . S
C1171 C1172 1.414 . S
C1171 C1174 1.499 . S
C1172 H1152 0.950 . S
C1172 C1171 1.414 . S
C1172 C1173 1.374 . S
C1173 H1153 0.950 . S
C1173 C1169 1.385 . S
C1173 C1172 1.374 . S
C1174 C1171 1.499 . S
C1174 C1175 1.373 . S
C1174 C1176 1.389 . S
C1175 H1154 0.950 . S
C1175 C1174 1.373 . S
C1175 C1191 1.377 . S
C1176 C1174 1.389 . S
C1176 C1177 1.524 . S
C1176 C1190 1.377 . S
C1177 C1176 1.524 . S
C1177 C1178 1.397 . S
C1177 C1182 1.363 . S
C1178 H1155 0.950 . S
C1178 C1177 1.397 . S
C1178 C1179 1.334 . S
C1179 H1156 0.950 . S
C1179 C1178 1.334 . S
C1179 C1180 1.287 . S
C1180 C1179 1.287 . S
C1180 C1181 1.524 . S
C1180 H1199 0.913 . S
C1181 H1157 0.950 . S
C1181 C1180 1.524 . S
C1181 C1182 1.415 . S
C1182 H1158 0.950 . S
C1182 C1177 1.363 . S
C1182 C1181 1.415 . S
C1183 H1159 0.951 . S
C1183 C1184 1.366 . S
C1183 C1185 1.388 . S
C1184 C1183 1.366 . S
C1184 C1188 1.385 . S
C1185 H1160 0.951 . S
C1185 C1183 1.388 . S
C1185 C1186 1.366 . S
C1186 C1185 1.366 . S
C1186 C1187 1.414 . S
C1186 C1189 1.499 . S
C1187 H1161 0.950 . S
C1187 C1186 1.414 . S
C1187 C1188 1.374 . S
C1188 H1162 0.950 . S
C1188 C1184 1.385 . S
C1188 C1187 1.374 . S
C1189 C1186 1.499 . S
C1189 C1190 1.373 . S
C1189 C1191 1.389 . S
C1190 H1163 0.950 . S
C1190 C1176 1.377 . S
C1190 C1189 1.373 . S
C1191 C1175 1.377 . S
C1191 C1189 1.389 . S
C1191 C1192 1.524 . S
C1192 C1191 1.524 . S
C1192 C1193 1.397 . S
C1192 C1197 1.363 . S
C1193 H1164 0.950 . S
C1193 C1192 1.397 . S
C1193 C1194 1.334 . S
C1194 H1165 0.950 1_655 S
C1194 C1193 1.334 . S
C1194 C1195 1.287 . S
C1195 C1194 1.287 . S
C1195 C1196 1.524 . S
C1195 H1198 0.999 . S
C1196 H1166 0.950 . S
C1196 C1195 1.524 . S
C1196 C1197 1.415 . S
C1197 H1167 0.950 . S
C1197 C1192 1.363 . S
C1197 C1196 1.415 . S
H1198 C1195 0.999 . S
H1199 C1180 0.913 . S
H1200 C1218 0.951 . S
H1201 C1220 0.951 . S
H1202 C1222 0.950 . S
H1203 C1223 0.950 . S
H1204 C1225 0.950 . S
H1205 C1228 0.950 . S
H1206 C1229 0.950 . S
H1207 C1231 0.950 . S
H1208 C1232 0.950 . S
H1209 C1233 0.951 . S
H1210 C1235 0.951 . S
H1211 C1237 0.950 . S
H1212 C1238 0.950 . S
H1213 C1240 0.950 . S
H1214 C1243 0.950 . S
H1215 C1244 0.950 . S
H1216 C1246 0.950 . S
H1217 C1247 0.950 . S
C1218 H1200 0.951 . S
C1218 C1219 1.366 . S
C1218 C1220 1.388 . S
C1219 C1218 1.366 . S
C1219 C1223 1.385 . S
C1220 H1201 0.951 . S
C1220 C1218 1.388 . S
C1220 C1221 1.366 . S
C1221 C1220 1.366 . S
C1221 C1222 1.414 . S
C1221 C1224 1.499 . S
C1222 H1202 0.950 . S
C1222 C1221 1.414 . S
C1222 C1223 1.374 . S
C1223 H1203 0.950 . S
C1223 C1219 1.385 . S
C1223 C1222 1.374 . S
C1224 C1221 1.499 . S
C1224 C1225 1.373 . S
C1224 C1226 1.389 . S
C1225 H1204 0.950 . S
C1225 C1224 1.373 . S
C1225 C1241 1.377 . S
C1226 C1224 1.389 . S
C1226 C1227 1.524 . S
C1226 C1240 1.377 . S
C1227 C1226 1.524 . S
C1227 C1228 1.397 . S
C1227 C1232 1.363 . S
C1228 H1205 0.950 . S
C1228 C1227 1.397 . S
C1228 C1229 1.334 . S
C1229 H1206 0.950 . S
C1229 C1228 1.334 . S
C1229 C1230 1.287 . S
C1230 C1229 1.287 . S
C1230 C1231 1.524 . S
C1230 H1249 0.913 . S
C1231 H1207 0.950 . S
C1231 C1230 1.524 . S
C1231 C1232 1.415 . S
C1232 H1208 0.950 . S
C1232 C1227 1.363 . S
C1232 C1231 1.415 . S
C1233 H1209 0.951 . S
C1233 C1234 1.366 . S
C1233 C1235 1.388 . S
C1234 C1233 1.366 . S
C1234 C1238 1.385 . S
C1235 H1210 0.951 . S
C1235 C1233 1.388 . S
C1235 C1236 1.366 . S
C1236 C1235 1.366 . S
C1236 C1237 1.414 . S
C1236 C1239 1.499 . S
C1237 H1211 0.950 . S
C1237 C1236 1.414 . S
C1237 C1238 1.374 . S
C1238 H1212 0.950 . S
C1238 C1234 1.385 . S
C1238 C1237 1.374 . S
C1239 C1236 1.499 . S
C1239 C1240 1.373 . S
C1239 C1241 1.389 . S
C1240 H1213 0.950 . S
C1240 C1226 1.377 . S
C1240 C1239 1.373 . S
C1241 C1225 1.377 . S
C1241 C1239 1.389 . S
C1241 C1242 1.524 . S
C1242 C1241 1.524 . S
C1242 C1243 1.397 . S
C1242 C1247 1.363 . S
C1243 H1214 0.950 . S
C1243 C1242 1.397 . S
C1243 C1244 1.334 . S
C1244 H1215 0.950 . S
C1244 C1243 1.334 . S
C1244 C1245 1.287 . S
C1245 C1244 1.287 . S
C1245 C1246 1.524 . S
C1245 H1248 0.999 . S
C1246 H1216 0.950 . S
C1246 C1245 1.524 . S
C1246 C1247 1.415 . S
C1247 H1217 0.950 . S
C1247 C1242 1.363 . S
C1247 C1246 1.415 . S
H1248 C1245 0.999 . S
H1249 C1230 0.913 . S
H1250 C1268 0.951 . S
H1251 C1270 0.951 . S
H1252 C1272 0.950 . S
H1253 C1273 0.950 . S
H1254 C1275 0.950 . S
H1255 C1278 0.950 . S
H1256 C1279 0.950 . S
H1257 C1281 0.950 . S
H1258 C1282 0.950 . S
H1259 C1283 0.951 . S
H1260 C1285 0.951 . S
H1261 C1287 0.950 . S
H1262 C1288 0.950 . S
H1263 C1290 0.950 . S
H1264 C1293 0.950 . S
H1265 C1294 0.950 . S
H1266 C1296 0.950 . S
H1267 C1297 0.950 . S
C1268 H1250 0.951 . S
C1268 C1269 1.366 . S
C1268 C1270 1.388 . S
C1269 C1268 1.366 . S
C1269 C1273 1.385 . S
C1270 H1251 0.951 . S
C1270 C1268 1.388 . S
C1270 C1271 1.366 . S
C1271 C1270 1.366 . S
C1271 C1272 1.414 . S
C1271 C1274 1.499 . S
C1272 H1252 0.950 . S
C1272 C1271 1.414 . S
C1272 C1273 1.374 . S
C1273 H1253 0.950 . S
C1273 C1269 1.385 . S
C1273 C1272 1.374 . S
C1274 C1271 1.499 . S
C1274 C1275 1.373 . S
C1274 C1276 1.389 . S
C1275 H1254 0.950 . S
C1275 C1274 1.373 . S
C1275 C1291 1.377 . S
C1276 C1274 1.389 . S
C1276 C1277 1.524 . S
C1276 C1290 1.377 . S
C1277 C1276 1.524 . S
C1277 C1278 1.397 . S
C1277 C1282 1.363 . S
C1278 H1255 0.950 . S
C1278 C1277 1.397 . S
C1278 C1279 1.334 . S
C1279 H1256 0.950 . S
C1279 C1278 1.334 . S
C1279 C1280 1.287 . S
C1280 C1279 1.287 . S
C1280 C1281 1.524 . S
C1280 H1299 0.913 . S
C1281 H1257 0.950 . S
C1281 C1280 1.524 . S
C1281 C1282 1.415 . S
C1282 H1258 0.950 . S
C1282 C1277 1.363 . S
C1282 C1281 1.415 . S
C1283 H1259 0.951 . S
C1283 C1284 1.366 . S
C1283 C1285 1.388 . S
C1284 C1283 1.366 . S
C1284 C1288 1.385 . S
C1285 H1260 0.951 . S
C1285 C1283 1.388 . S
C1285 C1286 1.366 . S
C1286 C1285 1.366 . S
C1286 C1287 1.414 . S
C1286 C1289 1.499 . S
C1287 H1261 0.950 . S
C1287 C1286 1.414 . S
C1287 C1288 1.374 . S
C1288 H1262 0.950 . S
C1288 C1284 1.385 . S
C1288 C1287 1.374 . S
C1289 C1286 1.499 . S
C1289 C1290 1.373 . S
C1289 C1291 1.389 . S
C1290 H1263 0.950 . S
C1290 C1276 1.377 . S
C1290 C1289 1.373 . S
C1291 C1275 1.377 . S
C1291 C1289 1.389 . S
C1291 C1292 1.524 . S
C1292 C1291 1.524 . S
C1292 C1293 1.397 . S
C1292 C1297 1.363 . S
C1293 H1264 0.950 . S
C1293 C1292 1.397 . S
C1293 C1294 1.334 . S
C1294 H1265 0.950 . S
C1294 C1293 1.334 . S
C1294 C1295 1.287 . S
C1295 C1294 1.287 . S
C1295 C1296 1.524 . S
C1295 H1298 0.999 . S
C1296 H1266 0.950 . S
C1296 C1295 1.524 . S
C1296 C1297 1.415 . S
C1297 H1267 0.950 . S
C1297 C1292 1.363 . S
C1297 C1296 1.415 . S
H1298 C1295 0.999 . S
H1299 C1280 0.913 . S
H1300 C1318 0.951 . S
H1301 C1320 0.951 . S
H1302 C1322 0.950 . S
H1303 C1323 0.950 . S
H1304 C1325 0.950 . S
H1305 C1328 0.950 . S
H1306 C1329 0.950 . S
H1307 C1331 0.950 . S
H1308 C1332 0.950 . S
H1309 C1333 0.951 . S
H1310 C1335 0.951 . S
H1311 C1337 0.950 . S
H1312 C1338 0.950 . S
H1313 C1340 0.950 . S
H1314 C1343 0.950 . S
H1315 C1344 0.950 . S
H1316 C1346 0.950 . S
H1317 C1347 0.950 . S
C1318 H1300 0.951 . S
C1318 C1319 1.366 . S
C1318 C1320 1.388 . S
C1319 C1318 1.366 . S
C1319 C1323 1.385 . S
C1320 H1301 0.951 . S
C1320 C1318 1.388 . S
C1320 C1321 1.366 . S
C1321 C1320 1.366 . S
C1321 C1322 1.414 . S
C1321 C1324 1.499 . S
C1322 H1302 0.950 . S
C1322 C1321 1.414 . S
C1322 C1323 1.374 . S
C1323 H1303 0.950 . S
C1323 C1319 1.385 . S
C1323 C1322 1.374 . S
C1324 C1321 1.499 . S
C1324 C1325 1.373 . S
C1324 C1326 1.389 . S
C1325 H1304 0.950 . S
C1325 C1324 1.373 . S
C1325 C1341 1.377 . S
C1326 C1324 1.389 . S
C1326 C1327 1.524 . S
C1326 C1340 1.377 . S
C1327 C1326 1.524 . S
C1327 C1328 1.397 . S
C1327 C1332 1.363 . S
C1328 H1305 0.950 . S
C1328 C1327 1.397 . S
C1328 C1329 1.334 . S
C1329 H1306 0.950 . S
C1329 C1328 1.334 . S
C1329 C1330 1.287 . S
C1330 C1329 1.287 . S
C1330 C1331 1.524 . S
C1330 H1349 0.913 . S
C1331 H1307 0.950 . S
C1331 C1330 1.524 . S
C1331 C1332 1.415 . S
C1332 H1308 0.950 . S
C1332 C1327 1.363 . S
C1332 C1331 1.415 . S
C1333 H1309 0.951 . S
C1333 C1334 1.366 . S
C1333 C1335 1.388 . S
C1334 C1333 1.366 . S
C1334 C1338 1.385 . S
C1335 H1310 0.951 . S
C1335 C1333 1.388 . S
C1335 C1336 1.366 . S
C1336 C1335 1.366 . S
C1336 C1337 1.414 . S
C1336 C1339 1.499 . S
C1337 H1311 0.950 . S
C1337 C1336 1.414 . S
C1337 C1338 1.374 . S
C1338 H1312 0.950 . S
C1338 C1334 1.385 . S
C1338 C1337 1.374 . S
C1339 C1336 1.499 . S
C1339 C1340 1.373 . S
C1339 C1341 1.389 . S
C1340 H1313 0.950 . S
C1340 C1326 1.377 . S
C1340 C1339 1.373 . S
C1341 C1325 1.377 . S
C1341 C1339 1.389 . S
C1341 C1342 1.524 . S
C1342 C1341 1.524 . S
C1342 C1343 1.397 . S
C1342 C1347 1.363 . S
C1343 H1314 0.950 . S
C1343 C1342 1.397 . S
C1343 C1344 1.334 . S
C1344 H1315 0.950 . S
C1344 C1343 1.334 . S
C1344 C1345 1.287 . S
C1345 C1344 1.287 . S
C1345 C1346 1.524 . S
C1345 H1348 0.999 . S
C1346 H1316 0.950 . S
C1346 C1345 1.524 . S
C1346 C1347 1.415 . S
C1347 H1317 0.950 . S
C1347 C1342 1.363 . S
C1347 C1346 1.415 . S
H1348 C1345 0.999 . S
H1349 C1330 0.913 . S
H1350 C1368 0.951 . S
H1351 C1370 0.951 . S
H1352 C1372 0.950 . S
H1353 C1373 0.950 . S
H1354 C1375 0.950 . S
H1355 C1378 0.950 . S
H1356 C1379 0.950 . S
H1357 C1381 0.950 . S
H1358 C1382 0.950 . S
H1359 C1383 0.951 . S
H1360 C1385 0.951 . S
H1361 C1387 0.950 . S
H1362 C1388 0.950 . S
H1363 C1390 0.950 . S
H1364 C1393 0.950 . S
H1365 C1394 0.950 . S
H1366 C1396 0.950 . S
H1367 C1397 0.950 . S
C1368 H1350 0.951 . S
C1368 C1369 1.366 . S
C1368 C1370 1.388 . S
C1369 C1368 1.366 . S
C1369 C1373 1.385 . S
C1370 H1351 0.951 . S
C1370 C1368 1.388 . S
C1370 C1371 1.366 . S
C1371 C1370 1.366 . S
C1371 C1372 1.414 . S
C1371 C1374 1.499 . S
C1372 H1352 0.950 . S
C1372 C1371 1.414 . S
C1372 C1373 1.374 . S
C1373 H1353 0.950 . S
C1373 C1369 1.385 . S
C1373 C1372 1.374 . S
C1374 C1371 1.499 . S
C1374 C1375 1.373 . S
C1374 C1376 1.389 . S
C1375 H1354 0.950 . S
C1375 C1374 1.373 . S
C1375 C1391 1.377 . S
C1376 C1374 1.389 . S
C1376 C1377 1.524 . S
C1376 C1390 1.377 . S
C1377 C1376 1.524 . S
C1377 C1378 1.397 . S
C1377 C1382 1.363 . S
C1378 H1355 0.950 . S
C1378 C1377 1.397 . S
C1378 C1379 1.334 . S
C1379 H1356 0.950 . S
C1379 C1378 1.334 . S
C1379 C1380 1.287 . S
C1380 C1379 1.287 . S
C1380 C1381 1.524 . S
C1380 H1399 0.913 . S
C1381 H1357 0.950 . S
C1381 C1380 1.524 . S
C1381 C1382 1.415 . S
C1382 H1358 0.950 . S
C1382 C1377 1.363 . S
C1382 C1381 1.415 . S
C1383 H1359 0.951 . S
C1383 C1384 1.366 . S
C1383 C1385 1.388 . S
C1384 C1383 1.366 . S
C1384 C1388 1.385 . S
C1385 H1360 0.951 . S
C1385 C1383 1.388 . S
C1385 C1386 1.366 . S
C1386 C1385 1.366 . S
C1386 C1387 1.414 . S
C1386 C1389 1.499 . S
C1387 H1361 0.950 . S
C1387 C1386 1.414 . S
C1387 C1388 1.374 . S
C1388 H1362 0.950 . S
C1388 C1384 1.385 . S
C1388 C1387 1.374 . S
C1389 C1386 1.499 . S
C1389 C1390 1.373 . S
C1389 C1391 1.389 . S
C1390 H1363 0.950 . S
C1390 C1376 1.377 . S
C1390 C1389 1.373 . S
C1391 C1375 1.377 . S
C1391 C1389 1.389 . S
C1391 C1392 1.524 . S
C1392 C1391 1.524 . S
C1392 C1393 1.397 . S
C1392 C1397 1.363 . S
C1393 H1364 0.950 . S
C1393 C1392 1.397 . S
C1393 C1394 1.334 . S
C1394 H1365 0.950 . S
C1394 C1393 1.334 . S
C1394 C1395 1.287 . S
C1395 C1394 1.287 . S
C1395 C1396 1.524 . S
C1395 H1398 0.999 . S
C1396 H1366 0.950 . S
C1396 C1395 1.524 . S
C1396 C1397 1.415 . S
C1397 H1367 0.950 . S
C1397 C1392 1.363 . S
C1397 C1396 1.415 . S
H1398 C1395 0.999 . S
H1399 C1380 0.913 . S
H1400 C1418 0.951 . S
H1401 C1420 0.951 . S
H1402 C1422 0.950 . S
H1403 C1423 0.950 . S
H1404 C1425 0.950 . S
H1405 C1428 0.950 . S
H1406 C1429 0.950 . S
H1407 C1431 0.950 . S
H1408 C1432 0.950 . S
H1409 C1433 0.951 . S
H1410 C1435 0.951 . S
H1411 C1437 0.950 . S
H1412 C1438 0.950 . S
H1413 C1440 0.950 . S
H1414 C1443 0.950 . S
H1415 C1444 0.950 . S
H1416 C1446 0.950 . S
H1417 C1447 0.950 . S
C1418 H1400 0.951 . S
C1418 C1419 1.366 . S
C1418 C1420 1.388 . S
C1419 C1418 1.366 . S
C1419 C1423 1.385 . S
C1420 H1401 0.951 . S
C1420 C1418 1.388 . S
C1420 C1421 1.366 . S
C1421 C1420 1.366 . S
C1421 C1422 1.414 . S
C1421 C1424 1.499 . S
C1422 H1402 0.950 . S
C1422 C1421 1.414 . S
C1422 C1423 1.374 . S
C1423 H1403 0.950 . S
C1423 C1419 1.385 . S
C1423 C1422 1.374 . S
C1424 C1421 1.499 . S
C1424 C1425 1.373 . S
C1424 C1426 1.389 . S
C1425 H1404 0.950 . S
C1425 C1424 1.373 . S
C1425 C1441 1.377 . S
C1426 C1424 1.389 . S
C1426 C1427 1.524 . S
C1426 C1440 1.377 . S
C1427 C1426 1.524 . S
C1427 C1428 1.397 . S
C1427 C1432 1.363 . S
C1428 H1405 0.950 . S
C1428 C1427 1.397 . S
C1428 C1429 1.334 . S
C1429 H1406 0.950 . S
C1429 C1428 1.334 . S
C1429 C1430 1.287 . S
C1430 C1429 1.287 . S
C1430 C1431 1.524 . S
C1430 H1449 0.913 . S
C1431 H1407 0.950 . S
C1431 C1430 1.524 . S
C1431 C1432 1.415 . S
C1432 H1408 0.950 . S
C1432 C1427 1.363 . S
C1432 C1431 1.415 . S
C1433 H1409 0.951 . S
C1433 C1434 1.366 . S
C1433 C1435 1.388 . S
C1434 C1433 1.366 . S
C1434 C1438 1.385 . S
C1435 H1410 0.951 . S
C1435 C1433 1.388 . S
C1435 C1436 1.366 . S
C1436 C1435 1.366 . S
C1436 C1437 1.414 . S
C1436 C1439 1.499 . S
C1437 H1411 0.950 . S
C1437 C1436 1.414 . S
C1437 C1438 1.374 . S
C1438 H1412 0.950 . S
C1438 C1434 1.385 . S
C1438 C1437 1.374 . S
C1439 C1436 1.499 . S
C1439 C1440 1.373 . S
C1439 C1441 1.389 . S
C1440 H1413 0.950 . S
C1440 C1426 1.377 . S
C1440 C1439 1.373 . S
C1441 C1425 1.377 . S
C1441 C1439 1.389 . S
C1441 C1442 1.524 . S
C1442 C1441 1.524 . S
C1442 C1443 1.397 . S
C1442 C1447 1.363 . S
C1443 H1414 0.950 . S
C1443 C1442 1.397 . S
C1443 C1444 1.334 . S
C1444 H1415 0.950 . S
C1444 C1443 1.334 . S
C1444 C1445 1.287 . S
C1445 C1444 1.287 . S
C1445 C1446 1.524 . S
C1445 H1448 0.999 . S
C1446 H1416 0.950 . S
C1446 C1445 1.524 . S
C1446 C1447 1.415 . S
C1447 H1417 0.950 . S
C1447 C1442 1.363 . S
C1447 C1446 1.415 . S
H1448 C1445 0.999 . S
H1449 C1430 0.913 . S
H1450 C1468 0.951 . S
H1451 C1470 0.951 . S
H1452 C1472 0.950 . S
H1453 C1473 0.950 . S
H1454 C1475 0.950 . S
H1455 C1478 0.950 . S
H1456 C1479 0.950 . S
H1457 C1481 0.950 . S
H1458 C1482 0.950 . S
H1459 C1483 0.951 . S
H1460 C1485 0.951 . S
H1461 C1487 0.950 . S
H1462 C1488 0.950 . S
H1463 C1490 0.950 . S
H1464 C1493 0.950 . S
H1465 C1494 0.950 . S
H1466 C1496 0.950 . S
H1467 C1497 0.950 . S
C1468 H1450 0.951 . S
C1468 C1469 1.366 . S
C1468 C1470 1.388 . S
C1469 C1468 1.366 . S
C1469 C1473 1.385 . S
C1470 H1451 0.951 . S
C1470 C1468 1.388 . S
C1470 C1471 1.366 . S
C1471 C1470 1.366 . S
C1471 C1472 1.414 . S
C1471 C1474 1.499 . S
C1472 H1452 0.950 . S
C1472 C1471 1.414 . S
C1472 C1473 1.374 . S
C1473 H1453 0.950 . S
C1473 C1469 1.385 . S
C1473 C1472 1.374 . S
C1474 C1471 1.499 . S
C1474 C1475 1.373 . S
C1474 C1476 1.389 . S
C1475 H1454 0.950 . S
C1475 C1474 1.373 . S
C1475 C1491 1.377 . S
C1476 C1474 1.389 . S
C1476 C1477 1.524 . S
C1476 C1490 1.377 . S
C1477 C1476 1.524 . S
C1477 C1478 1.397 . S
C1477 C1482 1.363 . S
C1478 H1455 0.950 . S
C1478 C1477 1.397 . S
C1478 C1479 1.334 . S
C1479 H1456 0.950 . S
C1479 C1478 1.334 . S
C1479 C1480 1.287 . S
C1480 C1479 1.287 . S
C1480 C1481 1.524 . S
C1480 H1499 0.913 . S
C1481 H1457 0.950 . S
C1481 C1480 1.524 . S
C1481 C1482 1.415 . S
C1482 H1458 0.950 . S
C1482 C1477 1.363 . S
C1482 C1481 1.415 . S
C1483 H1459 0.951 . S
C1483 C1484 1.366 . S
C1483 C1485 1.388 . S
C1484 C1483 1.366 . S
C1484 C1488 1.385 . S
C1485 H1460 0.951 . S
C1485 C1483 1.388 . S
C1485 C1486 1.366 . S
C1486 C1485 1.366 . S
C1486 C1487 1.414 . S
C1486 C1489 1.499 . S
C1487 H1461 0.950 . S
C1487 C1486 1.414 . S
C1487 C1488 1.374 . S
C1488 H1462 0.950 . S
C1488 C1484 1.385 . S
C1488 C1487 1.374 . S
C1489 C1486 1.499 . S
C1489 C1490 1.373 . S
C1489 C1491 1.389 . S
C1490 H1463 0.950 . S
C1490 C1476 1.377 . S
C1490 C1489 1.373 . S
C1491 C1475 1.377 . S
C1491 C1489 1.389 . S
C1491 C1492 1.524 . S
C1492 C1491 1.524 . S
C1492 C1493 1.397 . S
C1492 C1497 1.363 . S
C1493 H1464 0.950 . S
C1493 C1492 1.397 . S
C1493 C1494 1.334 . S
C1494 H1465 0.950 . S
C1494 C1493 1.334 . S
C1494 C1495 1.287 . S
C1495 C1494 1.287 . S
C1495 C1496 1.524 . S
C1495 H1498 0.999 . S
C1496 H1466 0.950 . S
C1496 C1495 1.524 . S
C1496 C1497 1.415 . S
C1497 H1467 0.950 . S
C1497 C1492 1.363 . S
C1497 C1496 1.415 . S
H1498 C1495 0.999 . S
H1499 C1480 0.913 . S
H1500 C1518 0.951 . S
H1501 C1520 0.951 . S
H1502 C1522 0.950 . S
H1503 C1523 0.950 . S
H1504 C1525 0.950 . S
H1505 C1528 0.950 . S
H1506 C1529 0.950 . S
H1507 C1531 0.950 . S
H1508 C1532 0.950 . S
H1509 C1533 0.951 . S
H1510 C1535 0.951 . S
H1511 C1537 0.950 . S
H1512 C1538 0.950 . S
H1513 C1540 0.950 . S
H1514 C1543 0.950 . S
H1515 C1544 0.950 . S
H1516 C1546 0.950 . S
H1517 C1547 0.950 . S
C1518 H1500 0.951 . S
C1518 C1519 1.366 . S
C1518 C1520 1.388 . S
C1519 C1518 1.366 . S
C1519 C1523 1.385 . S
C1520 H1501 0.951 . S
C1520 C1518 1.388 . S
C1520 C1521 1.366 . S
C1521 C1520 1.366 . S
C1521 C1522 1.414 . S
C1521 C1524 1.499 . S
C1522 H1502 0.950 . S
C1522 C1521 1.414 . S
C1522 C1523 1.374 . S
C1523 H1503 0.950 . S
C1523 C1519 1.385 . S
C1523 C1522 1.374 . S
C1524 C1521 1.499 . S
C1524 C1525 1.373 . S
C1524 C1526 1.389 . S
C1525 H1504 0.950 . S
C1525 C1524 1.373 . S
C1525 C1541 1.377 . S
C1526 C1524 1.389 . S
C1526 C1527 1.524 . S
C1526 C1540 1.377 . S
C1527 C1526 1.524 . S
C1527 C1528 1.397 . S
C1527 C1532 1.363 . S
C1528 H1505 0.950 . S
C1528 C1527 1.397 . S
C1528 C1529 1.334 . S
C1529 H1506 0.950 . S
C1529 C1528 1.334 . S
C1529 C1530 1.287 . S
C1530 C1529 1.287 . S
C1530 C1531 1.524 . S
C1530 H1549 0.913 . S
C1531 H1507 0.950 . S
C1531 C1530 1.524 . S
C1531 C1532 1.415 . S
C1532 H1508 0.950 . S
C1532 C1527 1.363 . S
C1532 C1531 1.415 . S
C1533 H1509 0.951 . S
C1533 C1534 1.366 . S
C1533 C1535 1.388 . S
C1534 C1533 1.366 . S
C1534 C1538 1.385 . S
C1535 H1510 0.951 . S
C1535 C1533 1.388 . S
C1535 C1536 1.366 . S
C1536 C1535 1.366 . S
C1536 C1537 1.414 . S
C1536 C1539 1.499 . S
C1537 H1511 0.950 . S
C1537 C1536 1.414 . S
C1537 C1538 1.374 . S
C1538 H1512 0.950 . S
C1538 C1534 1.385 . S
C1538 C1537 1.374 . S
C1539 C1536 1.499 . S
C1539 C1540 1.373 . S
C1539 C1541 1.389 . S
C1540 H1513 0.950 . S
C1540 C1526 1.377 . S
C1540 C1539 1.373 . S
C1541 C1525 1.377 . S
C1541 C1539 1.389 . S
C1541 C1542 1.524 . S
C1542 C1541 1.524 . S
C1542 C1543 1.397 . S
C1542 C1547 1.363 . S
C1543 H1514 0.950 . S
C1543 C1542 1.397 . S
C1543 C1544 1.334 . S
C1544 H1515 0.950 . S
C1544 C1543 1.334 . S
C1544 C1545 1.287 . S
C1545 C1544 1.287 . S
C1545 C1546 1.524 . S
C1545 H1548 0.999 . S
C1546 H1516 0.950 . S
C1546 C1545 1.524 . S
C1546 C1547 1.415 . S
C1547 H1517 0.950 . S
C1547 C1542 1.363 . S
C1547 C1546 1.415 . S
H1548 C1545 0.999 . S
H1549 C1530 0.913 . S
H1550 C1568 0.951 . S
H1551 C1570 0.951 . S
H1552 C1572 0.962 . S
H1553 C1573 0.950 . S
H1554 C1575 0.950 . S
H1555 C1578 0.950 . S
H1556 C1579 0.950 . S
H1557 C1581 0.950 . S
H1558 C1582 0.950 . S
H1559 C1583 0.951 . S
H1560 C1585 0.951 . S
H1561 C1587 0.950 . S
H1562 C1588 0.950 . S
H1563 C1590 0.950 . S
H1564 C1593 0.950 . S
H1565 C1594 0.950 . S
H1566 C1596 0.950 . S
H1567 C1597 0.949 . S
C1568 H1550 0.951 . S
C1568 C1569 1.366 . S
C1568 C1570 1.388 . S
C1569 C1568 1.366 . S
C1569 C1573 1.385 . S
C1570 H1551 0.951 . S
C1570 C1568 1.388 . S
C1570 C1571 1.366 . S
C1571 C1570 1.366 . S
C1571 C1572 1.414 . S
C1571 C1574 1.499 1_554 S
C1572 H1552 0.962 . S
C1572 C1571 1.414 . S
C1572 C1573 1.374 . S
C1573 H1553 0.950 . S
C1573 C1569 1.385 . S
C1573 C1572 1.374 . S
C1574 C1571 1.499 1_556 S
C1574 C1575 1.373 1_556 S
C1574 C1576 1.389 . S
C1575 H1554 0.950 . S
C1575 C1574 1.373 1_554 S
C1575 C1591 1.377 1_554 S
C1576 C1574 1.389 . S
C1576 C1577 1.524 . S
C1576 C1590 1.377 . S
C1577 C1576 1.524 . S
C1577 C1578 1.397 . S
C1577 C1582 1.363 . S
C1578 H1555 0.950 . S
C1578 C1577 1.397 . S
C1578 C1579 1.334 . S
C1579 H1556 0.950 . S
C1579 C1578 1.334 . S
C1579 C1580 1.287 . S
C1580 C1579 1.287 . S
C1580 C1581 1.524 . S
C1580 H1599 0.913 . S
C1581 H1557 0.950 . S
C1581 C1580 1.524 . S
C1581 C1582 1.415 . S
C1582 H1558 0.950 . S
C1582 C1577 1.363 . S
C1582 C1581 1.415 . S
C1583 H1559 0.951 . S
C1583 C1584 1.366 . S
C1583 C1585 1.388 . S
C1584 C1583 1.366 . S
C1584 C1588 1.385 . S
C1585 H1560 0.951 . S
C1585 C1583 1.388 . S
C1585 C1586 1.366 . S
C1586 C1585 1.366 . S
C1586 C1587 1.414 . S
C1586 C1589 1.499 . S
C1587 H1561 0.950 . S
C1587 C1586 1.414 . S
C1587 C1588 1.374 . S
C1588 H1562 0.950 . S
C1588 C1584 1.385 . S
C1588 C1587 1.374 . S
C1589 C1586 1.499 . S
C1589 C1590 1.373 . S
C1589 C1591 1.389 . S
C1590 H1563 0.950 . S
C1590 C1576 1.377 . S
C1590 C1589 1.373 . S
C1591 C1575 1.377 1_556 S
C1591 C1589 1.389 . S
C1591 C1592 1.524 1_556 S
C1592 C1591 1.524 1_554 S
C1592 C1593 1.397 . S
C1592 C1597 1.363 . S
C1593 H1564 0.950 . S
C1593 C1592 1.397 . S
C1593 C1594 1.334 . S
C1594 H1565 0.950 . S
C1594 C1593 1.334 . S
C1594 C1595 1.287 . S
C1595 C1594 1.287 . S
C1595 C1596 1.524 . S
C1595 H1598 0.999 . S
C1596 H1566 0.950 . S
C1596 C1595 1.524 . S
C1596 C1597 1.415 . S
C1597 H1567 0.949 . S
C1597 C1592 1.363 . S
C1597 C1596 1.415 . S
H1598 C1595 0.999 . S
H1599 C1580 0.913 . S
C419 C7 1.473 . S
C434 C104 1.430 . S
C469 C37 1.332 . S
C484 C143 1.268 . S
C519 C54 1.563 . S
C534 C182 1.473 . S
C584 C206 1.402 . S
C569 C87 1.415 . S
C634 C245 1.380 . S
C619 C30 1.422 . S
C669 C51 1.443 . S
C684 C284 1.426 . S
C719 C84 1.618 . S
C734 C338 1.521 . S
C769 C10 1.281 1_556 S
C784 C362 1.218 . S
C819 C59 1.493 . S
C834 C377 1.453 . S
C884 C260 1.222 . S
C869 C74 1.289 . S
C934 C299 1.533 . S
C919 C18 1.621 . S
C969 C32 1.415 . S
C984 C323 1.392 . S
C1034 C128 1.443 . S
C1019 C73 1.484 . S
C1069 C15 1.423 . S
C1084 C167 1.415 . S
C1134 C221 1.559 . S
C1119 C43 1.634 . S
C1184 C89 1.226 . S
C1169 C62 1.289 . S
C1234 C343 1.436 . S
C1219 C21 1.472 . S
C1284 C382 1.248 . S
C1269 C29 1.259 . S
C1319 C52 1.213 . S
C1334 C265 1.196 . S
C1384 C304 1.414 . S
C1369 C81 1.456 . S
C1434 C187 1.392 . S
C1419 C40 1.417 . S
C1469 C65 1.444 . S
C1484 C226 1.403 . S
C1534 C109 1.202 . S
C1519 C76 1.230 . S
C1584 C148 1.243 . S
C1569 C8 1.270 . S
