# Generated by pormake.
# Topology pyr, (3,6)-cn, num edge types: 1
# Building blocks:
#     Node 0, Type 0, BuildingBlock: BELTOD_clean_linker_0, # of connection points: 3
#     Node 1, Type 0, BuildingBlock: BELTOD_clean_linker_0, # of connection points: 3
#     Node 2, Type 0, BuildingBlock: BELTOD_clean_linker_0, # of connection points: 3
#     Node 3, Type 0, BuildingBlock: BELTOD_clean_linker_0, # of connection points: 3
#     Node 4, Type 0, BuildingBlock: BELTOD_clean_linker_0, # of connection points: 3
#     Node 5, Type 0, BuildingBlock: BELTOD_clean_linker_0, # of connection points: 3
#     Node 6, Type 0, BuildingBlock: BELTOD_clean_linker_0, # of connection points: 3
#     Node 7, Type 0, BuildingBlock: BELTOD_clean_linker_0, # of connection points: 3
#     Node 8, Type 1, BuildingBlock: MIFKUJ_clean_sbu_0, # of connection points: 6
#     Node 9, Type 1, BuildingBlock: MIFKUJ_clean_sbu_0, # of connection points: 6
#     Node 10, Type 1, BuildingBlock: MIFKUJ_clean_sbu_0, # of connection points: 6
#     Node 11, Type 1, BuildingBlock: MIFKUJ_clean_sbu_0, # of connection points: 6
#     Edge 12, Type (0, 1), BuildingBlock: XUDNAN_clean_linker_2, # of connection points: 2
#     Edge 13, Type (0, 1), BuildingBlock: XUDNAN_clean_linker_2, # of connection points: 2
#     Edge 14, Type (0, 1), BuildingBlock: XUDNAN_clean_linker_2, # of connection points: 2
#     Edge 15, Type (0, 1), BuildingBlock: XUDNAN_clean_linker_2, # of connection points: 2
#     Edge 16, Type (0, 1), BuildingBlock: XUDNAN_clean_linker_2, # of connection points: 2
#     Edge 17, Type (0, 1), BuildingBlock: XUDNAN_clean_linker_2, # of connection points: 2
#     Edge 18, Type (0, 1), BuildingBlock: XUDNAN_clean_linker_2, # of connection points: 2
#     Edge 19, Type (0, 1), BuildingBlock: XUDNAN_clean_linker_2, # of connection points: 2
#     Edge 20, Type (0, 1), BuildingBlock: XUDNAN_clean_linker_2, # of connection points: 2
#     Edge 21, Type (0, 1), BuildingBlock: XUDNAN_clean_linker_2, # of connection points: 2
#     Edge 22, Type (0, 1), BuildingBlock: XUDNAN_clean_linker_2, # of connection points: 2
#     Edge 23, Type (0, 1), BuildingBlock: XUDNAN_clean_linker_2, # of connection points: 2
#     Edge 24, Type (0, 1), BuildingBlock: XUDNAN_clean_linker_2, # of connection points: 2
#     Edge 25, Type (0, 1), BuildingBlock: XUDNAN_clean_linker_2, # of connection points: 2
#     Edge 26, Type (0, 1), BuildingBlock: XUDNAN_clean_linker_2, # of connection points: 2
#     Edge 27, Type (0, 1), BuildingBlock: XUDNAN_clean_linker_2, # of connection points: 2
#     Edge 28, Type (0, 1), BuildingBlock: XUDNAN_clean_linker_2, # of connection points: 2
#     Edge 29, Type (0, 1), BuildingBlock: XUDNAN_clean_linker_2, # of connection points: 2
#     Edge 30, Type (0, 1), BuildingBlock: XUDNAN_clean_linker_2, # of connection points: 2
#     Edge 31, Type (0, 1), BuildingBlock: XUDNAN_clean_linker_2, # of connection points: 2
#     Edge 32, Type (0, 1), BuildingBlock: XUDNAN_clean_linker_2, # of connection points: 2
#     Edge 33, Type (0, 1), BuildingBlock: XUDNAN_clean_linker_2, # of connection points: 2
#     Edge 34, Type (0, 1), BuildingBlock: XUDNAN_clean_linker_2, # of connection points: 2
#     Edge 35, Type (0, 1), BuildingBlock: XUDNAN_clean_linker_2, # of connection points: 2
# Relax obj value: 0.031
# Max RMSD: 0.086
# Mean RMSD: 0.052
data_MOF--net-pyr--node1-MIFKUJ_clean_sbu_0--node2-BELTOD_clean_linker_0--edge1-XUDNAN_clean_linker_2
_symmetry_space_group_name_H-M    P1
_symmetry_Int_Tables_number       1
_symmetry_cell_setting            triclinic
loop_
_symmetry_equiv_pos_as_xyz
'x, y, z'
_cell_length_a     44.686051
_cell_length_b     40.394532
_cell_length_c     42.860224
_cell_angle_alpha  86.267449
_cell_angle_beta   88.281975
_cell_angle_gamma 95.883366
loop_
_atom_site_label
_atom_site_type_symbol
_atom_site_fract_x
_atom_site_fract_y
_atom_site_fract_z
_atom_type_partial_charge
P0 P 0.23027 0.21263 0.22671 0.0
H1 H 0.29387 0.21045 0.20921 0.0
H2 H 0.32027 0.17063 0.18139 0.0
H3 H 0.2351 0.1147 0.16502 0.0
H4 H 0.20887 0.15447 0.19339 0.0
H5 H 0.18418 0.25268 0.24701 0.0
H6 H 0.14707 0.28254 0.21934 0.0
H7 H 0.17989 0.25013 0.13166 0.0
H8 H 0.21748 0.22092 0.15953 0.0
H9 H 0.24806 0.19435 0.29009 0.0
H10 H 0.17093 0.17452 0.23348 0.0
O11 O 0.25517 0.24113 0.24061 0.0
H12 H 0.22225 0.15962 0.3337 0.0
H13 H 0.14518 0.13939 0.27669 0.0
C14 C 0.24943 0.18534 0.20338 0.0
C15 C 0.28084 0.18982 0.19939 0.0
C16 C 0.29591 0.16709 0.18332 0.0
C17 C 0.27979 0.13942 0.17104 0.0
C18 C 0.2482 0.13549 0.17455 0.0
C19 C 0.23317 0.15827 0.19061 0.0
C20 C 0.20325 0.23422 0.2054 0.0
C21 C 0.18329 0.25191 0.22184 0.0
C22 C 0.16194 0.26875 0.206 0.0
C23 C 0.16028 0.2684 0.17332 0.0
C24 C 0.18065 0.25095 0.15684 0.0
C25 C 0.20204 0.23406 0.17277 0.0
C26 C 0.21112 0.18756 0.25888 0.0
C27 C 0.22552 0.18264 0.28712 0.0
C28 C 0.21083 0.16258 0.31191 0.0
C29 C 0.18158 0.14693 0.3087 0.0
C30 C 0.16746 0.1516 0.2801 0.0
C31 C 0.18219 0.1716 0.25536 0.0
P32 P 0.36586 0.88212 0.66682 0.0
H33 H 0.42007 0.91047 0.6955 0.0
H34 H 0.43481 0.91346 0.7497 0.0
H35 H 0.35017 0.85814 0.781 0.0
H36 H 0.33565 0.85503 0.72643 0.0
H37 H 0.36558 0.86526 0.6024 0.0
H38 H 0.37528 0.81526 0.57642 0.0
H39 H 0.39461 0.76691 0.66537 0.0
H40 H 0.38513 0.81748 0.69128 0.0
H41 H 0.33226 0.94016 0.65789 0.0
H42 H 0.31239 0.83322 0.66778 0.0
O43 O 0.38503 0.91462 0.64658 0.0
H44 H 0.27973 0.94601 0.64659 0.0
H45 H 0.25958 0.83881 0.65711 0.0
C46 C 0.37655 0.88304 0.70699 0.0
C47 C 0.4046 0.89909 0.714 0.0
C48 C 0.41295 0.90094 0.74504 0.0
C49 C 0.39351 0.88642 0.76972 0.0
C50 C 0.36567 0.86956 0.76253 0.0
C51 C 0.35727 0.86788 0.73139 0.0
C52 C 0.37479 0.84516 0.64868 0.0
C53 C 0.37213 0.844 0.6163 0.0
C54 C 0.37749 0.8153 0.60151 0.0
C55 C 0.38555 0.787 0.61885 0.0
C56 C 0.38868 0.78839 0.65134 0.0
C57 C 0.38316 0.81723 0.66619 0.0
C58 C 0.32632 0.88625 0.66298 0.0
C59 C 0.31648 0.91794 0.658 0.0
C60 C 0.28634 0.92124 0.65175 0.0
C61 C 0.26544 0.89285 0.65058 0.0
C62 C 0.27519 0.86116 0.6572 0.0
C63 C 0.30535 0.85792 0.66344 0.0
P64 P 0.68072 0.30524 0.78344 0.0
H65 H 0.74563 0.32343 0.77815 0.0
H66 H 0.78152 0.34988 0.81296 0.0
H67 H 0.70857 0.36129 0.87871 0.0
H68 H 0.67296 0.33356 0.84417 0.0
H69 H 0.62109 0.31242 0.81207 0.0
H70 H 0.58601 0.27419 0.84555 0.0
H71 H 0.64634 0.19759 0.83918 0.0
H72 H 0.68155 0.2362 0.80663 0.0
H73 H 0.66336 0.30552 0.71856 0.0
H74 H 0.65726 0.36905 0.79505 0.0
O75 O 0.70003 0.28279 0.76017 0.0
H76 H 0.63837 0.34433 0.68511 0.0
H77 H 0.63103 0.40756 0.76204 0.0
C78 C 0.70671 0.32612 0.80878 0.0
C79 C 0.73737 0.33151 0.80011 0.0
C80 C 0.75786 0.34692 0.81997 0.0
C81 C 0.74799 0.35769 0.84875 0.0
C82 C 0.71706 0.35278 0.85703 0.0
C83 C 0.69661 0.33711 0.83721 0.0
C84 C 0.6537 0.27695 0.80645 0.0
C85 C 0.62663 0.28733 0.81769 0.0
C86 C 0.60654 0.2654 0.83678 0.0
C87 C 0.61334 0.2328 0.84509 0.0
C88 C 0.64054 0.22263 0.83365 0.0
C89 C 0.66059 0.24458 0.81473 0.0
C90 C 0.66255 0.33461 0.75915 0.0
C91 C 0.65663 0.32788 0.72818 0.0
C92 C 0.64202 0.34999 0.70914 0.0
C93 C 0.63252 0.37909 0.72088 0.0
C94 C 0.6384 0.38567 0.75208 0.0
C95 C 0.65329 0.36359 0.77105 0.0
P96 P 0.81504 0.6922 0.29108 0.0
H97 H 0.867 0.68472 0.33048 0.0
H98 H 0.89679 0.72374 0.36189 0.0
H99 H 0.84472 0.80261 0.32913 0.0
H100 H 0.81499 0.7636 0.29836 0.0
H101 H 0.83798 0.70167 0.22651 0.0
H102 H 0.86726 0.66882 0.19366 0.0
H103 H 0.87093 0.59563 0.27126 0.0
H104 H 0.84201 0.62925 0.30427 0.0
H105 H 0.78897 0.70572 0.3517 0.0
H106 H 0.78093 0.62614 0.28917 0.0
O107 O 0.7945 0.71375 0.2668 0.0
H108 H 0.74883 0.67647 0.38553 0.0
H109 H 0.74131 0.59586 0.32369 0.0
C110 C 0.83909 0.72135 0.31171 0.0
C111 C 0.86232 0.71052 0.32979 0.0
C112 C 0.87932 0.73285 0.34772 0.0
C113 C 0.87307 0.7663 0.34813 0.0
C114 C 0.84989 0.77697 0.32971 0.0
C115 C 0.83304 0.75471 0.3118 0.0
C116 C 0.83722 0.66753 0.26763 0.0
C117 C 0.84495 0.67848 0.23646 0.0
C118 C 0.8616 0.65953 0.21761 0.0
C119 C 0.87113 0.62927 0.22961 0.0
C120 C 0.86403 0.61882 0.26123 0.0
C121 C 0.84733 0.63788 0.2801 0.0
C122 C 0.7887 0.66769 0.31833 0.0
C123 C 0.77918 0.68145 0.34566 0.0
C124 C 0.75611 0.66458 0.36511 0.0
C125 C 0.74183 0.63358 0.35758 0.0
C126 C 0.75157 0.61976 0.33017 0.0
C127 C 0.77458 0.63683 0.3106 0.0
P128 P 0.87282 0.90013 0.86966 0.0
H129 H 0.84115 0.94456 0.90695 0.0
H130 H 0.78772 0.94986 0.91639 0.0
H131 H 0.76473 0.86421 0.86319 0.0
H132 H 0.81834 0.85905 0.85381 0.0
H133 H 0.89409 0.86058 0.92227 0.0
H134 H 0.90996 0.80438 0.9274 0.0
H135 H 0.88741 0.79036 0.83144 0.0
H136 H 0.872 0.84677 0.82641 0.0
H137 H 0.83581 0.92704 0.81986 0.0
H138 H 0.92862 0.91003 0.83217 0.0
O139 O 0.8938 0.92324 0.89337 0.0
H140 H 0.84775 0.94747 0.76583 0.0
H141 H 0.94098 0.93151 0.77814 0.0
C142 C 0.83366 0.90115 0.88004 0.0
C143 C 0.82464 0.92652 0.89783 0.0
C144 C 0.79409 0.9295 0.90325 0.0
C145 C 0.77207 0.90742 0.89055 0.0
C146 C 0.78122 0.88167 0.87313 0.0
C147 C 0.8118 0.87853 0.86798 0.0
C148 C 0.88256 0.85803 0.87378 0.0
C149 C 0.89256 0.84537 0.90237 0.0
C150 C 0.90141 0.81316 0.90532 0.0
C151 C 0.90021 0.79302 0.87972 0.0
C152 C 0.88916 0.80549 0.85139 0.0
C153 C 0.88028 0.83768 0.84851 0.0
C154 C 0.88136 0.91688 0.83007 0.0
C155 C 0.85882 0.92782 0.81107 0.0
C156 C 0.86573 0.93978 0.78011 0.0
C157 C 0.89533 0.94114 0.76761 0.0
C158 C 0.91788 0.93037 0.78688 0.0
C159 C 0.91092 0.91835 0.81782 0.0
P160 P 0.71246 0.21227 0.2938 0.0
H161 H 0.71881 0.27704 0.32058 0.0
H162 H 0.68633 0.30425 0.35522 0.0
H163 H 0.62553 0.21354 0.36724 0.0
H164 H 0.65788 0.18683 0.33155 0.0
H165 H 0.76699 0.19223 0.26627 0.0
H166 H 0.80522 0.15809 0.2857 0.0
H167 H 0.75754 0.14264 0.37555 0.0
H168 H 0.71943 0.17768 0.3559 0.0
H169 H 0.68028 0.22957 0.23788 0.0
H170 H 0.69081 0.14085 0.29629 0.0
O171 O 0.7305 0.24361 0.27103 0.0
H172 H 0.64955 0.19636 0.20276 0.0
H173 H 0.65942 0.10741 0.26168 0.0
C174 C 0.69043 0.23016 0.32301 0.0
C175 C 0.69859 0.26291 0.33082 0.0
C176 C 0.68005 0.27839 0.35091 0.0
C177 C 0.65306 0.26125 0.3639 0.0
C178 C 0.64578 0.22775 0.35718 0.0
C179 C 0.66434 0.21234 0.33692 0.0
C180 C 0.74065 0.18786 0.30975 0.0
C181 C 0.76487 0.18174 0.29025 0.0
C182 C 0.78659 0.16194 0.30134 0.0
C183 C 0.7844 0.14743 0.33217 0.0
C184 C 0.76006 0.15371 0.3518 0.0
C185 C 0.73822 0.17364 0.34058 0.0
C186 C 0.68834 0.18757 0.26927 0.0
C187 C 0.67585 0.20291 0.2432 0.0
C188 C 0.65805 0.18388 0.22326 0.0
C189 C 0.65215 0.14911 0.22921 0.0
C190 C 0.664 0.13401 0.25602 0.0
C191 C 0.68186 0.1531 0.27592 0.0
P192 P 0.38516 0.61119 0.15553 0.0
H193 H 0.35007 0.55721 0.12677 0.0
H194 H 0.29766 0.54899 0.11197 0.0
H195 H 0.2823 0.64376 0.14767 0.0
H196 H 0.3346 0.6511 0.16343 0.0
H197 H 0.43032 0.65399 0.18706 0.0
H198 H 0.45261 0.71123 0.17544 0.0
H199 H 0.39804 0.71902 0.09417 0.0
H200 H 0.3749 0.6622 0.10682 0.0
H201 H 0.40143 0.54814 0.18338 0.0
H202 H 0.37446 0.63992 0.21566 0.0
O203 O 0.40516 0.58925 0.13245 0.0
H204 H 0.40701 0.52716 0.23735 0.0
H205 H 0.3804 0.6191 0.27007 0.0
C206 C 0.34632 0.60513 0.14546 0.0
C207 C 0.33541 0.57623 0.13134 0.0
C208 C 0.30546 0.57168 0.12272 0.0
C209 C 0.28581 0.59595 0.12817 0.0
C210 C 0.29672 0.6245 0.1432 0.0
C211 C 0.32668 0.62888 0.15201 0.0
C212 C 0.40008 0.65423 0.1485 0.0
C213 C 0.42252 0.66828 0.16724 0.0
C214 C 0.4356 0.70094 0.16028 0.0
C215 C 0.42704 0.71987 0.13392 0.0
C216 C 0.40468 0.70552 0.11506 0.0
C217 C 0.39146 0.67295 0.12222 0.0
C218 C 0.38829 0.59589 0.19554 0.0
C219 C 0.39681 0.56384 0.2021 0.0
C220 C 0.39981 0.55179 0.23298 0.0
C221 C 0.3943 0.5716 0.25788 0.0
C222 C 0.38515 0.60351 0.25128 0.0
C223 C 0.38174 0.61538 0.22029 0.0
P224 P 0.18175 0.32263 0.74149 0.0
H225 H 0.18808 0.25268 0.73263 0.0
H226 H 0.15991 0.21093 0.70328 0.0
H227 H 0.09746 0.28195 0.67734 0.0
H228 H 0.1258 0.32373 0.70714 0.0
H229 H 0.2162 0.38848 0.74209 0.0
H230 H 0.2543 0.41886 0.7057 0.0
H231 H 0.24215 0.33933 0.64302 0.0
H232 H 0.20378 0.30992 0.67875 0.0
H233 H 0.15912 0.31397 0.80616 0.0
H234 H 0.15266 0.38395 0.72696 0.0
O235 O 0.20385 0.3036 0.76604 0.0
H236 H 0.12826 0.3461 0.83813 0.0
H237 H 0.12199 0.41677 0.75905 0.0
C238 C 0.15869 0.29111 0.7226 0.0
C239 C 0.16806 0.25917 0.72107 0.0
C240 C 0.15211 0.2354 0.70396 0.0
C241 C 0.12648 0.24313 0.68788 0.0
C242 C 0.11691 0.27511 0.68976 0.0
C243 C 0.13305 0.29899 0.70679 0.0
C244 C 0.20645 0.34736 0.71284 0.0
C245 C 0.22125 0.37805 0.72014 0.0
C246 C 0.24332 0.39518 0.69946 0.0
C247 C 0.25131 0.38164 0.67128 0.0
C248 C 0.2362 0.35095 0.66408 0.0
C249 C 0.21414 0.33398 0.68466 0.0
C250 C 0.15872 0.34696 0.76437 0.0
C251 C 0.15128 0.33649 0.79571 0.0
C252 C 0.13371 0.35501 0.81404 0.0
C253 C 0.12293 0.3843 0.80133 0.0
C254 C 0.12986 0.39431 0.76959 0.0
C255 C 0.14754 0.37572 0.75126 0.0
Zn256 Zn 0.03341 0.99595 0.53823 0.0
Zn257 Zn 0.97795 0.01523 0.48514 0.0
C258 C 0.06067 0.05747 0.56006 0.0
O259 O 0.08401 0.04877 0.54437 0.0
C260 C 0.94762 0.9523 0.47126 0.0
O261 O 0.92445 0.96715 0.48065 0.0
O262 O 0.06232 0.96577 0.55811 0.0
O263 O 0.99118 0.97339 0.5443 0.0
O264 O 0.96719 0.01662 0.5309 0.0
C265 C 0.07454 0.96998 0.58421 0.0
O266 O 0.06693 0.99395 0.60114 0.0
O267 O 0.03593 0.03877 0.56066 0.0
C268 C 0.94535 0.03364 0.43179 0.0
O269 O 0.96473 0.01562 0.41911 0.0
O270 O 0.9467 0.03818 0.46082 0.0
O271 O 0.01847 0.03754 0.46942 0.0
O272 O 0.05051 0.00775 0.49453 0.0
O273 O 0.97392 0.96743 0.47256 0.0
C274 C 0.97145 0.99274 0.55049 0.0
C275 C 0.04461 0.02808 0.47221 0.0
Zn276 Zn 0.53048 0.98312 0.99727 0.0
Zn277 Zn 0.48001 0.01173 0.03382 0.0
C278 C 0.4907 0.93678 0.96568 0.0
O279 O 0.50414 0.91533 0.98323 0.0
C280 C 0.51528 0.05312 0.07492 0.0
O281 O 0.49532 0.07391 0.06795 0.0
O282 O 0.5685 0.96819 0.97902 0.0
O283 O 0.53696 0.03294 0.99519 0.0
O284 O 0.48873 0.03809 0.992 0.0
C285 C 0.57231 0.96906 0.94944 0.0
O286 O 0.55158 0.98013 0.9316 0.0
O287 O 0.49742 0.96785 0.96819 0.0
C288 C 0.42347 0.00827 0.07002 0.0
O289 O 0.42793 0.97683 0.07556 0.0
O290 O 0.44237 0.02736 0.05263 0.0
O291 O 0.47435 0.96117 0.03606 0.0
O292 O 0.52298 0.95901 0.03953 0.0
O293 O 0.51354 0.02516 0.06272 0.0
C294 C 0.51596 0.04924 0.98528 0.0
C295 C 0.49622 0.94631 0.0462 0.0
Zn296 Zn 0.51156 0.47215 0.49462 0.0
Zn297 Zn 0.48173 0.53152 0.52473 0.0
C298 C 0.55552 0.51223 0.45354 0.0
O299 O 0.54153 0.4951 0.43228 0.0
C300 C 0.43683 0.49543 0.56707 0.0
O301 O 0.45239 0.5121 0.58757 0.0
O302 O 0.52342 0.42969 0.47733 0.0
O303 O 0.50919 0.4651 0.54115 0.0
O304 O 0.51794 0.51858 0.54882 0.0
C305 C 0.55016 0.42172 0.47919 0.0
O306 O 0.57003 0.44084 0.49371 0.0
O307 O 0.54582 0.5078 0.48188 0.0
C308 C 0.44565 0.58422 0.52851 0.0
O309 O 0.43108 0.5651 0.50907 0.0
O310 O 0.4702 0.57557 0.53909 0.0
O311 O 0.4829 0.53601 0.47701 0.0
O312 O 0.47363 0.48188 0.47404 0.0
O313 O 0.44582 0.49856 0.53848 0.0
C314 C 0.52019 0.48819 0.55748 0.0
C315 C 0.47072 0.51133 0.46332 0.0
Zn316 Zn 0.95589 0.51731 0.98867 0.0
Zn317 Zn 0.03034 0.4925 0.03958 0.0
C318 C 0.91425 0.48232 0.95044 0.0
O319 O 0.9326 0.49823 0.92866 0.0
C320 C 0.09194 0.52675 0.03827 0.0
O321 O 0.09615 0.51261 0.01198 0.0
O322 O 0.95064 0.56189 0.96659 0.0
O323 O 0.95351 0.52451 0.03489 0.0
O324 O 0.99421 0.51062 0.05865 0.0
C325 C 0.96368 0.57285 0.94065 0.0
O326 O 0.9824 0.55484 0.92697 0.0
O327 O 0.91965 0.48622 0.979 0.0
C328 C 0.05614 0.43201 0.05274 0.0
O329 O 0.07317 0.44432 0.02837 0.0
O330 O 0.03468 0.44788 0.06179 0.0
O331 O 0.03311 0.48634 0.99329 0.0
O332 O 0.99225 0.49928 0.96913 0.0
O333 O 0.0662 0.52242 0.05222 0.0
C334 C 0.96858 0.5216 0.05942 0.0
C335 C 0.01814 0.48879 0.96866 0.0
H336 H 0.12242 0.14475 0.32858 0.0
H337 H 0.20523 0.10103 0.34813 0.0
H338 H 0.17907 0.06567 0.39188 0.0
H339 H 0.0965 0.14682 0.40826 0.0
H340 H 0.05744 0.1364 0.40015 0.0
H341 H 0.08269 0.15825 0.37038 0.0
H342 H 0.06832 0.11221 0.33249 0.0
H343 H 0.04303 0.09021 0.36216 0.0
H344 H 0.07231 0.06932 0.34447 0.0
H345 H 0.14403 0.03523 0.43334 0.0
H346 H 0.10268 0.01199 0.47019 0.0
H347 H 0.04237 0.07498 0.423 0.0
C348 C 0.135 0.12753 0.34188 0.0
C349 C 0.16588 0.12566 0.33497 0.0
C350 C 0.18166 0.10318 0.35326 0.0
C351 C 0.16695 0.08286 0.37801 0.0
C352 C 0.1365 0.08533 0.38414 0.0
C353 C 0.12069 0.10709 0.36664 0.0
C354 C 0.08817 0.10509 0.37827 0.0
C355 C 0.08078 0.13863 0.38996 0.0
C356 C 0.06669 0.09351 0.35283 0.0
C357 C 0.08816 0.07873 0.40503 0.0
C358 C 0.11626 0.06768 0.40801 0.0
C359 C 0.12191 0.04363 0.43122 0.0
C360 C 0.09822 0.03059 0.45204 0.0
C361 C 0.06918 0.04159 0.44951 0.0
C362 C 0.06421 0.06593 0.42555 0.0
H363 H 0.42097 0.94087 0.79677 0.0
H364 H 0.38702 0.83693 0.81715 0.0
H365 H 0.40466 0.83984 0.87112 0.0
H366 H 0.48774 0.93854 0.83831 0.0
H367 H 0.48727 0.97962 0.85229 0.0
H368 H 0.46988 0.97003 0.81618 0.0
H369 H 0.41961 0.98824 0.83741 0.0
H370 H 0.43688 0.99784 0.87366 0.0
H371 H 0.40312 0.96924 0.87401 0.0
H372 H 0.43002 0.8527 0.92125 0.0
H373 H 0.46002 0.87494 0.96419 0.0
H374 H 0.47649 0.97087 0.91157 0.0
C375 C 0.41712 0.91875 0.81262 0.0
C376 C 0.40258 0.88864 0.80272 0.0
C377 C 0.39776 0.86036 0.8243 0.0
C378 C 0.40779 0.86175 0.85496 0.0
C379 C 0.42236 0.8917 0.86381 0.0
C380 C 0.42682 0.91976 0.84334 0.0
C381 C 0.44405 0.94853 0.8583 0.0
C382 C 0.47401 0.95983 0.84019 0.0
C383 C 0.42475 0.97769 0.86101 0.0
C384 C 0.44919 0.93207 0.89018 0.0
C385 C 0.43642 0.89931 0.89293 0.0
C386 C 0.43976 0.87844 0.91952 0.0
C387 C 0.45689 0.89126 0.94375 0.0
C388 C 0.47034 0.92469 0.94132 0.0
C389 C 0.46599 0.94542 0.91435 0.0
H390 H 0.59039 0.36245 0.67778 0.0
H391 H 0.63806 0.44784 0.71773 0.0
H392 H 0.61225 0.48563 0.68241 0.0
H393 H 0.59641 0.39673 0.59927 0.0
H394 H 0.55987 0.37805 0.58933 0.0
H395 H 0.5804 0.35811 0.6194 0.0
H396 H 0.53509 0.35849 0.6586 0.0
H397 H 0.51443 0.3785 0.62863 0.0
H398 H 0.52017 0.39735 0.66525 0.0
H399 H 0.58253 0.51407 0.64046 0.0
H400 H 0.5524 0.53024 0.59543 0.0
H401 H 0.52619 0.42559 0.58284 0.0
C402 C 0.59557 0.38908 0.67912 0.0
C403 C 0.61632 0.40211 0.70058 0.0
C404 C 0.62196 0.43719 0.70181 0.0
C405 C 0.60752 0.45887 0.68173 0.0
C406 C 0.5875 0.44509 0.66058 0.0
C407 C 0.58159 0.41097 0.65921 0.0
C408 C 0.56017 0.40226 0.63365 0.0
C409 C 0.57511 0.38264 0.60896 0.0
C410 C 0.53072 0.38302 0.64736 0.0
C411 C 0.55512 0.43681 0.6206 0.0
C412 C 0.57086 0.46127 0.63648 0.0
C413 C 0.57001 0.49509 0.62796 0.0
C414 C 0.55283 0.50404 0.60238 0.0
C415 C 0.53693 0.47922 0.58557 0.0
C416 C 0.53801 0.44524 0.59515 0.0
H417 H 0.8622 0.61737 0.16787 0.0
H418 H 0.91967 0.5955 0.24482 0.0
H419 H 0.94936 0.5634 0.21039 0.0
H420 H 0.86232 0.53794 0.13315 0.0
H421 H 0.86323 0.55626 0.0936 0.0
H422 H 0.84569 0.57619 0.1247 0.0
H423 H 0.88024 0.63085 0.11 0.0
H424 H 0.89783 0.61111 0.07885 0.0
H425 H 0.9205 0.62993 0.10837 0.0
H426 H 0.97426 0.53579 0.16673 0.0
H427 H 0.99218 0.51456 0.11759 0.0
H428 H 0.91856 0.55482 0.06904 0.0
C429 C 0.88107 0.60592 0.17753 0.0
C430 C 0.88853 0.609 0.20916 0.0
C431 C 0.9132 0.59318 0.22085 0.0
C432 C 0.93031 0.57501 0.20141 0.0
C433 C 0.92245 0.57275 0.17032 0.0
C434 C 0.89836 0.58771 0.15848 0.0
C435 C 0.89499 0.58213 0.12406 0.0
C436 C 0.86476 0.56192 0.11857 0.0
C437 C 0.89862 0.61549 0.10415 0.0
C438 C 0.92118 0.562 0.11827 0.0
C439 C 0.93668 0.55677 0.14526 0.0
C440 C 0.96218 0.53958 0.14551 0.0
C441 C 0.9722 0.52762 0.11741 0.0
C442 C 0.95678 0.53285 0.08934 0.0
C443 C 0.93077 0.5501 0.09004 0.0
H444 H 0.32887 0.15015 0.13005 0.0
H445 H 0.2678 0.07143 0.1782 0.0
H446 H 0.29635 0.02919 0.15527 0.0
H447 H 0.34088 0.10762 0.059 0.0
H448 H 0.3801 0.12344 0.05472 0.0
H449 H 0.35368 0.14743 0.0733 0.0
H450 H 0.38618 0.14955 0.12236 0.0
H451 H 0.41266 0.12556 0.10396 0.0
H452 H 0.3955 0.11115 0.14166 0.0
H453 H 0.33344 0.99561 0.12993 0.0
H454 H 0.37578 0.97311 0.10298 0.0
H455 H 0.41262 0.0738 0.07146 0.0
C456 C 0.32143 0.12403 0.1357 0.0
C457 C 0.29601 0.11411 0.15583 0.0
C458 C 0.2869 0.07964 0.16244 0.0
C459 C 0.30307 0.05546 0.14967 0.0
C460 C 0.3282 0.06613 0.13022 0.0
C461 C 0.33726 0.09958 0.12313 0.0
C462 C 0.3656 0.10444 0.10237 0.0
C463 C 0.3597 0.12175 0.07045 0.0
C464 C 0.39151 0.12381 0.11857 0.0
C465 C 0.37133 0.06849 0.09929 0.0
C466 C 0.34946 0.04677 0.11545 0.0
C467 C 0.35056 0.01236 0.11696 0.0
C468 C 0.37473 0.99983 0.10163 0.0
C469 C 0.39744 0.02166 0.08499 0.0
C470 C 0.39548 0.05642 0.08371 0.0
H471 H 0.22809 0.93994 0.66648 0.0
H472 H 0.23232 0.85408 0.61122 0.0
H473 H 0.18209 0.86185 0.59142 0.0
H474 H 0.14701 0.92667 0.68589 0.0
H475 H 0.14272 0.97064 0.68249 0.0
H476 H 0.17791 0.95663 0.69443 0.0
H477 H 0.20605 0.99404 0.64913 0.0
H478 H 0.17099 0.00812 0.63706 0.0
H479 H 0.19442 0.98956 0.60957 0.0
H480 H 0.13348 0.88188 0.57391 0.0
H481 H 0.0895 0.91195 0.56111 0.0
H482 H 0.11656 0.98444 0.62804 0.0
C483 C 0.21838 0.92261 0.65039 0.0
C484 C 0.23417 0.89624 0.6406 0.0
C485 C 0.22052 0.87408 0.61958 0.0
C486 C 0.19202 0.8784 0.60804 0.0
C487 C 0.1773 0.90488 0.61785 0.0
C488 C 0.18991 0.9265 0.6387 0.0
C489 C 0.16993 0.9538 0.64446 0.0
C490 C 0.15873 0.9518 0.67886 0.0
C491 C 0.18633 0.98842 0.63445 0.0
C492 C 0.14443 0.94454 0.6231 0.0
C493 C 0.14906 0.91618 0.60804 0.0
C494 C 0.12941 0.90386 0.58587 0.0
C495 C 0.10452 0.92114 0.57871 0.0
C496 C 0.09942 0.95037 0.59375 0.0
C497 C 0.11952 0.96186 0.61651 0.0
H498 H 0.79774 0.40199 0.83261 0.0
H499 H 0.74816 0.34979 0.91298 0.0
H500 H 0.78499 0.37625 0.948 0.0
H501 H 0.87147 0.39326 0.86152 0.0
H502 H 0.88721 0.43374 0.84509 0.0
H503 H 0.85643 0.41136 0.82656 0.0
H504 H 0.82535 0.46183 0.83029 0.0
H505 H 0.85602 0.48437 0.84883 0.0
H506 H 0.81913 0.47821 0.86782 0.0
H507 H 0.8277 0.40841 0.97424 0.0
H508 H 0.87282 0.44356 0.98941 0.0
H509 H 0.89488 0.47272 0.89146 0.0
C510 C 0.79469 0.39582 0.85754 0.0
C511 C 0.76994 0.37381 0.86998 0.0
C512 C 0.76663 0.36696 0.90285 0.0
C513 C 0.78756 0.38167 0.92294 0.0
C514 C 0.81174 0.40309 0.90981 0.0
C515 C 0.81541 0.41007 0.87786 0.0
C516 C 0.84345 0.43366 0.86957 0.0
C517 C 0.86597 0.417 0.8495 0.0
C518 C 0.8355 0.46646 0.85317 0.0
C519 C 0.85497 0.43897 0.90187 0.0
C520 C 0.8364 0.42117 0.92481 0.0
C521 C 0.84243 0.42241 0.95646 0.0
C522 C 0.8681 0.44244 0.96485 0.0
C523 C 0.88741 0.46086 0.94164 0.0
C524 C 0.88066 0.45891 0.90979 0.0
H525 H 0.68997 0.59804 0.33922 0.0
H526 H 0.73556 0.63033 0.4218 0.0
H527 H 0.69216 0.60482 0.45498 0.0
H528 H 0.61541 0.61051 0.36457 0.0
H529 H 0.59793 0.5737 0.34811 0.0
H530 H 0.63244 0.5948 0.33063 0.0
H531 H 0.65782 0.53996 0.33663 0.0
H532 H 0.6233 0.51862 0.35385 0.0
H533 H 0.65775 0.51793 0.3746 0.0
H534 H 0.64336 0.57636 0.47929 0.0
H535 H 0.59426 0.54405 0.49307 0.0
H536 H 0.58139 0.52855 0.39486 0.0
C537 C 0.6911 0.59942 0.3643 0.0
C538 C 0.71627 0.61649 0.37776 0.0
C539 C 0.71642 0.618 0.41074 0.0
C540 C 0.6919 0.60343 0.42986 0.0
C541 C 0.66738 0.58718 0.41576 0.0
C542 C 0.66691 0.58482 0.38376 0.0
C543 C 0.63802 0.56548 0.37453 0.0
C544 C 0.61988 0.58744 0.3532 0.0
C545 C 0.64462 0.53361 0.35899 0.0
C546 C 0.6223 0.55737 0.40634 0.0
C547 C 0.63954 0.57028 0.4298 0.0
C548 C 0.6297 0.56607 0.46112 0.0
C549 C 0.60171 0.54776 0.4687 0.0
C550 C 0.58392 0.53372 0.44508 0.0
C551 C 0.59439 0.53893 0.41349 0.0
H552 H 0.16896 0.30724 0.11824 0.0
H553 H 0.10128 0.27225 0.19093 0.0
H554 H 0.06547 0.30708 0.16547 0.0
H555 H 0.15283 0.38974 0.11147 0.0
H556 H 0.159 0.39533 0.06962 0.0
H557 H 0.17827 0.36532 0.09188 0.0
H558 H 0.15669 0.31878 0.05742 0.0
H559 H 0.13738 0.34873 0.03494 0.0
H560 H 0.11657 0.31157 0.05322 0.0
H561 H 0.03876 0.3496 0.13482 0.0
H562 H 0.02303 0.39604 0.1008 0.0
H563 H 0.10765 0.4015 0.04731 0.0
C564 C 0.14637 0.30622 0.12839 0.0
C565 C 0.13793 0.28702 0.15659 0.0
C566 C 0.10836 0.28705 0.16952 0.0
C567 C 0.08779 0.30655 0.15511 0.0
C568 C 0.09703 0.32563 0.12762 0.0
C569 C 0.12555 0.32543 0.11426 0.0
C570 C 0.13048 0.3496 0.08565 0.0
C571 C 0.15669 0.37659 0.08994 0.0
C572 C 0.13558 0.33105 0.05605 0.0
C573 C 0.10056 0.36405 0.08547 0.0
C574 C 0.08147 0.34976 0.10972 0.0
C575 C 0.05332 0.36063 0.11545 0.0
C576 C 0.04461 0.38704 0.09607 0.0
C577 C 0.06401 0.40222 0.07129 0.0
C578 C 0.0921 0.39011 0.06575 0.0
H579 H 0.62814 0.18904 0.89224 0.0
H580 H 0.55142 0.22351 0.84487 0.0
H581 H 0.5173 0.18272 0.87813 0.0
H582 H 0.60193 0.10344 0.8965 0.0
H583 H 0.61694 0.09456 0.93435 0.0
H584 H 0.63475 0.12838 0.9087 0.0
H585 H 0.62892 0.16934 0.95212 0.0
H586 H 0.61105 0.13559 0.97791 0.0
H587 H 0.59218 0.17235 0.96958 0.0
H588 H 0.49186 0.1355 0.91506 0.0
H589 H 0.47772 0.08584 0.95152 0.0
H590 H 0.57176 0.08231 0.97277 0.0
C591 C 0.60417 0.18807 0.88876 0.0
C592 C 0.59249 0.20947 0.86588 0.0
C593 C 0.5609 0.20766 0.8625 0.0
C594 C 0.54135 0.18448 0.8812 0.0
C595 C 0.55374 0.16342 0.90322 0.0
C596 C 0.58445 0.1651 0.90705 0.0
C597 C 0.59236 0.13886 0.93129 0.0
C598 C 0.61269 0.11489 0.91683 0.0
C599 C 0.60699 0.15501 0.95939 0.0
C600 C 0.56137 0.12164 0.94012 0.0
C601 C 0.53928 0.13628 0.92399 0.0
C602 C 0.50897 0.12398 0.92793 0.0
C603 C 0.50115 0.0958 0.94869 0.0
C604 C 0.52362 0.08016 0.96495 0.0
C605 C 0.55401 0.09362 0.96071 0.0
H606 H 0.85067 0.81258 0.38398 0.0
H607 H 0.93405 0.77382 0.35716 0.0
H608 H 0.9623 0.81492 0.3886 0.0
H609 H 0.8794 0.89784 0.37931 0.0
H610 H 0.85709 0.90801 0.4124 0.0
H611 H 0.84359 0.87421 0.38943 0.0
H612 H 0.83818 0.83395 0.43939 0.0
H613 H 0.85176 0.86765 0.46251 0.0
H614 H 0.87027 0.83002 0.46335 0.0
H615 H 0.98166 0.86312 0.42054 0.0
H616 H 0.9902 0.91347 0.45038 0.0
H617 H 0.89383 0.91974 0.45612 0.0
C618 C 0.87489 0.81269 0.38466 0.0
C619 C 0.89015 0.78999 0.36801 0.0
C620 C 0.92182 0.79072 0.36995 0.0
C621 C 0.93807 0.81406 0.38766 0.0
C622 C 0.92229 0.83632 0.4035 0.0
C623 C 0.89137 0.83566 0.40224 0.0
C624 C 0.87975 0.86277 0.42059 0.0
C625 C 0.86404 0.88714 0.39915 0.0
C626 C 0.85875 0.84768 0.44809 0.0
C627 C 0.90898 0.8792 0.43199 0.0
C628 C 0.93331 0.86358 0.42203 0.0
C629 C 0.96273 0.87532 0.4287 0.0
C630 C 0.96736 0.90394 0.44567 0.0
C631 C 0.9427 0.92048 0.4558 0.0
C632 C 0.91318 0.90753 0.44909 0.0
H633 H 0.43022 0.74489 0.62664 0.0
H634 H 0.34984 0.75898 0.57504 0.0
H635 H 0.35696 0.70919 0.54654 0.0
H636 H 0.47325 0.71746 0.56313 0.0
H637 H 0.49063 0.6868 0.58682 0.0
H638 H 0.47913 0.72326 0.60393 0.0
H639 H 0.44664 0.68574 0.64612 0.0
H640 H 0.45817 0.64915 0.62924 0.0
H641 H 0.41871 0.65408 0.63419 0.0
H642 H 0.37269 0.65884 0.52311 0.0
H643 H 0.39568 0.60977 0.50648 0.0
H644 H 0.46618 0.62708 0.57295 0.0
C645 C 0.41399 0.73726 0.60956 0.0
C646 C 0.38957 0.75602 0.60292 0.0
C647 C 0.36897 0.74538 0.58019 0.0
C648 C 0.37273 0.71701 0.56397 0.0
C649 C 0.39719 0.6994 0.57073 0.0
C650 C 0.41745 0.70894 0.59302 0.0
C651 C 0.44196 0.68556 0.5954 0.0
C652 C 0.47308 0.7044 0.5868 0.0
C653 C 0.44132 0.66757 0.62819 0.0
C654 C 0.43229 0.66153 0.5709 0.0
C655 C 0.40637 0.67006 0.55706 0.0
C656 C 0.39296 0.65184 0.5338 0.0
C657 C 0.40626 0.62397 0.5245 0.0
C658 C 0.43278 0.61449 0.53835 0.0
C659 C 0.44598 0.6337 0.56182 0.0
H660 H 0.93309 0.91637 0.72517 0.0
H661 H 0.87411 0.99431 0.73537 0.0
H662 H 0.8859 0.01485 0.68043 0.0
H663 H 0.99039 0.96648 0.67764 0.0
H664 H 0.9984 0.93302 0.65388 0.0
H665 H 0.98457 0.92385 0.69372 0.0
H666 H 0.94038 0.88436 0.67479 0.0
H667 H 0.95403 0.89349 0.63487 0.0
H668 H 0.91594 0.90003 0.64586 0.0
H669 H 0.90472 0.02745 0.62468 0.0
H670 H 0.92983 0.03176 0.57228 0.0
H671 H 0.97732 0.94628 0.599 0.0
C672 C 0.92281 0.93792 0.71597 0.0
C673 C 0.90259 0.95366 0.73461 0.0
C674 C 0.88932 0.98151 0.72144 0.0
C675 C 0.89599 0.99348 0.69031 0.0
C676 C 0.91599 0.97736 0.67264 0.0
C677 C 0.92927 0.95024 0.685 0.0
C678 C 0.95031 0.93769 0.66116 0.0
C679 C 0.98284 0.94044 0.67227 0.0
C680 C 0.93951 0.90176 0.65373 0.0
C681 C 0.94695 0.96214 0.63353 0.0
C682 C 0.92697 0.98473 0.64059 0.0
C683 C 0.92038 0.00987 0.61885 0.0
C684 C 0.93476 0.01209 0.58915 0.0
C685 C 0.95555 0.98936 0.58149 0.0
C686 C 0.96151 0.964 0.60404 0.0
H687 H 0.6017 0.16447 0.19818 0.0
H688 H 0.66248 0.08768 0.20982 0.0
H689 H 0.63393 0.05454 0.17207 0.0
H690 H 0.53401 0.10953 0.19036 0.0
H691 H 0.51903 0.1368 0.16117 0.0
H692 H 0.54379 0.154 0.18977 0.0
H693 H 0.5793 0.18365 0.1453 0.0
H694 H 0.55468 0.1665 0.11657 0.0
H695 H 0.59387 0.15943 0.11554 0.0
H696 H 0.59924 0.0302 0.13208 0.0
H697 H 0.56059 0.01621 0.09367 0.0
H698 H 0.52327 0.10953 0.10744 0.0
C699 C 0.60915 0.14076 0.19272 0.0
C700 C 0.63436 0.1287 0.20712 0.0
C701 C 0.643 0.09729 0.19954 0.0
C702 C 0.62705 0.07836 0.17793 0.0
C703 C 0.60248 0.09114 0.16404 0.0
C704 C 0.59354 0.12159 0.17118 0.0
C705 C 0.5665 0.12981 0.15281 0.0
C706 C 0.53922 0.13269 0.17485 0.0
C707 C 0.57405 0.16174 0.13128 0.0
C708 C 0.56169 0.09928 0.13412 0.0
C709 C 0.58265 0.07724 0.14094 0.0
C710 C 0.5827 0.04726 0.12657 0.0
C711 C 0.56066 0.03955 0.10476 0.0
C712 C 0.53888 0.06175 0.09748 0.0
C713 C 0.53959 0.09202 0.1124 0.0
H714 H 0.4252 0.60359 0.30364 0.0
H715 H 0.37361 0.51041 0.28524 0.0
H716 H 0.38461 0.48663 0.33764 0.0
H717 H 0.48325 0.56804 0.3422 0.0
H718 H 0.48847 0.59868 0.37084 0.0
H719 H 0.47392 0.60993 0.33335 0.0
H720 H 0.427 0.62961 0.36065 0.0
H721 H 0.4415 0.61859 0.39829 0.0
H722 H 0.40445 0.60136 0.38843 0.0
H723 H 0.4046 0.47127 0.38924 0.0
H724 H 0.43184 0.46512 0.43796 0.0
H725 H 0.47059 0.56832 0.42407 0.0
C726 C 0.41564 0.57847 0.31101 0.0
C727 C 0.39849 0.5588 0.29048 0.0
C728 C 0.38692 0.52578 0.30059 0.0
C729 C 0.39291 0.51215 0.33033 0.0
C730 C 0.41044 0.53189 0.34974 0.0
C731 C 0.42154 0.5644 0.34066 0.0
C732 C 0.44141 0.57938 0.36536 0.0
C733 C 0.47367 0.5896 0.35214 0.0
C734 C 0.42777 0.60899 0.37899 0.0
C735 C 0.44028 0.54993 0.38934 0.0
C736 C 0.42208 0.52294 0.37988 0.0
C737 C 0.41863 0.49232 0.39711 0.0
C738 C 0.43434 0.48906 0.4247 0.0
C739 C 0.45331 0.51625 0.43487 0.0
C740 C 0.45599 0.54721 0.41708 0.0
H741 H 0.13109 0.39879 0.86256 0.0
H742 H 0.07237 0.41397 0.78521 0.0
H743 H 0.04042 0.44457 0.81879 0.0
H744 H 0.07328 0.38376 0.92227 0.0
H745 H 0.09477 0.40511 0.95124 0.0
H746 H 0.1138 0.38598 0.92063 0.0
H747 H 0.14508 0.44246 0.90456 0.0
H748 H 0.1261 0.46176 0.93513 0.0
H749 H 0.12596 0.47883 0.89522 0.0
H750 H 0.01328 0.47093 0.86188 0.0
H751 H 0.99374 0.4918 0.9105 0.0
H752 H 0.07047 0.45958 0.95958 0.0
C753 C 0.1115 0.4085 0.85264 0.0
C754 C 0.10429 0.40394 0.82116 0.0
C755 C 0.07862 0.41747 0.80908 0.0
C756 C 0.06024 0.43475 0.82804 0.0
C757 C 0.06787 0.43849 0.85902 0.0
C758 C 0.09297 0.42587 0.87119 0.0
C759 C 0.09591 0.4327 0.90539 0.0
C760 C 0.09433 0.39994 0.9261 0.0
C761 C 0.12499 0.45528 0.91035 0.0
C762 C 0.06831 0.45076 0.9107 0.0
C763 C 0.05245 0.45393 0.88367 0.0
C764 C 0.02567 0.46883 0.88311 0.0
C765 C 0.01475 0.48066 0.9109 0.0
C766 C 0.03059 0.47764 0.93897 0.0
C767 C 0.05786 0.46262 0.93858 0.0
H768 H 0.74099 0.92061 0.94374 0.0
H769 H 0.73056 0.90649 0.84501 0.0
H770 H 0.67766 0.91884 0.84974 0.0
H771 H 0.66533 0.88429 0.96967 0.0
H772 H 0.66182 0.91384 0.99898 0.0
H773 H 0.69836 0.90219 0.98809 0.0
H774 H 0.71758 0.96444 0.97505 0.0
H775 H 0.68109 0.97627 0.98576 0.0
H776 H 0.6978 0.98903 0.9475 0.0
H777 H 0.62724 0.93663 0.86435 0.0
H778 H 0.58167 0.95549 0.88851 0.0
H779 H 0.62459 0.95685 0.97805 0.0
C780 C 0.72748 0.91994 0.92318 0.0
C781 C 0.73979 0.91252 0.89402 0.0
C782 C 0.72142 0.91168 0.86766 0.0
C783 C 0.69143 0.91883 0.87008 0.0
C784 C 0.68011 0.92647 0.89908 0.0
C785 C 0.69746 0.92675 0.92524 0.0
C786 C 0.67998 0.93624 0.95354 0.0
C787 C 0.67615 0.90742 0.97908 0.0
C788 C 0.69501 0.96841 0.96619 0.0
C789 C 0.65028 0.94186 0.93907 0.0
C790 C 0.65083 0.93611 0.90764 0.0
C791 C 0.62641 0.94088 0.88902 0.0
C792 C 0.60069 0.95172 0.90293 0.0
C793 C 0.59954 0.95749 0.93518 0.0
C794 C 0.62468 0.95233 0.95341 0.0
H795 H 0.81142 0.14483 0.38937 0.0
H796 H 0.80919 0.10018 0.29989 0.0
H797 H 0.8495 0.06623 0.31608 0.0
H798 H 0.89065 0.14982 0.39742 0.0
H799 H 0.8889 0.13916 0.43897 0.0
H800 H 0.85901 0.15937 0.42106 0.0
H801 H 0.82002 0.11134 0.44383 0.0
H802 H 0.84978 0.09108 0.46201 0.0
H803 H 0.82516 0.06892 0.43607 0.0
H804 H 0.89137 0.03911 0.34045 0.0
H805 H 0.93104 0.01828 0.3727 0.0
H806 H 0.90578 0.0787 0.44747 0.0
C807 C 0.81911 0.12755 0.37338 0.0
C808 C 0.80728 0.12545 0.3432 0.0
C809 C 0.81824 0.10274 0.32287 0.0
C810 C 0.84102 0.08317 0.33192 0.0
C811 C 0.85256 0.08631 0.3615 0.0
C812 C 0.84188 0.10767 0.38208 0.0
C813 C 0.85863 0.10646 0.41237 0.0
C814 C 0.87528 0.14074 0.41776 0.0
C815 C 0.83711 0.09368 0.44022 0.0
C816 C 0.88054 0.08134 0.40539 0.0
C817 C 0.8766 0.07011 0.37588 0.0
C818 C 0.89457 0.04752 0.3637 0.0
C819 C 0.91714 0.03593 0.38219 0.0
C820 C 0.92154 0.04679 0.41266 0.0
C821 C 0.90289 0.06979 0.42436 0.0
H822 H 0.26478 0.56986 0.07433 0.0
H823 H 0.235 0.6113 0.1595 0.0
H824 H 0.18239 0.60247 0.14337 0.0
H825 H 0.20958 0.60228 0.02316 0.0
H826 H 0.20476 0.56506 0.00204 0.0
H827 H 0.2403 0.57705 0.01906 0.0
H828 H 0.23769 0.51925 0.04966 0.0
H829 H 0.20227 0.50705 0.03262 0.0
H830 H 0.20508 0.50492 0.07456 0.0
H831 H 0.13286 0.58604 0.11957 0.0
H832 H 0.08995 0.56196 0.0906 0.0
H833 H 0.15203 0.5302 0.02145 0.0
C834 C 0.24725 0.57707 0.08966 0.0
C835 C 0.25413 0.59141 0.11818 0.0
C836 C 0.23043 0.6008 0.13732 0.0
C837 C 0.20044 0.59577 0.12841 0.0
C838 C 0.19449 0.58136 0.10028 0.0
C839 C 0.21723 0.57211 0.08121 0.0
C840 C 0.20472 0.55564 0.05292 0.0
C841 C 0.21548 0.57625 0.02249 0.0
C842 C 0.21292 0.51958 0.05243 0.0
C843 C 0.17133 0.55655 0.05932 0.0
C844 C 0.16593 0.57174 0.08662 0.0
C845 C 0.13682 0.57433 0.09804 0.0
C846 C 0.11259 0.56055 0.0814 0.0
C847 C 0.1176 0.54427 0.05368 0.0
C848 C 0.14742 0.54279 0.04234 0.0
H849 H 0.30505 0.41501 0.68727 0.0
H850 H 0.25388 0.3864 0.60696 0.0
H851 H 0.29622 0.41084 0.57175 0.0
H852 H 0.3389 0.49464 0.65163 0.0
H853 H 0.37422 0.49162 0.67029 0.0
H854 H 0.33982 0.47177 0.68908 0.0
H855 H 0.36271 0.41529 0.69252 0.0
H856 H 0.39707 0.4349 0.67346 0.0
H857 H 0.37702 0.39931 0.65736 0.0
H858 H 0.34476 0.43717 0.54521 0.0
H859 H 0.39454 0.46675 0.52925 0.0
H860 H 0.41325 0.47996 0.62675 0.0
C861 C 0.30248 0.4143 0.66228 0.0
C862 C 0.27606 0.39853 0.64999 0.0
C863 C 0.274 0.39778 0.61706 0.0
C864 C 0.2979 0.41174 0.59682 0.0
C865 C 0.32372 0.42661 0.60977 0.0
C866 C 0.32605 0.42828 0.64172 0.0
C867 C 0.35619 0.44589 0.64962 0.0
C868 C 0.35202 0.47788 0.66612 0.0
C869 C 0.37431 0.42244 0.66941 0.0
C870 C 0.37046 0.4538 0.61712 0.0
C871 C 0.35144 0.4423 0.59447 0.0
C872 C 0.3598 0.44641 0.56275 0.0
C873 C 0.38818 0.46313 0.55392 0.0
C874 C 0.40782 0.47573 0.57672 0.0
C875 C 0.39878 0.47071 0.60873 0.0
H876 H 0.89103 0.74536 0.92875 0.0
H877 H 0.93484 0.7653 0.83671 0.0
H878 H 0.95506 0.71063 0.84175 0.0
H879 H 0.9503 0.70585 0.96456 0.0
H880 H 0.92548 0.67547 0.98814 0.0
H881 H 0.9134 0.71554 0.97671 0.0
H882 H 0.86633 0.6865 0.95192 0.0
H883 H 0.87824 0.64634 0.96336 0.0
H884 H 0.87104 0.65685 0.92295 0.0
H885 H 0.9722 0.65479 0.85775 0.0
H886 H 0.98368 0.60101 0.8829 0.0
H887 H 0.92876 0.61789 0.96452 0.0
C888 C 0.9049 0.73826 0.90966 0.0
C889 C 0.91131 0.75958 0.8823 0.0
C890 C 0.92929 0.74918 0.85771 0.0
C891 C 0.94102 0.71827 0.86043 0.0
C892 C 0.93449 0.69802 0.88783 0.0
C893 C 0.91674 0.7075 0.91195 0.0
C894 C 0.91337 0.6813 0.93908 0.0
C895 C 0.92643 0.69539 0.96887 0.0
C896 C 0.88028 0.6669 0.94463 0.0
C897 C 0.93227 0.65574 0.92657 0.0
C898 C 0.94425 0.66583 0.89698 0.0
C899 C 0.96285 0.64655 0.88087 0.0
C900 C 0.96929 0.61608 0.89539 0.0
C901 C 0.95711 0.60521 0.92566 0.0
C902 C 0.93836 0.62542 0.94133 0.0
H903 H 0.40214 0.77519 0.10949 0.0
H904 H 0.48698 0.74111 0.13786 0.0
H905 H 0.51305 0.79648 0.12158 0.0
H906 H 0.43184 0.82196 0.0404 0.0
H907 H 0.40792 0.85497 0.04378 0.0
H908 H 0.39534 0.81348 0.06002 0.0
H909 H 0.38656 0.8365 0.11424 0.0
H910 H 0.39918 0.87809 0.09815 0.0
H911 H 0.41704 0.86068 0.13167 0.0
H912 H 0.53049 0.85409 0.09971 0.0
H913 H 0.53832 0.91044 0.07327 0.0
H914 H 0.44247 0.90704 0.0577 0.0
C915 C 0.42619 0.77934 0.11234 0.0
C916 C 0.44242 0.75376 0.12524 0.0
C917 C 0.47388 0.76041 0.12871 0.0
C918 C 0.48896 0.79176 0.11934 0.0
C919 C 0.47232 0.81623 0.10651 0.0
C920 C 0.44165 0.81046 0.10298 0.0
C921 C 0.42934 0.84065 0.08725 0.0
C922 C 0.41529 0.83225 0.05601 0.0
C923 C 0.40669 0.85482 0.10914 0.0
C924 C 0.458 0.8641 0.0821 0.0
C925 C 0.48247 0.84955 0.09358 0.0
C926 C 0.5115 0.86586 0.09079 0.0
C927 C 0.51569 0.89786 0.07568 0.0
C928 C 0.491 0.91321 0.06345 0.0
C929 C 0.46176 0.89611 0.06699 0.0
H930 H 0.15104 0.20194 0.64806 0.0
H931 H 0.06539 0.22741 0.68463 0.0
H932 H 0.0388 0.18409 0.65429 0.0
H933 H 0.12661 0.18511 0.57025 0.0
H934 H 0.14926 0.15095 0.56702 0.0
H935 H 0.16126 0.18475 0.59071 0.0
H936 H 0.16426 0.14261 0.6385 0.0
H937 H 0.15229 0.10871 0.61497 0.0
H938 H 0.13163 0.11418 0.65071 0.0
H939 H 0.02184 0.13547 0.62205 0.0
H940 H 0.01592 0.08714 0.58931 0.0
H941 H 0.11285 0.09462 0.57349 0.0
C942 C 0.12668 0.19839 0.64976 0.0
C943 C 0.11029 0.21799 0.66883 0.0
C944 C 0.07841 0.21288 0.66999 0.0
C945 C 0.06313 0.18825 0.65294 0.0
C946 C 0.08004 0.16913 0.63464 0.0
C947 C 0.11113 0.17411 0.63281 0.0
C948 C 0.12412 0.15006 0.61178 0.0
C949 C 0.14132 0.16884 0.58325 0.0
C950 C 0.14426 0.12756 0.63009 0.0
C951 C 0.09553 0.13042 0.60234 0.0
C952 C 0.07032 0.14174 0.61574 0.0
C953 C 0.04143 0.1266 0.61123 0.0
C954 C 0.0383 0.09914 0.59264 0.0
C955 C 0.06389 0.08721 0.57867 0.0
C956 C 0.0928 0.10332 0.58352 0.0
H957 H 0.66682 0.30813 0.40678 0.0
H958 H 0.59134 0.25539 0.36301 0.0
H959 H 0.55647 0.28784 0.39082 0.0
H960 H 0.62848 0.31692 0.48206 0.0
H961 H 0.64686 0.35826 0.4857 0.0
H962 H 0.66564 0.32859 0.46475 0.0
H963 H 0.67253 0.37045 0.41598 0.0
H964 H 0.65375 0.40018 0.43674 0.0
H965 H 0.64001 0.38725 0.39985 0.0
H966 H 0.53008 0.32916 0.42008 0.0
H967 H 0.51426 0.37568 0.44906 0.0
H968 H 0.607 0.40219 0.47294 0.0
C969 C 0.64295 0.3032 0.40314 0.0
C970 C 0.63191 0.27895 0.38276 0.0
C971 C 0.60042 0.27327 0.37892 0.0
C972 C 0.5804 0.29176 0.39448 0.0
C973 C 0.59212 0.31584 0.41391 0.0
C974 C 0.62266 0.3215 0.41839 0.0
C975 C 0.62961 0.34997 0.43927 0.0
C976 C 0.64346 0.33769 0.46976 0.0
C977 C 0.65018 0.37865 0.42191 0.0
C978 C 0.59827 0.35985 0.44534 0.0
C979 C 0.57693 0.33972 0.43068 0.0
C980 C 0.54656 0.34487 0.43191 0.0
C981 C 0.5378 0.37141 0.44841 0.0
C982 C 0.55933 0.39256 0.46341 0.0
C983 C 0.58991 0.38636 0.462 0.0
loop_
_geom_bond_atom_site_label_1
_geom_bond_atom_site_label_2
_geom_bond_distance
_geom_bond_site_symmetry_2
_ccdc_geom_bond_type
P0 O11 1.490 . S
P0 C14 1.812 . S
P0 C20 1.803 . S
P0 C26 1.819 . S
H1 C15 0.941 . S
H2 C16 0.939 . S
H3 C18 0.940 . S
H4 C19 0.940 . S
H5 C21 0.939 . S
H6 C22 0.942 . S
H7 C24 0.940 . S
H8 C25 0.939 . S
H9 C27 0.941 . S
H10 C31 0.939 . S
O11 P0 1.490 . S
H12 C28 0.939 . S
H13 C30 0.940 . S
C14 P0 1.812 . S
C14 C15 1.389 . S
C14 C19 1.391 . S
C15 H1 0.941 . S
C15 C14 1.389 . S
C15 C16 1.397 . S
C16 H2 0.939 . S
C16 C15 1.397 . S
C16 C17 1.378 . S
C17 C16 1.378 . S
C17 C18 1.378 . S
C18 H3 0.940 . S
C18 C17 1.378 . S
C18 C19 1.396 . S
C19 H4 0.940 . S
C19 C14 1.391 . S
C19 C18 1.396 . S
C20 P0 1.803 . S
C20 C21 1.378 . S
C20 C25 1.400 . S
C21 H5 0.939 . S
C21 C20 1.378 . S
C21 C22 1.361 . S
C22 H6 0.942 . S
C22 C21 1.361 . S
C22 C23 1.369 . S
C23 C22 1.369 . S
C23 C24 1.404 . S
C24 H7 0.940 . S
C24 C23 1.404 . S
C24 C25 1.389 . S
C25 H8 0.939 . S
C25 C20 1.400 . S
C25 C24 1.389 . S
C26 P0 1.819 . S
C26 C27 1.391 . S
C26 C31 1.391 . S
C27 H9 0.941 . S
C27 C26 1.391 . S
C27 C28 1.396 . S
C28 H12 0.939 . S
C28 C27 1.396 . S
C28 C29 1.397 . S
C29 C28 1.397 . S
C29 C30 1.385 . S
C30 H13 0.940 . S
C30 C29 1.385 . S
C30 C31 1.388 . S
C31 H10 0.939 . S
C31 C26 1.391 . S
C31 C30 1.388 . S
P32 O43 1.490 . S
P32 C46 1.812 . S
P32 C52 1.803 . S
P32 C58 1.819 . S
H33 C47 0.941 . S
H34 C48 0.939 . S
H35 C50 0.940 . S
H36 C51 0.940 . S
H37 C53 0.939 . S
H38 C54 0.942 . S
H39 C56 0.940 . S
H40 C57 0.939 . S
H41 C59 0.941 . S
H42 C63 0.939 . S
O43 P32 1.490 . S
H44 C60 0.939 . S
H45 C62 0.940 . S
C46 P32 1.812 . S
C46 C47 1.389 . S
C46 C51 1.391 . S
C47 H33 0.941 . S
C47 C46 1.389 . S
C47 C48 1.397 . S
C48 H34 0.939 . S
C48 C47 1.397 . S
C48 C49 1.378 . S
C49 C48 1.378 . S
C49 C50 1.378 . S
C50 H35 0.940 . S
C50 C49 1.378 . S
C50 C51 1.396 . S
C51 H36 0.940 . S
C51 C46 1.391 . S
C51 C50 1.396 . S
C52 P32 1.803 . S
C52 C53 1.378 . S
C52 C57 1.400 . S
C53 H37 0.939 . S
C53 C52 1.378 . S
C53 C54 1.361 . S
C54 H38 0.942 . S
C54 C53 1.361 . S
C54 C55 1.369 . S
C55 C54 1.369 . S
C55 C56 1.404 . S
C56 H39 0.940 . S
C56 C55 1.404 . S
C56 C57 1.389 . S
C57 H40 0.939 . S
C57 C52 1.400 . S
C57 C56 1.389 . S
C58 P32 1.819 . S
C58 C59 1.391 . S
C58 C63 1.391 . S
C59 H41 0.941 . S
C59 C58 1.391 . S
C59 C60 1.396 . S
C60 H44 0.939 . S
C60 C59 1.396 . S
C60 C61 1.397 . S
C61 C60 1.397 . S
C61 C62 1.385 . S
C62 H45 0.940 . S
C62 C61 1.385 . S
C62 C63 1.388 . S
C63 H42 0.939 . S
C63 C58 1.391 . S
C63 C62 1.388 . S
P64 O75 1.490 . S
P64 C78 1.812 . S
P64 C84 1.803 . S
P64 C90 1.819 . S
H65 C79 0.941 . S
H66 C80 0.939 . S
H67 C82 0.940 . S
H68 C83 0.940 . S
H69 C85 0.939 . S
H70 C86 0.942 . S
H71 C88 0.940 . S
H72 C89 0.939 . S
H73 C91 0.941 . S
H74 C95 0.939 . S
O75 P64 1.490 . S
H76 C92 0.939 . S
H77 C94 0.940 . S
C78 P64 1.812 . S
C78 C79 1.389 . S
C78 C83 1.391 . S
C79 H65 0.941 . S
C79 C78 1.389 . S
C79 C80 1.397 . S
C80 H66 0.939 . S
C80 C79 1.397 . S
C80 C81 1.378 . S
C81 C80 1.378 . S
C81 C82 1.378 . S
C82 H67 0.940 . S
C82 C81 1.378 . S
C82 C83 1.396 . S
C83 H68 0.940 . S
C83 C78 1.391 . S
C83 C82 1.396 . S
C84 P64 1.803 . S
C84 C85 1.378 . S
C84 C89 1.400 . S
C85 H69 0.939 . S
C85 C84 1.378 . S
C85 C86 1.361 . S
C86 H70 0.942 . S
C86 C85 1.361 . S
C86 C87 1.369 . S
C87 C86 1.369 . S
C87 C88 1.404 . S
C88 H71 0.940 . S
C88 C87 1.404 . S
C88 C89 1.389 . S
C89 H72 0.939 . S
C89 C84 1.400 . S
C89 C88 1.389 . S
C90 P64 1.819 . S
C90 C91 1.391 . S
C90 C95 1.391 . S
C91 H73 0.941 . S
C91 C90 1.391 . S
C91 C92 1.396 . S
C92 H76 0.939 . S
C92 C91 1.396 . S
C92 C93 1.397 . S
C93 C92 1.397 . S
C93 C94 1.385 . S
C94 H77 0.940 . S
C94 C93 1.385 . S
C94 C95 1.388 . S
C95 H74 0.939 . S
C95 C90 1.391 . S
C95 C94 1.388 . S
P96 O107 1.490 . S
P96 C110 1.812 . S
P96 C116 1.803 . S
P96 C122 1.819 . S
H97 C111 0.941 . S
H98 C112 0.939 . S
H99 C114 0.940 . S
H100 C115 0.940 . S
H101 C117 0.939 . S
H102 C118 0.942 . S
H103 C120 0.940 . S
H104 C121 0.939 . S
H105 C123 0.941 . S
H106 C127 0.939 . S
O107 P96 1.490 . S
H108 C124 0.939 . S
H109 C126 0.940 . S
C110 P96 1.812 . S
C110 C111 1.389 . S
C110 C115 1.391 . S
C111 H97 0.941 . S
C111 C110 1.389 . S
C111 C112 1.397 . S
C112 H98 0.939 . S
C112 C111 1.397 . S
C112 C113 1.378 . S
C113 C112 1.378 . S
C113 C114 1.378 . S
C114 H99 0.940 . S
C114 C113 1.378 . S
C114 C115 1.396 . S
C115 H100 0.940 . S
C115 C110 1.391 . S
C115 C114 1.396 . S
C116 P96 1.803 . S
C116 C117 1.378 . S
C116 C121 1.400 . S
C117 H101 0.939 . S
C117 C116 1.378 . S
C117 C118 1.361 . S
C118 H102 0.942 . S
C118 C117 1.361 . S
C118 C119 1.369 . S
C119 C118 1.369 . S
C119 C120 1.404 . S
C120 H103 0.940 . S
C120 C119 1.404 . S
C120 C121 1.389 . S
C121 H104 0.939 . S
C121 C116 1.400 . S
C121 C120 1.389 . S
C122 P96 1.819 . S
C122 C123 1.391 . S
C122 C127 1.391 . S
C123 H105 0.941 . S
C123 C122 1.391 . S
C123 C124 1.396 . S
C124 H108 0.939 . S
C124 C123 1.396 . S
C124 C125 1.397 . S
C125 C124 1.397 . S
C125 C126 1.385 . S
C126 H109 0.940 . S
C126 C125 1.385 . S
C126 C127 1.388 . S
C127 H106 0.939 . S
C127 C122 1.391 . S
C127 C126 1.388 . S
P128 O139 1.490 . S
P128 C142 1.812 . S
P128 C148 1.803 . S
P128 C154 1.819 . S
H129 C143 0.941 . S
H130 C144 0.939 . S
H131 C146 0.940 . S
H132 C147 0.940 . S
H133 C149 0.939 . S
H134 C150 0.942 . S
H135 C152 0.940 . S
H136 C153 0.939 . S
H137 C155 0.941 . S
H138 C159 0.939 . S
O139 P128 1.490 . S
H140 C156 0.939 . S
H141 C158 0.940 . S
C142 P128 1.812 . S
C142 C143 1.389 . S
C142 C147 1.391 . S
C143 H129 0.941 . S
C143 C142 1.389 . S
C143 C144 1.397 . S
C144 H130 0.939 . S
C144 C143 1.397 . S
C144 C145 1.378 . S
C145 C144 1.378 . S
C145 C146 1.378 . S
C146 H131 0.940 . S
C146 C145 1.378 . S
C146 C147 1.396 . S
C147 H132 0.940 . S
C147 C142 1.391 . S
C147 C146 1.396 . S
C148 P128 1.803 . S
C148 C149 1.378 . S
C148 C153 1.400 . S
C149 H133 0.939 . S
C149 C148 1.378 . S
C149 C150 1.361 . S
C150 H134 0.942 . S
C150 C149 1.361 . S
C150 C151 1.369 . S
C151 C150 1.369 . S
C151 C152 1.404 . S
C152 H135 0.940 . S
C152 C151 1.404 . S
C152 C153 1.389 . S
C153 H136 0.939 . S
C153 C148 1.400 . S
C153 C152 1.389 . S
C154 P128 1.819 . S
C154 C155 1.391 . S
C154 C159 1.391 . S
C155 H137 0.941 . S
C155 C154 1.391 . S
C155 C156 1.396 . S
C156 H140 0.939 . S
C156 C155 1.396 . S
C156 C157 1.397 . S
C157 C156 1.397 . S
C157 C158 1.385 . S
C158 H141 0.940 . S
C158 C157 1.385 . S
C158 C159 1.388 . S
C159 H138 0.939 . S
C159 C154 1.391 . S
C159 C158 1.388 . S
P160 O171 1.490 . S
P160 C174 1.812 . S
P160 C180 1.803 . S
P160 C186 1.819 . S
H161 C175 0.941 . S
H162 C176 0.939 . S
H163 C178 0.940 . S
H164 C179 0.940 . S
H165 C181 0.939 . S
H166 C182 0.942 . S
H167 C184 0.940 . S
H168 C185 0.939 . S
H169 C187 0.941 . S
H170 C191 0.939 . S
O171 P160 1.490 . S
H172 C188 0.939 . S
H173 C190 0.940 . S
C174 P160 1.812 . S
C174 C175 1.389 . S
C174 C179 1.391 . S
C175 H161 0.941 . S
C175 C174 1.389 . S
C175 C176 1.397 . S
C176 H162 0.939 . S
C176 C175 1.397 . S
C176 C177 1.378 . S
C177 C176 1.378 . S
C177 C178 1.378 . S
C178 H163 0.940 . S
C178 C177 1.378 . S
C178 C179 1.396 . S
C179 H164 0.940 . S
C179 C174 1.391 . S
C179 C178 1.396 . S
C180 P160 1.803 . S
C180 C181 1.378 . S
C180 C185 1.400 . S
C181 H165 0.939 . S
C181 C180 1.378 . S
C181 C182 1.361 . S
C182 H166 0.942 . S
C182 C181 1.361 . S
C182 C183 1.369 . S
C183 C182 1.369 . S
C183 C184 1.404 . S
C184 H167 0.940 . S
C184 C183 1.404 . S
C184 C185 1.389 . S
C185 H168 0.939 . S
C185 C180 1.400 . S
C185 C184 1.389 . S
C186 P160 1.819 . S
C186 C187 1.391 . S
C186 C191 1.391 . S
C187 H169 0.941 . S
C187 C186 1.391 . S
C187 C188 1.396 . S
C188 H172 0.939 . S
C188 C187 1.396 . S
C188 C189 1.397 . S
C189 C188 1.397 . S
C189 C190 1.385 . S
C190 H173 0.940 . S
C190 C189 1.385 . S
C190 C191 1.388 . S
C191 H170 0.939 . S
C191 C186 1.391 . S
C191 C190 1.388 . S
P192 O203 1.490 . S
P192 C206 1.812 . S
P192 C212 1.803 . S
P192 C218 1.819 . S
H193 C207 0.941 . S
H194 C208 0.939 . S
H195 C210 0.940 . S
H196 C211 0.940 . S
H197 C213 0.939 . S
H198 C214 0.942 . S
H199 C216 0.940 . S
H200 C217 0.939 . S
H201 C219 0.941 . S
H202 C223 0.939 . S
O203 P192 1.490 . S
H204 C220 0.939 . S
H205 C222 0.940 . S
C206 P192 1.812 . S
C206 C207 1.389 . S
C206 C211 1.391 . S
C207 H193 0.941 . S
C207 C206 1.389 . S
C207 C208 1.397 . S
C208 H194 0.939 . S
C208 C207 1.397 . S
C208 C209 1.378 . S
C209 C208 1.378 . S
C209 C210 1.378 . S
C210 H195 0.940 . S
C210 C209 1.378 . S
C210 C211 1.396 . S
C211 H196 0.940 . S
C211 C206 1.391 . S
C211 C210 1.396 . S
C212 P192 1.803 . S
C212 C213 1.378 . S
C212 C217 1.400 . S
C213 H197 0.939 . S
C213 C212 1.378 . S
C213 C214 1.361 . S
C214 H198 0.942 . S
C214 C213 1.361 . S
C214 C215 1.369 . S
C215 C214 1.369 . S
C215 C216 1.404 . S
C216 H199 0.940 . S
C216 C215 1.404 . S
C216 C217 1.389 . S
C217 H200 0.939 . S
C217 C212 1.400 . S
C217 C216 1.389 . S
C218 P192 1.819 . S
C218 C219 1.391 . S
C218 C223 1.391 . S
C219 H201 0.941 . S
C219 C218 1.391 . S
C219 C220 1.396 . S
C220 H204 0.939 . S
C220 C219 1.396 . S
C220 C221 1.397 . S
C221 C220 1.397 . S
C221 C222 1.385 . S
C222 H205 0.940 . S
C222 C221 1.385 . S
C222 C223 1.388 . S
C223 H202 0.939 . S
C223 C218 1.391 . S
C223 C222 1.388 . S
P224 O235 1.490 . S
P224 C238 1.812 . S
P224 C244 1.803 . S
P224 C250 1.819 . S
H225 C239 0.941 . S
H226 C240 0.939 . S
H227 C242 0.940 . S
H228 C243 0.940 . S
H229 C245 0.939 . S
H230 C246 0.942 . S
H231 C248 0.940 . S
H232 C249 0.939 . S
H233 C251 0.941 . S
H234 C255 0.939 . S
O235 P224 1.490 . S
H236 C252 0.939 . S
H237 C254 0.940 . S
C238 P224 1.812 . S
C238 C239 1.389 . S
C238 C243 1.391 . S
C239 H225 0.941 . S
C239 C238 1.389 . S
C239 C240 1.397 . S
C240 H226 0.939 . S
C240 C239 1.397 . S
C240 C241 1.378 . S
C241 C240 1.378 . S
C241 C242 1.378 . S
C242 H227 0.940 . S
C242 C241 1.378 . S
C242 C243 1.396 . S
C243 H228 0.940 . S
C243 C238 1.391 . S
C243 C242 1.396 . S
C244 P224 1.803 . S
C244 C245 1.378 . S
C244 C249 1.400 . S
C245 H229 0.939 . S
C245 C244 1.378 . S
C245 C246 1.361 . S
C246 H230 0.942 . S
C246 C245 1.361 . S
C246 C247 1.369 . S
C247 C246 1.369 . S
C247 C248 1.404 . S
C248 H231 0.940 . S
C248 C247 1.404 . S
C248 C249 1.389 . S
C249 H232 0.939 . S
C249 C244 1.400 . S
C249 C248 1.389 . S
C250 P224 1.819 . S
C250 C251 1.391 . S
C250 C255 1.391 . S
C251 H233 0.941 . S
C251 C250 1.391 . S
C251 C252 1.396 . S
C252 H236 0.939 . S
C252 C251 1.396 . S
C252 C253 1.397 . S
C253 C252 1.397 . S
C253 C254 1.385 . S
C254 H237 0.940 . S
C254 C253 1.385 . S
C254 C255 1.388 . S
C255 H234 0.939 . S
C255 C250 1.391 . S
C255 C254 1.388 . S
Zn256 O262 1.969 1_545 S
Zn256 O263 1.965 1_545 S
Zn256 O267 2.024 . S
Zn256 O272 1.969 . S
Zn257 O264 1.969 . S
Zn257 O270 1.969 1_565 S
Zn257 O271 1.965 1_665 S
Zn257 O273 2.024 . S
C258 O259 1.229 . S
C258 O267 1.058 . S
O259 C258 1.229 . S
C260 O261 1.229 . S
C260 O273 1.058 . S
O261 C260 1.229 . S
O262 Zn256 1.969 1_565 S
O262 C265 1.267 . S
O263 Zn256 1.965 1_565 S
O263 C274 1.260 1_455 S
O264 Zn257 1.969 . S
O264 C274 1.258 . S
C265 O262 1.267 . S
C265 O266 1.228 . S
O266 C265 1.228 . S
O267 Zn256 2.024 . S
O267 C258 1.058 . S
C268 O269 1.228 . S
C268 O270 1.267 . S
O269 C268 1.228 . S
O270 Zn257 1.969 1_545 S
O270 C268 1.267 . S
O271 Zn257 1.965 1_445 S
O271 C275 1.260 . S
O272 Zn256 1.969 . S
O272 C275 1.258 . S
O273 Zn257 2.024 . S
O273 C260 1.058 . S
C274 O263 1.260 1_655 S
C274 O264 1.258 . S
C275 O271 1.260 . S
C275 O272 1.258 . S
Zn276 O282 1.969 . S
Zn276 O283 1.965 1_565 S
Zn276 O287 2.024 . S
Zn276 O292 1.969 1_556 S
Zn277 O284 1.969 . S
Zn277 O290 1.969 . S
Zn277 O291 1.965 1_545 S
Zn277 O293 2.024 . S
C278 O279 1.229 . S
C278 O287 1.058 . S
O279 C278 1.229 . S
C280 O281 1.229 . S
C280 O293 1.058 . S
O281 C280 1.229 . S
O282 Zn276 1.969 . S
O282 C285 1.267 . S
O283 Zn276 1.965 1_545 S
O283 C294 1.260 . S
O284 Zn277 1.969 . S
O284 C294 1.258 1_554 S
C285 O282 1.267 . S
C285 O286 1.228 . S
O286 C285 1.228 . S
O287 Zn276 2.024 . S
O287 C278 1.058 . S
C288 O289 1.228 . S
C288 O290 1.267 . S
O289 C288 1.228 . S
O290 Zn277 1.969 . S
O290 C288 1.267 . S
O291 Zn277 1.965 1_565 S
O291 C295 1.260 . S
O292 Zn276 1.969 1_554 S
O292 C295 1.258 . S
O293 Zn277 2.024 . S
O293 C280 1.058 . S
C294 O283 1.260 . S
C294 O284 1.258 1_556 S
C295 O291 1.260 . S
C295 O292 1.258 . S
Zn296 O302 1.969 . S
Zn296 O303 1.965 . S
Zn296 O307 2.024 . S
Zn296 O312 1.969 . S
Zn297 O304 1.969 . S
Zn297 O310 1.969 . S
Zn297 O311 1.965 . S
Zn297 O313 2.024 . S
C298 O299 1.229 . S
C298 O307 1.058 . S
O299 C298 1.229 . S
C300 O301 1.229 . S
C300 O313 1.058 . S
O301 C300 1.229 . S
O302 Zn296 1.969 . S
O302 C305 1.267 . S
O303 Zn296 1.965 . S
O303 C314 1.260 . S
O304 Zn297 1.969 . S
O304 C314 1.258 . S
C305 O302 1.267 . S
C305 O306 1.228 . S
O306 C305 1.228 . S
O307 Zn296 2.024 . S
O307 C298 1.058 . S
C308 O309 1.228 . S
C308 O310 1.267 . S
O309 C308 1.228 . S
O310 Zn297 1.969 . S
O310 C308 1.267 . S
O311 Zn297 1.965 . S
O311 C315 1.260 . S
O312 Zn296 1.969 . S
O312 C315 1.258 . S
O313 Zn297 2.024 . S
O313 C300 1.058 . S
C314 O303 1.260 . S
C314 O304 1.258 . S
C315 O311 1.260 . S
C315 O312 1.258 . S
Zn316 O322 1.969 . S
Zn316 O323 1.965 1_556 S
Zn316 O327 2.024 . S
Zn316 O332 1.969 1_655 S
Zn317 O324 1.969 . S
Zn317 O330 1.969 . S
Zn317 O331 1.965 1_554 S
Zn317 O333 2.024 . S
C318 O319 1.229 . S
C318 O327 1.058 . S
O319 C318 1.229 . S
C320 O321 1.229 . S
C320 O333 1.058 . S
O321 C320 1.229 . S
O322 Zn316 1.969 . S
O322 C325 1.267 . S
O323 Zn316 1.965 1_554 S
O323 C334 1.260 . S
O324 Zn317 1.969 . S
O324 C334 1.258 1_455 S
C325 O322 1.267 . S
C325 O326 1.228 . S
O326 C325 1.228 . S
O327 Zn316 2.024 . S
O327 C318 1.058 . S
C328 O329 1.228 . S
C328 O330 1.267 . S
O329 C328 1.228 . S
O330 Zn317 1.969 . S
O330 C328 1.267 . S
O331 Zn317 1.965 1_556 S
O331 C335 1.260 . S
O332 Zn316 1.969 1_455 S
O332 C335 1.258 . S
O333 Zn317 2.024 . S
O333 C320 1.058 . S
C334 O323 1.260 . S
C334 O324 1.258 1_655 S
C335 O331 1.260 . S
C335 O332 1.258 . S
H336 C348 0.930 . S
H337 C350 0.930 . S
H338 C351 0.930 . S
H339 C355 0.959 . S
H340 C355 0.959 . S
H341 C355 0.961 . S
H342 C356 0.960 . S
H343 C356 0.961 . S
H344 C356 0.959 . S
H345 C359 0.929 . S
H346 C360 0.931 . S
H347 C362 0.930 . S
C348 H336 0.930 . S
C348 C349 1.399 . S
C348 C353 1.399 . S
C349 C348 1.399 . S
C349 C350 1.376 . S
C350 H337 0.930 . S
C350 C349 1.376 . S
C350 C351 1.388 . S
C351 H338 0.930 . S
C351 C350 1.388 . S
C351 C352 1.390 . S
C352 C351 1.390 . S
C352 C353 1.394 . S
C352 C358 1.465 . S
C353 C348 1.399 . S
C353 C352 1.394 . S
C353 C354 1.516 . S
C354 C353 1.516 . S
C354 C355 1.502 . S
C354 C356 1.561 . S
C354 C357 1.526 . S
C355 H339 0.959 . S
C355 H340 0.959 . S
C355 H341 0.961 . S
C355 C354 1.502 . S
C356 H342 0.960 . S
C356 H343 0.961 . S
C356 H344 0.959 . S
C356 C354 1.561 . S
C357 C354 1.526 . S
C357 C358 1.396 . S
C357 C362 1.390 . S
C358 C352 1.465 . S
C358 C357 1.396 . S
C358 C359 1.399 . S
C359 H345 0.929 . S
C359 C358 1.399 . S
C359 C360 1.385 . S
C360 H346 0.931 . S
C360 C359 1.385 . S
C360 C361 1.389 . S
C361 C360 1.389 . S
C361 C362 1.387 . S
C362 H347 0.930 . S
C362 C357 1.390 . S
C362 C361 1.387 . S
H363 C375 0.930 . S
H364 C377 0.930 . S
H365 C378 0.930 . S
H366 C382 0.959 . S
H367 C382 0.959 . S
H368 C382 0.961 . S
H369 C383 0.960 . S
H370 C383 0.961 1_545 S
H371 C383 0.959 . S
H372 C386 0.929 . S
H373 C387 0.931 . S
H374 C389 0.930 . S
C375 H363 0.930 . S
C375 C376 1.399 . S
C375 C380 1.399 . S
C376 C375 1.399 . S
C376 C377 1.376 . S
C377 H364 0.930 . S
C377 C376 1.376 . S
C377 C378 1.388 . S
C378 H365 0.930 . S
C378 C377 1.388 . S
C378 C379 1.390 . S
C379 C378 1.390 . S
C379 C380 1.394 . S
C379 C385 1.465 . S
C380 C375 1.399 . S
C380 C379 1.394 . S
C380 C381 1.516 . S
C381 C380 1.516 . S
C381 C382 1.502 . S
C381 C383 1.561 . S
C381 C384 1.526 . S
C382 H366 0.959 . S
C382 H367 0.959 . S
C382 H368 0.961 . S
C382 C381 1.502 . S
C383 H369 0.960 . S
C383 H370 0.961 1_565 S
C383 H371 0.959 . S
C383 C381 1.561 . S
C384 C381 1.526 . S
C384 C385 1.396 . S
C384 C389 1.390 . S
C385 C379 1.465 . S
C385 C384 1.396 . S
C385 C386 1.399 . S
C386 H372 0.929 . S
C386 C385 1.399 . S
C386 C387 1.385 . S
C387 H373 0.931 . S
C387 C386 1.385 . S
C387 C388 1.389 . S
C388 C387 1.389 . S
C388 C389 1.387 . S
C389 H374 0.930 . S
C389 C384 1.390 . S
C389 C388 1.387 . S
H390 C402 0.930 . S
H391 C404 0.930 . S
H392 C405 0.930 . S
H393 C409 0.959 . S
H394 C409 0.959 . S
H395 C409 0.961 . S
H396 C410 0.960 . S
H397 C410 0.961 . S
H398 C410 0.959 . S
H399 C413 0.929 . S
H400 C414 0.931 . S
H401 C416 0.930 . S
C402 H390 0.930 . S
C402 C403 1.399 . S
C402 C407 1.399 . S
C403 C402 1.399 . S
C403 C404 1.376 . S
C404 H391 0.930 . S
C404 C403 1.376 . S
C404 C405 1.388 . S
C405 H392 0.930 . S
C405 C404 1.388 . S
C405 C406 1.390 . S
C406 C405 1.390 . S
C406 C407 1.394 . S
C406 C412 1.465 . S
C407 C402 1.399 . S
C407 C406 1.394 . S
C407 C408 1.516 . S
C408 C407 1.516 . S
C408 C409 1.502 . S
C408 C410 1.561 . S
C408 C411 1.526 . S
C409 H393 0.959 . S
C409 H394 0.959 . S
C409 H395 0.961 . S
C409 C408 1.502 . S
C410 H396 0.960 . S
C410 H397 0.961 . S
C410 H398 0.959 . S
C410 C408 1.561 . S
C411 C408 1.526 . S
C411 C412 1.396 . S
C411 C416 1.390 . S
C412 C406 1.465 . S
C412 C411 1.396 . S
C412 C413 1.399 . S
C413 H399 0.929 . S
C413 C412 1.399 . S
C413 C414 1.385 . S
C414 H400 0.931 . S
C414 C413 1.385 . S
C414 C415 1.389 . S
C415 C414 1.389 . S
C415 C416 1.387 . S
C416 H401 0.930 . S
C416 C411 1.390 . S
C416 C415 1.387 . S
H417 C429 0.930 . S
H418 C431 0.930 . S
H419 C432 0.930 . S
H420 C436 0.959 . S
H421 C436 0.959 . S
H422 C436 0.961 . S
H423 C437 0.960 . S
H424 C437 0.961 . S
H425 C437 0.959 . S
H426 C440 0.929 . S
H427 C441 0.931 1_455 S
H428 C443 0.930 . S
C429 H417 0.930 . S
C429 C430 1.399 . S
C429 C434 1.399 . S
C430 C429 1.399 . S
C430 C431 1.376 . S
C431 H418 0.930 . S
C431 C430 1.376 . S
C431 C432 1.388 . S
C432 H419 0.930 . S
C432 C431 1.388 . S
C432 C433 1.390 . S
C433 C432 1.390 . S
C433 C434 1.394 . S
C433 C439 1.465 . S
C434 C429 1.399 . S
C434 C433 1.394 . S
C434 C435 1.516 . S
C435 C434 1.516 . S
C435 C436 1.502 . S
C435 C437 1.561 . S
C435 C438 1.526 . S
C436 H420 0.959 . S
C436 H421 0.959 . S
C436 H422 0.961 . S
C436 C435 1.502 . S
C437 H423 0.960 . S
C437 H424 0.961 . S
C437 H425 0.959 . S
C437 C435 1.561 . S
C438 C435 1.526 . S
C438 C439 1.396 . S
C438 C443 1.390 . S
C439 C433 1.465 . S
C439 C438 1.396 . S
C439 C440 1.399 . S
C440 H426 0.929 . S
C440 C439 1.399 . S
C440 C441 1.385 . S
C441 H427 0.931 1_655 S
C441 C440 1.385 . S
C441 C442 1.389 . S
C442 C441 1.389 . S
C442 C443 1.387 . S
C443 H428 0.930 . S
C443 C438 1.390 . S
C443 C442 1.387 . S
H444 C456 0.930 . S
H445 C458 0.930 . S
H446 C459 0.930 . S
H447 C463 0.959 . S
H448 C463 0.959 . S
H449 C463 0.961 . S
H450 C464 0.960 . S
H451 C464 0.961 . S
H452 C464 0.959 . S
H453 C467 0.929 . S
H454 C468 0.931 . S
H455 C470 0.930 . S
C456 H444 0.930 . S
C456 C457 1.399 . S
C456 C461 1.399 . S
C457 C456 1.399 . S
C457 C458 1.376 . S
C458 H445 0.930 . S
C458 C457 1.376 . S
C458 C459 1.388 . S
C459 H446 0.930 . S
C459 C458 1.388 . S
C459 C460 1.390 . S
C460 C459 1.390 . S
C460 C461 1.394 . S
C460 C466 1.465 . S
C461 C456 1.399 . S
C461 C460 1.394 . S
C461 C462 1.516 . S
C462 C461 1.516 . S
C462 C463 1.502 . S
C462 C464 1.561 . S
C462 C465 1.526 . S
C463 H447 0.959 . S
C463 H448 0.959 . S
C463 H449 0.961 . S
C463 C462 1.502 . S
C464 H450 0.960 . S
C464 H451 0.961 . S
C464 H452 0.959 . S
C464 C462 1.561 . S
C465 C462 1.526 . S
C465 C466 1.396 . S
C465 C470 1.390 . S
C466 C460 1.465 . S
C466 C465 1.396 . S
C466 C467 1.399 . S
C467 H453 0.929 . S
C467 C466 1.399 . S
C467 C468 1.385 . S
C468 H454 0.931 . S
C468 C467 1.385 . S
C468 C469 1.389 . S
C469 C468 1.389 . S
C469 C470 1.387 . S
C470 H455 0.930 . S
C470 C465 1.390 . S
C470 C469 1.387 . S
H471 C483 0.930 . S
H472 C485 0.930 . S
H473 C486 0.930 . S
H474 C490 0.959 . S
H475 C490 0.959 . S
H476 C490 0.961 . S
H477 C491 0.960 . S
H478 C491 0.961 . S
H479 C491 0.959 . S
H480 C494 0.929 . S
H481 C495 0.931 . S
H482 C497 0.930 . S
C483 H471 0.930 . S
C483 C484 1.399 . S
C483 C488 1.399 . S
C484 C483 1.399 . S
C484 C485 1.376 . S
C485 H472 0.930 . S
C485 C484 1.376 . S
C485 C486 1.388 . S
C486 H473 0.930 . S
C486 C485 1.388 . S
C486 C487 1.390 . S
C487 C486 1.390 . S
C487 C488 1.394 . S
C487 C493 1.465 . S
C488 C483 1.399 . S
C488 C487 1.394 . S
C488 C489 1.516 . S
C489 C488 1.516 . S
C489 C490 1.502 . S
C489 C491 1.561 . S
C489 C492 1.526 . S
C490 H474 0.959 . S
C490 H475 0.959 . S
C490 H476 0.961 . S
C490 C489 1.502 . S
C491 H477 0.960 . S
C491 H478 0.961 . S
C491 H479 0.959 . S
C491 C489 1.561 . S
C492 C489 1.526 . S
C492 C493 1.396 . S
C492 C497 1.390 . S
C493 C487 1.465 . S
C493 C492 1.396 . S
C493 C494 1.399 . S
C494 H480 0.929 . S
C494 C493 1.399 . S
C494 C495 1.385 . S
C495 H481 0.931 . S
C495 C494 1.385 . S
C495 C496 1.389 . S
C496 C495 1.389 . S
C496 C497 1.387 . S
C497 H482 0.930 . S
C497 C492 1.390 . S
C497 C496 1.387 . S
H498 C510 0.930 . S
H499 C512 0.930 . S
H500 C513 0.930 . S
H501 C517 0.959 . S
H502 C517 0.959 . S
H503 C517 0.961 . S
H504 C518 0.960 . S
H505 C518 0.961 . S
H506 C518 0.959 . S
H507 C521 0.929 . S
H508 C522 0.931 . S
H509 C524 0.930 . S
C510 H498 0.930 . S
C510 C511 1.399 . S
C510 C515 1.399 . S
C511 C510 1.399 . S
C511 C512 1.376 . S
C512 H499 0.930 . S
C512 C511 1.376 . S
C512 C513 1.388 . S
C513 H500 0.930 . S
C513 C512 1.388 . S
C513 C514 1.390 . S
C514 C513 1.390 . S
C514 C515 1.394 . S
C514 C520 1.465 . S
C515 C510 1.399 . S
C515 C514 1.394 . S
C515 C516 1.516 . S
C516 C515 1.516 . S
C516 C517 1.502 . S
C516 C518 1.561 . S
C516 C519 1.526 . S
C517 H501 0.959 . S
C517 H502 0.959 . S
C517 H503 0.961 . S
C517 C516 1.502 . S
C518 H504 0.960 . S
C518 H505 0.961 . S
C518 H506 0.959 . S
C518 C516 1.561 . S
C519 C516 1.526 . S
C519 C520 1.396 . S
C519 C524 1.390 . S
C520 C514 1.465 . S
C520 C519 1.396 . S
C520 C521 1.399 . S
C521 H507 0.929 . S
C521 C520 1.399 . S
C521 C522 1.385 . S
C522 H508 0.931 . S
C522 C521 1.385 . S
C522 C523 1.389 . S
C523 C522 1.389 . S
C523 C524 1.387 . S
C524 H509 0.930 . S
C524 C519 1.390 . S
C524 C523 1.387 . S
H525 C537 0.930 . S
H526 C539 0.930 . S
H527 C540 0.930 . S
H528 C544 0.959 . S
H529 C544 0.959 . S
H530 C544 0.961 . S
H531 C545 0.960 . S
H532 C545 0.961 . S
H533 C545 0.959 . S
H534 C548 0.929 . S
H535 C549 0.931 . S
H536 C551 0.930 . S
C537 H525 0.930 . S
C537 C538 1.399 . S
C537 C542 1.399 . S
C538 C537 1.399 . S
C538 C539 1.376 . S
C539 H526 0.930 . S
C539 C538 1.376 . S
C539 C540 1.388 . S
C540 H527 0.930 . S
C540 C539 1.388 . S
C540 C541 1.390 . S
C541 C540 1.390 . S
C541 C542 1.394 . S
C541 C547 1.465 . S
C542 C537 1.399 . S
C542 C541 1.394 . S
C542 C543 1.516 . S
C543 C542 1.516 . S
C543 C544 1.502 . S
C543 C545 1.561 . S
C543 C546 1.526 . S
C544 H528 0.959 . S
C544 H529 0.959 . S
C544 H530 0.961 . S
C544 C543 1.502 . S
C545 H531 0.960 . S
C545 H532 0.961 . S
C545 H533 0.959 . S
C545 C543 1.561 . S
C546 C543 1.526 . S
C546 C547 1.396 . S
C546 C551 1.390 . S
C547 C541 1.465 . S
C547 C546 1.396 . S
C547 C548 1.399 . S
C548 H534 0.929 . S
C548 C547 1.399 . S
C548 C549 1.385 . S
C549 H535 0.931 . S
C549 C548 1.385 . S
C549 C550 1.389 . S
C550 C549 1.389 . S
C550 C551 1.387 . S
C551 H536 0.930 . S
C551 C546 1.390 . S
C551 C550 1.387 . S
H552 C564 0.930 . S
H553 C566 0.930 . S
H554 C567 0.930 . S
H555 C571 0.959 . S
H556 C571 0.959 . S
H557 C571 0.961 . S
H558 C572 0.960 . S
H559 C572 0.961 . S
H560 C572 0.959 . S
H561 C575 0.929 . S
H562 C576 0.931 . S
H563 C578 0.930 . S
C564 H552 0.930 . S
C564 C565 1.399 . S
C564 C569 1.399 . S
C565 C564 1.399 . S
C565 C566 1.376 . S
C566 H553 0.930 . S
C566 C565 1.376 . S
C566 C567 1.388 . S
C567 H554 0.930 . S
C567 C566 1.388 . S
C567 C568 1.390 . S
C568 C567 1.390 . S
C568 C569 1.394 . S
C568 C574 1.465 . S
C569 C564 1.399 . S
C569 C568 1.394 . S
C569 C570 1.516 . S
C570 C569 1.516 . S
C570 C571 1.502 . S
C570 C572 1.561 . S
C570 C573 1.526 . S
C571 H555 0.959 . S
C571 H556 0.959 . S
C571 H557 0.961 . S
C571 C570 1.502 . S
C572 H558 0.960 . S
C572 H559 0.961 . S
C572 H560 0.959 . S
C572 C570 1.561 . S
C573 C570 1.526 . S
C573 C574 1.396 . S
C573 C578 1.390 . S
C574 C568 1.465 . S
C574 C573 1.396 . S
C574 C575 1.399 . S
C575 H561 0.929 . S
C575 C574 1.399 . S
C575 C576 1.385 . S
C576 H562 0.931 . S
C576 C575 1.385 . S
C576 C577 1.389 . S
C577 C576 1.389 . S
C577 C578 1.387 . S
C578 H563 0.930 . S
C578 C573 1.390 . S
C578 C577 1.387 . S
H579 C591 0.930 . S
H580 C593 0.930 . S
H581 C594 0.930 . S
H582 C598 0.959 . S
H583 C598 0.959 . S
H584 C598 0.961 . S
H585 C599 0.960 . S
H586 C599 0.961 . S
H587 C599 0.959 . S
H588 C602 0.929 . S
H589 C603 0.931 . S
H590 C605 0.930 . S
C591 H579 0.930 . S
C591 C592 1.399 . S
C591 C596 1.399 . S
C592 C591 1.399 . S
C592 C593 1.376 . S
C593 H580 0.930 . S
C593 C592 1.376 . S
C593 C594 1.388 . S
C594 H581 0.930 . S
C594 C593 1.388 . S
C594 C595 1.390 . S
C595 C594 1.390 . S
C595 C596 1.394 . S
C595 C601 1.465 . S
C596 C591 1.399 . S
C596 C595 1.394 . S
C596 C597 1.516 . S
C597 C596 1.516 . S
C597 C598 1.502 . S
C597 C599 1.561 . S
C597 C600 1.526 . S
C598 H582 0.959 . S
C598 H583 0.959 . S
C598 H584 0.961 . S
C598 C597 1.502 . S
C599 H585 0.960 . S
C599 H586 0.961 . S
C599 H587 0.959 . S
C599 C597 1.561 . S
C600 C597 1.526 . S
C600 C601 1.396 . S
C600 C605 1.390 . S
C601 C595 1.465 . S
C601 C600 1.396 . S
C601 C602 1.399 . S
C602 H588 0.929 . S
C602 C601 1.399 . S
C602 C603 1.385 . S
C603 H589 0.931 . S
C603 C602 1.385 . S
C603 C604 1.389 . S
C604 C603 1.389 . S
C604 C605 1.387 . S
C605 H590 0.930 . S
C605 C600 1.390 . S
C605 C604 1.387 . S
H606 C618 0.930 . S
H607 C620 0.930 . S
H608 C621 0.930 . S
H609 C625 0.959 . S
H610 C625 0.959 . S
H611 C625 0.961 . S
H612 C626 0.960 . S
H613 C626 0.961 . S
H614 C626 0.959 . S
H615 C629 0.929 . S
H616 C630 0.931 . S
H617 C632 0.930 . S
C618 H606 0.930 . S
C618 C619 1.399 . S
C618 C623 1.399 . S
C619 C618 1.399 . S
C619 C620 1.376 . S
C620 H607 0.930 . S
C620 C619 1.376 . S
C620 C621 1.388 . S
C621 H608 0.930 . S
C621 C620 1.388 . S
C621 C622 1.390 . S
C622 C621 1.390 . S
C622 C623 1.394 . S
C622 C628 1.465 . S
C623 C618 1.399 . S
C623 C622 1.394 . S
C623 C624 1.516 . S
C624 C623 1.516 . S
C624 C625 1.502 . S
C624 C626 1.561 . S
C624 C627 1.526 . S
C625 H609 0.959 . S
C625 H610 0.959 . S
C625 H611 0.961 . S
C625 C624 1.502 . S
C626 H612 0.960 . S
C626 H613 0.961 . S
C626 H614 0.959 . S
C626 C624 1.561 . S
C627 C624 1.526 . S
C627 C628 1.396 . S
C627 C632 1.390 . S
C628 C622 1.465 . S
C628 C627 1.396 . S
C628 C629 1.399 . S
C629 H615 0.929 . S
C629 C628 1.399 . S
C629 C630 1.385 . S
C630 H616 0.931 . S
C630 C629 1.385 . S
C630 C631 1.389 . S
C631 C630 1.389 . S
C631 C632 1.387 . S
C632 H617 0.930 . S
C632 C627 1.390 . S
C632 C631 1.387 . S
H633 C645 0.930 . S
H634 C647 0.930 . S
H635 C648 0.930 . S
H636 C652 0.959 . S
H637 C652 0.959 . S
H638 C652 0.961 . S
H639 C653 0.960 . S
H640 C653 0.961 . S
H641 C653 0.959 . S
H642 C656 0.929 . S
H643 C657 0.931 . S
H644 C659 0.930 . S
C645 H633 0.930 . S
C645 C646 1.399 . S
C645 C650 1.399 . S
C646 C645 1.399 . S
C646 C647 1.376 . S
C647 H634 0.930 . S
C647 C646 1.376 . S
C647 C648 1.388 . S
C648 H635 0.930 . S
C648 C647 1.388 . S
C648 C649 1.390 . S
C649 C648 1.390 . S
C649 C650 1.394 . S
C649 C655 1.465 . S
C650 C645 1.399 . S
C650 C649 1.394 . S
C650 C651 1.516 . S
C651 C650 1.516 . S
C651 C652 1.502 . S
C651 C653 1.561 . S
C651 C654 1.526 . S
C652 H636 0.959 . S
C652 H637 0.959 . S
C652 H638 0.961 . S
C652 C651 1.502 . S
C653 H639 0.960 . S
C653 H640 0.961 . S
C653 H641 0.959 . S
C653 C651 1.561 . S
C654 C651 1.526 . S
C654 C655 1.396 . S
C654 C659 1.390 . S
C655 C649 1.465 . S
C655 C654 1.396 . S
C655 C656 1.399 . S
C656 H642 0.929 . S
C656 C655 1.399 . S
C656 C657 1.385 . S
C657 H643 0.931 . S
C657 C656 1.385 . S
C657 C658 1.389 . S
C658 C657 1.389 . S
C658 C659 1.387 . S
C659 H644 0.930 . S
C659 C654 1.390 . S
C659 C658 1.387 . S
H660 C672 0.930 . S
H661 C674 0.930 . S
H662 C675 0.930 . S
H663 C679 0.959 . S
H664 C679 0.959 . S
H665 C679 0.961 . S
H666 C680 0.960 . S
H667 C680 0.961 . S
H668 C680 0.959 . S
H669 C683 0.929 . S
H670 C684 0.931 1_545 S
H671 C686 0.930 . S
C672 H660 0.930 . S
C672 C673 1.399 . S
C672 C677 1.399 . S
C673 C672 1.399 . S
C673 C674 1.376 . S
C674 H661 0.930 . S
C674 C673 1.376 . S
C674 C675 1.388 . S
C675 H662 0.930 . S
C675 C674 1.388 . S
C675 C676 1.390 . S
C676 C675 1.390 . S
C676 C677 1.394 . S
C676 C682 1.465 . S
C677 C672 1.399 . S
C677 C676 1.394 . S
C677 C678 1.516 . S
C678 C677 1.516 . S
C678 C679 1.502 . S
C678 C680 1.561 . S
C678 C681 1.526 . S
C679 H663 0.959 . S
C679 H664 0.959 . S
C679 H665 0.961 . S
C679 C678 1.502 . S
C680 H666 0.960 . S
C680 H667 0.961 . S
C680 H668 0.959 . S
C680 C678 1.561 . S
C681 C678 1.526 . S
C681 C682 1.396 . S
C681 C686 1.390 . S
C682 C676 1.465 . S
C682 C681 1.396 . S
C682 C683 1.399 . S
C683 H669 0.929 . S
C683 C682 1.399 . S
C683 C684 1.385 . S
C684 H670 0.931 1_565 S
C684 C683 1.385 . S
C684 C685 1.389 . S
C685 C684 1.389 . S
C685 C686 1.387 . S
C686 H671 0.930 . S
C686 C681 1.390 . S
C686 C685 1.387 . S
H687 C699 0.930 . S
H688 C701 0.930 . S
H689 C702 0.930 . S
H690 C706 0.959 . S
H691 C706 0.959 . S
H692 C706 0.961 . S
H693 C707 0.960 . S
H694 C707 0.961 . S
H695 C707 0.959 . S
H696 C710 0.929 . S
H697 C711 0.931 . S
H698 C713 0.930 . S
C699 H687 0.930 . S
C699 C700 1.399 . S
C699 C704 1.399 . S
C700 C699 1.399 . S
C700 C701 1.376 . S
C701 H688 0.930 . S
C701 C700 1.376 . S
C701 C702 1.388 . S
C702 H689 0.930 . S
C702 C701 1.388 . S
C702 C703 1.390 . S
C703 C702 1.390 . S
C703 C704 1.394 . S
C703 C709 1.465 . S
C704 C699 1.399 . S
C704 C703 1.394 . S
C704 C705 1.516 . S
C705 C704 1.516 . S
C705 C706 1.502 . S
C705 C707 1.561 . S
C705 C708 1.526 . S
C706 H690 0.959 . S
C706 H691 0.959 . S
C706 H692 0.961 . S
C706 C705 1.502 . S
C707 H693 0.960 . S
C707 H694 0.961 . S
C707 H695 0.959 . S
C707 C705 1.561 . S
C708 C705 1.526 . S
C708 C709 1.396 . S
C708 C713 1.390 . S
C709 C703 1.465 . S
C709 C708 1.396 . S
C709 C710 1.399 . S
C710 H696 0.929 . S
C710 C709 1.399 . S
C710 C711 1.385 . S
C711 H697 0.931 . S
C711 C710 1.385 . S
C711 C712 1.389 . S
C712 C711 1.389 . S
C712 C713 1.387 . S
C713 H698 0.930 . S
C713 C708 1.390 . S
C713 C712 1.387 . S
H714 C726 0.930 . S
H715 C728 0.930 . S
H716 C729 0.930 . S
H717 C733 0.959 . S
H718 C733 0.959 . S
H719 C733 0.961 . S
H720 C734 0.960 . S
H721 C734 0.961 . S
H722 C734 0.959 . S
H723 C737 0.929 . S
H724 C738 0.931 . S
H725 C740 0.930 . S
C726 H714 0.930 . S
C726 C727 1.399 . S
C726 C731 1.399 . S
C727 C726 1.399 . S
C727 C728 1.376 . S
C728 H715 0.930 . S
C728 C727 1.376 . S
C728 C729 1.388 . S
C729 H716 0.930 . S
C729 C728 1.388 . S
C729 C730 1.390 . S
C730 C729 1.390 . S
C730 C731 1.394 . S
C730 C736 1.465 . S
C731 C726 1.399 . S
C731 C730 1.394 . S
C731 C732 1.516 . S
C732 C731 1.516 . S
C732 C733 1.502 . S
C732 C734 1.561 . S
C732 C735 1.526 . S
C733 H717 0.959 . S
C733 H718 0.959 . S
C733 H719 0.961 . S
C733 C732 1.502 . S
C734 H720 0.960 . S
C734 H721 0.961 . S
C734 H722 0.959 . S
C734 C732 1.561 . S
C735 C732 1.526 . S
C735 C736 1.396 . S
C735 C740 1.390 . S
C736 C730 1.465 . S
C736 C735 1.396 . S
C736 C737 1.399 . S
C737 H723 0.929 . S
C737 C736 1.399 . S
C737 C738 1.385 . S
C738 H724 0.931 . S
C738 C737 1.385 . S
C738 C739 1.389 . S
C739 C738 1.389 . S
C739 C740 1.387 . S
C740 H725 0.930 . S
C740 C735 1.390 . S
C740 C739 1.387 . S
H741 C753 0.930 . S
H742 C755 0.930 . S
H743 C756 0.930 . S
H744 C760 0.959 . S
H745 C760 0.959 . S
H746 C760 0.961 . S
H747 C761 0.960 . S
H748 C761 0.961 . S
H749 C761 0.959 . S
H750 C764 0.929 . S
H751 C765 0.931 . S
H752 C767 0.930 . S
C753 H741 0.930 . S
C753 C754 1.399 . S
C753 C758 1.399 . S
C754 C753 1.399 . S
C754 C755 1.376 . S
C755 H742 0.930 . S
C755 C754 1.376 . S
C755 C756 1.388 . S
C756 H743 0.930 . S
C756 C755 1.388 . S
C756 C757 1.390 . S
C757 C756 1.390 . S
C757 C758 1.394 . S
C757 C763 1.465 . S
C758 C753 1.399 . S
C758 C757 1.394 . S
C758 C759 1.516 . S
C759 C758 1.516 . S
C759 C760 1.502 . S
C759 C761 1.561 . S
C759 C762 1.526 . S
C760 H744 0.959 . S
C760 H745 0.959 . S
C760 H746 0.961 . S
C760 C759 1.502 . S
C761 H747 0.960 . S
C761 H748 0.961 . S
C761 H749 0.959 . S
C761 C759 1.561 . S
C762 C759 1.526 . S
C762 C763 1.396 . S
C762 C767 1.390 . S
C763 C757 1.465 . S
C763 C762 1.396 . S
C763 C764 1.399 . S
C764 H750 0.929 . S
C764 C763 1.399 . S
C764 C765 1.385 . S
C765 H751 0.931 . S
C765 C764 1.385 . S
C765 C766 1.389 . S
C766 C765 1.389 . S
C766 C767 1.387 . S
C767 H752 0.930 . S
C767 C762 1.390 . S
C767 C766 1.387 . S
H768 C780 0.930 . S
H769 C782 0.930 . S
H770 C783 0.930 . S
H771 C787 0.959 . S
H772 C787 0.959 . S
H773 C787 0.961 . S
H774 C788 0.960 . S
H775 C788 0.961 . S
H776 C788 0.959 . S
H777 C791 0.929 . S
H778 C792 0.931 . S
H779 C794 0.930 . S
C780 H768 0.930 . S
C780 C781 1.399 . S
C780 C785 1.399 . S
C781 C780 1.399 . S
C781 C782 1.376 . S
C782 H769 0.930 . S
C782 C781 1.376 . S
C782 C783 1.388 . S
C783 H770 0.930 . S
C783 C782 1.388 . S
C783 C784 1.390 . S
C784 C783 1.390 . S
C784 C785 1.394 . S
C784 C790 1.465 . S
C785 C780 1.399 . S
C785 C784 1.394 . S
C785 C786 1.516 . S
C786 C785 1.516 . S
C786 C787 1.502 . S
C786 C788 1.561 . S
C786 C789 1.526 . S
C787 H771 0.959 . S
C787 H772 0.959 . S
C787 H773 0.961 . S
C787 C786 1.502 . S
C788 H774 0.960 . S
C788 H775 0.961 . S
C788 H776 0.959 . S
C788 C786 1.561 . S
C789 C786 1.526 . S
C789 C790 1.396 . S
C789 C794 1.390 . S
C790 C784 1.465 . S
C790 C789 1.396 . S
C790 C791 1.399 . S
C791 H777 0.929 . S
C791 C790 1.399 . S
C791 C792 1.385 . S
C792 H778 0.931 . S
C792 C791 1.385 . S
C792 C793 1.389 . S
C793 C792 1.389 . S
C793 C794 1.387 . S
C794 H779 0.930 . S
C794 C789 1.390 . S
C794 C793 1.387 . S
H795 C807 0.930 . S
H796 C809 0.930 . S
H797 C810 0.930 . S
H798 C814 0.959 . S
H799 C814 0.959 . S
H800 C814 0.961 . S
H801 C815 0.960 . S
H802 C815 0.961 . S
H803 C815 0.959 . S
H804 C818 0.929 . S
H805 C819 0.931 . S
H806 C821 0.930 . S
C807 H795 0.930 . S
C807 C808 1.399 . S
C807 C812 1.399 . S
C808 C807 1.399 . S
C808 C809 1.376 . S
C809 H796 0.930 . S
C809 C808 1.376 . S
C809 C810 1.388 . S
C810 H797 0.930 . S
C810 C809 1.388 . S
C810 C811 1.390 . S
C811 C810 1.390 . S
C811 C812 1.394 . S
C811 C817 1.465 . S
C812 C807 1.399 . S
C812 C811 1.394 . S
C812 C813 1.516 . S
C813 C812 1.516 . S
C813 C814 1.502 . S
C813 C815 1.561 . S
C813 C816 1.526 . S
C814 H798 0.959 . S
C814 H799 0.959 . S
C814 H800 0.961 . S
C814 C813 1.502 . S
C815 H801 0.960 . S
C815 H802 0.961 . S
C815 H803 0.959 . S
C815 C813 1.561 . S
C816 C813 1.526 . S
C816 C817 1.396 . S
C816 C821 1.390 . S
C817 C811 1.465 . S
C817 C816 1.396 . S
C817 C818 1.399 . S
C818 H804 0.929 . S
C818 C817 1.399 . S
C818 C819 1.385 . S
C819 H805 0.931 . S
C819 C818 1.385 . S
C819 C820 1.389 . S
C820 C819 1.389 . S
C820 C821 1.387 . S
C821 H806 0.930 . S
C821 C816 1.390 . S
C821 C820 1.387 . S
H822 C834 0.930 . S
H823 C836 0.930 . S
H824 C837 0.930 . S
H825 C841 0.959 . S
H826 C841 0.959 . S
H827 C841 0.961 . S
H828 C842 0.960 . S
H829 C842 0.961 . S
H830 C842 0.959 . S
H831 C845 0.929 . S
H832 C846 0.931 . S
H833 C848 0.930 . S
C834 H822 0.930 . S
C834 C835 1.399 . S
C834 C839 1.399 . S
C835 C834 1.399 . S
C835 C836 1.376 . S
C836 H823 0.930 . S
C836 C835 1.376 . S
C836 C837 1.388 . S
C837 H824 0.930 . S
C837 C836 1.388 . S
C837 C838 1.390 . S
C838 C837 1.390 . S
C838 C839 1.394 . S
C838 C844 1.465 . S
C839 C834 1.399 . S
C839 C838 1.394 . S
C839 C840 1.516 . S
C840 C839 1.516 . S
C840 C841 1.502 . S
C840 C842 1.561 . S
C840 C843 1.526 . S
C841 H825 0.959 . S
C841 H826 0.959 . S
C841 H827 0.961 . S
C841 C840 1.502 . S
C842 H828 0.960 . S
C842 H829 0.961 . S
C842 H830 0.959 . S
C842 C840 1.561 . S
C843 C840 1.526 . S
C843 C844 1.396 . S
C843 C848 1.390 . S
C844 C838 1.465 . S
C844 C843 1.396 . S
C844 C845 1.399 . S
C845 H831 0.929 . S
C845 C844 1.399 . S
C845 C846 1.385 . S
C846 H832 0.931 . S
C846 C845 1.385 . S
C846 C847 1.389 . S
C847 C846 1.389 . S
C847 C848 1.387 . S
C848 H833 0.930 . S
C848 C843 1.390 . S
C848 C847 1.387 . S
H849 C861 0.930 . S
H850 C863 0.930 . S
H851 C864 0.930 . S
H852 C868 0.959 . S
H853 C868 0.959 . S
H854 C868 0.961 . S
H855 C869 0.960 . S
H856 C869 0.961 . S
H857 C869 0.959 . S
H858 C872 0.929 . S
H859 C873 0.931 . S
H860 C875 0.930 . S
C861 H849 0.930 . S
C861 C862 1.399 . S
C861 C866 1.399 . S
C862 C861 1.399 . S
C862 C863 1.376 . S
C863 H850 0.930 . S
C863 C862 1.376 . S
C863 C864 1.388 . S
C864 H851 0.930 . S
C864 C863 1.388 . S
C864 C865 1.390 . S
C865 C864 1.390 . S
C865 C866 1.394 . S
C865 C871 1.465 . S
C866 C861 1.399 . S
C866 C865 1.394 . S
C866 C867 1.516 . S
C867 C866 1.516 . S
C867 C868 1.502 . S
C867 C869 1.561 . S
C867 C870 1.526 . S
C868 H852 0.959 . S
C868 H853 0.959 . S
C868 H854 0.961 . S
C868 C867 1.502 . S
C869 H855 0.960 . S
C869 H856 0.961 . S
C869 H857 0.959 . S
C869 C867 1.561 . S
C870 C867 1.526 . S
C870 C871 1.396 . S
C870 C875 1.390 . S
C871 C865 1.465 . S
C871 C870 1.396 . S
C871 C872 1.399 . S
C872 H858 0.929 . S
C872 C871 1.399 . S
C872 C873 1.385 . S
C873 H859 0.931 . S
C873 C872 1.385 . S
C873 C874 1.389 . S
C874 C873 1.389 . S
C874 C875 1.387 . S
C875 H860 0.930 . S
C875 C870 1.390 . S
C875 C874 1.387 . S
H876 C888 0.930 . S
H877 C890 0.930 . S
H878 C891 0.930 . S
H879 C895 0.959 . S
H880 C895 0.959 . S
H881 C895 0.961 . S
H882 C896 0.960 . S
H883 C896 0.961 . S
H884 C896 0.959 . S
H885 C899 0.929 . S
H886 C900 0.931 . S
H887 C902 0.930 . S
C888 H876 0.930 . S
C888 C889 1.399 . S
C888 C893 1.399 . S
C889 C888 1.399 . S
C889 C890 1.376 . S
C890 H877 0.930 . S
C890 C889 1.376 . S
C890 C891 1.388 . S
C891 H878 0.930 . S
C891 C890 1.388 . S
C891 C892 1.390 . S
C892 C891 1.390 . S
C892 C893 1.394 . S
C892 C898 1.465 . S
C893 C888 1.399 . S
C893 C892 1.394 . S
C893 C894 1.516 . S
C894 C893 1.516 . S
C894 C895 1.502 . S
C894 C896 1.561 . S
C894 C897 1.526 . S
C895 H879 0.959 . S
C895 H880 0.959 . S
C895 H881 0.961 . S
C895 C894 1.502 . S
C896 H882 0.960 . S
C896 H883 0.961 . S
C896 H884 0.959 . S
C896 C894 1.561 . S
C897 C894 1.526 . S
C897 C898 1.396 . S
C897 C902 1.390 . S
C898 C892 1.465 . S
C898 C897 1.396 . S
C898 C899 1.399 . S
C899 H885 0.929 . S
C899 C898 1.399 . S
C899 C900 1.385 . S
C900 H886 0.931 . S
C900 C899 1.385 . S
C900 C901 1.389 . S
C901 C900 1.389 . S
C901 C902 1.387 . S
C902 H887 0.930 . S
C902 C897 1.390 . S
C902 C901 1.387 . S
H903 C915 0.930 . S
H904 C917 0.930 . S
H905 C918 0.930 . S
H906 C922 0.959 . S
H907 C922 0.959 . S
H908 C922 0.961 . S
H909 C923 0.960 . S
H910 C923 0.961 . S
H911 C923 0.959 . S
H912 C926 0.929 . S
H913 C927 0.931 . S
H914 C929 0.930 . S
C915 H903 0.930 . S
C915 C916 1.399 . S
C915 C920 1.399 . S
C916 C915 1.399 . S
C916 C917 1.376 . S
C917 H904 0.930 . S
C917 C916 1.376 . S
C917 C918 1.388 . S
C918 H905 0.930 . S
C918 C917 1.388 . S
C918 C919 1.390 . S
C919 C918 1.390 . S
C919 C920 1.394 . S
C919 C925 1.465 . S
C920 C915 1.399 . S
C920 C919 1.394 . S
C920 C921 1.516 . S
C921 C920 1.516 . S
C921 C922 1.502 . S
C921 C923 1.561 . S
C921 C924 1.526 . S
C922 H906 0.959 . S
C922 H907 0.959 . S
C922 H908 0.961 . S
C922 C921 1.502 . S
C923 H909 0.960 . S
C923 H910 0.961 . S
C923 H911 0.959 . S
C923 C921 1.561 . S
C924 C921 1.526 . S
C924 C925 1.396 . S
C924 C929 1.390 . S
C925 C919 1.465 . S
C925 C924 1.396 . S
C925 C926 1.399 . S
C926 H912 0.929 . S
C926 C925 1.399 . S
C926 C927 1.385 . S
C927 H913 0.931 . S
C927 C926 1.385 . S
C927 C928 1.389 . S
C928 C927 1.389 . S
C928 C929 1.387 . S
C929 H914 0.930 . S
C929 C924 1.390 . S
C929 C928 1.387 . S
H930 C942 0.930 . S
H931 C944 0.930 . S
H932 C945 0.930 . S
H933 C949 0.959 . S
H934 C949 0.959 . S
H935 C949 0.961 . S
H936 C950 0.960 . S
H937 C950 0.961 . S
H938 C950 0.959 . S
H939 C953 0.929 . S
H940 C954 0.931 . S
H941 C956 0.930 . S
C942 H930 0.930 . S
C942 C943 1.399 . S
C942 C947 1.399 . S
C943 C942 1.399 . S
C943 C944 1.376 . S
C944 H931 0.930 . S
C944 C943 1.376 . S
C944 C945 1.388 . S
C945 H932 0.930 . S
C945 C944 1.388 . S
C945 C946 1.390 . S
C946 C945 1.390 . S
C946 C947 1.394 . S
C946 C952 1.465 . S
C947 C942 1.399 . S
C947 C946 1.394 . S
C947 C948 1.516 . S
C948 C947 1.516 . S
C948 C949 1.502 . S
C948 C950 1.561 . S
C948 C951 1.526 . S
C949 H933 0.959 . S
C949 H934 0.959 . S
C949 H935 0.961 . S
C949 C948 1.502 . S
C950 H936 0.960 . S
C950 H937 0.961 . S
C950 H938 0.959 . S
C950 C948 1.561 . S
C951 C948 1.526 . S
C951 C952 1.396 . S
C951 C956 1.390 . S
C952 C946 1.465 . S
C952 C951 1.396 . S
C952 C953 1.399 . S
C953 H939 0.929 . S
C953 C952 1.399 . S
C953 C954 1.385 . S
C954 H940 0.931 . S
C954 C953 1.385 . S
C954 C955 1.389 . S
C955 C954 1.389 . S
C955 C956 1.387 . S
C956 H941 0.930 . S
C956 C951 1.390 . S
C956 C955 1.387 . S
H957 C969 0.930 . S
H958 C971 0.930 . S
H959 C972 0.930 . S
H960 C976 0.959 . S
H961 C976 0.959 . S
H962 C976 0.961 . S
H963 C977 0.960 . S
H964 C977 0.961 . S
H965 C977 0.959 . S
H966 C980 0.929 . S
H967 C981 0.931 . S
H968 C983 0.930 . S
C969 H957 0.930 . S
C969 C970 1.399 . S
C969 C974 1.399 . S
C970 C969 1.399 . S
C970 C971 1.376 . S
C971 H958 0.930 . S
C971 C970 1.376 . S
C971 C972 1.388 . S
C972 H959 0.930 . S
C972 C971 1.388 . S
C972 C973 1.390 . S
C973 C972 1.390 . S
C973 C974 1.394 . S
C973 C979 1.465 . S
C974 C969 1.399 . S
C974 C973 1.394 . S
C974 C975 1.516 . S
C975 C974 1.516 . S
C975 C976 1.502 . S
C975 C977 1.561 . S
C975 C978 1.526 . S
C976 H960 0.959 . S
C976 H961 0.959 . S
C976 H962 0.961 . S
C976 C975 1.502 . S
C977 H963 0.960 . S
C977 H964 0.961 . S
C977 H965 0.959 . S
C977 C975 1.561 . S
C978 C975 1.526 . S
C978 C979 1.396 . S
C978 C983 1.390 . S
C979 C973 1.465 . S
C979 C978 1.396 . S
C979 C980 1.399 . S
C980 H966 0.929 . S
C980 C979 1.399 . S
C980 C981 1.385 . S
C981 H967 0.931 . S
C981 C980 1.385 . S
C981 C982 1.389 . S
C982 C981 1.389 . S
C982 C983 1.387 . S
C983 H968 0.930 . S
C983 C978 1.390 . S
C983 C982 1.387 . S
C349 C29 1.561 . S
C361 C275 1.500 . S
C376 C49 1.264 . S
C388 C278 1.199 . S
C415 C314 1.770 . S
C403 C93 1.795 . S
C430 C119 1.621 . S
C442 C334 1.579 . S
C469 C288 1.627 . S
C457 C17 1.685 . S
C496 C265 1.561 . S
C484 C61 1.503 . S
C523 C318 1.568 . S
C511 C81 1.651 . S
C550 C298 1.449 . S
C538 C125 1.485 . S
C565 C23 1.337 . S
C577 C328 1.300 . S
C604 C294 1.610 . S
C592 C87 1.581 . S
C619 C113 1.643 . S
C631 C260 1.576 . S
C646 C55 1.307 . S
C658 C308 1.277 . S
C685 C274 1.473 . S
C673 C157 1.396 . S
C700 C189 1.282 . S
C712 C280 1.291 . S
C727 C221 1.737 . S
C739 C315 1.767 . S
C754 C253 1.675 . S
C766 C335 1.675 . S
C781 C145 1.648 . S
C793 C285 1.690 . S
C820 C268 1.447 . S
C808 C183 1.467 . S
C847 C320 1.524 . S
C835 C209 1.656 . S
C874 C300 1.349 . S
C862 C247 1.458 . S
C889 C151 1.316 . S
C901 C325 1.235 . S
C928 C295 1.572 . S
C916 C215 1.540 . S
C955 C258 1.623 . S
C943 C241 1.648 . S
C970 C177 1.310 . S
C982 C305 1.321 . S
