# Generated by pormake.
# Topology ssa, (4,4)-cn, num edge types: 1
# Building blocks:
#     Node 0, Type 0, BuildingBlock: ESEHIV_clean_sbu_0, # of connection points: 4
#     Node 1, Type 0, BuildingBlock: ESEHIV_clean_sbu_0, # of connection points: 4
#     Node 2, Type 0, BuildingBlock: ESEHIV_clean_sbu_0, # of connection points: 4
#     Node 3, Type 0, BuildingBlock: ESEHIV_clean_sbu_0, # of connection points: 4
#     Node 4, Type 0, BuildingBlock: ESEHIV_clean_sbu_0, # of connection points: 4
#     Node 5, Type 0, BuildingBlock: ESEHIV_clean_sbu_0, # of connection points: 4
#     Node 6, Type 1, BuildingBlock: NAWXER_clean_linker_0, # of connection points: 4
#     Node 7, Type 1, BuildingBlock: NAWXER_clean_linker_0, # of connection points: 4
#     Node 8, Type 1, BuildingBlock: NAWXER_clean_linker_0, # of connection points: 4
#     Node 9, Type 1, BuildingBlock: NAWXER_clean_linker_0, # of connection points: 4
#     Node 10, Type 1, BuildingBlock: NAWXER_clean_linker_0, # of connection points: 4
#     Node 11, Type 1, BuildingBlock: NAWXER_clean_linker_0, # of connection points: 4
#     Edge 12, Type (0, 1), BuildingBlock: MIFKUJ_clean_linker_0, # of connection points: 2
#     Edge 13, Type (0, 1), BuildingBlock: MIFKUJ_clean_linker_0, # of connection points: 2
#     Edge 14, Type (0, 1), BuildingBlock: MIFKUJ_clean_linker_0, # of connection points: 2
#     Edge 15, Type (0, 1), BuildingBlock: MIFKUJ_clean_linker_0, # of connection points: 2
#     Edge 16, Type (0, 1), BuildingBlock: MIFKUJ_clean_linker_0, # of connection points: 2
#     Edge 17, Type (0, 1), BuildingBlock: MIFKUJ_clean_linker_0, # of connection points: 2
#     Edge 18, Type (0, 1), BuildingBlock: MIFKUJ_clean_linker_0, # of connection points: 2
#     Edge 19, Type (0, 1), BuildingBlock: MIFKUJ_clean_linker_0, # of connection points: 2
#     Edge 20, Type (0, 1), BuildingBlock: MIFKUJ_clean_linker_0, # of connection points: 2
#     Edge 21, Type (0, 1), BuildingBlock: MIFKUJ_clean_linker_0, # of connection points: 2
#     Edge 22, Type (0, 1), BuildingBlock: MIFKUJ_clean_linker_0, # of connection points: 2
#     Edge 23, Type (0, 1), BuildingBlock: MIFKUJ_clean_linker_0, # of connection points: 2
#     Edge 24, Type (0, 1), BuildingBlock: MIFKUJ_clean_linker_0, # of connection points: 2
#     Edge 25, Type (0, 1), BuildingBlock: MIFKUJ_clean_linker_0, # of connection points: 2
#     Edge 26, Type (0, 1), BuildingBlock: MIFKUJ_clean_linker_0, # of connection points: 2
#     Edge 27, Type (0, 1), BuildingBlock: MIFKUJ_clean_linker_0, # of connection points: 2
#     Edge 28, Type (0, 1), BuildingBlock: MIFKUJ_clean_linker_0, # of connection points: 2
#     Edge 29, Type (0, 1), BuildingBlock: MIFKUJ_clean_linker_0, # of connection points: 2
#     Edge 30, Type (0, 1), BuildingBlock: MIFKUJ_clean_linker_0, # of connection points: 2
#     Edge 31, Type (0, 1), BuildingBlock: MIFKUJ_clean_linker_0, # of connection points: 2
#     Edge 32, Type (0, 1), BuildingBlock: MIFKUJ_clean_linker_0, # of connection points: 2
#     Edge 33, Type (0, 1), BuildingBlock: MIFKUJ_clean_linker_0, # of connection points: 2
#     Edge 34, Type (0, 1), BuildingBlock: MIFKUJ_clean_linker_0, # of connection points: 2
#     Edge 35, Type (0, 1), BuildingBlock: MIFKUJ_clean_linker_0, # of connection points: 2
# Relax obj value: 0.008
# Max RMSD: 0.106
# Mean RMSD: 0.056
data_MOF--net-ssa--node1-ESEHIV_clean_sbu_0--node2-NAWXER_clean_linker_0--edge1-MIFKUJ_clean_linker_0
_symmetry_space_group_name_H-M    P1
_symmetry_Int_Tables_number       1
_symmetry_cell_setting            triclinic
loop_
_symmetry_equiv_pos_as_xyz
'x, y, z'
_cell_length_a     72.933896
_cell_length_b     76.524652
_cell_length_c     52.369985
_cell_angle_alpha  88.516545
_cell_angle_beta   90.596721
_cell_angle_gamma 121.83158
loop_
_atom_site_label
_atom_site_type_symbol
_atom_site_fract_x
_atom_site_fract_y
_atom_site_fract_z
_atom_type_partial_charge
Cu0 Cu 0.00932 0.51156 0.98465 0.0
N1 N 0.00937 0.5005 0.95343 0.0
N2 N 0.99558 0.47867 0.9212 0.0
C3 C 0.99159 0.48439 0.94361 0.0
C4 C 0.01684 0.492 0.91665 0.0
C5 C 0.02531 0.5055 0.9366 0.0
O6 O 0.98285 0.512 0.9849 0.0
C7 C 0.0263 0.49119 0.01029 0.0
O8 O 0.03621 0.49492 0.98822 0.0
H9 H 0.97601 0.47709 0.95291 0.0
H10 H 0.04195 0.51773 0.93892 0.0
N11 N 0.03317 0.53791 0.9887 0.0
N12 N 0.0595 0.56382 0.01051 0.0
C13 C 0.04108 0.54525 0.01187 0.0
C14 C 0.04704 0.55232 0.97183 0.0
C15 C 0.06339 0.5684 0.9853 0.0
C16 C 0.98223 0.52461 0.96908 0.0
O17 O 0.99973 0.53734 0.95592 0.0
H18 H 0.03384 0.53657 0.0294 0.0
H19 H 0.04563 0.55106 0.95129 0.0
O20 O 0.01188 0.49568 0.0127 0.0
H21 H 0.02579 0.49171 0.9005 0.0
H22 H 0.07709 0.58224 0.97717 0.0
Cu23 Cu 0.50646 0.00825 0.49986 0.0
N24 N 0.51801 0.00542 0.46973 0.0
N25 N 0.52851 0.99051 0.44217 0.0
C26 C 0.52546 0.99278 0.46696 0.0
C27 C 0.52274 1.00221 0.42886 0.0
C28 C 0.51617 0.01129 0.4459 0.0
O29 O 0.47755 0.98435 0.50163 0.0
C30 C 0.5439 0.02158 0.5269 0.0
O31 O 0.55207 0.03117 0.50492 0.0
H32 H 0.527 0.98421 0.48272 0.0
H33 H 0.50918 0.02038 0.44113 0.0
N34 N 0.50666 0.03275 0.5005 0.0
N35 N 0.5053 0.05852 0.51761 0.0
C36 C 0.49947 0.03863 0.5201 0.0
C37 C 0.51745 0.0495 0.48507 0.0
C38 C 0.51657 0.06541 0.49553 0.0
C39 C 0.46194 0.98445 0.49074 0.0
O40 O 0.4648 1.00194 0.48191 0.0
H41 H 0.49143 0.0289 0.53671 0.0
H42 H 0.52644 0.0505 0.46825 0.0
O43 O 0.52361 0.00924 0.52874 0.0
H44 H 0.5224 0.00344 0.40824 0.0
H45 H 0.5243 0.08101 0.48794 0.0
Cu46 Cu 0.51065 0.50669 0.01882 0.0
N47 N 0.51402 0.48416 0.01846 0.0
N48 N 0.51488 0.4579 1.0019 0.0
C49 C 0.5098 0.47238 0.99797 0.0
C50 C 0.52253 0.46074 0.02606 0.0
C51 C 0.522 0.47696 0.03619 0.0
O52 O 0.51444 0.51602 0.98355 0.0
C53 C 0.47798 0.49167 0.05446 0.0
O54 O 0.49217 0.48962 0.06767 0.0
H55 H 0.5032 0.47459 0.98048 0.0
H56 H 0.52746 0.48329 0.05493 0.0
N57 N 0.53068 0.52735 0.03999 0.0
N58 N 0.5447 0.55427 0.06566 0.0
C59 C 0.52811 0.54186 0.05031 0.0
C60 C 0.54958 0.53069 0.04902 0.0
C61 C 0.55825 0.54728 0.06499 0.0
C62 C 0.53015 0.53315 0.97528 0.0
O63 O 0.54197 0.54763 0.99156 0.0
H64 H 0.51408 0.54298 0.04701 0.0
H65 H 0.55651 0.52167 0.04442 0.0
O66 O 0.48237 0.4983 0.03146 0.0
H67 H 0.52869 0.45218 0.0356 0.0
H68 H 0.57339 0.55379 0.07514 0.0
Cu69 Cu 0.00382 0.51409 0.52017 0.0
N70 N 0.0073 0.51052 0.48602 0.0
N71 N 0.02118 0.50611 0.45076 0.0
C72 C 0.02277 0.50809 0.47636 0.0
C73 C 0.00364 0.50687 0.44423 0.0
C74 C 0.99512 0.50958 0.46604 0.0
O75 O 0.03086 0.52501 0.53869 0.0
C76 C 0.98188 0.48445 0.55974 0.0
O77 O 0.99626 0.49935 0.57403 0.0
H78 H 0.03479 0.50757 0.48804 0.0
H79 H 0.98107 0.51084 0.46726 0.0
N80 N 0.99313 0.53127 0.52356 0.0
N81 N 0.97442 0.54355 0.5407 0.0
C82 C 0.98268 0.53155 0.54434 0.0
C83 C 0.99158 0.54365 0.50608 0.0
C84 C 0.97992 0.55122 0.51662 0.0
C85 C 0.05067 0.53743 0.53288 0.0
O86 O 0.06527 0.54019 0.5499 0.0
H87 H 0.98007 0.52218 0.56132 0.0
H88 H 0.99786 0.54647 0.48681 0.0
O89 O 0.98258 0.48742 0.53561 0.0
H90 H 0.99756 0.50591 0.42506 0.0
H91 H 0.97542 0.56114 0.50713 0.0
Cu92 Cu 0.51021 0.00523 0.03716 0.0
N93 N 0.49889 0.02202 0.03687 0.0
N94 N 0.4895 0.04363 0.02144 0.0
C95 C 0.49868 0.03276 0.01633 0.0
C96 C 0.48382 0.03969 0.04635 0.0
C97 C 0.48959 0.02624 0.05583 0.0
O98 O 0.53106 0.01459 0.0093 0.0
C99 C 0.46722 0.96971 0.03652 0.0
O100 O 0.4612 0.98202 0.02726 0.0
H101 H 0.50552 0.03289 0.99806 0.0
H102 H 0.48719 0.01996 0.0751 0.0
N103 N 0.52519 0.00838 0.0672 0.0
N104 N 0.53814 0.99864 0.09961 0.0
C105 C 0.52789 0.99353 0.07697 0.0
C106 C 0.534 0.02359 0.08416 0.0
C107 C 0.542 0.01757 0.10434 0.0
C108 C 0.52698 0.01222 0.98551 0.0
O109 O 0.50695 1.00023 0.97795 0.0
H110 H 0.52166 0.97889 0.06794 0.0
H111 H 0.53423 0.03781 0.08223 0.0
O112 O 0.48726 0.97628 0.03839 0.0
H113 H 0.4759 0.04589 0.05685 0.0
H114 H 0.5499 0.02636 0.12116 0.0
Cu115 Cu 0.50038 0.49312 0.48807 0.0
N116 N 0.5173 0.5053 0.45907 0.0
N117 N 0.53826 0.53026 0.43091 0.0
C118 C 0.53021 0.52567 0.45489 0.0
C119 C 0.5303 0.51194 0.4197 0.0
C120 C 0.51739 0.49654 0.43719 0.0
O121 O 0.47411 0.49365 0.48383 0.0
C122 C 0.51305 0.50174 0.54065 0.0
O123 O 0.49283 0.48794 0.54628 0.0
H124 H 0.53243 0.5369 0.46869 0.0
H125 H 0.50797 0.48019 0.43382 0.0
N126 N 0.49241 0.46572 0.49052 0.0
N127 N 0.48721 0.43655 0.5079 0.0
C128 C 0.49788 0.45718 0.50946 0.0
C129 C 0.47804 0.45001 0.47616 0.0
C130 C 0.47486 0.43192 0.48681 0.0
C131 C 0.47399 0.50968 0.477 0.0
O132 O 0.49224 0.52757 0.47653 0.0
H133 H 0.50903 0.46585 0.52451 0.0
H134 H 0.46978 0.45155 0.4598 0.0
O135 O 0.5184 0.50712 0.51739 0.0
H136 H 0.53292 0.5098 0.40003 0.0
H137 H 0.46348 0.41653 0.4804 0.0
C138 C 0.31427 0.50473 0.21181 0.0
C139 C 0.30863 0.49061 0.1922 0.0
C140 C 0.29827 0.50517 0.22568 0.0
C141 C 0.27633 0.49101 0.22075 0.0
C142 C 0.28675 0.47689 0.18675 0.0
C143 C 0.27075 0.47706 0.20094 0.0
C144 C 0.25906 0.49127 0.23503 0.0
C145 C 0.29712 0.47964 0.29483 0.0
C146 C 0.30678 0.49493 0.31338 0.0
C147 C 0.28173 0.47899 0.27796 0.0
C148 C 0.27584 0.49373 0.27911 0.0
C149 C 0.30057 0.50944 0.31468 0.0
C150 C 0.28522 0.50877 0.29785 0.0
C151 C 0.25918 0.49311 0.2619 0.0
C152 C 0.17077 0.47696 0.28291 0.0
C153 C 0.17567 0.4923 0.30065 0.0
C154 C 0.18723 0.47712 0.26936 0.0
C155 C 0.20886 0.49272 0.27314 0.0
C156 C 0.19738 0.50776 0.30456 0.0
C157 C 0.21382 0.50788 0.29105 0.0
C158 C 0.22641 0.49295 0.25912 0.0
C159 C 0.18934 0.50713 0.20255 0.0
C160 C 0.17742 0.49132 0.18515 0.0
C161 C 0.2054 0.50731 0.21761 0.0
C162 C 0.2099 0.49166 0.21572 0.0
C163 C 0.18232 0.47589 0.18296 0.0
C164 C 0.1985 0.47616 0.19794 0.0
C165 C 0.22639 0.49138 0.23234 0.0
H166 H 0.33107 0.5157 0.21603 0.0
H167 H 0.30309 0.51671 0.24005 0.0
H168 H 0.28203 0.46585 0.17171 0.0
H169 H 0.25396 0.46619 0.19652 0.0
H170 H 0.30156 0.46826 0.2932 0.0
H171 H 0.27435 0.46688 0.26413 0.0
H172 H 0.30734 0.52119 0.329 0.0
H173 H 0.28073 0.52013 0.2994 0.0
H174 H 0.15424 0.46464 0.27981 0.0
H175 H 0.18309 0.46494 0.25612 0.0
H176 H 0.20167 0.51994 0.31786 0.0
H177 H 0.23043 0.51998 0.29432 0.0
H178 H 0.18643 0.51953 0.20441 0.0
H179 H 0.21434 0.51973 0.23077 0.0
H180 H 0.17337 0.46331 0.17004 0.0
H181 H 0.20173 0.46396 0.19608 0.0
N182 N 0.24261 0.49039 0.22134 0.0
N183 N 0.24285 0.49396 0.27281 0.0
C184 C 0.82878 0.28842 0.78235 0.0
C185 C 0.82641 0.30045 0.80027 0.0
C186 C 0.81069 0.27157 0.7717 0.0
C187 C 0.78986 0.26649 0.77859 0.0
C188 C 0.8055 0.29481 0.80793 0.0
C189 C 0.78735 0.27787 0.79726 0.0
C190 C 0.77088 0.24981 0.76549 0.0
C191 C 0.80527 0.30384 0.71227 0.0
C192 C 0.81568 0.30107 0.69173 0.0
C193 C 0.78985 0.287 0.72694 0.0
C194 C 0.78469 0.26696 0.72176 0.0
C195 C 0.8098 0.28091 0.68581 0.0
C196 C 0.79443 0.26403 0.70066 0.0
C197 C 0.76939 0.24923 0.73855 0.0
C198 C 0.68297 0.17288 0.71943 0.0
C199 C 0.68894 0.16254 0.70279 0.0
C200 C 0.69872 0.19035 0.73205 0.0
C201 C 0.72068 0.19773 0.72829 0.0
C202 C 0.711 0.17016 0.69899 0.0
C203 C 0.7267 0.18768 0.71145 0.0
C204 C 0.73757 0.2158 0.7419 0.0
C205 C 0.70087 0.1637 0.79878 0.0
C206 C 0.69021 0.16794 0.81763 0.0
C207 C 0.71677 0.17954 0.78326 0.0
C208 C 0.72217 0.19996 0.78591 0.0
C209 C 0.69615 0.1885 0.82076 0.0
C210 C 0.71199 0.20432 0.80514 0.0
C211 C 0.7384 0.21685 0.76887 0.0
H212 H 0.84464 0.29204 0.77652 0.0
H213 H 0.81296 0.26267 0.75771 0.0
H214 H 0.80313 0.30382 0.8216 0.0
H215 H 0.77139 0.2741 0.80289 0.0
H216 H 0.80899 0.31907 0.71699 0.0
H217 H 0.78206 0.28968 0.74253 0.0
H218 H 0.81752 0.27823 0.67014 0.0
H219 H 0.7906 0.24873 0.6961 0.0
H220 H 0.66615 0.16765 0.72244 0.0
H221 H 0.69378 0.19811 0.74471 0.0
H222 H 0.71619 0.16243 0.68663 0.0
H223 H 0.74358 0.19315 0.70835 0.0
H224 H 0.69708 0.14814 0.7962 0.0
H225 H 0.72485 0.1758 0.76916 0.0
H226 H 0.68822 0.19234 0.83496 0.0
H227 H 0.71598 0.21995 0.80772 0.0
N228 N 0.75515 0.23385 0.77967 0.0
N229 N 0.75301 0.23203 0.72775 0.0
C230 C 0.58329 0.73142 0.22868 0.0
C231 C 0.56605 0.72067 0.2116 0.0
C232 C 0.5845 0.74677 0.24384 0.0
C233 C 0.5684 0.75158 0.24243 0.0
C234 C 0.55035 0.72603 0.20965 0.0
C235 C 0.55158 0.7414 0.22481 0.0
C236 C 0.56865 0.76681 0.25961 0.0
C237 C 0.55591 0.71214 0.30644 0.0
C238 C 0.57363 0.71624 0.32178 0.0
C239 C 0.55456 0.72823 0.29547 0.0
C240 C 0.57097 0.74872 0.29948 0.0
C241 C 0.58968 0.73682 0.32647 0.0
C242 C 0.58828 0.75293 0.31549 0.0
C243 C 0.57029 0.76569 0.28648 0.0
C244 C 0.54305 0.82276 0.31935 0.0
C245 C 0.56003 0.83765 0.33429 0.0
C246 C 0.54542 0.80857 0.30591 0.0
C247 C 0.56474 0.80876 0.30725 0.0
C248 C 0.57908 0.83723 0.33641 0.0
C249 C 0.58134 0.82278 0.32315 0.0
C250 C 0.56795 0.79535 0.29042 0.0
C251 C 0.57866 0.85003 0.24608 0.0
C252 C 0.5621 0.84557 0.22862 0.0
C253 C 0.58065 0.83425 0.25683 0.0
C254 C 0.56587 0.81368 0.25068 0.0
C255 C 0.54784 0.82505 0.22168 0.0
C256 C 0.54975 0.80923 0.2326 0.0
C257 C 0.56692 0.79682 0.26357 0.0
H258 H 0.59593 0.72803 0.23028 0.0
H259 H 0.59794 0.75478 0.25683 0.0
H260 H 0.53675 0.71798 0.19689 0.0
H261 H 0.53902 0.7449 0.22333 0.0
H262 H 0.543 0.69648 0.30298 0.0
H263 H 0.5408 0.72467 0.28362 0.0
H264 H 0.60356 0.74049 0.33812 0.0
H265 H 0.60104 0.76868 0.31888 0.0
H266 H 0.52792 0.82217 0.31778 0.0
H267 H 0.53232 0.79769 0.29395 0.0
H268 H 0.59257 0.8485 0.34757 0.0
H269 H 0.59639 0.82318 0.32435 0.0
H270 H 0.59016 0.86574 0.25133 0.0
H271 H 0.59365 0.83811 0.27012 0.0
H272 H 0.53488 0.82117 0.20831 0.0
H273 H 0.53828 0.79347 0.22749 0.0
N274 N 0.56698 0.78235 0.24913 0.0
N275 N 0.56984 0.77997 0.30097 0.0
C276 C 0.81587 0.5331 0.73276 0.0
C277 C 0.81103 0.5208 0.71126 0.0
C278 C 0.79932 0.53134 0.74796 0.0
C279 C 0.77762 0.51693 0.74226 0.0
C280 C 0.78934 0.50637 0.70562 0.0
C281 C 0.77281 0.50449 0.72094 0.0
C282 C 0.75982 0.516 0.75679 0.0
C283 C 0.79463 0.4986 0.81414 0.0
C284 C 0.80595 0.51377 0.83243 0.0
C285 C 0.7795 0.49934 0.79817 0.0
C286 C 0.77526 0.51515 0.8004 0.0
C287 C 0.80156 0.52949 0.8347 0.0
C288 C 0.78618 0.53002 0.81905 0.0
C289 C 0.75916 0.51606 0.78377 0.0
C290 C 0.67071 0.50207 0.80211 0.0
C291 C 0.67547 0.51731 0.81996 0.0
C292 C 0.6873 0.50126 0.79025 0.0
C293 C 0.70896 0.51591 0.79567 0.0
C294 C 0.69717 0.5313 0.82628 0.0
C295 C 0.71375 0.53055 0.81429 0.0
C296 C 0.72666 0.51644 0.7815 0.0
C297 C 0.68903 0.53182 0.72703 0.0
C298 C 0.67994 0.51848 0.70643 0.0
C299 C 0.70485 0.53167 0.74224 0.0
C300 C 0.71136 0.51767 0.73774 0.0
C301 C 0.68717 0.50516 0.70119 0.0
C302 C 0.70269 0.50474 0.71671 0.0
C303 C 0.72739 0.51657 0.75449 0.0
H304 H 0.83244 0.54461 0.73728 0.0
H305 H 0.80351 0.54172 0.76365 0.0
H306 H 0.78515 0.4966 0.68925 0.0
H307 H 0.75621 0.49341 0.716 0.0
H308 H 0.79772 0.48634 0.81193 0.0
H309 H 0.77103 0.48751 0.78417 0.0
H310 H 0.80988 0.54126 0.8488 0.0
H311 H 0.78305 0.54226 0.82124 0.0
H312 H 0.6542 0.49109 0.79676 0.0
H313 H 0.68322 0.48952 0.77634 0.0
H314 H 0.70137 0.54292 0.84039 0.0
H315 H 0.73036 0.5418 0.819 0.0
H316 H 0.68408 0.54253 0.73119 0.0
H317 H 0.71191 0.54248 0.75759 0.0
H318 H 0.68046 0.49473 0.68541 0.0
H319 H 0.70761 0.494 0.71256 0.0
N320 N 0.74386 0.51615 0.74327 0.0
N321 N 0.74265 0.51641 0.79506 0.0
C322 C 0.19594 0.68234 0.23843 0.0
C323 C 0.18893 0.68705 0.21569 0.0
C324 C 0.20936 0.69799 0.25515 0.0
C325 C 0.21538 0.71846 0.24971 0.0
C326 C 0.19472 0.7074 0.2104 0.0
C327 C 0.20775 0.72293 0.22728 0.0
C328 C 0.23163 0.73572 0.26523 0.0
C329 C 0.17725 0.6954 0.32042 0.0
C330 C 0.18311 0.68759 0.34149 0.0
C331 C 0.19306 0.71079 0.30427 0.0
C332 C 0.2151 0.7186 0.30867 0.0
C333 C 0.20521 0.69572 0.34605 0.0
C334 C 0.22096 0.71106 0.32992 0.0
C335 C 0.23224 0.73537 0.29226 0.0
C336 C 0.30158 0.82165 0.31704 0.0
C337 C 0.3114 0.81759 0.33767 0.0
C338 C 0.28697 0.80576 0.30139 0.0
C339 C 0.282 0.78555 0.30599 0.0
C340 C 0.30653 0.79738 0.34209 0.0
C341 C 0.29185 0.7815 0.3265 0.0
C342 C 0.2652 0.76831 0.29101 0.0
C343 C 0.3184 0.80593 0.23225 0.0
C344 C 0.3125 0.8152 0.2129 0.0
C345 C 0.30299 0.79138 0.2495 0.0
C346 C 0.28129 0.78561 0.2477 0.0
C347 C 0.29076 0.80967 0.2117 0.0
C348 C 0.27535 0.79489 0.22864 0.0
C349 C 0.26438 0.76877 0.26408 0.0
H350 H 0.19179 0.66674 0.2427 0.0
H351 H 0.21564 0.69417 0.27175 0.0
H352 H 0.18937 0.71132 0.19301 0.0
H353 H 0.21229 0.73858 0.22249 0.0
H354 H 0.16043 0.68951 0.31626 0.0
H355 H 0.18803 0.71671 0.28848 0.0
H356 H 0.2104 0.69045 0.36236 0.0
H357 H 0.23782 0.71701 0.33404 0.0
H358 H 0.3051 0.83708 0.3131 0.0
H359 H 0.27913 0.80921 0.28615 0.0
H360 H 0.3136 0.79373 0.35804 0.0
H361 H 0.28803 0.76597 0.3306 0.0
H362 H 0.33481 0.80941 0.23367 0.0
H363 H 0.30791 0.78414 0.26372 0.0
H364 H 0.28552 0.81672 0.19762 0.0
H365 H 0.25869 0.79067 0.22685 0.0
N366 N 0.24763 0.75247 0.25235 0.0
N367 N 0.24915 0.75165 0.30399 0.0
C368 C 0.47783 0.17778 0.81461 0.0
C369 C 0.49295 0.18483 0.83453 0.0
C370 C 0.47766 0.19171 0.79696 0.0
C371 C 0.49292 0.21289 0.79864 0.0
C372 C 0.50834 0.20596 0.83599 0.0
C373 C 0.50831 0.21984 0.81824 0.0
C374 C 0.4916 0.22812 0.78203 0.0
C375 C 0.50523 0.19218 0.72624 0.0
C376 C 0.48877 0.18122 0.70833 0.0
C377 C 0.50456 0.20624 0.74217 0.0
C378 C 0.48744 0.20964 0.74049 0.0
C379 C 0.47149 0.18442 0.70697 0.0
C380 C 0.47095 0.19863 0.72272 0.0
C381 C 0.48758 0.22587 0.75552 0.0
C382 C 0.50111 0.30662 0.71987 0.0
C383 C 0.48468 0.29951 0.70146 0.0
C384 C 0.50158 0.29289 0.7376 0.0
C385 C 0.48543 0.2719 0.73746 0.0
C386 C 0.46837 0.27856 0.70166 0.0
C387 C 0.4688 0.26489 0.71942 0.0
C388 C 0.48687 0.25677 0.75405 0.0
C389 C 0.47957 0.29773 0.80879 0.0
C390 C 0.49602 0.30706 0.82715 0.0
C391 C 0.47807 0.28241 0.79322 0.0
C392 C 0.49321 0.27638 0.7954 0.0
C393 C 0.51117 0.30104 0.82918 0.0
C394 C 0.50973 0.28585 0.81356 0.0
C395 C 0.49124 0.25921 0.78051 0.0
H396 H 0.46559 0.16159 0.81328 0.0
H397 H 0.4651 0.18596 0.78265 0.0
H398 H 0.5203 0.21178 0.85104 0.0
H399 H 0.52013 0.23611 0.82007 0.0
H400 H 0.51871 0.18999 0.72778 0.0
H401 H 0.51774 0.21486 0.7553 0.0
H402 H 0.45872 0.17641 0.69316 0.0
H403 H 0.45771 0.20118 0.72087 0.0
H404 H 0.51406 0.32264 0.71992 0.0
H405 H 0.51496 0.29858 0.75079 0.0
H406 H 0.45538 0.27269 0.68788 0.0
H407 H 0.45627 0.24873 0.71885 0.0
H408 H 0.46748 0.30183 0.80701 0.0
H409 H 0.46474 0.27493 0.77998 0.0
H410 H 0.52418 0.30809 0.84288 0.0
H411 H 0.52155 0.28143 0.81575 0.0
N412 N 0.4934 0.24475 0.79335 0.0
N413 N 0.48519 0.2402 0.74268 0.0
H414 H 0.04972 0.47306 0.00969 0.0
H415 H 0.07055 0.47038 0.04447 0.0
H416 H 0.04469 0.49507 0.09625 0.0
H417 H 0.02386 0.49808 0.0611 0.0
H418 H 0.08758 0.51529 0.09925 0.0
H419 H 0.03186 0.44495 0.10323 0.0
H420 H 0.00563 0.41054 0.08708 0.0
H421 H 0.05742 0.40525 0.0585 0.0
H422 H 0.08398 0.43976 0.07415 0.0
H423 H 0.14839 0.50202 0.19918 0.0
H424 H 0.11952 0.50076 0.1735 0.0
H425 H 0.13741 0.47781 0.1102 0.0
H426 H 0.16666 0.47956 0.13538 0.0
H427 H 0.09424 0.45518 0.11917 0.0
H428 H 0.14958 0.52666 0.11023 0.0
H429 H 0.17595 0.56217 0.12285 0.0
H430 H 0.12545 0.56621 0.15802 0.0
H431 H 0.0988 0.53055 0.14604 0.0
C432 C 0.04804 0.47749 0.0286 0.0
C433 C 0.0351 0.48575 0.03264 0.0
C434 C 0.05993 0.47586 0.04855 0.0
C435 C 0.05912 0.48237 0.0731 0.0
C436 C 0.04551 0.48987 0.0775 0.0
C437 C 0.03347 0.49141 0.05746 0.0
C438 C 0.07408 0.48305 0.09321 0.0
C439 C 0.08879 0.50206 0.10403 0.0
C440 C 0.07583 0.46584 0.09917 0.0
C441 C 0.05992 0.44502 0.08976 0.0
C442 C 0.03767 0.43652 0.09335 0.0
C443 C 0.02274 0.41698 0.0843 0.0
C444 C 0.02986 0.40573 0.07174 0.0
C445 C 0.05193 0.41398 0.06823 0.0
C446 C 0.06693 0.43352 0.07723 0.0
C447 C 0.14644 0.49701 0.17966 0.0
C448 C 0.15994 0.49086 0.16944 0.0
C449 C 0.12984 0.49623 0.16503 0.0
C450 C 0.12631 0.48924 0.13988 0.0
C451 C 0.13975 0.48316 0.12961 0.0
C452 C 0.15642 0.48406 0.14413 0.0
C453 C 0.10827 0.48763 0.1244 0.0
C454 C 0.09292 0.46839 0.11459 0.0
C455 C 0.10604 0.50469 0.11923 0.0
C456 C 0.12224 0.52575 0.12767 0.0
C457 C 0.14414 0.53495 0.12112 0.0
C458 C 0.15914 0.55514 0.12807 0.0
C459 C 0.1524 0.56639 0.14138 0.0
C460 C 0.13067 0.55743 0.14786 0.0
C461 C 0.11561 0.53722 0.14102 0.0
H462 H 0.164 0.58209 0.14652 0.0
H463 H 0.01827 0.39061 0.06474 0.0
H464 H 0.53113 0.01333 0.57713 0.0
H465 H 0.55357 0.03034 0.61441 0.0
H466 H 0.60981 0.06244 0.56575 0.0
H467 H 0.58768 0.04536 0.52866 0.0
H468 H 0.6198 0.05257 0.61129 0.0
H469 H 0.57957 0.08271 0.57934 0.0
H470 H 0.54624 0.08192 0.56827 0.0
H471 H 0.52481 0.06664 0.64623 0.0
H472 H 0.55785 0.06682 0.65764 0.0
H473 H 0.69038 0.15228 0.65356 0.0
H474 H 0.66355 0.12173 0.63122 0.0
H475 H 0.62257 0.10064 0.69796 0.0
H476 H 0.64975 0.13099 0.72093 0.0
H477 H 0.6012 0.09911 0.65211 0.0
H478 H 0.64624 0.07601 0.68463 0.0
H479 H 0.68064 0.07835 0.69406 0.0
H480 H 0.6943 0.08249 0.61382 0.0
H481 H 0.66013 0.0805 0.6039 0.0
C482 C 0.54837 0.0236 0.57449 0.0
C483 C 0.55761 0.02826 0.54991 0.0
C484 C 0.56114 0.03336 0.59579 0.0
C485 C 0.58327 0.04793 0.59275 0.0
C486 C 0.59275 0.05131 0.56853 0.0
C487 C 0.58004 0.04159 0.5473 0.0
C488 C 0.59631 0.06138 0.61389 0.0
C489 C 0.61572 0.0627 0.6203 0.0
C490 C 0.59072 0.07429 0.62603 0.0
C491 C 0.57099 0.07442 0.61925 0.0
C492 C 0.56766 0.07899 0.59407 0.0
C493 C 0.54882 0.07866 0.58774 0.0
C494 C 0.53335 0.07413 0.60651 0.0
C495 C 0.53676 0.07004 0.63169 0.0
C496 C 0.55552 0.07021 0.63809 0.0
C497 C 0.67586 0.14102 0.66372 0.0
C498 C 0.67232 0.14404 0.68914 0.0
C499 C 0.6605 0.12359 0.65087 0.0
C500 C 0.64125 0.10883 0.66308 0.0
C501 C 0.63741 0.11185 0.68828 0.0
C502 C 0.65289 0.12926 0.70129 0.0
C503 C 0.62496 0.09068 0.64889 0.0
C504 C 0.60499 0.08855 0.64372 0.0
C505 C 0.63013 0.07719 0.63769 0.0
C506 C 0.65064 0.0782 0.64353 0.0
C507 C 0.65664 0.07756 0.66899 0.0
C508 C 0.6761 0.0788 0.67442 0.0
C509 C 0.68966 0.08059 0.65455 0.0
C510 C 0.68378 0.0811 0.6292 0.0
C511 C 0.66434 0.07988 0.62365 0.0
H512 H 0.70472 0.08156 0.6588 0.0
H513 H 0.51874 0.07379 0.60158 0.0
H514 H 0.56358 0.56685 0.11186 0.0
H515 H 0.56699 0.59525 0.1365 0.0
H516 H 0.53473 0.60841 0.07654 0.0
H517 H 0.5312 0.57999 0.0519 0.0
H518 H 0.57328 0.64379 0.09522 0.0
H519 H 0.50676 0.58542 0.1261 0.0
H520 H 0.48344 0.55026 0.14393 0.0
H521 H 0.52295 0.56656 0.21104 0.0
H522 H 0.54671 0.60175 0.19342 0.0
H523 H 0.5532 0.71166 0.16171 0.0
H524 H 0.54947 0.68335 0.13694 0.0
H525 H 0.57171 0.66334 0.20139 0.0
H526 H 0.5746 0.69109 0.22666 0.0
H527 H 0.53817 0.63123 0.18003 0.0
H528 H 0.60473 0.68957 0.14962 0.0
H529 H 0.62861 0.72462 0.13173 0.0
H530 H 0.58997 0.70853 0.06389 0.0
H531 H 0.56568 0.67344 0.08153 0.0
C532 C 0.55736 0.57589 0.10389 0.0
C533 C 0.54711 0.5712 0.07998 0.0
C534 C 0.55919 0.59201 0.11802 0.0
C535 C 0.55104 0.60386 0.10835 0.0
C536 C 0.54111 0.59943 0.08432 0.0
C537 C 0.53899 0.58313 0.07036 0.0
C538 C 0.55284 0.62086 0.12338 0.0
C539 C 0.56539 0.64107 0.11362 0.0
C540 C 0.54294 0.61727 0.14761 0.0
C541 C 0.52865 0.59615 0.15831 0.0
C542 C 0.51059 0.58145 0.14455 0.0
C543 C 0.49727 0.56153 0.15464 0.0
C544 C 0.50174 0.55616 0.17857 0.0
C545 C 0.51952 0.57073 0.19249 0.0
C546 C 0.53292 0.59067 0.18246 0.0
C547 C 0.55714 0.70115 0.17072 0.0
C548 C 0.56428 0.70373 0.19619 0.0
C549 C 0.55521 0.68508 0.15642 0.0
C550 C 0.56058 0.67134 0.16716 0.0
C551 C 0.56755 0.67378 0.19263 0.0
C552 C 0.56942 0.6898 0.20698 0.0
C553 C 0.55871 0.65431 0.15195 0.0
C554 C 0.54611 0.63404 0.16165 0.0
C555 C 0.56867 0.65787 0.12769 0.0
C556 C 0.58326 0.67894 0.11701 0.0
C557 C 0.60123 0.69355 0.13097 0.0
C558 C 0.61485 0.71342 0.12086 0.0
C559 C 0.61077 0.71881 0.09672 0.0
C560 C 0.59309 0.70434 0.08261 0.0
C561 C 0.5794 0.68445 0.09264 0.0
H562 H 0.62135 0.7342 0.08893 0.0
H563 H 0.4914 0.54073 0.18635 0.0
H564 H 0.97607 0.54299 0.59215 0.0
H565 H 0.94928 0.54096 0.62172 0.0
H566 H 0.91364 0.54532 0.55818 0.0
H567 H 0.94056 0.5475 0.52851 0.0
H568 H 0.91396 0.56717 0.59787 0.0
H569 H 0.89882 0.49904 0.58512 0.0
H570 H 0.90705 0.47168 0.58374 0.0
H571 H 0.92185 0.47834 0.66378 0.0
H572 H 0.91405 0.506 0.66556 0.0
H573 H 0.81225 0.52378 0.65925 0.0
H574 H 0.84134 0.52926 0.63086 0.0
H575 H 0.87841 0.53005 0.69603 0.0
H576 H 0.84922 0.5244 0.7246 0.0
H577 H 0.87762 0.50586 0.65609 0.0
H578 H 0.8918 0.57397 0.66816 0.0
H579 H 0.88277 0.60081 0.66858 0.0
H580 H 0.86847 0.5931 0.58844 0.0
H581 H 0.87711 0.56599 0.58762 0.0
C582 C 0.9626 0.54366 0.58453 0.0
C583 C 0.96025 0.54517 0.55804 0.0
C584 C 0.94731 0.54248 0.60141 0.0
C585 C 0.92924 0.54254 0.59209 0.0
C586 C 0.92743 0.54515 0.56574 0.0
C587 C 0.94284 0.54648 0.54882 0.0
C588 C 0.91182 0.539 0.60977 0.0
C589 C 0.90584 0.55366 0.61038 0.0
C590 C 0.90148 0.52149 0.62638 0.0
C591 C 0.90605 0.50475 0.62542 0.0
C592 C 0.90399 0.49479 0.60239 0.0
C593 C 0.90856 0.47922 0.60154 0.0
C594 C 0.91501 0.47331 0.62364 0.0
C595 C 0.91687 0.48295 0.64666 0.0
C596 C 0.91237 0.49857 0.64761 0.0
C597 C 0.82651 0.52494 0.66751 0.0
C598 C 0.82849 0.52365 0.69412 0.0
C599 C 0.84316 0.52822 0.6513 0.0
C600 C 0.86206 0.53022 0.6614 0.0
C601 C 0.86395 0.5286 0.68791 0.0
C602 C 0.84736 0.52549 0.70418 0.0
C603 C 0.87983 0.53405 0.64418 0.0
C604 C 0.88582 0.51941 0.64363 0.0
C605 C 0.89004 0.55146 0.62747 0.0
C606 C 0.8849 0.56781 0.62789 0.0
C607 C 0.88655 0.57787 0.65068 0.0
C608 C 0.88154 0.59316 0.65098 0.0
C609 C 0.875 0.59862 0.62857 0.0
C610 C 0.87351 0.58884 0.6058 0.0
C611 C 0.87848 0.57352 0.6054 0.0
H612 H 0.87113 0.61046 0.62884 0.0
H613 H 0.91849 0.46122 0.62296 0.0
H614 H 0.42351 0.94587 0.02929 0.0
H615 H 0.39697 0.91753 0.05683 0.0
H616 H 0.4484 0.92354 0.10473 0.0
H617 H 0.47491 0.95077 0.0764 0.0
H618 H 0.42021 0.88606 0.10441 0.0
H619 H 0.41613 0.94532 0.11838 0.0
H620 H 0.41182 0.97443 0.10696 0.0
H621 H 0.3479 0.93247 0.0794 0.0
H622 H 0.35195 0.90311 0.09034 0.0
H623 H 0.35603 0.8435 0.21956 0.0
H624 H 0.38217 0.86747 0.18781 0.0
H625 H 0.33201 0.84565 0.1312 0.0
H626 H 0.30597 0.82088 0.16219 0.0
H627 H 0.35875 0.89021 0.1358 0.0
H628 H 0.36518 0.83063 0.12745 0.0
H629 H 0.37213 0.804 0.14312 0.0
H630 H 0.43575 0.8508 0.16658 0.0
H631 H 0.429 0.87772 0.15154 0.0
C632 C 0.42913 0.9408 0.04539 0.0
C633 C 0.45131 0.95058 0.05062 0.0
C634 C 0.41393 0.92475 0.06135 0.0
C635 C 0.42054 0.91865 0.08341 0.0
C636 C 0.44276 0.92784 0.08794 0.0
C637 C 0.45796 0.94348 0.07164 0.0
C638 C 0.40447 0.90325 0.10224 0.0
C639 C 0.40699 0.88722 0.11148 0.0
C640 C 0.38695 0.90445 0.1115 0.0
C641 C 0.38444 0.92204 0.10491 0.0
C642 C 0.40122 0.94232 0.10971 0.0
C643 C 0.39881 0.95885 0.10335 0.0
C644 C 0.37962 0.9553 0.09239 0.0
C645 C 0.36277 0.93519 0.08784 0.0
C646 C 0.3651 0.9186 0.09413 0.0
C647 C 0.35052 0.84348 0.20029 0.0
C648 C 0.32868 0.83013 0.19368 0.0
C649 C 0.36553 0.85733 0.18218 0.0
C650 C 0.35904 0.85834 0.15714 0.0
C651 C 0.33734 0.84521 0.15046 0.0
C652 C 0.32241 0.83114 0.16838 0.0
C653 C 0.37473 0.87331 0.13794 0.0
C654 C 0.37207 0.8892 0.12868 0.0
C655 C 0.39255 0.87242 0.12939 0.0
C656 C 0.39648 0.85619 0.13863 0.0
C657 C 0.38055 0.83525 0.13623 0.0
C658 C 0.38447 0.8201 0.14495 0.0
C659 C 0.40434 0.8257 0.15592 0.0
C660 C 0.42034 0.84647 0.15815 0.0
C661 C 0.41647 0.86168 0.14953 0.0
H662 H 0.40735 0.81395 0.16262 0.0
H663 H 0.37779 0.96812 0.08749 0.0
H664 H 0.48105 0.39901 0.49991 0.0
H665 H 0.48066 0.37513 0.53244 0.0
H666 H 0.49208 0.41836 0.59104 0.0
H667 H 0.49256 0.44214 0.55879 0.0
H668 H 0.51815 0.40311 0.59639 0.0
H669 H 0.44261 0.37684 0.5832 0.0
H670 H 0.40947 0.36377 0.55769 0.0
H671 H 0.41471 0.3134 0.53341 0.0
H672 H 0.44808 0.32634 0.55852 0.0
H673 H 0.49274 0.33844 0.70689 0.0
H674 H 0.49363 0.36173 0.67327 0.0
H675 H 0.47873 0.31585 0.61702 0.0
H676 H 0.47767 0.29252 0.6505 0.0
H677 H 0.45497 0.33227 0.60953 0.0
H678 H 0.52991 0.35785 0.62397 0.0
H679 H 0.56327 0.37113 0.64909 0.0
H680 H 0.55965 0.42301 0.67054 0.0
H681 H 0.52606 0.40987 0.64588 0.0
C682 C 0.48339 0.40331 0.51975 0.0
C683 C 0.48699 0.42247 0.52679 0.0
C684 C 0.48316 0.38972 0.53828 0.0
C685 C 0.48628 0.395 0.56413 0.0
C686 C 0.48976 0.41405 0.57118 0.0
C687 C 0.49012 0.42766 0.5527 0.0
C688 C 0.48601 0.38076 0.58398 0.0
C689 C 0.50426 0.38768 0.59949 0.0
C690 C 0.46806 0.36052 0.58754 0.0
C691 C 0.44796 0.35268 0.57252 0.0
C692 C 0.4368 0.36307 0.57226 0.0
C693 C 0.41795 0.35567 0.5579 0.0
C694 C 0.41002 0.3378 0.54388 0.0
C695 C 0.42089 0.32726 0.54425 0.0
C696 C 0.43976 0.33461 0.55855 0.0
C697 C 0.48977 0.3334 0.68733 0.0
C698 C 0.48509 0.31366 0.68131 0.0
C699 C 0.49031 0.3467 0.66815 0.0
C700 C 0.48647 0.34059 0.6426 0.0
C701 C 0.48169 0.32086 0.6366 0.0
C702 C 0.48102 0.30753 0.65576 0.0
C703 C 0.4871 0.35461 0.6221 0.0
C704 C 0.46891 0.34766 0.60643 0.0
C705 C 0.50513 0.37483 0.61839 0.0
C706 C 0.52531 0.38273 0.6333 0.0
C707 C 0.53611 0.37198 0.63424 0.0
C708 C 0.55508 0.37951 0.64836 0.0
C709 C 0.56354 0.39787 0.66147 0.0
C710 C 0.55306 0.40877 0.66042 0.0
C711 C 0.53405 0.40129 0.64637 0.0
H712 H 0.57824 0.40368 0.67237 0.0
H713 H 0.39543 0.3321 0.53278 0.0
H714 H 0.51537 0.9708 0.39723 0.0
H715 H 0.52199 0.94487 0.38153 0.0
H716 H 0.55984 0.95147 0.44849 0.0
H717 H 0.55317 0.97753 0.4644 0.0
H718 H 0.5789 0.94953 0.40341 0.0
H719 H 0.51187 0.91168 0.44671 0.0
H720 H 0.47467 0.90063 0.45888 0.0
H721 H 0.45343 0.88153 0.38224 0.0
H722 H 0.49064 0.89286 0.36943 0.0
H723 H 0.5755 0.85507 0.38119 0.0
H724 H 0.57187 0.88167 0.40125 0.0
H725 H 0.53588 0.88313 0.33631 0.0
H726 H 0.54014 0.8573 0.31563 0.0
H727 H 0.51639 0.88013 0.38427 0.0
H728 H 0.58548 0.92046 0.34156 0.0
H729 H 0.62277 0.93031 0.33168 0.0
H730 H 0.63998 0.94337 0.4106 0.0
H731 H 0.60268 0.93331 0.42101 0.0
C732 C 0.52524 0.96691 0.40854 0.0
C733 C 0.53361 0.97616 0.43215 0.0
C734 C 0.52892 0.95198 0.3996 0.0
C735 C 0.54123 0.9461 0.41397 0.0
C736 C 0.55022 0.95574 0.43716 0.0
C737 C 0.5463 0.97052 0.44628 0.0
C738 C 0.54429 0.92961 0.4048 0.0
C739 C 0.56526 0.93425 0.3996 0.0
C740 C 0.52647 0.90973 0.39967 0.0
C741 C 0.50411 0.9033 0.40705 0.0
C742 C 0.49933 0.90536 0.43235 0.0
C743 C 0.47823 0.89899 0.43939 0.0
C744 C 0.4617 0.89034 0.42136 0.0
C745 C 0.46626 0.88817 0.3962 0.0
C746 C 0.48736 0.89459 0.38903 0.0
C747 C 0.56704 0.86121 0.37099 0.0
C748 C 0.55799 0.85385 0.34681 0.0
C749 C 0.5649 0.87634 0.38257 0.0
C750 C 0.55356 0.88432 0.37027 0.0
C751 C 0.54453 0.87705 0.34621 0.0
C752 C 0.54687 0.86214 0.33451 0.0
C753 C 0.55094 0.90018 0.38241 0.0
C754 C 0.53002 0.89538 0.38821 0.0
C755 C 0.56881 0.9198 0.38836 0.0
C756 C 0.59123 0.9259 0.38211 0.0
C757 C 0.59716 0.92524 0.35685 0.0
C758 C 0.61831 0.9309 0.35114 0.0
C759 C 0.63372 0.9374 0.37052 0.0
C760 C 0.62802 0.9383 0.39563 0.0
C761 C 0.60688 0.93263 0.40144 0.0
H762 H 0.65009 0.94178 0.36606 0.0
H763 H 0.44535 0.88528 0.42693 0.0
H764 H 0.51577 0.50184 0.94165 0.0
H765 H 0.53691 0.49989 0.90743 0.0
H766 H 0.5858 0.56386 0.91646 0.0
H767 H 0.56498 0.56595 0.9513 0.0
H768 H 0.57873 0.54707 0.86301 0.0
H769 H 0.59328 0.53636 0.95052 0.0
H770 H 0.58302 0.52061 0.99372 0.0
H771 H 0.55752 0.46081 0.96264 0.0
H772 H 0.56686 0.47609 0.91905 0.0
H773 H 0.67535 0.55224 0.82942 0.0
H774 H 0.64689 0.55488 0.84947 0.0
H775 H 0.60704 0.48868 0.85577 0.0
H776 H 0.63587 0.48593 0.83678 0.0
H777 H 0.60713 0.5053 0.89908 0.0
H778 H 0.59641 0.51662 0.81142 0.0
H779 H 0.60702 0.53281 0.76842 0.0
H780 H 0.62622 0.59146 0.79939 0.0
H781 H 0.616 0.57569 0.84263 0.0
C782 C 0.53065 0.51575 0.93586 0.0
C783 C 0.53899 0.53395 0.94968 0.0
C784 C 0.54267 0.51457 0.91622 0.0
C785 C 0.56301 0.53164 0.90982 0.0
C786 C 0.57012 0.55053 0.92127 0.0
C787 C 0.55823 0.55166 0.94122 0.0
C788 C 0.57831 0.52874 0.89509 0.0
C789 C 0.58508 0.53805 0.87082 0.0
C790 C 0.58623 0.51668 0.90531 0.0
C791 C 0.58047 0.50736 0.93146 0.0
C792 C 0.58516 0.51981 0.95282 0.0
C793 C 0.57952 0.51096 0.97738 0.0
C794 C 0.56955 0.4897 0.98088 0.0
C795 C 0.56516 0.47725 0.95983 0.0
C796 C 0.57054 0.48599 0.93519 0.0
C797 C 0.66061 0.53823 0.83525 0.0
C798 C 0.65793 0.51887 0.8316 0.0
C799 C 0.64421 0.53976 0.84636 0.0
C800 C 0.6247 0.52197 0.85376 0.0
C801 C 0.62192 0.50261 0.85004 0.0
C802 C 0.63836 0.50107 0.83904 0.0
C803 C 0.60771 0.5236 0.86672 0.0
C804 C 0.60064 0.5141 0.8909 0.0
C805 C 0.59959 0.53549 0.85634 0.0
C806 C 0.60559 0.54499 0.83032 0.0
C807 C 0.60303 0.533 0.8091 0.0
C808 C 0.60895 0.54209 0.78467 0.0
C809 C 0.61733 0.56315 0.78121 0.0
C810 C 0.61974 0.57515 0.80212 0.0
C811 C 0.61386 0.56614 0.82659 0.0
H812 H 0.62194 0.57017 0.76233 0.0
H813 H 0.56535 0.48288 0.99991 0.0
H814 H 0.0361 0.55929 0.50648 0.0
H815 H 0.05428 0.58354 0.4704 0.0
H816 H 0.10135 0.56571 0.46818 0.0
H817 H 0.08341 0.5419 0.50423 0.0
H818 H 0.1207 0.60579 0.47273 0.0
H819 H 0.06528 0.55566 0.41601 0.0
H820 H 0.02858 0.53286 0.39932 0.0
H821 H 0.01757 0.58268 0.39851 0.0
H822 H 0.05465 0.60612 0.41397 0.0
H823 H 0.18282 0.6545 0.36326 0.0
H824 H 0.15683 0.62882 0.39352 0.0
H825 H 0.11919 0.65727 0.38929 0.0
H826 H 0.1454 0.68332 0.35906 0.0
H827 H 0.09332 0.61477 0.38946 0.0
H828 H 0.15096 0.66568 0.44034 0.0
H829 H 0.18892 0.68876 0.4529 0.0
H830 H 0.19545 0.63669 0.46618 0.0
H831 H 0.1576 0.61331 0.45336 0.0
C832 C 0.04978 0.56001 0.49758 0.0
C833 C 0.05821 0.54859 0.50797 0.0
C834 C 0.0603 0.57397 0.47705 0.0
C835 C 0.07934 0.57661 0.46658 0.0
C836 C 0.08686 0.56418 0.47602 0.0
C837 C 0.07655 0.5505 0.49659 0.0
C838 C 0.09298 0.59377 0.44807 0.0
C839 C 0.11468 0.60759 0.45444 0.0
C840 C 0.08509 0.59679 0.42462 0.0
C841 C 0.06263 0.58258 0.41631 0.0
C842 C 0.05501 0.56174 0.41236 0.0
C843 C 0.03418 0.54872 0.40306 0.0
C844 C 0.02064 0.55621 0.39825 0.0
C845 C 0.02804 0.57687 0.40235 0.0
C846 C 0.04903 0.59008 0.41114 0.0
C847 C 0.16911 0.65544 0.36883 0.0
C848 C 0.16642 0.6712 0.35888 0.0
C849 C 0.15417 0.64064 0.38612 0.0
C850 C 0.13616 0.64124 0.39405 0.0
C851 C 0.13296 0.6565 0.38353 0.0
C852 C 0.14796 0.67136 0.36618 0.0
C853 C 0.12114 0.6262 0.41379 0.0
C854 C 0.09922 0.61303 0.40786 0.0
C855 C 0.12878 0.62376 0.43777 0.0
C856 C 0.15147 0.63776 0.44578 0.0
C857 C 0.16052 0.65916 0.44582 0.0
C858 C 0.18202 0.6723 0.45299 0.0
C859 C 0.19459 0.6642 0.46031 0.0
C860 C 0.18568 0.64294 0.46052 0.0
C861 C 0.1642 0.62974 0.45333 0.0
H862 H 0.21124 0.67439 0.46584 0.0
H863 H 0.00447 0.54603 0.39118 0.0
H864 H 0.48853 0.07763 0.03232 0.0
H865 H 0.4873 0.10162 1.00142 0.0
H866 H 0.48375 0.06373 0.93969 0.0
H867 H 0.48481 0.03975 0.97028 0.0
H868 H 0.5151 0.10371 0.93198 0.0
H869 H 0.44028 0.06493 0.95601 0.0
H870 H 0.40947 0.0498 0.98592 0.0
H871 H 0.42863 0.11009 0.011 0.0
H872 H 0.45975 0.12557 0.98147 0.0
H873 H 0.48913 0.14776 0.82777 0.0
H874 H 0.48766 0.12385 0.86095 0.0
H875 H 0.49327 0.16527 0.91914 0.0
H876 H 0.49462 0.18916 0.8861 0.0
H877 H 0.46141 0.12474 0.92994 0.0
H878 H 0.53551 0.16355 0.90445 0.0
H879 H 0.56675 0.17848 0.87525 0.0
H880 H 0.54968 0.11793 0.85383 0.0
H881 H 0.51805 0.10261 0.8825 0.0
C882 C 0.48713 0.07427 0.0122 0.0
C883 C 0.48699 0.05691 0.00373 0.0
C884 C 0.48647 0.08798 0.99458 0.0
C885 C 0.48548 0.08443 0.96829 0.0
C886 C 0.48468 0.06681 0.95989 0.0
C887 C 0.48539 0.05318 0.97741 0.0
C888 C 0.48638 0.09951 0.9493 0.0
C889 C 0.50322 0.10811 0.93134 0.0
C890 C 0.47118 0.10565 0.94897 0.0
C891 C 0.45249 0.09639 0.96674 0.0
C892 C 0.43805 0.07495 0.96807 0.0
C893 C 0.4205 0.06631 0.98492 0.0
C894 C 0.41713 0.07897 1.00041 0.0
C895 C 0.43128 0.1003 0.99902 0.0
C896 C 0.44887 0.10901 0.98222 0.0
C897 C 0.48998 0.1517 0.84765 0.0
C898 C 0.49213 0.17034 0.8544 0.0
C899 C 0.48924 0.13811 0.86653 0.0
C900 C 0.49051 0.14291 0.89244 0.0
C901 C 0.49232 0.16135 0.89924 0.0
C902 C 0.49326 0.17502 0.88037 0.0
C903 C 0.49002 0.12869 0.91245 0.0
C904 C 0.47331 0.12032 0.93064 0.0
C905 C 0.50537 0.12273 0.91302 0.0
C906 C 0.52417 0.13193 0.89535 0.0
C907 C 0.53821 0.15341 0.89324 0.0
C908 C 0.55604 0.16194 0.87683 0.0
C909 C 0.56014 0.14917 0.86261 0.0
C910 C 0.54644 0.12781 0.86479 0.0
C911 C 0.52854 0.1192 0.8811 0.0
H912 H 0.57399 0.15581 0.84996 0.0
H913 H 0.40353 0.07226 0.01343 0.0
H914 H 0.46878 0.54037 0.45766 0.0
H915 H 0.43837 0.53668 0.43303 0.0
H916 H 0.40431 0.47083 0.44465 0.0
H917 H 0.43481 0.47436 0.4691 0.0
H918 H 0.40405 0.4806 0.39535 0.0
H919 H 0.38782 0.49981 0.47414 0.0
H920 H 0.3951 0.52088 0.51212 0.0
H921 H 0.40968 0.57299 0.46403 0.0
H922 H 0.40278 0.55231 0.42573 0.0
H923 H 0.30653 0.46271 0.33815 0.0
H924 H 0.33317 0.46423 0.36828 0.0
H925 H 0.37056 0.53038 0.35999 0.0
H926 H 0.34407 0.52898 0.32979 0.0
H927 H 0.36752 0.5189 0.40927 0.0
H928 H 0.38569 0.50032 0.33068 0.0
H929 H 0.37873 0.47948 0.29254 0.0
H930 H 0.36081 0.42634 0.34032 0.0
H931 H 0.36737 0.44681 0.37877 0.0
C932 C 0.45469 0.52511 0.45538 0.0
C933 C 0.4543 0.50767 0.46537 0.0
C934 C 0.43725 0.52302 0.4413 0.0
C935 C 0.41897 0.50347 0.43701 0.0
C936 C 0.41824 0.48607 0.44765 0.0
C937 C 0.43567 0.48814 0.46176 0.0
C938 C 0.40126 0.50112 0.42014 0.0
C939 C 0.39579 0.48869 0.39868 0.0
C940 C 0.39082 0.51206 0.42405 0.0
C941 C 0.39496 0.52455 0.44705 0.0
C942 C 0.39275 0.51581 0.47165 0.0
C943 C 0.39677 0.52767 0.49324 0.0
C944 C 0.40289 0.54827 0.49049 0.0
C945 C 0.40496 0.55704 0.46614 0.0
C946 C 0.40096 0.54524 0.44448 0.0
C947 C 0.32054 0.47757 0.34252 0.0
C948 C 0.32314 0.49572 0.33147 0.0
C949 C 0.33574 0.47843 0.35983 0.0
C950 C 0.35399 0.49742 0.36631 0.0
C951 C 0.35658 0.51555 0.3554 0.0
C952 C 0.34138 0.51472 0.33815 0.0
C953 C 0.37042 0.49848 0.38443 0.0
C954 C 0.37567 0.51069 0.40608 0.0
C955 C 0.38069 0.48737 0.38068 0.0
C956 C 0.37679 0.47505 0.35759 0.0
C957 C 0.38009 0.48415 0.33305 0.0
C958 C 0.37625 0.47241 0.31138 0.0
C959 C 0.36927 0.45158 0.314 0.0
C960 C 0.36617 0.44247 0.33832 0.0
C961 C 0.36996 0.45413 0.36005 0.0
H962 H 0.36631 0.44252 0.2972 0.0
H963 H 0.406 0.55743 0.50723 0.0
H964 H 0.99878 0.47212 0.87094 0.0
H965 H 0.97314 0.44209 0.84644 0.0
H966 H 0.93199 0.41619 0.91282 0.0
H967 H 0.95771 0.44532 0.93757 0.0
H968 H 0.93691 0.38811 0.89068 0.0
H969 H 0.9211 0.44002 0.86199 0.0
H970 H 0.93026 0.47331 0.84216 0.0
H971 H 0.94924 0.45774 0.77322 0.0
H972 H 0.94034 0.42446 0.7928 0.0
H973 H 0.83365 0.31377 0.84945 0.0
H974 H 0.86534 0.34443 0.86617 0.0
H975 H 0.89487 0.35938 0.79141 0.0
H976 H 0.86279 0.32918 0.77428 0.0
H977 H 0.90044 0.39284 0.81267 0.0
H978 H 0.91196 0.33942 0.83823 0.0
H979 H 0.90307 0.30596 0.85704 0.0
H980 H 0.89374 0.32399 0.93037 0.0
H981 H 0.90227 0.35746 0.91193 0.0
C982 C 0.98437 0.45997 0.88038 0.0
C983 C 0.98039 0.4613 0.9063 0.0
C984 C 0.96962 0.4429 0.86626 0.0
C985 C 0.95059 0.42696 0.87777 0.0
C986 C 0.94659 0.4283 0.90354 0.0
C987 C 0.96129 0.44519 0.91764 0.0
C988 C 0.93476 0.40857 0.86349 0.0
C989 C 0.92882 0.38913 0.87371 0.0
C990 C 0.92491 0.40991 0.84072 0.0
C991 C 0.93032 0.42992 0.82899 0.0
C992 C 0.9274 0.44382 0.84271 0.0
C993 C 0.9325 0.46264 0.8315 0.0
C994 C 0.94042 0.46768 0.80649 0.0
C995 C 0.94316 0.45385 0.79262 0.0
C996 C 0.93807 0.435 0.80376 0.0
C997 C 0.84679 0.32366 0.83651 0.0
C998 C 0.84573 0.31897 0.81057 0.0
C999 C 0.86501 0.34106 0.84615 0.0
C1000 C 0.88263 0.354 0.83012 0.0
C1001 C 0.88153 0.34952 0.80415 0.0
C1002 C 0.86326 0.33216 0.79446 0.0
C1003 C 0.90196 0.37239 0.84052 0.0
C1004 C 0.90868 0.39178 0.82946 0.0
C1005 C 0.9127 0.37102 0.86241 0.0
C1006 C 0.90761 0.35091 0.87364 0.0
C1007 C 0.90786 0.3362 0.85833 0.0
C1008 C 0.90291 0.31724 0.86893 0.0
C1009 C 0.89781 0.31284 0.89487 0.0
C1010 C 0.89769 0.32742 0.91028 0.0
C1011 C 0.90261 0.3464 0.89976 0.0
H1012 H 0.89399 0.29815 0.90305 0.0
H1013 H 0.94436 0.48226 0.79783 0.0
H1014 H 0.94055 0.49344 0.98046 0.0
H1015 H 0.90721 0.48969 0.96327 0.0
H1016 H 0.94452 0.54886 0.92482 0.0
H1017 H 0.9776 0.55282 0.94208 0.0
H1018 H 0.90711 0.54291 0.94472 0.0
H1019 H 0.92944 0.50356 0.89514 0.0
H1020 H 0.93813 0.47649 0.89341 0.0
H1021 H 0.8742 0.43141 0.91954 0.0
H1022 H 0.8653 0.45828 0.92198 0.0
H1023 H 0.84705 0.5453 0.84137 0.0
H1024 H 0.87409 0.54507 0.86905 0.0
H1025 H 0.82894 0.48131 0.8893 0.0
H1026 H 0.8021 0.48133 0.86067 0.0
H1027 H 0.86624 0.48604 0.88444 0.0
H1028 H 0.84144 0.52222 0.93062 0.0
H1029 H 0.83162 0.54794 0.93822 0.0
H1030 H 0.89711 0.59673 0.92389 0.0
H1031 H 0.90728 0.57131 0.91584 0.0
C1032 C 0.94157 0.50582 0.96879 0.0
C1033 C 0.96174 0.52335 0.96246 0.0
C1034 C 0.92253 0.50361 0.95885 0.0
C1035 C 0.92339 0.51886 0.9424 0.0
C1036 C 0.94342 0.53686 0.93737 0.0
C1037 C 0.96236 0.53905 0.94721 0.0
C1038 C 0.90392 0.51581 0.92882 0.0
C1039 C 0.8982 0.53054 0.93145 0.0
C1040 C 0.89181 0.49924 0.91218 0.0
C1041 C 0.89678 0.48296 0.909 0.0
C1042 C 0.91725 0.48787 0.90054 0.0
C1043 C 0.92223 0.47258 0.89951 0.0
C1044 C 0.90676 0.45227 0.90651 0.0
C1045 C 0.88619 0.44716 0.91423 0.0
C1046 C 0.88117 0.46241 0.91545 0.0
C1047 C 0.84289 0.53126 0.85178 0.0
C1048 C 0.82241 0.51339 0.84902 0.0
C1049 C 0.85833 0.53114 0.86773 0.0
C1050 C 0.85347 0.51331 0.88188 0.0
C1051 C 0.83312 0.49531 0.87876 0.0
C1052 C 0.81777 0.49532 0.8624 0.0
C1053 C 0.86975 0.51357 0.89971 0.0
C1054 C 0.87488 0.49831 0.89789 0.0
C1055 C 0.88108 0.52946 0.91751 0.0
C1056 C 0.87508 0.54484 0.92245 0.0
C1057 C 0.85373 0.53843 0.92893 0.0
C1058 C 0.8481 0.55296 0.93333 0.0
C1059 C 0.86372 0.57395 0.93149 0.0
C1060 C 0.88502 0.58046 0.92529 0.0
C1061 C 0.89073 0.566 0.92084 0.0
H1062 H 0.85933 0.58518 0.93491 0.0
H1063 H 0.91069 0.44048 0.90598 0.0
H1064 H 0.45886 0.9476 0.48597 0.0
H1065 H 0.43097 0.91778 0.46316 0.0
H1066 H 0.39457 0.94716 0.45306 0.0
H1067 H 0.42275 0.97741 0.47536 0.0
H1068 H 0.36937 0.90181 0.46492 0.0
H1069 H 0.42252 0.95358 0.4083 0.0
H1070 H 0.45923 0.97838 0.39243 0.0
H1071 H 0.4704 0.92925 0.38222 0.0
H1072 H 0.43371 0.90412 0.39834 0.0
H1073 H 0.30607 0.84729 0.35763 0.0
H1074 H 0.33008 0.87441 0.3868 0.0
H1075 H 0.37366 0.85235 0.38671 0.0
H1076 H 0.34993 0.82543 0.35707 0.0
H1077 H 0.39482 0.89402 0.38086 0.0
H1078 H 0.34099 0.84207 0.43707 0.0
H1079 H 0.304 0.81757 0.45252 0.0
H1080 H 0.29372 0.86731 0.46244 0.0
H1081 H 0.33057 0.89209 0.44669 0.0
C1082 C 0.44466 0.94753 0.47953 0.0
C1083 C 0.44303 0.9649 0.4823 0.0
C1084 C 0.4288 0.93051 0.46642 0.0
C1085 C 0.41089 0.93044 0.45628 0.0
C1086 C 0.40832 0.94701 0.46078 0.0
C1087 C 0.42442 0.96425 0.47347 0.0
C1088 C 0.39616 0.91409 0.43877 0.0
C1089 C 0.3748 0.90018 0.44642 0.0
C1090 C 0.40348 0.91193 0.41483 0.0
C1091 C 0.42554 0.927 0.40511 0.0
C1092 C 0.4329 0.94807 0.40308 0.0
C1093 C 0.45366 0.96219 0.39391 0.0
C1094 C 0.46715 0.9554 0.38641 0.0
C1095 C 0.45993 0.93448 0.38812 0.0
C1096 C 0.43916 0.9203 0.39729 0.0
C1097 C 0.32087 0.84833 0.36364 0.0
C1098 C 0.32613 0.83424 0.35506 0.0
C1099 C 0.33445 0.86369 0.3805 0.0
C1100 C 0.35351 0.86522 0.38914 0.0
C1101 C 0.35896 0.85136 0.38036 0.0
C1102 C 0.34534 0.83594 0.36356 0.0
C1103 C 0.36797 0.88151 0.40701 0.0
C1104 C 0.38934 0.89552 0.39939 0.0
C1105 C 0.36061 0.88378 0.4309 0.0
C1106 C 0.33847 0.86892 0.44046 0.0
C1107 C 0.33078 0.84777 0.44234 0.0
C1108 C 0.30985 0.83383 0.45119 0.0
C1109 C 0.2965 0.84087 0.45839 0.0
C1110 C 0.30407 0.86187 0.45682 0.0
C1111 C 0.32499 0.87588 0.44796 0.0
H1112 H 0.2803 0.83006 0.46525 0.0
H1113 H 0.48311 0.96635 0.37904 0.0
H1114 H 0.51638 0.42351 0.01179 0.0
H1115 H 0.51396 0.39901 0.98103 0.0
H1116 H 0.50693 0.43375 0.91981 0.0
H1117 H 0.5098 0.45859 0.95017 0.0
H1118 H 0.47715 0.39237 0.91682 0.0
H1119 H 0.55437 0.43583 0.92433 0.0
H1120 H 0.58916 0.45464 0.94701 0.0
H1121 H 0.57664 0.39816 0.98257 0.0
H1122 H 0.5418 0.37903 0.96005 0.0
H1123 H 0.49103 0.33948 0.81541 0.0
H1124 H 0.49403 0.36555 0.84429 0.0
H1125 H 0.50645 0.33576 0.90725 0.0
H1126 H 0.50365 0.30985 0.8785 0.0
H1127 H 0.53393 0.37572 0.90827 0.0
H1128 H 0.45703 0.33193 0.89915 0.0
H1129 H 0.42267 0.31328 0.87569 0.0
H1130 H 0.43412 0.37032 0.84323 0.0
H1131 H 0.46871 0.38929 0.86624 0.0
C1132 C 0.51453 0.42615 0.99182 0.0
C1133 C 0.51321 0.44316 0.98373 0.0
C1134 C 0.51313 0.41206 0.97421 0.0
C1135 C 0.51037 0.4146 0.94809 0.0
C1136 C 0.50895 0.43142 0.93989 0.0
C1137 C 0.51044 0.44558 0.95744 0.0
C1138 C 0.50849 0.39942 0.92943 0.0
C1139 C 0.48969 0.38892 0.91466 0.0
C1140 C 0.52463 0.39462 0.92697 0.0
C1141 C 0.54542 0.40606 0.94074 0.0
C1142 C 0.55899 0.42746 0.93713 0.0
C1143 C 0.57874 0.43816 0.94988 0.0
C1144 C 0.58506 0.42761 0.96631 0.0
C1145 C 0.5717 0.40632 0.96989 0.0
C1146 C 0.55199 0.39553 0.95708 0.0
C1147 C 0.4942 0.3384 0.83546 0.0
C1148 C 0.49718 0.32264 0.84464 0.0
C1149 C 0.4959 0.3533 0.85196 0.0
C1150 C 0.50031 0.35256 0.87804 0.0
C1151 C 0.50314 0.33674 0.88722 0.0
C1152 C 0.50158 0.32195 0.87074 0.0
C1153 C 0.50247 0.36846 0.89574 0.0
C1154 C 0.52136 0.37914 0.91035 0.0
C1155 C 0.48637 0.37338 0.89803 0.0
C1156 C 0.46557 0.362 0.88421 0.0
C1157 C 0.45231 0.34048 0.88685 0.0
C1158 C 0.43277 0.32985 0.87366 0.0
C1159 C 0.42624 0.3406 0.85793 0.0
C1160 C 0.43921 0.36201 0.8554 0.0
C1161 C 0.45877 0.37271 0.86852 0.0
H1162 H 0.41111 0.33235 0.84774 0.0
H1163 H 0.60033 0.43593 0.97621 0.0
H1164 H 0.0625 0.5172 0.46079 0.0
H1165 H 0.08702 0.51425 0.43303 0.0
H1166 H 0.03855 0.48959 0.37411 0.0
H1167 H 0.01324 0.49127 0.4026 0.0
H1168 H 0.05724 0.46868 0.37665 0.0
H1169 H 0.0846 0.54121 0.3699 0.0
H1170 H 0.09851 0.57656 0.38405 0.0
H1171 H 0.14912 0.5758 0.42563 0.0
H1172 H 0.13573 0.54056 0.41145 0.0
H1173 H 0.13641 0.48392 0.28295 0.0
H1174 H 0.10832 0.485 0.30674 0.0
H1175 H 0.14764 0.50187 0.37451 0.0
H1176 H 0.17558 0.50045 0.35108 0.0
H1177 H 0.13242 0.52726 0.36375 0.0
H1178 H 0.10464 0.45444 0.36983 0.0
H1179 H 0.09218 0.42024 0.35269 0.0
H1180 H 0.04212 0.42191 0.31094 0.0
H1181 H 0.05448 0.45628 0.32757 0.0
C1182 C 0.05684 0.51094 0.4421 0.0
C1183 C 0.03578 0.50448 0.43404 0.0
C1184 C 0.07109 0.50957 0.42601 0.0
C1185 C 0.06483 0.50213 0.40123 0.0
C1186 C 0.0438 0.49553 0.39309 0.0
C1187 C 0.02938 0.49663 0.40936 0.0
C1188 C 0.08009 0.50062 0.38432 0.0
C1189 C 0.07356 0.48161 0.37343 0.0
C1190 C 0.1015 0.51735 0.38044 0.0
C1191 C 0.1091 0.53824 0.38971 0.0
C1192 C 0.0986 0.54853 0.38221 0.0
C1193 C 0.10644 0.56856 0.39016 0.0
C1194 C 0.12462 0.57834 0.40579 0.0
C1195 C 0.13503 0.56817 0.41352 0.0
C1196 C 0.12741 0.54823 0.40542 0.0
C1197 C 0.13892 0.48754 0.30302 0.0
C1198 C 0.15826 0.4922 0.31512 0.0
C1199 C 0.12289 0.48819 0.31654 0.0
C1200 C 0.12594 0.49346 0.34236 0.0
C1201 C 0.14507 0.49786 0.35455 0.0
C1202 C 0.16104 0.49715 0.3411 0.0
C1203 C 0.10966 0.49531 0.35653 0.0
C1204 C 0.11602 0.51441 0.36681 0.0
C1205 C 0.08812 0.47871 0.35966 0.0
C1206 C 0.08064 0.45803 0.34972 0.0
C1207 C 0.0911 0.4476 0.35681 0.0
C1208 C 0.08403 0.42816 0.34723 0.0
C1209 C 0.06641 0.41893 0.33068 0.0
C1210 C 0.05579 0.4291 0.32373 0.0
C1211 C 0.06281 0.44855 0.33325 0.0
H1212 H 0.06096 0.40388 0.32328 0.0
H1213 H 0.13079 0.59384 0.41176 0.0
H1214 H 0.56625 0.04646 0.99538 0.0
H1215 H 0.59287 0.07112 0.96469 0.0
H1216 H 0.55378 0.03382 0.90256 0.0
H1217 H 0.52661 0.0091 0.93326 0.0
H1218 H 0.60162 0.0512 0.89911 0.0
H1219 H 0.54977 0.07062 0.91048 0.0
H1220 H 0.52657 0.07795 0.93602 0.0
H1221 H 0.58253 0.12846 0.97057 0.0
H1222 H 0.60611 0.12105 0.94567 0.0
H1223 H 0.65804 0.1295 0.8031 0.0
H1224 H 0.62987 0.10179 0.82977 0.0
H1225 H 0.65501 0.14021 0.89561 0.0
H1226 H 0.6832 0.168 0.86904 0.0
H1227 H 0.61225 0.12086 0.89516 0.0
H1228 H 0.66408 0.10077 0.88527 0.0
H1229 H 0.68744 0.09257 0.86132 0.0
H1230 H 0.63186 0.04334 0.82453 0.0
H1231 H 0.60819 0.05143 0.84803 0.0
C1232 C 0.56336 0.04327 0.97522 0.0
C1233 C 0.54422 0.02576 0.9668 0.0
C1234 C 0.5786 0.05746 0.9577 0.0
C1235 C 0.57525 0.05436 0.93136 0.0
C1236 C 0.55666 0.03648 0.92282 0.0
C1237 C 0.54115 0.0224 0.94038 0.0
C1238 C 0.59073 0.07043 0.91298 0.0
C1239 C 0.60374 0.06634 0.89788 0.0
C1240 C 0.59374 0.09028 0.91181 0.0
C1241 C 0.5797 0.09512 0.92643 0.0
C1242 C 0.55714 0.08317 0.9237 0.0
C1243 C 0.54391 0.08735 0.93806 0.0
C1244 C 0.55305 0.10364 0.95499 0.0
C1245 C 0.57546 0.11582 0.9575 0.0
C1246 C 0.58877 0.11162 0.94328 0.0
C1247 C 0.65771 0.13201 0.82331 0.0
C1248 C 0.67299 0.151 0.83391 0.0
C1249 C 0.64155 0.11613 0.83855 0.0
C1250 C 0.64039 0.11876 0.86483 0.0
C1251 C 0.65549 0.13777 0.87541 0.0
C1252 C 0.6716 0.15369 0.86016 0.0
C1253 C 0.62346 0.10179 0.88132 0.0
C1254 C 0.61013 0.10572 0.89616 0.0
C1255 C 0.6202 0.08179 0.88227 0.0
C1256 C 0.63439 0.07685 0.8682 0.0
C1257 C 0.65686 0.0883 0.87193 0.0
C1258 C 0.67015 0.08365 0.85846 0.0
C1259 C 0.66114 0.06748 0.84136 0.0
C1260 C 0.63882 0.05588 0.83775 0.0
C1261 C 0.62545 0.06048 0.85115 0.0
H1262 H 0.67146 0.06391 0.83095 0.0
H1263 H 0.54276 0.10683 0.96612 0.0
H1264 H 0.53728 0.53988 0.38081 0.0
H1265 H 0.55073 0.57417 0.36237 0.0
H1266 H 0.57702 0.60087 0.4354 0.0
H1267 H 0.56398 0.56663 0.4539 0.0
H1268 H 0.54946 0.61186 0.41591 0.0
H1269 H 0.61055 0.61042 0.38696 0.0
H1270 H 0.6295 0.59593 0.36582 0.0
H1271 H 0.60001 0.59586 0.2944 0.0
H1272 H 0.58063 0.61008 0.31519 0.0
H1273 H 0.58674 0.71269 0.36984 0.0
H1274 H 0.58747 0.68343 0.38844 0.0
H1275 H 0.56416 0.65139 0.31758 0.0
H1276 H 0.56428 0.68091 0.29851 0.0
H1277 H 0.59392 0.64499 0.33811 0.0
H1278 H 0.52977 0.64183 0.36687 0.0
H1279 H 0.50897 0.65482 0.38704 0.0
H1280 H 0.54222 0.66175 0.45776 0.0
H1281 H 0.56344 0.64905 0.43789 0.0
C1282 C 0.54648 0.55304 0.3928 0.0
C1283 C 0.54929 0.55046 0.41895 0.0
C1284 C 0.55413 0.57266 0.38222 0.0
C1285 C 0.5648 0.59003 0.39757 0.0
C1286 C 0.56871 0.58763 0.42329 0.0
C1287 C 0.56116 0.56805 0.43384 0.0
C1288 C 0.56968 0.6103 0.3875 0.0
C1289 C 0.55959 0.61935 0.39923 0.0
C1290 C 0.58233 0.61968 0.3653 0.0
C1291 C 0.594 0.61117 0.3527 0.0
C1292 C 0.60796 0.60716 0.36679 0.0
C1293 C 0.61881 0.59902 0.35486 0.0
C1294 C 0.61593 0.59494 0.32879 0.0
C1295 C 0.60222 0.59902 0.31459 0.0
C1296 C 0.59132 0.60715 0.32644 0.0
C1297 C 0.58213 0.69957 0.35807 0.0
C1298 C 0.57521 0.69902 0.33279 0.0
C1299 C 0.5824 0.6828 0.36879 0.0
C1300 C 0.57555 0.66512 0.3545 0.0
C1301 C 0.56943 0.66485 0.32897 0.0
C1302 C 0.56926 0.68163 0.31821 0.0
C1303 C 0.57361 0.64645 0.36648 0.0
C1304 C 0.58411 0.63766 0.35504 0.0
C1305 C 0.56111 0.63711 0.38882 0.0
C1306 C 0.54837 0.64474 0.40081 0.0
C1307 C 0.53277 0.64629 0.38666 0.0
C1308 C 0.52088 0.65357 0.39805 0.0
C1309 C 0.52432 0.65917 0.42364 0.0
C1310 C 0.53961 0.65745 0.43792 0.0
C1311 C 0.55157 0.65021 0.42661 0.0
H1312 H 0.5151 0.66479 0.43243 0.0
H1313 H 0.62434 0.58864 0.31959 0.0
H1314 H 0.47181 0.04515 0.55045 0.0
H1315 H 0.4679 0.06507 0.58357 0.0
H1316 H 0.52868 0.11863 0.56064 0.0
H1317 H 0.5326 0.09888 0.52746 0.0
H1318 H 0.52408 0.10936 0.61446 0.0
H1319 H 0.48538 0.11756 0.54428 0.0
H1320 H 0.45767 0.10502 0.51061 0.0
H1321 H 0.40791 0.07228 0.56707 0.0
H1322 H 0.43536 0.08441 0.60106 0.0
H1323 H 0.52374 0.18843 0.68067 0.0
H1324 H 0.52556 0.1662 0.6495 0.0
H1325 H 0.45866 0.12003 0.6641 0.0
H1326 H 0.45666 0.14251 0.69492 0.0
H1327 H 0.46511 0.12353 0.61556 0.0
H1328 H 0.50153 0.11511 0.68599 0.0
H1329 H 0.52789 0.12512 0.72093 0.0
H1330 H 0.58002 0.15465 0.66678 0.0
H1331 H 0.55399 0.1451 0.63152 0.0
C1332 C 0.48428 0.06118 0.55244 0.0
C1333 C 0.50247 0.07045 0.53629 0.0
C1334 C 0.48199 0.07255 0.57126 0.0
C1335 C 0.49798 0.09333 0.57448 0.0
C1336 C 0.51614 0.10263 0.5584 0.0
C1337 C 0.51826 0.09137 0.53932 0.0
C1338 C 0.49603 0.1053 0.59496 0.0
C1339 C 0.51135 0.11268 0.61462 0.0
C1340 C 0.47895 0.10893 0.59558 0.0
C1341 C 0.46244 0.10171 0.57517 0.0
C1342 C 0.46854 0.10753 0.54949 0.0
C1343 C 0.45288 0.10053 0.53036 0.0
C1344 C 0.43105 0.08781 0.53669 0.0
C1345 C 0.42483 0.08211 0.56219 0.0
C1346 C 0.44043 0.08906 0.58139 0.0
C1347 C 0.50949 0.17343 0.67748 0.0
C1348 C 0.49008 0.16719 0.69034 0.0
C1349 C 0.51055 0.16069 0.65966 0.0
C1350 C 0.49234 0.14125 0.65463 0.0
C1351 C 0.47295 0.13494 0.66759 0.0
C1352 C 0.47181 0.14779 0.68521 0.0
C1353 C 0.49334 0.12789 0.63517 0.0
C1354 C 0.47782 0.12017 0.61564 0.0
C1355 C 0.51004 0.12362 0.63494 0.0
C1356 C 0.52579 0.12958 0.65612 0.0
C1357 C 0.51862 0.12391 0.68154 0.0
C1358 C 0.5335 0.12947 0.70141 0.0
C1359 C 0.55562 0.14057 0.69609 0.0
C1360 C 0.56289 0.14609 0.67088 0.0
C1361 C 0.54807 0.1406 0.65094 0.0
H1362 H 0.56711 0.14484 0.7115 0.0
H1363 H 0.41895 0.08241 0.52185 0.0
H1364 H 0.44677 0.4974 0.03399 0.0
H1365 H 0.41665 0.49572 0.05651 0.0
H1366 H 0.43539 0.4781 0.12626 0.0
H1367 H 0.46529 0.47942 0.10387 0.0
H1368 H 0.39248 0.45661 0.12137 0.0
H1369 H 0.44949 0.52691 0.11581 0.0
H1370 H 0.47748 0.55914 0.0946 0.0
H1371 H 0.42885 0.56162 0.05061 0.0
H1372 H 0.40059 0.52915 0.07121 0.0
H1373 H 0.34231 0.48821 0.21054 0.0
H1374 H 0.37 0.487 0.18577 0.0
H1375 H 0.34084 0.4914 0.11577 0.0
H1376 H 0.3129 0.49226 0.14046 0.0
H1377 H 0.38835 0.51933 0.1204 0.0
H1378 H 0.33123 0.44768 0.12898 0.0
H1379 H 0.30497 0.4164 0.15331 0.0
H1380 H 0.35655 0.41829 0.196 0.0
H1381 H 0.38311 0.44979 0.17217 0.0
C1382 C 0.44433 0.49293 0.05405 0.0
C1383 C 0.45851 0.48869 0.06719 0.0
C1384 C 0.42718 0.49207 0.06691 0.0
C1385 C 0.42401 0.48709 0.09314 0.0
C1386 C 0.43759 0.48202 0.10603 0.0
C1387 C 0.45471 0.48284 0.0932 0.0
C1388 C 0.40706 0.48791 0.10738 0.0
C1389 C 0.3917 0.47038 0.12131 0.0
C1390 C 0.406 0.50588 0.10722 0.0
C1391 C 0.42294 0.52547 0.09485 0.0
C1392 C 0.44478 0.53423 0.10146 0.0
C1393 C 0.46069 0.55256 0.08958 0.0
C1394 C 0.45495 0.56241 0.07125 0.0
C1395 C 0.43328 0.55395 0.06479 0.0
C1396 C 0.4173 0.53558 0.07656 0.0
C1397 C 0.3419 0.48898 0.18988 0.0
C1398 C 0.32553 0.49028 0.17733 0.0
C1399 C 0.35762 0.48823 0.1758 0.0
C1400 C 0.35733 0.48906 0.14901 0.0
C1401 C 0.34124 0.49073 0.13645 0.0
C1402 C 0.3253 0.49112 0.15051 0.0
C1403 C 0.37379 0.48801 0.13413 0.0
C1404 C 0.38911 0.50555 0.12022 0.0
C1405 C 0.37507 0.47021 0.13473 0.0
C1406 C 0.35913 0.45121 0.14897 0.0
C1407 C 0.33696 0.44154 0.14372 0.0
C1408 C 0.32202 0.42375 0.15739 0.0
C1409 C 0.32908 0.4154 0.17624 0.0
C1410 C 0.3511 0.42479 0.18142 0.0
C1411 C 0.3661 0.44261 0.16782 0.0
H1412 H 0.31749 0.40162 0.1868 0.0
H1413 H 0.4673 0.5766 0.06208 0.0
H1414 H 0.97395 0.47535 0.61071 0.0
H1415 H 0.94573 0.4435 0.63109 0.0
H1416 H 0.92246 0.41709 0.55717 0.0
H1417 H 0.95057 0.44924 0.53649 0.0
H1418 H 0.88941 0.40791 0.58786 0.0
H1419 H 0.95221 0.40341 0.59512 0.0
H1420 H 0.98993 0.41518 0.60594 0.0
H1421 H 0.97723 0.41908 0.6848 0.0
H1422 H 0.93949 0.40758 0.6744 0.0
H1423 H 0.82213 0.30564 0.63972 0.0
H1424 H 0.8502 0.33577 0.61573 0.0
H1425 H 0.87587 0.36777 0.68617 0.0
H1426 H 0.84819 0.33763 0.71024 0.0
H1427 H 0.90773 0.37278 0.65511 0.0
H1428 H 0.84528 0.37855 0.6472 0.0
H1429 H 0.80757 0.3667 0.63621 0.0
H1430 H 0.81972 0.36003 0.5581 0.0
H1431 H 0.85745 0.37158 0.56871 0.0
C1432 C 0.96293 0.46277 0.5987 0.0
C1433 C 0.96469 0.46484 0.57191 0.0
C1434 C 0.9468 0.44449 0.61044 0.0
C1435 C 0.93214 0.42769 0.59573 0.0
C1436 C 0.93362 0.42978 0.56895 0.0
C1437 C 0.94975 0.44815 0.55715 0.0
C1438 C 0.91523 0.40808 0.60842 0.0
C1439 C 0.89346 0.40004 0.60224 0.0
C1440 C 0.9204 0.39795 0.62758 0.0
C1441 C 0.94307 0.40479 0.63393 0.0
C1442 C 0.9575 0.40691 0.61474 0.0
C1443 C 0.97888 0.41352 0.6208 0.0
C1444 C 0.98599 0.41792 0.64603 0.0
C1445 C 0.97171 0.41568 0.66526 0.0
C1446 C 0.95032 0.4091 0.6593 0.0
C1447 C 0.83384 0.31904 0.6501 0.0
C1448 C 0.83281 0.31924 0.67691 0.0
C1449 C 0.84978 0.33632 0.63635 0.0
C1450 C 0.86504 0.35416 0.6491 0.0
C1451 C 0.86425 0.35425 0.67587 0.0
C1452 C 0.84829 0.33705 0.68961 0.0
C1453 C 0.88193 0.37273 0.6347 0.0
C1454 C 0.90371 0.38058 0.64058 0.0
C1455 C 0.87677 0.38262 0.61523 0.0
C1456 C 0.85411 0.3757 0.60881 0.0
C1457 C 0.83986 0.37438 0.62773 0.0
C1458 C 0.81849 0.36776 0.62156 0.0
C1459 C 0.81123 0.36256 0.59649 0.0
C1460 C 0.82535 0.36403 0.57752 0.0
C1461 C 0.84673 0.37062 0.5836 0.0
H1462 H 0.79469 0.35744 0.59175 0.0
H1463 H 1.00255 0.42303 0.65068 0.0
H1464 H 0.54435 0.96878 0.08395 0.0
H1465 H 0.54764 0.9441 0.11068 0.0
H1466 H 0.54597 0.9743 0.1782 0.0
H1467 H 0.54203 0.99896 0.15139 0.0
H1468 H 0.5782 0.96306 0.17821 0.0
H1469 H 0.50216 0.9322 0.16627 0.0
H1470 H 0.46849 0.92051 0.14237 0.0
H1471 H 0.48048 0.88107 0.09812 0.0
H1472 H 0.51432 0.89263 0.12165 0.0
H1473 H 0.56396 0.87725 0.25391 0.0
H1474 H 0.5599 0.90487 0.23594 0.0
H1475 H 0.55073 0.87924 0.16107 0.0
H1476 H 0.55464 0.85157 0.17895 0.0
H1477 H 0.52163 0.88917 0.17036 0.0
H1478 H 0.5989 0.92207 0.17903 0.0
H1479 H 0.63269 0.93329 0.20253 0.0
H1480 H 0.61884 0.96878 0.25207 0.0
H1481 H 0.58481 0.95755 0.22905 0.0
C1482 C 0.54453 0.97017 0.10447 0.0
C1483 C 0.54252 0.98563 0.11554 0.0
C1484 C 0.54651 0.95609 0.11971 0.0
C1485 C 0.54665 0.9572 0.14636 0.0
C1486 C 0.54574 0.97317 0.15761 0.0
C1487 C 0.5436 0.98728 0.14229 0.0
C1488 C 0.54734 0.94126 0.1621 0.0
C1489 C 0.56566 0.94692 0.17699 0.0
C1490 C 0.5311 0.92023 0.16003 0.0
C1491 C 0.51088 0.91342 0.1456 0.0
C1492 C 0.49773 0.92118 0.15128 0.0
C1493 C 0.47858 0.91454 0.13783 0.0
C1494 C 0.4724 0.90012 0.11865 0.0
C1495 C 0.48531 0.89226 0.11295 0.0
C1496 C 0.50445 0.89882 0.12638 0.0
C1497 C 0.56125 0.87763 0.23358 0.0
C1498 C 0.55967 0.8623 0.21778 0.0
C1499 C 0.55892 0.89339 0.22336 0.0
C1500 C 0.55521 0.89421 0.19713 0.0
C1501 C 0.55353 0.87886 0.18138 0.0
C1502 C 0.55572 0.86305 0.1916 0.0
C1503 C 0.55279 0.91086 0.18596 0.0
C1504 C 0.53408 0.90531 0.17194 0.0
C1505 C 0.56872 0.93195 0.18875 0.0
C1506 C 0.5892 0.93879 0.20251 0.0
C1507 C 0.60298 0.93214 0.19506 0.0
C1508 C 0.62219 0.93852 0.20827 0.0
C1509 C 0.62787 0.95169 0.22883 0.0
C1510 C 0.61439 0.95855 0.23617 0.0
C1511 C 0.59516 0.9522 0.22304 0.0
H1512 H 0.64275 0.95662 0.23903 0.0
H1513 H 0.45759 0.89499 0.10825 0.0
H1514 H 0.55661 0.52171 0.5326 0.0
H1515 H 0.5842 0.52576 0.56285 0.0
H1516 H 0.53643 0.4981 0.62275 0.0
H1517 H 0.50843 0.49357 0.59241 0.0
H1518 H 0.57999 0.53595 0.63566 0.0
H1519 H 0.54724 0.46726 0.60121 0.0
H1520 H 0.53476 0.4424 0.56642 0.0
H1521 H 0.5982 0.47503 0.53335 0.0
H1522 H 0.61114 0.50007 0.568 0.0
H1523 H 0.64313 0.51605 0.72255 0.0
H1524 H 0.61443 0.51463 0.69628 0.0
H1525 H 0.65003 0.52 0.62812 0.0
H1526 H 0.67823 0.5205 0.65439 0.0
H1527 H 0.61103 0.49296 0.62039 0.0
H1528 H 0.64516 0.56099 0.65274 0.0
H1529 H 0.65966 0.58774 0.68533 0.0
H1530 H 0.59676 0.5601 0.71936 0.0
H1531 H 0.58191 0.53304 0.6871 0.0
C1532 C 0.55193 0.51678 0.55228 0.0
C1533 C 0.53021 0.50724 0.56002 0.0
C1534 C 0.56776 0.51905 0.56953 0.0
C1535 C 0.56233 0.51209 0.59497 0.0
C1536 C 0.54094 0.50357 0.60318 0.0
C1537 C 0.52497 0.50101 0.58581 0.0
C1538 C 0.57882 0.51265 0.61238 0.0
C1539 C 0.5866 0.52637 0.63265 0.0
C1540 C 0.58787 0.5006 0.60791 0.0
C1541 C 0.58009 0.48563 0.58703 0.0
C1542 C 0.55848 0.46922 0.5864 0.0
C1543 C 0.55133 0.45508 0.56675 0.0
C1544 C 0.56561 0.4572 0.5476 0.0
C1545 C 0.58714 0.47342 0.54816 0.0
C1546 C 0.59441 0.48755 0.56784 0.0
C1547 C 0.64484 0.51705 0.70195 0.0
C1548 C 0.66291 0.5184 0.6905 0.0
C1549 C 0.62848 0.51635 0.68691 0.0
C1550 C 0.63009 0.51752 0.6601 0.0
C1551 C 0.64827 0.51902 0.64871 0.0
C1552 C 0.66442 0.51932 0.66372 0.0
C1553 C 0.6126 0.51648 0.64383 0.0
C1554 C 0.60453 0.5026 0.62366 0.0
C1555 C 0.60362 0.52871 0.64816 0.0
C1556 C 0.61247 0.54489 0.66764 0.0
C1557 C 0.63445 0.56053 0.66729 0.0
C1558 C 0.64273 0.57576 0.68567 0.0
C1559 C 0.62915 0.5756 0.70441 0.0
C1560 C 0.60726 0.5602 0.70482 0.0
C1561 C 0.5989 0.54493 0.68647 0.0
H1562 H 0.63558 0.58746 0.71857 0.0
H1563 H 0.56 0.44623 0.5324 0.0
H1564 H 0.1028 0.59137 0.01085 0.0
H1565 H 0.12487 0.60952 0.04789 0.0
H1566 H 0.06801 0.5798 0.0957 0.0
H1567 H 0.04586 0.56238 0.05879 0.0
H1568 H 0.09143 0.61877 0.10583 0.0
H1569 H 0.10428 0.56464 0.09491 0.0
H1570 H 0.11475 0.54328 0.07246 0.0
H1571 H 0.17944 0.59509 0.06399 0.0
H1572 H 0.16923 0.61706 0.08538 0.0
H1573 H 0.15027 0.65106 0.22267 0.0
H1574 H 0.12796 0.6265 0.18964 0.0
H1575 H 0.17741 0.6627 0.13343 0.0
H1576 H 0.19947 0.68741 0.16618 0.0
H1577 H 0.1566 0.61751 0.13061 0.0
H1578 H 0.14069 0.67181 0.1356 0.0
H1579 H 0.12987 0.6927 0.15863 0.0
H1580 H 0.07004 0.63803 0.18039 0.0
H1581 H 0.08069 0.61679 0.1578 0.0
C1582 C 0.09499 0.5889 0.02918 0.0
C1583 C 0.07258 0.57531 0.03186 0.0
C1584 C 0.10765 0.59907 0.0504 0.0
C1585 C 0.09812 0.59573 0.07465 0.0
C1586 C 0.07573 0.58249 0.07723 0.0
C1587 C 0.0631 0.57242 0.0561 0.0
C1588 C 0.11129 0.60648 0.09728 0.0
C1589 C 0.10548 0.61819 0.1114 0.0
C1590 C 0.12973 0.60585 0.10451 0.0
C1591 C 0.13588 0.59262 0.09149 0.0
C1592 C 0.12066 0.57161 0.08791 0.0
C1593 C 0.12655 0.55936 0.0754 0.0
C1594 C 0.14771 0.56782 0.0668 0.0
C1595 C 0.16303 0.58857 0.07061 0.0
C1596 C 0.15718 0.60095 0.08286 0.0
C1597 C 0.15642 0.65353 0.20332 0.0
C1598 C 0.1764 0.6711 0.19677 0.0
C1599 C 0.14374 0.63955 0.18456 0.0
C1600 C 0.15111 0.64287 0.15918 0.0
C1601 C 0.17154 0.65987 0.15294 0.0
C1602 C 0.18401 0.674 0.17155 0.0
C1603 C 0.1368 0.62986 0.13859 0.0
C1604 C 0.1424 0.61779 0.12497 0.0
C1605 C 0.11804 0.62994 0.13187 0.0
C1606 C 0.1116 0.64271 0.14531 0.0
C1607 C 0.12532 0.66424 0.14551 0.0
C1608 C 0.1192 0.67614 0.15844 0.0
C1609 C 0.09931 0.66669 0.17104 0.0
C1610 C 0.08546 0.64533 0.17067 0.0
C1611 C 0.09153 0.63335 0.15781 0.0
H1612 H 0.09459 0.67593 0.18103 0.0
H1613 H 0.15226 0.55826 0.05729 0.0
loop_
_geom_bond_atom_site_label_1
_geom_bond_atom_site_label_2
_geom_bond_distance
_geom_bond_site_symmetry_2
_ccdc_geom_bond_type
Cu0 N1 1.999 1_454 S
Cu0 O6 1.974 1_454 S
Cu0 N11 1.985 . S
Cu0 O20 1.959 . S
N1 Cu0 1.999 1_656 S
N1 C3 1.263 . S
N1 C5 1.389 1_556 S
N2 C3 1.358 . S
N2 C4 1.400 . S
C3 N1 1.263 . S
C3 N2 1.358 . S
C3 H9 0.930 . S
C4 N2 1.400 . S
C4 C5 1.351 1_556 S
C4 H21 0.930 . S
C5 N1 1.389 1_554 S
C5 C4 1.351 1_554 S
C5 H10 0.930 . S
O6 Cu0 1.974 1_656 S
O6 C16 1.282 . S
C7 O8 1.261 1_554 S
C7 O20 1.251 . S
O8 C7 1.261 1_556 S
H9 C3 0.930 . S
H10 C5 0.930 . S
N11 Cu0 1.985 . S
N11 C13 1.335 . S
N11 C14 1.390 . S
N12 C13 1.345 . S
N12 C15 1.336 . S
C13 N11 1.335 . S
C13 N12 1.345 . S
C13 H18 0.930 . S
C14 N11 1.390 . S
C14 C15 1.346 . S
C14 H19 0.930 1_554 S
C15 N12 1.336 . S
C15 C14 1.346 . S
C15 H22 0.929 . S
C16 O6 1.282 . S
C16 O17 1.216 1_655 S
O17 C16 1.216 1_455 S
H18 C13 0.930 . S
H19 C14 0.930 1_556 S
O20 Cu0 1.959 . S
O20 C7 1.251 . S
H21 C4 0.930 . S
H22 C15 0.929 . S
Cu23 N24 1.999 . S
Cu23 O29 1.974 . S
Cu23 N34 1.985 1_565 S
Cu23 O43 1.959 1_565 S
N24 Cu23 1.999 . S
N24 C26 1.263 . S
N24 C28 1.389 . S
N25 C26 1.358 . S
N25 C27 1.400 . S
C26 N24 1.263 . S
C26 N25 1.358 . S
C26 H32 0.930 . S
C27 N25 1.400 . S
C27 C28 1.351 . S
C27 H44 0.930 . S
C28 N24 1.389 . S
C28 C27 1.351 . S
C28 H33 0.930 . S
O29 Cu23 1.974 . S
O29 C39 1.282 . S
C30 O31 1.261 . S
C30 O43 1.251 . S
O31 C30 1.261 . S
H32 C26 0.930 . S
H33 C28 0.930 . S
N34 Cu23 1.985 1_545 S
N34 C36 1.335 . S
N34 C37 1.390 . S
N35 C36 1.345 . S
N35 C38 1.336 . S
C36 N34 1.335 . S
C36 N35 1.345 . S
C36 H41 0.930 . S
C37 N34 1.390 . S
C37 C38 1.346 . S
C37 H42 0.930 . S
C38 N35 1.336 . S
C38 C37 1.346 . S
C38 H45 0.929 . S
C39 O29 1.282 . S
C39 O40 1.216 . S
O40 C39 1.216 . S
H41 C36 0.930 . S
H42 C37 0.930 . S
O43 Cu23 1.959 1_545 S
O43 C30 1.251 . S
H44 C27 0.930 . S
H45 C38 0.929 . S
Cu46 N47 1.999 1_554 S
Cu46 O52 1.974 1_554 S
Cu46 N57 1.985 . S
Cu46 O66 1.959 . S
N47 Cu46 1.999 1_556 S
N47 C49 1.263 . S
N47 C51 1.389 . S
N48 C49 1.358 . S
N48 C50 1.400 . S
C49 N47 1.263 . S
C49 N48 1.358 . S
C49 H55 0.930 . S
C50 N48 1.400 . S
C50 C51 1.351 . S
C50 H67 0.930 . S
C51 N47 1.389 . S
C51 C50 1.351 . S
C51 H56 0.930 . S
O52 Cu46 1.974 1_556 S
O52 C62 1.282 . S
C53 O54 1.261 . S
C53 O66 1.251 . S
O54 C53 1.261 . S
H55 C49 0.930 . S
H56 C51 0.930 . S
N57 Cu46 1.985 . S
N57 C59 1.335 . S
N57 C60 1.390 . S
N58 C59 1.345 . S
N58 C61 1.336 . S
C59 N57 1.335 . S
C59 N58 1.345 . S
C59 H64 0.930 . S
C60 N57 1.390 . S
C60 C61 1.346 . S
C60 H65 0.930 . S
C61 N58 1.336 . S
C61 C60 1.346 . S
C61 H68 0.929 . S
C62 O52 1.282 . S
C62 O63 1.216 1_556 S
O63 C62 1.216 1_554 S
H64 C59 0.930 . S
H65 C60 0.930 . S
O66 Cu46 1.959 . S
O66 C53 1.251 . S
H67 C50 0.930 . S
H68 C61 0.929 . S
Cu69 N70 1.999 1_655 S
Cu69 O75 1.974 1_655 S
Cu69 N80 1.985 . S
Cu69 O89 1.959 . S
N70 Cu69 1.999 1_455 S
N70 C72 1.263 . S
N70 C74 1.389 1_455 S
N71 C72 1.358 . S
N71 C73 1.400 . S
C72 N70 1.263 . S
C72 N71 1.358 . S
C72 H78 0.930 . S
C73 N71 1.400 . S
C73 C74 1.351 1_455 S
C73 H90 0.930 . S
C74 N70 1.389 1_655 S
C74 C73 1.351 1_655 S
C74 H79 0.930 . S
O75 Cu69 1.974 1_455 S
O75 C85 1.282 . S
C76 O77 1.252 1_655 S
C76 O89 1.251 . S
O77 C76 1.252 1_455 S
H78 C72 0.930 . S
H79 C74 0.930 . S
N80 Cu69 1.985 . S
N80 C82 1.335 . S
N80 C83 1.390 . S
N81 C82 1.345 . S
N81 C84 1.336 . S
C82 N80 1.335 . S
C82 N81 1.345 . S
C82 H87 0.930 . S
C83 N80 1.390 . S
C83 C84 1.346 . S
C83 H88 0.930 1_655 S
C84 N81 1.336 . S
C84 C83 1.346 . S
C84 H91 0.929 . S
C85 O75 1.282 . S
C85 O86 1.216 . S
O86 C85 1.216 . S
H87 C82 0.930 . S
H88 C83 0.930 1_455 S
O89 Cu69 1.959 . S
O89 C76 1.251 . S
H90 C73 0.930 . S
H91 C84 0.929 . S
Cu92 N93 1.999 . S
Cu92 O98 1.972 . S
Cu92 N103 1.985 1_545 S
Cu92 O112 1.959 1_545 S
N93 Cu92 1.999 . S
N93 C95 1.263 1_554 S
N93 C97 1.389 . S
N94 C95 1.358 . S
N94 C96 1.400 1_556 S
C95 N93 1.263 1_556 S
C95 N94 1.358 . S
C95 H101 0.930 . S
C96 N94 1.400 1_554 S
C96 C97 1.351 . S
C96 H113 0.930 . S
C97 N93 1.389 . S
C97 C96 1.351 . S
C97 H102 0.930 . S
O98 Cu92 1.972 . S
O98 C108 1.285 1_554 S
C99 O100 1.261 . S
C99 O112 1.251 . S
O100 C99 1.261 . S
H101 C95 0.930 . S
H102 C97 0.930 . S
N103 Cu92 1.985 1_565 S
N103 C105 1.335 . S
N103 C106 1.390 . S
N104 C105 1.345 . S
N104 C107 1.336 . S
C105 N103 1.335 . S
C105 N104 1.345 . S
C105 H110 0.930 . S
C106 N103 1.390 . S
C106 C107 1.346 . S
C106 H111 0.919 1_565 S
C107 N104 1.336 . S
C107 C106 1.346 . S
C107 H114 0.929 . S
C108 O98 1.285 1_556 S
C108 O109 1.216 . S
O109 C108 1.216 . S
H110 C105 0.930 . S
H111 C106 0.919 1_545 S
O112 Cu92 1.959 1_565 S
O112 C99 1.251 . S
H113 C96 0.930 . S
H114 C107 0.929 . S
Cu115 N116 1.999 . S
Cu115 O121 1.974 . S
Cu115 N126 1.985 . S
Cu115 O135 1.959 . S
N116 Cu115 1.999 . S
N116 C118 1.263 . S
N116 C120 1.389 . S
N117 C118 1.358 . S
N117 C119 1.400 . S
C118 N116 1.263 . S
C118 N117 1.358 . S
C118 H124 0.930 . S
C119 N117 1.400 . S
C119 C120 1.351 . S
C119 H136 0.930 . S
C120 N116 1.389 . S
C120 C119 1.351 . S
C120 H125 0.930 . S
O121 Cu115 1.974 . S
O121 C131 1.282 . S
C122 O123 1.261 . S
C122 O135 1.251 . S
O123 C122 1.261 . S
H124 C118 0.930 . S
H125 C120 0.930 . S
N126 Cu115 1.985 . S
N126 C128 1.335 . S
N126 C129 1.390 . S
N127 C128 1.345 . S
N127 C130 1.336 . S
C128 N126 1.335 . S
C128 N127 1.345 . S
C128 H133 0.930 . S
C129 N126 1.390 . S
C129 C130 1.346 . S
C129 H134 0.930 . S
C130 N127 1.336 . S
C130 C129 1.346 . S
C130 H137 0.929 . S
C131 O121 1.282 . S
C131 O132 1.216 . S
O132 C131 1.216 . S
H133 C128 0.930 . S
H134 C129 0.930 . S
O135 Cu115 1.959 . S
O135 C122 1.251 . S
H136 C119 0.930 . S
H137 C130 0.929 . S
C138 C139 1.384 . S
C138 C140 1.384 . S
C138 H166 0.931 . S
C139 C138 1.384 . S
C139 C142 1.382 . S
C140 C138 1.384 . S
C140 C141 1.381 . S
C140 H167 0.930 . S
C141 C140 1.381 . S
C141 C143 1.381 . S
C141 C144 1.487 . S
C142 C139 1.382 . S
C142 C143 1.387 . S
C142 H168 0.930 . S
C143 C141 1.381 . S
C143 C142 1.387 . S
C143 H169 0.931 . S
C144 C141 1.487 . S
C144 C151 1.399 . S
C144 N182 1.343 . S
C145 C146 1.384 . S
C145 C147 1.384 . S
C145 H170 0.931 . S
C146 C145 1.384 . S
C146 C149 1.382 . S
C147 C145 1.384 . S
C147 C148 1.381 . S
C147 H171 0.930 . S
C148 C147 1.381 . S
C148 C150 1.381 . S
C148 C151 1.487 . S
C149 C146 1.382 . S
C149 C150 1.387 . S
C149 H172 0.930 . S
C150 C148 1.381 . S
C150 C149 1.387 . S
C150 H173 0.931 . S
C151 C144 1.399 . S
C151 C148 1.487 . S
C151 N183 1.343 . S
C152 C153 1.384 . S
C152 C154 1.384 . S
C152 H174 0.931 . S
C153 C152 1.384 . S
C153 C156 1.382 . S
C154 C152 1.384 . S
C154 C155 1.381 . S
C154 H175 0.930 . S
C155 C154 1.381 . S
C155 C157 1.381 . S
C155 C158 1.487 . S
C156 C153 1.382 . S
C156 C157 1.387 . S
C156 H176 0.930 . S
C157 C155 1.381 . S
C157 C156 1.387 . S
C157 H177 0.931 . S
C158 C155 1.487 . S
C158 C165 1.399 . S
C158 N183 1.343 . S
C159 C160 1.384 . S
C159 C161 1.384 . S
C159 H178 0.931 . S
C160 C159 1.384 . S
C160 C163 1.382 . S
C161 C159 1.384 . S
C161 C162 1.381 . S
C161 H179 0.930 . S
C162 C161 1.381 . S
C162 C164 1.381 . S
C162 C165 1.487 . S
C163 C160 1.382 . S
C163 C164 1.387 . S
C163 H180 0.930 . S
C164 C162 1.381 . S
C164 C163 1.387 . S
C164 H181 0.931 . S
C165 C158 1.399 . S
C165 C162 1.487 . S
C165 N182 1.343 . S
H166 C138 0.931 . S
H167 C140 0.930 . S
H168 C142 0.930 . S
H169 C143 0.931 . S
H170 C145 0.931 . S
H171 C147 0.930 . S
H172 C149 0.930 . S
H173 C150 0.931 . S
H174 C152 0.931 . S
H175 C154 0.930 . S
H176 C156 0.930 . S
H177 C157 0.931 . S
H178 C159 0.931 . S
H179 C161 0.930 . S
H180 C163 0.930 . S
H181 C164 0.931 . S
N182 C144 1.343 . S
N182 C165 1.343 . S
N183 C151 1.343 . S
N183 C158 1.343 . S
C184 C185 1.384 . S
C184 C186 1.384 . S
C184 H212 0.931 . S
C185 C184 1.384 . S
C185 C188 1.382 . S
C186 C184 1.384 . S
C186 C187 1.381 . S
C186 H213 0.930 . S
C187 C186 1.381 . S
C187 C189 1.381 . S
C187 C190 1.487 . S
C188 C185 1.382 . S
C188 C189 1.387 . S
C188 H214 0.930 . S
C189 C187 1.381 . S
C189 C188 1.387 . S
C189 H215 0.931 . S
C190 C187 1.487 . S
C190 C197 1.399 . S
C190 N228 1.343 . S
C191 C192 1.384 . S
C191 C193 1.384 . S
C191 H216 0.931 . S
C192 C191 1.384 . S
C192 C195 1.382 . S
C193 C191 1.384 . S
C193 C194 1.381 . S
C193 H217 0.930 . S
C194 C193 1.381 . S
C194 C196 1.381 . S
C194 C197 1.487 . S
C195 C192 1.382 . S
C195 C196 1.387 . S
C195 H218 0.930 . S
C196 C194 1.381 . S
C196 C195 1.387 . S
C196 H219 0.931 . S
C197 C190 1.399 . S
C197 C194 1.487 . S
C197 N229 1.343 . S
C198 C199 1.384 . S
C198 C200 1.384 . S
C198 H220 0.931 . S
C199 C198 1.384 . S
C199 C202 1.382 . S
C200 C198 1.384 . S
C200 C201 1.381 . S
C200 H221 0.930 . S
C201 C200 1.381 . S
C201 C203 1.381 . S
C201 C204 1.487 . S
C202 C199 1.382 . S
C202 C203 1.387 . S
C202 H222 0.930 . S
C203 C201 1.381 . S
C203 C202 1.387 . S
C203 H223 0.931 . S
C204 C201 1.487 . S
C204 C211 1.399 . S
C204 N229 1.343 . S
C205 C206 1.384 . S
C205 C207 1.384 . S
C205 H224 0.931 . S
C206 C205 1.384 . S
C206 C209 1.382 . S
C207 C205 1.384 . S
C207 C208 1.381 . S
C207 H225 0.930 . S
C208 C207 1.381 . S
C208 C210 1.381 . S
C208 C211 1.487 . S
C209 C206 1.382 . S
C209 C210 1.387 . S
C209 H226 0.930 . S
C210 C208 1.381 . S
C210 C209 1.387 . S
C210 H227 0.931 . S
C211 C204 1.399 . S
C211 C208 1.487 . S
C211 N228 1.343 . S
H212 C184 0.931 . S
H213 C186 0.930 . S
H214 C188 0.930 . S
H215 C189 0.931 . S
H216 C191 0.931 . S
H217 C193 0.930 . S
H218 C195 0.930 . S
H219 C196 0.931 . S
H220 C198 0.931 . S
H221 C200 0.930 . S
H222 C202 0.930 . S
H223 C203 0.931 . S
H224 C205 0.931 . S
H225 C207 0.930 . S
H226 C209 0.930 . S
H227 C210 0.931 . S
N228 C190 1.343 . S
N228 C211 1.343 . S
N229 C197 1.343 . S
N229 C204 1.343 . S
C230 C231 1.384 . S
C230 C232 1.384 . S
C230 H258 0.931 . S
C231 C230 1.384 . S
C231 C234 1.382 . S
C232 C230 1.384 . S
C232 C233 1.381 . S
C232 H259 0.930 . S
C233 C232 1.381 . S
C233 C235 1.381 . S
C233 C236 1.487 . S
C234 C231 1.382 . S
C234 C235 1.387 . S
C234 H260 0.930 . S
C235 C233 1.381 . S
C235 C234 1.387 . S
C235 H261 0.931 . S
C236 C233 1.487 . S
C236 C243 1.399 . S
C236 N274 1.343 . S
C237 C238 1.384 . S
C237 C239 1.384 . S
C237 H262 0.931 . S
C238 C237 1.384 . S
C238 C241 1.382 . S
C239 C237 1.384 . S
C239 C240 1.381 . S
C239 H263 0.930 . S
C240 C239 1.381 . S
C240 C242 1.381 . S
C240 C243 1.487 . S
C241 C238 1.382 . S
C241 C242 1.387 . S
C241 H264 0.930 . S
C242 C240 1.381 . S
C242 C241 1.387 . S
C242 H265 0.931 . S
C243 C236 1.399 . S
C243 C240 1.487 . S
C243 N275 1.343 . S
C244 C245 1.384 . S
C244 C246 1.384 . S
C244 H266 0.931 . S
C245 C244 1.384 . S
C245 C248 1.382 . S
C246 C244 1.384 . S
C246 C247 1.381 . S
C246 H267 0.930 . S
C247 C246 1.381 . S
C247 C249 1.381 . S
C247 C250 1.487 . S
C248 C245 1.382 . S
C248 C249 1.387 . S
C248 H268 0.930 . S
C249 C247 1.381 . S
C249 C248 1.387 . S
C249 H269 0.931 . S
C250 C247 1.487 . S
C250 C257 1.399 . S
C250 N275 1.343 . S
C251 C252 1.384 . S
C251 C253 1.384 . S
C251 H270 0.931 . S
C252 C251 1.384 . S
C252 C255 1.382 . S
C253 C251 1.384 . S
C253 C254 1.381 . S
C253 H271 0.930 . S
C254 C253 1.381 . S
C254 C256 1.381 . S
C254 C257 1.487 . S
C255 C252 1.382 . S
C255 C256 1.387 . S
C255 H272 0.930 . S
C256 C254 1.381 . S
C256 C255 1.387 . S
C256 H273 0.931 . S
C257 C250 1.399 . S
C257 C254 1.487 . S
C257 N274 1.343 . S
H258 C230 0.931 . S
H259 C232 0.930 . S
H260 C234 0.930 . S
H261 C235 0.931 . S
H262 C237 0.931 . S
H263 C239 0.930 . S
H264 C241 0.930 . S
H265 C242 0.931 . S
H266 C244 0.931 . S
H267 C246 0.930 . S
H268 C248 0.930 . S
H269 C249 0.931 . S
H270 C251 0.931 . S
H271 C253 0.930 . S
H272 C255 0.930 . S
H273 C256 0.931 . S
N274 C236 1.343 . S
N274 C257 1.343 . S
N275 C243 1.343 . S
N275 C250 1.343 . S
C276 C277 1.384 . S
C276 C278 1.384 . S
C276 H304 0.931 . S
C277 C276 1.384 . S
C277 C280 1.382 . S
C278 C276 1.384 . S
C278 C279 1.381 . S
C278 H305 0.930 . S
C279 C278 1.381 . S
C279 C281 1.381 . S
C279 C282 1.487 . S
C280 C277 1.382 . S
C280 C281 1.387 . S
C280 H306 0.930 . S
C281 C279 1.381 . S
C281 C280 1.387 . S
C281 H307 0.931 . S
C282 C279 1.487 . S
C282 C289 1.399 . S
C282 N320 1.343 . S
C283 C284 1.384 . S
C283 C285 1.384 . S
C283 H308 0.931 . S
C284 C283 1.384 . S
C284 C287 1.382 . S
C285 C283 1.384 . S
C285 C286 1.381 . S
C285 H309 0.930 . S
C286 C285 1.381 . S
C286 C288 1.381 . S
C286 C289 1.487 . S
C287 C284 1.382 . S
C287 C288 1.387 . S
C287 H310 0.930 . S
C288 C286 1.381 . S
C288 C287 1.387 . S
C288 H311 0.931 . S
C289 C282 1.399 . S
C289 C286 1.487 . S
C289 N321 1.343 . S
C290 C291 1.384 . S
C290 C292 1.384 . S
C290 H312 0.931 . S
C291 C290 1.384 . S
C291 C294 1.382 . S
C292 C290 1.384 . S
C292 C293 1.381 . S
C292 H313 0.930 . S
C293 C292 1.381 . S
C293 C295 1.381 . S
C293 C296 1.487 . S
C294 C291 1.382 . S
C294 C295 1.387 . S
C294 H314 0.930 . S
C295 C293 1.381 . S
C295 C294 1.387 . S
C295 H315 0.931 . S
C296 C293 1.487 . S
C296 C303 1.399 . S
C296 N321 1.343 . S
C297 C298 1.384 . S
C297 C299 1.384 . S
C297 H316 0.931 . S
C298 C297 1.384 . S
C298 C301 1.382 . S
C299 C297 1.384 . S
C299 C300 1.381 . S
C299 H317 0.930 . S
C300 C299 1.381 . S
C300 C302 1.381 . S
C300 C303 1.487 . S
C301 C298 1.382 . S
C301 C302 1.387 . S
C301 H318 0.930 . S
C302 C300 1.381 . S
C302 C301 1.387 . S
C302 H319 0.931 . S
C303 C296 1.399 . S
C303 C300 1.487 . S
C303 N320 1.343 . S
H304 C276 0.931 . S
H305 C278 0.930 . S
H306 C280 0.930 . S
H307 C281 0.931 . S
H308 C283 0.931 . S
H309 C285 0.930 . S
H310 C287 0.930 . S
H311 C288 0.931 . S
H312 C290 0.931 . S
H313 C292 0.930 . S
H314 C294 0.930 . S
H315 C295 0.931 . S
H316 C297 0.931 . S
H317 C299 0.930 . S
H318 C301 0.930 . S
H319 C302 0.931 . S
N320 C282 1.343 . S
N320 C303 1.343 . S
N321 C289 1.343 . S
N321 C296 1.343 . S
C322 C323 1.384 . S
C322 C324 1.384 . S
C322 H350 0.931 . S
C323 C322 1.384 . S
C323 C326 1.382 . S
C324 C322 1.384 . S
C324 C325 1.381 . S
C324 H351 0.930 . S
C325 C324 1.381 . S
C325 C327 1.381 . S
C325 C328 1.487 . S
C326 C323 1.382 . S
C326 C327 1.387 . S
C326 H352 0.930 . S
C327 C325 1.381 . S
C327 C326 1.387 . S
C327 H353 0.931 . S
C328 C325 1.487 . S
C328 C335 1.399 . S
C328 N366 1.343 . S
C329 C330 1.384 . S
C329 C331 1.384 . S
C329 H354 0.931 . S
C330 C329 1.384 . S
C330 C333 1.382 . S
C331 C329 1.384 . S
C331 C332 1.381 . S
C331 H355 0.930 . S
C332 C331 1.381 . S
C332 C334 1.381 . S
C332 C335 1.487 . S
C333 C330 1.382 . S
C333 C334 1.387 . S
C333 H356 0.930 . S
C334 C332 1.381 . S
C334 C333 1.387 . S
C334 H357 0.931 . S
C335 C328 1.399 . S
C335 C332 1.487 . S
C335 N367 1.343 . S
C336 C337 1.384 . S
C336 C338 1.384 . S
C336 H358 0.931 . S
C337 C336 1.384 . S
C337 C340 1.382 . S
C338 C336 1.384 . S
C338 C339 1.381 . S
C338 H359 0.930 . S
C339 C338 1.381 . S
C339 C341 1.381 . S
C339 C342 1.487 . S
C340 C337 1.382 . S
C340 C341 1.387 . S
C340 H360 0.930 . S
C341 C339 1.381 . S
C341 C340 1.387 . S
C341 H361 0.931 . S
C342 C339 1.487 . S
C342 C349 1.399 . S
C342 N367 1.343 . S
C343 C344 1.384 . S
C343 C345 1.384 . S
C343 H362 0.931 . S
C344 C343 1.384 . S
C344 C347 1.382 . S
C345 C343 1.384 . S
C345 C346 1.381 . S
C345 H363 0.930 . S
C346 C345 1.381 . S
C346 C348 1.381 . S
C346 C349 1.487 . S
C347 C344 1.382 . S
C347 C348 1.387 . S
C347 H364 0.930 . S
C348 C346 1.381 . S
C348 C347 1.387 . S
C348 H365 0.931 . S
C349 C342 1.399 . S
C349 C346 1.487 . S
C349 N366 1.343 . S
H350 C322 0.931 . S
H351 C324 0.930 . S
H352 C326 0.930 . S
H353 C327 0.931 . S
H354 C329 0.931 . S
H355 C331 0.930 . S
H356 C333 0.930 . S
H357 C334 0.931 . S
H358 C336 0.931 . S
H359 C338 0.930 . S
H360 C340 0.930 . S
H361 C341 0.931 . S
H362 C343 0.931 . S
H363 C345 0.930 . S
H364 C347 0.930 . S
H365 C348 0.931 . S
N366 C328 1.343 . S
N366 C349 1.343 . S
N367 C335 1.343 . S
N367 C342 1.343 . S
C368 C369 1.384 . S
C368 C370 1.384 . S
C368 H396 0.931 . S
C369 C368 1.384 . S
C369 C372 1.382 . S
C370 C368 1.384 . S
C370 C371 1.381 . S
C370 H397 0.930 . S
C371 C370 1.381 . S
C371 C373 1.381 . S
C371 C374 1.487 . S
C372 C369 1.382 . S
C372 C373 1.387 . S
C372 H398 0.930 . S
C373 C371 1.381 . S
C373 C372 1.387 . S
C373 H399 0.931 . S
C374 C371 1.487 . S
C374 C381 1.399 . S
C374 N412 1.343 . S
C375 C376 1.384 . S
C375 C377 1.384 . S
C375 H400 0.931 . S
C376 C375 1.384 . S
C376 C379 1.382 . S
C377 C375 1.384 . S
C377 C378 1.381 . S
C377 H401 0.930 . S
C378 C377 1.381 . S
C378 C380 1.381 . S
C378 C381 1.487 . S
C379 C376 1.382 . S
C379 C380 1.387 . S
C379 H402 0.930 . S
C380 C378 1.381 . S
C380 C379 1.387 . S
C380 H403 0.931 . S
C381 C374 1.399 . S
C381 C378 1.487 . S
C381 N413 1.343 . S
C382 C383 1.384 . S
C382 C384 1.384 . S
C382 H404 0.931 . S
C383 C382 1.384 . S
C383 C386 1.382 . S
C384 C382 1.384 . S
C384 C385 1.381 . S
C384 H405 0.930 . S
C385 C384 1.381 . S
C385 C387 1.381 . S
C385 C388 1.487 . S
C386 C383 1.382 . S
C386 C387 1.387 . S
C386 H406 0.930 . S
C387 C385 1.381 . S
C387 C386 1.387 . S
C387 H407 0.931 . S
C388 C385 1.487 . S
C388 C395 1.399 . S
C388 N413 1.343 . S
C389 C390 1.384 . S
C389 C391 1.384 . S
C389 H408 0.931 . S
C390 C389 1.384 . S
C390 C393 1.382 . S
C391 C389 1.384 . S
C391 C392 1.381 . S
C391 H409 0.930 . S
C392 C391 1.381 . S
C392 C394 1.381 . S
C392 C395 1.487 . S
C393 C390 1.382 . S
C393 C394 1.387 . S
C393 H410 0.930 . S
C394 C392 1.381 . S
C394 C393 1.387 . S
C394 H411 0.931 . S
C395 C388 1.399 . S
C395 C392 1.487 . S
C395 N412 1.343 . S
H396 C368 0.931 . S
H397 C370 0.930 . S
H398 C372 0.930 . S
H399 C373 0.931 . S
H400 C375 0.931 . S
H401 C377 0.930 . S
H402 C379 0.930 . S
H403 C380 0.931 . S
H404 C382 0.931 . S
H405 C384 0.930 . S
H406 C386 0.930 . S
H407 C387 0.931 . S
H408 C389 0.931 . S
H409 C391 0.930 . S
H410 C393 0.930 . S
H411 C394 0.931 . S
N412 C374 1.343 . S
N412 C395 1.343 . S
N413 C381 1.343 . S
N413 C388 1.343 . S
H414 C432 0.951 . S
H415 C434 0.951 . S
H416 C436 0.950 . S
H417 C437 0.950 . S
H418 C439 0.950 . S
H419 C442 0.950 . S
H420 C443 0.950 . S
H421 C445 0.932 1_556 S
H422 C446 0.950 . S
H423 C447 0.951 . S
H424 C449 0.951 . S
H425 C451 0.950 . S
H426 C452 0.950 . S
H427 C454 0.950 . S
H428 C457 0.950 . S
H429 C458 0.950 . S
H430 C460 0.950 . S
H431 C461 0.950 . S
C432 H414 0.951 . S
C432 C433 1.366 . S
C432 C434 1.388 . S
C433 C432 1.366 . S
C433 C437 1.385 . S
C434 H415 0.951 . S
C434 C432 1.388 . S
C434 C435 1.366 . S
C435 C434 1.366 . S
C435 C436 1.414 . S
C435 C438 1.499 . S
C436 H416 0.950 . S
C436 C435 1.414 . S
C436 C437 1.374 . S
C437 H417 0.950 . S
C437 C433 1.385 . S
C437 C436 1.374 . S
C438 C435 1.499 . S
C438 C439 1.373 . S
C438 C440 1.389 . S
C439 H418 0.950 . S
C439 C438 1.373 . S
C439 C455 1.377 . S
C440 C438 1.389 . S
C440 C441 1.524 . S
C440 C454 1.377 . S
C441 C440 1.524 . S
C441 C442 1.397 . S
C441 C446 1.363 . S
C442 H419 0.950 . S
C442 C441 1.397 . S
C442 C443 1.334 . S
C443 H420 0.950 . S
C443 C442 1.334 . S
C443 C444 1.287 . S
C444 C443 1.287 . S
C444 C445 1.524 . S
C444 H463 0.913 1_554 S
C445 H421 0.932 1_554 S
C445 C444 1.524 . S
C445 C446 1.415 . S
C446 H422 0.950 . S
C446 C441 1.363 . S
C446 C445 1.415 . S
C447 H423 0.951 . S
C447 C448 1.366 . S
C447 C449 1.388 . S
C448 C447 1.366 . S
C448 C452 1.385 . S
C449 H424 0.951 . S
C449 C447 1.388 . S
C449 C450 1.366 . S
C450 C449 1.366 . S
C450 C451 1.414 . S
C450 C453 1.499 . S
C451 H425 0.950 . S
C451 C450 1.414 . S
C451 C452 1.374 . S
C452 H426 0.950 . S
C452 C448 1.385 . S
C452 C451 1.374 . S
C453 C450 1.499 . S
C453 C454 1.373 . S
C453 C455 1.389 . S
C454 H427 0.950 . S
C454 C440 1.377 . S
C454 C453 1.373 . S
C455 C439 1.377 . S
C455 C453 1.389 . S
C455 C456 1.524 . S
C456 C455 1.524 . S
C456 C457 1.397 . S
C456 C461 1.363 . S
C457 H428 0.950 . S
C457 C456 1.397 . S
C457 C458 1.334 . S
C458 H429 0.950 . S
C458 C457 1.334 . S
C458 C459 1.287 . S
C459 C458 1.287 . S
C459 C460 1.524 . S
C459 H462 0.999 . S
C460 H430 0.950 . S
C460 C459 1.524 . S
C460 C461 1.415 . S
C461 H431 0.950 . S
C461 C456 1.363 . S
C461 C460 1.415 . S
H462 C459 0.999 . S
H463 C444 0.913 1_556 S
H464 C482 0.951 . S
H465 C484 0.951 . S
H466 C486 0.950 . S
H467 C487 0.950 . S
H468 C489 0.950 . S
H469 C492 0.950 . S
H470 C493 0.950 . S
H471 C495 0.950 . S
H472 C496 0.950 . S
H473 C497 0.951 . S
H474 C499 0.951 . S
H475 C501 0.950 . S
H476 C502 0.950 . S
H477 C504 0.950 . S
H478 C507 0.950 . S
H479 C508 0.950 . S
H480 C510 0.950 . S
H481 C511 0.950 . S
C482 H464 0.951 . S
C482 C483 1.366 . S
C482 C484 1.388 . S
C483 C482 1.366 . S
C483 C487 1.385 . S
C484 H465 0.951 . S
C484 C482 1.388 . S
C484 C485 1.366 . S
C485 C484 1.366 . S
C485 C486 1.414 . S
C485 C488 1.499 . S
C486 H466 0.950 . S
C486 C485 1.414 . S
C486 C487 1.374 . S
C487 H467 0.950 . S
C487 C483 1.385 . S
C487 C486 1.374 . S
C488 C485 1.499 . S
C488 C489 1.373 . S
C488 C490 1.389 . S
C489 H468 0.950 . S
C489 C488 1.373 . S
C489 C505 1.377 . S
C490 C488 1.389 . S
C490 C491 1.524 . S
C490 C504 1.377 . S
C491 C490 1.524 . S
C491 C492 1.397 . S
C491 C496 1.363 . S
C492 H469 0.950 . S
C492 C491 1.397 . S
C492 C493 1.334 . S
C493 H470 0.950 . S
C493 C492 1.334 . S
C493 C494 1.287 . S
C494 C493 1.287 . S
C494 C495 1.524 . S
C494 H513 0.913 . S
C495 H471 0.950 . S
C495 C494 1.524 . S
C495 C496 1.415 . S
C496 H472 0.950 . S
C496 C491 1.363 . S
C496 C495 1.415 . S
C497 H473 0.951 . S
C497 C498 1.366 . S
C497 C499 1.388 . S
C498 C497 1.366 . S
C498 C502 1.385 . S
C499 H474 0.951 . S
C499 C497 1.388 . S
C499 C500 1.366 . S
C500 C499 1.366 . S
C500 C501 1.414 . S
C500 C503 1.499 . S
C501 H475 0.950 . S
C501 C500 1.414 . S
C501 C502 1.374 . S
C502 H476 0.950 . S
C502 C498 1.385 . S
C502 C501 1.374 . S
C503 C500 1.499 . S
C503 C504 1.373 . S
C503 C505 1.389 . S
C504 H477 0.950 . S
C504 C490 1.377 . S
C504 C503 1.373 . S
C505 C489 1.377 . S
C505 C503 1.389 . S
C505 C506 1.524 . S
C506 C505 1.524 . S
C506 C507 1.397 . S
C506 C511 1.363 . S
C507 H478 0.950 . S
C507 C506 1.397 . S
C507 C508 1.334 . S
C508 H479 0.950 . S
C508 C507 1.334 . S
C508 C509 1.287 . S
C509 C508 1.287 . S
C509 C510 1.524 . S
C509 H512 0.999 . S
C510 H480 0.950 . S
C510 C509 1.524 . S
C510 C511 1.415 . S
C511 H481 0.950 . S
C511 C506 1.363 . S
C511 C510 1.415 . S
H512 C509 0.999 . S
H513 C494 0.913 . S
H514 C532 0.951 . S
H515 C534 0.951 . S
H516 C536 0.950 . S
H517 C537 0.950 . S
H518 C539 0.950 . S
H519 C542 0.950 . S
H520 C543 0.950 . S
H521 C545 0.950 . S
H522 C546 0.950 . S
H523 C547 0.951 . S
H524 C549 0.951 . S
H525 C551 0.950 . S
H526 C552 0.950 . S
H527 C554 0.950 . S
H528 C557 0.950 . S
H529 C558 0.950 . S
H530 C560 0.950 . S
H531 C561 0.950 . S
C532 H514 0.951 . S
C532 C533 1.366 . S
C532 C534 1.388 . S
C533 C532 1.366 . S
C533 C537 1.385 . S
C534 H515 0.951 . S
C534 C532 1.388 . S
C534 C535 1.366 . S
C535 C534 1.366 . S
C535 C536 1.414 . S
C535 C538 1.499 . S
C536 H516 0.950 . S
C536 C535 1.414 . S
C536 C537 1.374 . S
C537 H517 0.950 . S
C537 C533 1.385 . S
C537 C536 1.374 . S
C538 C535 1.499 . S
C538 C539 1.373 . S
C538 C540 1.389 . S
C539 H518 0.950 . S
C539 C538 1.373 . S
C539 C555 1.377 . S
C540 C538 1.389 . S
C540 C541 1.524 . S
C540 C554 1.377 . S
C541 C540 1.524 . S
C541 C542 1.397 . S
C541 C546 1.363 . S
C542 H519 0.950 . S
C542 C541 1.397 . S
C542 C543 1.334 . S
C543 H520 0.950 . S
C543 C542 1.334 . S
C543 C544 1.287 . S
C544 C543 1.287 . S
C544 C545 1.524 . S
C544 H563 0.913 . S
C545 H521 0.950 . S
C545 C544 1.524 . S
C545 C546 1.415 . S
C546 H522 0.950 . S
C546 C541 1.363 . S
C546 C545 1.415 . S
C547 H523 0.951 . S
C547 C548 1.366 . S
C547 C549 1.388 . S
C548 C547 1.366 . S
C548 C552 1.385 . S
C549 H524 0.951 . S
C549 C547 1.388 . S
C549 C550 1.366 . S
C550 C549 1.366 . S
C550 C551 1.414 . S
C550 C553 1.499 . S
C551 H525 0.950 . S
C551 C550 1.414 . S
C551 C552 1.374 . S
C552 H526 0.950 . S
C552 C548 1.385 . S
C552 C551 1.374 . S
C553 C550 1.499 . S
C553 C554 1.373 . S
C553 C555 1.389 . S
C554 H527 0.950 . S
C554 C540 1.377 . S
C554 C553 1.373 . S
C555 C539 1.377 . S
C555 C553 1.389 . S
C555 C556 1.524 . S
C556 C555 1.524 . S
C556 C557 1.397 . S
C556 C561 1.363 . S
C557 H528 0.950 . S
C557 C556 1.397 . S
C557 C558 1.334 . S
C558 H529 0.950 . S
C558 C557 1.334 . S
C558 C559 1.287 . S
C559 C558 1.287 . S
C559 C560 1.524 . S
C559 H562 0.999 . S
C560 H530 0.950 . S
C560 C559 1.524 . S
C560 C561 1.415 . S
C561 H531 0.950 . S
C561 C556 1.363 . S
C561 C560 1.415 . S
H562 C559 0.999 . S
H563 C544 0.913 . S
H564 C582 0.951 . S
H565 C584 0.951 . S
H566 C586 0.950 . S
H567 C587 0.950 . S
H568 C589 0.950 . S
H569 C592 0.950 . S
H570 C593 0.950 . S
H571 C595 0.950 . S
H572 C596 0.950 . S
H573 C597 0.951 . S
H574 C599 0.951 . S
H575 C601 0.950 . S
H576 C602 0.950 . S
H577 C604 0.950 . S
H578 C607 0.950 . S
H579 C608 0.950 . S
H580 C610 0.950 . S
H581 C611 0.950 . S
C582 H564 0.951 . S
C582 C583 1.366 . S
C582 C584 1.388 . S
C583 C582 1.366 . S
C583 C587 1.385 . S
C584 H565 0.951 . S
C584 C582 1.388 . S
C584 C585 1.366 . S
C585 C584 1.366 . S
C585 C586 1.414 . S
C585 C588 1.499 . S
C586 H566 0.950 . S
C586 C585 1.414 . S
C586 C587 1.374 . S
C587 H567 0.950 . S
C587 C583 1.385 . S
C587 C586 1.374 . S
C588 C585 1.499 . S
C588 C589 1.373 . S
C588 C590 1.389 . S
C589 H568 0.950 . S
C589 C588 1.373 . S
C589 C605 1.377 . S
C590 C588 1.389 . S
C590 C591 1.524 . S
C590 C604 1.377 . S
C591 C590 1.524 . S
C591 C592 1.397 . S
C591 C596 1.363 . S
C592 H569 0.950 . S
C592 C591 1.397 . S
C592 C593 1.334 . S
C593 H570 0.950 . S
C593 C592 1.334 . S
C593 C594 1.287 . S
C594 C593 1.287 . S
C594 C595 1.524 . S
C594 H613 0.913 . S
C595 H571 0.950 . S
C595 C594 1.524 . S
C595 C596 1.415 . S
C596 H572 0.950 . S
C596 C591 1.363 . S
C596 C595 1.415 . S
C597 H573 0.951 . S
C597 C598 1.366 . S
C597 C599 1.388 . S
C598 C597 1.366 . S
C598 C602 1.385 . S
C599 H574 0.951 . S
C599 C597 1.388 . S
C599 C600 1.366 . S
C600 C599 1.366 . S
C600 C601 1.414 . S
C600 C603 1.499 . S
C601 H575 0.950 . S
C601 C600 1.414 . S
C601 C602 1.374 . S
C602 H576 0.950 . S
C602 C598 1.385 . S
C602 C601 1.374 . S
C603 C600 1.499 . S
C603 C604 1.373 . S
C603 C605 1.389 . S
C604 H577 0.950 . S
C604 C590 1.377 . S
C604 C603 1.373 . S
C605 C589 1.377 . S
C605 C603 1.389 . S
C605 C606 1.524 . S
C606 C605 1.524 . S
C606 C607 1.397 . S
C606 C611 1.363 . S
C607 H578 0.950 . S
C607 C606 1.397 . S
C607 C608 1.334 . S
C608 H579 0.950 . S
C608 C607 1.334 . S
C608 C609 1.287 . S
C609 C608 1.287 . S
C609 C610 1.524 . S
C609 H612 0.999 . S
C610 H580 0.950 . S
C610 C609 1.524 . S
C610 C611 1.415 . S
C611 H581 0.950 . S
C611 C606 1.363 . S
C611 C610 1.415 . S
H612 C609 0.999 . S
H613 C594 0.913 . S
H614 C632 0.951 . S
H615 C634 0.951 . S
H616 C636 0.950 . S
H617 C637 0.950 . S
H618 C639 0.950 . S
H619 C642 0.950 . S
H620 C643 0.950 . S
H621 C645 0.950 . S
H622 C646 0.950 . S
H623 C647 0.951 . S
H624 C649 0.951 . S
H625 C651 0.950 . S
H626 C652 0.950 . S
H627 C654 0.950 . S
H628 C657 0.950 . S
H629 C658 0.950 . S
H630 C660 0.950 . S
H631 C661 0.950 . S
C632 H614 0.951 . S
C632 C633 1.366 . S
C632 C634 1.388 . S
C633 C632 1.366 . S
C633 C637 1.385 . S
C634 H615 0.951 . S
C634 C632 1.388 . S
C634 C635 1.366 . S
C635 C634 1.366 . S
C635 C636 1.414 . S
C635 C638 1.499 . S
C636 H616 0.950 . S
C636 C635 1.414 . S
C636 C637 1.374 . S
C637 H617 0.950 . S
C637 C633 1.385 . S
C637 C636 1.374 . S
C638 C635 1.499 . S
C638 C639 1.373 . S
C638 C640 1.389 . S
C639 H618 0.950 . S
C639 C638 1.373 . S
C639 C655 1.377 . S
C640 C638 1.389 . S
C640 C641 1.524 . S
C640 C654 1.377 . S
C641 C640 1.524 . S
C641 C642 1.397 . S
C641 C646 1.363 . S
C642 H619 0.950 . S
C642 C641 1.397 . S
C642 C643 1.334 . S
C643 H620 0.950 . S
C643 C642 1.334 . S
C643 C644 1.287 . S
C644 C643 1.287 . S
C644 C645 1.524 . S
C644 H663 0.913 . S
C645 H621 0.950 . S
C645 C644 1.524 . S
C645 C646 1.415 . S
C646 H622 0.950 . S
C646 C641 1.363 . S
C646 C645 1.415 . S
C647 H623 0.951 . S
C647 C648 1.366 . S
C647 C649 1.388 . S
C648 C647 1.366 . S
C648 C652 1.385 . S
C649 H624 0.951 . S
C649 C647 1.388 . S
C649 C650 1.366 . S
C650 C649 1.366 . S
C650 C651 1.414 . S
C650 C653 1.499 . S
C651 H625 0.950 . S
C651 C650 1.414 . S
C651 C652 1.374 . S
C652 H626 0.950 . S
C652 C648 1.385 . S
C652 C651 1.374 . S
C653 C650 1.499 . S
C653 C654 1.373 . S
C653 C655 1.389 . S
C654 H627 0.950 . S
C654 C640 1.377 . S
C654 C653 1.373 . S
C655 C639 1.377 . S
C655 C653 1.389 . S
C655 C656 1.524 . S
C656 C655 1.524 . S
C656 C657 1.397 . S
C656 C661 1.363 . S
C657 H628 0.950 . S
C657 C656 1.397 . S
C657 C658 1.334 . S
C658 H629 0.950 . S
C658 C657 1.334 . S
C658 C659 1.287 . S
C659 C658 1.287 . S
C659 C660 1.524 . S
C659 H662 0.999 . S
C660 H630 0.950 . S
C660 C659 1.524 . S
C660 C661 1.415 . S
C661 H631 0.950 . S
C661 C656 1.363 . S
C661 C660 1.415 . S
H662 C659 0.999 . S
H663 C644 0.913 . S
H664 C682 0.951 . S
H665 C684 0.951 . S
H666 C686 0.950 . S
H667 C687 0.950 . S
H668 C689 0.950 . S
H669 C692 0.950 . S
H670 C693 0.950 . S
H671 C695 0.950 . S
H672 C696 0.950 . S
H673 C697 0.951 . S
H674 C699 0.951 . S
H675 C701 0.950 . S
H676 C702 0.950 . S
H677 C704 0.950 . S
H678 C707 0.950 . S
H679 C708 0.950 . S
H680 C710 0.950 . S
H681 C711 0.950 . S
C682 H664 0.951 . S
C682 C683 1.366 . S
C682 C684 1.388 . S
C683 C682 1.366 . S
C683 C687 1.385 . S
C684 H665 0.951 . S
C684 C682 1.388 . S
C684 C685 1.366 . S
C685 C684 1.366 . S
C685 C686 1.414 . S
C685 C688 1.499 . S
C686 H666 0.950 . S
C686 C685 1.414 . S
C686 C687 1.374 . S
C687 H667 0.950 . S
C687 C683 1.385 . S
C687 C686 1.374 . S
C688 C685 1.499 . S
C688 C689 1.373 . S
C688 C690 1.389 . S
C689 H668 0.950 . S
C689 C688 1.373 . S
C689 C705 1.377 . S
C690 C688 1.389 . S
C690 C691 1.524 . S
C690 C704 1.377 . S
C691 C690 1.524 . S
C691 C692 1.397 . S
C691 C696 1.363 . S
C692 H669 0.950 . S
C692 C691 1.397 . S
C692 C693 1.334 . S
C693 H670 0.950 . S
C693 C692 1.334 . S
C693 C694 1.287 . S
C694 C693 1.287 . S
C694 C695 1.524 . S
C694 H713 0.913 . S
C695 H671 0.950 . S
C695 C694 1.524 . S
C695 C696 1.415 . S
C696 H672 0.950 . S
C696 C691 1.363 . S
C696 C695 1.415 . S
C697 H673 0.951 . S
C697 C698 1.366 . S
C697 C699 1.388 . S
C698 C697 1.366 . S
C698 C702 1.385 . S
C699 H674 0.951 . S
C699 C697 1.388 . S
C699 C700 1.366 . S
C700 C699 1.366 . S
C700 C701 1.414 . S
C700 C703 1.499 . S
C701 H675 0.950 . S
C701 C700 1.414 . S
C701 C702 1.374 . S
C702 H676 0.950 . S
C702 C698 1.385 . S
C702 C701 1.374 . S
C703 C700 1.499 . S
C703 C704 1.373 . S
C703 C705 1.389 . S
C704 H677 0.950 . S
C704 C690 1.377 . S
C704 C703 1.373 . S
C705 C689 1.377 . S
C705 C703 1.389 . S
C705 C706 1.524 . S
C706 C705 1.524 . S
C706 C707 1.397 . S
C706 C711 1.363 . S
C707 H678 0.950 . S
C707 C706 1.397 . S
C707 C708 1.334 . S
C708 H679 0.950 . S
C708 C707 1.334 . S
C708 C709 1.287 . S
C709 C708 1.287 . S
C709 C710 1.524 . S
C709 H712 0.999 . S
C710 H680 0.950 . S
C710 C709 1.524 . S
C710 C711 1.415 . S
C711 H681 0.950 . S
C711 C706 1.363 . S
C711 C710 1.415 . S
H712 C709 0.999 . S
H713 C694 0.913 . S
H714 C732 0.951 . S
H715 C734 0.951 . S
H716 C736 0.950 . S
H717 C737 0.950 . S
H718 C739 0.950 . S
H719 C742 0.950 . S
H720 C743 0.950 . S
H721 C745 0.950 . S
H722 C746 0.950 . S
H723 C747 0.951 . S
H724 C749 0.951 . S
H725 C751 0.950 . S
H726 C752 0.950 . S
H727 C754 0.950 . S
H728 C757 0.950 . S
H729 C758 0.950 . S
H730 C760 0.950 . S
H731 C761 0.950 . S
C732 H714 0.951 . S
C732 C733 1.366 . S
C732 C734 1.388 . S
C733 C732 1.366 . S
C733 C737 1.385 . S
C734 H715 0.951 . S
C734 C732 1.388 . S
C734 C735 1.366 . S
C735 C734 1.366 . S
C735 C736 1.414 . S
C735 C738 1.499 . S
C736 H716 0.950 . S
C736 C735 1.414 . S
C736 C737 1.374 . S
C737 H717 0.950 . S
C737 C733 1.385 . S
C737 C736 1.374 . S
C738 C735 1.499 . S
C738 C739 1.373 . S
C738 C740 1.389 . S
C739 H718 0.950 . S
C739 C738 1.373 . S
C739 C755 1.377 . S
C740 C738 1.389 . S
C740 C741 1.524 . S
C740 C754 1.377 . S
C741 C740 1.524 . S
C741 C742 1.397 . S
C741 C746 1.363 . S
C742 H719 0.950 . S
C742 C741 1.397 . S
C742 C743 1.334 . S
C743 H720 0.950 . S
C743 C742 1.334 . S
C743 C744 1.287 . S
C744 C743 1.287 . S
C744 C745 1.524 . S
C744 H763 0.913 . S
C745 H721 0.950 . S
C745 C744 1.524 . S
C745 C746 1.415 . S
C746 H722 0.950 . S
C746 C741 1.363 . S
C746 C745 1.415 . S
C747 H723 0.951 . S
C747 C748 1.366 . S
C747 C749 1.388 . S
C748 C747 1.366 . S
C748 C752 1.385 . S
C749 H724 0.951 . S
C749 C747 1.388 . S
C749 C750 1.366 . S
C750 C749 1.366 . S
C750 C751 1.414 . S
C750 C753 1.499 . S
C751 H725 0.950 . S
C751 C750 1.414 . S
C751 C752 1.374 . S
C752 H726 0.950 . S
C752 C748 1.385 . S
C752 C751 1.374 . S
C753 C750 1.499 . S
C753 C754 1.373 . S
C753 C755 1.389 . S
C754 H727 0.950 . S
C754 C740 1.377 . S
C754 C753 1.373 . S
C755 C739 1.377 . S
C755 C753 1.389 . S
C755 C756 1.524 . S
C756 C755 1.524 . S
C756 C757 1.397 . S
C756 C761 1.363 . S
C757 H728 0.950 . S
C757 C756 1.397 . S
C757 C758 1.334 . S
C758 H729 0.950 . S
C758 C757 1.334 . S
C758 C759 1.287 . S
C759 C758 1.287 . S
C759 C760 1.524 . S
C759 H762 0.999 . S
C760 H730 0.950 . S
C760 C759 1.524 . S
C760 C761 1.415 . S
C761 H731 0.950 . S
C761 C756 1.363 . S
C761 C760 1.415 . S
H762 C759 0.999 . S
H763 C744 0.913 . S
H764 C782 0.951 . S
H765 C784 0.951 . S
H766 C786 0.950 . S
H767 C787 0.950 . S
H768 C789 0.950 . S
H769 C792 0.950 . S
H770 C793 0.950 . S
H771 C795 0.950 . S
H772 C796 0.950 . S
H773 C797 0.951 . S
H774 C799 0.951 . S
H775 C801 0.950 . S
H776 C802 0.950 . S
H777 C804 0.950 . S
H778 C807 0.950 . S
H779 C808 0.950 . S
H780 C810 0.950 . S
H781 C811 0.950 . S
C782 H764 0.951 . S
C782 C783 1.366 . S
C782 C784 1.388 . S
C783 C782 1.366 . S
C783 C787 1.385 . S
C784 H765 0.951 . S
C784 C782 1.388 . S
C784 C785 1.366 . S
C785 C784 1.366 . S
C785 C786 1.414 . S
C785 C788 1.499 . S
C786 H766 0.950 . S
C786 C785 1.414 . S
C786 C787 1.374 . S
C787 H767 0.950 . S
C787 C783 1.385 . S
C787 C786 1.374 . S
C788 C785 1.499 . S
C788 C789 1.373 . S
C788 C790 1.389 . S
C789 H768 0.950 . S
C789 C788 1.373 . S
C789 C805 1.377 . S
C790 C788 1.389 . S
C790 C791 1.524 . S
C790 C804 1.377 . S
C791 C790 1.524 . S
C791 C792 1.397 . S
C791 C796 1.363 . S
C792 H769 0.950 . S
C792 C791 1.397 . S
C792 C793 1.334 . S
C793 H770 0.950 . S
C793 C792 1.334 . S
C793 C794 1.287 . S
C794 C793 1.287 . S
C794 C795 1.524 . S
C794 H813 0.913 . S
C795 H771 0.950 . S
C795 C794 1.524 . S
C795 C796 1.415 . S
C796 H772 0.950 . S
C796 C791 1.363 . S
C796 C795 1.415 . S
C797 H773 0.951 . S
C797 C798 1.366 . S
C797 C799 1.388 . S
C798 C797 1.366 . S
C798 C802 1.385 . S
C799 H774 0.951 . S
C799 C797 1.388 . S
C799 C800 1.366 . S
C800 C799 1.366 . S
C800 C801 1.414 . S
C800 C803 1.499 . S
C801 H775 0.950 . S
C801 C800 1.414 . S
C801 C802 1.374 . S
C802 H776 0.950 . S
C802 C798 1.385 . S
C802 C801 1.374 . S
C803 C800 1.499 . S
C803 C804 1.373 . S
C803 C805 1.389 . S
C804 H777 0.950 . S
C804 C790 1.377 . S
C804 C803 1.373 . S
C805 C789 1.377 . S
C805 C803 1.389 . S
C805 C806 1.524 . S
C806 C805 1.524 . S
C806 C807 1.397 . S
C806 C811 1.363 . S
C807 H778 0.950 . S
C807 C806 1.397 . S
C807 C808 1.334 . S
C808 H779 0.950 . S
C808 C807 1.334 . S
C808 C809 1.287 . S
C809 C808 1.287 . S
C809 C810 1.524 . S
C809 H812 0.999 . S
C810 H780 0.950 . S
C810 C809 1.524 . S
C810 C811 1.415 . S
C811 H781 0.950 . S
C811 C806 1.363 . S
C811 C810 1.415 . S
H812 C809 0.999 . S
H813 C794 0.913 . S
H814 C832 0.951 . S
H815 C834 0.951 . S
H816 C836 0.950 . S
H817 C837 0.950 . S
H818 C839 0.950 . S
H819 C842 0.950 . S
H820 C843 0.950 . S
H821 C845 0.950 . S
H822 C846 0.950 . S
H823 C847 0.951 . S
H824 C849 0.951 . S
H825 C851 0.950 . S
H826 C852 0.950 . S
H827 C854 0.950 . S
H828 C857 0.950 . S
H829 C858 0.950 . S
H830 C860 0.950 . S
H831 C861 0.950 . S
C832 H814 0.951 . S
C832 C833 1.366 . S
C832 C834 1.388 . S
C833 C832 1.366 . S
C833 C837 1.385 . S
C834 H815 0.951 . S
C834 C832 1.388 . S
C834 C835 1.366 . S
C835 C834 1.366 . S
C835 C836 1.414 . S
C835 C838 1.499 . S
C836 H816 0.950 . S
C836 C835 1.414 . S
C836 C837 1.374 . S
C837 H817 0.950 . S
C837 C833 1.385 . S
C837 C836 1.374 . S
C838 C835 1.499 . S
C838 C839 1.373 . S
C838 C840 1.389 . S
C839 H818 0.950 . S
C839 C838 1.373 . S
C839 C855 1.377 . S
C840 C838 1.389 . S
C840 C841 1.524 . S
C840 C854 1.377 . S
C841 C840 1.524 . S
C841 C842 1.397 . S
C841 C846 1.363 . S
C842 H819 0.950 . S
C842 C841 1.397 . S
C842 C843 1.334 . S
C843 H820 0.950 . S
C843 C842 1.334 . S
C843 C844 1.287 . S
C844 C843 1.287 . S
C844 C845 1.524 . S
C844 H863 0.913 1_455 S
C845 H821 0.950 . S
C845 C844 1.524 . S
C845 C846 1.415 . S
C846 H822 0.950 . S
C846 C841 1.363 . S
C846 C845 1.415 . S
C847 H823 0.951 . S
C847 C848 1.366 . S
C847 C849 1.388 . S
C848 C847 1.366 . S
C848 C852 1.385 . S
C849 H824 0.951 . S
C849 C847 1.388 . S
C849 C850 1.366 . S
C850 C849 1.366 . S
C850 C851 1.414 . S
C850 C853 1.499 . S
C851 H825 0.950 . S
C851 C850 1.414 . S
C851 C852 1.374 . S
C852 H826 0.950 . S
C852 C848 1.385 . S
C852 C851 1.374 . S
C853 C850 1.499 . S
C853 C854 1.373 . S
C853 C855 1.389 . S
C854 H827 0.950 . S
C854 C840 1.377 . S
C854 C853 1.373 . S
C855 C839 1.377 . S
C855 C853 1.389 . S
C855 C856 1.524 . S
C856 C855 1.524 . S
C856 C857 1.397 . S
C856 C861 1.363 . S
C857 H828 0.950 . S
C857 C856 1.397 . S
C857 C858 1.334 . S
C858 H829 0.950 . S
C858 C857 1.334 . S
C858 C859 1.287 . S
C859 C858 1.287 . S
C859 C860 1.524 . S
C859 H862 0.999 . S
C860 H830 0.950 . S
C860 C859 1.524 . S
C860 C861 1.415 . S
C861 H831 0.950 . S
C861 C856 1.363 . S
C861 C860 1.415 . S
H862 C859 0.999 . S
H863 C844 0.913 1_655 S
H864 C882 0.951 . S
H865 C884 0.951 . S
H866 C886 0.950 . S
H867 C887 0.950 . S
H868 C889 0.950 . S
H869 C892 0.950 . S
H870 C893 0.950 . S
H871 C895 0.950 . S
H872 C896 0.950 . S
H873 C897 0.951 . S
H874 C899 0.951 . S
H875 C901 0.950 . S
H876 C902 0.950 . S
H877 C904 0.950 . S
H878 C907 0.950 . S
H879 C908 0.950 . S
H880 C910 0.950 . S
H881 C911 0.950 . S
C882 H864 0.951 . S
C882 C883 1.366 . S
C882 C884 1.388 . S
C883 C882 1.366 . S
C883 C887 1.385 . S
C884 H865 0.951 . S
C884 C882 1.388 . S
C884 C885 1.366 . S
C885 C884 1.366 . S
C885 C886 1.414 . S
C885 C888 1.499 . S
C886 H866 0.950 . S
C886 C885 1.414 . S
C886 C887 1.374 . S
C887 H867 0.950 . S
C887 C883 1.385 . S
C887 C886 1.374 . S
C888 C885 1.499 . S
C888 C889 1.373 . S
C888 C890 1.389 . S
C889 H868 0.950 . S
C889 C888 1.373 . S
C889 C905 1.377 . S
C890 C888 1.389 . S
C890 C891 1.524 . S
C890 C904 1.377 . S
C891 C890 1.524 . S
C891 C892 1.397 . S
C891 C896 1.363 . S
C892 H869 0.950 . S
C892 C891 1.397 . S
C892 C893 1.334 . S
C893 H870 0.950 . S
C893 C892 1.334 . S
C893 C894 1.287 . S
C894 C893 1.287 . S
C894 C895 1.524 . S
C894 H913 0.914 1_545 S
C895 H871 0.950 . S
C895 C894 1.524 . S
C895 C896 1.415 . S
C896 H872 0.950 . S
C896 C891 1.363 . S
C896 C895 1.415 . S
C897 H873 0.951 . S
C897 C898 1.366 . S
C897 C899 1.388 . S
C898 C897 1.366 . S
C898 C902 1.385 . S
C899 H874 0.951 . S
C899 C897 1.388 . S
C899 C900 1.366 . S
C900 C899 1.366 . S
C900 C901 1.414 . S
C900 C903 1.499 . S
C901 H875 0.950 . S
C901 C900 1.414 . S
C901 C902 1.374 . S
C902 H876 0.950 . S
C902 C898 1.385 . S
C902 C901 1.374 . S
C903 C900 1.499 . S
C903 C904 1.373 . S
C903 C905 1.389 . S
C904 H877 0.950 . S
C904 C890 1.377 . S
C904 C903 1.373 . S
C905 C889 1.377 . S
C905 C903 1.389 . S
C905 C906 1.524 . S
C906 C905 1.524 . S
C906 C907 1.397 . S
C906 C911 1.363 . S
C907 H878 0.950 . S
C907 C906 1.397 . S
C907 C908 1.334 . S
C908 H879 0.950 . S
C908 C907 1.334 . S
C908 C909 1.287 . S
C909 C908 1.287 . S
C909 C910 1.524 . S
C909 H912 0.999 . S
C910 H880 0.950 . S
C910 C909 1.524 . S
C910 C911 1.415 . S
C911 H881 0.950 . S
C911 C906 1.363 . S
C911 C910 1.415 . S
H912 C909 0.999 . S
H913 C894 0.914 1_565 S
H914 C932 0.951 . S
H915 C934 0.951 . S
H916 C936 0.950 . S
H917 C937 0.950 . S
H918 C939 0.950 . S
H919 C942 0.950 . S
H920 C943 0.950 . S
H921 C945 0.950 . S
H922 C946 0.950 . S
H923 C947 0.951 . S
H924 C949 0.951 . S
H925 C951 0.950 . S
H926 C952 0.950 . S
H927 C954 0.950 . S
H928 C957 0.950 . S
H929 C958 0.950 . S
H930 C960 0.950 . S
H931 C961 0.950 . S
C932 H914 0.951 . S
C932 C933 1.366 . S
C932 C934 1.388 . S
C933 C932 1.366 . S
C933 C937 1.385 . S
C934 H915 0.951 . S
C934 C932 1.388 . S
C934 C935 1.366 . S
C935 C934 1.366 . S
C935 C936 1.414 . S
C935 C938 1.499 . S
C936 H916 0.950 . S
C936 C935 1.414 . S
C936 C937 1.374 . S
C937 H917 0.950 . S
C937 C933 1.385 . S
C937 C936 1.374 . S
C938 C935 1.499 . S
C938 C939 1.373 . S
C938 C940 1.389 . S
C939 H918 0.950 . S
C939 C938 1.373 . S
C939 C955 1.377 . S
C940 C938 1.389 . S
C940 C941 1.524 . S
C940 C954 1.377 . S
C941 C940 1.524 . S
C941 C942 1.397 . S
C941 C946 1.363 . S
C942 H919 0.950 . S
C942 C941 1.397 . S
C942 C943 1.334 . S
C943 H920 0.950 . S
C943 C942 1.334 . S
C943 C944 1.287 . S
C944 C943 1.287 . S
C944 C945 1.524 . S
C944 H963 0.913 . S
C945 H921 0.950 . S
C945 C944 1.524 . S
C945 C946 1.415 . S
C946 H922 0.950 . S
C946 C941 1.363 . S
C946 C945 1.415 . S
C947 H923 0.951 . S
C947 C948 1.366 . S
C947 C949 1.388 . S
C948 C947 1.366 . S
C948 C952 1.385 . S
C949 H924 0.951 . S
C949 C947 1.388 . S
C949 C950 1.366 . S
C950 C949 1.366 . S
C950 C951 1.414 . S
C950 C953 1.499 . S
C951 H925 0.950 . S
C951 C950 1.414 . S
C951 C952 1.374 . S
C952 H926 0.950 . S
C952 C948 1.385 . S
C952 C951 1.374 . S
C953 C950 1.499 . S
C953 C954 1.373 . S
C953 C955 1.389 . S
C954 H927 0.950 . S
C954 C940 1.377 . S
C954 C953 1.373 . S
C955 C939 1.377 . S
C955 C953 1.389 . S
C955 C956 1.524 . S
C956 C955 1.524 . S
C956 C957 1.397 . S
C956 C961 1.363 . S
C957 H928 0.950 . S
C957 C956 1.397 . S
C957 C958 1.334 . S
C958 H929 0.950 . S
C958 C957 1.334 . S
C958 C959 1.287 . S
C959 C958 1.287 . S
C959 C960 1.524 . S
C959 H962 0.999 . S
C960 H930 0.950 . S
C960 C959 1.524 . S
C960 C961 1.415 . S
C961 H931 0.950 . S
C961 C956 1.363 . S
C961 C960 1.415 . S
H962 C959 0.999 . S
H963 C944 0.913 . S
H964 C982 0.951 . S
H965 C984 0.951 . S
H966 C986 0.950 . S
H967 C987 0.950 . S
H968 C989 0.950 . S
H969 C992 0.950 . S
H970 C993 0.950 . S
H971 C995 0.950 . S
H972 C996 0.950 . S
H973 C997 0.951 . S
H974 C999 0.951 . S
H975 C1001 0.950 . S
H976 C1002 0.950 . S
H977 C1004 0.950 . S
H978 C1007 0.950 . S
H979 C1008 0.950 . S
H980 C1010 0.950 . S
H981 C1011 0.950 . S
C982 H964 0.951 . S
C982 C983 1.366 . S
C982 C984 1.388 . S
C983 C982 1.366 . S
C983 C987 1.385 . S
C984 H965 0.951 . S
C984 C982 1.388 . S
C984 C985 1.366 . S
C985 C984 1.366 . S
C985 C986 1.414 . S
C985 C988 1.499 . S
C986 H966 0.950 . S
C986 C985 1.414 . S
C986 C987 1.374 . S
C987 H967 0.950 . S
C987 C983 1.385 . S
C987 C986 1.374 . S
C988 C985 1.499 . S
C988 C989 1.373 . S
C988 C990 1.389 . S
C989 H968 0.950 . S
C989 C988 1.373 . S
C989 C1005 1.377 . S
C990 C988 1.389 . S
C990 C991 1.524 . S
C990 C1004 1.377 . S
C991 C990 1.524 . S
C991 C992 1.397 . S
C991 C996 1.363 . S
C992 H969 0.950 . S
C992 C991 1.397 . S
C992 C993 1.334 . S
C993 H970 0.950 . S
C993 C992 1.334 . S
C993 C994 1.287 . S
C994 C993 1.287 . S
C994 C995 1.524 . S
C994 H1013 0.913 . S
C995 H971 0.950 . S
C995 C994 1.524 . S
C995 C996 1.415 . S
C996 H972 0.950 . S
C996 C991 1.363 . S
C996 C995 1.415 . S
C997 H973 0.951 . S
C997 C998 1.366 . S
C997 C999 1.388 . S
C998 C997 1.366 . S
C998 C1002 1.385 . S
C999 H974 0.951 . S
C999 C997 1.388 . S
C999 C1000 1.366 . S
C1000 C999 1.366 . S
C1000 C1001 1.414 . S
C1000 C1003 1.499 . S
C1001 H975 0.950 . S
C1001 C1000 1.414 . S
C1001 C1002 1.374 . S
C1002 H976 0.950 . S
C1002 C998 1.385 . S
C1002 C1001 1.374 . S
C1003 C1000 1.499 . S
C1003 C1004 1.373 . S
C1003 C1005 1.389 . S
C1004 H977 0.950 . S
C1004 C990 1.377 . S
C1004 C1003 1.373 . S
C1005 C989 1.377 . S
C1005 C1003 1.389 . S
C1005 C1006 1.524 . S
C1006 C1005 1.524 . S
C1006 C1007 1.397 . S
C1006 C1011 1.363 . S
C1007 H978 0.950 . S
C1007 C1006 1.397 . S
C1007 C1008 1.334 . S
C1008 H979 0.950 . S
C1008 C1007 1.334 . S
C1008 C1009 1.287 . S
C1009 C1008 1.287 . S
C1009 C1010 1.524 . S
C1009 H1012 0.999 . S
C1010 H980 0.950 . S
C1010 C1009 1.524 . S
C1010 C1011 1.415 . S
C1011 H981 0.950 . S
C1011 C1006 1.363 . S
C1011 C1010 1.415 . S
H1012 C1009 0.999 . S
H1013 C994 0.913 . S
H1014 C1032 0.951 . S
H1015 C1034 0.951 . S
H1016 C1036 0.950 . S
H1017 C1037 0.950 . S
H1018 C1039 0.950 . S
H1019 C1042 0.950 . S
H1020 C1043 0.950 . S
H1021 C1045 0.950 . S
H1022 C1046 0.950 . S
H1023 C1047 0.951 . S
H1024 C1049 0.951 . S
H1025 C1051 0.950 . S
H1026 C1052 0.950 . S
H1027 C1054 0.950 . S
H1028 C1057 0.950 . S
H1029 C1058 0.950 . S
H1030 C1060 0.950 . S
H1031 C1061 0.950 . S
C1032 H1014 0.951 . S
C1032 C1033 1.366 . S
C1032 C1034 1.388 . S
C1033 C1032 1.366 . S
C1033 C1037 1.385 . S
C1034 H1015 0.951 . S
C1034 C1032 1.388 . S
C1034 C1035 1.366 . S
C1035 C1034 1.366 . S
C1035 C1036 1.414 . S
C1035 C1038 1.499 . S
C1036 H1016 0.950 . S
C1036 C1035 1.414 . S
C1036 C1037 1.374 . S
C1037 H1017 0.950 . S
C1037 C1033 1.385 . S
C1037 C1036 1.374 . S
C1038 C1035 1.499 . S
C1038 C1039 1.373 . S
C1038 C1040 1.389 . S
C1039 H1018 0.950 . S
C1039 C1038 1.373 . S
C1039 C1055 1.377 . S
C1040 C1038 1.389 . S
C1040 C1041 1.524 . S
C1040 C1054 1.377 . S
C1041 C1040 1.524 . S
C1041 C1042 1.397 . S
C1041 C1046 1.363 . S
C1042 H1019 0.950 . S
C1042 C1041 1.397 . S
C1042 C1043 1.334 . S
C1043 H1020 0.950 . S
C1043 C1042 1.334 . S
C1043 C1044 1.287 . S
C1044 C1043 1.287 . S
C1044 C1045 1.524 . S
C1044 H1063 0.913 . S
C1045 H1021 0.950 . S
C1045 C1044 1.524 . S
C1045 C1046 1.415 . S
C1046 H1022 0.950 . S
C1046 C1041 1.363 . S
C1046 C1045 1.415 . S
C1047 H1023 0.951 . S
C1047 C1048 1.366 . S
C1047 C1049 1.388 . S
C1048 C1047 1.366 . S
C1048 C1052 1.385 . S
C1049 H1024 0.951 . S
C1049 C1047 1.388 . S
C1049 C1050 1.366 . S
C1050 C1049 1.366 . S
C1050 C1051 1.414 . S
C1050 C1053 1.499 . S
C1051 H1025 0.950 . S
C1051 C1050 1.414 . S
C1051 C1052 1.374 . S
C1052 H1026 0.950 . S
C1052 C1048 1.385 . S
C1052 C1051 1.374 . S
C1053 C1050 1.499 . S
C1053 C1054 1.373 . S
C1053 C1055 1.389 . S
C1054 H1027 0.950 . S
C1054 C1040 1.377 . S
C1054 C1053 1.373 . S
C1055 C1039 1.377 . S
C1055 C1053 1.389 . S
C1055 C1056 1.524 . S
C1056 C1055 1.524 . S
C1056 C1057 1.397 . S
C1056 C1061 1.363 . S
C1057 H1028 0.950 . S
C1057 C1056 1.397 . S
C1057 C1058 1.334 . S
C1058 H1029 0.950 . S
C1058 C1057 1.334 . S
C1058 C1059 1.287 . S
C1059 C1058 1.287 . S
C1059 C1060 1.524 . S
C1059 H1062 0.999 . S
C1060 H1030 0.950 . S
C1060 C1059 1.524 . S
C1060 C1061 1.415 . S
C1061 H1031 0.950 . S
C1061 C1056 1.363 . S
C1061 C1060 1.415 . S
H1062 C1059 0.999 . S
H1063 C1044 0.913 . S
H1064 C1082 0.951 . S
H1065 C1084 0.951 . S
H1066 C1086 0.950 . S
H1067 C1087 0.950 . S
H1068 C1089 0.950 . S
H1069 C1092 0.950 . S
H1070 C1093 0.950 . S
H1071 C1095 0.950 . S
H1072 C1096 0.950 . S
H1073 C1097 0.951 . S
H1074 C1099 0.951 . S
H1075 C1101 0.950 . S
H1076 C1102 0.950 . S
H1077 C1104 0.950 . S
H1078 C1107 0.950 . S
H1079 C1108 0.950 . S
H1080 C1110 0.950 . S
H1081 C1111 0.950 . S
C1082 H1064 0.951 . S
C1082 C1083 1.366 . S
C1082 C1084 1.388 . S
C1083 C1082 1.366 . S
C1083 C1087 1.385 . S
C1084 H1065 0.951 . S
C1084 C1082 1.388 . S
C1084 C1085 1.366 . S
C1085 C1084 1.366 . S
C1085 C1086 1.414 . S
C1085 C1088 1.499 . S
C1086 H1066 0.950 . S
C1086 C1085 1.414 . S
C1086 C1087 1.374 . S
C1087 H1067 0.950 . S
C1087 C1083 1.385 . S
C1087 C1086 1.374 . S
C1088 C1085 1.499 . S
C1088 C1089 1.373 . S
C1088 C1090 1.389 . S
C1089 H1068 0.950 . S
C1089 C1088 1.373 . S
C1089 C1105 1.377 . S
C1090 C1088 1.389 . S
C1090 C1091 1.524 . S
C1090 C1104 1.377 . S
C1091 C1090 1.524 . S
C1091 C1092 1.397 . S
C1091 C1096 1.363 . S
C1092 H1069 0.950 . S
C1092 C1091 1.397 . S
C1092 C1093 1.334 . S
C1093 H1070 0.950 . S
C1093 C1092 1.334 . S
C1093 C1094 1.287 . S
C1094 C1093 1.287 . S
C1094 C1095 1.524 . S
C1094 H1113 0.913 . S
C1095 H1071 0.950 . S
C1095 C1094 1.524 . S
C1095 C1096 1.415 . S
C1096 H1072 0.950 . S
C1096 C1091 1.363 . S
C1096 C1095 1.415 . S
C1097 H1073 0.951 . S
C1097 C1098 1.366 . S
C1097 C1099 1.388 . S
C1098 C1097 1.366 . S
C1098 C1102 1.385 . S
C1099 H1074 0.951 . S
C1099 C1097 1.388 . S
C1099 C1100 1.366 . S
C1100 C1099 1.366 . S
C1100 C1101 1.414 . S
C1100 C1103 1.499 . S
C1101 H1075 0.950 . S
C1101 C1100 1.414 . S
C1101 C1102 1.374 . S
C1102 H1076 0.950 . S
C1102 C1098 1.385 . S
C1102 C1101 1.374 . S
C1103 C1100 1.499 . S
C1103 C1104 1.373 . S
C1103 C1105 1.389 . S
C1104 H1077 0.950 . S
C1104 C1090 1.377 . S
C1104 C1103 1.373 . S
C1105 C1089 1.377 . S
C1105 C1103 1.389 . S
C1105 C1106 1.524 . S
C1106 C1105 1.524 . S
C1106 C1107 1.397 . S
C1106 C1111 1.363 . S
C1107 H1078 0.950 . S
C1107 C1106 1.397 . S
C1107 C1108 1.334 . S
C1108 H1079 0.950 . S
C1108 C1107 1.334 . S
C1108 C1109 1.287 . S
C1109 C1108 1.287 . S
C1109 C1110 1.524 . S
C1109 H1112 0.999 . S
C1110 H1080 0.950 . S
C1110 C1109 1.524 . S
C1110 C1111 1.415 . S
C1111 H1081 0.950 . S
C1111 C1106 1.363 . S
C1111 C1110 1.415 . S
H1112 C1109 0.999 . S
H1113 C1094 0.913 . S
H1114 C1132 0.951 . S
H1115 C1134 0.951 . S
H1116 C1136 0.950 . S
H1117 C1137 0.950 . S
H1118 C1139 0.950 . S
H1119 C1142 0.950 . S
H1120 C1143 0.950 . S
H1121 C1145 0.950 . S
H1122 C1146 0.950 . S
H1123 C1147 0.951 . S
H1124 C1149 0.951 . S
H1125 C1151 0.950 . S
H1126 C1152 0.950 . S
H1127 C1154 0.950 . S
H1128 C1157 0.950 . S
H1129 C1158 0.950 . S
H1130 C1160 0.950 . S
H1131 C1161 0.950 . S
C1132 H1114 0.951 . S
C1132 C1133 1.366 . S
C1132 C1134 1.388 . S
C1133 C1132 1.366 . S
C1133 C1137 1.385 . S
C1134 H1115 0.951 . S
C1134 C1132 1.388 . S
C1134 C1135 1.366 . S
C1135 C1134 1.366 . S
C1135 C1136 1.414 . S
C1135 C1138 1.499 . S
C1136 H1116 0.950 . S
C1136 C1135 1.414 . S
C1136 C1137 1.374 . S
C1137 H1117 0.950 . S
C1137 C1133 1.385 . S
C1137 C1136 1.374 . S
C1138 C1135 1.499 . S
C1138 C1139 1.373 . S
C1138 C1140 1.389 . S
C1139 H1118 0.950 . S
C1139 C1138 1.373 . S
C1139 C1155 1.377 . S
C1140 C1138 1.389 . S
C1140 C1141 1.524 . S
C1140 C1154 1.377 . S
C1141 C1140 1.524 . S
C1141 C1142 1.397 . S
C1141 C1146 1.363 . S
C1142 H1119 0.950 . S
C1142 C1141 1.397 . S
C1142 C1143 1.334 . S
C1143 H1120 0.950 . S
C1143 C1142 1.334 . S
C1143 C1144 1.287 . S
C1144 C1143 1.287 . S
C1144 C1145 1.524 . S
C1144 H1163 0.913 . S
C1145 H1121 0.950 . S
C1145 C1144 1.524 . S
C1145 C1146 1.415 . S
C1146 H1122 0.950 . S
C1146 C1141 1.363 . S
C1146 C1145 1.415 . S
C1147 H1123 0.951 . S
C1147 C1148 1.366 . S
C1147 C1149 1.388 . S
C1148 C1147 1.366 . S
C1148 C1152 1.385 . S
C1149 H1124 0.951 . S
C1149 C1147 1.388 . S
C1149 C1150 1.366 . S
C1150 C1149 1.366 . S
C1150 C1151 1.414 . S
C1150 C1153 1.499 . S
C1151 H1125 0.950 . S
C1151 C1150 1.414 . S
C1151 C1152 1.374 . S
C1152 H1126 0.950 . S
C1152 C1148 1.385 . S
C1152 C1151 1.374 . S
C1153 C1150 1.499 . S
C1153 C1154 1.373 . S
C1153 C1155 1.389 . S
C1154 H1127 0.950 . S
C1154 C1140 1.377 . S
C1154 C1153 1.373 . S
C1155 C1139 1.377 . S
C1155 C1153 1.389 . S
C1155 C1156 1.524 . S
C1156 C1155 1.524 . S
C1156 C1157 1.397 . S
C1156 C1161 1.363 . S
C1157 H1128 0.950 . S
C1157 C1156 1.397 . S
C1157 C1158 1.334 . S
C1158 H1129 0.950 . S
C1158 C1157 1.334 . S
C1158 C1159 1.287 . S
C1159 C1158 1.287 . S
C1159 C1160 1.524 . S
C1159 H1162 0.999 . S
C1160 H1130 0.950 . S
C1160 C1159 1.524 . S
C1160 C1161 1.415 . S
C1161 H1131 0.950 . S
C1161 C1156 1.363 . S
C1161 C1160 1.415 . S
H1162 C1159 0.999 . S
H1163 C1144 0.913 . S
H1164 C1182 0.951 . S
H1165 C1184 0.951 . S
H1166 C1186 0.950 . S
H1167 C1187 0.950 . S
H1168 C1189 0.950 . S
H1169 C1192 0.950 . S
H1170 C1193 0.950 . S
H1171 C1195 0.950 . S
H1172 C1196 0.950 . S
H1173 C1197 0.951 . S
H1174 C1199 0.951 . S
H1175 C1201 0.950 . S
H1176 C1202 0.950 . S
H1177 C1204 0.950 . S
H1178 C1207 0.950 . S
H1179 C1208 0.950 . S
H1180 C1210 0.950 . S
H1181 C1211 0.950 . S
C1182 H1164 0.951 . S
C1182 C1183 1.366 . S
C1182 C1184 1.388 . S
C1183 C1182 1.366 . S
C1183 C1187 1.385 . S
C1184 H1165 0.951 . S
C1184 C1182 1.388 . S
C1184 C1185 1.366 . S
C1185 C1184 1.366 . S
C1185 C1186 1.414 . S
C1185 C1188 1.499 . S
C1186 H1166 0.950 . S
C1186 C1185 1.414 . S
C1186 C1187 1.374 . S
C1187 H1167 0.950 . S
C1187 C1183 1.385 . S
C1187 C1186 1.374 . S
C1188 C1185 1.499 . S
C1188 C1189 1.373 . S
C1188 C1190 1.389 . S
C1189 H1168 0.950 . S
C1189 C1188 1.373 . S
C1189 C1205 1.377 . S
C1190 C1188 1.389 . S
C1190 C1191 1.524 . S
C1190 C1204 1.377 . S
C1191 C1190 1.524 . S
C1191 C1192 1.397 . S
C1191 C1196 1.363 . S
C1192 H1169 0.950 . S
C1192 C1191 1.397 . S
C1192 C1193 1.334 . S
C1193 H1170 0.950 . S
C1193 C1192 1.334 . S
C1193 C1194 1.287 . S
C1194 C1193 1.287 . S
C1194 C1195 1.524 . S
C1194 H1213 0.913 . S
C1195 H1171 0.950 . S
C1195 C1194 1.524 . S
C1195 C1196 1.415 . S
C1196 H1172 0.950 . S
C1196 C1191 1.363 . S
C1196 C1195 1.415 . S
C1197 H1173 0.951 . S
C1197 C1198 1.366 . S
C1197 C1199 1.388 . S
C1198 C1197 1.366 . S
C1198 C1202 1.385 . S
C1199 H1174 0.951 . S
C1199 C1197 1.388 . S
C1199 C1200 1.366 . S
C1200 C1199 1.366 . S
C1200 C1201 1.414 . S
C1200 C1203 1.499 . S
C1201 H1175 0.950 . S
C1201 C1200 1.414 . S
C1201 C1202 1.374 . S
C1202 H1176 0.950 . S
C1202 C1198 1.385 . S
C1202 C1201 1.374 . S
C1203 C1200 1.499 . S
C1203 C1204 1.373 . S
C1203 C1205 1.389 . S
C1204 H1177 0.950 . S
C1204 C1190 1.377 . S
C1204 C1203 1.373 . S
C1205 C1189 1.377 . S
C1205 C1203 1.389 . S
C1205 C1206 1.524 . S
C1206 C1205 1.524 . S
C1206 C1207 1.397 . S
C1206 C1211 1.363 . S
C1207 H1178 0.950 . S
C1207 C1206 1.397 . S
C1207 C1208 1.334 . S
C1208 H1179 0.950 . S
C1208 C1207 1.334 . S
C1208 C1209 1.287 . S
C1209 C1208 1.287 . S
C1209 C1210 1.524 . S
C1209 H1212 0.999 . S
C1210 H1180 0.950 . S
C1210 C1209 1.524 . S
C1210 C1211 1.415 . S
C1211 H1181 0.950 . S
C1211 C1206 1.363 . S
C1211 C1210 1.415 . S
H1212 C1209 0.999 . S
H1213 C1194 0.913 . S
H1214 C1232 0.951 . S
H1215 C1234 0.951 . S
H1216 C1236 0.950 . S
H1217 C1237 0.950 . S
H1218 C1239 0.950 . S
H1219 C1242 0.950 . S
H1220 C1243 0.950 . S
H1221 C1245 0.950 . S
H1222 C1246 0.950 . S
H1223 C1247 0.951 . S
H1224 C1249 0.951 . S
H1225 C1251 0.950 . S
H1226 C1252 0.950 . S
H1227 C1254 0.950 . S
H1228 C1257 0.950 . S
H1229 C1258 0.950 . S
H1230 C1260 0.950 . S
H1231 C1261 0.950 . S
C1232 H1214 0.951 . S
C1232 C1233 1.366 . S
C1232 C1234 1.388 . S
C1233 C1232 1.366 . S
C1233 C1237 1.385 . S
C1234 H1215 0.951 . S
C1234 C1232 1.388 . S
C1234 C1235 1.366 . S
C1235 C1234 1.366 . S
C1235 C1236 1.414 . S
C1235 C1238 1.499 . S
C1236 H1216 0.950 . S
C1236 C1235 1.414 . S
C1236 C1237 1.374 . S
C1237 H1217 0.950 . S
C1237 C1233 1.385 . S
C1237 C1236 1.374 . S
C1238 C1235 1.499 . S
C1238 C1239 1.373 . S
C1238 C1240 1.389 . S
C1239 H1218 0.950 . S
C1239 C1238 1.373 . S
C1239 C1255 1.377 . S
C1240 C1238 1.389 . S
C1240 C1241 1.524 . S
C1240 C1254 1.377 . S
C1241 C1240 1.524 . S
C1241 C1242 1.397 . S
C1241 C1246 1.363 . S
C1242 H1219 0.950 . S
C1242 C1241 1.397 . S
C1242 C1243 1.334 . S
C1243 H1220 0.950 . S
C1243 C1242 1.334 . S
C1243 C1244 1.287 . S
C1244 C1243 1.287 . S
C1244 C1245 1.524 . S
C1244 H1263 0.913 1_556 S
C1245 H1221 0.950 . S
C1245 C1244 1.524 . S
C1245 C1246 1.415 . S
C1246 H1222 0.950 . S
C1246 C1241 1.363 . S
C1246 C1245 1.415 . S
C1247 H1223 0.951 . S
C1247 C1248 1.366 . S
C1247 C1249 1.388 . S
C1248 C1247 1.366 . S
C1248 C1252 1.385 . S
C1249 H1224 0.951 . S
C1249 C1247 1.388 . S
C1249 C1250 1.366 . S
C1250 C1249 1.366 . S
C1250 C1251 1.414 . S
C1250 C1253 1.499 . S
C1251 H1225 0.950 . S
C1251 C1250 1.414 . S
C1251 C1252 1.374 . S
C1252 H1226 0.950 . S
C1252 C1248 1.385 . S
C1252 C1251 1.374 . S
C1253 C1250 1.499 . S
C1253 C1254 1.373 . S
C1253 C1255 1.389 . S
C1254 H1227 0.950 . S
C1254 C1240 1.377 . S
C1254 C1253 1.373 . S
C1255 C1239 1.377 . S
C1255 C1253 1.389 . S
C1255 C1256 1.524 . S
C1256 C1255 1.524 . S
C1256 C1257 1.397 . S
C1256 C1261 1.363 . S
C1257 H1228 0.950 . S
C1257 C1256 1.397 . S
C1257 C1258 1.334 . S
C1258 H1229 0.950 . S
C1258 C1257 1.334 . S
C1258 C1259 1.287 . S
C1259 C1258 1.287 . S
C1259 C1260 1.524 . S
C1259 H1262 0.999 . S
C1260 H1230 0.950 . S
C1260 C1259 1.524 . S
C1260 C1261 1.415 . S
C1261 H1231 0.950 . S
C1261 C1256 1.363 . S
C1261 C1260 1.415 . S
H1262 C1259 0.999 . S
H1263 C1244 0.913 1_554 S
H1264 C1282 0.951 . S
H1265 C1284 0.951 . S
H1266 C1286 0.950 . S
H1267 C1287 0.950 . S
H1268 C1289 0.950 . S
H1269 C1292 0.950 . S
H1270 C1293 0.950 . S
H1271 C1295 0.950 . S
H1272 C1296 0.950 . S
H1273 C1297 0.951 . S
H1274 C1299 0.951 . S
H1275 C1301 0.950 . S
H1276 C1302 0.950 . S
H1277 C1304 0.950 . S
H1278 C1307 0.950 . S
H1279 C1308 0.950 . S
H1280 C1310 0.950 . S
H1281 C1311 0.950 . S
C1282 H1264 0.951 . S
C1282 C1283 1.366 . S
C1282 C1284 1.388 . S
C1283 C1282 1.366 . S
C1283 C1287 1.385 . S
C1284 H1265 0.951 . S
C1284 C1282 1.388 . S
C1284 C1285 1.366 . S
C1285 C1284 1.366 . S
C1285 C1286 1.414 . S
C1285 C1288 1.499 . S
C1286 H1266 0.950 . S
C1286 C1285 1.414 . S
C1286 C1287 1.374 . S
C1287 H1267 0.950 . S
C1287 C1283 1.385 . S
C1287 C1286 1.374 . S
C1288 C1285 1.499 . S
C1288 C1289 1.373 . S
C1288 C1290 1.389 . S
C1289 H1268 0.950 . S
C1289 C1288 1.373 . S
C1289 C1305 1.377 . S
C1290 C1288 1.389 . S
C1290 C1291 1.524 . S
C1290 C1304 1.377 . S
C1291 C1290 1.524 . S
C1291 C1292 1.397 . S
C1291 C1296 1.363 . S
C1292 H1269 0.950 . S
C1292 C1291 1.397 . S
C1292 C1293 1.334 . S
C1293 H1270 0.950 . S
C1293 C1292 1.334 . S
C1293 C1294 1.287 . S
C1294 C1293 1.287 . S
C1294 C1295 1.524 . S
C1294 H1313 0.913 . S
C1295 H1271 0.950 . S
C1295 C1294 1.524 . S
C1295 C1296 1.415 . S
C1296 H1272 0.950 . S
C1296 C1291 1.363 . S
C1296 C1295 1.415 . S
C1297 H1273 0.951 . S
C1297 C1298 1.366 . S
C1297 C1299 1.388 . S
C1298 C1297 1.366 . S
C1298 C1302 1.385 . S
C1299 H1274 0.951 . S
C1299 C1297 1.388 . S
C1299 C1300 1.366 . S
C1300 C1299 1.366 . S
C1300 C1301 1.414 . S
C1300 C1303 1.499 . S
C1301 H1275 0.950 . S
C1301 C1300 1.414 . S
C1301 C1302 1.374 . S
C1302 H1276 0.950 . S
C1302 C1298 1.385 . S
C1302 C1301 1.374 . S
C1303 C1300 1.499 . S
C1303 C1304 1.373 . S
C1303 C1305 1.389 . S
C1304 H1277 0.950 . S
C1304 C1290 1.377 . S
C1304 C1303 1.373 . S
C1305 C1289 1.377 . S
C1305 C1303 1.389 . S
C1305 C1306 1.524 . S
C1306 C1305 1.524 . S
C1306 C1307 1.397 . S
C1306 C1311 1.363 . S
C1307 H1278 0.950 . S
C1307 C1306 1.397 . S
C1307 C1308 1.334 . S
C1308 H1279 0.950 . S
C1308 C1307 1.334 . S
C1308 C1309 1.287 . S
C1309 C1308 1.287 . S
C1309 C1310 1.524 . S
C1309 H1312 0.999 . S
C1310 H1280 0.950 . S
C1310 C1309 1.524 . S
C1310 C1311 1.415 . S
C1311 H1281 0.950 . S
C1311 C1306 1.363 . S
C1311 C1310 1.415 . S
H1312 C1309 0.999 . S
H1313 C1294 0.913 . S
H1314 C1332 0.951 . S
H1315 C1334 0.951 . S
H1316 C1336 0.950 . S
H1317 C1337 0.950 . S
H1318 C1339 0.950 . S
H1319 C1342 0.950 . S
H1320 C1343 0.950 . S
H1321 C1345 0.950 . S
H1322 C1346 0.950 . S
H1323 C1347 0.951 . S
H1324 C1349 0.951 . S
H1325 C1351 0.950 . S
H1326 C1352 0.950 . S
H1327 C1354 0.950 . S
H1328 C1357 0.950 . S
H1329 C1358 0.950 . S
H1330 C1360 0.950 . S
H1331 C1361 0.950 . S
C1332 H1314 0.951 . S
C1332 C1333 1.366 . S
C1332 C1334 1.388 . S
C1333 C1332 1.366 . S
C1333 C1337 1.385 . S
C1334 H1315 0.951 . S
C1334 C1332 1.388 . S
C1334 C1335 1.366 . S
C1335 C1334 1.366 . S
C1335 C1336 1.414 . S
C1335 C1338 1.499 . S
C1336 H1316 0.950 . S
C1336 C1335 1.414 . S
C1336 C1337 1.374 . S
C1337 H1317 0.950 . S
C1337 C1333 1.385 . S
C1337 C1336 1.374 . S
C1338 C1335 1.499 . S
C1338 C1339 1.373 . S
C1338 C1340 1.389 . S
C1339 H1318 0.950 . S
C1339 C1338 1.373 . S
C1339 C1355 1.377 . S
C1340 C1338 1.389 . S
C1340 C1341 1.524 . S
C1340 C1354 1.377 . S
C1341 C1340 1.524 . S
C1341 C1342 1.397 . S
C1341 C1346 1.363 . S
C1342 H1319 0.950 . S
C1342 C1341 1.397 . S
C1342 C1343 1.334 . S
C1343 H1320 0.950 . S
C1343 C1342 1.334 . S
C1343 C1344 1.287 . S
C1344 C1343 1.287 . S
C1344 C1345 1.524 . S
C1344 H1363 0.913 . S
C1345 H1321 0.950 . S
C1345 C1344 1.524 . S
C1345 C1346 1.415 . S
C1346 H1322 0.950 . S
C1346 C1341 1.363 . S
C1346 C1345 1.415 . S
C1347 H1323 0.951 . S
C1347 C1348 1.366 . S
C1347 C1349 1.388 . S
C1348 C1347 1.366 . S
C1348 C1352 1.385 . S
C1349 H1324 0.951 . S
C1349 C1347 1.388 . S
C1349 C1350 1.366 . S
C1350 C1349 1.366 . S
C1350 C1351 1.414 . S
C1350 C1353 1.499 . S
C1351 H1325 0.950 . S
C1351 C1350 1.414 . S
C1351 C1352 1.374 . S
C1352 H1326 0.950 . S
C1352 C1348 1.385 . S
C1352 C1351 1.374 . S
C1353 C1350 1.499 . S
C1353 C1354 1.373 . S
C1353 C1355 1.389 . S
C1354 H1327 0.950 . S
C1354 C1340 1.377 . S
C1354 C1353 1.373 . S
C1355 C1339 1.377 . S
C1355 C1353 1.389 . S
C1355 C1356 1.524 . S
C1356 C1355 1.524 . S
C1356 C1357 1.397 . S
C1356 C1361 1.363 . S
C1357 H1328 0.950 . S
C1357 C1356 1.397 . S
C1357 C1358 1.334 . S
C1358 H1329 0.950 . S
C1358 C1357 1.334 . S
C1358 C1359 1.287 . S
C1359 C1358 1.287 . S
C1359 C1360 1.524 . S
C1359 H1362 0.999 . S
C1360 H1330 0.950 . S
C1360 C1359 1.524 . S
C1360 C1361 1.415 . S
C1361 H1331 0.950 . S
C1361 C1356 1.363 . S
C1361 C1360 1.415 . S
H1362 C1359 0.999 . S
H1363 C1344 0.913 . S
H1364 C1382 0.951 . S
H1365 C1384 0.951 . S
H1366 C1386 0.950 . S
H1367 C1387 0.950 . S
H1368 C1389 0.950 . S
H1369 C1392 0.950 . S
H1370 C1393 0.950 . S
H1371 C1395 0.950 . S
H1372 C1396 0.950 . S
H1373 C1397 0.951 . S
H1374 C1399 0.951 . S
H1375 C1401 0.950 . S
H1376 C1402 0.950 . S
H1377 C1404 0.950 . S
H1378 C1407 0.950 . S
H1379 C1408 0.950 . S
H1380 C1410 0.950 . S
H1381 C1411 0.950 . S
C1382 H1364 0.951 . S
C1382 C1383 1.366 . S
C1382 C1384 1.388 . S
C1383 C1382 1.366 . S
C1383 C1387 1.385 . S
C1384 H1365 0.951 . S
C1384 C1382 1.388 . S
C1384 C1385 1.366 . S
C1385 C1384 1.366 . S
C1385 C1386 1.414 . S
C1385 C1388 1.499 . S
C1386 H1366 0.950 . S
C1386 C1385 1.414 . S
C1386 C1387 1.374 . S
C1387 H1367 0.950 . S
C1387 C1383 1.385 . S
C1387 C1386 1.374 . S
C1388 C1385 1.499 . S
C1388 C1389 1.373 . S
C1388 C1390 1.389 . S
C1389 H1368 0.950 . S
C1389 C1388 1.373 . S
C1389 C1405 1.377 . S
C1390 C1388 1.389 . S
C1390 C1391 1.524 . S
C1390 C1404 1.377 . S
C1391 C1390 1.524 . S
C1391 C1392 1.397 . S
C1391 C1396 1.363 . S
C1392 H1369 0.950 . S
C1392 C1391 1.397 . S
C1392 C1393 1.334 . S
C1393 H1370 0.950 . S
C1393 C1392 1.334 . S
C1393 C1394 1.287 . S
C1394 C1393 1.287 . S
C1394 C1395 1.524 . S
C1394 H1413 0.913 . S
C1395 H1371 0.950 . S
C1395 C1394 1.524 . S
C1395 C1396 1.415 . S
C1396 H1372 0.950 . S
C1396 C1391 1.363 . S
C1396 C1395 1.415 . S
C1397 H1373 0.951 . S
C1397 C1398 1.366 . S
C1397 C1399 1.388 . S
C1398 C1397 1.366 . S
C1398 C1402 1.385 . S
C1399 H1374 0.951 . S
C1399 C1397 1.388 . S
C1399 C1400 1.366 . S
C1400 C1399 1.366 . S
C1400 C1401 1.414 . S
C1400 C1403 1.499 . S
C1401 H1375 0.950 . S
C1401 C1400 1.414 . S
C1401 C1402 1.374 . S
C1402 H1376 0.950 . S
C1402 C1398 1.385 . S
C1402 C1401 1.374 . S
C1403 C1400 1.499 . S
C1403 C1404 1.373 . S
C1403 C1405 1.389 . S
C1404 H1377 0.950 . S
C1404 C1390 1.377 . S
C1404 C1403 1.373 . S
C1405 C1389 1.377 . S
C1405 C1403 1.389 . S
C1405 C1406 1.524 . S
C1406 C1405 1.524 . S
C1406 C1407 1.397 . S
C1406 C1411 1.363 . S
C1407 H1378 0.950 . S
C1407 C1406 1.397 . S
C1407 C1408 1.334 . S
C1408 H1379 0.950 . S
C1408 C1407 1.334 . S
C1408 C1409 1.287 . S
C1409 C1408 1.287 . S
C1409 C1410 1.524 . S
C1409 H1412 0.999 . S
C1410 H1380 0.950 . S
C1410 C1409 1.524 . S
C1410 C1411 1.415 . S
C1411 H1381 0.950 . S
C1411 C1406 1.363 . S
C1411 C1410 1.415 . S
H1412 C1409 0.999 . S
H1413 C1394 0.913 . S
H1414 C1432 0.951 . S
H1415 C1434 0.951 . S
H1416 C1436 0.950 . S
H1417 C1437 0.950 . S
H1418 C1439 0.950 . S
H1419 C1442 0.950 . S
H1420 C1443 0.950 1_455 S
H1421 C1445 0.950 1_455 S
H1422 C1446 0.950 . S
H1423 C1447 0.951 . S
H1424 C1449 0.951 . S
H1425 C1451 0.950 . S
H1426 C1452 0.950 . S
H1427 C1454 0.950 . S
H1428 C1457 0.950 . S
H1429 C1458 0.950 . S
H1430 C1460 0.950 . S
H1431 C1461 0.950 . S
C1432 H1414 0.951 . S
C1432 C1433 1.366 . S
C1432 C1434 1.388 . S
C1433 C1432 1.366 . S
C1433 C1437 1.385 . S
C1434 H1415 0.951 . S
C1434 C1432 1.388 . S
C1434 C1435 1.366 . S
C1435 C1434 1.366 . S
C1435 C1436 1.414 . S
C1435 C1438 1.499 . S
C1436 H1416 0.950 . S
C1436 C1435 1.414 . S
C1436 C1437 1.374 . S
C1437 H1417 0.950 . S
C1437 C1433 1.385 . S
C1437 C1436 1.374 . S
C1438 C1435 1.499 . S
C1438 C1439 1.373 . S
C1438 C1440 1.389 . S
C1439 H1418 0.950 . S
C1439 C1438 1.373 . S
C1439 C1455 1.377 . S
C1440 C1438 1.389 . S
C1440 C1441 1.524 . S
C1440 C1454 1.377 . S
C1441 C1440 1.524 . S
C1441 C1442 1.397 . S
C1441 C1446 1.363 . S
C1442 H1419 0.950 . S
C1442 C1441 1.397 . S
C1442 C1443 1.334 . S
C1443 H1420 0.950 1_655 S
C1443 C1442 1.334 . S
C1443 C1444 1.287 1_655 S
C1444 C1443 1.287 1_455 S
C1444 C1445 1.524 1_455 S
C1444 H1463 0.913 . S
C1445 H1421 0.950 1_655 S
C1445 C1444 1.524 1_655 S
C1445 C1446 1.415 . S
C1446 H1422 0.950 . S
C1446 C1441 1.363 . S
C1446 C1445 1.415 . S
C1447 H1423 0.951 . S
C1447 C1448 1.366 . S
C1447 C1449 1.388 . S
C1448 C1447 1.366 . S
C1448 C1452 1.385 . S
C1449 H1424 0.951 . S
C1449 C1447 1.388 . S
C1449 C1450 1.366 . S
C1450 C1449 1.366 . S
C1450 C1451 1.414 . S
C1450 C1453 1.499 . S
C1451 H1425 0.950 . S
C1451 C1450 1.414 . S
C1451 C1452 1.374 . S
C1452 H1426 0.950 . S
C1452 C1448 1.385 . S
C1452 C1451 1.374 . S
C1453 C1450 1.499 . S
C1453 C1454 1.373 . S
C1453 C1455 1.389 . S
C1454 H1427 0.950 . S
C1454 C1440 1.377 . S
C1454 C1453 1.373 . S
C1455 C1439 1.377 . S
C1455 C1453 1.389 . S
C1455 C1456 1.524 . S
C1456 C1455 1.524 . S
C1456 C1457 1.397 . S
C1456 C1461 1.363 . S
C1457 H1428 0.950 . S
C1457 C1456 1.397 . S
C1457 C1458 1.334 . S
C1458 H1429 0.950 . S
C1458 C1457 1.334 . S
C1458 C1459 1.287 . S
C1459 C1458 1.287 . S
C1459 C1460 1.524 . S
C1459 H1462 0.999 . S
C1460 H1430 0.950 . S
C1460 C1459 1.524 . S
C1460 C1461 1.415 . S
C1461 H1431 0.950 . S
C1461 C1456 1.363 . S
C1461 C1460 1.415 . S
H1462 C1459 0.999 . S
H1463 C1444 0.913 . S
H1464 C1482 0.951 . S
H1465 C1484 0.951 . S
H1466 C1486 0.950 . S
H1467 C1487 0.950 . S
H1468 C1489 0.950 . S
H1469 C1492 0.950 . S
H1470 C1493 0.950 . S
H1471 C1495 0.950 . S
H1472 C1496 0.950 . S
H1473 C1497 0.951 . S
H1474 C1499 0.951 . S
H1475 C1501 0.950 . S
H1476 C1502 0.950 . S
H1477 C1504 0.950 . S
H1478 C1507 0.950 . S
H1479 C1508 0.950 . S
H1480 C1510 0.950 . S
H1481 C1511 0.950 . S
C1482 H1464 0.951 . S
C1482 C1483 1.366 . S
C1482 C1484 1.388 . S
C1483 C1482 1.366 . S
C1483 C1487 1.385 . S
C1484 H1465 0.951 . S
C1484 C1482 1.388 . S
C1484 C1485 1.366 . S
C1485 C1484 1.366 . S
C1485 C1486 1.414 . S
C1485 C1488 1.499 . S
C1486 H1466 0.950 . S
C1486 C1485 1.414 . S
C1486 C1487 1.374 . S
C1487 H1467 0.950 . S
C1487 C1483 1.385 . S
C1487 C1486 1.374 . S
C1488 C1485 1.499 . S
C1488 C1489 1.373 . S
C1488 C1490 1.389 . S
C1489 H1468 0.950 . S
C1489 C1488 1.373 . S
C1489 C1505 1.377 . S
C1490 C1488 1.389 . S
C1490 C1491 1.524 . S
C1490 C1504 1.377 . S
C1491 C1490 1.524 . S
C1491 C1492 1.397 . S
C1491 C1496 1.363 . S
C1492 H1469 0.950 . S
C1492 C1491 1.397 . S
C1492 C1493 1.334 . S
C1493 H1470 0.950 . S
C1493 C1492 1.334 . S
C1493 C1494 1.287 . S
C1494 C1493 1.287 . S
C1494 C1495 1.524 . S
C1494 H1513 0.913 . S
C1495 H1471 0.950 . S
C1495 C1494 1.524 . S
C1495 C1496 1.415 . S
C1496 H1472 0.950 . S
C1496 C1491 1.363 . S
C1496 C1495 1.415 . S
C1497 H1473 0.951 . S
C1497 C1498 1.366 . S
C1497 C1499 1.388 . S
C1498 C1497 1.366 . S
C1498 C1502 1.385 . S
C1499 H1474 0.951 . S
C1499 C1497 1.388 . S
C1499 C1500 1.366 . S
C1500 C1499 1.366 . S
C1500 C1501 1.414 . S
C1500 C1503 1.499 . S
C1501 H1475 0.950 . S
C1501 C1500 1.414 . S
C1501 C1502 1.374 . S
C1502 H1476 0.950 . S
C1502 C1498 1.385 . S
C1502 C1501 1.374 . S
C1503 C1500 1.499 . S
C1503 C1504 1.373 . S
C1503 C1505 1.389 . S
C1504 H1477 0.950 . S
C1504 C1490 1.377 . S
C1504 C1503 1.373 . S
C1505 C1489 1.377 . S
C1505 C1503 1.389 . S
C1505 C1506 1.524 . S
C1506 C1505 1.524 . S
C1506 C1507 1.397 . S
C1506 C1511 1.363 . S
C1507 H1478 0.950 . S
C1507 C1506 1.397 . S
C1507 C1508 1.334 . S
C1508 H1479 0.950 . S
C1508 C1507 1.334 . S
C1508 C1509 1.287 . S
C1509 C1508 1.287 . S
C1509 C1510 1.524 . S
C1509 H1512 0.999 . S
C1510 H1480 0.950 . S
C1510 C1509 1.524 . S
C1510 C1511 1.415 . S
C1511 H1481 0.950 . S
C1511 C1506 1.363 . S
C1511 C1510 1.415 . S
H1512 C1509 0.999 . S
H1513 C1494 0.913 . S
H1514 C1532 0.951 . S
H1515 C1534 0.951 . S
H1516 C1536 0.950 . S
H1517 C1537 0.950 . S
H1518 C1539 0.950 . S
H1519 C1542 0.950 . S
H1520 C1543 0.950 . S
H1521 C1545 0.950 . S
H1522 C1546 0.950 . S
H1523 C1547 0.951 . S
H1524 C1549 0.951 . S
H1525 C1551 0.950 . S
H1526 C1552 0.950 . S
H1527 C1554 0.950 . S
H1528 C1557 0.950 . S
H1529 C1558 0.950 . S
H1530 C1560 0.950 . S
H1531 C1561 0.950 . S
C1532 H1514 0.951 . S
C1532 C1533 1.366 . S
C1532 C1534 1.388 . S
C1533 C1532 1.366 . S
C1533 C1537 1.385 . S
C1534 H1515 0.951 . S
C1534 C1532 1.388 . S
C1534 C1535 1.366 . S
C1535 C1534 1.366 . S
C1535 C1536 1.414 . S
C1535 C1538 1.499 . S
C1536 H1516 0.950 . S
C1536 C1535 1.414 . S
C1536 C1537 1.374 . S
C1537 H1517 0.950 . S
C1537 C1533 1.385 . S
C1537 C1536 1.374 . S
C1538 C1535 1.499 . S
C1538 C1539 1.373 . S
C1538 C1540 1.389 . S
C1539 H1518 0.950 . S
C1539 C1538 1.373 . S
C1539 C1555 1.377 . S
C1540 C1538 1.389 . S
C1540 C1541 1.524 . S
C1540 C1554 1.377 . S
C1541 C1540 1.524 . S
C1541 C1542 1.397 . S
C1541 C1546 1.363 . S
C1542 H1519 0.950 . S
C1542 C1541 1.397 . S
C1542 C1543 1.334 . S
C1543 H1520 0.950 . S
C1543 C1542 1.334 . S
C1543 C1544 1.287 . S
C1544 C1543 1.287 . S
C1544 C1545 1.524 . S
C1544 H1563 0.913 . S
C1545 H1521 0.950 . S
C1545 C1544 1.524 . S
C1545 C1546 1.415 . S
C1546 H1522 0.950 . S
C1546 C1541 1.363 . S
C1546 C1545 1.415 . S
C1547 H1523 0.951 . S
C1547 C1548 1.366 . S
C1547 C1549 1.388 . S
C1548 C1547 1.366 . S
C1548 C1552 1.385 . S
C1549 H1524 0.951 . S
C1549 C1547 1.388 . S
C1549 C1550 1.366 . S
C1550 C1549 1.366 . S
C1550 C1551 1.414 . S
C1550 C1553 1.499 . S
C1551 H1525 0.950 . S
C1551 C1550 1.414 . S
C1551 C1552 1.374 . S
C1552 H1526 0.950 . S
C1552 C1548 1.385 . S
C1552 C1551 1.374 . S
C1553 C1550 1.499 . S
C1553 C1554 1.373 . S
C1553 C1555 1.389 . S
C1554 H1527 0.950 . S
C1554 C1540 1.377 . S
C1554 C1553 1.373 . S
C1555 C1539 1.377 . S
C1555 C1553 1.389 . S
C1555 C1556 1.524 . S
C1556 C1555 1.524 . S
C1556 C1557 1.397 . S
C1556 C1561 1.363 . S
C1557 H1528 0.950 . S
C1557 C1556 1.397 . S
C1557 C1558 1.334 . S
C1558 H1529 0.950 . S
C1558 C1557 1.334 . S
C1558 C1559 1.287 . S
C1559 C1558 1.287 . S
C1559 C1560 1.524 . S
C1559 H1562 0.999 . S
C1560 H1530 0.950 . S
C1560 C1559 1.524 . S
C1560 C1561 1.415 . S
C1561 H1531 0.950 . S
C1561 C1556 1.363 . S
C1561 C1560 1.415 . S
H1562 C1559 0.999 . S
H1563 C1544 0.913 . S
H1564 C1582 0.951 . S
H1565 C1584 0.951 . S
H1566 C1586 0.950 . S
H1567 C1587 0.950 . S
H1568 C1589 0.950 . S
H1569 C1592 0.950 . S
H1570 C1593 0.950 . S
H1571 C1595 0.950 . S
H1572 C1596 0.950 . S
H1573 C1597 0.951 . S
H1574 C1599 0.951 . S
H1575 C1601 0.950 . S
H1576 C1602 0.950 . S
H1577 C1604 0.950 . S
H1578 C1607 0.950 . S
H1579 C1608 0.950 . S
H1580 C1610 0.950 . S
H1581 C1611 0.950 . S
C1582 H1564 0.951 . S
C1582 C1583 1.366 . S
C1582 C1584 1.388 . S
C1583 C1582 1.366 . S
C1583 C1587 1.385 . S
C1584 H1565 0.951 . S
C1584 C1582 1.388 . S
C1584 C1585 1.366 . S
C1585 C1584 1.366 . S
C1585 C1586 1.414 . S
C1585 C1588 1.499 . S
C1586 H1566 0.950 . S
C1586 C1585 1.414 . S
C1586 C1587 1.374 . S
C1587 H1567 0.950 . S
C1587 C1583 1.385 . S
C1587 C1586 1.374 . S
C1588 C1585 1.499 . S
C1588 C1589 1.373 . S
C1588 C1590 1.389 . S
C1589 H1568 0.950 . S
C1589 C1588 1.373 . S
C1589 C1605 1.377 . S
C1590 C1588 1.389 . S
C1590 C1591 1.524 . S
C1590 C1604 1.377 . S
C1591 C1590 1.524 . S
C1591 C1592 1.397 . S
C1591 C1596 1.363 . S
C1592 H1569 0.950 . S
C1592 C1591 1.397 . S
C1592 C1593 1.334 . S
C1593 H1570 0.950 . S
C1593 C1592 1.334 . S
C1593 C1594 1.287 . S
C1594 C1593 1.287 . S
C1594 C1595 1.524 . S
C1594 H1613 0.913 . S
C1595 H1571 0.950 . S
C1595 C1594 1.524 . S
C1595 C1596 1.415 . S
C1596 H1572 0.950 . S
C1596 C1591 1.363 . S
C1596 C1595 1.415 . S
C1597 H1573 0.951 . S
C1597 C1598 1.366 . S
C1597 C1599 1.388 . S
C1598 C1597 1.366 . S
C1598 C1602 1.385 . S
C1599 H1574 0.951 . S
C1599 C1597 1.388 . S
C1599 C1600 1.366 . S
C1600 C1599 1.366 . S
C1600 C1601 1.414 . S
C1600 C1603 1.499 . S
C1601 H1575 0.950 . S
C1601 C1600 1.414 . S
C1601 C1602 1.374 . S
C1602 H1576 0.950 . S
C1602 C1598 1.385 . S
C1602 C1601 1.374 . S
C1603 C1600 1.499 . S
C1603 C1604 1.373 . S
C1603 C1605 1.389 . S
C1604 H1577 0.950 . S
C1604 C1590 1.377 . S
C1604 C1603 1.373 . S
C1605 C1589 1.377 . S
C1605 C1603 1.389 . S
C1605 C1606 1.524 . S
C1606 C1605 1.524 . S
C1606 C1607 1.397 . S
C1606 C1611 1.363 . S
C1607 H1578 0.950 . S
C1607 C1606 1.397 . S
C1607 C1608 1.334 . S
C1608 H1579 0.950 . S
C1608 C1607 1.334 . S
C1608 C1609 1.287 . S
C1609 C1608 1.287 . S
C1609 C1610 1.524 . S
C1609 H1612 0.999 . S
C1610 H1580 0.950 . S
C1610 C1609 1.524 . S
C1610 C1611 1.415 . S
C1611 H1581 0.950 . S
C1611 C1606 1.363 . S
C1611 C1610 1.415 . S
H1612 C1609 0.999 . S
H1613 C1594 0.913 . S
C433 C7 1.869 . S
C448 C160 1.853 . S
C483 C30 1.643 . S
C498 C199 1.630 . S
C548 C231 1.726 . S
C533 N58 1.705 . S
C598 C277 1.488 . S
C583 N81 1.465 . S
C648 C344 1.766 . S
C633 C99 1.777 . S
C698 C383 1.522 . S
C683 N127 1.492 . S
C733 N25 1.711 . S
C748 C245 1.737 . S
C783 C62 1.626 . S
C798 C291 1.616 . S
C848 C330 1.789 . S
C833 C85 1.807 . S
C898 C369 1.515 . S
C883 N94 1.506 . S
C933 C131 1.814 . S
C948 C146 1.789 . S
C998 C185 1.496 . S
C983 N2 1.482 . S
C1048 C284 1.803 . S
C1033 C16 1.812 . S
C1083 C39 1.599 . S
C1098 C337 1.584 . S
C1148 C390 1.713 . S
C1133 N48 1.694 . S
C1183 N71 1.467 . S
C1198 C153 1.485 . S
C1233 C108 1.782 . S
C1248 C206 1.768 . S
C1283 N117 1.484 . S
C1298 C238 1.516 . S
C1333 N35 1.700 . S
C1348 C376 1.731 . S
C1398 C139 1.627 . S
C1383 C53 1.639 . S
C1433 C76 1.851 . S
C1448 C192 1.838 . S
C1483 N104 1.484 . S
C1498 C252 1.498 . S
C1533 C122 1.769 . S
C1548 C298 1.746 . S
C1583 N12 1.447 . S
C1598 C323 1.477 . S
