# Generated by pormake.
# Topology zzz, (3,6)-cn, num edge types: 1
# Building blocks:
#     Node 0, Type 0, BuildingBlock: ESEHIV_clean_linker_0, # of connection points: 3
#     Node 1, Type 0, BuildingBlock: ESEHIV_clean_linker_0, # of connection points: 3
#     Node 2, Type 0, BuildingBlock: ESEHIV_clean_linker_0, # of connection points: 3
#     Node 3, Type 0, BuildingBlock: ESEHIV_clean_linker_0, # of connection points: 3
#     Node 4, Type 0, BuildingBlock: ESEHIV_clean_linker_0, # of connection points: 3
#     Node 5, Type 0, BuildingBlock: ESEHIV_clean_linker_0, # of connection points: 3
#     Node 6, Type 0, BuildingBlock: ESEHIV_clean_linker_0, # of connection points: 3
#     Node 7, Type 0, BuildingBlock: ESEHIV_clean_linker_0, # of connection points: 3
#     Node 8, Type 1, BuildingBlock: PAMTUU_clean_sbu_0, # of connection points: 6
#     Node 9, Type 1, BuildingBlock: PAMTUU_clean_sbu_0, # of connection points: 6
#     Node 10, Type 1, BuildingBlock: PAMTUU_clean_sbu_0, # of connection points: 6
#     Node 11, Type 1, BuildingBlock: PAMTUU_clean_sbu_0, # of connection points: 6
#     Edge 12, Type (0, 1), BuildingBlock: ZUJKAS_clean_linker_0, # of connection points: 2
#     Edge 13, Type (0, 1), BuildingBlock: ZUJKAS_clean_linker_0, # of connection points: 2
#     Edge 14, Type (0, 1), BuildingBlock: ZUJKAS_clean_linker_0, # of connection points: 2
#     Edge 15, Type (0, 1), BuildingBlock: ZUJKAS_clean_linker_0, # of connection points: 2
#     Edge 16, Type (0, 1), BuildingBlock: ZUJKAS_clean_linker_0, # of connection points: 2
#     Edge 17, Type (0, 1), BuildingBlock: ZUJKAS_clean_linker_0, # of connection points: 2
#     Edge 18, Type (0, 1), BuildingBlock: ZUJKAS_clean_linker_0, # of connection points: 2
#     Edge 19, Type (0, 1), BuildingBlock: ZUJKAS_clean_linker_0, # of connection points: 2
#     Edge 20, Type (0, 1), BuildingBlock: ZUJKAS_clean_linker_0, # of connection points: 2
#     Edge 21, Type (0, 1), BuildingBlock: ZUJKAS_clean_linker_0, # of connection points: 2
#     Edge 22, Type (0, 1), BuildingBlock: ZUJKAS_clean_linker_0, # of connection points: 2
#     Edge 23, Type (0, 1), BuildingBlock: ZUJKAS_clean_linker_0, # of connection points: 2
#     Edge 24, Type (0, 1), BuildingBlock: ZUJKAS_clean_linker_0, # of connection points: 2
#     Edge 25, Type (0, 1), BuildingBlock: ZUJKAS_clean_linker_0, # of connection points: 2
#     Edge 26, Type (0, 1), BuildingBlock: ZUJKAS_clean_linker_0, # of connection points: 2
#     Edge 27, Type (0, 1), BuildingBlock: ZUJKAS_clean_linker_0, # of connection points: 2
#     Edge 28, Type (0, 1), BuildingBlock: ZUJKAS_clean_linker_0, # of connection points: 2
#     Edge 29, Type (0, 1), BuildingBlock: ZUJKAS_clean_linker_0, # of connection points: 2
#     Edge 30, Type (0, 1), BuildingBlock: ZUJKAS_clean_linker_0, # of connection points: 2
#     Edge 31, Type (0, 1), BuildingBlock: ZUJKAS_clean_linker_0, # of connection points: 2
#     Edge 32, Type (0, 1), BuildingBlock: ZUJKAS_clean_linker_0, # of connection points: 2
#     Edge 33, Type (0, 1), BuildingBlock: ZUJKAS_clean_linker_0, # of connection points: 2
#     Edge 34, Type (0, 1), BuildingBlock: ZUJKAS_clean_linker_0, # of connection points: 2
#     Edge 35, Type (0, 1), BuildingBlock: ZUJKAS_clean_linker_0, # of connection points: 2
# Relax obj value: 0.380
# Max RMSD: 0.262
# Mean RMSD: 0.220
data_MOF--net-zzz--node1-PAMTUU_clean_sbu_0--node2-ESEHIV_clean_linker_0--edge1-ZUJKAS_clean_linker_0
_symmetry_space_group_name_H-M    P1
_symmetry_Int_Tables_number       1
_symmetry_cell_setting            triclinic
loop_
_symmetry_equiv_pos_as_xyz
'x, y, z'
_cell_length_a     58.603674
_cell_length_b     62.376189
_cell_length_c     20.904094
_cell_angle_alpha  98.585609
_cell_angle_beta   89.941654
_cell_angle_gamma 89.86329
loop_
_atom_site_label
_atom_site_type_symbol
_atom_site_fract_x
_atom_site_fract_y
_atom_site_fract_z
_atom_type_partial_charge
H0 H 0.80031 0.5458 0.3802 0.0
H1 H 0.74239 0.54954 0.25719 0.0
H2 H 0.74288 0.50393 0.39353 0.0
C3 C 0.78297 0.54112 0.36641 0.0
C4 C 0.77258 0.52473 0.39505 0.0
C5 C 0.77248 0.54979 0.31582 0.0
C6 C 0.75045 0.543 0.29682 0.0
C7 C 0.7394 0.52666 0.32474 0.0
C8 C 0.75081 0.51706 0.37316 0.0
H9 H 1.00469 0.7751 0.34028 0.0
H10 H 0.01811 0.71466 0.21965 0.0
H11 H 0.98606 0.71533 0.40627 0.0
C12 C 1.00362 0.75753 0.33201 0.0
C13 C 0.99437 0.74668 0.37998 0.0
C14 C 1.01232 0.74609 0.27463 0.0
C15 C 1.01168 0.72346 0.26476 0.0
C16 C 1.00191 0.71217 0.31141 0.0
C17 C 0.99334 0.72386 0.36962 0.0
H18 H 0.75012 0.94748 0.35277 0.0
H19 H 0.80679 0.94316 0.22127 0.0
H20 H 0.80679 0.99099 0.39318 0.0
C21 C 0.7672 0.95233 0.341 0.0
C22 C 0.77755 0.96947 0.38146 0.0
C23 C 0.77729 0.94309 0.28253 0.0
C24 C 0.79895 0.95014 0.2667 0.0
C25 C 0.80991 0.9672 0.30637 0.0
C26 C 0.7989 0.97731 0.36344 0.0
H27 H 0.56222 0.72505 0.19583 0.0
H28 H 0.57739 0.79189 0.2651 0.0
H29 H 0.55286 0.77256 0.06994 0.0
C30 C 0.56334 0.74176 0.18724 0.0
C31 C 0.55697 0.74698 0.12708 0.0
C32 C 0.57058 0.75776 0.2372 0.0
C33 C 0.57152 0.77952 0.22674 0.0
C34 C 0.56565 0.78499 0.16558 0.0
C35 C 0.55794 0.76858 0.11664 0.0
H36 H 0.24667 0.54394 0.25081 0.0
H37 H 0.30996 0.54101 0.35278 0.0
H38 H 0.29828 0.49772 0.17553 0.0
C39 C 0.26368 0.53735 0.25409 0.0
C40 C 0.27115 0.52093 0.20491 0.0
C41 C 0.2773 0.54459 0.30824 0.0
C42 C 0.29892 0.5353 0.31225 0.0
C43 C 0.30647 0.51821 0.26579 0.0
C44 C 0.29249 0.51082 0.21189 0.0
H45 H 0.04447 0.21655 0.16056 0.0
H46 H 0.04742 0.27334 0.30396 0.0
H47 H 0.05953 0.2784 0.10297 0.0
C48 C 0.04751 0.23381 0.1735 0.0
C49 C 0.05264 0.24616 0.12471 0.0
C50 C 0.04548 0.24345 0.23804 0.0
C51 C 0.04897 0.26577 0.25394 0.0
C52 C 0.05421 0.27849 0.20578 0.0
C53 C 0.05575 0.2687 0.14054 0.0
H54 H 0.30478 0.98254 0.25588 0.0
H55 H 0.24098 0.99101 0.35757 0.0
H56 H 0.24568 0.00526 0.16275 0.0
C57 C 0.28696 0.98728 0.25752 0.0
C58 C 0.27715 0.9945 0.20311 0.0
C59 C 0.27411 0.98591 0.31341 0.0
C60 C 0.25106 0.9917 0.31436 0.0
C61 C 0.2405 0.99825 0.26041 0.0
C62 C 0.25367 0.00014 0.20468 0.0
H63 H 0.50686 0.27362 0.35279 0.0
H64 H 0.48941 0.20705 0.28654 0.0
H65 H 0.50777 0.22774 0.4863 0.0
C66 C 0.50455 0.25716 0.36256 0.0
C67 C 0.50794 0.25257 0.42528 0.0
C68 C 0.49798 0.24094 0.31229 0.0
C69 C 0.49473 0.21963 0.32504 0.0
C70 C 0.49828 0.21477 0.38812 0.0
C71 C 0.505 0.23134 0.43773 0.0
Tb72 Tb 0.99829 0.00231 0.7155 0.0
Tb73 Tb 0.03979 0.98946 0.80727 0.0
C74 C 0.98933 0.993 0.85758 0.0
C75 C 0.96925 0.03138 0.60227 0.0
C76 C 0.97377 0.06795 0.53932 0.0
C77 C 0.9521 0.06139 0.5579 0.0
C78 C 0.94987 0.04318 0.58926 0.0
C79 C 0.99078 0.03754 0.58211 0.0
C80 C 0.99301 0.05559 0.55075 0.0
C81 C 0.96776 0.01476 0.64469 0.0
O82 O 0.01824 0.03166 0.74086 0.0
O83 O 0.03421 0.02414 0.83512 0.0
O84 O 0.05659 0.00184 0.7274 0.0
O85 O 0.02803 0.99603 0.65189 0.0
O86 O 0.05426 0.9895 0.8992 0.0
O87 O 0.07174 0.97461 0.81302 0.0
O88 O 0.02996 0.95978 0.74529 0.0
O89 O 0.99317 0.96809 0.72073 0.0
O90 O 0.98465 0.00539 0.81367 0.0
O91 O 1.00835 0.98171 0.85495 0.0
C92 C 0.02818 0.03804 0.79666 0.0
O93 O 0.98012 0.9974 0.6279 0.0
O94 O 0.97003 0.02226 0.70588 0.0
C95 C 0.04961 -0.00034 0.66708 0.0
C96 C 0.07292 0.95631 0.90213 0.0
C97 C 0.07673 0.91538 0.94255 0.0
C98 C 0.09616 0.92842 0.93955 0.0
C99 C 0.09425 0.94876 0.91932 0.0
C100 C 0.05353 0.9434 0.90523 0.0
C101 C 0.05538 0.92323 0.92563 0.0
C102 C 0.0709 0.97674 0.87588 0.0
C103 C 1.00942 0.95384 0.72489 0.0
H104 H 0.93698 0.07057 0.5494 0.0
H105 H 0.93318 0.0388 0.60543 0.0
H106 H 1.00602 0.02895 0.59315 0.0
H107 H 1.00998 0.06045 0.53829 0.0
H108 H 0.11286 0.92279 0.95183 0.0
H109 H 0.10943 0.95844 0.91618 0.0
H110 H 0.03694 0.94885 0.89132 0.0
H111 H 0.03998 0.91387 0.92868 0.0
Tb112 Tb 0.51897 0.98266 0.732 0.0
Tb113 Tb 0.53539 0.0206 0.84696 0.0
C114 C 0.53664 0.97227 0.86275 0.0
C115 C 0.48479 0.93879 0.64757 0.0
C116 C 0.44011 0.92244 0.64873 0.0
C117 C 0.45271 0.92667 0.70645 0.0
C118 C 0.47481 0.93498 0.70595 0.0
C119 C 0.47311 0.93285 0.58944 0.0
C120 C 0.45096 0.92479 0.58992 0.0
C121 C 0.50514 0.95241 0.64806 0.0
O122 O 0.48686 0.99392 0.77848 0.0
O123 O 0.50027 0.01377 0.87266 0.0
O124 O 0.5166 0.03737 0.78009 0.0
O125 O 0.52286 0.01232 0.68976 0.0
O126 O 0.5352 0.03182 0.94658 0.0
O127 O 0.55382 0.04897 0.88111 0.0
O128 O 0.56382 0.01672 0.77844 0.0
O129 O 0.55606 0.98296 0.72256 0.0
O130 O 0.5196 0.96933 0.82207 0.0
O131 O 0.54903 0.98981 0.8665 0.0
C132 C 0.48348 0.00438 0.83721 0.0
O133 O 0.50075 0.97283 0.64652 0.0
O134 O 0.5207 0.94985 0.69087 0.0
C135 C 0.51731 0.03204 0.71691 0.0
C136 C 0.57255 0.04099 0.97524 0.0
C137 C 0.60574 0.01604 0.02782 0.0
C138 C 0.58742 0.02516 0.06608 0.0
C139 C 0.57099 0.03764 0.04004 0.0
C140 C 0.59218 0.03383 0.93942 0.0
C141 C 0.60861 0.02148 0.9655 0.0
C142 C 0.55155 0.04553 0.94093 0.0
C143 C 0.57001 0.9994 0.73824 0.0
H144 H 0.44507 0.92475 0.75243 0.0
H145 H 0.48352 0.93965 0.75158 0.0
H146 H 0.48047 0.93593 0.54411 0.0
H147 H 0.44182 0.92213 0.54447 0.0
H148 H 0.58507 0.02159 0.11479 0.0
H149 H 0.55597 0.04287 0.06848 0.0
H150 H 0.59387 0.03596 0.88916 0.0
H151 H 0.62252 0.01468 0.93474 0.0
Tb152 Tb 0.50485 0.49112 0.83018 0.0
Tb153 Tb 0.54239 0.50819 0.73089 0.0
C154 C 0.4918 0.49732 0.68848 0.0
C155 C 0.4766 0.4548 0.92777 0.0
C156 C 0.47558 0.41378 0.96966 0.0
C157 C 0.45824 0.4292 0.98805 0.0
C158 C 0.45873 0.44952 0.9671 0.0
C159 C 0.494 0.43963 0.90988 0.0
C160 C 0.49349 0.41932 0.93032 0.0
C161 C 0.47674 0.47563 0.90274 0.0
O162 O 0.51867 0.46239 0.77151 0.0
O163 O 0.552 0.47455 0.72951 0.0
O164 O 0.5571 0.51251 0.82831 0.0
O165 O 0.53808 0.48615 0.87177 0.0
O166 O 0.55425 0.51167 0.63786 0.0
O167 O 0.57177 0.52682 0.72291 0.0
O168 O 0.51849 0.53434 0.75915 0.0
O169 O 0.50786 0.52609 0.85809 0.0
O170 O 0.48566 0.50081 0.74969 0.0
O171 O 0.51344 0.49509 0.6719 0.0
C172 C 0.53868 0.45895 0.74328 0.0
O173 O 0.493 0.48905 0.92417 0.0
O174 O 0.47455 0.47408 0.8402 0.0
C175 C 0.55548 0.49932 0.87168 0.0
C176 C 0.57053 0.54623 0.63546 0.0
C177 C 0.57253 0.58753 0.59541 0.0
C178 C 0.59249 0.57516 0.59922 0.0
C179 C 0.59147 0.55472 0.61899 0.0
C180 C 0.55054 0.55844 0.63191 0.0
C181 C 0.55151 0.57885 0.61185 0.0
C182 C 0.57003 0.52539 0.66047 0.0
C183 C 0.51047 0.54016 0.81767 0.0
H184 H 0.44437 0.42564 0.01905 0.0
H185 H 0.44512 0.46104 0.98132 0.0
H186 H 0.50786 0.44346 0.87933 0.0
H187 H 0.50694 0.40784 0.91427 0.0
H188 H 0.60901 0.58141 0.5881 0.0
H189 H 0.60712 0.54567 0.62238 0.0
H190 H 0.53421 0.55225 0.64506 0.0
H191 H 0.53575 0.58774 0.60878 0.0
Tb192 Tb 0.03356 0.51492 0.72589 0.0
Tb193 Tb 0.01749 0.4763 0.80548 0.0
C194 C 0.0153 0.52456 0.86587 0.0
C195 C 0.06397 0.56175 0.67576 0.0
C196 C 0.10157 0.58974 0.67624 0.0
C197 C 0.08103 0.59423 0.64591 0.0
C198 C 0.0624 0.58025 0.64542 0.0
C199 C 0.08371 0.55812 0.71041 0.0
C200 C 0.10239 0.57194 0.71046 0.0
C201 C 0.04558 0.54569 0.66771 0.0
O202 O 0.06572 0.50409 0.76379 0.0
O203 O 0.05194 0.4843 0.84008 0.0
O204 O 0.03703 0.46042 0.72368 0.0
O205 O 0.02978 0.48543 0.65647 0.0
O206 O 0.0175 0.46446 0.89417 0.0
O207 O 0.99991 0.44725 0.81171 0.0
O208 O 0.98895 0.48013 0.74121 0.0
O209 O 0.99641 0.51408 0.71654 0.0
O210 O 0.03226 0.52804 0.82795 0.0
O211 O 1.0033 0.50676 0.85355 0.0
C212 C 0.06881 0.49387 0.81394 0.0
O213 O 0.05202 0.5256 0.65088 0.0
O214 O 0.03022 0.54759 0.71332 0.0
C215 C 0.03582 0.46579 0.66538 0.0
C216 C 0.98038 0.45381 0.91211 0.0
C217 C 0.94567 0.47722 0.98486 0.0
C218 C 0.96441 0.46926 0.01607 0.0
C219 C 0.98158 0.45751 0.97994 0.0
C220 C 0.96039 0.45968 0.88167 0.0
C221 C 0.94318 0.47127 0.91779 0.0
C222 C 1.00173 0.4503 0.87468 0.0
C223 C 0.98259 0.49752 0.71724 0.0
H224 H 0.0797 0.60797 0.61999 0.0
H225 H 0.04712 0.58342 0.6192 0.0
H226 H 0.08509 0.54401 0.73474 0.0
H227 H 0.11795 0.56776 0.73366 0.0
H228 H 0.96648 0.47327 0.06796 0.0
H229 H 0.99683 0.45322 1.0045 0.0
H230 H 0.95891 0.45718 0.82945 0.0
H231 H 0.9289 0.47715 0.89241 0.0
H232 H 0.20844 0.96725 0.25595 0.0
H233 H 0.1714 0.97133 0.30893 0.0
H234 H 0.17899 0.04089 0.33592 0.0
H235 H 0.21696 0.03656 0.28572 0.0
H236 H 0.16933 0.03033 0.44411 0.0
H237 H 0.1077 0.98524 0.2782 0.0
H238 H 0.13129 0.96773 0.28756 0.0
H239 H 0.13568 0.99192 0.25124 0.0
C240 C 0.20167 0.98345 0.2701 0.0
C241 C 0.21541 0.00159 0.26534 0.0
C242 C 0.18038 0.98582 0.30075 0.0
C243 C 0.17196 0.00646 0.3263 0.0
C244 C 0.18491 0.02475 0.3167 0.0
H245 H 0.04191 0.00852 0.54371 0.0
H246 H 0.07029 0.01267 0.46014 0.0
C247 C 0.20649 0.02233 0.28688 0.0
C248 C 0.15166 0.00858 0.37082 0.0
H249 H 0.099 0.9872 0.39327 0.0
C250 C 0.1538 0.02119 0.43219 0.0
C251 C 0.13101 0.99707 0.35591 0.0
C252 C 0.12622 0.98496 0.28931 0.0
C253 C 0.13662 0.02176 0.47955 0.0
C254 C 0.11697 0.00859 0.46674 0.0
C255 C 0.11422 0.9969 0.40425 0.0
C256 C 0.0995 0.00626 0.51784 0.0
C257 C 0.13979 0.03668 0.54271 0.0
C258 C 0.10619 0.00089 0.57812 0.0
C259 C 0.09003 0.99893 0.62635 0.0
C260 C 0.06661 0.00166 0.61514 0.0
C261 C 0.05979 0.00636 0.55415 0.0
C262 C 0.07605 0.00872 0.5062 0.0
H263 H 0.15041 0.05091 0.536 0.0
H264 H 0.1232 0.04265 0.56415 0.0
H265 H 0.14883 0.02783 0.57743 0.0
H266 H 0.12398 0.99803 0.58794 0.0
H267 H 0.09592 0.99495 0.67227 0.0
H268 H 0.47221 0.20242 0.48363 0.0
H269 H 0.47322 0.16756 0.52402 0.0
H270 H 0.51951 0.14234 0.37047 0.0
H271 H 0.51852 0.17736 0.32966 0.0
H272 H 0.46581 0.12159 0.46136 0.0
H273 H 0.55416 0.14171 0.54857 0.0
H274 H 0.53485 0.162 0.5267 0.0
H275 H 0.54806 0.14297 0.46482 0.0
C276 C 0.4822 0.18927 0.45768 0.0
C277 C 0.49541 0.19255 0.40384 0.0
C278 C 0.48273 0.16938 0.48068 0.0
C279 C 0.49663 0.1525 0.45062 0.0
C280 C 0.50878 0.15526 0.39447 0.0
H281 H 0.51266 0.0265 0.58502 0.0
H282 H 0.50697 0.05457 0.51615 0.0
C283 C 0.5081 0.17516 0.37101 0.0
C284 C 0.5 0.13302 0.48229 0.0
H285 H 0.53794 0.10985 0.57555 0.0
C286 C 0.48166 0.1188 0.48561 0.0
C287 C 0.52061 0.1297 0.51466 0.0
C288 C 0.54058 0.14491 0.51415 0.0
C289 C 0.48335 0.10139 0.52108 0.0
C290 C 0.50386 0.09826 0.55403 0.0
C291 C 0.52228 0.11231 0.55001 0.0
C292 C 0.50627 0.08111 0.5955 0.0
C293 C 0.46302 0.08687 0.52502 0.0
C294 C 0.50783 0.08679 0.66285 0.0
C295 C 0.51099 0.07083 0.7024 0.0
C296 C 0.51294 0.04887 0.67522 0.0
C297 C 0.51126 0.04324 0.60759 0.0
C298 C 0.50791 0.05923 0.56812 0.0
H299 H 0.44747 0.09311 0.5036 0.0
H300 H 0.46687 0.07047 0.49864 0.0
H301 H 0.45944 0.08518 0.57621 0.0
H302 H 0.50668 0.10363 0.68479 0.0
H303 H 0.51227 0.07577 0.75418 0.0
H304 H 0.34861 0.534 0.24666 0.0
H305 H 0.38338 0.5264 0.30441 0.0
H306 H 0.34863 0.47488 0.38094 0.0
H307 H 0.314 0.48232 0.32223 0.0
H308 H 0.38382 0.53232 0.43499 0.0
H309 H 0.41159 0.44825 0.34546 0.0
H310 H 0.39228 0.46301 0.30058 0.0
H311 H 0.3819 0.45034 0.36673 0.0
C312 C 0.34883 0.52028 0.27292 0.0
C313 C 0.3288 0.50837 0.27853 0.0
C314 C 0.36861 0.51613 0.30673 0.0
C315 C 0.3688 0.49999 0.3471 0.0
C316 C 0.34922 0.48709 0.3492 0.0
H317 H 0.44564 0.50373 0.70386 0.0
H318 H 0.41663 0.50379 0.61988 0.0
C319 C 0.32943 0.49123 0.31519 0.0
C320 C 0.38805 0.49881 0.39345 0.0
H321 H 0.42709 0.46464 0.44707 0.0
C322 C 0.39338 0.51754 0.43709 0.0
C323 C 0.40068 0.47959 0.39646 0.0
C324 C 0.39651 0.4592 0.34942 0.0
C325 C 0.41051 0.51748 0.48417 0.0
C326 C 0.42258 0.49808 0.48873 0.0
C327 C 0.41771 0.47946 0.44415 0.0
C328 C 0.44022 0.49695 0.53973 0.0
C329 C 0.41567 0.5383 0.52843 0.0
C330 C 0.46315 0.49255 0.52292 0.0
C331 C 0.47987 0.49251 0.571 0.0
C332 C 0.474 0.49669 0.63711 0.0
C333 C 0.4509 0.50057 0.65364 0.0
C334 C 0.43424 0.50068 0.60558 0.0
H335 H 0.4092 0.5527 0.50849 0.0
H336 H 0.40725 0.53797 0.57585 0.0
H337 H 0.43431 0.54019 0.53684 0.0
H338 H 0.46821 0.48956 0.4725 0.0
H339 H 0.49743 0.48937 0.55626 0.0
H340 H 0.02727 0.31131 0.17638 0.0
H341 H 0.02603 0.3485 0.23527 0.0
H342 H 0.08557 0.33503 0.3439 0.0
H343 H 0.08681 0.2981 0.28518 0.0
H344 H 0.01908 0.35452 0.36713 0.0
H345 H 0.09791 0.3969 0.31224 0.0
H346 H 0.08732 0.37322 0.26045 0.0
H347 H 0.10353 0.37034 0.33176 0.0
C348 C 0.04063 0.31669 0.2108 0.0
C349 C 0.05725 0.30203 0.22604 0.0
C350 C 0.03984 0.33783 0.24472 0.0
C351 C 0.05582 0.34462 0.29368 0.0
C352 C 0.07336 0.33037 0.30549 0.0
H353 H 0.04259 0.42223 0.66326 0.0
H354 H 0.04705 0.39438 0.56852 0.0
C355 C 0.07405 0.30927 0.27202 0.0
C356 C 0.0522 0.36496 0.33942 0.0
H357 H 0.07933 0.4104 0.41363 0.0
C358 C 0.03208 0.36694 0.37642 0.0
C359 C 0.06913 0.38119 0.35156 0.0
C360 C 0.09059 0.38045 0.31144 0.0
C361 C 0.02894 0.38411 0.42723 0.0
C362 C 0.04645 0.3996 0.44185 0.0
C363 C 0.06607 0.39831 0.40285 0.0
C364 C 0.04491 0.41675 0.499 0.0
C365 C 1.00706 0.38535 0.46574 0.0
C366 C 0.04278 0.4386 0.49128 0.0
C367 C 0.04016 0.4546 0.54538 0.0
C368 C 0.03986 0.44902 0.60823 0.0
C369 C 0.04268 0.42713 0.61569 0.0
C370 C 0.04515 0.41116 0.56158 0.0
H371 H 0.99333 0.37548 0.43928 0.0
H372 H 1.01016 0.37907 0.51193 0.0
H373 H 1.00106 0.40238 0.47749 0.0
H374 H 0.04265 0.44323 0.44334 0.0
H375 H 0.03814 0.4713 0.53784 0.0
H376 H 0.85087 0.94663 0.30154 0.0
H377 H 0.88417 0.95364 0.2368 0.0
H378 H 0.85064 0.01021 0.18483 0.0
H379 H 0.81767 0.0035 0.25142 0.0
H380 H 0.88367 0.95184 0.11026 0.0
H381 H 0.9139 0.03364 0.2138 0.0
H382 H 0.8942 0.01852 0.25615 0.0
H383 H 0.88411 0.03337 0.19416 0.0
C384 C 0.85109 0.96109 0.27855 0.0
C385 C 0.83195 0.97484 0.28282 0.0
C386 C 0.87002 0.96497 0.2409 0.0
C387 C 0.87019 0.98259 0.20599 0.0
C388 C 0.85137 0.99685 0.21238 0.0
H389 H 0.94978 0.01634 0.88399 0.0
H390 H 0.92193 0.01375 0.96976 0.0
C391 C 0.8325 0.99307 0.25066 0.0
C392 C 0.88879 0.98455 0.1579 0.0
H393 H 0.92762 0.01953 0.10785 0.0
C394 C 0.89344 0.96659 0.11038 0.0
C395 C 0.90155 0.0038 0.1573 0.0
C396 C 0.89836 0.02335 0.20847 0.0
C397 C 0.90999 0.96747 0.06197 0.0
C398 C 0.92255 0.98677 0.06098 0.0
C399 C 0.91801 0.00473 0.10848 0.0
C400 C 0.94007 0.9887 0.01015 0.0
C401 C 0.91345 0.94788 0.01105 0.0
C402 C 0.9598 0.97567 1.00452 0.0
C403 C 0.97586 0.97712 0.95543 0.0
C404 C 0.97255 0.99165 0.91071 0.0
C405 C 0.95291 0.00488 0.91715 0.0
C406 C 0.93695 0.00348 0.96641 0.0
H407 H 0.89911 0.93621 0.00993 0.0
H408 H 0.91524 0.95275 0.96232 0.0
H409 H 0.92935 0.9394 0.0217 0.0
H410 H 0.9628 0.96435 0.03818 0.0
H411 H 0.99078 0.96674 0.95233 0.0
H412 H 0.5531 0.82321 0.24149 0.0
H413 H 0.55218 0.85956 0.20967 0.0
H414 H 0.58096 0.8337 0.02404 0.0
H415 H 0.58296 0.79786 0.0565 0.0
H416 H 0.59804 0.87313 0.06704 0.0
H417 H 0.50337 0.87489 0.08802 0.0
H418 H 0.5185 0.87268 0.16139 0.0
H419 H 0.51985 0.8509 0.09464 0.0
C420 C 0.55965 0.82541 0.19446 0.0
C421 C 0.56763 0.80756 0.15098 0.0
C422 C 0.55889 0.84613 0.17604 0.0
C423 C 0.56593 0.84927 0.11375 0.0
C424 C 0.57522 0.83171 0.07208 0.0
H425 H 0.51921 0.93143 0.8531 0.0
H426 H 0.52771 0.90376 0.92061 0.0
C427 C 0.57614 0.81114 0.09052 0.0
C428 C 0.56241 0.87024 0.08927 0.0
H429 H 0.52069 0.90375 0.0469 0.0
C430 C 0.58117 0.88001 0.06328 0.0
C431 C 0.54033 0.87906 0.08377 0.0
C432 C 0.5193 0.86881 0.10789 0.0
C433 C 0.57837 0.89776 0.02968 0.0
C434 C 0.55623 0.90634 0.02335 0.0
C435 C 0.53763 0.89716 0.0518 0.0
C436 C 0.55154 0.92351 0.98272 0.0
C437 C 0.59896 0.90632 0.99823 0.0
C438 C 0.56203 0.94393 0.99516 0.0
C439 C 0.5574 0.95979 0.95595 0.0
C440 C 0.54189 0.95559 0.90423 0.0
C441 C 0.53121 0.93523 0.89252 0.0
C442 C 0.53603 0.91938 0.93121 0.0
H443 H 0.61355 0.89481 0.99492 0.0
H444 H 0.59482 0.90965 0.94882 0.0
H445 H 0.6045 0.92172 0.02749 0.0
H446 H 0.57363 0.94766 0.03548 0.0
H447 H 0.56577 0.97538 0.96664 0.0
H448 H 0.70128 0.551 0.31763 0.0
H449 H 0.668 0.54183 0.24883 0.0
H450 H 0.69368 0.47673 0.1966 0.0
H451 H 0.72734 0.48606 0.26538 0.0
H452 H 0.68353 0.49571 0.09048 0.0
H453 H 0.61031 0.50709 0.25903 0.0
H454 H 0.62887 0.53017 0.26895 0.0
H455 H 0.63925 0.50447 0.28643 0.0
C456 C 0.69943 0.53451 0.29326 0.0
C457 C 0.7168 0.51917 0.29753 0.0
C458 C 0.68035 0.52926 0.25385 0.0
C459 C 0.67809 0.50851 0.2177 0.0
C460 C 0.69491 0.49281 0.22425 0.0
H461 H 0.55782 0.47484 0.97058 0.0
H462 H 0.58747 0.47533 0.05327 0.0
C463 C 0.71403 0.49806 0.26411 0.0
C464 C 0.65954 0.50415 0.16834 0.0
H465 H 0.60188 0.50834 0.14695 0.0
C466 C 0.66566 0.4982 0.10304 0.0
C467 C 0.63613 0.50719 0.18431 0.0
C468 C 0.62821 0.51236 0.25358 0.0
C469 C 0.64921 0.49606 0.0534 0.0
C470 C 0.62595 0.50032 0.06908 0.0
C471 C 0.61971 0.50538 0.13457 0.0
C472 C 0.60794 0.49996 0.01824 0.0
C473 C 0.65695 0.48922 0.98451 0.0
C474 C 0.60929 0.51383 0.97118 0.0
C475 C 0.59236 0.5136 0.9237 0.0
C476 C 0.57351 0.49957 0.92226 0.0
C477 C 0.57208 0.48584 0.96988 0.0
C478 C 0.58903 0.4861 0.0174 0.0
H479 H 0.67357 0.48053 0.98237 0.0
H480 H 0.64417 0.47854 0.95657 0.0
H481 H 0.65919 0.50384 0.96075 0.0
H482 H 0.6234 0.52504 0.97147 0.0
H483 H 0.59404 0.5245 0.88825 0.0
H484 H 0.96318 0.68775 0.3049 0.0
H485 H 0.95921 0.65016 0.25072 0.0
H486 H 0.03218 0.64599 0.22403 0.0
H487 H 0.03611 0.68327 0.27819 0.0
H488 H 0.97171 0.63968 0.12377 0.0
H489 H 0.01794 0.58623 0.26775 0.0
H490 H 1.00843 0.61312 0.30175 0.0
H491 H 0.03475 0.60939 0.25681 0.0
C492 C 0.97839 0.67843 0.28984 0.0
C493 C 0.99995 0.6883 0.29579 0.0
C494 C 0.97612 0.65704 0.25856 0.0
C495 C 0.99541 0.64516 0.23373 0.0
C496 C 0.01708 0.65459 0.24391 0.0
H497 H 0.03335 0.56503 0.89664 0.0
H498 H 0.02464 0.59215 0.99028 0.0
C499 C 0.01933 0.67594 0.27463 0.0
C500 C 0.99296 0.62455 0.18841 0.0
H501 H 0.0158 0.57372 0.15169 0.0
C502 C 0.98084 0.62506 0.1307 0.0
C503 C 1.0048 0.60541 0.19734 0.0
C504 C 0.01701 0.60341 0.25962 0.0
C505 C 0.98166 0.60758 0.07998 0.0
C506 C 0.99497 0.58919 0.08708 0.0
C507 C 1.00577 0.58797 0.14628 0.0
C508 C 0.99992 0.57236 0.03106 0.0
C509 C 0.96924 0.60923 0.01776 0.0
C510 C 0.98887 0.55222 0.02328 0.0
C511 C 0.9937 0.53662 0.96936 0.0
C512 C 1.00981 0.54093 0.92286 0.0
C513 C 0.02088 0.56113 0.93141 0.0
C514 C 0.01593 0.57668 0.98487 0.0
H515 H 0.95652 0.62261 0.02372 0.0
H516 H 0.98178 0.6123 0.98034 0.0
H517 H 0.96042 0.59375 0.99987 0.0
H518 H 0.97645 0.54868 0.05861 0.0
H519 H 0.98491 0.5212 0.96432 0.0
H520 H 0.06257 0.20412 0.2552 0.0
H521 H 0.04725 0.17939 0.32459 0.0
H522 H 0.99789 0.22775 0.4027 0.0
H523 H 1.0128 0.25247 0.3318 0.0
H524 H 0.04074 0.18262 0.45975 0.0
H525 H 0.95881 0.17557 0.32282 0.0
H526 H 0.98387 0.18777 0.29346 0.0
H527 H 0.96746 0.20234 0.35849 0.0
C528 C 0.04857 0.20954 0.28754 0.0
C529 C 0.03865 0.23006 0.28755 0.0
C530 C 0.03993 0.19547 0.32735 0.0
C531 C 0.02122 0.20166 0.36781 0.0
C532 C 1.01212 0.22261 0.37095 0.0
H533 H 0.95344 0.10724 0.57935 0.0
H534 H 0.96252 0.14201 0.54382 0.0
C535 C 0.02079 0.23675 0.33098 0.0
C536 C 1.01056 0.18541 0.40288 0.0
H537 H 0.96427 0.15208 0.39931 0.0
C538 C 0.02386 0.1762 0.44749 0.0
C539 C 0.98854 0.17706 0.38644 0.0
C540 C 0.9738 0.18603 0.33742 0.0
C541 C 0.01609 0.15823 0.47409 0.0
C542 C 0.99461 0.14926 0.45516 0.0
C543 C 0.98075 0.15913 0.41341 0.0
C544 C 0.98748 0.12833 0.47298 0.0
C545 C 0.03122 0.14837 0.52036 0.0
C546 C 0.998 0.10925 0.44308 0.0
C547 C 0.9927 0.08944 0.46251 0.0
C548 C 0.97684 0.08842 0.51242 0.0
C549 C 0.96557 0.1075 0.54034 0.0
C550 C 0.97083 0.12735 0.52056 0.0
H551 H 0.04504 0.1596 0.5401 0.0
H552 H 0.02105 0.14387 0.56118 0.0
H553 H 0.03919 0.13336 0.49455 0.0
H554 H 1.0107 0.10978 0.40561 0.0
H555 H 1.0014 0.07498 0.43945 0.0
H556 H 0.25468 0.96027 0.39477 0.0
H557 H 0.27172 0.94798 0.48932 0.0
H558 H 0.33477 0.97958 0.45228 0.0
H559 H 0.3173 0.99356 0.36155 0.0
H560 H 0.3039 0.9217 0.49964 0.0
H561 H 0.33077 0.99855 0.64025 0.0
H562 H 0.31142 0.99777 0.57281 0.0
H563 H 0.34195 0.99804 0.56041 0.0
C564 C 0.27197 0.96518 0.40782 0.0
C565 C 0.28454 0.97812 0.37063 0.0
C566 C 0.28173 0.95795 0.4617 0.0
C567 C 0.30434 0.9633 0.47912 0.0
C568 C 0.31702 0.97589 0.44146 0.0
H569 H 0.41336 0.89754 0.55908 0.0
H570 H 0.37341 0.90394 0.54044 0.0
C571 C 0.30715 0.98349 0.38847 0.0
C572 C 0.31558 0.95428 0.53282 0.0
H573 H 0.35671 0.96748 0.64599 0.0
C574 C 0.31499 0.93178 0.53303 0.0
C575 C 0.32909 0.96734 0.57917 0.0
C576 C 0.32805 0.99178 0.58857 0.0
C577 C 0.32983 0.92183 0.57237 0.0
C578 C 0.34634 0.93461 0.60977 0.0
C579 C 0.34468 0.95734 0.61596 0.0
C580 C 0.36788 0.92525 0.63122 0.0
C581 C 0.32813 0.89767 0.57137 0.0
C582 C 0.37828 0.93431 0.68954 0.0
C583 C 0.40166 0.93161 0.69859 0.0
C584 C 0.41495 0.91936 0.65001 0.0
C585 C 0.4038 0.90767 0.59644 0.0
C586 C 0.38063 0.91094 0.58643 0.0
H587 H 0.30994 0.89273 0.57186 0.0
H588 H 0.33571 0.88918 0.5258 0.0
H589 H 0.33692 0.89229 0.61327 0.0
H590 H 0.36883 0.94521 0.72533 0.0
H591 H 0.40952 0.94087 0.74074 0.0
H592 H 0.54276 0.25358 0.51307 0.0
H593 H 0.55483 0.28481 0.59195 0.0
H594 H 0.49936 0.32264 0.53124 0.0
H595 H 0.48716 0.29168 0.45371 0.0
H596 H 0.5682 0.32535 0.56117 0.0
H597 H 0.4947 0.33438 0.72833 0.0
H598 H 0.50039 0.30958 0.67404 0.0
H599 H 0.48543 0.33162 0.64578 0.0
C600 C 0.53294 0.26847 0.51775 0.0
C601 C 0.51409 0.27033 0.47737 0.0
C602 C 0.53988 0.28625 0.56243 0.0
C603 C 0.5278 0.3059 0.56786 0.0
C604 C 0.50865 0.3075 0.52867 0.0
H605 H 0.55184 0.43844 0.62509 0.0
H606 H 0.55514 0.39918 0.59253 0.0
C607 C 0.50182 0.28988 0.48402 0.0
C608 C 0.53585 0.32548 0.61034 0.0
H609 H 0.51551 0.36733 0.71855 0.0
C610 C 0.55699 0.33435 0.5969 0.0
C611 C 0.52145 0.33695 0.65786 0.0
C612 C 0.49934 0.3275 0.67785 0.0
C613 C 0.56321 0.35529 0.62583 0.0
C614 C 0.54763 0.36771 0.66796 0.0
C615 C 0.52739 0.35802 0.6855 0.0
C616 C 0.55052 0.39131 0.68935 0.0
C617 C 0.58613 0.36403 0.60962 0.0
C618 C 0.54701 0.40001 0.7545 0.0
C619 C 0.54456 0.42233 0.77258 0.0
C620 C 0.54587 0.43631 0.72602 0.0
C621 C 0.55105 0.42788 0.66175 0.0
C622 C 0.55309 0.40547 0.64334 0.0
H623 H 0.59891 0.35075 0.59974 0.0
H624 H 0.58456 0.37164 0.56511 0.0
H625 H 0.59257 0.37633 0.64936 0.0
H626 H 0.54497 0.38946 0.79084 0.0
H627 H 0.54085 0.42862 0.82261 0.0
H628 H 0.24769 0.57876 0.30304 0.0
H629 H 0.22694 0.59916 0.39275 0.0
H630 H 0.26701 0.56889 0.52771 0.0
H631 H 0.28596 0.5466 0.43843 0.0
H632 H 0.22609 0.5626 0.54896 0.0
H633 H 0.23106 0.64927 0.5302 0.0
H634 H 0.22253 0.63517 0.45312 0.0
H635 H 0.25018 0.62975 0.4855 0.0
C636 C 0.25218 0.5764 0.35173 0.0
C637 C 0.26821 0.56052 0.36282 0.0
C638 C 0.24067 0.58861 0.40336 0.0
C639 C 0.24551 0.58581 0.46742 0.0
C640 C 0.26297 0.57143 0.47881 0.0
H641 H 0.13741 0.60172 0.75913 0.0
H642 H 0.17651 0.60868 0.72622 0.0
C643 C 0.27398 0.55873 0.42725 0.0
C644 C 0.22942 0.59426 0.52025 0.0
H645 H 0.19438 0.63713 0.57281 0.0
C646 C 0.21981 0.57916 0.55594 0.0
C647 C 0.22113 0.61585 0.52983 0.0
C648 C 0.23202 0.63342 0.49798 0.0
C649 C 0.20081 0.58438 0.59577 0.0
C650 C 0.19116 0.60536 0.60032 0.0
C651 C 0.2018 0.62104 0.56898 0.0
C652 C 0.16782 0.60936 0.62603 0.0
C653 C 0.18997 0.56677 0.62794 0.0
C654 C 0.14991 0.60908 0.58158 0.0
C655 C 0.1277 0.60487 0.5999 0.0
C656 C 0.12304 0.60096 0.66316 0.0
C657 C 0.14057 0.60411 0.70964 0.0
C658 C 0.16287 0.60828 0.69112 0.0
H659 H 0.19858 0.55083 0.61479 0.0
H660 H 0.19085 0.57128 0.68127 0.0
H661 H 0.1717 0.56488 0.61419 0.0
H662 H 0.15344 0.60983 0.53106 0.0
H663 H 0.11474 0.60253 0.56263 0.0
H664 H 0.99151 0.7773 0.21882 0.0
H665 H 1.00908 0.80153 0.1514 0.0
H666 H 0.073 0.7673 0.15617 0.0
H667 H 0.05515 0.74256 0.22261 0.0
H668 H 0.04474 0.82771 0.19733 0.0
H669 H 0.06821 0.77622 0.96579 0.0
H670 H 0.04779 0.76769 0.02163 0.0
H671 H 0.07777 0.76692 0.03865 0.0
C672 C 1.00916 0.77468 0.20417 0.0
C673 C 0.02207 0.75822 0.22578 0.0
C674 C 0.01918 0.78848 0.1658 0.0
C675 C 0.04232 0.78618 0.14879 0.0
C676 C 0.05503 0.76912 0.1679 0.0
H677 H 0.10295 0.90397 0.04095 0.0
H678 H 0.10065 0.87044 0.08809 0.0
C679 C 0.04488 0.75507 0.20586 0.0
C680 C 0.05334 0.80317 0.11722 0.0
H681 H 0.07853 0.81319 0.97747 0.0
C682 C 0.05231 0.82454 0.14943 0.0
C683 C 0.0632 0.79888 0.05491 0.0
C684 C 0.06423 0.77623 0.01777 0.0
C685 C 0.05989 0.84195 0.11998 0.0
C686 C 0.06954 0.83777 0.05723 0.0
C687 C 0.07137 0.81628 0.02584 0.0
C688 C 0.07508 0.85571 0.02094 0.0
C689 C 0.05623 0.8647 0.15499 0.0
C690 C 0.06272 0.85782 0.96485 0.0
C691 C 0.06437 0.87672 0.93698 0.0
C692 C 0.07824 0.89396 0.96512 0.0
C693 C 0.09202 0.89107 0.01824 0.0
C694 C 0.09057 0.872 0.04562 0.0
H695 H 0.04423 0.86511 0.19635 0.0
H696 H 0.07277 0.87142 0.17432 0.0
H697 H 0.04939 0.87543 0.12165 0.0
H698 H 0.05083 0.84535 0.94462 0.0
H699 H 0.05406 0.87815 0.89484 0.0
H700 H 0.74809 0.90978 0.29795 0.0
H701 H 0.71356 0.90137 0.23366 0.0
H702 H 0.73868 0.93972 0.09313 0.0
H703 H 0.77282 0.94794 0.15626 0.0
H704 H 0.68944 0.93637 0.23616 0.0
H705 H 0.69624 0.90169 0.98056 0.0
H706 H 0.71793 0.89699 0.03838 0.0
H707 H 0.71916 0.92055 0.99762 0.0
C708 C 0.74671 0.91543 0.25156 0.0
C709 C 0.7628 0.93007 0.23314 0.0
C710 C 0.72701 0.91053 0.21468 0.0
C711 C 0.72327 0.92017 0.15899 0.0
C712 C 0.74111 0.93181 0.13535 0.0
H713 H 0.65195 0.0111 0.01467 0.0
H714 H 0.67538 0.9815 0.04334 0.0
C715 C 0.76078 0.93664 0.17199 0.0
C716 C 0.69969 0.92429 0.1382 0.0
H717 H 0.67147 0.93506 1.00404 0.0
C718 C 0.685 0.93527 0.18542 0.0
C719 C 0.6937 0.92278 0.07222 0.0
C720 C 0.70758 0.90962 0.01959 0.0
C721 C 0.66638 0.94731 0.16822 0.0
C722 C 0.66217 0.94798 0.10204 0.0
C723 C 0.67508 0.93485 0.05484 0.0
C724 C 0.64727 0.96483 0.08158 0.0
C725 C 0.65288 0.96096 0.22096 0.0
C726 C 0.62376 0.9653 0.09409 0.0
C727 C 0.61039 0.98232 0.07832 0.0
C728 C 0.6203 0.99905 0.0494 0.0
C729 C 0.64384 0.99843 0.0367 0.0
C730 C 0.65718 0.98147 0.05267 0.0
H731 H 0.66005 0.96037 0.26985 0.0
H732 H 0.65245 0.97813 0.21261 0.0
H733 H 0.63504 0.95502 0.22035 0.0
H734 H 0.61579 0.95254 0.11604 0.0
H735 H 0.5922 0.98215 0.08749 0.0
H736 H 0.57825 0.70867 0.08708 0.0
H737 H 0.56361 0.67775 0.01352 0.0
H738 H 0.50381 0.71468 0.978 0.0
H739 H 0.51836 0.7458 0.05295 0.0
H740 H 0.49371 0.67463 0.01336 0.0
H741 H 0.55784 0.66501 0.81765 0.0
H742 H 0.57132 0.66769 0.89539 0.0
H743 H 0.55472 0.68986 0.87371 0.0
C744 C 0.56213 0.7103 0.06288 0.0
C745 C 0.54937 0.72953 0.07577 0.0
C746 C 0.55389 0.69271 0.02041 0.0
C747 C 0.53278 0.69403 0.98966 0.0
C748 C 0.52025 0.71344 1.00087 0.0
H749 H 0.50499 0.57172 0.74178 0.0
H750 H 0.50421 0.61083 0.77652 0.0
C751 C 0.52859 0.73118 0.04332 0.0
C752 C 0.52315 0.67429 0.95131 0.0
H753 H 0.53821 0.63219 0.83584 0.0
C754 C 0.50309 0.66554 0.97343 0.0
C755 C 0.53514 0.66266 0.8985 0.0
C756 C 0.55581 0.67192 0.8695 0.0
C757 C 0.49576 0.64465 0.94749 0.0
C758 C 0.50912 0.63212 0.89926 0.0
C759 C 0.52811 0.64162 0.87359 0.0
C760 C 0.50521 0.60863 0.87882 0.0
C761 C 0.4741 0.63605 0.97315 0.0
C762 C 0.50547 0.59434 0.92484 0.0
C763 C 0.50571 0.57192 0.90515 0.0
C764 C 0.50613 0.56345 0.83906 0.0
C765 C 0.50482 0.57776 0.79314 0.0
C766 C 0.50433 0.60013 0.81286 0.0
H767 H 0.46193 0.64944 0.98958 0.0
H768 H 0.46561 0.62412 0.93607 0.0
H769 H 0.47822 0.62799 0.01559 0.0
H770 H 0.50679 0.60049 0.97595 0.0
H771 H 0.50691 0.56132 0.94159 0.0
H772 H 0.80255 0.583 0.35384 0.0
H773 H 0.83625 0.59039 0.29168 0.0
H774 H 0.8088 0.55007 0.12381 0.0
H775 H 0.77544 0.5429 0.18483 0.0
H776 H 0.8602 0.55523 0.26344 0.0
H777 H 0.84927 0.58719 0.0352 0.0
H778 H 0.82848 0.59231 0.09967 0.0
H779 H 0.82685 0.56811 0.04042 0.0
C780 C 0.80324 0.57667 0.30271 0.0
C781 C 0.7867 0.56188 0.27467 0.0
C782 C 0.82246 0.58098 0.26714 0.0
C783 C 0.82528 0.57056 0.20324 0.0
C784 C 0.80703 0.55859 0.17262 0.0
H785 H 0.89919 0.47948 0.97728 0.0
H786 H 0.87424 0.50813 0.03134 0.0
C787 C 0.78783 0.55437 0.20797 0.0
C788 C 0.84849 0.56626 0.17605 0.0
H789 H 0.87511 0.55476 0.02984 0.0
C790 C 0.86394 0.55594 0.21298 0.0
C791 C 0.85349 0.56717 0.11037 0.0
C792 C 0.83866 0.57954 0.06959 0.0
C793 C 0.88258 0.54416 0.18413 0.0
C794 C 0.88603 0.54306 0.11684 0.0
C795 C 0.87212 0.55534 0.0813 0.0
C796 C 0.90165 0.52684 0.0815 0.0
C797 C 0.89707 0.5313 0.22461 0.0
C798 C 0.92525 0.52792 0.09209 0.0
C799 C 0.93946 0.51143 0.06199 0.0
C800 C 0.9303 0.49373 0.02034 0.0
C801 C 0.90668 0.49289 0.00919 0.0
C802 C 0.89248 0.5093 0.03963 0.0
H803 H 0.89031 0.53188 0.27453 0.0
H804 H 0.89812 0.51408 0.2017 0.0
H805 H 0.91464 0.53795 0.22798 0.0
H806 H 0.93264 0.54146 0.1237 0.0
H807 H 0.95768 0.51273 0.07027 0.0
H808 H 0.01862 0.24 0.03636 0.0
H809 H 0.01522 0.20762 0.9546 0.0
H810 H 0.08527 0.19116 0.98762 0.0
H811 H 0.0887 0.2236 0.06879 0.0
H812 H 0.06772 0.17675 0.85414 0.0
H813 H 0.01443 0.1538 0.05382 0.0
H814 H 1.00588 0.17792 0.02256 0.0
H815 H 0.03255 0.17739 0.0645 0.0
C816 C 0.03366 0.2302 0.02307 0.0
C817 C 0.05398 0.23434 0.05821 0.0
C818 C 0.03164 0.21156 0.97701 0.0
C819 C 0.04987 0.1968 0.96604 0.0
C820 C 0.07101 0.20234 0.99532 0.0
H821 H 0.04845 0.05769 0.90811 0.0
H822 H 0.05423 0.09644 0.94299 0.0
C823 C 0.07303 0.22099 0.04126 0.0
C824 C 0.04583 0.17412 0.93524 0.0
H825 H 0.01993 0.12736 0.96297 0.0
C826 C 0.0571 0.16596 0.8774 0.0
C827 C 0.03235 0.15998 0.9666 0.0
C828 C 0.02072 0.16756 0.03055 0.0
C829 C 0.05521 0.14398 0.85006 0.0
C830 C 0.04162 0.12992 0.88139 0.0
C831 C 0.03028 0.13817 0.93895 0.0
C832 C 0.03949 0.10637 0.85714 0.0
C833 C 0.06832 0.13581 0.78914 0.0
C834 C 0.02929 0.09903 0.79719 0.0
C835 C 0.02593 0.07682 0.77703 0.0
C836 C 0.03261 0.06152 0.81666 0.0
C837 C 0.04307 0.06896 0.87634 0.0
C838 C 0.04641 0.09113 0.89638 0.0
H839 H 0.0818 0.14738 0.77919 0.0
H840 H 0.07638 0.11988 0.79244 0.0
H841 H 0.05639 0.13361 0.7475 0.0
H842 H 0.02341 0.11049 0.76666 0.0
H843 H 0.01776 0.07171 0.73084 0.0
H844 H 0.30106 0.96141 0.13451 0.0
H845 H 0.33328 0.96412 0.06159 0.0
H846 H 0.32122 0.03276 0.07305 0.0
H847 H 0.2887 0.03005 0.14633 0.0
H848 H 0.33582 0.00959 0.94336 0.0
H849 H 0.39208 0.99407 0.14511 0.0
H850 H 0.36998 0.97434 0.12446 0.0
H851 H 0.36249 0.00174 0.15713 0.0
C852 C 0.30484 0.97698 0.11996 0.0
C853 C 0.29229 0.99551 0.14609 0.0
C854 C 0.32339 0.97854 0.07864 0.0
C855 C 0.33 0.9987 0.06262 0.0
C856 C 0.31651 0.01703 0.08481 0.0
H857 H 0.46846 0.02805 0.95075 0.0
H858 H 0.43086 0.02763 1.00096 0.0
C859 C 0.29782 0.01545 0.1263 0.0
C860 C 0.35207 0.00074 0.02788 0.0
H861 H 0.40975 0.99474 0.04378 0.0
C862 C 0.352 0.00642 0.9653 0.0
C863 C 0.37326 0.99685 0.05666 0.0
C864 C 0.37462 0.99159 0.12474 0.0
C865 C 0.37249 0.00791 0.93046 0.0
C866 C 0.39367 0.0034 0.95865 0.0
C867 C 0.39364 0.99808 0.02168 0.0
C868 C 0.41615 0.0045 0.92481 0.0
C869 C 0.37126 0.01466 0.86423 0.0
C870 C 0.42069 0.99164 0.86487 0.0
C871 C 0.4423 0.99193 0.83564 0.0
C872 C 0.46003 0.00492 0.86596 0.0
C873 C 0.45536 0.01784 0.92575 0.0
C874 C 0.43377 0.01761 0.95469 0.0
H875 H 0.35505 0.02329 0.85727 0.0
H876 H 0.38576 0.02536 0.85608 0.0
H877 H 0.37206 0.0 0.82699 0.0
H878 H 0.40771 0.98094 0.8413 0.0
H879 H 0.44525 0.98157 0.78998 0.0
H880 H 0.5286 0.25758 0.23638 0.0
H881 H 0.51961 0.28066 0.15513 0.0
H882 H 0.4485 0.26371 0.16492 0.0
H883 H 0.4575 0.2409 0.24787 0.0
H884 H 0.49794 0.27924 0.03674 0.0
H885 H 0.44862 0.32829 0.23499 0.0
H886 H 0.46655 0.30594 0.24891 0.0
H887 H 0.43912 0.30091 0.21133 0.0
C888 C 0.51119 0.2581 0.21919 0.0
C889 C 0.49372 0.24756 0.24833 0.0
C890 C 0.50603 0.27137 0.17301 0.0
C891 C 0.4833 0.27439 0.15527 0.0
C892 C 0.4661 0.26198 0.17901 0.0
H893 H 0.43843 0.38779 0.98206 0.0
H894 H 0.43794 0.35235 0.01915 0.0
C895 C 0.47128 0.24869 0.22559 0.0
C896 C 0.47773 0.29256 0.11933 0.0
H897 H 0.45379 0.34317 0.13985 0.0
C898 C 0.48798 0.29307 0.05881 0.0
C899 C 0.46486 0.31073 0.14839 0.0
C900 C 0.45427 0.31165 0.21466 0.0
C901 C 0.48625 0.31145 0.0275 0.0
C902 C 0.47418 0.32987 0.05785 0.0
C903 C 0.46302 0.329 0.11676 0.0
C904 C 0.47448 0.35082 0.03224 0.0
C905 C 0.4977 0.31116 0.96273 0.0
C906 C 0.49513 0.36188 0.02838 0.0
C907 C 0.49546 0.38225 0.00815 0.0
C908 C 0.47511 0.39205 0.99131 0.0
C909 C 0.4544 0.3809 0.99534 0.0
C910 C 0.45409 0.36054 0.01595 0.0
H911 H 0.50032 0.29433 0.93772 0.0
H912 H 0.48751 0.32027 0.93093 0.0
H913 H 0.51468 0.31897 0.97008 0.0
H914 H 0.511 0.35496 0.04242 0.0
H915 H 0.51166 0.39049 0.00701 0.0
H916 H 0.25396 0.4807 0.15481 0.0
H917 H 0.22221 0.4733 0.07745 0.0
H918 H 0.22106 0.54064 0.05234 0.0
H919 H 0.25252 0.54801 0.12897 0.0
H920 H 0.17886 0.5252 0.08948 0.0
H921 H 0.21498 0.47096 0.87836 0.0
H922 H 0.22045 0.46329 0.95656 0.0
H923 H 0.23267 0.48776 0.93626 0.0
C924 C 0.2474 0.49373 0.13108 0.0
C925 C 0.25576 0.51494 0.14803 0.0
C926 C 0.22919 0.48952 0.087 0.0
C927 C 0.21915 0.50643 0.05888 0.0
C928 C 0.22839 0.52732 0.07329 0.0
H929 H 0.10915 0.51153 0.77709 0.0
H930 H 0.14598 0.51355 0.83378 0.0
C931 C 0.24646 0.5315 0.117 0.0
C932 C 0.19772 0.50314 0.0197 0.0
H933 H 0.17502 0.47727 0.87793 0.0
C934 C 0.17807 0.51469 0.04325 0.0
C935 C 0.19663 0.48957 0.95909 0.0
C936 C 0.2173 0.47726 0.93052 0.0
C937 C 0.15746 0.51296 0.00839 0.0
C938 C 0.15625 0.49921 0.9482 0.0
C939 C 0.17591 0.48776 0.92414 0.0
C940 C 0.1345 0.49648 0.91058 0.0
C941 C 0.13709 0.52606 0.03592 0.0
C942 C 0.11587 0.4859 0.93414 0.0
C943 C 0.09486 0.48464 0.90186 0.0
C944 C 0.09183 0.494 0.84506 0.0
C945 C 0.11074 0.50415 0.8206 0.0
C946 C 0.13186 0.50528 0.8529 0.0
H947 H 0.14191 0.5389 0.07631 0.0
H948 H 0.12849 0.53375 0.99779 0.0
H949 H 0.12461 0.51515 0.0546 0.0
H950 H 0.1175 0.47887 0.97828 0.0
H951 H 0.08085 0.47664 0.92238 0.0
H952 H 0.95962 0.77567 0.39779 0.0
H953 H 0.95854 0.80767 0.48113 0.0
H954 H 0.01404 0.78155 0.58092 0.0
H955 H 0.01525 0.74952 0.49696 0.0
H956 H 0.95774 0.8194 0.62245 0.0
H957 H 0.04064 0.83481 0.50728 0.0
H958 H 0.02128 0.81392 0.47193 0.0
H959 H 0.03855 0.80984 0.54004 0.0
C960 C 0.97077 0.77626 0.43934 0.0
C961 C 0.98747 0.76016 0.44123 0.0
C962 C 0.97025 0.79462 0.48671 0.0
C963 C 0.98652 0.79718 0.53642 0.0
C964 C 1.00149 0.77996 0.54249 0.0
H965 H 0.03593 0.91957 0.747 0.0
H966 H 0.02935 0.88104 0.71066 0.0
C967 C 1.00199 0.76155 0.49504 0.0
C968 C 0.9902 0.81904 0.57411 0.0
H969 H 0.02686 0.86195 0.58742 0.0
C970 C 0.97294 0.82866 0.61547 0.0
C971 C 1.00996 0.83117 0.56431 0.0
C972 C 0.02864 0.82207 0.51817 0.0
C973 C 0.97495 0.85011 0.64739 0.0
C974 C 0.99451 0.86238 0.63642 0.0
C975 C 1.01191 0.85256 0.59601 0.0
C976 C 0.99713 0.88566 0.66407 0.0
C977 C 0.95618 0.85937 0.69275 0.0
C978 C 0.98118 0.90119 0.65023 0.0
C979 C 0.98486 0.92331 0.67115 0.0
C980 C 1.00475 0.93037 0.70554 0.0
C981 C 0.02051 0.91475 0.72015 0.0
C982 C 0.01674 0.89267 0.69961 0.0
H983 H 0.94641 0.84635 0.71136 0.0
H984 H 0.96311 0.87055 0.73447 0.0
H985 H 0.94411 0.86858 0.66626 0.0
H986 H 0.9662 0.89627 0.62148 0.0
H987 H 0.97241 0.93489 0.65883 0.0
H988 H 0.75539 0.00842 0.3966 0.0
H989 H 0.72274 0.01866 0.46871 0.0
H990 H 0.73401 0.96198 0.56006 0.0
H991 H 0.7666 0.95195 0.48863 0.0
H992 H 0.68481 0.99371 0.46597 0.0
H993 H 0.71844 0.00631 0.71576 0.0
H994 H 0.7366 0.0063 0.64591 0.0
H995 H 0.72781 0.98111 0.67047 0.0
C996 C 0.75159 0.99881 0.43439 0.0
C997 C 0.76391 0.97968 0.43807 0.0
C998 C 0.73271 0.00448 0.47501 0.0
C999 C 0.72586 0.99121 0.52044 0.0
C1000 C 0.7391 0.97282 0.52675 0.0
H1001 H 0.58846 0.96757 0.64763 0.0
H1002 H 0.62606 0.9668 0.59658 0.0
C1003 C 0.75787 0.96713 0.48606 0.0
C1004 C 0.70347 0.99489 0.55512 0.0
H1005 H 0.67824 0.9991 0.70439 0.0
C1006 C 0.68345 0.99515 0.51819 0.0
C1007 C 0.7015 0.9969 0.62335 0.0
C1008 C 0.72225 0.99786 0.66625 0.0
C1009 C 0.66167 0.99664 0.54713 0.0
C1010 C 0.65964 0.99756 0.61505 0.0
C1011 C 0.67967 0.99809 0.65229 0.0
C1012 C 0.63691 0.99779 0.64798 0.0
C1013 C 0.64099 0.9973 0.50451 0.0
C1014 C 0.63055 0.01514 0.6956 0.0
C1015 C 0.60899 0.0156 0.72524 0.0
C1016 C 0.59328 0.99861 0.70839 0.0
C1017 C 0.59994 0.98102 0.66174 0.0
C1018 C 0.62146 0.98061 0.63207 0.0
H1019 H 0.64548 0.00261 0.45766 0.0
H1020 H 0.63358 0.9808 0.49388 0.0
H1021 H 0.62773 0.0084 0.52881 0.0
H1022 H 0.64216 0.02853 0.70916 0.0
H1023 H 0.60461 0.02938 0.76109 0.0
H1024 H 0.60502 0.73089 0.25849 0.0
H1025 H 0.60668 0.70878 0.3454 0.0
H1026 H 0.55071 0.74536 0.44198 0.0
H1027 H 0.54866 0.76721 0.35344 0.0
H1028 H 0.61057 0.71255 0.47722 0.0
H1029 H 0.5234 0.6853 0.39674 0.0
H1030 H 0.54047 0.70224 0.35295 0.0
H1031 H 0.52625 0.71369 0.42645 0.0
C1032 C 0.59368 0.73475 0.29959 0.0
C1033 C 0.57669 0.75066 0.29939 0.0
C1034 C 0.59454 0.72205 0.34911 0.0
C1035 C 0.5784 0.72499 0.39929 0.0
C1036 C 0.56299 0.74247 0.40288 0.0
H1037 H 0.54781 0.62426 0.64101 0.0
H1038 H 0.54916 0.65959 0.60336 0.0
C1039 C 0.56205 0.75517 0.35293 0.0
C1040 C 0.57614 0.70803 0.44194 0.0
H1041 H 0.54122 0.66689 0.47258 0.0
C1042 C 0.59528 0.70278 0.47701 0.0
C1043 C 0.55623 0.69512 0.44126 0.0
C1044 C 0.53546 0.69917 0.40201 0.0
C1045 C 0.59527 0.68466 0.50974 0.0
C1046 C 0.57568 0.67137 0.50697 0.0
C1047 C 0.55619 0.67716 0.47462 0.0
C1048 C 0.57564 0.65039 0.53242 0.0
C1049 C 0.61637 0.67961 0.54599 0.0
C1050 C 0.58986 0.63342 0.50436 0.0
C1051 C 0.58889 0.61312 0.52493 0.0
C1052 C 0.57368 0.60932 0.57417 0.0
C1053 C 0.55951 0.62645 0.6024 0.0
C1054 C 0.56039 0.64674 0.58141 0.0
H1055 H 0.6273 0.69416 0.55846 0.0
H1056 H 0.61181 0.67322 0.59114 0.0
H1057 H 0.62652 0.66704 0.5151 0.0
H1058 H 0.60136 0.63573 0.46537 0.0
H1059 H 0.59973 0.60027 0.50109 0.0
H1060 H 0.78394 0.54336 0.51643 0.0
H1061 H 0.81743 0.53446 0.57748 0.0
H1062 H 0.82839 0.47678 0.43932 0.0
H1063 H 0.79488 0.48583 0.37783 0.0
H1064 H 0.83429 0.49939 0.63512 0.0
H1065 H 0.88599 0.51309 0.422 0.0
H1066 H 0.85612 0.52007 0.42976 0.0
H1067 H 0.86468 0.49234 0.40606 0.0
C1068 C 0.79288 0.52826 0.50081 0.0
C1069 C 0.78655 0.5151 0.44296 0.0
C1070 C 0.8122 0.52329 0.53534 0.0
C1071 C 0.8258 0.50519 0.51238 0.0
C1072 C 0.81842 0.49103 0.45754 0.0
H1073 H 0.94861 0.4669 0.71141 0.0
H1074 H 0.91065 0.46791 0.66336 0.0
C1075 C 0.799 0.49598 0.42302 0.0
C1076 C 0.84865 0.5025 0.54222 0.0
H1077 H 0.906 0.50363 0.5114 0.0
C1078 C 0.84997 0.50014 0.60795 0.0
C1079 C 0.8692 0.50396 0.50727 0.0
C1080 C 0.86908 0.5077 0.43755 0.0
C1081 C 0.87116 0.49909 0.63942 0.0
C1082 C 0.8917 0.50021 0.60415 0.0
C1083 C 0.89034 0.50261 0.53848 0.0
C1084 C 0.91477 0.49961 0.63467 0.0
C1085 C 0.87134 0.49749 0.71072 0.0
C1086 C 0.93011 0.51686 0.63368 0.0
C1087 C 0.95195 0.51629 0.66088 0.0
C1088 C 0.95914 0.49835 0.68945 0.0
C1089 C 0.94375 0.48105 0.69022 0.0
C1090 C 0.92189 0.48165 0.66304 0.0
H1091 H 0.85469 0.50237 0.73398 0.0
H1092 H 0.87476 0.48045 0.71723 0.0
H1093 H 0.88494 0.50782 0.7361 0.0
H1094 H 0.92514 0.53087 0.61193 0.0
H1095 H 0.96325 0.5299 0.6591 0.0
loop_
_geom_bond_atom_site_label_1
_geom_bond_atom_site_label_2
_geom_bond_distance
_geom_bond_site_symmetry_2
_ccdc_geom_bond_type
H0 C3 0.931 . S
H1 C6 0.928 . S
H2 C8 0.930 . S
C3 H0 0.931 . S
C3 C4 1.413 . S
C3 C5 1.360 . S
C4 C3 1.413 . S
C4 C8 1.429 . S
C5 C3 1.360 . S
C5 C6 1.372 . S
C6 H1 0.928 . S
C6 C5 1.372 . S
C6 C7 1.404 . S
C7 C6 1.404 . S
C7 C8 1.391 . S
C8 H2 0.930 . S
C8 C4 1.429 . S
C8 C7 1.391 . S
H9 C12 0.931 . S
H10 C15 0.928 . S
H11 C17 0.930 . S
C12 H9 0.931 . S
C12 C13 1.413 . S
C12 C14 1.360 . S
C13 C12 1.413 . S
C13 C17 1.429 . S
C14 C12 1.360 . S
C14 C15 1.372 . S
C15 H10 0.928 . S
C15 C14 1.372 . S
C15 C16 1.404 . S
C16 C15 1.404 . S
C16 C17 1.391 . S
C17 H11 0.930 . S
C17 C13 1.429 . S
C17 C16 1.391 . S
H18 C21 0.930 . S
H19 C24 0.928 . S
H20 C26 0.933 . S
C21 H18 0.930 . S
C21 C22 1.414 . S
C21 C23 1.360 . S
C22 C21 1.414 . S
C22 C26 1.429 1_565 S
C23 C21 1.360 . S
C23 C24 1.372 . S
C24 H19 0.928 . S
C24 C23 1.372 . S
C24 C25 1.403 . S
C25 C24 1.403 . S
C25 C26 1.392 1_565 S
C26 H20 0.933 . S
C26 C22 1.429 1_545 S
C26 C25 1.392 1_545 S
H27 C30 0.931 . S
H28 C33 0.928 . S
H29 C35 0.930 . S
C30 H27 0.931 . S
C30 C31 1.413 1_554 S
C30 C32 1.360 . S
C31 C30 1.413 1_556 S
C31 C35 1.429 . S
C32 C30 1.360 . S
C32 C33 1.372 . S
C33 H28 0.928 . S
C33 C32 1.372 . S
C33 C34 1.404 1_554 S
C34 C33 1.404 1_556 S
C34 C35 1.391 . S
C35 H29 0.930 . S
C35 C31 1.429 . S
C35 C34 1.391 . S
H36 C39 0.931 . S
H37 C42 0.928 . S
H38 C44 0.930 . S
C39 H36 0.931 . S
C39 C40 1.413 . S
C39 C41 1.360 . S
C40 C39 1.413 . S
C40 C44 1.429 . S
C41 C39 1.360 . S
C41 C42 1.372 . S
C42 H37 0.928 . S
C42 C41 1.372 . S
C42 C43 1.404 . S
C43 C42 1.404 . S
C43 C44 1.391 . S
C44 H38 0.930 . S
C44 C40 1.429 . S
C44 C43 1.391 . S
H45 C48 0.931 . S
H46 C51 0.928 . S
H47 C53 0.930 . S
C48 H45 0.931 . S
C48 C49 1.413 . S
C48 C50 1.360 . S
C49 C48 1.413 . S
C49 C53 1.429 . S
C50 C48 1.360 . S
C50 C51 1.372 . S
C51 H46 0.928 . S
C51 C50 1.372 . S
C51 C52 1.404 . S
C52 C51 1.404 . S
C52 C53 1.391 . S
C53 H47 0.930 . S
C53 C49 1.429 . S
C53 C52 1.391 . S
H54 C57 0.931 . S
H55 C60 0.928 . S
H56 C62 0.927 . S
C57 H54 0.931 . S
C57 C58 1.412 . S
C57 C59 1.360 . S
C58 C57 1.412 . S
C58 C62 1.429 1_565 S
C59 C57 1.360 . S
C59 C60 1.372 . S
C60 H55 0.928 . S
C60 C59 1.372 . S
C60 C61 1.404 . S
C61 C60 1.404 . S
C61 C62 1.389 1_565 S
C62 H56 0.927 . S
C62 C58 1.429 1_545 S
C62 C61 1.389 1_545 S
H63 C66 0.931 . S
H64 C69 0.928 . S
H65 C71 0.930 . S
C66 H63 0.931 . S
C66 C67 1.413 . S
C66 C68 1.360 . S
C67 C66 1.413 . S
C67 C71 1.429 . S
C68 C66 1.360 . S
C68 C69 1.372 . S
C69 H64 0.928 . S
C69 C68 1.372 . S
C69 C70 1.404 . S
C70 C69 1.404 . S
C70 C71 1.391 . S
C71 H65 0.930 . S
C71 C67 1.429 . S
C71 C70 1.391 . S
Tb72 C81 2.764 . S
Tb72 O82 2.325 1_655 S
Tb72 O85 2.303 1_655 S
Tb72 O89 2.322 1_545 S
Tb72 O90 2.349 . S
Tb72 O93 2.415 1_655 S
Tb72 O94 2.399 . S
Tb73 O83 2.322 1_565 S
Tb73 O84 2.349 . S
Tb73 O86 2.415 . S
Tb73 O87 2.399 . S
Tb73 O88 2.325 . S
Tb73 O91 2.303 1_455 S
Tb73 C102 2.764 . S
C74 O90 1.261 . S
C74 O91 1.257 1_545 S
C75 C78 1.358 . S
C75 C79 1.332 1_655 S
C75 C81 1.504 . S
C76 C77 1.373 . S
C76 C80 1.308 1_655 S
C77 C76 1.373 . S
C77 C78 1.429 . S
C77 H104 0.932 . S
C78 C75 1.358 . S
C78 C77 1.429 . S
C78 H105 0.930 . S
C79 C75 1.332 1_455 S
C79 C80 1.394 . S
C79 H106 0.932 . S
C80 C76 1.308 1_455 S
C80 C79 1.394 . S
C80 H107 0.929 . S
C81 Tb72 2.764 . S
C81 C75 1.504 . S
C81 O93 1.239 1_655 S
C81 O94 1.263 . S
O82 Tb72 2.325 1_455 S
O82 C92 1.236 . S
O83 Tb73 2.322 1_545 S
O83 C92 1.257 . S
O84 Tb73 2.349 . S
O84 C95 1.261 . S
O85 Tb72 2.303 1_455 S
O85 C95 1.257 1_545 S
O86 Tb73 2.415 . S
O86 C102 1.239 . S
O87 Tb73 2.399 . S
O87 C102 1.263 . S
O88 Tb73 2.325 . S
O88 C103 1.227 1_455 S
O89 Tb72 2.322 1_565 S
O89 C103 1.262 . S
O90 Tb72 2.349 . S
O90 C74 1.261 . S
O91 Tb73 2.303 1_655 S
O91 C74 1.257 1_565 S
C92 O82 1.236 . S
C92 O83 1.257 . S
O93 Tb72 2.415 1_455 S
O93 C81 1.239 1_455 S
O94 Tb72 2.399 . S
O94 C81 1.263 . S
C95 O84 1.261 . S
C95 O85 1.257 1_565 S
C96 C99 1.358 . S
C96 C100 1.332 . S
C96 C102 1.504 . S
C97 C98 1.373 . S
C97 C101 1.308 . S
C98 C97 1.373 . S
C98 C99 1.429 . S
C98 H108 0.932 . S
C99 C96 1.358 . S
C99 C98 1.429 . S
C99 H109 0.930 . S
C100 C96 1.332 . S
C100 C101 1.394 . S
C100 H110 0.954 . S
C101 C97 1.308 . S
C101 C100 1.394 . S
C101 H111 0.929 . S
C102 Tb73 2.764 . S
C102 O86 1.239 . S
C102 O87 1.263 . S
C102 C96 1.504 . S
C103 O88 1.227 1_655 S
C103 O89 1.262 . S
H104 C77 0.932 . S
H105 C78 0.930 . S
H106 C79 0.932 . S
H107 C80 0.929 . S
H108 C98 0.932 . S
H109 C99 0.930 . S
H110 C100 0.954 . S
H111 C101 0.929 . S
Tb112 C121 2.764 . S
Tb112 O122 2.325 . S
Tb112 O125 2.303 1_565 S
Tb112 O129 2.322 . S
Tb112 O130 2.349 . S
Tb112 O133 2.415 1_565 S
Tb112 O134 2.399 . S
Tb113 O123 2.322 . S
Tb113 O124 2.349 . S
Tb113 O126 2.415 1_545 S
Tb113 O127 2.399 . S
Tb113 O128 2.325 . S
Tb113 O131 2.303 1_545 S
Tb113 C142 2.764 . S
C114 O130 1.261 . S
C114 O131 1.257 . S
C115 C118 1.358 . S
C115 C119 1.328 . S
C115 C121 1.504 . S
C116 C117 1.373 . S
C116 C120 1.308 . S
C117 C116 1.373 . S
C117 C118 1.429 . S
C117 H144 0.932 . S
C118 C115 1.358 . S
C118 C117 1.429 . S
C118 H145 0.930 . S
C119 C115 1.328 . S
C119 C120 1.394 . S
C119 H146 0.936 1_565 S
C120 C116 1.308 . S
C120 C119 1.394 . S
C120 H147 0.929 1_565 S
C121 Tb112 2.764 . S
C121 C115 1.504 . S
C121 O133 1.239 1_565 S
C121 O134 1.263 . S
O122 Tb112 2.325 . S
O122 C132 1.236 1_565 S
O123 Tb113 2.322 . S
O123 C132 1.257 . S
O124 Tb113 2.349 . S
O124 C135 1.261 . S
O125 Tb112 2.303 1_545 S
O125 C135 1.257 . S
O126 Tb113 2.415 1_565 S
O126 C142 1.239 1_565 S
O127 Tb113 2.399 . S
O127 C142 1.263 . S
O128 Tb113 2.325 . S
O128 C143 1.236 1_545 S
O129 Tb112 2.322 . S
O129 C143 1.257 . S
O130 Tb112 2.349 . S
O130 C114 1.261 . S
O131 Tb113 2.303 1_565 S
O131 C114 1.257 . S
C132 O122 1.236 1_545 S
C132 O123 1.257 . S
O133 Tb112 2.415 1_545 S
O133 C121 1.239 1_545 S
O134 Tb112 2.399 . S
O134 C121 1.263 . S
C135 O124 1.261 . S
C135 O125 1.257 . S
C136 C139 1.358 . S
C136 C140 1.338 . S
C136 C142 1.504 . S
C137 C138 1.373 . S
C137 C141 1.308 1_554 S
C138 C137 1.373 . S
C138 C139 1.429 1_554 S
C138 H148 0.932 . S
C139 C136 1.358 . S
C139 C138 1.429 1_556 S
C139 H149 0.930 . S
C140 C136 1.338 . S
C140 C141 1.394 . S
C140 H150 0.926 1_545 S
C141 C137 1.308 1_556 S
C141 C140 1.394 . S
C141 H151 0.929 1_545 S
C142 Tb113 2.764 . S
C142 O126 1.239 1_545 S
C142 O127 1.263 . S
C142 C136 1.504 . S
C143 O128 1.236 1_565 S
C143 O129 1.257 . S
H144 C117 0.932 . S
H145 C118 0.930 . S
H146 C119 0.936 1_545 S
H147 C120 0.929 1_545 S
H148 C138 0.932 . S
H149 C139 0.930 . S
H150 C140 0.926 1_565 S
H151 C141 0.929 1_565 S
Tb152 C161 2.764 . S
Tb152 O162 2.325 . S
Tb152 O165 2.303 . S
Tb152 O169 2.322 . S
Tb152 O170 2.349 . S
Tb152 O173 2.415 . S
Tb152 O174 2.399 . S
Tb153 O163 2.322 . S
Tb153 O164 2.349 . S
Tb153 O166 2.415 . S
Tb153 O167 2.399 . S
Tb153 O168 2.325 . S
Tb153 O171 2.303 . S
Tb153 C182 2.764 . S
C154 O170 1.261 . S
C154 O171 1.257 . S
C155 C158 1.358 . S
C155 C159 1.332 . S
C155 C161 1.504 . S
C156 C157 1.373 . S
C156 C160 1.308 . S
C157 C156 1.373 . S
C157 C158 1.429 1_554 S
C157 H184 0.932 . S
C158 C155 1.358 . S
C158 C157 1.429 1_556 S
C158 H185 0.930 . S
C159 C155 1.332 . S
C159 C160 1.394 1_556 S
C159 H186 0.932 . S
C160 C156 1.308 . S
C160 C159 1.394 1_554 S
C160 H187 0.929 . S
C161 Tb152 2.764 . S
C161 C155 1.504 . S
C161 O173 1.239 . S
C161 O174 1.263 . S
O162 Tb152 2.325 . S
O162 C172 1.236 . S
O163 Tb153 2.322 . S
O163 C172 1.257 . S
O164 Tb153 2.349 . S
O164 C175 1.261 . S
O165 Tb152 2.303 . S
O165 C175 1.257 . S
O166 Tb153 2.415 . S
O166 C182 1.239 . S
O167 Tb153 2.399 . S
O167 C182 1.263 . S
O168 Tb153 2.325 . S
O168 C183 1.236 . S
O169 Tb152 2.322 . S
O169 C183 1.257 . S
O170 Tb152 2.349 . S
O170 C154 1.261 . S
O171 Tb153 2.303 . S
O171 C154 1.257 . S
C172 O162 1.236 . S
C172 O163 1.257 . S
O173 Tb152 2.415 . S
O173 C161 1.239 . S
O174 Tb152 2.399 . S
O174 C161 1.263 . S
C175 O164 1.261 . S
C175 O165 1.257 . S
C176 C179 1.358 . S
C176 C180 1.332 . S
C176 C182 1.504 . S
C177 C178 1.373 . S
C177 C181 1.308 . S
C178 C177 1.373 . S
C178 C179 1.429 . S
C178 H188 0.932 . S
C179 C176 1.358 . S
C179 C178 1.429 . S
C179 H189 0.930 . S
C180 C176 1.332 . S
C180 C181 1.394 . S
C180 H190 0.932 . S
C181 C177 1.308 . S
C181 C180 1.394 . S
C181 H191 0.929 . S
C182 Tb153 2.764 . S
C182 O166 1.239 . S
C182 O167 1.263 . S
C182 C176 1.504 . S
C183 O168 1.236 . S
C183 O169 1.257 . S
H184 C157 0.932 . S
H185 C158 0.930 . S
H186 C159 0.932 . S
H187 C160 0.929 . S
H188 C178 0.932 . S
H189 C179 0.930 . S
H190 C180 0.932 . S
H191 C181 0.929 . S
Tb192 C201 2.764 . S
Tb192 O202 2.325 . S
Tb192 O205 2.303 . S
Tb192 O209 2.322 1_455 S
Tb192 O210 2.349 . S
Tb192 O213 2.415 . S
Tb192 O214 2.399 . S
Tb193 O203 2.322 1_655 S
Tb193 O204 2.349 1_655 S
Tb193 O206 2.415 . S
Tb193 O207 2.399 . S
Tb193 O208 2.325 . S
Tb193 O211 2.303 1_655 S
Tb193 C222 2.764 . S
C194 O210 1.261 . S
C194 O211 1.257 . S
C195 C198 1.358 . S
C195 C199 1.332 . S
C195 C201 1.504 . S
C196 C197 1.373 . S
C196 C200 1.308 . S
C197 C196 1.373 . S
C197 C198 1.429 . S
C197 H224 0.932 . S
C198 C195 1.358 . S
C198 C197 1.429 . S
C198 H225 0.930 . S
C199 C195 1.332 . S
C199 C200 1.394 . S
C199 H226 0.932 . S
C200 C196 1.308 . S
C200 C199 1.394 . S
C200 H227 0.929 . S
C201 Tb192 2.764 . S
C201 C195 1.504 . S
C201 O213 1.239 . S
C201 O214 1.263 . S
O202 Tb192 2.325 . S
O202 C212 1.236 . S
O203 Tb193 2.322 1_455 S
O203 C212 1.257 . S
O204 Tb193 2.349 1_455 S
O204 C215 1.261 . S
O205 Tb192 2.303 . S
O205 C215 1.257 . S
O206 Tb193 2.415 . S
O206 C222 1.239 . S
O207 Tb193 2.399 . S
O207 C222 1.263 . S
O208 Tb193 2.325 . S
O208 C223 1.236 . S
O209 Tb192 2.322 1_655 S
O209 C223 1.257 . S
O210 Tb192 2.349 . S
O210 C194 1.261 . S
O211 Tb193 2.303 1_455 S
O211 C194 1.257 . S
C212 O202 1.236 . S
C212 O203 1.257 . S
O213 Tb192 2.415 . S
O213 C201 1.239 . S
O214 Tb192 2.399 . S
O214 C201 1.263 . S
C215 O204 1.261 . S
C215 O205 1.257 . S
C216 C219 1.358 . S
C216 C220 1.332 . S
C216 C222 1.504 . S
C217 C218 1.373 . S
C217 C221 1.308 . S
C218 C217 1.373 . S
C218 C219 1.429 . S
C218 H228 0.932 . S
C219 C216 1.358 . S
C219 C218 1.429 . S
C219 H229 0.930 . S
C220 C216 1.332 . S
C220 C221 1.394 . S
C220 H230 0.932 . S
C221 C217 1.308 . S
C221 C220 1.394 . S
C221 H231 0.929 . S
C222 Tb193 2.764 . S
C222 O206 1.239 . S
C222 O207 1.263 . S
C222 C216 1.504 . S
C223 O208 1.236 . S
C223 O209 1.257 . S
H224 C197 0.932 . S
H225 C198 0.930 . S
H226 C199 0.932 . S
H227 C200 0.929 . S
H228 C218 0.932 . S
H229 C219 0.930 . S
H230 C220 0.932 . S
H231 C221 0.929 . S
H232 C240 0.929 . S
H233 C242 0.930 . S
H234 C244 0.930 . S
H235 C247 0.929 . S
H236 C250 0.930 . S
H237 C252 0.960 . S
H238 C252 0.960 . S
H239 C252 0.960 . S
C240 H232 0.929 . S
C240 C241 1.382 . S
C240 C242 1.384 . S
C241 C240 1.382 . S
C241 C247 1.386 1_565 S
C242 H233 0.930 . S
C242 C240 1.384 . S
C242 C243 1.388 . S
C243 C242 1.388 . S
C243 C244 1.379 1_565 S
C243 C248 1.493 . S
C244 H234 0.930 . S
C244 C243 1.379 1_545 S
C244 C247 1.386 . S
H245 C261 0.930 . S
H246 C262 0.931 . S
C247 H235 0.929 . S
C247 C241 1.386 1_545 S
C247 C244 1.386 . S
C248 C243 1.493 . S
C248 C250 1.392 1_565 S
C248 C251 1.407 . S
H249 C255 0.930 . S
C250 H236 0.930 . S
C250 C248 1.392 1_545 S
C250 C253 1.403 . S
C251 C248 1.407 . S
C251 C252 1.524 . S
C251 C255 1.400 . S
C252 H237 0.960 . S
C252 H238 0.960 . S
C252 H239 0.960 . S
C252 C251 1.524 . S
C253 C250 1.403 . S
C253 C254 1.392 . S
C253 C257 1.495 . S
C254 C253 1.392 . S
C254 C255 1.385 1_545 S
C254 C256 1.478 . S
C255 H249 0.930 . S
C255 C251 1.400 . S
C255 C254 1.385 1_565 S
C256 C254 1.478 . S
C256 C258 1.381 1_545 S
C256 C262 1.383 . S
C257 C253 1.495 . S
C257 H263 0.959 . S
C257 H264 0.961 . S
C257 H265 0.960 . S
C258 C256 1.381 1_565 S
C258 C259 1.394 . S
C258 H266 0.930 . S
C259 C258 1.394 . S
C259 C260 1.383 1_565 S
C259 H267 0.929 . S
C260 C259 1.383 1_545 S
C260 C261 1.377 . S
C261 H245 0.930 . S
C261 C260 1.377 . S
C261 C262 1.379 . S
C262 H246 0.931 . S
C262 C256 1.383 . S
C262 C261 1.379 . S
H263 C257 0.959 . S
H264 C257 0.961 . S
H265 C257 0.960 . S
H266 C258 0.930 . S
H267 C259 0.929 . S
H268 C276 0.929 . S
H269 C278 0.930 . S
H270 C280 0.930 . S
H271 C283 0.929 . S
H272 C286 0.930 . S
H273 C288 0.960 . S
H274 C288 0.960 . S
H275 C288 0.960 . S
C276 H268 0.929 . S
C276 C277 1.377 . S
C276 C278 1.384 . S
C277 C276 1.377 . S
C277 C283 1.390 . S
C278 H269 0.930 . S
C278 C276 1.384 . S
C278 C279 1.372 . S
C279 C278 1.372 . S
C279 C280 1.400 . S
C279 C284 1.490 . S
C280 H270 0.930 . S
C280 C279 1.400 . S
C280 C283 1.386 . S
H281 C297 0.930 . S
H282 C298 0.931 . S
C283 H271 0.929 . S
C283 C277 1.390 . S
C283 C280 1.386 . S
C284 C279 1.490 . S
C284 C286 1.395 . S
C284 C287 1.403 . S
H285 C291 0.930 . S
C286 H272 0.930 . S
C286 C284 1.395 . S
C286 C289 1.403 . S
C287 C284 1.403 . S
C287 C288 1.524 . S
C287 C291 1.400 . S
C288 H273 0.960 . S
C288 H274 0.960 . S
C288 H275 0.960 . S
C288 C287 1.524 . S
C289 C286 1.403 . S
C289 C290 1.392 . S
C289 C293 1.495 . S
C290 C289 1.392 . S
C290 C291 1.385 . S
C290 C292 1.478 . S
C291 H285 0.930 . S
C291 C287 1.400 . S
C291 C290 1.385 . S
C292 C290 1.478 . S
C292 C294 1.381 . S
C292 C298 1.383 . S
C293 C289 1.495 . S
C293 H299 0.959 . S
C293 H300 0.961 . S
C293 H301 0.960 . S
C294 C292 1.381 . S
C294 C295 1.394 . S
C294 H302 0.930 . S
C295 C294 1.394 . S
C295 C296 1.383 . S
C295 H303 0.929 . S
C296 C295 1.383 . S
C296 C297 1.377 . S
C297 H281 0.930 . S
C297 C296 1.377 . S
C297 C298 1.379 . S
C298 H282 0.931 . S
C298 C292 1.383 . S
C298 C297 1.379 . S
H299 C293 0.959 . S
H300 C293 0.961 . S
H301 C293 0.960 . S
H302 C294 0.930 . S
H303 C295 0.929 . S
H304 C312 0.929 . S
H305 C314 0.930 . S
H306 C316 0.930 . S
H307 C319 0.929 . S
H308 C322 0.930 . S
H309 C324 0.960 . S
H310 C324 0.960 . S
H311 C324 0.960 . S
C312 H304 0.929 . S
C312 C313 1.377 . S
C312 C314 1.384 . S
C313 C312 1.377 . S
C313 C319 1.390 . S
C314 H305 0.930 . S
C314 C312 1.384 . S
C314 C315 1.372 . S
C315 C314 1.372 . S
C315 C316 1.400 . S
C315 C320 1.490 . S
C316 H306 0.930 . S
C316 C315 1.400 . S
C316 C319 1.386 . S
H317 C333 0.930 . S
H318 C334 0.931 . S
C319 H307 0.929 . S
C319 C313 1.390 . S
C319 C316 1.386 . S
C320 C315 1.490 . S
C320 C322 1.395 . S
C320 C323 1.403 . S
H321 C327 0.930 . S
C322 H308 0.930 . S
C322 C320 1.395 . S
C322 C325 1.403 . S
C323 C320 1.403 . S
C323 C324 1.524 . S
C323 C327 1.400 . S
C324 H309 0.960 . S
C324 H310 0.960 . S
C324 H311 0.960 . S
C324 C323 1.524 . S
C325 C322 1.403 . S
C325 C326 1.392 . S
C325 C329 1.495 . S
C326 C325 1.392 . S
C326 C327 1.385 . S
C326 C328 1.478 . S
C327 H321 0.930 . S
C327 C323 1.400 . S
C327 C326 1.385 . S
C328 C326 1.478 . S
C328 C330 1.381 . S
C328 C334 1.383 . S
C329 C325 1.495 . S
C329 H335 0.959 . S
C329 H336 0.961 . S
C329 H337 0.960 . S
C330 C328 1.381 . S
C330 C331 1.394 . S
C330 H338 0.930 . S
C331 C330 1.394 . S
C331 C332 1.383 . S
C331 H339 0.929 . S
C332 C331 1.383 . S
C332 C333 1.377 . S
C333 H317 0.930 . S
C333 C332 1.377 . S
C333 C334 1.379 . S
C334 H318 0.931 . S
C334 C328 1.383 . S
C334 C333 1.379 . S
H335 C329 0.959 . S
H336 C329 0.961 . S
H337 C329 0.960 . S
H338 C330 0.930 . S
H339 C331 0.929 . S
H340 C348 0.929 . S
H341 C350 0.930 . S
H342 C352 0.930 . S
H343 C355 0.929 . S
H344 C358 0.930 1_655 S
H345 C360 0.960 . S
H346 C360 0.960 . S
H347 C360 0.960 . S
C348 H340 0.929 . S
C348 C349 1.377 . S
C348 C350 1.384 . S
C349 C348 1.377 . S
C349 C355 1.390 . S
C350 H341 0.930 . S
C350 C348 1.384 . S
C350 C351 1.372 . S
C351 C350 1.372 . S
C351 C352 1.400 . S
C351 C356 1.490 . S
C352 H342 0.930 . S
C352 C351 1.400 . S
C352 C355 1.386 . S
H353 C369 0.930 . S
H354 C370 0.931 . S
C355 H343 0.929 . S
C355 C349 1.390 . S
C355 C352 1.386 . S
C356 C351 1.490 . S
C356 C358 1.395 . S
C356 C359 1.403 . S
H357 C363 0.930 . S
C358 H344 0.930 1_455 S
C358 C356 1.395 . S
C358 C361 1.403 . S
C359 C356 1.403 . S
C359 C360 1.524 . S
C359 C363 1.400 . S
C360 H345 0.960 . S
C360 H346 0.960 . S
C360 H347 0.960 . S
C360 C359 1.524 . S
C361 C358 1.403 . S
C361 C362 1.392 . S
C361 C365 1.495 1_455 S
C362 C361 1.392 . S
C362 C363 1.385 . S
C362 C364 1.478 . S
C363 H357 0.930 . S
C363 C359 1.400 . S
C363 C362 1.385 . S
C364 C362 1.478 . S
C364 C366 1.381 . S
C364 C370 1.383 . S
C365 C361 1.495 1_655 S
C365 H371 0.959 . S
C365 H372 0.961 . S
C365 H373 0.960 . S
C366 C364 1.381 . S
C366 C367 1.394 . S
C366 H374 0.930 . S
C367 C366 1.394 . S
C367 C368 1.383 . S
C367 H375 0.929 . S
C368 C367 1.383 . S
C368 C369 1.377 . S
C369 H353 0.930 . S
C369 C368 1.377 . S
C369 C370 1.379 . S
C370 H354 0.931 . S
C370 C364 1.383 . S
C370 C369 1.379 . S
H371 C365 0.959 . S
H372 C365 0.961 . S
H373 C365 0.960 . S
H374 C366 0.930 . S
H375 C367 0.929 . S
H376 C384 0.929 . S
H377 C386 0.930 . S
H378 C388 0.930 . S
H379 C391 0.929 . S
H380 C394 0.930 . S
H381 C396 0.960 . S
H382 C396 0.960 . S
H383 C396 0.960 . S
C384 H376 0.929 . S
C384 C385 1.374 . S
C384 C386 1.384 . S
C385 C384 1.374 . S
C385 C391 1.394 1_565 S
C386 H377 0.930 . S
C386 C384 1.384 . S
C386 C387 1.372 . S
C387 C386 1.372 . S
C387 C388 1.400 1_565 S
C387 C392 1.490 . S
C388 H378 0.930 . S
C388 C387 1.400 1_545 S
C388 C391 1.386 . S
H389 C405 0.930 . S
H390 C406 0.931 . S
C391 H379 0.929 . S
C391 C385 1.394 1_545 S
C391 C388 1.386 . S
C392 C387 1.490 . S
C392 C394 1.395 . S
C392 C395 1.403 1_565 S
H393 C399 0.930 . S
C394 H380 0.930 . S
C394 C392 1.395 . S
C394 C397 1.403 . S
C395 C392 1.403 1_545 S
C395 C396 1.524 . S
C395 C399 1.400 . S
C396 H381 0.960 . S
C396 H382 0.960 . S
C396 H383 0.960 . S
C396 C395 1.524 . S
C397 C394 1.403 . S
C397 C398 1.392 . S
C397 C401 1.495 1_554 S
C398 C397 1.392 . S
C398 C399 1.385 1_565 S
C398 C400 1.478 1_554 S
C399 H393 0.930 . S
C399 C395 1.400 . S
C399 C398 1.385 1_545 S
C400 C398 1.478 1_556 S
C400 C402 1.381 . S
C400 C406 1.383 1_565 S
C401 C397 1.495 1_556 S
C401 H407 0.959 . S
C401 H408 0.961 . S
C401 H409 0.960 . S
C402 C400 1.381 . S
C402 C403 1.394 . S
C402 H410 0.930 . S
C403 C402 1.394 . S
C403 C404 1.383 . S
C403 H411 0.929 . S
C404 C403 1.383 . S
C404 C405 1.377 1_565 S
C405 H389 0.930 . S
C405 C404 1.377 1_545 S
C405 C406 1.379 . S
C406 H390 0.931 . S
C406 C400 1.383 1_545 S
C406 C405 1.379 . S
H407 C401 0.959 . S
H408 C401 0.961 . S
H409 C401 0.960 . S
H410 C402 0.930 . S
H411 C403 0.929 . S
H412 C420 0.929 . S
H413 C422 0.930 1_554 S
H414 C424 0.930 . S
H415 C427 0.929 . S
H416 C430 0.930 . S
H417 C432 0.960 . S
H418 C432 0.960 . S
H419 C432 0.960 . S
C420 H412 0.929 . S
C420 C421 1.377 1_554 S
C420 C422 1.384 1_554 S
C421 C420 1.377 1_556 S
C421 C427 1.390 . S
C422 H413 0.930 1_556 S
C422 C420 1.384 1_556 S
C422 C423 1.372 . S
C423 C422 1.372 . S
C423 C424 1.400 . S
C423 C428 1.490 . S
C424 H414 0.930 . S
C424 C423 1.400 . S
C424 C427 1.386 . S
H425 C441 0.930 . S
H426 C442 0.931 . S
C427 H415 0.929 . S
C427 C421 1.390 . S
C427 C424 1.386 . S
C428 C423 1.490 . S
C428 C430 1.395 . S
C428 C431 1.403 . S
H429 C435 0.930 . S
C430 H416 0.930 . S
C430 C428 1.395 . S
C430 C433 1.403 . S
C431 C428 1.403 . S
C431 C432 1.524 . S
C431 C435 1.400 . S
C432 H417 0.960 . S
C432 H418 0.960 . S
C432 H419 0.960 . S
C432 C431 1.524 . S
C433 C430 1.403 . S
C433 C434 1.392 . S
C433 C437 1.495 . S
C434 C433 1.392 . S
C434 C435 1.385 . S
C434 C436 1.478 . S
C435 H429 0.930 . S
C435 C431 1.400 . S
C435 C434 1.385 . S
C436 C434 1.478 . S
C436 C438 1.381 . S
C436 C442 1.383 . S
C437 C433 1.495 . S
C437 H443 0.959 1_556 S
C437 H444 0.961 . S
C437 H445 0.960 . S
C438 C436 1.381 . S
C438 C439 1.394 . S
C438 H446 0.930 . S
C439 C438 1.394 . S
C439 C440 1.383 . S
C439 H447 0.929 . S
C440 C439 1.383 . S
C440 C441 1.377 . S
C441 H425 0.930 . S
C441 C440 1.377 . S
C441 C442 1.379 . S
C442 H426 0.931 . S
C442 C436 1.383 . S
C442 C441 1.379 . S
H443 C437 0.959 1_554 S
H444 C437 0.961 . S
H445 C437 0.960 . S
H446 C438 0.930 . S
H447 C439 0.929 . S
H448 C456 0.929 . S
H449 C458 0.930 . S
H450 C460 0.930 . S
H451 C463 0.929 . S
H452 C466 0.930 . S
H453 C468 0.960 . S
H454 C468 0.960 . S
H455 C468 0.960 . S
C456 H448 0.929 . S
C456 C457 1.377 . S
C456 C458 1.384 . S
C457 C456 1.377 . S
C457 C463 1.390 . S
C458 H449 0.930 . S
C458 C456 1.384 . S
C458 C459 1.372 . S
C459 C458 1.372 . S
C459 C460 1.400 . S
C459 C464 1.490 . S
C460 H450 0.930 . S
C460 C459 1.400 . S
C460 C463 1.386 . S
H461 C477 0.930 . S
H462 C478 0.931 . S
C463 H451 0.929 . S
C463 C457 1.390 . S
C463 C460 1.386 . S
C464 C459 1.490 . S
C464 C466 1.395 . S
C464 C467 1.403 . S
H465 C471 0.930 . S
C466 H452 0.930 . S
C466 C464 1.395 . S
C466 C469 1.403 . S
C467 C464 1.403 . S
C467 C468 1.524 . S
C467 C471 1.400 . S
C468 H453 0.960 . S
C468 H454 0.960 . S
C468 H455 0.960 . S
C468 C467 1.524 . S
C469 C466 1.403 . S
C469 C470 1.392 . S
C469 C473 1.495 1_554 S
C470 C469 1.392 . S
C470 C471 1.385 . S
C470 C472 1.478 1_554 S
C471 H465 0.930 . S
C471 C467 1.400 . S
C471 C470 1.385 . S
C472 C470 1.478 1_556 S
C472 C474 1.381 . S
C472 C478 1.383 . S
C473 C469 1.495 1_556 S
C473 H479 0.959 . S
C473 H480 0.961 . S
C473 H481 0.960 . S
C474 C472 1.381 . S
C474 C475 1.394 . S
C474 H482 0.930 . S
C475 C474 1.394 . S
C475 C476 1.383 . S
C475 H483 0.929 . S
C476 C475 1.383 . S
C476 C477 1.377 . S
C477 H461 0.930 . S
C477 C476 1.377 . S
C477 C478 1.379 . S
C478 H462 0.931 . S
C478 C472 1.383 . S
C478 C477 1.379 . S
H479 C473 0.959 . S
H480 C473 0.961 . S
H481 C473 0.960 . S
H482 C474 0.930 . S
H483 C475 0.929 . S
H484 C492 0.929 . S
H485 C494 0.930 . S
H486 C496 0.930 . S
H487 C499 0.929 . S
H488 C502 0.930 . S
H489 C504 0.966 . S
H490 C504 0.960 . S
H491 C504 0.960 1_455 S
C492 H484 0.929 . S
C492 C493 1.377 . S
C492 C494 1.384 . S
C493 C492 1.377 . S
C493 C499 1.390 1_655 S
C494 H485 0.930 . S
C494 C492 1.384 . S
C494 C495 1.372 . S
C495 C494 1.372 . S
C495 C496 1.400 1_655 S
C495 C500 1.490 . S
C496 H486 0.930 . S
C496 C495 1.400 1_455 S
C496 C499 1.386 . S
H497 C513 0.930 . S
H498 C514 0.931 . S
C499 H487 0.929 . S
C499 C493 1.390 1_455 S
C499 C496 1.386 . S
C500 C495 1.490 . S
C500 C502 1.395 . S
C500 C503 1.403 . S
H501 C507 0.925 1_455 S
C502 H488 0.930 . S
C502 C500 1.395 . S
C502 C505 1.403 . S
C503 C500 1.403 . S
C503 C504 1.524 . S
C503 C507 1.400 . S
C504 H489 0.966 . S
C504 H490 0.960 . S
C504 H491 0.960 1_655 S
C504 C503 1.524 . S
C505 C502 1.403 . S
C505 C506 1.392 . S
C505 C509 1.495 1_554 S
C506 C505 1.392 . S
C506 C507 1.385 . S
C506 C508 1.478 1_554 S
C507 H501 0.925 1_655 S
C507 C503 1.400 . S
C507 C506 1.385 . S
C508 C506 1.478 1_556 S
C508 C510 1.381 . S
C508 C514 1.383 1_655 S
C509 C505 1.495 1_556 S
C509 H515 0.959 . S
C509 H516 0.961 1_655 S
C509 H517 0.960 . S
C510 C508 1.381 . S
C510 C511 1.394 . S
C510 H518 0.930 . S
C511 C510 1.394 . S
C511 C512 1.383 1_655 S
C511 H519 0.929 . S
C512 C511 1.383 1_455 S
C512 C513 1.377 . S
C513 H497 0.930 . S
C513 C512 1.377 . S
C513 C514 1.379 . S
C514 H498 0.931 . S
C514 C508 1.383 1_455 S
C514 C513 1.379 . S
H515 C509 0.959 . S
H516 C509 0.961 1_455 S
H517 C509 0.960 . S
H518 C510 0.930 . S
H519 C511 0.929 . S
H520 C528 0.929 . S
H521 C530 0.930 . S
H522 C532 0.930 . S
H523 C535 0.929 . S
H524 C538 0.930 . S
H525 C540 0.960 . S
H526 C540 0.960 . S
H527 C540 0.960 . S
C528 H520 0.929 . S
C528 C529 1.377 . S
C528 C530 1.384 . S
C529 C528 1.377 . S
C529 C535 1.390 . S
C530 H521 0.930 . S
C530 C528 1.384 . S
C530 C531 1.372 . S
C531 C530 1.372 . S
C531 C532 1.400 . S
C531 C536 1.490 . S
C532 H522 0.930 . S
C532 C531 1.400 . S
C532 C535 1.386 . S
H533 C549 0.930 . S
H534 C550 0.931 . S
C535 H523 0.929 . S
C535 C529 1.390 . S
C535 C532 1.386 . S
C536 C531 1.490 . S
C536 C538 1.395 . S
C536 C539 1.431 . S
H537 C543 0.930 . S
C538 H524 0.930 . S
C538 C536 1.395 . S
C538 C541 1.403 . S
C539 C536 1.431 . S
C539 C540 1.502 1_455 S
C539 C543 1.394 1_455 S
C540 H525 0.960 . S
C540 H526 0.960 . S
C540 H527 0.960 . S
C540 C539 1.502 1_655 S
C541 C538 1.403 . S
C541 C542 1.392 . S
C541 C545 1.495 . S
C542 C541 1.392 . S
C542 C543 1.385 1_455 S
C542 C544 1.478 . S
C543 H537 0.930 . S
C543 C539 1.394 1_655 S
C543 C542 1.385 1_655 S
C544 C542 1.478 . S
C544 C546 1.381 . S
C544 C550 1.383 1_455 S
C545 C541 1.495 . S
C545 H551 0.959 . S
C545 H552 0.961 . S
C545 H553 0.960 . S
C546 C544 1.381 . S
C546 C547 1.394 1_455 S
C546 H554 0.930 . S
C547 C546 1.394 1_655 S
C547 C548 1.383 . S
C547 H555 0.929 . S
C548 C547 1.383 . S
C548 C549 1.377 . S
C549 H533 0.930 . S
C549 C548 1.377 . S
C549 C550 1.379 . S
C550 H534 0.931 . S
C550 C544 1.383 1_655 S
C550 C549 1.379 . S
H551 C545 0.959 . S
H552 C545 0.961 . S
H553 C545 0.960 . S
H554 C546 0.930 . S
H555 C547 0.929 . S
H556 C564 0.929 . S
H557 C566 0.930 . S
H558 C568 0.930 . S
H559 C571 0.929 . S
H560 C574 0.930 . S
H561 C576 0.960 . S
H562 C576 0.960 . S
H563 C576 0.960 . S
C564 H556 0.929 . S
C564 C565 1.377 1_565 S
C564 C566 1.384 . S
C565 C564 1.377 1_545 S
C565 C571 1.390 . S
C566 H557 0.930 . S
C566 C564 1.384 . S
C566 C567 1.372 . S
C567 C566 1.372 . S
C567 C568 1.400 1_565 S
C567 C572 1.490 . S
C568 H558 0.930 . S
C568 C567 1.400 1_545 S
C568 C571 1.386 . S
H569 C585 0.930 1_545 S
H570 C586 0.931 1_545 S
C571 H559 0.929 . S
C571 C565 1.390 . S
C571 C568 1.386 . S
C572 C567 1.490 . S
C572 C574 1.395 . S
C572 C575 1.403 1_565 S
H573 C579 0.930 1_545 S
C574 H560 0.930 . S
C574 C572 1.395 . S
C574 C577 1.403 . S
C575 C572 1.403 1_545 S
C575 C576 1.524 . S
C575 C579 1.400 1_545 S
C576 H561 0.960 . S
C576 H562 0.960 . S
C576 H563 0.960 . S
C576 C575 1.524 . S
C577 C574 1.403 . S
C577 C578 1.392 . S
C577 C581 1.495 . S
C578 C577 1.392 . S
C578 C579 1.385 . S
C578 C580 1.478 . S
C579 H573 0.930 1_565 S
C579 C575 1.400 1_565 S
C579 C578 1.385 . S
C580 C578 1.478 . S
C580 C582 1.381 . S
C580 C586 1.383 . S
C581 C577 1.495 . S
C581 H587 0.959 . S
C581 H588 0.961 . S
C581 H589 0.960 . S
C582 C580 1.381 . S
C582 C583 1.394 . S
C582 H590 0.930 . S
C583 C582 1.394 . S
C583 C584 1.383 . S
C583 H591 0.929 . S
C584 C583 1.383 . S
C584 C585 1.377 . S
C585 H569 0.930 1_565 S
C585 C584 1.377 . S
C585 C586 1.379 . S
C586 H570 0.931 1_565 S
C586 C580 1.383 . S
C586 C585 1.379 . S
H587 C581 0.959 . S
H588 C581 0.961 . S
H589 C581 0.960 . S
H590 C582 0.930 . S
H591 C583 0.929 . S
H592 C600 0.929 . S
H593 C602 0.930 . S
H594 C604 0.930 . S
H595 C607 0.929 . S
H596 C610 0.930 . S
H597 C612 0.960 . S
H598 C612 0.960 . S
H599 C612 0.960 . S
C600 H592 0.929 . S
C600 C601 1.377 . S
C600 C602 1.384 . S
C601 C600 1.377 . S
C601 C607 1.390 . S
C602 H593 0.930 . S
C602 C600 1.384 . S
C602 C603 1.372 . S
C603 C602 1.372 . S
C603 C604 1.400 . S
C603 C608 1.490 . S
C604 H594 0.930 . S
C604 C603 1.400 . S
C604 C607 1.386 . S
H605 C621 0.930 . S
H606 C622 0.931 . S
C607 H595 0.929 . S
C607 C601 1.390 . S
C607 C604 1.386 . S
C608 C603 1.490 . S
C608 C610 1.395 . S
C608 C611 1.403 . S
H609 C615 0.930 . S
C610 H596 0.930 . S
C610 C608 1.395 . S
C610 C613 1.403 . S
C611 C608 1.403 . S
C611 C612 1.524 . S
C611 C615 1.400 . S
C612 H597 0.960 . S
C612 H598 0.960 . S
C612 H599 0.960 . S
C612 C611 1.524 . S
C613 C610 1.403 . S
C613 C614 1.392 . S
C613 C617 1.495 . S
C614 C613 1.392 . S
C614 C615 1.385 . S
C614 C616 1.478 . S
C615 H609 0.930 . S
C615 C611 1.400 . S
C615 C614 1.385 . S
C616 C614 1.478 . S
C616 C618 1.381 . S
C616 C622 1.383 . S
C617 C613 1.495 . S
C617 H623 0.959 . S
C617 H624 0.961 . S
C617 H625 0.960 . S
C618 C616 1.381 . S
C618 C619 1.394 . S
C618 H626 0.930 . S
C619 C618 1.394 . S
C619 C620 1.383 . S
C619 H627 0.929 . S
C620 C619 1.383 . S
C620 C621 1.377 . S
C621 H605 0.930 . S
C621 C620 1.377 . S
C621 C622 1.379 . S
C622 H606 0.931 . S
C622 C616 1.383 . S
C622 C621 1.379 . S
H623 C617 0.959 . S
H624 C617 0.961 . S
H625 C617 0.960 . S
H626 C618 0.930 . S
H627 C619 0.929 . S
H628 C636 0.929 . S
H629 C638 0.930 . S
H630 C640 0.930 . S
H631 C643 0.929 . S
H632 C646 0.930 . S
H633 C648 0.960 . S
H634 C648 0.960 . S
H635 C648 0.960 . S
C636 H628 0.929 . S
C636 C637 1.377 . S
C636 C638 1.384 . S
C637 C636 1.377 . S
C637 C643 1.390 . S
C638 H629 0.930 . S
C638 C636 1.384 . S
C638 C639 1.372 . S
C639 C638 1.372 . S
C639 C640 1.400 . S
C639 C644 1.490 . S
C640 H630 0.930 . S
C640 C639 1.400 . S
C640 C643 1.386 . S
H641 C657 0.930 . S
H642 C658 0.931 . S
C643 H631 0.929 . S
C643 C637 1.390 . S
C643 C640 1.386 . S
C644 C639 1.490 . S
C644 C646 1.395 . S
C644 C647 1.403 . S
H645 C651 0.930 . S
C646 H632 0.930 . S
C646 C644 1.395 . S
C646 C649 1.403 . S
C647 C644 1.403 . S
C647 C648 1.524 . S
C647 C651 1.400 . S
C648 H633 0.960 . S
C648 H634 0.960 . S
C648 H635 0.960 . S
C648 C647 1.524 . S
C649 C646 1.403 . S
C649 C650 1.392 . S
C649 C653 1.495 . S
C650 C649 1.392 . S
C650 C651 1.385 . S
C650 C652 1.478 . S
C651 H645 0.930 . S
C651 C647 1.400 . S
C651 C650 1.385 . S
C652 C650 1.478 . S
C652 C654 1.381 . S
C652 C658 1.383 . S
C653 C649 1.495 . S
C653 H659 0.959 . S
C653 H660 0.961 . S
C653 H661 0.960 . S
C654 C652 1.381 . S
C654 C655 1.394 . S
C654 H662 0.930 . S
C655 C654 1.394 . S
C655 C656 1.383 . S
C655 H663 0.929 . S
C656 C655 1.383 . S
C656 C657 1.377 . S
C657 H641 0.930 . S
C657 C656 1.377 . S
C657 C658 1.379 . S
C658 H642 0.931 . S
C658 C652 1.383 . S
C658 C657 1.379 . S
H659 C653 0.959 . S
H660 C653 0.961 . S
H661 C653 0.960 . S
H662 C654 0.930 . S
H663 C655 0.929 . S
H664 C672 0.929 . S
H665 C674 0.930 . S
H666 C676 0.930 . S
H667 C679 0.929 . S
H668 C682 0.930 . S
H669 C684 0.960 . S
H670 C684 0.960 . S
H671 C684 0.960 . S
C672 H664 0.929 . S
C672 C673 1.377 . S
C672 C674 1.384 . S
C673 C672 1.377 . S
C673 C679 1.390 1_655 S
C674 H665 0.930 . S
C674 C672 1.384 . S
C674 C675 1.372 . S
C675 C674 1.372 . S
C675 C676 1.400 1_655 S
C675 C680 1.490 1_655 S
C676 H666 0.930 . S
C676 C675 1.400 1_455 S
C676 C679 1.386 . S
H677 C693 0.930 . S
H678 C694 0.931 . S
C679 H667 0.929 . S
C679 C673 1.390 1_455 S
C679 C676 1.386 . S
C680 C675 1.490 1_455 S
C680 C682 1.395 1_455 S
C680 C683 1.403 . S
H681 C687 0.930 . S
C682 H668 0.930 . S
C682 C680 1.395 1_655 S
C682 C685 1.407 . S
C683 C680 1.403 . S
C683 C684 1.524 . S
C683 C687 1.400 . S
C684 H669 0.960 . S
C684 H670 0.960 . S
C684 H671 0.960 . S
C684 C683 1.524 . S
C685 C682 1.407 . S
C685 C686 1.384 1_655 S
C685 C689 1.500 . S
C686 C685 1.384 1_455 S
C686 C687 1.385 . S
C686 C688 1.478 . S
C687 H681 0.930 . S
C687 C683 1.400 . S
C687 C686 1.385 . S
C688 C686 1.478 . S
C688 C690 1.381 . S
C688 C694 1.383 . S
C689 C685 1.500 . S
C689 H695 0.959 . S
C689 H696 0.961 1_655 S
C689 H697 0.960 . S
C690 C688 1.381 . S
C690 C691 1.394 1_554 S
C690 H698 0.930 1_455 S
C691 C690 1.394 1_556 S
C691 C692 1.383 . S
C691 H699 0.929 . S
C692 C691 1.383 . S
C692 C693 1.377 1_556 S
C693 H677 0.930 . S
C693 C692 1.377 1_554 S
C693 C694 1.379 . S
C694 H678 0.931 . S
C694 C688 1.383 . S
C694 C693 1.379 . S
H695 C689 0.959 . S
H696 C689 0.961 1_455 S
H697 C689 0.960 . S
H698 C690 0.930 1_655 S
H699 C691 0.929 . S
H700 C708 0.929 . S
H701 C710 0.930 . S
H702 C712 0.930 . S
H703 C715 0.929 . S
H704 C718 0.930 . S
H705 C720 0.960 . S
H706 C720 0.960 1_565 S
H707 C720 0.960 . S
C708 H700 0.929 . S
C708 C709 1.377 . S
C708 C710 1.384 . S
C709 C708 1.377 . S
C709 C715 1.390 1_565 S
C710 H701 0.930 . S
C710 C708 1.384 . S
C710 C711 1.372 1_565 S
C711 C710 1.372 1_545 S
C711 C712 1.400 . S
C711 C716 1.490 . S
C712 H702 0.930 . S
C712 C711 1.400 . S
C712 C715 1.386 . S
H713 C729 0.930 . S
H714 C730 0.931 . S
C715 H703 0.929 . S
C715 C709 1.390 1_545 S
C715 C712 1.386 . S
C716 C711 1.490 . S
C716 C718 1.395 . S
C716 C719 1.403 . S
H717 C723 0.930 . S
C718 H704 0.930 . S
C718 C716 1.395 . S
C718 C721 1.403 . S
C719 C716 1.403 . S
C719 C720 1.524 . S
C719 C723 1.400 . S
C720 H705 0.960 . S
C720 H706 0.960 1_545 S
C720 H707 0.960 . S
C720 C719 1.524 . S
C721 C718 1.403 . S
C721 C722 1.392 . S
C721 C725 1.495 . S
C722 C721 1.392 . S
C722 C723 1.385 . S
C722 C724 1.478 . S
C723 H717 0.930 . S
C723 C719 1.400 . S
C723 C722 1.385 . S
C724 C722 1.478 . S
C724 C726 1.381 . S
C724 C730 1.383 . S
C725 C721 1.495 . S
C725 H731 0.959 . S
C725 H732 0.961 . S
C725 H733 0.960 . S
C726 C724 1.381 . S
C726 C727 1.394 . S
C726 H734 0.930 1_545 S
C727 C726 1.394 . S
C727 C728 1.383 . S
C727 H735 0.929 1_545 S
C728 C727 1.383 . S
C728 C729 1.377 . S
C729 H713 0.930 . S
C729 C728 1.377 . S
C729 C730 1.379 . S
C730 H714 0.931 . S
C730 C724 1.383 . S
C730 C729 1.379 . S
H731 C725 0.959 . S
H732 C725 0.961 . S
H733 C725 0.960 . S
H734 C726 0.930 1_565 S
H735 C727 0.929 1_565 S
H736 C744 0.929 1_554 S
H737 C746 0.930 . S
H738 C748 0.930 . S
H739 C751 0.929 . S
H740 C754 0.930 . S
H741 C756 0.960 . S
H742 C756 0.960 . S
H743 C756 0.960 . S
C744 H736 0.929 1_556 S
C744 C745 1.377 . S
C744 C746 1.384 . S
C745 C744 1.377 . S
C745 C751 1.390 . S
C746 H737 0.930 . S
C746 C744 1.384 . S
C746 C747 1.372 . S
C747 C746 1.372 . S
C747 C748 1.400 . S
C747 C752 1.490 . S
C748 H738 0.930 . S
C748 C747 1.400 . S
C748 C751 1.386 . S
H749 C765 0.930 . S
H750 C766 0.931 . S
C751 H739 0.929 . S
C751 C745 1.390 . S
C751 C748 1.386 . S
C752 C747 1.490 . S
C752 C754 1.395 . S
C752 C755 1.403 . S
H753 C759 0.930 . S
C754 H740 0.930 . S
C754 C752 1.395 . S
C754 C757 1.403 . S
C755 C752 1.403 . S
C755 C756 1.524 . S
C755 C759 1.400 . S
C756 H741 0.960 . S
C756 H742 0.960 . S
C756 H743 0.960 . S
C756 C755 1.524 . S
C757 C754 1.403 . S
C757 C758 1.392 . S
C757 C761 1.495 . S
C758 C757 1.392 . S
C758 C759 1.385 . S
C758 C760 1.478 . S
C759 H753 0.930 . S
C759 C755 1.400 . S
C759 C758 1.385 . S
C760 C758 1.478 . S
C760 C762 1.381 . S
C760 C766 1.383 . S
C761 C757 1.495 . S
C761 H767 0.959 . S
C761 H768 0.961 . S
C761 H769 0.960 . S
C762 C760 1.381 . S
C762 C763 1.394 . S
C762 H770 0.930 . S
C763 C762 1.394 . S
C763 C764 1.383 . S
C763 H771 0.929 . S
C764 C763 1.383 . S
C764 C765 1.377 . S
C765 H749 0.930 . S
C765 C764 1.377 . S
C765 C766 1.379 . S
C766 H750 0.931 . S
C766 C760 1.383 . S
C766 C765 1.379 . S
H767 C761 0.959 . S
H768 C761 0.961 . S
H769 C761 0.960 . S
H770 C762 0.930 . S
H771 C763 0.929 . S
H772 C780 0.929 . S
H773 C782 0.930 . S
H774 C784 0.930 . S
H775 C787 0.929 . S
H776 C790 0.930 . S
H777 C792 0.960 . S
H778 C792 0.960 . S
H779 C792 0.960 . S
C780 H772 0.929 . S
C780 C781 1.377 . S
C780 C782 1.384 . S
C781 C780 1.377 . S
C781 C787 1.390 . S
C782 H773 0.930 . S
C782 C780 1.384 . S
C782 C783 1.372 . S
C783 C782 1.372 . S
C783 C784 1.400 . S
C783 C788 1.490 . S
C784 H774 0.930 . S
C784 C783 1.400 . S
C784 C787 1.386 . S
H785 C801 0.930 1_556 S
H786 C802 0.931 . S
C787 H775 0.929 . S
C787 C781 1.390 . S
C787 C784 1.386 . S
C788 C783 1.490 . S
C788 C790 1.395 . S
C788 C791 1.403 . S
H789 C795 0.930 . S
C790 H776 0.930 . S
C790 C788 1.395 . S
C790 C793 1.403 . S
C791 C788 1.403 . S
C791 C792 1.524 . S
C791 C795 1.400 . S
C792 H777 0.960 . S
C792 H778 0.960 . S
C792 H779 0.960 . S
C792 C791 1.524 . S
C793 C790 1.403 . S
C793 C794 1.392 . S
C793 C797 1.495 . S
C794 C793 1.392 . S
C794 C795 1.385 . S
C794 C796 1.478 . S
C795 H789 0.930 . S
C795 C791 1.400 . S
C795 C794 1.385 . S
C796 C794 1.478 . S
C796 C798 1.381 . S
C796 C802 1.383 . S
C797 C793 1.495 . S
C797 H803 0.959 . S
C797 H804 0.961 . S
C797 H805 0.960 . S
C798 C796 1.381 . S
C798 C799 1.394 . S
C798 H806 0.930 . S
C799 C798 1.394 . S
C799 C800 1.383 . S
C799 H807 0.929 . S
C800 C799 1.383 . S
C800 C801 1.377 . S
C801 H785 0.930 1_554 S
C801 C800 1.377 . S
C801 C802 1.379 . S
C802 H786 0.931 . S
C802 C796 1.383 . S
C802 C801 1.379 . S
H803 C797 0.959 . S
H804 C797 0.961 . S
H805 C797 0.960 . S
H806 C798 0.930 . S
H807 C799 0.929 . S
H808 C816 0.929 . S
H809 C818 0.930 1_556 S
H810 C820 0.930 . S
H811 C823 0.929 . S
H812 C826 0.930 . S
H813 C828 0.960 1_655 S
H814 C828 0.960 1_655 S
H815 C828 0.960 . S
C816 H808 0.929 . S
C816 C817 1.377 . S
C816 C818 1.384 . S
C817 C816 1.377 . S
C817 C823 1.390 . S
C818 H809 0.930 1_554 S
C818 C816 1.384 . S
C818 C819 1.372 . S
C819 C818 1.372 . S
C819 C820 1.400 . S
C819 C824 1.490 . S
C820 H810 0.930 . S
C820 C819 1.400 . S
C820 C823 1.386 . S
H821 C837 0.930 . S
H822 C838 0.931 . S
C823 H811 0.929 . S
C823 C817 1.390 . S
C823 C820 1.386 . S
C824 C819 1.490 . S
C824 C826 1.395 1_554 S
C824 C827 1.403 . S
H825 C831 0.930 1_554 S
C826 H812 0.930 . S
C826 C824 1.395 1_556 S
C826 C829 1.403 . S
C827 C824 1.403 . S
C827 C828 1.524 . S
C827 C831 1.400 1_554 S
C828 H813 0.960 1_455 S
C828 H814 0.960 1_455 S
C828 H815 0.960 . S
C828 C827 1.524 . S
C829 C826 1.403 . S
C829 C830 1.392 . S
C829 C833 1.495 . S
C830 C829 1.392 . S
C830 C831 1.385 . S
C830 C832 1.478 . S
C831 H825 0.930 1_556 S
C831 C827 1.400 1_556 S
C831 C830 1.385 . S
C832 C830 1.478 . S
C832 C834 1.381 . S
C832 C838 1.383 . S
C833 C829 1.495 . S
C833 H839 0.959 . S
C833 H840 0.961 . S
C833 H841 0.960 . S
C834 C832 1.381 . S
C834 C835 1.394 . S
C834 H842 0.930 . S
C835 C834 1.394 . S
C835 C836 1.383 . S
C835 H843 0.929 . S
C836 C835 1.383 . S
C836 C837 1.377 . S
C837 H821 0.930 . S
C837 C836 1.377 . S
C837 C838 1.379 . S
C838 H822 0.931 . S
C838 C832 1.383 . S
C838 C837 1.379 . S
H839 C833 0.959 . S
H840 C833 0.961 . S
H841 C833 0.960 . S
H842 C834 0.930 . S
H843 C835 0.929 . S
H844 C852 0.929 . S
H845 C854 0.930 . S
H846 C856 0.930 . S
H847 C859 0.929 . S
H848 C862 0.930 . S
H849 C864 0.960 . S
H850 C864 0.960 . S
H851 C864 0.960 . S
C852 H844 0.929 . S
C852 C853 1.377 1_566 S
C852 C854 1.384 . S
C853 C852 1.377 1_544 S
C853 C859 1.391 . S
C854 H845 0.930 . S
C854 C852 1.384 . S
C854 C855 1.372 1_566 S
C855 C854 1.372 1_544 S
C855 C856 1.400 . S
C855 C860 1.490 1_554 S
C856 H846 0.930 . S
C856 C855 1.400 . S
C856 C859 1.386 . S
H857 C873 0.930 . S
H858 C874 0.931 . S
C859 H847 0.929 . S
C859 C853 1.391 . S
C859 C856 1.386 . S
C860 C855 1.490 1_556 S
C860 C862 1.395 . S
C860 C863 1.406 1_545 S
H861 C867 0.930 . S
C862 H848 0.930 . S
C862 C860 1.395 . S
C862 C865 1.403 . S
C863 C860 1.406 1_565 S
C863 C864 1.516 1_556 S
C863 C867 1.405 . S
C864 H849 0.960 . S
C864 H850 0.960 . S
C864 H851 0.960 . S
C864 C863 1.516 1_554 S
C865 C862 1.403 . S
C865 C866 1.392 . S
C865 C869 1.495 . S
C866 C865 1.392 . S
C866 C867 1.385 1_545 S
C866 C868 1.478 . S
C867 H861 0.930 . S
C867 C863 1.405 . S
C867 C866 1.385 1_565 S
C868 C866 1.478 . S
C868 C870 1.387 . S
C868 C874 1.383 . S
C869 C865 1.495 . S
C869 H875 0.959 . S
C869 H876 0.961 . S
C869 H877 0.960 . S
C870 C868 1.387 . S
C870 C871 1.396 . S
C870 H878 0.924 1_545 S
C871 C870 1.396 . S
C871 C872 1.383 . S
C871 H879 0.929 1_545 S
C872 C871 1.383 . S
C872 C873 1.377 . S
C873 H857 0.930 . S
C873 C872 1.377 . S
C873 C874 1.379 . S
C874 H858 0.931 . S
C874 C868 1.383 . S
C874 C873 1.379 . S
H875 C869 0.959 . S
H876 C869 0.961 . S
H877 C869 0.960 . S
H878 C870 0.924 1_565 S
H879 C871 0.929 1_565 S
H880 C888 0.929 . S
H881 C890 0.930 . S
H882 C892 0.930 . S
H883 C895 0.929 . S
H884 C898 0.930 . S
H885 C900 0.960 . S
H886 C900 0.960 . S
H887 C900 0.960 . S
C888 H880 0.929 . S
C888 C889 1.377 . S
C888 C890 1.384 . S
C889 C888 1.377 . S
C889 C895 1.390 . S
C890 H881 0.930 . S
C890 C888 1.384 . S
C890 C891 1.372 . S
C891 C890 1.372 . S
C891 C892 1.400 . S
C891 C896 1.490 . S
C892 H882 0.930 . S
C892 C891 1.400 . S
C892 C895 1.386 . S
H893 C909 0.930 . S
H894 C910 0.931 . S
C895 H883 0.929 . S
C895 C889 1.390 . S
C895 C892 1.386 . S
C896 C891 1.490 . S
C896 C898 1.395 . S
C896 C899 1.403 . S
H897 C903 0.930 . S
C898 H884 0.930 . S
C898 C896 1.395 . S
C898 C901 1.403 . S
C899 C896 1.403 . S
C899 C900 1.524 . S
C899 C903 1.400 . S
C900 H885 0.960 . S
C900 H886 0.960 . S
C900 H887 0.960 . S
C900 C899 1.524 . S
C901 C898 1.403 . S
C901 C902 1.392 . S
C901 C905 1.495 . S
C902 C901 1.392 . S
C902 C903 1.385 . S
C902 C904 1.478 . S
C903 H897 0.930 . S
C903 C899 1.400 . S
C903 C902 1.385 . S
C904 C902 1.478 . S
C904 C906 1.381 . S
C904 C910 1.383 . S
C905 C901 1.495 . S
C905 H911 0.959 . S
C905 H912 0.961 . S
C905 H913 0.960 . S
C906 C904 1.381 . S
C906 C907 1.394 . S
C906 H914 0.930 . S
C907 C906 1.394 . S
C907 C908 1.383 . S
C907 H915 0.929 . S
C908 C907 1.383 . S
C908 C909 1.377 . S
C909 H893 0.930 . S
C909 C908 1.377 . S
C909 C910 1.379 . S
C910 H894 0.931 . S
C910 C904 1.383 . S
C910 C909 1.379 . S
H911 C905 0.959 . S
H912 C905 0.961 . S
H913 C905 0.960 . S
H914 C906 0.930 . S
H915 C907 0.929 . S
H916 C924 0.929 . S
H917 C926 0.930 . S
H918 C928 0.930 . S
H919 C931 0.929 1_556 S
H920 C934 0.930 . S
H921 C936 0.960 . S
H922 C936 0.960 . S
H923 C936 0.960 . S
C924 H916 0.929 . S
C924 C925 1.377 . S
C924 C926 1.384 . S
C925 C924 1.377 . S
C925 C931 1.390 . S
C926 H917 0.930 . S
C926 C924 1.384 . S
C926 C927 1.372 . S
C927 C926 1.372 . S
C927 C928 1.400 1_554 S
C927 C932 1.490 1_554 S
C928 H918 0.930 . S
C928 C927 1.400 1_556 S
C928 C931 1.386 1_556 S
H929 C945 0.930 . S
H930 C946 0.931 . S
C931 H919 0.929 1_554 S
C931 C925 1.390 . S
C931 C928 1.386 1_554 S
C932 C927 1.490 1_556 S
C932 C934 1.395 1_556 S
C932 C935 1.403 . S
H933 C939 0.930 . S
C934 H920 0.930 . S
C934 C932 1.395 1_554 S
C934 C937 1.403 . S
C935 C932 1.403 . S
C935 C936 1.524 . S
C935 C939 1.400 . S
C936 H921 0.960 . S
C936 H922 0.960 . S
C936 H923 0.960 . S
C936 C935 1.524 . S
C937 C934 1.403 . S
C937 C938 1.392 1_554 S
C937 C941 1.495 . S
C938 C937 1.392 1_556 S
C938 C939 1.385 . S
C938 C940 1.478 . S
C939 H933 0.930 . S
C939 C935 1.400 . S
C939 C938 1.385 . S
C940 C938 1.478 . S
C940 C942 1.381 . S
C940 C946 1.383 . S
C941 C937 1.495 . S
C941 H947 0.959 . S
C941 H948 0.961 . S
C941 H949 0.960 . S
C942 C940 1.381 . S
C942 C943 1.394 . S
C942 H950 0.930 . S
C943 C942 1.394 . S
C943 C944 1.383 . S
C943 H951 0.929 . S
C944 C943 1.383 . S
C944 C945 1.377 . S
C945 H929 0.930 . S
C945 C944 1.377 . S
C945 C946 1.379 . S
C946 H930 0.931 . S
C946 C940 1.383 . S
C946 C945 1.379 . S
H947 C941 0.959 . S
H948 C941 0.961 . S
H949 C941 0.960 . S
H950 C942 0.930 . S
H951 C943 0.929 . S
H952 C960 0.929 . S
H953 C962 0.930 . S
H954 C964 0.899 1_455 S
H955 C967 0.929 1_455 S
H956 C970 0.930 . S
H957 C972 0.960 . S
H958 C972 0.960 . S
H959 C972 0.960 . S
C960 H952 0.929 . S
C960 C961 1.377 . S
C960 C962 1.384 . S
C961 C960 1.377 . S
C961 C967 1.390 . S
C962 H953 0.930 . S
C962 C960 1.384 . S
C962 C963 1.372 . S
C963 C962 1.372 . S
C963 C964 1.429 . S
C963 C968 1.490 . S
C964 H954 0.899 1_655 S
C964 C963 1.429 . S
C964 C967 1.389 . S
H965 C981 0.930 . S
H966 C982 0.954 . S
C967 H955 0.929 1_655 S
C967 C961 1.390 . S
C967 C964 1.389 . S
C968 C963 1.490 . S
C968 C970 1.395 . S
C968 C971 1.403 1_655 S
H969 C975 0.930 . S
C970 H956 0.930 . S
C970 C968 1.395 . S
C970 C973 1.403 . S
C971 C968 1.403 1_455 S
C971 C972 1.524 . S
C971 C975 1.400 . S
C972 H957 0.960 . S
C972 H958 0.960 . S
C972 H959 0.960 . S
C972 C971 1.524 . S
C973 C970 1.403 . S
C973 C974 1.392 . S
C973 C977 1.495 . S
C974 C973 1.392 . S
C974 C975 1.385 1_655 S
C974 C976 1.478 . S
C975 H969 0.930 . S
C975 C971 1.400 . S
C975 C974 1.385 1_455 S
C976 C974 1.478 . S
C976 C978 1.381 . S
C976 C982 1.355 1_655 S
C977 C973 1.495 . S
C977 H983 0.959 . S
C977 H984 0.961 . S
C977 H985 0.960 . S
C978 C976 1.381 . S
C978 C979 1.394 . S
C978 H986 0.930 . S
C979 C978 1.394 . S
C979 C980 1.383 . S
C979 H987 0.929 . S
C980 C979 1.383 . S
C980 C981 1.377 1_655 S
C981 H965 0.930 . S
C981 C980 1.377 1_455 S
C981 C982 1.386 . S
C982 H966 0.954 . S
C982 C976 1.355 1_455 S
C982 C981 1.386 . S
H983 C977 0.959 . S
H984 C977 0.961 . S
H985 C977 0.960 . S
H986 C978 0.930 . S
H987 C979 0.929 . S
H988 C996 0.929 . S
H989 C998 0.930 . S
H990 C1000 0.930 . S
H991 C1003 0.929 . S
H992 C1006 0.930 . S
H993 C1008 0.960 . S
H994 C1008 0.960 . S
H995 C1008 0.960 . S
C996 H988 0.929 . S
C996 C997 1.372 1_545 S
C996 C998 1.384 . S
C997 C996 1.372 1_565 S
C997 C1003 1.396 . S
C998 H989 0.930 . S
C998 C996 1.384 . S
C998 C999 1.365 1_545 S
C999 C998 1.365 1_565 S
C999 C1000 1.407 . S
C999 C1004 1.490 . S
C1000 H990 0.930 . S
C1000 C999 1.407 . S
C1000 C1003 1.386 . S
H1001 C1017 0.930 . S
H1002 C1018 0.931 . S
C1003 H991 0.929 . S
C1003 C997 1.396 . S
C1003 C1000 1.386 . S
C1004 C999 1.490 . S
C1004 C1006 1.386 1_565 S
C1004 C1007 1.412 . S
H1005 C1011 0.930 . S
C1006 H992 0.930 . S
C1006 C1004 1.386 1_545 S
C1006 C1009 1.403 . S
C1007 C1004 1.412 . S
C1007 C1008 1.524 . S
C1007 C1011 1.400 . S
C1008 H993 0.960 . S
C1008 H994 0.960 . S
C1008 H995 0.960 . S
C1008 C1007 1.524 . S
C1009 C1006 1.403 . S
C1009 C1010 1.391 1_545 S
C1009 C1013 1.495 . S
C1010 C1009 1.391 1_565 S
C1010 C1011 1.386 . S
C1010 C1012 1.478 . S
C1011 H1005 0.930 . S
C1011 C1007 1.400 . S
C1011 C1010 1.386 . S
C1012 C1010 1.478 . S
C1012 C1014 1.381 1_565 S
C1012 C1018 1.383 . S
C1013 C1009 1.495 . S
C1013 H1019 0.959 . S
C1013 H1020 0.961 . S
C1013 H1021 0.960 . S
C1014 C1012 1.381 1_545 S
C1014 C1015 1.394 . S
C1014 H1022 0.930 . S
C1015 C1014 1.394 . S
C1015 C1016 1.383 1_545 S
C1015 H1023 0.929 . S
C1016 C1015 1.383 1_565 S
C1016 C1017 1.377 . S
C1017 H1001 0.930 . S
C1017 C1016 1.377 . S
C1017 C1018 1.379 . S
C1018 H1002 0.931 . S
C1018 C1012 1.383 . S
C1018 C1017 1.379 . S
H1019 C1013 0.959 . S
H1020 C1013 0.961 . S
H1021 C1013 0.960 . S
H1022 C1014 0.930 . S
H1023 C1015 0.929 . S
H1024 C1032 0.929 . S
H1025 C1034 0.930 . S
H1026 C1036 0.930 . S
H1027 C1039 0.929 . S
H1028 C1042 0.930 . S
H1029 C1044 0.960 . S
H1030 C1044 0.960 . S
H1031 C1044 0.960 . S
C1032 H1024 0.929 . S
C1032 C1033 1.377 . S
C1032 C1034 1.384 . S
C1033 C1032 1.377 . S
C1033 C1039 1.390 . S
C1034 H1025 0.930 . S
C1034 C1032 1.384 . S
C1034 C1035 1.372 . S
C1035 C1034 1.372 . S
C1035 C1036 1.400 . S
C1035 C1040 1.490 . S
C1036 H1026 0.930 . S
C1036 C1035 1.400 . S
C1036 C1039 1.386 . S
H1037 C1053 0.930 . S
H1038 C1054 0.931 . S
C1039 H1027 0.929 . S
C1039 C1033 1.390 . S
C1039 C1036 1.386 . S
C1040 C1035 1.490 . S
C1040 C1042 1.395 . S
C1040 C1043 1.403 . S
H1041 C1047 0.930 . S
C1042 H1028 0.930 . S
C1042 C1040 1.395 . S
C1042 C1045 1.403 . S
C1043 C1040 1.403 . S
C1043 C1044 1.524 . S
C1043 C1047 1.400 . S
C1044 H1029 0.960 . S
C1044 H1030 0.960 . S
C1044 H1031 0.960 . S
C1044 C1043 1.524 . S
C1045 C1042 1.403 . S
C1045 C1046 1.392 . S
C1045 C1049 1.495 . S
C1046 C1045 1.392 . S
C1046 C1047 1.385 . S
C1046 C1048 1.478 . S
C1047 H1041 0.930 . S
C1047 C1043 1.400 . S
C1047 C1046 1.385 . S
C1048 C1046 1.478 . S
C1048 C1050 1.381 . S
C1048 C1054 1.383 . S
C1049 C1045 1.495 . S
C1049 H1055 0.959 . S
C1049 H1056 0.961 . S
C1049 H1057 0.960 . S
C1050 C1048 1.381 . S
C1050 C1051 1.394 . S
C1050 H1058 0.930 . S
C1051 C1050 1.394 . S
C1051 C1052 1.383 . S
C1051 H1059 0.929 . S
C1052 C1051 1.383 . S
C1052 C1053 1.377 . S
C1053 H1037 0.930 . S
C1053 C1052 1.377 . S
C1053 C1054 1.379 . S
C1054 H1038 0.931 . S
C1054 C1048 1.383 . S
C1054 C1053 1.379 . S
H1055 C1049 0.959 . S
H1056 C1049 0.961 . S
H1057 C1049 0.960 . S
H1058 C1050 0.930 . S
H1059 C1051 0.929 . S
H1060 C1068 0.929 . S
H1061 C1070 0.930 . S
H1062 C1072 0.930 . S
H1063 C1075 0.929 . S
H1064 C1078 0.930 . S
H1065 C1080 0.960 . S
H1066 C1080 0.960 . S
H1067 C1080 0.960 . S
C1068 H1060 0.929 . S
C1068 C1069 1.377 . S
C1068 C1070 1.384 . S
C1069 C1068 1.377 . S
C1069 C1075 1.390 . S
C1070 H1061 0.930 . S
C1070 C1068 1.384 . S
C1070 C1071 1.372 . S
C1071 C1070 1.372 . S
C1071 C1072 1.400 . S
C1071 C1076 1.490 . S
C1072 H1062 0.930 . S
C1072 C1071 1.400 . S
C1072 C1075 1.386 . S
H1073 C1089 0.930 . S
H1074 C1090 0.931 . S
C1075 H1063 0.929 . S
C1075 C1069 1.390 . S
C1075 C1072 1.386 . S
C1076 C1071 1.490 . S
C1076 C1078 1.395 . S
C1076 C1079 1.403 . S
H1077 C1083 0.930 . S
C1078 H1064 0.930 . S
C1078 C1076 1.395 . S
C1078 C1081 1.403 . S
C1079 C1076 1.403 . S
C1079 C1080 1.524 . S
C1079 C1083 1.400 . S
C1080 H1065 0.960 . S
C1080 H1066 0.960 . S
C1080 H1067 0.960 . S
C1080 C1079 1.524 . S
C1081 C1078 1.403 . S
C1081 C1082 1.392 . S
C1081 C1085 1.495 . S
C1082 C1081 1.392 . S
C1082 C1083 1.385 . S
C1082 C1084 1.478 . S
C1083 H1077 0.930 . S
C1083 C1079 1.400 . S
C1083 C1082 1.385 . S
C1084 C1082 1.478 . S
C1084 C1086 1.381 . S
C1084 C1090 1.383 . S
C1085 C1081 1.495 . S
C1085 H1091 0.959 . S
C1085 H1092 0.961 . S
C1085 H1093 0.960 . S
C1086 C1084 1.381 . S
C1086 C1087 1.394 . S
C1086 H1094 0.930 . S
C1087 C1086 1.394 . S
C1087 C1088 1.383 . S
C1087 H1095 0.929 . S
C1088 C1087 1.383 . S
C1088 C1089 1.377 . S
C1089 H1073 0.930 . S
C1089 C1088 1.377 . S
C1089 C1090 1.379 . S
C1090 H1074 0.931 . S
C1090 C1084 1.383 . S
C1090 C1089 1.379 . S
H1091 C1085 0.959 . S
H1092 C1085 0.961 . S
H1093 C1085 0.960 . S
H1094 C1086 0.930 . S
H1095 C1087 0.929 . S
C241 C61 1.644 . S
C260 C95 1.737 1_545 S
C296 C135 1.498 . S
C277 C70 1.482 . S
C332 C154 1.779 . S
C313 C43 1.702 . S
C368 C215 1.263 . S
C349 C52 1.241 . S
C404 C74 1.739 1_565 S
C385 C25 1.650 . S
C421 C34 1.483 . S
C440 C114 1.504 . S
C457 C7 1.703 . S
C476 C175 1.773 . S
C493 C16 1.240 . S
C512 C194 1.278 . S
C548 C76 0.488 . S
C529 C50 0.520 . S
C584 C116 0.330 . S
C565 C59 0.192 1_545 S
C620 C172 0.467 . S
C601 C67 0.503 . S
C637 C41 0.185 . S
C656 C196 0.255 . S
C673 C14 0.537 . S
C692 C97 0.521 . S
C728 C137 0.292 . S
C709 C23 0.180 . S
C764 C183 0.441 . S
C745 C31 0.492 . S
C781 C5 0.195 . S
C800 C217 0.304 1_554 S
C817 C49 1.452 . S
C836 C92 1.571 . S
C853 C58 1.975 1_545 S
C872 C132 2.151 . S
C908 C156 1.526 . S
C889 C68 1.529 . S
C944 C212 2.110 . S
C925 C40 1.955 . S
C961 C13 1.441 . S
C980 C103 1.587 . S
C1016 C143 2.141 . S
C997 C22 1.977 . S
C1052 C177 1.562 . S
C1033 C32 1.529 . S
C1069 C4 1.951 . S
C1088 C223 2.118 . S
