# Generated by pormake.
# Topology eea, (3,6)-cn, num edge types: 1
# Building blocks:
#     Node 0, Type 0, BuildingBlock: QEWDON_clean_linker_0, # of connection points: 3
#     Node 1, Type 0, BuildingBlock: QEWDON_clean_linker_0, # of connection points: 3
#     Node 2, Type 0, BuildingBlock: QEWDON_clean_linker_0, # of connection points: 3
#     Node 3, Type 0, BuildingBlock: QEWDON_clean_linker_0, # of connection points: 3
#     Node 4, Type 0, BuildingBlock: QEWDON_clean_linker_0, # of connection points: 3
#     Node 5, Type 0, BuildingBlock: QEWDON_clean_linker_0, # of connection points: 3
#     Node 6, Type 0, BuildingBlock: QEWDON_clean_linker_0, # of connection points: 3
#     Node 7, Type 0, BuildingBlock: QEWDON_clean_linker_0, # of connection points: 3
#     Node 8, Type 0, BuildingBlock: QEWDON_clean_linker_0, # of connection points: 3
#     Node 9, Type 0, BuildingBlock: QEWDON_clean_linker_0, # of connection points: 3
#     Node 10, Type 0, BuildingBlock: QEWDON_clean_linker_0, # of connection points: 3
#     Node 11, Type 0, BuildingBlock: QEWDON_clean_linker_0, # of connection points: 3
#     Node 12, Type 0, BuildingBlock: QEWDON_clean_linker_0, # of connection points: 3
#     Node 13, Type 0, BuildingBlock: QEWDON_clean_linker_0, # of connection points: 3
#     Node 14, Type 0, BuildingBlock: QEWDON_clean_linker_0, # of connection points: 3
#     Node 15, Type 0, BuildingBlock: QEWDON_clean_linker_0, # of connection points: 3
#     Node 16, Type 0, BuildingBlock: QEWDON_clean_linker_0, # of connection points: 3
#     Node 17, Type 0, BuildingBlock: QEWDON_clean_linker_0, # of connection points: 3
#     Node 18, Type 1, BuildingBlock: KUMBUR_clean_sbu_0, # of connection points: 6
#     Node 19, Type 1, BuildingBlock: KUMBUR_clean_sbu_0, # of connection points: 6
#     Node 20, Type 1, BuildingBlock: KUMBUR_clean_sbu_0, # of connection points: 6
#     Node 21, Type 1, BuildingBlock: KUMBUR_clean_sbu_0, # of connection points: 6
#     Node 22, Type 1, BuildingBlock: KUMBUR_clean_sbu_0, # of connection points: 6
#     Node 23, Type 1, BuildingBlock: KUMBUR_clean_sbu_0, # of connection points: 6
#     Node 24, Type 1, BuildingBlock: KUMBUR_clean_sbu_0, # of connection points: 6
#     Node 25, Type 1, BuildingBlock: KUMBUR_clean_sbu_0, # of connection points: 6
#     Node 26, Type 1, BuildingBlock: KUMBUR_clean_sbu_0, # of connection points: 6
#     Edge 27, Type (0, 1), BuildingBlock: AJUNOK_clean_linker_0, # of connection points: 2
#     Edge 28, Type (0, 1), BuildingBlock: AJUNOK_clean_linker_0, # of connection points: 2
#     Edge 29, Type (0, 1), BuildingBlock: AJUNOK_clean_linker_0, # of connection points: 2
#     Edge 30, Type (0, 1), BuildingBlock: AJUNOK_clean_linker_0, # of connection points: 2
#     Edge 31, Type (0, 1), BuildingBlock: AJUNOK_clean_linker_0, # of connection points: 2
#     Edge 32, Type (0, 1), BuildingBlock: AJUNOK_clean_linker_0, # of connection points: 2
#     Edge 33, Type (0, 1), BuildingBlock: AJUNOK_clean_linker_0, # of connection points: 2
#     Edge 34, Type (0, 1), BuildingBlock: AJUNOK_clean_linker_0, # of connection points: 2
#     Edge 35, Type (0, 1), BuildingBlock: AJUNOK_clean_linker_0, # of connection points: 2
#     Edge 36, Type (0, 1), BuildingBlock: AJUNOK_clean_linker_0, # of connection points: 2
#     Edge 37, Type (0, 1), BuildingBlock: AJUNOK_clean_linker_0, # of connection points: 2
#     Edge 38, Type (0, 1), BuildingBlock: AJUNOK_clean_linker_0, # of connection points: 2
#     Edge 39, Type (0, 1), BuildingBlock: AJUNOK_clean_linker_0, # of connection points: 2
#     Edge 40, Type (0, 1), BuildingBlock: AJUNOK_clean_linker_0, # of connection points: 2
#     Edge 41, Type (0, 1), BuildingBlock: AJUNOK_clean_linker_0, # of connection points: 2
#     Edge 42, Type (0, 1), BuildingBlock: AJUNOK_clean_linker_0, # of connection points: 2
#     Edge 43, Type (0, 1), BuildingBlock: AJUNOK_clean_linker_0, # of connection points: 2
#     Edge 44, Type (0, 1), BuildingBlock: AJUNOK_clean_linker_0, # of connection points: 2
#     Edge 45, Type (0, 1), BuildingBlock: AJUNOK_clean_linker_0, # of connection points: 2
#     Edge 46, Type (0, 1), BuildingBlock: AJUNOK_clean_linker_0, # of connection points: 2
#     Edge 47, Type (0, 1), BuildingBlock: AJUNOK_clean_linker_0, # of connection points: 2
#     Edge 48, Type (0, 1), BuildingBlock: AJUNOK_clean_linker_0, # of connection points: 2
#     Edge 49, Type (0, 1), BuildingBlock: AJUNOK_clean_linker_0, # of connection points: 2
#     Edge 50, Type (0, 1), BuildingBlock: AJUNOK_clean_linker_0, # of connection points: 2
#     Edge 51, Type (0, 1), BuildingBlock: AJUNOK_clean_linker_0, # of connection points: 2
#     Edge 52, Type (0, 1), BuildingBlock: AJUNOK_clean_linker_0, # of connection points: 2
#     Edge 53, Type (0, 1), BuildingBlock: AJUNOK_clean_linker_0, # of connection points: 2
#     Edge 54, Type (0, 1), BuildingBlock: AJUNOK_clean_linker_0, # of connection points: 2
#     Edge 55, Type (0, 1), BuildingBlock: AJUNOK_clean_linker_0, # of connection points: 2
#     Edge 56, Type (0, 1), BuildingBlock: AJUNOK_clean_linker_0, # of connection points: 2
#     Edge 57, Type (0, 1), BuildingBlock: AJUNOK_clean_linker_0, # of connection points: 2
#     Edge 58, Type (0, 1), BuildingBlock: AJUNOK_clean_linker_0, # of connection points: 2
#     Edge 59, Type (0, 1), BuildingBlock: AJUNOK_clean_linker_0, # of connection points: 2
#     Edge 60, Type (0, 1), BuildingBlock: AJUNOK_clean_linker_0, # of connection points: 2
#     Edge 61, Type (0, 1), BuildingBlock: AJUNOK_clean_linker_0, # of connection points: 2
#     Edge 62, Type (0, 1), BuildingBlock: AJUNOK_clean_linker_0, # of connection points: 2
#     Edge 63, Type (0, 1), BuildingBlock: AJUNOK_clean_linker_0, # of connection points: 2
#     Edge 64, Type (0, 1), BuildingBlock: AJUNOK_clean_linker_0, # of connection points: 2
#     Edge 65, Type (0, 1), BuildingBlock: AJUNOK_clean_linker_0, # of connection points: 2
#     Edge 66, Type (0, 1), BuildingBlock: AJUNOK_clean_linker_0, # of connection points: 2
#     Edge 67, Type (0, 1), BuildingBlock: AJUNOK_clean_linker_0, # of connection points: 2
#     Edge 68, Type (0, 1), BuildingBlock: AJUNOK_clean_linker_0, # of connection points: 2
#     Edge 69, Type (0, 1), BuildingBlock: AJUNOK_clean_linker_0, # of connection points: 2
#     Edge 70, Type (0, 1), BuildingBlock: AJUNOK_clean_linker_0, # of connection points: 2
#     Edge 71, Type (0, 1), BuildingBlock: AJUNOK_clean_linker_0, # of connection points: 2
#     Edge 72, Type (0, 1), BuildingBlock: AJUNOK_clean_linker_0, # of connection points: 2
#     Edge 73, Type (0, 1), BuildingBlock: AJUNOK_clean_linker_0, # of connection points: 2
#     Edge 74, Type (0, 1), BuildingBlock: AJUNOK_clean_linker_0, # of connection points: 2
#     Edge 75, Type (0, 1), BuildingBlock: AJUNOK_clean_linker_0, # of connection points: 2
#     Edge 76, Type (0, 1), BuildingBlock: AJUNOK_clean_linker_0, # of connection points: 2
#     Edge 77, Type (0, 1), BuildingBlock: AJUNOK_clean_linker_0, # of connection points: 2
#     Edge 78, Type (0, 1), BuildingBlock: AJUNOK_clean_linker_0, # of connection points: 2
#     Edge 79, Type (0, 1), BuildingBlock: AJUNOK_clean_linker_0, # of connection points: 2
#     Edge 80, Type (0, 1), BuildingBlock: AJUNOK_clean_linker_0, # of connection points: 2
# Relax obj value: 0.047
# Max RMSD: 0.224
# Mean RMSD: 0.160
data_MOF--net-eea--node1-KUMBUR_clean_sbu_0--node2-QEWDON_clean_linker_0--edge1-AJUNOK_clean_linker_0
_symmetry_space_group_name_H-M    P1
_symmetry_Int_Tables_number       1
_symmetry_cell_setting            triclinic
loop_
_symmetry_equiv_pos_as_xyz
'x, y, z'
_cell_length_a     42.03745
_cell_length_b     43.66637
_cell_length_c     50.180739
_cell_angle_alpha  89.781367
_cell_angle_beta   89.821615
_cell_angle_gamma 119.83837
loop_
_atom_site_label
_atom_site_type_symbol
_atom_site_fract_x
_atom_site_fract_y
_atom_site_fract_z
_atom_type_partial_charge
H0 H 0.28885 0.16095 0.42572 0.0
C1 C 0.27908 0.1345 0.41825 0.0
C2 C 0.2806 0.10911 0.43463 0.0
C3 C 0.26792 0.12672 0.39155 0.0
H4 H 0.2676 0.0551 0.43792 0.0
C5 C 0.2684 0.07509 0.42465 0.0
C6 C 0.25948 0.06733 0.39762 0.0
C7 C 0.25866 0.09323 0.38133 0.0
C8 C 0.26954 0.1546 0.37351 0.0
H9 H 0.25174 0.08773 0.36046 0.0
C10 C 0.25432 0.17581 0.38097 0.0
C11 C 0.25544 0.20133 0.36314 0.0
C12 C 0.28652 0.16 0.34838 0.0
H13 H 0.29902 0.1446 0.34228 0.0
C14 C 0.28794 0.18555 0.33091 0.0
H15 H 0.24083 0.17183 0.40014 0.0
C16 C 0.27232 0.20596 0.33814 0.0
H17 H 0.27323 0.22535 0.32415 0.0
H18 H 0.30102 0.1894 0.31161 0.0
H19 H 0.89862 0.10658 0.4361 0.0
C20 C 0.92098 0.12911 0.42614 0.0
C21 C 0.93466 0.16292 0.43713 0.0
C22 C 0.93743 0.12391 0.40345 0.0
H23 H 0.97542 0.21792 0.43339 0.0
C24 C 0.96479 0.19189 0.42487 0.0
C25 C 0.98188 0.18757 0.40217 0.0
C26 C 0.96751 0.1535 0.39135 0.0
C27 C 0.92577 0.08731 0.39414 0.0
H28 H 0.97995 0.14993 0.37357 0.0
C29 C 0.8884 0.0604 0.39359 0.0
C30 C 0.87868 0.02556 0.38646 0.0
C31 C 0.95277 0.07864 0.3871 0.0
H32 H 0.98163 0.09825 0.38779 0.0
C33 C 0.94307 0.04429 0.37988 0.0
H34 H 0.86705 0.06639 0.39876 0.0
C35 C 0.90635 0.01791 0.37965 0.0
H36 H 0.89945 0.99139 0.37397 0.0
H37 H 0.96417 0.03802 0.37465 0.0
H38 H 0.92397 0.78697 0.43928 0.0
C39 C 0.9023 0.78823 0.42852 0.0
C40 C 0.86625 0.76972 0.4384 0.0
C41 C 0.91131 0.81136 0.40666 0.0
H42 H 0.81077 0.75847 0.43291 0.0
C43 C 0.83855 0.77273 0.42513 0.0
C44 C 0.84635 0.79458 0.40248 0.0
C45 C 0.88318 0.81463 0.39379 0.0
C46 C 0.9506 0.838 0.40235 0.0
H47 H 0.89012 0.83324 0.37746 0.0
C48 C 0.9771 0.82922 0.39315 0.0
C49 C 1.0151 0.8548 0.39357 0.0
C50 C 0.9623 0.87217 0.41167 0.0
H51 H 0.94262 0.8793 0.4191 0.0
C52 C 0.99943 0.89665 0.41343 0.0
H53 H 0.96816 0.8029 0.38581 0.0
C54 C 0.02547 0.88782 0.40522 0.0
H55 H 0.05402 0.90713 0.40833 0.0
H56 H 1.00814 0.92241 0.42183 0.0
H57 H 0.15646 0.23203 0.60717 0.0
C58 C 0.13311 0.23106 0.61725 0.0
C59 C 0.11833 0.25152 0.60751 0.0
C60 C 0.11601 0.2067 0.63807 0.0
H61 H 0.07434 0.26296 0.61124 0.0
C62 C 0.08611 0.24776 0.61928 0.0
C63 C 0.06842 0.22402 0.64068 0.0
C64 C 0.08388 0.20358 0.64993 0.0
C65 C 0.12671 0.1792 0.64235 0.0
H66 H 0.07072 0.18464 0.66593 0.0
C67 C 0.16276 0.18731 0.64969 0.0
C68 C 0.17333 0.16098 0.64865 0.0
C69 C 0.10146 0.14474 0.63453 0.0
H70 H 0.07398 0.13796 0.62852 0.0
C71 C 0.11211 0.11944 0.6321 0.0
H72 H 0.18222 0.21383 0.65601 0.0
C73 C 0.14778 0.12772 0.63821 0.0
H74 H 0.15526 0.1078 0.63421 0.0
H75 H 0.09288 0.09348 0.62464 0.0
H76 H 0.7992 0.91656 0.60553 0.0
C77 C 0.79917 0.89416 0.6149 0.0
C78 C 0.77762 0.86027 0.60416 0.0
C79 C 0.82171 0.8995 0.63703 0.0
H80 H 0.76173 0.80521 0.608 0.0
C81 C 0.77789 0.83138 0.61634 0.0
C82 C 0.79957 0.83614 0.63886 0.0
C83 C 0.82134 0.87021 0.64911 0.0
C84 C 0.84791 0.9359 0.64599 0.0
H85 H 0.83884 0.87402 0.66606 0.0
C86 C 0.83729 0.96179 0.64797 0.0
C87 C 0.86314 0.9967 0.6547 0.0
C88 C 0.88454 0.94541 0.65128 0.0
H89 H 0.89369 0.92628 0.64952 0.0
C90 C 0.9101 0.98001 0.6581 0.0
H91 H 0.80916 0.95494 0.64413 0.0
C92 C 0.89957 1.00559 0.65966 0.0
H93 H 0.91982 0.03234 0.66499 0.0
H94 H 0.93825 0.98708 0.66197 0.0
H95 H 0.10773 0.87502 0.6103 0.0
C96 C 0.13097 0.89762 0.61911 0.0
C97 C 0.16533 0.91359 0.60579 0.0
C98 C 0.1268 0.91102 0.64372 0.0
H99 H 0.22118 0.95698 0.60659 0.0
C100 C 0.19509 0.94368 0.61705 0.0
C101 C 0.19186 0.9568 0.64172 0.0
C102 C 0.15815 0.93969 0.65515 0.0
C103 C 0.09018 0.8972 0.65742 0.0
H104 H 0.15628 0.94981 0.67438 0.0
C105 C 0.06145 0.86148 0.65585 0.0
C106 C 0.02815 0.84994 0.67016 0.0
C107 C 0.08395 0.92081 0.67275 0.0
H108 H 0.10358 0.94877 0.67322 0.0
C109 C 0.05236 0.90905 0.68798 0.0
H110 H 0.06472 0.84288 0.64359 0.0
C111 C 0.02514 0.87391 0.68719 0.0
H112 H 1.0011 0.86573 0.69958 0.0
H113 H 0.0488 0.92742 0.70032 0.0
H114 H 0.90791 0.46792 0.76902 0.0
C115 C 0.90803 0.44565 0.75967 0.0
C116 C 0.92457 0.42891 0.77288 0.0
C117 C 0.88991 0.43238 0.73535 0.0
H118 H 0.93368 0.38482 0.77336 0.0
C119 C 0.92283 0.39862 0.76195 0.0
C120 C 0.90682 0.38597 0.73692 0.0
C121 C 0.89097 0.40356 0.72363 0.0
C122 C 0.86722 0.44633 0.72325 0.0
H123 H 0.8788 0.39447 0.70422 0.0
C124 C 0.87813 0.48261 0.72399 0.0
C125 C 0.85532 0.49458 0.71332 0.0
C126 C 0.83317 0.42262 0.71176 0.0
H127 H 0.82334 0.39451 0.71148 0.0
C128 C 0.81079 0.43466 0.70107 0.0
H129 H 0.90422 0.50148 0.73258 0.0
C130 C 0.82176 0.47043 0.70182 0.0
H131 H 0.80398 0.47934 0.69347 0.0
H132 H 0.7847 0.41614 0.69235 0.0
H133 H 0.56451 0.4327 0.75939 0.0
C134 C 0.58679 0.45686 0.75143 0.0
C135 C 0.60113 0.48723 0.76755 0.0
C136 C 0.60098 0.45784 0.72561 0.0
H137 H 0.64442 0.54152 0.77115 0.0
C138 C 0.63255 0.51813 0.75883 0.0
C139 C 0.64867 0.51932 0.73412 0.0
C140 C 0.63195 0.48999 0.71734 0.0
C141 C 0.58356 0.42621 0.70716 0.0
H142 H 0.64358 0.49349 0.69765 0.0
C143 C 0.54893 0.39565 0.71271 0.0
C144 C 0.5336 0.36686 0.69496 0.0
C145 C 0.60177 0.42616 0.68334 0.0
H146 H 0.62901 0.44678 0.6782 0.0
C147 C 0.58547 0.39878 0.66516 0.0
H148 H 0.53396 0.39321 0.73082 0.0
C149 C 0.55161 0.36962 0.67071 0.0
H150 H 0.54009 0.34831 0.65639 0.0
H151 H 0.59971 0.39978 0.64686 0.0
H152 H 0.59524 0.11447 0.76611 0.0
C153 C 0.57271 0.11603 0.75712 0.0
C154 C 0.53768 0.09805 0.7694 0.0
C155 C 0.57871 0.13636 0.73365 0.0
H156 H 0.48248 0.08978 0.76845 0.0
C157 C 0.50884 0.10154 0.75839 0.0
C158 C 0.51369 0.12091 0.73498 0.0
C159 C 0.54829 0.13758 0.7225 0.0
C160 C 0.6166 0.15824 0.7215 0.0
H161 H 0.5512 0.15173 0.70407 0.0
C162 C 0.64476 0.14902 0.72323 0.0
C163 C 0.68002 0.17127 0.7118 0.0
C164 C 0.62511 0.19005 0.70828 0.0
H165 H 0.60575 0.19952 0.70748 0.0
C166 C 0.65904 0.21092 0.69616 0.0
H167 H 0.63963 0.12517 0.73355 0.0
C168 C 0.68607 0.20157 0.6977 0.0
H169 H 0.71227 0.21858 0.68814 0.0
H170 H 0.66464 0.2349 0.6858 0.0
H171 H 0.81606 0.55776 0.94274 0.0
C172 C 0.79297 0.55773 0.95246 0.0
C173 C 0.77895 0.57849 0.94191 0.0
C174 C 0.77584 0.53479 0.97411 0.0
H175 H 0.73591 0.59143 0.94499 0.0
C176 C 0.74714 0.576 0.95348 0.0
C177 C 0.72933 0.55345 0.97546 0.0
C178 C 0.74426 0.5331 0.9857 0.0
C179 C 0.78748 0.5086 0.98137 0.0
H180 H 0.73125 0.5156 1.00253 0.0
C181 C 0.82469 0.51858 0.9862 0.0
C182 C 0.83572 0.49268 0.98886 0.0
C183 C 0.7612 0.47264 0.98039 0.0
H184 H 0.73267 0.46422 0.9765 0.0
C185 C 0.77158 0.44711 0.9828 0.0
H186 H 0.84441 0.54634 0.98806 0.0
C187 C 0.80827 0.45689 0.9864 0.0
H188 H 0.81491 0.43594 0.98683 0.0
H189 H 0.75112 0.41945 0.98118 0.0
H190 H 0.46554 0.25208 0.94256 0.0
C191 C 0.46438 0.22939 0.95236 0.0
C192 C 0.44232 0.19564 0.9416 0.0
C193 C 0.48654 0.23445 0.97468 0.0
H194 H 0.42648 0.14058 0.94483 0.0
C195 C 0.44325 0.16671 0.95309 0.0
C196 C 0.46602 0.17121 0.97493 0.0
C197 C 0.48692 0.20501 0.98601 0.0
C198 C 0.51142 0.2709 0.98453 0.0
H199 H 0.50441 0.2085 1.00289 0.0
C200 C 0.50004 0.29641 0.98524 0.0
C201 C 0.52483 0.33153 0.99232 0.0
C202 C 0.54767 0.28107 0.99173 0.0
H203 H 0.55758 0.26245 0.99095 0.0
C204 C 0.57207 0.31578 0.9991 0.0
H205 H 0.4722 0.28918 0.97997 0.0
C206 C 0.56087 0.34094 0.99922 0.0
H207 H 0.58032 0.36781 1.00485 0.0
H208 H 0.59996 0.32333 1.00442 0.0
H209 H 0.78304 0.20593 0.93549 0.0
C210 C 0.8032 0.22828 0.9468 0.0
C211 C 0.84022 0.24525 0.9389 0.0
C212 C 0.79138 0.24221 0.96725 0.0
H213 H 0.89448 0.28852 0.94689 0.0
C214 C 0.86581 0.27545 0.95272 0.0
C215 C 0.85467 0.28965 0.97345 0.0
C216 C 0.81729 0.27287 0.98061 0.0
C217 C 0.75172 0.23013 0.96952 0.0
H218 H 0.80804 0.28481 0.99537 0.0
C219 C 0.72603 0.19662 0.98002 0.0
C220 C 0.68792 0.18463 0.97877 0.0
C221 C 0.73923 0.25148 0.958 0.0
H222 H 0.75848 0.27706 0.94959 0.0
C223 C 0.70189 0.23933 0.95577 0.0
H224 H 0.73571 0.18021 0.98906 0.0
C225 C 0.67651 0.20602 0.96547 0.0
H226 H 0.64776 0.19693 0.96212 0.0
H227 H 0.69252 0.25549 0.94594 0.0
H228 H 0.58813 0.80789 0.10267 0.0
C229 C 0.58585 0.78478 0.09293 0.0
C230 C 0.60722 0.77018 0.10194 0.0
C231 C 0.56019 0.76872 0.07238 0.0
H232 H 0.61778 0.72673 0.09697 0.0
C233 C 0.60319 0.73959 0.08951 0.0
C234 C 0.57863 0.72398 0.06843 0.0
C235 C 0.55712 0.73846 0.06004 0.0
C236 C 0.53404 0.78126 0.0657 0.0
H237 H 0.53745 0.72566 0.0442 0.0
C238 C 0.54557 0.8176 0.06344 0.0
C239 C 0.51978 0.82862 0.05868 0.0
C240 C 0.49656 0.75643 0.06276 0.0
H241 H 0.48668 0.72841 0.06485 0.0
C242 C 0.47115 0.76741 0.05784 0.0
H243 H 0.57431 0.83718 0.0655 0.0
C244 C 0.4826 0.80326 0.0559 0.0
H245 H 0.46242 0.81126 0.05208 0.0
H246 H 0.44239 0.74805 0.05573 0.0
H247 H 0.23215 0.76476 0.09841 0.0
C248 C 0.25535 0.78766 0.08951 0.0
C249 C 0.26938 0.82041 0.1022 0.0
C250 C 0.27214 0.78407 0.06631 0.0
H251 H 0.31148 0.87514 0.10164 0.0
C252 C 0.30048 0.85001 0.09155 0.0
C253 C 0.31757 0.84744 0.06816 0.0
C254 C 0.30288 0.81443 0.05553 0.0
C255 C 0.25909 0.74842 0.05434 0.0
H256 H 0.31531 0.81249 0.03715 0.0
C257 C 0.22151 0.72203 0.05449 0.0
C258 C 0.21032 0.68828 0.04401 0.0
C259 C 0.2848 0.74007 0.0435 0.0
H260 H 0.31387 0.75904 0.04365 0.0
C261 C 0.27356 0.70676 0.03292 0.0
H262 H 0.20098 0.72762 0.06248 0.0
C263 C 0.2366 0.68102 0.03315 0.0
H264 H 0.22844 0.65524 0.02494 0.0
H265 H 0.29367 0.70078 0.0247 0.0
H266 H 0.25799 0.45189 0.10294 0.0
C267 C 0.23542 0.4525 0.09303 0.0
C268 C 0.20001 0.43352 0.10402 0.0
C269 C 0.24265 0.47527 0.07115 0.0
H270 H 0.14426 0.42218 0.10121 0.0
C271 C 0.17129 0.43621 0.09216 0.0
C272 C 0.1771 0.45738 0.06939 0.0
C273 C 0.21329 0.47761 0.05937 0.0
C274 C 0.28151 0.50231 0.06545 0.0
H275 H 0.21883 0.49573 0.0429 0.0
C276 C 0.3085 0.49363 0.05725 0.0
C277 C 0.34629 0.51994 0.05647 0.0
C278 C 0.29253 0.53722 0.07244 0.0
H279 H 0.27257 0.54441 0.07907 0.0
C280 C 0.32947 0.56259 0.07306 0.0
H281 H 0.30004 0.46674 0.05164 0.0
C282 C 0.35601 0.55387 0.06599 0.0
H283 H 0.38439 0.57399 0.06846 0.0
H284 H 0.33769 0.58901 0.07981 0.0
H285 H 0.48163 0.89045 0.27971 0.0
C286 C 0.45927 0.8921 0.289 0.0
C287 C 0.44484 0.91124 0.27593 0.0
C288 C 0.44425 0.87421 0.31335 0.0
H289 H 0.40347 0.92683 0.27798 0.0
C290 C 0.4146 0.91197 0.28751 0.0
C291 C 0.39828 0.89364 0.31129 0.0
C292 C 0.41382 0.8757 0.32429 0.0
C293 C 0.4588 0.85268 0.32695 0.0
H294 H 0.40205 0.86331 0.34325 0.0
C295 C 0.49577 0.85992 0.32413 0.0
C296 C 0.50793 0.83879 0.33747 0.0
C297 C 0.43475 0.82365 0.34302 0.0
H298 H 0.40593 0.81535 0.34473 0.0
C299 C 0.44708 0.80424 0.35717 0.0
H300 H 0.51491 0.88151 0.3116 0.0
C301 C 0.48322 0.81199 0.35478 0.0
H302 H 0.49157 0.7963 0.36637 0.0
H303 H 0.4283 0.78267 0.36992 0.0
H304 H 0.14039 0.59115 0.2743 0.0
C305 C 0.13883 0.56835 0.2842 0.0
C306 C 0.11826 0.53486 0.27262 0.0
C307 C 0.15859 0.57288 0.30774 0.0
H308 H 0.10549 0.48072 0.27406 0.0
C309 C 0.11941 0.50593 0.28402 0.0
C310 C 0.13872 0.50954 0.30781 0.0
C311 C 0.15735 0.5431 0.31979 0.0
C312 C 0.18265 0.609 0.31864 0.0
H313 H 0.17143 0.54622 0.33848 0.0
C314 C 0.17226 0.63527 0.31788 0.0
C315 C 0.19657 0.66983 0.32665 0.0
C316 C 0.21742 0.61794 0.32872 0.0
H317 H 0.22673 0.59885 0.32908 0.0
C318 C 0.24121 0.65196 0.33775 0.0
H319 H 0.14565 0.62907 0.31024 0.0
C320 C 0.231 0.67777 0.33663 0.0
H321 H 0.25002 0.70407 0.34369 0.0
H322 H 0.2679 0.65847 0.34537 0.0
H323 H 0.4404 0.5423 0.2771 0.0
C324 C 0.46326 0.56602 0.28501 0.0
C325 C 0.49689 0.5824 0.27085 0.0
C326 C 0.45933 0.58028 0.30927 0.0
H327 H 0.55186 0.62715 0.26959 0.0
C328 C 0.52629 0.61384 0.28071 0.0
C329 C 0.52358 0.62806 0.30496 0.0
C330 C 0.49049 0.61069 0.31936 0.0
C331 C 0.42298 0.56499 0.32381 0.0
H332 H 0.48914 0.62163 0.33836 0.0
C333 C 0.39527 0.52876 0.32231 0.0
C334 C 0.36173 0.5158 0.33666 0.0
C335 C 0.41557 0.58763 0.33935 0.0
H336 H 0.43437 0.61577 0.34001 0.0
C337 C 0.38344 0.57476 0.35416 0.0
H338 H 0.39945 0.51088 0.30989 0.0
C339 C 0.35705 0.53929 0.35311 0.0
H340 H 0.33241 0.53036 0.36498 0.0
H341 H 0.37874 0.59256 0.36633 0.0
Tb342 Tb 0.50131 0.99315 0.99042 0.0
C343 C 0.5579 0.10397 0.07961 0.0
C344 C 0.62325 0.1267 0.07683 0.0
C345 C 0.60003 0.16408 0.09346 0.0
C346 C 0.58691 0.09927 0.07294 0.0
C347 C 0.56395 0.13606 0.09061 0.0
C348 C 0.62967 0.15942 0.08653 0.0
C349 C 0.49856 0.10917 0.09736 0.0
N350 N 0.52363 0.0762 0.07665 0.0
C351 C 0.49409 0.07784 0.08644 0.0
C352 C 0.53363 0.13862 0.0991 0.0
Tb353 Tb 0.51846 0.02592 0.05828 0.0
N354 N 0.57939 0.0672 0.06384 0.0
C355 C 0.60729 0.05991 0.06043 0.0
C356 C 0.65192 0.12003 0.07158 0.0
C357 C 0.64385 0.08631 0.06376 0.0
H358 H 0.46682 0.05522 0.08506 0.0
H359 H 0.66578 0.0806 0.06022 0.0
H360 H 0.65739 0.18094 0.08939 0.0
H361 H 0.47497 0.11058 0.1044 0.0
H362 H 0.60185 0.03418 0.05426 0.0
H363 H 0.35385 0.93465 0.98385 0.0
H364 H 0.68024 0.1404 0.07421 0.0
H365 H 0.55545 0.96504 0.96573 0.0
H366 H 0.41715 0.9832 0.98914 0.0
H367 H 0.5495 0.90859 0.95053 0.0
H368 H 0.6053 0.18912 0.1016 0.0
H369 H 0.34167 0.87396 0.97552 0.0
H370 H 0.36676 0.83338 0.96616 0.0
H371 H 0.53707 0.16282 0.10765 0.0
H372 H 0.42029 0.82614 0.95716 0.0
N373 N 0.44118 0.95049 0.98454 0.0
C374 C 0.41255 0.95703 0.98536 0.0
C375 C 0.36966 0.89524 0.97778 0.0
C376 C 0.39918 0.88916 0.97511 0.0
C377 C 0.37644 0.92947 0.98239 0.0
C378 C 0.43503 0.91778 0.97836 0.0
H379 H 0.48868 0.85429 0.95071 0.0
N380 N 0.49878 0.94245 0.97541 0.0
C381 C 0.52553 0.90954 0.95723 0.0
C382 C 0.46491 0.91355 0.97363 0.0
C383 C 0.52879 0.94145 0.96579 0.0
C384 C 0.49115 0.87892 0.95744 0.0
C385 C 0.46015 0.88085 0.96508 0.0
O386 O 0.53435 0.01499 0.95611 0.0
O387 O 0.53656 0.03552 0.017 0.0
O388 O 0.50322 0.0604 0.03662 0.0
O389 O 0.47933 0.02922 0.99688 0.0
O390 O 0.56141 0.02104 0.98889 0.0
O391 O 0.4788 1.00413 0.95657 0.0
O392 O 0.48739 0.00678 0.09385 0.0
O393 O 0.48211 0.98453 0.03147 0.0
O394 O 0.51313 0.95735 0.01299 0.0
O395 O 0.53938 0.98893 0.05198 0.0
O396 O 0.45877 1.00046 0.05991 0.0
O397 O 0.53806 0.00672 0.08884 0.0
C398 C 0.56766 0.04381 1.00726 0.0
C399 C 0.50395 1.00167 0.91461 0.0
C400 C 0.5092 0.01178 0.86615 0.0
C401 C 0.51238 0.02465 0.89244 0.0
C402 C 0.49918 0.97614 0.86263 0.0
C403 C 0.49214 0.96595 0.91015 0.0
C404 C 0.49031 0.95342 0.88442 0.0
C405 C 0.48637 0.0556 0.01338 0.0
C406 C 0.50841 0.01517 0.94221 0.0
C407 C 0.42456 0.85167 0.96331 0.0
C408 C 0.39409 0.85581 0.96839 0.0
C409 C 0.45144 0.97821 0.041 0.0
C410 C 0.52134 0.01195 0.13293 0.0
C411 C 0.50423 0.98795 0.15419 0.0
C412 C 0.51432 0.99857 0.18089 0.0
C413 C 0.54197 0.03349 0.1858 0.0
C414 C 0.54881 0.04657 0.13849 0.0
C415 C 0.55899 0.05722 0.16475 0.0
C416 C 0.53117 0.96234 0.03552 0.0
C417 C 0.5112 1.00021 0.1051 0.0
H418 H 0.52082 0.05218 0.89564 0.0
H419 H 0.49797 0.96565 0.8429 0.0
H420 H 0.4845 0.94761 0.92647 0.0
H421 H 0.4819 0.9259 0.88133 0.0
H422 H 0.48349 0.96098 0.14991 0.0
H423 H 0.55013 0.04261 0.206 0.0
H424 H 0.56267 0.06529 0.12256 0.0
H425 H 0.5802 0.08403 0.16883 0.0
Tb426 Tb 0.03528 0.49761 0.98987 0.0
C427 C 0.9206 0.45935 0.07827 0.0
C428 C 0.90462 0.50506 0.0729 0.0
C429 C 0.86011 0.44817 0.09167 0.0
C430 C 0.92994 0.49295 0.07027 0.0
C431 C 0.88615 0.437 0.0901 0.0
C432 C 0.8693 0.48215 0.08296 0.0
C433 C 0.90787 0.39681 0.10142 0.0
N434 N 0.94673 0.4499 0.07678 0.0
C435 C 0.94157 0.41993 0.08937 0.0
C436 C 0.8797 0.40498 0.10124 0.0
Tb437 Tb 1.00154 0.48944 0.05754 0.0
N438 N 0.96446 0.51423 0.06094 0.0
C439 C 0.97612 0.54903 0.05552 0.0
C440 C 0.91585 0.54001 0.06588 0.0
C441 C 0.95191 0.5622 0.05748 0.0
H442 H 0.96325 0.41344 0.08953 0.0
H443 H 0.9611 0.58947 0.05242 0.0
H444 H 0.84932 0.49082 0.08485 0.0
H445 H 0.90365 0.37271 0.11081 0.0
H446 H 1.00369 0.56671 0.04877 0.0
H447 H 0.08602 0.40533 0.98737 0.0
H448 H 0.89719 0.5503 0.06743 0.0
H449 H 0.06872 0.57493 0.95926 0.0
H450 H 0.03906 0.42288 0.99157 0.0
H451 H 0.12849 0.6212 0.94142 0.0
H452 H 0.83328 0.43122 0.10036 0.0
H453 H 0.15053 0.45026 0.97794 0.0
H454 H 0.19626 0.51316 0.96573 0.0
H455 H 0.85367 0.3871 0.11066 0.0
H456 H 0.20792 0.5724 0.95289 0.0
N457 N 0.07646 0.47777 0.98535 0.0
C458 C 0.06693 0.44295 0.98731 0.0
C459 C 0.12998 0.45821 0.97977 0.0
C460 C 0.13902 0.49332 0.97563 0.0
C461 C 0.09357 0.43277 0.98495 0.0
C462 C 0.11118 0.5022 0.97831 0.0
H463 H 0.18247 0.61274 0.94305 0.0
N464 N 0.08909 0.54126 0.97169 0.0
C465 C 0.12592 0.59723 0.94988 0.0
C466 C 0.11775 0.53525 0.97107 0.0
C467 C 0.0921 0.57093 0.95989 0.0
C468 C 0.15637 0.59244 0.95096 0.0
C469 C 0.15229 0.56074 0.96102 0.0
O470 O 1.01636 0.50742 0.95376 0.0
O471 O 0.99345 0.49569 0.0159 0.0
O472 O 0.96139 0.44033 0.03745 0.0
O473 O 0.9953 0.4421 0.99962 0.0
O474 O 1.00894 0.53 0.98487 0.0
O475 O 1.0161 0.45857 0.96035 0.0
O476 O 1.01999 0.47798 0.09324 0.0
O477 O 0.04317 0.49029 0.03153 0.0
O478 O 0.07532 0.54557 1.0097 0.0
O479 O 0.04486 0.54467 0.0491 0.0
O480 O 0.02314 0.45327 0.06132 0.0
O481 O 0.02262 0.52798 0.08755 0.0
C482 C 0.98596 0.51705 1.00433 0.0
C483 C 0.02428 0.47982 0.91617 0.0
C484 C 1.01298 0.47346 0.86827 0.0
C485 C 1.00074 0.4731 0.89448 0.0
C486 C 0.04955 0.48179 0.86411 0.0
C487 C 0.06052 0.48776 0.9116 0.0
C488 C 0.07312 0.48899 0.88565 0.0
C489 C 0.96624 0.4258 0.01562 0.0
C490 C 1.01026 0.47779 0.94334 0.0
C491 C 0.18098 0.55302 0.96019 0.0
C492 C 0.17434 0.5193 0.96751 0.0
C493 C 0.04684 0.46595 0.04226 0.0
C494 C 1.01429 0.50586 0.13162 0.0
C495 C 0.03812 0.51273 0.15323 0.0
C496 C 0.02547 0.51045 0.17963 0.0
C497 C 0.98835 0.50001 0.18401 0.0
C498 C 0.97787 0.49703 0.13655 0.0
C499 C 0.96488 0.4937 0.16258 0.0
C500 C 0.07206 0.5606 0.03153 0.0
C501 C 0.02771 0.50783 0.10415 0.0
H502 H 0.97291 0.4675 0.89809 0.0
H503 H 0.05972 0.48199 0.84421 0.0
H504 H 0.07896 0.4927 0.92799 0.0
H505 H 0.10111 0.49506 0.88226 0.0
H506 H 0.06653 0.52032 0.14947 0.0
H507 H 0.97738 0.49666 0.20403 0.0
H508 H 0.95943 0.49275 0.12039 0.0
H509 H 0.93652 0.48625 0.16617 0.0
Tb510 Tb 0.53926 0.514 0.05228 0.0
C511 C 0.48414 0.56784 0.95933 0.0
C512 C 0.41902 0.52631 0.95916 0.0
C513 C 0.44199 0.58561 0.94155 0.0
C514 C 0.45525 0.53481 0.96519 0.0
C515 C 0.47805 0.59349 0.94693 0.0
C516 C 0.4125 0.55207 0.94772 0.0
C517 C 0.5437 0.63162 0.9443 0.0
N518 N 0.51845 0.57414 0.96456 0.0
C519 C 0.54827 0.60512 0.95632 0.0
C520 C 0.5084 0.62591 0.93979 0.0
Tb521 Tb 0.52365 0.52912 0.98392 0.0
N522 N 0.46285 0.51071 0.97604 0.0
C523 C 0.43526 0.47659 0.97971 0.0
C524 C 0.39058 0.492 0.96432 0.0
C525 C 0.39881 0.46695 0.97437 0.0
H526 H 0.57571 0.60976 0.95962 0.0
H527 H 0.37709 0.44013 0.97802 0.0
H528 H 0.38484 0.54612 0.9431 0.0
H529 H 0.56739 0.65635 0.93841 0.0
H530 H 0.44077 0.4567 0.98749 0.0
H531 H 0.68629 0.59923 0.06089 0.0
H532 H 0.36235 0.48442 0.9601 0.0
H533 H 0.4865 0.43479 0.07888 0.0
H534 H 0.62276 0.5859 0.05478 0.0
H535 H 0.49353 0.38512 0.09566 0.0
H536 H 0.43668 0.60503 0.93223 0.0
H537 H 0.69971 0.55102 0.06961 0.0
H538 H 0.67576 0.48655 0.0792 0.0
H539 H 0.50491 0.64636 0.93029 0.0
H540 H 0.62287 0.42766 0.08852 0.0
N541 N 0.59965 0.53017 0.05928 0.0
C542 C 0.62779 0.56441 0.05874 0.0
C543 C 0.67159 0.54491 0.06697 0.0
C544 C 0.64254 0.51027 0.06946 0.0
C545 C 0.6641 0.57219 0.06217 0.0
C546 C 0.60649 0.5038 0.06571 0.0
H547 H 0.55461 0.38973 0.09543 0.0
N548 N 0.54296 0.46674 0.0687 0.0
C549 C 0.51716 0.40887 0.08825 0.0
C550 C 0.57701 0.47077 0.07059 0.0
C551 C 0.5133 0.43706 0.07885 0.0
C552 C 0.55169 0.41156 0.08806 0.0
C553 C 0.58234 0.44315 0.07982 0.0
O554 O 0.50575 0.5032 0.08633 0.0
O555 O 0.50374 0.52127 0.02474 0.0
O556 O 0.53556 0.57714 1.00548 0.0
O557 O 0.56094 0.57085 0.04526 0.0
O558 O 0.47901 0.48343 0.0532 0.0
O559 O 0.55975 0.54838 0.08517 0.0
O560 O 0.55652 0.54075 0.94934 0.0
O561 O 0.56013 0.52361 1.0116 0.0
O562 O 0.52873 0.4668 0.03072 0.0
O563 O 0.5032 0.47228 0.99093 0.0
O564 O 0.58319 0.56255 0.98346 0.0
O565 O 0.50671 0.49114 0.95354 0.0
C566 C 0.47248 0.49943 0.03425 0.0
C567 C 0.53646 0.5217 0.12735 0.0
C568 C 0.52871 0.52507 0.17553 0.0
C569 C 0.52464 0.53396 0.14911 0.0
C570 C 0.54416 0.50328 0.1796 0.0
C571 C 0.55298 0.50119 0.13223 0.0
C572 C 0.55642 0.49173 0.15813 0.0
C573 C 0.55336 0.58952 0.02818 0.0
C574 C 0.53064 0.52964 0.09973 0.0
C575 C 0.61815 0.44869 0.08187 0.0
C576 C 0.64825 0.48224 0.07662 0.0
C577 C 0.59077 0.54763 1.00254 0.0
C578 C 0.52485 0.51352 0.90979 0.0
C579 C 0.54107 0.50435 0.88896 0.0
C580 C 0.53226 0.50659 0.86214 0.0
C581 C 0.50808 0.5193 0.85659 0.0
C582 C 0.49976 0.52472 0.90359 0.0
C583 C 0.49174 0.52795 0.87719 0.0
C584 C 0.51098 0.45396 1.00822 0.0
C585 C 0.53404 0.51116 0.93782 0.0
H586 H 0.51309 0.55089 0.14543 0.0
H587 H 0.54713 0.49539 0.19951 0.0
H588 H 0.56327 0.49241 0.11612 0.0
H589 H 0.5688 0.47548 0.16158 0.0
H590 H 0.56005 0.49511 0.89362 0.0
H591 H 0.5019 0.52279 0.83625 0.0
H592 H 0.48627 0.53092 0.91907 0.0
H593 H 0.47278 0.53721 0.87268 0.0
Tb594 Tb 0.16447 0.32698 0.32275 0.0
C595 C 0.22541 0.44081 0.4079 0.0
C596 C 0.29089 0.4638 0.40786 0.0
C597 C 0.26648 0.50211 0.41952 0.0
C598 C 0.25489 0.43598 0.40343 0.0
C599 C 0.23066 0.47371 0.41644 0.0
C600 C 0.29657 0.49712 0.41534 0.0
C601 C 0.16493 0.447 0.42072 0.0
N602 N 0.19134 0.41248 0.40516 0.0
C603 C 0.16117 0.41479 0.41248 0.0
C604 C 0.19981 0.47671 0.42241 0.0
Tb605 Tb 0.18782 0.36119 0.39007 0.0
N606 N 0.24809 0.40327 0.39658 0.0
C607 C 0.27621 0.39608 0.39563 0.0
C608 C 0.31988 0.45689 0.40567 0.0
C609 C 0.3124 0.42269 0.40006 0.0
H610 H 0.134 0.39212 0.41119 0.0
H611 H 0.33454 0.41684 0.39878 0.0
H612 H 0.32403 0.51892 0.41857 0.0
H613 H 0.14091 0.44886 0.4258 0.0
H614 H 0.27113 0.37014 0.39073 0.0
H615 H 1.01704 0.26908 0.31919 0.0
H616 H 0.34794 0.47751 0.4089 0.0
H617 H 0.21765 0.29836 0.29692 0.0
H618 H 0.08076 0.31723 0.3237 0.0
H619 H 0.21099 0.24219 0.2807 0.0
H620 H 0.27116 0.52771 0.42587 0.0
H621 H 1.00408 0.20833 0.30986 0.0
H622 H 0.0285 0.16764 0.29855 0.0
H623 H 0.20266 0.50156 0.42898 0.0
H624 H 0.08155 0.16037 0.28762 0.0
N625 N 0.10413 0.28431 0.31766 0.0
C626 C 0.07573 0.29106 0.31942 0.0
C627 C 0.0322 0.22945 0.31179 0.0
C628 C 0.06146 0.22321 0.30805 0.0
C629 C 0.03942 0.26371 0.31693 0.0
C630 C 0.09748 0.25165 0.3109 0.0
H631 H 0.14982 0.18832 0.28023 0.0
N632 N 0.16089 0.27642 0.30617 0.0
C633 C 0.18713 0.24329 0.28752 0.0
C634 C 0.12702 0.24754 0.30477 0.0
C635 C 0.19077 0.27512 0.29666 0.0
C636 C 0.15258 0.21291 0.28737 0.0
C637 C 0.12185 0.21492 0.29563 0.0
O638 O 0.1939 0.34687 0.28682 0.0
O639 O 0.20375 0.36647 0.34886 0.0
O640 O 0.18253 0.40002 0.3657 0.0
O641 O 0.14379 0.36364 0.33239 0.0
O642 O 0.22467 0.353 0.31781 0.0
O643 O 0.14181 0.34396 0.29263 0.0
O644 O 0.1566 0.34201 0.42538 0.0
O645 O 0.14842 0.32012 0.36433 0.0
O646 O 0.17414 0.28985 0.34546 0.0
O647 O 0.2089 0.32443 0.38119 0.0
O648 O 0.12818 0.33775 0.39354 0.0
O649 O 0.20855 0.34414 0.42151 0.0
C650 C 0.23378 0.37349 0.33805 0.0
C651 C 0.15781 0.33726 0.24859 0.0
C652 C 0.16249 0.347 0.20031 0.0
C653 C 0.17124 0.36031 0.22646 0.0
C654 C 0.13989 0.31048 0.19665 0.0
C655 C 0.13507 0.30098 0.24437 0.0
C656 C 0.12625 0.2877 0.21856 0.0
C657 C 0.15908 0.3936 0.34608 0.0
C658 C 0.16838 0.35116 0.27585 0.0
C659 C 0.08615 0.18583 0.29426 0.0
C660 C 0.05596 0.18997 0.3005 0.0
C661 C 0.11877 0.31515 0.37471 0.0
C662 C 0.19032 0.35112 0.46485 0.0
C663 C 0.17448 0.3283 0.48695 0.0
C664 C 0.18273 0.3415 0.51321 0.0
C665 C 0.20621 0.37792 0.51687 0.0
C666 C 0.21421 0.38716 0.46919 0.0
C667 C 0.2219 0.40046 0.49502 0.0
C668 C 0.19652 0.29597 0.36579 0.0
C669 C 0.18119 0.3373 0.43742 0.0
H670 H 0.18872 0.38842 0.22955 0.0
H671 H 0.13225 0.29962 0.1768 0.0
H672 H 0.12407 0.28289 0.26095 0.0
H673 H 0.10864 0.25964 0.21553 0.0
H674 H 0.15616 0.30036 0.48373 0.0
H675 H 0.21227 0.38908 0.53669 0.0
H676 H 0.22684 0.40508 0.45267 0.0
H677 H 0.24008 0.42841 0.49813 0.0
Tb678 Tb 0.70824 0.84066 0.32025 0.0
C679 C 0.58761 0.79352 0.40326 0.0
C680 C 0.57548 0.84205 0.40274 0.0
C681 C 0.52673 0.78318 0.41456 0.0
C682 C 0.59939 0.82855 0.39855 0.0
C683 C 0.55145 0.77053 0.41214 0.0
C684 C 0.53884 0.81901 0.41006 0.0
C685 C 0.56897 0.72652 0.42052 0.0
N686 N 0.61286 0.78297 0.40208 0.0
C687 C 0.60466 0.75068 0.41221 0.0
C688 C 0.54199 0.73624 0.41995 0.0
Tb689 Tb 0.67062 0.82344 0.38734 0.0
N690 N 0.63526 0.84997 0.39225 0.0
C691 C 0.64934 0.8858 0.39133 0.0
C692 C 0.58952 0.87846 0.40075 0.0
C693 C 0.62676 0.90047 0.39545 0.0
H694 H 0.62565 0.74333 0.41327 0.0
H695 H 0.63807 0.92877 0.39426 0.0
H696 H 0.51996 0.82882 0.41309 0.0
H697 H 0.56243 0.70061 0.42767 0.0
H698 H 0.67781 0.90359 0.38694 0.0
H699 H 0.76785 0.75594 0.31331 0.0
H700 H 0.57209 0.88988 0.40388 0.0
H701 H 0.7399 0.92124 0.29513 0.0
H702 H 0.71764 0.76917 0.31739 0.0
H703 H 0.79987 0.97188 0.2818 0.0
H704 H 0.49873 0.76589 0.42108 0.0
H705 H 0.8319 0.8045 0.30823 0.0
H706 H 0.87548 0.86943 0.30116 0.0
H707 H 0.5145 0.71774 0.42686 0.0
H708 H 0.88433 0.92875 0.29249 0.0
N709 N 0.75268 0.82502 0.31543 0.0
C710 C 0.7453 0.79076 0.31502 0.0
C711 C 0.80991 0.81053 0.31001 0.0
C712 C 0.81696 0.84534 0.30828 0.0
C713 C 0.77379 0.78306 0.31273 0.0
C714 C 0.78732 0.85168 0.3108 0.0
H715 H 0.85602 0.9671 0.28454 0.0
N716 N 0.76228 0.88876 0.30636 0.0
C717 C 0.79819 0.94764 0.2888 0.0
C718 C 0.79238 0.88488 0.30603 0.0
C719 C 0.76429 0.91891 0.29625 0.0
C720 C 0.82986 0.9449 0.29049 0.0
C721 C 0.82706 0.9129 0.29849 0.0
O722 O 0.69025 0.85266 0.28462 0.0
O723 O 0.66404 0.83373 0.34626 0.0
O724 O 0.63535 0.77546 0.3646 0.0
O725 O 0.66955 0.78353 0.32549 0.0
O726 O 0.67892 0.87079 0.3172 0.0
O727 O 0.69562 0.80641 0.28751 0.0
O728 O 0.68081 0.80428 0.42309 0.0
O729 O 0.71421 0.82837 0.36135 0.0
O730 O 0.74517 0.88735 0.3429 0.0
O731 O 0.71565 0.87887 0.38406 0.0
O732 O 0.69334 0.78818 0.38882 0.0
O733 O 0.6937 0.85834 0.41938 0.0
C734 C 0.65584 0.85553 0.33632 0.0
C735 C 0.70546 0.83365 0.24507 0.0
C736 C 0.69896 0.82757 0.19657 0.0
C737 C 0.68346 0.8189 0.22243 0.0
C738 C 0.73668 0.85189 0.19388 0.0
C739 C 0.74323 0.85639 0.24173 0.0
C740 C 0.75865 0.86569 0.21632 0.0
C741 C 0.64187 0.76386 0.34193 0.0
C742 C 0.68848 0.826 0.27185 0.0
C743 C 0.85729 0.90744 0.29785 0.0
C744 C 0.85224 0.87366 0.30278 0.0
C745 C 0.71803 0.80332 0.37062 0.0
C746 C 0.67777 0.83273 0.46213 0.0
C747 C 0.69984 0.83706 0.48429 0.0
C748 C 0.68745 0.83796 0.51022 0.0
C749 C 0.6521 0.83334 0.51364 0.0
C750 C 0.64276 0.82851 0.46593 0.0
C751 C 0.62992 0.82856 0.4916 0.0
C752 C 0.74199 0.89829 0.36668 0.0
C753 C 0.69248 0.83417 0.43528 0.0
H754 H 0.65438 0.80068 0.225 0.0
H755 H 0.74928 0.86062 0.17444 0.0
H756 H 0.76088 0.86734 0.25861 0.0
H757 H 0.78772 0.88395 0.21401 0.0
H758 H 0.72669 0.83981 0.48127 0.0
H759 H 0.64185 0.83402 0.53333 0.0
H760 H 0.62553 0.82556 0.44915 0.0
H761 H 0.60288 0.82533 0.4944 0.0
Tb762 Tb 0.2087 0.851 0.38463 0.0
C763 C 0.15168 0.90647 0.29423 0.0
C764 C 0.08627 0.86627 0.29539 0.0
C765 C 0.11 0.92615 0.2788 0.0
C766 C 0.12247 0.87374 0.30024 0.0
C767 C 0.14598 0.93291 0.28285 0.0
C768 C 0.08017 0.89286 0.28511 0.0
C769 C 0.21165 0.96937 0.27822 0.0
N770 N 0.18587 0.91169 0.29819 0.0
C771 C 0.2158 0.94214 0.28931 0.0
C772 C 0.17657 0.96491 0.27526 0.0
Tb773 Tb 0.19029 0.86583 0.31675 0.0
N774 N 0.12966 0.84888 0.31005 0.0
C775 C 0.10166 0.81493 0.3136 0.0
C776 C 0.05745 0.83213 0.30052 0.0
C777 C 0.06524 0.80625 0.30934 0.0
H778 H 0.24307 0.94588 0.29146 0.0
H779 H 0.04319 0.77955 0.3129 0.0
H780 H 0.05256 0.88774 0.28146 0.0
H781 H 0.23548 0.99372 0.27189 0.0
H782 H 0.10693 0.79449 0.32045 0.0
H783 H 0.35616 0.92711 0.39498 0.0
H784 H 0.02923 0.82532 0.29719 0.0
H785 H 0.14959 0.7695 0.40577 0.0
H786 H 0.29434 0.91797 0.38722 0.0
H787 H 0.1515 0.71666 0.42073 0.0
H788 H 0.10499 0.9462 0.27032 0.0
H789 H 0.36452 0.876 0.40488 0.0
H790 H 0.33575 0.81083 0.41417 0.0
H791 H 0.17339 0.98594 0.2665 0.0
H792 H 0.27984 0.75329 0.42113 0.0
N793 N 0.26744 0.86241 0.3925 0.0
C794 C 0.29732 0.89559 0.39204 0.0
C795 C 0.33721 0.87192 0.40167 0.0
C796 C 0.30637 0.83822 0.4037 0.0
C797 C 0.33258 0.90082 0.39623 0.0
C798 C 0.27149 0.83441 0.39917 0.0
H799 H 0.21086 0.71798 0.424 0.0
N800 N 0.20741 0.80056 0.39984 0.0
C801 C 0.17668 0.7405 0.41559 0.0
C802 C 0.24032 0.80225 0.40309 0.0
C803 C 0.17575 0.77062 0.40713 0.0
C804 C 0.21025 0.74133 0.41739 0.0
C805 C 0.2427 0.77268 0.4116 0.0
O806 O 0.17594 0.84223 0.41879 0.0
O807 O 0.17208 0.85808 0.35798 0.0
O808 O 0.20357 0.91408 0.33862 0.0
O809 O 0.23276 0.90823 0.37647 0.0
O810 O 0.14847 0.82011 0.38635 0.0
O811 O 0.23126 0.8853 0.41747 0.0
O812 O 0.22269 0.87488 0.2823 0.0
O813 O 0.2281 0.86187 0.34381 0.0
O814 O 0.20353 0.80734 0.36078 0.0
O815 O 0.16941 0.80895 0.32491 0.0
O816 O 0.24994 0.89871 0.31412 0.0
O817 O 0.16997 0.8282 0.28595 0.0
C818 C 0.14117 0.83599 0.36781 0.0
C819 C 0.2069 0.85897 0.45975 0.0
C820 C 0.19821 0.86082 0.50807 0.0
C821 C 0.19544 0.87123 0.48179 0.0
C822 C 0.21205 0.83762 0.51164 0.0
C823 C 0.22156 0.8368 0.46424 0.0
C824 C 0.22384 0.82599 0.48995 0.0
C825 C 0.2241 0.92716 0.36022 0.0
C826 C 0.20192 0.86788 0.43215 0.0
C827 C 0.27737 0.77578 0.41486 0.0
C828 C 0.30919 0.80853 0.4109 0.0
C829 C 0.25832 0.88542 0.33391 0.0
C830 C 0.19086 0.85057 0.24238 0.0
C831 C 0.20594 0.8397 0.22185 0.0
C832 C 0.20141 0.84586 0.19479 0.0
C833 C 0.18083 0.86245 0.18887 0.0
C834 C 0.16999 0.86639 0.23575 0.0
C835 C 0.16504 0.87228 0.20917 0.0
C836 C 0.18253 0.79276 0.3399 0.0
C837 C 0.19826 0.84643 0.27051 0.0
H838 H 0.18501 0.88915 0.47845 0.0
H839 H 0.21396 0.8285 0.53136 0.0
H840 H 0.23108 0.82759 0.44793 0.0
H841 H 0.2348 0.80848 0.49307 0.0
H842 H 0.22097 0.82638 0.2271 0.0
H843 H 0.17726 0.8683 0.16847 0.0
H844 H 0.15762 0.87432 0.25105 0.0
H845 H 0.14919 0.88488 0.20428 0.0
Tb846 Tb 0.83115 0.65999 0.65698 0.0
C847 C 0.90201 0.77271 0.7418 0.0
C848 C 0.96546 0.78766 0.73895 0.0
C849 C 0.95014 0.83204 0.75275 0.0
C850 C 0.9278 0.76327 0.73569 0.0
C851 C 0.9127 0.80672 0.7515 0.0
C852 C 0.97652 0.82245 0.74656 0.0
C853 C 0.84937 0.78594 0.76288 0.0
N854 N 0.86635 0.74708 0.74133 0.0
C855 C 0.84028 0.75258 0.75316 0.0
C856 C 0.88564 0.81344 0.76137 0.0
Tb857 Tb 0.85326 0.6932 0.72494 0.0
N858 N 0.91578 0.72915 0.7292 0.0
C859 C 0.94026 0.71713 0.72758 0.0
C860 C 0.99062 0.77583 0.73596 0.0
C861 C 0.97787 0.74023 0.73085 0.0
H862 H 0.81215 0.73134 0.7544 0.0
H863 H 0.99703 0.73059 0.72907 0.0
H864 H 1.00534 0.8417 0.7488 0.0
H865 H 0.82844 0.79037 0.7716 0.0
H866 H 0.93142 0.68995 0.72334 0.0
H867 H 0.68321 0.60068 0.65551 0.0
H868 H 1.01976 0.79368 0.73839 0.0
H869 H 0.88311 0.63312 0.62688 0.0
H870 H 0.74669 0.6494 0.65886 0.0
H871 H 0.87661 0.57726 0.60984 0.0
H872 H 0.95895 0.85849 0.75977 0.0
H873 H 0.67068 0.54004 0.64634 0.0
H874 H 0.69541 0.49984 0.6343 0.0
H875 H 0.89269 0.83916 0.76913 0.0
H876 H 0.74848 0.49336 0.62173 0.0
N877 N 0.77066 0.6169 0.65255 0.0
C878 C 0.742 0.62328 0.65471 0.0
C879 C 0.69876 0.56142 0.64776 0.0
C880 C 0.72816 0.55557 0.64337 0.0
C881 C 0.70574 0.59561 0.65284 0.0
C882 C 0.76414 0.58431 0.64564 0.0
H883 H 0.8163 0.52241 0.61188 0.0
N884 N 0.82732 0.60982 0.63929 0.0
C885 C 0.85307 0.57775 0.61812 0.0
C886 C 0.79366 0.58058 0.63875 0.0
C887 C 0.85661 0.60937 0.62769 0.0
C888 C 0.81902 0.54681 0.61941 0.0
C889 C 0.78854 0.54816 0.6292 0.0
O890 O 0.86101 0.68175 0.62136 0.0
O891 O 0.86906 0.70054 0.68344 0.0
O892 O 0.83976 0.72918 0.70323 0.0
O893 O 0.80898 0.69504 0.66597 0.0
O894 O 0.89129 0.68726 0.65282 0.0
O895 O 0.80752 0.67553 0.62663 0.0
O896 O 0.82133 0.67675 0.76017 0.0
O897 O 0.81466 0.65242 0.69876 0.0
O898 O 0.84478 0.62412 0.67721 0.0
O899 O 0.86843 0.65199 0.7181 0.0
O900 O 0.79414 0.67111 0.72764 0.0
O901 O 0.87013 0.67309 0.75681 0.0
C902 C 0.8994 0.70824 0.67271 0.0
C903 C 0.8253 0.67129 0.58265 0.0
C904 C 0.82885 0.68238 0.53451 0.0
C905 C 0.83742 0.69502 0.56088 0.0
C906 C 0.8083 0.64577 0.53032 0.0
C907 C 0.80428 0.63495 0.57787 0.0
C908 C 0.79603 0.62231 0.55187 0.0
C909 C 0.81904 0.72269 0.68166 0.0
C910 C 0.83477 0.68462 0.61016 0.0
C911 C 0.75301 0.5187 0.62861 0.0
C912 C 0.72281 0.5224 0.63573 0.0
C913 C 0.78509 0.64796 0.70914 0.0
C914 C 0.85296 0.68129 0.80008 0.0
C915 C 0.83668 0.65771 0.82174 0.0
C916 C 0.8457 0.66967 0.84827 0.0
C917 C 0.87042 0.7057 0.85263 0.0
C918 C 0.87816 0.71684 0.8051 0.0
C919 C 0.8866 0.72896 0.83121 0.0
C920 C 0.86163 0.62731 0.70006 0.0
C921 C 0.84333 0.66863 0.77241 0.0
H922 H 0.85368 0.72315 0.56445 0.0
H923 H 0.80116 0.63532 0.51033 0.0
H924 H 0.79412 0.61631 0.59417 0.0
H925 H 0.77986 0.59419 0.54841 0.0
H926 H 0.81746 0.63012 0.81795 0.0
H927 H 0.8771 0.71601 0.87267 0.0
H928 H 0.8913 0.73527 0.78889 0.0
H929 H 0.90577 0.75656 0.83488 0.0
Tb930 Tb 0.37331 0.16624 0.6573 0.0
C931 C 0.25569 0.11714 0.74455 0.0
C932 C 0.23309 0.15786 0.73881 0.0
C933 C 0.19285 0.09924 0.75693 0.0
C934 C 0.26131 0.14947 0.73636 0.0
C935 C 0.22183 0.09196 0.75579 0.0
C936 C 0.19846 0.13218 0.74838 0.0
C937 C 0.24933 0.0565 0.76687 0.0
N938 N 0.28458 0.11158 0.74347 0.0
C939 C 0.2824 0.08246 0.7556 0.0
C940 C 0.21866 0.06094 0.7665 0.0
Tb941 Tb 0.33786 0.15496 0.72442 0.0
N942 N 0.29535 0.17354 0.72774 0.0
C943 C 0.30374 0.20775 0.72339 0.0
C944 C 0.24095 0.19214 0.73251 0.0
C945 C 0.27663 0.21736 0.72524 0.0
H946 H 0.30596 0.07877 0.75597 0.0
H947 H 0.2833 0.24422 0.72095 0.0
H948 H 0.17627 0.13794 0.75009 0.0
H949 H 0.24756 0.03312 0.77583 0.0
H950 H 0.33097 0.2277 0.71758 0.0
H951 H 0.43221 0.08118 0.64857 0.0
H952 H 0.22003 0.19966 0.73401 0.0
H953 H 0.40553 0.24923 0.63729 0.0
H954 H 0.38242 0.09463 0.65494 0.0
H955 H 0.46529 0.30001 0.62399 0.0
H956 H 0.16643 0.08007 0.76515 0.0
H957 H 0.49575 0.12948 0.64075 0.0
H958 H 0.53902 0.19425 0.63271 0.0
H959 H 0.19314 0.04091 0.77535 0.0
H960 H 0.54803 0.25394 0.62569 0.0
N961 N 0.41719 0.1503 0.65104 0.0
C962 C 0.40985 0.11608 0.65135 0.0
C963 C 0.47394 0.13561 0.64343 0.0
C964 C 0.48096 0.17039 0.64163 0.0
C965 C 0.4381 0.10828 0.64774 0.0
C966 C 0.45155 0.17686 0.64528 0.0
H967 H 0.52049 0.29356 0.62193 0.0
N968 N 0.42698 0.21468 0.64346 0.0
C969 C 0.46323 0.27492 0.62883 0.0
C970 C 0.45668 0.21027 0.64118 0.0
C971 C 0.42941 0.24607 0.63628 0.0
C972 C 0.49438 0.2712 0.62778 0.0
C973 C 0.49122 0.23841 0.63354 0.0
O974 O 0.35584 0.17901 0.6219 0.0
O975 O 0.32881 0.16056 0.68267 0.0
O976 O 0.30232 0.10441 0.70426 0.0
O977 O 0.3355 0.10984 0.66494 0.0
O978 O 0.34562 0.19773 0.65361 0.0
O979 O 0.35905 0.13141 0.62477 0.0
O980 O 0.35782 0.1466 0.76066 0.0
O981 O 0.37982 0.15641 0.69863 0.0
O982 O 0.4136 0.20803 0.68171 0.0
O983 O 0.37719 0.21178 0.71469 0.0
O984 O 0.36276 0.12147 0.72941 0.0
O985 O 0.3575 0.19487 0.75344 0.0
C986 C 0.32099 0.18211 0.67174 0.0
C987 C 0.36899 0.1589 0.58229 0.0
C988 C 0.36204 0.15495 0.53391 0.0
C989 C 0.34639 0.14691 0.55966 0.0
C990 C 0.40029 0.17607 0.53114 0.0
C991 C 0.40711 0.17898 0.57891 0.0
C992 C 0.42262 0.18779 0.55352 0.0
C993 C 0.30804 0.09147 0.68185 0.0
C994 C 0.35256 0.15165 0.6092 0.0
C995 C 0.52111 0.23259 0.63126 0.0
C996 C 0.51598 0.19861 0.63529 0.0
C997 C 0.385 0.13295 0.70949 0.0
C998 C 0.34791 0.1736 0.7978 0.0
C999 C 0.36964 0.17873 0.82043 0.0
C1000 C 0.35491 0.17576 0.84624 0.0
C1001 C 0.31785 0.16644 0.84899 0.0
C1002 C 0.31146 0.16567 0.80114 0.0
C1003 C 0.29644 0.16174 0.82656 0.0
C1004 C 0.40795 0.22584 0.70037 0.0
C1005 C 0.36329 0.17609 0.77089 0.0
H1006 H 0.3169 0.13104 0.56205 0.0
H1007 H 0.41295 0.18331 0.51157 0.0
H1008 H 0.42497 0.1881 0.59578 0.0
H1009 H 0.45208 0.2037 0.55119 0.0
H1010 H 0.39802 0.18546 0.81794 0.0
H1011 H 0.30533 0.16267 0.86851 0.0
H1012 H 0.29456 0.16253 0.78418 0.0
H1013 H 0.26809 0.15504 0.82889 0.0
Tb1014 Tb 0.88098 0.17773 0.72167 0.0
C1015 C 0.81589 0.23264 0.63995 0.0
C1016 C 0.75142 0.18927 0.63857 0.0
C1017 C 0.7713 0.25115 0.63048 0.0
C1018 C 0.78817 0.19825 0.64304 0.0
C1019 C 0.80801 0.25946 0.63306 0.0
C1020 C 0.74303 0.21604 0.63314 0.0
C1021 C 0.87319 0.29966 0.62902 0.0
N1022 N 0.85092 0.23933 0.64212 0.0
C1023 C 0.87956 0.27202 0.63563 0.0
C1024 C 0.83726 0.29348 0.62809 0.0
Tb1025 Tb 0.85872 0.19305 0.65516 0.0
N1026 N 0.79757 0.17326 0.64805 0.0
C1027 C 0.77165 0.13828 0.64647 0.0
C1028 C 0.72457 0.15357 0.63831 0.0
C1029 C 0.7349 0.12797 0.64155 0.0
H1030 H 0.90747 0.27714 0.63655 0.0
H1031 H 0.71446 0.10023 0.64076 0.0
H1032 H 0.7149 0.20972 0.63009 0.0
H1033 H 0.89597 0.32569 0.62467 0.0
H1034 H 0.77879 0.118 0.64935 0.0
H1035 H 0.02828 0.26283 0.72553 0.0
H1036 H 0.69605 0.14551 0.63479 0.0
H1037 H 0.82995 0.09837 0.74864 0.0
H1038 H 0.96423 0.24908 0.72181 0.0
H1039 H 0.83782 0.04871 0.76381 0.0
H1040 H 0.76459 0.27143 0.62551 0.0
H1041 H 0.04242 0.21478 0.73281 0.0
H1042 H 1.01912 0.15032 0.74232 0.0
H1043 H 0.83238 0.31487 0.62281 0.0
H1044 H 0.9668 0.09145 0.75275 0.0
N1045 N 0.94171 0.1936 0.72633 0.0
C1046 C 0.96972 0.22783 0.72526 0.0
C1047 C 1.01413 0.20859 0.73126 0.0
C1048 C 0.98531 0.17394 0.73437 0.0
C1049 C 1.00625 0.23577 0.72728 0.0
C1050 C 0.94904 0.16741 0.73205 0.0
H1051 H 0.89891 0.05345 0.76153 0.0
N1052 N 0.88593 0.13073 0.73729 0.0
C1053 C 0.8611 0.07258 0.75618 0.0
C1054 C 0.91995 0.13458 0.73775 0.0
C1055 C 0.85678 0.10084 0.74764 0.0
C1056 C 0.89562 0.07532 0.75483 0.0
C1057 C 0.9258 0.10695 0.74612 0.0
O1058 O 0.85079 0.16787 0.75736 0.0
O1059 O 0.84137 0.18049 0.69606 0.0
O1060 O 0.86173 0.23427 0.68107 0.0
O1061 O 0.90116 0.2346 0.71352 0.0
O1062 O 0.82083 0.1445 0.72562 0.0
O1063 O 0.90329 0.21462 0.75284 0.0
O1064 O 0.89014 0.20986 0.61985 0.0
O1065 O 0.89842 0.18879 0.68025 0.0
O1066 O 0.87046 0.13147 0.69871 0.0
O1067 O 0.8408 0.1365 0.66078 0.0
O1068 O 0.91819 0.22863 0.65295 0.0
O1069 O 0.84226 0.15821 0.62267 0.0
C1070 C 0.81124 0.15711 0.70604 0.0
C1071 C 0.88601 0.19036 0.79624 0.0
C1072 C 0.88241 0.19587 0.8445 0.0
C1073 C 0.87427 0.20185 0.8184 0.0
C1074 C 0.90206 0.17794 0.84812 0.0
C1075 C 0.90628 0.17318 0.80034 0.0
C1076 C 0.91406 0.16686 0.82613 0.0
C1077 C 0.8858 0.25024 0.70024 0.0
C1078 C 0.87626 0.19576 0.7691 0.0
C1079 C 0.9617 0.11248 0.74675 0.0
C1080 C 0.99147 0.14599 0.74083 0.0
C1081 C 0.92798 0.21358 0.67055 0.0
C1082 C 0.85813 0.18517 0.58004 0.0
C1083 C 0.87518 0.1792 0.55809 0.0
C1084 C 0.86645 0.18392 0.53183 0.0
C1085 C 0.83999 0.19426 0.52797 0.0
C1086 C 0.83189 0.1955 0.57569 0.0
C1087 C 0.82287 0.19996 0.54978 0.0
C1088 C 0.85098 0.11868 0.67677 0.0
C1089 C 0.86846 0.1809 0.60722 0.0
H1090 H 0.85859 0.21515 0.81536 0.0
H1091 H 0.90873 0.1731 0.86796 0.0
H1092 H 0.91608 0.16463 0.7837 0.0
H1093 H 0.92958 0.15343 0.82908 0.0
H1094 H 0.89497 0.17058 0.56151 0.0
H1095 H 0.83282 0.19832 0.50807 0.0
H1096 H 0.81838 0.20009 0.59225 0.0
H1097 H 0.80263 0.20801 0.54656 0.0
C1098 C 0.352 0.91204 0.05615 0.0
C1099 C 0.35105 0.87938 0.05751 0.0
C1100 C 0.38425 0.94328 0.04927 0.0
C1101 C 0.41701 0.94339 0.04314 0.0
H1102 H 0.32776 0.91364 0.06107 0.0
H1103 H 0.3838 0.96788 0.04941 0.0
S1104 S 0.42935 0.86493 0.04341 0.0
N1105 N 0.38584 0.84902 0.05161 0.0
N1106 N 0.44636 0.90777 0.03896 0.0
C1107 C 0.41631 0.91083 0.04372 0.0
C1108 C 0.38334 0.87885 0.05068 0.0
C1109 C 0.14757 0.49218 0.0519 0.0
C1110 C 0.1452 0.45941 0.05776 0.0
C1111 C 0.11608 0.49441 0.04525 0.0
C1112 C 0.08111 0.46395 0.04433 0.0
H1113 H 0.17354 0.51641 0.05375 0.0
H1114 H 0.11887 0.52019 0.04209 0.0
S1115 S 0.06058 0.3717 0.05394 0.0
N1116 N 0.10528 0.39564 0.0585 0.0
N1117 N 0.04648 0.40015 0.0477 0.0
C1118 C 0.07871 0.43115 0.04901 0.0
C1119 C 0.11061 0.42877 0.05509 0.0
C1120 C 0.5408 0.65872 0.06396 0.0
C1121 C 0.57267 0.69031 0.05709 0.0
C1122 C 0.53505 0.62619 0.05455 0.0
C1123 C 0.56034 0.6243 0.03722 0.0
H1124 H 0.52058 0.65913 0.07717 0.0
H1125 H 0.51075 0.60231 0.06104 0.0
S1126 S 0.6486 0.69916 0.01401 0.0
N1127 N 0.63059 0.71766 0.03292 0.0
N1128 N 0.61882 0.65635 0.01423 0.0
C1129 C 0.5923 0.65558 0.0302 0.0
C1130 C 0.59866 0.6887 0.04034 0.0
C1131 C 0.90264 0.35328 0.96849 0.0
C1132 C 0.88172 0.32416 0.98531 0.0
C1133 C 0.92934 0.38583 0.97874 0.0
C1134 C 0.93657 0.39078 1.00627 0.0
H1135 H 0.89827 0.35091 0.94715 0.0
H1136 H 0.94435 0.4074 0.96485 0.0
S1137 S 0.89081 0.3221 0.05861 0.0
N1138 N 0.87041 0.30195 0.03076 0.0
N1139 N 0.92143 0.36292 0.04995 0.0
C1140 C 0.91585 0.36184 0.02332 0.0
C1141 C 0.88827 0.32862 0.01286 0.0
C1142 C 0.6917 0.5816 0.98873 0.0
C1143 C 0.69466 0.55091 0.98666 0.0
C1144 C 0.65841 0.57998 0.99546 0.0
C1145 C 0.6264 0.5477 1.00104 0.0
H1146 H 0.71517 0.60726 0.98439 0.0
H1147 H 0.65745 0.60433 0.9956 0.0
S1148 S 0.61919 0.45952 1.00037 0.0
N1149 N 0.66231 0.48698 0.99208 0.0
N1150 N 0.60012 0.48426 1.00506 0.0
C1151 C 0.62913 0.51688 1.00032 0.0
C1152 C 0.66313 0.51843 0.99324 0.0
C1153 C 0.46656 0.13206 0.01193 0.0
C1154 C 0.47012 0.14108 0.98468 0.0
C1155 C 0.47099 0.10389 0.02113 0.0
C1156 C 0.47915 0.08375 1.00344 0.0
H1157 H 0.46015 0.14678 0.02621 0.0
H1158 H 0.46787 0.09783 0.0422 0.0
S1159 S 0.49554 0.09957 0.93055 0.0
N1160 N 0.48493 0.12937 0.94045 0.0
N1161 N 0.4934 0.07696 0.95756 0.0
C1162 C 0.48338 0.09306 0.97621 0.0
C1163 C 0.47887 0.12158 0.96689 0.0
C1164 C 0.66224 0.11899 0.98672 0.0
C1165 C 0.65946 0.14961 0.9901 0.0
C1166 C 0.63299 0.08528 0.99361 0.0
C1167 C 0.59958 0.08057 1.00397 0.0
H1168 H 0.68648 0.1208 0.97758 0.0
H1169 H 0.63613 0.06249 0.98994 0.0
S1170 S 0.5791 0.15254 0.01807 0.0
N1171 N 0.62188 0.17316 1.00735 0.0
N1172 N 0.56614 0.11021 0.01696 0.0
C1173 C 0.59695 0.11112 1.00793 0.0
C1174 C 0.62708 0.14544 1.00197 0.0
C1175 C 0.88175 0.47689 1.00765 0.0
C1176 C 0.87499 0.50147 0.99393 0.0
C1177 C 0.91718 0.48176 1.01048 0.0
C1178 C 0.94838 0.51278 1.00182 0.0
H1179 H 0.85947 0.45314 0.01633 0.0
H1180 H 0.91989 0.46089 0.01978 0.0
S1181 S 0.9478 0.58598 0.96442 0.0
N1182 N 0.904 0.55775 0.97005 0.0
N1183 N 0.97064 0.56854 0.97845 0.0
C1184 C 0.9426 0.53809 0.98857 0.0
C1185 C 0.90617 0.53235 0.98429 0.0
C1186 C 0.53227 0.38881 0.97592 0.0
C1187 C 0.51395 0.35901 0.99262 0.0
C1188 C 0.52785 0.41837 0.97929 0.0
C1189 C 0.50583 0.41944 0.99996 0.0
H1190 H 0.55154 0.38993 0.96102 0.0
H1191 H 0.54408 0.44157 0.96703 0.0
S1192 S 0.44703 0.346 0.04582 0.0
N1193 N 0.46902 0.33051 0.02802 0.0
N1194 N 0.4614 0.38652 0.03472 0.0
C1195 C 0.48519 0.38887 0.01538 0.0
C1196 C 0.4891 0.3585 1.01162 0.0
C1197 C 0.15064 0.65362 0.02058 0.0
C1198 C 0.17138 0.6599 0.04388 0.0
C1199 C 0.11689 0.62242 0.01756 0.0
C1200 C 0.10288 0.59625 0.03758 0.0
H1201 H 0.16145 0.67216 1.00408 0.0
H1202 H 0.10222 0.61825 0.99907 0.0
S1203 S 0.14581 0.60101 0.10296 0.0
N1204 N 0.17477 0.63846 0.08787 0.0
N1205 N 0.11141 0.57966 0.08211 0.0
C1206 C 0.12238 0.60314 0.06156 0.0
C1207 C 0.15673 0.63496 0.06467 0.0
C1208 C 0.37583 0.4811 0.05302 0.0
C1209 C 0.37633 0.51292 0.04698 0.0
C1210 C 0.40638 0.47672 0.04758 0.0
C1211 C 0.43917 0.50401 0.03621 0.0
H1212 H 0.3523 0.45987 0.06305 0.0
H1213 H 0.40473 0.45199 0.05321 0.0
S1214 S 0.45409 0.59202 0.01537 0.0
N1215 N 0.41126 0.57067 0.02585 0.0
N1216 N 0.46954 0.56428 0.01966 0.0
C1217 C 0.43962 0.53563 0.02976 0.0
C1218 C 0.40805 0.53949 0.03399 0.0
C1219 C 0.54843 0.88523 0.03283 0.0
C1220 C 0.53073 0.8664 0.05612 0.0
C1221 C 0.55128 0.91806 0.02717 0.0
C1222 C 0.53677 0.93314 0.04468 0.0
H1223 H 0.55806 0.87354 0.01815 0.0
H1224 H 0.5637 0.93108 1.00853 0.0
S1225 S 0.49071 0.89553 0.10939 0.0
N1226 N 0.50083 0.8661 0.09763 0.0
N1227 N 0.50646 0.92781 0.08714 0.0
C1228 C 0.52142 0.91568 0.06891 0.0
C1229 C 0.51818 0.88218 0.07453 0.0
C1230 C 1.01818 0.25187 0.38905 0.0
C1231 C 1.01591 0.21864 0.3911 0.0
C1232 C 0.05129 0.28247 0.3825 0.0
C1233 C 0.08349 0.28123 0.37711 0.0
H1234 H 0.99436 0.25448 0.39328 0.0
H1235 H 0.05189 0.30757 0.38215 0.0
S1236 S 0.09276 0.20111 0.37982 0.0
N1237 N 0.04923 0.18656 0.38713 0.0
N1238 N 0.11107 0.24395 0.37458 0.0
C1239 C 0.0815 0.24813 0.37831 0.0
C1240 C 0.04779 0.21689 0.38519 0.0
C1241 C 0.81798 0.83029 0.38483 0.0
C1242 C 0.81569 0.79728 0.38941 0.0
C1243 C 0.78695 0.83263 0.37691 0.0
C1244 C 0.75264 0.802 0.37323 0.0
H1245 H 0.84334 0.85446 0.38878 0.0
H1246 H 0.7894 0.85843 0.37502 0.0
S1247 S 0.7332 0.70959 0.37876 0.0
N1248 N 0.77704 0.73358 0.38635 0.0
N1249 N 0.71907 0.73804 0.37257 0.0
C1250 C 0.75059 0.7691 0.37642 0.0
C1251 C 0.782 0.76671 0.38406 0.0
C1252 C 0.22593 0.015 0.36695 0.0
C1253 C 0.25305 0.03296 0.38635 0.0
C1254 C 0.21845 0.98188 0.35734 0.0
C1255 C 0.23644 0.96449 0.36759 0.0
H1256 H 0.20973 0.02616 0.35947 0.0
H1257 H 0.1977 0.96949 0.34224 0.0
S1258 S 0.31571 1.00361 0.41374 0.0
N1259 N 0.30325 0.03381 0.41107 0.0
N1260 N 0.28667 0.97049 0.3951 0.0
C1261 C 0.26515 0.98312 0.3857 0.0
C1262 C 0.27389 0.01744 0.39463 0.0
C1263 C 0.57213 0.69143 0.29751 0.0
C1264 C 0.5551 0.66188 0.31465 0.0
C1265 C 0.60114 0.72386 0.30626 0.0
C1266 C 0.6141 0.72817 0.33258 0.0
H1267 H 0.56238 0.68972 0.27731 0.0
H1268 H 0.61256 0.74611 0.29259 0.0
S1269 S 0.58338 0.6576 0.38385 0.0
N1270 N 0.55623 0.63811 0.35826 0.0
N1271 N 0.61094 0.69892 0.37449 0.0
C1272 C 0.59853 0.69848 0.34951 0.0
C1273 C 0.56896 0.66542 0.34062 0.0
C1274 C 0.33233 0.85937 0.32753 0.0
C1275 C 0.36396 0.89212 0.32174 0.0
C1276 C 0.29828 0.85705 0.33342 0.0
C1277 C 0.29474 0.88746 0.33395 0.0
H1278 H 0.33344 0.83517 0.32617 0.0
H1279 H 0.27436 0.83128 0.33632 0.0
S1280 S 0.36989 0.97971 0.3244 0.0
N1281 N 0.38994 0.95576 0.32016 0.0
N1282 N 0.32631 0.95134 0.33071 0.0
C1283 C 0.32652 0.92033 0.32972 0.0
C1284 C 0.361 0.92272 0.32385 0.0
C1285 C 0.17503 0.48543 0.33071 0.0
C1286 C 0.14173 0.4792 0.31924 0.0
C1287 C 0.17966 0.45775 0.34035 0.0
C1288 C 0.15183 0.42232 0.33796 0.0
H1289 H 0.19829 0.51191 0.33174 0.0
H1290 H 0.2058 0.46431 0.34905 0.0
S1291 S 0.05759 0.39123 0.31347 0.0
N1292 N 0.07855 0.43454 0.30972 0.0
N1293 N 0.08857 0.38249 0.32584 0.0
C1294 C 0.11804 0.41551 0.32739 0.0
C1295 C 0.11274 0.44386 0.31844 0.0
C1296 C 0.29412 0.47302 0.33368 0.0
C1297 C 0.33024 0.47866 0.33443 0.0
C1298 C 0.26344 0.4391 0.33498 0.0
C1299 C 0.26712 0.40902 0.33693 0.0
H1300 H 0.28933 0.49516 0.33226 0.0
H1301 H 0.23657 0.43639 0.33393 0.0
S1302 S 0.35461 0.40776 0.33643 0.0
N1303 N 0.36746 0.45021 0.3355 0.0
N1304 N 0.30929 0.38625 0.33649 0.0
C1305 C 0.30271 0.4137 0.33566 0.0
C1306 C 0.33432 0.4485 0.33489 0.0
C1307 C 0.57762 0.87702 0.33358 0.0
C1308 C 0.54574 0.84342 0.33386 0.0
C1309 C 0.61307 0.88075 0.33368 0.0
C1310 C 0.61809 0.85113 0.33513 0.0
H1311 H 0.57524 0.90058 0.33426 0.0
H1312 H 0.63675 0.90706 0.33385 0.0
S1313 S 0.54431 0.75773 0.32942 0.0
N1314 N 0.52238 0.78022 0.32999 0.0
N1315 N 0.58815 0.78747 0.33179 0.0
C1316 C 0.58661 0.81767 0.33339 0.0
C1317 C 0.55077 0.81379 0.33247 0.0
C1318 C 0.21133 0.73047 0.31261 0.0
C1319 C 0.18712 0.69839 0.32543 0.0
C1320 C 0.2073 0.7603 0.31531 0.0
C1321 C 0.17903 0.75917 0.33099 0.0
H1322 H 0.23463 0.73297 0.30145 0.0
H1323 H 0.2278 0.78501 0.30642 0.0
S1324 S 0.10655 0.68111 0.36673 0.0
N1325 N 0.13228 0.6667 0.35279 0.0
N1326 N 0.12489 0.72306 0.35789 0.0
C1327 C 0.15336 0.72687 0.3426 0.0
C1328 C 0.1573 0.69634 0.33974 0.0
C1329 C 0.81848 0.99376 0.36296 0.0
C1330 C 0.83997 0.99654 0.38521 0.0
C1331 C 0.78531 0.96252 0.358 0.0
C1332 C 0.77242 0.93307 0.37515 0.0
H1333 H 0.82841 0.01507 0.3485 0.0
H1334 H 0.77025 0.96099 0.34014 0.0
S1335 S 0.81726 0.92799 0.43715 0.0
N1336 N 0.84508 0.96804 0.42531 0.0
N1337 N 0.78262 0.90958 0.41614 0.0
C1338 C 0.79254 0.93635 0.3983 0.0
C1339 C 0.82644 0.96799 0.40323 0.0
C1340 C 0.04433 0.81602 0.38763 0.0
C1341 C 0.04476 0.84808 0.38291 0.0
C1342 C 0.07502 0.81214 0.38144 0.0
C1343 C 0.10776 0.84019 0.37062 0.0
H1344 H 0.0208 0.79424 0.39723 0.0
H1345 H 0.07353 0.7872 0.38605 0.0
S1346 S 0.12206 0.92896 0.35328 0.0
N1347 N 0.07922 0.90683 0.36357 0.0
N1348 N 0.13803 0.90142 0.35621 0.0
C1349 C 0.1081 0.87206 0.36551 0.0
C1350 C 0.07634 0.87539 0.37042 0.0
C1351 C 0.20439 0.2137 0.35665 0.0
C1352 C 0.23748 0.22227 0.36925 0.0
C1353 C 0.19035 0.2368 0.35729 0.0
C1354 C 0.20917 0.26985 0.37004 0.0
H1355 H 0.19005 0.18961 0.34523 0.0
H1356 H 0.16512 0.22907 0.34673 0.0
S1357 S 0.29526 0.30257 0.4086 0.0
N1358 N 0.28732 0.26413 0.39683 0.0
N1359 N 0.26108 0.30785 0.3981 0.0
C1360 C 0.24115 0.27756 0.38428 0.0
C1361 C 0.25537 0.25378 0.38372 0.0
C1362 C 0.68561 0.58471 0.72617 0.0
C1363 C 0.68314 0.55143 0.72565 0.0
C1364 C 0.71848 0.61545 0.7196 0.0
C1365 C 0.75013 0.61416 0.7122 0.0
H1366 H 0.66205 0.58703 0.73192 0.0
H1367 H 0.71931 0.64062 0.7207 0.0
S1368 S 0.75844 0.53354 0.7091 0.0
N1369 N 0.71523 0.5189 0.71759 0.0
N1370 N 0.7772 0.57679 0.70604 0.0
C1371 C 0.74804 0.58103 0.71166 0.0
C1372 C 0.71444 0.54964 0.71808 0.0
C1373 C 0.44954 0.09592 0.71699 0.0
C1374 C 0.48283 0.12539 0.72477 0.0
C1375 C 0.41865 0.09913 0.71067 0.0
C1376 C 0.41996 0.13202 0.71121 0.0
H1377 H 0.44704 0.07001 0.71656 0.0
H1378 H 0.39323 0.0755 0.70576 0.0
S1379 S 0.49807 0.21533 0.73612 0.0
N1380 N 0.51382 0.18745 0.73587 0.0
N1381 N 0.45572 0.19319 0.72467 0.0
C1382 C 0.45278 0.16138 0.71976 0.0
C1383 C 0.48425 0.15816 0.72617 0.0
C1384 C 0.87222 0.32879 0.71193 0.0
C1385 C 0.90408 0.35296 0.72567 0.0
C1386 C 0.86755 0.29656 0.70281 0.0
C1387 C 0.89364 0.28611 0.70806 0.0
H1388 H 0.84996 0.33413 0.70881 0.0
H1389 H 0.84239 0.27905 0.6925 0.0
S1390 S 0.98465 0.3416 0.73891 0.0
N1391 N 0.96491 0.36614 0.74011 0.0
N1392 N 0.95441 0.30413 0.72502 0.0
C1393 C 0.92626 0.31038 0.72073 0.0
C1394 C 0.93179 0.34398 0.72912 0.0
C1395 C 0.2407 0.02007 0.63592 0.0
C1396 C 0.22286 0.99009 0.6525 0.0
C1397 C 0.26848 0.05237 0.64571 0.0
C1398 C 0.27954 0.0562 0.67252 0.0
H1399 H 0.23251 0.01882 0.61533 0.0
H1400 H 0.28078 0.07484 0.63224 0.0
S1401 S 0.2445 0.98509 0.72349 0.0
N1402 N 0.22018 0.96573 0.69666 0.0
N1403 N 0.2725 0.02665 0.71493 0.0
C1404 C 0.26263 0.02637 0.68919 0.0
C1405 C 0.23431 0.9933 0.67921 0.0
C1406 C 0.02913 0.25024 0.65461 0.0
C1407 C 0.03316 0.22016 0.65198 0.0
C1408 C 0.9954 0.24755 0.66165 0.0
C1409 C 0.96404 0.21477 0.66717 0.0
H1410 H 0.05213 0.2763 0.6506 0.0
H1411 H 0.99372 0.2715 0.66243 0.0
S1412 S 0.95929 0.12767 0.66452 0.0
N1413 N 1.00214 0.15612 0.65623 0.0
N1414 N 0.93935 0.15144 0.67013 0.0
C1415 C 0.96774 0.18449 0.66568 0.0
C1416 C 1.00211 0.18712 0.65813 0.0
C1417 C 0.81101 0.78561 0.63372 0.0
C1418 C 0.80187 0.80594 0.6503 0.0
C1419 C 0.81539 0.75818 0.64415 0.0
C1420 C 0.81094 0.75002 0.67159 0.0
H1421 H 0.81584 0.79159 0.61263 0.0
H1422 H 0.82376 0.74415 0.63068 0.0
S1423 S 0.78114 0.79179 0.72257 0.0
N1424 N 0.78498 0.81407 0.69493 0.0
N1425 N 0.79241 0.76178 0.71442 0.0
C1426 C 0.80023 0.76916 0.68816 0.0
C1427 C 0.79592 0.79731 0.67754 0.0
C1428 C 0.99907 0.7831 0.66821 0.0
C1429 C 0.99562 0.81359 0.66763 0.0
C1430 C 0.9678 0.74904 0.66931 0.0
C1431 C 0.93214 0.74434 0.67107 0.0
H1432 H 0.02598 0.78554 0.66874 0.0
H1433 H 0.97159 0.72626 0.66997 0.0
S1434 S 0.90807 0.81481 0.66289 0.0
N1435 N 0.95325 0.836 0.66299 0.0
N1436 N 0.89549 0.77275 0.66661 0.0
C1437 C 0.92846 0.77441 0.66838 0.0
C1438 C 0.95992 0.80878 0.66639 0.0
C1439 C 0.24304 0.19991 0.65242 0.0
C1440 C 0.21073 0.16739 0.65725 0.0
C1441 C 0.27824 0.20451 0.65773 0.0
C1442 C 0.28294 0.17684 0.66795 0.0
H1443 H 0.24135 0.22174 0.64367 0.0
H1444 H 0.3021 0.22991 0.65341 0.0
S1445 S 0.20764 0.08637 0.68423 0.0
N1446 N 0.18643 0.10782 0.67511 0.0
N1447 N 0.25168 0.1152 0.68116 0.0
C1448 C 0.25093 0.14428 0.67263 0.0
C1449 C 0.21521 0.13998 0.66845 0.0
C1450 C 0.87018 0.05458 0.64063 0.0
C1451 C 0.85278 0.02435 0.65697 0.0
C1452 C 0.86623 0.08408 0.64562 0.0
C1453 C 0.84566 0.08457 0.66754 0.0
H1454 H 0.8883 0.056 0.62467 0.0
H1455 H 0.88163 0.10759 0.63349 0.0
S1456 S 0.79005 0.01018 0.71355 0.0
N1457 N 0.81049 0.99503 0.69372 0.0
N1458 N 0.8038 0.05098 0.70343 0.0
C1459 C 0.82603 0.0537 0.68279 0.0
C1460 C 0.82944 0.02339 0.67742 0.0
C1461 C 0.50491 0.30191 0.69802 0.0
C1462 C 0.50145 0.33188 0.70207 0.0
C1463 C 0.47459 0.26814 0.69885 0.0
C1464 C 0.43921 0.26203 0.70504 0.0
H1465 H 0.53115 0.30462 0.69252 0.0
H1466 H 0.47897 0.24676 0.69299 0.0
S1467 S 0.41551 0.33133 0.72015 0.0
N1468 N 0.46014 0.35361 0.71409 0.0
N1469 N 0.40279 0.28906 0.71715 0.0
C1470 C 0.43549 0.29152 0.71119 0.0
C1471 C 0.4667 0.32662 0.70953 0.0
C1472 C 0.71017 0.1335 0.70595 0.0
C1473 C 0.71193 0.16501 0.71445 0.0
C1474 C 0.74227 0.13075 0.70388 0.0
C1475 C 0.77737 0.15997 0.70867 0.0
H1476 H 0.68417 0.11136 0.69996 0.0
H1477 H 0.73976 0.10603 0.69736 0.0
S1478 S 0.79481 0.24324 0.74066 0.0
N1479 N 0.75045 0.22236 0.73439 0.0
N1480 N 0.81021 0.21755 0.72933 0.0
C1481 C 0.77882 0.19011 0.71975 0.0
C1482 C 0.7463 0.19258 0.7227 0.0
C1483 C 0.88135 0.55279 0.69052 0.0
C1484 C 0.86576 0.53223 0.71352 0.0
C1485 C 0.88303 0.58546 0.68735 0.0
C1486 C 0.86888 0.59846 0.70693 0.0
H1487 H 0.89031 0.5426 0.67425 0.0
H1488 H 0.894 0.59993 0.66893 0.0
S1489 S 0.82786 0.55565 0.77166 0.0
N1490 N 0.83821 0.52792 0.75693 0.0
N1491 N 0.84136 0.58946 0.75098 0.0
C1492 C 0.85564 0.57928 0.73083 0.0
C1493 C 0.85387 0.54596 0.73404 0.0
C1494 C 0.50025 0.95077 0.24759 0.0
C1495 C 0.46178 0.93111 0.25045 0.0
C1496 C 0.51695 0.97169 0.22484 0.0
C1497 C 0.49598 0.97394 0.20385 0.0
H1498 H 0.51776 0.95089 0.26342 0.0
H1499 H 0.54662 0.9866 0.22383 0.0
S1500 S 0.3946 0.92772 0.20086 0.0
N1501 N 0.40328 0.91429 0.22929 0.0
N1502 N 0.43484 0.95498 0.18743 0.0
C1503 C 0.45763 0.95408 0.20616 0.0
C1504 C 0.44053 0.93246 0.22919 0.0
C1505 C 0.09599 0.50983 0.22685 0.0
C1506 C 0.09564 0.53014 0.24849 0.0
C1507 C 0.07392 0.50422 0.20439 0.0
C1508 C 0.05059 0.51866 0.20271 0.0
H1509 H 0.11344 0.49812 0.22726 0.0
H1510 H 0.07452 0.48779 0.1885 0.0
S1511 S 0.04058 0.57511 0.25336 0.0
N1512 N 0.07009 0.56497 0.26657 0.0
N1513 N 0.03009 0.55583 0.22397 0.0
C1514 C 0.05071 0.53976 0.22389 0.0
C1515 C 0.07286 0.54519 0.24682 0.0
C1516 C 0.53549 0.56514 0.24384 0.0
C1517 C 0.5029 0.56658 0.24632 0.0
C1518 C 0.54351 0.55225 0.22084 0.0
C1519 C 0.51912 0.53961 0.19921 0.0
H1520 H 0.55521 0.57413 0.25991 0.0
H1521 H 0.56935 0.55242 0.21999 0.0
S1522 S 0.42957 0.53696 0.19552 0.0
N1523 N 0.44602 0.55453 0.22492 0.0
N1524 N 0.46039 0.52874 0.18196 0.0
C1525 C 0.48618 0.54056 0.20138 0.0
C1526 C 0.47813 0.55415 0.22488 0.0
C1527 C 0.97804 0.47377 0.79853 0.0
C1528 C 0.94387 0.44263 0.79834 0.0
C1529 C 0.99964 0.48427 0.82156 0.0
C1530 C 0.9877 0.46405 0.84521 0.0
H1531 H 0.98878 0.48928 0.78045 0.0
H1532 H 0.02626 0.50799 0.82067 0.0
S1533 S 0.89827 0.38201 0.85523 0.0
N1534 N 0.89764 0.39307 0.82382 0.0
N1535 N 0.93812 0.41239 0.86719 0.0
C1536 C 0.95263 0.43369 0.84549 0.0
C1537 C 0.93079 0.42304 0.822 0.0
C1538 C 0.60336 0.50546 0.81553 0.0
C1539 C 0.58254 0.48758 0.79295 0.0
C1540 C 0.58681 0.51008 0.83838 0.0
C1541 C 0.54874 0.49687 0.83964 0.0
H1542 H 0.63287 0.51679 0.81532 0.0
H1543 H 0.60418 0.5254 0.8547 0.0
S1544 S 0.48116 0.44467 0.7874 0.0
N1545 N 0.52124 0.45489 0.77416 0.0
N1546 N 0.49019 0.46182 0.81755 0.0
C1547 C 0.52735 0.47705 0.81793 0.0
C1548 C 0.54418 0.47279 0.79454 0.0
C1549 C 0.55475 0.08821 0.81586 0.0
C1550 C 0.53064 0.07585 0.79397 0.0
C1551 C 0.54733 0.068 0.83947 0.0
C1552 C 0.51559 0.03458 0.84206 0.0
H1553 H 0.57935 0.11386 0.81488 0.0
H1554 H 0.56693 0.07833 0.85558 0.0
S1555 S 0.44332 0.99034 0.79087 0.0
N1556 N 0.47393 0.02759 0.77654 0.0
N1557 N 0.45916 0.99086 0.821 0.0
C1558 C 0.49108 0.02226 0.82046 0.0
C1559 C 0.49881 0.04249 0.79645 0.0
C1560 C 0.11337 0.27319 0.56186 0.0
C1561 C 0.13521 0.2749 0.5837 0.0
C1562 C 0.12892 0.29411 0.53889 0.0
C1563 C 0.16689 0.31778 0.53695 0.0
H1564 H 0.08404 0.25524 0.56236 0.0
H1565 H 0.11098 0.29218 0.52274 0.0
S1566 S 0.23622 0.33187 0.58832 0.0
N1567 N 0.19685 0.30223 0.60176 0.0
N1568 N 0.22606 0.34083 0.5586 0.0
C1569 C 0.18903 0.31948 0.55855 0.0
C1570 C 0.17323 0.29824 0.58187 0.0
C1571 C 0.71849 0.82799 0.57922 0.0
C1572 C 0.75541 0.85498 0.57984 0.0
C1573 C 0.69683 0.82261 0.55663 0.0
C1574 C 0.71127 0.84394 0.53373 0.0
H1575 H 0.70611 0.8111 0.59647 0.0
H1576 H 0.66858 0.80142 0.55707 0.0
S1577 S 0.80664 0.91784 0.52495 0.0
N1578 N 0.80584 0.9026 0.55525 0.0
N1579 N 0.76481 0.89333 0.51316 0.0
C1580 C 0.74822 0.87094 0.53403 0.0
C1581 C 0.77032 0.87631 0.557 0.0
C1582 C 0.20374 0.8968 0.57792 0.0
C1583 C 0.17162 0.89909 0.58054 0.0
C1584 C 0.21213 0.88522 0.55435 0.0
C1585 C 0.1886 0.87476 0.53219 0.0
H1586 H 0.22278 0.90404 0.59433 0.0
H1587 H 0.23754 0.88458 0.55352 0.0
S1588 S 0.10066 0.87528 0.52847 0.0
N1589 N 0.11621 0.89032 0.5586 0.0
N1590 N 0.13124 0.867 0.51455 0.0
C1591 C 0.1562 0.87668 0.53444 0.0
C1592 C 0.14777 0.88892 0.55855 0.0
C1593 C 0.61926 0.79591 0.14803 0.0
C1594 C 0.63151 0.78525 0.12561 0.0
C1595 C 0.64102 0.80926 0.17084 0.0
C1596 C 0.67585 0.81217 0.17239 0.0
H1597 H 0.59238 0.79359 0.14815 0.0
H1598 H 0.63054 0.81772 0.18728 0.0
S1599 S 0.72052 0.78711 0.11946 0.0
N1600 N 0.68126 0.77923 0.10629 0.0
N1601 N 0.72091 0.80176 0.14979 0.0
C1602 C 0.68823 0.80107 0.15028 0.0
C1603 C 0.66639 0.7882 0.12682 0.0
C1604 C 0.21507 0.81647 0.12615 0.0
C1605 C 0.2516 0.82384 0.12676 0.0
C1606 C 0.19877 0.82243 0.14851 0.0
C1607 C 0.21832 0.83601 0.17245 0.0
H1608 H 0.1993 0.80694 0.108 0.0
H1609 H 0.17068 0.81676 0.14687 0.0
S1610 S 0.31334 0.85473 0.18498 0.0
N1611 N 0.30567 0.84166 0.15369 0.0
N1612 N 0.2757 0.85384 0.19562 0.0
C1613 C 0.25442 0.84181 0.17357 0.0
C1614 C 0.27091 0.83562 0.15075 0.0
C1615 C 0.17566 0.41862 0.15086 0.0
C1616 C 0.19312 0.4127 0.12908 0.0
C1617 C 0.16725 0.39826 0.17429 0.0
C1618 C 0.17554 0.3709 0.17668 0.0
H1619 H 0.16818 0.43901 0.1497 0.0
H1620 H 0.15305 0.40319 0.1903 0.0
S1621 S 0.22266 0.3457 0.12598 0.0
N1622 N 0.21963 0.37838 0.11187 0.0
N1623 N 0.20362 0.33997 0.15578 0.0
C1624 C 0.19377 0.36526 0.15532 0.0
C1625 C 0.20267 0.38622 0.13159 0.0
C1626 C 0.77509 0.60115 0.89628 0.0
C1627 C 0.79657 0.60151 0.91796 0.0
C1628 C 0.79114 0.62242 0.87353 0.0
C1629 C 0.82931 0.64514 0.87158 0.0
H1630 H 0.7456 0.58412 0.89681 0.0
H1631 H 0.77342 0.62164 0.8576 0.0
S1632 S 0.898 0.65525 0.92231 0.0
N1633 N 0.85823 0.62642 0.93571 0.0
N1634 N 0.8883 0.66547 0.89289 0.0
C1635 C 0.85113 0.64528 0.8929 0.0
C1636 C 0.83483 0.62372 0.91603 0.0
C1637 C 0.42028 0.17047 0.896 0.0
C1638 C 0.41977 0.19091 0.91748 0.0
C1639 C 0.39975 0.16613 0.87289 0.0
C1640 C 0.37783 0.182 0.87038 0.0
H1641 H 0.43696 0.15795 0.89693 0.0
H1642 H 0.40061 0.14978 0.85704 0.0
S1643 S 0.36756 0.23878 0.92059 0.0
N1644 N 0.39531 0.22705 0.93472 0.0
N1645 N 0.35798 0.22009 0.89097 0.0
C1646 C 0.37745 0.20288 0.89156 0.0
C1647 C 0.39812 0.20707 0.91514 0.0
C1648 C 0.84103 0.19735 0.91177 0.0
C1649 C 0.85144 0.23317 0.91473 0.0
C1650 C 0.85099 0.18542 0.88896 0.0
C1651 C 0.87115 0.20876 0.86808 0.0
H1652 H 0.82541 0.17847 0.92733 0.0
H1653 H 0.84269 0.15768 0.88758 0.0
S1654 S 0.90485 0.30488 0.86581 0.0
N1655 N 0.88272 0.29175 0.89454 0.0
N1656 N 0.90147 0.26922 0.85188 0.0
C1657 C 0.88147 0.2445 0.87068 0.0
C1658 C 0.87166 0.25674 0.89395 0.0
C1659 C 0.29071 0.13649 0.48029 0.0
C1660 C 0.29985 0.11916 0.46067 0.0
C1661 C 0.30996 0.14694 0.50453 0.0
C1662 C 0.33922 0.14076 0.50968 0.0
H1663 H 0.26871 0.14212 0.47683 0.0
H1664 H 0.30264 0.16081 0.51896 0.0
S1665 S 0.37377 0.09625 0.46494 0.0
N1666 N 0.34036 0.09671 0.44811 0.0
N1667 N 0.37547 0.11526 0.49367 0.0
C1668 C 0.3481 0.12296 0.49041 0.0
C1669 C 0.32874 0.11249 0.4659 0.0
C1670 C 0.87969 0.15317 0.4638 0.0
C1671 C 0.91795 0.16782 0.46185 0.0
C1672 C 0.86335 0.15826 0.48653 0.0
C1673 C 0.88456 0.17802 0.50834 0.0
H1674 H 0.86225 0.13811 0.44742 0.0
H1675 H 0.83379 0.14653 0.48703 0.0
S1676 S 0.98585 0.22099 0.51365 0.0
N1677 N 0.97654 0.2018 0.48419 0.0
N1678 N 0.94597 0.21217 0.52653 0.0
C1679 C 0.92283 0.19243 0.50681 0.0
C1680 C 0.93946 0.18721 0.48367 0.0
C1681 C 0.86717 0.72211 0.4661 0.0
C1682 C 0.85791 0.74881 0.46357 0.0
C1683 C 0.85838 0.7013 0.48932 0.0
C1684 C 0.84059 0.70679 0.5111 0.0
H1685 H 0.88057 0.71675 0.44976 0.0
H1686 H 0.86535 0.68054 0.49018 0.0
S1687 S 0.81233 0.77472 0.51506 0.0
N1688 N 0.83132 0.78062 0.48523 0.0
N1689 N 0.81493 0.74161 0.52883 0.0
C1690 C 0.83213 0.73407 0.5091 0.0
C1691 C 0.84069 0.75499 0.48534 0.0
loop_
_geom_bond_atom_site_label_1
_geom_bond_atom_site_label_2
_geom_bond_distance
_geom_bond_site_symmetry_2
_ccdc_geom_bond_type
H0 C1 0.949 . S
C1 H0 0.949 . S
C1 C2 1.395 . S
C1 C3 1.391 . S
C2 C1 1.395 . S
C2 C5 1.390 . S
C3 C1 1.391 . S
C3 C7 1.387 . S
C3 C8 1.491 . S
H4 C5 0.950 . S
C5 C2 1.390 . S
C5 H4 0.950 . S
C5 C6 1.378 . S
C6 C5 1.378 . S
C6 C7 1.409 . S
C7 C3 1.387 . S
C7 C6 1.409 . S
C7 H9 0.951 . S
C8 C3 1.491 . S
C8 C10 1.382 . S
C8 C12 1.404 . S
H9 C7 0.951 . S
C10 C8 1.382 . S
C10 C11 1.390 . S
C10 H15 0.949 . S
C11 C10 1.390 . S
C11 C16 1.399 . S
C12 C8 1.404 . S
C12 H13 0.950 . S
C12 C14 1.375 . S
H13 C12 0.950 . S
C14 C12 1.375 . S
C14 C16 1.382 . S
C14 H18 0.950 . S
H15 C10 0.949 . S
C16 C11 1.399 . S
C16 C14 1.382 . S
C16 H17 0.952 . S
H17 C16 0.952 . S
H18 C14 0.950 . S
H19 C20 0.949 . S
C20 H19 0.949 . S
C20 C21 1.395 . S
C20 C22 1.391 . S
C21 C20 1.395 . S
C21 C24 1.390 . S
C22 C20 1.391 . S
C22 C26 1.387 . S
C22 C27 1.491 . S
H23 C24 0.950 . S
C24 C21 1.390 . S
C24 H23 0.950 . S
C24 C25 1.378 . S
C25 C24 1.378 . S
C25 C26 1.409 . S
C26 C22 1.387 . S
C26 C25 1.409 . S
C26 H28 0.951 . S
C27 C22 1.491 . S
C27 C29 1.382 . S
C27 C31 1.404 . S
H28 C26 0.951 . S
C29 C27 1.382 . S
C29 C30 1.390 1_545 S
C29 H34 0.949 . S
C30 C29 1.390 1_565 S
C30 C35 1.399 . S
C31 C27 1.404 . S
C31 H32 0.950 . S
C31 C33 1.375 . S
H32 C31 0.950 . S
C33 C31 1.375 . S
C33 C35 1.382 1_545 S
C33 H37 0.950 . S
H34 C29 0.949 . S
C35 C30 1.399 . S
C35 C33 1.382 1_565 S
C35 H36 0.952 . S
H36 C35 0.952 . S
H37 C33 0.950 . S
H38 C39 0.949 . S
C39 H38 0.949 . S
C39 C40 1.395 . S
C39 C41 1.391 . S
C40 C39 1.395 . S
C40 C43 1.390 . S
C41 C39 1.391 . S
C41 C45 1.387 . S
C41 C46 1.491 . S
H42 C43 0.950 . S
C43 C40 1.390 . S
C43 H42 0.950 . S
C43 C44 1.378 . S
C44 C43 1.378 . S
C44 C45 1.409 . S
C45 C41 1.387 . S
C45 C44 1.409 . S
C45 H47 0.951 . S
C46 C41 1.491 . S
C46 C48 1.382 . S
C46 C50 1.404 . S
H47 C45 0.951 . S
C48 C46 1.382 . S
C48 C49 1.390 1_655 S
C48 H53 0.949 . S
C49 C48 1.390 1_455 S
C49 C54 1.399 . S
C50 C46 1.404 . S
C50 H51 0.950 . S
C50 C52 1.375 1_655 S
H51 C50 0.950 . S
C52 C50 1.375 1_455 S
C52 C54 1.382 . S
C52 H56 0.950 . S
H53 C48 0.949 . S
C54 C49 1.399 . S
C54 C52 1.382 . S
C54 H55 0.952 . S
H55 C54 0.952 . S
H56 C52 0.950 . S
H57 C58 0.949 . S
C58 H57 0.949 . S
C58 C59 1.395 . S
C58 C60 1.391 . S
C59 C58 1.395 . S
C59 C62 1.390 . S
C60 C58 1.391 . S
C60 C64 1.387 . S
C60 C65 1.491 . S
H61 C62 0.950 . S
C62 C59 1.390 . S
C62 H61 0.950 . S
C62 C63 1.378 . S
C63 C62 1.378 . S
C63 C64 1.409 . S
C64 C60 1.387 . S
C64 C63 1.409 . S
C64 H66 0.951 . S
C65 C60 1.491 . S
C65 C67 1.382 . S
C65 C69 1.404 . S
H66 C64 0.951 . S
C67 C65 1.382 . S
C67 C68 1.390 . S
C67 H72 0.949 . S
C68 C67 1.390 . S
C68 C73 1.399 . S
C69 C65 1.404 . S
C69 H70 0.950 . S
C69 C71 1.375 . S
H70 C69 0.950 . S
C71 C69 1.375 . S
C71 C73 1.382 . S
C71 H75 0.950 . S
H72 C67 0.949 . S
C73 C68 1.399 . S
C73 C71 1.382 . S
C73 H74 0.952 . S
H74 C73 0.952 . S
H75 C71 0.950 . S
H76 C77 0.949 . S
C77 H76 0.949 . S
C77 C78 1.395 . S
C77 C79 1.391 . S
C78 C77 1.395 . S
C78 C81 1.390 . S
C79 C77 1.391 . S
C79 C83 1.387 . S
C79 C84 1.491 . S
H80 C81 0.950 . S
C81 C78 1.390 . S
C81 H80 0.950 . S
C81 C82 1.378 . S
C82 C81 1.378 . S
C82 C83 1.409 . S
C83 C79 1.387 . S
C83 C82 1.409 . S
C83 H85 0.951 . S
C84 C79 1.491 . S
C84 C86 1.382 . S
C84 C88 1.404 . S
H85 C83 0.951 . S
C86 C84 1.382 . S
C86 C87 1.390 1_565 S
C86 H91 0.949 . S
C87 C86 1.390 1_545 S
C87 C92 1.399 . S
C88 C84 1.404 . S
C88 H89 0.950 . S
C88 C90 1.375 . S
H89 C88 0.950 . S
C90 C88 1.375 . S
C90 C92 1.382 1_565 S
C90 H94 0.950 1_565 S
H91 C86 0.949 . S
C92 C87 1.399 . S
C92 C90 1.382 1_545 S
C92 H93 0.952 . S
H93 C92 0.952 . S
H94 C90 0.950 1_545 S
H95 C96 0.949 . S
C96 H95 0.949 . S
C96 C97 1.395 . S
C96 C98 1.391 . S
C97 C96 1.395 . S
C97 C100 1.390 . S
C98 C96 1.391 . S
C98 C102 1.387 . S
C98 C103 1.491 . S
H99 C100 0.950 . S
C100 C97 1.390 . S
C100 H99 0.950 . S
C100 C101 1.378 . S
C101 C100 1.378 . S
C101 C102 1.409 . S
C102 C98 1.387 . S
C102 C101 1.409 . S
C102 H104 0.951 . S
C103 C98 1.491 . S
C103 C105 1.382 . S
C103 C107 1.404 . S
H104 C102 0.951 . S
C105 C103 1.382 . S
C105 C106 1.390 1_455 S
C105 H110 0.949 . S
C106 C105 1.390 1_655 S
C106 C111 1.399 . S
C107 C103 1.404 . S
C107 H108 0.950 . S
C107 C109 1.407 . S
H108 C107 0.950 . S
C109 C107 1.407 . S
C109 C111 1.376 1_455 S
C109 H113 0.925 1_455 S
H110 C105 0.949 . S
C111 C106 1.399 . S
C111 C109 1.376 1_655 S
C111 H112 0.952 . S
H112 C111 0.952 . S
H113 C109 0.925 1_655 S
H114 C115 0.949 . S
C115 H114 0.949 . S
C115 C116 1.395 . S
C115 C117 1.391 . S
C116 C115 1.395 . S
C116 C119 1.390 . S
C117 C115 1.391 . S
C117 C121 1.387 . S
C117 C122 1.491 . S
H118 C119 0.950 . S
C119 C116 1.390 . S
C119 H118 0.950 . S
C119 C120 1.378 . S
C120 C119 1.378 . S
C120 C121 1.409 . S
C121 C117 1.387 . S
C121 C120 1.409 . S
C121 H123 0.951 . S
C122 C117 1.491 . S
C122 C124 1.382 . S
C122 C126 1.404 . S
H123 C121 0.951 . S
C124 C122 1.382 . S
C124 C125 1.390 . S
C124 H129 0.949 . S
C125 C124 1.390 . S
C125 C130 1.399 . S
C126 C122 1.404 . S
C126 H127 0.950 . S
C126 C128 1.375 . S
H127 C126 0.950 . S
C128 C126 1.375 . S
C128 C130 1.382 . S
C128 H132 0.950 . S
H129 C124 0.949 . S
C130 C125 1.399 . S
C130 C128 1.382 . S
C130 H131 0.952 . S
H131 C130 0.952 . S
H132 C128 0.950 . S
H133 C134 0.949 . S
C134 H133 0.949 . S
C134 C135 1.395 . S
C134 C136 1.391 . S
C135 C134 1.395 . S
C135 C138 1.390 . S
C136 C134 1.391 . S
C136 C140 1.387 . S
C136 C141 1.491 . S
H137 C138 0.950 . S
C138 C135 1.390 . S
C138 H137 0.950 . S
C138 C139 1.378 . S
C139 C138 1.378 . S
C139 C140 1.409 . S
C140 C136 1.387 . S
C140 C139 1.409 . S
C140 H142 0.951 . S
C141 C136 1.491 . S
C141 C143 1.382 . S
C141 C145 1.404 . S
H142 C140 0.951 . S
C143 C141 1.382 . S
C143 C144 1.390 . S
C143 H148 0.949 . S
C144 C143 1.390 . S
C144 C149 1.399 . S
C145 C141 1.404 . S
C145 H146 0.950 . S
C145 C147 1.375 . S
H146 C145 0.950 . S
C147 C145 1.375 . S
C147 C149 1.382 . S
C147 H151 0.950 . S
H148 C143 0.949 . S
C149 C144 1.399 . S
C149 C147 1.382 . S
C149 H150 0.952 . S
H150 C149 0.952 . S
H151 C147 0.950 . S
H152 C153 0.949 . S
C153 H152 0.949 . S
C153 C154 1.395 . S
C153 C155 1.391 . S
C154 C153 1.395 . S
C154 C157 1.390 . S
C155 C153 1.391 . S
C155 C159 1.387 . S
C155 C160 1.491 . S
H156 C157 0.950 . S
C157 C154 1.390 . S
C157 H156 0.950 . S
C157 C158 1.378 . S
C158 C157 1.378 . S
C158 C159 1.409 . S
C159 C155 1.387 . S
C159 C158 1.409 . S
C159 H161 0.951 . S
C160 C155 1.491 . S
C160 C162 1.382 . S
C160 C164 1.404 . S
H161 C159 0.951 . S
C162 C160 1.382 . S
C162 C163 1.390 . S
C162 H167 0.949 . S
C163 C162 1.390 . S
C163 C168 1.399 . S
C164 C160 1.404 . S
C164 H165 0.950 . S
C164 C166 1.375 . S
H165 C164 0.950 . S
C166 C164 1.375 . S
C166 C168 1.382 . S
C166 H170 0.950 . S
H167 C162 0.949 . S
C168 C163 1.399 . S
C168 C166 1.382 . S
C168 H169 0.952 . S
H169 C168 0.952 . S
H170 C166 0.950 . S
H171 C172 0.949 . S
C172 H171 0.949 . S
C172 C173 1.395 . S
C172 C174 1.391 . S
C173 C172 1.395 . S
C173 C176 1.390 . S
C174 C172 1.391 . S
C174 C178 1.387 . S
C174 C179 1.491 . S
H175 C176 0.950 . S
C176 C173 1.390 . S
C176 H175 0.950 . S
C176 C177 1.378 . S
C177 C176 1.378 . S
C177 C178 1.409 . S
C178 C174 1.387 . S
C178 C177 1.409 . S
C178 H180 0.951 . S
C179 C174 1.491 . S
C179 C181 1.382 . S
C179 C183 1.404 . S
H180 C178 0.951 . S
C181 C179 1.382 . S
C181 C182 1.390 . S
C181 H186 0.949 . S
C182 C181 1.390 . S
C182 C187 1.399 . S
C183 C179 1.404 . S
C183 H184 0.950 . S
C183 C185 1.375 . S
H184 C183 0.950 . S
C185 C183 1.375 . S
C185 C187 1.382 . S
C185 H189 0.950 1_556 S
H186 C181 0.949 . S
C187 C182 1.399 . S
C187 C185 1.382 . S
C187 H188 0.952 1_556 S
H188 C187 0.952 1_554 S
H189 C185 0.950 1_554 S
H190 C191 0.949 . S
C191 H190 0.949 . S
C191 C192 1.395 . S
C191 C193 1.391 . S
C192 C191 1.395 . S
C192 C195 1.390 . S
C193 C191 1.391 . S
C193 C197 1.387 . S
C193 C198 1.491 . S
H194 C195 0.950 . S
C195 C192 1.390 . S
C195 H194 0.950 . S
C195 C196 1.378 . S
C196 C195 1.378 . S
C196 C197 1.409 . S
C197 C193 1.387 . S
C197 C196 1.409 . S
C197 H199 0.951 . S
C198 C193 1.491 . S
C198 C200 1.382 . S
C198 C202 1.404 . S
H199 C197 0.951 . S
C200 C198 1.382 . S
C200 C201 1.390 . S
C200 H205 0.949 . S
C201 C200 1.390 . S
C201 C206 1.399 1_556 S
C202 C198 1.404 . S
C202 H203 0.950 . S
C202 C204 1.375 1_556 S
H203 C202 0.950 . S
C204 C202 1.375 1_554 S
C204 C206 1.382 . S
C204 H208 0.950 . S
H205 C200 0.949 . S
C206 C201 1.399 1_554 S
C206 C204 1.382 . S
C206 H207 0.952 . S
H207 C206 0.952 . S
H208 C204 0.950 . S
H209 C210 0.949 . S
C210 H209 0.949 . S
C210 C211 1.395 . S
C210 C212 1.391 . S
C211 C210 1.395 . S
C211 C214 1.390 . S
C212 C210 1.391 . S
C212 C216 1.387 . S
C212 C217 1.491 . S
H213 C214 0.950 . S
C214 C211 1.390 . S
C214 H213 0.950 . S
C214 C215 1.378 . S
C215 C214 1.378 . S
C215 C216 1.409 . S
C216 C212 1.387 . S
C216 C215 1.409 . S
C216 H218 0.951 . S
C217 C212 1.491 . S
C217 C219 1.382 . S
C217 C221 1.404 . S
H218 C216 0.951 . S
C219 C217 1.382 . S
C219 C220 1.390 . S
C219 H224 0.949 . S
C220 C219 1.390 . S
C220 C225 1.398 . S
C221 C217 1.404 . S
C221 H222 0.950 . S
C221 C223 1.375 1_556 S
H222 C221 0.950 . S
C223 C221 1.375 1_554 S
C223 C225 1.383 1_554 S
C223 H227 0.950 . S
H224 C219 0.949 . S
C225 C220 1.398 . S
C225 C223 1.383 1_556 S
C225 H226 0.953 1_556 S
H226 C225 0.953 1_554 S
H227 C223 0.950 . S
H228 C229 0.949 . S
C229 H228 0.949 . S
C229 C230 1.395 . S
C229 C231 1.391 . S
C230 C229 1.395 . S
C230 C233 1.390 . S
C231 C229 1.391 . S
C231 C235 1.387 . S
C231 C236 1.491 . S
H232 C233 0.950 . S
C233 C230 1.390 . S
C233 H232 0.950 . S
C233 C234 1.378 . S
C234 C233 1.378 . S
C234 C235 1.409 . S
C235 C231 1.387 . S
C235 C234 1.409 . S
C235 H237 0.951 . S
C236 C231 1.491 . S
C236 C238 1.382 . S
C236 C240 1.404 . S
H237 C235 0.951 . S
C238 C236 1.382 . S
C238 C239 1.390 . S
C238 H243 0.949 . S
C239 C238 1.390 . S
C239 C244 1.399 . S
C240 C236 1.404 . S
C240 H241 0.950 . S
C240 C242 1.375 . S
H241 C240 0.950 . S
C242 C240 1.375 . S
C242 C244 1.382 . S
C242 H246 0.950 . S
H243 C238 0.949 . S
C244 C239 1.399 . S
C244 C242 1.382 . S
C244 H245 0.952 . S
H245 C244 0.952 . S
H246 C242 0.950 . S
H247 C248 0.949 . S
C248 H247 0.949 . S
C248 C249 1.395 . S
C248 C250 1.391 . S
C249 C248 1.395 . S
C249 C252 1.390 . S
C250 C248 1.391 . S
C250 C254 1.387 . S
C250 C255 1.491 . S
H251 C252 0.950 . S
C252 C249 1.390 . S
C252 H251 0.950 . S
C252 C253 1.378 . S
C253 C252 1.378 . S
C253 C254 1.409 . S
C254 C250 1.387 . S
C254 C253 1.409 . S
C254 H256 0.951 . S
C255 C250 1.491 . S
C255 C257 1.382 . S
C255 C259 1.404 . S
H256 C254 0.951 . S
C257 C255 1.382 . S
C257 C258 1.390 . S
C257 H262 0.949 . S
C258 C257 1.390 . S
C258 C263 1.399 . S
C259 C255 1.404 . S
C259 H260 0.950 . S
C259 C261 1.375 . S
H260 C259 0.950 . S
C261 C259 1.375 . S
C261 C263 1.382 . S
C261 H265 0.950 . S
H262 C257 0.949 . S
C263 C258 1.399 . S
C263 C261 1.382 . S
C263 H264 0.952 . S
H264 C263 0.952 . S
H265 C261 0.950 . S
H266 C267 0.949 . S
C267 H266 0.949 . S
C267 C268 1.395 . S
C267 C269 1.391 . S
C268 C267 1.395 . S
C268 C271 1.390 . S
C269 C267 1.391 . S
C269 C273 1.387 . S
C269 C274 1.491 . S
H270 C271 0.950 . S
C271 C268 1.390 . S
C271 H270 0.950 . S
C271 C272 1.378 . S
C272 C271 1.378 . S
C272 C273 1.409 . S
C273 C269 1.387 . S
C273 C272 1.409 . S
C273 H275 0.951 . S
C274 C269 1.491 . S
C274 C276 1.382 . S
C274 C278 1.404 . S
H275 C273 0.951 . S
C276 C274 1.382 . S
C276 C277 1.390 . S
C276 H281 0.949 . S
C277 C276 1.390 . S
C277 C282 1.399 . S
C278 C274 1.404 . S
C278 H279 0.950 . S
C278 C280 1.375 . S
H279 C278 0.950 . S
C280 C278 1.375 . S
C280 C282 1.382 . S
C280 H284 0.950 . S
H281 C276 0.949 . S
C282 C277 1.399 . S
C282 C280 1.382 . S
C282 H283 0.952 . S
H283 C282 0.952 . S
H284 C280 0.950 . S
H285 C286 0.949 . S
C286 H285 0.949 . S
C286 C287 1.395 . S
C286 C288 1.391 . S
C287 C286 1.395 . S
C287 C290 1.390 . S
C288 C286 1.391 . S
C288 C292 1.387 . S
C288 C293 1.491 . S
H289 C290 0.950 . S
C290 C287 1.390 . S
C290 H289 0.950 . S
C290 C291 1.378 . S
C291 C290 1.378 . S
C291 C292 1.409 . S
C292 C288 1.387 . S
C292 C291 1.409 . S
C292 H294 0.951 . S
C293 C288 1.491 . S
C293 C295 1.382 . S
C293 C297 1.404 . S
H294 C292 0.951 . S
C295 C293 1.382 . S
C295 C296 1.390 . S
C295 H300 0.949 . S
C296 C295 1.390 . S
C296 C301 1.399 . S
C297 C293 1.404 . S
C297 H298 0.950 . S
C297 C299 1.375 . S
H298 C297 0.950 . S
C299 C297 1.375 . S
C299 C301 1.382 . S
C299 H303 0.950 . S
H300 C295 0.949 . S
C301 C296 1.399 . S
C301 C299 1.382 . S
C301 H302 0.952 . S
H302 C301 0.952 . S
H303 C299 0.950 . S
H304 C305 0.949 . S
C305 H304 0.949 . S
C305 C306 1.395 . S
C305 C307 1.391 . S
C306 C305 1.395 . S
C306 C309 1.390 . S
C307 C305 1.391 . S
C307 C311 1.387 . S
C307 C312 1.491 . S
H308 C309 0.950 . S
C309 C306 1.390 . S
C309 H308 0.950 . S
C309 C310 1.378 . S
C310 C309 1.378 . S
C310 C311 1.409 . S
C311 C307 1.387 . S
C311 C310 1.409 . S
C311 H313 0.951 . S
C312 C307 1.491 . S
C312 C314 1.382 . S
C312 C316 1.404 . S
H313 C311 0.951 . S
C314 C312 1.382 . S
C314 C315 1.390 . S
C314 H319 0.949 . S
C315 C314 1.390 . S
C315 C320 1.399 . S
C316 C312 1.404 . S
C316 H317 0.950 . S
C316 C318 1.375 . S
H317 C316 0.950 . S
C318 C316 1.375 . S
C318 C320 1.382 . S
C318 H322 0.950 . S
H319 C314 0.949 . S
C320 C315 1.399 . S
C320 C318 1.382 . S
C320 H321 0.952 . S
H321 C320 0.952 . S
H322 C318 0.950 . S
H323 C324 0.949 . S
C324 H323 0.949 . S
C324 C325 1.395 . S
C324 C326 1.391 . S
C325 C324 1.395 . S
C325 C328 1.390 . S
C326 C324 1.391 . S
C326 C330 1.387 . S
C326 C331 1.491 . S
H327 C328 0.950 . S
C328 C325 1.390 . S
C328 H327 0.950 . S
C328 C329 1.378 . S
C329 C328 1.378 . S
C329 C330 1.409 . S
C330 C326 1.387 . S
C330 C329 1.409 . S
C330 H332 0.951 . S
C331 C326 1.491 . S
C331 C333 1.382 . S
C331 C335 1.404 . S
H332 C330 0.951 . S
C333 C331 1.382 . S
C333 C334 1.390 . S
C333 H338 0.949 . S
C334 C333 1.390 . S
C334 C339 1.399 . S
C335 C331 1.404 . S
C335 H336 0.950 . S
C335 C337 1.375 . S
H336 C335 0.950 . S
C337 C335 1.375 . S
C337 C339 1.382 . S
C337 H341 0.950 . S
H338 C333 0.949 . S
C339 C334 1.399 . S
C339 C337 1.382 . S
C339 H340 0.952 . S
H340 C339 0.952 . S
H341 C337 0.950 . S
Tb342 N373 2.660 . S
Tb342 N380 2.600 . S
Tb342 O386 2.546 . S
Tb342 O387 2.610 1_566 S
Tb342 O389 2.320 1_565 S
Tb342 O390 2.552 1_565 S
Tb342 O391 2.413 1_565 S
Tb342 O393 2.362 1_556 S
Tb342 O394 2.421 . S
Tb342 C406 2.833 1_565 S
C343 C346 1.432 . S
C343 C347 1.414 . S
C343 N350 1.359 . S
C344 C346 1.417 . S
C344 C348 1.432 . S
C344 C356 1.410 . S
C345 C347 1.444 . S
C345 C348 1.317 . S
C345 H368 0.929 . S
C346 C343 1.432 . S
C346 C344 1.417 . S
C346 N354 1.360 . S
C347 C343 1.414 . S
C347 C345 1.444 . S
C347 C352 1.385 . S
C348 C344 1.432 . S
C348 C345 1.317 . S
C348 H360 0.930 . S
C349 C351 1.392 . S
C349 C352 1.370 . S
C349 H361 0.931 . S
N350 C343 1.359 . S
N350 C351 1.327 . S
N350 Tb353 2.600 . S
C351 C349 1.392 . S
C351 N350 1.327 . S
C351 H358 0.930 . S
C352 C347 1.385 . S
C352 C349 1.370 . S
C352 H371 0.930 . S
Tb353 N350 2.600 . S
Tb353 N354 2.660 . S
Tb353 O387 2.362 . S
Tb353 O388 2.421 . S
Tb353 O392 2.546 . S
Tb353 O393 2.610 1_545 S
Tb353 O395 2.320 1_545 S
Tb353 O396 2.552 1_545 S
Tb353 O397 2.413 1_545 S
Tb353 C417 2.833 1_545 S
N354 C346 1.360 . S
N354 Tb353 2.660 . S
N354 C355 1.305 . S
C355 N354 1.305 . S
C355 C357 1.407 . S
C355 H362 0.930 . S
C356 C344 1.410 . S
C356 C357 1.345 . S
C356 H364 0.930 . S
C357 C355 1.407 . S
C357 C356 1.345 . S
C357 H359 0.930 . S
H358 C351 0.930 . S
H359 C357 0.930 . S
H360 C348 0.930 . S
H361 C349 0.931 . S
H362 C355 0.930 . S
H363 C377 0.930 . S
H364 C356 0.930 . S
H365 C383 0.930 . S
H366 C374 0.930 . S
H367 C381 0.931 . S
H368 C345 0.929 . S
H369 C375 0.930 . S
H370 C408 0.930 . S
H371 C352 0.930 . S
H372 C407 0.929 . S
N373 Tb342 2.660 . S
N373 C374 1.305 . S
N373 C378 1.360 . S
C374 H366 0.930 . S
C374 N373 1.305 . S
C374 C377 1.407 . S
C375 H369 0.930 . S
C375 C376 1.410 . S
C375 C377 1.345 . S
C376 C375 1.410 . S
C376 C378 1.417 . S
C376 C408 1.432 . S
C377 H363 0.930 . S
C377 C374 1.407 . S
C377 C375 1.345 . S
C378 N373 1.360 . S
C378 C376 1.417 . S
C378 C382 1.432 . S
H379 C384 0.930 . S
N380 Tb342 2.600 . S
N380 C382 1.359 . S
N380 C383 1.327 . S
C381 H367 0.931 . S
C381 C383 1.392 . S
C381 C384 1.370 . S
C382 C378 1.432 . S
C382 N380 1.359 . S
C382 C385 1.414 . S
C383 H365 0.930 . S
C383 N380 1.327 . S
C383 C381 1.392 . S
C384 H379 0.930 . S
C384 C381 1.370 . S
C384 C385 1.385 . S
C385 C382 1.414 . S
C385 C384 1.385 . S
C385 C407 1.444 . S
O386 Tb342 2.546 . S
O386 C406 1.251 1_565 S
O387 Tb342 2.610 1_544 S
O387 Tb353 2.362 . S
O387 C398 1.283 1_554 S
O388 Tb353 2.421 . S
O388 C405 1.262 . S
O389 Tb342 2.320 1_545 S
O389 C405 1.260 1_556 S
O390 Tb342 2.552 1_545 S
O390 C398 1.243 . S
O391 Tb342 2.413 1_545 S
O391 C406 1.256 . S
O392 Tb353 2.546 . S
O392 C417 1.250 1_545 S
O393 Tb342 2.362 1_554 S
O393 Tb353 2.610 1_565 S
O393 C409 1.283 . S
O394 Tb342 2.421 . S
O394 C416 1.262 1_556 S
O395 Tb353 2.320 1_565 S
O395 C416 1.260 . S
O396 Tb353 2.552 1_565 S
O396 C409 1.243 . S
O397 Tb353 2.413 1_565 S
O397 C417 1.257 . S
C398 O387 1.283 1_556 S
C398 O390 1.243 . S
C399 C401 1.382 . S
C399 C403 1.393 1_545 S
C399 C406 1.500 . S
C400 C401 1.400 . S
C400 C402 1.384 . S
C401 C399 1.382 . S
C401 C400 1.400 . S
C401 H418 0.930 . S
C402 C400 1.384 . S
C402 C404 1.392 . S
C402 H419 0.931 . S
C403 C399 1.393 1_565 S
C403 C404 1.401 1_565 S
C403 H420 0.930 . S
C404 C402 1.392 . S
C404 C403 1.401 1_545 S
C404 H421 0.930 1_545 S
C405 O388 1.262 . S
C405 O389 1.260 1_554 S
C406 Tb342 2.833 1_545 S
C406 O386 1.251 1_545 S
C406 O391 1.256 . S
C406 C399 1.500 . S
C407 H372 0.929 . S
C407 C385 1.444 . S
C407 C408 1.317 . S
C408 H370 0.930 . S
C408 C376 1.432 . S
C408 C407 1.317 . S
C409 O393 1.283 . S
C409 O396 1.243 . S
C410 C411 1.382 . S
C410 C414 1.393 1_565 S
C410 C417 1.500 . S
C411 C410 1.382 . S
C411 C412 1.400 . S
C411 H422 0.930 . S
C412 C411 1.400 . S
C412 C413 1.384 . S
C413 C412 1.384 . S
C413 C415 1.392 . S
C413 H423 0.931 . S
C414 C410 1.393 1_545 S
C414 C415 1.401 1_545 S
C414 H424 0.930 . S
C415 C413 1.392 . S
C415 C414 1.401 1_565 S
C415 H425 0.930 1_565 S
C416 O394 1.262 1_554 S
C416 O395 1.260 . S
C417 Tb353 2.833 1_565 S
C417 O392 1.250 1_565 S
C417 O397 1.257 . S
C417 C410 1.500 . S
H418 C401 0.930 . S
H419 C402 0.931 . S
H420 C403 0.930 . S
H421 C404 0.930 1_565 S
H422 C411 0.930 . S
H423 C413 0.931 . S
H424 C414 0.930 . S
H425 C415 0.930 1_545 S
Tb426 N457 2.660 . S
Tb426 N464 2.600 . S
Tb426 O470 2.546 . S
Tb426 O471 2.610 1_456 S
Tb426 O473 2.320 1_455 S
Tb426 O474 2.552 1_455 S
Tb426 O475 2.413 1_455 S
Tb426 O477 2.362 1_556 S
Tb426 O478 2.421 . S
Tb426 C490 2.833 . S
C427 C430 1.432 . S
C427 C431 1.414 . S
C427 N434 1.359 . S
C428 C430 1.417 . S
C428 C432 1.432 . S
C428 C440 1.410 . S
C429 C431 1.444 . S
C429 C432 1.317 . S
C429 H452 0.929 . S
C430 C427 1.432 . S
C430 C428 1.417 . S
C430 N438 1.360 . S
C431 C427 1.414 . S
C431 C429 1.444 . S
C431 C436 1.385 . S
C432 C428 1.432 . S
C432 C429 1.317 . S
C432 H444 0.930 . S
C433 C435 1.392 . S
C433 C436 1.370 . S
C433 H445 0.931 . S
N434 C427 1.359 . S
N434 C435 1.327 . S
N434 Tb437 2.600 . S
C435 C433 1.392 . S
C435 N434 1.327 . S
C435 H442 0.930 . S
C436 C431 1.385 . S
C436 C433 1.370 . S
C436 H455 0.930 . S
Tb437 N434 2.600 . S
Tb437 N438 2.660 . S
Tb437 O471 2.362 . S
Tb437 O472 2.421 . S
Tb437 O476 2.546 . S
Tb437 O477 2.610 1_655 S
Tb437 O479 2.320 1_655 S
Tb437 O480 2.552 1_655 S
Tb437 O481 2.413 1_655 S
Tb437 C501 2.833 1_655 S
N438 C430 1.360 . S
N438 Tb437 2.660 . S
N438 C439 1.305 . S
C439 N438 1.305 . S
C439 C441 1.407 . S
C439 H446 0.930 . S
C440 C428 1.410 . S
C440 C441 1.345 . S
C440 H448 0.930 . S
C441 C439 1.407 . S
C441 C440 1.345 . S
C441 H443 0.930 . S
H442 C435 0.930 . S
H443 C441 0.930 . S
H444 C432 0.930 . S
H445 C433 0.931 . S
H446 C439 0.930 . S
H447 C461 0.930 . S
H448 C440 0.930 . S
H449 C467 0.930 . S
H450 C458 0.930 . S
H451 C465 0.931 . S
H452 C429 0.929 . S
H453 C459 0.930 . S
H454 C492 0.930 . S
H455 C436 0.930 . S
H456 C491 0.929 . S
N457 Tb426 2.660 . S
N457 C458 1.305 . S
N457 C462 1.360 . S
C458 H450 0.930 . S
C458 N457 1.305 . S
C458 C461 1.407 . S
C459 H453 0.930 . S
C459 C460 1.410 . S
C459 C461 1.345 . S
C460 C459 1.410 . S
C460 C462 1.417 . S
C460 C492 1.432 . S
C461 H447 0.930 . S
C461 C458 1.407 . S
C461 C459 1.345 . S
C462 N457 1.360 . S
C462 C460 1.417 . S
C462 C466 1.432 . S
H463 C468 0.930 . S
N464 Tb426 2.600 . S
N464 C466 1.359 . S
N464 C467 1.327 . S
C465 H451 0.931 . S
C465 C467 1.392 . S
C465 C468 1.370 . S
C466 C462 1.432 . S
C466 N464 1.359 . S
C466 C469 1.414 . S
C467 H449 0.930 . S
C467 N464 1.327 . S
C467 C465 1.392 . S
C468 H463 0.930 . S
C468 C465 1.370 . S
C468 C469 1.385 . S
C469 C466 1.414 . S
C469 C468 1.385 . S
C469 C491 1.444 . S
O470 Tb426 2.546 . S
O470 C490 1.251 . S
O471 Tb426 2.610 1_654 S
O471 Tb437 2.362 . S
O471 C482 1.283 1_554 S
O472 Tb437 2.421 . S
O472 C489 1.259 1_554 S
O473 Tb426 2.320 1_655 S
O473 C489 1.262 . S
O474 Tb426 2.552 1_655 S
O474 C482 1.243 . S
O475 Tb426 2.413 1_655 S
O475 C490 1.256 1_655 S
O476 Tb437 2.546 . S
O476 C501 1.251 1_655 S
O477 Tb426 2.362 1_554 S
O477 Tb437 2.610 1_455 S
O477 C493 1.283 . S
O478 Tb426 2.421 . S
O478 C500 1.262 1_556 S
O479 Tb437 2.320 1_455 S
O479 C500 1.260 . S
O480 Tb437 2.552 1_455 S
O480 C493 1.243 . S
O481 Tb437 2.413 1_455 S
O481 C501 1.256 . S
C482 O471 1.283 1_556 S
C482 O474 1.243 . S
C483 C485 1.382 . S
C483 C487 1.393 1_655 S
C483 C490 1.500 1_655 S
C484 C485 1.400 . S
C484 C486 1.384 . S
C485 C483 1.382 . S
C485 C484 1.400 . S
C485 H502 0.930 . S
C486 C484 1.384 . S
C486 C488 1.392 1_655 S
C486 H503 0.931 . S
C487 C483 1.393 1_455 S
C487 C488 1.401 . S
C487 H504 0.930 . S
C488 C486 1.392 1_455 S
C488 C487 1.401 . S
C488 H505 0.930 . S
C489 O472 1.259 1_556 S
C489 O473 1.262 . S
C490 Tb426 2.833 . S
C490 O470 1.251 . S
C490 O475 1.256 1_455 S
C490 C483 1.500 1_455 S
C491 H456 0.929 . S
C491 C469 1.444 . S
C491 C492 1.317 . S
C492 H454 0.930 . S
C492 C460 1.432 . S
C492 C491 1.317 . S
C493 O477 1.283 . S
C493 O480 1.243 . S
C494 C495 1.382 . S
C494 C498 1.393 1_455 S
C494 C501 1.500 . S
C495 C494 1.382 . S
C495 C496 1.400 . S
C495 H506 0.930 . S
C496 C495 1.400 . S
C496 C497 1.384 . S
C497 C496 1.384 . S
C497 C499 1.392 . S
C497 H507 0.931 . S
C498 C494 1.393 1_655 S
C498 C499 1.401 1_655 S
C498 H508 0.930 . S
C499 C497 1.392 . S
C499 C498 1.401 1_455 S
C499 H509 0.930 1_455 S
C500 O478 1.262 1_554 S
C500 O479 1.260 . S
C501 Tb437 2.833 1_455 S
C501 O476 1.251 1_455 S
C501 O481 1.256 . S
C501 C494 1.500 . S
H502 C485 0.930 . S
H503 C486 0.931 . S
H504 C487 0.930 . S
H505 C488 0.930 . S
H506 C495 0.930 . S
H507 C497 0.931 . S
H508 C498 0.930 . S
H509 C499 0.930 1_655 S
Tb510 N541 2.660 . S
Tb510 N548 2.600 . S
Tb510 O554 2.546 . S
Tb510 O555 2.610 . S
Tb510 O557 2.320 . S
Tb510 O558 2.552 . S
Tb510 O559 2.413 . S
Tb510 O561 2.362 . S
Tb510 O562 2.421 . S
Tb510 C574 2.833 . S
C511 C514 1.432 . S
C511 C515 1.414 . S
C511 N518 1.359 . S
C512 C514 1.417 . S
C512 C516 1.432 . S
C512 C524 1.410 . S
C513 C515 1.444 . S
C513 C516 1.317 . S
C513 H536 0.929 . S
C514 C511 1.432 . S
C514 C512 1.417 . S
C514 N522 1.360 . S
C515 C511 1.414 . S
C515 C513 1.444 . S
C515 C520 1.385 . S
C516 C512 1.432 . S
C516 C513 1.317 . S
C516 H528 0.930 . S
C517 C519 1.392 . S
C517 C520 1.370 . S
C517 H529 0.931 . S
N518 C511 1.359 . S
N518 C519 1.327 . S
N518 Tb521 2.600 . S
C519 C517 1.392 . S
C519 N518 1.327 . S
C519 H526 0.930 . S
C520 C515 1.385 . S
C520 C517 1.370 . S
C520 H539 0.930 . S
Tb521 N518 2.600 . S
Tb521 N522 2.660 . S
Tb521 O555 2.362 1_556 S
Tb521 O556 2.421 . S
Tb521 O560 2.546 . S
Tb521 O561 2.610 1_556 S
Tb521 O563 2.320 . S
Tb521 O564 2.552 . S
Tb521 O565 2.413 . S
Tb521 C585 2.833 . S
N522 C514 1.360 . S
N522 Tb521 2.660 . S
N522 C523 1.305 . S
C523 N522 1.305 . S
C523 C525 1.407 . S
C523 H530 0.930 . S
C524 C512 1.410 . S
C524 C525 1.345 . S
C524 H532 0.930 . S
C525 C523 1.407 . S
C525 C524 1.345 . S
C525 H527 0.930 . S
H526 C519 0.930 . S
H527 C525 0.930 . S
H528 C516 0.930 . S
H529 C517 0.931 . S
H530 C523 0.930 . S
H531 C545 0.930 . S
H532 C524 0.930 . S
H533 C551 0.930 . S
H534 C542 0.930 . S
H535 C549 0.931 . S
H536 C513 0.929 . S
H537 C543 0.930 . S
H538 C576 0.930 . S
H539 C520 0.930 . S
H540 C575 0.929 . S
N541 Tb510 2.660 . S
N541 C542 1.305 . S
N541 C546 1.360 . S
C542 H534 0.930 . S
C542 N541 1.305 . S
C542 C545 1.407 . S
C543 H537 0.930 . S
C543 C544 1.410 . S
C543 C545 1.345 . S
C544 C543 1.410 . S
C544 C546 1.417 . S
C544 C576 1.432 . S
C545 H531 0.930 . S
C545 C542 1.407 . S
C545 C543 1.345 . S
C546 N541 1.360 . S
C546 C544 1.417 . S
C546 C550 1.432 . S
H547 C552 0.930 . S
N548 Tb510 2.600 . S
N548 C550 1.359 . S
N548 C551 1.327 . S
C549 H535 0.931 . S
C549 C551 1.392 . S
C549 C552 1.370 . S
C550 C546 1.432 . S
C550 N548 1.359 . S
C550 C553 1.414 . S
C551 H533 0.930 . S
C551 N548 1.327 . S
C551 C549 1.392 . S
C552 H547 0.930 . S
C552 C549 1.370 . S
C552 C553 1.385 . S
C553 C550 1.414 . S
C553 C552 1.385 . S
C553 C575 1.444 . S
O554 Tb510 2.546 . S
O554 C574 1.251 . S
O555 Tb510 2.610 . S
O555 Tb521 2.362 1_554 S
O555 C566 1.283 . S
O556 Tb521 2.421 . S
O556 C573 1.262 1_556 S
O557 Tb510 2.320 . S
O557 C573 1.260 . S
O558 Tb510 2.552 . S
O558 C566 1.243 . S
O559 Tb510 2.413 . S
O559 C574 1.256 . S
O560 Tb521 2.546 . S
O560 C585 1.251 . S
O561 Tb510 2.362 . S
O561 Tb521 2.610 1_554 S
O561 C577 1.283 1_554 S
O562 Tb510 2.421 . S
O562 C584 1.262 . S
O563 Tb521 2.320 . S
O563 C584 1.260 1_556 S
O564 Tb521 2.552 . S
O564 C577 1.243 . S
O565 Tb521 2.413 . S
O565 C585 1.256 . S
C566 O555 1.283 . S
C566 O558 1.243 . S
C567 C569 1.382 . S
C567 C571 1.393 . S
C567 C574 1.500 . S
C568 C569 1.400 . S
C568 C570 1.384 . S
C569 C567 1.382 . S
C569 C568 1.400 . S
C569 H586 0.930 . S
C570 C568 1.384 . S
C570 C572 1.392 . S
C570 H587 0.931 . S
C571 C567 1.393 . S
C571 C572 1.401 . S
C571 H588 0.930 . S
C572 C570 1.392 . S
C572 C571 1.401 . S
C572 H589 0.930 . S
C573 O556 1.262 1_554 S
C573 O557 1.260 . S
C574 Tb510 2.833 . S
C574 O554 1.251 . S
C574 O559 1.256 . S
C574 C567 1.500 . S
C575 H540 0.929 . S
C575 C553 1.444 . S
C575 C576 1.317 . S
C576 H538 0.930 . S
C576 C544 1.432 . S
C576 C575 1.317 . S
C577 O561 1.283 1_556 S
C577 O564 1.243 . S
C578 C579 1.382 . S
C578 C582 1.393 . S
C578 C585 1.500 . S
C579 C578 1.382 . S
C579 C580 1.400 . S
C579 H590 0.930 . S
C580 C579 1.400 . S
C580 C581 1.384 . S
C581 C580 1.384 . S
C581 C583 1.392 . S
C581 H591 0.931 . S
C582 C578 1.393 . S
C582 C583 1.401 . S
C582 H592 0.930 . S
C583 C581 1.392 . S
C583 C582 1.401 . S
C583 H593 0.930 . S
C584 O562 1.262 . S
C584 O563 1.260 1_554 S
C585 Tb521 2.833 . S
C585 O560 1.251 . S
C585 O565 1.256 . S
C585 C578 1.500 . S
H586 C569 0.930 . S
H587 C570 0.931 . S
H588 C571 0.930 . S
H589 C572 0.930 . S
H590 C579 0.930 . S
H591 C581 0.931 . S
H592 C582 0.930 . S
H593 C583 0.930 . S
Tb594 N625 2.660 . S
Tb594 N632 2.600 . S
Tb594 O638 2.546 . S
Tb594 O639 2.610 . S
Tb594 O641 2.320 . S
Tb594 O642 2.552 . S
Tb594 O643 2.413 . S
Tb594 O645 2.362 . S
Tb594 O646 2.421 . S
Tb594 C658 2.833 . S
C595 C598 1.432 . S
C595 C599 1.414 . S
C595 N602 1.359 . S
C596 C598 1.417 . S
C596 C600 1.432 . S
C596 C608 1.410 . S
C597 C599 1.444 . S
C597 C600 1.317 . S
C597 H620 0.929 . S
C598 C595 1.432 . S
C598 C596 1.417 . S
C598 N606 1.360 . S
C599 C595 1.414 . S
C599 C597 1.444 . S
C599 C604 1.385 . S
C600 C596 1.432 . S
C600 C597 1.317 . S
C600 H612 0.930 . S
C601 C603 1.392 . S
C601 C604 1.370 . S
C601 H613 0.931 . S
N602 C595 1.359 . S
N602 C603 1.327 . S
N602 Tb605 2.600 . S
C603 C601 1.392 . S
C603 N602 1.327 . S
C603 H610 0.930 . S
C604 C599 1.385 . S
C604 C601 1.370 . S
C604 H623 0.930 . S
Tb605 N602 2.600 . S
Tb605 N606 2.660 . S
Tb605 O639 2.362 . S
Tb605 O640 2.421 . S
Tb605 O644 2.546 . S
Tb605 O645 2.610 . S
Tb605 O647 2.320 . S
Tb605 O648 2.552 . S
Tb605 O649 2.413 . S
Tb605 C669 2.833 . S
N606 C598 1.360 . S
N606 Tb605 2.660 . S
N606 C607 1.305 . S
C607 N606 1.305 . S
C607 C609 1.407 . S
C607 H614 0.930 . S
C608 C596 1.410 . S
C608 C609 1.345 . S
C608 H616 0.930 . S
C609 C607 1.407 . S
C609 C608 1.345 . S
C609 H611 0.930 . S
H610 C603 0.930 . S
H611 C609 0.930 . S
H612 C600 0.930 . S
H613 C601 0.931 . S
H614 C607 0.930 . S
H615 C629 0.930 . S
H616 C608 0.930 . S
H617 C635 0.930 . S
H618 C626 0.930 . S
H619 C633 0.931 . S
H620 C597 0.929 . S
H621 C627 0.930 . S
H622 C660 0.930 . S
H623 C604 0.930 . S
H624 C659 0.929 . S
N625 Tb594 2.660 . S
N625 C626 1.305 . S
N625 C630 1.360 . S
C626 H618 0.930 . S
C626 N625 1.305 . S
C626 C629 1.407 1_455 S
C627 H621 0.930 . S
C627 C628 1.410 . S
C627 C629 1.345 . S
C628 C627 1.410 . S
C628 C630 1.417 1_655 S
C628 C660 1.432 . S
C629 H615 0.930 . S
C629 C626 1.407 1_655 S
C629 C627 1.345 . S
C630 N625 1.360 . S
C630 C628 1.417 1_455 S
C630 C634 1.432 . S
H631 C636 0.930 . S
N632 Tb594 2.600 . S
N632 C634 1.359 . S
N632 C635 1.327 . S
C633 H619 0.931 . S
C633 C635 1.392 . S
C633 C636 1.370 . S
C634 C630 1.432 . S
C634 N632 1.359 . S
C634 C637 1.414 . S
C635 H617 0.930 . S
C635 N632 1.327 . S
C635 C633 1.392 . S
C636 H631 0.930 . S
C636 C633 1.370 . S
C636 C637 1.385 . S
C637 C634 1.414 . S
C637 C636 1.385 . S
C637 C659 1.444 1_455 S
O638 Tb594 2.546 . S
O638 C658 1.251 . S
O639 Tb594 2.610 . S
O639 Tb605 2.362 . S
O639 C650 1.283 . S
O640 Tb605 2.421 . S
O640 C657 1.262 . S
O641 Tb594 2.320 . S
O641 C657 1.260 . S
O642 Tb594 2.552 . S
O642 C650 1.243 . S
O643 Tb594 2.413 . S
O643 C658 1.256 . S
O644 Tb605 2.546 . S
O644 C669 1.251 . S
O645 Tb594 2.362 . S
O645 Tb605 2.610 . S
O645 C661 1.283 . S
O646 Tb594 2.421 . S
O646 C668 1.262 . S
O647 Tb605 2.320 . S
O647 C668 1.260 . S
O648 Tb605 2.552 . S
O648 C661 1.243 . S
O649 Tb605 2.413 . S
O649 C669 1.256 . S
C650 O639 1.283 . S
C650 O642 1.243 . S
C651 C653 1.382 . S
C651 C655 1.393 . S
C651 C658 1.500 . S
C652 C653 1.400 . S
C652 C654 1.384 . S
C653 C651 1.382 . S
C653 C652 1.400 . S
C653 H670 0.930 . S
C654 C652 1.384 . S
C654 C656 1.392 . S
C654 H671 0.931 . S
C655 C651 1.393 . S
C655 C656 1.401 . S
C655 H672 0.930 . S
C656 C654 1.392 . S
C656 C655 1.401 . S
C656 H673 0.930 . S
C657 O640 1.262 . S
C657 O641 1.260 . S
C658 Tb594 2.833 . S
C658 O638 1.251 . S
C658 O643 1.256 . S
C658 C651 1.500 . S
C659 H624 0.929 . S
C659 C637 1.444 1_655 S
C659 C660 1.317 . S
C660 H622 0.930 . S
C660 C628 1.432 . S
C660 C659 1.317 . S
C661 O645 1.283 . S
C661 O648 1.243 . S
C662 C663 1.382 . S
C662 C666 1.393 . S
C662 C669 1.500 . S
C663 C662 1.382 . S
C663 C664 1.400 . S
C663 H674 0.930 . S
C664 C663 1.400 . S
C664 C665 1.384 . S
C665 C664 1.384 . S
C665 C667 1.392 . S
C665 H675 0.931 . S
C666 C662 1.393 . S
C666 C667 1.401 . S
C666 H676 0.930 . S
C667 C665 1.392 . S
C667 C666 1.401 . S
C667 H677 0.930 . S
C668 O646 1.262 . S
C668 O647 1.260 . S
C669 Tb605 2.833 . S
C669 O644 1.251 . S
C669 O649 1.256 . S
C669 C662 1.500 . S
H670 C653 0.930 . S
H671 C654 0.931 . S
H672 C655 0.930 . S
H673 C656 0.930 . S
H674 C663 0.930 . S
H675 C665 0.931 . S
H676 C666 0.930 . S
H677 C667 0.930 . S
Tb678 N709 2.660 . S
Tb678 N716 2.600 . S
Tb678 O722 2.546 . S
Tb678 O723 2.610 . S
Tb678 O725 2.320 . S
Tb678 O726 2.552 . S
Tb678 O727 2.413 . S
Tb678 O729 2.362 . S
Tb678 O730 2.421 . S
Tb678 C742 2.833 . S
C679 C682 1.432 . S
C679 C683 1.414 . S
C679 N686 1.359 . S
C680 C682 1.417 . S
C680 C684 1.432 . S
C680 C692 1.410 . S
C681 C683 1.444 . S
C681 C684 1.317 . S
C681 H704 0.929 . S
C682 C679 1.432 . S
C682 C680 1.417 . S
C682 N690 1.360 . S
C683 C679 1.414 . S
C683 C681 1.444 . S
C683 C688 1.385 . S
C684 C680 1.432 . S
C684 C681 1.317 . S
C684 H696 0.930 . S
C685 C687 1.392 . S
C685 C688 1.370 . S
C685 H697 0.931 . S
N686 C679 1.359 . S
N686 C687 1.327 . S
N686 Tb689 2.600 . S
C687 C685 1.392 . S
C687 N686 1.327 . S
C687 H694 0.930 . S
C688 C683 1.385 . S
C688 C685 1.370 . S
C688 H707 0.930 . S
Tb689 N686 2.600 . S
Tb689 N690 2.660 . S
Tb689 O723 2.362 . S
Tb689 O724 2.421 . S
Tb689 O728 2.546 . S
Tb689 O729 2.610 . S
Tb689 O731 2.320 . S
Tb689 O732 2.552 . S
Tb689 O733 2.413 . S
Tb689 C753 2.833 . S
N690 C682 1.360 . S
N690 Tb689 2.660 . S
N690 C691 1.305 . S
C691 N690 1.305 . S
C691 C693 1.407 . S
C691 H698 0.930 . S
C692 C680 1.410 . S
C692 C693 1.345 . S
C692 H700 0.930 . S
C693 C691 1.407 . S
C693 C692 1.345 . S
C693 H695 0.930 . S
H694 C687 0.930 . S
H695 C693 0.930 . S
H696 C684 0.930 . S
H697 C685 0.931 . S
H698 C691 0.930 . S
H699 C713 0.930 . S
H700 C692 0.930 . S
H701 C719 0.930 . S
H702 C710 0.930 . S
H703 C717 0.931 . S
H704 C681 0.929 . S
H705 C711 0.930 . S
H706 C744 0.930 . S
H707 C688 0.930 . S
H708 C743 0.929 . S
N709 Tb678 2.660 . S
N709 C710 1.305 . S
N709 C714 1.360 . S
C710 H702 0.930 . S
C710 N709 1.305 . S
C710 C713 1.407 . S
C711 H705 0.930 . S
C711 C712 1.410 . S
C711 C713 1.345 . S
C712 C711 1.410 . S
C712 C714 1.417 . S
C712 C744 1.432 . S
C713 H699 0.930 . S
C713 C710 1.407 . S
C713 C711 1.345 . S
C714 N709 1.360 . S
C714 C712 1.417 . S
C714 C718 1.432 . S
H715 C720 0.930 . S
N716 Tb678 2.600 . S
N716 C718 1.359 . S
N716 C719 1.327 . S
C717 H703 0.931 . S
C717 C719 1.392 . S
C717 C720 1.370 . S
C718 C714 1.432 . S
C718 N716 1.359 . S
C718 C721 1.414 . S
C719 H701 0.930 . S
C719 N716 1.327 . S
C719 C717 1.392 . S
C720 H715 0.930 . S
C720 C717 1.370 . S
C720 C721 1.385 . S
C721 C718 1.414 . S
C721 C720 1.385 . S
C721 C743 1.444 . S
O722 Tb678 2.546 . S
O722 C742 1.251 . S
O723 Tb678 2.610 . S
O723 Tb689 2.362 . S
O723 C734 1.283 . S
O724 Tb689 2.421 . S
O724 C741 1.262 . S
O725 Tb678 2.320 . S
O725 C741 1.260 . S
O726 Tb678 2.552 . S
O726 C734 1.243 . S
O727 Tb678 2.413 . S
O727 C742 1.256 . S
O728 Tb689 2.546 . S
O728 C753 1.251 . S
O729 Tb678 2.362 . S
O729 Tb689 2.610 . S
O729 C745 1.283 . S
O730 Tb678 2.421 . S
O730 C752 1.262 . S
O731 Tb689 2.320 . S
O731 C752 1.260 . S
O732 Tb689 2.552 . S
O732 C745 1.243 . S
O733 Tb689 2.413 . S
O733 C753 1.256 . S
C734 O723 1.283 . S
C734 O726 1.243 . S
C735 C737 1.382 . S
C735 C739 1.393 . S
C735 C742 1.500 . S
C736 C737 1.400 . S
C736 C738 1.384 . S
C737 C735 1.382 . S
C737 C736 1.400 . S
C737 H754 0.930 . S
C738 C736 1.384 . S
C738 C740 1.392 . S
C738 H755 0.931 . S
C739 C735 1.393 . S
C739 C740 1.401 . S
C739 H756 0.930 . S
C740 C738 1.392 . S
C740 C739 1.401 . S
C740 H757 0.930 . S
C741 O724 1.262 . S
C741 O725 1.260 . S
C742 Tb678 2.833 . S
C742 O722 1.251 . S
C742 O727 1.256 . S
C742 C735 1.500 . S
C743 H708 0.929 . S
C743 C721 1.444 . S
C743 C744 1.317 . S
C744 H706 0.930 . S
C744 C712 1.432 . S
C744 C743 1.317 . S
C745 O729 1.283 . S
C745 O732 1.243 . S
C746 C747 1.382 . S
C746 C750 1.393 . S
C746 C753 1.500 . S
C747 C746 1.382 . S
C747 C748 1.400 . S
C747 H758 0.930 . S
C748 C747 1.400 . S
C748 C749 1.384 . S
C749 C748 1.384 . S
C749 C751 1.392 . S
C749 H759 0.931 . S
C750 C746 1.393 . S
C750 C751 1.401 . S
C750 H760 0.930 . S
C751 C749 1.392 . S
C751 C750 1.401 . S
C751 H761 0.930 . S
C752 O730 1.262 . S
C752 O731 1.260 . S
C753 Tb689 2.833 . S
C753 O728 1.251 . S
C753 O733 1.256 . S
C753 C746 1.500 . S
H754 C737 0.930 . S
H755 C738 0.931 . S
H756 C739 0.930 . S
H757 C740 0.930 . S
H758 C747 0.930 . S
H759 C749 0.931 . S
H760 C750 0.930 . S
H761 C751 0.930 . S
Tb762 N793 2.660 . S
Tb762 N800 2.600 . S
Tb762 O806 2.546 . S
Tb762 O807 2.610 . S
Tb762 O809 2.320 . S
Tb762 O810 2.552 . S
Tb762 O811 2.413 . S
Tb762 O813 2.362 . S
Tb762 O814 2.421 . S
Tb762 C826 2.833 . S
C763 C766 1.432 . S
C763 C767 1.414 . S
C763 N770 1.359 . S
C764 C766 1.417 . S
C764 C768 1.432 . S
C764 C776 1.410 . S
C765 C767 1.444 . S
C765 C768 1.317 . S
C765 H788 0.929 . S
C766 C763 1.432 . S
C766 C764 1.417 . S
C766 N774 1.360 . S
C767 C763 1.414 . S
C767 C765 1.444 . S
C767 C772 1.385 . S
C768 C764 1.432 . S
C768 C765 1.317 . S
C768 H780 0.930 . S
C769 C771 1.392 . S
C769 C772 1.370 . S
C769 H781 0.931 . S
N770 C763 1.359 . S
N770 C771 1.327 . S
N770 Tb773 2.600 . S
C771 C769 1.392 . S
C771 N770 1.327 . S
C771 H778 0.930 . S
C772 C767 1.385 . S
C772 C769 1.370 . S
C772 H791 0.930 . S
Tb773 N770 2.600 . S
Tb773 N774 2.660 . S
Tb773 O807 2.362 . S
Tb773 O808 2.421 . S
Tb773 O812 2.546 . S
Tb773 O813 2.610 . S
Tb773 O815 2.320 . S
Tb773 O816 2.552 . S
Tb773 O817 2.413 . S
Tb773 C837 2.833 . S
N774 C766 1.360 . S
N774 Tb773 2.660 . S
N774 C775 1.305 . S
C775 N774 1.305 . S
C775 C777 1.407 . S
C775 H782 0.930 . S
C776 C764 1.410 . S
C776 C777 1.345 . S
C776 H784 0.930 . S
C777 C775 1.407 . S
C777 C776 1.345 . S
C777 H779 0.930 . S
H778 C771 0.930 . S
H779 C777 0.930 . S
H780 C768 0.930 . S
H781 C769 0.931 . S
H782 C775 0.930 . S
H783 C797 0.930 . S
H784 C776 0.930 . S
H785 C803 0.930 . S
H786 C794 0.930 . S
H787 C801 0.931 . S
H788 C765 0.929 . S
H789 C795 0.930 . S
H790 C828 0.930 . S
H791 C772 0.930 . S
H792 C827 0.929 . S
N793 Tb762 2.660 . S
N793 C794 1.305 . S
N793 C798 1.360 . S
C794 H786 0.930 . S
C794 N793 1.305 . S
C794 C797 1.407 . S
C795 H789 0.930 . S
C795 C796 1.410 . S
C795 C797 1.345 . S
C796 C795 1.410 . S
C796 C798 1.417 . S
C796 C828 1.432 . S
C797 H783 0.930 . S
C797 C794 1.407 . S
C797 C795 1.345 . S
C798 N793 1.360 . S
C798 C796 1.417 . S
C798 C802 1.432 . S
H799 C804 0.930 . S
N800 Tb762 2.600 . S
N800 C802 1.359 . S
N800 C803 1.327 . S
C801 H787 0.931 . S
C801 C803 1.392 . S
C801 C804 1.370 . S
C802 C798 1.432 . S
C802 N800 1.359 . S
C802 C805 1.414 . S
C803 H785 0.930 . S
C803 N800 1.327 . S
C803 C801 1.392 . S
C804 H799 0.930 . S
C804 C801 1.370 . S
C804 C805 1.385 . S
C805 C802 1.414 . S
C805 C804 1.385 . S
C805 C827 1.444 . S
O806 Tb762 2.546 . S
O806 C826 1.251 . S
O807 Tb762 2.610 . S
O807 Tb773 2.362 . S
O807 C818 1.283 . S
O808 Tb773 2.421 . S
O808 C825 1.262 . S
O809 Tb762 2.320 . S
O809 C825 1.260 . S
O810 Tb762 2.552 . S
O810 C818 1.243 . S
O811 Tb762 2.413 . S
O811 C826 1.256 . S
O812 Tb773 2.546 . S
O812 C837 1.251 . S
O813 Tb762 2.362 . S
O813 Tb773 2.610 . S
O813 C829 1.283 . S
O814 Tb762 2.421 . S
O814 C836 1.262 . S
O815 Tb773 2.320 . S
O815 C836 1.260 . S
O816 Tb773 2.552 . S
O816 C829 1.243 . S
O817 Tb773 2.413 . S
O817 C837 1.256 . S
C818 O807 1.283 . S
C818 O810 1.243 . S
C819 C821 1.382 . S
C819 C823 1.393 . S
C819 C826 1.500 . S
C820 C821 1.400 . S
C820 C822 1.384 . S
C821 C819 1.382 . S
C821 C820 1.400 . S
C821 H838 0.930 . S
C822 C820 1.384 . S
C822 C824 1.392 . S
C822 H839 0.931 . S
C823 C819 1.393 . S
C823 C824 1.401 . S
C823 H840 0.930 . S
C824 C822 1.392 . S
C824 C823 1.401 . S
C824 H841 0.930 . S
C825 O808 1.262 . S
C825 O809 1.260 . S
C826 Tb762 2.833 . S
C826 O806 1.251 . S
C826 O811 1.256 . S
C826 C819 1.500 . S
C827 H792 0.929 . S
C827 C805 1.444 . S
C827 C828 1.317 . S
C828 H790 0.930 . S
C828 C796 1.432 . S
C828 C827 1.317 . S
C829 O813 1.283 . S
C829 O816 1.243 . S
C830 C831 1.382 . S
C830 C834 1.393 . S
C830 C837 1.500 . S
C831 C830 1.382 . S
C831 C832 1.400 . S
C831 H842 0.930 . S
C832 C831 1.400 . S
C832 C833 1.384 . S
C833 C832 1.384 . S
C833 C835 1.392 . S
C833 H843 0.931 . S
C834 C830 1.393 . S
C834 C835 1.401 . S
C834 H844 0.930 . S
C835 C833 1.392 . S
C835 C834 1.401 . S
C835 H845 0.930 . S
C836 O814 1.262 . S
C836 O815 1.260 . S
C837 Tb773 2.833 . S
C837 O812 1.251 . S
C837 O817 1.256 . S
C837 C830 1.500 . S
H838 C821 0.930 . S
H839 C822 0.931 . S
H840 C823 0.930 . S
H841 C824 0.930 . S
H842 C831 0.930 . S
H843 C833 0.931 . S
H844 C834 0.930 . S
H845 C835 0.930 . S
Tb846 N877 2.660 . S
Tb846 N884 2.600 . S
Tb846 O890 2.546 . S
Tb846 O891 2.610 . S
Tb846 O893 2.320 . S
Tb846 O894 2.552 . S
Tb846 O895 2.413 . S
Tb846 O897 2.362 . S
Tb846 O898 2.421 . S
Tb846 C910 2.833 . S
C847 C850 1.432 . S
C847 C851 1.414 . S
C847 N854 1.359 . S
C848 C850 1.417 . S
C848 C852 1.432 . S
C848 C860 1.410 . S
C849 C851 1.444 . S
C849 C852 1.317 . S
C849 H872 0.929 . S
C850 C847 1.432 . S
C850 C848 1.417 . S
C850 N858 1.360 . S
C851 C847 1.414 . S
C851 C849 1.444 . S
C851 C856 1.385 . S
C852 C848 1.432 . S
C852 C849 1.317 . S
C852 H864 0.930 . S
C853 C855 1.392 . S
C853 C856 1.370 . S
C853 H865 0.931 . S
N854 C847 1.359 . S
N854 C855 1.327 . S
N854 Tb857 2.600 . S
C855 C853 1.392 . S
C855 N854 1.327 . S
C855 H862 0.930 . S
C856 C851 1.385 . S
C856 C853 1.370 . S
C856 H875 0.930 . S
Tb857 N854 2.600 . S
Tb857 N858 2.660 . S
Tb857 O891 2.362 . S
Tb857 O892 2.421 . S
Tb857 O896 2.546 . S
Tb857 O897 2.610 . S
Tb857 O899 2.320 . S
Tb857 O900 2.552 . S
Tb857 O901 2.413 . S
Tb857 C921 2.833 . S
N858 C850 1.360 . S
N858 Tb857 2.660 . S
N858 C859 1.305 . S
C859 N858 1.305 . S
C859 C861 1.407 . S
C859 H866 0.930 . S
C860 C848 1.410 . S
C860 C861 1.345 . S
C860 H868 0.930 . S
C861 C859 1.407 . S
C861 C860 1.345 . S
C861 H863 0.930 . S
H862 C855 0.930 . S
H863 C861 0.930 . S
H864 C852 0.930 . S
H865 C853 0.931 . S
H866 C859 0.930 . S
H867 C881 0.930 . S
H868 C860 0.930 . S
H869 C887 0.930 . S
H870 C878 0.930 . S
H871 C885 0.931 . S
H872 C849 0.929 . S
H873 C879 0.930 . S
H874 C912 0.930 . S
H875 C856 0.930 . S
H876 C911 0.929 . S
N877 Tb846 2.660 . S
N877 C878 1.305 . S
N877 C882 1.360 . S
C878 H870 0.930 . S
C878 N877 1.305 . S
C878 C881 1.407 . S
C879 H873 0.930 . S
C879 C880 1.410 . S
C879 C881 1.345 . S
C880 C879 1.410 . S
C880 C882 1.417 . S
C880 C912 1.432 . S
C881 H867 0.930 . S
C881 C878 1.407 . S
C881 C879 1.345 . S
C882 N877 1.360 . S
C882 C880 1.417 . S
C882 C886 1.432 . S
H883 C888 0.930 . S
N884 Tb846 2.600 . S
N884 C886 1.359 . S
N884 C887 1.327 . S
C885 H871 0.931 . S
C885 C887 1.392 . S
C885 C888 1.370 . S
C886 C882 1.432 . S
C886 N884 1.359 . S
C886 C889 1.414 . S
C887 H869 0.930 . S
C887 N884 1.327 . S
C887 C885 1.392 . S
C888 H883 0.930 . S
C888 C885 1.370 . S
C888 C889 1.385 . S
C889 C886 1.414 . S
C889 C888 1.385 . S
C889 C911 1.444 . S
O890 Tb846 2.546 . S
O890 C910 1.251 . S
O891 Tb846 2.610 . S
O891 Tb857 2.362 . S
O891 C902 1.283 . S
O892 Tb857 2.421 . S
O892 C909 1.262 . S
O893 Tb846 2.320 . S
O893 C909 1.260 . S
O894 Tb846 2.552 . S
O894 C902 1.243 . S
O895 Tb846 2.413 . S
O895 C910 1.256 . S
O896 Tb857 2.546 . S
O896 C921 1.251 . S
O897 Tb846 2.362 . S
O897 Tb857 2.610 . S
O897 C913 1.283 . S
O898 Tb846 2.421 . S
O898 C920 1.262 . S
O899 Tb857 2.320 . S
O899 C920 1.260 . S
O900 Tb857 2.552 . S
O900 C913 1.243 . S
O901 Tb857 2.413 . S
O901 C921 1.256 . S
C902 O891 1.283 . S
C902 O894 1.243 . S
C903 C905 1.382 . S
C903 C907 1.393 . S
C903 C910 1.500 . S
C904 C905 1.400 . S
C904 C906 1.384 . S
C905 C903 1.382 . S
C905 C904 1.400 . S
C905 H922 0.930 . S
C906 C904 1.384 . S
C906 C908 1.392 . S
C906 H923 0.931 . S
C907 C903 1.393 . S
C907 C908 1.401 . S
C907 H924 0.930 . S
C908 C906 1.392 . S
C908 C907 1.401 . S
C908 H925 0.930 . S
C909 O892 1.262 . S
C909 O893 1.260 . S
C910 Tb846 2.833 . S
C910 O890 1.251 . S
C910 O895 1.256 . S
C910 C903 1.500 . S
C911 H876 0.929 . S
C911 C889 1.444 . S
C911 C912 1.317 . S
C912 H874 0.930 . S
C912 C880 1.432 . S
C912 C911 1.317 . S
C913 O897 1.283 . S
C913 O900 1.243 . S
C914 C915 1.382 . S
C914 C918 1.393 . S
C914 C921 1.500 . S
C915 C914 1.382 . S
C915 C916 1.400 . S
C915 H926 0.930 . S
C916 C915 1.400 . S
C916 C917 1.384 . S
C917 C916 1.384 . S
C917 C919 1.392 . S
C917 H927 0.931 . S
C918 C914 1.393 . S
C918 C919 1.401 . S
C918 H928 0.930 . S
C919 C917 1.392 . S
C919 C918 1.401 . S
C919 H929 0.930 . S
C920 O898 1.262 . S
C920 O899 1.260 . S
C921 Tb857 2.833 . S
C921 O896 1.251 . S
C921 O901 1.256 . S
C921 C914 1.500 . S
H922 C905 0.930 . S
H923 C906 0.931 . S
H924 C907 0.930 . S
H925 C908 0.930 . S
H926 C915 0.930 . S
H927 C917 0.931 . S
H928 C918 0.930 . S
H929 C919 0.930 . S
Tb930 N961 2.660 . S
Tb930 N968 2.600 . S
Tb930 O974 2.546 . S
Tb930 O975 2.610 . S
Tb930 O977 2.320 . S
Tb930 O978 2.552 . S
Tb930 O979 2.413 . S
Tb930 O981 2.362 . S
Tb930 O982 2.421 . S
Tb930 C994 2.833 . S
C931 C934 1.432 . S
C931 C935 1.414 . S
C931 N938 1.359 . S
C932 C934 1.417 . S
C932 C936 1.432 . S
C932 C944 1.410 . S
C933 C935 1.444 . S
C933 C936 1.317 . S
C933 H956 0.929 . S
C934 C931 1.432 . S
C934 C932 1.417 . S
C934 N942 1.360 . S
C935 C931 1.414 . S
C935 C933 1.444 . S
C935 C940 1.385 . S
C936 C932 1.432 . S
C936 C933 1.317 . S
C936 H948 0.930 . S
C937 C939 1.392 . S
C937 C940 1.370 . S
C937 H949 0.931 . S
N938 C931 1.359 . S
N938 C939 1.327 . S
N938 Tb941 2.600 . S
C939 C937 1.392 . S
C939 N938 1.327 . S
C939 H946 0.930 . S
C940 C935 1.385 . S
C940 C937 1.370 . S
C940 H959 0.930 . S
Tb941 N938 2.600 . S
Tb941 N942 2.660 . S
Tb941 O975 2.362 . S
Tb941 O976 2.421 . S
Tb941 O980 2.546 . S
Tb941 O981 2.610 . S
Tb941 O983 2.320 . S
Tb941 O984 2.552 . S
Tb941 O985 2.413 . S
Tb941 C1005 2.833 . S
N942 C934 1.360 . S
N942 Tb941 2.660 . S
N942 C943 1.305 . S
C943 N942 1.305 . S
C943 C945 1.407 . S
C943 H950 0.930 . S
C944 C932 1.410 . S
C944 C945 1.345 . S
C944 H952 0.930 . S
C945 C943 1.407 . S
C945 C944 1.345 . S
C945 H947 0.930 . S
H946 C939 0.930 . S
H947 C945 0.930 . S
H948 C936 0.930 . S
H949 C937 0.931 . S
H950 C943 0.930 . S
H951 C965 0.930 . S
H952 C944 0.930 . S
H953 C971 0.930 . S
H954 C962 0.930 . S
H955 C969 0.931 . S
H956 C933 0.929 . S
H957 C963 0.930 . S
H958 C996 0.930 . S
H959 C940 0.930 . S
H960 C995 0.929 . S
N961 Tb930 2.660 . S
N961 C962 1.305 . S
N961 C966 1.360 . S
C962 H954 0.930 . S
C962 N961 1.305 . S
C962 C965 1.407 . S
C963 H957 0.930 . S
C963 C964 1.410 . S
C963 C965 1.345 . S
C964 C963 1.410 . S
C964 C966 1.417 . S
C964 C996 1.432 . S
C965 H951 0.930 . S
C965 C962 1.407 . S
C965 C963 1.345 . S
C966 N961 1.360 . S
C966 C964 1.417 . S
C966 C970 1.432 . S
H967 C972 0.930 . S
N968 Tb930 2.600 . S
N968 C970 1.359 . S
N968 C971 1.327 . S
C969 H955 0.931 . S
C969 C971 1.392 . S
C969 C972 1.370 . S
C970 C966 1.432 . S
C970 N968 1.359 . S
C970 C973 1.414 . S
C971 H953 0.930 . S
C971 N968 1.327 . S
C971 C969 1.392 . S
C972 H967 0.930 . S
C972 C969 1.370 . S
C972 C973 1.385 . S
C973 C970 1.414 . S
C973 C972 1.385 . S
C973 C995 1.444 . S
O974 Tb930 2.546 . S
O974 C994 1.251 . S
O975 Tb930 2.610 . S
O975 Tb941 2.362 . S
O975 C986 1.283 . S
O976 Tb941 2.421 . S
O976 C993 1.262 . S
O977 Tb930 2.320 . S
O977 C993 1.260 . S
O978 Tb930 2.552 . S
O978 C986 1.243 . S
O979 Tb930 2.413 . S
O979 C994 1.256 . S
O980 Tb941 2.546 . S
O980 C1005 1.251 . S
O981 Tb930 2.362 . S
O981 Tb941 2.610 . S
O981 C997 1.283 . S
O982 Tb930 2.421 . S
O982 C1004 1.262 . S
O983 Tb941 2.320 . S
O983 C1004 1.260 . S
O984 Tb941 2.552 . S
O984 C997 1.243 . S
O985 Tb941 2.413 . S
O985 C1005 1.256 . S
C986 O975 1.283 . S
C986 O978 1.243 . S
C987 C989 1.382 . S
C987 C991 1.393 . S
C987 C994 1.500 . S
C988 C989 1.400 . S
C988 C990 1.384 . S
C989 C987 1.382 . S
C989 C988 1.400 . S
C989 H1006 0.930 . S
C990 C988 1.384 . S
C990 C992 1.392 . S
C990 H1007 0.931 . S
C991 C987 1.393 . S
C991 C992 1.401 . S
C991 H1008 0.930 . S
C992 C990 1.392 . S
C992 C991 1.401 . S
C992 H1009 0.930 . S
C993 O976 1.262 . S
C993 O977 1.260 . S
C994 Tb930 2.833 . S
C994 O974 1.251 . S
C994 O979 1.256 . S
C994 C987 1.500 . S
C995 H960 0.929 . S
C995 C973 1.444 . S
C995 C996 1.317 . S
C996 H958 0.930 . S
C996 C964 1.432 . S
C996 C995 1.317 . S
C997 O981 1.283 . S
C997 O984 1.243 . S
C998 C999 1.382 . S
C998 C1002 1.393 . S
C998 C1005 1.500 . S
C999 C998 1.382 . S
C999 C1000 1.400 . S
C999 H1010 0.930 . S
C1000 C999 1.400 . S
C1000 C1001 1.384 . S
C1001 C1000 1.384 . S
C1001 C1003 1.392 . S
C1001 H1011 0.931 . S
C1002 C998 1.393 . S
C1002 C1003 1.401 . S
C1002 H1012 0.930 . S
C1003 C1001 1.392 . S
C1003 C1002 1.401 . S
C1003 H1013 0.930 . S
C1004 O982 1.262 . S
C1004 O983 1.260 . S
C1005 Tb941 2.833 . S
C1005 O980 1.251 . S
C1005 O985 1.256 . S
C1005 C998 1.500 . S
H1006 C989 0.930 . S
H1007 C990 0.931 . S
H1008 C991 0.930 . S
H1009 C992 0.930 . S
H1010 C999 0.930 . S
H1011 C1001 0.931 . S
H1012 C1002 0.930 . S
H1013 C1003 0.930 . S
Tb1014 N1045 2.660 . S
Tb1014 N1052 2.600 . S
Tb1014 O1058 2.546 . S
Tb1014 O1059 2.610 . S
Tb1014 O1061 2.320 . S
Tb1014 O1062 2.552 . S
Tb1014 O1063 2.413 . S
Tb1014 O1065 2.362 . S
Tb1014 O1066 2.421 . S
Tb1014 C1078 2.833 . S
C1015 C1018 1.432 . S
C1015 C1019 1.414 . S
C1015 N1022 1.359 . S
C1016 C1018 1.417 . S
C1016 C1020 1.432 . S
C1016 C1028 1.410 . S
C1017 C1019 1.444 . S
C1017 C1020 1.317 . S
C1017 H1040 0.929 . S
C1018 C1015 1.432 . S
C1018 C1016 1.417 . S
C1018 N1026 1.360 . S
C1019 C1015 1.414 . S
C1019 C1017 1.444 . S
C1019 C1024 1.385 . S
C1020 C1016 1.432 . S
C1020 C1017 1.317 . S
C1020 H1032 0.930 . S
C1021 C1023 1.392 . S
C1021 C1024 1.370 . S
C1021 H1033 0.931 . S
N1022 C1015 1.359 . S
N1022 C1023 1.327 . S
N1022 Tb1025 2.600 . S
C1023 C1021 1.392 . S
C1023 N1022 1.327 . S
C1023 H1030 0.930 . S
C1024 C1019 1.385 . S
C1024 C1021 1.370 . S
C1024 H1043 0.930 . S
Tb1025 N1022 2.600 . S
Tb1025 N1026 2.660 . S
Tb1025 O1059 2.362 . S
Tb1025 O1060 2.421 . S
Tb1025 O1064 2.546 . S
Tb1025 O1065 2.610 . S
Tb1025 O1067 2.320 . S
Tb1025 O1068 2.552 . S
Tb1025 O1069 2.413 . S
Tb1025 C1089 2.833 . S
N1026 C1018 1.360 . S
N1026 Tb1025 2.660 . S
N1026 C1027 1.305 . S
C1027 N1026 1.305 . S
C1027 C1029 1.407 . S
C1027 H1034 0.930 . S
C1028 C1016 1.410 . S
C1028 C1029 1.345 . S
C1028 H1036 0.930 . S
C1029 C1027 1.407 . S
C1029 C1028 1.345 . S
C1029 H1031 0.930 . S
H1030 C1023 0.930 . S
H1031 C1029 0.930 . S
H1032 C1020 0.930 . S
H1033 C1021 0.931 . S
H1034 C1027 0.930 . S
H1035 C1049 0.930 . S
H1036 C1028 0.930 . S
H1037 C1055 0.930 . S
H1038 C1046 0.930 . S
H1039 C1053 0.931 . S
H1040 C1017 0.929 . S
H1041 C1047 0.930 . S
H1042 C1080 0.930 . S
H1043 C1024 0.930 . S
H1044 C1079 0.929 . S
N1045 Tb1014 2.660 . S
N1045 C1046 1.305 . S
N1045 C1050 1.360 . S
C1046 H1038 0.930 . S
C1046 N1045 1.305 . S
C1046 C1049 1.407 1_655 S
C1047 H1041 0.930 . S
C1047 C1048 1.410 . S
C1047 C1049 1.345 . S
C1048 C1047 1.410 . S
C1048 C1050 1.417 1_455 S
C1048 C1080 1.432 . S
C1049 H1035 0.930 . S
C1049 C1046 1.407 1_455 S
C1049 C1047 1.345 . S
C1050 N1045 1.360 . S
C1050 C1048 1.417 1_655 S
C1050 C1054 1.432 . S
H1051 C1056 0.930 . S
N1052 Tb1014 2.600 . S
N1052 C1054 1.359 . S
N1052 C1055 1.327 . S
C1053 H1039 0.931 . S
C1053 C1055 1.392 . S
C1053 C1056 1.370 . S
C1054 C1050 1.432 . S
C1054 N1052 1.359 . S
C1054 C1057 1.414 . S
C1055 H1037 0.930 . S
C1055 N1052 1.327 . S
C1055 C1053 1.392 . S
C1056 H1051 0.930 . S
C1056 C1053 1.370 . S
C1056 C1057 1.385 . S
C1057 C1054 1.414 . S
C1057 C1056 1.385 . S
C1057 C1079 1.444 1_655 S
O1058 Tb1014 2.546 . S
O1058 C1078 1.251 . S
O1059 Tb1014 2.610 . S
O1059 Tb1025 2.362 . S
O1059 C1070 1.283 . S
O1060 Tb1025 2.421 . S
O1060 C1077 1.262 . S
O1061 Tb1014 2.320 . S
O1061 C1077 1.260 . S
O1062 Tb1014 2.552 . S
O1062 C1070 1.243 . S
O1063 Tb1014 2.413 . S
O1063 C1078 1.256 . S
O1064 Tb1025 2.546 . S
O1064 C1089 1.251 . S
O1065 Tb1014 2.362 . S
O1065 Tb1025 2.610 . S
O1065 C1081 1.283 . S
O1066 Tb1014 2.421 . S
O1066 C1088 1.262 . S
O1067 Tb1025 2.320 . S
O1067 C1088 1.260 . S
O1068 Tb1025 2.552 . S
O1068 C1081 1.243 . S
O1069 Tb1025 2.413 . S
O1069 C1089 1.256 . S
C1070 O1059 1.283 . S
C1070 O1062 1.243 . S
C1071 C1073 1.382 . S
C1071 C1075 1.393 . S
C1071 C1078 1.500 . S
C1072 C1073 1.400 . S
C1072 C1074 1.384 . S
C1073 C1071 1.382 . S
C1073 C1072 1.400 . S
C1073 H1090 0.930 . S
C1074 C1072 1.384 . S
C1074 C1076 1.392 . S
C1074 H1091 0.931 . S
C1075 C1071 1.393 . S
C1075 C1076 1.401 . S
C1075 H1092 0.930 . S
C1076 C1074 1.392 . S
C1076 C1075 1.401 . S
C1076 H1093 0.930 . S
C1077 O1060 1.262 . S
C1077 O1061 1.260 . S
C1078 Tb1014 2.833 . S
C1078 O1058 1.251 . S
C1078 O1063 1.256 . S
C1078 C1071 1.500 . S
C1079 H1044 0.929 . S
C1079 C1057 1.444 1_455 S
C1079 C1080 1.317 . S
C1080 H1042 0.930 . S
C1080 C1048 1.432 . S
C1080 C1079 1.317 . S
C1081 O1065 1.283 . S
C1081 O1068 1.243 . S
C1082 C1083 1.382 . S
C1082 C1086 1.393 . S
C1082 C1089 1.500 . S
C1083 C1082 1.382 . S
C1083 C1084 1.400 . S
C1083 H1094 0.930 . S
C1084 C1083 1.400 . S
C1084 C1085 1.384 . S
C1085 C1084 1.384 . S
C1085 C1087 1.392 . S
C1085 H1095 0.931 . S
C1086 C1082 1.393 . S
C1086 C1087 1.401 . S
C1086 H1096 0.930 . S
C1087 C1085 1.392 . S
C1087 C1086 1.401 . S
C1087 H1097 0.930 . S
C1088 O1066 1.262 . S
C1088 O1067 1.260 . S
C1089 Tb1025 2.833 . S
C1089 O1064 1.251 . S
C1089 O1069 1.256 . S
C1089 C1082 1.500 . S
H1090 C1073 0.930 . S
H1091 C1074 0.931 . S
H1092 C1075 0.930 . S
H1093 C1076 0.930 . S
H1094 C1083 0.930 . S
H1095 C1085 0.931 . S
H1096 C1086 0.930 . S
H1097 C1087 0.930 . S
C1098 C1099 1.369 . S
C1098 C1100 1.419 . S
C1098 H1102 0.930 . S
C1099 C1098 1.369 . S
C1099 C1108 1.429 . S
C1100 C1098 1.419 . S
C1100 C1101 1.363 . S
C1100 H1103 0.929 . S
C1101 C1100 1.363 . S
C1101 C1107 1.428 . S
H1102 C1098 0.930 . S
H1103 C1100 0.929 . S
S1104 N1105 1.613 . S
S1104 N1106 1.610 . S
N1105 S1104 1.613 . S
N1105 C1108 1.350 1_556 S
N1106 S1104 1.610 . S
N1106 C1107 1.351 1_556 S
C1107 C1101 1.428 . S
C1107 N1106 1.351 1_554 S
C1107 C1108 1.434 . S
C1108 C1099 1.429 . S
C1108 N1105 1.350 1_554 S
C1108 C1107 1.434 . S
C1109 C1110 1.369 . S
C1109 C1111 1.419 . S
C1109 H1113 0.930 . S
C1110 C1109 1.369 . S
C1110 C1119 1.429 . S
C1111 C1109 1.419 . S
C1111 C1112 1.363 . S
C1111 H1114 0.929 . S
C1112 C1111 1.363 . S
C1112 C1118 1.428 . S
H1113 C1109 0.930 . S
H1114 C1111 0.929 . S
S1115 N1116 1.613 1_556 S
S1115 N1117 1.610 . S
N1116 S1115 1.613 1_554 S
N1116 C1119 1.350 . S
N1117 S1115 1.610 . S
N1117 C1118 1.351 1_556 S
C1118 C1112 1.428 . S
C1118 N1117 1.351 1_554 S
C1118 C1119 1.434 . S
C1119 C1110 1.429 . S
C1119 N1116 1.350 . S
C1119 C1118 1.434 . S
C1120 C1121 1.369 . S
C1120 C1122 1.419 . S
C1120 H1124 0.930 . S
C1121 C1120 1.369 . S
C1121 C1130 1.429 . S
C1122 C1120 1.419 . S
C1122 C1123 1.363 . S
C1122 H1125 0.929 . S
C1123 C1122 1.363 . S
C1123 C1129 1.428 . S
H1124 C1120 0.930 . S
H1125 C1122 0.929 . S
S1126 N1127 1.613 . S
S1126 N1128 1.610 . S
N1127 S1126 1.613 . S
N1127 C1130 1.350 . S
N1128 S1126 1.610 . S
N1128 C1129 1.351 . S
C1129 C1123 1.428 . S
C1129 N1128 1.351 . S
C1129 C1130 1.434 . S
C1130 C1121 1.429 . S
C1130 N1127 1.350 . S
C1130 C1129 1.434 . S
C1131 C1132 1.369 . S
C1131 C1133 1.419 . S
C1131 H1135 0.930 . S
C1132 C1131 1.369 . S
C1132 C1141 1.429 1_556 S
C1133 C1131 1.419 . S
C1133 C1134 1.363 . S
C1133 H1136 0.929 . S
C1134 C1133 1.363 . S
C1134 C1140 1.428 1_556 S
H1135 C1131 0.930 . S
H1136 C1133 0.929 . S
S1137 N1138 1.613 . S
S1137 N1139 1.610 . S
N1138 S1137 1.613 . S
N1138 C1141 1.349 . S
N1139 S1137 1.610 . S
N1139 C1140 1.351 . S
C1140 C1134 1.428 1_554 S
C1140 N1139 1.351 . S
C1140 C1141 1.434 . S
C1141 C1132 1.429 1_554 S
C1141 N1138 1.349 . S
C1141 C1140 1.434 . S
C1142 C1143 1.369 . S
C1142 C1144 1.419 . S
C1142 H1146 0.930 . S
C1143 C1142 1.369 . S
C1143 C1152 1.426 . S
C1144 C1142 1.419 . S
C1144 C1145 1.363 . S
C1144 H1147 0.929 . S
C1145 C1144 1.363 . S
C1145 C1151 1.428 1_556 S
H1146 C1142 0.930 . S
H1147 C1144 0.929 . S
S1148 N1149 1.613 . S
S1148 N1150 1.610 . S
N1149 S1148 1.613 . S
N1149 C1152 1.352 1_554 S
N1150 S1148 1.610 . S
N1150 C1151 1.351 . S
C1151 C1145 1.428 1_554 S
C1151 N1150 1.351 . S
C1151 C1152 1.435 1_554 S
C1152 C1143 1.426 . S
C1152 N1149 1.352 1_556 S
C1152 C1151 1.435 1_556 S
C1153 C1154 1.369 1_554 S
C1153 C1155 1.419 . S
C1153 H1157 0.930 . S
C1154 C1153 1.369 1_556 S
C1154 C1163 1.429 . S
C1155 C1153 1.419 . S
C1155 C1156 1.363 1_554 S
C1155 H1158 0.929 . S
C1156 C1155 1.363 1_556 S
C1156 C1162 1.428 . S
H1157 C1153 0.930 . S
H1158 C1155 0.929 . S
S1159 N1160 1.613 . S
S1159 N1161 1.610 . S
N1160 S1159 1.613 . S
N1160 C1163 1.350 . S
N1161 S1159 1.610 . S
N1161 C1162 1.351 . S
C1162 C1156 1.428 . S
C1162 N1161 1.351 . S
C1162 C1163 1.434 . S
C1163 C1154 1.429 . S
C1163 N1160 1.350 . S
C1163 C1162 1.434 . S
C1164 C1165 1.369 . S
C1164 C1166 1.419 . S
C1164 H1168 0.930 . S
C1165 C1164 1.369 . S
C1165 C1174 1.429 1_556 S
C1166 C1164 1.419 . S
C1166 C1167 1.363 . S
C1166 H1169 0.929 . S
C1167 C1166 1.363 . S
C1167 C1173 1.428 1_556 S
H1168 C1164 0.930 . S
H1169 C1166 0.929 . S
S1170 N1171 1.613 . S
S1170 N1172 1.610 . S
N1171 S1170 1.613 . S
N1171 C1174 1.350 . S
N1172 S1170 1.610 . S
N1172 C1173 1.351 . S
C1173 C1167 1.428 1_554 S
C1173 N1172 1.351 . S
C1173 C1174 1.434 . S
C1174 C1165 1.429 1_554 S
C1174 N1171 1.350 . S
C1174 C1173 1.434 . S
C1175 C1176 1.369 1_554 S
C1175 C1177 1.419 . S
C1175 H1179 0.930 . S
C1176 C1175 1.369 1_556 S
C1176 C1185 1.429 . S
C1177 C1175 1.419 . S
C1177 C1178 1.363 1_554 S
C1177 H1180 0.929 . S
C1178 C1177 1.363 1_556 S
C1178 C1184 1.428 . S
H1179 C1175 0.930 . S
H1180 C1177 0.929 . S
S1181 N1182 1.613 . S
S1181 N1183 1.610 . S
N1182 S1181 1.613 . S
N1182 C1185 1.350 . S
N1183 S1181 1.610 . S
N1183 C1184 1.351 . S
C1184 C1178 1.428 . S
C1184 N1183 1.351 . S
C1184 C1185 1.434 . S
C1185 C1176 1.429 . S
C1185 N1182 1.350 . S
C1185 C1184 1.434 . S
C1186 C1187 1.369 1_554 S
C1186 C1188 1.419 . S
C1186 H1190 0.930 . S
C1187 C1186 1.369 1_556 S
C1187 C1196 1.429 . S
C1188 C1186 1.419 . S
C1188 C1189 1.363 1_554 S
C1188 H1191 0.929 . S
C1189 C1188 1.363 1_556 S
C1189 C1195 1.428 . S
H1190 C1186 0.930 . S
H1191 C1188 0.929 . S
S1192 N1193 1.613 . S
S1192 N1194 1.610 . S
N1193 S1192 1.613 . S
N1193 C1196 1.350 . S
N1194 S1192 1.610 . S
N1194 C1195 1.351 . S
C1195 C1189 1.428 . S
C1195 N1194 1.351 . S
C1195 C1196 1.434 . S
C1196 C1187 1.429 . S
C1196 N1193 1.350 . S
C1196 C1195 1.434 . S
C1197 C1198 1.369 . S
C1197 C1199 1.419 . S
C1197 H1201 0.930 1_554 S
C1198 C1197 1.369 . S
C1198 C1207 1.429 . S
C1199 C1197 1.419 . S
C1199 C1200 1.363 . S
C1199 H1202 0.929 1_554 S
C1200 C1199 1.363 . S
C1200 C1206 1.428 . S
H1201 C1197 0.930 1_556 S
H1202 C1199 0.929 1_556 S
S1203 N1204 1.613 . S
S1203 N1205 1.610 . S
N1204 S1203 1.613 . S
N1204 C1207 1.350 . S
N1205 S1203 1.610 . S
N1205 C1206 1.351 . S
C1206 C1200 1.428 . S
C1206 N1205 1.351 . S
C1206 C1207 1.434 . S
C1207 C1198 1.429 . S
C1207 N1204 1.350 . S
C1207 C1206 1.434 . S
C1208 C1209 1.369 . S
C1208 C1210 1.419 . S
C1208 H1212 0.930 . S
C1209 C1208 1.369 . S
C1209 C1218 1.429 . S
C1210 C1208 1.419 . S
C1210 C1211 1.363 . S
C1210 H1213 0.929 . S
C1211 C1210 1.363 . S
C1211 C1217 1.428 . S
H1212 C1208 0.930 . S
H1213 C1210 0.929 . S
S1214 N1215 1.613 . S
S1214 N1216 1.610 . S
N1215 S1214 1.613 . S
N1215 C1218 1.350 1_556 S
N1216 S1214 1.610 . S
N1216 C1217 1.351 1_556 S
C1217 C1211 1.428 . S
C1217 N1216 1.351 1_554 S
C1217 C1218 1.434 . S
C1218 C1209 1.429 . S
C1218 N1215 1.350 1_554 S
C1218 C1217 1.434 . S
C1219 C1220 1.369 . S
C1219 C1221 1.419 . S
C1219 H1223 0.930 . S
C1220 C1219 1.369 . S
C1220 C1229 1.429 . S
C1221 C1219 1.419 . S
C1221 C1222 1.363 . S
C1221 H1224 0.929 . S
C1222 C1221 1.363 . S
C1222 C1228 1.428 . S
H1223 C1219 0.930 . S
H1224 C1221 0.929 . S
S1225 N1226 1.613 . S
S1225 N1227 1.610 . S
N1226 S1225 1.613 . S
N1226 C1229 1.350 . S
N1227 S1225 1.610 . S
N1227 C1228 1.351 . S
C1228 C1222 1.428 . S
C1228 N1227 1.351 . S
C1228 C1229 1.434 . S
C1229 C1220 1.429 . S
C1229 N1226 1.350 . S
C1229 C1228 1.434 . S
C1230 C1231 1.369 . S
C1230 C1232 1.419 . S
C1230 H1234 0.930 . S
C1231 C1230 1.369 . S
C1231 C1240 1.429 1_655 S
C1232 C1230 1.419 . S
C1232 C1233 1.363 1_655 S
C1232 H1235 0.929 . S
C1233 C1232 1.363 1_455 S
C1233 C1239 1.428 . S
H1234 C1230 0.930 . S
H1235 C1232 0.929 . S
S1236 N1237 1.613 . S
S1236 N1238 1.610 . S
N1237 S1236 1.613 . S
N1237 C1240 1.350 . S
N1238 S1236 1.610 . S
N1238 C1239 1.351 . S
C1239 C1233 1.428 . S
C1239 N1238 1.351 . S
C1239 C1240 1.434 . S
C1240 C1231 1.429 1_455 S
C1240 N1237 1.350 . S
C1240 C1239 1.434 . S
C1241 C1242 1.369 . S
C1241 C1243 1.419 . S
C1241 H1245 0.930 . S
C1242 C1241 1.369 . S
C1242 C1251 1.429 . S
C1243 C1241 1.419 . S
C1243 C1244 1.363 . S
C1243 H1246 0.929 . S
C1244 C1243 1.363 . S
C1244 C1250 1.428 . S
H1245 C1241 0.930 . S
H1246 C1243 0.929 . S
S1247 N1248 1.613 . S
S1247 N1249 1.610 . S
N1248 S1247 1.613 . S
N1248 C1251 1.350 . S
N1249 S1247 1.610 . S
N1249 C1250 1.351 . S
C1250 C1244 1.428 . S
C1250 N1249 1.351 . S
C1250 C1251 1.434 . S
C1251 C1242 1.429 . S
C1251 N1248 1.350 . S
C1251 C1250 1.434 . S
C1252 C1253 1.369 . S
C1252 C1254 1.419 1_545 S
C1252 H1256 0.930 . S
C1253 C1252 1.369 . S
C1253 C1262 1.429 . S
C1254 C1252 1.419 1_565 S
C1254 C1255 1.363 . S
C1254 H1257 0.929 . S
C1255 C1254 1.363 . S
C1255 C1261 1.428 1_565 S
H1256 C1252 0.930 . S
H1257 C1254 0.929 . S
S1258 N1259 1.613 . S
S1258 N1260 1.610 . S
N1259 S1258 1.613 . S
N1259 C1262 1.350 . S
N1260 S1258 1.610 . S
N1260 C1261 1.351 . S
C1261 C1255 1.428 1_545 S
C1261 N1260 1.351 . S
C1261 C1262 1.434 . S
C1262 C1253 1.429 . S
C1262 N1259 1.350 . S
C1262 C1261 1.434 . S
C1263 C1264 1.369 . S
C1263 C1265 1.419 . S
C1263 H1267 0.930 . S
C1264 C1263 1.369 . S
C1264 C1273 1.429 . S
C1265 C1263 1.419 . S
C1265 C1266 1.363 . S
C1265 H1268 0.929 . S
C1266 C1265 1.363 . S
C1266 C1272 1.428 . S
H1267 C1263 0.930 . S
H1268 C1265 0.929 . S
S1269 N1270 1.613 . S
S1269 N1271 1.610 . S
N1270 S1269 1.613 . S
N1270 C1273 1.350 . S
N1271 S1269 1.610 . S
N1271 C1272 1.351 . S
C1272 C1266 1.428 . S
C1272 N1271 1.351 . S
C1272 C1273 1.434 . S
C1273 C1264 1.429 . S
C1273 N1270 1.350 . S
C1273 C1272 1.434 . S
C1274 C1275 1.369 . S
C1274 C1276 1.419 . S
C1274 H1278 0.930 . S
C1275 C1274 1.369 . S
C1275 C1284 1.429 . S
C1276 C1274 1.419 . S
C1276 C1277 1.363 . S
C1276 H1279 0.929 . S
C1277 C1276 1.363 . S
C1277 C1283 1.428 . S
H1278 C1274 0.930 . S
H1279 C1276 0.929 . S
S1280 N1281 1.613 . S
S1280 N1282 1.610 . S
N1281 S1280 1.613 . S
N1281 C1284 1.350 . S
N1282 S1280 1.610 . S
N1282 C1283 1.351 . S
C1283 C1277 1.428 . S
C1283 N1282 1.351 . S
C1283 C1284 1.434 . S
C1284 C1275 1.429 . S
C1284 N1281 1.350 . S
C1284 C1283 1.434 . S
C1285 C1286 1.369 . S
C1285 C1287 1.419 . S
C1285 H1289 0.930 . S
C1286 C1285 1.369 . S
C1286 C1295 1.429 . S
C1287 C1285 1.419 . S
C1287 C1288 1.363 . S
C1287 H1290 0.929 . S
C1288 C1287 1.363 . S
C1288 C1294 1.428 . S
H1289 C1285 0.930 . S
H1290 C1287 0.929 . S
S1291 N1292 1.613 . S
S1291 N1293 1.610 . S
N1292 S1291 1.613 . S
N1292 C1295 1.350 . S
N1293 S1291 1.610 . S
N1293 C1294 1.351 . S
C1294 C1288 1.428 . S
C1294 N1293 1.351 . S
C1294 C1295 1.434 . S
C1295 C1286 1.429 . S
C1295 N1292 1.350 . S
C1295 C1294 1.434 . S
C1296 C1297 1.369 . S
C1296 C1298 1.419 . S
C1296 H1300 0.930 . S
C1297 C1296 1.369 . S
C1297 C1306 1.429 . S
C1298 C1296 1.419 . S
C1298 C1299 1.363 . S
C1298 H1301 0.929 . S
C1299 C1298 1.363 . S
C1299 C1305 1.428 . S
H1300 C1296 0.930 . S
H1301 C1298 0.929 . S
S1302 N1303 1.613 . S
S1302 N1304 1.610 . S
N1303 S1302 1.613 . S
N1303 C1306 1.350 . S
N1304 S1302 1.610 . S
N1304 C1305 1.351 . S
C1305 C1299 1.428 . S
C1305 N1304 1.351 . S
C1305 C1306 1.434 . S
C1306 C1297 1.429 . S
C1306 N1303 1.350 . S
C1306 C1305 1.434 . S
C1307 C1308 1.369 . S
C1307 C1309 1.419 . S
C1307 H1311 0.930 . S
C1308 C1307 1.369 . S
C1308 C1317 1.429 . S
C1309 C1307 1.419 . S
C1309 C1310 1.363 . S
C1309 H1312 0.929 . S
C1310 C1309 1.363 . S
C1310 C1316 1.428 . S
H1311 C1307 0.930 . S
H1312 C1309 0.929 . S
S1313 N1314 1.613 . S
S1313 N1315 1.610 . S
N1314 S1313 1.613 . S
N1314 C1317 1.350 . S
N1315 S1313 1.610 . S
N1315 C1316 1.351 . S
C1316 C1310 1.428 . S
C1316 N1315 1.351 . S
C1316 C1317 1.434 . S
C1317 C1308 1.429 . S
C1317 N1314 1.350 . S
C1317 C1316 1.434 . S
C1318 C1319 1.369 . S
C1318 C1320 1.419 . S
C1318 H1322 0.930 . S
C1319 C1318 1.369 . S
C1319 C1328 1.429 . S
C1320 C1318 1.419 . S
C1320 C1321 1.363 . S
C1320 H1323 0.929 . S
C1321 C1320 1.363 . S
C1321 C1327 1.428 . S
H1322 C1318 0.930 . S
H1323 C1320 0.929 . S
S1324 N1325 1.613 . S
S1324 N1326 1.610 . S
N1325 S1324 1.613 . S
N1325 C1328 1.350 . S
N1326 S1324 1.610 . S
N1326 C1327 1.351 . S
C1327 C1321 1.428 . S
C1327 N1326 1.351 . S
C1327 C1328 1.434 . S
C1328 C1319 1.429 . S
C1328 N1325 1.350 . S
C1328 C1327 1.434 . S
C1329 C1330 1.369 . S
C1329 C1331 1.419 . S
C1329 H1333 0.930 . S
C1330 C1329 1.369 . S
C1330 C1339 1.429 . S
C1331 C1329 1.419 . S
C1331 C1332 1.363 . S
C1331 H1334 0.929 . S
C1332 C1331 1.363 . S
C1332 C1338 1.428 . S
H1333 C1329 0.930 . S
H1334 C1331 0.929 . S
S1335 N1336 1.613 . S
S1335 N1337 1.610 . S
N1336 S1335 1.613 . S
N1336 C1339 1.350 . S
N1337 S1335 1.610 . S
N1337 C1338 1.351 . S
C1338 C1332 1.428 . S
C1338 N1337 1.351 . S
C1338 C1339 1.434 . S
C1339 C1330 1.429 . S
C1339 N1336 1.350 . S
C1339 C1338 1.434 . S
C1340 C1341 1.369 . S
C1340 C1342 1.419 . S
C1340 H1344 0.930 . S
C1341 C1340 1.369 . S
C1341 C1350 1.429 . S
C1342 C1340 1.419 . S
C1342 C1343 1.363 . S
C1342 H1345 0.929 . S
C1343 C1342 1.363 . S
C1343 C1349 1.428 . S
H1344 C1340 0.930 . S
H1345 C1342 0.929 . S
S1346 N1347 1.613 . S
S1346 N1348 1.610 . S
N1347 S1346 1.613 . S
N1347 C1350 1.350 . S
N1348 S1346 1.610 . S
N1348 C1349 1.351 . S
C1349 C1343 1.428 . S
C1349 N1348 1.351 . S
C1349 C1350 1.434 . S
C1350 C1341 1.429 . S
C1350 N1347 1.350 . S
C1350 C1349 1.434 . S
C1351 C1352 1.369 . S
C1351 C1353 1.419 . S
C1351 H1355 0.930 . S
C1352 C1351 1.369 . S
C1352 C1361 1.429 . S
C1353 C1351 1.419 . S
C1353 C1354 1.363 . S
C1353 H1356 0.929 . S
C1354 C1353 1.363 . S
C1354 C1360 1.428 . S
H1355 C1351 0.930 . S
H1356 C1353 0.929 . S
S1357 N1358 1.613 . S
S1357 N1359 1.610 . S
N1358 S1357 1.613 . S
N1358 C1361 1.350 . S
N1359 S1357 1.610 . S
N1359 C1360 1.351 . S
C1360 C1354 1.428 . S
C1360 N1359 1.351 . S
C1360 C1361 1.434 . S
C1361 C1352 1.429 . S
C1361 N1358 1.350 . S
C1361 C1360 1.434 . S
C1362 C1363 1.369 . S
C1362 C1364 1.419 . S
C1362 H1366 0.930 . S
C1363 C1362 1.369 . S
C1363 C1372 1.429 . S
C1364 C1362 1.419 . S
C1364 C1365 1.363 . S
C1364 H1367 0.929 . S
C1365 C1364 1.363 . S
C1365 C1371 1.428 . S
H1366 C1362 0.930 . S
H1367 C1364 0.929 . S
S1368 N1369 1.613 . S
S1368 N1370 1.610 . S
N1369 S1368 1.613 . S
N1369 C1372 1.350 . S
N1370 S1368 1.610 . S
N1370 C1371 1.351 . S
C1371 C1365 1.428 . S
C1371 N1370 1.351 . S
C1371 C1372 1.434 . S
C1372 C1363 1.429 . S
C1372 N1369 1.350 . S
C1372 C1371 1.434 . S
C1373 C1374 1.369 . S
C1373 C1375 1.419 . S
C1373 H1377 0.930 . S
C1374 C1373 1.369 . S
C1374 C1383 1.429 . S
C1375 C1373 1.419 . S
C1375 C1376 1.363 . S
C1375 H1378 0.929 . S
C1376 C1375 1.363 . S
C1376 C1382 1.428 . S
H1377 C1373 0.930 . S
H1378 C1375 0.929 . S
S1379 N1380 1.613 . S
S1379 N1381 1.610 . S
N1380 S1379 1.613 . S
N1380 C1383 1.350 . S
N1381 S1379 1.610 . S
N1381 C1382 1.351 . S
C1382 C1376 1.428 . S
C1382 N1381 1.351 . S
C1382 C1383 1.434 . S
C1383 C1374 1.429 . S
C1383 N1380 1.350 . S
C1383 C1382 1.434 . S
C1384 C1385 1.369 . S
C1384 C1386 1.419 . S
C1384 H1388 0.930 . S
C1385 C1384 1.369 . S
C1385 C1394 1.429 . S
C1386 C1384 1.419 . S
C1386 C1387 1.363 . S
C1386 H1389 0.929 . S
C1387 C1386 1.363 . S
C1387 C1393 1.428 . S
H1388 C1384 0.930 . S
H1389 C1386 0.929 . S
S1390 N1391 1.613 . S
S1390 N1392 1.610 . S
N1391 S1390 1.613 . S
N1391 C1394 1.350 . S
N1392 S1390 1.610 . S
N1392 C1393 1.351 . S
C1393 C1387 1.428 . S
C1393 N1392 1.351 . S
C1393 C1394 1.434 . S
C1394 C1385 1.429 . S
C1394 N1391 1.350 . S
C1394 C1393 1.434 . S
C1395 C1396 1.369 1_545 S
C1395 C1397 1.419 . S
C1395 H1399 0.930 . S
C1396 C1395 1.369 1_565 S
C1396 C1405 1.429 . S
C1397 C1395 1.419 . S
C1397 C1398 1.363 . S
C1397 H1400 0.929 . S
C1398 C1397 1.363 . S
C1398 C1404 1.428 1_545 S
H1399 C1395 0.930 . S
H1400 C1397 0.929 . S
S1401 N1402 1.613 . S
S1401 N1403 1.610 . S
N1402 S1401 1.613 . S
N1402 C1405 1.350 . S
N1403 S1401 1.610 . S
N1403 C1404 1.351 . S
C1404 C1398 1.428 1_565 S
C1404 N1403 1.351 . S
C1404 C1405 1.434 . S
C1405 C1396 1.429 . S
C1405 N1402 1.350 . S
C1405 C1404 1.434 . S
C1406 C1407 1.369 . S
C1406 C1408 1.419 1_455 S
C1406 H1410 0.930 . S
C1407 C1406 1.369 . S
C1407 C1416 1.429 . S
C1408 C1406 1.419 1_655 S
C1408 C1409 1.363 . S
C1408 H1411 0.929 . S
C1409 C1408 1.363 . S
C1409 C1415 1.428 . S
H1410 C1406 0.930 . S
H1411 C1408 0.929 . S
S1412 N1413 1.613 1_655 S
S1412 N1414 1.610 . S
N1413 S1412 1.613 1_455 S
N1413 C1416 1.350 . S
N1414 S1412 1.610 . S
N1414 C1415 1.351 . S
C1415 C1409 1.428 . S
C1415 N1414 1.351 . S
C1415 C1416 1.434 1_655 S
C1416 C1407 1.429 . S
C1416 N1413 1.350 . S
C1416 C1415 1.434 1_455 S
C1417 C1418 1.369 . S
C1417 C1419 1.419 . S
C1417 H1421 0.930 . S
C1418 C1417 1.369 . S
C1418 C1427 1.429 . S
C1419 C1417 1.419 . S
C1419 C1420 1.363 . S
C1419 H1422 0.929 . S
C1420 C1419 1.363 . S
C1420 C1426 1.428 . S
H1421 C1417 0.930 . S
H1422 C1419 0.929 . S
S1423 N1424 1.613 . S
S1423 N1425 1.610 . S
N1424 S1423 1.613 . S
N1424 C1427 1.350 . S
N1425 S1423 1.610 . S
N1425 C1426 1.351 . S
C1426 C1420 1.428 . S
C1426 N1425 1.351 . S
C1426 C1427 1.434 . S
C1427 C1418 1.429 . S
C1427 N1424 1.350 . S
C1427 C1426 1.434 . S
C1428 C1429 1.369 . S
C1428 C1430 1.419 . S
C1428 H1432 0.930 . S
C1429 C1428 1.369 . S
C1429 C1438 1.429 . S
C1430 C1428 1.419 . S
C1430 C1431 1.363 . S
C1430 H1433 0.929 . S
C1431 C1430 1.363 . S
C1431 C1437 1.428 . S
H1432 C1428 0.930 . S
H1433 C1430 0.929 . S
S1434 N1435 1.613 . S
S1434 N1436 1.610 . S
N1435 S1434 1.613 . S
N1435 C1438 1.350 . S
N1436 S1434 1.610 . S
N1436 C1437 1.351 . S
C1437 C1431 1.428 . S
C1437 N1436 1.351 . S
C1437 C1438 1.434 . S
C1438 C1429 1.429 . S
C1438 N1435 1.350 . S
C1438 C1437 1.434 . S
C1439 C1440 1.369 . S
C1439 C1441 1.419 . S
C1439 H1443 0.930 . S
C1440 C1439 1.369 . S
C1440 C1449 1.429 . S
C1441 C1439 1.419 . S
C1441 C1442 1.363 . S
C1441 H1444 0.929 . S
C1442 C1441 1.363 . S
C1442 C1448 1.428 . S
H1443 C1439 0.930 . S
H1444 C1441 0.929 . S
S1445 N1446 1.613 . S
S1445 N1447 1.610 . S
N1446 S1445 1.613 . S
N1446 C1449 1.350 . S
N1447 S1445 1.610 . S
N1447 C1448 1.351 . S
C1448 C1442 1.428 . S
C1448 N1447 1.351 . S
C1448 C1449 1.434 . S
C1449 C1440 1.429 . S
C1449 N1446 1.350 . S
C1449 C1448 1.434 . S
C1450 C1451 1.369 . S
C1450 C1452 1.419 . S
C1450 H1454 0.930 . S
C1451 C1450 1.369 . S
C1451 C1460 1.429 . S
C1452 C1450 1.419 . S
C1452 C1453 1.363 . S
C1452 H1455 0.929 . S
C1453 C1452 1.363 . S
C1453 C1459 1.428 . S
H1454 C1450 0.930 . S
H1455 C1452 0.929 . S
S1456 N1457 1.613 . S
S1456 N1458 1.610 . S
N1457 S1456 1.613 . S
N1457 C1460 1.350 . S
N1458 S1456 1.610 . S
N1458 C1459 1.351 . S
C1459 C1453 1.428 . S
C1459 N1458 1.351 . S
C1459 C1460 1.434 . S
C1460 C1451 1.429 . S
C1460 N1457 1.350 . S
C1460 C1459 1.434 . S
C1461 C1462 1.369 . S
C1461 C1463 1.419 . S
C1461 H1465 0.930 . S
C1462 C1461 1.369 . S
C1462 C1471 1.429 . S
C1463 C1461 1.419 . S
C1463 C1464 1.363 . S
C1463 H1466 0.929 . S
C1464 C1463 1.363 . S
C1464 C1470 1.428 . S
H1465 C1461 0.930 . S
H1466 C1463 0.929 . S
S1467 N1468 1.613 . S
S1467 N1469 1.610 . S
N1468 S1467 1.613 . S
N1468 C1471 1.350 . S
N1469 S1467 1.610 . S
N1469 C1470 1.351 . S
C1470 C1464 1.428 . S
C1470 N1469 1.351 . S
C1470 C1471 1.434 . S
C1471 C1462 1.429 . S
C1471 N1468 1.350 . S
C1471 C1470 1.434 . S
C1472 C1473 1.369 . S
C1472 C1474 1.419 . S
C1472 H1476 0.930 . S
C1473 C1472 1.369 . S
C1473 C1482 1.429 . S
C1474 C1472 1.419 . S
C1474 C1475 1.363 . S
C1474 H1477 0.929 . S
C1475 C1474 1.363 . S
C1475 C1481 1.428 . S
H1476 C1472 0.930 . S
H1477 C1474 0.929 . S
S1478 N1479 1.613 . S
S1478 N1480 1.610 . S
N1479 S1478 1.613 . S
N1479 C1482 1.350 . S
N1480 S1478 1.610 . S
N1480 C1481 1.351 . S
C1481 C1475 1.428 . S
C1481 N1480 1.351 . S
C1481 C1482 1.434 . S
C1482 C1473 1.429 . S
C1482 N1479 1.350 . S
C1482 C1481 1.434 . S
C1483 C1484 1.369 . S
C1483 C1485 1.419 . S
C1483 H1487 0.930 . S
C1484 C1483 1.369 . S
C1484 C1493 1.429 . S
C1485 C1483 1.419 . S
C1485 C1486 1.363 . S
C1485 H1488 0.929 . S
C1486 C1485 1.363 . S
C1486 C1492 1.428 . S
H1487 C1483 0.930 . S
H1488 C1485 0.929 . S
S1489 N1490 1.613 . S
S1489 N1491 1.610 . S
N1490 S1489 1.613 . S
N1490 C1493 1.350 . S
N1491 S1489 1.610 . S
N1491 C1492 1.351 . S
C1492 C1486 1.428 . S
C1492 N1491 1.351 . S
C1492 C1493 1.434 . S
C1493 C1484 1.429 . S
C1493 N1490 1.350 . S
C1493 C1492 1.434 . S
C1494 C1495 1.369 . S
C1494 C1496 1.419 . S
C1494 H1498 0.930 . S
C1495 C1494 1.369 . S
C1495 C1504 1.429 . S
C1496 C1494 1.419 . S
C1496 C1497 1.363 . S
C1496 H1499 0.929 . S
C1497 C1496 1.363 . S
C1497 C1503 1.428 . S
H1498 C1494 0.930 . S
H1499 C1496 0.929 . S
S1500 N1501 1.613 . S
S1500 N1502 1.610 . S
N1501 S1500 1.613 . S
N1501 C1504 1.350 . S
N1502 S1500 1.610 . S
N1502 C1503 1.351 . S
C1503 C1497 1.428 . S
C1503 N1502 1.351 . S
C1503 C1504 1.434 . S
C1504 C1495 1.429 . S
C1504 N1501 1.350 . S
C1504 C1503 1.434 . S
C1505 C1506 1.369 . S
C1505 C1507 1.419 . S
C1505 H1509 0.930 . S
C1506 C1505 1.369 . S
C1506 C1515 1.429 . S
C1507 C1505 1.419 . S
C1507 C1508 1.363 . S
C1507 H1510 0.929 . S
C1508 C1507 1.363 . S
C1508 C1514 1.428 . S
H1509 C1505 0.930 . S
H1510 C1507 0.929 . S
S1511 N1512 1.613 . S
S1511 N1513 1.610 . S
N1512 S1511 1.613 . S
N1512 C1515 1.350 . S
N1513 S1511 1.610 . S
N1513 C1514 1.351 . S
C1514 C1508 1.428 . S
C1514 N1513 1.351 . S
C1514 C1515 1.434 . S
C1515 C1506 1.429 . S
C1515 N1512 1.350 . S
C1515 C1514 1.434 . S
C1516 C1517 1.369 . S
C1516 C1518 1.419 . S
C1516 H1520 0.930 . S
C1517 C1516 1.369 . S
C1517 C1526 1.429 . S
C1518 C1516 1.419 . S
C1518 C1519 1.363 . S
C1518 H1521 0.929 . S
C1519 C1518 1.363 . S
C1519 C1525 1.428 . S
H1520 C1516 0.930 . S
H1521 C1518 0.929 . S
S1522 N1523 1.613 . S
S1522 N1524 1.610 . S
N1523 S1522 1.613 . S
N1523 C1526 1.350 . S
N1524 S1522 1.610 . S
N1524 C1525 1.351 . S
C1525 C1519 1.428 . S
C1525 N1524 1.351 . S
C1525 C1526 1.434 . S
C1526 C1517 1.429 . S
C1526 N1523 1.350 . S
C1526 C1525 1.434 . S
C1527 C1528 1.369 . S
C1527 C1529 1.419 . S
C1527 H1531 0.930 . S
C1528 C1527 1.369 . S
C1528 C1537 1.429 . S
C1529 C1527 1.419 . S
C1529 C1530 1.363 . S
C1529 H1532 0.929 . S
C1530 C1529 1.363 . S
C1530 C1536 1.428 . S
H1531 C1527 0.930 . S
H1532 C1529 0.929 . S
S1533 N1534 1.613 . S
S1533 N1535 1.610 . S
N1534 S1533 1.613 . S
N1534 C1537 1.350 . S
N1535 S1533 1.610 . S
N1535 C1536 1.351 . S
C1536 C1530 1.428 . S
C1536 N1535 1.351 . S
C1536 C1537 1.434 . S
C1537 C1528 1.429 . S
C1537 N1534 1.350 . S
C1537 C1536 1.434 . S
C1538 C1539 1.369 . S
C1538 C1540 1.419 . S
C1538 H1542 0.930 . S
C1539 C1538 1.369 . S
C1539 C1548 1.429 . S
C1540 C1538 1.419 . S
C1540 C1541 1.363 . S
C1540 H1543 0.929 . S
C1541 C1540 1.363 . S
C1541 C1547 1.428 . S
H1542 C1538 0.930 . S
H1543 C1540 0.929 . S
S1544 N1545 1.613 . S
S1544 N1546 1.610 . S
N1545 S1544 1.613 . S
N1545 C1548 1.350 . S
N1546 S1544 1.610 . S
N1546 C1547 1.351 . S
C1547 C1541 1.428 . S
C1547 N1546 1.351 . S
C1547 C1548 1.434 . S
C1548 C1539 1.429 . S
C1548 N1545 1.350 . S
C1548 C1547 1.434 . S
C1549 C1550 1.369 . S
C1549 C1551 1.419 . S
C1549 H1553 0.930 . S
C1550 C1549 1.369 . S
C1550 C1559 1.429 . S
C1551 C1549 1.419 . S
C1551 C1552 1.363 . S
C1551 H1554 0.929 . S
C1552 C1551 1.363 . S
C1552 C1558 1.428 . S
H1553 C1549 0.930 . S
H1554 C1551 0.929 . S
S1555 N1556 1.613 . S
S1555 N1557 1.610 . S
N1556 S1555 1.613 . S
N1556 C1559 1.350 . S
N1557 S1555 1.610 . S
N1557 C1558 1.351 . S
C1558 C1552 1.428 . S
C1558 N1557 1.351 . S
C1558 C1559 1.434 . S
C1559 C1550 1.429 . S
C1559 N1556 1.350 . S
C1559 C1558 1.434 . S
C1560 C1561 1.369 . S
C1560 C1562 1.419 . S
C1560 H1564 0.930 . S
C1561 C1560 1.369 . S
C1561 C1570 1.429 . S
C1562 C1560 1.419 . S
C1562 C1563 1.363 . S
C1562 H1565 0.929 . S
C1563 C1562 1.363 . S
C1563 C1569 1.428 . S
H1564 C1560 0.930 . S
H1565 C1562 0.929 . S
S1566 N1567 1.613 . S
S1566 N1568 1.610 . S
N1567 S1566 1.613 . S
N1567 C1570 1.350 . S
N1568 S1566 1.610 . S
N1568 C1569 1.351 . S
C1569 C1563 1.428 . S
C1569 N1568 1.351 . S
C1569 C1570 1.434 . S
C1570 C1561 1.429 . S
C1570 N1567 1.350 . S
C1570 C1569 1.434 . S
C1571 C1572 1.369 . S
C1571 C1573 1.419 . S
C1571 H1575 0.930 . S
C1572 C1571 1.369 . S
C1572 C1581 1.429 . S
C1573 C1571 1.419 . S
C1573 C1574 1.363 . S
C1573 H1576 0.929 . S
C1574 C1573 1.363 . S
C1574 C1580 1.428 . S
H1575 C1571 0.930 . S
H1576 C1573 0.929 . S
S1577 N1578 1.613 . S
S1577 N1579 1.610 . S
N1578 S1577 1.613 . S
N1578 C1581 1.350 . S
N1579 S1577 1.610 . S
N1579 C1580 1.351 . S
C1580 C1574 1.428 . S
C1580 N1579 1.351 . S
C1580 C1581 1.434 . S
C1581 C1572 1.429 . S
C1581 N1578 1.350 . S
C1581 C1580 1.434 . S
C1582 C1583 1.369 . S
C1582 C1584 1.419 . S
C1582 H1586 0.930 . S
C1583 C1582 1.369 . S
C1583 C1592 1.429 . S
C1584 C1582 1.419 . S
C1584 C1585 1.363 . S
C1584 H1587 0.929 . S
C1585 C1584 1.363 . S
C1585 C1591 1.428 . S
H1586 C1582 0.930 . S
H1587 C1584 0.929 . S
S1588 N1589 1.613 . S
S1588 N1590 1.610 . S
N1589 S1588 1.613 . S
N1589 C1592 1.350 . S
N1590 S1588 1.610 . S
N1590 C1591 1.351 . S
C1591 C1585 1.428 . S
C1591 N1590 1.351 . S
C1591 C1592 1.434 . S
C1592 C1583 1.429 . S
C1592 N1589 1.350 . S
C1592 C1591 1.434 . S
C1593 C1594 1.369 . S
C1593 C1595 1.419 . S
C1593 H1597 0.930 . S
C1594 C1593 1.369 . S
C1594 C1603 1.429 . S
C1595 C1593 1.419 . S
C1595 C1596 1.363 . S
C1595 H1598 0.929 . S
C1596 C1595 1.363 . S
C1596 C1602 1.428 . S
H1597 C1593 0.930 . S
H1598 C1595 0.929 . S
S1599 N1600 1.613 . S
S1599 N1601 1.610 . S
N1600 S1599 1.613 . S
N1600 C1603 1.350 . S
N1601 S1599 1.610 . S
N1601 C1602 1.351 . S
C1602 C1596 1.428 . S
C1602 N1601 1.351 . S
C1602 C1603 1.434 . S
C1603 C1594 1.429 . S
C1603 N1600 1.350 . S
C1603 C1602 1.434 . S
C1604 C1605 1.369 . S
C1604 C1606 1.419 . S
C1604 H1608 0.930 . S
C1605 C1604 1.369 . S
C1605 C1614 1.429 . S
C1606 C1604 1.419 . S
C1606 C1607 1.363 . S
C1606 H1609 0.929 . S
C1607 C1606 1.363 . S
C1607 C1613 1.428 . S
H1608 C1604 0.930 . S
H1609 C1606 0.929 . S
S1610 N1611 1.613 . S
S1610 N1612 1.610 . S
N1611 S1610 1.613 . S
N1611 C1614 1.350 . S
N1612 S1610 1.610 . S
N1612 C1613 1.351 . S
C1613 C1607 1.428 . S
C1613 N1612 1.351 . S
C1613 C1614 1.434 . S
C1614 C1605 1.429 . S
C1614 N1611 1.350 . S
C1614 C1613 1.434 . S
C1615 C1616 1.369 . S
C1615 C1617 1.419 . S
C1615 H1619 0.930 . S
C1616 C1615 1.369 . S
C1616 C1625 1.429 . S
C1617 C1615 1.419 . S
C1617 C1618 1.363 . S
C1617 H1620 0.929 . S
C1618 C1617 1.363 . S
C1618 C1624 1.428 . S
H1619 C1615 0.930 . S
H1620 C1617 0.929 . S
S1621 N1622 1.613 . S
S1621 N1623 1.610 . S
N1622 S1621 1.613 . S
N1622 C1625 1.350 . S
N1623 S1621 1.610 . S
N1623 C1624 1.351 . S
C1624 C1618 1.428 . S
C1624 N1623 1.351 . S
C1624 C1625 1.434 . S
C1625 C1616 1.429 . S
C1625 N1622 1.350 . S
C1625 C1624 1.434 . S
C1626 C1627 1.369 . S
C1626 C1628 1.419 . S
C1626 H1630 0.930 . S
C1627 C1626 1.369 . S
C1627 C1636 1.429 . S
C1628 C1626 1.419 . S
C1628 C1629 1.363 . S
C1628 H1631 0.929 . S
C1629 C1628 1.363 . S
C1629 C1635 1.428 . S
H1630 C1626 0.930 . S
H1631 C1628 0.929 . S
S1632 N1633 1.613 . S
S1632 N1634 1.610 . S
N1633 S1632 1.613 . S
N1633 C1636 1.350 . S
N1634 S1632 1.610 . S
N1634 C1635 1.351 . S
C1635 C1629 1.428 . S
C1635 N1634 1.351 . S
C1635 C1636 1.434 . S
C1636 C1627 1.429 . S
C1636 N1633 1.350 . S
C1636 C1635 1.434 . S
C1637 C1638 1.369 . S
C1637 C1639 1.419 . S
C1637 H1641 0.930 . S
C1638 C1637 1.369 . S
C1638 C1647 1.429 . S
C1639 C1637 1.419 . S
C1639 C1640 1.363 . S
C1639 H1642 0.929 . S
C1640 C1639 1.363 . S
C1640 C1646 1.428 . S
H1641 C1637 0.930 . S
H1642 C1639 0.929 . S
S1643 N1644 1.613 . S
S1643 N1645 1.610 . S
N1644 S1643 1.613 . S
N1644 C1647 1.350 . S
N1645 S1643 1.610 . S
N1645 C1646 1.351 . S
C1646 C1640 1.428 . S
C1646 N1645 1.351 . S
C1646 C1647 1.434 . S
C1647 C1638 1.429 . S
C1647 N1644 1.350 . S
C1647 C1646 1.434 . S
C1648 C1649 1.369 . S
C1648 C1650 1.419 . S
C1648 H1652 0.930 . S
C1649 C1648 1.369 . S
C1649 C1658 1.429 . S
C1650 C1648 1.419 . S
C1650 C1651 1.363 . S
C1650 H1653 0.929 . S
C1651 C1650 1.363 . S
C1651 C1657 1.428 . S
H1652 C1648 0.930 . S
H1653 C1650 0.929 . S
S1654 N1655 1.613 . S
S1654 N1656 1.610 . S
N1655 S1654 1.613 . S
N1655 C1658 1.350 . S
N1656 S1654 1.610 . S
N1656 C1657 1.351 . S
C1657 C1651 1.428 . S
C1657 N1656 1.351 . S
C1657 C1658 1.434 . S
C1658 C1649 1.429 . S
C1658 N1655 1.350 . S
C1658 C1657 1.434 . S
C1659 C1660 1.369 . S
C1659 C1661 1.419 . S
C1659 H1663 0.930 . S
C1660 C1659 1.369 . S
C1660 C1669 1.429 . S
C1661 C1659 1.419 . S
C1661 C1662 1.363 . S
C1661 H1664 0.929 . S
C1662 C1661 1.363 . S
C1662 C1668 1.428 . S
H1663 C1659 0.930 . S
H1664 C1661 0.929 . S
S1665 N1666 1.613 . S
S1665 N1667 1.610 . S
N1666 S1665 1.613 . S
N1666 C1669 1.350 . S
N1667 S1665 1.610 . S
N1667 C1668 1.351 . S
C1668 C1662 1.428 . S
C1668 N1667 1.351 . S
C1668 C1669 1.434 . S
C1669 C1660 1.429 . S
C1669 N1666 1.350 . S
C1669 C1668 1.434 . S
C1670 C1671 1.369 . S
C1670 C1672 1.419 . S
C1670 H1674 0.930 . S
C1671 C1670 1.369 . S
C1671 C1680 1.429 . S
C1672 C1670 1.419 . S
C1672 C1673 1.363 . S
C1672 H1675 0.929 . S
C1673 C1672 1.363 . S
C1673 C1679 1.428 . S
H1674 C1670 0.930 . S
H1675 C1672 0.929 . S
S1676 N1677 1.613 . S
S1676 N1678 1.610 . S
N1677 S1676 1.613 . S
N1677 C1680 1.350 . S
N1678 S1676 1.610 . S
N1678 C1679 1.351 . S
C1679 C1673 1.428 . S
C1679 N1678 1.351 . S
C1679 C1680 1.434 . S
C1680 C1671 1.429 . S
C1680 N1677 1.350 . S
C1680 C1679 1.434 . S
C1681 C1682 1.369 . S
C1681 C1683 1.419 . S
C1681 H1685 0.930 . S
C1682 C1681 1.369 . S
C1682 C1691 1.429 . S
C1683 C1681 1.419 . S
C1683 C1684 1.363 . S
C1683 H1686 0.929 . S
C1684 C1683 1.363 . S
C1684 C1690 1.428 . S
H1685 C1681 0.930 . S
H1686 C1683 0.929 . S
S1687 N1688 1.613 . S
S1687 N1689 1.610 . S
N1688 S1687 1.613 . S
N1688 C1691 1.350 . S
N1689 S1687 1.610 . S
N1689 C1690 1.351 . S
C1690 C1684 1.428 . S
C1690 N1689 1.351 . S
C1690 C1691 1.434 . S
C1691 C1682 1.429 . S
C1691 N1688 1.350 . S
C1691 C1690 1.434 . S
C1099 C253 1.505 . S
C1101 C409 1.444 . S
C1110 C272 1.539 . S
C1112 C493 1.482 . S
C1121 C234 1.492 . S
C1123 C573 1.506 . S
C1132 C215 1.496 . S
C1134 C489 1.509 . S
C1145 C577 1.443 . S
C1143 C177 1.511 . S
C1154 C196 1.461 . S
C1156 C405 1.476 1_556 S
C1167 C398 1.505 . S
C1165 C220 1.465 . S
C1178 C482 1.521 . S
C1176 C182 1.496 . S
C1187 C201 1.482 . S
C1189 C584 1.508 1_556 S
C1198 C258 1.458 . S
C1200 C500 1.488 . S
C1209 C277 1.453 . S
C1211 C566 1.480 . S
C1222 C416 1.471 . S
C1220 C239 1.429 . S
C1233 C661 1.436 . S
C1231 C25 1.501 . S
C1242 C44 1.536 . S
C1244 C745 1.478 . S
C1253 C6 1.492 . S
C1255 C825 1.506 . S
C1264 C329 1.494 . S
C1266 C741 1.509 . S
C1275 C291 1.508 . S
C1277 C829 1.442 . S
C1286 C310 1.463 . S
C1288 C657 1.475 . S
C1297 C334 1.472 . S
C1299 C650 1.502 . S
C1308 C296 1.489 . S
C1310 C734 1.527 . S
C1321 C836 1.507 . S
C1319 C315 1.483 . S
C1330 C30 1.459 . S
C1332 C752 1.488 . S
C1343 C818 1.481 . S
C1341 C49 1.451 . S
C1352 C11 1.440 . S
C1354 C668 1.466 . S
C1365 C913 1.437 . S
C1363 C139 1.501 . S
C1374 C158 1.538 . S
C1376 C997 1.474 . S
C1387 C1077 1.506 . S
C1385 C120 1.492 . S
C1398 C993 1.509 . S
C1396 C101 1.494 . S
C1409 C1081 1.442 . S
C1407 C63 1.511 . S
C1418 C82 1.465 . S
C1420 C909 1.475 . S
C1429 C106 1.464 . S
C1431 C902 1.503 . S
C1440 C68 1.491 . S
C1442 C986 1.528 . S
C1453 C1088 1.507 . S
C1451 C87 1.482 . S
C1462 C144 1.462 . S
C1464 C1004 1.484 . S
C1473 C163 1.446 . S
C1475 C1070 1.481 . S
C1484 C125 1.435 . S
C1486 C920 1.471 . S
C1495 C287 1.660 . S
C1497 C412 1.565 . S
C1508 C496 1.578 . S
C1506 C306 1.712 . S
C1517 C325 1.657 . S
C1519 C568 1.444 . S
C1528 C116 1.665 . S
C1530 C484 1.443 . S
C1539 C135 1.665 . S
C1541 C580 1.540 . S
C1552 C400 1.427 . S
C1550 C154 1.610 . S
C1561 C59 1.656 . S
C1563 C664 1.556 . S
C1572 C78 1.712 . S
C1574 C748 1.581 . S
C1583 C97 1.654 . S
C1585 C820 1.449 . S
C1594 C230 1.663 . S
C1596 C736 1.435 . S
C1607 C832 1.549 . S
C1605 C249 1.670 . S
C1616 C268 1.615 . S
C1618 C652 1.419 . S
C1627 C173 1.658 . S
C1629 C916 1.557 . S
C1638 C192 1.711 . S
C1640 C1000 1.575 . S
C1651 C1072 1.449 . S
C1649 C211 1.650 . S
C1660 C2 1.662 . S
C1662 C988 1.438 . S
C1671 C21 1.669 . S
C1673 C1084 1.549 . S
C1682 C40 1.615 . S
C1684 C904 1.430 . S
