# Generated by pormake.
# Topology apo, (3,6)-cn, num edge types: 1
# Building blocks:
#     Node 0, Type 0, BuildingBlock: MIDCAF_clean_linker_0, # of connection points: 3
#     Node 1, Type 0, BuildingBlock: MIDCAF_clean_linker_0, # of connection points: 3
#     Node 2, Type 0, BuildingBlock: MIDCAF_clean_linker_0, # of connection points: 3
#     Node 3, Type 0, BuildingBlock: MIDCAF_clean_linker_0, # of connection points: 3
#     Node 4, Type 0, BuildingBlock: MIDCAF_clean_linker_0, # of connection points: 3
#     Node 5, Type 0, BuildingBlock: MIDCAF_clean_linker_0, # of connection points: 3
#     Node 6, Type 0, BuildingBlock: MIDCAF_clean_linker_0, # of connection points: 3
#     Node 7, Type 0, BuildingBlock: MIDCAF_clean_linker_0, # of connection points: 3
#     Node 8, Type 1, BuildingBlock: KUMBUR_clean_sbu_1, # of connection points: 6
#     Node 9, Type 1, BuildingBlock: KUMBUR_clean_sbu_1, # of connection points: 6
#     Node 10, Type 1, BuildingBlock: KUMBUR_clean_sbu_1, # of connection points: 6
#     Node 11, Type 1, BuildingBlock: KUMBUR_clean_sbu_1, # of connection points: 6
#     Edge 12, Type (0, 1), BuildingBlock: AJUNOK_clean_linker_0, # of connection points: 2
#     Edge 13, Type (0, 1), BuildingBlock: AJUNOK_clean_linker_0, # of connection points: 2
#     Edge 14, Type (0, 1), BuildingBlock: AJUNOK_clean_linker_0, # of connection points: 2
#     Edge 15, Type (0, 1), BuildingBlock: AJUNOK_clean_linker_0, # of connection points: 2
#     Edge 16, Type (0, 1), BuildingBlock: AJUNOK_clean_linker_0, # of connection points: 2
#     Edge 17, Type (0, 1), BuildingBlock: AJUNOK_clean_linker_0, # of connection points: 2
#     Edge 18, Type (0, 1), BuildingBlock: AJUNOK_clean_linker_0, # of connection points: 2
#     Edge 19, Type (0, 1), BuildingBlock: AJUNOK_clean_linker_0, # of connection points: 2
#     Edge 20, Type (0, 1), BuildingBlock: AJUNOK_clean_linker_0, # of connection points: 2
#     Edge 21, Type (0, 1), BuildingBlock: AJUNOK_clean_linker_0, # of connection points: 2
#     Edge 22, Type (0, 1), BuildingBlock: AJUNOK_clean_linker_0, # of connection points: 2
#     Edge 23, Type (0, 1), BuildingBlock: AJUNOK_clean_linker_0, # of connection points: 2
#     Edge 24, Type (0, 1), BuildingBlock: AJUNOK_clean_linker_0, # of connection points: 2
#     Edge 25, Type (0, 1), BuildingBlock: AJUNOK_clean_linker_0, # of connection points: 2
#     Edge 26, Type (0, 1), BuildingBlock: AJUNOK_clean_linker_0, # of connection points: 2
#     Edge 27, Type (0, 1), BuildingBlock: AJUNOK_clean_linker_0, # of connection points: 2
#     Edge 28, Type (0, 1), BuildingBlock: AJUNOK_clean_linker_0, # of connection points: 2
#     Edge 29, Type (0, 1), BuildingBlock: AJUNOK_clean_linker_0, # of connection points: 2
#     Edge 30, Type (0, 1), BuildingBlock: AJUNOK_clean_linker_0, # of connection points: 2
#     Edge 31, Type (0, 1), BuildingBlock: AJUNOK_clean_linker_0, # of connection points: 2
#     Edge 32, Type (0, 1), BuildingBlock: AJUNOK_clean_linker_0, # of connection points: 2
#     Edge 33, Type (0, 1), BuildingBlock: AJUNOK_clean_linker_0, # of connection points: 2
#     Edge 34, Type (0, 1), BuildingBlock: AJUNOK_clean_linker_0, # of connection points: 2
#     Edge 35, Type (0, 1), BuildingBlock: AJUNOK_clean_linker_0, # of connection points: 2
# Relax obj value: 0.008
# Max RMSD: 0.109
# Mean RMSD: 0.085
data_MOF--net-apo--node1-KUMBUR_clean_sbu_1--node2-MIDCAF_clean_linker_0--edge1-AJUNOK_clean_linker_0
_symmetry_space_group_name_H-M    P1
_symmetry_Int_Tables_number       1
_symmetry_cell_setting            triclinic
loop_
_symmetry_equiv_pos_as_xyz
'x, y, z'
_cell_length_a     23.042466
_cell_length_b     40.420039
_cell_length_c     51.146995
_cell_angle_alpha  89.82663
_cell_angle_beta   90.106782
_cell_angle_gamma 90.637252
loop_
_atom_site_label
_atom_site_type_symbol
_atom_site_fract_x
_atom_site_fract_y
_atom_site_fract_z
_atom_type_partial_charge
C0 C 0.32282 0.40227 0.5114 0.0
C1 C 0.29597 0.37721 0.5263 0.0
C2 C 0.26654 0.35147 0.51315 0.0
C3 C 0.26264 0.35138 0.48577 0.0
H4 H 0.16312 0.31118 0.41756 0.0
H5 H 0.11368 0.26938 0.39076 0.0
H6 H 0.22649 0.29379 0.32596 0.0
H7 H 0.27329 0.33654 0.35215 0.0
H8 H 0.2558 0.42958 0.35512 0.0
H9 H 0.29218 0.47664 0.32962 0.0
H10 H 0.42092 0.49675 0.38893 0.0
H11 H 0.38389 0.44998 0.41495 0.0
H12 H 0.33937 0.42237 0.47344 0.0
H13 H 0.34558 0.42251 0.52092 0.0
H14 H 0.2462 0.3315 0.52407 0.0
H15 H 0.23895 0.33142 0.47635 0.0
N16 N 0.25493 0.35302 0.42858 0.0
N17 N 0.26986 0.38141 0.38902 0.0
N18 N 0.30234 0.40488 0.42826 0.0
C19 C 0.24942 0.35446 0.40206 0.0
C20 C 0.29607 0.40674 0.40188 0.0
C21 C 0.28178 0.37818 0.44184 0.0
C22 C 0.22201 0.32718 0.38698 0.0
C23 C 0.17753 0.30735 0.39766 0.0
C24 C 0.1495 0.28325 0.38232 0.0
C25 C 0.16648 0.27793 0.35621 0.0
C26 C 0.2118 0.29742 0.34584 0.0
C27 C 0.23885 0.32185 0.36093 0.0
C28 C 0.31711 0.43601 0.38704 0.0
C29 C 0.29169 0.44409 0.36284 0.0
C30 C 0.31218 0.47108 0.34829 0.0
C31 C 0.35911 0.49017 0.35742 0.0
C32 C 0.38457 0.48229 0.38159 0.0
C33 C 0.3633 0.45566 0.39644 0.0
C34 C 0.28805 0.37705 0.47087 0.0
C35 C 0.31883 0.40225 0.4841 0.0
C36 C 0.19056 0.09418 1.00983 0.0
C37 C 0.21241 0.12052 0.02488 0.0
C38 C 0.23465 0.14867 1.01198 0.0
C39 C 0.23698 0.1499 0.98458 0.0
H40 H 0.29148 0.20897 0.91883 0.0
H41 H 0.34293 0.25245 0.89415 0.0
H42 H 0.34859 0.1887 0.82677 0.0
H43 H 0.29784 0.14547 0.851 0.0
H44 H 0.24636 0.0736 0.85308 0.0
H45 H 0.20789 0.02763 0.82711 0.0
H46 H 0.07626 0.00919 0.8853 0.0
H47 H 0.1154 0.05483 0.91185 0.0
H48 H 0.17592 0.07438 0.97169 0.0
H49 H 0.1722 0.07242 0.01923 0.0
H50 H 0.25166 0.16937 0.02313 0.0
H51 H 0.25552 0.17168 0.9753 0.0
N52 N 0.25102 0.14807 0.92771 0.0
N53 N 0.23651 0.12088 0.88773 0.0
N54 N 0.19977 0.09744 0.92628 0.0
C55 C 0.2584 0.14702 0.90129 0.0
C56 C 0.20698 0.09613 0.89995 0.0
C57 C 0.2219 0.1232 0.9404 0.0
C58 C 0.29053 0.1736 0.887 0.0
C59 C 0.304 0.20416 0.89881 0.0
C60 C 0.33322 0.22909 0.8847 0.0
C61 C 0.35028 0.22372 0.85869 0.0
C62 C 0.33685 0.19328 0.84693 0.0
C63 C 0.30734 0.16859 0.86086 0.0
C64 C 0.1839 0.06787 0.88455 0.0
C65 C 0.20929 0.05975 0.86044 0.0
C66 C 0.18754 0.03342 0.8456 0.0
C67 C 0.13933 0.01505 0.85431 0.0
C68 C 0.11354 0.02312 0.87827 0.0
C69 C 0.13606 0.04909 0.89343 0.0
C70 C 0.21653 0.12311 0.96946 0.0
C71 C 0.19248 0.09545 0.98251 0.0
C72 C 0.86156 0.13319 0.52277 0.0
C73 C 0.86775 0.16602 0.51411 0.0
C74 C 0.85963 0.19195 0.53181 0.0
C75 C 0.84438 0.1852 0.55774 0.0
H76 H 0.78325 0.22979 0.62975 0.0
H77 H 0.7312 0.26976 0.65659 0.0
H78 H 0.64298 0.18926 0.69633 0.0
H79 H 0.69757 0.14962 0.67082 0.0
H80 H 0.87039 0.10529 0.6785 0.0
H81 H 0.90104 0.05562 0.70141 0.0
H82 H 0.83933 0.99591 0.63682 0.0
H83 H 0.81336 0.04628 0.61301 0.0
H84 H 0.84271 0.10082 0.55497 0.0
H85 H 0.86784 0.11284 0.50937 0.0
H86 H 0.86412 0.21745 0.52546 0.0
H87 H 0.83793 0.20574 0.57093 0.0
N88 N 0.79323 0.16849 0.60814 0.0
N89 N 0.79259 0.13313 0.64453 0.0
N90 N 0.83529 0.11587 0.60533 0.0
C91 C 0.7779 0.16229 0.63332 0.0
C92 C 0.82136 0.10993 0.63073 0.0
C93 C 0.82166 0.1453 0.59397 0.0
C94 C 0.74496 0.18668 0.64849 0.0
C95 C 0.75291 0.22078 0.64435 0.0
C96 C 0.72304 0.2436 0.65966 0.0
C97 C 0.68392 0.23271 0.67904 0.0
C98 C 0.67452 0.19853 0.68238 0.0
C99 C 0.70537 0.1758 0.66758 0.0
C100 C 0.83991 0.07947 0.64401 0.0
C101 C 0.86399 0.08151 0.66915 0.0
C102 C 0.88113 0.05299 0.68232 0.0
C103 C 0.87305 0.02161 0.67099 0.0
C104 C 0.84803 0.01962 0.64586 0.0
C105 C 0.8326 0.04838 0.63229 0.0
C106 C 0.8381 0.15233 0.56653 0.0
C107 C 0.84738 0.12638 0.54883 0.0
C108 C 0.6579 0.38477 0.02191 0.0
C109 C 0.65936 0.35241 1.01185 0.0
C110 C 0.67344 0.3263 0.02886 0.0
C111 C 0.68575 0.33232 0.0552 0.0
H112 H 0.80692 0.30243 0.11622 0.0
H113 H 0.85883 0.26209 0.14289 0.0
H114 H 0.78622 0.30469 0.21276 0.0
H115 H 0.73666 0.34577 0.18635 0.0
H116 H 0.73727 0.43133 0.17523 0.0
H117 H 0.70086 0.47753 0.20042 0.0
H118 H 0.56555 0.4924 0.14323 0.0
H119 H 0.6032 0.44641 0.11734 0.0
H120 H 0.66813 0.41596 0.05546 0.0
H121 H 0.64881 0.40559 1.00925 0.0
H122 H 0.67454 0.30106 0.02183 0.0
H123 H 0.69626 0.31152 0.06768 0.0
N124 N 0.72586 0.34762 0.10759 0.0
N125 N 0.72055 0.38119 0.14469 0.0
N126 N 0.6799 0.39924 0.10515 0.0
C127 C 0.73767 0.35271 0.13331 0.0
C128 C 0.69188 0.40459 0.13087 0.0
C129 C 0.69699 0.37075 0.09335 0.0
C130 C 0.76805 0.32749 0.14915 0.0
C131 C 0.80224 0.30323 0.13728 0.0
C132 C 0.83188 0.28009 0.15256 0.0
C133 C 0.82743 0.28051 0.18 0.0
C134 C 0.79217 0.30433 0.19177 0.0
C135 C 0.76333 0.32773 0.17656 0.0
C136 C 0.67258 0.43486 0.14445 0.0
C137 C 0.69986 0.44446 0.16789 0.0
C138 C 0.67878 0.47081 0.18246 0.0
C139 C 0.62932 0.48793 0.17421 0.0
C140 C 0.60353 0.47945 0.15015 0.0
C141 C 0.62508 0.45316 0.13534 0.0
C142 C 0.68376 0.3646 0.06533 0.0
C143 C 0.66944 0.39075 0.04839 0.0
C144 C 0.66636 0.60395 0.51913 0.0
C145 C 0.68749 0.63096 0.5045 0.0
C146 C 0.7091 0.65884 0.51786 0.0
C147 C 0.71262 0.65894 0.5452 0.0
H148 H 0.72446 0.71804 0.62871 0.0
H149 H 0.77537 0.75983 0.65509 0.0
H150 H 0.89805 0.68584 0.6799 0.0
H151 H 0.84392 0.64392 0.65551 0.0
H152 H 0.71474 0.58772 0.68076 0.0
H153 H 0.67717 0.54157 0.70659 0.0
H154 H 0.59603 0.50031 0.63777 0.0
H155 H 0.63406 0.54634 0.61156 0.0
H156 H 0.65474 0.5823 0.55698 0.0
H157 H 0.64949 0.58209 0.5094 0.0
H158 H 0.7245 0.68034 0.50713 0.0
H159 H 0.73108 0.6805 0.55475 0.0
N160 N 0.73361 0.65443 0.60107 0.0
N161 N 0.72862 0.62466 0.64049 0.0
N162 N 0.68606 0.60272 0.60259 0.0
C163 C 0.74622 0.65186 0.62695 0.0
C164 C 0.69794 0.60009 0.62858 0.0
C165 C 0.70389 0.62973 0.58863 0.0
C166 C 0.78004 0.67785 0.64044 0.0
C167 C 0.76229 0.71092 0.63992 0.0
C168 C 0.79157 0.73478 0.65496 0.0
C169 C 0.83994 0.7261 0.67032 0.0
C170 C 0.8594 0.69322 0.66945 0.0
C171 C 0.829 0.66925 0.65516 0.0
C172 C 0.67709 0.57105 0.64401 0.0
C173 C 0.68904 0.56887 0.67097 0.0
C174 C 0.6673 0.5425 0.68588 0.0
C175 C 0.63299 0.51767 0.67425 0.0
C176 C 0.62234 0.51918 0.64722 0.0
C177 C 0.644 0.54564 0.63226 0.0
C178 C 0.69429 0.6312 0.55984 0.0
C179 C 0.6697 0.60405 0.54646 0.0
C180 C 0.85047 0.88977 0.01938 0.0
C181 C 0.82021 0.86489 1.00569 0.0
C182 C 0.78288 0.84356 0.01968 0.0
C183 C 0.77702 0.84647 0.04677 0.0
H184 H 0.71665 0.79482 0.11129 0.0
H185 H 0.66302 0.75302 0.1363 0.0
H186 H 0.70036 0.80598 0.20759 0.0
H187 H 0.7533 0.84805 0.1828 0.0
H188 H 0.90046 0.89971 0.16855 0.0
H189 H 0.93769 0.94602 0.19432 0.0
H190 H 0.83394 0.01331 0.14845 0.0
H191 H 0.80112 0.96698 0.12119 0.0
H192 H 0.86882 0.91211 0.05642 0.0
H193 H 0.87946 0.90663 1.00914 0.0
H194 H 0.75756 0.82476 1.00963 0.0
H195 H 0.74801 0.82947 0.05683 0.0
N196 N 0.77476 0.84937 0.10333 0.0
N197 N 0.79566 0.8771 0.14244 0.0
N198 N 0.82589 0.89998 0.10241 0.0
C199 C 0.77101 0.85096 0.12984 0.0
C200 C 0.82277 0.90165 0.12888 0.0
C201 C 0.80242 0.87365 0.08946 0.0
C202 C 0.73953 0.8249 0.14495 0.0
C203 C 0.7137 0.79758 0.13229 0.0
C204 C 0.6832 0.7735 0.14662 0.0
C205 C 0.67789 0.77617 0.1739 0.0
C206 C 0.70357 0.8034 0.18656 0.0
C207 C 0.73413 0.82743 0.1723 0.0
C208 C 0.8479 0.92996 0.14309 0.0
C209 C 0.8863 0.92452 0.16389 0.0
C210 C 0.90682 0.95102 0.17887 0.0
C211 C 0.8872 0.98336 0.17413 0.0
C212 C 0.84991 0.98878 0.15272 0.0
C213 C 0.83097 0.96234 0.13715 0.0
C214 C 0.80779 0.8711 0.06057 0.0
C215 C 0.84434 0.89286 0.04649 0.0
C216 C 0.13581 0.88661 0.50446 0.0
C217 C 0.15905 0.86039 0.51911 0.0
C218 C 0.19474 0.83752 0.50646 0.0
C219 C 0.20666 0.84059 0.47979 0.0
H220 H 0.3018 0.79742 0.41992 0.0
H221 H 0.35865 0.75568 0.39715 0.0
H222 H 0.2903 0.78962 0.32326 0.0
H223 H 0.23506 0.83177 0.34569 0.0
H224 H 0.1951 0.90452 0.34268 0.0
H225 H 0.16603 0.9516 0.31624 0.0
H226 H 0.09528 0.99841 0.38468 0.0
H227 H 0.12543 0.95151 0.41154 0.0
H228 H 0.12884 0.9101 0.46697 0.0
H229 H 0.10801 0.90456 0.5137 0.0
H230 H 0.21219 0.8166 0.51704 0.0
H231 H 0.23385 0.82217 0.47078 0.0
N232 N 0.22312 0.84397 0.42415 0.0
N233 N 0.21211 0.87082 0.38389 0.0
N234 N 0.17396 0.89455 0.42183 0.0
C235 C 0.23223 0.84486 0.39795 0.0
C236 C 0.18316 0.89581 0.39553 0.0
C237 C 0.19382 0.86861 0.43629 0.0
C238 C 0.26417 0.81812 0.38463 0.0
C239 C 0.29859 0.7958 0.39883 0.0
C240 C 0.33089 0.77176 0.38583 0.0
C241 C 0.32883 0.76936 0.35843 0.0
C242 C 0.29329 0.79113 0.34436 0.0
C243 C 0.26155 0.81527 0.35727 0.0
C244 C 0.16308 0.9242 0.37942 0.0
C245 C 0.17339 0.92478 0.35226 0.0
C246 C 0.15652 0.95172 0.33697 0.0
C247 C 0.12906 0.97886 0.3484 0.0
C248 C 0.11755 0.97812 0.37541 0.0
C249 C 0.13449 0.95113 0.39078 0.0
C250 C 0.18301 0.86658 0.46495 0.0
C251 C 0.14786 0.88978 0.4777 0.0
C252 C 0.35216 0.61592 1.00729 0.0
C253 C 0.34574 0.64695 0.01914 0.0
C254 C 0.32377 0.67326 1.00426 0.0
C255 C 0.30926 0.66887 0.97799 0.0
H256 H 0.18922 0.70324 0.91771 0.0
H257 H 0.13736 0.74511 0.89252 0.0
H258 H 0.21899 0.71068 0.82179 0.0
H259 H 0.26817 0.66794 0.84667 0.0
H260 H 0.25595 0.58066 0.85285 0.0
H261 H 0.28304 0.53238 0.82756 0.0
H262 H 0.41042 0.5072 0.88617 0.0
H263 H 0.38188 0.55497 0.91208 0.0
H264 H 0.34378 0.58736 0.97221 0.0
H265 H 0.36861 0.59519 0.01843 0.0
H266 H 0.3171 0.69726 1.01306 0.0
H267 H 0.2926 0.68984 0.96723 0.0
N268 N 0.274 0.65854 0.9246 0.0
N269 N 0.27518 0.62709 0.88627 0.0
N270 N 0.31519 0.60558 0.92483 0.0
C271 C 0.26112 0.65534 0.89881 0.0
C272 C 0.30189 0.60206 0.89904 0.0
C273 C 0.30126 0.6338 0.93778 0.0
C274 C 0.2325 0.68222 0.88416 0.0
C275 C 0.19627 0.70483 0.89681 0.0
C276 C 0.16693 0.72896 0.88239 0.0
C277 C 0.17435 0.73141 0.85513 0.0
C278 C 0.21171 0.70922 0.84268 0.0
C279 C 0.24006 0.68478 0.85697 0.0
C280 C 0.31681 0.57169 0.88452 0.0
C281 C 0.28946 0.56471 0.86051 0.0
C282 C 0.30501 0.53708 0.84594 0.0
C283 C 0.34852 0.51584 0.85492 0.0
C284 C 0.37568 0.52263 0.87902 0.0
C285 C 0.35961 0.55012 0.8938 0.0
C286 C 0.31634 0.638 0.96586 0.0
C287 C 0.338 0.61153 0.98084 0.0
Tb288 Tb 0.06489 0.13871 0.23646 0.0
C289 C 0.81606 0.11397 0.27748 0.0
N290 N 0.84904 0.14209 0.27672 0.0
C291 C 0.76806 0.17176 0.25896 0.0
C292 C 0.75852 0.11336 0.26802 0.0
C293 C 0.82428 0.17129 0.2693 0.0
C294 C 0.73539 0.14253 0.25783 0.0
C295 C 0.80401 0.05784 0.29368 0.0
C296 C 0.83839 0.08646 0.28989 0.0
C297 C 0.74769 0.05651 0.28317 0.0
C298 C 0.72511 0.08417 0.27021 0.0
Tb299 Tb 0.94144 0.13709 0.2933 0.0
N300 N 0.89327 0.08843 0.29941 0.0
C301 C 0.82664 0.03196 0.30872 0.0
C302 C 0.91492 0.06394 0.31492 0.0
C303 C 0.88205 0.03525 0.31971 0.0
H304 H 0.84671 0.19462 0.27186 0.0
H305 H 0.89954 0.01564 0.33173 0.0
H306 H 0.17143 0.10115 0.26762 0.0
H307 H 0.05035 0.26115 0.19355 0.0
H308 H 0.95756 0.06662 0.32353 0.0
H309 H 0.80139 0.00964 0.31232 0.0
H310 H 0.02048 0.20328 0.20043 0.0
H311 H 0.74944 0.19486 0.25248 0.0
H312 H 0.72074 0.03458 0.28556 0.0
H313 H 0.68099 0.08316 0.26286 0.0
H314 H 0.26772 0.116 0.28564 0.0
H315 H 0.69142 0.14311 0.25031 0.0
H316 H 0.14182 0.28225 0.21305 0.0
N317 N 0.15481 0.14963 0.25333 0.0
C318 C 0.17625 0.18068 0.24939 0.0
C319 C 0.24222 0.13449 0.27565 0.0
C320 C 0.23087 0.19029 0.25933 0.0
C321 C 0.18749 0.12621 0.26558 0.0
C322 C 0.26383 0.16674 0.27272 0.0
N323 N 0.08979 0.19246 0.22664 0.0
C324 C 0.05839 0.21252 0.21051 0.0
C325 C 0.16238 0.23557 0.23156 0.0
C326 C 0.14216 0.20297 0.23592 0.0
C327 C 0.12797 0.25698 0.2168 0.0
C328 C 0.07616 0.24522 0.2059 0.0
H329 H 0.30612 0.17311 0.28064 0.0
H330 H 0.29242 0.23093 0.26323 0.0
H331 H 0.23252 0.27058 0.23879 0.0
O332 O 0.08642 0.14343 0.19671 0.0
O333 O 0.0827 0.15924 0.27575 0.0
O334 O 0.99598 0.18121 0.28865 0.0
O335 O 0.10404 0.09842 0.2174 0.0
O336 O 0.97951 0.16013 0.22768 0.0
O337 O 0.94445 0.18039 0.26687 0.0
O338 O 0.96685 0.13439 0.33271 0.0
O339 O 0.94512 0.09434 0.26655 0.0
O340 O 0.97651 0.12058 0.22982 0.0
O341 O 0.88559 0.15603 0.32196 0.0
O342 O 0.02577 0.11376 0.30062 0.0
O343 O 0.06356 0.09421 0.26141 0.0
C344 C 0.05282 0.18145 0.28852 0.0
C345 C 0.16438 0.11243 0.18095 0.0
C346 C 0.21521 0.11256 0.13896 0.0
C347 C 0.26802 0.10876 0.15237 0.0
C348 C 0.21756 0.1086 0.19395 0.0
C349 C 0.26907 0.10687 0.17967 0.0
C350 C 0.16354 0.11468 0.15346 0.0
C351 C 0.94888 0.1815 0.24116 0.0
C352 C 0.10909 0.11432 0.19532 0.0
C353 C 0.25065 0.22296 0.25562 0.0
C354 C 0.21647 0.24556 0.24176 0.0
C355 C 0.95381 0.09452 0.24118 0.0
C356 C 0.93116 0.1759 0.36018 0.0
C357 C 0.92561 0.19417 0.40551 0.0
C358 C 0.94865 0.22512 0.39793 0.0
C359 C 0.95325 0.207 0.35283 0.0
C360 C 0.91826 0.16947 0.38645 0.0
C361 C 0.96255 0.23138 0.37174 0.0
C362 C 0.05432 0.0917 0.28685 0.0
C363 C 0.9211 0.14957 0.34099 0.0
H364 H 0.30853 0.10747 0.14173 0.0
H365 H 0.21936 0.10689 0.21503 0.0
H366 H 0.30999 0.10399 0.1898 0.0
H367 H 0.12251 0.11755 0.14332 0.0
H368 H 0.95505 0.24463 0.41215 0.0
H369 H 0.96338 0.21238 0.3326 0.0
H370 H 0.90261 0.14506 0.39203 0.0
H371 H 0.98007 0.25529 0.36606 0.0
Tb372 Tb 0.42956 0.36279 0.74053 0.0
C373 C 0.67372 0.40592 0.76349 0.0
N374 N 0.65046 0.37544 0.76817 0.0
C375 C 0.73147 0.35055 0.74661 0.0
C376 C 0.72503 0.41004 0.74883 0.0
C377 C 0.68093 0.34789 0.76163 0.0
C378 C 0.75293 0.3818 0.73965 0.0
C379 C 0.67251 0.46479 0.77236 0.0
C380 C 0.6482 0.43288 0.77509 0.0
C381 C 0.72176 0.46938 0.75655 0.0
C382 C 0.74795 0.44203 0.74476 0.0
Tb383 Tb 0.56437 0.37463 0.79076 0.0
N384 N 0.59967 0.42754 0.78954 0.0
C385 C 0.64717 0.49088 0.78604 0.0
C386 C 0.57655 0.45241 0.80409 0.0
C387 C 0.59962 0.48453 0.80235 0.0
H388 H 0.66717 0.32381 0.76837 0.0
H389 H 0.58045 0.5044 0.81341 0.0
H390 H 0.31899 0.39104 0.77414 0.0
H391 H 0.46253 0.24373 0.69454 0.0
H392 H 0.53968 0.44752 0.81659 0.0
H393 H 0.6646 0.51581 0.78453 0.0
H394 H 0.47608 0.30383 0.69965 0.0
H395 H 0.7544 0.32852 0.74086 0.0
H396 H 0.74071 0.4938 0.75384 0.0
H397 H 0.78693 0.44576 0.73326 0.0
H398 H 0.23292 0.36799 0.79702 0.0
H399 H 0.79247 0.38383 0.7283 0.0
H400 H 0.38822 0.21402 0.72078 0.0
N401 N 0.34768 0.34411 0.76105 0.0
C402 C 0.33554 0.3113 0.75902 0.0
C403 C 0.26171 0.35174 0.78655 0.0
C404 C 0.28739 0.29699 0.77183 0.0
C405 C 0.31046 0.36471 0.77366 0.0
C406 C 0.25055 0.31766 0.78595 0.0
N407 N 0.41623 0.30767 0.73113 0.0
C408 C 0.4462 0.29097 0.7124 0.0
C409 C 0.36069 0.25816 0.74094 0.0
C410 C 0.3719 0.29228 0.74397 0.0
C411 C 0.39533 0.2403 0.72369 0.0
C412 C 0.43746 0.25695 0.70893 0.0
H413 H 0.213 0.30765 0.79609 0.0
H414 H 0.24114 0.2511 0.77988 0.0
H415 H 0.30524 0.21705 0.75269 0.0
O416 O 0.38676 0.35639 0.704 0.0
O417 O 0.4248 0.34501 0.78122 0.0
O418 O 0.51637 0.32747 0.79126 0.0
O419 O 0.38421 0.40323 0.72486 0.0
O420 O 0.51569 0.34539 0.72839 0.0
O421 O 0.56311 0.32985 0.7664 0.0
O422 O 0.5524 0.37818 0.83143 0.0
O423 O 0.538 0.4135 0.76316 0.0
O424 O 0.50984 0.38595 0.7263 0.0
O425 O 0.63392 0.36295 0.81573 0.0
O426 O 0.48015 0.39286 0.80366 0.0
O427 O 0.42655 0.40652 0.76635 0.0
C428 C 0.45969 0.3243 0.79302 0.0
C429 C 0.33209 0.40119 0.68341 0.0
C430 C 0.29692 0.40299 0.63818 0.0
C431 C 0.26186 0.42994 0.64479 0.0
C432 C 0.29667 0.42818 0.68938 0.0
C433 C 0.26178 0.44236 0.67018 0.0
C434 C 0.33232 0.38869 0.65764 0.0
C435 C 0.55341 0.32693 0.74108 0.0
C436 C 0.36846 0.38664 0.70424 0.0
C437 C 0.27751 0.26272 0.76992 0.0
C438 C 0.31414 0.24332 0.75451 0.0
C439 C 0.5361 0.411 0.73765 0.0
C440 C 0.60568 0.34026 0.85631 0.0
C441 C 0.61662 0.32291 0.90177 0.0
C442 C 0.61041 0.28976 0.89394 0.0
C443 C 0.59894 0.30706 0.84884 0.0
C444 C 0.61412 0.34809 0.88278 0.0
C445 C 0.60126 0.28195 0.86763 0.0
C446 C 0.43971 0.40991 0.79145 0.0
C447 C 0.60362 0.36701 0.83684 0.0
H448 H 0.23505 0.44175 0.63013 0.0
H449 H 0.2957 0.43824 0.70898 0.0
H450 H 0.2347 0.46319 0.67499 0.0
H451 H 0.3598 0.36804 0.65273 0.0
H452 H 0.61212 0.26995 0.90823 0.0
H453 H 0.59224 0.30059 0.82852 0.0
H454 H 0.61954 0.37374 0.88855 0.0
H455 H 0.59611 0.25637 0.86178 0.0
Tb456 Tb 0.0726 0.86542 0.7376 0.0
C457 C 0.82264 0.83063 0.76501 0.0
N458 N 0.8492 0.86077 0.7627 0.0
C459 C 0.77186 0.879 0.73475 0.0
C460 C 0.77076 0.82315 0.75149 0.0
C461 C 0.82268 0.8854 0.74894 0.0
C462 C 0.74626 0.84758 0.73568 0.0
C463 C 0.81862 0.77684 0.78621 0.0
C464 C 0.84631 0.80761 0.78193 0.0
C465 C 0.76786 0.76892 0.77225 0.0
C466 C 0.74417 0.79196 0.7548 0.0
Tb467 Tb 0.93369 0.86713 0.78627 0.0
N468 N 0.89654 0.81569 0.79442 0.0
C469 C 0.84264 0.75514 0.80456 0.0
C470 C 0.91929 0.79509 0.81288 0.0
C471 C 0.89299 0.76441 0.81807 0.0
H472 H 0.83898 0.91038 0.74938 0.0
H473 H 0.91139 0.74803 0.83258 0.0
H474 H 0.16317 0.81229 0.76519 0.0
H475 H 0.09801 0.99455 0.70997 0.0
H476 H 0.95723 0.80243 0.82392 0.0
H477 H 0.82249 0.73131 0.80855 0.0
H478 H 0.04883 0.9407 0.71099 0.0
H479 H 0.75177 0.89854 0.72354 0.0
H480 H 0.74626 0.74523 0.77501 0.0
H481 H 0.7045 0.7857 0.74444 0.0
H482 H 0.26088 0.81397 0.78468 0.0
H483 H 0.70648 0.84283 0.72493 0.0
H484 H 0.19494 1.00139 0.73016 0.0
N485 N 0.16231 0.86378 0.75625 0.0
C486 C 0.19366 0.89242 0.75519 0.0
C487 C 0.24228 0.83629 0.77668 0.0
C488 C 0.25024 0.89434 0.76565 0.0
C489 C 0.18638 0.83558 0.766 0.0
C490 C 0.27425 0.86584 0.77666 0.0
N491 N 0.11385 0.91709 0.73375 0.0
C492 C 0.08943 0.94323 0.72101 0.0
C493 C 0.1991 0.95041 0.74306 0.0
C494 C 0.16839 0.92005 0.7439 0.0
C495 C 0.17282 0.97762 0.73119 0.0
C496 C 0.11801 0.9739 0.71989 0.0
H497 H 0.31754 0.86632 0.78497 0.0
H498 H 0.32409 0.92663 0.77311 0.0
H499 H 0.27927 0.97575 0.75343 0.0
O500 O 0.11128 0.87148 0.70057 0.0
O501 O 0.0818 0.89009 0.77574 0.0
O502 O 0.99073 0.91049 0.78252 0.0
O503 O 0.10679 0.82364 0.71908 0.0
O504 O 0.99631 0.89152 0.72258 0.0
O505 O 0.93958 0.9083 0.75787 0.0
O506 O 0.93828 0.87106 0.82738 0.0
O507 O 0.94941 0.82448 0.76095 0.0
O508 O 0.9873 0.84817 0.72412 0.0
O509 O 0.86577 0.89041 0.80616 0.0
O510 O 0.01538 0.84726 0.8014 0.0
O511 O 0.05907 0.82411 0.76496 0.0
C512 C 0.04674 0.91105 0.78711 0.0
C513 C 0.09438 0.82569 0.673 0.0
C514 C 0.08927 0.82579 0.62517 0.0
C515 C 0.04686 0.80056 0.6264 0.0
C516 C 0.05236 0.80019 0.67362 0.0
C517 C 0.02876 0.78784 0.65045 0.0
C518 C 0.11276 0.83836 0.64865 0.0
C519 C 0.95576 0.9102 0.73304 0.0
C520 C 0.11801 0.83981 0.69754 0.0
C521 C 0.28073 0.9246 0.765 0.0
C522 C 0.25515 0.95259 0.75383 0.0
C523 C 0.95532 0.82538 0.73549 0.0
C524 C 0.84651 0.86681 0.84767 0.0
C525 C 0.81905 0.85268 0.89249 0.0
C526 C 0.77295 0.83325 0.88281 0.0
C527 C 0.79924 0.84781 0.83851 0.0
C528 C 0.85581 0.86951 0.87481 0.0
C529 C 0.76308 0.83096 0.85598 0.0
C530 C 0.05077 0.82596 0.79044 0.0
C531 C 0.88656 0.8834 0.82914 0.0
H532 H 0.02832 0.79028 0.60867 0.0
H533 H 0.03746 0.78982 0.69198 0.0
H534 H 0.99637 0.76825 0.65114 0.0
H535 H 0.1447 0.85824 0.64802 0.0
H536 H 0.74388 0.82032 0.89607 0.0
H537 H 0.78993 0.84602 0.81785 0.0
H538 H 0.89173 0.88437 0.88213 0.0
H539 H 0.72703 0.81625 0.84869 0.0
Tb540 Tb 0.43337 0.64587 0.24275 0.0
C541 C 0.6861 0.67574 0.26483 0.0
N542 N 0.66278 0.6447 0.26494 0.0
C543 C 0.74105 0.62517 0.23859 0.0
C544 C 0.73722 0.68294 0.25077 0.0
C545 C 0.68954 0.61934 0.25237 0.0
C546 C 0.76489 0.65712 0.2377 0.0
C547 C 0.67867 0.73327 0.27746 0.0
C548 C 0.65664 0.70058 0.27783 0.0
C549 C 0.72924 0.74071 0.26318 0.0
C550 C 0.75846 0.71561 0.2499 0.0
Tb551 Tb 0.57954 0.63795 0.28821 0.0
N552 N 0.60689 0.69263 0.29097 0.0
C553 C 0.64978 0.7574 0.29182 0.0
C554 C 0.58204 0.7155 0.30693 0.0
C555 C 0.60197 0.74831 0.30704 0.0
H556 H 0.67095 0.59467 0.25291 0.0
H557 H 0.58117 0.76642 0.31931 0.0
H558 H 0.35954 0.7074 0.26942 0.0
H559 H 0.37225 0.52031 0.21795 0.0
H560 H 0.54842 0.70866 0.3205 0.0
H561 H 0.66531 0.7828 0.29208 0.0
H562 H 0.43688 0.56903 0.21909 0.0
H563 H 0.76207 0.60511 0.2285 0.0
H564 H 0.74643 0.76576 0.26249 0.0
H565 H 0.79745 0.72173 0.23902 0.0
H566 H 0.26363 0.715 0.28981 0.0
H567 H 0.80436 0.66164 0.22672 0.0
H568 H 0.27378 0.52317 0.23694 0.0
N569 N 0.34552 0.6564 0.26144 0.0
C570 C 0.30633 0.63103 0.26083 0.0
C571 C 0.27528 0.69114 0.28198 0.0
C572 C 0.25019 0.63455 0.27129 0.0
C573 C 0.33017 0.68655 0.27103 0.0
C574 C 0.2352 0.66496 0.28226 0.0
N575 N 0.37769 0.59883 0.24027 0.0
C576 C 0.39498 0.57051 0.2282 0.0
C577 C 0.28381 0.57422 0.24902 0.0
C578 C 0.32273 0.60133 0.24971 0.0
C579 C 0.30232 0.54462 0.23781 0.0
C580 C 0.35798 0.54287 0.22717 0.0
H581 H 0.19259 0.66862 0.29062 0.0
H582 H 0.16777 0.60983 0.27856 0.0
H583 H 0.19734 0.55696 0.2592 0.0
O584 O 0.43794 0.64443 0.20078 0.0
O585 O 0.42476 0.60997 0.27501 0.0
O586 O 0.51151 0.60253 0.29844 0.0
O587 O 0.37779 0.67601 0.22171 0.0
O588 O 0.50417 0.61479 0.22837 0.0
O589 O 0.55825 0.59491 0.26392 0.0
O590 O 0.61142 0.6446 0.32676 0.0
O591 O 0.58248 0.65514 0.24737 0.0
O592 O 0.49966 0.68478 0.24515 0.0
O593 O 0.63814 0.60282 0.30308 0.0
O594 O 0.50176 0.65842 0.30657 0.0
O595 O 0.46055 0.68313 0.27103 0.0
C596 C 0.45664 0.5957 0.29321 0.0
C597 C 0.37364 0.68127 0.17501 0.0
C598 C 0.36024 0.68257 0.12767 0.0
C599 C 0.32858 0.71187 0.13013 0.0
C600 C 0.34167 0.71066 0.17688 0.0
C601 C 0.3193 0.72574 0.1546 0.0
C602 C 0.3826 0.66706 0.15021 0.0
C603 C 0.53809 0.59274 0.23973 0.0
C604 C 0.39697 0.6664 0.19924 0.0
C605 C 0.21104 0.60765 0.27054 0.0
C606 C 0.22788 0.57753 0.25951 0.0
C607 C 0.55282 0.67955 0.23741 0.0
C608 C 0.6794 0.60603 0.34693 0.0
C609 C 0.70767 0.60553 0.39307 0.0
C610 C 0.75029 0.58206 0.38729 0.0
C611 C 0.72236 0.58259 0.34171 0.0
C612 C 0.67193 0.61735 0.37277 0.0
C613 C 0.75751 0.57073 0.3618 0.0
C614 C 0.46211 0.67758 0.29626 0.0
C615 C 0.64229 0.61797 0.32536 0.0
H616 H 0.31075 0.72397 0.11301 0.0
H617 H 0.33407 0.72221 0.19563 0.0
H618 H 0.29477 0.74832 0.1563 0.0
H619 H 0.40699 0.64442 0.1484 0.0
H620 H 0.77767 0.57218 0.40262 0.0
H621 H 0.7289 0.57343 0.32206 0.0
H622 H 0.63869 0.63528 0.37711 0.0
H623 H 0.7904 0.5526 0.3576 0.0
C624 C 0.08364 0.00359 0.30814 0.0
C625 C 0.113 0.00796 0.33213 0.0
C626 C 0.06698 0.03085 0.29287 0.0
C627 C 0.07858 0.06333 0.30121 0.0
H628 H 0.07233 0.97896 0.30142 0.0
H629 H 0.0432 0.02652 0.2749 0.0
S630 S 0.1617 0.08809 0.36017 0.0
N631 N 0.15856 0.04732 0.3618 0.0
N632 N 0.12599 0.09836 0.33339 0.0
C633 C 0.10972 0.06801 0.32453 0.0
C634 C 0.12719 0.04037 0.33993 0.0
C635 C 0.3772 0.49208 0.81162 0.0
C636 C 0.36707 0.48752 0.83858 0.0
C637 C 0.39798 0.46629 0.79605 0.0
C638 C 0.40997 0.43522 0.80699 0.0
H639 H 0.37079 0.51605 0.80262 0.0
H640 H 0.40706 0.47116 0.77562 0.0
S641 S 0.38386 0.40909 0.87558 0.0
N642 N 0.36495 0.44837 0.87479 0.0
N643 N 0.40551 0.40024 0.84568 0.0
C644 C 0.39788 0.42989 0.83361 0.0
C645 C 0.37617 0.45597 0.84938 0.0
C646 C 0.61371 0.45736 0.68315 0.0
C647 C 0.60729 0.49068 0.69045 0.0
C648 C 0.58993 0.43162 0.69838 0.0
C649 C 0.55908 0.43836 0.7214 0.0
H650 H 0.63796 0.45115 0.66575 0.0
H651 H 0.59662 0.40626 0.69236 0.0
S652 S 0.52414 0.5213 0.74734 0.0
N653 N 0.56403 0.52895 0.72118 0.0
N654 N 0.51928 0.48061 0.74961 0.0
C655 C 0.55116 0.4715 0.72855 0.0
C656 C 0.57532 0.49766 0.71313 0.0
C657 C 0.91889 0.04245 0.18119 0.0
C658 C 0.90442 0.01122 0.19172 0.0
C659 C 0.93461 0.06907 0.19735 0.0
C660 C 0.93669 0.06566 0.22477 0.0
H661 H 0.91865 0.04635 0.16023 0.0
H662 H 0.94513 0.09255 0.18816 0.0
S663 S 0.90447 0.9888 0.26218 0.0
N664 N 0.89252 0.9786 0.23144 0.0
N665 N 0.9253 0.02797 0.26153 0.0
C666 C 0.92309 0.03447 0.23552 0.0
C667 C 0.90627 0.00746 0.2191 0.0
C668 C 0.88076 0.98961 0.71293 0.0
C669 C 0.89054 0.99143 0.68578 0.0
C670 C 0.9009 0.96304 0.7279 0.0
C671 C 0.93053 0.93663 0.71632 0.0
H672 H 0.85797 0.00916 0.7229 0.0
H673 H 0.89404 0.96366 0.74883 0.0
S674 S 0.965 0.92833 0.64565 0.0
N675 N 0.93189 0.9642 0.64786 0.0
N676 N 0.96578 0.91305 0.67559 0.0
C677 C 0.9384 0.93735 0.68896 0.0
C678 C 0.91927 0.96493 0.6738 0.0
C679 C 0.58947 0.54496 0.18041 0.0
C680 C 0.60429 0.51405 0.19106 0.0
C681 C 0.56751 0.57019 0.19624 0.0
C682 C 0.55983 0.56547 0.22332 0.0
H683 H 0.59591 0.5499 0.15978 0.0
H684 H 0.55759 0.59377 0.18726 0.0
S685 S 0.58625 0.48804 0.2603 0.0
N686 N 0.60531 0.47934 0.23001 0.0
N687 N 0.56519 0.52693 0.25975 0.0
C688 C 0.57331 0.5345 0.23409 0.0
C689 C 0.5952 0.50875 0.21798 0.0
C690 C 0.44031 0.51631 0.33229 0.0
C691 C 0.38278 0.5175 0.34121 0.0
C692 C 0.46343 0.54159 0.31651 0.0
C693 C 0.42984 0.56898 0.30909 0.0
H694 H 0.46744 0.49552 0.33737 0.0
H695 H 0.50794 0.53958 0.30998 0.0
S696 S 0.27878 0.58525 0.32986 0.0
N697 N 0.29375 0.54891 0.34291 0.0
N698 N 0.33755 0.59685 0.31365 0.0
C699 C 0.37252 0.57067 0.31828 0.0
C700 C 0.34891 0.54482 0.33426 0.0
C701 C 0.06001 0.98992 0.82721 0.0
C702 C 0.1158 0.98773 0.83812 0.0
C703 C 0.03805 0.96495 0.81082 0.0
C704 C 0.07096 0.93675 0.80489 0.0
H705 H 0.03362 0.0114 0.831 0.0
H706 H 0.99519 0.96805 0.80249 0.0
S707 S 0.21723 0.91791 0.83134 0.0
N708 N 0.20218 0.95467 0.84338 0.0
N709 N 0.16055 0.90713 0.81336 0.0
C710 C 0.12625 0.93393 0.81645 0.0
C711 C 0.14875 0.95957 0.83287 0.0
C712 C 0.18856 0.1431 0.06937 0.0
C713 C 0.21331 0.11816 0.05395 0.0
C714 C 0.18849 0.14093 0.09683 0.0
C715 C 0.21414 0.11405 0.10987 0.0
H716 H 0.16855 0.16426 0.06011 0.0
H717 H 0.16897 0.16065 0.10797 0.0
S718 S 0.28513 0.04246 0.07857 0.0
N719 N 0.26431 0.06585 0.05382 0.0
N720 N 0.26441 0.0619 0.10527 0.0
C721 C 0.23917 0.08906 0.09467 0.0
C722 C 0.23866 0.09107 0.06678 0.0
C723 C 0.34865 0.38595 0.56899 0.0
C724 C 0.29652 0.3792 0.55544 0.0
C725 C 0.34909 0.39163 0.59612 0.0
C726 C 0.2973 0.39118 0.61064 0.0
H727 H 0.38929 0.38761 0.55842 0.0
H728 H 0.38983 0.39796 0.60556 0.0
S729 S 0.1498 0.37289 0.58497 0.0
N730 N 0.19214 0.371 0.55902 0.0
N731 N 0.19311 0.38152 0.60984 0.0
C732 C 0.2453 0.38318 0.59754 0.0
C733 C 0.24487 0.3772 0.57002 0.0
C734 C 0.68338 0.32387 0.96973 0.0
C735 C 0.64759 0.34571 0.98365 0.0
C736 C 0.67295 0.31659 0.94333 0.0
C737 C 0.6267 0.3311 0.9297 0.0
H738 H 0.72014 0.31247 0.97926 0.0
H739 H 0.70171 0.29974 0.93342 0.0
S740 S 0.51802 0.38825 0.95712 0.0
N741 N 0.56205 0.38046 0.98185 0.0
N742 N 0.54357 0.36733 0.93205 0.0
C743 C 0.5905 0.35289 0.94324 0.0
C744 C 0.60069 0.36008 0.97022 0.0
C745 C 0.933 0.19027 0.47986 0.0
C746 C 0.88154 0.17327 0.48645 0.0
C747 C 0.94686 0.19711 0.45367 0.0
C748 C 0.90936 0.18749 0.4332 0.0
H749 H 0.9631 0.19789 0.49505 0.0
H750 H 0.98764 0.20955 0.44942 0.0
S751 S 0.76622 0.14537 0.4408 0.0
N752 N 0.79157 0.14853 0.47091 0.0
N753 N 0.81621 0.16232 0.42176 0.0
C754 C 0.85689 0.17127 0.43976 0.0
C755 C 0.84332 0.16394 0.46636 0.0
C756 C 0.82221 0.88978 0.96057 0.0
C757 C 0.82618 0.86166 0.97681 0.0
C758 C 0.82271 0.88691 0.9332 0.0
C759 C 0.82694 0.85583 0.92115 0.0
H760 H 0.81651 0.91405 0.96904 0.0
H761 H 0.81732 0.90898 0.92141 0.0
S762 S 0.8466 0.77524 0.95455 0.0
N763 N 0.84098 0.80218 0.9786 0.0
N764 N 0.84055 0.79686 0.92724 0.0
C765 C 0.83362 0.82777 0.93706 0.0
C766 C 0.83356 0.83066 0.96486 0.0
C767 C 0.64301 0.61743 0.46071 0.0
C768 C 0.69099 0.62872 0.47546 0.0
C769 C 0.64762 0.61174 0.43367 0.0
C770 C 0.7006 0.61671 0.42053 0.0
H771 H 0.60194 0.61229 0.47025 0.0
H772 H 0.61027 0.60198 0.42323 0.0
S773 S 0.83819 0.64763 0.44967 0.0
N774 N 0.79251 0.64582 0.47448 0.0
N775 N 0.80084 0.63533 0.42383 0.0
C776 C 0.74815 0.62914 0.43482 0.0
C777 C 0.74343 0.63511 0.46222 0.0
C778 C 0.33354 0.63219 0.06657 0.0
C779 C 0.35976 0.65216 0.0472 0.0
C780 C 0.33779 0.64056 0.09319 0.0
C781 C 0.36861 0.66901 0.10115 0.0
H782 H 0.30661 0.61121 0.06102 0.0
H783 H 0.31378 0.62598 0.1074 0.0
S784 S 0.45259 0.72626 0.05862 0.0
N785 N 0.42348 0.69914 0.03822 0.0
N786 N 0.43086 0.71493 0.0881 0.0
C787 C 0.39846 0.68765 0.08218 0.0
C788 C 0.39421 0.6792 0.05523 0.0
C789 C 0.08435 0.85522 0.5545 0.0
C790 C 0.14311 0.85541 0.54706 0.0
C791 C 0.06753 0.8467 0.58002 0.0
C792 C 0.10882 0.83831 0.59919 0.0
H793 H 0.05087 0.8604 0.54021 0.0
H794 H 0.02168 0.84605 0.58466 0.0
S795 S 0.26854 0.83765 0.59029 0.0
N796 N 0.24294 0.84868 0.56141 0.0
N797 N 0.21129 0.83225 0.60927 0.0
C798 C 0.16787 0.83976 0.59233 0.0
C799 C 0.18499 0.84832 0.5663 0.0
C800 C 0.12251 0.26053 0.31326 0.0
C801 C 0.13687 0.25273 0.33939 0.0
C802 C 0.0957 0.2372 0.2968 0.0
C803 C 0.08302 0.20512 0.30573 0.0
H804 H 0.13128 0.28506 0.30553 0.0
H805 H 0.08434 0.2444 0.27704 0.0
S806 S 0.10853 0.17221 0.37233 0.0
N807 N 0.13467 0.21038 0.37333 0.0
N808 N 0.08378 0.16691 0.34229 0.0
C809 C 0.09621 0.19698 0.3317 0.0
C810 C 0.12323 0.2207 0.34857 0.0
C811 C 0.35653 0.28134 0.84044 0.0
C812 C 0.38106 0.24985 0.84342 0.0
C813 C 0.38266 0.30541 0.82434 0.0
C814 C 0.43446 0.29897 0.81079 0.0
H815 H 0.31606 0.2871 0.85006 0.0
H816 H 0.36199 0.32923 0.82242 0.0
S817 S 0.51745 0.22097 0.81313 0.0
N818 N 0.46122 0.21396 0.83241 0.0
N819 N 0.51001 0.25911 0.80209 0.0
C820 C 0.46015 0.26791 0.81419 0.0
C821 C 0.43345 0.24335 0.83045 0.0
C822 C 0.62769 0.2851 0.68401 0.0
C823 C 0.65237 0.25687 0.69549 0.0
C824 C 0.59632 0.30769 0.69895 0.0
C825 C 0.58771 0.30279 0.72593 0.0
H826 H 0.63185 0.28956 0.6632 0.0
H827 H 0.57842 0.32912 0.6892 0.0
S828 S 0.64601 0.23374 0.76576 0.0
N829 N 0.66933 0.22645 0.73587 0.0
N830 N 0.6074 0.26777 0.7636 0.0
C831 C 0.61253 0.2748 0.73771 0.0
C832 C 0.64545 0.25213 0.7226 0.0
C833 C 0.85814 0.22219 0.18872 0.0
C834 C 0.85849 0.25569 0.19622 0.0
C835 C 0.88716 0.19829 0.20353 0.0
C836 C 0.91677 0.20691 0.22658 0.0
H837 H 0.83494 0.2143 0.17135 0.0
H838 H 0.88606 0.17281 0.197 0.0
S839 S 0.93484 0.29107 0.25394 0.0
N840 N 0.89446 0.29633 0.22756 0.0
N841 N 0.94708 0.25096 0.25582 0.0
C842 C 0.9176 0.2401 0.23441 0.0
C843 C 0.88892 0.2646 0.21912 0.0
C844 C 0.87953 0.78359 0.67822 0.0
C845 C 0.86946 0.75112 0.68739 0.0
C846 C 0.9075 0.80743 0.69385 0.0
C847 C 0.92651 0.79975 0.71927 0.0
H848 H 0.86645 0.7906 0.65864 0.0
H849 H 0.91412 0.8321 0.68597 0.0
S850 S 0.91283 0.71835 0.75245 0.0
N851 N 0.88045 0.71292 0.72397 0.0
N852 N 0.93606 0.75711 0.75249 0.0
C853 C 0.91744 0.7674 0.72862 0.0
C854 C 0.88828 0.74326 0.7129 0.0
C855 C 0.60201 0.76077 0.20699 0.0
C856 C 0.64511 0.75091 0.18924 0.0
C857 C 0.57099 0.73746 0.22198 0.0
C858 C 0.58262 0.7035 0.22002 0.0
H859 H 0.5921 0.78674 0.20927 0.0
H860 H 0.53881 0.74616 0.23568 0.0
S861 S 0.69023 0.66471 0.17625 0.0
N862 N 0.6973 0.70478 0.17048 0.0
N863 N 0.63876 0.66099 0.19852 0.0
C864 C 0.62512 0.69326 0.20222 0.0
C865 C 0.6564 0.71695 0.18684 0.0
C866 C 0.39726 0.75635 0.32219 0.0
C867 C 0.36538 0.74543 0.34409 0.0
C868 C 0.42955 0.73432 0.30722 0.0
C869 C 0.43143 0.70052 0.31363 0.0
H870 H 0.39696 0.78217 0.31645 0.0
H871 H 0.45276 0.74374 0.29031 0.0
S872 S 0.35672 0.65916 0.36896 0.0
N873 N 0.33813 0.6984 0.37144 0.0
N874 N 0.40026 0.65709 0.34342 0.0
C875 C 0.40143 0.68931 0.33582 0.0
C876 C 0.36797 0.71173 0.35102 0.0
C877 C 0.11643 0.74657 0.81542 0.0
C878 C 0.14202 0.75613 0.83933 0.0
C879 C 0.087 0.76934 0.7997 0.0
C880 C 0.08117 0.80238 0.8075 0.0
H881 H 0.11889 0.72119 0.80881 0.0
H882 H 0.06812 0.76093 0.78144 0.0
S883 S 0.14188 0.84072 0.86746 0.0
N884 N 0.16159 0.80161 0.8693 0.0
N885 N 0.10393 0.84399 0.84018 0.0
C886 C 0.10588 0.81235 0.83135 0.0
C887 C 0.13684 0.78933 0.84718 0.0
loop_
_geom_bond_atom_site_label_1
_geom_bond_atom_site_label_2
_geom_bond_distance
_geom_bond_site_symmetry_2
_ccdc_geom_bond_type
C0 C1 1.384 . S
C0 H13 0.947 . S
C0 C35 1.382 . S
C1 C0 1.384 . S
C1 C2 1.378 . S
C2 C1 1.378 . S
C2 C3 1.378 . S
C2 H14 0.952 . S
C3 C2 1.378 . S
C3 H15 0.950 . S
C3 C34 1.383 . S
H4 C23 0.947 . S
H5 C24 0.946 . S
H6 C26 0.953 . S
H7 C27 0.945 . S
H8 C29 0.952 . S
H9 C30 0.949 . S
H10 C32 0.950 . S
H11 C33 0.948 . S
H12 C35 0.951 . S
H13 C0 0.947 . S
H14 C2 0.952 . S
H15 C3 0.950 . S
N16 C19 1.382 . S
N16 C21 1.363 . S
N17 C19 1.371 . S
N17 C20 1.372 . S
N18 C20 1.361 . S
N18 C21 1.377 . S
C19 N16 1.382 . S
C19 N17 1.371 . S
C19 C22 1.480 . S
C20 N17 1.372 . S
C20 N18 1.361 . S
C20 C28 1.457 . S
C21 N16 1.363 . S
C21 N18 1.377 . S
C21 C34 1.479 . S
C22 C19 1.480 . S
C22 C23 1.383 . S
C22 C27 1.385 . S
C23 H4 0.947 . S
C23 C22 1.383 . S
C23 C24 1.388 . S
C24 H5 0.946 . S
C24 C23 1.388 . S
C24 C25 1.384 . S
C25 C24 1.384 . S
C25 C26 1.377 . S
C26 H6 0.953 . S
C26 C25 1.377 . S
C26 C27 1.369 . S
C27 H7 0.945 . S
C27 C22 1.385 . S
C27 C26 1.369 . S
C28 C20 1.457 . S
C28 C29 1.372 . S
C28 C33 1.364 . S
C29 H8 0.952 . S
C29 C28 1.372 . S
C29 C30 1.389 . S
C30 H9 0.949 . S
C30 C29 1.389 . S
C30 C31 1.387 . S
C31 C30 1.387 . S
C31 C32 1.372 . S
C32 H10 0.950 . S
C32 C31 1.372 . S
C32 C33 1.379 . S
C33 H11 0.948 . S
C33 C28 1.364 . S
C33 C32 1.379 . S
C34 C3 1.383 . S
C34 C21 1.479 . S
C34 C35 1.398 . S
C35 C0 1.382 . S
C35 H12 0.951 . S
C35 C34 1.398 . S
C36 C37 1.384 1_556 S
C36 H49 0.947 . S
C36 C71 1.382 . S
C37 C36 1.384 1_554 S
C37 C38 1.378 1_554 S
C38 C37 1.378 1_556 S
C38 C39 1.378 . S
C38 H50 0.948 1_556 S
C39 C38 1.378 . S
C39 H51 0.950 . S
C39 C70 1.383 . S
H40 C59 0.947 . S
H41 C60 0.946 . S
H42 C62 0.953 . S
H43 C63 0.945 . S
H44 C65 0.952 . S
H45 C66 0.949 . S
H46 C68 0.950 1_565 S
H47 C69 0.948 . S
H48 C71 0.951 . S
H49 C36 0.947 . S
H50 C38 0.948 1_554 S
H51 C39 0.950 . S
N52 C55 1.382 . S
N52 C57 1.363 . S
N53 C55 1.371 . S
N53 C56 1.372 . S
N54 C56 1.361 . S
N54 C57 1.377 . S
C55 N52 1.382 . S
C55 N53 1.371 . S
C55 C58 1.480 . S
C56 N53 1.372 . S
C56 N54 1.361 . S
C56 C64 1.457 . S
C57 N52 1.363 . S
C57 N54 1.377 . S
C57 C70 1.479 . S
C58 C55 1.480 . S
C58 C59 1.383 . S
C58 C63 1.385 . S
C59 H40 0.947 . S
C59 C58 1.383 . S
C59 C60 1.388 . S
C60 H41 0.946 . S
C60 C59 1.388 . S
C60 C61 1.384 . S
C61 C60 1.384 . S
C61 C62 1.377 . S
C62 H42 0.953 . S
C62 C61 1.377 . S
C62 C63 1.369 . S
C63 H43 0.945 . S
C63 C58 1.385 . S
C63 C62 1.369 . S
C64 C56 1.457 . S
C64 C65 1.372 . S
C64 C69 1.364 . S
C65 H44 0.952 . S
C65 C64 1.372 . S
C65 C66 1.389 . S
C66 H45 0.949 . S
C66 C65 1.389 . S
C66 C67 1.387 . S
C67 C66 1.387 . S
C67 C68 1.372 . S
C68 H46 0.950 1_545 S
C68 C67 1.372 . S
C68 C69 1.379 . S
C69 H47 0.948 . S
C69 C64 1.364 . S
C69 C68 1.379 . S
C70 C39 1.383 . S
C70 C57 1.479 . S
C70 C71 1.398 . S
C71 C36 1.382 . S
C71 H48 0.951 . S
C71 C70 1.398 . S
C72 C73 1.384 . S
C72 H85 0.947 . S
C72 C107 1.382 . S
C73 C72 1.384 . S
C73 C74 1.378 . S
C74 C73 1.378 . S
C74 C75 1.378 . S
C74 H86 0.952 . S
C75 C74 1.378 . S
C75 H87 0.950 . S
C75 C106 1.383 . S
H76 C95 0.947 . S
H77 C96 0.946 . S
H78 C98 0.953 . S
H79 C99 0.945 . S
H80 C101 0.952 . S
H81 C102 0.949 . S
H82 C104 0.950 1_565 S
H83 C105 0.948 . S
H84 C107 0.951 . S
H85 C72 0.947 . S
H86 C74 0.952 . S
H87 C75 0.950 . S
N88 C91 1.382 . S
N88 C93 1.363 . S
N89 C91 1.371 . S
N89 C92 1.372 . S
N90 C92 1.361 . S
N90 C93 1.377 . S
C91 N88 1.382 . S
C91 N89 1.371 . S
C91 C94 1.480 . S
C92 N89 1.372 . S
C92 N90 1.361 . S
C92 C100 1.457 . S
C93 N88 1.363 . S
C93 N90 1.377 . S
C93 C106 1.479 . S
C94 C91 1.480 . S
C94 C95 1.383 . S
C94 C99 1.385 . S
C95 H76 0.947 . S
C95 C94 1.383 . S
C95 C96 1.388 . S
C96 H77 0.946 . S
C96 C95 1.388 . S
C96 C97 1.384 . S
C97 C96 1.384 . S
C97 C98 1.377 . S
C98 H78 0.953 . S
C98 C97 1.377 . S
C98 C99 1.369 . S
C99 H79 0.945 . S
C99 C94 1.385 . S
C99 C98 1.369 . S
C100 C92 1.457 . S
C100 C101 1.372 . S
C100 C105 1.364 . S
C101 H80 0.952 . S
C101 C100 1.372 . S
C101 C102 1.389 . S
C102 H81 0.949 . S
C102 C101 1.389 . S
C102 C103 1.387 . S
C103 C102 1.387 . S
C103 C104 1.372 . S
C104 H82 0.950 1_545 S
C104 C103 1.372 . S
C104 C105 1.379 . S
C105 H83 0.948 . S
C105 C100 1.364 . S
C105 C104 1.379 . S
C106 C75 1.383 . S
C106 C93 1.479 . S
C106 C107 1.398 . S
C107 C72 1.382 . S
C107 H84 0.951 . S
C107 C106 1.398 . S
C108 C109 1.386 . S
C108 H121 0.947 . S
C108 C143 1.382 . S
C109 C108 1.386 . S
C109 C110 1.380 . S
C110 C109 1.380 . S
C110 C111 1.378 . S
C110 H122 0.952 . S
C111 C110 1.378 . S
C111 H123 0.950 . S
C111 C142 1.383 . S
H112 C131 0.947 . S
H113 C132 0.946 . S
H114 C134 0.953 . S
H115 C135 0.945 . S
H116 C137 0.952 . S
H117 C138 0.949 . S
H118 C140 0.950 . S
H119 C141 0.948 . S
H120 C143 0.951 . S
H121 C108 0.947 . S
H122 C110 0.952 . S
H123 C111 0.950 . S
N124 C127 1.382 . S
N124 C129 1.363 . S
N125 C127 1.371 . S
N125 C128 1.372 . S
N126 C128 1.361 . S
N126 C129 1.377 . S
C127 N124 1.382 . S
C127 N125 1.371 . S
C127 C130 1.480 . S
C128 N125 1.372 . S
C128 N126 1.361 . S
C128 C136 1.457 . S
C129 N124 1.363 . S
C129 N126 1.377 . S
C129 C142 1.479 . S
C130 C127 1.480 . S
C130 C131 1.383 . S
C130 C135 1.385 . S
C131 H112 0.947 . S
C131 C130 1.383 . S
C131 C132 1.388 . S
C132 H113 0.946 . S
C132 C131 1.388 . S
C132 C133 1.384 . S
C133 C132 1.384 . S
C133 C134 1.377 . S
C134 H114 0.953 . S
C134 C133 1.377 . S
C134 C135 1.369 . S
C135 H115 0.945 . S
C135 C130 1.385 . S
C135 C134 1.369 . S
C136 C128 1.457 . S
C136 C137 1.372 . S
C136 C141 1.364 . S
C137 H116 0.952 . S
C137 C136 1.372 . S
C137 C138 1.389 . S
C138 H117 0.949 . S
C138 C137 1.389 . S
C138 C139 1.387 . S
C139 C138 1.387 . S
C139 C140 1.372 . S
C140 H118 0.950 . S
C140 C139 1.372 . S
C140 C141 1.379 . S
C141 H119 0.948 . S
C141 C136 1.364 . S
C141 C140 1.379 . S
C142 C111 1.383 . S
C142 C129 1.479 . S
C142 C143 1.398 . S
C143 C108 1.382 . S
C143 H120 0.951 . S
C143 C142 1.398 . S
C144 C145 1.384 . S
C144 H157 0.947 . S
C144 C179 1.382 . S
C145 C144 1.384 . S
C145 C146 1.378 . S
C146 C145 1.378 . S
C146 C147 1.378 . S
C146 H158 0.952 . S
C147 C146 1.378 . S
C147 H159 0.950 . S
C147 C178 1.383 . S
H148 C167 0.947 . S
H149 C168 0.946 . S
H150 C170 0.953 . S
H151 C171 0.945 . S
H152 C173 0.952 . S
H153 C174 0.949 . S
H154 C176 0.950 . S
H155 C177 0.948 . S
H156 C179 0.951 . S
H157 C144 0.947 . S
H158 C146 0.952 . S
H159 C147 0.950 . S
N160 C163 1.382 . S
N160 C165 1.363 . S
N161 C163 1.371 . S
N161 C164 1.372 . S
N162 C164 1.361 . S
N162 C165 1.377 . S
C163 N160 1.382 . S
C163 N161 1.371 . S
C163 C166 1.480 . S
C164 N161 1.372 . S
C164 N162 1.361 . S
C164 C172 1.457 . S
C165 N160 1.363 . S
C165 N162 1.377 . S
C165 C178 1.479 . S
C166 C163 1.480 . S
C166 C167 1.383 . S
C166 C171 1.385 . S
C167 H148 0.947 . S
C167 C166 1.383 . S
C167 C168 1.388 . S
C168 H149 0.946 . S
C168 C167 1.388 . S
C168 C169 1.384 . S
C169 C168 1.384 . S
C169 C170 1.377 . S
C170 H150 0.953 . S
C170 C169 1.377 . S
C170 C171 1.369 . S
C171 H151 0.945 . S
C171 C166 1.385 . S
C171 C170 1.369 . S
C172 C164 1.457 . S
C172 C173 1.372 . S
C172 C177 1.364 . S
C173 H152 0.952 . S
C173 C172 1.372 . S
C173 C174 1.389 . S
C174 H153 0.949 . S
C174 C173 1.389 . S
C174 C175 1.387 . S
C175 C174 1.387 . S
C175 C176 1.372 . S
C176 H154 0.950 . S
C176 C175 1.372 . S
C176 C177 1.379 . S
C177 H155 0.948 . S
C177 C172 1.364 . S
C177 C176 1.379 . S
C178 C147 1.383 . S
C178 C165 1.479 . S
C178 C179 1.398 . S
C179 C144 1.382 . S
C179 H156 0.951 . S
C179 C178 1.398 . S
C180 C181 1.384 1_554 S
C180 H193 0.947 . S
C180 C215 1.382 . S
C181 C180 1.384 1_556 S
C181 C182 1.378 1_556 S
C182 C181 1.378 1_554 S
C182 C183 1.378 . S
C182 H194 0.952 1_554 S
C183 C182 1.378 . S
C183 H195 0.950 . S
C183 C214 1.383 . S
H184 C203 0.947 . S
H185 C204 0.946 . S
H186 C206 0.953 . S
H187 C207 0.945 . S
H188 C209 0.952 . S
H189 C210 0.949 . S
H190 C212 0.950 1_545 S
H191 C213 0.948 . S
H192 C215 0.951 . S
H193 C180 0.947 . S
H194 C182 0.952 1_556 S
H195 C183 0.950 . S
N196 C199 1.382 . S
N196 C201 1.363 . S
N197 C199 1.371 . S
N197 C200 1.372 . S
N198 C200 1.361 . S
N198 C201 1.377 . S
C199 N196 1.382 . S
C199 N197 1.371 . S
C199 C202 1.480 . S
C200 N197 1.372 . S
C200 N198 1.361 . S
C200 C208 1.457 . S
C201 N196 1.363 . S
C201 N198 1.377 . S
C201 C214 1.479 . S
C202 C199 1.480 . S
C202 C203 1.383 . S
C202 C207 1.385 . S
C203 H184 0.947 . S
C203 C202 1.383 . S
C203 C204 1.388 . S
C204 H185 0.946 . S
C204 C203 1.388 . S
C204 C205 1.384 . S
C205 C204 1.384 . S
C205 C206 1.377 . S
C206 H186 0.953 . S
C206 C205 1.377 . S
C206 C207 1.369 . S
C207 H187 0.945 . S
C207 C202 1.385 . S
C207 C206 1.369 . S
C208 C200 1.457 . S
C208 C209 1.372 . S
C208 C213 1.364 . S
C209 H188 0.952 . S
C209 C208 1.372 . S
C209 C210 1.389 . S
C210 H189 0.949 . S
C210 C209 1.389 . S
C210 C211 1.387 . S
C211 C210 1.387 . S
C211 C212 1.372 . S
C212 H190 0.950 1_565 S
C212 C211 1.372 . S
C212 C213 1.379 . S
C213 H191 0.948 . S
C213 C208 1.364 . S
C213 C212 1.379 . S
C214 C183 1.383 . S
C214 C201 1.479 . S
C214 C215 1.398 . S
C215 C180 1.382 . S
C215 H192 0.951 . S
C215 C214 1.398 . S
C216 C217 1.384 . S
C216 H229 0.947 . S
C216 C251 1.382 . S
C217 C216 1.384 . S
C217 C218 1.378 . S
C218 C217 1.378 . S
C218 C219 1.378 . S
C218 H230 0.952 . S
C219 C218 1.378 . S
C219 H231 0.950 . S
C219 C250 1.383 . S
H220 C239 0.947 . S
H221 C240 0.946 . S
H222 C242 0.953 . S
H223 C243 0.945 . S
H224 C245 0.952 . S
H225 C246 0.949 . S
H226 C248 0.950 1_545 S
H227 C249 0.948 . S
H228 C251 0.951 . S
H229 C216 0.947 . S
H230 C218 0.952 . S
H231 C219 0.950 . S
N232 C235 1.382 . S
N232 C237 1.363 . S
N233 C235 1.371 . S
N233 C236 1.372 . S
N234 C236 1.361 . S
N234 C237 1.377 . S
C235 N232 1.382 . S
C235 N233 1.371 . S
C235 C238 1.480 . S
C236 N233 1.372 . S
C236 N234 1.361 . S
C236 C244 1.457 . S
C237 N232 1.363 . S
C237 N234 1.377 . S
C237 C250 1.479 . S
C238 C235 1.480 . S
C238 C239 1.383 . S
C238 C243 1.385 . S
C239 H220 0.947 . S
C239 C238 1.383 . S
C239 C240 1.388 . S
C240 H221 0.946 . S
C240 C239 1.388 . S
C240 C241 1.384 . S
C241 C240 1.384 . S
C241 C242 1.377 . S
C242 H222 0.953 . S
C242 C241 1.377 . S
C242 C243 1.369 . S
C243 H223 0.945 . S
C243 C238 1.385 . S
C243 C242 1.369 . S
C244 C236 1.457 . S
C244 C245 1.372 . S
C244 C249 1.364 . S
C245 H224 0.952 . S
C245 C244 1.372 . S
C245 C246 1.389 . S
C246 H225 0.949 . S
C246 C245 1.389 . S
C246 C247 1.387 . S
C247 C246 1.387 . S
C247 C248 1.372 . S
C248 H226 0.950 1_565 S
C248 C247 1.372 . S
C248 C249 1.379 . S
C249 H227 0.948 . S
C249 C244 1.364 . S
C249 C248 1.379 . S
C250 C219 1.383 . S
C250 C237 1.479 . S
C250 C251 1.398 . S
C251 C216 1.382 . S
C251 H228 0.951 . S
C251 C250 1.398 . S
C252 C253 1.373 1_556 S
C252 H265 0.947 . S
C252 C287 1.382 . S
C253 C252 1.373 1_554 S
C253 C254 1.370 1_554 S
C254 C253 1.370 1_556 S
C254 C255 1.378 . S
C254 H266 0.952 . S
C255 C254 1.378 . S
C255 H267 0.950 . S
C255 C286 1.383 . S
H256 C275 0.947 . S
H257 C276 0.946 . S
H258 C278 0.953 . S
H259 C279 0.945 . S
H260 C281 0.952 . S
H261 C282 0.949 . S
H262 C284 0.950 . S
H263 C285 0.948 . S
H264 C287 0.951 . S
H265 C252 0.947 . S
H266 C254 0.952 . S
H267 C255 0.950 . S
N268 C271 1.382 . S
N268 C273 1.363 . S
N269 C271 1.371 . S
N269 C272 1.372 . S
N270 C272 1.361 . S
N270 C273 1.377 . S
C271 N268 1.382 . S
C271 N269 1.371 . S
C271 C274 1.480 . S
C272 N269 1.372 . S
C272 N270 1.361 . S
C272 C280 1.457 . S
C273 N268 1.363 . S
C273 N270 1.377 . S
C273 C286 1.479 . S
C274 C271 1.480 . S
C274 C275 1.383 . S
C274 C279 1.385 . S
C275 H256 0.947 . S
C275 C274 1.383 . S
C275 C276 1.388 . S
C276 H257 0.946 . S
C276 C275 1.388 . S
C276 C277 1.384 . S
C277 C276 1.384 . S
C277 C278 1.377 . S
C278 H258 0.953 . S
C278 C277 1.377 . S
C278 C279 1.369 . S
C279 H259 0.945 . S
C279 C274 1.385 . S
C279 C278 1.369 . S
C280 C272 1.457 . S
C280 C281 1.372 . S
C280 C285 1.364 . S
C281 H260 0.952 . S
C281 C280 1.372 . S
C281 C282 1.389 . S
C282 H261 0.949 . S
C282 C281 1.389 . S
C282 C283 1.387 . S
C283 C282 1.387 . S
C283 C284 1.372 . S
C284 H262 0.950 . S
C284 C283 1.372 . S
C284 C285 1.379 . S
C285 H263 0.948 . S
C285 C280 1.364 . S
C285 C284 1.379 . S
C286 C255 1.383 . S
C286 C273 1.479 . S
C286 C287 1.398 . S
C287 C252 1.382 . S
C287 H264 0.951 . S
C287 C286 1.398 . S
Tb288 N317 2.617 . S
Tb288 N323 2.572 . S
Tb288 O332 2.465 . S
Tb288 O333 2.387 . S
Tb288 O335 2.428 . S
Tb288 O336 2.308 1_455 S
Tb288 O340 2.349 . S
Tb288 O343 2.393 . S
Tb288 C352 2.802 . S
C289 N290 1.379 . S
C289 C292 1.416 . S
C289 C296 1.424 . S
N290 C289 1.379 . S
N290 C293 1.334 . S
N290 Tb299 2.617 . S
C291 C293 1.390 . S
C291 C294 1.339 . S
C291 H311 0.930 . S
C292 C289 1.416 . S
C292 C294 1.416 . S
C292 C298 1.448 . S
C293 N290 1.334 . S
C293 C291 1.390 . S
C293 H304 0.930 . S
C294 C291 1.339 . S
C294 C292 1.416 . S
C294 H315 0.930 . S
C295 C296 1.413 . S
C295 C297 1.427 . S
C295 C301 1.416 . S
C296 C289 1.424 . S
C296 C295 1.413 . S
C296 N300 1.361 . S
C297 C295 1.427 . S
C297 C298 1.328 . S
C297 H312 0.929 . S
C298 C292 1.448 . S
C298 C297 1.328 . S
C298 H313 0.930 . S
Tb299 N290 2.617 . S
Tb299 N300 2.572 . S
Tb299 O334 2.349 1_655 S
Tb299 O337 2.393 . S
Tb299 O338 2.465 . S
Tb299 O339 2.387 . S
Tb299 O341 2.428 . S
Tb299 O342 2.308 1_655 S
Tb299 C363 2.802 . S
N300 C296 1.361 . S
N300 Tb299 2.572 . S
N300 C302 1.340 . S
C301 C295 1.416 . S
C301 C303 1.332 . S
C301 H309 0.931 . S
C302 N300 1.340 . S
C302 C303 1.407 . S
C302 H308 0.930 . S
C303 C301 1.332 . S
C303 C302 1.407 . S
C303 H305 0.929 . S
H304 C293 0.930 . S
H305 C303 0.929 . S
H306 C321 0.930 . S
H307 C328 0.929 . S
H308 C302 0.930 . S
H309 C301 0.931 . S
H310 C324 0.930 . S
H311 C291 0.930 . S
H312 C297 0.929 . S
H313 C298 0.930 . S
H314 C319 0.930 . S
H315 C294 0.930 . S
H316 C327 0.931 . S
N317 Tb288 2.617 . S
N317 C318 1.379 . S
N317 C321 1.334 . S
C318 N317 1.379 . S
C318 C320 1.416 . S
C318 C326 1.424 . S
C319 H314 0.930 . S
C319 C321 1.390 . S
C319 C322 1.339 . S
C320 C318 1.416 . S
C320 C322 1.416 . S
C320 C353 1.448 . S
C321 H306 0.930 . S
C321 N317 1.334 . S
C321 C319 1.390 . S
C322 C319 1.339 . S
C322 C320 1.416 . S
C322 H329 0.930 . S
N323 Tb288 2.572 . S
N323 C324 1.340 . S
N323 C326 1.361 . S
C324 H310 0.930 . S
C324 N323 1.340 . S
C324 C328 1.407 . S
C325 C326 1.413 . S
C325 C327 1.416 . S
C325 C354 1.427 . S
C326 C318 1.424 . S
C326 N323 1.361 . S
C326 C325 1.413 . S
C327 H316 0.931 . S
C327 C325 1.416 . S
C327 C328 1.332 . S
C328 H307 0.929 . S
C328 C324 1.407 . S
C328 C327 1.332 . S
H329 C322 0.930 . S
H330 C353 0.930 . S
H331 C354 0.929 . S
O332 Tb288 2.465 . S
O332 C352 1.264 . S
O333 Tb288 2.387 . S
O333 C344 1.264 . S
O334 Tb299 2.349 1_455 S
O334 C344 1.243 . S
O335 Tb288 2.428 . S
O335 C352 1.256 . S
O336 Tb288 2.308 1_655 S
O336 C351 1.266 . S
O337 Tb299 2.393 . S
O337 C351 1.248 . S
O338 Tb299 2.465 . S
O338 C363 1.264 . S
O339 Tb299 2.387 . S
O339 C355 1.264 . S
O340 Tb288 2.349 . S
O340 C355 1.243 1_455 S
O341 Tb299 2.428 . S
O341 C363 1.256 . S
O342 Tb299 2.308 1_455 S
O342 C362 1.266 . S
O343 Tb288 2.393 . S
O343 C362 1.248 . S
C344 O333 1.264 . S
C344 O334 1.243 . S
C345 C348 1.399 . S
C345 C350 1.383 . S
C345 C352 1.496 . S
C346 C347 1.399 . S
C346 C350 1.389 . S
C347 C346 1.399 . S
C347 C349 1.380 . S
C347 H364 0.929 . S
C348 C345 1.399 . S
C348 C349 1.392 . S
C348 H365 0.929 . S
C349 C347 1.380 . S
C349 C348 1.392 . S
C349 H366 0.929 . S
C350 C345 1.383 . S
C350 C346 1.389 . S
C350 H367 0.931 . S
C351 O336 1.266 . S
C351 O337 1.248 . S
C352 Tb288 2.802 . S
C352 O332 1.264 . S
C352 O335 1.256 . S
C352 C345 1.496 . S
C353 C320 1.448 . S
C353 H330 0.930 . S
C353 C354 1.328 . S
C354 C325 1.427 . S
C354 H331 0.929 . S
C354 C353 1.328 . S
C355 O339 1.264 . S
C355 O340 1.243 1_655 S
C356 C359 1.399 . S
C356 C360 1.383 . S
C356 C363 1.496 . S
C357 C358 1.399 . S
C357 C360 1.389 . S
C358 C357 1.399 . S
C358 C361 1.380 . S
C358 H368 0.929 . S
C359 C356 1.399 . S
C359 C361 1.392 . S
C359 H369 0.929 . S
C360 C356 1.383 . S
C360 C357 1.389 . S
C360 H370 0.931 . S
C361 C358 1.380 . S
C361 C359 1.392 . S
C361 H371 0.929 . S
C362 O342 1.266 . S
C362 O343 1.248 . S
C363 Tb299 2.802 . S
C363 O338 1.264 . S
C363 O341 1.256 . S
C363 C356 1.496 . S
H364 C347 0.929 . S
H365 C348 0.929 . S
H366 C349 0.929 . S
H367 C350 0.931 . S
H368 C358 0.929 . S
H369 C359 0.929 . S
H370 C360 0.931 . S
H371 C361 0.929 . S
Tb372 N401 2.617 . S
Tb372 N407 2.572 . S
Tb372 O416 2.465 . S
Tb372 O417 2.387 . S
Tb372 O419 2.428 . S
Tb372 O420 2.308 . S
Tb372 O424 2.349 . S
Tb372 O427 2.393 . S
Tb372 C436 2.802 . S
C373 N374 1.379 . S
C373 C376 1.416 . S
C373 C380 1.424 . S
N374 C373 1.379 . S
N374 C377 1.334 . S
N374 Tb383 2.617 . S
C375 C377 1.390 . S
C375 C378 1.339 . S
C375 H395 0.930 . S
C376 C373 1.416 . S
C376 C378 1.416 . S
C376 C382 1.448 . S
C377 N374 1.334 . S
C377 C375 1.390 . S
C377 H388 0.930 . S
C378 C375 1.339 . S
C378 C376 1.416 . S
C378 H399 0.930 . S
C379 C380 1.413 . S
C379 C381 1.427 . S
C379 C385 1.416 . S
C380 C373 1.424 . S
C380 C379 1.413 . S
C380 N384 1.361 . S
C381 C379 1.427 . S
C381 C382 1.328 . S
C381 H396 0.929 . S
C382 C376 1.448 . S
C382 C381 1.328 . S
C382 H397 0.930 . S
Tb383 N374 2.617 . S
Tb383 N384 2.572 . S
Tb383 O418 2.349 . S
Tb383 O421 2.393 . S
Tb383 O422 2.465 . S
Tb383 O423 2.387 . S
Tb383 O425 2.428 . S
Tb383 O426 2.308 . S
Tb383 C447 2.802 . S
N384 C380 1.361 . S
N384 Tb383 2.572 . S
N384 C386 1.340 . S
C385 C379 1.416 . S
C385 C387 1.332 . S
C385 H393 0.931 . S
C386 N384 1.340 . S
C386 C387 1.407 . S
C386 H392 0.930 . S
C387 C385 1.332 . S
C387 C386 1.407 . S
C387 H389 0.929 . S
H388 C377 0.930 . S
H389 C387 0.929 . S
H390 C405 0.930 . S
H391 C412 0.929 . S
H392 C386 0.930 . S
H393 C385 0.931 . S
H394 C408 0.930 . S
H395 C375 0.930 . S
H396 C381 0.929 . S
H397 C382 0.930 . S
H398 C403 0.930 . S
H399 C378 0.930 . S
H400 C411 0.931 . S
N401 Tb372 2.617 . S
N401 C402 1.379 . S
N401 C405 1.334 . S
C402 N401 1.379 . S
C402 C404 1.416 . S
C402 C410 1.424 . S
C403 H398 0.930 . S
C403 C405 1.390 . S
C403 C406 1.339 . S
C404 C402 1.416 . S
C404 C406 1.416 . S
C404 C437 1.448 . S
C405 H390 0.930 . S
C405 N401 1.334 . S
C405 C403 1.390 . S
C406 C403 1.339 . S
C406 C404 1.416 . S
C406 H413 0.930 . S
N407 Tb372 2.572 . S
N407 C408 1.340 . S
N407 C410 1.361 . S
C408 H394 0.930 . S
C408 N407 1.340 . S
C408 C412 1.407 . S
C409 C410 1.413 . S
C409 C411 1.416 . S
C409 C438 1.427 . S
C410 C402 1.424 . S
C410 N407 1.361 . S
C410 C409 1.413 . S
C411 H400 0.931 . S
C411 C409 1.416 . S
C411 C412 1.332 . S
C412 H391 0.929 . S
C412 C408 1.407 . S
C412 C411 1.332 . S
H413 C406 0.930 . S
H414 C437 0.930 . S
H415 C438 0.929 . S
O416 Tb372 2.465 . S
O416 C436 1.264 . S
O417 Tb372 2.387 . S
O417 C428 1.264 . S
O418 Tb383 2.349 . S
O418 C428 1.243 . S
O419 Tb372 2.428 . S
O419 C436 1.256 . S
O420 Tb372 2.308 . S
O420 C435 1.266 . S
O421 Tb383 2.393 . S
O421 C435 1.248 . S
O422 Tb383 2.465 . S
O422 C447 1.264 . S
O423 Tb383 2.387 . S
O423 C439 1.264 . S
O424 Tb372 2.349 . S
O424 C439 1.243 . S
O425 Tb383 2.428 . S
O425 C447 1.256 . S
O426 Tb383 2.308 . S
O426 C446 1.266 . S
O427 Tb372 2.393 . S
O427 C446 1.248 . S
C428 O417 1.264 . S
C428 O418 1.243 . S
C429 C432 1.399 . S
C429 C434 1.383 . S
C429 C436 1.496 . S
C430 C431 1.399 . S
C430 C434 1.389 . S
C431 C430 1.399 . S
C431 C433 1.380 . S
C431 H448 0.929 . S
C432 C429 1.399 . S
C432 C433 1.392 . S
C432 H449 0.929 . S
C433 C431 1.380 . S
C433 C432 1.392 . S
C433 H450 0.929 . S
C434 C429 1.383 . S
C434 C430 1.389 . S
C434 H451 0.931 . S
C435 O420 1.266 . S
C435 O421 1.248 . S
C436 Tb372 2.802 . S
C436 O416 1.264 . S
C436 O419 1.256 . S
C436 C429 1.496 . S
C437 C404 1.448 . S
C437 H414 0.930 . S
C437 C438 1.328 . S
C438 C409 1.427 . S
C438 H415 0.929 . S
C438 C437 1.328 . S
C439 O423 1.264 . S
C439 O424 1.243 . S
C440 C443 1.399 . S
C440 C444 1.383 . S
C440 C447 1.496 . S
C441 C442 1.399 . S
C441 C444 1.389 . S
C442 C441 1.399 . S
C442 C445 1.380 . S
C442 H452 0.929 . S
C443 C440 1.399 . S
C443 C445 1.392 . S
C443 H453 0.929 . S
C444 C440 1.383 . S
C444 C441 1.389 . S
C444 H454 0.931 . S
C445 C442 1.380 . S
C445 C443 1.392 . S
C445 H455 0.929 . S
C446 O426 1.266 . S
C446 O427 1.248 . S
C447 Tb383 2.802 . S
C447 O422 1.264 . S
C447 O425 1.256 . S
C447 C440 1.496 . S
H448 C431 0.929 . S
H449 C432 0.929 . S
H450 C433 0.929 . S
H451 C434 0.931 . S
H452 C442 0.929 . S
H453 C443 0.929 . S
H454 C444 0.931 . S
H455 C445 0.929 . S
Tb456 N485 2.617 . S
Tb456 N491 2.572 . S
Tb456 O500 2.465 . S
Tb456 O501 2.387 . S
Tb456 O503 2.428 . S
Tb456 O504 2.308 . S
Tb456 O508 2.349 . S
Tb456 O511 2.393 . S
Tb456 C520 2.802 . S
C457 N458 1.379 . S
C457 C460 1.416 . S
C457 C464 1.424 . S
N458 C457 1.379 . S
N458 C461 1.334 . S
N458 Tb467 2.617 . S
C459 C461 1.390 . S
C459 C462 1.339 . S
C459 H479 0.930 . S
C460 C457 1.416 . S
C460 C462 1.416 . S
C460 C466 1.448 . S
C461 N458 1.334 . S
C461 C459 1.390 . S
C461 H472 0.930 . S
C462 C459 1.339 . S
C462 C460 1.416 . S
C462 H483 0.930 . S
C463 C464 1.413 . S
C463 C465 1.427 . S
C463 C469 1.416 . S
C464 C457 1.424 . S
C464 C463 1.413 . S
C464 N468 1.361 . S
C465 C463 1.427 . S
C465 C466 1.328 . S
C465 H480 0.929 . S
C466 C460 1.448 . S
C466 C465 1.328 . S
C466 H481 0.930 . S
Tb467 N458 2.617 . S
Tb467 N468 2.572 . S
Tb467 O502 2.349 1_655 S
Tb467 O505 2.393 . S
Tb467 O506 2.465 . S
Tb467 O507 2.387 . S
Tb467 O509 2.428 . S
Tb467 O510 2.308 1_655 S
Tb467 C531 2.802 . S
N468 C464 1.361 . S
N468 Tb467 2.572 . S
N468 C470 1.340 . S
C469 C463 1.416 . S
C469 C471 1.332 . S
C469 H477 0.931 . S
C470 N468 1.340 . S
C470 C471 1.407 . S
C470 H476 0.930 . S
C471 C469 1.332 . S
C471 C470 1.407 . S
C471 H473 0.929 . S
H472 C461 0.930 . S
H473 C471 0.929 . S
H474 C489 0.930 . S
H475 C496 0.929 . S
H476 C470 0.930 . S
H477 C469 0.931 . S
H478 C492 0.930 . S
H479 C459 0.930 . S
H480 C465 0.929 . S
H481 C466 0.930 . S
H482 C487 0.930 . S
H483 C462 0.930 . S
H484 C495 0.931 . S
N485 Tb456 2.617 . S
N485 C486 1.379 . S
N485 C489 1.334 . S
C486 N485 1.379 . S
C486 C488 1.416 . S
C486 C494 1.424 . S
C487 H482 0.930 . S
C487 C489 1.390 . S
C487 C490 1.339 . S
C488 C486 1.416 . S
C488 C490 1.416 . S
C488 C521 1.448 . S
C489 H474 0.930 . S
C489 N485 1.334 . S
C489 C487 1.390 . S
C490 C487 1.339 . S
C490 C488 1.416 . S
C490 H497 0.930 . S
N491 Tb456 2.572 . S
N491 C492 1.340 . S
N491 C494 1.361 . S
C492 H478 0.930 . S
C492 N491 1.340 . S
C492 C496 1.407 . S
C493 C494 1.413 . S
C493 C495 1.416 . S
C493 C522 1.427 . S
C494 C486 1.424 . S
C494 N491 1.361 . S
C494 C493 1.413 . S
C495 H484 0.931 . S
C495 C493 1.416 . S
C495 C496 1.332 . S
C496 H475 0.929 . S
C496 C492 1.407 . S
C496 C495 1.332 . S
H497 C490 0.930 . S
H498 C521 0.930 . S
H499 C522 0.929 . S
O500 Tb456 2.465 . S
O500 C520 1.264 . S
O501 Tb456 2.387 . S
O501 C512 1.264 . S
O502 Tb467 2.349 1_455 S
O502 C512 1.243 . S
O503 Tb456 2.428 . S
O503 C520 1.256 . S
O504 Tb456 2.308 . S
O504 C519 1.266 1_455 S
O505 Tb467 2.393 . S
O505 C519 1.248 . S
O506 Tb467 2.465 . S
O506 C531 1.264 . S
O507 Tb467 2.387 . S
O507 C523 1.264 . S
O508 Tb456 2.349 . S
O508 C523 1.243 1_455 S
O509 Tb467 2.428 . S
O509 C531 1.256 . S
O510 Tb467 2.308 1_455 S
O510 C530 1.266 . S
O511 Tb456 2.393 . S
O511 C530 1.248 . S
C512 O501 1.264 . S
C512 O502 1.243 . S
C513 C516 1.399 . S
C513 C518 1.383 . S
C513 C520 1.496 . S
C514 C515 1.399 . S
C514 C518 1.389 . S
C515 C514 1.399 . S
C515 C517 1.380 . S
C515 H532 0.929 . S
C516 C513 1.399 . S
C516 C517 1.392 . S
C516 H533 0.929 . S
C517 C515 1.380 . S
C517 C516 1.392 . S
C517 H534 0.929 . S
C518 C513 1.383 . S
C518 C514 1.389 . S
C518 H535 0.931 . S
C519 O504 1.266 1_655 S
C519 O505 1.248 . S
C520 Tb456 2.802 . S
C520 O500 1.264 . S
C520 O503 1.256 . S
C520 C513 1.496 . S
C521 C488 1.448 . S
C521 H498 0.930 . S
C521 C522 1.328 . S
C522 C493 1.427 . S
C522 H499 0.929 . S
C522 C521 1.328 . S
C523 O507 1.264 . S
C523 O508 1.243 1_655 S
C524 C527 1.399 . S
C524 C528 1.383 . S
C524 C531 1.496 . S
C525 C526 1.399 . S
C525 C528 1.389 . S
C526 C525 1.399 . S
C526 C529 1.380 . S
C526 H536 0.929 . S
C527 C524 1.399 . S
C527 C529 1.392 . S
C527 H537 0.929 . S
C528 C524 1.383 . S
C528 C525 1.389 . S
C528 H538 0.931 . S
C529 C526 1.380 . S
C529 C527 1.392 . S
C529 H539 0.929 . S
C530 O510 1.266 . S
C530 O511 1.248 . S
C531 Tb467 2.802 . S
C531 O506 1.264 . S
C531 O509 1.256 . S
C531 C524 1.496 . S
H532 C515 0.929 . S
H533 C516 0.929 . S
H534 C517 0.929 . S
H535 C518 0.931 . S
H536 C526 0.929 . S
H537 C527 0.929 . S
H538 C528 0.931 . S
H539 C529 0.929 . S
Tb540 N569 2.617 . S
Tb540 N575 2.572 . S
Tb540 O584 2.465 . S
Tb540 O585 2.387 . S
Tb540 O587 2.428 . S
Tb540 O588 2.308 . S
Tb540 O592 2.349 . S
Tb540 O595 2.393 . S
Tb540 C604 2.802 . S
C541 N542 1.379 . S
C541 C544 1.416 . S
C541 C548 1.424 . S
N542 C541 1.379 . S
N542 C545 1.334 . S
N542 Tb551 2.617 . S
C543 C545 1.390 . S
C543 C546 1.339 . S
C543 H563 0.930 . S
C544 C541 1.416 . S
C544 C546 1.416 . S
C544 C550 1.448 . S
C545 N542 1.334 . S
C545 C543 1.390 . S
C545 H556 0.930 . S
C546 C543 1.339 . S
C546 C544 1.416 . S
C546 H567 0.930 . S
C547 C548 1.413 . S
C547 C549 1.427 . S
C547 C553 1.416 . S
C548 C541 1.424 . S
C548 C547 1.413 . S
C548 N552 1.361 . S
C549 C547 1.427 . S
C549 C550 1.328 . S
C549 H564 0.929 . S
C550 C544 1.448 . S
C550 C549 1.328 . S
C550 H565 0.930 . S
Tb551 N542 2.617 . S
Tb551 N552 2.572 . S
Tb551 O586 2.349 . S
Tb551 O589 2.393 . S
Tb551 O590 2.465 . S
Tb551 O591 2.387 . S
Tb551 O593 2.428 . S
Tb551 O594 2.308 . S
Tb551 C615 2.802 . S
N552 C548 1.361 . S
N552 Tb551 2.572 . S
N552 C554 1.340 . S
C553 C547 1.416 . S
C553 C555 1.332 . S
C553 H561 0.931 . S
C554 N552 1.340 . S
C554 C555 1.407 . S
C554 H560 0.930 . S
C555 C553 1.332 . S
C555 C554 1.407 . S
C555 H557 0.929 . S
H556 C545 0.930 . S
H557 C555 0.929 . S
H558 C573 0.930 . S
H559 C580 0.929 . S
H560 C554 0.930 . S
H561 C553 0.931 . S
H562 C576 0.930 . S
H563 C543 0.930 . S
H564 C549 0.929 . S
H565 C550 0.930 . S
H566 C571 0.930 . S
H567 C546 0.930 . S
H568 C579 0.931 . S
N569 Tb540 2.617 . S
N569 C570 1.379 . S
N569 C573 1.334 . S
C570 N569 1.379 . S
C570 C572 1.416 . S
C570 C578 1.424 . S
C571 H566 0.930 . S
C571 C573 1.390 . S
C571 C574 1.339 . S
C572 C570 1.416 . S
C572 C574 1.416 . S
C572 C605 1.448 . S
C573 H558 0.930 . S
C573 N569 1.334 . S
C573 C571 1.390 . S
C574 C571 1.339 . S
C574 C572 1.416 . S
C574 H581 0.930 . S
N575 Tb540 2.572 . S
N575 C576 1.340 . S
N575 C578 1.361 . S
C576 H562 0.930 . S
C576 N575 1.340 . S
C576 C580 1.407 . S
C577 C578 1.413 . S
C577 C579 1.416 . S
C577 C606 1.427 . S
C578 C570 1.424 . S
C578 N575 1.361 . S
C578 C577 1.413 . S
C579 H568 0.931 . S
C579 C577 1.416 . S
C579 C580 1.332 . S
C580 H559 0.929 . S
C580 C576 1.407 . S
C580 C579 1.332 . S
H581 C574 0.930 . S
H582 C605 0.930 . S
H583 C606 0.929 . S
O584 Tb540 2.465 . S
O584 C604 1.264 . S
O585 Tb540 2.387 . S
O585 C596 1.264 . S
O586 Tb551 2.349 . S
O586 C596 1.243 . S
O587 Tb540 2.428 . S
O587 C604 1.256 . S
O588 Tb540 2.308 . S
O588 C603 1.266 . S
O589 Tb551 2.393 . S
O589 C603 1.248 . S
O590 Tb551 2.465 . S
O590 C615 1.264 . S
O591 Tb551 2.387 . S
O591 C607 1.264 . S
O592 Tb540 2.349 . S
O592 C607 1.243 . S
O593 Tb551 2.428 . S
O593 C615 1.256 . S
O594 Tb551 2.308 . S
O594 C614 1.266 . S
O595 Tb540 2.393 . S
O595 C614 1.248 . S
C596 O585 1.264 . S
C596 O586 1.243 . S
C597 C600 1.399 . S
C597 C602 1.383 . S
C597 C604 1.496 . S
C598 C599 1.399 . S
C598 C602 1.389 . S
C599 C598 1.399 . S
C599 C601 1.380 . S
C599 H616 0.929 . S
C600 C597 1.399 . S
C600 C601 1.392 . S
C600 H617 0.929 . S
C601 C599 1.380 . S
C601 C600 1.392 . S
C601 H618 0.929 . S
C602 C597 1.383 . S
C602 C598 1.389 . S
C602 H619 0.931 . S
C603 O588 1.266 . S
C603 O589 1.248 . S
C604 Tb540 2.802 . S
C604 O584 1.264 . S
C604 O587 1.256 . S
C604 C597 1.496 . S
C605 C572 1.448 . S
C605 H582 0.930 . S
C605 C606 1.328 . S
C606 C577 1.427 . S
C606 H583 0.929 . S
C606 C605 1.328 . S
C607 O591 1.264 . S
C607 O592 1.243 . S
C608 C611 1.399 . S
C608 C612 1.383 . S
C608 C615 1.496 . S
C609 C610 1.399 . S
C609 C612 1.389 . S
C610 C609 1.399 . S
C610 C613 1.380 . S
C610 H620 0.929 . S
C611 C608 1.399 . S
C611 C613 1.392 . S
C611 H621 0.929 . S
C612 C608 1.383 . S
C612 C609 1.389 . S
C612 H622 0.931 . S
C613 C610 1.380 . S
C613 C611 1.392 . S
C613 H623 0.929 . S
C614 O594 1.266 . S
C614 O595 1.248 . S
C615 Tb551 2.802 . S
C615 O590 1.264 . S
C615 O593 1.256 . S
C615 C608 1.496 . S
H616 C599 0.929 . S
H617 C600 0.929 . S
H618 C601 0.929 . S
H619 C602 0.931 . S
H620 C610 0.929 . S
H621 C611 0.929 . S
H622 C612 0.931 . S
H623 C613 0.929 . S
C624 C625 1.369 . S
C624 C626 1.419 . S
C624 H628 0.930 1_545 S
C625 C624 1.369 . S
C625 C634 1.429 . S
C626 C624 1.419 . S
C626 C627 1.363 . S
C626 H629 0.929 . S
C627 C626 1.363 . S
C627 C633 1.428 . S
H628 C624 0.930 1_565 S
H629 C626 0.929 . S
S630 N631 1.613 . S
S630 N632 1.610 . S
N631 S630 1.613 . S
N631 C634 1.350 . S
N632 S630 1.610 . S
N632 C633 1.351 . S
C633 C627 1.428 . S
C633 N632 1.351 . S
C633 C634 1.434 . S
C634 C625 1.429 . S
C634 N631 1.350 . S
C634 C633 1.434 . S
C635 C636 1.369 . S
C635 C637 1.419 . S
C635 H639 0.930 . S
C636 C635 1.369 . S
C636 C645 1.429 . S
C637 C635 1.419 . S
C637 C638 1.363 . S
C637 H640 0.929 . S
C638 C637 1.363 . S
C638 C644 1.428 . S
H639 C635 0.930 . S
H640 C637 0.929 . S
S641 N642 1.613 . S
S641 N643 1.610 . S
N642 S641 1.613 . S
N642 C645 1.350 . S
N643 S641 1.610 . S
N643 C644 1.351 . S
C644 C638 1.428 . S
C644 N643 1.351 . S
C644 C645 1.434 . S
C645 C636 1.429 . S
C645 N642 1.350 . S
C645 C644 1.434 . S
C646 C647 1.369 . S
C646 C648 1.419 . S
C646 H650 0.930 . S
C647 C646 1.369 . S
C647 C656 1.429 . S
C648 C646 1.419 . S
C648 C649 1.363 . S
C648 H651 0.929 . S
C649 C648 1.363 . S
C649 C655 1.428 . S
H650 C646 0.930 . S
H651 C648 0.929 . S
S652 N653 1.613 . S
S652 N654 1.610 . S
N653 S652 1.613 . S
N653 C656 1.350 . S
N654 S652 1.610 . S
N654 C655 1.351 . S
C655 C649 1.428 . S
C655 N654 1.351 . S
C655 C656 1.434 . S
C656 C647 1.429 . S
C656 N653 1.350 . S
C656 C655 1.434 . S
C657 C658 1.369 . S
C657 C659 1.419 . S
C657 H661 0.930 . S
C658 C657 1.369 . S
C658 C667 1.429 . S
C659 C657 1.419 . S
C659 C660 1.363 . S
C659 H662 0.929 . S
C660 C659 1.363 . S
C660 C666 1.428 . S
H661 C657 0.930 . S
H662 C659 0.929 . S
S663 N664 1.613 . S
S663 N665 1.610 . S
N664 S663 1.613 . S
N664 C667 1.350 . S
N665 S663 1.610 . S
N665 C666 1.351 . S
C666 C660 1.428 . S
C666 N665 1.351 . S
C666 C667 1.434 . S
C667 C658 1.429 . S
C667 N664 1.350 . S
C667 C666 1.434 . S
C668 C669 1.369 . S
C668 C670 1.419 . S
C668 H672 0.930 . S
C669 C668 1.369 . S
C669 C678 1.429 . S
C670 C668 1.419 . S
C670 C671 1.363 . S
C670 H673 0.929 . S
C671 C670 1.363 . S
C671 C677 1.428 . S
H672 C668 0.930 . S
H673 C670 0.929 . S
S674 N675 1.613 1_455 S
S674 N676 1.610 . S
N675 S674 1.613 1_655 S
N675 C678 1.350 . S
N676 S674 1.610 . S
N676 C677 1.351 1_455 S
C677 C671 1.428 . S
C677 N676 1.351 1_655 S
C677 C678 1.434 . S
C678 C669 1.429 . S
C678 N675 1.350 . S
C678 C677 1.434 . S
C679 C680 1.369 . S
C679 C681 1.419 . S
C679 H683 0.930 . S
C680 C679 1.369 . S
C680 C689 1.429 . S
C681 C679 1.419 . S
C681 C682 1.363 . S
C681 H684 0.929 . S
C682 C681 1.363 . S
C682 C688 1.428 . S
H683 C679 0.930 . S
H684 C681 0.929 . S
S685 N686 1.613 . S
S685 N687 1.610 . S
N686 S685 1.613 . S
N686 C689 1.350 . S
N687 S685 1.610 . S
N687 C688 1.351 . S
C688 C682 1.428 . S
C688 N687 1.351 . S
C688 C689 1.434 . S
C689 C680 1.429 . S
C689 N686 1.350 . S
C689 C688 1.434 . S
C690 C691 1.369 . S
C690 C692 1.419 . S
C690 H694 0.930 . S
C691 C690 1.369 . S
C691 C700 1.429 . S
C692 C690 1.419 . S
C692 C693 1.363 . S
C692 H695 0.929 . S
C693 C692 1.363 . S
C693 C699 1.428 . S
H694 C690 0.930 . S
H695 C692 0.929 . S
S696 N697 1.613 . S
S696 N698 1.610 . S
N697 S696 1.613 . S
N697 C700 1.350 . S
N698 S696 1.610 . S
N698 C699 1.351 . S
C699 C693 1.428 . S
C699 N698 1.351 . S
C699 C700 1.434 . S
C700 C691 1.429 . S
C700 N697 1.350 . S
C700 C699 1.434 . S
C701 C702 1.369 . S
C701 C703 1.419 . S
C701 H705 0.930 . S
C702 C701 1.369 . S
C702 C711 1.429 . S
C703 C701 1.419 . S
C703 C704 1.363 . S
C703 H706 0.929 . S
C704 C703 1.363 . S
C704 C710 1.428 . S
H705 C701 0.930 . S
H706 C703 0.929 . S
S707 N708 1.613 . S
S707 N709 1.610 . S
N708 S707 1.613 . S
N708 C711 1.350 . S
N709 S707 1.610 . S
N709 C710 1.351 . S
C710 C704 1.428 . S
C710 N709 1.351 . S
C710 C711 1.434 . S
C711 C702 1.429 . S
C711 N708 1.350 . S
C711 C710 1.434 . S
C712 C713 1.369 . S
C712 C714 1.419 . S
C712 H716 0.930 . S
C713 C712 1.369 . S
C713 C722 1.429 . S
C714 C712 1.419 . S
C714 C715 1.363 . S
C714 H717 0.929 . S
C715 C714 1.363 . S
C715 C721 1.428 . S
H716 C712 0.930 . S
H717 C714 0.929 . S
S718 N719 1.613 . S
S718 N720 1.610 . S
N719 S718 1.613 . S
N719 C722 1.350 . S
N720 S718 1.610 . S
N720 C721 1.351 . S
C721 C715 1.428 . S
C721 N720 1.351 . S
C721 C722 1.434 . S
C722 C713 1.429 . S
C722 N719 1.350 . S
C722 C721 1.434 . S
C723 C724 1.369 . S
C723 C725 1.419 . S
C723 H727 0.930 . S
C724 C723 1.369 . S
C724 C733 1.429 . S
C725 C723 1.419 . S
C725 C726 1.363 . S
C725 H728 0.929 . S
C726 C725 1.363 . S
C726 C732 1.428 . S
H727 C723 0.930 . S
H728 C725 0.929 . S
S729 N730 1.613 . S
S729 N731 1.610 . S
N730 S729 1.613 . S
N730 C733 1.350 . S
N731 S729 1.610 . S
N731 C732 1.351 . S
C732 C726 1.428 . S
C732 N731 1.351 . S
C732 C733 1.434 . S
C733 C724 1.429 . S
C733 N730 1.350 . S
C733 C732 1.434 . S
C734 C735 1.369 . S
C734 C736 1.419 . S
C734 H738 0.930 . S
C735 C734 1.369 . S
C735 C744 1.429 . S
C736 C734 1.419 . S
C736 C737 1.363 . S
C736 H739 0.929 . S
C737 C736 1.363 . S
C737 C743 1.428 . S
H738 C734 0.930 . S
H739 C736 0.929 . S
S740 N741 1.613 . S
S740 N742 1.610 . S
N741 S740 1.613 . S
N741 C744 1.350 . S
N742 S740 1.610 . S
N742 C743 1.351 . S
C743 C737 1.428 . S
C743 N742 1.351 . S
C743 C744 1.434 . S
C744 C735 1.429 . S
C744 N741 1.350 . S
C744 C743 1.434 . S
C745 C746 1.369 . S
C745 C747 1.419 . S
C745 H749 0.930 . S
C746 C745 1.369 . S
C746 C755 1.429 . S
C747 C745 1.419 . S
C747 C748 1.363 . S
C747 H750 0.929 . S
C748 C747 1.363 . S
C748 C754 1.428 . S
H749 C745 0.930 . S
H750 C747 0.929 . S
S751 N752 1.613 . S
S751 N753 1.610 . S
N752 S751 1.613 . S
N752 C755 1.350 . S
N753 S751 1.610 . S
N753 C754 1.351 . S
C754 C748 1.428 . S
C754 N753 1.351 . S
C754 C755 1.434 . S
C755 C746 1.429 . S
C755 N752 1.350 . S
C755 C754 1.434 . S
C756 C757 1.369 . S
C756 C758 1.419 . S
C756 H760 0.930 . S
C757 C756 1.369 . S
C757 C766 1.429 . S
C758 C756 1.419 . S
C758 C759 1.363 . S
C758 H761 0.929 . S
C759 C758 1.363 . S
C759 C765 1.428 . S
H760 C756 0.930 . S
H761 C758 0.929 . S
S762 N763 1.613 . S
S762 N764 1.610 . S
N763 S762 1.613 . S
N763 C766 1.350 . S
N764 S762 1.610 . S
N764 C765 1.351 . S
C765 C759 1.428 . S
C765 N764 1.351 . S
C765 C766 1.434 . S
C766 C757 1.429 . S
C766 N763 1.350 . S
C766 C765 1.434 . S
C767 C768 1.369 . S
C767 C769 1.419 . S
C767 H771 0.930 . S
C768 C767 1.369 . S
C768 C777 1.429 . S
C769 C767 1.419 . S
C769 C770 1.363 . S
C769 H772 0.929 . S
C770 C769 1.363 . S
C770 C776 1.428 . S
H771 C767 0.930 . S
H772 C769 0.929 . S
S773 N774 1.613 . S
S773 N775 1.610 . S
N774 S773 1.613 . S
N774 C777 1.350 . S
N775 S773 1.610 . S
N775 C776 1.351 . S
C776 C770 1.428 . S
C776 N775 1.351 . S
C776 C777 1.434 . S
C777 C768 1.429 . S
C777 N774 1.350 . S
C777 C776 1.434 . S
C778 C779 1.369 . S
C778 C780 1.419 . S
C778 H782 0.930 . S
C779 C778 1.369 . S
C779 C788 1.429 . S
C780 C778 1.419 . S
C780 C781 1.363 . S
C780 H783 0.929 . S
C781 C780 1.363 . S
C781 C787 1.428 . S
H782 C778 0.930 . S
H783 C780 0.929 . S
S784 N785 1.613 . S
S784 N786 1.610 . S
N785 S784 1.613 . S
N785 C788 1.350 . S
N786 S784 1.610 . S
N786 C787 1.351 . S
C787 C781 1.428 . S
C787 N786 1.351 . S
C787 C788 1.434 . S
C788 C779 1.429 . S
C788 N785 1.350 . S
C788 C787 1.434 . S
C789 C790 1.369 . S
C789 C791 1.419 . S
C789 H793 0.930 . S
C790 C789 1.369 . S
C790 C799 1.429 . S
C791 C789 1.419 . S
C791 C792 1.363 . S
C791 H794 0.929 . S
C792 C791 1.363 . S
C792 C798 1.428 . S
H793 C789 0.930 . S
H794 C791 0.929 . S
S795 N796 1.613 . S
S795 N797 1.610 . S
N796 S795 1.613 . S
N796 C799 1.350 . S
N797 S795 1.610 . S
N797 C798 1.351 . S
C798 C792 1.428 . S
C798 N797 1.351 . S
C798 C799 1.434 . S
C799 C790 1.429 . S
C799 N796 1.350 . S
C799 C798 1.434 . S
C800 C801 1.369 . S
C800 C802 1.419 . S
C800 H804 0.930 . S
C801 C800 1.369 . S
C801 C810 1.429 . S
C802 C800 1.419 . S
C802 C803 1.363 . S
C802 H805 0.929 . S
C803 C802 1.363 . S
C803 C809 1.428 . S
H804 C800 0.930 . S
H805 C802 0.929 . S
S806 N807 1.613 . S
S806 N808 1.610 . S
N807 S806 1.613 . S
N807 C810 1.350 . S
N808 S806 1.610 . S
N808 C809 1.351 . S
C809 C803 1.428 . S
C809 N808 1.351 . S
C809 C810 1.434 . S
C810 C801 1.429 . S
C810 N807 1.350 . S
C810 C809 1.434 . S
C811 C812 1.369 . S
C811 C813 1.419 . S
C811 H815 0.930 . S
C812 C811 1.369 . S
C812 C821 1.429 . S
C813 C811 1.419 . S
C813 C814 1.363 . S
C813 H816 0.929 . S
C814 C813 1.363 . S
C814 C820 1.428 . S
H815 C811 0.930 . S
H816 C813 0.929 . S
S817 N818 1.613 . S
S817 N819 1.610 . S
N818 S817 1.613 . S
N818 C821 1.350 . S
N819 S817 1.610 . S
N819 C820 1.351 . S
C820 C814 1.428 . S
C820 N819 1.351 . S
C820 C821 1.434 . S
C821 C812 1.429 . S
C821 N818 1.350 . S
C821 C820 1.434 . S
C822 C823 1.369 . S
C822 C824 1.419 . S
C822 H826 0.930 . S
C823 C822 1.369 . S
C823 C832 1.429 . S
C824 C822 1.419 . S
C824 C825 1.363 . S
C824 H827 0.929 . S
C825 C824 1.363 . S
C825 C831 1.428 . S
H826 C822 0.930 . S
H827 C824 0.929 . S
S828 N829 1.613 . S
S828 N830 1.610 . S
N829 S828 1.613 . S
N829 C832 1.350 . S
N830 S828 1.610 . S
N830 C831 1.351 . S
C831 C825 1.428 . S
C831 N830 1.351 . S
C831 C832 1.434 . S
C832 C823 1.429 . S
C832 N829 1.350 . S
C832 C831 1.434 . S
C833 C834 1.369 . S
C833 C835 1.419 . S
C833 H837 0.930 . S
C834 C833 1.369 . S
C834 C843 1.429 . S
C835 C833 1.419 . S
C835 C836 1.363 . S
C835 H838 0.929 . S
C836 C835 1.363 . S
C836 C842 1.428 . S
H837 C833 0.930 . S
H838 C835 0.929 . S
S839 N840 1.613 1_455 S
S839 N841 1.610 . S
N840 S839 1.613 1_655 S
N840 C843 1.350 . S
N841 S839 1.610 . S
N841 C842 1.351 1_455 S
C842 C836 1.428 . S
C842 N841 1.351 1_655 S
C842 C843 1.434 . S
C843 C834 1.429 . S
C843 N840 1.350 . S
C843 C842 1.434 . S
C844 C845 1.369 . S
C844 C846 1.419 . S
C844 H848 0.930 . S
C845 C844 1.369 . S
C845 C854 1.429 . S
C846 C844 1.419 . S
C846 C847 1.363 . S
C846 H849 0.929 . S
C847 C846 1.363 . S
C847 C853 1.428 . S
H848 C844 0.930 . S
H849 C846 0.929 . S
S850 N851 1.613 . S
S850 N852 1.610 . S
N851 S850 1.613 . S
N851 C854 1.350 . S
N852 S850 1.610 . S
N852 C853 1.351 . S
C853 C847 1.428 . S
C853 N852 1.351 . S
C853 C854 1.434 . S
C854 C845 1.429 . S
C854 N851 1.350 . S
C854 C853 1.434 . S
C855 C856 1.369 . S
C855 C857 1.419 . S
C855 H859 0.930 . S
C856 C855 1.369 . S
C856 C865 1.429 . S
C857 C855 1.419 . S
C857 C858 1.363 . S
C857 H860 0.929 . S
C858 C857 1.363 . S
C858 C864 1.428 . S
H859 C855 0.930 . S
H860 C857 0.929 . S
S861 N862 1.613 . S
S861 N863 1.610 . S
N862 S861 1.613 . S
N862 C865 1.350 . S
N863 S861 1.610 . S
N863 C864 1.351 . S
C864 C858 1.428 . S
C864 N863 1.351 . S
C864 C865 1.434 . S
C865 C856 1.429 . S
C865 N862 1.350 . S
C865 C864 1.434 . S
C866 C867 1.369 . S
C866 C868 1.419 . S
C866 H870 0.930 . S
C867 C866 1.369 . S
C867 C876 1.429 . S
C868 C866 1.419 . S
C868 C869 1.363 . S
C868 H871 0.929 . S
C869 C868 1.363 . S
C869 C875 1.428 . S
H870 C866 0.930 . S
H871 C868 0.929 . S
S872 N873 1.613 . S
S872 N874 1.610 . S
N873 S872 1.613 . S
N873 C876 1.350 . S
N874 S872 1.610 . S
N874 C875 1.351 . S
C875 C869 1.428 . S
C875 N874 1.351 . S
C875 C876 1.434 . S
C876 C867 1.429 . S
C876 N873 1.350 . S
C876 C875 1.434 . S
C877 C878 1.369 . S
C877 C879 1.419 . S
C877 H881 0.930 . S
C878 C877 1.369 . S
C878 C887 1.429 . S
C879 C877 1.419 . S
C879 C880 1.363 . S
C879 H882 0.929 . S
C880 C879 1.363 . S
C880 C886 1.428 . S
H881 C877 0.930 . S
H882 C879 0.929 . S
S883 N884 1.613 . S
S883 N885 1.610 . S
N884 S883 1.613 . S
N884 C887 1.350 . S
N885 S883 1.610 . S
N885 C886 1.351 . S
C886 C880 1.428 . S
C886 N885 1.351 . S
C886 C887 1.434 . S
C887 C878 1.429 . S
C887 N884 1.350 . S
C887 C886 1.434 . S
C625 C247 1.488 1_545 S
C627 C362 1.470 . S
C638 C446 1.471 . S
C636 C283 1.488 . S
C649 C439 1.479 . S
C647 C175 1.485 . S
C658 C211 1.487 1_545 S
C660 C355 1.478 . S
C671 C519 1.471 . S
C669 C103 1.471 1_565 S
C682 C603 1.468 . S
C680 C139 1.470 . S
C691 C31 1.468 . S
C693 C596 1.477 . S
C702 C67 1.468 1_565 S
C704 C512 1.478 . S
C715 C346 1.316 . S
C713 C37 1.511 . S
C726 C430 1.317 . S
C724 C1 1.511 . S
C737 C441 1.405 . S
C735 C109 1.520 1_556 S
C748 C357 1.403 . S
C746 C73 1.528 . S
C759 C525 1.325 . S
C757 C181 1.527 . S
C768 C145 1.526 . S
C770 C609 1.324 . S
C781 C598 1.404 . S
C779 C253 1.559 . S
C790 C217 1.540 . S
C792 C514 1.397 . S
C803 C344 1.575 . S
C801 C25 1.542 . S
C814 C428 1.577 . S
C812 C61 1.543 . S
C823 C97 1.530 . S
C825 C435 1.558 . S
C836 C351 1.560 . S
C834 C133 1.537 . S
C847 C523 1.577 . S
C845 C169 1.565 . S
C856 C205 1.571 . S
C858 C607 1.575 . S
C867 C241 1.557 . S
C869 C614 1.561 . S
C878 C277 1.557 . S
C880 C530 1.561 . S
