# Generated by pormake.
# Topology zzz, (3,6)-cn, num edge types: 1
# Building blocks:
#     Node 0, Type 0, BuildingBlock: PAMTOO_clean_linker_0, # of connection points: 3
#     Node 1, Type 0, BuildingBlock: PAMTOO_clean_linker_0, # of connection points: 3
#     Node 2, Type 0, BuildingBlock: PAMTOO_clean_linker_0, # of connection points: 3
#     Node 3, Type 0, BuildingBlock: PAMTOO_clean_linker_0, # of connection points: 3
#     Node 4, Type 0, BuildingBlock: PAMTOO_clean_linker_0, # of connection points: 3
#     Node 5, Type 0, BuildingBlock: PAMTOO_clean_linker_0, # of connection points: 3
#     Node 6, Type 0, BuildingBlock: PAMTOO_clean_linker_0, # of connection points: 3
#     Node 7, Type 0, BuildingBlock: PAMTOO_clean_linker_0, # of connection points: 3
#     Node 8, Type 1, BuildingBlock: VOLQOD_clean_sbu_1, # of connection points: 6
#     Node 9, Type 1, BuildingBlock: VOLQOD_clean_sbu_1, # of connection points: 6
#     Node 10, Type 1, BuildingBlock: VOLQOD_clean_sbu_1, # of connection points: 6
#     Node 11, Type 1, BuildingBlock: VOLQOD_clean_sbu_1, # of connection points: 6
#     Edge 12, Type (0, 1), BuildingBlock: UVAHIK_clean_linker_0, # of connection points: 2
#     Edge 13, Type (0, 1), BuildingBlock: UVAHIK_clean_linker_0, # of connection points: 2
#     Edge 14, Type (0, 1), BuildingBlock: UVAHIK_clean_linker_0, # of connection points: 2
#     Edge 15, Type (0, 1), BuildingBlock: UVAHIK_clean_linker_0, # of connection points: 2
#     Edge 16, Type (0, 1), BuildingBlock: UVAHIK_clean_linker_0, # of connection points: 2
#     Edge 17, Type (0, 1), BuildingBlock: UVAHIK_clean_linker_0, # of connection points: 2
#     Edge 18, Type (0, 1), BuildingBlock: UVAHIK_clean_linker_0, # of connection points: 2
#     Edge 19, Type (0, 1), BuildingBlock: UVAHIK_clean_linker_0, # of connection points: 2
#     Edge 20, Type (0, 1), BuildingBlock: UVAHIK_clean_linker_0, # of connection points: 2
#     Edge 21, Type (0, 1), BuildingBlock: UVAHIK_clean_linker_0, # of connection points: 2
#     Edge 22, Type (0, 1), BuildingBlock: UVAHIK_clean_linker_0, # of connection points: 2
#     Edge 23, Type (0, 1), BuildingBlock: UVAHIK_clean_linker_0, # of connection points: 2
#     Edge 24, Type (0, 1), BuildingBlock: UVAHIK_clean_linker_0, # of connection points: 2
#     Edge 25, Type (0, 1), BuildingBlock: UVAHIK_clean_linker_0, # of connection points: 2
#     Edge 26, Type (0, 1), BuildingBlock: UVAHIK_clean_linker_0, # of connection points: 2
#     Edge 27, Type (0, 1), BuildingBlock: UVAHIK_clean_linker_0, # of connection points: 2
#     Edge 28, Type (0, 1), BuildingBlock: UVAHIK_clean_linker_0, # of connection points: 2
#     Edge 29, Type (0, 1), BuildingBlock: UVAHIK_clean_linker_0, # of connection points: 2
#     Edge 30, Type (0, 1), BuildingBlock: UVAHIK_clean_linker_0, # of connection points: 2
#     Edge 31, Type (0, 1), BuildingBlock: UVAHIK_clean_linker_0, # of connection points: 2
#     Edge 32, Type (0, 1), BuildingBlock: UVAHIK_clean_linker_0, # of connection points: 2
#     Edge 33, Type (0, 1), BuildingBlock: UVAHIK_clean_linker_0, # of connection points: 2
#     Edge 34, Type (0, 1), BuildingBlock: UVAHIK_clean_linker_0, # of connection points: 2
#     Edge 35, Type (0, 1), BuildingBlock: UVAHIK_clean_linker_0, # of connection points: 2
# Relax obj value: 0.201
# Max RMSD: 0.239
# Mean RMSD: 0.108
data_MOF--net-zzz--node1-VOLQOD_clean_sbu_1--node2-PAMTOO_clean_linker_0--edge1-UVAHIK_clean_linker_0
_symmetry_space_group_name_H-M    P1
_symmetry_Int_Tables_number       1
_symmetry_cell_setting            triclinic
loop_
_symmetry_equiv_pos_as_xyz
'x, y, z'
_cell_length_a     65.509527
_cell_length_b     65.115842
_cell_length_c     22.197713
_cell_angle_alpha  90.185827
_cell_angle_beta   89.838918
_cell_angle_gamma 90.76703
loop_
_atom_site_label
_atom_site_type_symbol
_atom_site_fract_x
_atom_site_fract_y
_atom_site_fract_z
_atom_type_partial_charge
H0 H 0.82303 0.53124 0.13859 0.0
H1 H 0.76552 0.51633 0.05607 0.0
H2 H 0.76692 0.54338 0.23308 0.0
H3 H 0.72782 0.51522 0.21285 0.0
C4 C 0.73203 0.51305 0.16473 0.0
O5 O 0.74322 0.52994 0.14563 0.0
H6 H 0.74114 0.49875 0.16144 0.0
C7 C 0.80648 0.53158 0.1397 0.0
C8 C 0.79642 0.53877 0.19133 0.0
C9 C 0.79548 0.52326 0.09131 0.0
C10 C 0.77412 0.52279 0.09334 0.0
C11 C 0.76384 0.53032 0.14413 0.0
C12 C 0.77496 0.53808 0.19337 0.0
H13 H 0.02494 0.80946 0.21978 0.0
H14 H 0.02381 0.75864 0.09509 0.0
H15 H 0.98737 0.75637 0.25641 0.0
H16 H 0.99971 0.71351 0.22138 0.0
C17 C 0.0074 0.71857 0.17915 0.0
O18 O 0.99834 0.73627 0.15893 0.0
H19 H 0.02381 0.72139 0.19006 0.0
C20 C 0.01993 0.79404 0.20776 0.0
C21 C 0.00587 0.78382 0.24512 0.0
C22 C 0.02638 0.78531 0.15315 0.0
C23 C 0.01905 0.76569 0.13704 0.0
C24 C 0.00526 0.75516 0.17474 0.0
C25 C 0.99837 0.76438 0.22817 0.0
H26 H 0.68878 0.03058 0.17787 0.0
H27 H 0.74232 0.03396 0.06513 0.0
H28 H 0.74293 0.99831 0.22778 0.0
H29 H 0.78323 0.01951 0.20406 0.0
C30 C 0.78083 0.02282 0.15547 0.0
O31 O 0.76461 0.01102 0.13496 0.0
H32 H 0.77753 0.03947 0.1507 0.0
C33 C 0.70469 0.02705 0.16962 0.0
C34 C 0.71478 0.01401 0.2094 0.0
C35 C 0.71432 0.03418 0.11705 0.0
C36 C 0.73463 0.02868 0.10561 0.0
C37 C 0.74505 0.01613 0.1462 0.0
C38 C 0.73501 0.00849 0.19751 0.0
H39 H 0.4911 0.6856 0.19837 0.0
H40 H 0.49265 0.73791 0.08007 0.0
H41 H 0.53074 0.73696 0.23748 0.0
H42 H 0.5206 0.78062 0.20999 0.0
C43 C 0.51139 0.77626 0.16983 0.0
O44 O 0.51934 0.75872 0.14444 0.0
H45 H 0.49539 0.77359 0.1856 0.0
C46 C 0.49651 0.70098 0.18769 0.0
C47 C 0.51127 0.71027 0.22468 0.0
C48 C 0.48983 0.7106 0.13496 0.0
C49 C 0.4976 0.73019 0.12055 0.0
C50 C 0.51209 0.73978 0.1581 0.0
C51 C 0.51924 0.72964 0.20939 0.0
H52 H 0.18861 0.52503 0.2007 0.0
H53 H 0.24372 0.53199 0.30412 0.0
H54 H 0.24065 0.48809 0.1589 0.0
H55 H 0.2652 0.47286 0.25943 0.0
C56 C 0.26693 0.48759 0.2845 0.0
O57 O 0.26363 0.5036 0.24515 0.0
H58 H 0.2555 0.48769 0.32175 0.0
C59 C 0.20446 0.52121 0.20848 0.0
C60 C 0.21336 0.50566 0.17399 0.0
C61 C 0.21524 0.53095 0.25517 0.0
C62 C 0.23537 0.5251 0.26697 0.0
C63 C 0.24459 0.50983 0.23174 0.0
C64 C 0.23366 0.50027 0.18478 0.0
H65 H 0.04606 0.18035 0.2232 0.0
H66 H 0.0386 0.23776 0.31615 0.0
H67 H 0.0758 0.23506 0.15621 0.0
H68 H 0.03511 0.26654 0.19565 0.0
C69 C 0.04979 0.27344 0.21181 0.0
O70 O 0.06146 0.25911 0.24121 0.0
H71 H 0.05824 0.27895 0.17138 0.0
C72 C 0.04959 0.19662 0.2273 0.0
C73 C 0.06233 0.20616 0.18467 0.0
C74 C 0.04092 0.20786 0.27443 0.0
C75 C 0.04521 0.22892 0.27974 0.0
C76 C 0.05774 0.2387 0.2369 0.0
C77 C 0.06626 0.22736 0.18934 0.0
H78 H 0.31964 0.0197 0.21936 0.0
H79 H 0.26024 0.00403 0.28958 0.0
H80 H 0.26575 0.03671 0.12193 0.0
H81 H 0.22203 0.04583 0.18378 0.0
C82 C 0.22894 0.0379 0.22285 0.0
O83 O 0.24009 0.02149 0.20186 0.0
H84 H 0.23886 0.04949 0.24609 0.0
C85 C 0.30313 0.02032 0.21587 0.0
C86 C 0.29423 0.02963 0.16578 0.0
C87 C 0.29103 0.01087 0.26007 0.0
C88 C 0.26973 0.01125 0.25539 0.0
C89 C 0.26064 0.02087 0.20598 0.0
C90 C 0.27287 0.02969 0.1606 0.0
H91 H 0.47447 0.31369 0.21379 0.0
H92 H 0.48124 0.25616 0.30541 0.0
H93 H 0.44658 0.25876 0.14119 0.0
H94 H 0.43138 0.22187 0.22199 0.0
C95 C 0.44307 0.22624 0.25609 0.0
O96 O 0.45981 0.23473 0.22712 0.0
H97 H 0.43588 0.23749 0.28734 0.0
C98 C 0.47108 0.29736 0.21689 0.0
C99 C 0.45914 0.28776 0.17247 0.0
C100 C 0.47922 0.28611 0.26448 0.0
C101 C 0.47507 0.26501 0.26861 0.0
C102 C 0.46324 0.25519 0.22413 0.0
C103 C 0.45547 0.2665 0.17575 0.0
O104 O 0.0611 0.99688 0.67471 0.0
Zn105 Zn 0.0405 0.99767 0.74276 0.0
O106 O 0.01237 0.99727 0.71072 0.0
Zn107 Zn 0.99841 0.02222 0.73412 0.0
Zn108 Zn 0.01293 0.99525 0.62251 0.0
Zn109 Zn 0.99694 0.97411 0.74405 0.0
O110 O 0.97364 0.0168 0.78588 0.0
O111 O 0.97154 0.98281 0.7887 0.0
O112 O 0.0464 0.024 0.78998 0.0
O113 O 0.01747 0.04098 0.77824 0.0
O114 O 0.98968 0.03818 0.66233 0.0
O115 O 1.00004 0.02002 0.58357 0.0
O116 O 0.9993 0.96891 0.59382 0.0
O117 O 0.04534 0.97296 0.79606 0.0
O118 O 0.98894 0.9541 0.67875 0.0
O119 O 0.01437 0.95863 0.80176 0.0
C120 C 0.05942 0.99582 0.61759 0.0
C121 C 0.96459 0.00037 0.80272 0.0
C122 C 0.99155 0.03586 0.60572 0.0
C123 C 0.03567 0.04 0.7977 0.0
C124 C 0.99078 0.95396 0.62162 0.0
C125 C 0.03313 0.95925 0.81653 0.0
O126 O 0.04197 0.99496 0.59246 0.0
O127 O 0.49922 0.0475 0.65028 0.0
Zn128 Zn 0.50258 0.02659 0.71658 0.0
O129 O 0.50384 0.9987 0.68142 0.0
Zn130 Zn 0.48111 0.98207 0.71114 0.0
Zn131 Zn 0.5028 0.9998 0.593 0.0
Zn132 Zn 0.52893 0.98553 0.70583 0.0
O133 O 0.49025 0.95764 0.75882 0.0
O134 O 0.52401 0.9604 0.75708 0.0
O135 O 0.47797 0.02959 0.77197 0.0
O136 O 0.46292 0.99896 0.76326 0.0
O137 O 0.46338 0.97219 0.64379 0.0
O138 O 0.47799 0.98441 0.56085 0.0
O139 O 0.52874 0.98881 0.55504 0.0
O140 O 0.52871 0.03405 0.7615 0.0
O141 O 0.54579 0.97766 0.63444 0.0
O142 O 0.54645 0.0054 0.75134 0.0
C143 C 0.49836 0.04629 0.59301 0.0
C144 C 0.50774 0.95109 0.77372 0.0
C145 C 0.46364 0.9744 0.5869 0.0
C146 C 0.46328 0.0172 0.78398 0.0
C147 C 0.54435 0.98032 0.57788 0.0
C148 C 0.54491 0.02381 0.76996 0.0
O149 O 0.49973 0.02909 0.56588 0.0
O150 O 0.45598 0.49732 0.66833 0.0
Zn151 Zn 0.47713 0.4974 0.73414 0.0
O152 O 0.50486 0.49872 0.6991 0.0
Zn153 Zn 0.52033 0.4748 0.72341 0.0
Zn154 Zn 0.50328 0.4997 0.6108 0.0
Zn155 Zn 0.51937 0.52295 0.72873 0.0
O156 O 0.54508 0.48198 0.7739 0.0
O157 O 0.54493 0.51601 0.77373 0.0
O158 O 0.47262 0.4711 0.78215 0.0
O159 O 0.50238 0.45559 0.76981 0.0
O160 O 0.52916 0.45839 0.65193 0.0
O161 O 0.51601 0.47449 0.57341 0.0
O162 O 0.51679 0.52555 0.57814 0.0
O163 O 0.47165 0.52228 0.78675 0.0
O164 O 0.527 0.54185 0.66095 0.0
O165 O 0.50161 0.53878 0.78504 0.0
C166 C 0.45683 0.49856 0.61111 0.0
C167 C 0.55303 0.49918 0.78912 0.0
C168 C 0.52585 0.45955 0.59562 0.0
C169 C 0.4842 0.45575 0.79002 0.0
C170 C 0.52522 0.54099 0.60391 0.0
C171 C 0.4832 0.53718 0.80306 0.0
O172 O 0.47389 0.49982 0.58355 0.0
O173 O 0.97842 0.53058 0.59207 0.0
Zn174 Zn 0.00436 0.52838 0.64214 0.0
O175 O 0.00768 0.50011 0.67254 0.0
Zn176 Zn 0.00691 0.49996 0.76075 0.0
Zn177 Zn 0.98596 0.48218 0.64222 0.0
Zn178 Zn 0.03354 0.48912 0.64511 0.0
O179 O 0.03248 0.4877 0.79559 0.0
O180 O 0.05215 0.48354 0.7149 0.0
O181 O 0.00244 0.54857 0.71142 0.0
O182 O 0.00547 0.52893 0.79239 0.0
O183 O 0.98165 0.48527 0.79211 0.0
O184 O 0.96792 0.47222 0.70901 0.0
O185 O 0.99641 0.45776 0.59544 0.0
O186 O 0.02881 0.53726 0.59153 0.0
O187 O 0.02992 0.46281 0.59836 0.0
O188 O 0.0478 0.50918 0.59117 0.0
C189 C 0.96532 0.51699 0.57595 0.0
C190 C 0.0495 0.48289 0.77172 0.0
C191 C 0.96757 0.47501 0.76571 0.0
C192 C 0.00345 0.54653 0.76843 0.0
C193 C 0.01444 0.45222 0.58194 0.0
C194 C 0.04463 0.52756 0.5748 0.0
O195 O 0.9671 0.49824 0.59075 0.0
C196 C 0.19305 0.02527 0.24389 0.0
C197 C 0.21258 0.03042 0.26542 0.0
C198 C 0.17765 0.01898 0.28374 0.0
C199 C 0.16272 0.02284 0.44339 0.0
H200 H 0.12288 0.98082 0.3999 0.0
C201 C 0.09752 0.99866 0.6052 0.0
C202 C 0.07803 0.99651 0.57931 0.0
C203 C 0.11491 0.00059 0.56877 0.0
C204 C 0.13381 0.99268 0.41256 0.0
H205 H 0.23183 0.03186 0.34439 0.0
H206 H 0.20493 0.02078 0.41443 0.0
H207 H 0.15159 0.98808 0.33265 0.0
H208 H 0.06167 0.99423 0.49457 0.0
H209 H 0.09187 0.99779 0.43135 0.0
H210 H 0.14479 0.02771 0.52272 0.0
C211 C 0.20134 0.02207 0.36701 0.0
C212 C 0.15026 0.99684 0.37401 0.0
C213 C 0.21673 0.02834 0.32707 0.0
C214 C 0.07642 0.99584 0.51616 0.0
C215 C 0.09378 0.99776 0.4798 0.0
C216 C 0.14627 0.01869 0.4819 0.0
C217 C 0.18154 0.01756 0.3459 0.0
C218 C 0.16479 0.01214 0.38862 0.0
C219 C 0.11321 0.00038 0.50561 0.0
C220 C 0.13147 0.00374 0.46662 0.0
H221 H 0.18961 0.02651 0.19635 0.0
H222 H 0.16256 0.01577 0.26601 0.0
H223 H 0.17347 0.03492 0.45565 0.0
H224 H 0.09937 0.99915 0.65366 0.0
H225 H 0.12968 0.00231 0.5901 0.0
C226 C 0.4514 0.18861 0.26114 0.0
C227 C 0.44957 0.2076 0.29053 0.0
C228 C 0.45775 0.17132 0.29281 0.0
C229 C 0.48426 0.1555 0.43234 0.0
H230 H 0.45692 0.10333 0.4018 0.0
C231 C 0.49336 0.0844 0.58559 0.0
C232 C 0.49485 0.06512 0.55724 0.0
C233 C 0.48898 0.10195 0.5521 0.0
C234 C 0.46488 0.11773 0.41035 0.0
H235 H 0.45375 0.22379 0.37497 0.0
H236 H 0.46443 0.19351 0.43098 0.0
H237 H 0.44701 0.13359 0.34533 0.0
H238 H 0.49331 0.04934 0.47101 0.0
H239 H 0.48576 0.07994 0.4128 0.0
H240 H 0.50194 0.13959 0.498 0.0
C241 C 0.46104 0.1919 0.38347 0.0
C242 C 0.45921 0.13509 0.37793 0.0
C243 C 0.45474 0.20919 0.35169 0.0
C244 C 0.49221 0.0639 0.49445 0.0
C245 C 0.48776 0.08142 0.46106 0.0
C246 C 0.48988 0.13813 0.46495 0.0
C247 C 0.46252 0.17272 0.35449 0.0
C248 C 0.46881 0.1542 0.38855 0.0
C249 C 0.4859 0.10061 0.48955 0.0
C250 C 0.48024 0.11905 0.45434 0.0
H251 H 0.44789 0.18718 0.21364 0.0
H252 H 0.45912 0.15691 0.26878 0.0
H253 H 0.49219 0.1699 0.44103 0.0
H254 H 0.4953 0.08593 0.63386 0.0
H255 H 0.48748 0.11648 0.57547 0.0
C256 C 0.29983 0.47191 0.31935 0.0
C257 C 0.28784 0.48944 0.31216 0.0
C258 C 0.31853 0.4732 0.34937 0.0
C259 C 0.35907 0.50937 0.39753 0.0
H260 H 0.37082 0.46746 0.51581 0.0
C261 C 0.43782 0.50189 0.51352 0.0
C262 C 0.4376 0.4982 0.57595 0.0
C263 C 0.41969 0.50123 0.48037 0.0
C264 C 0.36772 0.47933 0.48312 0.0
H265 H 0.28563 0.52191 0.3321 0.0
H266 H 0.31851 0.52427 0.38408 0.0
H267 H 0.339 0.4656 0.45908 0.0
H268 H 0.41806 0.49103 0.65239 0.0
H269 H 0.38652 0.48982 0.59444 0.0
H270 H 0.38778 0.52317 0.42203 0.0
C271 C 0.31362 0.50961 0.36552 0.0
C272 C 0.3496 0.47815 0.4502 0.0
C273 C 0.29484 0.50828 0.33584 0.0
C274 C 0.41882 0.49393 0.6044 0.0
C275 C 0.40074 0.49311 0.57117 0.0
C276 C 0.3773 0.51046 0.43014 0.0
C277 C 0.32558 0.49204 0.37307 0.0
C278 C 0.34504 0.49319 0.40717 0.0
C279 C 0.40098 0.4967 0.50878 0.0
C280 C 0.38177 0.49549 0.47349 0.0
H281 H 0.29462 0.45714 0.30237 0.0
H282 H 0.32746 0.45942 0.35415 0.0
H283 H 0.35603 0.52111 0.3644 0.0
H284 H 0.452 0.50524 0.49014 0.0
H285 H 0.42038 0.5039 0.43226 0.0
C286 C 0.02634 0.29391 0.27901 0.0
C287 C 0.04573 0.29125 0.25328 0.0
C288 C 0.0226 0.31067 0.31681 0.0
C289 C 0.04832 0.34909 0.4137 0.0
H290 H 0.99933 0.38074 0.38909 0.0
C291 C 0.03717 0.42811 0.5256 0.0
C292 C 0.01756 0.4332 0.54626 0.0
C293 C 0.04023 0.41031 0.49169 0.0
C294 C 0.01294 0.37191 0.39722 0.0
H295 H 0.07657 0.30339 0.24819 0.0
H296 H 0.07012 0.33276 0.31441 0.0
H297 H 0.0054 0.35036 0.3274 0.0
H298 H 0.98578 0.42338 0.54769 0.0
H299 H 0.99119 0.39211 0.48936 0.0
H300 H 0.05587 0.37052 0.48363 0.0
C301 C 0.05778 0.32196 0.30533 0.0
C302 C 0.01642 0.35451 0.36176 0.0
C303 C 0.06147 0.30528 0.26723 0.0
C304 C 0.00108 0.41999 0.5323 0.0
C305 C 0.00416 0.4021 0.49856 0.0
C306 C 0.04479 0.36641 0.44938 0.0
C307 C 0.03827 0.32493 0.3302 0.0
C308 C 0.03423 0.343 0.36929 0.0
C309 C 0.02378 0.39704 0.47779 0.0
C310 C 0.02714 0.37815 0.44127 0.0
H311 H 0.01404 0.28311 0.26953 0.0
H312 H 0.00749 0.31239 0.33598 0.0
H313 H 0.06203 0.34035 0.42121 0.0
H314 H 0.05022 0.43798 0.53515 0.0
H315 H 0.05548 0.40712 0.47558 0.0
C316 C 0.79919 0.01866 0.05609 0.0
C317 C 0.79974 0.01827 0.11932 0.0
C318 C 0.81697 0.01556 0.02243 0.0
C319 C 0.87278 0.02033 0.03288 0.0
H320 H 0.87259 0.98604 0.88967 0.0
C321 C 0.93914 0.02087 0.8614 0.0
C322 C 0.94568 0.00177 0.83941 0.0
C323 C 0.92141 0.02225 0.89624 0.0
C324 C 0.87291 0.99556 0.92977 0.0
H325 H 0.8193 0.01484 0.19703 0.0
H326 H 0.85041 0.00941 0.1383 0.0
H327 H 0.84143 0.98916 0.94972 0.0
H328 H 0.93857 0.96913 0.83673 0.0
H329 H 0.90756 0.9716 0.89744 0.0
H330 H 0.90422 0.02673 0.01304 0.0
C331 C 0.83623 0.01199 0.1147 0.0
C332 C 0.85503 0.99749 0.96382 0.0
C333 C 0.81842 0.01496 0.14832 0.0
C334 C 0.93399 0.98409 0.85292 0.0
C335 C 0.91616 0.9855 0.88743 0.0
C336 C 0.89059 0.01852 -0.00139 0.0
C337 C 0.83572 0.01234 0.05138 0.0
C338 C 0.85477 0.00992 0.01571 0.0
C339 C 0.90971 0.00459 0.90963 0.0
C340 C 0.89085 0.00616 0.94659 0.0
H341 H 0.78502 0.02158 0.03278 0.0
H342 H 0.81613 0.01622 0.97375 0.0
H343 H 0.87302 0.03018 0.07229 0.0
H344 H 0.94774 0.03482 0.8519 0.0
H345 H 0.91671 0.03721 0.9121 0.0
C346 C 0.5304 0.80402 0.11308 0.0
C347 C 0.51204 0.7934 0.12466 0.0
C348 C 0.53098 0.82022 0.0719 0.0
C349 C 0.5021 0.84334 0.94589 0.0
H350 H 0.53294 0.89252 0.98831 0.0
C351 C 0.4915 0.92073 0.82501 0.0
C352 C 0.50913 0.93236 0.8112 0.0
C353 C 0.49272 0.90315 0.86064 0.0
C354 C 0.52446 0.87881 0.97547 0.0
H355 H 0.48011 0.79063 0.10079 0.0
H356 H 0.4809 0.81921 0.02981 0.0
H357 H 0.53354 0.86282 0.05483 0.0
H358 H 0.54193 0.93452 0.82405 0.0
H359 H 0.54401 0.90382 0.88643 0.0
H360 H 0.49273 0.85954 0.86707 0.0
C361 C 0.49493 0.81503 0.05207 0.0
C362 C 0.52482 0.86176 0.01353 0.0
C363 C 0.49439 0.79879 0.09306 0.0
C364 C 0.52804 0.92594 0.83382 0.0
C365 C 0.52923 0.90841 0.86981 0.0
C366 C 0.50167 0.86043 0.908 0.0
C367 C 0.51319 0.82606 0.04132 0.0
C368 C 0.51352 0.84386 -0.00056 0.0
C369 C 0.51159 0.89683 0.8836 0.0
C370 C 0.51272 0.8784 0.9226 0.0
H371 H 0.54426 0.79985 0.13631 0.0
H372 H 0.54538 0.82812 0.06388 0.0
H373 H 0.49352 0.82969 0.93306 0.0
H374 H 0.47668 0.9252 0.80838 0.0
H375 H 0.47882 0.89469 0.87108 0.0
C376 C 0.71549 0.50547 0.06469 0.0
C377 C 0.71337 0.51056 0.12586 0.0
C378 C 0.69832 0.5036 0.02777 0.0
C379 C 0.6429 0.49413 0.03113 0.0
H380 H 0.64373 0.52029 0.87437 0.0
C381 C 0.57904 0.48186 0.85385 0.0
C382 C 0.57185 0.49973 0.82606 0.0
C383 C 0.5965 0.48263 0.89001 0.0
C384 C 0.64327 0.51294 0.91807 0.0
H385 H 0.69174 0.51761 0.19668 0.0
H386 H 0.6616 0.51415 0.13221 0.0
H387 H 0.67376 0.52276 0.93914 0.0
H388 H 0.57756 0.53238 0.81392 0.0
H389 H 0.60806 0.53363 0.87649 0.0
H390 H 0.61234 0.48442 0.01012 0.0
C391 C 0.67655 0.51153 0.11287 0.0
C392 C 0.6605 0.51421 0.95492 0.0
C393 C 0.69376 0.51359 0.14968 0.0
C394 C 0.58265 0.51832 0.83467 0.0
C395 C 0.6002 0.51904 0.87026 0.0
C396 C 0.62573 0.49268 0.99398 0.0
C397 C 0.67867 0.50662 0.05145 0.0
C398 C 0.66046 0.50492 0.01197 0.0
C399 C 0.60726 0.50123 0.89855 0.0
C400 C 0.62569 0.50218 0.93723 0.0
H401 H 0.73046 0.50299 0.04546 0.0
H402 H 0.70041 0.4996 0.98077 0.0
H403 H 0.64249 0.48668 0.07468 0.0
H404 H 0.57108 0.4673 0.84824 0.0
H405 H 0.6017 0.46863 0.91088 0.0
C406 C 0.0219 0.69774 0.09338 0.0
C407 C 0.0055 0.70201 0.13201 0.0
C408 C 0.02033 0.68191 0.05087 0.0
C409 C 0.99112 0.63413 0.01963 0.0
H410 H 0.01742 0.63818 0.86333 0.0
C411 C 0.00472 0.56305 0.87059 0.0
C412 C 0.0024 0.56494 0.80789 0.0
C413 C 0.00396 0.58032 0.90798 0.0
C414 C 0.00979 0.63686 0.90651 0.0
H415 H 0.97424 0.69409 0.15451 0.0
H416 H 0.97127 0.66654 0.07963 0.0
H417 H 0.0176 0.66782 0.93069 0.0
H418 H 0.99726 0.58657 0.73551 0.0
H419 H 0.99567 0.61669 0.80096 0.0
H420 H 0.98305 0.60329 0.99519 0.0
C421 C 0.98557 0.67498 0.08319 0.0
C422 C 0.01011 0.65379 0.94547 0.0
C423 C 0.9872 0.69078 0.12582 0.0
C424 C 0.99919 0.58455 0.78356 0.0
C425 C 0.99838 0.60184 0.82107 0.0
C426 C 0.99076 0.61723 0.98066 0.0
C427 C 0.00221 0.67017 0.04568 0.0
C428 C 0.00096 0.65257 0.00278 0.0
C429 C 0.00078 0.59994 0.88375 0.0
C430 C 1.00028 0.6183 0.92387 0.0
H431 H 0.03608 0.70641 0.09685 0.0
H432 H 0.0335 0.67855 0.02316 0.0
H433 H 0.98409 0.63255 0.06361 0.0
H434 H 0.00731 0.54822 0.89096 0.0
H435 H 0.00622 0.5783 0.9559 0.0
C436 C 0.00894 0.18839 0.29609 0.0
C437 C 0.02736 0.19697 0.31697 0.0
C438 C 0.99845 0.17372 0.33034 0.0
C439 C 0.99178 0.13132 0.38131 0.0
H440 H 0.99321 0.12753 0.55536 0.0
C441 C 0.99469 0.05467 0.50781 0.0
C442 C 0.98656 0.05339 0.56633 0.0
C443 C 0.99389 0.07308 0.47575 0.0
C444 C 0.99228 0.12842 0.50675 0.0
H445 H 0.04886 0.198 0.3906 0.0
H446 H 0.03081 0.17206 0.45046 0.0
H447 H 0.00181 0.15999 0.50689 0.0
H448 H 0.96946 0.06981 0.63469 0.0
H449 H 0.9677 0.10173 0.5782 0.0
H450 H 0.98245 0.09971 0.38112 0.0
C451 C 0.02411 0.17689 0.40836 0.0
C452 C 0.99747 0.147 0.47894 0.0
C453 C 0.03449 0.19174 0.37424 0.0
C454 C 0.97612 0.07036 0.58998 0.0
C455 C 0.97522 0.08872 0.55781 0.0
C456 C 0.98651 0.11278 0.40911 0.0
C457 C 0.0064 0.16711 0.38567 0.0
C458 C 0.99783 0.14852 0.41583 0.0
C459 C 0.98481 0.09054 0.50134 0.0
C460 C 0.98725 0.11094 0.47208 0.0
H461 H 0.00329 0.19221 0.25173 0.0
H462 H 0.98465 0.16683 0.31211 0.0
H463 H 0.99209 0.13181 0.33257 0.0
H464 H 0.00286 0.04191 0.48826 0.0
H465 H 0.00155 0.07394 0.43252 0.0
C466 C 0.30995 0.0109 0.35665 0.0
C467 C 0.30132 0.99982 0.30868 0.0
C468 C 0.32435 0.00173 0.39383 0.0
C469 C 0.36447 0.96427 0.38009 0.0
H470 H 0.37268 0.97636 0.54944 0.0
C471 C 0.42879 0.95828 0.58188 0.0
C472 C 0.44539 0.96782 0.55222 0.0
C473 C 0.40995 0.95602 0.5532 0.0
C474 C 0.37049 0.97248 0.50239 0.0
H475 H 0.3 0.9705 0.2628 0.0
H476 H 0.32519 0.95429 0.32813 0.0
H477 H 0.33996 0.98387 0.50277 0.0
H478 H 0.45564 0.98078 0.46726 0.0
H479 H 0.42276 0.97683 0.41727 0.0
H480 H 0.39529 0.95364 0.37917 0.0
C481 C 0.32082 0.96998 0.33723 0.0
C482 C 0.35181 0.97695 0.47563 0.0
C483 C 0.3063 0.97913 0.30035 0.0
C484 C 0.44318 0.97345 0.49153 0.0
C485 C 0.42433 0.97112 0.46278 0.0
C486 C 0.38321 0.95993 0.40677 0.0
C487 C 0.33053 0.98143 0.38296 0.0
C488 C 0.34879 0.9734 0.41385 0.0
C489 C 0.40732 0.96313 0.49414 0.0
C490 C 0.3866 0.9645 0.46782 0.0
H491 H 0.30656 0.02701 0.36286 0.0
H492 H 0.33173 0.01103 0.4282 0.0
H493 H 0.36269 0.96154 0.33222 0.0
H494 H 0.42998 0.95353 0.62845 0.0
H495 H 0.3972 0.94949 0.57811 0.0
C496 C 0.4843 0.30263 0.36458 0.0
C497 C 0.49225 0.29699 0.30838 0.0
C498 C 0.49435 0.31753 0.3995 0.0
C499 C 0.52038 0.34751 0.47211 0.0
H500 H 0.5367 0.39423 0.37428 0.0
C501 C 0.54118 0.42482 0.58191 0.0
C502 C 0.53085 0.44163 0.55729 0.0
C503 C 0.54221 0.40623 0.55055 0.0
C504 C 0.53229 0.3813 0.40226 0.0
H505 H 0.51737 0.30106 0.24597 0.0
H506 H 0.53538 0.32656 0.30776 0.0
H507 H 0.5276 0.36186 0.32584 0.0
H508 H 0.51491 0.45253 0.4783 0.0
H509 H 0.51655 0.42013 0.4239 0.0
H510 H 0.52384 0.3674 0.5483 0.0
C511 C 0.52123 0.31992 0.32454 0.0
C512 C 0.52732 0.36263 0.37457 0.0
C513 C 0.51109 0.30519 0.2895 0.0
C514 C 0.52296 0.43991 0.49867 0.0
C515 C 0.52396 0.4213 0.46735 0.0
C516 C 0.52532 0.36623 0.49982 0.0
C517 C 0.51252 0.32695 0.37865 0.0
C518 C 0.52079 0.34565 0.40905 0.0
C519 C 0.53296 0.40404 0.49385 0.0
C520 C 0.53081 0.38349 0.46506 0.0
H521 H 0.4696 0.29667 0.37934 0.0
H522 H 0.48708 0.32269 0.44063 0.0
H523 H 0.51564 0.33468 0.5 0.0
H524 H 0.54764 0.42566 0.62674 0.0
H525 H 0.54961 0.39335 0.57165 0.0
C526 C 0.20156 0.54008 0.35646 0.0
C527 C 0.20398 0.54502 0.29537 0.0
C528 C 0.18562 0.54859 0.38989 0.0
C529 C 0.13396 0.56277 0.35505 0.0
H530 H 0.12891 0.56727 0.52864 0.0
C531 C 0.0668 0.55792 0.54866 0.0
C532 C 0.06018 0.53769 0.53681 0.0
C533 C 0.08372 0.56619 0.51794 0.0
C534 C 0.13009 0.56653 0.47999 0.0
H535 H 0.19363 0.56464 0.22341 0.0
H536 H 0.16604 0.57982 0.28203 0.0
H537 H 0.16265 0.57062 0.48125 0.0
H538 H 0.06516 0.51063 0.48203 0.0
H539 H 0.09409 0.52528 0.42689 0.0
H540 H 0.10168 0.55719 0.35419 0.0
C541 C 0.17607 0.56906 0.30383 0.0
C542 C 0.14937 0.56829 0.45294 0.0
C543 C 0.19191 0.56047 0.27039 0.0
C544 C 0.06998 0.52627 0.49185 0.0
C545 C 0.08645 0.53467 0.46023 0.0
C546 C 0.11481 0.56081 0.38209 0.0
C547 C 0.17194 0.5622 0.36264 0.0
C548 C 0.15159 0.56562 0.39037 0.0
C549 C 0.09376 0.55451 0.47386 0.0
C550 C 0.11282 0.56185 0.4449 0.0
H551 H 0.2106 0.52811 0.37661 0.0
H552 H 0.18285 0.5429 0.43501 0.0
H553 H 0.13507 0.56037 0.30685 0.0
H554 H 0.05955 0.56692 0.58363 0.0
H555 H 0.08919 0.58149 0.52923 0.0
C556 C 0.05473 0.81058 0.13328 0.0
C557 C 0.03878 0.79805 0.11111 0.0
C558 C 0.06259 0.82671 0.0986 0.0
C559 C 0.06147 0.85192 0.94859 0.0
H560 H 0.05333 0.90146 0.04283 0.0
C561 C 0.06005 0.93429 0.84636 0.0
C562 C 0.04076 0.94294 0.85607 0.0
C563 C 0.0659 0.9169 0.87874 0.0
C564 C 0.05605 0.88778 0.01619 0.0
H565 H 0.02012 0.79117 0.03296 0.0
H566 H 0.03393 0.81924 0.97222 0.0
H567 H 0.05414 0.86829 0.09317 0.0
H568 H 0.01295 0.941 0.9089 0.0
H569 H 0.02346 0.9112 0.96686 0.0
H570 H 0.0623 0.8716 0.8712 0.0
C571 C 0.04037 0.81663 0.01638 0.0
C572 C 0.05664 0.86879 0.04494 0.0
C573 C 0.03245 0.80052 0.05119 0.0
C574 C 0.02789 0.93461 0.90058 0.0
C575 C 0.03392 0.91763 0.93383 0.0
C576 C 0.06115 0.87102 0.91986 0.0
C577 C 0.05472 0.83053 0.04098 0.0
C578 C 0.05861 0.85059 0.01126 0.0
C579 C 0.05277 0.90836 0.92236 0.0
C580 C 0.05767 0.889 0.95331 0.0
H581 H 0.06015 0.80878 0.179 0.0
H582 H 0.0739 0.83697 0.11828 0.0
H583 H 0.06307 0.83814 0.9216 0.0
H584 H 0.07016 0.94036 0.81186 0.0
H585 H 0.08049 0.90995 0.86916 0.0
C586 C 0.68842 0.06052 0.08988 0.0
C587 C 0.70202 0.04516 0.07173 0.0
C588 C 0.67319 0.06718 0.05087 0.0
C589 C 0.653 0.06166 0.89394 0.0
H590 H 0.60076 0.05753 0.97607 0.0
C591 C 0.58234 0.02529 0.78841 0.0
C592 C 0.56292 0.03351 0.79896 0.0
C593 C 0.59956 0.03375 0.816 0.0
C594 C 0.61517 0.05925 0.95245 0.0
H595 H 0.71147 0.02599 0.99709 0.0
H596 H 0.68486 0.03732 0.92929 0.0
H597 H 0.63193 0.06069 0.03468 0.0
H598 H 0.54639 0.05739 0.84577 0.0
H599 H 0.57674 0.07194 0.89591 0.0
H600 H 0.63613 0.05874 0.81177 0.0
C601 C 0.68599 0.0445 0.97324 0.0
C602 C 0.63311 0.06111 0.98603 0.0
C603 C 0.70129 0.03795 0.01214 0.0
C604 C 0.56116 0.05071 0.83698 0.0
C605 C 0.57848 0.05902 0.86555 0.0
C606 C 0.63506 0.05967 0.86041 0.0
C607 C 0.67119 0.05849 0.99309 0.0
C608 C 0.6523 0.06145 0.95724 0.0
C609 C 0.59783 0.05053 0.85541 0.0
C610 C 0.61606 0.05758 0.88948 0.0
H611 H 0.68885 0.06654 0.13543 0.0
H612 H 0.66233 0.07831 0.06712 0.0
H613 H 0.66748 0.06234 0.87033 0.0
H614 H 0.58428 0.01217 0.7589 0.0
H615 H 0.61419 0.02665 0.80807 0.0
C616 C 0.48287 0.69615 0.03254 0.0
C617 C 0.47671 0.69873 0.0927 0.0
C618 C 0.47446 0.68026 0.99761 0.0
C619 C 0.45741 0.62855 0.02739 0.0
H620 H 0.4528 0.62479 0.85357 0.0
C621 C 0.48803 0.5629 0.8847 0.0
C622 C 0.47518 0.55361 0.84181 0.0
C623 C 0.48157 0.58 0.91707 0.0
C624 C 0.45362 0.62565 0.90225 0.0
H625 H 0.45512 0.68865 0.16093 0.0
H626 H 0.44044 0.66092 0.09992 0.0
H627 H 0.45179 0.65854 0.90299 0.0
H628 H 0.44548 0.55464 0.79932 0.0
H629 H 0.4344 0.58533 0.85498 0.0
H630 H 0.46077 0.59588 0.02626 0.0
C631 C 0.45199 0.67088 0.08011 0.0
C632 C 0.45317 0.64491 0.93043 0.0
C633 C 0.46037 0.68674 0.11494 0.0
C634 C 0.45555 0.56145 0.83268 0.0
C635 C 0.44927 0.57899 0.86409 0.0
C636 C 0.45815 0.60941 -0.0008 0.0
C637 C 0.45978 0.66675 0.02237 0.0
C638 C 0.4557 0.64658 0.99315 0.0
C639 C 0.46234 0.58844 0.90619 0.0
C640 C 0.45693 0.60787 0.93633 0.0
H641 H 0.49548 0.70511 0.0143 0.0
H642 H 0.48085 0.67744 0.95334 0.0
H643 H 0.45969 0.62929 0.07567 0.0
H644 H 0.50324 0.55714 0.89244 0.0
H645 H 0.49197 0.58716 0.94897 0.0
C646 C 0.81954 0.52529 0.00472 0.0
C647 C 0.80682 0.5134 0.04203 0.0
C648 C 0.83365 0.51583 0.96683 0.0
C649 C 0.85746 0.49022 0.87525 0.0
H650 H 0.89507 0.45673 0.96589 0.0
C651 C 0.93138 0.46227 0.76764 0.0
C652 C 0.94871 0.4694 0.7992 0.0
C653 C 0.91224 0.46179 0.79543 0.0
C654 C 0.88456 0.46582 0.93987 0.0
H655 H 0.7982 0.48252 0.06847 0.0
H656 H 0.82327 0.46585 0.00269 0.0
H657 H 0.86318 0.46788 0.01281 0.0
H658 H 0.95979 0.47955 0.88653 0.0
H659 H 0.92636 0.47845 0.93516 0.0
H660 H 0.87912 0.48886 0.80312 0.0
C661 C 0.82211 0.48242 0.00211 0.0
C662 C 0.86628 0.47208 0.96647 0.0
C663 C 0.80772 0.49191 0.0392 0.0
C664 C 0.94677 0.47411 0.8608 0.0
C665 C 0.92761 0.47342 0.88874 0.0
C666 C 0.87556 0.48372 0.84836 0.0
C667 C 0.83552 0.49435 0.96673 0.0
C668 C 0.85288 0.48483 0.93495 0.0
C669 C 0.91007 0.46814 0.85552 0.0
C670 C 0.88954 0.47194 0.88099 0.0
H671 H 0.81923 0.54191 0.00709 0.0
H672 H 0.84396 0.52537 0.94048 0.0
H673 H 0.84736 0.50004 0.8501 0.0
H674 H 0.9323 0.45834 0.72026 0.0
H675 H 0.89898 0.4574 0.76908 0.0
C676 C 0.07896 0.17469 0.14462 0.0
C677 C 0.06994 0.19377 0.13361 0.0
C678 C 0.08118 0.1604 0.09812 0.0
C679 C 0.05267 0.14566 0.9661 0.0
H680 H 0.09446 0.10468 0.94402 0.0
C681 C 0.0382 0.07791 0.80785 0.0
C682 C 0.04451 0.05847 0.82683 0.0
C683 C 0.04523 0.09564 0.8368 0.0
C684 C 0.0826 0.11593 0.94996 0.0
H685 H 0.05787 0.21366 0.0648 0.0
H686 H 0.06177 0.18864 0.98311 0.0
H687 H 0.10124 0.1346 0.00844 0.0
H688 H 0.0637 0.04226 0.88948 0.0
H689 H 0.07529 0.07331 0.94265 0.0
H690 H 0.03353 0.12677 0.91125 0.0
C691 C 0.06699 0.1847 0.02781 0.0
C692 C 0.08655 0.13312 0.98644 0.0
C693 C 0.06492 0.19907 0.07433 0.0
C694 C 0.05858 0.0571 0.87416 0.0
C695 C 0.0653 0.07491 0.90423 0.0
C696 C 0.04864 0.12846 0.93042 0.0
C697 C 0.07426 0.16489 0.03988 0.0
C698 C 0.07153 0.14807 0.99525 0.0
C699 C 0.05835 0.0944 0.88662 0.0
C700 C 0.06345 0.11324 0.92215 0.0
H701 H 0.08302 0.17031 0.19004 0.0
H702 H 0.08675 0.14526 0.10891 0.0
H703 H 0.04058 0.15661 0.97322 0.0
H704 H 0.0277 0.07945 0.77055 0.0
H705 H 0.04004 0.11033 0.82056 0.0
C706 C 0.307 0.02909 0.05987 0.0
C707 C 0.30772 0.03773 0.11774 0.0
C708 C 0.32274 0.03303 0.01864 0.0
C709 C 0.37753 0.04716 0.0209 0.0
H710 H 0.37177 0.04204 0.84776 0.0
C711 C 0.44675 0.04165 0.85699 0.0
C712 C 0.44552 0.02421 0.81954 0.0
C713 C 0.42967 0.04789 0.89023 0.0
C714 C 0.37358 0.04364 0.89605 0.0
H715 H 0.3243 0.05856 0.17658 0.0
H716 H 0.35134 0.06625 0.10384 0.0
H717 H 0.34141 0.04617 0.91043 0.0
H718 H 0.42529 1.00005 0.78635 0.0
H719 H 0.39568 0.01107 0.84349 0.0
H720 H 0.40972 0.04432 0.00622 0.0
C721 C 0.33909 0.05586 0.09069 0.0
C722 C 0.3562 0.04589 0.93202 0.0
C723 C 0.32352 0.05166 0.13215 0.0
C724 C 0.42683 0.01345 0.81513 0.0
C725 C 0.40978 0.01988 0.84735 0.0
C726 C 0.39491 0.04517 0.98482 0.0
C727 C 0.33939 0.0459 0.03435 0.0
C728 C 0.35789 0.04701 0.99513 0.0
C729 C 0.41102 0.03707 0.88545 0.0
C730 C 0.39305 0.04273 0.92228 0.0
H731 H 0.29508 0.01812 0.04808 0.0
H732 H 0.32247 0.02489 0.97606 0.0
H733 H 0.37951 0.04765 0.06928 0.0
H734 H 0.46093 0.05026 0.86121 0.0
H735 H 0.431 0.06119 0.91946 0.0
C736 C 0.44231 0.31896 0.13224 0.0
C737 C 0.45205 0.30022 0.12124 0.0
C738 C 0.44037 0.33339 0.08631 0.0
C739 C 0.47032 0.34972 0.95869 0.0
H740 H 0.42715 0.38882 0.93214 0.0
C741 C 0.48396 0.41785 0.80206 0.0
C742 C 0.47632 0.43699 0.81974 0.0
C743 C 0.47753 0.39992 0.83082 0.0
C744 C 0.43941 0.37812 0.93941 0.0
H745 H 0.4658 0.28104 0.05289 0.0
H746 H 0.46243 0.30632 0.97219 0.0
H747 H 0.42063 0.35857 0.99499 0.0
H748 H 0.45544 0.45238 0.88009 0.0
H749 H 0.44487 0.42101 0.93298 0.0
H750 H 0.48952 0.3695 0.90679 0.0
C751 C 0.45639 0.30988 0.01644 0.0
C752 C 0.4356 0.36073 0.97495 0.0
C753 C 0.45817 0.29536 0.06236 0.0
C754 C 0.46161 0.4378 0.86578 0.0
C755 C 0.45547 0.41979 0.89567 0.0
C756 C 0.47419 0.36713 0.924 0.0
C757 C 0.44831 0.32937 0.0287 0.0
C758 C 0.45109 0.34644 0.98524 0.0
C759 C 0.46365 0.40065 0.87917 0.0
C760 C 0.45886 0.38167 0.91409 0.0
H761 H 0.43742 0.32299 0.17739 0.0
H762 H 0.43415 0.34828 0.09721 0.0
H763 H 0.48274 0.33929 0.96707 0.0
H764 H 0.49497 0.41671 0.76572 0.0
H765 H 0.48369 0.38547 0.81542 0.0
C766 C 0.18273 0.48421 0.15221 0.0
C767 C 0.20035 0.49428 0.1308 0.0
C768 C 0.16772 0.47739 0.11227 0.0
C769 C 0.15437 0.46804 0.9528 0.0
H770 H 0.10201 0.48953 0.00258 0.0
C771 C 0.08708 0.47932 0.78852 0.0
C772 C 0.06701 0.47803 0.81098 0.0
C773 C 0.10375 0.4772 0.82703 0.0
C774 C 0.11634 0.48296 0.9883 0.0
H775 H 0.21693 0.50396 0.05123 0.0
H776 H 0.19047 0.49204 0.98055 0.0
H777 H 0.13095 0.49232 0.06989 0.0
H778 H 0.04871 0.47209 0.89071 0.0
H779 H 0.07773 0.46765 0.9575 0.0
H780 H 0.13968 0.45881 0.87078 0.0
C781 C 0.18836 0.48928 0.02827 0.0
C782 C 0.133 0.48464 0.02697 0.0
C783 C 0.20349 0.49609 0.0685 0.0
C784 C 0.06398 0.47344 0.87215 0.0
C785 C 0.08065 0.47103 0.9105 0.0
C786 C 0.13758 0.46616 0.91412 0.0
C787 C 0.16997 0.48064 0.05007 0.0
C788 C 0.15223 0.47736 0.00957 0.0
C789 C 0.10076 0.47348 0.88883 0.0
C790 C 0.11837 0.47381 0.93119 0.0
H791 H 0.18008 0.48261 0.2002 0.0
H792 H 0.15387 0.47046 0.13027 0.0
H793 H 0.16902 0.46223 0.93837 0.0
H794 H 0.08996 0.48289 0.7416 0.0
H795 H 0.11895 0.47941 0.80871 0.0
C796 C 0.01248 0.80215 0.34176 0.0
C797 C 0.9984 0.79457 0.2994 0.0
C798 C 0.00643 0.81621 0.38564 0.0
C799 C 0.97059 0.85775 0.40236 0.0
H800 H 0.99341 0.8614 0.56307 0.0
C801 C 0.987 0.93426 0.52475 0.0
C802 C 0.98461 0.93523 0.58765 0.0
C803 C 0.98368 0.91579 0.49379 0.0
C804 C 0.9866 0.86052 0.51871 0.0
H805 H 0.96683 0.79481 0.27111 0.0
H806 H 0.95614 0.81963 0.34808 0.0
H807 H 0.99654 0.82961 0.50555 0.0
H808 H 0.97572 0.9177 0.66683 0.0
H809 H 0.96996 0.88554 0.61266 0.0
H810 H 0.96127 0.88891 0.41475 0.0
C811 C 0.97185 0.81464 0.34735 0.0
C812 C 0.98853 0.84235 0.48564 0.0
C813 C 0.97788 0.80032 0.30379 0.0
C814 C 0.97784 0.91752 0.61842 0.0
C815 C 0.97462 0.89904 0.58747 0.0
C816 C 0.96877 0.87598 0.43531 0.0
C817 C 0.98622 0.82319 0.38754 0.0
C818 C 0.98103 0.84095 0.42652 0.0
C819 C 0.97795 0.89785 0.52502 0.0
C820 C 0.97722 0.87773 0.49325 0.0
H821 H 0.02842 0.798 0.33884 0.0
H822 H 0.01792 0.82265 0.41547 0.0
H823 H 0.9648 0.85722 0.35672 0.0
H824 H 0.99214 0.94758 0.49956 0.0
H825 H 0.98656 0.91535 0.44573 0.0
C826 C 0.69442 0.01825 0.30322 0.0
C827 C 0.70313 0.00517 0.26023 0.0
C828 C 0.67976 0.01075 0.34355 0.0
C829 C 0.63893 0.97296 0.34861 0.0
H830 H 0.6345 0.98971 0.51585 0.0
C831 C 0.58016 0.96795 0.56588 0.0
C832 C 0.56232 0.97569 0.53958 0.0
C833 C 0.59827 0.96686 0.53285 0.0
C834 C 0.63561 0.98463 0.46945 0.0
H835 H 0.70404 0.97399 0.22643 0.0
H836 H 0.67809 0.96079 0.2969 0.0
H837 H 0.66611 0.99656 0.46054 0.0
H838 H 0.54926 0.98696 0.45648 0.0
H839 H 0.58095 0.98495 0.39871 0.0
H840 H 0.60811 0.96176 0.35692 0.0
C841 C 0.68275 0.97679 0.29968 0.0
C842 C 0.65366 0.98867 0.43776 0.0
C843 C 0.69769 0.98425 0.25991 0.0
C844 C 0.5627 0.98098 0.47821 0.0
C845 C 0.58085 0.97977 0.44503 0.0
C846 C 0.62077 0.96912 0.38014 0.0
C847 C 0.67329 0.9901 0.34084 0.0
C848 C 0.65537 0.98322 0.37675 0.0
C849 C 0.59896 0.97333 0.47263 0.0
C850 C 0.61881 0.97524 0.44061 0.0
H851 H 0.69825 0.0345 0.3036 0.0
H852 H 0.67259 0.0214 0.37436 0.0
H853 H 0.63977 0.96878 0.3014 0.0
H854 H 0.58042 0.96355 0.61289 0.0
H855 H 0.61192 0.96154 0.555 0.0
C856 C 0.53916 0.69226 0.27892 0.0
C857 C 0.51883 0.69875 0.27703 0.0
C858 C 0.54514 0.67765 0.32128 0.0
C859 C 0.54543 0.63451 0.3763 0.0
H860 H 0.52502 0.63275 0.54036 0.0
C861 C 0.52822 0.55955 0.50516 0.0
C862 C 0.53153 0.55911 0.56769 0.0
C863 C 0.53176 0.57758 0.47253 0.0
C864 C 0.53115 0.63309 0.49501 0.0
H865 H 0.48911 0.69622 0.31934 0.0
H866 H 0.49956 0.67108 0.39405 0.0
H867 H 0.52213 0.66426 0.48213 0.0
H868 H 0.54241 0.57699 0.64421 0.0
H869 H 0.54857 0.60836 0.58717 0.0
H870 H 0.5538 0.60309 0.38852 0.0
C871 C 0.51092 0.67716 0.36312 0.0
C872 C 0.52936 0.6511 0.46157 0.0
C873 C 0.50491 0.6915 0.32038 0.0
C874 C 0.5395 0.5768 0.5962 0.0
C875 C 0.54297 0.59483 0.56361 0.0
C876 C 0.5471 0.61643 0.40964 0.0
C877 C 0.53091 0.66958 0.36279 0.0
C878 C 0.536 0.65184 0.4014 0.0
C879 C 0.53867 0.59557 0.50173 0.0
C880 C 0.53953 0.61539 0.46887 0.0
H881 H 0.55006 0.69752 0.24538 0.0
H882 H 0.56066 0.67214 0.32027 0.0
H883 H 0.55053 0.63457 0.32984 0.0
H884 H 0.52215 0.54621 0.48171 0.0
H885 H 0.52813 0.5777 0.42496 0.0
C886 C 0.82614 0.55728 0.238 0.0
C887 C 0.8088 0.54451 0.24464 0.0
C888 C 0.84087 0.5584 0.28335 0.0
C889 C 0.86208 0.52364 0.39105 0.0
H890 H 0.89458 0.57012 0.44674 0.0
C891 C 0.92873 0.51114 0.55121 0.0
C892 C 0.94664 0.52295 0.54356 0.0
C893 C 0.91089 0.51615 0.52103 0.0
C894 C 0.88579 0.55696 0.43107 0.0
H895 H 0.79241 0.52426 0.30563 0.0
H896 H 0.81818 0.52619 0.38499 0.0
H897 H 0.86411 0.57591 0.38556 0.0
H898 H 0.95979 0.54961 0.49928 0.0
H899 H 0.9287 0.5579 0.44368 0.0
H900 H 0.88398 0.50456 0.43291 0.0
C901 C 0.82039 0.53526 0.34462 0.0
C902 C 0.86826 0.56032 0.39653 0.0
C903 C 0.80557 0.5343 0.29949 0.0
C904 C 0.94621 0.5402 0.50576 0.0
C905 C 0.92835 0.545 0.47435 0.0
C906 C 0.87965 0.52028 0.42457 0.0
C907 C 0.83858 0.5466 0.33581 0.0
C908 C 0.85623 0.54365 0.37639 0.0
C909 C 0.91051 0.53285 0.4811 0.0
C910 C 0.89175 0.53686 0.44533 0.0
H911 H 0.82891 0.56536 0.19611 0.0
H912 H 0.85474 0.56721 0.27529 0.0
H913 H 0.85343 0.51047 0.37473 0.0
H914 H 0.92842 0.49803 0.58116 0.0
H915 H 0.89736 0.50681 0.52908 0.0
loop_
_geom_bond_atom_site_label_1
_geom_bond_atom_site_label_2
_geom_bond_distance
_geom_bond_site_symmetry_2
_ccdc_geom_bond_type
H0 C7 0.929 . S
H1 C10 0.930 . S
H2 C12 0.929 . S
H3 C4 0.969 . S
C4 H3 0.969 . S
C4 O5 1.550 1_556 S
C4 H6 0.973 . S
O5 C4 1.550 1_554 S
O5 C11 1.412 . S
H6 C4 0.973 . S
C7 H0 0.929 . S
C7 C8 1.400 . S
C7 C9 1.364 . S
C8 C7 1.400 . S
C8 C12 1.377 . S
C9 C7 1.364 . S
C9 C10 1.374 1_554 S
C10 H1 0.930 . S
C10 C9 1.374 1_556 S
C10 C11 1.383 1_556 S
C11 O5 1.412 . S
C11 C10 1.383 1_554 S
C11 C12 1.394 . S
C12 H2 0.929 . S
C12 C8 1.377 . S
C12 C11 1.394 . S
H13 C20 0.930 . S
H14 C23 0.929 . S
H15 C25 0.928 . S
H16 C17 0.969 . S
C17 H16 0.969 . S
C17 O18 1.550 1_455 S
C17 H19 0.973 1_455 S
O18 C17 1.550 1_655 S
O18 C24 1.411 1_655 S
H19 C17 0.973 1_655 S
C20 H13 0.930 . S
C20 C21 1.400 . S
C20 C22 1.364 . S
C21 C20 1.400 . S
C21 C25 1.377 1_455 S
C22 C20 1.364 . S
C22 C23 1.374 1_455 S
C23 H14 0.929 . S
C23 C22 1.374 1_655 S
C23 C24 1.383 1_655 S
C24 O18 1.411 1_455 S
C24 C23 1.383 1_455 S
C24 C25 1.394 1_455 S
C25 H15 0.928 . S
C25 C21 1.377 1_655 S
C25 C24 1.394 1_655 S
H26 C33 0.929 . S
H27 C36 0.929 . S
H28 C38 0.928 1_565 S
H29 C30 0.969 . S
C30 H29 0.969 . S
C30 O31 1.550 1_545 S
C30 H32 0.973 1_544 S
O31 C30 1.550 1_565 S
O31 C37 1.407 1_565 S
H32 C30 0.973 1_566 S
C33 H26 0.929 . S
C33 C34 1.400 . S
C33 C35 1.364 . S
C34 C33 1.400 . S
C34 C38 1.376 . S
C35 C33 1.364 . S
C35 C36 1.374 1_545 S
C36 H27 0.929 . S
C36 C35 1.374 1_565 S
C36 C37 1.383 1_565 S
C37 O31 1.407 1_545 S
C37 C36 1.383 1_545 S
C37 C38 1.394 . S
C38 H28 0.928 1_545 S
C38 C34 1.376 . S
C38 C37 1.394 . S
H39 C46 0.929 . S
H40 C49 0.930 1_556 S
H41 C51 0.929 . S
H42 C43 0.969 . S
C43 H42 0.969 . S
C43 O44 1.550 . S
C43 H45 0.973 1_554 S
O44 C43 1.550 . S
O44 C50 1.412 . S
H45 C43 0.973 1_556 S
C46 H39 0.929 . S
C46 C47 1.400 . S
C46 C48 1.364 . S
C47 C46 1.400 . S
C47 C51 1.377 . S
C48 C46 1.364 . S
C48 C49 1.374 . S
C49 H40 0.930 1_554 S
C49 C48 1.374 . S
C49 C50 1.383 . S
C50 O44 1.412 . S
C50 C49 1.383 . S
C50 C51 1.394 . S
C51 H41 0.929 . S
C51 C47 1.377 . S
C51 C50 1.394 . S
H52 C59 0.929 . S
H53 C62 0.930 . S
H54 C64 0.929 . S
H55 C56 0.969 . S
C56 H55 0.969 . S
C56 O57 1.550 . S
C56 H58 0.973 . S
O57 C56 1.550 . S
O57 C63 1.412 . S
H58 C56 0.973 . S
C59 H52 0.929 . S
C59 C60 1.400 . S
C59 C61 1.364 . S
C60 C59 1.400 . S
C60 C64 1.377 . S
C61 C59 1.364 . S
C61 C62 1.374 . S
C62 H53 0.930 . S
C62 C61 1.374 . S
C62 C63 1.383 . S
C63 O57 1.412 . S
C63 C62 1.383 . S
C63 C64 1.394 . S
C64 H54 0.929 . S
C64 C60 1.377 . S
C64 C63 1.394 . S
H65 C72 0.929 . S
H66 C75 0.930 . S
H67 C77 0.929 . S
H68 C69 0.969 . S
C69 H68 0.969 . S
C69 O70 1.550 . S
C69 H71 0.973 . S
O70 C69 1.550 . S
O70 C76 1.412 . S
H71 C69 0.973 . S
C72 H65 0.929 . S
C72 C73 1.400 . S
C72 C74 1.364 . S
C73 C72 1.400 . S
C73 C77 1.377 . S
C74 C72 1.364 . S
C74 C75 1.374 . S
C75 H66 0.930 . S
C75 C74 1.374 . S
C75 C76 1.383 . S
C76 O70 1.412 . S
C76 C75 1.383 . S
C76 C77 1.394 . S
C77 H67 0.929 . S
C77 C73 1.377 . S
C77 C76 1.394 . S
H78 C85 0.929 . S
H79 C88 0.930 . S
H80 C90 0.929 . S
H81 C82 0.969 . S
C82 H81 0.969 . S
C82 O83 1.550 . S
C82 H84 0.973 . S
O83 C82 1.550 . S
O83 C89 1.412 . S
H84 C82 0.973 . S
C85 H78 0.929 . S
C85 C86 1.400 . S
C85 C87 1.364 . S
C86 C85 1.400 . S
C86 C90 1.377 . S
C87 C85 1.364 . S
C87 C88 1.374 . S
C88 H79 0.930 . S
C88 C87 1.374 . S
C88 C89 1.383 . S
C89 O83 1.412 . S
C89 C88 1.383 . S
C89 C90 1.394 . S
C90 H80 0.929 . S
C90 C86 1.377 . S
C90 C89 1.394 . S
H91 C98 0.929 . S
H92 C101 0.930 . S
H93 C103 0.929 . S
H94 C95 0.969 . S
C95 H94 0.969 . S
C95 O96 1.550 . S
C95 H97 0.973 . S
O96 C95 1.550 . S
O96 C102 1.412 . S
H97 C95 0.973 . S
C98 H91 0.929 . S
C98 C99 1.400 . S
C98 C100 1.364 . S
C99 C98 1.400 . S
C99 C103 1.377 . S
C100 C98 1.364 . S
C100 C101 1.374 . S
C101 H92 0.930 . S
C101 C100 1.374 . S
C101 C102 1.383 . S
C102 O96 1.412 . S
C102 C101 1.383 . S
C102 C103 1.394 . S
C103 H93 0.929 . S
C103 C99 1.377 . S
C103 C102 1.394 . S
O104 Zn105 1.956 . S
O104 C120 1.225 1_545 S
Zn105 O104 1.956 . S
Zn105 O106 1.948 1_545 S
Zn105 O112 1.950 . S
Zn105 O117 1.887 1_545 S
O106 Zn105 1.948 1_565 S
O106 Zn107 1.903 1_465 S
O106 Zn108 1.952 . S
O106 Zn109 1.963 1_455 S
Zn107 O106 1.903 1_645 S
Zn107 O110 1.933 . S
Zn107 O113 1.941 1_655 S
Zn107 O114 1.965 1_655 S
Zn108 O106 1.952 . S
Zn108 O115 1.938 1_565 S
Zn108 O116 1.906 . S
Zn108 O126 1.953 . S
Zn109 O106 1.963 1_655 S
Zn109 O111 1.932 . S
Zn109 O118 1.977 . S
Zn109 O119 1.910 1_655 S
O110 Zn107 1.933 . S
O110 C121 1.226 . S
O111 Zn109 1.932 . S
O111 C121 1.307 1_565 S
O112 Zn105 1.950 . S
O112 C123 1.253 . S
O113 Zn107 1.941 1_455 S
O113 C123 1.283 . S
O114 Zn107 1.965 1_455 S
O114 C122 1.303 . S
O115 Zn108 1.938 1_545 S
O115 C122 1.247 . S
O116 Zn108 1.906 . S
O116 C124 1.304 1_455 S
O117 Zn105 1.887 1_565 S
O117 C125 1.311 . S
O118 Zn109 1.977 . S
O118 C124 1.272 . S
O119 Zn109 1.910 1_455 S
O119 C125 1.231 . S
C120 O104 1.225 1_565 S
C120 O126 1.298 . S
C121 O110 1.226 . S
C121 O111 1.307 1_545 S
C122 O114 1.303 . S
C122 O115 1.247 . S
C123 O112 1.253 . S
C123 O113 1.283 . S
C124 O116 1.304 1_655 S
C124 O118 1.272 . S
C125 O117 1.311 . S
C125 O119 1.231 . S
O126 Zn108 1.953 . S
O126 C120 1.298 . S
O127 Zn128 1.953 . S
O127 C143 1.225 . S
Zn128 O127 1.953 . S
Zn128 O129 1.949 . S
Zn128 O135 1.919 . S
Zn128 O140 1.924 . S
O129 Zn128 1.949 . S
O129 Zn130 1.923 1_545 S
O129 Zn131 1.950 . S
O129 Zn132 1.945 1_545 S
Zn130 O129 1.923 1_565 S
Zn130 O133 1.933 . S
Zn130 O136 1.941 . S
Zn130 O137 1.965 . S
Zn131 O129 1.950 . S
Zn131 O138 1.938 . S
Zn131 O139 1.906 . S
Zn131 O149 1.953 . S
Zn132 O129 1.945 1_565 S
Zn132 O134 1.932 . S
Zn132 O141 1.977 . S
Zn132 O142 1.910 1_565 S
O133 Zn130 1.933 . S
O133 C144 1.226 . S
O134 Zn132 1.932 . S
O134 C144 1.307 . S
O135 Zn128 1.919 . S
O135 C146 1.253 . S
O136 Zn130 1.941 . S
O136 C146 1.283 1_565 S
O137 Zn130 1.965 . S
O137 C145 1.303 1_565 S
O138 Zn131 1.938 . S
O138 C145 1.247 . S
O139 Zn131 1.906 . S
O139 C147 1.304 1_545 S
O140 Zn128 1.924 . S
O140 C148 1.311 . S
O141 Zn132 1.977 . S
O141 C147 1.272 . S
O142 Zn132 1.910 1_545 S
O142 C148 1.231 . S
C143 O127 1.225 . S
C143 O149 1.298 . S
C144 O133 1.226 . S
C144 O134 1.307 . S
C145 O137 1.303 1_545 S
C145 O138 1.247 . S
C146 O135 1.253 . S
C146 O136 1.283 1_545 S
C147 O139 1.304 1_565 S
C147 O141 1.272 . S
C148 O140 1.311 . S
C148 O142 1.231 . S
O149 Zn131 1.953 . S
O149 C143 1.298 . S
O150 Zn151 1.953 . S
O150 C166 1.225 . S
Zn151 O150 1.953 . S
Zn151 O152 1.949 . S
Zn151 O158 1.919 . S
Zn151 O163 1.924 . S
O152 Zn151 1.949 . S
O152 Zn153 1.923 . S
O152 Zn154 1.950 . S
O152 Zn155 1.945 . S
Zn153 O152 1.923 . S
Zn153 O156 1.933 . S
Zn153 O159 1.941 . S
Zn153 O160 1.965 . S
Zn154 O152 1.950 . S
Zn154 O161 1.938 . S
Zn154 O162 1.906 . S
Zn154 O172 1.953 . S
Zn155 O152 1.945 . S
Zn155 O157 1.932 . S
Zn155 O164 1.977 . S
Zn155 O165 1.910 . S
O156 Zn153 1.933 . S
O156 C167 1.226 . S
O157 Zn155 1.932 . S
O157 C167 1.307 . S
O158 Zn151 1.919 . S
O158 C169 1.253 . S
O159 Zn153 1.941 . S
O159 C169 1.283 . S
O160 Zn153 1.965 . S
O160 C168 1.303 . S
O161 Zn154 1.938 . S
O161 C168 1.247 . S
O162 Zn154 1.906 . S
O162 C170 1.304 . S
O163 Zn151 1.924 . S
O163 C171 1.311 . S
O164 Zn155 1.977 . S
O164 C170 1.272 . S
O165 Zn155 1.910 . S
O165 C171 1.231 . S
C166 O150 1.225 . S
C166 O172 1.298 . S
C167 O156 1.226 . S
C167 O157 1.307 . S
C168 O160 1.303 . S
C168 O161 1.247 . S
C169 O158 1.253 . S
C169 O159 1.283 . S
C170 O162 1.304 . S
C170 O164 1.272 . S
C171 O163 1.311 . S
C171 O165 1.231 . S
O172 Zn154 1.953 . S
O172 C166 1.298 . S
O173 Zn174 1.926 1_655 S
O173 C189 1.225 . S
Zn174 O173 1.926 1_455 S
Zn174 O175 1.949 . S
Zn174 O181 1.919 . S
Zn174 O186 1.953 . S
O175 Zn174 1.949 . S
O175 Zn176 1.918 1_455 S
O175 Zn177 1.929 1_455 S
O175 Zn178 1.973 . S
Zn176 O175 1.918 1_655 S
Zn176 O179 1.933 1_655 S
Zn176 O182 1.941 . S
Zn176 O183 1.965 . S
Zn177 O175 1.929 1_655 S
Zn177 O184 1.938 . S
Zn177 O185 1.906 . S
Zn177 O195 1.953 . S
Zn178 O175 1.973 . S
Zn178 O180 1.932 . S
Zn178 O187 1.977 . S
Zn178 O188 1.910 . S
O179 Zn176 1.933 1_455 S
O179 C190 1.226 . S
O180 Zn178 1.932 . S
O180 C190 1.307 . S
O181 Zn174 1.919 . S
O181 C192 1.252 . S
O182 Zn176 1.941 . S
O182 C192 1.284 1_655 S
O183 Zn176 1.965 . S
O183 C191 1.303 . S
O184 Zn177 1.938 . S
O184 C191 1.247 . S
O185 Zn177 1.906 . S
O185 C193 1.304 1_655 S
O186 Zn174 1.953 . S
O186 C194 1.311 . S
O187 Zn178 1.977 . S
O187 C193 1.272 . S
O188 Zn178 1.910 . S
O188 C194 1.231 . S
C189 O173 1.225 . S
C189 O195 1.298 . S
C190 O179 1.226 . S
C190 O180 1.307 . S
C191 O183 1.303 . S
C191 O184 1.247 . S
C192 O181 1.252 . S
C192 O182 1.284 1_455 S
C193 O185 1.304 1_455 S
C193 O187 1.272 . S
C194 O186 1.311 . S
C194 O188 1.231 . S
O195 Zn177 1.953 . S
O195 C189 1.298 . S
C196 C197 1.349 1_565 S
C196 C198 1.327 . S
C196 H221 0.950 . S
C197 C196 1.349 1_545 S
C197 C213 1.349 . S
C198 C196 1.327 . S
C198 C217 1.429 1_565 S
C198 H222 0.950 . S
C199 C216 1.574 . S
C199 C218 1.368 . S
C199 H223 0.949 . S
H200 C204 0.949 . S
C201 C202 1.349 1_545 S
C201 C203 1.327 . S
C201 H224 0.950 . S
C202 C201 1.349 1_565 S
C202 C214 1.349 . S
C203 C201 1.327 . S
C203 C219 1.472 . S
C203 H225 0.950 . S
C204 H200 0.949 . S
C204 C212 1.574 . S
C204 C220 1.368 1_565 S
H205 C213 0.950 . S
H206 C211 0.950 . S
H207 C212 0.949 . S
H208 C214 0.950 . S
H209 C215 0.950 . S
H210 C216 0.949 . S
C211 H206 0.950 . S
C211 C213 1.327 . S
C211 C217 1.429 . S
C212 C204 1.574 . S
C212 H207 0.949 . S
C212 C218 1.368 1_565 S
C213 C197 1.349 . S
C213 H205 0.950 . S
C213 C211 1.327 . S
C214 C202 1.349 . S
C214 H208 0.950 . S
C214 C215 1.327 . S
C215 H209 0.950 . S
C215 C214 1.327 . S
C215 C219 1.383 1_565 S
C216 C199 1.574 . S
C216 H210 0.949 . S
C216 C220 1.368 . S
C217 C198 1.429 1_545 S
C217 C211 1.429 . S
C217 C218 1.523 . S
C218 C199 1.368 . S
C218 C212 1.368 1_545 S
C218 C217 1.523 . S
C219 C203 1.472 . S
C219 C215 1.383 1_545 S
C219 C220 1.527 . S
C220 C204 1.368 1_545 S
C220 C216 1.368 . S
C220 C219 1.527 . S
H221 C196 0.950 . S
H222 C198 0.950 . S
H223 C199 0.949 . S
H224 C201 0.950 . S
H225 C203 0.950 . S
C226 C227 1.349 . S
C226 C228 1.327 . S
C226 H251 0.950 . S
C227 C226 1.349 . S
C227 C243 1.349 . S
C228 C226 1.327 . S
C228 C247 1.429 . S
C228 H252 0.950 . S
C229 C246 1.574 . S
C229 C248 1.368 . S
C229 H253 0.949 . S
H230 C234 0.949 . S
C231 C232 1.349 . S
C231 C233 1.327 . S
C231 H254 0.950 . S
C232 C231 1.349 . S
C232 C244 1.349 . S
C233 C231 1.327 . S
C233 C249 1.429 . S
C233 H255 0.950 . S
C234 H230 0.949 . S
C234 C242 1.574 . S
C234 C250 1.368 . S
H235 C243 0.950 . S
H236 C241 0.950 . S
H237 C242 0.949 . S
H238 C244 0.950 . S
H239 C245 0.950 . S
H240 C246 0.949 . S
C241 H236 0.950 . S
C241 C243 1.327 . S
C241 C247 1.429 . S
C242 C234 1.574 . S
C242 H237 0.949 . S
C242 C248 1.368 . S
C243 C227 1.349 . S
C243 H235 0.950 . S
C243 C241 1.327 . S
C244 C232 1.349 . S
C244 H238 0.950 . S
C244 C245 1.327 . S
C245 H239 0.950 . S
C245 C244 1.327 . S
C245 C249 1.429 . S
C246 C229 1.574 . S
C246 H240 0.949 . S
C246 C250 1.368 . S
C247 C228 1.429 . S
C247 C241 1.429 . S
C247 C248 1.523 . S
C248 C229 1.368 . S
C248 C242 1.368 . S
C248 C247 1.523 . S
C249 C233 1.429 . S
C249 C245 1.429 . S
C249 C250 1.523 . S
C250 C234 1.368 . S
C250 C246 1.368 . S
C250 C249 1.523 . S
H251 C226 0.950 . S
H252 C228 0.950 . S
H253 C229 0.949 . S
H254 C231 0.950 . S
H255 C233 0.950 . S
C256 C257 1.349 . S
C256 C258 1.327 . S
C256 H281 0.950 . S
C257 C256 1.349 . S
C257 C273 1.349 . S
C258 C256 1.327 . S
C258 C277 1.429 . S
C258 H282 0.950 . S
C259 C276 1.574 . S
C259 C278 1.368 . S
C259 H283 0.949 . S
H260 C264 0.949 . S
C261 C262 1.349 . S
C261 C263 1.327 . S
C261 H284 0.950 . S
C262 C261 1.349 . S
C262 C274 1.349 . S
C263 C261 1.327 . S
C263 C279 1.429 . S
C263 H285 0.950 . S
C264 H260 0.949 . S
C264 C272 1.574 . S
C264 C280 1.368 . S
H265 C273 0.950 . S
H266 C271 0.950 . S
H267 C272 0.949 . S
H268 C274 0.950 . S
H269 C275 0.950 . S
H270 C276 0.949 . S
C271 H266 0.950 . S
C271 C273 1.327 . S
C271 C277 1.429 . S
C272 C264 1.574 . S
C272 H267 0.949 . S
C272 C278 1.368 . S
C273 C257 1.349 . S
C273 H265 0.950 . S
C273 C271 1.327 . S
C274 C262 1.349 . S
C274 H268 0.950 . S
C274 C275 1.327 . S
C275 H269 0.950 . S
C275 C274 1.327 . S
C275 C279 1.429 . S
C276 C259 1.574 . S
C276 H270 0.949 . S
C276 C280 1.368 . S
C277 C258 1.429 . S
C277 C271 1.429 . S
C277 C278 1.523 . S
C278 C259 1.368 . S
C278 C272 1.368 . S
C278 C277 1.523 . S
C279 C263 1.429 . S
C279 C275 1.429 . S
C279 C280 1.523 . S
C280 C264 1.368 . S
C280 C276 1.368 . S
C280 C279 1.523 . S
H281 C256 0.950 . S
H282 C258 0.950 . S
H283 C259 0.949 . S
H284 C261 0.950 . S
H285 C263 0.950 . S
C286 C287 1.349 . S
C286 C288 1.327 . S
C286 H311 0.950 . S
C287 C286 1.349 . S
C287 C303 1.349 . S
C288 C286 1.327 . S
C288 C307 1.429 . S
C288 H312 0.950 . S
C289 C306 1.574 . S
C289 C308 1.368 . S
C289 H313 0.949 . S
H290 C294 0.949 . S
C291 C292 1.349 . S
C291 C293 1.327 . S
C291 H314 0.950 . S
C292 C291 1.349 . S
C292 C304 1.364 . S
C293 C291 1.327 . S
C293 C309 1.429 . S
C293 H315 0.950 . S
C294 H290 0.949 . S
C294 C302 1.574 . S
C294 C310 1.368 . S
H295 C303 0.950 . S
H296 C301 0.950 . S
H297 C302 0.949 . S
H298 C304 0.930 1_655 S
H299 C305 0.950 1_655 S
H300 C306 0.949 . S
C301 H296 0.950 . S
C301 C303 1.327 . S
C301 C307 1.429 . S
C302 C294 1.574 . S
C302 H297 0.949 . S
C302 C308 1.368 . S
C303 C287 1.349 . S
C303 H295 0.950 . S
C303 C301 1.327 . S
C304 C292 1.364 . S
C304 H298 0.930 1_455 S
C304 C305 1.333 . S
C305 H299 0.950 1_455 S
C305 C304 1.333 . S
C305 C309 1.429 . S
C306 C289 1.574 . S
C306 H300 0.949 . S
C306 C310 1.368 . S
C307 C288 1.429 . S
C307 C301 1.429 . S
C307 C308 1.523 . S
C308 C289 1.368 . S
C308 C302 1.368 . S
C308 C307 1.523 . S
C309 C293 1.429 . S
C309 C305 1.429 . S
C309 C310 1.523 . S
C310 C294 1.368 . S
C310 C306 1.368 . S
C310 C309 1.523 . S
H311 C286 0.950 . S
H312 C288 0.950 . S
H313 C289 0.949 . S
H314 C291 0.950 . S
H315 C293 0.950 . S
C316 C317 1.360 1_556 S
C316 C318 1.327 . S
C316 H341 0.950 . S
C317 C316 1.360 1_554 S
C317 C333 1.337 1_565 S
C318 C316 1.327 . S
C318 C337 1.426 1_565 S
C318 H342 0.950 . S
C319 C336 1.574 . S
C319 C338 1.385 . S
C319 H343 0.949 . S
H320 C324 0.949 . S
C321 C322 1.349 . S
C321 C323 1.327 . S
C321 H344 0.950 . S
C322 C321 1.349 . S
C322 C334 1.349 1_545 S
C323 C321 1.327 . S
C323 C339 1.429 . S
C323 H345 0.950 . S
C324 H320 0.949 . S
C324 C332 1.574 . S
C324 C340 1.328 1_565 S
H325 C333 0.950 . S
H326 C331 0.950 . S
H327 C332 0.949 . S
H328 C334 0.950 . S
H329 C335 0.950 . S
H330 C336 0.949 . S
C331 H326 0.950 . S
C331 C333 1.327 . S
C331 C337 1.431 1_554 S
C332 C324 1.574 . S
C332 H327 0.949 . S
C332 C338 1.352 1_565 S
C333 C317 1.337 1_545 S
C333 H325 0.950 . S
C333 C331 1.327 . S
C334 C322 1.349 1_565 S
C334 H328 0.950 . S
C334 C335 1.327 . S
C335 H329 0.950 . S
C335 C334 1.327 . S
C335 C339 1.429 1_565 S
C336 C319 1.574 . S
C336 H330 0.949 . S
C336 C340 1.409 . S
C337 C318 1.426 1_545 S
C337 C331 1.431 1_556 S
C337 C338 1.523 . S
C338 C319 1.385 . S
C338 C332 1.352 1_545 S
C338 C337 1.523 . S
C339 C323 1.429 . S
C339 C335 1.429 1_545 S
C339 C340 1.524 . S
C340 C324 1.328 1_545 S
C340 C336 1.409 . S
C340 C339 1.524 . S
H341 C316 0.950 . S
H342 C318 0.950 . S
H343 C319 0.949 . S
H344 C321 0.950 . S
H345 C323 0.950 . S
C346 C347 1.350 . S
C346 C348 1.327 1_554 S
C346 H371 0.950 . S
C347 C346 1.350 . S
C347 C363 1.345 1_554 S
C348 C346 1.327 1_556 S
C348 C367 1.429 . S
C348 H372 0.950 . S
C349 C366 1.574 . S
C349 C368 1.368 . S
C349 H373 0.949 . S
H350 C354 0.949 . S
C351 C352 1.349 . S
C351 C353 1.327 . S
C351 H374 0.950 . S
C352 C351 1.349 . S
C352 C364 1.349 . S
C353 C351 1.327 . S
C353 C369 1.429 . S
C353 H375 0.950 . S
C354 H350 0.949 . S
C354 C362 1.574 . S
C354 C370 1.368 . S
H355 C363 0.950 . S
H356 C361 0.950 . S
H357 C362 0.949 . S
H358 C364 0.950 . S
H359 C365 0.950 . S
H360 C366 0.949 . S
C361 H356 0.950 . S
C361 C363 1.327 . S
C361 C367 1.429 . S
C362 C354 1.574 . S
C362 H357 0.949 . S
C362 C368 1.368 . S
C363 C347 1.345 1_556 S
C363 H355 0.950 . S
C363 C361 1.327 . S
C364 C352 1.349 . S
C364 H358 0.950 . S
C364 C365 1.327 . S
C365 H359 0.950 . S
C365 C364 1.327 . S
C365 C369 1.429 . S
C366 C349 1.574 . S
C366 H360 0.949 . S
C366 C370 1.368 . S
C367 C348 1.429 . S
C367 C361 1.429 . S
C367 C368 1.523 . S
C368 C349 1.368 . S
C368 C362 1.368 . S
C368 C367 1.523 . S
C369 C353 1.429 . S
C369 C365 1.429 . S
C369 C370 1.523 . S
C370 C354 1.368 . S
C370 C366 1.368 . S
C370 C369 1.523 . S
H371 C346 0.950 . S
H372 C348 0.950 . S
H373 C349 0.949 . S
H374 C351 0.950 . S
H375 C353 0.950 . S
C376 C377 1.349 . S
C376 C378 1.327 . S
C376 H401 0.950 . S
C377 C376 1.349 . S
C377 C393 1.349 . S
C378 C376 1.327 . S
C378 C397 1.429 . S
C378 H402 0.950 . S
C379 C396 1.574 . S
C379 C398 1.368 . S
C379 H403 0.949 . S
H380 C384 0.949 . S
C381 C382 1.349 . S
C381 C383 1.327 . S
C381 H404 0.950 . S
C382 C381 1.349 . S
C382 C394 1.349 . S
C383 C381 1.327 . S
C383 C399 1.429 . S
C383 H405 0.950 . S
C384 H380 0.949 . S
C384 C392 1.574 . S
C384 C400 1.368 . S
H385 C393 0.949 1_554 S
H386 C391 0.950 . S
H387 C392 0.949 . S
H388 C394 0.950 . S
H389 C395 0.950 . S
H390 C396 0.949 . S
C391 H386 0.950 . S
C391 C393 1.327 . S
C391 C397 1.429 . S
C392 C384 1.574 . S
C392 H387 0.949 . S
C392 C398 1.368 . S
C393 C377 1.349 . S
C393 H385 0.949 1_556 S
C393 C391 1.327 . S
C394 C382 1.349 . S
C394 H388 0.950 . S
C394 C395 1.327 . S
C395 H389 0.950 . S
C395 C394 1.327 . S
C395 C399 1.429 . S
C396 C379 1.574 . S
C396 H390 0.949 . S
C396 C400 1.368 . S
C397 C378 1.429 . S
C397 C391 1.429 . S
C397 C398 1.523 . S
C398 C379 1.368 . S
C398 C392 1.368 . S
C398 C397 1.523 . S
C399 C383 1.429 . S
C399 C395 1.429 . S
C399 C400 1.523 . S
C400 C384 1.368 . S
C400 C396 1.368 . S
C400 C399 1.523 . S
H401 C376 0.950 . S
H402 C378 0.950 . S
H403 C379 0.949 . S
H404 C381 0.950 . S
H405 C383 0.950 . S
C406 C407 1.349 1_455 S
C406 C408 1.327 1_554 S
C406 H431 0.953 . S
C407 C406 1.349 1_655 S
C407 C423 1.349 . S
C408 C406 1.327 1_556 S
C408 C427 1.431 1_455 S
C408 H432 0.950 . S
C409 C426 1.574 . S
C409 C428 1.347 1_655 S
C409 H433 0.949 1_556 S
H410 C414 0.949 . S
C411 C412 1.349 1_655 S
C411 C413 1.327 . S
C411 H434 0.950 . S
C412 C411 1.349 1_455 S
C412 C424 1.349 . S
C413 C411 1.327 . S
C413 C429 1.429 1_655 S
C413 H435 0.950 . S
C414 H410 0.949 . S
C414 C422 1.574 . S
C414 C430 1.368 . S
H415 C423 0.950 . S
H416 C421 0.950 . S
H417 C422 0.949 . S
H418 C424 0.950 . S
H419 C425 0.950 . S
H420 C426 0.949 . S
C421 H416 0.950 . S
C421 C423 1.327 . S
C421 C427 1.426 1_554 S
C422 C414 1.574 . S
C422 H417 0.949 . S
C422 C428 1.391 . S
C423 C407 1.349 . S
C423 H415 0.950 . S
C423 C421 1.327 . S
C424 C412 1.349 . S
C424 H418 0.950 . S
C424 C425 1.327 . S
C425 H419 0.950 . S
C425 C424 1.327 . S
C425 C429 1.429 . S
C426 C409 1.574 . S
C426 H420 0.949 . S
C426 C430 1.368 1_655 S
C427 C408 1.431 1_655 S
C427 C421 1.426 1_556 S
C427 C428 1.522 1_655 S
C428 C409 1.347 1_455 S
C428 C422 1.391 . S
C428 C427 1.522 1_455 S
C429 C413 1.429 1_455 S
C429 C425 1.429 . S
C429 C430 1.523 . S
C430 C414 1.368 . S
C430 C426 1.368 1_455 S
C430 C429 1.523 . S
H431 C406 0.953 . S
H432 C408 0.950 . S
H433 C409 0.949 1_554 S
H434 C411 0.950 . S
H435 C413 0.950 . S
C436 C437 1.349 . S
C436 C438 1.327 . S
C436 H461 0.950 . S
C437 C436 1.349 . S
C437 C453 1.349 . S
C438 C436 1.327 . S
C438 C457 1.429 . S
C438 H462 0.950 . S
C439 C456 1.574 . S
C439 C458 1.368 . S
C439 H463 0.949 . S
H440 C444 0.949 . S
C441 C442 1.349 . S
C441 C443 1.327 . S
C441 H464 0.950 . S
C442 C441 1.349 . S
C442 C454 1.349 . S
C443 C441 1.327 . S
C443 C459 1.429 . S
C443 H465 0.950 . S
C444 H440 0.949 . S
C444 C452 1.574 . S
C444 C460 1.368 . S
H445 C453 0.950 . S
H446 C451 0.950 . S
H447 C452 0.949 . S
H448 C454 0.947 . S
H449 C455 0.950 . S
H450 C456 0.949 . S
C451 H446 0.950 . S
C451 C453 1.327 . S
C451 C457 1.429 . S
C452 C444 1.574 . S
C452 H447 0.949 . S
C452 C458 1.368 . S
C453 C437 1.349 . S
C453 H445 0.950 . S
C453 C451 1.327 . S
C454 C442 1.349 . S
C454 H448 0.947 . S
C454 C455 1.327 . S
C455 H449 0.950 . S
C455 C454 1.327 . S
C455 C459 1.429 . S
C456 C439 1.574 . S
C456 H450 0.949 . S
C456 C460 1.368 . S
C457 C438 1.429 . S
C457 C451 1.429 . S
C457 C458 1.523 . S
C458 C439 1.368 . S
C458 C452 1.368 . S
C458 C457 1.523 . S
C459 C443 1.429 . S
C459 C455 1.429 . S
C459 C460 1.523 . S
C460 C444 1.368 . S
C460 C456 1.368 . S
C460 C459 1.523 . S
H461 C436 0.950 . S
H462 C438 0.950 . S
H463 C439 0.949 . S
H464 C441 0.950 . S
H465 C443 0.950 . S
C466 C467 1.349 . S
C466 C468 1.327 . S
C466 H491 0.950 . S
C467 C466 1.349 . S
C467 C483 1.349 1_545 S
C468 C466 1.327 . S
C468 C487 1.429 . S
C468 H492 0.950 . S
C469 C486 1.574 . S
C469 C488 1.368 1_565 S
C469 H493 0.949 . S
H470 C474 0.949 . S
C471 C472 1.349 1_565 S
C471 C473 1.327 . S
C471 H494 0.950 . S
C472 C471 1.349 1_545 S
C472 C484 1.349 . S
C473 C471 1.327 . S
C473 C489 1.429 1_565 S
C473 H495 0.950 . S
C474 H470 0.949 . S
C474 C482 1.574 . S
C474 C490 1.368 . S
H475 C483 0.950 . S
H476 C481 0.950 . S
H477 C482 0.949 . S
H478 C484 0.950 . S
H479 C485 0.950 . S
H480 C486 0.949 . S
C481 H476 0.950 . S
C481 C483 1.327 . S
C481 C487 1.429 1_565 S
C482 C474 1.574 . S
C482 H477 0.949 . S
C482 C488 1.368 . S
C483 C467 1.349 1_565 S
C483 H475 0.950 . S
C483 C481 1.327 . S
C484 C472 1.349 . S
C484 H478 0.950 . S
C484 C485 1.327 . S
C485 H479 0.950 . S
C485 C484 1.327 . S
C485 C489 1.429 . S
C486 C469 1.574 . S
C486 H480 0.949 . S
C486 C490 1.368 1_565 S
C487 C468 1.429 . S
C487 C481 1.429 1_545 S
C487 C488 1.523 . S
C488 C469 1.368 1_545 S
C488 C482 1.368 . S
C488 C487 1.523 . S
C489 C473 1.429 1_545 S
C489 C485 1.429 . S
C489 C490 1.523 . S
C490 C474 1.368 . S
C490 C486 1.368 1_545 S
C490 C489 1.523 . S
H491 C466 0.950 . S
H492 C468 0.950 . S
H493 C469 0.949 . S
H494 C471 0.950 . S
H495 C473 0.950 . S
C496 C497 1.349 . S
C496 C498 1.327 . S
C496 H521 0.950 . S
C497 C496 1.349 . S
C497 C513 1.349 . S
C498 C496 1.327 . S
C498 C517 1.429 . S
C498 H522 0.950 . S
C499 C516 1.574 . S
C499 C518 1.368 . S
C499 H523 0.949 . S
H500 C504 0.949 . S
C501 C502 1.349 . S
C501 C503 1.327 . S
C501 H524 0.950 . S
C502 C501 1.349 . S
C502 C514 1.349 . S
C503 C501 1.327 . S
C503 C519 1.429 . S
C503 H525 0.950 . S
C504 H500 0.949 . S
C504 C512 1.574 . S
C504 C520 1.368 . S
H505 C513 0.950 . S
H506 C511 0.950 . S
H507 C512 0.949 . S
H508 C514 0.950 . S
H509 C515 0.950 . S
H510 C516 0.949 . S
C511 H506 0.950 . S
C511 C513 1.327 . S
C511 C517 1.429 . S
C512 C504 1.574 . S
C512 H507 0.949 . S
C512 C518 1.368 . S
C513 C497 1.349 . S
C513 H505 0.950 . S
C513 C511 1.327 . S
C514 C502 1.349 . S
C514 H508 0.950 . S
C514 C515 1.327 . S
C515 H509 0.950 . S
C515 C514 1.327 . S
C515 C519 1.429 . S
C516 C499 1.574 . S
C516 H510 0.949 . S
C516 C520 1.368 . S
C517 C498 1.429 . S
C517 C511 1.429 . S
C517 C518 1.523 . S
C518 C499 1.368 . S
C518 C512 1.368 . S
C518 C517 1.523 . S
C519 C503 1.429 . S
C519 C515 1.429 . S
C519 C520 1.523 . S
C520 C504 1.368 . S
C520 C516 1.368 . S
C520 C519 1.523 . S
H521 C496 0.950 . S
H522 C498 0.950 . S
H523 C499 0.949 . S
H524 C501 0.950 . S
H525 C503 0.950 . S
C526 C527 1.349 . S
C526 C528 1.327 . S
C526 H551 0.950 . S
C527 C526 1.349 . S
C527 C543 1.349 . S
C528 C526 1.327 . S
C528 C547 1.429 . S
C528 H552 0.950 . S
C529 C546 1.574 . S
C529 C548 1.368 . S
C529 H553 0.949 . S
H530 C534 0.949 . S
C531 C532 1.349 . S
C531 C533 1.327 . S
C531 H554 0.950 . S
C532 C531 1.349 . S
C532 C544 1.349 . S
C533 C531 1.327 . S
C533 C549 1.429 . S
C533 H555 0.950 . S
C534 H530 0.949 . S
C534 C542 1.574 . S
C534 C550 1.368 . S
H535 C543 0.950 . S
H536 C541 0.950 . S
H537 C542 0.949 . S
H538 C544 0.950 . S
H539 C545 0.950 . S
H540 C546 0.949 . S
C541 H536 0.950 . S
C541 C543 1.327 . S
C541 C547 1.429 . S
C542 C534 1.574 . S
C542 H537 0.949 . S
C542 C548 1.368 . S
C543 C527 1.349 . S
C543 H535 0.950 . S
C543 C541 1.327 . S
C544 C532 1.349 . S
C544 H538 0.950 . S
C544 C545 1.327 . S
C545 H539 0.950 . S
C545 C544 1.327 . S
C545 C549 1.429 . S
C546 C529 1.574 . S
C546 H540 0.949 . S
C546 C550 1.368 . S
C547 C528 1.429 . S
C547 C541 1.429 . S
C547 C548 1.523 . S
C548 C529 1.368 . S
C548 C542 1.368 . S
C548 C547 1.523 . S
C549 C533 1.429 . S
C549 C545 1.429 . S
C549 C550 1.523 . S
C550 C534 1.368 . S
C550 C546 1.368 . S
C550 C549 1.523 . S
H551 C526 0.950 . S
H552 C528 0.950 . S
H553 C529 0.949 . S
H554 C531 0.950 . S
H555 C533 0.950 . S
C556 C557 1.336 1_455 S
C556 C558 1.327 . S
C556 H581 0.950 . S
C557 C556 1.336 1_655 S
C557 C573 1.359 . S
C558 C556 1.327 . S
C558 C577 1.429 . S
C558 H582 0.950 . S
C559 C576 1.574 1_655 S
C559 C578 1.368 1_655 S
C559 H583 0.949 . S
H560 C564 0.949 . S
C561 C562 1.349 . S
C561 C563 1.327 . S
C561 H584 0.950 . S
C562 C561 1.349 . S
C562 C574 1.349 . S
C563 C561 1.327 . S
C563 C579 1.429 . S
C563 H585 0.984 . S
C564 H560 0.949 . S
C564 C572 1.574 1_556 S
C564 C580 1.368 . S
H565 C573 0.950 . S
H566 C571 0.950 1_556 S
H567 C572 0.949 . S
H568 C574 0.950 . S
H569 C575 0.950 . S
H570 C576 0.949 1_655 S
C571 H566 0.950 1_554 S
C571 C573 1.327 . S
C571 C577 1.429 1_655 S
C572 C564 1.574 1_554 S
C572 H567 0.949 . S
C572 C578 1.368 1_554 S
C573 C557 1.359 . S
C573 H565 0.950 . S
C573 C571 1.327 . S
C574 C562 1.349 . S
C574 H568 0.950 . S
C574 C575 1.327 . S
C575 H569 0.950 . S
C575 C574 1.327 . S
C575 C579 1.429 . S
C576 C559 1.574 1_455 S
C576 H570 0.949 1_455 S
C576 C580 1.368 . S
C577 C558 1.429 . S
C577 C571 1.429 1_455 S
C577 C578 1.523 1_554 S
C578 C559 1.368 1_455 S
C578 C572 1.368 1_556 S
C578 C577 1.523 1_556 S
C579 C563 1.429 . S
C579 C575 1.429 . S
C579 C580 1.523 . S
C580 C564 1.368 . S
C580 C576 1.368 . S
C580 C579 1.523 . S
H581 C556 0.950 . S
H582 C558 0.950 . S
H583 C559 0.949 . S
H584 C561 0.950 . S
H585 C563 0.984 . S
C586 C587 1.308 1_545 S
C586 C588 1.327 1_554 S
C586 H611 0.950 . S
C587 C586 1.308 1_565 S
C587 C603 1.383 . S
C588 C586 1.327 1_556 S
C588 C607 1.429 . S
C588 H612 0.950 . S
C589 C606 1.574 . S
C589 C608 1.368 1_565 S
C589 H613 0.949 . S
H590 C594 0.949 . S
C591 C592 1.349 . S
C591 C593 1.327 . S
C591 H614 0.950 1_545 S
C592 C591 1.349 . S
C592 C604 1.349 . S
C593 C591 1.327 . S
C593 C609 1.429 . S
C593 H615 0.950 1_545 S
C594 H590 0.949 . S
C594 C602 1.574 . S
C594 C610 1.368 . S
H595 C603 0.950 . S
H596 C601 0.950 . S
H597 C602 0.949 . S
H598 C604 0.950 . S
H599 C605 0.950 . S
H600 C606 0.949 . S
C601 H596 0.950 . S
C601 C603 1.327 1_556 S
C601 C607 1.429 1_565 S
C602 C594 1.574 . S
C602 H597 0.949 . S
C602 C608 1.368 . S
C603 C587 1.383 . S
C603 H595 0.950 . S
C603 C601 1.327 1_554 S
C604 C592 1.349 . S
C604 H598 0.950 . S
C604 C605 1.327 . S
C605 H599 0.950 . S
C605 C604 1.327 . S
C605 C609 1.429 . S
C606 C589 1.574 . S
C606 H600 0.949 . S
C606 C610 1.368 1_565 S
C607 C588 1.429 . S
C607 C601 1.429 1_545 S
C607 C608 1.523 . S
C608 C589 1.368 1_545 S
C608 C602 1.368 . S
C608 C607 1.523 . S
C609 C593 1.429 . S
C609 C605 1.429 . S
C609 C610 1.523 . S
C610 C594 1.368 . S
C610 C606 1.368 1_545 S
C610 C609 1.523 . S
H611 C586 0.950 . S
H612 C588 0.950 . S
H613 C589 0.949 . S
H614 C591 0.950 1_565 S
H615 C593 0.950 1_565 S
C616 C617 1.349 1_556 S
C616 C618 1.327 . S
C616 H641 0.950 . S
C617 C616 1.349 1_554 S
C617 C633 1.349 . S
C618 C616 1.327 . S
C618 C637 1.429 . S
C618 H642 0.950 . S
C619 C636 1.574 . S
C619 C638 1.368 . S
C619 H643 0.949 . S
H620 C624 0.949 . S
C621 C622 1.349 . S
C621 C623 1.327 . S
C621 H644 0.950 . S
C622 C621 1.349 . S
C622 C634 1.349 . S
C623 C621 1.327 . S
C623 C639 1.429 . S
C623 H645 0.950 . S
C624 H620 0.949 . S
C624 C632 1.574 . S
C624 C640 1.368 . S
H625 C633 0.950 . S
H626 C631 0.950 . S
H627 C632 0.949 . S
H628 C634 0.950 . S
H629 C635 0.950 . S
H630 C636 0.949 . S
C631 H626 0.950 . S
C631 C633 1.327 . S
C631 C637 1.429 1_554 S
C632 C624 1.574 . S
C632 H627 0.949 . S
C632 C638 1.368 . S
C633 C617 1.349 . S
C633 H625 0.950 . S
C633 C631 1.327 . S
C634 C622 1.349 . S
C634 H628 0.950 . S
C634 C635 1.327 . S
C635 H629 0.950 . S
C635 C634 1.327 . S
C635 C639 1.429 . S
C636 C619 1.574 . S
C636 H630 0.949 . S
C636 C640 1.368 . S
C637 C618 1.429 . S
C637 C631 1.429 1_556 S
C637 C638 1.523 . S
C638 C619 1.368 . S
C638 C632 1.368 . S
C638 C637 1.523 . S
C639 C623 1.429 . S
C639 C635 1.429 . S
C639 C640 1.523 . S
C640 C624 1.368 . S
C640 C636 1.368 . S
C640 C639 1.523 . S
H641 C616 0.950 . S
H642 C618 0.950 . S
H643 C619 0.949 . S
H644 C621 0.950 . S
H645 C623 0.950 . S
C646 C647 1.349 1_554 S
C646 C648 1.327 1_554 S
C646 H671 0.950 . S
C647 C646 1.349 1_556 S
C647 C663 1.349 . S
C648 C646 1.327 1_556 S
C648 C667 1.429 . S
C648 H672 0.950 . S
C649 C666 1.574 . S
C649 C668 1.368 . S
C649 H673 0.949 . S
H650 C654 0.949 . S
C651 C652 1.349 . S
C651 C653 1.327 . S
C651 H674 0.950 . S
C652 C651 1.349 . S
C652 C664 1.349 . S
C653 C651 1.327 . S
C653 C669 1.429 . S
C653 H675 0.950 . S
C654 H650 0.949 . S
C654 C662 1.574 . S
C654 C670 1.368 . S
H655 C663 0.950 . S
H656 C661 0.950 . S
H657 C662 0.949 . S
H658 C664 0.950 . S
H659 C665 0.950 . S
H660 C666 0.949 . S
C661 H656 0.950 . S
C661 C663 1.327 . S
C661 C667 1.429 . S
C662 C654 1.574 . S
C662 H657 0.949 . S
C662 C668 1.368 . S
C663 C647 1.349 . S
C663 H655 0.950 . S
C663 C661 1.327 . S
C664 C652 1.349 . S
C664 H658 0.950 . S
C664 C665 1.327 . S
C665 H659 0.950 . S
C665 C664 1.327 . S
C665 C669 1.429 . S
C666 C649 1.574 . S
C666 H660 0.949 . S
C666 C670 1.368 . S
C667 C648 1.429 . S
C667 C661 1.429 . S
C667 C668 1.523 . S
C668 C649 1.368 . S
C668 C662 1.368 . S
C668 C667 1.523 . S
C669 C653 1.429 . S
C669 C665 1.429 . S
C669 C670 1.523 . S
C670 C654 1.368 . S
C670 C666 1.368 . S
C670 C669 1.523 . S
H671 C646 0.950 . S
H672 C648 0.950 . S
H673 C649 0.949 . S
H674 C651 0.950 . S
H675 C653 0.950 . S
C676 C677 1.349 . S
C676 C678 1.327 . S
C676 H701 0.950 . S
C677 C676 1.349 . S
C677 C693 1.349 . S
C678 C676 1.327 . S
C678 C697 1.429 . S
C678 H702 0.950 . S
C679 C696 1.574 . S
C679 C698 1.368 . S
C679 H703 0.949 . S
H680 C684 0.949 1_556 S
C681 C682 1.349 . S
C681 C683 1.327 . S
C681 H704 0.916 1_455 S
C682 C681 1.349 . S
C682 C694 1.349 . S
C683 C681 1.327 . S
C683 C699 1.429 . S
C683 H705 0.950 1_556 S
C684 H680 0.949 1_554 S
C684 C692 1.574 . S
C684 C700 1.368 . S
H685 C693 0.950 . S
H686 C691 0.950 . S
H687 C692 0.949 . S
H688 C694 0.950 . S
H689 C695 0.950 . S
H690 C696 0.949 . S
C691 H686 0.950 . S
C691 C693 1.327 . S
C691 C697 1.429 . S
C692 C684 1.574 . S
C692 H687 0.949 . S
C692 C698 1.368 . S
C693 C677 1.349 . S
C693 H685 0.950 . S
C693 C691 1.327 . S
C694 C682 1.349 . S
C694 H688 0.950 . S
C694 C695 1.327 . S
C695 H689 0.950 . S
C695 C694 1.327 . S
C695 C699 1.429 . S
C696 C679 1.574 . S
C696 H690 0.949 . S
C696 C700 1.368 . S
C697 C678 1.429 . S
C697 C691 1.429 . S
C697 C698 1.523 . S
C698 C679 1.368 . S
C698 C692 1.368 . S
C698 C697 1.523 . S
C699 C683 1.429 . S
C699 C695 1.429 . S
C699 C700 1.523 1_556 S
C700 C684 1.368 . S
C700 C696 1.368 . S
C700 C699 1.523 1_554 S
H701 C676 0.950 . S
H702 C678 0.950 . S
H703 C679 0.949 . S
H704 C681 0.916 1_655 S
H705 C683 0.950 1_554 S
C706 C707 1.349 1_565 S
C706 C708 1.327 . S
C706 H731 0.950 . S
C707 C706 1.349 1_545 S
C707 C723 1.349 . S
C708 C706 1.327 . S
C708 C727 1.429 1_565 S
C708 H732 0.950 . S
C709 C726 1.574 . S
C709 C728 1.368 . S
C709 H733 0.949 . S
H710 C714 0.949 . S
C711 C712 1.349 . S
C711 C713 1.327 . S
C711 H734 0.950 . S
C712 C711 1.349 . S
C712 C724 1.349 1_545 S
C713 C711 1.327 . S
C713 C729 1.429 . S
C713 H735 0.950 . S
C714 H710 0.949 . S
C714 C722 1.574 1_556 S
C714 C730 1.368 1_565 S
H715 C723 0.950 . S
H716 C721 0.950 . S
H717 C722 0.949 . S
H718 C724 0.950 . S
H719 C725 0.950 . S
H720 C726 0.949 . S
C721 H716 0.950 . S
C721 C723 1.327 . S
C721 C727 1.429 . S
C722 C714 1.574 1_554 S
C722 H717 0.949 . S
C722 C728 1.368 1_565 S
C723 C707 1.349 . S
C723 H715 0.950 . S
C723 C721 1.327 . S
C724 C712 1.349 1_565 S
C724 H718 0.950 . S
C724 C725 1.327 . S
C725 H719 0.950 . S
C725 C724 1.327 . S
C725 C729 1.429 1_565 S
C726 C709 1.574 . S
C726 H720 0.949 . S
C726 C730 1.368 1_554 S
C727 C708 1.429 1_545 S
C727 C721 1.429 . S
C727 C728 1.523 . S
C728 C709 1.368 . S
C728 C722 1.368 1_545 S
C728 C727 1.523 . S
C729 C713 1.429 . S
C729 C725 1.429 1_545 S
C729 C730 1.523 . S
C730 C714 1.368 1_545 S
C730 C726 1.368 1_556 S
C730 C729 1.523 . S
H731 C706 0.950 . S
H732 C708 0.950 . S
H733 C709 0.949 . S
H734 C711 0.950 . S
H735 C713 0.950 . S
C736 C737 1.349 . S
C736 C738 1.327 . S
C736 H761 0.950 . S
C737 C736 1.349 . S
C737 C753 1.349 . S
C738 C736 1.327 . S
C738 C757 1.429 . S
C738 H762 0.950 . S
C739 C756 1.574 . S
C739 C758 1.368 . S
C739 H763 0.949 . S
H740 C744 0.949 . S
C741 C742 1.349 . S
C741 C743 1.327 . S
C741 H764 0.950 . S
C742 C741 1.349 . S
C742 C754 1.349 . S
C743 C741 1.327 . S
C743 C759 1.429 . S
C743 H765 0.950 . S
C744 H740 0.949 . S
C744 C752 1.574 . S
C744 C760 1.368 . S
H745 C753 0.950 . S
H746 C751 0.950 . S
H747 C752 0.949 . S
H748 C754 0.950 . S
H749 C755 0.950 . S
H750 C756 0.949 . S
C751 H746 0.950 . S
C751 C753 1.327 . S
C751 C757 1.429 . S
C752 C744 1.574 . S
C752 H747 0.949 . S
C752 C758 1.368 1_556 S
C753 C737 1.349 . S
C753 H745 0.950 . S
C753 C751 1.327 . S
C754 C742 1.349 . S
C754 H748 0.950 . S
C754 C755 1.327 . S
C755 H749 0.950 . S
C755 C754 1.327 . S
C755 C759 1.429 . S
C756 C739 1.574 . S
C756 H750 0.949 . S
C756 C760 1.368 1_554 S
C757 C738 1.429 . S
C757 C751 1.429 . S
C757 C758 1.523 . S
C758 C739 1.368 . S
C758 C752 1.368 1_554 S
C758 C757 1.523 . S
C759 C743 1.429 . S
C759 C755 1.429 . S
C759 C760 1.523 . S
C760 C744 1.368 . S
C760 C756 1.368 1_556 S
C760 C759 1.523 . S
H761 C736 0.950 . S
H762 C738 0.950 . S
H763 C739 0.949 . S
H764 C741 0.950 . S
H765 C743 0.950 . S
C766 C767 1.349 . S
C766 C768 1.327 . S
C766 H791 0.950 . S
C767 C766 1.349 . S
C767 C783 1.349 . S
C768 C766 1.327 . S
C768 C787 1.429 . S
C768 H792 0.950 . S
C769 C786 1.574 . S
C769 C788 1.368 1_556 S
C769 H793 0.949 . S
H770 C774 0.949 . S
C771 C772 1.349 . S
C771 C773 1.327 . S
C771 H794 0.950 . S
C772 C771 1.349 . S
C772 C784 1.349 . S
C773 C771 1.327 . S
C773 C789 1.429 . S
C773 H795 0.950 . S
C774 H770 0.949 . S
C774 C782 1.574 . S
C774 C790 1.368 1_554 S
H775 C783 0.950 . S
H776 C781 0.950 . S
H777 C782 0.949 . S
H778 C784 0.950 . S
H779 C785 0.950 . S
H780 C786 0.949 . S
C781 H776 0.950 . S
C781 C783 1.327 . S
C781 C787 1.429 . S
C782 C774 1.574 . S
C782 H777 0.949 . S
C782 C788 1.368 . S
C783 C767 1.349 . S
C783 H775 0.950 . S
C783 C781 1.327 . S
C784 C772 1.349 . S
C784 H778 0.950 . S
C784 C785 1.327 . S
C785 H779 0.950 . S
C785 C784 1.327 . S
C785 C789 1.429 . S
C786 C769 1.574 . S
C786 H780 0.949 . S
C786 C790 1.368 . S
C787 C768 1.429 . S
C787 C781 1.429 . S
C787 C788 1.523 . S
C788 C769 1.368 1_554 S
C788 C782 1.368 . S
C788 C787 1.523 . S
C789 C773 1.429 . S
C789 C785 1.429 . S
C789 C790 1.523 . S
C790 C774 1.368 1_556 S
C790 C786 1.368 . S
C790 C789 1.523 . S
H791 C766 0.950 . S
H792 C768 0.950 . S
H793 C769 0.949 . S
H794 C771 0.950 . S
H795 C773 0.950 . S
C796 C797 1.347 1_455 S
C796 C798 1.327 . S
C796 H821 0.950 . S
C797 C796 1.347 1_655 S
C797 C813 1.351 . S
C798 C796 1.327 . S
C798 C817 1.429 1_455 S
C798 H822 0.950 . S
C799 C816 1.574 . S
C799 C818 1.368 . S
C799 H823 0.949 . S
H800 C804 0.949 . S
C801 C802 1.349 . S
C801 C803 1.327 . S
C801 H824 0.950 . S
C802 C801 1.349 . S
C802 C814 1.349 1_655 S
C803 C801 1.327 . S
C803 C819 1.429 . S
C803 H825 0.950 . S
C804 H800 0.949 . S
C804 C812 1.574 . S
C804 C820 1.368 1_455 S
H805 C813 0.950 . S
H806 C811 0.950 . S
H807 C812 0.949 . S
H808 C814 0.950 . S
H809 C815 0.950 . S
H810 C816 0.949 . S
C811 H806 0.950 . S
C811 C813 1.327 . S
C811 C817 1.429 . S
C812 C804 1.574 . S
C812 H807 0.949 . S
C812 C818 1.368 1_455 S
C813 C797 1.351 . S
C813 H805 0.950 . S
C813 C811 1.327 . S
C814 C802 1.349 1_455 S
C814 H808 0.950 . S
C814 C815 1.327 . S
C815 H809 0.950 . S
C815 C814 1.327 . S
C815 C819 1.429 1_455 S
C816 C799 1.574 . S
C816 H810 0.949 . S
C816 C820 1.368 . S
C817 C798 1.429 1_655 S
C817 C811 1.429 . S
C817 C818 1.523 . S
C818 C799 1.368 . S
C818 C812 1.368 1_655 S
C818 C817 1.523 . S
C819 C803 1.429 . S
C819 C815 1.429 1_655 S
C819 C820 1.523 . S
C820 C804 1.368 1_655 S
C820 C816 1.368 . S
C820 C819 1.523 . S
H821 C796 0.950 . S
H822 C798 0.950 . S
H823 C799 0.949 . S
H824 C801 0.950 . S
H825 C803 0.950 . S
C826 C827 1.314 1_545 S
C826 C828 1.327 . S
C826 H851 0.950 . S
C827 C826 1.314 1_565 S
C827 C843 1.387 . S
C828 C826 1.327 . S
C828 C847 1.429 1_545 S
C828 H852 0.950 . S
C829 C846 1.574 . S
C829 C848 1.368 . S
C829 H853 0.949 . S
H830 C834 0.949 . S
C831 C832 1.349 . S
C831 C833 1.327 . S
C831 H854 0.950 . S
C832 C831 1.349 . S
C832 C844 1.349 1_565 S
C833 C831 1.327 . S
C833 C849 1.429 . S
C833 H855 0.950 . S
C834 H830 0.949 . S
C834 C842 1.574 . S
C834 C850 1.368 1_545 S
H835 C843 0.950 . S
H836 C841 0.950 . S
H837 C842 0.949 . S
H838 C844 0.950 . S
H839 C845 0.950 . S
H840 C846 0.949 . S
C841 H836 0.950 . S
C841 C843 1.327 . S
C841 C847 1.429 . S
C842 C834 1.574 . S
C842 H837 0.949 . S
C842 C848 1.368 1_545 S
C843 C827 1.387 . S
C843 H835 0.950 . S
C843 C841 1.327 . S
C844 C832 1.349 1_545 S
C844 H838 0.950 . S
C844 C845 1.327 . S
C845 H839 0.950 . S
C845 C844 1.327 . S
C845 C849 1.429 1_545 S
C846 C829 1.574 . S
C846 H840 0.949 . S
C846 C850 1.368 . S
C847 C828 1.429 1_565 S
C847 C841 1.429 . S
C847 C848 1.523 . S
C848 C829 1.368 . S
C848 C842 1.368 1_565 S
C848 C847 1.523 . S
C849 C833 1.429 . S
C849 C845 1.429 1_565 S
C849 C850 1.523 . S
C850 C834 1.368 1_565 S
C850 C846 1.368 . S
C850 C849 1.523 . S
H851 C826 0.950 . S
H852 C828 0.950 . S
H853 C829 0.949 . S
H854 C831 0.950 . S
H855 C833 0.950 . S
C856 C857 1.349 . S
C856 C858 1.327 . S
C856 H881 0.950 . S
C857 C856 1.349 . S
C857 C873 1.349 . S
C858 C856 1.327 . S
C858 C877 1.429 . S
C858 H882 0.950 . S
C859 C876 1.574 . S
C859 C878 1.368 . S
C859 H883 0.949 . S
H860 C864 0.949 . S
C861 C862 1.349 . S
C861 C863 1.327 . S
C861 H884 0.950 . S
C862 C861 1.349 . S
C862 C874 1.349 . S
C863 C861 1.327 . S
C863 C879 1.429 . S
C863 H885 0.950 . S
C864 H860 0.949 . S
C864 C872 1.574 . S
C864 C880 1.368 . S
H865 C873 0.950 . S
H866 C871 0.950 . S
H867 C872 0.949 . S
H868 C874 0.950 . S
H869 C875 0.950 . S
H870 C876 0.949 . S
C871 H866 0.950 . S
C871 C873 1.327 . S
C871 C877 1.429 . S
C872 C864 1.574 . S
C872 H867 0.949 . S
C872 C878 1.368 . S
C873 C857 1.349 . S
C873 H865 0.950 . S
C873 C871 1.327 . S
C874 C862 1.349 . S
C874 H868 0.950 . S
C874 C875 1.327 . S
C875 H869 0.950 . S
C875 C874 1.327 . S
C875 C879 1.429 . S
C876 C859 1.574 . S
C876 H870 0.949 . S
C876 C880 1.368 . S
C877 C858 1.429 . S
C877 C871 1.429 . S
C877 C878 1.523 . S
C878 C859 1.368 . S
C878 C872 1.368 . S
C878 C877 1.523 . S
C879 C863 1.429 . S
C879 C875 1.429 . S
C879 C880 1.523 . S
C880 C864 1.368 . S
C880 C876 1.368 . S
C880 C879 1.523 . S
H881 C856 0.950 . S
H882 C858 0.950 . S
H883 C859 0.949 . S
H884 C861 0.950 . S
H885 C863 0.950 . S
C886 C887 1.349 . S
C886 C888 1.327 . S
C886 H911 0.950 . S
C887 C886 1.349 . S
C887 C903 1.349 . S
C888 C886 1.327 . S
C888 C907 1.429 . S
C888 H912 0.950 . S
C889 C906 1.574 . S
C889 C908 1.368 . S
C889 H913 0.949 . S
H890 C894 0.949 . S
C891 C892 1.349 . S
C891 C893 1.327 . S
C891 H914 0.950 . S
C892 C891 1.349 . S
C892 C904 1.349 . S
C893 C891 1.327 . S
C893 C909 1.429 . S
C893 H915 0.950 . S
C894 H890 0.949 . S
C894 C902 1.574 . S
C894 C910 1.368 . S
H895 C903 0.950 . S
H896 C901 0.950 . S
H897 C902 0.949 . S
H898 C904 0.950 . S
H899 C905 0.950 . S
H900 C906 0.949 . S
C901 H896 0.950 . S
C901 C903 1.327 . S
C901 C907 1.429 . S
C902 C894 1.574 . S
C902 H897 0.949 . S
C902 C908 1.368 . S
C903 C887 1.349 . S
C903 H895 0.950 . S
C903 C901 1.327 . S
C904 C892 1.349 . S
C904 H898 0.950 . S
C904 C905 1.327 . S
C905 H899 0.950 . S
C905 C904 1.327 . S
C905 C909 1.429 . S
C906 C889 1.574 . S
C906 H900 0.949 . S
C906 C910 1.368 . S
C907 C888 1.429 . S
C907 C901 1.429 . S
C907 C908 1.523 . S
C908 C889 1.368 . S
C908 C902 1.368 . S
C908 C907 1.523 . S
C909 C893 1.429 . S
C909 C905 1.429 . S
C909 C910 1.523 . S
C910 C894 1.368 . S
C910 C906 1.368 . S
C910 C909 1.523 . S
H911 C886 0.950 . S
H912 C888 0.950 . S
H913 C889 0.949 . S
H914 C891 0.950 . S
H915 C893 0.950 . S
C197 C82 1.459 . S
C202 C120 1.563 . S
C232 C143 1.611 . S
C227 C95 1.511 . S
C262 C166 1.640 . S
C257 C56 1.530 . S
C292 C193 1.497 . S
C287 C69 1.481 . S
C322 C121 1.563 . S
C317 C30 1.456 1_565 S
C347 C43 1.376 . S
C352 C144 1.484 . S
C377 C4 1.361 . S
C382 C167 1.462 . S
C407 C17 1.480 1_655 S
C412 C192 1.584 . S
C442 C122 0.144 . S
C437 C74 0.378 . S
C472 C145 0.195 . S
C467 C87 0.314 . S
C502 C168 0.208 . S
C497 C100 0.321 . S
C527 C61 0.365 . S
C532 C194 0.469 . S
C557 C22 0.419 1_655 S
C562 C125 0.512 . S
C592 C148 0.516 . S
C587 C35 0.408 1_565 S
C622 C171 0.509 . S
C617 C48 0.385 . S
C647 C9 0.315 1_556 S
C652 C191 0.164 . S
C677 C73 1.580 . S
C682 C123 1.562 . S
C707 C86 1.524 . S
C712 C146 1.525 . S
C742 C169 1.541 . S
C737 C99 1.541 . S
C772 C190 1.322 . S
C767 C60 1.286 . S
C797 C21 1.567 1_655 S
C802 C124 1.520 . S
C832 C147 1.468 . S
C827 C34 1.522 1_565 S
C862 C170 1.453 . S
C857 C47 1.504 . S
C887 C8 1.723 . S
C892 C189 1.765 . S
