# Generated by pormake.
# Topology eea, (3,6)-cn, num edge types: 1
# Building blocks:
#     Node 0, Type 0, BuildingBlock: MIDCAF_clean_linker_0, # of connection points: 3
#     Node 1, Type 0, BuildingBlock: MIDCAF_clean_linker_0, # of connection points: 3
#     Node 2, Type 0, BuildingBlock: MIDCAF_clean_linker_0, # of connection points: 3
#     Node 3, Type 0, BuildingBlock: MIDCAF_clean_linker_0, # of connection points: 3
#     Node 4, Type 0, BuildingBlock: MIDCAF_clean_linker_0, # of connection points: 3
#     Node 5, Type 0, BuildingBlock: MIDCAF_clean_linker_0, # of connection points: 3
#     Node 6, Type 0, BuildingBlock: MIDCAF_clean_linker_0, # of connection points: 3
#     Node 7, Type 0, BuildingBlock: MIDCAF_clean_linker_0, # of connection points: 3
#     Node 8, Type 0, BuildingBlock: MIDCAF_clean_linker_0, # of connection points: 3
#     Node 9, Type 0, BuildingBlock: MIDCAF_clean_linker_0, # of connection points: 3
#     Node 10, Type 0, BuildingBlock: MIDCAF_clean_linker_0, # of connection points: 3
#     Node 11, Type 0, BuildingBlock: MIDCAF_clean_linker_0, # of connection points: 3
#     Node 12, Type 0, BuildingBlock: MIDCAF_clean_linker_0, # of connection points: 3
#     Node 13, Type 0, BuildingBlock: MIDCAF_clean_linker_0, # of connection points: 3
#     Node 14, Type 0, BuildingBlock: MIDCAF_clean_linker_0, # of connection points: 3
#     Node 15, Type 0, BuildingBlock: MIDCAF_clean_linker_0, # of connection points: 3
#     Node 16, Type 0, BuildingBlock: MIDCAF_clean_linker_0, # of connection points: 3
#     Node 17, Type 0, BuildingBlock: MIDCAF_clean_linker_0, # of connection points: 3
#     Node 18, Type 1, BuildingBlock: KUMBOL_clean_sbu_0, # of connection points: 6
#     Node 19, Type 1, BuildingBlock: KUMBOL_clean_sbu_0, # of connection points: 6
#     Node 20, Type 1, BuildingBlock: KUMBOL_clean_sbu_0, # of connection points: 6
#     Node 21, Type 1, BuildingBlock: KUMBOL_clean_sbu_0, # of connection points: 6
#     Node 22, Type 1, BuildingBlock: KUMBOL_clean_sbu_0, # of connection points: 6
#     Node 23, Type 1, BuildingBlock: KUMBOL_clean_sbu_0, # of connection points: 6
#     Node 24, Type 1, BuildingBlock: KUMBOL_clean_sbu_0, # of connection points: 6
#     Node 25, Type 1, BuildingBlock: KUMBOL_clean_sbu_0, # of connection points: 6
#     Node 26, Type 1, BuildingBlock: KUMBOL_clean_sbu_0, # of connection points: 6
#     Edge 27, Type (0, 1), BuildingBlock: ZUJKAS_clean_linker_0, # of connection points: 2
#     Edge 28, Type (0, 1), BuildingBlock: ZUJKAS_clean_linker_0, # of connection points: 2
#     Edge 29, Type (0, 1), BuildingBlock: ZUJKAS_clean_linker_0, # of connection points: 2
#     Edge 30, Type (0, 1), BuildingBlock: ZUJKAS_clean_linker_0, # of connection points: 2
#     Edge 31, Type (0, 1), BuildingBlock: ZUJKAS_clean_linker_0, # of connection points: 2
#     Edge 32, Type (0, 1), BuildingBlock: ZUJKAS_clean_linker_0, # of connection points: 2
#     Edge 33, Type (0, 1), BuildingBlock: ZUJKAS_clean_linker_0, # of connection points: 2
#     Edge 34, Type (0, 1), BuildingBlock: ZUJKAS_clean_linker_0, # of connection points: 2
#     Edge 35, Type (0, 1), BuildingBlock: ZUJKAS_clean_linker_0, # of connection points: 2
#     Edge 36, Type (0, 1), BuildingBlock: ZUJKAS_clean_linker_0, # of connection points: 2
#     Edge 37, Type (0, 1), BuildingBlock: ZUJKAS_clean_linker_0, # of connection points: 2
#     Edge 38, Type (0, 1), BuildingBlock: ZUJKAS_clean_linker_0, # of connection points: 2
#     Edge 39, Type (0, 1), BuildingBlock: ZUJKAS_clean_linker_0, # of connection points: 2
#     Edge 40, Type (0, 1), BuildingBlock: ZUJKAS_clean_linker_0, # of connection points: 2
#     Edge 41, Type (0, 1), BuildingBlock: ZUJKAS_clean_linker_0, # of connection points: 2
#     Edge 42, Type (0, 1), BuildingBlock: ZUJKAS_clean_linker_0, # of connection points: 2
#     Edge 43, Type (0, 1), BuildingBlock: ZUJKAS_clean_linker_0, # of connection points: 2
#     Edge 44, Type (0, 1), BuildingBlock: ZUJKAS_clean_linker_0, # of connection points: 2
#     Edge 45, Type (0, 1), BuildingBlock: ZUJKAS_clean_linker_0, # of connection points: 2
#     Edge 46, Type (0, 1), BuildingBlock: ZUJKAS_clean_linker_0, # of connection points: 2
#     Edge 47, Type (0, 1), BuildingBlock: ZUJKAS_clean_linker_0, # of connection points: 2
#     Edge 48, Type (0, 1), BuildingBlock: ZUJKAS_clean_linker_0, # of connection points: 2
#     Edge 49, Type (0, 1), BuildingBlock: ZUJKAS_clean_linker_0, # of connection points: 2
#     Edge 50, Type (0, 1), BuildingBlock: ZUJKAS_clean_linker_0, # of connection points: 2
#     Edge 51, Type (0, 1), BuildingBlock: ZUJKAS_clean_linker_0, # of connection points: 2
#     Edge 52, Type (0, 1), BuildingBlock: ZUJKAS_clean_linker_0, # of connection points: 2
#     Edge 53, Type (0, 1), BuildingBlock: ZUJKAS_clean_linker_0, # of connection points: 2
#     Edge 54, Type (0, 1), BuildingBlock: ZUJKAS_clean_linker_0, # of connection points: 2
#     Edge 55, Type (0, 1), BuildingBlock: ZUJKAS_clean_linker_0, # of connection points: 2
#     Edge 56, Type (0, 1), BuildingBlock: ZUJKAS_clean_linker_0, # of connection points: 2
#     Edge 57, Type (0, 1), BuildingBlock: ZUJKAS_clean_linker_0, # of connection points: 2
#     Edge 58, Type (0, 1), BuildingBlock: ZUJKAS_clean_linker_0, # of connection points: 2
#     Edge 59, Type (0, 1), BuildingBlock: ZUJKAS_clean_linker_0, # of connection points: 2
#     Edge 60, Type (0, 1), BuildingBlock: ZUJKAS_clean_linker_0, # of connection points: 2
#     Edge 61, Type (0, 1), BuildingBlock: ZUJKAS_clean_linker_0, # of connection points: 2
#     Edge 62, Type (0, 1), BuildingBlock: ZUJKAS_clean_linker_0, # of connection points: 2
#     Edge 63, Type (0, 1), BuildingBlock: ZUJKAS_clean_linker_0, # of connection points: 2
#     Edge 64, Type (0, 1), BuildingBlock: ZUJKAS_clean_linker_0, # of connection points: 2
#     Edge 65, Type (0, 1), BuildingBlock: ZUJKAS_clean_linker_0, # of connection points: 2
#     Edge 66, Type (0, 1), BuildingBlock: ZUJKAS_clean_linker_0, # of connection points: 2
#     Edge 67, Type (0, 1), BuildingBlock: ZUJKAS_clean_linker_0, # of connection points: 2
#     Edge 68, Type (0, 1), BuildingBlock: ZUJKAS_clean_linker_0, # of connection points: 2
#     Edge 69, Type (0, 1), BuildingBlock: ZUJKAS_clean_linker_0, # of connection points: 2
#     Edge 70, Type (0, 1), BuildingBlock: ZUJKAS_clean_linker_0, # of connection points: 2
#     Edge 71, Type (0, 1), BuildingBlock: ZUJKAS_clean_linker_0, # of connection points: 2
#     Edge 72, Type (0, 1), BuildingBlock: ZUJKAS_clean_linker_0, # of connection points: 2
#     Edge 73, Type (0, 1), BuildingBlock: ZUJKAS_clean_linker_0, # of connection points: 2
#     Edge 74, Type (0, 1), BuildingBlock: ZUJKAS_clean_linker_0, # of connection points: 2
#     Edge 75, Type (0, 1), BuildingBlock: ZUJKAS_clean_linker_0, # of connection points: 2
#     Edge 76, Type (0, 1), BuildingBlock: ZUJKAS_clean_linker_0, # of connection points: 2
#     Edge 77, Type (0, 1), BuildingBlock: ZUJKAS_clean_linker_0, # of connection points: 2
#     Edge 78, Type (0, 1), BuildingBlock: ZUJKAS_clean_linker_0, # of connection points: 2
#     Edge 79, Type (0, 1), BuildingBlock: ZUJKAS_clean_linker_0, # of connection points: 2
#     Edge 80, Type (0, 1), BuildingBlock: ZUJKAS_clean_linker_0, # of connection points: 2
# Relax obj value: 0.010
# Max RMSD: 0.098
# Mean RMSD: 0.055
data_MOF--net-eea--node1-KUMBOL_clean_sbu_0--node2-MIDCAF_clean_linker_0--edge1-ZUJKAS_clean_linker_0
_symmetry_space_group_name_H-M    P1
_symmetry_Int_Tables_number       1
_symmetry_cell_setting            triclinic
loop_
_symmetry_equiv_pos_as_xyz
'x, y, z'
_cell_length_a     77.962701
_cell_length_b     79.291379
_cell_length_c     106.88428
_cell_angle_alpha  90.255557
_cell_angle_beta   90.216719
_cell_angle_gamma 119.99217
loop_
_atom_site_label
_atom_site_type_symbol
_atom_site_fract_x
_atom_site_fract_y
_atom_site_fract_z
_atom_type_partial_charge
C0 C 0.24129 0.05894 0.41659 0.0
C1 C 0.23351 0.05484 0.40436 0.0
C2 C 0.23068 0.06878 0.39806 0.0
C3 C 0.23531 0.08635 0.40391 0.0
H4 H 0.23342 0.13581 0.39842 0.0
H5 H 0.22464 0.15758 0.38792 0.0
H6 H 0.24 0.19336 0.42126 0.0
H7 H 0.24921 0.1718 0.43176 0.0
H8 H 0.26969 0.16239 0.45445 0.0
H9 H 0.28343 0.16916 0.47559 0.0
H10 H 0.27921 0.11274 0.47653 0.0
H11 H 0.26592 0.10608 0.45536 0.0
H12 H 0.25169 0.07908 0.43193 0.0
H13 H 0.24342 0.04839 0.42174 0.0
H14 H 0.22498 0.06617 0.38857 0.0
H15 H 0.23285 0.0967 0.39877 0.0
N16 N 0.24328 0.12163 0.41667 0.0
N17 N 0.25446 0.14224 0.43424 0.0
N18 N 0.25482 0.11284 0.43432 0.0
C19 C 0.24683 0.13837 0.42244 0.0
C20 C 0.25852 0.12954 0.44024 0.0
C21 C 0.24722 0.10879 0.42253 0.0
C22 C 0.24198 0.15198 0.41597 0.0
C23 C 0.23499 0.14832 0.40355 0.0
C24 C 0.22983 0.16075 0.39753 0.0
C25 C 0.23151 0.17713 0.40378 0.0
C26 C 0.23873 0.18096 0.41615 0.0
C27 C 0.24392 0.16853 0.42218 0.0
C28 C 0.26673 0.1337 0.45315 0.0
C29 C 0.27169 0.15141 0.45915 0.0
C30 C 0.27947 0.15526 0.4713 0.0
C31 C 0.28245 0.1415 0.47774 0.0
C32 C 0.2774 0.12378 0.47177 0.0
C33 C 0.26966 0.11993 0.45962 0.0
C34 C 0.24287 0.09038 0.41621 0.0
C35 C 0.24592 0.07651 0.42245 0.0
C36 C 0.95709 0.17926 0.41724 0.0
C37 C 0.95999 0.17613 0.40465 0.0
C38 C 0.94527 0.15944 0.39846 0.0
C39 C 0.92805 0.14619 0.4047 0.0
H40 H 0.87847 0.09292 0.40023 0.0
H41 H 0.85459 0.06277 0.38982 0.0
H42 H 0.8178 0.04577 0.42271 0.0
H43 H 0.8414 0.07602 0.43307 0.0
H44 H 0.85449 0.10259 0.4564 0.0
H45 H 0.84722 0.10917 0.47732 0.0
H46 H 0.90054 0.16547 0.47712 0.0
H47 H 0.90813 0.15877 0.45618 0.0
H48 H 0.93806 0.16898 0.43315 0.0
H49 H 0.96805 0.19209 0.42223 0.0
H50 H 0.94715 0.1565 0.38881 0.0
H51 H 0.91708 0.13349 0.3996 0.0
N52 N 0.89331 0.1184 0.41805 0.0
N53 N 0.87298 0.10932 0.43569 0.0
N54 N 0.90297 0.13897 0.43567 0.0
C55 C 0.87643 0.10535 0.4239 0.0
C56 C 0.88612 0.12607 0.44166 0.0
C57 C 0.90668 0.13523 0.42385 0.0
C58 C 0.86192 0.08698 0.41752 0.0
C59 C 0.86529 0.0828 0.40526 0.0
C60 C 0.85164 0.06544 0.3993 0.0
C61 C 0.83428 0.05185 0.40543 0.0
C62 C 0.83088 0.05604 0.41765 0.0
C63 C 0.84452 0.07337 0.42363 0.0
C64 C 0.8819 0.13016 0.45452 0.0
C65 C 0.86473 0.1164 0.46076 0.0
C66 C 0.86047 0.12021 0.47277 0.0
C67 C 0.87322 0.1379 0.47888 0.0
C68 C 0.89049 0.15162 0.47272 0.0
C69 C 0.89479 0.1478 0.46068 0.0
C70 C 0.92506 0.14933 0.41728 0.0
C71 C 0.93981 0.16605 0.42347 0.0
C72 C 0.82975 0.78317 0.41859 0.0
C73 C 0.83263 0.78989 0.40621 0.0
C74 C 0.84987 0.79314 0.39996 0.0
C75 C 0.86385 0.78973 0.40595 0.0
H76 H 0.91738 0.79189 0.4007 0.0
H77 H 0.94769 0.79827 0.39017 0.0
H78 H 0.96685 0.78146 0.42344 0.0
H79 H 0.93674 0.77534 0.43407 0.0
H80 H 0.90749 0.75742 0.45701 0.0
H81 H 0.89987 0.74311 0.47781 0.0
H82 H 0.84612 0.74621 0.47808 0.0
H83 H 0.85344 0.7601 0.45724 0.0
H84 H 0.84082 0.77446 0.4341 0.0
H85 H 0.81653 0.78025 0.42363 0.0
H86 H 0.85267 0.79852 0.39046 0.0
H87 H 0.87694 0.79242 0.40084 0.0
N88 N 0.89258 0.7827 0.4189 0.0
N89 N 0.9022 0.77182 0.43654 0.0
N90 N 0.87214 0.77182 0.43652 0.0
C91 C 0.90599 0.77913 0.42473 0.0
C92 C 0.8853 0.76811 0.44251 0.0
C93 C 0.87561 0.7791 0.42474 0.0
C94 C 0.92451 0.78308 0.41827 0.0
C95 C 0.92804 0.78957 0.40581 0.0
C96 C 0.9454 0.79314 0.39972 0.0
C97 C 0.95973 0.79039 0.40595 0.0
C98 C 0.95626 0.78398 0.41841 0.0
C99 C 0.93888 0.78034 0.42449 0.0
C100 C 0.88106 0.75988 0.45536 0.0
C101 C 0.89405 0.75509 0.46149 0.0
C102 C 0.88974 0.74697 0.47347 0.0
C103 C 0.87233 0.74342 0.47963 0.0
C104 C 0.85948 0.74842 0.47355 0.0
C105 C 0.86377 0.75652 0.46159 0.0
C106 C 0.86092 0.78294 0.41834 0.0
C107 C 0.84368 0.77972 0.42457 0.0
C108 C 0.04867 0.21991 0.59463 0.0
C109 C 0.04365 0.21113 0.60647 0.0
C110 C 0.05663 0.20603 0.61228 0.0
C111 C 0.07424 0.20978 0.60645 0.0
H112 H 0.12383 0.20378 0.61107 0.0
H113 H 0.14802 0.19826 0.62215 0.0
H114 H 0.19107 0.22943 0.59345 0.0
H115 H 0.16705 0.23507 0.58239 0.0
H116 H 0.15198 0.24284 0.55667 0.0
H117 H 0.1592 0.25586 0.53558 0.0
H118 H 0.10476 0.2577 0.535 0.0
H119 H 0.09725 0.24424 0.55602 0.0
H120 H 0.06953 0.23038 0.57966 0.0
H121 H 0.0389 0.2238 0.58981 0.0
H122 H 0.05335 0.19944 0.62145 0.0
H123 H 0.0839 0.20575 0.61127 0.0
N124 N 0.11145 0.2194 0.59454 0.0
N125 N 0.1327 0.23091 0.57729 0.0
N126 N 0.10233 0.2303 0.5767 0.0
C127 C 0.1288 0.22344 0.58904 0.0
C128 C 0.11955 0.23435 0.57102 0.0
C129 C 0.09813 0.22282 0.58845 0.0
C130 C 0.14343 0.2199 0.59581 0.0
C131 C 0.13845 0.20949 0.60711 0.0
C132 C 0.15228 0.20622 0.61344 0.0
C133 C 0.17149 0.21344 0.6087 0.0
C134 C 0.17648 0.22387 0.59743 0.0
C135 C 0.16262 0.22699 0.59104 0.0
C136 C 0.124 0.24245 0.55813 0.0
C137 C 0.14149 0.24599 0.55208 0.0
C138 C 0.14572 0.25359 0.53997 0.0
C139 C 0.13261 0.25791 0.53355 0.0
C140 C 0.11509 0.25433 0.53957 0.0
C141 C 0.11084 0.2467 0.55169 0.0
C142 C 0.0793 0.21863 0.59462 0.0
C143 C 0.06622 0.22358 0.58877 0.0
C144 C 0.75821 0.81723 0.59663 0.0
C145 C 0.76874 0.82259 0.60803 0.0
C146 C 0.77443 0.84097 0.61321 0.0
C147 C 0.76973 0.85371 0.60715 0.0
H148 H 0.76928 0.90387 0.61294 0.0
H149 H 0.77768 0.93445 0.62324 0.0
H150 H 0.76056 0.95334 0.58999 0.0
H151 H 0.75172 0.92255 0.57971 0.0
H152 H 0.73512 0.8946 0.55665 0.0
H153 H 0.72169 0.88809 0.53552 0.0
H154 H 0.71745 0.83166 0.53618 0.0
H155 H 0.73132 0.83828 0.55729 0.0
H156 H 0.74544 0.82542 0.58176 0.0
H157 H 0.75337 0.80307 0.59246 0.0
H158 H 0.78284 0.84571 0.62186 0.0
H159 H 0.77451 0.8678 0.61142 0.0
N160 N 0.75881 0.87918 0.59494 0.0
N161 N 0.74707 0.88805 0.57744 0.0
N162 N 0.74668 0.85827 0.57754 0.0
C163 C 0.75503 0.89216 0.58914 0.0
C164 C 0.74283 0.87114 0.57157 0.0
C165 C 0.7547 0.86222 0.58925 0.0
C166 C 0.75985 0.91071 0.59546 0.0
C167 C 0.76725 0.91448 0.6078 0.0
C168 C 0.77218 0.93209 0.6137 0.0
C169 C 0.76988 0.94636 0.60742 0.0
C170 C 0.76231 0.94254 0.59514 0.0
C171 C 0.75733 0.92491 0.58922 0.0
C172 C 0.73434 0.86697 0.55873 0.0
C173 C 0.73133 0.88077 0.55234 0.0
C174 C 0.7235 0.877 0.54022 0.0
C175 C 0.71844 0.85933 0.53416 0.0
C176 C 0.72142 0.84551 0.54052 0.0
C177 C 0.72927 0.84928 0.55267 0.0
C178 C 0.75931 0.84844 0.59571 0.0
C179 C 0.75357 0.83002 0.59052 0.0
C180 C 0.17547 0.94422 0.59495 0.0
C181 C 0.17115 0.95046 0.60624 0.0
C182 C 0.15265 0.93851 0.61183 0.0
C183 C 0.13883 0.92082 0.60626 0.0
H184 H 0.08487 0.8715 0.61201 0.0
H185 H 0.05494 0.84876 0.62307 0.0
H186 H 0.03936 0.80699 0.59298 0.0
H187 H 0.06942 0.82957 0.58194 0.0
H188 H 0.09602 0.84141 0.5574 0.0
H189 H 0.10311 0.83395 0.53653 0.0
H190 H 0.15733 0.88947 0.53588 0.0
H191 H 0.15056 0.8968 0.55673 0.0
H192 H 0.16558 0.92234 0.58068 0.0
H193 H 0.18968 0.95284 0.59048 0.0
H194 H 0.1487 0.94296 0.62044 0.0
H195 H 0.12471 0.91208 0.61081 0.0
N196 N 0.11148 0.88336 0.59486 0.0
N197 N 0.1018 0.86184 0.57771 0.0
N198 N 0.13187 0.89137 0.57727 0.0
C199 C 0.09809 0.86622 0.58936 0.0
C200 C 0.11866 0.87437 0.57159 0.0
C201 C 0.12844 0.896 0.58888 0.0
C202 C 0.07967 0.85242 0.59605 0.0
C203 C 0.07511 0.85748 0.60771 0.0
C204 C 0.05785 0.84447 0.61405 0.0
C205 C 0.04474 0.82604 0.60892 0.0
C206 C 0.04926 0.82098 0.59726 0.0
C207 C 0.06647 0.83401 0.5909 0.0
C208 C 0.12272 0.8697 0.55883 0.0
C209 C 0.10947 0.85204 0.55282 0.0
C210 C 0.11347 0.84778 0.54081 0.0
C211 C 0.13082 0.86107 0.53452 0.0
C212 C 0.14399 0.87875 0.54051 0.0
C213 C 0.14001 0.883 0.55249 0.0
C214 C 0.14312 0.91467 0.59492 0.0
C215 C 0.16164 0.92661 0.58936 0.0
C216 C 0.90715 0.39152 0.75089 0.0
C217 C 0.89989 0.38756 0.73854 0.0
C218 C 0.89778 0.40178 0.73202 0.0
C219 C 0.90269 0.4195 0.73775 0.0
H220 H 0.90385 0.4703 0.73132 0.0
H221 H 0.89573 0.49228 0.72046 0.0
H222 H 0.91042 0.52819 0.7537 0.0
H223 H 0.91899 0.50642 0.76456 0.0
H224 H 0.94539 0.49847 0.78602 0.0
H225 H 0.95847 0.50504 0.80741 0.0
H226 H 0.93815 0.44392 0.81235 0.0
H227 H 0.92514 0.43726 0.79102 0.0
H228 H 0.91748 0.41174 0.76619 0.0
H229 H 0.90872 0.38078 0.75622 0.0
H230 H 0.89249 0.39928 0.72244 0.0
H231 H 0.90086 0.43009 0.73242 0.0
N232 N 0.91181 0.45543 0.7501 0.0
N233 N 0.9234 0.47639 0.7675 0.0
N234 N 0.92201 0.44616 0.76814 0.0
C235 C 0.91604 0.47255 0.75562 0.0
C236 C 0.92642 0.46325 0.77381 0.0
C237 C 0.91477 0.44217 0.75627 0.0
C238 C 0.912 0.4865 0.74886 0.0
C239 C 0.90545 0.48291 0.73634 0.0
C240 C 0.90068 0.49547 0.73011 0.0
C241 C 0.90228 0.51191 0.73624 0.0
C242 C 0.9092 0.51574 0.74867 0.0
C243 C 0.91402 0.50319 0.75492 0.0
C244 C 0.93424 0.46734 0.7868 0.0
C245 C 0.94366 0.48642 0.79167 0.0
C246 C 0.95124 0.49022 0.80388 0.0
C247 C 0.94927 0.47498 0.81152 0.0
C248 C 0.9397 0.45591 0.8067 0.0
C249 C 0.93238 0.45214 0.79445 0.0
C250 C 0.90984 0.42345 0.75014 0.0
C251 C 0.91207 0.40926 0.75663 0.0
C252 C 0.61816 0.51748 0.74961 0.0
C253 C 0.625 0.51076 0.73964 0.0
C254 C 0.61428 0.49082 0.73651 0.0
C255 C 0.59718 0.47805 0.74306 0.0
H256 H 0.54667 0.42482 0.73931 0.0
H257 H 0.52304 0.39402 0.72956 0.0
H258 H 0.48156 0.38347 0.75931 0.0
H259 H 0.5054 0.41406 0.76928 0.0
H260 H 0.52244 0.44032 0.79412 0.0
H261 H 0.51623 0.44874 0.81489 0.0
H262 H 0.56633 0.50674 0.81114 0.0
H263 H 0.57252 0.49846 0.79028 0.0
H264 H 0.59636 0.51038 0.76383 0.0
H265 H 0.62574 0.53276 0.75218 0.0
H266 H 0.61922 0.48495 0.72909 0.0
H267 H 0.58938 0.46281 0.74038 0.0
N268 N 0.55917 0.4536 0.75483 0.0
N269 N 0.53889 0.44603 0.77246 0.0
N270 N 0.56848 0.47602 0.77142 0.0
C271 C 0.5424 0.44098 0.76098 0.0
C272 C 0.55187 0.46349 0.77778 0.0
C273 C 0.57226 0.47115 0.75995 0.0
C274 C 0.528 0.42202 0.75511 0.0
C275 C 0.53253 0.41596 0.74382 0.0
C276 C 0.5189 0.3983 0.73816 0.0
C277 C 0.50031 0.38623 0.7436 0.0
C278 C 0.49581 0.39224 0.75493 0.0
C279 C 0.50949 0.40987 0.76062 0.0
C280 C 0.54801 0.4687 0.79045 0.0
C281 C 0.53216 0.4549 0.79767 0.0
C282 C 0.52865 0.45967 0.80965 0.0
C283 C 0.54081 0.4784 0.8147 0.0
C284 C 0.55658 0.49224 0.80748 0.0
C285 C 0.56018 0.48743 0.79553 0.0
C286 C 0.59045 0.48478 0.75304 0.0
C287 C 0.6012 0.50465 0.75627 0.0
C288 C 0.49577 0.11485 0.75207 0.0
C289 C 0.49931 0.12361 0.74024 0.0
C290 C 0.51728 0.12869 0.73425 0.0
C291 C 0.53126 0.12493 0.7399 0.0
H292 H 0.58641 0.13011 0.73478 0.0
H293 H 0.61607 0.13597 0.72359 0.0
H294 H 0.62858 0.10528 0.7522 0.0
H295 H 0.59887 0.09925 0.76338 0.0
H296 H 0.56998 0.08231 0.78726 0.0
H297 H 0.56349 0.06905 0.80843 0.0
H298 H 0.51942 0.08628 0.81317 0.0
H299 H 0.5258 0.0995 0.79208 0.0
H300 H 0.50641 0.10438 0.76686 0.0
H301 H 0.48221 0.11098 0.75703 0.0
H302 H 0.52041 0.13529 0.72508 0.0
H303 H 0.54485 0.12892 0.73496 0.0
N304 N 0.55885 0.11492 0.75151 0.0
N305 N 0.56854 0.10308 0.76864 0.0
N306 N 0.53915 0.10436 0.76947 0.0
C307 C 0.57206 0.11062 0.75689 0.0
C308 C 0.55215 0.09999 0.77502 0.0
C309 C 0.54231 0.11177 0.75772 0.0
C310 C 0.59015 0.11418 0.75002 0.0
C311 C 0.59542 0.12455 0.73871 0.0
C312 C 0.61252 0.12804 0.73231 0.0
C313 C 0.62471 0.1211 0.73699 0.0
C314 C 0.61941 0.11065 0.74826 0.0
C315 C 0.6024 0.1073 0.75471 0.0
C316 C 0.54842 0.09199 0.78792 0.0
C317 C 0.55894 0.08332 0.79281 0.0
C318 C 0.55515 0.07562 0.80492 0.0
C319 C 0.54097 0.07665 0.81248 0.0
C320 C 0.53058 0.08543 0.80763 0.0
C321 C 0.53417 0.0929 0.79549 0.0
C322 C 0.52766 0.11608 0.75173 0.0
C323 C 0.50975 0.11118 0.75775 0.0
C324 C 0.71522 0.54926 0.92795 0.0
C325 C 0.71263 0.54486 0.94078 0.0
C326 C 0.72808 0.54458 0.94744 0.0
C327 C 0.7456 0.5485 0.94143 0.0
H328 H 0.79723 0.54694 0.94684 0.0
H329 H 0.82121 0.54051 0.95734 0.0
H330 H 0.85437 0.55256 0.92307 0.0
H331 H 0.83041 0.55879 0.91252 0.0
H332 H 0.81881 0.5748 0.88947 0.0
H333 H 0.82572 0.58781 0.86839 0.0
H334 H 0.77198 0.59095 0.86856 0.0
H335 H 0.76477 0.57751 0.8896 0.0
H336 H 0.73413 0.55651 0.91204 0.0
H337 H 0.70355 0.5493 0.92244 0.0
H338 H 0.72678 0.54155 0.95737 0.0
H339 H 0.75715 0.54818 0.94689 0.0
N340 N 0.78026 0.5537 0.92813 0.0
N341 N 0.80048 0.56395 0.91039 0.0
N342 N 0.77032 0.56379 0.91026 0.0
C343 C 0.79716 0.55713 0.9223 0.0
C344 C 0.7872 0.56737 0.9043 0.0
C345 C 0.76673 0.55694 0.92217 0.0
C346 C 0.81181 0.55336 0.9288 0.0
C347 C 0.80961 0.5482 0.94152 0.0
C348 C 0.82342 0.54461 0.94757 0.0
C349 C 0.83967 0.54596 0.94103 0.0
C350 C 0.84187 0.55113 0.92834 0.0
C351 C 0.82816 0.55483 0.9223 0.0
C352 C 0.79123 0.57511 0.89132 0.0
C353 C 0.8084 0.57821 0.88505 0.0
C354 C 0.81245 0.58581 0.87295 0.0
C355 C 0.79948 0.59054 0.86677 0.0
C356 C 0.7822 0.58728 0.87298 0.0
C357 C 0.77813 0.57966 0.8851 0.0
C358 C 0.74818 0.55292 0.92859 0.0
C359 C 0.73278 0.5533 0.92194 0.0
C360 C 0.4269 0.15222 0.9315 0.0
C361 C 0.43689 0.15733 0.94309 0.0
C362 C 0.4415 0.17522 0.94865 0.0
C363 C 0.4363 0.1877 0.94276 0.0
H364 H 0.43228 0.23588 0.94947 0.0
H365 H 0.43775 0.26505 0.96053 0.0
H366 H 0.41946 0.28362 0.92766 0.0
H367 H 0.41425 0.2546 0.91645 0.0
H368 H 0.41067 0.23209 0.8905 0.0
H369 H 0.3984 0.22628 0.86899 0.0
H370 H 0.38126 0.16563 0.87226 0.0
H371 H 0.39364 0.17135 0.8938 0.0
H372 H 0.41411 0.16038 0.91664 0.0
H373 H 0.42288 0.13842 0.92704 0.0
H374 H 0.44947 0.17977 0.95746 0.0
H375 H 0.44027 0.20142 0.94731 0.0
N376 N 0.42405 0.21245 0.93091 0.0
N377 N 0.41319 0.22185 0.91322 0.0
N378 N 0.41446 0.19291 0.91285 0.0
C379 C 0.41992 0.22529 0.92522 0.0
C380 C 0.41038 0.20569 0.90698 0.0
C381 C 0.42139 0.19625 0.92482 0.0
C382 C 0.42288 0.24288 0.93203 0.0
C383 C 0.42938 0.24613 0.94457 0.0
C384 C 0.4324 0.2628 0.95096 0.0
C385 C 0.42904 0.27663 0.94497 0.0
C386 C 0.4224 0.27333 0.93248 0.0
C387 C 0.41933 0.25663 0.92608 0.0
C388 C 0.4031 0.20217 0.89388 0.0
C389 C 0.4043 0.2175 0.88666 0.0
C390 C 0.3974 0.21423 0.87431 0.0
C391 C 0.38891 0.19552 0.86899 0.0
C392 C 0.38765 0.18017 0.87618 0.0
C393 C 0.39482 0.18349 0.88848 0.0
C394 C 0.42645 0.18269 0.93113 0.0
C395 C 0.42178 0.16478 0.92557 0.0
C396 C 0.83657 0.27885 0.92638 0.0
C397 C 0.8362 0.2816 0.93934 0.0
C398 C 0.82182 0.26638 0.94657 0.0
C399 C 0.808 0.24878 0.94094 0.0
H400 H 0.75115 0.20268 0.94534 0.0
H401 H 0.72178 0.1799 0.95681 0.0
H402 H 0.70725 0.13659 0.92787 0.0
H403 H 0.73677 0.15931 0.91634 0.0
H404 H 0.76205 0.17216 0.89084 0.0
H405 H 0.76903 0.16491 0.86987 0.0
H406 H 0.82074 0.22226 0.86812 0.0
H407 H 0.8141 0.22942 0.88905 0.0
H408 H 0.82367 0.25956 0.91074 0.0
H409 H 0.84761 0.29029 0.92059 0.0
H410 H 0.8211 0.26817 0.95657 0.0
H411 H 0.79709 0.23736 0.94678 0.0
N412 N 0.77761 0.21413 0.92828 0.0
N413 N 0.76753 0.19277 0.91104 0.0
N414 N 0.79689 0.22295 0.91016 0.0
C415 C 0.76429 0.19689 0.92289 0.0
C416 C 0.78382 0.20577 0.90461 0.0
C417 C 0.79393 0.22723 0.92199 0.0
C418 C 0.74639 0.18288 0.92988 0.0
C419 C 0.74177 0.18831 0.94138 0.0
C420 C 0.72484 0.17529 0.94795 0.0
C421 C 0.71218 0.15647 0.94324 0.0
C422 C 0.71683 0.15094 0.93179 0.0
C423 C 0.7337 0.16402 0.92516 0.0
C424 C 0.78755 0.20135 0.89172 0.0
C425 C 0.7749 0.18324 0.88599 0.0
C426 C 0.77884 0.1791 0.87393 0.0
C427 C 0.79551 0.19296 0.86734 0.0
C428 C 0.80797 0.21112 0.87301 0.0
C429 C 0.80407 0.21526 0.88503 0.0
C430 C 0.80843 0.24596 0.92796 0.0
C431 C 0.82291 0.26119 0.92076 0.0
C432 C 0.57968 0.72542 0.07899 0.0
C433 C 0.57226 0.72196 0.06667 0.0
C434 C 0.56834 0.73562 0.06098 0.0
C435 C 0.57149 0.75223 0.0675 0.0
H436 H 0.5643 0.79893 0.0641 0.0
H437 H 0.55505 0.82077 0.05418 0.0
H438 H 0.57046 0.85549 0.088 0.0
H439 H 0.58011 0.83386 0.09793 0.0
H440 H 0.59571 0.82143 0.12132 0.0
H441 H 0.60828 0.82721 0.14271 0.0
H442 H 0.61669 0.77743 0.14007 0.0
H443 H 0.60373 0.77133 0.1188 0.0
H444 H 0.58836 0.74413 0.09506 0.0
H445 H 0.58265 0.71506 0.08369 0.0
H446 H 0.56289 0.73352 0.05143 0.0
H447 H 0.5682 0.76237 0.0628 0.0
N448 N 0.57647 0.78543 0.08152 0.0
N449 N 0.58581 0.80455 0.09975 0.0
N450 N 0.58861 0.77646 0.09879 0.0
C451 C 0.57861 0.80125 0.08785 0.0
C452 C 0.59087 0.79223 0.10529 0.0
C453 C 0.58142 0.77296 0.08689 0.0
C454 C 0.57298 0.8146 0.08184 0.0
C455 C 0.56575 0.81121 0.06946 0.0
C456 C 0.56032 0.82367 0.06377 0.0
C457 C 0.56197 0.83983 0.07031 0.0
C458 C 0.56922 0.84328 0.08267 0.0
C459 C 0.57466 0.83081 0.08837 0.0
C460 C 0.59866 0.79589 0.1183 0.0
C461 C 0.60021 0.81168 0.12528 0.0
C462 C 0.60752 0.81507 0.13754 0.0
C463 C 0.61348 0.80278 0.14311 0.0
C464 C 0.61195 0.78701 0.13613 0.0
C465 C 0.60462 0.7836 0.12388 0.0
C466 C 0.57866 0.75559 0.07989 0.0
C467 C 0.58284 0.74205 0.08553 0.0
C468 C 0.28889 0.84573 0.08265 0.0
C469 C 0.29072 0.84302 0.06982 0.0
C470 C 0.27491 0.82731 0.06354 0.0
C471 C 0.25775 0.81444 0.06998 0.0
H472 H 0.20899 0.76043 0.06663 0.0
H473 H 0.18517 0.72985 0.05667 0.0
H474 H 0.14948 0.71323 0.09005 0.0
H475 H 0.17307 0.74394 0.09998 0.0
H476 H 0.18873 0.77014 0.12386 0.0
H477 H 0.18245 0.77727 0.14494 0.0
H478 H 0.23318 0.83517 0.14262 0.0
H479 H 0.23945 0.82818 0.1214 0.0
H480 H 0.27078 0.83547 0.09897 0.0
H481 H 0.30074 0.85785 0.08771 0.0
H482 H 0.27595 0.82476 0.05368 0.0
H483 H 0.24593 0.80241 0.06484 0.0
N484 N 0.22419 0.78626 0.08411 0.0
N485 N 0.20474 0.7774 0.10216 0.0
N486 N 0.23464 0.80712 0.10159 0.0
C487 C 0.20764 0.77327 0.09028 0.0
C488 C 0.21812 0.79429 0.10789 0.0
C489 C 0.23778 0.8032 0.08968 0.0
C490 C 0.19302 0.75471 0.08414 0.0
C491 C 0.19607 0.75031 0.07187 0.0
C492 C 0.18245 0.73271 0.06616 0.0
C493 C 0.16545 0.71908 0.07257 0.0
C494 C 0.16231 0.72352 0.0848 0.0
C495 C 0.17593 0.74111 0.09052 0.0
C496 C 0.2146 0.79859 0.12087 0.0
C497 C 0.19861 0.78441 0.1278 0.0
C498 C 0.19506 0.78844 0.13995 0.0
C499 C 0.20734 0.80677 0.14547 0.0
C500 C 0.22335 0.82096 0.13858 0.0
C501 C 0.22699 0.8169 0.12643 0.0
C502 C 0.25591 0.81708 0.08284 0.0
C503 C 0.27165 0.83296 0.08908 0.0
C504 C 0.16449 0.45115 0.08388 0.0
C505 C 0.16665 0.45647 0.07121 0.0
C506 C 0.18293 0.45798 0.06462 0.0
C507 C 0.19672 0.45425 0.07056 0.0
H508 H 0.25855 0.47024 0.07113 0.0
H509 H 0.28896 0.47705 0.06067 0.0
H510 H 0.28984 0.43082 0.0815 0.0
H511 H 0.26009 0.42493 0.09248 0.0
H512 H 0.23954 0.42042 0.12114 0.0
H513 H 0.23215 0.40643 0.14203 0.0
H514 H 0.17919 0.41092 0.14276 0.0
H515 H 0.18628 0.42451 0.12184 0.0
H516 H 0.17591 0.44311 0.09955 0.0
H517 H 0.15199 0.44964 0.08919 0.0
H518 H 0.18511 0.46222 0.05488 0.0
H519 H 0.20905 0.45553 0.06518 0.0
N520 N 0.22566 0.44771 0.08361 0.0
N521 N 0.23452 0.43531 0.10083 0.0
N522 N 0.20506 0.43651 0.10115 0.0
C523 C 0.23857 0.44325 0.0892 0.0
C524 C 0.21782 0.43199 0.10691 0.0
C525 C 0.2088 0.44431 0.0895 0.0
C526 C 0.25692 0.44708 0.08266 0.0
C527 C 0.26528 0.46155 0.07347 0.0
C528 C 0.2827 0.46535 0.06739 0.0
C529 C 0.29204 0.45449 0.07013 0.0
C530 C 0.28346 0.43983 0.07926 0.0
C531 C 0.26626 0.43632 0.08553 0.0
C532 C 0.2135 0.42358 0.11971 0.0
C533 C 0.2263 0.41842 0.12573 0.0
C534 C 0.22213 0.4105 0.13777 0.0
C535 C 0.20505 0.40749 0.1441 0.0
C536 C 0.19232 0.41273 0.13811 0.0
C537 C 0.19647 0.42065 0.12609 0.0
C538 C 0.19447 0.44876 0.08323 0.0
C539 C 0.17818 0.4473 0.0898 0.0
C540 C 0.38362 0.88972 0.26441 0.0
C541 C 0.37867 0.88036 0.27607 0.0
C542 C 0.39126 0.87429 0.28129 0.0
C543 C 0.40838 0.87754 0.27503 0.0
H544 H 0.46135 0.87842 0.28067 0.0
H545 H 0.48531 0.8718 0.29098 0.0
H546 H 0.51747 0.88271 0.25639 0.0
H547 H 0.4935 0.88911 0.246 0.0
H548 H 0.47752 0.89948 0.22158 0.0
H549 H 0.48428 0.91248 0.20041 0.0
H550 H 0.44082 0.9306 0.20466 0.0
H551 H 0.43394 0.91757 0.22586 0.0
H552 H 0.40392 0.90006 0.24912 0.0
H553 H 0.37414 0.89439 0.26005 0.0
H554 H 0.388 0.86721 0.29031 0.0
H555 H 0.4177 0.87266 0.27937 0.0
N556 N 0.44452 0.88592 0.26225 0.0
N557 N 0.4642 0.89548 0.24426 0.0
N558 N 0.43498 0.89711 0.24473 0.0
C559 C 0.46098 0.88861 0.25616 0.0
C560 C 0.45133 0.89981 0.23847 0.0
C561 C 0.4314 0.89008 0.25661 0.0
C562 C 0.47542 0.88431 0.26247 0.0
C563 C 0.47348 0.87936 0.27522 0.0
C564 C 0.48729 0.87567 0.28118 0.0
C565 C 0.50331 0.87671 0.27452 0.0
C566 C 0.50518 0.88154 0.26176 0.0
C567 C 0.49146 0.88534 0.25582 0.0
C568 C 0.45519 0.90747 0.22548 0.0
C569 C 0.46936 0.9062 0.21803 0.0
C570 C 0.47316 0.91355 0.20585 0.0
C571 C 0.46309 0.92257 0.20085 0.0
C572 C 0.44893 0.92386 0.20828 0.0
C573 C 0.44493 0.91629 0.22041 0.0
C574 C 0.41331 0.88684 0.26333 0.0
C575 C 0.40067 0.89287 0.2581 0.0
C576 C 0.09235 0.4848 0.26253 0.0
C577 C 0.10246 0.4901 0.27408 0.0
C578 C 0.10738 0.50819 0.27943 0.0
C579 C 0.10235 0.5207 0.2734 0.0
H580 H 0.10159 0.57053 0.27918 0.0
H581 H 0.10981 0.60104 0.28952 0.0
H582 H 0.09233 0.61977 0.25635 0.0
H583 H 0.08366 0.58905 0.24604 0.0
H584 H 0.06706 0.5611 0.22305 0.0
H585 H 0.05303 0.5544 0.20209 0.0
H586 H 0.04857 0.49787 0.2027 0.0
H587 H 0.06307 0.5047 0.22365 0.0
H588 H 0.07957 0.49282 0.24758 0.0
H589 H 0.08814 0.47086 0.25823 0.0
H590 H 0.11546 0.51288 0.28821 0.0
H591 H 0.10654 0.53456 0.27782 0.0
N592 N 0.09136 0.54597 0.26113 0.0
N593 N 0.07913 0.55459 0.24375 0.0
N594 N 0.07916 0.525 0.24376 0.0
C595 C 0.08728 0.5588 0.2554 0.0
C596 C 0.07499 0.53772 0.23786 0.0
C597 C 0.08738 0.52906 0.25541 0.0
C598 C 0.09198 0.5773 0.26174 0.0
C599 C 0.09944 0.5811 0.27406 0.0
C600 C 0.10427 0.59866 0.27999 0.0
C601 C 0.10181 0.61287 0.27375 0.0
C602 C 0.09419 0.60902 0.26147 0.0
C603 C 0.08931 0.59143 0.25554 0.0
C604 C 0.06622 0.53344 0.2251 0.0
C605 C 0.0631 0.54721 0.21877 0.0
C606 C 0.05492 0.54333 0.20674 0.0
C607 C 0.04959 0.52556 0.20073 0.0
C608 C 0.05272 0.51178 0.20702 0.0
C609 C 0.06094 0.51567 0.21907 0.0
C610 C 0.09233 0.51548 0.26182 0.0
C611 C 0.08735 0.49736 0.25646 0.0
C612 C 0.50625 0.61117 0.2588 0.0
C613 C 0.503 0.61577 0.27095 0.0
C614 C 0.48555 0.60254 0.27716 0.0
C615 C 0.47169 0.58512 0.27135 0.0
H616 H 0.41632 0.53821 0.27559 0.0
H617 H 0.38681 0.51552 0.28699 0.0
H618 H 0.37254 0.47204 0.2582 0.0
H619 H 0.40222 0.49469 0.24675 0.0
H620 H 0.42646 0.50927 0.22037 0.0
H621 H 0.43339 0.50259 0.19922 0.0
H622 H 0.48948 0.55632 0.20003 0.0
H623 H 0.48283 0.56289 0.2211 0.0
H624 H 0.49542 0.5908 0.2436 0.0
H625 H 0.5194 0.62115 0.25369 0.0
H626 H 0.48271 0.60553 0.28659 0.0
H627 H 0.45846 0.57528 0.27644 0.0
N628 N 0.44343 0.54918 0.25899 0.0
N629 N 0.43342 0.5281 0.2416 0.0
N630 N 0.46343 0.55774 0.24121 0.0
C631 C 0.42995 0.53219 0.2534 0.0
C632 C 0.45016 0.54086 0.23543 0.0
C633 C 0.46022 0.56203 0.25298 0.0
C634 C 0.41173 0.51832 0.26022 0.0
C635 C 0.40694 0.52383 0.27164 0.0
C636 C 0.38994 0.51086 0.27817 0.0
C637 C 0.37733 0.49199 0.2735 0.0
C638 C 0.38207 0.48642 0.2621 0.0
C639 C 0.39903 0.49946 0.2555 0.0
C640 C 0.45408 0.5366 0.22252 0.0
C641 C 0.44029 0.51965 0.21605 0.0
C642 C 0.4442 0.51586 0.20389 0.0
C643 C 0.46203 0.52888 0.19794 0.0
C644 C 0.47574 0.54582 0.20439 0.0
C645 C 0.47183 0.54964 0.21649 0.0
C646 C 0.47492 0.58052 0.25917 0.0
C647 C 0.49239 0.59378 0.25298 0.0
Gd648 Gd 0.51158 0.01443 0.02115 0.0
Gd649 Gd 0.49124 0.98516 0.99189 0.0
C650 C 0.43033 0.93022 0.9902 0.0
C651 C 0.43885 0.9049 0.98715 0.0
C652 C 0.46472 0.93888 0.98852 0.0
C653 C 0.45065 0.94435 0.99024 0.0
C654 C 0.459 0.91914 0.98666 0.0
C655 C 0.42454 0.91043 0.98895 0.0
C656 C 0.41646 0.93646 0.99107 0.0
C657 C 0.42299 0.95636 0.99148 0.0
N658 N 0.45679 0.9636 0.99133 0.0
C659 C 0.4433 0.96981 0.99142 0.0
H660 H 0.4481 0.98513 0.99184 0.0
C661 C 0.49827 0.94861 0.9848 0.0
N662 N 0.48401 0.95302 0.98801 0.0
C663 C 0.49336 0.92922 0.98292 0.0
C664 C 0.47366 0.91439 0.98402 0.0
H665 H 0.51354 0.96 0.98403 0.0
H666 H 0.40901 0.89934 0.98902 0.0
H667 H 0.55469 0.01439 0.02069 0.0
H668 H 0.40072 0.92607 0.99113 0.0
H669 H 0.41238 0.96137 0.99192 0.0
H670 H 0.43416 0.88962 0.98587 0.0
H671 H 0.48944 0.03951 0.02949 0.0
H672 H 0.60217 0.07336 0.02206 0.0
H673 H 0.59041 0.03808 0.02069 0.0
H674 H 0.56891 0.10979 0.02822 0.0
H675 H 0.50476 0.92574 0.98067 0.0
H676 H 0.46989 0.89939 0.98253 0.0
H677 H 0.59399 0.10008 0.02474 0.0
H678 H 0.4983 0.07368 0.03336 0.0
N679 N 0.54606 0.03595 0.02169 0.0
C680 C 0.58642 0.063 0.02207 0.0
C681 C 0.57984 0.04311 0.02133 0.0
C682 C 0.5726 0.06926 0.02318 0.0
C683 C 0.55227 0.05518 0.02305 0.0
C684 C 0.55951 0.0297 0.02134 0.0
N685 N 0.51894 0.04652 0.02537 0.0
C686 C 0.53823 0.06065 0.02494 0.0
C687 C 0.50968 0.07023 0.03094 0.0
C688 C 0.52938 0.08506 0.02994 0.0
C689 C 0.50471 0.0509 0.02877 0.0
C690 C 0.54401 0.08034 0.0271 0.0
H691 H 0.53321 0.10002 0.03166 0.0
O692 O 0.4974 0.00954 0.03927 0.0
O693 O 0.48637 0.98919 0.01182 0.0
O694 O 0.48323 0.00897 0.99403 0.0
O695 O 0.50699 0.03303 0.0072 0.0
O696 O 0.47928 0.00478 0.02415 0.0
O697 O 0.52319 0.0063 0.03712 0.0
O698 O 0.50531 0.98959 0.97377 0.0
O699 O 0.51637 0.01051 1.00118 0.0
O700 O 0.51964 0.99066 0.01885 0.0
O701 O 0.49533 0.96654 0.00605 0.0
O702 O 0.52362 0.99504 0.98887 0.0
O703 O 0.4796 0.99302 0.97582 0.0
C704 C 0.4721 0.98986 0.01678 0.0
C705 C 0.56417 0.09456 0.02671 0.0
C706 C 0.57845 0.08902 0.02473 0.0
C707 C 0.51026 0.0062 0.04487 0.0
C708 C 0.51791 0.01617 0.05697 0.0
C709 C 0.53065 0.03635 0.05749 0.0
C710 C 0.51197 0.00544 0.06813 0.0
C711 C 0.51859 0.01483 0.07986 0.0
C712 C 0.53726 0.04579 0.06902 0.0
C713 C 0.53124 0.03519 0.08011 0.0
C714 C 0.49305 0.0271 0.99843 0.0
C715 C 0.53072 0.01005 0.99616 0.0
C716 C 0.49248 0.99293 0.96811 0.0
C717 C 0.48483 0.98287 0.95605 0.0
C718 C 0.47199 0.9627 0.95556 0.0
C719 C 0.49089 0.99354 0.94488 0.0
C720 C 0.48431 0.98412 0.93316 0.0
C721 C 0.46539 0.95324 0.94403 0.0
C722 C 0.47153 0.96379 0.93292 0.0
C723 C 0.50944 0.97244 0.01467 0.0
H724 H 0.53539 0.04482 0.04902 0.0
H725 H 0.50233 0.98979 0.06762 0.0
H726 H 0.54697 0.06142 0.06937 0.0
H727 H 0.53629 0.04304 0.0889 0.0
H728 H 0.46718 0.95427 0.96405 0.0
H729 H 0.50061 0.00918 0.94537 0.0
H730 H 0.4556 0.93762 0.9437 0.0
H731 H 0.46648 0.95593 0.92414 0.0
Gd732 Gd 0.98475 0.49491 0.01887 0.0
Gd733 Gd 0.0199 0.50476 0.99277 0.0
C734 C 0.07557 0.49977 0.99675 0.0
C735 C 0.10176 0.53352 0.99505 0.0
C736 C 0.06723 0.525 0.9934 0.0
C737 C 0.06133 0.50565 0.99527 0.0
C738 C 0.08751 0.53913 0.99297 0.0
C739 C 0.09579 0.51387 0.99695 0.0
C740 C 0.06905 0.47988 0.99765 0.0
C741 C 0.04886 0.46641 0.99667 0.0
N742 N 0.04169 0.49244 0.99496 0.0
C743 C 0.03532 0.47296 0.99517 0.0
H744 H 0.01976 0.46238 0.9945 0.0
C745 C 0.05818 0.54835 0.98784 0.0
N746 N 0.05308 0.52985 0.9913 0.0
C747 C 0.0781 0.56292 0.98737 0.0
C748 C 0.09284 0.55835 0.99011 0.0
H749 H 0.04684 0.55198 0.98579 0.0
H750 H 0.10693 0.50966 0.99824 0.0
H751 H 0.98533 0.53757 0.01776 0.0
H752 H 0.0795 0.47476 0.99882 0.0
H753 H 0.04368 0.45096 0.99714 0.0
H754 H 0.11742 0.54419 0.99489 0.0
H755 H 0.95732 0.44741 0.02496 0.0
H756 H 0.92587 0.52582 0.01311 0.0
H757 H 0.9617 0.54933 0.01526 0.0
H758 H 0.8874 0.45625 0.01569 0.0
H759 H 0.08207 0.57765 0.98492 0.0
H760 H 0.10826 0.56964 0.9897 0.0
H761 H 0.89824 0.49098 0.01299 0.0
H762 H 0.92197 0.42186 0.02517 0.0
N763 N 0.96326 0.50757 0.01678 0.0
C764 C 0.93619 0.52054 0.01422 0.0
C765 C 0.95639 0.53385 0.01546 0.0
C766 C 0.92951 0.50058 0.01476 0.0
C767 C 0.94358 0.49449 0.0162 0.0
C768 C 0.96977 0.52709 0.01689 0.0
N769 N 0.95146 0.46993 0.01983 0.0
C770 C 0.93748 0.47502 0.01775 0.0
C771 C 0.92613 0.43674 0.02303 0.0
C772 C 0.91159 0.44159 0.02031 0.0
C773 C 0.94611 0.45123 0.02294 0.0
C774 C 0.91716 0.46098 0.01783 0.0
H775 H 0.89612 0.43036 0.02043 0.0
O776 O 0.98418 0.48428 0.03762 0.0
O777 O 0.01206 0.4957 0.01244 0.0
O778 O 0.99532 0.47292 0.99362 0.0
O779 O 0.96876 0.47302 0.00355 0.0
O780 O 0.99429 0.47304 0.02403 0.0
O781 O 0.99003 0.51381 0.0349 0.0
O782 O 0.01885 0.51445 0.974 0.0
O783 O 0.99272 0.50412 0.99928 0.0
O784 O 0.00946 0.52669 0.01825 0.0
O785 O 0.03602 0.52724 0.00778 0.0
O786 O 0.01045 0.52669 0.98762 0.0
O787 O 0.01525 0.48578 0.97686 0.0
C788 C 0.01076 0.48117 0.01802 0.0
C789 C 0.90309 0.46683 0.01579 0.0
C790 C 0.90925 0.48661 0.01426 0.0
C791 C 0.987 0.50029 0.04295 0.0
C792 C 0.97399 0.49789 0.05349 0.0
C793 C 0.95445 0.49368 0.05152 0.0
C794 C 0.98122 0.49956 0.06572 0.0
C795 C 0.96905 0.49701 0.07606 0.0
C796 C 0.94227 0.49116 0.06171 0.0
C797 C 0.94947 0.4928 0.07392 0.0
C798 C 0.97612 0.46493 0.99606 0.0
C799 C 0.99408 0.5187 0.99373 0.0
C800 C 0.01691 0.49873 0.96873 0.0
C801 C 0.02963 0.50179 0.95792 0.0
C802 C 0.04973 0.50775 0.95943 0.0
C803 C 0.02157 0.49936 0.94587 0.0
C804 C 0.03352 0.50313 0.93522 0.0
C805 C 0.06169 0.51139 0.94895 0.0
C806 C 0.05371 0.50918 0.93692 0.0
C807 C 0.0286 0.53503 0.0155 0.0
H808 H 0.94863 0.49233 0.04216 0.0
H809 H 0.99644 0.50307 0.06716 0.0
H810 H 0.92717 0.48786 0.06015 0.0
H811 H 0.93964 0.49052 0.08166 0.0
H812 H 0.05618 0.50969 0.96866 0.0
H813 H 0.00593 0.49444 0.94483 0.0
H814 H 0.07725 0.51611 0.95015 0.0
H815 H 0.06343 0.51252 0.92897 0.0
Gd816 Gd 0.49052 0.50377 0.98881 0.0
Gd817 Gd 0.51357 0.4983 0.01782 0.0
C818 C 0.56733 0.48953 0.01646 0.0
C819 C 0.55302 0.45551 0.02215 0.0
C820 C 0.5325 0.47061 0.02138 0.0
C821 C 0.54853 0.48787 0.01763 0.0
C822 C 0.53463 0.45434 0.02401 0.0
C823 C 0.56937 0.4731 0.01838 0.0
C824 C 0.58363 0.50779 0.01388 0.0
C825 C 0.58104 0.52393 0.01301 0.0
N826 N 0.54602 0.50345 0.01603 0.0
C827 C 0.56207 0.52152 0.01424 0.0
H828 H 0.56034 0.53414 0.01349 0.0
C829 C 0.49968 0.45437 0.02884 0.0
N830 N 0.51508 0.47015 0.02324 0.0
C831 C 0.50097 0.43778 0.03148 0.0
C832 C 0.51843 0.43764 0.02887 0.0
H833 H 0.48613 0.45428 0.03097 0.0
H834 H 0.58363 0.47402 0.01737 0.0
H835 H 0.48495 0.47213 0.96612 0.0
H836 H 0.59832 0.50969 0.01291 0.0
H837 H 0.59361 0.53823 0.0113 0.0
H838 H 0.55491 0.44311 0.024 0.0
H839 H 0.47014 0.52962 0.99939 0.0
H840 H 0.42304 0.4337 0.95955 0.0
H841 H 0.45798 0.44349 0.95529 0.0
H842 H 0.39315 0.46439 0.98243 0.0
H843 H 0.48852 0.42514 0.03556 0.0
H844 H 0.51945 0.42482 0.03101 0.0
H845 H 0.39881 0.44148 0.96992 0.0
H846 H 0.43722 0.52634 1.00143 0.0
N847 N 0.4655 0.47747 0.97717 0.0
C848 C 0.43483 0.44608 0.96447 0.0
C849 C 0.45452 0.4516 0.96201 0.0
C850 C 0.43065 0.4573 0.97271 0.0
C851 C 0.44655 0.47319 0.97892 0.0
C852 C 0.46976 0.46777 0.9682 0.0
N853 N 0.45939 0.50174 0.99092 0.0
C854 C 0.44339 0.48586 0.98601 0.0
C855 C 0.4387 0.51474 0.99717 0.0
C856 C 0.42196 0.49787 0.99289 0.0
C857 C 0.4574 0.5165 0.99601 0.0
C858 C 0.42419 0.48329 0.98703 0.0
H859 H 0.40751 0.49657 0.99377 0.0
O860 O 0.49205 0.5291 0.97992 0.0
O861 O 0.51821 0.50809 0.99811 0.0
O862 O 0.52732 0.52972 0.01177 0.0
O863 O 0.50114 0.52991 1.00181 0.0
O864 O 0.51201 0.49595 0.98028 0.0
O865 O 0.50583 0.51455 0.97111 0.0
O866 O 0.50198 0.4983 0.03636 0.0
O867 O 0.48888 0.50138 0.00946 0.0
O868 O 0.47833 0.47172 0.99282 0.0
O869 O 0.50193 0.47078 0.00621 0.0
O870 O 0.48142 0.48023 0.02299 0.0
O871 O 0.53243 0.5185 0.0323 0.0
C872 C 0.52423 0.50136 0.98953 0.0
C873 C 0.40805 0.46679 0.98159 0.0
C874 C 0.41128 0.45375 0.97447 0.0
C875 C 0.50032 0.5274 0.96983 0.0
C876 C 0.49121 0.52752 0.95765 0.0
C877 C 0.4756 0.53156 0.95706 0.0
C878 C 0.49832 0.52383 0.94644 0.0
C879 C 0.49001 0.52428 0.93479 0.0
C880 C 0.46731 0.53196 0.94556 0.0
C881 C 0.47445 0.5284 0.9345 0.0
C882 C 0.51786 0.53886 0.00831 0.0
C883 C 0.47462 0.48812 0.01548 0.0
C884 C 0.51902 0.51113 0.04092 0.0
C885 C 0.52485 0.50591 0.05276 0.0
C886 C 0.53708 0.49761 0.05275 0.0
C887 C 0.51771 0.50875 0.06418 0.0
C888 C 0.52285 0.50346 0.07558 0.0
C889 C 0.54219 0.4923 0.06397 0.0
C890 C 0.53515 0.49517 0.07531 0.0
C891 C 0.48673 0.46264 0.99831 0.0
H892 H 0.46976 0.53444 0.96548 0.0
H893 H 0.51048 0.52089 0.94675 0.0
H894 H 0.45526 0.53504 0.94521 0.0
H895 H 0.46763 0.52864 0.9257 0.0
H896 H 0.54265 0.4952 0.04407 0.0
H897 H 0.50833 0.51523 0.06418 0.0
H898 H 0.55156 0.48583 0.06388 0.0
H899 H 0.53912 0.49064 0.08386 0.0
Gd900 Gd 0.17827 0.34911 0.35368 0.0
Gd901 Gd 0.15862 0.32006 0.32437 0.0
C902 C 0.09736 0.26572 0.32151 0.0
C903 C 0.1055 0.24009 0.31869 0.0
C904 C 0.13168 0.27386 0.32078 0.0
C905 C 0.11773 0.27958 0.32222 0.0
C906 C 0.12575 0.25411 0.31873 0.0
C907 C 0.09132 0.2459 0.32005 0.0
C908 C 0.08371 0.27227 0.32184 0.0
C909 C 0.09049 0.29218 0.32269 0.0
N910 N 0.1241 0.29886 0.32351 0.0
C911 C 0.11084 0.30535 0.32337 0.0
H912 H 0.11577 0.32067 0.324 0.0
C913 C 0.16526 0.2832 0.3176 0.0
N914 N 0.15105 0.28782 0.32059 0.0
C915 C 0.16015 0.26378 0.31566 0.0
C916 C 0.14033 0.24913 0.31638 0.0
H917 H 0.18061 0.29449 0.31709 0.0
H918 H 0.07573 0.23501 0.31964 0.0
H919 H 0.22181 0.34987 0.35318 0.0
H920 H 0.06794 0.26212 0.32116 0.0
H921 H 0.08006 0.29742 0.32279 0.0
H922 H 0.10064 0.22481 0.31725 0.0
H923 H 0.15544 0.37345 0.36217 0.0
H924 H 0.26859 0.40913 0.35477 0.0
H925 H 0.25739 0.37398 0.35323 0.0
H926 H 0.23433 0.44453 0.36124 0.0
H927 H 0.1715 0.26013 0.3136 0.0
H928 H 0.13639 0.23411 0.31478 0.0
H929 H 0.25983 0.43541 0.35764 0.0
H930 H 0.16373 0.40741 0.36623 0.0
N931 N 0.21268 0.37105 0.35429 0.0
C932 C 0.25289 0.39858 0.35475 0.0
C933 C 0.24663 0.37876 0.35391 0.0
C934 C 0.23882 0.40451 0.35593 0.0
C935 C 0.21857 0.39019 0.35576 0.0
C936 C 0.22637 0.3651 0.35389 0.0
N937 N 0.1851 0.38098 0.3581 0.0
C938 C 0.2043 0.39533 0.35773 0.0
C939 C 0.17528 0.40423 0.36379 0.0
C940 C 0.1949 0.41929 0.36287 0.0
C941 C 0.17065 0.38501 0.36152 0.0
C942 C 0.20976 0.41492 0.35999 0.0
H943 H 0.19847 0.43416 0.36467 0.0
O944 O 0.16439 0.34447 0.37191 0.0
O945 O 0.15336 0.32366 0.34426 0.0
O946 O 0.1504 0.34374 0.32638 0.0
O947 O 0.17357 0.36774 0.33983 0.0
O948 O 0.14575 0.33887 0.35652 0.0
O949 O 0.18965 0.34044 0.36949 0.0
O950 O 0.17223 0.32318 0.30619 0.0
O951 O 0.18351 0.34562 0.33369 0.0
O952 O 0.18698 0.32583 0.35134 0.0
O953 O 0.1628 0.30156 0.33859 0.0
O954 O 0.19109 0.33023 0.32155 0.0
O955 O 0.14814 0.32913 0.30832 0.0
C956 C 0.13886 0.324 0.34912 0.0
C957 C 0.22984 0.42937 0.35965 0.0
C958 C 0.24435 0.42418 0.3576 0.0
C959 C 0.17703 0.34066 0.37736 0.0
C960 C 0.1851 0.35042 0.38945 0.0
C961 C 0.199 0.37035 0.38999 0.0
C962 C 0.17876 0.33968 0.4006 0.0
C963 C 0.1863 0.34879 0.41229 0.0
C964 C 0.20648 0.3795 0.40151 0.0
C965 C 0.2002 0.36886 0.41258 0.0
C966 C 0.15982 0.36178 0.33094 0.0
C967 C 0.198 0.34532 0.32876 0.0
C968 C 0.16023 0.3277 0.30056 0.0
C969 C 0.15165 0.31764 0.28862 0.0
C970 C 0.13713 0.29789 0.28839 0.0
C971 C 0.1581 0.32792 0.27733 0.0
C972 C 0.15005 0.31853 0.26578 0.0
C973 C 0.12913 0.28846 0.27701 0.0
C974 C 0.13552 0.29865 0.26579 0.0
C975 C 0.17701 0.3076 0.34716 0.0
H976 H 0.20405 0.37883 0.38153 0.0
H977 H 0.16818 0.32421 0.40012 0.0
H978 H 0.21714 0.39493 0.40187 0.0
H979 H 0.20606 0.37644 0.42139 0.0
H980 H 0.13199 0.28976 0.29697 0.0
H981 H 0.16918 0.34326 0.27757 0.0
H982 H 0.11798 0.27317 0.27689 0.0
H983 H 0.12924 0.29087 0.2571 0.0
Gd984 Gd 0.65269 0.82835 0.3515 0.0
Gd985 Gd 0.68624 0.83904 0.32451 0.0
C986 C 0.74148 0.83299 0.32487 0.0
C987 C 0.76787 0.86663 0.32309 0.0
C988 C 0.73347 0.85875 0.32369 0.0
C989 C 0.72743 0.83924 0.325 0.0
C990 C 0.75374 0.87266 0.32252 0.0
C991 C 0.76174 0.84682 0.32417 0.0
C992 C 0.7347 0.81298 0.32501 0.0
C993 C 0.71441 0.7998 0.32516 0.0
N994 N 0.70773 0.82626 0.32545 0.0
C995 C 0.70106 0.80671 0.32522 0.0
H996 H 0.68545 0.79628 0.32523 0.0
C997 C 0.72449 0.88269 0.31988 0.0
N998 N 0.71941 0.86396 0.32271 0.0
C999 C 0.74441 0.89708 0.3189 0.0
C1000 C 0.75913 0.89209 0.32035 0.0
H1001 H 0.71315 0.8866 0.31873 0.0
H1002 H 0.77276 0.8423 0.32419 0.0
H1003 H 0.65227 0.87054 0.35092 0.0
H1004 H 0.745 0.80757 0.32479 0.0
H1005 H 0.70902 0.78429 0.32515 0.0
H1006 H 0.78352 0.8771 0.32228 0.0
H1007 H 0.62637 0.78093 0.35809 0.0
H1008 H 0.59224 0.8576 0.34741 0.0
H1009 H 0.62801 0.88165 0.349 0.0
H1010 H 0.55506 0.78803 0.35055 0.0
H1011 H 0.7484 0.91198 0.31696 0.0
H1012 H 0.77454 0.90321 0.31945 0.0
H1013 H 0.5651 0.82256 0.34775 0.0
H1014 H 0.59125 0.75493 0.35909 0.0
N1015 N 0.63059 0.8404 0.35014 0.0
C1016 C 0.60284 0.85262 0.34827 0.0
C1017 C 0.62301 0.86623 0.3492 0.0
C1018 C 0.59656 0.83274 0.34884 0.0
C1019 C 0.61098 0.82704 0.34991 0.0
C1020 C 0.63674 0.85984 0.3503 0.0
N1021 N 0.61967 0.80298 0.3532 0.0
C1022 C 0.60533 0.80768 0.35149 0.0
C1023 C 0.595 0.7697 0.3569 0.0
C1024 C 0.58006 0.77413 0.35455 0.0
C1025 C 0.61485 0.78444 0.35636 0.0
C1026 C 0.58511 0.79338 0.35201 0.0
H1027 H 0.5647 0.76271 0.35501 0.0
O1028 O 0.65333 0.81785 0.37012 0.0
O1029 O 0.67991 0.82973 0.34421 0.0
O1030 O 0.66181 0.80714 0.32517 0.0
O1031 O 0.6358 0.80629 0.33642 0.0
O1032 O 0.66299 0.80672 0.35572 0.0
O1033 O 0.65851 0.84718 0.36764 0.0
O1034 O 0.68642 0.85013 0.30595 0.0
O1035 O 0.65919 0.83786 0.33181 0.0
O1036 O 0.67699 0.8603 0.35078 0.0
O1037 O 0.70307 0.86099 0.33969 0.0
O1038 O 0.6763 0.8609 0.32034 0.0
O1039 O 0.67907 0.82008 0.30832 0.0
C1040 C 0.67912 0.81514 0.34937 0.0
C1041 C 0.57067 0.79883 0.35032 0.0
C1042 C 0.57639 0.81849 0.34873 0.0
C1043 C 0.6561 0.83375 0.37559 0.0
C1044 C 0.64345 0.83114 0.38639 0.0
C1045 C 0.62361 0.82614 0.38478 0.0
C1046 C 0.65136 0.83358 0.39849 0.0
C1047 C 0.63956 0.83103 0.40904 0.0
C1048 C 0.61178 0.82357 0.39517 0.0
C1049 C 0.61966 0.82597 0.40724 0.0
C1050 C 0.64283 0.79866 0.3283 0.0
C1051 C 0.66012 0.85252 0.32664 0.0
C1052 C 0.68237 0.83385 0.30042 0.0
C1053 C 0.69441 0.83547 0.28949 0.0
C1054 C 0.71389 0.83921 0.29085 0.0
C1055 C 0.68618 0.83313 0.27749 0.0
C1056 C 0.69722 0.83432 0.26681 0.0
C1057 C 0.72501 0.84052 0.28032 0.0
C1058 C 0.71676 0.83806 0.26836 0.0
C1059 C 0.696 0.8687 0.34774 0.0
H1060 H 0.61727 0.82425 0.37553 0.0
H1061 H 0.6668 0.8377 0.39967 0.0
H1062 H 0.59645 0.81964 0.39387 0.0
H1063 H 0.6101 0.82365 0.41515 0.0
H1064 H 0.72047 0.84103 0.3 0.0
H1065 H 0.6712 0.83054 0.27651 0.0
H1066 H 0.74002 0.84332 0.28143 0.0
H1067 H 0.72558 0.83879 0.26036 0.0
Gd1068 Gd 0.15761 0.8392 0.32559 0.0
Gd1069 Gd 0.17804 0.828 0.35371 0.0
C1070 C 0.23814 0.83107 0.35372 0.0
C1071 C 0.22875 0.79704 0.35604 0.0
C1072 C 0.20356 0.80657 0.35567 0.0
C1073 C 0.21798 0.82577 0.35408 0.0
C1074 C 0.20878 0.79201 0.35695 0.0
C1075 C 0.24341 0.81655 0.35441 0.0
C1076 C 0.2524 0.85083 0.35301 0.0
C1077 C 0.24643 0.86474 0.35313 0.0
N1078 N 0.21234 0.83941 0.35355 0.0
C1079 C 0.22625 0.85876 0.35359 0.0
H1080 H 0.22189 0.86969 0.35361 0.0
C1081 C 0.16994 0.78391 0.35967 0.0
N1082 N 0.18446 0.80227 0.3566 0.0
C1083 C 0.17435 0.76893 0.36097 0.0
C1084 C 0.19382 0.77294 0.35945 0.0
H1085 H 0.15484 0.7807 0.36076 0.0
H1086 H 0.2588 0.8203 0.35401 0.0
H1087 H 0.11432 0.79694 0.32541 0.0
H1088 H 0.26804 0.8555 0.35265 0.0
H1089 H 0.25736 0.88009 0.35282 0.0
H1090 H 0.23305 0.78604 0.35688 0.0
H1091 H 0.18024 0.88675 0.31942 0.0
H1092 H 0.0672 0.80958 0.32372 0.0
H1093 H 0.07872 0.7857 0.32462 0.0
H1094 H 0.10091 0.87918 0.32106 0.0
H1095 H 0.16273 0.75431 0.36311 0.0
H1096 H 0.19721 0.76133 0.3605 0.0
H1097 H 0.0756 0.84457 0.32294 0.0
H1098 H 0.17167 0.91266 0.31697 0.0
N1099 N 0.12319 0.82708 0.32542 0.0
C1100 C 0.08292 0.81467 0.32423 0.0
C1101 C 0.08937 0.80114 0.32467 0.0
C1102 C 0.09684 0.83457 0.32414 0.0
C1103 C 0.11714 0.84039 0.32462 0.0
C1104 C 0.10965 0.80762 0.32513 0.0
N1105 N 0.15059 0.86457 0.32291 0.0
C1106 C 0.13132 0.85978 0.3234 0.0
C1107 C 0.16018 0.89786 0.31882 0.0
C1108 C 0.14046 0.89331 0.31982 0.0
C1109 C 0.16497 0.88316 0.32018 0.0
C1110 C 0.12569 0.87402 0.3219 0.0
H1111 H 0.13676 0.90469 0.31866 0.0
O1112 O 0.17084 0.84982 0.3074 0.0
O1113 O 0.18271 0.83736 0.3339 0.0
O1114 O 0.18706 0.86006 0.35244 0.0
O1115 O 0.16265 0.86136 0.34047 0.0
O1116 O 0.19005 0.86079 0.32245 0.0
O1117 O 0.1458 0.8206 0.30916 0.0
O1118 O 0.165 0.81806 0.37204 0.0
O1119 O 0.15303 0.82985 0.34532 0.0
O1120 O 0.1489 0.8072 0.32671 0.0
O1121 O 0.17283 0.80556 0.33901 0.0
O1122 O 0.14543 0.80668 0.35696 0.0
O1123 O 0.19052 0.8469 0.36996 0.0
C1124 C 0.19709 0.85207 0.32905 0.0
C1125 C 0.10553 0.86844 0.3221 0.0
C1126 C 0.09112 0.84874 0.32317 0.0
C1127 C 0.15804 0.834 0.30155 0.0
C1128 C 0.14951 0.83677 0.29001 0.0
C1129 C 0.13474 0.84192 0.29041 0.0
C1130 C 0.15657 0.83459 0.2784 0.0
C1131 C 0.14904 0.83765 0.26718 0.0
C1132 C 0.12717 0.84496 0.27933 0.0
C1133 C 0.13427 0.84289 0.26777 0.0
C1134 C 0.17719 0.86885 0.34883 0.0
C1135 C 0.13851 0.81532 0.35017 0.0
C1136 C 0.17821 0.83385 0.37773 0.0
C1137 C 0.1868 0.83102 0.38924 0.0
C1138 C 0.20143 0.82569 0.3887 0.0
C1139 C 0.18011 0.83349 0.40091 0.0
C1140 C 0.18797 0.83067 0.41209 0.0
C1141 C 0.20927 0.82282 0.39972 0.0
C1142 C 0.20261 0.82526 0.41133 0.0
C1143 C 0.15855 0.79827 0.33046 0.0
H1144 H 0.12911 0.84363 0.29926 0.0
H1145 H 0.16816 0.83083 0.27814 0.0
H1146 H 0.11576 0.84891 0.27969 0.0
H1147 H 0.12803 0.84513 0.25931 0.0
H1148 H 0.20675 0.82373 0.37981 0.0
H1149 H 0.16896 0.83784 0.40126 0.0
H1150 H 0.2205 0.81862 0.39925 0.0
H1151 H 0.20876 0.82267 0.41972 0.0
Gd1152 Gd 0.84518 0.6819 0.68766 0.0
Gd1153 Gd 0.82429 0.65246 0.65863 0.0
C1154 C 0.76385 0.59687 0.65713 0.0
C1155 C 0.7729 0.57207 0.65336 0.0
C1156 C 0.79836 0.60618 0.65496 0.0
C1157 C 0.78408 0.61126 0.65707 0.0
C1158 C 0.79294 0.58657 0.65281 0.0
C1159 C 0.75837 0.57721 0.65553 0.0
C1160 C 0.74974 0.60272 0.65848 0.0
C1161 C 0.75593 0.62253 0.65929 0.0
N1162 N 0.78992 0.6304 0.65848 0.0
C1163 C 0.77617 0.63626 0.65909 0.0
H1164 H 0.78067 0.65148 0.65978 0.0
C1165 C 0.83196 0.61655 0.65088 0.0
N1166 N 0.81753 0.62057 0.65439 0.0
C1167 C 0.82736 0.59731 0.64874 0.0
C1168 C 0.80779 0.58222 0.64985 0.0
H1169 H 0.84713 0.62815 0.65009 0.0
H1170 H 0.74292 0.56592 0.65566 0.0
H1171 H 0.88897 0.68331 0.68666 0.0
H1172 H 0.73407 0.59212 0.65863 0.0
H1173 H 0.74513 0.62724 0.66012 0.0
H1174 H 0.76844 0.55689 0.65185 0.0
H1175 H 0.82182 0.70579 0.6961 0.0
H1176 H 0.93525 0.74273 0.68896 0.0
H1177 H 0.92446 0.7077 0.68701 0.0
H1178 H 0.90027 0.77739 0.69543 0.0
H1179 H 0.8389 0.59415 0.64624 0.0
H1180 H 0.80425 0.56734 0.64814 0.0
H1181 H 0.92607 0.76868 0.69184 0.0
H1182 H 0.8297 0.7396 0.70023 0.0
N1183 N 0.87949 0.7042 0.68803 0.0
C1184 C 0.91959 0.73205 0.68876 0.0
C1185 C 0.91356 0.71231 0.6877 0.0
C1186 C 0.90534 0.73775 0.68991 0.0
C1187 C 0.88515 0.72327 0.68962 0.0
C1188 C 0.89335 0.69849 0.68751 0.0
N1189 N 0.85158 0.71365 0.69202 0.0
C1190 C 0.87071 0.72816 0.69166 0.0
C1191 C 0.84138 0.7366 0.69779 0.0
C1192 C 0.86092 0.75181 0.69691 0.0
C1193 C 0.83697 0.71746 0.69547 0.0
C1194 C 0.87594 0.74767 0.69401 0.0
H1195 H 0.86432 0.76662 0.69877 0.0
O1196 O 0.83216 0.67752 0.70613 0.0
O1197 O 0.81993 0.65606 0.67874 0.0
O1198 O 0.81549 0.67561 0.66129 0.0
O1199 O 0.83988 0.70018 0.6738 0.0
O1200 O 0.81284 0.67139 0.69127 0.0
O1201 O 0.85732 0.67346 0.70314 0.0
O1202 O 0.83728 0.65664 0.64015 0.0
O1203 O 0.84952 0.67822 0.66757 0.0
O1204 O 0.85421 0.65889 0.68493 0.0
O1205 O 0.82977 0.63431 0.67244 0.0
O1206 O 0.85668 0.66308 0.65494 0.0
O1207 O 0.81207 0.66067 0.64306 0.0
C1208 C 0.80566 0.65631 0.68405 0.0
C1209 C 0.89596 0.76229 0.69375 0.0
C1210 C 0.91064 0.75733 0.69171 0.0
C1211 C 0.84507 0.6738 0.71128 0.0
C1212 C 0.85365 0.68366 0.72325 0.0
C1213 C 0.868 0.70347 0.72365 0.0
C1214 C 0.8473 0.6731 0.73444 0.0
C1215 C 0.85525 0.68224 0.74606 0.0
C1216 C 0.87592 0.71266 0.7351 0.0
C1217 C 0.86963 0.70217 0.74623 0.0
C1218 C 0.82541 0.69389 0.66539 0.0
C1219 C 0.86383 0.67809 0.66223 0.0
C1220 C 0.82432 0.66025 0.63496 0.0
C1221 C 0.81574 0.65021 0.62303 0.0
C1222 C 0.80118 0.63046 0.62276 0.0
C1223 C 0.82236 0.66049 0.61175 0.0
C1224 C 0.81448 0.65113 0.60018 0.0
C1225 C 0.79333 0.62106 0.61135 0.0
C1226 C 0.7999 0.63126 0.60014 0.0
C1227 C 0.84437 0.64064 0.68075 0.0
H1228 H 0.87305 0.71181 0.71514 0.0
H1229 H 0.83635 0.65772 0.73406 0.0
H1230 H 0.88695 0.72798 0.73536 0.0
H1231 H 0.87584 0.70975 0.75499 0.0
H1232 H 0.79593 0.62233 0.63134 0.0
H1233 H 0.83347 0.67581 0.61203 0.0
H1234 H 0.78215 0.60578 0.6112 0.0
H1235 H 0.79375 0.6235 0.59143 0.0
Gd1236 Gd 0.32013 0.16383 0.68661 0.0
Gd1237 Gd 0.35358 0.17538 0.65954 0.0
C1238 C 0.40997 0.17141 0.65915 0.0
C1239 C 0.43557 0.20537 0.65737 0.0
C1240 C 0.40088 0.19644 0.6584 0.0
C1241 C 0.39547 0.17706 0.65959 0.0
C1242 C 0.42096 0.2108 0.65707 0.0
C1243 C 0.43007 0.18569 0.65833 0.0
C1244 C 0.40379 0.15155 0.65903 0.0
C1245 C 0.38364 0.13787 0.65949 0.0
N1246 N 0.37591 0.16361 0.66021 0.0
C1247 C 0.36982 0.14418 0.65995 0.0
H1248 H 0.35429 0.13342 0.66012 0.0
C1249 C 0.3908 0.21965 0.6549 0.0
N1250 N 0.38637 0.20107 0.65765 0.0
C1251 C 0.41052 0.23447 0.65376 0.0
C1252 C 0.4257 0.23007 0.65499 0.0
H1253 H 0.37911 0.22311 0.6539 0.0
H1254 H 0.44143 0.18162 0.65813 0.0
H1255 H 0.31887 0.20559 0.68588 0.0
H1256 H 0.41444 0.14662 0.65829 0.0
H1257 H 0.37872 0.12247 0.65933 0.0
H1258 H 0.45109 0.2162 0.65645 0.0
H1259 H 0.29463 0.11645 0.69342 0.0
H1260 H 0.25845 0.1916 0.68292 0.0
H1261 H 0.29412 0.21611 0.6841 0.0
H1262 H 0.22235 0.12208 0.68666 0.0
H1263 H 0.41399 0.24924 0.65189 0.0
H1264 H 0.44095 0.24153 0.65396 0.0
H1265 H 0.23174 0.15641 0.68372 0.0
H1266 H 0.25974 0.09011 0.69487 0.0
N1267 N 0.29755 0.17533 0.6854 0.0
C1268 C 0.26926 0.18688 0.68373 0.0
C1269 C 0.28937 0.20075 0.68441 0.0
C1270 C 0.26332 0.16709 0.68444 0.0
C1271 C 0.27801 0.16172 0.68538 0.0
C1272 C 0.30338 0.1947 0.68543 0.0
N1273 N 0.28733 0.13809 0.68853 0.0
C1274 C 0.27273 0.14245 0.68697 0.0
C1275 C 0.26318 0.10475 0.69258 0.0
C1276 C 0.24795 0.10883 0.69038 0.0
C1277 C 0.28291 0.11969 0.69178 0.0
C1278 C 0.25262 0.12794 0.68774 0.0
H1279 H 0.23268 0.09725 0.69105 0.0
O1280 O 0.32194 0.1537 0.70512 0.0
O1281 O 0.34761 0.16576 0.67924 0.0
O1282 O 0.32955 0.14325 0.66004 0.0
O1283 O 0.30339 0.14155 0.6716 0.0
O1284 O 0.33067 0.14238 0.69052 0.0
O1285 O 0.32505 0.18226 0.70286 0.0
O1286 O 0.35285 0.1862 0.64104 0.0
O1287 O 0.32621 0.17342 0.66692 0.0
O1288 O 0.34403 0.19593 0.68598 0.0
O1289 O 0.37032 0.19732 0.67479 0.0
O1290 O 0.34289 0.19671 0.65553 0.0
O1291 O 0.34739 0.15673 0.64326 0.0
C1292 C 0.34688 0.15107 0.68426 0.0
C1293 C 0.23789 0.13305 0.68623 0.0
C1294 C 0.24324 0.1526 0.68457 0.0
C1295 C 0.32372 0.16913 0.71072 0.0
C1296 C 0.31099 0.16554 0.72162 0.0
C1297 C 0.29064 0.15848 0.72018 0.0
C1298 C 0.31927 0.16874 0.73366 0.0
C1299 C 0.3073 0.16463 0.74433 0.0
C1300 C 0.27865 0.15442 0.73067 0.0
C1301 C 0.28684 0.15736 0.74267 0.0
C1302 C 0.31058 0.13436 0.66327 0.0
C1303 C 0.32671 0.18793 0.6618 0.0
C1304 C 0.34979 0.1703 0.63542 0.0
C1305 C 0.36214 0.17286 0.62446 0.0
C1306 C 0.38198 0.17775 0.62581 0.0
C1307 C 0.35391 0.17043 0.61245 0.0
C1308 C 0.36542 0.17291 0.60176 0.0
C1309 C 0.39352 0.18025 0.61529 0.0
C1310 C 0.38534 0.17788 0.60332 0.0
C1311 C 0.36308 0.20465 0.683 0.0
H1312 H 0.28402 0.15603 0.711 0.0
H1313 H 0.33509 0.17454 0.73467 0.0
H1314 H 0.26291 0.14882 0.7295 0.0
H1315 H 0.27709 0.15367 0.75063 0.0
H1316 H 0.38856 0.17962 0.63496 0.0
H1317 H 0.33847 0.16638 0.61145 0.0
H1318 H 0.40886 0.1841 0.6164 0.0
H1319 H 0.39468 0.18016 0.5953 0.0
Gd1320 Gd 0.82484 0.17204 0.65915 0.0
Gd1321 Gd 0.8457 0.16162 0.68733 0.0
C1322 C 0.90563 0.16449 0.68897 0.0
C1323 C 0.89607 0.13052 0.69183 0.0
C1324 C 0.87093 0.14001 0.69009 0.0
C1325 C 0.88547 0.15919 0.68848 0.0
C1326 C 0.87605 0.12548 0.69198 0.0
C1327 C 0.91085 0.15001 0.69038 0.0
C1328 C 0.91994 0.18424 0.6885 0.0
C1329 C 0.91403 0.19814 0.68756 0.0
N1330 N 0.87993 0.17283 0.68726 0.0
C1331 C 0.89386 0.19216 0.68709 0.0
H1332 H 0.88955 0.2031 0.68646 0.0
C1333 C 0.8371 0.11742 0.69352 0.0
N1334 N 0.85181 0.13575 0.69052 0.0
C1335 C 0.84139 0.10245 0.69527 0.0
C1336 C 0.86094 0.10644 0.69437 0.0
H1337 H 0.82196 0.11425 0.69422 0.0
H1338 H 0.92626 0.1538 0.69064 0.0
H1339 H 0.78084 0.13053 0.65988 0.0
H1340 H 0.93556 0.18893 0.68917 0.0
H1341 H 0.925 0.21348 0.68729 0.0
H1342 H 0.9003 0.11955 0.69318 0.0
H1343 H 0.84825 0.21919 0.65166 0.0
H1344 H 0.73497 0.14512 0.66037 0.0
H1345 H 0.74545 0.12038 0.6607 0.0
H1346 H 0.77028 0.21441 0.65521 0.0
H1347 H 0.82964 0.08786 0.69735 0.0
H1348 H 0.86425 0.09486 0.69584 0.0
H1349 H 0.7444 0.1803 0.65845 0.0
H1350 H 0.84056 0.24565 0.64897 0.0
N1351 N 0.79058 0.16084 0.65942 0.0
C1352 C 0.75058 0.14968 0.65999 0.0
C1353 C 0.75643 0.13568 0.66015 0.0
C1354 C 0.76492 0.16938 0.659 0.0
C1355 C 0.78505 0.17454 0.65863 0.0
C1356 C 0.77658 0.14153 0.65968 0.0
N1357 N 0.8186 0.19782 0.65593 0.0
C1358 C 0.79954 0.19366 0.65683 0.0
C1359 C 0.82889 0.23111 0.65123 0.0
C1360 C 0.80946 0.22724 0.65269 0.0
C1361 C 0.83318 0.21609 0.65272 0.0
C1362 C 0.79443 0.20827 0.65534 0.0
H1363 H 0.80615 0.23888 0.65149 0.0
O1364 O 0.83751 0.1813 0.64067 0.0
O1365 O 0.85005 0.17025 0.66741 0.0
O1366 O 0.8549 0.19369 0.68565 0.0
O1367 O 0.83054 0.19496 0.6736 0.0
O1368 O 0.8573 0.19316 0.65555 0.0
O1369 O 0.81198 0.15257 0.64319 0.0
O1370 O 0.83308 0.15218 0.7058 0.0
O1371 O 0.82061 0.16343 0.67906 0.0
O1372 O 0.81555 0.13996 0.66093 0.0
O1373 O 0.84014 0.13884 0.67279 0.0
O1374 O 0.81322 0.14064 0.69104 0.0
O1375 O 0.85844 0.18104 0.70331 0.0
C1376 C 0.86443 0.18466 0.6623 0.0
C1377 C 0.7745 0.20337 0.65622 0.0
C1378 C 0.75976 0.18395 0.65806 0.0
C1379 C 0.82416 0.16532 0.63523 0.0
C1380 C 0.8154 0.16774 0.62368 0.0
C1381 C 0.80068 0.17295 0.62406 0.0
C1382 C 0.82204 0.16495 0.61208 0.0
C1383 C 0.81405 0.16733 0.60083 0.0
C1384 C 0.79269 0.17537 0.61297 0.0
C1385 C 0.79929 0.17259 0.60142 0.0
C1386 C 0.84513 0.20253 0.68193 0.0
C1387 C 0.8062 0.14917 0.68424 0.0
C1388 C 0.84637 0.16818 0.71126 0.0
C1389 C 0.85524 0.16577 0.72278 0.0
C1390 C 0.87063 0.16151 0.7223 0.0
C1391 C 0.84802 0.16759 0.73442 0.0
C1392 C 0.85611 0.16517 0.74562 0.0
C1393 C 0.87872 0.15905 0.73334 0.0
C1394 C 0.87154 0.16084 0.74493 0.0
C1395 C 0.82541 0.13118 0.66456 0.0
H1396 H 0.7954 0.17515 0.63291 0.0
H1397 H 0.83327 0.1607 0.61185 0.0
H1398 H 0.78137 0.17946 0.61331 0.0
H1399 H 0.79302 0.17481 0.59295 0.0
H1400 H 0.87639 0.16008 0.71344 0.0
H1401 H 0.83627 0.17112 0.73473 0.0
H1402 H 0.89055 0.15568 0.73291 0.0
H1403 H 0.8779 0.1586 0.75334 0.0
H1404 H 0.29392 0.85953 0.04688 0.0
H1405 H 0.32426 0.88257 0.03605 0.0
H1406 H 0.35926 0.87988 0.06651 0.0
H1407 H 0.32899 0.85706 0.07745 0.0
H1408 H 0.3709 0.91663 0.06026 0.0
H1409 H 0.36455 0.87444 0.01728 0.0
H1410 H 0.34326 0.87701 0.01997 0.0
H1411 H 0.34932 0.86349 0.03084 0.0
C1412 C 0.3081 0.86366 0.05118 0.0
C1413 C 0.30908 0.85651 0.06303 0.0
C1414 C 0.32543 0.87675 0.04495 0.0
C1415 C 0.34405 0.88271 0.05036 0.0
C1416 C 0.34505 0.87543 0.06213 0.0
H1417 H 0.4614 0.9514 0.01843 0.0
H1418 H 0.42948 0.92467 0.02549 0.0
C1419 C 0.32775 0.86248 0.06841 0.0
C1420 C 0.36248 0.89754 0.04421 0.0
H1421 H 0.38942 0.9081 0.0173 0.0
C1422 C 0.37497 0.9147 0.05089 0.0
C1423 C 0.3679 0.89494 0.03202 0.0
C1424 C 0.35566 0.8764 0.02465 0.0
C1425 C 0.39257 0.92941 0.04569 0.0
C1426 C 0.3976 0.92715 0.03333 0.0
C1427 C 0.38534 0.90988 0.0267 0.0
C1428 C 0.4158 0.94252 0.02736 0.0
C1429 C 0.40579 0.94712 0.05358 0.0
C1430 C 0.41841 0.96119 0.02563 0.0
C1431 C 0.43658 0.97642 0.02163 0.0
C1432 C 0.45228 0.97311 0.01899 0.0
C1433 C 0.4494 0.95423 0.02016 0.0
C1434 C 0.43121 0.93899 0.02423 0.0
H1435 H 0.40249 0.94433 0.06371 0.0
H1436 H 0.42165 0.95182 0.05211 0.0
H1437 H 0.40339 0.95928 0.05087 0.0
H1438 H 0.40659 0.96412 0.02781 0.0
H1439 H 0.43855 0.9909 0.02087 0.0
H1440 H 0.14992 0.44423 0.04794 0.0
H1441 H 0.12454 0.4493 0.03799 0.0
H1442 H 0.12445 0.48218 0.07022 0.0
H1443 H 0.14968 0.47702 0.08025 0.0
H1444 H 0.08745 0.45536 0.06322 0.0
H1445 H 0.12894 0.49725 0.02165 0.0
H1446 H 0.12824 0.47438 0.02319 0.0
H1447 H 0.14091 0.49313 0.03482 0.0
C1448 C 0.1447 0.45278 0.05283 0.0
C1449 C 0.15184 0.46023 0.06489 0.0
C1450 C 0.13022 0.45572 0.04711 0.0
C1451 C 0.12277 0.46637 0.05327 0.0
C1452 C 0.12999 0.47395 0.06527 0.0
H1453 H 0.04908 0.50977 0.02224 0.0
H1454 H 0.07625 0.50591 0.03044 0.0
C1455 C 0.14436 0.47092 0.07102 0.0
C1456 C 0.10672 0.46879 0.04754 0.0
H1457 H 0.09437 0.48602 0.0218 0.0
C1458 C 0.089 0.46211 0.05418 0.0
C1459 C 0.10879 0.4778 0.03579 0.0
C1460 C 0.12781 0.48623 0.02849 0.0
C1461 C 0.07326 0.46399 0.04937 0.0
C1462 C 0.07507 0.47238 0.03744 0.0
C1463 C 0.09288 0.47932 0.03086 0.0
C1464 C 0.05881 0.47453 0.03181 0.0
C1465 C 0.05501 0.45738 0.05727 0.0
C1466 C 0.04006 0.45815 0.02964 0.0
C1467 C 0.02452 0.46035 0.02496 0.0
C1468 C 0.0276 0.47891 0.02205 0.0
C1469 C 0.04641 0.49526 0.02409 0.0
C1470 C 0.06193 0.49308 0.02884 0.0
H1471 H 0.0581 0.45638 0.06732 0.0
H1472 H 0.04907 0.46746 0.05639 0.0
H1473 H 0.04339 0.4427 0.0541 0.0
H1474 H 0.0374 0.44367 0.03165 0.0
H1475 H 0.01008 0.44756 0.02357 0.0
H1476 H 0.54024 0.69859 0.05193 0.0
H1477 H 0.53325 0.66864 0.04099 0.0
H1478 H 0.5879 0.67457 0.05512 0.0
H1479 H 0.59513 0.70468 0.06601 0.0
H1480 H 0.55648 0.66261 0.02277 0.0
H1481 H 0.54506 0.61942 0.06594 0.0
H1482 H 0.54515 0.64224 0.066 0.0
H1483 H 0.56807 0.64206 0.06523 0.0
C1484 C 0.55088 0.69364 0.05261 0.0
C1485 C 0.56821 0.70397 0.05987 0.0
C1486 C 0.54682 0.6765 0.0464 0.0
C1487 C 0.55995 0.66932 0.04738 0.0
C1488 C 0.57742 0.67972 0.05444 0.0
H1489 H 0.5523 0.5621 0.02105 0.0
H1490 H 0.56377 0.59468 0.02951 0.0
C1491 C 0.5815 0.69688 0.06066 0.0
C1492 C 0.55521 0.65085 0.04108 0.0
H1493 H 0.54386 0.6041 0.04673 0.0
C1494 C 0.55373 0.6498 0.02798 0.0
C1495 C 0.55166 0.63422 0.04794 0.0
C1496 C 0.55239 0.63439 0.06206 0.0
C1497 C 0.54893 0.63252 0.02152 0.0
C1498 C 0.54515 0.61583 0.0284 0.0
C1499 C 0.54681 0.61696 0.04149 0.0
C1500 C 0.53899 0.59684 0.02228 0.0
C1501 C 0.5482 0.63238 0.00741 0.0
C1502 C 0.52129 0.58731 0.01534 0.0
C1503 C 0.5147 0.56868 0.01043 0.0
C1504 C 0.52561 0.5592 0.01251 0.0
C1505 C 0.54352 0.56896 0.01928 0.0
C1506 C 0.55011 0.58759 0.02413 0.0
H1507 H 0.55683 0.64732 0.00357 0.0
H1508 H 0.55404 0.6233 0.00343 0.0
H1509 H 0.5326 0.62616 0.00427 0.0
H1510 H 0.51226 0.59402 0.01403 0.0
H1511 H 0.50081 0.56155 0.00531 0.0
H1512 H 0.85823 0.28709 0.96049 0.0
H1513 H 0.8824 0.31804 0.97022 0.0
H1514 H 0.87099 0.34925 0.94145 0.0
H1515 H 0.84714 0.31834 0.93154 0.0
H1516 H 0.90987 0.36502 0.94576 0.0
H1517 H 0.87109 0.3538 0.99095 0.0
H1518 H 0.8764 0.33478 0.98729 0.0
H1519 H 0.85957 0.33825 0.97753 0.0
C1520 C 0.86078 0.30057 0.95631 0.0
C1521 C 0.85075 0.30033 0.9453 0.0
C1522 C 0.87454 0.31823 0.96189 0.0
C1523 C 0.87823 0.33597 0.9567 0.0
C1524 C 0.86833 0.33574 0.94564 0.0
H1525 H 0.93601 0.44831 0.99384 0.0
H1526 H 0.91284 0.41716 0.9841 0.0
C1527 C 0.85474 0.3181 0.93998 0.0
C1528 C 0.8927 0.35479 0.96261 0.0
H1529 H 0.90378 0.38087 0.98988 0.0
C1530 C 0.90852 0.36852 0.9554 0.0
C1531 C 0.89076 0.35945 0.97514 0.0
C1532 C 0.87343 0.34588 0.98315 0.0
C1533 C 0.92252 0.38671 0.96038 0.0
C1534 C 0.92097 0.39108 0.97304 0.0
C1535 C 0.90508 0.37741 0.98022 0.0
C1536 C 0.93528 0.40999 0.97892 0.0
C1537 C 0.93851 0.40123 0.95193 0.0
C1538 C 0.9556 0.41626 0.97937 0.0
C1539 C 0.96895 0.43417 0.98487 0.0
C1540 C 0.96215 0.44597 0.99021 0.0
C1541 C 0.94175 0.43952 0.9899 0.0
C1542 C 0.92846 0.42171 0.98431 0.0
H1543 H 0.93434 0.39788 0.9419 0.0
H1544 H 0.94167 0.41628 0.95393 0.0
H1545 H 0.95231 0.4007 0.95349 0.0
H1546 H 0.96114 0.40724 0.97556 0.0
H1547 H 0.98455 0.43865 0.98506 0.0
H1548 H 0.68997 0.56204 0.93704 0.0
H1549 H 0.65864 0.55406 0.94698 0.0
H1550 H 0.66147 0.51019 0.96909 0.0
H1551 H 0.69255 0.51764 0.95895 0.0
H1552 H 0.62298 0.51543 0.94709 0.0
H1553 H 0.65157 0.54484 0.99477 0.0
H1554 H 0.66726 0.55243 0.98114 0.0
H1555 H 0.65957 0.52912 0.98799 0.0
C1556 C 0.68391 0.55058 0.94394 0.0
C1557 C 0.69385 0.54047 0.94715 0.0
C1558 C 0.66606 0.54615 0.94968 0.0
C1559 C 0.65786 0.53168 0.95885 0.0
C1560 C 0.66773 0.52163 0.96217 0.0
H1561 H 0.53655 0.47514 0.9868 0.0
H1562 H 0.56956 0.48188 0.98011 0.0
C1563 C 0.68554 0.52596 0.95638 0.0
C1564 C 0.63857 0.52662 0.96454 0.0
H1565 H 0.61683 0.52859 0.99181 0.0
C1566 C 0.62161 0.51823 0.95687 0.0
C1567 C 0.63689 0.53039 0.97729 0.0
C1568 C 0.65476 0.53981 0.98582 0.0
C1569 C 0.60298 0.51347 0.96164 0.0
C1570 C 0.60129 0.51718 0.97439 0.0
C1571 C 0.61822 0.52562 0.98207 0.0
C1572 C 0.58209 0.51314 0.97966 0.0
C1573 C 0.58523 0.50481 0.95299 0.0
C1574 C 0.57842 0.52852 0.9818 0.0
C1575 C 0.55971 0.5247 0.98566 0.0
C1576 C 0.54457 0.50547 0.98768 0.0
C1577 C 0.54827 0.4901 0.98564 0.0
C1578 C 0.567 0.49392 0.98178 0.0
H1579 H 0.58943 0.50501 0.94304 0.0
H1580 H 0.57497 0.48949 0.95567 0.0
H1581 H 0.57708 0.51291 0.95386 0.0
H1582 H 0.58985 0.54342 0.98009 0.0
H1583 H 0.55689 0.53668 0.98679 0.0
H1584 H 0.43548 0.14922 0.96807 0.0
H1585 H 0.44632 0.12867 0.9784 0.0
H1586 H 0.46132 0.11445 0.94259 0.0
H1587 H 0.45143 0.13569 0.93224 0.0
H1588 H 0.43259 0.09009 0.9759 0.0
H1589 H 0.51166 0.13136 0.96254 0.0
H1590 H 0.49521 0.14105 0.96069 0.0
H1591 H 0.49523 0.12427 0.9493 0.0
C1592 C 0.44136 0.14195 0.9624 0.0
C1593 C 0.44274 0.14424 0.94933 0.0
C1594 C 0.44742 0.13011 0.96831 0.0
C1595 C 0.45497 0.12033 0.96128 0.0
C1596 C 0.45598 0.12223 0.94822 0.0
H1597 H 0.4627 0.01986 0.98239 0.0
H1598 H 0.4538 0.04303 0.97412 0.0
C1599 C 0.45003 0.13416 0.9423 0.0
C1600 C 0.46126 0.1077 0.96759 0.0
H1601 H 0.5001 0.0996 0.9709 0.0
C1602 C 0.44739 0.09225 0.97489 0.0
C1603 C 0.48069 0.11077 0.96645 0.0
C1604 C 0.49662 0.12788 0.95943 0.0
C1605 C 0.45225 0.0794 0.98077 0.0
C1606 C 0.47134 0.08183 0.97905 0.0
C1607 C 0.4854 0.09764 0.97208 0.0
C1608 C 0.47686 0.06785 0.98415 0.0
C1609 C 0.43693 0.06346 0.98885 0.0
C1610 C 0.49324 0.07424 0.9922 0.0
C1611 C 0.4986 0.06105 0.99683 0.0
C1612 C 0.48761 0.04121 0.99351 0.0
C1613 C 0.47139 0.03496 0.98528 0.0
C1614 C 0.46615 0.04817 0.9806 0.0
H1615 H 0.4258 0.06719 0.9923 0.0
H1616 H 0.42897 0.04985 0.98323 0.0
H1617 H 0.44391 0.06059 0.99703 0.0
H1618 H 0.50186 0.08944 0.99493 0.0
H1619 H 0.51142 0.06645 0.00291 0.0
H1620 H 0.68525 0.16401 0.95448 0.0
H1621 H 0.65536 0.14125 0.96588 0.0
H1622 H 0.66825 0.09512 0.959 0.0
H1623 H 0.69828 0.11782 0.94772 0.0
H1624 H 0.62315 0.1055 0.95569 0.0
H1625 H 0.65798 0.09312 0.99742 0.0
H1626 H 0.67112 0.11394 0.98736 0.0
H1627 H 0.66732 0.09056 0.98261 0.0
C1628 C 0.68184 0.14907 0.95553 0.0
C1629 C 0.69414 0.14271 0.95023 0.0
C1630 C 0.66475 0.1361 0.962 0.0
C1631 C 0.65978 0.1166 0.96342 0.0
C1632 C 0.67202 0.11019 0.95817 0.0
H1633 H 0.56418 0.00959 0.99053 0.0
H1634 H 0.59581 0.03696 0.98369 0.0
C1635 C 0.68904 0.12312 0.95162 0.0
C1636 C 0.64126 0.10268 0.96982 0.0
H1637 H 0.62335 0.07183 0.99467 0.0
C1638 C 0.62314 0.09827 0.96429 0.0
C1639 C 0.64138 0.09331 0.98101 0.0
C1640 C 0.66048 0.09804 0.98754 0.0
C1641 C 0.60507 0.0841 0.96937 0.0
C1642 C 0.60517 0.07447 0.98048 0.0
C1643 C 0.62332 0.07926 0.98618 0.0
C1644 C 0.58666 0.05848 0.98581 0.0
C1645 C 0.58612 0.07897 0.96248 0.0
C1646 C 0.57121 0.06159 0.98956 0.0
C1647 C 0.55309 0.04593 0.99335 0.0
C1648 C 0.55036 0.02704 0.99377 0.0
C1649 C 0.56604 0.02408 0.99041 0.0
C1650 C 0.58408 0.03968 0.98654 0.0
H1651 H 0.58892 0.08433 0.9527 0.0
H1652 H 0.57593 0.06297 0.96229 0.0
H1653 H 0.57855 0.08581 0.96736 0.0
H1654 H 0.573 0.07603 0.98928 0.0
H1655 H 0.54112 0.04856 0.99563 0.0
H1656 H 0.85622 0.52503 0.93204 0.0
H1657 H 0.88121 0.51954 0.9421 0.0
H1658 H 0.8815 0.55262 0.97431 0.0
H1659 H 0.85638 0.55808 0.96433 0.0
H1660 H 0.91839 0.54643 0.94915 0.0
H1661 H 0.87644 0.50414 0.99051 0.0
H1662 H 0.86462 0.50838 0.9773 0.0
H1663 H 0.87728 0.52707 0.98896 0.0
C1664 C 0.86158 0.53112 0.94127 0.0
C1665 C 0.85431 0.54201 0.94738 0.0
C1666 C 0.87581 0.5279 0.94704 0.0
C1667 C 0.88306 0.53544 0.95903 0.0
C1668 C 0.87579 0.54625 0.96519 0.0
H1669 H 0.99506 0.55261 0.98879 0.0
H1670 H 0.96797 0.557 0.98088 0.0
C1671 C 0.86146 0.5494 0.95945 0.0
C1672 C 0.89899 0.53283 0.96475 0.0
H1673 H 0.91088 0.51484 0.99029 0.0
C1674 C 0.91673 0.5395 0.95814 0.0
C1675 C 0.89673 0.52358 0.97641 0.0
C1676 C 0.87768 0.5152 0.98367 0.0
C1677 C 0.93232 0.53735 0.9629 0.0
C1678 C 0.93033 0.52867 0.97474 0.0
C1679 C 0.9125 0.52176 0.9813 0.0
C1680 C 0.94641 0.5262 0.9803 0.0
C1681 C 0.95061 0.54398 0.95503 0.0
C1682 C 0.94313 0.50749 0.98296 0.0
C1683 C 0.95851 0.50501 0.98761 0.0
C1684 C 0.97734 0.52123 0.98987 0.0
C1685 C 0.98059 0.53992 0.98725 0.0
C1686 C 0.96518 0.54242 0.98267 0.0
H1687 H 0.94767 0.54533 0.94501 0.0
H1688 H 0.96234 0.5585 0.95838 0.0
H1689 H 0.95635 0.53371 0.95577 0.0
H1690 H 0.92878 0.49477 0.98119 0.0
H1691 H 0.95573 0.49041 0.9892 0.0
H1692 H 0.44748 0.3137 0.93594 0.0
H1693 H 0.45455 0.34353 0.94702 0.0
H1694 H 0.42655 0.31028 0.9801 0.0
H1695 H 0.41937 0.28028 0.96905 0.0
H1696 H 0.42813 0.35317 0.95829 0.0
H1697 H 0.48122 0.35231 0.99291 0.0
H1698 H 0.47353 0.3372 0.97902 0.0
H1699 H 0.45725 0.3307 0.9922 0.0
C1700 C 0.44268 0.3127 0.94554 0.0
C1701 C 0.43291 0.29465 0.95164 0.0
C1702 C 0.4468 0.32975 0.95187 0.0
C1703 C 0.4413 0.32911 0.96441 0.0
C1704 C 0.43127 0.31111 0.97049 0.0
H1705 H 0.46428 0.42972 0.01167 0.0
H1706 H 0.45151 0.39589 0.00446 0.0
C1707 C 0.42718 0.29401 0.96417 0.0
C1708 C 0.44605 0.34739 0.97101 0.0
H1709 H 0.47472 0.37826 0.99439 0.0
C1710 C 0.4382 0.35859 0.96624 0.0
C1711 C 0.45913 0.35435 0.98141 0.0
C1712 C 0.46843 0.34314 0.98667 0.0
C1713 C 0.44343 0.37681 0.97142 0.0
C1714 C 0.457 0.38403 0.98154 0.0
C1715 C 0.46429 0.37257 0.98663 0.0
C1716 C 0.46502 0.40414 0.9862 0.0
C1717 C 0.43467 0.38838 0.96594 0.0
C1718 C 0.47719 0.41975 0.97842 0.0
C1719 C 0.48453 0.43884 0.98254 0.0
C1720 C 0.47971 0.44254 0.99445 0.0
C1721 C 0.46803 0.42701 0.00242 0.0
C1722 C 0.46074 0.40782 0.99831 0.0
H1723 H 0.42099 0.37898 0.96045 0.0
H1724 H 0.43117 0.39594 0.97341 0.0
H1725 H 0.4456 0.39961 0.95958 0.0
H1726 H 0.48097 0.41714 0.96914 0.0
H1727 H 0.49401 0.45072 0.97643 0.0
H1728 H 0.12492 0.70035 0.07315 0.0
H1729 H 0.10147 0.66895 0.0636 0.0
H1730 H 0.15009 0.6641 0.04858 0.0
H1731 H 0.17364 0.69519 0.05838 0.0
H1732 H 0.09707 0.65799 0.03802 0.0
H1733 H 0.11704 0.61237 0.06706 0.0
H1734 H 0.12414 0.63711 0.07126 0.0
H1735 H 0.13761 0.63239 0.05947 0.0
C1736 C 0.13063 0.6925 0.06793 0.0
C1737 C 0.15115 0.70022 0.06658 0.0
C1738 C 0.11721 0.67464 0.06242 0.0
C1739 C 0.12407 0.66411 0.05554 0.0
C1740 C 0.14451 0.67186 0.05403 0.0
H1741 H 0.06911 0.55429 0.01543 0.0
H1742 H 0.09184 0.58596 0.02475 0.0
C1743 C 0.15794 0.68973 0.05952 0.0
C1744 C 0.10983 0.64511 0.04979 0.0
H1745 H 0.09545 0.59677 0.04985 0.0
C1746 C 0.09662 0.64457 0.04063 0.0
C1747 C 0.10933 0.62768 0.05324 0.0
C1748 C 0.12265 0.62729 0.06337 0.0
C1749 C 0.08316 0.62707 0.03462 0.0
C1750 C 0.0827 0.60964 0.03804 0.0
C1751 C 0.09587 0.61018 0.04724 0.0
C1752 C 0.06875 0.59065 0.03215 0.0
C1753 C 0.0699 0.62747 0.02444 0.0
C1754 C 0.04822 0.5827 0.03332 0.0
C1755 C 0.03514 0.56465 0.02789 0.0
C1756 C 0.04238 0.55418 0.02125 0.0
C1757 C 0.06299 0.5621 0.02026 0.0
C1758 C 0.07603 0.58015 0.02566 0.0
H1759 H 0.07553 0.6424 0.02077 0.0
H1760 H 0.0685 0.61769 0.01655 0.0
H1761 H 0.05491 0.62234 0.02829 0.0
H1762 H 0.0423 0.59038 0.03853 0.0
H1763 H 0.01938 0.55893 0.02893 0.0
H1764 H 0.32335 0.45121 0.07936 0.0
H1765 H 0.35328 0.45729 0.06856 0.0
H1766 H 0.33408 0.47454 0.03556 0.0
H1767 H 0.3032 0.46677 0.04588 0.0
H1768 H 0.3495 0.45398 0.02875 0.0
H1769 H 0.40128 0.50812 0.06291 0.0
H1770 H 0.38571 0.48529 0.07035 0.0
H1771 H 0.37495 0.49871 0.06358 0.0
C1772 C 0.32522 0.45599 0.06974 0.0
C1773 C 0.31067 0.45854 0.06358 0.0
C1774 C 0.34265 0.45986 0.06363 0.0
C1775 C 0.34631 0.46695 0.05134 0.0
C1776 C 0.33177 0.46931 0.0451 0.0
H1777 H 0.46689 0.5163 0.02308 0.0
H1778 H 0.43505 0.51194 0.03008 0.0
C1779 C 0.31415 0.46506 0.0511 0.0
C1780 C 0.36505 0.47143 0.04488 0.0
H1781 H 0.41528 0.49513 0.04857 0.0
C1782 C 0.36391 0.46319 0.03303 0.0
C1783 C 0.38394 0.48375 0.05028 0.0
C1784 C 0.38656 0.49464 0.06241 0.0
C1785 C 0.38101 0.46652 0.02657 0.0
C1786 C 0.39985 0.47781 0.03233 0.0
C1787 C 0.40096 0.48636 0.04409 0.0
C1788 C 0.41862 0.48079 0.02657 0.0
C1789 C 0.37848 0.4581 0.01356 0.0
C1790 C 0.42018 0.4649 0.02209 0.0
C1791 C 0.43822 0.46761 0.01761 0.0
C1792 C 0.45512 0.48619 0.01766 0.0
C1793 C 0.4538 0.502 0.0224 0.0
C1794 C 0.43565 0.49942 0.02657 0.0
H1795 H 0.3653 0.4571 0.00881 0.0
H1796 H 0.39162 0.46693 0.00769 0.0
H1797 H 0.37609 0.44311 0.01418 0.0
H1798 H 0.40768 0.45025 0.02249 0.0
H1799 H 0.43918 0.45506 0.01455 0.0
H1800 H 0.52951 0.82987 0.05553 0.0
H1801 H 0.52039 0.85173 0.04513 0.0
H1802 H 0.5717 0.90133 0.06124 0.0
H1803 H 0.58127 0.87963 0.07137 0.0
H1804 H 0.51236 0.87922 0.0561 0.0
H1805 H 0.57628 0.91419 0.02384 0.0
H1806 H 0.56978 0.89193 0.03203 0.0
H1807 H 0.5831 0.91501 0.03999 0.0
C1808 C 0.53898 0.84544 0.05674 0.0
C1809 C 0.55618 0.85304 0.06421 0.0
C1810 C 0.53368 0.85788 0.05085 0.0
C1811 C 0.54554 0.87812 0.05227 0.0
C1812 C 0.56256 0.88575 0.05985 0.0
H1813 H 0.54099 0.97957 0.02955 0.0
H1814 H 0.54888 0.95588 0.0383 0.0
C1815 C 0.56788 0.87333 0.06574 0.0
C1816 C 0.53985 0.89125 0.04607 0.0
H1817 H 0.55599 0.92867 0.02534 0.0
C1818 C 0.5218 0.88993 0.0493 0.0
C1819 C 0.55222 0.90515 0.03719 0.0
C1820 C 0.57134 0.90659 0.03295 0.0
C1821 C 0.51604 0.9026 0.04415 0.0
C1822 C 0.52855 0.9167 0.03542 0.0
C1823 C 0.54647 0.91784 0.03206 0.0
C1824 C 0.52362 0.93085 0.02994 0.0
C1825 C 0.49692 0.9012 0.04837 0.0
C1826 C 0.50689 0.92459 0.02224 0.0
C1827 C 0.50226 0.93809 0.01724 0.0
C1828 C 0.51441 0.9581 0.01978 0.0
C1829 C 0.53128 0.96429 0.0274 0.0
C1830 C 0.53587 0.95078 0.0324 0.0
H1831 H 0.49126 0.89257 0.05707 0.0
H1832 H 0.49891 0.91591 0.05003 0.0
H1833 H 0.48551 0.89395 0.04094 0.0
H1834 H 0.49741 0.90927 0.0201 0.0
H1835 H 0.48907 0.93281 0.01149 0.0
H1836 H 0.99825 0.19425 0.4133 0.0
H1837 H 0.02816 0.21798 0.40239 0.0
H1838 H 0.99298 0.21371 0.37002 0.0
H1839 H 0.96301 0.18993 0.38085 0.0
H1840 H 0.02738 0.2133 0.36391 0.0
H1841 H 0.04355 0.27449 0.39626 0.0
H1842 H 0.04136 0.25339 0.40389 0.0
H1843 H 0.02014 0.25201 0.39619 0.0
C1844 C 0.99687 0.19847 0.40389 0.0
C1845 C 0.97824 0.1903 0.39797 0.0
C1846 C 0.01397 0.21202 0.39767 0.0
C1847 C 0.01276 0.21783 0.38546 0.0
C1848 C 0.99425 0.20945 0.37944 0.0
H1849 H 0.10469 0.32411 0.35266 0.0
H1850 H 0.07308 0.29712 0.35979 0.0
C1851 C 0.97715 0.19583 0.38563 0.0
C1852 C 0.03075 0.23281 0.37901 0.0
H1853 H 0.06807 0.28001 0.38129 0.0
C1854 C 0.03627 0.22793 0.36766 0.0
C1855 C 0.04217 0.25193 0.38385 0.0
C1856 C 0.03644 0.25838 0.39565 0.0
C1857 C 0.05305 0.24162 0.36108 0.0
C1858 C 0.06477 0.26064 0.36608 0.0
C1859 C 0.05912 0.26547 0.37742 0.0
C1860 C 0.08291 0.27594 0.35984 0.0
C1861 C 0.05772 0.23566 0.34872 0.0
C1862 C 0.09884 0.27296 0.35715 0.0
C1863 C 0.11679 0.28832 0.35283 0.0
C1864 C 0.11916 0.30695 0.35128 0.0
C1865 C 0.10311 0.30981 0.35367 0.0
C1866 C 0.08511 0.29442 0.35777 0.0
H1867 H 0.04442 0.22308 0.34447 0.0
H1868 H 0.06364 0.24789 0.34204 0.0
H1869 H 0.06905 0.23128 0.35018 0.0
H1870 H 0.09778 0.25906 0.35898 0.0
H1871 H 0.1291 0.28586 0.35138 0.0
H1872 H 0.81225 0.80676 0.41594 0.0
H1873 H 0.78698 0.81158 0.40564 0.0
H1874 H 0.79378 0.78584 0.37176 0.0
H1875 H 0.81904 0.78088 0.38201 0.0
H1876 H 0.79272 0.81986 0.36761 0.0
H1877 H 0.73015 0.76933 0.39755 0.0
H1878 H 0.75108 0.78789 0.40603 0.0
H1879 H 0.75351 0.76975 0.39734 0.0
C1880 C 0.80825 0.80195 0.40633 0.0
C1881 C 0.81761 0.79331 0.39984 0.0
C1882 C 0.79378 0.80471 0.40046 0.0
C1883 C 0.78824 0.79877 0.38799 0.0
C1884 C 0.79778 0.79047 0.38141 0.0
H1885 H 0.67958 0.78176 0.3537 0.0
H1886 H 0.70699 0.77825 0.36194 0.0
C1887 C 0.81228 0.78773 0.38726 0.0
C1888 C 0.77266 0.80139 0.38176 0.0
H1889 H 0.72392 0.78859 0.38342 0.0
C1890 C 0.77763 0.81298 0.37102 0.0
C1891 C 0.75297 0.79228 0.38617 0.0
C1892 C 0.7465 0.77897 0.39734 0.0
C1893 C 0.7635 0.81578 0.36459 0.0
C1894 C 0.74382 0.80695 0.3691 0.0
C1895 C 0.73892 0.79535 0.37988 0.0
C1896 C 0.72792 0.80923 0.36284 0.0
C1897 C 0.76982 0.82774 0.35284 0.0
C1898 C 0.73048 0.82777 0.36038 0.0
C1899 C 0.71493 0.82972 0.35538 0.0
C1900 C 0.6964 0.81319 0.35292 0.0
C1901 C 0.69381 0.7947 0.35536 0.0
C1902 C 0.70945 0.79272 0.36012 0.0
H1903 H 0.78285 0.82794 0.3485 0.0
H1904 H 0.75762 0.82194 0.34592 0.0
H1905 H 0.77402 0.84299 0.35512 0.0
H1906 H 0.74425 0.84079 0.36275 0.0
H1907 H 0.71719 0.84419 0.35396 0.0
H1908 H 0.20054 0.03172 0.39024 0.0
H1909 H 0.19126 0.00027 0.38053 0.0
H1910 H 0.24461 0.00371 0.39504 0.0
H1911 H 0.25413 0.03526 0.40469 0.0
H1912 H 0.2125 0.99097 0.36288 0.0
H1913 H 0.20001 0.95058 0.40738 0.0
H1914 H 0.20168 0.9741 0.40664 0.0
H1915 H 0.22376 0.97232 0.4062 0.0
C1916 C 0.21039 0.02587 0.39128 0.0
C1917 C 0.22804 0.03594 0.39828 0.0
C1918 C 0.20501 0.00788 0.38577 0.0
C1919 C 0.21711 -0.00041 0.38723 0.0
C1920 C 0.23488 0.00971 0.39403 0.0
H1921 H 0.21017 0.89228 0.36284 0.0
H1922 H 0.21985 0.92428 0.3717 0.0
C1923 C 0.24028 0.0277 0.39954 0.0
C1924 C 0.21117 0.98039 0.38157 0.0
H1925 H 0.19883 0.93379 0.38872 0.0
C1926 C 0.20943 0.97842 0.36851 0.0
C1927 C 0.20719 0.96412 0.38898 0.0
C1928 C 0.20807 0.96525 0.40308 0.0
C1929 C 0.20415 0.96062 0.36261 0.0
C1930 C 0.20021 0.94436 0.37002 0.0
C1931 C 0.20191 0.94633 0.38308 0.0
C1932 C 0.19437 0.92514 0.36442 0.0
C1933 C 0.20326 0.95947 0.3485 0.0
C1934 C 0.1767 0.91495 0.35753 0.0
C1935 C 0.17109 0.89664 0.35245 0.0
C1936 C 0.18306 0.8882 0.35422 0.0
C1937 C 0.20064 0.89837 0.36126 0.0
C1938 C 0.20621 0.91667 0.36633 0.0
H1939 H 0.2114 0.97413 0.34421 0.0
H1940 H 0.20954 0.95053 0.34494 0.0
H1941 H 0.18757 0.9525 0.34539 0.0
H1942 H 0.16712 0.92105 0.35621 0.0
H1943 H 0.15727 0.88904 0.34728 0.0
H1944 H 0.49588 0.64051 0.2851 0.0
H1945 H 0.52019 0.67129 0.29493 0.0
H1946 H 0.56763 0.66388 0.28057 0.0
H1947 H 0.54345 0.63304 0.27078 0.0
H1948 H 0.54985 0.67851 0.31271 0.0
H1949 H 0.58207 0.71847 0.26859 0.0
H1950 H 0.55885 0.69579 0.26899 0.0
H1951 H 0.58188 0.6958 0.26991 0.0
C1952 C 0.51149 0.64535 0.2841 0.0
C1953 C 0.51773 0.63436 0.27709 0.0
C1954 C 0.52535 0.66298 0.28968 0.0
C1955 C 0.5457 0.67001 0.28831 0.0
C1956 C 0.552 0.65894 0.2815 0.0
H1957 H 0.65135 0.77452 0.31454 0.0
H1958 H 0.62789 0.74298 0.3052 0.0
C1959 C 0.53815 0.64132 0.27591 0.0
C1960 C 0.56033 0.68881 0.29414 0.0
H1961 H 0.59811 0.73445 0.28746 0.0
C1962 C 0.56037 0.69077 0.3072 0.0
C1963 C 0.57406 0.70475 0.28691 0.0
C1964 C 0.57418 0.70374 0.27281 0.0
C1965 C 0.57395 0.70818 0.31325 0.0
C1966 C 0.58762 0.72415 0.30602 0.0
C1967 C 0.58765 0.72216 0.29297 0.0
C1968 C 0.60179 0.74317 0.3118 0.0
C1969 C 0.57379 0.70923 0.32735 0.0
C1970 C 0.59487 0.75387 0.31843 0.0
C1971 C 0.60821 0.77189 0.32376 0.0
C1972 C 0.62876 0.77961 0.32255 0.0
C1973 C 0.63564 0.76899 0.31572 0.0
C1974 C 0.62226 0.75095 0.31038 0.0
H1975 H 0.56629 0.6945 0.33159 0.0
H1976 H 0.58908 0.71759 0.3312 0.0
H1977 H 0.56563 0.71674 0.33023 0.0
H1978 H 0.57913 0.74839 0.31936 0.0
H1979 H 0.60237 0.77985 0.3287 0.0
H1980 H 0.36436 0.90544 0.27881 0.0
H1981 H 0.33409 0.89957 0.28934 0.0
H1982 H 0.32123 0.84159 0.29876 0.0
H1983 H 0.35159 0.84742 0.28832 0.0
H1984 H 0.29619 0.87258 0.2838 0.0
H1985 H 0.31378 0.86097 0.33225 0.0
H1986 H 0.3323 0.87109 0.32018 0.0
H1987 H 0.31554 0.84525 0.32083 0.0
C1988 C 0.3551 0.89144 0.28312 0.0
C1989 C 0.36044 0.87692 0.28273 0.0
C1990 C 0.33784 0.88813 0.2892 0.0
C1991 C 0.3255 0.87024 0.29503 0.0
C1992 C 0.33075 0.85569 0.29463 0.0
H1993 H 0.20694 0.82343 0.32667 0.0
H1994 H 0.23845 0.8273 0.31921 0.0
C1995 C 0.34809 0.85903 0.28861 0.0
C1996 C 0.30669 0.86661 0.30094 0.0
H1997 H 0.28096 0.8545 0.32843 0.0
C1998 C 0.29293 0.8687 0.29357 0.0
C1999 C 0.30235 0.86142 0.31369 0.0
C2000 C 0.31683 0.85971 0.32225 0.0
C2001 C 0.27502 0.86575 0.29855 0.0
C2002 C 0.27076 0.86074 0.31129 0.0
C2003 C 0.28431 0.85834 0.31866 0.0
C2004 C 0.25251 0.85854 0.31709 0.0
C2005 C 0.26065 0.8679 0.29013 0.0
C2006 C 0.2502 0.87486 0.31866 0.0
C2007 C 0.23234 0.8727 0.32303 0.0
C2008 C 0.21656 0.85422 0.32605 0.0
C2009 C 0.21902 0.8379 0.32472 0.0
C2010 C 0.23695 0.84008 0.32039 0.0
H2011 H 0.26421 0.86788 0.28008 0.0
H2012 H 0.24526 0.85597 0.29176 0.0
H2013 H 0.26127 0.8819 0.29229 0.0
H2014 H 0.26207 0.88923 0.31621 0.0
H2015 H 0.23073 0.88546 0.32384 0.0
H2016 H 0.10088 0.48241 0.29913 0.0
H2017 H 0.11175 0.46213 0.30978 0.0
H2018 H 0.12689 0.4472 0.27426 0.0
H2019 H 0.11685 0.46811 0.26357 0.0
H2020 H 0.09824 0.42333 0.30757 0.0
H2021 H 0.17742 0.4653 0.29448 0.0
H2022 H 0.16074 0.47468 0.29248 0.0
H2023 H 0.16101 0.45789 0.28122 0.0
C2024 C 0.10676 0.47502 0.29359 0.0
C2025 C 0.10816 0.47702 0.2805 0.0
C2026 C 0.11285 0.46334 0.29969 0.0
C2027 C 0.12048 0.45347 0.29283 0.0
C2028 C 0.12147 0.45506 0.27975 0.0
H2029 H 0.12979 0.35429 0.31457 0.0
H2030 H 0.12059 0.37717 0.30619 0.0
C2031 C 0.11545 0.46679 0.27364 0.0
C2032 C 0.12694 0.44114 0.29936 0.0
H2033 H 0.16623 0.43384 0.3032 0.0
C2034 C 0.11314 0.4257 0.30669 0.0
C2035 C 0.1465 0.4445 0.29839 0.0
C2036 C 0.16234 0.46161 0.29133 0.0
C2037 C 0.11819 0.41312 0.31276 0.0
C2038 C 0.13743 0.41584 0.31123 0.0
C2039 C 0.15143 0.43166 0.30424 0.0
C2040 C 0.14311 0.40206 0.31645 0.0
C2041 C 0.1029 0.39712 0.32082 0.0
C2042 C 0.15928 0.40859 0.3247 0.0
C2043 C 0.16479 0.39555 0.32942 0.0
C2044 C 0.15419 0.37574 0.32598 0.0
C2045 C 0.13818 0.36937 0.31756 0.0
C2046 C 0.13277 0.38241 0.31281 0.0
H2047 H 0.09152 0.40063 0.3241 0.0
H2048 H 0.09523 0.38345 0.31525 0.0
H2049 H 0.10986 0.39451 0.32911 0.0
H2050 H 0.16761 0.42376 0.32751 0.0
H2051 H 0.17744 0.40105 0.33567 0.0
H2052 H 0.35032 0.49937 0.28486 0.0
H2053 H 0.32082 0.47665 0.29658 0.0
H2054 H 0.33398 0.43071 0.28967 0.0
H2055 H 0.36364 0.45338 0.27806 0.0
H2056 H 0.28833 0.44059 0.2871 0.0
H2057 H 0.32524 0.42947 0.3282 0.0
H2058 H 0.33785 0.45002 0.31785 0.0
H2059 H 0.33393 0.42653 0.31324 0.0
C2060 C 0.34705 0.48448 0.28595 0.0
C2061 C 0.35935 0.47818 0.28056 0.0
C2062 C 0.33016 0.47152 0.29261 0.0
C2063 C 0.32539 0.45209 0.29414 0.0
C2064 C 0.33759 0.44573 0.28876 0.0
H2065 H 0.2316 0.3453 0.32287 0.0
H2066 H 0.26283 0.37278 0.31564 0.0
C2067 C 0.3544 0.45865 0.28202 0.0
C2068 C 0.30718 0.43822 0.30088 0.0
H2069 H 0.29055 0.4079 0.32605 0.0
C2070 C 0.28877 0.43357 0.29569 0.0
C2071 C 0.30786 0.42913 0.31207 0.0
C2072 C 0.32726 0.43411 0.31826 0.0
C2073 C 0.27097 0.41945 0.30111 0.0
C2074 C 0.27163 0.4101 0.31221 0.0
C2075 C 0.29007 0.41511 0.31757 0.0
C2076 C 0.25341 0.39408 0.31786 0.0
C2077 C 0.25169 0.41407 0.29456 0.0
C2078 C 0.23794 0.39702 0.32184 0.0
C2079 C 0.22003 0.38129 0.32586 0.0
C2080 C 0.21752 0.36247 0.32627 0.0
C2081 C 0.23327 0.35971 0.32274 0.0
C2082 C 0.25109 0.37539 0.31865 0.0
H2083 H 0.25402 0.41923 0.28474 0.0
H2084 H 0.24159 0.39805 0.29453 0.0
H2085 H 0.24426 0.42091 0.29958 0.0
H2086 H 0.23953 0.41138 0.32153 0.0
H2087 H 0.20801 0.38377 0.32829 0.0
H2088 H 0.5199 0.85571 0.2656 0.0
H2089 H 0.54515 0.85056 0.27562 0.0
H2090 H 0.54579 0.88421 0.30761 0.0
H2091 H 0.52044 0.88933 0.29767 0.0
H2092 H 0.58237 0.87754 0.28234 0.0
H2093 H 0.54143 0.83638 0.32427 0.0
H2094 H 0.52929 0.84026 0.31108 0.0
H2095 H 0.54214 0.85923 0.32255 0.0
C2096 C 0.52539 0.862 0.27478 0.0
C2097 C 0.51813 0.87293 0.28083 0.0
C2098 C 0.53977 0.85896 0.28052 0.0
C2099 C 0.5472 0.86675 0.29245 0.0
C2100 C 0.53995 0.87763 0.29855 0.0
H2101 H 0.6602 0.88601 0.32174 0.0
H2102 H 0.63258 0.8897 0.31402 0.0
C2103 C 0.52548 0.88059 0.29283 0.0
C2104 C 0.56331 0.86436 0.29814 0.0
H2105 H 0.57599 0.84746 0.32392 0.0
C2106 C 0.58093 0.87092 0.29142 0.0
C2107 C 0.56138 0.85553 0.30994 0.0
C2108 C 0.54247 0.84726 0.31734 0.0
C2109 C 0.59672 0.86909 0.29619 0.0
C2110 C 0.59506 0.86085 0.30815 0.0
C2111 C 0.57735 0.85403 0.31483 0.0
C2112 C 0.61141 0.85879 0.31371 0.0
C2113 C 0.61489 0.87562 0.28822 0.0
C2114 C 0.60852 0.84026 0.31649 0.0
C2115 C 0.62423 0.83817 0.32101 0.0
C2116 C 0.643 0.85461 0.32302 0.0
C2117 C 0.64581 0.87315 0.32037 0.0
C2118 C 0.63009 0.87524 0.31591 0.0
H2119 H 0.61176 0.87668 0.27819 0.0
H2120 H 0.62661 0.89026 0.29141 0.0
H2121 H 0.62074 0.86546 0.28905 0.0
H2122 H 0.59425 0.82736 0.31486 0.0
H2123 H 0.62176 0.82368 0.32265 0.0
H2124 H 0.13453 0.63529 0.28823 0.0
H2125 H 0.14371 0.66626 0.29857 0.0
H2126 H 0.09156 0.66449 0.28328 0.0
H2127 H 0.08189 0.63317 0.27325 0.0
H2128 H 0.15128 0.70093 0.28744 0.0
H2129 H 0.08846 0.67472 0.32051 0.0
H2130 H 0.09445 0.65841 0.3123 0.0
H2131 H 0.08113 0.66841 0.30445 0.0
C2132 C 0.12485 0.64134 0.28722 0.0
C2133 C 0.10741 0.63171 0.27998 0.0
C2134 C 0.13019 0.65909 0.29306 0.0
C2135 C 0.11817 0.6675 0.29183 0.0
C2136 C 0.10085 0.65805 0.28453 0.0
H2137 H 0.12635 0.77544 0.31567 0.0
H2138 H 0.1171 0.74379 0.30641 0.0
C2139 C 0.09547 0.64027 0.27869 0.0
C2140 C 0.12412 0.68649 0.29785 0.0
H2141 H 0.10923 0.70901 0.31889 0.0
C2142 C 0.14216 0.7027 0.29437 0.0
C2143 C 0.11216 0.6887 0.30688 0.0
C2144 C 0.09305 0.67161 0.31136 0.0
C2145 C 0.14839 0.7212 0.29951 0.0
C2146 C 0.13637 0.72342 0.30847 0.0
C2147 C 0.11837 0.70721 0.31199 0.0
C2148 C 0.14208 0.74254 0.31419 0.0
C2149 C 0.16754 0.7383 0.29508 0.0
C2150 C 0.15911 0.75219 0.32172 0.0
C2151 C 0.1645 0.77033 0.32701 0.0
C2152 C 0.15283 0.77902 0.32495 0.0
C2153 C 0.13569 0.7692 0.31746 0.0
C2154 C 0.13033 0.75108 0.31218 0.0
H2155 H 0.17262 0.73501 0.28618 0.0
H2156 H 0.16589 0.75129 0.2937 0.0
H2157 H 0.17922 0.742 0.30227 0.0
H2158 H 0.16822 0.74569 0.32352 0.0
H2159 H 0.17789 0.77756 0.33262 0.0
H2160 H 0.84208 0.02785 0.39101 0.0
H2161 H 0.81825 0.99721 0.38082 0.0
H2162 H 0.77005 0.00283 0.39581 0.0
H2163 H 0.79376 0.03377 0.40571 0.0
H2164 H 0.78893 0.96339 0.39229 0.0
H2165 H 0.75594 0.9924 0.35854 0.0
H2166 H 0.77899 0.00781 0.36667 0.0
H2167 H 0.7558 0.99937 0.37454 0.0
C2168 C 0.82641 0.02273 0.39198 0.0
C2169 C 0.81983 0.03331 0.39913 0.0
C2170 C 0.81282 0.00516 0.38622 0.0
C2171 C 0.7924 0.99789 0.38742 0.0
C2172 C 0.78575 0.00835 0.39458 0.0
H2173 H 0.68744 0.89255 0.36177 0.0
H2174 H 0.71087 0.92369 0.3716 0.0
C2175 C 0.79933 0.02592 0.40035 0.0
C2176 C 0.77807 0.97903 0.38153 0.0
H2177 H 0.74021 0.95802 0.36023 0.0
C2178 C 0.77833 0.96221 0.38524 0.0
C2179 C 0.76422 0.97756 0.37237 0.0
C2180 C 0.76376 0.99525 0.36769 0.0
C2181 C 0.76492 0.94387 0.38016 0.0
C2182 C 0.75112 0.9424 0.37098 0.0
C2183 C 0.7508 0.95921 0.36729 0.0
C2184 C 0.73699 0.92355 0.36499 0.0
C2185 C 0.76538 0.92618 0.38486 0.0
C2186 C 0.74393 0.91328 0.35792 0.0
C2187 C 0.73062 0.89546 0.35234 0.0
C2188 C 0.71007 0.88766 0.35361 0.0
C2189 C 0.70316 0.8981 0.36062 0.0
C2190 C 0.71651 0.91592 0.36621 0.0
H2191 H 0.77307 0.929 0.39406 0.0
H2192 H 0.75016 0.91357 0.3858 0.0
H2193 H 0.77349 0.92215 0.37808 0.0
H2194 H 0.75968 0.91906 0.35668 0.0
H2195 H 0.73649 0.88777 0.34711 0.0
H2196 H 0.9636 0.78081 0.38183 0.0
H2197 H 0.99375 0.78604 0.37139 0.0
H2198 H 0.0277 0.81346 0.4048 0.0
H2199 H 0.99764 0.8083 0.41531 0.0
H2200 H 0.02912 0.81997 0.36649 0.0
H2201 H 0.04181 0.77132 0.39755 0.0
H2202 H 0.01879 0.77156 0.39733 0.0
H2203 H 0.03991 0.79018 0.40568 0.0
C2204 C 0.9775 0.78809 0.38694 0.0
C2205 C 0.97815 0.79401 0.39945 0.0
C2206 C 0.99471 0.79101 0.38096 0.0
C2207 C 0.01293 0.79986 0.38737 0.0
C2208 C 0.01373 0.80619 0.39976 0.0
H2209 H 0.12991 0.84456 0.35369 0.0
H2210 H 0.09917 0.84136 0.36184 0.0
C2211 C 0.99652 0.80322 0.40575 0.0
C2212 C 0.03106 0.80238 0.38109 0.0
H2213 H 0.06718 0.79015 0.38316 0.0
C2214 C 0.03744 0.8134 0.3701 0.0
C2215 C 0.04177 0.79365 0.38573 0.0
C2216 C 0.03516 0.78086 0.39715 0.0
C2217 C 0.05431 0.81605 0.36366 0.0
C2218 C 0.06531 0.80765 0.36843 0.0
C2219 C 0.05883 0.79659 0.37943 0.0
C2220 C 0.08343 0.80981 0.36223 0.0
C2221 C 0.05979 0.82742 0.35165 0.0
C2222 C 0.08508 0.79324 0.35979 0.0
C2223 C 0.1028 0.7951 0.35537 0.0
C2224 C 0.11914 0.81355 0.35302 0.0
C2225 C 0.11738 0.83014 0.35508 0.0
C2226 C 0.09974 0.82829 0.35972 0.0
H2227 H 0.04685 0.82749 0.34732 0.0
H2228 H 0.07125 0.84275 0.35363 0.0
H2229 H 0.06584 0.82125 0.34484 0.0
H2230 H 0.07279 0.77881 0.36165 0.0
H2231 H 0.10388 0.78212 0.354 0.0
H2232 H 0.25042 0.21697 0.40436 0.0
H2233 H 0.2402 0.23809 0.39407 0.0
H2234 H 0.18935 0.18768 0.37825 0.0
H2235 H 0.19907 0.16643 0.38882 0.0
H2236 H 0.23445 0.241 0.36829 0.0
H2237 H 0.1653 0.21761 0.39511 0.0
H2238 H 0.18422 0.21231 0.40014 0.0
H2239 H 0.16725 0.19818 0.38783 0.0
C2240 C 0.23693 0.21037 0.39882 0.0
C2241 C 0.22551 0.19002 0.39745 0.0
C2242 C 0.23119 0.22245 0.39288 0.0
C2243 C 0.2139 0.21441 0.38555 0.0
C2244 C 0.20258 0.19414 0.38405 0.0
H2245 H 0.15692 0.26791 0.34428 0.0
H2246 H 0.16605 0.2448 0.3527 0.0
C2247 C 0.20828 0.18205 0.38998 0.0
C2248 C 0.2079 0.22728 0.37931 0.0
H2249 H 0.17139 0.23908 0.37825 0.0
C2250 C 0.22068 0.24061 0.37046 0.0
C2251 C 0.18987 0.22663 0.38215 0.0
C2252 C 0.17591 0.21304 0.3919 0.0
C2253 C 0.21588 0.25332 0.36432 0.0
C2254 C 0.19799 0.25285 0.36728 0.0
C2255 C 0.18507 0.23934 0.376 0.0
C2256 C 0.1928 0.26683 0.36184 0.0
C2257 C 0.2299 0.26702 0.35464 0.0
C2258 C 0.20472 0.2868 0.36431 0.0
C2259 C 0.19962 0.30003 0.35949 0.0
C2260 C 0.18244 0.29352 0.35213 0.0
C2261 C 0.17041 0.27345 0.34975 0.0
C2262 C 0.17554 0.26021 0.35459 0.0
H2263 H 0.23997 0.262 0.35104 0.0
H2264 H 0.22165 0.26852 0.34664 0.0
H2265 H 0.23916 0.28163 0.35895 0.0
H2266 H 0.21787 0.29214 0.37011 0.0
H2267 H 0.20916 0.31535 0.36158 0.0
H2268 H 0.659 0.54235 0.74872 0.0
H2269 H 0.68839 0.56502 0.73714 0.0
H2270 H 0.66268 0.53214 0.70322 0.0
H2271 H 0.63261 0.51017 0.71453 0.0
H2272 H 0.71471 0.55976 0.72501 0.0
H2273 H 0.67896 0.5857 0.69124 0.0
H2274 H 0.66609 0.57111 0.70461 0.0
H2275 H 0.66891 0.55983 0.69072 0.0
C2276 C 0.65934 0.54011 0.73875 0.0
C2277 C 0.64321 0.52443 0.73259 0.0
C2278 C 0.67631 0.55301 0.73215 0.0
C2279 C 0.67769 0.55053 0.71924 0.0
C2280 C 0.66183 0.53469 0.7131 0.0
H2281 H 0.79503 0.61763 0.68414 0.0
H2282 H 0.76333 0.5902 0.69087 0.0
C2283 C 0.64472 0.52191 0.71966 0.0
C2284 C 0.69592 0.56438 0.71237 0.0
H2285 H 0.71289 0.59638 0.68803 0.0
C2286 C 0.71431 0.56775 0.71691 0.0
C2287 C 0.69542 0.57492 0.70184 0.0
C2288 C 0.67631 0.57288 0.69687 0.0
C2289 C 0.73218 0.58159 0.71142 0.0
C2290 C 0.73167 0.59195 0.70079 0.0
C2291 C 0.71327 0.5883 0.69609 0.0
C2292 C 0.75005 0.60788 0.69516 0.0
C2293 C 0.75142 0.58558 0.71744 0.0
C2294 C 0.75278 0.62676 0.69465 0.0
C2295 C 0.77063 0.64229 0.69047 0.0
C2296 C 0.78608 0.63926 0.68662 0.0
C2297 C 0.78322 0.62031 0.68681 0.0
C2298 C 0.76522 0.60468 0.69085 0.0
H2299 H 0.74923 0.58005 0.72718 0.0
H2300 H 0.7578 0.57814 0.71197 0.0
H2301 H 0.76231 0.60142 0.71764 0.0
H2302 H 0.74133 0.62962 0.69792 0.0
H2303 H 0.77257 0.65681 0.69055 0.0
H2304 H 0.50535 0.15601 0.7274 0.0
H2305 H 0.48041 0.16192 0.71757 0.0
H2306 H 0.43434 0.10532 0.72934 0.0
H2307 H 0.45912 0.09936 0.73922 0.0
H2308 H 0.45417 0.14218 0.6988 0.0
H2309 H 0.41307 0.13962 0.74158 0.0
H2310 H 0.43704 0.14133 0.74215 0.0
H2311 H 0.41503 0.11819 0.73944 0.0
C2312 C 0.4899 0.14481 0.72787 0.0
C2313 C 0.48423 0.12727 0.73418 0.0
C2314 C 0.47565 0.14824 0.7223 0.0
C2315 C 0.45544 0.13424 0.72293 0.0
C2316 C 0.44977 0.11659 0.72905 0.0
H2317 H 0.34629 0.11786 0.69075 0.0
H2318 H 0.37354 0.11438 0.69941 0.0
C2319 C 0.46398 0.11319 0.73467 0.0
C2320 C 0.44034 0.13776 0.71681 0.0
H2321 H 0.39745 0.13845 0.72206 0.0
C2322 C 0.44191 0.14161 0.70392 0.0
C2323 C 0.42429 0.13697 0.72348 0.0
C2324 C 0.42232 0.134 0.73745 0.0
C2325 C 0.42762 0.14416 0.6975 0.0
C2326 C 0.41135 0.14289 0.70409 0.0
C2327 C 0.40989 0.13931 0.717 0.0
C2328 C 0.39545 0.14488 0.69776 0.0
C2329 C 0.42944 0.1473 0.68359 0.0
C2330 C 0.39878 0.16317 0.69389 0.0
C2331 C 0.38319 0.1652 0.68902 0.0
C2332 C 0.36409 0.14892 0.68776 0.0
C2333 C 0.36092 0.13059 0.69144 0.0
C2334 C 0.37645 0.12859 0.6964 0.0
H2335 H 0.44264 0.1473 0.67972 0.0
H2336 H 0.41597 0.13554 0.67895 0.0
H2337 H 0.43046 0.16143 0.68137 0.0
H2338 H 0.41328 0.17597 0.69503 0.0
H2339 H 0.38598 0.17959 0.68663 0.0
H2340 H 0.86752 0.36496 0.72379 0.0
H2341 H 0.8584 0.33364 0.71394 0.0
H2342 H 0.91052 0.33597 0.72976 0.0
H2343 H 0.91986 0.36737 0.73956 0.0
H2344 H 0.88029 0.3246 0.69681 0.0
H2345 H 0.86511 0.2826 0.74082 0.0
H2346 H 0.8671 0.30626 0.74024 0.0
H2347 H 0.88904 0.30421 0.74024 0.0
C2348 C 0.87712 0.35888 0.7251 0.0
C2349 C 0.89438 0.36861 0.7325 0.0
C2350 C 0.87184 0.34096 0.71952 0.0
C2351 C 0.88364 0.3324 0.72128 0.0
C2352 C 0.901 0.34216 0.72851 0.0
H2353 H 0.8777 0.22572 0.69635 0.0
H2354 H 0.88709 0.25755 0.70539 0.0
C2355 C 0.9063 0.36008 0.73411 0.0
C2356 C 0.8779 0.31336 0.71542 0.0
H2357 H 0.86512 0.26648 0.72209 0.0
C2358 C 0.87688 0.31185 0.70232 0.0
C2359 C 0.87348 0.29681 0.72266 0.0
C2360 C 0.87354 0.29742 0.73677 0.0
C2361 C 0.87192 0.29425 0.69624 0.0
C2362 C 0.86757 0.27772 0.70348 0.0
C2363 C 0.86853 0.27923 0.71658 0.0
C2364 C 0.862 0.25868 0.69768 0.0
C2365 C 0.87179 0.2936 0.68212 0.0
C2366 C 0.84467 0.24873 0.69044 0.0
C2367 C 0.83923 0.23052 0.68526 0.0
C2368 C 0.85101 0.22193 0.68725 0.0
C2369 C 0.86831 0.23192 0.69459 0.0
C2370 C 0.87372 0.25012 0.69976 0.0
H2371 H 0.88015 0.30841 0.67805 0.0
H2372 H 0.87828 0.2848 0.67865 0.0
H2373 H 0.85628 0.28673 0.67868 0.0
H2374 H 0.83519 0.2549 0.68897 0.0
H2375 H 0.82563 0.22307 0.67986 0.0
H2376 H 0.19561 0.98497 0.59453 0.0
H2377 H 0.2202 0.0158 0.60404 0.0
H2378 H 0.20396 0.99018 0.64066 0.0
H2379 H 0.17996 0.959 0.6312 0.0
H2380 H 0.21526 0.03919 0.62024 0.0
H2381 H 0.26359 0.01443 0.64178 0.0
H2382 H 0.24464 -3e-05 0.6304 0.0
H2383 H 0.23821 0.00036 0.64651 0.0
C2384 C 0.19747 0.98576 0.6046 0.0
C2385 C 0.18588 0.96939 0.61208 0.0
C2386 C 0.21145 0.00347 0.61003 0.0
C2387 C 0.21418 0.00524 0.62305 0.0
C2388 C 0.20244 0.98906 0.63057 0.0
H2389 H 0.27015 0.11388 0.66492 0.0
H2390 H 0.24724 0.08265 0.65525 0.0
C2391 C 0.18851 0.97129 0.62515 0.0
C2392 C 0.22891 0.0242 0.62874 0.0
H2393 H 0.26963 0.0459 0.64786 0.0
C2394 C 0.2272 0.04067 0.62624 0.0
C2395 C 0.24468 0.0262 0.63641 0.0
C2396 C 0.24806 0.00935 0.63885 0.0
C2397 C 0.24058 0.05899 0.63136 0.0
C2398 C 0.25585 0.06082 0.63945 0.0
C2399 C 0.2578 0.04444 0.64177 0.0
C2400 C 0.26992 0.0796 0.64562 0.0
C2401 C 0.23841 0.07626 0.62787 0.0
C2402 C 0.2904 0.08802 0.64378 0.0
C2403 C 0.30366 0.10577 0.64953 0.0
C2404 C 0.29667 0.1154 0.65728 0.0
C2405 C 0.27613 0.10682 0.65915 0.0
C2406 C 0.26293 0.08904 0.65348 0.0
H2407 H 0.23007 0.07367 0.61895 0.0
H2408 H 0.23008 0.07884 0.6353 0.0
H2409 H 0.25309 0.08963 0.62691 0.0
H2410 H 0.29613 0.08094 0.63779 0.0
H2411 H 0.31936 0.11192 0.64787 0.0
H2412 H 0.01731 0.17879 0.61959 0.0
H2413 H 0.9867 0.17284 0.62977 0.0
H2414 H 0.99741 0.22919 0.61793 0.0
H2415 H 0.02793 0.23522 0.60772 0.0
H2416 H 0.98067 0.19274 0.64866 0.0
H2417 H 0.94108 0.19411 0.60588 0.0
H2418 H 0.96339 0.19256 0.6053 0.0
H2419 H 0.96479 0.21568 0.6078 0.0
C2420 C 0.01318 0.18995 0.61918 0.0
C2421 C 0.02504 0.20744 0.61274 0.0
C2422 C 0.99563 0.18649 0.62497 0.0
C2423 C 0.98952 0.20039 0.62442 0.0
C2424 C 0.00149 0.21799 0.61819 0.0
H2425 H 0.89776 0.21752 0.65578 0.0
H2426 H 0.92845 0.22051 0.64752 0.0
C2427 C 0.01898 0.22143 0.61236 0.0
C2428 C 0.9709 0.19675 0.63062 0.0
H2429 H 0.92707 0.19567 0.62538 0.0
C2430 C 0.96884 0.19313 0.64354 0.0
C2431 C 0.95543 0.19725 0.62394 0.0
C2432 C 0.95615 0.19991 0.60995 0.0
C2433 C 0.95204 0.19061 0.65 0.0
C2434 C 0.93691 0.19171 0.64339 0.0
C2435 C 0.93878 0.19497 0.63045 0.0
C2436 C 0.9192 0.19006 0.64973 0.0
C2437 C 0.95093 0.18774 0.66394 0.0
C2438 C 0.9039 0.17196 0.65384 0.0
C2439 C 0.88629 0.1702 0.6585 0.0
C2440 C 0.88383 0.18658 0.65928 0.0
C2441 C 0.89938 0.20473 0.65544 0.0
C2442 C 0.91688 0.20645 0.65071 0.0
H2443 H 0.96421 0.18779 0.66781 0.0
H2444 H 0.94952 0.19958 0.66851 0.0
H2445 H 0.93761 0.17368 0.66629 0.0
H2446 H 0.90528 0.15907 0.65299 0.0
H2447 H 0.87438 0.15593 0.66104 0.0
H2448 H 0.78153 0.79934 0.59742 0.0
H2449 H 0.79068 0.77771 0.60803 0.0
H2450 H 0.77828 0.79475 0.64372 0.0
H2451 H 0.76824 0.81574 0.63317 0.0
H2452 H 0.82028 0.78702 0.62524 0.0
H2453 H 0.7471 0.73575 0.64562 0.0
H2454 H 0.75014 0.75297 0.63364 0.0
H2455 H 0.75606 0.76079 0.64968 0.0
C2456 C 0.7804 0.79823 0.60751 0.0
C2457 C 0.77405 0.80921 0.61444 0.0
C2458 C 0.78581 0.786 0.61357 0.0
C2459 C 0.78494 0.78446 0.62665 0.0
C2460 C 0.77873 0.79546 0.6336 0.0
H2461 H 0.84339 0.73334 0.66955 0.0
H2462 H 0.83378 0.75596 0.66094 0.0
C2463 C 0.77322 0.80763 0.62756 0.0
C2464 C 0.79096 0.77165 0.63299 0.0
H2465 H 0.77427 0.73228 0.65215 0.0
C2466 C 0.81024 0.77504 0.63112 0.0
C2467 C 0.77775 0.75595 0.64057 0.0
C2468 C 0.75655 0.75099 0.64242 0.0
C2469 C 0.81668 0.7631 0.63661 0.0
C2470 C 0.80359 0.74764 0.64439 0.0
C2471 C 0.78433 0.74428 0.64628 0.0
C2472 C 0.80916 0.73403 0.65007 0.0
C2473 C 0.83721 0.76681 0.63371 0.0
C2474 C 0.79814 0.71413 0.64713 0.0
C2475 C 0.80334 0.70113 0.6522 0.0
C2476 C 0.81969 0.70775 0.66036 0.0
C2477 C 0.83061 0.7277 0.6634 0.0
C2478 C 0.82529 0.7407 0.65837 0.0
H2479 H 0.84342 0.77597 0.62527 0.0
H2480 H 0.84721 0.7746 0.64173 0.0
H2481 H 0.83716 0.75292 0.63222 0.0
H2482 H 0.78561 0.70868 0.64076 0.0
H2483 H 0.79455 0.68589 0.64964 0.0
H2484 H 0.02937 0.78679 0.61181 0.0
H2485 H 0.99911 0.76385 0.62276 0.0
H2486 H 0.9888 0.8108 0.63267 0.0
H2487 H 0.01883 0.8338 0.62151 0.0
H2488 H 0.98922 0.76488 0.64863 0.0
H2489 H 0.93634 0.7696 0.61572 0.0
H2490 H 0.96176 0.77784 0.61164 0.0
H2491 H 0.95592 0.79235 0.62178 0.0
C2492 C 0.02057 0.79222 0.61621 0.0
C2493 C 0.02647 0.81212 0.61572 0.0
C2494 C 0.00336 0.77912 0.62254 0.0
C2495 C 0.99161 0.78559 0.62841 0.0
C2496 C 0.99753 0.80546 0.62806 0.0
H2497 H 0.87449 0.71673 0.66211 0.0
H2498 H 0.90646 0.74423 0.65583 0.0
C2499 C 0.01478 0.8186 0.62177 0.0
C2500 C 0.97321 0.77149 0.63491 0.0
H2501 H 0.92281 0.74967 0.63335 0.0
C2502 C 0.97468 0.76159 0.64534 0.0
C2503 C 0.95429 0.76734 0.63064 0.0
C2504 C 0.95184 0.77719 0.61928 0.0
C2505 C 0.95773 0.74753 0.65158 0.0
C2506 C 0.93874 0.74294 0.64709 0.0
C2507 C 0.93733 0.7532 0.63683 0.0
C2508 C 0.92016 0.72672 0.65231 0.0
C2509 C 0.96042 0.73785 0.66294 0.0
C2510 C 0.9172 0.70773 0.65251 0.0
C2511 C 0.89909 0.69211 0.65629 0.0
C2512 C 0.88353 0.69511 0.65992 0.0
C2513 C 0.88643 0.71408 0.65973 0.0
C2514 C 0.90463 0.72977 0.65604 0.0
H2515 H 0.97474 0.74755 0.66774 0.0
H2516 H 0.94827 0.7337 0.66973 0.0
H2517 H 0.96056 0.7245 0.65996 0.0
H2518 H 0.92865 0.70485 0.6493 0.0
H2519 H 0.89705 0.67756 0.65608 0.0
H2520 H 0.16594 0.17973 0.61943 0.0
H2521 H 0.19065 0.17423 0.63007 0.0
H2522 H 0.23522 0.23399 0.62369 0.0
H2523 H 0.21063 0.23965 0.61316 0.0
H2524 H 0.22765 0.18053 0.61915 0.0
H2525 H 0.23955 0.22531 0.66187 0.0
H2526 H 0.21775 0.21656 0.65208 0.0
H2527 H 0.24075 0.23714 0.64732 0.0
C2528 C 0.18095 0.19176 0.62043 0.0
C2529 C 0.18631 0.21014 0.61545 0.0
C2530 C 0.19506 0.18857 0.62646 0.0
C2531 C 0.21471 0.20376 0.62779 0.0
C2532 C 0.22008 0.22214 0.62291 0.0
H2533 H 0.32607 0.22077 0.65594 0.0
H2534 H 0.29798 0.22357 0.64814 0.0
C2535 C 0.20604 0.2253 0.61679 0.0
C2536 C 0.22985 0.20024 0.63378 0.0
H2537 H 0.26224 0.21406 0.65844 0.0
C2538 C 0.23511 0.1877 0.6278 0.0
C2539 C 0.23958 0.20968 0.64504 0.0
C2540 C 0.23406 0.22282 0.65204 0.0
C2541 C 0.25034 0.18488 0.63252 0.0
C2542 C 0.26024 0.19448 0.64373 0.0
C2543 C 0.25468 0.20673 0.64985 0.0
C2544 C 0.27695 0.19267 0.64898 0.0
C2545 C 0.25619 0.17226 0.62518 0.0
C2546 C 0.27445 0.17442 0.65221 0.0
C2547 C 0.29052 0.17281 0.65657 0.0
C2548 C 0.30926 0.18949 0.65812 0.0
C2549 C 0.31171 0.20774 0.65501 0.0
C2550 C 0.29567 0.20933 0.65057 0.0
H2551 H 0.25087 0.17022 0.61533 0.0
H2552 H 0.27252 0.17864 0.62516 0.0
H2553 H 0.2495 0.15767 0.62955 0.0
H2554 H 0.26009 0.16138 0.65129 0.0
H2555 H 0.28829 0.15851 0.6586 0.0
H2556 H 0.75009 0.96678 0.60693 0.0
H2557 H 0.75991 0.99819 0.61693 0.0
H2558 H 0.81186 -0.00036 0.6323 0.0
H2559 H 0.80254 0.96861 0.62201 0.0
H2560 H 0.76629 0.00798 0.64252 0.0
H2561 H 0.83438 0.05236 0.61483 0.0
H2562 H 0.81567 0.02808 0.61018 0.0
H2563 H 0.83326 0.03156 0.62227 0.0
C2564 C 0.76373 0.9739 0.61231 0.0
C2565 C 0.77559 0.96525 0.61362 0.0
C2566 C 0.76924 0.99176 0.61808 0.0
C2567 C 0.78674 0.00132 0.6252 0.0
C2568 C 0.79847 0.99264 0.62667 0.0
H2569 H 0.8449 0.1106 0.66653 0.0
H2570 H 0.83499 0.07854 0.65763 0.0
C2571 C 0.793 0.9748 0.6209 0.0
C2572 C 0.79257 0.02027 0.63124 0.0
H2573 H 0.82888 0.06806 0.63199 0.0
C2574 C 0.77993 0.02114 0.6402 0.0
C2575 C 0.81041 0.03737 0.62819 0.0
C2576 C 0.82416 0.03742 0.61826 0.0
C2577 C 0.78479 0.03867 0.64634 0.0
C2578 C 0.8026 0.05576 0.64326 0.0
C2579 C 0.81527 0.05488 0.63434 0.0
C2580 C 0.80817 0.07484 0.649 0.0
C2581 C 0.77101 0.03869 0.65621 0.0
C2582 C 0.79643 0.0834 0.64698 0.0
C2583 C 0.80198 0.10167 0.6521 0.0
C2584 C 0.81942 0.11173 0.65929 0.0
C2585 C 0.83122 0.10314 0.66121 0.0
C2586 C 0.82565 0.08486 0.65608 0.0
H2587 H 0.76083 0.02379 0.65971 0.0
H2588 H 0.77947 0.04817 0.66425 0.0
H2589 H 0.76187 0.04445 0.65212 0.0
H2590 H 0.78309 0.07605 0.64132 0.0
H2591 H 0.7926 0.10789 0.65037 0.0
H2592 H 0.49218 0.37872 0.71852 0.0
H2593 H 0.46866 0.34794 0.70847 0.0
H2594 H 0.45121 0.32072 0.74459 0.0
H2595 H 0.47535 0.35124 0.75472 0.0
H2596 H 0.45701 0.29813 0.72795 0.0
H2597 H 0.40905 0.32347 0.70659 0.0
H2598 H 0.43458 0.33797 0.70228 0.0
H2599 H 0.42752 0.33744 0.71834 0.0
C2600 C 0.48347 0.36617 0.72435 0.0
C2601 C 0.48568 0.36753 0.73746 0.0
C2602 C 0.46981 0.34862 0.71858 0.0
C2603 C 0.45789 0.3321 0.72578 0.0
C2604 C 0.46013 0.33333 0.73884 0.0
H2605 H 0.35404 0.22659 0.69862 0.0
H2606 H 0.377 0.25712 0.70922 0.0
C2607 C 0.47385 0.35085 0.74463 0.0
C2608 C 0.44347 0.31337 0.71967 0.0
H2609 H 0.40361 0.29249 0.69982 0.0
C2610 C 0.44527 0.29687 0.72185 0.0
C2611 C 0.42798 0.31166 0.71184 0.0
C2612 C 0.4245 0.32852 0.70971 0.0
C2613 C 0.43226 0.27882 0.71624 0.0
C2614 C 0.41727 0.2773 0.70801 0.0
C2615 C 0.41524 0.29371 0.70601 0.0
C2616 C 0.40341 0.25878 0.70148 0.0
C2617 C 0.43448 0.26146 0.71937 0.0
C2618 C 0.41058 0.24966 0.69347 0.0
C2619 C 0.39751 0.23211 0.68748 0.0
C2620 C 0.37693 0.22345 0.68919 0.0
C2621 C 0.36978 0.2328 0.69707 0.0
C2622 C 0.38289 0.25029 0.70313 0.0
H2623 H 0.44262 0.26365 0.72834 0.0
H2624 H 0.41983 0.24799 0.72006 0.0
H2625 H 0.44303 0.25931 0.71188 0.0
H2626 H 0.42632 0.25612 0.69184 0.0
H2627 H 0.4036 0.22527 0.6816 0.0
H2628 H 0.65264 0.155 0.72607 0.0
H2629 H 0.6828 0.16107 0.71515 0.0
H2630 H 0.66833 0.10183 0.72178 0.0
H2631 H 0.63807 0.09556 0.73257 0.0
H2632 H 0.71444 0.15635 0.7255 0.0
H2633 H 0.6799 0.10964 0.6836 0.0
H2634 H 0.66679 0.11785 0.69355 0.0
H2635 H 0.67011 0.09797 0.69833 0.0
C2636 C 0.65575 0.14319 0.72507 0.0
C2637 C 0.64291 0.12477 0.73017 0.0
C2638 C 0.67303 0.14672 0.71888 0.0
C2639 C 0.67768 0.13184 0.71752 0.0
C2640 C 0.66488 0.11344 0.72256 0.0
H2641 H 0.77234 0.11634 0.69009 0.0
H2642 H 0.7412 0.11339 0.69736 0.0
C2643 C 0.64769 0.10994 0.72883 0.0
C2644 C 0.69632 0.13573 0.7113 0.0
H2645 H 0.71433 0.12173 0.6867 0.0
C2646 C 0.71446 0.14895 0.71695 0.0
C2647 C 0.69629 0.12602 0.70016 0.0
C2648 C 0.67725 0.11219 0.69346 0.0
C2649 C 0.73255 0.15214 0.71204 0.0
C2650 C 0.73253 0.14222 0.70097 0.0
C2651 C 0.71437 0.12933 0.69517 0.0
C2652 C 0.75106 0.1441 0.69572 0.0
C2653 C 0.75144 0.16548 0.71907 0.0
C2654 C 0.76686 0.16228 0.69212 0.0
C2655 C 0.78472 0.16399 0.68806 0.0
C2656 C 0.78689 0.14746 0.68719 0.0
C2657 C 0.77094 0.12926 0.69052 0.0
C2658 C 0.75316 0.12757 0.69465 0.0
H2659 H 0.74851 0.16807 0.72885 0.0
H2660 H 0.76151 0.15936 0.71928 0.0
H2661 H 0.75919 0.17977 0.7143 0.0
H2662 H 0.76549 0.1752 0.69263 0.0
H2663 H 0.7969 0.17827 0.68582 0.0
H2664 H 0.92092 0.55177 0.73682 0.0
H2665 H 0.91041 0.57269 0.72655 0.0
H2666 H 0.86015 0.52208 0.71043 0.0
H2667 H 0.87013 0.50103 0.72097 0.0
H2668 H 0.90458 0.57601 0.7008 0.0
H2669 H 0.83518 0.55084 0.72769 0.0
H2670 H 0.85441 0.54589 0.73257 0.0
H2671 H 0.83756 0.53179 0.7202 0.0
C2672 C 0.90751 0.54508 0.7312 0.0
C2673 C 0.89631 0.52473 0.72976 0.0
C2674 C 0.90162 0.55705 0.72527 0.0
C2675 C 0.88437 0.54889 0.71788 0.0
C2676 C 0.87333 0.52863 0.71626 0.0
H2677 H 0.82513 0.601 0.67759 0.0
H2678 H 0.83513 0.57834 0.68564 0.0
C2679 C 0.87919 0.51665 0.72218 0.0
C2680 C 0.87803 0.56162 0.71179 0.0
H2681 H 0.84081 0.57244 0.711 0.0
C2682 C 0.89065 0.57526 0.70303 0.0
C2683 C 0.85981 0.56051 0.7147 0.0
C2684 C 0.846 0.5466 0.72438 0.0
C2685 C 0.88549 0.58782 0.69703 0.0
C2686 C 0.86739 0.58687 0.70005 0.0
C2687 C 0.85465 0.57306 0.70869 0.0
C2688 C 0.86176 0.60063 0.69474 0.0
C2689 C 0.89935 0.60185 0.68742 0.0
C2690 C 0.87333 0.62062 0.6973 0.0
C2691 C 0.86774 0.6336 0.69268 0.0
C2692 C 0.85039 0.62683 0.68545 0.0
C2693 C 0.83873 0.60675 0.68296 0.0
C2694 C 0.84436 0.59376 0.6876 0.0
H2695 H 0.90963 0.59717 0.68371 0.0
H2696 H 0.89097 0.6033 0.67947 0.0
H2697 H 0.90839 0.61641 0.69183 0.0
H2698 H 0.88658 0.62615 0.70302 0.0
H2699 H 0.87701 0.64894 0.69485 0.0
H2700 H 0.46703 0.90575 0.17943 0.0
H2701 H 0.47519 0.91971 0.15844 0.0
H2702 H 0.47787 0.97217 0.17229 0.0
H2703 H 0.46922 0.95806 0.19323 0.0
H2704 H 0.45908 0.96181 0.15038 0.0
H2705 H 0.52885 0.95975 0.14638 0.0
H2706 H 0.5077 0.93623 0.1491 0.0
H2707 H 0.51552 0.95499 0.16088 0.0
C2708 C 0.46945 0.9203 0.17801 0.0
C2709 C 0.4676 0.93085 0.18801 0.0
C2710 C 0.4742 0.9283 0.166 0.0
C2711 C 0.4776 0.94719 0.1638 0.0
C2712 C 0.47541 0.95761 0.17374 0.0
H2713 H 0.54047 0.02107 0.10134 0.0
H2714 H 0.52962 0.00432 0.12128 0.0
C2715 C 0.47042 0.94952 0.18571 0.0
C2716 C 0.48331 0.95611 0.15115 0.0
H2717 H 0.51767 0.96822 0.12806 0.0
C2718 C 0.47191 0.96324 0.14551 0.0
C2719 C 0.50021 0.95822 0.14483 0.0
C2720 C 0.51389 0.95208 0.15065 0.0
C2721 C 0.4769 0.97239 0.13378 0.0
C2722 C 0.49347 0.97398 0.12729 0.0
C2723 C 0.50485 0.96684 0.13294 0.0
C2724 C 0.49987 0.98387 0.11496 0.0
C2725 C 0.46473 0.98082 0.12868 0.0
C2726 C 0.48691 0.97783 0.10462 0.0
C2727 C 0.49297 0.98769 0.09321 0.0
C2728 C 0.51225 0.00366 0.09181 0.0
C2729 C 0.52538 0.00919 0.10209 0.0
C2730 C 0.51925 -0.00053 0.11351 0.0
H2731 H 0.4564 0.98329 0.13618 0.0
H2732 H 0.47421 0.99485 0.12388 0.0
H2733 H 0.4538 0.97045 0.1218 0.0
H2734 H 0.47206 0.96551 0.10536 0.0
H2735 H 0.48237 0.98301 0.08557 0.0
H2736 H 0.05733 0.50801 0.1811 0.0
H2737 H 0.04353 0.50235 0.15986 0.0
H2738 H 0.00857 0.52849 0.17012 0.0
H2739 H 0.02199 0.53394 0.19139 0.0
H2740 H 0.00257 0.48117 0.15196 0.0
H2741 H 0.0399 0.55929 0.13895 0.0
H2742 H 0.04765 0.55058 0.15218 0.0
H2743 H 0.02627 0.55346 0.15331 0.0
C2744 C 0.04656 0.51238 0.17888 0.0
C2745 C 0.04087 0.52156 0.18792 0.0
C2746 C 0.03878 0.50922 0.16673 0.0
C2747 C 0.0253 0.51529 0.1634 0.0
C2748 C 0.01928 0.52408 0.17245 0.0
H2749 H 0.96304 0.51481 0.09623 0.0
H2750 H 0.97622 0.51816 0.11746 0.0
C2751 C 0.027 0.5272 0.18459 0.0
C2752 C 0.0174 0.51238 0.15048 0.0
H2753 H 0.01563 0.53688 0.12479 0.0
C2754 C 0.00549 0.49331 0.14597 0.0
C2755 C 0.02127 0.52829 0.14274 0.0
C2756 C 0.03461 0.54908 0.14696 0.0
C2757 C 0.99688 0.48971 0.13398 0.0
C2758 C 1.00064 0.50564 0.12626 0.0
C2759 C 0.01271 0.52471 0.13076 0.0
C2760 C 0.99214 0.50291 0.1135 0.0
C2761 C 0.98343 0.46892 0.12983 0.0
C2762 C 0.99681 0.49331 0.10422 0.0
C2763 C 0.98916 0.49121 0.09211 0.0
C2764 C 0.97682 0.49884 0.08901 0.0
C2765 C 0.97224 0.50851 0.09834 0.0
C2766 C 0.97987 0.51056 0.11045 0.0
H2767 H 0.97798 0.45881 0.13789 0.0
H2768 H 0.97047 0.46745 0.12452 0.0
H2769 H 0.99175 0.46435 0.12361 0.0
H2770 H 0.00656 0.48762 0.10631 0.0
H2771 H 0.99284 0.48354 0.08519 0.0
H2772 H 0.4972 0.53397 0.18916 0.0
H2773 H 0.50505 0.52878 0.16789 0.0
H2774 H 0.44485 0.50903 0.15637 0.0
H2775 H 0.43697 0.51468 0.17762 0.0
H2776 H 0.48777 0.49413 0.15365 0.0
H2777 H 0.47791 0.55157 0.13071 0.0
H2778 H 0.48024 0.55052 0.14746 0.0
H2779 H 0.45729 0.53413 0.13975 0.0
C2780 C 0.48566 0.52871 0.18209 0.0
C2781 C 0.46649 0.52491 0.18508 0.0
C2782 C 0.49015 0.52564 0.16995 0.0
C2783 C 0.47563 0.5188 0.1605 0.0
C2784 C 0.45637 0.51464 0.16347 0.0
H2785 H 0.48552 0.49668 0.08107 0.0
H2786 H 0.47301 0.49985 0.10146 0.0
C2787 C 0.45184 0.51767 0.17565 0.0
C2788 C 0.48075 0.51585 0.14762 0.0
H2789 H 0.48588 0.53243 0.11763 0.0
C2790 C 0.48731 0.50246 0.14577 0.0
C2791 C 0.48004 0.52667 0.13733 0.0
C2792 C 0.47364 0.54165 0.13886 0.0
C2793 C 0.4933 0.49968 0.13394 0.0
C2794 C 0.49309 0.51086 0.12372 0.0
C2795 C 0.48608 0.52392 0.12548 0.0
C2796 C 0.50078 0.50967 0.11125 0.0
C2797 C 0.49969 0.48468 0.13247 0.0
C2798 C 0.52066 0.51465 0.10993 0.0
C2799 C 0.52786 0.51294 0.09833 0.0
C2800 C 0.51535 0.50632 0.08774 0.0
C2801 C 0.49557 0.50193 0.08901 0.0
C2802 C 0.48838 0.50363 0.10066 0.0
H2803 H 0.49378 0.47374 0.14007 0.0
H2804 H 0.4947 0.47697 0.12333 0.0
H2805 H 0.51609 0.49206 0.13287 0.0
H2806 H 0.53063 0.51982 0.11791 0.0
H2807 H 0.54327 0.51686 0.09764 0.0
H2808 H 0.93076 0.4557 0.83279 0.0
H2809 H 0.94446 0.46153 0.85404 0.0
H2810 H 0.99993 0.50836 0.84051 0.0
H2811 H 0.98608 0.50291 0.81931 0.0
H2812 H 0.97439 0.45847 0.86292 0.0
H2813 H 0.99103 0.53439 0.86996 0.0
H2814 H 0.97613 0.51949 0.85704 0.0
H2815 H 0.00275 0.53177 0.85628 0.0
C2816 C 0.94584 0.46731 0.83439 0.0
C2817 C 0.95735 0.47892 0.82444 0.0
C2818 C 0.95363 0.47065 0.84652 0.0
C2819 C 0.97312 0.48559 0.84892 0.0
C2820 C 0.98468 0.49713 0.83897 0.0
H2821 H 0.04213 0.4892 0.91399 0.0
H2822 H 0.0278 0.48541 0.89312 0.0
C2823 C 0.9768 0.49396 0.82685 0.0
C2824 C 0.98161 0.48843 0.86173 0.0
H2825 H 0.0055 0.52247 0.88468 0.0
C2826 C 0.98108 0.47244 0.86771 0.0
C2827 C 0.99007 0.50658 0.86806 0.0
C2828 C 0.98986 0.52397 0.86256 0.0
C2829 C 0.98903 0.47416 0.87975 0.0
C2830 C 0.99837 0.49254 0.88583 0.0
C2831 C 0.9986 0.50845 0.87995 0.0
C2832 C 0.00765 0.4955 0.8984 0.0
C2833 C 0.98693 0.45613 0.88592 0.0
C2834 C 0.00173 0.50323 0.9082 0.0
C2835 C 0.01027 0.50592 0.92008 0.0
C2836 C 0.02488 0.50083 0.92245 0.0
C2837 C 0.03103 0.4934 0.91253 0.0
C2838 C 0.02262 0.49092 0.90061 0.0
H2839 H 0.97445 0.44266 0.88181 0.0
H2840 H 1.00069 0.45552 0.88448 0.0
H2841 H 0.98445 0.45625 0.89614 0.0
H2842 H 0.99035 0.50706 0.90669 0.0
H2843 H 0.00549 0.51211 0.92739 0.0
H2844 H 0.54144 0.51179 0.82221 0.0
H2845 H 0.53445 0.5198 0.84305 0.0
H2846 H 0.52407 0.46444 0.85675 0.0
H2847 H 0.53129 0.45641 0.83598 0.0
H2848 H 0.49787 0.49689 0.85679 0.0
H2849 H 0.56392 0.50523 0.88241 0.0
H2850 H 0.56309 0.50655 0.86556 0.0
H2851 H 0.55038 0.48338 0.87319 0.0
C2852 C 0.53792 0.50142 0.8297 0.0
C2853 C 0.53696 0.48347 0.82743 0.0
C2854 C 0.53384 0.50598 0.84158 0.0
C2855 C 0.52896 0.49281 0.85148 0.0
C2856 C 0.52807 0.47493 0.84928 0.0
H2857 H 0.49765 0.49476 0.92962 0.0
H2858 H 0.50728 0.48709 0.90949 0.0
C2859 C 0.53201 0.47029 0.83738 0.0
C2860 C 0.52398 0.49746 0.86394 0.0
H2861 H 0.53932 0.50671 0.89446 0.0
C2862 C 0.50695 0.49912 0.86503 0.0
C2863 C 0.53575 0.50015 0.87468 0.0
C2864 C 0.5544 0.49889 0.87397 0.0
C2865 C 0.50124 0.50318 0.87659 0.0
C2866 C 0.51321 0.50625 0.88732 0.0
C2867 C 0.53018 0.50444 0.88624 0.0
C2868 C 0.50838 0.51145 0.8997 0.0
C2869 C 0.48214 0.50365 0.87722 0.0
C2870 C 0.50636 0.52801 0.90102 0.0
C2871 C 0.50074 0.53232 0.91246 0.0
C2872 C 0.49734 0.52036 0.92291 0.0
C2873 C 0.50022 0.50427 0.92175 0.0
C2874 C 0.50566 0.49985 0.91024 0.0
H2875 H 0.47199 0.49532 0.86936 0.0
H2876 H 0.47435 0.49755 0.88617 0.0
H2877 H 0.48547 0.51895 0.87653 0.0
H2878 H 0.50899 0.53754 0.89315 0.0
H2879 H 0.49901 0.54503 0.91313 0.0
H2880 H 0.53703 0.09338 0.83391 0.0
H2881 H 0.52939 0.07959 0.85495 0.0
H2882 H 0.52718 0.02736 0.84107 0.0
H2883 H 0.5353 0.04131 0.82009 0.0
H2884 H 0.49778 0.04874 0.86352 0.0
H2885 H 0.56202 0.03823 0.87109 0.0
H2886 H 0.56077 0.05225 0.85823 0.0
H2887 H 0.5485 0.02608 0.85717 0.0
C2888 C 0.53501 0.07899 0.83537 0.0
C2889 C 0.53686 0.06847 0.82534 0.0
C2890 C 0.53068 0.07113 0.84741 0.0
C2891 C 0.52803 0.05254 0.8497 0.0
C2892 C 0.52973 0.04195 0.83967 0.0
H2893 H 0.46269 0.97808 0.91156 0.0
H2894 H 0.47375 0.99522 0.89177 0.0
C2895 C 0.53429 0.0499 0.82765 0.0
C2896 C 0.52259 0.04392 0.86244 0.0
H2897 H 0.53493 0.02164 0.88521 0.0
C2898 C 0.50602 0.04296 0.86829 0.0
C2899 C 0.53351 0.03667 0.86883 0.0
C2900 C 0.55231 0.03854 0.86356 0.0
C2901 C 0.49977 0.03454 0.88015 0.0
C2902 C 0.51 0.02628 0.88621 0.0
C2903 C 0.5269 0.02772 0.88052 0.0
C2904 C 0.50329 0.01586 0.89835 0.0
C2905 C 0.48245 0.0349 0.88612 0.0
C2906 C 0.51636 0.02126 0.9086 0.0
C2907 C 0.51022 0.01112 0.91991 0.0
C2908 C 0.49083 0.99531 0.92122 0.0
C2909 C 0.47779 0.99 0.91091 0.0
C2910 C 0.484 2e-05 0.8996 0.0
H2911 H 0.48064 0.04701 0.88244 0.0
H2912 H 0.46865 0.02107 0.88393 0.0
H2913 H 0.48419 0.03649 0.89645 0.0
H2914 H 0.53138 0.03332 0.90785 0.0
H2915 H 0.52081 0.01546 0.92752 0.0
H2916 H 0.10714 0.24934 0.51358 0.0
H2917 H 0.11499 0.26293 0.49247 0.0
H2918 H 0.17631 0.29867 0.50317 0.0
H2919 H 0.16861 0.28538 0.5243 0.0
H2920 H 0.13181 0.30188 0.48489 0.0
H2921 H 0.17939 0.27129 0.47136 0.0
H2922 H 0.16312 0.26266 0.48468 0.0
H2923 H 0.18665 0.28476 0.48581 0.0
C2924 C 0.12229 0.26018 0.51148 0.0
C2925 C 0.13726 0.26616 0.52066 0.0
C2926 C 0.12676 0.26786 0.49938 0.0
C2927 C 0.14629 0.28157 0.49617 0.0
C2928 C 0.16121 0.28776 0.50533 0.0
H2929 H 0.20899 0.35188 0.43278 0.0
H2930 H 0.19812 0.33485 0.45269 0.0
C2931 C 0.15677 0.28012 0.51743 0.0
C2932 C 0.15105 0.28981 0.48334 0.0
H2933 H 0.18001 0.29552 0.45798 0.0
C2934 C 0.1422 0.30035 0.47895 0.0
C2935 C 0.1646 0.28778 0.47559 0.0
C2936 C 0.17387 0.27586 0.47952 0.0
C2937 C 0.14707 0.3095 0.46721 0.0
C2938 C 0.16089 0.30775 0.45955 0.0
C2939 C 0.16946 0.29691 0.46386 0.0
C2940 C 0.16728 0.3177 0.44726 0.0
C2941 C 0.13791 0.32154 0.46333 0.0
C2942 C 0.15363 0.3135 0.43746 0.0
C2943 C 0.15979 0.32336 0.42606 0.0
C2944 C 0.17976 0.33757 0.42419 0.0
C2945 C 0.19344 0.34133 0.43394 0.0
C2946 C 0.18727 0.33149 0.44532 0.0
H2947 H 0.13145 0.32524 0.47141 0.0
H2948 H 0.14904 0.33527 0.45882 0.0
H2949 H 0.12585 0.31315 0.45646 0.0
H2950 H 0.13819 0.30264 0.43865 0.0
H2951 H 0.14882 0.32013 0.4188 0.0
H2952 H 0.69109 0.8677 0.52435 0.0
H2953 H 0.67826 0.86224 0.50292 0.0
H2954 H 0.71399 0.83665 0.49331 0.0
H2955 H 0.72714 0.84228 0.5147 0.0
H2956 H 0.70088 0.87687 0.48061 0.0
H2957 H 0.65766 0.79593 0.48118 0.0
H2958 H 0.66597 0.81045 0.49533 0.0
H2959 H 0.68308 0.80677 0.48613 0.0
C2960 C 0.6963 0.86099 0.51768 0.0
C2961 C 0.71015 0.85543 0.52125 0.0
C2962 C 0.68887 0.85779 0.50546 0.0
C2963 C 0.69502 0.84886 0.4966 0.0
C2964 C 0.70879 0.84324 0.50009 0.0
H2965 H 0.66461 0.81898 0.41804 0.0
H2966 H 0.67892 0.82394 0.43908 0.0
C2967 C 0.71626 0.84645 0.51232 0.0
C2968 C 0.68743 0.84601 0.48359 0.0
H2969 H 0.65963 0.81116 0.46185 0.0
C2970 C 0.69183 0.86252 0.4765 0.0
C2971 C 0.67575 0.82726 0.47827 0.0
C2972 C 0.67016 0.80904 0.48562 0.0
C2973 C 0.68494 0.86079 0.46415 0.0
C2974 C 0.67298 0.84203 0.45888 0.0
C2975 C 0.66877 0.82552 0.46593 0.0
C2976 C 0.66444 0.83923 0.44613 0.0
C2977 C 0.6908 0.87907 0.4568 0.0
C2978 C 0.65137 0.84599 0.44317 0.0
C2979 C 0.6433 0.84333 0.43115 0.0
C2980 C 0.64802 0.83371 0.42186 0.0
C2981 C 0.66092 0.82672 0.42492 0.0
C2982 C 0.66901 0.82942 0.43695 0.0
H2983 H 0.70421 0.89181 0.46082 0.0
H2984 H 0.69372 0.87723 0.44687 0.0
H2985 H 0.67853 0.88235 0.45705 0.0
H2986 H 0.64736 0.85327 0.45019 0.0
H2987 H 0.63354 0.84901 0.42909 0.0
H2988 H 0.16663 0.8682 0.52547 0.0
H2989 H 0.17431 0.86205 0.50439 0.0
H2990 H 0.11289 0.83698 0.49376 0.0
H2991 H 0.10516 0.8437 0.51475 0.0
H2992 H 0.15965 0.82697 0.4915 0.0
H2993 H 0.14136 0.87726 0.46639 0.0
H2994 H 0.14439 0.87794 0.48317 0.0
H2995 H 0.12187 0.85948 0.47597 0.0
C2996 C 0.15477 0.86159 0.51862 0.0
C2997 C 0.1353 0.85662 0.52179 0.0
C2998 C 0.15917 0.85796 0.50659 0.0
C2999 C 0.14425 0.84934 0.49744 0.0
C3000 C 0.12472 0.84399 0.50061 0.0
H3001 H 0.14995 0.81965 0.41916 0.0
H3002 H 0.13858 0.82352 0.43975 0.0
C3003 C 0.12029 0.84764 0.51266 0.0
C3004 C 0.14922 0.84577 0.48466 0.0
H3005 H 0.1502 0.85808 0.45396 0.0
C3006 C 0.15758 0.83376 0.48329 0.0
C3007 C 0.14643 0.85459 0.47395 0.0
C3008 C 0.13818 0.86817 0.47489 0.0
C3009 C 0.16324 0.83035 0.47152 0.0
C3010 C 0.16078 0.83944 0.46085 0.0
C3011 C 0.15209 0.85115 0.46216 0.0
C3012 C 0.16769 0.83741 0.44831 0.0
C3013 C 0.17166 0.8169 0.47059 0.0
C3014 C 0.18788 0.84429 0.44623 0.0
C3015 C 0.19444 0.84223 0.43448 0.0
C3016 C 0.18096 0.8333 0.42452 0.0
C3017 C 0.16076 0.82675 0.42658 0.0
C3018 C 0.15422 0.82885 0.43835 0.0
H3019 H 0.1677 0.80719 0.47883 0.0
H3020 H 0.16629 0.80777 0.46199 0.0
H3021 H 0.18805 0.82572 0.47017 0.0
H3022 H 0.19859 0.85136 0.45371 0.0
H3023 H 0.21014 0.84782 0.43317 0.0
H3024 H 0.60585 0.77595 0.16142 0.0
H3025 H 0.61958 0.78188 0.18265 0.0
H3026 H 0.65239 0.84357 0.17553 0.0
H3027 H 0.63899 0.83779 0.15422 0.0
H3028 H 0.6606 0.80076 0.18934 0.0
H3029 H 0.62291 0.83887 0.20872 0.0
H3030 H 0.61459 0.8243 0.19459 0.0
H3031 H 0.63579 0.84839 0.19426 0.0
C3032 C 0.61606 0.79078 0.16434 0.0
C3033 C 0.62133 0.8064 0.15612 0.0
C3034 C 0.62379 0.79413 0.17649 0.0
C3035 C 0.6368 0.81316 0.18067 0.0
C3036 C 0.64207 0.82881 0.17254 0.0
H3037 H 0.71488 0.85425 0.24537 0.0
H3038 H 0.70021 0.84899 0.22441 0.0
C3039 C 0.63438 0.82547 0.16037 0.0
C3040 C 0.64541 0.81654 0.19341 0.0
H3041 H 0.6474 0.83806 0.22155 0.0
C3042 C 0.65771 0.80889 0.19639 0.0
C3043 C 0.64148 0.82706 0.20258 0.0
C3044 C 0.62785 0.83502 0.19996 0.0
C3045 C 0.66641 0.81172 0.20828 0.0
C3046 C 0.6627 0.82245 0.21737 0.0
C3047 C 0.65026 0.82994 0.21447 0.0
C3048 C 0.67145 0.82575 0.23002 0.0
C3049 C 0.67943 0.80315 0.21116 0.0
C3050 C 0.66003 0.8144 0.24002 0.0
C3051 C 0.66839 0.81717 0.25196 0.0
C3052 C 0.6883 0.83146 0.25411 0.0
C3053 C 0.69962 0.84293 0.24402 0.0
C3054 C 0.69125 0.84006 0.23207 0.0
H3055 H 0.67946 0.79376 0.20343 0.0
H3056 H 0.69485 0.8151 0.21281 0.0
H3057 H 0.67436 0.79441 0.21985 0.0
H3058 H 0.64472 0.80324 0.23855 0.0
H3059 H 0.65934 0.80789 0.25946 0.0
H3060 H 0.19713 0.78347 0.1661 0.0
H3061 H 0.18859 0.78995 0.18692 0.0
H3062 H 0.19985 0.84631 0.17472 0.0
H3063 H 0.20809 0.83984 0.15381 0.0
H3064 H 0.21235 0.82246 0.20392 0.0
H3065 H 0.14226 0.81878 0.18865 0.0
H3066 H 0.15457 0.80898 0.17934 0.0
H3067 H 0.16397 0.83478 0.17987 0.0
C3068 C 0.1977 0.79721 0.16783 0.0
C3069 C 0.20316 0.81109 0.15828 0.0
C3070 C 0.19294 0.80093 0.17974 0.0
C3071 C 0.19337 0.8185 0.18229 0.0
C3072 C 0.19921 0.83256 0.17288 0.0
H3073 H 0.15866 0.86139 0.2468 0.0
H3074 H 0.17045 0.85732 0.22644 0.0
C3075 C 0.20407 0.8289 0.16098 0.0
C3076 C 0.18748 0.82199 0.19477 0.0
H3077 H 0.15199 0.82758 0.2097 0.0
C3078 C 0.19915 0.82357 0.20521 0.0
C3079 C 0.17029 0.82347 0.19638 0.0
C3080 C 0.15691 0.82128 0.18551 0.0
C3081 C 0.19422 0.82687 0.21726 0.0
C3082 C 0.17689 0.82813 0.21891 0.0
C3083 C 0.16528 0.82662 0.20843 0.0
C3084 C 0.17036 0.83084 0.23142 0.0
C3085 C 0.20785 0.82935 0.22805 0.0
C3086 C 0.16623 0.81723 0.24095 0.0
C3087 C 0.15951 0.81954 0.2526 0.0
C3088 C 0.15655 0.83539 0.25489 0.0
C3089 C 0.16061 0.84894 0.24529 0.0
C3090 C 0.16743 0.84667 0.23368 0.0
H3091 H 0.22301 0.83367 0.22479 0.0
H3092 H 0.20886 0.84049 0.23481 0.0
H3093 H 0.20198 0.81531 0.23303 0.0
H3094 H 0.16786 0.80462 0.23933 0.0
H3095 H 0.15622 0.80869 0.25973 0.0
H3096 H 0.23063 0.41468 0.16381 0.0
H3097 H 0.22275 0.40011 0.18466 0.0
H3098 H 0.16105 0.36667 0.17429 0.0
H3099 H 0.16883 0.38063 0.15334 0.0
H3100 H 0.19746 0.4011 0.20277 0.0
H3101 H 0.17233 0.32517 0.18787 0.0
H3102 H 0.18601 0.3457 0.1777 0.0
H3103 H 0.15984 0.33583 0.17984 0.0
C3104 C 0.21541 0.40403 0.1659 0.0
C3105 C 0.20038 0.39878 0.15685 0.0
C3106 C 0.21092 0.39582 0.17786 0.0
C3107 C 0.19135 0.38209 0.18098 0.0
C3108 C 0.1763 0.37697 0.17203 0.0
H3109 H 0.12734 0.3158 0.24541 0.0
H3110 H 0.13838 0.33207 0.22527 0.0
C3111 C 0.18076 0.38515 0.16009 0.0
C3112 C 0.18654 0.37329 0.19365 0.0
H3113 H 0.16514 0.3297 0.20884 0.0
C3114 C 0.19055 0.38551 0.20413 0.0
C3115 C 0.17758 0.35294 0.19541 0.0
C3116 C 0.17385 0.33914 0.18463 0.0
C3117 C 0.18522 0.37786 0.21625 0.0
C3118 C 0.17588 0.35748 0.21796 0.0
C3119 C 0.1722 0.34531 0.20751 0.0
C3120 C 0.16937 0.34834 0.23045 0.0
C3121 C 0.18905 0.39159 0.22709 0.0
C3122 C 0.18314 0.35205 0.24009 0.0
C3123 C 0.17688 0.34267 0.25163 0.0
C3124 C 0.15673 0.32928 0.25373 0.0
C3125 C 0.14299 0.32578 0.24407 0.0
C3126 C 0.14926 0.33515 0.23256 0.0
H3127 H 0.1921 0.40614 0.22389 0.0
H3128 H 0.17621 0.38555 0.23352 0.0
H3129 H 0.20216 0.39356 0.23244 0.0
H3130 H 0.19878 0.36189 0.23859 0.0
H3131 H 0.18789 0.34551 0.25878 0.0
H3132 H 0.83555 0.61779 0.85755 0.0
H3133 H 0.84323 0.63149 0.83652 0.0
H3134 H 0.78176 0.59651 0.82594 0.0
H3135 H 0.77393 0.58252 0.84694 0.0
H3136 H 0.83693 0.61172 0.81338 0.0
H3137 H 0.79555 0.65192 0.81585 0.0
H3138 H 0.8016 0.64272 0.82959 0.0
H3139 H 0.7815 0.62646 0.81954 0.0
C3140 C 0.82365 0.61287 0.85074 0.0
C3141 C 0.80409 0.59903 0.85397 0.0
C3142 C 0.82807 0.6208 0.83874 0.0
C3143 C 0.81304 0.6152 0.82971 0.0
C3144 C 0.79353 0.60133 0.83284 0.0
H3145 H 0.81748 0.65484 0.75283 0.0
H3146 H 0.80671 0.63715 0.77261 0.0
C3147 C 0.78908 0.59336 0.84486 0.0
C3148 C 0.81798 0.62369 0.81697 0.0
H3149 H 0.81039 0.65238 0.79653 0.0
C3150 C 0.83112 0.6206 0.80969 0.0
C3151 C 0.81029 0.63517 0.81214 0.0
C3152 C 0.79657 0.63945 0.81969 0.0
C3153 C 0.8368 0.62869 0.79771 0.0
C3154 C 0.82945 0.64052 0.79298 0.0
C3155 C 0.81602 0.64332 0.80017 0.0
C3156 C 0.83607 0.65071 0.78081 0.0
C3157 C 0.85044 0.62429 0.79017 0.0
C3158 C 0.85613 0.6643 0.77887 0.0
C3159 C 0.86235 0.67433 0.76756 0.0
C3160 C 0.84861 0.67112 0.75796 0.0
C3161 C 0.8285 0.65748 0.75994 0.0
C3162 C 0.82229 0.64745 0.77127 0.0
H3163 H 0.84995 0.61075 0.79338 0.0
H3164 H 0.84654 0.62272 0.78006 0.0
H3165 H 0.86588 0.63645 0.79131 0.0
H3166 H 0.86699 0.66735 0.78617 0.0
H3167 H 0.87796 0.68458 0.76634 0.0
H3168 H 0.40733 0.21629 0.84811 0.0
H3169 H 0.39405 0.21089 0.82676 0.0
H3170 H 0.33941 0.16182 0.83938 0.0
H3171 H 0.3529 0.16682 0.86066 0.0
H3172 H 0.35072 0.1535 0.81797 0.0
H3173 H 0.35464 0.22495 0.81363 0.0
H3174 H 0.37825 0.22724 0.81707 0.0
H3175 H 0.35858 0.21625 0.82831 0.0
C3176 C 0.39247 0.20439 0.8463 0.0
C3177 C 0.38108 0.19202 0.85602 0.0
C3178 C 0.38486 0.20138 0.83413 0.0
C3179 C 0.36556 0.18622 0.83152 0.0
C3180 C 0.3543 0.17366 0.84119 0.0
H3181 H 0.29736 0.17797 0.76526 0.0
H3182 H 0.31112 0.18224 0.78633 0.0
C3183 C 0.36201 0.1765 0.85332 0.0
C3184 C 0.35714 0.18325 0.81869 0.0
H3185 H 0.34718 0.20592 0.79503 0.0
C3186 C 0.34987 0.16494 0.81297 0.0
C3187 C 0.35576 0.19809 0.81225 0.0
C3188 C 0.36203 0.21767 0.81817 0.0
C3189 C 0.34139 0.16108 0.80094 0.0
C3190 C 0.34073 0.17616 0.7943 0.0
C3191 C 0.34787 0.19443 0.80007 0.0
C3192 C 0.33228 0.17321 0.78149 0.0
C3193 C 0.33277 0.14074 0.79565 0.0
C3194 C 0.3397 0.16688 0.77171 0.0
C3195 C 0.33155 0.16399 0.75969 0.0
C3196 C 0.31605 0.16775 0.75713 0.0
C3197 C 0.30897 0.17452 0.76691 0.0
C3198 C 0.31697 0.17717 0.77895 0.0
H3199 H 0.32905 0.12983 0.80316 0.0
H3200 H 0.31918 0.13658 0.79005 0.0
H3201 H 0.34383 0.14008 0.78948 0.0
H3202 H 0.35185 0.16421 0.77335 0.0
H3203 H 0.33728 0.15858 0.75246 0.0
H3204 H 0.83175 0.20195 0.85813 0.0
H3205 H 0.83966 0.19578 0.83712 0.0
H3206 H 0.77779 0.16713 0.82696 0.0
H3207 H 0.76977 0.17382 0.84789 0.0
H3208 H 0.82637 0.16024 0.82482 0.0
H3209 H 0.80421 0.20719 0.79905 0.0
H3210 H 0.8077 0.20867 0.81581 0.0
H3211 H 0.78552 0.18916 0.80894 0.0
C3212 C 0.81982 0.19454 0.85139 0.0
C3213 C 0.80014 0.18855 0.85466 0.0
C3214 C 0.82436 0.1909 0.83942 0.0
C3215 C 0.80936 0.18126 0.83043 0.0
C3216 C 0.78964 0.17491 0.83369 0.0
H3217 H 0.81755 0.15193 0.75245 0.0
H3218 H 0.8053 0.15496 0.77293 0.0
C3219 C 0.78506 0.17855 0.8457 0.0
C3220 C 0.81451 0.1777 0.81772 0.0
H3221 H 0.81485 0.1892 0.78691 0.0
C3222 C 0.82382 0.16653 0.81653 0.0
C3223 C 0.81109 0.18588 0.80691 0.0
C3224 C 0.80173 0.19854 0.80768 0.0
C3225 C 0.8299 0.16339 0.80483 0.0
C3226 C 0.82687 0.17191 0.79407 0.0
C3227 C 0.81717 0.18272 0.7952 0.0
C3228 C 0.83429 0.17029 0.78162 0.0
C3229 C 0.83941 0.15087 0.80408 0.0
C3230 C 0.85467 0.17824 0.77968 0.0
C3231 C 0.86173 0.17665 0.768 0.0
C3232 C 0.84855 0.16715 0.75798 0.0
C3233 C 0.82813 0.15948 0.75992 0.0
C3234 C 0.82108 0.16111 0.77162 0.0
H3235 H 0.83583 0.1413 0.81237 0.0
H3236 H 0.83457 0.14165 0.79551 0.0
H3237 H 0.85574 0.16039 0.80374 0.0
H3238 H 0.86515 0.18578 0.7872 0.0
H3239 H 0.87756 0.18307 0.76677 0.0
H3240 H 0.30999 0.13339 0.48749 0.0
H3241 H 0.32325 0.13936 0.50881 0.0
H3242 H 0.28802 0.16556 0.5183 0.0
H3243 H 0.2741 0.159 0.4971 0.0
H3244 H 0.34442 0.17466 0.52148 0.0
H3245 H 0.2742 0.12533 0.54592 0.0
H3246 H 0.27691 0.1244 0.52921 0.0
H3247 H 0.27317 0.14306 0.53603 0.0
C3248 C 0.30484 0.14019 0.49415 0.0
C3249 C 0.29086 0.14558 0.49062 0.0
C3250 C 0.31255 0.14371 0.5063 0.0
C3251 C 0.30639 0.15263 0.51517 0.0
C3252 C 0.29268 0.15833 0.51165 0.0
H3253 H 0.34017 0.18499 0.59318 0.0
H3254 H 0.32589 0.18063 0.57216 0.0
C3255 C 0.28493 0.15478 0.4995 0.0
C3256 C 0.31467 0.15627 0.52803 0.0
H3257 H 0.30222 0.14488 0.55867 0.0
C3258 C 0.33521 0.16814 0.52961 0.0
C3259 C 0.30258 0.14776 0.53861 0.0
C3260 C 0.28051 0.13429 0.53741 0.0
C3261 C 0.34401 0.17181 0.54152 0.0
C3262 C 0.33195 0.16314 0.55208 0.0
C3263 C 0.31139 0.15149 0.55053 0.0
C3264 C 0.34049 0.16565 0.56479 0.0
C3265 C 0.36611 0.18508 0.54274 0.0
C3266 C 0.35316 0.15839 0.56762 0.0
C3267 C 0.36122 0.16072 0.57961 0.0
C3268 C 0.3567 0.17031 0.58903 0.0
C3269 C 0.3438 0.17737 0.58618 0.0
C3270 C 0.33571 0.17499 0.57417 0.0
H3271 H 0.37244 0.19428 0.53432 0.0
H3272 H 0.36983 0.1947 0.55109 0.0
H3273 H 0.3733 0.17612 0.54387 0.0
H3274 H 0.35669 0.15078 0.56055 0.0
H3275 H 0.37079 0.15478 0.58156 0.0
H3276 H 0.83696 0.12967 0.48774 0.0
H3277 H 0.82868 0.13527 0.5088 0.0
H3278 H 0.88996 0.16097 0.51991 0.0
H3279 H 0.89839 0.15522 0.49886 0.0
H3280 H 0.83489 0.12077 0.53152 0.0
H3281 H 0.87483 0.20172 0.53104 0.0
H3282 H 0.86928 0.18727 0.51692 0.0
H3283 H 0.88933 0.19067 0.52692 0.0
C3284 C 0.8487 0.13643 0.49466 0.0
C3285 C 0.86835 0.14196 0.4916 0.0
C3286 C 0.84394 0.13971 0.50668 0.0
C3287 C 0.85872 0.14871 0.51587 0.0
C3288 C 0.87838 0.15433 0.51288 0.0
H3289 H 0.85212 0.17878 0.59377 0.0
H3290 H 0.86342 0.17361 0.57352 0.0
C3291 C 0.88316 0.15104 0.50084 0.0
C3292 C 0.85334 0.1516 0.52868 0.0
H3293 H 0.85966 0.18649 0.55001 0.0
C3294 C 0.8403 0.13513 0.53557 0.0
C3295 C 0.86053 0.17036 0.53396 0.0
C3296 C 0.87415 0.18856 0.52682 0.0
C3297 C 0.83423 0.13689 0.54762 0.0
C3298 C 0.84108 0.15565 0.55281 0.0
C3299 C 0.8544 0.17212 0.546 0.0
C3300 C 0.83418 0.15849 0.56514 0.0
C3301 C 0.82074 0.11862 0.55475 0.0
C3302 C 0.81402 0.15188 0.56711 0.0
C3303 C 0.80749 0.15469 0.57869 0.0
C3304 C 0.82103 0.1643 0.58852 0.0
C3305 C 0.84126 0.17106 0.58647 0.0
C3306 C 0.84777 0.16824 0.57488 0.0
H3307 H 0.82149 0.10585 0.55111 0.0
H3308 H 0.82456 0.12042 0.56487 0.0
H3309 H 0.80522 0.11541 0.55371 0.0
H3310 H 0.80331 0.14464 0.55966 0.0
H3311 H 0.7918 0.14915 0.57996 0.0
H3312 H 0.89737 0.75051 0.49963 0.0
H3313 H 0.88904 0.73521 0.52027 0.0
H3314 H 0.8278 0.70101 0.50899 0.0
H3315 H 0.83605 0.71568 0.48826 0.0
H3316 H 0.86284 0.73502 0.53808 0.0
H3317 H 0.83969 0.65986 0.5224 0.0
H3318 H 0.85336 0.68077 0.51251 0.0
H3319 H 0.82705 0.67033 0.51432 0.0
C3320 C 0.88217 0.73954 0.50149 0.0
C3321 C 0.8674 0.73429 0.49224 0.0
C3322 C 0.87741 0.73092 0.51332 0.0
C3323 C 0.85785 0.71676 0.51612 0.0
C3324 C 0.84306 0.71163 0.50697 0.0
H3325 H 0.79226 0.64842 0.57953 0.0
H3326 H 0.80377 0.66507 0.55953 0.0
C3327 C 0.84778 0.72023 0.49516 0.0
C3328 C 0.85274 0.70756 0.52866 0.0
H3329 H 0.83148 0.66352 0.5433 0.0
C3330 C 0.85615 0.71941 0.53925 0.0
C3331 C 0.84406 0.68719 0.53018 0.0
C3332 C 0.84099 0.6738 0.51927 0.0
C3333 C 0.85048 0.71136 0.55126 0.0
C3334 C 0.84142 0.69095 0.55272 0.0
C3335 C 0.83833 0.67916 0.54216 0.0
C3336 C 0.83461 0.68142 0.56507 0.0
C3337 C 0.85368 0.72469 0.56223 0.0
C3338 C 0.84814 0.68502 0.57483 0.0
C3339 C 0.84162 0.67541 0.58628 0.0
C3340 C 0.82144 0.66192 0.58817 0.0
C3341 C 0.80794 0.65848 0.57836 0.0
C3342 C 0.81447 0.66807 0.56694 0.0
H3343 H 0.85665 0.73928 0.55917 0.0
H3344 H 0.84057 0.71829 0.56844 0.0
H3345 H 0.86662 0.72666 0.56777 0.0
H3346 H 0.86381 0.69499 0.57351 0.0
H3347 H 0.85247 0.6782 0.59353 0.0
loop_
_geom_bond_atom_site_label_1
_geom_bond_atom_site_label_2
_geom_bond_distance
_geom_bond_site_symmetry_2
_ccdc_geom_bond_type
C0 C1 1.384 . S
C0 H13 0.947 . S
C0 C35 1.382 . S
C1 C0 1.384 . S
C1 C2 1.378 . S
C2 C1 1.378 . S
C2 C3 1.378 . S
C2 H14 0.952 . S
C3 C2 1.378 . S
C3 H15 0.950 . S
C3 C34 1.383 . S
H4 C23 0.947 . S
H5 C24 0.946 . S
H6 C26 0.953 . S
H7 C27 0.945 . S
H8 C29 0.952 . S
H9 C30 0.949 . S
H10 C32 0.950 . S
H11 C33 0.948 . S
H12 C35 0.951 . S
H13 C0 0.947 . S
H14 C2 0.952 . S
H15 C3 0.950 . S
N16 C19 1.382 . S
N16 C21 1.363 . S
N17 C19 1.371 . S
N17 C20 1.372 . S
N18 C20 1.361 . S
N18 C21 1.377 . S
C19 N16 1.382 . S
C19 N17 1.371 . S
C19 C22 1.480 . S
C20 N17 1.372 . S
C20 N18 1.361 . S
C20 C28 1.457 . S
C21 N16 1.363 . S
C21 N18 1.377 . S
C21 C34 1.479 . S
C22 C19 1.480 . S
C22 C23 1.383 . S
C22 C27 1.385 . S
C23 H4 0.947 . S
C23 C22 1.383 . S
C23 C24 1.388 . S
C24 H5 0.946 . S
C24 C23 1.388 . S
C24 C25 1.384 . S
C25 C24 1.384 . S
C25 C26 1.377 . S
C26 H6 0.953 . S
C26 C25 1.377 . S
C26 C27 1.369 . S
C27 H7 0.945 . S
C27 C22 1.385 . S
C27 C26 1.369 . S
C28 C20 1.457 . S
C28 C29 1.372 . S
C28 C33 1.364 . S
C29 H8 0.952 . S
C29 C28 1.372 . S
C29 C30 1.389 . S
C30 H9 0.949 . S
C30 C29 1.389 . S
C30 C31 1.387 . S
C31 C30 1.387 . S
C31 C32 1.372 . S
C32 H10 0.950 . S
C32 C31 1.372 . S
C32 C33 1.379 . S
C33 H11 0.948 . S
C33 C28 1.364 . S
C33 C32 1.379 . S
C34 C3 1.383 . S
C34 C21 1.479 . S
C34 C35 1.398 . S
C35 C0 1.382 . S
C35 H12 0.951 . S
C35 C34 1.398 . S
C36 C37 1.384 . S
C36 H49 0.947 . S
C36 C71 1.382 . S
C37 C36 1.384 . S
C37 C38 1.378 . S
C38 C37 1.378 . S
C38 C39 1.378 . S
C38 H50 0.952 . S
C39 C38 1.378 . S
C39 H51 0.950 . S
C39 C70 1.383 . S
H40 C59 0.947 . S
H41 C60 0.946 . S
H42 C62 0.953 . S
H43 C63 0.945 . S
H44 C65 0.952 . S
H45 C66 0.949 . S
H46 C68 0.950 . S
H47 C69 0.948 . S
H48 C71 0.951 . S
H49 C36 0.947 . S
H50 C38 0.952 . S
H51 C39 0.950 . S
N52 C55 1.382 . S
N52 C57 1.363 . S
N53 C55 1.371 . S
N53 C56 1.372 . S
N54 C56 1.361 . S
N54 C57 1.377 . S
C55 N52 1.382 . S
C55 N53 1.371 . S
C55 C58 1.480 . S
C56 N53 1.372 . S
C56 N54 1.361 . S
C56 C64 1.457 . S
C57 N52 1.363 . S
C57 N54 1.377 . S
C57 C70 1.479 . S
C58 C55 1.480 . S
C58 C59 1.383 . S
C58 C63 1.385 . S
C59 H40 0.947 . S
C59 C58 1.383 . S
C59 C60 1.388 . S
C60 H41 0.946 . S
C60 C59 1.388 . S
C60 C61 1.384 . S
C61 C60 1.384 . S
C61 C62 1.377 . S
C62 H42 0.953 . S
C62 C61 1.377 . S
C62 C63 1.369 . S
C63 H43 0.945 . S
C63 C58 1.385 . S
C63 C62 1.369 . S
C64 C56 1.457 . S
C64 C65 1.372 . S
C64 C69 1.364 . S
C65 H44 0.952 . S
C65 C64 1.372 . S
C65 C66 1.389 . S
C66 H45 0.949 . S
C66 C65 1.389 . S
C66 C67 1.387 . S
C67 C66 1.387 . S
C67 C68 1.372 . S
C68 H46 0.950 . S
C68 C67 1.372 . S
C68 C69 1.379 . S
C69 H47 0.948 . S
C69 C64 1.364 . S
C69 C68 1.379 . S
C70 C39 1.383 . S
C70 C57 1.479 . S
C70 C71 1.398 . S
C71 C36 1.382 . S
C71 H48 0.951 . S
C71 C70 1.398 . S
C72 C73 1.384 . S
C72 H85 0.947 . S
C72 C107 1.382 . S
C73 C72 1.384 . S
C73 C74 1.378 . S
C74 C73 1.378 . S
C74 C75 1.378 . S
C74 H86 0.952 . S
C75 C74 1.378 . S
C75 H87 0.950 . S
C75 C106 1.383 . S
H76 C95 0.947 . S
H77 C96 0.946 . S
H78 C98 0.953 . S
H79 C99 0.945 . S
H80 C101 0.952 . S
H81 C102 0.949 . S
H82 C104 0.950 . S
H83 C105 0.948 . S
H84 C107 0.951 . S
H85 C72 0.947 . S
H86 C74 0.952 . S
H87 C75 0.950 . S
N88 C91 1.382 . S
N88 C93 1.363 . S
N89 C91 1.371 . S
N89 C92 1.372 . S
N90 C92 1.361 . S
N90 C93 1.377 . S
C91 N88 1.382 . S
C91 N89 1.371 . S
C91 C94 1.480 . S
C92 N89 1.372 . S
C92 N90 1.361 . S
C92 C100 1.457 . S
C93 N88 1.363 . S
C93 N90 1.377 . S
C93 C106 1.479 . S
C94 C91 1.480 . S
C94 C95 1.383 . S
C94 C99 1.385 . S
C95 H76 0.947 . S
C95 C94 1.383 . S
C95 C96 1.388 . S
C96 H77 0.946 . S
C96 C95 1.388 . S
C96 C97 1.384 . S
C97 C96 1.384 . S
C97 C98 1.377 . S
C98 H78 0.953 . S
C98 C97 1.377 . S
C98 C99 1.369 . S
C99 H79 0.945 . S
C99 C94 1.385 . S
C99 C98 1.369 . S
C100 C92 1.457 . S
C100 C101 1.372 . S
C100 C105 1.364 . S
C101 H80 0.952 . S
C101 C100 1.372 . S
C101 C102 1.389 . S
C102 H81 0.949 . S
C102 C101 1.389 . S
C102 C103 1.387 . S
C103 C102 1.387 . S
C103 C104 1.372 . S
C104 H82 0.950 . S
C104 C103 1.372 . S
C104 C105 1.379 . S
C105 H83 0.948 . S
C105 C100 1.364 . S
C105 C104 1.379 . S
C106 C75 1.383 . S
C106 C93 1.479 . S
C106 C107 1.398 . S
C107 C72 1.382 . S
C107 H84 0.951 . S
C107 C106 1.398 . S
C108 C109 1.384 . S
C108 H121 0.947 . S
C108 C143 1.382 . S
C109 C108 1.384 . S
C109 C110 1.378 . S
C110 C109 1.378 . S
C110 C111 1.378 . S
C110 H122 0.952 . S
C111 C110 1.378 . S
C111 H123 0.950 . S
C111 C142 1.383 . S
H112 C131 0.947 . S
H113 C132 0.946 . S
H114 C134 0.953 . S
H115 C135 0.945 . S
H116 C137 0.952 . S
H117 C138 0.949 . S
H118 C140 0.950 . S
H119 C141 0.948 . S
H120 C143 0.951 . S
H121 C108 0.947 . S
H122 C110 0.952 . S
H123 C111 0.950 . S
N124 C127 1.382 . S
N124 C129 1.363 . S
N125 C127 1.371 . S
N125 C128 1.372 . S
N126 C128 1.361 . S
N126 C129 1.377 . S
C127 N124 1.382 . S
C127 N125 1.371 . S
C127 C130 1.480 . S
C128 N125 1.372 . S
C128 N126 1.361 . S
C128 C136 1.457 . S
C129 N124 1.363 . S
C129 N126 1.377 . S
C129 C142 1.479 . S
C130 C127 1.480 . S
C130 C131 1.383 . S
C130 C135 1.385 . S
C131 H112 0.947 . S
C131 C130 1.383 . S
C131 C132 1.388 . S
C132 H113 0.946 . S
C132 C131 1.388 . S
C132 C133 1.384 . S
C133 C132 1.384 . S
C133 C134 1.377 . S
C134 H114 0.953 . S
C134 C133 1.377 . S
C134 C135 1.369 . S
C135 H115 0.945 . S
C135 C130 1.385 . S
C135 C134 1.369 . S
C136 C128 1.457 . S
C136 C137 1.372 . S
C136 C141 1.364 . S
C137 H116 0.952 . S
C137 C136 1.372 . S
C137 C138 1.389 . S
C138 H117 0.949 . S
C138 C137 1.389 . S
C138 C139 1.387 . S
C139 C138 1.387 . S
C139 C140 1.372 . S
C140 H118 0.950 . S
C140 C139 1.372 . S
C140 C141 1.379 . S
C141 H119 0.948 . S
C141 C136 1.364 . S
C141 C140 1.379 . S
C142 C111 1.383 . S
C142 C129 1.479 . S
C142 C143 1.398 . S
C143 C108 1.382 . S
C143 H120 0.951 . S
C143 C142 1.398 . S
C144 C145 1.384 . S
C144 H157 0.947 . S
C144 C179 1.382 . S
C145 C144 1.384 . S
C145 C146 1.378 . S
C146 C145 1.378 . S
C146 C147 1.378 . S
C146 H158 0.952 . S
C147 C146 1.378 . S
C147 H159 0.950 . S
C147 C178 1.383 . S
H148 C167 0.947 . S
H149 C168 0.946 . S
H150 C170 0.953 . S
H151 C171 0.945 . S
H152 C173 0.952 . S
H153 C174 0.949 . S
H154 C176 0.950 . S
H155 C177 0.948 . S
H156 C179 0.951 . S
H157 C144 0.947 . S
H158 C146 0.952 . S
H159 C147 0.950 . S
N160 C163 1.382 . S
N160 C165 1.363 . S
N161 C163 1.371 . S
N161 C164 1.372 . S
N162 C164 1.361 . S
N162 C165 1.377 . S
C163 N160 1.382 . S
C163 N161 1.371 . S
C163 C166 1.480 . S
C164 N161 1.372 . S
C164 N162 1.361 . S
C164 C172 1.457 . S
C165 N160 1.363 . S
C165 N162 1.377 . S
C165 C178 1.479 . S
C166 C163 1.480 . S
C166 C167 1.383 . S
C166 C171 1.385 . S
C167 H148 0.947 . S
C167 C166 1.383 . S
C167 C168 1.388 . S
C168 H149 0.946 . S
C168 C167 1.388 . S
C168 C169 1.384 . S
C169 C168 1.384 . S
C169 C170 1.377 . S
C170 H150 0.953 . S
C170 C169 1.377 . S
C170 C171 1.369 . S
C171 H151 0.945 . S
C171 C166 1.385 . S
C171 C170 1.369 . S
C172 C164 1.457 . S
C172 C173 1.372 . S
C172 C177 1.364 . S
C173 H152 0.952 . S
C173 C172 1.372 . S
C173 C174 1.389 . S
C174 H153 0.949 . S
C174 C173 1.389 . S
C174 C175 1.387 . S
C175 C174 1.387 . S
C175 C176 1.372 . S
C176 H154 0.950 . S
C176 C175 1.372 . S
C176 C177 1.379 . S
C177 H155 0.948 . S
C177 C172 1.364 . S
C177 C176 1.379 . S
C178 C147 1.383 . S
C178 C165 1.479 . S
C178 C179 1.398 . S
C179 C144 1.382 . S
C179 H156 0.951 . S
C179 C178 1.398 . S
C180 C181 1.384 . S
C180 H193 0.947 . S
C180 C215 1.382 . S
C181 C180 1.384 . S
C181 C182 1.378 . S
C182 C181 1.378 . S
C182 C183 1.378 . S
C182 H194 0.952 . S
C183 C182 1.378 . S
C183 H195 0.950 . S
C183 C214 1.383 . S
H184 C203 0.947 . S
H185 C204 0.946 . S
H186 C206 0.953 . S
H187 C207 0.945 . S
H188 C209 0.952 . S
H189 C210 0.949 . S
H190 C212 0.950 . S
H191 C213 0.948 . S
H192 C215 0.951 . S
H193 C180 0.947 . S
H194 C182 0.952 . S
H195 C183 0.950 . S
N196 C199 1.382 . S
N196 C201 1.363 . S
N197 C199 1.371 . S
N197 C200 1.372 . S
N198 C200 1.361 . S
N198 C201 1.377 . S
C199 N196 1.382 . S
C199 N197 1.371 . S
C199 C202 1.480 . S
C200 N197 1.372 . S
C200 N198 1.361 . S
C200 C208 1.457 . S
C201 N196 1.363 . S
C201 N198 1.377 . S
C201 C214 1.479 . S
C202 C199 1.480 . S
C202 C203 1.383 . S
C202 C207 1.385 . S
C203 H184 0.947 . S
C203 C202 1.383 . S
C203 C204 1.388 . S
C204 H185 0.946 . S
C204 C203 1.388 . S
C204 C205 1.384 . S
C205 C204 1.384 . S
C205 C206 1.377 . S
C206 H186 0.953 . S
C206 C205 1.377 . S
C206 C207 1.369 . S
C207 H187 0.945 . S
C207 C202 1.385 . S
C207 C206 1.369 . S
C208 C200 1.457 . S
C208 C209 1.372 . S
C208 C213 1.364 . S
C209 H188 0.952 . S
C209 C208 1.372 . S
C209 C210 1.389 . S
C210 H189 0.949 . S
C210 C209 1.389 . S
C210 C211 1.387 . S
C211 C210 1.387 . S
C211 C212 1.372 . S
C212 H190 0.950 . S
C212 C211 1.372 . S
C212 C213 1.379 . S
C213 H191 0.948 . S
C213 C208 1.364 . S
C213 C212 1.379 . S
C214 C183 1.383 . S
C214 C201 1.479 . S
C214 C215 1.398 . S
C215 C180 1.382 . S
C215 H192 0.951 . S
C215 C214 1.398 . S
C216 C217 1.384 . S
C216 H229 0.947 . S
C216 C251 1.382 . S
C217 C216 1.384 . S
C217 C218 1.378 . S
C218 C217 1.378 . S
C218 C219 1.378 . S
C218 H230 0.952 . S
C219 C218 1.378 . S
C219 H231 0.950 . S
C219 C250 1.383 . S
H220 C239 0.947 . S
H221 C240 0.946 . S
H222 C242 0.953 . S
H223 C243 0.945 . S
H224 C245 0.952 . S
H225 C246 0.949 . S
H226 C248 0.950 . S
H227 C249 0.948 . S
H228 C251 0.951 . S
H229 C216 0.947 . S
H230 C218 0.952 . S
H231 C219 0.950 . S
N232 C235 1.382 . S
N232 C237 1.363 . S
N233 C235 1.371 . S
N233 C236 1.372 . S
N234 C236 1.361 . S
N234 C237 1.377 . S
C235 N232 1.382 . S
C235 N233 1.371 . S
C235 C238 1.480 . S
C236 N233 1.372 . S
C236 N234 1.361 . S
C236 C244 1.457 . S
C237 N232 1.363 . S
C237 N234 1.377 . S
C237 C250 1.479 . S
C238 C235 1.480 . S
C238 C239 1.383 . S
C238 C243 1.385 . S
C239 H220 0.947 . S
C239 C238 1.383 . S
C239 C240 1.388 . S
C240 H221 0.946 . S
C240 C239 1.388 . S
C240 C241 1.384 . S
C241 C240 1.384 . S
C241 C242 1.377 . S
C242 H222 0.953 . S
C242 C241 1.377 . S
C242 C243 1.369 . S
C243 H223 0.945 . S
C243 C238 1.385 . S
C243 C242 1.369 . S
C244 C236 1.457 . S
C244 C245 1.372 . S
C244 C249 1.364 . S
C245 H224 0.952 . S
C245 C244 1.372 . S
C245 C246 1.389 . S
C246 H225 0.949 . S
C246 C245 1.389 . S
C246 C247 1.387 . S
C247 C246 1.387 . S
C247 C248 1.372 . S
C248 H226 0.950 . S
C248 C247 1.372 . S
C248 C249 1.379 . S
C249 H227 0.948 . S
C249 C244 1.364 . S
C249 C248 1.379 . S
C250 C219 1.383 . S
C250 C237 1.479 . S
C250 C251 1.398 . S
C251 C216 1.382 . S
C251 H228 0.951 . S
C251 C250 1.398 . S
C252 C253 1.384 . S
C252 H265 0.947 . S
C252 C287 1.382 . S
C253 C252 1.384 . S
C253 C254 1.378 . S
C254 C253 1.378 . S
C254 C255 1.378 . S
C254 H266 0.952 . S
C255 C254 1.378 . S
C255 H267 0.950 . S
C255 C286 1.383 . S
H256 C275 0.947 . S
H257 C276 0.946 . S
H258 C278 0.953 . S
H259 C279 0.945 . S
H260 C281 0.952 . S
H261 C282 0.949 . S
H262 C284 0.950 . S
H263 C285 0.948 . S
H264 C287 0.951 . S
H265 C252 0.947 . S
H266 C254 0.952 . S
H267 C255 0.950 . S
N268 C271 1.382 . S
N268 C273 1.363 . S
N269 C271 1.371 . S
N269 C272 1.372 . S
N270 C272 1.361 . S
N270 C273 1.377 . S
C271 N268 1.382 . S
C271 N269 1.371 . S
C271 C274 1.480 . S
C272 N269 1.372 . S
C272 N270 1.361 . S
C272 C280 1.457 . S
C273 N268 1.363 . S
C273 N270 1.377 . S
C273 C286 1.479 . S
C274 C271 1.480 . S
C274 C275 1.383 . S
C274 C279 1.385 . S
C275 H256 0.947 . S
C275 C274 1.383 . S
C275 C276 1.388 . S
C276 H257 0.946 . S
C276 C275 1.388 . S
C276 C277 1.384 . S
C277 C276 1.384 . S
C277 C278 1.377 . S
C278 H258 0.953 . S
C278 C277 1.377 . S
C278 C279 1.369 . S
C279 H259 0.945 . S
C279 C274 1.385 . S
C279 C278 1.369 . S
C280 C272 1.457 . S
C280 C281 1.372 . S
C280 C285 1.364 . S
C281 H260 0.952 . S
C281 C280 1.372 . S
C281 C282 1.389 . S
C282 H261 0.949 . S
C282 C281 1.389 . S
C282 C283 1.387 . S
C283 C282 1.387 . S
C283 C284 1.372 . S
C284 H262 0.950 . S
C284 C283 1.372 . S
C284 C285 1.379 . S
C285 H263 0.948 . S
C285 C280 1.364 . S
C285 C284 1.379 . S
C286 C255 1.383 . S
C286 C273 1.479 . S
C286 C287 1.398 . S
C287 C252 1.382 . S
C287 H264 0.951 . S
C287 C286 1.398 . S
C288 C289 1.384 . S
C288 H301 0.947 . S
C288 C323 1.382 . S
C289 C288 1.384 . S
C289 C290 1.378 . S
C290 C289 1.378 . S
C290 C291 1.378 . S
C290 H302 0.952 . S
C291 C290 1.378 . S
C291 H303 0.950 . S
C291 C322 1.383 . S
H292 C311 0.947 . S
H293 C312 0.946 . S
H294 C314 0.953 . S
H295 C315 0.945 . S
H296 C317 0.952 . S
H297 C318 0.949 . S
H298 C320 0.950 . S
H299 C321 0.948 . S
H300 C323 0.951 . S
H301 C288 0.947 . S
H302 C290 0.952 . S
H303 C291 0.950 . S
N304 C307 1.382 . S
N304 C309 1.363 . S
N305 C307 1.371 . S
N305 C308 1.372 . S
N306 C308 1.361 . S
N306 C309 1.377 . S
C307 N304 1.382 . S
C307 N305 1.371 . S
C307 C310 1.480 . S
C308 N305 1.372 . S
C308 N306 1.361 . S
C308 C316 1.457 . S
C309 N304 1.363 . S
C309 N306 1.377 . S
C309 C322 1.479 . S
C310 C307 1.480 . S
C310 C311 1.383 . S
C310 C315 1.385 . S
C311 H292 0.947 . S
C311 C310 1.383 . S
C311 C312 1.388 . S
C312 H293 0.946 . S
C312 C311 1.388 . S
C312 C313 1.384 . S
C313 C312 1.384 . S
C313 C314 1.377 . S
C314 H294 0.953 . S
C314 C313 1.377 . S
C314 C315 1.369 . S
C315 H295 0.945 . S
C315 C310 1.385 . S
C315 C314 1.369 . S
C316 C308 1.457 . S
C316 C317 1.372 . S
C316 C321 1.364 . S
C317 H296 0.952 . S
C317 C316 1.372 . S
C317 C318 1.389 . S
C318 H297 0.949 . S
C318 C317 1.389 . S
C318 C319 1.387 . S
C319 C318 1.387 . S
C319 C320 1.372 . S
C320 H298 0.950 . S
C320 C319 1.372 . S
C320 C321 1.379 . S
C321 H299 0.948 . S
C321 C316 1.364 . S
C321 C320 1.379 . S
C322 C291 1.383 . S
C322 C309 1.479 . S
C322 C323 1.398 . S
C323 C288 1.382 . S
C323 H300 0.951 . S
C323 C322 1.398 . S
C324 C325 1.384 . S
C324 H337 0.947 . S
C324 C359 1.382 . S
C325 C324 1.384 . S
C325 C326 1.378 . S
C326 C325 1.378 . S
C326 C327 1.378 . S
C326 H338 0.952 . S
C327 C326 1.378 . S
C327 H339 0.950 . S
C327 C358 1.383 . S
H328 C347 0.947 . S
H329 C348 0.946 . S
H330 C350 0.953 . S
H331 C351 0.945 . S
H332 C353 0.952 . S
H333 C354 0.949 . S
H334 C356 0.950 . S
H335 C357 0.948 . S
H336 C359 0.951 . S
H337 C324 0.947 . S
H338 C326 0.952 . S
H339 C327 0.950 . S
N340 C343 1.382 . S
N340 C345 1.363 . S
N341 C343 1.371 . S
N341 C344 1.372 . S
N342 C344 1.361 . S
N342 C345 1.377 . S
C343 N340 1.382 . S
C343 N341 1.371 . S
C343 C346 1.480 . S
C344 N341 1.372 . S
C344 N342 1.361 . S
C344 C352 1.457 . S
C345 N340 1.363 . S
C345 N342 1.377 . S
C345 C358 1.479 . S
C346 C343 1.480 . S
C346 C347 1.383 . S
C346 C351 1.385 . S
C347 H328 0.947 . S
C347 C346 1.383 . S
C347 C348 1.388 . S
C348 H329 0.946 . S
C348 C347 1.388 . S
C348 C349 1.384 . S
C349 C348 1.384 . S
C349 C350 1.377 . S
C350 H330 0.953 . S
C350 C349 1.377 . S
C350 C351 1.369 . S
C351 H331 0.945 . S
C351 C346 1.385 . S
C351 C350 1.369 . S
C352 C344 1.457 . S
C352 C353 1.372 . S
C352 C357 1.364 . S
C353 H332 0.952 . S
C353 C352 1.372 . S
C353 C354 1.389 . S
C354 H333 0.949 . S
C354 C353 1.389 . S
C354 C355 1.387 . S
C355 C354 1.387 . S
C355 C356 1.372 . S
C356 H334 0.950 . S
C356 C355 1.372 . S
C356 C357 1.379 . S
C357 H335 0.948 . S
C357 C352 1.364 . S
C357 C356 1.379 . S
C358 C327 1.383 . S
C358 C345 1.479 . S
C358 C359 1.398 . S
C359 C324 1.382 . S
C359 H336 0.951 . S
C359 C358 1.398 . S
C360 C361 1.384 . S
C360 H373 0.947 . S
C360 C395 1.382 . S
C361 C360 1.384 . S
C361 C362 1.378 . S
C362 C361 1.378 . S
C362 C363 1.378 . S
C362 H374 0.952 . S
C363 C362 1.378 . S
C363 H375 0.950 . S
C363 C394 1.383 . S
H364 C383 0.947 . S
H365 C384 0.946 . S
H366 C386 0.953 . S
H367 C387 0.945 . S
H368 C389 0.952 . S
H369 C390 0.949 . S
H370 C392 0.950 . S
H371 C393 0.948 . S
H372 C395 0.951 . S
H373 C360 0.947 . S
H374 C362 0.952 . S
H375 C363 0.950 . S
N376 C379 1.382 . S
N376 C381 1.363 . S
N377 C379 1.371 . S
N377 C380 1.372 . S
N378 C380 1.361 . S
N378 C381 1.377 . S
C379 N376 1.382 . S
C379 N377 1.371 . S
C379 C382 1.480 . S
C380 N377 1.372 . S
C380 N378 1.361 . S
C380 C388 1.457 . S
C381 N376 1.363 . S
C381 N378 1.377 . S
C381 C394 1.479 . S
C382 C379 1.480 . S
C382 C383 1.383 . S
C382 C387 1.385 . S
C383 H364 0.947 . S
C383 C382 1.383 . S
C383 C384 1.388 . S
C384 H365 0.946 . S
C384 C383 1.388 . S
C384 C385 1.384 . S
C385 C384 1.384 . S
C385 C386 1.377 . S
C386 H366 0.953 . S
C386 C385 1.377 . S
C386 C387 1.369 . S
C387 H367 0.945 . S
C387 C382 1.385 . S
C387 C386 1.369 . S
C388 C380 1.457 . S
C388 C389 1.372 . S
C388 C393 1.364 . S
C389 H368 0.952 . S
C389 C388 1.372 . S
C389 C390 1.389 . S
C390 H369 0.949 . S
C390 C389 1.389 . S
C390 C391 1.387 . S
C391 C390 1.387 . S
C391 C392 1.372 . S
C392 H370 0.950 . S
C392 C391 1.372 . S
C392 C393 1.379 . S
C393 H371 0.948 . S
C393 C388 1.364 . S
C393 C392 1.379 . S
C394 C363 1.383 . S
C394 C381 1.479 . S
C394 C395 1.398 . S
C395 C360 1.382 . S
C395 H372 0.951 . S
C395 C394 1.398 . S
C396 C397 1.384 . S
C396 H409 0.947 . S
C396 C431 1.382 . S
C397 C396 1.384 . S
C397 C398 1.378 . S
C398 C397 1.378 . S
C398 C399 1.378 . S
C398 H410 0.952 . S
C399 C398 1.378 . S
C399 H411 0.950 . S
C399 C430 1.383 . S
H400 C419 0.947 . S
H401 C420 0.946 . S
H402 C422 0.953 . S
H403 C423 0.945 . S
H404 C425 0.952 . S
H405 C426 0.949 . S
H406 C428 0.950 . S
H407 C429 0.948 . S
H408 C431 0.951 . S
H409 C396 0.947 . S
H410 C398 0.952 . S
H411 C399 0.950 . S
N412 C415 1.382 . S
N412 C417 1.363 . S
N413 C415 1.371 . S
N413 C416 1.372 . S
N414 C416 1.361 . S
N414 C417 1.377 . S
C415 N412 1.382 . S
C415 N413 1.371 . S
C415 C418 1.480 . S
C416 N413 1.372 . S
C416 N414 1.361 . S
C416 C424 1.457 . S
C417 N412 1.363 . S
C417 N414 1.377 . S
C417 C430 1.479 . S
C418 C415 1.480 . S
C418 C419 1.383 . S
C418 C423 1.385 . S
C419 H400 0.947 . S
C419 C418 1.383 . S
C419 C420 1.388 . S
C420 H401 0.946 . S
C420 C419 1.388 . S
C420 C421 1.384 . S
C421 C420 1.384 . S
C421 C422 1.377 . S
C422 H402 0.953 . S
C422 C421 1.377 . S
C422 C423 1.369 . S
C423 H403 0.945 . S
C423 C418 1.385 . S
C423 C422 1.369 . S
C424 C416 1.457 . S
C424 C425 1.372 . S
C424 C429 1.364 . S
C425 H404 0.952 . S
C425 C424 1.372 . S
C425 C426 1.389 . S
C426 H405 0.949 . S
C426 C425 1.389 . S
C426 C427 1.387 . S
C427 C426 1.387 . S
C427 C428 1.372 . S
C428 H406 0.950 . S
C428 C427 1.372 . S
C428 C429 1.379 . S
C429 H407 0.948 . S
C429 C424 1.364 . S
C429 C428 1.379 . S
C430 C399 1.383 . S
C430 C417 1.479 . S
C430 C431 1.398 . S
C431 C396 1.382 . S
C431 H408 0.951 . S
C431 C430 1.398 . S
C432 C433 1.384 . S
C432 H445 0.947 . S
C432 C467 1.382 . S
C433 C432 1.384 . S
C433 C434 1.378 . S
C434 C433 1.378 . S
C434 C435 1.378 . S
C434 H446 0.952 . S
C435 C434 1.378 . S
C435 H447 0.950 . S
C435 C466 1.383 . S
H436 C455 0.947 . S
H437 C456 0.946 . S
H438 C458 0.953 . S
H439 C459 0.945 . S
H440 C461 0.952 . S
H441 C462 0.949 . S
H442 C464 0.950 . S
H443 C465 0.948 . S
H444 C467 0.951 . S
H445 C432 0.947 . S
H446 C434 0.952 . S
H447 C435 0.950 . S
N448 C451 1.382 . S
N448 C453 1.363 . S
N449 C451 1.371 . S
N449 C452 1.372 . S
N450 C452 1.361 . S
N450 C453 1.377 . S
C451 N448 1.382 . S
C451 N449 1.371 . S
C451 C454 1.480 . S
C452 N449 1.372 . S
C452 N450 1.361 . S
C452 C460 1.457 . S
C453 N448 1.363 . S
C453 N450 1.377 . S
C453 C466 1.479 . S
C454 C451 1.480 . S
C454 C455 1.383 . S
C454 C459 1.385 . S
C455 H436 0.947 . S
C455 C454 1.383 . S
C455 C456 1.388 . S
C456 H437 0.946 . S
C456 C455 1.388 . S
C456 C457 1.384 . S
C457 C456 1.384 . S
C457 C458 1.377 . S
C458 H438 0.953 . S
C458 C457 1.377 . S
C458 C459 1.369 . S
C459 H439 0.945 . S
C459 C454 1.385 . S
C459 C458 1.369 . S
C460 C452 1.457 . S
C460 C461 1.372 . S
C460 C465 1.364 . S
C461 H440 0.952 . S
C461 C460 1.372 . S
C461 C462 1.389 . S
C462 H441 0.949 . S
C462 C461 1.389 . S
C462 C463 1.387 . S
C463 C462 1.387 . S
C463 C464 1.372 . S
C464 H442 0.950 . S
C464 C463 1.372 . S
C464 C465 1.379 . S
C465 H443 0.948 . S
C465 C460 1.364 . S
C465 C464 1.379 . S
C466 C435 1.383 . S
C466 C453 1.479 . S
C466 C467 1.398 . S
C467 C432 1.382 . S
C467 H444 0.951 . S
C467 C466 1.398 . S
C468 C469 1.384 . S
C468 H481 0.947 . S
C468 C503 1.382 . S
C469 C468 1.384 . S
C469 C470 1.378 . S
C470 C469 1.378 . S
C470 C471 1.378 . S
C470 H482 0.952 . S
C471 C470 1.378 . S
C471 H483 0.950 . S
C471 C502 1.383 . S
H472 C491 0.947 . S
H473 C492 0.946 . S
H474 C494 0.953 . S
H475 C495 0.945 . S
H476 C497 0.952 . S
H477 C498 0.949 . S
H478 C500 0.950 . S
H479 C501 0.948 . S
H480 C503 0.951 . S
H481 C468 0.947 . S
H482 C470 0.952 . S
H483 C471 0.950 . S
N484 C487 1.382 . S
N484 C489 1.363 . S
N485 C487 1.371 . S
N485 C488 1.372 . S
N486 C488 1.361 . S
N486 C489 1.377 . S
C487 N484 1.382 . S
C487 N485 1.371 . S
C487 C490 1.480 . S
C488 N485 1.372 . S
C488 N486 1.361 . S
C488 C496 1.457 . S
C489 N484 1.363 . S
C489 N486 1.377 . S
C489 C502 1.479 . S
C490 C487 1.480 . S
C490 C491 1.383 . S
C490 C495 1.385 . S
C491 H472 0.947 . S
C491 C490 1.383 . S
C491 C492 1.388 . S
C492 H473 0.946 . S
C492 C491 1.388 . S
C492 C493 1.384 . S
C493 C492 1.384 . S
C493 C494 1.377 . S
C494 H474 0.953 . S
C494 C493 1.377 . S
C494 C495 1.369 . S
C495 H475 0.945 . S
C495 C490 1.385 . S
C495 C494 1.369 . S
C496 C488 1.457 . S
C496 C497 1.372 . S
C496 C501 1.364 . S
C497 H476 0.952 . S
C497 C496 1.372 . S
C497 C498 1.389 . S
C498 H477 0.949 . S
C498 C497 1.389 . S
C498 C499 1.387 . S
C499 C498 1.387 . S
C499 C500 1.372 . S
C500 H478 0.950 . S
C500 C499 1.372 . S
C500 C501 1.379 . S
C501 H479 0.948 . S
C501 C496 1.364 . S
C501 C500 1.379 . S
C502 C471 1.383 . S
C502 C489 1.479 . S
C502 C503 1.398 . S
C503 C468 1.382 . S
C503 H480 0.951 . S
C503 C502 1.398 . S
C504 C505 1.384 . S
C504 H517 0.947 . S
C504 C539 1.382 . S
C505 C504 1.384 . S
C505 C506 1.378 . S
C506 C505 1.378 . S
C506 C507 1.378 . S
C506 H518 0.952 . S
C507 C506 1.378 . S
C507 H519 0.950 . S
C507 C538 1.383 . S
H508 C527 0.947 . S
H509 C528 0.946 . S
H510 C530 0.953 . S
H511 C531 0.945 . S
H512 C533 0.952 . S
H513 C534 0.949 . S
H514 C536 0.950 . S
H515 C537 0.948 . S
H516 C539 0.951 . S
H517 C504 0.947 . S
H518 C506 0.952 . S
H519 C507 0.950 . S
N520 C523 1.382 . S
N520 C525 1.363 . S
N521 C523 1.371 . S
N521 C524 1.372 . S
N522 C524 1.361 . S
N522 C525 1.377 . S
C523 N520 1.382 . S
C523 N521 1.371 . S
C523 C526 1.480 . S
C524 N521 1.372 . S
C524 N522 1.361 . S
C524 C532 1.457 . S
C525 N520 1.363 . S
C525 N522 1.377 . S
C525 C538 1.479 . S
C526 C523 1.480 . S
C526 C527 1.383 . S
C526 C531 1.385 . S
C527 H508 0.947 . S
C527 C526 1.383 . S
C527 C528 1.388 . S
C528 H509 0.946 . S
C528 C527 1.388 . S
C528 C529 1.384 . S
C529 C528 1.384 . S
C529 C530 1.377 . S
C530 H510 0.953 . S
C530 C529 1.377 . S
C530 C531 1.369 . S
C531 H511 0.945 . S
C531 C526 1.385 . S
C531 C530 1.369 . S
C532 C524 1.457 . S
C532 C533 1.372 . S
C532 C537 1.364 . S
C533 H512 0.952 . S
C533 C532 1.372 . S
C533 C534 1.389 . S
C534 H513 0.949 . S
C534 C533 1.389 . S
C534 C535 1.387 . S
C535 C534 1.387 . S
C535 C536 1.372 . S
C536 H514 0.950 . S
C536 C535 1.372 . S
C536 C537 1.379 . S
C537 H515 0.948 . S
C537 C532 1.364 . S
C537 C536 1.379 . S
C538 C507 1.383 . S
C538 C525 1.479 . S
C538 C539 1.398 . S
C539 C504 1.382 . S
C539 H516 0.951 . S
C539 C538 1.398 . S
C540 C541 1.384 . S
C540 H553 0.947 . S
C540 C575 1.382 . S
C541 C540 1.384 . S
C541 C542 1.378 . S
C542 C541 1.378 . S
C542 C543 1.378 . S
C542 H554 0.952 . S
C543 C542 1.378 . S
C543 H555 0.950 . S
C543 C574 1.383 . S
H544 C563 0.947 . S
H545 C564 0.946 . S
H546 C566 0.953 . S
H547 C567 0.945 . S
H548 C569 0.952 . S
H549 C570 0.949 . S
H550 C572 0.950 . S
H551 C573 0.948 . S
H552 C575 0.951 . S
H553 C540 0.947 . S
H554 C542 0.952 . S
H555 C543 0.950 . S
N556 C559 1.382 . S
N556 C561 1.363 . S
N557 C559 1.371 . S
N557 C560 1.372 . S
N558 C560 1.361 . S
N558 C561 1.377 . S
C559 N556 1.382 . S
C559 N557 1.371 . S
C559 C562 1.480 . S
C560 N557 1.372 . S
C560 N558 1.361 . S
C560 C568 1.457 . S
C561 N556 1.363 . S
C561 N558 1.377 . S
C561 C574 1.479 . S
C562 C559 1.480 . S
C562 C563 1.383 . S
C562 C567 1.385 . S
C563 H544 0.947 . S
C563 C562 1.383 . S
C563 C564 1.388 . S
C564 H545 0.946 . S
C564 C563 1.388 . S
C564 C565 1.384 . S
C565 C564 1.384 . S
C565 C566 1.377 . S
C566 H546 0.953 . S
C566 C565 1.377 . S
C566 C567 1.369 . S
C567 H547 0.945 . S
C567 C562 1.385 . S
C567 C566 1.369 . S
C568 C560 1.457 . S
C568 C569 1.372 . S
C568 C573 1.364 . S
C569 H548 0.952 . S
C569 C568 1.372 . S
C569 C570 1.389 . S
C570 H549 0.949 . S
C570 C569 1.389 . S
C570 C571 1.387 . S
C571 C570 1.387 . S
C571 C572 1.372 . S
C572 H550 0.950 . S
C572 C571 1.372 . S
C572 C573 1.379 . S
C573 H551 0.948 . S
C573 C568 1.364 . S
C573 C572 1.379 . S
C574 C543 1.383 . S
C574 C561 1.479 . S
C574 C575 1.398 . S
C575 C540 1.382 . S
C575 H552 0.951 . S
C575 C574 1.398 . S
C576 C577 1.384 . S
C576 H589 0.947 . S
C576 C611 1.382 . S
C577 C576 1.384 . S
C577 C578 1.378 . S
C578 C577 1.378 . S
C578 C579 1.378 . S
C578 H590 0.952 . S
C579 C578 1.378 . S
C579 H591 0.950 . S
C579 C610 1.383 . S
H580 C599 0.947 . S
H581 C600 0.946 . S
H582 C602 0.953 . S
H583 C603 0.945 . S
H584 C605 0.952 . S
H585 C606 0.949 . S
H586 C608 0.950 . S
H587 C609 0.948 . S
H588 C611 0.951 . S
H589 C576 0.947 . S
H590 C578 0.952 . S
H591 C579 0.950 . S
N592 C595 1.382 . S
N592 C597 1.363 . S
N593 C595 1.371 . S
N593 C596 1.372 . S
N594 C596 1.361 . S
N594 C597 1.377 . S
C595 N592 1.382 . S
C595 N593 1.371 . S
C595 C598 1.480 . S
C596 N593 1.372 . S
C596 N594 1.361 . S
C596 C604 1.457 . S
C597 N592 1.363 . S
C597 N594 1.377 . S
C597 C610 1.479 . S
C598 C595 1.480 . S
C598 C599 1.383 . S
C598 C603 1.385 . S
C599 H580 0.947 . S
C599 C598 1.383 . S
C599 C600 1.388 . S
C600 H581 0.946 . S
C600 C599 1.388 . S
C600 C601 1.384 . S
C601 C600 1.384 . S
C601 C602 1.377 . S
C602 H582 0.953 . S
C602 C601 1.377 . S
C602 C603 1.369 . S
C603 H583 0.945 . S
C603 C598 1.385 . S
C603 C602 1.369 . S
C604 C596 1.457 . S
C604 C605 1.372 . S
C604 C609 1.364 . S
C605 H584 0.952 . S
C605 C604 1.372 . S
C605 C606 1.389 . S
C606 H585 0.949 . S
C606 C605 1.389 . S
C606 C607 1.387 . S
C607 C606 1.387 . S
C607 C608 1.372 . S
C608 H586 0.950 . S
C608 C607 1.372 . S
C608 C609 1.379 . S
C609 H587 0.948 . S
C609 C604 1.364 . S
C609 C608 1.379 . S
C610 C579 1.383 . S
C610 C597 1.479 . S
C610 C611 1.398 . S
C611 C576 1.382 . S
C611 H588 0.951 . S
C611 C610 1.398 . S
C612 C613 1.384 . S
C612 H625 0.947 . S
C612 C647 1.382 . S
C613 C612 1.384 . S
C613 C614 1.378 . S
C614 C613 1.378 . S
C614 C615 1.378 . S
C614 H626 0.952 . S
C615 C614 1.378 . S
C615 H627 0.950 . S
C615 C646 1.383 . S
H616 C635 0.947 . S
H617 C636 0.946 . S
H618 C638 0.953 . S
H619 C639 0.945 . S
H620 C641 0.952 . S
H621 C642 0.949 . S
H622 C644 0.950 . S
H623 C645 0.948 . S
H624 C647 0.951 . S
H625 C612 0.947 . S
H626 C614 0.952 . S
H627 C615 0.950 . S
N628 C631 1.382 . S
N628 C633 1.363 . S
N629 C631 1.371 . S
N629 C632 1.372 . S
N630 C632 1.361 . S
N630 C633 1.377 . S
C631 N628 1.382 . S
C631 N629 1.371 . S
C631 C634 1.480 . S
C632 N629 1.372 . S
C632 N630 1.361 . S
C632 C640 1.457 . S
C633 N628 1.363 . S
C633 N630 1.377 . S
C633 C646 1.479 . S
C634 C631 1.480 . S
C634 C635 1.383 . S
C634 C639 1.385 . S
C635 H616 0.947 . S
C635 C634 1.383 . S
C635 C636 1.388 . S
C636 H617 0.946 . S
C636 C635 1.388 . S
C636 C637 1.384 . S
C637 C636 1.384 . S
C637 C638 1.377 . S
C638 H618 0.953 . S
C638 C637 1.377 . S
C638 C639 1.369 . S
C639 H619 0.945 . S
C639 C634 1.385 . S
C639 C638 1.369 . S
C640 C632 1.457 . S
C640 C641 1.372 . S
C640 C645 1.364 . S
C641 H620 0.952 . S
C641 C640 1.372 . S
C641 C642 1.389 . S
C642 H621 0.949 . S
C642 C641 1.389 . S
C642 C643 1.387 . S
C643 C642 1.387 . S
C643 C644 1.372 . S
C644 H622 0.950 . S
C644 C643 1.372 . S
C644 C645 1.379 . S
C645 H623 0.948 . S
C645 C640 1.364 . S
C645 C644 1.379 . S
C646 C615 1.383 . S
C646 C633 1.479 . S
C646 C647 1.398 . S
C647 C612 1.382 . S
C647 H624 0.951 . S
C647 C646 1.398 . S
Gd648 N679 2.661 . S
Gd648 N685 2.601 . S
Gd648 O692 2.545 . S
Gd648 O693 2.606 1_545 S
Gd648 O695 2.429 . S
Gd648 O696 2.545 1_545 S
Gd648 O697 2.412 . S
Gd648 O699 2.424 . S
Gd648 O700 2.324 1_545 S
Gd648 C707 2.828 . S
Gd649 N658 2.661 . S
Gd649 N662 2.601 . S
Gd649 O693 2.362 1_556 S
Gd649 O694 2.324 1_565 S
Gd649 O698 2.545 . S
Gd649 O699 2.569 1_566 S
Gd649 O701 2.444 . S
Gd649 O702 2.545 1_565 S
Gd649 O703 2.412 . S
Gd649 C716 2.828 . S
C650 C653 1.417 . S
C650 C655 1.431 . S
C650 C656 1.412 . S
C651 C654 1.437 . S
C651 C655 1.317 . S
C651 H670 0.929 . S
C652 C653 1.426 . S
C652 C654 1.413 . S
C652 N662 1.359 . S
C653 C650 1.417 . S
C653 C652 1.426 . S
C653 N658 1.350 . S
C654 C651 1.437 . S
C654 C652 1.413 . S
C654 C664 1.391 . S
C655 C650 1.431 . S
C655 C651 1.317 . S
C655 H666 0.930 . S
C656 C650 1.412 . S
C656 C657 1.355 . S
C656 H668 0.930 . S
C657 C656 1.355 . S
C657 C659 1.402 . S
C657 H669 0.930 . S
N658 Gd649 2.661 . S
N658 C653 1.350 . S
N658 C659 1.307 . S
C659 C657 1.402 . S
C659 N658 1.307 . S
C659 H660 0.930 . S
H660 C659 0.930 . S
C661 N662 1.334 . S
C661 C663 1.394 . S
C661 H665 0.930 . S
N662 Gd649 2.601 . S
N662 C652 1.359 . S
N662 C661 1.334 . S
C663 C661 1.394 . S
C663 C664 1.359 . S
C663 H675 0.930 . S
C664 C654 1.391 . S
C664 C663 1.359 . S
C664 H676 0.929 . S
H665 C661 0.930 . S
H666 C655 0.930 . S
H667 C684 0.930 . S
H668 C656 0.930 . S
H669 C657 0.930 . S
H670 C651 0.929 . S
H671 C689 0.930 . S
H672 C680 0.930 . S
H673 C681 0.930 . S
H674 C705 0.929 . S
H675 C663 0.930 . S
H676 C664 0.929 . S
H677 C706 0.930 . S
H678 C687 0.930 . S
N679 Gd648 2.661 . S
N679 C683 1.350 . S
N679 C684 1.307 . S
C680 H672 0.930 . S
C680 C681 1.355 . S
C680 C682 1.412 . S
C681 H673 0.930 . S
C681 C680 1.355 . S
C681 C684 1.402 . S
C682 C680 1.412 . S
C682 C683 1.417 . S
C682 C706 1.431 . S
C683 N679 1.350 . S
C683 C682 1.417 . S
C683 C686 1.426 . S
C684 H667 0.930 . S
C684 N679 1.307 . S
C684 C681 1.402 . S
N685 Gd648 2.601 . S
N685 C686 1.359 . S
N685 C689 1.334 . S
C686 C683 1.426 . S
C686 N685 1.359 . S
C686 C690 1.413 . S
C687 H678 0.930 . S
C687 C688 1.359 . S
C687 C689 1.394 . S
C688 C687 1.359 . S
C688 C690 1.391 . S
C688 H691 0.929 . S
C689 H671 0.930 . S
C689 N685 1.334 . S
C689 C687 1.394 . S
C690 C686 1.413 . S
C690 C688 1.391 . S
C690 C705 1.437 . S
H691 C688 0.929 . S
O692 Gd648 2.545 . S
O692 C707 1.258 . S
O693 Gd648 2.606 1_565 S
O693 Gd649 2.362 1_554 S
O693 C704 1.284 . S
O694 Gd649 2.324 1_545 S
O694 C714 1.254 . S
O695 Gd648 2.429 . S
O695 C714 1.268 1_554 S
O696 Gd648 2.545 1_565 S
O696 C704 1.250 . S
O697 Gd648 2.412 . S
O697 C707 1.252 . S
O698 Gd649 2.545 . S
O698 C716 1.258 . S
O699 Gd648 2.424 . S
O699 Gd649 2.569 1_544 S
O699 C715 1.235 1_554 S
O700 Gd648 2.324 1_565 S
O700 C723 1.254 . S
O701 Gd649 2.444 . S
O701 C723 1.242 1_556 S
O702 Gd649 2.545 1_545 S
O702 C715 1.250 . S
O703 Gd649 2.412 . S
O703 C716 1.252 . S
C704 O693 1.284 . S
C704 O696 1.250 . S
C705 H674 0.929 . S
C705 C690 1.437 . S
C705 C706 1.317 . S
C706 H677 0.930 . S
C706 C682 1.431 . S
C706 C705 1.317 . S
C707 Gd648 2.828 . S
C707 O692 1.258 . S
C707 O697 1.252 . S
C707 C708 1.497 . S
C708 C707 1.497 . S
C708 C709 1.395 . S
C708 C710 1.380 1_545 S
C709 C708 1.395 . S
C709 C712 1.398 . S
C709 H724 0.930 . S
C710 C708 1.380 1_565 S
C710 C711 1.391 . S
C710 H725 0.930 . S
C711 C710 1.391 . S
C711 C713 1.387 1_565 S
C712 C709 1.398 . S
C712 C713 1.380 . S
C712 H726 0.930 . S
C713 C711 1.387 1_545 S
C713 C712 1.380 . S
C713 H727 0.930 . S
C714 O694 1.254 . S
C714 O695 1.268 1_556 S
C715 O699 1.235 1_556 S
C715 O702 1.250 . S
C716 Gd649 2.828 . S
C716 O698 1.258 . S
C716 O703 1.252 . S
C716 C717 1.497 . S
C717 C716 1.497 . S
C717 C718 1.395 . S
C717 C719 1.380 1_565 S
C718 C717 1.395 . S
C718 C721 1.398 . S
C718 H728 0.930 . S
C719 C717 1.380 1_545 S
C719 C720 1.391 . S
C719 H729 0.930 . S
C720 C719 1.391 . S
C720 C722 1.387 1_545 S
C721 C718 1.398 . S
C721 C722 1.380 . S
C721 H730 0.930 . S
C722 C720 1.387 1_565 S
C722 C721 1.380 . S
C722 H731 0.930 . S
C723 O700 1.254 . S
C723 O701 1.242 1_554 S
H724 C709 0.930 . S
H725 C710 0.930 . S
H726 C712 0.930 . S
H727 C713 0.930 . S
H728 C718 0.930 . S
H729 C719 0.930 . S
H730 C721 0.930 . S
H731 C722 0.930 . S
Gd732 N763 2.661 . S
Gd732 N769 2.601 . S
Gd732 O776 2.545 . S
Gd732 O777 2.606 1_655 S
Gd732 O779 2.429 . S
Gd732 O780 2.545 1_655 S
Gd732 O781 2.412 . S
Gd732 O783 2.384 . S
Gd732 O784 2.324 1_655 S
Gd732 C791 2.828 . S
Gd733 N742 2.661 . S
Gd733 N746 2.601 . S
Gd733 O777 2.362 1_556 S
Gd733 O778 2.324 1_455 S
Gd733 O782 2.545 . S
Gd733 O783 2.593 1_456 S
Gd733 O785 2.421 1_556 S
Gd733 O786 2.545 1_455 S
Gd733 O787 2.412 . S
Gd733 C800 2.828 . S
C734 C737 1.417 . S
C734 C739 1.431 . S
C734 C740 1.412 . S
C735 C738 1.437 . S
C735 C739 1.317 . S
C735 H754 0.929 . S
C736 C737 1.426 . S
C736 C738 1.413 . S
C736 N746 1.359 . S
C737 C734 1.417 . S
C737 C736 1.426 . S
C737 N742 1.350 . S
C738 C735 1.437 . S
C738 C736 1.413 . S
C738 C748 1.391 . S
C739 C734 1.431 . S
C739 C735 1.317 . S
C739 H750 0.930 . S
C740 C734 1.412 . S
C740 C741 1.355 . S
C740 H752 0.930 . S
C741 C740 1.355 . S
C741 C743 1.402 . S
C741 H753 0.930 . S
N742 Gd733 2.661 . S
N742 C737 1.350 . S
N742 C743 1.307 . S
C743 C741 1.402 . S
C743 N742 1.307 . S
C743 H744 0.930 . S
H744 C743 0.930 . S
C745 N746 1.334 . S
C745 C747 1.394 . S
C745 H749 0.930 . S
N746 Gd733 2.601 . S
N746 C736 1.359 . S
N746 C745 1.334 . S
C747 C745 1.394 . S
C747 C748 1.359 . S
C747 H759 0.930 . S
C748 C738 1.391 . S
C748 C747 1.359 . S
C748 H760 0.929 . S
H749 C745 0.930 . S
H750 C739 0.930 . S
H751 C768 0.930 . S
H752 C740 0.930 . S
H753 C741 0.930 . S
H754 C735 0.929 . S
H755 C773 0.930 . S
H756 C764 0.930 . S
H757 C765 0.930 . S
H758 C789 0.929 . S
H759 C747 0.930 . S
H760 C748 0.929 . S
H761 C790 0.930 . S
H762 C771 0.930 . S
N763 Gd732 2.661 . S
N763 C767 1.350 . S
N763 C768 1.307 . S
C764 H756 0.930 . S
C764 C765 1.355 . S
C764 C766 1.412 . S
C765 H757 0.930 . S
C765 C764 1.355 . S
C765 C768 1.402 . S
C766 C764 1.412 . S
C766 C767 1.417 . S
C766 C790 1.431 . S
C767 N763 1.350 . S
C767 C766 1.417 . S
C767 C770 1.426 . S
C768 H751 0.930 . S
C768 N763 1.307 . S
C768 C765 1.402 . S
N769 Gd732 2.601 . S
N769 C770 1.359 . S
N769 C773 1.334 . S
C770 C767 1.426 . S
C770 N769 1.359 . S
C770 C774 1.413 . S
C771 H762 0.930 . S
C771 C772 1.359 . S
C771 C773 1.394 . S
C772 C771 1.359 . S
C772 C774 1.391 . S
C772 H775 0.929 . S
C773 H755 0.930 . S
C773 N769 1.334 . S
C773 C771 1.394 . S
C774 C770 1.413 . S
C774 C772 1.391 . S
C774 C789 1.437 . S
H775 C772 0.929 . S
O776 Gd732 2.545 . S
O776 C791 1.258 . S
O777 Gd732 2.606 1_455 S
O777 Gd733 2.362 1_554 S
O777 C788 1.284 . S
O778 Gd733 2.324 1_655 S
O778 C798 1.254 . S
O779 Gd732 2.429 . S
O779 C798 1.268 1_554 S
O780 Gd732 2.545 1_455 S
O780 C788 1.250 . S
O781 Gd732 2.412 . S
O781 C791 1.252 . S
O782 Gd733 2.545 . S
O782 C800 1.258 . S
O783 Gd732 2.384 . S
O783 Gd733 2.593 1_654 S
O783 C799 1.266 1_554 S
O784 Gd732 2.324 1_455 S
O784 C807 1.254 . S
O785 Gd733 2.421 1_554 S
O785 C807 1.282 . S
O786 Gd733 2.545 1_655 S
O786 C799 1.250 . S
O787 Gd733 2.412 . S
O787 C800 1.252 . S
C788 O777 1.284 . S
C788 O780 1.250 . S
C789 H758 0.929 . S
C789 C774 1.437 . S
C789 C790 1.317 . S
C790 H761 0.930 . S
C790 C766 1.431 . S
C790 C789 1.317 . S
C791 Gd732 2.828 . S
C791 O776 1.258 . S
C791 O781 1.252 . S
C791 C792 1.497 . S
C792 C791 1.497 . S
C792 C793 1.395 . S
C792 C794 1.380 1_655 S
C793 C792 1.395 . S
C793 C796 1.398 . S
C793 H808 0.930 . S
C794 C792 1.380 1_455 S
C794 C795 1.391 . S
C794 H809 0.930 . S
C795 C794 1.391 . S
C795 C797 1.387 1_455 S
C796 C793 1.398 . S
C796 C797 1.380 . S
C796 H810 0.930 . S
C797 C795 1.387 1_655 S
C797 C796 1.380 . S
C797 H811 0.930 . S
C798 O778 1.254 . S
C798 O779 1.268 1_556 S
C799 O783 1.266 1_556 S
C799 O786 1.250 . S
C800 Gd733 2.828 . S
C800 O782 1.258 . S
C800 O787 1.252 . S
C800 C801 1.497 . S
C801 C800 1.497 . S
C801 C802 1.395 . S
C801 C803 1.380 1_455 S
C802 C801 1.395 . S
C802 C805 1.398 . S
C802 H812 0.930 . S
C803 C801 1.380 1_655 S
C803 C804 1.391 . S
C803 H813 0.930 . S
C804 C803 1.391 . S
C804 C806 1.387 1_655 S
C805 C802 1.398 . S
C805 C806 1.380 . S
C805 H814 0.930 . S
C806 C804 1.387 1_455 S
C806 C805 1.380 . S
C806 H815 0.930 . S
C807 O784 1.254 . S
C807 O785 1.282 . S
H808 C793 0.930 . S
H809 C794 0.930 . S
H810 C796 0.930 . S
H811 C797 0.930 . S
H812 C802 0.930 . S
H813 C803 0.930 . S
H814 C805 0.930 . S
H815 C806 0.930 . S
Gd816 N847 2.661 . S
Gd816 N853 2.601 . S
Gd816 O860 2.545 . S
Gd816 O861 2.583 1_556 S
Gd816 O863 2.427 . S
Gd816 O864 2.545 . S
Gd816 O865 2.412 . S
Gd816 O867 2.362 1_556 S
Gd816 O868 2.324 . S
Gd816 C875 2.828 . S
Gd817 N826 2.661 . S
Gd817 N830 2.601 . S
Gd817 O861 2.402 . S
Gd817 O862 2.324 . S
Gd817 O866 2.545 . S
Gd817 O867 2.606 . S
Gd817 O869 2.429 . S
Gd817 O870 2.545 . S
Gd817 O871 2.412 . S
Gd817 C884 2.828 . S
C818 C821 1.417 . S
C818 C823 1.431 . S
C818 C824 1.412 . S
C819 C822 1.437 . S
C819 C823 1.317 . S
C819 H838 0.929 . S
C820 C821 1.426 . S
C820 C822 1.413 . S
C820 N830 1.359 . S
C821 C818 1.417 . S
C821 C820 1.426 . S
C821 N826 1.350 . S
C822 C819 1.437 . S
C822 C820 1.413 . S
C822 C832 1.391 . S
C823 C818 1.431 . S
C823 C819 1.317 . S
C823 H834 0.930 . S
C824 C818 1.412 . S
C824 C825 1.355 . S
C824 H836 0.930 . S
C825 C824 1.355 . S
C825 C827 1.402 . S
C825 H837 0.930 . S
N826 Gd817 2.661 . S
N826 C821 1.350 . S
N826 C827 1.307 . S
C827 C825 1.402 . S
C827 N826 1.307 . S
C827 H828 0.930 . S
H828 C827 0.930 . S
C829 N830 1.334 . S
C829 C831 1.394 . S
C829 H833 0.930 . S
N830 Gd817 2.601 . S
N830 C820 1.359 . S
N830 C829 1.334 . S
C831 C829 1.394 . S
C831 C832 1.359 . S
C831 H843 0.930 . S
C832 C822 1.391 . S
C832 C831 1.359 . S
C832 H844 0.929 . S
H833 C829 0.930 . S
H834 C823 0.930 . S
H835 C852 0.930 . S
H836 C824 0.930 . S
H837 C825 0.930 . S
H838 C819 0.929 . S
H839 C857 0.930 . S
H840 C848 0.930 . S
H841 C849 0.930 . S
H842 C873 0.929 . S
H843 C831 0.930 . S
H844 C832 0.929 . S
H845 C874 0.930 . S
H846 C855 0.930 . S
N847 Gd816 2.661 . S
N847 C851 1.350 . S
N847 C852 1.307 . S
C848 H840 0.930 . S
C848 C849 1.355 . S
C848 C850 1.412 . S
C849 H841 0.930 . S
C849 C848 1.355 . S
C849 C852 1.402 . S
C850 C848 1.412 . S
C850 C851 1.417 . S
C850 C874 1.431 . S
C851 N847 1.350 . S
C851 C850 1.417 . S
C851 C854 1.426 . S
C852 H835 0.930 . S
C852 N847 1.307 . S
C852 C849 1.402 . S
N853 Gd816 2.601 . S
N853 C854 1.359 . S
N853 C857 1.334 . S
C854 C851 1.426 . S
C854 N853 1.359 . S
C854 C858 1.413 . S
C855 H846 0.930 . S
C855 C856 1.359 . S
C855 C857 1.394 . S
C856 C855 1.359 . S
C856 C858 1.391 . S
C856 H859 0.929 . S
C857 H839 0.930 . S
C857 N853 1.334 . S
C857 C855 1.394 . S
C858 C854 1.413 . S
C858 C856 1.391 . S
C858 C873 1.437 . S
H859 C856 0.929 . S
O860 Gd816 2.545 . S
O860 C875 1.258 . S
O861 Gd816 2.583 1_554 S
O861 Gd817 2.402 . S
O861 C872 1.252 1_554 S
O862 Gd817 2.324 . S
O862 C882 1.254 . S
O863 Gd816 2.427 . S
O863 C882 1.271 1_556 S
O864 Gd816 2.545 . S
O864 C872 1.250 . S
O865 Gd816 2.412 . S
O865 C875 1.252 . S
O866 Gd817 2.545 . S
O866 C884 1.258 . S
O867 Gd816 2.362 1_554 S
O867 Gd817 2.606 . S
O867 C883 1.284 . S
O868 Gd816 2.324 . S
O868 C891 1.254 . S
O869 Gd817 2.429 . S
O869 C891 1.268 1_554 S
O870 Gd817 2.545 . S
O870 C883 1.250 . S
O871 Gd817 2.412 . S
O871 C884 1.252 . S
C872 O861 1.252 1_556 S
C872 O864 1.250 . S
C873 H842 0.929 . S
C873 C858 1.437 . S
C873 C874 1.317 . S
C874 H845 0.930 . S
C874 C850 1.431 . S
C874 C873 1.317 . S
C875 Gd816 2.828 . S
C875 O860 1.258 . S
C875 O865 1.252 . S
C875 C876 1.497 . S
C876 C875 1.497 . S
C876 C877 1.395 . S
C876 C878 1.380 . S
C877 C876 1.395 . S
C877 C880 1.398 . S
C877 H892 0.930 . S
C878 C876 1.380 . S
C878 C879 1.391 . S
C878 H893 0.930 . S
C879 C878 1.391 . S
C879 C881 1.387 . S
C880 C877 1.398 . S
C880 C881 1.380 . S
C880 H894 0.930 . S
C881 C879 1.387 . S
C881 C880 1.380 . S
C881 H895 0.930 . S
C882 O862 1.254 . S
C882 O863 1.271 1_554 S
C883 O867 1.284 . S
C883 O870 1.250 . S
C884 Gd817 2.828 . S
C884 O866 1.258 . S
C884 O871 1.252 . S
C884 C885 1.497 . S
C885 C884 1.497 . S
C885 C886 1.395 . S
C885 C887 1.380 . S
C886 C885 1.395 . S
C886 C889 1.398 . S
C886 H896 0.930 . S
C887 C885 1.380 . S
C887 C888 1.391 . S
C887 H897 0.930 . S
C888 C887 1.391 . S
C888 C890 1.387 . S
C889 C886 1.398 . S
C889 C890 1.380 . S
C889 H898 0.930 . S
C890 C888 1.387 . S
C890 C889 1.380 . S
C890 H899 0.930 . S
C891 O868 1.254 . S
C891 O869 1.268 1_556 S
H892 C877 0.930 . S
H893 C878 0.930 . S
H894 C880 0.930 . S
H895 C881 0.930 . S
H896 C886 0.930 . S
H897 C887 0.930 . S
H898 C889 0.930 . S
H899 C890 0.930 . S
Gd900 N931 2.661 . S
Gd900 N937 2.601 . S
Gd900 O944 2.545 . S
Gd900 O945 2.606 . S
Gd900 O947 2.429 . S
Gd900 O948 2.545 . S
Gd900 O949 2.412 . S
Gd900 O951 2.362 . S
Gd900 O952 2.324 . S
Gd900 C959 2.828 . S
Gd901 N910 2.661 . S
Gd901 N914 2.601 . S
Gd901 O945 2.362 . S
Gd901 O946 2.324 . S
Gd901 O950 2.545 . S
Gd901 O951 2.606 . S
Gd901 O953 2.429 . S
Gd901 O954 2.545 . S
Gd901 O955 2.412 . S
Gd901 C968 2.828 . S
C902 C905 1.417 . S
C902 C907 1.431 . S
C902 C908 1.412 . S
C903 C906 1.437 . S
C903 C907 1.317 . S
C903 H922 0.929 . S
C904 C905 1.426 . S
C904 C906 1.413 . S
C904 N914 1.359 . S
C905 C902 1.417 . S
C905 C904 1.426 . S
C905 N910 1.350 . S
C906 C903 1.437 . S
C906 C904 1.413 . S
C906 C916 1.391 . S
C907 C902 1.431 . S
C907 C903 1.317 . S
C907 H918 0.930 . S
C908 C902 1.412 . S
C908 C909 1.355 . S
C908 H920 0.930 . S
C909 C908 1.355 . S
C909 C911 1.402 . S
C909 H921 0.930 . S
N910 Gd901 2.661 . S
N910 C905 1.350 . S
N910 C911 1.307 . S
C911 C909 1.402 . S
C911 N910 1.307 . S
C911 H912 0.930 . S
H912 C911 0.930 . S
C913 N914 1.334 . S
C913 C915 1.394 . S
C913 H917 0.930 . S
N914 Gd901 2.601 . S
N914 C904 1.359 . S
N914 C913 1.334 . S
C915 C913 1.394 . S
C915 C916 1.359 . S
C915 H927 0.930 . S
C916 C906 1.391 . S
C916 C915 1.359 . S
C916 H928 0.929 . S
H917 C913 0.930 . S
H918 C907 0.930 . S
H919 C936 0.930 . S
H920 C908 0.930 . S
H921 C909 0.930 . S
H922 C903 0.929 . S
H923 C941 0.930 . S
H924 C932 0.930 . S
H925 C933 0.930 . S
H926 C957 0.929 . S
H927 C915 0.930 . S
H928 C916 0.929 . S
H929 C958 0.930 . S
H930 C939 0.930 . S
N931 Gd900 2.661 . S
N931 C935 1.350 . S
N931 C936 1.307 . S
C932 H924 0.930 . S
C932 C933 1.355 . S
C932 C934 1.412 . S
C933 H925 0.930 . S
C933 C932 1.355 . S
C933 C936 1.402 . S
C934 C932 1.412 . S
C934 C935 1.417 . S
C934 C958 1.431 . S
C935 N931 1.350 . S
C935 C934 1.417 . S
C935 C938 1.426 . S
C936 H919 0.930 . S
C936 N931 1.307 . S
C936 C933 1.402 . S
N937 Gd900 2.601 . S
N937 C938 1.359 . S
N937 C941 1.334 . S
C938 C935 1.426 . S
C938 N937 1.359 . S
C938 C942 1.413 . S
C939 H930 0.930 . S
C939 C940 1.359 . S
C939 C941 1.394 . S
C940 C939 1.359 . S
C940 C942 1.391 . S
C940 H943 0.929 . S
C941 H923 0.930 . S
C941 N937 1.334 . S
C941 C939 1.394 . S
C942 C938 1.413 . S
C942 C940 1.391 . S
C942 C957 1.437 . S
H943 C940 0.929 . S
O944 Gd900 2.545 . S
O944 C959 1.258 . S
O945 Gd900 2.606 . S
O945 Gd901 2.362 . S
O945 C956 1.284 . S
O946 Gd901 2.324 . S
O946 C966 1.254 . S
O947 Gd900 2.429 . S
O947 C966 1.268 . S
O948 Gd900 2.545 . S
O948 C956 1.250 . S
O949 Gd900 2.412 . S
O949 C959 1.252 . S
O950 Gd901 2.545 . S
O950 C968 1.258 . S
O951 Gd900 2.362 . S
O951 Gd901 2.606 . S
O951 C967 1.284 . S
O952 Gd900 2.324 . S
O952 C975 1.254 . S
O953 Gd901 2.429 . S
O953 C975 1.268 . S
O954 Gd901 2.545 . S
O954 C967 1.250 . S
O955 Gd901 2.412 . S
O955 C968 1.252 . S
C956 O945 1.284 . S
C956 O948 1.250 . S
C957 H926 0.929 . S
C957 C942 1.437 . S
C957 C958 1.317 . S
C958 H929 0.930 . S
C958 C934 1.431 . S
C958 C957 1.317 . S
C959 Gd900 2.828 . S
C959 O944 1.258 . S
C959 O949 1.252 . S
C959 C960 1.497 . S
C960 C959 1.497 . S
C960 C961 1.395 . S
C960 C962 1.380 . S
C961 C960 1.395 . S
C961 C964 1.398 . S
C961 H976 0.930 . S
C962 C960 1.380 . S
C962 C963 1.391 . S
C962 H977 0.930 . S
C963 C962 1.391 . S
C963 C965 1.387 . S
C964 C961 1.398 . S
C964 C965 1.380 . S
C964 H978 0.930 . S
C965 C963 1.387 . S
C965 C964 1.380 . S
C965 H979 0.930 . S
C966 O946 1.254 . S
C966 O947 1.268 . S
C967 O951 1.284 . S
C967 O954 1.250 . S
C968 Gd901 2.828 . S
C968 O950 1.258 . S
C968 O955 1.252 . S
C968 C969 1.497 . S
C969 C968 1.497 . S
C969 C970 1.395 . S
C969 C971 1.380 . S
C970 C969 1.395 . S
C970 C973 1.398 . S
C970 H980 0.930 . S
C971 C969 1.380 . S
C971 C972 1.391 . S
C971 H981 0.930 . S
C972 C971 1.391 . S
C972 C974 1.387 . S
C973 C970 1.398 . S
C973 C974 1.380 . S
C973 H982 0.930 . S
C974 C972 1.387 . S
C974 C973 1.380 . S
C974 H983 0.930 . S
C975 O952 1.254 . S
C975 O953 1.268 . S
H976 C961 0.930 . S
H977 C962 0.930 . S
H978 C964 0.930 . S
H979 C965 0.930 . S
H980 C970 0.930 . S
H981 C971 0.930 . S
H982 C973 0.930 . S
H983 C974 0.930 . S
Gd984 N1015 2.661 . S
Gd984 N1021 2.601 . S
Gd984 O1028 2.545 . S
Gd984 O1029 2.606 . S
Gd984 O1031 2.429 . S
Gd984 O1032 2.545 . S
Gd984 O1033 2.412 . S
Gd984 O1035 2.362 . S
Gd984 O1036 2.324 . S
Gd984 C1043 2.828 . S
Gd985 N994 2.661 . S
Gd985 N998 2.601 . S
Gd985 O1029 2.362 . S
Gd985 O1030 2.324 . S
Gd985 O1034 2.545 . S
Gd985 O1035 2.606 . S
Gd985 O1037 2.429 . S
Gd985 O1038 2.545 . S
Gd985 O1039 2.412 . S
Gd985 C1052 2.828 . S
C986 C989 1.417 . S
C986 C991 1.431 . S
C986 C992 1.412 . S
C987 C990 1.437 . S
C987 C991 1.317 . S
C987 H1006 0.929 . S
C988 C989 1.426 . S
C988 C990 1.413 . S
C988 N998 1.359 . S
C989 C986 1.417 . S
C989 C988 1.426 . S
C989 N994 1.350 . S
C990 C987 1.437 . S
C990 C988 1.413 . S
C990 C1000 1.391 . S
C991 C986 1.431 . S
C991 C987 1.317 . S
C991 H1002 0.930 . S
C992 C986 1.412 . S
C992 C993 1.355 . S
C992 H1004 0.930 . S
C993 C992 1.355 . S
C993 C995 1.402 . S
C993 H1005 0.930 . S
N994 Gd985 2.661 . S
N994 C989 1.350 . S
N994 C995 1.307 . S
C995 C993 1.402 . S
C995 N994 1.307 . S
C995 H996 0.930 . S
H996 C995 0.930 . S
C997 N998 1.334 . S
C997 C999 1.394 . S
C997 H1001 0.930 . S
N998 Gd985 2.601 . S
N998 C988 1.359 . S
N998 C997 1.334 . S
C999 C997 1.394 . S
C999 C1000 1.359 . S
C999 H1011 0.930 . S
C1000 C990 1.391 . S
C1000 C999 1.359 . S
C1000 H1012 0.929 . S
H1001 C997 0.930 . S
H1002 C991 0.930 . S
H1003 C1020 0.930 . S
H1004 C992 0.930 . S
H1005 C993 0.930 . S
H1006 C987 0.929 . S
H1007 C1025 0.930 . S
H1008 C1016 0.930 . S
H1009 C1017 0.930 . S
H1010 C1041 0.929 . S
H1011 C999 0.930 . S
H1012 C1000 0.929 . S
H1013 C1042 0.930 . S
H1014 C1023 0.930 . S
N1015 Gd984 2.661 . S
N1015 C1019 1.350 . S
N1015 C1020 1.307 . S
C1016 H1008 0.930 . S
C1016 C1017 1.355 . S
C1016 C1018 1.412 . S
C1017 H1009 0.930 . S
C1017 C1016 1.355 . S
C1017 C1020 1.402 . S
C1018 C1016 1.412 . S
C1018 C1019 1.417 . S
C1018 C1042 1.431 . S
C1019 N1015 1.350 . S
C1019 C1018 1.417 . S
C1019 C1022 1.426 . S
C1020 H1003 0.930 . S
C1020 N1015 1.307 . S
C1020 C1017 1.402 . S
N1021 Gd984 2.601 . S
N1021 C1022 1.359 . S
N1021 C1025 1.334 . S
C1022 C1019 1.426 . S
C1022 N1021 1.359 . S
C1022 C1026 1.413 . S
C1023 H1014 0.930 . S
C1023 C1024 1.359 . S
C1023 C1025 1.394 . S
C1024 C1023 1.359 . S
C1024 C1026 1.391 . S
C1024 H1027 0.929 . S
C1025 H1007 0.930 . S
C1025 N1021 1.334 . S
C1025 C1023 1.394 . S
C1026 C1022 1.413 . S
C1026 C1024 1.391 . S
C1026 C1041 1.437 . S
H1027 C1024 0.929 . S
O1028 Gd984 2.545 . S
O1028 C1043 1.258 . S
O1029 Gd984 2.606 . S
O1029 Gd985 2.362 . S
O1029 C1040 1.284 . S
O1030 Gd985 2.324 . S
O1030 C1050 1.254 . S
O1031 Gd984 2.429 . S
O1031 C1050 1.268 . S
O1032 Gd984 2.545 . S
O1032 C1040 1.250 . S
O1033 Gd984 2.412 . S
O1033 C1043 1.252 . S
O1034 Gd985 2.545 . S
O1034 C1052 1.258 . S
O1035 Gd984 2.362 . S
O1035 Gd985 2.606 . S
O1035 C1051 1.284 . S
O1036 Gd984 2.324 . S
O1036 C1059 1.254 . S
O1037 Gd985 2.429 . S
O1037 C1059 1.268 . S
O1038 Gd985 2.545 . S
O1038 C1051 1.250 . S
O1039 Gd985 2.412 . S
O1039 C1052 1.252 . S
C1040 O1029 1.284 . S
C1040 O1032 1.250 . S
C1041 H1010 0.929 . S
C1041 C1026 1.437 . S
C1041 C1042 1.317 . S
C1042 H1013 0.930 . S
C1042 C1018 1.431 . S
C1042 C1041 1.317 . S
C1043 Gd984 2.828 . S
C1043 O1028 1.258 . S
C1043 O1033 1.252 . S
C1043 C1044 1.497 . S
C1044 C1043 1.497 . S
C1044 C1045 1.395 . S
C1044 C1046 1.380 . S
C1045 C1044 1.395 . S
C1045 C1048 1.398 . S
C1045 H1060 0.930 . S
C1046 C1044 1.380 . S
C1046 C1047 1.391 . S
C1046 H1061 0.930 . S
C1047 C1046 1.391 . S
C1047 C1049 1.387 . S
C1048 C1045 1.398 . S
C1048 C1049 1.380 . S
C1048 H1062 0.930 . S
C1049 C1047 1.387 . S
C1049 C1048 1.380 . S
C1049 H1063 0.930 . S
C1050 O1030 1.254 . S
C1050 O1031 1.268 . S
C1051 O1035 1.284 . S
C1051 O1038 1.250 . S
C1052 Gd985 2.828 . S
C1052 O1034 1.258 . S
C1052 O1039 1.252 . S
C1052 C1053 1.497 . S
C1053 C1052 1.497 . S
C1053 C1054 1.395 . S
C1053 C1055 1.380 . S
C1054 C1053 1.395 . S
C1054 C1057 1.398 . S
C1054 H1064 0.930 . S
C1055 C1053 1.380 . S
C1055 C1056 1.391 . S
C1055 H1065 0.930 . S
C1056 C1055 1.391 . S
C1056 C1058 1.387 . S
C1057 C1054 1.398 . S
C1057 C1058 1.380 . S
C1057 H1066 0.930 . S
C1058 C1056 1.387 . S
C1058 C1057 1.380 . S
C1058 H1067 0.930 . S
C1059 O1036 1.254 . S
C1059 O1037 1.268 . S
H1060 C1045 0.930 . S
H1061 C1046 0.930 . S
H1062 C1048 0.930 . S
H1063 C1049 0.930 . S
H1064 C1054 0.930 . S
H1065 C1055 0.930 . S
H1066 C1057 0.930 . S
H1067 C1058 0.930 . S
Gd1068 N1099 2.661 . S
Gd1068 N1105 2.601 . S
Gd1068 O1112 2.545 . S
Gd1068 O1113 2.606 . S
Gd1068 O1115 2.429 . S
Gd1068 O1116 2.545 . S
Gd1068 O1117 2.412 . S
Gd1068 O1119 2.362 . S
Gd1068 O1120 2.324 . S
Gd1068 C1127 2.828 . S
Gd1069 N1078 2.661 . S
Gd1069 N1082 2.601 . S
Gd1069 O1113 2.362 . S
Gd1069 O1114 2.324 . S
Gd1069 O1118 2.545 . S
Gd1069 O1119 2.606 . S
Gd1069 O1121 2.429 . S
Gd1069 O1122 2.545 . S
Gd1069 O1123 2.412 . S
Gd1069 C1136 2.828 . S
C1070 C1073 1.417 . S
C1070 C1075 1.431 . S
C1070 C1076 1.412 . S
C1071 C1074 1.437 . S
C1071 C1075 1.317 . S
C1071 H1090 0.929 . S
C1072 C1073 1.426 . S
C1072 C1074 1.413 . S
C1072 N1082 1.359 . S
C1073 C1070 1.417 . S
C1073 C1072 1.426 . S
C1073 N1078 1.350 . S
C1074 C1071 1.437 . S
C1074 C1072 1.413 . S
C1074 C1084 1.391 . S
C1075 C1070 1.431 . S
C1075 C1071 1.317 . S
C1075 H1086 0.930 . S
C1076 C1070 1.412 . S
C1076 C1077 1.355 . S
C1076 H1088 0.930 . S
C1077 C1076 1.355 . S
C1077 C1079 1.402 . S
C1077 H1089 0.930 . S
N1078 Gd1069 2.661 . S
N1078 C1073 1.350 . S
N1078 C1079 1.307 . S
C1079 C1077 1.402 . S
C1079 N1078 1.307 . S
C1079 H1080 0.930 . S
H1080 C1079 0.930 . S
C1081 N1082 1.334 . S
C1081 C1083 1.394 . S
C1081 H1085 0.930 . S
N1082 Gd1069 2.601 . S
N1082 C1072 1.359 . S
N1082 C1081 1.334 . S
C1083 C1081 1.394 . S
C1083 C1084 1.359 . S
C1083 H1095 0.930 . S
C1084 C1074 1.391 . S
C1084 C1083 1.359 . S
C1084 H1096 0.929 . S
H1085 C1081 0.930 . S
H1086 C1075 0.930 . S
H1087 C1104 0.930 . S
H1088 C1076 0.930 . S
H1089 C1077 0.930 . S
H1090 C1071 0.929 . S
H1091 C1109 0.930 . S
H1092 C1100 0.930 . S
H1093 C1101 0.930 . S
H1094 C1125 0.929 . S
H1095 C1083 0.930 . S
H1096 C1084 0.929 . S
H1097 C1126 0.930 . S
H1098 C1107 0.930 . S
N1099 Gd1068 2.661 . S
N1099 C1103 1.350 . S
N1099 C1104 1.307 . S
C1100 H1092 0.930 . S
C1100 C1101 1.355 . S
C1100 C1102 1.412 . S
C1101 H1093 0.930 . S
C1101 C1100 1.355 . S
C1101 C1104 1.402 . S
C1102 C1100 1.412 . S
C1102 C1103 1.417 . S
C1102 C1126 1.431 . S
C1103 N1099 1.350 . S
C1103 C1102 1.417 . S
C1103 C1106 1.426 . S
C1104 H1087 0.930 . S
C1104 N1099 1.307 . S
C1104 C1101 1.402 . S
N1105 Gd1068 2.601 . S
N1105 C1106 1.359 . S
N1105 C1109 1.334 . S
C1106 C1103 1.426 . S
C1106 N1105 1.359 . S
C1106 C1110 1.413 . S
C1107 H1098 0.930 . S
C1107 C1108 1.359 . S
C1107 C1109 1.394 . S
C1108 C1107 1.359 . S
C1108 C1110 1.391 . S
C1108 H1111 0.929 . S
C1109 H1091 0.930 . S
C1109 N1105 1.334 . S
C1109 C1107 1.394 . S
C1110 C1106 1.413 . S
C1110 C1108 1.391 . S
C1110 C1125 1.437 . S
H1111 C1108 0.929 . S
O1112 Gd1068 2.545 . S
O1112 C1127 1.258 . S
O1113 Gd1068 2.606 . S
O1113 Gd1069 2.362 . S
O1113 C1124 1.284 . S
O1114 Gd1069 2.324 . S
O1114 C1134 1.254 . S
O1115 Gd1068 2.429 . S
O1115 C1134 1.268 . S
O1116 Gd1068 2.545 . S
O1116 C1124 1.250 . S
O1117 Gd1068 2.412 . S
O1117 C1127 1.252 . S
O1118 Gd1069 2.545 . S
O1118 C1136 1.258 . S
O1119 Gd1068 2.362 . S
O1119 Gd1069 2.606 . S
O1119 C1135 1.284 . S
O1120 Gd1068 2.324 . S
O1120 C1143 1.254 . S
O1121 Gd1069 2.429 . S
O1121 C1143 1.268 . S
O1122 Gd1069 2.545 . S
O1122 C1135 1.250 . S
O1123 Gd1069 2.412 . S
O1123 C1136 1.252 . S
C1124 O1113 1.284 . S
C1124 O1116 1.250 . S
C1125 H1094 0.929 . S
C1125 C1110 1.437 . S
C1125 C1126 1.317 . S
C1126 H1097 0.930 . S
C1126 C1102 1.431 . S
C1126 C1125 1.317 . S
C1127 Gd1068 2.828 . S
C1127 O1112 1.258 . S
C1127 O1117 1.252 . S
C1127 C1128 1.497 . S
C1128 C1127 1.497 . S
C1128 C1129 1.395 . S
C1128 C1130 1.380 . S
C1129 C1128 1.395 . S
C1129 C1132 1.398 . S
C1129 H1144 0.930 . S
C1130 C1128 1.380 . S
C1130 C1131 1.391 . S
C1130 H1145 0.930 . S
C1131 C1130 1.391 . S
C1131 C1133 1.387 . S
C1132 C1129 1.398 . S
C1132 C1133 1.380 . S
C1132 H1146 0.930 . S
C1133 C1131 1.387 . S
C1133 C1132 1.380 . S
C1133 H1147 0.930 . S
C1134 O1114 1.254 . S
C1134 O1115 1.268 . S
C1135 O1119 1.284 . S
C1135 O1122 1.250 . S
C1136 Gd1069 2.828 . S
C1136 O1118 1.258 . S
C1136 O1123 1.252 . S
C1136 C1137 1.497 . S
C1137 C1136 1.497 . S
C1137 C1138 1.395 . S
C1137 C1139 1.380 . S
C1138 C1137 1.395 . S
C1138 C1141 1.398 . S
C1138 H1148 0.930 . S
C1139 C1137 1.380 . S
C1139 C1140 1.391 . S
C1139 H1149 0.930 . S
C1140 C1139 1.391 . S
C1140 C1142 1.387 . S
C1141 C1138 1.398 . S
C1141 C1142 1.380 . S
C1141 H1150 0.930 . S
C1142 C1140 1.387 . S
C1142 C1141 1.380 . S
C1142 H1151 0.930 . S
C1143 O1120 1.254 . S
C1143 O1121 1.268 . S
H1144 C1129 0.930 . S
H1145 C1130 0.930 . S
H1146 C1132 0.930 . S
H1147 C1133 0.930 . S
H1148 C1138 0.930 . S
H1149 C1139 0.930 . S
H1150 C1141 0.930 . S
H1151 C1142 0.930 . S
Gd1152 N1183 2.661 . S
Gd1152 N1189 2.601 . S
Gd1152 O1196 2.545 . S
Gd1152 O1197 2.606 . S
Gd1152 O1199 2.429 . S
Gd1152 O1200 2.545 . S
Gd1152 O1201 2.412 . S
Gd1152 O1203 2.362 . S
Gd1152 O1204 2.324 . S
Gd1152 C1211 2.828 . S
Gd1153 N1162 2.661 . S
Gd1153 N1166 2.601 . S
Gd1153 O1197 2.362 . S
Gd1153 O1198 2.324 . S
Gd1153 O1202 2.545 . S
Gd1153 O1203 2.606 . S
Gd1153 O1205 2.429 . S
Gd1153 O1206 2.545 . S
Gd1153 O1207 2.412 . S
Gd1153 C1220 2.828 . S
C1154 C1157 1.417 . S
C1154 C1159 1.431 . S
C1154 C1160 1.412 . S
C1155 C1158 1.437 . S
C1155 C1159 1.317 . S
C1155 H1174 0.929 . S
C1156 C1157 1.426 . S
C1156 C1158 1.413 . S
C1156 N1166 1.359 . S
C1157 C1154 1.417 . S
C1157 C1156 1.426 . S
C1157 N1162 1.350 . S
C1158 C1155 1.437 . S
C1158 C1156 1.413 . S
C1158 C1168 1.391 . S
C1159 C1154 1.431 . S
C1159 C1155 1.317 . S
C1159 H1170 0.930 . S
C1160 C1154 1.412 . S
C1160 C1161 1.355 . S
C1160 H1172 0.930 . S
C1161 C1160 1.355 . S
C1161 C1163 1.402 . S
C1161 H1173 0.930 . S
N1162 Gd1153 2.661 . S
N1162 C1157 1.350 . S
N1162 C1163 1.307 . S
C1163 C1161 1.402 . S
C1163 N1162 1.307 . S
C1163 H1164 0.930 . S
H1164 C1163 0.930 . S
C1165 N1166 1.334 . S
C1165 C1167 1.394 . S
C1165 H1169 0.930 . S
N1166 Gd1153 2.601 . S
N1166 C1156 1.359 . S
N1166 C1165 1.334 . S
C1167 C1165 1.394 . S
C1167 C1168 1.359 . S
C1167 H1179 0.930 . S
C1168 C1158 1.391 . S
C1168 C1167 1.359 . S
C1168 H1180 0.929 . S
H1169 C1165 0.930 . S
H1170 C1159 0.930 . S
H1171 C1188 0.930 . S
H1172 C1160 0.930 . S
H1173 C1161 0.930 . S
H1174 C1155 0.929 . S
H1175 C1193 0.930 . S
H1176 C1184 0.930 . S
H1177 C1185 0.930 . S
H1178 C1209 0.929 . S
H1179 C1167 0.930 . S
H1180 C1168 0.929 . S
H1181 C1210 0.930 . S
H1182 C1191 0.930 . S
N1183 Gd1152 2.661 . S
N1183 C1187 1.350 . S
N1183 C1188 1.307 . S
C1184 H1176 0.930 . S
C1184 C1185 1.355 . S
C1184 C1186 1.412 . S
C1185 H1177 0.930 . S
C1185 C1184 1.355 . S
C1185 C1188 1.402 . S
C1186 C1184 1.412 . S
C1186 C1187 1.417 . S
C1186 C1210 1.431 . S
C1187 N1183 1.350 . S
C1187 C1186 1.417 . S
C1187 C1190 1.426 . S
C1188 H1171 0.930 . S
C1188 N1183 1.307 . S
C1188 C1185 1.402 . S
N1189 Gd1152 2.601 . S
N1189 C1190 1.359 . S
N1189 C1193 1.334 . S
C1190 C1187 1.426 . S
C1190 N1189 1.359 . S
C1190 C1194 1.413 . S
C1191 H1182 0.930 . S
C1191 C1192 1.359 . S
C1191 C1193 1.394 . S
C1192 C1191 1.359 . S
C1192 C1194 1.391 . S
C1192 H1195 0.929 . S
C1193 H1175 0.930 . S
C1193 N1189 1.334 . S
C1193 C1191 1.394 . S
C1194 C1190 1.413 . S
C1194 C1192 1.391 . S
C1194 C1209 1.437 . S
H1195 C1192 0.929 . S
O1196 Gd1152 2.545 . S
O1196 C1211 1.258 . S
O1197 Gd1152 2.606 . S
O1197 Gd1153 2.362 . S
O1197 C1208 1.284 . S
O1198 Gd1153 2.324 . S
O1198 C1218 1.254 . S
O1199 Gd1152 2.429 . S
O1199 C1218 1.268 . S
O1200 Gd1152 2.545 . S
O1200 C1208 1.250 . S
O1201 Gd1152 2.412 . S
O1201 C1211 1.252 . S
O1202 Gd1153 2.545 . S
O1202 C1220 1.258 . S
O1203 Gd1152 2.362 . S
O1203 Gd1153 2.606 . S
O1203 C1219 1.284 . S
O1204 Gd1152 2.324 . S
O1204 C1227 1.254 . S
O1205 Gd1153 2.429 . S
O1205 C1227 1.268 . S
O1206 Gd1153 2.545 . S
O1206 C1219 1.250 . S
O1207 Gd1153 2.412 . S
O1207 C1220 1.252 . S
C1208 O1197 1.284 . S
C1208 O1200 1.250 . S
C1209 H1178 0.929 . S
C1209 C1194 1.437 . S
C1209 C1210 1.317 . S
C1210 H1181 0.930 . S
C1210 C1186 1.431 . S
C1210 C1209 1.317 . S
C1211 Gd1152 2.828 . S
C1211 O1196 1.258 . S
C1211 O1201 1.252 . S
C1211 C1212 1.497 . S
C1212 C1211 1.497 . S
C1212 C1213 1.395 . S
C1212 C1214 1.380 . S
C1213 C1212 1.395 . S
C1213 C1216 1.398 . S
C1213 H1228 0.930 . S
C1214 C1212 1.380 . S
C1214 C1215 1.391 . S
C1214 H1229 0.930 . S
C1215 C1214 1.391 . S
C1215 C1217 1.387 . S
C1216 C1213 1.398 . S
C1216 C1217 1.380 . S
C1216 H1230 0.930 . S
C1217 C1215 1.387 . S
C1217 C1216 1.380 . S
C1217 H1231 0.930 . S
C1218 O1198 1.254 . S
C1218 O1199 1.268 . S
C1219 O1203 1.284 . S
C1219 O1206 1.250 . S
C1220 Gd1153 2.828 . S
C1220 O1202 1.258 . S
C1220 O1207 1.252 . S
C1220 C1221 1.497 . S
C1221 C1220 1.497 . S
C1221 C1222 1.395 . S
C1221 C1223 1.380 . S
C1222 C1221 1.395 . S
C1222 C1225 1.398 . S
C1222 H1232 0.930 . S
C1223 C1221 1.380 . S
C1223 C1224 1.391 . S
C1223 H1233 0.930 . S
C1224 C1223 1.391 . S
C1224 C1226 1.387 . S
C1225 C1222 1.398 . S
C1225 C1226 1.380 . S
C1225 H1234 0.930 . S
C1226 C1224 1.387 . S
C1226 C1225 1.380 . S
C1226 H1235 0.930 . S
C1227 O1204 1.254 . S
C1227 O1205 1.268 . S
H1228 C1213 0.930 . S
H1229 C1214 0.930 . S
H1230 C1216 0.930 . S
H1231 C1217 0.930 . S
H1232 C1222 0.930 . S
H1233 C1223 0.930 . S
H1234 C1225 0.930 . S
H1235 C1226 0.930 . S
Gd1236 N1267 2.661 . S
Gd1236 N1273 2.601 . S
Gd1236 O1280 2.545 . S
Gd1236 O1281 2.606 . S
Gd1236 O1283 2.429 . S
Gd1236 O1284 2.545 . S
Gd1236 O1285 2.412 . S
Gd1236 O1287 2.362 . S
Gd1236 O1288 2.324 . S
Gd1236 C1295 2.828 . S
Gd1237 N1246 2.661 . S
Gd1237 N1250 2.601 . S
Gd1237 O1281 2.362 . S
Gd1237 O1282 2.324 . S
Gd1237 O1286 2.545 . S
Gd1237 O1287 2.606 . S
Gd1237 O1289 2.429 . S
Gd1237 O1290 2.545 . S
Gd1237 O1291 2.412 . S
Gd1237 C1304 2.828 . S
C1238 C1241 1.417 . S
C1238 C1243 1.431 . S
C1238 C1244 1.412 . S
C1239 C1242 1.437 . S
C1239 C1243 1.317 . S
C1239 H1258 0.929 . S
C1240 C1241 1.426 . S
C1240 C1242 1.413 . S
C1240 N1250 1.359 . S
C1241 C1238 1.417 . S
C1241 C1240 1.426 . S
C1241 N1246 1.350 . S
C1242 C1239 1.437 . S
C1242 C1240 1.413 . S
C1242 C1252 1.391 . S
C1243 C1238 1.431 . S
C1243 C1239 1.317 . S
C1243 H1254 0.930 . S
C1244 C1238 1.412 . S
C1244 C1245 1.355 . S
C1244 H1256 0.930 . S
C1245 C1244 1.355 . S
C1245 C1247 1.402 . S
C1245 H1257 0.930 . S
N1246 Gd1237 2.661 . S
N1246 C1241 1.350 . S
N1246 C1247 1.307 . S
C1247 C1245 1.402 . S
C1247 N1246 1.307 . S
C1247 H1248 0.930 . S
H1248 C1247 0.930 . S
C1249 N1250 1.334 . S
C1249 C1251 1.394 . S
C1249 H1253 0.930 . S
N1250 Gd1237 2.601 . S
N1250 C1240 1.359 . S
N1250 C1249 1.334 . S
C1251 C1249 1.394 . S
C1251 C1252 1.359 . S
C1251 H1263 0.930 . S
C1252 C1242 1.391 . S
C1252 C1251 1.359 . S
C1252 H1264 0.929 . S
H1253 C1249 0.930 . S
H1254 C1243 0.930 . S
H1255 C1272 0.930 . S
H1256 C1244 0.930 . S
H1257 C1245 0.930 . S
H1258 C1239 0.929 . S
H1259 C1277 0.930 . S
H1260 C1268 0.930 . S
H1261 C1269 0.930 . S
H1262 C1293 0.929 . S
H1263 C1251 0.930 . S
H1264 C1252 0.929 . S
H1265 C1294 0.930 . S
H1266 C1275 0.930 . S
N1267 Gd1236 2.661 . S
N1267 C1271 1.350 . S
N1267 C1272 1.307 . S
C1268 H1260 0.930 . S
C1268 C1269 1.355 . S
C1268 C1270 1.412 . S
C1269 H1261 0.930 . S
C1269 C1268 1.355 . S
C1269 C1272 1.402 . S
C1270 C1268 1.412 . S
C1270 C1271 1.417 . S
C1270 C1294 1.431 . S
C1271 N1267 1.350 . S
C1271 C1270 1.417 . S
C1271 C1274 1.426 . S
C1272 H1255 0.930 . S
C1272 N1267 1.307 . S
C1272 C1269 1.402 . S
N1273 Gd1236 2.601 . S
N1273 C1274 1.359 . S
N1273 C1277 1.334 . S
C1274 C1271 1.426 . S
C1274 N1273 1.359 . S
C1274 C1278 1.413 . S
C1275 H1266 0.930 . S
C1275 C1276 1.359 . S
C1275 C1277 1.394 . S
C1276 C1275 1.359 . S
C1276 C1278 1.391 . S
C1276 H1279 0.929 . S
C1277 H1259 0.930 . S
C1277 N1273 1.334 . S
C1277 C1275 1.394 . S
C1278 C1274 1.413 . S
C1278 C1276 1.391 . S
C1278 C1293 1.437 . S
H1279 C1276 0.929 . S
O1280 Gd1236 2.545 . S
O1280 C1295 1.258 . S
O1281 Gd1236 2.606 . S
O1281 Gd1237 2.362 . S
O1281 C1292 1.284 . S
O1282 Gd1237 2.324 . S
O1282 C1302 1.254 . S
O1283 Gd1236 2.429 . S
O1283 C1302 1.268 . S
O1284 Gd1236 2.545 . S
O1284 C1292 1.250 . S
O1285 Gd1236 2.412 . S
O1285 C1295 1.252 . S
O1286 Gd1237 2.545 . S
O1286 C1304 1.258 . S
O1287 Gd1236 2.362 . S
O1287 Gd1237 2.606 . S
O1287 C1303 1.284 . S
O1288 Gd1236 2.324 . S
O1288 C1311 1.254 . S
O1289 Gd1237 2.429 . S
O1289 C1311 1.268 . S
O1290 Gd1237 2.545 . S
O1290 C1303 1.250 . S
O1291 Gd1237 2.412 . S
O1291 C1304 1.252 . S
C1292 O1281 1.284 . S
C1292 O1284 1.250 . S
C1293 H1262 0.929 . S
C1293 C1278 1.437 . S
C1293 C1294 1.317 . S
C1294 H1265 0.930 . S
C1294 C1270 1.431 . S
C1294 C1293 1.317 . S
C1295 Gd1236 2.828 . S
C1295 O1280 1.258 . S
C1295 O1285 1.252 . S
C1295 C1296 1.497 . S
C1296 C1295 1.497 . S
C1296 C1297 1.395 . S
C1296 C1298 1.380 . S
C1297 C1296 1.395 . S
C1297 C1300 1.398 . S
C1297 H1312 0.930 . S
C1298 C1296 1.380 . S
C1298 C1299 1.391 . S
C1298 H1313 0.930 . S
C1299 C1298 1.391 . S
C1299 C1301 1.387 . S
C1300 C1297 1.398 . S
C1300 C1301 1.380 . S
C1300 H1314 0.930 . S
C1301 C1299 1.387 . S
C1301 C1300 1.380 . S
C1301 H1315 0.930 . S
C1302 O1282 1.254 . S
C1302 O1283 1.268 . S
C1303 O1287 1.284 . S
C1303 O1290 1.250 . S
C1304 Gd1237 2.828 . S
C1304 O1286 1.258 . S
C1304 O1291 1.252 . S
C1304 C1305 1.497 . S
C1305 C1304 1.497 . S
C1305 C1306 1.395 . S
C1305 C1307 1.380 . S
C1306 C1305 1.395 . S
C1306 C1309 1.398 . S
C1306 H1316 0.930 . S
C1307 C1305 1.380 . S
C1307 C1308 1.391 . S
C1307 H1317 0.930 . S
C1308 C1307 1.391 . S
C1308 C1310 1.387 . S
C1309 C1306 1.398 . S
C1309 C1310 1.380 . S
C1309 H1318 0.930 . S
C1310 C1308 1.387 . S
C1310 C1309 1.380 . S
C1310 H1319 0.930 . S
C1311 O1288 1.254 . S
C1311 O1289 1.268 . S
H1312 C1297 0.930 . S
H1313 C1298 0.930 . S
H1314 C1300 0.930 . S
H1315 C1301 0.930 . S
H1316 C1306 0.930 . S
H1317 C1307 0.930 . S
H1318 C1309 0.930 . S
H1319 C1310 0.930 . S
Gd1320 N1351 2.661 . S
Gd1320 N1357 2.601 . S
Gd1320 O1364 2.545 . S
Gd1320 O1365 2.606 . S
Gd1320 O1367 2.429 . S
Gd1320 O1368 2.545 . S
Gd1320 O1369 2.412 . S
Gd1320 O1371 2.362 . S
Gd1320 O1372 2.324 . S
Gd1320 C1379 2.828 . S
Gd1321 N1330 2.661 . S
Gd1321 N1334 2.601 . S
Gd1321 O1365 2.362 . S
Gd1321 O1366 2.324 . S
Gd1321 O1370 2.545 . S
Gd1321 O1371 2.606 . S
Gd1321 O1373 2.429 . S
Gd1321 O1374 2.545 . S
Gd1321 O1375 2.412 . S
Gd1321 C1388 2.828 . S
C1322 C1325 1.417 . S
C1322 C1327 1.431 . S
C1322 C1328 1.412 . S
C1323 C1326 1.437 . S
C1323 C1327 1.317 . S
C1323 H1342 0.929 . S
C1324 C1325 1.426 . S
C1324 C1326 1.413 . S
C1324 N1334 1.359 . S
C1325 C1322 1.417 . S
C1325 C1324 1.426 . S
C1325 N1330 1.350 . S
C1326 C1323 1.437 . S
C1326 C1324 1.413 . S
C1326 C1336 1.391 . S
C1327 C1322 1.431 . S
C1327 C1323 1.317 . S
C1327 H1338 0.930 . S
C1328 C1322 1.412 . S
C1328 C1329 1.355 . S
C1328 H1340 0.930 . S
C1329 C1328 1.355 . S
C1329 C1331 1.402 . S
C1329 H1341 0.930 . S
N1330 Gd1321 2.661 . S
N1330 C1325 1.350 . S
N1330 C1331 1.307 . S
C1331 C1329 1.402 . S
C1331 N1330 1.307 . S
C1331 H1332 0.930 . S
H1332 C1331 0.930 . S
C1333 N1334 1.334 . S
C1333 C1335 1.394 . S
C1333 H1337 0.930 . S
N1334 Gd1321 2.601 . S
N1334 C1324 1.359 . S
N1334 C1333 1.334 . S
C1335 C1333 1.394 . S
C1335 C1336 1.359 . S
C1335 H1347 0.930 . S
C1336 C1326 1.391 . S
C1336 C1335 1.359 . S
C1336 H1348 0.929 . S
H1337 C1333 0.930 . S
H1338 C1327 0.930 . S
H1339 C1356 0.930 . S
H1340 C1328 0.930 . S
H1341 C1329 0.930 . S
H1342 C1323 0.929 . S
H1343 C1361 0.930 . S
H1344 C1352 0.930 . S
H1345 C1353 0.930 . S
H1346 C1377 0.929 . S
H1347 C1335 0.930 . S
H1348 C1336 0.929 . S
H1349 C1378 0.930 . S
H1350 C1359 0.930 . S
N1351 Gd1320 2.661 . S
N1351 C1355 1.350 . S
N1351 C1356 1.307 . S
C1352 H1344 0.930 . S
C1352 C1353 1.355 . S
C1352 C1354 1.412 . S
C1353 H1345 0.930 . S
C1353 C1352 1.355 . S
C1353 C1356 1.402 . S
C1354 C1352 1.412 . S
C1354 C1355 1.417 . S
C1354 C1378 1.431 . S
C1355 N1351 1.350 . S
C1355 C1354 1.417 . S
C1355 C1358 1.426 . S
C1356 H1339 0.930 . S
C1356 N1351 1.307 . S
C1356 C1353 1.402 . S
N1357 Gd1320 2.601 . S
N1357 C1358 1.359 . S
N1357 C1361 1.334 . S
C1358 C1355 1.426 . S
C1358 N1357 1.359 . S
C1358 C1362 1.413 . S
C1359 H1350 0.930 . S
C1359 C1360 1.359 . S
C1359 C1361 1.394 . S
C1360 C1359 1.359 . S
C1360 C1362 1.391 . S
C1360 H1363 0.929 . S
C1361 H1343 0.930 . S
C1361 N1357 1.334 . S
C1361 C1359 1.394 . S
C1362 C1358 1.413 . S
C1362 C1360 1.391 . S
C1362 C1377 1.437 . S
H1363 C1360 0.929 . S
O1364 Gd1320 2.545 . S
O1364 C1379 1.258 . S
O1365 Gd1320 2.606 . S
O1365 Gd1321 2.362 . S
O1365 C1376 1.284 . S
O1366 Gd1321 2.324 . S
O1366 C1386 1.254 . S
O1367 Gd1320 2.429 . S
O1367 C1386 1.268 . S
O1368 Gd1320 2.545 . S
O1368 C1376 1.250 . S
O1369 Gd1320 2.412 . S
O1369 C1379 1.252 . S
O1370 Gd1321 2.545 . S
O1370 C1388 1.258 . S
O1371 Gd1320 2.362 . S
O1371 Gd1321 2.606 . S
O1371 C1387 1.284 . S
O1372 Gd1320 2.324 . S
O1372 C1395 1.254 . S
O1373 Gd1321 2.429 . S
O1373 C1395 1.268 . S
O1374 Gd1321 2.545 . S
O1374 C1387 1.250 . S
O1375 Gd1321 2.412 . S
O1375 C1388 1.252 . S
C1376 O1365 1.284 . S
C1376 O1368 1.250 . S
C1377 H1346 0.929 . S
C1377 C1362 1.437 . S
C1377 C1378 1.317 . S
C1378 H1349 0.930 . S
C1378 C1354 1.431 . S
C1378 C1377 1.317 . S
C1379 Gd1320 2.828 . S
C1379 O1364 1.258 . S
C1379 O1369 1.252 . S
C1379 C1380 1.497 . S
C1380 C1379 1.497 . S
C1380 C1381 1.395 . S
C1380 C1382 1.380 . S
C1381 C1380 1.395 . S
C1381 C1384 1.398 . S
C1381 H1396 0.930 . S
C1382 C1380 1.380 . S
C1382 C1383 1.391 . S
C1382 H1397 0.930 . S
C1383 C1382 1.391 . S
C1383 C1385 1.387 . S
C1384 C1381 1.398 . S
C1384 C1385 1.380 . S
C1384 H1398 0.930 . S
C1385 C1383 1.387 . S
C1385 C1384 1.380 . S
C1385 H1399 0.930 . S
C1386 O1366 1.254 . S
C1386 O1367 1.268 . S
C1387 O1371 1.284 . S
C1387 O1374 1.250 . S
C1388 Gd1321 2.828 . S
C1388 O1370 1.258 . S
C1388 O1375 1.252 . S
C1388 C1389 1.497 . S
C1389 C1388 1.497 . S
C1389 C1390 1.395 . S
C1389 C1391 1.380 . S
C1390 C1389 1.395 . S
C1390 C1393 1.398 . S
C1390 H1400 0.930 . S
C1391 C1389 1.380 . S
C1391 C1392 1.391 . S
C1391 H1401 0.930 . S
C1392 C1391 1.391 . S
C1392 C1394 1.387 . S
C1393 C1390 1.398 . S
C1393 C1394 1.380 . S
C1393 H1402 0.930 . S
C1394 C1392 1.387 . S
C1394 C1393 1.380 . S
C1394 H1403 0.930 . S
C1395 O1372 1.254 . S
C1395 O1373 1.268 . S
H1396 C1381 0.930 . S
H1397 C1382 0.930 . S
H1398 C1384 0.930 . S
H1399 C1385 0.930 . S
H1400 C1390 0.930 . S
H1401 C1391 0.930 . S
H1402 C1393 0.930 . S
H1403 C1394 0.930 . S
H1404 C1412 0.929 . S
H1405 C1414 0.930 . S
H1406 C1416 0.930 . S
H1407 C1419 0.929 . S
H1408 C1422 0.930 . S
H1409 C1424 0.960 . S
H1410 C1424 0.960 . S
H1411 C1424 0.960 . S
C1412 H1404 0.929 . S
C1412 C1413 1.377 . S
C1412 C1414 1.384 . S
C1413 C1412 1.377 . S
C1413 C1419 1.390 . S
C1414 H1405 0.930 . S
C1414 C1412 1.384 . S
C1414 C1415 1.372 . S
C1415 C1414 1.372 . S
C1415 C1416 1.400 . S
C1415 C1420 1.490 . S
C1416 H1406 0.930 . S
C1416 C1415 1.400 . S
C1416 C1419 1.386 . S
H1417 C1433 0.930 . S
H1418 C1434 0.931 . S
C1419 H1407 0.929 . S
C1419 C1413 1.390 . S
C1419 C1416 1.386 . S
C1420 C1415 1.490 . S
C1420 C1422 1.395 . S
C1420 C1423 1.403 . S
H1421 C1427 0.930 . S
C1422 H1408 0.930 . S
C1422 C1420 1.395 . S
C1422 C1425 1.403 . S
C1423 C1420 1.403 . S
C1423 C1424 1.524 . S
C1423 C1427 1.400 . S
C1424 H1409 0.960 . S
C1424 H1410 0.960 . S
C1424 H1411 0.960 . S
C1424 C1423 1.524 . S
C1425 C1422 1.403 . S
C1425 C1426 1.392 . S
C1425 C1429 1.495 . S
C1426 C1425 1.392 . S
C1426 C1427 1.385 . S
C1426 C1428 1.478 . S
C1427 H1421 0.930 . S
C1427 C1423 1.400 . S
C1427 C1426 1.385 . S
C1428 C1426 1.478 . S
C1428 C1430 1.381 . S
C1428 C1434 1.383 . S
C1429 C1425 1.495 . S
C1429 H1435 0.959 . S
C1429 H1436 0.961 . S
C1429 H1437 0.960 . S
C1430 C1428 1.381 . S
C1430 C1431 1.394 . S
C1430 H1438 0.930 . S
C1431 C1430 1.394 . S
C1431 C1432 1.383 . S
C1431 H1439 0.929 . S
C1432 C1431 1.383 . S
C1432 C1433 1.377 . S
C1433 H1417 0.930 . S
C1433 C1432 1.377 . S
C1433 C1434 1.379 . S
C1434 H1418 0.931 . S
C1434 C1428 1.383 . S
C1434 C1433 1.379 . S
H1435 C1429 0.959 . S
H1436 C1429 0.961 . S
H1437 C1429 0.960 . S
H1438 C1430 0.930 . S
H1439 C1431 0.929 . S
H1440 C1448 0.929 . S
H1441 C1450 0.930 . S
H1442 C1452 0.930 . S
H1443 C1455 0.929 . S
H1444 C1458 0.930 . S
H1445 C1460 0.960 . S
H1446 C1460 0.960 . S
H1447 C1460 0.960 . S
C1448 H1440 0.929 . S
C1448 C1449 1.377 . S
C1448 C1450 1.384 . S
C1449 C1448 1.377 . S
C1449 C1455 1.390 . S
C1450 H1441 0.930 . S
C1450 C1448 1.384 . S
C1450 C1451 1.372 . S
C1451 C1450 1.372 . S
C1451 C1452 1.400 . S
C1451 C1456 1.490 . S
C1452 H1442 0.930 . S
C1452 C1451 1.400 . S
C1452 C1455 1.386 . S
H1453 C1469 0.930 . S
H1454 C1470 0.931 . S
C1455 H1443 0.929 . S
C1455 C1449 1.390 . S
C1455 C1452 1.386 . S
C1456 C1451 1.490 . S
C1456 C1458 1.395 . S
C1456 C1459 1.403 . S
H1457 C1463 0.930 . S
C1458 H1444 0.930 . S
C1458 C1456 1.395 . S
C1458 C1461 1.403 . S
C1459 C1456 1.403 . S
C1459 C1460 1.524 . S
C1459 C1463 1.400 . S
C1460 H1445 0.960 . S
C1460 H1446 0.960 . S
C1460 H1447 0.960 . S
C1460 C1459 1.524 . S
C1461 C1458 1.403 . S
C1461 C1462 1.392 . S
C1461 C1465 1.495 . S
C1462 C1461 1.392 . S
C1462 C1463 1.385 . S
C1462 C1464 1.478 . S
C1463 H1457 0.930 . S
C1463 C1459 1.400 . S
C1463 C1462 1.385 . S
C1464 C1462 1.478 . S
C1464 C1466 1.381 . S
C1464 C1470 1.383 . S
C1465 C1461 1.495 . S
C1465 H1471 0.959 . S
C1465 H1472 0.961 . S
C1465 H1473 0.960 . S
C1466 C1464 1.381 . S
C1466 C1467 1.394 . S
C1466 H1474 0.930 . S
C1467 C1466 1.394 . S
C1467 C1468 1.383 . S
C1467 H1475 0.929 . S
C1468 C1467 1.383 . S
C1468 C1469 1.377 . S
C1469 H1453 0.930 . S
C1469 C1468 1.377 . S
C1469 C1470 1.379 . S
C1470 H1454 0.931 . S
C1470 C1464 1.383 . S
C1470 C1469 1.379 . S
H1471 C1465 0.959 . S
H1472 C1465 0.961 . S
H1473 C1465 0.960 . S
H1474 C1466 0.930 . S
H1475 C1467 0.929 . S
H1476 C1484 0.929 . S
H1477 C1486 0.930 . S
H1478 C1488 0.930 . S
H1479 C1491 0.929 . S
H1480 C1494 0.930 . S
H1481 C1496 0.960 . S
H1482 C1496 0.960 . S
H1483 C1496 0.960 . S
C1484 H1476 0.929 . S
C1484 C1485 1.377 . S
C1484 C1486 1.384 . S
C1485 C1484 1.377 . S
C1485 C1491 1.390 . S
C1486 H1477 0.930 . S
C1486 C1484 1.384 . S
C1486 C1487 1.372 . S
C1487 C1486 1.372 . S
C1487 C1488 1.400 . S
C1487 C1492 1.490 . S
C1488 H1478 0.930 . S
C1488 C1487 1.400 . S
C1488 C1491 1.386 . S
H1489 C1505 0.930 . S
H1490 C1506 0.931 . S
C1491 H1479 0.929 . S
C1491 C1485 1.390 . S
C1491 C1488 1.386 . S
C1492 C1487 1.490 . S
C1492 C1494 1.395 . S
C1492 C1495 1.403 . S
H1493 C1499 0.930 . S
C1494 H1480 0.930 . S
C1494 C1492 1.395 . S
C1494 C1497 1.403 . S
C1495 C1492 1.403 . S
C1495 C1496 1.524 . S
C1495 C1499 1.400 . S
C1496 H1481 0.960 . S
C1496 H1482 0.960 . S
C1496 H1483 0.960 . S
C1496 C1495 1.524 . S
C1497 C1494 1.403 . S
C1497 C1498 1.392 . S
C1497 C1501 1.495 . S
C1498 C1497 1.392 . S
C1498 C1499 1.385 . S
C1498 C1500 1.478 . S
C1499 H1493 0.930 . S
C1499 C1495 1.400 . S
C1499 C1498 1.385 . S
C1500 C1498 1.478 . S
C1500 C1502 1.381 . S
C1500 C1506 1.383 . S
C1501 C1497 1.495 . S
C1501 H1507 0.959 . S
C1501 H1508 0.961 . S
C1501 H1509 0.960 . S
C1502 C1500 1.381 . S
C1502 C1503 1.394 . S
C1502 H1510 0.930 . S
C1503 C1502 1.394 . S
C1503 C1504 1.383 . S
C1503 H1511 0.929 . S
C1504 C1503 1.383 . S
C1504 C1505 1.377 . S
C1505 H1489 0.930 . S
C1505 C1504 1.377 . S
C1505 C1506 1.379 . S
C1506 H1490 0.931 . S
C1506 C1500 1.383 . S
C1506 C1505 1.379 . S
H1507 C1501 0.959 . S
H1508 C1501 0.961 . S
H1509 C1501 0.960 . S
H1510 C1502 0.930 . S
H1511 C1503 0.929 . S
H1512 C1520 0.929 . S
H1513 C1522 0.930 . S
H1514 C1524 0.930 . S
H1515 C1527 0.929 . S
H1516 C1530 0.930 . S
H1517 C1532 0.960 . S
H1518 C1532 0.960 . S
H1519 C1532 0.960 . S
C1520 H1512 0.929 . S
C1520 C1521 1.377 . S
C1520 C1522 1.384 . S
C1521 C1520 1.377 . S
C1521 C1527 1.390 . S
C1522 H1513 0.930 . S
C1522 C1520 1.384 . S
C1522 C1523 1.372 . S
C1523 C1522 1.372 . S
C1523 C1524 1.400 . S
C1523 C1528 1.490 . S
C1524 H1514 0.930 . S
C1524 C1523 1.400 . S
C1524 C1527 1.386 . S
H1525 C1541 0.930 . S
H1526 C1542 0.931 . S
C1527 H1515 0.929 . S
C1527 C1521 1.390 . S
C1527 C1524 1.386 . S
C1528 C1523 1.490 . S
C1528 C1530 1.395 . S
C1528 C1531 1.403 . S
H1529 C1535 0.930 . S
C1530 H1516 0.930 . S
C1530 C1528 1.395 . S
C1530 C1533 1.403 . S
C1531 C1528 1.403 . S
C1531 C1532 1.524 . S
C1531 C1535 1.400 . S
C1532 H1517 0.960 . S
C1532 H1518 0.960 . S
C1532 H1519 0.960 . S
C1532 C1531 1.524 . S
C1533 C1530 1.403 . S
C1533 C1534 1.392 . S
C1533 C1537 1.495 . S
C1534 C1533 1.392 . S
C1534 C1535 1.385 . S
C1534 C1536 1.478 . S
C1535 H1529 0.930 . S
C1535 C1531 1.400 . S
C1535 C1534 1.385 . S
C1536 C1534 1.478 . S
C1536 C1538 1.381 . S
C1536 C1542 1.383 . S
C1537 C1533 1.495 . S
C1537 H1543 0.959 . S
C1537 H1544 0.961 . S
C1537 H1545 0.960 . S
C1538 C1536 1.381 . S
C1538 C1539 1.394 . S
C1538 H1546 0.930 . S
C1539 C1538 1.394 . S
C1539 C1540 1.383 . S
C1539 H1547 0.929 . S
C1540 C1539 1.383 . S
C1540 C1541 1.377 . S
C1541 H1525 0.930 . S
C1541 C1540 1.377 . S
C1541 C1542 1.379 . S
C1542 H1526 0.931 . S
C1542 C1536 1.383 . S
C1542 C1541 1.379 . S
H1543 C1537 0.959 . S
H1544 C1537 0.961 . S
H1545 C1537 0.960 . S
H1546 C1538 0.930 . S
H1547 C1539 0.929 . S
H1548 C1556 0.929 . S
H1549 C1558 0.930 . S
H1550 C1560 0.930 . S
H1551 C1563 0.929 . S
H1552 C1566 0.930 . S
H1553 C1568 0.960 . S
H1554 C1568 0.960 . S
H1555 C1568 0.960 . S
C1556 H1548 0.929 . S
C1556 C1557 1.377 . S
C1556 C1558 1.384 . S
C1557 C1556 1.377 . S
C1557 C1563 1.390 . S
C1558 H1549 0.930 . S
C1558 C1556 1.384 . S
C1558 C1559 1.372 . S
C1559 C1558 1.372 . S
C1559 C1560 1.400 . S
C1559 C1564 1.490 . S
C1560 H1550 0.930 . S
C1560 C1559 1.400 . S
C1560 C1563 1.386 . S
H1561 C1577 0.930 . S
H1562 C1578 0.931 . S
C1563 H1551 0.929 . S
C1563 C1557 1.390 . S
C1563 C1560 1.386 . S
C1564 C1559 1.490 . S
C1564 C1566 1.395 . S
C1564 C1567 1.403 . S
H1565 C1571 0.930 . S
C1566 H1552 0.930 . S
C1566 C1564 1.395 . S
C1566 C1569 1.403 . S
C1567 C1564 1.403 . S
C1567 C1568 1.524 . S
C1567 C1571 1.400 . S
C1568 H1553 0.960 . S
C1568 H1554 0.960 . S
C1568 H1555 0.960 . S
C1568 C1567 1.524 . S
C1569 C1566 1.403 . S
C1569 C1570 1.392 . S
C1569 C1573 1.495 . S
C1570 C1569 1.392 . S
C1570 C1571 1.385 . S
C1570 C1572 1.478 . S
C1571 H1565 0.930 . S
C1571 C1567 1.400 . S
C1571 C1570 1.385 . S
C1572 C1570 1.478 . S
C1572 C1574 1.381 . S
C1572 C1578 1.383 . S
C1573 C1569 1.495 . S
C1573 H1579 0.959 . S
C1573 H1580 0.961 . S
C1573 H1581 0.960 . S
C1574 C1572 1.381 . S
C1574 C1575 1.394 . S
C1574 H1582 0.930 . S
C1575 C1574 1.394 . S
C1575 C1576 1.383 . S
C1575 H1583 0.929 . S
C1576 C1575 1.383 . S
C1576 C1577 1.377 . S
C1577 H1561 0.930 . S
C1577 C1576 1.377 . S
C1577 C1578 1.379 . S
C1578 H1562 0.931 . S
C1578 C1572 1.383 . S
C1578 C1577 1.379 . S
H1579 C1573 0.959 . S
H1580 C1573 0.961 . S
H1581 C1573 0.960 . S
H1582 C1574 0.930 . S
H1583 C1575 0.929 . S
H1584 C1592 0.929 . S
H1585 C1594 0.930 . S
H1586 C1596 0.930 . S
H1587 C1599 0.929 . S
H1588 C1602 0.930 . S
H1589 C1604 0.960 . S
H1590 C1604 0.960 . S
H1591 C1604 0.960 . S
C1592 H1584 0.929 . S
C1592 C1593 1.377 . S
C1592 C1594 1.384 . S
C1593 C1592 1.377 . S
C1593 C1599 1.390 . S
C1594 H1585 0.930 . S
C1594 C1592 1.384 . S
C1594 C1595 1.372 . S
C1595 C1594 1.372 . S
C1595 C1596 1.400 . S
C1595 C1600 1.490 . S
C1596 H1586 0.930 . S
C1596 C1595 1.400 . S
C1596 C1599 1.386 . S
H1597 C1613 0.930 . S
H1598 C1614 0.931 . S
C1599 H1587 0.929 . S
C1599 C1593 1.390 . S
C1599 C1596 1.386 . S
C1600 C1595 1.490 . S
C1600 C1602 1.395 . S
C1600 C1603 1.403 . S
H1601 C1607 0.930 . S
C1602 H1588 0.930 . S
C1602 C1600 1.395 . S
C1602 C1605 1.403 . S
C1603 C1600 1.403 . S
C1603 C1604 1.524 . S
C1603 C1607 1.400 . S
C1604 H1589 0.960 . S
C1604 H1590 0.960 . S
C1604 H1591 0.960 . S
C1604 C1603 1.524 . S
C1605 C1602 1.403 . S
C1605 C1606 1.392 . S
C1605 C1609 1.495 . S
C1606 C1605 1.392 . S
C1606 C1607 1.385 . S
C1606 C1608 1.478 . S
C1607 H1601 0.930 . S
C1607 C1603 1.400 . S
C1607 C1606 1.385 . S
C1608 C1606 1.478 . S
C1608 C1610 1.381 . S
C1608 C1614 1.383 . S
C1609 C1605 1.495 . S
C1609 H1615 0.959 . S
C1609 H1616 0.961 . S
C1609 H1617 0.960 . S
C1610 C1608 1.381 . S
C1610 C1611 1.414 . S
C1610 H1618 0.911 1_556 S
C1611 C1610 1.414 . S
C1611 C1612 1.417 . S
C1611 H1619 0.878 1_556 S
C1612 C1611 1.417 . S
C1612 C1613 1.377 . S
C1613 H1597 0.930 . S
C1613 C1612 1.377 . S
C1613 C1614 1.379 . S
C1614 H1598 0.931 . S
C1614 C1608 1.383 . S
C1614 C1613 1.379 . S
H1615 C1609 0.959 . S
H1616 C1609 0.961 . S
H1617 C1609 0.960 . S
H1618 C1610 0.911 1_554 S
H1619 C1611 0.878 1_554 S
H1620 C1628 0.929 . S
H1621 C1630 0.930 . S
H1622 C1632 0.930 . S
H1623 C1635 0.929 . S
H1624 C1638 0.930 . S
H1625 C1640 0.960 . S
H1626 C1640 0.960 . S
H1627 C1640 0.960 . S
C1628 H1620 0.929 . S
C1628 C1629 1.377 . S
C1628 C1630 1.384 . S
C1629 C1628 1.377 . S
C1629 C1635 1.390 . S
C1630 H1621 0.930 . S
C1630 C1628 1.384 . S
C1630 C1631 1.372 . S
C1631 C1630 1.372 . S
C1631 C1632 1.400 . S
C1631 C1636 1.490 . S
C1632 H1622 0.930 . S
C1632 C1631 1.400 . S
C1632 C1635 1.386 . S
H1633 C1649 0.930 . S
H1634 C1650 0.931 . S
C1635 H1623 0.929 . S
C1635 C1629 1.390 . S
C1635 C1632 1.386 . S
C1636 C1631 1.490 . S
C1636 C1638 1.395 . S
C1636 C1639 1.403 . S
H1637 C1643 0.930 . S
C1638 H1624 0.930 . S
C1638 C1636 1.395 . S
C1638 C1641 1.403 . S
C1639 C1636 1.403 . S
C1639 C1640 1.524 . S
C1639 C1643 1.400 . S
C1640 H1625 0.960 . S
C1640 H1626 0.960 . S
C1640 H1627 0.960 . S
C1640 C1639 1.524 . S
C1641 C1638 1.403 . S
C1641 C1642 1.392 . S
C1641 C1645 1.495 . S
C1642 C1641 1.392 . S
C1642 C1643 1.385 . S
C1642 C1644 1.478 . S
C1643 H1637 0.930 . S
C1643 C1639 1.400 . S
C1643 C1642 1.385 . S
C1644 C1642 1.478 . S
C1644 C1646 1.381 . S
C1644 C1650 1.383 . S
C1645 C1641 1.495 . S
C1645 H1651 0.959 . S
C1645 H1652 0.961 . S
C1645 H1653 0.960 . S
C1646 C1644 1.381 . S
C1646 C1647 1.394 . S
C1646 H1654 0.930 . S
C1647 C1646 1.394 . S
C1647 C1648 1.383 . S
C1647 H1655 0.929 1_556 S
C1648 C1647 1.383 . S
C1648 C1649 1.377 . S
C1649 H1633 0.930 . S
C1649 C1648 1.377 . S
C1649 C1650 1.379 . S
C1650 H1634 0.931 . S
C1650 C1644 1.383 . S
C1650 C1649 1.379 . S
H1651 C1645 0.959 . S
H1652 C1645 0.961 . S
H1653 C1645 0.960 . S
H1654 C1646 0.930 . S
H1655 C1647 0.929 1_554 S
H1656 C1664 0.929 . S
H1657 C1666 0.930 . S
H1658 C1668 0.930 . S
H1659 C1671 0.929 . S
H1660 C1674 0.930 . S
H1661 C1676 0.960 . S
H1662 C1676 0.960 . S
H1663 C1676 0.960 . S
C1664 H1656 0.929 . S
C1664 C1665 1.377 . S
C1664 C1666 1.384 . S
C1665 C1664 1.377 . S
C1665 C1671 1.390 . S
C1666 H1657 0.930 . S
C1666 C1664 1.384 . S
C1666 C1667 1.372 . S
C1667 C1666 1.372 . S
C1667 C1668 1.400 . S
C1667 C1672 1.490 . S
C1668 H1658 0.930 . S
C1668 C1667 1.400 . S
C1668 C1671 1.386 . S
H1669 C1685 0.930 1_554 S
H1670 C1686 0.931 . S
C1671 H1659 0.929 . S
C1671 C1665 1.390 . S
C1671 C1668 1.386 . S
C1672 C1667 1.490 . S
C1672 C1674 1.395 . S
C1672 C1675 1.403 . S
H1673 C1679 0.930 . S
C1674 H1660 0.930 . S
C1674 C1672 1.395 . S
C1674 C1677 1.403 . S
C1675 C1672 1.403 . S
C1675 C1676 1.524 . S
C1675 C1679 1.400 . S
C1676 H1661 0.960 . S
C1676 H1662 0.960 . S
C1676 H1663 0.960 . S
C1676 C1675 1.524 . S
C1677 C1674 1.403 . S
C1677 C1678 1.392 . S
C1677 C1681 1.495 . S
C1678 C1677 1.392 . S
C1678 C1679 1.385 . S
C1678 C1680 1.478 . S
C1679 H1673 0.930 . S
C1679 C1675 1.400 . S
C1679 C1678 1.385 . S
C1680 C1678 1.478 . S
C1680 C1682 1.381 . S
C1680 C1686 1.383 . S
C1681 C1677 1.495 . S
C1681 H1687 0.959 . S
C1681 H1688 0.961 . S
C1681 H1689 0.960 . S
C1682 C1680 1.381 . S
C1682 C1683 1.394 . S
C1682 H1690 0.930 . S
C1683 C1682 1.394 . S
C1683 C1684 1.383 . S
C1683 H1691 0.929 . S
C1684 C1683 1.383 . S
C1684 C1685 1.377 . S
C1685 H1669 0.930 1_556 S
C1685 C1684 1.377 . S
C1685 C1686 1.379 . S
C1686 H1670 0.931 . S
C1686 C1680 1.383 . S
C1686 C1685 1.379 . S
H1687 C1681 0.959 . S
H1688 C1681 0.961 . S
H1689 C1681 0.960 . S
H1690 C1682 0.930 . S
H1691 C1683 0.929 . S
H1692 C1700 0.929 . S
H1693 C1702 0.930 . S
H1694 C1704 0.930 . S
H1695 C1707 0.929 . S
H1696 C1710 0.930 . S
H1697 C1712 0.960 . S
H1698 C1712 0.960 . S
H1699 C1712 0.960 . S
C1700 H1692 0.929 . S
C1700 C1701 1.377 . S
C1700 C1702 1.384 . S
C1701 C1700 1.377 . S
C1701 C1707 1.390 . S
C1702 H1693 0.930 . S
C1702 C1700 1.384 . S
C1702 C1703 1.372 . S
C1703 C1702 1.372 . S
C1703 C1704 1.400 . S
C1703 C1708 1.490 . S
C1704 H1694 0.930 . S
C1704 C1703 1.400 . S
C1704 C1707 1.386 . S
H1705 C1721 0.930 1_554 S
H1706 C1722 0.931 . S
C1707 H1695 0.929 . S
C1707 C1701 1.390 . S
C1707 C1704 1.386 . S
C1708 C1703 1.490 . S
C1708 C1710 1.395 . S
C1708 C1711 1.403 . S
H1709 C1715 0.930 . S
C1710 H1696 0.930 . S
C1710 C1708 1.395 . S
C1710 C1713 1.403 . S
C1711 C1708 1.403 . S
C1711 C1712 1.524 . S
C1711 C1715 1.400 . S
C1712 H1697 0.960 . S
C1712 H1698 0.960 . S
C1712 H1699 0.960 . S
C1712 C1711 1.524 . S
C1713 C1710 1.403 . S
C1713 C1714 1.392 . S
C1713 C1717 1.495 . S
C1714 C1713 1.392 . S
C1714 C1715 1.385 . S
C1714 C1716 1.478 . S
C1715 H1709 0.930 . S
C1715 C1711 1.400 . S
C1715 C1714 1.385 . S
C1716 C1714 1.478 . S
C1716 C1718 1.381 . S
C1716 C1722 1.383 . S
C1717 C1713 1.495 . S
C1717 H1723 0.959 . S
C1717 H1724 0.961 . S
C1717 H1725 0.960 . S
C1718 C1716 1.381 . S
C1718 C1719 1.394 . S
C1718 H1726 0.930 . S
C1719 C1718 1.394 . S
C1719 C1720 1.383 . S
C1719 H1727 0.929 . S
C1720 C1719 1.383 . S
C1720 C1721 1.377 . S
C1721 H1705 0.930 1_556 S
C1721 C1720 1.377 . S
C1721 C1722 1.379 . S
C1722 H1706 0.931 . S
C1722 C1716 1.383 . S
C1722 C1721 1.379 . S
H1723 C1717 0.959 . S
H1724 C1717 0.961 . S
H1725 C1717 0.960 . S
H1726 C1718 0.930 . S
H1727 C1719 0.929 . S
H1728 C1736 0.929 . S
H1729 C1738 0.930 . S
H1730 C1740 0.930 . S
H1731 C1743 0.929 . S
H1732 C1746 0.930 . S
H1733 C1748 0.960 . S
H1734 C1748 0.960 . S
H1735 C1748 0.960 . S
C1736 H1728 0.929 . S
C1736 C1737 1.377 . S
C1736 C1738 1.384 . S
C1737 C1736 1.377 . S
C1737 C1743 1.390 . S
C1738 H1729 0.930 . S
C1738 C1736 1.384 . S
C1738 C1739 1.372 . S
C1739 C1738 1.372 . S
C1739 C1740 1.400 . S
C1739 C1744 1.490 . S
C1740 H1730 0.930 . S
C1740 C1739 1.400 . S
C1740 C1743 1.386 . S
H1741 C1757 0.930 . S
H1742 C1758 0.931 . S
C1743 H1731 0.929 . S
C1743 C1737 1.390 . S
C1743 C1740 1.386 . S
C1744 C1739 1.490 . S
C1744 C1746 1.395 . S
C1744 C1747 1.403 . S
H1745 C1751 0.930 . S
C1746 H1732 0.930 . S
C1746 C1744 1.395 . S
C1746 C1749 1.403 . S
C1747 C1744 1.403 . S
C1747 C1748 1.524 . S
C1747 C1751 1.400 . S
C1748 H1733 0.960 . S
C1748 H1734 0.960 . S
C1748 H1735 0.960 . S
C1748 C1747 1.524 . S
C1749 C1746 1.403 . S
C1749 C1750 1.392 . S
C1749 C1753 1.495 . S
C1750 C1749 1.392 . S
C1750 C1751 1.385 . S
C1750 C1752 1.478 . S
C1751 H1745 0.930 . S
C1751 C1747 1.400 . S
C1751 C1750 1.385 . S
C1752 C1750 1.478 . S
C1752 C1754 1.381 . S
C1752 C1758 1.383 . S
C1753 C1749 1.495 . S
C1753 H1759 0.959 . S
C1753 H1760 0.961 . S
C1753 H1761 0.960 . S
C1754 C1752 1.381 . S
C1754 C1755 1.394 . S
C1754 H1762 0.930 . S
C1755 C1754 1.394 . S
C1755 C1756 1.383 . S
C1755 H1763 0.929 . S
C1756 C1755 1.383 . S
C1756 C1757 1.377 . S
C1757 H1741 0.930 . S
C1757 C1756 1.377 . S
C1757 C1758 1.379 . S
C1758 H1742 0.931 . S
C1758 C1752 1.383 . S
C1758 C1757 1.379 . S
H1759 C1753 0.959 . S
H1760 C1753 0.961 . S
H1761 C1753 0.960 . S
H1762 C1754 0.930 . S
H1763 C1755 0.929 . S
H1764 C1772 0.929 . S
H1765 C1774 0.930 . S
H1766 C1776 0.930 . S
H1767 C1779 0.929 . S
H1768 C1782 0.930 . S
H1769 C1784 0.960 . S
H1770 C1784 0.960 . S
H1771 C1784 0.960 . S
C1772 H1764 0.929 . S
C1772 C1773 1.377 . S
C1772 C1774 1.384 . S
C1773 C1772 1.377 . S
C1773 C1779 1.390 . S
C1774 H1765 0.930 . S
C1774 C1772 1.384 . S
C1774 C1775 1.372 . S
C1775 C1774 1.372 . S
C1775 C1776 1.400 . S
C1775 C1780 1.490 . S
C1776 H1766 0.930 . S
C1776 C1775 1.400 . S
C1776 C1779 1.386 . S
H1777 C1793 0.930 . S
H1778 C1794 0.931 . S
C1779 H1767 0.929 . S
C1779 C1773 1.390 . S
C1779 C1776 1.386 . S
C1780 C1775 1.490 . S
C1780 C1782 1.395 . S
C1780 C1783 1.403 . S
H1781 C1787 0.930 . S
C1782 H1768 0.930 . S
C1782 C1780 1.395 . S
C1782 C1785 1.403 . S
C1783 C1780 1.403 . S
C1783 C1784 1.524 . S
C1783 C1787 1.400 . S
C1784 H1769 0.960 . S
C1784 H1770 0.960 . S
C1784 H1771 0.960 . S
C1784 C1783 1.524 . S
C1785 C1782 1.403 . S
C1785 C1786 1.392 . S
C1785 C1789 1.495 . S
C1786 C1785 1.392 . S
C1786 C1787 1.385 . S
C1786 C1788 1.478 . S
C1787 H1781 0.930 . S
C1787 C1783 1.400 . S
C1787 C1786 1.385 . S
C1788 C1786 1.478 . S
C1788 C1790 1.381 . S
C1788 C1794 1.383 . S
C1789 C1785 1.495 . S
C1789 H1795 0.959 . S
C1789 H1796 0.961 . S
C1789 H1797 0.960 . S
C1790 C1788 1.381 . S
C1790 C1791 1.394 . S
C1790 H1798 0.930 . S
C1791 C1790 1.394 . S
C1791 C1792 1.383 . S
C1791 H1799 0.929 . S
C1792 C1791 1.383 . S
C1792 C1793 1.377 . S
C1793 H1777 0.930 . S
C1793 C1792 1.377 . S
C1793 C1794 1.379 . S
C1794 H1778 0.931 . S
C1794 C1788 1.383 . S
C1794 C1793 1.379 . S
H1795 C1789 0.959 . S
H1796 C1789 0.961 . S
H1797 C1789 0.960 . S
H1798 C1790 0.930 . S
H1799 C1791 0.929 . S
H1800 C1808 0.929 . S
H1801 C1810 0.930 . S
H1802 C1812 0.930 . S
H1803 C1815 0.929 . S
H1804 C1818 0.930 . S
H1805 C1820 0.960 . S
H1806 C1820 0.960 . S
H1807 C1820 0.960 . S
C1808 H1800 0.929 . S
C1808 C1809 1.377 . S
C1808 C1810 1.384 . S
C1809 C1808 1.377 . S
C1809 C1815 1.390 . S
C1810 H1801 0.930 . S
C1810 C1808 1.384 . S
C1810 C1811 1.372 . S
C1811 C1810 1.372 . S
C1811 C1812 1.400 . S
C1811 C1816 1.490 . S
C1812 H1802 0.930 . S
C1812 C1811 1.400 . S
C1812 C1815 1.386 . S
H1813 C1829 0.930 . S
H1814 C1830 0.931 . S
C1815 H1803 0.929 . S
C1815 C1809 1.390 . S
C1815 C1812 1.386 . S
C1816 C1811 1.490 . S
C1816 C1818 1.395 . S
C1816 C1819 1.403 . S
H1817 C1823 0.930 . S
C1818 H1804 0.930 . S
C1818 C1816 1.395 . S
C1818 C1821 1.403 . S
C1819 C1816 1.403 . S
C1819 C1820 1.524 . S
C1819 C1823 1.400 . S
C1820 H1805 0.960 . S
C1820 H1806 0.960 . S
C1820 H1807 0.960 . S
C1820 C1819 1.524 . S
C1821 C1818 1.403 . S
C1821 C1822 1.392 . S
C1821 C1825 1.495 . S
C1822 C1821 1.392 . S
C1822 C1823 1.385 . S
C1822 C1824 1.478 . S
C1823 H1817 0.930 . S
C1823 C1819 1.400 . S
C1823 C1822 1.385 . S
C1824 C1822 1.478 . S
C1824 C1826 1.381 . S
C1824 C1830 1.383 . S
C1825 C1821 1.495 . S
C1825 H1831 0.959 . S
C1825 H1832 0.961 . S
C1825 H1833 0.960 . S
C1826 C1824 1.381 . S
C1826 C1827 1.394 . S
C1826 H1834 0.930 . S
C1827 C1826 1.394 . S
C1827 C1828 1.383 . S
C1827 H1835 0.929 . S
C1828 C1827 1.383 . S
C1828 C1829 1.377 . S
C1829 H1813 0.930 . S
C1829 C1828 1.377 . S
C1829 C1830 1.379 . S
C1830 H1814 0.931 . S
C1830 C1824 1.383 . S
C1830 C1829 1.379 . S
H1831 C1825 0.959 . S
H1832 C1825 0.961 . S
H1833 C1825 0.960 . S
H1834 C1826 0.930 . S
H1835 C1827 0.929 . S
H1836 C1844 0.929 . S
H1837 C1846 0.930 . S
H1838 C1848 0.930 . S
H1839 C1851 0.929 . S
H1840 C1854 0.930 . S
H1841 C1856 0.960 . S
H1842 C1856 0.960 . S
H1843 C1856 0.960 . S
C1844 H1836 0.929 . S
C1844 C1845 1.377 . S
C1844 C1846 1.384 1_655 S
C1845 C1844 1.377 . S
C1845 C1851 1.390 . S
C1846 H1837 0.930 . S
C1846 C1844 1.384 1_455 S
C1846 C1847 1.372 . S
C1847 C1846 1.372 . S
C1847 C1848 1.400 1_455 S
C1847 C1852 1.490 . S
C1848 H1838 0.930 . S
C1848 C1847 1.400 1_655 S
C1848 C1851 1.386 . S
H1849 C1865 0.930 . S
H1850 C1866 0.931 . S
C1851 H1839 0.929 . S
C1851 C1845 1.390 . S
C1851 C1848 1.386 . S
C1852 C1847 1.490 . S
C1852 C1854 1.395 . S
C1852 C1855 1.403 . S
H1853 C1859 0.930 . S
C1854 H1840 0.930 . S
C1854 C1852 1.395 . S
C1854 C1857 1.403 . S
C1855 C1852 1.403 . S
C1855 C1856 1.524 . S
C1855 C1859 1.400 . S
C1856 H1841 0.960 . S
C1856 H1842 0.960 . S
C1856 H1843 0.960 . S
C1856 C1855 1.524 . S
C1857 C1854 1.403 . S
C1857 C1858 1.392 . S
C1857 C1861 1.495 . S
C1858 C1857 1.392 . S
C1858 C1859 1.385 . S
C1858 C1860 1.478 . S
C1859 H1853 0.930 . S
C1859 C1855 1.400 . S
C1859 C1858 1.385 . S
C1860 C1858 1.478 . S
C1860 C1862 1.381 . S
C1860 C1866 1.383 . S
C1861 C1857 1.495 . S
C1861 H1867 0.959 . S
C1861 H1868 0.961 . S
C1861 H1869 0.960 . S
C1862 C1860 1.381 . S
C1862 C1863 1.394 . S
C1862 H1870 0.930 . S
C1863 C1862 1.394 . S
C1863 C1864 1.383 . S
C1863 H1871 0.929 . S
C1864 C1863 1.383 . S
C1864 C1865 1.377 . S
C1865 H1849 0.930 . S
C1865 C1864 1.377 . S
C1865 C1866 1.379 . S
C1866 H1850 0.931 . S
C1866 C1860 1.383 . S
C1866 C1865 1.379 . S
H1867 C1861 0.959 . S
H1868 C1861 0.961 . S
H1869 C1861 0.960 . S
H1870 C1862 0.930 . S
H1871 C1863 0.929 . S
H1872 C1880 0.929 . S
H1873 C1882 0.930 . S
H1874 C1884 0.930 . S
H1875 C1887 0.929 . S
H1876 C1890 0.930 . S
H1877 C1892 0.960 . S
H1878 C1892 0.960 . S
H1879 C1892 0.960 . S
C1880 H1872 0.929 . S
C1880 C1881 1.377 . S
C1880 C1882 1.384 . S
C1881 C1880 1.377 . S
C1881 C1887 1.390 . S
C1882 H1873 0.930 . S
C1882 C1880 1.384 . S
C1882 C1883 1.372 . S
C1883 C1882 1.372 . S
C1883 C1884 1.400 . S
C1883 C1888 1.490 . S
C1884 H1874 0.930 . S
C1884 C1883 1.400 . S
C1884 C1887 1.386 . S
H1885 C1901 0.930 . S
H1886 C1902 0.931 . S
C1887 H1875 0.929 . S
C1887 C1881 1.390 . S
C1887 C1884 1.386 . S
C1888 C1883 1.490 . S
C1888 C1890 1.395 . S
C1888 C1891 1.403 . S
H1889 C1895 0.930 . S
C1890 H1876 0.930 . S
C1890 C1888 1.395 . S
C1890 C1893 1.403 . S
C1891 C1888 1.403 . S
C1891 C1892 1.524 . S
C1891 C1895 1.400 . S
C1892 H1877 0.960 . S
C1892 H1878 0.960 . S
C1892 H1879 0.960 . S
C1892 C1891 1.524 . S
C1893 C1890 1.403 . S
C1893 C1894 1.392 . S
C1893 C1897 1.495 . S
C1894 C1893 1.392 . S
C1894 C1895 1.385 . S
C1894 C1896 1.478 . S
C1895 H1889 0.930 . S
C1895 C1891 1.400 . S
C1895 C1894 1.385 . S
C1896 C1894 1.478 . S
C1896 C1898 1.381 . S
C1896 C1902 1.383 . S
C1897 C1893 1.495 . S
C1897 H1903 0.959 . S
C1897 H1904 0.961 . S
C1897 H1905 0.960 . S
C1898 C1896 1.381 . S
C1898 C1899 1.394 . S
C1898 H1906 0.930 . S
C1899 C1898 1.394 . S
C1899 C1900 1.383 . S
C1899 H1907 0.929 . S
C1900 C1899 1.383 . S
C1900 C1901 1.377 . S
C1901 H1885 0.930 . S
C1901 C1900 1.377 . S
C1901 C1902 1.379 . S
C1902 H1886 0.931 . S
C1902 C1896 1.383 . S
C1902 C1901 1.379 . S
H1903 C1897 0.959 . S
H1904 C1897 0.961 . S
H1905 C1897 0.960 . S
H1906 C1898 0.930 . S
H1907 C1899 0.929 . S
H1908 C1916 0.929 . S
H1909 C1918 0.930 . S
H1910 C1920 0.930 . S
H1911 C1923 0.929 . S
H1912 C1926 0.930 . S
H1913 C1928 0.960 . S
H1914 C1928 0.960 . S
H1915 C1928 0.960 . S
C1916 H1908 0.929 . S
C1916 C1917 1.377 . S
C1916 C1918 1.384 . S
C1917 C1916 1.377 . S
C1917 C1923 1.390 . S
C1918 H1909 0.930 . S
C1918 C1916 1.384 . S
C1918 C1919 1.372 . S
C1919 C1918 1.372 . S
C1919 C1920 1.400 . S
C1919 C1924 1.490 1_545 S
C1920 H1910 0.930 . S
C1920 C1919 1.400 . S
C1920 C1923 1.386 . S
H1921 C1937 0.930 . S
H1922 C1938 0.931 . S
C1923 H1911 0.929 . S
C1923 C1917 1.390 . S
C1923 C1920 1.386 . S
C1924 C1919 1.490 1_565 S
C1924 C1926 1.395 . S
C1924 C1927 1.403 . S
H1925 C1931 0.930 . S
C1926 H1912 0.930 . S
C1926 C1924 1.395 . S
C1926 C1929 1.403 . S
C1927 C1924 1.403 . S
C1927 C1928 1.524 . S
C1927 C1931 1.400 . S
C1928 H1913 0.960 . S
C1928 H1914 0.960 . S
C1928 H1915 0.960 . S
C1928 C1927 1.524 . S
C1929 C1926 1.403 . S
C1929 C1930 1.392 . S
C1929 C1933 1.495 . S
C1930 C1929 1.392 . S
C1930 C1931 1.385 . S
C1930 C1932 1.478 . S
C1931 H1925 0.930 . S
C1931 C1927 1.400 . S
C1931 C1930 1.385 . S
C1932 C1930 1.478 . S
C1932 C1934 1.381 . S
C1932 C1938 1.383 . S
C1933 C1929 1.495 . S
C1933 H1939 0.959 . S
C1933 H1940 0.961 . S
C1933 H1941 0.960 . S
C1934 C1932 1.381 . S
C1934 C1935 1.394 . S
C1934 H1942 0.930 . S
C1935 C1934 1.394 . S
C1935 C1936 1.383 . S
C1935 H1943 0.929 . S
C1936 C1935 1.383 . S
C1936 C1937 1.377 . S
C1937 H1921 0.930 . S
C1937 C1936 1.377 . S
C1937 C1938 1.379 . S
C1938 H1922 0.931 . S
C1938 C1932 1.383 . S
C1938 C1937 1.379 . S
H1939 C1933 0.959 . S
H1940 C1933 0.961 . S
H1941 C1933 0.960 . S
H1942 C1934 0.930 . S
H1943 C1935 0.929 . S
H1944 C1952 0.929 . S
H1945 C1954 0.930 . S
H1946 C1956 0.930 . S
H1947 C1959 0.929 . S
H1948 C1962 0.930 . S
H1949 C1964 0.960 . S
H1950 C1964 0.960 . S
H1951 C1964 0.960 . S
C1952 H1944 0.929 . S
C1952 C1953 1.377 . S
C1952 C1954 1.384 . S
C1953 C1952 1.377 . S
C1953 C1959 1.390 . S
C1954 H1945 0.930 . S
C1954 C1952 1.384 . S
C1954 C1955 1.372 . S
C1955 C1954 1.372 . S
C1955 C1956 1.400 . S
C1955 C1960 1.490 . S
C1956 H1946 0.930 . S
C1956 C1955 1.400 . S
C1956 C1959 1.386 . S
H1957 C1973 0.930 . S
H1958 C1974 0.931 . S
C1959 H1947 0.929 . S
C1959 C1953 1.390 . S
C1959 C1956 1.386 . S
C1960 C1955 1.490 . S
C1960 C1962 1.395 . S
C1960 C1963 1.403 . S
H1961 C1967 0.930 . S
C1962 H1948 0.930 . S
C1962 C1960 1.395 . S
C1962 C1965 1.403 . S
C1963 C1960 1.403 . S
C1963 C1964 1.524 . S
C1963 C1967 1.400 . S
C1964 H1949 0.960 . S
C1964 H1950 0.960 . S
C1964 H1951 0.960 . S
C1964 C1963 1.524 . S
C1965 C1962 1.403 . S
C1965 C1966 1.392 . S
C1965 C1969 1.495 . S
C1966 C1965 1.392 . S
C1966 C1967 1.385 . S
C1966 C1968 1.478 . S
C1967 H1961 0.930 . S
C1967 C1963 1.400 . S
C1967 C1966 1.385 . S
C1968 C1966 1.478 . S
C1968 C1970 1.381 . S
C1968 C1974 1.383 . S
C1969 C1965 1.495 . S
C1969 H1975 0.959 . S
C1969 H1976 0.961 . S
C1969 H1977 0.960 . S
C1970 C1968 1.381 . S
C1970 C1971 1.394 . S
C1970 H1978 0.930 . S
C1971 C1970 1.394 . S
C1971 C1972 1.383 . S
C1971 H1979 0.929 . S
C1972 C1971 1.383 . S
C1972 C1973 1.377 . S
C1973 H1957 0.930 . S
C1973 C1972 1.377 . S
C1973 C1974 1.379 . S
C1974 H1958 0.931 . S
C1974 C1968 1.383 . S
C1974 C1973 1.379 . S
H1975 C1969 0.959 . S
H1976 C1969 0.961 . S
H1977 C1969 0.960 . S
H1978 C1970 0.930 . S
H1979 C1971 0.929 . S
H1980 C1988 0.929 . S
H1981 C1990 0.930 . S
H1982 C1992 0.930 . S
H1983 C1995 0.929 . S
H1984 C1998 0.930 . S
H1985 C2000 0.960 . S
H1986 C2000 0.960 . S
H1987 C2000 0.960 . S
C1988 H1980 0.929 . S
C1988 C1989 1.377 . S
C1988 C1990 1.384 . S
C1989 C1988 1.377 . S
C1989 C1995 1.390 . S
C1990 H1981 0.930 . S
C1990 C1988 1.384 . S
C1990 C1991 1.372 . S
C1991 C1990 1.372 . S
C1991 C1992 1.400 . S
C1991 C1996 1.490 . S
C1992 H1982 0.930 . S
C1992 C1991 1.400 . S
C1992 C1995 1.386 . S
H1993 C2009 0.930 . S
H1994 C2010 0.931 . S
C1995 H1983 0.929 . S
C1995 C1989 1.390 . S
C1995 C1992 1.386 . S
C1996 C1991 1.490 . S
C1996 C1998 1.395 . S
C1996 C1999 1.403 . S
H1997 C2003 0.930 . S
C1998 H1984 0.930 . S
C1998 C1996 1.395 . S
C1998 C2001 1.403 . S
C1999 C1996 1.403 . S
C1999 C2000 1.524 . S
C1999 C2003 1.400 . S
C2000 H1985 0.960 . S
C2000 H1986 0.960 . S
C2000 H1987 0.960 . S
C2000 C1999 1.524 . S
C2001 C1998 1.403 . S
C2001 C2002 1.392 . S
C2001 C2005 1.495 . S
C2002 C2001 1.392 . S
C2002 C2003 1.385 . S
C2002 C2004 1.478 . S
C2003 H1997 0.930 . S
C2003 C1999 1.400 . S
C2003 C2002 1.385 . S
C2004 C2002 1.478 . S
C2004 C2006 1.381 . S
C2004 C2010 1.383 . S
C2005 C2001 1.495 . S
C2005 H2011 0.959 . S
C2005 H2012 0.961 . S
C2005 H2013 0.960 . S
C2006 C2004 1.381 . S
C2006 C2007 1.394 . S
C2006 H2014 0.930 . S
C2007 C2006 1.394 . S
C2007 C2008 1.383 . S
C2007 H2015 0.929 . S
C2008 C2007 1.383 . S
C2008 C2009 1.377 . S
C2009 H1993 0.930 . S
C2009 C2008 1.377 . S
C2009 C2010 1.379 . S
C2010 H1994 0.931 . S
C2010 C2004 1.383 . S
C2010 C2009 1.379 . S
H2011 C2005 0.959 . S
H2012 C2005 0.961 . S
H2013 C2005 0.960 . S
H2014 C2006 0.930 . S
H2015 C2007 0.929 . S
H2016 C2024 0.929 . S
H2017 C2026 0.930 . S
H2018 C2028 0.930 . S
H2019 C2031 0.929 . S
H2020 C2034 0.930 . S
H2021 C2036 0.960 . S
H2022 C2036 0.960 . S
H2023 C2036 0.960 . S
C2024 H2016 0.929 . S
C2024 C2025 1.377 . S
C2024 C2026 1.384 . S
C2025 C2024 1.377 . S
C2025 C2031 1.390 . S
C2026 H2017 0.930 . S
C2026 C2024 1.384 . S
C2026 C2027 1.372 . S
C2027 C2026 1.372 . S
C2027 C2028 1.400 . S
C2027 C2032 1.490 . S
C2028 H2018 0.930 . S
C2028 C2027 1.400 . S
C2028 C2031 1.386 . S
H2029 C2045 0.930 . S
H2030 C2046 0.931 . S
C2031 H2019 0.929 . S
C2031 C2025 1.390 . S
C2031 C2028 1.386 . S
C2032 C2027 1.490 . S
C2032 C2034 1.395 . S
C2032 C2035 1.403 . S
H2033 C2039 0.930 . S
C2034 H2020 0.930 . S
C2034 C2032 1.395 . S
C2034 C2037 1.403 . S
C2035 C2032 1.403 . S
C2035 C2036 1.524 . S
C2035 C2039 1.400 . S
C2036 H2021 0.960 . S
C2036 H2022 0.960 . S
C2036 H2023 0.960 . S
C2036 C2035 1.524 . S
C2037 C2034 1.403 . S
C2037 C2038 1.392 . S
C2037 C2041 1.495 . S
C2038 C2037 1.392 . S
C2038 C2039 1.385 . S
C2038 C2040 1.478 . S
C2039 H2033 0.930 . S
C2039 C2035 1.400 . S
C2039 C2038 1.385 . S
C2040 C2038 1.478 . S
C2040 C2042 1.381 . S
C2040 C2046 1.383 . S
C2041 C2037 1.495 . S
C2041 H2047 0.959 . S
C2041 H2048 0.961 . S
C2041 H2049 0.960 . S
C2042 C2040 1.381 . S
C2042 C2043 1.394 . S
C2042 H2050 0.930 . S
C2043 C2042 1.394 . S
C2043 C2044 1.383 . S
C2043 H2051 0.929 . S
C2044 C2043 1.383 . S
C2044 C2045 1.377 . S
C2045 H2029 0.930 . S
C2045 C2044 1.377 . S
C2045 C2046 1.379 . S
C2046 H2030 0.931 . S
C2046 C2040 1.383 . S
C2046 C2045 1.379 . S
H2047 C2041 0.959 . S
H2048 C2041 0.961 . S
H2049 C2041 0.960 . S
H2050 C2042 0.930 . S
H2051 C2043 0.929 . S
H2052 C2060 0.929 . S
H2053 C2062 0.930 . S
H2054 C2064 0.930 . S
H2055 C2067 0.929 . S
H2056 C2070 0.930 . S
H2057 C2072 0.960 . S
H2058 C2072 0.960 . S
H2059 C2072 0.960 . S
C2060 H2052 0.929 . S
C2060 C2061 1.377 . S
C2060 C2062 1.384 . S
C2061 C2060 1.377 . S
C2061 C2067 1.390 . S
C2062 H2053 0.930 . S
C2062 C2060 1.384 . S
C2062 C2063 1.372 . S
C2063 C2062 1.372 . S
C2063 C2064 1.400 . S
C2063 C2068 1.490 . S
C2064 H2054 0.930 . S
C2064 C2063 1.400 . S
C2064 C2067 1.386 . S
H2065 C2081 0.930 . S
H2066 C2082 0.931 . S
C2067 H2055 0.929 . S
C2067 C2061 1.390 . S
C2067 C2064 1.386 . S
C2068 C2063 1.490 . S
C2068 C2070 1.395 . S
C2068 C2071 1.403 . S
H2069 C2075 0.930 . S
C2070 H2056 0.930 . S
C2070 C2068 1.395 . S
C2070 C2073 1.403 . S
C2071 C2068 1.403 . S
C2071 C2072 1.524 . S
C2071 C2075 1.400 . S
C2072 H2057 0.960 . S
C2072 H2058 0.960 . S
C2072 H2059 0.960 . S
C2072 C2071 1.524 . S
C2073 C2070 1.403 . S
C2073 C2074 1.392 . S
C2073 C2077 1.495 . S
C2074 C2073 1.392 . S
C2074 C2075 1.385 . S
C2074 C2076 1.478 . S
C2075 H2069 0.930 . S
C2075 C2071 1.400 . S
C2075 C2074 1.385 . S
C2076 C2074 1.478 . S
C2076 C2078 1.381 . S
C2076 C2082 1.383 . S
C2077 C2073 1.495 . S
C2077 H2083 0.959 . S
C2077 H2084 0.961 . S
C2077 H2085 0.960 . S
C2078 C2076 1.381 . S
C2078 C2079 1.394 . S
C2078 H2086 0.930 . S
C2079 C2078 1.394 . S
C2079 C2080 1.383 . S
C2079 H2087 0.929 . S
C2080 C2079 1.383 . S
C2080 C2081 1.377 . S
C2081 H2065 0.930 . S
C2081 C2080 1.377 . S
C2081 C2082 1.379 . S
C2082 H2066 0.931 . S
C2082 C2076 1.383 . S
C2082 C2081 1.379 . S
H2083 C2077 0.959 . S
H2084 C2077 0.961 . S
H2085 C2077 0.960 . S
H2086 C2078 0.930 . S
H2087 C2079 0.929 . S
H2088 C2096 0.929 . S
H2089 C2098 0.930 . S
H2090 C2100 0.930 . S
H2091 C2103 0.929 . S
H2092 C2106 0.930 . S
H2093 C2108 0.960 . S
H2094 C2108 0.960 . S
H2095 C2108 0.960 . S
C2096 H2088 0.929 . S
C2096 C2097 1.377 . S
C2096 C2098 1.384 . S
C2097 C2096 1.377 . S
C2097 C2103 1.390 . S
C2098 H2089 0.930 . S
C2098 C2096 1.384 . S
C2098 C2099 1.372 . S
C2099 C2098 1.372 . S
C2099 C2100 1.400 . S
C2099 C2104 1.490 . S
C2100 H2090 0.930 . S
C2100 C2099 1.400 . S
C2100 C2103 1.386 . S
H2101 C2117 0.930 . S
H2102 C2118 0.931 . S
C2103 H2091 0.929 . S
C2103 C2097 1.390 . S
C2103 C2100 1.386 . S
C2104 C2099 1.490 . S
C2104 C2106 1.395 . S
C2104 C2107 1.403 . S
H2105 C2111 0.930 . S
C2106 H2092 0.930 . S
C2106 C2104 1.395 . S
C2106 C2109 1.403 . S
C2107 C2104 1.403 . S
C2107 C2108 1.524 . S
C2107 C2111 1.400 . S
C2108 H2093 0.960 . S
C2108 H2094 0.960 . S
C2108 H2095 0.960 . S
C2108 C2107 1.524 . S
C2109 C2106 1.403 . S
C2109 C2110 1.392 . S
C2109 C2113 1.495 . S
C2110 C2109 1.392 . S
C2110 C2111 1.385 . S
C2110 C2112 1.478 . S
C2111 H2105 0.930 . S
C2111 C2107 1.400 . S
C2111 C2110 1.385 . S
C2112 C2110 1.478 . S
C2112 C2114 1.381 . S
C2112 C2118 1.383 . S
C2113 C2109 1.495 . S
C2113 H2119 0.959 . S
C2113 H2120 0.961 . S
C2113 H2121 0.960 . S
C2114 C2112 1.381 . S
C2114 C2115 1.394 . S
C2114 H2122 0.930 . S
C2115 C2114 1.394 . S
C2115 C2116 1.383 . S
C2115 H2123 0.929 . S
C2116 C2115 1.383 . S
C2116 C2117 1.377 . S
C2117 H2101 0.930 . S
C2117 C2116 1.377 . S
C2117 C2118 1.379 . S
C2118 H2102 0.931 . S
C2118 C2112 1.383 . S
C2118 C2117 1.379 . S
H2119 C2113 0.959 . S
H2120 C2113 0.961 . S
H2121 C2113 0.960 . S
H2122 C2114 0.930 . S
H2123 C2115 0.929 . S
H2124 C2132 0.929 . S
H2125 C2134 0.930 . S
H2126 C2136 0.930 . S
H2127 C2139 0.929 . S
H2128 C2142 0.930 . S
H2129 C2144 0.960 . S
H2130 C2144 0.960 . S
H2131 C2144 0.960 . S
C2132 H2124 0.929 . S
C2132 C2133 1.377 . S
C2132 C2134 1.384 . S
C2133 C2132 1.377 . S
C2133 C2139 1.390 . S
C2134 H2125 0.930 . S
C2134 C2132 1.384 . S
C2134 C2135 1.372 . S
C2135 C2134 1.372 . S
C2135 C2136 1.400 . S
C2135 C2140 1.490 . S
C2136 H2126 0.930 . S
C2136 C2135 1.400 . S
C2136 C2139 1.386 . S
H2137 C2153 0.930 . S
H2138 C2154 0.931 . S
C2139 H2127 0.929 . S
C2139 C2133 1.390 . S
C2139 C2136 1.386 . S
C2140 C2135 1.490 . S
C2140 C2142 1.395 . S
C2140 C2143 1.403 . S
H2141 C2147 0.930 . S
C2142 H2128 0.930 . S
C2142 C2140 1.395 . S
C2142 C2145 1.403 . S
C2143 C2140 1.403 . S
C2143 C2144 1.524 . S
C2143 C2147 1.400 . S
C2144 H2129 0.960 . S
C2144 H2130 0.960 . S
C2144 H2131 0.960 . S
C2144 C2143 1.524 . S
C2145 C2142 1.403 . S
C2145 C2146 1.392 . S
C2145 C2149 1.495 . S
C2146 C2145 1.392 . S
C2146 C2147 1.385 . S
C2146 C2148 1.478 . S
C2147 H2141 0.930 . S
C2147 C2143 1.400 . S
C2147 C2146 1.385 . S
C2148 C2146 1.478 . S
C2148 C2150 1.381 . S
C2148 C2154 1.383 . S
C2149 C2145 1.495 . S
C2149 H2155 0.959 . S
C2149 H2156 0.961 . S
C2149 H2157 0.960 . S
C2150 C2148 1.381 . S
C2150 C2151 1.394 . S
C2150 H2158 0.930 . S
C2151 C2150 1.394 . S
C2151 C2152 1.383 . S
C2151 H2159 0.929 . S
C2152 C2151 1.383 . S
C2152 C2153 1.377 . S
C2153 H2137 0.930 . S
C2153 C2152 1.377 . S
C2153 C2154 1.379 . S
C2154 H2138 0.931 . S
C2154 C2148 1.383 . S
C2154 C2153 1.379 . S
H2155 C2149 0.959 . S
H2156 C2149 0.961 . S
H2157 C2149 0.960 . S
H2158 C2150 0.930 . S
H2159 C2151 0.929 . S
H2160 C2168 0.929 . S
H2161 C2170 0.930 1_565 S
H2162 C2172 0.930 . S
H2163 C2175 0.929 . S
H2164 C2178 0.930 . S
H2165 C2180 0.960 . S
H2166 C2180 0.957 1_545 S
H2167 C2180 0.960 1_545 S
C2168 H2160 0.929 . S
C2168 C2169 1.377 . S
C2168 C2170 1.384 . S
C2169 C2168 1.377 . S
C2169 C2175 1.390 . S
C2170 H2161 0.930 1_545 S
C2170 C2168 1.384 . S
C2170 C2171 1.380 1_545 S
C2171 C2170 1.380 1_565 S
C2171 C2172 1.364 1_565 S
C2171 C2176 1.518 . S
C2172 H2162 0.930 . S
C2172 C2171 1.364 1_545 S
C2172 C2175 1.386 . S
H2173 C2189 0.930 . S
H2174 C2190 0.931 . S
C2175 H2163 0.929 . S
C2175 C2169 1.390 . S
C2175 C2172 1.386 . S
C2176 C2171 1.518 . S
C2176 C2178 1.395 . S
C2176 C2179 1.403 . S
H2177 C2183 0.930 . S
C2178 H2164 0.930 . S
C2178 C2176 1.395 . S
C2178 C2181 1.403 . S
C2179 C2176 1.403 . S
C2179 C2180 1.524 . S
C2179 C2183 1.400 . S
C2180 H2165 0.960 . S
C2180 H2166 0.957 1_565 S
C2180 H2167 0.960 1_565 S
C2180 C2179 1.524 . S
C2181 C2178 1.403 . S
C2181 C2182 1.392 . S
C2181 C2185 1.495 . S
C2182 C2181 1.392 . S
C2182 C2183 1.385 . S
C2182 C2184 1.478 . S
C2183 H2177 0.930 . S
C2183 C2179 1.400 . S
C2183 C2182 1.385 . S
C2184 C2182 1.478 . S
C2184 C2186 1.381 . S
C2184 C2190 1.383 . S
C2185 C2181 1.495 . S
C2185 H2191 0.959 . S
C2185 H2192 0.961 . S
C2185 H2193 0.960 . S
C2186 C2184 1.381 . S
C2186 C2187 1.394 . S
C2186 H2194 0.930 . S
C2187 C2186 1.394 . S
C2187 C2188 1.383 . S
C2187 H2195 0.929 . S
C2188 C2187 1.383 . S
C2188 C2189 1.377 . S
C2189 H2173 0.930 . S
C2189 C2188 1.377 . S
C2189 C2190 1.379 . S
C2190 H2174 0.931 . S
C2190 C2184 1.383 . S
C2190 C2189 1.379 . S
H2191 C2185 0.959 . S
H2192 C2185 0.961 . S
H2193 C2185 0.960 . S
H2194 C2186 0.930 . S
H2195 C2187 0.929 . S
H2196 C2204 0.929 . S
H2197 C2206 0.930 . S
H2198 C2208 0.930 . S
H2199 C2211 0.929 . S
H2200 C2214 0.930 . S
H2201 C2216 0.960 . S
H2202 C2216 0.960 . S
H2203 C2216 0.960 . S
C2204 H2196 0.929 . S
C2204 C2205 1.377 . S
C2204 C2206 1.384 . S
C2205 C2204 1.377 . S
C2205 C2211 1.390 . S
C2206 H2197 0.930 . S
C2206 C2204 1.384 . S
C2206 C2207 1.372 1_655 S
C2207 C2206 1.372 1_455 S
C2207 C2208 1.400 . S
C2207 C2212 1.490 . S
C2208 H2198 0.930 . S
C2208 C2207 1.400 . S
C2208 C2211 1.386 1_455 S
H2209 C2225 0.930 . S
H2210 C2226 0.931 . S
C2211 H2199 0.929 . S
C2211 C2205 1.390 . S
C2211 C2208 1.386 1_655 S
C2212 C2207 1.490 . S
C2212 C2214 1.395 . S
C2212 C2215 1.403 . S
H2213 C2219 0.930 . S
C2214 H2200 0.930 . S
C2214 C2212 1.395 . S
C2214 C2217 1.403 . S
C2215 C2212 1.403 . S
C2215 C2216 1.524 . S
C2215 C2219 1.400 . S
C2216 H2201 0.960 . S
C2216 H2202 0.960 . S
C2216 H2203 0.960 . S
C2216 C2215 1.524 . S
C2217 C2214 1.403 . S
C2217 C2218 1.392 . S
C2217 C2221 1.495 . S
C2218 C2217 1.392 . S
C2218 C2219 1.385 . S
C2218 C2220 1.478 . S
C2219 H2213 0.930 . S
C2219 C2215 1.400 . S
C2219 C2218 1.385 . S
C2220 C2218 1.478 . S
C2220 C2222 1.381 . S
C2220 C2226 1.383 . S
C2221 C2217 1.495 . S
C2221 H2227 0.959 . S
C2221 H2228 0.961 . S
C2221 H2229 0.960 . S
C2222 C2220 1.381 . S
C2222 C2223 1.394 . S
C2222 H2230 0.930 . S
C2223 C2222 1.394 . S
C2223 C2224 1.383 . S
C2223 H2231 0.929 . S
C2224 C2223 1.383 . S
C2224 C2225 1.377 . S
C2225 H2209 0.930 . S
C2225 C2224 1.377 . S
C2225 C2226 1.379 . S
C2226 H2210 0.931 . S
C2226 C2220 1.383 . S
C2226 C2225 1.379 . S
H2227 C2221 0.959 . S
H2228 C2221 0.961 . S
H2229 C2221 0.960 . S
H2230 C2222 0.930 . S
H2231 C2223 0.929 . S
H2232 C2240 0.929 . S
H2233 C2242 0.930 . S
H2234 C2244 0.930 . S
H2235 C2247 0.929 . S
H2236 C2250 0.930 . S
H2237 C2252 0.960 . S
H2238 C2252 0.960 . S
H2239 C2252 0.960 . S
C2240 H2232 0.929 . S
C2240 C2241 1.377 . S
C2240 C2242 1.384 . S
C2241 C2240 1.377 . S
C2241 C2247 1.390 . S
C2242 H2233 0.930 . S
C2242 C2240 1.384 . S
C2242 C2243 1.372 . S
C2243 C2242 1.372 . S
C2243 C2244 1.400 . S
C2243 C2248 1.490 . S
C2244 H2234 0.930 . S
C2244 C2243 1.400 . S
C2244 C2247 1.386 . S
H2245 C2261 0.930 . S
H2246 C2262 0.931 . S
C2247 H2235 0.929 . S
C2247 C2241 1.390 . S
C2247 C2244 1.386 . S
C2248 C2243 1.490 . S
C2248 C2250 1.395 . S
C2248 C2251 1.403 . S
H2249 C2255 0.930 . S
C2250 H2236 0.930 . S
C2250 C2248 1.395 . S
C2250 C2253 1.403 . S
C2251 C2248 1.403 . S
C2251 C2252 1.524 . S
C2251 C2255 1.400 . S
C2252 H2237 0.960 . S
C2252 H2238 0.960 . S
C2252 H2239 0.960 . S
C2252 C2251 1.524 . S
C2253 C2250 1.403 . S
C2253 C2254 1.392 . S
C2253 C2257 1.495 . S
C2254 C2253 1.392 . S
C2254 C2255 1.385 . S
C2254 C2256 1.478 . S
C2255 H2249 0.930 . S
C2255 C2251 1.400 . S
C2255 C2254 1.385 . S
C2256 C2254 1.478 . S
C2256 C2258 1.381 . S
C2256 C2262 1.383 . S
C2257 C2253 1.495 . S
C2257 H2263 0.959 . S
C2257 H2264 0.961 . S
C2257 H2265 0.960 . S
C2258 C2256 1.381 . S
C2258 C2259 1.394 . S
C2258 H2266 0.930 . S
C2259 C2258 1.394 . S
C2259 C2260 1.383 . S
C2259 H2267 0.929 . S
C2260 C2259 1.383 . S
C2260 C2261 1.377 . S
C2261 H2245 0.930 . S
C2261 C2260 1.377 . S
C2261 C2262 1.379 . S
C2262 H2246 0.931 . S
C2262 C2256 1.383 . S
C2262 C2261 1.379 . S
H2263 C2257 0.959 . S
H2264 C2257 0.961 . S
H2265 C2257 0.960 . S
H2266 C2258 0.930 . S
H2267 C2259 0.929 . S
H2268 C2276 0.929 . S
H2269 C2278 0.930 . S
H2270 C2280 0.930 . S
H2271 C2283 0.929 . S
H2272 C2286 0.930 . S
H2273 C2288 0.960 . S
H2274 C2288 0.960 . S
H2275 C2288 0.960 . S
C2276 H2268 0.929 . S
C2276 C2277 1.377 . S
C2276 C2278 1.384 . S
C2277 C2276 1.377 . S
C2277 C2283 1.390 . S
C2278 H2269 0.930 . S
C2278 C2276 1.384 . S
C2278 C2279 1.372 . S
C2279 C2278 1.372 . S
C2279 C2280 1.400 . S
C2279 C2284 1.490 . S
C2280 H2270 0.930 . S
C2280 C2279 1.400 . S
C2280 C2283 1.386 . S
H2281 C2297 0.930 . S
H2282 C2298 0.931 . S
C2283 H2271 0.929 . S
C2283 C2277 1.390 . S
C2283 C2280 1.386 . S
C2284 C2279 1.490 . S
C2284 C2286 1.395 . S
C2284 C2287 1.403 . S
H2285 C2291 0.930 . S
C2286 H2272 0.930 . S
C2286 C2284 1.395 . S
C2286 C2289 1.403 . S
C2287 C2284 1.403 . S
C2287 C2288 1.524 . S
C2287 C2291 1.400 . S
C2288 H2273 0.960 . S
C2288 H2274 0.960 . S
C2288 H2275 0.960 . S
C2288 C2287 1.524 . S
C2289 C2286 1.403 . S
C2289 C2290 1.392 . S
C2289 C2293 1.495 . S
C2290 C2289 1.392 . S
C2290 C2291 1.385 . S
C2290 C2292 1.478 . S
C2291 H2285 0.930 . S
C2291 C2287 1.400 . S
C2291 C2290 1.385 . S
C2292 C2290 1.478 . S
C2292 C2294 1.381 . S
C2292 C2298 1.383 . S
C2293 C2289 1.495 . S
C2293 H2299 0.959 . S
C2293 H2300 0.961 . S
C2293 H2301 0.960 . S
C2294 C2292 1.381 . S
C2294 C2295 1.394 . S
C2294 H2302 0.930 . S
C2295 C2294 1.394 . S
C2295 C2296 1.383 . S
C2295 H2303 0.929 . S
C2296 C2295 1.383 . S
C2296 C2297 1.377 . S
C2297 H2281 0.930 . S
C2297 C2296 1.377 . S
C2297 C2298 1.379 . S
C2298 H2282 0.931 . S
C2298 C2292 1.383 . S
C2298 C2297 1.379 . S
H2299 C2293 0.959 . S
H2300 C2293 0.961 . S
H2301 C2293 0.960 . S
H2302 C2294 0.930 . S
H2303 C2295 0.929 . S
H2304 C2312 0.929 . S
H2305 C2314 0.930 . S
H2306 C2316 0.930 . S
H2307 C2319 0.929 . S
H2308 C2322 0.930 . S
H2309 C2324 0.960 . S
H2310 C2324 0.960 . S
H2311 C2324 0.960 . S
C2312 H2304 0.929 . S
C2312 C2313 1.377 . S
C2312 C2314 1.384 . S
C2313 C2312 1.377 . S
C2313 C2319 1.390 . S
C2314 H2305 0.930 . S
C2314 C2312 1.384 . S
C2314 C2315 1.372 . S
C2315 C2314 1.372 . S
C2315 C2316 1.400 . S
C2315 C2320 1.490 . S
C2316 H2306 0.930 . S
C2316 C2315 1.400 . S
C2316 C2319 1.386 . S
H2317 C2333 0.930 . S
H2318 C2334 0.931 . S
C2319 H2307 0.929 . S
C2319 C2313 1.390 . S
C2319 C2316 1.386 . S
C2320 C2315 1.490 . S
C2320 C2322 1.395 . S
C2320 C2323 1.403 . S
H2321 C2327 0.930 . S
C2322 H2308 0.930 . S
C2322 C2320 1.395 . S
C2322 C2325 1.403 . S
C2323 C2320 1.403 . S
C2323 C2324 1.524 . S
C2323 C2327 1.400 . S
C2324 H2309 0.960 . S
C2324 H2310 0.960 . S
C2324 H2311 0.960 . S
C2324 C2323 1.524 . S
C2325 C2322 1.403 . S
C2325 C2326 1.392 . S
C2325 C2329 1.495 . S
C2326 C2325 1.392 . S
C2326 C2327 1.385 . S
C2326 C2328 1.478 . S
C2327 H2321 0.930 . S
C2327 C2323 1.400 . S
C2327 C2326 1.385 . S
C2328 C2326 1.478 . S
C2328 C2330 1.381 . S
C2328 C2334 1.383 . S
C2329 C2325 1.495 . S
C2329 H2335 0.959 . S
C2329 H2336 0.961 . S
C2329 H2337 0.960 . S
C2330 C2328 1.381 . S
C2330 C2331 1.394 . S
C2330 H2338 0.930 . S
C2331 C2330 1.394 . S
C2331 C2332 1.383 . S
C2331 H2339 0.929 . S
C2332 C2331 1.383 . S
C2332 C2333 1.377 . S
C2333 H2317 0.930 . S
C2333 C2332 1.377 . S
C2333 C2334 1.379 . S
C2334 H2318 0.931 . S
C2334 C2328 1.383 . S
C2334 C2333 1.379 . S
H2335 C2329 0.959 . S
H2336 C2329 0.961 . S
H2337 C2329 0.960 . S
H2338 C2330 0.930 . S
H2339 C2331 0.929 . S
H2340 C2348 0.929 . S
H2341 C2350 0.930 . S
H2342 C2352 0.930 . S
H2343 C2355 0.929 . S
H2344 C2358 0.930 . S
H2345 C2360 0.960 . S
H2346 C2360 0.960 . S
H2347 C2360 0.960 . S
C2348 H2340 0.929 . S
C2348 C2349 1.377 . S
C2348 C2350 1.384 . S
C2349 C2348 1.377 . S
C2349 C2355 1.390 . S
C2350 H2341 0.930 . S
C2350 C2348 1.384 . S
C2350 C2351 1.372 . S
C2351 C2350 1.372 . S
C2351 C2352 1.400 . S
C2351 C2356 1.490 . S
C2352 H2342 0.930 . S
C2352 C2351 1.400 . S
C2352 C2355 1.386 . S
H2353 C2369 0.930 . S
H2354 C2370 0.931 . S
C2355 H2343 0.929 . S
C2355 C2349 1.390 . S
C2355 C2352 1.386 . S
C2356 C2351 1.490 . S
C2356 C2358 1.395 . S
C2356 C2359 1.403 . S
H2357 C2363 0.930 . S
C2358 H2344 0.930 . S
C2358 C2356 1.395 . S
C2358 C2361 1.403 . S
C2359 C2356 1.403 . S
C2359 C2360 1.524 . S
C2359 C2363 1.400 . S
C2360 H2345 0.960 . S
C2360 H2346 0.960 . S
C2360 H2347 0.960 . S
C2360 C2359 1.524 . S
C2361 C2358 1.403 . S
C2361 C2362 1.392 . S
C2361 C2365 1.495 . S
C2362 C2361 1.392 . S
C2362 C2363 1.385 . S
C2362 C2364 1.478 . S
C2363 H2357 0.930 . S
C2363 C2359 1.400 . S
C2363 C2362 1.385 . S
C2364 C2362 1.478 . S
C2364 C2366 1.381 . S
C2364 C2370 1.383 . S
C2365 C2361 1.495 . S
C2365 H2371 0.959 . S
C2365 H2372 0.961 . S
C2365 H2373 0.960 . S
C2366 C2364 1.381 . S
C2366 C2367 1.394 . S
C2366 H2374 0.930 . S
C2367 C2366 1.394 . S
C2367 C2368 1.383 . S
C2367 H2375 0.929 . S
C2368 C2367 1.383 . S
C2368 C2369 1.377 . S
C2369 H2353 0.930 . S
C2369 C2368 1.377 . S
C2369 C2370 1.379 . S
C2370 H2354 0.931 . S
C2370 C2364 1.383 . S
C2370 C2369 1.379 . S
H2371 C2365 0.959 . S
H2372 C2365 0.961 . S
H2373 C2365 0.960 . S
H2374 C2366 0.930 . S
H2375 C2367 0.929 . S
H2376 C2384 0.929 . S
H2377 C2386 0.906 1_545 S
H2378 C2388 0.930 . S
H2379 C2391 0.929 . S
H2380 C2394 0.930 . S
H2381 C2396 0.960 . S
H2382 C2396 0.960 . S
H2383 C2396 0.960 . S
C2384 H2376 0.929 . S
C2384 C2385 1.377 . S
C2384 C2386 1.406 . S
C2385 C2384 1.377 . S
C2385 C2391 1.390 . S
C2386 H2377 0.906 1_565 S
C2386 C2384 1.406 . S
C2386 C2387 1.373 1_565 S
C2387 C2386 1.373 1_545 S
C2387 C2388 1.400 1_545 S
C2387 C2392 1.490 . S
C2388 H2378 0.930 . S
C2388 C2387 1.400 1_565 S
C2388 C2391 1.386 . S
H2389 C2405 0.930 . S
H2390 C2406 0.931 . S
C2391 H2379 0.929 . S
C2391 C2385 1.390 . S
C2391 C2388 1.386 . S
C2392 C2387 1.490 . S
C2392 C2394 1.395 . S
C2392 C2395 1.403 . S
H2393 C2399 0.930 . S
C2394 H2380 0.930 . S
C2394 C2392 1.395 . S
C2394 C2397 1.403 . S
C2395 C2392 1.403 . S
C2395 C2396 1.524 . S
C2395 C2399 1.400 . S
C2396 H2381 0.960 . S
C2396 H2382 0.960 . S
C2396 H2383 0.960 . S
C2396 C2395 1.524 . S
C2397 C2394 1.403 . S
C2397 C2398 1.392 . S
C2397 C2401 1.495 . S
C2398 C2397 1.392 . S
C2398 C2399 1.385 . S
C2398 C2400 1.478 . S
C2399 H2393 0.930 . S
C2399 C2395 1.400 . S
C2399 C2398 1.385 . S
C2400 C2398 1.478 . S
C2400 C2402 1.381 . S
C2400 C2406 1.383 . S
C2401 C2397 1.495 . S
C2401 H2407 0.959 . S
C2401 H2408 0.961 . S
C2401 H2409 0.960 . S
C2402 C2400 1.381 . S
C2402 C2403 1.394 . S
C2402 H2410 0.930 . S
C2403 C2402 1.394 . S
C2403 C2404 1.383 . S
C2403 H2411 0.929 . S
C2404 C2403 1.383 . S
C2404 C2405 1.377 . S
C2405 H2389 0.930 . S
C2405 C2404 1.377 . S
C2405 C2406 1.379 . S
C2406 H2390 0.931 . S
C2406 C2400 1.383 . S
C2406 C2405 1.379 . S
H2407 C2401 0.959 . S
H2408 C2401 0.961 . S
H2409 C2401 0.960 . S
H2410 C2402 0.930 . S
H2411 C2403 0.929 . S
H2412 C2420 0.929 . S
H2413 C2422 0.930 1_655 S
H2414 C2424 0.930 1_655 S
H2415 C2427 0.929 . S
H2416 C2430 0.930 . S
H2417 C2432 0.960 . S
H2418 C2432 0.960 . S
H2419 C2432 0.960 . S
C2420 H2412 0.929 . S
C2420 C2421 1.377 . S
C2420 C2422 1.384 . S
C2421 C2420 1.377 . S
C2421 C2427 1.390 . S
C2422 H2413 0.930 1_455 S
C2422 C2420 1.384 . S
C2422 C2423 1.372 1_455 S
C2423 C2422 1.372 1_655 S
C2423 C2424 1.400 1_655 S
C2423 C2428 1.490 . S
C2424 H2414 0.930 1_455 S
C2424 C2423 1.400 1_455 S
C2424 C2427 1.386 . S
H2425 C2441 0.930 . S
H2426 C2442 0.931 . S
C2427 H2415 0.929 . S
C2427 C2421 1.390 . S
C2427 C2424 1.386 . S
C2428 C2423 1.490 . S
C2428 C2430 1.395 . S
C2428 C2431 1.403 . S
H2429 C2435 0.930 . S
C2430 H2416 0.930 . S
C2430 C2428 1.395 . S
C2430 C2433 1.403 . S
C2431 C2428 1.403 . S
C2431 C2432 1.524 . S
C2431 C2435 1.400 . S
C2432 H2417 0.960 . S
C2432 H2418 0.960 . S
C2432 H2419 0.960 . S
C2432 C2431 1.524 . S
C2433 C2430 1.403 . S
C2433 C2434 1.392 . S
C2433 C2437 1.495 . S
C2434 C2433 1.392 . S
C2434 C2435 1.385 . S
C2434 C2436 1.478 . S
C2435 H2429 0.930 . S
C2435 C2431 1.400 . S
C2435 C2434 1.385 . S
C2436 C2434 1.478 . S
C2436 C2438 1.381 . S
C2436 C2442 1.383 . S
C2437 C2433 1.495 . S
C2437 H2443 0.959 . S
C2437 H2444 0.961 . S
C2437 H2445 0.960 . S
C2438 C2436 1.381 . S
C2438 C2439 1.394 . S
C2438 H2446 0.930 . S
C2439 C2438 1.394 . S
C2439 C2440 1.383 . S
C2439 H2447 0.929 . S
C2440 C2439 1.383 . S
C2440 C2441 1.377 . S
C2441 H2425 0.930 . S
C2441 C2440 1.377 . S
C2441 C2442 1.379 . S
C2442 H2426 0.931 . S
C2442 C2436 1.383 . S
C2442 C2441 1.379 . S
H2443 C2437 0.959 . S
H2444 C2437 0.961 . S
H2445 C2437 0.960 . S
H2446 C2438 0.930 . S
H2447 C2439 0.929 . S
H2448 C2456 0.929 . S
H2449 C2458 0.930 . S
H2450 C2460 0.930 . S
H2451 C2463 0.929 . S
H2452 C2466 0.930 . S
H2453 C2468 0.960 . S
H2454 C2468 0.960 . S
H2455 C2468 0.960 . S
C2456 H2448 0.929 . S
C2456 C2457 1.377 . S
C2456 C2458 1.384 . S
C2457 C2456 1.377 . S
C2457 C2463 1.390 . S
C2458 H2449 0.930 . S
C2458 C2456 1.384 . S
C2458 C2459 1.372 . S
C2459 C2458 1.372 . S
C2459 C2460 1.400 . S
C2459 C2464 1.490 . S
C2460 H2450 0.930 . S
C2460 C2459 1.400 . S
C2460 C2463 1.386 . S
H2461 C2477 0.930 . S
H2462 C2478 0.931 . S
C2463 H2451 0.929 . S
C2463 C2457 1.390 . S
C2463 C2460 1.386 . S
C2464 C2459 1.490 . S
C2464 C2466 1.395 . S
C2464 C2467 1.403 . S
H2465 C2471 0.930 . S
C2466 H2452 0.930 . S
C2466 C2464 1.395 . S
C2466 C2469 1.403 . S
C2467 C2464 1.403 . S
C2467 C2468 1.524 . S
C2467 C2471 1.400 . S
C2468 H2453 0.960 . S
C2468 H2454 0.960 . S
C2468 H2455 0.960 . S
C2468 C2467 1.524 . S
C2469 C2466 1.403 . S
C2469 C2470 1.392 . S
C2469 C2473 1.495 . S
C2470 C2469 1.392 . S
C2470 C2471 1.385 . S
C2470 C2472 1.478 . S
C2471 H2465 0.930 . S
C2471 C2467 1.400 . S
C2471 C2470 1.385 . S
C2472 C2470 1.478 . S
C2472 C2474 1.381 . S
C2472 C2478 1.383 . S
C2473 C2469 1.495 . S
C2473 H2479 0.959 . S
C2473 H2480 0.961 . S
C2473 H2481 0.960 . S
C2474 C2472 1.381 . S
C2474 C2475 1.394 . S
C2474 H2482 0.930 . S
C2475 C2474 1.394 . S
C2475 C2476 1.383 . S
C2475 H2483 0.929 . S
C2476 C2475 1.383 . S
C2476 C2477 1.377 . S
C2477 H2461 0.930 . S
C2477 C2476 1.377 . S
C2477 C2478 1.379 . S
C2478 H2462 0.931 . S
C2478 C2472 1.383 . S
C2478 C2477 1.379 . S
H2479 C2473 0.959 . S
H2480 C2473 0.961 . S
H2481 C2473 0.960 . S
H2482 C2474 0.930 . S
H2483 C2475 0.929 . S
H2484 C2492 0.929 . S
H2485 C2494 0.930 . S
H2486 C2496 0.930 1_655 S
H2487 C2499 0.929 . S
H2488 C2502 0.930 . S
H2489 C2504 0.960 . S
H2490 C2504 0.960 . S
H2491 C2504 0.960 . S
C2492 H2484 0.929 . S
C2492 C2493 1.377 . S
C2492 C2494 1.384 . S
C2493 C2492 1.377 . S
C2493 C2499 1.390 . S
C2494 H2485 0.930 . S
C2494 C2492 1.384 . S
C2494 C2495 1.372 1_455 S
C2495 C2494 1.372 1_655 S
C2495 C2496 1.400 1_655 S
C2495 C2500 1.490 . S
C2496 H2486 0.930 1_455 S
C2496 C2495 1.400 1_455 S
C2496 C2499 1.386 . S
H2497 C2513 0.930 . S
H2498 C2514 0.931 . S
C2499 H2487 0.929 . S
C2499 C2493 1.390 . S
C2499 C2496 1.386 . S
C2500 C2495 1.490 . S
C2500 C2502 1.395 . S
C2500 C2503 1.403 . S
H2501 C2507 0.930 . S
C2502 H2488 0.930 . S
C2502 C2500 1.395 . S
C2502 C2505 1.403 . S
C2503 C2500 1.403 . S
C2503 C2504 1.524 . S
C2503 C2507 1.400 . S
C2504 H2489 0.960 . S
C2504 H2490 0.960 . S
C2504 H2491 0.960 . S
C2504 C2503 1.524 . S
C2505 C2502 1.403 . S
C2505 C2506 1.392 . S
C2505 C2509 1.495 . S
C2506 C2505 1.392 . S
C2506 C2507 1.385 . S
C2506 C2508 1.478 . S
C2507 H2501 0.930 . S
C2507 C2503 1.400 . S
C2507 C2506 1.385 . S
C2508 C2506 1.478 . S
C2508 C2510 1.381 . S
C2508 C2514 1.383 . S
C2509 C2505 1.495 . S
C2509 H2515 0.959 . S
C2509 H2516 0.961 . S
C2509 H2517 0.960 . S
C2510 C2508 1.381 . S
C2510 C2511 1.394 . S
C2510 H2518 0.930 . S
C2511 C2510 1.394 . S
C2511 C2512 1.383 . S
C2511 H2519 0.929 . S
C2512 C2511 1.383 . S
C2512 C2513 1.377 . S
C2513 H2497 0.930 . S
C2513 C2512 1.377 . S
C2513 C2514 1.379 . S
C2514 H2498 0.931 . S
C2514 C2508 1.383 . S
C2514 C2513 1.379 . S
H2515 C2509 0.959 . S
H2516 C2509 0.961 . S
H2517 C2509 0.960 . S
H2518 C2510 0.930 . S
H2519 C2511 0.929 . S
H2520 C2528 0.929 . S
H2521 C2530 0.930 . S
H2522 C2532 0.930 . S
H2523 C2535 0.929 . S
H2524 C2538 0.930 . S
H2525 C2540 0.960 . S
H2526 C2540 0.960 . S
H2527 C2540 0.960 . S
C2528 H2520 0.929 . S
C2528 C2529 1.377 . S
C2528 C2530 1.384 . S
C2529 C2528 1.377 . S
C2529 C2535 1.390 . S
C2530 H2521 0.930 . S
C2530 C2528 1.384 . S
C2530 C2531 1.372 . S
C2531 C2530 1.372 . S
C2531 C2532 1.400 . S
C2531 C2536 1.490 . S
C2532 H2522 0.930 . S
C2532 C2531 1.400 . S
C2532 C2535 1.386 . S
H2533 C2549 0.930 . S
H2534 C2550 0.931 . S
C2535 H2523 0.929 . S
C2535 C2529 1.390 . S
C2535 C2532 1.386 . S
C2536 C2531 1.490 . S
C2536 C2538 1.395 . S
C2536 C2539 1.403 . S
H2537 C2543 0.930 . S
C2538 H2524 0.930 . S
C2538 C2536 1.395 . S
C2538 C2541 1.403 . S
C2539 C2536 1.403 . S
C2539 C2540 1.524 . S
C2539 C2543 1.400 . S
C2540 H2525 0.960 . S
C2540 H2526 0.960 . S
C2540 H2527 0.960 . S
C2540 C2539 1.524 . S
C2541 C2538 1.403 . S
C2541 C2542 1.392 . S
C2541 C2545 1.495 . S
C2542 C2541 1.392 . S
C2542 C2543 1.385 . S
C2542 C2544 1.478 . S
C2543 H2537 0.930 . S
C2543 C2539 1.400 . S
C2543 C2542 1.385 . S
C2544 C2542 1.478 . S
C2544 C2546 1.381 . S
C2544 C2550 1.383 . S
C2545 C2541 1.495 . S
C2545 H2551 0.959 . S
C2545 H2552 0.961 . S
C2545 H2553 0.960 . S
C2546 C2544 1.381 . S
C2546 C2547 1.394 . S
C2546 H2554 0.930 . S
C2547 C2546 1.394 . S
C2547 C2548 1.383 . S
C2547 H2555 0.929 . S
C2548 C2547 1.383 . S
C2548 C2549 1.377 . S
C2549 H2533 0.930 . S
C2549 C2548 1.377 . S
C2549 C2550 1.379 . S
C2550 H2534 0.931 . S
C2550 C2544 1.383 . S
C2550 C2549 1.379 . S
H2551 C2545 0.959 . S
H2552 C2545 0.961 . S
H2553 C2545 0.960 . S
H2554 C2546 0.930 . S
H2555 C2547 0.929 . S
H2556 C2564 0.929 . S
H2557 C2566 0.920 1_545 S
H2558 C2568 0.930 . S
H2559 C2571 0.929 . S
H2560 C2574 0.930 . S
H2561 C2576 0.960 . S
H2562 C2576 0.960 . S
H2563 C2576 0.960 . S
C2564 H2556 0.929 . S
C2564 C2565 1.377 . S
C2564 C2566 1.384 . S
C2565 C2564 1.377 . S
C2565 C2571 1.390 . S
C2566 H2557 0.920 1_565 S
C2566 C2564 1.384 . S
C2566 C2567 1.372 1_565 S
C2567 C2566 1.372 1_545 S
C2567 C2568 1.396 1_545 S
C2567 C2572 1.494 . S
C2568 H2558 0.930 . S
C2568 C2567 1.396 1_565 S
C2568 C2571 1.386 . S
H2569 C2585 0.930 . S
H2570 C2586 0.931 . S
C2571 H2559 0.929 . S
C2571 C2565 1.390 . S
C2571 C2568 1.386 . S
C2572 C2567 1.494 . S
C2572 C2574 1.395 . S
C2572 C2575 1.403 . S
H2573 C2579 0.930 . S
C2574 H2560 0.930 . S
C2574 C2572 1.395 . S
C2574 C2577 1.403 . S
C2575 C2572 1.403 . S
C2575 C2576 1.524 . S
C2575 C2579 1.400 . S
C2576 H2561 0.960 . S
C2576 H2562 0.960 . S
C2576 H2563 0.960 . S
C2576 C2575 1.524 . S
C2577 C2574 1.403 . S
C2577 C2578 1.392 . S
C2577 C2581 1.495 . S
C2578 C2577 1.392 . S
C2578 C2579 1.385 . S
C2578 C2580 1.478 . S
C2579 H2573 0.930 . S
C2579 C2575 1.400 . S
C2579 C2578 1.385 . S
C2580 C2578 1.478 . S
C2580 C2582 1.381 . S
C2580 C2586 1.383 . S
C2581 C2577 1.495 . S
C2581 H2587 0.959 . S
C2581 H2588 0.961 . S
C2581 H2589 0.960 . S
C2582 C2580 1.381 . S
C2582 C2583 1.394 . S
C2582 H2590 0.930 . S
C2583 C2582 1.394 . S
C2583 C2584 1.383 . S
C2583 H2591 0.929 . S
C2584 C2583 1.383 . S
C2584 C2585 1.377 . S
C2585 H2569 0.930 . S
C2585 C2584 1.377 . S
C2585 C2586 1.379 . S
C2586 H2570 0.931 . S
C2586 C2580 1.383 . S
C2586 C2585 1.379 . S
H2587 C2581 0.959 . S
H2588 C2581 0.961 . S
H2589 C2581 0.960 . S
H2590 C2582 0.930 . S
H2591 C2583 0.929 . S
H2592 C2600 0.929 . S
H2593 C2602 0.930 . S
H2594 C2604 0.930 . S
H2595 C2607 0.929 . S
H2596 C2610 0.930 . S
H2597 C2612 0.960 . S
H2598 C2612 0.960 . S
H2599 C2612 0.960 . S
C2600 H2592 0.929 . S
C2600 C2601 1.377 . S
C2600 C2602 1.384 . S
C2601 C2600 1.377 . S
C2601 C2607 1.390 . S
C2602 H2593 0.930 . S
C2602 C2600 1.384 . S
C2602 C2603 1.372 . S
C2603 C2602 1.372 . S
C2603 C2604 1.400 . S
C2603 C2608 1.490 . S
C2604 H2594 0.930 . S
C2604 C2603 1.400 . S
C2604 C2607 1.386 . S
H2605 C2621 0.930 . S
H2606 C2622 0.931 . S
C2607 H2595 0.929 . S
C2607 C2601 1.390 . S
C2607 C2604 1.386 . S
C2608 C2603 1.490 . S
C2608 C2610 1.395 . S
C2608 C2611 1.403 . S
H2609 C2615 0.930 . S
C2610 H2596 0.930 . S
C2610 C2608 1.395 . S
C2610 C2613 1.403 . S
C2611 C2608 1.403 . S
C2611 C2612 1.524 . S
C2611 C2615 1.400 . S
C2612 H2597 0.960 . S
C2612 H2598 0.960 . S
C2612 H2599 0.960 . S
C2612 C2611 1.524 . S
C2613 C2610 1.403 . S
C2613 C2614 1.392 . S
C2613 C2617 1.495 . S
C2614 C2613 1.392 . S
C2614 C2615 1.385 . S
C2614 C2616 1.478 . S
C2615 H2609 0.930 . S
C2615 C2611 1.400 . S
C2615 C2614 1.385 . S
C2616 C2614 1.478 . S
C2616 C2618 1.381 . S
C2616 C2622 1.383 . S
C2617 C2613 1.495 . S
C2617 H2623 0.959 . S
C2617 H2624 0.961 . S
C2617 H2625 0.960 . S
C2618 C2616 1.381 . S
C2618 C2619 1.394 . S
C2618 H2626 0.930 . S
C2619 C2618 1.394 . S
C2619 C2620 1.383 . S
C2619 H2627 0.929 . S
C2620 C2619 1.383 . S
C2620 C2621 1.377 . S
C2621 H2605 0.930 . S
C2621 C2620 1.377 . S
C2621 C2622 1.379 . S
C2622 H2606 0.931 . S
C2622 C2616 1.383 . S
C2622 C2621 1.379 . S
H2623 C2617 0.959 . S
H2624 C2617 0.961 . S
H2625 C2617 0.960 . S
H2626 C2618 0.930 . S
H2627 C2619 0.929 . S
H2628 C2636 0.929 . S
H2629 C2638 0.930 . S
H2630 C2640 0.930 . S
H2631 C2643 0.929 . S
H2632 C2646 0.930 . S
H2633 C2648 0.960 . S
H2634 C2648 0.960 . S
H2635 C2648 0.960 . S
C2636 H2628 0.929 . S
C2636 C2637 1.377 . S
C2636 C2638 1.384 . S
C2637 C2636 1.377 . S
C2637 C2643 1.390 . S
C2638 H2629 0.930 . S
C2638 C2636 1.384 . S
C2638 C2639 1.372 . S
C2639 C2638 1.372 . S
C2639 C2640 1.400 . S
C2639 C2644 1.490 . S
C2640 H2630 0.930 . S
C2640 C2639 1.400 . S
C2640 C2643 1.386 . S
H2641 C2657 0.930 . S
H2642 C2658 0.931 . S
C2643 H2631 0.929 . S
C2643 C2637 1.390 . S
C2643 C2640 1.386 . S
C2644 C2639 1.490 . S
C2644 C2646 1.395 . S
C2644 C2647 1.403 . S
H2645 C2651 0.930 . S
C2646 H2632 0.930 . S
C2646 C2644 1.395 . S
C2646 C2649 1.403 . S
C2647 C2644 1.403 . S
C2647 C2648 1.524 . S
C2647 C2651 1.400 . S
C2648 H2633 0.960 . S
C2648 H2634 0.960 . S
C2648 H2635 0.960 . S
C2648 C2647 1.524 . S
C2649 C2646 1.403 . S
C2649 C2650 1.392 . S
C2649 C2653 1.495 . S
C2650 C2649 1.392 . S
C2650 C2651 1.385 . S
C2650 C2652 1.478 . S
C2651 H2645 0.930 . S
C2651 C2647 1.400 . S
C2651 C2650 1.385 . S
C2652 C2650 1.478 . S
C2652 C2654 1.381 . S
C2652 C2658 1.383 . S
C2653 C2649 1.495 . S
C2653 H2659 0.959 . S
C2653 H2660 0.961 . S
C2653 H2661 0.960 . S
C2654 C2652 1.381 . S
C2654 C2655 1.394 . S
C2654 H2662 0.930 . S
C2655 C2654 1.394 . S
C2655 C2656 1.383 . S
C2655 H2663 0.929 . S
C2656 C2655 1.383 . S
C2656 C2657 1.377 . S
C2657 H2641 0.930 . S
C2657 C2656 1.377 . S
C2657 C2658 1.379 . S
C2658 H2642 0.931 . S
C2658 C2652 1.383 . S
C2658 C2657 1.379 . S
H2659 C2653 0.959 . S
H2660 C2653 0.961 . S
H2661 C2653 0.960 . S
H2662 C2654 0.930 . S
H2663 C2655 0.929 . S
H2664 C2672 0.929 . S
H2665 C2674 0.930 . S
H2666 C2676 0.930 . S
H2667 C2679 0.929 . S
H2668 C2682 0.930 . S
H2669 C2684 0.960 . S
H2670 C2684 0.960 . S
H2671 C2684 0.960 . S
C2672 H2664 0.929 . S
C2672 C2673 1.377 . S
C2672 C2674 1.384 . S
C2673 C2672 1.377 . S
C2673 C2679 1.390 . S
C2674 H2665 0.930 . S
C2674 C2672 1.384 . S
C2674 C2675 1.372 . S
C2675 C2674 1.372 . S
C2675 C2676 1.400 . S
C2675 C2680 1.490 . S
C2676 H2666 0.930 . S
C2676 C2675 1.400 . S
C2676 C2679 1.386 . S
H2677 C2693 0.930 . S
H2678 C2694 0.931 . S
C2679 H2667 0.929 . S
C2679 C2673 1.390 . S
C2679 C2676 1.386 . S
C2680 C2675 1.490 . S
C2680 C2682 1.395 . S
C2680 C2683 1.403 . S
H2681 C2687 0.930 . S
C2682 H2668 0.930 . S
C2682 C2680 1.395 . S
C2682 C2685 1.403 . S
C2683 C2680 1.403 . S
C2683 C2684 1.524 . S
C2683 C2687 1.400 . S
C2684 H2669 0.960 . S
C2684 H2670 0.960 . S
C2684 H2671 0.960 . S
C2684 C2683 1.524 . S
C2685 C2682 1.403 . S
C2685 C2686 1.392 . S
C2685 C2689 1.495 . S
C2686 C2685 1.392 . S
C2686 C2687 1.385 . S
C2686 C2688 1.478 . S
C2687 H2681 0.930 . S
C2687 C2683 1.400 . S
C2687 C2686 1.385 . S
C2688 C2686 1.478 . S
C2688 C2690 1.381 . S
C2688 C2694 1.383 . S
C2689 C2685 1.495 . S
C2689 H2695 0.959 . S
C2689 H2696 0.961 . S
C2689 H2697 0.960 . S
C2690 C2688 1.381 . S
C2690 C2691 1.394 . S
C2690 H2698 0.930 . S
C2691 C2690 1.394 . S
C2691 C2692 1.383 . S
C2691 H2699 0.929 . S
C2692 C2691 1.383 . S
C2692 C2693 1.377 . S
C2693 H2677 0.930 . S
C2693 C2692 1.377 . S
C2693 C2694 1.379 . S
C2694 H2678 0.931 . S
C2694 C2688 1.383 . S
C2694 C2693 1.379 . S
H2695 C2689 0.959 . S
H2696 C2689 0.961 . S
H2697 C2689 0.960 . S
H2698 C2690 0.930 . S
H2699 C2691 0.929 . S
H2700 C2708 0.929 . S
H2701 C2710 0.930 . S
H2702 C2712 0.930 . S
H2703 C2715 0.929 . S
H2704 C2718 0.930 . S
H2705 C2720 0.960 . S
H2706 C2720 0.960 . S
H2707 C2720 0.960 . S
C2708 H2700 0.929 . S
C2708 C2709 1.377 . S
C2708 C2710 1.384 . S
C2709 C2708 1.377 . S
C2709 C2715 1.390 . S
C2710 H2701 0.930 . S
C2710 C2708 1.384 . S
C2710 C2711 1.372 . S
C2711 C2710 1.372 . S
C2711 C2712 1.400 . S
C2711 C2716 1.490 . S
C2712 H2702 0.930 . S
C2712 C2711 1.400 . S
C2712 C2715 1.386 . S
H2713 C2729 0.930 1_545 S
H2714 C2730 0.931 . S
C2715 H2703 0.929 . S
C2715 C2709 1.390 . S
C2715 C2712 1.386 . S
C2716 C2711 1.490 . S
C2716 C2718 1.395 . S
C2716 C2719 1.403 . S
H2717 C2723 0.930 . S
C2718 H2704 0.930 . S
C2718 C2716 1.395 . S
C2718 C2721 1.403 . S
C2719 C2716 1.403 . S
C2719 C2720 1.524 . S
C2719 C2723 1.400 . S
C2720 H2705 0.960 . S
C2720 H2706 0.960 . S
C2720 H2707 0.960 . S
C2720 C2719 1.524 . S
C2721 C2718 1.403 . S
C2721 C2722 1.392 . S
C2721 C2725 1.495 . S
C2722 C2721 1.392 . S
C2722 C2723 1.385 . S
C2722 C2724 1.478 . S
C2723 H2717 0.930 . S
C2723 C2719 1.400 . S
C2723 C2722 1.385 . S
C2724 C2722 1.478 . S
C2724 C2726 1.381 . S
C2724 C2730 1.383 . S
C2725 C2721 1.495 . S
C2725 H2731 0.959 . S
C2725 H2732 0.961 . S
C2725 H2733 0.960 . S
C2726 C2724 1.381 . S
C2726 C2727 1.394 . S
C2726 H2734 0.930 . S
C2727 C2726 1.394 . S
C2727 C2728 1.383 . S
C2727 H2735 0.929 . S
C2728 C2727 1.383 . S
C2728 C2729 1.377 . S
C2729 H2713 0.930 1_565 S
C2729 C2728 1.377 . S
C2729 C2730 1.379 . S
C2730 H2714 0.931 . S
C2730 C2724 1.383 . S
C2730 C2729 1.379 . S
H2731 C2725 0.959 . S
H2732 C2725 0.961 . S
H2733 C2725 0.960 . S
H2734 C2726 0.930 . S
H2735 C2727 0.929 . S
H2736 C2744 0.929 . S
H2737 C2746 0.930 . S
H2738 C2748 0.930 . S
H2739 C2751 0.929 . S
H2740 C2754 0.930 . S
H2741 C2756 0.960 . S
H2742 C2756 0.960 . S
H2743 C2756 0.960 . S
C2744 H2736 0.929 . S
C2744 C2745 1.377 . S
C2744 C2746 1.384 . S
C2745 C2744 1.377 . S
C2745 C2751 1.390 . S
C2746 H2737 0.930 . S
C2746 C2744 1.384 . S
C2746 C2747 1.372 . S
C2747 C2746 1.372 . S
C2747 C2748 1.400 . S
C2747 C2752 1.490 . S
C2748 H2738 0.930 . S
C2748 C2747 1.400 . S
C2748 C2751 1.386 . S
H2749 C2765 0.930 1_655 S
H2750 C2766 0.931 . S
C2751 H2739 0.929 . S
C2751 C2745 1.390 . S
C2751 C2748 1.386 . S
C2752 C2747 1.490 . S
C2752 C2754 1.395 . S
C2752 C2755 1.403 . S
H2753 C2759 0.930 . S
C2754 H2740 0.930 . S
C2754 C2752 1.395 . S
C2754 C2757 1.403 . S
C2755 C2752 1.403 . S
C2755 C2756 1.524 . S
C2755 C2759 1.400 . S
C2756 H2741 0.960 . S
C2756 H2742 0.960 . S
C2756 H2743 0.960 . S
C2756 C2755 1.524 . S
C2757 C2754 1.403 . S
C2757 C2758 1.392 . S
C2757 C2761 1.495 . S
C2758 C2757 1.392 . S
C2758 C2759 1.385 . S
C2758 C2760 1.478 . S
C2759 H2753 0.930 . S
C2759 C2755 1.400 . S
C2759 C2758 1.385 . S
C2760 C2758 1.478 . S
C2760 C2762 1.381 . S
C2760 C2766 1.383 . S
C2761 C2757 1.495 . S
C2761 H2767 0.959 . S
C2761 H2768 0.961 . S
C2761 H2769 0.960 . S
C2762 C2760 1.381 . S
C2762 C2763 1.394 . S
C2762 H2770 0.930 . S
C2763 C2762 1.394 . S
C2763 C2764 1.383 . S
C2763 H2771 0.929 . S
C2764 C2763 1.383 . S
C2764 C2765 1.377 . S
C2765 H2749 0.930 1_455 S
C2765 C2764 1.377 . S
C2765 C2766 1.379 . S
C2766 H2750 0.931 . S
C2766 C2760 1.383 . S
C2766 C2765 1.379 . S
H2767 C2761 0.959 . S
H2768 C2761 0.961 . S
H2769 C2761 0.960 . S
H2770 C2762 0.930 . S
H2771 C2763 0.929 . S
H2772 C2780 0.929 . S
H2773 C2782 0.930 . S
H2774 C2784 0.930 . S
H2775 C2787 0.929 . S
H2776 C2790 0.930 . S
H2777 C2792 0.960 . S
H2778 C2792 0.960 . S
H2779 C2792 0.960 . S
C2780 H2772 0.929 . S
C2780 C2781 1.377 . S
C2780 C2782 1.384 . S
C2781 C2780 1.377 . S
C2781 C2787 1.390 . S
C2782 H2773 0.930 . S
C2782 C2780 1.384 . S
C2782 C2783 1.372 . S
C2783 C2782 1.372 . S
C2783 C2784 1.400 . S
C2783 C2788 1.490 . S
C2784 H2774 0.930 . S
C2784 C2783 1.400 . S
C2784 C2787 1.386 . S
H2785 C2801 0.930 . S
H2786 C2802 0.931 . S
C2787 H2775 0.929 . S
C2787 C2781 1.390 . S
C2787 C2784 1.386 . S
C2788 C2783 1.490 . S
C2788 C2790 1.395 . S
C2788 C2791 1.403 . S
H2789 C2795 0.930 . S
C2790 H2776 0.930 . S
C2790 C2788 1.395 . S
C2790 C2793 1.403 . S
C2791 C2788 1.403 . S
C2791 C2792 1.524 . S
C2791 C2795 1.400 . S
C2792 H2777 0.960 . S
C2792 H2778 0.960 . S
C2792 H2779 0.960 . S
C2792 C2791 1.524 . S
C2793 C2790 1.403 . S
C2793 C2794 1.392 . S
C2793 C2797 1.495 . S
C2794 C2793 1.392 . S
C2794 C2795 1.385 . S
C2794 C2796 1.478 . S
C2795 H2789 0.930 . S
C2795 C2791 1.400 . S
C2795 C2794 1.385 . S
C2796 C2794 1.478 . S
C2796 C2798 1.381 . S
C2796 C2802 1.383 . S
C2797 C2793 1.495 . S
C2797 H2803 0.959 . S
C2797 H2804 0.961 . S
C2797 H2805 0.960 . S
C2798 C2796 1.381 . S
C2798 C2799 1.394 . S
C2798 H2806 0.930 . S
C2799 C2798 1.394 . S
C2799 C2800 1.383 . S
C2799 H2807 0.929 . S
C2800 C2799 1.383 . S
C2800 C2801 1.377 . S
C2801 H2785 0.930 . S
C2801 C2800 1.377 . S
C2801 C2802 1.379 . S
C2802 H2786 0.931 . S
C2802 C2796 1.383 . S
C2802 C2801 1.379 . S
H2803 C2797 0.959 . S
H2804 C2797 0.961 . S
H2805 C2797 0.960 . S
H2806 C2798 0.930 . S
H2807 C2799 0.929 . S
H2808 C2816 0.929 . S
H2809 C2818 0.930 . S
H2810 C2820 0.930 . S
H2811 C2823 0.929 . S
H2812 C2826 0.930 . S
H2813 C2828 0.960 . S
H2814 C2828 0.960 . S
H2815 C2828 0.960 . S
C2816 H2808 0.929 . S
C2816 C2817 1.377 . S
C2816 C2818 1.384 . S
C2817 C2816 1.377 . S
C2817 C2823 1.390 . S
C2818 H2809 0.930 . S
C2818 C2816 1.384 . S
C2818 C2819 1.372 . S
C2819 C2818 1.372 . S
C2819 C2820 1.400 . S
C2819 C2824 1.490 . S
C2820 H2810 0.930 . S
C2820 C2819 1.400 . S
C2820 C2823 1.386 . S
H2821 C2837 0.930 1_455 S
H2822 C2838 0.909 1_455 S
C2823 H2811 0.929 . S
C2823 C2817 1.390 . S
C2823 C2820 1.386 . S
C2824 C2819 1.490 . S
C2824 C2826 1.395 . S
C2824 C2827 1.403 . S
H2825 C2831 0.930 . S
C2826 H2812 0.930 . S
C2826 C2824 1.395 . S
C2826 C2829 1.403 . S
C2827 C2824 1.403 . S
C2827 C2828 1.524 . S
C2827 C2831 1.400 . S
C2828 H2813 0.960 . S
C2828 H2814 0.960 . S
C2828 H2815 0.960 . S
C2828 C2827 1.524 . S
C2829 C2826 1.403 . S
C2829 C2830 1.392 . S
C2829 C2833 1.495 . S
C2830 C2829 1.392 . S
C2830 C2831 1.385 . S
C2830 C2832 1.478 . S
C2831 H2825 0.930 . S
C2831 C2827 1.400 . S
C2831 C2830 1.385 . S
C2832 C2830 1.478 . S
C2832 C2834 1.381 . S
C2832 C2838 1.383 . S
C2833 C2829 1.495 . S
C2833 H2839 0.959 . S
C2833 H2840 0.961 . S
C2833 H2841 0.960 . S
C2834 C2832 1.381 . S
C2834 C2835 1.394 . S
C2834 H2842 0.930 . S
C2835 C2834 1.394 . S
C2835 C2836 1.383 . S
C2835 H2843 0.929 . S
C2836 C2835 1.383 . S
C2836 C2837 1.377 . S
C2837 H2821 0.930 1_655 S
C2837 C2836 1.377 . S
C2837 C2838 1.379 . S
C2838 H2822 0.909 1_655 S
C2838 C2832 1.383 . S
C2838 C2837 1.379 . S
H2839 C2833 0.959 . S
H2840 C2833 0.961 . S
H2841 C2833 0.960 . S
H2842 C2834 0.930 . S
H2843 C2835 0.929 . S
H2844 C2852 0.929 . S
H2845 C2854 0.930 . S
H2846 C2856 0.930 . S
H2847 C2859 0.929 . S
H2848 C2862 0.930 . S
H2849 C2864 0.960 . S
H2850 C2864 0.960 . S
H2851 C2864 0.960 . S
C2852 H2844 0.929 . S
C2852 C2853 1.377 . S
C2852 C2854 1.384 . S
C2853 C2852 1.377 . S
C2853 C2859 1.390 . S
C2854 H2845 0.930 . S
C2854 C2852 1.384 . S
C2854 C2855 1.372 . S
C2855 C2854 1.372 . S
C2855 C2856 1.400 . S
C2855 C2860 1.490 . S
C2856 H2846 0.930 . S
C2856 C2855 1.400 . S
C2856 C2859 1.386 . S
H2857 C2873 0.930 . S
H2858 C2874 0.931 . S
C2859 H2847 0.929 . S
C2859 C2853 1.390 . S
C2859 C2856 1.386 . S
C2860 C2855 1.490 . S
C2860 C2862 1.395 . S
C2860 C2863 1.403 . S
H2861 C2867 0.930 . S
C2862 H2848 0.930 . S
C2862 C2860 1.395 . S
C2862 C2865 1.403 . S
C2863 C2860 1.403 . S
C2863 C2864 1.524 . S
C2863 C2867 1.400 . S
C2864 H2849 0.960 . S
C2864 H2850 0.960 . S
C2864 H2851 0.960 . S
C2864 C2863 1.524 . S
C2865 C2862 1.403 . S
C2865 C2866 1.392 . S
C2865 C2869 1.495 . S
C2866 C2865 1.392 . S
C2866 C2867 1.385 . S
C2866 C2868 1.478 . S
C2867 H2861 0.930 . S
C2867 C2863 1.400 . S
C2867 C2866 1.385 . S
C2868 C2866 1.478 . S
C2868 C2870 1.381 . S
C2868 C2874 1.383 . S
C2869 C2865 1.495 . S
C2869 H2875 0.959 . S
C2869 H2876 0.961 . S
C2869 H2877 0.960 . S
C2870 C2868 1.381 . S
C2870 C2871 1.394 . S
C2870 H2878 0.930 . S
C2871 C2870 1.394 . S
C2871 C2872 1.383 . S
C2871 H2879 0.929 . S
C2872 C2871 1.383 . S
C2872 C2873 1.377 . S
C2873 H2857 0.930 . S
C2873 C2872 1.377 . S
C2873 C2874 1.379 . S
C2874 H2858 0.931 . S
C2874 C2868 1.383 . S
C2874 C2873 1.379 . S
H2875 C2869 0.959 . S
H2876 C2869 0.961 . S
H2877 C2869 0.960 . S
H2878 C2870 0.930 . S
H2879 C2871 0.929 . S
H2880 C2888 0.929 . S
H2881 C2890 0.930 . S
H2882 C2892 0.930 . S
H2883 C2895 0.929 . S
H2884 C2898 0.930 . S
H2885 C2900 0.960 . S
H2886 C2900 0.960 . S
H2887 C2900 0.960 . S
C2888 H2880 0.929 . S
C2888 C2889 1.377 . S
C2888 C2890 1.384 . S
C2889 C2888 1.377 . S
C2889 C2895 1.390 . S
C2890 H2881 0.930 . S
C2890 C2888 1.384 . S
C2890 C2891 1.372 . S
C2891 C2890 1.372 . S
C2891 C2892 1.400 . S
C2891 C2896 1.490 . S
C2892 H2882 0.930 . S
C2892 C2891 1.400 . S
C2892 C2895 1.386 . S
H2893 C2909 0.930 1_565 S
H2894 C2910 0.931 . S
C2895 H2883 0.929 . S
C2895 C2889 1.390 . S
C2895 C2892 1.386 . S
C2896 C2891 1.490 . S
C2896 C2898 1.395 . S
C2896 C2899 1.403 . S
H2897 C2903 0.930 . S
C2898 H2884 0.930 . S
C2898 C2896 1.395 . S
C2898 C2901 1.403 . S
C2899 C2896 1.403 . S
C2899 C2900 1.524 . S
C2899 C2903 1.400 . S
C2900 H2885 0.960 . S
C2900 H2886 0.960 . S
C2900 H2887 0.960 . S
C2900 C2899 1.524 . S
C2901 C2898 1.403 . S
C2901 C2902 1.392 . S
C2901 C2905 1.495 . S
C2902 C2901 1.392 . S
C2902 C2903 1.385 . S
C2902 C2904 1.478 . S
C2903 H2897 0.930 . S
C2903 C2899 1.400 . S
C2903 C2902 1.385 . S
C2904 C2902 1.478 . S
C2904 C2906 1.381 . S
C2904 C2910 1.383 . S
C2905 C2901 1.495 . S
C2905 H2911 0.959 . S
C2905 H2912 0.961 . S
C2905 H2913 0.960 . S
C2906 C2904 1.381 . S
C2906 C2907 1.394 . S
C2906 H2914 0.930 . S
C2907 C2906 1.394 . S
C2907 C2908 1.383 . S
C2907 H2915 0.929 . S
C2908 C2907 1.383 . S
C2908 C2909 1.377 . S
C2909 H2893 0.930 1_545 S
C2909 C2908 1.377 . S
C2909 C2910 1.379 . S
C2910 H2894 0.931 . S
C2910 C2904 1.383 . S
C2910 C2909 1.379 . S
H2911 C2905 0.959 . S
H2912 C2905 0.961 . S
H2913 C2905 0.960 . S
H2914 C2906 0.930 . S
H2915 C2907 0.929 . S
H2916 C2924 0.929 . S
H2917 C2926 0.930 . S
H2918 C2928 0.930 . S
H2919 C2931 0.929 . S
H2920 C2934 0.930 . S
H2921 C2936 0.960 . S
H2922 C2936 0.960 . S
H2923 C2936 0.960 . S
C2924 H2916 0.929 . S
C2924 C2925 1.377 . S
C2924 C2926 1.384 . S
C2925 C2924 1.377 . S
C2925 C2931 1.390 . S
C2926 H2917 0.930 . S
C2926 C2924 1.384 . S
C2926 C2927 1.372 . S
C2927 C2926 1.372 . S
C2927 C2928 1.400 . S
C2927 C2932 1.490 . S
C2928 H2918 0.930 . S
C2928 C2927 1.400 . S
C2928 C2931 1.386 . S
H2929 C2945 0.930 . S
H2930 C2946 0.931 . S
C2931 H2919 0.929 . S
C2931 C2925 1.390 . S
C2931 C2928 1.386 . S
C2932 C2927 1.490 . S
C2932 C2934 1.395 . S
C2932 C2935 1.403 . S
H2933 C2939 0.930 . S
C2934 H2920 0.930 . S
C2934 C2932 1.395 . S
C2934 C2937 1.403 . S
C2935 C2932 1.403 . S
C2935 C2936 1.524 . S
C2935 C2939 1.400 . S
C2936 H2921 0.960 . S
C2936 H2922 0.960 . S
C2936 H2923 0.960 . S
C2936 C2935 1.524 . S
C2937 C2934 1.403 . S
C2937 C2938 1.392 . S
C2937 C2941 1.495 . S
C2938 C2937 1.392 . S
C2938 C2939 1.385 . S
C2938 C2940 1.478 . S
C2939 H2933 0.930 . S
C2939 C2935 1.400 . S
C2939 C2938 1.385 . S
C2940 C2938 1.478 . S
C2940 C2942 1.381 . S
C2940 C2946 1.383 . S
C2941 C2937 1.495 . S
C2941 H2947 0.959 . S
C2941 H2948 0.961 . S
C2941 H2949 0.960 . S
C2942 C2940 1.381 . S
C2942 C2943 1.394 . S
C2942 H2950 0.930 . S
C2943 C2942 1.394 . S
C2943 C2944 1.383 . S
C2943 H2951 0.929 . S
C2944 C2943 1.383 . S
C2944 C2945 1.377 . S
C2945 H2929 0.930 . S
C2945 C2944 1.377 . S
C2945 C2946 1.379 . S
C2946 H2930 0.931 . S
C2946 C2940 1.383 . S
C2946 C2945 1.379 . S
H2947 C2941 0.959 . S
H2948 C2941 0.961 . S
H2949 C2941 0.960 . S
H2950 C2942 0.930 . S
H2951 C2943 0.929 . S
H2952 C2960 0.929 . S
H2953 C2962 0.930 . S
H2954 C2964 0.930 . S
H2955 C2967 0.929 . S
H2956 C2970 0.930 . S
H2957 C2972 0.960 . S
H2958 C2972 0.960 . S
H2959 C2972 0.960 . S
C2960 H2952 0.929 . S
C2960 C2961 1.377 . S
C2960 C2962 1.384 . S
C2961 C2960 1.377 . S
C2961 C2967 1.390 . S
C2962 H2953 0.930 . S
C2962 C2960 1.384 . S
C2962 C2963 1.372 . S
C2963 C2962 1.372 . S
C2963 C2964 1.400 . S
C2963 C2968 1.490 . S
C2964 H2954 0.930 . S
C2964 C2963 1.400 . S
C2964 C2967 1.386 . S
H2965 C2981 0.930 . S
H2966 C2982 0.931 . S
C2967 H2955 0.929 . S
C2967 C2961 1.390 . S
C2967 C2964 1.386 . S
C2968 C2963 1.490 . S
C2968 C2970 1.395 . S
C2968 C2971 1.403 . S
H2969 C2975 0.930 . S
C2970 H2956 0.930 . S
C2970 C2968 1.395 . S
C2970 C2973 1.403 . S
C2971 C2968 1.403 . S
C2971 C2972 1.524 . S
C2971 C2975 1.400 . S
C2972 H2957 0.960 . S
C2972 H2958 0.960 . S
C2972 H2959 0.960 . S
C2972 C2971 1.524 . S
C2973 C2970 1.403 . S
C2973 C2974 1.392 . S
C2973 C2977 1.495 . S
C2974 C2973 1.392 . S
C2974 C2975 1.385 . S
C2974 C2976 1.478 . S
C2975 H2969 0.930 . S
C2975 C2971 1.400 . S
C2975 C2974 1.385 . S
C2976 C2974 1.478 . S
C2976 C2978 1.381 . S
C2976 C2982 1.383 . S
C2977 C2973 1.495 . S
C2977 H2983 0.959 . S
C2977 H2984 0.961 . S
C2977 H2985 0.960 . S
C2978 C2976 1.381 . S
C2978 C2979 1.394 . S
C2978 H2986 0.930 . S
C2979 C2978 1.394 . S
C2979 C2980 1.383 . S
C2979 H2987 0.929 . S
C2980 C2979 1.383 . S
C2980 C2981 1.377 . S
C2981 H2965 0.930 . S
C2981 C2980 1.377 . S
C2981 C2982 1.379 . S
C2982 H2966 0.931 . S
C2982 C2976 1.383 . S
C2982 C2981 1.379 . S
H2983 C2977 0.959 . S
H2984 C2977 0.961 . S
H2985 C2977 0.960 . S
H2986 C2978 0.930 . S
H2987 C2979 0.929 . S
H2988 C2996 0.929 . S
H2989 C2998 0.930 . S
H2990 C3000 0.930 . S
H2991 C3003 0.929 . S
H2992 C3006 0.930 . S
H2993 C3008 0.960 . S
H2994 C3008 0.960 . S
H2995 C3008 0.960 . S
C2996 H2988 0.929 . S
C2996 C2997 1.377 . S
C2996 C2998 1.384 . S
C2997 C2996 1.377 . S
C2997 C3003 1.390 . S
C2998 H2989 0.930 . S
C2998 C2996 1.384 . S
C2998 C2999 1.372 . S
C2999 C2998 1.372 . S
C2999 C3000 1.400 . S
C2999 C3004 1.490 . S
C3000 H2990 0.930 . S
C3000 C2999 1.400 . S
C3000 C3003 1.386 . S
H3001 C3017 0.930 . S
H3002 C3018 0.931 . S
C3003 H2991 0.929 . S
C3003 C2997 1.390 . S
C3003 C3000 1.386 . S
C3004 C2999 1.490 . S
C3004 C3006 1.395 . S
C3004 C3007 1.403 . S
H3005 C3011 0.930 . S
C3006 H2992 0.930 . S
C3006 C3004 1.395 . S
C3006 C3009 1.403 . S
C3007 C3004 1.403 . S
C3007 C3008 1.524 . S
C3007 C3011 1.400 . S
C3008 H2993 0.960 . S
C3008 H2994 0.960 . S
C3008 H2995 0.960 . S
C3008 C3007 1.524 . S
C3009 C3006 1.403 . S
C3009 C3010 1.392 . S
C3009 C3013 1.495 . S
C3010 C3009 1.392 . S
C3010 C3011 1.385 . S
C3010 C3012 1.478 . S
C3011 H3005 0.930 . S
C3011 C3007 1.400 . S
C3011 C3010 1.385 . S
C3012 C3010 1.478 . S
C3012 C3014 1.381 . S
C3012 C3018 1.383 . S
C3013 C3009 1.495 . S
C3013 H3019 0.959 . S
C3013 H3020 0.961 . S
C3013 H3021 0.960 . S
C3014 C3012 1.381 . S
C3014 C3015 1.394 . S
C3014 H3022 0.930 . S
C3015 C3014 1.394 . S
C3015 C3016 1.383 . S
C3015 H3023 0.929 . S
C3016 C3015 1.383 . S
C3016 C3017 1.377 . S
C3017 H3001 0.930 . S
C3017 C3016 1.377 . S
C3017 C3018 1.379 . S
C3018 H3002 0.931 . S
C3018 C3012 1.383 . S
C3018 C3017 1.379 . S
H3019 C3013 0.959 . S
H3020 C3013 0.961 . S
H3021 C3013 0.960 . S
H3022 C3014 0.930 . S
H3023 C3015 0.929 . S
H3024 C3032 0.929 . S
H3025 C3034 0.930 . S
H3026 C3036 0.930 . S
H3027 C3039 0.929 . S
H3028 C3042 0.930 . S
H3029 C3044 0.960 . S
H3030 C3044 0.960 . S
H3031 C3044 0.960 . S
C3032 H3024 0.929 . S
C3032 C3033 1.377 . S
C3032 C3034 1.384 . S
C3033 C3032 1.377 . S
C3033 C3039 1.390 . S
C3034 H3025 0.930 . S
C3034 C3032 1.384 . S
C3034 C3035 1.372 . S
C3035 C3034 1.372 . S
C3035 C3036 1.400 . S
C3035 C3040 1.490 . S
C3036 H3026 0.930 . S
C3036 C3035 1.400 . S
C3036 C3039 1.386 . S
H3037 C3053 0.930 . S
H3038 C3054 0.931 . S
C3039 H3027 0.929 . S
C3039 C3033 1.390 . S
C3039 C3036 1.386 . S
C3040 C3035 1.490 . S
C3040 C3042 1.395 . S
C3040 C3043 1.403 . S
H3041 C3047 0.930 . S
C3042 H3028 0.930 . S
C3042 C3040 1.395 . S
C3042 C3045 1.403 . S
C3043 C3040 1.403 . S
C3043 C3044 1.524 . S
C3043 C3047 1.400 . S
C3044 H3029 0.960 . S
C3044 H3030 0.960 . S
C3044 H3031 0.960 . S
C3044 C3043 1.524 . S
C3045 C3042 1.403 . S
C3045 C3046 1.392 . S
C3045 C3049 1.495 . S
C3046 C3045 1.392 . S
C3046 C3047 1.385 . S
C3046 C3048 1.478 . S
C3047 H3041 0.930 . S
C3047 C3043 1.400 . S
C3047 C3046 1.385 . S
C3048 C3046 1.478 . S
C3048 C3050 1.381 . S
C3048 C3054 1.383 . S
C3049 C3045 1.495 . S
C3049 H3055 0.959 . S
C3049 H3056 0.961 . S
C3049 H3057 0.960 . S
C3050 C3048 1.381 . S
C3050 C3051 1.394 . S
C3050 H3058 0.930 . S
C3051 C3050 1.394 . S
C3051 C3052 1.383 . S
C3051 H3059 0.929 . S
C3052 C3051 1.383 . S
C3052 C3053 1.377 . S
C3053 H3037 0.930 . S
C3053 C3052 1.377 . S
C3053 C3054 1.379 . S
C3054 H3038 0.931 . S
C3054 C3048 1.383 . S
C3054 C3053 1.379 . S
H3055 C3049 0.959 . S
H3056 C3049 0.961 . S
H3057 C3049 0.960 . S
H3058 C3050 0.930 . S
H3059 C3051 0.929 . S
H3060 C3068 0.929 . S
H3061 C3070 0.930 . S
H3062 C3072 0.930 . S
H3063 C3075 0.929 . S
H3064 C3078 0.930 . S
H3065 C3080 0.960 . S
H3066 C3080 0.960 . S
H3067 C3080 0.960 . S
C3068 H3060 0.929 . S
C3068 C3069 1.377 . S
C3068 C3070 1.384 . S
C3069 C3068 1.377 . S
C3069 C3075 1.390 . S
C3070 H3061 0.930 . S
C3070 C3068 1.384 . S
C3070 C3071 1.372 . S
C3071 C3070 1.372 . S
C3071 C3072 1.400 . S
C3071 C3076 1.490 . S
C3072 H3062 0.930 . S
C3072 C3071 1.400 . S
C3072 C3075 1.386 . S
H3073 C3089 0.930 . S
H3074 C3090 0.931 . S
C3075 H3063 0.929 . S
C3075 C3069 1.390 . S
C3075 C3072 1.386 . S
C3076 C3071 1.490 . S
C3076 C3078 1.395 . S
C3076 C3079 1.403 . S
H3077 C3083 0.930 . S
C3078 H3064 0.930 . S
C3078 C3076 1.395 . S
C3078 C3081 1.403 . S
C3079 C3076 1.403 . S
C3079 C3080 1.524 . S
C3079 C3083 1.400 . S
C3080 H3065 0.960 . S
C3080 H3066 0.960 . S
C3080 H3067 0.960 . S
C3080 C3079 1.524 . S
C3081 C3078 1.403 . S
C3081 C3082 1.392 . S
C3081 C3085 1.495 . S
C3082 C3081 1.392 . S
C3082 C3083 1.385 . S
C3082 C3084 1.478 . S
C3083 H3077 0.930 . S
C3083 C3079 1.400 . S
C3083 C3082 1.385 . S
C3084 C3082 1.478 . S
C3084 C3086 1.381 . S
C3084 C3090 1.383 . S
C3085 C3081 1.495 . S
C3085 H3091 0.959 . S
C3085 H3092 0.961 . S
C3085 H3093 0.960 . S
C3086 C3084 1.381 . S
C3086 C3087 1.394 . S
C3086 H3094 0.930 . S
C3087 C3086 1.394 . S
C3087 C3088 1.383 . S
C3087 H3095 0.929 . S
C3088 C3087 1.383 . S
C3088 C3089 1.377 . S
C3089 H3073 0.930 . S
C3089 C3088 1.377 . S
C3089 C3090 1.379 . S
C3090 H3074 0.931 . S
C3090 C3084 1.383 . S
C3090 C3089 1.379 . S
H3091 C3085 0.959 . S
H3092 C3085 0.961 . S
H3093 C3085 0.960 . S
H3094 C3086 0.930 . S
H3095 C3087 0.929 . S
H3096 C3104 0.929 . S
H3097 C3106 0.930 . S
H3098 C3108 0.930 . S
H3099 C3111 0.929 . S
H3100 C3114 0.930 . S
H3101 C3116 0.960 . S
H3102 C3116 0.960 . S
H3103 C3116 0.960 . S
C3104 H3096 0.929 . S
C3104 C3105 1.377 . S
C3104 C3106 1.384 . S
C3105 C3104 1.377 . S
C3105 C3111 1.390 . S
C3106 H3097 0.930 . S
C3106 C3104 1.384 . S
C3106 C3107 1.372 . S
C3107 C3106 1.372 . S
C3107 C3108 1.400 . S
C3107 C3112 1.490 . S
C3108 H3098 0.930 . S
C3108 C3107 1.400 . S
C3108 C3111 1.386 . S
H3109 C3125 0.930 . S
H3110 C3126 0.931 . S
C3111 H3099 0.929 . S
C3111 C3105 1.390 . S
C3111 C3108 1.386 . S
C3112 C3107 1.490 . S
C3112 C3114 1.395 . S
C3112 C3115 1.403 . S
H3113 C3119 0.930 . S
C3114 H3100 0.930 . S
C3114 C3112 1.395 . S
C3114 C3117 1.403 . S
C3115 C3112 1.403 . S
C3115 C3116 1.524 . S
C3115 C3119 1.400 . S
C3116 H3101 0.960 . S
C3116 H3102 0.960 . S
C3116 H3103 0.960 . S
C3116 C3115 1.524 . S
C3117 C3114 1.403 . S
C3117 C3118 1.392 . S
C3117 C3121 1.495 . S
C3118 C3117 1.392 . S
C3118 C3119 1.385 . S
C3118 C3120 1.478 . S
C3119 H3113 0.930 . S
C3119 C3115 1.400 . S
C3119 C3118 1.385 . S
C3120 C3118 1.478 . S
C3120 C3122 1.381 . S
C3120 C3126 1.383 . S
C3121 C3117 1.495 . S
C3121 H3127 0.959 . S
C3121 H3128 0.961 . S
C3121 H3129 0.960 . S
C3122 C3120 1.381 . S
C3122 C3123 1.394 . S
C3122 H3130 0.930 . S
C3123 C3122 1.394 . S
C3123 C3124 1.383 . S
C3123 H3131 0.929 . S
C3124 C3123 1.383 . S
C3124 C3125 1.377 . S
C3125 H3109 0.930 . S
C3125 C3124 1.377 . S
C3125 C3126 1.379 . S
C3126 H3110 0.931 . S
C3126 C3120 1.383 . S
C3126 C3125 1.379 . S
H3127 C3121 0.959 . S
H3128 C3121 0.961 . S
H3129 C3121 0.960 . S
H3130 C3122 0.930 . S
H3131 C3123 0.929 . S
H3132 C3140 0.929 . S
H3133 C3142 0.930 . S
H3134 C3144 0.930 . S
H3135 C3147 0.929 . S
H3136 C3150 0.930 . S
H3137 C3152 0.960 . S
H3138 C3152 0.960 . S
H3139 C3152 0.960 . S
C3140 H3132 0.929 . S
C3140 C3141 1.377 . S
C3140 C3142 1.384 . S
C3141 C3140 1.377 . S
C3141 C3147 1.390 . S
C3142 H3133 0.930 . S
C3142 C3140 1.384 . S
C3142 C3143 1.372 . S
C3143 C3142 1.372 . S
C3143 C3144 1.400 . S
C3143 C3148 1.490 . S
C3144 H3134 0.930 . S
C3144 C3143 1.400 . S
C3144 C3147 1.386 . S
H3145 C3161 0.930 . S
H3146 C3162 0.931 . S
C3147 H3135 0.929 . S
C3147 C3141 1.390 . S
C3147 C3144 1.386 . S
C3148 C3143 1.490 . S
C3148 C3150 1.395 . S
C3148 C3151 1.403 . S
H3149 C3155 0.930 . S
C3150 H3136 0.930 . S
C3150 C3148 1.395 . S
C3150 C3153 1.403 . S
C3151 C3148 1.403 . S
C3151 C3152 1.524 . S
C3151 C3155 1.400 . S
C3152 H3137 0.960 . S
C3152 H3138 0.960 . S
C3152 H3139 0.960 . S
C3152 C3151 1.524 . S
C3153 C3150 1.403 . S
C3153 C3154 1.392 . S
C3153 C3157 1.495 . S
C3154 C3153 1.392 . S
C3154 C3155 1.385 . S
C3154 C3156 1.478 . S
C3155 H3149 0.930 . S
C3155 C3151 1.400 . S
C3155 C3154 1.385 . S
C3156 C3154 1.478 . S
C3156 C3158 1.381 . S
C3156 C3162 1.383 . S
C3157 C3153 1.495 . S
C3157 H3163 0.959 . S
C3157 H3164 0.961 . S
C3157 H3165 0.960 . S
C3158 C3156 1.381 . S
C3158 C3159 1.394 . S
C3158 H3166 0.930 . S
C3159 C3158 1.394 . S
C3159 C3160 1.383 . S
C3159 H3167 0.929 . S
C3160 C3159 1.383 . S
C3160 C3161 1.377 . S
C3161 H3145 0.930 . S
C3161 C3160 1.377 . S
C3161 C3162 1.379 . S
C3162 H3146 0.931 . S
C3162 C3156 1.383 . S
C3162 C3161 1.379 . S
H3163 C3157 0.959 . S
H3164 C3157 0.961 . S
H3165 C3157 0.960 . S
H3166 C3158 0.930 . S
H3167 C3159 0.929 . S
H3168 C3176 0.929 . S
H3169 C3178 0.930 . S
H3170 C3180 0.930 . S
H3171 C3183 0.929 . S
H3172 C3186 0.930 . S
H3173 C3188 0.960 . S
H3174 C3188 0.960 . S
H3175 C3188 0.960 . S
C3176 H3168 0.929 . S
C3176 C3177 1.377 . S
C3176 C3178 1.384 . S
C3177 C3176 1.377 . S
C3177 C3183 1.390 . S
C3178 H3169 0.930 . S
C3178 C3176 1.384 . S
C3178 C3179 1.372 . S
C3179 C3178 1.372 . S
C3179 C3180 1.400 . S
C3179 C3184 1.490 . S
C3180 H3170 0.930 . S
C3180 C3179 1.400 . S
C3180 C3183 1.386 . S
H3181 C3197 0.930 . S
H3182 C3198 0.931 . S
C3183 H3171 0.929 . S
C3183 C3177 1.390 . S
C3183 C3180 1.386 . S
C3184 C3179 1.490 . S
C3184 C3186 1.395 . S
C3184 C3187 1.403 . S
H3185 C3191 0.930 . S
C3186 H3172 0.930 . S
C3186 C3184 1.395 . S
C3186 C3189 1.403 . S
C3187 C3184 1.403 . S
C3187 C3188 1.524 . S
C3187 C3191 1.400 . S
C3188 H3173 0.960 . S
C3188 H3174 0.960 . S
C3188 H3175 0.960 . S
C3188 C3187 1.524 . S
C3189 C3186 1.403 . S
C3189 C3190 1.392 . S
C3189 C3193 1.495 . S
C3190 C3189 1.392 . S
C3190 C3191 1.385 . S
C3190 C3192 1.478 . S
C3191 H3185 0.930 . S
C3191 C3187 1.400 . S
C3191 C3190 1.385 . S
C3192 C3190 1.478 . S
C3192 C3194 1.381 . S
C3192 C3198 1.383 . S
C3193 C3189 1.495 . S
C3193 H3199 0.959 . S
C3193 H3200 0.961 . S
C3193 H3201 0.960 . S
C3194 C3192 1.381 . S
C3194 C3195 1.394 . S
C3194 H3202 0.930 . S
C3195 C3194 1.394 . S
C3195 C3196 1.383 . S
C3195 H3203 0.929 . S
C3196 C3195 1.383 . S
C3196 C3197 1.377 . S
C3197 H3181 0.930 . S
C3197 C3196 1.377 . S
C3197 C3198 1.379 . S
C3198 H3182 0.931 . S
C3198 C3192 1.383 . S
C3198 C3197 1.379 . S
H3199 C3193 0.959 . S
H3200 C3193 0.961 . S
H3201 C3193 0.960 . S
H3202 C3194 0.930 . S
H3203 C3195 0.929 . S
H3204 C3212 0.929 . S
H3205 C3214 0.930 . S
H3206 C3216 0.930 . S
H3207 C3219 0.929 . S
H3208 C3222 0.930 . S
H3209 C3224 0.960 . S
H3210 C3224 0.960 . S
H3211 C3224 0.960 . S
C3212 H3204 0.929 . S
C3212 C3213 1.377 . S
C3212 C3214 1.384 . S
C3213 C3212 1.377 . S
C3213 C3219 1.390 . S
C3214 H3205 0.930 . S
C3214 C3212 1.384 . S
C3214 C3215 1.372 . S
C3215 C3214 1.372 . S
C3215 C3216 1.400 . S
C3215 C3220 1.490 . S
C3216 H3206 0.930 . S
C3216 C3215 1.400 . S
C3216 C3219 1.386 . S
H3217 C3233 0.930 . S
H3218 C3234 0.931 . S
C3219 H3207 0.929 . S
C3219 C3213 1.390 . S
C3219 C3216 1.386 . S
C3220 C3215 1.490 . S
C3220 C3222 1.395 . S
C3220 C3223 1.403 . S
H3221 C3227 0.930 . S
C3222 H3208 0.930 . S
C3222 C3220 1.395 . S
C3222 C3225 1.403 . S
C3223 C3220 1.403 . S
C3223 C3224 1.524 . S
C3223 C3227 1.400 . S
C3224 H3209 0.960 . S
C3224 H3210 0.960 . S
C3224 H3211 0.960 . S
C3224 C3223 1.524 . S
C3225 C3222 1.403 . S
C3225 C3226 1.392 . S
C3225 C3229 1.495 . S
C3226 C3225 1.392 . S
C3226 C3227 1.385 . S
C3226 C3228 1.478 . S
C3227 H3221 0.930 . S
C3227 C3223 1.400 . S
C3227 C3226 1.385 . S
C3228 C3226 1.478 . S
C3228 C3230 1.381 . S
C3228 C3234 1.383 . S
C3229 C3225 1.495 . S
C3229 H3235 0.959 . S
C3229 H3236 0.961 . S
C3229 H3237 0.960 . S
C3230 C3228 1.381 . S
C3230 C3231 1.394 . S
C3230 H3238 0.930 . S
C3231 C3230 1.394 . S
C3231 C3232 1.383 . S
C3231 H3239 0.929 . S
C3232 C3231 1.383 . S
C3232 C3233 1.377 . S
C3233 H3217 0.930 . S
C3233 C3232 1.377 . S
C3233 C3234 1.379 . S
C3234 H3218 0.931 . S
C3234 C3228 1.383 . S
C3234 C3233 1.379 . S
H3235 C3229 0.959 . S
H3236 C3229 0.961 . S
H3237 C3229 0.960 . S
H3238 C3230 0.930 . S
H3239 C3231 0.929 . S
H3240 C3248 0.929 . S
H3241 C3250 0.930 . S
H3242 C3252 0.930 . S
H3243 C3255 0.929 . S
H3244 C3258 0.930 . S
H3245 C3260 0.960 . S
H3246 C3260 0.960 . S
H3247 C3260 0.960 . S
C3248 H3240 0.929 . S
C3248 C3249 1.377 . S
C3248 C3250 1.384 . S
C3249 C3248 1.377 . S
C3249 C3255 1.390 . S
C3250 H3241 0.930 . S
C3250 C3248 1.384 . S
C3250 C3251 1.372 . S
C3251 C3250 1.372 . S
C3251 C3252 1.400 . S
C3251 C3256 1.490 . S
C3252 H3242 0.930 . S
C3252 C3251 1.400 . S
C3252 C3255 1.386 . S
H3253 C3269 0.930 . S
H3254 C3270 0.931 . S
C3255 H3243 0.929 . S
C3255 C3249 1.390 . S
C3255 C3252 1.386 . S
C3256 C3251 1.490 . S
C3256 C3258 1.395 . S
C3256 C3259 1.403 . S
H3257 C3263 0.930 . S
C3258 H3244 0.930 . S
C3258 C3256 1.395 . S
C3258 C3261 1.403 . S
C3259 C3256 1.403 . S
C3259 C3260 1.524 . S
C3259 C3263 1.400 . S
C3260 H3245 0.960 . S
C3260 H3246 0.960 . S
C3260 H3247 0.960 . S
C3260 C3259 1.524 . S
C3261 C3258 1.403 . S
C3261 C3262 1.392 . S
C3261 C3265 1.495 . S
C3262 C3261 1.392 . S
C3262 C3263 1.385 . S
C3262 C3264 1.478 . S
C3263 H3257 0.930 . S
C3263 C3259 1.400 . S
C3263 C3262 1.385 . S
C3264 C3262 1.478 . S
C3264 C3266 1.381 . S
C3264 C3270 1.383 . S
C3265 C3261 1.495 . S
C3265 H3271 0.959 . S
C3265 H3272 0.961 . S
C3265 H3273 0.960 . S
C3266 C3264 1.381 . S
C3266 C3267 1.394 . S
C3266 H3274 0.930 . S
C3267 C3266 1.394 . S
C3267 C3268 1.383 . S
C3267 H3275 0.929 . S
C3268 C3267 1.383 . S
C3268 C3269 1.377 . S
C3269 H3253 0.930 . S
C3269 C3268 1.377 . S
C3269 C3270 1.379 . S
C3270 H3254 0.931 . S
C3270 C3264 1.383 . S
C3270 C3269 1.379 . S
H3271 C3265 0.959 . S
H3272 C3265 0.961 . S
H3273 C3265 0.960 . S
H3274 C3266 0.930 . S
H3275 C3267 0.929 . S
H3276 C3284 0.929 . S
H3277 C3286 0.930 . S
H3278 C3288 0.930 . S
H3279 C3291 0.929 . S
H3280 C3294 0.930 . S
H3281 C3296 0.960 . S
H3282 C3296 0.960 . S
H3283 C3296 0.960 . S
C3284 H3276 0.929 . S
C3284 C3285 1.377 . S
C3284 C3286 1.384 . S
C3285 C3284 1.377 . S
C3285 C3291 1.390 . S
C3286 H3277 0.930 . S
C3286 C3284 1.384 . S
C3286 C3287 1.372 . S
C3287 C3286 1.372 . S
C3287 C3288 1.400 . S
C3287 C3292 1.490 . S
C3288 H3278 0.930 . S
C3288 C3287 1.400 . S
C3288 C3291 1.386 . S
H3289 C3305 0.930 . S
H3290 C3306 0.931 . S
C3291 H3279 0.929 . S
C3291 C3285 1.390 . S
C3291 C3288 1.386 . S
C3292 C3287 1.490 . S
C3292 C3294 1.395 . S
C3292 C3295 1.403 . S
H3293 C3299 0.930 . S
C3294 H3280 0.930 . S
C3294 C3292 1.395 . S
C3294 C3297 1.403 . S
C3295 C3292 1.403 . S
C3295 C3296 1.524 . S
C3295 C3299 1.400 . S
C3296 H3281 0.960 . S
C3296 H3282 0.960 . S
C3296 H3283 0.960 . S
C3296 C3295 1.524 . S
C3297 C3294 1.403 . S
C3297 C3298 1.392 . S
C3297 C3301 1.495 . S
C3298 C3297 1.392 . S
C3298 C3299 1.385 . S
C3298 C3300 1.478 . S
C3299 H3293 0.930 . S
C3299 C3295 1.400 . S
C3299 C3298 1.385 . S
C3300 C3298 1.478 . S
C3300 C3302 1.381 . S
C3300 C3306 1.383 . S
C3301 C3297 1.495 . S
C3301 H3307 0.959 . S
C3301 H3308 0.961 . S
C3301 H3309 0.960 . S
C3302 C3300 1.381 . S
C3302 C3303 1.394 . S
C3302 H3310 0.930 . S
C3303 C3302 1.394 . S
C3303 C3304 1.383 . S
C3303 H3311 0.929 . S
C3304 C3303 1.383 . S
C3304 C3305 1.377 . S
C3305 H3289 0.930 . S
C3305 C3304 1.377 . S
C3305 C3306 1.379 . S
C3306 H3290 0.931 . S
C3306 C3300 1.383 . S
C3306 C3305 1.379 . S
H3307 C3301 0.959 . S
H3308 C3301 0.961 . S
H3309 C3301 0.960 . S
H3310 C3302 0.930 . S
H3311 C3303 0.929 . S
H3312 C3320 0.929 . S
H3313 C3322 0.930 . S
H3314 C3324 0.930 . S
H3315 C3327 0.929 . S
H3316 C3330 0.930 . S
H3317 C3332 0.960 . S
H3318 C3332 0.960 . S
H3319 C3332 0.960 . S
C3320 H3312 0.929 . S
C3320 C3321 1.377 . S
C3320 C3322 1.384 . S
C3321 C3320 1.377 . S
C3321 C3327 1.390 . S
C3322 H3313 0.930 . S
C3322 C3320 1.384 . S
C3322 C3323 1.372 . S
C3323 C3322 1.372 . S
C3323 C3324 1.400 . S
C3323 C3328 1.490 . S
C3324 H3314 0.930 . S
C3324 C3323 1.400 . S
C3324 C3327 1.386 . S
H3325 C3341 0.930 . S
H3326 C3342 0.931 . S
C3327 H3315 0.929 . S
C3327 C3321 1.390 . S
C3327 C3324 1.386 . S
C3328 C3323 1.490 . S
C3328 C3330 1.395 . S
C3328 C3331 1.403 . S
H3329 C3335 0.930 . S
C3330 H3316 0.930 . S
C3330 C3328 1.395 . S
C3330 C3333 1.403 . S
C3331 C3328 1.403 . S
C3331 C3332 1.524 . S
C3331 C3335 1.400 . S
C3332 H3317 0.960 . S
C3332 H3318 0.960 . S
C3332 H3319 0.960 . S
C3332 C3331 1.524 . S
C3333 C3330 1.403 . S
C3333 C3334 1.392 . S
C3333 C3337 1.495 . S
C3334 C3333 1.392 . S
C3334 C3335 1.385 . S
C3334 C3336 1.478 . S
C3335 H3329 0.930 . S
C3335 C3331 1.400 . S
C3335 C3334 1.385 . S
C3336 C3334 1.478 . S
C3336 C3338 1.381 . S
C3336 C3342 1.383 . S
C3337 C3333 1.495 . S
C3337 H3343 0.959 . S
C3337 H3344 0.961 . S
C3337 H3345 0.960 . S
C3338 C3336 1.381 . S
C3338 C3339 1.394 . S
C3338 H3346 0.930 . S
C3339 C3338 1.394 . S
C3339 C3340 1.383 . S
C3339 H3347 0.929 . S
C3340 C3339 1.383 . S
C3340 C3341 1.377 . S
C3341 H3325 0.930 . S
C3341 C3340 1.377 . S
C3341 C3342 1.379 . S
C3342 H3326 0.931 . S
C3342 C3336 1.383 . S
C3342 C3341 1.379 . S
H3343 C3337 0.959 . S
H3344 C3337 0.961 . S
H3345 C3337 0.960 . S
H3346 C3338 0.930 . S
H3347 C3339 0.929 . S
C1413 C469 1.415 . S
C1432 C704 1.299 . S
C1449 C505 1.444 . S
C1468 C788 1.337 . S
C1485 C433 1.449 . S
C1504 C882 1.387 . S
C1521 C397 1.405 . S
C1540 C798 1.356 . S
C1576 C872 1.276 . S
C1557 C325 1.373 . S
C1593 C361 1.380 . S
C1612 C714 1.309 . S
C1648 C715 1.349 . S
C1629 C421 1.415 . S
C1684 C799 1.335 . S
C1665 C349 1.442 . S
C1701 C385 1.448 . S
C1720 C891 1.391 . S
C1737 C493 1.402 . S
C1756 C807 1.339 . S
C1773 C529 1.372 . S
C1792 C883 1.277 . S
C1828 C723 1.354 . S
C1809 C457 1.381 . S
C1864 C956 1.369 . S
C1845 C37 1.415 . S
C1881 C73 1.444 . S
C1900 C1040 1.398 . S
C1917 C1 1.449 . S
C1936 C1134 1.398 . S
C1953 C613 1.404 . S
C1972 C1050 1.353 . S
C1989 C541 1.373 . S
C2008 C1124 1.259 . S
C2025 C577 1.380 . S
C2044 C966 1.311 . S
C2061 C637 1.416 . S
C2080 C967 1.310 . S
C2097 C565 1.443 . S
C2116 C1051 1.334 . S
C2152 C1143 1.430 . S
C2133 C601 1.450 . S
C2169 C61 1.405 . S
C2188 C1059 1.385 . S
C2224 C1135 1.327 . S
C2205 C97 1.372 . S
C2241 C25 1.379 . S
C2260 C975 1.310 . S
C2296 C1208 1.339 . S
C2277 C253 1.416 . S
C2313 C289 1.443 . S
C2332 C1292 1.399 . S
C2368 C1386 1.380 . S
C2349 C217 1.449 . S
C2404 C1302 1.387 . S
C2385 C181 1.405 . S
C2440 C1376 1.325 . S
C2421 C109 1.373 . S
C2457 C145 1.381 . S
C2476 C1218 1.363 . S
C2493 C205 1.413 . S
C2512 C1219 1.337 . S
C2529 C133 1.443 . S
C2548 C1303 1.382 . S
C2584 C1395 1.379 . S
C2565 C169 1.446 . S
C2601 C277 1.404 . S
C2620 C1311 1.386 . S
C2637 C313 1.374 . S
C2656 C1387 1.273 . S
C2673 C241 1.378 . S
C2692 C1227 1.310 . S
C2709 C571 1.420 . S
C2728 C711 1.299 . S
C2764 C795 1.323 . S
C2745 C607 1.496 . S
C2781 C643 1.453 . S
C2800 C888 1.284 . S
C2817 C247 1.495 . S
C2836 C804 1.371 . S
C2853 C283 1.454 . S
C2872 C879 1.278 . S
C2908 C720 1.325 . S
C2889 C319 1.420 . S
C2925 C139 1.420 . S
C2944 C963 1.289 . S
C2961 C175 1.495 . S
C2980 C1047 1.392 . S
C2997 C211 1.453 . S
C3016 C1140 1.278 . S
C3033 C463 1.495 . S
C3052 C1056 1.320 . S
C3088 C1131 1.362 . S
C3069 C499 1.454 . S
C3105 C535 1.418 . S
C3124 C972 1.342 . S
C3141 C355 1.417 . S
C3160 C1215 1.316 . S
C3177 C391 1.495 . S
C3196 C1299 1.354 . S
C3232 C1392 1.281 . S
C3213 C427 1.454 . S
C3249 C31 1.495 . S
C3268 C1308 1.308 . S
C3285 C67 1.453 . S
C3304 C1383 1.345 . S
C3321 C103 1.420 . S
C3340 C1224 1.333 . S
