# Generated by pormake.
# Topology llj, (12,3)-cn, num edge types: 1
# Building blocks:
#     Node 0, Type 0, BuildingBlock: QEWDON_clean_sbu_0, # of connection points: 12
#     Node 1, Type 0, BuildingBlock: QEWDON_clean_sbu_0, # of connection points: 12
#     Node 2, Type 1, BuildingBlock: KAKCAD_clean_linker_0, # of connection points: 3
#     Node 3, Type 1, BuildingBlock: KAKCAD_clean_linker_0, # of connection points: 3
#     Node 4, Type 1, BuildingBlock: KAKCAD_clean_linker_0, # of connection points: 3
#     Node 5, Type 1, BuildingBlock: KAKCAD_clean_linker_0, # of connection points: 3
#     Node 6, Type 1, BuildingBlock: KAKCAD_clean_linker_0, # of connection points: 3
#     Node 7, Type 1, BuildingBlock: KAKCAD_clean_linker_0, # of connection points: 3
#     Node 8, Type 1, BuildingBlock: KAKCAD_clean_linker_0, # of connection points: 3
#     Node 9, Type 1, BuildingBlock: KAKCAD_clean_linker_0, # of connection points: 3
#     Edge 10, Type (0, 1), BuildingBlock: ZUJKAS_clean_linker_0, # of connection points: 2
#     Edge 11, Type (0, 1), BuildingBlock: ZUJKAS_clean_linker_0, # of connection points: 2
#     Edge 12, Type (0, 1), BuildingBlock: ZUJKAS_clean_linker_0, # of connection points: 2
#     Edge 13, Type (0, 1), BuildingBlock: ZUJKAS_clean_linker_0, # of connection points: 2
#     Edge 14, Type (0, 1), BuildingBlock: ZUJKAS_clean_linker_0, # of connection points: 2
#     Edge 15, Type (0, 1), BuildingBlock: ZUJKAS_clean_linker_0, # of connection points: 2
#     Edge 16, Type (0, 1), BuildingBlock: ZUJKAS_clean_linker_0, # of connection points: 2
#     Edge 17, Type (0, 1), BuildingBlock: ZUJKAS_clean_linker_0, # of connection points: 2
#     Edge 18, Type (0, 1), BuildingBlock: ZUJKAS_clean_linker_0, # of connection points: 2
#     Edge 19, Type (0, 1), BuildingBlock: ZUJKAS_clean_linker_0, # of connection points: 2
#     Edge 20, Type (0, 1), BuildingBlock: ZUJKAS_clean_linker_0, # of connection points: 2
#     Edge 21, Type (0, 1), BuildingBlock: ZUJKAS_clean_linker_0, # of connection points: 2
#     Edge 22, Type (0, 1), BuildingBlock: ZUJKAS_clean_linker_0, # of connection points: 2
#     Edge 23, Type (0, 1), BuildingBlock: ZUJKAS_clean_linker_0, # of connection points: 2
#     Edge 24, Type (0, 1), BuildingBlock: ZUJKAS_clean_linker_0, # of connection points: 2
#     Edge 25, Type (0, 1), BuildingBlock: ZUJKAS_clean_linker_0, # of connection points: 2
#     Edge 26, Type (0, 1), BuildingBlock: ZUJKAS_clean_linker_0, # of connection points: 2
#     Edge 27, Type (0, 1), BuildingBlock: ZUJKAS_clean_linker_0, # of connection points: 2
#     Edge 28, Type (0, 1), BuildingBlock: ZUJKAS_clean_linker_0, # of connection points: 2
#     Edge 29, Type (0, 1), BuildingBlock: ZUJKAS_clean_linker_0, # of connection points: 2
#     Edge 30, Type (0, 1), BuildingBlock: ZUJKAS_clean_linker_0, # of connection points: 2
#     Edge 31, Type (0, 1), BuildingBlock: ZUJKAS_clean_linker_0, # of connection points: 2
#     Edge 32, Type (0, 1), BuildingBlock: ZUJKAS_clean_linker_0, # of connection points: 2
#     Edge 33, Type (0, 1), BuildingBlock: ZUJKAS_clean_linker_0, # of connection points: 2
# Relax obj value: 0.011
# Max RMSD: 0.050
# Mean RMSD: 0.047
data_MOF--net-llj--node1-QEWDON_clean_sbu_0--node2-KAKCAD_clean_linker_0--edge1-ZUJKAS_clean_linker_0
_symmetry_space_group_name_H-M    P1
_symmetry_Int_Tables_number       1
_symmetry_cell_setting            triclinic
loop_
_symmetry_equiv_pos_as_xyz
'x, y, z'
_cell_length_a     55.238522
_cell_length_b     55.222463
_cell_length_c     38.669385
_cell_angle_alpha  89.908022
_cell_angle_beta   90.032916
_cell_angle_gamma 89.920028
loop_
_atom_site_label
_atom_site_type_symbol
_atom_site_fract_x
_atom_site_fract_y
_atom_site_fract_z
_atom_type_partial_charge
Zn0 Zn 0.95116 0.03828 0.98445 0.0
Zn1 Zn 0.95662 0.0363 0.06572 0.0
O2 O 0.97586 0.03323 0.02243 0.0
H3 H 0.99041 0.02372 0.01967 0.0
C4 C 0.92765 0.98393 0.93505 0.0
O5 O 0.92998 0.99659 0.96356 0.0
Zn6 Zn 0.04071 0.96234 0.06761 0.0
Zn7 Zn 0.04356 0.96237 0.98591 0.0
O8 O 0.01981 0.96584 0.02591 0.0
H9 H 0.00532 0.97564 0.02506 0.0
Zn10 Zn 0.94625 0.94684 0.98098 0.0
O11 O 0.95385 0.97022 0.01968 0.0
Zn12 Zn 0.95331 0.9511 0.06327 0.0
H13 H 0.96154 0.98579 0.01656 0.0
Zn14 Zn 0.0492 0.05385 0.9838 0.0
O15 O 0.05083 0.0274 0.02037 0.0
H16 H 0.04765 0.01042 0.01645 0.0
Zn17 Zn 0.04593 0.04643 0.06349 0.0
C18 C 0.04973 0.02699 0.91858 0.0
O19 O 0.02998 0.01743 0.93167 0.0
O20 O 0.92116 0.05738 0.00034 0.0
O21 O 0.92616 0.05627 0.05739 0.0
O22 O 0.0745 0.94342 -0.00122 0.0
O23 O 0.07084 0.94289 0.05598 0.0
O24 O 0.93279 0.91413 0.99777 0.0
O25 O 0.93876 0.91778 0.05443 0.0
C26 C -0.00041 0.05588 0.09814 0.0
O27 O 0.06192 0.08672 0.00151 0.0
O28 O 0.06095 0.07958 0.05804 0.0
O29 O 0.02891 0.95492 0.93783 0.0
C30 C 0.91432 0.06308 0.03072 0.0
O31 O 0.9652 0.04672 0.93654 0.0
C32 C -0.0001 0.94194 0.10541 0.0
O33 O 0.93324 0.96162 0.93537 0.0
C34 C 0.08214 0.937 0.02851 0.0
O35 O 0.06085 0.04325 0.93546 0.0
C36 C 0.93329 0.99164 0.0987 0.0
O37 O 0.97696 0.05312 0.10193 0.0
O38 O 0.00999 0.04722 0.0717 0.0
C39 C 0.93133 0.90569 0.0284 0.0
O40 O 0.02262 0.94535 0.10602 0.0
O41 O 0.9881 0.9497 0.07938 0.0
C42 C 0.06125 0.00701 0.10522 0.0
O43 O 0.93219 0.9687 0.09777 0.0
O44 O 0.94843 0.00205 0.07893 0.0
C45 C 0.06601 0.09333 0.03253 0.0
O46 O 0.06243 0.02993 0.10367 0.0
O47 O 0.04938 0.99628 0.0816 0.0
C48 C 0.0081 0.94519 0.93693 0.0
O49 O 0.99671 0.94104 0.96615 0.0
C50 C 0.9851 0.0582 0.93638 0.0
O51 O 0.99539 0.06361 0.96601 0.0
Zn52 Zn 0.44502 0.53851 0.49702 0.0
Zn53 Zn 0.45395 0.5331 0.577 0.0
O54 O 0.4715 0.53309 0.5322 0.0
H55 H 0.486 0.52395 0.52723 0.0
C56 C 0.43275 0.4879 0.43296 0.0
O57 O 0.42661 0.49661 0.4633 0.0
Zn58 Zn 0.53716 0.46445 0.57099 0.0
Zn59 Zn 0.54389 0.46661 0.49141 0.0
O60 O 0.51743 0.4665 0.52797 0.0
H61 H 0.50253 0.47555 0.52576 0.0
Zn62 Zn 0.45138 0.45063 0.47796 0.0
O63 O 0.45035 0.47242 0.51995 0.0
Zn64 Zn 0.45085 0.45012 0.56014 0.0
H65 H 0.45567 0.48908 0.51984 0.0
Zn66 Zn 0.53837 0.55049 0.4774 0.0
O67 O 0.53951 0.52724 0.51815 0.0
H68 H 0.53461 0.51052 0.51707 0.0
Zn69 Zn 0.53998 0.54825 0.55979 0.0
C70 C 0.56017 0.5165 0.43111 0.0
O71 O 0.56774 0.50865 0.46133 0.0
O72 O 0.41549 0.55623 0.51746 0.0
O73 O 0.42326 0.55361 0.57381 0.0
O74 O 0.57386 0.44685 0.50623 0.0
O75 O 0.56684 0.44337 0.56262 0.0
O76 O 0.43781 0.41639 0.48752 0.0
O77 O 0.43817 0.41735 0.54505 0.0
C78 C 0.498 0.5512 0.60767 0.0
O79 O 0.55328 0.58374 0.48922 0.0
O80 O 0.55347 0.58113 0.54664 0.0
O81 O 0.532 0.46154 0.4412 0.0
C82 C 0.41006 0.56099 0.54878 0.0
O83 O 0.45796 0.54998 0.44977 0.0
C84 C 0.49474 0.44606 0.60585 0.0
O85 O 0.4437 0.46767 0.4315 0.0
C86 C 0.57953 0.43853 0.53593 0.0
O87 O 0.54671 0.53517 0.42997 0.0
C88 C 0.43058 0.48632 0.60204 0.0
O89 O 0.47608 0.54613 0.61444 0.0
O90 O 0.50561 0.54854 0.57695 0.0
C91 C 0.4337 0.40642 0.51671 0.0
O92 O 0.51707 0.4506 0.61022 0.0
O93 O 0.48547 0.44996 0.57631 0.0
C94 C 0.56049 0.51072 0.60054 0.0
O95 O 0.429 0.46366 0.5972 0.0
O96 O 0.44617 0.49793 0.58452 0.0
C97 C 0.55804 0.5927 0.51882 0.0
O98 O 0.56143 0.53352 0.59663 0.0
O99 O 0.54646 0.49898 0.58065 0.0
C100 C 0.51245 0.44966 0.43819 0.0
O101 O 0.50146 0.44208 0.46632 0.0
C102 C 0.47602 0.56411 0.45172 0.0
O103 O 0.48412 0.57035 0.4824 0.0
C104 C 0.36845 0.32486 0.90666 0.0
C105 C 0.39313 0.32553 0.89797 0.0
C106 C 0.361 0.31502 0.93819 0.0
C107 C 0.37808 0.30557 0.96158 0.0
C108 C 0.40264 0.30524 0.95214 0.0
C109 C 0.41009 0.31515 0.92069 0.0
C110 C 0.37052 0.29795 0.99675 0.0
C111 C 0.34893 0.28507 0.00189 0.0
C112 C 0.34057 0.27995 0.03545 0.0
C113 C 0.35439 0.28748 0.06399 0.0
C114 C 0.37614 0.30018 0.05925 0.0
C115 C 0.38408 0.30526 0.02559 0.0
C116 C 0.3897 0.30988 0.08927 0.0
C117 C 0.37732 0.3214 0.11636 0.0
C118 C 0.41513 0.309 0.09006 0.0
C119 C 0.42793 0.31996 0.11697 0.0
C120 C 0.41554 0.33198 0.14364 0.0
C121 C 0.31689 0.26776 0.0407 0.0
C122 C 0.29699 0.27362 0.01961 0.0
C123 C 0.31385 0.25051 0.06712 0.0
C124 C 0.29145 0.23934 0.07223 0.0
C125 C 0.27161 0.24505 0.0509 0.0
C126 C 0.27467 0.26234 0.02455 0.0
C127 C 0.3901 0.33234 0.14323 0.0
H128 H 0.355 0.33292 0.88979 0.0
H129 H 0.34198 0.31582 0.94488 0.0
H130 H 0.41617 0.29771 0.96938 0.0
H131 H 0.42919 0.31502 0.91435 0.0
H132 H 0.33861 0.27907 0.97966 0.0
H133 H 0.40022 0.3161 0.02187 0.0
H134 H 0.34795 0.28397 0.08998 0.0
H135 H 0.35776 0.32276 0.11617 0.0
H136 H 0.42514 0.3 0.06969 0.0
H137 H 0.44752 0.3191 0.11685 0.0
H138 H 0.29856 0.28712 -0.00062 0.0
H139 H 0.32885 0.24543 0.08367 0.0
H140 H 0.38002 0.34179 0.16309 0.0
H141 H 0.25991 0.26693 0.00729 0.0
H142 H 0.28968 0.22628 0.09299 0.0
C143 C 0.68575 0.37803 0.89139 0.0
C144 C 0.68692 0.40326 0.88664 0.0
C145 C 0.69339 0.36753 0.92246 0.0
C146 C 0.70229 0.38205 0.9494 0.0
C147 C 0.70441 0.40714 0.9441 0.0
C148 C 0.69685 0.41762 0.91305 0.0
C149 C 0.7078 0.37136 0.98373 0.0
C150 C 0.72057 0.34945 0.98661 0.0
C151 C 0.72497 0.33902 0.0192 0.0
C152 C 0.71643 0.35075 0.04903 0.0
C153 C 0.70335 0.37252 0.04657 0.0
C154 C 0.69925 0.38271 0.0138 0.0
C155 C 0.69295 0.3841 0.07788 0.0
C156 C 0.68209 0.36995 0.10385 0.0
C157 C 0.69284 0.40945 0.08132 0.0
C158 C 0.68164 0.42041 0.10963 0.0
C159 C 0.67044 0.40627 0.13524 0.0
C160 C 0.73792 0.31556 0.02215 0.0
C161 C 0.73207 0.29624 9e-05 0.0
C162 C 0.75578 0.31213 0.04757 0.0
C163 C 0.76749 0.28981 0.05097 0.0
C164 C 0.76151 0.27039 0.02911 0.0
C165 C 0.7437 0.27389 0.00357 0.0
C166 C 0.67103 0.38092 0.13228 0.0
H167 H 0.67796 0.36649 0.87171 0.0
H168 H 0.69134 0.34817 0.92593 0.0
H169 H 0.71159 0.41872 0.96422 0.0
H170 H 0.69844 0.43705 0.90992 0.0
H171 H 0.72733 0.34066 0.9635 0.0
H172 H 0.68846 0.39905 0.01154 0.0
H173 H 0.71963 0.34269 0.07419 0.0
H174 H 0.68149 0.35041 0.10174 0.0
H175 H 0.70139 0.42085 0.06207 0.0
H176 H 0.68178 0.43998 0.11154 0.0
H177 H 0.71812 0.29824 0.98059 0.0
H178 H 0.76088 0.32679 0.06465 0.0
H179 H 0.66231 0.36958 0.15144 0.0
H180 H 0.73843 0.25922 0.98662 0.0
H181 H 0.78143 0.28788 0.07048 0.0
C182 C 0.60385 0.68332 0.14942 0.0
C183 C 0.59577 0.65925 0.15196 0.0
C184 C 0.61646 0.69113 0.1201 0.0
C185 C 0.6212 0.675 0.09285 0.0
C186 C 0.61336 0.65088 0.09569 0.0
C187 C 0.60076 0.64312 0.12486 0.0
C188 C 0.63423 0.68307 0.06138 0.0
C189 C 0.65501 0.69759 0.06382 0.0
C190 C 0.66817 0.70391 0.03402 0.0
C191 C 0.66011 0.69578 0.00154 0.0
C192 C 0.63951 0.6811 -0.00117 0.0
C193 C 0.62653 0.67514 0.02876 0.0
C194 C 0.63215 0.67079 0.96515 0.0
C195 C 0.63061 0.68536 0.93542 0.0
C196 C 0.62643 0.64609 0.96276 0.0
C197 C 0.61885 0.63619 0.93147 0.0
C198 C 0.61668 0.6508 0.90185 0.0
C199 C 0.69107 0.71777 0.03701 0.0
C200 C 0.693 0.73733 0.06007 0.0
C201 C 0.71138 0.71117 0.01725 0.0
C202 C 0.73308 0.72388 0.02033 0.0
C203 C 0.735 0.74342 0.04336 0.0
C204 C 0.71476 0.75 0.06326 0.0
C205 C 0.62287 0.67546 0.90404 0.0
H206 H 0.6001 0.6962 0.16984 0.0
H207 H 0.62214 0.70987 0.1185 0.0
H208 H 0.6172 0.63787 0.07549 0.0
H209 H 0.59523 0.62434 0.1264 0.0
H210 H 0.66154 0.70302 0.08906 0.0
H211 H 0.61032 0.66418 0.02659 0.0
H212 H 0.67018 0.70037 0.9784 0.0
H213 H 0.63483 0.70449 0.93665 0.0
H214 H 0.62795 0.63434 0.98513 0.0
H215 H 0.61476 0.61703 0.93049 0.0
H216 H 0.6776 0.74302 0.07539 0.0
H217 H 0.71068 0.69586 -0.0002 0.0
H218 H 0.62117 0.68723 0.88174 0.0
H219 H 0.71565 0.76519 0.08091 0.0
H220 H 0.74848 0.71817 0.00504 0.0
C221 C 0.30983 0.60776 0.13078 0.0
C222 C 0.33403 0.5999 0.1295 0.0
C223 C 0.29892 0.61823 0.10177 0.0
C224 C 0.31199 0.62104 0.07086 0.0
C225 C 0.33621 0.61326 0.06962 0.0
C226 C 0.34711 0.60281 0.09861 0.0
C227 C 0.30049 0.63214 0.03998 0.0
C228 C 0.28603 0.65295 0.04321 0.0
C229 C 0.27582 0.66403 0.01389 0.0
C230 C 0.27991 0.65386 0.98113 0.0
C231 C 0.29441 0.63316 0.97748 0.0
C232 C 0.30454 0.62236 0.00701 0.0
C233 C 0.29991 0.62338 0.94274 0.0
C234 C 0.28142 0.6198 0.91829 0.0
C235 C 0.32388 0.61774 0.93381 0.0
C236 C 0.32932 0.6087 0.90109 0.0
C237 C 0.31088 0.60495 0.87666 0.0
C238 C 0.26187 0.68687 0.01734 0.0
C239 C 0.24498 0.68983 0.04417 0.0
C240 C 0.26578 0.70609 0.99416 0.0
C241 C 0.25309 0.72781 0.99772 0.0
C242 C 0.23621 0.7308 0.02455 0.0
C243 C 0.23227 0.71157 0.04773 0.0
C244 C 0.28685 0.61049 0.88557 0.0
H245 H 0.29917 0.60546 0.15406 0.0
H246 H 0.28015 0.6238 0.10337 0.0
H247 H 0.34688 0.61558 0.04637 0.0
H248 H 0.3659 0.59733 0.09696 0.0
H249 H 0.28353 0.6611 0.06845 0.0
H250 H 0.31545 0.60613 0.00428 0.0
H251 H 0.27219 0.66232 0.95833 0.0
H252 H 0.26277 0.62392 0.92463 0.0
H253 H 0.3385 0.62054 0.95206 0.0
H254 H 0.34797 0.6043 0.89506 0.0
H255 H 0.24141 0.67523 0.0622 0.0
H256 H 0.27901 0.70453 0.97361 0.0
H257 H 0.27232 0.60781 0.86716 0.0
H258 H 0.21913 0.71321 0.06838 0.0
H259 H 0.25682 0.74241 0.97978 0.0
C260 C 0.87203 0.8136 0.3999 0.0
C261 C 0.89706 0.81451 0.39365 0.0
C262 C 0.86319 0.80487 0.43128 0.0
C263 C 0.87917 0.79671 0.45711 0.0
C264 C 0.90417 0.79664 0.45031 0.0
C265 C 0.91303 0.80546 0.41888 0.0
C266 C 0.86975 0.79002 0.49177 0.0
C267 C 0.84787 0.77736 0.49498 0.0
C268 C 0.83712 0.77375 0.52749 0.0
C269 C 0.84908 0.78216 0.55721 0.0
C270 C 0.87127 0.79442 0.55454 0.0
C271 C 0.88147 0.79824 0.52174 0.0
C272 C 0.883 0.80493 0.58557 0.0
C273 C 0.86918 0.81762 0.61009 0.0
C274 C 0.90821 0.80347 0.58993 0.0
C275 C 0.91944 0.81488 0.61786 0.0
C276 C 0.90568 0.82803 0.64198 0.0
C277 C 0.8128 0.76246 0.53004 0.0
C278 C 0.79479 0.76819 0.50564 0.0
C279 C 0.80726 0.74619 0.55686 0.0
C280 C 0.78427 0.73573 0.55903 0.0
C281 C 0.76637 0.74126 0.53434 0.0
C282 C 0.77192 0.75763 0.50766 0.0
C283 C 0.8804 0.82906 0.63797 0.0
H284 H 0.85926 0.82012 0.38076 0.0
H285 H 0.84385 0.80543 0.43577 0.0
H286 H 0.91692 0.79022 0.46956 0.0
H287 H 0.93243 0.80604 0.41492 0.0
H288 H 0.839 0.77054 0.47196 0.0
H289 H 0.89789 0.80884 0.51944 0.0
H290 H 0.84083 0.77974 0.58239 0.0
H291 H 0.84977 0.81941 0.60711 0.0
H292 H 0.91928 0.79358 0.57163 0.0
H293 H 0.93891 0.81342 0.62055 0.0
H294 H 0.79828 0.78099 0.485 0.0
H295 H 0.82076 0.7413 0.57596 0.0
H296 H 0.86932 0.83933 0.6558 0.0
H297 H 0.75872 0.76205 0.48791 0.0
H298 H 0.78052 0.72338 0.58013 0.0
C299 C 0.18104 0.86482 0.39635 0.0
C300 C 0.18275 0.88953 0.38787 0.0
C301 C 0.18907 0.85639 0.4285 0.0
C302 C 0.19878 0.87254 0.45287 0.0
C303 C 0.20134 0.89706 0.44385 0.0
C304 C 0.19347 0.90546 0.41168 0.0
C305 C 0.20447 0.86425 0.48846 0.0
C306 C 0.21696 0.84245 0.49429 0.0
C307 C 0.22127 0.83414 0.52816 0.0
C308 C 0.21275 0.84785 0.55625 0.0
C309 C 0.20008 0.86958 0.55081 0.0
C310 C 0.19621 0.87772 0.51687 0.0
C311 C 0.18964 0.8832 0.5803 0.0
C312 C 0.17711 0.87095 0.60665 0.0
C313 C 0.19109 0.9086 0.58145 0.0
C314 C 0.17986 0.9215 0.60805 0.0
C315 C 0.16683 0.90928 0.63393 0.0
C316 C 0.23412 0.81089 0.53428 0.0
C317 C 0.22859 0.79034 0.51442 0.0
C318 C 0.25172 0.80896 0.56041 0.0
C319 C 0.26352 0.78697 0.56657 0.0
C320 C 0.25794 0.76638 0.54677 0.0
C321 C 0.24033 0.76834 0.52062 0.0
C322 C 0.16579 0.88386 0.63314 0.0
H323 H 0.17308 0.85209 0.37838 0.0
H324 H 0.18674 0.83742 0.43481 0.0
H325 H 0.20896 0.90987 0.46203 0.0
H326 H 0.19486 0.92463 0.40603 0.0
H327 H 0.22357 0.8321 0.47244 0.0
H328 H 0.18575 0.89406 0.51248 0.0
H329 H 0.21564 0.8414 0.58242 0.0
H330 H 0.17548 0.85141 0.60628 0.0
H331 H 0.20078 0.9185 0.56163 0.0
H332 H 0.18087 0.94109 0.60787 0.0
H333 H 0.21484 0.79115 0.49447 0.0
H334 H 0.2566 0.82456 0.57586 0.0
H335 H 0.15614 0.87392 0.65298 0.0
H336 H 0.23534 0.75275 0.50524 0.0
H337 H 0.27728 0.7862 0.5865 0.0
C338 C 0.10286 0.18491 0.63551 0.0
C339 C 0.09252 0.16168 0.63387 0.0
C340 C 0.11498 0.19457 0.60693 0.0
C341 C 0.11702 0.18116 0.57621 0.0
C342 C 0.10677 0.1579 0.57471 0.0
C343 C 0.09462 0.1483 0.60318 0.0
C344 C 0.12994 0.19113 0.54575 0.0
C345 C 0.15214 0.20321 0.54966 0.0
C346 C 0.16511 0.2113 0.52058 0.0
C347 C 0.15545 0.20741 0.48741 0.0
C348 C 0.1335 0.19507 0.48313 0.0
C349 C 0.12068 0.18738 0.5124 0.0
C350 C 0.12495 0.18842 0.44812 0.0
C351 C 0.12545 0.20522 0.42077 0.0
C352 C 0.11708 0.16469 0.44167 0.0
C353 C 0.11003 0.15779 0.40855 0.0
C354 C 0.11069 0.17445 0.3811 0.0
C355 C 0.18925 0.22276 0.52459 0.0
C356 C 0.19371 0.23934 0.55138 0.0
C357 C 0.20805 0.21722 0.50141 0.0
C358 C 0.23054 0.22847 0.50431 0.0
C359 C 0.23493 0.24533 0.53075 0.0
C360 C 0.21632 0.25044 0.5545 0.0
C361 C 0.11824 0.19831 0.38753 0.0
H362 H 0.10133 0.19571 0.65877 0.0
H363 H 0.12251 0.21262 0.60873 0.0
H364 H 0.10847 0.14689 0.55168 0.0
H365 H 0.08727 0.13017 0.60136 0.0
H366 H 0.15984 0.20532 0.57526 0.0
H367 H 0.10348 0.17824 0.50913 0.0
H368 H 0.16535 0.21336 0.46477 0.0
H369 H 0.13135 0.22366 0.4251 0.0
H370 H 0.11679 0.15128 0.46214 0.0
H371 H 0.10393 0.13938 0.40447 0.0
H372 H 0.1796 0.24408 0.5696 0.0
H373 H 0.20543 0.20416 0.48089 0.0
H374 H 0.11894 0.2115 0.36679 0.0
H375 H 0.21918 0.2631 0.57546 0.0
H376 H 0.24429 0.22431 0.48528 0.0
C377 C 0.80453 0.10389 0.63053 0.0
C378 C 0.82899 0.09681 0.63098 0.0
C379 C 0.79472 0.11537 0.6015 0.0
C380 C 0.80912 0.11987 0.57225 0.0
C381 C 0.83354 0.11269 0.57267 0.0
C382 C 0.84337 0.10132 0.60173 0.0
C383 C 0.7988 0.1321 0.5414 0.0
C384 C 0.78398 0.15261 0.54507 0.0
C385 C 0.77474 0.1647 0.51587 0.0
C386 C 0.78026 0.15581 0.48274 0.0
C387 C 0.7952 0.13544 0.47868 0.0
C388 C 0.8043 0.12365 0.50812 0.0
C389 C 0.80201 0.12683 0.44374 0.0
C390 C 0.78446 0.12398 0.41774 0.0
C391 C 0.82626 0.12123 0.43634 0.0
C392 C 0.83285 0.11279 0.4037 0.0
C393 C 0.81531 0.10962 0.37779 0.0
C394 C 0.76021 0.18717 0.52001 0.0
C395 C 0.74267 0.18901 0.5462 0.0
C396 C 0.76417 0.20715 0.49818 0.0
C397 C 0.75093 0.22848 0.50245 0.0
C398 C 0.73345 0.23038 0.52871 0.0
C399 C 0.72943 0.21039 0.55051 0.0
C400 C 0.79103 0.1153 0.38509 0.0
H401 H 0.79306 0.10085 0.65282 0.0
H402 H 0.77579 0.12054 0.60181 0.0
H403 H 0.84516 0.11613 0.55065 0.0
H404 H 0.86221 0.09587 0.60119 0.0
H405 H 0.7804 0.15971 0.57068 0.0
H406 H 0.81548 0.10764 0.50509 0.0
H407 H 0.77327 0.16498 0.46002 0.0
H408 H 0.76561 0.12806 0.42285 0.0
H409 H 0.84019 0.12348 0.45579 0.0
H410 H 0.85165 0.10828 0.39896 0.0
H411 H 0.73905 0.17388 0.56327 0.0
H412 H 0.77778 0.20645 0.47805 0.0
H413 H 0.77717 0.11312 0.36553 0.0
H414 H 0.71624 0.21132 0.57117 0.0
H415 H 0.75425 0.24342 0.48491 0.0
H416 H 0.07753 0.1289 0.986 0.0
H417 H 0.10813 0.16039 0.9933 0.0
H418 H 0.1176 0.13935 0.0999 0.0
H419 H 0.08658 0.10829 0.09323 0.0
H420 H 0.12344 0.18916 0.08928 0.0
H421 H 0.17752 0.13463 0.99657 0.0
H422 H 0.14908 0.14503 0.97964 0.0
H423 H 0.14957 0.12385 0.01502 0.0
C424 C 0.08568 0.13134 0.01124 0.0
C425 C 0.08004 0.11569 0.03879 0.0
C426 C 0.10322 0.14929 0.01531 0.0
C427 C 0.11561 0.15164 0.04681 0.0
C428 C 0.10841 0.13763 0.07526 0.0
H429 H 0.26391 0.19728 0.06615 0.0
H430 H 0.22532 0.176 0.06932 0.0
C431 C 0.09068 0.11984 0.07134 0.0
C432 C 0.13783 0.16648 0.04899 0.0
H433 H 0.19486 0.1711 0.01593 0.0
C434 C 0.13907 0.18532 0.07323 0.0
C435 C 0.15836 0.16098 0.02855 0.0
C436 C 0.15875 0.13989 0.00371 0.0
C437 C 0.16029 0.19904 0.07728 0.0
C438 C 0.18055 0.19395 0.0561 0.0
C439 C 0.17927 0.17503 0.03203 0.0
C440 C 0.20349 0.20769 0.0584 0.0
C441 C 0.16104 0.21841 0.10473 0.0
C442 C 0.20401 0.23264 0.05165 0.0
C443 C 0.22606 0.24496 0.05032 0.0
C444 C 0.24804 0.23247 0.05523 0.0
C445 C 0.24737 0.20755 0.06272 0.0
C446 C 0.22532 0.19532 0.06431 0.0
H447 H 0.14693 0.21548 0.12478 0.0
H448 H 0.17902 0.219 0.11753 0.0
H449 H 0.15764 0.2363 0.09254 0.0
H450 H 0.18743 0.24246 0.04634 0.0
H451 H 0.2259 0.26421 0.04494 0.0
H452 H 0.88666 0.08356 0.97982 0.0
H453 H 0.85654 0.11555 0.98609 0.0
H454 H 0.86443 0.11257 0.09694 0.0
H455 H 0.89506 0.08076 0.091 0.0
H456 H 0.81269 0.11955 0.02075 0.0
H457 H 0.88151 0.18263 0.07462 0.0
H458 H 0.88961 0.15411 0.05508 0.0
H459 H 0.87755 0.15488 0.09822 0.0
C460 C 0.88185 0.08946 0.00561 0.0
C461 C 0.89356 0.07983 0.03489 0.0
C462 C 0.86457 0.10774 0.00913 0.0
C463 C 0.85864 0.11674 0.04194 0.0
C464 C 0.86916 0.10619 0.07137 0.0
H465 H 0.77404 0.24679 0.08895 0.0
H466 H 0.79563 0.20825 0.09474 0.0
C467 C 0.88656 0.08793 0.06789 0.0
C468 C 0.84253 0.13808 0.04483 0.0
H469 H 0.84206 0.19782 0.06748 0.0
C470 C 0.81902 0.13663 0.03121 0.0
C471 C 0.8509 0.16034 0.05846 0.0
C472 C 0.87632 0.16327 0.07219 0.0
C473 C 0.80375 0.15695 0.03037 0.0
C474 C 0.81237 0.17931 0.04312 0.0
C475 C 0.83556 0.1806 0.05776 0.0
C476 C 0.79823 0.20195 0.03969 0.0
C477 C 0.77858 0.15439 0.01569 0.0
C478 C 0.79282 0.21124 0.0068 0.0
C479 C 0.78074 0.23334 0.00337 0.0
C480 C 0.77391 0.24662 0.0328 0.0
C481 C 0.7793 0.23717 0.06575 0.0
C482 C 0.79146 0.21509 0.06914 0.0
H483 H 0.77246 0.13523 0.01595 0.0
H484 H 0.76539 0.16552 0.03041 0.0
H485 H 0.77855 0.16075 0.98845 0.0
H486 H 0.79843 0.20164 0.98374 0.0
H487 H 0.77727 0.24028 0.97763 0.0
H488 H 0.91939 0.88485 0.09042 0.0
H489 H 0.8913 0.85133 0.09984 0.0
H490 H 0.88466 0.84162 0.98961 0.0
H491 H 0.91279 0.8749 0.97983 0.0
H492 H 0.84409 0.85445 0.07521 0.0
H493 H 0.88883 0.77189 0.02509 0.0
H494 H 0.90545 0.79887 0.03657 0.0
H495 H 0.89025 0.79693 0.99551 0.0
C496 C 0.91246 0.8752 0.06815 0.0
C497 C 0.91815 0.88274 0.03432 0.0
C498 C 0.89641 0.85605 0.07363 0.0
C499 C 0.88604 0.84393 0.04544 0.0
C500 C 0.8928 0.85045 0.01174 0.0
H501 H 0.76421 0.75885 0.99097 0.0
H502 H 0.80191 0.78175 0.99559 0.0
C503 C 0.90877 0.86963 0.0062 0.0
C504 C 0.86575 0.82691 0.05081 0.0
H505 H 0.8454 0.77058 0.02953 0.0
C506 C 0.84447 0.83594 0.06587 0.0
C507 C 0.86634 0.80288 0.03838 0.0
C508 C 0.88903 0.79197 0.02327 0.0
C509 C 0.82331 0.822 0.06715 0.0
C510 C 0.82365 0.79822 0.05364 0.0
C511 C 0.84521 0.78885 0.03978 0.0
C512 C 0.80141 0.78342 0.05149 0.0
C513 C 0.80046 0.8333 0.08126 0.0
C514 C 0.78882 0.77658 0.08144 0.0
C515 C 0.76721 0.76358 0.07887 0.0
C516 C 0.75802 0.757 0.0463 0.0
C517 C 0.77096 0.76349 0.01641 0.0
C518 C 0.79247 0.77657 0.01901 0.0
H519 H 0.80202 0.85329 0.08363 0.0
H520 H 0.78472 0.8291 0.06444 0.0
H521 H 0.79676 0.82581 0.10736 0.0
H522 H 0.79569 0.78132 0.10678 0.0
H523 H 0.75781 0.75848 0.10234 0.0
H524 H 0.10431 0.92041 0.08737 0.0
H525 H 0.13557 0.88916 0.09157 0.0
H526 H 0.13847 0.8847 0.9803 0.0
H527 H 0.10756 0.91609 0.97573 0.0
H528 H 0.1292 0.84298 0.06703 0.0
H529 H 0.20978 0.8844 0.00598 0.0
H530 H 0.18427 0.90212 0.02062 0.0
H531 H 0.1832 0.8869 0.97953 0.0
C532 C 0.11192 0.91312 0.06375 0.0
C533 C 0.10331 0.92064 0.03117 0.0
C534 C 0.12979 0.89528 0.06624 0.0
C535 C 0.13948 0.88478 0.03626 0.0
C536 C 0.13161 0.89292 0.00375 0.0
H537 H 0.21596 0.75826 0.97327 0.0
H538 H 0.19382 0.79638 0.97925 0.0
C539 C 0.1138 0.91078 0.0012 0.0
C540 C 0.15575 0.86356 0.03877 0.0
H541 H 0.20963 0.84094 0.0101 0.0
C542 C 0.14697 0.84263 0.05513 0.0
C543 C 0.17886 0.86318 0.02309 0.0
C544 C 0.1897 0.88544 0.00661 0.0
C545 C 0.16022 0.82096 0.05484 0.0
C546 C 0.18298 0.82038 0.03818 0.0
C547 C 0.1921 0.84148 0.02273 0.0
C548 C 0.19701 0.7977 0.03497 0.0
C549 C 0.14931 0.7986 0.07101 0.0
C550 C 0.20629 0.786 0.06435 0.0
C551 C 0.219 0.76424 0.06102 0.0
C552 C 0.22275 0.75391 0.02822 0.0
C553 C 0.21362 0.76588 -0.00116 0.0
C554 C 0.20092 0.7876 0.00221 0.0
H555 H 0.12973 0.80095 0.07666 0.0
H556 H 0.15159 0.7827 0.05376 0.0
H557 H 0.15876 0.7946 0.0957 0.0
H558 H 0.20376 0.79375 0.08981 0.0
H559 H 0.22616 0.75566 0.08407 0.0
H560 H 0.57067 0.6235 0.46611 0.0
H561 H 0.60149 0.65523 0.46829 0.0
H562 H 0.60951 0.64388 0.57807 0.0
H563 H 0.57831 0.6128 0.57646 0.0
H564 H 0.61525 0.69158 0.56021 0.0
H565 H 0.67092 0.63154 0.47659 0.0
H566 H 0.64272 0.64094 0.45776 0.0
H567 H 0.64273 0.62183 0.49547 0.0
C568 C 0.57859 0.62814 0.49086 0.0
C569 C 0.57242 0.61523 0.52097 0.0
C570 C 0.59628 0.64619 0.49201 0.0
C571 C 0.60828 0.65133 0.52315 0.0
C572 C 0.60064 0.64 0.55371 0.0
H573 H 0.75597 0.69422 0.55094 0.0
H574 H 0.71657 0.67433 0.54996 0.0
C575 C 0.58279 0.62217 0.55269 0.0
C576 C 0.63037 0.66645 0.52358 0.0
H577 H 0.68846 0.66833 0.49378 0.0
C578 C 0.63124 0.68665 0.54553 0.0
C579 C 0.65133 0.6596 0.50493 0.0
C580 C 0.65207 0.63718 0.4826 0.0
C581 C 0.65261 0.70012 0.54953 0.0
C582 C 0.67343 0.69343 0.5305 0.0
C583 C 0.67243 0.67343 0.50825 0.0
C584 C 0.69679 0.7063 0.53392 0.0
C585 C 0.65293 0.7208 0.57499 0.0
C586 C 0.6987 0.73094 0.52555 0.0
C587 C 0.72117 0.74248 0.52664 0.0
C588 C 0.74222 0.7295 0.53564 0.0
C589 C 0.74013 0.70487 0.54442 0.0
C590 C 0.71764 0.69342 0.54359 0.0
H591 H 0.63783 0.71947 0.59388 0.0
H592 H 0.6703 0.72133 0.58943 0.0
H593 H 0.6509 0.73814 0.56076 0.0
H594 H 0.68293 0.74112 0.51739 0.0
H595 H 0.72208 0.76153 0.52012 0.0
H596 H 0.39447 0.57861 0.61143 0.0
H597 H 0.36319 0.60938 0.62122 0.0
H598 H 0.34767 0.61087 0.51191 0.0
H599 H 0.37841 0.58013 0.50192 0.0
H600 H 0.36518 0.65524 0.59293 0.0
H601 H 0.28021 0.6106 0.55319 0.0
H602 H 0.30737 0.59377 0.56339 0.0
H603 H 0.30342 0.60707 0.52119 0.0
C604 C 0.38406 0.58515 0.58956 0.0
C605 C 0.3891 0.57703 0.55582 0.0
C606 C 0.3662 0.60272 0.59524 0.0
C607 C 0.35294 0.61223 0.56734 0.0
C608 C 0.35729 0.60343 0.53392 0.0
H609 H 0.27456 0.73406 0.49874 0.0
H610 H 0.29587 0.69593 0.50901 0.0
C611 C 0.37507 0.58595 0.52822 0.0
C612 C 0.33656 0.63323 0.57205 0.0
H613 H 0.28057 0.65442 0.54987 0.0
C614 C 0.3465 0.65497 0.58431 0.0
C615 C 0.31221 0.63281 0.56076 0.0
C616 C 0.30011 0.60972 0.54923 0.0
C617 C 0.33323 0.67667 0.58339 0.0
C618 C 0.30934 0.67647 0.57026 0.0
C619 C 0.29898 0.65451 0.55968 0.0
C620 C 0.29554 0.69913 0.56475 0.0
C621 C 0.34531 0.69987 0.59458 0.0
C622 C 0.28807 0.7134 0.59275 0.0
C623 C 0.27575 0.73518 0.58698 0.0
C624 C 0.27064 0.74302 0.55308 0.0
C625 C 0.27791 0.72844 0.52516 0.0
C626 C 0.29017 0.70669 0.53096 0.0
H627 H 0.36507 0.6975 0.59883 0.0
H628 H 0.34252 0.71428 0.57491 0.0
H629 H 0.33709 0.70614 0.61916 0.0
H630 H 0.29175 0.70768 0.61904 0.0
H631 H 0.27005 0.74578 0.60908 0.0
H632 H 0.4225 0.37604 0.46292 0.0
H633 H 0.39395 0.3422 0.46428 0.0
H634 H 0.38563 0.35114 0.57443 0.0
H635 H 0.41469 0.38421 0.57363 0.0
H636 H 0.38308 0.30386 0.55608 0.0
H637 H 0.32321 0.36009 0.47263 0.0
H638 H 0.35191 0.35273 0.45363 0.0
H639 H 0.35071 0.3717 0.49137 0.0
C640 C 0.41499 0.37045 0.48754 0.0
C641 C 0.42047 0.38317 0.51804 0.0
C642 C 0.39859 0.35121 0.48823 0.0
C643 C 0.38713 0.3447 0.51928 0.0
C644 C 0.3941 0.35602 0.55013 0.0
H645 H 0.24276 0.29291 0.54684 0.0
H646 H 0.28097 0.31488 0.54581 0.0
C647 C 0.4107 0.37501 0.54957 0.0
C648 C 0.36621 0.32798 0.51948 0.0
H649 H 0.30834 0.32216 0.4898 0.0
C650 C 0.36677 0.30771 0.54143 0.0
C651 C 0.3448 0.33339 0.50083 0.0
C652 C 0.34243 0.35576 0.47853 0.0
C653 C 0.34636 0.29285 0.54561 0.0
C654 C 0.32508 0.29815 0.52666 0.0
C655 C 0.32471 0.31814 0.50424 0.0
C656 C 0.30254 0.28394 0.53051 0.0
C657 C 0.34747 0.27225 0.57125 0.0
C658 C 0.30203 0.25916 0.52272 0.0
C659 C 0.28023 0.24639 0.52397 0.0
C660 C 0.25846 0.25828 0.53245 0.0
C661 C 0.25917 0.28305 0.54076 0.0
C662 C 0.28099 0.29571 0.53986 0.0
H663 H 0.3625 0.2746 0.59005 0.0
H664 H 0.33022 0.27061 0.58579 0.0
H665 H 0.3506 0.25505 0.55715 0.0
H666 H 0.31835 0.24981 0.51483 0.0
H667 H 0.2804 0.22727 0.51784 0.0
H668 H 0.59243 0.41098 0.59198 0.0
H669 H 0.62201 0.37808 0.5935 0.0
H670 H 0.64236 0.3939 0.48819 0.0
H671 H 0.61246 0.42644 0.4861 0.0
H672 H 0.63054 0.34697 0.49707 0.0
H673 H 0.6952 0.37477 0.5992 0.0
H674 H 0.66422 0.37527 0.61317 0.0
H675 H 0.67401 0.39564 0.57966 0.0
C676 C 0.6035 0.40777 0.56933 0.0
C677 C 0.59991 0.42121 0.53879 0.0
C678 C 0.62053 0.38903 0.57034 0.0
C679 C 0.63451 0.38365 0.54104 0.0
C680 C 0.63176 0.39777 0.5111 0.0
H681 H 0.74979 0.27709 0.52425 0.0
H682 H 0.72596 0.31437 0.52778 0.0
C683 C 0.61465 0.41637 0.50997 0.0
C684 C 0.65014 0.36182 0.54029 0.0
H685 H 0.69724 0.33348 0.58088 0.0
C686 C 0.64524 0.34411 0.51526 0.0
C687 C 0.66937 0.35819 0.56391 0.0
C688 C 0.6762 0.37708 0.59029 0.0
C689 C 0.65883 0.32271 0.51343 0.0
C690 C 0.67748 0.31867 0.53782 0.0
C691 C 0.6827 0.33653 0.56251 0.0
C692 C 0.69201 0.29613 0.53755 0.0
C693 C 0.65329 0.30479 0.48507 0.0
C694 C 0.68087 0.27358 0.54254 0.0
C695 C 0.69436 0.25224 0.54014 0.0
C696 C 0.71931 0.25308 0.53298 0.0
C697 C 0.73054 0.27579 0.52913 0.0
C698 C 0.717 0.29711 0.53145 0.0
H699 H 0.64305 0.31333 0.4635 0.0
H700 H 0.67017 0.29676 0.4745 0.0
H701 H 0.64204 0.28993 0.49575 0.0
H702 H 0.66165 0.27247 0.54785 0.0
H703 H 0.68512 0.23507 0.54305 0.0
H704 H 0.00516 0.04506 0.16609 0.0
H705 H 0.02651 0.0693 0.20974 0.0
H706 H 0.04507 0.12193 0.13151 0.0
H707 H 0.02354 0.09777 0.08808 0.0
H708 H 0.0838 0.10993 0.17592 0.0
H709 H 0.00034 0.13365 0.24803 0.0
H710 H 0.00429 0.10165 0.24213 0.0
H711 H -0.00029 0.12087 0.2051 0.0
C712 C 0.01399 0.06173 0.15839 0.0
C713 C 0.01335 0.06946 0.12389 0.0
C714 C 0.02603 0.07556 0.18318 0.0
C715 C 0.03713 0.09748 0.17379 0.0
C716 C 0.03669 0.10503 0.13917 0.0
H717 H 0.08103 0.19838 0.33581 0.0
H718 H 0.06522 0.18322 0.2807 0.0
C719 C 0.02468 0.09116 0.11441 0.0
C720 C 0.04884 0.1127 0.20027 0.0
H721 H 0.03786 0.14193 0.27621 0.0
C722 C 0.07378 0.11714 0.19772 0.0
C723 C 0.03555 0.12255 0.22813 0.0
C724 C 0.00845 0.11968 0.23092 0.0
C725 C 0.08603 0.13021 0.2234 0.0
C726 C 0.07298 0.1387 0.25241 0.0
C727 C 0.04785 0.13525 0.25403 0.0
C728 C 0.08512 0.14946 0.28275 0.0
C729 C 0.11282 0.13465 0.21938 0.0
C730 C 0.10172 0.1356 0.30181 0.0
C731 C 0.11075 0.14419 0.33312 0.0
C732 C 0.10321 0.16674 0.34606 0.0
C733 C 0.08728 0.18102 0.32631 0.0
C734 C 0.0782 0.17237 0.29495 0.0
H735 H 0.11833 0.13416 0.19176 0.0
H736 H 0.11811 0.1524 0.23051 0.0
H737 H 0.12295 0.12021 0.23319 0.0
H738 H 0.10692 0.11767 0.29321 0.0
H739 H 0.12321 0.13292 0.34765 0.0
H740 H 0.89174 0.97537 0.12857 0.0
H741 H 0.86564 0.99667 0.16948 0.0
H742 H 0.91171 0.0595 0.16279 0.0
H743 H 0.93753 0.03839 0.12168 0.0
H744 H 0.87883 0.01226 0.23188 0.0
H745 H 0.84593 0.09056 0.1557 0.0
H746 H 0.86029 0.06469 0.13588 0.0
H747 H 0.8783 0.08825 0.15516 0.0
C748 C 0.89615 0.99386 0.13544 0.0
C749 C 0.91673 0.00529 0.12162 0.0
C750 C 0.88116 0.00601 0.15876 0.0
C751 C 0.88646 0.02983 0.16878 0.0
C752 C 0.90681 0.04139 0.1547 0.0
H753 H 0.85396 0.12272 0.33806 0.0
H754 H 0.86825 0.10331 0.28496 0.0
C755 C 0.9217 0.02926 0.13122 0.0
C756 C 0.87218 0.04168 0.19644 0.0
H757 H 0.84244 0.09386 0.21762 0.0
C758 C 0.87051 0.02991 0.22857 0.0
C759 C 0.86136 0.06473 0.1921 0.0
C760 C 0.86133 0.07767 0.15772 0.0
C761 C 0.85918 0.04099 0.25685 0.0
C762 C 0.84913 0.06436 0.2528 0.0
C763 C 0.85023 0.07593 0.22053 0.0
C764 C 0.83884 0.07756 0.28254 0.0
C765 C 0.85887 0.02806 0.29127 0.0
C766 C 0.81728 0.06981 0.29813 0.0
C767 C 0.80909 0.08083 0.32848 0.0
C768 C 0.82244 0.09968 0.3437 0.0
C769 C 0.84351 0.10801 0.32715 0.0
C770 C 0.85159 0.09708 0.29675 0.0
H771 H 0.87053 0.01165 0.2913 0.0
H772 H 0.86505 0.04036 0.31218 0.0
H773 H 0.84006 0.02243 0.29736 0.0
H774 H 0.80717 0.05482 0.28733 0.0
H775 H 0.79287 0.07396 0.34076 0.0
H776 H 0.95213 0.92852 0.11319 0.0
H777 H 0.93389 0.9067 0.16127 0.0
H778 H 0.00314 0.9041 0.21259 0.0
H779 H 0.0215 0.92606 0.1646 0.0
H780 H 0.94719 0.86018 0.18747 0.0
H781 H 0.95678 0.93286 0.28569 0.0
H782 H 0.95928 0.93855 0.23983 0.0
H783 H 0.9842 0.92538 0.26311 0.0
C784 C 0.96349 0.92349 0.13453 0.0
C785 C 0.98825 0.92919 0.13476 0.0
C786 C 0.95303 0.91093 0.16208 0.0
C787 C 0.96714 0.90404 0.19056 0.0
C788 C 0.99187 0.9096 0.19102 0.0
H789 H 0.93462 0.79973 0.35228 0.0
H790 H 0.95124 0.82086 0.30183 0.0
C791 C 0.00232 0.92209 0.16344 0.0
C792 C 0.9561 0.8907 0.21963 0.0
H793 H 0.94446 0.89426 0.30605 0.0
C794 C 0.9465 0.8676 0.21341 0.0
C795 C 0.95506 0.90063 0.25325 0.0
C796 C 0.96417 0.9258 0.26096 0.0
C797 C 0.93617 0.85394 0.24021 0.0
C798 C 0.93574 0.86361 0.27402 0.0
C799 C 0.94503 0.88685 0.2801 0.0
C800 C 0.92525 0.8502 0.30348 0.0
C801 C 0.92549 0.82947 0.23207 0.0
C802 C 0.90541 0.85992 0.32126 0.0
C803 C 0.89606 0.84807 0.35016 0.0
C804 C 0.90645 0.82629 0.36191 0.0
C805 C 0.92629 0.81652 0.34392 0.0
C806 C 0.93565 0.82842 0.31493 0.0
H807 H 0.92216 0.8272 0.20392 0.0
H808 H 0.93831 0.81513 0.24047 0.0
H809 H 0.90818 0.82675 0.24613 0.0
H810 H 0.89728 0.87682 0.31293 0.0
H811 H 0.88105 0.85631 0.36381 0.0
H812 H 0.0858 0.02653 0.15966 0.0
H813 H 0.10766 0.00529 0.20552 0.0
H814 H 0.0871 0.93672 0.16131 0.0
H815 H 0.06555 0.95778 0.11542 0.0
H816 H 0.08931 0.97193 0.25365 0.0
H817 H 0.16096 0.93063 0.17183 0.0
H818 H 0.14202 0.9552 0.15691 0.0
H819 H 0.13051 0.9248 0.15782 0.0
C820 C 0.08596 0.00691 0.15953 0.0
C821 C 0.07391 0.99385 0.13344 0.0
C822 C 0.09847 0.99483 0.18581 0.0
C823 C 0.09933 0.96946 0.18646 0.0
C824 C 0.08709 0.95634 0.16088 0.0
H825 H 0.13883 0.87805 0.36003 0.0
H826 H 0.11913 0.89651 0.30977 0.0
C827 C 0.07457 0.96844 0.13464 0.0
C828 C 0.11246 0.95675 0.21449 0.0
H829 H 0.15951 0.91812 0.23064 0.0
C830 C 0.10468 0.96019 0.24865 0.0
C831 C 0.13259 0.94159 0.2078 0.0
C832 C 0.14221 0.93793 0.17166 0.0
C833 C 0.11633 0.94865 0.27637 0.0
C834 C 0.13615 0.93314 0.26964 0.0
C835 C 0.14416 0.9299 0.23555 0.0
C836 C 0.14894 0.92048 0.29797 0.0
C837 C 0.10758 0.95331 0.31271 0.0
C838 C 0.17247 0.9274 0.30722 0.0
C839 C 0.18382 0.91685 0.33586 0.0
C840 C 0.17186 0.89906 0.35549 0.0
C841 C 0.14862 0.89153 0.34525 0.0
C842 C 0.13726 0.90217 0.31674 0.0
H843 H 0.09519 0.96915 0.31402 0.0
H844 H 0.09764 0.93717 0.32223 0.0
H845 H 0.12311 0.95649 0.33037 0.0
H846 H 0.18178 0.94145 0.29288 0.0
H847 H 0.20182 0.92283 0.34292 0.0
H848 H 0.02977 0.99421 0.87393 0.0
H849 H 0.04895 0.97595 0.8231 0.0
H850 H 0.11191 0.02076 0.8385 0.0
H851 H 0.09317 0.03872 0.88953 0.0
H852 H 0.06776 0.99622 0.76154 0.0
H853 H 0.13955 0.95189 0.83995 0.0
H854 H 0.11268 0.96482 0.859 0.0
H855 H 0.13734 0.98403 0.84612 0.0
C856 C 0.04769 0.00017 0.86645 0.0
C857 C 0.06012 0.01759 0.88607 0.0
C858 C 0.05857 0.9898 0.83737 0.0
C859 C 0.08204 0.99665 0.82758 0.0
C860 C 0.09402 0.01482 0.84617 0.0
H861 H 0.18342 0.94804 0.671 0.0
H862 H 0.1621 0.9704 0.71644 0.0
C863 C 0.08321 0.02514 0.87522 0.0
C864 C 0.09436 0.98432 0.79857 0.0
H865 H 0.14373 0.94969 0.77908 0.0
C866 C 0.08431 0.98596 0.76532 0.0
C867 C 0.11594 0.97094 0.80371 0.0
C868 C 0.12694 0.96757 0.83916 0.0
C869 C 0.09554 0.97486 0.73688 0.0
C870 C 0.11717 0.96162 0.74204 0.0
C871 C 0.12721 0.96 0.77526 0.0
C872 C 0.12951 0.94883 0.71347 0.0
C873 C 0.08442 0.97769 0.70146 0.0
C874 C 0.11826 0.92922 0.69704 0.0
C875 C 0.13037 0.91642 0.67116 0.0
C876 C 0.15398 0.92299 0.66131 0.0
C877 C 0.16516 0.94272 0.67778 0.0
C878 C 0.15306 0.95544 0.70378 0.0
H879 H 0.07126 0.99291 0.70053 0.0
H880 H 0.09862 0.98082 0.68163 0.0
H881 H 0.07468 0.96081 0.69461 0.0
H882 H 0.10023 0.92361 0.70457 0.0
H883 H 0.1212 0.90146 0.65872 0.0
H884 H 0.96795 0.05114 0.87069 0.0
H885 H 0.98565 0.06603 0.8166 0.0
H886 H 0.04463 0.09785 0.87368 0.0
H887 H 0.02708 0.08333 0.92777 0.0
H888 H 0.99599 0.11709 0.80275 0.0
H889 H 0.0774 0.05821 0.79436 0.0
H890 H 0.05098 0.05024 0.8194 0.0
H891 H 0.0723 0.07189 0.8359 0.0
C892 C 0.98478 0.06117 0.87171 0.0
C893 C 0.99614 0.06609 0.9035 0.0
C894 C 0.99484 0.06962 0.84082 0.0
C895 C 0.01651 0.08279 0.84127 0.0
C896 C 0.02805 0.08741 0.87285 0.0
H897 H 0.107 0.16258 0.70142 0.0
H898 H 0.08713 0.14345 0.75102 0.0
C899 C 0.01793 0.07919 0.90372 0.0
C900 C 0.02643 0.0931 0.80906 0.0
H901 H 0.07633 0.09259 0.75719 0.0
C902 C 0.01342 0.11159 0.79247 0.0
C903 C 0.04915 0.08583 0.79596 0.0
C904 C 0.06325 0.06531 0.81208 0.0
C905 C 0.023 0.12367 0.76364 0.0
C906 C 0.04599 0.11676 0.751 0.0
C907 C 0.05877 0.09791 0.76718 0.0
C908 C 0.0573 0.12906 0.72121 0.0
C909 C 0.00885 0.14421 0.7476 0.0
C910 C 0.047 0.12728 0.68818 0.0
C911 C 0.05823 0.13825 0.65989 0.0
C912 C 0.07998 0.15111 0.66418 0.0
C913 C 0.09011 0.15305 0.69741 0.0
C914 C 0.0789 0.14201 0.72567 0.0
H915 H 0.99403 0.15059 0.76477 0.0
H916 H 0.02091 0.15972 0.74163 0.0
H917 H 0.00064 0.13796 0.72299 0.0
H918 H 0.03048 0.11711 0.68422 0.0
H919 H 0.04991 0.13662 0.63463 0.0
H920 H 0.91643 0.96218 0.87379 0.0
H921 H 0.90056 0.98138 0.82138 0.0
H922 H 0.90275 0.05099 0.87169 0.0
H923 H 0.91789 0.03186 0.92446 0.0
H924 H 0.85979 0.04268 0.83878 0.0
H925 H 0.9367 0.02252 0.75111 0.0
H926 H 0.92449 0.99629 0.77231 0.0
H927 H 0.93889 0.01953 0.7975 0.0
C928 C 0.91368 0.98159 0.87357 0.0
C929 C 0.91856 0.99552 0.90314 0.0
C930 C 0.90477 0.99254 0.84356 0.0
C931 C 0.90091 0.01765 0.84248 0.0
C932 C 0.90575 0.0316 0.87196 0.0
H933 H 0.87274 0.10589 0.66129 0.0
H934 H 0.89001 0.08653 0.71264 0.0
C935 C 0.91445 0.02064 0.90206 0.0
C936 C 0.89085 0.02928 0.81111 0.0
H937 H 0.90098 0.0383 0.72499 0.0
C938 C 0.86882 0.04181 0.81391 0.0
C939 C 0.90283 0.02829 0.77883 0.0
C940 C 0.92715 0.01613 0.77469 0.0
C941 C 0.85826 0.05318 0.78517 0.0
C942 C 0.86984 0.05154 0.75265 0.0
C943 C 0.89204 0.03928 0.74992 0.0
C944 C 0.85942 0.06285 0.72127 0.0
C945 C 0.83505 0.06722 0.79005 0.0
C946 C 0.83664 0.0557 0.70889 0.0
C947 C 0.82672 0.06674 0.67959 0.0
C948 C 0.83954 0.08494 0.66196 0.0
C949 C 0.86253 0.09177 0.67413 0.0
C950 C 0.87238 0.08079 0.7035 0.0
H951 H 0.83204 0.07202 0.81761 0.0
H952 H 0.83512 0.08412 0.77445 0.0
H953 H 0.81957 0.05595 0.78143 0.0
H954 H 0.82659 0.0415 0.7218 0.0
H955 H 0.80916 0.06081 0.67047 0.0
H956 H 0.0283 0.94779 0.8724 0.0
H957 H 0.01157 0.9322 0.81822 0.0
H958 H 0.9478 0.90808 0.87252 0.0
H959 H 0.96433 0.92357 0.92664 0.0
H960 H -0.00038 0.88363 0.80653 0.0
H961 H 0.92013 0.94331 0.78745 0.0
H962 H 0.94421 0.9505 0.8173 0.0
H963 H 0.92072 0.92959 0.82952 0.0
C964 C 0.01053 0.93957 0.87269 0.0
C965 C 0.99751 0.93718 0.90376 0.0
C966 C 0.00104 0.93062 0.84175 0.0
C967 C 0.97832 0.91932 0.84133 0.0
C968 C 0.96514 0.91721 0.87218 0.0
H969 H 0.89087 0.83155 0.7093 0.0
H970 H 0.90982 0.85466 0.75591 0.0
C971 C 0.97466 0.92603 0.90312 0.0
C972 C 0.96914 0.9079 0.80936 0.0
H973 H 0.92026 0.90603 0.75546 0.0
C974 C 0.98245 0.88873 0.79499 0.0
C975 C 0.94674 0.91463 0.79446 0.0
C976 C 0.93224 0.9358 0.80778 0.0
C977 C 0.97342 0.8754 0.76697 0.0
C978 C 0.95065 0.88164 0.75285 0.0
C979 C 0.93766 0.90124 0.76657 0.0
C980 C 0.93957 0.86754 0.72455 0.0
C981 C 0.98783 0.85417 0.75354 0.0
C982 C 0.95003 0.86726 0.69154 0.0
C983 C 0.9392 0.85418 0.66481 0.0
C984 C 0.91766 0.84123 0.67066 0.0
C985 C 0.90729 0.84154 0.70386 0.0
C986 C 0.91812 0.85465 0.73053 0.0
H987 H 0.00268 0.84893 0.77145 0.0
H988 H 0.97591 0.83825 0.74944 0.0
H989 H 0.99598 0.85905 0.72826 0.0
H990 H 0.96639 0.87744 0.68635 0.0
H991 H 0.9474 0.85466 0.63939 0.0
H992 H 0.53375 0.58459 0.6033 0.0
H993 H 0.55994 0.5993 0.64967 0.0
H994 H 0.52306 0.55261 0.72203 0.0
H995 H 0.49771 0.537 0.6751 0.0
H996 H 0.54433 0.62337 0.70581 0.0
H997 H 0.59345 0.54081 0.7469 0.0
H998 H 0.57664 0.54246 0.70692 0.0
H999 H 0.56127 0.5365 0.74703 0.0
C1000 C 0.53199 0.57678 0.62875 0.0
C1001 C 0.51432 0.55919 0.63543 0.0
C1002 C 0.54668 0.5854 0.65533 0.0
C1003 C 0.54377 0.57669 0.68915 0.0
C1004 C 0.52607 0.55909 0.69593 0.0
H1005 H 0.57966 0.6186 0.89397 0.0
H1006 H 0.56458 0.60084 0.84038 0.0
C1007 C 0.51144 0.55038 0.66924 0.0
C1008 C 0.55762 0.58764 0.71786 0.0
H1009 H 0.59315 0.57401 0.78744 0.0
C1010 C 0.55533 0.61266 0.72335 0.0
C1011 C 0.57197 0.57359 0.74062 0.0
C1012 C 0.5762 0.54689 0.73489 0.0
C1013 C 0.56616 0.62387 0.75191 0.0
C1014 C 0.57973 0.60966 0.77533 0.0
C1015 C 0.58263 0.58478 0.76936 0.0
C1016 C 0.58967 0.62006 0.80742 0.0
C1017 C 0.56223 0.65061 0.75768 0.0
C1018 C 0.60885 0.63665 0.80644 0.0
C1019 C 0.61768 0.64673 0.83709 0.0
C1020 C 0.60744 0.64031 0.86912 0.0
C1021 C 0.58822 0.62363 0.86981 0.0
C1022 C 0.57951 0.61353 0.83925 0.0
H1023 H 0.54844 0.65828 0.73981 0.0
H1024 H 0.5564 0.65402 0.78472 0.0
H1025 H 0.57952 0.66038 0.75349 0.0
H1026 H 0.617 0.64172 0.78202 0.0
H1027 H 0.63269 0.65929 0.83575 0.0
H1028 H 0.43684 0.52973 0.63437 0.0
H1029 H 0.40959 0.54966 0.67489 0.0
H1030 H 0.35936 0.4903 0.66558 0.0
H1031 H 0.3867 0.47028 0.62474 0.0
H1032 H 0.361 0.56443 0.66786 0.0
H1033 H 0.37272 0.49393 0.76966 0.0
H1034 H 0.39232 0.4959 0.73248 0.0
H1035 H 0.36255 0.4832 0.72831 0.0
C1036 C 0.41989 0.52112 0.64042 0.0
C1037 C 0.41388 0.49861 0.62608 0.0
C1038 C 0.40434 0.53246 0.66373 0.0
C1039 C 0.38257 0.52135 0.67338 0.0
C1040 C 0.37626 0.499 0.65878 0.0
H1041 H 0.28823 0.56797 0.84275 0.0
H1042 H 0.30123 0.54824 0.78905 0.0
C1043 C 0.39188 0.48763 0.63547 0.0
C1044 C 0.36706 0.53295 0.6997 0.0
H1045 H 0.34741 0.52688 0.78285 0.0
C1046 C 0.35779 0.55615 0.6929 0.0
C1047 C 0.36294 0.52202 0.73227 0.0
C1048 C 0.37327 0.49749 0.74139 0.0
C1049 C 0.34495 0.56901 0.71821 0.0
C1050 C 0.34156 0.55842 0.75115 0.0
C1051 C 0.34998 0.53485 0.75746 0.0
C1052 C 0.33159 0.57224 0.78058 0.0
C1053 C 0.33545 0.59394 0.70969 0.0
C1054 C 0.34428 0.59232 0.79332 0.0
C1055 C 0.33698 0.6035 0.82391 0.0
C1056 C 0.31689 0.59475 0.84234 0.0
C1057 C 0.30366 0.57519 0.82888 0.0
C1058 C 0.31108 0.5639 0.79833 0.0
H1059 H 0.33308 0.5964 0.68135 0.0
H1060 H 0.31787 0.59737 0.72272 0.0
H1061 H 0.34861 0.60769 0.71879 0.0
H1062 H 0.36042 0.59874 0.78035 0.0
H1063 H 0.34739 0.61866 0.83359 0.0
H1064 H 0.45579 0.41612 0.60281 0.0
H1065 H 0.43323 0.3985 0.65087 0.0
H1066 H 0.47988 0.43555 0.72292 0.0
H1067 H 0.50187 0.45396 0.67461 0.0
H1068 H 0.45386 0.36834 0.6991 0.0
H1069 H 0.41244 0.44798 0.76327 0.0
H1070 H 0.42382 0.44899 0.71951 0.0
H1071 H 0.44432 0.45129 0.7555 0.0
C1072 C 0.46059 0.42124 0.62876 0.0
C1073 C 0.48014 0.43683 0.63489 0.0
C1074 C 0.4479 0.41096 0.65626 0.0
C1075 C 0.45462 0.41606 0.69043 0.0
C1076 C 0.47402 0.43185 0.69672 0.0
H1077 H 0.43079 0.35701 0.89178 0.0
H1078 H 0.44395 0.37875 0.83996 0.0
C1079 C 0.48669 0.44216 0.66915 0.0
C1080 C 0.44298 0.40301 0.71935 0.0
H1081 H 0.4137 0.41116 0.79613 0.0
C1082 C 0.44478 0.37765 0.7201 0.0
C1083 C 0.43115 0.41527 0.7466 0.0
C1084 C 0.42757 0.44236 0.74612 0.0
C1085 C 0.43584 0.36425 0.7481 0.0
C1086 C 0.42468 0.37656 0.77582 0.0
C1087 C 0.42237 0.40186 0.77477 0.0
C1088 C 0.41633 0.3635 0.8069 0.0
C1089 C 0.43912 0.33711 0.74847 0.0
C1090 C 0.39642 0.34781 0.80528 0.0
C1091 C 0.38892 0.33527 0.8348 0.0
C1092 C 0.40129 0.33823 0.8663 0.0
C1093 C 0.42118 0.35406 0.86774 0.0
C1094 C 0.42857 0.36665 0.8383 0.0
H1095 H 0.4515 0.33083 0.72768 0.0
H1096 H 0.44642 0.33104 0.77382 0.0
H1097 H 0.42129 0.32827 0.74469 0.0
H1098 H 0.3867 0.34532 0.78121 0.0
H1099 H 0.37358 0.32315 0.83294 0.0
H1100 H 0.59485 0.53152 0.64156 0.0
H1101 H 0.61845 0.51249 0.68766 0.0
H1102 H 0.58372 0.44417 0.66692 0.0
H1103 H 0.55976 0.46316 0.62157 0.0
H1104 H 0.58357 0.45698 0.73634 0.0
H1105 H 0.67571 0.46505 0.68025 0.0
H1106 H 0.65892 0.49293 0.68142 0.0
H1107 H 0.64854 0.46845 0.65469 0.0
C1108 C 0.59236 0.51237 0.64654 0.0
C1109 C 0.57547 0.49878 0.62744 0.0
C1110 C 0.60601 0.50151 0.67277 0.0
C1111 C 0.60312 0.47684 0.68027 0.0
C1112 C 0.58637 0.46321 0.6613 0.0
H1113 H 0.69022 0.38793 0.81929 0.0
H1114 H 0.67014 0.40547 0.76851 0.0
C1115 C 0.57271 0.47409 0.63516 0.0
C1116 C 0.61652 0.46551 0.70923 0.0
H1117 H 0.6733 0.45295 0.7393 0.0
C1118 C 0.60318 0.45599 0.73693 0.0
C1119 C 0.64208 0.46402 0.70967 0.0
C1120 C 0.6572 0.47294 0.6798 0.0
C1121 C 0.61475 0.44542 0.76548 0.0
C1122 C 0.64033 0.44474 0.76655 0.0
C1123 C 0.65369 0.45375 0.7385 0.0
C1124 C 0.65345 0.43485 0.79678 0.0
C1125 C 0.59948 0.43487 0.79413 0.0
C1126 C 0.65109 0.44589 0.82922 0.0
C1127 C 0.66237 0.43588 0.8582 0.0
C1128 C 0.67639 0.41469 0.85525 0.0
C1129 C 0.6793 0.40407 0.82247 0.0
C1130 C 0.66798 0.41413 0.79344 0.0
H1131 H 0.58066 0.43124 0.78541 0.0
H1132 H 0.60747 0.41774 0.80401 0.0
H1133 H 0.59862 0.44795 0.81586 0.0
H1134 H 0.64022 0.4621 0.83219 0.0
H1135 H 0.65953 0.44438 0.88309 0.0
H1136 H 0.55034 0.52934 0.36401 0.0
H1137 H 0.56537 0.50977 0.31139 0.0
H1138 H 0.60294 0.45667 0.37338 0.0
H1139 H 0.58783 0.4758 0.42589 0.0
H1140 H 0.61344 0.50431 0.29345 0.0
H1141 H 0.56841 0.41519 0.30201 0.0
H1142 H 0.56066 0.44 0.33019 0.0
H1143 H 0.58642 0.42122 0.33964 0.0
C1144 C 0.56159 0.51334 0.3664 0.0
C1145 C 0.56799 0.50417 0.39911 0.0
C1146 C 0.57014 0.50219 0.33634 0.0
C1147 C 0.58503 0.48161 0.33851 0.0
C1148 C 0.5911 0.47225 0.3711 0.0
H1149 H 0.67264 0.39401 0.20366 0.0
H1150 H 0.65118 0.41309 0.25188 0.0
C1151 C 0.5826 0.48335 0.40111 0.0
C1152 C 0.59571 0.47091 0.30693 0.0
H1153 H 0.60231 0.41784 0.26282 0.0
C1154 C 0.61078 0.48549 0.28645 0.0
C1155 C 0.59237 0.44629 0.2981 0.0
C1156 C 0.57589 0.42985 0.3185 0.0
C1157 C 0.62329 0.47591 0.25801 0.0
C1158 C 0.62015 0.45122 0.24941 0.0
C1159 C 0.60472 0.43675 0.26952 0.0
C1160 C 0.6331 0.43987 0.22009 0.0
C1161 C 0.64045 0.49209 0.23829 0.0
C1162 C 0.62984 0.44847 0.18624 0.0
C1163 C 0.64217 0.4377 0.15873 0.0
C1164 C 0.65771 0.41793 0.16455 0.0
C1165 C 0.66068 0.40914 0.19841 0.0
C1166 C 0.64848 0.42003 0.22594 0.0
H1167 H 0.64561 0.50832 0.25354 0.0
H1168 H 0.65718 0.48217 0.23101 0.0
H1169 H 0.63148 0.49842 0.21423 0.0
H1170 H 0.61759 0.46337 0.18104 0.0
H1171 H 0.63919 0.44456 0.13281 0.0
H1172 H 0.514 0.59538 0.44806 0.0
H1173 H 0.53368 0.61111 0.39621 0.0
H1174 H 0.48509 0.56956 0.33237 0.0
H1175 H 0.46509 0.5537 0.38424 0.0
H1176 H 0.5562 0.58424 0.34137 0.0
H1177 H 0.47849 0.64032 0.29654 0.0
H1178 H 0.48055 0.62853 0.34004 0.0
H1179 H 0.47199 0.609 0.30506 0.0
C1180 C 0.50746 0.58954 0.42303 0.0
C1181 C 0.48791 0.5734 0.42023 0.0
C1182 C 0.51874 0.59856 0.39346 0.0
C1183 C 0.51056 0.59173 0.3606 0.0
C1184 C 0.4913 0.57534 0.35761 0.0
H1185 H 0.55561 0.63054 0.15362 0.0
H1186 H 0.53515 0.6141 0.20456 0.0
C1187 C 0.47999 0.56627 0.38722 0.0
C1188 C 0.52236 0.60179 0.32953 0.0
H1189 H 0.51276 0.63864 0.25996 0.0
C1190 C 0.54677 0.59618 0.32356 0.0
C1191 C 0.50989 0.61728 0.30647 0.0
C1192 C 0.48383 0.62436 0.31235 0.0
C1193 C 0.55905 0.60552 0.29478 0.0
C1194 C 0.54664 0.62121 0.27187 0.0
C1195 C 0.52218 0.62668 0.27773 0.0
C1196 C 0.55867 0.63185 0.24134 0.0
C1197 C 0.58503 0.59817 0.28876 0.0
C1198 C 0.57832 0.64769 0.24529 0.0
C1199 C 0.59012 0.65703 0.21626 0.0
C1200 C 0.58238 0.65071 0.18284 0.0
C1201 C 0.56223 0.63541 0.17905 0.0
C1202 C 0.55044 0.62611 0.20807 0.0
H1203 H 0.58996 0.58168 0.30371 0.0
H1204 H 0.58841 0.5947 0.2609 0.0
H1205 H 0.59713 0.61308 0.29712 0.0
H1206 H 0.58464 0.65265 0.27084 0.0
H1207 H 0.60564 0.6687 0.21997 0.0
H1208 H 0.44274 0.47519 0.36629 0.0
H1209 H 0.42905 0.49565 0.31338 0.0
H1210 H 0.39381 0.55037 0.37482 0.0
H1211 H 0.4075 0.53027 0.42762 0.0
H1212 H 0.38022 0.50351 0.29637 0.0
H1213 H 0.43085 0.59018 0.30263 0.0
H1214 H 0.43972 0.56362 0.32687 0.0
H1215 H 0.41518 0.58226 0.3417 0.0
C1216 C 0.43224 0.49168 0.36845 0.0
C1217 C 0.42601 0.501 0.40105 0.0
C1218 C 0.4245 0.50333 0.3383 0.0
C1219 C 0.41062 0.52457 0.34027 0.0
C1220 C 0.40487 0.53422 0.37275 0.0
H1221 H 0.33045 0.61408 0.19708 0.0
H1222 H 0.3493 0.59519 0.24771 0.0
C1223 C 0.41256 0.5226 0.4029 0.0
C1224 C 0.40061 0.53561 0.30848 0.0
H1225 H 0.3991 0.58786 0.26131 0.0
C1226 C 0.38449 0.52188 0.28849 0.0
C1227 C 0.40615 0.5596 0.2985 0.0
C1228 C 0.42409 0.57476 0.31834 0.0
C1229 C 0.37326 0.53172 0.25913 0.0
C1230 C 0.37868 0.55577 0.24924 0.0
C1231 C 0.39496 0.56944 0.26907 0.0
C1232 C 0.36745 0.56714 0.21853 0.0
C1233 C 0.35517 0.51655 0.23954 0.0
C1234 C 0.37163 0.55772 0.18541 0.0
C1235 C 0.36076 0.56833 0.15651 0.0
C1236 C 0.34562 0.58867 0.16021 0.0
C1237 C 0.34171 0.59822 0.19344 0.0
C1238 C 0.3526 0.58758 0.22233 0.0
H1239 H 0.34866 0.50096 0.25517 0.0
H1240 H 0.3393 0.52759 0.23153 0.0
H1241 H 0.36387 0.50928 0.21587 0.0
H1242 H 0.38334 0.54216 0.18192 0.0
H1243 H 0.36399 0.56043 0.13131 0.0
H1244 H 0.53144 0.46065 0.3745 0.0
H1245 H 0.5172 0.44608 0.31804 0.0
H1246 H 0.45843 0.40858 0.36804 0.0
H1247 H 0.47229 0.42294 0.42418 0.0
H1248 H 0.51167 0.39373 0.3028 0.0
H1249 H 0.42652 0.44607 0.28569 0.0
H1250 H 0.45214 0.45707 0.31009 0.0
H1251 H 0.43209 0.43506 0.32879 0.0
C1252 C 0.51534 0.4495 0.37339 0.0
C1253 C 0.50306 0.44281 0.40381 0.0
C1254 C 0.5073 0.44121 0.3412 0.0
C1255 C 0.48679 0.42637 0.33904 0.0
C1256 C 0.47414 0.42028 0.36921 0.0
H1257 H 0.40548 0.33302 0.21275 0.0
H1258 H 0.42543 0.35723 0.25726 0.0
C1259 C 0.48217 0.42843 0.4013 0.0
C1260 C 0.47938 0.41551 0.30585 0.0
H1261 H 0.43078 0.4103 0.25205 0.0
C1262 C 0.49421 0.39761 0.29119 0.0
C1263 C 0.45667 0.42077 0.29088 0.0
C1264 C 0.44091 0.44092 0.30441 0.0
C1265 C 0.48614 0.38373 0.26308 0.0
C1266 C 0.46281 0.38811 0.24942 0.0
C1267 C 0.44855 0.40684 0.26298 0.0
C1268 C 0.45209 0.37248 0.22259 0.0
C1269 C 0.50199 0.3637 0.24929 0.0
C1270 C 0.46069 0.37299 0.18852 0.0
C1271 C 0.44923 0.35928 0.16295 0.0
C1272 C 0.42896 0.34496 0.17114 0.0
C1273 C 0.42082 0.34412 0.20555 0.0
C1274 C 0.43224 0.35784 0.231 0.0
H1275 H 0.5183 0.3607 0.2656 0.0
H1276 H 0.49162 0.34652 0.24774 0.0
H1277 H 0.50802 0.36839 0.22275 0.0
H1278 H 0.47582 0.38446 0.18154 0.0
H1279 H 0.45572 0.36055 0.13659 0.0
loop_
_geom_bond_atom_site_label_1
_geom_bond_atom_site_label_2
_geom_bond_distance
_geom_bond_site_symmetry_2
_ccdc_geom_bond_type
Zn0 O2 1.933 1_556 S
Zn0 O20 1.985 . S
Zn0 O31 1.955 . S
Zn1 O2 1.911 . S
Zn1 O21 1.970 . S
Zn1 O37 1.945 . S
Zn1 O44 1.981 . S
O2 Zn0 1.933 1_554 S
O2 Zn1 1.911 . S
O2 H3 0.841 1_655 S
H3 O2 0.841 1_455 S
C4 O5 1.246 . S
C4 O33 1.276 1_545 S
O5 C4 1.246 . S
Zn6 O8 1.911 . S
Zn6 O23 1.970 . S
Zn6 O40 1.945 . S
Zn6 O47 1.981 . S
Zn7 O8 1.933 1_556 S
Zn7 O22 1.985 . S
Zn7 O29 1.955 . S
O8 Zn6 1.911 . S
O8 Zn7 1.933 1_554 S
O8 H9 0.841 1_455 S
H9 O8 0.841 1_655 S
Zn10 O11 1.933 1_556 S
Zn10 O24 1.985 . S
Zn10 O33 1.955 . S
O11 Zn10 1.933 1_554 S
O11 Zn12 1.911 . S
O11 H13 0.841 1_565 S
Zn12 O11 1.911 . S
Zn12 O25 1.970 . S
Zn12 O41 1.981 . S
Zn12 O43 1.945 . S
H13 O11 0.841 1_545 S
Zn14 O15 1.933 1_556 S
Zn14 O27 1.985 . S
Zn14 O35 1.955 . S
O15 Zn14 1.933 1_554 S
O15 H16 0.841 1_545 S
O15 Zn17 1.911 . S
H16 O15 0.841 1_565 S
Zn17 O15 1.911 . S
Zn17 O28 1.970 . S
Zn17 O38 1.981 . S
Zn17 O46 1.945 . S
C18 O19 1.246 . S
C18 O35 1.276 1_565 S
O19 C18 1.246 . S
O20 Zn0 1.985 . S
O20 C30 1.245 1_556 S
O21 Zn1 1.970 . S
O21 C30 1.263 . S
O22 Zn7 1.985 . S
O22 C34 1.245 1_556 S
O23 Zn6 1.970 . S
O23 C34 1.263 . S
O24 Zn10 1.985 . S
O24 C39 1.245 1_556 S
O25 Zn12 1.970 . S
O25 C39 1.263 . S
C26 O37 1.262 1_455 S
C26 O38 1.245 . S
O27 Zn14 1.985 . S
O27 C45 1.245 1_556 S
O28 Zn17 1.970 . S
O28 C45 1.263 . S
O29 Zn7 1.955 . S
O29 C48 1.276 1_455 S
C30 O20 1.245 1_554 S
C30 O21 1.263 . S
O31 Zn0 1.955 . S
O31 C50 1.276 1_655 S
C32 O40 1.262 1_655 S
C32 O41 1.245 . S
O33 C4 1.276 1_565 S
O33 Zn10 1.955 . S
C34 O22 1.245 1_554 S
C34 O23 1.263 . S
O35 Zn14 1.955 . S
O35 C18 1.276 1_545 S
C36 O43 1.262 1_545 S
C36 O44 1.245 . S
O37 Zn1 1.945 . S
O37 C26 1.262 1_655 S
O38 Zn17 1.981 . S
O38 C26 1.245 . S
C39 O24 1.245 1_554 S
C39 O25 1.263 . S
O40 Zn6 1.945 . S
O40 C32 1.262 1_455 S
O41 Zn12 1.981 . S
O41 C32 1.245 . S
C42 O46 1.262 1_565 S
C42 O47 1.245 . S
O43 Zn12 1.945 . S
O43 C36 1.262 1_565 S
O44 Zn1 1.981 . S
O44 C36 1.245 . S
C45 O27 1.245 1_554 S
C45 O28 1.263 . S
O46 Zn17 1.945 . S
O46 C42 1.262 1_545 S
O47 Zn6 1.981 . S
O47 C42 1.245 . S
C48 O29 1.276 1_655 S
C48 O49 1.246 . S
O49 C48 1.246 . S
C50 O31 1.276 1_455 S
C50 O51 1.246 . S
O51 C50 1.246 . S
Zn52 O54 1.933 . S
Zn52 O72 1.985 . S
Zn52 O83 1.955 . S
Zn53 O54 1.911 . S
Zn53 O73 1.970 . S
Zn53 O89 1.945 . S
Zn53 O96 1.981 . S
O54 Zn52 1.933 . S
O54 Zn53 1.911 . S
O54 H55 0.841 . S
H55 O54 0.841 . S
C56 O57 1.246 . S
C56 O85 1.276 . S
O57 C56 1.246 . S
Zn58 O60 1.911 . S
Zn58 O75 1.970 . S
Zn58 O92 1.945 . S
Zn58 O99 1.981 . S
Zn59 O60 1.933 . S
Zn59 O74 1.985 . S
Zn59 O81 1.955 . S
O60 Zn58 1.911 . S
O60 Zn59 1.933 . S
O60 H61 0.841 . S
H61 O60 0.841 . S
Zn62 O63 1.933 . S
Zn62 O76 1.985 . S
Zn62 O85 1.955 . S
O63 Zn62 1.933 . S
O63 Zn64 1.911 . S
O63 H65 0.841 . S
Zn64 O63 1.911 . S
Zn64 O77 1.970 . S
Zn64 O93 1.981 . S
Zn64 O95 1.945 . S
H65 O63 0.841 . S
Zn66 O67 1.933 . S
Zn66 O79 1.985 . S
Zn66 O87 1.955 . S
O67 Zn66 1.933 . S
O67 H68 0.841 . S
O67 Zn69 1.911 . S
H68 O67 0.841 . S
Zn69 O67 1.911 . S
Zn69 O80 1.970 . S
Zn69 O90 1.981 . S
Zn69 O98 1.945 . S
C70 O71 1.246 . S
C70 O87 1.276 . S
O71 C70 1.246 . S
O72 Zn52 1.985 . S
O72 C82 1.245 . S
O73 Zn53 1.970 . S
O73 C82 1.263 . S
O74 Zn59 1.985 . S
O74 C86 1.245 . S
O75 Zn58 1.970 . S
O75 C86 1.263 . S
O76 Zn62 1.985 . S
O76 C91 1.245 . S
O77 Zn64 1.970 . S
O77 C91 1.263 . S
C78 O89 1.262 . S
C78 O90 1.245 . S
O79 Zn66 1.985 . S
O79 C97 1.245 . S
O80 Zn69 1.970 . S
O80 C97 1.263 . S
O81 Zn59 1.955 . S
O81 C100 1.276 . S
C82 O72 1.245 . S
C82 O73 1.263 . S
O83 Zn52 1.955 . S
O83 C102 1.276 . S
C84 O92 1.262 . S
C84 O93 1.245 . S
O85 C56 1.276 . S
O85 Zn62 1.955 . S
C86 O74 1.245 . S
C86 O75 1.263 . S
O87 Zn66 1.955 . S
O87 C70 1.276 . S
C88 O95 1.262 . S
C88 O96 1.245 . S
O89 Zn53 1.945 . S
O89 C78 1.262 . S
O90 Zn69 1.981 . S
O90 C78 1.245 . S
C91 O76 1.245 . S
C91 O77 1.263 . S
O92 Zn58 1.945 . S
O92 C84 1.262 . S
O93 Zn64 1.981 . S
O93 C84 1.245 . S
C94 O98 1.262 . S
C94 O99 1.245 . S
O95 Zn64 1.945 . S
O95 C88 1.262 . S
O96 Zn53 1.981 . S
O96 C88 1.245 . S
C97 O79 1.245 . S
C97 O80 1.263 . S
O98 Zn69 1.945 . S
O98 C94 1.262 . S
O99 Zn58 1.981 . S
O99 C94 1.245 . S
C100 O81 1.276 . S
C100 O101 1.246 . S
O101 C100 1.246 . S
C102 O83 1.276 . S
C102 O103 1.246 . S
O103 C102 1.246 . S
C104 C105 1.386 . S
C104 C106 1.397 . S
C104 H128 0.931 . S
C105 C104 1.386 . S
C105 C109 1.397 . S
C106 C104 1.397 . S
C106 C107 1.384 . S
C106 H129 0.930 . S
C107 C106 1.384 . S
C107 C108 1.377 . S
C107 C110 1.481 . S
C108 C107 1.377 . S
C108 C109 1.389 . S
C108 H130 0.929 . S
C109 C105 1.397 . S
C109 C108 1.389 . S
C109 H131 0.931 . S
C110 C107 1.481 . S
C110 C111 1.387 . S
C110 C115 1.390 1_556 S
C111 C110 1.387 . S
C111 C112 1.401 1_556 S
C111 H132 0.930 . S
C112 C111 1.401 1_554 S
C112 C113 1.376 . S
C112 C121 1.511 . S
C113 C112 1.376 . S
C113 C114 1.392 . S
C113 H134 0.931 . S
C114 C113 1.392 . S
C114 C115 1.361 . S
C114 C116 1.500 . S
C115 C110 1.390 1_554 S
C115 C114 1.361 . S
C115 H133 0.931 . S
C116 C114 1.500 . S
C116 C117 1.371 . S
C116 C118 1.365 . S
C117 C116 1.371 . S
C117 C127 1.386 . S
C117 H135 0.931 . S
C118 C116 1.365 . S
C118 C119 1.409 . S
C118 H136 0.929 . S
C119 C118 1.409 . S
C119 C120 1.380 . S
C119 H137 0.930 . S
C120 C119 1.380 . S
C120 C127 1.357 . S
C121 C112 1.511 . S
C121 C122 1.341 1_554 S
C121 C123 1.371 . S
C122 C121 1.341 1_556 S
C122 C126 1.394 . S
C122 H138 0.930 . S
C123 C121 1.371 . S
C123 C124 1.392 . S
C123 H139 0.931 . S
C124 C123 1.392 . S
C124 C125 1.331 . S
C124 H142 0.932 . S
C125 C124 1.331 . S
C125 C126 1.336 1_554 S
C126 C122 1.394 . S
C126 C125 1.336 1_556 S
C126 H141 0.929 . S
C127 C117 1.386 . S
C127 C120 1.357 . S
C127 H140 0.928 . S
H128 C104 0.931 . S
H129 C106 0.930 . S
H130 C108 0.929 . S
H131 C109 0.931 . S
H132 C111 0.930 . S
H133 C115 0.931 . S
H134 C113 0.931 . S
H135 C117 0.931 . S
H136 C118 0.929 . S
H137 C119 0.930 . S
H138 C122 0.930 . S
H139 C123 0.931 . S
H140 C127 0.928 . S
H141 C126 0.929 . S
H142 C124 0.932 . S
C143 C144 1.386 . S
C143 C145 1.397 . S
C143 H167 0.931 . S
C144 C143 1.386 . S
C144 C148 1.397 . S
C145 C143 1.397 . S
C145 C146 1.384 . S
C145 H168 0.930 . S
C146 C145 1.384 . S
C146 C147 1.377 . S
C146 C149 1.481 . S
C147 C146 1.377 . S
C147 C148 1.389 . S
C147 H169 0.929 . S
C148 C144 1.397 . S
C148 C147 1.389 . S
C148 H170 0.931 . S
C149 C146 1.481 . S
C149 C150 1.387 . S
C149 C154 1.390 1_556 S
C150 C149 1.387 . S
C150 C151 1.401 1_556 S
C150 H171 0.930 . S
C151 C150 1.401 1_554 S
C151 C152 1.376 . S
C151 C160 1.511 . S
C152 C151 1.376 . S
C152 C153 1.392 . S
C152 H173 0.931 . S
C153 C152 1.392 . S
C153 C154 1.361 . S
C153 C155 1.500 . S
C154 C149 1.390 1_554 S
C154 C153 1.361 . S
C154 H172 0.931 . S
C155 C153 1.500 . S
C155 C156 1.371 . S
C155 C157 1.365 . S
C156 C155 1.371 . S
C156 C166 1.386 . S
C156 H174 0.931 . S
C157 C155 1.365 . S
C157 C158 1.409 . S
C157 H175 0.929 . S
C158 C157 1.409 . S
C158 C159 1.380 . S
C158 H176 0.930 . S
C159 C158 1.380 . S
C159 C166 1.357 . S
C160 C151 1.511 . S
C160 C161 1.341 1_554 S
C160 C162 1.371 . S
C161 C160 1.341 1_556 S
C161 C165 1.394 . S
C161 H177 0.930 . S
C162 C160 1.371 . S
C162 C163 1.392 . S
C162 H178 0.931 . S
C163 C162 1.392 . S
C163 C164 1.331 . S
C163 H181 0.932 . S
C164 C163 1.331 . S
C164 C165 1.336 1_554 S
C165 C161 1.394 . S
C165 C164 1.336 1_556 S
C165 H180 0.929 . S
C166 C156 1.386 . S
C166 C159 1.357 . S
C166 H179 0.928 . S
H167 C143 0.931 . S
H168 C145 0.930 . S
H169 C147 0.929 . S
H170 C148 0.931 . S
H171 C150 0.930 . S
H172 C154 0.931 . S
H173 C152 0.931 . S
H174 C156 0.931 . S
H175 C157 0.929 . S
H176 C158 0.930 . S
H177 C161 0.930 . S
H178 C162 0.931 . S
H179 C166 0.928 . S
H180 C165 0.929 . S
H181 C163 0.932 . S
C182 C183 1.386 . S
C182 C184 1.397 . S
C182 H206 0.931 . S
C183 C182 1.386 . S
C183 C187 1.397 . S
C184 C182 1.397 . S
C184 C185 1.384 . S
C184 H207 0.930 . S
C185 C184 1.384 . S
C185 C186 1.377 . S
C185 C188 1.481 . S
C186 C185 1.377 . S
C186 C187 1.389 . S
C186 H208 0.929 . S
C187 C183 1.397 . S
C187 C186 1.389 . S
C187 H209 0.931 . S
C188 C185 1.481 . S
C188 C189 1.387 . S
C188 C193 1.390 . S
C189 C188 1.387 . S
C189 C190 1.401 . S
C189 H210 0.930 . S
C190 C189 1.401 . S
C190 C191 1.376 1_554 S
C190 C199 1.511 . S
C191 C190 1.376 1_556 S
C191 C192 1.392 . S
C191 H212 0.931 . S
C192 C191 1.392 . S
C192 C193 1.361 1_556 S
C192 C194 1.500 . S
C193 C188 1.390 . S
C193 C192 1.361 1_554 S
C193 H211 0.931 . S
C194 C192 1.500 . S
C194 C195 1.371 . S
C194 C196 1.365 . S
C195 C194 1.371 . S
C195 C205 1.386 . S
C195 H213 0.931 . S
C196 C194 1.365 . S
C196 C197 1.409 . S
C196 H214 0.929 . S
C197 C196 1.409 . S
C197 C198 1.380 . S
C197 H215 0.930 . S
C198 C197 1.380 . S
C198 C205 1.357 . S
C199 C190 1.511 . S
C199 C200 1.341 . S
C199 C201 1.371 1_554 S
C200 C199 1.341 . S
C200 C204 1.394 . S
C200 H216 0.930 . S
C201 C199 1.371 1_556 S
C201 C202 1.392 . S
C201 H217 0.931 . S
C202 C201 1.392 . S
C202 C203 1.331 1_556 S
C202 H220 0.932 . S
C203 C202 1.331 1_554 S
C203 C204 1.336 . S
C204 C200 1.394 . S
C204 C203 1.336 . S
C204 H219 0.929 . S
C205 C195 1.386 . S
C205 C198 1.357 . S
C205 H218 0.928 . S
H206 C182 0.931 . S
H207 C184 0.930 . S
H208 C186 0.929 . S
H209 C187 0.931 . S
H210 C189 0.930 . S
H211 C193 0.931 . S
H212 C191 0.931 . S
H213 C195 0.931 . S
H214 C196 0.929 . S
H215 C197 0.930 . S
H216 C200 0.930 . S
H217 C201 0.931 . S
H218 C205 0.928 . S
H219 C204 0.929 . S
H220 C202 0.932 . S
C221 C222 1.386 . S
C221 C223 1.397 . S
C221 H245 0.931 . S
C222 C221 1.386 . S
C222 C226 1.397 . S
C223 C221 1.397 . S
C223 C224 1.384 . S
C223 H246 0.930 . S
C224 C223 1.384 . S
C224 C225 1.377 . S
C224 C227 1.481 . S
C225 C224 1.377 . S
C225 C226 1.389 . S
C225 H247 0.929 . S
C226 C222 1.397 . S
C226 C225 1.389 . S
C226 H248 0.931 . S
C227 C224 1.481 . S
C227 C228 1.387 . S
C227 C232 1.390 . S
C228 C227 1.387 . S
C228 C229 1.401 . S
C228 H249 0.930 . S
C229 C228 1.401 . S
C229 C230 1.376 1_554 S
C229 C238 1.511 . S
C230 C229 1.376 1_556 S
C230 C231 1.392 . S
C230 H251 0.931 . S
C231 C230 1.392 . S
C231 C232 1.361 1_556 S
C231 C233 1.500 . S
C232 C227 1.390 . S
C232 C231 1.361 1_554 S
C232 H250 0.931 . S
C233 C231 1.500 . S
C233 C234 1.371 . S
C233 C235 1.365 . S
C234 C233 1.371 . S
C234 C244 1.386 . S
C234 H252 0.931 . S
C235 C233 1.365 . S
C235 C236 1.409 . S
C235 H253 0.929 . S
C236 C235 1.409 . S
C236 C237 1.380 . S
C236 H254 0.930 . S
C237 C236 1.380 . S
C237 C244 1.357 . S
C238 C229 1.511 . S
C238 C239 1.341 . S
C238 C240 1.371 1_554 S
C239 C238 1.341 . S
C239 C243 1.394 . S
C239 H255 0.930 . S
C240 C238 1.371 1_556 S
C240 C241 1.392 . S
C240 H256 0.931 . S
C241 C240 1.392 . S
C241 C242 1.331 1_556 S
C241 H259 0.932 . S
C242 C241 1.331 1_554 S
C242 C243 1.336 . S
C243 C239 1.394 . S
C243 C242 1.336 . S
C243 H258 0.929 . S
C244 C234 1.386 . S
C244 C237 1.357 . S
C244 H257 0.928 . S
H245 C221 0.931 . S
H246 C223 0.930 . S
H247 C225 0.929 . S
H248 C226 0.931 . S
H249 C228 0.930 . S
H250 C232 0.931 . S
H251 C230 0.931 . S
H252 C234 0.931 . S
H253 C235 0.929 . S
H254 C236 0.930 . S
H255 C239 0.930 . S
H256 C240 0.931 . S
H257 C244 0.928 . S
H258 C243 0.929 . S
H259 C241 0.932 . S
C260 C261 1.386 . S
C260 C262 1.397 . S
C260 H284 0.931 . S
C261 C260 1.386 . S
C261 C265 1.397 . S
C262 C260 1.397 . S
C262 C263 1.384 . S
C262 H285 0.930 . S
C263 C262 1.384 . S
C263 C264 1.377 . S
C263 C266 1.481 . S
C264 C263 1.377 . S
C264 C265 1.389 . S
C264 H286 0.929 . S
C265 C261 1.397 . S
C265 C264 1.389 . S
C265 H287 0.931 . S
C266 C263 1.481 . S
C266 C267 1.387 . S
C266 C271 1.390 . S
C267 C266 1.387 . S
C267 C268 1.401 . S
C267 H288 0.930 . S
C268 C267 1.401 . S
C268 C269 1.376 . S
C268 C277 1.511 . S
C269 C268 1.376 . S
C269 C270 1.392 . S
C269 H290 0.931 . S
C270 C269 1.392 . S
C270 C271 1.361 . S
C270 C272 1.500 . S
C271 C266 1.390 . S
C271 C270 1.361 . S
C271 H289 0.931 . S
C272 C270 1.500 . S
C272 C273 1.371 . S
C272 C274 1.365 . S
C273 C272 1.371 . S
C273 C283 1.386 . S
C273 H291 0.931 . S
C274 C272 1.365 . S
C274 C275 1.409 . S
C274 H292 0.929 . S
C275 C274 1.409 . S
C275 C276 1.380 . S
C275 H293 0.930 . S
C276 C275 1.380 . S
C276 C283 1.357 . S
C277 C268 1.511 . S
C277 C278 1.341 . S
C277 C279 1.371 . S
C278 C277 1.341 . S
C278 C282 1.394 . S
C278 H294 0.930 . S
C279 C277 1.371 . S
C279 C280 1.392 . S
C279 H295 0.931 . S
C280 C279 1.392 . S
C280 C281 1.331 . S
C280 H298 0.932 . S
C281 C280 1.331 . S
C281 C282 1.336 . S
C282 C278 1.394 . S
C282 C281 1.336 . S
C282 H297 0.929 . S
C283 C273 1.386 . S
C283 C276 1.357 . S
C283 H296 0.928 . S
H284 C260 0.931 . S
H285 C262 0.930 . S
H286 C264 0.929 . S
H287 C265 0.931 . S
H288 C267 0.930 . S
H289 C271 0.931 . S
H290 C269 0.931 . S
H291 C273 0.931 . S
H292 C274 0.929 . S
H293 C275 0.930 . S
H294 C278 0.930 . S
H295 C279 0.931 . S
H296 C283 0.928 . S
H297 C282 0.929 . S
H298 C280 0.932 . S
C299 C300 1.386 . S
C299 C301 1.397 . S
C299 H323 0.931 . S
C300 C299 1.386 . S
C300 C304 1.397 . S
C301 C299 1.397 . S
C301 C302 1.384 . S
C301 H324 0.930 . S
C302 C301 1.384 . S
C302 C303 1.377 . S
C302 C305 1.481 . S
C303 C302 1.377 . S
C303 C304 1.389 . S
C303 H325 0.929 . S
C304 C300 1.397 . S
C304 C303 1.389 . S
C304 H326 0.931 . S
C305 C302 1.481 . S
C305 C306 1.387 . S
C305 C310 1.390 . S
C306 C305 1.387 . S
C306 C307 1.401 . S
C306 H327 0.930 . S
C307 C306 1.401 . S
C307 C308 1.376 . S
C307 C316 1.511 . S
C308 C307 1.376 . S
C308 C309 1.392 . S
C308 H329 0.931 . S
C309 C308 1.392 . S
C309 C310 1.361 . S
C309 C311 1.500 . S
C310 C305 1.390 . S
C310 C309 1.361 . S
C310 H328 0.931 . S
C311 C309 1.500 . S
C311 C312 1.371 . S
C311 C313 1.365 . S
C312 C311 1.371 . S
C312 C322 1.386 . S
C312 H330 0.931 . S
C313 C311 1.365 . S
C313 C314 1.409 . S
C313 H331 0.929 . S
C314 C313 1.409 . S
C314 C315 1.380 . S
C314 H332 0.930 . S
C315 C314 1.380 . S
C315 C322 1.357 . S
C316 C307 1.511 . S
C316 C317 1.341 . S
C316 C318 1.371 . S
C317 C316 1.341 . S
C317 C321 1.394 . S
C317 H333 0.930 . S
C318 C316 1.371 . S
C318 C319 1.392 . S
C318 H334 0.931 . S
C319 C318 1.392 . S
C319 C320 1.331 . S
C319 H337 0.932 . S
C320 C319 1.331 . S
C320 C321 1.336 . S
C321 C317 1.394 . S
C321 C320 1.336 . S
C321 H336 0.929 . S
C322 C312 1.386 . S
C322 C315 1.357 . S
C322 H335 0.928 . S
H323 C299 0.931 . S
H324 C301 0.930 . S
H325 C303 0.929 . S
H326 C304 0.931 . S
H327 C306 0.930 . S
H328 C310 0.931 . S
H329 C308 0.931 . S
H330 C312 0.931 . S
H331 C313 0.929 . S
H332 C314 0.930 . S
H333 C317 0.930 . S
H334 C318 0.931 . S
H335 C322 0.928 . S
H336 C321 0.929 . S
H337 C319 0.932 . S
C338 C339 1.386 . S
C338 C340 1.397 . S
C338 H362 0.931 . S
C339 C338 1.386 . S
C339 C343 1.397 . S
C340 C338 1.397 . S
C340 C341 1.384 . S
C340 H363 0.930 . S
C341 C340 1.384 . S
C341 C342 1.377 . S
C341 C344 1.481 . S
C342 C341 1.377 . S
C342 C343 1.389 . S
C342 H364 0.929 . S
C343 C339 1.397 . S
C343 C342 1.389 . S
C343 H365 0.931 . S
C344 C341 1.481 . S
C344 C345 1.387 . S
C344 C349 1.390 . S
C345 C344 1.387 . S
C345 C346 1.401 . S
C345 H366 0.930 . S
C346 C345 1.401 . S
C346 C347 1.376 . S
C346 C355 1.511 . S
C347 C346 1.376 . S
C347 C348 1.392 . S
C347 H368 0.931 . S
C348 C347 1.392 . S
C348 C349 1.361 . S
C348 C350 1.500 . S
C349 C344 1.390 . S
C349 C348 1.361 . S
C349 H367 0.931 . S
C350 C348 1.500 . S
C350 C351 1.371 . S
C350 C352 1.365 . S
C351 C350 1.371 . S
C351 C361 1.386 . S
C351 H369 0.931 . S
C352 C350 1.365 . S
C352 C353 1.409 . S
C352 H370 0.929 . S
C353 C352 1.409 . S
C353 C354 1.380 . S
C353 H371 0.930 . S
C354 C353 1.380 . S
C354 C361 1.357 . S
C355 C346 1.511 . S
C355 C356 1.341 . S
C355 C357 1.371 . S
C356 C355 1.341 . S
C356 C360 1.394 . S
C356 H372 0.930 . S
C357 C355 1.371 . S
C357 C358 1.392 . S
C357 H373 0.931 . S
C358 C357 1.392 . S
C358 C359 1.331 . S
C358 H376 0.932 . S
C359 C358 1.331 . S
C359 C360 1.336 . S
C360 C356 1.394 . S
C360 C359 1.336 . S
C360 H375 0.929 . S
C361 C351 1.386 . S
C361 C354 1.357 . S
C361 H374 0.928 . S
H362 C338 0.931 . S
H363 C340 0.930 . S
H364 C342 0.929 . S
H365 C343 0.931 . S
H366 C345 0.930 . S
H367 C349 0.931 . S
H368 C347 0.931 . S
H369 C351 0.931 . S
H370 C352 0.929 . S
H371 C353 0.930 . S
H372 C356 0.930 . S
H373 C357 0.931 . S
H374 C361 0.928 . S
H375 C360 0.929 . S
H376 C358 0.932 . S
C377 C378 1.386 . S
C377 C379 1.397 . S
C377 H401 0.931 . S
C378 C377 1.386 . S
C378 C382 1.397 . S
C379 C377 1.397 . S
C379 C380 1.384 . S
C379 H402 0.930 . S
C380 C379 1.384 . S
C380 C381 1.377 . S
C380 C383 1.481 . S
C381 C380 1.377 . S
C381 C382 1.389 . S
C381 H403 0.929 . S
C382 C378 1.397 . S
C382 C381 1.389 . S
C382 H404 0.931 . S
C383 C380 1.481 . S
C383 C384 1.387 . S
C383 C388 1.390 . S
C384 C383 1.387 . S
C384 C385 1.401 . S
C384 H405 0.930 . S
C385 C384 1.401 . S
C385 C386 1.376 . S
C385 C394 1.511 . S
C386 C385 1.376 . S
C386 C387 1.392 . S
C386 H407 0.931 . S
C387 C386 1.392 . S
C387 C388 1.361 . S
C387 C389 1.500 . S
C388 C383 1.390 . S
C388 C387 1.361 . S
C388 H406 0.931 . S
C389 C387 1.500 . S
C389 C390 1.371 . S
C389 C391 1.365 . S
C390 C389 1.371 . S
C390 C400 1.386 . S
C390 H408 0.931 . S
C391 C389 1.365 . S
C391 C392 1.409 . S
C391 H409 0.929 . S
C392 C391 1.409 . S
C392 C393 1.380 . S
C392 H410 0.930 . S
C393 C392 1.380 . S
C393 C400 1.357 . S
C394 C385 1.511 . S
C394 C395 1.341 . S
C394 C396 1.371 . S
C395 C394 1.341 . S
C395 C399 1.394 . S
C395 H411 0.930 . S
C396 C394 1.371 . S
C396 C397 1.392 . S
C396 H412 0.931 . S
C397 C396 1.392 . S
C397 C398 1.331 . S
C397 H415 0.932 . S
C398 C397 1.331 . S
C398 C399 1.336 . S
C399 C395 1.394 . S
C399 C398 1.336 . S
C399 H414 0.929 . S
C400 C390 1.386 . S
C400 C393 1.357 . S
C400 H413 0.928 . S
H401 C377 0.931 . S
H402 C379 0.930 . S
H403 C381 0.929 . S
H404 C382 0.931 . S
H405 C384 0.930 . S
H406 C388 0.931 . S
H407 C386 0.931 . S
H408 C390 0.931 . S
H409 C391 0.929 . S
H410 C392 0.930 . S
H411 C395 0.930 . S
H412 C396 0.931 . S
H413 C400 0.928 . S
H414 C399 0.929 . S
H415 C397 0.932 . S
H416 C424 0.929 1_556 S
H417 C426 0.930 1_556 S
H418 C428 0.930 . S
H419 C431 0.929 . S
H420 C434 0.930 . S
H421 C436 0.960 1_556 S
H422 C436 0.960 1_556 S
H423 C436 0.960 . S
C424 H416 0.929 1_554 S
C424 C425 1.377 . S
C424 C426 1.384 . S
C425 C424 1.377 . S
C425 C431 1.390 . S
C426 H417 0.930 1_554 S
C426 C424 1.384 . S
C426 C427 1.372 . S
C427 C426 1.372 . S
C427 C428 1.400 . S
C427 C432 1.490 . S
C428 H418 0.930 . S
C428 C427 1.400 . S
C428 C431 1.386 . S
H429 C445 0.930 . S
H430 C446 0.931 . S
C431 H419 0.929 . S
C431 C425 1.390 . S
C431 C428 1.386 . S
C432 C427 1.490 . S
C432 C434 1.395 . S
C432 C435 1.403 . S
H433 C439 0.930 . S
C434 H420 0.930 . S
C434 C432 1.395 . S
C434 C437 1.403 . S
C435 C432 1.403 . S
C435 C436 1.524 . S
C435 C439 1.400 . S
C436 H421 0.960 1_554 S
C436 H422 0.960 1_554 S
C436 H423 0.960 . S
C436 C435 1.524 . S
C437 C434 1.403 . S
C437 C438 1.392 . S
C437 C441 1.495 . S
C438 C437 1.392 . S
C438 C439 1.385 . S
C438 C440 1.478 . S
C439 H433 0.930 . S
C439 C435 1.400 . S
C439 C438 1.385 . S
C440 C438 1.478 . S
C440 C442 1.390 . S
C440 C446 1.383 . S
C441 C437 1.495 . S
C441 H447 0.959 . S
C441 H448 0.961 . S
C441 H449 0.960 . S
C442 C440 1.390 . S
C442 C443 1.394 1_554 S
C442 H450 0.922 1_554 S
C443 C442 1.394 1_556 S
C443 C444 1.371 1_556 S
C443 H451 0.942 . S
C444 C443 1.371 1_554 S
C444 C445 1.377 . S
C445 H429 0.930 . S
C445 C444 1.377 . S
C445 C446 1.379 . S
C446 H430 0.931 . S
C446 C440 1.383 . S
C446 C445 1.379 . S
H447 C441 0.959 . S
H448 C441 0.961 . S
H449 C441 0.960 . S
H450 C442 0.922 1_556 S
H451 C443 0.942 . S
H452 C460 0.929 . S
H453 C462 0.930 . S
H454 C464 0.930 . S
H455 C467 0.929 . S
H456 C470 0.930 . S
H457 C472 0.960 . S
H458 C472 0.960 . S
H459 C472 0.960 . S
C460 H452 0.929 . S
C460 C461 1.377 1_556 S
C460 C462 1.384 . S
C461 C460 1.377 1_554 S
C461 C467 1.390 . S
C462 H453 0.930 . S
C462 C460 1.384 . S
C462 C463 1.372 1_556 S
C463 C462 1.372 1_554 S
C463 C464 1.400 . S
C463 C468 1.490 . S
C464 H454 0.930 . S
C464 C463 1.400 . S
C464 C467 1.386 . S
H465 C481 0.930 . S
H466 C482 0.931 . S
C467 H455 0.929 . S
C467 C461 1.390 . S
C467 C464 1.386 . S
C468 C463 1.490 . S
C468 C470 1.395 . S
C468 C471 1.403 . S
H469 C475 0.930 . S
C470 H456 0.930 . S
C470 C468 1.395 . S
C470 C473 1.403 . S
C471 C468 1.403 . S
C471 C472 1.524 . S
C471 C475 1.400 . S
C472 H457 0.960 . S
C472 H458 0.960 . S
C472 H459 0.960 . S
C472 C471 1.524 . S
C473 C470 1.403 . S
C473 C474 1.392 . S
C473 C477 1.495 . S
C474 C473 1.392 . S
C474 C475 1.385 . S
C474 C476 1.478 . S
C475 H469 0.930 . S
C475 C471 1.400 . S
C475 C474 1.385 . S
C476 C474 1.478 . S
C476 C478 1.381 1_554 S
C476 C482 1.383 . S
C477 C473 1.495 . S
C477 H483 0.959 . S
C477 H484 0.961 . S
C477 H485 0.960 1_554 S
C478 C476 1.381 1_556 S
C478 C479 1.394 . S
C478 H486 0.930 . S
C479 C478 1.394 . S
C479 C480 1.383 1_556 S
C479 H487 0.929 . S
C480 C479 1.383 1_554 S
C480 C481 1.377 . S
C481 H465 0.930 . S
C481 C480 1.377 . S
C481 C482 1.379 . S
C482 H466 0.931 . S
C482 C476 1.383 . S
C482 C481 1.379 . S
H483 C477 0.959 . S
H484 C477 0.961 . S
H485 C477 0.960 1_556 S
H486 C478 0.930 . S
H487 C479 0.929 . S
H488 C496 0.929 . S
H489 C498 0.930 . S
H490 C500 0.930 . S
H491 C503 0.929 . S
H492 C506 0.930 . S
H493 C508 0.960 . S
H494 C508 0.960 . S
H495 C508 0.960 1_556 S
C496 H488 0.929 . S
C496 C497 1.377 . S
C496 C498 1.384 . S
C497 C496 1.377 . S
C497 C503 1.390 1_554 S
C498 H489 0.930 . S
C498 C496 1.384 . S
C498 C499 1.372 . S
C499 C498 1.372 . S
C499 C500 1.400 1_554 S
C499 C504 1.490 . S
C500 H490 0.930 . S
C500 C499 1.400 1_556 S
C500 C503 1.386 . S
H501 C517 0.930 . S
H502 C518 0.931 . S
C503 H491 0.929 . S
C503 C497 1.390 1_556 S
C503 C500 1.386 . S
C504 C499 1.490 . S
C504 C506 1.395 . S
C504 C507 1.403 . S
H505 C511 0.930 . S
C506 H492 0.930 . S
C506 C504 1.395 . S
C506 C509 1.403 . S
C507 C504 1.403 . S
C507 C508 1.524 . S
C507 C511 1.400 . S
C508 H493 0.960 . S
C508 H494 0.960 . S
C508 H495 0.960 1_554 S
C508 C507 1.524 . S
C509 C506 1.403 . S
C509 C510 1.392 . S
C509 C513 1.495 . S
C510 C509 1.392 . S
C510 C511 1.385 . S
C510 C512 1.478 . S
C511 H505 0.930 . S
C511 C507 1.400 . S
C511 C510 1.385 . S
C512 C510 1.478 . S
C512 C514 1.381 . S
C512 C518 1.383 1_554 S
C513 C509 1.495 . S
C513 H519 0.959 . S
C513 H520 0.961 . S
C513 H521 0.960 . S
C514 C512 1.381 . S
C514 C515 1.394 . S
C514 H522 0.930 . S
C515 C514 1.394 . S
C515 C516 1.383 . S
C515 H523 0.929 . S
C516 C515 1.383 . S
C516 C517 1.377 1_554 S
C517 H501 0.930 . S
C517 C516 1.377 1_556 S
C517 C518 1.379 . S
C518 H502 0.931 . S
C518 C512 1.383 1_556 S
C518 C517 1.379 . S
H519 C513 0.959 . S
H520 C513 0.961 . S
H521 C513 0.960 . S
H522 C514 0.930 . S
H523 C515 0.929 . S
H524 C532 0.929 . S
H525 C534 0.930 . S
H526 C536 0.930 . S
H527 C539 0.929 . S
H528 C542 0.930 . S
H529 C544 0.960 . S
H530 C544 0.960 . S
H531 C544 0.960 . S
C532 H524 0.929 . S
C532 C533 1.377 . S
C532 C534 1.384 . S
C533 C532 1.377 . S
C533 C539 1.390 1_554 S
C534 H525 0.930 . S
C534 C532 1.384 . S
C534 C535 1.372 . S
C535 C534 1.372 . S
C535 C536 1.400 1_554 S
C535 C540 1.490 . S
C536 H526 0.930 . S
C536 C535 1.400 1_556 S
C536 C539 1.386 . S
H537 C553 0.950 . S
H538 C554 0.931 1_556 S
C539 H527 0.929 . S
C539 C533 1.390 1_556 S
C539 C536 1.386 . S
C540 C535 1.490 . S
C540 C542 1.395 . S
C540 C543 1.403 . S
H541 C547 0.930 1_556 S
C542 H528 0.930 . S
C542 C540 1.395 . S
C542 C545 1.403 . S
C543 C540 1.403 . S
C543 C544 1.524 1_554 S
C543 C547 1.400 . S
C544 H529 0.960 . S
C544 H530 0.960 . S
C544 H531 0.960 . S
C544 C543 1.524 1_556 S
C545 C542 1.403 . S
C545 C546 1.392 . S
C545 C549 1.495 . S
C546 C545 1.392 . S
C546 C547 1.385 . S
C546 C548 1.478 . S
C547 H541 0.930 1_554 S
C547 C543 1.400 . S
C547 C546 1.385 . S
C548 C546 1.478 . S
C548 C550 1.381 . S
C548 C554 1.383 . S
C549 C545 1.495 . S
C549 H555 0.959 . S
C549 H556 0.961 . S
C549 H557 0.960 . S
C550 C548 1.381 . S
C550 C551 1.394 . S
C550 H558 0.930 . S
C551 C550 1.394 . S
C551 C552 1.383 . S
C551 H559 0.929 . S
C552 C551 1.383 . S
C552 C553 1.359 1_554 S
C553 H537 0.950 . S
C553 C552 1.359 1_556 S
C553 C554 1.378 1_556 S
C554 H538 0.931 1_554 S
C554 C548 1.383 . S
C554 C553 1.378 1_554 S
H555 C549 0.959 . S
H556 C549 0.961 . S
H557 C549 0.960 . S
H558 C550 0.930 . S
H559 C551 0.929 . S
H560 C568 0.929 . S
H561 C570 0.930 . S
H562 C572 0.930 . S
H563 C575 0.929 . S
H564 C578 0.930 . S
H565 C580 0.960 . S
H566 C580 0.960 . S
H567 C580 0.960 . S
C568 H560 0.929 . S
C568 C569 1.377 . S
C568 C570 1.384 . S
C569 C568 1.377 . S
C569 C575 1.390 . S
C570 H561 0.930 . S
C570 C568 1.384 . S
C570 C571 1.372 . S
C571 C570 1.372 . S
C571 C572 1.400 . S
C571 C576 1.490 . S
C572 H562 0.930 . S
C572 C571 1.400 . S
C572 C575 1.386 . S
H573 C589 0.930 . S
H574 C590 0.931 . S
C575 H563 0.929 . S
C575 C569 1.390 . S
C575 C572 1.386 . S
C576 C571 1.490 . S
C576 C578 1.395 . S
C576 C579 1.403 . S
H577 C583 0.930 . S
C578 H564 0.930 . S
C578 C576 1.395 . S
C578 C581 1.403 . S
C579 C576 1.403 . S
C579 C580 1.524 . S
C579 C583 1.400 . S
C580 H565 0.960 . S
C580 H566 0.960 . S
C580 H567 0.960 . S
C580 C579 1.524 . S
C581 C578 1.403 . S
C581 C582 1.392 . S
C581 C585 1.495 . S
C582 C581 1.392 . S
C582 C583 1.385 . S
C582 C584 1.478 . S
C583 H577 0.930 . S
C583 C579 1.400 . S
C583 C582 1.385 . S
C584 C582 1.478 . S
C584 C586 1.381 . S
C584 C590 1.383 . S
C585 C581 1.495 . S
C585 H591 0.959 . S
C585 H592 0.961 . S
C585 H593 0.960 . S
C586 C584 1.381 . S
C586 C587 1.394 . S
C586 H594 0.930 . S
C587 C586 1.394 . S
C587 C588 1.383 . S
C587 H595 0.929 . S
C588 C587 1.383 . S
C588 C589 1.377 . S
C589 H573 0.930 . S
C589 C588 1.377 . S
C589 C590 1.379 . S
C590 H574 0.931 . S
C590 C584 1.383 . S
C590 C589 1.379 . S
H591 C585 0.959 . S
H592 C585 0.961 . S
H593 C585 0.960 . S
H594 C586 0.930 . S
H595 C587 0.929 . S
H596 C604 0.929 . S
H597 C606 0.930 . S
H598 C608 0.930 . S
H599 C611 0.929 . S
H600 C614 0.930 . S
H601 C616 0.960 . S
H602 C616 0.960 . S
H603 C616 0.960 . S
C604 H596 0.929 . S
C604 C605 1.377 . S
C604 C606 1.384 . S
C605 C604 1.377 . S
C605 C611 1.390 . S
C606 H597 0.930 . S
C606 C604 1.384 . S
C606 C607 1.372 . S
C607 C606 1.372 . S
C607 C608 1.400 . S
C607 C612 1.490 . S
C608 H598 0.930 . S
C608 C607 1.400 . S
C608 C611 1.386 . S
H609 C625 0.930 . S
H610 C626 0.931 . S
C611 H599 0.929 . S
C611 C605 1.390 . S
C611 C608 1.386 . S
C612 C607 1.490 . S
C612 C614 1.395 . S
C612 C615 1.403 . S
H613 C619 0.930 . S
C614 H600 0.930 . S
C614 C612 1.395 . S
C614 C617 1.403 . S
C615 C612 1.403 . S
C615 C616 1.524 . S
C615 C619 1.400 . S
C616 H601 0.960 . S
C616 H602 0.960 . S
C616 H603 0.960 . S
C616 C615 1.524 . S
C617 C614 1.403 . S
C617 C618 1.392 . S
C617 C621 1.495 . S
C618 C617 1.392 . S
C618 C619 1.385 . S
C618 C620 1.478 . S
C619 H613 0.930 . S
C619 C615 1.400 . S
C619 C618 1.385 . S
C620 C618 1.478 . S
C620 C622 1.381 . S
C620 C626 1.383 . S
C621 C617 1.495 . S
C621 H627 0.959 . S
C621 H628 0.961 . S
C621 H629 0.960 . S
C622 C620 1.381 . S
C622 C623 1.394 . S
C622 H630 0.930 . S
C623 C622 1.394 . S
C623 C624 1.383 . S
C623 H631 0.929 . S
C624 C623 1.383 . S
C624 C625 1.377 . S
C625 H609 0.930 . S
C625 C624 1.377 . S
C625 C626 1.379 . S
C626 H610 0.931 . S
C626 C620 1.383 . S
C626 C625 1.379 . S
H627 C621 0.959 . S
H628 C621 0.961 . S
H629 C621 0.960 . S
H630 C622 0.930 . S
H631 C623 0.929 . S
H632 C640 0.929 . S
H633 C642 0.930 . S
H634 C644 0.930 . S
H635 C647 0.929 . S
H636 C650 0.930 . S
H637 C652 0.960 . S
H638 C652 0.960 . S
H639 C652 0.960 . S
C640 H632 0.929 . S
C640 C641 1.377 . S
C640 C642 1.384 . S
C641 C640 1.377 . S
C641 C647 1.390 . S
C642 H633 0.930 . S
C642 C640 1.384 . S
C642 C643 1.372 . S
C643 C642 1.372 . S
C643 C644 1.400 . S
C643 C648 1.490 . S
C644 H634 0.930 . S
C644 C643 1.400 . S
C644 C647 1.386 . S
H645 C661 0.930 . S
H646 C662 0.931 . S
C647 H635 0.929 . S
C647 C641 1.390 . S
C647 C644 1.386 . S
C648 C643 1.490 . S
C648 C650 1.395 . S
C648 C651 1.403 . S
H649 C655 0.930 . S
C650 H636 0.930 . S
C650 C648 1.395 . S
C650 C653 1.403 . S
C651 C648 1.403 . S
C651 C652 1.524 . S
C651 C655 1.400 . S
C652 H637 0.960 . S
C652 H638 0.960 . S
C652 H639 0.960 . S
C652 C651 1.524 . S
C653 C650 1.403 . S
C653 C654 1.392 . S
C653 C657 1.495 . S
C654 C653 1.392 . S
C654 C655 1.385 . S
C654 C656 1.478 . S
C655 H649 0.930 . S
C655 C651 1.400 . S
C655 C654 1.385 . S
C656 C654 1.478 . S
C656 C658 1.381 . S
C656 C662 1.383 . S
C657 C653 1.495 . S
C657 H663 0.959 . S
C657 H664 0.961 . S
C657 H665 0.960 . S
C658 C656 1.381 . S
C658 C659 1.394 . S
C658 H666 0.930 . S
C659 C658 1.394 . S
C659 C660 1.383 . S
C659 H667 0.929 . S
C660 C659 1.383 . S
C660 C661 1.377 . S
C661 H645 0.930 . S
C661 C660 1.377 . S
C661 C662 1.379 . S
C662 H646 0.931 . S
C662 C656 1.383 . S
C662 C661 1.379 . S
H663 C657 0.959 . S
H664 C657 0.961 . S
H665 C657 0.960 . S
H666 C658 0.930 . S
H667 C659 0.929 . S
H668 C676 0.929 . S
H669 C678 0.930 . S
H670 C680 0.930 . S
H671 C683 0.929 . S
H672 C686 0.930 . S
H673 C688 0.960 . S
H674 C688 0.960 . S
H675 C688 0.960 . S
C676 H668 0.929 . S
C676 C677 1.377 . S
C676 C678 1.384 . S
C677 C676 1.377 . S
C677 C683 1.390 . S
C678 H669 0.930 . S
C678 C676 1.384 . S
C678 C679 1.372 . S
C679 C678 1.372 . S
C679 C680 1.400 . S
C679 C684 1.490 . S
C680 H670 0.930 . S
C680 C679 1.400 . S
C680 C683 1.386 . S
H681 C697 0.930 . S
H682 C698 0.931 . S
C683 H671 0.929 . S
C683 C677 1.390 . S
C683 C680 1.386 . S
C684 C679 1.490 . S
C684 C686 1.395 . S
C684 C687 1.403 . S
H685 C691 0.930 . S
C686 H672 0.930 . S
C686 C684 1.395 . S
C686 C689 1.403 . S
C687 C684 1.403 . S
C687 C688 1.524 . S
C687 C691 1.400 . S
C688 H673 0.960 . S
C688 H674 0.960 . S
C688 H675 0.960 . S
C688 C687 1.524 . S
C689 C686 1.403 . S
C689 C690 1.392 . S
C689 C693 1.495 . S
C690 C689 1.392 . S
C690 C691 1.385 . S
C690 C692 1.478 . S
C691 H685 0.930 . S
C691 C687 1.400 . S
C691 C690 1.385 . S
C692 C690 1.478 . S
C692 C694 1.381 . S
C692 C698 1.383 . S
C693 C689 1.495 . S
C693 H699 0.959 . S
C693 H700 0.961 . S
C693 H701 0.960 . S
C694 C692 1.381 . S
C694 C695 1.394 . S
C694 H702 0.930 . S
C695 C694 1.394 . S
C695 C696 1.383 . S
C695 H703 0.929 . S
C696 C695 1.383 . S
C696 C697 1.377 . S
C697 H681 0.930 . S
C697 C696 1.377 . S
C697 C698 1.379 . S
C698 H682 0.931 . S
C698 C692 1.383 . S
C698 C697 1.379 . S
H699 C693 0.959 . S
H700 C693 0.961 . S
H701 C693 0.960 . S
H702 C694 0.930 . S
H703 C695 0.929 . S
H704 C712 0.929 . S
H705 C714 0.930 . S
H706 C716 0.930 . S
H707 C719 0.929 . S
H708 C722 0.930 . S
H709 C724 0.960 1_655 S
H710 C724 0.960 1_655 S
H711 C724 0.960 . S
C712 H704 0.929 . S
C712 C713 1.377 . S
C712 C714 1.384 . S
C713 C712 1.377 . S
C713 C719 1.390 . S
C714 H705 0.930 . S
C714 C712 1.384 . S
C714 C715 1.372 . S
C715 C714 1.372 . S
C715 C716 1.400 . S
C715 C720 1.490 . S
C716 H706 0.930 . S
C716 C715 1.400 . S
C716 C719 1.386 . S
H717 C733 0.930 . S
H718 C734 0.931 . S
C719 H707 0.929 . S
C719 C713 1.390 . S
C719 C716 1.386 . S
C720 C715 1.490 . S
C720 C722 1.395 . S
C720 C723 1.403 . S
H721 C727 0.930 . S
C722 H708 0.930 . S
C722 C720 1.395 . S
C722 C725 1.403 . S
C723 C720 1.403 . S
C723 C724 1.524 . S
C723 C727 1.400 . S
C724 H709 0.960 1_455 S
C724 H710 0.960 1_455 S
C724 H711 0.960 . S
C724 C723 1.524 . S
C725 C722 1.403 . S
C725 C726 1.392 . S
C725 C729 1.495 . S
C726 C725 1.392 . S
C726 C727 1.385 . S
C726 C728 1.478 . S
C727 H721 0.930 . S
C727 C723 1.400 . S
C727 C726 1.385 . S
C728 C726 1.478 . S
C728 C730 1.381 . S
C728 C734 1.383 . S
C729 C725 1.495 . S
C729 H735 0.959 . S
C729 H736 0.961 . S
C729 H737 0.960 . S
C730 C728 1.381 . S
C730 C731 1.394 . S
C730 H738 0.930 . S
C731 C730 1.394 . S
C731 C732 1.383 . S
C731 H739 0.929 . S
C732 C731 1.383 . S
C732 C733 1.377 . S
C733 H717 0.930 . S
C733 C732 1.377 . S
C733 C734 1.379 . S
C734 H718 0.931 . S
C734 C728 1.383 . S
C734 C733 1.379 . S
H735 C729 0.959 . S
H736 C729 0.961 . S
H737 C729 0.960 . S
H738 C730 0.930 . S
H739 C731 0.929 . S
H740 C748 0.929 1_565 S
H741 C750 0.931 1_565 S
H742 C752 0.930 . S
H743 C755 0.929 . S
H744 C758 0.930 . S
H745 C760 0.960 . S
H746 C760 0.960 . S
H747 C760 0.960 . S
C748 H740 0.929 1_545 S
C748 C749 1.377 . S
C748 C750 1.384 . S
C749 C748 1.377 . S
C749 C755 1.390 . S
C750 H741 0.931 1_545 S
C750 C748 1.384 . S
C750 C751 1.372 . S
C751 C750 1.372 . S
C751 C752 1.400 . S
C751 C756 1.490 . S
C752 H742 0.930 . S
C752 C751 1.400 . S
C752 C755 1.386 . S
H753 C769 0.930 . S
H754 C770 0.931 . S
C755 H743 0.929 . S
C755 C749 1.390 . S
C755 C752 1.386 . S
C756 C751 1.490 . S
C756 C758 1.395 . S
C756 C759 1.403 . S
H757 C763 0.930 . S
C758 H744 0.930 . S
C758 C756 1.395 . S
C758 C761 1.403 . S
C759 C756 1.403 . S
C759 C760 1.524 . S
C759 C763 1.400 . S
C760 H745 0.960 . S
C760 H746 0.960 . S
C760 H747 0.960 . S
C760 C759 1.524 . S
C761 C758 1.403 . S
C761 C762 1.392 . S
C761 C765 1.495 . S
C762 C761 1.392 . S
C762 C763 1.385 . S
C762 C764 1.478 . S
C763 H757 0.930 . S
C763 C759 1.400 . S
C763 C762 1.385 . S
C764 C762 1.478 . S
C764 C766 1.381 . S
C764 C770 1.383 . S
C765 C761 1.495 . S
C765 H771 0.959 . S
C765 H772 0.961 . S
C765 H773 0.960 . S
C766 C764 1.381 . S
C766 C767 1.394 . S
C766 H774 0.930 . S
C767 C766 1.394 . S
C767 C768 1.383 . S
C767 H775 0.929 . S
C768 C767 1.383 . S
C768 C769 1.377 . S
C769 H753 0.930 . S
C769 C768 1.377 . S
C769 C770 1.379 . S
C770 H754 0.931 . S
C770 C764 1.383 . S
C770 C769 1.379 . S
H771 C765 0.959 . S
H772 C765 0.961 . S
H773 C765 0.960 . S
H774 C766 0.930 . S
H775 C767 0.929 . S
H776 C784 0.929 . S
H777 C786 0.930 . S
H778 C788 0.930 . S
H779 C791 0.929 1_455 S
H780 C794 0.930 . S
H781 C796 0.942 1_455 S
H782 C796 0.960 . S
H783 C796 0.960 1_455 S
C784 H776 0.929 . S
C784 C785 1.377 . S
C784 C786 1.384 . S
C785 C784 1.377 . S
C785 C791 1.390 . S
C786 H777 0.930 . S
C786 C784 1.384 . S
C786 C787 1.372 . S
C787 C786 1.372 . S
C787 C788 1.400 . S
C787 C792 1.490 . S
C788 H778 0.930 . S
C788 C787 1.400 . S
C788 C791 1.386 . S
H789 C805 0.930 . S
H790 C806 0.931 . S
C791 H779 0.929 1_655 S
C791 C785 1.390 . S
C791 C788 1.386 . S
C792 C787 1.490 . S
C792 C794 1.395 . S
C792 C795 1.403 . S
H793 C799 0.930 . S
C794 H780 0.930 . S
C794 C792 1.395 . S
C794 C797 1.403 . S
C795 C792 1.403 . S
C795 C796 1.524 . S
C795 C799 1.400 . S
C796 H781 0.942 1_655 S
C796 H782 0.960 . S
C796 H783 0.960 1_655 S
C796 C795 1.524 . S
C797 C794 1.403 . S
C797 C798 1.392 . S
C797 C801 1.495 . S
C798 C797 1.392 . S
C798 C799 1.385 . S
C798 C800 1.478 . S
C799 H793 0.930 . S
C799 C795 1.400 . S
C799 C798 1.385 . S
C800 C798 1.478 . S
C800 C802 1.381 . S
C800 C806 1.383 . S
C801 C797 1.495 . S
C801 H807 0.959 . S
C801 H808 0.961 . S
C801 H809 0.960 . S
C802 C800 1.381 . S
C802 C803 1.394 . S
C802 H810 0.930 . S
C803 C802 1.394 . S
C803 C804 1.383 . S
C803 H811 0.929 . S
C804 C803 1.383 . S
C804 C805 1.377 . S
C805 H789 0.930 . S
C805 C804 1.377 . S
C805 C806 1.379 . S
C806 H790 0.931 . S
C806 C800 1.383 . S
C806 C805 1.379 . S
H807 C801 0.959 . S
H808 C801 0.961 . S
H809 C801 0.960 . S
H810 C802 0.930 . S
H811 C803 0.929 . S
H812 C820 0.929 1_545 S
H813 C822 0.943 . S
H814 C824 0.930 . S
H815 C827 0.929 . S
H816 C830 0.930 . S
H817 C832 0.960 . S
H818 C832 0.960 . S
H819 C832 0.960 . S
C820 H812 0.929 1_565 S
C820 C821 1.377 . S
C820 C822 1.384 . S
C821 C820 1.377 . S
C821 C827 1.390 . S
C822 H813 0.943 . S
C822 C820 1.384 . S
C822 C823 1.372 . S
C823 C822 1.372 . S
C823 C824 1.400 . S
C823 C828 1.490 . S
C824 H814 0.930 . S
C824 C823 1.400 . S
C824 C827 1.386 . S
H825 C841 0.930 . S
H826 C842 0.931 . S
C827 H815 0.929 . S
C827 C821 1.390 . S
C827 C824 1.386 . S
C828 C823 1.490 . S
C828 C830 1.395 . S
C828 C831 1.403 . S
H829 C835 0.930 . S
C830 H816 0.930 . S
C830 C828 1.395 . S
C830 C833 1.403 . S
C831 C828 1.403 . S
C831 C832 1.524 . S
C831 C835 1.400 . S
C832 H817 0.960 . S
C832 H818 0.960 . S
C832 H819 0.960 . S
C832 C831 1.524 . S
C833 C830 1.403 . S
C833 C834 1.392 . S
C833 C837 1.495 . S
C834 C833 1.392 . S
C834 C835 1.385 . S
C834 C836 1.478 . S
C835 H829 0.930 . S
C835 C831 1.400 . S
C835 C834 1.385 . S
C836 C834 1.478 . S
C836 C838 1.381 . S
C836 C842 1.383 . S
C837 C833 1.495 . S
C837 H843 0.959 . S
C837 H844 0.961 . S
C837 H845 0.960 . S
C838 C836 1.381 . S
C838 C839 1.394 . S
C838 H846 0.930 . S
C839 C838 1.394 . S
C839 C840 1.383 . S
C839 H847 0.929 . S
C840 C839 1.383 . S
C840 C841 1.377 . S
C841 H825 0.930 . S
C841 C840 1.377 . S
C841 C842 1.379 . S
C842 H826 0.931 . S
C842 C836 1.383 . S
C842 C841 1.379 . S
H843 C837 0.959 . S
H844 C837 0.961 . S
H845 C837 0.960 . S
H846 C838 0.930 . S
H847 C839 0.929 . S
H848 C856 0.929 . S
H849 C858 0.930 . S
H850 C860 0.930 . S
H851 C863 0.929 1_545 S
H852 C866 0.930 . S
H853 C868 0.960 . S
H854 C868 0.960 . S
H855 C868 0.960 . S
C856 H848 0.929 . S
C856 C857 1.377 . S
C856 C858 1.384 . S
C857 C856 1.377 . S
C857 C863 1.390 . S
C858 H849 0.930 . S
C858 C856 1.384 . S
C858 C859 1.372 . S
C859 C858 1.372 . S
C859 C860 1.400 . S
C859 C864 1.490 . S
C860 H850 0.930 . S
C860 C859 1.400 . S
C860 C863 1.386 . S
H861 C877 0.930 . S
H862 C878 0.931 . S
C863 H851 0.929 1_565 S
C863 C857 1.390 . S
C863 C860 1.386 . S
C864 C859 1.490 . S
C864 C866 1.395 . S
C864 C867 1.403 . S
H865 C871 0.930 . S
C866 H852 0.930 . S
C866 C864 1.395 . S
C866 C869 1.403 . S
C867 C864 1.403 . S
C867 C868 1.524 . S
C867 C871 1.400 . S
C868 H853 0.960 . S
C868 H854 0.960 . S
C868 H855 0.960 . S
C868 C867 1.524 . S
C869 C866 1.403 . S
C869 C870 1.392 . S
C869 C873 1.495 . S
C870 C869 1.392 . S
C870 C871 1.385 . S
C870 C872 1.478 . S
C871 H865 0.930 . S
C871 C867 1.400 . S
C871 C870 1.385 . S
C872 C870 1.478 . S
C872 C874 1.381 . S
C872 C878 1.383 . S
C873 C869 1.495 . S
C873 H879 0.959 . S
C873 H880 0.961 . S
C873 H881 0.960 . S
C874 C872 1.381 . S
C874 C875 1.394 . S
C874 H882 0.930 . S
C875 C874 1.394 . S
C875 C876 1.383 . S
C875 H883 0.929 . S
C876 C875 1.383 . S
C876 C877 1.377 . S
C877 H861 0.930 . S
C877 C876 1.377 . S
C877 C878 1.379 . S
C878 H862 0.931 . S
C878 C872 1.383 . S
C878 C877 1.379 . S
H879 C873 0.959 . S
H880 C873 0.961 . S
H881 C873 0.960 . S
H882 C874 0.930 . S
H883 C875 0.929 . S
H884 C892 0.929 1_655 S
H885 C894 0.930 . S
H886 C896 0.930 . S
H887 C899 0.929 . S
H888 C902 0.930 . S
H889 C904 0.960 . S
H890 C904 0.960 . S
H891 C904 0.960 . S
C892 H884 0.929 1_455 S
C892 C893 1.377 . S
C892 C894 1.384 . S
C893 C892 1.377 . S
C893 C899 1.390 . S
C894 H885 0.930 . S
C894 C892 1.384 . S
C894 C895 1.372 . S
C895 C894 1.372 . S
C895 C896 1.400 . S
C895 C900 1.490 . S
C896 H886 0.930 . S
C896 C895 1.400 . S
C896 C899 1.386 . S
H897 C913 0.930 . S
H898 C914 0.931 . S
C899 H887 0.929 . S
C899 C893 1.390 . S
C899 C896 1.386 . S
C900 C895 1.490 . S
C900 C902 1.395 . S
C900 C903 1.403 . S
H901 C907 0.930 . S
C902 H888 0.930 . S
C902 C900 1.395 . S
C902 C905 1.403 . S
C903 C900 1.403 . S
C903 C904 1.524 . S
C903 C907 1.400 . S
C904 H889 0.960 . S
C904 H890 0.960 . S
C904 H891 0.960 . S
C904 C903 1.524 . S
C905 C902 1.403 . S
C905 C906 1.392 . S
C905 C909 1.495 . S
C906 C905 1.392 . S
C906 C907 1.385 . S
C906 C908 1.478 . S
C907 H901 0.930 . S
C907 C903 1.400 . S
C907 C906 1.385 . S
C908 C906 1.478 . S
C908 C910 1.381 . S
C908 C914 1.383 . S
C909 C905 1.495 . S
C909 H915 0.959 1_455 S
C909 H916 0.961 . S
C909 H917 0.960 . S
C910 C908 1.381 . S
C910 C911 1.394 . S
C910 H918 0.930 . S
C911 C910 1.394 . S
C911 C912 1.383 . S
C911 H919 0.929 . S
C912 C911 1.383 . S
C912 C913 1.377 . S
C913 H897 0.930 . S
C913 C912 1.377 . S
C913 C914 1.379 . S
C914 H898 0.931 . S
C914 C908 1.383 . S
C914 C913 1.379 . S
H915 C909 0.959 1_655 S
H916 C909 0.961 . S
H917 C909 0.960 . S
H918 C910 0.930 . S
H919 C911 0.929 . S
H920 C928 0.929 1_565 S
H921 C930 0.930 . S
H922 C932 0.930 . S
H923 C935 0.929 . S
H924 C938 0.930 . S
H925 C940 0.960 . S
H926 C940 0.960 . S
H927 C940 0.960 . S
C928 H920 0.929 1_545 S
C928 C929 1.377 . S
C928 C930 1.384 . S
C929 C928 1.377 . S
C929 C935 1.390 . S
C930 H921 0.930 . S
C930 C928 1.384 . S
C930 C931 1.372 . S
C931 C930 1.372 . S
C931 C932 1.400 . S
C931 C936 1.490 . S
C932 H922 0.930 . S
C932 C931 1.400 . S
C932 C935 1.386 . S
H933 C949 0.930 . S
H934 C950 0.931 . S
C935 H923 0.929 . S
C935 C929 1.390 . S
C935 C932 1.386 . S
C936 C931 1.490 . S
C936 C938 1.395 . S
C936 C939 1.403 . S
H937 C943 0.930 . S
C938 H924 0.930 . S
C938 C936 1.395 . S
C938 C941 1.403 . S
C939 C936 1.403 . S
C939 C940 1.524 . S
C939 C943 1.400 . S
C940 H925 0.960 . S
C940 H926 0.960 . S
C940 H927 0.960 . S
C940 C939 1.524 . S
C941 C938 1.403 . S
C941 C942 1.392 . S
C941 C945 1.495 . S
C942 C941 1.392 . S
C942 C943 1.385 . S
C942 C944 1.478 . S
C943 H937 0.930 . S
C943 C939 1.400 . S
C943 C942 1.385 . S
C944 C942 1.478 . S
C944 C946 1.381 . S
C944 C950 1.383 . S
C945 C941 1.495 . S
C945 H951 0.959 . S
C945 H952 0.961 . S
C945 H953 0.960 . S
C946 C944 1.381 . S
C946 C947 1.394 . S
C946 H954 0.930 . S
C947 C946 1.394 . S
C947 C948 1.383 . S
C947 H955 0.929 . S
C948 C947 1.383 . S
C948 C949 1.377 . S
C949 H933 0.930 . S
C949 C948 1.377 . S
C949 C950 1.379 . S
C950 H934 0.931 . S
C950 C944 1.383 . S
C950 C949 1.379 . S
H951 C945 0.959 . S
H952 C945 0.961 . S
H953 C945 0.960 . S
H954 C946 0.930 . S
H955 C947 0.929 . S
H956 C964 0.929 . S
H957 C966 0.930 . S
H958 C968 0.930 . S
H959 C971 0.929 . S
H960 C974 0.930 . S
H961 C976 0.960 . S
H962 C976 0.960 . S
H963 C976 0.960 . S
C964 H956 0.929 . S
C964 C965 1.377 . S
C964 C966 1.384 . S
C965 C964 1.377 . S
C965 C971 1.390 . S
C966 H957 0.930 . S
C966 C964 1.384 . S
C966 C967 1.372 . S
C967 C966 1.372 . S
C967 C968 1.400 . S
C967 C972 1.490 . S
C968 H958 0.930 . S
C968 C967 1.400 . S
C968 C971 1.386 . S
H969 C985 0.930 . S
H970 C986 0.931 . S
C971 H959 0.929 . S
C971 C965 1.390 . S
C971 C968 1.386 . S
C972 C967 1.490 . S
C972 C974 1.395 . S
C972 C975 1.403 . S
H973 C979 0.930 . S
C974 H960 0.930 . S
C974 C972 1.395 . S
C974 C977 1.403 . S
C975 C972 1.403 . S
C975 C976 1.524 . S
C975 C979 1.400 . S
C976 H961 0.960 . S
C976 H962 0.960 . S
C976 H963 0.960 . S
C976 C975 1.524 . S
C977 C974 1.403 . S
C977 C978 1.392 . S
C977 C981 1.495 . S
C978 C977 1.392 . S
C978 C979 1.385 . S
C978 C980 1.478 . S
C979 H973 0.930 . S
C979 C975 1.400 . S
C979 C978 1.385 . S
C980 C978 1.478 . S
C980 C982 1.381 . S
C980 C986 1.383 . S
C981 C977 1.495 . S
C981 H987 0.959 1_655 S
C981 H988 0.960 1_655 S
C981 H989 0.960 . S
C982 C980 1.381 . S
C982 C983 1.394 . S
C982 H990 0.930 . S
C983 C982 1.394 . S
C983 C984 1.383 . S
C983 H991 0.929 . S
C984 C983 1.383 . S
C984 C985 1.377 . S
C985 H969 0.930 . S
C985 C984 1.377 . S
C985 C986 1.379 . S
C986 H970 0.931 . S
C986 C980 1.383 . S
C986 C985 1.379 . S
H987 C981 0.959 1_455 S
H988 C981 0.960 1_455 S
H989 C981 0.960 . S
H990 C982 0.930 . S
H991 C983 0.929 . S
H992 C1000 0.929 . S
H993 C1002 0.930 . S
H994 C1004 0.930 . S
H995 C1007 0.929 . S
H996 C1010 0.930 . S
H997 C1012 0.960 . S
H998 C1012 0.960 . S
H999 C1012 0.960 . S
C1000 H992 0.929 . S
C1000 C1001 1.377 . S
C1000 C1002 1.384 . S
C1001 C1000 1.377 . S
C1001 C1007 1.390 . S
C1002 H993 0.930 . S
C1002 C1000 1.384 . S
C1002 C1003 1.372 . S
C1003 C1002 1.372 . S
C1003 C1004 1.400 . S
C1003 C1008 1.490 . S
C1004 H994 0.930 . S
C1004 C1003 1.400 . S
C1004 C1007 1.386 . S
H1005 C1021 0.930 . S
H1006 C1022 0.931 . S
C1007 H995 0.929 . S
C1007 C1001 1.390 . S
C1007 C1004 1.386 . S
C1008 C1003 1.490 . S
C1008 C1010 1.395 . S
C1008 C1011 1.403 . S
H1009 C1015 0.930 . S
C1010 H996 0.930 . S
C1010 C1008 1.395 . S
C1010 C1013 1.403 . S
C1011 C1008 1.403 . S
C1011 C1012 1.524 . S
C1011 C1015 1.400 . S
C1012 H997 0.960 . S
C1012 H998 0.960 . S
C1012 H999 0.960 . S
C1012 C1011 1.524 . S
C1013 C1010 1.403 . S
C1013 C1014 1.392 . S
C1013 C1017 1.495 . S
C1014 C1013 1.392 . S
C1014 C1015 1.385 . S
C1014 C1016 1.478 . S
C1015 H1009 0.930 . S
C1015 C1011 1.400 . S
C1015 C1014 1.385 . S
C1016 C1014 1.478 . S
C1016 C1018 1.381 . S
C1016 C1022 1.383 . S
C1017 C1013 1.495 . S
C1017 H1023 0.959 . S
C1017 H1024 0.961 . S
C1017 H1025 0.960 . S
C1018 C1016 1.381 . S
C1018 C1019 1.394 . S
C1018 H1026 0.930 . S
C1019 C1018 1.394 . S
C1019 C1020 1.383 . S
C1019 H1027 0.929 . S
C1020 C1019 1.383 . S
C1020 C1021 1.377 . S
C1021 H1005 0.930 . S
C1021 C1020 1.377 . S
C1021 C1022 1.379 . S
C1022 H1006 0.931 . S
C1022 C1016 1.383 . S
C1022 C1021 1.379 . S
H1023 C1017 0.959 . S
H1024 C1017 0.961 . S
H1025 C1017 0.960 . S
H1026 C1018 0.930 . S
H1027 C1019 0.929 . S
H1028 C1036 0.929 . S
H1029 C1038 0.930 . S
H1030 C1040 0.930 . S
H1031 C1043 0.929 . S
H1032 C1046 0.930 . S
H1033 C1048 0.960 . S
H1034 C1048 0.960 . S
H1035 C1048 0.960 . S
C1036 H1028 0.929 . S
C1036 C1037 1.377 . S
C1036 C1038 1.384 . S
C1037 C1036 1.377 . S
C1037 C1043 1.390 . S
C1038 H1029 0.930 . S
C1038 C1036 1.384 . S
C1038 C1039 1.372 . S
C1039 C1038 1.372 . S
C1039 C1040 1.400 . S
C1039 C1044 1.490 . S
C1040 H1030 0.930 . S
C1040 C1039 1.400 . S
C1040 C1043 1.386 . S
H1041 C1057 0.930 . S
H1042 C1058 0.931 . S
C1043 H1031 0.929 . S
C1043 C1037 1.390 . S
C1043 C1040 1.386 . S
C1044 C1039 1.490 . S
C1044 C1046 1.395 . S
C1044 C1047 1.403 . S
H1045 C1051 0.930 . S
C1046 H1032 0.930 . S
C1046 C1044 1.395 . S
C1046 C1049 1.403 . S
C1047 C1044 1.403 . S
C1047 C1048 1.524 . S
C1047 C1051 1.400 . S
C1048 H1033 0.960 . S
C1048 H1034 0.960 . S
C1048 H1035 0.960 . S
C1048 C1047 1.524 . S
C1049 C1046 1.403 . S
C1049 C1050 1.392 . S
C1049 C1053 1.495 . S
C1050 C1049 1.392 . S
C1050 C1051 1.385 . S
C1050 C1052 1.478 . S
C1051 H1045 0.930 . S
C1051 C1047 1.400 . S
C1051 C1050 1.385 . S
C1052 C1050 1.478 . S
C1052 C1054 1.381 . S
C1052 C1058 1.383 . S
C1053 C1049 1.495 . S
C1053 H1059 0.959 . S
C1053 H1060 0.961 . S
C1053 H1061 0.960 . S
C1054 C1052 1.381 . S
C1054 C1055 1.394 . S
C1054 H1062 0.930 . S
C1055 C1054 1.394 . S
C1055 C1056 1.383 . S
C1055 H1063 0.929 . S
C1056 C1055 1.383 . S
C1056 C1057 1.377 . S
C1057 H1041 0.930 . S
C1057 C1056 1.377 . S
C1057 C1058 1.379 . S
C1058 H1042 0.931 . S
C1058 C1052 1.383 . S
C1058 C1057 1.379 . S
H1059 C1053 0.959 . S
H1060 C1053 0.961 . S
H1061 C1053 0.960 . S
H1062 C1054 0.930 . S
H1063 C1055 0.929 . S
H1064 C1072 0.929 . S
H1065 C1074 0.930 . S
H1066 C1076 0.930 . S
H1067 C1079 0.929 . S
H1068 C1082 0.930 . S
H1069 C1084 0.960 . S
H1070 C1084 0.960 . S
H1071 C1084 0.960 . S
C1072 H1064 0.929 . S
C1072 C1073 1.377 . S
C1072 C1074 1.384 . S
C1073 C1072 1.377 . S
C1073 C1079 1.390 . S
C1074 H1065 0.930 . S
C1074 C1072 1.384 . S
C1074 C1075 1.372 . S
C1075 C1074 1.372 . S
C1075 C1076 1.400 . S
C1075 C1080 1.490 . S
C1076 H1066 0.930 . S
C1076 C1075 1.400 . S
C1076 C1079 1.386 . S
H1077 C1093 0.930 . S
H1078 C1094 0.931 . S
C1079 H1067 0.929 . S
C1079 C1073 1.390 . S
C1079 C1076 1.386 . S
C1080 C1075 1.490 . S
C1080 C1082 1.395 . S
C1080 C1083 1.403 . S
H1081 C1087 0.930 . S
C1082 H1068 0.930 . S
C1082 C1080 1.395 . S
C1082 C1085 1.403 . S
C1083 C1080 1.403 . S
C1083 C1084 1.524 . S
C1083 C1087 1.400 . S
C1084 H1069 0.960 . S
C1084 H1070 0.960 . S
C1084 H1071 0.960 . S
C1084 C1083 1.524 . S
C1085 C1082 1.403 . S
C1085 C1086 1.392 . S
C1085 C1089 1.495 . S
C1086 C1085 1.392 . S
C1086 C1087 1.385 . S
C1086 C1088 1.478 . S
C1087 H1081 0.930 . S
C1087 C1083 1.400 . S
C1087 C1086 1.385 . S
C1088 C1086 1.478 . S
C1088 C1090 1.381 . S
C1088 C1094 1.383 . S
C1089 C1085 1.495 . S
C1089 H1095 0.959 . S
C1089 H1096 0.961 . S
C1089 H1097 0.960 . S
C1090 C1088 1.381 . S
C1090 C1091 1.394 . S
C1090 H1098 0.930 . S
C1091 C1090 1.394 . S
C1091 C1092 1.383 . S
C1091 H1099 0.929 . S
C1092 C1091 1.383 . S
C1092 C1093 1.377 . S
C1093 H1077 0.930 . S
C1093 C1092 1.377 . S
C1093 C1094 1.379 . S
C1094 H1078 0.931 . S
C1094 C1088 1.383 . S
C1094 C1093 1.379 . S
H1095 C1089 0.959 . S
H1096 C1089 0.961 . S
H1097 C1089 0.960 . S
H1098 C1090 0.930 . S
H1099 C1091 0.929 . S
H1100 C1108 0.929 . S
H1101 C1110 0.930 . S
H1102 C1112 0.930 . S
H1103 C1115 0.929 . S
H1104 C1118 0.930 . S
H1105 C1120 0.960 . S
H1106 C1120 0.960 . S
H1107 C1120 0.960 . S
C1108 H1100 0.929 . S
C1108 C1109 1.377 . S
C1108 C1110 1.384 . S
C1109 C1108 1.377 . S
C1109 C1115 1.390 . S
C1110 H1101 0.930 . S
C1110 C1108 1.384 . S
C1110 C1111 1.372 . S
C1111 C1110 1.372 . S
C1111 C1112 1.400 . S
C1111 C1116 1.490 . S
C1112 H1102 0.930 . S
C1112 C1111 1.400 . S
C1112 C1115 1.386 . S
H1113 C1129 0.930 . S
H1114 C1130 0.931 . S
C1115 H1103 0.929 . S
C1115 C1109 1.390 . S
C1115 C1112 1.386 . S
C1116 C1111 1.490 . S
C1116 C1118 1.395 . S
C1116 C1119 1.403 . S
H1117 C1123 0.930 . S
C1118 H1104 0.930 . S
C1118 C1116 1.395 . S
C1118 C1121 1.403 . S
C1119 C1116 1.403 . S
C1119 C1120 1.524 . S
C1119 C1123 1.400 . S
C1120 H1105 0.960 . S
C1120 H1106 0.960 . S
C1120 H1107 0.960 . S
C1120 C1119 1.524 . S
C1121 C1118 1.403 . S
C1121 C1122 1.392 . S
C1121 C1125 1.495 . S
C1122 C1121 1.392 . S
C1122 C1123 1.385 . S
C1122 C1124 1.478 . S
C1123 H1117 0.930 . S
C1123 C1119 1.400 . S
C1123 C1122 1.385 . S
C1124 C1122 1.478 . S
C1124 C1126 1.381 . S
C1124 C1130 1.383 . S
C1125 C1121 1.495 . S
C1125 H1131 0.959 . S
C1125 H1132 0.961 . S
C1125 H1133 0.960 . S
C1126 C1124 1.381 . S
C1126 C1127 1.394 . S
C1126 H1134 0.930 . S
C1127 C1126 1.394 . S
C1127 C1128 1.383 . S
C1127 H1135 0.929 . S
C1128 C1127 1.383 . S
C1128 C1129 1.377 . S
C1129 H1113 0.930 . S
C1129 C1128 1.377 . S
C1129 C1130 1.379 . S
C1130 H1114 0.931 . S
C1130 C1124 1.383 . S
C1130 C1129 1.379 . S
H1131 C1125 0.959 . S
H1132 C1125 0.961 . S
H1133 C1125 0.960 . S
H1134 C1126 0.930 . S
H1135 C1127 0.929 . S
H1136 C1144 0.929 . S
H1137 C1146 0.930 . S
H1138 C1148 0.930 . S
H1139 C1151 0.929 . S
H1140 C1154 0.930 . S
H1141 C1156 0.960 . S
H1142 C1156 0.960 . S
H1143 C1156 0.960 . S
C1144 H1136 0.929 . S
C1144 C1145 1.377 . S
C1144 C1146 1.384 . S
C1145 C1144 1.377 . S
C1145 C1151 1.390 . S
C1146 H1137 0.930 . S
C1146 C1144 1.384 . S
C1146 C1147 1.372 . S
C1147 C1146 1.372 . S
C1147 C1148 1.400 . S
C1147 C1152 1.490 . S
C1148 H1138 0.930 . S
C1148 C1147 1.400 . S
C1148 C1151 1.386 . S
H1149 C1165 0.930 . S
H1150 C1166 0.931 . S
C1151 H1139 0.929 . S
C1151 C1145 1.390 . S
C1151 C1148 1.386 . S
C1152 C1147 1.490 . S
C1152 C1154 1.395 . S
C1152 C1155 1.403 . S
H1153 C1159 0.930 . S
C1154 H1140 0.930 . S
C1154 C1152 1.395 . S
C1154 C1157 1.403 . S
C1155 C1152 1.403 . S
C1155 C1156 1.524 . S
C1155 C1159 1.400 . S
C1156 H1141 0.960 . S
C1156 H1142 0.960 . S
C1156 H1143 0.960 . S
C1156 C1155 1.524 . S
C1157 C1154 1.403 . S
C1157 C1158 1.392 . S
C1157 C1161 1.495 . S
C1158 C1157 1.392 . S
C1158 C1159 1.385 . S
C1158 C1160 1.478 . S
C1159 H1153 0.930 . S
C1159 C1155 1.400 . S
C1159 C1158 1.385 . S
C1160 C1158 1.478 . S
C1160 C1162 1.381 . S
C1160 C1166 1.383 . S
C1161 C1157 1.495 . S
C1161 H1167 0.959 . S
C1161 H1168 0.961 . S
C1161 H1169 0.960 . S
C1162 C1160 1.381 . S
C1162 C1163 1.394 . S
C1162 H1170 0.930 . S
C1163 C1162 1.394 . S
C1163 C1164 1.383 . S
C1163 H1171 0.929 . S
C1164 C1163 1.383 . S
C1164 C1165 1.377 . S
C1165 H1149 0.930 . S
C1165 C1164 1.377 . S
C1165 C1166 1.379 . S
C1166 H1150 0.931 . S
C1166 C1160 1.383 . S
C1166 C1165 1.379 . S
H1167 C1161 0.959 . S
H1168 C1161 0.961 . S
H1169 C1161 0.960 . S
H1170 C1162 0.930 . S
H1171 C1163 0.929 . S
H1172 C1180 0.929 . S
H1173 C1182 0.930 . S
H1174 C1184 0.930 . S
H1175 C1187 0.929 . S
H1176 C1190 0.930 . S
H1177 C1192 0.960 . S
H1178 C1192 0.960 . S
H1179 C1192 0.960 . S
C1180 H1172 0.929 . S
C1180 C1181 1.377 . S
C1180 C1182 1.384 . S
C1181 C1180 1.377 . S
C1181 C1187 1.390 . S
C1182 H1173 0.930 . S
C1182 C1180 1.384 . S
C1182 C1183 1.372 . S
C1183 C1182 1.372 . S
C1183 C1184 1.400 . S
C1183 C1188 1.490 . S
C1184 H1174 0.930 . S
C1184 C1183 1.400 . S
C1184 C1187 1.386 . S
H1185 C1201 0.930 . S
H1186 C1202 0.931 . S
C1187 H1175 0.929 . S
C1187 C1181 1.390 . S
C1187 C1184 1.386 . S
C1188 C1183 1.490 . S
C1188 C1190 1.395 . S
C1188 C1191 1.403 . S
H1189 C1195 0.930 . S
C1190 H1176 0.930 . S
C1190 C1188 1.395 . S
C1190 C1193 1.403 . S
C1191 C1188 1.403 . S
C1191 C1192 1.524 . S
C1191 C1195 1.400 . S
C1192 H1177 0.960 . S
C1192 H1178 0.960 . S
C1192 H1179 0.960 . S
C1192 C1191 1.524 . S
C1193 C1190 1.403 . S
C1193 C1194 1.392 . S
C1193 C1197 1.495 . S
C1194 C1193 1.392 . S
C1194 C1195 1.385 . S
C1194 C1196 1.478 . S
C1195 H1189 0.930 . S
C1195 C1191 1.400 . S
C1195 C1194 1.385 . S
C1196 C1194 1.478 . S
C1196 C1198 1.381 . S
C1196 C1202 1.383 . S
C1197 C1193 1.495 . S
C1197 H1203 0.959 . S
C1197 H1204 0.961 . S
C1197 H1205 0.960 . S
C1198 C1196 1.381 . S
C1198 C1199 1.394 . S
C1198 H1206 0.930 . S
C1199 C1198 1.394 . S
C1199 C1200 1.383 . S
C1199 H1207 0.929 . S
C1200 C1199 1.383 . S
C1200 C1201 1.377 . S
C1201 H1185 0.930 . S
C1201 C1200 1.377 . S
C1201 C1202 1.379 . S
C1202 H1186 0.931 . S
C1202 C1196 1.383 . S
C1202 C1201 1.379 . S
H1203 C1197 0.959 . S
H1204 C1197 0.961 . S
H1205 C1197 0.960 . S
H1206 C1198 0.930 . S
H1207 C1199 0.929 . S
H1208 C1216 0.929 . S
H1209 C1218 0.930 . S
H1210 C1220 0.930 . S
H1211 C1223 0.929 . S
H1212 C1226 0.930 . S
H1213 C1228 0.960 . S
H1214 C1228 0.960 . S
H1215 C1228 0.960 . S
C1216 H1208 0.929 . S
C1216 C1217 1.377 . S
C1216 C1218 1.384 . S
C1217 C1216 1.377 . S
C1217 C1223 1.390 . S
C1218 H1209 0.930 . S
C1218 C1216 1.384 . S
C1218 C1219 1.372 . S
C1219 C1218 1.372 . S
C1219 C1220 1.400 . S
C1219 C1224 1.490 . S
C1220 H1210 0.930 . S
C1220 C1219 1.400 . S
C1220 C1223 1.386 . S
H1221 C1237 0.930 . S
H1222 C1238 0.931 . S
C1223 H1211 0.929 . S
C1223 C1217 1.390 . S
C1223 C1220 1.386 . S
C1224 C1219 1.490 . S
C1224 C1226 1.395 . S
C1224 C1227 1.403 . S
H1225 C1231 0.930 . S
C1226 H1212 0.930 . S
C1226 C1224 1.395 . S
C1226 C1229 1.403 . S
C1227 C1224 1.403 . S
C1227 C1228 1.524 . S
C1227 C1231 1.400 . S
C1228 H1213 0.960 . S
C1228 H1214 0.960 . S
C1228 H1215 0.960 . S
C1228 C1227 1.524 . S
C1229 C1226 1.403 . S
C1229 C1230 1.392 . S
C1229 C1233 1.495 . S
C1230 C1229 1.392 . S
C1230 C1231 1.385 . S
C1230 C1232 1.478 . S
C1231 H1225 0.930 . S
C1231 C1227 1.400 . S
C1231 C1230 1.385 . S
C1232 C1230 1.478 . S
C1232 C1234 1.381 . S
C1232 C1238 1.383 . S
C1233 C1229 1.495 . S
C1233 H1239 0.959 . S
C1233 H1240 0.961 . S
C1233 H1241 0.960 . S
C1234 C1232 1.381 . S
C1234 C1235 1.394 . S
C1234 H1242 0.930 . S
C1235 C1234 1.394 . S
C1235 C1236 1.383 . S
C1235 H1243 0.929 . S
C1236 C1235 1.383 . S
C1236 C1237 1.377 . S
C1237 H1221 0.930 . S
C1237 C1236 1.377 . S
C1237 C1238 1.379 . S
C1238 H1222 0.931 . S
C1238 C1232 1.383 . S
C1238 C1237 1.379 . S
H1239 C1233 0.959 . S
H1240 C1233 0.961 . S
H1241 C1233 0.960 . S
H1242 C1234 0.930 . S
H1243 C1235 0.929 . S
H1244 C1252 0.929 . S
H1245 C1254 0.930 . S
H1246 C1256 0.930 . S
H1247 C1259 0.929 . S
H1248 C1262 0.930 . S
H1249 C1264 0.960 . S
H1250 C1264 0.960 . S
H1251 C1264 0.960 . S
C1252 H1244 0.929 . S
C1252 C1253 1.377 . S
C1252 C1254 1.384 . S
C1253 C1252 1.377 . S
C1253 C1259 1.390 . S
C1254 H1245 0.930 . S
C1254 C1252 1.384 . S
C1254 C1255 1.372 . S
C1255 C1254 1.372 . S
C1255 C1256 1.400 . S
C1255 C1260 1.490 . S
C1256 H1246 0.930 . S
C1256 C1255 1.400 . S
C1256 C1259 1.386 . S
H1257 C1273 0.930 . S
H1258 C1274 0.931 . S
C1259 H1247 0.929 . S
C1259 C1253 1.390 . S
C1259 C1256 1.386 . S
C1260 C1255 1.490 . S
C1260 C1262 1.395 . S
C1260 C1263 1.403 . S
H1261 C1267 0.930 . S
C1262 H1248 0.930 . S
C1262 C1260 1.395 . S
C1262 C1265 1.403 . S
C1263 C1260 1.403 . S
C1263 C1264 1.524 . S
C1263 C1267 1.400 . S
C1264 H1249 0.960 . S
C1264 H1250 0.960 . S
C1264 H1251 0.960 . S
C1264 C1263 1.524 . S
C1265 C1262 1.403 . S
C1265 C1266 1.392 . S
C1265 C1269 1.495 . S
C1266 C1265 1.392 . S
C1266 C1267 1.385 . S
C1266 C1268 1.478 . S
C1267 H1261 0.930 . S
C1267 C1263 1.400 . S
C1267 C1266 1.385 . S
C1268 C1266 1.478 . S
C1268 C1270 1.381 . S
C1268 C1274 1.383 . S
C1269 C1265 1.495 . S
C1269 H1275 0.959 . S
C1269 H1276 0.961 . S
C1269 H1277 0.960 . S
C1270 C1268 1.381 . S
C1270 C1271 1.394 . S
C1270 H1278 0.930 . S
C1271 C1270 1.394 . S
C1271 C1272 1.383 . S
C1271 H1279 0.929 . S
C1272 C1271 1.383 . S
C1272 C1273 1.377 . S
C1273 H1257 0.930 . S
C1273 C1272 1.377 . S
C1273 C1274 1.379 . S
C1274 H1258 0.931 . S
C1274 C1268 1.383 . S
C1274 C1273 1.379 . S
H1275 C1269 0.959 . S
H1276 C1269 0.961 . S
H1277 C1269 0.960 . S
H1278 C1270 0.930 . S
H1279 C1271 0.929 . S
C425 C45 1.635 . S
C444 C125 1.619 . S
C461 C30 1.634 . S
C480 C164 1.624 . S
C497 C39 1.638 . S
C516 C203 1.663 . S
C552 C242 1.657 . S
C533 C34 1.637 . S
C569 C97 1.636 . S
C588 C281 1.623 . S
C624 C320 1.647 . S
C605 C82 1.640 . S
C660 C359 1.642 . S
C641 C91 1.638 . S
C696 C398 1.658 . S
C677 C86 1.636 . S
C732 C354 1.506 . S
C713 C26 1.477 . S
C768 C393 1.513 . S
C749 C36 1.474 . S
C804 C261 1.521 . S
C785 C32 1.486 . S
C840 C300 1.509 . S
C821 C42 1.472 . S
C857 C18 1.565 . S
C876 C315 1.609 . S
C912 C339 1.643 . S
C893 C50 1.570 . S
C929 C4 1.566 . S
C948 C378 1.643 . S
C965 C48 1.571 . S
C984 C276 1.634 . S
C1020 C198 1.533 . S
C1001 C78 1.483 . S
C1037 C88 1.481 . S
C1056 C237 1.513 . S
C1092 C105 1.537 . S
C1073 C84 1.481 . S
C1128 C144 1.506 . S
C1109 C94 1.480 . S
C1164 C159 1.627 . S
C1145 C70 1.571 . S
C1200 C183 1.617 . S
C1181 C102 1.562 . S
C1217 C56 1.573 . S
C1236 C222 1.636 . S
C1253 C100 1.571 . S
C1272 C120 1.633 . S
