# Generated by pormake.
# Topology anh, (6,3)-cn, num edge types: 1
# Building blocks:
#     Node 0, Type 0, BuildingBlock: GEDQOX_clean_sbu_0, # of connection points: 6
#     Node 1, Type 0, BuildingBlock: GEDQOX_clean_sbu_0, # of connection points: 6
#     Node 2, Type 0, BuildingBlock: GEDQOX_clean_sbu_0, # of connection points: 6
#     Node 3, Type 1, BuildingBlock: VETTIZ_charged_linker_0, # of connection points: 3
#     Node 4, Type 1, BuildingBlock: VETTIZ_charged_linker_0, # of connection points: 3
#     Node 5, Type 1, BuildingBlock: VETTIZ_charged_linker_0, # of connection points: 3
#     Node 6, Type 1, BuildingBlock: VETTIZ_charged_linker_0, # of connection points: 3
#     Node 7, Type 1, BuildingBlock: VETTIZ_charged_linker_0, # of connection points: 3
#     Node 8, Type 1, BuildingBlock: VETTIZ_charged_linker_0, # of connection points: 3
#     Edge 9, Type (0, 1), BuildingBlock: XUDNAN_clean_linker_2, # of connection points: 2
#     Edge 10, Type (0, 1), BuildingBlock: XUDNAN_clean_linker_2, # of connection points: 2
#     Edge 11, Type (0, 1), BuildingBlock: XUDNAN_clean_linker_2, # of connection points: 2
#     Edge 12, Type (0, 1), BuildingBlock: XUDNAN_clean_linker_2, # of connection points: 2
#     Edge 13, Type (0, 1), BuildingBlock: XUDNAN_clean_linker_2, # of connection points: 2
#     Edge 14, Type (0, 1), BuildingBlock: XUDNAN_clean_linker_2, # of connection points: 2
#     Edge 15, Type (0, 1), BuildingBlock: XUDNAN_clean_linker_2, # of connection points: 2
#     Edge 16, Type (0, 1), BuildingBlock: XUDNAN_clean_linker_2, # of connection points: 2
#     Edge 17, Type (0, 1), BuildingBlock: XUDNAN_clean_linker_2, # of connection points: 2
#     Edge 18, Type (0, 1), BuildingBlock: XUDNAN_clean_linker_2, # of connection points: 2
#     Edge 19, Type (0, 1), BuildingBlock: XUDNAN_clean_linker_2, # of connection points: 2
#     Edge 20, Type (0, 1), BuildingBlock: XUDNAN_clean_linker_2, # of connection points: 2
#     Edge 21, Type (0, 1), BuildingBlock: XUDNAN_clean_linker_2, # of connection points: 2
#     Edge 22, Type (0, 1), BuildingBlock: XUDNAN_clean_linker_2, # of connection points: 2
#     Edge 23, Type (0, 1), BuildingBlock: XUDNAN_clean_linker_2, # of connection points: 2
#     Edge 24, Type (0, 1), BuildingBlock: XUDNAN_clean_linker_2, # of connection points: 2
#     Edge 25, Type (0, 1), BuildingBlock: XUDNAN_clean_linker_2, # of connection points: 2
#     Edge 26, Type (0, 1), BuildingBlock: XUDNAN_clean_linker_2, # of connection points: 2
# Relax obj value: 0.182
# Max RMSD: 0.212
# Mean RMSD: 0.160
data_MOF--net-anh--node1-GEDQOX_clean_sbu_0--node2-VETTIZ_charged_linker_0--edge1-XUDNAN_clean_linker_2
_symmetry_space_group_name_H-M    P1
_symmetry_Int_Tables_number       1
_symmetry_cell_setting            triclinic
loop_
_symmetry_equiv_pos_as_xyz
'x, y, z'
_cell_length_a     36.734092
_cell_length_b     35.057449
_cell_length_c     66.80233
_cell_angle_alpha  93.362339
_cell_angle_beta   89.885512
_cell_angle_gamma 105.67891
loop_
_atom_site_label
_atom_site_type_symbol
_atom_site_fract_x
_atom_site_fract_y
_atom_site_fract_z
_atom_type_partial_charge
Nd0 Nd 0.07835 0.56887 0.15545 0.0
Nd1 Nd 0.06004 0.47924 0.15345 0.0
C2 C 0.10704 0.64417 0.1478 0.0
C3 C 0.14262 0.67573 0.15128 0.0
C4 C 0.16228 0.68149 0.16971 0.0
C5 C 0.19573 0.71205 0.17267 0.0
C6 C 0.21034 0.73727 0.1572 0.0
C7 C 0.19082 0.73076 0.13866 0.0
C8 C 0.1573 0.70041 0.13577 0.0
C9 C 0.07143 0.53787 0.19221 0.0
C10 C 0.15129 0.52488 0.15409 0.0
C11 C 1.03168 0.40351 0.16062 0.0
C12 C 0.99416 0.3751 0.16305 0.0
C13 C 0.96724 0.36471 0.14734 0.0
C14 C 0.93201 0.33773 0.15009 0.0
C15 C 0.92282 0.32062 0.16863 0.0
C16 C 0.94987 0.3312 0.18431 0.0
C17 C 0.98512 0.35795 0.18151 0.0
C18 C 0.06654 0.5122 0.11705 0.0
C19 C 0.98745 0.52277 0.15536 0.0
O20 O 0.10857 0.61463 0.1352 0.0
O21 O 0.08624 0.6328 0.16345 0.0
O22 O 0.06071 0.56909 0.18829 0.0
O23 O 0.08748 0.52576 0.17737 0.0
O24 O 0.13943 0.55772 0.15371 0.0
O25 O 0.12601 0.48975 0.15489 0.0
O26 O 1.04245 0.43174 0.17479 0.0
O27 O 1.04088 0.41582 0.1427 0.0
O28 O 0.07861 0.4815 0.12037 0.0
O29 O 1.05023 0.52253 0.13214 0.0
O30 O 0.99984 0.49115 0.1587 0.0
O31 O 1.01245 0.5566 0.15126 0.0
H32 H 0.15169 0.66258 0.18187 0.0
H33 H 0.2097 0.71634 0.1872 0.0
H34 H 0.20154 0.74895 0.12627 0.0
H35 H 0.14277 0.69621 0.12138 0.0
H36 H 0.97332 0.37734 0.13289 0.0
H37 H 0.91214 0.32994 0.13759 0.0
H38 H 0.94367 0.31926 0.1989 0.0
H39 H 1.00533 0.36546 0.19388 0.0
Nd40 Nd 0.51603 0.98746 0.51342 0.0
Nd41 Nd 0.60158 1.00863 0.51165 0.0
C42 C 0.44483 0.96025 0.52403 0.0
C43 C 0.41348 0.92382 0.52123 0.0
C44 C 0.39303 0.90786 0.53793 0.0
C45 C 0.36214 0.87433 0.53555 0.0
C46 C 0.35092 0.85626 0.51636 0.0
C47 C 0.37194 0.872 0.49967 0.0
C48 C 0.40299 0.90533 0.50209 0.0
C49 C 0.54307 0.99082 0.47519 0.0
C50 C 0.559 0.91497 0.51277 0.0
C51 C 0.67369 0.03577 0.50255 0.0
C52 C 0.70271 0.07386 0.50203 0.0
C53 C 0.74063 0.0749 0.50521 0.0
C54 C 0.76893 0.11049 0.50434 0.0
C55 C 0.75976 0.14569 0.50021 0.0
C56 C 0.72158 0.14467 0.49729 0.0
C57 C 0.69322 0.10902 0.49828 0.0
C58 C 0.57293 1.0044 0.5496 0.0
C59 C 0.55822 0.08048 0.51111 0.0
O60 O 0.47336 0.95836 0.53529 0.0
O61 O 0.45524 0.98079 0.50826 0.0
O62 O 0.51278 1.00093 0.48045 0.0
O63 O 0.55622 0.97636 0.48949 0.0
O64 O 0.52758 0.92599 0.51581 0.0
O65 O 0.59138 0.9409 0.50899 0.0
O66 O 0.64609 0.02901 0.48933 0.0
O67 O 0.66232 0.02421 0.5203 0.0
O68 O 0.60208 0.99206 0.54444 0.0
O69 O 0.56135 0.02008 0.53529 0.0
O70 O 0.58947 0.06955 0.50728 0.0
O71 O 0.52685 0.05484 0.51646 0.0
H72 H 0.40078 0.92157 0.55283 0.0
H73 H 0.34704 0.86261 0.54876 0.0
H74 H 0.36387 0.85922 0.48465 0.0
H75 H 0.4184 0.91694 0.48893 0.0
H76 H 0.74841 0.04804 0.50815 0.0
H77 H 0.7981 0.11023 0.50639 0.0
H78 H 0.71368 0.17141 0.49427 0.0
H79 H 0.66401 0.10888 0.49595 0.0
Nd80 Nd 0.52041 0.5122 0.83619 0.0
Nd81 Nd 0.60402 0.53219 0.84293 0.0
C82 C 0.45312 0.51026 0.82185 0.0
C83 C 0.43411 0.54179 0.8194 0.0
C84 C 0.44932 0.57357 0.80719 0.0
C85 C 0.4349 0.60668 0.80791 0.0
C86 C 0.40571 0.60874 0.82111 0.0
C87 C 0.38891 0.5759 0.83224 0.0
C88 C 0.40282 0.54263 0.83129 0.0
C89 C 0.5414 0.5178 0.87583 0.0
C90 C 0.56967 0.60664 0.84118 0.0
C91 C 0.67368 0.53619 0.85419 0.0
C92 C 0.70116 0.5155 0.84671 0.0
C93 C 0.73185 0.51451 0.85882 0.0
C94 C 0.75995 0.49809 0.85106 0.0
C95 C 0.75779 0.48269 0.83102 0.0
C96 C 0.72603 0.48207 0.81922 0.0
C97 C 0.69774 0.49811 0.82707 0.0
C98 C 0.58237 0.52428 0.80326 0.0
C99 C 0.55349 0.43723 0.84061 0.0
O100 O 0.48214 0.51059 0.81039 0.0
O101 O 0.45893 0.50307 0.84041 0.0
O102 O 0.51158 0.49185 0.86836 0.0
O103 O 0.55764 0.54105 0.86285 0.0
O104 O 0.53998 0.58044 0.83275 0.0
O105 O 0.59665 0.59459 0.84972 0.0
O106 O 0.64399 0.51445 0.86293 0.0
O107 O 0.66538 0.56039 0.84189 0.0
O108 O 0.61203 0.5508 0.81031 0.0
O109 O 0.56687 0.50202 0.81669 0.0
O110 O 0.58585 0.46371 0.84558 0.0
O111 O 0.52381 0.44799 0.83449 0.0
H112 H 0.47343 0.57379 0.79779 0.0
H113 H 0.44796 0.63153 0.79905 0.0
H114 H 0.36582 0.57661 0.84226 0.0
H115 H 0.39041 0.51841 0.84068 0.0
H116 H 0.73475 0.52764 0.87403 0.0
H117 H 0.78442 0.4995 0.86039 0.0
H118 H 0.7237 0.47032 0.80377 0.0
H119 H 0.67386 0.49822 0.8176 0.0
C120 C 0.66674 0.09747 0.20522 0.0
C121 C 0.70013 0.12101 0.21477 0.0
C122 C 0.70596 0.11668 0.23528 0.0
C123 C 0.64563 0.06708 0.23649 0.0
C124 C 0.64005 0.07072 0.21632 0.0
C125 C 0.60298 0.04355 0.20859 0.0
H126 H 0.43886 0.90617 0.22756 0.0
C127 C 0.61218 0.03764 0.24382 0.0
C128 C 0.58707 0.02354 0.22752 0.0
H129 H 0.47615 0.95556 0.17088 0.0
H130 H 0.53428 0.99569 0.18656 0.0
H131 H 0.52138 0.89595 0.242 0.0
H132 H 0.46168 0.98487 0.25277 0.0
H133 H 0.48711 0.98493 0.27495 0.0
H134 H 0.45126 0.94069 0.26637 0.0
H135 H 0.47903 0.88857 0.25646 0.0
H136 H 0.525 0.91006 0.26781 0.0
C137 C 0.61159 0.01366 0.1925 0.0
C138 C 0.57847 0.06944 0.20087 0.0
C139 C 0.60305 1.00982 0.31788 0.0
C140 C 0.57408 0.98667 0.3293 0.0
C141 C 0.54069 0.96371 0.31956 0.0
C142 C 0.53605 0.96392 0.29877 0.0
C143 C 0.56493 0.98772 0.28755 0.0
C144 C 0.59771 1.01021 0.29712 0.0
C145 C 0.62451 0.03511 0.28288 0.0
C146 C 0.60244 0.02374 0.26321 0.0
C147 C 0.56772 0.99579 0.26604 0.0
C148 C 0.66142 0.02174 0.28251 0.0
C149 C 0.62991 0.07939 0.28965 0.0
C150 C 0.45979 0.92515 0.21845 0.0
C151 C 0.45297 0.9275 0.19793 0.0
C152 C 0.48062 0.95337 0.18674 0.0
C153 C 0.51441 0.97656 0.19587 0.0
C154 C 0.52063 0.97413 0.21647 0.0
C155 C 0.4935 0.94867 0.22736 0.0
C156 C 0.50421 0.95068 0.24917 0.0
C157 C 0.54252 0.98106 0.24956 0.0
C158 C 0.5521 0.99477 0.23038 0.0
C159 C 0.50742 0.9092 0.25433 0.0
C160 C 0.47457 0.96578 0.2616 0.0
H161 H 0.68512 0.08837 0.26172 0.0
H162 H 0.66154 0.09969 0.18943 0.0
H163 H 0.58211 0.09695 0.21074 0.0
H164 H 0.54789 0.05458 0.20098 0.0
H165 H 0.58659 0.07846 0.18547 0.0
H166 H 0.63731 1.0048 0.19672 0.0
H167 H 0.61667 0.02685 0.17769 0.0
H168 H 0.58893 0.98559 0.19086 0.0
H169 H 0.6288 0.02816 0.32504 0.0
H170 H 0.51812 0.9455 0.32809 0.0
H171 H 0.50997 0.9458 0.29228 0.0
H172 H 0.65518 0.98912 0.28385 0.0
H173 H 0.68066 0.03651 0.29515 0.0
H174 H 0.67673 0.02725 0.26826 0.0
H175 H 0.60334 0.08422 0.29596 0.0
H176 H 0.63669 0.09933 0.27718 0.0
H177 H 0.6523 0.08942 0.30144 0.0
H178 H 0.73109 0.13472 0.24311 0.0
C179 C 0.67902 0.08991 0.24614 0.0
C180 C 0.57391 0.61169 0.53127 0.0
C181 C 0.57744 0.64918 0.54138 0.0
C182 C 0.58437 0.65338 0.56222 0.0
C183 C 0.58211 0.58375 0.56291 0.0
C184 C 0.57706 0.57951 0.54232 0.0
C185 C 0.57569 0.53769 0.53436 0.0
H186 H 0.58396 0.35117 0.5562 0.0
C187 C 0.58271 0.54502 0.57028 0.0
C188 C 0.57991 0.51771 0.55363 0.0
H189 H 0.56854 0.39016 0.49753 0.0
H190 H 0.57143 0.45635 0.51214 0.0
H191 H 0.64568 0.43091 0.57469 0.0
H192 H 0.5252 0.38469 0.57498 0.0
H193 H 0.53577 0.41335 0.59763 0.0
H194 H 0.55461 0.37112 0.59308 0.0
H195 H 0.62093 0.38868 0.58792 0.0
H196 H 0.63097 0.43833 0.59936 0.0
C197 C 0.60949 0.5399 0.5203 0.0
C198 C 0.53688 0.51905 0.52403 0.0
C199 C 0.57739 0.52718 0.64548 0.0
C200 C 0.57431 0.49373 0.65667 0.0
C201 C 0.57715 0.45807 0.6468 0.0
C202 C 0.58173 0.45527 0.62604 0.0
C203 C 0.58297 0.4883 0.61486 0.0
C204 C 0.58138 0.52367 0.62459 0.0
C205 C 0.58284 0.55542 0.61014 0.0
C206 C 0.58386 0.53261 0.5901 0.0
C207 C 0.5841 0.4935 0.59305 0.0
C208 C 0.61975 0.58911 0.61439 0.0
C209 C 0.54607 0.56878 0.61248 0.0
C210 C 0.58224 0.37418 0.54638 0.0
C211 C 0.57698 0.36566 0.52567 0.0
C212 C 0.57308 0.39612 0.51356 0.0
C213 C 0.57475 0.43448 0.52206 0.0
C214 C 0.57965 0.44231 0.54296 0.0
C215 C 0.58293 0.412 0.55463 0.0
C216 C 0.58424 0.42344 0.5766 0.0
C217 C 0.58309 0.46625 0.57639 0.0
C218 C 0.5806 0.47779 0.5567 0.0
C219 C 0.62226 0.42001 0.58528 0.0
C220 C 0.54839 0.39681 0.58622 0.0
H221 H 0.59133 0.62636 0.58882 0.0
H222 H 0.56902 0.60766 0.51521 0.0
H223 H 0.51383 0.52544 0.53333 0.0
H224 H 0.53021 0.48644 0.52199 0.0
H225 H 0.5356 0.53131 0.50916 0.0
H226 H 0.63582 0.55985 0.52724 0.0
H227 H 0.6046 0.55179 0.50578 0.0
H228 H 0.61531 0.51089 0.51725 0.0
H229 H 0.57539 0.55499 0.65272 0.0
H230 H 0.57558 0.43216 0.6552 0.0
H231 H 0.58357 0.42721 0.61952 0.0
H232 H 0.64128 0.57861 0.62252 0.0
H233 H 0.61426 0.61422 0.6237 0.0
H234 H 0.63386 0.60042 0.60041 0.0
H235 H 0.52109 0.54256 0.61319 0.0
H236 H 0.54028 0.58514 0.5998 0.0
H237 H 0.54703 0.58776 0.62649 0.0
H238 H 0.58693 0.68165 0.57037 0.0
C239 C 0.58666 0.62107 0.57297 0.0
C240 C 0.21104 0.70684 0.8613 0.0
C241 C 0.24057 0.7327 0.87279 0.0
C242 C 0.23574 0.73792 0.89364 0.0
C243 C 0.17653 0.68612 0.89152 0.0
C244 C 0.17975 0.68368 0.87091 0.0
C245 C 0.14905 0.65079 0.86095 0.0
H246 H 0.98703 0.50762 0.86911 0.0
C247 C 0.14371 0.65357 0.89692 0.0
C248 C 0.12748 0.63299 0.879 0.0
H249 H 1.04731 0.54613 0.81481 0.0
H250 H 0.09759 0.59014 0.83465 0.0
H251 H 1.05891 0.49608 0.89045 0.0
H252 H 1.00304 0.58882 0.89447 0.0
H253 H 1.01333 0.5781 0.91901 0.0
H254 H 0.98379 0.5396 0.90271 0.0
H255 H 1.02167 0.49504 0.9079 0.0
H256 H 0.07055 0.51872 0.91458 0.0
C257 C 0.16741 0.62112 0.84942 0.0
C258 C 0.12521 0.66993 0.84765 0.0
C259 C 0.11517 0.62567 0.97013 0.0
C260 C 0.0889 0.5948 0.97914 0.0
C261 C 0.0626 0.56611 0.96708 0.0
C262 C 0.06238 0.56799 0.94624 0.0
C263 C 0.08913 0.59855 0.93732 0.0
C264 C 0.11509 0.62667 0.94917 0.0
C265 C 0.14275 0.65547 0.93683 0.0
C266 C 0.129 0.63988 0.91568 0.0
C267 C 0.09744 0.60675 0.91616 0.0
C268 C 0.18287 0.65136 0.94118 0.0
C269 C 0.13802 0.69753 0.94178 0.0
C270 C 1.01125 0.52447 0.86123 0.0
C271 C 1.01217 0.5237 0.84009 0.0
C272 C 1.04479 0.54687 0.83096 0.0
C273 C 0.07416 0.57248 0.84254 0.0
C274 C 0.07143 0.5745 0.86354 0.0
C275 C 1.04115 0.54947 0.87253 0.0
C276 C 1.04423 0.55347 0.89504 0.0
C277 C 0.08008 0.58714 0.89806 0.0
C278 C 0.09555 0.59965 0.87959 0.0
C279 C 1.04887 0.51387 0.9025 0.0
C280 C 1.00924 0.56543 0.90339 0.0
H281 H 0.20247 0.71886 0.91907 0.0
H282 H 0.21384 0.70137 0.84532 0.0
H283 H 0.12026 0.69688 0.85555 0.0
H284 H 0.09679 0.65035 0.84397 0.0
H285 H 0.14 0.67906 0.83347 0.0
H286 H 0.19458 0.62073 0.85664 0.0
H287 H 0.17346 0.62911 0.83368 0.0
H288 H 0.14987 0.59005 0.84945 0.0
H289 H 0.13586 0.64784 0.97917 0.0
H290 H 1.04201 0.54232 0.97386 0.0
H291 H 1.04142 0.5455 0.93789 0.0
H292 H 0.18212 0.61972 0.94271 0.0
H293 H 0.19475 0.66818 0.95538 0.0
H294 H 0.2029 0.66117 0.92901 0.0
H295 H 0.10777 0.69633 0.94421 0.0
H296 H 0.14689 0.71747 0.92942 0.0
H297 H 0.15405 0.71137 0.95564 0.0
H298 H 0.2579 0.75791 0.90283 0.0
C299 C 0.20378 0.71484 0.90307 0.0
C300 C 0.9765 0.40607 0.4618 0.0
C301 C 0.9523 0.37202 0.45203 0.0
C302 C 0.95339 0.36707 0.43094 0.0
C303 C 1.00208 0.42929 0.42981 0.0
C304 C 1.00106 0.4341 0.45046 0.0
C305 C 1.02886 0.47164 0.45857 0.0
H306 H 0.16521 0.63917 0.44137 0.0
C307 C 1.03066 0.46384 0.42256 0.0
C308 C 1.04645 0.48876 0.43935 0.0
H309 H 0.12131 0.59649 0.49842 0.0
H310 H 0.07825 0.53939 0.48149 0.0
H311 H 0.16786 0.55214 0.421 0.0
H312 H 0.08776 0.62158 0.41935 0.0
H313 H 0.08519 0.59655 0.39566 0.0
H314 H 0.12897 0.63167 0.40399 0.0
H315 H 0.17667 0.59835 0.40912 0.0
H316 H 0.15308 0.55203 0.39593 0.0
C317 C 1.05793 0.46011 0.47213 0.0
C318 C 1.00644 0.49827 0.46933 0.0
C319 C 1.05426 0.4749 0.34781 0.0
C320 C 0.07682 0.50501 0.33668 0.0
C321 C 0.09963 0.53954 0.34678 0.0
C322 C 0.10017 0.54401 0.36776 0.0
C323 C 0.07731 0.5138 0.37876 0.0
C324 C 1.05459 0.48012 0.36878 0.0
C325 C 1.03056 0.45226 0.38291 0.0
C326 C 1.04297 0.47455 0.403 0.0
C327 C 0.07063 0.51034 0.40047 0.0
C328 C 1.04153 0.41256 0.38095 0.0
C329 C 0.98846 0.44856 0.37799 0.0
C330 C 0.14662 0.61727 0.45022 0.0
C331 C 0.14676 0.62227 0.47127 0.0
C332 C 0.12152 0.5935 0.48219 0.0
C333 C 0.09667 0.56024 0.47233 0.0
C334 C 0.09694 0.55563 0.45129 0.0
C335 C 0.1216 0.58392 0.4406 0.0
C336 C 0.11758 0.57442 0.41833 0.0
C337 C 0.08686 0.5354 0.41744 0.0
C338 C 0.07488 0.5246 0.43677 0.0
C339 C 0.15574 0.56913 0.4105 0.0
C340 C 0.10446 0.60774 0.40868 0.0
H341 H 0.97766 0.38985 0.40384 0.0
H342 H 0.9762 0.41102 0.47795 0.0
H343 H 0.97943 0.49588 0.46119 0.0
H344 H 1.02155 0.53014 0.46984 0.0
H345 H 0.99933 0.48936 0.48485 0.0
H346 H 0.06329 0.43169 0.46641 0.0
H347 H 1.04754 0.4562 0.48771 0.0
H348 H 0.08602 0.48185 0.47247 0.0
H349 H 1.03599 0.44837 0.34034 0.0
H350 H 0.11722 0.56304 0.3384 0.0
H351 H 0.1182 0.57093 0.37458 0.0
H352 H 0.07259 0.41799 0.37909 0.0
H353 H 1.02739 0.39384 0.3677 0.0
H354 H 1.0349 0.39532 0.39443 0.0
H355 H 0.98485 0.47684 0.37269 0.0
H356 H 0.97013 0.44272 0.39121 0.0
H357 H 0.97734 0.42494 0.36601 0.0
H358 H 0.93556 0.34084 0.42303 0.0
C359 C 0.97809 0.39547 0.41981 0.0
C360 C 0.56414 0.91297 0.82085 0.0
C361 C 0.56157 0.87564 0.81076 0.0
C362 C 0.5568 0.87191 0.78976 0.0
C363 C 0.55746 0.94112 0.78903 0.0
C364 C 0.56164 0.94526 0.80968 0.0
C365 C 0.56211 0.98689 0.81759 0.0
H366 H 0.5631 0.17586 0.79514 0.0
C367 C 0.55638 0.97972 0.78161 0.0
C368 C 0.55916 1.00711 0.79822 0.0
H369 H 0.56029 0.13228 0.85431 0.0
H370 H 0.56109 0.06694 0.8398 0.0
H371 H 0.62116 0.12942 0.77467 0.0
H372 H 0.50081 0.10748 0.77869 0.0
H373 H 0.50796 0.08576 0.75526 0.0
H374 H 0.52728 0.13857 0.76035 0.0
H375 H 0.5943 0.15655 0.76182 0.0
H376 H 0.60226 0.11141 0.75072 0.0
C377 C 0.59996 1.00579 0.8288 0.0
C378 C 0.52709 0.98404 0.83085 0.0
C379 C 0.54465 0.99225 0.70636 0.0
C380 C 0.54226 0.02402 0.69497 0.0
C381 C 0.54486 0.06131 0.70482 0.0
C382 C 0.54946 0.06692 0.72565 0.0
C383 C 0.55118 0.03483 0.73694 0.0
C384 C 0.54881 0.99828 0.72729 0.0
C385 C 0.5505 0.96757 0.74184 0.0
C386 C 0.55392 0.99171 0.76179 0.0
C387 C 0.55454 0.03102 0.75874 0.0
C388 C 0.58646 0.95367 0.73727 0.0
C389 C 0.51284 0.93416 0.73995 0.0
C390 C 0.56347 0.15253 0.80503 0.0
C391 C 0.56244 0.15941 0.82585 0.0
C392 C 0.56143 0.12773 0.83817 0.0
C393 C 0.56171 0.08984 0.82972 0.0
C394 C 0.562 0.0833 0.8087 0.0
C395 C 0.56259 0.1146 0.79686 0.0
C396 C 0.55948 0.10249 0.77496 0.0
C397 C 0.55763 0.0589 0.77532 0.0
C398 C 0.55957 0.04733 0.79506 0.0
C399 C 0.59596 0.12623 0.76484 0.0
C400 C 0.52221 0.10905 0.76672 0.0
H401 H 0.55144 0.89904 0.76299 0.0
H402 H 0.5675 0.91673 0.83701 0.0
H403 H 0.50184 0.96215 0.82394 0.0
H404 H 0.5193 0.01229 0.83259 0.0
H405 H 0.53178 0.97432 0.84594 0.0
H406 H 0.62401 1.00181 0.81954 0.0
H407 H 0.60095 0.9917 0.84318 0.0
H408 H 0.605 0.03801 0.83204 0.0
H409 H 0.54256 0.96319 0.6992 0.0
H410 H 0.54369 0.08636 0.69633 0.0
H411 H 0.55142 0.09612 0.73212 0.0
H412 H 0.61005 0.97878 0.73267 0.0
H413 H 0.58111 0.93023 0.72487 0.0
H414 H 0.59766 0.94273 0.75046 0.0
H415 H 0.48895 0.94604 0.73565 0.0
H416 H 0.50409 0.92033 0.75426 0.0
H417 H 0.51463 0.91076 0.72833 0.0
H418 H 0.55529 0.84391 0.78156 0.0
C419 C 0.55484 0.90421 0.77893 0.0
C420 C 0.67856 0.52365 0.14996 0.0
C421 C 0.71382 0.52763 0.13935 0.0
C422 C 0.71267 0.53259 0.11868 0.0
C423 C 0.64512 0.52835 0.11887 0.0
C424 C 0.64439 0.52486 0.13934 0.0
C425 C 0.60392 0.52385 0.14689 0.0
H426 H 0.41546 0.51036 0.11501 0.0
C427 C 0.6064 0.52645 0.11124 0.0
C428 C 0.58082 0.524 0.12737 0.0
H429 H 0.45272 0.53228 0.17667 0.0
H430 H 0.51723 0.52991 0.16666 0.0
H431 H 0.47961 0.574 0.1009 0.0
H432 H 0.46225 0.4482 0.1012 0.0
H433 H 0.48282 0.46159 0.07803 0.0
H434 H 0.43806 0.47108 0.0842 0.0
H435 H 0.45046 0.54034 0.08244 0.0
H436 H 0.50032 0.56175 0.07876 0.0
C437 C 0.60631 0.56134 0.16051 0.0
C438 C 0.58717 0.48605 0.15798 0.0
C439 C 0.59081 0.52604 0.03554 0.0
C440 C 0.55948 0.52203 0.02275 0.0
C441 C 0.52327 0.51531 0.0312 0.0
C442 C 0.51852 0.51349 0.05198 0.0
C443 C 0.5503 0.51868 0.06468 0.0
C444 C 0.5855 0.52422 0.05628 0.0
C445 C 0.61591 0.52802 0.07179 0.0
C446 C 0.59339 0.52478 0.09109 0.0
C447 C 0.55511 0.51973 0.08685 0.0
C448 C 0.64408 0.56983 0.0706 0.0
C449 C 0.63322 0.49244 0.06775 0.0
C450 C 0.43679 0.51386 0.12666 0.0
C451 C 0.4276 0.52073 0.1467 0.0
C452 C 0.458 0.52668 0.16098 0.0
C453 C 0.49562 0.52551 0.15522 0.0
C454 C 0.50415 0.5196 0.13479 0.0
C455 C 0.47424 0.5144 0.12116 0.0
C456 C 0.4869 0.51302 0.10002 0.0
C457 C 0.52891 0.51787 0.10264 0.0
C458 C 0.54061 0.52082 0.12308 0.0
C459 C 0.47881 0.54878 0.08983 0.0
C460 C 0.46639 0.47154 0.09017 0.0
H461 H 0.68216 0.53644 0.09292 0.0
H462 H 0.67777 0.5202 0.16595 0.0
H463 H 0.58631 0.45926 0.14803 0.0
H464 H 0.55791 0.48455 0.1628 0.0
H465 H 0.60454 0.48543 0.1715 0.0
H466 H 0.61931 0.58842 0.1524 0.0
H467 H 0.62388 0.56172 0.17408 0.0
H468 H 0.57797 0.56295 0.16541 0.0
H469 H 0.61898 0.53043 0.02957 0.0
H470 H 0.4986 0.51238 0.02177 0.0
H471 H 0.49018 0.50865 0.0573 0.0
H472 H 0.62958 0.59178 0.06563 0.0
H473 H 0.66696 0.5692 0.0598 0.0
H474 H 0.65679 0.58259 0.08534 0.0
H475 H 0.61259 0.46648 0.06009 0.0
H476 H 0.64099 0.48075 0.08167 0.0
H477 H 0.6584 0.50051 0.05805 0.0
H478 H 0.73783 0.53515 0.10978 0.0
C479 C 0.67945 0.53292 0.10865 0.0
H480 H 0.19532 0.47506 0.13746 0.0
H481 H 0.20613 0.58449 0.17351 0.0
H482 H 0.27492 0.59319 0.17694 0.0
H483 H 0.26857 0.44161 0.16265 0.0
H484 H 0.28671 0.42374 0.13994 0.0
H485 H 0.23786 0.42446 0.14107 0.0
H486 H 0.24669 0.46659 0.11007 0.0
H487 H 0.2955 0.46582 0.10879 0.0
H488 H 0.28361 0.51253 0.11032 0.0
H489 H 0.34483 0.58895 0.17774 0.0
H490 H 0.40763 0.57714 0.172 0.0
H491 H 0.3553 0.47438 0.13257 0.0
C492 C 0.21206 0.50077 0.14618 0.0
C493 C 0.19413 0.52886 0.15543 0.0
C494 C 0.21816 0.56231 0.16629 0.0
C495 C 0.25769 0.56748 0.1684 0.0
C496 C 0.27434 0.53951 0.15921 0.0
C497 C 0.25231 0.50711 0.14796 0.0
C498 C 0.27795 0.48287 0.13858 0.0
C499 C 0.26712 0.44065 0.146 0.0
C500 C 0.2758 0.48189 0.11557 0.0
C501 C 0.31754 0.50631 0.14641 0.0
C502 C 0.31465 0.53856 0.15859 0.0
C503 C 0.34708 0.56386 0.16806 0.0
C504 C 0.38303 0.5567 0.16482 0.0
C505 C 0.3876 0.52479 0.15182 0.0
C506 C 0.35368 0.49926 0.14258 0.0
H507 H 0.76662 0.19863 0.47096 0.0
H508 H 0.82216 0.17586 0.52448 0.0
H509 H 0.87593 0.23417 0.51915 0.0
H510 H 0.84739 0.22537 0.44189 0.0
H511 H 0.83393 0.26384 0.42943 0.0
H512 H 0.7981 0.22291 0.4385 0.0
H513 H 0.76927 0.27185 0.45945 0.0
H514 H 0.80485 0.31303 0.45028 0.0
H515 H 0.79895 0.3082 0.47689 0.0
H516 H 0.92562 0.29147 0.50653 0.0
H517 H 0.96757 0.34404 0.48767 0.0
H518 H 0.87897 0.33024 0.44274 0.0
C519 C 0.78966 0.2065 0.48183 0.0
C520 C 0.79022 0.18282 0.49816 0.0
C521 C 0.82132 0.19349 0.51179 0.0
C522 C 0.85185 0.22664 0.50896 0.0
C523 C 0.85076 0.24888 0.49246 0.0
C524 C 0.82038 0.23941 0.47919 0.0
C525 C 0.82718 0.26675 0.46204 0.0
C526 C 0.82662 0.2433 0.44177 0.0
C527 C 0.79835 0.29142 0.46218 0.0
C528 C 0.8665 0.29244 0.46748 0.0
C529 C 0.87946 0.28191 0.48517 0.0
C530 C 0.91559 0.30037 0.4928 0.0
C531 C 0.93916 0.33031 0.48201 0.0
C532 C 0.92655 0.34142 0.46375 0.0
C533 C 0.88957 0.3223 0.45656 0.0
H534 H 0.52191 0.64296 0.82276 0.0
H535 H 0.62414 0.66889 0.85932 0.0
H536 H 0.63013 0.7407 0.85829 0.0
H537 H 0.55246 0.72084 0.79048 0.0
H538 H 0.50701 0.73088 0.78867 0.0
H539 H 0.50977 0.68194 0.79382 0.0
H540 H 0.47157 0.68454 0.82692 0.0
H541 H 0.46755 0.73243 0.82039 0.0
H542 H 0.48672 0.72665 0.84451 0.0
H543 H 0.62628 0.81095 0.85186 0.0
H544 H 0.61516 0.87164 0.8387 0.0
H545 H 0.51612 0.79933 0.80618 0.0
C546 C 0.54537 0.66364 0.83074 0.0
C547 C 0.5725 0.64999 0.84117 0.0
C548 C 0.60291 0.67836 0.85124 0.0
C549 C 0.6065 0.71933 0.8508 0.0
C550 C 0.57942 0.73176 0.84027 0.0
C551 C 0.54945 0.70465 0.83042 0.0
C552 C 0.52512 0.72559 0.8194 0.0
C553 C 0.52351 0.71413 0.79676 0.0
C554 C 0.48536 0.71685 0.82832 0.0
C555 C 0.54677 0.76861 0.8239 0.0
C556 C 0.57758 0.77174 0.83633 0.0
C557 C 0.60207 0.80871 0.84221 0.0
C558 C 0.59541 0.84311 0.83479 0.0
C559 C 0.56481 0.84033 0.82141 0.0
C560 C 0.53983 0.80249 0.81633 0.0
H561 H 0.94462 0.57173 0.14006 0.0
H562 H 0.93123 0.46531 0.1724 0.0
H563 H 0.86244 0.45764 0.1743 0.0
H564 H 0.87165 0.60852 0.166 0.0
H565 H 0.85503 0.62554 0.14371 0.0
H566 H 0.90352 0.62391 0.14563 0.0
H567 H 0.89555 0.57983 0.11267 0.0
H568 H 0.84715 0.58159 0.1106 0.0
H569 H 0.85797 0.53439 0.11037 0.0
H570 H 0.79147 0.46161 0.17274 0.0
H571 H 0.72935 0.47315 0.16478 0.0
H572 H 0.78717 0.57522 0.13245 0.0
C573 C 0.92739 0.54691 0.1477 0.0
C574 C 0.94462 0.51936 0.15626 0.0
C575 C 0.91985 0.48714 0.16573 0.0
C576 C 0.88025 0.48253 0.16695 0.0
C577 C 0.86431 0.51004 0.15844 0.0
C578 C 0.88726 0.54145 0.14878 0.0
C579 C 0.86277 0.56578 0.14 0.0
C580 C 0.87392 0.60848 0.14939 0.0
C581 C 0.86607 0.56538 0.11705 0.0
C582 C 0.82272 0.54344 0.1462 0.0
C583 C 0.82414 0.51154 0.15704 0.0
C584 C 0.79049 0.48665 0.16423 0.0
C585 C 0.75493 0.4937 0.15982 0.0
C586 C 0.75219 0.52529 0.14804 0.0
C587 C 0.78733 0.55072 0.14155 0.0
H588 H 0.34065 0.7906 0.49009 0.0
H589 H 0.2836 0.84444 0.53619 0.0
H590 H 0.22623 0.78873 0.53085 0.0
H591 H 0.26155 0.75851 0.45674 0.0
H592 H 0.27225 0.71301 0.4483 0.0
H593 H 0.3098 0.75557 0.45678 0.0
H594 H 0.33126 0.71376 0.48279 0.0
H595 H 0.2938 0.67102 0.47437 0.0
H596 H 0.29767 0.68799 0.50047 0.0
H597 H 0.17413 0.72861 0.51951 0.0
H598 H 0.13094 0.66887 0.50264 0.0
H599 H 0.22159 0.65543 0.46344 0.0
C600 C 0.31612 0.7908 0.49906 0.0
C601 C 0.31682 0.82191 0.51365 0.0
C602 C 0.28412 0.82064 0.5252 0.0
C603 C 0.25127 0.78924 0.52219 0.0
C604 C 0.2515 0.75933 0.50756 0.0
C605 C 0.28306 0.75985 0.49618 0.0
C606 C 0.2755 0.72487 0.48092 0.0
C607 C 0.28004 0.73884 0.45942 0.0
C608 C 0.30108 0.69781 0.48489 0.0
C609 C 0.2346 0.70486 0.48533 0.0
C610 C 0.22135 0.72501 0.50085 0.0
C611 C 0.18424 0.71243 0.50742 0.0
C612 C 0.15999 0.6784 0.49782 0.0
C613 C 0.17291 0.65751 0.48175 0.0
C614 C 0.2108 0.67097 0.47555 0.0
H615 H 0.60401 0.39594 0.82791 0.0
H616 H 0.49536 0.38189 0.85624 0.0
H617 H 0.48927 0.31027 0.85891 0.0
H618 H 0.57503 0.30543 0.7975 0.0
H619 H 0.6202 0.2946 0.79869 0.0
H620 H 0.6178 0.34526 0.80105 0.0
H621 H 0.65411 0.35537 0.83498 0.0
H622 H 0.65636 0.30457 0.8328 0.0
H623 H 0.63604 0.32273 0.85472 0.0
H624 H 0.49491 0.23969 0.85828 0.0
H625 H 0.50709 0.1745 0.84986 0.0
H626 H 0.60916 0.23313 0.81921 0.0
C627 C 0.57921 0.37777 0.83489 0.0
C628 C 0.55032 0.39442 0.84212 0.0
C629 C 0.51781 0.36965 0.85069 0.0
C630 C 0.51425 0.32902 0.85238 0.0
C631 C 0.54315 0.31336 0.84508 0.0
C632 C 0.5747 0.33684 0.83616 0.0
C633 C 0.59986 0.31196 0.82777 0.0
C634 C 0.60341 0.31446 0.80489 0.0
C635 C 0.6389 0.32441 0.83819 0.0
C636 C 0.5775 0.27085 0.83327 0.0
C637 C 0.5453 0.27242 0.84364 0.0
C638 C 0.52007 0.23816 0.85018 0.0
C639 C 0.52732 0.20127 0.84548 0.0
C640 C 0.55915 0.19879 0.83404 0.0
C641 C 0.58477 0.2342 0.82813 0.0
H642 H 0.61274 0.88101 0.52661 0.0
H643 H 0.50049 0.85211 0.49984 0.0
H644 H 0.49606 0.78053 0.50072 0.0
H645 H 0.64368 0.79793 0.50323 0.0
H646 H 0.66737 0.79036 0.52566 0.0
H647 H 0.66352 0.83921 0.52089 0.0
H648 H 0.6316 0.8436 0.55525 0.0
H649 H 0.63558 0.79495 0.56017 0.0
H650 H 0.59005 0.80512 0.56114 0.0
H651 H 0.50332 0.71152 0.50532 0.0
H652 H 0.51811 0.65168 0.51723 0.0
H653 H 0.62358 0.72546 0.54314 0.0
C654 C 0.58753 0.85956 0.52063 0.0
C655 C 0.55716 0.87211 0.51288 0.0
C656 C 0.52416 0.84315 0.50574 0.0
C657 C 0.52149 0.80242 0.50608 0.0
C658 C 0.55183 0.79094 0.5139 0.0
C659 C 0.58402 0.81869 0.52132 0.0
C660 C 0.61101 0.79859 0.5307 0.0
C661 C 0.64862 0.80703 0.51944 0.0
C662 C 0.61742 0.81132 0.55314 0.0
C663 C 0.5889 0.75528 0.52755 0.0
C664 C 0.55517 0.75141 0.51747 0.0
C665 C 0.52972 0.71425 0.51316 0.0
C666 C 0.53846 0.68035 0.51984 0.0
C667 C 0.57202 0.68384 0.53101 0.0
C668 C 0.59778 0.72184 0.53454 0.0
H669 H 0.79982 0.43721 0.84601 0.0
H670 H 0.7919 0.50867 0.79636 0.0
H671 H 0.8565 0.50917 0.78647 0.0
H672 H 0.88127 0.48605 0.86244 0.0
H673 H 0.90067 0.44643 0.8692 0.0
H674 H 0.8505 0.43839 0.86797 0.0
H675 H 0.84433 0.37834 0.8425 0.0
H676 H 0.89485 0.38586 0.84381 0.0
H677 H 0.87168 0.38426 0.8199 0.0
H678 H 0.9248 0.52305 0.78971 0.0
H679 H 0.98851 0.54457 0.80413 0.0
H680 H 0.95557 0.45727 0.84902 0.0
C681 C 0.81121 0.45114 0.83247 0.0
C682 C 0.79106 0.47278 0.82191 0.0
C683 C 0.80669 0.49137 0.80446 0.0
C684 C 0.84343 0.49177 0.79871 0.0
C685 C 0.8638 0.47261 0.8103 0.0
C686 C 0.84783 0.45146 0.82648 0.0
C687 C 0.87741 0.43935 0.83847 0.0
C688 C 0.87746 0.45345 0.86081 0.0
C689 C 0.87173 0.39427 0.83601 0.0
C690 C 0.91293 0.46129 0.82807 0.0
C691 C 0.90443 0.47927 0.81148 0.0
C692 C 0.93202 0.50773 0.80208 0.0
C693 C 0.96855 0.51976 0.81044 0.0
C694 C 0.97749 0.50309 0.82802 0.0
C695 C 0.94979 0.47136 0.83587 0.0
H696 H 0.27479 0.73856 0.1788 0.0
H697 H 0.22515 0.812 0.14323 0.0
H698 H 0.28285 0.86725 0.14842 0.0
H699 H 0.31853 0.81564 0.21566 0.0
H700 H 0.35998 0.79822 0.21865 0.0
H701 H 0.31554 0.76364 0.21126 0.0
H702 H 0.3468 0.74017 0.17978 0.0
H703 H 0.39134 0.77477 0.18705 0.0
H704 H 0.37106 0.77608 0.16264 0.0
H705 H 0.34558 0.91514 0.1579 0.0
H706 H 0.40771 0.95293 0.17224 0.0
H707 H 0.41571 0.84925 0.20252 0.0
C708 C 0.27587 0.76628 0.17217 0.0
C709 C 0.24534 0.77062 0.16044 0.0
C710 C 0.24832 0.80746 0.15192 0.0
C711 C 0.28094 0.83919 0.15487 0.0
C712 C 0.31041 0.83383 0.16648 0.0
C713 C 0.30814 0.79838 0.17508 0.0
C714 C 0.34341 0.80076 0.18737 0.0
C715 C 0.33378 0.79419 0.20955 0.0
C716 C 0.36439 0.77119 0.17869 0.0
C717 C 0.36566 0.84324 0.18452 0.0
C718 C 0.34628 0.86167 0.17226 0.0
C719 C 0.36108 0.90098 0.16747 0.0
C720 C 0.39647 0.92214 0.17559 0.0
C721 C 0.41658 0.90406 0.18847 0.0
C722 C 0.4009 0.86398 0.19285 0.0
H723 H 0.61226 0.14947 0.52341 0.0
H724 H 0.50205 0.10548 0.49458 0.0
H725 H 0.49847 0.17435 0.49168 0.0
H726 H 0.58767 0.22543 0.5535 0.0
H727 H 0.63337 0.26084 0.55241 0.0
H728 H 0.62954 0.2085 0.54992 0.0
H729 H 0.66412 0.21771 0.51598 0.0
H730 H 0.66793 0.27015 0.51835 0.0
H731 H 0.64588 0.24086 0.49635 0.0
H732 H 0.50577 0.24796 0.49277 0.0
H733 H 0.51963 0.32003 0.50162 0.0
H734 H 0.62267 0.31671 0.53215 0.0
C735 C 0.58773 0.15451 0.5162 0.0
C736 C 0.55758 0.1222 0.50898 0.0
C737 C 0.52548 0.12984 0.50013 0.0
C738 C 0.5233 0.16886 0.49832 0.0
C739 C 0.55323 0.20014 0.50572 0.0
C740 C 0.58463 0.19345 0.51475 0.0
C741 C 0.61103 0.2322 0.52327 0.0
C742 C 0.61565 0.2317 0.54613 0.0
C743 C 0.64952 0.24073 0.51286 0.0
C744 C 0.58934 0.26154 0.51783 0.0
C745 C 0.5565 0.24251 0.50731 0.0
C746 C 0.53149 0.2632 0.50094 0.0
C747 C 0.5397 0.30421 0.5059 0.0
C748 C 0.57227 0.32406 0.51746 0.0
C749 C 0.59764 0.30237 0.5232 0.0
H750 H 0.40317 0.64689 0.85699 0.0
H751 H 0.38298 0.65343 0.79371 0.0
H752 H 0.35441 0.70893 0.80141 0.0
H753 H 0.32146 0.65031 0.87278 0.0
H754 H 0.3359 0.68009 0.89582 0.0
H755 H 0.36591 0.65242 0.88485 0.0
H756 H 0.42062 0.71715 0.88434 0.0
H757 H 0.39008 0.74523 0.89511 0.0
H758 H 0.41385 0.75904 0.87192 0.0
H759 H 0.31303 0.74803 0.81606 0.0
H760 H 0.25961 0.76022 0.83527 0.0
H761 H 0.30647 0.72884 0.88933 0.0
C762 C 0.39374 0.66103 0.84478 0.0
C763 C 0.39465 0.64594 0.82485 0.0
C764 C 0.38243 0.66483 0.80909 0.0
C765 C 0.36654 0.69657 0.81336 0.0
C766 C 0.36404 0.70949 0.83341 0.0
C767 C 0.37795 0.69256 0.84886 0.0
C768 C 0.36573 0.70584 0.8691 0.0
C769 C 0.34604 0.67006 0.8813 0.0
C770 C 0.39959 0.73347 0.8808 0.0
C771 C 0.33864 0.7286 0.86257 0.0
C772 C 0.33964 0.73237 0.84202 0.0
C773 C 0.3127 0.74621 0.83217 0.0
C774 C 0.28233 0.75302 0.84322 0.0
C775 C 0.27866 0.74488 0.86376 0.0
C776 C 0.30886 0.73601 0.87377 0.0
H777 H 0.90671 0.25373 0.19032 0.0
H778 H 0.85339 0.32318 0.15423 0.0
H779 H 0.79101 0.27706 0.16017 0.0
H780 H 0.84419 0.15686 0.17566 0.0
H781 H 0.844 0.13898 0.20043 0.0
H782 H 0.88469 0.1758 0.19212 0.0
H783 H 0.88008 0.22239 0.22306 0.0
H784 H 0.83946 0.18571 0.23147 0.0
H785 H 0.83639 0.23527 0.22774 0.0
H786 H 0.73382 0.2248 0.17142 0.0
H787 H 0.68675 0.17209 0.18785 0.0
H788 H 0.77761 0.1379 0.21701 0.0
C789 C 0.88198 0.25942 0.18367 0.0
C790 C 0.88518 0.29217 0.17172 0.0
C791 C 0.85194 0.29801 0.16315 0.0
C792 C 0.81628 0.27205 0.16652 0.0
C793 C 0.81422 0.24033 0.1785 0.0
C794 C 0.84621 0.23397 0.18696 0.0
C795 C 0.83625 0.19869 0.19992 0.0
C796 C 0.8533 0.16563 0.19152 0.0
C797 C 0.84879 0.21128 0.22184 0.0
C798 C 0.79359 0.18653 0.19771 0.0
C799 C 0.78141 0.21064 0.18514 0.0
C800 C 0.74308 0.20558 0.18118 0.0
C801 C 0.71655 0.17541 0.19049 0.0
C802 C 0.72842 0.15082 0.20373 0.0
C803 C 0.76756 0.15637 0.20712 0.0
H804 H 0.08874 0.48634 0.0807 0.0
H805 H 1.05065 0.58183 0.11029 0.0
H806 H 1.05749 0.61618 0.07874 0.0
H807 H 0.15576 0.54506 0.04687 0.0
H808 H 0.14306 0.50861 0.02609 0.0
H809 H 0.13852 0.49312 0.05144 0.0
H810 H 0.06783 0.45685 0.04462 0.0
H811 H 0.07222 0.47205 0.01925 0.0
H812 H 1.03681 0.48398 0.03528 0.0
H813 H 0.06863 0.6403 0.04401 0.0
H814 H 0.07559 0.64829 0.00744 0.0
H815 H 0.10066 0.53447 -0.00017 0.0
C816 C 0.08222 0.51466 0.08054 0.0
C817 C 0.07007 0.53197 0.098 0.0
C818 C 0.06081 0.56852 0.09715 0.0
C819 C 0.06459 0.58825 0.07931 0.0
C820 C 0.07691 0.57059 0.06236 0.0
C821 C 0.08496 0.5343 0.06271 0.0
C822 C 0.09467 0.52028 0.04202 0.0
C823 C 0.13543 0.51656 0.04159 0.0
C824 C 0.06617 0.48097 0.03487 0.0
C825 C 0.09067 0.55426 0.03 0.0
C826 C 0.08111 0.58334 0.04208 0.0
C827 C 0.07603 0.61772 0.03438 0.0
C828 C 0.08016 0.62211 0.01369 0.0
C829 C 0.08856 0.59196 0.00105 0.0
C830 C 0.09418 0.55785 0.00932 0.0
H831 H 0.50699 1.00469 0.44198 0.0
H832 H 0.60715 0.97302 0.46116 0.0
H833 H 0.6278 0.97102 0.42585 0.0
H834 H 0.48957 0.93988 0.39778 0.0
H835 H 0.47262 0.97346 0.38325 0.0
H836 H 0.46727 0.97466 0.41006 0.0
H837 H 0.50263 0.0496 0.41259 0.0
H838 H 0.50811 0.04864 0.38578 0.0
H839 H 0.54907 0.06603 0.40204 0.0
H840 H 0.63731 0.97318 0.38811 0.0
H841 H 0.63252 0.97437 0.35111 0.0
H842 H 0.52415 1.00062 0.35712 0.0
C843 C 0.5334 0.99757 0.43877 0.0
C844 C 0.55577 0.98947 0.45426 0.0
C845 C 0.58985 0.97972 0.44948 0.0
C846 C 0.60175 0.97851 0.4295 0.0
C847 C 0.57896 0.98666 0.41454 0.0
C848 C 0.54532 0.99563 0.41896 0.0
C849 C 0.52502 1.0014 0.40017 0.0
C850 C 0.48634 0.9705 0.39767 0.0
C851 C 0.52099 0.04395 0.40015 0.0
C852 C 0.5524 0.99421 0.38442 0.0
C853 C 0.58359 0.98623 0.39295 0.0
C854 C 0.61293 0.97923 0.38128 0.0
C855 C 0.61006 0.98008 0.36034 0.0
C856 C 0.57786 0.98726 0.35137 0.0
C857 C 0.54885 0.99457 0.36362 0.0
H858 H 0.61693 0.566 0.77185 0.0
H859 H 0.5256 0.46428 0.78631 0.0
H860 H 0.51086 0.44829 0.75024 0.0
H861 H 0.56966 0.59303 0.72838 0.0
H862 H 0.61281 0.60712 0.71442 0.0
H863 H 0.61435 0.61242 0.74143 0.0
H864 H 0.66169 0.56951 0.74215 0.0
H865 H 0.66027 0.56401 0.71519 0.0
H866 H 0.64927 0.52064 0.72966 0.0
H867 H 0.5093 0.4402 0.71293 0.0
H868 H 0.52007 0.44122 0.67644 0.0
H869 H 0.61182 0.54867 0.68587 0.0
C870 C 0.59354 0.54067 0.7674 0.0
C871 C 0.57234 0.51634 0.78179 0.0
C872 C 0.5421 0.48331 0.77547 0.0
C873 C 0.5335 0.47405 0.75504 0.0
C874 C 0.55525 0.49829 0.74118 0.0
C875 C 0.5845 0.53107 0.74705 0.0
C876 C 0.60448 0.55119 0.72905 0.0
C877 C 0.60004 0.59345 0.72828 0.0
C878 C 0.6464 0.55132 0.72902 0.0
C879 C 0.58248 0.52401 0.71216 0.0
C880 C 0.55408 0.49384 0.71952 0.0
C881 C 0.53117 0.46389 0.70696 0.0
C882 C 0.53762 0.46459 0.6863 0.0
C883 C 0.56672 0.49503 0.67842 0.0
C884 C 0.58907 0.5254 0.69152 0.0
H885 H 0.60042 0.97907 0.58287 0.0
H886 H 0.5149 0.0335 0.56301 0.0
H887 H 0.49434 0.03963 0.59804 0.0
H888 H 0.54487 0.92392 0.62302 0.0
H889 H 0.5854 0.93235 0.63952 0.0
H890 H 0.59126 0.92926 0.61273 0.0
H891 H 0.64023 0.99826 0.61506 0.0
H892 H 0.63452 1.00157 0.64181 0.0
H893 H 0.62723 0.04015 0.6269 0.0
H894 H 0.48663 0.04472 0.63527 0.0
H895 H 0.49178 0.04788 0.67224 0.0
H896 H 0.58195 0.98961 0.66795 0.0
C897 C 0.57703 0.99179 0.58589 0.0
C898 C 0.55918 1.00583 0.5703 0.0
C899 C 0.52889 0.02256 0.57478 0.0
C900 C 0.51699 0.02606 0.5946 0.0
C901 C 0.53554 0.01246 0.60969 0.0
C902 C 0.56479 0.99547 0.60558 0.0
C903 C 0.58122 0.98503 0.62464 0.0
C904 C 0.57532 0.93996 0.62499 0.0
C905 C 0.62328 1.00761 0.62725 0.0
C906 C 0.55721 0.99962 0.64016 0.0
C907 C 0.53088 0.0151 0.6312 0.0
C908 C 0.50685 0.03231 0.64245 0.0
C909 C 0.51009 0.03414 0.66341 0.0
C910 C 0.53715 0.01887 0.67289 0.0
C911 C 0.56058 1.00088 0.66108 0.0
H912 H 0.50426 0.4755 0.90642 0.0
H913 H 0.60194 0.5721 0.8937 0.0
H914 H 0.61848 0.58232 0.92986 0.0
H915 H 0.47863 0.51997 0.95161 0.0
H916 H 0.46422 0.47426 0.96417 0.0
H917 H 0.46106 0.4734 0.93725 0.0
H918 H 0.50233 0.42399 0.93417 0.0
H919 H 0.50553 0.42461 0.9611 0.0
H920 H 0.548 0.43667 0.9465 0.0
H921 H 0.62311 0.58332 0.96747 0.0
H922 H 0.61538 0.57546 0.00383 0.0
H923 H 0.51489 0.47772 0.99198 0.0
C924 C 0.52924 0.49865 0.91125 0.0
C925 C 0.55184 0.52308 0.89733 0.0
C926 C 0.58425 0.55312 0.90417 0.0
C927 C 0.59388 0.55909 0.92465 0.0
C928 C 0.57083 0.5347 0.93804 0.0
C929 C 0.53922 0.50504 0.93163 0.0
C930 C 0.5187 0.48356 0.94913 0.0
C931 C 0.47826 0.48809 0.95063 0.0
C932 C 0.51865 0.4396 0.94763 0.0
C933 C 0.54345 0.50609 0.96642 0.0
C934 C 0.57348 0.5353 0.95969 0.0
C935 C 0.59986 0.56034 0.9729 0.0
C936 C 0.59533 0.5555 0.99353 0.0
C937 C 0.56461 0.52589 0.0008 0.0
C938 C 0.5385 0.50084 0.98695 0.0
H939 H 1.05593 0.57435 0.22703 0.0
H940 H 0.09051 0.4718 0.20349 0.0
H941 H 0.09266 0.45 0.23796 0.0
H942 H 0.11782 0.59444 0.26956 0.0
H943 H 0.08525 0.61099 0.28585 0.0
H944 H 0.08353 0.61651 0.25927 0.0
H945 H 1.01269 0.57729 0.25813 0.0
H946 H 1.01417 0.57167 0.28472 0.0
H947 H 0.99857 0.52848 0.26767 0.0
H948 H 0.09069 0.43968 0.2753 0.0
H949 H 0.08994 0.44463 0.3125 0.0
H950 H 0.06148 0.55664 0.3112 0.0
C951 C 0.06359 0.54708 0.2291 0.0
C952 C 0.0724 0.52431 0.21262 0.0
C953 C 0.08304 0.48927 0.21594 0.0
C954 C 0.0844 0.47673 0.23544 0.0
C955 C 0.07559 0.49996 0.25141 0.0
C956 C 0.0658 0.53463 0.24843 0.0
C957 C 1.05986 0.55559 0.26811 0.0
C958 C 0.08832 0.59681 0.27085 0.0
C959 C 1.01888 0.5584 0.26975 0.0
C960 C 0.06788 0.52737 0.28267 0.0
C961 C 0.07639 0.49515 0.27279 0.0
C962 C 0.08422 0.46485 0.28318 0.0
C963 C 0.08366 0.46782 0.30423 0.0
C964 C 0.07594 0.50112 0.31454 0.0
C965 C 0.06785 0.5311 0.3036 0.0
loop_
_geom_bond_atom_site_label_1
_geom_bond_atom_site_label_2
_geom_bond_distance
_geom_bond_site_symmetry_2
_ccdc_geom_bond_type
Nd0 C2 2.836 . S
Nd0 O20 2.500 . S
Nd0 O21 2.492 . S
Nd0 O22 2.487 . S
Nd0 O23 2.682 . S
Nd0 O24 2.410 . S
Nd0 O29 2.414 . S
Nd0 O31 2.424 1_455 S
Nd1 C11 2.836 . S
Nd1 O23 2.414 1_655 S
Nd1 O25 2.424 1_655 S
Nd1 O26 2.500 . S
Nd1 O27 2.492 . S
Nd1 O28 2.487 1_655 S
Nd1 O29 2.682 1_655 S
Nd1 O30 2.410 . S
C2 Nd0 2.836 . S
C2 C3 1.498 . S
C2 O20 1.258 . S
C2 O21 1.239 . S
C3 C2 1.498 . S
C3 C4 1.366 . S
C3 C8 1.407 . S
C4 C3 1.366 . S
C4 C5 1.392 . S
C4 H32 0.930 . S
C5 C4 1.392 . S
C5 C6 1.398 . S
C5 H33 0.929 . S
C6 C5 1.398 . S
C6 C7 1.352 . S
C7 C6 1.352 . S
C7 C8 1.384 . S
C7 H34 0.930 . S
C8 C3 1.407 . S
C8 C7 1.384 . S
C8 H35 0.929 . S
C9 O22 1.241 . S
C9 O23 1.273 . S
C10 O24 1.251 . S
C10 O25 1.268 . S
C11 Nd1 2.836 . S
C11 C12 1.498 . S
C11 O26 1.258 . S
C11 O27 1.239 . S
C12 C11 1.498 . S
C12 C13 1.366 . S
C12 C17 1.407 . S
C13 C12 1.366 . S
C13 C14 1.392 . S
C13 H36 0.930 . S
C14 C13 1.392 . S
C14 C15 1.398 . S
C14 H37 0.929 . S
C15 C14 1.398 . S
C15 C16 1.352 . S
C16 C15 1.352 . S
C16 C17 1.384 . S
C16 H38 0.930 . S
C17 C12 1.407 . S
C17 C16 1.384 . S
C17 H39 0.929 . S
C18 O28 1.241 . S
C18 O29 1.273 . S
C19 O30 1.251 . S
C19 O31 1.268 . S
O20 Nd0 2.500 . S
O20 C2 1.258 . S
O21 Nd0 2.492 . S
O21 C2 1.239 . S
O22 Nd0 2.487 . S
O22 C9 1.241 . S
O23 Nd0 2.682 . S
O23 Nd1 2.414 1_455 S
O23 C9 1.273 . S
O24 Nd0 2.410 . S
O24 C10 1.251 . S
O25 Nd1 2.424 1_455 S
O25 C10 1.268 . S
O26 Nd1 2.500 . S
O26 C11 1.258 . S
O27 Nd1 2.492 . S
O27 C11 1.239 . S
O28 Nd1 2.487 1_455 S
O28 C18 1.241 . S
O29 Nd0 2.414 . S
O29 Nd1 2.682 1_455 S
O29 C18 1.273 . S
O30 Nd1 2.410 . S
O30 C19 1.251 . S
O31 Nd0 2.424 1_655 S
O31 C19 1.268 . S
H32 C4 0.930 . S
H33 C5 0.929 . S
H34 C7 0.930 . S
H35 C8 0.929 . S
H36 C13 0.930 . S
H37 C14 0.929 . S
H38 C16 0.930 . S
H39 C17 0.929 . S
Nd40 C42 2.824 1_545 S
Nd40 O60 2.488 1_545 S
Nd40 O61 2.482 1_545 S
Nd40 O62 2.487 1_545 S
Nd40 O63 2.683 . S
Nd40 O64 2.393 1_545 S
Nd40 O69 2.412 . S
Nd40 O71 2.441 . S
Nd41 C51 2.836 . S
Nd41 O63 2.414 . S
Nd41 O65 2.424 1_545 S
Nd41 O66 2.500 . S
Nd41 O67 2.492 . S
Nd41 O68 2.487 . S
Nd41 O69 2.682 . S
Nd41 O70 2.410 . S
C42 Nd40 2.824 1_565 S
C42 C43 1.498 . S
C42 O60 1.258 . S
C42 O61 1.239 . S
C43 C42 1.498 . S
C43 C44 1.366 . S
C43 C48 1.407 . S
C44 C43 1.366 . S
C44 C45 1.392 . S
C44 H72 0.930 . S
C45 C44 1.392 . S
C45 C46 1.398 . S
C45 H73 0.929 . S
C46 C45 1.398 . S
C46 C47 1.352 . S
C47 C46 1.352 . S
C47 C48 1.384 . S
C47 H74 0.930 . S
C48 C43 1.407 . S
C48 C47 1.384 . S
C48 H75 0.929 . S
C49 O62 1.241 1_545 S
C49 O63 1.273 . S
C50 O64 1.251 . S
C50 O65 1.268 . S
C51 Nd41 2.836 . S
C51 C52 1.498 . S
C51 O66 1.258 . S
C51 O67 1.239 . S
C52 C51 1.498 . S
C52 C53 1.366 . S
C52 C57 1.407 . S
C53 C52 1.366 . S
C53 C54 1.392 . S
C53 H76 0.930 . S
C54 C53 1.392 . S
C54 C55 1.398 . S
C54 H77 0.929 . S
C55 C54 1.398 . S
C55 C56 1.352 . S
C56 C55 1.352 . S
C56 C57 1.384 . S
C56 H78 0.930 . S
C57 C52 1.407 . S
C57 C56 1.384 . S
C57 H79 0.929 . S
C58 O68 1.241 . S
C58 O69 1.273 . S
C59 O70 1.251 . S
C59 O71 1.268 . S
O60 Nd40 2.488 1_565 S
O60 C42 1.258 . S
O61 Nd40 2.482 1_565 S
O61 C42 1.239 . S
O62 Nd40 2.487 1_565 S
O62 C49 1.241 1_565 S
O63 Nd40 2.683 . S
O63 Nd41 2.414 . S
O63 C49 1.273 . S
O64 Nd40 2.393 1_565 S
O64 C50 1.251 . S
O65 Nd41 2.424 1_565 S
O65 C50 1.268 . S
O66 Nd41 2.500 . S
O66 C51 1.258 . S
O67 Nd41 2.492 . S
O67 C51 1.239 . S
O68 Nd41 2.487 . S
O68 C58 1.241 . S
O69 Nd40 2.412 . S
O69 Nd41 2.682 . S
O69 C58 1.273 . S
O70 Nd41 2.410 . S
O70 C59 1.251 . S
O71 Nd40 2.441 . S
O71 C59 1.268 . S
H72 C44 0.930 . S
H73 C45 0.929 . S
H74 C47 0.930 . S
H75 C48 0.929 . S
H76 C53 0.930 . S
H77 C54 0.929 . S
H78 C56 0.930 . S
H79 C57 0.929 . S
Nd80 C82 2.836 . S
Nd80 O100 2.500 . S
Nd80 O101 2.492 . S
Nd80 O102 2.487 . S
Nd80 O103 2.682 . S
Nd80 O104 2.410 . S
Nd80 O109 2.414 . S
Nd80 O111 2.424 . S
Nd81 C91 2.836 . S
Nd81 O103 2.414 . S
Nd81 O105 2.424 . S
Nd81 O106 2.500 . S
Nd81 O107 2.492 . S
Nd81 O108 2.487 . S
Nd81 O109 2.682 . S
Nd81 O110 2.410 . S
C82 Nd80 2.836 . S
C82 C83 1.498 . S
C82 O100 1.258 . S
C82 O101 1.239 . S
C83 C82 1.498 . S
C83 C84 1.366 . S
C83 C88 1.407 . S
C84 C83 1.366 . S
C84 C85 1.392 . S
C84 H112 0.930 . S
C85 C84 1.392 . S
C85 C86 1.398 . S
C85 H113 0.929 . S
C86 C85 1.398 . S
C86 C87 1.352 . S
C87 C86 1.352 . S
C87 C88 1.384 . S
C87 H114 0.930 . S
C88 C83 1.407 . S
C88 C87 1.384 . S
C88 H115 0.929 . S
C89 O102 1.241 . S
C89 O103 1.273 . S
C90 O104 1.251 . S
C90 O105 1.268 . S
C91 Nd81 2.836 . S
C91 C92 1.498 . S
C91 O106 1.258 . S
C91 O107 1.239 . S
C92 C91 1.498 . S
C92 C93 1.366 . S
C92 C97 1.407 . S
C93 C92 1.366 . S
C93 C94 1.392 . S
C93 H116 0.930 . S
C94 C93 1.392 . S
C94 C95 1.398 . S
C94 H117 0.929 . S
C95 C94 1.398 . S
C95 C96 1.352 . S
C96 C95 1.352 . S
C96 C97 1.384 . S
C96 H118 0.930 . S
C97 C92 1.407 . S
C97 C96 1.384 . S
C97 H119 0.929 . S
C98 O108 1.241 . S
C98 O109 1.273 . S
C99 O110 1.251 . S
C99 O111 1.268 . S
O100 Nd80 2.500 . S
O100 C82 1.258 . S
O101 Nd80 2.492 . S
O101 C82 1.239 . S
O102 Nd80 2.487 . S
O102 C89 1.241 . S
O103 Nd80 2.682 . S
O103 Nd81 2.414 . S
O103 C89 1.273 . S
O104 Nd80 2.410 . S
O104 C90 1.251 . S
O105 Nd81 2.424 . S
O105 C90 1.268 . S
O106 Nd81 2.500 . S
O106 C91 1.258 . S
O107 Nd81 2.492 . S
O107 C91 1.239 . S
O108 Nd81 2.487 . S
O108 C98 1.241 . S
O109 Nd80 2.414 . S
O109 Nd81 2.682 . S
O109 C98 1.273 . S
O110 Nd81 2.410 . S
O110 C99 1.251 . S
O111 Nd80 2.424 . S
O111 C99 1.268 . S
H112 C84 0.930 . S
H113 C85 0.929 . S
H114 C87 0.930 . S
H115 C88 0.929 . S
H116 C93 0.930 . S
H117 C94 0.929 . S
H118 C96 0.930 . S
H119 C97 0.929 . S
C120 C121 1.391 . S
C120 C124 1.391 . S
C120 H162 0.948 . S
C121 C120 1.391 . S
C121 C122 1.391 . S
C122 C121 1.391 . S
C122 H178 0.947 . S
C122 C179 1.392 . S
C123 C124 1.391 . S
C123 C127 1.397 . S
C123 C179 1.419 . S
C124 C120 1.391 . S
C124 C123 1.391 . S
C124 C125 1.399 . S
C125 C124 1.399 . S
C125 C128 1.396 . S
C125 C137 1.453 . S
C125 C138 1.684 . S
H126 C150 0.948 . S
C127 C123 1.397 . S
C127 C128 1.394 . S
C127 C146 1.723 . S
C128 C125 1.396 . S
C128 C127 1.394 . S
C128 C158 1.723 1_545 S
H129 C152 0.947 . S
H130 C153 0.948 . S
H131 C159 0.982 . S
H132 C160 0.979 . S
H133 C160 0.980 . S
H134 C160 0.983 . S
H135 C159 0.979 . S
H136 C159 0.977 . S
C137 C125 1.453 . S
C137 H166 0.982 . S
C137 H167 0.979 . S
C137 H168 0.977 1_545 S
C138 C125 1.684 . S
C138 H163 0.979 . S
C138 H164 0.980 . S
C138 H165 0.983 . S
C139 C140 1.391 . S
C139 C144 1.391 . S
C139 H169 0.948 . S
C140 C139 1.391 . S
C140 C141 1.391 . S
C141 C140 1.391 . S
C141 C142 1.391 1_545 S
C141 H170 0.947 1_545 S
C142 C141 1.391 1_565 S
C142 C143 1.409 1_565 S
C142 H171 0.959 . S
C143 C142 1.409 1_545 S
C143 C144 1.391 . S
C143 C147 1.397 . S
C144 C139 1.391 . S
C144 C143 1.391 . S
C144 C145 1.399 . S
C145 C144 1.399 . S
C145 C146 1.396 . S
C145 C148 1.453 . S
C145 C149 1.684 . S
C146 C127 1.723 . S
C146 C145 1.396 . S
C146 C147 1.394 . S
C147 C143 1.397 . S
C147 C146 1.394 . S
C147 C157 1.723 1_545 S
C148 C145 1.453 . S
C148 H172 0.982 . S
C148 H173 0.979 . S
C148 H174 0.977 . S
C149 C145 1.684 . S
C149 H175 0.979 . S
C149 H176 0.980 . S
C149 H177 0.983 . S
C150 H126 0.948 . S
C150 C151 1.391 . S
C150 C155 1.391 . S
C151 C150 1.391 . S
C151 C152 1.391 . S
C152 H129 0.947 . S
C152 C151 1.391 . S
C152 C153 1.392 . S
C153 H130 0.948 . S
C153 C152 1.392 . S
C153 C154 1.419 . S
C154 C153 1.419 . S
C154 C155 1.391 . S
C154 C158 1.397 . S
C155 C150 1.391 . S
C155 C154 1.391 . S
C155 C156 1.399 . S
C156 C155 1.399 . S
C156 C157 1.396 . S
C156 C159 1.453 . S
C156 C160 1.684 . S
C157 C147 1.723 1_565 S
C157 C156 1.396 . S
C157 C158 1.394 . S
C158 C128 1.723 1_565 S
C158 C154 1.397 . S
C158 C157 1.394 . S
C159 H131 0.982 . S
C159 H135 0.979 . S
C159 H136 0.977 . S
C159 C156 1.453 . S
C160 H132 0.979 . S
C160 H133 0.980 . S
C160 H134 0.983 . S
C160 C156 1.684 . S
H161 C179 0.948 . S
H162 C120 0.948 . S
H163 C138 0.979 . S
H164 C138 0.980 . S
H165 C138 0.983 . S
H166 C137 0.982 . S
H167 C137 0.979 . S
H168 C137 0.977 1_565 S
H169 C139 0.948 . S
H170 C141 0.947 1_565 S
H171 C142 0.959 . S
H172 C148 0.982 . S
H173 C148 0.979 . S
H174 C148 0.977 . S
H175 C149 0.979 . S
H176 C149 0.980 . S
H177 C149 0.983 . S
H178 C122 0.947 . S
C179 C122 1.392 . S
C179 C123 1.419 . S
C179 H161 0.948 . S
C180 C181 1.391 . S
C180 C184 1.391 . S
C180 H222 0.948 . S
C181 C180 1.391 . S
C181 C182 1.391 . S
C182 C181 1.391 . S
C182 H238 0.947 . S
C182 C239 1.392 . S
C183 C184 1.391 . S
C183 C187 1.397 . S
C183 C239 1.419 . S
C184 C180 1.391 . S
C184 C183 1.391 . S
C184 C185 1.399 . S
C185 C184 1.399 . S
C185 C188 1.396 . S
C185 C197 1.453 . S
C185 C198 1.684 . S
H186 C210 0.948 . S
C187 C183 1.397 . S
C187 C188 1.394 . S
C187 C206 1.723 . S
C188 C185 1.396 . S
C188 C187 1.394 . S
C188 C218 1.723 . S
H189 C212 0.947 . S
H190 C213 0.948 . S
H191 C219 0.982 . S
H192 C220 0.979 . S
H193 C220 0.980 . S
H194 C220 0.983 . S
H195 C219 0.979 . S
H196 C219 0.977 . S
C197 C185 1.453 . S
C197 H226 0.982 . S
C197 H227 0.979 . S
C197 H228 0.977 . S
C198 C185 1.684 . S
C198 H223 0.979 . S
C198 H224 0.980 . S
C198 H225 0.983 . S
C199 C200 1.391 . S
C199 C204 1.391 . S
C199 H229 0.948 . S
C200 C199 1.391 . S
C200 C201 1.391 . S
C201 C200 1.391 . S
C201 C202 1.392 . S
C201 H230 0.947 . S
C202 C201 1.392 . S
C202 C203 1.419 . S
C202 H231 0.948 . S
C203 C202 1.419 . S
C203 C204 1.391 . S
C203 C207 1.397 . S
C204 C199 1.391 . S
C204 C203 1.391 . S
C204 C205 1.399 . S
C205 C204 1.399 . S
C205 C206 1.396 . S
C205 C208 1.453 . S
C205 C209 1.684 . S
C206 C187 1.723 . S
C206 C205 1.396 . S
C206 C207 1.394 . S
C207 C203 1.397 . S
C207 C206 1.394 . S
C207 C217 1.723 . S
C208 C205 1.453 . S
C208 H232 0.982 . S
C208 H233 0.979 . S
C208 H234 0.977 . S
C209 C205 1.684 . S
C209 H235 0.979 . S
C209 H236 0.980 . S
C209 H237 0.983 . S
C210 H186 0.948 . S
C210 C211 1.391 . S
C210 C215 1.391 . S
C211 C210 1.391 . S
C211 C212 1.391 . S
C212 H189 0.947 . S
C212 C211 1.391 . S
C212 C213 1.392 . S
C213 H190 0.948 . S
C213 C212 1.392 . S
C213 C214 1.419 . S
C214 C213 1.419 . S
C214 C215 1.391 . S
C214 C218 1.397 . S
C215 C210 1.391 . S
C215 C214 1.391 . S
C215 C216 1.399 . S
C216 C215 1.399 . S
C216 C217 1.396 . S
C216 C219 1.453 . S
C216 C220 1.684 . S
C217 C207 1.723 . S
C217 C216 1.396 . S
C217 C218 1.394 . S
C218 C188 1.723 . S
C218 C214 1.397 . S
C218 C217 1.394 . S
C219 H191 0.982 . S
C219 H195 0.979 . S
C219 H196 0.977 . S
C219 C216 1.453 . S
C220 H192 0.979 . S
C220 H193 0.980 . S
C220 H194 0.983 . S
C220 C216 1.684 . S
H221 C239 0.948 . S
H222 C180 0.948 . S
H223 C198 0.979 . S
H224 C198 0.980 . S
H225 C198 0.983 . S
H226 C197 0.982 . S
H227 C197 0.979 . S
H228 C197 0.977 . S
H229 C199 0.948 . S
H230 C201 0.947 . S
H231 C202 0.948 . S
H232 C208 0.982 . S
H233 C208 0.979 . S
H234 C208 0.977 . S
H235 C209 0.979 . S
H236 C209 0.980 . S
H237 C209 0.983 . S
H238 C182 0.947 . S
C239 C182 1.392 . S
C239 C183 1.419 . S
C239 H221 0.948 . S
C240 C241 1.391 . S
C240 C244 1.391 . S
C240 H282 0.948 . S
C241 C240 1.391 . S
C241 C242 1.391 . S
C242 C241 1.391 . S
C242 H298 0.947 . S
C242 C299 1.392 . S
C243 C244 1.391 . S
C243 C247 1.397 . S
C243 C299 1.419 . S
C244 C240 1.391 . S
C244 C243 1.391 . S
C244 C245 1.399 . S
C245 C244 1.399 . S
C245 C248 1.396 . S
C245 C257 1.453 . S
C245 C258 1.684 . S
H246 C270 0.948 . S
C247 C243 1.397 . S
C247 C248 1.394 . S
C247 C266 1.723 . S
C248 C245 1.396 . S
C248 C247 1.394 . S
C248 C278 1.723 . S
H249 C272 0.947 . S
H250 C273 0.948 . S
H251 C279 0.982 . S
H252 C280 0.979 . S
H253 C280 0.980 . S
H254 C280 0.983 . S
H255 C279 0.979 . S
H256 C279 0.977 . S
C257 C245 1.453 . S
C257 H286 0.982 . S
C257 H287 0.979 . S
C257 H288 0.977 . S
C258 C245 1.684 . S
C258 H283 0.979 . S
C258 H284 0.980 . S
C258 H285 0.983 . S
C259 C260 1.391 . S
C259 C264 1.391 . S
C259 H289 0.948 . S
C260 C259 1.391 . S
C260 C261 1.391 1_455 S
C261 C260 1.391 1_655 S
C261 C262 1.392 . S
C261 H290 0.947 . S
C262 C261 1.392 . S
C262 C263 1.419 1_655 S
C262 H291 0.948 . S
C263 C262 1.419 1_455 S
C263 C264 1.391 . S
C263 C267 1.397 . S
C264 C259 1.391 . S
C264 C263 1.391 . S
C264 C265 1.399 . S
C265 C264 1.399 . S
C265 C266 1.396 . S
C265 C268 1.453 . S
C265 C269 1.684 . S
C266 C247 1.723 . S
C266 C265 1.396 . S
C266 C267 1.394 . S
C267 C263 1.397 . S
C267 C266 1.394 . S
C267 C277 1.723 1_455 S
C268 C265 1.453 . S
C268 H292 0.982 . S
C268 H293 0.979 . S
C268 H294 0.977 . S
C269 C265 1.684 . S
C269 H295 0.979 . S
C269 H296 0.980 . S
C269 H297 0.983 . S
C270 H246 0.948 . S
C270 C271 1.391 . S
C270 C275 1.391 . S
C271 C270 1.391 . S
C271 C272 1.391 . S
C272 H249 0.947 . S
C272 C271 1.391 . S
C272 C273 1.392 . S
C273 H250 0.948 . S
C273 C272 1.392 . S
C273 C274 1.419 . S
C274 C273 1.419 . S
C274 C275 1.391 . S
C274 C278 1.397 1_655 S
C275 C270 1.391 . S
C275 C274 1.391 . S
C275 C276 1.399 . S
C276 C275 1.399 . S
C276 C277 1.396 . S
C276 C279 1.453 . S
C276 C280 1.684 . S
C277 C267 1.723 1_655 S
C277 C276 1.396 . S
C277 C278 1.394 1_655 S
C278 C248 1.723 . S
C278 C274 1.397 1_455 S
C278 C277 1.394 1_455 S
C279 H251 0.982 . S
C279 H255 0.979 . S
C279 H256 0.977 . S
C279 C276 1.453 . S
C280 H252 0.979 . S
C280 H253 0.980 . S
C280 H254 0.983 . S
C280 C276 1.684 . S
H281 C299 0.948 . S
H282 C240 0.948 . S
H283 C258 0.979 . S
H284 C258 0.980 . S
H285 C258 0.983 . S
H286 C257 0.982 . S
H287 C257 0.979 . S
H288 C257 0.977 . S
H289 C259 0.948 . S
H290 C261 0.947 . S
H291 C262 0.948 . S
H292 C268 0.982 . S
H293 C268 0.979 . S
H294 C268 0.977 . S
H295 C269 0.979 . S
H296 C269 0.980 . S
H297 C269 0.983 . S
H298 C242 0.947 . S
C299 C242 1.392 . S
C299 C243 1.419 . S
C299 H281 0.948 . S
C300 C301 1.391 . S
C300 C304 1.391 . S
C300 H342 0.948 . S
C301 C300 1.391 . S
C301 C302 1.391 . S
C302 C301 1.391 . S
C302 H358 0.947 . S
C302 C359 1.392 . S
C303 C304 1.391 . S
C303 C307 1.397 . S
C303 C359 1.419 . S
C304 C300 1.391 . S
C304 C303 1.391 . S
C304 C305 1.399 . S
C305 C304 1.399 . S
C305 C308 1.396 . S
C305 C317 1.453 . S
C305 C318 1.684 . S
H306 C330 0.948 . S
C307 C303 1.397 . S
C307 C308 1.394 . S
C307 C326 1.723 . S
C308 C305 1.396 . S
C308 C307 1.394 . S
C308 C338 1.723 1_655 S
H309 C332 0.947 . S
H310 C333 0.948 . S
H311 C339 0.982 . S
H312 C340 0.979 . S
H313 C340 0.980 . S
H314 C340 0.983 . S
H315 C339 0.979 . S
H316 C339 0.977 . S
C317 C305 1.453 . S
C317 H346 0.982 1_655 S
C317 H347 0.979 . S
C317 H348 0.977 1_655 S
C318 C305 1.684 . S
C318 H343 0.979 . S
C318 H344 0.980 . S
C318 H345 0.983 . S
C319 C320 1.391 1_655 S
C319 C324 1.391 . S
C319 H349 0.948 . S
C320 C319 1.391 1_455 S
C320 C321 1.391 . S
C321 C320 1.391 . S
C321 C322 1.392 . S
C321 H350 0.947 . S
C322 C321 1.392 . S
C322 C323 1.419 . S
C322 H351 0.948 . S
C323 C322 1.419 . S
C323 C324 1.391 1_455 S
C323 C327 1.397 . S
C324 C319 1.391 . S
C324 C323 1.391 1_655 S
C324 C325 1.399 . S
C325 C324 1.399 . S
C325 C326 1.396 . S
C325 C328 1.453 . S
C325 C329 1.684 . S
C326 C307 1.723 . S
C326 C325 1.396 . S
C326 C327 1.394 1_655 S
C327 C323 1.397 . S
C327 C326 1.394 1_455 S
C327 C337 1.723 . S
C328 C325 1.453 . S
C328 H352 0.982 . S
C328 H353 0.979 . S
C328 H354 0.977 . S
C329 C325 1.684 . S
C329 H355 0.979 . S
C329 H356 0.980 . S
C329 H357 0.983 . S
C330 H306 0.948 . S
C330 C331 1.391 . S
C330 C335 1.391 . S
C331 C330 1.391 . S
C331 C332 1.391 . S
C332 H309 0.947 . S
C332 C331 1.391 . S
C332 C333 1.392 . S
C333 H310 0.948 . S
C333 C332 1.392 . S
C333 C334 1.419 . S
C334 C333 1.419 . S
C334 C335 1.391 . S
C334 C338 1.397 . S
C335 C330 1.391 . S
C335 C334 1.391 . S
C335 C336 1.399 . S
C336 C335 1.399 . S
C336 C337 1.396 . S
C336 C339 1.453 . S
C336 C340 1.684 . S
C337 C327 1.723 . S
C337 C336 1.396 . S
C337 C338 1.394 . S
C338 C308 1.723 1_455 S
C338 C334 1.397 . S
C338 C337 1.394 . S
C339 H311 0.982 . S
C339 H315 0.979 . S
C339 H316 0.977 . S
C339 C336 1.453 . S
C340 H312 0.979 . S
C340 H313 0.980 . S
C340 H314 0.983 . S
C340 C336 1.684 . S
H341 C359 0.948 . S
H342 C300 0.948 . S
H343 C318 0.979 . S
H344 C318 0.980 . S
H345 C318 0.983 . S
H346 C317 0.982 1_455 S
H347 C317 0.979 . S
H348 C317 0.977 1_455 S
H349 C319 0.948 . S
H350 C321 0.947 . S
H351 C322 0.948 . S
H352 C328 0.982 . S
H353 C328 0.979 . S
H354 C328 0.977 . S
H355 C329 0.979 . S
H356 C329 0.980 . S
H357 C329 0.983 . S
H358 C302 0.947 . S
C359 C302 1.392 . S
C359 C303 1.419 . S
C359 H341 0.948 . S
C360 C361 1.391 . S
C360 C364 1.391 . S
C360 H402 0.948 . S
C361 C360 1.391 . S
C361 C362 1.391 . S
C362 C361 1.391 . S
C362 H418 0.947 . S
C362 C419 1.392 . S
C363 C364 1.391 . S
C363 C367 1.397 . S
C363 C419 1.419 . S
C364 C360 1.391 . S
C364 C363 1.391 . S
C364 C365 1.399 . S
C365 C364 1.399 . S
C365 C368 1.396 . S
C365 C377 1.445 1_565 S
C365 C378 1.684 . S
H366 C390 0.948 . S
C367 C363 1.397 . S
C367 C368 1.394 . S
C367 C386 1.723 . S
C368 C365 1.396 . S
C368 C367 1.394 . S
C368 C398 1.723 1_565 S
H369 C392 0.947 . S
H370 C393 0.948 . S
H371 C399 0.982 . S
H372 C400 0.979 . S
H373 C400 0.980 . S
H374 C400 0.983 . S
H375 C399 0.979 . S
H376 C399 0.977 . S
C377 C365 1.445 1_545 S
C377 H406 0.978 . S
C377 H407 0.965 1_545 S
C377 H408 1.004 . S
C378 C365 1.684 . S
C378 H403 0.979 . S
C378 H404 0.980 1_565 S
C378 H405 0.983 . S
C379 C380 1.391 1_565 S
C379 C384 1.391 . S
C379 H409 0.948 . S
C380 C379 1.391 1_545 S
C380 C381 1.391 . S
C381 C380 1.391 . S
C381 C382 1.392 . S
C381 H410 0.947 . S
C382 C381 1.392 . S
C382 C383 1.419 . S
C382 H411 0.948 . S
C383 C382 1.419 . S
C383 C384 1.391 1_545 S
C383 C387 1.397 . S
C384 C379 1.391 . S
C384 C383 1.391 1_565 S
C384 C385 1.399 . S
C385 C384 1.399 . S
C385 C386 1.396 . S
C385 C388 1.453 . S
C385 C389 1.684 . S
C386 C367 1.723 . S
C386 C385 1.396 . S
C386 C387 1.394 1_565 S
C387 C383 1.397 . S
C387 C386 1.394 1_545 S
C387 C397 1.723 . S
C388 C385 1.453 . S
C388 H412 0.982 . S
C388 H413 0.979 . S
C388 H414 0.977 . S
C389 C385 1.684 . S
C389 H415 0.979 . S
C389 H416 0.980 . S
C389 H417 0.983 . S
C390 H366 0.948 . S
C390 C391 1.391 . S
C390 C395 1.391 . S
C391 C390 1.391 . S
C391 C392 1.391 . S
C392 H369 0.947 . S
C392 C391 1.391 . S
C392 C393 1.392 . S
C393 H370 0.948 . S
C393 C392 1.392 . S
C393 C394 1.419 . S
C394 C393 1.419 . S
C394 C395 1.391 . S
C394 C398 1.397 . S
C395 C390 1.391 . S
C395 C394 1.391 . S
C395 C396 1.399 . S
C396 C395 1.399 . S
C396 C397 1.396 . S
C396 C399 1.453 . S
C396 C400 1.684 . S
C397 C387 1.723 . S
C397 C396 1.396 . S
C397 C398 1.394 . S
C398 C368 1.723 1_545 S
C398 C394 1.397 . S
C398 C397 1.394 . S
C399 H371 0.982 . S
C399 H375 0.979 . S
C399 H376 0.977 . S
C399 C396 1.453 . S
C400 H372 0.979 . S
C400 H373 0.980 . S
C400 H374 0.983 . S
C400 C396 1.684 . S
H401 C419 0.948 . S
H402 C360 0.948 . S
H403 C378 0.979 . S
H404 C378 0.980 1_545 S
H405 C378 0.983 . S
H406 C377 0.978 . S
H407 C377 0.965 1_565 S
H408 C377 1.004 . S
H409 C379 0.948 . S
H410 C381 0.947 . S
H411 C382 0.948 . S
H412 C388 0.982 . S
H413 C388 0.979 . S
H414 C388 0.977 . S
H415 C389 0.979 . S
H416 C389 0.980 . S
H417 C389 0.983 . S
H418 C362 0.947 . S
C419 C362 1.392 . S
C419 C363 1.419 . S
C419 H401 0.948 . S
C420 C421 1.391 . S
C420 C424 1.391 . S
C420 H462 0.948 . S
C421 C420 1.391 . S
C421 C422 1.391 . S
C422 C421 1.391 . S
C422 H478 0.947 . S
C422 C479 1.392 . S
C423 C424 1.391 . S
C423 C427 1.397 . S
C423 C479 1.419 . S
C424 C420 1.391 . S
C424 C423 1.391 . S
C424 C425 1.399 . S
C425 C424 1.399 . S
C425 C428 1.396 . S
C425 C437 1.453 . S
C425 C438 1.684 . S
H426 C450 0.948 . S
C427 C423 1.397 . S
C427 C428 1.394 . S
C427 C446 1.723 . S
C428 C425 1.396 . S
C428 C427 1.394 . S
C428 C458 1.723 . S
H429 C452 0.947 . S
H430 C453 0.948 . S
H431 C459 0.982 . S
H432 C460 0.979 . S
H433 C460 0.980 . S
H434 C460 0.983 . S
H435 C459 0.979 . S
H436 C459 0.977 . S
C437 C425 1.453 . S
C437 H466 0.982 . S
C437 H467 0.979 . S
C437 H468 0.977 . S
C438 C425 1.684 . S
C438 H463 0.979 . S
C438 H464 0.980 . S
C438 H465 0.983 . S
C439 C440 1.391 . S
C439 C444 1.391 . S
C439 H469 0.948 . S
C440 C439 1.391 . S
C440 C441 1.391 . S
C441 C440 1.391 . S
C441 C442 1.392 . S
C441 H470 0.947 . S
C442 C441 1.392 . S
C442 C443 1.419 . S
C442 H471 0.948 . S
C443 C442 1.419 . S
C443 C444 1.391 . S
C443 C447 1.397 . S
C444 C439 1.391 . S
C444 C443 1.391 . S
C444 C445 1.399 . S
C445 C444 1.399 . S
C445 C446 1.396 . S
C445 C448 1.453 . S
C445 C449 1.684 . S
C446 C427 1.723 . S
C446 C445 1.396 . S
C446 C447 1.394 . S
C447 C443 1.397 . S
C447 C446 1.394 . S
C447 C457 1.723 . S
C448 C445 1.453 . S
C448 H472 0.982 . S
C448 H473 0.979 . S
C448 H474 0.977 . S
C449 C445 1.684 . S
C449 H475 0.979 . S
C449 H476 0.980 . S
C449 H477 0.983 . S
C450 H426 0.948 . S
C450 C451 1.391 . S
C450 C455 1.391 . S
C451 C450 1.391 . S
C451 C452 1.391 . S
C452 H429 0.947 . S
C452 C451 1.391 . S
C452 C453 1.392 . S
C453 H430 0.948 . S
C453 C452 1.392 . S
C453 C454 1.419 . S
C454 C453 1.419 . S
C454 C455 1.391 . S
C454 C458 1.397 . S
C455 C450 1.391 . S
C455 C454 1.391 . S
C455 C456 1.399 . S
C456 C455 1.399 . S
C456 C457 1.396 . S
C456 C459 1.453 . S
C456 C460 1.684 . S
C457 C447 1.723 . S
C457 C456 1.396 . S
C457 C458 1.394 . S
C458 C428 1.723 . S
C458 C454 1.397 . S
C458 C457 1.394 . S
C459 H431 0.982 . S
C459 H435 0.979 . S
C459 H436 0.977 . S
C459 C456 1.453 . S
C460 H432 0.979 . S
C460 H433 0.980 . S
C460 H434 0.983 . S
C460 C456 1.684 . S
H461 C479 0.948 . S
H462 C420 0.948 . S
H463 C438 0.979 . S
H464 C438 0.980 . S
H465 C438 0.983 . S
H466 C437 0.982 . S
H467 C437 0.979 . S
H468 C437 0.977 . S
H469 C439 0.948 . S
H470 C441 0.947 . S
H471 C442 0.948 . S
H472 C448 0.982 . S
H473 C448 0.979 . S
H474 C448 0.977 . S
H475 C449 0.979 . S
H476 C449 0.980 . S
H477 C449 0.983 . S
H478 C422 0.947 . S
C479 C422 1.392 . S
C479 C423 1.419 . S
C479 H461 0.948 . S
H480 C492 0.930 . S
H481 C494 0.930 . S
H482 C495 0.930 . S
H483 C499 0.959 . S
H484 C499 0.959 . S
H485 C499 0.961 . S
H486 C500 0.960 . S
H487 C500 0.961 . S
H488 C500 0.959 . S
H489 C503 0.929 . S
H490 C504 0.931 . S
H491 C506 0.930 . S
C492 H480 0.930 . S
C492 C493 1.399 . S
C492 C497 1.399 . S
C493 C492 1.399 . S
C493 C494 1.376 . S
C494 H481 0.930 . S
C494 C493 1.376 . S
C494 C495 1.388 . S
C495 H482 0.930 . S
C495 C494 1.388 . S
C495 C496 1.390 . S
C496 C495 1.390 . S
C496 C497 1.394 . S
C496 C502 1.465 . S
C497 C492 1.399 . S
C497 C496 1.394 . S
C497 C498 1.516 . S
C498 C497 1.516 . S
C498 C499 1.502 . S
C498 C500 1.561 . S
C498 C501 1.526 . S
C499 H483 0.959 . S
C499 H484 0.959 . S
C499 H485 0.961 . S
C499 C498 1.502 . S
C500 H486 0.960 . S
C500 H487 0.961 . S
C500 H488 0.959 . S
C500 C498 1.561 . S
C501 C498 1.526 . S
C501 C502 1.396 . S
C501 C506 1.390 . S
C502 C496 1.465 . S
C502 C501 1.396 . S
C502 C503 1.399 . S
C503 H489 0.929 . S
C503 C502 1.399 . S
C503 C504 1.385 . S
C504 H490 0.931 . S
C504 C503 1.385 . S
C504 C505 1.389 . S
C505 C504 1.389 . S
C505 C506 1.387 . S
C506 H491 0.930 . S
C506 C501 1.390 . S
C506 C505 1.387 . S
H507 C519 0.930 . S
H508 C521 0.930 . S
H509 C522 0.930 . S
H510 C526 0.959 . S
H511 C526 0.959 . S
H512 C526 0.961 . S
H513 C527 0.960 . S
H514 C527 0.961 . S
H515 C527 0.959 . S
H516 C530 0.929 . S
H517 C531 0.931 . S
H518 C533 0.930 . S
C519 H507 0.930 . S
C519 C520 1.399 . S
C519 C524 1.399 . S
C520 C519 1.399 . S
C520 C521 1.376 . S
C521 H508 0.930 . S
C521 C520 1.376 . S
C521 C522 1.388 . S
C522 H509 0.930 . S
C522 C521 1.388 . S
C522 C523 1.390 . S
C523 C522 1.390 . S
C523 C524 1.394 . S
C523 C529 1.465 . S
C524 C519 1.399 . S
C524 C523 1.394 . S
C524 C525 1.516 . S
C525 C524 1.516 . S
C525 C526 1.502 . S
C525 C527 1.561 . S
C525 C528 1.526 . S
C526 H510 0.959 . S
C526 H511 0.959 . S
C526 H512 0.961 . S
C526 C525 1.502 . S
C527 H513 0.960 . S
C527 H514 0.961 . S
C527 H515 0.959 . S
C527 C525 1.561 . S
C528 C525 1.526 . S
C528 C529 1.396 . S
C528 C533 1.390 . S
C529 C523 1.465 . S
C529 C528 1.396 . S
C529 C530 1.399 . S
C530 H516 0.929 . S
C530 C529 1.399 . S
C530 C531 1.385 . S
C531 H517 0.931 . S
C531 C530 1.385 . S
C531 C532 1.389 . S
C532 C531 1.389 . S
C532 C533 1.387 . S
C533 H518 0.930 . S
C533 C528 1.390 . S
C533 C532 1.387 . S
H534 C546 0.930 . S
H535 C548 0.930 . S
H536 C549 0.930 . S
H537 C553 0.959 . S
H538 C553 0.959 . S
H539 C553 0.961 . S
H540 C554 0.960 . S
H541 C554 0.961 . S
H542 C554 0.959 . S
H543 C557 0.929 . S
H544 C558 0.931 . S
H545 C560 0.930 . S
C546 H534 0.930 . S
C546 C547 1.399 . S
C546 C551 1.399 . S
C547 C546 1.399 . S
C547 C548 1.376 . S
C548 H535 0.930 . S
C548 C547 1.376 . S
C548 C549 1.388 . S
C549 H536 0.930 . S
C549 C548 1.388 . S
C549 C550 1.390 . S
C550 C549 1.390 . S
C550 C551 1.394 . S
C550 C556 1.465 . S
C551 C546 1.399 . S
C551 C550 1.394 . S
C551 C552 1.516 . S
C552 C551 1.516 . S
C552 C553 1.502 . S
C552 C554 1.561 . S
C552 C555 1.526 . S
C553 H537 0.959 . S
C553 H538 0.959 . S
C553 H539 0.961 . S
C553 C552 1.502 . S
C554 H540 0.960 . S
C554 H541 0.961 . S
C554 H542 0.959 . S
C554 C552 1.561 . S
C555 C552 1.526 . S
C555 C556 1.396 . S
C555 C560 1.390 . S
C556 C550 1.465 . S
C556 C555 1.396 . S
C556 C557 1.399 . S
C557 H543 0.929 . S
C557 C556 1.399 . S
C557 C558 1.385 . S
C558 H544 0.931 . S
C558 C557 1.385 . S
C558 C559 1.389 . S
C559 C558 1.389 . S
C559 C560 1.387 . S
C560 H545 0.930 . S
C560 C555 1.390 . S
C560 C559 1.387 . S
H561 C573 0.930 . S
H562 C575 0.930 . S
H563 C576 0.930 . S
H564 C580 0.959 . S
H565 C580 0.959 . S
H566 C580 0.961 . S
H567 C581 0.960 . S
H568 C581 0.961 . S
H569 C581 0.959 . S
H570 C584 0.929 . S
H571 C585 0.931 . S
H572 C587 0.930 . S
C573 H561 0.930 . S
C573 C574 1.399 . S
C573 C578 1.399 . S
C574 C573 1.399 . S
C574 C575 1.376 . S
C575 H562 0.930 . S
C575 C574 1.376 . S
C575 C576 1.388 . S
C576 H563 0.930 . S
C576 C575 1.388 . S
C576 C577 1.390 . S
C577 C576 1.390 . S
C577 C578 1.394 . S
C577 C583 1.465 . S
C578 C573 1.399 . S
C578 C577 1.394 . S
C578 C579 1.516 . S
C579 C578 1.516 . S
C579 C580 1.502 . S
C579 C581 1.561 . S
C579 C582 1.526 . S
C580 H564 0.959 . S
C580 H565 0.959 . S
C580 H566 0.961 . S
C580 C579 1.502 . S
C581 H567 0.960 . S
C581 H568 0.961 . S
C581 H569 0.959 . S
C581 C579 1.561 . S
C582 C579 1.526 . S
C582 C583 1.396 . S
C582 C587 1.390 . S
C583 C577 1.465 . S
C583 C582 1.396 . S
C583 C584 1.399 . S
C584 H570 0.929 . S
C584 C583 1.399 . S
C584 C585 1.385 . S
C585 H571 0.931 . S
C585 C584 1.385 . S
C585 C586 1.389 . S
C586 C585 1.389 . S
C586 C587 1.387 . S
C587 H572 0.930 . S
C587 C582 1.390 . S
C587 C586 1.387 . S
H588 C600 0.930 . S
H589 C602 0.930 . S
H590 C603 0.930 . S
H591 C607 0.959 . S
H592 C607 0.959 . S
H593 C607 0.961 . S
H594 C608 0.960 . S
H595 C608 0.961 . S
H596 C608 0.959 . S
H597 C611 0.929 . S
H598 C612 0.931 . S
H599 C614 0.930 . S
C600 H588 0.930 . S
C600 C601 1.399 . S
C600 C605 1.399 . S
C601 C600 1.399 . S
C601 C602 1.376 . S
C602 H589 0.930 . S
C602 C601 1.376 . S
C602 C603 1.388 . S
C603 H590 0.930 . S
C603 C602 1.388 . S
C603 C604 1.390 . S
C604 C603 1.390 . S
C604 C605 1.394 . S
C604 C610 1.465 . S
C605 C600 1.399 . S
C605 C604 1.394 . S
C605 C606 1.516 . S
C606 C605 1.516 . S
C606 C607 1.502 . S
C606 C608 1.561 . S
C606 C609 1.526 . S
C607 H591 0.959 . S
C607 H592 0.959 . S
C607 H593 0.961 . S
C607 C606 1.502 . S
C608 H594 0.960 . S
C608 H595 0.961 . S
C608 H596 0.959 . S
C608 C606 1.561 . S
C609 C606 1.526 . S
C609 C610 1.396 . S
C609 C614 1.390 . S
C610 C604 1.465 . S
C610 C609 1.396 . S
C610 C611 1.399 . S
C611 H597 0.929 . S
C611 C610 1.399 . S
C611 C612 1.385 . S
C612 H598 0.931 . S
C612 C611 1.385 . S
C612 C613 1.389 . S
C613 C612 1.389 . S
C613 C614 1.387 . S
C614 H599 0.930 . S
C614 C609 1.390 . S
C614 C613 1.387 . S
H615 C627 0.930 . S
H616 C629 0.930 . S
H617 C630 0.930 . S
H618 C634 0.959 . S
H619 C634 0.959 . S
H620 C634 0.961 . S
H621 C635 0.960 . S
H622 C635 0.961 . S
H623 C635 0.959 . S
H624 C638 0.929 . S
H625 C639 0.931 . S
H626 C641 0.930 . S
C627 H615 0.930 . S
C627 C628 1.399 . S
C627 C632 1.399 . S
C628 C627 1.399 . S
C628 C629 1.376 . S
C629 H616 0.930 . S
C629 C628 1.376 . S
C629 C630 1.388 . S
C630 H617 0.930 . S
C630 C629 1.388 . S
C630 C631 1.390 . S
C631 C630 1.390 . S
C631 C632 1.394 . S
C631 C637 1.465 . S
C632 C627 1.399 . S
C632 C631 1.394 . S
C632 C633 1.516 . S
C633 C632 1.516 . S
C633 C634 1.502 . S
C633 C635 1.561 . S
C633 C636 1.526 . S
C634 H618 0.959 . S
C634 H619 0.959 . S
C634 H620 0.961 . S
C634 C633 1.502 . S
C635 H621 0.960 . S
C635 H622 0.961 . S
C635 H623 0.959 . S
C635 C633 1.561 . S
C636 C633 1.526 . S
C636 C637 1.396 . S
C636 C641 1.390 . S
C637 C631 1.465 . S
C637 C636 1.396 . S
C637 C638 1.399 . S
C638 H624 0.929 . S
C638 C637 1.399 . S
C638 C639 1.385 . S
C639 H625 0.931 . S
C639 C638 1.385 . S
C639 C640 1.389 . S
C640 C639 1.389 . S
C640 C641 1.387 . S
C641 H626 0.930 . S
C641 C636 1.390 . S
C641 C640 1.387 . S
H642 C654 0.930 . S
H643 C656 0.930 . S
H644 C657 0.930 . S
H645 C661 0.959 . S
H646 C661 0.959 . S
H647 C661 0.961 . S
H648 C662 0.960 . S
H649 C662 0.961 . S
H650 C662 0.959 . S
H651 C665 0.929 . S
H652 C666 0.931 . S
H653 C668 0.930 . S
C654 H642 0.930 . S
C654 C655 1.399 . S
C654 C659 1.399 . S
C655 C654 1.399 . S
C655 C656 1.376 . S
C656 H643 0.930 . S
C656 C655 1.376 . S
C656 C657 1.388 . S
C657 H644 0.930 . S
C657 C656 1.388 . S
C657 C658 1.390 . S
C658 C657 1.390 . S
C658 C659 1.394 . S
C658 C664 1.465 . S
C659 C654 1.399 . S
C659 C658 1.394 . S
C659 C660 1.516 . S
C660 C659 1.516 . S
C660 C661 1.502 . S
C660 C662 1.561 . S
C660 C663 1.526 . S
C661 H645 0.959 . S
C661 H646 0.959 . S
C661 H647 0.961 . S
C661 C660 1.502 . S
C662 H648 0.960 . S
C662 H649 0.961 . S
C662 H650 0.959 . S
C662 C660 1.561 . S
C663 C660 1.526 . S
C663 C664 1.396 . S
C663 C668 1.390 . S
C664 C658 1.465 . S
C664 C663 1.396 . S
C664 C665 1.399 . S
C665 H651 0.929 . S
C665 C664 1.399 . S
C665 C666 1.385 . S
C666 H652 0.931 . S
C666 C665 1.385 . S
C666 C667 1.389 . S
C667 C666 1.389 . S
C667 C668 1.387 . S
C668 H653 0.930 . S
C668 C663 1.390 . S
C668 C667 1.387 . S
H669 C681 0.930 . S
H670 C683 0.930 . S
H671 C684 0.930 . S
H672 C688 0.959 . S
H673 C688 0.959 . S
H674 C688 0.961 . S
H675 C689 0.960 . S
H676 C689 0.961 . S
H677 C689 0.959 . S
H678 C692 0.929 . S
H679 C693 0.931 . S
H680 C695 0.930 . S
C681 H669 0.930 . S
C681 C682 1.399 . S
C681 C686 1.399 . S
C682 C681 1.399 . S
C682 C683 1.376 . S
C683 H670 0.930 . S
C683 C682 1.376 . S
C683 C684 1.388 . S
C684 H671 0.930 . S
C684 C683 1.388 . S
C684 C685 1.390 . S
C685 C684 1.390 . S
C685 C686 1.394 . S
C685 C691 1.465 . S
C686 C681 1.399 . S
C686 C685 1.394 . S
C686 C687 1.516 . S
C687 C686 1.516 . S
C687 C688 1.502 . S
C687 C689 1.561 . S
C687 C690 1.526 . S
C688 H672 0.959 . S
C688 H673 0.959 . S
C688 H674 0.961 . S
C688 C687 1.502 . S
C689 H675 0.960 . S
C689 H676 0.961 . S
C689 H677 0.959 . S
C689 C687 1.561 . S
C690 C687 1.526 . S
C690 C691 1.396 . S
C690 C695 1.390 . S
C691 C685 1.465 . S
C691 C690 1.396 . S
C691 C692 1.399 . S
C692 H678 0.929 . S
C692 C691 1.399 . S
C692 C693 1.385 . S
C693 H679 0.931 . S
C693 C692 1.385 . S
C693 C694 1.389 . S
C694 C693 1.389 . S
C694 C695 1.387 . S
C695 H680 0.930 . S
C695 C690 1.390 . S
C695 C694 1.387 . S
H696 C708 0.930 . S
H697 C710 0.930 . S
H698 C711 0.930 . S
H699 C715 0.959 . S
H700 C715 0.959 . S
H701 C715 0.961 . S
H702 C716 0.960 . S
H703 C716 0.961 . S
H704 C716 0.959 . S
H705 C719 0.929 . S
H706 C720 0.931 . S
H707 C722 0.930 . S
C708 H696 0.930 . S
C708 C709 1.399 . S
C708 C713 1.399 . S
C709 C708 1.399 . S
C709 C710 1.376 . S
C710 H697 0.930 . S
C710 C709 1.376 . S
C710 C711 1.388 . S
C711 H698 0.930 . S
C711 C710 1.388 . S
C711 C712 1.390 . S
C712 C711 1.390 . S
C712 C713 1.394 . S
C712 C718 1.465 . S
C713 C708 1.399 . S
C713 C712 1.394 . S
C713 C714 1.516 . S
C714 C713 1.516 . S
C714 C715 1.502 . S
C714 C716 1.561 . S
C714 C717 1.526 . S
C715 H699 0.959 . S
C715 H700 0.959 . S
C715 H701 0.961 . S
C715 C714 1.502 . S
C716 H702 0.960 . S
C716 H703 0.961 . S
C716 H704 0.959 . S
C716 C714 1.561 . S
C717 C714 1.526 . S
C717 C718 1.396 . S
C717 C722 1.390 . S
C718 C712 1.465 . S
C718 C717 1.396 . S
C718 C719 1.399 . S
C719 H705 0.929 . S
C719 C718 1.399 . S
C719 C720 1.385 . S
C720 H706 0.931 . S
C720 C719 1.385 . S
C720 C721 1.389 . S
C721 C720 1.389 . S
C721 C722 1.387 . S
C722 H707 0.930 . S
C722 C717 1.390 . S
C722 C721 1.387 . S
H723 C735 0.930 . S
H724 C737 0.930 . S
H725 C738 0.930 . S
H726 C742 0.959 . S
H727 C742 0.959 . S
H728 C742 0.961 . S
H729 C743 0.960 . S
H730 C743 0.961 . S
H731 C743 0.959 . S
H732 C746 0.929 . S
H733 C747 0.931 . S
H734 C749 0.930 . S
C735 H723 0.930 . S
C735 C736 1.399 . S
C735 C740 1.399 . S
C736 C735 1.399 . S
C736 C737 1.376 . S
C737 H724 0.930 . S
C737 C736 1.376 . S
C737 C738 1.388 . S
C738 H725 0.930 . S
C738 C737 1.388 . S
C738 C739 1.390 . S
C739 C738 1.390 . S
C739 C740 1.394 . S
C739 C745 1.465 . S
C740 C735 1.399 . S
C740 C739 1.394 . S
C740 C741 1.516 . S
C741 C740 1.516 . S
C741 C742 1.502 . S
C741 C743 1.561 . S
C741 C744 1.526 . S
C742 H726 0.959 . S
C742 H727 0.959 . S
C742 H728 0.961 . S
C742 C741 1.502 . S
C743 H729 0.960 . S
C743 H730 0.961 . S
C743 H731 0.959 . S
C743 C741 1.561 . S
C744 C741 1.526 . S
C744 C745 1.396 . S
C744 C749 1.390 . S
C745 C739 1.465 . S
C745 C744 1.396 . S
C745 C746 1.399 . S
C746 H732 0.929 . S
C746 C745 1.399 . S
C746 C747 1.385 . S
C747 H733 0.931 . S
C747 C746 1.385 . S
C747 C748 1.389 . S
C748 C747 1.389 . S
C748 C749 1.387 . S
C749 H734 0.930 . S
C749 C744 1.390 . S
C749 C748 1.387 . S
H750 C762 0.930 . S
H751 C764 0.930 . S
H752 C765 0.930 . S
H753 C769 0.959 . S
H754 C769 0.959 . S
H755 C769 0.961 . S
H756 C770 0.960 . S
H757 C770 0.961 . S
H758 C770 0.959 . S
H759 C773 0.929 . S
H760 C774 0.931 . S
H761 C776 0.930 . S
C762 H750 0.930 . S
C762 C763 1.399 . S
C762 C767 1.399 . S
C763 C762 1.399 . S
C763 C764 1.376 . S
C764 H751 0.930 . S
C764 C763 1.376 . S
C764 C765 1.388 . S
C765 H752 0.930 . S
C765 C764 1.388 . S
C765 C766 1.390 . S
C766 C765 1.390 . S
C766 C767 1.394 . S
C766 C772 1.465 . S
C767 C762 1.399 . S
C767 C766 1.394 . S
C767 C768 1.516 . S
C768 C767 1.516 . S
C768 C769 1.502 . S
C768 C770 1.561 . S
C768 C771 1.526 . S
C769 H753 0.959 . S
C769 H754 0.959 . S
C769 H755 0.961 . S
C769 C768 1.502 . S
C770 H756 0.960 . S
C770 H757 0.961 . S
C770 H758 0.959 . S
C770 C768 1.561 . S
C771 C768 1.526 . S
C771 C772 1.396 . S
C771 C776 1.390 . S
C772 C766 1.465 . S
C772 C771 1.396 . S
C772 C773 1.399 . S
C773 H759 0.929 . S
C773 C772 1.399 . S
C773 C774 1.385 . S
C774 H760 0.931 . S
C774 C773 1.385 . S
C774 C775 1.389 . S
C775 C774 1.389 . S
C775 C776 1.387 . S
C776 H761 0.930 . S
C776 C771 1.390 . S
C776 C775 1.387 . S
H777 C789 0.930 . S
H778 C791 0.930 . S
H779 C792 0.930 . S
H780 C796 0.959 . S
H781 C796 0.959 . S
H782 C796 0.961 . S
H783 C797 0.960 . S
H784 C797 0.961 . S
H785 C797 0.959 . S
H786 C800 0.929 . S
H787 C801 0.931 . S
H788 C803 0.930 . S
C789 H777 0.930 . S
C789 C790 1.399 . S
C789 C794 1.399 . S
C790 C789 1.399 . S
C790 C791 1.376 . S
C791 H778 0.930 . S
C791 C790 1.376 . S
C791 C792 1.388 . S
C792 H779 0.930 . S
C792 C791 1.388 . S
C792 C793 1.390 . S
C793 C792 1.390 . S
C793 C794 1.394 . S
C793 C799 1.465 . S
C794 C789 1.399 . S
C794 C793 1.394 . S
C794 C795 1.516 . S
C795 C794 1.516 . S
C795 C796 1.502 . S
C795 C797 1.561 . S
C795 C798 1.526 . S
C796 H780 0.959 . S
C796 H781 0.959 . S
C796 H782 0.961 . S
C796 C795 1.502 . S
C797 H783 0.960 . S
C797 H784 0.961 . S
C797 H785 0.959 . S
C797 C795 1.561 . S
C798 C795 1.526 . S
C798 C799 1.396 . S
C798 C803 1.390 . S
C799 C793 1.465 . S
C799 C798 1.396 . S
C799 C800 1.399 . S
C800 H786 0.929 . S
C800 C799 1.399 . S
C800 C801 1.385 . S
C801 H787 0.931 . S
C801 C800 1.385 . S
C801 C802 1.389 . S
C802 C801 1.389 . S
C802 C803 1.387 . S
C803 H788 0.930 . S
C803 C798 1.390 . S
C803 C802 1.387 . S
H804 C816 0.930 . S
H805 C818 0.930 . S
H806 C819 0.930 . S
H807 C823 0.959 . S
H808 C823 0.959 . S
H809 C823 0.961 . S
H810 C824 0.960 . S
H811 C824 0.961 . S
H812 C824 0.959 . S
H813 C827 0.929 . S
H814 C828 0.931 . S
H815 C830 0.930 . S
C816 H804 0.930 . S
C816 C817 1.399 . S
C816 C821 1.399 . S
C817 C816 1.399 . S
C817 C818 1.376 . S
C818 H805 0.930 . S
C818 C817 1.376 . S
C818 C819 1.388 . S
C819 H806 0.930 . S
C819 C818 1.388 . S
C819 C820 1.390 . S
C820 C819 1.390 . S
C820 C821 1.394 . S
C820 C826 1.465 . S
C821 C816 1.399 . S
C821 C820 1.394 . S
C821 C822 1.516 . S
C822 C821 1.516 . S
C822 C823 1.502 . S
C822 C824 1.561 1_455 S
C822 C825 1.526 . S
C823 H807 0.959 . S
C823 H808 0.959 . S
C823 H809 0.961 . S
C823 C822 1.502 . S
C824 H810 0.960 . S
C824 H811 0.961 . S
C824 H812 0.959 . S
C824 C822 1.561 1_655 S
C825 C822 1.526 . S
C825 C826 1.396 . S
C825 C830 1.390 . S
C826 C820 1.465 . S
C826 C825 1.396 . S
C826 C827 1.399 . S
C827 H813 0.929 . S
C827 C826 1.399 . S
C827 C828 1.385 . S
C828 H814 0.931 . S
C828 C827 1.385 . S
C828 C829 1.389 . S
C829 C828 1.389 . S
C829 C830 1.387 . S
C830 H815 0.930 . S
C830 C825 1.390 . S
C830 C829 1.387 . S
H831 C843 0.930 . S
H832 C845 0.930 . S
H833 C846 0.930 . S
H834 C850 0.959 . S
H835 C850 0.959 . S
H836 C850 0.961 . S
H837 C851 0.960 . S
H838 C851 0.961 . S
H839 C851 0.959 . S
H840 C854 0.929 . S
H841 C855 0.931 . S
H842 C857 0.930 . S
C843 H831 0.930 . S
C843 C844 1.399 . S
C843 C848 1.399 . S
C844 C843 1.399 . S
C844 C845 1.376 1_545 S
C845 H832 0.930 . S
C845 C844 1.376 1_565 S
C845 C846 1.388 . S
C846 H833 0.930 . S
C846 C845 1.388 . S
C846 C847 1.390 1_565 S
C847 C846 1.390 1_545 S
C847 C848 1.394 . S
C847 C853 1.465 . S
C848 C843 1.399 . S
C848 C847 1.394 . S
C848 C849 1.516 . S
C849 C848 1.516 . S
C849 C850 1.502 . S
C849 C851 1.561 . S
C849 C852 1.526 . S
C850 H834 0.959 . S
C850 H835 0.959 . S
C850 H836 0.961 . S
C850 C849 1.502 . S
C851 H837 0.960 . S
C851 H838 0.961 . S
C851 H839 0.959 . S
C851 C849 1.561 . S
C852 C849 1.526 . S
C852 C853 1.396 . S
C852 C857 1.390 . S
C853 C847 1.465 . S
C853 C852 1.396 . S
C853 C854 1.399 1_545 S
C854 H840 0.929 . S
C854 C853 1.399 1_565 S
C854 C855 1.385 . S
C855 H841 0.931 . S
C855 C854 1.385 . S
C855 C856 1.389 1_565 S
C856 C855 1.389 1_545 S
C856 C857 1.387 . S
C857 H842 0.930 . S
C857 C852 1.390 . S
C857 C856 1.387 . S
H858 C870 0.930 . S
H859 C872 0.930 . S
H860 C873 0.930 . S
H861 C877 0.959 . S
H862 C877 0.959 . S
H863 C877 0.961 . S
H864 C878 0.960 . S
H865 C878 0.961 . S
H866 C878 0.959 . S
H867 C881 0.929 . S
H868 C882 0.931 . S
H869 C884 0.930 . S
C870 H858 0.930 . S
C870 C871 1.399 . S
C870 C875 1.399 . S
C871 C870 1.399 . S
C871 C872 1.376 . S
C872 H859 0.930 . S
C872 C871 1.376 . S
C872 C873 1.388 . S
C873 H860 0.930 . S
C873 C872 1.388 . S
C873 C874 1.390 . S
C874 C873 1.390 . S
C874 C875 1.394 . S
C874 C880 1.465 . S
C875 C870 1.399 . S
C875 C874 1.394 . S
C875 C876 1.516 . S
C876 C875 1.516 . S
C876 C877 1.502 . S
C876 C878 1.561 . S
C876 C879 1.526 . S
C877 H861 0.959 . S
C877 H862 0.959 . S
C877 H863 0.961 . S
C877 C876 1.502 . S
C878 H864 0.960 . S
C878 H865 0.961 . S
C878 H866 0.959 . S
C878 C876 1.561 . S
C879 C876 1.526 . S
C879 C880 1.396 . S
C879 C884 1.390 . S
C880 C874 1.465 . S
C880 C879 1.396 . S
C880 C881 1.399 . S
C881 H867 0.929 . S
C881 C880 1.399 . S
C881 C882 1.385 . S
C882 H868 0.931 . S
C882 C881 1.385 . S
C882 C883 1.389 . S
C883 C882 1.389 . S
C883 C884 1.387 . S
C884 H869 0.930 . S
C884 C879 1.390 . S
C884 C883 1.387 . S
H885 C897 0.930 . S
H886 C899 0.930 . S
H887 C900 0.930 . S
H888 C904 0.959 . S
H889 C904 0.959 . S
H890 C904 0.961 . S
H891 C905 0.960 . S
H892 C905 0.961 . S
H893 C905 0.959 . S
H894 C908 0.929 . S
H895 C909 0.931 . S
H896 C911 0.930 . S
C897 H885 0.930 . S
C897 C898 1.399 . S
C897 C902 1.399 . S
C898 C897 1.399 . S
C898 C899 1.376 1_545 S
C899 H886 0.930 . S
C899 C898 1.376 1_565 S
C899 C900 1.388 . S
C900 H887 0.930 . S
C900 C899 1.388 . S
C900 C901 1.390 . S
C901 C900 1.390 . S
C901 C902 1.394 1_565 S
C901 C907 1.465 . S
C902 C897 1.399 . S
C902 C901 1.394 1_545 S
C902 C903 1.516 . S
C903 C902 1.516 . S
C903 C904 1.502 . S
C903 C905 1.561 . S
C903 C906 1.526 . S
C904 H888 0.959 . S
C904 H889 0.959 . S
C904 H890 0.961 . S
C904 C903 1.502 . S
C905 H891 0.960 . S
C905 H892 0.961 . S
C905 H893 0.959 . S
C905 C903 1.561 . S
C906 C903 1.526 . S
C906 C907 1.396 1_545 S
C906 C911 1.390 . S
C907 C901 1.465 . S
C907 C906 1.396 1_565 S
C907 C908 1.399 . S
C908 H894 0.929 . S
C908 C907 1.399 . S
C908 C909 1.385 . S
C909 H895 0.931 . S
C909 C908 1.385 . S
C909 C910 1.389 . S
C910 C909 1.389 . S
C910 C911 1.387 1_565 S
C911 H896 0.930 . S
C911 C906 1.390 . S
C911 C910 1.387 1_545 S
H912 C924 0.930 . S
H913 C926 0.930 . S
H914 C927 0.930 . S
H915 C931 0.959 . S
H916 C931 0.959 . S
H917 C931 0.961 . S
H918 C932 0.960 . S
H919 C932 0.961 . S
H920 C932 0.959 . S
H921 C935 0.929 . S
H922 C936 0.931 1_554 S
H923 C938 0.930 . S
C924 H912 0.930 . S
C924 C925 1.399 . S
C924 C929 1.399 . S
C925 C924 1.399 . S
C925 C926 1.376 . S
C926 H913 0.930 . S
C926 C925 1.376 . S
C926 C927 1.388 . S
C927 H914 0.930 . S
C927 C926 1.388 . S
C927 C928 1.390 . S
C928 C927 1.390 . S
C928 C929 1.394 . S
C928 C934 1.465 . S
C929 C924 1.399 . S
C929 C928 1.394 . S
C929 C930 1.516 . S
C930 C929 1.516 . S
C930 C931 1.502 . S
C930 C932 1.561 . S
C930 C933 1.526 . S
C931 H915 0.959 . S
C931 H916 0.959 . S
C931 H917 0.961 . S
C931 C930 1.502 . S
C932 H918 0.960 . S
C932 H919 0.961 . S
C932 H920 0.959 . S
C932 C930 1.561 . S
C933 C930 1.526 . S
C933 C934 1.396 . S
C933 C938 1.390 . S
C934 C928 1.465 . S
C934 C933 1.396 . S
C934 C935 1.399 . S
C935 H921 0.929 . S
C935 C934 1.399 . S
C935 C936 1.385 . S
C936 H922 0.931 1_556 S
C936 C935 1.385 . S
C936 C937 1.389 . S
C937 C936 1.389 . S
C937 C938 1.387 . S
C938 H923 0.930 . S
C938 C933 1.390 . S
C938 C937 1.387 . S
H939 C951 0.930 . S
H940 C953 0.930 . S
H941 C954 0.930 . S
H942 C958 0.959 . S
H943 C958 0.959 . S
H944 C958 0.961 . S
H945 C959 0.960 . S
H946 C959 0.961 . S
H947 C959 0.959 1_655 S
H948 C962 0.929 . S
H949 C963 0.931 . S
H950 C965 0.930 . S
C951 H939 0.930 . S
C951 C952 1.399 . S
C951 C956 1.399 . S
C952 C951 1.399 . S
C952 C953 1.376 1_455 S
C953 H940 0.930 . S
C953 C952 1.376 1_655 S
C953 C954 1.388 . S
C954 H941 0.930 . S
C954 C953 1.388 . S
C954 C955 1.390 . S
C955 C954 1.390 . S
C955 C956 1.394 1_655 S
C955 C961 1.465 . S
C956 C951 1.399 . S
C956 C955 1.394 1_455 S
C956 C957 1.516 . S
C957 C956 1.516 . S
C957 C958 1.502 . S
C957 C959 1.561 . S
C957 C960 1.526 . S
C958 H942 0.959 . S
C958 H943 0.959 . S
C958 H944 0.961 . S
C958 C957 1.502 . S
C959 H945 0.960 . S
C959 H946 0.961 . S
C959 H947 0.959 1_455 S
C959 C957 1.561 . S
C960 C957 1.526 . S
C960 C961 1.396 1_455 S
C960 C965 1.390 . S
C961 C955 1.465 . S
C961 C960 1.396 1_655 S
C961 C962 1.399 . S
C962 H948 0.929 . S
C962 C961 1.399 . S
C962 C963 1.385 . S
C963 H949 0.931 . S
C963 C962 1.385 . S
C963 C964 1.389 . S
C964 C963 1.389 . S
C964 C965 1.387 1_655 S
C965 H950 0.930 . S
C965 C960 1.390 . S
C965 C964 1.387 1_455 S
C493 C10 3.116 . S
C505 C451 3.101 . S
C520 C55 1.177 . S
C532 C301 1.149 . S
C547 C90 1.900 . S
C559 C361 1.745 . S
C574 C19 2.994 . S
C586 C421 2.855 . S
C613 C331 1.310 . S
C601 C46 1.299 . S
C640 C391 2.079 . S
C628 C99 2.056 . S
C655 C50 1.915 . S
C667 C181 1.799 . S
C682 C95 0.522 . S
C694 C271 0.625 . S
C709 C6 1.299 . S
C721 C151 1.345 . S
C748 C211 2.033 . S
C736 C59 2.028 . S
C775 C241 0.527 . S
C763 C86 0.475 . S
C790 C15 1.233 . S
C802 C121 1.205 . S
C829 C260 1.080 1_554 S
C817 C18 1.103 . S
C844 C49 1.463 . S
C856 C140 1.461 . S
C871 C98 1.316 . S
C883 C200 1.308 . S
C910 C380 1.353 1_565 S
C898 C58 1.369 . S
C937 C440 1.766 1_556 S
C925 C89 1.735 . S
C952 C9 1.478 . S
C964 C320 1.502 1_655 S
