# Generated by pormake.
# Topology ssb, (4,4)-cn, num edge types: 1
# Building blocks:
#     Node 0, Type 0, BuildingBlock: NAHDIM_clean_linker_0, # of connection points: 4
#     Node 1, Type 0, BuildingBlock: NAHDIM_clean_linker_0, # of connection points: 4
#     Node 2, Type 0, BuildingBlock: NAHDIM_clean_linker_0, # of connection points: 4
#     Node 3, Type 0, BuildingBlock: NAHDIM_clean_linker_0, # of connection points: 4
#     Node 4, Type 0, BuildingBlock: NAHDIM_clean_linker_0, # of connection points: 4
#     Node 5, Type 0, BuildingBlock: NAHDIM_clean_linker_0, # of connection points: 4
#     Node 6, Type 0, BuildingBlock: NAHDIM_clean_linker_0, # of connection points: 4
#     Node 7, Type 0, BuildingBlock: NAHDIM_clean_linker_0, # of connection points: 4
#     Node 8, Type 1, BuildingBlock: NAWXER_clean_sbu_0, # of connection points: 4
#     Node 9, Type 1, BuildingBlock: NAWXER_clean_sbu_0, # of connection points: 4
#     Node 10, Type 1, BuildingBlock: NAWXER_clean_sbu_0, # of connection points: 4
#     Node 11, Type 1, BuildingBlock: NAWXER_clean_sbu_0, # of connection points: 4
#     Node 12, Type 1, BuildingBlock: NAWXER_clean_sbu_0, # of connection points: 4
#     Node 13, Type 1, BuildingBlock: NAWXER_clean_sbu_0, # of connection points: 4
#     Node 14, Type 1, BuildingBlock: NAWXER_clean_sbu_0, # of connection points: 4
#     Node 15, Type 1, BuildingBlock: NAWXER_clean_sbu_0, # of connection points: 4
#     Edge 16, Type (0, 1), BuildingBlock: CIFDUS_clean_linker_0, # of connection points: 2
#     Edge 17, Type (0, 1), BuildingBlock: CIFDUS_clean_linker_0, # of connection points: 2
#     Edge 18, Type (0, 1), BuildingBlock: CIFDUS_clean_linker_0, # of connection points: 2
#     Edge 19, Type (0, 1), BuildingBlock: CIFDUS_clean_linker_0, # of connection points: 2
#     Edge 20, Type (0, 1), BuildingBlock: CIFDUS_clean_linker_0, # of connection points: 2
#     Edge 21, Type (0, 1), BuildingBlock: CIFDUS_clean_linker_0, # of connection points: 2
#     Edge 22, Type (0, 1), BuildingBlock: CIFDUS_clean_linker_0, # of connection points: 2
#     Edge 23, Type (0, 1), BuildingBlock: CIFDUS_clean_linker_0, # of connection points: 2
#     Edge 24, Type (0, 1), BuildingBlock: CIFDUS_clean_linker_0, # of connection points: 2
#     Edge 25, Type (0, 1), BuildingBlock: CIFDUS_clean_linker_0, # of connection points: 2
#     Edge 26, Type (0, 1), BuildingBlock: CIFDUS_clean_linker_0, # of connection points: 2
#     Edge 27, Type (0, 1), BuildingBlock: CIFDUS_clean_linker_0, # of connection points: 2
#     Edge 28, Type (0, 1), BuildingBlock: CIFDUS_clean_linker_0, # of connection points: 2
#     Edge 29, Type (0, 1), BuildingBlock: CIFDUS_clean_linker_0, # of connection points: 2
#     Edge 30, Type (0, 1), BuildingBlock: CIFDUS_clean_linker_0, # of connection points: 2
#     Edge 31, Type (0, 1), BuildingBlock: CIFDUS_clean_linker_0, # of connection points: 2
#     Edge 32, Type (0, 1), BuildingBlock: CIFDUS_clean_linker_0, # of connection points: 2
#     Edge 33, Type (0, 1), BuildingBlock: CIFDUS_clean_linker_0, # of connection points: 2
#     Edge 34, Type (0, 1), BuildingBlock: CIFDUS_clean_linker_0, # of connection points: 2
#     Edge 35, Type (0, 1), BuildingBlock: CIFDUS_clean_linker_0, # of connection points: 2
#     Edge 36, Type (0, 1), BuildingBlock: CIFDUS_clean_linker_0, # of connection points: 2
#     Edge 37, Type (0, 1), BuildingBlock: CIFDUS_clean_linker_0, # of connection points: 2
#     Edge 38, Type (0, 1), BuildingBlock: CIFDUS_clean_linker_0, # of connection points: 2
#     Edge 39, Type (0, 1), BuildingBlock: CIFDUS_clean_linker_0, # of connection points: 2
#     Edge 40, Type (0, 1), BuildingBlock: CIFDUS_clean_linker_0, # of connection points: 2
#     Edge 41, Type (0, 1), BuildingBlock: CIFDUS_clean_linker_0, # of connection points: 2
#     Edge 42, Type (0, 1), BuildingBlock: CIFDUS_clean_linker_0, # of connection points: 2
#     Edge 43, Type (0, 1), BuildingBlock: CIFDUS_clean_linker_0, # of connection points: 2
#     Edge 44, Type (0, 1), BuildingBlock: CIFDUS_clean_linker_0, # of connection points: 2
#     Edge 45, Type (0, 1), BuildingBlock: CIFDUS_clean_linker_0, # of connection points: 2
#     Edge 46, Type (0, 1), BuildingBlock: CIFDUS_clean_linker_0, # of connection points: 2
#     Edge 47, Type (0, 1), BuildingBlock: CIFDUS_clean_linker_0, # of connection points: 2
# Relax obj value: 0.005
# Max RMSD: 0.044
# Mean RMSD: 0.033
data_MOF--net-ssb--node1-NAWXER_clean_sbu_0--node2-NAHDIM_clean_linker_0--edge1-CIFDUS_clean_linker_0
_symmetry_space_group_name_H-M    P1
_symmetry_Int_Tables_number       1
_symmetry_cell_setting            triclinic
loop_
_symmetry_equiv_pos_as_xyz
'x, y, z'
_cell_length_a     56.743948
_cell_length_b     56.740588
_cell_length_c     48.722014
_cell_angle_alpha  89.926954
_cell_angle_beta   89.992963
_cell_angle_gamma 89.997061
loop_
_atom_site_label
_atom_site_type_symbol
_atom_site_fract_x
_atom_site_fract_y
_atom_site_fract_z
_atom_type_partial_charge
C0 C 0.3644 0.14138 0.35814 0.0
C1 C 0.34708 0.14904 0.38059 0.0
C2 C 0.32143 0.17415 0.35257 0.0
C3 C 0.33261 0.19593 0.3567 0.0
C4 C 0.32881 0.2148 0.3386 0.0
C5 C 0.3139 0.21168 0.3156 0.0
C6 C 0.30191 0.19004 0.31198 0.0
C7 C 0.30556 0.17166 0.33083 0.0
C8 C 0.34121 0.2379 0.3437 0.0
C9 C 0.28588 0.1861 0.28772 0.0
C10 C 0.42452 0.29021 0.175 0.0
C11 C 0.41264 0.26852 0.16236 0.0
C12 C 0.39081 0.25087 0.19955 0.0
C13 C 0.36917 0.24209 0.19047 0.0
C14 C 0.34983 0.24071 0.20841 0.0
C15 C 0.35222 0.2489 0.23575 0.0
C16 C 0.37424 0.2577 0.24487 0.0
C17 C 0.3934 0.25817 0.22671 0.0
C18 C 0.32691 0.23053 0.19813 0.0
C19 C 0.37765 0.2665 0.27381 0.0
C20 C 0.26697 0.37002 0.18768 0.0
C21 C 0.25417 0.34927 0.18262 0.0
C22 C 0.25069 0.33257 0.20351 0.0
C23 C 0.26007 0.33679 0.22994 0.0
C24 C 0.27164 0.35834 0.23551 0.0
C25 C 0.27476 0.37479 0.21428 0.0
C26 C 0.23764 0.31005 0.19715 0.0
C27 C 0.28151 0.36356 0.2636 0.0
C28 C 0.17725 0.30597 0.41364 0.0
C29 C 0.1638 0.31866 0.39061 0.0
C30 C 0.18383 0.30476 0.34873 0.0
C31 C 0.18161 0.29055 0.32545 0.0
C32 C 0.20003 0.28853 0.30633 0.0
C33 C 0.22131 0.30094 0.31076 0.0
C34 C 0.22379 0.31525 0.33432 0.0
C35 C 0.20503 0.31713 0.35298 0.0
C36 C 0.19675 0.27326 0.2813 0.0
C37 C 0.24627 0.32869 0.33971 0.0
C38 C 0.31262 0.23029 0.29418 0.0
C39 C 0.33078 0.23097 0.27478 0.0
C40 C 0.33171 0.24858 0.25476 0.0
C41 C 0.31388 0.26596 0.25376 0.0
C42 C 0.31453 0.28422 0.23426 0.0
C43 C 0.29684 0.3011 0.23321 0.0
C44 C 0.2779 0.30059 0.25184 0.0
C45 C 0.25987 0.31776 0.25086 0.0
C46 C 0.24154 0.3171 0.26998 0.0
C47 C 0.24072 0.29969 0.29034 0.0
C48 C 0.25851 0.2822 0.29149 0.0
C49 C 0.25833 0.26444 0.31168 0.0
C50 C 0.27602 0.24741 0.31265 0.0
C51 C 0.29452 0.24743 0.29341 0.0
C52 C 0.29511 0.26526 0.273 0.0
C53 C 0.27711 0.28264 0.27206 0.0
C54 C 0.30451 0.37623 0.13887 0.0
C55 C 0.27789 0.38075 0.14066 0.0
O56 O 0.32559 0.15517 0.36891 0.0
O57 O 0.16521 0.3059 0.36639 0.0
O58 O 0.27196 0.38592 0.16762 0.0
O59 O 0.40959 0.25154 0.18251 0.0
H60 H 0.35459 0.16432 0.39181 0.0
H61 H 0.36764 0.15616 0.34366 0.0
H62 H 0.35716 0.12621 0.34644 0.0
H63 H 0.38158 0.13624 0.36728 0.0
H64 H 0.34426 0.19839 0.37401 0.0
H65 H 0.29677 0.15488 0.32804 0.0
H66 H 0.35551 0.24012 0.32841 0.0
H67 H 0.34908 0.23875 0.36455 0.0
H68 H 0.32877 0.25286 0.34118 0.0
H69 H 0.27788 0.16823 0.28781 0.0
H70 H 0.29597 0.18844 0.26837 0.0
H71 H 0.27154 0.19941 0.28779 0.0
H72 H 0.39518 0.27388 0.15391 0.0
H73 H 0.42679 0.30435 0.15944 0.0
H74 H 0.44205 0.28545 0.18354 0.0
H75 H 0.41342 0.29738 0.19181 0.0
H76 H 0.36758 0.23611 0.16944 0.0
H77 H 0.41042 0.26459 0.23349 0.0
H78 H 0.31987 0.21751 0.21307 0.0
H79 H 0.32896 0.22181 0.17787 0.0
H80 H 0.31369 0.24483 0.19603 0.0
H81 H 0.39433 0.27655 0.27614 0.0
H82 H 0.37824 0.25118 0.28795 0.0
H83 H 0.36272 0.27792 0.28013 0.0
H84 H 0.26921 0.36434 0.13352 0.0
H85 H 0.24678 0.34598 0.16254 0.0
H86 H 0.28411 0.39111 0.21813 0.0
H87 H 0.25005 0.29495 0.19829 0.0
H88 H 0.22952 0.31034 0.1764 0.0
H89 H 0.22362 0.30702 0.21266 0.0
H90 H 0.28936 0.38146 0.26486 0.0
H91 H 0.29527 0.35037 0.26881 0.0
H92 H 0.26734 0.36205 0.27922 0.0
H93 H 0.17156 0.33647 0.38747 0.0
H94 H 0.17578 0.31604 0.43311 0.0
H95 H 0.19623 0.30437 0.40851 0.0
H96 H 0.17011 0.28795 0.4169 0.0
H97 H 0.16526 0.28107 0.32225 0.0
H98 H 0.20721 0.3283 0.37074 0.0
H99 H 0.2104 0.25924 0.281 0.0
H100 H 0.19908 0.28404 0.26246 0.0
H101 H 0.17907 0.26485 0.28071 0.0
H102 H 0.24598 0.338 0.35975 0.0
H103 H 0.24904 0.34188 0.32317 0.0
H104 H 0.26154 0.31645 0.3394 0.0
H105 H 0.34465 0.21781 0.27557 0.0
H106 H 0.32871 0.28566 0.21949 0.0
H107 H 0.2983 0.31462 0.21761 0.0
H108 H 0.22788 0.33047 0.26921 0.0
H109 H 0.24451 0.26354 0.32696 0.0
H110 H 0.27503 0.23418 0.32864 0.0
H111 H 0.30981 0.37264 0.11733 0.0
H112 H 0.30912 0.36053 0.15141 0.0
H113 H 0.31456 0.39152 0.14697 0.0
C114 C 0.68018 0.16846 0.09514 0.0
C115 C 0.65979 0.17242 0.11525 0.0
C116 C 0.67486 0.19844 0.15193 0.0
C117 C 0.67114 0.22025 0.16441 0.0
C118 C 0.68306 0.22655 0.18848 0.0
C119 C 0.69995 0.21091 0.19973 0.0
C120 C 0.704 0.18882 0.18706 0.0
C121 C 0.69117 0.18265 0.16347 0.0
C122 C 0.67738 0.24983 0.20193 0.0
C123 C 0.72188 0.17172 0.19845 0.0
C124 C 0.6806 0.18854 0.41809 0.0
C125 C 0.6897 0.17128 0.39637 0.0
C126 C 0.68582 0.18268 0.34862 0.0
C127 C 0.70697 0.17405 0.33763 0.0
C128 C 0.71641 0.18364 0.31342 0.0
C129 C 0.70464 0.20257 0.30029 0.0
C130 C 0.68302 0.21093 0.3111 0.0
C131 C 0.6737 0.20058 0.33493 0.0
C132 C 0.73894 0.17358 0.30189 0.0
C133 C 0.66987 0.23098 0.29766 0.0
C134 C 0.82039 0.29749 0.35505 0.0
C135 C 0.82876 0.27902 0.33858 0.0
C136 C 0.81848 0.27434 0.31296 0.0
C137 C 0.7995 0.28845 0.3037 0.0
C138 C 0.79181 0.30777 0.31969 0.0
C139 C 0.80256 0.31217 0.34511 0.0
C140 C 0.8276 0.25407 0.29599 0.0
C141 C 0.77181 0.32331 0.31026 0.0
C142 C 0.80889 0.32908 0.08979 0.0
C143 C 0.79778 0.34425 0.11227 0.0
C144 C 0.80407 0.32929 0.15832 0.0
C145 C 0.81935 0.31237 0.1691 0.0
C146 C 0.81263 0.2983 0.19153 0.0
C147 C 0.79035 0.30188 0.20398 0.0
C148 C 0.77516 0.31965 0.19365 0.0
C149 C 0.7821 0.33298 0.17072 0.0
C150 C 0.82934 0.27958 0.20183 0.0
C151 C 0.7517 0.32481 0.207 0.0
C152 C 0.7126 0.21733 0.22533 0.0
C153 C 0.70486 0.2071 0.24984 0.0
C154 C 0.71467 0.21345 0.27506 0.0
C155 C 0.73287 0.2305 0.27597 0.0
C156 C 0.74298 0.23756 0.30098 0.0
C157 C 0.76088 0.25431 0.30165 0.0
C158 C 0.76903 0.26504 0.27739 0.0
C159 C 0.78704 0.28226 0.27793 0.0
C160 C 0.79367 0.2937 0.25372 0.0
C161 C 0.78336 0.28786 0.22854 0.0
C162 C 0.76633 0.26962 0.22737 0.0
C163 C 0.75666 0.26214 0.20228 0.0
C164 C 0.73941 0.24468 0.20148 0.0
C165 C 0.73093 0.23425 0.22577 0.0
C166 C 0.74095 0.24099 0.25122 0.0
C167 C 0.75882 0.25852 0.25198 0.0
C168 C 0.82266 0.28719 0.42557 0.0
C169 C 0.83685 0.28482 0.39904 0.0
O170 O 0.66253 0.19375 0.1287 0.0
O171 O 0.81094 0.34205 0.13612 0.0
O172 O 0.8291 0.30171 0.38051 0.0
O173 O 0.67681 0.17408 0.37243 0.0
H174 H 0.65927 0.15774 0.13044 0.0
H175 H 0.69725 0.16785 0.10618 0.0
H176 H 0.681 0.18295 0.07979 0.0
H177 H 0.67784 0.15145 0.08421 0.0
H178 H 0.65846 0.23226 0.15537 0.0
H179 H 0.69419 0.16566 0.1541 0.0
H180 H 0.67509 0.24755 0.22442 0.0
H181 H 0.66112 0.25791 0.19339 0.0
H182 H 0.69218 0.26229 0.19862 0.0
H183 H 0.72529 0.15681 0.18424 0.0
H184 H 0.71533 0.16445 0.21819 0.0
H185 H 0.73878 0.18091 0.20266 0.0
H186 H 0.7085 0.17625 0.393 0.0
H187 H 0.66133 0.18653 0.42129 0.0
H188 H 0.68397 0.20691 0.41123 0.0
H189 H 0.68989 0.18571 0.4379 0.0
H190 H 0.71596 0.15969 0.3479 0.0
H191 H 0.65725 0.20691 0.34348 0.0
H192 H 0.73674 0.16959 0.27972 0.0
H193 H 0.74446 0.15726 0.31273 0.0
H194 H 0.75326 0.1868 0.30378 0.0
H195 H 0.65468 0.23704 0.31019 0.0
H196 H 0.66318 0.22521 0.27734 0.0
H197 H 0.68192 0.24612 0.29415 0.0
H198 H 0.83345 0.26671 0.39117 0.0
H199 H 0.84331 0.26827 0.34566 0.0
H200 H 0.79655 0.32665 0.35779 0.0
H201 H 0.8138 0.24027 0.29447 0.0
H202 H 0.84373 0.24605 0.30495 0.0
H203 H 0.8316 0.26016 0.27482 0.0
H204 H 0.7678 0.33754 0.32518 0.0
H205 H 0.75571 0.31249 0.30719 0.0
H206 H 0.77632 0.33144 0.29019 0.0
H207 H 0.77958 0.33738 0.1155 0.0
H208 H 0.79859 0.33056 0.07047 0.0
H209 H 0.80896 0.3103 0.09629 0.0
H210 H 0.82737 0.3346 0.08579 0.0
H211 H 0.83638 0.30984 0.15947 0.0
H212 H 0.77058 0.34657 0.1627 0.0
H213 H 0.81984 0.26266 0.20487 0.0
H214 H 0.8366 0.28503 0.222 0.0
H215 H 0.84428 0.27664 0.1875 0.0
H216 H 0.74366 0.34132 0.19909 0.0
H217 H 0.75377 0.32631 0.2296 0.0
H218 H 0.73935 0.31007 0.2029 0.0
H219 H 0.69061 0.19435 0.24934 0.0
H220 H 0.73723 0.23015 0.32034 0.0
H221 H 0.76804 0.25895 0.32152 0.0
H222 H 0.80699 0.3074 0.25451 0.0
H223 H 0.76234 0.26973 0.18298 0.0
H224 H 0.73262 0.23963 0.18158 0.0
H225 H 0.82836 0.27372 0.44076 0.0
H226 H 0.80364 0.28447 0.42122 0.0
H227 H 0.82499 0.30501 0.43463 0.0
C228 C 0.72683 0.91185 0.30838 0.0
C229 C 0.72481 0.89543 0.33322 0.0
C230 C 0.74033 0.8572 0.32138 0.0
C231 C 0.72337 0.84146 0.33139 0.0
C232 C 0.71983 0.81953 0.31875 0.0
C233 C 0.73335 0.81347 0.29536 0.0
C234 C 0.75096 0.82915 0.28572 0.0
C235 C 0.7545 0.8507 0.29924 0.0
C236 C 0.70125 0.80316 0.33003 0.0
C237 C 0.7655 0.82355 0.26062 0.0
C238 C 0.58899 0.74323 0.20037 0.0
C239 C 0.60489 0.75329 0.17775 0.0
C240 C 0.63753 0.77201 0.20137 0.0
C241 C 0.65857 0.77839 0.18847 0.0
C242 C 0.67992 0.77868 0.20309 0.0
C243 C 0.68003 0.77232 0.23121 0.0
C244 C 0.65863 0.76626 0.24438 0.0
C245 C 0.63754 0.76657 0.22937 0.0
C246 C 0.70231 0.78575 0.18858 0.0
C247 C 0.658 0.75959 0.27437 0.0
C248 C 0.7455 0.63785 0.1903 0.0
C249 C 0.76063 0.6563 0.18259 0.0
C250 C 0.76741 0.67354 0.20165 0.0
C251 C 0.75897 0.67223 0.22894 0.0
C252 C 0.74492 0.65286 0.23713 0.0
C253 C 0.73856 0.63576 0.21769 0.0
C254 C 0.78295 0.69363 0.19242 0.0
C255 C 0.73585 0.65077 0.26613 0.0
C256 C 0.84331 0.71059 0.40815 0.0
C257 C 0.85936 0.69621 0.38904 0.0
C258 C 0.84218 0.70548 0.34377 0.0
C259 C 0.84557 0.71799 0.31936 0.0
C260 C 0.82787 0.71915 0.29923 0.0
C261 C 0.80599 0.70787 0.30398 0.0
C262 C 0.80263 0.69465 0.32831 0.0
C263 C 0.82085 0.69328 0.34773 0.0
C264 C 0.83243 0.73273 0.27312 0.0
C265 C 0.77964 0.68216 0.33399 0.0
C266 C 0.72804 0.79153 0.27991 0.0
C267 C 0.7082 0.79152 0.26285 0.0
C268 C 0.70243 0.77185 0.24698 0.0
C269 C 0.71731 0.75187 0.24724 0.0
C270 C 0.71255 0.73218 0.23069 0.0
C271 C 0.72747 0.71276 0.23074 0.0
C272 C 0.74745 0.71202 0.24783 0.0
C273 C 0.76273 0.69233 0.24793 0.0
C274 C 0.78188 0.69169 0.26598 0.0
C275 C 0.78633 0.71038 0.284 0.0
C276 C 0.77165 0.73059 0.28352 0.0
C277 C 0.77576 0.74991 0.30097 0.0
C278 C 0.76155 0.76991 0.29981 0.0
C279 C 0.7424 0.77119 0.28156 0.0
C280 C 0.73732 0.75152 0.26466 0.0
C281 C 0.75219 0.73138 0.2653 0.0
C282 C 0.70287 0.62843 0.14555 0.0
C283 C 0.72983 0.6266 0.14548 0.0
O284 O 0.74284 0.87896 0.33242 0.0
O285 O 0.85972 0.70595 0.36289 0.0
O286 O 0.73743 0.62174 0.17196 0.0
O287 O 0.61705 0.77291 0.18715 0.0
H288 H 0.70735 0.88651 0.33187 0.0
H289 H 0.72514 0.90148 0.28915 0.0
H290 H 0.74415 0.92097 0.30822 0.0
H291 H 0.71253 0.92523 0.30877 0.0
H292 H 0.71279 0.84647 0.34897 0.0
H293 H 0.76766 0.86301 0.29187 0.0
H294 H 0.68552 0.80381 0.31652 0.0
H295 H 0.69573 0.80823 0.3511 0.0
H296 H 0.70776 0.78471 0.33039 0.0
H297 H 0.77671 0.83863 0.25419 0.0
H298 H 0.75383 0.81862 0.24325 0.0
H299 H 0.77711 0.80826 0.26498 0.0
H300 H 0.61773 0.73945 0.17141 0.0
H301 H 0.5781 0.75742 0.20966 0.0
H302 H 0.5998 0.73474 0.21656 0.0
H303 H 0.57712 0.72942 0.192 0.0
H304 H 0.6582 0.78318 0.16693 0.0
H305 H 0.62103 0.76289 0.23962 0.0
H306 H 0.71462 0.77056 0.18806 0.0
H307 H 0.71114 0.80017 0.20003 0.0
H308 H 0.69902 0.7917 0.16719 0.0
H309 H 0.64024 0.75366 0.28103 0.0
H310 H 0.6632 0.77502 0.28696 0.0
H311 H 0.67086 0.74527 0.27851 0.0
H312 H 0.7363 0.64403 0.13825 0.0
H313 H 0.76713 0.65735 0.16175 0.0
H314 H 0.72733 0.62115 0.22356 0.0
H315 H 0.77265 0.71027 0.19259 0.0
H316 H 0.79003 0.69087 0.17141 0.0
H317 H 0.79792 0.69583 0.20687 0.0
H318 H 0.72562 0.63432 0.26945 0.0
H319 H 0.72439 0.66609 0.27091 0.0
H320 H 0.75085 0.6511 0.28073 0.0
H321 H 0.85272 0.67779 0.38791 0.0
H322 H 0.84387 0.70321 0.42928 0.0
H323 H 0.82475 0.7101 0.40113 0.0
H324 H 0.84898 0.72933 0.40882 0.0
H325 H 0.86214 0.7271 0.31622 0.0
H326 H 0.81804 0.68292 0.36607 0.0
H327 H 0.82176 0.74913 0.27315 0.0
H328 H 0.827 0.72218 0.25501 0.0
H329 H 0.85129 0.73763 0.27086 0.0
H330 H 0.77897 0.67454 0.35499 0.0
H331 H 0.77728 0.66768 0.31895 0.0
H332 H 0.76464 0.69454 0.33148 0.0
H333 H 0.69696 0.80698 0.26209 0.0
H334 H 0.69738 0.73164 0.21724 0.0
H335 H 0.72299 0.69825 0.21731 0.0
H336 H 0.79333 0.67637 0.26619 0.0
H337 H 0.79016 0.74992 0.31553 0.0
H338 H 0.76569 0.78434 0.31351 0.0
H339 H 0.69618 0.63211 0.12455 0.0
H340 H 0.69735 0.64321 0.15904 0.0
H341 H 0.6948 0.61198 0.1536 0.0
C342 C 0.34253 0.87005 0.10323 0.0
C343 C 0.34916 0.84647 0.11645 0.0
C344 C 0.31936 0.8219 0.1379 0.0
C345 C 0.33259 0.80868 0.15665 0.0
C346 C 0.3219 0.7989 0.18003 0.0
C347 C 0.29763 0.80303 0.18502 0.0
C348 C 0.28426 0.81627 0.16583 0.0
C349 C 0.29524 0.82494 0.14208 0.0
C350 C 0.3367 0.78463 0.1997 0.0
C351 C 0.25862 0.8221 0.17072 0.0
C352 C 0.32193 0.90759 0.31893 0.0
C353 C 0.30133 0.89809 0.33603 0.0
C354 C 0.29745 0.85706 0.32159 0.0
C355 C 0.27685 0.85883 0.30574 0.0
C356 C 0.27145 0.84181 0.2859 0.0
C357 C 0.28668 0.82232 0.28229 0.0
C358 C 0.30681 0.81984 0.29915 0.0
C359 C 0.31186 0.83724 0.31875 0.0
C360 C 0.24961 0.84486 0.26853 0.0
C361 C 0.32313 0.79903 0.2961 0.0
C362 C 0.17225 0.7307 0.34468 0.0
C363 C 0.16671 0.74854 0.32582 0.0
C364 C 0.17859 0.7501 0.30063 0.0
C365 C 0.19639 0.73347 0.29429 0.0
C366 C 0.20129 0.71489 0.31281 0.0
C367 C 0.18891 0.71361 0.3377 0.0
C368 C 0.17237 0.76972 0.28097 0.0
C369 C 0.21998 0.69677 0.30656 0.0
C370 C 0.18662 0.68934 0.07782 0.0
C371 C 0.19381 0.67532 0.10332 0.0
C372 C 0.18803 0.69185 0.14873 0.0
C373 C 0.17637 0.7114 0.15949 0.0
C374 C 0.18504 0.72302 0.18279 0.0
C375 C 0.20546 0.71428 0.19609 0.0
C376 C 0.21662 0.69371 0.18605 0.0
C377 C 0.2079 0.68281 0.16227 0.0
C378 C 0.17251 0.74479 0.19296 0.0
C379 C 0.23783 0.68336 0.20034 0.0
C380 C 0.28692 0.79581 0.21159 0.0
C381 C 0.29266 0.80927 0.23464 0.0
C382 C 0.28193 0.80521 0.25998 0.0
C383 C 0.2652 0.78695 0.26276 0.0
C384 C 0.25424 0.78235 0.28807 0.0
C385 C 0.23669 0.76537 0.29024 0.0
C386 C 0.22936 0.75242 0.26717 0.0
C387 C 0.2105 0.73621 0.26883 0.0
C388 C 0.20372 0.72351 0.2456 0.0
C389 C 0.21505 0.72681 0.22039 0.0
C390 C 0.23387 0.74311 0.21824 0.0
C391 C 0.24555 0.74712 0.19318 0.0
C392 C 0.26348 0.76381 0.19113 0.0
C393 C 0.26997 0.77758 0.21386 0.0
C394 C 0.2589 0.77335 0.23951 0.0
C395 C 0.24089 0.75607 0.24171 0.0
C396 C 0.17657 0.7483 0.40905 0.0
C397 C 0.15723 0.7478 0.38719 0.0
O398 O 0.3295 0.83196 0.11562 0.0
O399 O 0.1798 0.68213 0.1252 0.0
O400 O 0.16144 0.72915 0.36945 0.0
O401 O 0.30387 0.87399 0.33983 0.0
H402 H 0.35435 0.85012 0.13811 0.0
H403 H 0.32692 0.87759 0.11383 0.0
H404 H 0.33811 0.86756 0.08119 0.0
H405 H 0.35718 0.88293 0.10497 0.0
H406 H 0.35123 0.80604 0.15293 0.0
H407 H 0.28525 0.8351 0.12725 0.0
H408 H 0.34054 0.79539 0.21818 0.0
H409 H 0.35372 0.77919 0.19039 0.0
H410 H 0.32701 0.76864 0.20648 0.0
H411 H 0.25226 0.83624 0.15678 0.0
H412 H 0.25572 0.82781 0.19225 0.0
H413 H 0.24773 0.80618 0.16709 0.0
H414 H 0.28502 0.90224 0.32445 0.0
H415 H 0.32069 0.92707 0.31696 0.0
H416 H 0.32135 0.89985 0.29801 0.0
H417 H 0.33912 0.90292 0.32837 0.0
H418 H 0.26476 0.8733 0.3088 0.0
H419 H 0.32747 0.83578 0.33146 0.0
H420 H 0.25436 0.84451 0.24642 0.0
H421 H 0.24027 0.86164 0.27293 0.0
H422 H 0.2373 0.83002 0.27236 0.0
H423 H 0.33705 0.79874 0.31212 0.0
H424 H 0.33169 0.79967 0.27562 0.0
H425 H 0.3129 0.78237 0.29724 0.0
H426 H 0.15777 0.76495 0.37614 0.0
H427 H 0.15296 0.76112 0.33058 0.0
H428 H 0.19267 0.69963 0.35223 0.0
H429 H 0.1873 0.78231 0.27962 0.0
H430 H 0.1564 0.77954 0.28753 0.0
H431 H 0.16934 0.76251 0.2601 0.0
H432 H 0.22198 0.68365 0.32335 0.0
H433 H 0.23717 0.70568 0.30321 0.0
H434 H 0.21542 0.68733 0.28733 0.0
H435 H 0.21263 0.67982 0.10729 0.0
H436 H 0.19759 0.68408 0.05994 0.0
H437 H 0.18932 0.70846 0.08156 0.0
H438 H 0.16775 0.6864 0.07281 0.0
H439 H 0.16087 0.718 0.14902 0.0
H440 H 0.21646 0.66718 0.15432 0.0
H441 H 0.18529 0.75937 0.19605 0.0
H442 H 0.16419 0.74095 0.21309 0.0
H443 H 0.15858 0.75082 0.17854 0.0
H444 H 0.24288 0.66595 0.19174 0.0
H445 H 0.23419 0.68129 0.22261 0.0
H446 H 0.25301 0.69554 0.19818 0.0
H447 H 0.30501 0.82378 0.23258 0.0
H448 H 0.25894 0.79202 0.30641 0.0
H449 H 0.22871 0.76276 0.3102 0.0
H450 H 0.18897 0.71139 0.24696 0.0
H451 H 0.24088 0.73749 0.1748 0.0
H452 H 0.27188 0.76614 0.17135 0.0
H453 H 0.17374 0.76325 0.4234 0.0
H454 H 0.19403 0.75062 0.39908 0.0
H455 H 0.17675 0.73155 0.4209 0.0
C456 C 0.15303 0.64244 0.65856 0.0
C457 C 0.14872 0.66834 0.65098 0.0
C458 C 0.18527 0.68947 0.65893 0.0
C459 C 0.17791 0.70731 0.67689 0.0
C460 C 0.1937 0.71733 0.69571 0.0
C461 C 0.21732 0.70934 0.69652 0.0
C462 C 0.2251 0.69233 0.67734 0.0
C463 C 0.20897 0.6828 0.6585 0.0
C464 C 0.18491 0.73581 0.71547 0.0
C465 C 0.25017 0.68351 0.67757 0.0
C466 C 0.22591 0.61771 0.88808 0.0
C467 C 0.22069 0.63817 0.87003 0.0
C468 C 0.24078 0.6637 0.83728 0.0
C469 C 0.26132 0.66551 0.82169 0.0
C470 C 0.26235 0.68022 0.79857 0.0
C471 C 0.24258 0.6943 0.79168 0.0
C472 C 0.22187 0.69297 0.80781 0.0
C473 C 0.22107 0.67743 0.83022 0.0
C474 C 0.28454 0.68041 0.78145 0.0
C475 C 0.20056 0.70793 0.80142 0.0
C476 C 0.33626 0.80925 0.84015 0.0
C477 C 0.34526 0.79084 0.82416 0.0
C478 C 0.33526 0.78546 0.7986 0.0
C479 C 0.31554 0.79851 0.78924 0.0
C480 C 0.30728 0.81791 0.80473 0.0
C481 C 0.31802 0.82325 0.82993 0.0
C482 C 0.34522 0.76528 0.78212 0.0
C483 C 0.28649 0.83235 0.79525 0.0
C484 C 0.31286 0.82762 0.56622 0.0
C485 C 0.30429 0.8397 0.59245 0.0
C486 C 0.31414 0.82649 0.63855 0.0
C487 C 0.32896 0.80996 0.65084 0.0
C488 C 0.32296 0.79943 0.67594 0.0
C489 C 0.30193 0.80625 0.68941 0.0
C490 C 0.28747 0.82396 0.67774 0.0
C491 C 0.29362 0.83376 0.65224 0.0
C492 C 0.33895 0.78077 0.68784 0.0
C493 C 0.26547 0.83237 0.69211 0.0
C494 C 0.23278 0.7166 0.71961 0.0
C495 C 0.23133 0.70341 0.74379 0.0
C496 C 0.24355 0.71013 0.76739 0.0
C497 C 0.25715 0.73097 0.76719 0.0
C498 C 0.26801 0.73936 0.79118 0.0
C499 C 0.28232 0.75922 0.79052 0.0
C500 C 0.28666 0.77122 0.76575 0.0
C501 C 0.30236 0.79056 0.76459 0.0
C502 C 0.3064 0.80199 0.73962 0.0
C503 C 0.29513 0.79465 0.71556 0.0
C504 C 0.27905 0.77556 0.71639 0.0
C505 C 0.26704 0.76789 0.69272 0.0
C506 C 0.25142 0.74894 0.69381 0.0
C507 C 0.24791 0.73639 0.71835 0.0
C508 C 0.25999 0.74369 0.74236 0.0
C509 C 0.27512 0.76361 0.74152 0.0
C510 C 0.32813 0.80146 0.90837 0.0
C511 C 0.3464 0.79643 0.88605 0.0
O512 O 0.1698 0.67823 0.6422 0.0
O513 O 0.32006 0.83499 0.61345 0.0
O514 O 0.34459 0.81348 0.86574 0.0
O515 O 0.24063 0.64841 0.85874 0.0
H516 H 0.14234 0.67698 0.67008 0.0
H517 H 0.16587 0.64142 0.67574 0.0
H518 H 0.16049 0.63262 0.64086 0.0
H519 H 0.1364 0.63397 0.66546 0.0
H520 H 0.15975 0.71317 0.67645 0.0
H521 H 0.21455 0.66928 0.64421 0.0
H522 H 0.18495 0.7285 0.73662 0.0
H523 H 0.16675 0.74177 0.71049 0.0
H524 H 0.19686 0.7513 0.71526 0.0
H525 H 0.25387 0.67137 0.66023 0.0
H526 H 0.25363 0.67407 0.69714 0.0
H527 H 0.26257 0.69862 0.67649 0.0
H528 H 0.20804 0.65118 0.87879 0.0
H529 H 0.21111 0.58878 0.86688 0.0
H530 H 0.21977 0.62326 0.90909 0.0
H531 H 0.24522 0.6188 0.89342 0.0
H532 H 0.2764 0.65481 0.82729 0.0
H533 H 0.20511 0.67633 0.8423 0.0
H534 H 0.29457 0.6968 0.78562 0.0
H535 H 0.28022 0.68009 0.75922 0.0
H536 H 0.29615 0.66517 0.7862 0.0
H537 H 0.18752 0.7078 0.81842 0.0
H538 H 0.19182 0.70108 0.78267 0.0
H539 H 0.2059 0.72643 0.7973 0.0
H540 H 0.34231 0.77862 0.87764 0.0
H541 H 0.35991 0.78053 0.83188 0.0
H542 H 0.3115 0.83766 0.84236 0.0
H543 H 0.3332 0.7499 0.78364 0.0
H544 H 0.36288 0.75982 0.78964 0.0
H545 H 0.34661 0.7702 0.76011 0.0
H546 H 0.28198 0.84664 0.8099 0.0
H547 H 0.27087 0.82077 0.79266 0.0
H548 H 0.29043 0.84035 0.77495 0.0
H549 H 0.28673 0.83186 0.59717 0.0
H550 H 0.30047 0.83118 0.54904 0.0
H551 H 0.31371 0.80827 0.56952 0.0
H552 H 0.33071 0.83395 0.56043 0.0
H553 H 0.34491 0.80474 0.64022 0.0
H554 H 0.28251 0.84716 0.64309 0.0
H555 H 0.32867 0.76465 0.69275 0.0
H556 H 0.34676 0.78731 0.70728 0.0
H557 H 0.35349 0.77597 0.67364 0.0
H558 H 0.25758 0.84799 0.68185 0.0
H559 H 0.26953 0.83694 0.71376 0.0
H560 H 0.25221 0.818 0.69239 0.0
H561 H 0.22045 0.68768 0.74427 0.0
H562 H 0.26559 0.73062 0.81075 0.0
H563 H 0.29022 0.76479 0.80967 0.0
H564 H 0.31886 0.81648 0.73879 0.0
H565 H 0.26949 0.77653 0.67311 0.0
H566 H 0.24253 0.74388 0.67506 0.0
H567 H 0.32916 0.78791 0.92483 0.0
H568 H 0.31015 0.80096 0.89938 0.0
H569 H 0.33104 0.81915 0.91752 0.0
C570 C 0.15259 0.37622 0.86117 0.0
C571 C 0.17372 0.37073 0.87975 0.0
C572 C 0.19579 0.34462 0.8485 0.0
C573 C 0.18223 0.32418 0.8525 0.0
C574 C 0.18489 0.30461 0.83517 0.0
C575 C 0.20115 0.30562 0.81317 0.0
C576 C 0.21532 0.3259 0.8096 0.0
C577 C 0.21264 0.34502 0.82759 0.0
C578 C 0.1699 0.28303 0.84001 0.0
C579 C 0.23277 0.32763 0.78632 0.0
C580 C 0.09747 0.22466 0.67314 0.0
C581 C 0.11087 0.24274 0.65564 0.0
C582 C 0.13027 0.26605 0.69016 0.0
C583 C 0.15308 0.27328 0.68347 0.0
C584 C 0.1704 0.27537 0.7039 0.0
C585 C 0.16473 0.26945 0.7314 0.0
C586 C 0.14135 0.26294 0.73823 0.0
C587 C 0.12427 0.26172 0.71749 0.0
C588 C 0.19485 0.2833 0.69595 0.0
C589 C 0.13447 0.25682 0.76729 0.0
C590 C 0.23834 0.13972 0.69641 0.0
C591 C 0.25328 0.15889 0.69088 0.0
C592 C 0.25806 0.17576 0.71115 0.0
C593 C 0.24777 0.17331 0.73744 0.0
C594 C 0.23412 0.15313 0.74361 0.0
C595 C 0.22974 0.13645 0.72299 0.0
C596 C 0.27329 0.19673 0.70417 0.0
C597 C 0.22322 0.14981 0.77159 0.0
C598 C 0.33178 0.20997 0.91797 0.0
C599 C 0.34736 0.19876 0.89576 0.0
C600 C 0.32623 0.20989 0.85332 0.0
C601 C 0.32721 0.22435 0.83013 0.0
C602 C 0.30866 0.22497 0.81112 0.0
C603 C 0.28835 0.21106 0.81579 0.0
C604 C 0.28728 0.19619 0.83909 0.0
C605 C 0.30635 0.19552 0.85746 0.0
C606 C 0.31081 0.24047 0.78604 0.0
C607 C 0.26596 0.18101 0.84463 0.0
C608 C 0.20187 0.28626 0.7927 0.0
C609 C 0.18492 0.28659 0.77185 0.0
C610 C 0.18352 0.26843 0.7526 0.0
C611 C 0.19948 0.24934 0.75404 0.0
C612 C 0.19797 0.23033 0.73565 0.0
C613 C 0.21402 0.21189 0.73674 0.0
C614 C 0.23221 0.21166 0.75635 0.0
C615 C 0.24886 0.19314 0.75722 0.0
C616 C 0.26683 0.19345 0.77678 0.0
C617 C 0.26847 0.21171 0.79599 0.0
C618 C 0.25168 0.2302 0.79576 0.0
C619 C 0.25231 0.24851 0.81522 0.0
C620 C 0.23592 0.26681 0.81444 0.0
C621 C 0.21841 0.26761 0.79404 0.0
C622 C 0.21724 0.24914 0.77451 0.0
C623 C 0.23373 0.23033 0.77555 0.0
C624 C 0.19939 0.13863 0.64991 0.0
C625 C 0.22513 0.13029 0.65012 0.0
O626 O 0.19311 0.36436 0.864 0.0
O627 O 0.34476 0.2106 0.87102 0.0
O628 O 0.23173 0.12424 0.67661 0.0
O629 O 0.11389 0.26347 0.67026 0.0
H630 H 0.16913 0.35615 0.89405 0.0
H631 H 0.14747 0.3604 0.84921 0.0
H632 H 0.15703 0.39063 0.84658 0.0
H633 H 0.13714 0.38164 0.87367 0.0
H634 H 0.16943 0.32338 0.86891 0.0
H635 H 0.22319 0.36077 0.82483 0.0
H636 H 0.15661 0.28159 0.82341 0.0
H637 H 0.16053 0.28371 0.86001 0.0
H638 H 0.18096 0.26688 0.83941 0.0
H639 H 0.24229 0.34474 0.78619 0.0
H640 H 0.22348 0.3255 0.76642 0.0
H641 H 0.24587 0.31317 0.78797 0.0
H642 H 0.12846 0.23531 0.65023 0.0
H643 H 0.09422 0.20824 0.66134 0.0
H644 H 0.0803 0.23203 0.67997 0.0
H645 H 0.10802 0.21979 0.69148 0.0
H646 H 0.15731 0.27706 0.66222 0.0
H647 H 0.10633 0.25671 0.72239 0.0
H648 H 0.20686 0.26786 0.69575 0.0
H649 H 0.2018 0.29612 0.71113 0.0
H650 H 0.19517 0.29153 0.67525 0.0
H651 H 0.11641 0.24933 0.76856 0.0
H652 H 0.13509 0.273 0.78004 0.0
H653 H 0.14709 0.24395 0.77618 0.0
H654 H 0.23569 0.14536 0.64232 0.0
H655 H 0.26117 0.16085 0.6708 0.0
H656 H 0.21867 0.12131 0.7272 0.0
H657 H 0.26226 0.2129 0.70388 0.0
H658 H 0.28197 0.19486 0.68385 0.0
H659 H 0.28705 0.19917 0.72012 0.0
H660 H 0.21429 0.13247 0.77366 0.0
H661 H 0.21011 0.16398 0.77534 0.0
H662 H 0.23699 0.15126 0.78768 0.0
H663 H 0.34244 0.17992 0.89309 0.0
H664 H 0.33439 0.20078 0.9379 0.0
H665 H 0.31286 0.20862 0.91253 0.0
H666 H 0.33617 0.22893 0.92056 0.0
H667 H 0.34269 0.23521 0.82696 0.0
H668 H 0.30545 0.18384 0.87497 0.0
H669 H 0.29794 0.25514 0.78743 0.0
H670 H 0.30662 0.23024 0.76725 0.0
H671 H 0.32875 0.24811 0.78387 0.0
H672 H 0.26669 0.17245 0.86513 0.0
H673 H 0.26478 0.16705 0.82875 0.0
H674 H 0.24964 0.19177 0.84333 0.0
H675 H 0.17242 0.30104 0.77081 0.0
H676 H 0.18438 0.22944 0.7201 0.0
H677 H 0.21198 0.19787 0.72189 0.0
H678 H 0.27973 0.17933 0.77704 0.0
H679 H 0.26549 0.24888 0.83128 0.0
H680 H 0.23726 0.28044 0.8299 0.0
H681 H 0.19312 0.1412 0.62852 0.0
H682 H 0.198 0.15577 0.6608 0.0
H683 H 0.18779 0.12584 0.66066 0.0
C684 C 0.89383 0.37129 0.66212 0.0
C685 C 0.89148 0.34512 0.65475 0.0
C686 C 0.85291 0.32898 0.66657 0.0
C687 C 0.85978 0.30957 0.6826 0.0
C688 C 0.8441 0.29933 0.70145 0.0
C689 C 0.82107 0.30859 0.70412 0.0
C690 C 0.81376 0.3274 0.68702 0.0
C691 C 0.82975 0.33718 0.66821 0.0
C692 C 0.85222 0.27886 0.71883 0.0
C693 C 0.78927 0.33758 0.68919 0.0
C694 C 0.85153 0.35251 0.89785 0.0
C695 C 0.83027 0.35999 0.88062 0.0
C696 C 0.80915 0.33174 0.85281 0.0
C697 C 0.79855 0.34594 0.83281 0.0
C698 C 0.79233 0.33655 0.80717 0.0
C699 C 0.79747 0.31263 0.80133 0.0
C700 C 0.80825 0.29833 0.82165 0.0
C701 C 0.81336 0.30799 0.84744 0.0
C702 C 0.78045 0.35224 0.78632 0.0
C703 C 0.8149 0.273 0.81607 0.0
C704 C 0.67162 0.22302 0.81929 0.0
C705 C 0.66807 0.24176 0.80104 0.0
C706 C 0.68331 0.24527 0.77874 0.0
C707 C 0.70267 0.22985 0.77496 0.0
C708 C 0.70555 0.21021 0.79262 0.0
C709 C 0.68974 0.20689 0.81447 0.0
C710 C 0.67921 0.26592 0.7598 0.0
C711 C 0.72587 0.19335 0.78907 0.0
C712 C 0.76315 0.18858 0.56595 0.0
C713 C 0.7576 0.17446 0.59192 0.0
C714 C 0.737 0.19379 0.63015 0.0
C715 C 0.72125 0.21227 0.63479 0.0
C716 C 0.72017 0.22356 0.66036 0.0
C717 C 0.73501 0.21583 0.68186 0.0
C718 C 0.74998 0.19618 0.67779 0.0
C719 C 0.75079 0.18529 0.65195 0.0
C720 C 0.70376 0.24422 0.66416 0.0
C721 C 0.76549 0.18704 0.7006 0.0
C722 C 0.80516 0.29971 0.72599 0.0
C723 C 0.80756 0.30943 0.75217 0.0
C724 C 0.79262 0.30281 0.77365 0.0
C725 C 0.77433 0.28642 0.76879 0.0
C726 C 0.7581 0.28039 0.78943 0.0
C727 C 0.74058 0.26375 0.78467 0.0
C728 C 0.73859 0.25248 0.75906 0.0
C729 C 0.72087 0.23546 0.75404 0.0
C730 C 0.72003 0.22387 0.72874 0.0
C731 C 0.73616 0.22926 0.70794 0.0
C732 C 0.75329 0.24702 0.71213 0.0
C733 C 0.76905 0.25366 0.69118 0.0
C734 C 0.7859 0.27108 0.69555 0.0
C735 C 0.7879 0.28224 0.72117 0.0
C736 C 0.77229 0.27573 0.74261 0.0
C737 C 0.75469 0.25841 0.73792 0.0
C738 C 0.67478 0.23286 0.88471 0.0
C739 C 0.65665 0.23794 0.8622 0.0
O740 O 0.86805 0.34007 0.64923 0.0
O741 O 0.73809 0.1845 0.60452 0.0
O742 O 0.65816 0.22071 0.84211 0.0
O743 O 0.81561 0.34066 0.87742 0.0
H744 H 0.89786 0.33546 0.67319 0.0
H745 H 0.88517 0.37461 0.6822 0.0
H746 H 0.88505 0.38263 0.6466 0.0
H747 H 0.91269 0.37633 0.6639 0.0
H748 H 0.87732 0.30234 0.68044 0.0
H749 H 0.82449 0.35186 0.65534 0.0
H750 H 0.85288 0.28433 0.74069 0.0
H751 H 0.86994 0.27242 0.71271 0.0
H752 H 0.83944 0.2641 0.71724 0.0
H753 H 0.78629 0.35218 0.67437 0.0
H754 H 0.78629 0.34432 0.7103 0.0
H755 H 0.77602 0.32357 0.68536 0.0
H756 H 0.83709 0.36602 0.86031 0.0
H757 H 0.8642 0.36732 0.90002 0.0
H758 H 0.86078 0.33764 0.88766 0.0
H759 H 0.84581 0.34668 0.9186 0.0
H760 H 0.79505 0.36429 0.83739 0.0
H761 H 0.82153 0.29725 0.86322 0.0
H762 H 0.79317 0.35666 0.76979 0.0
H763 H 0.77408 0.36895 0.79559 0.0
H764 H 0.7653 0.34297 0.77675 0.0
H765 H 0.82709 0.26591 0.8319 0.0
H766 H 0.8234 0.2713 0.79564 0.0
H767 H 0.79878 0.26194 0.81603 0.0
H768 H 0.66093 0.25558 0.85342 0.0
H769 H 0.65357 0.25382 0.80454 0.0
H770 H 0.69208 0.19232 0.8286 0.0
H771 H 0.69293 0.2795 0.76349 0.0
H772 H 0.66164 0.2741 0.76305 0.0
H773 H 0.68067 0.26027 0.73805 0.0
H774 H 0.72581 0.17912 0.80475 0.0
H775 H 0.74279 0.20312 0.79049 0.0
H776 H 0.72506 0.18522 0.76838 0.0
H777 H 0.77347 0.17551 0.60528 0.0
H778 H 0.77903 0.18138 0.55556 0.0
H779 H 0.7667 0.20725 0.57141 0.0
H780 H 0.74803 0.18804 0.55146 0.0
H781 H 0.7103 0.21833 0.61798 0.0
H782 H 0.76212 0.17017 0.64892 0.0
H783 H 0.71413 0.26023 0.66921 0.0
H784 H 0.6917 0.24076 0.68166 0.0
H785 H 0.69304 0.24782 0.64554 0.0
H786 H 0.77457 0.17039 0.69494 0.0
H787 H 0.75482 0.18395 0.71937 0.0
H788 H 0.77902 0.20047 0.70569 0.0
H789 H 0.82138 0.32224 0.75593 0.0
H790 H 0.75876 0.28849 0.80952 0.0
H791 H 0.72872 0.25971 0.80144 0.0
H792 H 0.70666 0.21056 0.72517 0.0
H793 H 0.76847 0.24556 0.67109 0.0
H794 H 0.79753 0.27551 0.6787 0.0
H795 H 0.67377 0.24647 0.90105 0.0
H796 H 0.69283 0.23318 0.87588 0.0
H797 H 0.67169 0.21522 0.89399 0.0
C798 C 0.85374 0.64185 0.85794 0.0
C799 C 0.83142 0.64657 0.87484 0.0
C800 C 0.80967 0.67124 0.84158 0.0
C801 C 0.8216 0.69256 0.8464 0.0
C802 C 0.81816 0.71214 0.82914 0.0
C803 C 0.80285 0.71026 0.80628 0.0
C804 C 0.79079 0.68881 0.80146 0.0
C805 C 0.79406 0.66976 0.81949 0.0
C806 C 0.83107 0.7348 0.83522 0.0
C807 C 0.77482 0.68579 0.77694 0.0
C808 C 0.93746 0.75326 0.70877 0.0
C809 C 0.91847 0.74761 0.68747 0.0
C810 C 0.8805 0.76267 0.7011 0.0
C811 C 0.86486 0.74451 0.69429 0.0
C812 C 0.84381 0.74139 0.70901 0.0
C813 C 0.83859 0.75659 0.73123 0.0
C814 C 0.85426 0.77522 0.73777 0.0
C815 C 0.87484 0.77828 0.72219 0.0
C816 C 0.82735 0.72167 0.70107 0.0
C817 C 0.84966 0.79148 0.76168 0.0
C818 C 0.72934 0.86595 0.68451 0.0
C819 C 0.72472 0.84268 0.67687 0.0
C820 C 0.72626 0.8243 0.69617 0.0
C821 C 0.73319 0.82941 0.72348 0.0
C822 C 0.73734 0.85311 0.7313 0.0
C823 C 0.7349 0.87114 0.71177 0.0
C824 C 0.72069 0.79945 0.68728 0.0
C825 C 0.74457 0.85945 0.76017 0.0
C826 C 0.67257 0.79143 0.91729 0.0
C827 C 0.65706 0.8058 0.89762 0.0
C828 C 0.67136 0.79403 0.85189 0.0
C829 C 0.66605 0.78109 0.82828 0.0
C830 C 0.682 0.77975 0.80628 0.0
C831 C 0.7038 0.79171 0.80802 0.0
C832 C 0.7093 0.8049 0.83178 0.0
C833 C 0.69308 0.80591 0.85346 0.0
C834 C 0.67567 0.76548 0.78125 0.0
C835 C 0.73241 0.81794 0.83433 0.0
C836 C 0.80035 0.73027 0.78668 0.0
C837 C 0.81869 0.73421 0.76806 0.0
C838 C 0.81747 0.7523 0.74858 0.0
C839 C 0.79699 0.76643 0.74684 0.0
C840 C 0.79467 0.78402 0.72666 0.0
C841 C 0.77473 0.79828 0.72559 0.0
C842 C 0.75627 0.79546 0.74458 0.0
C843 C 0.73606 0.81012 0.74395 0.0
C844 C 0.7187 0.80756 0.76411 0.0
C845 C 0.72092 0.7908 0.785 0.0
C846 C 0.74039 0.77526 0.78519 0.0
C847 C 0.74267 0.7576 0.80531 0.0
C848 C 0.76219 0.74274 0.80575 0.0
C849 C 0.7803 0.74512 0.78625 0.0
C850 C 0.77847 0.76301 0.76597 0.0
C851 C 0.75826 0.77777 0.76508 0.0
C852 C 0.76398 0.90685 0.66961 0.0
C853 C 0.74898 0.89056 0.65155 0.0
O854 O 0.8127 0.65168 0.85745 0.0
O855 O 0.65515 0.79442 0.87252 0.0
O856 O 0.72889 0.88334 0.66543 0.0
O857 O 0.90139 0.76506 0.68793 0.0
H858 H 0.83452 0.66163 0.88896 0.0
H859 H 0.85848 0.65762 0.84561 0.0
H860 H 0.8509 0.62679 0.84377 0.0
H861 H 0.86887 0.63778 0.87163 0.0
H862 H 0.83357 0.69415 0.86356 0.0
H863 H 0.78489 0.65329 0.81595 0.0
H864 H 0.84505 0.73754 0.8196 0.0
H865 H 0.83943 0.7346 0.85583 0.0
H866 H 0.8188 0.75002 0.83401 0.0
H867 H 0.769 0.66723 0.77432 0.0
H868 H 0.78397 0.69155 0.75792 0.0
H869 H 0.75895 0.69701 0.77945 0.0
H870 H 0.91069 0.73027 0.69332 0.0
H871 H 0.9514 0.7395 0.70857 0.0
H872 H 0.92949 0.75371 0.72959 0.0
H873 H 0.94562 0.7707 0.70456 0.0
H874 H 0.86923 0.73275 0.67754 0.0
H875 H 0.88709 0.79231 0.72711 0.0
H876 H 0.80896 0.72828 0.69975 0.0
H877 H 0.82782 0.70776 0.71711 0.0
H878 H 0.83225 0.71359 0.68111 0.0
H879 H 0.8649 0.80318 0.76601 0.0
H880 H 0.84562 0.7811 0.78044 0.0
H881 H 0.83411 0.80268 0.75715 0.0
H882 H 0.75975 0.87475 0.64632 0.0
H883 H 0.72011 0.83895 0.65573 0.0
H884 H 0.73784 0.88932 0.7176 0.0
H885 H 0.73723 0.78908 0.68617 0.0
H886 H 0.71206 0.79895 0.66682 0.0
H887 H 0.70897 0.79077 0.7025 0.0
H888 H 0.75078 0.87797 0.76173 0.0
H889 H 0.75882 0.84757 0.76747 0.0
H890 H 0.72925 0.85722 0.77409 0.0
H891 H 0.66503 0.82353 0.89461 0.0
H892 H 0.67375 0.80038 0.93751 0.0
H893 H 0.69068 0.78961 0.90901 0.0
H894 H 0.66519 0.77347 0.92032 0.0
H895 H 0.64931 0.77195 0.82718 0.0
H896 H 0.69767 0.816 0.87147 0.0
H897 H 0.6895 0.75204 0.77738 0.0
H898 H 0.67497 0.77721 0.763 0.0
H899 H 0.65839 0.75646 0.78347 0.0
H900 H 0.73349 0.8285 0.85347 0.0
H901 H 0.73484 0.8299 0.81651 0.0
H902 H 0.7472 0.80513 0.83418 0.0
H903 H 0.8343 0.72318 0.76895 0.0
H904 H 0.80831 0.78699 0.7115 0.0
H905 H 0.77407 0.81168 0.70977 0.0
H906 H 0.70367 0.81938 0.76414 0.0
H907 H 0.72931 0.75503 0.82091 0.0
H908 H 0.76303 0.72951 0.82175 0.0
H909 H 0.75316 0.92165 0.67761 0.0
H910 H 0.779 0.91416 0.65769 0.0
H911 H 0.77149 0.89687 0.68714 0.0
C912 C 0.97347 0.32319 0.52284 0.0
C913 C 0.03475 0.30859 0.45474 0.0
O914 O 0.98456 0.33831 0.5085 0.0
Zn915 Zn 0.00281 0.31601 0.48778 0.0
O916 O 0.97724 0.3011 0.51903 0.0
Zn917 Zn 0.99923 0.27932 0.4927 0.0
O918 O 0.01727 0.26199 0.51931 0.0
O919 O 0.02375 0.3004 0.52023 0.0
O920 O 0.0261 0.28938 0.46423 0.0
O921 O 0.02612 0.32813 0.46243 0.0
O922 O 0.97558 0.3003 0.46312 0.0
O923 O 0.9766 0.26212 0.47124 0.0
C924 C 0.02755 0.27969 0.52987 0.0
C925 C 0.96732 0.27956 0.459 0.0
C926 C 0.75521 0.04511 0.52812 0.0
C927 C 0.74742 0.9832 0.45911 0.0
O928 O 0.77186 0.03395 0.51642 0.0
Zn929 Zn 0.75218 0.01311 0.49464 0.0
O930 O 0.73382 0.03915 0.52339 0.0
Zn931 Zn 0.7146 0.01445 0.49903 0.0
O932 O 0.69957 0.99445 0.52656 0.0
O933 O 0.73807 0.98934 0.52418 0.0
O934 O 0.72755 0.98995 0.46896 0.0
O935 O 0.7664 0.9922 0.46819 0.0
O936 O 0.73443 0.03792 0.46883 0.0
O937 O 0.69614 0.03627 0.47661 0.0
C938 C 0.71808 0.98386 0.5346 0.0
C939 C 0.71352 0.04535 0.46386 0.0
C940 C 0.98578 0.71346 0.54863 0.0
C941 C 0.04204 0.713 0.47298 0.0
O942 O 0.99511 0.7311 0.53674 0.0
Zn943 Zn 0.01279 0.71359 0.50967 0.0
O944 O 0.99025 0.69262 0.53986 0.0
Zn945 Zn 0.01091 0.67641 0.50806 0.0
O946 O 0.03194 0.65681 0.52912 0.0
O947 O 0.03803 0.6949 0.53494 0.0
O948 O 0.03508 0.69223 0.47951 0.0
O949 O 0.03312 0.73075 0.485 0.0
O950 O 0.98568 0.70002 0.48319 0.0
O951 O 0.98759 0.66127 0.48536 0.0
C952 C 0.04345 0.67342 0.54037 0.0
C953 C 0.97791 0.67974 0.47589 0.0
C954 C 0.27318 0.03359 0.5443 0.0
C955 C 0.2797 0.9784 0.46826 0.0
O956 O 0.29466 0.02892 0.53828 0.0
Zn957 Zn 0.31335 0.00693 0.51008 0.0
O958 O 0.25668 0.02331 0.53142 0.0
Zn959 Zn 0.27608 0.00526 0.50663 0.0
O960 O 0.29152 0.97858 0.532 0.0
O961 O 0.32989 0.9846 0.53316 0.0
O962 O 0.26091 0.98657 0.47883 0.0
O963 O 0.29982 0.98453 0.47795 0.0
O964 O 0.33124 0.02992 0.48943 0.0
O965 O 0.29293 0.03151 0.48157 0.0
C966 C 0.31207 0.97249 0.54033 0.0
C967 C 0.31385 0.03905 0.47685 0.0
C968 C 0.46902 0.81311 0.03894 0.0
C969 C 0.53258 0.79786 0.97421 0.0
O970 O 0.48358 0.82775 0.0288 0.0
Zn971 Zn 0.50083 0.80552 0.00692 0.0
O972 O 0.4707 0.79115 0.0329 0.0
Zn973 Zn 0.49334 0.76914 0.00789 0.0
O974 O 0.5086 0.7488 0.03427 0.0
O975 O 0.51932 0.78601 0.03797 0.0
O976 O 0.52191 0.77888 0.9813 0.0
O977 O 0.52585 0.81744 0.98406 0.0
O978 O 0.47422 0.79382 0.97824 0.0
O979 O 0.471 0.75529 0.98309 0.0
C980 C 0.52076 0.76457 0.04615 0.0
C981 C 0.46448 0.77425 0.97144 0.0
C982 C 0.20432 0.54465 0.04599 0.0
C983 C 0.18896 0.47744 0.98592 0.0
O984 O 0.22207 0.53877 0.03124 0.0
Zn985 Zn 0.2311 0.513 0.00114 0.0
O986 O 0.18535 0.5328 0.04444 0.0
Zn987 Zn 0.19605 0.51049 0.01691 0.0
O988 O 0.22177 0.48969 0.03806 0.0
O989 O 0.25633 0.49561 0.01844 0.0
O990 O 0.17481 0.4864 0.00326 0.0
O991 O 0.20984 0.48582 0.98351 0.0
O992 O 0.23781 0.5324 0.96947 0.0
O993 O 0.20039 0.53296 0.98179 0.0
C994 C 0.24394 0.48544 0.03668 0.0
C995 C 0.21692 0.5399 0.96575 0.0
C996 C 0.53866 0.22227 0.94938 0.0
C997 C 0.48697 0.23953 0.0265 0.0
O998 O 0.53029 0.24204 0.95674 0.0
Zn999 Zn 0.51164 0.23087 0.98694 0.0
O1000 O 0.53212 0.20346 0.96194 0.0
Zn1001 Zn 0.50945 0.19442 0.99602 0.0
O1002 O 0.4844 0.17575 0.97987 0.0
O1003 O 0.48294 0.21313 0.96776 0.0
O1004 O 0.49086 0.21736 0.02397 0.0
O1005 O 0.49568 0.25384 0.00918 0.0
O1006 O 0.53831 0.21727 0.0141 0.0
O1007 O 0.53177 0.17928 0.02037 0.0
C1008 C 0.47432 0.19228 0.96676 0.0
C1009 C 0.54415 0.19753 0.02504 0.0
C1010 C 0.76852 0.52757 0.03642 0.0
C1011 C 0.7962 0.47488 0.96444 0.0
O1012 O 0.79099 0.52513 0.03648 0.0
Zn1013 Zn 0.81718 0.50618 0.0138 0.0
O1014 O 0.75625 0.51636 0.01897 0.0
Zn1015 Zn 0.78197 0.50087 0.00032 0.0
O1016 O 0.79418 0.47601 0.03018 0.0
O1017 O 0.83083 0.48488 0.04086 0.0
O1018 O 0.77495 0.48008 0.97005 0.0
O1019 O 0.81306 0.48353 0.97877 0.0
O1020 O 0.83598 0.5316 0.99909 0.0
O1021 O 0.80043 0.52968 0.98078 0.0
C1022 C 0.81297 0.47159 0.04382 0.0
C1023 C 0.82076 0.53954 0.98229 0.0
H1024 H 0.12903 0.28516 0.39214 0.0
H1025 H 0.14175 0.35864 0.409 0.0
H1026 H 0.10198 0.36269 0.42764 0.0
H1027 H 0.06487 0.34454 0.44278 0.0
H1028 H 0.05296 0.2705 0.42804 0.0
H1029 H 0.09088 0.26756 0.40466 0.0
C1030 C 0.12289 0.30213 0.39946 0.0
C1031 C 0.13823 0.32162 0.39895 0.0
C1032 C 0.10017 0.30421 0.41069 0.0
C1033 C 0.13021 0.34344 0.40892 0.0
C1034 C 0.1075 0.34574 0.41968 0.0
C1035 C 0.07038 0.32786 0.43404 0.0
C1036 C 0.05612 0.30776 0.43728 0.0
C1037 C 0.09249 0.32614 0.42116 0.0
C1038 C 0.06363 0.28624 0.42598 0.0
C1039 C 0.08536 0.28451 0.41265 0.0
H1040 H 0.72483 0.13877 0.39604 0.0
H1041 H 0.65156 0.14649 0.41761 0.0
H1042 H 0.6517 0.1073 0.43863 0.0
H1043 H 0.67399 0.07233 0.45481 0.0
H1044 H 0.74703 0.06492 0.4313 0.0
H1045 H 0.74544 0.10218 0.40684 0.0
C1046 C 0.70883 0.13182 0.40516 0.0
C1047 C 0.68852 0.14592 0.40623 0.0
C1048 C 0.70899 0.10926 0.41695 0.0
C1049 C 0.6677 0.13634 0.41735 0.0
C1050 C 0.66774 0.11387 0.42929 0.0
C1051 C 0.68941 0.07868 0.44394 0.0
C1052 C 0.71068 0.06595 0.44536 0.0
C1053 C 0.68849 0.10039 0.42987 0.0
C1054 C 0.73047 0.07442 0.43096 0.0
C1055 C 0.72964 0.09581 0.41694 0.0
H1056 H 0.88236 0.65959 0.41396 0.0
H1057 H 0.89145 0.73244 0.39097 0.0
H1058 H 0.92941 0.73349 0.41473 0.0
H1059 H 0.95869 0.71442 0.44451 0.0
H1060 H 0.94997 0.64129 0.46682 0.0
H1061 H 0.91334 0.63955 0.44057 0.0
C1062 C 0.89285 0.67557 0.4138 0.0
C1063 C 0.88413 0.6959 0.4007 0.0
C1064 C 0.91464 0.67603 0.4275 0.0
C1065 C 0.89785 0.71655 0.40082 0.0
C1066 C 0.91948 0.71717 0.41448 0.0
C1067 C 0.94887 0.69804 0.44348 0.0
C1068 C 0.95696 0.67808 0.45784 0.0
C1069 C 0.92785 0.69714 0.42829 0.0
C1070 C 0.94415 0.65693 0.45601 0.0
C1071 C 0.92315 0.65594 0.44106 0.0
H1072 H 0.26504 0.92411 0.35691 0.0
H1073 H 0.33441 0.89842 0.37735 0.0
H1074 H 0.33342 0.92035 0.42052 0.0
H1075 H 0.31369 0.94842 0.4511 0.0
H1076 H 0.24369 0.97299 0.43158 0.0
H1077 H 0.24393 0.94959 0.38943 0.0
C1078 C 0.2799 0.92325 0.37087 0.0
C1079 C 0.30002 0.91017 0.36365 0.0
C1080 C 0.27907 0.93565 0.39574 0.0
C1081 C 0.31895 0.9088 0.3822 0.0
C1082 C 0.31836 0.92126 0.40688 0.0
C1083 C 0.29843 0.94857 0.43768 0.0
C1084 C 0.2788 0.9626 0.44424 0.0
C1085 C 0.29867 0.93504 0.41362 0.0
C1086 C 0.25901 0.96233 0.42693 0.0
C1087 C 0.25919 0.94905 0.4028 0.0
H1088 H 0.12448 0.63581 0.61738 0.0
H1089 H 0.13024 0.71012 0.63558 0.0
H1090 H 0.0987 0.71856 0.6029 0.0
H1091 H 0.06884 0.70481 0.57033 0.0
H1092 H 0.06239 0.63043 0.55333 0.0
H1093 H 0.09485 0.6221 0.58482 0.0
C1094 C 0.11901 0.6539 0.61447 0.0
C1095 C 0.12976 0.67236 0.62936 0.0
C1096 C 0.1006 0.65862 0.59595 0.0
C1097 C 0.12223 0.69561 0.62456 0.0
C1098 C 0.10417 0.70044 0.60593 0.0
C1099 C 0.07452 0.68675 0.57345 0.0
C1100 C 0.06312 0.66828 0.55948 0.0
C1101 C 0.09309 0.68207 0.5917 0.0
C1102 C 0.07076 0.645 0.56386 0.0
C1103 C 0.08936 0.64022 0.58184 0.0
H1104 H 0.2662 0.11978 0.62533 0.0
H1105 H 0.19531 0.09321 0.63408 0.0
H1106 H 0.20409 0.06127 0.60243 0.0
H1107 H 0.23162 0.04138 0.57091 0.0
H1108 H 0.30309 0.06686 0.56421 0.0
H1109 H 0.29435 0.09852 0.59638 0.0
C1110 C 0.25264 0.10705 0.62016 0.0
C1111 C 0.2299 0.10962 0.63119 0.0
C1112 C 0.2579 0.08842 0.60231 0.0
C1113 C 0.21275 0.09241 0.6252 0.0
C1114 C 0.21778 0.07395 0.60715 0.0
C1115 C 0.24528 0.05383 0.57656 0.0
C1116 C 0.26791 0.05183 0.56504 0.0
C1117 C 0.24022 0.07194 0.59532 0.0
C1118 C 0.28551 0.06795 0.5728 0.0
C1119 C 0.28054 0.08613 0.59114 0.0
H1120 H 0.90477 0.37072 0.60818 0.0
H1121 H 0.91104 0.30215 0.64603 0.0
H1122 H 0.93583 0.28885 0.60812 0.0
H1123 H 0.95707 0.29717 0.56542 0.0
H1124 H 0.95277 0.36641 0.52901 0.0
H1125 H 0.92613 0.37912 0.56558 0.0
C1126 C 0.91174 0.35297 0.60849 0.0
C1127 C 0.90662 0.33767 0.63056 0.0
C1128 C 0.92642 0.34559 0.58692 0.0
C1129 C 0.91517 0.31443 0.62969 0.0
C1130 C 0.92932 0.30681 0.60802 0.0
C1131 C 0.95021 0.31502 0.56538 0.0
C1132 C 0.95687 0.33082 0.5445 0.0
C1133 C 0.93529 0.32232 0.58671 0.0
C1134 C 0.94798 0.35393 0.54489 0.0
C1135 C 0.93272 0.36119 0.56577 0.0
H1136 H 0.71235 0.9216 0.64179 0.0
H1137 H 0.77244 0.88912 0.60295 0.0
H1138 H 0.767 0.91392 0.56253 0.0
H1139 H 0.74754 0.94705 0.54003 0.0
H1140 H 0.68712 0.97979 0.57769 0.0
H1141 H 0.68998 0.9524 0.61661 0.0
C1142 C 0.72385 0.91959 0.62418 0.0
C1143 C 0.74262 0.90331 0.62523 0.0
C1144 C 0.72068 0.93406 0.60096 0.0
C1145 C 0.7577 0.90125 0.60248 0.0
C1146 C 0.75469 0.91552 0.57944 0.0
C1147 C 0.73483 0.94804 0.55663 0.0
C1148 C 0.71734 0.96556 0.55622 0.0
C1149 C 0.73661 0.93232 0.57874 0.0
C1150 C 0.70076 0.96643 0.5776 0.0
C1151 C 0.70249 0.95086 0.59989 0.0
H1152 H 0.92663 0.70779 0.65794 0.0
H1153 H 0.93512 0.7832 0.65415 0.0
H1154 H 0.95583 0.77955 0.61021 0.0
H1155 H 0.97325 0.75456 0.5741 0.0
H1156 H 0.96452 0.67902 0.57866 0.0
H1157 H 0.94204 0.68313 0.6209 0.0
C1158 C 0.93276 0.72344 0.64731 0.0
C1159 C 0.92925 0.74572 0.65915 0.0
C1160 C 0.94471 0.72118 0.62225 0.0
C1161 C 0.93748 0.76586 0.64529 0.0
C1162 C 0.94938 0.76377 0.62026 0.0
C1163 C 0.96628 0.73902 0.58423 0.0
C1164 C 0.97074 0.71651 0.57324 0.0
C1165 C 0.95336 0.74146 0.60871 0.0
C1166 C 0.96149 0.69657 0.58663 0.0
C1167 C 0.94862 0.69887 0.61086 0.0
H1168 H 0.33949 0.87256 0.58708 0.0
H1169 H 0.26383 0.86538 0.5869 0.0
H1170 H 0.25961 0.90672 0.57384 0.0
H1171 H 0.27736 0.94353 0.55824 0.0
H1172 H 0.35308 0.95069 0.55619 0.0
H1173 H 0.35735 0.91086 0.5748 0.0
C1174 C 0.32211 0.88022 0.58458 0.0
C1175 C 0.30199 0.86598 0.58792 0.0
C1176 C 0.31983 0.90391 0.57654 0.0
C1177 C 0.27955 0.87601 0.58448 0.0
C1178 C 0.27714 0.89961 0.57694 0.0
C1179 C 0.29484 0.93656 0.56217 0.0
C1180 C 0.31487 0.95003 0.55553 0.0
C1181 C 0.29716 0.91354 0.57228 0.0
C1182 C 0.33735 0.9407 0.561 0.0
C1183 C 0.33981 0.91787 0.57152 0.0
H1184 H 0.0834 0.28124 0.64133 0.0
H1185 H 0.10783 0.21414 0.61091 0.0
H1186 H 0.08405 0.21917 0.56942 0.0
H1187 H 0.05553 0.24233 0.54235 0.0
H1188 H 0.03381 0.3107 0.57147 0.0
H1189 H 0.0576 0.30561 0.61285 0.0
C1190 C 0.08387 0.26783 0.62553 0.0
C1191 C 0.09751 0.24733 0.6292 0.0
C1192 C 0.07058 0.27106 0.60153 0.0
C1193 C 0.09755 0.2301 0.60848 0.0
C1194 C 0.08394 0.23294 0.58482 0.0
C1195 C 0.0561 0.25609 0.55777 0.0
C1196 C 0.04288 0.27677 0.55405 0.0
C1197 C 0.07024 0.25327 0.58121 0.0
C1198 C 0.04394 0.29465 0.57392 0.0
C1199 C 0.05746 0.29173 0.59759 0.0
H1200 H 0.7898 0.13977 0.58292 0.0
H1201 H 0.7148 0.15247 0.58262 0.0
H1202 H 0.7078 0.11266 0.56599 0.0
H1203 H 0.72287 0.07562 0.54802 0.0
H1204 H 0.79789 0.06331 0.54447 0.0
H1205 H 0.80498 0.10148 0.56642 0.0
C1206 C 0.77193 0.1336 0.57963 0.0
C1207 C 0.75288 0.14896 0.58453 0.0
C1208 C 0.76803 0.11084 0.56922 0.0
C1209 C 0.7298 0.14097 0.57958 0.0
C1210 C 0.72577 0.11821 0.56989 0.0
C1211 C 0.74082 0.08105 0.55234 0.0
C1212 C 0.75984 0.0666 0.54451 0.0
C1213 C 0.74475 0.10318 0.56419 0.0
C1214 C 0.78293 0.07407 0.55024 0.0
C1215 C 0.78699 0.09593 0.5627 0.0
H1216 H 0.86951 0.25054 0.4082 0.0
H1217 H 0.86191 0.32609 0.40471 0.0
H1218 H 0.90263 0.33099 0.41999 0.0
H1219 H 0.93902 0.31386 0.43827 0.0
H1220 H 0.94605 0.23824 0.44398 0.0
H1221 H 0.90709 0.2333 0.42349 0.0
C1222 C 0.87697 0.26804 0.4103 0.0
C1223 C 0.86285 0.2879 0.40497 0.0
C1224 C 0.90023 0.27071 0.41963 0.0
C1225 C 0.87254 0.31053 0.40827 0.0
C1226 C 0.89577 0.31333 0.41715 0.0
C1227 C 0.93223 0.29627 0.43463 0.0
C1228 C 0.94542 0.27646 0.44283 0.0
C1229 C 0.90961 0.29356 0.42341 0.0
C1230 C 0.93627 0.25381 0.43799 0.0
C1231 C 0.91394 0.25096 0.42635 0.0
H1232 H 0.76349 0.91545 0.35781 0.0
H1233 H 0.68827 0.9077 0.36679 0.0
H1234 H 0.68885 0.93322 0.40708 0.0
H1235 H 0.71028 0.95908 0.43833 0.0
H1236 H 0.78548 0.96771 0.42942 0.0
H1237 H 0.78539 0.94034 0.39066 0.0
C1238 C 0.74732 0.91913 0.36888 0.0
C1239 C 0.7259 0.90949 0.35955 0.0
C1240 C 0.74775 0.93404 0.39189 0.0
C1241 C 0.70499 0.91469 0.37376 0.0
C1242 C 0.7053 0.92934 0.39672 0.0
C1243 C 0.72672 0.95493 0.42804 0.0
C1244 C 0.74784 0.96557 0.4367 0.0
C1245 C 0.72651 0.93933 0.40575 0.0
C1246 C 0.76896 0.95982 0.42317 0.0
C1247 C 0.76891 0.9442 0.40097 0.0
H1248 H 0.13342 0.70703 0.40007 0.0
H1249 H 0.12825 0.78268 0.40598 0.0
H1250 H 0.09137 0.77891 0.43167 0.0
H1251 H 0.06177 0.75396 0.45448 0.0
H1252 H 0.06711 0.67824 0.44781 0.0
H1253 H 0.10245 0.68227 0.41987 0.0
C1254 C 0.124 0.72271 0.40649 0.0
C1255 C 0.13335 0.74514 0.40071 0.0
C1256 C 0.10284 0.72041 0.42115 0.0
C1257 C 0.12119 0.76525 0.40983 0.0
C1258 C 0.10017 0.7631 0.42457 0.0
C1259 C 0.07051 0.73835 0.44666 0.0
C1260 C 0.06183 0.71585 0.45344 0.0
C1261 C 0.09096 0.74075 0.43062 0.0
C1262 C 0.07337 0.69581 0.44302 0.0
C1263 C 0.09367 0.69806 0.42708 0.0
H1264 H 0.31215 0.11517 0.38261 0.0
H1265 H 0.37558 0.13769 0.4237 0.0
H1266 H 0.37182 0.10514 0.45642 0.0
H1267 H 0.34996 0.07064 0.47387 0.0
H1268 H 0.28527 0.04996 0.43408 0.0
H1269 H 0.28995 0.08153 0.40051 0.0
C1270 C 0.32499 0.11319 0.39892 0.0
C1271 C 0.34385 0.12918 0.4011 0.0
C1272 C 0.3225 0.09472 0.41789 0.0
C1273 C 0.36068 0.12585 0.42194 0.0
C1274 C 0.35858 0.10722 0.44058 0.0
C1275 C 0.33698 0.07304 0.45777 0.0
C1276 C 0.31733 0.05801 0.45644 0.0
C1277 C 0.33949 0.0916 0.43883 0.0
C1278 C 0.3005 0.0614 0.43563 0.0
C1279 C 0.30317 0.07942 0.41639 0.0
H1280 H 0.62155 0.77334 0.90201 0.0
H1281 H 0.63885 0.84527 0.92212 0.0
H1282 H 0.60118 0.84976 0.94585 0.0
H1283 H 0.56439 0.83253 0.96319 0.0
H1284 H 0.5478 0.76003 0.94459 0.0
H1285 H 0.58395 0.75656 0.91779 0.0
C1286 C 0.61687 0.79008 0.91127 0.0
C1287 C 0.63282 0.80902 0.91004 0.0
C1288 C 0.59537 0.79241 0.92527 0.0
C1289 C 0.62675 0.83051 0.92252 0.0
C1290 C 0.60526 0.83306 0.93617 0.0
C1291 C 0.56854 0.81605 0.95303 0.0
C1292 C 0.55344 0.79656 0.95601 0.0
C1293 C 0.58957 0.81404 0.93798 0.0
C1294 C 0.55916 0.77529 0.94278 0.0
C1295 C 0.57986 0.77327 0.92744 0.0
H1296 H 0.17077 0.62144 0.8787 0.0
H1297 H 0.25042 0.60609 0.83112 0.0
H1298 H 0.26058 0.57145 0.87334 0.0
H1299 H 0.24498 0.55175 0.92271 0.0
H1300 H 0.17678 0.56435 0.96029 0.0
H1301 H 0.16386 0.59222 0.92602 0.0
C1302 C 0.18684 0.61131 0.87672 0.0
C1303 C 0.21112 0.62047 0.85336 0.0
C1304 C 0.19543 0.59033 0.90242 0.0
C1305 C 0.23752 0.60166 0.84664 0.0
C1306 C 0.2441 0.58102 0.87366 0.0
C1307 C 0.22822 0.56086 0.92255 0.0
C1308 C 0.21136 0.55676 0.94337 0.0
C1309 C 0.22355 0.57637 0.90131 0.0
C1310 C 0.18896 0.5681 0.94373 0.0
C1311 C 0.18113 0.58432 0.9241 0.0
H1312 H 0.37416 0.16447 0.92016 0.0
H1313 H 0.37723 0.2367 0.89263 0.0
H1314 H 0.41726 0.24031 0.91035 0.0
H1315 H 0.45038 0.22382 0.93576 0.0
H1316 H 0.44755 0.15197 0.96479 0.0
H1317 H 0.40855 0.14722 0.94403 0.0
C1318 C 0.38378 0.18085 0.91772 0.0
C1319 C 0.37289 0.20015 0.90469 0.0
C1320 C 0.40675 0.1829 0.92828 0.0
C1321 C 0.38536 0.22147 0.90214 0.0
C1322 C 0.4082 0.22358 0.91238 0.0
C1323 C 0.44138 0.20702 0.93741 0.0
C1324 C 0.45185 0.18832 0.95197 0.0
C1325 C 0.41894 0.20452 0.92576 0.0
C1326 C 0.43991 0.16666 0.95372 0.0
C1327 C 0.41757 0.16396 0.94194 0.0
H1328 H 0.84322 0.40575 0.88049 0.0
H1329 H 0.78958 0.35947 0.91261 0.0
H1330 H 0.77229 0.39214 0.93822 0.0
H1331 H 0.77475 0.43306 0.95507 0.0
H1332 H 0.83122 0.47779 0.92697 0.0
H1333 H 0.84492 0.44679 0.89598 0.0
C1334 C 0.82752 0.40297 0.89277 0.0
C1335 C 0.81758 0.38032 0.89431 0.0
C1336 C 0.81823 0.42159 0.90826 0.0
C1337 C 0.79746 0.37677 0.91071 0.0
C1338 C 0.7876 0.39544 0.92549 0.0
C1339 C 0.78971 0.4361 0.94165 0.0
C1340 C 0.80189 0.45761 0.94297 0.0
C1341 C 0.79812 0.41781 0.92485 0.0
C1342 C 0.82159 0.46131 0.92609 0.0
C1343 C 0.82946 0.4436 0.9085 0.0
H1344 H 0.6408 0.20926 0.08695 0.0
H1345 H 0.62766 0.13657 0.10769 0.0
H1346 H 0.59053 0.13769 0.08191 0.0
H1347 H 0.56184 0.15966 0.05339 0.0
H1348 H 0.57557 0.23275 0.03415 0.0
H1349 H 0.61221 0.23119 0.05979 0.0
C1350 C 0.62969 0.19372 0.0861 0.0
C1351 C 0.6367 0.173 0.09967 0.0
C1352 C 0.60843 0.19459 0.07156 0.0
C1353 C 0.62242 0.15283 0.09776 0.0
C1354 C 0.60124 0.15347 0.08302 0.0
C1355 C 0.57281 0.17525 0.05492 0.0
C1356 C 0.56588 0.19627 0.04181 0.0
C1357 C 0.59402 0.17431 0.06987 0.0
C1358 C 0.58034 0.21632 0.04403 0.0
C1359 C 0.6014 0.21547 0.05866 0.0
H1360 H 0.70695 0.59151 0.11411 0.0
H1361 H 0.77565 0.6201 0.13309 0.0
H1362 H 0.79388 0.59184 0.1019 0.0
H1363 H 0.7903 0.55974 0.06872 0.0
H1364 H 0.72158 0.53218 0.04843 0.0
H1365 H 0.70334 0.55964 0.08073 0.0
C1366 C 0.72589 0.59182 0.11158 0.0
C1367 C 0.73991 0.60825 0.126 0.0
C1368 C 0.73626 0.57571 0.09331 0.0
C1369 C 0.76446 0.60779 0.12221 0.0
C1370 C 0.7749 0.59164 0.10438 0.0
C1371 C 0.77132 0.55963 0.07141 0.0
C1372 C 0.75733 0.54388 0.05621 0.0
C1373 C 0.76096 0.57562 0.08974 0.0
C1374 C 0.73276 0.54415 0.05983 0.0
C1375 C 0.72233 0.55983 0.07832 0.0
H1376 H 0.39405 0.8628 0.11494 0.0
H1377 H 0.35122 0.8055 0.08478 0.0
H1378 H 0.38496 0.78961 0.06006 0.0
H1379 H 0.42618 0.79288 0.04513 0.0
H1380 H 0.46803 0.85209 0.07163 0.0
H1381 H 0.4351 0.86646 0.09941 0.0
C1382 C 0.39211 0.84684 0.10291 0.0
C1383 C 0.37007 0.8355 0.10176 0.0
C1384 C 0.41139 0.83819 0.08796 0.0
C1385 C 0.36787 0.81472 0.08618 0.0
C1386 C 0.38719 0.8056 0.07193 0.0
C1387 C 0.42814 0.80882 0.05719 0.0
C1388 C 0.4495 0.82136 0.05649 0.0
C1389 C 0.40895 0.81732 0.07244 0.0
C1390 C 0.45172 0.84218 0.07184 0.0
C1391 C 0.43292 0.85037 0.08772 0.0
H1392 H 0.30265 0.41479 0.10954 0.0
H1393 H 0.2325 0.39126 0.13069 0.0
H1394 H 0.21565 0.42192 0.10146 0.0
H1395 H 0.22078 0.4545 0.06924 0.0
H1396 H 0.29077 0.477 0.04647 0.0
H1397 H 0.30778 0.4473 0.07709 0.0
C1398 C 0.28369 0.41609 0.10785 0.0
C1399 C 0.26882 0.40038 0.12224 0.0
C1400 C 0.2741 0.43356 0.09068 0.0
C1401 C 0.24429 0.40297 0.1197 0.0
C1402 C 0.23465 0.42048 0.10302 0.0
C1403 C 0.23978 0.45304 0.07105 0.0
C1404 C 0.25449 0.468 0.05564 0.0
C1405 C 0.24939 0.43576 0.08831 0.0
C1406 C 0.27905 0.46568 0.05808 0.0
C1407 C 0.28878 0.44871 0.07558 0.0
H1408 H 0.41965 0.28857 0.1124 0.0
H1409 H 0.43939 0.2273 0.15979 0.0
H1410 H 0.46323 0.213 0.1218 0.0
H1411 H 0.47902 0.21797 0.07525 0.0
H1412 H 0.46205 0.28062 0.02906 0.0
H1413 H 0.43689 0.29443 0.06652 0.0
C1414 C 0.4292 0.27209 0.11437 0.0
C1415 C 0.42741 0.259 0.13885 0.0
C1416 C 0.44351 0.26426 0.09272 0.0
C1417 C 0.44007 0.23773 0.14119 0.0
C1418 C 0.45385 0.22952 0.11946 0.0
C1419 C 0.46977 0.23463 0.07338 0.0
C1420 C 0.47227 0.2482 0.04939 0.0
C1421 C 0.45573 0.24265 0.09517 0.0
C1422 C 0.46045 0.26989 0.04737 0.0
C1423 C 0.44601 0.27775 0.06873 0.0
H1424 H 0.83376 0.37666 0.1077 0.0
H1425 H 0.75895 0.36858 0.09517 0.0
H1426 H 0.75686 0.40787 0.07495 0.0
H1427 H 0.77655 0.44313 0.05774 0.0
H1428 H 0.85154 0.45151 0.06879 0.0
H1429 H 0.85326 0.41367 0.09296 0.0
C1430 C 0.81698 0.38372 0.10093 0.0
C1431 C 0.7965 0.36977 0.1031 0.0
C1432 C 0.81595 0.40629 0.08891 0.0
C1433 C 0.77491 0.37901 0.09394 0.0
C1434 C 0.77371 0.40144 0.08227 0.0
C1435 C 0.79329 0.43684 0.06562 0.0
C1436 C 0.81392 0.4501 0.06123 0.0
C1437 C 0.79417 0.41503 0.07918 0.0
C1438 C 0.83538 0.44169 0.07183 0.0
C1439 C 0.83639 0.41999 0.08557 0.0
H1440 H 0.5884 0.7241 0.13793 0.0
H1441 H 0.58664 0.79693 0.16326 0.0
H1442 H 0.56122 0.8066 0.12455 0.0
H1443 H 0.53887 0.79439 0.084 0.0
H1444 H 0.5381 0.72118 0.06016 0.0
H1445 H 0.56495 0.71161 0.09787 0.0
C1446 C 0.58261 0.74212 0.13473 0.0
C1447 C 0.59 0.75983 0.15302 0.0
C1448 C 0.56738 0.74746 0.11286 0.0
C1449 C 0.58181 0.78302 0.14916 0.0
C1450 C 0.56711 0.78856 0.1271 0.0
C1451 C 0.54463 0.77634 0.08699 0.0
C1452 C 0.53659 0.75854 0.06924 0.0
C1453 C 0.55974 0.77093 0.10889 0.0
C1454 C 0.54398 0.73519 0.07359 0.0
C1455 C 0.55938 0.72972 0.09509 0.0
H1456 H 0.22893 0.64332 0.09618 0.0
H1457 H 0.15323 0.649 0.0982 0.0
H1458 H 0.14957 0.60785 0.08359 0.0
H1459 H 0.16814 0.57162 0.06565 0.0
H1460 H 0.24404 0.56696 0.0628 0.0
H1461 H 0.24737 0.60612 0.08277 0.0
C1462 C 0.21165 0.63541 0.09386 0.0
C1463 C 0.1914 0.64914 0.09813 0.0
C1464 C 0.20972 0.61194 0.08519 0.0
C1465 C 0.16907 0.63872 0.095 0.0
C1466 C 0.16699 0.61524 0.08658 0.0
C1467 C 0.18538 0.579 0.06994 0.0
C1468 C 0.2058 0.56648 0.06248 0.0
C1469 C 0.18721 0.60184 0.08097 0.0
C1470 C 0.22803 0.57632 0.06808 0.0
C1471 C 0.22998 0.59875 0.07945 0.0
H1472 H 0.37236 0.75833 0.90156 0.0
H1473 H 0.37462 0.83425 0.89917 0.0
H1474 H 0.41238 0.83393 0.92339 0.0
H1475 H 0.44322 0.81218 0.94794 0.0
H1476 H 0.44025 0.73619 0.9517 0.0
H1477 H 0.40444 0.73642 0.92392 0.0
C1478 C 0.38136 0.77476 0.90596 0.0
C1479 C 0.37092 0.79626 0.89826 0.0
C1480 C 0.40284 0.77443 0.92022 0.0
C1481 C 0.3825 0.81748 0.90452 0.0
C1482 C 0.40401 0.8173 0.91847 0.0
C1483 C 0.43494 0.79562 0.94242 0.0
C1484 C 0.44438 0.7742 0.95203 0.0
C1485 C 0.41415 0.79589 0.92679 0.0
C1486 C 0.43335 0.75294 0.94467 0.0
C1487 C 0.41282 0.75305 0.92883 0.0
H1488 H 0.1526 0.38508 0.92708 0.0
H1489 H 0.20689 0.40555 0.86974 0.0
H1490 H 0.21589 0.44008 0.89744 0.0
H1491 H 0.20893 0.46415 0.93814 0.0
H1492 H 0.15337 0.44555 0.9946 0.0
H1493 H 0.14405 0.41074 0.96687 0.0
C1494 C 0.16649 0.39707 0.92082 0.0
C1495 C 0.17956 0.39225 0.89689 0.0
C1496 C 0.17124 0.41727 0.93654 0.0
C1497 C 0.19702 0.40834 0.88847 0.0
C1498 C 0.20209 0.42821 0.90421 0.0
C1499 C 0.19476 0.4525 0.94442 0.0
C1500 C 0.18199 0.45728 0.96852 0.0
C1501 C 0.18943 0.43275 0.92834 0.0
C1502 C 0.16344 0.44224 0.97611 0.0
C1503 C 0.15819 0.4223 0.96033 0.0
H1504 H 0.62845 0.2009 0.8775 0.0
H1505 H 0.63054 0.27683 0.87522 0.0
H1506 H 0.59294 0.27872 0.89953 0.0
H1507 H 0.56122 0.25889 0.92465 0.0
H1508 H 0.5597 0.18288 0.92838 0.0
H1509 H 0.59503 0.18093 0.89991 0.0
C1510 C 0.6204 0.21781 0.8819 0.0
C1511 C 0.6321 0.23869 0.87431 0.0
C1512 C 0.59894 0.21877 0.89624 0.0
C1513 C 0.62173 0.26053 0.88058 0.0
C1514 C 0.60029 0.26162 0.89456 0.0
C1515 C 0.56837 0.24188 0.91889 0.0
C1516 C 0.55786 0.22109 0.92881 0.0
C1517 C 0.58895 0.24087 0.90292 0.0
C1518 C 0.56745 0.19919 0.92114 0.0
C1519 C 0.58773 0.19804 0.90492 0.0
H1520 H 0.85308 0.63291 0.92201 0.0
H1521 H 0.798 0.61135 0.86636 0.0
H1522 H 0.78992 0.57694 0.89482 0.0
H1523 H 0.79838 0.55283 0.93553 0.0
H1524 H 0.85515 0.5727 0.98968 0.0
H1525 H 0.86283 0.6077 0.96169 0.0
C1526 C 0.83924 0.6207 0.91624 0.0
C1527 C 0.82582 0.62513 0.89246 0.0
C1528 C 0.83506 0.60055 0.93233 0.0
C1529 C 0.80829 0.60883 0.88484 0.0
C1530 C 0.80371 0.58902 0.90105 0.0
C1531 C 0.81243 0.56483 0.94123 0.0
C1532 C 0.82607 0.56024 0.96477 0.0
C1533 C 0.81695 0.58473 0.92486 0.0
C1534 C 0.84441 0.5758 0.97165 0.0
C1535 C 0.84876 0.59585 0.9557 0.0
loop_
_geom_bond_atom_site_label_1
_geom_bond_atom_site_label_2
_geom_bond_distance
_geom_bond_site_symmetry_2
_ccdc_geom_bond_type
C0 C1 1.560 . S
C0 H61 0.959 . S
C0 H62 0.959 . S
C0 H63 0.960 . S
C1 C0 1.560 . S
C1 O56 1.426 . S
C1 H60 0.980 . S
C2 C3 1.407 . S
C2 C7 1.418 . S
C2 O56 1.334 . S
C3 C2 1.407 . S
C3 C4 1.360 . S
C3 H64 0.929 . S
C4 C3 1.360 . S
C4 C5 1.401 . S
C4 C8 1.527 . S
C5 C4 1.401 . S
C5 C6 1.405 . S
C5 C38 1.587 . S
C6 C5 1.405 . S
C6 C7 1.332 . S
C6 C9 1.496 . S
C7 C2 1.418 . S
C7 C6 1.332 . S
C7 H65 0.929 . S
C8 C4 1.527 . S
C8 H66 0.959 . S
C8 H67 0.961 . S
C8 H68 0.961 . S
C9 C6 1.496 . S
C9 H69 0.960 . S
C9 H70 0.960 . S
C9 H71 0.961 . S
C10 C11 1.517 . S
C10 H73 0.961 . S
C10 H74 0.960 . S
C10 H75 0.959 . S
C11 C10 1.517 . S
C11 O59 1.468 . S
C11 H72 0.980 . S
C12 C13 1.349 . S
C12 C17 1.367 . S
C12 O59 1.408 . S
C13 C12 1.349 . S
C13 C14 1.407 . S
C13 H76 0.930 . S
C14 C13 1.407 . S
C14 C15 1.449 . S
C14 C18 1.535 . S
C15 C14 1.449 . S
C15 C16 1.384 . S
C15 C40 1.553 . S
C16 C15 1.384 . S
C16 C17 1.364 . S
C16 C19 1.450 . S
C17 C12 1.367 . S
C17 C16 1.364 . S
C17 H77 0.931 . S
C18 C14 1.535 . S
C18 H78 0.959 . S
C18 H79 0.961 . S
C18 H80 0.959 . S
C19 C16 1.450 . S
C19 H81 0.960 . S
C19 H82 0.960 . S
C19 H83 0.960 . S
C20 C21 1.309 . S
C20 C25 1.304 . S
C20 O58 1.435 . S
C21 C20 1.309 . S
C21 C22 1.476 . S
C21 H85 0.930 . S
C22 C21 1.476 . S
C22 C23 1.400 . S
C22 C26 1.567 . S
C23 C22 1.400 . S
C23 C24 1.373 . S
C23 C45 1.432 . S
C24 C23 1.373 . S
C24 C25 1.339 . S
C24 C27 1.530 . S
C25 C20 1.304 . S
C25 C24 1.339 . S
C25 H86 0.930 . S
C26 C22 1.567 . S
C26 H87 0.961 . S
C26 H88 0.960 . S
C26 H89 0.958 . S
C27 C24 1.530 . S
C27 H90 0.961 . S
C27 H91 0.960 . S
C27 H92 0.960 . S
C28 C29 1.530 . S
C28 H94 0.961 . S
C28 H95 0.961 . S
C28 H96 0.959 . S
C29 C28 1.530 . S
C29 O57 1.412 . S
C29 H93 0.980 . S
C30 C31 1.288 . S
C30 C35 1.377 . S
C30 O57 1.393 . S
C31 C30 1.288 . S
C31 C32 1.369 . S
C31 H97 0.932 . S
C32 C31 1.369 . S
C32 C33 1.398 . S
C32 C36 1.527 . S
C33 C32 1.398 . S
C33 C34 1.380 . S
C33 C47 1.497 . S
C34 C33 1.380 . S
C34 C35 1.383 . S
C34 C37 1.603 . S
C35 C30 1.377 . S
C35 C34 1.383 . S
C35 H98 0.929 . S
C36 C32 1.527 . S
C36 H99 0.961 . S
C36 H100 0.959 . S
C36 H101 0.959 . S
C37 C34 1.603 . S
C37 H102 0.960 . S
C37 H103 0.962 . S
C37 H104 0.961 . S
C38 C5 1.587 . S
C38 C39 1.360 . S
C38 C51 1.412 . S
C39 C38 1.360 . S
C39 C40 1.365 . S
C39 H105 0.929 . S
C40 C15 1.553 . S
C40 C39 1.365 . S
C40 C41 1.404 . S
C41 C40 1.404 . S
C41 C42 1.395 . S
C41 C52 1.451 . S
C42 C41 1.395 . S
C42 C43 1.322 . S
C42 H106 0.930 . S
C43 C42 1.322 . S
C43 C44 1.459 . S
C43 H107 0.929 . S
C44 C43 1.459 . S
C44 C45 1.445 . S
C44 C53 1.395 . S
C45 C23 1.432 . S
C45 C44 1.445 . S
C45 C46 1.370 . S
C46 C45 1.370 . S
C46 C47 1.438 . S
C46 H108 0.930 . S
C47 C33 1.497 . S
C47 C46 1.438 . S
C47 C48 1.360 . S
C48 C47 1.360 . S
C48 C49 1.401 . S
C48 C53 1.446 . S
C49 C48 1.401 . S
C49 C50 1.347 . S
C49 H109 0.929 . S
C50 C49 1.347 . S
C50 C51 1.455 . S
C50 H110 0.930 . S
C51 C38 1.412 . S
C51 C50 1.455 . S
C51 C52 1.331 . S
C52 C41 1.451 . S
C52 C51 1.331 . S
C52 C53 1.497 . S
C53 C44 1.395 . S
C53 C48 1.446 . S
C53 C52 1.497 . S
C54 C55 1.582 . S
C54 H111 0.962 . S
C54 H112 0.959 . S
C54 H113 0.958 . S
C55 C54 1.582 . S
C55 O58 1.458 . S
C55 H84 0.980 . S
O56 C1 1.426 . S
O56 C2 1.334 . S
O57 C29 1.412 . S
O57 C30 1.393 . S
O58 C20 1.435 . S
O58 C55 1.458 . S
O59 C11 1.468 . S
O59 C12 1.408 . S
H60 C1 0.980 . S
H61 C0 0.959 . S
H62 C0 0.959 . S
H63 C0 0.960 . S
H64 C3 0.929 . S
H65 C7 0.929 . S
H66 C8 0.959 . S
H67 C8 0.961 . S
H68 C8 0.961 . S
H69 C9 0.960 . S
H70 C9 0.960 . S
H71 C9 0.961 . S
H72 C11 0.980 . S
H73 C10 0.961 . S
H74 C10 0.960 . S
H75 C10 0.959 . S
H76 C13 0.930 . S
H77 C17 0.931 . S
H78 C18 0.959 . S
H79 C18 0.961 . S
H80 C18 0.959 . S
H81 C19 0.960 . S
H82 C19 0.960 . S
H83 C19 0.960 . S
H84 C55 0.980 . S
H85 C21 0.930 . S
H86 C25 0.930 . S
H87 C26 0.961 . S
H88 C26 0.960 . S
H89 C26 0.958 . S
H90 C27 0.961 . S
H91 C27 0.960 . S
H92 C27 0.960 . S
H93 C29 0.980 . S
H94 C28 0.961 . S
H95 C28 0.961 . S
H96 C28 0.959 . S
H97 C31 0.932 . S
H98 C35 0.929 . S
H99 C36 0.961 . S
H100 C36 0.959 . S
H101 C36 0.959 . S
H102 C37 0.960 . S
H103 C37 0.962 . S
H104 C37 0.961 . S
H105 C39 0.929 . S
H106 C42 0.930 . S
H107 C43 0.929 . S
H108 C46 0.930 . S
H109 C49 0.929 . S
H110 C50 0.930 . S
H111 C54 0.962 . S
H112 C54 0.959 . S
H113 C54 0.958 . S
C114 C115 1.560 . S
C114 H175 0.959 . S
C114 H176 0.959 . S
C114 H177 0.960 . S
C115 C114 1.560 . S
C115 O170 1.426 . S
C115 H174 0.980 . S
C116 C117 1.407 . S
C116 C121 1.418 . S
C116 O170 1.334 . S
C117 C116 1.407 . S
C117 C118 1.360 . S
C117 H178 0.929 . S
C118 C117 1.360 . S
C118 C119 1.401 . S
C118 C122 1.527 . S
C119 C118 1.401 . S
C119 C120 1.405 . S
C119 C152 1.587 . S
C120 C119 1.405 . S
C120 C121 1.332 . S
C120 C123 1.496 . S
C121 C116 1.418 . S
C121 C120 1.332 . S
C121 H179 0.929 . S
C122 C118 1.527 . S
C122 H180 0.959 . S
C122 H181 0.961 . S
C122 H182 0.961 . S
C123 C120 1.496 . S
C123 H183 0.960 . S
C123 H184 0.960 . S
C123 H185 0.961 . S
C124 C125 1.517 . S
C124 H187 0.961 . S
C124 H188 0.960 . S
C124 H189 0.959 . S
C125 C124 1.517 . S
C125 O173 1.468 . S
C125 H186 0.980 . S
C126 C127 1.349 . S
C126 C131 1.367 . S
C126 O173 1.408 . S
C127 C126 1.349 . S
C127 C128 1.407 . S
C127 H190 0.930 . S
C128 C127 1.407 . S
C128 C129 1.449 . S
C128 C132 1.535 . S
C129 C128 1.449 . S
C129 C130 1.384 . S
C129 C154 1.553 . S
C130 C129 1.384 . S
C130 C131 1.364 . S
C130 C133 1.450 . S
C131 C126 1.367 . S
C131 C130 1.364 . S
C131 H191 0.931 . S
C132 C128 1.535 . S
C132 H192 0.959 . S
C132 H193 0.961 . S
C132 H194 0.959 . S
C133 C130 1.450 . S
C133 H195 0.960 . S
C133 H196 0.960 . S
C133 H197 0.960 . S
C134 C135 1.309 . S
C134 C139 1.304 . S
C134 O172 1.435 . S
C135 C134 1.309 . S
C135 C136 1.476 . S
C135 H199 0.930 . S
C136 C135 1.476 . S
C136 C137 1.400 . S
C136 C140 1.567 . S
C137 C136 1.400 . S
C137 C138 1.373 . S
C137 C159 1.432 . S
C138 C137 1.373 . S
C138 C139 1.339 . S
C138 C141 1.530 . S
C139 C134 1.304 . S
C139 C138 1.339 . S
C139 H200 0.930 . S
C140 C136 1.567 . S
C140 H201 0.961 . S
C140 H202 0.960 . S
C140 H203 0.958 . S
C141 C138 1.530 . S
C141 H204 0.961 . S
C141 H205 0.960 . S
C141 H206 0.960 . S
C142 C143 1.530 . S
C142 H208 0.961 . S
C142 H209 0.961 . S
C142 H210 0.959 . S
C143 C142 1.530 . S
C143 O171 1.412 . S
C143 H207 0.980 . S
C144 C145 1.288 . S
C144 C149 1.377 . S
C144 O171 1.393 . S
C145 C144 1.288 . S
C145 C146 1.369 . S
C145 H211 0.932 . S
C146 C145 1.369 . S
C146 C147 1.398 . S
C146 C150 1.527 . S
C147 C146 1.398 . S
C147 C148 1.380 . S
C147 C161 1.497 . S
C148 C147 1.380 . S
C148 C149 1.383 . S
C148 C151 1.603 . S
C149 C144 1.377 . S
C149 C148 1.383 . S
C149 H212 0.929 . S
C150 C146 1.527 . S
C150 H213 0.961 . S
C150 H214 0.959 . S
C150 H215 0.959 . S
C151 C148 1.603 . S
C151 H216 0.960 . S
C151 H217 0.962 . S
C151 H218 0.961 . S
C152 C119 1.587 . S
C152 C153 1.360 . S
C152 C165 1.412 . S
C153 C152 1.360 . S
C153 C154 1.365 . S
C153 H219 0.929 . S
C154 C129 1.553 . S
C154 C153 1.365 . S
C154 C155 1.404 . S
C155 C154 1.404 . S
C155 C156 1.395 . S
C155 C166 1.451 . S
C156 C155 1.395 . S
C156 C157 1.322 . S
C156 H220 0.930 . S
C157 C156 1.322 . S
C157 C158 1.459 . S
C157 H221 0.929 . S
C158 C157 1.459 . S
C158 C159 1.445 . S
C158 C167 1.395 . S
C159 C137 1.432 . S
C159 C158 1.445 . S
C159 C160 1.370 . S
C160 C159 1.370 . S
C160 C161 1.438 . S
C160 H222 0.930 . S
C161 C147 1.497 . S
C161 C160 1.438 . S
C161 C162 1.360 . S
C162 C161 1.360 . S
C162 C163 1.401 . S
C162 C167 1.446 . S
C163 C162 1.401 . S
C163 C164 1.347 . S
C163 H223 0.929 . S
C164 C163 1.347 . S
C164 C165 1.455 . S
C164 H224 0.930 . S
C165 C152 1.412 . S
C165 C164 1.455 . S
C165 C166 1.331 . S
C166 C155 1.451 . S
C166 C165 1.331 . S
C166 C167 1.497 . S
C167 C158 1.395 . S
C167 C162 1.446 . S
C167 C166 1.497 . S
C168 C169 1.582 . S
C168 H225 0.962 . S
C168 H226 0.959 . S
C168 H227 0.958 . S
C169 C168 1.582 . S
C169 O172 1.458 . S
C169 H198 0.980 . S
O170 C115 1.426 . S
O170 C116 1.334 . S
O171 C143 1.412 . S
O171 C144 1.393 . S
O172 C134 1.435 . S
O172 C169 1.458 . S
O173 C125 1.468 . S
O173 C126 1.408 . S
H174 C115 0.980 . S
H175 C114 0.959 . S
H176 C114 0.959 . S
H177 C114 0.960 . S
H178 C117 0.929 . S
H179 C121 0.929 . S
H180 C122 0.959 . S
H181 C122 0.961 . S
H182 C122 0.961 . S
H183 C123 0.960 . S
H184 C123 0.960 . S
H185 C123 0.961 . S
H186 C125 0.980 . S
H187 C124 0.961 . S
H188 C124 0.960 . S
H189 C124 0.959 . S
H190 C127 0.930 . S
H191 C131 0.931 . S
H192 C132 0.959 . S
H193 C132 0.961 . S
H194 C132 0.959 . S
H195 C133 0.960 . S
H196 C133 0.960 . S
H197 C133 0.960 . S
H198 C169 0.980 . S
H199 C135 0.930 . S
H200 C139 0.930 . S
H201 C140 0.961 . S
H202 C140 0.960 . S
H203 C140 0.958 . S
H204 C141 0.961 . S
H205 C141 0.960 . S
H206 C141 0.960 . S
H207 C143 0.980 . S
H208 C142 0.961 . S
H209 C142 0.961 . S
H210 C142 0.959 . S
H211 C145 0.932 . S
H212 C149 0.929 . S
H213 C150 0.961 . S
H214 C150 0.959 . S
H215 C150 0.959 . S
H216 C151 0.960 . S
H217 C151 0.962 . S
H218 C151 0.961 . S
H219 C153 0.929 . S
H220 C156 0.930 . S
H221 C157 0.929 . S
H222 C160 0.930 . S
H223 C163 0.929 . S
H224 C164 0.930 . S
H225 C168 0.962 . S
H226 C168 0.959 . S
H227 C168 0.958 . S
C228 C229 1.560 . S
C228 H289 0.959 . S
C228 H290 0.959 . S
C228 H291 0.960 . S
C229 C228 1.560 . S
C229 O284 1.426 . S
C229 H288 0.980 . S
C230 C231 1.407 . S
C230 C235 1.418 . S
C230 O284 1.334 . S
C231 C230 1.407 . S
C231 C232 1.360 . S
C231 H292 0.929 . S
C232 C231 1.360 . S
C232 C233 1.401 . S
C232 C236 1.527 . S
C233 C232 1.401 . S
C233 C234 1.405 . S
C233 C266 1.587 . S
C234 C233 1.405 . S
C234 C235 1.332 . S
C234 C237 1.496 . S
C235 C230 1.418 . S
C235 C234 1.332 . S
C235 H293 0.929 . S
C236 C232 1.527 . S
C236 H294 0.959 . S
C236 H295 0.961 . S
C236 H296 0.961 . S
C237 C234 1.496 . S
C237 H297 0.960 . S
C237 H298 0.960 . S
C237 H299 0.961 . S
C238 C239 1.517 . S
C238 H301 0.961 . S
C238 H302 0.960 . S
C238 H303 0.959 . S
C239 C238 1.517 . S
C239 O287 1.468 . S
C239 H300 0.980 . S
C240 C241 1.349 . S
C240 C245 1.367 . S
C240 O287 1.408 . S
C241 C240 1.349 . S
C241 C242 1.407 . S
C241 H304 0.930 . S
C242 C241 1.407 . S
C242 C243 1.449 . S
C242 C246 1.535 . S
C243 C242 1.449 . S
C243 C244 1.384 . S
C243 C268 1.553 . S
C244 C243 1.384 . S
C244 C245 1.364 . S
C244 C247 1.450 . S
C245 C240 1.367 . S
C245 C244 1.364 . S
C245 H305 0.931 . S
C246 C242 1.535 . S
C246 H306 0.959 . S
C246 H307 0.961 . S
C246 H308 0.959 . S
C247 C244 1.450 . S
C247 H309 0.960 . S
C247 H310 0.960 . S
C247 H311 0.960 . S
C248 C249 1.309 . S
C248 C253 1.304 . S
C248 O286 1.435 . S
C249 C248 1.309 . S
C249 C250 1.476 . S
C249 H313 0.930 . S
C250 C249 1.476 . S
C250 C251 1.400 . S
C250 C254 1.567 . S
C251 C250 1.400 . S
C251 C252 1.373 . S
C251 C273 1.432 . S
C252 C251 1.373 . S
C252 C253 1.339 . S
C252 C255 1.530 . S
C253 C248 1.304 . S
C253 C252 1.339 . S
C253 H314 0.930 . S
C254 C250 1.567 . S
C254 H315 0.961 . S
C254 H316 0.960 . S
C254 H317 0.958 . S
C255 C252 1.530 . S
C255 H318 0.961 . S
C255 H319 0.960 . S
C255 H320 0.960 . S
C256 C257 1.530 . S
C256 H322 0.961 . S
C256 H323 0.961 . S
C256 H324 0.959 . S
C257 C256 1.530 . S
C257 O285 1.412 . S
C257 H321 0.980 . S
C258 C259 1.288 . S
C258 C263 1.377 . S
C258 O285 1.393 . S
C259 C258 1.288 . S
C259 C260 1.369 . S
C259 H325 0.932 . S
C260 C259 1.369 . S
C260 C261 1.398 . S
C260 C264 1.527 . S
C261 C260 1.398 . S
C261 C262 1.380 . S
C261 C275 1.497 . S
C262 C261 1.380 . S
C262 C263 1.383 . S
C262 C265 1.603 . S
C263 C258 1.377 . S
C263 C262 1.383 . S
C263 H326 0.929 . S
C264 C260 1.527 . S
C264 H327 0.961 . S
C264 H328 0.959 . S
C264 H329 0.959 . S
C265 C262 1.603 . S
C265 H330 0.960 . S
C265 H331 0.962 . S
C265 H332 0.961 . S
C266 C233 1.587 . S
C266 C267 1.360 . S
C266 C279 1.412 . S
C267 C266 1.360 . S
C267 C268 1.365 . S
C267 H333 0.929 . S
C268 C243 1.553 . S
C268 C267 1.365 . S
C268 C269 1.404 . S
C269 C268 1.404 . S
C269 C270 1.395 . S
C269 C280 1.451 . S
C270 C269 1.395 . S
C270 C271 1.322 . S
C270 H334 0.930 . S
C271 C270 1.322 . S
C271 C272 1.459 . S
C271 H335 0.929 . S
C272 C271 1.459 . S
C272 C273 1.445 . S
C272 C281 1.395 . S
C273 C251 1.432 . S
C273 C272 1.445 . S
C273 C274 1.370 . S
C274 C273 1.370 . S
C274 C275 1.438 . S
C274 H336 0.930 . S
C275 C261 1.497 . S
C275 C274 1.438 . S
C275 C276 1.360 . S
C276 C275 1.360 . S
C276 C277 1.401 . S
C276 C281 1.446 . S
C277 C276 1.401 . S
C277 C278 1.347 . S
C277 H337 0.929 . S
C278 C277 1.347 . S
C278 C279 1.455 . S
C278 H338 0.930 . S
C279 C266 1.412 . S
C279 C278 1.455 . S
C279 C280 1.331 . S
C280 C269 1.451 . S
C280 C279 1.331 . S
C280 C281 1.497 . S
C281 C272 1.395 . S
C281 C276 1.446 . S
C281 C280 1.497 . S
C282 C283 1.582 . S
C282 H339 0.962 . S
C282 H340 0.959 . S
C282 H341 0.958 . S
C283 C282 1.582 . S
C283 O286 1.458 . S
C283 H312 0.980 . S
O284 C229 1.426 . S
O284 C230 1.334 . S
O285 C257 1.412 . S
O285 C258 1.393 . S
O286 C248 1.435 . S
O286 C283 1.458 . S
O287 C239 1.468 . S
O287 C240 1.408 . S
H288 C229 0.980 . S
H289 C228 0.959 . S
H290 C228 0.959 . S
H291 C228 0.960 . S
H292 C231 0.929 . S
H293 C235 0.929 . S
H294 C236 0.959 . S
H295 C236 0.961 . S
H296 C236 0.961 . S
H297 C237 0.960 . S
H298 C237 0.960 . S
H299 C237 0.961 . S
H300 C239 0.980 . S
H301 C238 0.961 . S
H302 C238 0.960 . S
H303 C238 0.959 . S
H304 C241 0.930 . S
H305 C245 0.931 . S
H306 C246 0.959 . S
H307 C246 0.961 . S
H308 C246 0.959 . S
H309 C247 0.960 . S
H310 C247 0.960 . S
H311 C247 0.960 . S
H312 C283 0.980 . S
H313 C249 0.930 . S
H314 C253 0.930 . S
H315 C254 0.961 . S
H316 C254 0.960 . S
H317 C254 0.958 . S
H318 C255 0.961 . S
H319 C255 0.960 . S
H320 C255 0.960 . S
H321 C257 0.980 . S
H322 C256 0.961 . S
H323 C256 0.961 . S
H324 C256 0.959 . S
H325 C259 0.932 . S
H326 C263 0.929 . S
H327 C264 0.961 . S
H328 C264 0.959 . S
H329 C264 0.959 . S
H330 C265 0.960 . S
H331 C265 0.962 . S
H332 C265 0.961 . S
H333 C267 0.929 . S
H334 C270 0.930 . S
H335 C271 0.929 . S
H336 C274 0.930 . S
H337 C277 0.929 . S
H338 C278 0.930 . S
H339 C282 0.962 . S
H340 C282 0.959 . S
H341 C282 0.958 . S
C342 C343 1.560 . S
C342 H403 0.959 . S
C342 H404 0.959 . S
C342 H405 0.960 . S
C343 C342 1.560 . S
C343 O398 1.426 . S
C343 H402 0.980 . S
C344 C345 1.407 . S
C344 C349 1.418 . S
C344 O398 1.334 . S
C345 C344 1.407 . S
C345 C346 1.360 . S
C345 H406 0.929 . S
C346 C345 1.360 . S
C346 C347 1.401 . S
C346 C350 1.527 . S
C347 C346 1.401 . S
C347 C348 1.405 . S
C347 C380 1.587 . S
C348 C347 1.405 . S
C348 C349 1.332 . S
C348 C351 1.496 . S
C349 C344 1.418 . S
C349 C348 1.332 . S
C349 H407 0.929 . S
C350 C346 1.527 . S
C350 H408 0.959 . S
C350 H409 0.961 . S
C350 H410 0.961 . S
C351 C348 1.496 . S
C351 H411 0.960 . S
C351 H412 0.960 . S
C351 H413 0.961 . S
C352 C353 1.517 . S
C352 H415 0.961 . S
C352 H416 0.960 . S
C352 H417 0.959 . S
C353 C352 1.517 . S
C353 O401 1.468 . S
C353 H414 0.980 . S
C354 C355 1.349 . S
C354 C359 1.367 . S
C354 O401 1.408 . S
C355 C354 1.349 . S
C355 C356 1.407 . S
C355 H418 0.930 . S
C356 C355 1.407 . S
C356 C357 1.449 . S
C356 C360 1.535 . S
C357 C356 1.449 . S
C357 C358 1.384 . S
C357 C382 1.553 . S
C358 C357 1.384 . S
C358 C359 1.364 . S
C358 C361 1.450 . S
C359 C354 1.367 . S
C359 C358 1.364 . S
C359 H419 0.931 . S
C360 C356 1.535 . S
C360 H420 0.959 . S
C360 H421 0.961 . S
C360 H422 0.959 . S
C361 C358 1.450 . S
C361 H423 0.960 . S
C361 H424 0.960 . S
C361 H425 0.960 . S
C362 C363 1.309 . S
C362 C367 1.304 . S
C362 O400 1.435 . S
C363 C362 1.309 . S
C363 C364 1.476 . S
C363 H427 0.930 . S
C364 C363 1.476 . S
C364 C365 1.400 . S
C364 C368 1.567 . S
C365 C364 1.400 . S
C365 C366 1.373 . S
C365 C387 1.432 . S
C366 C365 1.373 . S
C366 C367 1.339 . S
C366 C369 1.530 . S
C367 C362 1.304 . S
C367 C366 1.339 . S
C367 H428 0.930 . S
C368 C364 1.567 . S
C368 H429 0.961 . S
C368 H430 0.960 . S
C368 H431 0.958 . S
C369 C366 1.530 . S
C369 H432 0.961 . S
C369 H433 0.960 . S
C369 H434 0.960 . S
C370 C371 1.530 . S
C370 H436 0.961 . S
C370 H437 0.961 . S
C370 H438 0.959 . S
C371 C370 1.530 . S
C371 O399 1.412 . S
C371 H435 0.980 . S
C372 C373 1.288 . S
C372 C377 1.377 . S
C372 O399 1.393 . S
C373 C372 1.288 . S
C373 C374 1.369 . S
C373 H439 0.932 . S
C374 C373 1.369 . S
C374 C375 1.398 . S
C374 C378 1.527 . S
C375 C374 1.398 . S
C375 C376 1.380 . S
C375 C389 1.497 . S
C376 C375 1.380 . S
C376 C377 1.383 . S
C376 C379 1.603 . S
C377 C372 1.377 . S
C377 C376 1.383 . S
C377 H440 0.929 . S
C378 C374 1.527 . S
C378 H441 0.961 . S
C378 H442 0.959 . S
C378 H443 0.959 . S
C379 C376 1.603 . S
C379 H444 0.960 . S
C379 H445 0.962 . S
C379 H446 0.961 . S
C380 C347 1.587 . S
C380 C381 1.360 . S
C380 C393 1.412 . S
C381 C380 1.360 . S
C381 C382 1.365 . S
C381 H447 0.929 . S
C382 C357 1.553 . S
C382 C381 1.365 . S
C382 C383 1.404 . S
C383 C382 1.404 . S
C383 C384 1.395 . S
C383 C394 1.451 . S
C384 C383 1.395 . S
C384 C385 1.322 . S
C384 H448 0.930 . S
C385 C384 1.322 . S
C385 C386 1.459 . S
C385 H449 0.929 . S
C386 C385 1.459 . S
C386 C387 1.445 . S
C386 C395 1.395 . S
C387 C365 1.432 . S
C387 C386 1.445 . S
C387 C388 1.370 . S
C388 C387 1.370 . S
C388 C389 1.438 . S
C388 H450 0.930 . S
C389 C375 1.497 . S
C389 C388 1.438 . S
C389 C390 1.360 . S
C390 C389 1.360 . S
C390 C391 1.401 . S
C390 C395 1.446 . S
C391 C390 1.401 . S
C391 C392 1.347 . S
C391 H451 0.929 . S
C392 C391 1.347 . S
C392 C393 1.455 . S
C392 H452 0.930 . S
C393 C380 1.412 . S
C393 C392 1.455 . S
C393 C394 1.331 . S
C394 C383 1.451 . S
C394 C393 1.331 . S
C394 C395 1.497 . S
C395 C386 1.395 . S
C395 C390 1.446 . S
C395 C394 1.497 . S
C396 C397 1.582 . S
C396 H453 0.962 . S
C396 H454 0.959 . S
C396 H455 0.958 . S
C397 C396 1.582 . S
C397 O400 1.458 . S
C397 H426 0.980 . S
O398 C343 1.426 . S
O398 C344 1.334 . S
O399 C371 1.412 . S
O399 C372 1.393 . S
O400 C362 1.435 . S
O400 C397 1.458 . S
O401 C353 1.468 . S
O401 C354 1.408 . S
H402 C343 0.980 . S
H403 C342 0.959 . S
H404 C342 0.959 . S
H405 C342 0.960 . S
H406 C345 0.929 . S
H407 C349 0.929 . S
H408 C350 0.959 . S
H409 C350 0.961 . S
H410 C350 0.961 . S
H411 C351 0.960 . S
H412 C351 0.960 . S
H413 C351 0.961 . S
H414 C353 0.980 . S
H415 C352 0.961 . S
H416 C352 0.960 . S
H417 C352 0.959 . S
H418 C355 0.930 . S
H419 C359 0.931 . S
H420 C360 0.959 . S
H421 C360 0.961 . S
H422 C360 0.959 . S
H423 C361 0.960 . S
H424 C361 0.960 . S
H425 C361 0.960 . S
H426 C397 0.980 . S
H427 C363 0.930 . S
H428 C367 0.930 . S
H429 C368 0.961 . S
H430 C368 0.960 . S
H431 C368 0.958 . S
H432 C369 0.961 . S
H433 C369 0.960 . S
H434 C369 0.960 . S
H435 C371 0.980 . S
H436 C370 0.961 . S
H437 C370 0.961 . S
H438 C370 0.959 . S
H439 C373 0.932 . S
H440 C377 0.929 . S
H441 C378 0.961 . S
H442 C378 0.959 . S
H443 C378 0.959 . S
H444 C379 0.960 . S
H445 C379 0.962 . S
H446 C379 0.961 . S
H447 C381 0.929 . S
H448 C384 0.930 . S
H449 C385 0.929 . S
H450 C388 0.930 . S
H451 C391 0.929 . S
H452 C392 0.930 . S
H453 C396 0.962 . S
H454 C396 0.959 . S
H455 C396 0.958 . S
C456 C457 1.560 . S
C456 H517 0.959 . S
C456 H518 0.959 . S
C456 H519 0.960 . S
C457 C456 1.560 . S
C457 O512 1.426 . S
C457 H516 0.980 . S
C458 C459 1.407 . S
C458 C463 1.418 . S
C458 O512 1.334 . S
C459 C458 1.407 . S
C459 C460 1.360 . S
C459 H520 0.929 . S
C460 C459 1.360 . S
C460 C461 1.401 . S
C460 C464 1.527 . S
C461 C460 1.401 . S
C461 C462 1.405 . S
C461 C494 1.587 . S
C462 C461 1.405 . S
C462 C463 1.332 . S
C462 C465 1.496 . S
C463 C458 1.418 . S
C463 C462 1.332 . S
C463 H521 0.929 . S
C464 C460 1.527 . S
C464 H522 0.959 . S
C464 H523 0.961 . S
C464 H524 0.961 . S
C465 C462 1.496 . S
C465 H525 0.960 . S
C465 H526 0.960 . S
C465 H527 0.961 . S
C466 C467 1.517 . S
C466 H529 0.961 . S
C466 H530 0.960 . S
C466 H531 0.959 . S
C467 C466 1.517 . S
C467 O515 1.468 . S
C467 H528 0.980 . S
C468 C469 1.349 . S
C468 C473 1.367 . S
C468 O515 1.408 . S
C469 C468 1.349 . S
C469 C470 1.407 . S
C469 H532 0.930 . S
C470 C469 1.407 . S
C470 C471 1.449 . S
C470 C474 1.535 . S
C471 C470 1.449 . S
C471 C472 1.384 . S
C471 C496 1.553 . S
C472 C471 1.384 . S
C472 C473 1.364 . S
C472 C475 1.450 . S
C473 C468 1.367 . S
C473 C472 1.364 . S
C473 H533 0.931 . S
C474 C470 1.535 . S
C474 H534 0.959 . S
C474 H535 0.961 . S
C474 H536 0.959 . S
C475 C472 1.450 . S
C475 H537 0.960 . S
C475 H538 0.960 . S
C475 H539 0.960 . S
C476 C477 1.309 . S
C476 C481 1.304 . S
C476 O514 1.435 . S
C477 C476 1.309 . S
C477 C478 1.476 . S
C477 H541 0.930 . S
C478 C477 1.476 . S
C478 C479 1.400 . S
C478 C482 1.567 . S
C479 C478 1.400 . S
C479 C480 1.373 . S
C479 C501 1.432 . S
C480 C479 1.373 . S
C480 C481 1.339 . S
C480 C483 1.530 . S
C481 C476 1.304 . S
C481 C480 1.339 . S
C481 H542 0.930 . S
C482 C478 1.567 . S
C482 H543 0.961 . S
C482 H544 0.960 . S
C482 H545 0.958 . S
C483 C480 1.530 . S
C483 H546 0.961 . S
C483 H547 0.960 . S
C483 H548 0.960 . S
C484 C485 1.530 . S
C484 H550 0.961 . S
C484 H551 0.961 . S
C484 H552 0.959 . S
C485 C484 1.530 . S
C485 O513 1.412 . S
C485 H549 0.980 . S
C486 C487 1.288 . S
C486 C491 1.377 . S
C486 O513 1.393 . S
C487 C486 1.288 . S
C487 C488 1.369 . S
C487 H553 0.932 . S
C488 C487 1.369 . S
C488 C489 1.398 . S
C488 C492 1.527 . S
C489 C488 1.398 . S
C489 C490 1.380 . S
C489 C503 1.497 . S
C490 C489 1.380 . S
C490 C491 1.383 . S
C490 C493 1.603 . S
C491 C486 1.377 . S
C491 C490 1.383 . S
C491 H554 0.929 . S
C492 C488 1.527 . S
C492 H555 0.961 . S
C492 H556 0.959 . S
C492 H557 0.959 . S
C493 C490 1.603 . S
C493 H558 0.960 . S
C493 H559 0.962 . S
C493 H560 0.961 . S
C494 C461 1.587 . S
C494 C495 1.360 . S
C494 C507 1.412 . S
C495 C494 1.360 . S
C495 C496 1.365 . S
C495 H561 0.929 . S
C496 C471 1.553 . S
C496 C495 1.365 . S
C496 C497 1.404 . S
C497 C496 1.404 . S
C497 C498 1.395 . S
C497 C508 1.451 . S
C498 C497 1.395 . S
C498 C499 1.322 . S
C498 H562 0.930 . S
C499 C498 1.322 . S
C499 C500 1.459 . S
C499 H563 0.929 . S
C500 C499 1.459 . S
C500 C501 1.445 . S
C500 C509 1.395 . S
C501 C479 1.432 . S
C501 C500 1.445 . S
C501 C502 1.370 . S
C502 C501 1.370 . S
C502 C503 1.438 . S
C502 H564 0.930 . S
C503 C489 1.497 . S
C503 C502 1.438 . S
C503 C504 1.360 . S
C504 C503 1.360 . S
C504 C505 1.401 . S
C504 C509 1.446 . S
C505 C504 1.401 . S
C505 C506 1.347 . S
C505 H565 0.929 . S
C506 C505 1.347 . S
C506 C507 1.455 . S
C506 H566 0.930 . S
C507 C494 1.412 . S
C507 C506 1.455 . S
C507 C508 1.331 . S
C508 C497 1.451 . S
C508 C507 1.331 . S
C508 C509 1.497 . S
C509 C500 1.395 . S
C509 C504 1.446 . S
C509 C508 1.497 . S
C510 C511 1.582 . S
C510 H567 0.962 . S
C510 H568 0.959 . S
C510 H569 0.958 . S
C511 C510 1.582 . S
C511 O514 1.458 . S
C511 H540 0.980 . S
O512 C457 1.426 . S
O512 C458 1.334 . S
O513 C485 1.412 . S
O513 C486 1.393 . S
O514 C476 1.435 . S
O514 C511 1.458 . S
O515 C467 1.468 . S
O515 C468 1.408 . S
H516 C457 0.980 . S
H517 C456 0.959 . S
H518 C456 0.959 . S
H519 C456 0.960 . S
H520 C459 0.929 . S
H521 C463 0.929 . S
H522 C464 0.959 . S
H523 C464 0.961 . S
H524 C464 0.961 . S
H525 C465 0.960 . S
H526 C465 0.960 . S
H527 C465 0.961 . S
H528 C467 0.980 . S
H529 C466 0.961 . S
H530 C466 0.960 . S
H531 C466 0.959 . S
H532 C469 0.930 . S
H533 C473 0.931 . S
H534 C474 0.959 . S
H535 C474 0.961 . S
H536 C474 0.959 . S
H537 C475 0.960 . S
H538 C475 0.960 . S
H539 C475 0.960 . S
H540 C511 0.980 . S
H541 C477 0.930 . S
H542 C481 0.930 . S
H543 C482 0.961 . S
H544 C482 0.960 . S
H545 C482 0.958 . S
H546 C483 0.961 . S
H547 C483 0.960 . S
H548 C483 0.960 . S
H549 C485 0.980 . S
H550 C484 0.961 . S
H551 C484 0.961 . S
H552 C484 0.959 . S
H553 C487 0.932 . S
H554 C491 0.929 . S
H555 C492 0.961 . S
H556 C492 0.959 . S
H557 C492 0.959 . S
H558 C493 0.960 . S
H559 C493 0.962 . S
H560 C493 0.961 . S
H561 C495 0.929 . S
H562 C498 0.930 . S
H563 C499 0.929 . S
H564 C502 0.930 . S
H565 C505 0.929 . S
H566 C506 0.930 . S
H567 C510 0.962 . S
H568 C510 0.959 . S
H569 C510 0.958 . S
C570 C571 1.560 . S
C570 H631 0.959 . S
C570 H632 0.959 . S
C570 H633 0.960 . S
C571 C570 1.560 . S
C571 O626 1.426 . S
C571 H630 0.980 . S
C572 C573 1.407 . S
C572 C577 1.418 . S
C572 O626 1.334 . S
C573 C572 1.407 . S
C573 C574 1.360 . S
C573 H634 0.929 . S
C574 C573 1.360 . S
C574 C575 1.401 . S
C574 C578 1.527 . S
C575 C574 1.401 . S
C575 C576 1.405 . S
C575 C608 1.587 . S
C576 C575 1.405 . S
C576 C577 1.332 . S
C576 C579 1.496 . S
C577 C572 1.418 . S
C577 C576 1.332 . S
C577 H635 0.929 . S
C578 C574 1.527 . S
C578 H636 0.959 . S
C578 H637 0.961 . S
C578 H638 0.961 . S
C579 C576 1.496 . S
C579 H639 0.960 . S
C579 H640 0.960 . S
C579 H641 0.961 . S
C580 C581 1.517 . S
C580 H643 0.961 . S
C580 H644 0.960 . S
C580 H645 0.959 . S
C581 C580 1.517 . S
C581 O629 1.468 . S
C581 H642 0.980 . S
C582 C583 1.349 . S
C582 C587 1.367 . S
C582 O629 1.408 . S
C583 C582 1.349 . S
C583 C584 1.407 . S
C583 H646 0.930 . S
C584 C583 1.407 . S
C584 C585 1.449 . S
C584 C588 1.535 . S
C585 C584 1.449 . S
C585 C586 1.384 . S
C585 C610 1.553 . S
C586 C585 1.384 . S
C586 C587 1.364 . S
C586 C589 1.450 . S
C587 C582 1.367 . S
C587 C586 1.364 . S
C587 H647 0.931 . S
C588 C584 1.535 . S
C588 H648 0.959 . S
C588 H649 0.961 . S
C588 H650 0.959 . S
C589 C586 1.450 . S
C589 H651 0.960 . S
C589 H652 0.960 . S
C589 H653 0.960 . S
C590 C591 1.309 . S
C590 C595 1.304 . S
C590 O628 1.435 . S
C591 C590 1.309 . S
C591 C592 1.476 . S
C591 H655 0.930 . S
C592 C591 1.476 . S
C592 C593 1.400 . S
C592 C596 1.567 . S
C593 C592 1.400 . S
C593 C594 1.373 . S
C593 C615 1.432 . S
C594 C593 1.373 . S
C594 C595 1.339 . S
C594 C597 1.530 . S
C595 C590 1.304 . S
C595 C594 1.339 . S
C595 H656 0.930 . S
C596 C592 1.567 . S
C596 H657 0.961 . S
C596 H658 0.960 . S
C596 H659 0.958 . S
C597 C594 1.530 . S
C597 H660 0.961 . S
C597 H661 0.960 . S
C597 H662 0.960 . S
C598 C599 1.530 . S
C598 H664 0.961 . S
C598 H665 0.961 . S
C598 H666 0.959 . S
C599 C598 1.530 . S
C599 O627 1.412 . S
C599 H663 0.980 . S
C600 C601 1.288 . S
C600 C605 1.377 . S
C600 O627 1.393 . S
C601 C600 1.288 . S
C601 C602 1.369 . S
C601 H667 0.932 . S
C602 C601 1.369 . S
C602 C603 1.398 . S
C602 C606 1.527 . S
C603 C602 1.398 . S
C603 C604 1.380 . S
C603 C617 1.497 . S
C604 C603 1.380 . S
C604 C605 1.383 . S
C604 C607 1.603 . S
C605 C600 1.377 . S
C605 C604 1.383 . S
C605 H668 0.929 . S
C606 C602 1.527 . S
C606 H669 0.961 . S
C606 H670 0.959 . S
C606 H671 0.959 . S
C607 C604 1.603 . S
C607 H672 0.960 . S
C607 H673 0.962 . S
C607 H674 0.961 . S
C608 C575 1.587 . S
C608 C609 1.360 . S
C608 C621 1.412 . S
C609 C608 1.360 . S
C609 C610 1.365 . S
C609 H675 0.929 . S
C610 C585 1.553 . S
C610 C609 1.365 . S
C610 C611 1.404 . S
C611 C610 1.404 . S
C611 C612 1.395 . S
C611 C622 1.451 . S
C612 C611 1.395 . S
C612 C613 1.322 . S
C612 H676 0.930 . S
C613 C612 1.322 . S
C613 C614 1.459 . S
C613 H677 0.929 . S
C614 C613 1.459 . S
C614 C615 1.445 . S
C614 C623 1.395 . S
C615 C593 1.432 . S
C615 C614 1.445 . S
C615 C616 1.370 . S
C616 C615 1.370 . S
C616 C617 1.438 . S
C616 H678 0.930 . S
C617 C603 1.497 . S
C617 C616 1.438 . S
C617 C618 1.360 . S
C618 C617 1.360 . S
C618 C619 1.401 . S
C618 C623 1.446 . S
C619 C618 1.401 . S
C619 C620 1.347 . S
C619 H679 0.929 . S
C620 C619 1.347 . S
C620 C621 1.455 . S
C620 H680 0.930 . S
C621 C608 1.412 . S
C621 C620 1.455 . S
C621 C622 1.331 . S
C622 C611 1.451 . S
C622 C621 1.331 . S
C622 C623 1.497 . S
C623 C614 1.395 . S
C623 C618 1.446 . S
C623 C622 1.497 . S
C624 C625 1.582 . S
C624 H681 0.962 . S
C624 H682 0.959 . S
C624 H683 0.958 . S
C625 C624 1.582 . S
C625 O628 1.458 . S
C625 H654 0.980 . S
O626 C571 1.426 . S
O626 C572 1.334 . S
O627 C599 1.412 . S
O627 C600 1.393 . S
O628 C590 1.435 . S
O628 C625 1.458 . S
O629 C581 1.468 . S
O629 C582 1.408 . S
H630 C571 0.980 . S
H631 C570 0.959 . S
H632 C570 0.959 . S
H633 C570 0.960 . S
H634 C573 0.929 . S
H635 C577 0.929 . S
H636 C578 0.959 . S
H637 C578 0.961 . S
H638 C578 0.961 . S
H639 C579 0.960 . S
H640 C579 0.960 . S
H641 C579 0.961 . S
H642 C581 0.980 . S
H643 C580 0.961 . S
H644 C580 0.960 . S
H645 C580 0.959 . S
H646 C583 0.930 . S
H647 C587 0.931 . S
H648 C588 0.959 . S
H649 C588 0.961 . S
H650 C588 0.959 . S
H651 C589 0.960 . S
H652 C589 0.960 . S
H653 C589 0.960 . S
H654 C625 0.980 . S
H655 C591 0.930 . S
H656 C595 0.930 . S
H657 C596 0.961 . S
H658 C596 0.960 . S
H659 C596 0.958 . S
H660 C597 0.961 . S
H661 C597 0.960 . S
H662 C597 0.960 . S
H663 C599 0.980 . S
H664 C598 0.961 . S
H665 C598 0.961 . S
H666 C598 0.959 . S
H667 C601 0.932 . S
H668 C605 0.929 . S
H669 C606 0.961 . S
H670 C606 0.959 . S
H671 C606 0.959 . S
H672 C607 0.960 . S
H673 C607 0.962 . S
H674 C607 0.961 . S
H675 C609 0.929 . S
H676 C612 0.930 . S
H677 C613 0.929 . S
H678 C616 0.930 . S
H679 C619 0.929 . S
H680 C620 0.930 . S
H681 C624 0.962 . S
H682 C624 0.959 . S
H683 C624 0.958 . S
C684 C685 1.560 . S
C684 H745 0.959 . S
C684 H746 0.959 . S
C684 H747 0.960 . S
C685 C684 1.560 . S
C685 O740 1.426 . S
C685 H744 0.980 . S
C686 C687 1.407 . S
C686 C691 1.418 . S
C686 O740 1.334 . S
C687 C686 1.407 . S
C687 C688 1.360 . S
C687 H748 0.929 . S
C688 C687 1.360 . S
C688 C689 1.401 . S
C688 C692 1.527 . S
C689 C688 1.401 . S
C689 C690 1.405 . S
C689 C722 1.587 . S
C690 C689 1.405 . S
C690 C691 1.332 . S
C690 C693 1.496 . S
C691 C686 1.418 . S
C691 C690 1.332 . S
C691 H749 0.929 . S
C692 C688 1.527 . S
C692 H750 0.959 . S
C692 H751 0.961 . S
C692 H752 0.961 . S
C693 C690 1.496 . S
C693 H753 0.960 . S
C693 H754 0.960 . S
C693 H755 0.961 . S
C694 C695 1.517 . S
C694 H757 0.961 . S
C694 H758 0.960 . S
C694 H759 0.959 . S
C695 C694 1.517 . S
C695 O743 1.468 . S
C695 H756 0.980 . S
C696 C697 1.349 . S
C696 C701 1.367 . S
C696 O743 1.408 . S
C697 C696 1.349 . S
C697 C698 1.407 . S
C697 H760 0.930 . S
C698 C697 1.407 . S
C698 C699 1.449 . S
C698 C702 1.535 . S
C699 C698 1.449 . S
C699 C700 1.384 . S
C699 C724 1.553 . S
C700 C699 1.384 . S
C700 C701 1.364 . S
C700 C703 1.450 . S
C701 C696 1.367 . S
C701 C700 1.364 . S
C701 H761 0.931 . S
C702 C698 1.535 . S
C702 H762 0.959 . S
C702 H763 0.961 . S
C702 H764 0.959 . S
C703 C700 1.450 . S
C703 H765 0.960 . S
C703 H766 0.960 . S
C703 H767 0.960 . S
C704 C705 1.309 . S
C704 C709 1.304 . S
C704 O742 1.435 . S
C705 C704 1.309 . S
C705 C706 1.476 . S
C705 H769 0.930 . S
C706 C705 1.476 . S
C706 C707 1.400 . S
C706 C710 1.567 . S
C707 C706 1.400 . S
C707 C708 1.373 . S
C707 C729 1.432 . S
C708 C707 1.373 . S
C708 C709 1.339 . S
C708 C711 1.530 . S
C709 C704 1.304 . S
C709 C708 1.339 . S
C709 H770 0.930 . S
C710 C706 1.567 . S
C710 H771 0.961 . S
C710 H772 0.960 . S
C710 H773 0.958 . S
C711 C708 1.530 . S
C711 H774 0.961 . S
C711 H775 0.960 . S
C711 H776 0.960 . S
C712 C713 1.530 . S
C712 H778 0.961 . S
C712 H779 0.961 . S
C712 H780 0.959 . S
C713 C712 1.530 . S
C713 O741 1.412 . S
C713 H777 0.980 . S
C714 C715 1.288 . S
C714 C719 1.377 . S
C714 O741 1.393 . S
C715 C714 1.288 . S
C715 C716 1.369 . S
C715 H781 0.932 . S
C716 C715 1.369 . S
C716 C717 1.398 . S
C716 C720 1.527 . S
C717 C716 1.398 . S
C717 C718 1.380 . S
C717 C731 1.497 . S
C718 C717 1.380 . S
C718 C719 1.383 . S
C718 C721 1.603 . S
C719 C714 1.377 . S
C719 C718 1.383 . S
C719 H782 0.929 . S
C720 C716 1.527 . S
C720 H783 0.961 . S
C720 H784 0.959 . S
C720 H785 0.959 . S
C721 C718 1.603 . S
C721 H786 0.960 . S
C721 H787 0.962 . S
C721 H788 0.961 . S
C722 C689 1.587 . S
C722 C723 1.360 . S
C722 C735 1.412 . S
C723 C722 1.360 . S
C723 C724 1.365 . S
C723 H789 0.929 . S
C724 C699 1.553 . S
C724 C723 1.365 . S
C724 C725 1.404 . S
C725 C724 1.404 . S
C725 C726 1.395 . S
C725 C736 1.451 . S
C726 C725 1.395 . S
C726 C727 1.322 . S
C726 H790 0.930 . S
C727 C726 1.322 . S
C727 C728 1.459 . S
C727 H791 0.929 . S
C728 C727 1.459 . S
C728 C729 1.445 . S
C728 C737 1.395 . S
C729 C707 1.432 . S
C729 C728 1.445 . S
C729 C730 1.370 . S
C730 C729 1.370 . S
C730 C731 1.438 . S
C730 H792 0.930 . S
C731 C717 1.497 . S
C731 C730 1.438 . S
C731 C732 1.360 . S
C732 C731 1.360 . S
C732 C733 1.401 . S
C732 C737 1.446 . S
C733 C732 1.401 . S
C733 C734 1.347 . S
C733 H793 0.929 . S
C734 C733 1.347 . S
C734 C735 1.455 . S
C734 H794 0.930 . S
C735 C722 1.412 . S
C735 C734 1.455 . S
C735 C736 1.331 . S
C736 C725 1.451 . S
C736 C735 1.331 . S
C736 C737 1.497 . S
C737 C728 1.395 . S
C737 C732 1.446 . S
C737 C736 1.497 . S
C738 C739 1.582 . S
C738 H795 0.962 . S
C738 H796 0.959 . S
C738 H797 0.958 . S
C739 C738 1.582 . S
C739 O742 1.458 . S
C739 H768 0.980 . S
O740 C685 1.426 . S
O740 C686 1.334 . S
O741 C713 1.412 . S
O741 C714 1.393 . S
O742 C704 1.435 . S
O742 C739 1.458 . S
O743 C695 1.468 . S
O743 C696 1.408 . S
H744 C685 0.980 . S
H745 C684 0.959 . S
H746 C684 0.959 . S
H747 C684 0.960 . S
H748 C687 0.929 . S
H749 C691 0.929 . S
H750 C692 0.959 . S
H751 C692 0.961 . S
H752 C692 0.961 . S
H753 C693 0.960 . S
H754 C693 0.960 . S
H755 C693 0.961 . S
H756 C695 0.980 . S
H757 C694 0.961 . S
H758 C694 0.960 . S
H759 C694 0.959 . S
H760 C697 0.930 . S
H761 C701 0.931 . S
H762 C702 0.959 . S
H763 C702 0.961 . S
H764 C702 0.959 . S
H765 C703 0.960 . S
H766 C703 0.960 . S
H767 C703 0.960 . S
H768 C739 0.980 . S
H769 C705 0.930 . S
H770 C709 0.930 . S
H771 C710 0.961 . S
H772 C710 0.960 . S
H773 C710 0.958 . S
H774 C711 0.961 . S
H775 C711 0.960 . S
H776 C711 0.960 . S
H777 C713 0.980 . S
H778 C712 0.961 . S
H779 C712 0.961 . S
H780 C712 0.959 . S
H781 C715 0.932 . S
H782 C719 0.929 . S
H783 C720 0.961 . S
H784 C720 0.959 . S
H785 C720 0.959 . S
H786 C721 0.960 . S
H787 C721 0.962 . S
H788 C721 0.961 . S
H789 C723 0.929 . S
H790 C726 0.930 . S
H791 C727 0.929 . S
H792 C730 0.930 . S
H793 C733 0.929 . S
H794 C734 0.930 . S
H795 C738 0.962 . S
H796 C738 0.959 . S
H797 C738 0.958 . S
C798 C799 1.560 . S
C798 H859 0.959 . S
C798 H860 0.959 . S
C798 H861 0.960 . S
C799 C798 1.560 . S
C799 O854 1.426 . S
C799 H858 0.980 . S
C800 C801 1.407 . S
C800 C805 1.418 . S
C800 O854 1.334 . S
C801 C800 1.407 . S
C801 C802 1.360 . S
C801 H862 0.929 . S
C802 C801 1.360 . S
C802 C803 1.401 . S
C802 C806 1.527 . S
C803 C802 1.401 . S
C803 C804 1.405 . S
C803 C836 1.587 . S
C804 C803 1.405 . S
C804 C805 1.332 . S
C804 C807 1.496 . S
C805 C800 1.418 . S
C805 C804 1.332 . S
C805 H863 0.929 . S
C806 C802 1.527 . S
C806 H864 0.959 . S
C806 H865 0.961 . S
C806 H866 0.961 . S
C807 C804 1.496 . S
C807 H867 0.960 . S
C807 H868 0.960 . S
C807 H869 0.961 . S
C808 C809 1.517 . S
C808 H871 0.961 . S
C808 H872 0.960 . S
C808 H873 0.959 . S
C809 C808 1.517 . S
C809 O857 1.468 . S
C809 H870 0.980 . S
C810 C811 1.349 . S
C810 C815 1.367 . S
C810 O857 1.408 . S
C811 C810 1.349 . S
C811 C812 1.407 . S
C811 H874 0.930 . S
C812 C811 1.407 . S
C812 C813 1.449 . S
C812 C816 1.535 . S
C813 C812 1.449 . S
C813 C814 1.384 . S
C813 C838 1.553 . S
C814 C813 1.384 . S
C814 C815 1.364 . S
C814 C817 1.450 . S
C815 C810 1.367 . S
C815 C814 1.364 . S
C815 H875 0.931 . S
C816 C812 1.535 . S
C816 H876 0.959 . S
C816 H877 0.961 . S
C816 H878 0.959 . S
C817 C814 1.450 . S
C817 H879 0.960 . S
C817 H880 0.960 . S
C817 H881 0.960 . S
C818 C819 1.309 . S
C818 C823 1.304 . S
C818 O856 1.435 . S
C819 C818 1.309 . S
C819 C820 1.476 . S
C819 H883 0.930 . S
C820 C819 1.476 . S
C820 C821 1.400 . S
C820 C824 1.567 . S
C821 C820 1.400 . S
C821 C822 1.373 . S
C821 C843 1.432 . S
C822 C821 1.373 . S
C822 C823 1.339 . S
C822 C825 1.530 . S
C823 C818 1.304 . S
C823 C822 1.339 . S
C823 H884 0.930 . S
C824 C820 1.567 . S
C824 H885 0.961 . S
C824 H886 0.960 . S
C824 H887 0.958 . S
C825 C822 1.530 . S
C825 H888 0.961 . S
C825 H889 0.960 . S
C825 H890 0.960 . S
C826 C827 1.530 . S
C826 H892 0.961 . S
C826 H893 0.961 . S
C826 H894 0.959 . S
C827 C826 1.530 . S
C827 O855 1.412 . S
C827 H891 0.980 . S
C828 C829 1.288 . S
C828 C833 1.377 . S
C828 O855 1.393 . S
C829 C828 1.288 . S
C829 C830 1.369 . S
C829 H895 0.932 . S
C830 C829 1.369 . S
C830 C831 1.398 . S
C830 C834 1.527 . S
C831 C830 1.398 . S
C831 C832 1.380 . S
C831 C845 1.497 . S
C832 C831 1.380 . S
C832 C833 1.383 . S
C832 C835 1.603 . S
C833 C828 1.377 . S
C833 C832 1.383 . S
C833 H896 0.929 . S
C834 C830 1.527 . S
C834 H897 0.961 . S
C834 H898 0.959 . S
C834 H899 0.959 . S
C835 C832 1.603 . S
C835 H900 0.960 . S
C835 H901 0.962 . S
C835 H902 0.961 . S
C836 C803 1.587 . S
C836 C837 1.360 . S
C836 C849 1.412 . S
C837 C836 1.360 . S
C837 C838 1.365 . S
C837 H903 0.929 . S
C838 C813 1.553 . S
C838 C837 1.365 . S
C838 C839 1.404 . S
C839 C838 1.404 . S
C839 C840 1.395 . S
C839 C850 1.451 . S
C840 C839 1.395 . S
C840 C841 1.322 . S
C840 H904 0.930 . S
C841 C840 1.322 . S
C841 C842 1.459 . S
C841 H905 0.929 . S
C842 C841 1.459 . S
C842 C843 1.445 . S
C842 C851 1.395 . S
C843 C821 1.432 . S
C843 C842 1.445 . S
C843 C844 1.370 . S
C844 C843 1.370 . S
C844 C845 1.438 . S
C844 H906 0.930 . S
C845 C831 1.497 . S
C845 C844 1.438 . S
C845 C846 1.360 . S
C846 C845 1.360 . S
C846 C847 1.401 . S
C846 C851 1.446 . S
C847 C846 1.401 . S
C847 C848 1.347 . S
C847 H907 0.929 . S
C848 C847 1.347 . S
C848 C849 1.455 . S
C848 H908 0.930 . S
C849 C836 1.412 . S
C849 C848 1.455 . S
C849 C850 1.331 . S
C850 C839 1.451 . S
C850 C849 1.331 . S
C850 C851 1.497 . S
C851 C842 1.395 . S
C851 C846 1.446 . S
C851 C850 1.497 . S
C852 C853 1.582 . S
C852 H909 0.962 . S
C852 H910 0.959 . S
C852 H911 0.958 . S
C853 C852 1.582 . S
C853 O856 1.458 . S
C853 H882 0.980 . S
O854 C799 1.426 . S
O854 C800 1.334 . S
O855 C827 1.412 . S
O855 C828 1.393 . S
O856 C818 1.435 . S
O856 C853 1.458 . S
O857 C809 1.468 . S
O857 C810 1.408 . S
H858 C799 0.980 . S
H859 C798 0.959 . S
H860 C798 0.959 . S
H861 C798 0.960 . S
H862 C801 0.929 . S
H863 C805 0.929 . S
H864 C806 0.959 . S
H865 C806 0.961 . S
H866 C806 0.961 . S
H867 C807 0.960 . S
H868 C807 0.960 . S
H869 C807 0.961 . S
H870 C809 0.980 . S
H871 C808 0.961 . S
H872 C808 0.960 . S
H873 C808 0.959 . S
H874 C811 0.930 . S
H875 C815 0.931 . S
H876 C816 0.959 . S
H877 C816 0.961 . S
H878 C816 0.959 . S
H879 C817 0.960 . S
H880 C817 0.960 . S
H881 C817 0.960 . S
H882 C853 0.980 . S
H883 C819 0.930 . S
H884 C823 0.930 . S
H885 C824 0.961 . S
H886 C824 0.960 . S
H887 C824 0.958 . S
H888 C825 0.961 . S
H889 C825 0.960 . S
H890 C825 0.960 . S
H891 C827 0.980 . S
H892 C826 0.961 . S
H893 C826 0.961 . S
H894 C826 0.959 . S
H895 C829 0.932 . S
H896 C833 0.929 . S
H897 C834 0.961 . S
H898 C834 0.959 . S
H899 C834 0.959 . S
H900 C835 0.960 . S
H901 C835 0.962 . S
H902 C835 0.961 . S
H903 C837 0.929 . S
H904 C840 0.930 . S
H905 C841 0.929 . S
H906 C844 0.930 . S
H907 C847 0.929 . S
H908 C848 0.930 . S
H909 C852 0.962 . S
H910 C852 0.959 . S
H911 C852 0.958 . S
C912 O914 1.247 . S
C912 O916 1.258 . S
C913 O920 1.247 . S
C913 O921 1.258 . S
O914 C912 1.247 . S
O914 Zn915 2.028 1_655 S
Zn915 O914 2.028 1_455 S
Zn915 O919 2.035 . S
Zn915 O921 2.035 . S
Zn915 O922 2.028 1_455 S
O916 C912 1.258 . S
O916 Zn917 2.035 1_655 S
Zn917 O916 2.035 1_455 S
Zn917 O918 2.028 . S
Zn917 O920 2.028 . S
Zn917 O923 2.035 1_455 S
O918 Zn917 2.028 . S
O918 C924 1.247 . S
O919 Zn915 2.035 . S
O919 C924 1.258 . S
O920 C913 1.247 . S
O920 Zn917 2.028 . S
O921 C913 1.258 . S
O921 Zn915 2.035 . S
O922 Zn915 2.028 1_655 S
O922 C925 1.247 . S
O923 Zn917 2.035 1_655 S
O923 C925 1.258 . S
C924 O918 1.247 . S
C924 O919 1.258 . S
C925 O922 1.247 . S
C925 O923 1.258 . S
C926 O928 1.247 . S
C926 O930 1.258 . S
C927 O934 1.247 . S
C927 O935 1.258 . S
O928 C926 1.247 . S
O928 Zn929 2.028 . S
Zn929 O928 2.028 . S
Zn929 O933 2.035 1_545 S
Zn929 O935 2.035 1_545 S
Zn929 O936 2.028 . S
O930 C926 1.258 . S
O930 Zn931 2.035 . S
Zn931 O930 2.035 . S
Zn931 O932 2.028 1_545 S
Zn931 O934 2.028 1_545 S
Zn931 O937 2.035 . S
O932 Zn931 2.028 1_565 S
O932 C938 1.247 . S
O933 Zn929 2.035 1_565 S
O933 C938 1.258 . S
O934 C927 1.247 . S
O934 Zn931 2.028 1_565 S
O935 C927 1.258 . S
O935 Zn929 2.035 1_565 S
O936 Zn929 2.028 . S
O936 C939 1.247 . S
O937 Zn931 2.035 . S
O937 C939 1.258 . S
C938 O932 1.247 . S
C938 O933 1.258 . S
C939 O936 1.247 . S
C939 O937 1.258 . S
C940 O942 1.247 . S
C940 O944 1.258 . S
C941 O948 1.247 . S
C941 O949 1.258 . S
O942 C940 1.247 . S
O942 Zn943 2.028 1_655 S
Zn943 O942 2.028 1_455 S
Zn943 O947 2.035 . S
Zn943 O949 2.035 . S
Zn943 O950 2.028 1_455 S
O944 C940 1.258 . S
O944 Zn945 2.035 1_655 S
Zn945 O944 2.035 1_455 S
Zn945 O946 2.028 . S
Zn945 O948 2.028 . S
Zn945 O951 2.035 1_455 S
O946 Zn945 2.028 . S
O946 C952 1.247 . S
O947 Zn943 2.035 . S
O947 C952 1.258 . S
O948 C941 1.247 . S
O948 Zn945 2.028 . S
O949 C941 1.258 . S
O949 Zn943 2.035 . S
O950 Zn943 2.028 1_655 S
O950 C953 1.247 . S
O951 Zn945 2.035 1_655 S
O951 C953 1.258 . S
C952 O946 1.247 . S
C952 O947 1.258 . S
C953 O950 1.247 . S
C953 O951 1.258 . S
C954 O956 1.247 . S
C954 O958 1.258 . S
C955 O962 1.247 . S
C955 O963 1.258 . S
O956 C954 1.247 . S
O956 Zn957 2.028 . S
Zn957 O956 2.028 . S
Zn957 O961 2.035 1_545 S
Zn957 O963 2.035 1_545 S
Zn957 O964 2.028 . S
O958 C954 1.258 . S
O958 Zn959 2.035 . S
Zn959 O958 2.035 . S
Zn959 O960 2.028 1_545 S
Zn959 O962 2.028 1_545 S
Zn959 O965 2.035 . S
O960 Zn959 2.028 1_565 S
O960 C966 1.247 . S
O961 Zn957 2.035 1_565 S
O961 C966 1.258 . S
O962 C955 1.247 . S
O962 Zn959 2.028 1_565 S
O963 C955 1.258 . S
O963 Zn957 2.035 1_565 S
O964 Zn957 2.028 . S
O964 C967 1.247 . S
O965 Zn959 2.035 . S
O965 C967 1.258 . S
C966 O960 1.247 . S
C966 O961 1.258 . S
C967 O964 1.247 . S
C967 O965 1.258 . S
C968 O970 1.247 . S
C968 O972 1.258 . S
C969 O976 1.247 . S
C969 O977 1.258 . S
O970 C968 1.247 . S
O970 Zn971 2.034 . S
Zn971 O970 2.034 . S
Zn971 O975 2.041 . S
Zn971 O977 2.029 1_554 S
Zn971 O978 2.022 1_554 S
O972 C968 1.258 . S
O972 Zn973 2.043 . S
Zn973 O972 2.043 . S
Zn973 O974 2.036 . S
Zn973 O976 2.020 1_554 S
Zn973 O979 2.027 1_554 S
O974 Zn973 2.036 . S
O974 C980 1.247 . S
O975 Zn971 2.041 . S
O975 C980 1.258 . S
O976 C969 1.247 . S
O976 Zn973 2.020 1_556 S
O977 C969 1.258 . S
O977 Zn971 2.029 1_556 S
O978 Zn971 2.022 1_556 S
O978 C981 1.247 . S
O979 Zn973 2.027 1_556 S
O979 C981 1.258 . S
C980 O974 1.247 . S
C980 O975 1.258 . S
C981 O978 1.247 . S
C981 O979 1.258 . S
C982 O984 1.247 . S
C982 O986 1.258 . S
C983 O990 1.247 . S
C983 O991 1.258 . S
O984 C982 1.247 . S
O984 Zn985 2.028 . S
Zn985 O984 2.028 . S
Zn985 O989 2.035 . S
Zn985 O991 2.035 1_554 S
Zn985 O992 2.028 1_554 S
O986 C982 1.258 . S
O986 Zn987 2.035 . S
Zn987 O986 2.035 . S
Zn987 O988 2.028 . S
Zn987 O990 2.028 1_554 S
Zn987 O993 2.035 1_554 S
O988 Zn987 2.028 . S
O988 C994 1.247 . S
O989 Zn985 2.035 . S
O989 C994 1.258 . S
O990 C983 1.247 . S
O990 Zn987 2.028 1_556 S
O991 C983 1.258 . S
O991 Zn985 2.035 1_556 S
O992 Zn985 2.028 1_556 S
O992 C995 1.247 . S
O993 Zn987 2.035 1_556 S
O993 C995 1.258 . S
C994 O988 1.247 . S
C994 O989 1.258 . S
C995 O992 1.247 . S
C995 O993 1.258 . S
C996 O998 1.247 . S
C996 O1000 1.258 . S
C997 O1004 1.247 . S
C997 O1005 1.258 . S
O998 C996 1.247 . S
O998 Zn999 2.020 1_556 S
Zn999 O998 2.020 1_554 S
Zn999 O1003 2.027 1_554 S
Zn999 O1005 2.043 . S
Zn999 O1006 2.036 . S
O1000 C996 1.258 . S
O1000 Zn1001 2.028 1_556 S
Zn1001 O1000 2.028 1_554 S
Zn1001 O1002 2.021 1_554 S
Zn1001 O1004 2.035 . S
Zn1001 O1007 2.042 . S
O1002 Zn1001 2.021 1_556 S
O1002 C1008 1.247 . S
O1003 Zn999 2.027 1_556 S
O1003 C1008 1.258 . S
O1004 C997 1.247 . S
O1004 Zn1001 2.035 . S
O1005 C997 1.258 . S
O1005 Zn999 2.043 . S
O1006 Zn999 2.036 . S
O1006 C1009 1.247 . S
O1007 Zn1001 2.042 . S
O1007 C1009 1.258 . S
C1008 O1002 1.247 . S
C1008 O1003 1.258 . S
C1009 O1006 1.247 . S
C1009 O1007 1.258 . S
C1010 O1012 1.247 . S
C1010 O1014 1.258 . S
C1011 O1018 1.247 . S
C1011 O1019 1.258 . S
O1012 C1010 1.247 . S
O1012 Zn1013 2.028 . S
Zn1013 O1012 2.028 . S
Zn1013 O1017 2.035 . S
Zn1013 O1019 2.035 1_554 S
Zn1013 O1020 2.028 1_554 S
O1014 C1010 1.258 . S
O1014 Zn1015 2.035 . S
Zn1015 O1014 2.035 . S
Zn1015 O1016 2.028 . S
Zn1015 O1018 2.028 1_554 S
Zn1015 O1021 2.035 1_554 S
O1016 Zn1015 2.028 . S
O1016 C1022 1.247 . S
O1017 Zn1013 2.035 . S
O1017 C1022 1.258 . S
O1018 C1011 1.247 . S
O1018 Zn1015 2.028 1_556 S
O1019 C1011 1.258 . S
O1019 Zn1013 2.035 1_556 S
O1020 Zn1013 2.028 1_556 S
O1020 C1023 1.247 . S
O1021 Zn1015 2.035 1_556 S
O1021 C1023 1.258 . S
C1022 O1016 1.247 . S
C1022 O1017 1.258 . S
C1023 O1020 1.247 . S
C1023 O1021 1.258 . S
H1024 C1030 0.930 . S
H1025 C1033 0.930 . S
H1026 C1034 0.930 . S
H1027 C1035 0.930 . S
H1028 C1038 0.930 . S
H1029 C1039 0.930 . S
C1030 H1024 0.930 . S
C1030 C1031 1.355 . S
C1030 C1032 1.415 . S
C1031 C1030 1.355 . S
C1031 C1033 1.419 . S
C1032 C1030 1.415 . S
C1032 C1037 1.425 . S
C1032 C1039 1.409 . S
C1033 H1025 0.930 . S
C1033 C1031 1.419 . S
C1033 C1034 1.362 . S
C1034 H1026 0.930 . S
C1034 C1033 1.362 . S
C1034 C1037 1.409 . S
C1035 H1027 0.930 . S
C1035 C1036 1.355 . S
C1035 C1037 1.415 . S
C1036 C1035 1.355 . S
C1036 C1038 1.419 . S
C1037 C1032 1.425 . S
C1037 C1034 1.409 . S
C1037 C1035 1.415 . S
C1038 H1028 0.930 . S
C1038 C1036 1.419 . S
C1038 C1039 1.362 . S
C1039 H1029 0.930 . S
C1039 C1032 1.409 . S
C1039 C1038 1.362 . S
H1040 C1046 0.930 . S
H1041 C1049 0.930 . S
H1042 C1050 0.930 . S
H1043 C1051 0.930 . S
H1044 C1054 0.930 . S
H1045 C1055 0.930 . S
C1046 H1040 0.930 . S
C1046 C1047 1.355 . S
C1046 C1048 1.415 . S
C1047 C1046 1.355 . S
C1047 C1049 1.419 . S
C1048 C1046 1.415 . S
C1048 C1053 1.425 . S
C1048 C1055 1.409 . S
C1049 H1041 0.930 . S
C1049 C1047 1.419 . S
C1049 C1050 1.362 . S
C1050 H1042 0.930 . S
C1050 C1049 1.362 . S
C1050 C1053 1.409 . S
C1051 H1043 0.930 . S
C1051 C1052 1.355 . S
C1051 C1053 1.415 . S
C1052 C1051 1.355 . S
C1052 C1054 1.419 . S
C1053 C1048 1.425 . S
C1053 C1050 1.409 . S
C1053 C1051 1.415 . S
C1054 H1044 0.930 . S
C1054 C1052 1.419 . S
C1054 C1055 1.362 . S
C1055 H1045 0.930 . S
C1055 C1048 1.409 . S
C1055 C1054 1.362 . S
H1056 C1062 0.930 . S
H1057 C1065 0.930 . S
H1058 C1066 0.930 . S
H1059 C1067 0.930 . S
H1060 C1070 0.930 . S
H1061 C1071 0.930 . S
C1062 H1056 0.930 . S
C1062 C1063 1.355 . S
C1062 C1064 1.415 . S
C1063 C1062 1.355 . S
C1063 C1065 1.419 . S
C1064 C1062 1.415 . S
C1064 C1069 1.425 . S
C1064 C1071 1.409 . S
C1065 H1057 0.930 . S
C1065 C1063 1.419 . S
C1065 C1066 1.362 . S
C1066 H1058 0.930 . S
C1066 C1065 1.362 . S
C1066 C1069 1.409 . S
C1067 H1059 0.930 . S
C1067 C1068 1.355 . S
C1067 C1069 1.415 . S
C1068 C1067 1.355 . S
C1068 C1070 1.419 . S
C1069 C1064 1.425 . S
C1069 C1066 1.409 . S
C1069 C1067 1.415 . S
C1070 H1060 0.930 . S
C1070 C1068 1.419 . S
C1070 C1071 1.362 . S
C1071 H1061 0.930 . S
C1071 C1064 1.409 . S
C1071 C1070 1.362 . S
H1072 C1078 0.930 . S
H1073 C1081 0.930 . S
H1074 C1082 0.930 . S
H1075 C1083 0.930 . S
H1076 C1086 0.930 . S
H1077 C1087 0.930 . S
C1078 H1072 0.930 . S
C1078 C1079 1.355 . S
C1078 C1080 1.415 . S
C1079 C1078 1.355 . S
C1079 C1081 1.419 . S
C1080 C1078 1.415 . S
C1080 C1085 1.425 . S
C1080 C1087 1.409 . S
C1081 H1073 0.930 . S
C1081 C1079 1.419 . S
C1081 C1082 1.362 . S
C1082 H1074 0.930 . S
C1082 C1081 1.362 . S
C1082 C1085 1.409 . S
C1083 H1075 0.930 . S
C1083 C1084 1.355 . S
C1083 C1085 1.415 . S
C1084 C1083 1.355 . S
C1084 C1086 1.419 . S
C1085 C1080 1.425 . S
C1085 C1082 1.409 . S
C1085 C1083 1.415 . S
C1086 H1076 0.930 . S
C1086 C1084 1.419 . S
C1086 C1087 1.362 . S
C1087 H1077 0.930 . S
C1087 C1080 1.409 . S
C1087 C1086 1.362 . S
H1088 C1094 0.930 . S
H1089 C1097 0.930 . S
H1090 C1098 0.930 . S
H1091 C1099 0.930 . S
H1092 C1102 0.930 . S
H1093 C1103 0.930 . S
C1094 H1088 0.930 . S
C1094 C1095 1.355 . S
C1094 C1096 1.415 . S
C1095 C1094 1.355 . S
C1095 C1097 1.419 . S
C1096 C1094 1.415 . S
C1096 C1101 1.425 . S
C1096 C1103 1.409 . S
C1097 H1089 0.930 . S
C1097 C1095 1.419 . S
C1097 C1098 1.362 . S
C1098 H1090 0.930 . S
C1098 C1097 1.362 . S
C1098 C1101 1.409 . S
C1099 H1091 0.930 . S
C1099 C1100 1.355 . S
C1099 C1101 1.415 . S
C1100 C1099 1.355 . S
C1100 C1102 1.419 . S
C1101 C1096 1.425 . S
C1101 C1098 1.409 . S
C1101 C1099 1.415 . S
C1102 H1092 0.930 . S
C1102 C1100 1.419 . S
C1102 C1103 1.362 . S
C1103 H1093 0.930 . S
C1103 C1096 1.409 . S
C1103 C1102 1.362 . S
H1104 C1110 0.930 . S
H1105 C1113 0.930 . S
H1106 C1114 0.930 . S
H1107 C1115 0.930 . S
H1108 C1118 0.930 . S
H1109 C1119 0.930 . S
C1110 H1104 0.930 . S
C1110 C1111 1.355 . S
C1110 C1112 1.415 . S
C1111 C1110 1.355 . S
C1111 C1113 1.419 . S
C1112 C1110 1.415 . S
C1112 C1117 1.425 . S
C1112 C1119 1.409 . S
C1113 H1105 0.930 . S
C1113 C1111 1.419 . S
C1113 C1114 1.362 . S
C1114 H1106 0.930 . S
C1114 C1113 1.362 . S
C1114 C1117 1.409 . S
C1115 H1107 0.930 . S
C1115 C1116 1.355 . S
C1115 C1117 1.415 . S
C1116 C1115 1.355 . S
C1116 C1118 1.419 . S
C1117 C1112 1.425 . S
C1117 C1114 1.409 . S
C1117 C1115 1.415 . S
C1118 H1108 0.930 . S
C1118 C1116 1.419 . S
C1118 C1119 1.362 . S
C1119 H1109 0.930 . S
C1119 C1112 1.409 . S
C1119 C1118 1.362 . S
H1120 C1126 0.930 . S
H1121 C1129 0.930 . S
H1122 C1130 0.930 . S
H1123 C1131 0.930 . S
H1124 C1134 0.930 . S
H1125 C1135 0.930 . S
C1126 H1120 0.930 . S
C1126 C1127 1.355 . S
C1126 C1128 1.415 . S
C1127 C1126 1.355 . S
C1127 C1129 1.419 . S
C1128 C1126 1.415 . S
C1128 C1133 1.425 . S
C1128 C1135 1.409 . S
C1129 H1121 0.930 . S
C1129 C1127 1.419 . S
C1129 C1130 1.362 . S
C1130 H1122 0.930 . S
C1130 C1129 1.362 . S
C1130 C1133 1.409 . S
C1131 H1123 0.930 . S
C1131 C1132 1.355 . S
C1131 C1133 1.415 . S
C1132 C1131 1.355 . S
C1132 C1134 1.419 . S
C1133 C1128 1.425 . S
C1133 C1130 1.409 . S
C1133 C1131 1.415 . S
C1134 H1124 0.930 . S
C1134 C1132 1.419 . S
C1134 C1135 1.362 . S
C1135 H1125 0.930 . S
C1135 C1128 1.409 . S
C1135 C1134 1.362 . S
H1136 C1142 0.930 . S
H1137 C1145 0.930 . S
H1138 C1146 0.930 . S
H1139 C1147 0.930 . S
H1140 C1150 0.930 . S
H1141 C1151 0.930 . S
C1142 H1136 0.930 . S
C1142 C1143 1.355 . S
C1142 C1144 1.415 . S
C1143 C1142 1.355 . S
C1143 C1145 1.419 . S
C1144 C1142 1.415 . S
C1144 C1149 1.425 . S
C1144 C1151 1.409 . S
C1145 H1137 0.930 . S
C1145 C1143 1.419 . S
C1145 C1146 1.362 . S
C1146 H1138 0.930 . S
C1146 C1145 1.362 . S
C1146 C1149 1.409 . S
C1147 H1139 0.930 . S
C1147 C1148 1.355 . S
C1147 C1149 1.415 . S
C1148 C1147 1.355 . S
C1148 C1150 1.419 . S
C1149 C1144 1.425 . S
C1149 C1146 1.409 . S
C1149 C1147 1.415 . S
C1150 H1140 0.930 . S
C1150 C1148 1.419 . S
C1150 C1151 1.362 . S
C1151 H1141 0.930 . S
C1151 C1144 1.409 . S
C1151 C1150 1.362 . S
H1152 C1158 0.930 . S
H1153 C1161 0.930 . S
H1154 C1162 0.930 . S
H1155 C1163 0.930 . S
H1156 C1166 0.930 . S
H1157 C1167 0.930 . S
C1158 H1152 0.930 . S
C1158 C1159 1.355 . S
C1158 C1160 1.415 . S
C1159 C1158 1.355 . S
C1159 C1161 1.419 . S
C1160 C1158 1.415 . S
C1160 C1165 1.425 . S
C1160 C1167 1.409 . S
C1161 H1153 0.930 . S
C1161 C1159 1.419 . S
C1161 C1162 1.362 . S
C1162 H1154 0.930 . S
C1162 C1161 1.362 . S
C1162 C1165 1.409 . S
C1163 H1155 0.930 . S
C1163 C1164 1.355 . S
C1163 C1165 1.415 . S
C1164 C1163 1.355 . S
C1164 C1166 1.419 . S
C1165 C1160 1.425 . S
C1165 C1162 1.409 . S
C1165 C1163 1.415 . S
C1166 H1156 0.930 . S
C1166 C1164 1.419 . S
C1166 C1167 1.362 . S
C1167 H1157 0.930 . S
C1167 C1160 1.409 . S
C1167 C1166 1.362 . S
H1168 C1174 0.930 . S
H1169 C1177 0.930 . S
H1170 C1178 0.930 . S
H1171 C1179 0.930 . S
H1172 C1182 0.930 . S
H1173 C1183 0.930 . S
C1174 H1168 0.930 . S
C1174 C1175 1.355 . S
C1174 C1176 1.415 . S
C1175 C1174 1.355 . S
C1175 C1177 1.419 . S
C1176 C1174 1.415 . S
C1176 C1181 1.425 . S
C1176 C1183 1.409 . S
C1177 H1169 0.930 . S
C1177 C1175 1.419 . S
C1177 C1178 1.362 . S
C1178 H1170 0.930 . S
C1178 C1177 1.362 . S
C1178 C1181 1.409 . S
C1179 H1171 0.930 . S
C1179 C1180 1.355 . S
C1179 C1181 1.415 . S
C1180 C1179 1.355 . S
C1180 C1182 1.419 . S
C1181 C1176 1.425 . S
C1181 C1178 1.409 . S
C1181 C1179 1.415 . S
C1182 H1172 0.930 . S
C1182 C1180 1.419 . S
C1182 C1183 1.362 . S
C1183 H1173 0.930 . S
C1183 C1176 1.409 . S
C1183 C1182 1.362 . S
H1184 C1190 0.930 . S
H1185 C1193 0.930 . S
H1186 C1194 0.930 . S
H1187 C1195 0.930 . S
H1188 C1198 0.930 . S
H1189 C1199 0.930 . S
C1190 H1184 0.930 . S
C1190 C1191 1.355 . S
C1190 C1192 1.415 . S
C1191 C1190 1.355 . S
C1191 C1193 1.419 . S
C1192 C1190 1.415 . S
C1192 C1197 1.425 . S
C1192 C1199 1.409 . S
C1193 H1185 0.930 . S
C1193 C1191 1.419 . S
C1193 C1194 1.362 . S
C1194 H1186 0.930 . S
C1194 C1193 1.362 . S
C1194 C1197 1.409 . S
C1195 H1187 0.930 . S
C1195 C1196 1.355 . S
C1195 C1197 1.415 . S
C1196 C1195 1.355 . S
C1196 C1198 1.419 . S
C1197 C1192 1.425 . S
C1197 C1194 1.409 . S
C1197 C1195 1.415 . S
C1198 H1188 0.930 . S
C1198 C1196 1.419 . S
C1198 C1199 1.362 . S
C1199 H1189 0.930 . S
C1199 C1192 1.409 . S
C1199 C1198 1.362 . S
H1200 C1206 0.930 . S
H1201 C1209 0.930 . S
H1202 C1210 0.930 . S
H1203 C1211 0.930 . S
H1204 C1214 0.930 . S
H1205 C1215 0.930 . S
C1206 H1200 0.930 . S
C1206 C1207 1.355 . S
C1206 C1208 1.415 . S
C1207 C1206 1.355 . S
C1207 C1209 1.419 . S
C1208 C1206 1.415 . S
C1208 C1213 1.425 . S
C1208 C1215 1.409 . S
C1209 H1201 0.930 . S
C1209 C1207 1.419 . S
C1209 C1210 1.362 . S
C1210 H1202 0.930 . S
C1210 C1209 1.362 . S
C1210 C1213 1.409 . S
C1211 H1203 0.930 . S
C1211 C1212 1.355 . S
C1211 C1213 1.415 . S
C1212 C1211 1.355 . S
C1212 C1214 1.419 . S
C1213 C1208 1.425 . S
C1213 C1210 1.409 . S
C1213 C1211 1.415 . S
C1214 H1204 0.930 . S
C1214 C1212 1.419 . S
C1214 C1215 1.362 . S
C1215 H1205 0.930 . S
C1215 C1208 1.409 . S
C1215 C1214 1.362 . S
H1216 C1222 0.930 . S
H1217 C1225 0.930 . S
H1218 C1226 0.930 . S
H1219 C1227 0.930 . S
H1220 C1230 0.930 . S
H1221 C1231 0.930 . S
C1222 H1216 0.930 . S
C1222 C1223 1.355 . S
C1222 C1224 1.415 . S
C1223 C1222 1.355 . S
C1223 C1225 1.419 . S
C1224 C1222 1.415 . S
C1224 C1229 1.425 . S
C1224 C1231 1.409 . S
C1225 H1217 0.930 . S
C1225 C1223 1.419 . S
C1225 C1226 1.362 . S
C1226 H1218 0.930 . S
C1226 C1225 1.362 . S
C1226 C1229 1.409 . S
C1227 H1219 0.930 . S
C1227 C1228 1.355 . S
C1227 C1229 1.415 . S
C1228 C1227 1.355 . S
C1228 C1230 1.419 . S
C1229 C1224 1.425 . S
C1229 C1226 1.409 . S
C1229 C1227 1.415 . S
C1230 H1220 0.930 . S
C1230 C1228 1.419 . S
C1230 C1231 1.362 . S
C1231 H1221 0.930 . S
C1231 C1224 1.409 . S
C1231 C1230 1.362 . S
H1232 C1238 0.930 . S
H1233 C1241 0.930 . S
H1234 C1242 0.930 . S
H1235 C1243 0.930 . S
H1236 C1246 0.930 . S
H1237 C1247 0.930 . S
C1238 H1232 0.930 . S
C1238 C1239 1.355 . S
C1238 C1240 1.415 . S
C1239 C1238 1.355 . S
C1239 C1241 1.419 . S
C1240 C1238 1.415 . S
C1240 C1245 1.425 . S
C1240 C1247 1.409 . S
C1241 H1233 0.930 . S
C1241 C1239 1.419 . S
C1241 C1242 1.362 . S
C1242 H1234 0.930 . S
C1242 C1241 1.362 . S
C1242 C1245 1.409 . S
C1243 H1235 0.930 . S
C1243 C1244 1.355 . S
C1243 C1245 1.415 . S
C1244 C1243 1.355 . S
C1244 C1246 1.419 . S
C1245 C1240 1.425 . S
C1245 C1242 1.409 . S
C1245 C1243 1.415 . S
C1246 H1236 0.930 . S
C1246 C1244 1.419 . S
C1246 C1247 1.362 . S
C1247 H1237 0.930 . S
C1247 C1240 1.409 . S
C1247 C1246 1.362 . S
H1248 C1254 0.930 . S
H1249 C1257 0.930 . S
H1250 C1258 0.930 . S
H1251 C1259 0.930 . S
H1252 C1262 0.930 . S
H1253 C1263 0.930 . S
C1254 H1248 0.930 . S
C1254 C1255 1.355 . S
C1254 C1256 1.415 . S
C1255 C1254 1.355 . S
C1255 C1257 1.419 . S
C1256 C1254 1.415 . S
C1256 C1261 1.425 . S
C1256 C1263 1.409 . S
C1257 H1249 0.930 . S
C1257 C1255 1.419 . S
C1257 C1258 1.362 . S
C1258 H1250 0.930 . S
C1258 C1257 1.362 . S
C1258 C1261 1.409 . S
C1259 H1251 0.930 . S
C1259 C1260 1.355 . S
C1259 C1261 1.415 . S
C1260 C1259 1.355 . S
C1260 C1262 1.419 . S
C1261 C1256 1.425 . S
C1261 C1258 1.409 . S
C1261 C1259 1.415 . S
C1262 H1252 0.930 . S
C1262 C1260 1.419 . S
C1262 C1263 1.362 . S
C1263 H1253 0.930 . S
C1263 C1256 1.409 . S
C1263 C1262 1.362 . S
H1264 C1270 0.930 . S
H1265 C1273 0.930 . S
H1266 C1274 0.930 . S
H1267 C1275 0.930 . S
H1268 C1278 0.930 . S
H1269 C1279 0.930 . S
C1270 H1264 0.930 . S
C1270 C1271 1.355 . S
C1270 C1272 1.415 . S
C1271 C1270 1.355 . S
C1271 C1273 1.419 . S
C1272 C1270 1.415 . S
C1272 C1277 1.425 . S
C1272 C1279 1.409 . S
C1273 H1265 0.930 . S
C1273 C1271 1.419 . S
C1273 C1274 1.362 . S
C1274 H1266 0.930 . S
C1274 C1273 1.362 . S
C1274 C1277 1.409 . S
C1275 H1267 0.930 . S
C1275 C1276 1.355 . S
C1275 C1277 1.415 . S
C1276 C1275 1.355 . S
C1276 C1278 1.419 . S
C1277 C1272 1.425 . S
C1277 C1274 1.409 . S
C1277 C1275 1.415 . S
C1278 H1268 0.930 . S
C1278 C1276 1.419 . S
C1278 C1279 1.362 . S
C1279 H1269 0.930 . S
C1279 C1272 1.409 . S
C1279 C1278 1.362 . S
H1280 C1286 0.930 . S
H1281 C1289 0.930 . S
H1282 C1290 0.930 . S
H1283 C1291 0.930 . S
H1284 C1294 0.930 . S
H1285 C1295 0.930 . S
C1286 H1280 0.930 . S
C1286 C1287 1.355 . S
C1286 C1288 1.415 . S
C1287 C1286 1.355 . S
C1287 C1289 1.419 . S
C1288 C1286 1.415 . S
C1288 C1293 1.425 . S
C1288 C1295 1.409 . S
C1289 H1281 0.930 . S
C1289 C1287 1.419 . S
C1289 C1290 1.362 . S
C1290 H1282 0.930 . S
C1290 C1289 1.362 . S
C1290 C1293 1.409 . S
C1291 H1283 0.930 . S
C1291 C1292 1.355 . S
C1291 C1293 1.415 . S
C1292 C1291 1.355 . S
C1292 C1294 1.419 . S
C1293 C1288 1.425 . S
C1293 C1290 1.409 . S
C1293 C1291 1.415 . S
C1294 H1284 0.930 . S
C1294 C1292 1.419 . S
C1294 C1295 1.362 . S
C1295 H1285 0.930 . S
C1295 C1288 1.409 . S
C1295 C1294 1.362 . S
H1296 C1302 0.930 . S
H1297 C1305 0.930 . S
H1298 C1306 0.930 . S
H1299 C1307 0.930 . S
H1300 C1310 0.930 . S
H1301 C1311 0.930 . S
C1302 H1296 0.930 . S
C1302 C1303 1.355 . S
C1302 C1304 1.415 . S
C1303 C1302 1.355 . S
C1303 C1305 1.419 . S
C1304 C1302 1.415 . S
C1304 C1309 1.425 . S
C1304 C1311 1.409 . S
C1305 H1297 0.930 . S
C1305 C1303 1.419 . S
C1305 C1306 1.362 . S
C1306 H1298 0.930 . S
C1306 C1305 1.362 . S
C1306 C1309 1.409 . S
C1307 H1299 0.930 . S
C1307 C1308 1.355 . S
C1307 C1309 1.415 . S
C1308 C1307 1.355 . S
C1308 C1310 1.419 . S
C1309 C1304 1.425 . S
C1309 C1306 1.409 . S
C1309 C1307 1.415 . S
C1310 H1300 0.930 . S
C1310 C1308 1.419 . S
C1310 C1311 1.362 . S
C1311 H1301 0.930 . S
C1311 C1304 1.409 . S
C1311 C1310 1.362 . S
H1312 C1318 0.930 . S
H1313 C1321 0.930 . S
H1314 C1322 0.930 . S
H1315 C1323 0.930 . S
H1316 C1326 0.930 . S
H1317 C1327 0.930 . S
C1318 H1312 0.930 . S
C1318 C1319 1.355 . S
C1318 C1320 1.415 . S
C1319 C1318 1.355 . S
C1319 C1321 1.419 . S
C1320 C1318 1.415 . S
C1320 C1325 1.425 . S
C1320 C1327 1.409 . S
C1321 H1313 0.930 . S
C1321 C1319 1.419 . S
C1321 C1322 1.362 . S
C1322 H1314 0.930 . S
C1322 C1321 1.362 . S
C1322 C1325 1.409 . S
C1323 H1315 0.930 . S
C1323 C1324 1.355 . S
C1323 C1325 1.415 . S
C1324 C1323 1.355 . S
C1324 C1326 1.419 . S
C1325 C1320 1.425 . S
C1325 C1322 1.409 . S
C1325 C1323 1.415 . S
C1326 H1316 0.930 . S
C1326 C1324 1.419 . S
C1326 C1327 1.362 . S
C1327 H1317 0.930 . S
C1327 C1320 1.409 . S
C1327 C1326 1.362 . S
H1328 C1334 0.930 . S
H1329 C1337 0.930 . S
H1330 C1338 0.930 . S
H1331 C1339 0.930 . S
H1332 C1342 0.930 . S
H1333 C1343 0.930 . S
C1334 H1328 0.930 . S
C1334 C1335 1.355 . S
C1334 C1336 1.415 . S
C1335 C1334 1.355 . S
C1335 C1337 1.419 . S
C1336 C1334 1.415 . S
C1336 C1341 1.425 . S
C1336 C1343 1.409 . S
C1337 H1329 0.930 . S
C1337 C1335 1.419 . S
C1337 C1338 1.362 . S
C1338 H1330 0.930 . S
C1338 C1337 1.362 . S
C1338 C1341 1.409 . S
C1339 H1331 0.930 . S
C1339 C1340 1.355 . S
C1339 C1341 1.415 . S
C1340 C1339 1.355 . S
C1340 C1342 1.419 . S
C1341 C1336 1.425 . S
C1341 C1338 1.409 . S
C1341 C1339 1.415 . S
C1342 H1332 0.930 . S
C1342 C1340 1.419 . S
C1342 C1343 1.362 . S
C1343 H1333 0.930 . S
C1343 C1336 1.409 . S
C1343 C1342 1.362 . S
H1344 C1350 0.930 . S
H1345 C1353 0.930 . S
H1346 C1354 0.930 . S
H1347 C1355 0.930 . S
H1348 C1358 0.930 . S
H1349 C1359 0.930 . S
C1350 H1344 0.930 . S
C1350 C1351 1.355 . S
C1350 C1352 1.415 . S
C1351 C1350 1.355 . S
C1351 C1353 1.419 . S
C1352 C1350 1.415 . S
C1352 C1357 1.425 . S
C1352 C1359 1.409 . S
C1353 H1345 0.930 . S
C1353 C1351 1.419 . S
C1353 C1354 1.362 . S
C1354 H1346 0.930 . S
C1354 C1353 1.362 . S
C1354 C1357 1.409 . S
C1355 H1347 0.930 . S
C1355 C1356 1.355 . S
C1355 C1357 1.415 . S
C1356 C1355 1.355 . S
C1356 C1358 1.419 . S
C1357 C1352 1.425 . S
C1357 C1354 1.409 . S
C1357 C1355 1.415 . S
C1358 H1348 0.930 . S
C1358 C1356 1.419 . S
C1358 C1359 1.362 . S
C1359 H1349 0.930 . S
C1359 C1352 1.409 . S
C1359 C1358 1.362 . S
H1360 C1366 0.930 . S
H1361 C1369 0.930 . S
H1362 C1370 0.930 . S
H1363 C1371 0.930 . S
H1364 C1374 0.930 . S
H1365 C1375 0.930 . S
C1366 H1360 0.930 . S
C1366 C1367 1.355 . S
C1366 C1368 1.415 . S
C1367 C1366 1.355 . S
C1367 C1369 1.419 . S
C1368 C1366 1.415 . S
C1368 C1373 1.425 . S
C1368 C1375 1.409 . S
C1369 H1361 0.930 . S
C1369 C1367 1.419 . S
C1369 C1370 1.362 . S
C1370 H1362 0.930 . S
C1370 C1369 1.362 . S
C1370 C1373 1.409 . S
C1371 H1363 0.930 . S
C1371 C1372 1.355 . S
C1371 C1373 1.415 . S
C1372 C1371 1.355 . S
C1372 C1374 1.419 . S
C1373 C1368 1.425 . S
C1373 C1370 1.409 . S
C1373 C1371 1.415 . S
C1374 H1364 0.930 . S
C1374 C1372 1.419 . S
C1374 C1375 1.362 . S
C1375 H1365 0.930 . S
C1375 C1368 1.409 . S
C1375 C1374 1.362 . S
H1376 C1382 0.930 . S
H1377 C1385 0.930 . S
H1378 C1386 0.930 . S
H1379 C1387 0.930 . S
H1380 C1390 0.930 . S
H1381 C1391 0.930 . S
C1382 H1376 0.930 . S
C1382 C1383 1.355 . S
C1382 C1384 1.415 . S
C1383 C1382 1.355 . S
C1383 C1385 1.419 . S
C1384 C1382 1.415 . S
C1384 C1389 1.425 . S
C1384 C1391 1.409 . S
C1385 H1377 0.930 . S
C1385 C1383 1.419 . S
C1385 C1386 1.362 . S
C1386 H1378 0.930 . S
C1386 C1385 1.362 . S
C1386 C1389 1.409 . S
C1387 H1379 0.930 . S
C1387 C1388 1.355 . S
C1387 C1389 1.415 . S
C1388 C1387 1.355 . S
C1388 C1390 1.419 . S
C1389 C1384 1.425 . S
C1389 C1386 1.409 . S
C1389 C1387 1.415 . S
C1390 H1380 0.930 . S
C1390 C1388 1.419 . S
C1390 C1391 1.362 . S
C1391 H1381 0.930 . S
C1391 C1384 1.409 . S
C1391 C1390 1.362 . S
H1392 C1398 0.930 . S
H1393 C1401 0.930 . S
H1394 C1402 0.930 . S
H1395 C1403 0.930 . S
H1396 C1406 0.930 . S
H1397 C1407 0.930 . S
C1398 H1392 0.930 . S
C1398 C1399 1.355 . S
C1398 C1400 1.415 . S
C1399 C1398 1.355 . S
C1399 C1401 1.419 . S
C1400 C1398 1.415 . S
C1400 C1405 1.425 . S
C1400 C1407 1.409 . S
C1401 H1393 0.930 . S
C1401 C1399 1.419 . S
C1401 C1402 1.362 . S
C1402 H1394 0.930 . S
C1402 C1401 1.362 . S
C1402 C1405 1.409 . S
C1403 H1395 0.930 . S
C1403 C1404 1.355 . S
C1403 C1405 1.415 . S
C1404 C1403 1.355 . S
C1404 C1406 1.419 . S
C1405 C1400 1.425 . S
C1405 C1402 1.409 . S
C1405 C1403 1.415 . S
C1406 H1396 0.930 . S
C1406 C1404 1.419 . S
C1406 C1407 1.362 . S
C1407 H1397 0.930 . S
C1407 C1400 1.409 . S
C1407 C1406 1.362 . S
H1408 C1414 0.930 . S
H1409 C1417 0.930 . S
H1410 C1418 0.930 . S
H1411 C1419 0.930 . S
H1412 C1422 0.930 . S
H1413 C1423 0.930 . S
C1414 H1408 0.930 . S
C1414 C1415 1.355 . S
C1414 C1416 1.415 . S
C1415 C1414 1.355 . S
C1415 C1417 1.419 . S
C1416 C1414 1.415 . S
C1416 C1421 1.425 . S
C1416 C1423 1.409 . S
C1417 H1409 0.930 . S
C1417 C1415 1.419 . S
C1417 C1418 1.362 . S
C1418 H1410 0.930 . S
C1418 C1417 1.362 . S
C1418 C1421 1.409 . S
C1419 H1411 0.930 . S
C1419 C1420 1.355 . S
C1419 C1421 1.415 . S
C1420 C1419 1.355 . S
C1420 C1422 1.419 . S
C1421 C1416 1.425 . S
C1421 C1418 1.409 . S
C1421 C1419 1.415 . S
C1422 H1412 0.930 . S
C1422 C1420 1.419 . S
C1422 C1423 1.362 . S
C1423 H1413 0.930 . S
C1423 C1416 1.409 . S
C1423 C1422 1.362 . S
H1424 C1430 0.930 . S
H1425 C1433 0.930 . S
H1426 C1434 0.930 . S
H1427 C1435 0.930 . S
H1428 C1438 0.930 . S
H1429 C1439 0.930 . S
C1430 H1424 0.930 . S
C1430 C1431 1.355 . S
C1430 C1432 1.415 . S
C1431 C1430 1.355 . S
C1431 C1433 1.419 . S
C1432 C1430 1.415 . S
C1432 C1437 1.425 . S
C1432 C1439 1.409 . S
C1433 H1425 0.930 . S
C1433 C1431 1.419 . S
C1433 C1434 1.362 . S
C1434 H1426 0.930 . S
C1434 C1433 1.362 . S
C1434 C1437 1.409 . S
C1435 H1427 0.930 . S
C1435 C1436 1.355 . S
C1435 C1437 1.415 . S
C1436 C1435 1.355 . S
C1436 C1438 1.419 . S
C1437 C1432 1.425 . S
C1437 C1434 1.409 . S
C1437 C1435 1.415 . S
C1438 H1428 0.930 . S
C1438 C1436 1.419 . S
C1438 C1439 1.362 . S
C1439 H1429 0.930 . S
C1439 C1432 1.409 . S
C1439 C1438 1.362 . S
H1440 C1446 0.930 . S
H1441 C1449 0.930 . S
H1442 C1450 0.930 . S
H1443 C1451 0.930 . S
H1444 C1454 0.930 . S
H1445 C1455 0.930 . S
C1446 H1440 0.930 . S
C1446 C1447 1.355 . S
C1446 C1448 1.415 . S
C1447 C1446 1.355 . S
C1447 C1449 1.419 . S
C1448 C1446 1.415 . S
C1448 C1453 1.425 . S
C1448 C1455 1.409 . S
C1449 H1441 0.930 . S
C1449 C1447 1.419 . S
C1449 C1450 1.362 . S
C1450 H1442 0.930 . S
C1450 C1449 1.362 . S
C1450 C1453 1.409 . S
C1451 H1443 0.930 . S
C1451 C1452 1.355 . S
C1451 C1453 1.415 . S
C1452 C1451 1.355 . S
C1452 C1454 1.419 . S
C1453 C1448 1.425 . S
C1453 C1450 1.409 . S
C1453 C1451 1.415 . S
C1454 H1444 0.930 . S
C1454 C1452 1.419 . S
C1454 C1455 1.362 . S
C1455 H1445 0.930 . S
C1455 C1448 1.409 . S
C1455 C1454 1.362 . S
H1456 C1462 0.930 . S
H1457 C1465 0.930 . S
H1458 C1466 0.930 . S
H1459 C1467 0.930 . S
H1460 C1470 0.930 . S
H1461 C1471 0.930 . S
C1462 H1456 0.930 . S
C1462 C1463 1.355 . S
C1462 C1464 1.415 . S
C1463 C1462 1.355 . S
C1463 C1465 1.419 . S
C1464 C1462 1.415 . S
C1464 C1469 1.425 . S
C1464 C1471 1.409 . S
C1465 H1457 0.930 . S
C1465 C1463 1.419 . S
C1465 C1466 1.362 . S
C1466 H1458 0.930 . S
C1466 C1465 1.362 . S
C1466 C1469 1.409 . S
C1467 H1459 0.930 . S
C1467 C1468 1.355 . S
C1467 C1469 1.415 . S
C1468 C1467 1.355 . S
C1468 C1470 1.419 . S
C1469 C1464 1.425 . S
C1469 C1466 1.409 . S
C1469 C1467 1.415 . S
C1470 H1460 0.930 . S
C1470 C1468 1.419 . S
C1470 C1471 1.362 . S
C1471 H1461 0.930 . S
C1471 C1464 1.409 . S
C1471 C1470 1.362 . S
H1472 C1478 0.930 . S
H1473 C1481 0.930 . S
H1474 C1482 0.930 . S
H1475 C1483 0.930 . S
H1476 C1486 0.930 . S
H1477 C1487 0.930 . S
C1478 H1472 0.930 . S
C1478 C1479 1.355 . S
C1478 C1480 1.415 . S
C1479 C1478 1.355 . S
C1479 C1481 1.419 . S
C1480 C1478 1.415 . S
C1480 C1485 1.425 . S
C1480 C1487 1.409 . S
C1481 H1473 0.930 . S
C1481 C1479 1.419 . S
C1481 C1482 1.362 . S
C1482 H1474 0.930 . S
C1482 C1481 1.362 . S
C1482 C1485 1.409 . S
C1483 H1475 0.930 . S
C1483 C1484 1.355 . S
C1483 C1485 1.415 . S
C1484 C1483 1.355 . S
C1484 C1486 1.419 . S
C1485 C1480 1.425 . S
C1485 C1482 1.409 . S
C1485 C1483 1.415 . S
C1486 H1476 0.930 . S
C1486 C1484 1.419 . S
C1486 C1487 1.362 . S
C1487 H1477 0.930 . S
C1487 C1480 1.409 . S
C1487 C1486 1.362 . S
H1488 C1494 0.930 . S
H1489 C1497 0.930 . S
H1490 C1498 0.930 . S
H1491 C1499 0.930 . S
H1492 C1502 0.930 . S
H1493 C1503 0.930 . S
C1494 H1488 0.930 . S
C1494 C1495 1.355 . S
C1494 C1496 1.415 . S
C1495 C1494 1.355 . S
C1495 C1497 1.419 . S
C1496 C1494 1.415 . S
C1496 C1501 1.425 . S
C1496 C1503 1.409 . S
C1497 H1489 0.930 . S
C1497 C1495 1.419 . S
C1497 C1498 1.362 . S
C1498 H1490 0.930 . S
C1498 C1497 1.362 . S
C1498 C1501 1.409 . S
C1499 H1491 0.930 . S
C1499 C1500 1.355 . S
C1499 C1501 1.415 . S
C1500 C1499 1.355 . S
C1500 C1502 1.419 . S
C1501 C1496 1.425 . S
C1501 C1498 1.409 . S
C1501 C1499 1.415 . S
C1502 H1492 0.930 . S
C1502 C1500 1.419 . S
C1502 C1503 1.362 . S
C1503 H1493 0.930 . S
C1503 C1496 1.409 . S
C1503 C1502 1.362 . S
H1504 C1510 0.930 . S
H1505 C1513 0.930 . S
H1506 C1514 0.930 . S
H1507 C1515 0.930 . S
H1508 C1518 0.930 . S
H1509 C1519 0.930 . S
C1510 H1504 0.930 . S
C1510 C1511 1.355 . S
C1510 C1512 1.415 . S
C1511 C1510 1.355 . S
C1511 C1513 1.419 . S
C1512 C1510 1.415 . S
C1512 C1517 1.425 . S
C1512 C1519 1.409 . S
C1513 H1505 0.930 . S
C1513 C1511 1.419 . S
C1513 C1514 1.362 . S
C1514 H1506 0.930 . S
C1514 C1513 1.362 . S
C1514 C1517 1.409 . S
C1515 H1507 0.930 . S
C1515 C1516 1.355 . S
C1515 C1517 1.415 . S
C1516 C1515 1.355 . S
C1516 C1518 1.419 . S
C1517 C1512 1.425 . S
C1517 C1514 1.409 . S
C1517 C1515 1.415 . S
C1518 H1508 0.930 . S
C1518 C1516 1.419 . S
C1518 C1519 1.362 . S
C1519 H1509 0.930 . S
C1519 C1512 1.409 . S
C1519 C1518 1.362 . S
H1520 C1526 0.930 . S
H1521 C1529 0.930 . S
H1522 C1530 0.930 . S
H1523 C1531 0.930 . S
H1524 C1534 0.930 . S
H1525 C1535 0.930 . S
C1526 H1520 0.930 . S
C1526 C1527 1.355 . S
C1526 C1528 1.415 . S
C1527 C1526 1.355 . S
C1527 C1529 1.419 . S
C1528 C1526 1.415 . S
C1528 C1533 1.425 . S
C1528 C1535 1.409 . S
C1529 H1521 0.930 . S
C1529 C1527 1.419 . S
C1529 C1530 1.362 . S
C1530 H1522 0.930 . S
C1530 C1529 1.362 . S
C1530 C1533 1.409 . S
C1531 H1523 0.930 . S
C1531 C1532 1.355 . S
C1531 C1533 1.415 . S
C1532 C1531 1.355 . S
C1532 C1534 1.419 . S
C1533 C1528 1.425 . S
C1533 C1530 1.409 . S
C1533 C1531 1.415 . S
C1534 H1524 0.930 . S
C1534 C1532 1.419 . S
C1534 C1535 1.362 . S
C1535 H1525 0.930 . S
C1535 C1528 1.409 . S
C1535 C1534 1.362 . S
C1036 C913 1.506 . S
C1031 C29 1.293 . S
C1052 C939 1.653 . S
C1047 C125 0.872 . S
C1068 C953 1.525 . S
C1063 C257 1.143 . S
C1084 C955 1.653 . S
C1079 C353 0.912 . S
C1095 C457 1.216 . S
C1100 C952 1.487 . S
C1116 C954 1.653 . S
C1111 C625 1.286 . S
C1132 C912 1.488 . S
C1127 C685 1.241 . S
C1148 C938 1.666 . S
C1143 C853 1.238 . S
C1164 C940 1.708 . S
C1159 C809 1.160 . S
C1180 C966 1.513 . S
C1175 C485 1.236 . S
C1196 C924 1.687 . S
C1191 C581 1.187 . S
C1212 C926 1.489 . S
C1207 C713 1.270 . S
C1228 C925 1.654 . S
C1223 C169 1.152 . S
C1244 C927 1.455 . S
C1239 C229 1.219 . S
C1260 C941 1.691 . S
C1255 C397 1.258 . S
C1276 C967 1.452 . S
C1271 C1 1.194 . S
C1292 C969 1.508 . S
C1287 C827 1.268 . S
C1303 C467 1.037 . S
C1308 C995 1.684 . S
C1319 C599 1.180 . S
C1324 C1008 1.522 . S
C1335 C695 0.968 . S
C1340 C1011 1.664 . S
C1351 C115 1.146 . S
C1356 C1009 1.479 . S
C1367 C283 1.378 . S
C1372 C1010 1.630 . S
C1383 C343 1.136 . S
C1388 C968 1.470 . S
C1404 C994 1.636 . S
C1399 C55 1.360 . S
C1420 C997 1.696 . S
C1415 C11 1.006 . S
C1431 C143 1.293 . S
C1436 C1022 1.512 . S
C1447 C239 1.049 . S
C1452 C980 1.673 . S
C1463 C371 1.202 . S
C1468 C982 1.484 . S
C1484 C981 1.655 . S
C1479 C511 1.151 . S
C1500 C983 1.472 . S
C1495 C571 1.062 . S
C1511 C739 1.271 . S
C1516 C996 1.689 . S
C1532 C1023 1.474 . S
C1527 C799 1.065 . S
