# Generated by pormake.
# Topology ssa, (4,4)-cn, num edge types: 1
# Building blocks:
#     Node 0, Type 0, BuildingBlock: KOZSID_clean_sbu_0, # of connection points: 4
#     Node 1, Type 0, BuildingBlock: KOZSID_clean_sbu_0, # of connection points: 4
#     Node 2, Type 0, BuildingBlock: KOZSID_clean_sbu_0, # of connection points: 4
#     Node 3, Type 0, BuildingBlock: KOZSID_clean_sbu_0, # of connection points: 4
#     Node 4, Type 0, BuildingBlock: KOZSID_clean_sbu_0, # of connection points: 4
#     Node 5, Type 0, BuildingBlock: KOZSID_clean_sbu_0, # of connection points: 4
#     Node 6, Type 1, BuildingBlock: NAWXER_clean_linker_0, # of connection points: 4
#     Node 7, Type 1, BuildingBlock: NAWXER_clean_linker_0, # of connection points: 4
#     Node 8, Type 1, BuildingBlock: NAWXER_clean_linker_0, # of connection points: 4
#     Node 9, Type 1, BuildingBlock: NAWXER_clean_linker_0, # of connection points: 4
#     Node 10, Type 1, BuildingBlock: NAWXER_clean_linker_0, # of connection points: 4
#     Node 11, Type 1, BuildingBlock: NAWXER_clean_linker_0, # of connection points: 4
#     Edge 12, Type (0, 1), BuildingBlock: ZUJKAS_clean_linker_0, # of connection points: 2
#     Edge 13, Type (0, 1), BuildingBlock: ZUJKAS_clean_linker_0, # of connection points: 2
#     Edge 14, Type (0, 1), BuildingBlock: ZUJKAS_clean_linker_0, # of connection points: 2
#     Edge 15, Type (0, 1), BuildingBlock: ZUJKAS_clean_linker_0, # of connection points: 2
#     Edge 16, Type (0, 1), BuildingBlock: ZUJKAS_clean_linker_0, # of connection points: 2
#     Edge 17, Type (0, 1), BuildingBlock: ZUJKAS_clean_linker_0, # of connection points: 2
#     Edge 18, Type (0, 1), BuildingBlock: ZUJKAS_clean_linker_0, # of connection points: 2
#     Edge 19, Type (0, 1), BuildingBlock: ZUJKAS_clean_linker_0, # of connection points: 2
#     Edge 20, Type (0, 1), BuildingBlock: ZUJKAS_clean_linker_0, # of connection points: 2
#     Edge 21, Type (0, 1), BuildingBlock: ZUJKAS_clean_linker_0, # of connection points: 2
#     Edge 22, Type (0, 1), BuildingBlock: ZUJKAS_clean_linker_0, # of connection points: 2
#     Edge 23, Type (0, 1), BuildingBlock: ZUJKAS_clean_linker_0, # of connection points: 2
#     Edge 24, Type (0, 1), BuildingBlock: ZUJKAS_clean_linker_0, # of connection points: 2
#     Edge 25, Type (0, 1), BuildingBlock: ZUJKAS_clean_linker_0, # of connection points: 2
#     Edge 26, Type (0, 1), BuildingBlock: ZUJKAS_clean_linker_0, # of connection points: 2
#     Edge 27, Type (0, 1), BuildingBlock: ZUJKAS_clean_linker_0, # of connection points: 2
#     Edge 28, Type (0, 1), BuildingBlock: ZUJKAS_clean_linker_0, # of connection points: 2
#     Edge 29, Type (0, 1), BuildingBlock: ZUJKAS_clean_linker_0, # of connection points: 2
#     Edge 30, Type (0, 1), BuildingBlock: ZUJKAS_clean_linker_0, # of connection points: 2
#     Edge 31, Type (0, 1), BuildingBlock: ZUJKAS_clean_linker_0, # of connection points: 2
#     Edge 32, Type (0, 1), BuildingBlock: ZUJKAS_clean_linker_0, # of connection points: 2
#     Edge 33, Type (0, 1), BuildingBlock: ZUJKAS_clean_linker_0, # of connection points: 2
#     Edge 34, Type (0, 1), BuildingBlock: ZUJKAS_clean_linker_0, # of connection points: 2
#     Edge 35, Type (0, 1), BuildingBlock: ZUJKAS_clean_linker_0, # of connection points: 2
# Relax obj value: 0.005
# Max RMSD: 0.020
# Mean RMSD: 0.013
data_MOF--net-ssa--node1-KOZSID_clean_sbu_0--node2-NAWXER_clean_linker_0--edge1-ZUJKAS_clean_linker_0
_symmetry_space_group_name_H-M    P1
_symmetry_Int_Tables_number       1
_symmetry_cell_setting            triclinic
loop_
_symmetry_equiv_pos_as_xyz
'x, y, z'
_cell_length_a     77.299897
_cell_length_b     78.666808
_cell_length_c     55.111692
_cell_angle_alpha  88.093746
_cell_angle_beta   89.984121
_cell_angle_gamma 121.78133
loop_
_atom_site_label
_atom_site_type_symbol
_atom_site_fract_x
_atom_site_fract_y
_atom_site_fract_z
_atom_type_partial_charge
C0 C 0.96834 0.51176 0.99362 0.0
C1 C 0.95061 0.50854 0.00454 0.0
C2 C 0.9476 0.49744 0.02541 0.0
C3 C 0.96364 0.49463 0.02612 0.0
N4 N 0.97689 0.50346 0.00709 0.0
Co5 Co 0.00233 0.50317 0.00092 0.0
N6 N 0.99707 0.4856 0.0307 0.0
C7 C 0.9809 0.47792 0.04626 0.0
C8 C 0.98148 0.46638 0.06503 0.0
C9 C 0.99917 0.46683 0.06142 0.0
C10 C 0.00843 0.47876 0.04062 0.0
N11 N 0.0279 0.50304 0.99489 0.0
C12 C 0.03646 0.49476 0.0084 0.0
C13 C 0.0548 0.49896 0.99817 0.0
C14 C 0.05795 0.5103 0.97748 0.0
C15 C 0.04151 0.51247 0.97632 0.0
N16 N 0.00744 0.52057 0.97096 0.0
C17 C 0.02335 0.52782 0.95507 0.0
C18 C 0.02228 0.53855 0.93567 0.0
C19 C 0.00451 0.53797 0.93918 0.0
C20 C 0.99578 0.52695 0.9607 0.0
N21 N 0.01801 0.5273 0.02051 0.0
C22 C 0.04102 0.56087 0.04911 0.0
C23 C 0.04809 0.5599 0.0262 0.0
C24 C 0.03639 0.54319 0.01228 0.0
C25 C 0.0221 0.54491 0.05732 0.0
C26 C 0.01098 0.52839 0.0429 0.0
N27 N 0.98666 0.47906 0.98132 0.0
C28 C 0.98331 0.46091 0.94525 0.0
C29 C 0.96366 0.4457 0.95242 0.0
C30 C 0.95585 0.44728 0.97449 0.0
C31 C 0.96755 0.46387 0.9886 0.0
C32 C 0.99441 0.47734 0.9598 0.0
H33 H 0.96073 0.46413 0.00524 0.0
H34 H 0.00913 0.48856 0.95309 0.0
H35 H 0.04263 0.54344 0.99498 0.0
H36 H 0.99687 0.51659 0.05041 0.0
C37 C 0.96601 0.48275 0.04354 0.0
C38 C 0.97599 0.52217 0.97006 0.0
C39 C 0.02827 0.48356 0.03145 0.0
C40 C 0.03868 0.52367 0.95836 0.0
H41 H 0.94068 0.5134 0.99786 0.0
H42 H 0.93496 0.49169 0.03824 0.0
H43 H 0.97055 0.45887 0.07985 0.0
H44 H 0.00478 0.45945 0.07298 0.0
H45 H 0.06505 0.4946 0.0051 0.0
H46 H 0.07087 0.51653 0.96501 0.0
H47 H 0.03292 0.54558 0.9205 0.0
H48 H 0.9985 0.54459 0.92698 0.0
H49 H 0.06256 0.57206 0.01893 0.0
H50 H 0.01607 0.54492 0.07506 0.0
H51 H 0.98995 0.46041 0.92817 0.0
H52 H 0.94078 0.43571 0.98095 0.0
C53 C 0.5303 0.00919 0.54368 0.0
C54 C 0.53029 0.00051 0.56604 0.0
C55 C 0.51175 0.98325 0.56887 0.0
C56 C 0.50149 0.9824 0.54824 0.0
N57 N 0.51243 0.99797 0.53221 0.0
Co58 Co 0.50304 0.00311 0.50036 0.0
N59 N 0.47529 0.97837 0.50532 0.0
C60 C 0.46848 0.96537 0.52478 0.0
C61 C 0.4488 0.94972 0.52293 0.0
C62 C 0.44272 0.95271 0.50082 0.0
C63 C 0.45918 0.97004 0.49037 0.0
N64 N 0.49365 0.00825 0.46849 0.0
C65 C 0.47583 0.99696 0.45694 0.0
C66 C 0.47591 0.0056 0.43451 0.0
C67 C 0.49442 0.02291 0.43176 0.0
C68 C 0.5046 0.02383 0.45249 0.0
N69 N 0.53079 0.02786 0.4954 0.0
C70 C 0.5376 0.04089 0.47598 0.0
C71 C 0.55724 0.05661 0.4779 0.0
C72 C 0.56332 0.0536 0.50001 0.0
C73 C 0.5469 0.03619 0.51036 0.0
N74 N 0.5123 0.98716 0.4837 0.0
C75 C 0.52346 0.96354 0.45869 0.0
C76 C 0.52906 0.9826 0.44967 0.0
C77 C 0.52334 0.99403 0.46232 0.0
C78 C 0.51256 0.95668 0.48071 0.0
C79 C 0.50729 0.96867 0.49286 0.0
N80 N 0.49377 0.01906 0.51703 0.0
C81 C 0.49335 0.04947 0.51995 0.0
C82 C 0.48231 0.04252 0.54186 0.0
C83 C 0.47679 0.0235 0.55091 0.0
C84 C 0.48268 0.01215 0.53836 0.0
C85 C 0.49877 0.03755 0.50787 0.0
H86 H 0.47828 0.99796 0.54648 0.0
H87 H 0.50713 0.04371 0.49126 0.0
H88 H 0.52779 0.00826 0.45424 0.0
H89 H 0.49899 0.96256 0.50952 0.0
C90 C 0.48122 0.96781 0.54404 0.0
C91 C 0.54721 0.02857 0.53472 0.0
C92 C 0.45893 0.97755 0.4659 0.0
C93 C 0.52486 0.03844 0.45671 0.0
H94 H 0.54226 0.00626 0.57923 0.0
H95 H 0.50619 0.97285 0.58443 0.0
H96 H 0.44005 0.93739 0.5359 0.0
H97 H 0.42795 0.94305 0.49307 0.0
H98 H 0.46405 0.99979 0.42119 0.0
H99 H 0.50001 0.03328 0.41618 0.0
H100 H 0.56596 0.06898 0.46498 0.0
H101 H 0.57805 0.0633 0.50782 0.0
H102 H 0.53737 0.98851 0.43256 0.0
H103 H 0.50815 0.94212 0.48861 0.0
H104 H 0.49773 0.06402 0.51205 0.0
H105 H 0.46838 0.01754 0.56795 0.0
C106 C 0.53377 0.52553 0.96173 0.0
C107 C 0.53732 0.53711 0.94061 0.0
C108 C 0.52017 0.53763 0.93678 0.0
C109 C 0.5072 0.52637 0.95569 0.0
N110 N 0.51509 0.51888 0.97157 0.0
Co111 Co 0.50116 0.50099 0.00106 0.0
N112 N 0.47562 0.50106 0.99484 0.0
C113 C 0.47229 0.51064 0.9763 0.0
C114 C 0.45341 0.50826 0.97714 0.0
C115 C 0.4442 0.49668 0.99762 0.0
C116 C 0.45809 0.49273 0.00817 0.0
N117 N 0.48712 0.48284 0.03034 0.0
C118 C 0.46839 0.47606 0.04014 0.0
C119 C 0.46477 0.46414 0.06098 0.0
C120 C 0.48182 0.4634 0.06453 0.0
C121 C 0.49486 0.47491 0.04582 0.0
N122 N 0.52683 0.50118 0.0075 0.0
C123 C 0.53033 0.49198 0.02634 0.0
C124 C 0.54934 0.49467 0.02573 0.0
C125 C 0.55851 0.50613 0.00515 0.0
C126 C 0.54446 0.50972 0.99435 0.0
N127 N 0.51105 0.52473 0.02128 0.0
C128 C 0.52338 0.55766 0.05085 0.0
C129 C 0.52443 0.54124 0.05904 0.0
C130 C 0.51831 0.52512 0.04408 0.0
C131 C 0.51639 0.55746 0.02743 0.0
C132 C 0.51035 0.54099 0.0131 0.0
N133 N 0.49126 0.47724 0.98084 0.0
C134 C 0.48788 0.44547 0.9736 0.0
C135 C 0.47868 0.44421 0.95139 0.0
C136 C 0.47558 0.4596 0.94433 0.0
C137 C 0.48199 0.47586 0.95916 0.0
C138 C 0.49392 0.46191 0.98795 0.0
H139 H 0.47947 0.48722 0.95255 0.0
H140 H 0.5008 0.46191 0.00464 0.0
H141 H 0.51946 0.5131 0.05146 0.0
H142 H 0.50492 0.54167 0.99558 0.0
C143 C 0.48735 0.52214 0.95867 0.0
C144 C 0.5483 0.52065 0.97116 0.0
C145 C 0.45408 0.48144 0.03116 0.0
C146 C 0.51498 0.4798 0.04338 0.0
H147 H 0.55079 0.54418 0.92897 0.0
H148 H 0.51736 0.54504 0.92178 0.0
H149 H 0.4472 0.51444 0.96454 0.0
H150 H 0.42905 0.49189 0.00424 0.0
H151 H 0.45141 0.4571 0.07278 0.0
H152 H 0.48462 0.45591 0.07944 0.0
H153 H 0.5556 0.48859 0.0384 0.0
H154 H 0.57368 0.51097 0.99855 0.0
H155 H 0.53004 0.54082 0.07693 0.0
H156 H 0.51509 0.56974 0.02034 0.0
H157 H 0.49033 0.43375 0.98001 0.0
H158 H 0.46864 0.45935 0.92716 0.0
C159 C 0.9643 0.45771 0.51138 0.0
C160 C 0.9454 0.44325 0.50296 0.0
C161 C 0.942 0.45137 0.48265 0.0
C162 C 0.95896 0.4702 0.47981 0.0
N163 N 0.97317 0.47454 0.49685 0.0
Co164 Co 0.99978 0.50047 0.50003 0.0
N165 N 0.99456 0.51258 0.47041 0.0
C166 C 0.97829 0.50349 0.45581 0.0
C167 C 0.97949 0.51505 0.436 0.0
C168 C 0.99773 0.53254 0.43782 0.0
C169 C 0.00657 0.53069 0.45889 0.0
N170 N 0.02605 0.52662 0.50371 0.0
C171 C 0.03465 0.54369 0.48965 0.0
C172 C 0.05277 0.55865 0.4992 0.0
C173 C 0.05596 0.55061 0.51973 0.0
C174 C 0.03961 0.53135 0.52167 0.0
N175 N 0.00533 0.48814 0.52914 0.0
C176 C 0.02221 0.49679 0.54279 0.0
C177 C 0.02162 0.48473 0.56169 0.0
C178 C 0.00323 0.46735 0.56014 0.0
C179 C 0.99362 0.46981 0.54025 0.0
N180 N 0.01369 0.49105 0.47901 0.0
C181 C 0.03409 0.47902 0.44812 0.0
C182 C 0.04348 0.48994 0.46864 0.0
C183 C 0.03308 0.49568 0.48374 0.0
C184 C 0.01418 0.47398 0.44356 0.0
C185 C 0.00438 0.48011 0.45906 0.0
N186 N 0.98587 0.5099 0.52104 0.0
C187 C 0.98299 0.52281 0.55906 0.0
C188 C 0.96532 0.52201 0.55156 0.0
C189 C 0.9583 0.51529 0.52835 0.0
C190 C 0.96867 0.50933 0.51356 0.0
C191 C 0.99297 0.51682 0.54364 0.0
H192 H 0.9624 0.5042 0.49621 0.0
H193 H 0.00626 0.51772 0.55055 0.0
H194 H 0.04114 0.50404 0.49899 0.0
H195 H 0.98931 0.47589 0.45441 0.0
C196 C 0.96216 0.48401 0.46111 0.0
C197 C 0.97296 0.45481 0.53348 0.0
C198 C 0.02669 0.54623 0.46672 0.0
C199 C 0.03739 0.51691 0.53894 0.0
H200 H 0.93506 0.42841 0.51078 0.0
H201 H 0.92873 0.44441 0.47136 0.0
H202 H 0.96855 0.51111 0.42171 0.0
H203 H 0.00389 0.54507 0.42483 0.0
H204 H 0.06283 0.57372 0.49182 0.0
H205 H 0.06892 0.55779 0.5315 0.0
H206 H 0.03291 0.4884 0.57549 0.0
H207 H 0.99736 0.45454 0.57268 0.0
H208 H 0.05897 0.49444 0.47286 0.0
H209 H 0.00609 0.46524 0.42814 0.0
H210 H 0.98895 0.52765 0.57698 0.0
H211 H 0.94486 0.51468 0.5215 0.0
C212 C 0.4729 0.99629 0.0438 0.0
C213 C 0.47275 0.00631 0.06398 0.0
C214 C 0.49105 0.02397 0.06383 0.0
C215 C 0.50127 0.02371 0.04365 0.0
N216 N 0.49055 0.00702 0.03076 0.0
Co217 Co 0.49974 0.00026 0.00045 0.0
N218 N 0.52696 0.02592 0.00077 0.0
C219 C 0.53365 0.04024 0.01741 0.0
C220 C 0.55297 0.05619 0.01272 0.0
C221 C 0.55896 0.05194 0.99169 0.0
C222 C 0.54283 0.03359 0.9847 0.0
N223 N 0.50893 0.9935 0.97014 0.0
C224 C 0.52652 0.0043 0.95697 0.0
C225 C 0.52654 0.99432 0.93667 0.0
C226 C 0.50831 0.9766 0.93697 0.0
C227 C 0.49821 0.97679 0.95728 0.0
N228 N 0.4725 0.97461 1.00012 0.0
C229 C 0.46586 0.96023 0.98357 0.0
C230 C 0.44657 0.94423 0.98833 0.0
C231 C 0.44053 0.94855 0.00928 0.0
C232 C 0.45659 0.96701 0.01609 0.0
N233 N 0.48891 0.01389 0.98038 0.0
C234 C 0.47435 0.03374 0.95133 0.0
C235 C 0.47 0.01468 0.94584 0.0
C236 C 0.47738 0.00513 0.96045 0.0
C237 C 0.48598 0.04259 0.97174 0.0
C238 C 0.49297 0.03248 0.9859 0.0
N239 N 0.51055 0.98662 0.02055 0.0
C240 C 0.51304 0.95771 0.0297 0.0
C241 C 0.52442 0.96651 0.0503 0.0
C242 C 0.52904 0.98571 0.05546 0.0
C243 C 0.52199 0.99538 0.04052 0.0
C244 C 0.5064 0.96796 0.01518 0.0
H245 H 0.5259 0.00987 0.04564 0.0
H246 H 0.49772 0.96036 0.99987 0.0
H247 H 0.47362 0.99071 0.95518 0.0
H248 H 0.50181 0.04012 0.00109 0.0
C249 C 0.52116 0.03858 0.03682 0.0
C250 C 0.45615 0.97639 0.03823 0.0
C251 C 0.54319 0.02433 0.96239 0.0
C252 C 0.47835 0.9619 0.96417 0.0
H253 H 0.46074 0.00125 0.07757 0.0
H254 H 0.4964 0.03547 0.07705 0.0
H255 H 0.56156 0.06946 0.02316 0.0
H256 H 0.5735 0.06138 0.98239 0.0
H257 H 0.53834 0.99944 0.9228 0.0
H258 H 0.50288 0.96513 0.92368 0.0
H259 H 0.43803 0.9309 0.97799 0.0
H260 H 0.42604 0.93907 0.01866 0.0
H261 H 0.46083 0.00706 0.93039 0.0
H262 H 0.49006 0.05747 0.9766 0.0
H263 H 0.50884 0.94276 0.02502 0.0
H264 H 0.53811 0.99335 0.07096 0.0
C265 C 0.51088 0.54435 0.49097 0.0
C266 C 0.50659 0.55807 0.49988 0.0
C267 C 0.49413 0.54906 0.51975 0.0
C268 C 0.49156 0.53046 0.52185 0.0
N269 N 0.50187 0.52711 0.50474 0.0
Co270 Co 0.50162 0.50175 0.5004 0.0
N271 N 0.483 0.48835 0.52946 0.0
C272 C 0.47585 0.49664 0.5445 0.0
C273 C 0.4648 0.48445 0.56401 0.0
C274 C 0.46508 0.46742 0.56153 0.0
C275 C 0.47617 0.47012 0.54036 0.0
N276 N 0.50072 0.47616 0.49543 0.0
C277 C 0.49113 0.45866 0.50865 0.0
C278 C 0.49362 0.44425 0.49816 0.0
C279 C 0.50569 0.45315 0.47796 0.0
C280 C 0.50967 0.47231 0.47712 0.0
N281 N 0.5209 0.51538 0.47196 0.0
C282 C 0.52925 0.5076 0.458 0.0
C283 C 0.54195 0.52051 0.43985 0.0
C284 C 0.54164 0.53754 0.44226 0.0
C285 C 0.52872 0.53402 0.46185 0.0
N286 N 0.52528 0.51103 0.52195 0.0
C287 C 0.55812 0.52291 0.55354 0.0
C288 C 0.55626 0.51233 0.53282 0.0
C289 C 0.53994 0.50669 0.51736 0.0
C290 C 0.54338 0.52766 0.55794 0.0
C291 C 0.52722 0.5216 0.54211 0.0
N292 N 0.47794 0.49245 0.47885 0.0
C293 C 0.46209 0.48047 0.44017 0.0
C294 C 0.44469 0.48011 0.44786 0.0
C295 C 0.44415 0.48589 0.47141 0.0
C296 C 0.4608 0.49198 0.48644 0.0
C297 C 0.47836 0.48659 0.45582 0.0
H298 H 0.4595 0.49641 0.50405 0.0
H299 H 0.49113 0.48651 0.44879 0.0
H300 H 0.5394 0.49863 0.50194 0.0
H301 H 0.51646 0.52556 0.54668 0.0
C302 C 0.47999 0.516 0.53999 0.0
C303 C 0.52335 0.54833 0.4692 0.0
C304 C 0.48046 0.4553 0.53183 0.0
C305 C 0.52318 0.48749 0.46072 0.0
H306 H 0.51187 0.57302 0.49266 0.0
H307 H 0.48768 0.55531 0.53127 0.0
H308 H 0.45771 0.48772 0.57857 0.0
H309 H 0.45819 0.45467 0.5742 0.0
H310 H 0.48773 0.42902 0.50476 0.0
H311 H 0.51137 0.4466 0.46575 0.0
H312 H 0.54988 0.51762 0.42596 0.0
H313 H 0.54959 0.55082 0.43046 0.0
H314 H 0.56711 0.50804 0.5287 0.0
H315 H 0.54428 0.53614 0.57349 0.0
H316 H 0.46313 0.4759 0.42217 0.0
H317 H 0.43109 0.48611 0.4781 0.0
C318 C 0.28763 0.46118 0.19486 0.0
C319 C 0.28355 0.44793 0.17612 0.0
C320 C 0.27184 0.45933 0.20928 0.0
C321 C 0.25162 0.44392 0.20564 0.0
C322 C 0.26324 0.43271 0.17224 0.0
C323 C 0.24743 0.4308 0.18679 0.0
C324 C 0.23475 0.44214 0.22051 0.0
C325 C 0.27407 0.43192 0.27195 0.0
C326 C 0.28297 0.44633 0.28981 0.0
C327 C 0.25845 0.43059 0.25769 0.0
C328 C 0.25159 0.44375 0.26092 0.0
C329 C 0.27573 0.45916 0.29329 0.0
C330 C 0.26018 0.45782 0.27907 0.0
C331 C 0.23513 0.44278 0.24613 0.0
C332 C 0.1532 0.43091 0.27196 0.0
C333 C 0.15947 0.44432 0.29094 0.0
C334 C 0.16758 0.43014 0.2574 0.0
C335 C 0.1885 0.44307 0.26127 0.0
C336 C 0.18037 0.45695 0.29503 0.0
C337 C 0.19472 0.4563 0.28038 0.0
C338 C 0.20413 0.44255 0.24629 0.0
C339 C 0.17188 0.4616 0.19497 0.0
C340 C 0.16106 0.4479 0.17688 0.0
C341 C 0.18566 0.45962 0.20929 0.0
C342 C 0.18876 0.44379 0.20599 0.0
C343 C 0.16432 0.43215 0.17347 0.0
C344 C 0.17818 0.43022 0.18778 0.0
C345 C 0.20377 0.44197 0.22067 0.0
H346 H 0.30308 0.47298 0.19851 0.0
H347 H 0.27544 0.47007 0.22317 0.0
H348 H 0.2595 0.42247 0.15769 0.0
H349 H 0.23191 0.41902 0.18338 0.0
H350 H 0.27932 0.42183 0.26882 0.0
H351 H 0.25172 0.41927 0.2442 0.0
H352 H 0.28195 0.47013 0.30723 0.0
H353 H 0.25498 0.46798 0.28211 0.0
H354 H 0.13717 0.42079 0.26863 0.0
H355 H 0.16234 0.41932 0.24332 0.0
H356 H 0.18567 0.46757 0.30937 0.0
H357 H 0.21074 0.46634 0.28384 0.0
H358 H 0.16962 0.47382 0.19815 0.0
H359 H 0.19403 0.47058 0.22282 0.0
H360 H 0.15643 0.42153 0.15946 0.0
H361 H 0.18057 0.41806 0.18472 0.0
N362 N 0.219 0.44162 0.2088 0.0
N363 N 0.21985 0.44303 0.25792 0.0
C364 C 0.84037 0.2748 0.78298 0.0
C365 C 0.83372 0.28201 0.80157 0.0
C366 C 0.8263 0.25913 0.76888 0.0
C367 C 0.8053 0.25062 0.77277 0.0
C368 C 0.81267 0.27293 0.80594 0.0
C369 C 0.79866 0.25743 0.79172 0.0
C370 C 0.78999 0.23436 0.75773 0.0
C371 C 0.82594 0.28762 0.70657 0.0
C372 C 0.83627 0.28473 0.68769 0.0
C373 C 0.81137 0.27143 0.72105 0.0
C374 C 0.80711 0.25202 0.71733 0.0
C375 C 0.83177 0.26522 0.68381 0.0
C376 C 0.81726 0.24903 0.69842 0.0
C377 C 0.79123 0.23468 0.73208 0.0
C378 C 0.70747 0.16969 0.70583 0.0
C379 C 0.71174 0.16073 0.68697 0.0
C380 C 0.72301 0.18338 0.72047 0.0
C381 C 0.74311 0.18819 0.71686 0.0
C382 C 0.73193 0.16574 0.68322 0.0
C383 C 0.74747 0.17943 0.69794 0.0
C384 C 0.75975 0.20323 0.73179 0.0
C385 C 0.71821 0.15129 0.7825 0.0
C386 C 0.70843 0.1561 0.80008 0.0
C387 C 0.73458 0.16642 0.76861 0.0
C388 C 0.74139 0.18661 0.772 0.0
C389 C 0.71558 0.17634 0.80373 0.0
C390 C 0.73196 0.19143 0.78993 0.0
C391 C 0.75853 0.20291 0.7574 0.0
H392 H 0.85645 0.28144 0.77906 0.0
H393 H 0.83186 0.25374 0.75489 0.0
H394 H 0.80697 0.27772 0.82047 0.0
H395 H 0.78255 0.25092 0.79536 0.0
H396 H 0.82911 0.30244 0.71021 0.0
H397 H 0.8033 0.27407 0.73503 0.0
H398 H 0.83915 0.26239 0.66916 0.0
H399 H 0.81396 0.23414 0.69496 0.0
H400 H 0.69209 0.16608 0.70934 0.0
H401 H 0.71931 0.19039 0.73445 0.0
H402 H 0.73579 0.15936 0.66862 0.0
H403 H 0.76293 0.18317 0.69458 0.0
H404 H 0.71303 0.13582 0.77927 0.0
H405 H 0.74191 0.16235 0.75524 0.0
H406 H 0.70861 0.18054 0.81743 0.0
H407 H 0.73709 0.20691 0.79304 0.0
N408 N 0.77362 0.21852 0.7693 0.0
N409 N 0.77613 0.21903 0.72015 0.0
C410 C 0.57714 0.72699 0.22102 0.0
C411 C 0.56182 0.71825 0.20364 0.0
C412 C 0.57918 0.7425 0.23493 0.0
C413 C 0.56587 0.74945 0.23176 0.0
C414 C 0.54888 0.72561 0.20015 0.0
C415 C 0.55095 0.74109 0.21398 0.0
C416 C 0.56733 0.76555 0.24648 0.0
C417 C 0.54904 0.7132 0.29817 0.0
C418 C 0.56265 0.71704 0.31715 0.0
C419 C 0.55085 0.72887 0.28346 0.0
C420 C 0.56659 0.74868 0.28703 0.0
C421 C 0.57825 0.73694 0.32088 0.0
C422 C 0.58013 0.75261 0.30602 0.0
C423 C 0.56817 0.76545 0.27211 0.0
C424 C 0.54682 0.82535 0.29717 0.0
C425 C 0.56066 0.8359 0.3155 0.0
C426 C 0.54937 0.81247 0.28288 0.0
C427 C 0.56588 0.80996 0.28654 0.0
C428 C 0.57714 0.8333 0.31923 0.0
C429 C 0.5796 0.82028 0.30501 0.0
C430 C 0.56819 0.79582 0.27193 0.0
C431 C 0.57969 0.84693 0.2216 0.0
C432 C 0.56635 0.84145 0.20204 0.0
C433 C 0.58037 0.83231 0.23595 0.0
C434 C 0.56738 0.81192 0.23133 0.0
C435 C 0.55375 0.8211 0.19709 0.0
C436 C 0.55428 0.8065 0.21157 0.0
C437 C 0.5677 0.79608 0.24629 0.0
H438 H 0.58734 0.72164 0.22413 0.0
H439 H 0.59111 0.74902 0.24818 0.0
H440 H 0.53719 0.71947 0.18659 0.0
H441 H 0.54065 0.74635 0.21102 0.0
H442 H 0.53695 0.69807 0.29463 0.0
H443 H 0.53977 0.72548 0.26947 0.0
H444 H 0.58877 0.74047 0.33558 0.0
H445 H 0.59216 0.76782 0.30937 0.0
H446 H 0.53405 0.82713 0.29377 0.0
H447 H 0.53832 0.80432 0.26911 0.0
H448 H 0.5879 0.84104 0.33342 0.0
H449 H 0.59229 0.81833 0.30833 0.0
H450 H 0.58979 0.86254 0.22558 0.0
H451 H 0.59116 0.83698 0.25052 0.0
H452 H 0.54319 0.81643 0.18226 0.0
H453 H 0.54421 0.7909 0.20751 0.0
N454 N 0.56712 0.78085 0.23464 0.0
N455 N 0.56865 0.78064 0.28383 0.0
C456 C 0.84876 0.57189 0.72937 0.0
C457 C 0.84223 0.55714 0.71197 0.0
C458 C 0.83454 0.5732 0.74362 0.0
C459 C 0.81359 0.55976 0.7407 0.0
C460 C 0.82126 0.54395 0.70887 0.0
C461 C 0.8071 0.54533 0.72299 0.0
C462 C 0.7982 0.56078 0.75546 0.0
C463 C 0.8307 0.54201 0.80673 0.0
C464 C 0.84089 0.55526 0.82545 0.0
C465 C 0.817 0.54401 0.79226 0.0
C466 C 0.81346 0.55953 0.79588 0.0
C467 C 0.83711 0.57063 0.82924 0.0
C468 C 0.82344 0.57267 0.81467 0.0
C469 C 0.79852 0.56139 0.78106 0.0
C470 C 0.71503 0.5432 0.80636 0.0
C471 C 0.71916 0.55674 0.82475 0.0
C472 C 0.73082 0.54485 0.7921 0.0
C473 C 0.75104 0.56026 0.79569 0.0
C474 C 0.73947 0.57195 0.82858 0.0
C475 C 0.75527 0.57362 0.81425 0.0
C476 C 0.76787 0.56184 0.78095 0.0
C477 C 0.72953 0.57357 0.72987 0.0
C478 C 0.72145 0.56036 0.7107 0.0
C479 C 0.74466 0.57412 0.74437 0.0
C480 C 0.7516 0.56112 0.74032 0.0
C481 C 0.72873 0.5477 0.70636 0.0
C482 C 0.74365 0.5481 0.721 0.0
C483 C 0.76763 0.56134 0.75532 0.0
H484 H 0.86483 0.58225 0.73216 0.0
H485 H 0.83991 0.58474 0.75682 0.0
H486 H 0.81577 0.53267 0.69532 0.0
H487 H 0.79102 0.53494 0.72026 0.0
H488 H 0.83334 0.5301 0.80317 0.0
H489 H 0.80902 0.53327 0.7784 0.0
H490 H 0.84442 0.58088 0.84376 0.0
H491 H 0.82068 0.58454 0.81805 0.0
H492 H 0.69962 0.53104 0.8033 0.0
H493 H 0.72723 0.53394 0.77844 0.0
H494 H 0.74315 0.58268 0.84251 0.0
H495 H 0.77079 0.58547 0.8175 0.0
H496 H 0.72438 0.58369 0.73337 0.0
H497 H 0.75101 0.58482 0.75859 0.0
H498 H 0.72266 0.53724 0.69186 0.0
H499 H 0.74883 0.53802 0.71737 0.0
N500 N 0.78275 0.5607 0.74366 0.0
N501 N 0.7834 0.56203 0.7928 0.0
C502 C 0.17972 0.71904 0.22068 0.0
C503 C 0.16917 0.72295 0.20281 0.0
C504 C 0.19335 0.73416 0.23563 0.0
C505 C 0.19665 0.75348 0.2331 0.0
C506 C 0.17239 0.74227 0.20037 0.0
C507 C 0.18617 0.75745 0.21524 0.0
C508 C 0.21204 0.7698 0.2479 0.0
C509 C 0.16122 0.72847 0.3 0.0
C510 C 0.16641 0.71803 0.31671 0.0
C511 C 0.17625 0.74456 0.28574 0.0
C512 C 0.19677 0.75055 0.28793 0.0
C513 C 0.18704 0.72415 0.31882 0.0
C514 C 0.20206 0.74036 0.30474 0.0
C515 C 0.21286 0.76782 0.27336 0.0
C516 C 0.28255 0.8489 0.30042 0.0
C517 C 0.29263 0.84303 0.31675 0.0
C518 C 0.26678 0.8348 0.28628 0.0
C519 C 0.26083 0.81458 0.28812 0.0
C520 C 0.28646 0.8227 0.31863 0.0
C521 C 0.27064 0.80863 0.30462 0.0
C522 C 0.24412 0.79939 0.27345 0.0
C523 C 0.2953 0.83867 0.2206 0.0
C524 C 0.2906 0.84869 0.20269 0.0
C525 C 0.27998 0.82353 0.23556 0.0
C526 C 0.25968 0.81829 0.23318 0.0
C527 C 0.27025 0.84337 0.20029 0.0
C528 C 0.25493 0.82825 0.21533 0.0
C529 C 0.24319 0.80151 0.24799 0.0
H530 H 0.17748 0.70428 0.22307 0.0
H531 H 0.20164 0.73083 0.24884 0.0
H532 H 0.16465 0.74577 0.18656 0.0
H533 H 0.18869 0.77232 0.21278 0.0
H534 H 0.14558 0.72447 0.2982 0.0
H535 H 0.17187 0.75251 0.27326 0.0
H536 H 0.19161 0.71629 0.33116 0.0
H537 H 0.21783 0.74478 0.30673 0.0
H538 H 0.28663 0.86434 0.29881 0.0
H539 H 0.25911 0.83968 0.27408 0.0
H540 H 0.29405 0.81765 0.33071 0.0
H541 H 0.26626 0.79309 0.30638 0.0
H542 H 0.31075 0.84209 0.22255 0.0
H543 H 0.28396 0.8156 0.24859 0.0
H544 H 0.26615 0.85089 0.18677 0.0
H545 H 0.23933 0.82431 0.21301 0.0
N546 N 0.22714 0.78664 0.23621 0.0
N547 N 0.22894 0.7826 0.28513 0.0
C548 C 0.42196 0.15564 0.78064 0.0
C549 C 0.43486 0.16111 0.80065 0.0
C550 C 0.42146 0.17026 0.76607 0.0
C551 C 0.4342 0.19064 0.77093 0.0
C552 C 0.44725 0.18145 0.80576 0.0
C553 C 0.4469 0.19604 0.79108 0.0
C554 C 0.43404 0.20651 0.75587 0.0
C555 C 0.45545 0.17723 0.70543 0.0
C556 C 0.442 0.1672 0.68655 0.0
C557 C 0.45284 0.19005 0.71978 0.0
C558 C 0.43666 0.193 0.71565 0.0
C559 C 0.42587 0.17025 0.68237 0.0
C560 C 0.42334 0.18318 0.69667 0.0
C561 C 0.43427 0.20713 0.73022 0.0
C562 C 0.45249 0.29002 0.70519 0.0
C563 C 0.44036 0.28602 0.6847 0.0
C564 C 0.45067 0.27432 0.71987 0.0
C565 C 0.43609 0.25435 0.71486 0.0
C566 C 0.42626 0.2661 0.67919 0.0
C567 C 0.42409 0.2504 0.69421 0.0
C568 C 0.43424 0.23749 0.72993 0.0
C569 C 0.42339 0.27518 0.78021 0.0
C570 C 0.43769 0.28325 0.79884 0.0
C571 C 0.42183 0.25987 0.76631 0.0
C572 C 0.43475 0.25257 0.77054 0.0
C573 C 0.45 0.27533 0.80357 0.0
C574 C 0.44853 0.26017 0.78961 0.0
C575 C 0.43409 0.23691 0.75564 0.0
H576 H 0.41205 0.14003 0.77651 0.0
H577 H 0.41098 0.16561 0.75117 0.0
H578 H 0.45748 0.18612 0.82093 0.0
H579 H 0.45678 0.21163 0.79532 0.0
H580 H 0.46796 0.17511 0.70917 0.0
H581 H 0.4636 0.19784 0.73396 0.0
H582 H 0.41543 0.16294 0.66775 0.0
H583 H 0.41093 0.18547 0.69297 0.0
H584 H 0.46376 0.30529 0.70947 0.0
H585 H 0.46085 0.27784 0.73494 0.0
H586 H 0.41683 0.26272 0.66336 0.0
H587 H 0.41302 0.23513 0.68969 0.0
H588 H 0.41367 0.28093 0.77609 0.0
H589 H 0.41068 0.25388 0.75213 0.0
H590 H 0.4608 0.2808 0.81815 0.0
H591 H 0.45845 0.2546 0.79348 0.0
N592 N 0.43407 0.22148 0.76748 0.0
N593 N 0.43417 0.22247 0.71828 0.0
H594 H 0.04727 0.50025 0.07323 0.0
H595 H 0.06886 0.49227 0.09768 0.0
H596 H 0.05861 0.44683 0.04786 0.0
H597 H 0.03704 0.45487 0.02339 0.0
H598 H 0.05909 0.45471 0.12016 0.0
H599 H 0.12154 0.48357 0.05079 0.0
H600 H 0.10208 0.48969 0.04957 0.0
H601 H 0.09651 0.46562 0.04054 0.0
C602 C 0.04966 0.48854 0.06764 0.0
C603 C 0.04077 0.47824 0.04648 0.0
C604 C 0.0619 0.48399 0.08155 0.0
C605 C 0.06551 0.46915 0.07438 0.0
C606 C 0.05626 0.45855 0.05346 0.0
H607 H 0.12307 0.41875 0.16279 0.0
H608 H 0.09936 0.42295 0.13756 0.0
C609 C 0.04395 0.46307 0.03959 0.0
C610 C 0.07911 0.46495 0.08875 0.0
H611 H 0.12493 0.46824 0.08654 0.0
C612 C 0.07345 0.45758 0.11282 0.0
C613 C 0.09791 0.46892 0.07914 0.0
C614 C 0.10504 0.47754 0.05366 0.0
C615 C 0.08613 0.45405 0.12759 0.0
C616 C 0.10484 0.45784 0.11789 0.0
C617 C 0.11049 0.46521 0.09382 0.0
C618 C 0.11919 0.45508 0.13278 0.0
C619 C 0.07969 0.44679 0.15361 0.0
C620 C 0.13832 0.47169 0.13797 0.0
C621 C 0.1519 0.46933 0.15223 0.0
C622 C 0.14666 0.45028 0.16143 0.0
C623 C 0.12758 0.4336 0.15587 0.0
C624 C 0.11396 0.43599 0.14165 0.0
H625 H 0.06699 0.44851 0.15963 0.0
H626 H 0.07449 0.43069 0.15543 0.0
H627 H 0.09267 0.45507 0.16592 0.0
H628 H 0.14267 0.48653 0.13114 0.0
H629 H 0.1666 0.48243 0.15587 0.0
H630 H 0.57789 0.02344 0.54946 0.0
H631 H 0.60605 0.04476 0.57627 0.0
H632 H 0.58296 0.08389 0.58222 0.0
H633 H 0.55468 0.06238 0.55584 0.0
H634 H 0.63597 0.08508 0.56986 0.0
H635 H 0.58953 0.07198 0.65305 0.0
H636 H 0.57952 0.0564 0.62713 0.0
H637 H 0.58149 0.08023 0.62707 0.0
C638 C 0.57885 0.03653 0.55673 0.0
C639 C 0.56417 0.04128 0.55098 0.0
C640 C 0.59488 0.04868 0.57193 0.0
C641 C 0.59638 0.06571 0.58157 0.0
C642 C 0.58182 0.07058 0.57545 0.0
H643 H 0.68047 0.16354 0.66835 0.0
H644 H 0.65297 0.13991 0.64279 0.0
C645 C 0.56579 0.05841 0.56033 0.0
C646 C 0.61344 0.0787 0.59753 0.0
H647 H 0.62421 0.09872 0.65357 0.0
C648 C 0.63344 0.08794 0.58825 0.0
C649 C 0.61007 0.08236 0.62151 0.0
C650 C 0.58901 0.07208 0.6329 0.0
C651 C 0.65015 0.10126 0.60206 0.0
C652 C 0.64673 0.10519 0.62586 0.0
C653 C 0.62676 0.09573 0.63527 0.0
C654 C 0.66361 0.11946 0.64117 0.0
C655 C 0.67126 0.11148 0.59083 0.0
C656 C 0.67862 0.11568 0.64889 0.0
C657 C 0.69431 0.12911 0.66365 0.0
C658 C 0.69521 0.1465 0.67106 0.0
C659 C 0.68009 0.15017 0.66328 0.0
C660 C 0.66442 0.13674 0.64856 0.0
H661 H 0.67089 0.11024 0.57079 0.0
H662 H 0.68015 0.12756 0.59512 0.0
H663 H 0.67934 0.10437 0.59841 0.0
H664 H 0.67804 0.10223 0.64375 0.0
H665 H 0.70553 0.12568 0.66962 0.0
H666 H 0.51448 0.55591 0.09925 0.0
H667 H 0.52281 0.58375 0.12521 0.0
H668 H 0.55338 0.62554 0.06469 0.0
H669 H 0.54513 0.59776 0.03857 0.0
H670 H 0.56024 0.61696 0.13719 0.0
H671 H 0.51231 0.63958 0.08805 0.0
H672 H 0.5104 0.61605 0.08348 0.0
H673 H 0.53082 0.63875 0.06926 0.0
C674 C 0.52315 0.57104 0.0915 0.0
C675 C 0.52905 0.57462 0.0668 0.0
C676 C 0.52783 0.58692 0.10635 0.0
C677 C 0.53845 0.60667 0.09679 0.0
C678 C 0.5448 0.61036 0.0723 0.0
H679 H 0.59135 0.71442 0.18162 0.0
H680 H 0.58653 0.68735 0.15614 0.0
C681 C 0.54006 0.59448 0.05741 0.0
C682 C 0.54264 0.62333 0.11245 0.0
H683 H 0.53281 0.66045 0.11917 0.0
C684 C 0.55428 0.62651 0.13327 0.0
C685 C 0.53462 0.63558 0.10742 0.0
C686 C 0.52118 0.63227 0.08597 0.0
C687 C 0.55819 0.64168 0.14917 0.0
C688 C 0.55049 0.65416 0.14387 0.0
C689 C 0.53882 0.65095 0.12308 0.0
C690 C 0.55369 0.67021 0.16005 0.0
C691 C 0.57007 0.64388 0.1718 0.0
C692 C 0.53683 0.66967 0.17046 0.0
C693 C 0.53953 0.6851 0.18489 0.0
C694 C 0.55916 0.70147 0.18915 0.0
C695 C 0.57606 0.70189 0.17893 0.0
C696 C 0.57334 0.68643 0.16439 0.0
H697 H 0.57057 0.63026 0.17619 0.0
H698 H 0.58595 0.65665 0.16897 0.0
H699 H 0.56337 0.64697 0.18762 0.0
H700 H 0.52154 0.65728 0.16736 0.0
H701 H 0.52622 0.6842 0.19277 0.0
H702 H 0.98111 0.55279 0.58311 0.0
H703 H 0.96242 0.56114 0.61127 0.0
H704 H 0.90558 0.51294 0.58512 0.0
H705 H 0.92403 0.50406 0.55742 0.0
H706 H 0.91018 0.55312 0.58909 0.0
H707 H 0.92835 0.52419 0.67266 0.0
H708 H 0.94911 0.54053 0.65207 0.0
H709 H 0.92976 0.51619 0.64276 0.0
C710 C 0.96464 0.54383 0.58348 0.0
C711 C 0.95409 0.52769 0.56803 0.0
C712 C 0.95401 0.54869 0.5995 0.0
C713 C 0.93268 0.53756 0.60031 0.0
C714 C 0.92208 0.52171 0.58468 0.0
H715 H 0.8413 0.52311 0.70103 0.0
H716 H 0.86463 0.52 0.67422 0.0
C717 C 0.93266 0.51675 0.56876 0.0
C718 C 0.9213 0.54224 0.61761 0.0
H719 H 0.90842 0.53846 0.67765 0.0
C720 C 0.90988 0.55009 0.60848 0.0
C721 C 0.9209 0.53808 0.64281 0.0
C722 C 0.93256 0.52917 0.65331 0.0
C723 C 0.89788 0.55375 0.62396 0.0
C724 C 0.89743 0.54953 0.64918 0.0
C725 C 0.90897 0.54181 0.65831 0.0
C726 C 0.88402 0.5518 0.66614 0.0
C727 C 0.88528 0.56152 0.61321 0.0
C728 C 0.88744 0.57076 0.67075 0.0
C729 C 0.87411 0.57258 0.68604 0.0
C730 C 0.85712 0.55546 0.69689 0.0
C731 C 0.85407 0.53654 0.69265 0.0
C732 C 0.86744 0.53475 0.67748 0.0
H733 H 0.88464 0.56074 0.59311 0.0
H734 H 0.86951 0.55288 0.62085 0.0
H735 H 0.89205 0.57739 0.61788 0.0
H736 H 0.90031 0.5841 0.66234 0.0
H737 H 0.87679 0.58734 0.68889 0.0
H738 H 0.45326 0.95095 0.07457 0.0
H739 H 0.42431 0.93064 0.10277 0.0
H740 H 0.39188 0.95584 0.06925 0.0
H741 H 0.42099 0.9763 0.04118 0.0
H742 H 0.39016 0.95367 0.12141 0.0
H743 H 0.36987 0.88156 0.08183 0.0
H744 H 0.39598 0.89676 0.09049 0.0
H745 H 0.38655 0.90547 0.0664 0.0
C746 C 0.43994 0.95214 0.07343 0.0
C747 C 0.4391 0.96499 0.05591 0.0
C748 C 0.42345 0.94054 0.08937 0.0
C749 C 0.40589 0.94157 0.08783 0.0
C750 C 0.40528 0.95482 0.07064 0.0
H751 H 0.28859 0.85341 0.1536 0.0
H752 H 0.31587 0.87729 0.12563 0.0
C753 C 0.4218 0.96643 0.05468 0.0
C754 C 0.38807 0.92858 0.10395 0.0
H755 H 0.35282 0.87964 0.11859 0.0
C756 C 0.38191 0.93748 0.12077 0.0
C757 C 0.3772 0.90751 0.10277 0.0
C758 C 0.38257 0.8972 0.08427 0.0
C759 C 0.36543 0.92578 0.13693 0.0
C760 C 0.35505 0.90468 0.13633 0.0
C761 C 0.36091 0.89583 0.11911 0.0
C762 C 0.33819 0.89142 0.15358 0.0
C763 C 0.35916 0.93607 0.15435 0.0
C764 C 0.34171 0.89152 0.17856 0.0
C765 C 0.32614 0.87795 0.1946 0.0
C766 C 0.30677 0.86398 0.18592 0.0
C767 C 0.30323 0.86415 0.16091 0.0
C768 C 0.31883 0.87769 0.14489 0.0
H769 H 0.36504 0.95184 0.14833 0.0
H770 H 0.34233 0.92804 0.15632 0.0
H771 H 0.36544 0.93614 0.17247 0.0
H772 H 0.35664 0.90177 0.18559 0.0
H773 H 0.32929 0.87829 0.21379 0.0
H774 H 0.5069 0.44639 0.5519 0.0
H775 H 0.499 0.41663 0.57668 0.0
H776 H 0.43489 0.39503 0.5727 0.0
H777 H 0.44282 0.42416 0.54647 0.0
H778 H 0.48253 0.40416 0.61923 0.0
H779 H 0.43351 0.3459 0.55517 0.0
H780 H 0.44803 0.37212 0.54628 0.0
H781 H 0.42383 0.36153 0.56196 0.0
C782 C 0.49113 0.43512 0.55618 0.0
C783 C 0.47544 0.43745 0.54744 0.0
C784 C 0.48662 0.41819 0.57036 0.0
C785 C 0.46631 0.40338 0.57628 0.0
C786 C 0.45062 0.40591 0.56784 0.0
H787 H 0.43699 0.31732 0.69727 0.0
H788 H 0.44223 0.34547 0.671 0.0
C789 C 0.45514 0.42266 0.55318 0.0
C790 C 0.46176 0.38569 0.59192 0.0
H791 H 0.43344 0.33462 0.59589 0.0
C792 C 0.47188 0.38895 0.61403 0.0
C793 C 0.4481 0.36581 0.58502 0.0
C794 C 0.43792 0.36111 0.5607 0.0
C795 C 0.46872 0.37296 0.62943 0.0
C796 C 0.45432 0.35311 0.62309 0.0
C797 C 0.44427 0.34983 0.60093 0.0
C798 C 0.44992 0.33551 0.63881 0.0
C799 C 0.48139 0.37761 0.65191 0.0
C800 C 0.45142 0.32 0.6292 0.0
C801 C 0.44782 0.30364 0.64402 0.0
C802 C 0.44292 0.30267 0.66874 0.0
C803 C 0.44103 0.31794 0.67829 0.0
C804 C 0.44418 0.33407 0.66335 0.0
H805 H 0.49576 0.39246 0.64999 0.0
H806 H 0.47269 0.37803 0.66765 0.0
H807 H 0.48529 0.3661 0.65592 0.0
H808 H 0.45572 0.3207 0.61032 0.0
H809 H 0.44939 0.29202 0.63632 0.0
H810 H 0.49871 0.9237 0.4505 0.0
H811 H 0.50657 0.90273 0.4268 0.0
H812 H 0.56703 0.95337 0.4115 0.0
H813 H 0.55939 0.97443 0.43544 0.0
H814 H 0.52028 0.91099 0.37566 0.0
H815 H 0.5751 0.90728 0.43771 0.0
H816 H 0.5571 0.91368 0.44797 0.0
H817 H 0.57934 0.93171 0.43066 0.0
C818 C 0.51378 0.93032 0.44238 0.0
C819 C 0.52846 0.95071 0.44491 0.0
C820 C 0.51819 0.91835 0.42875 0.0
C821 C 0.53742 0.92648 0.41763 0.0
C822 C 0.55218 0.94678 0.4202 0.0
H823 H 0.58933 0.87364 0.32906 0.0
H824 H 0.58402 0.89611 0.3534 0.0
C825 C 0.54773 0.95881 0.4337 0.0
C826 C 0.54172 0.91384 0.40257 0.0
H827 H 0.56987 0.89202 0.40002 0.0
C828 C 0.5311 0.9068 0.38096 0.0
C829 C 0.55598 0.90861 0.40949 0.0
C830 C 0.5675 0.91556 0.43279 0.0
C831 C 0.53442 0.89469 0.36593 0.0
C832 C 0.54835 0.88904 0.3731 0.0
C833 C 0.55916 0.89631 0.3946 0.0
C834 C 0.55163 0.87532 0.35871 0.0
C835 C 0.52325 0.8884 0.34231 0.0
C836 C 0.53527 0.85605 0.35405 0.0
C837 C 0.53824 0.84326 0.34011 0.0
C838 C 0.5577 0.84938 0.33082 0.0
C839 C 0.57418 0.86849 0.33606 0.0
C840 C 0.57116 0.88135 0.34988 0.0
H841 H 0.51821 0.89867 0.33613 0.0
H842 H 0.53294 0.88796 0.32777 0.0
H843 H 0.50948 0.8732 0.34494 0.0
H844 H 0.52018 0.85086 0.36127 0.0
H845 H 0.52533 0.82848 0.33678 0.0
H846 H 0.58541 0.55525 0.96928 0.0
H847 H 0.61538 0.56284 0.94463 0.0
H848 H 0.58118 0.50416 0.9149 0.0
H849 H 0.55139 0.49655 0.93983 0.0
H850 H 0.61954 0.51424 0.93023 0.0
H851 H 0.62373 0.57499 0.87122 0.0
H852 H 0.62363 0.57861 0.90322 0.0
H853 H 0.6016 0.55811 0.88985 0.0
C854 C 0.58442 0.5441 0.95736 0.0
C855 C 0.56631 0.52541 0.95617 0.0
C856 C 0.60141 0.54844 0.94325 0.0
C857 C 0.60039 0.53416 0.92769 0.0
C858 C 0.58224 0.5154 0.92671 0.0
H859 H 0.68167 0.54835 0.81031 0.0
H860 H 0.65332 0.54325 0.8359 0.0
C861 C 0.56529 0.51107 0.94084 0.0
C862 C 0.61834 0.5385 0.91283 0.0
H863 H 0.65087 0.56937 0.86734 0.0
C864 C 0.62641 0.5263 0.91648 0.0
C865 C 0.62711 0.55411 0.89475 0.0
C866 C 0.6185 0.56712 0.8893 0.0
C867 C 0.64311 0.52933 0.90262 0.0
C868 C 0.65215 0.5452 0.88489 0.0
C869 C 0.64401 0.55734 0.88112 0.0
C870 C 0.66963 0.54899 0.8695 0.0
C871 C 0.65061 0.51524 0.90666 0.0
C872 C 0.6883 0.55424 0.87988 0.0
C873 C 0.70448 0.55702 0.86534 0.0
C874 C 0.70231 0.55469 0.84011 0.0
C875 C 0.68372 0.54993 0.82972 0.0
C876 C 0.66757 0.54715 0.84428 0.0
H877 H 0.63917 0.50122 0.91666 0.0
H878 H 0.65441 0.5113 0.88911 0.0
H879 H 0.66462 0.52265 0.91755 0.0
H880 H 0.6903 0.55603 0.89928 0.0
H881 H 0.71854 0.56057 0.87393 0.0
H882 H 0.02085 0.57669 0.45428 0.0
H883 H 0.0423 0.60598 0.42714 0.0
H884 H 0.08386 0.58564 0.41745 0.0
H885 H 0.06194 0.556 0.44367 0.0
H886 H 0.08047 0.63598 0.43088 0.0
H887 H 0.07478 0.59557 0.34818 0.0
H888 H 0.05856 0.58327 0.37458 0.0
H889 H 0.08385 0.58756 0.37329 0.0
C890 C 0.03446 0.57847 0.44605 0.0
C891 C 0.03971 0.56411 0.45063 0.0
C892 C 0.04671 0.59516 0.43067 0.0
C893 C 0.06445 0.59778 0.41981 0.0
C894 C 0.06993 0.58364 0.42498 0.0
H895 H 0.16886 0.7079 0.36417 0.0
H896 H 0.14323 0.67908 0.38854 0.0
C897 C 0.05756 0.56684 0.4401 0.0
C898 C 0.07761 0.61561 0.40373 0.0
H899 H 0.1018 0.63003 0.34829 0.0
C900 C 0.08497 0.63469 0.41272 0.0
C901 C 0.08315 0.61394 0.37984 0.0
C902 C 0.07448 0.59397 0.36831 0.0
C903 C 0.09829 0.65212 0.39882 0.0
C904 C 0.10491 0.65041 0.37557 0.0
C905 C 0.09697 0.63135 0.36625 0.0
C906 C 0.12037 0.66813 0.3608 0.0
C907 C 0.10492 0.67215 0.40913 0.0
C908 C 0.11636 0.67124 0.33675 0.0
C909 C 0.13123 0.68743 0.32247 0.0
C910 C 0.15044 0.7009 0.33197 0.0
C911 C 0.15436 0.69774 0.35611 0.0
C912 C 0.13956 0.68143 0.37026 0.0
H913 H 0.09357 0.67092 0.42259 0.0
H914 H 0.11951 0.67775 0.41863 0.0
H915 H 0.10721 0.68333 0.39463 0.0
H916 H 0.10172 0.66105 0.32897 0.0
H917 H 0.12777 0.68916 0.30385 0.0
H918 H 0.46005 0.05728 0.9655 0.0
H919 H 0.45062 0.07683 0.93953 0.0
H920 H 0.46278 0.05405 0.87591 0.0
H921 H 0.47276 0.03482 0.90165 0.0
H922 H 0.47814 0.10635 0.90226 0.0
H923 H 0.40503 0.046 0.86552 0.0
H924 H 0.41553 0.04263 0.89326 0.0
H925 H 0.42614 0.04238 0.86442 0.0
C926 C 0.46077 0.05643 0.94598 0.0
C927 C 0.46725 0.04453 0.93566 0.0
C928 C 0.45522 0.0675 0.93121 0.0
C929 C 0.45582 0.06669 0.90588 0.0
C930 C 0.46189 0.05457 0.89546 0.0
H931 H 0.43753 0.12967 0.78607 0.0
H932 H 0.44183 0.10616 0.81178 0.0
C933 C 0.46755 0.04357 0.91022 0.0
C934 C 0.45148 0.07962 0.89034 0.0
H935 H 0.41823 0.07882 0.84898 0.0
C936 C 0.465 0.10038 0.89068 0.0
C937 C 0.43443 0.07168 0.87515 0.0
C938 C 0.41931 0.04946 0.87456 0.0
C939 C 0.46208 0.11349 0.87595 0.0
C940 C 0.44485 0.10561 0.86098 0.0
C941 C 0.43136 0.0848 0.86056 0.0
C942 C 0.44071 0.11882 0.84558 0.0
C943 C 0.47776 0.13563 0.87613 0.0
C944 C 0.43805 0.13329 0.85613 0.0
C945 C 0.43571 0.14676 0.84153 0.0
C946 C 0.43571 0.14581 0.81611 0.0
C947 C 0.43741 0.1307 0.80561 0.0
C948 C 0.43992 0.11731 0.82025 0.0
H949 H 0.49254 0.13859 0.88313 0.0
H950 H 0.48038 0.14271 0.85764 0.0
H951 H 0.47226 0.14291 0.88817 0.0
H952 H 0.43808 0.13436 0.87568 0.0
H953 H 0.43404 0.15802 0.85011 0.0
H954 H 0.40393 0.45638 0.4587 0.0
H955 H 0.3755 0.4475 0.43164 0.0
H956 H 0.4179 0.48158 0.37281 0.0
H957 H 0.44636 0.49053 0.39971 0.0
H958 H 0.36672 0.47308 0.40782 0.0
H959 H 0.37896 0.4287 0.34163 0.0
H960 H 0.39118 0.43485 0.37069 0.0
H961 H 0.40117 0.45299 0.3457 0.0
C962 C 0.40719 0.46196 0.43999 0.0
C963 C 0.42739 0.47412 0.43132 0.0
C964 C 0.39094 0.45678 0.42454 0.0
C965 C 0.39459 0.4636 0.40013 0.0
C966 C 0.41473 0.47572 0.39141 0.0
H967 H 0.31752 0.48048 0.30307 0.0
H968 H 0.34392 0.48344 0.33015 0.0
C969 C 0.43098 0.48085 0.40682 0.0
C970 C 0.37738 0.45909 0.38416 0.0
H971 H 0.35606 0.43919 0.33 0.0
C972 C 0.36428 0.46551 0.39091 0.0
C973 C 0.37407 0.449 0.36225 0.0
C974 C 0.38696 0.4408 0.35471 0.0
C975 C 0.34837 0.4627 0.37597 0.0
C976 C 0.3457 0.4535 0.35352 0.0
C977 C 0.35833 0.44646 0.34711 0.0
C978 C 0.33013 0.45152 0.33627 0.0
C979 C 0.33453 0.46958 0.38436 0.0
C980 C 0.31399 0.43257 0.33014 0.0
C981 C 0.29882 0.43081 0.31467 0.0
C982 C 0.29963 0.44801 0.30502 0.0
C983 C 0.31622 0.46695 0.31061 0.0
C984 C 0.33133 0.46868 0.32605 0.0
H985 H 0.33518 0.4714 0.4043 0.0
H986 H 0.33936 0.48428 0.37533 0.0
H987 H 0.31851 0.45882 0.37947 0.0
H988 H 0.31289 0.41915 0.33777 0.0
H989 H 0.28619 0.41601 0.31083 0.0
H990 H 0.97555 0.42349 0.9284 0.0
H991 H 0.95502 0.39561 0.90179 0.0
H992 H 0.90337 0.40142 0.9144 0.0
H993 H 0.92374 0.4293 0.94092 0.0
H994 H 0.91295 0.3579 0.91602 0.0
H995 H 0.91434 0.40475 0.83719 0.0
H996 H 0.93376 0.41442 0.85996 0.0
H997 H 0.90915 0.41038 0.86674 0.0
C998 C 0.95984 0.41886 0.92541 0.0
C999 C 0.95124 0.42857 0.93672 0.0
C1000 C 0.94815 0.40292 0.91033 0.0
C1001 C 0.92778 0.39663 0.90608 0.0
C1002 C 0.91911 0.40618 0.91741 0.0
H1003 H 0.83052 0.31278 0.8178 0.0
H1004 H 0.85403 0.33991 0.84328 0.0
C1005 C 0.93072 0.42199 0.93265 0.0
C1006 C 0.91546 0.38002 0.88985 0.0
H1007 H 0.89283 0.36972 0.83469 0.0
C1008 C 0.90863 0.3604 0.89815 0.0
C1009 C 0.90988 0.38347 0.86667 0.0
C1010 C 0.91721 0.40438 0.8569 0.0
C1011 C 0.89574 0.34397 0.88409 0.0
C1012 C 0.89004 0.34739 0.86086 0.0
C1013 C 0.89722 0.36711 0.85246 0.0
C1014 C 0.87593 0.33074 0.84538 0.0
C1015 C 0.88776 0.32313 0.89465 0.0
C1016 C 0.88053 0.31666 0.83781 0.0
C1017 C 0.86691 0.30087 0.82355 0.0
C1018 C 0.84853 0.299 0.81632 0.0
C1019 C 0.84428 0.31346 0.82346 0.0
C1020 C 0.8578 0.32911 0.83785 0.0
H1021 H 0.88913 0.32301 0.91471 0.0
H1022 H 0.87154 0.31289 0.89011 0.0
H1023 H 0.89673 0.31721 0.88695 0.0
H1024 H 0.89465 0.31788 0.84293 0.0
H1025 H 0.87065 0.28998 0.8185 0.0
H1026 H 0.94115 0.49574 0.94783 0.0
H1027 H 0.9189 0.50296 0.92364 0.0
H1028 H 0.95916 0.56602 0.93479 0.0
H1029 H 0.98139 0.55875 0.95908 0.0
H1030 H 0.89968 0.52413 0.9397 0.0
H1031 H 0.95177 0.56159 0.85968 0.0
H1032 H 0.95485 0.54565 0.88129 0.0
H1033 H 0.96231 0.57058 0.88895 0.0
C1034 C 0.94521 0.51111 0.94495 0.0
C1035 C 0.96294 0.52674 0.95499 0.0
C1036 C 0.93255 0.51522 0.93123 0.0
C1037 C 0.93754 0.53503 0.92723 0.0
C1038 C 0.95525 0.55067 0.93737 0.0
H1039 H 0.87763 0.58456 0.84266 0.0
H1040 H 0.90088 0.58031 0.86863 0.0
C1041 C 0.96786 0.54655 0.95121 0.0
C1042 C 0.92389 0.5392 0.91293 0.0
H1043 H 0.92068 0.56053 0.85952 0.0
C1044 C 0.90424 0.53209 0.92217 0.0
C1045 C 0.93 0.54971 0.89018 0.0
C1046 C 0.95082 0.55724 0.87925 0.0
C1047 C 0.89047 0.53526 0.90926 0.0
C1048 C 0.89639 0.54538 0.88623 0.0
C1049 C 0.91618 0.55275 0.87716 0.0
C1050 C 0.88209 0.54798 0.87096 0.0
C1051 C 0.86982 0.52798 0.92058 0.0
C1052 C 0.86391 0.53121 0.86347 0.0
C1053 C 0.85052 0.53359 0.84885 0.0
C1054 C 0.85513 0.5528 0.84117 0.0
C1055 C 0.87347 0.56958 0.84853 0.0
C1056 C 0.88684 0.56717 0.86323 0.0
H1057 H 0.86992 0.52614 0.94065 0.0
H1058 H 0.86466 0.53847 0.91616 0.0
H1059 H 0.85858 0.51317 0.91344 0.0
H1060 H 0.86013 0.51624 0.86879 0.0
H1061 H 0.83646 0.52035 0.84374 0.0
H1062 H 0.42937 0.98368 0.44901 0.0
H1063 H 0.40103 0.9621 0.42266 0.0
H1064 H 0.42169 0.92074 0.42111 0.0
H1065 H 0.45038 0.9427 0.44673 0.0
H1066 H 0.41153 0.92744 0.3765 0.0
H1067 H 0.34992 0.90995 0.44302 0.0
H1068 H 0.36678 0.93626 0.43647 0.0
H1069 H 0.37629 0.92217 0.45131 0.0
C1070 C 0.42781 0.97001 0.44286 0.0
C1071 C 0.44193 0.96476 0.4497 0.0
C1072 C 0.41158 0.95762 0.42805 0.0
C1073 C 0.40905 0.93963 0.42024 0.0
C1074 C 0.42331 0.93451 0.42697 0.0
H1075 H 0.3007 0.8384 0.36412 0.0
H1076 H 0.32922 0.86228 0.3882 0.0
C1077 C 0.43962 0.94698 0.44159 0.0
C1078 C 0.39169 0.92617 0.40488 0.0
H1079 H 0.33977 0.89866 0.40317 0.0
C1080 C 0.39583 0.92114 0.38232 0.0
C1081 C 0.37121 0.91775 0.41265 0.0
C1082 C 0.36572 0.92163 0.43728 0.0
C1083 C 0.38009 0.90794 0.3673 0.0
C1084 C 0.35962 0.89995 0.37478 0.0
C1085 C 0.35547 0.90496 0.39735 0.0
C1086 C 0.34225 0.88568 0.35995 0.0
C1087 C 0.38557 0.90223 0.34393 0.0
C1088 C 0.33991 0.89098 0.33614 0.0
C1089 C 0.32377 0.87721 0.32214 0.0
C1090 C 0.3095 0.85794 0.33179 0.0
C1091 C 0.31162 0.85292 0.3559 0.0
C1092 C 0.32783 0.86663 0.36979 0.0
H1093 H 0.40131 0.90521 0.34412 0.0
H1094 H 0.37488 0.88614 0.34052 0.0
H1095 H 0.38469 0.91122 0.32858 0.0
H1096 H 0.35059 0.90575 0.32835 0.0
H1097 H 0.32271 0.88157 0.30363 0.0
H1098 H 0.44337 0.42276 0.9263 0.0
H1099 H 0.43358 0.39435 0.90054 0.0
H1100 H 0.49081 0.39905 0.91458 0.0
H1101 H 0.50058 0.42723 0.94047 0.0
H1102 H 0.45151 0.39189 0.8592 0.0
H1103 H 0.4506 0.3405 0.93105 0.0
H1104 H 0.45158 0.36328 0.93783 0.0
H1105 H 0.47441 0.36397 0.92912 0.0
C1106 C 0.45386 0.41772 0.92386 0.0
C1107 C 0.47267 0.4271 0.93559 0.0
C1108 C 0.44822 0.40147 0.90921 0.0
C1109 C 0.46128 0.39432 0.90605 0.0
C1110 C 0.48023 0.40393 0.91734 0.0
H1111 H 0.47296 0.31569 0.81421 0.0
H1112 H 0.47676 0.34211 0.83992 0.0
C1113 C 0.48582 0.42006 0.93209 0.0
C1114 C 0.4554 0.37713 0.89048 0.0
H1115 H 0.45084 0.33153 0.88995 0.0
C1116 C 0.45109 0.37858 0.866 0.0
C1117 C 0.45471 0.3597 0.89942 0.0
C1118 C 0.45786 0.35664 0.92586 0.0
C1119 C 0.44695 0.36339 0.85001 0.0
C1120 C 0.44714 0.34643 0.85878 0.0
C1121 C 0.45086 0.34469 0.88334 0.0
C1122 C 0.44455 0.33077 0.84247 0.0
C1123 C 0.44302 0.36573 0.82368 0.0
C1124 C 0.42512 0.31572 0.83542 0.0
C1125 C 0.42283 0.3004 0.82094 0.0
C1126 C 0.43996 0.29993 0.81332 0.0
C1127 C 0.45941 0.31534 0.82012 0.0
C1128 C 0.46165 0.33054 0.83466 0.0
H1129 H 0.44417 0.38021 0.81949 0.0
H1130 H 0.45409 0.3647 0.81195 0.0
H1131 H 0.42755 0.35335 0.81907 0.0
H1132 H 0.41175 0.31566 0.84145 0.0
H1133 H 0.40763 0.28867 0.81624 0.0
H1134 H 0.03314 0.47881 0.39843 0.0
H1135 H 0.05164 0.46987 0.37092 0.0
H1136 H 0.07936 0.45847 0.43213 0.0
H1137 H 0.06018 0.46644 0.45983 0.0
H1138 H 0.0924 0.48806 0.36479 0.0
H1139 H 0.05995 0.40871 0.3941 0.0
H1140 H 0.04865 0.42272 0.40286 0.0
H1141 H 0.07026 0.42541 0.41873 0.0
C1142 C 0.04283 0.47399 0.4061 0.0
C1143 C 0.04508 0.47325 0.43138 0.0
C1144 C 0.05351 0.46903 0.39032 0.0
C1145 C 0.06662 0.46319 0.39948 0.0
C1146 C 0.06897 0.46249 0.42467 0.0
H1147 H 0.15896 0.44595 0.34032 0.0
H1148 H 0.13528 0.44971 0.36574 0.0
C1149 C 0.05821 0.46734 0.44048 0.0
C1150 C 0.07868 0.4589 0.38261 0.0
H1151 H 0.09003 0.42376 0.36894 0.0
C1152 C 0.09171 0.47392 0.36551 0.0
C1153 C 0.07774 0.44043 0.38359 0.0
C1154 C 0.06325 0.42332 0.40064 0.0
C1155 C 0.10427 0.47119 0.34983 0.0
C1156 C 0.10364 0.45291 0.35118 0.0
C1157 C 0.09045 0.43777 0.36803 0.0
C1158 C 0.11714 0.44956 0.33578 0.0
C1159 C 0.11857 0.48807 0.33238 0.0
C1160 C 0.11449 0.44788 0.31061 0.0
C1161 C 0.12798 0.44572 0.29604 0.0
C1162 C 0.14437 0.4453 0.30645 0.0
C1163 C 0.14664 0.44651 0.33177 0.0
C1164 C 0.13309 0.44853 0.34631 0.0
H1165 H 0.11965 0.50234 0.33641 0.0
H1166 H 0.13404 0.49042 0.33298 0.0
H1167 H 0.113 0.48413 0.31362 0.0
H1168 H 0.10214 0.44848 0.30223 0.0
H1169 H 0.12592 0.44493 0.27658 0.0
H1170 H 0.57433 0.01893 0.95152 0.0
H1171 H 0.60258 0.03871 0.92221 0.0
H1172 H 0.57812 0.0757 0.90431 0.0
H1173 H 0.54974 0.05571 0.93329 0.0
H1174 H 0.58992 0.06326 0.86358 0.0
H1175 H 0.65083 0.09567 0.93211 0.0
H1176 H 0.63514 0.06883 0.9331 0.0
H1177 H 0.62416 0.08333 0.94028 0.0
C1178 C 0.57508 0.03128 0.9412 0.0
C1179 C 0.56005 0.03594 0.94445 0.0
C1180 C 0.5912 0.0426 0.92465 0.0
C1181 C 0.59255 0.05882 0.91134 0.0
C1182 C 0.57735 0.06328 0.91444 0.0
H1183 H 0.67295 0.15399 0.81129 0.0
H1184 H 0.64474 0.12878 0.83714 0.0
C1185 C 0.56124 0.05195 0.93094 0.0
C1186 C 0.60976 0.07121 0.89412 0.0
H1187 H 0.66118 0.10402 0.89093 0.0
C1188 C 0.60552 0.07213 0.86952 0.0
C1189 C 0.63008 0.08268 0.90196 0.0
C1190 C 0.63541 0.08278 0.92832 0.0
C1191 C 0.62107 0.08436 0.85253 0.0
C1192 C 0.64131 0.09618 0.86046 0.0
C1193 C 0.64563 0.09489 0.88494 0.0
C1194 C 0.65805 0.11085 0.84396 0.0
C1195 C 0.61572 0.08453 0.82624 0.0
C1196 C 0.67501 0.10927 0.83954 0.0
C1197 C 0.69125 0.12375 0.82488 0.0
C1198 C 0.69086 0.14017 0.81468 0.0
C1199 C 0.67377 0.14161 0.81907 0.0
C1200 C 0.65754 0.12711 0.83361 0.0
H1201 H 0.60101 0.07082 0.82203 0.0
H1202 H 0.61424 0.09763 0.82232 0.0
H1203 H 0.62778 0.08577 0.814 0.0
H1204 H 0.67574 0.0969 0.84755 0.0
H1205 H 0.70431 0.12236 0.82204 0.0
H1206 H 0.49838 0.55452 0.44093 0.0
H1207 H 0.5074 0.58402 0.4148 0.0
H1208 H 0.5701 0.61155 0.4358 0.0
H1209 H 0.56089 0.58212 0.46243 0.0
H1210 H 0.55619 0.63739 0.43682 0.0
H1211 H 0.5373 0.5991 0.34953 0.0
H1212 H 0.51658 0.58725 0.37124 0.0
H1213 H 0.53975 0.58782 0.37734 0.0
C1214 C 0.51407 0.5669 0.43983 0.0
C1215 C 0.52904 0.56617 0.45334 0.0
C1216 C 0.51924 0.58363 0.42484 0.0
C1217 C 0.5395 0.59978 0.42297 0.0
C1218 C 0.55442 0.59916 0.43682 0.0
H1219 H 0.59266 0.71198 0.33579 0.0
H1220 H 0.58847 0.68426 0.36211 0.0
C1221 C 0.54922 0.58243 0.45192 0.0
C1222 C 0.5449 0.61749 0.40704 0.0
H1223 H 0.54176 0.63162 0.34875 0.0
C1224 C 0.55328 0.6362 0.41751 0.0
C1225 C 0.54119 0.61589 0.38182 0.0
C1226 C 0.53341 0.59647 0.36925 0.0
C1227 C 0.55729 0.65321 0.40358 0.0
C1228 C 0.55288 0.6514 0.3786 0.0
C1229 C 0.54498 0.63285 0.36799 0.0
C1230 C 0.55559 0.66845 0.36331 0.0
C1231 C 0.56559 0.67288 0.41569 0.0
C1232 C 0.53847 0.66859 0.35531 0.0
C1233 C 0.54078 0.68444 0.34052 0.0
C1234 C 0.56029 0.70035 0.33322 0.0
C1235 C 0.57744 0.70012 0.34133 0.0
C1236 C 0.5751 0.68428 0.35627 0.0
H1237 H 0.56596 0.67126 0.43576 0.0
H1238 H 0.58132 0.6836 0.4088 0.0
H1239 H 0.55623 0.67941 0.41116 0.0
H1240 H 0.5233 0.65647 0.36064 0.0
H1241 H 0.52726 0.68429 0.335 0.0
H1242 H 0.44596 0.03128 0.56418 0.0
H1243 H 0.43754 0.05211 0.58733 0.0
H1244 H 0.4983 0.10293 0.57399 0.0
H1245 H 0.50671 0.08228 0.55061 0.0
H1246 H 0.45424 0.07187 0.62829 0.0
H1247 H 0.46453 0.12628 0.55465 0.0
H1248 H 0.46326 0.10322 0.5488 0.0
H1249 H 0.48664 0.12462 0.55849 0.0
C1250 C 0.45749 0.04691 0.56614 0.0
C1251 C 0.47696 0.05518 0.55544 0.0
C1252 C 0.45265 0.05881 0.5793 0.0
C1253 C 0.46716 0.07918 0.58202 0.0
C1254 C 0.48666 0.08741 0.57155 0.0
H1255 H 0.47767 0.17425 0.66661 0.0
H1256 H 0.48278 0.15217 0.64133 0.0
C1257 C 0.49147 0.07558 0.55824 0.0
C1258 C 0.4622 0.09162 0.59666 0.0
H1259 H 0.46222 0.13509 0.59511 0.0
C1260 C 0.45578 0.08558 0.62096 0.0
C1261 C 0.46417 0.10949 0.58706 0.0
C1262 C 0.46982 0.11619 0.56075 0.0
C1263 C 0.45186 0.09724 0.63609 0.0
C1264 C 0.45431 0.11531 0.62662 0.0
C1265 C 0.46046 0.12124 0.60229 0.0
C1266 C 0.45101 0.12852 0.64188 0.0
C1267 C 0.44564 0.09045 0.66227 0.0
C1268 C 0.43142 0.12255 0.65035 0.0
C1269 C 0.42844 0.13513 0.66478 0.0
C1270 C 0.44504 0.15386 0.67104 0.0
C1271 C 0.46463 0.1598 0.66237 0.0
C1272 C 0.46756 0.14728 0.64783 0.0
H1273 H 0.4478 0.078 0.66783 0.0
H1274 H 0.45453 0.10308 0.67443 0.0
H1275 H 0.42931 0.0852 0.66488 0.0
H1276 H 0.41843 0.10819 0.64573 0.0
H1277 H 0.4132 0.1301 0.6713 0.0
H1278 H 0.4484 0.5076 0.05537 0.0
H1279 H 0.41873 0.50031 0.08018 0.0
H1280 H 0.38994 0.43759 0.0657 0.0
H1281 H 0.41951 0.44504 0.04035 0.0
H1282 H 0.36391 0.45138 0.06067 0.0
H1283 H 0.40385 0.47443 0.14806 0.0
H1284 H 0.41564 0.49362 0.12447 0.0
H1285 H 0.41498 0.47056 0.12164 0.0
C1286 C 0.43571 0.49229 0.05762 0.0
C1287 C 0.43615 0.47681 0.04631 0.0
C1288 C 0.41888 0.4881 0.07187 0.0
C1289 C 0.40232 0.46835 0.0752 0.0
C1290 C 0.40264 0.45291 0.06354 0.0
H1291 H 0.28829 0.4183 0.15868 0.0
H1292 H 0.31642 0.42224 0.13357 0.0
C1293 C 0.41946 0.45712 0.04918 0.0
C1294 C 0.38448 0.46394 0.09038 0.0
H1295 H 0.37065 0.46955 0.147 0.0
C1296 C 0.36532 0.45515 0.07961 0.0
C1297 C 0.38637 0.46882 0.11512 0.0
C1298 C 0.40628 0.47719 0.12809 0.0
C1299 C 0.34812 0.45172 0.09273 0.0
C1300 C 0.35017 0.45711 0.11724 0.0
C1301 C 0.36921 0.46556 0.12813 0.0
C1302 C 0.33282 0.45458 0.13176 0.0
C1303 C 0.328 0.44291 0.08017 0.0
C1304 C 0.33285 0.47148 0.13912 0.0
C1305 C 0.31677 0.46931 0.15327 0.0
C1306 C 0.30042 0.45016 0.16056 0.0
C1307 C 0.30047 0.43324 0.1531 0.0
C1308 C 0.31654 0.43545 0.13882 0.0
H1309 H 0.32968 0.44263 0.06019 0.0
H1310 H 0.31759 0.42732 0.08725 0.0
H1311 H 0.32076 0.45157 0.084 0.0
H1312 H 0.34531 0.48637 0.1338 0.0
H1313 H 0.31709 0.48265 0.15832 0.0
H1314 H 0.97659 0.42252 0.54257 0.0
H1315 H 0.95431 0.39271 0.56876 0.0
H1316 H 0.91803 0.41764 0.58669 0.0
H1317 H 0.94038 0.44746 0.56076 0.0
H1318 H 0.9433 0.39203 0.62169 0.0
H1319 H 0.87798 0.36028 0.5591 0.0
H1320 H 0.90379 0.37825 0.54899 0.0
H1321 H 0.88944 0.38634 0.56526 0.0
C1322 C 0.96392 0.42158 0.5523 0.0
C1323 C 0.96009 0.43712 0.54987 0.0
C1324 C 0.95125 0.40465 0.56715 0.0
C1325 C 0.93449 0.40299 0.57943 0.0
C1326 C 0.9308 0.41862 0.57715 0.0
H1327 H 0.83378 0.31622 0.66976 0.0
H1328 H 0.85857 0.34464 0.64404 0.0
C1329 C 0.94353 0.43558 0.56247 0.0
C1330 C 0.92069 0.38488 0.59457 0.0
H1331 H 0.87199 0.34468 0.59826 0.0
C1332 C 0.92774 0.38155 0.61657 0.0
C1333 C 0.90046 0.37135 0.58772 0.0
C1334 C 0.89241 0.37405 0.5639 0.0
C1335 C 0.9148 0.36529 0.63239 0.0
C1336 C 0.89445 0.35183 0.62565 0.0
C1337 C 0.88757 0.35503 0.6034 0.0
C1338 C 0.8798 0.33468 0.64173 0.0
C1339 C 0.92282 0.36311 0.6565 0.0
C1340 C 0.88342 0.31954 0.64883 0.0
C1341 C 0.86937 0.30337 0.66384 0.0
C1342 C 0.85133 0.30193 0.67182 0.0
C1343 C 0.84767 0.31702 0.66437 0.0
C1344 C 0.86175 0.33321 0.64949 0.0
H1345 H 0.93676 0.37728 0.66147 0.0
H1346 H 0.91118 0.35841 0.67121 0.0
H1347 H 0.92676 0.35148 0.65539 0.0
H1348 H 0.89704 0.32016 0.64265 0.0
H1349 H 0.87273 0.29209 0.66934 0.0
H1350 H 0.53821 0.94222 0.03747 0.0
H1351 H 0.54715 0.92281 0.06443 0.0
H1352 H 0.53543 0.94731 0.12671 0.0
H1353 H 0.52553 0.96601 0.1 0.0
H1354 H 0.57685 0.93467 0.09879 0.0
H1355 H 0.49995 0.88755 0.14158 0.0
H1356 H 0.50464 0.90309 0.11457 0.0
H1357 H 0.51059 0.91393 0.14393 0.0
C1358 C 0.53731 0.94331 0.05691 0.0
C1359 C 0.53096 0.95554 0.06655 0.0
C1360 C 0.5426 0.93235 0.07227 0.0
C1361 C 0.54162 0.93337 0.09756 0.0
C1362 C 0.53589 0.946 0.10725 0.0
H1363 H 0.56414 0.87291 0.21743 0.0
H1364 H 0.56002 0.89687 0.19239 0.0
C1365 C 0.53049 0.95688 0.09192 0.0
C1366 C 0.54644 0.92107 0.11376 0.0
H1367 H 0.52624 0.88417 0.15837 0.0
C1368 C 0.56579 0.92362 0.11181 0.0
C1369 C 0.53194 0.90663 0.13068 0.0
C1370 C 0.51055 0.90245 0.13272 0.0
C1371 C 0.57107 0.91217 0.12647 0.0
C1372 C 0.55658 0.89778 0.14335 0.0
C1373 C 0.53733 0.89536 0.14549 0.0
C1374 C 0.56073 0.88442 0.15827 0.0
C1375 C 0.59211 0.91556 0.12395 0.0
C1376 C 0.5625 0.86957 0.14728 0.0
C1377 C 0.56475 0.85586 0.16149 0.0
C1378 C 0.5653 0.8568 0.18693 0.0
C1379 C 0.56396 0.87197 0.19785 0.0
C1380 C 0.56153 0.88559 0.18363 0.0
H1381 H 0.60277 0.92992 0.11398 0.0
H1382 H 0.59838 0.91557 0.14208 0.0
H1383 H 0.59124 0.90321 0.11376 0.0
H1384 H 0.56165 0.86831 0.12775 0.0
H1385 H 0.5659 0.8444 0.15259 0.0
H1386 H 0.59792 0.53581 0.54254 0.0
H1387 H 0.62532 0.54371 0.57075 0.0
H1388 H 0.58462 0.53206 0.63123 0.0
H1389 H 0.55685 0.52309 0.60328 0.0
H1390 H 0.64296 0.57239 0.60448 0.0
H1391 H 0.6065 0.4968 0.64952 0.0
H1392 H 0.59707 0.50161 0.62185 0.0
H1393 H 0.59124 0.50778 0.65063 0.0
C1394 C 0.59469 0.53465 0.56185 0.0
C1395 C 0.57509 0.52862 0.57061 0.0
C1396 C 0.61043 0.53935 0.57794 0.0
C1397 C 0.60692 0.53815 0.6031 0.0
C1398 C 0.58756 0.53268 0.61191 0.0
H1399 H 0.68686 0.55888 0.72531 0.0
H1400 H 0.65922 0.5553 0.69973 0.0
C1401 C 0.57176 0.52782 0.59585 0.0
C1402 C 0.62356 0.5426 0.62005 0.0
H1403 H 0.63709 0.52227 0.66639 0.0
C1404 C 0.64168 0.56143 0.61801 0.0
C1405 C 0.62186 0.52826 0.63769 0.0
C1406 C 0.6032 0.50742 0.63997 0.0
C1407 C 0.65814 0.56632 0.63317 0.0
C1408 C 0.65642 0.55196 0.65069 0.0
C1409 C 0.63824 0.53326 0.653 0.0
C1410 C 0.67369 0.55562 0.66597 0.0
C1411 C 0.67723 0.58679 0.63042 0.0
C1412 C 0.69089 0.55699 0.65537 0.0
C1413 C 0.70659 0.55893 0.66989 0.0
C1414 C 0.70536 0.55957 0.69526 0.0
C1415 C 0.68828 0.55861 0.70579 0.0
C1416 C 0.67248 0.55649 0.69125 0.0
H1417 H 0.67455 0.59752 0.62004 0.0
H1418 H 0.68328 0.59287 0.64848 0.0
H1419 H 0.68904 0.58562 0.62052 0.0
H1420 H 0.69195 0.55609 0.63591 0.0
H1421 H 0.71964 0.55978 0.66128 0.0
H1422 H 0.08173 0.57947 0.0575 0.0
H1423 H 0.10218 0.60766 0.08345 0.0
H1424 H 0.04906 0.60993 0.10104 0.0
H1425 H 0.02844 0.58149 0.0754 0.0
H1426 H 0.11022 0.64556 0.08075 0.0
H1427 H 0.06967 0.6082 0.16779 0.0
H1428 H 0.06576 0.59462 0.14056 0.0
H1429 H 0.05344 0.60839 0.14465 0.0
C1430 C 0.07442 0.58602 0.06684 0.0
C1431 C 0.05347 0.57822 0.06451 0.0
C1432 C 0.08611 0.60208 0.08171 0.0
C1433 C 0.0771 0.61069 0.09452 0.0
C1434 C 0.05624 0.60319 0.09186 0.0
H1435 H 0.13091 0.71283 0.18915 0.0
H1436 H 0.1081 0.68623 0.16209 0.0
C1437 C 0.04449 0.58699 0.07715 0.0
C1438 C 0.08969 0.62772 0.11031 0.0
H1439 H 0.09486 0.64277 0.16873 0.0
C1440 C 0.10686 0.64493 0.09999 0.0
C1441 C 0.08528 0.62689 0.13543 0.0
C1442 C 0.06765 0.60847 0.14785 0.0
C1443 C 0.11973 0.6613 0.11409 0.0
C1444 C 0.11536 0.66039 0.13915 0.0
C1445 C 0.09805 0.64338 0.14945 0.0
C1446 C 0.12914 0.67661 0.15518 0.0
C1447 C 0.13792 0.67948 0.10213 0.0
C1448 C 0.14837 0.67981 0.16032 0.0
C1449 C 0.16134 0.69486 0.17578 0.0
C1450 C 0.15531 0.70702 0.18634 0.0
C1451 C 0.13602 0.7038 0.1811 0.0
C1452 C 0.12297 0.6886 0.16577 0.0
H1453 H 0.13687 0.67954 0.08203 0.0
H1454 H 0.13948 0.69341 0.10869 0.0
H1455 H 0.15192 0.67961 0.10697 0.0
H1456 H 0.1533 0.67057 0.15246 0.0
H1457 H 0.17618 0.69711 0.17929 0.0
loop_
_geom_bond_atom_site_label_1
_geom_bond_atom_site_label_2
_geom_bond_distance
_geom_bond_site_symmetry_2
_ccdc_geom_bond_type
C0 C1 1.443 . S
C0 N4 1.376 1_556 S
C0 C38 1.389 . S
C1 C0 1.443 . S
C1 C2 1.340 1_556 S
C1 H41 0.951 . S
C2 C1 1.340 1_554 S
C2 C3 1.439 . S
C2 H42 0.950 . S
C3 C2 1.439 . S
C3 N4 1.374 . S
C3 C37 1.395 . S
N4 C0 1.376 1_554 S
N4 C3 1.374 . S
N4 Co5 1.959 1_655 S
Co5 N4 1.959 1_455 S
Co5 N6 2.024 1_455 S
Co5 N11 2.058 1_554 S
Co5 N16 1.966 1_554 S
Co5 N21 2.302 . S
Co5 N27 2.265 1_454 S
N6 Co5 2.024 1_655 S
N6 C7 1.376 . S
N6 C10 1.383 1_655 S
C7 N6 1.376 . S
C7 C8 1.446 . S
C7 C37 1.391 . S
C8 C7 1.446 . S
C8 C9 1.339 1_655 S
C8 H43 0.949 . S
C9 C8 1.339 1_455 S
C9 C10 1.439 . S
C9 H44 0.950 . S
C10 N6 1.383 1_455 S
C10 C9 1.439 . S
C10 C39 1.392 . S
N11 Co5 2.058 1_556 S
N11 C12 1.376 1_556 S
N11 C15 1.374 . S
C12 N11 1.376 1_554 S
C12 C13 1.443 . S
C12 C39 1.389 . S
C13 C12 1.443 . S
C13 C14 1.340 1_554 S
C13 H45 0.951 . S
C14 C13 1.340 1_556 S
C14 C15 1.439 . S
C14 H46 0.950 . S
C15 N11 1.374 . S
C15 C14 1.439 . S
C15 C40 1.395 . S
N16 Co5 1.966 1_556 S
N16 C17 1.376 . S
N16 C20 1.383 1_455 S
C17 N16 1.376 . S
C17 C18 1.446 . S
C17 C40 1.391 . S
C18 C17 1.446 . S
C18 C19 1.339 1_455 S
C18 H47 0.949 . S
C19 C18 1.339 1_655 S
C19 C20 1.439 . S
C19 H48 0.950 . S
C20 N16 1.383 1_655 S
C20 C19 1.439 . S
C20 C38 1.392 . S
N21 Co5 2.302 . S
N21 C24 1.332 . S
N21 C26 1.332 . S
C22 C23 1.386 . S
C22 C25 1.388 . S
C23 C22 1.386 . S
C23 C24 1.382 . S
C23 H49 0.950 . S
C24 N21 1.332 . S
C24 C23 1.382 . S
C24 H35 0.952 1_554 S
C25 C22 1.388 . S
C25 C26 1.382 . S
C25 H50 0.950 . S
C26 N21 1.332 . S
C26 C25 1.382 . S
C26 H36 0.948 . S
N27 Co5 2.265 1_656 S
N27 C31 1.332 . S
N27 C32 1.332 . S
C28 C29 1.388 . S
C28 C32 1.382 . S
C28 H51 0.950 . S
C29 C28 1.388 . S
C29 C30 1.386 . S
C30 C29 1.386 . S
C30 C31 1.382 . S
C30 H52 0.950 . S
C31 N27 1.332 . S
C31 C30 1.382 . S
C31 H33 0.952 1_556 S
C32 N27 1.332 . S
C32 C28 1.382 . S
C32 H34 0.948 . S
H33 C31 0.952 1_554 S
H34 C32 0.948 . S
H35 C24 0.952 1_556 S
H36 C26 0.948 . S
C37 C3 1.395 . S
C37 C7 1.391 . S
C38 C0 1.389 . S
C38 C20 1.392 . S
C39 C10 1.392 . S
C39 C12 1.389 . S
C40 C15 1.395 . S
C40 C17 1.391 . S
H41 C1 0.951 . S
H42 C2 0.950 . S
H43 C8 0.949 . S
H44 C9 0.950 . S
H45 C13 0.951 . S
H46 C14 0.950 . S
H47 C18 0.949 . S
H48 C19 0.950 . S
H49 C23 0.950 . S
H50 C25 0.950 . S
H51 C28 0.950 . S
H52 C30 0.950 . S
C53 C54 1.443 . S
C53 N57 1.376 1_545 S
C53 C91 1.389 . S
C54 C53 1.443 . S
C54 C55 1.340 1_545 S
C54 H94 0.951 . S
C55 C54 1.340 1_565 S
C55 C56 1.439 . S
C55 H95 0.950 . S
C56 C55 1.439 . S
C56 N57 1.374 . S
C56 C90 1.395 . S
N57 C53 1.376 1_565 S
N57 C56 1.374 . S
N57 Co58 2.008 1_565 S
Co58 N57 2.008 1_545 S
Co58 N59 1.995 1_545 S
Co58 N64 2.008 . S
Co58 N69 1.995 . S
Co58 N74 2.282 1_545 S
Co58 N80 2.282 . S
N59 Co58 1.995 1_565 S
N59 C60 1.376 . S
N59 C63 1.383 . S
C60 N59 1.376 . S
C60 C61 1.446 . S
C60 C90 1.391 . S
C61 C60 1.446 . S
C61 C62 1.339 . S
C61 H96 0.949 . S
C62 C61 1.339 . S
C62 C63 1.439 . S
C62 H97 0.950 . S
C63 N59 1.383 . S
C63 C62 1.439 . S
C63 C92 1.392 . S
N64 Co58 2.008 . S
N64 C65 1.376 1_545 S
N64 C68 1.374 . S
C65 N64 1.376 1_565 S
C65 C66 1.443 . S
C65 C92 1.389 . S
C66 C65 1.443 . S
C66 C67 1.340 1_565 S
C66 H98 0.951 . S
C67 C66 1.340 1_545 S
C67 C68 1.439 . S
C67 H99 0.950 . S
C68 N64 1.374 . S
C68 C67 1.439 . S
C68 C93 1.395 . S
N69 Co58 1.995 . S
N69 C70 1.376 . S
N69 C73 1.383 . S
C70 N69 1.376 . S
C70 C71 1.446 . S
C70 C93 1.391 . S
C71 C70 1.446 . S
C71 C72 1.339 . S
C71 H100 0.949 . S
C72 C71 1.339 . S
C72 C73 1.439 . S
C72 H101 0.950 . S
C73 N69 1.383 . S
C73 C72 1.439 . S
C73 C91 1.392 . S
N74 Co58 2.282 1_565 S
N74 C77 1.332 . S
N74 C79 1.332 . S
C75 C76 1.386 . S
C75 C78 1.388 . S
C76 C75 1.386 . S
C76 C77 1.382 . S
C76 H102 0.950 . S
C77 N74 1.332 . S
C77 C76 1.382 . S
C77 H88 0.952 1_565 S
C78 C75 1.388 . S
C78 C79 1.382 . S
C78 H103 0.950 . S
C79 N74 1.332 . S
C79 C78 1.382 . S
C79 H89 0.948 . S
N80 Co58 2.282 . S
N80 C84 1.332 . S
N80 C85 1.332 . S
C81 C82 1.388 . S
C81 C85 1.382 . S
C81 H104 0.950 . S
C82 C81 1.388 . S
C82 C83 1.386 . S
C83 C82 1.386 . S
C83 C84 1.382 . S
C83 H105 0.950 . S
C84 N80 1.332 . S
C84 C83 1.382 . S
C84 H86 0.952 1_545 S
C85 N80 1.332 . S
C85 C81 1.382 . S
C85 H87 0.948 . S
H86 C84 0.952 1_565 S
H87 C85 0.948 . S
H88 C77 0.952 1_545 S
H89 C79 0.948 . S
C90 C56 1.395 . S
C90 C60 1.391 . S
C91 C53 1.389 . S
C91 C73 1.392 . S
C92 C63 1.392 . S
C92 C65 1.389 . S
C93 C68 1.395 . S
C93 C70 1.391 . S
H94 C54 0.951 . S
H95 C55 0.950 . S
H96 C61 0.949 . S
H97 C62 0.950 . S
H98 C66 0.951 . S
H99 C67 0.950 . S
H100 C71 0.949 . S
H101 C72 0.950 . S
H102 C76 0.950 . S
H103 C78 0.950 . S
H104 C81 0.950 . S
H105 C83 0.950 . S
C106 C107 1.443 . S
C106 N110 1.376 . S
C106 C144 1.389 . S
C107 C106 1.443 . S
C107 C108 1.340 . S
C107 H147 0.951 . S
C108 C107 1.340 . S
C108 C109 1.439 . S
C108 H148 0.950 . S
C109 C108 1.439 . S
C109 N110 1.374 . S
C109 C143 1.395 . S
N110 C106 1.376 . S
N110 C109 1.374 . S
N110 Co111 1.987 1_556 S
Co111 N110 1.987 1_554 S
Co111 N112 1.990 1_554 S
Co111 N117 2.029 . S
Co111 N122 1.999 . S
Co111 N127 2.295 . S
Co111 N133 2.270 1_554 S
N112 Co111 1.990 1_556 S
N112 C113 1.376 . S
N112 C116 1.383 1_556 S
C113 N112 1.376 . S
C113 C114 1.446 . S
C113 C143 1.391 . S
C114 C113 1.446 . S
C114 C115 1.382 . S
C114 H149 0.949 . S
C115 C114 1.382 . S
C115 C116 1.420 1_556 S
C115 H150 0.930 1_556 S
C116 N112 1.383 1_554 S
C116 C115 1.420 1_554 S
C116 C145 1.392 . S
N117 Co111 2.029 . S
N117 C118 1.376 . S
N117 C121 1.374 . S
C118 N117 1.376 . S
C118 C119 1.443 . S
C118 C145 1.389 . S
C119 C118 1.443 . S
C119 C120 1.340 . S
C119 H151 0.951 . S
C120 C119 1.340 . S
C120 C121 1.439 . S
C120 H152 0.950 . S
C121 N117 1.374 . S
C121 C120 1.439 . S
C121 C146 1.395 . S
N122 Co111 1.999 . S
N122 C123 1.376 . S
N122 C126 1.383 1_554 S
C123 N122 1.376 . S
C123 C124 1.446 . S
C123 C146 1.391 . S
C124 C123 1.446 . S
C124 C125 1.339 . S
C124 H153 0.949 . S
C125 C124 1.339 . S
C125 C126 1.439 1_554 S
C125 H154 0.950 1_554 S
C126 N122 1.383 1_556 S
C126 C125 1.439 1_556 S
C126 C144 1.392 . S
N127 Co111 2.295 . S
N127 C130 1.332 . S
N127 C132 1.332 . S
C128 C129 1.386 . S
C128 C131 1.388 . S
C129 C128 1.386 . S
C129 C130 1.382 . S
C129 H155 0.950 . S
C130 N127 1.332 . S
C130 C129 1.382 . S
C130 H141 0.952 . S
C131 C128 1.388 . S
C131 C132 1.382 . S
C131 H156 0.950 . S
C132 N127 1.332 . S
C132 C131 1.382 . S
C132 H142 0.948 . S
N133 Co111 2.270 1_556 S
N133 C137 1.332 . S
N133 C138 1.332 . S
C134 C135 1.388 . S
C134 C138 1.382 . S
C134 H157 0.950 . S
C135 C134 1.388 . S
C135 C136 1.386 . S
C136 C135 1.386 . S
C136 C137 1.382 . S
C136 H158 0.950 . S
C137 N133 1.332 . S
C137 C136 1.382 . S
C137 H139 0.952 . S
C138 N133 1.332 . S
C138 C134 1.382 . S
C138 H140 0.986 . S
H139 C137 0.952 . S
H140 C138 0.986 . S
H141 C130 0.952 . S
H142 C132 0.948 . S
C143 C109 1.395 . S
C143 C113 1.391 . S
C144 C106 1.389 . S
C144 C126 1.392 . S
C145 C116 1.392 . S
C145 C118 1.389 . S
C146 C121 1.395 . S
C146 C123 1.391 . S
H147 C107 0.951 . S
H148 C108 0.950 . S
H149 C114 0.949 . S
H150 C115 0.930 1_554 S
H151 C119 0.951 . S
H152 C120 0.950 . S
H153 C124 0.949 . S
H154 C125 0.950 1_556 S
H155 C129 0.950 . S
H156 C131 0.950 . S
H157 C134 0.950 . S
H158 C136 0.950 . S
C159 C160 1.443 . S
C159 N163 1.376 . S
C159 C197 1.389 . S
C160 C159 1.443 . S
C160 C161 1.340 . S
C160 H200 0.951 . S
C161 C160 1.340 . S
C161 C162 1.439 . S
C161 H201 0.950 . S
C162 C161 1.439 . S
C162 N163 1.374 . S
C162 C196 1.395 . S
N163 C159 1.376 . S
N163 C162 1.374 . S
N163 Co164 1.976 1_655 S
Co164 N163 1.976 1_455 S
Co164 N165 1.974 1_455 S
Co164 N170 2.041 . S
Co164 N175 2.017 . S
Co164 N180 2.323 . S
Co164 N186 2.242 1_455 S
N165 Co164 1.974 1_655 S
N165 C166 1.376 . S
N165 C169 1.383 1_655 S
C166 N165 1.376 . S
C166 C167 1.446 . S
C166 C196 1.391 . S
C167 C166 1.446 . S
C167 C168 1.339 1_655 S
C167 H202 0.949 . S
C168 C167 1.339 1_455 S
C168 C169 1.439 . S
C168 H203 0.950 . S
C169 N165 1.383 1_455 S
C169 C168 1.439 . S
C169 C198 1.392 . S
N170 Co164 2.041 . S
N170 C171 1.376 . S
N170 C174 1.374 . S
C171 N170 1.376 . S
C171 C172 1.443 . S
C171 C198 1.389 . S
C172 C171 1.443 . S
C172 C173 1.340 . S
C172 H204 0.951 . S
C173 C172 1.340 . S
C173 C174 1.439 . S
C173 H205 0.950 . S
C174 N170 1.374 . S
C174 C173 1.439 . S
C174 C199 1.395 . S
N175 Co164 2.017 . S
N175 C176 1.376 . S
N175 C179 1.383 1_455 S
C176 N175 1.376 . S
C176 C177 1.446 . S
C176 C199 1.391 . S
C177 C176 1.446 . S
C177 C178 1.339 1_455 S
C177 H206 0.949 . S
C178 C177 1.339 1_655 S
C178 C179 1.439 . S
C178 H207 0.950 . S
C179 N175 1.383 1_655 S
C179 C178 1.439 . S
C179 C197 1.392 . S
N180 Co164 2.323 . S
N180 C183 1.332 . S
N180 C185 1.332 . S
C181 C182 1.386 . S
C181 C184 1.388 . S
C182 C181 1.386 . S
C182 C183 1.382 . S
C182 H208 0.950 . S
C183 N180 1.332 . S
C183 C182 1.382 . S
C183 H194 0.952 . S
C184 C181 1.388 . S
C184 C185 1.382 . S
C184 H209 0.950 . S
C185 N180 1.332 . S
C185 C184 1.382 . S
C185 H195 0.948 . S
N186 Co164 2.242 1_655 S
N186 C190 1.332 . S
N186 C191 1.332 . S
C187 C188 1.388 . S
C187 C191 1.382 . S
C187 H210 0.950 . S
C188 C187 1.388 . S
C188 C189 1.386 . S
C189 C188 1.386 . S
C189 C190 1.382 . S
C189 H211 0.950 . S
C190 N186 1.332 . S
C190 C189 1.382 . S
C190 H192 0.952 . S
C191 N186 1.332 . S
C191 C187 1.382 . S
C191 H193 0.948 . S
H192 C190 0.952 . S
H193 C191 0.948 . S
H194 C183 0.952 . S
H195 C185 0.948 . S
C196 C162 1.395 . S
C196 C166 1.391 . S
C197 C159 1.389 . S
C197 C179 1.392 . S
C198 C169 1.392 . S
C198 C171 1.389 . S
C199 C174 1.395 . S
C199 C176 1.391 . S
H200 C160 0.951 . S
H201 C161 0.950 . S
H202 C167 0.949 . S
H203 C168 0.950 . S
H204 C172 0.951 . S
H205 C173 0.950 . S
H206 C177 0.949 . S
H207 C178 0.950 . S
H208 C182 0.950 . S
H209 C184 0.950 . S
H210 C187 0.950 . S
H211 C189 0.950 . S
C212 C213 1.443 . S
C212 N216 1.376 1_565 S
C212 C250 1.389 . S
C213 C212 1.443 . S
C213 C214 1.340 1_565 S
C213 H253 0.951 . S
C214 C213 1.340 1_545 S
C214 C215 1.439 . S
C214 H254 0.950 . S
C215 C214 1.439 . S
C215 N216 1.374 . S
C215 C249 1.395 . S
N216 C212 1.376 1_545 S
N216 C215 1.374 . S
N216 Co217 2.029 . S
Co217 N216 2.029 . S
Co217 N218 1.998 . S
Co217 N223 1.988 1_544 S
Co217 N228 1.991 1_544 S
Co217 N233 2.272 1_554 S
Co217 N239 2.293 1_545 S
N218 Co217 1.998 . S
N218 C219 1.376 . S
N218 C222 1.383 1_554 S
C219 N218 1.376 . S
C219 C220 1.446 . S
C219 C249 1.391 . S
C220 C219 1.446 . S
C220 C221 1.339 1_554 S
C220 H255 0.949 . S
C221 C220 1.339 1_556 S
C221 C222 1.439 . S
C221 H256 0.950 . S
C222 N218 1.383 1_556 S
C222 C221 1.439 . S
C222 C251 1.392 . S
N223 Co217 1.988 1_566 S
N223 C224 1.376 1_565 S
N223 C227 1.374 . S
C224 N223 1.376 1_545 S
C224 C225 1.443 . S
C224 C251 1.389 . S
C225 C224 1.443 . S
C225 C226 1.340 1_545 S
C225 H257 0.951 . S
C226 C225 1.340 1_565 S
C226 C227 1.439 . S
C226 H258 0.950 . S
C227 N223 1.374 . S
C227 C226 1.439 . S
C227 C252 1.395 . S
N228 Co217 1.991 1_566 S
N228 C229 1.376 . S
N228 C232 1.383 1_556 S
C229 N228 1.376 . S
C229 C230 1.446 . S
C229 C252 1.391 . S
C230 C229 1.446 . S
C230 C231 1.339 1_556 S
C230 H259 0.949 . S
C231 C230 1.339 1_554 S
C231 C232 1.439 . S
C231 H260 0.950 . S
C232 N228 1.383 1_554 S
C232 C231 1.439 . S
C232 C250 1.392 . S
N233 Co217 2.272 1_556 S
N233 C236 1.332 . S
N233 C238 1.332 . S
C234 C235 1.386 . S
C234 C237 1.388 . S
C235 C234 1.386 . S
C235 C236 1.382 . S
C235 H261 0.950 . S
C236 N233 1.332 . S
C236 C235 1.382 . S
C236 H247 0.952 1_545 S
C237 C234 1.388 . S
C237 C238 1.382 . S
C237 H262 0.950 . S
C238 N233 1.332 . S
C238 C237 1.382 . S
C238 H248 0.948 . S
N239 Co217 2.293 1_565 S
N239 C243 1.332 . S
N239 C244 1.332 . S
C240 C241 1.388 . S
C240 C244 1.382 . S
C240 H263 0.950 . S
C241 C240 1.388 . S
C241 C242 1.386 . S
C242 C241 1.386 . S
C242 C243 1.382 . S
C242 H264 0.950 . S
C243 N239 1.332 . S
C243 C242 1.382 . S
C243 H245 0.952 1_565 S
C244 N239 1.332 . S
C244 C240 1.382 . S
C244 H246 0.948 . S
H245 C243 0.952 1_545 S
H246 C244 0.948 . S
H247 C236 0.952 1_565 S
H248 C238 0.948 . S
C249 C215 1.395 . S
C249 C219 1.391 . S
C250 C212 1.389 . S
C250 C232 1.392 . S
C251 C222 1.392 . S
C251 C224 1.389 . S
C252 C227 1.395 . S
C252 C229 1.391 . S
H253 C213 0.951 . S
H254 C214 0.950 . S
H255 C220 0.949 . S
H256 C221 0.950 . S
H257 C225 0.951 . S
H258 C226 0.950 . S
H259 C230 0.949 . S
H260 C231 0.950 . S
H261 C235 0.950 . S
H262 C237 0.950 . S
H263 C240 0.950 . S
H264 C242 0.950 . S
C265 C266 1.443 . S
C265 N269 1.376 . S
C265 C303 1.389 . S
C266 C265 1.443 . S
C266 C267 1.340 . S
C266 H306 0.951 . S
C267 C266 1.340 . S
C267 C268 1.439 . S
C267 H307 0.950 . S
C268 C267 1.439 . S
C268 N269 1.374 . S
C268 C302 1.395 . S
N269 C265 1.376 . S
N269 C268 1.374 . S
N269 Co270 2.008 . S
Co270 N269 2.008 . S
Co270 N271 1.995 . S
Co270 N276 2.008 . S
Co270 N281 1.995 . S
Co270 N286 2.282 . S
Co270 N292 2.282 . S
N271 Co270 1.995 . S
N271 C272 1.376 . S
N271 C275 1.383 . S
C272 N271 1.376 . S
C272 C273 1.446 . S
C272 C302 1.391 . S
C273 C272 1.446 . S
C273 C274 1.339 . S
C273 H308 0.949 . S
C274 C273 1.339 . S
C274 C275 1.439 . S
C274 H309 0.950 . S
C275 N271 1.383 . S
C275 C274 1.439 . S
C275 C304 1.392 . S
N276 Co270 2.008 . S
N276 C277 1.376 . S
N276 C280 1.374 . S
C277 N276 1.376 . S
C277 C278 1.443 . S
C277 C304 1.389 . S
C278 C277 1.443 . S
C278 C279 1.340 . S
C278 H310 0.951 . S
C279 C278 1.340 . S
C279 C280 1.439 . S
C279 H311 0.950 . S
C280 N276 1.374 . S
C280 C279 1.439 . S
C280 C305 1.395 . S
N281 Co270 1.995 . S
N281 C282 1.376 . S
N281 C285 1.383 . S
C282 N281 1.376 . S
C282 C283 1.446 . S
C282 C305 1.391 . S
C283 C282 1.446 . S
C283 C284 1.339 . S
C283 H312 0.949 . S
C284 C283 1.339 . S
C284 C285 1.439 . S
C284 H313 0.950 . S
C285 N281 1.383 . S
C285 C284 1.439 . S
C285 C303 1.392 . S
N286 Co270 2.282 . S
N286 C289 1.332 . S
N286 C291 1.332 . S
C287 C288 1.386 . S
C287 C290 1.388 . S
C288 C287 1.386 . S
C288 C289 1.382 . S
C288 H314 0.950 . S
C289 N286 1.332 . S
C289 C288 1.382 . S
C289 H300 0.952 . S
C290 C287 1.388 . S
C290 C291 1.382 . S
C290 H315 0.950 . S
C291 N286 1.332 . S
C291 C290 1.382 . S
C291 H301 0.948 . S
N292 Co270 2.282 . S
N292 C296 1.332 . S
N292 C297 1.332 . S
C293 C294 1.388 . S
C293 C297 1.382 . S
C293 H316 0.950 . S
C294 C293 1.388 . S
C294 C295 1.386 . S
C295 C294 1.386 . S
C295 C296 1.382 . S
C295 H317 0.950 . S
C296 N292 1.332 . S
C296 C295 1.382 . S
C296 H298 0.952 . S
C297 N292 1.332 . S
C297 C293 1.382 . S
C297 H299 0.948 . S
H298 C296 0.952 . S
H299 C297 0.948 . S
H300 C289 0.952 . S
H301 C291 0.948 . S
C302 C268 1.395 . S
C302 C272 1.391 . S
C303 C265 1.389 . S
C303 C285 1.392 . S
C304 C275 1.392 . S
C304 C277 1.389 . S
C305 C280 1.395 . S
C305 C282 1.391 . S
H306 C266 0.951 . S
H307 C267 0.950 . S
H308 C273 0.949 . S
H309 C274 0.950 . S
H310 C278 0.951 . S
H311 C279 0.950 . S
H312 C283 0.949 . S
H313 C284 0.950 . S
H314 C288 0.950 . S
H315 C290 0.950 . S
H316 C293 0.950 . S
H317 C295 0.950 . S
C318 C319 1.384 . S
C318 C320 1.384 . S
C318 H346 0.931 . S
C319 C318 1.384 . S
C319 C322 1.382 . S
C320 C318 1.384 . S
C320 C321 1.381 . S
C320 H347 0.930 . S
C321 C320 1.381 . S
C321 C323 1.381 . S
C321 C324 1.487 . S
C322 C319 1.382 . S
C322 C323 1.387 . S
C322 H348 0.930 . S
C323 C321 1.381 . S
C323 C322 1.387 . S
C323 H349 0.931 . S
C324 C321 1.487 . S
C324 C331 1.399 . S
C324 N362 1.343 . S
C325 C326 1.384 . S
C325 C327 1.384 . S
C325 H350 0.931 . S
C326 C325 1.384 . S
C326 C329 1.382 . S
C327 C325 1.384 . S
C327 C328 1.381 . S
C327 H351 0.930 . S
C328 C327 1.381 . S
C328 C330 1.381 . S
C328 C331 1.487 . S
C329 C326 1.382 . S
C329 C330 1.387 . S
C329 H352 0.930 . S
C330 C328 1.381 . S
C330 C329 1.387 . S
C330 H353 0.931 . S
C331 C324 1.399 . S
C331 C328 1.487 . S
C331 N363 1.343 . S
C332 C333 1.384 . S
C332 C334 1.384 . S
C332 H354 0.931 . S
C333 C332 1.384 . S
C333 C336 1.382 . S
C334 C332 1.384 . S
C334 C335 1.381 . S
C334 H355 0.930 . S
C335 C334 1.381 . S
C335 C337 1.381 . S
C335 C338 1.487 . S
C336 C333 1.382 . S
C336 C337 1.387 . S
C336 H356 0.930 . S
C337 C335 1.381 . S
C337 C336 1.387 . S
C337 H357 0.931 . S
C338 C335 1.487 . S
C338 C345 1.399 . S
C338 N363 1.343 . S
C339 C340 1.384 . S
C339 C341 1.384 . S
C339 H358 0.931 . S
C340 C339 1.384 . S
C340 C343 1.382 . S
C341 C339 1.384 . S
C341 C342 1.381 . S
C341 H359 0.930 . S
C342 C341 1.381 . S
C342 C344 1.381 . S
C342 C345 1.487 . S
C343 C340 1.382 . S
C343 C344 1.387 . S
C343 H360 0.930 . S
C344 C342 1.381 . S
C344 C343 1.387 . S
C344 H361 0.931 . S
C345 C338 1.399 . S
C345 C342 1.487 . S
C345 N362 1.343 . S
H346 C318 0.931 . S
H347 C320 0.930 . S
H348 C322 0.930 . S
H349 C323 0.931 . S
H350 C325 0.931 . S
H351 C327 0.930 . S
H352 C329 0.930 . S
H353 C330 0.931 . S
H354 C332 0.931 . S
H355 C334 0.930 . S
H356 C336 0.930 . S
H357 C337 0.931 . S
H358 C339 0.931 . S
H359 C341 0.930 . S
H360 C343 0.930 . S
H361 C344 0.931 . S
N362 C324 1.343 . S
N362 C345 1.343 . S
N363 C331 1.343 . S
N363 C338 1.343 . S
C364 C365 1.384 . S
C364 C366 1.384 . S
C364 H392 0.931 . S
C365 C364 1.384 . S
C365 C368 1.382 . S
C366 C364 1.384 . S
C366 C367 1.381 . S
C366 H393 0.930 . S
C367 C366 1.381 . S
C367 C369 1.381 . S
C367 C370 1.487 . S
C368 C365 1.382 . S
C368 C369 1.387 . S
C368 H394 0.930 . S
C369 C367 1.381 . S
C369 C368 1.387 . S
C369 H395 0.931 . S
C370 C367 1.487 . S
C370 C377 1.399 . S
C370 N408 1.343 . S
C371 C372 1.384 . S
C371 C373 1.384 . S
C371 H396 0.931 . S
C372 C371 1.384 . S
C372 C375 1.382 . S
C373 C371 1.384 . S
C373 C374 1.381 . S
C373 H397 0.930 . S
C374 C373 1.381 . S
C374 C376 1.381 . S
C374 C377 1.487 . S
C375 C372 1.382 . S
C375 C376 1.387 . S
C375 H398 0.930 . S
C376 C374 1.381 . S
C376 C375 1.387 . S
C376 H399 0.931 . S
C377 C370 1.399 . S
C377 C374 1.487 . S
C377 N409 1.343 . S
C378 C379 1.384 . S
C378 C380 1.384 . S
C378 H400 0.931 . S
C379 C378 1.384 . S
C379 C382 1.382 . S
C380 C378 1.384 . S
C380 C381 1.381 . S
C380 H401 0.930 . S
C381 C380 1.381 . S
C381 C383 1.381 . S
C381 C384 1.487 . S
C382 C379 1.382 . S
C382 C383 1.387 . S
C382 H402 0.930 . S
C383 C381 1.381 . S
C383 C382 1.387 . S
C383 H403 0.931 . S
C384 C381 1.487 . S
C384 C391 1.399 . S
C384 N409 1.343 . S
C385 C386 1.384 . S
C385 C387 1.384 . S
C385 H404 0.931 . S
C386 C385 1.384 . S
C386 C389 1.382 . S
C387 C385 1.384 . S
C387 C388 1.381 . S
C387 H405 0.930 . S
C388 C387 1.381 . S
C388 C390 1.381 . S
C388 C391 1.487 . S
C389 C386 1.382 . S
C389 C390 1.387 . S
C389 H406 0.930 . S
C390 C388 1.381 . S
C390 C389 1.387 . S
C390 H407 0.931 . S
C391 C384 1.399 . S
C391 C388 1.487 . S
C391 N408 1.343 . S
H392 C364 0.931 . S
H393 C366 0.930 . S
H394 C368 0.930 . S
H395 C369 0.931 . S
H396 C371 0.931 . S
H397 C373 0.930 . S
H398 C375 0.930 . S
H399 C376 0.931 . S
H400 C378 0.931 . S
H401 C380 0.930 . S
H402 C382 0.930 . S
H403 C383 0.931 . S
H404 C385 0.931 . S
H405 C387 0.930 . S
H406 C389 0.930 . S
H407 C390 0.931 . S
N408 C370 1.343 . S
N408 C391 1.343 . S
N409 C377 1.343 . S
N409 C384 1.343 . S
C410 C411 1.384 . S
C410 C412 1.384 . S
C410 H438 0.931 . S
C411 C410 1.384 . S
C411 C414 1.382 . S
C412 C410 1.384 . S
C412 C413 1.381 . S
C412 H439 0.930 . S
C413 C412 1.381 . S
C413 C415 1.381 . S
C413 C416 1.487 . S
C414 C411 1.382 . S
C414 C415 1.387 . S
C414 H440 0.930 . S
C415 C413 1.381 . S
C415 C414 1.387 . S
C415 H441 0.931 . S
C416 C413 1.487 . S
C416 C423 1.399 . S
C416 N454 1.343 . S
C417 C418 1.384 . S
C417 C419 1.384 . S
C417 H442 0.931 . S
C418 C417 1.384 . S
C418 C421 1.382 . S
C419 C417 1.384 . S
C419 C420 1.381 . S
C419 H443 0.930 . S
C420 C419 1.381 . S
C420 C422 1.381 . S
C420 C423 1.487 . S
C421 C418 1.382 . S
C421 C422 1.387 . S
C421 H444 0.930 . S
C422 C420 1.381 . S
C422 C421 1.387 . S
C422 H445 0.931 . S
C423 C416 1.399 . S
C423 C420 1.487 . S
C423 N455 1.343 . S
C424 C425 1.384 . S
C424 C426 1.384 . S
C424 H446 0.931 . S
C425 C424 1.384 . S
C425 C428 1.382 . S
C426 C424 1.384 . S
C426 C427 1.381 . S
C426 H447 0.930 . S
C427 C426 1.381 . S
C427 C429 1.381 . S
C427 C430 1.487 . S
C428 C425 1.382 . S
C428 C429 1.387 . S
C428 H448 0.930 . S
C429 C427 1.381 . S
C429 C428 1.387 . S
C429 H449 0.931 . S
C430 C427 1.487 . S
C430 C437 1.399 . S
C430 N455 1.343 . S
C431 C432 1.384 . S
C431 C433 1.384 . S
C431 H450 0.931 . S
C432 C431 1.384 . S
C432 C435 1.382 . S
C433 C431 1.384 . S
C433 C434 1.381 . S
C433 H451 0.930 . S
C434 C433 1.381 . S
C434 C436 1.381 . S
C434 C437 1.487 . S
C435 C432 1.382 . S
C435 C436 1.387 . S
C435 H452 0.930 . S
C436 C434 1.381 . S
C436 C435 1.387 . S
C436 H453 0.931 . S
C437 C430 1.399 . S
C437 C434 1.487 . S
C437 N454 1.343 . S
H438 C410 0.931 . S
H439 C412 0.930 . S
H440 C414 0.930 . S
H441 C415 0.931 . S
H442 C417 0.931 . S
H443 C419 0.930 . S
H444 C421 0.930 . S
H445 C422 0.931 . S
H446 C424 0.931 . S
H447 C426 0.930 . S
H448 C428 0.930 . S
H449 C429 0.931 . S
H450 C431 0.931 . S
H451 C433 0.930 . S
H452 C435 0.930 . S
H453 C436 0.931 . S
N454 C416 1.343 . S
N454 C437 1.343 . S
N455 C423 1.343 . S
N455 C430 1.343 . S
C456 C457 1.384 . S
C456 C458 1.384 . S
C456 H484 0.931 . S
C457 C456 1.384 . S
C457 C460 1.382 . S
C458 C456 1.384 . S
C458 C459 1.381 . S
C458 H485 0.930 . S
C459 C458 1.381 . S
C459 C461 1.381 . S
C459 C462 1.487 . S
C460 C457 1.382 . S
C460 C461 1.387 . S
C460 H486 0.930 . S
C461 C459 1.381 . S
C461 C460 1.387 . S
C461 H487 0.931 . S
C462 C459 1.487 . S
C462 C469 1.399 . S
C462 N500 1.343 . S
C463 C464 1.384 . S
C463 C465 1.384 . S
C463 H488 0.931 . S
C464 C463 1.384 . S
C464 C467 1.382 . S
C465 C463 1.384 . S
C465 C466 1.381 . S
C465 H489 0.930 . S
C466 C465 1.381 . S
C466 C468 1.381 . S
C466 C469 1.487 . S
C467 C464 1.382 . S
C467 C468 1.387 . S
C467 H490 0.930 . S
C468 C466 1.381 . S
C468 C467 1.387 . S
C468 H491 0.931 . S
C469 C462 1.399 . S
C469 C466 1.487 . S
C469 N501 1.343 . S
C470 C471 1.384 . S
C470 C472 1.384 . S
C470 H492 0.931 . S
C471 C470 1.384 . S
C471 C474 1.382 . S
C472 C470 1.384 . S
C472 C473 1.381 . S
C472 H493 0.930 . S
C473 C472 1.381 . S
C473 C475 1.381 . S
C473 C476 1.487 . S
C474 C471 1.382 . S
C474 C475 1.387 . S
C474 H494 0.930 . S
C475 C473 1.381 . S
C475 C474 1.387 . S
C475 H495 0.931 . S
C476 C473 1.487 . S
C476 C483 1.399 . S
C476 N501 1.343 . S
C477 C478 1.384 . S
C477 C479 1.384 . S
C477 H496 0.931 . S
C478 C477 1.384 . S
C478 C481 1.382 . S
C479 C477 1.384 . S
C479 C480 1.381 . S
C479 H497 0.930 . S
C480 C479 1.381 . S
C480 C482 1.381 . S
C480 C483 1.487 . S
C481 C478 1.382 . S
C481 C482 1.387 . S
C481 H498 0.930 . S
C482 C480 1.381 . S
C482 C481 1.387 . S
C482 H499 0.931 . S
C483 C476 1.399 . S
C483 C480 1.487 . S
C483 N500 1.343 . S
H484 C456 0.931 . S
H485 C458 0.930 . S
H486 C460 0.930 . S
H487 C461 0.931 . S
H488 C463 0.931 . S
H489 C465 0.930 . S
H490 C467 0.930 . S
H491 C468 0.931 . S
H492 C470 0.931 . S
H493 C472 0.930 . S
H494 C474 0.930 . S
H495 C475 0.931 . S
H496 C477 0.931 . S
H497 C479 0.930 . S
H498 C481 0.930 . S
H499 C482 0.931 . S
N500 C462 1.343 . S
N500 C483 1.343 . S
N501 C469 1.343 . S
N501 C476 1.343 . S
C502 C503 1.384 . S
C502 C504 1.384 . S
C502 H530 0.931 . S
C503 C502 1.384 . S
C503 C506 1.382 . S
C504 C502 1.384 . S
C504 C505 1.381 . S
C504 H531 0.930 . S
C505 C504 1.381 . S
C505 C507 1.381 . S
C505 C508 1.487 . S
C506 C503 1.382 . S
C506 C507 1.387 . S
C506 H532 0.930 . S
C507 C505 1.381 . S
C507 C506 1.387 . S
C507 H533 0.931 . S
C508 C505 1.487 . S
C508 C515 1.399 . S
C508 N546 1.343 . S
C509 C510 1.384 . S
C509 C511 1.384 . S
C509 H534 0.931 . S
C510 C509 1.384 . S
C510 C513 1.382 . S
C511 C509 1.384 . S
C511 C512 1.381 . S
C511 H535 0.930 . S
C512 C511 1.381 . S
C512 C514 1.381 . S
C512 C515 1.487 . S
C513 C510 1.382 . S
C513 C514 1.387 . S
C513 H536 0.930 . S
C514 C512 1.381 . S
C514 C513 1.387 . S
C514 H537 0.931 . S
C515 C508 1.399 . S
C515 C512 1.487 . S
C515 N547 1.343 . S
C516 C517 1.384 . S
C516 C518 1.384 . S
C516 H538 0.931 . S
C517 C516 1.384 . S
C517 C520 1.382 . S
C518 C516 1.384 . S
C518 C519 1.381 . S
C518 H539 0.930 . S
C519 C518 1.381 . S
C519 C521 1.381 . S
C519 C522 1.487 . S
C520 C517 1.382 . S
C520 C521 1.387 . S
C520 H540 0.930 . S
C521 C519 1.381 . S
C521 C520 1.387 . S
C521 H541 0.931 . S
C522 C519 1.487 . S
C522 C529 1.399 . S
C522 N547 1.343 . S
C523 C524 1.384 . S
C523 C525 1.384 . S
C523 H542 0.931 . S
C524 C523 1.384 . S
C524 C527 1.382 . S
C525 C523 1.384 . S
C525 C526 1.381 . S
C525 H543 0.930 . S
C526 C525 1.381 . S
C526 C528 1.381 . S
C526 C529 1.487 . S
C527 C524 1.382 . S
C527 C528 1.387 . S
C527 H544 0.930 . S
C528 C526 1.381 . S
C528 C527 1.387 . S
C528 H545 0.931 . S
C529 C522 1.399 . S
C529 C526 1.487 . S
C529 N546 1.343 . S
H530 C502 0.931 . S
H531 C504 0.930 . S
H532 C506 0.930 . S
H533 C507 0.931 . S
H534 C509 0.931 . S
H535 C511 0.930 . S
H536 C513 0.930 . S
H537 C514 0.931 . S
H538 C516 0.931 . S
H539 C518 0.930 . S
H540 C520 0.930 . S
H541 C521 0.931 . S
H542 C523 0.931 . S
H543 C525 0.930 . S
H544 C527 0.930 . S
H545 C528 0.931 . S
N546 C508 1.343 . S
N546 C529 1.343 . S
N547 C515 1.343 . S
N547 C522 1.343 . S
C548 C549 1.384 . S
C548 C550 1.384 . S
C548 H576 0.931 . S
C549 C548 1.384 . S
C549 C552 1.382 . S
C550 C548 1.384 . S
C550 C551 1.381 . S
C550 H577 0.930 . S
C551 C550 1.381 . S
C551 C553 1.381 . S
C551 C554 1.487 . S
C552 C549 1.382 . S
C552 C553 1.387 . S
C552 H578 0.930 . S
C553 C551 1.381 . S
C553 C552 1.387 . S
C553 H579 0.931 . S
C554 C551 1.487 . S
C554 C561 1.399 . S
C554 N592 1.343 . S
C555 C556 1.384 . S
C555 C557 1.384 . S
C555 H580 0.931 . S
C556 C555 1.384 . S
C556 C559 1.382 . S
C557 C555 1.384 . S
C557 C558 1.381 . S
C557 H581 0.930 . S
C558 C557 1.381 . S
C558 C560 1.381 . S
C558 C561 1.487 . S
C559 C556 1.382 . S
C559 C560 1.387 . S
C559 H582 0.930 . S
C560 C558 1.381 . S
C560 C559 1.387 . S
C560 H583 0.931 . S
C561 C554 1.399 . S
C561 C558 1.487 . S
C561 N593 1.343 . S
C562 C563 1.384 . S
C562 C564 1.384 . S
C562 H584 0.931 . S
C563 C562 1.384 . S
C563 C566 1.382 . S
C564 C562 1.384 . S
C564 C565 1.381 . S
C564 H585 0.930 . S
C565 C564 1.381 . S
C565 C567 1.381 . S
C565 C568 1.487 . S
C566 C563 1.382 . S
C566 C567 1.387 . S
C566 H586 0.930 . S
C567 C565 1.381 . S
C567 C566 1.387 . S
C567 H587 0.931 . S
C568 C565 1.487 . S
C568 C575 1.399 . S
C568 N593 1.343 . S
C569 C570 1.384 . S
C569 C571 1.384 . S
C569 H588 0.931 . S
C570 C569 1.384 . S
C570 C573 1.382 . S
C571 C569 1.384 . S
C571 C572 1.381 . S
C571 H589 0.930 . S
C572 C571 1.381 . S
C572 C574 1.381 . S
C572 C575 1.487 . S
C573 C570 1.382 . S
C573 C574 1.387 . S
C573 H590 0.930 . S
C574 C572 1.381 . S
C574 C573 1.387 . S
C574 H591 0.931 . S
C575 C568 1.399 . S
C575 C572 1.487 . S
C575 N592 1.343 . S
H576 C548 0.931 . S
H577 C550 0.930 . S
H578 C552 0.930 . S
H579 C553 0.931 . S
H580 C555 0.931 . S
H581 C557 0.930 . S
H582 C559 0.930 . S
H583 C560 0.931 . S
H584 C562 0.931 . S
H585 C564 0.930 . S
H586 C566 0.930 . S
H587 C567 0.931 . S
H588 C569 0.931 . S
H589 C571 0.930 . S
H590 C573 0.930 . S
H591 C574 0.931 . S
N592 C554 1.343 . S
N592 C575 1.343 . S
N593 C561 1.343 . S
N593 C568 1.343 . S
H594 C602 0.929 . S
H595 C604 0.930 . S
H596 C606 0.930 . S
H597 C609 0.929 . S
H598 C612 0.930 . S
H599 C614 0.960 . S
H600 C614 0.960 . S
H601 C614 0.960 . S
C602 H594 0.929 . S
C602 C603 1.377 . S
C602 C604 1.384 . S
C603 C602 1.377 . S
C603 C609 1.390 . S
C604 H595 0.930 . S
C604 C602 1.384 . S
C604 C605 1.372 . S
C605 C604 1.372 . S
C605 C606 1.400 . S
C605 C610 1.490 . S
C606 H596 0.930 . S
C606 C605 1.400 . S
C606 C609 1.386 . S
H607 C623 0.930 . S
H608 C624 0.931 . S
C609 H597 0.929 . S
C609 C603 1.390 . S
C609 C606 1.386 . S
C610 C605 1.490 . S
C610 C612 1.395 . S
C610 C613 1.403 . S
H611 C617 0.930 . S
C612 H598 0.930 . S
C612 C610 1.395 . S
C612 C615 1.403 . S
C613 C610 1.403 . S
C613 C614 1.524 . S
C613 C617 1.400 . S
C614 H599 0.960 . S
C614 H600 0.960 . S
C614 H601 0.960 . S
C614 C613 1.524 . S
C615 C612 1.403 . S
C615 C616 1.392 . S
C615 C619 1.495 . S
C616 C615 1.392 . S
C616 C617 1.385 . S
C616 C618 1.478 . S
C617 H611 0.930 . S
C617 C613 1.400 . S
C617 C616 1.385 . S
C618 C616 1.478 . S
C618 C620 1.381 . S
C618 C624 1.383 . S
C619 C615 1.495 . S
C619 H625 0.959 . S
C619 H626 0.961 . S
C619 H627 0.960 . S
C620 C618 1.381 . S
C620 C621 1.394 . S
C620 H628 0.930 . S
C621 C620 1.394 . S
C621 C622 1.383 . S
C621 H629 0.929 . S
C622 C621 1.383 . S
C622 C623 1.377 . S
C623 H607 0.930 . S
C623 C622 1.377 . S
C623 C624 1.379 . S
C624 H608 0.931 . S
C624 C618 1.383 . S
C624 C623 1.379 . S
H625 C619 0.959 . S
H626 C619 0.961 . S
H627 C619 0.960 . S
H628 C620 0.930 . S
H629 C621 0.929 . S
H630 C638 0.929 . S
H631 C640 0.930 . S
H632 C642 0.930 . S
H633 C645 0.929 . S
H634 C648 0.930 . S
H635 C650 0.960 . S
H636 C650 0.960 . S
H637 C650 0.960 . S
C638 H630 0.929 . S
C638 C639 1.377 . S
C638 C640 1.384 . S
C639 C638 1.377 . S
C639 C645 1.390 . S
C640 H631 0.930 . S
C640 C638 1.384 . S
C640 C641 1.372 . S
C641 C640 1.372 . S
C641 C642 1.400 . S
C641 C646 1.490 . S
C642 H632 0.930 . S
C642 C641 1.400 . S
C642 C645 1.386 . S
H643 C659 0.930 . S
H644 C660 0.931 . S
C645 H633 0.929 . S
C645 C639 1.390 . S
C645 C642 1.386 . S
C646 C641 1.490 . S
C646 C648 1.395 . S
C646 C649 1.403 . S
H647 C653 0.930 . S
C648 H634 0.930 . S
C648 C646 1.395 . S
C648 C651 1.403 . S
C649 C646 1.403 . S
C649 C650 1.524 . S
C649 C653 1.400 . S
C650 H635 0.960 . S
C650 H636 0.960 . S
C650 H637 0.960 . S
C650 C649 1.524 . S
C651 C648 1.403 . S
C651 C652 1.392 . S
C651 C655 1.495 . S
C652 C651 1.392 . S
C652 C653 1.385 . S
C652 C654 1.478 . S
C653 H647 0.930 . S
C653 C649 1.400 . S
C653 C652 1.385 . S
C654 C652 1.478 . S
C654 C656 1.381 . S
C654 C660 1.383 . S
C655 C651 1.495 . S
C655 H661 0.959 . S
C655 H662 0.961 . S
C655 H663 0.960 . S
C656 C654 1.381 . S
C656 C657 1.394 . S
C656 H664 0.930 . S
C657 C656 1.394 . S
C657 C658 1.383 . S
C657 H665 0.929 . S
C658 C657 1.383 . S
C658 C659 1.377 . S
C659 H643 0.930 . S
C659 C658 1.377 . S
C659 C660 1.379 . S
C660 H644 0.931 . S
C660 C654 1.383 . S
C660 C659 1.379 . S
H661 C655 0.959 . S
H662 C655 0.961 . S
H663 C655 0.960 . S
H664 C656 0.930 . S
H665 C657 0.929 . S
H666 C674 0.929 . S
H667 C676 0.930 . S
H668 C678 0.930 . S
H669 C681 0.929 . S
H670 C684 0.930 . S
H671 C686 0.960 . S
H672 C686 0.960 . S
H673 C686 0.960 . S
C674 H666 0.929 . S
C674 C675 1.377 . S
C674 C676 1.384 . S
C675 C674 1.377 . S
C675 C681 1.390 . S
C676 H667 0.930 . S
C676 C674 1.384 . S
C676 C677 1.372 . S
C677 C676 1.372 . S
C677 C678 1.400 . S
C677 C682 1.490 . S
C678 H668 0.930 . S
C678 C677 1.400 . S
C678 C681 1.386 . S
H679 C695 0.930 . S
H680 C696 0.931 . S
C681 H669 0.929 . S
C681 C675 1.390 . S
C681 C678 1.386 . S
C682 C677 1.490 . S
C682 C684 1.395 . S
C682 C685 1.403 . S
H683 C689 0.930 . S
C684 H670 0.930 . S
C684 C682 1.395 . S
C684 C687 1.403 . S
C685 C682 1.403 . S
C685 C686 1.524 . S
C685 C689 1.400 . S
C686 H671 0.960 . S
C686 H672 0.960 . S
C686 H673 0.960 . S
C686 C685 1.524 . S
C687 C684 1.403 . S
C687 C688 1.392 . S
C687 C691 1.495 . S
C688 C687 1.392 . S
C688 C689 1.385 . S
C688 C690 1.478 . S
C689 H683 0.930 . S
C689 C685 1.400 . S
C689 C688 1.385 . S
C690 C688 1.478 . S
C690 C692 1.381 . S
C690 C696 1.383 . S
C691 C687 1.495 . S
C691 H697 0.959 . S
C691 H698 0.961 . S
C691 H699 0.960 . S
C692 C690 1.381 . S
C692 C693 1.394 . S
C692 H700 0.930 . S
C693 C692 1.394 . S
C693 C694 1.383 . S
C693 H701 0.929 . S
C694 C693 1.383 . S
C694 C695 1.377 . S
C695 H679 0.930 . S
C695 C694 1.377 . S
C695 C696 1.379 . S
C696 H680 0.931 . S
C696 C690 1.383 . S
C696 C695 1.379 . S
H697 C691 0.959 . S
H698 C691 0.961 . S
H699 C691 0.960 . S
H700 C692 0.930 . S
H701 C693 0.929 . S
H702 C710 0.929 . S
H703 C712 0.930 . S
H704 C714 0.930 . S
H705 C717 0.929 . S
H706 C720 0.930 . S
H707 C722 0.960 . S
H708 C722 0.960 . S
H709 C722 0.960 . S
C710 H702 0.929 . S
C710 C711 1.377 . S
C710 C712 1.384 . S
C711 C710 1.377 . S
C711 C717 1.390 . S
C712 H703 0.930 . S
C712 C710 1.384 . S
C712 C713 1.372 . S
C713 C712 1.372 . S
C713 C714 1.400 . S
C713 C718 1.490 . S
C714 H704 0.930 . S
C714 C713 1.400 . S
C714 C717 1.386 . S
H715 C731 0.930 . S
H716 C732 0.931 . S
C717 H705 0.929 . S
C717 C711 1.390 . S
C717 C714 1.386 . S
C718 C713 1.490 . S
C718 C720 1.395 . S
C718 C721 1.403 . S
H719 C725 0.930 . S
C720 H706 0.930 . S
C720 C718 1.395 . S
C720 C723 1.403 . S
C721 C718 1.403 . S
C721 C722 1.524 . S
C721 C725 1.400 . S
C722 H707 0.960 . S
C722 H708 0.960 . S
C722 H709 0.960 . S
C722 C721 1.524 . S
C723 C720 1.403 . S
C723 C724 1.392 . S
C723 C727 1.495 . S
C724 C723 1.392 . S
C724 C725 1.385 . S
C724 C726 1.478 . S
C725 H719 0.930 . S
C725 C721 1.400 . S
C725 C724 1.385 . S
C726 C724 1.478 . S
C726 C728 1.381 . S
C726 C732 1.383 . S
C727 C723 1.495 . S
C727 H733 0.959 . S
C727 H734 0.961 . S
C727 H735 0.960 . S
C728 C726 1.381 . S
C728 C729 1.394 . S
C728 H736 0.930 . S
C729 C728 1.394 . S
C729 C730 1.383 . S
C729 H737 0.929 . S
C730 C729 1.383 . S
C730 C731 1.377 . S
C731 H715 0.930 . S
C731 C730 1.377 . S
C731 C732 1.379 . S
C732 H716 0.931 . S
C732 C726 1.383 . S
C732 C731 1.379 . S
H733 C727 0.959 . S
H734 C727 0.961 . S
H735 C727 0.960 . S
H736 C728 0.930 . S
H737 C729 0.929 . S
H738 C746 0.929 . S
H739 C748 0.930 . S
H740 C750 0.930 . S
H741 C753 0.929 . S
H742 C756 0.930 . S
H743 C758 0.960 . S
H744 C758 0.960 . S
H745 C758 0.960 . S
C746 H738 0.929 . S
C746 C747 1.377 . S
C746 C748 1.384 . S
C747 C746 1.377 . S
C747 C753 1.390 . S
C748 H739 0.930 . S
C748 C746 1.384 . S
C748 C749 1.372 . S
C749 C748 1.372 . S
C749 C750 1.400 . S
C749 C754 1.490 . S
C750 H740 0.930 . S
C750 C749 1.400 . S
C750 C753 1.386 . S
H751 C767 0.930 . S
H752 C768 0.931 . S
C753 H741 0.929 . S
C753 C747 1.390 . S
C753 C750 1.386 . S
C754 C749 1.490 . S
C754 C756 1.395 . S
C754 C757 1.403 . S
H755 C761 0.930 . S
C756 H742 0.930 . S
C756 C754 1.395 . S
C756 C759 1.403 . S
C757 C754 1.403 . S
C757 C758 1.524 . S
C757 C761 1.400 . S
C758 H743 0.960 . S
C758 H744 0.960 . S
C758 H745 0.960 . S
C758 C757 1.524 . S
C759 C756 1.403 . S
C759 C760 1.392 . S
C759 C763 1.495 . S
C760 C759 1.392 . S
C760 C761 1.385 . S
C760 C762 1.478 . S
C761 H755 0.930 . S
C761 C757 1.400 . S
C761 C760 1.385 . S
C762 C760 1.478 . S
C762 C764 1.381 . S
C762 C768 1.383 . S
C763 C759 1.495 . S
C763 H769 0.959 . S
C763 H770 0.961 . S
C763 H771 0.960 . S
C764 C762 1.381 . S
C764 C765 1.394 . S
C764 H772 0.930 . S
C765 C764 1.394 . S
C765 C766 1.383 . S
C765 H773 0.929 . S
C766 C765 1.383 . S
C766 C767 1.377 . S
C767 H751 0.930 . S
C767 C766 1.377 . S
C767 C768 1.379 . S
C768 H752 0.931 . S
C768 C762 1.383 . S
C768 C767 1.379 . S
H769 C763 0.959 . S
H770 C763 0.961 . S
H771 C763 0.960 . S
H772 C764 0.930 . S
H773 C765 0.929 . S
H774 C782 0.929 . S
H775 C784 0.930 . S
H776 C786 0.930 . S
H777 C789 0.929 . S
H778 C792 0.930 . S
H779 C794 0.960 . S
H780 C794 0.960 . S
H781 C794 0.960 . S
C782 H774 0.929 . S
C782 C783 1.377 . S
C782 C784 1.384 . S
C783 C782 1.377 . S
C783 C789 1.390 . S
C784 H775 0.930 . S
C784 C782 1.384 . S
C784 C785 1.372 . S
C785 C784 1.372 . S
C785 C786 1.400 . S
C785 C790 1.490 . S
C786 H776 0.930 . S
C786 C785 1.400 . S
C786 C789 1.386 . S
H787 C803 0.930 . S
H788 C804 0.931 . S
C789 H777 0.929 . S
C789 C783 1.390 . S
C789 C786 1.386 . S
C790 C785 1.490 . S
C790 C792 1.395 . S
C790 C793 1.403 . S
H791 C797 0.930 . S
C792 H778 0.930 . S
C792 C790 1.395 . S
C792 C795 1.403 . S
C793 C790 1.403 . S
C793 C794 1.524 . S
C793 C797 1.400 . S
C794 H779 0.960 . S
C794 H780 0.960 . S
C794 H781 0.960 . S
C794 C793 1.524 . S
C795 C792 1.403 . S
C795 C796 1.392 . S
C795 C799 1.495 . S
C796 C795 1.392 . S
C796 C797 1.385 . S
C796 C798 1.478 . S
C797 H791 0.930 . S
C797 C793 1.400 . S
C797 C796 1.385 . S
C798 C796 1.478 . S
C798 C800 1.381 . S
C798 C804 1.383 . S
C799 C795 1.495 . S
C799 H805 0.959 . S
C799 H806 0.961 . S
C799 H807 0.960 . S
C800 C798 1.381 . S
C800 C801 1.394 . S
C800 H808 0.930 . S
C801 C800 1.394 . S
C801 C802 1.383 . S
C801 H809 0.929 . S
C802 C801 1.383 . S
C802 C803 1.377 . S
C803 H787 0.930 . S
C803 C802 1.377 . S
C803 C804 1.379 . S
C804 H788 0.931 . S
C804 C798 1.383 . S
C804 C803 1.379 . S
H805 C799 0.959 . S
H806 C799 0.961 . S
H807 C799 0.960 . S
H808 C800 0.930 . S
H809 C801 0.929 . S
H810 C818 0.929 . S
H811 C820 0.930 . S
H812 C822 0.930 . S
H813 C825 0.929 . S
H814 C828 0.930 . S
H815 C830 0.960 . S
H816 C830 0.960 . S
H817 C830 0.960 . S
C818 H810 0.929 . S
C818 C819 1.377 . S
C818 C820 1.384 . S
C819 C818 1.377 . S
C819 C825 1.390 . S
C820 H811 0.930 . S
C820 C818 1.384 . S
C820 C821 1.372 . S
C821 C820 1.372 . S
C821 C822 1.400 . S
C821 C826 1.490 . S
C822 H812 0.930 . S
C822 C821 1.400 . S
C822 C825 1.386 . S
H823 C839 0.930 . S
H824 C840 0.931 . S
C825 H813 0.929 . S
C825 C819 1.390 . S
C825 C822 1.386 . S
C826 C821 1.490 . S
C826 C828 1.395 . S
C826 C829 1.403 . S
H827 C833 0.930 . S
C828 H814 0.930 . S
C828 C826 1.395 . S
C828 C831 1.403 . S
C829 C826 1.403 . S
C829 C830 1.524 . S
C829 C833 1.400 . S
C830 H815 0.960 . S
C830 H816 0.960 . S
C830 H817 0.960 . S
C830 C829 1.524 . S
C831 C828 1.403 . S
C831 C832 1.392 . S
C831 C835 1.495 . S
C832 C831 1.392 . S
C832 C833 1.385 . S
C832 C834 1.478 . S
C833 H827 0.930 . S
C833 C829 1.400 . S
C833 C832 1.385 . S
C834 C832 1.478 . S
C834 C836 1.381 . S
C834 C840 1.383 . S
C835 C831 1.495 . S
C835 H841 0.959 . S
C835 H842 0.961 . S
C835 H843 0.960 . S
C836 C834 1.381 . S
C836 C837 1.394 . S
C836 H844 0.930 . S
C837 C836 1.394 . S
C837 C838 1.383 . S
C837 H845 0.929 . S
C838 C837 1.383 . S
C838 C839 1.377 . S
C839 H823 0.930 . S
C839 C838 1.377 . S
C839 C840 1.379 . S
C840 H824 0.931 . S
C840 C834 1.383 . S
C840 C839 1.379 . S
H841 C835 0.959 . S
H842 C835 0.961 . S
H843 C835 0.960 . S
H844 C836 0.930 . S
H845 C837 0.929 . S
H846 C854 0.929 . S
H847 C856 0.930 . S
H848 C858 0.930 . S
H849 C861 0.929 . S
H850 C864 0.930 . S
H851 C866 0.960 . S
H852 C866 0.960 . S
H853 C866 0.960 . S
C854 H846 0.929 . S
C854 C855 1.377 . S
C854 C856 1.384 . S
C855 C854 1.377 . S
C855 C861 1.390 . S
C856 H847 0.930 . S
C856 C854 1.384 . S
C856 C857 1.372 . S
C857 C856 1.372 . S
C857 C858 1.400 . S
C857 C862 1.490 . S
C858 H848 0.930 . S
C858 C857 1.400 . S
C858 C861 1.386 . S
H859 C875 0.930 . S
H860 C876 0.931 . S
C861 H849 0.929 . S
C861 C855 1.390 . S
C861 C858 1.386 . S
C862 C857 1.490 . S
C862 C864 1.395 . S
C862 C865 1.403 . S
H863 C869 0.930 . S
C864 H850 0.930 . S
C864 C862 1.395 . S
C864 C867 1.403 . S
C865 C862 1.403 . S
C865 C866 1.524 . S
C865 C869 1.400 . S
C866 H851 0.960 . S
C866 H852 0.960 . S
C866 H853 0.960 . S
C866 C865 1.524 . S
C867 C864 1.403 . S
C867 C868 1.392 . S
C867 C871 1.495 . S
C868 C867 1.392 . S
C868 C869 1.385 . S
C868 C870 1.478 . S
C869 H863 0.930 . S
C869 C865 1.400 . S
C869 C868 1.385 . S
C870 C868 1.478 . S
C870 C872 1.381 . S
C870 C876 1.383 . S
C871 C867 1.495 . S
C871 H877 0.959 . S
C871 H878 0.961 . S
C871 H879 0.960 . S
C872 C870 1.381 . S
C872 C873 1.394 . S
C872 H880 0.930 . S
C873 C872 1.394 . S
C873 C874 1.383 . S
C873 H881 0.929 . S
C874 C873 1.383 . S
C874 C875 1.377 . S
C875 H859 0.930 . S
C875 C874 1.377 . S
C875 C876 1.379 . S
C876 H860 0.931 . S
C876 C870 1.383 . S
C876 C875 1.379 . S
H877 C871 0.959 . S
H878 C871 0.961 . S
H879 C871 0.960 . S
H880 C872 0.930 . S
H881 C873 0.929 . S
H882 C890 0.929 . S
H883 C892 0.930 . S
H884 C894 0.930 . S
H885 C897 0.929 . S
H886 C900 0.930 . S
H887 C902 0.960 . S
H888 C902 0.960 . S
H889 C902 0.960 . S
C890 H882 0.929 . S
C890 C891 1.377 . S
C890 C892 1.384 . S
C891 C890 1.377 . S
C891 C897 1.390 . S
C892 H883 0.930 . S
C892 C890 1.384 . S
C892 C893 1.372 . S
C893 C892 1.372 . S
C893 C894 1.400 . S
C893 C898 1.490 . S
C894 H884 0.930 . S
C894 C893 1.400 . S
C894 C897 1.386 . S
H895 C911 0.930 . S
H896 C912 0.931 . S
C897 H885 0.929 . S
C897 C891 1.390 . S
C897 C894 1.386 . S
C898 C893 1.490 . S
C898 C900 1.395 . S
C898 C901 1.403 . S
H899 C905 0.930 . S
C900 H886 0.930 . S
C900 C898 1.395 . S
C900 C903 1.403 . S
C901 C898 1.403 . S
C901 C902 1.524 . S
C901 C905 1.400 . S
C902 H887 0.960 . S
C902 H888 0.960 . S
C902 H889 0.960 . S
C902 C901 1.524 . S
C903 C900 1.403 . S
C903 C904 1.392 . S
C903 C907 1.495 . S
C904 C903 1.392 . S
C904 C905 1.385 . S
C904 C906 1.478 . S
C905 H899 0.930 . S
C905 C901 1.400 . S
C905 C904 1.385 . S
C906 C904 1.478 . S
C906 C908 1.381 . S
C906 C912 1.383 . S
C907 C903 1.495 . S
C907 H913 0.959 . S
C907 H914 0.961 . S
C907 H915 0.960 . S
C908 C906 1.381 . S
C908 C909 1.394 . S
C908 H916 0.930 . S
C909 C908 1.394 . S
C909 C910 1.383 . S
C909 H917 0.929 . S
C910 C909 1.383 . S
C910 C911 1.377 . S
C911 H895 0.930 . S
C911 C910 1.377 . S
C911 C912 1.379 . S
C912 H896 0.931 . S
C912 C906 1.383 . S
C912 C911 1.379 . S
H913 C907 0.959 . S
H914 C907 0.961 . S
H915 C907 0.960 . S
H916 C908 0.930 . S
H917 C909 0.929 . S
H918 C926 0.929 . S
H919 C928 0.930 . S
H920 C930 0.930 . S
H921 C933 0.929 . S
H922 C936 0.930 . S
H923 C938 0.960 . S
H924 C938 0.960 . S
H925 C938 0.960 . S
C926 H918 0.929 . S
C926 C927 1.377 . S
C926 C928 1.384 . S
C927 C926 1.377 . S
C927 C933 1.390 . S
C928 H919 0.930 . S
C928 C926 1.384 . S
C928 C929 1.372 . S
C929 C928 1.372 . S
C929 C930 1.400 . S
C929 C934 1.490 . S
C930 H920 0.930 . S
C930 C929 1.400 . S
C930 C933 1.386 . S
H931 C947 0.930 . S
H932 C948 0.931 . S
C933 H921 0.929 . S
C933 C927 1.390 . S
C933 C930 1.386 . S
C934 C929 1.490 . S
C934 C936 1.395 . S
C934 C937 1.403 . S
H935 C941 0.930 . S
C936 H922 0.930 . S
C936 C934 1.395 . S
C936 C939 1.403 . S
C937 C934 1.403 . S
C937 C938 1.524 . S
C937 C941 1.400 . S
C938 H923 0.960 . S
C938 H924 0.960 . S
C938 H925 0.960 . S
C938 C937 1.524 . S
C939 C936 1.403 . S
C939 C940 1.392 . S
C939 C943 1.495 . S
C940 C939 1.392 . S
C940 C941 1.385 . S
C940 C942 1.478 . S
C941 H935 0.930 . S
C941 C937 1.400 . S
C941 C940 1.385 . S
C942 C940 1.478 . S
C942 C944 1.381 . S
C942 C948 1.383 . S
C943 C939 1.495 . S
C943 H949 0.959 . S
C943 H950 0.961 . S
C943 H951 0.960 . S
C944 C942 1.381 . S
C944 C945 1.394 . S
C944 H952 0.930 . S
C945 C944 1.394 . S
C945 C946 1.383 . S
C945 H953 0.929 . S
C946 C945 1.383 . S
C946 C947 1.377 . S
C947 H931 0.930 . S
C947 C946 1.377 . S
C947 C948 1.379 . S
C948 H932 0.931 . S
C948 C942 1.383 . S
C948 C947 1.379 . S
H949 C943 0.959 . S
H950 C943 0.961 . S
H951 C943 0.960 . S
H952 C944 0.930 . S
H953 C945 0.929 . S
H954 C962 0.929 . S
H955 C964 0.930 . S
H956 C966 0.930 . S
H957 C969 0.929 . S
H958 C972 0.930 . S
H959 C974 0.960 . S
H960 C974 0.960 . S
H961 C974 0.960 . S
C962 H954 0.929 . S
C962 C963 1.377 . S
C962 C964 1.384 . S
C963 C962 1.377 . S
C963 C969 1.390 . S
C964 H955 0.930 . S
C964 C962 1.384 . S
C964 C965 1.372 . S
C965 C964 1.372 . S
C965 C966 1.400 . S
C965 C970 1.490 . S
C966 H956 0.930 . S
C966 C965 1.400 . S
C966 C969 1.386 . S
H967 C983 0.930 . S
H968 C984 0.931 . S
C969 H957 0.929 . S
C969 C963 1.390 . S
C969 C966 1.386 . S
C970 C965 1.490 . S
C970 C972 1.395 . S
C970 C973 1.403 . S
H971 C977 0.930 . S
C972 H958 0.930 . S
C972 C970 1.395 . S
C972 C975 1.403 . S
C973 C970 1.403 . S
C973 C974 1.524 . S
C973 C977 1.400 . S
C974 H959 0.960 . S
C974 H960 0.960 . S
C974 H961 0.960 . S
C974 C973 1.524 . S
C975 C972 1.403 . S
C975 C976 1.392 . S
C975 C979 1.495 . S
C976 C975 1.392 . S
C976 C977 1.385 . S
C976 C978 1.478 . S
C977 H971 0.930 . S
C977 C973 1.400 . S
C977 C976 1.385 . S
C978 C976 1.478 . S
C978 C980 1.381 . S
C978 C984 1.383 . S
C979 C975 1.495 . S
C979 H985 0.959 . S
C979 H986 0.961 . S
C979 H987 0.960 . S
C980 C978 1.381 . S
C980 C981 1.394 . S
C980 H988 0.930 . S
C981 C980 1.394 . S
C981 C982 1.383 . S
C981 H989 0.929 . S
C982 C981 1.383 . S
C982 C983 1.377 . S
C983 H967 0.930 . S
C983 C982 1.377 . S
C983 C984 1.379 . S
C984 H968 0.931 . S
C984 C978 1.383 . S
C984 C983 1.379 . S
H985 C979 0.959 . S
H986 C979 0.961 . S
H987 C979 0.960 . S
H988 C980 0.930 . S
H989 C981 0.929 . S
H990 C998 0.929 . S
H991 C1000 0.930 . S
H992 C1002 0.930 . S
H993 C1005 0.929 . S
H994 C1008 0.930 . S
H995 C1010 0.960 . S
H996 C1010 0.960 . S
H997 C1010 0.960 . S
C998 H990 0.929 . S
C998 C999 1.377 . S
C998 C1000 1.384 . S
C999 C998 1.377 . S
C999 C1005 1.390 . S
C1000 H991 0.930 . S
C1000 C998 1.384 . S
C1000 C1001 1.372 . S
C1001 C1000 1.372 . S
C1001 C1002 1.400 . S
C1001 C1006 1.490 . S
C1002 H992 0.930 . S
C1002 C1001 1.400 . S
C1002 C1005 1.386 . S
H1003 C1019 0.930 . S
H1004 C1020 0.931 . S
C1005 H993 0.929 . S
C1005 C999 1.390 . S
C1005 C1002 1.386 . S
C1006 C1001 1.490 . S
C1006 C1008 1.395 . S
C1006 C1009 1.403 . S
H1007 C1013 0.930 . S
C1008 H994 0.930 . S
C1008 C1006 1.395 . S
C1008 C1011 1.403 . S
C1009 C1006 1.403 . S
C1009 C1010 1.524 . S
C1009 C1013 1.400 . S
C1010 H995 0.960 . S
C1010 H996 0.960 . S
C1010 H997 0.960 . S
C1010 C1009 1.524 . S
C1011 C1008 1.403 . S
C1011 C1012 1.392 . S
C1011 C1015 1.495 . S
C1012 C1011 1.392 . S
C1012 C1013 1.385 . S
C1012 C1014 1.478 . S
C1013 H1007 0.930 . S
C1013 C1009 1.400 . S
C1013 C1012 1.385 . S
C1014 C1012 1.478 . S
C1014 C1016 1.381 . S
C1014 C1020 1.383 . S
C1015 C1011 1.495 . S
C1015 H1021 0.959 . S
C1015 H1022 0.961 . S
C1015 H1023 0.960 . S
C1016 C1014 1.381 . S
C1016 C1017 1.394 . S
C1016 H1024 0.930 . S
C1017 C1016 1.394 . S
C1017 C1018 1.383 . S
C1017 H1025 0.929 . S
C1018 C1017 1.383 . S
C1018 C1019 1.377 . S
C1019 H1003 0.930 . S
C1019 C1018 1.377 . S
C1019 C1020 1.379 . S
C1020 H1004 0.931 . S
C1020 C1014 1.383 . S
C1020 C1019 1.379 . S
H1021 C1015 0.959 . S
H1022 C1015 0.961 . S
H1023 C1015 0.960 . S
H1024 C1016 0.930 . S
H1025 C1017 0.929 . S
H1026 C1034 0.929 . S
H1027 C1036 0.930 . S
H1028 C1038 0.930 . S
H1029 C1041 0.929 . S
H1030 C1044 0.930 . S
H1031 C1046 0.960 . S
H1032 C1046 0.960 . S
H1033 C1046 0.960 . S
C1034 H1026 0.929 . S
C1034 C1035 1.377 . S
C1034 C1036 1.384 . S
C1035 C1034 1.377 . S
C1035 C1041 1.390 . S
C1036 H1027 0.930 . S
C1036 C1034 1.384 . S
C1036 C1037 1.372 . S
C1037 C1036 1.372 . S
C1037 C1038 1.400 . S
C1037 C1042 1.490 . S
C1038 H1028 0.930 . S
C1038 C1037 1.400 . S
C1038 C1041 1.386 . S
H1039 C1055 0.930 . S
H1040 C1056 0.931 . S
C1041 H1029 0.929 . S
C1041 C1035 1.390 . S
C1041 C1038 1.386 . S
C1042 C1037 1.490 . S
C1042 C1044 1.395 . S
C1042 C1045 1.403 . S
H1043 C1049 0.930 . S
C1044 H1030 0.930 . S
C1044 C1042 1.395 . S
C1044 C1047 1.403 . S
C1045 C1042 1.403 . S
C1045 C1046 1.524 . S
C1045 C1049 1.400 . S
C1046 H1031 0.960 . S
C1046 H1032 0.960 . S
C1046 H1033 0.960 . S
C1046 C1045 1.524 . S
C1047 C1044 1.403 . S
C1047 C1048 1.392 . S
C1047 C1051 1.495 . S
C1048 C1047 1.392 . S
C1048 C1049 1.385 . S
C1048 C1050 1.478 . S
C1049 H1043 0.930 . S
C1049 C1045 1.400 . S
C1049 C1048 1.385 . S
C1050 C1048 1.478 . S
C1050 C1052 1.381 . S
C1050 C1056 1.383 . S
C1051 C1047 1.495 . S
C1051 H1057 0.959 . S
C1051 H1058 0.961 . S
C1051 H1059 0.960 . S
C1052 C1050 1.381 . S
C1052 C1053 1.394 . S
C1052 H1060 0.930 . S
C1053 C1052 1.394 . S
C1053 C1054 1.383 . S
C1053 H1061 0.929 . S
C1054 C1053 1.383 . S
C1054 C1055 1.377 . S
C1055 H1039 0.930 . S
C1055 C1054 1.377 . S
C1055 C1056 1.379 . S
C1056 H1040 0.931 . S
C1056 C1050 1.383 . S
C1056 C1055 1.379 . S
H1057 C1051 0.959 . S
H1058 C1051 0.961 . S
H1059 C1051 0.960 . S
H1060 C1052 0.930 . S
H1061 C1053 0.929 . S
H1062 C1070 0.929 . S
H1063 C1072 0.930 . S
H1064 C1074 0.930 . S
H1065 C1077 0.929 . S
H1066 C1080 0.930 . S
H1067 C1082 0.960 . S
H1068 C1082 0.960 . S
H1069 C1082 0.960 . S
C1070 H1062 0.929 . S
C1070 C1071 1.377 . S
C1070 C1072 1.384 . S
C1071 C1070 1.377 . S
C1071 C1077 1.390 . S
C1072 H1063 0.930 . S
C1072 C1070 1.384 . S
C1072 C1073 1.372 . S
C1073 C1072 1.372 . S
C1073 C1074 1.400 . S
C1073 C1078 1.490 . S
C1074 H1064 0.930 . S
C1074 C1073 1.400 . S
C1074 C1077 1.386 . S
H1075 C1091 0.930 . S
H1076 C1092 0.931 . S
C1077 H1065 0.929 . S
C1077 C1071 1.390 . S
C1077 C1074 1.386 . S
C1078 C1073 1.490 . S
C1078 C1080 1.395 . S
C1078 C1081 1.403 . S
H1079 C1085 0.930 . S
C1080 H1066 0.930 . S
C1080 C1078 1.395 . S
C1080 C1083 1.403 . S
C1081 C1078 1.403 . S
C1081 C1082 1.524 . S
C1081 C1085 1.400 . S
C1082 H1067 0.960 . S
C1082 H1068 0.960 . S
C1082 H1069 0.960 . S
C1082 C1081 1.524 . S
C1083 C1080 1.403 . S
C1083 C1084 1.392 . S
C1083 C1087 1.495 . S
C1084 C1083 1.392 . S
C1084 C1085 1.385 . S
C1084 C1086 1.478 . S
C1085 H1079 0.930 . S
C1085 C1081 1.400 . S
C1085 C1084 1.385 . S
C1086 C1084 1.478 . S
C1086 C1088 1.381 . S
C1086 C1092 1.383 . S
C1087 C1083 1.495 . S
C1087 H1093 0.959 . S
C1087 H1094 0.961 . S
C1087 H1095 0.960 . S
C1088 C1086 1.381 . S
C1088 C1089 1.394 . S
C1088 H1096 0.930 . S
C1089 C1088 1.394 . S
C1089 C1090 1.383 . S
C1089 H1097 0.929 . S
C1090 C1089 1.383 . S
C1090 C1091 1.377 . S
C1091 H1075 0.930 . S
C1091 C1090 1.377 . S
C1091 C1092 1.379 . S
C1092 H1076 0.931 . S
C1092 C1086 1.383 . S
C1092 C1091 1.379 . S
H1093 C1087 0.959 . S
H1094 C1087 0.961 . S
H1095 C1087 0.960 . S
H1096 C1088 0.930 . S
H1097 C1089 0.929 . S
H1098 C1106 0.929 . S
H1099 C1108 0.930 . S
H1100 C1110 0.930 . S
H1101 C1113 0.929 . S
H1102 C1116 0.930 . S
H1103 C1118 0.960 . S
H1104 C1118 0.960 . S
H1105 C1118 0.960 . S
C1106 H1098 0.929 . S
C1106 C1107 1.377 . S
C1106 C1108 1.384 . S
C1107 C1106 1.377 . S
C1107 C1113 1.390 . S
C1108 H1099 0.930 . S
C1108 C1106 1.384 . S
C1108 C1109 1.372 . S
C1109 C1108 1.372 . S
C1109 C1110 1.400 . S
C1109 C1114 1.490 . S
C1110 H1100 0.930 . S
C1110 C1109 1.400 . S
C1110 C1113 1.386 . S
H1111 C1127 0.930 . S
H1112 C1128 0.931 . S
C1113 H1101 0.929 . S
C1113 C1107 1.390 . S
C1113 C1110 1.386 . S
C1114 C1109 1.490 . S
C1114 C1116 1.395 . S
C1114 C1117 1.403 . S
H1115 C1121 0.930 . S
C1116 H1102 0.930 . S
C1116 C1114 1.395 . S
C1116 C1119 1.403 . S
C1117 C1114 1.403 . S
C1117 C1118 1.524 . S
C1117 C1121 1.400 . S
C1118 H1103 0.960 . S
C1118 H1104 0.960 . S
C1118 H1105 0.960 . S
C1118 C1117 1.524 . S
C1119 C1116 1.403 . S
C1119 C1120 1.392 . S
C1119 C1123 1.495 . S
C1120 C1119 1.392 . S
C1120 C1121 1.385 . S
C1120 C1122 1.478 . S
C1121 H1115 0.930 . S
C1121 C1117 1.400 . S
C1121 C1120 1.385 . S
C1122 C1120 1.478 . S
C1122 C1124 1.381 . S
C1122 C1128 1.383 . S
C1123 C1119 1.495 . S
C1123 H1129 0.959 . S
C1123 H1130 0.961 . S
C1123 H1131 0.960 . S
C1124 C1122 1.381 . S
C1124 C1125 1.394 . S
C1124 H1132 0.930 . S
C1125 C1124 1.394 . S
C1125 C1126 1.383 . S
C1125 H1133 0.929 . S
C1126 C1125 1.383 . S
C1126 C1127 1.377 . S
C1127 H1111 0.930 . S
C1127 C1126 1.377 . S
C1127 C1128 1.379 . S
C1128 H1112 0.931 . S
C1128 C1122 1.383 . S
C1128 C1127 1.379 . S
H1129 C1123 0.959 . S
H1130 C1123 0.961 . S
H1131 C1123 0.960 . S
H1132 C1124 0.930 . S
H1133 C1125 0.929 . S
H1134 C1142 0.929 . S
H1135 C1144 0.930 . S
H1136 C1146 0.930 . S
H1137 C1149 0.929 . S
H1138 C1152 0.930 . S
H1139 C1154 0.960 . S
H1140 C1154 0.960 . S
H1141 C1154 0.960 . S
C1142 H1134 0.929 . S
C1142 C1143 1.377 . S
C1142 C1144 1.384 . S
C1143 C1142 1.377 . S
C1143 C1149 1.390 . S
C1144 H1135 0.930 . S
C1144 C1142 1.384 . S
C1144 C1145 1.372 . S
C1145 C1144 1.372 . S
C1145 C1146 1.400 . S
C1145 C1150 1.490 . S
C1146 H1136 0.930 . S
C1146 C1145 1.400 . S
C1146 C1149 1.386 . S
H1147 C1163 0.930 . S
H1148 C1164 0.931 . S
C1149 H1137 0.929 . S
C1149 C1143 1.390 . S
C1149 C1146 1.386 . S
C1150 C1145 1.490 . S
C1150 C1152 1.395 . S
C1150 C1153 1.403 . S
H1151 C1157 0.930 . S
C1152 H1138 0.930 . S
C1152 C1150 1.395 . S
C1152 C1155 1.403 . S
C1153 C1150 1.403 . S
C1153 C1154 1.524 . S
C1153 C1157 1.400 . S
C1154 H1139 0.960 . S
C1154 H1140 0.960 . S
C1154 H1141 0.960 . S
C1154 C1153 1.524 . S
C1155 C1152 1.403 . S
C1155 C1156 1.392 . S
C1155 C1159 1.495 . S
C1156 C1155 1.392 . S
C1156 C1157 1.385 . S
C1156 C1158 1.478 . S
C1157 H1151 0.930 . S
C1157 C1153 1.400 . S
C1157 C1156 1.385 . S
C1158 C1156 1.478 . S
C1158 C1160 1.381 . S
C1158 C1164 1.383 . S
C1159 C1155 1.495 . S
C1159 H1165 0.959 . S
C1159 H1166 0.961 . S
C1159 H1167 0.960 . S
C1160 C1158 1.381 . S
C1160 C1161 1.394 . S
C1160 H1168 0.930 . S
C1161 C1160 1.394 . S
C1161 C1162 1.383 . S
C1161 H1169 0.929 . S
C1162 C1161 1.383 . S
C1162 C1163 1.377 . S
C1163 H1147 0.930 . S
C1163 C1162 1.377 . S
C1163 C1164 1.379 . S
C1164 H1148 0.931 . S
C1164 C1158 1.383 . S
C1164 C1163 1.379 . S
H1165 C1159 0.959 . S
H1166 C1159 0.961 . S
H1167 C1159 0.960 . S
H1168 C1160 0.930 . S
H1169 C1161 0.929 . S
H1170 C1178 0.929 . S
H1171 C1180 0.930 . S
H1172 C1182 0.930 . S
H1173 C1185 0.929 . S
H1174 C1188 0.930 . S
H1175 C1190 0.960 . S
H1176 C1190 0.960 . S
H1177 C1190 0.960 . S
C1178 H1170 0.929 . S
C1178 C1179 1.377 . S
C1178 C1180 1.384 . S
C1179 C1178 1.377 . S
C1179 C1185 1.390 . S
C1180 H1171 0.930 . S
C1180 C1178 1.384 . S
C1180 C1181 1.372 . S
C1181 C1180 1.372 . S
C1181 C1182 1.400 . S
C1181 C1186 1.490 . S
C1182 H1172 0.930 . S
C1182 C1181 1.400 . S
C1182 C1185 1.386 . S
H1183 C1199 0.930 . S
H1184 C1200 0.931 . S
C1185 H1173 0.929 . S
C1185 C1179 1.390 . S
C1185 C1182 1.386 . S
C1186 C1181 1.490 . S
C1186 C1188 1.395 . S
C1186 C1189 1.403 . S
H1187 C1193 0.930 . S
C1188 H1174 0.930 . S
C1188 C1186 1.395 . S
C1188 C1191 1.403 . S
C1189 C1186 1.403 . S
C1189 C1190 1.524 . S
C1189 C1193 1.400 . S
C1190 H1175 0.960 . S
C1190 H1176 0.960 . S
C1190 H1177 0.960 . S
C1190 C1189 1.524 . S
C1191 C1188 1.403 . S
C1191 C1192 1.392 . S
C1191 C1195 1.495 . S
C1192 C1191 1.392 . S
C1192 C1193 1.385 . S
C1192 C1194 1.478 . S
C1193 H1187 0.930 . S
C1193 C1189 1.400 . S
C1193 C1192 1.385 . S
C1194 C1192 1.478 . S
C1194 C1196 1.381 . S
C1194 C1200 1.383 . S
C1195 C1191 1.495 . S
C1195 H1201 0.959 . S
C1195 H1202 0.961 . S
C1195 H1203 0.960 . S
C1196 C1194 1.381 . S
C1196 C1197 1.394 . S
C1196 H1204 0.930 . S
C1197 C1196 1.394 . S
C1197 C1198 1.383 . S
C1197 H1205 0.929 . S
C1198 C1197 1.383 . S
C1198 C1199 1.377 . S
C1199 H1183 0.930 . S
C1199 C1198 1.377 . S
C1199 C1200 1.379 . S
C1200 H1184 0.931 . S
C1200 C1194 1.383 . S
C1200 C1199 1.379 . S
H1201 C1195 0.959 . S
H1202 C1195 0.961 . S
H1203 C1195 0.960 . S
H1204 C1196 0.930 . S
H1205 C1197 0.929 . S
H1206 C1214 0.929 . S
H1207 C1216 0.930 . S
H1208 C1218 0.930 . S
H1209 C1221 0.929 . S
H1210 C1224 0.930 . S
H1211 C1226 0.960 . S
H1212 C1226 0.960 . S
H1213 C1226 0.960 . S
C1214 H1206 0.929 . S
C1214 C1215 1.377 . S
C1214 C1216 1.384 . S
C1215 C1214 1.377 . S
C1215 C1221 1.390 . S
C1216 H1207 0.930 . S
C1216 C1214 1.384 . S
C1216 C1217 1.372 . S
C1217 C1216 1.372 . S
C1217 C1218 1.400 . S
C1217 C1222 1.490 . S
C1218 H1208 0.930 . S
C1218 C1217 1.400 . S
C1218 C1221 1.386 . S
H1219 C1235 0.930 . S
H1220 C1236 0.931 . S
C1221 H1209 0.929 . S
C1221 C1215 1.390 . S
C1221 C1218 1.386 . S
C1222 C1217 1.490 . S
C1222 C1224 1.395 . S
C1222 C1225 1.403 . S
H1223 C1229 0.930 . S
C1224 H1210 0.930 . S
C1224 C1222 1.395 . S
C1224 C1227 1.403 . S
C1225 C1222 1.403 . S
C1225 C1226 1.524 . S
C1225 C1229 1.400 . S
C1226 H1211 0.960 . S
C1226 H1212 0.960 . S
C1226 H1213 0.960 . S
C1226 C1225 1.524 . S
C1227 C1224 1.403 . S
C1227 C1228 1.392 . S
C1227 C1231 1.495 . S
C1228 C1227 1.392 . S
C1228 C1229 1.385 . S
C1228 C1230 1.478 . S
C1229 H1223 0.930 . S
C1229 C1225 1.400 . S
C1229 C1228 1.385 . S
C1230 C1228 1.478 . S
C1230 C1232 1.381 . S
C1230 C1236 1.383 . S
C1231 C1227 1.495 . S
C1231 H1237 0.959 . S
C1231 H1238 0.961 . S
C1231 H1239 0.960 . S
C1232 C1230 1.381 . S
C1232 C1233 1.394 . S
C1232 H1240 0.930 . S
C1233 C1232 1.394 . S
C1233 C1234 1.383 . S
C1233 H1241 0.929 . S
C1234 C1233 1.383 . S
C1234 C1235 1.377 . S
C1235 H1219 0.930 . S
C1235 C1234 1.377 . S
C1235 C1236 1.379 . S
C1236 H1220 0.931 . S
C1236 C1230 1.383 . S
C1236 C1235 1.379 . S
H1237 C1231 0.959 . S
H1238 C1231 0.961 . S
H1239 C1231 0.960 . S
H1240 C1232 0.930 . S
H1241 C1233 0.929 . S
H1242 C1250 0.929 . S
H1243 C1252 0.930 . S
H1244 C1254 0.930 . S
H1245 C1257 0.929 . S
H1246 C1260 0.930 . S
H1247 C1262 0.960 . S
H1248 C1262 0.960 . S
H1249 C1262 0.960 . S
C1250 H1242 0.929 . S
C1250 C1251 1.377 . S
C1250 C1252 1.384 . S
C1251 C1250 1.377 . S
C1251 C1257 1.390 . S
C1252 H1243 0.930 . S
C1252 C1250 1.384 . S
C1252 C1253 1.372 . S
C1253 C1252 1.372 . S
C1253 C1254 1.400 . S
C1253 C1258 1.490 . S
C1254 H1244 0.930 . S
C1254 C1253 1.400 . S
C1254 C1257 1.386 . S
H1255 C1271 0.930 . S
H1256 C1272 0.931 . S
C1257 H1245 0.929 . S
C1257 C1251 1.390 . S
C1257 C1254 1.386 . S
C1258 C1253 1.490 . S
C1258 C1260 1.395 . S
C1258 C1261 1.403 . S
H1259 C1265 0.930 . S
C1260 H1246 0.930 . S
C1260 C1258 1.395 . S
C1260 C1263 1.403 . S
C1261 C1258 1.403 . S
C1261 C1262 1.524 . S
C1261 C1265 1.400 . S
C1262 H1247 0.960 . S
C1262 H1248 0.960 . S
C1262 H1249 0.960 . S
C1262 C1261 1.524 . S
C1263 C1260 1.403 . S
C1263 C1264 1.392 . S
C1263 C1267 1.495 . S
C1264 C1263 1.392 . S
C1264 C1265 1.385 . S
C1264 C1266 1.478 . S
C1265 H1259 0.930 . S
C1265 C1261 1.400 . S
C1265 C1264 1.385 . S
C1266 C1264 1.478 . S
C1266 C1268 1.381 . S
C1266 C1272 1.383 . S
C1267 C1263 1.495 . S
C1267 H1273 0.959 . S
C1267 H1274 0.961 . S
C1267 H1275 0.960 . S
C1268 C1266 1.381 . S
C1268 C1269 1.394 . S
C1268 H1276 0.930 . S
C1269 C1268 1.394 . S
C1269 C1270 1.383 . S
C1269 H1277 0.929 . S
C1270 C1269 1.383 . S
C1270 C1271 1.377 . S
C1271 H1255 0.930 . S
C1271 C1270 1.377 . S
C1271 C1272 1.379 . S
C1272 H1256 0.931 . S
C1272 C1266 1.383 . S
C1272 C1271 1.379 . S
H1273 C1267 0.959 . S
H1274 C1267 0.961 . S
H1275 C1267 0.960 . S
H1276 C1268 0.930 . S
H1277 C1269 0.929 . S
H1278 C1286 0.929 . S
H1279 C1288 0.930 . S
H1280 C1290 0.930 . S
H1281 C1293 0.929 . S
H1282 C1296 0.930 . S
H1283 C1298 0.960 . S
H1284 C1298 0.960 . S
H1285 C1298 0.960 . S
C1286 H1278 0.929 . S
C1286 C1287 1.377 . S
C1286 C1288 1.384 . S
C1287 C1286 1.377 . S
C1287 C1293 1.390 . S
C1288 H1279 0.930 . S
C1288 C1286 1.384 . S
C1288 C1289 1.372 . S
C1289 C1288 1.372 . S
C1289 C1290 1.400 . S
C1289 C1294 1.490 . S
C1290 H1280 0.930 . S
C1290 C1289 1.400 . S
C1290 C1293 1.386 . S
H1291 C1307 0.930 . S
H1292 C1308 0.931 . S
C1293 H1281 0.929 . S
C1293 C1287 1.390 . S
C1293 C1290 1.386 . S
C1294 C1289 1.490 . S
C1294 C1296 1.395 . S
C1294 C1297 1.403 . S
H1295 C1301 0.930 . S
C1296 H1282 0.930 . S
C1296 C1294 1.395 . S
C1296 C1299 1.403 . S
C1297 C1294 1.403 . S
C1297 C1298 1.524 . S
C1297 C1301 1.400 . S
C1298 H1283 0.960 . S
C1298 H1284 0.960 . S
C1298 H1285 0.960 . S
C1298 C1297 1.524 . S
C1299 C1296 1.403 . S
C1299 C1300 1.392 . S
C1299 C1303 1.495 . S
C1300 C1299 1.392 . S
C1300 C1301 1.385 . S
C1300 C1302 1.478 . S
C1301 H1295 0.930 . S
C1301 C1297 1.400 . S
C1301 C1300 1.385 . S
C1302 C1300 1.478 . S
C1302 C1304 1.381 . S
C1302 C1308 1.383 . S
C1303 C1299 1.495 . S
C1303 H1309 0.959 . S
C1303 H1310 0.961 . S
C1303 H1311 0.960 . S
C1304 C1302 1.381 . S
C1304 C1305 1.394 . S
C1304 H1312 0.930 . S
C1305 C1304 1.394 . S
C1305 C1306 1.383 . S
C1305 H1313 0.929 . S
C1306 C1305 1.383 . S
C1306 C1307 1.377 . S
C1307 H1291 0.930 . S
C1307 C1306 1.377 . S
C1307 C1308 1.379 . S
C1308 H1292 0.931 . S
C1308 C1302 1.383 . S
C1308 C1307 1.379 . S
H1309 C1303 0.959 . S
H1310 C1303 0.961 . S
H1311 C1303 0.960 . S
H1312 C1304 0.930 . S
H1313 C1305 0.929 . S
H1314 C1322 0.929 . S
H1315 C1324 0.930 . S
H1316 C1326 0.930 . S
H1317 C1329 0.929 . S
H1318 C1332 0.930 . S
H1319 C1334 0.960 . S
H1320 C1334 0.960 . S
H1321 C1334 0.960 . S
C1322 H1314 0.929 . S
C1322 C1323 1.377 . S
C1322 C1324 1.384 . S
C1323 C1322 1.377 . S
C1323 C1329 1.390 . S
C1324 H1315 0.930 . S
C1324 C1322 1.384 . S
C1324 C1325 1.372 . S
C1325 C1324 1.372 . S
C1325 C1326 1.400 . S
C1325 C1330 1.490 . S
C1326 H1316 0.930 . S
C1326 C1325 1.400 . S
C1326 C1329 1.386 . S
H1327 C1343 0.930 . S
H1328 C1344 0.931 . S
C1329 H1317 0.929 . S
C1329 C1323 1.390 . S
C1329 C1326 1.386 . S
C1330 C1325 1.490 . S
C1330 C1332 1.395 . S
C1330 C1333 1.403 . S
H1331 C1337 0.930 . S
C1332 H1318 0.930 . S
C1332 C1330 1.395 . S
C1332 C1335 1.403 . S
C1333 C1330 1.403 . S
C1333 C1334 1.524 . S
C1333 C1337 1.400 . S
C1334 H1319 0.960 . S
C1334 H1320 0.960 . S
C1334 H1321 0.960 . S
C1334 C1333 1.524 . S
C1335 C1332 1.403 . S
C1335 C1336 1.392 . S
C1335 C1339 1.495 . S
C1336 C1335 1.392 . S
C1336 C1337 1.385 . S
C1336 C1338 1.478 . S
C1337 H1331 0.930 . S
C1337 C1333 1.400 . S
C1337 C1336 1.385 . S
C1338 C1336 1.478 . S
C1338 C1340 1.381 . S
C1338 C1344 1.383 . S
C1339 C1335 1.495 . S
C1339 H1345 0.959 . S
C1339 H1346 0.961 . S
C1339 H1347 0.960 . S
C1340 C1338 1.381 . S
C1340 C1341 1.394 . S
C1340 H1348 0.930 . S
C1341 C1340 1.394 . S
C1341 C1342 1.383 . S
C1341 H1349 0.929 . S
C1342 C1341 1.383 . S
C1342 C1343 1.377 . S
C1343 H1327 0.930 . S
C1343 C1342 1.377 . S
C1343 C1344 1.379 . S
C1344 H1328 0.931 . S
C1344 C1338 1.383 . S
C1344 C1343 1.379 . S
H1345 C1339 0.959 . S
H1346 C1339 0.961 . S
H1347 C1339 0.960 . S
H1348 C1340 0.930 . S
H1349 C1341 0.929 . S
H1350 C1358 0.929 . S
H1351 C1360 0.930 . S
H1352 C1362 0.930 . S
H1353 C1365 0.929 . S
H1354 C1368 0.930 . S
H1355 C1370 0.960 . S
H1356 C1370 0.960 . S
H1357 C1370 0.960 . S
C1358 H1350 0.929 . S
C1358 C1359 1.377 . S
C1358 C1360 1.384 . S
C1359 C1358 1.377 . S
C1359 C1365 1.390 . S
C1360 H1351 0.930 . S
C1360 C1358 1.384 . S
C1360 C1361 1.372 . S
C1361 C1360 1.372 . S
C1361 C1362 1.400 . S
C1361 C1366 1.490 . S
C1362 H1352 0.930 . S
C1362 C1361 1.400 . S
C1362 C1365 1.386 . S
H1363 C1379 0.930 . S
H1364 C1380 0.931 . S
C1365 H1353 0.929 . S
C1365 C1359 1.390 . S
C1365 C1362 1.386 . S
C1366 C1361 1.490 . S
C1366 C1368 1.395 . S
C1366 C1369 1.403 . S
H1367 C1373 0.930 . S
C1368 H1354 0.930 . S
C1368 C1366 1.395 . S
C1368 C1371 1.403 . S
C1369 C1366 1.403 . S
C1369 C1370 1.524 . S
C1369 C1373 1.400 . S
C1370 H1355 0.960 . S
C1370 H1356 0.960 . S
C1370 H1357 0.960 . S
C1370 C1369 1.524 . S
C1371 C1368 1.403 . S
C1371 C1372 1.392 . S
C1371 C1375 1.495 . S
C1372 C1371 1.392 . S
C1372 C1373 1.385 . S
C1372 C1374 1.478 . S
C1373 H1367 0.930 . S
C1373 C1369 1.400 . S
C1373 C1372 1.385 . S
C1374 C1372 1.478 . S
C1374 C1376 1.381 . S
C1374 C1380 1.383 . S
C1375 C1371 1.495 . S
C1375 H1381 0.959 . S
C1375 H1382 0.961 . S
C1375 H1383 0.960 . S
C1376 C1374 1.381 . S
C1376 C1377 1.394 . S
C1376 H1384 0.930 . S
C1377 C1376 1.394 . S
C1377 C1378 1.383 . S
C1377 H1385 0.929 . S
C1378 C1377 1.383 . S
C1378 C1379 1.377 . S
C1379 H1363 0.930 . S
C1379 C1378 1.377 . S
C1379 C1380 1.379 . S
C1380 H1364 0.931 . S
C1380 C1374 1.383 . S
C1380 C1379 1.379 . S
H1381 C1375 0.959 . S
H1382 C1375 0.961 . S
H1383 C1375 0.960 . S
H1384 C1376 0.930 . S
H1385 C1377 0.929 . S
H1386 C1394 0.929 . S
H1387 C1396 0.930 . S
H1388 C1398 0.930 . S
H1389 C1401 0.929 . S
H1390 C1404 0.930 . S
H1391 C1406 0.960 . S
H1392 C1406 0.960 . S
H1393 C1406 0.960 . S
C1394 H1386 0.929 . S
C1394 C1395 1.377 . S
C1394 C1396 1.384 . S
C1395 C1394 1.377 . S
C1395 C1401 1.390 . S
C1396 H1387 0.930 . S
C1396 C1394 1.384 . S
C1396 C1397 1.372 . S
C1397 C1396 1.372 . S
C1397 C1398 1.400 . S
C1397 C1402 1.490 . S
C1398 H1388 0.930 . S
C1398 C1397 1.400 . S
C1398 C1401 1.386 . S
H1399 C1415 0.930 . S
H1400 C1416 0.931 . S
C1401 H1389 0.929 . S
C1401 C1395 1.390 . S
C1401 C1398 1.386 . S
C1402 C1397 1.490 . S
C1402 C1404 1.395 . S
C1402 C1405 1.403 . S
H1403 C1409 0.930 . S
C1404 H1390 0.930 . S
C1404 C1402 1.395 . S
C1404 C1407 1.403 . S
C1405 C1402 1.403 . S
C1405 C1406 1.524 . S
C1405 C1409 1.400 . S
C1406 H1391 0.960 . S
C1406 H1392 0.960 . S
C1406 H1393 0.960 . S
C1406 C1405 1.524 . S
C1407 C1404 1.403 . S
C1407 C1408 1.392 . S
C1407 C1411 1.495 . S
C1408 C1407 1.392 . S
C1408 C1409 1.385 . S
C1408 C1410 1.478 . S
C1409 H1403 0.930 . S
C1409 C1405 1.400 . S
C1409 C1408 1.385 . S
C1410 C1408 1.478 . S
C1410 C1412 1.381 . S
C1410 C1416 1.383 . S
C1411 C1407 1.495 . S
C1411 H1417 0.959 . S
C1411 H1418 0.961 . S
C1411 H1419 0.960 . S
C1412 C1410 1.381 . S
C1412 C1413 1.394 . S
C1412 H1420 0.930 . S
C1413 C1412 1.394 . S
C1413 C1414 1.383 . S
C1413 H1421 0.929 . S
C1414 C1413 1.383 . S
C1414 C1415 1.377 . S
C1415 H1399 0.930 . S
C1415 C1414 1.377 . S
C1415 C1416 1.379 . S
C1416 H1400 0.931 . S
C1416 C1410 1.383 . S
C1416 C1415 1.379 . S
H1417 C1411 0.959 . S
H1418 C1411 0.961 . S
H1419 C1411 0.960 . S
H1420 C1412 0.930 . S
H1421 C1413 0.929 . S
H1422 C1430 0.929 . S
H1423 C1432 0.930 . S
H1424 C1434 0.930 . S
H1425 C1437 0.929 . S
H1426 C1440 0.930 . S
H1427 C1442 0.960 . S
H1428 C1442 0.960 . S
H1429 C1442 0.960 . S
C1430 H1422 0.929 . S
C1430 C1431 1.377 . S
C1430 C1432 1.384 . S
C1431 C1430 1.377 . S
C1431 C1437 1.390 . S
C1432 H1423 0.930 . S
C1432 C1430 1.384 . S
C1432 C1433 1.372 . S
C1433 C1432 1.372 . S
C1433 C1434 1.400 . S
C1433 C1438 1.490 . S
C1434 H1424 0.930 . S
C1434 C1433 1.400 . S
C1434 C1437 1.386 . S
H1435 C1451 0.930 . S
H1436 C1452 0.931 . S
C1437 H1425 0.929 . S
C1437 C1431 1.390 . S
C1437 C1434 1.386 . S
C1438 C1433 1.490 . S
C1438 C1440 1.395 . S
C1438 C1441 1.403 . S
H1439 C1445 0.930 . S
C1440 H1426 0.930 . S
C1440 C1438 1.395 . S
C1440 C1443 1.403 . S
C1441 C1438 1.403 . S
C1441 C1442 1.524 . S
C1441 C1445 1.400 . S
C1442 H1427 0.960 . S
C1442 H1428 0.960 . S
C1442 H1429 0.960 . S
C1442 C1441 1.524 . S
C1443 C1440 1.403 . S
C1443 C1444 1.392 . S
C1443 C1447 1.495 . S
C1444 C1443 1.392 . S
C1444 C1445 1.385 . S
C1444 C1446 1.478 . S
C1445 H1439 0.930 . S
C1445 C1441 1.400 . S
C1445 C1444 1.385 . S
C1446 C1444 1.478 . S
C1446 C1448 1.381 . S
C1446 C1452 1.383 . S
C1447 C1443 1.495 . S
C1447 H1453 0.959 . S
C1447 H1454 0.961 . S
C1447 H1455 0.960 . S
C1448 C1446 1.381 . S
C1448 C1449 1.394 . S
C1448 H1456 0.930 . S
C1449 C1448 1.394 . S
C1449 C1450 1.383 . S
C1449 H1457 0.929 . S
C1450 C1449 1.383 . S
C1450 C1451 1.377 . S
C1451 H1435 0.930 . S
C1451 C1450 1.377 . S
C1451 C1452 1.379 . S
C1452 H1436 0.931 . S
C1452 C1446 1.383 . S
C1452 C1451 1.379 . S
H1453 C1447 0.959 . S
H1454 C1447 0.961 . S
H1455 C1447 0.960 . S
H1456 C1448 0.930 . S
H1457 C1449 0.929 . S
C603 C39 1.771 . S
C622 C340 1.748 . S
C639 C91 1.746 . S
C658 C379 1.741 . S
C694 C411 1.582 . S
C675 C128 1.607 . S
C730 C457 1.545 . S
C711 C188 1.560 . S
C766 C524 1.660 . S
C747 C250 1.668 . S
C802 C563 1.702 . S
C783 C304 1.735 . S
C819 C75 1.653 . S
C838 C425 1.620 . S
C855 C144 1.759 . S
C874 C471 1.737 . S
C910 C510 1.700 . S
C891 C198 1.712 . S
C946 C549 1.527 . S
C927 C234 1.570 . S
C963 C294 1.549 . S
C982 C326 1.531 . S
C1018 C365 1.573 . S
C999 C29 1.584 . S
C1054 C464 1.747 . S
C1035 C38 1.771 . S
C1071 C92 1.745 . S
C1090 C517 1.707 . S
C1126 C570 1.580 . S
C1107 C135 1.605 . S
C1143 C181 1.560 . S
C1162 C333 1.521 . S
C1179 C251 1.665 . S
C1198 C386 1.636 . S
C1215 C303 1.737 . S
C1234 C418 1.723 . S
C1251 C82 1.653 . S
C1270 C556 1.640 . S
C1306 C319 1.750 . S
C1287 C145 1.761 . S
C1323 C197 1.710 . S
C1342 C372 1.691 . S
C1359 C241 1.572 . S
C1378 C432 1.560 . S
C1395 C287 1.551 . S
C1414 C478 1.543 . S
C1431 C22 1.585 . S
C1450 C503 1.571 . S
