# Generated by pormake.
# Topology pyr, (3,6)-cn, num edge types: 1
# Building blocks:
#     Node 0, Type 0, BuildingBlock: MIDCAF_clean_linker_0, # of connection points: 3
#     Node 1, Type 0, BuildingBlock: MIDCAF_clean_linker_0, # of connection points: 3
#     Node 2, Type 0, BuildingBlock: MIDCAF_clean_linker_0, # of connection points: 3
#     Node 3, Type 0, BuildingBlock: MIDCAF_clean_linker_0, # of connection points: 3
#     Node 4, Type 0, BuildingBlock: MIDCAF_clean_linker_0, # of connection points: 3
#     Node 5, Type 0, BuildingBlock: MIDCAF_clean_linker_0, # of connection points: 3
#     Node 6, Type 0, BuildingBlock: MIDCAF_clean_linker_0, # of connection points: 3
#     Node 7, Type 0, BuildingBlock: MIDCAF_clean_linker_0, # of connection points: 3
#     Node 8, Type 1, BuildingBlock: MIDCAF_clean_sbu_0, # of connection points: 6
#     Node 9, Type 1, BuildingBlock: MIDCAF_clean_sbu_0, # of connection points: 6
#     Node 10, Type 1, BuildingBlock: MIDCAF_clean_sbu_0, # of connection points: 6
#     Node 11, Type 1, BuildingBlock: MIDCAF_clean_sbu_0, # of connection points: 6
#     Edge 12, Type (0, 1), BuildingBlock: OJICUG_clean_linker_0, # of connection points: 2
#     Edge 13, Type (0, 1), BuildingBlock: OJICUG_clean_linker_0, # of connection points: 2
#     Edge 14, Type (0, 1), BuildingBlock: OJICUG_clean_linker_0, # of connection points: 2
#     Edge 15, Type (0, 1), BuildingBlock: OJICUG_clean_linker_0, # of connection points: 2
#     Edge 16, Type (0, 1), BuildingBlock: OJICUG_clean_linker_0, # of connection points: 2
#     Edge 17, Type (0, 1), BuildingBlock: OJICUG_clean_linker_0, # of connection points: 2
#     Edge 18, Type (0, 1), BuildingBlock: OJICUG_clean_linker_0, # of connection points: 2
#     Edge 19, Type (0, 1), BuildingBlock: OJICUG_clean_linker_0, # of connection points: 2
#     Edge 20, Type (0, 1), BuildingBlock: OJICUG_clean_linker_0, # of connection points: 2
#     Edge 21, Type (0, 1), BuildingBlock: OJICUG_clean_linker_0, # of connection points: 2
#     Edge 22, Type (0, 1), BuildingBlock: OJICUG_clean_linker_0, # of connection points: 2
#     Edge 23, Type (0, 1), BuildingBlock: OJICUG_clean_linker_0, # of connection points: 2
#     Edge 24, Type (0, 1), BuildingBlock: OJICUG_clean_linker_0, # of connection points: 2
#     Edge 25, Type (0, 1), BuildingBlock: OJICUG_clean_linker_0, # of connection points: 2
#     Edge 26, Type (0, 1), BuildingBlock: OJICUG_clean_linker_0, # of connection points: 2
#     Edge 27, Type (0, 1), BuildingBlock: OJICUG_clean_linker_0, # of connection points: 2
#     Edge 28, Type (0, 1), BuildingBlock: OJICUG_clean_linker_0, # of connection points: 2
#     Edge 29, Type (0, 1), BuildingBlock: OJICUG_clean_linker_0, # of connection points: 2
#     Edge 30, Type (0, 1), BuildingBlock: OJICUG_clean_linker_0, # of connection points: 2
#     Edge 31, Type (0, 1), BuildingBlock: OJICUG_clean_linker_0, # of connection points: 2
#     Edge 32, Type (0, 1), BuildingBlock: OJICUG_clean_linker_0, # of connection points: 2
#     Edge 33, Type (0, 1), BuildingBlock: OJICUG_clean_linker_0, # of connection points: 2
#     Edge 34, Type (0, 1), BuildingBlock: OJICUG_clean_linker_0, # of connection points: 2
#     Edge 35, Type (0, 1), BuildingBlock: OJICUG_clean_linker_0, # of connection points: 2
# Relax obj value: 0.019
# Max RMSD: 0.063
# Mean RMSD: 0.023
data_MOF--net-pyr--node1-MIDCAF_clean_sbu_0--node2-MIDCAF_clean_linker_0--edge1-OJICUG_clean_linker_0
_symmetry_space_group_name_H-M    P1
_symmetry_Int_Tables_number       1
_symmetry_cell_setting            triclinic
loop_
_symmetry_equiv_pos_as_xyz
'x, y, z'
_cell_length_a     33.797535
_cell_length_b     33.888735
_cell_length_c     33.840054
_cell_angle_alpha  89.852539
_cell_angle_beta   90.107064
_cell_angle_gamma 90.14206
loop_
_atom_site_label
_atom_site_type_symbol
_atom_site_fract_x
_atom_site_fract_y
_atom_site_fract_z
_atom_type_partial_charge
C0 C 0.15624 0.198 0.34942 0.0
C1 C 0.17798 0.1745 0.3761 0.0
C2 C 0.21963 0.17597 0.37432 0.0
C3 C 0.23882 0.19792 0.34501 0.0
H4 H 0.30257 0.15975 0.23414 0.0
H5 H 0.3518 0.12568 0.19479 0.0
H6 H 0.39662 0.23813 0.15337 0.0
H7 H 0.34538 0.2718 0.19076 0.0
H8 H 0.23475 0.30342 0.15471 0.0
H9 H 0.19489 0.35266 0.12087 0.0
H10 H 0.15801 0.39935 0.23385 0.0
H11 H 0.19578 0.3481 0.26735 0.0
H12 H 0.15785 0.23733 0.29978 0.0
H13 H 0.12423 0.19745 0.34924 0.0
H14 H 0.23759 0.15938 0.39499 0.0
H15 H 0.27083 0.19722 0.34355 0.0
N16 N 0.26952 0.22269 0.2675 0.0
N17 N 0.27007 0.27113 0.2178 0.0
N18 N 0.22088 0.272 0.26667 0.0
C19 C 0.28638 0.23853 0.23464 0.0
C20 C 0.23747 0.28815 0.23381 0.0
C21 C 0.23689 0.23941 0.28379 0.0
C22 C 0.31982 0.2184 0.21511 0.0
C23 C 0.32327 0.17715 0.21694 0.0
C24 C 0.35182 0.15761 0.19447 0.0
C25 C 0.37822 0.17892 0.17027 0.0
C26 C 0.37619 0.22047 0.17057 0.0
C27 C 0.34699 0.23991 0.19226 0.0
C28 C 0.21791 0.32161 0.21364 0.0
C29 C 0.21844 0.32454 0.17225 0.0
C30 C 0.19569 0.35309 0.15283 0.0
C31 C 0.17254 0.37998 0.17442 0.0
C32 C 0.17431 0.37851 0.21602 0.0
C33 C 0.19622 0.34931 0.23536 0.0
C34 C 0.21693 0.21994 0.31749 0.0
C35 C 0.17553 0.22077 0.32075 0.0
C36 C 0.19395 0.88354 0.69115 0.0
C37 C 0.16826 0.86181 0.66662 0.0
C38 C 0.17128 0.82031 0.66684 0.0
C39 C 0.20042 0.80133 0.68931 0.0
H40 H 0.27999 0.70263 0.68252 0.0
H41 H 0.31635 0.65 0.64963 0.0
H42 H 0.41913 0.67693 0.72107 0.0
H43 H 0.38247 0.72771 0.75487 0.0
H44 H 0.3652 0.77999 0.83639 0.0
H45 H 0.39743 0.81702 0.88935 0.0
H46 H 0.32519 0.91838 0.861 0.0
H47 H 0.29224 0.88127 0.80976 0.0
H48 H 0.24228 0.88236 0.73195 0.0
H49 H 0.19337 0.91546 0.69143 0.0
H50 H 0.1515 0.80233 0.64923 0.0
H51 H 0.2026 0.76947 0.68805 0.0
N52 N 0.27557 0.76996 0.72087 0.0
N53 N 0.32368 0.77248 0.77101 0.0
N54 N 0.27563 0.82194 0.76648 0.0
C55 C 0.30789 0.75409 0.73889 0.0
C56 C 0.30753 0.80627 0.78516 0.0
C57 C 0.2593 0.80393 0.73458 0.0
C58 C 0.32828 0.71957 0.72131 0.0
C59 C 0.31019 0.69684 0.69156 0.0
C60 C 0.33116 0.66678 0.6725 0.0
C61 C 0.37087 0.65903 0.68243 0.0
C62 C 0.38843 0.68117 0.71298 0.0
C63 C 0.36737 0.71073 0.73232 0.0
C64 C 0.32608 0.82759 0.81872 0.0
C65 C 0.35597 0.81007 0.84182 0.0
C66 C 0.37458 0.83137 0.8721 0.0
C67 C 0.36391 0.87074 0.87976 0.0
C68 C 0.33366 0.88789 0.85687 0.0
C69 C 0.31487 0.86658 0.82703 0.0
C70 C 0.22656 0.82329 0.71291 0.0
C71 C 0.22239 0.86451 0.71427 0.0
C72 C 0.70421 0.16969 0.8672 0.0
C73 C 0.66414 0.16345 0.85759 0.0
C74 C 0.64707 0.18676 0.82759 0.0
C75 C 0.66907 0.21593 0.80835 0.0
H76 H 0.67815 0.28205 0.70111 0.0
H77 H 0.64556 0.31998 0.64912 0.0
H78 H 0.7163 0.42186 0.68014 0.0
H79 H 0.74985 0.38364 0.73046 0.0
H80 H 0.8338 0.36129 0.7797 0.0
H81 H 0.88579 0.39367 0.81789 0.0
H82 H 0.85614 0.32093 0.91883 0.0
H83 H 0.80584 0.28765 0.88036 0.0
H84 H 0.75665 0.20385 0.85696 0.0
H85 H 0.71863 0.15196 0.88962 0.0
H86 H 0.61615 0.18363 0.8198 0.0
H87 H 0.65447 0.23382 0.78615 0.0
N88 N 0.71614 0.27531 0.76854 0.0
N89 N 0.76702 0.32233 0.77237 0.0
N90 N 0.76323 0.2715 0.81936 0.0
C91 C 0.73431 0.30799 0.75382 0.0
C92 C 0.78178 0.30419 0.80506 0.0
C93 C 0.7305 0.25678 0.80122 0.0
C94 C 0.71658 0.32979 0.7201 0.0
C95 C 0.68705 0.31243 0.69643 0.0
C96 C 0.66818 0.33428 0.66673 0.0
C97 C 0.67806 0.37415 0.66029 0.0
C98 C 0.7083 0.39108 0.68344 0.0
C99 C 0.72747 0.36914 0.71269 0.0
C100 C 0.8155 0.32189 0.82694 0.0
C101 C 0.83878 0.35191 0.80991 0.0
C102 C 0.86849 0.37066 0.83191 0.0
C103 C 0.87534 0.36012 0.87159 0.0
C104 C 0.85255 0.32944 0.88818 0.0
C105 C 0.8233 0.31042 0.8661 0.0
C106 C 0.70862 0.22313 0.81897 0.0
C107 C 0.72612 0.19933 0.84828 0.0
C108 C 0.68065 0.7073 0.38926 0.0
C109 C 0.65812 0.67704 0.37174 0.0
C110 C 0.66642 0.66655 0.33238 0.0
C111 C 0.69703 0.68526 0.31152 0.0
H112 H 0.76713 0.68694 0.20161 0.0
H113 H 0.79958 0.6488 0.15012 0.0
H114 H 0.91334 0.69183 0.19046 0.0
H115 H 0.88054 0.73177 0.23975 0.0
H116 H 0.8481 0.83968 0.2726 0.0
H117 H 0.88609 0.89183 0.30445 0.0
H118 H 0.84867 0.84838 0.41886 0.0
H119 H 0.80863 0.79826 0.38663 0.0
H120 H 0.72778 0.74877 0.38342 0.0
H121 H 0.67607 0.71566 0.41976 0.0
H122 H 0.64946 0.64372 0.31771 0.0
H123 H 0.70301 0.67611 0.28149 0.0
N124 N 0.76912 0.71727 0.27545 0.0
N125 N 0.81988 0.76477 0.27484 0.0
N126 N 0.77225 0.76542 0.32505 0.0
C127 C 0.80219 0.73268 0.25838 0.0
C128 C 0.80486 0.78145 0.30801 0.0
C129 C 0.75395 0.73356 0.30885 0.0
C130 C 0.82125 0.71223 0.22483 0.0
C131 C 0.79902 0.68862 0.19895 0.0
C132 C 0.81779 0.66648 0.1696 0.0
C133 C 0.85937 0.66654 0.16612 0.0
C134 C 0.88134 0.69126 0.19141 0.0
C135 C 0.8625 0.7141 0.22006 0.0
C136 C 0.82567 0.81476 0.32713 0.0
C137 C 0.84769 0.84172 0.30454 0.0
C138 C 0.8697 0.87147 0.32293 0.0
C139 C 0.87117 0.87427 0.36447 0.0
C140 C 0.84801 0.84786 0.3869 0.0
C141 C 0.82521 0.81877 0.36841 0.0
C142 C 0.71981 0.71509 0.32946 0.0
C143 C 0.71078 0.7262 0.36839 0.0
C144 C 0.78516 0.99895 0.91605 0.0
C145 C 0.76956 0.9929 0.95403 0.0
C146 C 0.78876 0.96649 0.97977 0.0
C147 C 0.82238 0.94611 0.96774 0.0
H148 H 0.87293 0.83207 0.97982 0.0
H149 H 0.89288 0.77141 0.01398 0.0
H150 H 0.00637 0.7767 0.95577 0.0
H151 H 0.9868 0.83674 0.92192 0.0
H152 H 0.97897 0.87535 0.8294 0.0
H153 H 0.01362 0.89529 0.76903 0.0
H154 H 0.9569 0.0092 0.77424 0.0
H155 H 0.92253 0.98964 0.83408 0.0
H156 H 0.83042 0.9838 0.87452 0.0
H157 H 0.7709 0.01905 0.89561 0.0
H158 H 0.77706 0.96058 0.00898 0.0
H159 H 0.836 0.92568 0.9883 0.0
N160 N 0.88422 0.89621 0.93734 0.0
N161 N 0.93651 0.88628 0.89307 0.0
N162 N 0.8936 0.93985 0.88425 0.0
C163 C 0.91604 0.87483 0.92569 0.0
C164 C 0.92552 0.91874 0.87222 0.0
C165 C 0.87283 0.92881 0.9168 0.0
C166 C 0.92824 0.83919 0.94799 0.0
C167 C 0.90228 0.82043 0.97464 0.0
C168 C 0.91359 0.7857 0.99414 0.0
C169 C 0.95127 0.76955 0.98785 0.0
C170 C 0.97738 0.7888 0.96183 0.0
C171 C 0.96598 0.82306 0.94207 0.0
C172 C 0.94784 0.93088 0.83654 0.0
C173 C 0.97418 0.90478 0.81782 0.0
C174 C 0.99397 0.91608 0.78323 0.0
C175 C 0.98828 0.95388 0.76717 0.0
C176 C 0.96249 0.98009 0.78631 0.0
C177 C 0.94244 0.96872 0.82045 0.0
C178 C 0.83791 0.95175 0.92968 0.0
C179 C 0.81925 0.9788 0.90409 0.0
C180 C 0.57926 0.06016 0.29104 0.0
C181 C 0.5528 0.08546 0.27138 0.0
C182 C 0.54518 0.12284 0.28745 0.0
C183 C 0.56388 0.13467 0.32248 0.0
H184 H 0.54814 0.20176 0.42647 0.0
H185 H 0.5262 0.26093 0.45988 0.0
H186 H 0.63848 0.26927 0.52048 0.0
H187 H 0.66088 0.20956 0.48662 0.0
H188 H 0.70529 0.12021 0.49216 0.0
H189 H 0.76596 0.08728 0.51181 0.0
H190 H 0.77038 0.02773 0.39925 0.0
H191 H 0.70928 0.06089 0.37923 0.0
H192 H 0.61876 0.0519 0.33958 0.0
H193 H 0.58633 0.03144 0.27901 0.0
H194 H 0.52496 0.14292 0.27286 0.0
H195 H 0.55774 0.16379 0.33403 0.0
N196 N 0.60011 0.15402 0.39853 0.0
N197 N 0.6532 0.14631 0.44261 0.0
N198 N 0.64569 0.1029 0.38927 0.0
C199 C 0.62018 0.16612 0.43121 0.0
C200 C 0.66612 0.1146 0.42178 0.0
C201 C 0.61265 0.12241 0.37746 0.0
C202 C 0.60636 0.20096 0.45364 0.0
C203 C 0.56819 0.21589 0.44708 0.0
C204 C 0.55542 0.24966 0.46662 0.0
C205 C 0.5805 0.26959 0.49313 0.0
C206 C 0.61853 0.25448 0.50024 0.0
C207 C 0.63125 0.22028 0.4809 0.0
C208 C 0.70239 0.09333 0.43408 0.0
C209 C 0.71894 0.09999 0.47157 0.0
C210 C 0.75357 0.08079 0.48299 0.0
C211 C 0.77272 0.05462 0.45717 0.0
C212 C 0.75621 0.04772 0.41972 0.0
C213 C 0.72119 0.06667 0.40838 0.0
C214 C 0.59102 0.10955 0.34162 0.0
C215 C 0.5982 0.07207 0.32561 0.0
C216 C 0.28429 0.54553 0.11697 0.0
C217 C 0.26803 0.55406 0.07971 0.0
C218 C 0.2877 0.58096 0.05484 0.0
C219 C 0.32245 0.59948 0.06712 0.0
H220 H 0.49016 0.70394 0.11987 0.0
H221 H 0.51171 0.76434 0.08792 0.0
H222 H 0.4022 0.76943 0.02218 0.0
H223 H 0.38015 0.70847 0.0545 0.0
H224 H 0.48373 0.65912 0.20654 0.0
H225 H 0.51641 0.63681 0.26719 0.0
H226 H 0.45228 0.52662 0.2606 0.0
H227 H 0.42003 0.54846 0.20039 0.0
H228 H 0.33107 0.55694 0.15821 0.0
H229 H 0.26975 0.5249 0.1367 0.0
H230 H 0.27555 0.58869 0.02621 0.0
H231 H 0.33642 0.62043 0.0473 0.0
N232 N 0.38729 0.64535 0.09846 0.0
N233 N 0.43983 0.65217 0.14328 0.0
N234 N 0.39487 0.59986 0.15022 0.0
C235 C 0.41989 0.66529 0.1109 0.0
C236 C 0.42757 0.61946 0.16305 0.0
C237 C 0.37461 0.61256 0.11795 0.0
C238 C 0.43337 0.7013 0.08988 0.0
C239 C 0.47063 0.71762 0.09846 0.0
C240 C 0.48319 0.75212 0.07981 0.0
C241 C 0.4588 0.77139 0.05219 0.0
C242 C 0.42159 0.75512 0.0433 0.0
C243 C 0.40909 0.72021 0.06176 0.0
C244 C 0.44909 0.60563 0.19865 0.0
C245 C 0.47694 0.62996 0.21784 0.0
C246 C 0.49562 0.61729 0.2526 0.0
C247 C 0.4872 0.57987 0.26847 0.0
C248 C 0.46002 0.55534 0.24875 0.0
C249 C 0.44116 0.56806 0.21437 0.0
C250 C 0.3386 0.59143 0.10453 0.0
C251 C 0.31944 0.56382 0.12916 0.0
C252 C 0.12011 0.28721 0.54589 0.0
C253 C 0.08289 0.27014 0.55295 0.0
C254 C 0.05678 0.28885 0.57917 0.0
C255 C 0.06769 0.32359 0.59829 0.0
H256 H 0.05249 0.3795 0.70817 0.0
H257 H 0.01828 0.40001 0.76841 0.0
H258 H 0.07676 0.51329 0.76209 0.0
H259 H 0.1106 0.4932 0.70234 0.0
H260 H 0.2025 0.48709 0.6616 0.0
H261 H 0.263 0.5209 0.6402 0.0
H262 H 0.25653 0.46025 0.52826 0.0
H263 H 0.19663 0.42692 0.54921 0.0
H264 H 0.15992 0.33474 0.55892 0.0
H265 H 0.1408 0.27336 0.52587 0.0
H266 H 0.02815 0.27602 0.58579 0.0
H267 H 0.04689 0.33688 0.61858 0.0
N268 N 0.09601 0.38901 0.64507 0.0
N269 N 0.13879 0.44309 0.65263 0.0
N270 N 0.14847 0.39838 0.60081 0.0
C271 C 0.10683 0.42203 0.66508 0.0
C272 C 0.1597 0.43149 0.62047 0.0
C273 C 0.11668 0.37701 0.61287 0.0
C274 C 0.08447 0.43467 0.70048 0.0
C275 C 0.05773 0.40893 0.71946 0.0
C276 C 0.03817 0.42057 0.75397 0.0
C277 C 0.04453 0.45834 0.76977 0.0
C278 C 0.07061 0.48424 0.75027 0.0
C279 C 0.09038 0.47254 0.71617 0.0
C280 C 0.19483 0.4541 0.60719 0.0
C281 C 0.21379 0.48139 0.63225 0.0
C282 C 0.24844 0.50068 0.6201 0.0
C283 C 0.26432 0.49352 0.58246 0.0
C284 C 0.24468 0.46704 0.55717 0.0
C285 C 0.21049 0.44754 0.56938 0.0
C286 C 0.10494 0.3407 0.59151 0.0
C287 C 0.13093 0.32237 0.56476 0.0
Zn288 Zn 0.97996 0.062 0.56284 0.0
Zn289 Zn 0.06609 0.9779 0.4742 0.0
Zn290 Zn 0.02158 0.02111 0.51986 0.0
C291 C 0.09263 0.05488 0.46408 0.0
C292 C 0.98892 0.96636 0.44796 0.0
O293 O 0.02775 0.99998 0.58233 0.0
O294 O 1.00057 0.04903 0.61531 0.0
C295 C 0.02391 0.11642 0.52491 0.0
O296 O 0.06411 0.06105 0.48861 0.0
O297 O 0.10071 0.02015 0.45344 0.0
O298 O 0.02401 0.95705 0.43941 0.0
O299 O 0.98214 0.98997 0.47702 0.0
O300 O 0.99168 0.11516 0.54346 0.0
O301 O 0.04123 0.08407 0.51484 0.0
O302 O 0.95854 0.01564 0.50022 0.0
O303 O 0.92698 0.04194 0.55072 0.0
C304 C 0.92595 0.02462 0.51785 0.0
O305 O 0.05359 0.9777 0.55802 0.0
O306 O 0.08775 0.94235 0.5152 0.0
C307 C 0.01858 0.01655 0.61538 0.0
C308 C 0.07792 0.9494 0.55043 0.0
Zn309 Zn 0.47565 0.06223 0.97656 0.0
Zn310 Zn 0.56758 0.97815 0.06517 0.0
Zn311 Zn 0.52288 0.01981 0.02325 0.0
C312 C 0.61862 0.01916 0.01877 0.0
C313 C 0.52227 0.92413 0.0273 0.0
O314 O 0.49098 0.06253 0.06144 0.0
O315 O 0.45756 0.09888 0.0185 0.0
C316 C 0.55258 0.07208 0.94827 0.0
O317 O 0.5851 0.02767 0.00262 0.0
O318 O 0.61951 1.0001 0.05078 0.0
O319 O 0.55487 0.92501 0.04544 0.0
O320 O 0.50474 0.95667 0.01815 0.0
O321 O 0.5173 0.07992 0.9388 0.0
O322 O 0.56 0.051 0.97916 0.0
O323 O 0.48039 0.97951 0.99357 0.0
O324 O 0.43954 0.01873 0.96074 0.0
C325 C 0.44982 0.9845 0.97128 0.0
O326 O 0.5173 0.04021 0.0855 0.0
O327 O 0.54732 0.99199 0.11769 0.0
C328 C 0.46728 0.09135 0.05379 0.0
C329 C 0.52787 0.02367 0.11821 0.0
Zn330 Zn 0.55914 0.56308 0.5619 0.0
Zn331 Zn 0.46972 0.47284 0.47553 0.0
Zn332 Zn 0.51309 0.51655 0.51737 0.0
C333 C 0.51558 0.42114 0.51668 0.0
C334 C 0.51015 0.51739 0.42194 0.0
O335 O 0.47501 0.54759 0.5605 0.0
O336 O 0.51704 0.57855 0.60006 0.0
C337 C 0.58764 0.48592 0.56935 0.0
O338 O 0.53257 0.45424 0.52486 0.0
O339 O 0.48319 0.42086 0.49813 0.0
O340 O 0.49115 0.48533 0.42278 0.0
O341 O 0.51929 0.53487 0.4545 0.0
O342 O 0.59732 0.52099 0.5775 0.0
O343 O 0.55654 0.47881 0.54843 0.0
O344 O 0.54364 0.55902 0.47799 0.0
O345 O 0.57396 0.60036 0.51863 0.0
C346 C 0.56496 0.59003 0.48391 0.0
O347 O 0.45066 0.52376 0.53686 0.0
O348 O 0.41745 0.49491 0.48863 0.0
C349 C 0.48197 0.56925 0.591 0.0
C350 C 0.41758 0.51464 0.52017 0.0
Zn351 Zn 0.05861 0.56545 0.97451 0.0
Zn352 Zn 0.97462 0.47474 0.06234 0.0
Zn353 Zn 0.01815 0.52235 0.01813 0.0
C354 C 0.0526 0.46716 0.08893 0.0
C355 C 0.96549 0.44855 0.98535 0.0
O356 O 0.99691 0.5843 0.02486 0.0
O357 O 0.04507 0.61745 0.99568 0.0
C358 C 0.11363 0.52799 0.01893 0.0
O359 O 0.05865 0.49147 0.06013 0.0
O360 O 0.01785 0.45624 0.09722 0.0
O361 O 0.95609 0.43861 0.02006 0.0
O362 O 0.98757 0.47906 0.97932 0.0
O363 O 0.11201 0.54616 0.98644 0.0
O364 O 0.08141 0.51791 0.03673 0.0
O365 O 0.01101 0.5033 0.95525 0.0
O366 O 0.03722 0.55296 0.92201 0.0
C367 C 0.01905 0.52046 0.92213 0.0
O368 O 0.97488 0.5595 0.05079 0.0
O369 O 0.93822 0.51579 0.08285 0.0
C370 C 0.01323 0.61734 0.01497 0.0
C371 C 0.94595 0.55128 0.0743 0.0
C372 C 0.11941 0.15374 0.41814 0.0
C373 C 0.15746 0.14599 0.403 0.0
H374 H 0.0684 0.13054 0.44784 0.0
C375 C 0.17465 0.10906 0.41118 0.0
H376 H 0.10519 0.18187 0.41294 0.0
C377 C 0.15414 0.08049 0.43273 0.0
C378 C 0.11564 0.08768 0.4464 0.0
H379 H 0.20335 0.10125 0.39948 0.0
H380 H 0.16806 0.0521 0.43756 0.0
C381 C 0.09855 0.12468 0.43911 0.0
C382 C 0.36542 0.92469 0.93058 0.0
C383 C 0.38546 0.89505 0.90959 0.0
H384 H 0.37036 0.97638 0.96655 0.0
C385 C 0.42675 0.89171 0.91444 0.0
H386 H 0.33356 0.92748 0.92868 0.0
C387 C 0.44767 0.9192 0.93726 0.0
C388 C 0.42772 0.95064 0.95523 0.0
H389 H 0.4433 0.86946 0.89866 0.0
H390 H 0.47965 0.91745 0.93857 0.0
C391 C 0.38638 0.9525 0.95265 0.0
C392 C 0.67437 0.43014 0.61138 0.0
C393 C 0.65554 0.39896 0.63154 0.0
H394 H 0.66745 0.48215 0.57594 0.0
C395 C 0.61439 0.39401 0.6266 0.0
H396 H 0.70608 0.43433 0.61342 0.0
C397 C 0.59246 0.42095 0.60411 0.0
C398 C 0.61115 0.45352 0.58648 0.0
H399 H 0.59867 0.37067 0.64186 0.0
H400 H 0.56061 0.41765 0.60254 0.0
C401 C 0.65235 0.45738 0.58956 0.0
C402 C 0.91712 0.64826 0.12218 0.0
C403 C 0.87991 0.63887 0.13856 0.0
H404 H 0.96795 0.62744 0.09098 0.0
C405 C 0.8638 0.60132 0.13081 0.0
H406 H 0.93049 0.67692 0.12687 0.0
C407 C 0.8846 0.57378 0.10839 0.0
C408 C 0.92235 0.58267 0.09346 0.0
H409 H 0.83578 0.59229 0.14339 0.0
H410 H 0.87152 0.54493 0.10381 0.0
C411 C 0.93833 0.62024 0.10052 0.0
C412 C 0.42066 0.12034 0.15146 0.0
C413 C 0.40526 0.15795 0.14243 0.0
H414 H 0.45072 0.06912 0.13005 0.0
C415 C 0.4134 0.17419 0.10497 0.0
H416 H 0.41555 0.10686 0.18003 0.0
C417 C 0.4352 0.15317 0.07714 0.0
C418 C 0.44915 0.11508 0.08564 0.0
H419 H 0.40151 0.20253 0.09622 0.0
H420 H 0.44003 0.16635 0.04833 0.0
C421 C 0.44182 0.09895 0.12315 0.0
C422 C 0.13295 0.86666 0.60122 0.0
C423 C 0.14078 0.88254 0.63883 0.0
H424 H 0.10627 0.87488 0.54453 0.0
C425 C 0.12468 0.91975 0.64811 0.0
H426 H 0.14529 0.83863 0.59233 0.0
C427 C 0.10331 0.94123 0.61988 0.0
C428 C 0.09634 0.92553 0.5822 0.0
H429 H 0.12945 0.93291 0.67684 0.0
H430 H 0.09404 0.97085 0.62694 0.0
C431 C 0.11086 0.88774 0.57346 0.0
C432 C 0.90869 0.42351 0.89259 0.0
C433 C 0.90414 0.38232 0.89665 0.0
H434 H 0.93227 0.47686 0.9175 0.0
C435 C 0.92468 0.36304 0.92731 0.0
H436 H 0.89318 0.43955 0.86963 0.0
C437 C 0.94631 0.3846 0.95505 0.0
C438 C 0.94888 0.4258 0.95218 0.0
H439 H 0.92299 0.33131 0.93077 0.0
H440 H 0.96011 0.36913 0.97949 0.0
C441 C 0.93105 0.44501 0.92002 0.0
C442 C 0.60678 0.67492 0.42545 0.0
C443 C 0.62807 0.65526 0.39571 0.0
H444 H 0.57022 0.66944 0.47683 0.0
C445 C 0.62326 0.61411 0.39195 0.0
H446 H 0.6086 0.70666 0.42856 0.0
C447 C 0.60013 0.59296 0.41906 0.0
C448 C 0.58181 0.61251 0.4506 0.0
H449 H 0.63925 0.59783 0.36964 0.0
H450 H 0.59878 0.5611 0.41691 0.0
C451 C 0.58443 0.65371 0.45291 0.0
C452 C 0.10724 0.41529 0.17121 0.0
C453 C 0.14404 0.40681 0.15382 0.0
H454 H 0.05029 0.44173 0.16473 0.0
C455 C 0.15163 0.42152 0.11554 0.0
H456 H 0.09955 0.40392 0.20011 0.0
C457 C 0.12249 0.44233 0.09465 0.0
C458 C 0.08559 0.44989 0.11195 0.0
H459 H 0.17967 0.41611 0.10116 0.0
H460 H 0.12819 0.45074 0.06436 0.0
C461 C 0.0786 0.43669 0.15067 0.0
C462 C 0.6078 0.11484 0.86148 0.0
C463 C 0.6393 0.13471 0.88015 0.0
H464 H 0.55562 0.07954 0.8686 0.0
C465 C 0.6446 0.12941 0.92116 0.0
H466 H 0.60334 0.11713 0.82987 0.0
C467 C 0.61772 0.10684 0.94315 0.0
C468 C 0.58484 0.0895 0.92465 0.0
H469 H 0.66819 0.14444 0.93676 0.0
H470 H 0.62132 0.10497 0.97491 0.0
C471 C 0.58061 0.09296 0.88356 0.0
C472 C 0.89088 0.91801 0.42194 0.0
C473 C 0.8991 0.90225 0.3843 0.0
H474 H 0.91333 0.9491 0.47228 0.0
C475 C 0.93592 0.91099 0.36694 0.0
H476 H 0.86278 0.91251 0.43623 0.0
C477 C 0.964 0.93361 0.38696 0.0
C478 C 0.95644 0.94778 0.42517 0.0
H479 H 0.94406 0.89891 0.33853 0.0
H480 H 0.99235 0.93882 0.37297 0.0
C481 C 0.91948 0.93999 0.44235 0.0
C482 C 0.39008 0.62596 0.61842 0.0
C483 C 0.39507 0.63016 0.65958 0.0
H484 H 0.41363 0.60274 0.56437 0.0
C485 C 0.42599 0.60934 0.67812 0.0
H486 H 0.36692 0.64168 0.60289 0.0
C487 C 0.45315 0.58788 0.65584 0.0
C488 C 0.44938 0.58569 0.61464 0.0
H489 H 0.43015 0.61069 0.70982 0.0
H490 H 0.47785 0.5739 0.67072 0.0
C491 C 0.41689 0.60372 0.59621 0.0
C492 C 0.00413 0.94145 0.69577 0.0
C493 C 0.00679 0.96585 0.72927 0.0
H494 H 0.0067 0.93857 0.63241 0.0
C495 C 0.02202 0.0042 0.72499 0.0
H496 H 0.99252 0.91173 0.69824 0.0
C497 C 0.02999 0.01942 0.68756 0.0
C498 C 0.02325 0.99649 0.65373 0.0
H499 H 0.02519 0.02336 0.75039 0.0
H500 H 0.03866 0.05012 0.68487 0.0
C501 C 0.01233 0.95672 0.65813 0.0
C502 C 0.52249 0.03417 0.22796 0.0
C503 C 0.53576 0.07314 0.23292 0.0
H504 H 0.50881 0.9881 0.18708 0.0
C505 C 0.53812 0.09807 0.19967 0.0
H506 H 0.51962 0.01456 0.25313 0.0
C507 C 0.53147 0.08294 0.16173 0.0
C508 C 0.52236 0.04282 0.15677 0.0
H509 H 0.54829 0.12825 0.20264 0.0
H510 H 0.53673 0.10169 0.13629 0.0
C511 C 0.51607 0.0191 0.19022 0.0
C512 C 0.51562 0.52745 0.31204 0.0
C513 C 0.50402 0.5669 0.30688 0.0
H514 H 0.52747 0.48093 0.35314 0.0
C515 C 0.50312 0.59195 0.33998 0.0
H516 H 0.51747 0.5077 0.28699 0.0
C517 C 0.50939 0.57665 0.37796 0.0
C518 C 0.51655 0.53618 0.38319 0.0
H519 H 0.49429 0.62251 0.33691 0.0
H520 H 0.50505 0.59568 0.40325 0.0
C521 C 0.5216 0.5122 0.34984 0.0
C522 C 0.01283 0.50916 0.81257 0.0
C523 C 0.02671 0.47043 0.8079 0.0
H524 H 0.99858 0.55522 0.85311 0.0
C525 C 0.02898 0.44565 0.84127 0.0
H526 H 0.0099 0.52862 0.78729 0.0
C527 C 0.02195 0.46083 0.87909 0.0
C528 C 0.01267 0.5009 0.88383 0.0
H529 H 0.03953 0.41563 0.83856 0.0
H530 H 0.02746 0.44227 0.90462 0.0
C531 C 0.00607 0.52429 0.85019 0.0
C532 C 0.69804 0.00932 0.94233 0.0
C533 C 0.73186 0.01137 0.96657 0.0
H534 H 0.63457 0.01114 0.9401 0.0
C535 C 0.72796 0.02542 0.00536 0.0
H536 H 0.70017 0.99865 0.91227 0.0
C537 C 0.69061 0.03241 0.02118 0.0
C538 C 0.6565 0.02589 0.99839 0.0
H539 H 0.75361 0.02816 0.02442 0.0
H540 H 0.68825 0.03987 0.05221 0.0
C541 C 0.66048 0.0166 0.95819 0.0
C542 C 0.84406 0.03871 0.444 0.0
C543 C 0.81095 0.03677 0.4691 0.0
H544 H 0.90739 0.03554 0.43993 0.0
C545 C 0.81585 0.02252 0.50778 0.0
H546 H 0.84112 0.04956 0.41401 0.0
C547 C 0.85353 0.01457 0.52246 0.0
C548 C 0.88703 0.02044 0.49868 0.0
H549 H 0.79074 0.0199 0.52749 0.0
H550 H 0.8567 0.00648 0.55331 0.0
C551 C 0.88196 0.03059 0.45875 0.0
C552 C 0.19642 0.53878 0.09253 0.0
C553 C 0.22937 0.53741 0.0672 0.0
H554 H 0.13308 0.53626 0.09689 0.0
C555 C 0.22397 0.52511 0.02797 0.0
H556 H 0.19973 0.5482 0.12292 0.0
C557 C 0.18604 0.51839 0.01321 0.0
C558 C 0.15282 0.52349 0.03746 0.0
H559 H 0.24891 0.523 0.00803 0.0
H560 H 0.18254 0.51164 0.98212 0.0
C561 C 0.15831 0.53191 0.0777 0.0
C562 C 0.30798 0.52316 0.53078 0.0
C563 C 0.30282 0.51058 0.57002 0.0
H564 H 0.3491 0.53502 0.48429 0.0
C565 C 0.33608 0.50844 0.59503 0.0
H566 H 0.28282 0.52596 0.51109 0.0
C567 C 0.37415 0.51422 0.57972 0.0
C568 C 0.37925 0.52211 0.5393 0.0
H569 H 0.33301 0.49885 0.62543 0.0
H570 H 0.39951 0.50883 0.59858 0.0
C571 C 0.34585 0.5286 0.51551 0.0
C572 C 0.93837 0.69808 0.00308 0.0
C573 C 0.96315 0.7314 0.00581 0.0
H574 H 0.93501 0.63478 0.00472 0.0
C575 C 0.00181 0.72672 0.02031 0.0
H576 H 0.90842 0.70085 0.992 0.0
C577 C 0.01691 0.68914 0.02742 0.0
C578 C 0.99352 0.65558 0.02057 0.0
H579 H 0.02129 0.75196 0.02351 0.0
H580 H 0.04781 0.68619 0.03547 0.0
C581 C 0.95351 0.6603 0.01042 0.0
C582 C 0.51145 0.81437 0.02331 0.0
C583 C 0.47191 0.80956 0.03508 0.0
H584 H 0.55828 0.85498 0.01078 0.0
C585 C 0.44699 0.84275 0.03579 0.0
H586 H 0.5311 0.78921 0.02165 0.0
C587 C 0.46254 0.88055 0.02912 0.0
C588 C 0.50313 0.88545 0.02168 0.0
H589 H 0.41636 0.8399 0.04473 0.0
H590 H 0.44363 0.90596 0.03326 0.0
C591 C 0.52694 0.85196 0.01686 0.0
C592 C 0.09702 0.19906 0.53757 0.0
C593 C 0.0715 0.23175 0.53529 0.0
H594 H 0.10177 0.13589 0.53523 0.0
C595 C 0.0328 0.22623 0.52117 0.0
H596 H 0.12702 0.20249 0.54834 0.0
C597 C 0.0185 0.18838 0.51381 0.0
C598 C 0.04269 0.15535 0.52006 0.0
H599 H 0.01277 0.25099 0.51831 0.0
H600 H 0.98762 0.18472 0.50589 0.0
C601 C 0.08265 0.16099 0.53 0.0
C602 C 0.5918 0.34121 0.50858 0.0
C603 C 0.56737 0.30756 0.51044 0.0
H604 H 0.5943 0.40449 0.50985 0.0
C605 C 0.52811 0.31177 0.52324 0.0
H606 H 0.6222 0.33888 0.49882 0.0
C607 C 0.51223 0.34917 0.52938 0.0
C608 C 0.53542 0.38304 0.52328 0.0
H609 H 0.50886 0.28629 0.52583 0.0
H610 H 0.481 0.35171 0.53609 0.0
C611 C 0.57588 0.37878 0.515 0.0
loop_
_geom_bond_atom_site_label_1
_geom_bond_atom_site_label_2
_geom_bond_distance
_geom_bond_site_symmetry_2
_ccdc_geom_bond_type
C0 C1 1.384 . S
C0 H13 0.947 . S
C0 C35 1.382 . S
C1 C0 1.384 . S
C1 C2 1.378 . S
C2 C1 1.378 . S
C2 C3 1.378 . S
C2 H14 0.952 . S
C3 C2 1.378 . S
C3 H15 0.950 . S
C3 C34 1.383 . S
H4 C23 0.947 . S
H5 C24 0.946 . S
H6 C26 0.953 . S
H7 C27 0.945 . S
H8 C29 0.952 . S
H9 C30 0.949 . S
H10 C32 0.950 . S
H11 C33 0.948 . S
H12 C35 0.951 . S
H13 C0 0.947 . S
H14 C2 0.952 . S
H15 C3 0.950 . S
N16 C19 1.382 . S
N16 C21 1.363 . S
N17 C19 1.371 . S
N17 C20 1.372 . S
N18 C20 1.361 . S
N18 C21 1.377 . S
C19 N16 1.382 . S
C19 N17 1.371 . S
C19 C22 1.480 . S
C20 N17 1.372 . S
C20 N18 1.361 . S
C20 C28 1.457 . S
C21 N16 1.363 . S
C21 N18 1.377 . S
C21 C34 1.479 . S
C22 C19 1.480 . S
C22 C23 1.383 . S
C22 C27 1.385 . S
C23 H4 0.947 . S
C23 C22 1.383 . S
C23 C24 1.388 . S
C24 H5 0.946 . S
C24 C23 1.388 . S
C24 C25 1.384 . S
C25 C24 1.384 . S
C25 C26 1.377 . S
C26 H6 0.953 . S
C26 C25 1.377 . S
C26 C27 1.369 . S
C27 H7 0.945 . S
C27 C22 1.385 . S
C27 C26 1.369 . S
C28 C20 1.457 . S
C28 C29 1.372 . S
C28 C33 1.364 . S
C29 H8 0.952 . S
C29 C28 1.372 . S
C29 C30 1.389 . S
C30 H9 0.949 . S
C30 C29 1.389 . S
C30 C31 1.387 . S
C31 C30 1.387 . S
C31 C32 1.372 . S
C32 H10 0.950 . S
C32 C31 1.372 . S
C32 C33 1.379 . S
C33 H11 0.948 . S
C33 C28 1.364 . S
C33 C32 1.379 . S
C34 C3 1.383 . S
C34 C21 1.479 . S
C34 C35 1.398 . S
C35 C0 1.382 . S
C35 H12 0.951 . S
C35 C34 1.398 . S
C36 C37 1.384 . S
C36 H49 0.947 . S
C36 C71 1.382 . S
C37 C36 1.384 . S
C37 C38 1.378 . S
C38 C37 1.378 . S
C38 C39 1.378 . S
C38 H50 0.952 . S
C39 C38 1.378 . S
C39 H51 0.950 . S
C39 C70 1.383 . S
H40 C59 0.947 . S
H41 C60 0.946 . S
H42 C62 0.953 . S
H43 C63 0.945 . S
H44 C65 0.952 . S
H45 C66 0.949 . S
H46 C68 0.950 . S
H47 C69 0.948 . S
H48 C71 0.951 . S
H49 C36 0.947 . S
H50 C38 0.952 . S
H51 C39 0.950 . S
N52 C55 1.382 . S
N52 C57 1.363 . S
N53 C55 1.371 . S
N53 C56 1.372 . S
N54 C56 1.361 . S
N54 C57 1.377 . S
C55 N52 1.382 . S
C55 N53 1.371 . S
C55 C58 1.480 . S
C56 N53 1.372 . S
C56 N54 1.361 . S
C56 C64 1.457 . S
C57 N52 1.363 . S
C57 N54 1.377 . S
C57 C70 1.479 . S
C58 C55 1.480 . S
C58 C59 1.383 . S
C58 C63 1.385 . S
C59 H40 0.947 . S
C59 C58 1.383 . S
C59 C60 1.388 . S
C60 H41 0.946 . S
C60 C59 1.388 . S
C60 C61 1.384 . S
C61 C60 1.384 . S
C61 C62 1.377 . S
C62 H42 0.953 . S
C62 C61 1.377 . S
C62 C63 1.369 . S
C63 H43 0.945 . S
C63 C58 1.385 . S
C63 C62 1.369 . S
C64 C56 1.457 . S
C64 C65 1.372 . S
C64 C69 1.364 . S
C65 H44 0.952 . S
C65 C64 1.372 . S
C65 C66 1.389 . S
C66 H45 0.949 . S
C66 C65 1.389 . S
C66 C67 1.387 . S
C67 C66 1.387 . S
C67 C68 1.372 . S
C68 H46 0.950 . S
C68 C67 1.372 . S
C68 C69 1.379 . S
C69 H47 0.948 . S
C69 C64 1.364 . S
C69 C68 1.379 . S
C70 C39 1.383 . S
C70 C57 1.479 . S
C70 C71 1.398 . S
C71 C36 1.382 . S
C71 H48 0.951 . S
C71 C70 1.398 . S
C72 C73 1.384 . S
C72 H85 0.947 . S
C72 C107 1.382 . S
C73 C72 1.384 . S
C73 C74 1.378 . S
C74 C73 1.378 . S
C74 C75 1.378 . S
C74 H86 0.952 . S
C75 C74 1.378 . S
C75 H87 0.950 . S
C75 C106 1.383 . S
H76 C95 0.947 . S
H77 C96 0.946 . S
H78 C98 0.953 . S
H79 C99 0.945 . S
H80 C101 0.952 . S
H81 C102 0.949 . S
H82 C104 0.950 . S
H83 C105 0.948 . S
H84 C107 0.951 . S
H85 C72 0.947 . S
H86 C74 0.952 . S
H87 C75 0.950 . S
N88 C91 1.382 . S
N88 C93 1.363 . S
N89 C91 1.371 . S
N89 C92 1.372 . S
N90 C92 1.361 . S
N90 C93 1.377 . S
C91 N88 1.382 . S
C91 N89 1.371 . S
C91 C94 1.480 . S
C92 N89 1.372 . S
C92 N90 1.361 . S
C92 C100 1.457 . S
C93 N88 1.363 . S
C93 N90 1.377 . S
C93 C106 1.479 . S
C94 C91 1.480 . S
C94 C95 1.383 . S
C94 C99 1.385 . S
C95 H76 0.947 . S
C95 C94 1.383 . S
C95 C96 1.388 . S
C96 H77 0.946 . S
C96 C95 1.388 . S
C96 C97 1.384 . S
C97 C96 1.384 . S
C97 C98 1.377 . S
C98 H78 0.953 . S
C98 C97 1.377 . S
C98 C99 1.369 . S
C99 H79 0.945 . S
C99 C94 1.385 . S
C99 C98 1.369 . S
C100 C92 1.457 . S
C100 C101 1.372 . S
C100 C105 1.364 . S
C101 H80 0.952 . S
C101 C100 1.372 . S
C101 C102 1.389 . S
C102 H81 0.949 . S
C102 C101 1.389 . S
C102 C103 1.387 . S
C103 C102 1.387 . S
C103 C104 1.372 . S
C104 H82 0.950 . S
C104 C103 1.372 . S
C104 C105 1.379 . S
C105 H83 0.948 . S
C105 C100 1.364 . S
C105 C104 1.379 . S
C106 C75 1.383 . S
C106 C93 1.479 . S
C106 C107 1.398 . S
C107 C72 1.382 . S
C107 H84 0.951 . S
C107 C106 1.398 . S
C108 C109 1.384 . S
C108 H121 0.947 . S
C108 C143 1.382 . S
C109 C108 1.384 . S
C109 C110 1.378 . S
C110 C109 1.378 . S
C110 C111 1.378 . S
C110 H122 0.952 . S
C111 C110 1.378 . S
C111 H123 0.950 . S
C111 C142 1.383 . S
H112 C131 0.947 . S
H113 C132 0.946 . S
H114 C134 0.953 . S
H115 C135 0.945 . S
H116 C137 0.952 . S
H117 C138 0.949 . S
H118 C140 0.950 . S
H119 C141 0.948 . S
H120 C143 0.951 . S
H121 C108 0.947 . S
H122 C110 0.952 . S
H123 C111 0.950 . S
N124 C127 1.382 . S
N124 C129 1.363 . S
N125 C127 1.371 . S
N125 C128 1.372 . S
N126 C128 1.361 . S
N126 C129 1.377 . S
C127 N124 1.382 . S
C127 N125 1.371 . S
C127 C130 1.480 . S
C128 N125 1.372 . S
C128 N126 1.361 . S
C128 C136 1.457 . S
C129 N124 1.363 . S
C129 N126 1.377 . S
C129 C142 1.479 . S
C130 C127 1.480 . S
C130 C131 1.383 . S
C130 C135 1.385 . S
C131 H112 0.947 . S
C131 C130 1.383 . S
C131 C132 1.388 . S
C132 H113 0.946 . S
C132 C131 1.388 . S
C132 C133 1.384 . S
C133 C132 1.384 . S
C133 C134 1.377 . S
C134 H114 0.953 . S
C134 C133 1.377 . S
C134 C135 1.369 . S
C135 H115 0.945 . S
C135 C130 1.385 . S
C135 C134 1.369 . S
C136 C128 1.457 . S
C136 C137 1.372 . S
C136 C141 1.364 . S
C137 H116 0.952 . S
C137 C136 1.372 . S
C137 C138 1.389 . S
C138 H117 0.949 . S
C138 C137 1.389 . S
C138 C139 1.387 . S
C139 C138 1.387 . S
C139 C140 1.372 . S
C140 H118 0.950 . S
C140 C139 1.372 . S
C140 C141 1.379 . S
C141 H119 0.948 . S
C141 C136 1.364 . S
C141 C140 1.379 . S
C142 C111 1.383 . S
C142 C129 1.479 . S
C142 C143 1.398 . S
C143 C108 1.382 . S
C143 H120 0.951 . S
C143 C142 1.398 . S
C144 C145 1.384 1_546 S
C144 H157 0.947 . S
C144 C179 1.382 1_545 S
C145 C144 1.384 1_564 S
C145 C146 1.378 . S
C146 C145 1.378 . S
C146 C147 1.378 . S
C146 H158 0.952 . S
C147 C146 1.378 . S
C147 H159 0.950 . S
C147 C178 1.383 1_554 S
H148 C167 0.947 1_554 S
H149 C168 0.946 . S
H150 C170 0.953 . S
H151 C171 0.945 . S
H152 C173 0.952 1_455 S
H153 C174 0.949 . S
H154 C176 0.950 . S
H155 C177 0.948 . S
H156 C179 0.951 1_545 S
H157 C144 0.947 . S
H158 C146 0.952 . S
H159 C147 0.950 . S
N160 C163 1.382 . S
N160 C165 1.363 . S
N161 C163 1.371 . S
N161 C164 1.372 . S
N162 C164 1.361 . S
N162 C165 1.377 . S
C163 N160 1.382 . S
C163 N161 1.371 . S
C163 C166 1.480 . S
C164 N161 1.372 . S
C164 N162 1.361 . S
C164 C172 1.457 . S
C165 N160 1.363 . S
C165 N162 1.377 . S
C165 C178 1.479 . S
C166 C163 1.480 . S
C166 C167 1.383 . S
C166 C171 1.385 1_655 S
C167 H148 0.947 1_556 S
C167 C166 1.383 . S
C167 C168 1.388 1_556 S
C168 H149 0.946 . S
C168 C167 1.388 1_554 S
C168 C169 1.384 1_654 S
C169 C168 1.384 1_456 S
C169 C170 1.377 . S
C170 H150 0.953 . S
C170 C169 1.377 . S
C170 C171 1.369 . S
C171 H151 0.945 . S
C171 C166 1.385 1_455 S
C171 C170 1.369 . S
C172 C164 1.457 . S
C172 C173 1.372 . S
C172 C177 1.364 1_565 S
C173 H152 0.952 1_655 S
C173 C172 1.372 . S
C173 C174 1.389 1_655 S
C174 H153 0.949 . S
C174 C173 1.389 1_455 S
C174 C175 1.387 1_465 S
C175 C174 1.387 1_645 S
C175 C176 1.372 . S
C176 H154 0.950 . S
C176 C175 1.372 . S
C176 C177 1.379 . S
C177 H155 0.948 . S
C177 C172 1.364 1_545 S
C177 C176 1.379 . S
C178 C147 1.383 1_556 S
C178 C165 1.479 . S
C178 C179 1.398 . S
C179 C144 1.382 1_565 S
C179 H156 0.951 1_565 S
C179 C178 1.398 . S
C180 C181 1.384 . S
C180 H193 0.928 1_545 S
C180 C215 1.382 . S
C181 C180 1.384 . S
C181 C182 1.378 . S
C182 C181 1.378 . S
C182 C183 1.378 . S
C182 H194 0.952 . S
C183 C182 1.378 . S
C183 H195 0.950 . S
C183 C214 1.383 . S
H184 C203 0.947 . S
H185 C204 0.946 . S
H186 C206 0.953 . S
H187 C207 0.945 . S
H188 C209 0.952 . S
H189 C210 0.949 . S
H190 C212 0.950 . S
H191 C213 0.948 . S
H192 C215 0.951 . S
H193 C180 0.928 1_565 S
H194 C182 0.952 . S
H195 C183 0.950 . S
N196 C199 1.382 . S
N196 C201 1.363 . S
N197 C199 1.371 . S
N197 C200 1.372 . S
N198 C200 1.361 . S
N198 C201 1.377 . S
C199 N196 1.382 . S
C199 N197 1.371 . S
C199 C202 1.480 . S
C200 N197 1.372 . S
C200 N198 1.361 . S
C200 C208 1.457 . S
C201 N196 1.363 . S
C201 N198 1.377 . S
C201 C214 1.479 . S
C202 C199 1.480 . S
C202 C203 1.383 . S
C202 C207 1.385 . S
C203 H184 0.947 . S
C203 C202 1.383 . S
C203 C204 1.388 . S
C204 H185 0.946 . S
C204 C203 1.388 . S
C204 C205 1.384 . S
C205 C204 1.384 . S
C205 C206 1.377 . S
C206 H186 0.953 . S
C206 C205 1.377 . S
C206 C207 1.369 . S
C207 H187 0.945 . S
C207 C202 1.385 . S
C207 C206 1.369 . S
C208 C200 1.457 . S
C208 C209 1.372 . S
C208 C213 1.364 . S
C209 H188 0.952 . S
C209 C208 1.372 . S
C209 C210 1.389 . S
C210 H189 0.949 . S
C210 C209 1.389 . S
C210 C211 1.387 . S
C211 C210 1.387 . S
C211 C212 1.372 . S
C212 H190 0.950 . S
C212 C211 1.372 . S
C212 C213 1.379 . S
C213 H191 0.948 . S
C213 C208 1.364 . S
C213 C212 1.379 . S
C214 C183 1.383 . S
C214 C201 1.479 . S
C214 C215 1.398 . S
C215 C180 1.382 . S
C215 H192 0.951 . S
C215 C214 1.398 . S
C216 C217 1.384 . S
C216 H229 0.947 . S
C216 C251 1.382 . S
C217 C216 1.384 . S
C217 C218 1.378 . S
C218 C217 1.378 . S
C218 C219 1.378 . S
C218 H230 0.952 1_554 S
C219 C218 1.378 . S
C219 H231 0.950 . S
C219 C250 1.383 . S
H220 C239 0.947 . S
H221 C240 0.946 . S
H222 C242 0.953 . S
H223 C243 0.945 . S
H224 C245 0.952 . S
H225 C246 0.949 . S
H226 C248 0.950 . S
H227 C249 0.948 . S
H228 C251 0.951 . S
H229 C216 0.947 . S
H230 C218 0.952 1_556 S
H231 C219 0.950 . S
N232 C235 1.382 . S
N232 C237 1.363 . S
N233 C235 1.371 . S
N233 C236 1.372 . S
N234 C236 1.361 . S
N234 C237 1.377 . S
C235 N232 1.382 . S
C235 N233 1.371 . S
C235 C238 1.480 . S
C236 N233 1.372 . S
C236 N234 1.361 . S
C236 C244 1.457 . S
C237 N232 1.363 . S
C237 N234 1.377 . S
C237 C250 1.479 . S
C238 C235 1.480 . S
C238 C239 1.383 . S
C238 C243 1.385 . S
C239 H220 0.947 . S
C239 C238 1.383 . S
C239 C240 1.388 . S
C240 H221 0.946 . S
C240 C239 1.388 . S
C240 C241 1.384 . S
C241 C240 1.384 . S
C241 C242 1.377 . S
C242 H222 0.953 . S
C242 C241 1.377 . S
C242 C243 1.369 . S
C243 H223 0.945 . S
C243 C238 1.385 . S
C243 C242 1.369 . S
C244 C236 1.457 . S
C244 C245 1.372 . S
C244 C249 1.364 . S
C245 H224 0.952 . S
C245 C244 1.372 . S
C245 C246 1.389 . S
C246 H225 0.949 . S
C246 C245 1.389 . S
C246 C247 1.387 . S
C247 C246 1.387 . S
C247 C248 1.372 . S
C248 H226 0.950 . S
C248 C247 1.372 . S
C248 C249 1.379 . S
C249 H227 0.948 . S
C249 C244 1.364 . S
C249 C248 1.379 . S
C250 C219 1.383 . S
C250 C237 1.479 . S
C250 C251 1.398 . S
C251 C216 1.382 . S
C251 H228 0.951 . S
C251 C250 1.398 . S
C252 C253 1.384 . S
C252 H265 0.947 . S
C252 C287 1.382 . S
C253 C252 1.384 . S
C253 C254 1.378 . S
C254 C253 1.378 . S
C254 C255 1.378 . S
C254 H266 0.952 1_455 S
C255 C254 1.378 . S
C255 H267 0.950 . S
C255 C286 1.383 . S
H256 C275 0.947 . S
H257 C276 0.946 . S
H258 C278 0.953 . S
H259 C279 0.945 . S
H260 C281 0.952 . S
H261 C282 0.949 . S
H262 C284 0.950 . S
H263 C285 0.948 . S
H264 C287 0.951 . S
H265 C252 0.947 . S
H266 C254 0.952 1_655 S
H267 C255 0.950 . S
N268 C271 1.382 . S
N268 C273 1.363 . S
N269 C271 1.371 . S
N269 C272 1.372 . S
N270 C272 1.361 . S
N270 C273 1.377 . S
C271 N268 1.382 . S
C271 N269 1.371 . S
C271 C274 1.480 . S
C272 N269 1.372 . S
C272 N270 1.361 . S
C272 C280 1.457 . S
C273 N268 1.363 . S
C273 N270 1.377 . S
C273 C286 1.479 . S
C274 C271 1.480 . S
C274 C275 1.383 . S
C274 C279 1.385 . S
C275 H256 0.947 . S
C275 C274 1.383 . S
C275 C276 1.388 . S
C276 H257 0.946 . S
C276 C275 1.388 . S
C276 C277 1.384 . S
C277 C276 1.384 . S
C277 C278 1.377 . S
C278 H258 0.953 . S
C278 C277 1.377 . S
C278 C279 1.369 . S
C279 H259 0.945 . S
C279 C274 1.385 . S
C279 C278 1.369 . S
C280 C272 1.457 . S
C280 C281 1.372 . S
C280 C285 1.364 . S
C281 H260 0.952 . S
C281 C280 1.372 . S
C281 C282 1.389 . S
C282 H261 0.949 . S
C282 C281 1.389 . S
C282 C283 1.387 . S
C283 C282 1.387 . S
C283 C284 1.372 . S
C284 H262 0.950 . S
C284 C283 1.372 . S
C284 C285 1.379 . S
C285 H263 0.948 . S
C285 C280 1.364 . S
C285 C284 1.379 . S
C286 C255 1.383 . S
C286 C273 1.479 . S
C286 C287 1.398 . S
C287 C252 1.382 . S
C287 H264 0.951 . S
C287 C286 1.398 . S
Zn288 O294 1.920 . S
Zn288 O300 1.898 . S
Zn288 O303 1.905 . S
Zn289 O297 1.905 1_565 S
Zn289 O298 1.898 . S
Zn289 O306 1.920 . S
Zn290 O293 2.080 1_455 S
Zn290 O296 2.114 . S
Zn290 O299 2.120 1_445 S
Zn290 O301 2.120 . S
Zn290 O302 2.114 1_455 S
Zn290 O305 2.080 . S
C291 O296 1.166 . S
C291 O297 1.182 . S
C292 O298 1.167 1_655 S
C292 O299 1.299 . S
O293 Zn290 2.080 1_655 S
O293 C307 1.305 . S
O294 Zn288 1.920 . S
O294 C307 1.234 . S
C295 O300 1.167 1_455 S
C295 O301 1.299 . S
O296 Zn290 2.114 . S
O296 C291 1.166 . S
O297 Zn289 1.905 1_545 S
O297 C291 1.182 . S
O298 Zn289 1.898 . S
O298 C292 1.167 1_455 S
O299 Zn290 2.120 1_665 S
O299 C292 1.299 . S
O300 Zn288 1.898 . S
O300 C295 1.167 1_655 S
O301 Zn290 2.120 . S
O301 C295 1.299 . S
O302 Zn290 2.114 1_655 S
O302 C304 1.166 . S
O303 Zn288 1.905 . S
O303 C304 1.182 . S
C304 O302 1.166 . S
C304 O303 1.182 . S
O305 Zn290 2.080 . S
O305 C308 1.305 1_545 S
O306 Zn289 1.920 . S
O306 C308 1.234 . S
C307 O293 1.305 . S
C307 O294 1.234 . S
C308 O305 1.305 1_565 S
C308 O306 1.234 . S
Zn309 O315 1.920 1_556 S
Zn309 O321 1.898 . S
Zn309 O324 1.905 . S
Zn310 O318 1.905 . S
Zn310 O319 1.898 . S
Zn310 O327 1.920 . S
Zn311 O314 2.080 . S
Zn311 O317 2.114 1_545 S
Zn311 O320 2.120 1_545 S
Zn311 O322 2.120 . S
Zn311 O323 2.114 1_544 S
Zn311 O326 2.080 . S
C312 O317 1.166 . S
C312 O318 1.182 . S
C313 O319 1.167 . S
C313 O320 1.299 . S
O314 Zn311 2.080 . S
O314 C328 1.305 . S
O315 Zn309 1.920 1_554 S
O315 C328 1.234 . S
C316 O321 1.167 . S
C316 O322 1.299 1_556 S
O317 Zn311 2.114 1_565 S
O317 C312 1.166 . S
O318 Zn310 1.905 . S
O318 C312 1.182 . S
O319 Zn310 1.898 . S
O319 C313 1.167 . S
O320 Zn311 2.120 1_565 S
O320 C313 1.299 . S
O321 Zn309 1.898 . S
O321 C316 1.167 . S
O322 Zn311 2.120 . S
O322 C316 1.299 1_554 S
O323 Zn311 2.114 1_566 S
O323 C325 1.166 . S
O324 Zn309 1.905 . S
O324 C325 1.182 1_545 S
C325 O323 1.166 . S
C325 O324 1.182 1_565 S
O326 Zn311 2.080 . S
O326 C329 1.305 . S
O327 Zn310 1.920 . S
O327 C329 1.234 1_565 S
C328 O314 1.305 . S
C328 O315 1.234 . S
C329 O326 1.305 . S
C329 O327 1.234 1_545 S
Zn330 O336 1.920 . S
Zn330 O342 1.898 . S
Zn330 O345 1.905 . S
Zn331 O339 1.905 . S
Zn331 O340 1.898 . S
Zn331 O348 1.920 . S
Zn332 O335 2.080 . S
Zn332 O338 2.114 . S
Zn332 O341 2.120 . S
Zn332 O343 2.120 . S
Zn332 O344 2.114 . S
Zn332 O347 2.080 . S
C333 O338 1.166 . S
C333 O339 1.182 . S
C334 O340 1.167 . S
C334 O341 1.299 . S
O335 Zn332 2.080 . S
O335 C349 1.305 . S
O336 Zn330 1.920 . S
O336 C349 1.234 . S
C337 O342 1.167 . S
C337 O343 1.299 . S
O338 Zn332 2.114 . S
O338 C333 1.166 . S
O339 Zn331 1.905 . S
O339 C333 1.182 . S
O340 Zn331 1.898 . S
O340 C334 1.167 . S
O341 Zn332 2.120 . S
O341 C334 1.299 . S
O342 Zn330 1.898 . S
O342 C337 1.167 . S
O343 Zn332 2.120 . S
O343 C337 1.299 . S
O344 Zn332 2.114 . S
O344 C346 1.166 . S
O345 Zn330 1.905 . S
O345 C346 1.182 . S
C346 O344 1.166 . S
C346 O345 1.182 . S
O347 Zn332 2.080 . S
O347 C350 1.305 . S
O348 Zn331 1.920 . S
O348 C350 1.234 . S
C349 O335 1.305 . S
C349 O336 1.234 . S
C350 O347 1.305 . S
C350 O348 1.234 . S
Zn351 O357 1.920 . S
Zn351 O363 1.898 . S
Zn351 O366 1.905 . S
Zn352 O360 1.905 1_655 S
Zn352 O361 1.898 . S
Zn352 O369 1.920 . S
Zn353 O356 2.080 1_554 S
Zn353 O359 2.114 . S
Zn353 O362 2.120 1_454 S
Zn353 O364 2.120 . S
Zn353 O365 2.114 1_554 S
Zn353 O368 2.080 . S
C354 O359 1.166 . S
C354 O360 1.182 . S
C355 O361 1.167 1_556 S
C355 O362 1.299 . S
O356 Zn353 2.080 1_556 S
O356 C370 1.305 . S
O357 Zn351 1.920 . S
O357 C370 1.234 . S
C358 O363 1.167 1_554 S
C358 O364 1.299 . S
O359 Zn353 2.114 . S
O359 C354 1.166 . S
O360 Zn352 1.905 1_455 S
O360 C354 1.182 . S
O361 Zn352 1.898 . S
O361 C355 1.167 1_554 S
O362 Zn353 2.120 1_656 S
O362 C355 1.299 . S
O363 Zn351 1.898 . S
O363 C358 1.167 1_556 S
O364 Zn353 2.120 . S
O364 C358 1.299 . S
O365 Zn353 2.114 1_556 S
O365 C367 1.166 . S
O366 Zn351 1.905 . S
O366 C367 1.182 . S
C367 O365 1.166 . S
C367 O366 1.182 . S
O368 Zn353 2.080 . S
O368 C371 1.305 1_455 S
O369 Zn352 1.920 . S
O369 C371 1.234 . S
C370 O356 1.305 . S
C370 O357 1.234 . S
C371 O368 1.305 1_655 S
C371 O369 1.234 . S
C372 C373 1.387 . S
C372 H376 0.950 . S
C372 C381 1.390 . S
C373 C372 1.387 . S
C373 C375 1.387 . S
H374 C381 0.950 . S
C375 C373 1.387 . S
C375 C377 1.390 . S
C375 H379 0.950 . S
H376 C372 0.950 . S
C377 C375 1.390 . S
C377 C378 1.387 . S
C377 H380 0.950 . S
C378 C377 1.387 . S
C378 C381 1.387 . S
H379 C375 0.950 . S
H380 C377 0.950 . S
C381 C372 1.390 . S
C381 H374 0.950 . S
C381 C378 1.387 . S
C382 C383 1.387 . S
C382 H386 0.950 . S
C382 C391 1.390 . S
C383 C382 1.387 . S
C383 C385 1.387 . S
H384 C391 0.950 . S
C385 C383 1.387 . S
C385 C387 1.390 . S
C385 H389 0.950 . S
H386 C382 0.950 . S
C387 C385 1.390 . S
C387 C388 1.387 . S
C387 H390 0.950 . S
C388 C387 1.387 . S
C388 C391 1.387 . S
H389 C385 0.950 . S
H390 C387 0.950 . S
C391 C382 1.390 . S
C391 H384 0.950 . S
C391 C388 1.387 . S
C392 C393 1.387 . S
C392 H396 0.950 . S
C392 C401 1.390 . S
C393 C392 1.387 . S
C393 C395 1.387 . S
H394 C401 0.950 . S
C395 C393 1.387 . S
C395 C397 1.390 . S
C395 H399 0.950 . S
H396 C392 0.950 . S
C397 C395 1.390 . S
C397 C398 1.387 . S
C397 H400 0.950 . S
C398 C397 1.387 . S
C398 C401 1.387 . S
H399 C395 0.950 . S
H400 C397 0.950 . S
C401 C392 1.390 . S
C401 H394 0.950 . S
C401 C398 1.387 . S
C402 C403 1.387 . S
C402 H406 0.950 . S
C402 C411 1.390 . S
C403 C402 1.387 . S
C403 C405 1.387 . S
H404 C411 0.950 . S
C405 C403 1.387 . S
C405 C407 1.390 . S
C405 H409 0.950 . S
H406 C402 0.950 . S
C407 C405 1.390 . S
C407 C408 1.387 . S
C407 H410 0.950 . S
C408 C407 1.387 . S
C408 C411 1.387 . S
H409 C405 0.950 . S
H410 C407 0.950 . S
C411 C402 1.390 . S
C411 H404 0.950 . S
C411 C408 1.387 . S
C412 C413 1.387 . S
C412 H416 0.950 . S
C412 C421 1.390 . S
C413 C412 1.387 . S
C413 C415 1.387 . S
H414 C421 0.950 . S
C415 C413 1.387 . S
C415 C417 1.390 . S
C415 H419 0.950 . S
H416 C412 0.950 . S
C417 C415 1.390 . S
C417 C418 1.387 . S
C417 H420 0.950 . S
C418 C417 1.387 . S
C418 C421 1.387 . S
H419 C415 0.950 . S
H420 C417 0.950 . S
C421 C412 1.390 . S
C421 H414 0.950 . S
C421 C418 1.387 . S
C422 C423 1.387 . S
C422 H426 0.950 . S
C422 C431 1.390 . S
C423 C422 1.387 . S
C423 C425 1.387 . S
H424 C431 0.950 . S
C425 C423 1.387 . S
C425 C427 1.390 . S
C425 H429 0.950 . S
H426 C422 0.950 . S
C427 C425 1.390 . S
C427 C428 1.387 . S
C427 H430 0.950 1_565 S
C428 C427 1.387 . S
C428 C431 1.387 . S
H429 C425 0.950 . S
H430 C427 0.950 1_545 S
C431 C422 1.390 . S
C431 H424 0.950 . S
C431 C428 1.387 . S
C432 C433 1.387 . S
C432 H436 0.950 . S
C432 C441 1.390 . S
C433 C432 1.387 . S
C433 C435 1.387 . S
H434 C441 0.950 . S
C435 C433 1.387 . S
C435 C437 1.390 . S
C435 H439 0.950 . S
H436 C432 0.950 . S
C437 C435 1.390 . S
C437 C438 1.387 . S
C437 H440 0.950 . S
C438 C437 1.387 . S
C438 C441 1.387 . S
H439 C435 0.950 . S
H440 C437 0.950 . S
C441 C432 1.390 . S
C441 H434 0.950 . S
C441 C438 1.387 . S
C442 C443 1.387 . S
C442 H446 0.950 . S
C442 C451 1.390 . S
C443 C442 1.387 . S
C443 C445 1.387 . S
H444 C451 0.950 . S
C445 C443 1.387 . S
C445 C447 1.390 . S
C445 H449 0.950 . S
H446 C442 0.950 . S
C447 C445 1.390 . S
C447 C448 1.387 . S
C447 H450 0.950 . S
C448 C447 1.387 . S
C448 C451 1.387 . S
H449 C445 0.950 . S
H450 C447 0.950 . S
C451 C442 1.390 . S
C451 H444 0.950 . S
C451 C448 1.387 . S
C452 C453 1.387 . S
C452 H456 0.950 . S
C452 C461 1.390 . S
C453 C452 1.387 . S
C453 C455 1.387 . S
H454 C461 0.950 . S
C455 C453 1.387 . S
C455 C457 1.390 . S
C455 H459 0.950 . S
H456 C452 0.950 . S
C457 C455 1.390 . S
C457 C458 1.387 . S
C457 H460 0.950 . S
C458 C457 1.387 . S
C458 C461 1.387 . S
H459 C455 0.950 . S
H460 C457 0.950 . S
C461 C452 1.390 . S
C461 H454 0.950 . S
C461 C458 1.387 . S
C462 C463 1.387 . S
C462 H466 0.950 . S
C462 C471 1.390 . S
C463 C462 1.387 . S
C463 C465 1.387 . S
H464 C471 0.950 . S
C465 C463 1.387 . S
C465 C467 1.390 . S
C465 H469 0.950 . S
H466 C462 0.950 . S
C467 C465 1.390 . S
C467 C468 1.387 . S
C467 H470 0.950 1_556 S
C468 C467 1.387 . S
C468 C471 1.387 . S
H469 C465 0.950 . S
H470 C467 0.950 1_554 S
C471 C462 1.390 . S
C471 H464 0.950 . S
C471 C468 1.387 . S
C472 C473 1.387 . S
C472 H476 0.950 . S
C472 C481 1.390 . S
C473 C472 1.387 . S
C473 C475 1.387 . S
H474 C481 0.950 . S
C475 C473 1.387 . S
C475 C477 1.390 . S
C475 H479 0.950 . S
H476 C472 0.950 . S
C477 C475 1.390 . S
C477 C478 1.387 . S
C477 H480 0.950 1_655 S
C478 C477 1.387 . S
C478 C481 1.387 . S
H479 C475 0.950 . S
H480 C477 0.950 1_455 S
C481 C472 1.390 . S
C481 H474 0.950 . S
C481 C478 1.387 . S
C482 C483 1.387 . S
C482 H486 0.950 . S
C482 C491 1.390 . S
C483 C482 1.387 . S
C483 C485 1.387 . S
H484 C491 0.950 . S
C485 C483 1.387 . S
C485 C487 1.390 . S
C485 H489 0.950 . S
H486 C482 0.950 . S
C487 C485 1.390 . S
C487 C488 1.387 . S
C487 H490 0.950 . S
C488 C487 1.387 . S
C488 C491 1.387 . S
H489 C485 0.950 . S
H490 C487 0.950 . S
C491 C482 1.390 . S
C491 H484 0.950 . S
C491 C488 1.387 . S
C492 C493 1.387 1_565 S
C492 H496 0.950 . S
C492 C501 1.390 . S
C493 C492 1.387 1_545 S
C493 C495 1.387 . S
H494 C501 0.950 . S
C495 C493 1.387 . S
C495 C497 1.390 . S
C495 H499 0.950 . S
H496 C492 0.950 . S
C497 C495 1.390 . S
C497 C498 1.387 . S
C497 H500 0.950 . S
C498 C497 1.387 . S
C498 C501 1.387 1_545 S
H499 C495 0.950 . S
H500 C497 0.950 . S
C501 C492 1.390 . S
C501 H494 0.950 . S
C501 C498 1.387 1_565 S
C502 C503 1.387 1_565 S
C502 H506 0.950 . S
C502 C511 1.390 . S
C503 C502 1.387 1_545 S
C503 C505 1.387 . S
H504 C511 0.950 . S
C505 C503 1.387 . S
C505 C507 1.390 . S
C505 H509 0.950 . S
H506 C502 0.950 . S
C507 C505 1.390 . S
C507 C508 1.387 . S
C507 H510 0.950 . S
C508 C507 1.387 . S
C508 C511 1.387 1_545 S
H509 C505 0.950 . S
H510 C507 0.950 . S
C511 C502 1.390 . S
C511 H504 0.950 . S
C511 C508 1.387 1_565 S
C512 C513 1.387 . S
C512 H516 0.950 . S
C512 C521 1.390 . S
C513 C512 1.387 . S
C513 C515 1.387 . S
H514 C521 0.950 . S
C515 C513 1.387 . S
C515 C517 1.390 . S
C515 H519 0.950 . S
H516 C512 0.950 . S
C517 C515 1.390 . S
C517 C518 1.387 . S
C517 H520 0.950 . S
C518 C517 1.387 . S
C518 C521 1.387 . S
H519 C515 0.950 . S
H520 C517 0.950 . S
C521 C512 1.390 . S
C521 H514 0.950 . S
C521 C518 1.387 . S
C522 C523 1.387 . S
C522 H526 0.950 . S
C522 C531 1.390 . S
C523 C522 1.387 . S
C523 C525 1.387 . S
H524 C531 0.950 . S
C525 C523 1.387 . S
C525 C527 1.390 . S
C525 H529 0.950 . S
H526 C522 0.950 . S
C527 C525 1.390 . S
C527 C528 1.387 . S
C527 H530 0.950 . S
C528 C527 1.387 . S
C528 C531 1.387 . S
H529 C525 0.950 . S
H530 C527 0.950 . S
C531 C522 1.390 . S
C531 H524 0.950 . S
C531 C528 1.387 . S
C532 C533 1.386 1_546 S
C532 H536 0.950 . S
C532 C541 1.389 1_545 S
C533 C532 1.386 1_564 S
C533 C535 1.391 . S
H534 C541 0.948 1_545 S
C535 C533 1.391 . S
C535 C537 1.390 . S
C535 H539 0.950 . S
H536 C532 0.950 . S
C537 C535 1.390 . S
C537 C538 1.387 . S
C537 H540 0.950 . S
C538 C537 1.387 . S
C538 C541 1.390 1_554 S
H539 C535 0.950 . S
H540 C537 0.950 . S
C541 C532 1.389 1_565 S
C541 H534 0.948 1_565 S
C541 C538 1.390 1_556 S
C542 C543 1.387 . S
C542 H546 0.950 . S
C542 C551 1.390 . S
C543 C542 1.387 . S
C543 C545 1.387 . S
H544 C551 0.950 . S
C545 C543 1.387 . S
C545 C547 1.390 . S
C545 H549 0.950 . S
H546 C542 0.950 . S
C547 C545 1.390 . S
C547 C548 1.387 . S
C547 H550 0.950 . S
C548 C547 1.387 . S
C548 C551 1.387 . S
H549 C545 0.950 . S
H550 C547 0.950 . S
C551 C542 1.390 . S
C551 H544 0.950 . S
C551 C548 1.387 . S
C552 C553 1.387 . S
C552 H556 0.950 . S
C552 C561 1.390 . S
C553 C552 1.387 . S
C553 C555 1.387 1_554 S
H554 C561 0.950 . S
C555 C553 1.387 1_556 S
C555 C557 1.390 . S
C555 H559 0.950 . S
H556 C552 0.950 . S
C557 C555 1.390 . S
C557 C558 1.387 1_556 S
C557 H560 0.950 . S
C558 C557 1.387 1_554 S
C558 C561 1.387 . S
H559 C555 0.950 . S
H560 C557 0.950 . S
C561 C552 1.390 . S
C561 H554 0.950 . S
C561 C558 1.387 . S
C562 C563 1.387 . S
C562 H566 0.950 . S
C562 C571 1.390 . S
C563 C562 1.387 . S
C563 C565 1.387 . S
H564 C571 0.950 . S
C565 C563 1.387 . S
C565 C567 1.390 . S
C565 H569 0.950 . S
H566 C562 0.950 . S
C567 C565 1.390 . S
C567 C568 1.387 . S
C567 H570 0.950 . S
C568 C567 1.387 . S
C568 C571 1.387 . S
H569 C565 0.950 . S
H570 C567 0.950 . S
C571 C562 1.390 . S
C571 H564 0.950 . S
C571 C568 1.387 . S
C572 C573 1.386 1_654 S
C572 H576 0.950 . S
C572 C581 1.392 . S
C573 C572 1.386 1_456 S
C573 C575 1.389 . S
H574 C581 0.952 . S
C575 C573 1.389 . S
C575 C577 1.390 . S
C575 H579 0.950 . S
H576 C572 0.950 . S
C577 C575 1.390 . S
C577 C578 1.387 . S
C577 H580 0.950 . S
C578 C577 1.387 . S
C578 C581 1.384 1_456 S
H579 C575 0.950 . S
H580 C577 0.950 . S
C581 C572 1.392 . S
C581 H574 0.952 . S
C581 C578 1.384 1_654 S
C582 C583 1.387 . S
C582 H586 0.950 . S
C582 C591 1.390 . S
C583 C582 1.387 . S
C583 C585 1.387 . S
H584 C591 0.950 . S
C585 C583 1.387 . S
C585 C587 1.390 . S
C585 H589 0.950 1_554 S
H586 C582 0.950 . S
C587 C585 1.390 . S
C587 C588 1.387 . S
C587 H590 0.952 . S
C588 C587 1.387 . S
C588 C591 1.387 . S
H589 C585 0.950 1_556 S
H590 C587 0.952 . S
C591 C582 1.390 . S
C591 H584 0.950 . S
C591 C588 1.387 . S
C592 C593 1.387 . S
C592 H596 0.950 . S
C592 C601 1.390 . S
C593 C592 1.387 . S
C593 C595 1.387 1_455 S
H594 C601 0.950 . S
C595 C593 1.387 1_655 S
C595 C597 1.390 . S
C595 H599 0.950 . S
H596 C592 0.950 . S
C597 C595 1.390 . S
C597 C598 1.387 1_655 S
C597 H600 0.950 . S
C598 C597 1.387 1_455 S
C598 C601 1.387 . S
H599 C595 0.950 . S
H600 C597 0.950 . S
C601 C592 1.390 . S
C601 H594 0.950 . S
C601 C598 1.387 . S
C602 C603 1.387 . S
C602 H606 0.950 . S
C602 C611 1.390 . S
C603 C602 1.387 . S
C603 C605 1.387 . S
H604 C611 0.950 . S
C605 C603 1.387 . S
C605 C607 1.390 . S
C605 H609 0.950 . S
H606 C602 0.950 . S
C607 C605 1.390 . S
C607 C608 1.387 . S
C607 H610 0.950 . S
C608 C607 1.387 . S
C608 C611 1.387 . S
H609 C605 0.950 . S
H610 C607 0.950 . S
C611 C602 1.390 . S
C611 H604 0.950 . S
C611 C608 1.387 . S
C373 C1 1.529 . S
C378 C291 1.435 . S
C383 C67 1.517 . S
C388 C325 1.425 . S
C398 C337 1.397 . S
C393 C97 1.488 . S
C403 C133 1.512 . S
C408 C371 1.421 . S
C418 C328 1.423 . S
C413 C25 1.520 . S
C428 C308 1.414 . S
C423 C37 1.508 . S
C438 C355 1.401 . S
C433 C103 1.497 . S
C448 C346 1.417 . S
C443 C109 1.508 . S
C453 C31 1.529 . S
C458 C354 1.433 . S
C468 C316 1.404 . S
C463 C73 1.495 . S
C473 C139 1.519 . S
C478 C292 1.413 . S
C483 C61 1.505 . S
C488 C349 1.406 . S
C498 C307 1.676 . S
C493 C175 1.779 . S
C503 C181 1.693 . S
C508 C329 1.664 . S
C513 C247 1.795 . S
C518 C334 1.695 . S
C523 C277 1.795 . S
C528 C367 1.703 . S
C533 C145 1.776 . S
C538 C312 1.690 . S
C548 C304 1.693 . S
C543 C211 1.711 . S
C558 C358 1.686 . S
C553 C217 1.778 . S
C568 C350 1.685 . S
C563 C283 1.782 . S
C573 C169 1.766 . S
C578 C370 1.665 . S
C588 C313 1.685 . S
C583 C241 1.789 . S
C598 C295 1.665 . S
C593 C253 1.760 . S
C603 C205 1.700 . S
C608 C333 1.691 . S
