# Generated by pormake.
# Topology ssb, (4,4)-cn, num edge types: 1
# Building blocks:
#     Node 0, Type 0, BuildingBlock: MUDLON_clean_linker_0, # of connection points: 4
#     Node 1, Type 0, BuildingBlock: MUDLON_clean_linker_0, # of connection points: 4
#     Node 2, Type 0, BuildingBlock: MUDLON_clean_linker_0, # of connection points: 4
#     Node 3, Type 0, BuildingBlock: MUDLON_clean_linker_0, # of connection points: 4
#     Node 4, Type 0, BuildingBlock: MUDLON_clean_linker_0, # of connection points: 4
#     Node 5, Type 0, BuildingBlock: MUDLON_clean_linker_0, # of connection points: 4
#     Node 6, Type 0, BuildingBlock: MUDLON_clean_linker_0, # of connection points: 4
#     Node 7, Type 0, BuildingBlock: MUDLON_clean_linker_0, # of connection points: 4
#     Node 8, Type 1, BuildingBlock: NAWXER_clean_sbu_0, # of connection points: 4
#     Node 9, Type 1, BuildingBlock: NAWXER_clean_sbu_0, # of connection points: 4
#     Node 10, Type 1, BuildingBlock: NAWXER_clean_sbu_0, # of connection points: 4
#     Node 11, Type 1, BuildingBlock: NAWXER_clean_sbu_0, # of connection points: 4
#     Node 12, Type 1, BuildingBlock: NAWXER_clean_sbu_0, # of connection points: 4
#     Node 13, Type 1, BuildingBlock: NAWXER_clean_sbu_0, # of connection points: 4
#     Node 14, Type 1, BuildingBlock: NAWXER_clean_sbu_0, # of connection points: 4
#     Node 15, Type 1, BuildingBlock: NAWXER_clean_sbu_0, # of connection points: 4
#     Edge 16, Type (0, 1), BuildingBlock: MIFKUJ_clean_linker_0, # of connection points: 2
#     Edge 17, Type (0, 1), BuildingBlock: MIFKUJ_clean_linker_0, # of connection points: 2
#     Edge 18, Type (0, 1), BuildingBlock: MIFKUJ_clean_linker_0, # of connection points: 2
#     Edge 19, Type (0, 1), BuildingBlock: MIFKUJ_clean_linker_0, # of connection points: 2
#     Edge 20, Type (0, 1), BuildingBlock: MIFKUJ_clean_linker_0, # of connection points: 2
#     Edge 21, Type (0, 1), BuildingBlock: MIFKUJ_clean_linker_0, # of connection points: 2
#     Edge 22, Type (0, 1), BuildingBlock: MIFKUJ_clean_linker_0, # of connection points: 2
#     Edge 23, Type (0, 1), BuildingBlock: MIFKUJ_clean_linker_0, # of connection points: 2
#     Edge 24, Type (0, 1), BuildingBlock: MIFKUJ_clean_linker_0, # of connection points: 2
#     Edge 25, Type (0, 1), BuildingBlock: MIFKUJ_clean_linker_0, # of connection points: 2
#     Edge 26, Type (0, 1), BuildingBlock: MIFKUJ_clean_linker_0, # of connection points: 2
#     Edge 27, Type (0, 1), BuildingBlock: MIFKUJ_clean_linker_0, # of connection points: 2
#     Edge 28, Type (0, 1), BuildingBlock: MIFKUJ_clean_linker_0, # of connection points: 2
#     Edge 29, Type (0, 1), BuildingBlock: MIFKUJ_clean_linker_0, # of connection points: 2
#     Edge 30, Type (0, 1), BuildingBlock: MIFKUJ_clean_linker_0, # of connection points: 2
#     Edge 31, Type (0, 1), BuildingBlock: MIFKUJ_clean_linker_0, # of connection points: 2
#     Edge 32, Type (0, 1), BuildingBlock: MIFKUJ_clean_linker_0, # of connection points: 2
#     Edge 33, Type (0, 1), BuildingBlock: MIFKUJ_clean_linker_0, # of connection points: 2
#     Edge 34, Type (0, 1), BuildingBlock: MIFKUJ_clean_linker_0, # of connection points: 2
#     Edge 35, Type (0, 1), BuildingBlock: MIFKUJ_clean_linker_0, # of connection points: 2
#     Edge 36, Type (0, 1), BuildingBlock: MIFKUJ_clean_linker_0, # of connection points: 2
#     Edge 37, Type (0, 1), BuildingBlock: MIFKUJ_clean_linker_0, # of connection points: 2
#     Edge 38, Type (0, 1), BuildingBlock: MIFKUJ_clean_linker_0, # of connection points: 2
#     Edge 39, Type (0, 1), BuildingBlock: MIFKUJ_clean_linker_0, # of connection points: 2
#     Edge 40, Type (0, 1), BuildingBlock: MIFKUJ_clean_linker_0, # of connection points: 2
#     Edge 41, Type (0, 1), BuildingBlock: MIFKUJ_clean_linker_0, # of connection points: 2
#     Edge 42, Type (0, 1), BuildingBlock: MIFKUJ_clean_linker_0, # of connection points: 2
#     Edge 43, Type (0, 1), BuildingBlock: MIFKUJ_clean_linker_0, # of connection points: 2
#     Edge 44, Type (0, 1), BuildingBlock: MIFKUJ_clean_linker_0, # of connection points: 2
#     Edge 45, Type (0, 1), BuildingBlock: MIFKUJ_clean_linker_0, # of connection points: 2
#     Edge 46, Type (0, 1), BuildingBlock: MIFKUJ_clean_linker_0, # of connection points: 2
#     Edge 47, Type (0, 1), BuildingBlock: MIFKUJ_clean_linker_0, # of connection points: 2
# Relax obj value: 0.003
# Max RMSD: 0.049
# Mean RMSD: 0.025
data_MOF--net-ssb--node1-NAWXER_clean_sbu_0--node2-MUDLON_clean_linker_0--edge1-MIFKUJ_clean_linker_0
_symmetry_space_group_name_H-M    P1
_symmetry_Int_Tables_number       1
_symmetry_cell_setting            triclinic
loop_
_symmetry_equiv_pos_as_xyz
'x, y, z'
_cell_length_a     74.131209
_cell_length_b     74.137158
_cell_length_c     64.754931
_cell_angle_alpha  90.027913
_cell_angle_beta   89.993329
_cell_angle_gamma 89.980826
loop_
_atom_site_label
_atom_site_type_symbol
_atom_site_fract_x
_atom_site_fract_y
_atom_site_fract_z
_atom_type_partial_charge
H0 H 0.26652 0.28818 0.15536 0.0
N1 N 0.28543 0.28452 0.19002 0.0
H2 H 0.25462 0.31624 0.14058 0.0
H3 H 0.28521 0.31746 0.20868 0.0
H4 H 0.27343 0.3455 0.19412 0.0
H5 H 0.31423 0.3053 0.20088 0.0
H6 H 0.3442 0.30401 0.18549 0.0
H7 H 0.29856 0.25791 0.16693 0.0
H8 H 0.32896 0.25546 0.15269 0.0
H9 H 0.26562 0.25484 0.18793 0.0
H10 H 0.28849 0.29274 0.2309 0.0
H11 H 0.25047 0.23923 0.2162 0.0
H12 H 0.2724 0.27804 0.25936 0.0
H13 H 0.18318 0.21395 0.30935 0.0
H14 H 0.15975 0.23011 0.32828 0.0
H15 H 0.19671 0.27441 0.33826 0.0
H16 H 0.22028 0.25765 0.32007 0.0
H17 H 0.23221 0.22982 0.34174 0.0
H18 H 0.24161 0.20666 0.36647 0.0
H19 H 0.23112 0.1654 0.32097 0.0
H20 H 0.22122 0.18863 0.29647 0.0
H21 H 0.2082 0.22887 0.26466 0.0
H22 H 0.22568 0.24362 0.23765 0.0
H23 H 0.26909 0.25256 0.28111 0.0
N24 N 0.21721 0.2237 0.30371 0.0
H25 H 0.25091 0.23861 0.30833 0.0
C26 C 0.27678 0.30076 0.18299 0.0
C27 C 0.26775 0.30063 0.164 0.0
C28 C 0.26094 0.31663 0.15566 0.0
C29 C 0.26319 0.33308 0.16616 0.0
C30 C 0.27168 0.33305 0.18558 0.0
C31 C 0.27835 0.31701 0.19397 0.0
C32 C 0.30407 0.28189 0.18466 0.0
C33 C 0.31739 0.29436 0.19045 0.0
C34 C 0.33465 0.29348 0.18172 0.0
C35 C 0.33905 0.27984 0.16738 0.0
C36 C 0.326 0.26655 0.16304 0.0
C37 C 0.30866 0.26771 0.17141 0.0
C38 C 0.27787 0.27504 0.20731 0.0
C39 C 0.26729 0.25979 0.20356 0.0
C40 C 0.25848 0.25104 0.21975 0.0
C41 C 0.25982 0.25757 0.24013 0.0
C42 C 0.27104 0.27257 0.24393 0.0
C43 C 0.2801 0.28115 0.22766 0.0
C44 C 0.20336 0.2346 0.31316 0.0
C45 C 0.18609 0.22725 0.31543 0.0
C46 C 0.1727 0.23659 0.32616 0.0
C47 C 0.17625 0.25366 0.33479 0.0
C48 C 0.19352 0.26123 0.33206 0.0
C49 C 0.20699 0.25175 0.32146 0.0
C50 C 0.22576 0.21087 0.3173 0.0
C51 C 0.23212 0.21584 0.33698 0.0
C52 C 0.23745 0.20261 0.35112 0.0
C53 C 0.23693 0.18426 0.34566 0.0
C54 C 0.23171 0.17945 0.32554 0.0
C55 C 0.22608 0.19266 0.31155 0.0
C56 C 0.22829 0.23239 0.28836 0.0
C57 C 0.22149 0.23403 0.2683 0.0
C58 C 0.23162 0.24234 0.25284 0.0
C59 C 0.24901 0.24907 0.257 0.0
C60 C 0.25575 0.24764 0.2773 0.0
C61 C 0.24544 0.23949 0.29288 0.0
H62 H 0.69298 0.33374 0.22044 0.0
N63 N 0.71037 0.30259 0.22297 0.0
H64 H 0.70101 0.36005 0.19962 0.0
H65 H 0.74195 0.30717 0.20148 0.0
H66 H 0.75033 0.33351 0.18103 0.0
H67 H 0.71894 0.28626 0.18636 0.0
H68 H 0.69819 0.26987 0.16396 0.0
H69 H 0.67722 0.29181 0.23221 0.0
H70 H 0.65655 0.27449 0.21047 0.0
H71 H 0.70694 0.30762 0.26317 0.0
H72 H 0.7385 0.27902 0.21797 0.0
H73 H 0.72399 0.29336 0.29089 0.0
H74 H 0.75656 0.26547 0.24551 0.0
H75 H 0.78415 0.25563 0.3766 0.0
H76 H 0.81465 0.25978 0.39014 0.0
H77 H 0.8367 0.24267 0.33152 0.0
H78 H 0.80595 0.23857 0.31813 0.0
H79 H 0.78876 0.21124 0.32503 0.0
H80 H 0.78075 0.18081 0.3361 0.0
H81 H 0.73983 0.20294 0.37637 0.0
H82 H 0.74777 0.23337 0.36484 0.0
H83 H 0.76456 0.27695 0.33766 0.0
H84 H 0.75126 0.29259 0.30825 0.0
H85 H 0.75588 0.24385 0.27187 0.0
N86 N 0.77471 0.24276 0.34004 0.0
H87 H 0.77031 0.22881 0.3009 0.0
C88 C 0.71681 0.31854 0.21261 0.0
C89 C 0.70566 0.33378 0.21212 0.0
C90 C 0.71032 0.3488 0.20026 0.0
C91 C 0.72631 0.3489 0.18858 0.0
C92 C 0.73781 0.3338 0.18962 0.0
C93 C 0.7331 0.31875 0.20149 0.0
C94 C 0.69944 0.29057 0.2108 0.0
C95 C 0.70539 0.28365 0.19177 0.0
C96 C 0.6935 0.27411 0.17903 0.0
C97 C 0.67554 0.27105 0.18522 0.0
C98 C 0.6701 0.27698 0.20492 0.0
C99 C 0.68191 0.28673 0.21748 0.0
C100 C 0.72158 0.29459 0.23861 0.0
C101 C 0.71785 0.2985 0.25929 0.0
C102 C 0.72776 0.29042 0.27509 0.0
C103 C 0.74189 0.27834 0.27057 0.0
C104 C 0.74572 0.27455 0.24968 0.0
C105 C 0.73556 0.28248 0.23384 0.0
C106 C 0.79284 0.24681 0.34648 0.0
C107 C 0.79559 0.25307 0.36662 0.0
C108 C 0.81302 0.25546 0.37427 0.0
C109 C 0.82811 0.25155 0.3619 0.0
C110 C 0.82534 0.24563 0.34148 0.0
C111 C 0.80782 0.24336 0.33378 0.0
C112 C 0.76883 0.2246 0.34419 0.0
C113 C 0.77787 0.20955 0.33597 0.0
C114 C 0.77334 0.19214 0.34242 0.0
C115 C 0.75975 0.18944 0.35726 0.0
C116 C 0.75023 0.2045 0.36476 0.0
C117 C 0.75476 0.22189 0.35827 0.0
C118 C 0.76813 0.25166 0.32172 0.0
C119 C 0.76289 0.26975 0.32322 0.0
C120 C 0.75511 0.2786 0.30641 0.0
C121 C 0.75206 0.26943 0.28768 0.0
C122 C 0.75803 0.25144 0.28593 0.0
C123 C 0.76617 0.2427 0.30271 0.0
H124 H 0.79077 0.75688 0.37111 0.0
N125 N 0.78524 0.77561 0.33678 0.0
H126 H 0.81973 0.74698 0.38531 0.0
H127 H 0.81789 0.77735 0.31716 0.0
H128 H 0.84677 0.76726 0.33095 0.0
H129 H 0.80116 0.80454 0.31804 0.0
H130 H 0.80032 0.83578 0.33039 0.0
H131 H 0.76418 0.78893 0.36611 0.0
H132 H 0.76309 0.82012 0.37847 0.0
H133 H 0.75596 0.75534 0.33888 0.0
H134 H 0.79328 0.77883 0.29564 0.0
H135 H 0.73985 0.7408 0.31053 0.0
H136 H 0.77802 0.76347 0.26719 0.0
H137 H 0.70954 0.67899 0.21202 0.0
H138 H 0.72471 0.65622 0.19128 0.0
H139 H 0.77161 0.69079 0.18692 0.0
H140 H 0.75561 0.71402 0.20641 0.0
H141 H 0.72702 0.73026 0.18602 0.0
H142 H 0.70377 0.74184 0.16268 0.0
H143 H 0.66256 0.72477 0.20565 0.0
H144 H 0.68597 0.7135 0.22898 0.0
H145 H 0.72715 0.7008 0.26013 0.0
H146 H 0.74305 0.71674 0.28759 0.0
H147 H 0.75191 0.76175 0.24633 0.0
N148 N 0.72119 0.71164 0.2218 0.0
H149 H 0.73683 0.74519 0.21868 0.0
C150 C 0.80212 0.76781 0.34314 0.0
C151 C 0.80294 0.75886 0.36214 0.0
C152 C 0.81949 0.75318 0.37018 0.0
C153 C 0.83559 0.75642 0.35931 0.0
C154 C 0.83465 0.76479 0.33984 0.0
C155 C 0.81807 0.77045 0.33183 0.0
C156 C 0.78276 0.79443 0.3413 0.0
C157 C 0.79262 0.80789 0.33102 0.0
C158 C 0.79219 0.82572 0.33815 0.0
C159 C 0.78172 0.83039 0.35547 0.0
C160 C 0.77115 0.81702 0.36497 0.0
C161 C 0.77174 0.79921 0.35797 0.0
C162 C 0.77592 0.76788 0.31944 0.0
C163 C 0.76073 0.75722 0.32321 0.0
C164 C 0.75166 0.74879 0.30697 0.0
C165 C 0.75777 0.75065 0.28648 0.0
C166 C 0.77284 0.76176 0.28269 0.0
C167 C 0.78176 0.77041 0.29901 0.0
C168 C 0.73144 0.69806 0.21099 0.0
C169 C 0.72315 0.68154 0.20668 0.0
C170 C 0.73198 0.66846 0.19494 0.0
C171 C 0.74958 0.67144 0.18748 0.0
C172 C 0.75802 0.688 0.19212 0.0
C173 C 0.74897 0.70127 0.20353 0.0
C174 C 0.70814 0.72102 0.20926 0.0
C175 C 0.713 0.72938 0.19058 0.0
C176 C 0.69968 0.73584 0.17718 0.0
C177 C 0.68129 0.73409 0.1822 0.0
C178 C 0.67658 0.72651 0.20137 0.0
C179 C 0.6899 0.72004 0.21472 0.0
C180 C 0.73053 0.72182 0.23749 0.0
C181 C 0.73254 0.71411 0.25707 0.0
C182 C 0.74152 0.72335 0.27279 0.0
C183 C 0.7486 0.74072 0.26937 0.0
C184 C 0.74677 0.74838 0.24956 0.0
C185 C 0.73794 0.73898 0.23373 0.0
H186 H 0.29247 0.76529 0.14033 0.0
N187 N 0.28632 0.75094 0.17718 0.0
H188 H 0.32114 0.77658 0.12669 0.0
H189 H 0.31798 0.75352 0.19854 0.0
H190 H 0.34688 0.7646 0.18495 0.0
H191 H 0.30685 0.72347 0.19294 0.0
H192 H 0.30646 0.69202 0.18151 0.0
H193 H 0.26217 0.7354 0.15267 0.0
H194 H 0.2616 0.70393 0.14117 0.0
H195 H 0.27583 0.7849 0.18151 0.0
H196 H 0.27981 0.73481 0.21507 0.0
H197 H 0.26287 0.79942 0.21167 0.0
H198 H 0.26552 0.74884 0.24484 0.0
H199 H 0.22099 0.84672 0.30122 0.0
H200 H 0.23487 0.8696 0.32321 0.0
H201 H 0.27446 0.83052 0.34333 0.0
H202 H 0.26001 0.80766 0.32197 0.0
H203 H 0.23325 0.78987 0.33256 0.0
H204 H 0.20916 0.77998 0.35588 0.0
H205 H 0.16969 0.80515 0.31614 0.0
H206 H 0.19389 0.81504 0.29304 0.0
H207 H 0.22337 0.81753 0.25945 0.0
H208 H 0.23678 0.80177 0.23023 0.0
H209 H 0.2676 0.76867 0.27251 0.0
N210 N 0.22912 0.81196 0.29921 0.0
H211 H 0.25276 0.78358 0.30155 0.0
C212 C 0.30317 0.75849 0.17029 0.0
C213 C 0.30428 0.76531 0.15018 0.0
C214 C 0.32061 0.77181 0.14249 0.0
C215 C 0.33624 0.77147 0.15477 0.0
C216 C 0.33507 0.76489 0.17511 0.0
C217 C 0.31862 0.75856 0.18287 0.0
C218 C 0.28454 0.73182 0.17352 0.0
C219 C 0.29679 0.71928 0.18185 0.0
C220 C 0.29659 0.70131 0.17524 0.0
C221 C 0.2841 0.69551 0.1603 0.0
C222 C 0.27129 0.7079 0.15282 0.0
C223 C 0.27158 0.72588 0.15935 0.0
C224 C 0.2788 0.75877 0.19576 0.0
C225 C 0.27375 0.77698 0.19536 0.0
C226 C 0.2661 0.78521 0.21263 0.0
C227 C 0.26276 0.77531 0.23078 0.0
C228 C 0.26799 0.75702 0.2313 0.0
C229 C 0.27608 0.74887 0.21407 0.0
C230 C 0.23946 0.82555 0.3098 0.0
C231 C 0.23288 0.84325 0.3101 0.0
C232 C 0.2409 0.85631 0.32264 0.0
C233 C 0.2558 0.85193 0.33516 0.0
C234 C 0.26285 0.83432 0.33415 0.0
C235 C 0.2547 0.82122 0.3217 0.0
C236 C 0.21528 0.80326 0.31112 0.0
C237 C 0.2194 0.79295 0.32869 0.0
C238 C 0.20563 0.78741 0.34206 0.0
C239 C 0.18754 0.79191 0.33792 0.0
C240 C 0.18345 0.80133 0.31967 0.0
C241 C 0.19722 0.80699 0.30647 0.0
C242 C 0.23737 0.80207 0.28259 0.0
C243 C 0.23299 0.80682 0.26232 0.0
C244 C 0.24087 0.79787 0.24564 0.0
C245 C 0.2537 0.78412 0.24882 0.0
C246 C 0.25779 0.77912 0.26931 0.0
C247 C 0.24953 0.78786 0.28604 0.0
H248 H 0.19562 0.82777 0.71614 0.0
N249 N 0.21575 0.79862 0.72149 0.0
H250 H 0.20242 0.85438 0.69556 0.0
H251 H 0.24887 0.80688 0.70388 0.0
H252 H 0.25621 0.83384 0.68458 0.0
H253 H 0.22022 0.78744 0.68155 0.0
H254 H 0.1976 0.7726 0.66005 0.0
H255 H 0.18393 0.78589 0.73349 0.0
H256 H 0.16135 0.77044 0.71232 0.0
H257 H 0.21877 0.79838 0.76232 0.0
H258 H 0.24161 0.77534 0.70715 0.0
H259 H 0.23871 0.77976 0.78347 0.0
H260 H 0.26247 0.75764 0.72789 0.0
H261 H 0.29516 0.7325 0.84677 0.0
H262 H 0.32091 0.74026 0.8686 0.0
H263 H 0.35679 0.73229 0.81691 0.0
H264 H 0.33093 0.72395 0.79517 0.0
H265 H 0.30598 0.68537 0.80862 0.0
H266 H 0.29177 0.66145 0.82874 0.0
H267 H 0.25039 0.69884 0.84838 0.0
H268 H 0.26519 0.72283 0.82884 0.0
H269 H 0.28575 0.75438 0.8169 0.0
H270 H 0.26758 0.77434 0.79555 0.0
H271 H 0.26396 0.73266 0.74892 0.0
N272 N 0.29674 0.7199 0.80695 0.0
H273 H 0.28325 0.71333 0.76983 0.0
C274 C 0.22157 0.8152 0.71173 0.0
C275 C 0.20895 0.82914 0.70947 0.0
C276 C 0.21294 0.84443 0.69774 0.0
C277 C 0.2299 0.84637 0.6882 0.0
C278 C 0.24286 0.83272 0.69123 0.0
C279 C 0.2387 0.81723 0.70261 0.0
C280 C 0.20363 0.78792 0.70911 0.0
C281 C 0.20749 0.78357 0.68843 0.0
C282 C 0.19454 0.77498 0.67618 0.0
C283 C 0.17755 0.77046 0.68438 0.0
C284 C 0.17414 0.77405 0.70537 0.0
C285 C 0.18704 0.78273 0.71755 0.0
C286 C 0.22879 0.78843 0.73323 0.0
C287 C 0.22839 0.78955 0.7548 0.0
C288 C 0.23992 0.77895 0.76684 0.0
C289 C 0.25234 0.76709 0.75751 0.0
C290 C 0.25292 0.76628 0.73576 0.0
C291 C 0.24111 0.77661 0.72378 0.0
C292 C 0.31117 0.72734 0.81931 0.0
C293 C 0.30851 0.73252 0.84003 0.0
C294 C 0.32323 0.73695 0.85252 0.0
C295 C 0.34082 0.73669 0.84446 0.0
C296 C 0.34335 0.73262 0.82347 0.0
C297 C 0.32864 0.72788 0.81106 0.0
C298 C 0.28667 0.7058 0.81711 0.0
C299 C 0.2937 0.68828 0.81704 0.0
C300 C 0.28546 0.67462 0.82847 0.0
C301 C 0.26986 0.67817 0.84019 0.0
C302 C 0.26248 0.69566 0.83973 0.0
C303 C 0.27084 0.70938 0.82839 0.0
C304 C 0.28617 0.73236 0.79479 0.0
C305 C 0.28133 0.74962 0.80195 0.0
C306 C 0.27067 0.761 0.78975 0.0
C307 C 0.26423 0.75526 0.77034 0.0
C308 C 0.26896 0.73787 0.76344 0.0
C309 C 0.27989 0.72668 0.77546 0.0
H310 H 0.29024 0.26772 0.87223 0.0
N311 N 0.28474 0.27843 0.83366 0.0
H312 H 0.31835 0.2568 0.88744 0.0
H313 H 0.31583 0.27051 0.81258 0.0
H314 H 0.34375 0.25889 0.82737 0.0
H315 H 0.31062 0.30421 0.82728 0.0
H316 H 0.3098 0.33494 0.84035 0.0
H317 H 0.25575 0.29603 0.84702 0.0
H318 H 0.2541 0.32735 0.85846 0.0
H319 H 0.25766 0.25523 0.83392 0.0
H320 H 0.29253 0.28485 0.79306 0.0
H321 H 0.24321 0.24076 0.80443 0.0
H322 H 0.27904 0.26953 0.76323 0.0
H323 H 0.21742 0.18093 0.70611 0.0
H324 H 0.23379 0.15877 0.6856 0.0
H325 H 0.27747 0.19687 0.6777 0.0
H326 H 0.26032 0.2193 0.69737 0.0
H327 H 0.23142 0.23385 0.67888 0.0
H328 H 0.20735 0.24445 0.65595 0.0
H329 H 0.16751 0.22531 0.69944 0.0
H330 H 0.1917 0.2148 0.72223 0.0
H331 H 0.23421 0.20249 0.75192 0.0
H332 H 0.24886 0.21845 0.78021 0.0
H333 H 0.25355 0.2659 0.74171 0.0
N334 N 0.22687 0.21457 0.71444 0.0
H335 H 0.23985 0.2493 0.71308 0.0
C336 C 0.30084 0.26982 0.84133 0.0
C337 C 0.30182 0.26551 0.86234 0.0
C338 C 0.31789 0.25918 0.87095 0.0
C339 C 0.33338 0.25693 0.85864 0.0
C340 C 0.33217 0.26065 0.83736 0.0
C341 C 0.3161 0.26713 0.82881 0.0
C342 C 0.28335 0.29764 0.83673 0.0
C343 C 0.29821 0.30918 0.83396 0.0
C344 C 0.29763 0.32693 0.84133 0.0
C345 C 0.28201 0.33368 0.85107 0.0
C346 C 0.26663 0.32253 0.85188 0.0
C347 C 0.2674 0.30467 0.84503 0.0
C348 C 0.27629 0.2708 0.81567 0.0
C349 C 0.26227 0.25845 0.81848 0.0
C350 C 0.25418 0.25007 0.80157 0.0
C351 C 0.26016 0.25363 0.78133 0.0
C352 C 0.274 0.26645 0.77851 0.0
C353 C 0.28189 0.27509 0.79554 0.0
C354 C 0.2377 0.2016 0.70345 0.0
C355 C 0.23059 0.18439 0.70005 0.0
C356 C 0.24009 0.17171 0.68844 0.0
C357 C 0.25714 0.17587 0.68011 0.0
C358 C 0.26435 0.19319 0.68369 0.0
C359 C 0.25466 0.20599 0.69512 0.0
C360 C 0.21326 0.22346 0.70223 0.0
C361 C 0.21751 0.23224 0.68361 0.0
C362 C 0.20375 0.23818 0.67048 0.0
C363 C 0.18553 0.23558 0.67581 0.0
C364 C 0.18139 0.22766 0.69496 0.0
C365 C 0.19516 0.22163 0.70799 0.0
C366 C 0.23565 0.22472 0.73056 0.0
C367 C 0.23846 0.21633 0.74963 0.0
C368 C 0.2467 0.22558 0.76584 0.0
C369 C 0.25214 0.24366 0.76349 0.0
C370 C 0.24964 0.25199 0.74413 0.0
C371 C 0.24161 0.24257 0.72775 0.0
H372 H 0.79032 0.26318 0.6462 0.0
N373 N 0.78739 0.24801 0.6832 0.0
H374 H 0.81763 0.27517 0.62988 0.0
H375 H 0.82037 0.25277 0.70194 0.0
H376 H 0.84748 0.26489 0.68594 0.0
H377 H 0.81339 0.22177 0.68708 0.0
H378 H 0.81189 0.19136 0.67333 0.0
H379 H 0.75843 0.23132 0.66839 0.0
H380 H 0.75619 0.20027 0.65607 0.0
H381 H 0.76184 0.272 0.69127 0.0
H382 H 0.79896 0.23552 0.72075 0.0
H383 H 0.75075 0.28178 0.72498 0.0
H384 H 0.78896 0.24601 0.75459 0.0
H385 H 0.735 0.32435 0.81525 0.0
H386 H 0.74577 0.35212 0.83084 0.0
H387 H 0.78622 0.32207 0.86439 0.0
H388 H 0.77567 0.29419 0.84797 0.0
H389 H 0.7374 0.27305 0.85743 0.0
H390 H 0.70703 0.27065 0.872 0.0
H391 H 0.68544 0.29818 0.81867 0.0
H392 H 0.71591 0.30027 0.80406 0.0
H393 H 0.74808 0.30971 0.78707 0.0
H394 H 0.75799 0.29905 0.75358 0.0
H395 H 0.76587 0.24566 0.77895 0.0
N396 N 0.74725 0.29012 0.8233 0.0
H397 H 0.75699 0.2569 0.81294 0.0
C398 C 0.80317 0.25709 0.67525 0.0
C399 C 0.8027 0.26384 0.65504 0.0
C400 C 0.8183 0.27071 0.64578 0.0
C401 C 0.83475 0.27087 0.65658 0.0
C402 C 0.83506 0.26473 0.67712 0.0
C403 C 0.81945 0.25792 0.68638 0.0
C404 C 0.78611 0.22906 0.67824 0.0
C405 C 0.80086 0.21725 0.68031 0.0
C406 C 0.79989 0.19964 0.6726 0.0
C407 C 0.784 0.19326 0.66315 0.0
C408 C 0.76887 0.20478 0.66254 0.0
C409 C 0.77001 0.2225 0.66982 0.0
C410 C 0.78132 0.25326 0.70348 0.0
C411 C 0.76771 0.26627 0.7051 0.0
C412 C 0.76153 0.27193 0.72443 0.0
C413 C 0.76904 0.26487 0.7427 0.0
C414 C 0.78264 0.25165 0.74098 0.0
C415 C 0.78859 0.24577 0.72158 0.0
C416 C 0.75462 0.30707 0.83037 0.0
C417 C 0.74643 0.32367 0.82558 0.0
C418 C 0.7525 0.3396 0.83472 0.0
C419 C 0.76673 0.33933 0.84908 0.0
C420 C 0.77534 0.32281 0.85326 0.0
C421 C 0.76932 0.30686 0.84396 0.0
C422 C 0.72894 0.28686 0.82979 0.0
C423 C 0.72605 0.27821 0.84872 0.0
C424 C 0.7087 0.27686 0.85698 0.0
C425 C 0.69386 0.28431 0.84651 0.0
C426 C 0.69666 0.29248 0.82717 0.0
C427 C 0.71404 0.29363 0.81878 0.0
C428 C 0.75207 0.28415 0.80279 0.0
C429 C 0.75204 0.29576 0.78562 0.0
C430 C 0.75757 0.28953 0.76623 0.0
C431 C 0.76286 0.27143 0.76337 0.0
C432 C 0.76233 0.25976 0.78051 0.0
C433 C 0.75709 0.2661 0.79995 0.0
H434 H 0.75962 0.78294 0.64548 0.0
N435 N 0.77729 0.7783 0.68075 0.0
H436 H 0.74796 0.81124 0.6312 0.0
H437 H 0.77529 0.81091 0.70106 0.0
H438 H 0.76358 0.83899 0.68707 0.0
H439 H 0.805 0.80256 0.68565 0.0
H440 H 0.83449 0.80099 0.66944 0.0
H441 H 0.79142 0.75041 0.6607 0.0
H442 H 0.82149 0.74812 0.64539 0.0
H443 H 0.75293 0.75349 0.6903 0.0
H444 H 0.79274 0.78851 0.71745 0.0
H445 H 0.74461 0.7425 0.72456 0.0
H446 H 0.78372 0.77874 0.75178 0.0
H447 H 0.70643 0.72777 0.82181 0.0
H448 H 0.67947 0.74053 0.83706 0.0
H449 H 0.70973 0.78787 0.85514 0.0
H450 H 0.73712 0.77426 0.84086 0.0
H451 H 0.75761 0.73353 0.85864 0.0
H452 H 0.7604 0.70378 0.87479 0.0
H453 H 0.73304 0.67976 0.82271 0.0
H454 H 0.73053 0.70959 0.80654 0.0
H455 H 0.71965 0.74191 0.78884 0.0
H456 H 0.72923 0.75029 0.75427 0.0
H457 H 0.78408 0.75601 0.77617 0.0
N458 N 0.7407 0.74177 0.82382 0.0
H459 H 0.77397 0.74887 0.81111 0.0
C460 C 0.76835 0.79467 0.67428 0.0
C461 C 0.76018 0.79508 0.65477 0.0
C462 C 0.7535 0.81124 0.64668 0.0
C463 C 0.75497 0.82737 0.65797 0.0
C464 C 0.76246 0.82681 0.6779 0.0
C465 C 0.76907 0.81065 0.68599 0.0
C466 C 0.7958 0.77667 0.67407 0.0
C467 C 0.80845 0.79059 0.67699 0.0
C468 C 0.82549 0.78959 0.66779 0.0
C469 C 0.83042 0.77453 0.65578 0.0
C470 C 0.81807 0.76017 0.654 0.0
C471 C 0.80094 0.76132 0.66294 0.0
C472 C 0.77325 0.77193 0.70128 0.0
C473 C 0.75976 0.75889 0.70373 0.0
C474 C 0.75492 0.75278 0.72338 0.0
C475 C 0.76331 0.75981 0.74116 0.0
C476 C 0.77707 0.77275 0.73858 0.0
C477 C 0.78213 0.77859 0.71887 0.0
C478 C 0.724 0.74991 0.83059 0.0
C479 C 0.70737 0.74085 0.82908 0.0
C480 C 0.69179 0.74835 0.83761 0.0
C481 C 0.69232 0.76525 0.84754 0.0
C482 C 0.70882 0.77467 0.84806 0.0
C483 C 0.72447 0.76701 0.83976 0.0
C484 C 0.74385 0.72379 0.83151 0.0
C485 C 0.75252 0.72178 0.85058 0.0
C486 C 0.75411 0.7048 0.85973 0.0
C487 C 0.74686 0.68947 0.85004 0.0
C488 C 0.7386 0.69138 0.83061 0.0
C489 C 0.73723 0.70838 0.82132 0.0
C490 C 0.74608 0.74514 0.80274 0.0
C491 C 0.7337 0.74507 0.78628 0.0
C492 C 0.7393 0.74969 0.76634 0.0
C493 C 0.75747 0.75404 0.76226 0.0
C494 C 0.76991 0.75327 0.77867 0.0
C495 C 0.76422 0.749 0.79866 0.0
C496 C 0.99351 0.28917 0.53472 0.0
C497 C 0.03723 0.28974 0.47842 0.0
O498 O 0.00056 0.3029 0.52615 0.0
Zn499 Zn 0.01577 0.2898 0.50721 0.0
O500 O 0.99812 0.27327 0.52887 0.0
Zn501 Zn 0.01568 0.26117 0.5061 0.0
O502 O 0.0329 0.24767 0.52241 0.0
O503 O 0.03471 0.27703 0.5276 0.0
O504 O 0.03233 0.27378 0.48344 0.0
O505 O 0.03124 0.3032 0.48844 0.0
O506 O 0.99559 0.27783 0.48746 0.0
O507 O 0.99872 0.24823 0.48894 0.0
C508 C 0.04002 0.26097 0.53171 0.0
C509 C 0.99049 0.26199 0.48199 0.0
C510 C 0.77619 0.03354 0.53804 0.0
C511 C 0.77756 0.98541 0.48636 0.0
O512 O 0.78993 0.02517 0.53123 0.0
Zn513 Zn 0.77722 0.00923 0.51254 0.0
O514 O 0.76042 0.02911 0.53164 0.0
Zn515 Zn 0.74863 0.00991 0.51068 0.0
O516 O 0.7342 0.99459 0.52831 0.0
O517 O 0.76346 0.99142 0.53335 0.0
O518 O 0.76153 0.9907 0.49073 0.0
O519 O 0.79092 0.99264 0.49547 0.0
O520 O 0.76619 0.02762 0.49005 0.0
O521 O 0.73651 0.02545 0.49126 0.0
C522 C 0.74718 0.98705 0.53779 0.0
C523 C 0.75059 0.03249 0.48348 0.0
C524 C 0.99182 0.77153 0.53201 0.0
C525 C 0.04253 0.77261 0.48382 0.0
O526 O 0.00047 0.78534 0.52589 0.0
Zn527 Zn 0.01777 0.77249 0.50894 0.0
O528 O 0.99692 0.75573 0.5264 0.0
Zn529 Zn 0.01773 0.74383 0.50756 0.0
O530 O 0.03269 0.73032 0.52674 0.0
O531 O 0.03395 0.7597 0.53184 0.0
O532 O 0.03702 0.7566 0.48776 0.0
O533 O 0.0354 0.78596 0.49305 0.0
O534 O 0.00061 0.76054 0.48558 0.0
O535 O 0.00309 0.73088 0.48801 0.0
C536 C 0.03864 0.74369 0.53692 0.0
C537 C 0.99617 0.74468 0.47943 0.0
C538 C 0.28838 0.03472 0.54126 0.0
C539 C 0.28124 0.98983 0.48676 0.0
O540 O 0.30079 0.02718 0.53084 0.0
Zn541 Zn 0.28511 0.01239 0.51375 0.0
O542 O 0.27183 0.03102 0.53748 0.0
Zn543 Zn 0.25672 0.0146 0.51662 0.0
O544 O 0.24342 0.99953 0.53538 0.0
O545 O 0.27268 0.99389 0.53538 0.0
O546 O 0.2661 0.99565 0.49372 0.0
O547 O 0.29588 0.99602 0.49414 0.0
O548 O 0.27276 0.03215 0.49394 0.0
O549 O 0.2436 0.03229 0.50067 0.0
C550 C 0.25674 0.99048 0.54211 0.0
C551 C 0.25693 0.0385 0.49062 0.0
C552 C 0.49393 0.78787 0.03199 0.0
C553 C 0.53946 0.78738 0.97763 0.0
O554 O 0.50071 0.80136 0.02271 0.0
Zn555 Zn 0.51686 0.78789 0.00504 0.0
O556 O 0.49905 0.77188 0.02716 0.0
Zn557 Zn 0.51725 0.75934 0.00559 0.0
O558 O 0.53404 0.74666 0.02322 0.0
O559 O 0.53547 0.77622 0.02683 0.0
O560 O 0.53468 0.77145 0.98305 0.0
O561 O 0.53275 0.801 0.98672 0.0
O562 O 0.49811 0.77482 0.98427 0.0
O563 O 0.50084 0.74543 0.98885 0.0
C564 C 0.5408 0.7604 0.03203 0.0
C565 C 0.49327 0.75865 0.97984 0.0
C566 C 0.27937 0.53443 0.03842 0.0
C567 C 0.27897 0.48704 0.98576 0.0
O568 O 0.29291 0.52671 0.03021 0.0
Zn569 Zn 0.27961 0.51074 0.01209 0.0
O570 O 0.2634 0.5298 0.03289 0.0
Zn571 Zn 0.25088 0.51125 0.01171 0.0
O572 O 0.23716 0.49569 0.0298 0.0
O573 O 0.26663 0.49271 0.03343 0.0
O574 O 0.26309 0.49207 0.99115 0.0
O575 O 0.29266 0.49452 0.9939 0.0
O576 O 0.26783 0.52929 0.99072 0.0
O577 O 0.23822 0.52739 0.99305 0.0
C578 C 0.25054 0.48823 0.03862 0.0
C579 C 0.25213 0.53444 0.98489 0.0
C580 C 0.54065 0.27857 0.98083 0.0
C581 C 0.49431 0.27811 0.03472 0.0
O582 O 0.53341 0.29214 0.98954 0.0
Zn583 Zn 0.51775 0.27885 0.00813 0.0
O584 O 0.53576 0.26263 0.98611 0.0
Zn585 Zn 0.51726 0.2501 0.0072 0.0
O586 O 0.50109 0.23749 0.98874 0.0
O587 O 0.49837 0.26712 0.98735 0.0
O588 O 0.49855 0.26229 0.02835 0.0
O589 O 0.50253 0.29181 0.02758 0.0
O590 O 0.53664 0.26579 0.02811 0.0
O591 O 0.5331 0.23637 0.02517 0.0
C592 C 0.49335 0.25139 0.98139 0.0
C593 C 0.54119 0.24973 0.03328 0.0
C594 C 0.78159 0.53486 0.03953 0.0
C595 C 0.7815 0.48913 0.98522 0.0
O596 O 0.79525 0.52795 0.03067 0.0
Zn597 Zn 0.78194 0.5123 0.01215 0.0
O598 O 0.76566 0.53028 0.03388 0.0
Zn599 Zn 0.75331 0.51273 0.01162 0.0
O600 O 0.7394 0.49699 0.02907 0.0
O601 O 0.76879 0.49381 0.03314 0.0
O602 O 0.76561 0.4942 0.99049 0.0
O603 O 0.79513 0.4962 0.99395 0.0
O604 O 0.77024 0.53145 0.99112 0.0
O605 O 0.74067 0.52918 0.99351 0.0
C606 C 0.7526 0.48935 0.03804 0.0
C607 C 0.75446 0.53656 0.98549 0.0
H608 H 0.13961 0.25453 0.32846 0.0
H609 H 0.11654 0.2663 0.35157 0.0
H610 H 0.15783 0.2865 0.39244 0.0
H611 H 0.18101 0.27365 0.37011 0.0
H612 H 0.13449 0.2697 0.41393 0.0
H613 H 0.12954 0.31497 0.36232 0.0
H614 H 0.12649 0.32754 0.32725 0.0
H615 H 0.07488 0.30189 0.32068 0.0
H616 H 0.07773 0.28895 0.35561 0.0
H617 H 0.06669 0.31181 0.47715 0.0
H618 H 0.09087 0.31141 0.45107 0.0
H619 H 0.06097 0.27241 0.41546 0.0
H620 H 0.03724 0.27219 0.44181 0.0
H621 H 0.07972 0.30319 0.39227 0.0
H622 H 0.08757 0.25539 0.44303 0.0
H623 H 0.09129 0.24342 0.47827 0.0
H624 H 0.1392 0.27525 0.48609 0.0
H625 H 0.13531 0.28797 0.45123 0.0
C626 C 0.14384 0.26145 0.34237 0.0
C627 C 0.16224 0.26295 0.34745 0.0
C628 C 0.13058 0.26846 0.35544 0.0
C629 C 0.13538 0.27751 0.3737 0.0
C630 C 0.15375 0.27963 0.37843 0.0
C631 C 0.16703 0.27241 0.3655 0.0
C632 C 0.12126 0.28328 0.38867 0.0
C633 C 0.12276 0.27741 0.40922 0.0
C634 C 0.10573 0.29309 0.38257 0.0
C635 C 0.10392 0.30088 0.36155 0.0
C636 C 0.1176 0.3119 0.35335 0.0
C637 C 0.11589 0.31911 0.3335 0.0
C638 C 0.10052 0.31549 0.32173 0.0
C639 C 0.08679 0.30468 0.32981 0.0
C640 C 0.08843 0.29742 0.34965 0.0
C641 C 0.06517 0.30347 0.46352 0.0
C642 C 0.05021 0.292 0.46141 0.0
C643 C 0.07894 0.30323 0.44871 0.0
C644 C 0.07764 0.29187 0.4314 0.0
C645 C 0.06214 0.28131 0.42867 0.0
C646 C 0.04867 0.28115 0.44372 0.0
C647 C 0.09309 0.2895 0.41721 0.0
C648 C 0.09173 0.29587 0.39689 0.0
C649 C 0.10886 0.28032 0.42352 0.0
C650 C 0.11093 0.27293 0.44467 0.0
C651 C 0.09867 0.26014 0.45243 0.0
C652 C 0.10082 0.25319 0.47234 0.0
C653 C 0.11537 0.25868 0.48451 0.0
C654 C 0.12781 0.27113 0.47678 0.0
C655 C 0.1256 0.27827 0.45696 0.0
H656 H 0.11707 0.25318 0.49987 0.0
H657 H 0.09922 0.32108 0.30637 0.0
H658 H 0.78479 0.16411 0.36798 0.0
H659 H 0.77976 0.1353 0.3851 0.0
H660 H 0.72234 0.14474 0.38429 0.0
H661 H 0.72728 0.1737 0.36698 0.0
H662 H 0.73339 0.13477 0.42181 0.0
H663 H 0.74127 0.11214 0.35353 0.0
H664 H 0.75593 0.10861 0.3196 0.0
H665 H 0.80333 0.08736 0.34891 0.0
H666 H 0.78906 0.091 0.38306 0.0
H667 H 0.72 0.04828 0.46778 0.0
H668 H 0.71828 0.07278 0.44246 0.0
H669 H 0.77632 0.07315 0.43768 0.0
H670 H 0.77817 0.04866 0.46268 0.0
H671 H 0.76066 0.07664 0.40012 0.0
H672 H 0.75459 0.10339 0.46796 0.0
H673 H 0.74058 0.10729 0.50222 0.0
H674 H 0.69019 0.12106 0.47354 0.0
H675 H 0.70387 0.11699 0.43909 0.0
C676 C 0.77105 0.15991 0.37098 0.0
C677 C 0.75643 0.17121 0.36604 0.0
C678 C 0.76819 0.14341 0.38082 0.0
C679 C 0.75065 0.13775 0.38579 0.0
C680 C 0.73599 0.14883 0.38057 0.0
C681 C 0.73884 0.16539 0.37074 0.0
C682 C 0.74788 0.12087 0.39772 0.0
C683 C 0.73899 0.12196 0.41682 0.0
C684 C 0.75548 0.10423 0.39142 0.0
C685 C 0.76412 0.10196 0.37089 0.0
C686 C 0.75487 0.10684 0.35276 0.0
C687 C 0.7631 0.10479 0.33348 0.0
C688 C 0.78056 0.09779 0.3321 0.0
C689 C 0.78981 0.09278 0.35 0.0
C690 C 0.78164 0.09481 0.36933 0.0
C691 C 0.73238 0.05349 0.46121 0.0
C692 C 0.74922 0.0466 0.46737 0.0
C693 C 0.73137 0.06751 0.44679 0.0
C694 C 0.74719 0.07489 0.43834 0.0
C695 C 0.76395 0.06765 0.44398 0.0
C696 C 0.76497 0.05369 0.45838 0.0
C697 C 0.7465 0.09069 0.4243 0.0
C698 C 0.75476 0.08939 0.40485 0.0
C699 C 0.73838 0.10716 0.43029 0.0
C700 C 0.73018 0.10967 0.45097 0.0
C701 C 0.74048 0.10711 0.46897 0.0
C702 C 0.73261 0.10937 0.48842 0.0
C703 C 0.71449 0.11437 0.49006 0.0
C704 C 0.70422 0.11716 0.47225 0.0
C705 C 0.71202 0.11488 0.45276 0.0
H706 H 0.70842 0.11612 0.50513 0.0
H707 H 0.78692 0.09622 0.31716 0.0
H708 H 0.86599 0.77722 0.35924 0.0
H709 H 0.89449 0.77144 0.37681 0.0
H710 H 0.87388 0.72066 0.39916 0.0
H711 H 0.84521 0.72636 0.38151 0.0
H712 H 0.88954 0.73934 0.42963 0.0
H713 H 0.90602 0.72195 0.36117 0.0
H714 H 0.90886 0.72519 0.32342 0.0
H715 H 0.94223 0.77197 0.33163 0.0
H716 H 0.93939 0.76917 0.36944 0.0
H717 H 0.97494 0.71526 0.47163 0.0
H718 H 0.94893 0.71373 0.4483 0.0
H719 H 0.95947 0.76812 0.42806 0.0
H720 H 0.9853 0.76985 0.45145 0.0
H721 H 0.94937 0.74399 0.39563 0.0
H722 H 0.93016 0.76327 0.46335 0.0
H723 H 0.92773 0.76041 0.50119 0.0
H724 H 0.89947 0.71024 0.49413 0.0
H725 H 0.90205 0.71263 0.45621 0.0
C726 C 0.86761 0.76465 0.36754 0.0
C727 C 0.85333 0.75221 0.36888 0.0
C728 C 0.88393 0.76137 0.37762 0.0
C729 C 0.88641 0.74551 0.38912 0.0
C730 C 0.87226 0.73298 0.39036 0.0
C731 C 0.85589 0.73627 0.3803 0.0
C732 C 0.90348 0.74254 0.40064 0.0
C733 C 0.9026 0.73997 0.4221 0.0
C734 C 0.92056 0.74374 0.39091 0.0
C735 C 0.92238 0.74542 0.36816 0.0
C736 C 0.91386 0.73301 0.35493 0.0
C737 C 0.91549 0.73475 0.33351 0.0
C738 C 0.92569 0.7488 0.32513 0.0
C739 C 0.93432 0.76111 0.33814 0.0
C740 C 0.93273 0.75943 0.35957 0.0
C741 C 0.9719 0.72677 0.46194 0.0
C742 C 0.98207 0.74272 0.46346 0.0
C743 C 0.95703 0.72589 0.44868 0.0
C744 C 0.95225 0.74087 0.4366 0.0
C745 C 0.96297 0.75643 0.43726 0.0
C746 C 0.97766 0.75741 0.4507 0.0
C747 C 0.93532 0.74092 0.42449 0.0
C748 C 0.93626 0.74305 0.403 0.0
C749 C 0.9183 0.73935 0.43418 0.0
C750 C 0.9165 0.73801 0.45696 0.0
C751 C 0.92357 0.75154 0.46987 0.0
C752 C 0.92215 0.75002 0.49133 0.0
C753 C 0.9135 0.73513 0.50006 0.0
C754 C 0.9062 0.72175 0.48734 0.0
C755 C 0.90764 0.72318 0.46586 0.0
H756 H 0.91241 0.73397 0.51668 0.0
H757 H 0.92693 0.75013 0.30854 0.0
H758 H 0.25994 0.88852 0.33007 0.0
H759 H 0.26828 0.9107 0.35621 0.0
H760 H 0.27699 0.86796 0.40031 0.0
H761 H 0.26765 0.84579 0.37464 0.0
H762 H 0.25792 0.89259 0.41742 0.0
H763 H 0.31257 0.89303 0.3792 0.0
H764 H 0.33205 0.89477 0.3484 0.0
H765 H 0.31341 0.94862 0.33653 0.0
H766 H 0.29361 0.94712 0.3671 0.0
H767 H 0.3103 0.97101 0.47158 0.0
H768 H 0.30988 0.94639 0.44627 0.0
H769 H 0.25227 0.95241 0.43989 0.0
H770 H 0.2525 0.97663 0.46531 0.0
H771 H 0.3001 0.94367 0.40652 0.0
H772 H 0.23258 0.91213 0.43469 0.0
H773 H 0.21544 0.90908 0.46716 0.0
H774 H 0.2644 0.9141 0.5021 0.0
H775 H 0.28187 0.91691 0.46986 0.0
C776 C 0.26363 0.88381 0.34532 0.0
C777 C 0.26302 0.86532 0.35021 0.0
C778 C 0.26864 0.89652 0.36021 0.0
C779 C 0.27343 0.89103 0.38023 0.0
C780 C 0.27338 0.87255 0.38497 0.0
C781 C 0.26821 0.85984 0.37016 0.0
C782 C 0.27717 0.90461 0.3966 0.0
C783 C 0.26724 0.90368 0.41504 0.0
C784 C 0.2896 0.91891 0.39377 0.0
C785 C 0.3015 0.9199 0.37537 0.0
C786 C 0.31252 0.9052 0.36994 0.0
C787 C 0.32364 0.90615 0.35254 0.0
C788 C 0.32394 0.92178 0.3405 0.0
C789 C 0.31315 0.93651 0.34587 0.0
C790 C 0.302 0.93563 0.36325 0.0
C791 C 0.29756 0.96711 0.46472 0.0
C792 C 0.28142 0.97567 0.47062 0.0
C793 C 0.29735 0.95308 0.45024 0.0
C794 C 0.281 0.94736 0.44145 0.0
C795 C 0.26499 0.95632 0.44679 0.0
C796 C 0.26517 0.97023 0.4613 0.0
C797 C 0.28046 0.93186 0.42694 0.0
C798 C 0.29094 0.93245 0.4089 0.0
C799 C 0.26889 0.91697 0.43035 0.0
C800 C 0.25852 0.91488 0.44983 0.0
C801 C 0.23971 0.91248 0.4493 0.0
C802 C 0.22993 0.91081 0.46766 0.0
C803 C 0.23882 0.91145 0.48668 0.0
C804 C 0.25752 0.91367 0.48736 0.0
C805 C 0.26737 0.91531 0.46905 0.0
H806 H 0.23121 0.9102 0.50088 0.0
H807 H 0.33256 0.92249 0.32703 0.0
H808 H 0.14166 0.77903 0.68481 0.0
H809 H 0.11818 0.76873 0.66131 0.0
H810 H 0.15694 0.73569 0.62909 0.0
H811 H 0.1806 0.74572 0.65287 0.0
H812 H 0.13719 0.75629 0.6028 0.0
H813 H 0.12474 0.71603 0.65848 0.0
H814 H 0.11902 0.70725 0.69461 0.0
H815 H 0.07134 0.74013 0.69558 0.0
H816 H 0.0769 0.74932 0.65954 0.0
H817 H 0.06636 0.71951 0.53982 0.0
H818 H 0.09013 0.71895 0.56634 0.0
H819 H 0.06321 0.7618 0.59921 0.0
H820 H 0.0399 0.76288 0.57246 0.0
H821 H 0.078 0.73155 0.6247 0.0
H822 H 0.09276 0.77541 0.57252 0.0
H823 H 0.09821 0.7861 0.53705 0.0
H824 H 0.14157 0.74811 0.53043 0.0
H825 H 0.136 0.73682 0.56572 0.0
C826 C 0.14518 0.76924 0.67306 0.0
C827 C 0.16306 0.76316 0.67082 0.0
C828 C 0.1317 0.76339 0.65958 0.0
C829 C 0.13575 0.75129 0.64357 0.0
C830 C 0.15352 0.74501 0.64137 0.0
C831 C 0.16703 0.75083 0.65492 0.0
C832 C 0.12161 0.7462 0.62841 0.0
C833 C 0.12443 0.75044 0.60754 0.0
C834 C 0.10477 0.739 0.63466 0.0
C835 C 0.10132 0.73345 0.65633 0.0
C836 C 0.11311 0.72149 0.66644 0.0
C837 C 0.10988 0.71643 0.6869 0.0
C838 C 0.09484 0.72315 0.6974 0.0
C839 C 0.08298 0.73493 0.68744 0.0
C840 C 0.08615 0.74005 0.66698 0.0
C841 C 0.06539 0.72855 0.55292 0.0
C842 C 0.05139 0.74127 0.55414 0.0
C843 C 0.07895 0.72824 0.56798 0.0
C844 C 0.07837 0.74034 0.58467 0.0
C845 C 0.06382 0.75232 0.58649 0.0
C846 C 0.05058 0.75296 0.57119 0.0
C847 C 0.09364 0.74174 0.59928 0.0
C848 C 0.09096 0.73694 0.61999 0.0
C849 C 0.11057 0.74855 0.59296 0.0
C850 C 0.11374 0.75504 0.57161 0.0
C851 C 0.10324 0.76911 0.56338 0.0
C852 C 0.10638 0.77531 0.54332 0.0
C853 C 0.12015 0.76772 0.53144 0.0
C854 C 0.13082 0.7539 0.5396 0.0
C855 C 0.12766 0.74756 0.55961 0.0
H856 H 0.12261 0.77267 0.51599 0.0
H857 H 0.09237 0.71921 0.71324 0.0
H858 H 0.2784 0.18165 0.64578 0.0
H859 H 0.29203 0.15903 0.62326 0.0
H860 H 0.2705 0.11673 0.66181 0.0
H861 H 0.25821 0.13916 0.68527 0.0
H862 H 0.30086 0.10615 0.64886 0.0
H863 H 0.24935 0.13355 0.61566 0.0
H864 H 0.2312 0.15827 0.60088 0.0
H865 H 0.27362 0.17014 0.55783 0.0
H866 H 0.29214 0.14565 0.57257 0.0
H867 H 0.27127 0.03913 0.57776 0.0
H868 H 0.27476 0.064 0.60227 0.0
H869 H 0.31723 0.08644 0.56473 0.0
H870 H 0.31421 0.06106 0.54039 0.0
H871 H 0.28363 0.10916 0.57492 0.0
H872 H 0.33163 0.07543 0.60584 0.0
H873 H 0.34596 0.04819 0.62024 0.0
H874 H 0.30544 0.04559 0.66753 0.0
H875 H 0.2907 0.07267 0.65323 0.0
C876 C 0.27694 0.16755 0.6498 0.0
C877 C 0.26688 0.16229 0.66724 0.0
C878 C 0.28457 0.15459 0.63671 0.0
C879 C 0.28193 0.13611 0.64048 0.0
C880 C 0.27266 0.13087 0.6584 0.0
C881 C 0.26536 0.14377 0.67169 0.0
C882 C 0.2878 0.12213 0.62537 0.0
C883 C 0.29707 0.10686 0.6327 0.0
C884 C 0.28325 0.1231 0.60412 0.0
C885 C 0.27223 0.13797 0.59543 0.0
C886 C 0.25487 0.14156 0.60318 0.0
C887 C 0.24451 0.15551 0.59479 0.0
C888 C 0.25129 0.16582 0.57849 0.0
C889 C 0.26842 0.16219 0.57051 0.0
C890 C 0.27886 0.14829 0.57889 0.0
C891 C 0.28164 0.04914 0.575 0.0
C892 C 0.2925 0.04823 0.55726 0.0
C893 C 0.28364 0.06329 0.589 0.0
C894 C 0.29627 0.07697 0.58529 0.0
C895 C 0.30751 0.07589 0.56788 0.0
C896 C 0.30582 0.06141 0.55408 0.0
C897 C 0.29615 0.09317 0.59862 0.0
C898 C 0.28786 0.10877 0.59097 0.0
C899 C 0.30111 0.09228 0.61964 0.0
C900 C 0.31 0.07604 0.62838 0.0
C901 C 0.32569 0.06897 0.61921 0.0
C902 C 0.33391 0.05357 0.62738 0.0
C903 C 0.32661 0.04515 0.64477 0.0
C904 C 0.31109 0.05213 0.65406 0.0
C905 C 0.30281 0.06753 0.64595 0.0
H906 H 0.33299 0.03323 0.65107 0.0
H907 H 0.24323 0.1766 0.57199 0.0
H908 H 0.86741 0.25402 0.6583 0.0
H909 H 0.89496 0.26173 0.63975 0.0
H910 H 0.86816 0.3074 0.61211 0.0
H911 H 0.84036 0.29961 0.6306 0.0
H912 H 0.88643 0.28955 0.58379 0.0
H913 H 0.90047 0.31304 0.65015 0.0
H914 H 0.90338 0.31313 0.68807 0.0
H915 H 0.94176 0.26984 0.68467 0.0
H916 H 0.93889 0.2693 0.64673 0.0
H917 H 0.97066 0.31777 0.54028 0.0
H918 H 0.94435 0.3191 0.56327 0.0
H919 H 0.95769 0.26654 0.58732 0.0
H920 H 0.98372 0.26496 0.56419 0.0
H921 H 0.94626 0.2928 0.61799 0.0
H922 H 0.9287 0.26749 0.55178 0.0
H923 H 0.92619 0.26817 0.51381 0.0
H924 H 0.89443 0.31652 0.51742 0.0
H925 H 0.89705 0.3163 0.55543 0.0
C926 C 0.86744 0.26589 0.64856 0.0
C927 C 0.85173 0.27628 0.64605 0.0
C928 C 0.88323 0.2703 0.63795 0.0
C929 C 0.88375 0.28532 0.62476 0.0
C930 C 0.8681 0.29578 0.62224 0.0
C931 C 0.85223 0.2913 0.63279 0.0
C932 C 0.90045 0.28951 0.61298 0.0
C933 C 0.89944 0.29066 0.59135 0.0
C934 C 0.91752 0.29075 0.62275 0.0
C935 C 0.91936 0.29106 0.64558 0.0
C936 C 0.90943 0.30345 0.65749 0.0
C937 C 0.91109 0.30359 0.67899 0.0
C938 C 0.92272 0.29147 0.68878 0.0
C939 C 0.93275 0.27921 0.67707 0.0
C940 C 0.93113 0.279 0.65556 0.0
C941 C 0.96814 0.30665 0.55073 0.0
C942 C 0.97916 0.29121 0.55038 0.0
C943 C 0.95311 0.30741 0.56379 0.0
C944 C 0.94908 0.29287 0.57688 0.0
C945 C 0.96061 0.27789 0.57734 0.0
C946 C 0.97542 0.27699 0.56406 0.0
C947 C 0.93214 0.29253 0.58899 0.0
C948 C 0.93315 0.29203 0.61059 0.0
C949 C 0.91508 0.29202 0.57923 0.0
C950 C 0.91326 0.29201 0.55642 0.0
C951 C 0.92132 0.27835 0.54447 0.0
C952 C 0.91986 0.27864 0.52294 0.0
C953 C 0.91021 0.29241 0.5132 0.0
C954 C 0.90194 0.30589 0.52498 0.0
C955 C 0.90341 0.30569 0.54652 0.0
H956 H 0.9091 0.29262 0.49654 0.0
H957 H 0.92399 0.29161 0.70543 0.0
H958 H 0.77418 0.85867 0.65885 0.0
H959 H 0.76747 0.8869 0.64124 0.0
H960 H 0.71813 0.86407 0.61745 0.0
H961 H 0.72495 0.83553 0.63494 0.0
H962 H 0.73557 0.88046 0.58777 0.0
H963 H 0.71779 0.89735 0.65551 0.0
H964 H 0.72031 0.90061 0.69329 0.0
H965 H 0.76681 0.93449 0.68577 0.0
H966 H 0.76474 0.93123 0.64794 0.0
H967 H 0.71656 0.96681 0.54313 0.0
H968 H 0.71266 0.94089 0.56628 0.0
H969 H 0.76638 0.94897 0.5901 0.0
H970 H 0.77044 0.97467 0.56701 0.0
H971 H 0.74075 0.9406 0.6209 0.0
H972 H 0.76066 0.91928 0.55364 0.0
H973 H 0.75806 0.91599 0.51586 0.0
H974 H 0.70647 0.89044 0.52311 0.0
H975 H 0.70866 0.89383 0.56096 0.0
C976 C 0.76171 0.85974 0.65022 0.0
C977 C 0.75003 0.8449 0.6484 0.0
C978 C 0.75787 0.87593 0.64015 0.0
C979 C 0.74213 0.87775 0.62827 0.0
C980 C 0.73032 0.86301 0.62659 0.0
C981 C 0.73424 0.84672 0.63655 0.0
C982 C 0.73876 0.89468 0.6166 0.0
C983 C 0.73626 0.89359 0.59513 0.0
C984 C 0.73988 0.91187 0.6261 0.0
C985 C 0.74115 0.91396 0.64887 0.0
C986 C 0.72862 0.9054 0.66191 0.0
C987 C 0.72997 0.90726 0.68334 0.0
C988 C 0.74373 0.91773 0.69193 0.0
C989 C 0.75616 0.92639 0.67909 0.0
C990 C 0.75489 0.92456 0.65765 0.0
C991 C 0.72743 0.96321 0.55352 0.0
C992 C 0.74385 0.97269 0.55316 0.0
C993 C 0.7252 0.94839 0.56668 0.0
C994 C 0.73929 0.94298 0.57979 0.0
C995 C 0.75535 0.95295 0.58012 0.0
C996 C 0.75767 0.96758 0.56683 0.0
C997 C 0.73796 0.92626 0.5922 0.0
C998 C 0.73964 0.92742 0.61373 0.0
C999 C 0.73599 0.90914 0.58281 0.0
C1000 C 0.73472 0.90701 0.56009 0.0
C1001 C 0.74869 0.9131 0.54716 0.0
C1002 C 0.74731 0.9112 0.52574 0.0
C1003 C 0.73208 0.90306 0.51708 0.0
C1004 C 0.71823 0.89677 0.52984 0.0
C1005 C 0.71954 0.89868 0.55127 0.0
H1006 H 0.73103 0.90159 0.5005 0.0
H1007 H 0.74475 0.91915 0.70852 0.0
H1008 H 0.83723 0.76024 0.61744 0.0
H1009 H 0.86555 0.76026 0.59831 0.0
H1010 H 0.89142 0.78908 0.64793 0.0
H1011 H 0.86333 0.7884 0.66779 0.0
H1012 H 0.89702 0.80362 0.60609 0.0
H1013 H 0.90156 0.74796 0.64447 0.0
H1014 H 0.8906 0.71844 0.65669 0.0
H1015 H 0.88695 0.69965 0.5941 0.0
H1016 H 0.89765 0.72917 0.58147 0.0
H1017 H 0.98557 0.79541 0.56347 0.0
H1018 H 0.959 0.7967 0.58599 0.0
H1019 H 0.93436 0.7537 0.55087 0.0
H1020 H 0.96133 0.75163 0.52942 0.0
H1021 H 0.92881 0.74691 0.58796 0.0
H1022 H 0.92164 0.80113 0.54829 0.0
H1023 H 0.9304 0.83061 0.53378 0.0
H1024 H 0.93642 0.85216 0.59495 0.0
H1025 H 0.9279 0.82274 0.60984 0.0
C1026 C 0.84897 0.76626 0.62458 0.0
C1027 C 0.8479 0.77421 0.64432 0.0
C1028 C 0.86513 0.76641 0.61348 0.0
C1029 C 0.88054 0.77466 0.62172 0.0
C1030 C 0.87961 0.78272 0.64128 0.0
C1031 C 0.8635 0.78237 0.65256 0.0
C1032 C 0.8976 0.7748 0.60979 0.0
C1033 C 0.90419 0.79129 0.60234 0.0
C1034 C 0.90654 0.75863 0.60444 0.0
C1035 C 0.90026 0.74083 0.61203 0.0
C1036 C 0.89828 0.73759 0.6333 0.0
C1037 C 0.89214 0.72084 0.6403 0.0
C1038 C 0.88804 0.70719 0.62618 0.0
C1039 C 0.89012 0.71024 0.60502 0.0
C1040 C 0.89624 0.72697 0.59794 0.0
C1041 C 0.97441 0.78632 0.5606 0.0
C1042 C 0.97548 0.77337 0.54483 0.0
C1043 C 0.95917 0.78712 0.57337 0.0
C1044 C 0.94447 0.77543 0.57008 0.0
C1045 C 0.94549 0.76278 0.55394 0.0
C1046 C 0.96089 0.76163 0.54162 0.0
C1047 C 0.92827 0.77579 0.58375 0.0
C1048 C 0.92179 0.75935 0.59164 0.0
C1049 C 0.9192 0.79199 0.58909 0.0
C1050 C 0.92433 0.80968 0.58017 0.0
C1051 C 0.92497 0.81212 0.55865 0.0
C1052 C 0.92986 0.82882 0.55035 0.0
C1053 C 0.93402 0.84323 0.56343 0.0
C1054 C 0.93323 0.84098 0.58484 0.0
C1055 C 0.92836 0.8243 0.59321 0.0
H1056 H 0.93781 0.85615 0.55698 0.0
H1057 H 0.88329 0.69424 0.63163 0.0
H1058 H 0.25074 0.84721 0.653 0.0
H1059 H 0.25595 0.87261 0.62982 0.0
H1060 H 0.22193 0.90626 0.66758 0.0
H1061 H 0.21751 0.88134 0.69174 0.0
H1062 H 0.21489 0.90332 0.6202 0.0
H1063 H 0.26002 0.91669 0.67248 0.0
H1064 H 0.28595 0.90892 0.69461 0.0
H1065 H 0.31777 0.89702 0.64088 0.0
H1066 H 0.29192 0.90447 0.61843 0.0
H1067 H 0.22854 0.9864 0.56891 0.0
H1068 H 0.22436 0.96266 0.59465 0.0
H1069 H 0.27419 0.93773 0.5752 0.0
H1070 H 0.27885 0.96194 0.55019 0.0
H1071 H 0.27302 0.93604 0.61419 0.0
H1072 H 0.23065 0.9211 0.56154 0.0
H1073 H 0.20564 0.92595 0.53707 0.0
H1074 H 0.16971 0.93703 0.58753 0.0
H1075 H 0.19458 0.93246 0.61231 0.0
C1076 C 0.24468 0.86008 0.65679 0.0
C1077 C 0.23368 0.86209 0.6744 0.0
C1078 C 0.24755 0.87454 0.64334 0.0
C1079 C 0.23927 0.89122 0.647 0.0
C1080 C 0.22834 0.8934 0.66447 0.0
C1081 C 0.22575 0.87906 0.67818 0.0
C1082 C 0.24175 0.90626 0.63227 0.0
C1083 C 0.22748 0.91072 0.61903 0.0
C1084 C 0.25841 0.91531 0.63032 0.0
C1085 C 0.27398 0.91094 0.64379 0.0
C1086 C 0.27249 0.91224 0.66539 0.0
C1087 C 0.28718 0.90794 0.67799 0.0
C1088 C 0.30348 0.90243 0.66916 0.0
C1089 C 0.30513 0.90127 0.6477 0.0
C1090 C 0.29047 0.90554 0.63504 0.0
C1091 C 0.23858 0.97583 0.57013 0.0
C1092 C 0.254 0.976 0.5575 0.0
C1093 C 0.23614 0.96219 0.58478 0.0
C1094 C 0.2488 0.94815 0.5867 0.0
C1095 C 0.26423 0.94838 0.5741 0.0
C1096 C 0.26686 0.96221 0.55975 0.0
C1097 C 0.24608 0.93334 0.60194 0.0
C1098 C 0.26035 0.92881 0.61528 0.0
C1099 C 0.22952 0.92387 0.60361 0.0
C1100 C 0.21452 0.92662 0.58877 0.0
C1101 C 0.21745 0.9247 0.56741 0.0
C1102 C 0.20329 0.92738 0.55349 0.0
C1103 C 0.18611 0.93184 0.56074 0.0
C1104 C 0.18303 0.93359 0.58194 0.0
C1105 C 0.19715 0.93095 0.59593 0.0
H1106 H 0.17516 0.93391 0.54993 0.0
H1107 H 0.31484 0.8991 0.67894 0.0
H1108 H 0.15315 0.25216 0.68353 0.0
H1109 H 0.12828 0.25714 0.65933 0.0
H1110 H 0.15978 0.23324 0.6104 0.0
H1111 H 0.18471 0.22844 0.63445 0.0
H1112 H 0.14275 0.26168 0.59628 0.0
H1113 H 0.126 0.20966 0.63581 0.0
H1114 H 0.11993 0.1922 0.66747 0.0
H1115 H 0.07787 0.22929 0.68414 0.0
H1116 H 0.08386 0.24712 0.65271 0.0
H1117 H 0.06556 0.23436 0.53259 0.0
H1118 H 0.09048 0.23108 0.55739 0.0
H1119 H 0.07147 0.27772 0.59067 0.0
H1120 H 0.04703 0.28153 0.56553 0.0
H1121 H 0.08172 0.23807 0.61243 0.0
H1122 H 0.10057 0.29089 0.57278 0.0
H1123 H 0.10728 0.30737 0.54065 0.0
H1124 H 0.14618 0.26703 0.52382 0.0
H1125 H 0.13924 0.25 0.55556 0.0
C1126 C 0.15477 0.24801 0.6676 0.0
C1127 C 0.17089 0.23988 0.66092 0.0
C1128 C 0.14053 0.25082 0.65379 0.0
C1129 C 0.14203 0.2453 0.6331 0.0
C1130 C 0.15829 0.23761 0.62628 0.0
C1131 C 0.17257 0.23494 0.64003 0.0
C1132 C 0.12662 0.24732 0.61857 0.0
C1133 C 0.12947 0.25636 0.59979 0.0
C1134 C 0.10918 0.24056 0.62315 0.0
C1135 C 0.1055 0.22983 0.64202 0.0
C1136 C 0.11554 0.21417 0.64631 0.0
C1137 C 0.11211 0.2042 0.6642 0.0
C1138 C 0.09856 0.20966 0.67783 0.0
C1139 C 0.08838 0.22509 0.67358 0.0
C1140 C 0.09178 0.23513 0.65572 0.0
C1141 C 0.06669 0.24386 0.54524 0.0
C1142 C 0.05443 0.25822 0.54714 0.0
C1143 C 0.08092 0.24201 0.55931 0.0
C1144 C 0.08281 0.25425 0.5757 0.0
C1145 C 0.07026 0.26824 0.57801 0.0
C1146 C 0.05635 0.27039 0.56365 0.0
C1147 C 0.09795 0.25248 0.59041 0.0
C1148 C 0.09503 0.2434 0.60909 0.0
C1149 C 0.11534 0.25907 0.58571 0.0
C1150 C 0.11912 0.26899 0.56633 0.0
C1151 C 0.11026 0.28533 0.56202 0.0
C1152 C 0.11416 0.29481 0.54391 0.0
C1153 C 0.12708 0.28821 0.53014 0.0
C1154 C 0.13611 0.2721 0.53444 0.0
C1155 C 0.13216 0.26249 0.55245 0.0
H1156 H 0.13016 0.29566 0.51621 0.0
H1157 H 0.09591 0.20192 0.69167 0.0
H1158 H 0.76527 0.18327 0.62832 0.0
H1159 H 0.76502 0.15408 0.61111 0.0
H1160 H 0.80235 0.13313 0.65606 0.0
H1161 H 0.80185 0.16198 0.67442 0.0
H1162 H 0.8102 0.12902 0.60844 0.0
H1163 H 0.76738 0.11664 0.66287 0.0
H1164 H 0.74071 0.12333 0.6843 0.0
H1165 H 0.7072 0.12339 0.63021 0.0
H1166 H 0.73375 0.11698 0.60841 0.0
H1167 H 0.80458 0.0409 0.56394 0.0
H1168 H 0.8072 0.06599 0.58843 0.0
H1169 H 0.75513 0.08583 0.56902 0.0
H1170 H 0.75212 0.06043 0.54542 0.0
H1171 H 0.75669 0.08886 0.60789 0.0
H1172 H 0.79755 0.10455 0.55294 0.0
H1173 H 0.82327 0.10025 0.52927 0.0
H1174 H 0.85933 0.09647 0.58098 0.0
H1175 H 0.83378 0.10054 0.60497 0.0
C1176 C 0.77311 0.17243 0.635 0.0
C1177 C 0.7835 0.17515 0.65297 0.0
C1178 C 0.77309 0.15577 0.62493 0.0
C1179 C 0.78368 0.14153 0.63232 0.0
C1180 C 0.79415 0.14405 0.6501 0.0
C1181 C 0.7939 0.16062 0.66048 0.0
C1182 C 0.78384 0.12413 0.62111 0.0
C1183 C 0.79869 0.11998 0.60858 0.0
C1184 C 0.76858 0.11275 0.62092 0.0
C1185 C 0.75259 0.11651 0.63399 0.0
C1186 C 0.75436 0.11826 0.65552 0.0
C1187 C 0.73926 0.12196 0.66774 0.0
C1188 C 0.72228 0.12383 0.65862 0.0
C1189 C 0.72037 0.12196 0.63726 0.0
C1190 C 0.73543 0.11827 0.62496 0.0
C1191 C 0.79371 0.05063 0.56496 0.0
C1192 C 0.77814 0.04869 0.55277 0.0
C1193 C 0.79525 0.06502 0.57889 0.0
C1194 C 0.78146 0.07801 0.58046 0.0
C1195 C 0.76593 0.076 0.56825 0.0
C1196 C 0.76424 0.06147 0.55468 0.0
C1197 C 0.78299 0.09372 0.59473 0.0
C1198 C 0.76839 0.09764 0.60786 0.0
C1199 C 0.79837 0.1051 0.59513 0.0
C1200 C 0.81373 0.10263 0.58074 0.0
C1201 C 0.81095 0.10266 0.55926 0.0
C1202 C 0.82549 0.10029 0.54579 0.0
C1203 C 0.84291 0.09803 0.55361 0.0
C1204 C 0.84583 0.09819 0.57494 0.0
C1205 C 0.83132 0.10053 0.58848 0.0
H1206 H 0.85416 0.0962 0.54316 0.0
H1207 H 0.7106 0.12669 0.6681 0.0
H1208 H 0.85613 0.22769 0.35786 0.0
H1209 H 0.88549 0.22872 0.37518 0.0
H1210 H 0.87085 0.27917 0.40387 0.0
H1211 H 0.84171 0.27845 0.38623 0.0
H1212 H 0.90563 0.27943 0.39052 0.0
H1213 H 0.86689 0.23956 0.42988 0.0
H1214 H 0.84706 0.21315 0.43448 0.0
H1215 H 0.8901 0.17797 0.41578 0.0
H1216 H 0.91012 0.20421 0.4108 0.0
H1217 H 0.96365 0.28632 0.47549 0.0
H1218 H 0.93765 0.28349 0.45272 0.0
H1219 H 0.95583 0.23068 0.43383 0.0
H1220 H 0.98161 0.23316 0.45741 0.0
H1221 H 0.92109 0.23 0.43904 0.0
H1222 H 0.96077 0.26927 0.4023 0.0
H1223 H 0.98082 0.29545 0.39742 0.0
H1224 H 0.93676 0.3314 0.4101 0.0
H1225 H 0.91649 0.30543 0.41533 0.0
C1226 C 0.85931 0.23916 0.36755 0.0
C1227 C 0.84655 0.25294 0.37078 0.0
C1228 C 0.87602 0.23965 0.37759 0.0
C1229 C 0.88026 0.25389 0.39105 0.0
C1230 C 0.86784 0.26801 0.39363 0.0
C1231 C 0.85115 0.26752 0.38365 0.0
C1232 C 0.8973 0.25389 0.40309 0.0
C1233 C 0.90897 0.26869 0.40124 0.0
C1234 C 0.90192 0.23962 0.41662 0.0
C1235 C 0.88993 0.22385 0.41975 0.0
C1236 C 0.87208 0.2262 0.4266 0.0
C1237 C 0.86082 0.21126 0.4293 0.0
C1238 C 0.8673 0.1939 0.42537 0.0
C1239 C 0.88509 0.19143 0.41879 0.0
C1240 C 0.8964 0.20633 0.41603 0.0
C1241 C 0.96218 0.27412 0.46643 0.0
C1242 C 0.97478 0.26003 0.46808 0.0
C1243 C 0.94732 0.27255 0.45332 0.0
C1244 C 0.94498 0.25706 0.44111 0.0
C1245 C 0.9574 0.24282 0.44297 0.0
C1246 C 0.97214 0.24425 0.45641 0.0
C1247 C 0.92936 0.25571 0.42675 0.0
C1248 C 0.91793 0.24066 0.42815 0.0
C1249 C 0.92502 0.26971 0.41269 0.0
C1250 C 0.93714 0.28538 0.40933 0.0
C1251 C 0.95538 0.28275 0.40416 0.0
C1252 C 0.96678 0.29756 0.40132 0.0
C1253 C 0.96008 0.31508 0.40348 0.0
C1254 C 0.94194 0.31782 0.40843 0.0
C1255 C 0.93048 0.30307 0.41131 0.0
H1256 H 0.96894 0.32652 0.40129 0.0
H1257 H 0.85856 0.18235 0.42746 0.0
H1258 H 0.81189 0.8506 0.36275 0.0
H1259 H 0.81387 0.8792 0.38158 0.0
H1260 H 0.756 0.87988 0.38839 0.0
H1261 H 0.7539 0.85141 0.36935 0.0
H1262 H 0.77014 0.91372 0.37936 0.0
H1263 H 0.78151 0.86431 0.42665 0.0
H1264 H 0.79756 0.8371 0.43858 0.0
H1265 H 0.84731 0.86672 0.44049 0.0
H1266 H 0.83157 0.89405 0.42828 0.0
H1267 H 0.75144 0.96652 0.4662 0.0
H1268 H 0.75516 0.9425 0.44098 0.0
H1269 H 0.813 0.9472 0.44583 0.0
H1270 H 0.80938 0.97125 0.47157 0.0
H1271 H 0.8028 0.91252 0.44626 0.0
H1272 H 0.79107 0.96296 0.40315 0.0
H1273 H 0.77531 0.99032 0.3912 0.0
H1274 H 0.72713 0.9595 0.3808 0.0
H1275 H 0.74251 0.93199 0.39298 0.0
C1276 C 0.79956 0.85704 0.36788 0.0
C1277 C 0.78273 0.84872 0.36466 0.0
C1278 C 0.80073 0.8733 0.37877 0.0
C1279 C 0.7851 0.88154 0.38658 0.0
C1280 C 0.76823 0.87371 0.38253 0.0
C1281 C 0.76706 0.85741 0.37177 0.0
C1282 C 0.78629 0.89772 0.40001 0.0
C1283 C 0.77719 0.91347 0.39404 0.0
C1284 C 0.79598 0.89754 0.41885 0.0
C1285 C 0.80541 0.88115 0.42632 0.0
C1286 C 0.7959 0.86497 0.42945 0.0
C1287 C 0.80493 0.84954 0.43629 0.0
C1288 C 0.82346 0.85016 0.44023 0.0
C1289 C 0.83297 0.86624 0.43739 0.0
C1290 C 0.824 0.88171 0.43052 0.0
C1291 C 0.76499 0.96256 0.4619 0.0
C1292 C 0.78013 0.9709 0.47087 0.0
C1293 C 0.76709 0.94885 0.44735 0.0
C1294 C 0.78435 0.94325 0.44121 0.0
C1295 C 0.79954 0.95139 0.45025 0.0
C1296 C 0.79745 0.96514 0.46492 0.0
C1297 C 0.78631 0.92848 0.42584 0.0
C1298 C 0.79599 0.91296 0.43143 0.0
C1299 C 0.77723 0.92892 0.40659 0.0
C1300 C 0.76793 0.94542 0.39912 0.0
C1301 C 0.77707 0.96203 0.39845 0.0
C1302 C 0.76821 0.97757 0.39162 0.0
C1303 C 0.75022 0.97665 0.38528 0.0
C1304 C 0.74107 0.96019 0.38572 0.0
C1305 C 0.74986 0.94461 0.39256 0.0
H1306 H 0.74338 0.9887 0.38 0.0
H1307 H 0.83043 0.8382 0.44552 0.0
H1308 H 0.15368 0.77848 0.33081 0.0
H1309 H 0.12915 0.77491 0.35578 0.0
H1310 H 0.1641 0.79385 0.40445 0.0
H1311 H 0.18872 0.79717 0.37962 0.0
H1312 H 0.14463 0.76698 0.41815 0.0
H1313 H 0.13217 0.82157 0.38138 0.0
H1314 H 0.12725 0.84065 0.35072 0.0
H1315 H 0.08147 0.80847 0.33365 0.0
H1316 H 0.08627 0.78903 0.36407 0.0
H1317 H 0.06884 0.79854 0.48344 0.0
H1318 H 0.09401 0.80124 0.45882 0.0
H1319 H 0.07362 0.75563 0.42479 0.0
H1320 H 0.04898 0.75237 0.44971 0.0
H1321 H 0.08571 0.79651 0.40463 0.0
H1322 H 0.10123 0.74027 0.44107 0.0
H1323 H 0.10708 0.72233 0.47239 0.0
H1324 H 0.14836 0.75967 0.4907 0.0
H1325 H 0.14226 0.7782 0.45982 0.0
C1326 C 0.15613 0.7818 0.34686 0.0
C1327 C 0.17311 0.78814 0.35325 0.0
C1328 C 0.1421 0.77982 0.3611 0.0
C1329 C 0.14466 0.78444 0.38195 0.0
C1330 C 0.16177 0.79023 0.38846 0.0
C1331 C 0.17586 0.79205 0.37426 0.0
C1332 C 0.12948 0.78348 0.39692 0.0
C1333 C 0.13183 0.77359 0.41522 0.0
C1334 C 0.11268 0.79202 0.39315 0.0
C1335 C 0.10969 0.80374 0.3749 0.0
C1336 C 0.12113 0.81848 0.37101 0.0
C1337 C 0.11836 0.82938 0.35368 0.0
C1338 C 0.10408 0.82575 0.34022 0.0
C1339 C 0.09253 0.81125 0.34408 0.0
C1340 C 0.09527 0.8003 0.36137 0.0
C1341 C 0.06974 0.78914 0.47067 0.0
C1342 C 0.05705 0.7752 0.4685 0.0
C1343 C 0.08411 0.79065 0.45671 0.0
C1344 C 0.08571 0.77849 0.4402 0.0
C1345 C 0.07269 0.76498 0.4376 0.0
C1346 C 0.05865 0.76316 0.45182 0.0
C1347 C 0.10092 0.77987 0.42553 0.0
C1348 C 0.09856 0.78993 0.40742 0.0
C1349 C 0.11774 0.77164 0.42952 0.0
C1350 C 0.12099 0.76083 0.44839 0.0
C1351 C 0.11125 0.74489 0.45202 0.0
C1352 C 0.11466 0.73457 0.46965 0.0
C1353 C 0.128 0.73991 0.4836 0.0
C1354 C 0.13796 0.75559 0.47994 0.0
C1355 C 0.13447 0.76605 0.46243 0.0
H1356 H 0.13069 0.73184 0.49717 0.0
H1357 H 0.10195 0.8342 0.32681 0.0
H1358 H 0.25935 0.1551 0.34245 0.0
H1359 H 0.26341 0.13069 0.36751 0.0
H1360 H 0.22556 0.15663 0.40861 0.0
H1361 H 0.22214 0.18139 0.38397 0.0
H1362 H 0.25075 0.14336 0.43061 0.0
H1363 H 0.21419 0.11953 0.37633 0.0
H1364 H 0.20584 0.11189 0.34052 0.0
H1365 H 0.2526 0.07799 0.33531 0.0
H1366 H 0.26137 0.08563 0.37102 0.0
H1367 H 0.22945 0.06311 0.48846 0.0
H1368 H 0.22647 0.0883 0.46409 0.0
H1369 H 0.27572 0.072 0.43397 0.0
H1370 H 0.27903 0.04709 0.4585 0.0
H1371 H 0.24441 0.08 0.40695 0.0
H1372 H 0.27976 0.10476 0.46317 0.0
H1373 H 0.28555 0.11197 0.49975 0.0
H1374 H 0.23717 0.14378 0.50195 0.0
H1375 H 0.23093 0.1365 0.46544 0.0
C1376 C 0.25203 0.15561 0.35692 0.0
C1377 C 0.24043 0.17009 0.36129 0.0
C1378 C 0.25425 0.14161 0.37119 0.0
C1379 C 0.24449 0.14156 0.38982 0.0
C1380 C 0.23324 0.1563 0.39438 0.0
C1381 C 0.2313 0.17045 0.3803 0.0
C1382 C 0.24574 0.12608 0.40441 0.0
C1383 C 0.24913 0.12954 0.42541 0.0
C1384 C 0.24377 0.10795 0.39774 0.0
C1385 C 0.23853 0.1033 0.37628 0.0
C1386 C 0.22276 0.11055 0.3675 0.0
C1387 C 0.21795 0.10621 0.34722 0.0
C1388 C 0.22871 0.0945 0.33563 0.0
C1389 C 0.24429 0.08708 0.3443 0.0
C1390 C 0.24919 0.0914 0.36456 0.0
C1391 C 0.23958 0.06485 0.47658 0.0
C1392 C 0.25449 0.05317 0.47541 0.0
C1393 C 0.2379 0.07926 0.46275 0.0
C1394 C 0.25092 0.08199 0.44733 0.0
C1395 C 0.26555 0.07009 0.44579 0.0
C1396 C 0.26744 0.05592 0.45985 0.0
C1397 C 0.24944 0.0974 0.4329 0.0
C1398 C 0.24599 0.09387 0.41201 0.0
C1399 C 0.25097 0.11544 0.43973 0.0
C1400 C 0.25477 0.11991 0.46164 0.0
C1401 C 0.27026 0.11314 0.47151 0.0
C1402 C 0.27364 0.11727 0.49222 0.0
C1403 C 0.26171 0.12829 0.50319 0.0
C1404 C 0.24639 0.13523 0.49344 0.0
C1405 C 0.24293 0.13111 0.47274 0.0
H1406 H 0.26436 0.13148 0.51922 0.0
H1407 H 0.22496 0.09115 0.31993 0.0
H1408 H 0.65665 0.76203 0.83615 0.0
H1409 H 0.63013 0.77002 0.85637 0.0
H1410 H 0.66427 0.79358 0.90313 0.0
H1411 H 0.69089 0.78438 0.88382 0.0
H1412 H 0.64158 0.77338 0.92086 0.0
H1413 H 0.63567 0.81919 0.8697 0.0
H1414 H 0.63399 0.83208 0.83466 0.0
H1415 H 0.58659 0.80067 0.82209 0.0
H1416 H 0.58812 0.7874 0.85697 0.0
H1417 H 0.56679 0.81197 0.97619 0.0
H1418 H 0.59217 0.81242 0.95173 0.0
H1419 H 0.56832 0.76829 0.91805 0.0
H1420 H 0.54338 0.76725 0.94292 0.0
H1421 H 0.58558 0.80159 0.89407 0.0
H1422 H 0.59444 0.75417 0.94543 0.0
H1423 H 0.59675 0.74261 0.98101 0.0
H1424 H 0.64036 0.77922 0.99315 0.0
H1425 H 0.63777 0.79152 0.95796 0.0
C1426 C 0.65858 0.76887 0.85076 0.0
C1427 C 0.67603 0.77236 0.85837 0.0
C1428 C 0.64332 0.77372 0.86218 0.0
C1429 C 0.64512 0.78258 0.88125 0.0
C1430 C 0.66248 0.78676 0.88846 0.0
C1431 C 0.67775 0.78165 0.87723 0.0
C1432 C 0.62907 0.78604 0.8945 0.0
C1433 C 0.62951 0.77989 0.91501 0.0
C1434 C 0.61309 0.79423 0.8869 0.0
C1435 C 0.61211 0.80219 0.86591 0.0
C1436 C 0.62497 0.81493 0.85942 0.0
C1437 C 0.62403 0.82232 0.83959 0.0
C1438 C 0.61022 0.81717 0.82614 0.0
C1439 C 0.59729 0.80464 0.83252 0.0
C1440 C 0.59818 0.79719 0.85233 0.0
C1441 C 0.56685 0.8026 0.96335 0.0
C1442 C 0.55325 0.78952 0.96142 0.0
C1443 C 0.5813 0.80287 0.94944 0.0
C1444 C 0.58204 0.79039 0.93316 0.0
C1445 C 0.5679 0.77806 0.9305 0.0
C1446 C 0.55375 0.77743 0.94473 0.0
C1447 C 0.59835 0.78896 0.92014 0.0
C1448 C 0.59785 0.79536 0.89978 0.0
C1449 C 0.61438 0.78122 0.92788 0.0
C1450 C 0.61565 0.77404 0.9492 0.0
C1451 C 0.60424 0.76004 0.95584 0.0
C1452 C 0.60562 0.75333 0.97595 0.0
C1453 C 0.61857 0.76029 0.98944 0.0
C1454 C 0.63018 0.77397 0.98283 0.0
C1455 C 0.62872 0.78086 0.96282 0.0
H1456 H 0.61968 0.75498 0.00495 0.0
H1457 H 0.60951 0.82291 0.8108 0.0
H1458 H 0.2558 0.68219 0.87914 0.0
H1459 H 0.24706 0.65848 0.90322 0.0
H1460 H 0.25894 0.61818 0.85711 0.0
H1461 H 0.26671 0.64187 0.8325 0.0
H1462 H 0.23115 0.60746 0.87993 0.0
H1463 H 0.29069 0.63146 0.89277 0.0
H1464 H 0.31283 0.65544 0.90019 0.0
H1465 H 0.28525 0.66796 0.95673 0.0
H1466 H 0.2628 0.6442 0.94948 0.0
H1467 H 0.2794 0.54935 0.96266 0.0
H1468 H 0.27778 0.5739 0.9379 0.0
H1469 H 0.22018 0.57722 0.94666 0.0
H1470 H 0.22164 0.55222 0.97149 0.0
H1471 H 0.2681 0.6076 0.94381 0.0
H1472 H 0.20181 0.5932 0.90029 0.0
H1473 H 0.18251 0.56737 0.89084 0.0
H1474 H 0.22848 0.53214 0.89262 0.0
H1475 H 0.24807 0.5578 0.90181 0.0
C1476 C 0.25605 0.66834 0.87385 0.0
C1477 C 0.26224 0.66396 0.85392 0.0
C1478 C 0.25119 0.65476 0.88775 0.0
C1479 C 0.25272 0.63653 0.88213 0.0
C1480 C 0.25776 0.63215 0.86185 0.0
C1481 C 0.26242 0.64572 0.84787 0.0
C1482 C 0.25086 0.62204 0.89782 0.0
C1483 C 0.2391 0.60756 0.894 0.0
C1484 C 0.26143 0.622 0.91604 0.0
C1485 C 0.27496 0.63621 0.92047 0.0
C1486 C 0.28929 0.63941 0.90671 0.0
C1487 C 0.30189 0.65295 0.91089 0.0
C1488 C 0.30041 0.66326 0.92889 0.0
C1489 C 0.28635 0.66 0.94278 0.0
C1490 C 0.27368 0.6465 0.93864 0.0
C1491 C 0.26632 0.55518 0.95932 0.0
C1492 C 0.25064 0.54883 0.96913 0.0
C1493 C 0.26544 0.56929 0.94517 0.0
C1494 C 0.24888 0.57744 0.94044 0.0
C1495 C 0.23309 0.57103 0.94996 0.0
C1496 C 0.23395 0.55678 0.96416 0.0
C1497 C 0.24853 0.5929 0.92587 0.0
C1498 C 0.25988 0.60762 0.92994 0.0
C1499 C 0.23795 0.59288 0.90768 0.0
C1500 C 0.22634 0.57738 0.902 0.0
C1501 C 0.20779 0.57995 0.89863 0.0
C1502 C 0.19681 0.56534 0.89331 0.0
C1503 C 0.20425 0.54811 0.89121 0.0
C1504 C 0.22272 0.54547 0.89434 0.0
C1505 C 0.23376 0.56004 0.89964 0.0
H1506 H 0.19572 0.53682 0.8871 0.0
H1507 H 0.31018 0.67373 0.9321 0.0
H1508 H 0.33965 0.2329 0.89013 0.0
H1509 H 0.36783 0.2283 0.90907 0.0
H1510 H 0.3951 0.26495 0.86792 0.0
H1511 H 0.36696 0.27008 0.84927 0.0
H1512 H 0.41649 0.23474 0.87918 0.0
H1513 H 0.37984 0.28136 0.91042 0.0
H1514 H 0.35191 0.29362 0.92565 0.0
H1515 H 0.35374 0.25339 0.97329 0.0
H1516 H 0.38155 0.24071 0.95813 0.0
H1517 H 0.47192 0.2784 0.96698 0.0
H1518 H 0.4458 0.27598 0.94437 0.0
H1519 H 0.45365 0.21847 0.94004 0.0
H1520 H 0.48 0.22073 0.96289 0.0
H1521 H 0.41467 0.25714 0.9514 0.0
H1522 H 0.43904 0.20679 0.88959 0.0
H1523 H 0.4675 0.19664 0.87356 0.0
H1524 H 0.49157 0.24819 0.88601 0.0
H1525 H 0.46318 0.25872 0.90182 0.0
C1526 C 0.35165 0.23993 0.88502 0.0
C1527 C 0.35094 0.25204 0.8683 0.0
C1528 C 0.36777 0.23716 0.89577 0.0
C1529 C 0.38349 0.24638 0.88996 0.0
C1530 C 0.38313 0.25762 0.87256 0.0
C1531 C 0.367 0.2605 0.86189 0.0
C1532 C 0.39976 0.24585 0.90323 0.0
C1533 C 0.41609 0.23946 0.89503 0.0
C1534 C 0.39927 0.25229 0.92379 0.0
C1535 C 0.38264 0.25997 0.93301 0.0
C1536 C 0.3742 0.27504 0.92404 0.0
C1537 C 0.3584 0.28207 0.93267 0.0
C1538 C 0.35102 0.27425 0.95039 0.0
C1539 C 0.35945 0.25941 0.95954 0.0
C1540 C 0.37523 0.25229 0.95094 0.0
C1541 C 0.46822 0.26521 0.96117 0.0
C1542 C 0.47806 0.24974 0.96679 0.0
C1543 C 0.45322 0.26386 0.94829 0.0
C1544 C 0.44779 0.24707 0.94055 0.0
C1545 C 0.4577 0.23158 0.94579 0.0
C1546 C 0.47271 0.23289 0.95886 0.0
C1547 C 0.43145 0.24595 0.92743 0.0
C1548 C 0.41506 0.25208 0.93567 0.0
C1549 C 0.432 0.23952 0.90685 0.0
C1550 C 0.44906 0.23345 0.89712 0.0
C1551 C 0.45039 0.21597 0.88885 0.0
C1552 C 0.46651 0.21015 0.8798 0.0
C1553 C 0.48135 0.22174 0.87885 0.0
C1554 C 0.48009 0.2392 0.88685 0.0
C1555 C 0.464 0.24509 0.89588 0.0
H1556 H 0.49382 0.2172 0.87186 0.0
H1557 H 0.33879 0.27972 0.95705 0.0
H1558 H 0.80055 0.35139 0.86005 0.0
H1559 H 0.80804 0.37827 0.88042 0.0
H1560 H 0.75152 0.39161 0.88463 0.0
H1561 H 0.74394 0.36484 0.86467 0.0
H1562 H 0.7717 0.42108 0.87588 0.0
H1563 H 0.7736 0.37084 0.92417 0.0
H1564 H 0.78483 0.34158 0.93695 0.0
H1565 H 0.83863 0.36289 0.93994 0.0
H1566 H 0.82773 0.39222 0.92692 0.0
H1567 H 0.75484 0.47315 0.9629 0.0
H1568 H 0.75762 0.44953 0.93707 0.0
H1569 H 0.81539 0.44924 0.94501 0.0
H1570 H 0.81272 0.473 0.97131 0.0
H1571 H 0.80127 0.41507 0.94428 0.0
H1572 H 0.79802 0.4671 0.90177 0.0
H1573 H 0.78637 0.49641 0.88969 0.0
H1574 H 0.73525 0.47207 0.87575 0.0
H1575 H 0.74649 0.44267 0.88803 0.0
C1576 C 0.78973 0.36004 0.86536 0.0
C1577 C 0.77164 0.35598 0.86064 0.0
C1578 C 0.79404 0.37541 0.87694 0.0
C1579 C 0.78033 0.38692 0.88409 0.0
C1580 C 0.76233 0.38301 0.87913 0.0
C1581 C 0.75803 0.36771 0.86762 0.0
C1582 C 0.78439 0.40281 0.89724 0.0
C1583 C 0.77815 0.41978 0.89085 0.0
C1584 C 0.79337 0.40122 0.91645 0.0
C1585 C 0.79989 0.38363 0.92433 0.0
C1586 C 0.78784 0.36923 0.9274 0.0
C1587 C 0.79415 0.35265 0.93471 0.0
C1588 C 0.81244 0.35036 0.93918 0.0
C1589 C 0.82447 0.36467 0.93642 0.0
C1590 C 0.81824 0.38127 0.92908 0.0
C1591 C 0.76819 0.46818 0.95917 0.0
C1592 C 0.78358 0.47503 0.96917 0.0
C1593 C 0.76976 0.45471 0.94427 0.0
C1594 C 0.78673 0.44781 0.93887 0.0
C1595 C 0.80217 0.45447 0.94887 0.0
C1596 C 0.80062 0.46806 0.96384 0.0
C1597 C 0.78796 0.43322 0.92323 0.0
C1598 C 0.79521 0.4165 0.92911 0.0
C1599 C 0.7799 0.43503 0.90352 0.0
C1600 C 0.7731 0.45267 0.89592 0.0
C1601 C 0.78426 0.46801 0.89625 0.0
C1602 C 0.77773 0.48465 0.88935 0.0
C1603 C 0.76008 0.4861 0.88198 0.0
C1604 C 0.74893 0.47092 0.88146 0.0
C1605 C 0.75538 0.45426 0.88835 0.0
H1606 H 0.75504 0.499 0.87666 0.0
H1607 H 0.8173 0.33751 0.94485 0.0
H1608 H 0.64007 0.28034 0.18027 0.0
H1609 H 0.6187 0.26897 0.15494 0.0
H1610 H 0.65925 0.233 0.13076 0.0
H1611 H 0.68074 0.2439 0.15666 0.0
H1612 H 0.64294 0.25306 0.10053 0.0
H1613 H 0.62435 0.21505 0.15535 0.0
H1614 H 0.61541 0.20715 0.19089 0.0
H1615 H 0.56884 0.24133 0.1859 0.0
H1616 H 0.57763 0.24965 0.15044 0.0
H1617 H 0.55171 0.21848 0.05287 0.0
H1618 H 0.57624 0.215 0.07813 0.0
H1619 H 0.58842 0.27168 0.07284 0.0
H1620 H 0.56418 0.27528 0.04787 0.0
H1621 H 0.58085 0.23214 0.11632 0.0
H1622 H 0.6333 0.2774 0.07429 0.0
H1623 H 0.64224 0.28477 0.0386 0.0
H1624 H 0.62189 0.23372 0.01768 0.0
H1625 H 0.61307 0.22592 0.05328 0.0
C1626 C 0.6444 0.26965 0.17002 0.0
C1627 C 0.66219 0.26301 0.17065 0.0
C1628 C 0.63213 0.2632 0.15544 0.0
C1629 C 0.63733 0.25003 0.14108 0.0
C1630 C 0.65496 0.24316 0.14175 0.0
C1631 C 0.66725 0.24949 0.15649 0.0
C1632 C 0.62464 0.24463 0.12448 0.0
C1633 C 0.62944 0.24826 0.10395 0.0
C1634 C 0.60714 0.23805 0.12892 0.0
C1635 C 0.60171 0.23303 0.15024 0.0
C1636 C 0.61226 0.22098 0.16187 0.0
C1637 C 0.60721 0.21641 0.182 0.0
C1638 C 0.59157 0.22375 0.19065 0.0
C1639 C 0.58094 0.23565 0.17917 0.0
C1640 C 0.58594 0.24027 0.15904 0.0
C1641 C 0.55968 0.23016 0.05706 0.0
C1642 C 0.55599 0.24715 0.04835 0.0
C1643 C 0.57364 0.22815 0.07149 0.0
C1644 C 0.58426 0.24304 0.07715 0.0
C1645 C 0.58056 0.25996 0.06847 0.0
C1646 C 0.56661 0.262 0.05425 0.0
C1647 C 0.59894 0.24135 0.09256 0.0
C1648 C 0.59449 0.2365 0.11286 0.0
C1649 C 0.61682 0.24668 0.0879 0.0
C1650 C 0.62244 0.25112 0.06647 0.0
C1651 C 0.63085 0.26769 0.06211 0.0
C1652 C 0.63587 0.27196 0.04188 0.0
C1653 C 0.6326 0.25974 0.02587 0.0
C1654 C 0.62436 0.2432 0.03008 0.0
C1655 C 0.61933 0.23885 0.05028 0.0
H1656 H 0.63648 0.26308 0.01022 0.0
H1657 H 0.58769 0.2202 0.20624 0.0
H1658 H 0.77338 0.67665 0.1552 0.0
H1659 H 0.786 0.654 0.13212 0.0
H1660 H 0.75768 0.61226 0.16536 0.0
H1661 H 0.74659 0.6345 0.18977 0.0
H1662 H 0.78677 0.5987 0.15353 0.0
H1663 H 0.74146 0.63389 0.11852 0.0
H1664 H 0.72724 0.66159 0.10507 0.0
H1665 H 0.77407 0.6722 0.06798 0.0
H1666 H 0.78864 0.64465 0.08141 0.0
H1667 H 0.7591 0.54008 0.07192 0.0
H1668 H 0.76084 0.5635 0.09845 0.0
H1669 H 0.8099 0.58367 0.0712 0.0
H1670 H 0.80855 0.55977 0.04479 0.0
H1671 H 0.7765 0.60916 0.07878 0.0
H1672 H 0.81838 0.56852 0.11179 0.0
H1673 H 0.82813 0.53865 0.12428 0.0
H1674 H 0.78206 0.53609 0.16436 0.0
H1675 H 0.77192 0.56588 0.15193 0.0
C1676 C 0.7702 0.66262 0.15804 0.0
C1677 C 0.7586 0.65757 0.17427 0.0
C1678 C 0.77724 0.64966 0.14454 0.0
C1679 C 0.77238 0.63141 0.14652 0.0
C1680 C 0.76155 0.62623 0.16328 0.0
C1681 C 0.75492 0.63909 0.1771 0.0
C1682 C 0.77763 0.6178 0.13066 0.0
C1683 C 0.7845 0.60106 0.1372 0.0
C1684 C 0.77494 0.6208 0.10923 0.0
C1685 C 0.76622 0.63736 0.10117 0.0
C1686 C 0.74876 0.64221 0.10761 0.0
C1687 C 0.74064 0.65786 0.09998 0.0
C1688 C 0.74977 0.66868 0.08574 0.0
C1689 C 0.76703 0.66383 0.07905 0.0
C1690 C 0.77523 0.6482 0.08666 0.0
C1691 C 0.77038 0.54937 0.07171 0.0
C1692 C 0.78368 0.54818 0.0563 0.0
C1693 C 0.77138 0.56267 0.08689 0.0
C1694 C 0.7855 0.57522 0.08674 0.0
C1695 C 0.79895 0.574 0.07155 0.0
C1696 C 0.7982 0.56036 0.05657 0.0
C1697 C 0.78527 0.59021 0.1018 0.0
C1698 C 0.77921 0.6071 0.09508 0.0
C1699 C 0.78814 0.58716 0.12306 0.0
C1700 C 0.79435 0.56939 0.13084 0.0
C1701 C 0.81027 0.56154 0.12317 0.0
C1702 C 0.81588 0.54463 0.13027 0.0
C1703 C 0.80571 0.53547 0.14509 0.0
C1704 C 0.78993 0.54322 0.15289 0.0
C1705 C 0.78427 0.56013 0.14586 0.0
H1706 H 0.81008 0.52239 0.15057 0.0
H1707 H 0.74345 0.68079 0.07984 0.0
H1708 H 0.34353 0.80168 0.13205 0.0
H1709 H 0.37168 0.80921 0.1143 0.0
H1710 H 0.39651 0.76124 0.13913 0.0
H1711 H 0.3685 0.75386 0.15721 0.0
H1712 H 0.4202 0.78786 0.13864 0.0
H1713 H 0.37823 0.76238 0.09004 0.0
H1714 H 0.34943 0.76005 0.07117 0.0
H1715 H 0.35735 0.81306 0.04606 0.0
H1716 H 0.3861 0.8158 0.06504 0.0
H1717 H 0.48396 0.76397 0.06172 0.0
H1718 H 0.4587 0.76639 0.08576 0.0
H1719 H 0.44601 0.81912 0.06172 0.0
H1720 H 0.47153 0.81689 0.03765 0.0
H1721 H 0.41659 0.79463 0.06252 0.0
H1722 H 0.46165 0.81729 0.10838 0.0
H1723 H 0.49093 0.81745 0.12643 0.0
H1724 H 0.47775 0.76724 0.15578 0.0
H1725 H 0.44849 0.76663 0.13767 0.0
C1726 C 0.35506 0.79284 0.13385 0.0
C1727 C 0.35379 0.77711 0.14587 0.0
C1728 C 0.37113 0.79714 0.12369 0.0
C1729 C 0.38612 0.78562 0.12506 0.0
C1730 C 0.38513 0.77033 0.13782 0.0
C1731 C 0.36912 0.76613 0.14817 0.0
C1732 C 0.40247 0.78883 0.1123 0.0
C1733 C 0.41942 0.78926 0.12199 0.0
C1734 C 0.40145 0.79101 0.09059 0.0
C1735 C 0.38419 0.78938 0.07915 0.0
C1736 C 0.37376 0.77359 0.08062 0.0
C1737 C 0.35746 0.77219 0.06989 0.0
C1738 C 0.35154 0.78642 0.05747 0.0
C1739 C 0.36193 0.80206 0.05572 0.0
C1740 C 0.37823 0.80355 0.06646 0.0
C1741 C 0.47594 0.77619 0.0617 0.0
C1742 C 0.47969 0.79023 0.04776 0.0
C1743 C 0.46157 0.77758 0.07552 0.0
C1744 C 0.45056 0.79296 0.07557 0.0
C1745 C 0.45442 0.80717 0.06195 0.0
C1746 C 0.46901 0.8059 0.04828 0.0
C1747 C 0.43428 0.79343 0.08883 0.0
C1748 C 0.41734 0.79359 0.07921 0.0
C1749 C 0.43535 0.79152 0.11053 0.0
C1750 C 0.45291 0.79186 0.12154 0.0
C1751 C 0.46505 0.80621 0.11855 0.0
C1752 C 0.48163 0.80639 0.12882 0.0
C1753 C 0.48621 0.79235 0.14221 0.0
C1754 C 0.47419 0.7781 0.1454 0.0
C1755 C 0.45759 0.77785 0.13515 0.0
H1756 H 0.49906 0.79252 0.15015 0.0
H1757 H 0.33892 0.7853 0.04917 0.0
H1758 H 0.23177 0.34101 0.14572 0.0
H1759 H 0.22445 0.36876 0.12693 0.0
H1760 H 0.27577 0.39143 0.14471 0.0
H1761 H 0.28294 0.36397 0.16378 0.0
H1762 H 0.251 0.41654 0.14645 0.0
H1763 H 0.26839 0.37112 0.09669 0.0
H1764 H 0.26624 0.34171 0.07903 0.0
H1765 H 0.21194 0.35382 0.06058 0.0
H1766 H 0.21369 0.38322 0.07838 0.0
H1767 H 0.27523 0.47587 0.06627 0.0
H1768 H 0.27192 0.45112 0.09075 0.0
H1769 H 0.21687 0.44337 0.07113 0.0
H1770 H 0.22004 0.46837 0.0465 0.0
H1771 H 0.23768 0.41154 0.07157 0.0
H1772 H 0.22341 0.45996 0.11731 0.0
H1773 H 0.2276 0.48959 0.13392 0.0
H1774 H 0.2783 0.47208 0.15893 0.0
H1775 H 0.27455 0.44242 0.14222 0.0
C1776 C 0.24141 0.35199 0.14571 0.0
C1777 C 0.25795 0.35031 0.15617 0.0
C1778 C 0.23723 0.36782 0.13496 0.0
C1779 C 0.24967 0.3821 0.13415 0.0
C1780 C 0.26593 0.38064 0.14515 0.0
C1781 C 0.27001 0.36493 0.15607 0.0
C1782 C 0.24631 0.39827 0.12113 0.0
C1783 C 0.24815 0.41543 0.13006 0.0
C1784 C 0.24214 0.39688 0.09983 0.0
C1785 C 0.24109 0.37925 0.08908 0.0
C1786 C 0.25595 0.36744 0.089 0.0
C1787 C 0.25481 0.35079 0.07895 0.0
C1788 C 0.23894 0.34587 0.06875 0.0
C1789 C 0.2242 0.35763 0.06853 0.0
C1790 C 0.22526 0.37428 0.07859 0.0
C1791 C 0.26234 0.46903 0.06725 0.0
C1792 C 0.2479 0.47405 0.05441 0.0
C1793 C 0.26045 0.45495 0.08134 0.0
C1794 C 0.24411 0.44551 0.08285 0.0
C1795 C 0.22957 0.45056 0.07023 0.0
C1796 C 0.23138 0.46486 0.05625 0.0
C1797 C 0.24281 0.42973 0.09682 0.0
C1798 C 0.24015 0.41264 0.08804 0.0
C1799 C 0.24648 0.43119 0.11819 0.0
C1800 C 0.24874 0.44898 0.1284 0.0
C1801 C 0.23552 0.46246 0.12623 0.0
C1802 C 0.2378 0.47926 0.13569 0.0
C1803 C 0.25322 0.48273 0.14745 0.0
C1804 C 0.26636 0.46938 0.14982 0.0
C1805 C 0.26415 0.45256 0.14038 0.0
H1806 H 0.25496 0.49574 0.15475 0.0
H1807 H 0.23809 0.33298 0.06097 0.0
H1808 H 0.34558 0.26945 0.12736 0.0
H1809 H 0.37397 0.2701 0.10852 0.0
H1810 H 0.40069 0.29285 0.16153 0.0
H1811 H 0.37251 0.29123 0.1812 0.0
H1812 H 0.40504 0.31063 0.11721 0.0
H1813 H 0.41224 0.25561 0.15689 0.0
H1814 H 0.40188 0.2262 0.17013 0.0
H1815 H 0.39576 0.2067 0.10807 0.0
H1816 H 0.40583 0.23611 0.09447 0.0
H1817 H 0.49065 0.30286 0.066 0.0
H1818 H 0.46634 0.30438 0.0917 0.0
H1819 H 0.43953 0.25982 0.06159 0.0
H1820 H 0.46428 0.25757 0.037 0.0
H1821 H 0.43725 0.25414 0.09915 0.0
H1822 H 0.42625 0.30741 0.05831 0.0
H1823 H 0.43358 0.33671 0.04233 0.0
H1824 H 0.44359 0.35947 0.10223 0.0
H1825 H 0.4365 0.33024 0.11855 0.0
C1826 C 0.35749 0.27421 0.13534 0.0
C1827 C 0.35662 0.2801 0.15602 0.0
C1828 C 0.37369 0.27478 0.12437 0.0
C1829 C 0.38936 0.28154 0.13364 0.0
C1830 C 0.38866 0.28767 0.15411 0.0
C1831 C 0.37249 0.28679 0.16528 0.0
C1832 C 0.4064 0.28194 0.12175 0.0
C1833 C 0.41237 0.29838 0.11352 0.0
C1834 C 0.41551 0.26585 0.11652 0.0
C1835 C 0.40964 0.24811 0.12467 0.0
C1836 C 0.40853 0.2451 0.14607 0.0
C1837 C 0.40274 0.22842 0.15364 0.0
C1838 C 0.39813 0.2146 0.13995 0.0
C1839 C 0.39933 0.21742 0.11866 0.0
C1840 C 0.4051 0.23408 0.11101 0.0
C1841 C 0.4795 0.29347 0.06494 0.0
C1842 C 0.47934 0.28007 0.0496 0.0
C1843 C 0.46554 0.29438 0.07954 0.0
C1844 C 0.45088 0.28232 0.07858 0.0
C1845 C 0.45067 0.2692 0.06291 0.0
C1846 C 0.46481 0.26795 0.04877 0.0
C1847 C 0.43587 0.28288 0.09395 0.0
C1848 C 0.43021 0.26654 0.10291 0.0
C1849 C 0.42677 0.29904 0.0994 0.0
C1850 C 0.43106 0.31659 0.08962 0.0
C1851 C 0.43015 0.31863 0.06805 0.0
C1852 C 0.43423 0.33523 0.05894 0.0
C1853 C 0.43911 0.34992 0.07125 0.0
C1854 C 0.43985 0.34807 0.09271 0.0
C1855 C 0.43579 0.3315 0.1019 0.0
H1856 H 0.44227 0.36276 0.06417 0.0
H1857 H 0.39364 0.2017 0.14584 0.0
H1858 H 0.72151 0.38511 0.19566 0.0
H1859 H 0.7255 0.4099 0.17115 0.0
H1860 H 0.74473 0.37229 0.12531 0.0
H1861 H 0.74013 0.3474 0.1494 0.0
H1862 H 0.7535 0.42386 0.15068 0.0
H1863 H 0.72934 0.38465 0.07825 0.0
H1864 H 0.70888 0.35952 0.06957 0.0
H1865 H 0.67765 0.3702 0.12408 0.0
H1866 H 0.69776 0.39554 0.13293 0.0
H1867 H 0.77793 0.47012 0.05938 0.0
H1868 H 0.77295 0.44747 0.0861 0.0
H1869 H 0.71543 0.45472 0.08036 0.0
H1870 H 0.72028 0.47725 0.05331 0.0
H1871 H 0.72344 0.41996 0.08234 0.0
H1872 H 0.73839 0.47241 0.12129 0.0
H1873 H 0.75636 0.49903 0.13117 0.0
H1874 H 0.8013 0.46487 0.14602 0.0
H1875 H 0.78368 0.43804 0.13593 0.0
C1876 C 0.72654 0.38211 0.18034 0.0
C1877 C 0.73036 0.36422 0.17447 0.0
C1878 C 0.72896 0.39631 0.1664 0.0
C1879 C 0.73517 0.39293 0.1463 0.0
C1880 C 0.73966 0.3752 0.14065 0.0
C1881 C 0.73721 0.36099 0.15454 0.0
C1882 C 0.73643 0.40782 0.131 0.0
C1883 C 0.74695 0.42301 0.13573 0.0
C1884 C 0.72751 0.40693 0.11169 0.0
C1885 C 0.71517 0.39188 0.10634 0.0
C1886 C 0.71806 0.38168 0.08833 0.0
C1887 C 0.70653 0.36739 0.08339 0.0
C1888 C 0.69201 0.36323 0.0963 0.0
C1889 C 0.68894 0.37339 0.11413 0.0
C1890 C 0.70042 0.3877 0.11913 0.0
C1891 C 0.7642 0.46693 0.06378 0.0
C1892 C 0.7495 0.47554 0.05421 0.0
C1893 C 0.76139 0.45403 0.07916 0.0
C1894 C 0.74383 0.44955 0.08544 0.0
C1895 C 0.72911 0.45799 0.07579 0.0
C1896 C 0.7319 0.47089 0.06035 0.0
C1897 C 0.74087 0.43582 0.1018 0.0
C1898 C 0.73001 0.42084 0.09728 0.0
C1899 C 0.74914 0.43712 0.12147 0.0
C1900 C 0.75975 0.45322 0.12768 0.0
C1901 C 0.75215 0.47058 0.12651 0.0
C1902 C 0.76226 0.48571 0.13218 0.0
C1903 C 0.77997 0.48365 0.13918 0.0
C1904 C 0.78758 0.46644 0.14057 0.0
C1905 C 0.77753 0.45127 0.13491 0.0
H1906 H 0.78777 0.49537 0.14355 0.0
H1907 H 0.68311 0.35215 0.09245 0.0
H1908 H 0.64899 0.75118 0.18931 0.0
H1909 H 0.62477 0.75698 0.16449 0.0
H1910 H 0.65701 0.73347 0.11597 0.0
H1911 H 0.68121 0.72762 0.14064 0.0
H1912 H 0.64081 0.7632 0.10252 0.0
H1913 H 0.62284 0.70983 0.13931 0.0
H1914 H 0.61573 0.69164 0.17013 0.0
H1915 H 0.57318 0.7284 0.18613 0.0
H1916 H 0.58021 0.74696 0.15554 0.0
H1917 H 0.56505 0.73289 0.03673 0.0
H1918 H 0.58889 0.73035 0.06293 0.0
H1919 H 0.57134 0.78032 0.09041 0.0
H1920 H 0.548 0.78336 0.06382 0.0
H1921 H 0.57952 0.73847 0.11467 0.0
H1922 H 0.60047 0.7934 0.07867 0.0
H1923 H 0.60849 0.8107 0.0475 0.0
H1924 H 0.64634 0.76956 0.03001 0.0
H1925 H 0.63801 0.75172 0.0607 0.0
C1926 C 0.65092 0.74725 0.17335 0.0
C1927 C 0.66704 0.73891 0.16698 0.0
C1928 C 0.63706 0.75056 0.15918 0.0
C1929 C 0.63897 0.74545 0.1384 0.0
C1930 C 0.65523 0.73756 0.13191 0.0
C1931 C 0.6691 0.7343 0.14603 0.0
C1932 C 0.624 0.74805 0.12342 0.0
C1933 C 0.62744 0.75772 0.10521 0.0
C1934 C 0.60647 0.74105 0.12692 0.0
C1935 C 0.60218 0.72988 0.14526 0.0
C1936 C 0.61206 0.71411 0.14949 0.0
C1937 C 0.60803 0.70372 0.16691 0.0
C1938 C 0.59405 0.70889 0.18012 0.0
C1939 C 0.58403 0.72443 0.17591 0.0
C1940 C 0.58802 0.73488 0.15853 0.0
C1941 C 0.5663 0.74333 0.04835 0.0
C1942 C 0.55475 0.75837 0.04819 0.0
C1943 C 0.57992 0.74188 0.06324 0.0
C1944 C 0.58196 0.75527 0.07837 0.0
C1945 C 0.57013 0.77001 0.07863 0.0
C1946 C 0.55681 0.7717 0.06346 0.0
C1947 C 0.59639 0.75371 0.09404 0.0
C1948 C 0.59286 0.74409 0.11222 0.0
C1949 C 0.61383 0.7607 0.09055 0.0
C1950 C 0.61831 0.77105 0.0717 0.0
C1951 C 0.61016 0.78784 0.06791 0.0
C1952 C 0.61482 0.79779 0.05037 0.0
C1953 C 0.62782 0.79119 0.03669 0.0
C1954 C 0.63617 0.77461 0.04052 0.0
C1955 C 0.63143 0.76455 0.05793 0.0
H1956 H 0.6315 0.79899 0.02322 0.0
H1957 H 0.59094 0.70083 0.19359 0.0
H1958 H 0.25629 0.67233 0.15169 0.0
H1959 H 0.25801 0.64312 0.13417 0.0
H1960 H 0.31595 0.64774 0.13116 0.0
H1961 H 0.3143 0.67709 0.14836 0.0
H1962 H 0.30159 0.63871 0.09406 0.0
H1963 H 0.29702 0.61774 0.16351 0.0
H1964 H 0.2843 0.61559 0.19859 0.0
H1965 H 0.23423 0.59631 0.17362 0.0
H1966 H 0.24657 0.59859 0.13834 0.0
H1967 H 0.31087 0.5505 0.05125 0.0
H1968 H 0.31407 0.57604 0.07503 0.0
H1969 H 0.2564 0.57724 0.08371 0.0
H1970 H 0.25309 0.55173 0.06026 0.0
H1971 H 0.27367 0.58224 0.11984 0.0
H1972 H 0.27693 0.60627 0.0507 0.0
H1973 H 0.28907 0.60883 0.01536 0.0
H1974 H 0.34111 0.62272 0.03976 0.0
H1975 H 0.32932 0.62 0.07528 0.0
C1976 C 0.2694 0.66707 0.1474 0.0
C1977 C 0.28516 0.67702 0.15143 0.0
C1978 C 0.27038 0.65031 0.13753 0.0
C1979 C 0.28713 0.64318 0.13147 0.0
C1980 C 0.3029 0.65296 0.13576 0.0
C1981 C 0.30194 0.66966 0.14574 0.0
C1982 C 0.28804 0.62602 0.11965 0.0
C1983 C 0.2958 0.62627 0.09987 0.0
C1984 C 0.28017 0.60988 0.12705 0.0
C1985 C 0.27268 0.60849 0.14825 0.0
C1986 C 0.28325 0.61318 0.16547 0.0
C1987 C 0.27611 0.61191 0.1854 0.0
C1988 C 0.25845 0.60585 0.18833 0.0
C1989 C 0.2479 0.60101 0.17133 0.0
C1990 C 0.25497 0.60228 0.15136 0.0
C1991 C 0.29889 0.55612 0.05835 0.0
C1992 C 0.28171 0.54914 0.05373 0.0
C1993 C 0.30074 0.57074 0.07189 0.0
C1994 C 0.28545 0.57868 0.08099 0.0
C1995 C 0.26838 0.57136 0.07689 0.0
C1996 C 0.26652 0.5568 0.06337 0.0
C1997 C 0.287 0.59502 0.09418 0.0
C1998 C 0.27967 0.59463 0.11417 0.0
C1999 C 0.2952 0.61106 0.08696 0.0
C2000 C 0.3023 0.61272 0.06563 0.0
C2001 C 0.291 0.60972 0.04853 0.0
C2002 C 0.29781 0.61122 0.02847 0.0
C2003 C 0.31586 0.61588 0.02532 0.0
C2004 C 0.32713 0.61908 0.04223 0.0
C2005 C 0.3204 0.61757 0.06232 0.0
H2006 H 0.32111 0.61705 0.00978 0.0
H2007 H 0.25296 0.60487 0.20377 0.0
H2008 H 0.34794 0.71953 0.8806 0.0
H2009 H 0.37425 0.72308 0.90294 0.0
H2010 H 0.39528 0.76395 0.86201 0.0
H2011 H 0.36927 0.75973 0.83909 0.0
H2012 H 0.42149 0.74403 0.87317 0.0
H2013 H 0.37477 0.77362 0.91075 0.0
H2014 H 0.34503 0.77726 0.92731 0.0
H2015 H 0.3568 0.7334 0.96844 0.0
H2016 H 0.38652 0.72932 0.95194 0.0
H2017 H 0.48184 0.78141 0.94946 0.0
H2018 H 0.45651 0.7771 0.92566 0.0
H2019 H 0.44564 0.72519 0.9529 0.0
H2020 H 0.47127 0.72918 0.97646 0.0
H2021 H 0.41477 0.75121 0.94897 0.0
H2022 H 0.46262 0.72296 0.90975 0.0
H2023 H 0.49263 0.72202 0.89337 0.0
H2024 H 0.4786 0.76745 0.85551 0.0
H2025 H 0.44858 0.76883 0.8719 0.0
C2026 C 0.35813 0.72937 0.87648 0.0
C2027 C 0.35653 0.73949 0.85825 0.0
C2028 C 0.37315 0.73145 0.88929 0.0
C2029 C 0.38665 0.74407 0.88446 0.0
C2030 C 0.38507 0.75415 0.86615 0.0
C2031 C 0.3702 0.7518 0.85309 0.0
C2032 C 0.40253 0.74647 0.89831 0.0
C2033 C 0.41994 0.74586 0.8897 0.0
C2034 C 0.40067 0.74864 0.91998 0.0
C2035 C 0.38281 0.75106 0.92997 0.0
C2036 C 0.37096 0.76466 0.92323 0.0
C2037 C 0.35412 0.76682 0.93262 0.0
C2038 C 0.34901 0.75554 0.94888 0.0
C2039 C 0.36076 0.74211 0.95582 0.0
C2040 C 0.37762 0.73988 0.94647 0.0
C2041 C 0.47414 0.76901 0.95029 0.0
C2042 C 0.47854 0.75562 0.96481 0.0
C2043 C 0.45971 0.76658 0.93667 0.0
C2044 C 0.44925 0.75084 0.93757 0.0
C2045 C 0.4536 0.73742 0.95201 0.0
C2046 C 0.46827 0.73969 0.96536 0.0
C2047 C 0.43348 0.74865 0.92376 0.0
C2048 C 0.41617 0.74937 0.93242 0.0
C2049 C 0.43541 0.74699 0.90214 0.0
C2050 C 0.45342 0.74612 0.89221 0.0
C2051 C 0.46599 0.73286 0.89808 0.0
C2052 C 0.48299 0.73222 0.88876 0.0
C2053 C 0.48754 0.7447 0.87345 0.0
C2054 C 0.47507 0.75781 0.86739 0.0
C2055 C 0.45806 0.75851 0.87668 0.0
H2056 H 0.50071 0.74418 0.86625 0.0
H2057 H 0.33596 0.75723 0.95613 0.0
H2058 H 0.26393 0.3434 0.88641 0.0
H2059 H 0.26503 0.37194 0.90484 0.0
H2060 H 0.30271 0.39286 0.86027 0.0
H2061 H 0.30084 0.36467 0.84065 0.0
H2062 H 0.31064 0.39405 0.90923 0.0
H2063 H 0.27013 0.41212 0.85443 0.0
H2064 H 0.24368 0.40821 0.83178 0.0
H2065 H 0.20887 0.40707 0.88477 0.0
H2066 H 0.23516 0.41069 0.90776 0.0
H2067 H 0.30816 0.47956 0.96103 0.0
H2068 H 0.31054 0.4559 0.93468 0.0
H2069 H 0.25688 0.43762 0.95 0.0
H2070 H 0.25418 0.46163 0.97547 0.0
H2071 H 0.25961 0.43731 0.91109 0.0
H2072 H 0.29779 0.41564 0.96602 0.0
H2073 H 0.32297 0.4169 0.99088 0.0
H2074 H 0.36072 0.42205 0.94092 0.0
H2075 H 0.33572 0.42103 0.91577 0.0
C2076 C 0.27209 0.35413 0.88002 0.0
C2077 C 0.28218 0.35157 0.86178 0.0
C2078 C 0.27285 0.37041 0.89081 0.0
C2079 C 0.28396 0.38443 0.88391 0.0
C2080 C 0.29411 0.3821 0.86584 0.0
C2081 C 0.29307 0.36591 0.85473 0.0
C2082 C 0.28502 0.4013 0.89605 0.0
C2083 C 0.29972 0.4038 0.90937 0.0
C2084 C 0.27048 0.41358 0.89659 0.0
C2085 C 0.25464 0.4115 0.88281 0.0
C2086 C 0.25686 0.41085 0.86126 0.0
C2087 C 0.24189 0.40874 0.84836 0.0
C2088 C 0.22461 0.40735 0.85683 0.0
C2089 C 0.22226 0.40813 0.87823 0.0
C2090 C 0.23719 0.41023 0.89119 0.0
C2091 C 0.29692 0.47044 0.95875 0.0
C2092 C 0.28099 0.47246 0.9703 0.0
C2093 C 0.2983 0.45688 0.94374 0.0
C2094 C 0.28395 0.44479 0.94041 0.0
C2095 C 0.26812 0.44679 0.9521 0.0
C2096 C 0.2666 0.46051 0.96675 0.0
C2097 C 0.28515 0.43006 0.92478 0.0
C2098 C 0.27079 0.42787 0.91081 0.0
C2099 C 0.29985 0.41784 0.92396 0.0
C2100 C 0.31488 0.41849 0.93905 0.0
C2101 C 0.31145 0.41719 0.96036 0.0
C2102 C 0.32569 0.41783 0.97449 0.0
C2103 C 0.34343 0.41962 0.96749 0.0
C2104 C 0.34697 0.42071 0.94632 0.0
C2105 C 0.33278 0.42009 0.93213 0.0
H2106 H 0.35444 0.4201 0.97845 0.0
H2107 H 0.21303 0.40572 0.84682 0.0
H2108 H 0.67024 0.31251 0.84977 0.0
H2109 H 0.64189 0.31346 0.86923 0.0
H2110 H 0.64855 0.25746 0.88556 0.0
H2111 H 0.67682 0.2564 0.86602 0.0
H2112 H 0.61296 0.26633 0.87481 0.0
H2113 H 0.66092 0.28891 0.91882 0.0
H2114 H 0.68603 0.30938 0.92748 0.0
H2115 H 0.65059 0.35498 0.92237 0.0
H2116 H 0.62531 0.33478 0.91338 0.0
H2117 H 0.56163 0.25231 0.96386 0.0
H2118 H 0.58525 0.25551 0.93808 0.0
H2119 H 0.57559 0.31286 0.93547 0.0
H2120 H 0.55205 0.30981 0.9619 0.0
H2121 H 0.61054 0.30648 0.9361 0.0
H2122 H 0.56171 0.2844 0.89603 0.0
H2123 H 0.53622 0.26455 0.88702 0.0
H2124 H 0.57211 0.21919 0.8834 0.0
H2125 H 0.5978 0.23872 0.8927 0.0
C2126 C 0.66548 0.30032 0.85719 0.0
C2127 C 0.67578 0.28439 0.85644 0.0
C2128 C 0.64936 0.30092 0.86842 0.0
C2129 C 0.64321 0.28557 0.879 0.0
C2130 C 0.65307 0.26946 0.87753 0.0
C2131 C 0.66925 0.26889 0.86648 0.0
C2132 C 0.62704 0.28646 0.89249 0.0
C2133 C 0.61243 0.27502 0.88828 0.0
C2134 C 0.62614 0.29825 0.90966 0.0
C2135 C 0.64129 0.31036 0.9152 0.0
C2136 C 0.65852 0.30332 0.91938 0.0
C2137 C 0.67278 0.31486 0.92438 0.0
C2138 C 0.66992 0.33347 0.92541 0.0
C2139 C 0.65279 0.34057 0.92152 0.0
C2140 C 0.6385 0.32908 0.91648 0.0
C2141 C 0.56441 0.26563 0.95778 0.0
C2142 C 0.55485 0.2808 0.96489 0.0
C2143 C 0.5779 0.26742 0.9429 0.0
C2144 C 0.58199 0.28437 0.93447 0.0
C2145 C 0.5726 0.29962 0.94165 0.0
C2146 C 0.55914 0.29786 0.95673 0.0
C2147 C 0.5965 0.28605 0.9187 0.0
C2148 C 0.61085 0.29797 0.92247 0.0
C2149 C 0.59706 0.27482 0.90098 0.0
C2150 C 0.58168 0.26302 0.8952 0.0
C2151 C 0.56416 0.27017 0.89344 0.0
C2152 C 0.54967 0.25898 0.88827 0.0
C2153 C 0.55254 0.24062 0.88467 0.0
C2154 C 0.56991 0.23342 0.88619 0.0
C2155 C 0.58445 0.24455 0.89139 0.0
H2156 H 0.5413 0.23197 0.88068 0.0
H2157 H 0.68097 0.34239 0.92929 0.0
H2158 H 0.77523 0.67352 0.86986 0.0
H2159 H 0.77497 0.64561 0.89007 0.0
H2160 H 0.71884 0.63773 0.87505 0.0
H2161 H 0.71901 0.66571 0.85486 0.0
H2162 H 0.72608 0.63438 0.91705 0.0
H2163 H 0.7489 0.61108 0.85329 0.0
H2164 H 0.769 0.60993 0.82299 0.0
H2165 H 0.81478 0.60253 0.86271 0.0
H2166 H 0.79498 0.60391 0.89329 0.0
H2167 H 0.7236 0.5483 0.96623 0.0
H2168 H 0.72085 0.57247 0.94065 0.0
H2169 H 0.77818 0.58204 0.94437 0.0
H2170 H 0.78109 0.55768 0.96941 0.0
H2171 H 0.76804 0.58319 0.90573 0.0
H2172 H 0.74653 0.60942 0.9692 0.0
H2173 H 0.72727 0.61156 1.00016 0.0
H2174 H 0.68008 0.61447 0.96185 0.0
H2175 H 0.69906 0.61211 0.93064 0.0
C2176 C 0.76288 0.66577 0.87076 0.0
C2177 C 0.74715 0.67178 0.86077 0.0
C2178 C 0.76276 0.64979 0.8822 0.0
C2179 C 0.7469 0.63956 0.88397 0.0
C2180 C 0.73122 0.64541 0.87383 0.0
C2181 C 0.73138 0.6613 0.86219 0.0
C2182 C 0.74655 0.62323 0.89721 0.0
C2183 C 0.735 0.62302 0.91438 0.0
C2184 C 0.7585 0.60863 0.89396 0.0
C2185 C 0.77046 0.60775 0.8756 0.0
C2186 C 0.76327 0.60936 0.85558 0.0
C2187 C 0.77461 0.60864 0.83835 0.0
C2188 C 0.79316 0.6062 0.84093 0.0
C2189 C 0.80041 0.60444 0.86074 0.0
C2190 C 0.78913 0.60517 0.87803 0.0
C2191 C 0.73562 0.55555 0.96157 0.0
C2192 C 0.75255 0.55109 0.96992 0.0
C2193 C 0.73402 0.56941 0.94699 0.0
C2194 C 0.74928 0.57924 0.94073 0.0
C2195 C 0.76621 0.57465 0.9489 0.0
C2196 C 0.76783 0.56073 0.9633 0.0
C2197 C 0.74776 0.59443 0.92582 0.0
C2198 C 0.75897 0.59445 0.90832 0.0
C2199 C 0.73562 0.60895 0.92888 0.0
C2200 C 0.72419 0.61038 0.94761 0.0
C2201 C 0.73203 0.61037 0.96738 0.0
C2202 C 0.72117 0.61165 0.98497 0.0
C2203 C 0.70246 0.61309 0.98297 0.0
C2204 C 0.69457 0.61331 0.96337 0.0
C2205 C 0.70538 0.61201 0.94573 0.0
H2206 H 0.69407 0.61409 0.99661 0.0
H2207 H 0.80192 0.60564 0.82757 0.0
loop_
_geom_bond_atom_site_label_1
_geom_bond_atom_site_label_2
_geom_bond_distance
_geom_bond_site_symmetry_2
_ccdc_geom_bond_type
H0 C27 0.929 . S
N1 C26 1.433 . S
N1 C32 1.435 . S
N1 C38 1.423 . S
H2 C28 0.930 . S
H3 C31 0.931 . S
H4 C30 0.929 . S
H5 C33 0.930 . S
H6 C34 0.932 . S
H7 C37 0.929 . S
H8 C36 0.931 . S
H9 C39 0.929 . S
H10 C43 0.932 . S
H11 C40 0.931 . S
H12 C42 0.929 . S
H13 C45 0.929 . S
H14 C46 0.930 . S
H15 C48 0.929 . S
H16 C49 0.931 . S
H17 C51 0.930 . S
H18 C52 0.932 . S
H19 C54 0.931 . S
H20 C55 0.929 . S
H21 C57 0.929 . S
H22 C58 0.931 . S
H23 C60 0.929 . S
N24 C44 1.433 . S
N24 C50 1.435 . S
N24 C56 1.423 . S
H25 C61 0.932 . S
C26 N1 1.433 . S
C26 C27 1.363 . S
C26 C31 1.370 . S
C27 H0 0.929 . S
C27 C26 1.363 . S
C27 C28 1.385 . S
C28 H2 0.930 . S
C28 C27 1.385 . S
C28 C29 1.357 . S
C29 C28 1.357 . S
C29 C30 1.406 . S
C30 H4 0.929 . S
C30 C29 1.406 . S
C30 C31 1.391 . S
C31 H3 0.931 . S
C31 C26 1.370 . S
C31 C30 1.391 . S
C32 N1 1.435 . S
C32 C33 1.358 . S
C32 C37 1.371 . S
C33 H5 0.930 . S
C33 C32 1.358 . S
C33 C34 1.405 . S
C34 H6 0.932 . S
C34 C33 1.405 . S
C34 C35 1.383 . S
C35 C34 1.383 . S
C35 C36 1.393 . S
C36 H8 0.931 . S
C36 C35 1.393 . S
C36 C37 1.382 . S
C37 H7 0.929 . S
C37 C32 1.371 . S
C37 C36 1.382 . S
C38 N1 1.423 . S
C38 C39 1.362 . S
C38 C43 1.388 . S
C39 H9 0.929 . S
C39 C38 1.362 . S
C39 C40 1.376 . S
C40 H11 0.931 . S
C40 C39 1.376 . S
C40 C41 1.396 . S
C41 C40 1.396 . S
C41 C42 1.348 . S
C41 C59 1.472 . S
C42 H12 0.929 . S
C42 C41 1.348 . S
C42 C43 1.443 . S
C43 H10 0.932 . S
C43 C38 1.388 . S
C43 C42 1.443 . S
C44 N24 1.433 . S
C44 C45 1.363 . S
C44 C49 1.370 . S
C45 H13 0.929 . S
C45 C44 1.363 . S
C45 C46 1.385 . S
C46 H14 0.930 . S
C46 C45 1.385 . S
C46 C47 1.357 . S
C47 C46 1.357 . S
C47 C48 1.406 . S
C48 H15 0.929 . S
C48 C47 1.406 . S
C48 C49 1.391 . S
C49 H16 0.931 . S
C49 C44 1.370 . S
C49 C48 1.391 . S
C50 N24 1.435 . S
C50 C51 1.358 . S
C50 C55 1.371 . S
C51 H17 0.930 . S
C51 C50 1.358 . S
C51 C52 1.405 . S
C52 H18 0.932 . S
C52 C51 1.405 . S
C52 C53 1.383 . S
C53 C52 1.383 . S
C53 C54 1.393 . S
C54 H19 0.931 . S
C54 C53 1.393 . S
C54 C55 1.382 . S
C55 H20 0.929 . S
C55 C50 1.371 . S
C55 C54 1.382 . S
C56 N24 1.423 . S
C56 C57 1.362 . S
C56 C61 1.388 . S
C57 H21 0.929 . S
C57 C56 1.362 . S
C57 C58 1.376 . S
C58 H22 0.931 . S
C58 C57 1.376 . S
C58 C59 1.396 . S
C59 C41 1.472 . S
C59 C58 1.396 . S
C59 C60 1.348 . S
C60 H23 0.929 . S
C60 C59 1.348 . S
C60 C61 1.443 . S
C61 H25 0.932 . S
C61 C56 1.388 . S
C61 C60 1.443 . S
H62 C89 0.929 . S
N63 C88 1.433 . S
N63 C94 1.435 . S
N63 C100 1.423 . S
H64 C90 0.930 . S
H65 C93 0.931 . S
H66 C92 0.929 . S
H67 C95 0.930 . S
H68 C96 0.932 . S
H69 C99 0.929 . S
H70 C98 0.931 . S
H71 C101 0.929 . S
H72 C105 0.932 . S
H73 C102 0.931 . S
H74 C104 0.929 . S
H75 C107 0.929 . S
H76 C108 0.930 . S
H77 C110 0.929 . S
H78 C111 0.931 . S
H79 C113 0.930 . S
H80 C114 0.932 . S
H81 C116 0.931 . S
H82 C117 0.929 . S
H83 C119 0.929 . S
H84 C120 0.931 . S
H85 C122 0.929 . S
N86 C106 1.433 . S
N86 C112 1.435 . S
N86 C118 1.423 . S
H87 C123 0.932 . S
C88 N63 1.433 . S
C88 C89 1.363 . S
C88 C93 1.370 . S
C89 H62 0.929 . S
C89 C88 1.363 . S
C89 C90 1.385 . S
C90 H64 0.930 . S
C90 C89 1.385 . S
C90 C91 1.357 . S
C91 C90 1.357 . S
C91 C92 1.406 . S
C92 H66 0.929 . S
C92 C91 1.406 . S
C92 C93 1.391 . S
C93 H65 0.931 . S
C93 C88 1.370 . S
C93 C92 1.391 . S
C94 N63 1.435 . S
C94 C95 1.358 . S
C94 C99 1.371 . S
C95 H67 0.930 . S
C95 C94 1.358 . S
C95 C96 1.405 . S
C96 H68 0.932 . S
C96 C95 1.405 . S
C96 C97 1.383 . S
C97 C96 1.383 . S
C97 C98 1.393 . S
C98 H70 0.931 . S
C98 C97 1.393 . S
C98 C99 1.382 . S
C99 H69 0.929 . S
C99 C94 1.371 . S
C99 C98 1.382 . S
C100 N63 1.423 . S
C100 C101 1.362 . S
C100 C105 1.388 . S
C101 H71 0.929 . S
C101 C100 1.362 . S
C101 C102 1.376 . S
C102 H73 0.931 . S
C102 C101 1.376 . S
C102 C103 1.396 . S
C103 C102 1.396 . S
C103 C104 1.348 . S
C103 C121 1.472 . S
C104 H74 0.929 . S
C104 C103 1.348 . S
C104 C105 1.443 . S
C105 H72 0.932 . S
C105 C100 1.388 . S
C105 C104 1.443 . S
C106 N86 1.433 . S
C106 C107 1.363 . S
C106 C111 1.370 . S
C107 H75 0.929 . S
C107 C106 1.363 . S
C107 C108 1.385 . S
C108 H76 0.930 . S
C108 C107 1.385 . S
C108 C109 1.357 . S
C109 C108 1.357 . S
C109 C110 1.406 . S
C110 H77 0.929 . S
C110 C109 1.406 . S
C110 C111 1.391 . S
C111 H78 0.931 . S
C111 C106 1.370 . S
C111 C110 1.391 . S
C112 N86 1.435 . S
C112 C113 1.358 . S
C112 C117 1.371 . S
C113 H79 0.930 . S
C113 C112 1.358 . S
C113 C114 1.405 . S
C114 H80 0.932 . S
C114 C113 1.405 . S
C114 C115 1.383 . S
C115 C114 1.383 . S
C115 C116 1.393 . S
C116 H81 0.931 . S
C116 C115 1.393 . S
C116 C117 1.382 . S
C117 H82 0.929 . S
C117 C112 1.371 . S
C117 C116 1.382 . S
C118 N86 1.423 . S
C118 C119 1.362 . S
C118 C123 1.388 . S
C119 H83 0.929 . S
C119 C118 1.362 . S
C119 C120 1.376 . S
C120 H84 0.931 . S
C120 C119 1.376 . S
C120 C121 1.396 . S
C121 C103 1.472 . S
C121 C120 1.396 . S
C121 C122 1.348 . S
C122 H85 0.929 . S
C122 C121 1.348 . S
C122 C123 1.443 . S
C123 H87 0.932 . S
C123 C118 1.388 . S
C123 C122 1.443 . S
H124 C151 0.929 . S
N125 C150 1.433 . S
N125 C156 1.435 . S
N125 C162 1.423 . S
H126 C152 0.930 . S
H127 C155 0.931 . S
H128 C154 0.929 . S
H129 C157 0.930 . S
H130 C158 0.932 . S
H131 C161 0.929 . S
H132 C160 0.931 . S
H133 C163 0.929 . S
H134 C167 0.932 . S
H135 C164 0.931 . S
H136 C166 0.929 . S
H137 C169 0.929 . S
H138 C170 0.930 . S
H139 C172 0.929 . S
H140 C173 0.931 . S
H141 C175 0.930 . S
H142 C176 0.932 . S
H143 C178 0.931 . S
H144 C179 0.929 . S
H145 C181 0.929 . S
H146 C182 0.931 . S
H147 C184 0.929 . S
N148 C168 1.433 . S
N148 C174 1.435 . S
N148 C180 1.423 . S
H149 C185 0.932 . S
C150 N125 1.433 . S
C150 C151 1.363 . S
C150 C155 1.370 . S
C151 H124 0.929 . S
C151 C150 1.363 . S
C151 C152 1.385 . S
C152 H126 0.930 . S
C152 C151 1.385 . S
C152 C153 1.357 . S
C153 C152 1.357 . S
C153 C154 1.406 . S
C154 H128 0.929 . S
C154 C153 1.406 . S
C154 C155 1.391 . S
C155 H127 0.931 . S
C155 C150 1.370 . S
C155 C154 1.391 . S
C156 N125 1.435 . S
C156 C157 1.358 . S
C156 C161 1.371 . S
C157 H129 0.930 . S
C157 C156 1.358 . S
C157 C158 1.405 . S
C158 H130 0.932 . S
C158 C157 1.405 . S
C158 C159 1.383 . S
C159 C158 1.383 . S
C159 C160 1.393 . S
C160 H132 0.931 . S
C160 C159 1.393 . S
C160 C161 1.382 . S
C161 H131 0.929 . S
C161 C156 1.371 . S
C161 C160 1.382 . S
C162 N125 1.423 . S
C162 C163 1.362 . S
C162 C167 1.388 . S
C163 H133 0.929 . S
C163 C162 1.362 . S
C163 C164 1.376 . S
C164 H135 0.931 . S
C164 C163 1.376 . S
C164 C165 1.396 . S
C165 C164 1.396 . S
C165 C166 1.348 . S
C165 C183 1.472 . S
C166 H136 0.929 . S
C166 C165 1.348 . S
C166 C167 1.443 . S
C167 H134 0.932 . S
C167 C162 1.388 . S
C167 C166 1.443 . S
C168 N148 1.433 . S
C168 C169 1.363 . S
C168 C173 1.370 . S
C169 H137 0.929 . S
C169 C168 1.363 . S
C169 C170 1.385 . S
C170 H138 0.930 . S
C170 C169 1.385 . S
C170 C171 1.357 . S
C171 C170 1.357 . S
C171 C172 1.406 . S
C172 H139 0.929 . S
C172 C171 1.406 . S
C172 C173 1.391 . S
C173 H140 0.931 . S
C173 C168 1.370 . S
C173 C172 1.391 . S
C174 N148 1.435 . S
C174 C175 1.358 . S
C174 C179 1.371 . S
C175 H141 0.930 . S
C175 C174 1.358 . S
C175 C176 1.405 . S
C176 H142 0.932 . S
C176 C175 1.405 . S
C176 C177 1.383 . S
C177 C176 1.383 . S
C177 C178 1.393 . S
C178 H143 0.931 . S
C178 C177 1.393 . S
C178 C179 1.382 . S
C179 H144 0.929 . S
C179 C174 1.371 . S
C179 C178 1.382 . S
C180 N148 1.423 . S
C180 C181 1.362 . S
C180 C185 1.388 . S
C181 H145 0.929 . S
C181 C180 1.362 . S
C181 C182 1.376 . S
C182 H146 0.931 . S
C182 C181 1.376 . S
C182 C183 1.396 . S
C183 C165 1.472 . S
C183 C182 1.396 . S
C183 C184 1.348 . S
C184 H147 0.929 . S
C184 C183 1.348 . S
C184 C185 1.443 . S
C185 H149 0.932 . S
C185 C180 1.388 . S
C185 C184 1.443 . S
H186 C213 0.929 . S
N187 C212 1.433 . S
N187 C218 1.435 . S
N187 C224 1.423 . S
H188 C214 0.930 . S
H189 C217 0.931 . S
H190 C216 0.929 . S
H191 C219 0.930 . S
H192 C220 0.932 . S
H193 C223 0.929 . S
H194 C222 0.931 . S
H195 C225 0.929 . S
H196 C229 0.932 . S
H197 C226 0.931 . S
H198 C228 0.929 . S
H199 C231 0.929 . S
H200 C232 0.930 . S
H201 C234 0.929 . S
H202 C235 0.931 . S
H203 C237 0.930 . S
H204 C238 0.932 . S
H205 C240 0.931 . S
H206 C241 0.929 . S
H207 C243 0.929 . S
H208 C244 0.931 . S
H209 C246 0.929 . S
N210 C230 1.433 . S
N210 C236 1.435 . S
N210 C242 1.423 . S
H211 C247 0.932 . S
C212 N187 1.433 . S
C212 C213 1.363 . S
C212 C217 1.370 . S
C213 H186 0.929 . S
C213 C212 1.363 . S
C213 C214 1.385 . S
C214 H188 0.930 . S
C214 C213 1.385 . S
C214 C215 1.357 . S
C215 C214 1.357 . S
C215 C216 1.406 . S
C216 H190 0.929 . S
C216 C215 1.406 . S
C216 C217 1.391 . S
C217 H189 0.931 . S
C217 C212 1.370 . S
C217 C216 1.391 . S
C218 N187 1.435 . S
C218 C219 1.358 . S
C218 C223 1.371 . S
C219 H191 0.930 . S
C219 C218 1.358 . S
C219 C220 1.405 . S
C220 H192 0.932 . S
C220 C219 1.405 . S
C220 C221 1.383 . S
C221 C220 1.383 . S
C221 C222 1.393 . S
C222 H194 0.931 . S
C222 C221 1.393 . S
C222 C223 1.382 . S
C223 H193 0.929 . S
C223 C218 1.371 . S
C223 C222 1.382 . S
C224 N187 1.423 . S
C224 C225 1.362 . S
C224 C229 1.388 . S
C225 H195 0.929 . S
C225 C224 1.362 . S
C225 C226 1.376 . S
C226 H197 0.931 . S
C226 C225 1.376 . S
C226 C227 1.396 . S
C227 C226 1.396 . S
C227 C228 1.348 . S
C227 C245 1.472 . S
C228 H198 0.929 . S
C228 C227 1.348 . S
C228 C229 1.443 . S
C229 H196 0.932 . S
C229 C224 1.388 . S
C229 C228 1.443 . S
C230 N210 1.433 . S
C230 C231 1.363 . S
C230 C235 1.370 . S
C231 H199 0.929 . S
C231 C230 1.363 . S
C231 C232 1.385 . S
C232 H200 0.930 . S
C232 C231 1.385 . S
C232 C233 1.357 . S
C233 C232 1.357 . S
C233 C234 1.406 . S
C234 H201 0.929 . S
C234 C233 1.406 . S
C234 C235 1.391 . S
C235 H202 0.931 . S
C235 C230 1.370 . S
C235 C234 1.391 . S
C236 N210 1.435 . S
C236 C237 1.358 . S
C236 C241 1.371 . S
C237 H203 0.930 . S
C237 C236 1.358 . S
C237 C238 1.405 . S
C238 H204 0.932 . S
C238 C237 1.405 . S
C238 C239 1.383 . S
C239 C238 1.383 . S
C239 C240 1.393 . S
C240 H205 0.931 . S
C240 C239 1.393 . S
C240 C241 1.382 . S
C241 H206 0.929 . S
C241 C236 1.371 . S
C241 C240 1.382 . S
C242 N210 1.423 . S
C242 C243 1.362 . S
C242 C247 1.388 . S
C243 H207 0.929 . S
C243 C242 1.362 . S
C243 C244 1.376 . S
C244 H208 0.931 . S
C244 C243 1.376 . S
C244 C245 1.396 . S
C245 C227 1.472 . S
C245 C244 1.396 . S
C245 C246 1.348 . S
C246 H209 0.929 . S
C246 C245 1.348 . S
C246 C247 1.443 . S
C247 H211 0.932 . S
C247 C242 1.388 . S
C247 C246 1.443 . S
H248 C275 0.929 . S
N249 C274 1.433 . S
N249 C280 1.435 . S
N249 C286 1.423 . S
H250 C276 0.930 . S
H251 C279 0.931 . S
H252 C278 0.929 . S
H253 C281 0.930 . S
H254 C282 0.932 . S
H255 C285 0.929 . S
H256 C284 0.931 . S
H257 C287 0.929 . S
H258 C291 0.932 . S
H259 C288 0.931 . S
H260 C290 0.929 . S
H261 C293 0.929 . S
H262 C294 0.930 . S
H263 C296 0.929 . S
H264 C297 0.931 . S
H265 C299 0.930 . S
H266 C300 0.932 . S
H267 C302 0.931 . S
H268 C303 0.929 . S
H269 C305 0.929 . S
H270 C306 0.931 . S
H271 C308 0.929 . S
N272 C292 1.433 . S
N272 C298 1.435 . S
N272 C304 1.423 . S
H273 C309 0.932 . S
C274 N249 1.433 . S
C274 C275 1.363 . S
C274 C279 1.370 . S
C275 H248 0.929 . S
C275 C274 1.363 . S
C275 C276 1.385 . S
C276 H250 0.930 . S
C276 C275 1.385 . S
C276 C277 1.357 . S
C277 C276 1.357 . S
C277 C278 1.406 . S
C278 H252 0.929 . S
C278 C277 1.406 . S
C278 C279 1.391 . S
C279 H251 0.931 . S
C279 C274 1.370 . S
C279 C278 1.391 . S
C280 N249 1.435 . S
C280 C281 1.358 . S
C280 C285 1.371 . S
C281 H253 0.930 . S
C281 C280 1.358 . S
C281 C282 1.405 . S
C282 H254 0.932 . S
C282 C281 1.405 . S
C282 C283 1.383 . S
C283 C282 1.383 . S
C283 C284 1.393 . S
C284 H256 0.931 . S
C284 C283 1.393 . S
C284 C285 1.382 . S
C285 H255 0.929 . S
C285 C280 1.371 . S
C285 C284 1.382 . S
C286 N249 1.423 . S
C286 C287 1.362 . S
C286 C291 1.388 . S
C287 H257 0.929 . S
C287 C286 1.362 . S
C287 C288 1.376 . S
C288 H259 0.931 . S
C288 C287 1.376 . S
C288 C289 1.396 . S
C289 C288 1.396 . S
C289 C290 1.348 . S
C289 C307 1.472 . S
C290 H260 0.929 . S
C290 C289 1.348 . S
C290 C291 1.443 . S
C291 H258 0.932 . S
C291 C286 1.388 . S
C291 C290 1.443 . S
C292 N272 1.433 . S
C292 C293 1.363 . S
C292 C297 1.370 . S
C293 H261 0.929 . S
C293 C292 1.363 . S
C293 C294 1.385 . S
C294 H262 0.930 . S
C294 C293 1.385 . S
C294 C295 1.357 . S
C295 C294 1.357 . S
C295 C296 1.406 . S
C296 H263 0.929 . S
C296 C295 1.406 . S
C296 C297 1.391 . S
C297 H264 0.931 . S
C297 C292 1.370 . S
C297 C296 1.391 . S
C298 N272 1.435 . S
C298 C299 1.358 . S
C298 C303 1.371 . S
C299 H265 0.930 . S
C299 C298 1.358 . S
C299 C300 1.405 . S
C300 H266 0.932 . S
C300 C299 1.405 . S
C300 C301 1.383 . S
C301 C300 1.383 . S
C301 C302 1.393 . S
C302 H267 0.931 . S
C302 C301 1.393 . S
C302 C303 1.382 . S
C303 H268 0.929 . S
C303 C298 1.371 . S
C303 C302 1.382 . S
C304 N272 1.423 . S
C304 C305 1.362 . S
C304 C309 1.388 . S
C305 H269 0.929 . S
C305 C304 1.362 . S
C305 C306 1.376 . S
C306 H270 0.931 . S
C306 C305 1.376 . S
C306 C307 1.396 . S
C307 C289 1.472 . S
C307 C306 1.396 . S
C307 C308 1.348 . S
C308 H271 0.929 . S
C308 C307 1.348 . S
C308 C309 1.443 . S
C309 H273 0.932 . S
C309 C304 1.388 . S
C309 C308 1.443 . S
H310 C337 0.929 . S
N311 C336 1.433 . S
N311 C342 1.435 . S
N311 C348 1.423 . S
H312 C338 0.930 . S
H313 C341 0.931 . S
H314 C340 0.929 . S
H315 C343 0.930 . S
H316 C344 0.932 . S
H317 C347 0.929 . S
H318 C346 0.931 . S
H319 C349 0.929 . S
H320 C353 0.932 . S
H321 C350 0.931 . S
H322 C352 0.929 . S
H323 C355 0.929 . S
H324 C356 0.930 . S
H325 C358 0.929 . S
H326 C359 0.931 . S
H327 C361 0.930 . S
H328 C362 0.932 . S
H329 C364 0.931 . S
H330 C365 0.929 . S
H331 C367 0.929 . S
H332 C368 0.931 . S
H333 C370 0.929 . S
N334 C354 1.433 . S
N334 C360 1.435 . S
N334 C366 1.423 . S
H335 C371 0.932 . S
C336 N311 1.433 . S
C336 C337 1.363 . S
C336 C341 1.370 . S
C337 H310 0.929 . S
C337 C336 1.363 . S
C337 C338 1.385 . S
C338 H312 0.930 . S
C338 C337 1.385 . S
C338 C339 1.357 . S
C339 C338 1.357 . S
C339 C340 1.406 . S
C340 H314 0.929 . S
C340 C339 1.406 . S
C340 C341 1.391 . S
C341 H313 0.931 . S
C341 C336 1.370 . S
C341 C340 1.391 . S
C342 N311 1.435 . S
C342 C343 1.358 . S
C342 C347 1.371 . S
C343 H315 0.930 . S
C343 C342 1.358 . S
C343 C344 1.405 . S
C344 H316 0.932 . S
C344 C343 1.405 . S
C344 C345 1.383 . S
C345 C344 1.383 . S
C345 C346 1.393 . S
C346 H318 0.931 . S
C346 C345 1.393 . S
C346 C347 1.382 . S
C347 H317 0.929 . S
C347 C342 1.371 . S
C347 C346 1.382 . S
C348 N311 1.423 . S
C348 C349 1.362 . S
C348 C353 1.388 . S
C349 H319 0.929 . S
C349 C348 1.362 . S
C349 C350 1.376 . S
C350 H321 0.931 . S
C350 C349 1.376 . S
C350 C351 1.396 . S
C351 C350 1.396 . S
C351 C352 1.348 . S
C351 C369 1.472 . S
C352 H322 0.929 . S
C352 C351 1.348 . S
C352 C353 1.443 . S
C353 H320 0.932 . S
C353 C348 1.388 . S
C353 C352 1.443 . S
C354 N334 1.433 . S
C354 C355 1.363 . S
C354 C359 1.370 . S
C355 H323 0.929 . S
C355 C354 1.363 . S
C355 C356 1.385 . S
C356 H324 0.930 . S
C356 C355 1.385 . S
C356 C357 1.357 . S
C357 C356 1.357 . S
C357 C358 1.406 . S
C358 H325 0.929 . S
C358 C357 1.406 . S
C358 C359 1.391 . S
C359 H326 0.931 . S
C359 C354 1.370 . S
C359 C358 1.391 . S
C360 N334 1.435 . S
C360 C361 1.358 . S
C360 C365 1.371 . S
C361 H327 0.930 . S
C361 C360 1.358 . S
C361 C362 1.405 . S
C362 H328 0.932 . S
C362 C361 1.405 . S
C362 C363 1.383 . S
C363 C362 1.383 . S
C363 C364 1.393 . S
C364 H329 0.931 . S
C364 C363 1.393 . S
C364 C365 1.382 . S
C365 H330 0.929 . S
C365 C360 1.371 . S
C365 C364 1.382 . S
C366 N334 1.423 . S
C366 C367 1.362 . S
C366 C371 1.388 . S
C367 H331 0.929 . S
C367 C366 1.362 . S
C367 C368 1.376 . S
C368 H332 0.931 . S
C368 C367 1.376 . S
C368 C369 1.396 . S
C369 C351 1.472 . S
C369 C368 1.396 . S
C369 C370 1.348 . S
C370 H333 0.929 . S
C370 C369 1.348 . S
C370 C371 1.443 . S
C371 H335 0.932 . S
C371 C366 1.388 . S
C371 C370 1.443 . S
H372 C399 0.929 . S
N373 C398 1.433 . S
N373 C404 1.435 . S
N373 C410 1.423 . S
H374 C400 0.930 . S
H375 C403 0.931 . S
H376 C402 0.929 . S
H377 C405 0.930 . S
H378 C406 0.932 . S
H379 C409 0.929 . S
H380 C408 0.931 . S
H381 C411 0.929 . S
H382 C415 0.932 . S
H383 C412 0.931 . S
H384 C414 0.929 . S
H385 C417 0.929 . S
H386 C418 0.930 . S
H387 C420 0.929 . S
H388 C421 0.931 . S
H389 C423 0.930 . S
H390 C424 0.932 . S
H391 C426 0.931 . S
H392 C427 0.929 . S
H393 C429 0.929 . S
H394 C430 0.931 . S
H395 C432 0.929 . S
N396 C416 1.433 . S
N396 C422 1.435 . S
N396 C428 1.423 . S
H397 C433 0.932 . S
C398 N373 1.433 . S
C398 C399 1.363 . S
C398 C403 1.370 . S
C399 H372 0.929 . S
C399 C398 1.363 . S
C399 C400 1.385 . S
C400 H374 0.930 . S
C400 C399 1.385 . S
C400 C401 1.357 . S
C401 C400 1.357 . S
C401 C402 1.406 . S
C402 H376 0.929 . S
C402 C401 1.406 . S
C402 C403 1.391 . S
C403 H375 0.931 . S
C403 C398 1.370 . S
C403 C402 1.391 . S
C404 N373 1.435 . S
C404 C405 1.358 . S
C404 C409 1.371 . S
C405 H377 0.930 . S
C405 C404 1.358 . S
C405 C406 1.405 . S
C406 H378 0.932 . S
C406 C405 1.405 . S
C406 C407 1.383 . S
C407 C406 1.383 . S
C407 C408 1.393 . S
C408 H380 0.931 . S
C408 C407 1.393 . S
C408 C409 1.382 . S
C409 H379 0.929 . S
C409 C404 1.371 . S
C409 C408 1.382 . S
C410 N373 1.423 . S
C410 C411 1.362 . S
C410 C415 1.388 . S
C411 H381 0.929 . S
C411 C410 1.362 . S
C411 C412 1.376 . S
C412 H383 0.931 . S
C412 C411 1.376 . S
C412 C413 1.396 . S
C413 C412 1.396 . S
C413 C414 1.348 . S
C413 C431 1.472 . S
C414 H384 0.929 . S
C414 C413 1.348 . S
C414 C415 1.443 . S
C415 H382 0.932 . S
C415 C410 1.388 . S
C415 C414 1.443 . S
C416 N396 1.433 . S
C416 C417 1.363 . S
C416 C421 1.370 . S
C417 H385 0.929 . S
C417 C416 1.363 . S
C417 C418 1.385 . S
C418 H386 0.930 . S
C418 C417 1.385 . S
C418 C419 1.357 . S
C419 C418 1.357 . S
C419 C420 1.406 . S
C420 H387 0.929 . S
C420 C419 1.406 . S
C420 C421 1.391 . S
C421 H388 0.931 . S
C421 C416 1.370 . S
C421 C420 1.391 . S
C422 N396 1.435 . S
C422 C423 1.358 . S
C422 C427 1.371 . S
C423 H389 0.930 . S
C423 C422 1.358 . S
C423 C424 1.405 . S
C424 H390 0.932 . S
C424 C423 1.405 . S
C424 C425 1.383 . S
C425 C424 1.383 . S
C425 C426 1.393 . S
C426 H391 0.931 . S
C426 C425 1.393 . S
C426 C427 1.382 . S
C427 H392 0.929 . S
C427 C422 1.371 . S
C427 C426 1.382 . S
C428 N396 1.423 . S
C428 C429 1.362 . S
C428 C433 1.388 . S
C429 H393 0.929 . S
C429 C428 1.362 . S
C429 C430 1.376 . S
C430 H394 0.931 . S
C430 C429 1.376 . S
C430 C431 1.396 . S
C431 C413 1.472 . S
C431 C430 1.396 . S
C431 C432 1.348 . S
C432 H395 0.929 . S
C432 C431 1.348 . S
C432 C433 1.443 . S
C433 H397 0.932 . S
C433 C428 1.388 . S
C433 C432 1.443 . S
H434 C461 0.929 . S
N435 C460 1.433 . S
N435 C466 1.435 . S
N435 C472 1.423 . S
H436 C462 0.930 . S
H437 C465 0.931 . S
H438 C464 0.929 . S
H439 C467 0.930 . S
H440 C468 0.932 . S
H441 C471 0.929 . S
H442 C470 0.931 . S
H443 C473 0.929 . S
H444 C477 0.932 . S
H445 C474 0.931 . S
H446 C476 0.929 . S
H447 C479 0.929 . S
H448 C480 0.930 . S
H449 C482 0.929 . S
H450 C483 0.931 . S
H451 C485 0.930 . S
H452 C486 0.932 . S
H453 C488 0.931 . S
H454 C489 0.929 . S
H455 C491 0.929 . S
H456 C492 0.931 . S
H457 C494 0.929 . S
N458 C478 1.433 . S
N458 C484 1.435 . S
N458 C490 1.423 . S
H459 C495 0.932 . S
C460 N435 1.433 . S
C460 C461 1.363 . S
C460 C465 1.370 . S
C461 H434 0.929 . S
C461 C460 1.363 . S
C461 C462 1.385 . S
C462 H436 0.930 . S
C462 C461 1.385 . S
C462 C463 1.357 . S
C463 C462 1.357 . S
C463 C464 1.406 . S
C464 H438 0.929 . S
C464 C463 1.406 . S
C464 C465 1.391 . S
C465 H437 0.931 . S
C465 C460 1.370 . S
C465 C464 1.391 . S
C466 N435 1.435 . S
C466 C467 1.358 . S
C466 C471 1.371 . S
C467 H439 0.930 . S
C467 C466 1.358 . S
C467 C468 1.405 . S
C468 H440 0.932 . S
C468 C467 1.405 . S
C468 C469 1.383 . S
C469 C468 1.383 . S
C469 C470 1.393 . S
C470 H442 0.931 . S
C470 C469 1.393 . S
C470 C471 1.382 . S
C471 H441 0.929 . S
C471 C466 1.371 . S
C471 C470 1.382 . S
C472 N435 1.423 . S
C472 C473 1.362 . S
C472 C477 1.388 . S
C473 H443 0.929 . S
C473 C472 1.362 . S
C473 C474 1.376 . S
C474 H445 0.931 . S
C474 C473 1.376 . S
C474 C475 1.396 . S
C475 C474 1.396 . S
C475 C476 1.348 . S
C475 C493 1.472 . S
C476 H446 0.929 . S
C476 C475 1.348 . S
C476 C477 1.443 . S
C477 H444 0.932 . S
C477 C472 1.388 . S
C477 C476 1.443 . S
C478 N458 1.433 . S
C478 C479 1.363 . S
C478 C483 1.370 . S
C479 H447 0.929 . S
C479 C478 1.363 . S
C479 C480 1.385 . S
C480 H448 0.930 . S
C480 C479 1.385 . S
C480 C481 1.357 . S
C481 C480 1.357 . S
C481 C482 1.406 . S
C482 H449 0.929 . S
C482 C481 1.406 . S
C482 C483 1.391 . S
C483 H450 0.931 . S
C483 C478 1.370 . S
C483 C482 1.391 . S
C484 N458 1.435 . S
C484 C485 1.358 . S
C484 C489 1.371 . S
C485 H451 0.930 . S
C485 C484 1.358 . S
C485 C486 1.405 . S
C486 H452 0.932 . S
C486 C485 1.405 . S
C486 C487 1.383 . S
C487 C486 1.383 . S
C487 C488 1.393 . S
C488 H453 0.931 . S
C488 C487 1.393 . S
C488 C489 1.382 . S
C489 H454 0.929 . S
C489 C484 1.371 . S
C489 C488 1.382 . S
C490 N458 1.423 . S
C490 C491 1.362 . S
C490 C495 1.388 . S
C491 H455 0.929 . S
C491 C490 1.362 . S
C491 C492 1.376 . S
C492 H456 0.931 . S
C492 C491 1.376 . S
C492 C493 1.396 . S
C493 C475 1.472 . S
C493 C492 1.396 . S
C493 C494 1.348 . S
C494 H457 0.929 . S
C494 C493 1.348 . S
C494 C495 1.443 . S
C495 H459 0.932 . S
C495 C490 1.388 . S
C495 C494 1.443 . S
C496 O498 1.247 . S
C496 O500 1.258 . S
C497 O504 1.247 . S
C497 O505 1.258 . S
O498 C496 1.247 . S
O498 Zn499 2.028 1_655 S
Zn499 O498 2.028 1_455 S
Zn499 O503 2.035 . S
Zn499 O505 2.035 . S
Zn499 O506 2.028 1_455 S
O500 C496 1.258 . S
O500 Zn501 2.035 1_655 S
Zn501 O500 2.035 1_455 S
Zn501 O502 2.028 . S
Zn501 O504 2.028 . S
Zn501 O507 2.035 1_455 S
O502 Zn501 2.028 . S
O502 C508 1.247 . S
O503 Zn499 2.035 . S
O503 C508 1.258 . S
O504 C497 1.247 . S
O504 Zn501 2.028 . S
O505 C497 1.258 . S
O505 Zn499 2.035 . S
O506 Zn499 2.028 1_655 S
O506 C509 1.247 . S
O507 Zn501 2.035 1_655 S
O507 C509 1.258 . S
C508 O502 1.247 . S
C508 O503 1.258 . S
C509 O506 1.247 . S
C509 O507 1.258 . S
C510 O512 1.247 . S
C510 O514 1.258 . S
C511 O518 1.247 . S
C511 O519 1.258 . S
O512 C510 1.247 . S
O512 Zn513 2.028 . S
Zn513 O512 2.028 . S
Zn513 O517 2.035 1_545 S
Zn513 O519 2.035 1_545 S
Zn513 O520 2.028 . S
O514 C510 1.258 . S
O514 Zn515 2.035 . S
Zn515 O514 2.035 . S
Zn515 O516 2.028 1_545 S
Zn515 O518 2.028 1_545 S
Zn515 O521 2.035 . S
O516 Zn515 2.028 1_565 S
O516 C522 1.247 . S
O517 Zn513 2.035 1_565 S
O517 C522 1.258 . S
O518 C511 1.247 . S
O518 Zn515 2.028 1_565 S
O519 C511 1.258 . S
O519 Zn513 2.035 1_565 S
O520 Zn513 2.028 . S
O520 C523 1.247 . S
O521 Zn515 2.035 . S
O521 C523 1.258 . S
C522 O516 1.247 . S
C522 O517 1.258 . S
C523 O520 1.247 . S
C523 O521 1.258 . S
C524 O526 1.247 . S
C524 O528 1.258 . S
C525 O532 1.247 . S
C525 O533 1.258 . S
O526 C524 1.247 . S
O526 Zn527 2.028 1_655 S
Zn527 O526 2.028 1_455 S
Zn527 O531 2.035 . S
Zn527 O533 2.035 . S
Zn527 O534 2.028 1_455 S
O528 C524 1.258 . S
O528 Zn529 2.035 1_655 S
Zn529 O528 2.035 1_455 S
Zn529 O530 2.028 . S
Zn529 O532 2.028 . S
Zn529 O535 2.035 1_455 S
O530 Zn529 2.028 . S
O530 C536 1.247 . S
O531 Zn527 2.035 . S
O531 C536 1.258 . S
O532 C525 1.247 . S
O532 Zn529 2.028 . S
O533 C525 1.258 . S
O533 Zn527 2.035 . S
O534 Zn527 2.028 1_655 S
O534 C537 1.247 . S
O535 Zn529 2.035 1_655 S
O535 C537 1.258 . S
C536 O530 1.247 . S
C536 O531 1.258 . S
C537 O534 1.247 . S
C537 O535 1.258 . S
C538 O540 1.247 . S
C538 O542 1.258 . S
C539 O546 1.247 . S
C539 O547 1.258 . S
O540 C538 1.247 . S
O540 Zn541 2.028 . S
Zn541 O540 2.028 . S
Zn541 O545 2.035 1_545 S
Zn541 O547 2.035 1_545 S
Zn541 O548 2.028 . S
O542 C538 1.258 . S
O542 Zn543 2.035 . S
Zn543 O542 2.035 . S
Zn543 O544 2.028 1_545 S
Zn543 O546 2.028 1_545 S
Zn543 O549 2.035 . S
O544 Zn543 2.028 1_565 S
O544 C550 1.247 . S
O545 Zn541 2.035 1_565 S
O545 C550 1.258 . S
O546 C539 1.247 . S
O546 Zn543 2.028 1_565 S
O547 C539 1.258 . S
O547 Zn541 2.035 1_565 S
O548 Zn541 2.028 . S
O548 C551 1.247 . S
O549 Zn543 2.035 . S
O549 C551 1.258 . S
C550 O544 1.247 . S
C550 O545 1.258 . S
C551 O548 1.247 . S
C551 O549 1.258 . S
C552 O554 1.247 . S
C552 O556 1.258 . S
C553 O560 1.247 . S
C553 O561 1.258 . S
O554 C552 1.247 . S
O554 Zn555 2.028 . S
Zn555 O554 2.028 . S
Zn555 O559 2.035 . S
Zn555 O561 2.035 1_554 S
Zn555 O562 2.028 1_554 S
O556 C552 1.258 . S
O556 Zn557 2.035 . S
Zn557 O556 2.035 . S
Zn557 O558 2.028 . S
Zn557 O560 2.028 1_554 S
Zn557 O563 2.035 1_554 S
O558 Zn557 2.028 . S
O558 C564 1.247 . S
O559 Zn555 2.035 . S
O559 C564 1.258 . S
O560 C553 1.247 . S
O560 Zn557 2.028 1_556 S
O561 C553 1.258 . S
O561 Zn555 2.035 1_556 S
O562 Zn555 2.028 1_556 S
O562 C565 1.247 . S
O563 Zn557 2.035 1_556 S
O563 C565 1.258 . S
C564 O558 1.247 . S
C564 O559 1.258 . S
C565 O562 1.247 . S
C565 O563 1.258 . S
C566 O568 1.247 . S
C566 O570 1.258 . S
C567 O574 1.247 . S
C567 O575 1.258 . S
O568 C566 1.247 . S
O568 Zn569 2.028 . S
Zn569 O568 2.028 . S
Zn569 O573 2.035 . S
Zn569 O575 2.035 1_554 S
Zn569 O576 2.028 1_554 S
O570 C566 1.258 . S
O570 Zn571 2.035 . S
Zn571 O570 2.035 . S
Zn571 O572 2.028 . S
Zn571 O574 2.028 1_554 S
Zn571 O577 2.035 1_554 S
O572 Zn571 2.028 . S
O572 C578 1.247 . S
O573 Zn569 2.035 . S
O573 C578 1.258 . S
O574 C567 1.247 . S
O574 Zn571 2.028 1_556 S
O575 C567 1.258 . S
O575 Zn569 2.035 1_556 S
O576 Zn569 2.028 1_556 S
O576 C579 1.247 . S
O577 Zn571 2.035 1_556 S
O577 C579 1.258 . S
C578 O572 1.247 . S
C578 O573 1.258 . S
C579 O576 1.247 . S
C579 O577 1.258 . S
C580 O582 1.247 . S
C580 O584 1.258 . S
C581 O588 1.247 . S
C581 O589 1.258 . S
O582 C580 1.247 . S
O582 Zn583 2.028 1_556 S
Zn583 O582 2.028 1_554 S
Zn583 O587 2.035 1_554 S
Zn583 O589 2.035 . S
Zn583 O590 2.028 . S
O584 C580 1.258 . S
O584 Zn585 2.035 1_556 S
Zn585 O584 2.035 1_554 S
Zn585 O586 2.028 1_554 S
Zn585 O588 2.028 . S
Zn585 O591 2.035 . S
O586 Zn585 2.028 1_556 S
O586 C592 1.247 . S
O587 Zn583 2.035 1_556 S
O587 C592 1.258 . S
O588 C581 1.247 . S
O588 Zn585 2.028 . S
O589 C581 1.258 . S
O589 Zn583 2.035 . S
O590 Zn583 2.028 . S
O590 C593 1.247 . S
O591 Zn585 2.035 . S
O591 C593 1.258 . S
C592 O586 1.247 . S
C592 O587 1.258 . S
C593 O590 1.247 . S
C593 O591 1.258 . S
C594 O596 1.247 . S
C594 O598 1.258 . S
C595 O602 1.247 . S
C595 O603 1.258 . S
O596 C594 1.247 . S
O596 Zn597 2.028 . S
Zn597 O596 2.028 . S
Zn597 O601 2.035 . S
Zn597 O603 2.035 1_554 S
Zn597 O604 2.028 1_554 S
O598 C594 1.258 . S
O598 Zn599 2.035 . S
Zn599 O598 2.035 . S
Zn599 O600 2.028 . S
Zn599 O602 2.028 1_554 S
Zn599 O605 2.035 1_554 S
O600 Zn599 2.028 . S
O600 C606 1.247 . S
O601 Zn597 2.035 . S
O601 C606 1.258 . S
O602 C595 1.247 . S
O602 Zn599 2.028 1_556 S
O603 C595 1.258 . S
O603 Zn597 2.035 1_556 S
O604 Zn597 2.028 1_556 S
O604 C607 1.247 . S
O605 Zn599 2.035 1_556 S
O605 C607 1.258 . S
C606 O600 1.247 . S
C606 O601 1.258 . S
C607 O604 1.247 . S
C607 O605 1.258 . S
H608 C626 0.951 . S
H609 C628 0.951 . S
H610 C630 0.950 . S
H611 C631 0.950 . S
H612 C633 0.950 . S
H613 C636 0.950 . S
H614 C637 0.950 . S
H615 C639 0.950 . S
H616 C640 0.950 . S
H617 C641 0.951 . S
H618 C643 0.951 . S
H619 C645 0.950 . S
H620 C646 0.950 . S
H621 C648 0.950 . S
H622 C651 0.950 . S
H623 C652 0.950 . S
H624 C654 0.950 . S
H625 C655 0.950 . S
C626 H608 0.951 . S
C626 C627 1.366 . S
C626 C628 1.388 . S
C627 C626 1.366 . S
C627 C631 1.385 . S
C628 H609 0.951 . S
C628 C626 1.388 . S
C628 C629 1.366 . S
C629 C628 1.366 . S
C629 C630 1.414 . S
C629 C632 1.499 . S
C630 H610 0.950 . S
C630 C629 1.414 . S
C630 C631 1.374 . S
C631 H611 0.950 . S
C631 C627 1.385 . S
C631 C630 1.374 . S
C632 C629 1.499 . S
C632 C633 1.373 . S
C632 C634 1.389 . S
C633 H612 0.950 . S
C633 C632 1.373 . S
C633 C649 1.377 . S
C634 C632 1.389 . S
C634 C635 1.524 . S
C634 C648 1.377 . S
C635 C634 1.524 . S
C635 C636 1.397 . S
C635 C640 1.363 . S
C636 H613 0.950 . S
C636 C635 1.397 . S
C636 C637 1.334 . S
C637 H614 0.950 . S
C637 C636 1.334 . S
C637 C638 1.287 . S
C638 C637 1.287 . S
C638 C639 1.524 . S
C638 H657 0.913 . S
C639 H615 0.950 . S
C639 C638 1.524 . S
C639 C640 1.415 . S
C640 H616 0.950 . S
C640 C635 1.363 . S
C640 C639 1.415 . S
C641 H617 0.951 . S
C641 C642 1.366 . S
C641 C643 1.388 . S
C642 C641 1.366 . S
C642 C646 1.385 . S
C643 H618 0.951 . S
C643 C641 1.388 . S
C643 C644 1.366 . S
C644 C643 1.366 . S
C644 C645 1.414 . S
C644 C647 1.499 . S
C645 H619 0.950 . S
C645 C644 1.414 . S
C645 C646 1.374 . S
C646 H620 0.950 . S
C646 C642 1.385 . S
C646 C645 1.374 . S
C647 C644 1.499 . S
C647 C648 1.373 . S
C647 C649 1.389 . S
C648 H621 0.950 . S
C648 C634 1.377 . S
C648 C647 1.373 . S
C649 C633 1.377 . S
C649 C647 1.389 . S
C649 C650 1.524 . S
C650 C649 1.524 . S
C650 C651 1.397 . S
C650 C655 1.363 . S
C651 H622 0.950 . S
C651 C650 1.397 . S
C651 C652 1.334 . S
C652 H623 0.950 . S
C652 C651 1.334 . S
C652 C653 1.287 . S
C653 C652 1.287 . S
C653 C654 1.524 . S
C653 H656 0.999 . S
C654 H624 0.950 . S
C654 C653 1.524 . S
C654 C655 1.415 . S
C655 H625 0.950 . S
C655 C650 1.363 . S
C655 C654 1.415 . S
H656 C653 0.999 . S
H657 C638 0.913 . S
H658 C676 0.951 . S
H659 C678 0.951 . S
H660 C680 0.950 . S
H661 C681 0.950 . S
H662 C683 0.950 . S
H663 C686 0.950 . S
H664 C687 0.950 . S
H665 C689 0.950 . S
H666 C690 0.950 . S
H667 C691 0.951 . S
H668 C693 0.951 . S
H669 C695 0.950 . S
H670 C696 0.950 . S
H671 C698 0.950 . S
H672 C701 0.950 . S
H673 C702 0.950 . S
H674 C704 0.950 . S
H675 C705 0.950 . S
C676 H658 0.951 . S
C676 C677 1.366 . S
C676 C678 1.388 . S
C677 C676 1.366 . S
C677 C681 1.385 . S
C678 H659 0.951 . S
C678 C676 1.388 . S
C678 C679 1.366 . S
C679 C678 1.366 . S
C679 C680 1.414 . S
C679 C682 1.499 . S
C680 H660 0.950 . S
C680 C679 1.414 . S
C680 C681 1.374 . S
C681 H661 0.950 . S
C681 C677 1.385 . S
C681 C680 1.374 . S
C682 C679 1.499 . S
C682 C683 1.373 . S
C682 C684 1.389 . S
C683 H662 0.950 . S
C683 C682 1.373 . S
C683 C699 1.377 . S
C684 C682 1.389 . S
C684 C685 1.524 . S
C684 C698 1.377 . S
C685 C684 1.524 . S
C685 C686 1.397 . S
C685 C690 1.363 . S
C686 H663 0.950 . S
C686 C685 1.397 . S
C686 C687 1.334 . S
C687 H664 0.950 . S
C687 C686 1.334 . S
C687 C688 1.287 . S
C688 C687 1.287 . S
C688 C689 1.524 . S
C688 H707 0.913 . S
C689 H665 0.950 . S
C689 C688 1.524 . S
C689 C690 1.415 . S
C690 H666 0.950 . S
C690 C685 1.363 . S
C690 C689 1.415 . S
C691 H667 0.951 . S
C691 C692 1.366 . S
C691 C693 1.388 . S
C692 C691 1.366 . S
C692 C696 1.385 . S
C693 H668 0.951 . S
C693 C691 1.388 . S
C693 C694 1.366 . S
C694 C693 1.366 . S
C694 C695 1.414 . S
C694 C697 1.499 . S
C695 H669 0.950 . S
C695 C694 1.414 . S
C695 C696 1.374 . S
C696 H670 0.950 . S
C696 C692 1.385 . S
C696 C695 1.374 . S
C697 C694 1.499 . S
C697 C698 1.373 . S
C697 C699 1.389 . S
C698 H671 0.950 . S
C698 C684 1.377 . S
C698 C697 1.373 . S
C699 C683 1.377 . S
C699 C697 1.389 . S
C699 C700 1.524 . S
C700 C699 1.524 . S
C700 C701 1.397 . S
C700 C705 1.363 . S
C701 H672 0.950 . S
C701 C700 1.397 . S
C701 C702 1.334 . S
C702 H673 0.950 . S
C702 C701 1.334 . S
C702 C703 1.287 . S
C703 C702 1.287 . S
C703 C704 1.524 . S
C703 H706 0.999 . S
C704 H674 0.950 . S
C704 C703 1.524 . S
C704 C705 1.415 . S
C705 H675 0.950 . S
C705 C700 1.363 . S
C705 C704 1.415 . S
H706 C703 0.999 . S
H707 C688 0.913 . S
H708 C726 0.951 . S
H709 C728 0.951 . S
H710 C730 0.950 . S
H711 C731 0.950 . S
H712 C733 0.950 . S
H713 C736 0.950 . S
H714 C737 0.950 . S
H715 C739 0.950 . S
H716 C740 0.950 . S
H717 C741 0.951 . S
H718 C743 0.951 . S
H719 C745 0.950 . S
H720 C746 0.950 . S
H721 C748 0.950 . S
H722 C751 0.950 . S
H723 C752 0.950 . S
H724 C754 0.950 . S
H725 C755 0.950 . S
C726 H708 0.951 . S
C726 C727 1.366 . S
C726 C728 1.388 . S
C727 C726 1.366 . S
C727 C731 1.385 . S
C728 H709 0.951 . S
C728 C726 1.388 . S
C728 C729 1.366 . S
C729 C728 1.366 . S
C729 C730 1.414 . S
C729 C732 1.499 . S
C730 H710 0.950 . S
C730 C729 1.414 . S
C730 C731 1.374 . S
C731 H711 0.950 . S
C731 C727 1.385 . S
C731 C730 1.374 . S
C732 C729 1.499 . S
C732 C733 1.373 . S
C732 C734 1.389 . S
C733 H712 0.950 . S
C733 C732 1.373 . S
C733 C749 1.377 . S
C734 C732 1.389 . S
C734 C735 1.524 . S
C734 C748 1.377 . S
C735 C734 1.524 . S
C735 C736 1.397 . S
C735 C740 1.363 . S
C736 H713 0.950 . S
C736 C735 1.397 . S
C736 C737 1.334 . S
C737 H714 0.950 . S
C737 C736 1.334 . S
C737 C738 1.287 . S
C738 C737 1.287 . S
C738 C739 1.524 . S
C738 H757 0.913 . S
C739 H715 0.950 . S
C739 C738 1.524 . S
C739 C740 1.415 . S
C740 H716 0.950 . S
C740 C735 1.363 . S
C740 C739 1.415 . S
C741 H717 0.951 . S
C741 C742 1.366 . S
C741 C743 1.388 . S
C742 C741 1.366 . S
C742 C746 1.385 . S
C743 H718 0.951 . S
C743 C741 1.388 . S
C743 C744 1.366 . S
C744 C743 1.366 . S
C744 C745 1.414 . S
C744 C747 1.499 . S
C745 H719 0.950 . S
C745 C744 1.414 . S
C745 C746 1.374 . S
C746 H720 0.950 . S
C746 C742 1.385 . S
C746 C745 1.374 . S
C747 C744 1.499 . S
C747 C748 1.373 . S
C747 C749 1.389 . S
C748 H721 0.950 . S
C748 C734 1.377 . S
C748 C747 1.373 . S
C749 C733 1.377 . S
C749 C747 1.389 . S
C749 C750 1.524 . S
C750 C749 1.524 . S
C750 C751 1.397 . S
C750 C755 1.363 . S
C751 H722 0.950 . S
C751 C750 1.397 . S
C751 C752 1.334 . S
C752 H723 0.950 . S
C752 C751 1.334 . S
C752 C753 1.287 . S
C753 C752 1.287 . S
C753 C754 1.524 . S
C753 H756 0.999 . S
C754 H724 0.950 . S
C754 C753 1.524 . S
C754 C755 1.415 . S
C755 H725 0.950 . S
C755 C750 1.363 . S
C755 C754 1.415 . S
H756 C753 0.999 . S
H757 C738 0.913 . S
H758 C776 0.951 . S
H759 C778 0.951 . S
H760 C780 0.950 . S
H761 C781 0.950 . S
H762 C783 0.950 . S
H763 C786 0.950 . S
H764 C787 0.950 . S
H765 C789 0.950 . S
H766 C790 0.950 . S
H767 C791 0.951 . S
H768 C793 0.951 . S
H769 C795 0.950 . S
H770 C796 0.950 . S
H771 C798 0.950 . S
H772 C801 0.950 . S
H773 C802 0.950 . S
H774 C804 0.950 . S
H775 C805 0.950 . S
C776 H758 0.951 . S
C776 C777 1.366 . S
C776 C778 1.388 . S
C777 C776 1.366 . S
C777 C781 1.385 . S
C778 H759 0.951 . S
C778 C776 1.388 . S
C778 C779 1.366 . S
C779 C778 1.366 . S
C779 C780 1.414 . S
C779 C782 1.499 . S
C780 H760 0.950 . S
C780 C779 1.414 . S
C780 C781 1.374 . S
C781 H761 0.950 . S
C781 C777 1.385 . S
C781 C780 1.374 . S
C782 C779 1.499 . S
C782 C783 1.373 . S
C782 C784 1.389 . S
C783 H762 0.950 . S
C783 C782 1.373 . S
C783 C799 1.377 . S
C784 C782 1.389 . S
C784 C785 1.524 . S
C784 C798 1.377 . S
C785 C784 1.524 . S
C785 C786 1.397 . S
C785 C790 1.363 . S
C786 H763 0.950 . S
C786 C785 1.397 . S
C786 C787 1.334 . S
C787 H764 0.950 . S
C787 C786 1.334 . S
C787 C788 1.287 . S
C788 C787 1.287 . S
C788 C789 1.524 . S
C788 H807 0.913 . S
C789 H765 0.950 . S
C789 C788 1.524 . S
C789 C790 1.415 . S
C790 H766 0.950 . S
C790 C785 1.363 . S
C790 C789 1.415 . S
C791 H767 0.951 . S
C791 C792 1.366 . S
C791 C793 1.388 . S
C792 C791 1.366 . S
C792 C796 1.385 . S
C793 H768 0.951 . S
C793 C791 1.388 . S
C793 C794 1.366 . S
C794 C793 1.366 . S
C794 C795 1.414 . S
C794 C797 1.499 . S
C795 H769 0.950 . S
C795 C794 1.414 . S
C795 C796 1.374 . S
C796 H770 0.950 . S
C796 C792 1.385 . S
C796 C795 1.374 . S
C797 C794 1.499 . S
C797 C798 1.373 . S
C797 C799 1.389 . S
C798 H771 0.950 . S
C798 C784 1.377 . S
C798 C797 1.373 . S
C799 C783 1.377 . S
C799 C797 1.389 . S
C799 C800 1.524 . S
C800 C799 1.524 . S
C800 C801 1.397 . S
C800 C805 1.363 . S
C801 H772 0.950 . S
C801 C800 1.397 . S
C801 C802 1.334 . S
C802 H773 0.950 . S
C802 C801 1.334 . S
C802 C803 1.287 . S
C803 C802 1.287 . S
C803 C804 1.524 . S
C803 H806 0.999 . S
C804 H774 0.950 . S
C804 C803 1.524 . S
C804 C805 1.415 . S
C805 H775 0.950 . S
C805 C800 1.363 . S
C805 C804 1.415 . S
H806 C803 0.999 . S
H807 C788 0.913 . S
H808 C826 0.951 . S
H809 C828 0.951 . S
H810 C830 0.950 . S
H811 C831 0.950 . S
H812 C833 0.950 . S
H813 C836 0.950 . S
H814 C837 0.950 . S
H815 C839 0.950 . S
H816 C840 0.950 . S
H817 C841 0.951 . S
H818 C843 0.951 . S
H819 C845 0.950 . S
H820 C846 0.950 . S
H821 C848 0.950 . S
H822 C851 0.950 . S
H823 C852 0.950 . S
H824 C854 0.950 . S
H825 C855 0.950 . S
C826 H808 0.951 . S
C826 C827 1.366 . S
C826 C828 1.388 . S
C827 C826 1.366 . S
C827 C831 1.385 . S
C828 H809 0.951 . S
C828 C826 1.388 . S
C828 C829 1.366 . S
C829 C828 1.366 . S
C829 C830 1.414 . S
C829 C832 1.499 . S
C830 H810 0.950 . S
C830 C829 1.414 . S
C830 C831 1.374 . S
C831 H811 0.950 . S
C831 C827 1.385 . S
C831 C830 1.374 . S
C832 C829 1.499 . S
C832 C833 1.373 . S
C832 C834 1.389 . S
C833 H812 0.950 . S
C833 C832 1.373 . S
C833 C849 1.377 . S
C834 C832 1.389 . S
C834 C835 1.524 . S
C834 C848 1.377 . S
C835 C834 1.524 . S
C835 C836 1.397 . S
C835 C840 1.363 . S
C836 H813 0.950 . S
C836 C835 1.397 . S
C836 C837 1.334 . S
C837 H814 0.950 . S
C837 C836 1.334 . S
C837 C838 1.287 . S
C838 C837 1.287 . S
C838 C839 1.524 . S
C838 H857 0.913 . S
C839 H815 0.950 . S
C839 C838 1.524 . S
C839 C840 1.415 . S
C840 H816 0.950 . S
C840 C835 1.363 . S
C840 C839 1.415 . S
C841 H817 0.951 . S
C841 C842 1.366 . S
C841 C843 1.388 . S
C842 C841 1.366 . S
C842 C846 1.385 . S
C843 H818 0.951 . S
C843 C841 1.388 . S
C843 C844 1.366 . S
C844 C843 1.366 . S
C844 C845 1.414 . S
C844 C847 1.499 . S
C845 H819 0.950 . S
C845 C844 1.414 . S
C845 C846 1.374 . S
C846 H820 0.950 . S
C846 C842 1.385 . S
C846 C845 1.374 . S
C847 C844 1.499 . S
C847 C848 1.373 . S
C847 C849 1.389 . S
C848 H821 0.950 . S
C848 C834 1.377 . S
C848 C847 1.373 . S
C849 C833 1.377 . S
C849 C847 1.389 . S
C849 C850 1.524 . S
C850 C849 1.524 . S
C850 C851 1.397 . S
C850 C855 1.363 . S
C851 H822 0.950 . S
C851 C850 1.397 . S
C851 C852 1.334 . S
C852 H823 0.950 . S
C852 C851 1.334 . S
C852 C853 1.287 . S
C853 C852 1.287 . S
C853 C854 1.524 . S
C853 H856 0.999 . S
C854 H824 0.950 . S
C854 C853 1.524 . S
C854 C855 1.415 . S
C855 H825 0.950 . S
C855 C850 1.363 . S
C855 C854 1.415 . S
H856 C853 0.999 . S
H857 C838 0.913 . S
H858 C876 0.951 . S
H859 C878 0.951 . S
H860 C880 0.950 . S
H861 C881 0.950 . S
H862 C883 0.950 . S
H863 C886 0.950 . S
H864 C887 0.950 . S
H865 C889 0.950 . S
H866 C890 0.950 . S
H867 C891 0.951 . S
H868 C893 0.951 . S
H869 C895 0.950 . S
H870 C896 0.950 . S
H871 C898 0.950 . S
H872 C901 0.950 . S
H873 C902 0.950 . S
H874 C904 0.950 . S
H875 C905 0.950 . S
C876 H858 0.951 . S
C876 C877 1.366 . S
C876 C878 1.388 . S
C877 C876 1.366 . S
C877 C881 1.385 . S
C878 H859 0.951 . S
C878 C876 1.388 . S
C878 C879 1.366 . S
C879 C878 1.366 . S
C879 C880 1.414 . S
C879 C882 1.499 . S
C880 H860 0.950 . S
C880 C879 1.414 . S
C880 C881 1.374 . S
C881 H861 0.950 . S
C881 C877 1.385 . S
C881 C880 1.374 . S
C882 C879 1.499 . S
C882 C883 1.373 . S
C882 C884 1.389 . S
C883 H862 0.950 . S
C883 C882 1.373 . S
C883 C899 1.377 . S
C884 C882 1.389 . S
C884 C885 1.524 . S
C884 C898 1.377 . S
C885 C884 1.524 . S
C885 C886 1.397 . S
C885 C890 1.363 . S
C886 H863 0.950 . S
C886 C885 1.397 . S
C886 C887 1.334 . S
C887 H864 0.950 . S
C887 C886 1.334 . S
C887 C888 1.287 . S
C888 C887 1.287 . S
C888 C889 1.524 . S
C888 H907 0.913 . S
C889 H865 0.950 . S
C889 C888 1.524 . S
C889 C890 1.415 . S
C890 H866 0.950 . S
C890 C885 1.363 . S
C890 C889 1.415 . S
C891 H867 0.951 . S
C891 C892 1.366 . S
C891 C893 1.388 . S
C892 C891 1.366 . S
C892 C896 1.385 . S
C893 H868 0.951 . S
C893 C891 1.388 . S
C893 C894 1.366 . S
C894 C893 1.366 . S
C894 C895 1.414 . S
C894 C897 1.499 . S
C895 H869 0.950 . S
C895 C894 1.414 . S
C895 C896 1.374 . S
C896 H870 0.950 . S
C896 C892 1.385 . S
C896 C895 1.374 . S
C897 C894 1.499 . S
C897 C898 1.373 . S
C897 C899 1.389 . S
C898 H871 0.950 . S
C898 C884 1.377 . S
C898 C897 1.373 . S
C899 C883 1.377 . S
C899 C897 1.389 . S
C899 C900 1.524 . S
C900 C899 1.524 . S
C900 C901 1.397 . S
C900 C905 1.363 . S
C901 H872 0.950 . S
C901 C900 1.397 . S
C901 C902 1.334 . S
C902 H873 0.950 . S
C902 C901 1.334 . S
C902 C903 1.287 . S
C903 C902 1.287 . S
C903 C904 1.524 . S
C903 H906 0.999 . S
C904 H874 0.950 . S
C904 C903 1.524 . S
C904 C905 1.415 . S
C905 H875 0.950 . S
C905 C900 1.363 . S
C905 C904 1.415 . S
H906 C903 0.999 . S
H907 C888 0.913 . S
H908 C926 0.951 . S
H909 C928 0.951 . S
H910 C930 0.950 . S
H911 C931 0.950 . S
H912 C933 0.950 . S
H913 C936 0.950 . S
H914 C937 0.950 . S
H915 C939 0.950 . S
H916 C940 0.950 . S
H917 C941 0.951 . S
H918 C943 0.951 . S
H919 C945 0.950 . S
H920 C946 0.950 . S
H921 C948 0.950 . S
H922 C951 0.950 . S
H923 C952 0.950 . S
H924 C954 0.950 . S
H925 C955 0.950 . S
C926 H908 0.951 . S
C926 C927 1.366 . S
C926 C928 1.388 . S
C927 C926 1.366 . S
C927 C931 1.385 . S
C928 H909 0.951 . S
C928 C926 1.388 . S
C928 C929 1.366 . S
C929 C928 1.366 . S
C929 C930 1.414 . S
C929 C932 1.499 . S
C930 H910 0.950 . S
C930 C929 1.414 . S
C930 C931 1.374 . S
C931 H911 0.950 . S
C931 C927 1.385 . S
C931 C930 1.374 . S
C932 C929 1.499 . S
C932 C933 1.373 . S
C932 C934 1.389 . S
C933 H912 0.950 . S
C933 C932 1.373 . S
C933 C949 1.377 . S
C934 C932 1.389 . S
C934 C935 1.524 . S
C934 C948 1.377 . S
C935 C934 1.524 . S
C935 C936 1.397 . S
C935 C940 1.363 . S
C936 H913 0.950 . S
C936 C935 1.397 . S
C936 C937 1.334 . S
C937 H914 0.950 . S
C937 C936 1.334 . S
C937 C938 1.287 . S
C938 C937 1.287 . S
C938 C939 1.524 . S
C938 H957 0.913 . S
C939 H915 0.950 . S
C939 C938 1.524 . S
C939 C940 1.415 . S
C940 H916 0.950 . S
C940 C935 1.363 . S
C940 C939 1.415 . S
C941 H917 0.951 . S
C941 C942 1.366 . S
C941 C943 1.388 . S
C942 C941 1.366 . S
C942 C946 1.385 . S
C943 H918 0.951 . S
C943 C941 1.388 . S
C943 C944 1.366 . S
C944 C943 1.366 . S
C944 C945 1.414 . S
C944 C947 1.499 . S
C945 H919 0.950 . S
C945 C944 1.414 . S
C945 C946 1.374 . S
C946 H920 0.950 . S
C946 C942 1.385 . S
C946 C945 1.374 . S
C947 C944 1.499 . S
C947 C948 1.373 . S
C947 C949 1.389 . S
C948 H921 0.950 . S
C948 C934 1.377 . S
C948 C947 1.373 . S
C949 C933 1.377 . S
C949 C947 1.389 . S
C949 C950 1.524 . S
C950 C949 1.524 . S
C950 C951 1.397 . S
C950 C955 1.363 . S
C951 H922 0.950 . S
C951 C950 1.397 . S
C951 C952 1.334 . S
C952 H923 0.950 . S
C952 C951 1.334 . S
C952 C953 1.287 . S
C953 C952 1.287 . S
C953 C954 1.524 . S
C953 H956 0.999 . S
C954 H924 0.950 . S
C954 C953 1.524 . S
C954 C955 1.415 . S
C955 H925 0.950 . S
C955 C950 1.363 . S
C955 C954 1.415 . S
H956 C953 0.999 . S
H957 C938 0.913 . S
H958 C976 0.951 . S
H959 C978 0.951 . S
H960 C980 0.950 . S
H961 C981 0.950 . S
H962 C983 0.950 . S
H963 C986 0.950 . S
H964 C987 0.950 . S
H965 C989 0.950 . S
H966 C990 0.950 . S
H967 C991 0.951 . S
H968 C993 0.951 . S
H969 C995 0.950 . S
H970 C996 0.950 . S
H971 C998 0.950 . S
H972 C1001 0.950 . S
H973 C1002 0.950 . S
H974 C1004 0.950 . S
H975 C1005 0.950 . S
C976 H958 0.951 . S
C976 C977 1.366 . S
C976 C978 1.388 . S
C977 C976 1.366 . S
C977 C981 1.385 . S
C978 H959 0.951 . S
C978 C976 1.388 . S
C978 C979 1.366 . S
C979 C978 1.366 . S
C979 C980 1.414 . S
C979 C982 1.499 . S
C980 H960 0.950 . S
C980 C979 1.414 . S
C980 C981 1.374 . S
C981 H961 0.950 . S
C981 C977 1.385 . S
C981 C980 1.374 . S
C982 C979 1.499 . S
C982 C983 1.373 . S
C982 C984 1.389 . S
C983 H962 0.950 . S
C983 C982 1.373 . S
C983 C999 1.377 . S
C984 C982 1.389 . S
C984 C985 1.524 . S
C984 C998 1.377 . S
C985 C984 1.524 . S
C985 C986 1.397 . S
C985 C990 1.363 . S
C986 H963 0.950 . S
C986 C985 1.397 . S
C986 C987 1.334 . S
C987 H964 0.950 . S
C987 C986 1.334 . S
C987 C988 1.287 . S
C988 C987 1.287 . S
C988 C989 1.524 . S
C988 H1007 0.913 . S
C989 H965 0.950 . S
C989 C988 1.524 . S
C989 C990 1.415 . S
C990 H966 0.950 . S
C990 C985 1.363 . S
C990 C989 1.415 . S
C991 H967 0.951 . S
C991 C992 1.366 . S
C991 C993 1.388 . S
C992 C991 1.366 . S
C992 C996 1.385 . S
C993 H968 0.951 . S
C993 C991 1.388 . S
C993 C994 1.366 . S
C994 C993 1.366 . S
C994 C995 1.414 . S
C994 C997 1.499 . S
C995 H969 0.950 . S
C995 C994 1.414 . S
C995 C996 1.374 . S
C996 H970 0.950 . S
C996 C992 1.385 . S
C996 C995 1.374 . S
C997 C994 1.499 . S
C997 C998 1.373 . S
C997 C999 1.389 . S
C998 H971 0.950 . S
C998 C984 1.377 . S
C998 C997 1.373 . S
C999 C983 1.377 . S
C999 C997 1.389 . S
C999 C1000 1.524 . S
C1000 C999 1.524 . S
C1000 C1001 1.397 . S
C1000 C1005 1.363 . S
C1001 H972 0.950 . S
C1001 C1000 1.397 . S
C1001 C1002 1.334 . S
C1002 H973 0.950 . S
C1002 C1001 1.334 . S
C1002 C1003 1.287 . S
C1003 C1002 1.287 . S
C1003 C1004 1.524 . S
C1003 H1006 0.999 . S
C1004 H974 0.950 . S
C1004 C1003 1.524 . S
C1004 C1005 1.415 . S
C1005 H975 0.950 . S
C1005 C1000 1.363 . S
C1005 C1004 1.415 . S
H1006 C1003 0.999 . S
H1007 C988 0.913 . S
H1008 C1026 0.951 . S
H1009 C1028 0.951 . S
H1010 C1030 0.950 . S
H1011 C1031 0.950 . S
H1012 C1033 0.950 . S
H1013 C1036 0.950 . S
H1014 C1037 0.950 . S
H1015 C1039 0.950 . S
H1016 C1040 0.950 . S
H1017 C1041 0.951 . S
H1018 C1043 0.951 . S
H1019 C1045 0.950 . S
H1020 C1046 0.950 . S
H1021 C1048 0.950 . S
H1022 C1051 0.950 . S
H1023 C1052 0.950 . S
H1024 C1054 0.950 . S
H1025 C1055 0.950 . S
C1026 H1008 0.951 . S
C1026 C1027 1.366 . S
C1026 C1028 1.388 . S
C1027 C1026 1.366 . S
C1027 C1031 1.385 . S
C1028 H1009 0.951 . S
C1028 C1026 1.388 . S
C1028 C1029 1.366 . S
C1029 C1028 1.366 . S
C1029 C1030 1.414 . S
C1029 C1032 1.499 . S
C1030 H1010 0.950 . S
C1030 C1029 1.414 . S
C1030 C1031 1.374 . S
C1031 H1011 0.950 . S
C1031 C1027 1.385 . S
C1031 C1030 1.374 . S
C1032 C1029 1.499 . S
C1032 C1033 1.373 . S
C1032 C1034 1.389 . S
C1033 H1012 0.950 . S
C1033 C1032 1.373 . S
C1033 C1049 1.377 . S
C1034 C1032 1.389 . S
C1034 C1035 1.524 . S
C1034 C1048 1.377 . S
C1035 C1034 1.524 . S
C1035 C1036 1.397 . S
C1035 C1040 1.363 . S
C1036 H1013 0.950 . S
C1036 C1035 1.397 . S
C1036 C1037 1.334 . S
C1037 H1014 0.950 . S
C1037 C1036 1.334 . S
C1037 C1038 1.287 . S
C1038 C1037 1.287 . S
C1038 C1039 1.524 . S
C1038 H1057 0.913 . S
C1039 H1015 0.950 . S
C1039 C1038 1.524 . S
C1039 C1040 1.415 . S
C1040 H1016 0.950 . S
C1040 C1035 1.363 . S
C1040 C1039 1.415 . S
C1041 H1017 0.951 . S
C1041 C1042 1.366 . S
C1041 C1043 1.388 . S
C1042 C1041 1.366 . S
C1042 C1046 1.385 . S
C1043 H1018 0.951 . S
C1043 C1041 1.388 . S
C1043 C1044 1.366 . S
C1044 C1043 1.366 . S
C1044 C1045 1.414 . S
C1044 C1047 1.499 . S
C1045 H1019 0.950 . S
C1045 C1044 1.414 . S
C1045 C1046 1.374 . S
C1046 H1020 0.950 . S
C1046 C1042 1.385 . S
C1046 C1045 1.374 . S
C1047 C1044 1.499 . S
C1047 C1048 1.373 . S
C1047 C1049 1.389 . S
C1048 H1021 0.950 . S
C1048 C1034 1.377 . S
C1048 C1047 1.373 . S
C1049 C1033 1.377 . S
C1049 C1047 1.389 . S
C1049 C1050 1.524 . S
C1050 C1049 1.524 . S
C1050 C1051 1.397 . S
C1050 C1055 1.363 . S
C1051 H1022 0.950 . S
C1051 C1050 1.397 . S
C1051 C1052 1.334 . S
C1052 H1023 0.950 . S
C1052 C1051 1.334 . S
C1052 C1053 1.287 . S
C1053 C1052 1.287 . S
C1053 C1054 1.524 . S
C1053 H1056 0.999 . S
C1054 H1024 0.950 . S
C1054 C1053 1.524 . S
C1054 C1055 1.415 . S
C1055 H1025 0.950 . S
C1055 C1050 1.363 . S
C1055 C1054 1.415 . S
H1056 C1053 0.999 . S
H1057 C1038 0.913 . S
H1058 C1076 0.951 . S
H1059 C1078 0.951 . S
H1060 C1080 0.950 . S
H1061 C1081 0.950 . S
H1062 C1083 0.950 . S
H1063 C1086 0.950 . S
H1064 C1087 0.950 . S
H1065 C1089 0.950 . S
H1066 C1090 0.950 . S
H1067 C1091 0.951 . S
H1068 C1093 0.951 . S
H1069 C1095 0.950 . S
H1070 C1096 0.950 . S
H1071 C1098 0.950 . S
H1072 C1101 0.950 . S
H1073 C1102 0.950 . S
H1074 C1104 0.950 . S
H1075 C1105 0.950 . S
C1076 H1058 0.951 . S
C1076 C1077 1.366 . S
C1076 C1078 1.388 . S
C1077 C1076 1.366 . S
C1077 C1081 1.385 . S
C1078 H1059 0.951 . S
C1078 C1076 1.388 . S
C1078 C1079 1.366 . S
C1079 C1078 1.366 . S
C1079 C1080 1.414 . S
C1079 C1082 1.499 . S
C1080 H1060 0.950 . S
C1080 C1079 1.414 . S
C1080 C1081 1.374 . S
C1081 H1061 0.950 . S
C1081 C1077 1.385 . S
C1081 C1080 1.374 . S
C1082 C1079 1.499 . S
C1082 C1083 1.373 . S
C1082 C1084 1.389 . S
C1083 H1062 0.950 . S
C1083 C1082 1.373 . S
C1083 C1099 1.377 . S
C1084 C1082 1.389 . S
C1084 C1085 1.524 . S
C1084 C1098 1.377 . S
C1085 C1084 1.524 . S
C1085 C1086 1.397 . S
C1085 C1090 1.363 . S
C1086 H1063 0.950 . S
C1086 C1085 1.397 . S
C1086 C1087 1.334 . S
C1087 H1064 0.950 . S
C1087 C1086 1.334 . S
C1087 C1088 1.287 . S
C1088 C1087 1.287 . S
C1088 C1089 1.524 . S
C1088 H1107 0.913 . S
C1089 H1065 0.950 . S
C1089 C1088 1.524 . S
C1089 C1090 1.415 . S
C1090 H1066 0.950 . S
C1090 C1085 1.363 . S
C1090 C1089 1.415 . S
C1091 H1067 0.951 . S
C1091 C1092 1.366 . S
C1091 C1093 1.388 . S
C1092 C1091 1.366 . S
C1092 C1096 1.385 . S
C1093 H1068 0.951 . S
C1093 C1091 1.388 . S
C1093 C1094 1.366 . S
C1094 C1093 1.366 . S
C1094 C1095 1.414 . S
C1094 C1097 1.499 . S
C1095 H1069 0.950 . S
C1095 C1094 1.414 . S
C1095 C1096 1.374 . S
C1096 H1070 0.950 . S
C1096 C1092 1.385 . S
C1096 C1095 1.374 . S
C1097 C1094 1.499 . S
C1097 C1098 1.373 . S
C1097 C1099 1.389 . S
C1098 H1071 0.950 . S
C1098 C1084 1.377 . S
C1098 C1097 1.373 . S
C1099 C1083 1.377 . S
C1099 C1097 1.389 . S
C1099 C1100 1.524 . S
C1100 C1099 1.524 . S
C1100 C1101 1.397 . S
C1100 C1105 1.363 . S
C1101 H1072 0.950 . S
C1101 C1100 1.397 . S
C1101 C1102 1.334 . S
C1102 H1073 0.950 . S
C1102 C1101 1.334 . S
C1102 C1103 1.287 . S
C1103 C1102 1.287 . S
C1103 C1104 1.524 . S
C1103 H1106 0.999 . S
C1104 H1074 0.950 . S
C1104 C1103 1.524 . S
C1104 C1105 1.415 . S
C1105 H1075 0.950 . S
C1105 C1100 1.363 . S
C1105 C1104 1.415 . S
H1106 C1103 0.999 . S
H1107 C1088 0.913 . S
H1108 C1126 0.951 . S
H1109 C1128 0.951 . S
H1110 C1130 0.950 . S
H1111 C1131 0.950 . S
H1112 C1133 0.950 . S
H1113 C1136 0.950 . S
H1114 C1137 0.950 . S
H1115 C1139 0.950 . S
H1116 C1140 0.950 . S
H1117 C1141 0.951 . S
H1118 C1143 0.951 . S
H1119 C1145 0.950 . S
H1120 C1146 0.950 . S
H1121 C1148 0.950 . S
H1122 C1151 0.950 . S
H1123 C1152 0.950 . S
H1124 C1154 0.950 . S
H1125 C1155 0.950 . S
C1126 H1108 0.951 . S
C1126 C1127 1.366 . S
C1126 C1128 1.388 . S
C1127 C1126 1.366 . S
C1127 C1131 1.385 . S
C1128 H1109 0.951 . S
C1128 C1126 1.388 . S
C1128 C1129 1.366 . S
C1129 C1128 1.366 . S
C1129 C1130 1.414 . S
C1129 C1132 1.499 . S
C1130 H1110 0.950 . S
C1130 C1129 1.414 . S
C1130 C1131 1.374 . S
C1131 H1111 0.950 . S
C1131 C1127 1.385 . S
C1131 C1130 1.374 . S
C1132 C1129 1.499 . S
C1132 C1133 1.373 . S
C1132 C1134 1.389 . S
C1133 H1112 0.950 . S
C1133 C1132 1.373 . S
C1133 C1149 1.377 . S
C1134 C1132 1.389 . S
C1134 C1135 1.524 . S
C1134 C1148 1.377 . S
C1135 C1134 1.524 . S
C1135 C1136 1.397 . S
C1135 C1140 1.363 . S
C1136 H1113 0.950 . S
C1136 C1135 1.397 . S
C1136 C1137 1.334 . S
C1137 H1114 0.950 . S
C1137 C1136 1.334 . S
C1137 C1138 1.287 . S
C1138 C1137 1.287 . S
C1138 C1139 1.524 . S
C1138 H1157 0.913 . S
C1139 H1115 0.950 . S
C1139 C1138 1.524 . S
C1139 C1140 1.415 . S
C1140 H1116 0.950 . S
C1140 C1135 1.363 . S
C1140 C1139 1.415 . S
C1141 H1117 0.951 . S
C1141 C1142 1.366 . S
C1141 C1143 1.388 . S
C1142 C1141 1.366 . S
C1142 C1146 1.385 . S
C1143 H1118 0.951 . S
C1143 C1141 1.388 . S
C1143 C1144 1.366 . S
C1144 C1143 1.366 . S
C1144 C1145 1.414 . S
C1144 C1147 1.499 . S
C1145 H1119 0.950 . S
C1145 C1144 1.414 . S
C1145 C1146 1.374 . S
C1146 H1120 0.950 . S
C1146 C1142 1.385 . S
C1146 C1145 1.374 . S
C1147 C1144 1.499 . S
C1147 C1148 1.373 . S
C1147 C1149 1.389 . S
C1148 H1121 0.950 . S
C1148 C1134 1.377 . S
C1148 C1147 1.373 . S
C1149 C1133 1.377 . S
C1149 C1147 1.389 . S
C1149 C1150 1.524 . S
C1150 C1149 1.524 . S
C1150 C1151 1.397 . S
C1150 C1155 1.363 . S
C1151 H1122 0.950 . S
C1151 C1150 1.397 . S
C1151 C1152 1.334 . S
C1152 H1123 0.950 . S
C1152 C1151 1.334 . S
C1152 C1153 1.287 . S
C1153 C1152 1.287 . S
C1153 C1154 1.524 . S
C1153 H1156 0.999 . S
C1154 H1124 0.950 . S
C1154 C1153 1.524 . S
C1154 C1155 1.415 . S
C1155 H1125 0.950 . S
C1155 C1150 1.363 . S
C1155 C1154 1.415 . S
H1156 C1153 0.999 . S
H1157 C1138 0.913 . S
H1158 C1176 0.951 . S
H1159 C1178 0.951 . S
H1160 C1180 0.950 . S
H1161 C1181 0.950 . S
H1162 C1183 0.950 . S
H1163 C1186 0.950 . S
H1164 C1187 0.950 . S
H1165 C1189 0.950 . S
H1166 C1190 0.950 . S
H1167 C1191 0.951 . S
H1168 C1193 0.951 . S
H1169 C1195 0.950 . S
H1170 C1196 0.950 . S
H1171 C1198 0.950 . S
H1172 C1201 0.950 . S
H1173 C1202 0.950 . S
H1174 C1204 0.950 . S
H1175 C1205 0.950 . S
C1176 H1158 0.951 . S
C1176 C1177 1.366 . S
C1176 C1178 1.388 . S
C1177 C1176 1.366 . S
C1177 C1181 1.385 . S
C1178 H1159 0.951 . S
C1178 C1176 1.388 . S
C1178 C1179 1.366 . S
C1179 C1178 1.366 . S
C1179 C1180 1.414 . S
C1179 C1182 1.499 . S
C1180 H1160 0.950 . S
C1180 C1179 1.414 . S
C1180 C1181 1.374 . S
C1181 H1161 0.950 . S
C1181 C1177 1.385 . S
C1181 C1180 1.374 . S
C1182 C1179 1.499 . S
C1182 C1183 1.373 . S
C1182 C1184 1.389 . S
C1183 H1162 0.950 . S
C1183 C1182 1.373 . S
C1183 C1199 1.377 . S
C1184 C1182 1.389 . S
C1184 C1185 1.524 . S
C1184 C1198 1.377 . S
C1185 C1184 1.524 . S
C1185 C1186 1.397 . S
C1185 C1190 1.363 . S
C1186 H1163 0.950 . S
C1186 C1185 1.397 . S
C1186 C1187 1.334 . S
C1187 H1164 0.950 . S
C1187 C1186 1.334 . S
C1187 C1188 1.287 . S
C1188 C1187 1.287 . S
C1188 C1189 1.524 . S
C1188 H1207 0.913 . S
C1189 H1165 0.950 . S
C1189 C1188 1.524 . S
C1189 C1190 1.415 . S
C1190 H1166 0.950 . S
C1190 C1185 1.363 . S
C1190 C1189 1.415 . S
C1191 H1167 0.951 . S
C1191 C1192 1.366 . S
C1191 C1193 1.388 . S
C1192 C1191 1.366 . S
C1192 C1196 1.385 . S
C1193 H1168 0.951 . S
C1193 C1191 1.388 . S
C1193 C1194 1.366 . S
C1194 C1193 1.366 . S
C1194 C1195 1.414 . S
C1194 C1197 1.499 . S
C1195 H1169 0.950 . S
C1195 C1194 1.414 . S
C1195 C1196 1.374 . S
C1196 H1170 0.950 . S
C1196 C1192 1.385 . S
C1196 C1195 1.374 . S
C1197 C1194 1.499 . S
C1197 C1198 1.373 . S
C1197 C1199 1.389 . S
C1198 H1171 0.950 . S
C1198 C1184 1.377 . S
C1198 C1197 1.373 . S
C1199 C1183 1.377 . S
C1199 C1197 1.389 . S
C1199 C1200 1.524 . S
C1200 C1199 1.524 . S
C1200 C1201 1.397 . S
C1200 C1205 1.363 . S
C1201 H1172 0.950 . S
C1201 C1200 1.397 . S
C1201 C1202 1.334 . S
C1202 H1173 0.950 . S
C1202 C1201 1.334 . S
C1202 C1203 1.287 . S
C1203 C1202 1.287 . S
C1203 C1204 1.524 . S
C1203 H1206 0.999 . S
C1204 H1174 0.950 . S
C1204 C1203 1.524 . S
C1204 C1205 1.415 . S
C1205 H1175 0.950 . S
C1205 C1200 1.363 . S
C1205 C1204 1.415 . S
H1206 C1203 0.999 . S
H1207 C1188 0.913 . S
H1208 C1226 0.951 . S
H1209 C1228 0.951 . S
H1210 C1230 0.950 . S
H1211 C1231 0.950 . S
H1212 C1233 0.950 . S
H1213 C1236 0.950 . S
H1214 C1237 0.950 . S
H1215 C1239 0.950 . S
H1216 C1240 0.950 . S
H1217 C1241 0.951 . S
H1218 C1243 0.951 . S
H1219 C1245 0.950 . S
H1220 C1246 0.950 . S
H1221 C1248 0.950 . S
H1222 C1251 0.950 . S
H1223 C1252 0.950 . S
H1224 C1254 0.950 . S
H1225 C1255 0.950 . S
C1226 H1208 0.951 . S
C1226 C1227 1.366 . S
C1226 C1228 1.388 . S
C1227 C1226 1.366 . S
C1227 C1231 1.385 . S
C1228 H1209 0.951 . S
C1228 C1226 1.388 . S
C1228 C1229 1.366 . S
C1229 C1228 1.366 . S
C1229 C1230 1.414 . S
C1229 C1232 1.499 . S
C1230 H1210 0.950 . S
C1230 C1229 1.414 . S
C1230 C1231 1.374 . S
C1231 H1211 0.950 . S
C1231 C1227 1.385 . S
C1231 C1230 1.374 . S
C1232 C1229 1.499 . S
C1232 C1233 1.373 . S
C1232 C1234 1.389 . S
C1233 H1212 0.950 . S
C1233 C1232 1.373 . S
C1233 C1249 1.377 . S
C1234 C1232 1.389 . S
C1234 C1235 1.524 . S
C1234 C1248 1.377 . S
C1235 C1234 1.524 . S
C1235 C1236 1.397 . S
C1235 C1240 1.363 . S
C1236 H1213 0.950 . S
C1236 C1235 1.397 . S
C1236 C1237 1.334 . S
C1237 H1214 0.950 . S
C1237 C1236 1.334 . S
C1237 C1238 1.287 . S
C1238 C1237 1.287 . S
C1238 C1239 1.524 . S
C1238 H1257 0.913 . S
C1239 H1215 0.950 . S
C1239 C1238 1.524 . S
C1239 C1240 1.415 . S
C1240 H1216 0.950 . S
C1240 C1235 1.363 . S
C1240 C1239 1.415 . S
C1241 H1217 0.951 . S
C1241 C1242 1.366 . S
C1241 C1243 1.388 . S
C1242 C1241 1.366 . S
C1242 C1246 1.385 . S
C1243 H1218 0.951 . S
C1243 C1241 1.388 . S
C1243 C1244 1.366 . S
C1244 C1243 1.366 . S
C1244 C1245 1.414 . S
C1244 C1247 1.499 . S
C1245 H1219 0.950 . S
C1245 C1244 1.414 . S
C1245 C1246 1.374 . S
C1246 H1220 0.950 . S
C1246 C1242 1.385 . S
C1246 C1245 1.374 . S
C1247 C1244 1.499 . S
C1247 C1248 1.373 . S
C1247 C1249 1.389 . S
C1248 H1221 0.950 . S
C1248 C1234 1.377 . S
C1248 C1247 1.373 . S
C1249 C1233 1.377 . S
C1249 C1247 1.389 . S
C1249 C1250 1.524 . S
C1250 C1249 1.524 . S
C1250 C1251 1.397 . S
C1250 C1255 1.363 . S
C1251 H1222 0.950 . S
C1251 C1250 1.397 . S
C1251 C1252 1.334 . S
C1252 H1223 0.950 . S
C1252 C1251 1.334 . S
C1252 C1253 1.287 . S
C1253 C1252 1.287 . S
C1253 C1254 1.524 . S
C1253 H1256 0.999 . S
C1254 H1224 0.950 . S
C1254 C1253 1.524 . S
C1254 C1255 1.415 . S
C1255 H1225 0.950 . S
C1255 C1250 1.363 . S
C1255 C1254 1.415 . S
H1256 C1253 0.999 . S
H1257 C1238 0.913 . S
H1258 C1276 0.951 . S
H1259 C1278 0.951 . S
H1260 C1280 0.950 . S
H1261 C1281 0.950 . S
H1262 C1283 0.950 . S
H1263 C1286 0.950 . S
H1264 C1287 0.950 . S
H1265 C1289 0.950 . S
H1266 C1290 0.950 . S
H1267 C1291 0.951 . S
H1268 C1293 0.951 . S
H1269 C1295 0.950 . S
H1270 C1296 0.950 . S
H1271 C1298 0.950 . S
H1272 C1301 0.950 . S
H1273 C1302 0.950 . S
H1274 C1304 0.950 . S
H1275 C1305 0.950 . S
C1276 H1258 0.951 . S
C1276 C1277 1.366 . S
C1276 C1278 1.388 . S
C1277 C1276 1.366 . S
C1277 C1281 1.385 . S
C1278 H1259 0.951 . S
C1278 C1276 1.388 . S
C1278 C1279 1.366 . S
C1279 C1278 1.366 . S
C1279 C1280 1.414 . S
C1279 C1282 1.499 . S
C1280 H1260 0.950 . S
C1280 C1279 1.414 . S
C1280 C1281 1.374 . S
C1281 H1261 0.950 . S
C1281 C1277 1.385 . S
C1281 C1280 1.374 . S
C1282 C1279 1.499 . S
C1282 C1283 1.373 . S
C1282 C1284 1.389 . S
C1283 H1262 0.950 . S
C1283 C1282 1.373 . S
C1283 C1299 1.377 . S
C1284 C1282 1.389 . S
C1284 C1285 1.524 . S
C1284 C1298 1.377 . S
C1285 C1284 1.524 . S
C1285 C1286 1.397 . S
C1285 C1290 1.363 . S
C1286 H1263 0.950 . S
C1286 C1285 1.397 . S
C1286 C1287 1.334 . S
C1287 H1264 0.950 . S
C1287 C1286 1.334 . S
C1287 C1288 1.287 . S
C1288 C1287 1.287 . S
C1288 C1289 1.524 . S
C1288 H1307 0.913 . S
C1289 H1265 0.950 . S
C1289 C1288 1.524 . S
C1289 C1290 1.415 . S
C1290 H1266 0.950 . S
C1290 C1285 1.363 . S
C1290 C1289 1.415 . S
C1291 H1267 0.951 . S
C1291 C1292 1.366 . S
C1291 C1293 1.388 . S
C1292 C1291 1.366 . S
C1292 C1296 1.385 . S
C1293 H1268 0.951 . S
C1293 C1291 1.388 . S
C1293 C1294 1.366 . S
C1294 C1293 1.366 . S
C1294 C1295 1.414 . S
C1294 C1297 1.499 . S
C1295 H1269 0.950 . S
C1295 C1294 1.414 . S
C1295 C1296 1.374 . S
C1296 H1270 0.950 . S
C1296 C1292 1.385 . S
C1296 C1295 1.374 . S
C1297 C1294 1.499 . S
C1297 C1298 1.373 . S
C1297 C1299 1.389 . S
C1298 H1271 0.950 . S
C1298 C1284 1.377 . S
C1298 C1297 1.373 . S
C1299 C1283 1.377 . S
C1299 C1297 1.389 . S
C1299 C1300 1.524 . S
C1300 C1299 1.524 . S
C1300 C1301 1.397 . S
C1300 C1305 1.363 . S
C1301 H1272 0.950 . S
C1301 C1300 1.397 . S
C1301 C1302 1.334 . S
C1302 H1273 0.950 . S
C1302 C1301 1.334 . S
C1302 C1303 1.287 . S
C1303 C1302 1.287 . S
C1303 C1304 1.524 . S
C1303 H1306 0.999 . S
C1304 H1274 0.950 . S
C1304 C1303 1.524 . S
C1304 C1305 1.415 . S
C1305 H1275 0.950 . S
C1305 C1300 1.363 . S
C1305 C1304 1.415 . S
H1306 C1303 0.999 . S
H1307 C1288 0.913 . S
H1308 C1326 0.951 . S
H1309 C1328 0.951 . S
H1310 C1330 0.950 . S
H1311 C1331 0.950 . S
H1312 C1333 0.950 . S
H1313 C1336 0.950 . S
H1314 C1337 0.950 . S
H1315 C1339 0.950 . S
H1316 C1340 0.950 . S
H1317 C1341 0.951 . S
H1318 C1343 0.951 . S
H1319 C1345 0.950 . S
H1320 C1346 0.950 . S
H1321 C1348 0.950 . S
H1322 C1351 0.950 . S
H1323 C1352 0.950 . S
H1324 C1354 0.950 . S
H1325 C1355 0.950 . S
C1326 H1308 0.951 . S
C1326 C1327 1.366 . S
C1326 C1328 1.388 . S
C1327 C1326 1.366 . S
C1327 C1331 1.385 . S
C1328 H1309 0.951 . S
C1328 C1326 1.388 . S
C1328 C1329 1.366 . S
C1329 C1328 1.366 . S
C1329 C1330 1.414 . S
C1329 C1332 1.499 . S
C1330 H1310 0.950 . S
C1330 C1329 1.414 . S
C1330 C1331 1.374 . S
C1331 H1311 0.950 . S
C1331 C1327 1.385 . S
C1331 C1330 1.374 . S
C1332 C1329 1.499 . S
C1332 C1333 1.373 . S
C1332 C1334 1.389 . S
C1333 H1312 0.950 . S
C1333 C1332 1.373 . S
C1333 C1349 1.377 . S
C1334 C1332 1.389 . S
C1334 C1335 1.524 . S
C1334 C1348 1.377 . S
C1335 C1334 1.524 . S
C1335 C1336 1.397 . S
C1335 C1340 1.363 . S
C1336 H1313 0.950 . S
C1336 C1335 1.397 . S
C1336 C1337 1.334 . S
C1337 H1314 0.950 . S
C1337 C1336 1.334 . S
C1337 C1338 1.287 . S
C1338 C1337 1.287 . S
C1338 C1339 1.524 . S
C1338 H1357 0.913 . S
C1339 H1315 0.950 . S
C1339 C1338 1.524 . S
C1339 C1340 1.415 . S
C1340 H1316 0.950 . S
C1340 C1335 1.363 . S
C1340 C1339 1.415 . S
C1341 H1317 0.951 . S
C1341 C1342 1.366 . S
C1341 C1343 1.388 . S
C1342 C1341 1.366 . S
C1342 C1346 1.385 . S
C1343 H1318 0.951 . S
C1343 C1341 1.388 . S
C1343 C1344 1.366 . S
C1344 C1343 1.366 . S
C1344 C1345 1.414 . S
C1344 C1347 1.499 . S
C1345 H1319 0.950 . S
C1345 C1344 1.414 . S
C1345 C1346 1.374 . S
C1346 H1320 0.950 . S
C1346 C1342 1.385 . S
C1346 C1345 1.374 . S
C1347 C1344 1.499 . S
C1347 C1348 1.373 . S
C1347 C1349 1.389 . S
C1348 H1321 0.950 . S
C1348 C1334 1.377 . S
C1348 C1347 1.373 . S
C1349 C1333 1.377 . S
C1349 C1347 1.389 . S
C1349 C1350 1.524 . S
C1350 C1349 1.524 . S
C1350 C1351 1.397 . S
C1350 C1355 1.363 . S
C1351 H1322 0.950 . S
C1351 C1350 1.397 . S
C1351 C1352 1.334 . S
C1352 H1323 0.950 . S
C1352 C1351 1.334 . S
C1352 C1353 1.287 . S
C1353 C1352 1.287 . S
C1353 C1354 1.524 . S
C1353 H1356 0.999 . S
C1354 H1324 0.950 . S
C1354 C1353 1.524 . S
C1354 C1355 1.415 . S
C1355 H1325 0.950 . S
C1355 C1350 1.363 . S
C1355 C1354 1.415 . S
H1356 C1353 0.999 . S
H1357 C1338 0.913 . S
H1358 C1376 0.951 . S
H1359 C1378 0.951 . S
H1360 C1380 0.950 . S
H1361 C1381 0.950 . S
H1362 C1383 0.950 . S
H1363 C1386 0.950 . S
H1364 C1387 0.950 . S
H1365 C1389 0.950 . S
H1366 C1390 0.950 . S
H1367 C1391 0.951 . S
H1368 C1393 0.951 . S
H1369 C1395 0.950 . S
H1370 C1396 0.950 . S
H1371 C1398 0.950 . S
H1372 C1401 0.950 . S
H1373 C1402 0.950 . S
H1374 C1404 0.950 . S
H1375 C1405 0.950 . S
C1376 H1358 0.951 . S
C1376 C1377 1.366 . S
C1376 C1378 1.388 . S
C1377 C1376 1.366 . S
C1377 C1381 1.385 . S
C1378 H1359 0.951 . S
C1378 C1376 1.388 . S
C1378 C1379 1.366 . S
C1379 C1378 1.366 . S
C1379 C1380 1.414 . S
C1379 C1382 1.499 . S
C1380 H1360 0.950 . S
C1380 C1379 1.414 . S
C1380 C1381 1.374 . S
C1381 H1361 0.950 . S
C1381 C1377 1.385 . S
C1381 C1380 1.374 . S
C1382 C1379 1.499 . S
C1382 C1383 1.373 . S
C1382 C1384 1.389 . S
C1383 H1362 0.950 . S
C1383 C1382 1.373 . S
C1383 C1399 1.377 . S
C1384 C1382 1.389 . S
C1384 C1385 1.524 . S
C1384 C1398 1.377 . S
C1385 C1384 1.524 . S
C1385 C1386 1.397 . S
C1385 C1390 1.363 . S
C1386 H1363 0.950 . S
C1386 C1385 1.397 . S
C1386 C1387 1.334 . S
C1387 H1364 0.950 . S
C1387 C1386 1.334 . S
C1387 C1388 1.287 . S
C1388 C1387 1.287 . S
C1388 C1389 1.524 . S
C1388 H1407 0.913 . S
C1389 H1365 0.950 . S
C1389 C1388 1.524 . S
C1389 C1390 1.415 . S
C1390 H1366 0.950 . S
C1390 C1385 1.363 . S
C1390 C1389 1.415 . S
C1391 H1367 0.951 . S
C1391 C1392 1.366 . S
C1391 C1393 1.388 . S
C1392 C1391 1.366 . S
C1392 C1396 1.385 . S
C1393 H1368 0.951 . S
C1393 C1391 1.388 . S
C1393 C1394 1.366 . S
C1394 C1393 1.366 . S
C1394 C1395 1.414 . S
C1394 C1397 1.499 . S
C1395 H1369 0.950 . S
C1395 C1394 1.414 . S
C1395 C1396 1.374 . S
C1396 H1370 0.950 . S
C1396 C1392 1.385 . S
C1396 C1395 1.374 . S
C1397 C1394 1.499 . S
C1397 C1398 1.373 . S
C1397 C1399 1.389 . S
C1398 H1371 0.950 . S
C1398 C1384 1.377 . S
C1398 C1397 1.373 . S
C1399 C1383 1.377 . S
C1399 C1397 1.389 . S
C1399 C1400 1.524 . S
C1400 C1399 1.524 . S
C1400 C1401 1.397 . S
C1400 C1405 1.363 . S
C1401 H1372 0.950 . S
C1401 C1400 1.397 . S
C1401 C1402 1.334 . S
C1402 H1373 0.950 . S
C1402 C1401 1.334 . S
C1402 C1403 1.287 . S
C1403 C1402 1.287 . S
C1403 C1404 1.524 . S
C1403 H1406 0.999 . S
C1404 H1374 0.950 . S
C1404 C1403 1.524 . S
C1404 C1405 1.415 . S
C1405 H1375 0.950 . S
C1405 C1400 1.363 . S
C1405 C1404 1.415 . S
H1406 C1403 0.999 . S
H1407 C1388 0.913 . S
H1408 C1426 0.951 . S
H1409 C1428 0.951 . S
H1410 C1430 0.950 . S
H1411 C1431 0.950 . S
H1412 C1433 0.950 . S
H1413 C1436 0.950 . S
H1414 C1437 0.950 . S
H1415 C1439 0.950 . S
H1416 C1440 0.950 . S
H1417 C1441 0.951 . S
H1418 C1443 0.951 . S
H1419 C1445 0.950 . S
H1420 C1446 0.950 . S
H1421 C1448 0.950 . S
H1422 C1451 0.950 . S
H1423 C1452 0.950 . S
H1424 C1454 0.950 . S
H1425 C1455 0.950 . S
C1426 H1408 0.951 . S
C1426 C1427 1.366 . S
C1426 C1428 1.388 . S
C1427 C1426 1.366 . S
C1427 C1431 1.385 . S
C1428 H1409 0.951 . S
C1428 C1426 1.388 . S
C1428 C1429 1.366 . S
C1429 C1428 1.366 . S
C1429 C1430 1.414 . S
C1429 C1432 1.499 . S
C1430 H1410 0.950 . S
C1430 C1429 1.414 . S
C1430 C1431 1.374 . S
C1431 H1411 0.950 . S
C1431 C1427 1.385 . S
C1431 C1430 1.374 . S
C1432 C1429 1.499 . S
C1432 C1433 1.373 . S
C1432 C1434 1.389 . S
C1433 H1412 0.950 . S
C1433 C1432 1.373 . S
C1433 C1449 1.377 . S
C1434 C1432 1.389 . S
C1434 C1435 1.524 . S
C1434 C1448 1.377 . S
C1435 C1434 1.524 . S
C1435 C1436 1.397 . S
C1435 C1440 1.363 . S
C1436 H1413 0.950 . S
C1436 C1435 1.397 . S
C1436 C1437 1.334 . S
C1437 H1414 0.950 . S
C1437 C1436 1.334 . S
C1437 C1438 1.287 . S
C1438 C1437 1.287 . S
C1438 C1439 1.524 . S
C1438 H1457 0.913 . S
C1439 H1415 0.950 . S
C1439 C1438 1.524 . S
C1439 C1440 1.415 . S
C1440 H1416 0.950 . S
C1440 C1435 1.363 . S
C1440 C1439 1.415 . S
C1441 H1417 0.951 . S
C1441 C1442 1.366 . S
C1441 C1443 1.388 . S
C1442 C1441 1.366 . S
C1442 C1446 1.385 . S
C1443 H1418 0.951 . S
C1443 C1441 1.388 . S
C1443 C1444 1.366 . S
C1444 C1443 1.366 . S
C1444 C1445 1.414 . S
C1444 C1447 1.499 . S
C1445 H1419 0.950 . S
C1445 C1444 1.414 . S
C1445 C1446 1.374 . S
C1446 H1420 0.950 . S
C1446 C1442 1.385 . S
C1446 C1445 1.374 . S
C1447 C1444 1.499 . S
C1447 C1448 1.373 . S
C1447 C1449 1.389 . S
C1448 H1421 0.950 . S
C1448 C1434 1.377 . S
C1448 C1447 1.373 . S
C1449 C1433 1.377 . S
C1449 C1447 1.389 . S
C1449 C1450 1.524 . S
C1450 C1449 1.524 . S
C1450 C1451 1.397 . S
C1450 C1455 1.363 . S
C1451 H1422 0.950 . S
C1451 C1450 1.397 . S
C1451 C1452 1.334 . S
C1452 H1423 0.950 . S
C1452 C1451 1.334 . S
C1452 C1453 1.287 . S
C1453 C1452 1.287 . S
C1453 C1454 1.524 . S
C1453 H1456 0.999 . S
C1454 H1424 0.950 . S
C1454 C1453 1.524 . S
C1454 C1455 1.415 . S
C1455 H1425 0.950 . S
C1455 C1450 1.363 . S
C1455 C1454 1.415 . S
H1456 C1453 0.999 . S
H1457 C1438 0.913 . S
H1458 C1476 0.951 . S
H1459 C1478 0.951 . S
H1460 C1480 0.950 . S
H1461 C1481 0.950 . S
H1462 C1483 0.950 . S
H1463 C1486 0.950 . S
H1464 C1487 0.950 . S
H1465 C1489 0.950 . S
H1466 C1490 0.950 . S
H1467 C1491 0.951 . S
H1468 C1493 0.951 . S
H1469 C1495 0.950 . S
H1470 C1496 0.950 . S
H1471 C1498 0.950 . S
H1472 C1501 0.950 . S
H1473 C1502 0.950 . S
H1474 C1504 0.950 . S
H1475 C1505 0.950 . S
C1476 H1458 0.951 . S
C1476 C1477 1.366 . S
C1476 C1478 1.388 . S
C1477 C1476 1.366 . S
C1477 C1481 1.385 . S
C1478 H1459 0.951 . S
C1478 C1476 1.388 . S
C1478 C1479 1.366 . S
C1479 C1478 1.366 . S
C1479 C1480 1.414 . S
C1479 C1482 1.499 . S
C1480 H1460 0.950 . S
C1480 C1479 1.414 . S
C1480 C1481 1.374 . S
C1481 H1461 0.950 . S
C1481 C1477 1.385 . S
C1481 C1480 1.374 . S
C1482 C1479 1.499 . S
C1482 C1483 1.373 . S
C1482 C1484 1.389 . S
C1483 H1462 0.950 . S
C1483 C1482 1.373 . S
C1483 C1499 1.377 . S
C1484 C1482 1.389 . S
C1484 C1485 1.524 . S
C1484 C1498 1.377 . S
C1485 C1484 1.524 . S
C1485 C1486 1.397 . S
C1485 C1490 1.363 . S
C1486 H1463 0.950 . S
C1486 C1485 1.397 . S
C1486 C1487 1.334 . S
C1487 H1464 0.950 . S
C1487 C1486 1.334 . S
C1487 C1488 1.287 . S
C1488 C1487 1.287 . S
C1488 C1489 1.524 . S
C1488 H1507 0.913 . S
C1489 H1465 0.950 . S
C1489 C1488 1.524 . S
C1489 C1490 1.415 . S
C1490 H1466 0.950 . S
C1490 C1485 1.363 . S
C1490 C1489 1.415 . S
C1491 H1467 0.951 . S
C1491 C1492 1.366 . S
C1491 C1493 1.388 . S
C1492 C1491 1.366 . S
C1492 C1496 1.385 . S
C1493 H1468 0.951 . S
C1493 C1491 1.388 . S
C1493 C1494 1.366 . S
C1494 C1493 1.366 . S
C1494 C1495 1.414 . S
C1494 C1497 1.499 . S
C1495 H1469 0.950 . S
C1495 C1494 1.414 . S
C1495 C1496 1.374 . S
C1496 H1470 0.950 . S
C1496 C1492 1.385 . S
C1496 C1495 1.374 . S
C1497 C1494 1.499 . S
C1497 C1498 1.373 . S
C1497 C1499 1.389 . S
C1498 H1471 0.950 . S
C1498 C1484 1.377 . S
C1498 C1497 1.373 . S
C1499 C1483 1.377 . S
C1499 C1497 1.389 . S
C1499 C1500 1.524 . S
C1500 C1499 1.524 . S
C1500 C1501 1.397 . S
C1500 C1505 1.363 . S
C1501 H1472 0.950 . S
C1501 C1500 1.397 . S
C1501 C1502 1.334 . S
C1502 H1473 0.950 . S
C1502 C1501 1.334 . S
C1502 C1503 1.287 . S
C1503 C1502 1.287 . S
C1503 C1504 1.524 . S
C1503 H1506 0.999 . S
C1504 H1474 0.950 . S
C1504 C1503 1.524 . S
C1504 C1505 1.415 . S
C1505 H1475 0.950 . S
C1505 C1500 1.363 . S
C1505 C1504 1.415 . S
H1506 C1503 0.999 . S
H1507 C1488 0.913 . S
H1508 C1526 0.951 . S
H1509 C1528 0.951 . S
H1510 C1530 0.950 . S
H1511 C1531 0.950 . S
H1512 C1533 0.950 . S
H1513 C1536 0.950 . S
H1514 C1537 0.950 . S
H1515 C1539 0.950 . S
H1516 C1540 0.950 . S
H1517 C1541 0.951 . S
H1518 C1543 0.951 . S
H1519 C1545 0.950 . S
H1520 C1546 0.950 . S
H1521 C1548 0.950 . S
H1522 C1551 0.950 . S
H1523 C1552 0.950 . S
H1524 C1554 0.950 . S
H1525 C1555 0.950 . S
C1526 H1508 0.951 . S
C1526 C1527 1.366 . S
C1526 C1528 1.388 . S
C1527 C1526 1.366 . S
C1527 C1531 1.385 . S
C1528 H1509 0.951 . S
C1528 C1526 1.388 . S
C1528 C1529 1.366 . S
C1529 C1528 1.366 . S
C1529 C1530 1.414 . S
C1529 C1532 1.499 . S
C1530 H1510 0.950 . S
C1530 C1529 1.414 . S
C1530 C1531 1.374 . S
C1531 H1511 0.950 . S
C1531 C1527 1.385 . S
C1531 C1530 1.374 . S
C1532 C1529 1.499 . S
C1532 C1533 1.373 . S
C1532 C1534 1.389 . S
C1533 H1512 0.950 . S
C1533 C1532 1.373 . S
C1533 C1549 1.377 . S
C1534 C1532 1.389 . S
C1534 C1535 1.524 . S
C1534 C1548 1.377 . S
C1535 C1534 1.524 . S
C1535 C1536 1.397 . S
C1535 C1540 1.363 . S
C1536 H1513 0.950 . S
C1536 C1535 1.397 . S
C1536 C1537 1.334 . S
C1537 H1514 0.950 . S
C1537 C1536 1.334 . S
C1537 C1538 1.287 . S
C1538 C1537 1.287 . S
C1538 C1539 1.524 . S
C1538 H1557 0.913 . S
C1539 H1515 0.950 . S
C1539 C1538 1.524 . S
C1539 C1540 1.415 . S
C1540 H1516 0.950 . S
C1540 C1535 1.363 . S
C1540 C1539 1.415 . S
C1541 H1517 0.951 . S
C1541 C1542 1.366 . S
C1541 C1543 1.388 . S
C1542 C1541 1.366 . S
C1542 C1546 1.385 . S
C1543 H1518 0.951 . S
C1543 C1541 1.388 . S
C1543 C1544 1.366 . S
C1544 C1543 1.366 . S
C1544 C1545 1.414 . S
C1544 C1547 1.499 . S
C1545 H1519 0.950 . S
C1545 C1544 1.414 . S
C1545 C1546 1.374 . S
C1546 H1520 0.950 . S
C1546 C1542 1.385 . S
C1546 C1545 1.374 . S
C1547 C1544 1.499 . S
C1547 C1548 1.373 . S
C1547 C1549 1.389 . S
C1548 H1521 0.950 . S
C1548 C1534 1.377 . S
C1548 C1547 1.373 . S
C1549 C1533 1.377 . S
C1549 C1547 1.389 . S
C1549 C1550 1.524 . S
C1550 C1549 1.524 . S
C1550 C1551 1.397 . S
C1550 C1555 1.363 . S
C1551 H1522 0.950 . S
C1551 C1550 1.397 . S
C1551 C1552 1.334 . S
C1552 H1523 0.950 . S
C1552 C1551 1.334 . S
C1552 C1553 1.287 . S
C1553 C1552 1.287 . S
C1553 C1554 1.524 . S
C1553 H1556 0.999 . S
C1554 H1524 0.950 . S
C1554 C1553 1.524 . S
C1554 C1555 1.415 . S
C1555 H1525 0.950 . S
C1555 C1550 1.363 . S
C1555 C1554 1.415 . S
H1556 C1553 0.999 . S
H1557 C1538 0.913 . S
H1558 C1576 0.951 . S
H1559 C1578 0.951 . S
H1560 C1580 0.950 . S
H1561 C1581 0.950 . S
H1562 C1583 0.950 . S
H1563 C1586 0.950 . S
H1564 C1587 0.950 . S
H1565 C1589 0.950 . S
H1566 C1590 0.950 . S
H1567 C1591 0.951 . S
H1568 C1593 0.951 . S
H1569 C1595 0.950 . S
H1570 C1596 0.950 . S
H1571 C1598 0.950 . S
H1572 C1601 0.950 . S
H1573 C1602 0.950 . S
H1574 C1604 0.950 . S
H1575 C1605 0.950 . S
C1576 H1558 0.951 . S
C1576 C1577 1.366 . S
C1576 C1578 1.388 . S
C1577 C1576 1.366 . S
C1577 C1581 1.385 . S
C1578 H1559 0.951 . S
C1578 C1576 1.388 . S
C1578 C1579 1.366 . S
C1579 C1578 1.366 . S
C1579 C1580 1.414 . S
C1579 C1582 1.499 . S
C1580 H1560 0.950 . S
C1580 C1579 1.414 . S
C1580 C1581 1.374 . S
C1581 H1561 0.950 . S
C1581 C1577 1.385 . S
C1581 C1580 1.374 . S
C1582 C1579 1.499 . S
C1582 C1583 1.373 . S
C1582 C1584 1.389 . S
C1583 H1562 0.950 . S
C1583 C1582 1.373 . S
C1583 C1599 1.377 . S
C1584 C1582 1.389 . S
C1584 C1585 1.524 . S
C1584 C1598 1.377 . S
C1585 C1584 1.524 . S
C1585 C1586 1.397 . S
C1585 C1590 1.363 . S
C1586 H1563 0.950 . S
C1586 C1585 1.397 . S
C1586 C1587 1.334 . S
C1587 H1564 0.950 . S
C1587 C1586 1.334 . S
C1587 C1588 1.287 . S
C1588 C1587 1.287 . S
C1588 C1589 1.524 . S
C1588 H1607 0.913 . S
C1589 H1565 0.950 . S
C1589 C1588 1.524 . S
C1589 C1590 1.415 . S
C1590 H1566 0.950 . S
C1590 C1585 1.363 . S
C1590 C1589 1.415 . S
C1591 H1567 0.951 . S
C1591 C1592 1.366 . S
C1591 C1593 1.388 . S
C1592 C1591 1.366 . S
C1592 C1596 1.385 . S
C1593 H1568 0.951 . S
C1593 C1591 1.388 . S
C1593 C1594 1.366 . S
C1594 C1593 1.366 . S
C1594 C1595 1.414 . S
C1594 C1597 1.499 . S
C1595 H1569 0.950 . S
C1595 C1594 1.414 . S
C1595 C1596 1.374 . S
C1596 H1570 0.950 . S
C1596 C1592 1.385 . S
C1596 C1595 1.374 . S
C1597 C1594 1.499 . S
C1597 C1598 1.373 . S
C1597 C1599 1.389 . S
C1598 H1571 0.950 . S
C1598 C1584 1.377 . S
C1598 C1597 1.373 . S
C1599 C1583 1.377 . S
C1599 C1597 1.389 . S
C1599 C1600 1.524 . S
C1600 C1599 1.524 . S
C1600 C1601 1.397 . S
C1600 C1605 1.363 . S
C1601 H1572 0.950 . S
C1601 C1600 1.397 . S
C1601 C1602 1.334 . S
C1602 H1573 0.950 . S
C1602 C1601 1.334 . S
C1602 C1603 1.287 . S
C1603 C1602 1.287 . S
C1603 C1604 1.524 . S
C1603 H1606 0.999 . S
C1604 H1574 0.950 . S
C1604 C1603 1.524 . S
C1604 C1605 1.415 . S
C1605 H1575 0.950 . S
C1605 C1600 1.363 . S
C1605 C1604 1.415 . S
H1606 C1603 0.999 . S
H1607 C1588 0.913 . S
H1608 C1626 0.951 . S
H1609 C1628 0.951 . S
H1610 C1630 0.950 . S
H1611 C1631 0.950 . S
H1612 C1633 0.950 . S
H1613 C1636 0.950 . S
H1614 C1637 0.950 . S
H1615 C1639 0.950 . S
H1616 C1640 0.950 . S
H1617 C1641 0.951 . S
H1618 C1643 0.951 . S
H1619 C1645 0.950 . S
H1620 C1646 0.950 . S
H1621 C1648 0.950 . S
H1622 C1651 0.950 . S
H1623 C1652 0.950 . S
H1624 C1654 0.950 . S
H1625 C1655 0.950 . S
C1626 H1608 0.951 . S
C1626 C1627 1.366 . S
C1626 C1628 1.388 . S
C1627 C1626 1.366 . S
C1627 C1631 1.385 . S
C1628 H1609 0.951 . S
C1628 C1626 1.388 . S
C1628 C1629 1.366 . S
C1629 C1628 1.366 . S
C1629 C1630 1.414 . S
C1629 C1632 1.499 . S
C1630 H1610 0.950 . S
C1630 C1629 1.414 . S
C1630 C1631 1.374 . S
C1631 H1611 0.950 . S
C1631 C1627 1.385 . S
C1631 C1630 1.374 . S
C1632 C1629 1.499 . S
C1632 C1633 1.373 . S
C1632 C1634 1.389 . S
C1633 H1612 0.950 . S
C1633 C1632 1.373 . S
C1633 C1649 1.377 . S
C1634 C1632 1.389 . S
C1634 C1635 1.524 . S
C1634 C1648 1.377 . S
C1635 C1634 1.524 . S
C1635 C1636 1.397 . S
C1635 C1640 1.363 . S
C1636 H1613 0.950 . S
C1636 C1635 1.397 . S
C1636 C1637 1.334 . S
C1637 H1614 0.950 . S
C1637 C1636 1.334 . S
C1637 C1638 1.287 . S
C1638 C1637 1.287 . S
C1638 C1639 1.524 . S
C1638 H1657 0.913 . S
C1639 H1615 0.950 . S
C1639 C1638 1.524 . S
C1639 C1640 1.415 . S
C1640 H1616 0.950 . S
C1640 C1635 1.363 . S
C1640 C1639 1.415 . S
C1641 H1617 0.951 . S
C1641 C1642 1.366 . S
C1641 C1643 1.388 . S
C1642 C1641 1.366 . S
C1642 C1646 1.385 . S
C1643 H1618 0.951 . S
C1643 C1641 1.388 . S
C1643 C1644 1.366 . S
C1644 C1643 1.366 . S
C1644 C1645 1.414 . S
C1644 C1647 1.499 . S
C1645 H1619 0.950 . S
C1645 C1644 1.414 . S
C1645 C1646 1.374 . S
C1646 H1620 0.950 . S
C1646 C1642 1.385 . S
C1646 C1645 1.374 . S
C1647 C1644 1.499 . S
C1647 C1648 1.373 . S
C1647 C1649 1.389 . S
C1648 H1621 0.950 . S
C1648 C1634 1.377 . S
C1648 C1647 1.373 . S
C1649 C1633 1.377 . S
C1649 C1647 1.389 . S
C1649 C1650 1.524 . S
C1650 C1649 1.524 . S
C1650 C1651 1.397 . S
C1650 C1655 1.363 . S
C1651 H1622 0.950 . S
C1651 C1650 1.397 . S
C1651 C1652 1.334 . S
C1652 H1623 0.950 . S
C1652 C1651 1.334 . S
C1652 C1653 1.287 . S
C1653 C1652 1.287 . S
C1653 C1654 1.524 . S
C1653 H1656 0.999 . S
C1654 H1624 0.950 . S
C1654 C1653 1.524 . S
C1654 C1655 1.415 . S
C1655 H1625 0.950 . S
C1655 C1650 1.363 . S
C1655 C1654 1.415 . S
H1656 C1653 0.999 . S
H1657 C1638 0.913 . S
H1658 C1676 0.951 . S
H1659 C1678 0.951 . S
H1660 C1680 0.950 . S
H1661 C1681 0.950 . S
H1662 C1683 0.950 . S
H1663 C1686 0.950 . S
H1664 C1687 0.950 . S
H1665 C1689 0.950 . S
H1666 C1690 0.950 . S
H1667 C1691 0.951 . S
H1668 C1693 0.951 . S
H1669 C1695 0.950 . S
H1670 C1696 0.950 . S
H1671 C1698 0.950 . S
H1672 C1701 0.950 . S
H1673 C1702 0.950 . S
H1674 C1704 0.950 . S
H1675 C1705 0.950 . S
C1676 H1658 0.951 . S
C1676 C1677 1.366 . S
C1676 C1678 1.388 . S
C1677 C1676 1.366 . S
C1677 C1681 1.385 . S
C1678 H1659 0.951 . S
C1678 C1676 1.388 . S
C1678 C1679 1.366 . S
C1679 C1678 1.366 . S
C1679 C1680 1.414 . S
C1679 C1682 1.499 . S
C1680 H1660 0.950 . S
C1680 C1679 1.414 . S
C1680 C1681 1.374 . S
C1681 H1661 0.950 . S
C1681 C1677 1.385 . S
C1681 C1680 1.374 . S
C1682 C1679 1.499 . S
C1682 C1683 1.373 . S
C1682 C1684 1.389 . S
C1683 H1662 0.950 . S
C1683 C1682 1.373 . S
C1683 C1699 1.377 . S
C1684 C1682 1.389 . S
C1684 C1685 1.524 . S
C1684 C1698 1.377 . S
C1685 C1684 1.524 . S
C1685 C1686 1.397 . S
C1685 C1690 1.363 . S
C1686 H1663 0.950 . S
C1686 C1685 1.397 . S
C1686 C1687 1.334 . S
C1687 H1664 0.950 . S
C1687 C1686 1.334 . S
C1687 C1688 1.287 . S
C1688 C1687 1.287 . S
C1688 C1689 1.524 . S
C1688 H1707 0.913 . S
C1689 H1665 0.950 . S
C1689 C1688 1.524 . S
C1689 C1690 1.415 . S
C1690 H1666 0.950 . S
C1690 C1685 1.363 . S
C1690 C1689 1.415 . S
C1691 H1667 0.951 . S
C1691 C1692 1.366 . S
C1691 C1693 1.388 . S
C1692 C1691 1.366 . S
C1692 C1696 1.385 . S
C1693 H1668 0.951 . S
C1693 C1691 1.388 . S
C1693 C1694 1.366 . S
C1694 C1693 1.366 . S
C1694 C1695 1.414 . S
C1694 C1697 1.499 . S
C1695 H1669 0.950 . S
C1695 C1694 1.414 . S
C1695 C1696 1.374 . S
C1696 H1670 0.950 . S
C1696 C1692 1.385 . S
C1696 C1695 1.374 . S
C1697 C1694 1.499 . S
C1697 C1698 1.373 . S
C1697 C1699 1.389 . S
C1698 H1671 0.950 . S
C1698 C1684 1.377 . S
C1698 C1697 1.373 . S
C1699 C1683 1.377 . S
C1699 C1697 1.389 . S
C1699 C1700 1.524 . S
C1700 C1699 1.524 . S
C1700 C1701 1.397 . S
C1700 C1705 1.363 . S
C1701 H1672 0.950 . S
C1701 C1700 1.397 . S
C1701 C1702 1.334 . S
C1702 H1673 0.950 . S
C1702 C1701 1.334 . S
C1702 C1703 1.287 . S
C1703 C1702 1.287 . S
C1703 C1704 1.524 . S
C1703 H1706 0.999 . S
C1704 H1674 0.950 . S
C1704 C1703 1.524 . S
C1704 C1705 1.415 . S
C1705 H1675 0.950 . S
C1705 C1700 1.363 . S
C1705 C1704 1.415 . S
H1706 C1703 0.999 . S
H1707 C1688 0.913 . S
H1708 C1726 0.951 . S
H1709 C1728 0.951 . S
H1710 C1730 0.950 . S
H1711 C1731 0.950 . S
H1712 C1733 0.950 . S
H1713 C1736 0.950 . S
H1714 C1737 0.950 . S
H1715 C1739 0.950 . S
H1716 C1740 0.950 . S
H1717 C1741 0.951 . S
H1718 C1743 0.951 . S
H1719 C1745 0.950 . S
H1720 C1746 0.950 . S
H1721 C1748 0.950 . S
H1722 C1751 0.950 . S
H1723 C1752 0.950 . S
H1724 C1754 0.950 . S
H1725 C1755 0.950 . S
C1726 H1708 0.951 . S
C1726 C1727 1.366 . S
C1726 C1728 1.388 . S
C1727 C1726 1.366 . S
C1727 C1731 1.385 . S
C1728 H1709 0.951 . S
C1728 C1726 1.388 . S
C1728 C1729 1.366 . S
C1729 C1728 1.366 . S
C1729 C1730 1.414 . S
C1729 C1732 1.499 . S
C1730 H1710 0.950 . S
C1730 C1729 1.414 . S
C1730 C1731 1.374 . S
C1731 H1711 0.950 . S
C1731 C1727 1.385 . S
C1731 C1730 1.374 . S
C1732 C1729 1.499 . S
C1732 C1733 1.373 . S
C1732 C1734 1.389 . S
C1733 H1712 0.950 . S
C1733 C1732 1.373 . S
C1733 C1749 1.377 . S
C1734 C1732 1.389 . S
C1734 C1735 1.524 . S
C1734 C1748 1.377 . S
C1735 C1734 1.524 . S
C1735 C1736 1.397 . S
C1735 C1740 1.363 . S
C1736 H1713 0.950 . S
C1736 C1735 1.397 . S
C1736 C1737 1.334 . S
C1737 H1714 0.950 . S
C1737 C1736 1.334 . S
C1737 C1738 1.287 . S
C1738 C1737 1.287 . S
C1738 C1739 1.524 . S
C1738 H1757 0.913 . S
C1739 H1715 0.950 . S
C1739 C1738 1.524 . S
C1739 C1740 1.415 . S
C1740 H1716 0.950 . S
C1740 C1735 1.363 . S
C1740 C1739 1.415 . S
C1741 H1717 0.951 . S
C1741 C1742 1.366 . S
C1741 C1743 1.388 . S
C1742 C1741 1.366 . S
C1742 C1746 1.385 . S
C1743 H1718 0.951 . S
C1743 C1741 1.388 . S
C1743 C1744 1.366 . S
C1744 C1743 1.366 . S
C1744 C1745 1.414 . S
C1744 C1747 1.499 . S
C1745 H1719 0.950 . S
C1745 C1744 1.414 . S
C1745 C1746 1.374 . S
C1746 H1720 0.950 . S
C1746 C1742 1.385 . S
C1746 C1745 1.374 . S
C1747 C1744 1.499 . S
C1747 C1748 1.373 . S
C1747 C1749 1.389 . S
C1748 H1721 0.950 . S
C1748 C1734 1.377 . S
C1748 C1747 1.373 . S
C1749 C1733 1.377 . S
C1749 C1747 1.389 . S
C1749 C1750 1.524 . S
C1750 C1749 1.524 . S
C1750 C1751 1.397 . S
C1750 C1755 1.363 . S
C1751 H1722 0.950 . S
C1751 C1750 1.397 . S
C1751 C1752 1.334 . S
C1752 H1723 0.950 . S
C1752 C1751 1.334 . S
C1752 C1753 1.287 . S
C1753 C1752 1.287 . S
C1753 C1754 1.524 . S
C1753 H1756 0.999 . S
C1754 H1724 0.950 . S
C1754 C1753 1.524 . S
C1754 C1755 1.415 . S
C1755 H1725 0.950 . S
C1755 C1750 1.363 . S
C1755 C1754 1.415 . S
H1756 C1753 0.999 . S
H1757 C1738 0.913 . S
H1758 C1776 0.951 . S
H1759 C1778 0.951 . S
H1760 C1780 0.950 . S
H1761 C1781 0.950 . S
H1762 C1783 0.950 . S
H1763 C1786 0.950 . S
H1764 C1787 0.950 . S
H1765 C1789 0.950 . S
H1766 C1790 0.950 . S
H1767 C1791 0.951 . S
H1768 C1793 0.951 . S
H1769 C1795 0.950 . S
H1770 C1796 0.950 . S
H1771 C1798 0.950 . S
H1772 C1801 0.950 . S
H1773 C1802 0.950 . S
H1774 C1804 0.950 . S
H1775 C1805 0.950 . S
C1776 H1758 0.951 . S
C1776 C1777 1.366 . S
C1776 C1778 1.388 . S
C1777 C1776 1.366 . S
C1777 C1781 1.385 . S
C1778 H1759 0.951 . S
C1778 C1776 1.388 . S
C1778 C1779 1.366 . S
C1779 C1778 1.366 . S
C1779 C1780 1.414 . S
C1779 C1782 1.499 . S
C1780 H1760 0.950 . S
C1780 C1779 1.414 . S
C1780 C1781 1.374 . S
C1781 H1761 0.950 . S
C1781 C1777 1.385 . S
C1781 C1780 1.374 . S
C1782 C1779 1.499 . S
C1782 C1783 1.373 . S
C1782 C1784 1.389 . S
C1783 H1762 0.950 . S
C1783 C1782 1.373 . S
C1783 C1799 1.377 . S
C1784 C1782 1.389 . S
C1784 C1785 1.524 . S
C1784 C1798 1.377 . S
C1785 C1784 1.524 . S
C1785 C1786 1.397 . S
C1785 C1790 1.363 . S
C1786 H1763 0.950 . S
C1786 C1785 1.397 . S
C1786 C1787 1.334 . S
C1787 H1764 0.950 . S
C1787 C1786 1.334 . S
C1787 C1788 1.287 . S
C1788 C1787 1.287 . S
C1788 C1789 1.524 . S
C1788 H1807 0.913 . S
C1789 H1765 0.950 . S
C1789 C1788 1.524 . S
C1789 C1790 1.415 . S
C1790 H1766 0.950 . S
C1790 C1785 1.363 . S
C1790 C1789 1.415 . S
C1791 H1767 0.951 . S
C1791 C1792 1.366 . S
C1791 C1793 1.388 . S
C1792 C1791 1.366 . S
C1792 C1796 1.385 . S
C1793 H1768 0.951 . S
C1793 C1791 1.388 . S
C1793 C1794 1.366 . S
C1794 C1793 1.366 . S
C1794 C1795 1.414 . S
C1794 C1797 1.499 . S
C1795 H1769 0.950 . S
C1795 C1794 1.414 . S
C1795 C1796 1.374 . S
C1796 H1770 0.950 . S
C1796 C1792 1.385 . S
C1796 C1795 1.374 . S
C1797 C1794 1.499 . S
C1797 C1798 1.373 . S
C1797 C1799 1.389 . S
C1798 H1771 0.950 . S
C1798 C1784 1.377 . S
C1798 C1797 1.373 . S
C1799 C1783 1.377 . S
C1799 C1797 1.389 . S
C1799 C1800 1.524 . S
C1800 C1799 1.524 . S
C1800 C1801 1.397 . S
C1800 C1805 1.363 . S
C1801 H1772 0.950 . S
C1801 C1800 1.397 . S
C1801 C1802 1.334 . S
C1802 H1773 0.950 . S
C1802 C1801 1.334 . S
C1802 C1803 1.287 . S
C1803 C1802 1.287 . S
C1803 C1804 1.524 . S
C1803 H1806 0.999 . S
C1804 H1774 0.950 . S
C1804 C1803 1.524 . S
C1804 C1805 1.415 . S
C1805 H1775 0.950 . S
C1805 C1800 1.363 . S
C1805 C1804 1.415 . S
H1806 C1803 0.999 . S
H1807 C1788 0.913 . S
H1808 C1826 0.951 . S
H1809 C1828 0.951 . S
H1810 C1830 0.950 . S
H1811 C1831 0.950 . S
H1812 C1833 0.950 . S
H1813 C1836 0.950 . S
H1814 C1837 0.950 . S
H1815 C1839 0.950 . S
H1816 C1840 0.950 . S
H1817 C1841 0.951 . S
H1818 C1843 0.951 . S
H1819 C1845 0.950 . S
H1820 C1846 0.950 . S
H1821 C1848 0.950 . S
H1822 C1851 0.950 . S
H1823 C1852 0.950 . S
H1824 C1854 0.950 . S
H1825 C1855 0.950 . S
C1826 H1808 0.951 . S
C1826 C1827 1.366 . S
C1826 C1828 1.388 . S
C1827 C1826 1.366 . S
C1827 C1831 1.385 . S
C1828 H1809 0.951 . S
C1828 C1826 1.388 . S
C1828 C1829 1.366 . S
C1829 C1828 1.366 . S
C1829 C1830 1.414 . S
C1829 C1832 1.499 . S
C1830 H1810 0.950 . S
C1830 C1829 1.414 . S
C1830 C1831 1.374 . S
C1831 H1811 0.950 . S
C1831 C1827 1.385 . S
C1831 C1830 1.374 . S
C1832 C1829 1.499 . S
C1832 C1833 1.373 . S
C1832 C1834 1.389 . S
C1833 H1812 0.950 . S
C1833 C1832 1.373 . S
C1833 C1849 1.377 . S
C1834 C1832 1.389 . S
C1834 C1835 1.524 . S
C1834 C1848 1.377 . S
C1835 C1834 1.524 . S
C1835 C1836 1.397 . S
C1835 C1840 1.363 . S
C1836 H1813 0.950 . S
C1836 C1835 1.397 . S
C1836 C1837 1.334 . S
C1837 H1814 0.950 . S
C1837 C1836 1.334 . S
C1837 C1838 1.287 . S
C1838 C1837 1.287 . S
C1838 C1839 1.524 . S
C1838 H1857 0.913 . S
C1839 H1815 0.950 . S
C1839 C1838 1.524 . S
C1839 C1840 1.415 . S
C1840 H1816 0.950 . S
C1840 C1835 1.363 . S
C1840 C1839 1.415 . S
C1841 H1817 0.951 . S
C1841 C1842 1.366 . S
C1841 C1843 1.388 . S
C1842 C1841 1.366 . S
C1842 C1846 1.385 . S
C1843 H1818 0.951 . S
C1843 C1841 1.388 . S
C1843 C1844 1.366 . S
C1844 C1843 1.366 . S
C1844 C1845 1.414 . S
C1844 C1847 1.499 . S
C1845 H1819 0.950 . S
C1845 C1844 1.414 . S
C1845 C1846 1.374 . S
C1846 H1820 0.950 . S
C1846 C1842 1.385 . S
C1846 C1845 1.374 . S
C1847 C1844 1.499 . S
C1847 C1848 1.373 . S
C1847 C1849 1.389 . S
C1848 H1821 0.950 . S
C1848 C1834 1.377 . S
C1848 C1847 1.373 . S
C1849 C1833 1.377 . S
C1849 C1847 1.389 . S
C1849 C1850 1.524 . S
C1850 C1849 1.524 . S
C1850 C1851 1.397 . S
C1850 C1855 1.363 . S
C1851 H1822 0.950 . S
C1851 C1850 1.397 . S
C1851 C1852 1.334 . S
C1852 H1823 0.950 . S
C1852 C1851 1.334 . S
C1852 C1853 1.287 . S
C1853 C1852 1.287 . S
C1853 C1854 1.524 . S
C1853 H1856 0.999 . S
C1854 H1824 0.950 . S
C1854 C1853 1.524 . S
C1854 C1855 1.415 . S
C1855 H1825 0.950 . S
C1855 C1850 1.363 . S
C1855 C1854 1.415 . S
H1856 C1853 0.999 . S
H1857 C1838 0.913 . S
H1858 C1876 0.951 . S
H1859 C1878 0.951 . S
H1860 C1880 0.950 . S
H1861 C1881 0.950 . S
H1862 C1883 0.950 . S
H1863 C1886 0.950 . S
H1864 C1887 0.950 . S
H1865 C1889 0.950 . S
H1866 C1890 0.950 . S
H1867 C1891 0.951 . S
H1868 C1893 0.951 . S
H1869 C1895 0.950 . S
H1870 C1896 0.950 . S
H1871 C1898 0.950 . S
H1872 C1901 0.950 . S
H1873 C1902 0.950 . S
H1874 C1904 0.950 . S
H1875 C1905 0.950 . S
C1876 H1858 0.951 . S
C1876 C1877 1.366 . S
C1876 C1878 1.388 . S
C1877 C1876 1.366 . S
C1877 C1881 1.385 . S
C1878 H1859 0.951 . S
C1878 C1876 1.388 . S
C1878 C1879 1.366 . S
C1879 C1878 1.366 . S
C1879 C1880 1.414 . S
C1879 C1882 1.499 . S
C1880 H1860 0.950 . S
C1880 C1879 1.414 . S
C1880 C1881 1.374 . S
C1881 H1861 0.950 . S
C1881 C1877 1.385 . S
C1881 C1880 1.374 . S
C1882 C1879 1.499 . S
C1882 C1883 1.373 . S
C1882 C1884 1.389 . S
C1883 H1862 0.950 . S
C1883 C1882 1.373 . S
C1883 C1899 1.377 . S
C1884 C1882 1.389 . S
C1884 C1885 1.524 . S
C1884 C1898 1.377 . S
C1885 C1884 1.524 . S
C1885 C1886 1.397 . S
C1885 C1890 1.363 . S
C1886 H1863 0.950 . S
C1886 C1885 1.397 . S
C1886 C1887 1.334 . S
C1887 H1864 0.950 . S
C1887 C1886 1.334 . S
C1887 C1888 1.287 . S
C1888 C1887 1.287 . S
C1888 C1889 1.524 . S
C1888 H1907 0.913 . S
C1889 H1865 0.950 . S
C1889 C1888 1.524 . S
C1889 C1890 1.415 . S
C1890 H1866 0.950 . S
C1890 C1885 1.363 . S
C1890 C1889 1.415 . S
C1891 H1867 0.951 . S
C1891 C1892 1.366 . S
C1891 C1893 1.388 . S
C1892 C1891 1.366 . S
C1892 C1896 1.385 . S
C1893 H1868 0.951 . S
C1893 C1891 1.388 . S
C1893 C1894 1.366 . S
C1894 C1893 1.366 . S
C1894 C1895 1.414 . S
C1894 C1897 1.499 . S
C1895 H1869 0.950 . S
C1895 C1894 1.414 . S
C1895 C1896 1.374 . S
C1896 H1870 0.950 . S
C1896 C1892 1.385 . S
C1896 C1895 1.374 . S
C1897 C1894 1.499 . S
C1897 C1898 1.373 . S
C1897 C1899 1.389 . S
C1898 H1871 0.950 . S
C1898 C1884 1.377 . S
C1898 C1897 1.373 . S
C1899 C1883 1.377 . S
C1899 C1897 1.389 . S
C1899 C1900 1.524 . S
C1900 C1899 1.524 . S
C1900 C1901 1.397 . S
C1900 C1905 1.363 . S
C1901 H1872 0.950 . S
C1901 C1900 1.397 . S
C1901 C1902 1.334 . S
C1902 H1873 0.950 . S
C1902 C1901 1.334 . S
C1902 C1903 1.287 . S
C1903 C1902 1.287 . S
C1903 C1904 1.524 . S
C1903 H1906 0.999 . S
C1904 H1874 0.950 . S
C1904 C1903 1.524 . S
C1904 C1905 1.415 . S
C1905 H1875 0.950 . S
C1905 C1900 1.363 . S
C1905 C1904 1.415 . S
H1906 C1903 0.999 . S
H1907 C1888 0.913 . S
H1908 C1926 0.951 . S
H1909 C1928 0.951 . S
H1910 C1930 0.950 . S
H1911 C1931 0.950 . S
H1912 C1933 0.950 . S
H1913 C1936 0.950 . S
H1914 C1937 0.950 . S
H1915 C1939 0.950 . S
H1916 C1940 0.950 . S
H1917 C1941 0.951 . S
H1918 C1943 0.951 . S
H1919 C1945 0.950 . S
H1920 C1946 0.950 . S
H1921 C1948 0.950 . S
H1922 C1951 0.950 . S
H1923 C1952 0.950 . S
H1924 C1954 0.950 . S
H1925 C1955 0.950 . S
C1926 H1908 0.951 . S
C1926 C1927 1.366 . S
C1926 C1928 1.388 . S
C1927 C1926 1.366 . S
C1927 C1931 1.385 . S
C1928 H1909 0.951 . S
C1928 C1926 1.388 . S
C1928 C1929 1.366 . S
C1929 C1928 1.366 . S
C1929 C1930 1.414 . S
C1929 C1932 1.499 . S
C1930 H1910 0.950 . S
C1930 C1929 1.414 . S
C1930 C1931 1.374 . S
C1931 H1911 0.950 . S
C1931 C1927 1.385 . S
C1931 C1930 1.374 . S
C1932 C1929 1.499 . S
C1932 C1933 1.373 . S
C1932 C1934 1.389 . S
C1933 H1912 0.950 . S
C1933 C1932 1.373 . S
C1933 C1949 1.377 . S
C1934 C1932 1.389 . S
C1934 C1935 1.524 . S
C1934 C1948 1.377 . S
C1935 C1934 1.524 . S
C1935 C1936 1.397 . S
C1935 C1940 1.363 . S
C1936 H1913 0.950 . S
C1936 C1935 1.397 . S
C1936 C1937 1.334 . S
C1937 H1914 0.950 . S
C1937 C1936 1.334 . S
C1937 C1938 1.287 . S
C1938 C1937 1.287 . S
C1938 C1939 1.524 . S
C1938 H1957 0.913 . S
C1939 H1915 0.950 . S
C1939 C1938 1.524 . S
C1939 C1940 1.415 . S
C1940 H1916 0.950 . S
C1940 C1935 1.363 . S
C1940 C1939 1.415 . S
C1941 H1917 0.951 . S
C1941 C1942 1.366 . S
C1941 C1943 1.388 . S
C1942 C1941 1.366 . S
C1942 C1946 1.385 . S
C1943 H1918 0.951 . S
C1943 C1941 1.388 . S
C1943 C1944 1.366 . S
C1944 C1943 1.366 . S
C1944 C1945 1.414 . S
C1944 C1947 1.499 . S
C1945 H1919 0.950 . S
C1945 C1944 1.414 . S
C1945 C1946 1.374 . S
C1946 H1920 0.950 . S
C1946 C1942 1.385 . S
C1946 C1945 1.374 . S
C1947 C1944 1.499 . S
C1947 C1948 1.373 . S
C1947 C1949 1.389 . S
C1948 H1921 0.950 . S
C1948 C1934 1.377 . S
C1948 C1947 1.373 . S
C1949 C1933 1.377 . S
C1949 C1947 1.389 . S
C1949 C1950 1.524 . S
C1950 C1949 1.524 . S
C1950 C1951 1.397 . S
C1950 C1955 1.363 . S
C1951 H1922 0.950 . S
C1951 C1950 1.397 . S
C1951 C1952 1.334 . S
C1952 H1923 0.950 . S
C1952 C1951 1.334 . S
C1952 C1953 1.287 . S
C1953 C1952 1.287 . S
C1953 C1954 1.524 . S
C1953 H1956 0.999 . S
C1954 H1924 0.950 . S
C1954 C1953 1.524 . S
C1954 C1955 1.415 . S
C1955 H1925 0.950 . S
C1955 C1950 1.363 . S
C1955 C1954 1.415 . S
H1956 C1953 0.999 . S
H1957 C1938 0.913 . S
H1958 C1976 0.951 . S
H1959 C1978 0.951 . S
H1960 C1980 0.950 . S
H1961 C1981 0.950 . S
H1962 C1983 0.950 . S
H1963 C1986 0.950 . S
H1964 C1987 0.950 . S
H1965 C1989 0.950 . S
H1966 C1990 0.950 . S
H1967 C1991 0.951 . S
H1968 C1993 0.951 . S
H1969 C1995 0.950 . S
H1970 C1996 0.950 . S
H1971 C1998 0.950 . S
H1972 C2001 0.950 . S
H1973 C2002 0.950 . S
H1974 C2004 0.950 . S
H1975 C2005 0.950 . S
C1976 H1958 0.951 . S
C1976 C1977 1.366 . S
C1976 C1978 1.388 . S
C1977 C1976 1.366 . S
C1977 C1981 1.385 . S
C1978 H1959 0.951 . S
C1978 C1976 1.388 . S
C1978 C1979 1.366 . S
C1979 C1978 1.366 . S
C1979 C1980 1.414 . S
C1979 C1982 1.499 . S
C1980 H1960 0.950 . S
C1980 C1979 1.414 . S
C1980 C1981 1.374 . S
C1981 H1961 0.950 . S
C1981 C1977 1.385 . S
C1981 C1980 1.374 . S
C1982 C1979 1.499 . S
C1982 C1983 1.373 . S
C1982 C1984 1.389 . S
C1983 H1962 0.950 . S
C1983 C1982 1.373 . S
C1983 C1999 1.377 . S
C1984 C1982 1.389 . S
C1984 C1985 1.524 . S
C1984 C1998 1.377 . S
C1985 C1984 1.524 . S
C1985 C1986 1.397 . S
C1985 C1990 1.363 . S
C1986 H1963 0.950 . S
C1986 C1985 1.397 . S
C1986 C1987 1.334 . S
C1987 H1964 0.950 . S
C1987 C1986 1.334 . S
C1987 C1988 1.287 . S
C1988 C1987 1.287 . S
C1988 C1989 1.524 . S
C1988 H2007 0.913 . S
C1989 H1965 0.950 . S
C1989 C1988 1.524 . S
C1989 C1990 1.415 . S
C1990 H1966 0.950 . S
C1990 C1985 1.363 . S
C1990 C1989 1.415 . S
C1991 H1967 0.951 . S
C1991 C1992 1.366 . S
C1991 C1993 1.388 . S
C1992 C1991 1.366 . S
C1992 C1996 1.385 . S
C1993 H1968 0.951 . S
C1993 C1991 1.388 . S
C1993 C1994 1.366 . S
C1994 C1993 1.366 . S
C1994 C1995 1.414 . S
C1994 C1997 1.499 . S
C1995 H1969 0.950 . S
C1995 C1994 1.414 . S
C1995 C1996 1.374 . S
C1996 H1970 0.950 . S
C1996 C1992 1.385 . S
C1996 C1995 1.374 . S
C1997 C1994 1.499 . S
C1997 C1998 1.373 . S
C1997 C1999 1.389 . S
C1998 H1971 0.950 . S
C1998 C1984 1.377 . S
C1998 C1997 1.373 . S
C1999 C1983 1.377 . S
C1999 C1997 1.389 . S
C1999 C2000 1.524 . S
C2000 C1999 1.524 . S
C2000 C2001 1.397 . S
C2000 C2005 1.363 . S
C2001 H1972 0.950 . S
C2001 C2000 1.397 . S
C2001 C2002 1.334 . S
C2002 H1973 0.950 . S
C2002 C2001 1.334 . S
C2002 C2003 1.287 . S
C2003 C2002 1.287 . S
C2003 C2004 1.524 . S
C2003 H2006 0.999 . S
C2004 H1974 0.950 . S
C2004 C2003 1.524 . S
C2004 C2005 1.415 . S
C2005 H1975 0.950 . S
C2005 C2000 1.363 . S
C2005 C2004 1.415 . S
H2006 C2003 0.999 . S
H2007 C1988 0.913 . S
H2008 C2026 0.951 . S
H2009 C2028 0.951 . S
H2010 C2030 0.950 . S
H2011 C2031 0.950 . S
H2012 C2033 0.950 . S
H2013 C2036 0.950 . S
H2014 C2037 0.950 . S
H2015 C2039 0.950 . S
H2016 C2040 0.950 . S
H2017 C2041 0.951 . S
H2018 C2043 0.951 . S
H2019 C2045 0.950 . S
H2020 C2046 0.950 . S
H2021 C2048 0.950 . S
H2022 C2051 0.950 . S
H2023 C2052 0.950 . S
H2024 C2054 0.950 . S
H2025 C2055 0.950 . S
C2026 H2008 0.951 . S
C2026 C2027 1.366 . S
C2026 C2028 1.388 . S
C2027 C2026 1.366 . S
C2027 C2031 1.385 . S
C2028 H2009 0.951 . S
C2028 C2026 1.388 . S
C2028 C2029 1.366 . S
C2029 C2028 1.366 . S
C2029 C2030 1.414 . S
C2029 C2032 1.499 . S
C2030 H2010 0.950 . S
C2030 C2029 1.414 . S
C2030 C2031 1.374 . S
C2031 H2011 0.950 . S
C2031 C2027 1.385 . S
C2031 C2030 1.374 . S
C2032 C2029 1.499 . S
C2032 C2033 1.373 . S
C2032 C2034 1.389 . S
C2033 H2012 0.950 . S
C2033 C2032 1.373 . S
C2033 C2049 1.377 . S
C2034 C2032 1.389 . S
C2034 C2035 1.524 . S
C2034 C2048 1.377 . S
C2035 C2034 1.524 . S
C2035 C2036 1.397 . S
C2035 C2040 1.363 . S
C2036 H2013 0.950 . S
C2036 C2035 1.397 . S
C2036 C2037 1.334 . S
C2037 H2014 0.950 . S
C2037 C2036 1.334 . S
C2037 C2038 1.287 . S
C2038 C2037 1.287 . S
C2038 C2039 1.524 . S
C2038 H2057 0.913 . S
C2039 H2015 0.950 . S
C2039 C2038 1.524 . S
C2039 C2040 1.415 . S
C2040 H2016 0.950 . S
C2040 C2035 1.363 . S
C2040 C2039 1.415 . S
C2041 H2017 0.951 . S
C2041 C2042 1.366 . S
C2041 C2043 1.388 . S
C2042 C2041 1.366 . S
C2042 C2046 1.385 . S
C2043 H2018 0.951 . S
C2043 C2041 1.388 . S
C2043 C2044 1.366 . S
C2044 C2043 1.366 . S
C2044 C2045 1.414 . S
C2044 C2047 1.499 . S
C2045 H2019 0.950 . S
C2045 C2044 1.414 . S
C2045 C2046 1.374 . S
C2046 H2020 0.950 . S
C2046 C2042 1.385 . S
C2046 C2045 1.374 . S
C2047 C2044 1.499 . S
C2047 C2048 1.373 . S
C2047 C2049 1.389 . S
C2048 H2021 0.950 . S
C2048 C2034 1.377 . S
C2048 C2047 1.373 . S
C2049 C2033 1.377 . S
C2049 C2047 1.389 . S
C2049 C2050 1.524 . S
C2050 C2049 1.524 . S
C2050 C2051 1.397 . S
C2050 C2055 1.363 . S
C2051 H2022 0.950 . S
C2051 C2050 1.397 . S
C2051 C2052 1.334 . S
C2052 H2023 0.950 . S
C2052 C2051 1.334 . S
C2052 C2053 1.287 . S
C2053 C2052 1.287 . S
C2053 C2054 1.524 . S
C2053 H2056 0.999 . S
C2054 H2024 0.950 . S
C2054 C2053 1.524 . S
C2054 C2055 1.415 . S
C2055 H2025 0.950 . S
C2055 C2050 1.363 . S
C2055 C2054 1.415 . S
H2056 C2053 0.999 . S
H2057 C2038 0.913 . S
H2058 C2076 0.951 . S
H2059 C2078 0.951 . S
H2060 C2080 0.950 . S
H2061 C2081 0.950 . S
H2062 C2083 0.950 . S
H2063 C2086 0.950 . S
H2064 C2087 0.950 . S
H2065 C2089 0.950 . S
H2066 C2090 0.950 . S
H2067 C2091 0.951 . S
H2068 C2093 0.951 . S
H2069 C2095 0.950 . S
H2070 C2096 0.950 . S
H2071 C2098 0.950 . S
H2072 C2101 0.950 . S
H2073 C2102 0.950 . S
H2074 C2104 0.950 . S
H2075 C2105 0.950 . S
C2076 H2058 0.951 . S
C2076 C2077 1.366 . S
C2076 C2078 1.388 . S
C2077 C2076 1.366 . S
C2077 C2081 1.385 . S
C2078 H2059 0.951 . S
C2078 C2076 1.388 . S
C2078 C2079 1.366 . S
C2079 C2078 1.366 . S
C2079 C2080 1.414 . S
C2079 C2082 1.499 . S
C2080 H2060 0.950 . S
C2080 C2079 1.414 . S
C2080 C2081 1.374 . S
C2081 H2061 0.950 . S
C2081 C2077 1.385 . S
C2081 C2080 1.374 . S
C2082 C2079 1.499 . S
C2082 C2083 1.373 . S
C2082 C2084 1.389 . S
C2083 H2062 0.950 . S
C2083 C2082 1.373 . S
C2083 C2099 1.377 . S
C2084 C2082 1.389 . S
C2084 C2085 1.524 . S
C2084 C2098 1.377 . S
C2085 C2084 1.524 . S
C2085 C2086 1.397 . S
C2085 C2090 1.363 . S
C2086 H2063 0.950 . S
C2086 C2085 1.397 . S
C2086 C2087 1.334 . S
C2087 H2064 0.950 . S
C2087 C2086 1.334 . S
C2087 C2088 1.287 . S
C2088 C2087 1.287 . S
C2088 C2089 1.524 . S
C2088 H2107 0.913 . S
C2089 H2065 0.950 . S
C2089 C2088 1.524 . S
C2089 C2090 1.415 . S
C2090 H2066 0.950 . S
C2090 C2085 1.363 . S
C2090 C2089 1.415 . S
C2091 H2067 0.951 . S
C2091 C2092 1.366 . S
C2091 C2093 1.388 . S
C2092 C2091 1.366 . S
C2092 C2096 1.385 . S
C2093 H2068 0.951 . S
C2093 C2091 1.388 . S
C2093 C2094 1.366 . S
C2094 C2093 1.366 . S
C2094 C2095 1.414 . S
C2094 C2097 1.499 . S
C2095 H2069 0.950 . S
C2095 C2094 1.414 . S
C2095 C2096 1.374 . S
C2096 H2070 0.950 . S
C2096 C2092 1.385 . S
C2096 C2095 1.374 . S
C2097 C2094 1.499 . S
C2097 C2098 1.373 . S
C2097 C2099 1.389 . S
C2098 H2071 0.950 . S
C2098 C2084 1.377 . S
C2098 C2097 1.373 . S
C2099 C2083 1.377 . S
C2099 C2097 1.389 . S
C2099 C2100 1.524 . S
C2100 C2099 1.524 . S
C2100 C2101 1.397 . S
C2100 C2105 1.363 . S
C2101 H2072 0.950 . S
C2101 C2100 1.397 . S
C2101 C2102 1.334 . S
C2102 H2073 0.950 . S
C2102 C2101 1.334 . S
C2102 C2103 1.287 . S
C2103 C2102 1.287 . S
C2103 C2104 1.524 . S
C2103 H2106 0.999 . S
C2104 H2074 0.950 . S
C2104 C2103 1.524 . S
C2104 C2105 1.415 . S
C2105 H2075 0.950 . S
C2105 C2100 1.363 . S
C2105 C2104 1.415 . S
H2106 C2103 0.999 . S
H2107 C2088 0.913 . S
H2108 C2126 0.951 . S
H2109 C2128 0.951 . S
H2110 C2130 0.950 . S
H2111 C2131 0.950 . S
H2112 C2133 0.950 . S
H2113 C2136 0.950 . S
H2114 C2137 0.950 . S
H2115 C2139 0.950 . S
H2116 C2140 0.950 . S
H2117 C2141 0.951 . S
H2118 C2143 0.951 . S
H2119 C2145 0.950 . S
H2120 C2146 0.950 . S
H2121 C2148 0.950 . S
H2122 C2151 0.950 . S
H2123 C2152 0.950 . S
H2124 C2154 0.950 . S
H2125 C2155 0.950 . S
C2126 H2108 0.951 . S
C2126 C2127 1.366 . S
C2126 C2128 1.388 . S
C2127 C2126 1.366 . S
C2127 C2131 1.385 . S
C2128 H2109 0.951 . S
C2128 C2126 1.388 . S
C2128 C2129 1.366 . S
C2129 C2128 1.366 . S
C2129 C2130 1.414 . S
C2129 C2132 1.499 . S
C2130 H2110 0.950 . S
C2130 C2129 1.414 . S
C2130 C2131 1.374 . S
C2131 H2111 0.950 . S
C2131 C2127 1.385 . S
C2131 C2130 1.374 . S
C2132 C2129 1.499 . S
C2132 C2133 1.373 . S
C2132 C2134 1.389 . S
C2133 H2112 0.950 . S
C2133 C2132 1.373 . S
C2133 C2149 1.377 . S
C2134 C2132 1.389 . S
C2134 C2135 1.524 . S
C2134 C2148 1.377 . S
C2135 C2134 1.524 . S
C2135 C2136 1.397 . S
C2135 C2140 1.363 . S
C2136 H2113 0.950 . S
C2136 C2135 1.397 . S
C2136 C2137 1.334 . S
C2137 H2114 0.950 . S
C2137 C2136 1.334 . S
C2137 C2138 1.287 . S
C2138 C2137 1.287 . S
C2138 C2139 1.524 . S
C2138 H2157 0.913 . S
C2139 H2115 0.950 . S
C2139 C2138 1.524 . S
C2139 C2140 1.415 . S
C2140 H2116 0.950 . S
C2140 C2135 1.363 . S
C2140 C2139 1.415 . S
C2141 H2117 0.951 . S
C2141 C2142 1.366 . S
C2141 C2143 1.388 . S
C2142 C2141 1.366 . S
C2142 C2146 1.385 . S
C2143 H2118 0.951 . S
C2143 C2141 1.388 . S
C2143 C2144 1.366 . S
C2144 C2143 1.366 . S
C2144 C2145 1.414 . S
C2144 C2147 1.499 . S
C2145 H2119 0.950 . S
C2145 C2144 1.414 . S
C2145 C2146 1.374 . S
C2146 H2120 0.950 . S
C2146 C2142 1.385 . S
C2146 C2145 1.374 . S
C2147 C2144 1.499 . S
C2147 C2148 1.373 . S
C2147 C2149 1.389 . S
C2148 H2121 0.950 . S
C2148 C2134 1.377 . S
C2148 C2147 1.373 . S
C2149 C2133 1.377 . S
C2149 C2147 1.389 . S
C2149 C2150 1.524 . S
C2150 C2149 1.524 . S
C2150 C2151 1.397 . S
C2150 C2155 1.363 . S
C2151 H2122 0.950 . S
C2151 C2150 1.397 . S
C2151 C2152 1.334 . S
C2152 H2123 0.950 . S
C2152 C2151 1.334 . S
C2152 C2153 1.287 . S
C2153 C2152 1.287 . S
C2153 C2154 1.524 . S
C2153 H2156 0.999 . S
C2154 H2124 0.950 . S
C2154 C2153 1.524 . S
C2154 C2155 1.415 . S
C2155 H2125 0.950 . S
C2155 C2150 1.363 . S
C2155 C2154 1.415 . S
H2156 C2153 0.999 . S
H2157 C2138 0.913 . S
H2158 C2176 0.951 . S
H2159 C2178 0.951 . S
H2160 C2180 0.950 . S
H2161 C2181 0.950 . S
H2162 C2183 0.950 . S
H2163 C2186 0.950 . S
H2164 C2187 0.950 . S
H2165 C2189 0.950 . S
H2166 C2190 0.950 . S
H2167 C2191 0.951 . S
H2168 C2193 0.951 . S
H2169 C2195 0.950 . S
H2170 C2196 0.950 . S
H2171 C2198 0.950 . S
H2172 C2201 0.950 . S
H2173 C2202 0.988 . S
H2174 C2204 0.950 . S
H2175 C2205 0.950 . S
C2176 H2158 0.951 . S
C2176 C2177 1.366 . S
C2176 C2178 1.388 . S
C2177 C2176 1.366 . S
C2177 C2181 1.385 . S
C2178 H2159 0.951 . S
C2178 C2176 1.388 . S
C2178 C2179 1.366 . S
C2179 C2178 1.366 . S
C2179 C2180 1.414 . S
C2179 C2182 1.499 . S
C2180 H2160 0.950 . S
C2180 C2179 1.414 . S
C2180 C2181 1.374 . S
C2181 H2161 0.950 . S
C2181 C2177 1.385 . S
C2181 C2180 1.374 . S
C2182 C2179 1.499 . S
C2182 C2183 1.373 . S
C2182 C2184 1.389 . S
C2183 H2162 0.950 . S
C2183 C2182 1.373 . S
C2183 C2199 1.377 . S
C2184 C2182 1.389 . S
C2184 C2185 1.524 . S
C2184 C2198 1.377 . S
C2185 C2184 1.524 . S
C2185 C2186 1.397 . S
C2185 C2190 1.363 . S
C2186 H2163 0.950 . S
C2186 C2185 1.397 . S
C2186 C2187 1.334 . S
C2187 H2164 0.950 . S
C2187 C2186 1.334 . S
C2187 C2188 1.287 . S
C2188 C2187 1.287 . S
C2188 C2189 1.524 . S
C2188 H2207 0.913 . S
C2189 H2165 0.950 . S
C2189 C2188 1.524 . S
C2189 C2190 1.415 . S
C2190 H2166 0.950 . S
C2190 C2185 1.363 . S
C2190 C2189 1.415 . S
C2191 H2167 0.951 . S
C2191 C2192 1.366 . S
C2191 C2193 1.388 . S
C2192 C2191 1.366 . S
C2192 C2196 1.385 . S
C2193 H2168 0.951 . S
C2193 C2191 1.388 . S
C2193 C2194 1.366 . S
C2194 C2193 1.366 . S
C2194 C2195 1.414 . S
C2194 C2197 1.499 . S
C2195 H2169 0.950 . S
C2195 C2194 1.414 . S
C2195 C2196 1.374 . S
C2196 H2170 0.950 . S
C2196 C2192 1.385 . S
C2196 C2195 1.374 . S
C2197 C2194 1.499 . S
C2197 C2198 1.373 . S
C2197 C2199 1.389 . S
C2198 H2171 0.950 . S
C2198 C2184 1.377 . S
C2198 C2197 1.373 . S
C2199 C2183 1.377 . S
C2199 C2197 1.389 . S
C2199 C2200 1.524 . S
C2200 C2199 1.524 . S
C2200 C2201 1.397 . S
C2200 C2205 1.363 . S
C2201 H2172 0.950 . S
C2201 C2200 1.397 . S
C2201 C2202 1.334 . S
C2202 H2173 0.988 . S
C2202 C2201 1.334 . S
C2202 C2203 1.287 . S
C2203 C2202 1.287 . S
C2203 C2204 1.524 . S
C2203 H2206 0.999 . S
C2204 H2174 0.950 . S
C2204 C2203 1.524 . S
C2204 C2205 1.415 . S
C2205 H2175 0.950 . S
C2205 C2200 1.363 . S
C2205 C2204 1.415 . S
H2206 C2203 0.999 . S
H2207 C2188 0.913 . S
C642 C497 1.628 . S
C627 C47 1.520 . S
C692 C523 1.491 . S
C677 C115 1.455 . S
C742 C537 1.544 . S
C727 C153 1.413 . S
C792 C539 1.681 . S
C777 C233 1.561 . S
C827 C283 1.452 . S
C842 C536 1.491 . S
C892 C538 1.628 . S
C877 C357 1.521 . S
C942 C496 1.680 . S
C927 C401 1.552 . S
C992 C522 1.543 . S
C977 C463 1.413 . S
C1042 C524 1.380 . S
C1027 C469 1.346 . S
C1092 C550 1.531 . S
C1077 C277 1.431 . S
C1142 C508 1.512 . S
C1127 C363 1.494 . S
C1192 C510 1.356 . S
C1177 C407 1.330 . S
C1242 C509 1.531 . S
C1227 C109 1.429 . S
C1292 C511 1.380 . S
C1277 C159 1.347 . S
C1342 C525 1.356 . S
C1327 C239 1.326 . S
C1392 C551 1.512 . S
C1377 C53 1.494 . S
C1442 C553 1.628 . S
C1427 C481 1.520 . S
C1477 C301 1.456 . S
C1492 C579 1.492 . S
C1527 C339 1.415 . S
C1542 C592 1.544 . S
C1577 C419 1.562 . S
C1592 C595 1.681 . S
C1627 C97 1.453 . S
C1642 C593 1.491 . S
C1677 C171 1.521 . S
C1692 C594 1.628 . S
C1727 C215 1.553 . S
C1742 C552 1.680 . S
C1792 C578 1.544 . S
C1777 C29 1.414 . S
C1842 C581 1.380 . S
C1827 C35 1.346 . S
C1877 C91 1.433 . S
C1892 C606 1.531 . S
C1927 C177 1.494 . S
C1942 C564 1.512 . S
C1977 C221 1.330 . S
C1992 C566 1.356 . S
C2042 C565 1.531 . S
C2027 C295 1.429 . S
C2092 C567 1.380 . S
C2077 C345 1.346 . S
C2127 C425 1.327 . S
C2142 C580 1.356 . S
C2192 C607 1.513 . S
C2177 C487 1.494 . S
