# Generated by pormake.
# Topology sqc, (4,8)-cn, num edge types: 1
# Building blocks:
#     Node 0, Type 0, BuildingBlock: AZAVOO_clean_linker_0, # of connection points: 4
#     Node 1, Type 0, BuildingBlock: AZAVOO_clean_linker_0, # of connection points: 4
#     Node 2, Type 0, BuildingBlock: AZAVOO_clean_linker_0, # of connection points: 4
#     Node 3, Type 0, BuildingBlock: AZAVOO_clean_linker_0, # of connection points: 4
#     Node 4, Type 0, BuildingBlock: AZAVOO_clean_linker_0, # of connection points: 4
#     Node 5, Type 0, BuildingBlock: AZAVOO_clean_linker_0, # of connection points: 4
#     Node 6, Type 0, BuildingBlock: AZAVOO_clean_linker_0, # of connection points: 4
#     Node 7, Type 0, BuildingBlock: AZAVOO_clean_linker_0, # of connection points: 4
#     Node 8, Type 1, BuildingBlock: VETTIZ_charged_sbu_0, # of connection points: 8
#     Node 9, Type 1, BuildingBlock: VETTIZ_charged_sbu_0, # of connection points: 8
#     Node 10, Type 1, BuildingBlock: VETTIZ_charged_sbu_0, # of connection points: 8
#     Node 11, Type 1, BuildingBlock: VETTIZ_charged_sbu_0, # of connection points: 8
#     Edge 12, Type (0, 1), BuildingBlock: EZIPEK_clean_linker_0, # of connection points: 2
#     Edge 13, Type (0, 1), BuildingBlock: EZIPEK_clean_linker_0, # of connection points: 2
#     Edge 14, Type (0, 1), BuildingBlock: EZIPEK_clean_linker_0, # of connection points: 2
#     Edge 15, Type (0, 1), BuildingBlock: EZIPEK_clean_linker_0, # of connection points: 2
#     Edge 16, Type (0, 1), BuildingBlock: EZIPEK_clean_linker_0, # of connection points: 2
#     Edge 17, Type (0, 1), BuildingBlock: EZIPEK_clean_linker_0, # of connection points: 2
#     Edge 18, Type (0, 1), BuildingBlock: EZIPEK_clean_linker_0, # of connection points: 2
#     Edge 19, Type (0, 1), BuildingBlock: EZIPEK_clean_linker_0, # of connection points: 2
#     Edge 20, Type (0, 1), BuildingBlock: EZIPEK_clean_linker_0, # of connection points: 2
#     Edge 21, Type (0, 1), BuildingBlock: EZIPEK_clean_linker_0, # of connection points: 2
#     Edge 22, Type (0, 1), BuildingBlock: EZIPEK_clean_linker_0, # of connection points: 2
#     Edge 23, Type (0, 1), BuildingBlock: EZIPEK_clean_linker_0, # of connection points: 2
#     Edge 24, Type (0, 1), BuildingBlock: EZIPEK_clean_linker_0, # of connection points: 2
#     Edge 25, Type (0, 1), BuildingBlock: EZIPEK_clean_linker_0, # of connection points: 2
#     Edge 26, Type (0, 1), BuildingBlock: EZIPEK_clean_linker_0, # of connection points: 2
#     Edge 27, Type (0, 1), BuildingBlock: EZIPEK_clean_linker_0, # of connection points: 2
#     Edge 28, Type (0, 1), BuildingBlock: EZIPEK_clean_linker_0, # of connection points: 2
#     Edge 29, Type (0, 1), BuildingBlock: EZIPEK_clean_linker_0, # of connection points: 2
#     Edge 30, Type (0, 1), BuildingBlock: EZIPEK_clean_linker_0, # of connection points: 2
#     Edge 31, Type (0, 1), BuildingBlock: EZIPEK_clean_linker_0, # of connection points: 2
#     Edge 32, Type (0, 1), BuildingBlock: EZIPEK_clean_linker_0, # of connection points: 2
#     Edge 33, Type (0, 1), BuildingBlock: EZIPEK_clean_linker_0, # of connection points: 2
#     Edge 34, Type (0, 1), BuildingBlock: EZIPEK_clean_linker_0, # of connection points: 2
#     Edge 35, Type (0, 1), BuildingBlock: EZIPEK_clean_linker_0, # of connection points: 2
#     Edge 36, Type (0, 1), BuildingBlock: EZIPEK_clean_linker_0, # of connection points: 2
#     Edge 37, Type (0, 1), BuildingBlock: EZIPEK_clean_linker_0, # of connection points: 2
#     Edge 38, Type (0, 1), BuildingBlock: EZIPEK_clean_linker_0, # of connection points: 2
#     Edge 39, Type (0, 1), BuildingBlock: EZIPEK_clean_linker_0, # of connection points: 2
#     Edge 40, Type (0, 1), BuildingBlock: EZIPEK_clean_linker_0, # of connection points: 2
#     Edge 41, Type (0, 1), BuildingBlock: EZIPEK_clean_linker_0, # of connection points: 2
#     Edge 42, Type (0, 1), BuildingBlock: EZIPEK_clean_linker_0, # of connection points: 2
#     Edge 43, Type (0, 1), BuildingBlock: EZIPEK_clean_linker_0, # of connection points: 2
# Relax obj value: 0.176
# Max RMSD: 0.299
# Mean RMSD: 0.234
data_MOF--net-sqc--node1-VETTIZ_charged_sbu_0--node2-AZAVOO_clean_linker_0--edge1-EZIPEK_clean_linker_0
_symmetry_space_group_name_H-M    P1
_symmetry_Int_Tables_number       1
_symmetry_cell_setting            triclinic
loop_
_symmetry_equiv_pos_as_xyz
'x, y, z'
_cell_length_a     20.866886
_cell_length_b     20.980692
_cell_length_c     71.15627
_cell_angle_alpha  90.139922
_cell_angle_beta   90.177133
_cell_angle_gamma 91.018434
loop_
_atom_site_label
_atom_site_type_symbol
_atom_site_fract_x
_atom_site_fract_y
_atom_site_fract_z
_atom_type_partial_charge
H0 H 0.10978 0.27158 0.64819 0.0
H1 H 0.6862 0.76372 0.55678 0.0
H2 H 0.1557 0.14827 0.56162 0.0
H3 H 0.25328 0.17299 0.57971 0.0
H4 H 0.30833 0.97633 0.57587 0.0
H5 H 0.20788 0.95054 0.55919 0.0
H6 H 0.02216 0.15689 0.5775 0.0
H7 H 0.04828 0.22001 0.60551 0.0
H8 H 0.15451 0.06219 0.62792 0.0
H9 H 0.12776 0.99929 0.5998 0.0
H10 H 0.8937 0.08346 0.56006 0.0
H11 H 0.81034 0.11632 0.58167 0.0
H12 H 0.90334 0.01607 0.62673 0.0
H13 H 0.98376 0.97684 0.60432 0.0
H14 H 0.87141 0.01376 0.53347 0.0
H15 H 0.76669 0.95858 0.53266 0.0
H16 H 0.84446 0.80602 0.5659 0.0
H17 H 0.94806 0.86263 0.56704 0.0
H18 H 0.0028 0.03542 0.50253 0.0
H19 H 0.91711 0.00683 0.48012 0.0
H20 H 0.89306 0.82489 0.50742 0.0
H21 H 0.98596 0.84888 0.52735 0.0
H22 H 0.14261 0.10198 0.52044 0.0
H23 H 0.23517 0.10375 0.49916 0.0
H24 H 0.2353 0.89836 0.49905 0.0
H25 H 0.14274 0.89647 0.52046 0.0
O26 O 0.09906 0.24521 0.63741 0.0
O27 O 0.155 0.16347 0.64803 0.0
O28 O 0.68984 0.86577 0.53953 0.0
O29 O 0.72678 0.78676 0.55706 0.0
C30 C 0.1053 0.02814 0.55514 0.0
C31 C 0.0584 0.03637 0.56932 0.0
C32 C 0.99616 0.01071 0.56695 0.0
C33 C 0.98079 0.97513 0.55072 0.0
C34 C 0.02478 0.97159 0.53548 0.0
C35 C 0.08764 0.99902 0.53766 0.0
C36 C 0.17335 0.04714 0.55953 0.0
C37 C 0.18928 0.1106 0.56434 0.0
C38 C 0.24499 0.12475 0.57469 0.0
C39 C 0.28733 0.07618 0.57962 0.0
C40 C 0.27578 0.01434 0.57253 0.0
C41 C 0.21874 -0.00027 0.56282 0.0
C42 C 0.07356 0.07377 0.58658 0.0
C43 C 0.05099 0.13602 0.5885 0.0
C44 C 0.0661 0.17201 0.60449 0.0
C45 C 0.10401 0.14637 0.61888 0.0
C46 C 0.12569 0.08353 0.61702 0.0
C47 C 0.11051 0.04751 0.60101 0.0
C48 C 0.94441 0.02692 0.58047 0.0
C49 C 0.89467 0.06588 0.57434 0.0
C50 C 0.84721 0.08483 0.58671 0.0
C51 C 0.85035 0.0683 0.60579 0.0
C52 C 0.89949 0.02846 0.61201 0.0
C53 C 0.94574 0.00696 0.59932 0.0
C54 C 0.9173 0.94172 0.55004 0.0
C55 C 0.86559 0.96827 0.54043 0.0
C56 C 0.80608 0.93666 0.53999 0.0
C57 C 0.79754 0.87747 0.54895 0.0
C58 C 0.84946 0.85133 0.55874 0.0
C59 C 0.90865 0.8835 0.55941 0.0
C60 C 0.9996 0.94523 0.51719 0.0
C61 C 0.98225 0.98766 0.50285 0.0
C62 C 0.932 0.97185 0.49034 0.0
C63 C 0.89524 0.91549 0.4929 0.0
C64 C 0.9187 0.86971 0.50549 0.0
C65 C 0.97239 0.88331 0.51681 0.0
C66 C 0.13553 0.99904 0.52207 0.0
C67 C 0.16168 0.05722 0.51555 0.0
C68 C 0.21462 0.05834 0.50347 0.0
C69 C 0.24252 0.00125 0.49766 0.0
C70 C 0.21459 0.94298 0.50341 0.0
C71 C 0.1615 0.94186 0.51551 0.0
C72 C 0.12096 0.18526 0.63568 0.0
C73 C 0.73475 0.8432 0.54819 0.0
H74 H 0.49756 0.74544 0.68629 0.0
H75 H 0.3352 0.16919 0.83198 0.0
H76 H 0.23019 0.65239 0.76034 0.0
H77 H 0.25058 0.5627 0.74051 0.0
H78 H 0.41021 0.51322 0.77606 0.0
H79 H 0.38971 0.6051 0.7954 0.0
H80 H 0.30037 0.737 0.74447 0.0
H81 H 0.36761 0.73841 0.71644 0.0
H82 H 0.53691 0.73853 0.75162 0.0
H83 H 0.46886 0.73438 0.7796 0.0
H84 H 0.30814 0.86927 0.75583 0.0
H85 H 0.36392 0.96123 0.74202 0.0
H86 H 0.50806 0.95409 0.78558 0.0
H87 H 0.45145 0.86142 0.79959 0.0
H88 H 0.22652 0.91542 0.7841 0.0
H89 H 0.23103 0.03105 0.78863 0.0
H90 H 0.36125 0.00706 0.83536 0.0
H91 H 0.35942 0.8918 0.82989 0.0
H92 H 0.13137 0.80895 0.80579 0.0
H93 H 0.07419 0.89336 0.82259 0.0
H94 H 0.2247 0.90179 0.86405 0.0
H95 H 0.28042 0.81646 0.84776 0.0
H96 H 0.19832 0.60129 0.79613 0.0
H97 H 0.19697 0.50395 0.81425 0.0
H98 H 0.25243 0.61104 0.86376 0.0
H99 H 0.27505 0.70359 0.84409 0.0
O100 O 0.47211 0.74002 0.69754 0.0
O101 O 0.55482 0.76196 0.71639 0.0
O102 O 0.26863 0.13352 0.80506 0.0
O103 O 0.33315 0.12367 0.82977 0.0
C104 C 0.30178 0.69831 0.78939 0.0
C105 C 0.33917 0.74676 0.78086 0.0
C106 C 0.33792 0.80909 0.78783 0.0
C107 C 0.29587 0.82615 0.80223 0.0
C108 C 0.25751 0.77933 0.81132 0.0
C109 C 0.26351 0.71337 0.80572 0.0
C110 C 0.30517 0.63346 0.78036 0.0
C111 C 0.26688 0.61943 0.76459 0.0
C112 C 0.27803 0.56567 0.75331 0.0
C113 C 0.32584 0.5209 0.75786 0.0
C114 C 0.36699 0.53883 0.77307 0.0
C115 C 0.35611 0.59296 0.78426 0.0
C116 C 0.37963 0.73412 0.76407 0.0
C117 C 0.35189 0.73457 0.7461 0.0
C118 C 0.39048 0.7363 0.7301 0.0
C119 C 0.45759 0.73915 0.7318 0.0
C120 C 0.48534 0.73653 0.74983 0.0
C121 C 0.44662 0.73358 0.76583 0.0
C122 C 0.37618 0.85933 0.77858 0.0
C123 C 0.35225 0.88692 0.7622 0.0
C124 C 0.38365 0.93919 0.75447 0.0
C125 C 0.43922 0.96405 0.76303 0.0
C126 C 0.46483 0.93516 0.77902 0.0
C127 C 0.43298 0.88272 0.78687 0.0
C128 C 0.29127 0.89515 0.80699 0.0
C129 C 0.25537 0.93523 0.79544 0.0
C130 C 0.25854 0.00125 0.79796 0.0
C131 C 0.29597 0.02826 0.8125 0.0
C132 C 0.33138 0.98781 0.82417 0.0
C133 C 0.32979 0.92191 0.82124 0.0
C134 C 0.21029 0.80449 0.82551 0.0
C135 C 0.15041 0.82611 0.81909 0.0
C136 C 0.11838 0.87574 0.82846 0.0
C137 C 0.1462 0.90631 0.84425 0.0
C138 C 0.20256 0.88042 0.85171 0.0
C139 C 0.23377 0.83009 0.8426 0.0
C140 C 0.24009 0.66037 0.81819 0.0
C141 C 0.21414 0.60368 0.81058 0.0
C142 C 0.21135 0.54793 0.8212 0.0
C143 C 0.22418 0.54918 0.84064 0.0
C144 C 0.24309 0.60773 0.84881 0.0
C145 C 0.25368 0.66174 0.8376 0.0
C146 C 0.49803 0.7475 0.71484 0.0
C147 C 0.29828 0.09831 0.81548 0.0
H148 H 0.48538 0.79608 0.14544 0.0
H149 H 0.89453 0.33277 0.06595 0.0
H150 H 0.42551 0.94689 0.06256 0.0
H151 H 0.32916 0.91972 0.08067 0.0
H152 H 0.28679 0.11926 0.08594 0.0
H153 H 0.38581 0.14663 0.06877 0.0
H154 H 0.56571 0.9255 0.07651 0.0
H155 H 0.54086 0.85585 0.10314 0.0
H156 H 0.44332 0.01078 0.13042 0.0
H157 H 0.46931 0.08022 0.10381 0.0
H158 H 0.69423 0.00373 0.05495 0.0
H159 H 0.79541 0.97942 0.07019 0.0
H160 H 0.72012 0.04534 0.12308 0.0
H161 H 0.62318 0.08201 0.10675 0.0
H162 H 0.71784 0.08672 0.03466 0.0
H163 H 0.81904 0.14759 0.03457 0.0
H164 H 0.73643 0.2842 0.07266 0.0
H165 H 0.63566 0.22238 0.07244 0.0
H166 H 0.57582 0.04137 0.00878 0.0
H167 H 0.66158 0.05103 0.98539 0.0
H168 H 0.70268 0.24251 0.00441 0.0
H169 H 0.61229 0.23538 0.02627 0.0
H170 H 0.42297 0.0101 0.02304 0.0
H171 H 0.33349 0.02991 0.00134 0.0
H172 H 0.36609 0.23231 0.00721 0.0
H173 H 0.45558 0.21256 0.02899 0.0
O174 O 0.49548 0.82477 0.1352 0.0
O175 O 0.44093 0.90419 0.14784 0.0
O176 O 0.89109 0.24278 0.04351 0.0
O177 O 0.85491 0.30809 0.06556 0.0
C178 C 0.4821 0.06558 0.05908 0.0
C179 C 0.53248 0.049 0.07169 0.0
C180 C 0.59572 0.07146 0.06855 0.0
C181 C 0.60796 0.11312 0.05346 0.0
C182 C 0.56209 0.12009 0.03886 0.0
C183 C 0.49762 0.09802 0.04192 0.0
C184 C 0.414 0.04898 0.0645 0.0
C185 C 0.39498 0.98494 0.06725 0.0
C186 C 0.33992 0.96939 0.07771 0.0
C187 C 0.30116 0.01738 0.08521 0.0
C188 C 0.31633 0.08127 0.08069 0.0
C189 C 0.37256 0.09691 0.07065 0.0
C190 C 0.51924 0.00782 0.08823 0.0
C191 C 0.53942 0.94441 0.08832 0.0
C192 C 0.52497 0.9047 0.10352 0.0
C193 C 0.4899 0.9277 0.11888 0.0
C194 C 0.47026 0.99153 0.11879 0.0
C195 C 0.48507 0.03131 0.10363 0.0
C196 C 0.65173 0.04689 0.07946 0.0
C197 C 0.70023 0.01532 0.06969 0.0
C198 C 0.75783 0.00053 0.07848 0.0
C199 C 0.76596 0.00999 0.0979 0.0
C200 C 0.71563 0.03792 0.10806 0.0
C201 C 0.65973 0.05782 0.09883 0.0
C202 C 0.66955 0.15016 0.05337 0.0
C203 C 0.72196 0.12976 0.04286 0.0
C204 C 0.77951 0.16471 0.04289 0.0
C205 C 0.78583 0.22084 0.05362 0.0
C206 C 0.73323 0.24112 0.06427 0.0
C207 C 0.67563 0.20596 0.06416 0.0
C208 C 0.58803 0.13705 0.01975 0.0
C209 C 0.60044 0.08691 0.00716 0.0
C210 C 0.65075 0.09189 0.99408 0.0
C211 C 0.69156 0.14608 0.99386 0.0
C212 C 0.67362 0.19926 0.00466 0.0
C213 C 0.62107 0.19549 0.01699 0.0
C214 C 0.44643 0.10983 0.02761 0.0
C215 C 0.41135 0.05878 0.01955 0.0
C216 C 0.36036 0.07004 0.00713 0.0
C217 C 0.34314 0.13261 0.00257 0.0
C218 C 0.3787 0.1837 0.01041 0.0
C219 C 0.42993 0.1724 0.02277 0.0
C220 C 0.47384 0.88508 0.13487 0.0
C221 C 0.84712 0.25779 0.05384 0.0
H222 H 0.13329 0.21464 0.18967 0.0
H223 H 0.35389 0.73057 0.30046 0.0
H224 H 0.20774 0.16066 0.30373 0.0
H225 H 0.18092 0.06521 0.28501 0.0
H226 H 0.36313 0.08193 0.25687 0.0
H227 H 0.39158 0.17428 0.27652 0.0
H228 H 0.16703 0.28065 0.26907 0.0
H229 H 0.13412 0.25806 0.23661 0.0
H230 H 0.33236 0.23346 0.22126 0.0
H231 H 0.36484 0.25911 0.25349 0.0
H232 H 0.17661 0.4186 0.28538 0.0
H233 H 0.14866 0.50407 0.26337 0.0
H234 H 0.329 0.48112 0.23495 0.0
H235 H 0.35748 0.39635 0.25719 0.0
H236 H 0.21972 0.44992 0.32275 0.0
H237 H 0.21851 0.56634 0.32396 0.0
H238 H 0.39676 0.57399 0.29315 0.0
H239 H 0.39948 0.4575 0.29316 0.0
H240 H 0.24661 0.36955 0.34754 0.0
H241 H 0.27127 0.45978 0.36837 0.0
H242 H 0.47188 0.44402 0.35531 0.0
H243 H 0.44612 0.35773 0.33294 0.0
H244 H 0.26853 0.22886 0.34848 0.0
H245 H 0.29664 0.13882 0.36902 0.0
H246 H 0.45603 0.09621 0.33305 0.0
H247 H 0.42891 0.1865 0.31281 0.0
O248 O 0.14751 0.2249 0.2023 0.0
O249 O 0.25047 0.21718 0.19482 0.0
O250 O 0.26237 0.67798 0.31645 0.0
O251 O 0.35381 0.68444 0.30054 0.0
C252 C 0.30665 0.24363 0.29671 0.0
C253 C 0.28845 0.28898 0.28301 0.0
C254 C 0.28865 0.35413 0.28739 0.0
C255 C 0.30749 0.37507 0.30542 0.0
C256 C 0.32524 0.3306 0.31956 0.0
C257 C 0.32562 0.26393 0.31513 0.0
C258 C 0.30136 0.17499 0.29135 0.0
C259 C 0.24334 0.14163 0.2943 0.0
C260 C 0.22782 0.08754 0.28348 0.0
C261 C 0.26924 0.06761 0.26912 0.0
C262 C 0.33008 0.09685 0.26766 0.0
C263 C 0.34644 0.14943 0.27894 0.0
C264 C 0.26816 0.2692 0.26378 0.0
C265 C 0.20318 0.26978 0.25871 0.0
C266 C 0.18456 0.25747 0.24014 0.0
C267 C 0.23051 0.24325 0.2264 0.0
C268 C 0.29566 0.24343 0.23153 0.0
C269 C 0.3143 0.25714 0.24999 0.0
C270 C 0.26916 0.40147 0.27292 0.0
C271 C 0.20982 0.4316 0.2743 0.0
C272 C 0.19387 0.48008 0.26177 0.0
C273 C 0.23682 0.49863 0.24758 0.0
C274 C 0.29524 0.46709 0.24578 0.0
C275 C 0.31137 0.41887 0.2584 0.0
C276 C 0.31119 0.44515 0.30866 0.0
C277 C 0.25986 0.47676 0.317 0.0
C278 C 0.25864 0.54332 0.31733 0.0
C279 C 0.30775 0.57953 0.30873 0.0
C280 C 0.35842 0.54764 0.30002 0.0
C281 C 0.36049 0.48111 0.3002 0.0
C282 C 0.34421 0.35737 0.33834 0.0
C283 C 0.2963 0.3836 0.3497 0.0
C284 C 0.31034 0.43571 0.36152 0.0
C285 C 0.37319 0.46052 0.36294 0.0
C286 C 0.42277 0.42679 0.35416 0.0
C287 C 0.40821 0.3767 0.34156 0.0
C288 C 0.34663 0.21488 0.32906 0.0
C289 C 0.31014 0.20087 0.34517 0.0
C290 C 0.32573 0.14903 0.35677 0.0
C291 C 0.3779 0.11002 0.35242 0.0
C292 C 0.41516 0.12497 0.33658 0.0
C293 C 0.39985 0.17683 0.32509 0.0
C294 C 0.21038 0.22779 0.20687 0.0
C295 C 0.30634 0.65022 0.30883 0.0
H296 H 0.94609 0.28643 0.18401 0.0
H297 H 0.81278 0.72115 0.33977 0.0
H298 H 0.75858 0.17018 0.27944 0.0
H299 H 0.79005 0.08295 0.25851 0.0
H300 H 0.98569 0.10437 0.27749 0.0
H301 H 0.95378 0.19032 0.2988 0.0
H302 H 0.79378 0.29074 0.25289 0.0
H303 H 0.84016 0.28919 0.22132 0.0
H304 H 0.03021 0.29521 0.24574 0.0
H305 H 0.98314 0.29779 0.27717 0.0
H306 H 0.76829 0.41671 0.26555 0.0
H307 H 0.79204 0.50821 0.24503 0.0
H308 H 0.98017 0.52753 0.26993 0.0
H309 H 0.95652 0.43537 0.29037 0.0
H310 H 0.70967 0.44545 0.30256 0.0
H311 H 0.69069 0.55731 0.31021 0.0
H312 H 0.88081 0.57297 0.33434 0.0
H313 H 0.89806 0.46026 0.32727 0.0
H314 H 0.67407 0.35342 0.32537 0.0
H315 H 0.63312 0.4263 0.34903 0.0
H316 H 0.8067 0.40624 0.38144 0.0
H317 H 0.85062 0.33865 0.35646 0.0
H318 H 0.70277 0.18777 0.31315 0.0
H319 H 0.66861 0.10191 0.3347 0.0
H320 H 0.84082 0.13193 0.3674 0.0
H321 H 0.87508 0.21741 0.34582 0.0
O322 O 0.92873 0.28677 0.1966 0.0
O323 O 0.02518 0.2959 0.20982 0.0
O324 O 0.72212 0.66651 0.32371 0.0
O325 O 0.8191 0.6769 0.33651 0.0
C326 C 0.8402 0.25108 0.29786 0.0
C327 C 0.85692 0.30309 0.28611 0.0
C328 C 0.84545 0.36576 0.29194 0.0
C329 C 0.8169 0.37744 0.30938 0.0
C330 C 0.79907 0.32602 0.32122 0.0
C331 C 0.81072 0.26239 0.31551 0.0
C332 C 0.85366 0.18598 0.29088 0.0
C333 C 0.80751 0.15381 0.27984 0.0
C334 C 0.82564 0.1047 0.26773 0.0
C335 C 0.8903 0.08774 0.26633 0.0
C336 C 0.93559 0.11667 0.27839 0.0
C337 C 0.91727 0.16516 0.29069 0.0
C338 C 0.88519 0.29312 0.26725 0.0
C339 C 0.84542 0.29066 0.25135 0.0
C340 C 0.87204 0.2904 0.23336 0.0
C341 C 0.93896 0.29184 0.231 0.0
C342 C 0.97858 0.29357 0.24705 0.0
C343 C 0.95187 0.2945 0.26501 0.0
C344 C 0.86083 0.41976 0.27932 0.0
C345 C 0.81469 0.44052 0.26648 0.0
C346 C 0.82812 0.49243 0.25487 0.0
C347 C 0.88765 0.52418 0.25611 0.0
C348 C 0.93399 0.50333 0.26891 0.0
C349 C 0.92063 0.45109 0.28046 0.0
C350 C 0.80453 0.4445 0.31484 0.0
C351 C 0.74666 0.47289 0.30981 0.0
C352 C 0.73617 0.53688 0.31406 0.0
C353 C 0.78409 0.57399 0.32303 0.0
C354 C 0.84274 0.54566 0.32756 0.0
C355 C 0.85262 0.48127 0.32365 0.0
C356 C 0.76569 0.34149 0.33901 0.0
C357 C 0.70253 0.36286 0.33786 0.0
C358 C 0.67949 0.40514 0.3513 0.0
C359 C 0.71804 0.42416 0.36664 0.0
C360 C 0.77706 0.39408 0.36938 0.0
C361 C 0.80162 0.35441 0.35534 0.0
C362 C 0.79157 0.20853 0.32787 0.0
C363 C 0.7334 0.17536 0.32485 0.0
C364 C 0.71387 0.12668 0.33713 0.0
C365 C 0.75226 0.11073 0.35261 0.0
C366 C 0.81066 0.14359 0.35553 0.0
C367 C 0.83017 0.19215 0.34324 0.0
C368 C 0.96712 0.29164 0.21188 0.0
C369 C 0.77303 0.64188 0.32771 0.0
H370 H 0.72235 0.91693 0.67168 0.0
H371 H 0.80054 0.37048 0.80005 0.0
H372 H 0.9065 0.94721 0.77003 0.0
H373 H 0.87988 0.04221 0.75147 0.0
H374 H 0.68084 0.01607 0.76609 0.0
H375 H 0.70827 0.92507 0.78571 0.0
H376 H 0.86357 0.84044 0.73887 0.0
H377 H 0.82179 0.87088 0.70804 0.0
H378 H 0.62937 0.86528 0.73035 0.0
H379 H 0.67163 0.83492 0.76105 0.0
H380 H 0.82115 0.67506 0.74456 0.0
H381 H 0.75172 0.58768 0.73298 0.0
H382 H 0.60368 0.64217 0.77179 0.0
H383 H 0.67352 0.72926 0.78351 0.0
H384 H 0.91994 0.65395 0.77395 0.0
H385 H 0.92391 0.53741 0.7729 0.0
H386 H 0.75697 0.52612 0.80867 0.0
H387 H 0.75101 0.64234 0.8085 0.0
H388 H 0.97669 0.73322 0.81206 0.0
H389 H 0.00543 0.64023 0.83114 0.0
H390 H 0.81202 0.6289 0.85202 0.0
H391 H 0.78555 0.72513 0.8345 0.0
H392 H 0.95377 0.8846 0.81852 0.0
H393 H 0.9605 0.9745 0.84101 0.0
H394 H 0.75421 0.98495 0.8411 0.0
H395 H 0.7476 0.89438 0.81939 0.0
O396 O 0.73772 0.90376 0.68389 0.0
O397 O 0.63932 0.89599 0.69568 0.0
O398 O 0.88384 0.42489 0.78105 0.0
O399 O 0.79996 0.4166 0.80014 0.0
C400 C 0.81955 0.85969 0.78412 0.0
C401 C 0.79666 0.81544 0.77065 0.0
C402 C 0.79678 0.75056 0.77466 0.0
C403 C 0.82987 0.72703 0.79026 0.0
C404 C 0.85315 0.76922 0.80436 0.0
C405 C 0.84424 0.83668 0.80171 0.0
C406 C 0.80969 0.92894 0.77958 0.0
C407 C 0.85775 0.96406 0.77012 0.0
C408 C 0.84219 0.01753 0.75912 0.0
C409 C 0.77785 0.03557 0.75674 0.0
C410 C 0.73073 0.00322 0.76737 0.0
C411 C 0.74661 0.95163 0.7789 0.0
C412 C 0.77074 0.83626 0.75221 0.0
C413 C 0.81243 0.84621 0.73707 0.0
C414 C 0.78839 0.86332 0.71947 0.0
C415 C 0.72222 0.87128 0.71677 0.0
C416 C 0.68056 0.8605 0.73199 0.0
C417 C 0.70459 0.84305 0.74954 0.0
C418 C 0.75191 0.70768 0.76477 0.0
C419 C 0.77323 0.66902 0.75017 0.0
C420 C 0.73401 0.61942 0.74374 0.0
C421 C 0.67354 0.60878 0.75185 0.0
C422 C 0.65052 0.65001 0.7656 0.0
C423 C 0.68991 0.69946 0.7721 0.0
C424 C 0.83646 0.65663 0.7918 0.0
C425 C 0.88469 0.62616 0.7817 0.0
C426 C 0.88646 0.55963 0.78098 0.0
C427 C 0.84073 0.52241 0.79073 0.0
C428 C 0.79299 0.55326 0.80104 0.0
C429 C 0.79004 0.61971 0.80122 0.0
C430 C 0.87884 0.73773 0.82185 0.0
C431 C 0.94151 0.71339 0.82166 0.0
C432 C 0.9574 0.65863 0.83216 0.0
C433 C 0.91034 0.62473 0.84252 0.0
C434 C 0.84939 0.65251 0.84395 0.0
C435 C 0.83454 0.7089 0.83423 0.0
C436 C 0.85022 0.88268 0.81744 0.0
C437 C 0.91017 0.90532 0.82379 0.0
C438 C 0.91392 0.95693 0.83638 0.0
C439 C 0.85773 0.98659 0.84257 0.0
C440 C 0.79799 0.9629 0.83646 0.0
C441 C 0.7943 0.91102 0.8242 0.0
C442 C 0.697 0.89099 0.69818 0.0
C443 C 0.84298 0.45176 0.79028 0.0
H444 H 0.41827 0.31067 0.9385 0.0
H445 H 0.96679 0.47633 0.05481 0.0
H446 H 0.4071 0.56569 0.02218 0.0
H447 H 0.30804 0.53911 0.00521 0.0
H448 H 0.28747 0.36611 0.03736 0.0
H449 H 0.38885 0.39145 0.05381 0.0
H450 H 0.4706 0.49932 0.99753 0.0
H451 H 0.44521 0.43613 0.96948 0.0
H452 H 0.49813 0.26513 -0.00096 0.0
H453 H 0.52029 0.32852 0.02732 0.0
H454 H 0.59933 0.54558 0.00365 0.0
H455 H 0.6767 0.53626 0.97794 0.0
H456 H 0.7395 0.35729 0.00062 0.0
H457 H 0.66148 0.36641 0.02642 0.0
H458 H 0.6811 0.60055 0.03647 0.0
H459 H 0.79819 0.60982 0.03593 0.0
H460 H 0.81056 0.42614 0.06296 0.0
H461 H 0.69347 0.41771 0.06355 0.0
H462 H 0.59416 0.65456 0.06164 0.0
H463 H 0.68035 0.70765 0.07967 0.0
H464 H 0.69968 0.53958 0.11379 0.0
H465 H 0.61474 0.48582 0.09531 0.0
H466 H 0.43775 0.63074 0.05091 0.0
H467 H 0.3496 0.67939 0.06822 0.0
H468 H 0.36778 0.53814 0.11176 0.0
H469 H 0.4548 0.4878 0.09395 0.0
O470 O 0.42841 0.33486 0.94975 0.0
O471 O 0.46619 0.25022 0.96461 0.0
O472 O 0.91151 0.56935 0.0416 0.0
O473 O 0.92044 0.47462 0.05523 0.0
C474 C 0.47472 0.48518 0.04378 0.0
C475 C 0.51752 0.45697 0.03103 0.0
C476 C 0.58354 0.46764 0.03306 0.0
C477 C 0.60834 0.50028 0.04878 0.0
C478 C 0.56654 0.52768 0.06204 0.0
C479 C 0.49898 0.5218 0.05921 0.0
C480 C 0.40519 0.48064 0.03928 0.0
C481 C 0.37993 0.52343 0.02619 0.0
C482 C 0.32376 0.50794 0.01636 0.0
C483 C 0.29124 0.45007 0.01977 0.0
C484 C 0.31225 0.41079 0.03447 0.0
C485 C 0.36966 0.42548 0.04395 0.0
C486 C 0.49464 0.41822 0.01472 0.0
C487 C 0.47433 0.44796 -0.00184 0.0
C488 C 0.46097 0.41185 0.98204 0.0
C489 C 0.46899 0.34544 0.9821 0.0
C490 C 0.4904 0.31598 -0.00136 0.0
C491 C 0.50267 0.35201 0.01484 0.0
C492 C 0.62549 0.45677 0.01679 0.0
C493 C 0.62897 0.50377 0.00284 0.0
C494 C 0.67261 0.49848 0.98825 0.0
C495 C 0.71297 0.44606 0.98753 0.0
C496 C 0.70786 0.39764 0.00104 0.0
C497 C 0.664 0.40293 0.01569 0.0
C498 C 0.679 0.50898 0.05034 0.0
C499 C 0.70927 0.56294 0.04258 0.0
C500 C 0.7761 0.56783 0.04214 0.0
C501 C 0.81378 0.51837 0.04926 0.0
C502 C 0.78305 0.46473 0.05722 0.0
C503 C 0.71622 0.46008 0.05775 0.0
C504 C 0.59676 0.5666 0.07735 0.0
C505 C 0.61487 0.63008 0.07353 0.0
C506 C 0.66515 0.65983 0.08354 0.0
C507 C 0.69761 0.62716 0.09784 0.0
C508 C 0.67605 0.56548 0.10268 0.0
C509 C 0.62644 0.53535 0.09244 0.0
C510 C 0.45304 0.55607 0.07125 0.0
C511 C 0.42296 0.61037 0.06422 0.0
C512 C 0.37231 0.63766 0.07397 0.0
C513 C 0.35158 0.61188 0.09115 0.0
C514 C 0.38257 0.55827 0.09842 0.0
C515 C 0.43274 0.53026 0.08846 0.0
C516 C 0.45461 0.30712 0.965 0.0
C517 C 0.88479 0.52257 0.04844 0.0
H518 H 0.95394 0.29209 0.64948 0.0
H519 H 0.43185 0.72443 0.54505 0.0
H520 H 0.92705 0.40516 0.56032 0.0
H521 H 0.82914 0.38028 0.57787 0.0
H522 H 0.77627 0.57787 0.57537 0.0
H523 H 0.87794 0.6039 0.5595 0.0
H524 H 0.05547 0.39003 0.57853 0.0
H525 H 0.02369 0.3334 0.60711 0.0
H526 H 0.92796 0.5018 0.62681 0.0
H527 H 0.96006 0.55809 0.59812 0.0
H528 H 0.18809 0.44704 0.55958 0.0
H529 H 0.27121 0.41474 0.5815 0.0
H530 H 0.18863 0.53193 0.6247 0.0
H531 H 0.10853 0.56978 0.60191 0.0
H532 H 0.20464 0.50346 0.52821 0.0
H533 H 0.31547 0.54208 0.52452 0.0
H534 H 0.27383 0.70572 0.55906 0.0
H535 H 0.16401 0.66538 0.56328 0.0
H536 H 0.06943 0.49511 0.50226 0.0
H537 H 0.14864 0.51068 0.47707 0.0
H538 H 0.19659 0.69656 0.49955 0.0
H539 H 0.11309 0.68374 0.52332 0.0
H540 H 0.9081 0.47484 0.5195 0.0
H541 H 0.81706 0.50777 0.49998 0.0
H542 H 0.88334 0.70319 0.50347 0.0
H543 H 0.97301 0.67085 0.52345 0.0
O544 O 0.96745 0.31606 0.63854 0.0
O545 O 0.91956 0.40414 0.64816 0.0
O546 O 0.40685 0.62339 0.52846 0.0
O547 O 0.38888 0.7073 0.54674 0.0
C548 C 0.97921 0.52377 0.55464 0.0
C549 C 0.02699 0.51118 0.56842 0.0
C550 C 0.09153 0.52908 0.56527 0.0
C551 C 0.10893 0.55888 0.54829 0.0
C552 C 0.06271 0.56818 0.53391 0.0
C553 C 0.9971 0.55266 0.53724 0.0
C554 C 0.91096 0.50671 0.55911 0.0
C555 C 0.89403 0.44312 0.56329 0.0
C556 C 0.83807 0.42885 0.5733 0.0
C557 C 0.79609 0.47745 0.57843 0.0
C558 C 0.80858 0.53979 0.5719 0.0
C559 C 0.8663 0.55458 0.56268 0.0
C560 C 0.00976 0.47803 0.58622 0.0
C561 C 0.02791 0.41471 0.58908 0.0
C562 C 0.00949 0.38239 0.60538 0.0
C563 C 0.97269 0.41284 0.61915 0.0
C564 C 0.95577 0.47679 0.6164 0.0
C565 C 0.97412 0.50908 0.60006 0.0
C566 C 0.14254 0.51147 0.57898 0.0
C567 C 0.18921 0.46797 0.5735 0.0
C568 C 0.23658 0.4494 0.58604 0.0
C569 C 0.23651 0.47131 0.6047 0.0
C570 C 0.19019 0.51528 0.61029 0.0
C571 C 0.14405 0.53605 0.5974 0.0
C572 C 0.1763 0.58189 0.54589 0.0
C573 C 0.21962 0.54762 0.53495 0.0
C574 C 0.28266 0.56992 0.53278 0.0
C575 C 0.30311 0.62751 0.5412 0.0
C576 C 0.25959 0.6614 0.55228 0.0
C577 C 0.19687 0.63851 0.55471 0.0
C578 C 0.08655 0.58765 0.51499 0.0
C579 C 0.09449 0.5406 0.50113 0.0
C580 C 0.14084 0.54883 0.48704 0.0
C581 C 0.18177 0.60282 0.48729 0.0
C582 C 0.16747 0.65328 0.49954 0.0
C583 C 0.11913 0.64637 0.51298 0.0
C584 C 0.9472 0.57038 0.52316 0.0
C585 C 0.90351 0.52469 0.51591 0.0
C586 C 0.85187 0.54335 0.50465 0.0
C587 C 0.8435 0.60792 0.50024 0.0
C588 C 0.88912 0.65312 0.50661 0.0
C589 C 0.94031 0.63457 0.51799 0.0
C590 C 0.95162 0.3777 0.63619 0.0
C591 C 0.36945 0.65233 0.53839 0.0
Fe592 Fe 0.05775 0.81368 0.20232 0.0
O593 O 0.10312 0.82127 0.17688 0.0
Fe594 Fe 0.89597 0.8244 0.17701 0.0
Fe595 Fe 0.19777 0.8211 0.17339 0.0
O596 O 0.99024 0.79235 0.18078 0.0
O597 O 0.9873 0.81817 0.17519 0.0
O598 O 0.10531 0.81891 0.17452 0.0
Fe599 Fe 0.0425 0.78983 0.15423 0.0
C600 C 0.1804 0.8942 0.21043 0.0
O601 O 0.10546 0.72885 0.20438 0.0
O602 O 0.20615 0.75218 0.19434 0.0
O603 O 0.96527 0.75962 0.1366 0.0
O604 O 0.88301 0.75347 0.15739 0.0
O605 O 0.87898 0.76223 0.19886 0.0
O606 O 0.98124 0.74535 0.19848 0.0
O607 O 0.19618 0.7494 0.15344 0.0
O608 O 0.10894 0.75695 0.13475 0.0
C609 C 0.92752 0.73919 0.207 0.0
O610 O 0.01428 0.87733 0.14239 0.0
O611 O 0.9143 0.8878 0.15534 0.0
O612 O 0.13257 0.86024 0.21597 0.0
O613 O 0.20342 0.89233 0.19372 0.0
C614 C 0.16521 0.71687 0.20312 0.0
C615 C 0.16658 0.739 0.13794 0.0
C616 C 0.13839 0.90106 0.1407 0.0
O617 O 0.18449 0.88583 0.15196 0.0
O618 O 0.07965 0.87655 0.14132 0.0
C619 C 0.9068 0.74391 0.14109 0.0
O620 O 0.9068 0.89348 0.19742 0.0
O621 O 0.01302 0.90132 0.20129 0.0
C622 C 0.95791 0.90333 0.14337 0.0
C623 C 0.95618 0.91536 0.20604 0.0
Fe624 Fe 0.50762 0.79356 0.47246 0.0
O625 O 0.49858 0.79336 0.44468 0.0
Fe626 Fe 0.54581 0.86604 0.42909 0.0
Fe627 Fe 0.52809 0.71816 0.43001 0.0
O628 O 0.49964 0.79997 0.44468 0.0
O629 O 0.57521 0.79047 0.41439 0.0
O630 O 0.57515 0.78363 0.41453 0.0
Fe631 Fe 0.573 0.7858 0.38685 0.0
C632 C 0.60955 0.70023 0.46449 0.0
O633 O 0.43005 0.73395 0.4698 0.0
O634 O 0.46824 0.66183 0.44803 0.0
O635 O 0.51341 0.86426 0.3839 0.0
O636 O 0.46694 0.8779 0.41171 0.0
O637 O 0.50471 0.93598 0.44721 0.0
O638 O 0.45837 0.87677 0.47109 0.0
O639 O 0.44889 0.71849 0.41231 0.0
O640 O 0.49692 0.72207 0.38463 0.0
C641 C 0.46491 0.92817 0.46128 0.0
O642 O 0.64511 0.85513 0.38951 0.0
O643 O 0.6011 0.9238 0.4109 0.0
O644 O 0.55985 0.71079 0.47402 0.0
O645 O 0.60908 0.7114 0.44696 0.0
C646 C 0.4254 0.68168 0.4601 0.0
C647 C 0.45065 0.70301 0.39496 0.0
C648 C 0.61002 0.65062 0.39957 0.0
O649 O 0.56855 0.64768 0.41323 0.0
O650 O 0.62555 0.70235 0.39027 0.0
C651 C 0.47269 0.89205 0.39433 0.0
O652 O 0.6278 0.86077 0.44499 0.0
O653 O 0.59288 0.84719 0.47421 0.0
C654 C 0.64327 0.91012 0.39808 0.0
C655 C 0.63785 0.85929 0.46255 0.0
Fe656 Fe 0.54871 0.27734 0.69709 0.0
O657 O 0.59121 0.32306 0.67597 0.0
Fe658 Fe 0.4102 0.21385 0.67824 0.0
Fe659 Fe 0.68439 0.33698 0.67615 0.0
O660 O 0.50287 0.22889 0.67694 0.0
O661 O 0.50331 0.22802 0.6751 0.0
O662 O 0.59059 0.32356 0.67416 0.0
Fe663 Fe 0.54513 0.27459 0.6537 0.0
C664 C 0.63015 0.3891 0.71175 0.0
O665 O 0.61825 0.20915 0.69777 0.0
O666 O 0.7029 0.2738 0.69862 0.0
O667 O 0.49096 0.2154 0.63548 0.0
O668 O 0.42505 0.15545 0.6548 0.0
O669 O 0.43783 0.15231 0.69911 0.0
O670 O 0.50141 0.22097 0.7167 0.0
O671 O 0.70557 0.26674 0.65755 0.0
O672 O 0.61718 0.20742 0.65224 0.0
C673 C 0.46984 0.16804 0.71414 0.0
O674 O 0.47237 0.3412 0.65249 0.0
O675 O 0.38549 0.28144 0.65913 0.0
O676 O 0.59971 0.33639 0.71544 0.0
O677 O 0.66053 0.40172 0.69632 0.0
C678 C 0.67493 0.22145 0.70326 0.0
C679 C 0.67758 0.21745 0.65085 0.0
C680 C 0.63575 0.38042 0.63679 0.0
O681 O 0.66645 0.3924 0.65247 0.0
O682 O 0.5963 0.33195 0.63436 0.0
C683 C 0.45252 0.16676 0.63862 0.0
O684 O 0.39471 0.27999 0.70013 0.0
O685 O 0.47881 0.34535 0.69829 0.0
C686 C 0.41192 0.33005 0.65159 0.0
C687 C 0.42286 0.33285 0.70432 0.0
Fe688 Fe 0.01246 0.28252 0.95078 0.0
O689 O 0.98423 0.21889 0.9311 0.0
Fe690 Fe 0.05812 0.40947 0.92193 0.0
Fe691 Fe 0.02031 0.13055 0.92578 0.0
O692 O 0.04144 0.31468 0.92447 0.0
O693 O 0.03532 0.31671 0.92021 0.0
O694 O 0.08037 0.19221 0.91254 0.0
Fe695 Fe 0.03996 0.2624 0.89583 0.0
C696 C 0.11858 0.1782 0.95535 0.0
O697 O 0.96046 0.19759 0.94257 0.0
O698 O 0.95478 0.09626 0.94581 0.0
O699 O 0.99941 0.33789 0.87916 0.0
O700 O 1.00062 0.42117 0.89926 0.0
O701 O 0.97915 0.42716 0.93882 0.0
O702 O 0.93223 0.33383 0.94686 0.0
O703 O 0.9521 0.12372 0.90573 0.0
O704 O 0.9449 0.22572 0.89752 0.0
C705 C 0.93108 0.39413 0.94471 0.0
O706 O 0.13058 0.29953 0.89057 0.0
O707 O 0.13306 0.39765 0.90362 0.0
O708 O 0.0966 0.23446 0.95595 0.0
O709 O 0.09197 0.13288 0.94602 0.0
C710 C 0.93527 0.14913 0.95213 0.0
C711 C 0.92616 0.16715 0.89618 0.0
C712 C 0.06854 0.1433 0.8831 0.0
O713 O 0.08145 0.15307 0.90128 0.0
O714 O 0.05069 0.19414 0.87448 0.0
C715 C 0.98345 0.39567 0.88374 0.0
O716 O 0.11888 0.40139 0.94482 0.0
O717 O 0.05321 0.35673 0.96585 0.0
C718 C 0.15381 0.35619 0.89206 0.0
C719 C 0.10452 0.38712 0.96172 0.0
C720 C 0.3001 0.99119 0.46664 0.0
C721 C 0.30293 0.00201 0.48633 0.0
C722 C 0.42065 0.00204 0.48483 0.0
C723 C 0.41708 0.9773 0.46636 0.0
N724 N 0.35538 0.95626 0.43848 0.0
N725 N 0.3659 0.02155 0.51432 0.0
C726 C 0.35736 0.97602 0.45675 0.0
C727 C 0.36336 0.00998 0.49541 0.0
N728 N 0.24259 0.99518 0.45752 0.0
N729 N 0.4796 0.01619 0.49222 0.0
H730 H 0.3251 0.02836 0.52247 0.0
H731 H 0.40802 0.02122 0.52218 0.0
H732 H 0.52106 0.01116 0.48422 0.0
H733 H 0.48695 0.03825 0.50518 0.0
H734 H 0.23741 0.99284 0.44298 0.0
H735 H 0.20013 0.00572 0.46449 0.0
H736 H 0.31341 0.94583 0.43108 0.0
H737 H 0.39711 0.94958 0.43081 0.0
C738 C 0.50584 0.01426 0.73846 0.0
C739 C 0.46841 0.02139 0.7548 0.0
C740 C 0.4418 0.1301 0.74626 0.0
C741 C 0.47452 0.12081 0.72907 0.0
N742 N 0.55338 0.0641 0.7111 0.0
N743 N 0.41687 0.08865 0.77731 0.0
C744 C 0.51202 0.06614 0.72595 0.0
C745 C 0.44247 0.0808 0.75982 0.0
N746 N 0.53128 0.95637 0.73432 0.0
N747 N 0.40721 0.18408 0.74906 0.0
H748 H 0.4168 0.05239 0.78732 0.0
H749 H 0.40085 0.13195 0.78248 0.0
H750 H 0.40577 0.22119 0.73935 0.0
H751 H 0.37715 0.19105 0.76049 0.0
H752 H 0.55084 0.94518 0.72132 0.0
H753 H 0.53004 0.91842 0.74379 0.0
H754 H 0.58701 0.02853 0.7093 0.0
H755 H 0.55756 0.10071 0.70128 0.0
C756 C 0.22467 0.1521 -0.00127 0.0
C757 C 0.28577 0.14447 0.99035 0.0
C758 C 0.23665 0.15382 0.95886 0.0
C759 C 0.17609 0.16469 0.96729 0.0
N760 N 0.1128 0.18013 0.9952 0.0
N761 N 0.35215 0.14452 0.96277 0.0
C762 C 0.17036 0.16568 0.98723 0.0
C763 C 0.2923 0.147 0.97048 0.0
N764 N 0.21826 0.14425 0.01773 0.0
N765 N 0.24082 0.14976 0.93973 0.0
H766 H 0.39338 0.13768 0.97079 0.0
H767 H 0.36192 0.15314 0.94867 0.0
H768 H 0.20202 0.15762 0.93081 0.0
H769 H 0.28151 0.13523 0.9326 0.0
H770 H 0.17437 0.1415 0.0246 0.0
H771 H 0.25697 0.13615 0.02667 0.0
H772 H 0.10699 0.19019 0.00942 0.0
H773 H 0.07072 0.18536 0.98746 0.0
C774 C 0.27693 0.96337 0.25134 0.0
C775 C 0.24625 0.02259 0.25407 0.0
C776 C 0.17375 0.99821 0.22753 0.0
C777 C 0.20713 0.94111 0.22413 0.0
N778 N 0.29719 0.87426 0.23043 0.0
N779 N 0.17276 0.10149 0.2426 0.0
C780 C 0.26092 0.92527 0.23531 0.0
C781 C 0.19643 0.04129 0.24161 0.0
N782 N 0.31936 0.94233 0.26452 0.0
N783 N 0.11992 0.01118 0.21732 0.0
H784 H 0.18816 0.13492 0.25249 0.0
H785 H 0.14169 0.12034 0.23267 0.0
H786 H 0.10558 0.98432 0.20565 0.0
H787 H 0.08777 0.04657 0.22092 0.0
H788 H 0.33845 0.89683 0.2644 0.0
H789 H 0.33114 0.96839 0.27658 0.0
H790 H 0.3405 0.86355 0.23689 0.0
H791 H 0.28673 0.84568 0.21876 0.0
C792 C 0.33688 0.06118 0.61178 0.0
C793 C 0.34004 0.0891 0.59358 0.0
C794 C 0.43855 0.14759 0.60314 0.0
C795 C 0.42833 0.12767 0.62201 0.0
N796 N 0.39425 0.03759 0.64048 0.0
N797 N 0.39652 0.1555 0.57129 0.0
C798 C 0.38557 0.07567 0.62518 0.0
C799 C 0.39212 0.13095 0.58902 0.0
N800 N 0.28529 0.02412 0.61684 0.0
N801 N 0.49525 0.17677 0.59841 0.0
H802 H 0.36663 0.14044 0.56031 0.0
H803 H 0.42781 0.19254 0.56761 0.0
H804 H 0.53403 0.17928 0.60766 0.0
H805 H 0.50763 0.1898 0.58478 0.0
H806 H 0.2772 0.00932 0.63062 0.0
H807 H 0.24753 0.01272 0.60779 0.0
H808 H 0.36796 0.99564 0.64275 0.0
H809 H 0.43387 0.04331 0.64936 0.0
C810 C 0.12596 0.02644 0.84439 0.0
C811 C 0.1184 0.96585 0.85308 0.0
C812 C 0.07525 0.01957 0.88126 0.0
C813 C 0.08612 0.08134 0.87294 0.0
N814 N 0.14185 0.14 0.84855 0.0
N815 N 0.07088 0.90378 0.8777 0.0
C816 C 0.11605 0.08374 0.85491 0.0
C817 C 0.08913 0.96239 0.87098 0.0
N818 N 0.14123 0.02966 0.82579 0.0
N819 N 0.05481 0.01459 0.8994 0.0
H820 H 0.07974 0.86149 0.87049 0.0
H821 H 0.04148 0.89684 0.88933 0.0
H822 H 0.04134 0.05276 0.90753 0.0
H823 H 0.05575 0.97264 0.90715 0.0
H824 H 0.13983 0.07168 0.81804 0.0
H825 H 0.14835 0.98934 0.8176 0.0
H826 H 0.16995 0.14354 0.83651 0.0
H827 H 0.14352 0.1816 0.85654 0.0
C828 C 0.24854 0.01966 0.11764 0.0
C829 C 0.24718 -0.00022 0.09848 0.0
C830 C 0.158 0.92531 0.10591 0.0
C831 C 0.15934 0.94538 0.12509 0.0
N832 N 0.19092 0.02674 0.14718 0.0
N833 N 0.18674 0.94913 0.07358 0.0
C834 C 0.19924 0.99823 0.13012 0.0
C835 C 0.19704 0.9579 0.09238 0.0
N836 N 0.29928 0.05487 0.12442 0.0
N837 N 0.12406 0.87192 0.10071 0.0
H838 H 0.21396 0.97281 0.06339 0.0
H839 H 0.1473 0.92388 0.0682 0.0
H840 H 0.09485 0.84631 0.10985 0.0
H841 H 0.12854 0.8504 0.08758 0.0
H842 H 0.30598 0.0645 0.13867 0.0
H843 H 0.33795 0.06942 0.11617 0.0
H844 H 0.21484 0.06867 0.15118 0.0
H845 H 0.15489 0.01179 0.15643 0.0
C846 C 0.43936 0.06408 0.37971 0.0
C847 C 0.39533 0.05464 0.3647 0.0
C848 C 0.39407 0.93873 0.37097 0.0
C849 C 0.43797 0.94818 0.3861 0.0
N850 N 0.49034 0.0222 0.40749 0.0
N851 N 0.32294 0.98511 0.34764 0.0
C852 C 0.45663 0.0116 0.3913 0.0
C853 C 0.37019 0.99248 0.36086 0.0
N854 N 0.46687 0.12307 0.38246 0.0
N855 N 0.37579 0.87796 0.3662 0.0
H856 H 0.30558 0.02309 0.3398 0.0
H857 H 0.29797 0.94255 0.34518 0.0
H858 H 0.38778 0.83872 0.37438 0.0
H859 H 0.35043 0.86599 0.35405 0.0
H860 H 0.50586 0.13159 0.39133 0.0
H861 H 0.45382 0.16322 0.37483 0.0
H862 H 0.49916 0.06723 0.41321 0.0
H863 H 0.50425 0.98575 0.41629 0.0
C864 C 0.75991 0.07119 0.62974 0.0
C865 C 0.80874 0.10272 0.6192 0.0
C866 C 0.76247 0.20507 0.62661 0.0
C867 C 0.7181 0.17534 0.6391 0.0
N868 N 0.6831 0.0796 0.65518 0.0
N869 N 0.8678 0.20043 0.61305 0.0
C870 C 0.71896 0.10804 0.64144 0.0
C871 C 0.81379 0.16993 0.61951 0.0
N872 N 0.75143 0.00673 0.62821 0.0
N873 N 0.7538 0.26608 0.62062 0.0
H874 H 0.90786 0.176 0.60834 0.0
H875 H 0.87527 0.24952 0.61439 0.0
H876 H 0.71312 0.29151 0.62394 0.0
H877 H 0.78234 0.28777 0.61038 0.0
H878 H 0.71264 0.98217 0.63411 0.0
H879 H 0.78069 0.97856 0.61987 0.0
H880 H 0.68694 0.03162 0.65868 0.0
H881 H 0.6538 0.10506 0.66424 0.0
C882 C 0.75317 0.99703 0.3639 0.0
C883 C 0.73107 0.06022 0.36603 0.0
C884 C 0.67345 0.02826 0.39465 0.0
C885 C 0.68593 0.96325 0.39055 0.0
N886 N 0.76562 0.89315 0.37819 0.0
N887 N 0.66857 0.13666 0.38307 0.0
C888 C 0.7341 0.94955 0.37713 0.0
C889 C 0.69102 0.0761 0.38137 0.0
N890 N 0.79038 0.98181 0.34882 0.0
N891 N 0.65138 0.04512 0.41198 0.0
H892 H 0.68223 0.17366 0.37408 0.0
H893 H 0.63289 0.14906 0.39253 0.0
H894 H 0.64979 0.01327 0.42319 0.0
H895 H 0.64508 0.09214 0.4162 0.0
H896 H 0.80156 0.93519 0.34521 0.0
H897 H 0.80634 0.01549 0.33905 0.0
H898 H 0.80465 0.8819 0.3698 0.0
H899 H 0.75851 0.86144 0.38929 0.0
C900 C 0.86207 0.02992 0.11954 0.0
C901 C 0.82611 0.98821 0.10748 0.0
C902 C 0.90865 0.90788 0.11196 0.0
C903 C 0.93368 0.94226 0.12752 0.0
N904 N 0.93585 0.03791 0.14601 0.0
N905 N 0.81144 0.88089 0.0952 0.0
C906 C 0.91129 0.00436 0.13113 0.0
C907 C 0.84889 0.92558 0.10422 0.0
N908 N 0.85061 0.09377 0.11956 0.0
N909 N 0.94008 0.85623 0.10526 0.0
H910 H 0.76385 0.88849 0.09149 0.0
H911 H 0.82469 0.83353 0.09362 0.0
H912 H 0.98441 0.8431 0.11057 0.0
H913 H 0.92588 0.83172 0.09314 0.0
H914 H 0.87866 0.1267 0.12705 0.0
H915 H 0.8175 0.11448 0.11054 0.0
H916 H 0.91654 0.08038 0.15083 0.0
H917 H 0.97427 0.02111 0.15392 0.0
C918 C 0.88346 0.10281 0.84897 0.0
C919 C 0.86089 0.04248 0.85554 0.0
C920 C 0.84293 0.08926 0.88653 0.0
C921 C 0.8806 0.14314 0.88142 0.0
N922 N 0.92191 0.20995 0.8568 0.0
N923 N 0.81948 0.97758 0.88092 0.0
C924 C 0.89528 0.15314 0.8622 0.0
C925 C 0.83924 0.03584 0.87432 0.0
N926 N 0.8925 0.11189 0.83014 0.0
N927 N 0.81353 0.0887 0.90361 0.0
H928 H 0.81784 0.93655 0.87262 0.0
H929 H 0.80973 0.96868 0.89502 0.0
H930 H 0.81699 0.12785 0.91259 0.0
H931 H 0.78125 0.0532 0.90787 0.0
H932 H 0.90465 0.15556 0.82412 0.0
H933 H 0.88356 0.07611 0.82021 0.0
H934 H 0.94223 0.2184 0.84369 0.0
H935 H 0.92248 0.24945 0.86568 0.0
C936 C 0.77805 0.94515 0.48791 0.0
C937 C 0.83063 0.90503 0.48354 0.0
C938 C 0.75813 0.83921 0.46355 0.0
C939 C 0.70447 0.87523 0.46961 0.0
N940 N 0.6633 0.9612 0.4883 0.0
N941 N 0.87024 0.81264 0.46742 0.0
C942 C 0.7146 0.92767 0.48201 0.0
C943 C 0.8203 0.85175 0.47142 0.0
N944 N 0.78834 0.00127 0.49733 0.0
N945 N 0.75035 0.79368 0.44992 0.0
H946 H 0.91773 0.82414 0.47078 0.0
H947 H 0.86455 0.76745 0.4615 0.0
H948 H 0.70624 0.78066 0.44418 0.0
H949 H 0.78813 0.77139 0.4432 0.0
H950 H 0.75434 0.0368 0.49839 0.0
H951 H 0.8319 0.01511 0.50322 0.0
H952 H 0.66546 0.99241 0.49969 0.0
H953 H 0.61734 0.95575 0.48275 0.0
C954 C 0.90981 0.06676 0.23197 0.0
C955 C 0.91159 0.04491 0.25088 0.0
C956 C 0.95715 0.94417 0.2402 0.0
C957 C 0.9468 0.96268 0.22124 0.0
N958 N 0.91141 0.04022 0.19876 0.0
N959 N 0.93055 0.96054 0.273 0.0
C960 C 0.92256 0.02366 0.21703 0.0
C961 C 0.93413 0.98316 0.25503 0.0
N962 N 0.8983 0.12945 0.22838 0.0
N963 N 0.98891 0.88926 0.24407 0.0
H964 H 0.91366 0.98757 0.28421 0.0
H965 H 0.9392 0.91338 0.27659 0.0
H966 H 0.00434 0.85793 0.23371 0.0
H967 H 0.00429 0.87698 0.2575 0.0
H968 H 0.9028 0.1501 0.21515 0.0
H969 H 0.88976 0.16236 0.239 0.0
H970 H 0.88643 0.08061 0.19482 0.0
H971 H 0.92442 0.01165 0.18742 0.0
C972 C 0.80649 0.10864 0.98863 0.0
C973 C 0.75388 0.14688 0.98294 0.0
C974 C 0.81971 0.18695 0.95654 0.0
C975 C 0.87417 0.15352 0.96339 0.0
N976 N 0.92169 0.09418 0.98855 0.0
N977 N 0.71383 0.22844 0.96242 0.0
C978 C 0.86805 0.11788 0.98021 0.0
C979 C 0.76194 0.18828 0.96732 0.0
N980 N 0.79786 0.06174 0.00169 0.0
N981 N 0.82054 0.21364 0.93906 0.0
H982 H 0.66842 0.22678 0.96848 0.0
H983 H 0.72015 0.2658 0.95296 0.0
H984 H 0.86001 0.2143 0.93025 0.0
H985 H 0.7793 0.22874 0.93225 0.0
H986 H 0.83257 0.0283 0.00485 0.0
H987 H 0.75411 0.05145 0.00795 0.0
H988 H 0.92164 0.07412 0.00193 0.0
H989 H 0.96755 0.10068 0.98298 0.0
C990 C 0.77053 0.08152 0.7233 0.0
C991 C 0.75834 0.08693 0.74299 0.0
C992 C 0.68864 0.17767 0.73636 0.0
C993 C 0.70575 0.17656 0.71699 0.0
N994 N 0.77174 0.13284 0.69265 0.0
N995 N 0.71974 0.15243 0.76825 0.0
C996 C 0.74982 0.13039 0.7107 0.0
C997 C 0.7217 0.13884 0.74948 0.0
N998 N 0.79855 0.02812 0.71637 0.0
N999 N 0.63894 0.21381 0.7423 0.0
H1000 H 0.74526 0.1267 0.77823 0.0
H1001 H 0.69883 0.19336 0.77362 0.0
H1002 H 0.61223 0.24144 0.73324 0.0
H1003 H 0.62008 0.21098 0.75583 0.0
H1004 H 0.80176 0.01802 0.70206 0.0
H1005 H 0.81364 0.99102 0.72486 0.0
H1006 H 0.80865 0.10462 0.68769 0.0
H1007 H 0.75655 0.16686 0.68303 0.0
C1008 C 0.82498 0.47484 0.97874 0.0
C1009 C 0.76561 0.44542 0.97387 0.0
C1010 C 0.81195 0.40102 0.94539 0.0
C1011 C 0.87257 0.42632 0.95111 0.0
N1012 N 0.92931 0.51016 0.9681 0.0
N1013 N 0.69672 0.39626 0.95064 0.0
C1014 C 0.87682 0.47091 0.96608 0.0
C1015 C 0.75702 0.41405 0.9564 0.0
N1016 N 0.83264 0.50426 0.9958 0.0
N1017 N 0.80778 0.36327 0.92974 0.0
H1018 H 0.65604 0.40428 0.95874 0.0
H1019 H 0.68605 0.37746 0.93744 0.0
H1020 H 0.84718 0.35435 0.9212 0.0
H1021 H 0.76614 0.33977 0.9253 0.0
H1022 H 0.87707 0.519 0.00111 0.0
H1023 H 0.79517 0.51006 0.00527 0.0
H1024 H 0.93214 0.54675 0.978 0.0
H1025 H 0.96656 0.51227 0.95845 0.0
C1026 C 0.9259 0.56986 0.22572 0.0
C1027 C 0.90085 0.57977 0.24395 0.0
C1028 C 0.89653 0.69477 0.2383 0.0
C1029 C 0.91705 0.68418 0.21958 0.0
N1030 N 0.93807 0.61091 0.19416 0.0
N1031 N 0.85586 0.64915 0.26733 0.0
C1032 C 0.92846 0.62153 0.21291 0.0
C1033 C 0.88444 0.64162 0.2502 0.0
N1034 N 0.9478 0.51114 0.22072 0.0
N1035 N 0.88998 0.75574 0.24477 0.0
H1036 H 0.84836 0.6116 0.2767 0.0
H1037 H 0.83602 0.69165 0.27185 0.0
H1038 H 0.89561 0.79568 0.2362 0.0
H1039 H 0.88274 0.7672 0.25884 0.0
H1040 H 0.97335 0.50276 0.20844 0.0
H1041 H 0.94514 0.47163 0.22958 0.0
H1042 H 0.94017 0.5656 0.18822 0.0
H1043 H 0.93744 0.64704 0.18413 0.0
C1044 C 0.73811 0.66336 0.50183 0.0
C1045 C 0.78309 0.6294 0.49107 0.0
C1046 C 0.70874 0.63087 0.46423 0.0
C1047 C 0.66837 0.67409 0.47398 0.0
N1048 N 0.65509 0.74086 0.50182 0.0
N1049 N 0.8158 0.58901 0.46095 0.0
C1050 C 0.68575 0.69283 0.49272 0.0
C1051 C 0.76985 0.61574 0.47192 0.0
N1052 N 0.74404 0.66608 0.52097 0.0
N1053 N 0.68739 0.60074 0.4483 0.0
H1054 H 0.86078 0.57694 0.46615 0.0
H1055 H 0.81117 0.58424 0.44642 0.0
H1056 H 0.6407 0.60457 0.44327 0.0
H1057 H 0.71307 0.56536 0.4415 0.0
H1058 H 0.70827 0.68366 0.52965 0.0
H1059 H 0.78115 0.64461 0.52833 0.0
H1060 H 0.67232 0.76102 0.51429 0.0
H1061 H 0.61645 0.76517 0.49647 0.0
C1062 C 0.6012 0.55341 0.72947 0.0
C1063 C 0.63713 0.55164 0.74625 0.0
C1064 C 0.65369 0.43789 0.74303 0.0
C1065 C 0.62379 0.44105 0.72518 0.0
N1066 N 0.55052 0.49361 0.7042 0.0
N1067 N 0.6754 0.49207 0.77259 0.0
C1068 C 0.59079 0.49617 0.71939 0.0
C1069 C 0.65515 0.49331 0.75435 0.0
N1070 N 0.58127 0.61051 0.72267 0.0
N1071 N 0.68455 0.38403 0.74847 0.0
H1072 H 0.67569 0.53294 0.78097 0.0
H1073 H 0.68524 0.45031 0.77983 0.0
H1074 H 0.68509 0.34268 0.74033 0.0
H1075 H 0.71299 0.3815 0.76049 0.0
H1076 H 0.56166 0.61662 0.70934 0.0
H1077 H 0.58678 0.65249 0.73042 0.0
H1078 H 0.52084 0.53075 0.70033 0.0
H1079 H 0.5429 0.45221 0.69632 0.0
C1080 C 0.81678 0.63371 0.10604 0.0
C1081 C 0.75369 0.65812 0.10782 0.0
C1082 C 0.79755 0.74734 0.12631 0.0
C1083 C 0.85898 0.71847 0.12695 0.0
N1084 N 0.92488 0.62942 0.11881 0.0
N1085 N 0.68298 0.73216 0.12279 0.0
C1086 C 0.86829 0.66059 0.11702 0.0
C1087 C 0.74389 0.71341 0.11877 0.0
N1088 N 0.82777 0.5856 0.09358 0.0
N1089 N 0.79052 0.80828 0.13264 0.0
H1090 H 0.64208 0.70781 0.118 0.0
H1091 H 0.67288 0.76794 0.13247 0.0
H1092 H 0.82885 0.83582 0.13755 0.0
H1093 H 0.74875 0.83407 0.13082 0.0
H1094 H 0.87343 0.5702 0.09013 0.0
H1095 H 0.79133 0.56462 0.08554 0.0
H1096 H 0.93193 0.58349 0.11373 0.0
H1097 H 0.96357 0.64764 0.12654 0.0
C1098 C 0.63464 0.47515 0.38664 0.0
C1099 C 0.69679 0.47825 0.37877 0.0
C1100 C 0.70743 0.58874 0.39012 0.0
C1101 C 0.64071 0.5897 0.39382 0.0
N1102 N 0.53839 0.53313 0.39241 0.0
N1103 N 0.79079 0.54308 0.37129 0.0
C1104 C 0.60364 0.53248 0.39149 0.0
C1105 C 0.73326 0.53621 0.3802 0.0
N1106 N 0.60496 0.41735 0.38931 0.0
N1107 N 0.7466 0.63702 0.39651 0.0
H1108 H 0.81182 0.50703 0.36356 0.0
H1109 H 0.81505 0.58678 0.37023 0.0
H1110 H 0.72989 0.67458 0.40467 0.0
H1111 H 0.79641 0.63565 0.39561 0.0
H1112 H 0.56168 0.41206 0.39648 0.0
H1113 H 0.62722 0.37442 0.38622 0.0
H1114 H 0.50959 0.49362 0.38907 0.0
H1115 H 0.51277 0.57455 0.3943 0.0
C1116 C 0.69298 0.41881 0.58715 0.0
C1117 C 0.74272 0.46343 0.59195 0.0
C1118 C 0.69522 0.475 0.62322 0.0
C1119 C 0.65638 0.42003 0.62003 0.0
N1120 N 0.5942 0.36404 0.59644 0.0
N1121 N 0.79358 0.53065 0.61566 0.0
C1122 C 0.64794 0.39861 0.60118 0.0
C1123 C 0.74376 0.49169 0.61016 0.0
N1124 N 0.6896 0.39531 0.56923 0.0
N1125 N 0.68364 0.51283 0.63843 0.0
H1126 H 0.83205 0.54281 0.60704 0.0
H1127 H 0.7998 0.54607 0.62949 0.0
H1128 H 0.64461 0.50429 0.64729 0.0
H1129 H 0.70694 0.55656 0.64069 0.0
H1130 H 0.66035 0.35704 0.56516 0.0
H1131 H 0.71797 0.41328 0.55835 0.0
H1132 H 0.58348 0.34821 0.58292 0.0
H1133 H 0.55545 0.35883 0.60553 0.0
C1134 C 0.91267 0.55472 0.8717 0.0
C1135 C 0.92362 0.56098 0.85211 0.0
C1136 C 0.95217 0.44539 0.85135 0.0
C1137 C 0.94704 0.44235 0.87121 0.0
N1138 N 0.88739 0.4835 0.89733 0.0
N1139 N 0.95335 0.51029 0.82296 0.0
C1140 C 0.91604 0.49382 0.88036 0.0
C1141 C 0.94262 0.50541 0.8418 0.0
N1142 N 0.90344 0.60767 0.88252 0.0
N1143 N 0.96104 0.39032 0.84153 0.0
H1144 H 0.94418 0.55148 0.81542 0.0
H1145 H 0.97421 0.47496 0.81487 0.0
H1146 H 0.9635 0.34613 0.84806 0.0
H1147 H 0.95954 0.38703 0.82695 0.0
H1148 H 0.90181 0.6062 0.89715 0.0
H1149 H 0.90488 0.65387 0.87716 0.0
H1150 H 0.85913 0.51714 0.90402 0.0
H1151 H 0.88538 0.43836 0.9034 0.0
C1152 C 0.31374 0.70641 0.10926 0.0
C1153 C 0.30076 0.64452 0.10209 0.0
C1154 C 0.19373 0.64577 0.11669 0.0
C1155 C 0.20583 0.70923 0.12287 0.0
N1156 N 0.26981 0.80543 0.11985 0.0
N1157 N 0.22405 0.5598 0.09571 0.0
C1158 C 0.26352 0.74115 0.11748 0.0
C1159 C 0.23931 0.61547 0.1048 0.0
N1160 N 0.3748 0.73124 0.109 0.0
N1161 N 0.14026 0.61364 0.12278 0.0
H1162 H 0.25614 0.53663 0.08692 0.0
H1163 H 0.17815 0.5395 0.09564 0.0
H1164 H 0.10544 0.63498 0.13105 0.0
H1165 H 0.13234 0.56505 0.12055 0.0
H1166 H 0.38791 0.77353 0.11581 0.0
H1167 H 0.41383 0.7067 0.10368 0.0
H1168 H 0.30796 0.83248 0.11452 0.0
H1169 H 0.23278 0.8324 0.12508 0.0
C1170 C 0.26124 0.47218 0.86618 0.0
C1171 C 0.21519 0.49003 0.85237 0.0
C1172 C 0.15697 0.39027 0.85886 0.0
C1173 C 0.19074 0.38354 0.87601 0.0
N1174 N 0.27832 0.41748 0.8958 0.0
N1175 N 0.11033 0.46907 0.83881 0.0
C1176 C 0.24443 0.4241 0.87953 0.0
C1177 C 0.16083 0.44947 0.84942 0.0
N1178 N 0.32128 0.49902 0.86616 0.0
N1179 N 0.11925 0.34175 0.85202 0.0
H1180 H 0.10447 0.5163 0.83473 0.0
H1181 H 0.0709 0.44003 0.83586 0.0
H1182 H 0.11812 0.29663 0.85805 0.0
H1183 H 0.09673 0.34374 0.83894 0.0
H1184 H 0.35761 0.48425 0.87515 0.0
H1185 H 0.33677 0.53054 0.85575 0.0
H1186 H 0.31368 0.45004 0.90015 0.0
H1187 H 0.26856 0.3804 0.9052 0.0
C1188 C 0.32947 0.47226 0.62809 0.0
C1189 C 0.27867 0.43939 0.6186 0.0
C1190 C 0.32285 0.33808 0.62809 0.0
C1191 C 0.36948 0.36984 0.63958 0.0
N1192 N 0.40778 0.46885 0.65338 0.0
N1193 N 0.21629 0.34208 0.61513 0.0
C1194 C 0.37035 0.43761 0.64043 0.0
C1195 C 0.27174 0.37269 0.62054 0.0
N1196 N 0.33998 0.53571 0.62493 0.0
N1197 N 0.32924 0.27552 0.62329 0.0
H1198 H 0.17645 0.36629 0.61013 0.0
H1199 H 0.20769 0.29371 0.6176 0.0
H1200 H 0.36966 0.24995 0.62674 0.0
H1201 H 0.29904 0.25211 0.61371 0.0
H1202 H 0.38017 0.5605 0.63 0.0
H1203 H 0.31104 0.56232 0.61604 0.0
H1204 H 0.40552 0.5178 0.65572 0.0
H1205 H 0.43652 0.4452 0.66303 0.0
C1206 C 0.40218 0.5781 0.35953 0.0
C1207 C 0.38482 0.52586 0.37136 0.0
C1208 C 0.38224 0.6003 0.39832 0.0
C1209 C 0.40852 0.64974 0.38691 0.0
N1210 N 0.41114 0.69271 0.35574 0.0
N1211 N 0.3621 0.48672 0.40249 0.0
C1212 C 0.40853 0.64058 0.36719 0.0
C1213 C 0.37475 0.53709 0.39086 0.0
N1214 N 0.41542 0.56806 0.34102 0.0
N1215 N 0.36002 0.61472 0.41575 0.0
H1216 H 0.35753 0.43991 0.39764 0.0
H1217 H 0.36175 0.49036 0.41709 0.0
H1218 H 0.35641 0.66172 0.42017 0.0
H1219 H 0.33609 0.58226 0.4244 0.0
H1220 H 0.43751 0.60215 0.33248 0.0
H1221 H 0.40842 0.52439 0.33439 0.0
H1222 H 0.40484 0.69055 0.34123 0.0
H1223 H 0.41166 0.73899 0.36113 0.0
C1224 C 0.17957 0.45855 0.00649 0.0
C1225 C 0.23999 0.42838 0.00643 0.0
C1226 C 0.21067 0.37092 0.97742 0.0
C1227 C 0.15093 0.40213 0.97709 0.0
N1228 N 0.07438 0.47007 0.99212 0.0
N1229 N 0.31113 0.35195 0.9919 0.0
C1230 C 0.13406 0.4442 0.99194 0.0
C1231 C 0.25463 0.38342 0.99215 0.0
N1232 N 0.16664 0.502 0.02028 0.0
N1233 N 0.22594 0.32791 0.96372 0.0
H1234 H 0.34702 0.357 0.00204 0.0
H1235 H 0.34702 0.357 0.00204 0.0
H1236 H 0.19553 0.3157 0.9526 0.0
H1237 H 0.26934 0.30388 0.96358 0.0
H1238 H 0.12687 0.53114 0.02037 0.0
H1239 H 0.19725 0.5104 0.03167 0.0
H1240 H 0.05584 0.49604 0.00324 0.0
H1241 H 0.04158 0.46353 0.9812 0.0
C1242 C 0.38542 0.41628 0.75119 0.0
C1243 C 0.33868 0.46101 0.74576 0.0
C1244 C 0.33676 0.41056 0.71426 0.0
C1245 C 0.39333 0.37679 0.71859 0.0
N1246 N 0.4731 0.35035 0.74199 0.0
N1247 N 0.24137 0.45563 0.72745 0.0
C1248 C 0.41812 0.38056 0.73727 0.0
C1249 C 0.30577 0.44666 0.7286 0.0
N1250 N 0.39083 0.3998 0.76965 0.0
N1251 N 0.31277 0.40929 0.6964 0.0
H1252 H 0.21447 0.46619 0.73936 0.0
H1253 H 0.21378 0.44149 0.71588 0.0
H1254 H 0.33358 0.3832 0.68558 0.0
H1255 H 0.27545 0.43835 0.69211 0.0
H1256 H 0.41953 0.36283 0.77432 0.0
H1257 H 0.35925 0.4168 0.77978 0.0
H1258 H 0.49654 0.35789 0.75479 0.0
H1259 H 0.49761 0.32175 0.73268 0.0
C1260 C 0.24516 0.65905 0.46241 0.0
C1261 C 0.24074 0.60819 0.47536 0.0
C1262 C 0.35698 0.59072 0.47226 0.0
C1263 C 0.36235 0.64799 0.46183 0.0
N1264 N 0.31235 0.73755 0.44676 0.0
N1265 N 0.28863 0.5144 0.48872 0.0
C1266 C 0.30641 0.68164 0.45653 0.0
C1267 C 0.29541 0.57005 0.47893 0.0
N1268 N 0.19018 0.68491 0.45555 0.0
N1269 N 0.4115 0.55937 0.4771 0.0
H1270 H 0.24576 0.49909 0.49471 0.0
H1271 H 0.32454 0.48106 0.49021 0.0
H1272 H 0.45658 0.57258 0.47197 0.0
H1273 H 0.4132 0.52185 0.48659 0.0
H1274 H 0.18919 0.71821 0.44474 0.0
H1275 H 0.14475 0.66808 0.45944 0.0
H1276 H 0.27502 0.76915 0.44481 0.0
H1277 H 0.35575 0.75389 0.44115 0.0
C1278 C 0.23929 0.6164 0.24174 0.0
C1279 C 0.22223 0.55413 0.23545 0.0
C1280 C 0.17665 0.59858 0.20654 0.0
C1281 C 0.18838 0.66093 0.21368 0.0
N1282 N 0.2219 0.7299 0.23917 0.0
N1283 N 0.1697 0.48489 0.21292 0.0
C1284 C 0.21766 0.67009 0.23154 0.0
C1285 C 0.18966 0.54486 0.21808 0.0
N1286 N 0.27683 0.62414 0.2574 0.0
N1287 N 0.15426 0.59091 0.18857 0.0
H1288 H 0.18008 0.4444 0.22077 0.0
H1289 H 0.1395 0.47546 0.20154 0.0
H1290 H 0.14391 0.62932 0.17985 0.0
H1291 H 0.15055 0.54701 0.18178 0.0
H1292 H 0.29692 0.66774 0.26155 0.0
H1293 H 0.29226 0.58602 0.26552 0.0
H1294 H 0.23591 0.73905 0.25298 0.0
H1295 H 0.20639 0.77037 0.23217 0.0
loop_
_geom_bond_atom_site_label_1
_geom_bond_atom_site_label_2
_geom_bond_distance
_geom_bond_site_symmetry_2
_ccdc_geom_bond_type
H0 O26 0.856 . S
H1 O29 0.854 . S
H2 C37 0.930 . S
H3 C38 0.930 . S
H4 C40 0.930 1_565 S
H5 C41 0.930 1_565 S
H6 C43 0.931 . S
H7 C44 0.930 . S
H8 C46 0.930 . S
H9 C47 0.929 . S
H10 C49 0.930 . S
H11 C50 0.931 . S
H12 C52 0.930 . S
H13 C53 0.915 1_565 S
H14 C55 0.931 . S
H15 C56 0.930 . S
H16 C58 0.930 . S
H17 C59 0.932 . S
H18 C61 0.930 1_445 S
H19 C62 0.929 . S
H20 C64 0.931 . S
H21 C65 0.930 . S
H22 C67 0.929 . S
H23 C68 0.931 1_545 S
H24 C70 0.930 . S
H25 C71 0.929 . S
O26 H0 0.856 . S
O26 C72 1.300 . S
O27 C72 1.209 . S
O28 C73 1.199 . S
O29 H1 0.854 . S
O29 C73 1.297 . S
C30 C31 1.404 . S
C30 C35 1.397 . S
C30 C36 1.492 . S
C31 C30 1.404 . S
C31 C32 1.396 1_455 S
C31 C42 1.492 . S
C32 C31 1.396 1_655 S
C32 C33 1.397 . S
C32 C48 1.509 . S
C33 C32 1.397 . S
C33 C34 1.412 1_545 S
C33 C54 1.483 1_545 S
C34 C33 1.412 1_565 S
C34 C35 1.388 1_665 S
C34 C60 1.490 . S
C35 C30 1.397 . S
C35 C34 1.388 1_445 S
C35 C66 1.519 1_545 S
C36 C30 1.492 . S
C36 C37 1.363 . S
C36 C41 1.390 . S
C37 H2 0.930 . S
C37 C36 1.363 . S
C37 C38 1.372 . S
C38 H3 0.930 . S
C38 C37 1.372 . S
C38 C39 1.383 . S
C39 C38 1.383 . S
C39 C40 1.395 . S
C40 H4 0.930 1_545 S
C40 C39 1.395 . S
C40 C41 1.362 . S
C41 H5 0.930 1_545 S
C41 C36 1.390 . S
C41 C40 1.362 . S
C42 C31 1.492 . S
C42 C43 1.377 . S
C42 C47 1.397 . S
C43 H6 0.931 . S
C43 C42 1.377 . S
C43 C44 1.376 . S
C44 H7 0.930 . S
C44 C43 1.376 . S
C44 C45 1.376 . S
C45 C44 1.376 . S
C45 C46 1.378 . S
C45 C72 1.486 . S
C46 H8 0.930 . S
C46 C45 1.378 . S
C46 C47 1.376 . S
C47 H9 0.929 . S
C47 C42 1.397 . S
C47 C46 1.376 . S
C48 C32 1.509 . S
C48 C49 1.391 . S
C48 C53 1.386 . S
C49 H10 0.930 . S
C49 C48 1.391 . S
C49 C50 1.375 . S
C50 H11 0.931 . S
C50 C49 1.375 . S
C50 C51 1.375 . S
C51 C50 1.375 . S
C51 C52 1.361 . S
C52 H12 0.930 . S
C52 C51 1.361 . S
C52 C53 1.399 . S
C53 H13 0.915 1_545 S
C53 C48 1.386 . S
C53 C52 1.399 . S
C54 C33 1.483 1_565 S
C54 C55 1.390 1_565 S
C54 C59 1.365 . S
C55 H14 0.931 . S
C55 C54 1.390 1_545 S
C55 C56 1.372 . S
C56 H15 0.930 . S
C56 C55 1.372 . S
C56 C57 1.397 1_545 S
C57 C56 1.397 1_565 S
C57 C58 1.390 . S
C57 C73 1.476 . S
C58 H16 0.930 . S
C58 C57 1.390 . S
C58 C59 1.366 . S
C59 H17 0.932 . S
C59 C54 1.365 . S
C59 C58 1.366 . S
C60 C34 1.490 . S
C60 C61 1.380 . S
C60 C65 1.386 . S
C61 H18 0.930 1_665 S
C61 C60 1.380 . S
C61 C62 1.381 . S
C62 H19 0.929 . S
C62 C61 1.381 . S
C62 C63 1.371 . S
C63 C62 1.371 . S
C63 C64 1.380 . S
C64 H20 0.931 . S
C64 C63 1.380 . S
C64 C65 1.387 . S
C65 H21 0.930 . S
C65 C60 1.386 . S
C65 C64 1.387 . S
C66 C35 1.519 1_565 S
C66 C67 1.377 1_565 S
C66 C71 1.361 . S
C67 H22 0.929 . S
C67 C66 1.377 1_545 S
C67 C68 1.386 1_545 S
C68 H23 0.931 1_565 S
C68 C67 1.386 1_565 S
C68 C69 1.363 . S
C69 C68 1.363 . S
C69 C70 1.385 . S
C70 H24 0.930 . S
C70 C69 1.385 . S
C70 C71 1.396 . S
C71 H25 0.929 . S
C71 C66 1.361 . S
C71 C70 1.396 . S
C72 O26 1.300 . S
C72 O27 1.209 . S
C72 C45 1.486 . S
C73 O28 1.199 . S
C73 O29 1.297 . S
C73 C57 1.476 . S
H74 O100 0.856 . S
H75 O103 0.854 . S
H76 C111 0.930 . S
H77 C112 0.930 . S
H78 C114 0.930 . S
H79 C115 0.930 . S
H80 C117 0.931 . S
H81 C118 0.930 . S
H82 C120 0.930 . S
H83 C121 0.929 . S
H84 C123 0.930 . S
H85 C124 0.931 . S
H86 C126 0.930 . S
H87 C127 0.929 . S
H88 C129 0.931 . S
H89 C130 0.930 . S
H90 C132 0.930 . S
H91 C133 0.932 . S
H92 C135 0.930 . S
H93 C136 0.929 . S
H94 C138 0.931 . S
H95 C139 0.930 . S
H96 C141 0.929 . S
H97 C142 0.931 . S
H98 C144 0.930 . S
H99 C145 0.929 . S
O100 H74 0.856 . S
O100 C146 1.300 . S
O101 C146 1.209 . S
O102 C147 1.199 . S
O103 H75 0.854 . S
O103 C147 1.297 . S
C104 C105 1.404 . S
C104 C109 1.397 . S
C104 C110 1.492 . S
C105 C104 1.404 . S
C105 C106 1.396 . S
C105 C116 1.492 . S
C106 C105 1.396 . S
C106 C107 1.397 . S
C106 C122 1.509 . S
C107 C106 1.397 . S
C107 C108 1.412 . S
C107 C128 1.485 . S
C108 C107 1.412 . S
C108 C109 1.388 . S
C108 C134 1.490 . S
C109 C104 1.397 . S
C109 C108 1.388 . S
C109 C140 1.519 . S
C110 C104 1.492 . S
C110 C111 1.363 . S
C110 C115 1.390 . S
C111 H76 0.930 . S
C111 C110 1.363 . S
C111 C112 1.372 . S
C112 H77 0.930 . S
C112 C111 1.372 . S
C112 C113 1.383 . S
C113 C112 1.383 . S
C113 C114 1.395 . S
C114 H78 0.930 . S
C114 C113 1.395 . S
C114 C115 1.362 . S
C115 H79 0.930 . S
C115 C110 1.390 . S
C115 C114 1.362 . S
C116 C105 1.492 . S
C116 C117 1.377 . S
C116 C121 1.397 . S
C117 H80 0.931 . S
C117 C116 1.377 . S
C117 C118 1.376 . S
C118 H81 0.930 . S
C118 C117 1.376 . S
C118 C119 1.376 . S
C119 C118 1.376 . S
C119 C120 1.378 . S
C119 C146 1.486 . S
C120 H82 0.930 . S
C120 C119 1.378 . S
C120 C121 1.376 . S
C121 H83 0.929 . S
C121 C116 1.397 . S
C121 C120 1.376 . S
C122 C106 1.509 . S
C122 C123 1.391 . S
C122 C127 1.386 . S
C123 H84 0.930 . S
C123 C122 1.391 . S
C123 C124 1.375 1_565 S
C124 H85 0.931 . S
C124 C123 1.375 1_545 S
C124 C125 1.375 . S
C125 C124 1.375 . S
C125 C126 1.361 1_545 S
C126 H86 0.930 . S
C126 C125 1.361 1_565 S
C126 C127 1.399 . S
C127 H87 0.929 . S
C127 C122 1.386 . S
C127 C126 1.399 . S
C128 C107 1.485 . S
C128 C129 1.394 . S
C128 C133 1.360 . S
C129 H88 0.931 . S
C129 C128 1.394 . S
C129 C130 1.372 1_565 S
C130 H89 0.930 . S
C130 C129 1.372 1_545 S
C130 C131 1.397 . S
C131 C130 1.397 . S
C131 C132 1.390 . S
C131 C147 1.476 . S
C132 H90 0.930 . S
C132 C131 1.390 . S
C132 C133 1.366 1_545 S
C133 H91 0.932 . S
C133 C128 1.360 . S
C133 C132 1.366 1_565 S
C134 C108 1.490 . S
C134 C135 1.380 . S
C134 C139 1.386 . S
C135 H92 0.930 . S
C135 C134 1.380 . S
C135 C136 1.381 . S
C136 H93 0.929 . S
C136 C135 1.381 . S
C136 C137 1.371 . S
C137 C136 1.371 . S
C137 C138 1.380 . S
C138 H94 0.931 . S
C138 C137 1.380 . S
C138 C139 1.387 . S
C139 H95 0.930 . S
C139 C134 1.386 . S
C139 C138 1.387 . S
C140 C109 1.519 . S
C140 C141 1.377 . S
C140 C145 1.361 . S
C141 H96 0.929 . S
C141 C140 1.377 . S
C141 C142 1.386 . S
C142 H97 0.931 . S
C142 C141 1.386 . S
C142 C143 1.363 . S
C143 C142 1.363 . S
C143 C144 1.385 . S
C144 H98 0.930 . S
C144 C143 1.385 . S
C144 C145 1.396 . S
C145 H99 0.929 . S
C145 C140 1.361 . S
C145 C144 1.396 . S
C146 O100 1.300 . S
C146 O101 1.209 . S
C146 C119 1.486 . S
C147 O102 1.199 . S
C147 O103 1.297 . S
C147 C131 1.476 . S
H148 O174 0.856 . S
H149 O177 0.854 . S
H150 C185 0.930 . S
H151 C186 0.930 . S
H152 C188 0.930 . S
H153 C189 0.930 . S
H154 C191 0.931 . S
H155 C192 0.930 . S
H156 C194 0.930 1_545 S
H157 C195 0.929 . S
H158 C197 0.930 . S
H159 C198 0.931 . S
H160 C200 0.930 . S
H161 C201 0.929 . S
H162 C203 0.931 . S
H163 C204 0.930 . S
H164 C206 0.930 . S
H165 C207 0.932 . S
H166 C209 0.930 . S
H167 C210 0.929 . S
H168 C212 0.931 . S
H169 C213 0.930 . S
H170 C215 0.929 . S
H171 C216 0.931 . S
H172 C218 0.930 . S
H173 C219 0.929 . S
O174 H148 0.856 . S
O174 C220 1.300 . S
O175 C220 1.209 . S
O176 C221 1.199 . S
O177 H149 0.854 . S
O177 C221 1.297 . S
C178 C179 1.404 . S
C178 C183 1.397 . S
C178 C184 1.492 . S
C179 C178 1.404 . S
C179 C180 1.396 . S
C179 C190 1.492 1_545 S
C180 C179 1.396 . S
C180 C181 1.397 . S
C180 C196 1.509 . S
C181 C180 1.397 . S
C181 C182 1.412 . S
C181 C202 1.485 . S
C182 C181 1.412 . S
C182 C183 1.388 . S
C182 C208 1.490 . S
C183 C178 1.397 . S
C183 C182 1.388 . S
C183 C214 1.519 . S
C184 C178 1.492 . S
C184 C185 1.363 1_545 S
C184 C189 1.390 . S
C185 H150 0.930 . S
C185 C184 1.363 1_565 S
C185 C186 1.372 . S
C186 H151 0.930 . S
C186 C185 1.372 . S
C186 C187 1.383 . S
C187 C186 1.383 . S
C187 C188 1.395 1_565 S
C188 H152 0.930 . S
C188 C187 1.395 1_545 S
C188 C189 1.362 . S
C189 H153 0.930 . S
C189 C184 1.390 . S
C189 C188 1.362 . S
C190 C179 1.492 1_565 S
C190 C191 1.377 . S
C190 C195 1.397 1_565 S
C191 H154 0.931 . S
C191 C190 1.377 . S
C191 C192 1.376 . S
C192 H155 0.930 . S
C192 C191 1.376 . S
C192 C193 1.376 . S
C193 C192 1.376 . S
C193 C194 1.378 . S
C193 C220 1.486 . S
C194 H156 0.930 1_565 S
C194 C193 1.378 . S
C194 C195 1.376 1_565 S
C195 H157 0.929 . S
C195 C190 1.397 1_545 S
C195 C194 1.376 1_545 S
C196 C180 1.509 . S
C196 C197 1.391 1_545 S
C196 C201 1.386 . S
C197 H158 0.930 . S
C197 C196 1.391 1_565 S
C197 C198 1.375 . S
C198 H159 0.931 . S
C198 C197 1.375 . S
C198 C199 1.375 . S
C199 C198 1.375 . S
C199 C200 1.361 1_565 S
C200 H160 0.930 . S
C200 C199 1.361 1_545 S
C200 C201 1.399 . S
C201 H161 0.929 . S
C201 C196 1.386 . S
C201 C200 1.399 . S
C202 C181 1.485 . S
C202 C203 1.394 . S
C202 C207 1.360 . S
C203 H162 0.931 . S
C203 C202 1.394 . S
C203 C204 1.372 . S
C204 H163 0.930 . S
C204 C203 1.372 . S
C204 C205 1.397 . S
C205 C204 1.397 . S
C205 C206 1.390 . S
C205 C221 1.476 . S
C206 H164 0.930 . S
C206 C205 1.390 . S
C206 C207 1.366 . S
C207 H165 0.932 . S
C207 C202 1.360 . S
C207 C206 1.366 . S
C208 C182 1.490 . S
C208 C209 1.380 . S
C208 C213 1.386 . S
C209 H166 0.930 . S
C209 C208 1.380 . S
C209 C210 1.381 1_554 S
C210 H167 0.929 . S
C210 C209 1.381 1_556 S
C210 C211 1.371 . S
C211 C210 1.371 . S
C211 C212 1.380 1_556 S
C212 H168 0.931 . S
C212 C211 1.380 1_554 S
C212 C213 1.387 . S
C213 H169 0.930 . S
C213 C208 1.386 . S
C213 C212 1.387 . S
C214 C183 1.519 . S
C214 C215 1.377 . S
C214 C219 1.361 . S
C215 H170 0.929 . S
C215 C214 1.377 . S
C215 C216 1.386 . S
C216 H171 0.931 . S
C216 C215 1.386 . S
C216 C217 1.363 . S
C217 C216 1.363 . S
C217 C218 1.385 . S
C218 H172 0.930 . S
C218 C217 1.385 . S
C218 C219 1.396 . S
C219 H173 0.929 . S
C219 C214 1.361 . S
C219 C218 1.396 . S
C220 O174 1.300 . S
C220 O175 1.209 . S
C220 C193 1.486 . S
C221 O176 1.199 . S
C221 O177 1.297 . S
C221 C205 1.476 . S
H222 O248 0.856 . S
H223 O251 0.854 . S
H224 C259 0.930 . S
H225 C260 0.930 . S
H226 C262 0.930 . S
H227 C263 0.930 . S
H228 C265 0.931 . S
H229 C266 0.930 . S
H230 C268 0.930 . S
H231 C269 0.929 . S
H232 C271 0.930 . S
H233 C272 0.931 . S
H234 C274 0.930 . S
H235 C275 0.929 . S
H236 C277 0.931 . S
H237 C278 0.930 . S
H238 C280 0.930 . S
H239 C281 0.932 . S
H240 C283 0.930 . S
H241 C284 0.929 . S
H242 C286 0.931 . S
H243 C287 0.930 . S
H244 C289 0.929 . S
H245 C290 0.931 . S
H246 C292 0.930 . S
H247 C293 0.929 . S
O248 H222 0.856 . S
O248 C294 1.300 . S
O249 C294 1.209 . S
O250 C295 1.199 . S
O251 H223 0.854 . S
O251 C295 1.297 . S
C252 C253 1.404 . S
C252 C257 1.397 . S
C252 C258 1.492 . S
C253 C252 1.404 . S
C253 C254 1.396 . S
C253 C264 1.492 . S
C254 C253 1.396 . S
C254 C255 1.397 . S
C254 C270 1.509 . S
C255 C254 1.397 . S
C255 C256 1.412 . S
C255 C276 1.485 . S
C256 C255 1.412 . S
C256 C257 1.388 . S
C256 C282 1.490 . S
C257 C252 1.397 . S
C257 C256 1.388 . S
C257 C288 1.519 . S
C258 C252 1.492 . S
C258 C259 1.363 . S
C258 C263 1.390 . S
C259 H224 0.930 . S
C259 C258 1.363 . S
C259 C260 1.372 . S
C260 H225 0.930 . S
C260 C259 1.372 . S
C260 C261 1.383 . S
C261 C260 1.383 . S
C261 C262 1.395 . S
C262 H226 0.930 . S
C262 C261 1.395 . S
C262 C263 1.362 . S
C263 H227 0.930 . S
C263 C258 1.390 . S
C263 C262 1.362 . S
C264 C253 1.492 . S
C264 C265 1.377 . S
C264 C269 1.397 . S
C265 H228 0.931 . S
C265 C264 1.377 . S
C265 C266 1.376 . S
C266 H229 0.930 . S
C266 C265 1.376 . S
C266 C267 1.376 . S
C267 C266 1.376 . S
C267 C268 1.378 . S
C267 C294 1.486 . S
C268 H230 0.930 . S
C268 C267 1.378 . S
C268 C269 1.376 . S
C269 H231 0.929 . S
C269 C264 1.397 . S
C269 C268 1.376 . S
C270 C254 1.509 . S
C270 C271 1.391 . S
C270 C275 1.386 . S
C271 H232 0.930 . S
C271 C270 1.391 . S
C271 C272 1.375 . S
C272 H233 0.931 . S
C272 C271 1.375 . S
C272 C273 1.375 . S
C273 C272 1.375 . S
C273 C274 1.361 . S
C274 H234 0.930 . S
C274 C273 1.361 . S
C274 C275 1.399 . S
C275 H235 0.929 . S
C275 C270 1.386 . S
C275 C274 1.399 . S
C276 C255 1.485 . S
C276 C277 1.394 . S
C276 C281 1.360 . S
C277 H236 0.931 . S
C277 C276 1.394 . S
C277 C278 1.372 . S
C278 H237 0.930 . S
C278 C277 1.372 . S
C278 C279 1.397 . S
C279 C278 1.397 . S
C279 C280 1.390 . S
C279 C295 1.476 . S
C280 H238 0.930 . S
C280 C279 1.390 . S
C280 C281 1.366 . S
C281 H239 0.932 . S
C281 C276 1.360 . S
C281 C280 1.366 . S
C282 C256 1.490 . S
C282 C283 1.380 . S
C282 C287 1.386 . S
C283 H240 0.930 . S
C283 C282 1.380 . S
C283 C284 1.381 . S
C284 H241 0.929 . S
C284 C283 1.381 . S
C284 C285 1.371 . S
C285 C284 1.371 . S
C285 C286 1.380 . S
C286 H242 0.931 . S
C286 C285 1.380 . S
C286 C287 1.387 . S
C287 H243 0.930 . S
C287 C282 1.386 . S
C287 C286 1.387 . S
C288 C257 1.519 . S
C288 C289 1.377 . S
C288 C293 1.361 . S
C289 H244 0.929 . S
C289 C288 1.377 . S
C289 C290 1.386 . S
C290 H245 0.931 . S
C290 C289 1.386 . S
C290 C291 1.363 . S
C291 C290 1.363 . S
C291 C292 1.385 . S
C292 H246 0.930 . S
C292 C291 1.385 . S
C292 C293 1.396 . S
C293 H247 0.929 . S
C293 C288 1.361 . S
C293 C292 1.396 . S
C294 O248 1.300 . S
C294 O249 1.209 . S
C294 C267 1.486 . S
C295 O250 1.199 . S
C295 O251 1.297 . S
C295 C279 1.476 . S
H296 O322 0.856 . S
H297 O325 0.854 . S
H298 C333 0.930 . S
H299 C334 0.930 . S
H300 C336 0.930 . S
H301 C337 0.930 . S
H302 C339 0.931 . S
H303 C340 0.930 . S
H304 C342 0.930 . S
H305 C343 0.929 . S
H306 C345 0.930 . S
H307 C346 0.931 . S
H308 C348 0.930 . S
H309 C349 0.929 . S
H310 C351 0.931 . S
H311 C352 0.930 . S
H312 C354 0.930 . S
H313 C355 0.932 . S
H314 C357 0.930 . S
H315 C358 0.929 . S
H316 C360 0.931 . S
H317 C361 0.930 . S
H318 C363 0.929 . S
H319 C364 0.931 . S
H320 C366 0.930 . S
H321 C367 0.929 . S
O322 H296 0.856 . S
O322 C368 1.300 . S
O323 C368 1.209 1_455 S
O324 C369 1.199 . S
O325 H297 0.854 . S
O325 C369 1.297 . S
C326 C327 1.404 . S
C326 C331 1.397 . S
C326 C332 1.492 . S
C327 C326 1.404 . S
C327 C328 1.396 . S
C327 C338 1.492 . S
C328 C327 1.396 . S
C328 C329 1.397 . S
C328 C344 1.509 . S
C329 C328 1.397 . S
C329 C330 1.412 . S
C329 C350 1.485 . S
C330 C329 1.412 . S
C330 C331 1.388 . S
C330 C356 1.490 . S
C331 C326 1.397 . S
C331 C330 1.388 . S
C331 C362 1.519 . S
C332 C326 1.492 . S
C332 C333 1.363 . S
C332 C337 1.390 . S
C333 H298 0.930 . S
C333 C332 1.363 . S
C333 C334 1.372 . S
C334 H299 0.930 . S
C334 C333 1.372 . S
C334 C335 1.383 . S
C335 C334 1.383 . S
C335 C336 1.395 . S
C336 H300 0.930 . S
C336 C335 1.395 . S
C336 C337 1.362 . S
C337 H301 0.930 . S
C337 C332 1.390 . S
C337 C336 1.362 . S
C338 C327 1.492 . S
C338 C339 1.377 . S
C338 C343 1.397 . S
C339 H302 0.931 . S
C339 C338 1.377 . S
C339 C340 1.376 . S
C340 H303 0.930 . S
C340 C339 1.376 . S
C340 C341 1.376 . S
C341 C340 1.376 . S
C341 C342 1.378 . S
C341 C368 1.486 . S
C342 H304 0.930 . S
C342 C341 1.378 . S
C342 C343 1.376 . S
C343 H305 0.929 . S
C343 C338 1.397 . S
C343 C342 1.376 . S
C344 C328 1.509 . S
C344 C345 1.391 . S
C344 C349 1.386 . S
C345 H306 0.930 . S
C345 C344 1.391 . S
C345 C346 1.375 . S
C346 H307 0.931 . S
C346 C345 1.375 . S
C346 C347 1.375 . S
C347 C346 1.375 . S
C347 C348 1.361 . S
C348 H308 0.930 . S
C348 C347 1.361 . S
C348 C349 1.399 . S
C349 H309 0.929 . S
C349 C344 1.386 . S
C349 C348 1.399 . S
C350 C329 1.485 . S
C350 C351 1.394 . S
C350 C355 1.360 . S
C351 H310 0.931 . S
C351 C350 1.394 . S
C351 C352 1.372 . S
C352 H311 0.930 . S
C352 C351 1.372 . S
C352 C353 1.397 . S
C353 C352 1.397 . S
C353 C354 1.390 . S
C353 C369 1.476 . S
C354 H312 0.930 . S
C354 C353 1.390 . S
C354 C355 1.366 . S
C355 H313 0.932 . S
C355 C350 1.360 . S
C355 C354 1.366 . S
C356 C330 1.490 . S
C356 C357 1.380 . S
C356 C361 1.386 . S
C357 H314 0.930 . S
C357 C356 1.380 . S
C357 C358 1.381 . S
C358 H315 0.929 . S
C358 C357 1.381 . S
C358 C359 1.371 . S
C359 C358 1.371 . S
C359 C360 1.380 . S
C360 H316 0.931 . S
C360 C359 1.380 . S
C360 C361 1.387 . S
C361 H317 0.930 . S
C361 C356 1.386 . S
C361 C360 1.387 . S
C362 C331 1.519 . S
C362 C363 1.377 . S
C362 C367 1.361 . S
C363 H318 0.929 . S
C363 C362 1.377 . S
C363 C364 1.386 . S
C364 H319 0.931 . S
C364 C363 1.386 . S
C364 C365 1.363 . S
C365 C364 1.363 . S
C365 C366 1.385 . S
C366 H320 0.930 . S
C366 C365 1.385 . S
C366 C367 1.396 . S
C367 H321 0.929 . S
C367 C362 1.361 . S
C367 C366 1.396 . S
C368 O322 1.300 . S
C368 O323 1.209 1_655 S
C368 C341 1.486 . S
C369 O324 1.199 . S
C369 O325 1.297 . S
C369 C353 1.476 . S
H370 O396 0.856 . S
H371 O399 0.854 . S
H372 C407 0.930 . S
H373 C408 0.930 . S
H374 C410 0.930 1_545 S
H375 C411 0.930 . S
H376 C413 0.931 . S
H377 C414 0.930 . S
H378 C416 0.930 . S
H379 C417 0.929 . S
H380 C419 0.930 . S
H381 C420 0.931 . S
H382 C422 0.930 . S
H383 C423 0.929 . S
H384 C425 0.931 . S
H385 C426 0.930 . S
H386 C428 0.930 . S
H387 C429 0.932 . S
H388 C431 0.930 . S
H389 C432 0.929 1_455 S
H390 C434 0.931 . S
H391 C435 0.930 . S
H392 C437 0.929 . S
H393 C438 0.931 . S
H394 C440 0.930 . S
H395 C441 0.929 . S
O396 H370 0.856 . S
O396 C442 1.300 . S
O397 C442 1.209 . S
O398 C443 1.199 . S
O399 H371 0.854 . S
O399 C443 1.297 . S
C400 C401 1.404 . S
C400 C405 1.397 . S
C400 C406 1.492 . S
C401 C400 1.404 . S
C401 C402 1.396 . S
C401 C412 1.492 . S
C402 C401 1.396 . S
C402 C403 1.397 . S
C402 C418 1.509 . S
C403 C402 1.397 . S
C403 C404 1.412 . S
C403 C424 1.485 . S
C404 C403 1.412 . S
C404 C405 1.388 . S
C404 C430 1.490 . S
C405 C400 1.397 . S
C405 C404 1.388 . S
C405 C436 1.519 . S
C406 C400 1.492 . S
C406 C407 1.363 . S
C406 C411 1.390 . S
C407 H372 0.930 . S
C407 C406 1.363 . S
C407 C408 1.372 . S
C408 H373 0.930 . S
C408 C407 1.372 . S
C408 C409 1.383 1_565 S
C409 C408 1.383 1_545 S
C409 C410 1.395 1_545 S
C410 H374 0.930 1_565 S
C410 C409 1.395 1_565 S
C410 C411 1.362 . S
C411 H375 0.930 . S
C411 C406 1.390 . S
C411 C410 1.362 . S
C412 C401 1.492 . S
C412 C413 1.377 . S
C412 C417 1.397 . S
C413 H376 0.931 . S
C413 C412 1.377 . S
C413 C414 1.376 . S
C414 H377 0.930 . S
C414 C413 1.376 . S
C414 C415 1.376 . S
C415 C414 1.376 . S
C415 C416 1.378 . S
C415 C442 1.486 . S
C416 H378 0.930 . S
C416 C415 1.378 . S
C416 C417 1.376 . S
C417 H379 0.929 . S
C417 C412 1.397 . S
C417 C416 1.376 . S
C418 C402 1.509 . S
C418 C419 1.391 . S
C418 C423 1.386 . S
C419 H380 0.930 . S
C419 C418 1.391 . S
C419 C420 1.375 . S
C420 H381 0.931 . S
C420 C419 1.375 . S
C420 C421 1.375 . S
C421 C420 1.375 . S
C421 C422 1.361 . S
C422 H382 0.930 . S
C422 C421 1.361 . S
C422 C423 1.399 . S
C423 H383 0.929 . S
C423 C418 1.386 . S
C423 C422 1.399 . S
C424 C403 1.485 . S
C424 C425 1.394 . S
C424 C429 1.360 . S
C425 H384 0.931 . S
C425 C424 1.394 . S
C425 C426 1.372 . S
C426 H385 0.930 . S
C426 C425 1.372 . S
C426 C427 1.397 . S
C427 C426 1.397 . S
C427 C428 1.390 . S
C427 C443 1.476 . S
C428 H386 0.930 . S
C428 C427 1.390 . S
C428 C429 1.366 . S
C429 H387 0.932 . S
C429 C424 1.360 . S
C429 C428 1.366 . S
C430 C404 1.490 . S
C430 C431 1.380 . S
C430 C435 1.386 . S
C431 H388 0.930 . S
C431 C430 1.380 . S
C431 C432 1.381 . S
C432 H389 0.929 1_655 S
C432 C431 1.381 . S
C432 C433 1.371 . S
C433 C432 1.371 . S
C433 C434 1.380 . S
C434 H390 0.931 . S
C434 C433 1.380 . S
C434 C435 1.387 . S
C435 H391 0.930 . S
C435 C430 1.386 . S
C435 C434 1.387 . S
C436 C405 1.519 . S
C436 C437 1.377 . S
C436 C441 1.361 . S
C437 H392 0.929 . S
C437 C436 1.377 . S
C437 C438 1.386 . S
C438 H393 0.931 . S
C438 C437 1.386 . S
C438 C439 1.363 . S
C439 C438 1.363 . S
C439 C440 1.385 . S
C440 H394 0.930 . S
C440 C439 1.385 . S
C440 C441 1.396 . S
C441 H395 0.929 . S
C441 C436 1.361 . S
C441 C440 1.396 . S
C442 O396 1.300 . S
C442 O397 1.209 . S
C442 C415 1.486 . S
C443 O398 1.199 . S
C443 O399 1.297 . S
C443 C427 1.476 . S
H444 O470 0.856 . S
H445 O473 0.854 . S
H446 C481 0.930 . S
H447 C482 0.930 . S
H448 C484 0.930 . S
H449 C485 0.930 . S
H450 C487 0.931 . S
H451 C488 0.930 . S
H452 C490 0.930 . S
H453 C491 0.929 . S
H454 C493 0.930 . S
H455 C494 0.931 . S
H456 C496 0.930 . S
H457 C497 0.929 . S
H458 C499 0.931 . S
H459 C500 0.930 . S
H460 C502 0.930 . S
H461 C503 0.932 . S
H462 C505 0.930 . S
H463 C506 0.929 . S
H464 C508 0.931 . S
H465 C509 0.930 . S
H466 C511 0.929 . S
H467 C512 0.931 . S
H468 C514 0.930 . S
H469 C515 0.929 . S
O470 H444 0.856 . S
O470 C516 1.300 . S
O471 C516 1.209 . S
O472 C517 1.199 . S
O473 H445 0.854 . S
O473 C517 1.297 . S
C474 C475 1.404 . S
C474 C479 1.397 . S
C474 C480 1.492 . S
C475 C474 1.404 . S
C475 C476 1.396 . S
C475 C486 1.492 . S
C476 C475 1.396 . S
C476 C477 1.397 . S
C476 C492 1.509 . S
C477 C476 1.397 . S
C477 C478 1.412 . S
C477 C498 1.485 . S
C478 C477 1.412 . S
C478 C479 1.388 . S
C478 C504 1.490 . S
C479 C474 1.397 . S
C479 C478 1.388 . S
C479 C510 1.519 . S
C480 C474 1.492 . S
C480 C481 1.363 . S
C480 C485 1.390 . S
C481 H446 0.930 . S
C481 C480 1.363 . S
C481 C482 1.372 . S
C482 H447 0.930 . S
C482 C481 1.372 . S
C482 C483 1.383 . S
C483 C482 1.383 . S
C483 C484 1.395 . S
C484 H448 0.930 . S
C484 C483 1.395 . S
C484 C485 1.362 . S
C485 H449 0.930 . S
C485 C480 1.390 . S
C485 C484 1.362 . S
C486 C475 1.492 . S
C486 C487 1.377 1_554 S
C486 C491 1.397 . S
C487 H450 0.931 . S
C487 C486 1.377 1_556 S
C487 C488 1.376 . S
C488 H451 0.930 . S
C488 C487 1.376 . S
C488 C489 1.376 . S
C489 C488 1.376 . S
C489 C490 1.378 . S
C489 C516 1.486 . S
C490 H452 0.930 . S
C490 C489 1.378 . S
C490 C491 1.376 1_556 S
C491 H453 0.929 . S
C491 C486 1.397 . S
C491 C490 1.376 1_554 S
C492 C476 1.509 . S
C492 C493 1.391 . S
C492 C497 1.386 . S
C493 H454 0.930 . S
C493 C492 1.391 . S
C493 C494 1.375 1_554 S
C494 H455 0.931 . S
C494 C493 1.375 1_556 S
C494 C495 1.375 . S
C495 C494 1.375 . S
C495 C496 1.361 1_556 S
C496 H456 0.930 . S
C496 C495 1.361 1_554 S
C496 C497 1.399 . S
C497 H457 0.929 . S
C497 C492 1.386 . S
C497 C496 1.399 . S
C498 C477 1.485 . S
C498 C499 1.394 . S
C498 C503 1.360 . S
C499 H458 0.931 . S
C499 C498 1.394 . S
C499 C500 1.372 . S
C500 H459 0.930 . S
C500 C499 1.372 . S
C500 C501 1.397 . S
C501 C500 1.397 . S
C501 C502 1.390 . S
C501 C517 1.476 . S
C502 H460 0.930 . S
C502 C501 1.390 . S
C502 C503 1.366 . S
C503 H461 0.932 . S
C503 C498 1.360 . S
C503 C502 1.366 . S
C504 C478 1.490 . S
C504 C505 1.380 . S
C504 C509 1.386 . S
C505 H462 0.930 . S
C505 C504 1.380 . S
C505 C506 1.381 . S
C506 H463 0.929 . S
C506 C505 1.381 . S
C506 C507 1.371 . S
C507 C506 1.371 . S
C507 C508 1.380 . S
C508 H464 0.931 . S
C508 C507 1.380 . S
C508 C509 1.387 . S
C509 H465 0.930 . S
C509 C504 1.386 . S
C509 C508 1.387 . S
C510 C479 1.519 . S
C510 C511 1.377 . S
C510 C515 1.361 . S
C511 H466 0.929 . S
C511 C510 1.377 . S
C511 C512 1.386 . S
C512 H467 0.931 . S
C512 C511 1.386 . S
C512 C513 1.363 . S
C513 C512 1.363 . S
C513 C514 1.385 . S
C514 H468 0.930 . S
C514 C513 1.385 . S
C514 C515 1.396 . S
C515 H469 0.929 . S
C515 C510 1.361 . S
C515 C514 1.396 . S
C516 O470 1.300 . S
C516 O471 1.209 . S
C516 C489 1.486 . S
C517 O472 1.199 . S
C517 O473 1.297 . S
C517 C501 1.476 . S
H518 O544 0.853 1_655 S
H519 O547 0.854 . S
H520 C555 0.930 . S
H521 C556 0.930 . S
H522 C558 0.930 . S
H523 C559 0.930 . S
H524 C561 0.931 . S
H525 C562 0.930 . S
H526 C564 0.930 . S
H527 C565 0.929 1_655 S
H528 C567 0.930 . S
H529 C568 0.931 . S
H530 C570 0.930 . S
H531 C571 0.929 . S
H532 C573 0.931 . S
H533 C574 0.930 . S
H534 C576 0.930 . S
H535 C577 0.932 . S
H536 C579 0.930 . S
H537 C580 0.929 . S
H538 C582 0.931 . S
H539 C583 0.930 . S
H540 C585 0.929 . S
H541 C586 0.931 . S
H542 C588 0.930 . S
H543 C589 0.929 1_455 S
O544 H518 0.853 1_455 S
O544 C590 1.295 1_455 S
O545 C590 1.209 . S
O546 C591 1.199 . S
O547 H519 0.854 . S
O547 C591 1.297 . S
C548 C549 1.404 . S
C548 C553 1.397 . S
C548 C554 1.492 1_455 S
C549 C548 1.404 . S
C549 C550 1.396 . S
C549 C560 1.492 . S
C550 C549 1.396 . S
C550 C551 1.397 . S
C550 C566 1.509 . S
C551 C550 1.397 . S
C551 C552 1.412 . S
C551 C572 1.485 . S
C552 C551 1.412 . S
C552 C553 1.388 . S
C552 C578 1.490 . S
C553 C548 1.397 . S
C553 C552 1.388 . S
C553 C584 1.519 1_455 S
C554 C548 1.492 1_655 S
C554 C555 1.363 . S
C554 C559 1.390 . S
C555 H520 0.930 . S
C555 C554 1.363 . S
C555 C556 1.372 . S
C556 H521 0.930 . S
C556 C555 1.372 . S
C556 C557 1.383 . S
C557 C556 1.383 . S
C557 C558 1.395 . S
C558 H522 0.930 . S
C558 C557 1.395 . S
C558 C559 1.362 . S
C559 H523 0.930 . S
C559 C554 1.390 . S
C559 C558 1.362 . S
C560 C549 1.492 . S
C560 C561 1.377 . S
C560 C565 1.397 . S
C561 H524 0.931 . S
C561 C560 1.377 . S
C561 C562 1.376 . S
C562 H525 0.930 . S
C562 C561 1.376 . S
C562 C563 1.376 . S
C563 C562 1.376 . S
C563 C564 1.378 1_455 S
C563 C590 1.486 1_455 S
C564 H526 0.930 . S
C564 C563 1.378 1_655 S
C564 C565 1.376 1_655 S
C565 H527 0.929 1_455 S
C565 C560 1.397 . S
C565 C564 1.376 1_455 S
C566 C550 1.509 . S
C566 C567 1.391 . S
C566 C571 1.386 . S
C567 H528 0.930 . S
C567 C566 1.391 . S
C567 C568 1.375 . S
C568 H529 0.931 . S
C568 C567 1.375 . S
C568 C569 1.375 . S
C569 C568 1.375 . S
C569 C570 1.361 . S
C570 H530 0.930 . S
C570 C569 1.361 . S
C570 C571 1.399 . S
C571 H531 0.929 . S
C571 C566 1.386 . S
C571 C570 1.399 . S
C572 C551 1.485 . S
C572 C573 1.394 . S
C572 C577 1.360 . S
C573 H532 0.931 . S
C573 C572 1.394 . S
C573 C574 1.372 . S
C574 H533 0.930 . S
C574 C573 1.372 . S
C574 C575 1.397 . S
C575 C574 1.397 . S
C575 C576 1.390 . S
C575 C591 1.476 . S
C576 H534 0.930 . S
C576 C575 1.390 . S
C576 C577 1.366 . S
C577 H535 0.932 . S
C577 C572 1.360 . S
C577 C576 1.366 . S
C578 C552 1.490 . S
C578 C579 1.380 . S
C578 C583 1.386 . S
C579 H536 0.930 . S
C579 C578 1.380 . S
C579 C580 1.381 . S
C580 H537 0.929 . S
C580 C579 1.381 . S
C580 C581 1.371 . S
C581 C580 1.371 . S
C581 C582 1.380 . S
C582 H538 0.931 . S
C582 C581 1.380 . S
C582 C583 1.387 . S
C583 H539 0.930 . S
C583 C578 1.386 . S
C583 C582 1.387 . S
C584 C553 1.519 1_655 S
C584 C585 1.377 . S
C584 C589 1.361 . S
C585 H540 0.929 . S
C585 C584 1.377 . S
C585 C586 1.386 . S
C586 H541 0.931 . S
C586 C585 1.386 . S
C586 C587 1.363 . S
C587 C586 1.363 . S
C587 C588 1.385 . S
C588 H542 0.930 . S
C588 C587 1.385 . S
C588 C589 1.396 . S
C589 H543 0.929 1_655 S
C589 C584 1.361 . S
C589 C588 1.396 . S
C590 O544 1.295 1_655 S
C590 O545 1.209 . S
C590 C563 1.486 1_655 S
C591 O546 1.199 . S
C591 O547 1.297 . S
C591 C575 1.476 . S
Fe592 O593 1.886 . S
Fe592 O596 1.715 1_455 S
Fe592 O601 2.077 . S
Fe592 O606 1.935 1_455 S
Fe592 O612 2.077 . S
Fe592 O621 1.935 1_455 S
O593 Fe592 1.886 . S
O593 Fe595 1.715 . S
Fe594 O596 1.886 . S
Fe594 O597 1.715 . S
Fe594 O604 1.935 . S
Fe594 O605 2.077 . S
Fe594 O611 1.935 . S
Fe594 O620 2.077 . S
Fe595 O593 1.715 . S
Fe595 O598 1.886 . S
Fe595 O602 1.935 . S
Fe595 O607 2.077 . S
Fe595 O613 1.935 . S
Fe595 O617 2.077 . S
O596 Fe592 1.715 1_655 S
O596 Fe594 1.886 . S
O597 Fe594 1.715 . S
O597 Fe599 1.886 1_655 S
O598 Fe595 1.886 . S
O598 Fe599 1.715 . S
Fe599 O597 1.886 1_455 S
Fe599 O598 1.715 . S
Fe599 O603 2.077 1_455 S
Fe599 O608 1.935 . S
Fe599 O610 2.077 1_455 S
Fe599 O618 1.935 . S
C600 O612 1.381 . S
C600 O613 1.421 . S
O601 Fe592 2.077 . S
O601 C614 1.381 . S
O602 Fe595 1.935 . S
O602 C614 1.421 . S
O603 Fe599 2.077 1_655 S
O603 C619 1.381 . S
O604 Fe594 1.935 . S
O604 C619 1.421 . S
O605 Fe594 2.077 . S
O605 C609 1.381 . S
O606 Fe592 1.935 1_655 S
O606 C609 1.421 . S
O607 Fe595 2.077 . S
O607 C615 1.381 . S
O608 Fe599 1.935 . S
O608 C615 1.421 . S
C609 O605 1.381 . S
C609 O606 1.421 . S
O610 Fe599 2.077 1_655 S
O610 C622 1.381 . S
O611 Fe594 1.935 . S
O611 C622 1.421 . S
O612 Fe592 2.077 . S
O612 C600 1.381 . S
O613 Fe595 1.935 . S
O613 C600 1.421 . S
C614 O601 1.381 . S
C614 O602 1.421 . S
C615 O607 1.381 . S
C615 O608 1.421 . S
C616 O617 1.381 . S
C616 O618 1.421 . S
O617 Fe595 2.077 . S
O617 C616 1.381 . S
O618 Fe599 1.935 . S
O618 C616 1.421 . S
C619 O603 1.381 . S
C619 O604 1.421 . S
O620 Fe594 2.077 . S
O620 C623 1.381 . S
O621 Fe592 1.935 1_655 S
O621 C623 1.421 . S
C622 O610 1.381 . S
C622 O611 1.421 . S
C623 O620 1.381 . S
C623 O621 1.421 . S
Fe624 O625 1.886 . S
Fe624 O628 1.715 . S
Fe624 O633 2.077 . S
Fe624 O638 1.935 . S
Fe624 O644 2.077 . S
Fe624 O653 1.935 . S
O625 Fe624 1.886 . S
O625 Fe627 1.715 . S
Fe626 O628 1.886 . S
Fe626 O629 1.715 . S
Fe626 O636 1.935 . S
Fe626 O637 2.077 . S
Fe626 O643 1.935 . S
Fe626 O652 2.077 . S
Fe627 O625 1.715 . S
Fe627 O630 1.886 . S
Fe627 O634 1.935 . S
Fe627 O639 2.077 . S
Fe627 O645 1.935 . S
Fe627 O649 2.077 . S
O628 Fe624 1.715 . S
O628 Fe626 1.886 . S
O629 Fe626 1.715 . S
O629 Fe631 1.886 . S
O630 Fe627 1.886 . S
O630 Fe631 1.715 . S
Fe631 O629 1.886 . S
Fe631 O630 1.715 . S
Fe631 O635 2.077 . S
Fe631 O640 1.935 . S
Fe631 O642 2.077 . S
Fe631 O650 1.935 . S
C632 O644 1.381 . S
C632 O645 1.421 . S
O633 Fe624 2.077 . S
O633 C646 1.381 . S
O634 Fe627 1.935 . S
O634 C646 1.421 . S
O635 Fe631 2.077 . S
O635 C651 1.381 . S
O636 Fe626 1.935 . S
O636 C651 1.421 . S
O637 Fe626 2.077 . S
O637 C641 1.381 . S
O638 Fe624 1.935 . S
O638 C641 1.421 . S
O639 Fe627 2.077 . S
O639 C647 1.381 . S
O640 Fe631 1.935 . S
O640 C647 1.421 . S
C641 O637 1.381 . S
C641 O638 1.421 . S
O642 Fe631 2.077 . S
O642 C654 1.381 . S
O643 Fe626 1.935 . S
O643 C654 1.421 . S
O644 Fe624 2.077 . S
O644 C632 1.381 . S
O645 Fe627 1.935 . S
O645 C632 1.421 . S
C646 O633 1.381 . S
C646 O634 1.421 . S
C647 O639 1.381 . S
C647 O640 1.421 . S
C648 O649 1.381 . S
C648 O650 1.421 . S
O649 Fe627 2.077 . S
O649 C648 1.381 . S
O650 Fe631 1.935 . S
O650 C648 1.421 . S
C651 O635 1.381 . S
C651 O636 1.421 . S
O652 Fe626 2.077 . S
O652 C655 1.381 . S
O653 Fe624 1.935 . S
O653 C655 1.421 . S
C654 O642 1.381 . S
C654 O643 1.421 . S
C655 O652 1.381 . S
C655 O653 1.421 . S
Fe656 O657 1.886 . S
Fe656 O660 1.715 . S
Fe656 O665 2.077 . S
Fe656 O670 1.935 . S
Fe656 O676 2.077 . S
Fe656 O685 1.935 . S
O657 Fe656 1.886 . S
O657 Fe659 1.715 . S
Fe658 O660 1.886 . S
Fe658 O661 1.715 . S
Fe658 O668 1.935 . S
Fe658 O669 2.077 . S
Fe658 O675 1.935 . S
Fe658 O684 2.077 . S
Fe659 O657 1.715 . S
Fe659 O662 1.886 . S
Fe659 O666 1.935 . S
Fe659 O671 2.077 . S
Fe659 O677 1.935 . S
Fe659 O681 2.077 . S
O660 Fe656 1.715 . S
O660 Fe658 1.886 . S
O661 Fe658 1.715 . S
O661 Fe663 1.886 . S
O662 Fe659 1.886 . S
O662 Fe663 1.715 . S
Fe663 O661 1.886 . S
Fe663 O662 1.715 . S
Fe663 O667 2.077 . S
Fe663 O672 1.935 . S
Fe663 O674 2.077 . S
Fe663 O682 1.935 . S
C664 O676 1.381 . S
C664 O677 1.421 . S
O665 Fe656 2.077 . S
O665 C678 1.381 . S
O666 Fe659 1.935 . S
O666 C678 1.421 . S
O667 Fe663 2.077 . S
O667 C683 1.381 . S
O668 Fe658 1.935 . S
O668 C683 1.421 . S
O669 Fe658 2.077 . S
O669 C673 1.381 . S
O670 Fe656 1.935 . S
O670 C673 1.421 . S
O671 Fe659 2.077 . S
O671 C679 1.381 . S
O672 Fe663 1.935 . S
O672 C679 1.421 . S
C673 O669 1.381 . S
C673 O670 1.421 . S
O674 Fe663 2.077 . S
O674 C686 1.381 . S
O675 Fe658 1.935 . S
O675 C686 1.421 . S
O676 Fe656 2.077 . S
O676 C664 1.381 . S
O677 Fe659 1.935 . S
O677 C664 1.421 . S
C678 O665 1.381 . S
C678 O666 1.421 . S
C679 O671 1.381 . S
C679 O672 1.421 . S
C680 O681 1.381 . S
C680 O682 1.421 . S
O681 Fe659 2.077 . S
O681 C680 1.381 . S
O682 Fe663 1.935 . S
O682 C680 1.421 . S
C683 O667 1.381 . S
C683 O668 1.421 . S
O684 Fe658 2.077 . S
O684 C687 1.381 . S
O685 Fe656 1.935 . S
O685 C687 1.421 . S
C686 O674 1.381 . S
C686 O675 1.421 . S
C687 O684 1.381 . S
C687 O685 1.421 . S
Fe688 O689 1.886 . S
Fe688 O692 1.715 . S
Fe688 O697 2.077 1_455 S
Fe688 O702 1.935 1_455 S
Fe688 O708 2.077 . S
Fe688 O717 1.935 . S
O689 Fe688 1.886 . S
O689 Fe691 1.715 . S
Fe690 O692 1.886 . S
Fe690 O693 1.715 . S
Fe690 O700 1.935 1_455 S
Fe690 O701 2.077 1_455 S
Fe690 O707 1.935 . S
Fe690 O716 2.077 . S
Fe691 O689 1.715 . S
Fe691 O694 1.886 . S
Fe691 O698 1.935 1_455 S
Fe691 O703 2.077 1_455 S
Fe691 O709 1.935 . S
Fe691 O713 2.077 . S
O692 Fe688 1.715 . S
O692 Fe690 1.886 . S
O693 Fe690 1.715 . S
O693 Fe695 1.886 . S
O694 Fe691 1.886 . S
O694 Fe695 1.715 . S
Fe695 O693 1.886 . S
Fe695 O694 1.715 . S
Fe695 O699 2.077 1_455 S
Fe695 O704 1.935 1_455 S
Fe695 O706 2.077 . S
Fe695 O714 1.935 . S
C696 O708 1.381 . S
C696 O709 1.421 . S
O697 Fe688 2.077 1_655 S
O697 C710 1.381 . S
O698 Fe691 1.935 1_655 S
O698 C710 1.421 . S
O699 Fe695 2.077 1_655 S
O699 C715 1.381 . S
O700 Fe690 1.935 1_655 S
O700 C715 1.421 . S
O701 Fe690 2.077 1_655 S
O701 C705 1.381 . S
O702 Fe688 1.935 1_655 S
O702 C705 1.421 . S
O703 Fe691 2.077 1_655 S
O703 C711 1.381 . S
O704 Fe695 1.935 1_655 S
O704 C711 1.421 . S
C705 O701 1.381 . S
C705 O702 1.421 . S
O706 Fe695 2.077 . S
O706 C718 1.381 . S
O707 Fe690 1.935 . S
O707 C718 1.421 . S
O708 Fe688 2.077 . S
O708 C696 1.381 . S
O709 Fe691 1.935 . S
O709 C696 1.421 . S
C710 O697 1.381 . S
C710 O698 1.421 . S
C711 O703 1.381 . S
C711 O704 1.421 . S
C712 O713 1.381 . S
C712 O714 1.421 . S
O713 Fe691 2.077 . S
O713 C712 1.381 . S
O714 Fe695 1.935 . S
O714 C712 1.421 . S
C715 O699 1.381 . S
C715 O700 1.421 . S
O716 Fe690 2.077 . S
O716 C719 1.381 . S
O717 Fe688 1.935 . S
O717 C719 1.421 . S
C718 O706 1.381 . S
C718 O707 1.421 . S
C719 O716 1.381 . S
C719 O717 1.421 . S
C720 C721 1.363 . S
C720 C726 1.379 . S
C720 N728 1.356 . S
C721 C720 1.363 . S
C721 C727 1.363 . S
C722 C723 1.363 . S
C722 C727 1.379 . S
C722 N729 1.356 . S
C723 C722 1.363 . S
C723 C726 1.363 . S
N724 C726 1.356 . S
N724 H736 0.984 1_565 S
N724 H737 0.985 . S
N725 C727 1.356 . S
N725 H730 0.984 . S
N725 H731 0.985 . S
C726 C720 1.379 . S
C726 C723 1.363 . S
C726 N724 1.356 . S
C727 C721 1.363 . S
C727 C722 1.379 . S
C727 N725 1.356 . S
N728 C720 1.356 . S
N728 H734 0.984 1_565 S
N728 H735 0.984 . S
N729 C722 1.356 . S
N729 H732 0.984 . S
N729 H733 0.985 . S
H730 N725 0.984 . S
H731 N725 0.985 . S
H732 N729 0.984 . S
H733 N729 0.985 . S
H734 N728 0.984 1_545 S
H735 N728 0.984 . S
H736 N724 0.984 1_545 S
H737 N724 0.985 . S
C738 C739 1.363 . S
C738 C744 1.379 . S
C738 N746 1.356 1_545 S
C739 C738 1.363 . S
C739 C745 1.363 . S
C740 C741 1.363 . S
C740 C745 1.379 . S
C740 N747 1.356 . S
C741 C740 1.363 . S
C741 C744 1.363 . S
N742 C744 1.356 . S
N742 H754 0.984 . S
N742 H755 0.985 . S
N743 C745 1.356 . S
N743 H748 0.984 . S
N743 H749 0.985 . S
C744 C738 1.379 . S
C744 C741 1.363 . S
C744 N742 1.356 . S
C745 C739 1.363 . S
C745 C740 1.379 . S
C745 N743 1.356 . S
N746 C738 1.356 1_565 S
N746 H752 0.984 . S
N746 H753 0.984 . S
N747 C740 1.356 . S
N747 H750 0.984 . S
N747 H751 0.985 . S
H748 N743 0.984 . S
H749 N743 0.985 . S
H750 N747 0.984 . S
H751 N747 0.985 . S
H752 N746 0.984 . S
H753 N746 0.984 . S
H754 N742 0.984 . S
H755 N742 0.985 . S
C756 C757 1.368 . S
C756 C762 1.379 1_554 S
C756 N764 1.356 . S
C757 C756 1.368 . S
C757 C763 1.335 1_554 S
C758 C759 1.363 . S
C758 C763 1.379 . S
C758 N765 1.356 . S
C759 C758 1.363 . S
C759 C762 1.363 . S
N760 C762 1.356 . S
N760 H772 0.984 . S
N760 H773 0.985 . S
N761 C763 1.356 . S
N761 H766 0.984 . S
N761 H767 0.985 . S
C762 C756 1.379 1_556 S
C762 C759 1.363 . S
C762 N760 1.356 . S
C763 C757 1.335 1_556 S
C763 C758 1.379 . S
C763 N761 1.356 . S
N764 C756 1.356 . S
N764 H770 0.984 . S
N764 H771 0.984 . S
N765 C758 1.356 . S
N765 H768 0.984 . S
N765 H769 0.985 . S
H766 N761 0.984 . S
H767 N761 0.985 . S
H768 N765 0.984 . S
H769 N765 0.985 . S
H770 N764 0.984 . S
H771 N764 0.984 . S
H772 N760 0.984 . S
H773 N760 0.985 . S
C774 C775 1.363 1_565 S
C774 C780 1.379 . S
C774 N782 1.356 . S
C775 C774 1.363 1_545 S
C775 C781 1.363 . S
C776 C777 1.363 . S
C776 C781 1.379 1_565 S
C776 N783 1.356 1_565 S
C777 C776 1.363 . S
C777 C780 1.363 . S
N778 C780 1.356 . S
N778 H790 0.984 . S
N778 H791 0.985 . S
N779 C781 1.356 . S
N779 H784 0.984 . S
N779 H785 0.985 . S
C780 C774 1.379 . S
C780 C777 1.363 . S
C780 N778 1.356 . S
C781 C775 1.363 . S
C781 C776 1.379 1_545 S
C781 N779 1.356 . S
N782 C774 1.356 . S
N782 H788 0.984 . S
N782 H789 0.984 . S
N783 C776 1.356 1_545 S
N783 H786 0.984 1_545 S
N783 H787 0.985 . S
H784 N779 0.984 . S
H785 N779 0.985 . S
H786 N783 0.984 1_565 S
H787 N783 0.985 . S
H788 N782 0.984 . S
H789 N782 0.984 . S
H790 N778 0.984 . S
H791 N778 0.985 . S
C792 C793 1.363 . S
C792 C798 1.379 . S
C792 N800 1.356 . S
C793 C792 1.363 . S
C793 C799 1.363 . S
C794 C795 1.363 . S
C794 C799 1.379 . S
C794 N801 1.356 . S
C795 C794 1.363 . S
C795 C798 1.363 . S
N796 C798 1.356 . S
N796 H808 0.984 . S
N796 H809 0.985 . S
N797 C799 1.356 . S
N797 H802 0.984 . S
N797 H803 0.985 . S
C798 C792 1.379 . S
C798 C795 1.363 . S
C798 N796 1.356 . S
C799 C793 1.363 . S
C799 C794 1.379 . S
C799 N797 1.356 . S
N800 C792 1.356 . S
N800 H806 0.984 . S
N800 H807 0.984 . S
N801 C794 1.356 . S
N801 H804 0.984 . S
N801 H805 0.985 . S
H802 N797 0.984 . S
H803 N797 0.985 . S
H804 N801 0.984 . S
H805 N801 0.985 . S
H806 N800 0.984 . S
H807 N800 0.984 . S
H808 N796 0.984 . S
H809 N796 0.985 . S
C810 C811 1.363 1_545 S
C810 C816 1.379 . S
C810 N818 1.356 1_545 S
C811 C810 1.363 1_565 S
C811 C817 1.363 . S
C812 C813 1.363 . S
C812 C817 1.379 1_545 S
C812 N819 1.356 . S
C813 C812 1.363 . S
C813 C816 1.363 . S
N814 C816 1.356 . S
N814 H826 0.984 . S
N814 H827 0.985 . S
N815 C817 1.356 . S
N815 H820 0.984 . S
N815 H821 0.985 . S
C816 C810 1.379 . S
C816 C813 1.363 . S
C816 N814 1.356 . S
C817 C811 1.363 . S
C817 C812 1.379 1_565 S
C817 N815 1.356 . S
N818 C810 1.356 1_565 S
N818 H824 0.984 1_565 S
N818 H825 0.984 . S
N819 C812 1.356 . S
N819 H822 0.984 . S
N819 H823 0.985 . S
H820 N815 0.984 . S
H821 N815 0.985 . S
H822 N819 0.984 . S
H823 N819 0.985 . S
H824 N818 0.984 1_545 S
H825 N818 0.984 . S
H826 N814 0.984 . S
H827 N814 0.985 . S
C828 C829 1.363 1_545 S
C828 C834 1.379 1_545 S
C828 N836 1.356 . S
C829 C828 1.363 1_565 S
C829 C835 1.363 . S
C830 C831 1.363 . S
C830 C835 1.379 . S
C830 N837 1.356 . S
C831 C830 1.363 . S
C831 C834 1.363 . S
N832 C834 1.356 1_545 S
N832 H844 0.984 . S
N832 H845 0.985 1_545 S
N833 C835 1.356 . S
N833 H838 0.984 . S
N833 H839 0.985 . S
C834 C828 1.379 1_565 S
C834 C831 1.363 . S
C834 N832 1.356 1_565 S
C835 C829 1.363 . S
C835 C830 1.379 . S
C835 N833 1.356 . S
N836 C828 1.356 . S
N836 H842 0.984 . S
N836 H843 0.984 . S
N837 C830 1.356 . S
N837 H840 0.984 . S
N837 H841 0.985 . S
H838 N833 0.984 . S
H839 N833 0.985 . S
H840 N837 0.984 . S
H841 N837 0.985 . S
H842 N836 0.984 . S
H843 N836 0.984 . S
H844 N832 0.984 . S
H845 N832 0.985 1_565 S
C846 C847 1.363 . S
C846 C852 1.379 1_545 S
C846 N854 1.356 . S
C847 C846 1.363 . S
C847 C853 1.363 1_545 S
C848 C849 1.363 . S
C848 C853 1.379 . S
C848 N855 1.356 . S
C849 C848 1.363 . S
C849 C852 1.363 . S
N850 C852 1.356 . S
N850 H862 0.984 . S
N850 H863 0.985 . S
N851 C853 1.356 1_545 S
N851 H856 0.984 . S
N851 H857 0.985 1_545 S
C852 C846 1.379 1_565 S
C852 C849 1.363 . S
C852 N850 1.356 . S
C853 C847 1.363 1_565 S
C853 C848 1.379 . S
C853 N851 1.356 1_565 S
N854 C846 1.356 . S
N854 H860 0.984 . S
N854 H861 0.984 . S
N855 C848 1.356 . S
N855 H858 0.984 . S
N855 H859 0.985 . S
H856 N851 0.984 . S
H857 N851 0.985 1_565 S
H858 N855 0.984 . S
H859 N855 0.985 . S
H860 N854 0.984 . S
H861 N854 0.984 . S
H862 N850 0.984 . S
H863 N850 0.985 . S
C864 C865 1.363 . S
C864 C870 1.379 . S
C864 N872 1.356 . S
C865 C864 1.363 . S
C865 C871 1.363 . S
C866 C867 1.363 . S
C866 C871 1.379 . S
C866 N873 1.356 . S
C867 C866 1.363 . S
C867 C870 1.363 . S
N868 C870 1.356 . S
N868 H880 0.984 . S
N868 H881 0.985 . S
N869 C871 1.356 . S
N869 H874 0.984 . S
N869 H875 0.985 . S
C870 C864 1.379 . S
C870 C867 1.363 . S
C870 N868 1.356 . S
C871 C865 1.363 . S
C871 C866 1.379 . S
C871 N869 1.356 . S
N872 C864 1.356 . S
N872 H878 0.984 1_545 S
N872 H879 0.984 . S
N873 C866 1.356 . S
N873 H876 0.984 . S
N873 H877 0.985 . S
H874 N869 0.984 . S
H875 N869 0.985 . S
H876 N873 0.984 . S
H877 N873 0.985 . S
H878 N872 0.984 1_565 S
H879 N872 0.984 . S
H880 N868 0.984 . S
H881 N868 0.985 . S
C882 C883 1.363 1_565 S
C882 C888 1.379 . S
C882 N890 1.356 1_565 S
C883 C882 1.363 1_545 S
C883 C889 1.363 . S
C884 C885 1.363 . S
C884 C889 1.379 1_565 S
C884 N891 1.356 . S
C885 C884 1.363 . S
C885 C888 1.363 . S
N886 C888 1.356 . S
N886 H898 0.984 . S
N886 H899 0.985 . S
N887 C889 1.356 . S
N887 H892 0.984 . S
N887 H893 0.985 . S
C888 C882 1.379 . S
C888 C885 1.363 . S
C888 N886 1.356 . S
C889 C883 1.363 . S
C889 C884 1.379 1_545 S
C889 N887 1.356 . S
N890 C882 1.356 1_545 S
N890 H896 0.984 1_545 S
N890 H897 0.984 . S
N891 C884 1.356 . S
N891 H894 0.984 . S
N891 H895 0.985 1_565 S
H892 N887 0.984 . S
H893 N887 0.985 . S
H894 N891 0.984 . S
H895 N891 0.985 1_545 S
H896 N890 0.984 1_565 S
H897 N890 0.984 . S
H898 N886 0.984 . S
H899 N886 0.985 . S
C900 C901 1.363 1_545 S
C900 C906 1.379 1_545 S
C900 N908 1.356 . S
C901 C900 1.363 1_565 S
C901 C907 1.363 . S
C902 C903 1.363 . S
C902 C907 1.379 . S
C902 N909 1.356 . S
C903 C902 1.363 . S
C903 C906 1.363 . S
N904 C906 1.356 1_545 S
N904 H916 0.984 . S
N904 H917 0.985 1_545 S
N905 C907 1.356 . S
N905 H910 0.984 . S
N905 H911 0.985 . S
C906 C900 1.379 1_565 S
C906 C903 1.363 . S
C906 N904 1.356 1_565 S
C907 C901 1.363 . S
C907 C902 1.379 . S
C907 N905 1.356 . S
N908 C900 1.356 . S
N908 H914 0.984 . S
N908 H915 0.984 . S
N909 C902 1.356 . S
N909 H912 0.984 . S
N909 H913 0.985 . S
H910 N905 0.984 . S
H911 N905 0.985 . S
H912 N909 0.984 . S
H913 N909 0.985 . S
H914 N908 0.984 . S
H915 N908 0.984 . S
H916 N904 0.984 . S
H917 N904 0.985 1_565 S
C918 C919 1.363 . S
C918 C924 1.379 . S
C918 N926 1.356 . S
C919 C918 1.363 . S
C919 C925 1.363 . S
C920 C921 1.363 . S
C920 C925 1.379 . S
C920 N927 1.356 . S
C921 C920 1.363 . S
C921 C924 1.363 . S
N922 C924 1.356 . S
N922 H934 0.984 . S
N922 H935 0.985 . S
N923 C925 1.356 1_565 S
N923 H928 0.984 . S
N923 H929 0.985 . S
C924 C918 1.379 . S
C924 C921 1.363 . S
C924 N922 1.356 . S
C925 C919 1.363 . S
C925 C920 1.379 . S
C925 N923 1.356 1_545 S
N926 C918 1.356 . S
N926 H932 0.984 . S
N926 H933 0.984 . S
N927 C920 1.356 . S
N927 H930 0.984 . S
N927 H931 0.985 . S
H928 N923 0.984 . S
H929 N923 0.985 . S
H930 N927 0.984 . S
H931 N927 0.985 . S
H932 N926 0.984 . S
H933 N926 0.984 . S
H934 N922 0.984 . S
H935 N922 0.985 . S
C936 C937 1.363 . S
C936 C942 1.379 . S
C936 N944 1.356 . S
C937 C936 1.363 . S
C937 C943 1.363 . S
C938 C939 1.363 . S
C938 C943 1.379 . S
C938 N945 1.356 . S
C939 C938 1.363 . S
C939 C942 1.363 . S
N940 C942 1.356 . S
N940 H952 0.984 1_565 S
N940 H953 0.985 . S
N941 C943 1.356 . S
N941 H946 0.984 . S
N941 H947 0.985 . S
C942 C936 1.379 . S
C942 C939 1.363 . S
C942 N940 1.356 . S
C943 C937 1.363 . S
C943 C938 1.379 . S
C943 N941 1.356 . S
N944 C936 1.356 . S
N944 H950 0.984 1_565 S
N944 H951 0.984 . S
N945 C938 1.356 . S
N945 H948 0.984 . S
N945 H949 0.985 . S
H946 N941 0.984 . S
H947 N941 0.985 . S
H948 N945 0.984 . S
H949 N945 0.985 . S
H950 N944 0.984 1_545 S
H951 N944 0.984 . S
H952 N940 0.984 1_545 S
H953 N940 0.985 . S
C954 C955 1.363 . S
C954 C960 1.379 1_545 S
C954 N962 1.356 . S
C955 C954 1.363 . S
C955 C961 1.363 1_545 S
C956 C957 1.363 . S
C956 C961 1.379 . S
C956 N963 1.356 . S
C957 C956 1.363 . S
C957 C960 1.363 . S
N958 C960 1.356 . S
N958 H970 0.984 1_565 S
N958 H971 0.985 . S
N959 C961 1.356 . S
N959 H964 0.984 . S
N959 H965 0.985 . S
C960 C954 1.379 1_565 S
C960 C957 1.363 . S
C960 N958 1.356 . S
C961 C955 1.363 1_565 S
C961 C956 1.379 . S
C961 N959 1.356 . S
N962 C954 1.356 . S
N962 H968 0.984 . S
N962 H969 0.984 . S
N963 C956 1.356 . S
N963 H966 0.984 . S
N963 H967 0.985 . S
H964 N959 0.984 . S
H965 N959 0.985 . S
H966 N963 0.984 . S
H967 N963 0.985 . S
H968 N962 0.984 . S
H969 N962 0.984 . S
H970 N958 0.984 1_545 S
H971 N958 0.985 . S
C972 C973 1.363 . S
C972 C978 1.379 . S
C972 N980 1.356 . S
C973 C972 1.363 . S
C973 C979 1.363 . S
C974 C975 1.363 . S
C974 C979 1.379 . S
C974 N981 1.356 . S
C975 C974 1.363 . S
C975 C978 1.363 . S
N976 C978 1.356 . S
N976 H988 0.984 . S
N976 H989 0.985 . S
N977 C979 1.356 . S
N977 H982 0.984 . S
N977 H983 0.985 . S
C978 C972 1.379 . S
C978 C975 1.363 . S
C978 N976 1.356 . S
C979 C973 1.363 . S
C979 C974 1.379 . S
C979 N977 1.356 . S
N980 C972 1.356 . S
N980 H986 0.984 1_556 S
N980 H987 0.988 . S
N981 C974 1.356 . S
N981 H984 0.984 . S
N981 H985 0.985 . S
H982 N977 0.984 . S
H983 N977 0.985 . S
H984 N981 0.984 . S
H985 N981 0.985 . S
H986 N980 0.984 1_554 S
H987 N980 0.988 . S
H988 N976 0.984 . S
H989 N976 0.985 . S
C990 C991 1.363 . S
C990 C996 1.379 . S
C990 N998 1.356 . S
C991 C990 1.363 . S
C991 C997 1.363 . S
C992 C993 1.363 . S
C992 C997 1.379 . S
C992 N999 1.356 . S
C993 C992 1.363 . S
C993 C996 1.363 . S
N994 C996 1.356 . S
N994 H1006 0.984 . S
N994 H1007 0.985 . S
N995 C997 1.356 . S
N995 H1000 0.984 . S
N995 H1001 0.985 . S
C996 C990 1.379 . S
C996 C993 1.363 . S
C996 N994 1.356 . S
C997 C991 1.363 . S
C997 C992 1.379 . S
C997 N995 1.356 . S
N998 C990 1.356 . S
N998 H1004 0.984 1_545 S
N998 H1005 0.984 1_545 S
N999 C992 1.356 . S
N999 H1002 0.984 . S
N999 H1003 0.985 . S
H1000 N995 0.984 . S
H1001 N995 0.985 . S
H1002 N999 0.984 . S
H1003 N999 0.985 . S
H1004 N998 0.984 1_565 S
H1005 N998 0.984 1_565 S
H1006 N994 0.984 . S
H1007 N994 0.985 . S
C1008 C1009 1.363 . S
C1008 C1014 1.379 . S
C1008 N1016 1.356 1_556 S
C1009 C1008 1.363 . S
C1009 C1015 1.363 . S
C1010 C1011 1.363 . S
C1010 C1015 1.379 . S
C1010 N1017 1.356 . S
C1011 C1010 1.363 . S
C1011 C1014 1.363 . S
N1012 C1014 1.356 . S
N1012 H1024 0.984 . S
N1012 H1025 0.985 . S
N1013 C1015 1.356 . S
N1013 H1018 0.984 . S
N1013 H1019 0.985 . S
C1014 C1008 1.379 . S
C1014 C1011 1.363 . S
C1014 N1012 1.356 . S
C1015 C1009 1.363 . S
C1015 C1010 1.379 . S
C1015 N1013 1.356 . S
N1016 C1008 1.356 1_554 S
N1016 H1022 0.984 . S
N1016 H1023 0.984 . S
N1017 C1010 1.356 . S
N1017 H1020 0.984 . S
N1017 H1021 0.985 . S
H1018 N1013 0.984 . S
H1019 N1013 0.985 . S
H1020 N1017 0.984 . S
H1021 N1017 0.985 . S
H1022 N1016 0.984 . S
H1023 N1016 0.984 . S
H1024 N1012 0.984 . S
H1025 N1012 0.985 . S
C1026 C1027 1.363 . S
C1026 C1032 1.379 . S
C1026 N1034 1.356 . S
C1027 C1026 1.363 . S
C1027 C1033 1.363 . S
C1028 C1029 1.363 . S
C1028 C1033 1.379 . S
C1028 N1035 1.356 . S
C1029 C1028 1.363 . S
C1029 C1032 1.363 . S
N1030 C1032 1.356 . S
N1030 H1042 0.984 . S
N1030 H1043 0.985 . S
N1031 C1033 1.356 . S
N1031 H1036 0.984 . S
N1031 H1037 0.985 1_655 S
C1032 C1026 1.379 . S
C1032 C1029 1.363 . S
C1032 N1030 1.356 . S
C1033 C1027 1.363 . S
C1033 C1028 1.379 . S
C1033 N1031 1.356 . S
N1034 C1026 1.356 . S
N1034 H1040 0.984 . S
N1034 H1041 0.984 . S
N1035 C1028 1.356 . S
N1035 H1038 0.984 . S
N1035 H1039 0.985 1_655 S
H1036 N1031 0.984 . S
H1037 N1031 0.985 1_455 S
H1038 N1035 0.984 . S
H1039 N1035 0.985 1_455 S
H1040 N1034 0.984 . S
H1041 N1034 0.984 . S
H1042 N1030 0.984 . S
H1043 N1030 0.985 . S
C1044 C1045 1.363 . S
C1044 C1050 1.379 . S
C1044 N1052 1.356 . S
C1045 C1044 1.363 . S
C1045 C1051 1.363 . S
C1046 C1047 1.363 . S
C1046 C1051 1.379 . S
C1046 N1053 1.356 . S
C1047 C1046 1.363 . S
C1047 C1050 1.363 . S
N1048 C1050 1.356 . S
N1048 H1060 0.984 . S
N1048 H1061 0.985 . S
N1049 C1051 1.356 . S
N1049 H1054 0.984 . S
N1049 H1055 0.985 . S
C1050 C1044 1.379 . S
C1050 C1047 1.363 . S
C1050 N1048 1.356 . S
C1051 C1045 1.363 . S
C1051 C1046 1.379 . S
C1051 N1049 1.356 . S
N1052 C1044 1.356 . S
N1052 H1058 0.984 . S
N1052 H1059 0.984 . S
N1053 C1046 1.356 . S
N1053 H1056 0.984 . S
N1053 H1057 0.985 . S
H1054 N1049 0.984 . S
H1055 N1049 0.985 . S
H1056 N1053 0.984 . S
H1057 N1053 0.985 . S
H1058 N1052 0.984 . S
H1059 N1052 0.984 . S
H1060 N1048 0.984 . S
H1061 N1048 0.985 . S
C1062 C1063 1.363 . S
C1062 C1068 1.379 . S
C1062 N1070 1.356 . S
C1063 C1062 1.363 . S
C1063 C1069 1.363 . S
C1064 C1065 1.363 . S
C1064 C1069 1.379 . S
C1064 N1071 1.356 . S
C1065 C1064 1.363 . S
C1065 C1068 1.363 . S
N1066 C1068 1.356 . S
N1066 H1078 0.984 . S
N1066 H1079 0.985 . S
N1067 C1069 1.356 . S
N1067 H1072 0.984 . S
N1067 H1073 0.985 . S
C1068 C1062 1.379 . S
C1068 C1065 1.363 . S
C1068 N1066 1.356 . S
C1069 C1063 1.363 . S
C1069 C1064 1.379 . S
C1069 N1067 1.356 . S
N1070 C1062 1.356 . S
N1070 H1076 0.984 . S
N1070 H1077 0.984 . S
N1071 C1064 1.356 . S
N1071 H1074 0.984 . S
N1071 H1075 0.985 . S
H1072 N1067 0.984 . S
H1073 N1067 0.985 . S
H1074 N1071 0.984 . S
H1075 N1071 0.985 . S
H1076 N1070 0.984 . S
H1077 N1070 0.984 . S
H1078 N1066 0.984 . S
H1079 N1066 0.985 . S
C1080 C1081 1.363 . S
C1080 C1086 1.379 . S
C1080 N1088 1.356 . S
C1081 C1080 1.363 . S
C1081 C1087 1.363 . S
C1082 C1083 1.363 . S
C1082 C1087 1.379 . S
C1082 N1089 1.356 . S
C1083 C1082 1.363 . S
C1083 C1086 1.363 . S
N1084 C1086 1.356 . S
N1084 H1096 0.984 . S
N1084 H1097 0.985 . S
N1085 C1087 1.356 . S
N1085 H1090 0.984 . S
N1085 H1091 0.985 . S
C1086 C1080 1.379 . S
C1086 C1083 1.363 . S
C1086 N1084 1.356 . S
C1087 C1081 1.363 . S
C1087 C1082 1.379 . S
C1087 N1085 1.356 . S
N1088 C1080 1.356 . S
N1088 H1094 0.984 . S
N1088 H1095 0.984 . S
N1089 C1082 1.356 . S
N1089 H1092 0.984 . S
N1089 H1093 0.985 . S
H1090 N1085 0.984 . S
H1091 N1085 0.985 . S
H1092 N1089 0.984 . S
H1093 N1089 0.985 . S
H1094 N1088 0.984 . S
H1095 N1088 0.984 . S
H1096 N1084 0.984 . S
H1097 N1084 0.985 . S
C1098 C1099 1.363 . S
C1098 C1104 1.379 . S
C1098 N1106 1.356 . S
C1099 C1098 1.363 . S
C1099 C1105 1.363 . S
C1100 C1101 1.363 . S
C1100 C1105 1.379 . S
C1100 N1107 1.356 . S
C1101 C1100 1.363 . S
C1101 C1104 1.363 . S
N1102 C1104 1.356 . S
N1102 H1114 0.984 . S
N1102 H1115 0.985 . S
N1103 C1105 1.356 . S
N1103 H1108 0.984 . S
N1103 H1109 0.985 . S
C1104 C1098 1.379 . S
C1104 C1101 1.363 . S
C1104 N1102 1.356 . S
C1105 C1099 1.363 . S
C1105 C1100 1.379 . S
C1105 N1103 1.356 . S
N1106 C1098 1.356 . S
N1106 H1112 0.984 . S
N1106 H1113 0.984 . S
N1107 C1100 1.356 . S
N1107 H1110 0.984 . S
N1107 H1111 0.985 . S
H1108 N1103 0.984 . S
H1109 N1103 0.985 . S
H1110 N1107 0.984 . S
H1111 N1107 0.985 . S
H1112 N1106 0.984 . S
H1113 N1106 0.984 . S
H1114 N1102 0.984 . S
H1115 N1102 0.985 . S
C1116 C1117 1.363 . S
C1116 C1122 1.379 . S
C1116 N1124 1.356 . S
C1117 C1116 1.363 . S
C1117 C1123 1.363 . S
C1118 C1119 1.363 . S
C1118 C1123 1.379 . S
C1118 N1125 1.356 . S
C1119 C1118 1.363 . S
C1119 C1122 1.363 . S
N1120 C1122 1.356 . S
N1120 H1132 0.984 . S
N1120 H1133 0.985 . S
N1121 C1123 1.356 . S
N1121 H1126 0.984 . S
N1121 H1127 0.985 . S
C1122 C1116 1.379 . S
C1122 C1119 1.363 . S
C1122 N1120 1.356 . S
C1123 C1117 1.363 . S
C1123 C1118 1.379 . S
C1123 N1121 1.356 . S
N1124 C1116 1.356 . S
N1124 H1130 0.984 . S
N1124 H1131 0.984 . S
N1125 C1118 1.356 . S
N1125 H1128 0.984 . S
N1125 H1129 0.985 . S
H1126 N1121 0.984 . S
H1127 N1121 0.985 . S
H1128 N1125 0.984 . S
H1129 N1125 0.985 . S
H1130 N1124 0.984 . S
H1131 N1124 0.984 . S
H1132 N1120 0.984 . S
H1133 N1120 0.985 . S
C1134 C1135 1.363 . S
C1134 C1140 1.379 . S
C1134 N1142 1.356 . S
C1135 C1134 1.363 . S
C1135 C1141 1.363 . S
C1136 C1137 1.363 . S
C1136 C1141 1.379 . S
C1136 N1143 1.356 . S
C1137 C1136 1.363 . S
C1137 C1140 1.363 . S
N1138 C1140 1.356 . S
N1138 H1150 0.984 . S
N1138 H1151 0.985 . S
N1139 C1141 1.356 . S
N1139 H1144 0.984 . S
N1139 H1145 0.985 . S
C1140 C1134 1.379 . S
C1140 C1137 1.363 . S
C1140 N1138 1.356 . S
C1141 C1135 1.363 . S
C1141 C1136 1.379 . S
C1141 N1139 1.356 . S
N1142 C1134 1.356 . S
N1142 H1148 0.984 . S
N1142 H1149 0.984 . S
N1143 C1136 1.356 . S
N1143 H1146 0.984 . S
N1143 H1147 0.985 . S
H1144 N1139 0.984 . S
H1145 N1139 0.985 . S
H1146 N1143 0.984 . S
H1147 N1143 0.985 . S
H1148 N1142 0.984 . S
H1149 N1142 0.984 . S
H1150 N1138 0.984 . S
H1151 N1138 0.985 . S
C1152 C1153 1.363 . S
C1152 C1158 1.379 . S
C1152 N1160 1.356 . S
C1153 C1152 1.363 . S
C1153 C1159 1.363 . S
C1154 C1155 1.363 . S
C1154 C1159 1.379 . S
C1154 N1161 1.356 . S
C1155 C1154 1.363 . S
C1155 C1158 1.363 . S
N1156 C1158 1.356 . S
N1156 H1168 0.984 . S
N1156 H1169 0.985 . S
N1157 C1159 1.356 . S
N1157 H1162 0.984 . S
N1157 H1163 0.985 . S
C1158 C1152 1.379 . S
C1158 C1155 1.363 . S
C1158 N1156 1.356 . S
C1159 C1153 1.363 . S
C1159 C1154 1.379 . S
C1159 N1157 1.356 . S
N1160 C1152 1.356 . S
N1160 H1166 0.984 . S
N1160 H1167 0.984 . S
N1161 C1154 1.356 . S
N1161 H1164 0.984 . S
N1161 H1165 0.985 . S
H1162 N1157 0.984 . S
H1163 N1157 0.985 . S
H1164 N1161 0.984 . S
H1165 N1161 0.985 . S
H1166 N1160 0.984 . S
H1167 N1160 0.984 . S
H1168 N1156 0.984 . S
H1169 N1156 0.985 . S
C1170 C1171 1.363 . S
C1170 C1176 1.379 . S
C1170 N1178 1.356 . S
C1171 C1170 1.363 . S
C1171 C1177 1.363 . S
C1172 C1173 1.363 . S
C1172 C1177 1.379 . S
C1172 N1179 1.356 . S
C1173 C1172 1.363 . S
C1173 C1176 1.363 . S
N1174 C1176 1.356 . S
N1174 H1186 0.984 . S
N1174 H1187 0.985 . S
N1175 C1177 1.356 . S
N1175 H1180 0.984 . S
N1175 H1181 0.985 . S
C1176 C1170 1.379 . S
C1176 C1173 1.363 . S
C1176 N1174 1.356 . S
C1177 C1171 1.363 . S
C1177 C1172 1.379 . S
C1177 N1175 1.356 . S
N1178 C1170 1.356 . S
N1178 H1184 0.984 . S
N1178 H1185 0.984 . S
N1179 C1172 1.356 . S
N1179 H1182 0.984 . S
N1179 H1183 0.985 . S
H1180 N1175 0.984 . S
H1181 N1175 0.985 . S
H1182 N1179 0.984 . S
H1183 N1179 0.985 . S
H1184 N1178 0.984 . S
H1185 N1178 0.984 . S
H1186 N1174 0.984 . S
H1187 N1174 0.985 . S
C1188 C1189 1.363 . S
C1188 C1194 1.379 . S
C1188 N1196 1.356 . S
C1189 C1188 1.363 . S
C1189 C1195 1.363 . S
C1190 C1191 1.363 . S
C1190 C1195 1.379 . S
C1190 N1197 1.356 . S
C1191 C1190 1.363 . S
C1191 C1194 1.363 . S
N1192 C1194 1.356 . S
N1192 H1204 0.984 . S
N1192 H1205 0.985 . S
N1193 C1195 1.356 . S
N1193 H1198 0.984 . S
N1193 H1199 0.985 . S
C1194 C1188 1.379 . S
C1194 C1191 1.363 . S
C1194 N1192 1.356 . S
C1195 C1189 1.363 . S
C1195 C1190 1.379 . S
C1195 N1193 1.356 . S
N1196 C1188 1.356 . S
N1196 H1202 0.984 . S
N1196 H1203 0.984 . S
N1197 C1190 1.356 . S
N1197 H1200 0.984 . S
N1197 H1201 0.985 . S
H1198 N1193 0.984 . S
H1199 N1193 0.985 . S
H1200 N1197 0.984 . S
H1201 N1197 0.985 . S
H1202 N1196 0.984 . S
H1203 N1196 0.984 . S
H1204 N1192 0.984 . S
H1205 N1192 0.985 . S
C1206 C1207 1.363 . S
C1206 C1212 1.379 . S
C1206 N1214 1.356 . S
C1207 C1206 1.363 . S
C1207 C1213 1.363 . S
C1208 C1209 1.363 . S
C1208 C1213 1.379 . S
C1208 N1215 1.356 . S
C1209 C1208 1.363 . S
C1209 C1212 1.363 . S
N1210 C1212 1.356 . S
N1210 H1222 0.984 . S
N1210 H1223 0.985 . S
N1211 C1213 1.356 . S
N1211 H1216 0.984 . S
N1211 H1217 0.985 . S
C1212 C1206 1.379 . S
C1212 C1209 1.363 . S
C1212 N1210 1.356 . S
C1213 C1207 1.363 . S
C1213 C1208 1.379 . S
C1213 N1211 1.356 . S
N1214 C1206 1.356 . S
N1214 H1220 0.984 . S
N1214 H1221 0.984 . S
N1215 C1208 1.356 . S
N1215 H1218 0.984 . S
N1215 H1219 0.985 . S
H1216 N1211 0.984 . S
H1217 N1211 0.985 . S
H1218 N1215 0.984 . S
H1219 N1215 0.985 . S
H1220 N1214 0.984 . S
H1221 N1214 0.984 . S
H1222 N1210 0.984 . S
H1223 N1210 0.985 . S
C1224 C1225 1.363 . S
C1224 C1230 1.379 1_554 S
C1224 N1232 1.356 . S
C1225 C1224 1.363 . S
C1225 C1231 1.363 1_554 S
C1226 C1227 1.363 . S
C1226 C1231 1.379 . S
C1226 N1233 1.356 . S
C1227 C1226 1.363 . S
C1227 C1230 1.363 . S
N1228 C1230 1.356 . S
N1228 H1240 0.984 1_556 S
N1228 H1241 0.985 . S
N1229 C1231 1.356 . S
N1229 H1234 0.984 1_556 S
N1229 H1235 0.985 . S
C1230 C1224 1.379 1_556 S
C1230 C1227 1.363 . S
C1230 N1228 1.356 . S
C1231 C1225 1.363 1_556 S
C1231 C1226 1.379 . S
C1231 N1229 1.356 . S
N1232 C1224 1.356 . S
N1232 H1238 0.984 . S
N1232 H1239 0.984 . S
N1233 C1226 1.356 . S
N1233 H1236 0.984 . S
N1233 H1237 0.985 . S
H1234 N1229 0.984 1_554 S
H1235 N1229 0.985 . S
H1236 N1233 0.984 . S
H1237 N1233 0.985 . S
H1238 N1232 0.984 . S
H1239 N1232 0.984 . S
H1240 N1228 0.984 1_554 S
H1241 N1228 0.985 . S
C1242 C1243 1.363 . S
C1242 C1248 1.379 . S
C1242 N1250 1.356 . S
C1243 C1242 1.363 . S
C1243 C1249 1.363 . S
C1244 C1245 1.363 . S
C1244 C1249 1.379 . S
C1244 N1251 1.356 . S
C1245 C1244 1.363 . S
C1245 C1248 1.363 . S
N1246 C1248 1.356 . S
N1246 H1258 0.984 . S
N1246 H1259 0.985 . S
N1247 C1249 1.356 . S
N1247 H1252 0.984 . S
N1247 H1253 0.985 . S
C1248 C1242 1.379 . S
C1248 C1245 1.363 . S
C1248 N1246 1.356 . S
C1249 C1243 1.363 . S
C1249 C1244 1.379 . S
C1249 N1247 1.356 . S
N1250 C1242 1.356 . S
N1250 H1256 0.984 . S
N1250 H1257 0.984 . S
N1251 C1244 1.356 . S
N1251 H1254 0.984 . S
N1251 H1255 0.985 . S
H1252 N1247 0.984 . S
H1253 N1247 0.985 . S
H1254 N1251 0.984 . S
H1255 N1251 0.985 . S
H1256 N1250 0.984 . S
H1257 N1250 0.984 . S
H1258 N1246 0.984 . S
H1259 N1246 0.985 . S
C1260 C1261 1.363 . S
C1260 C1266 1.379 . S
C1260 N1268 1.356 . S
C1261 C1260 1.363 . S
C1261 C1267 1.363 . S
C1262 C1263 1.363 . S
C1262 C1267 1.379 . S
C1262 N1269 1.356 . S
C1263 C1262 1.363 . S
C1263 C1266 1.363 . S
N1264 C1266 1.356 . S
N1264 H1276 0.984 . S
N1264 H1277 0.985 . S
N1265 C1267 1.356 . S
N1265 H1270 0.984 . S
N1265 H1271 0.985 . S
C1266 C1260 1.379 . S
C1266 C1263 1.363 . S
C1266 N1264 1.356 . S
C1267 C1261 1.363 . S
C1267 C1262 1.379 . S
C1267 N1265 1.356 . S
N1268 C1260 1.356 . S
N1268 H1274 0.984 . S
N1268 H1275 0.984 . S
N1269 C1262 1.356 . S
N1269 H1272 0.984 . S
N1269 H1273 0.985 . S
H1270 N1265 0.984 . S
H1271 N1265 0.985 . S
H1272 N1269 0.984 . S
H1273 N1269 0.985 . S
H1274 N1268 0.984 . S
H1275 N1268 0.984 . S
H1276 N1264 0.984 . S
H1277 N1264 0.985 . S
C1278 C1279 1.363 . S
C1278 C1284 1.379 . S
C1278 N1286 1.356 . S
C1279 C1278 1.363 . S
C1279 C1285 1.363 . S
C1280 C1281 1.363 . S
C1280 C1285 1.379 . S
C1280 N1287 1.356 . S
C1281 C1280 1.363 . S
C1281 C1284 1.363 . S
N1282 C1284 1.356 . S
N1282 H1294 0.984 . S
N1282 H1295 0.985 . S
N1283 C1285 1.356 . S
N1283 H1288 0.984 . S
N1283 H1289 0.985 . S
C1284 C1278 1.379 . S
C1284 C1281 1.363 . S
C1284 N1282 1.356 . S
C1285 C1279 1.363 . S
C1285 C1280 1.379 . S
C1285 N1283 1.356 . S
N1286 C1278 1.356 . S
N1286 H1292 0.984 . S
N1286 H1293 0.984 . S
N1287 C1280 1.356 . S
N1287 H1290 0.984 . S
N1287 H1291 0.985 . S
H1288 N1283 0.984 . S
H1289 N1283 0.985 . S
H1290 N1287 0.984 . S
H1291 N1287 0.985 . S
H1292 N1286 0.984 . S
H1293 N1286 0.984 . S
H1294 N1282 0.984 . S
H1295 N1282 0.985 . S
C723 C641 1.922 . S
C721 C69 1.946 . S
C739 C125 0.925 . S
C741 C673 0.924 . S
C757 C217 1.972 . S
C759 C696 1.971 . S
C777 C600 1.634 . S
C775 C261 1.556 . S
C795 C683 1.730 . S
C793 C39 1.726 . S
C813 C712 1.922 . S
C811 C137 1.998 . S
C831 C616 1.755 . S
C829 C187 1.779 . S
C849 C651 1.893 . S
C847 C291 2.144 . S
C865 C51 0.858 . S
C867 C679 0.833 . S
C883 C365 2.022 . S
C885 C654 1.773 . S
C901 C199 0.892 . S
C903 C622 0.852 . S
C921 C711 1.557 . S
C919 C439 1.781 1_545 S
C939 C655 2.100 . S
C937 C63 1.874 . S
C955 C335 1.538 . S
C957 C623 1.592 . S
C973 C211 1.834 . S
C975 C710 2.071 . S
C993 C678 1.848 . S
C991 C409 1.773 . S
C1009 C495 0.973 . S
C1011 C705 0.969 . S
C1027 C347 1.068 . S
C1029 C609 1.062 . S
C1045 C587 1.911 . S
C1047 C632 1.931 . S
C1063 C421 0.897 . S
C1065 C664 0.906 . S
C1083 C619 1.764 . S
C1081 C507 1.876 . S
C1099 C359 1.737 . S
C1101 C648 1.673 . S
C1117 C557 1.736 . S
C1119 C680 1.714 . S
C1137 C715 1.856 . S
C1135 C433 1.981 . S
C1153 C513 1.852 . S
C1155 C615 1.683 . S
C1171 C143 1.811 . S
C1173 C718 1.585 . S
C1189 C569 0.870 . S
C1191 C686 0.840 . S
C1209 C647 1.598 . S
C1207 C285 1.665 . S
C1227 C719 1.683 . S
C1225 C483 1.641 . S
C1245 C687 1.832 . S
C1243 C113 1.779 . S
C1263 C646 2.102 . S
C1261 C581 1.857 . S
C1281 C614 1.118 . S
C1279 C273 1.107 . S
