# Generated by pormake.
# Topology eea, (3,6)-cn, num edge types: 1
# Building blocks:
#     Node 0, Type 0, BuildingBlock: QEWDON_clean_linker_0, # of connection points: 3
#     Node 1, Type 0, BuildingBlock: QEWDON_clean_linker_0, # of connection points: 3
#     Node 2, Type 0, BuildingBlock: QEWDON_clean_linker_0, # of connection points: 3
#     Node 3, Type 0, BuildingBlock: QEWDON_clean_linker_0, # of connection points: 3
#     Node 4, Type 0, BuildingBlock: QEWDON_clean_linker_0, # of connection points: 3
#     Node 5, Type 0, BuildingBlock: QEWDON_clean_linker_0, # of connection points: 3
#     Node 6, Type 0, BuildingBlock: QEWDON_clean_linker_0, # of connection points: 3
#     Node 7, Type 0, BuildingBlock: QEWDON_clean_linker_0, # of connection points: 3
#     Node 8, Type 0, BuildingBlock: QEWDON_clean_linker_0, # of connection points: 3
#     Node 9, Type 0, BuildingBlock: QEWDON_clean_linker_0, # of connection points: 3
#     Node 10, Type 0, BuildingBlock: QEWDON_clean_linker_0, # of connection points: 3
#     Node 11, Type 0, BuildingBlock: QEWDON_clean_linker_0, # of connection points: 3
#     Node 12, Type 0, BuildingBlock: QEWDON_clean_linker_0, # of connection points: 3
#     Node 13, Type 0, BuildingBlock: QEWDON_clean_linker_0, # of connection points: 3
#     Node 14, Type 0, BuildingBlock: QEWDON_clean_linker_0, # of connection points: 3
#     Node 15, Type 0, BuildingBlock: QEWDON_clean_linker_0, # of connection points: 3
#     Node 16, Type 0, BuildingBlock: QEWDON_clean_linker_0, # of connection points: 3
#     Node 17, Type 0, BuildingBlock: QEWDON_clean_linker_0, # of connection points: 3
#     Node 18, Type 1, BuildingBlock: KUMBUR_clean_sbu_0, # of connection points: 6
#     Node 19, Type 1, BuildingBlock: KUMBUR_clean_sbu_0, # of connection points: 6
#     Node 20, Type 1, BuildingBlock: KUMBUR_clean_sbu_0, # of connection points: 6
#     Node 21, Type 1, BuildingBlock: KUMBUR_clean_sbu_0, # of connection points: 6
#     Node 22, Type 1, BuildingBlock: KUMBUR_clean_sbu_0, # of connection points: 6
#     Node 23, Type 1, BuildingBlock: KUMBUR_clean_sbu_0, # of connection points: 6
#     Node 24, Type 1, BuildingBlock: KUMBUR_clean_sbu_0, # of connection points: 6
#     Node 25, Type 1, BuildingBlock: KUMBUR_clean_sbu_0, # of connection points: 6
#     Node 26, Type 1, BuildingBlock: KUMBUR_clean_sbu_0, # of connection points: 6
#     Edge 27, Type (0, 1), BuildingBlock: KIFKEQ_clean_linker_1, # of connection points: 2
#     Edge 28, Type (0, 1), BuildingBlock: KIFKEQ_clean_linker_1, # of connection points: 2
#     Edge 29, Type (0, 1), BuildingBlock: KIFKEQ_clean_linker_1, # of connection points: 2
#     Edge 30, Type (0, 1), BuildingBlock: KIFKEQ_clean_linker_1, # of connection points: 2
#     Edge 31, Type (0, 1), BuildingBlock: KIFKEQ_clean_linker_1, # of connection points: 2
#     Edge 32, Type (0, 1), BuildingBlock: KIFKEQ_clean_linker_1, # of connection points: 2
#     Edge 33, Type (0, 1), BuildingBlock: KIFKEQ_clean_linker_1, # of connection points: 2
#     Edge 34, Type (0, 1), BuildingBlock: KIFKEQ_clean_linker_1, # of connection points: 2
#     Edge 35, Type (0, 1), BuildingBlock: KIFKEQ_clean_linker_1, # of connection points: 2
#     Edge 36, Type (0, 1), BuildingBlock: KIFKEQ_clean_linker_1, # of connection points: 2
#     Edge 37, Type (0, 1), BuildingBlock: KIFKEQ_clean_linker_1, # of connection points: 2
#     Edge 38, Type (0, 1), BuildingBlock: KIFKEQ_clean_linker_1, # of connection points: 2
#     Edge 39, Type (0, 1), BuildingBlock: KIFKEQ_clean_linker_1, # of connection points: 2
#     Edge 40, Type (0, 1), BuildingBlock: KIFKEQ_clean_linker_1, # of connection points: 2
#     Edge 41, Type (0, 1), BuildingBlock: KIFKEQ_clean_linker_1, # of connection points: 2
#     Edge 42, Type (0, 1), BuildingBlock: KIFKEQ_clean_linker_1, # of connection points: 2
#     Edge 43, Type (0, 1), BuildingBlock: KIFKEQ_clean_linker_1, # of connection points: 2
#     Edge 44, Type (0, 1), BuildingBlock: KIFKEQ_clean_linker_1, # of connection points: 2
#     Edge 45, Type (0, 1), BuildingBlock: KIFKEQ_clean_linker_1, # of connection points: 2
#     Edge 46, Type (0, 1), BuildingBlock: KIFKEQ_clean_linker_1, # of connection points: 2
#     Edge 47, Type (0, 1), BuildingBlock: KIFKEQ_clean_linker_1, # of connection points: 2
#     Edge 48, Type (0, 1), BuildingBlock: KIFKEQ_clean_linker_1, # of connection points: 2
#     Edge 49, Type (0, 1), BuildingBlock: KIFKEQ_clean_linker_1, # of connection points: 2
#     Edge 50, Type (0, 1), BuildingBlock: KIFKEQ_clean_linker_1, # of connection points: 2
#     Edge 51, Type (0, 1), BuildingBlock: KIFKEQ_clean_linker_1, # of connection points: 2
#     Edge 52, Type (0, 1), BuildingBlock: KIFKEQ_clean_linker_1, # of connection points: 2
#     Edge 53, Type (0, 1), BuildingBlock: KIFKEQ_clean_linker_1, # of connection points: 2
#     Edge 54, Type (0, 1), BuildingBlock: KIFKEQ_clean_linker_1, # of connection points: 2
#     Edge 55, Type (0, 1), BuildingBlock: KIFKEQ_clean_linker_1, # of connection points: 2
#     Edge 56, Type (0, 1), BuildingBlock: KIFKEQ_clean_linker_1, # of connection points: 2
#     Edge 57, Type (0, 1), BuildingBlock: KIFKEQ_clean_linker_1, # of connection points: 2
#     Edge 58, Type (0, 1), BuildingBlock: KIFKEQ_clean_linker_1, # of connection points: 2
#     Edge 59, Type (0, 1), BuildingBlock: KIFKEQ_clean_linker_1, # of connection points: 2
#     Edge 60, Type (0, 1), BuildingBlock: KIFKEQ_clean_linker_1, # of connection points: 2
#     Edge 61, Type (0, 1), BuildingBlock: KIFKEQ_clean_linker_1, # of connection points: 2
#     Edge 62, Type (0, 1), BuildingBlock: KIFKEQ_clean_linker_1, # of connection points: 2
#     Edge 63, Type (0, 1), BuildingBlock: KIFKEQ_clean_linker_1, # of connection points: 2
#     Edge 64, Type (0, 1), BuildingBlock: KIFKEQ_clean_linker_1, # of connection points: 2
#     Edge 65, Type (0, 1), BuildingBlock: KIFKEQ_clean_linker_1, # of connection points: 2
#     Edge 66, Type (0, 1), BuildingBlock: KIFKEQ_clean_linker_1, # of connection points: 2
#     Edge 67, Type (0, 1), BuildingBlock: KIFKEQ_clean_linker_1, # of connection points: 2
#     Edge 68, Type (0, 1), BuildingBlock: KIFKEQ_clean_linker_1, # of connection points: 2
#     Edge 69, Type (0, 1), BuildingBlock: KIFKEQ_clean_linker_1, # of connection points: 2
#     Edge 70, Type (0, 1), BuildingBlock: KIFKEQ_clean_linker_1, # of connection points: 2
#     Edge 71, Type (0, 1), BuildingBlock: KIFKEQ_clean_linker_1, # of connection points: 2
#     Edge 72, Type (0, 1), BuildingBlock: KIFKEQ_clean_linker_1, # of connection points: 2
#     Edge 73, Type (0, 1), BuildingBlock: KIFKEQ_clean_linker_1, # of connection points: 2
#     Edge 74, Type (0, 1), BuildingBlock: KIFKEQ_clean_linker_1, # of connection points: 2
#     Edge 75, Type (0, 1), BuildingBlock: KIFKEQ_clean_linker_1, # of connection points: 2
#     Edge 76, Type (0, 1), BuildingBlock: KIFKEQ_clean_linker_1, # of connection points: 2
#     Edge 77, Type (0, 1), BuildingBlock: KIFKEQ_clean_linker_1, # of connection points: 2
#     Edge 78, Type (0, 1), BuildingBlock: KIFKEQ_clean_linker_1, # of connection points: 2
#     Edge 79, Type (0, 1), BuildingBlock: KIFKEQ_clean_linker_1, # of connection points: 2
#     Edge 80, Type (0, 1), BuildingBlock: KIFKEQ_clean_linker_1, # of connection points: 2
# Relax obj value: 0.044
# Max RMSD: 0.209
# Mean RMSD: 0.149
data_MOF--net-eea--node1-KUMBUR_clean_sbu_0--node2-QEWDON_clean_linker_0--edge1-KIFKEQ_clean_linker_1
_symmetry_space_group_name_H-M    P1
_symmetry_Int_Tables_number       1
_symmetry_cell_setting            triclinic
loop_
_symmetry_equiv_pos_as_xyz
'x, y, z'
_cell_length_a     58.060936
_cell_length_b     59.806561
_cell_length_c     64.183684
_cell_angle_alpha  89.912285
_cell_angle_beta   89.872671
_cell_angle_gamma 119.96789
loop_
_atom_site_label
_atom_site_type_symbol
_atom_site_fract_x
_atom_site_fract_y
_atom_site_fract_z
_atom_type_partial_charge
H0 H 0.21887 0.12051 0.43819 0.0
C1 C 0.21993 0.10509 0.43021 0.0
C2 C 0.2357 0.09542 0.4384 0.0
C3 C 0.20415 0.09369 0.41249 0.0
H4 H 0.2492 0.0681 0.434 0.0
C5 C 0.23637 0.07501 0.42815 0.0
C6 C 0.22054 0.06319 0.41064 0.0
C7 C 0.20465 0.07282 0.4028 0.0
C8 C 0.18552 0.10204 0.40485 0.0
H9 H 0.19206 0.06364 0.38944 0.0
C10 C 0.19404 0.12827 0.40103 0.0
C11 C 0.1764 0.1354 0.39231 0.0
C12 C 0.15897 0.08332 0.40069 0.0
H13 H 0.1518 0.06308 0.40381 0.0
C14 C 0.14139 0.09046 0.39247 0.0
H15 H 0.2145 0.1429 0.40398 0.0
C16 C 0.15007 0.1163 0.38812 0.0
H17 H 0.13618 0.12143 0.38149 0.0
H18 H 0.12102 0.07589 0.38928 0.0
H19 H 0.90748 0.10328 0.43289 0.0
C20 C 0.92288 0.12011 0.4249 0.0
C21 C 0.93083 0.14507 0.43245 0.0
C22 C 0.93588 0.11655 0.4078 0.0
H23 H 0.95787 0.18593 0.42741 0.0
C24 C 0.9516 0.16654 0.4221 0.0
C25 C 0.9652 0.16325 0.40536 0.0
C26 C 0.95717 0.13827 0.39827 0.0
C27 C 0.92855 0.09018 0.40061 0.0
H28 H 0.9676 0.13577 0.38524 0.0
C29 C 0.90178 0.07105 0.39721 0.0
C30 C 0.89561 0.04679 0.38909 0.0
C31 C 0.94876 0.08429 0.39658 0.0
H32 H 0.96942 0.0984 0.3994 0.0
C33 C 0.9426 0.06015 0.38894 0.0
H34 H 0.88597 0.07532 0.40007 0.0
C35 C 0.91626 0.04159 0.38506 0.0
H36 H 0.91195 0.02302 0.37893 0.0
H37 H 0.95833 0.05587 0.38588 0.0
H38 H 0.93054 0.80141 0.43108 0.0
C39 C 0.914 0.8014 0.42329 0.0
C40 C 0.88798 0.78559 0.43099 0.0
C41 C 0.91877 0.81783 0.40607 0.0
H42 H 0.84669 0.77469 0.42737 0.0
C43 C 0.86665 0.78615 0.42113 0.0
C44 C 0.87095 0.80264 0.40421 0.0
C45 C 0.89696 0.81823 0.39668 0.0
C46 C 0.94652 0.83629 0.39893 0.0
H47 H 0.90015 0.83082 0.3835 0.0
C48 C 0.96651 0.82927 0.39757 0.0
C49 C 0.99266 0.84756 0.39113 0.0
C50 C 0.95323 0.86172 0.39377 0.0
H51 H 0.93876 0.86804 0.39511 0.0
C52 C 0.97878 0.87958 0.38714 0.0
H53 H 0.96184 0.80985 0.40159 0.0
C54 C 0.99829 0.87262 0.38578 0.0
H55 H 0.01792 0.88695 0.38041 0.0
H56 H 0.98354 0.89902 0.38313 0.0
H57 H 0.1394 0.21753 0.60726 0.0
C58 C 0.12263 0.21789 0.61434 0.0
C59 C 0.11222 0.2321 0.60467 0.0
C60 C 0.11033 0.20273 0.63217 0.0
H61 H 0.08143 0.24233 0.60579 0.0
C62 C 0.08969 0.23164 0.61329 0.0
C63 C 0.07728 0.21693 0.63116 0.0
C64 C 0.08777 0.20271 0.64054 0.0
C65 C 0.11919 0.18499 0.64089 0.0
H66 H 0.0781 0.19146 0.65437 0.0
C67 C 0.14636 0.19177 0.64169 0.0
C68 C 0.15371 0.17391 0.64915 0.0
C69 C 0.09983 0.16025 0.64782 0.0
H70 H 0.07884 0.15394 0.64691 0.0
C71 C 0.10709 0.14291 0.65556 0.0
H72 H 0.16164 0.2106 0.63634 0.0
C73 C 0.13371 0.14962 0.65623 0.0
H74 H 0.13871 0.13568 0.66235 0.0
H75 H 0.09193 0.12402 0.66088 0.0
H76 H 0.82074 0.92382 0.59904 0.0
C77 C 0.81955 0.90747 0.60734 0.0
C78 C 0.80149 0.8823 0.6007 0.0
C79 C 0.83652 0.91159 0.62424 0.0
H80 H 0.78725 0.84177 0.60539 0.0
C81 C 0.8005 0.86111 0.61106 0.0
C82 C 0.81768 0.86488 0.62776 0.0
C83 C 0.83521 0.89017 0.63446 0.0
C84 C 0.8568 0.93816 0.63058 0.0
H85 H 0.84805 0.89322 0.64766 0.0
C86 C 0.85048 0.95801 0.63236 0.0
C87 C 0.86991 0.983 0.6387 0.0
C88 C 0.88284 0.9437 0.63495 0.0
H89 H 0.88844 0.929 0.63336 0.0
C90 C 0.90207 0.96829 0.64126 0.0
H91 H 0.8305 0.95395 0.62892 0.0
C92 C 0.8957 0.98776 0.64324 0.0
H93 H 0.91097 0.00649 0.64865 0.0
H94 H 0.92201 0.97226 0.64472 0.0
H95 H 0.10674 0.88875 0.60395 0.0
C96 C 0.12289 0.90495 0.61191 0.0
C97 C 0.1491 0.91528 0.60444 0.0
C98 C 0.11739 0.91605 0.62918 0.0
H99 H 0.18982 0.94557 0.60812 0.0
C100 C 0.16984 0.93688 0.61442 0.0
C101 C 0.1648 0.94839 0.63155 0.0
C102 C 0.13859 0.93754 0.639 0.0
C103 C 0.08947 0.90704 0.63593 0.0
H104 H 0.13463 0.9461 0.65242 0.0
C105 C 0.07014 0.88052 0.63762 0.0
C106 C 0.04383 0.87287 0.64388 0.0
C107 C 0.08201 0.92556 0.64053 0.0
H108 H 0.09609 0.946 0.63897 0.0
C109 C 0.05624 0.91807 0.64692 0.0
H110 H 0.07548 0.866 0.63402 0.0
C111 C 0.03733 0.89202 0.64865 0.0
H112 H 0.01753 0.88685 0.65389 0.0
H113 H 0.05086 0.93256 0.65051 0.0
H114 H 0.88437 0.45233 0.77307 0.0
C115 C 0.8858 0.43792 0.76382 0.0
C116 C 0.90222 0.42822 0.77048 0.0
C117 C 0.8697 0.42767 0.74608 0.0
H118 H 0.91552 0.4011 0.76383 0.0
C119 C 0.90305 0.40878 0.75874 0.0
C120 C 0.88712 0.39833 0.74104 0.0
C121 C 0.8707 0.40806 0.73473 0.0
C122 C 0.84988 0.43541 0.74037 0.0
H123 H 0.85836 0.40011 0.72104 0.0
C124 C 0.8568 0.46159 0.73895 0.0
C125 C 0.83763 0.46834 0.73305 0.0
C126 C 0.82359 0.41614 0.73618 0.0
H127 H 0.81762 0.39589 0.73747 0.0
C128 C 0.80463 0.4227 0.73039 0.0
H129 H 0.87699 0.47654 0.74226 0.0
C130 C 0.81156 0.44852 0.72871 0.0
H131 H 0.79649 0.45293 0.72363 0.0
H132 H 0.7845 0.40768 0.72705 0.0
H133 H 0.5755 0.43622 0.76705 0.0
C134 C 0.59105 0.45302 0.7591 0.0
C135 C 0.59819 0.4778 0.7664 0.0
C136 C 0.60444 0.44984 0.74207 0.0
H137 H 0.62488 0.5187 0.76248 0.0
C138 C 0.61881 0.49962 0.75648 0.0
C139 C 0.63292 0.49683 0.73984 0.0
C140 C 0.62539 0.47197 0.73258 0.0
C141 C 0.59792 0.42355 0.73507 0.0
H142 H 0.63609 0.46994 0.71953 0.0
C143 C 0.57135 0.40295 0.73396 0.0
C144 C 0.56573 0.37815 0.7275 0.0
C145 C 0.61865 0.41889 0.72969 0.0
H146 H 0.63925 0.434 0.73083 0.0
C147 C 0.61318 0.39458 0.72306 0.0
H148 H 0.55517 0.40618 0.73815 0.0
C149 C 0.58702 0.37442 0.72188 0.0
H150 H 0.58349 0.35587 0.71634 0.0
H151 H 0.62933 0.39133 0.71883 0.0
H152 H 0.59682 0.13981 0.76529 0.0
C153 C 0.58012 0.13879 0.75695 0.0
C154 C 0.55433 0.1247 0.76556 0.0
C155 C 0.58466 0.15324 0.73846 0.0
H156 H 0.51298 0.11347 0.76131 0.0
C157 C 0.53293 0.1243 0.75494 0.0
C158 C 0.53704 0.13871 0.73671 0.0
C159 C 0.56284 0.15299 0.72851 0.0
C160 C 0.6123 0.17096 0.73075 0.0
H161 H 0.56589 0.16421 0.71445 0.0
C162 C 0.63215 0.16372 0.7302 0.0
C163 C 0.65821 0.18142 0.72319 0.0
C164 C 0.61905 0.196 0.72421 0.0
H165 H 0.60467 0.20248 0.72489 0.0
C166 C 0.64453 0.21325 0.71706 0.0
H167 H 0.62743 0.14462 0.73528 0.0
C168 C 0.66391 0.20608 0.71651 0.0
H169 H 0.68351 0.21993 0.71071 0.0
H170 H 0.64933 0.23239 0.71201 0.0
H171 H 0.80791 0.55213 0.94159 0.0
C172 C 0.79083 0.55214 0.94844 0.0
C173 C 0.7806 0.5666 0.93895 0.0
C174 C 0.77791 0.5362 0.96574 0.0
H175 H 0.7498 0.57682 0.94011 0.0
C176 C 0.75782 0.56582 0.94741 0.0
C177 C 0.74485 0.55036 0.96484 0.0
C178 C 0.75496 0.53561 0.97386 0.0
C179 C 0.78653 0.51817 0.97409 0.0
H180 H 0.74479 0.52353 0.98721 0.0
C181 C 0.81366 0.52579 0.97718 0.0
C182 C 0.82089 0.50812 0.98535 0.0
C183 C 0.76702 0.49258 0.97872 0.0
H184 H 0.74615 0.48586 0.97605 0.0
C185 C 0.77408 0.47509 0.98643 0.0
H186 H 0.82895 0.54545 0.97379 0.0
C187 C 0.80067 0.48272 0.98974 0.0
H188 H 0.80544 0.46848 0.99551 0.0
H189 H 0.75882 0.45542 0.98977 0.0
H190 H 0.48516 0.25655 0.93536 0.0
C191 C 0.48355 0.23974 0.94317 0.0
C192 C 0.46537 0.21502 0.93578 0.0
C193 C 0.50006 0.24282 0.96021 0.0
H194 H 0.44992 0.1742 0.93948 0.0
C195 C 0.4638 0.19322 0.94541 0.0
C196 C 0.48057 0.19583 0.96212 0.0
C197 C 0.49827 0.2207 0.96964 0.0
C198 C 0.52031 0.26908 0.96739 0.0
H199 H 0.51125 0.22289 0.98252 0.0
C200 C 0.51449 0.28933 0.96875 0.0
C201 C 0.53401 0.31414 0.97542 0.0
C202 C 0.54595 0.27407 0.97268 0.0
H203 H 0.55131 0.25919 0.97136 0.0
C204 C 0.56517 0.29842 0.97949 0.0
H205 H 0.49488 0.28581 0.96462 0.0
C206 C 0.55929 0.31827 0.98094 0.0
H207 H 0.57457 0.33684 0.98662 0.0
H208 H 0.58476 0.30195 0.98365 0.0
H209 H 0.77142 0.22011 0.93816 0.0
C210 C 0.78788 0.23649 0.94569 0.0
C211 C 0.81382 0.24622 0.93785 0.0
C212 C 0.78307 0.24836 0.96279 0.0
H213 H 0.85488 0.27573 0.94095 0.0
C214 C 0.83497 0.26804 0.9472 0.0
C215 C 0.83066 0.28058 0.96397 0.0
C216 C 0.80471 0.27022 0.97193 0.0
C217 C 0.75536 0.23966 0.97001 0.0
H218 H 0.80117 0.27977 0.98484 0.0
C219 C 0.73594 0.21319 0.97194 0.0
C220 C 0.70976 0.20573 0.97844 0.0
C221 C 0.74812 0.25832 0.97467 0.0
H222 H 0.76221 0.27872 0.97289 0.0
C223 C 0.72249 0.25102 0.98136 0.0
H224 H 0.74107 0.19854 0.96829 0.0
C225 C 0.7035 0.22502 0.98329 0.0
H226 H 0.68379 0.21998 0.9887 0.0
H227 H 0.71729 0.26562 0.98499 0.0
H228 H 0.55704 0.79135 0.1054 0.0
C229 C 0.55693 0.77531 0.09746 0.0
C230 C 0.57543 0.76774 0.10303 0.0
C231 C 0.53744 0.76147 0.0824 0.0
H232 H 0.58873 0.74049 0.09739 0.0
C233 C 0.57467 0.74654 0.09296 0.0
C234 C 0.55521 0.73233 0.07795 0.0
C235 C 0.53672 0.74005 0.07267 0.0
C236 C 0.51603 0.76758 0.07858 0.0
H237 H 0.52116 0.72888 0.06153 0.0
C238 C 0.52187 0.79262 0.07274 0.0
C239 C 0.5012 0.79823 0.06964 0.0
C240 C 0.48945 0.74824 0.08147 0.0
H241 H 0.48454 0.72894 0.08615 0.0
C242 C 0.46901 0.75377 0.07893 0.0
H243 H 0.54237 0.80738 0.07011 0.0
C244 C 0.47476 0.77853 0.07318 0.0
H245 H 0.45838 0.78221 0.07163 0.0
H246 H 0.44859 0.73883 0.08151 0.0
H247 H 0.24202 0.76636 0.09968 0.0
C248 C 0.25757 0.7835 0.09209 0.0
C249 C 0.26424 0.80788 0.09994 0.0
C250 C 0.27129 0.78116 0.07492 0.0
H251 H 0.28967 0.84883 0.09673 0.0
C252 C 0.28483 0.83015 0.09055 0.0
C253 C 0.2997 0.82841 0.07388 0.0
C254 C 0.29234 0.80376 0.06597 0.0
C255 C 0.26487 0.75514 0.06719 0.0
H256 H 0.30346 0.80205 0.05313 0.0
C257 C 0.23832 0.73448 0.06603 0.0
C258 C 0.23274 0.70986 0.05909 0.0
C259 C 0.28561 0.75072 0.06128 0.0
H260 H 0.3062 0.76582 0.06246 0.0
C261 C 0.28016 0.72663 0.05408 0.0
H262 H 0.22211 0.73748 0.07061 0.0
C263 C 0.25403 0.7064 0.05292 0.0
H264 H 0.25051 0.68801 0.04701 0.0
H265 H 0.29632 0.72357 0.04946 0.0
H266 H 0.26295 0.46815 0.09598 0.0
C267 C 0.24636 0.46809 0.08822 0.0
C268 C 0.22038 0.45217 0.09591 0.0
C269 C 0.25106 0.48456 0.07103 0.0
H270 H 0.17903 0.44112 0.09235 0.0
C271 C 0.19898 0.45266 0.08611 0.0
C272 C 0.2032 0.4692 0.06924 0.0
C273 C 0.22919 0.4849 0.06169 0.0
C274 C 0.27879 0.50308 0.0639 0.0
H275 H 0.23231 0.49751 0.04855 0.0
C276 C 0.29886 0.49616 0.0627 0.0
C277 C 0.32502 0.5145 0.05636 0.0
C278 C 0.28543 0.52846 0.05863 0.0
H279 H 0.2709 0.53472 0.05984 0.0
C280 C 0.311 0.54637 0.05208 0.0
H281 H 0.29425 0.47677 0.06679 0.0
C282 C 0.3306 0.53951 0.05092 0.0
H283 H 0.35026 0.55388 0.04564 0.0
H284 H 0.31572 0.56578 0.04799 0.0
H285 H 0.47257 0.88158 0.27345 0.0
C286 C 0.4563 0.88227 0.28115 0.0
C287 C 0.44714 0.8983 0.27301 0.0
C288 C 0.44399 0.86653 0.29868 0.0
H289 H 0.41798 0.91045 0.27606 0.0
C290 C 0.42556 0.8987 0.28264 0.0
C291 C 0.4125 0.88268 0.29979 0.0
C292 C 0.42202 0.86694 0.30784 0.0
C293 C 0.4524 0.84804 0.30641 0.0
H294 H 0.41208 0.85487 0.32124 0.0
C295 C 0.4795 0.85455 0.30726 0.0
C296 C 0.48654 0.83621 0.31409 0.0
C297 C 0.43276 0.82307 0.31257 0.0
H298 H 0.41184 0.81707 0.31164 0.0
C299 C 0.43967 0.8052 0.31962 0.0
H300 H 0.49496 0.8736 0.3025 0.0
C301 C 0.46623 0.81165 0.32042 0.0
H302 H 0.47091 0.79732 0.3261 0.0
H303 H 0.4243 0.78612 0.32438 0.0
H304 H 0.15533 0.59083 0.26537 0.0
C305 C 0.15428 0.57457 0.27371 0.0
C306 C 0.13562 0.54933 0.26761 0.0
C307 C 0.17209 0.57886 0.29004 0.0
H308 H 0.12076 0.50875 0.27308 0.0
C309 C 0.1346 0.52823 0.27814 0.0
C310 C 0.15272 0.53223 0.29413 0.0
C311 C 0.17116 0.55753 0.30011 0.0
C312 C 0.19259 0.60551 0.29595 0.0
H313 H 0.18492 0.56055 0.31263 0.0
C314 C 0.18623 0.6253 0.29795 0.0
C315 C 0.20576 0.6504 0.30393 0.0
C316 C 0.21882 0.61121 0.29972 0.0
H317 H 0.22444 0.59656 0.29795 0.0
C318 C 0.23818 0.63594 0.30566 0.0
H319 H 0.1661 0.6211 0.29497 0.0
C320 C 0.23175 0.65535 0.30787 0.0
H321 H 0.24714 0.67418 0.313 0.0
H322 H 0.25826 0.64005 0.30867 0.0
H323 H 0.43864 0.55417 0.27027 0.0
C324 C 0.45484 0.57014 0.27839 0.0
C325 C 0.48111 0.58008 0.27116 0.0
C326 C 0.44941 0.58134 0.29561 0.0
H327 H 0.522 0.60977 0.27524 0.0
C328 C 0.50194 0.60137 0.28135 0.0
C329 C 0.49696 0.61296 0.29844 0.0
C330 C 0.47069 0.60254 0.30564 0.0
C331 C 0.42152 0.57269 0.30217 0.0
H332 H 0.46676 0.61118 0.31901 0.0
C333 C 0.40198 0.54626 0.30383 0.0
C334 C 0.3757 0.53887 0.30998 0.0
C335 C 0.41433 0.59142 0.30666 0.0
H336 H 0.42861 0.61181 0.30514 0.0
C337 C 0.38857 0.58419 0.31291 0.0
H338 H 0.40715 0.53159 0.30032 0.0
C339 C 0.36944 0.55821 0.31463 0.0
H340 H 0.34966 0.55324 0.31978 0.0
H341 H 0.38338 0.59884 0.31642 0.0
Tb342 Tb 0.50084 0.99661 0.99167 0.0
C343 C 0.55521 0.07712 0.05921 0.0
C344 C 0.60138 0.08896 0.05564 0.0
C345 C 0.58986 0.12061 0.06785 0.0
C346 C 0.57412 0.07072 0.05375 0.0
C347 C 0.56276 0.10187 0.06693 0.0
C348 C 0.60917 0.11417 0.06217 0.0
C349 C 0.51644 0.08676 0.07431 0.0
N350 N 0.52934 0.05837 0.05831 0.0
C351 C 0.51 0.06245 0.06662 0.0
C352 C 0.5429 0.1067 0.07417 0.0
Tb353 Tb 0.5206 0.0195 0.04468 0.0
N354 N 0.5657 0.0461 0.04776 0.0
C355 C 0.5837 0.03793 0.04492 0.0
C356 C 0.61992 0.08108 0.05153 0.0
C357 C 0.611 0.05533 0.0465 0.0
H358 H 0.48948 0.04717 0.06666 0.0
H359 H 0.62515 0.04889 0.04371 0.0
H360 H 0.63002 0.12856 0.06349 0.0
H361 H 0.50099 0.09011 0.08033 0.0
H362 H 0.57723 0.01819 0.04083 0.0
H363 H 0.39504 0.96189 0.99122 0.0
H364 H 0.64106 0.09451 0.05272 0.0
H365 H 0.53532 0.97319 0.96863 0.0
H366 H 0.44222 0.99419 0.99534 0.0
H367 H 0.52661 0.93253 0.95204 0.0
H368 H 0.59611 0.13986 0.0735 0.0
H369 H 0.38184 0.91749 0.98015 0.0
H370 H 0.39574 0.88617 0.96743 0.0
H371 H 0.54786 0.12547 0.08024 0.0
H372 H 0.4317 0.87821 0.95643 0.0
N373 N 0.45617 0.96831 0.98755 0.0
C374 C 0.43703 0.97499 0.99051 0.0
C375 C 0.40271 0.9316 0.98204 0.0
C376 C 0.42242 0.92539 0.97755 0.0
C377 C 0.41009 0.95666 0.9882 0.0
C378 C 0.44925 0.94445 0.98041 0.0
H379 H 0.48062 0.89568 0.95006 0.0
N380 N 0.49469 0.95947 0.97629 0.0
C381 C 0.5103 0.93429 0.95838 0.0
C382 C 0.46929 0.9399 0.97439 0.0
C383 C 0.51515 0.95734 0.96779 0.0
C384 C 0.48433 0.9135 0.95736 0.0
C385 C 0.46336 0.91627 0.96514 0.0
O386 O 0.52189 0.0109 0.96342 0.0
O387 O 0.53077 0.02423 0.01217 0.0
O388 O 0.51599 0.04899 0.02802 0.0
O389 O 0.48835 0.02459 1.00071 0.0
O390 O 0.54398 0.01253 0.98773 0.0
O391 O 0.48667 0.01303 0.96976 0.0
O392 O 0.49894 0.00637 0.07276 0.0
O393 O 0.49039 0.99157 0.02438 0.0
O394 O 0.50414 0.96632 1.00798 0.0
O395 O 0.53019 0.9889 0.0367 0.0
O396 O 0.47799 1.00502 0.04857 0.0
O397 O 0.5348 1.00486 0.06817 0.0
C398 C 0.55178 0.02802 1.0033 0.0
C399 C 0.49555 0.00832 0.93457 0.0
C400 C 0.49749 0.01764 0.89726 0.0
C401 C 0.50705 0.02552 0.91767 0.0
C402 C 0.47681 0.9922 0.89397 0.0
C403 C 0.47482 0.98314 0.93083 0.0
C404 C 0.46566 0.9751 0.91065 0.0
C405 C 0.49964 0.04567 0.01243 0.0
C406 C 0.50486 0.01694 0.956 0.0
C407 C 0.4367 0.89664 0.96327 0.0
C408 C 0.41624 0.90118 0.96953 0.0
C409 C 0.46981 0.98901 0.03331 0.0
C410 C 0.52418 0.01059 0.10269 0.0
C411 C 0.51234 0.99381 0.11978 0.0
C412 C 0.51887 1.00315 0.14032 0.0
C413 C 0.53746 0.02933 0.14355 0.0
C414 C 0.54309 0.03653 0.10633 0.0
C415 C 0.54962 0.04582 0.12664 0.0
C416 C 0.51894 0.96829 0.02435 0.0
C417 C 0.516 1.00109 0.08125 0.0
H418 H 0.52284 0.04513 0.92048 0.0
H419 H 0.46924 0.98554 0.87844 0.0
H420 H 0.4655 0.96974 0.94349 0.0
H421 H 0.44968 0.95559 0.90795 0.0
H422 H 0.49774 0.97371 0.11712 0.0
H423 H 0.54281 0.03693 0.1592 0.0
H424 H 0.55277 0.04962 0.09353 0.0
H425 H 0.56413 0.06591 0.12928 0.0
Tb426 Tb 0.03337 0.50366 0.99335 0.0
C427 C 0.94689 0.47394 0.05934 0.0
C428 C 0.93382 0.50634 0.05609 0.0
C429 C 0.90172 0.46313 0.06799 0.0
C430 C 0.95303 0.49862 0.05404 0.0
C431 C 0.9214 0.45605 0.06692 0.0
C432 C 0.90792 0.48827 0.06258 0.0
C433 C 0.93767 0.42668 0.0739 0.0
N434 N 0.96661 0.46809 0.0584 0.0
C435 C 0.9627 0.4452 0.0664 0.0
C436 C 0.9168 0.43198 0.07389 0.0
Tb437 Tb 1.00676 0.49938 0.04539 0.0
N438 N 0.97835 0.51551 0.04812 0.0
C439 C 0.98624 0.54105 0.04541 0.0
C440 C 0.94144 0.53213 0.05215 0.0
C441 C 0.96787 0.54963 0.0471 0.0
H442 H 0.97867 0.44089 0.0664 0.0
H443 H 0.97412 0.56974 0.0444 0.0
H444 H 0.89279 0.49373 0.06402 0.0
H445 H 0.9345 0.40834 0.07969 0.0
H446 H 1.00652 0.55485 0.04136 0.0
H447 H 0.06632 0.43345 0.99277 0.0
H448 H 0.92726 0.53883 0.05345 0.0
H449 H 0.06176 0.5632 0.9744 0.0
H450 H 0.03386 0.44808 0.99647 0.0
H451 H 0.10599 0.59621 0.96155 0.0
H452 H 0.8819 0.44959 0.07356 0.0
H453 H 0.11299 0.46455 0.98344 0.0
H454 H 0.14729 0.50985 0.9732 0.0
H455 H 0.89749 0.41766 0.07982 0.0
H456 H 0.15814 0.55424 0.96466 0.0
N457 N 0.06177 0.48757 0.98982 0.0
C458 C 0.05403 0.46204 0.99231 0.0
C459 C 0.09879 0.47118 0.98503 0.0
C460 C 0.10628 0.49699 0.98139 0.0
C461 C 0.07245 0.45356 0.99025 0.0
C462 C 0.08703 0.5046 0.98382 0.0
H463 H 0.14274 0.58656 0.96 0.0
N464 N 0.0735 0.53532 0.98061 0.0
C465 C 0.10267 0.57751 0.96649 0.0
C466 C 0.09312 0.5294 0.97899 0.0
C467 C 0.0776 0.55872 0.97371 0.0
C468 C 0.12338 0.57202 0.96568 0.0
C469 C 0.11864 0.54756 0.97167 0.0
O470 O 0.02221 0.51195 0.96444 0.0
O471 O 1.00366 0.50495 0.01262 0.0
O472 O 0.977 0.46587 0.02801 0.0
O473 O 1.00343 0.46348 1.00158 0.0
O474 O 0.0174 0.52984 0.9883 0.0
O475 O 0.0175 0.47446 0.97068 0.0
O476 O 0.01926 0.49194 0.07404 0.0
O477 O 0.03632 0.49777 0.0261 0.0
O478 O 0.06361 0.53553 0.01139 0.0
O479 O 0.0378 0.53964 0.03736 0.0
O480 O 0.02241 0.47307 0.05065 0.0
O481 O 0.021 0.52824 0.06842 0.0
C482 C 1.00051 0.52179 1.00335 0.0
C483 C 0.02583 0.48927 0.93583 0.0
C484 C 0.01832 0.48275 0.89836 0.0
C485 C 1.00905 0.48348 0.91851 0.0
C486 C 0.04474 0.48836 0.89578 0.0
C487 C 0.05205 0.49466 0.93289 0.0
C488 C 0.06147 0.49433 0.91296 0.0
C489 C 0.98109 0.45336 0.0127 0.0
C490 C 1.01558 0.48938 0.95679 0.0
C491 C 0.13831 0.5405 0.97008 0.0
C492 C 0.13213 0.51524 0.97494 0.0
C493 C 0.03913 0.48075 0.03549 0.0
C494 C 1.01349 0.51256 0.1031 0.0
C495 C 0.03011 0.51806 0.12048 0.0
C496 C 0.01997 0.51559 0.14091 0.0
C497 C 0.99278 0.50746 0.14345 0.0
C498 C 0.9867 0.50512 0.1061 0.0
C499 C 0.97641 0.5025 0.12616 0.0
C500 C 0.06032 0.54868 0.02653 0.0
C501 C 0.02424 0.51388 0.08204 0.0
H502 H 0.98866 0.47896 0.92079 0.0
H503 H 0.05248 0.48819 0.88044 0.0
H504 H 0.0652 0.49898 0.94592 0.0
H505 H 0.08176 0.49857 0.91083 0.0
H506 H 0.05095 0.52441 0.11799 0.0
H507 H 0.98396 0.50459 0.15879 0.0
H508 H 0.97369 0.50122 0.09302 0.0
H509 H 0.9556 0.4964 0.12832 0.0
Tb510 Tb 0.53983 0.51632 0.04374 0.0
C511 C 0.48331 0.54469 0.97817 0.0
C512 C 0.43715 0.51184 0.98205 0.0
C513 C 0.44866 0.55492 0.97045 0.0
C514 C 0.46442 0.5199 0.98357 0.0
C515 C 0.47574 0.56235 0.97098 0.0
C516 C 0.42937 0.52968 0.97601 0.0
C517 C 0.522 0.59223 0.96342 0.0
N518 N 0.50918 0.55092 0.97869 0.0
C519 C 0.52846 0.57394 0.97058 0.0
C520 C 0.49556 0.58656 0.9639 0.0
Tb521 Tb 0.51798 0.52015 0.99154 0.0
N522 N 0.47284 0.50327 0.98908 0.0
C523 C 0.4548 0.47763 0.99178 0.0
C524 C 0.4186 0.48593 0.98601 0.0
C525 C 0.42749 0.46867 0.99054 0.0
H526 H 0.54897 0.57854 0.97026 0.0
H527 H 0.41332 0.44848 0.99322 0.0
H528 H 0.40851 0.52395 0.97499 0.0
H529 H 0.53741 0.61068 0.95754 0.0
H530 H 0.46123 0.46402 0.99549 0.0
H531 H 0.64484 0.5871 0.04385 0.0
H532 H 0.39745 0.47895 0.98509 0.0
H533 H 0.50728 0.45695 0.06304 0.0
H534 H 0.59724 0.5721 0.04029 0.0
H535 H 0.51786 0.42432 0.07621 0.0
H536 H 0.4424 0.56828 0.9652 0.0
H537 H 0.65983 0.55635 0.05345 0.0
H538 H 0.64786 0.51129 0.06411 0.0
H539 H 0.49059 0.60071 0.95825 0.0
H540 H 0.61325 0.46691 0.07302 0.0
N541 N 0.58481 0.53276 0.04723 0.0
C542 C 0.60321 0.55831 0.04454 0.0
C543 C 0.63878 0.54957 0.0519 0.0
C544 C 0.61986 0.52376 0.05576 0.0
C545 C 0.63038 0.56698 0.04653 0.0
C546 C 0.59273 0.51594 0.05338 0.0
H547 H 0.56466 0.43437 0.07785 0.0
N548 N 0.54766 0.48502 0.05678 0.0
C549 C 0.53369 0.44303 0.07117 0.0
C550 C 0.57343 0.49116 0.05842 0.0
C551 C 0.52778 0.4616 0.06377 0.0
C552 C 0.56013 0.44875 0.07203 0.0
C553 C 0.58044 0.47321 0.06591 0.0
O554 O 0.51988 0.50802 0.07264 0.0
O555 O 0.50883 0.51452 0.02425 0.0
O556 O 0.522 0.55337 0.00885 0.0
O557 O 0.55087 0.55633 0.03538 0.0
O558 O 0.49689 0.48977 0.04856 0.0
O559 O 0.55348 0.54561 0.06635 0.0
O560 O 0.53852 0.52804 0.96297 0.0
O561 O 0.54924 0.52218 0.01095 0.0
O562 O 0.53785 0.48454 0.0259 0.0
O563 O 0.50824 0.48013 0.99955 0.0
O564 O 0.56059 0.54711 0.98655 0.0
O565 O 0.50305 0.49155 0.96828 0.0
C566 C 0.48828 0.49761 0.03343 0.0
C567 C 0.54654 0.53099 0.10129 0.0
C568 C 0.54511 0.53661 0.13895 0.0
C569 C 0.53503 0.53582 0.1188 0.0
C570 C 0.56647 0.53198 0.14126 0.0
C571 C 0.56795 0.52668 0.10406 0.0
C572 C 0.57774 0.52704 0.12393 0.0
C573 C 0.53867 0.56604 0.02421 0.0
C574 C 0.5362 0.53068 0.08027 0.0
C575 C 0.60742 0.48048 0.06747 0.0
C576 C 0.62711 0.50574 0.0624 0.0
C577 C 0.56952 0.5395 1.00164 0.0
C578 C 0.51201 0.50764 0.9337 0.0
C579 C 0.52321 0.50244 0.91621 0.0
C580 C 0.51574 0.50513 0.89582 0.0
C581 C 0.4969 0.51325 0.89344 0.0
C582 C 0.49284 0.51504 0.93082 0.0
C583 C 0.48543 0.51792 0.9108 0.0
C584 C 0.52144 0.47134 0.0106 0.0
C585 C 0.5212 0.50614 0.95477 0.0
H586 H 0.51867 0.53946 0.1167 0.0
H587 H 0.57441 0.53205 0.15654 0.0
H588 H 0.57722 0.52316 0.09092 0.0
H589 H 0.59421 0.52358 0.1259 0.0
H590 H 0.53758 0.49616 0.91861 0.0
H591 H 0.49116 0.51636 0.87815 0.0
H592 H 0.48369 0.51872 0.94397 0.0
H593 H 0.47088 0.524 0.90873 0.0
Tb594 Tb 0.16668 0.33029 0.32422 0.0
C595 C 0.22305 0.41097 0.39235 0.0
C596 C 0.26895 0.42244 0.38777 0.0
C597 C 0.25824 0.4542 0.40107 0.0
C598 C 0.24157 0.40446 0.38614 0.0
C599 C 0.23105 0.43566 0.40046 0.0
C600 C 0.27719 0.4476 0.3947 0.0
C601 C 0.18504 0.42084 0.40874 0.0
N602 N 0.19713 0.3924 0.3917 0.0
C603 C 0.17818 0.3966 0.40062 0.0
C604 C 0.21156 0.44061 0.40836 0.0
Tb605 Tb 0.18732 0.35362 0.37717 0.0
N606 N 0.23267 0.37987 0.37984 0.0
C607 C 0.25039 0.37143 0.37661 0.0
C608 C 0.28714 0.41431 0.38311 0.0
C609 C 0.27779 0.38855 0.3779 0.0
H610 H 0.15759 0.38148 0.4008 0.0
H611 H 0.29168 0.38188 0.37474 0.0
H612 H 0.29813 0.4618 0.39582 0.0
H613 H 0.16986 0.42426 0.41524 0.0
H614 H 0.24375 0.35171 0.3724 0.0
H615 H 0.06198 0.30033 0.32345 0.0
H616 H 0.30836 0.42753 0.3841 0.0
H617 H 0.19894 0.30261 0.30436 0.0
H618 H 0.10967 0.33109 0.32741 0.0
H619 H 0.18808 0.2599 0.29055 0.0
H620 H 0.26482 0.4734 0.40702 0.0
H621 H 0.04663 0.2551 0.31353 0.0
H622 H 0.05826 0.22151 0.30262 0.0
H623 H 0.21686 0.45933 0.41474 0.0
H624 H 0.09264 0.21047 0.29358 0.0
N625 N 0.12171 0.30356 0.3204 0.0
C626 C 0.10351 0.31151 0.32302 0.0
C627 C 0.0677 0.26854 0.31527 0.0
C628 C 0.08647 0.26088 0.31142 0.0
C629 C 0.0763 0.29407 0.32081 0.0
C630 C 0.11362 0.27912 0.31405 0.0
H631 H 0.14118 0.2248 0.28872 0.0
N632 N 0.15863 0.29156 0.3108 0.0
C633 C 0.17233 0.26327 0.29578 0.0
C634 C 0.1328 0.27289 0.30901 0.0
C635 C 0.17841 0.28745 0.30354 0.0
C636 C 0.14584 0.24348 0.29482 0.0
C637 C 0.12563 0.24828 0.30116 0.0
O638 O 0.18734 0.34178 0.2956 0.0
O639 O 0.19689 0.35817 0.34444 0.0
O640 O 0.18153 0.38289 0.36125 0.0
O641 O 0.15635 0.36004 0.33213 0.0
O642 O 0.20969 0.34563 0.32018 0.0
O643 O 0.1535 0.34652 0.30135 0.0
O644 O 0.16763 0.3423 0.40626 0.0
O645 O 0.1566 0.32639 0.35691 0.0
O646 O 0.16857 0.30001 0.34155 0.0
O647 O 0.19741 0.32359 0.36847 0.0
O648 O 0.14469 0.33916 0.38168 0.0
O649 O 0.19939 0.33506 0.39874 0.0
C650 C 0.21769 0.36158 0.33547 0.0
C651 C 0.16132 0.33928 0.2665 0.0
C652 C 0.16233 0.34713 0.22895 0.0
C653 C 0.17227 0.35587 0.24918 0.0
C654 C 0.1418 0.32145 0.22636 0.0
C655 C 0.1407 0.31389 0.26341 0.0
C656 C 0.13113 0.30501 0.24347 0.0
C657 C 0.16657 0.38026 0.3448 0.0
C658 C 0.17117 0.34867 0.2877 0.0
C659 C 0.0986 0.2296 0.29938 0.0
C660 C 0.07904 0.23589 0.30453 0.0
C661 C 0.13615 0.32373 0.36607 0.0
C662 C 0.19414 0.34219 0.43415 0.0
C663 C 0.18137 0.32634 0.45154 0.0
C664 C 0.19287 0.33335 0.47151 0.0
C665 C 0.21701 0.3566 0.47387 0.0
C666 C 0.21811 0.36541 0.43695 0.0
C667 C 0.22939 0.37258 0.45671 0.0
C668 C 0.18471 0.3024 0.35696 0.0
C669 C 0.18293 0.33382 0.41312 0.0
H670 H 0.18799 0.37563 0.25149 0.0
H671 H 0.13402 0.31402 0.21102 0.0
H672 H 0.13182 0.30095 0.27638 0.0
H673 H 0.11527 0.28533 0.24128 0.0
H674 H 0.16292 0.3083 0.44947 0.0
H675 H 0.22618 0.36252 0.48905 0.0
H676 H 0.2283 0.37785 0.42386 0.0
H677 H 0.24793 0.39049 0.45872 0.0
Tb678 Tb 0.70079 0.83492 0.32616 0.0
C679 C 0.61437 0.80697 0.39176 0.0
C680 C 0.60072 0.83873 0.38679 0.0
C681 C 0.56896 0.79594 0.39972 0.0
C682 C 0.62021 0.83129 0.38557 0.0
C683 C 0.58892 0.78919 0.39947 0.0
C684 C 0.57485 0.82069 0.39335 0.0
C685 C 0.6057 0.7606 0.40802 0.0
N686 N 0.6343 0.8014 0.39148 0.0
C687 C 0.63066 0.77898 0.4003 0.0
C688 C 0.58461 0.76556 0.40733 0.0
Tb689 Tb 0.67427 0.83232 0.37792 0.0
N690 N 0.64551 0.84816 0.3796 0.0
C691 C 0.65313 0.87351 0.37615 0.0
C692 C 0.60806 0.86427 0.38204 0.0
C693 C 0.63449 0.88184 0.37706 0.0
H694 H 0.6468 0.77492 0.4008 0.0
H695 H 0.64052 0.90178 0.37377 0.0
H696 H 0.55949 0.82593 0.39416 0.0
H697 H 0.60274 0.74262 0.41448 0.0
H698 H 0.67339 0.88736 0.3721 0.0
H699 H 0.73472 0.76552 0.32845 0.0
H700 H 0.59367 0.87076 0.3827 0.0
H701 H 0.72843 0.89347 0.30535 0.0
H702 H 0.7019 0.77985 0.33114 0.0
H703 H 0.7724 0.92615 0.2918 0.0
H704 H 0.54916 0.78245 0.40535 0.0
H705 H 0.78132 0.79662 0.3189 0.0
H706 H 0.81524 0.84159 0.3076 0.0
H707 H 0.56533 0.75135 0.4134 0.0
H708 H 0.82552 0.88539 0.29749 0.0
N709 N 0.72956 0.81917 0.32379 0.0
C710 C 0.72205 0.79378 0.32691 0.0
C711 C 0.76696 0.80311 0.32007 0.0
C712 C 0.7742 0.82871 0.31571 0.0
C713 C 0.74067 0.78549 0.32541 0.0
C714 C 0.75476 0.83615 0.31761 0.0
H715 H 0.80953 0.917 0.29123 0.0
N716 N 0.7407 0.8663 0.31291 0.0
C717 C 0.76936 0.90782 0.29747 0.0
C718 C 0.76052 0.8606 0.31185 0.0
C719 C 0.74444 0.88922 0.3051 0.0
C720 C 0.79029 0.90261 0.29722 0.0
C721 C 0.78591 0.87859 0.30416 0.0
O722 O 0.68953 0.84198 0.29679 0.0
O723 O 0.67091 0.83651 0.34498 0.0
O724 O 0.64467 0.79805 0.3613 0.0
O725 O 0.67088 0.79493 0.33503 0.0
O726 O 0.68422 0.86045 0.32009 0.0
O727 O 0.68559 0.80503 0.30407 0.0
O728 O 0.68745 0.82626 0.40678 0.0
O729 O 0.70407 0.83045 0.35912 0.0
O730 O 0.73082 0.86781 0.34351 0.0
O731 O 0.70483 0.87237 0.36905 0.0
O732 O 0.69004 0.80632 0.38406 0.0
O733 O 0.68794 0.86182 0.40038 0.0
C734 C 0.6674 0.85281 0.33518 0.0
C735 C 0.69477 0.81917 0.26902 0.0
C736 C 0.68988 0.81542 0.23117 0.0
C737 C 0.67965 0.81583 0.25102 0.0
C738 C 0.71566 0.81892 0.22963 0.0
C739 C 0.72024 0.82222 0.26707 0.0
C740 C 0.73067 0.82228 0.24749 0.0
C741 C 0.64867 0.78511 0.3463 0.0
C742 C 0.68368 0.81939 0.28964 0.0
C743 C 0.80579 0.87177 0.30317 0.0
C744 C 0.79994 0.84684 0.30894 0.0
C745 C 0.70689 0.81372 0.369 0.0
C746 C 0.68106 0.84709 0.43533 0.0
C747 C 0.69749 0.85195 0.45275 0.0
C748 C 0.68715 0.84927 0.47302 0.0
C749 C 0.66024 0.84181 0.47569 0.0
C750 C 0.65437 0.84018 0.4383 0.0
C751 C 0.64403 0.83751 0.45839 0.0
C752 C 0.72726 0.88137 0.35814 0.0
C753 C 0.69181 0.8482 0.41433 0.0
H754 H 0.65977 0.81301 0.25254 0.0
H755 H 0.72427 0.81914 0.21459 0.0
H756 H 0.73204 0.8244 0.28061 0.0
H757 H 0.75042 0.8248 0.24615 0.0
H758 H 0.71814 0.85726 0.45055 0.0
H759 H 0.65188 0.83966 0.49117 0.0
H760 H 0.6415 0.83675 0.42517 0.0
H761 H 0.62336 0.83201 0.46055 0.0
Tb762 Tb 0.20672 0.84839 0.37734 0.0
C763 C 0.15084 0.87673 0.31107 0.0
C764 C 0.10457 0.84428 0.31517 0.0
C765 C 0.11649 0.88726 0.30298 0.0
C766 C 0.13178 0.85212 0.31673 0.0
C767 C 0.14351 0.89443 0.30355 0.0
C768 C 0.09703 0.86221 0.30882 0.0
C769 C 0.18983 0.92379 0.29576 0.0
N770 N 0.17663 0.88269 0.31163 0.0
C771 C 0.19606 0.90547 0.30328 0.0
C772 C 0.16348 0.9184 0.29618 0.0
Tb773 Tb 0.18505 0.85188 0.32496 0.0
N774 N 0.13997 0.83539 0.32249 0.0
C775 C 0.12174 0.80984 0.32538 0.0
C776 C 0.08583 0.8185 0.31937 0.0
C777 C 0.09448 0.80111 0.32414 0.0
H778 H 0.21649 0.90986 0.30301 0.0
H779 H 0.08016 0.781 0.32699 0.0
H780 H 0.07623 0.85666 0.30776 0.0
H781 H 0.20535 0.94205 0.28968 0.0
H782 H 0.12799 0.79613 0.32926 0.0
H783 H 0.31175 0.91913 0.37798 0.0
H784 H 0.06472 0.8117 0.31843 0.0
H785 H 0.17397 0.789 0.39658 0.0
H786 H 0.26421 0.90416 0.37406 0.0
H787 H 0.18439 0.75637 0.40999 0.0
H788 H 0.11042 0.90067 0.29748 0.0
H789 H 0.32662 0.88839 0.38789 0.0
H790 H 0.31452 0.84333 0.39867 0.0
H791 H 0.15869 0.93257 0.29026 0.0
H792 H 0.27981 0.79895 0.40747 0.0
N793 N 0.25167 0.86481 0.38112 0.0
C794 C 0.27011 0.89035 0.37845 0.0
C795 C 0.30559 0.88161 0.38618 0.0
C796 C 0.28662 0.85581 0.39001 0.0
C797 C 0.29726 0.89902 0.38064 0.0
C798 C 0.25952 0.848 0.38743 0.0
H799 H 0.23117 0.76641 0.41201 0.0
N800 N 0.21441 0.81708 0.39057 0.0
C801 C 0.20028 0.77508 0.40501 0.0
C802 C 0.24016 0.82322 0.39241 0.0
C803 C 0.19446 0.79366 0.39748 0.0
C804 C 0.2267 0.7808 0.40609 0.0
C805 C 0.24708 0.80526 0.40004 0.0
O806 O 0.18673 0.84024 0.40622 0.0
O807 O 0.17582 0.8466 0.3577 0.0
O808 O 0.18939 0.88541 0.3419 0.0
O809 O 0.218 0.88833 0.36865 0.0
O810 O 0.16377 0.82193 0.38208 0.0
O811 O 0.22015 0.87787 0.39976 0.0
O812 O 0.20539 0.8591 0.29633 0.0
O813 O 0.21624 0.8541 0.34456 0.0
O814 O 0.20489 0.81662 0.35959 0.0
O815 O 0.17501 0.81196 0.33342 0.0
O816 O 0.22773 0.8785 0.31981 0.0
O817 O 0.16991 0.82278 0.30211 0.0
C818 C 0.15523 0.82978 0.36691 0.0
C819 C 0.21323 0.86366 0.43482 0.0
C820 C 0.21206 0.87019 0.47236 0.0
C821 C 0.20189 0.86898 0.45219 0.0
C822 C 0.23334 0.86548 0.47487 0.0
C823 C 0.23454 0.85923 0.43778 0.0
C824 C 0.24442 0.86002 0.45769 0.0
C825 C 0.20604 0.89811 0.35725 0.0
C826 C 0.20289 0.86301 0.41373 0.0
C827 C 0.27404 0.81252 0.40181 0.0
C828 C 0.2938 0.83778 0.3968 0.0
C829 C 0.23658 0.87117 0.33515 0.0
C830 C 0.17856 0.83811 0.26733 0.0
C831 C 0.18948 0.83245 0.24991 0.0
C832 C 0.18171 0.83462 0.22949 0.0
C833 C 0.16286 0.84272 0.22701 0.0
C834 C 0.15938 0.84548 0.26435 0.0
C835 C 0.15168 0.84786 0.24431 0.0
C836 C 0.18841 0.80331 0.34436 0.0
C837 C 0.18795 0.83705 0.28843 0.0
H838 H 0.1856 0.87269 0.44994 0.0
H839 H 0.24135 0.86587 0.49018 0.0
H840 H 0.24365 0.85531 0.42476 0.0
H841 H 0.26082 0.85648 0.45981 0.0
H842 H 0.20386 0.8262 0.25238 0.0
H843 H 0.1569 0.84544 0.21168 0.0
H844 H 0.15043 0.84951 0.27744 0.0
H845 H 0.13712 0.85392 0.24216 0.0
Tb846 Tb 0.8342 0.66444 0.65953 0.0
C847 C 0.89054 0.74581 0.72714 0.0
C848 C 0.9367 0.75803 0.7228 0.0
C849 C 0.92514 0.78931 0.73584 0.0
C850 C 0.90944 0.73968 0.7211 0.0
C851 C 0.89806 0.77048 0.73505 0.0
C852 C 0.94445 0.78309 0.7297 0.0
C853 C 0.85173 0.75525 0.74244 0.0
N854 N 0.86472 0.72701 0.72624 0.0
C855 C 0.84533 0.73105 0.73451 0.0
C856 C 0.87819 0.77518 0.74246 0.0
Tb857 Tb 0.85585 0.68831 0.71213 0.0
N858 N 0.90103 0.71519 0.71476 0.0
C859 C 0.91911 0.70722 0.71149 0.0
C860 C 0.95528 0.75036 0.71817 0.0
C861 C 0.94642 0.72472 0.71285 0.0
H862 H 0.82479 0.71582 0.73438 0.0
H863 H 0.9606 0.71842 0.70968 0.0
H864 H 0.9653 0.79756 0.73089 0.0
H865 H 0.83625 0.75853 0.74848 0.0
H866 H 0.91279 0.68758 0.70721 0.0
H867 H 0.72899 0.63249 0.65923 0.0
H868 H 0.97642 0.76387 0.71921 0.0
H869 H 0.8673 0.63751 0.63977 0.0
H870 H 0.77647 0.66392 0.663 0.0
H871 H 0.8572 0.59496 0.62618 0.0
H872 H 0.93135 0.80849 0.74167 0.0
H873 H 0.71445 0.58743 0.64927 0.0
H874 H 0.7269 0.55445 0.6383 0.0
H875 H 0.88312 0.79388 0.74867 0.0
H876 H 0.76185 0.5442 0.62922 0.0
N877 N 0.7893 0.63701 0.65583 0.0
C878 C 0.77071 0.64445 0.65859 0.0
C879 C 0.73545 0.60119 0.65092 0.0
C880 C 0.75458 0.59402 0.64697 0.0
C881 C 0.74359 0.62661 0.65649 0.0
C882 C 0.78163 0.61265 0.64948 0.0
H883 H 0.81056 0.55931 0.62438 0.0
N884 N 0.82681 0.62589 0.64611 0.0
C885 C 0.84123 0.59803 0.63133 0.0
C886 C 0.80112 0.60689 0.64436 0.0
C887 C 0.84687 0.62214 0.63897 0.0
C888 C 0.81488 0.57793 0.63038 0.0
C889 C 0.79438 0.58234 0.63664 0.0
O890 O 0.85436 0.67628 0.63072 0.0
O891 O 0.86486 0.69254 0.67935 0.0
O892 O 0.85086 0.71758 0.69552 0.0
O893 O 0.82268 0.6932 0.66838 0.0
O894 O 0.87721 0.68008 0.65482 0.0
O895 O 0.82047 0.6807 0.63709 0.0
O896 O 0.83685 0.67727 0.74147 0.0
O897 O 0.82477 0.66073 0.69232 0.0
O898 O 0.8365 0.63439 0.67697 0.0
O899 O 0.86633 0.65866 0.70314 0.0
O900 O 0.81321 0.6734 0.71733 0.0
O901 O 0.86878 0.67036 0.73356 0.0
C902 C 0.88552 0.696 0.67012 0.0
C903 C 0.82777 0.67365 0.60203 0.0
C904 C 0.82874 0.68131 0.56444 0.0
C905 C 0.83882 0.69009 0.58462 0.0
C906 C 0.8079 0.65574 0.56197 0.0
C907 C 0.80688 0.64836 0.59906 0.0
C908 C 0.79713 0.63944 0.57916 0.0
C909 C 0.83425 0.71427 0.68011 0.0
C910 C 0.83793 0.68304 0.62317 0.0
C911 C 0.76747 0.56329 0.63495 0.0
C912 C 0.74759 0.56912 0.64012 0.0
C913 C 0.80444 0.65788 0.7018 0.0
C914 C 0.86394 0.67757 0.76908 0.0
C915 C 0.85115 0.66192 0.78656 0.0
C916 C 0.86278 0.66899 0.80648 0.0
C917 C 0.88708 0.69211 0.80869 0.0
C918 C 0.88807 0.70066 0.77173 0.0
C919 C 0.89949 0.70789 0.79144 0.0
C920 C 0.8531 0.6371 0.69214 0.0
C921 C 0.85248 0.66907 0.74813 0.0
H922 H 0.85479 0.70976 0.58685 0.0
H923 H 0.79999 0.64826 0.54667 0.0
H924 H 0.79797 0.6355 0.61209 0.0
H925 H 0.78106 0.61984 0.57705 0.0
H926 H 0.83257 0.64398 0.78459 0.0
H927 H 0.89635 0.69808 0.82384 0.0
H928 H 0.89827 0.71294 0.75857 0.0
H929 H 0.91816 0.7257 0.79334 0.0
Tb930 Tb 0.36735 0.17235 0.66004 0.0
C931 C 0.2805 0.14232 0.72556 0.0
C932 C 0.26702 0.17432 0.72143 0.0
C933 C 0.23504 0.13115 0.73349 0.0
C934 C 0.28646 0.16684 0.71992 0.0
C935 C 0.25496 0.12434 0.73299 0.0
C936 C 0.24106 0.15612 0.72769 0.0
C937 C 0.27157 0.09544 0.74083 0.0
N938 N 0.3004 0.13671 0.72507 0.0
C939 C 0.29662 0.11401 0.73341 0.0
C940 C 0.25052 0.10046 0.74034 0.0
Tb941 Tb 0.34052 0.16795 0.71198 0.0
N942 N 0.31185 0.18384 0.71425 0.0
C943 C 0.3196 0.20933 0.71143 0.0
C944 C 0.2745 0.20003 0.71727 0.0
C945 C 0.30102 0.2177 0.71262 0.0
H946 H 0.31273 0.1099 0.73373 0.0
H947 H 0.30715 0.23776 0.7098 0.0
H948 H 0.22575 0.16139 0.7287 0.0
H949 H 0.26851 0.07725 0.7469 0.0
H950 H 0.33993 0.22326 0.70764 0.0
H951 H 0.39991 0.10184 0.65945 0.0
H952 H 0.26016 0.20656 0.71817 0.0
H953 H 0.39603 0.23196 0.64124 0.0
H954 H 0.36757 0.11663 0.66312 0.0
H955 H 0.44039 0.26491 0.62854 0.0
H956 H 0.21517 0.11753 0.73892 0.0
H957 H 0.44666 0.13285 0.65026 0.0
H958 H 0.48113 0.17814 0.64018 0.0
H959 H 0.23117 0.0861 0.74619 0.0
H960 H 0.49221 0.22262 0.63175 0.0
N961 N 0.39562 0.15611 0.65658 0.0
C962 C 0.38778 0.13054 0.65902 0.0
C963 C 0.4325 0.13954 0.65184 0.0
C964 C 0.44012 0.1654 0.64826 0.0
C965 C 0.40613 0.12198 0.65698 0.0
C966 C 0.42093 0.17309 0.65066 0.0
H967 H 0.47703 0.2551 0.6271 0.0
N968 N 0.40761 0.20398 0.64749 0.0
C969 C 0.43696 0.24618 0.63347 0.0
C970 C 0.42716 0.19796 0.64592 0.0
C971 C 0.41183 0.22743 0.6406 0.0
C972 C 0.45762 0.24059 0.63272 0.0
C973 C 0.45275 0.21608 0.63867 0.0
O974 O 0.35636 0.18103 0.63123 0.0
O975 O 0.33743 0.17338 0.67921 0.0
O976 O 0.31101 0.13419 0.69477 0.0
O977 O 0.3372 0.13208 0.66797 0.0
O978 O 0.35141 0.19857 0.65512 0.0
O979 O 0.35185 0.14353 0.63706 0.0
O980 O 0.35314 0.16086 0.74071 0.0
O981 O 0.37014 0.1664 0.69278 0.0
O982 O 0.39748 0.20421 0.67818 0.0
O983 O 0.37142 0.20823 0.70396 0.0
O984 O 0.35625 0.14174 0.71736 0.0
O985 O 0.35451 0.19695 0.73487 0.0
C986 C 0.33428 0.19026 0.67 0.0
C987 C 0.36049 0.15901 0.60239 0.0
C988 C 0.35344 0.15357 0.56485 0.0
C989 C 0.34399 0.1539 0.58499 0.0
C990 C 0.37979 0.15894 0.56232 0.0
C991 C 0.38665 0.16418 0.59953 0.0
C992 C 0.39627 0.1643 0.57959 0.0
C993 C 0.31503 0.12181 0.67932 0.0
C994 C 0.34997 0.15864 0.62334 0.0
C995 C 0.47234 0.20892 0.63711 0.0
C996 C 0.46603 0.1836 0.6419 0.0
C997 C 0.37296 0.1494 0.70218 0.0
C998 C 0.34701 0.18148 0.76958 0.0
C999 C 0.36338 0.18642 0.78705 0.0
C1000 C 0.35293 0.18371 0.80729 0.0
C1001 C 0.32597 0.17614 0.80986 0.0
C1002 C 0.32028 0.17445 0.77246 0.0
C1003 C 0.30982 0.17175 0.79251 0.0
C1004 C 0.39402 0.21732 0.69326 0.0
C1005 C 0.35789 0.18278 0.7486 0.0
H1006 H 0.32363 0.14952 0.5872 0.0
H1007 H 0.38762 0.15899 0.54697 0.0
H1008 H 0.39958 0.16795 0.61264 0.0
H1009 H 0.41651 0.16834 0.57752 0.0
H1010 H 0.38407 0.19184 0.78492 0.0
H1011 H 0.31752 0.17397 0.82531 0.0
H1012 H 0.30746 0.17096 0.7593 0.0
H1013 H 0.28913 0.16617 0.79459 0.0
Tb1014 Tb 0.87238 0.18266 0.71042 0.0
C1015 C 0.8152 0.20914 0.64369 0.0
C1016 C 0.76905 0.17666 0.64841 0.0
C1017 C 0.78057 0.21919 0.63534 0.0
C1018 C 0.79632 0.18468 0.64985 0.0
C1019 C 0.80763 0.22651 0.6358 0.0
C1020 C 0.76129 0.19429 0.64167 0.0
C1021 C 0.85381 0.25585 0.62754 0.0
N1022 N 0.84104 0.21527 0.64421 0.0
C1023 C 0.86027 0.23786 0.63545 0.0
C1024 C 0.82741 0.25031 0.62799 0.0
Tb1025 Tb 0.84987 0.185 0.65811 0.0
N1026 N 0.80471 0.16822 0.65595 0.0
C1027 C 0.78662 0.14272 0.6593 0.0
C1028 C 0.75047 0.15098 0.6531 0.0
C1029 C 0.75931 0.13384 0.6582 0.0
H1030 H 0.88074 0.24237 0.63513 0.0
H1031 H 0.74512 0.11379 0.66143 0.0
H1032 H 0.74044 0.18861 0.64069 0.0
H1033 H 0.86918 0.27396 0.62113 0.0
H1034 H 0.79302 0.1292 0.66343 0.0
H1035 H 0.97711 0.25435 0.70966 0.0
H1036 H 0.72932 0.14405 0.65227 0.0
H1037 H 0.84063 0.12367 0.73047 0.0
H1038 H 0.92937 0.23877 0.70627 0.0
H1039 H 0.85186 0.09166 0.74406 0.0
H1040 H 0.77432 0.23235 0.62956 0.0
H1041 H 0.99272 0.22419 0.71963 0.0
H1042 H 0.98139 0.17947 0.73083 0.0
H1043 H 0.82244 0.26422 0.62178 0.0
H1044 H 0.94726 0.13512 0.74028 0.0
N1045 N 0.91747 0.19966 0.71368 0.0
C1046 C 0.9356 0.22522 0.71069 0.0
C1047 C 0.97161 0.21715 0.71815 0.0
C1048 C 0.95295 0.19133 0.72232 0.0
C1049 C 0.96286 0.23423 0.71258 0.0
C1050 C 0.92573 0.18317 0.72003 0.0
H1051 H 0.89884 0.10226 0.74554 0.0
N1052 N 0.88081 0.15192 0.72381 0.0
C1053 C 0.86748 0.11033 0.73877 0.0
C1054 C 0.90669 0.15839 0.72536 0.0
C1055 C 0.8612 0.12856 0.73113 0.0
C1056 C 0.89402 0.11637 0.73954 0.0
C1057 C 0.91407 0.1408 0.73308 0.0
O1058 O 0.85257 0.17462 0.73937 0.0
O1059 O 0.84114 0.18036 0.69094 0.0
O1060 O 0.85426 0.21885 0.67452 0.0
O1061 O 0.88288 0.2224 0.70153 0.0
O1062 O 0.82955 0.15601 0.71555 0.0
O1063 O 0.88602 0.21221 0.7328 0.0
O1064 O 0.87023 0.19158 0.62956 0.0
O1065 O 0.88144 0.18779 0.67756 0.0
O1066 O 0.87046 0.15061 0.69299 0.0
O1067 O 0.8401 0.14531 0.66705 0.0
O1068 O 0.89236 0.21195 0.65267 0.0
O1069 O 0.83444 0.15559 0.63552 0.0
C1070 C 0.82073 0.16358 0.70037 0.0
C1071 C 0.87935 0.19793 0.76786 0.0
C1072 C 0.87767 0.2032 0.80555 0.0
C1073 C 0.86753 0.2023 0.78541 0.0
C1074 C 0.8994 0.19911 0.80782 0.0
C1075 C 0.90115 0.19421 0.77059 0.0
C1076 C 0.91099 0.19465 0.79045 0.0
C1077 C 0.87088 0.23188 0.68981 0.0
C1078 C 0.86887 0.19738 0.74683 0.0
C1079 C 0.94114 0.14841 0.73456 0.0
C1080 C 0.96057 0.17365 0.72918 0.0
C1081 C 0.90155 0.20495 0.66798 0.0
C1082 C 0.84325 0.17066 0.60066 0.0
C1083 C 0.8557 0.16696 0.58323 0.0
C1084 C 0.84829 0.16973 0.56294 0.0
C1085 C 0.82823 0.17607 0.56026 0.0
C1086 C 0.82286 0.17643 0.59762 0.0
C1087 C 0.81546 0.17918 0.57753 0.0
C1088 C 0.85374 0.13695 0.67799 0.0
C1089 C 0.85254 0.16957 0.62178 0.0
H1090 H 0.85087 0.2055 0.78334 0.0
H1091 H 0.9074 0.19925 0.82308 0.0
H1092 H 0.91067 0.19109 0.75742 0.0
H1093 H 0.92775 0.19163 0.79238 0.0
H1094 H 0.87148 0.1625 0.58545 0.0
H1095 H 0.82223 0.17829 0.54477 0.0
H1096 H 0.81273 0.17892 0.61072 0.0
H1097 H 0.79983 0.18381 0.57534 0.0
H1098 H 0.33506 0.87147 0.09574 0.0
H1099 H 0.31996 0.83928 0.0336 0.0
H1100 H 0.37438 0.9098 0.08298 0.0
H1101 H 0.36065 0.87734 0.0213 0.0
H1102 H 0.45697 0.93871 0.02523 0.0
H1103 H 0.41437 0.89951 0.03241 0.0
H1104 H 0.38195 0.94626 0.05438 0.0
H1105 H 0.42404 0.98535 0.04643 0.0
C1106 C 0.33977 0.87253 0.07932 0.0
C1107 C 0.32383 0.8521 0.06575 0.0
C1108 C 0.36256 0.8945 0.07208 0.0
C1109 C 0.37047 0.8965 0.05118 0.0
C1110 C 0.35499 0.87615 0.03753 0.0
C1111 C 0.33176 0.8543 0.04468 0.0
C1112 C 0.44049 0.94061 0.03092 0.0
C1113 C 0.44363 0.96511 0.03486 0.0
C1114 C 0.41618 0.91819 0.03513 0.0
C1115 C 0.39495 0.91993 0.04397 0.0
C1116 C 0.39802 0.94441 0.04758 0.0
C1117 C 0.42205 0.96673 0.04302 0.0
H1118 H 0.19883 0.51239 0.06622 0.0
H1119 H 0.15629 0.43078 0.05362 0.0
H1120 H 0.1599 0.51531 0.05646 0.0
H1121 H 0.11775 0.43366 0.04238 0.0
H1122 H 0.0429 0.43968 0.04824 0.0
H1123 H 0.08275 0.43707 0.05462 0.0
H1124 H 0.13104 0.5156 0.03255 0.0
H1125 H 0.09111 0.51855 0.02804 0.0
C1126 C 0.18126 0.49517 0.06083 0.0
C1127 C 0.18054 0.47136 0.06073 0.0
C1128 C 0.15885 0.49679 0.05509 0.0
C1129 C 0.13521 0.47469 0.04868 0.0
C1130 C 0.13509 0.45105 0.04774 0.0
C1131 C 0.15731 0.44936 0.05396 0.0
C1132 C 0.06209 0.45629 0.04462 0.0
C1133 C 0.06374 0.47904 0.037 0.0
C1134 C 0.08508 0.45477 0.04809 0.0
C1135 C 0.11054 0.47603 0.04397 0.0
C1136 C 0.11205 0.49883 0.03623 0.0
C1137 C 0.08901 0.50044 0.03318 0.0
H1138 H 0.55962 0.6946 0.09843 0.0
H1139 H 0.54586 0.71579 0.03729 0.0
H1140 H 0.55685 0.65574 0.08414 0.0
H1141 H 0.54311 0.67665 0.02287 0.0
H1142 H 0.51018 0.58892 0.01161 0.0
H1143 H 0.51489 0.62968 0.02347 0.0
H1144 H 0.58126 0.64228 0.06194 0.0
H1145 H 0.57641 0.60146 0.0503 0.0
C1146 C 0.55635 0.69113 0.08185 0.0
C1147 C 0.55325 0.70848 0.06897 0.0
C1148 C 0.55477 0.66881 0.07364 0.0
C1149 C 0.55002 0.66315 0.0523 0.0
C1150 C 0.54661 0.68033 0.0394 0.0
C1151 C 0.54819 0.70275 0.04765 0.0
C1152 C 0.52605 0.60055 0.02234 0.0
C1153 C 0.54291 0.59184 0.02999 0.0
C1154 C 0.52875 0.62397 0.02914 0.0
C1155 C 0.54832 0.6392 0.04379 0.0
C1156 C 0.56565 0.63082 0.05095 0.0
C1157 C 0.56295 0.60743 0.04417 0.0
H1158 H 0.87014 0.32044 0.9417 0.0
H1159 H 0.84158 0.29737 1.0047 0.0
H1160 H 0.90643 0.36094 0.95454 0.0
H1161 H 0.8779 0.3384 0.01754 0.0
H1162 H 0.92948 0.4278 0.02698 0.0
H1163 H 0.89352 0.38551 0.01637 0.0
H1164 H 0.94737 0.37718 0.97486 0.0
H1165 H 0.9833 0.41928 0.98547 0.0
C1166 C 0.87176 0.3238 0.95835 0.0
C1167 C 0.85297 0.30537 0.97215 0.0
C1168 C 0.8926 0.34714 0.96571 0.0
C1169 C 0.89522 0.35289 0.98709 0.0
C1170 C 0.87634 0.33466 1.00095 0.0
C1171 C 0.85551 0.31114 0.99358 0.0
C1172 C 0.93381 0.41681 0.01586 0.0
C1173 C 0.95942 0.42702 1.00719 0.0
C1174 C 0.91313 0.39252 0.00975 0.0
C1175 C 0.9175 0.37798 0.99468 0.0
C1176 C 0.9432 0.38802 0.98629 0.0
C1177 C 0.96387 0.41217 0.99246 0.0
H1178 H 0.69595 0.50735 0.9688 0.0
H1179 H 0.73757 0.58952 0.97878 0.0
H1180 H 0.65432 0.50475 0.97926 0.0
H1181 H 0.69646 0.58704 0.99077 0.0
H1182 H 0.61501 0.58038 0.98779 0.0
H1183 H 0.65728 0.58298 0.98021 0.0
H1184 H 0.62619 0.50526 1.00378 0.0
H1185 H 0.58332 0.50222 0.00943 0.0
C1186 C 0.69619 0.52481 0.97366 0.0
C1187 C 0.71993 0.54865 0.97288 0.0
C1188 C 0.6723 0.52337 0.97985 0.0
C1189 C 0.67156 0.54569 0.98589 0.0
C1190 C 0.69573 0.56943 0.98575 0.0
C1191 C 0.71947 0.57092 0.97906 0.0
C1192 C 0.61736 0.56395 0.99149 0.0
C1193 C 0.59597 0.54137 0.99978 0.0
C1194 C 0.64179 0.56546 0.98732 0.0
C1195 C 0.64569 0.54441 0.99142 0.0
C1196 C 0.6242 0.52185 1.00001 0.0
C1197 C 0.59956 0.52021 1.00373 0.0
H1198 H 0.48502 0.18469 1.00306 0.0
H1199 H 0.47758 0.15505 0.94059 0.0
H1200 H 0.48798 0.14797 0.01659 0.0
H1201 H 0.48028 0.11845 0.95409 0.0
H1202 H 0.46216 0.04403 0.98577 0.0
H1203 H 0.45565 0.07948 0.97496 0.0
H1204 H 0.519 0.13107 0.01582 0.0
H1205 H 0.52551 0.09554 0.02675 0.0
C1206 C 0.48401 0.17037 0.99221 0.0
C1207 C 0.48094 0.17282 0.97072 0.0
C1208 C 0.48571 0.14934 0.99997 0.0
C1209 C 0.48428 0.13021 0.98644 0.0
C1210 C 0.48095 0.13254 0.96501 0.0
C1211 C 0.47934 0.15356 0.95726 0.0
C1212 C 0.47461 0.06286 0.9926 0.0
C1213 C 0.49436 0.06687 1.00717 0.0
C1214 C 0.47093 0.08324 0.98631 0.0
C1215 C 0.4869 0.10817 0.99441 0.0
C1216 C 0.50615 0.11205 0.00944 0.0
C1217 C 0.50988 0.09165 0.01571 0.0
H1218 H 0.71235 0.16516 0.99657 0.0
H1219 H 0.65885 0.1839 0.96452 0.0
H1220 H 0.67518 0.12139 1.00334 0.0
H1221 H 0.62209 0.14066 0.97126 0.0
H1222 H 0.55766 0.07607 0.00846 0.0
H1223 H 0.59708 0.11767 1.00261 0.0
H1224 H 0.64113 0.0797 0.98589 0.0
H1225 H 0.60126 0.0376 0.99238 0.0
C1226 C 0.6928 0.15982 0.99068 0.0
C1227 C 0.68849 0.17813 0.98026 0.0
C1228 C 0.67152 0.13481 0.99461 0.0
C1229 C 0.64556 0.12771 0.9882 0.0
C1230 C 0.64165 0.14568 0.97691 0.0
C1231 C 0.66278 0.17047 0.97298 0.0
C1232 C 0.57578 0.07645 1.00407 0.0
C1233 C 0.57645 0.05349 1.00145 0.0
C1234 C 0.5984 0.10039 1.00039 0.0
C1235 C 0.62227 0.10206 0.99362 0.0
C1236 C 0.62313 0.07911 0.99124 0.0
C1237 C 0.60033 0.05504 0.99487 0.0
H1238 H 0.84073 0.49596 0.01933 0.0
H1239 H 0.86506 0.53622 0.96042 0.0
H1240 H 0.88469 0.50099 0.02371 0.0
H1241 H 0.90955 0.5416 0.96502 0.0
H1242 H 0.99336 0.56163 0.99144 0.0
H1243 H 0.95127 0.56164 0.98745 0.0
H1244 H 0.90813 0.4813 1.0054 0.0
H1245 H 0.94981 0.48129 0.00895 0.0
C1246 C 0.85554 0.50607 1.00734 0.0
C1247 C 0.84914 0.51528 0.98932 0.0
C1248 C 0.88077 0.50892 0.00987 0.0
C1249 C 0.90051 0.52127 0.99455 0.0
C1250 C 0.89476 0.53196 0.97711 0.0
C1251 C 0.86931 0.52896 0.9745 0.0
C1252 C 0.97482 0.54405 0.9946 0.0
C1253 C 0.97498 0.52174 1.00134 0.0
C1254 C 0.95075 0.54402 0.99222 0.0
C1255 C 0.92632 0.52159 0.99644 0.0
C1256 C 0.92657 0.49909 1.00251 0.0
C1257 C 0.95054 0.4991 1.00468 0.0
H1258 H 0.48854 0.31302 0.98963 0.0
H1259 H 0.56685 0.36464 0.96476 0.0
H1260 H 0.48238 0.35012 0.99636 0.0
H1261 H 0.56093 0.40137 0.97217 0.0
H1262 H 0.55565 0.4548 0.02153 0.0
H1263 H 0.55549 0.41594 0.01072 0.0
H1264 H 0.48393 0.39243 0.97537 0.0
H1265 H 0.48409 0.43207 0.98606 0.0
C1266 C 0.50421 0.33213 0.98525 0.0
C1267 C 0.52841 0.33587 0.97702 0.0
C1268 C 0.50067 0.35332 0.98913 0.0
C1269 C 0.52132 0.37853 0.985 0.0
C1270 C 0.54484 0.38212 0.97574 0.0
C1271 C 0.54827 0.36106 0.97165 0.0
C1272 C 0.53965 0.4414 0.01161 0.0
C1273 C 0.51984 0.44662 1.00469 0.0
C1274 C 0.53971 0.41916 1.00532 0.0
C1275 C 0.51983 0.40133 0.99212 0.0
C1276 C 0.49948 0.40596 0.98558 0.0
C1277 C 0.49964 0.42861 0.99164 0.0
H1278 H 0.21542 0.65983 0.07009 0.0
H1279 H 0.18715 0.70915 0.04573 0.0
H1280 H 0.17219 0.62209 0.06347 0.0
H1281 H 0.1433 0.67099 0.03967 0.0
H1282 H 0.06235 0.58822 0.05027 0.0
H1283 H 0.10241 0.62872 0.06034 0.0
H1284 H 0.15111 0.6056 0.02618 0.0
H1285 H 0.11186 0.56589 0.01603 0.0
C1286 C 0.19993 0.66268 0.06347 0.0
C1287 C 0.20502 0.68754 0.058 0.0
C1288 C 0.17511 0.64103 0.0598 0.0
C1289 C 0.15453 0.64362 0.05085 0.0
C1290 C 0.15885 0.66851 0.04665 0.0
C1291 C 0.18393 0.69031 0.05014 0.0
C1292 C 0.08163 0.59192 0.04484 0.0
C1293 C 0.08381 0.57377 0.03231 0.0
C1294 C 0.10447 0.61509 0.05054 0.0
C1295 C 0.12982 0.62014 0.04415 0.0
C1296 C 0.13186 0.60211 0.03149 0.0
C1297 C 0.10923 0.57936 0.02557 0.0
H1298 H 0.32496 0.47227 0.03886 0.0
H1299 H 0.37523 0.54339 0.0714 0.0
H1300 H 0.36358 0.46652 0.03302 0.0
H1301 H 0.41341 0.53773 0.06564 0.0
H1302 H 0.48059 0.53906 0.02938 0.0
H1303 H 0.4401 0.54059 0.03517 0.0
H1304 H 0.39842 0.45944 0.05067 0.0
H1305 H 0.43937 0.45789 0.04427 0.0
C1306 C 0.3441 0.4864 0.04509 0.0
C1307 C 0.34707 0.50846 0.05536 0.0
C1308 C 0.36623 0.48316 0.04169 0.0
C1309 C 0.39173 0.50194 0.0485 0.0
C1310 C 0.39427 0.52324 0.05968 0.0
C1311 C 0.37231 0.52642 0.06308 0.0
C1312 C 0.46278 0.5214 0.03355 0.0
C1313 C 0.46309 0.49819 0.03576 0.0
C1314 C 0.43953 0.52234 0.03721 0.0
C1315 C 0.41594 0.50016 0.04351 0.0
C1316 C 0.41615 0.47683 0.04566 0.0
C1317 C 0.43958 0.47596 0.04208 0.0
H1318 H 0.54318 0.84634 0.07984 0.0
H1319 H 0.47177 0.80916 0.04266 0.0
H1320 H 0.55109 0.88846 0.06798 0.0
H1321 H 0.47839 0.85074 0.03231 0.0
H1322 H 0.50349 0.92468 1.00145 0.0
H1323 H 0.50339 0.88576 0.01117 0.0
H1324 H 0.53631 0.9189 0.07119 0.0
H1325 H 0.53839 0.95909 0.06056 0.0
C1326 C 0.52918 0.84707 0.06915 0.0
C1327 C 0.50673 0.8242 0.06235 0.0
C1328 C 0.53352 0.87129 0.06257 0.0
C1329 C 0.51546 0.87321 0.04909 0.0
C1330 C 0.49312 0.85027 0.04232 0.0
C1331 C 0.489 0.82623 0.04863 0.0
C1332 C 0.51144 0.92414 0.01646 0.0
C1333 C 0.52115 0.94531 0.03004 0.0
C1334 C 0.51093 0.90144 0.02228 0.0
C1335 C 0.51931 0.89876 0.04219 0.0
C1336 C 0.52984 0.9202 0.05565 0.0
C1337 C 0.53091 0.94327 0.04959 0.0
H1338 H 1.01485 0.16991 0.40165 0.0
H1339 H 0.96943 0.20746 0.38907 0.0
H1340 H 0.05513 0.20805 0.38978 0.0
H1341 H 1.00938 0.24529 0.37581 0.0
H1342 H 0.09005 0.3197 0.37907 0.0
H1343 H 0.04816 0.28067 0.38653 0.0
H1344 H 0.08119 0.2346 0.36351 0.0
H1345 H 0.12357 0.27365 0.35797 0.0
C1346 C 1.01347 0.18624 0.39587 0.0
C1347 C 0.9891 0.18581 0.39633 0.0
C1348 C 0.03657 0.20814 0.38888 0.0
C1349 C 0.03583 0.23009 0.38176 0.0
C1350 C 1.01107 0.22917 0.38158 0.0
C1351 C 0.98806 0.20742 0.38902 0.0
C1352 C 0.08816 0.30117 0.37543 0.0
C1353 C 0.10993 0.29982 0.36742 0.0
C1354 C 0.06401 0.27868 0.37953 0.0
C1355 C 0.06093 0.25415 0.37566 0.0
C1356 C 0.08269 0.25295 0.36712 0.0
C1357 C 0.10701 0.27547 0.36347 0.0
H1358 H 0.82395 0.76415 0.38881 0.0
H1359 H 0.86676 0.84594 0.40069 0.0
H1360 H 0.78548 0.76703 0.37739 0.0
H1361 H 0.82788 0.84887 0.39071 0.0
H1362 H 0.75888 0.85159 0.36152 0.0
H1363 H 0.7989 0.84882 0.36658 0.0
H1364 H 0.75067 0.77077 0.38968 0.0
H1365 H 0.7108 0.77316 0.38286 0.0
C1366 C 0.82505 0.78277 0.38896 0.0
C1367 C 0.84834 0.80481 0.39559 0.0
C1368 C 0.80287 0.78446 0.38263 0.0
C1369 C 0.80307 0.80815 0.38332 0.0
C1370 C 0.82677 0.83031 0.38957 0.0
C1371 C 0.84915 0.82868 0.39542 0.0
C1372 C 0.75684 0.83362 0.36706 0.0
C1373 C 0.73158 0.81225 0.37103 0.0
C1374 C 0.77991 0.83212 0.3704 0.0
C1375 C 0.77842 0.80948 0.37852 0.0
C1376 C 0.75298 0.78832 0.38284 0.0
C1377 C 0.72997 0.78971 0.37913 0.0
H1378 H 0.21991 0.02301 0.43141 0.0
H1379 H 0.21824 0.05009 0.36926 0.0
H1380 H 0.21845 0.98482 0.41695 0.0
H1381 H 0.21622 0.01129 0.35477 0.0
H1382 H 0.17951 0.92221 0.34286 0.0
H1383 H 0.18452 0.96325 0.35431 0.0
H1384 H 0.24718 0.97344 0.39614 0.0
H1385 H 0.24239 0.93258 0.38466 0.0
C1386 C 0.21959 0.02101 0.41463 0.0
C1387 C 0.21951 0.03983 0.4015 0.0
C1388 C 0.21869 0.99905 0.40635 0.0
C1389 C 0.21746 0.99517 0.38472 0.0
C1390 C 0.21704 0.01374 0.37152 0.0
C1391 C 0.21814 0.0359 0.37982 0.0
C1392 C 0.19474 0.93341 0.35417 0.0
C1393 C 0.21057 0.92404 0.36279 0.0
C1394 C 0.19757 0.95694 0.36075 0.0
C1395 C 0.21612 0.97147 0.37622 0.0
C1396 C 0.23245 0.96248 0.38439 0.0
C1397 C 0.22974 0.93907 0.37774 0.0
H1398 H 0.54776 0.62408 0.30767 0.0
H1399 H 0.49604 0.65658 0.30989 0.0
H1400 H 0.58439 0.66455 0.32079 0.0
H1401 H 0.53259 0.69704 0.32275 0.0
H1402 H 0.59741 0.76044 0.36102 0.0
H1403 H 0.56116 0.71798 0.35162 0.0
H1404 H 0.61349 0.70804 0.30949 0.0
H1405 H 0.65005 0.75006 0.31956 0.0
C1406 C 0.54421 0.63987 0.31096 0.0
C1407 C 0.51893 0.63703 0.30774 0.0
C1408 C 0.56523 0.66312 0.31843 0.0
C1409 C 0.56156 0.6842 0.32281 0.0
C1410 C 0.53613 0.68116 0.31991 0.0
C1411 C 0.51511 0.6579 0.31252 0.0
C1412 C 0.60138 0.74905 0.35005 0.0
C1413 C 0.62682 0.75871 0.34122 0.0
C1414 C 0.58043 0.72475 0.34444 0.0
C1415 C 0.58426 0.70949 0.32971 0.0
C1416 C 0.60981 0.71902 0.32109 0.0
C1417 C 0.63079 0.74328 0.32677 0.0
H1418 H 0.36375 0.83965 0.30407 0.0
H1419 H 0.40517 0.92184 0.31398 0.0
H1420 H 0.32207 0.83696 0.31435 0.0
H1421 H 0.36393 0.91926 0.32577 0.0
H1422 H 0.28224 0.91223 0.32173 0.0
H1423 H 0.32479 0.91507 0.31483 0.0
H1424 H 0.29356 0.83738 0.33849 0.0
H1425 H 0.25049 0.8341 0.34347 0.0
C1426 C 0.36396 0.8571 0.30894 0.0
C1427 C 0.38769 0.88096 0.30816 0.0
C1428 C 0.34001 0.8556 0.31501 0.0
C1429 C 0.33915 0.8779 0.32092 0.0
C1430 C 0.3633 0.90167 0.32085 0.0
C1431 C 0.38713 0.90321 0.31429 0.0
C1432 C 0.28463 0.89586 0.32561 0.0
C1433 C 0.26314 0.87321 0.33373 0.0
C1434 C 0.30921 0.89751 0.32183 0.0
C1435 C 0.31316 0.87653 0.32615 0.0
C1436 C 0.29156 0.85392 0.33457 0.0
C1437 C 0.26679 0.85214 0.3379 0.0
H1438 H 0.19604 0.52639 0.29652 0.0
H1439 H 0.11253 0.48839 0.31209 0.0
H1440 H 0.19849 0.48932 0.30999 0.0
H1441 H 0.11522 0.45141 0.3261 0.0
H1442 H 0.15277 0.40939 0.36925 0.0
H1443 H 0.14847 0.44656 0.35815 0.0
H1444 H 0.16913 0.43768 0.29532 0.0
H1445 H 0.17294 0.40048 0.30624 0.0
C1446 C 0.17832 0.51024 0.3031 0.0
C1447 C 0.1541 0.51019 0.30331 0.0
C1448 C 0.17972 0.48908 0.31073 0.0
C1449 C 0.15707 0.4677 0.31909 0.0
C1450 C 0.13296 0.46782 0.31982 0.0
C1451 C 0.1314 0.48882 0.31175 0.0
C1452 C 0.15642 0.41548 0.35313 0.0
C1453 C 0.16323 0.40219 0.3386 0.0
C1454 C 0.15376 0.43651 0.34677 0.0
C1455 C 0.15852 0.44484 0.32592 0.0
C1456 C 0.16539 0.43157 0.31147 0.0
C1457 C 0.16744 0.41028 0.31771 0.0
H1458 H 0.32474 0.51708 0.2961 0.0
H1459 H 0.37827 0.49826 0.32802 0.0
H1460 H 0.28794 0.47388 0.30296 0.0
H1461 H 0.3411 0.45452 0.3348 0.0
H1462 H 0.26675 0.37082 0.3235 0.0
H1463 H 0.30666 0.41284 0.3168 0.0
H1464 H 0.26353 0.45119 0.33505 0.0
H1465 H 0.22405 0.40966 0.34129 0.0
C1466 C 0.32868 0.50365 0.30454 0.0
C1467 C 0.3544 0.51128 0.31178 0.0
C1468 C 0.30754 0.47889 0.30852 0.0
C1469 C 0.31148 0.46092 0.31977 0.0
C1470 C 0.33744 0.46797 0.3261 0.0
C1471 C 0.35872 0.49296 0.32216 0.0
C1472 C 0.26602 0.38832 0.32626 0.0
C1473 C 0.2424 0.38692 0.33334 0.0
C1474 C 0.28884 0.41232 0.32251 0.0
C1475 C 0.28822 0.43534 0.32527 0.0
C1476 C 0.26461 0.43383 0.33253 0.0
C1477 C 0.24199 0.40996 0.33638 0.0
H1478 H 0.53096 0.87901 0.32976 0.0
H1479 H 0.50574 0.80575 0.29999 0.0
H1480 H 0.57541 0.88443 0.33492 0.0
H1481 H 0.5497 0.81109 0.30505 0.0
H1482 H 0.61714 0.81144 0.34033 0.0
H1483 H 0.57492 0.80971 0.33478 0.0
H1484 H 0.61646 0.89011 0.31685 0.0
H1485 H 0.6591 0.89187 0.32298 0.0
C1486 C 0.53502 0.86431 0.32399 0.0
C1487 C 0.51467 0.8418 0.3147 0.0
C1488 C 0.56045 0.86736 0.327 0.0
C1489 C 0.56603 0.84795 0.32076 0.0
C1490 C 0.54599 0.82611 0.31057 0.0
C1491 C 0.52076 0.8231 0.30757 0.0
C1492 C 0.61739 0.82888 0.3356 0.0
C1493 C 0.64152 0.85199 0.33269 0.0
C1494 C 0.59309 0.82783 0.33211 0.0
C1495 C 0.59219 0.84976 0.32528 0.0
C1496 C 0.61637 0.87293 0.32231 0.0
C1497 C 0.64077 0.87392 0.32572 0.0
H1498 H 0.1604 0.64724 0.32059 0.0
H1499 H 0.23655 0.70137 0.2935 0.0
H1500 H 0.15278 0.68307 0.32884 0.0
H1501 H 0.22925 0.73689 0.3026 0.0
H1502 H 0.2226 0.78678 0.35546 0.0
H1503 H 0.22349 0.74878 0.34352 0.0
H1504 H 0.15273 0.7259 0.30729 0.0
H1505 H 0.15186 0.76467 0.31902 0.0
C1506 C 0.17528 0.66662 0.31605 0.0
C1507 C 0.19932 0.67143 0.30669 0.0
C1508 C 0.17089 0.68707 0.32082 0.0
C1509 C 0.19055 0.71261 0.31649 0.0
C1510 C 0.21392 0.71732 0.30625 0.0
C1511 C 0.21815 0.69697 0.30123 0.0
C1512 C 0.20697 0.77367 0.34513 0.0
C1513 C 0.18713 0.77885 0.33819 0.0
C1514 C 0.20763 0.75195 0.33822 0.0
C1515 C 0.1883 0.73463 0.32443 0.0
C1516 C 0.16784 0.73909 0.31795 0.0
C1517 C 0.1674 0.76123 0.32463 0.0
H1518 H 0.87676 0.0251 0.35148 0.0
H1519 H 0.85259 0.02296 0.41535 0.0
H1520 H 0.83399 0.98724 0.34371 0.0
H1521 H 0.80973 0.98424 0.40784 0.0
H1522 H 0.72822 0.92041 0.38184 0.0
H1523 H 0.76678 0.9631 0.38897 0.0
H1524 H 0.81642 0.94281 0.35273 0.0
H1525 H 0.77856 0.90095 0.34564 0.0
C1526 C 0.86205 0.01662 0.36379 0.0
C1527 C 0.86797 0.02676 0.38402 0.0
C1528 C 0.83762 0.99481 0.35942 0.0
C1529 C 0.81859 0.98228 0.37526 0.0
C1530 C 0.82388 0.9934 0.39527 0.0
C1531 C 0.84838 0.01553 0.39959 0.0
C1532 C 0.74739 0.92521 0.37535 0.0
C1533 C 0.75011 0.90736 0.36284 0.0
C1534 C 0.76948 0.94962 0.37948 0.0
C1535 C 0.79467 0.95661 0.37113 0.0
C1536 C 0.79727 0.9385 0.35892 0.0
C1537 C 0.7754 0.91432 0.35486 0.0
H1538 H 0.99214 0.8051 0.37363 0.0
H1539 H 0.04321 0.87646 0.40557 0.0
H1540 H 0.03056 0.79917 0.36732 0.0
H1541 H 0.0812 0.87066 0.3993 0.0
H1542 H 0.14764 0.87126 0.36237 0.0
H1543 H 0.1073 0.87304 0.36843 0.0
H1544 H 0.06563 0.79215 0.38478 0.0
H1545 H 0.10639 0.79034 0.37817 0.0
C1546 C 1.01141 0.81925 0.37962 0.0
C1547 C 1.01464 0.84143 0.38986 0.0
C1548 C 0.03344 0.81592 0.37595 0.0
C1549 C 0.0591 0.83471 0.38243 0.0
C1550 C 0.06192 0.85614 0.39358 0.0
C1551 C 0.04006 0.85941 0.39727 0.0
C1552 C 0.12985 0.85371 0.3668 0.0
C1553 C 0.13011 0.8305 0.36924 0.0
C1554 C 0.10669 0.85479 0.37059 0.0
C1555 C 0.08316 0.83276 0.37722 0.0
C1556 C 0.0833 0.80942 0.37952 0.0
C1557 C 0.10664 0.8084 0.37583 0.0
H1558 H 0.19448 0.17711 0.41817 0.0
H1559 H 0.17704 0.15417 0.35388 0.0
H1560 H 0.20033 0.21962 0.40938 0.0
H1561 H 0.18379 0.19664 0.34484 0.0
H1562 H 0.15358 0.25327 0.34327 0.0
H1563 H 0.15663 0.21545 0.35138 0.0
H1564 H 0.22455 0.26111 0.39066 0.0
H1565 H 0.22134 0.29957 0.38253 0.0
C1566 C 0.19268 0.1815 0.40208 0.0
C1567 C 0.18507 0.16245 0.3867 0.0
C1568 C 0.19606 0.2058 0.39702 0.0
C1569 C 0.19203 0.21137 0.37646 0.0
C1570 C 0.18635 0.19278 0.36091 0.0
C1571 C 0.18268 0.16854 0.36601 0.0
C1572 C 0.16951 0.25554 0.35335 0.0
C1573 C 0.18749 0.27965 0.36196 0.0
C1574 C 0.17129 0.23372 0.358 0.0
C1575 C 0.19111 0.23524 0.37142 0.0
C1576 C 0.20904 0.25929 0.38026 0.0
C1577 C 0.20725 0.28131 0.37556 0.0
H1578 H 0.68262 0.50359 0.73618 0.0
H1579 H 0.63746 0.54163 0.7245 0.0
H1580 H 0.72302 0.54192 0.72484 0.0
H1581 H 0.67757 0.57972 0.71175 0.0
H1582 H 0.75846 0.6539 0.71515 0.0
H1583 H 0.71649 0.61488 0.72251 0.0
H1584 H 0.74921 0.56881 0.69887 0.0
H1585 H 0.79164 0.60782 0.69343 0.0
C1586 C 0.68132 0.52008 0.73071 0.0
C1587 C 0.65695 0.51968 0.73125 0.0
C1588 C 0.7045 0.54211 0.72402 0.0
C1589 C 0.70389 0.56425 0.71726 0.0
C1590 C 0.67917 0.56342 0.71722 0.0
C1591 C 0.65606 0.54153 0.72438 0.0
C1592 C 0.75648 0.63537 0.71136 0.0
C1593 C 0.77817 0.63401 0.70318 0.0
C1594 C 0.73228 0.61289 0.71541 0.0
C1595 C 0.72908 0.58835 0.71132 0.0
C1596 C 0.75078 0.58715 0.70265 0.0
C1597 C 0.77514 0.60965 0.69906 0.0
H1598 H 0.49051 0.10001 0.72086 0.0
H1599 H 0.53273 0.18173 0.73291 0.0
H1600 H 0.45191 0.10261 0.70925 0.0
H1601 H 0.49376 0.1844 0.72289 0.0
H1602 H 0.42485 0.18729 0.69476 0.0
H1603 H 0.46483 0.18445 0.69912 0.0
H1604 H 0.41679 0.10589 0.72123 0.0
H1605 H 0.37685 0.10836 0.7149 0.0
C1606 C 0.49146 0.11856 0.72093 0.0
C1607 C 0.51459 0.14068 0.72764 0.0
C1608 C 0.46921 0.1201 0.71454 0.0
C1609 C 0.4692 0.14369 0.7153 0.0
C1610 C 0.49279 0.16592 0.72163 0.0
C1611 C 0.51523 0.16445 0.72752 0.0
C1612 C 0.42281 0.16919 0.69987 0.0
C1613 C 0.39758 0.14774 0.70369 0.0
C1614 C 0.44589 0.16764 0.70284 0.0
C1615 C 0.44447 0.14488 0.71057 0.0
C1616 C 0.41905 0.12357 0.71471 0.0
C1617 C 0.39601 0.12501 0.71128 0.0
H1618 H 0.92861 0.39096 0.73033 0.0
H1619 H 0.84301 0.35442 0.72802 0.0
H1620 H 0.92621 0.35216 0.71574 0.0
H1621 H 0.84055 0.31566 0.71367 0.0
H1622 H 0.8443 0.25538 0.67445 0.0
H1623 H 0.84996 0.29715 0.68397 0.0
H1624 H 0.91206 0.30864 0.727 0.0
H1625 H 0.90717 0.26731 0.71685 0.0
C1626 C 0.9093 0.37467 0.72663 0.0
C1627 C 0.88601 0.37577 0.73034 0.0
C1628 C 0.9079 0.35242 0.71833 0.0
C1629 C 0.88318 0.33071 0.7136 0.0
C1630 C 0.85996 0.33212 0.7168 0.0
C1631 C 0.86136 0.35437 0.72504 0.0
C1632 C 0.85955 0.26699 0.68561 0.0
C1633 C 0.87539 0.25797 0.69475 0.0
C1634 C 0.86258 0.29087 0.69127 0.0
C1635 C 0.8814 0.30626 0.70632 0.0
C1636 C 0.89761 0.29748 0.71515 0.0
C1637 C 0.89465 0.27363 0.70944 0.0
H1638 H 0.16297 0.99151 0.6432 0.0
H1639 H 0.21616 0.96073 0.64012 0.0
H1640 H 0.19913 0.03239 0.65582 0.0
H1641 H 0.25239 1.00162 0.65299 0.0
H1642 H 0.31678 0.0875 0.65194 0.0
H1643 H 0.28063 0.04529 0.64174 0.0
H1644 H 0.22791 0.05377 0.68448 0.0
H1645 H 0.26375 0.0964 0.69402 0.0
C1646 C 0.18229 0.9933 0.64558 0.0
C1647 C 0.18661 0.97277 0.64064 0.0
C1648 C 0.20309 0.0168 0.65283 0.0
C1649 C 0.22881 0.02045 0.65543 0.0
C1650 C 0.233 0.99973 0.65086 0.0
C1651 C 0.2122 0.97623 0.64353 0.0
C1652 C 0.29752 0.08037 0.65924 0.0
C1653 C 0.29334 0.09541 0.67395 0.0
C1654 C 0.27677 0.056 0.65349 0.0
C1655 C 0.25124 0.04597 0.66228 0.0
C1656 C 0.24717 0.0609 0.67718 0.0
C1657 C 0.26789 0.08531 0.68288 0.0
H1658 H 0.0287 0.17381 0.63574 0.0
H1659 H 0.06977 0.25617 0.64457 0.0
H1660 H 0.98701 0.17101 0.64628 0.0
H1661 H 0.02862 0.25354 0.65667 0.0
H1662 H 0.9467 0.2459 0.65379 0.0
H1663 H 0.98915 0.24886 0.64626 0.0
H1664 H 0.95901 0.17169 0.67078 0.0
H1665 H 0.91594 0.16824 0.67636 0.0
C1666 C 0.0288 0.19128 0.64037 0.0
C1667 C 0.05239 0.21521 0.63925 0.0
C1668 C 1.00489 0.18973 0.64662 0.0
C1669 C 1.00398 0.21205 0.65237 0.0
C1670 C 0.02802 0.23591 0.65189 0.0
C1671 C 0.05178 0.2375 0.64513 0.0
C1672 C 0.94931 0.22968 0.65771 0.0
C1673 C 0.92813 0.20712 0.66624 0.0
C1674 C 0.97384 0.2314 0.65357 0.0
C1675 C 0.97805 0.2106 0.65794 0.0
C1676 C 0.95678 0.18808 0.66679 0.0
C1677 C 0.93204 0.18621 0.67048 0.0
H1678 H 0.86178 0.86251 0.6389 0.0
H1679 H 0.77604 0.81687 0.63792 0.0
H1680 H 0.86407 0.82613 0.6534 0.0
H1681 H 0.77835 0.78024 0.6525 0.0
H1682 H 0.79757 0.7136 0.65298 0.0
H1683 H 0.79242 0.7498 0.64193 0.0
H1684 H 0.85456 0.79979 0.68436 0.0
H1685 H 0.86035 0.76381 0.69494 0.0
C1686 C 0.84336 0.84483 0.64211 0.0
C1687 C 0.8187 0.84268 0.63733 0.0
C1688 C 0.84469 0.82392 0.65045 0.0
C1689 C 0.8214 0.80026 0.65422 0.0
C1690 C 0.79669 0.79811 0.64959 0.0
C1691 C 0.79536 0.81909 0.64123 0.0
C1692 C 0.81003 0.73225 0.6601 0.0
C1693 C 0.82939 0.73573 0.67488 0.0
C1694 C 0.80693 0.753 0.65384 0.0
C1695 C 0.82314 0.77775 0.66218 0.0
C1696 C 0.84197 0.78105 0.67742 0.0
C1697 C 0.84509 0.76032 0.68366 0.0
H1698 H 0.99298 0.85081 0.62977 0.0
H1699 H 0.04655 0.83242 0.66212 0.0
H1700 H 0.95621 0.80766 0.63686 0.0
H1701 H 1.00938 0.7887 0.66914 0.0
H1702 H 0.93447 0.70481 0.65825 0.0
H1703 H 0.97458 0.74663 0.65135 0.0
H1704 H 0.93201 0.78564 0.66931 0.0
H1705 H 0.89237 0.74435 0.6757 0.0
C1706 C 0.99694 0.83746 0.63833 0.0
C1707 C 0.02266 0.84522 0.64565 0.0
C1708 C 0.97581 0.81274 0.64245 0.0
C1709 C 0.97975 0.79491 0.65392 0.0
C1710 C 1.00572 0.80204 0.66029 0.0
C1711 C 0.027 0.82701 0.65621 0.0
C1712 C 0.93391 0.72241 0.66092 0.0
C1713 C 0.91038 0.72125 0.66797 0.0
C1714 C 0.95685 0.7463 0.65706 0.0
C1715 C 0.95644 0.76945 0.65966 0.0
C1716 C 0.93295 0.76818 0.66693 0.0
C1717 C 0.91021 0.74442 0.67088 0.0
H1718 H 0.17283 0.14365 0.63465 0.0
H1719 H 0.19807 0.21672 0.66473 0.0
H1720 H 0.21686 0.14903 0.63946 0.0
H1721 H 0.24254 0.22211 0.66981 0.0
H1722 H 0.32618 0.22966 0.65847 0.0
H1723 H 0.28364 0.22803 0.65221 0.0
H1724 H 0.24188 0.14719 0.66885 0.0
H1725 H 0.284 0.14878 0.67442 0.0
C1726 C 0.18791 0.16099 0.64221 0.0
C1727 C 0.18185 0.17963 0.6495 0.0
C1728 C 0.21314 0.16401 0.6451 0.0
C1729 C 0.23317 0.18576 0.65541 0.0
C1730 C 0.2276 0.20512 0.66179 0.0
C1731 C 0.20217 0.20209 0.65885 0.0
C1732 C 0.30782 0.21163 0.66088 0.0
C1733 C 0.30847 0.18952 0.66747 0.0
C1734 C 0.28348 0.21071 0.65739 0.0
C1735 C 0.25926 0.18747 0.65996 0.0
C1736 C 0.26007 0.16537 0.66645 0.0
C1737 C 0.28431 0.16634 0.66998 0.0
H1738 H 0.8244 0.98019 0.65468 0.0
H1739 H 0.90123 0.0339 0.6284 0.0
H1740 H 0.81717 0.01631 0.66283 0.0
H1741 H 0.8943 0.06968 0.63734 0.0
H1742 H 0.88821 0.1207 0.68895 0.0
H1743 H 0.88885 0.08243 0.67737 0.0
H1744 H 0.81728 0.05876 0.64201 0.0
H1745 H 0.81665 0.09774 0.6534 0.0
C1746 C 0.83951 0.99955 0.65029 0.0
C1747 C 0.86362 1.00416 0.64121 0.0
C1748 C 0.83536 0.02017 0.65502 0.0
C1749 C 0.85533 0.04567 0.65091 0.0
C1750 C 0.87875 0.05016 0.64088 0.0
C1751 C 0.88275 0.02966 0.63592 0.0
C1752 C 0.87236 0.10734 0.67889 0.0
C1753 C 0.85236 0.11236 0.67209 0.0
C1754 C 0.87287 0.08547 0.67218 0.0
C1755 C 0.85324 0.06784 0.65872 0.0
C1756 C 0.83262 0.07216 0.65241 0.0
C1757 C 0.83233 0.09443 0.65889 0.0
H1758 H 0.5478 0.32817 0.73907 0.0
H1759 H 0.52068 0.37765 0.71306 0.0
H1760 H 0.50469 0.29052 0.7319 0.0
H1761 H 0.47692 0.33959 0.70651 0.0
H1762 H 0.39556 0.25665 0.71691 0.0
H1763 H 0.43537 0.29713 0.72736 0.0
H1764 H 0.48478 0.27444 0.69373 0.0
H1765 H 0.44574 0.23474 0.68315 0.0
C1766 C 0.53257 0.33108 0.73199 0.0
C1767 C 0.53797 0.35595 0.72621 0.0
C1768 C 0.50783 0.30948 0.72801 0.0
C1769 C 0.48762 0.31216 0.71846 0.0
C1770 C 0.4922 0.33706 0.71395 0.0
C1771 C 0.51722 0.3588 0.71774 0.0
C1772 C 0.41493 0.26045 0.71167 0.0
C1773 C 0.41738 0.24242 0.69916 0.0
C1774 C 0.43763 0.28359 0.71759 0.0
C1775 C 0.46309 0.28874 0.71146 0.0
C1776 C 0.46541 0.27085 0.69882 0.0
C1777 C 0.44292 0.24812 0.69266 0.0
H1778 H 0.70857 0.21065 0.73774 0.0
H1779 H 0.65753 0.1383 0.70709 0.0
H1780 H 0.74659 0.20469 0.73212 0.0
H1781 H 0.69598 0.13224 0.70136 0.0
H1782 H 0.77223 0.12427 0.71248 0.0
H1783 H 0.73141 0.12596 0.7191 0.0
H1784 H 0.77235 0.20638 0.70125 0.0
H1785 H 0.81274 0.20473 0.6952 0.0
C1786 C 0.70544 0.19332 0.72992 0.0
C1787 C 0.68005 0.1751 0.72265 0.0
C1788 C 0.72731 0.18997 0.72658 0.0
C1789 C 0.7245 0.16825 0.7159 0.0
C1790 C 0.69884 0.14921 0.70963 0.0
C1791 C 0.6768 0.15261 0.71297 0.0
C1792 C 0.7723 0.1422 0.70983 0.0
C1793 C 0.79558 0.16419 0.70282 0.0
C1794 C 0.74894 0.14315 0.71354 0.0
C1795 C 0.74859 0.16633 0.7108 0.0
C1796 C 0.77193 0.18826 0.70376 0.0
C1797 C 0.79511 0.18725 0.69998 0.0
H1798 H 0.88295 0.50899 0.7161 0.0
H1799 H 0.80761 0.48988 0.74434 0.0
H1800 H 0.89035 0.55209 0.70737 0.0
H1801 H 0.81466 0.53231 0.73483 0.0
H1802 H 0.81951 0.58723 0.68109 0.0
H1803 H 0.81946 0.54871 0.69314 0.0
H1804 H 0.89036 0.59545 0.7289 0.0
H1805 H 0.89037 0.63463 0.71708 0.0
C1806 C 0.86825 0.51409 0.72082 0.0
C1807 C 0.84444 0.49577 0.73059 0.0
C1808 C 0.87248 0.5387 0.71576 0.0
C1809 C 0.8529 0.54524 0.72024 0.0
C1810 C 0.8299 0.52754 0.73103 0.0
C1811 C 0.82583 0.50321 0.73632 0.0
C1812 C 0.83535 0.58954 0.69131 0.0
C1813 C 0.85495 0.61411 0.69814 0.0
C1814 C 0.83519 0.56739 0.69828 0.0
C1815 C 0.85481 0.56921 0.712 0.0
C1816 C 0.87505 0.59368 0.71829 0.0
C1817 C 0.87499 0.61599 0.71156 0.0
H1818 H 0.45358 0.88074 0.23545 0.0
H1819 H 0.46643 0.94975 0.26674 0.0
H1820 H 0.46924 0.90468 0.2028 0.0
H1821 H 0.48364 0.97427 0.23455 0.0
H1822 H 0.48965 0.00832 0.17106 0.0
H1823 H 0.47189 0.98235 0.20251 0.0
H1824 H 0.50455 0.93458 0.18301 0.0
H1825 H 0.52072 0.95984 0.15091 0.0
C1826 C 0.46027 0.90121 0.23537 0.0
C1827 C 0.4588 0.91341 0.25359 0.0
C1828 C 0.46937 0.91503 0.21665 0.0
C1829 C 0.47767 0.94156 0.21576 0.0
C1830 C 0.4768 0.9538 0.23428 0.0
C1831 C 0.46721 0.93984 0.25286 0.0
C1832 C 0.49268 0.99204 0.17347 0.0
C1833 C 0.50646 0.986 0.1586 0.0
C1834 C 0.48281 0.97728 0.19164 0.0
C1835 C 0.48701 0.95641 0.19569 0.0
C1836 C 0.5005 0.95019 0.18049 0.0
C1837 C 0.50989 0.96469 0.16208 0.0
H1838 H 0.15149 0.56826 0.22846 0.0
H1839 H 0.08154 0.52039 0.26537 0.0
H1840 H 0.12362 0.56012 0.19759 0.0
H1841 H 0.05356 0.51273 0.23455 0.0
H1842 H 0.01739 0.53651 0.17842 0.0
H1843 H 0.04477 0.54404 0.20921 0.0
H1844 H 0.09069 0.51665 0.17638 0.0
H1845 H 0.06242 0.50749 0.14585 0.0
C1846 C 0.13012 0.5562 0.22996 0.0
C1847 C 0.11857 0.54501 0.24923 0.0
C1848 C 0.11426 0.55143 0.21233 0.0
C1849 C 0.08652 0.53583 0.21377 0.0
C1850 C 0.07492 0.52492 0.23311 0.0
C1851 C 0.09085 0.52922 0.25066 0.0
C1852 C 0.03296 0.53158 0.17775 0.0
C1853 C 0.03745 0.52119 0.15951 0.0
C1854 C 0.04873 0.53609 0.1954 0.0
C1855 C 0.06975 0.53089 0.1951 0.0
C1856 C 0.07468 0.52098 0.17689 0.0
C1857 C 0.05856 0.51594 0.15936 0.0
H1858 H 0.52009 0.56783 0.26601 0.0
H1859 H 0.456 0.56931 0.23331 0.0
H1860 H 0.53375 0.55601 0.23391 0.0
H1861 H 0.46996 0.55793 0.20091 0.0
H1862 H 0.4926 0.51755 0.14953 0.0
H1863 H 0.47493 0.52555 0.18161 0.0
H1864 H 0.55505 0.57768 0.20228 0.0
H1865 H 0.5725 0.56943 0.17058 0.0
C1866 C 0.50885 0.5655 0.25193 0.0
C1867 C 0.4871 0.56968 0.25215 0.0
C1868 C 0.51676 0.55888 0.23348 0.0
C1869 C 0.50328 0.55647 0.21468 0.0
C1870 C 0.48075 0.55951 0.21509 0.0
C1871 C 0.47271 0.566 0.23365 0.0
C1872 C 0.50636 0.53087 0.1609 0.0
C1873 C 0.53396 0.54262 0.15763 0.0
C1874 C 0.49625 0.53544 0.17928 0.0
C1875 C 0.51356 0.55195 0.19473 0.0
C1876 C 0.54111 0.56427 0.19106 0.0
C1877 C 0.55115 0.55963 0.17281 0.0
H1878 H 0.93121 0.4776 0.78583 0.0
H1879 H 0.90675 0.39823 0.80037 0.0
H1880 H 0.95824 0.4914 0.81757 0.0
H1881 H 0.9339 0.412 0.83162 0.0
H1882 H 1.01202 0.44873 0.86778 0.0
H1883 H 0.98298 0.43649 0.83753 0.0
H1884 H 0.95461 0.48745 0.8574 0.0
H1885 H 0.98409 0.50001 0.88775 0.0
C1886 C 0.93141 0.46312 0.79586 0.0
C1887 C 0.91726 0.43687 0.79035 0.0
C1888 C 0.94686 0.47101 0.814 0.0
C1889 C 0.94846 0.45279 0.82688 0.0
C1890 C 0.93352 0.42653 0.82175 0.0
C1891 C 0.91804 0.41867 0.80379 0.0
C1892 C 0.99972 0.45746 0.86564 0.0
C1893 C 1.00036 0.47536 0.8801 0.0
C1894 C 0.98292 0.45028 0.84842 0.0
C1895 C 0.96645 0.46094 0.84516 0.0
C1896 C 0.96719 0.47903 0.85949 0.0
C1897 C 0.98387 0.48604 0.87691 0.0
H1898 H 0.59465 0.45682 0.80476 0.0
H1899 H 0.57334 0.50604 0.77065 0.0
H1900 H 0.57485 0.46305 0.83647 0.0
H1901 H 0.55293 0.51174 0.80225 0.0
H1902 H 0.49193 0.48494 0.85812 0.0
H1903 H 0.51193 0.47873 0.82688 0.0
H1904 H 0.58581 0.50524 0.8596 0.0
H1905 H 0.56657 0.51313 0.89065 0.0
C1906 C 0.5855 0.46877 0.80405 0.0
C1907 C 0.58538 0.48089 0.78531 0.0
C1908 C 0.57436 0.47244 0.82217 0.0
C1909 C 0.5624 0.48785 0.82174 0.0
C1910 C 0.56195 0.49969 0.80293 0.0
C1911 C 0.57363 0.49649 0.78492 0.0
C1912 C 0.51259 0.48994 0.8587 0.0
C1913 C 0.52761 0.49984 0.87705 0.0
C1914 C 0.52393 0.48617 0.84078 0.0
C1915 C 0.55037 0.49158 0.84086 0.0
C1916 C 0.56529 0.50078 0.85922 0.0
C1917 C 0.55414 0.50511 0.87705 0.0
H1918 H 0.57511 0.09557 0.78138 0.0
H1919 H 0.52307 0.12528 0.7971 0.0
H1920 H 0.56379 0.07188 0.81457 0.0
H1921 H 0.51158 0.10147 0.82978 0.0
H1922 H 0.46908 0.02665 0.86829 0.0
H1923 H 0.4854 0.05426 0.83757 0.0
H1924 H 0.56615 0.07737 0.85462 0.0
H1925 H 0.54961 0.04941 0.88562 0.0
C1926 C 0.56152 0.09727 0.79197 0.0
C1927 C 0.54954 0.11186 0.78634 0.0
C1928 C 0.55507 0.08374 0.81096 0.0
C1929 C 0.53649 0.08451 0.82464 0.0
C1930 C 0.52552 0.10003 0.81939 0.0
C1931 C 0.53203 0.11359 0.80058 0.0
C1932 C 0.49032 0.03765 0.86553 0.0
C1933 C 0.50806 0.03582 0.87932 0.0
C1934 C 0.4997 0.0536 0.848 0.0
C1935 C 0.52708 0.06804 0.84367 0.0
C1936 C 0.54494 0.06636 0.8575 0.0
C1937 C 0.53552 0.05057 0.87529 0.0
H1938 H 0.08649 0.22847 0.56825 0.0
H1939 H 0.16419 0.2674 0.59636 0.0
H1940 H 0.10532 0.25103 0.53553 0.0
H1941 H 0.18309 0.29121 0.56407 0.0
H1942 H 0.21528 0.31509 0.49895 0.0
H1943 H 0.19563 0.28951 0.53031 0.0
H1944 H 0.12253 0.28975 0.51782 0.0
H1945 H 0.14201 0.3141 0.4858 0.0
C1946 C 0.10762 0.24216 0.56745 0.0
C1947 C 0.12388 0.24623 0.58485 0.0
C1948 C 0.11847 0.25526 0.54869 0.0
C1949 C 0.14586 0.27317 0.54692 0.0
C1950 C 0.16205 0.27726 0.5645 0.0
C1951 C 0.15124 0.26376 0.58313 0.0
C1952 C 0.19493 0.30944 0.5029 0.0
C1953 C 0.18016 0.31656 0.48997 0.0
C1954 C 0.18367 0.29496 0.52101 0.0
C1955 C 0.15744 0.28762 0.52696 0.0
C1956 C 0.1426 0.29456 0.51376 0.0
C1957 C 0.15375 0.30864 0.4954 0.0
H1958 H 0.81783 0.90193 0.56176 0.0
H1959 H 0.74762 0.85299 0.59789 0.0
H1960 H 0.79071 0.89351 0.53068 0.0
H1961 H 0.72001 0.84568 0.56723 0.0
H1962 H 0.679 0.81657 0.50529 0.0
H1963 H 0.70688 0.8244 0.53582 0.0
H1964 H 0.76093 0.90158 0.51325 0.0
H1965 H 0.73369 0.89283 0.48215 0.0
C1966 C 0.79646 0.88968 0.56304 0.0
C1967 C 0.78474 0.8781 0.58214 0.0
C1968 C 0.78082 0.88493 0.54526 0.0
C1969 C 0.75299 0.86888 0.54626 0.0
C1970 C 0.74135 0.85767 0.5656 0.0
C1971 C 0.75708 0.862 0.58326 0.0
C1972 C 0.69695 0.83513 0.50692 0.0
C1973 C 0.7043 0.85409 0.49143 0.0
C1974 C 0.71286 0.83977 0.5245 0.0
C1975 C 0.73625 0.86374 0.52725 0.0
C1976 C 0.74344 0.88272 0.51163 0.0
C1977 C 0.72778 0.87782 0.49383 0.0
H1978 H 0.12341 0.90364 0.5668 0.0
H1979 H 0.1887 0.90393 0.59904 0.0
H1980 H 0.13717 0.89209 0.53439 0.0
H1981 H 0.20215 0.89191 0.56694 0.0
H1982 H 0.23977 0.90396 0.50338 0.0
H1983 H 0.22269 0.91283 0.53499 0.0
H1984 H 0.14235 0.85981 0.51528 0.0
H1985 H 0.15967 0.85124 0.48326 0.0
C1986 C 0.14037 0.9007 0.56704 0.0
C1987 C 0.15512 0.9049 0.58542 0.0
C1988 C 0.14829 0.8941 0.54847 0.0
C1989 C 0.17107 0.89148 0.54792 0.0
C1990 C 0.18496 0.89446 0.5666 0.0
C1991 C 0.17717 0.90119 0.58506 0.0
C1992 C 0.21846 0.89413 0.50579 0.0
C1993 C 0.2011 0.87669 0.4909 0.0
C1994 C 0.20862 0.89912 0.524 0.0
C1995 C 0.18112 0.8867 0.52794 0.0
C1996 C 0.16364 0.86979 0.51275 0.0
C1997 C 0.17354 0.86488 0.4944 0.0
H1998 H 0.56409 0.77955 0.14141 0.0
H1999 H 0.62833 0.78321 0.10476 0.0
H2000 H 0.5926 0.79355 0.1721 0.0
H2001 H 0.657 0.79753 0.13534 0.0
H2002 H 0.68482 0.78435 0.1984 0.0
H2003 H 0.65869 0.77654 0.16696 0.0
H2004 H 0.6318 0.82786 0.18913 0.0
H2005 H 0.65805 0.83562 0.22083 0.0
C2006 C 0.58453 0.78399 0.1398 0.0
C2007 C 0.59394 0.7801 0.12072 0.0
C2008 C 0.60086 0.79198 0.15739 0.0
C2009 C 0.62698 0.79632 0.15626 0.0
C2010 C 0.63679 0.79378 0.13687 0.0
C2011 C 0.62044 0.78569 0.11933 0.0
C2012 C 0.6736 0.79423 0.19649 0.0
C2013 C 0.67364 0.81072 0.21208 0.0
C2014 C 0.65865 0.7898 0.17841 0.0
C2015 C 0.64334 0.80178 0.17539 0.0
C2016 C 0.64323 0.8182 0.19103 0.0
C2017 C 0.65822 0.82261 0.20919 0.0
H2018 H 0.26094 0.78663 0.13814 0.0
H2019 H 0.2379 0.83469 0.10427 0.0
H2020 H 0.24084 0.79224 0.16996 0.0
H2021 H 0.21721 0.83977 0.13596 0.0
H2022 H 0.15729 0.8134 0.19219 0.0
H2023 H 0.1769 0.80676 0.16092 0.0
H2024 H 0.25137 0.8343 0.193 0.0
H2025 H 0.23249 0.84259 0.22407 0.0
C2026 C 0.2513 0.79814 0.1375 0.0
C2027 C 0.25083 0.81017 0.11882 0.0
C2028 C 0.24 0.80147 0.15568 0.0
C2029 C 0.22752 0.81642 0.15535 0.0
C2030 C 0.22662 0.82806 0.13656 0.0
C2031 C 0.23845 0.82521 0.1185 0.0
C2032 C 0.17798 0.81851 0.19263 0.0
C2033 C 0.19329 0.82887 0.21079 0.0
C2034 C 0.18911 0.81448 0.17469 0.0
C2035 C 0.21561 0.82009 0.17457 0.0
C2036 C 0.23079 0.82967 0.19277 0.0
C2037 C 0.21985 0.83424 0.21062 0.0
H2038 H 0.18216 0.40193 0.10197 0.0
H2039 H 0.24674 0.46662 0.13323 0.0
H2040 H 0.16998 0.37737 0.13437 0.0
H2041 H 0.23426 0.4422 0.16594 0.0
H2042 H 0.21436 0.38042 0.21777 0.0
H2043 H 0.23063 0.40566 0.18551 0.0
H2044 H 0.14956 0.37827 0.16641 0.0
H2045 H 0.13354 0.35299 0.19824 0.0
C2046 C 0.19383 0.41085 0.11579 0.0
C2047 C 0.21529 0.43626 0.11506 0.0
C2048 C 0.18676 0.39685 0.13443 0.0
C2049 C 0.20081 0.40794 0.15294 0.0
C2050 C 0.22305 0.43299 0.15201 0.0
C2051 C 0.23024 0.44698 0.13326 0.0
C2052 C 0.2001 0.38006 0.20672 0.0
C2053 C 0.17266 0.36446 0.21043 0.0
C2054 C 0.2094 0.39448 0.18823 0.0
C2055 C 0.19142 0.39366 0.17312 0.0
C2056 C 0.16402 0.3788 0.17733 0.0
C2057 C 0.15479 0.36438 0.19566 0.0
H2058 H 0.8327 0.60218 0.93125 0.0
H2059 H 0.75543 0.56366 0.90242 0.0
H2060 H 0.85206 0.62652 0.89923 0.0
H2061 H 0.77472 0.58673 0.86998 0.0
H2062 H 0.81191 0.65001 0.82065 0.0
H2063 H 0.79215 0.62564 0.8526 0.0
H2064 H 0.86506 0.62523 0.86551 0.0
H2065 H 0.885 0.65083 0.83421 0.0
C2066 C 0.81994 0.59876 0.91793 0.0
C2067 C 0.79257 0.58119 0.91936 0.0
C2068 C 0.83101 0.61256 0.89945 0.0
C2069 C 0.81508 0.60872 0.88176 0.0
C2070 C 0.78767 0.59079 0.88325 0.0
C2071 C 0.77656 0.57739 0.90185 0.0
C2072 C 0.82356 0.64454 0.83033 0.0
C2073 C 0.84999 0.65239 0.82502 0.0
C2074 C 0.81224 0.63043 0.84865 0.0
C2075 C 0.82693 0.62339 0.86193 0.0
C2076 C 0.85321 0.63074 0.85614 0.0
C2077 C 0.86464 0.64525 0.83806 0.0
H2078 H 0.41149 0.18696 0.93262 0.0
H2079 H 0.48245 0.23561 0.89718 0.0
H2080 H 0.38443 0.18036 0.90176 0.0
H2081 H 0.45584 0.2279 0.86586 0.0
H2082 H 0.39947 0.22727 0.81656 0.0
H2083 H 0.42633 0.23606 0.84791 0.0
H2084 H 0.37196 0.15891 0.87037 0.0
H2085 H 0.3445 0.15103 0.8396 0.0
C2086 C 0.42123 0.19611 0.91811 0.0
C2087 C 0.44895 0.21184 0.91722 0.0
C2088 C 0.40581 0.19217 0.90033 0.0
C2089 C 0.41783 0.20339 0.88109 0.0
C2090 C 0.44569 0.21927 0.88036 0.0
C2091 C 0.46103 0.22363 0.89827 0.0
C2092 C 0.39342 0.21228 0.82827 0.0
C2093 C 0.36995 0.18854 0.82578 0.0
C2094 C 0.40884 0.21721 0.84622 0.0
C2095 C 0.40141 0.19826 0.86189 0.0
C2096 C 0.37809 0.17428 0.85903 0.0
C2097 C 0.36242 0.1696 0.8413 0.0
H2098 H 0.85213 0.23308 0.93281 0.0
H2099 H 0.78806 0.23478 0.90029 0.0
H2100 H 0.86552 0.22101 0.90068 0.0
H2101 H 0.80175 0.22315 0.86785 0.0
H2102 H 0.825 0.18343 0.8161 0.0
H2103 H 0.807 0.19084 0.84829 0.0
H2104 H 0.88687 0.24346 0.86918 0.0
H2105 H 0.90464 0.23588 0.83737 0.0
C2106 C 0.84079 0.23066 0.91877 0.0
C2107 C 0.81919 0.23506 0.91902 0.0
C2108 C 0.84855 0.22392 0.90031 0.0
C2109 C 0.83506 0.22161 0.88154 0.0
C2110 C 0.81255 0.22469 0.88201 0.0
C2111 C 0.80467 0.23131 0.90059 0.0
C2112 C 0.83863 0.19673 0.82754 0.0
C2113 C 0.86626 0.20882 0.8243 0.0
C2114 C 0.82834 0.20095 0.84598 0.0
C2115 C 0.84548 0.21741 0.86153 0.0
C2116 C 0.87306 0.23007 0.85788 0.0
C2117 C 0.88328 0.22581 0.83957 0.0
H2118 H 0.26599 0.1458 0.45148 0.0
H2119 H 0.23839 0.06704 0.47044 0.0
H2120 H 0.29364 0.16116 0.48292 0.0
H2121 H 0.26619 0.08233 0.5013 0.0
H2122 H 0.34647 0.11915 0.53452 0.0
H2123 H 0.31674 0.1065 0.50466 0.0
H2124 H 0.29009 0.15899 0.52394 0.0
H2125 H 0.32011 0.17182 0.55403 0.0
C2126 C 0.26559 0.13182 0.46244 0.0
C2127 C 0.25048 0.10523 0.45826 0.0
C2128 C 0.28139 0.14059 0.48037 0.0
C2129 C 0.28235 0.1229 0.4943 0.0
C2130 C 0.26625 0.09638 0.49059 0.0
C2131 C 0.25041 0.08766 0.47287 0.0
C2132 C 0.33443 0.12815 0.53232 0.0
C2133 C 0.33559 0.14646 0.54657 0.0
C2134 C 0.31728 0.12078 0.51533 0.0
C2135 C 0.30105 0.13169 0.51208 0.0
C2136 C 0.30248 0.15037 0.52609 0.0
C2137 C 0.31946 0.15753 0.54332 0.0
H2138 H 0.955 0.1819 0.46292 0.0
H2139 H 0.87898 0.11628 0.44638 0.0
H2140 H 0.93523 0.18798 0.49432 0.0
H2141 H 0.85988 0.12166 0.47865 0.0
H2142 H 0.85073 0.12694 0.55197 0.0
H2143 H 0.87043 0.12052 0.52018 0.0
H2144 H 0.8954 0.19852 0.50084 0.0
H2145 H 0.87509 0.20465 0.53227 0.0
C2146 C 0.93406 0.16887 0.46576 0.0
C2147 C 0.91862 0.1487 0.45179 0.0
C2148 C 0.92285 0.17227 0.48392 0.0
C2149 C 0.89611 0.15526 0.48887 0.0
C2150 C 0.88065 0.13489 0.47523 0.0
C2151 C 0.89169 0.1318 0.45679 0.0
C2152 C 0.86055 0.14267 0.54092 0.0
C2153 C 0.86148 0.16627 0.54447 0.0
C2154 C 0.87162 0.13897 0.52275 0.0
C2155 C 0.88434 0.15903 0.50812 0.0
C2156 C 0.88575 0.1828 0.51192 0.0
C2157 C 0.87415 0.18629 0.52982 0.0
H2158 H 0.84953 0.73544 0.43714 0.0
H2159 H 0.9143 0.80002 0.46835 0.0
H2160 H 0.83707 0.71103 0.46962 0.0
H2161 H 0.90156 0.77574 0.50113 0.0
H2162 H 0.8809 0.71414 0.55327 0.0
H2163 H 0.89748 0.73913 0.52092 0.0
H2164 H 0.81662 0.71231 0.50155 0.0
H2165 H 0.80028 0.68729 0.53348 0.0
C2166 C 0.86118 0.74437 0.45096 0.0
C2167 C 0.88278 0.76971 0.45019 0.0
C2168 C 0.85395 0.73045 0.46965 0.0
C2169 C 0.86797 0.74155 0.48816 0.0
C2170 C 0.89036 0.76652 0.4872 0.0
C2171 C 0.8977 0.78043 0.4684 0.0
C2172 C 0.86676 0.71384 0.54214 0.0
C2173 C 0.83928 0.69847 0.54582 0.0
C2174 C 0.87623 0.72812 0.5236 0.0
C2175 C 0.8584 0.7274 0.50839 0.0
C2176 C 0.83097 0.71276 0.51255 0.0
C2177 C 0.82156 0.69849 0.53094 0.0
loop_
_geom_bond_atom_site_label_1
_geom_bond_atom_site_label_2
_geom_bond_distance
_geom_bond_site_symmetry_2
_ccdc_geom_bond_type
H0 C1 0.949 . S
C1 H0 0.949 . S
C1 C2 1.395 . S
C1 C3 1.391 . S
C2 C1 1.395 . S
C2 C5 1.390 . S
C3 C1 1.391 . S
C3 C7 1.387 . S
C3 C8 1.491 . S
H4 C5 0.950 . S
C5 C2 1.390 . S
C5 H4 0.950 . S
C5 C6 1.378 . S
C6 C5 1.378 . S
C6 C7 1.409 . S
C7 C3 1.387 . S
C7 C6 1.409 . S
C7 H9 0.951 . S
C8 C3 1.491 . S
C8 C10 1.382 . S
C8 C12 1.404 . S
H9 C7 0.951 . S
C10 C8 1.382 . S
C10 C11 1.390 . S
C10 H15 0.949 . S
C11 C10 1.390 . S
C11 C16 1.399 . S
C12 C8 1.404 . S
C12 H13 0.950 . S
C12 C14 1.375 . S
H13 C12 0.950 . S
C14 C12 1.375 . S
C14 C16 1.382 . S
C14 H18 0.950 . S
H15 C10 0.949 . S
C16 C11 1.399 . S
C16 C14 1.382 . S
C16 H17 0.952 . S
H17 C16 0.952 . S
H18 C14 0.950 . S
H19 C20 0.949 . S
C20 H19 0.949 . S
C20 C21 1.395 . S
C20 C22 1.391 . S
C21 C20 1.395 . S
C21 C24 1.390 . S
C22 C20 1.391 . S
C22 C26 1.387 . S
C22 C27 1.491 . S
H23 C24 0.950 . S
C24 C21 1.390 . S
C24 H23 0.950 . S
C24 C25 1.378 . S
C25 C24 1.378 . S
C25 C26 1.409 . S
C26 C22 1.387 . S
C26 C25 1.409 . S
C26 H28 0.951 . S
C27 C22 1.491 . S
C27 C29 1.382 . S
C27 C31 1.404 . S
H28 C26 0.951 . S
C29 C27 1.382 . S
C29 C30 1.390 . S
C29 H34 0.949 . S
C30 C29 1.390 . S
C30 C35 1.399 . S
C31 C27 1.404 . S
C31 H32 0.950 . S
C31 C33 1.375 . S
H32 C31 0.950 . S
C33 C31 1.375 . S
C33 C35 1.382 . S
C33 H37 0.950 . S
H34 C29 0.949 . S
C35 C30 1.399 . S
C35 C33 1.382 . S
C35 H36 0.952 1_545 S
H36 C35 0.952 1_565 S
H37 C33 0.950 . S
H38 C39 0.949 . S
C39 H38 0.949 . S
C39 C40 1.395 . S
C39 C41 1.391 . S
C40 C39 1.395 . S
C40 C43 1.390 . S
C41 C39 1.391 . S
C41 C45 1.387 . S
C41 C46 1.491 . S
H42 C43 0.950 . S
C43 C40 1.390 . S
C43 H42 0.950 . S
C43 C44 1.378 . S
C44 C43 1.378 . S
C44 C45 1.409 . S
C45 C41 1.387 . S
C45 C44 1.409 . S
C45 H47 0.951 . S
C46 C41 1.491 . S
C46 C48 1.382 . S
C46 C50 1.404 . S
H47 C45 0.951 . S
C48 C46 1.382 . S
C48 C49 1.390 . S
C48 H53 0.949 . S
C49 C48 1.390 . S
C49 C54 1.399 1_655 S
C50 C46 1.404 . S
C50 H51 0.950 . S
C50 C52 1.375 . S
H51 C50 0.950 . S
C52 C50 1.375 . S
C52 C54 1.382 1_655 S
C52 H56 0.950 . S
H53 C48 0.949 . S
C54 C49 1.399 1_455 S
C54 C52 1.382 1_455 S
C54 H55 0.952 . S
H55 C54 0.952 . S
H56 C52 0.950 . S
H57 C58 0.949 . S
C58 H57 0.949 . S
C58 C59 1.395 . S
C58 C60 1.391 . S
C59 C58 1.395 . S
C59 C62 1.390 . S
C60 C58 1.391 . S
C60 C64 1.387 . S
C60 C65 1.491 . S
H61 C62 0.950 . S
C62 C59 1.390 . S
C62 H61 0.950 . S
C62 C63 1.378 . S
C63 C62 1.378 . S
C63 C64 1.409 . S
C64 C60 1.387 . S
C64 C63 1.409 . S
C64 H66 0.951 . S
C65 C60 1.491 . S
C65 C67 1.382 . S
C65 C69 1.404 . S
H66 C64 0.951 . S
C67 C65 1.382 . S
C67 C68 1.390 . S
C67 H72 0.949 . S
C68 C67 1.390 . S
C68 C73 1.399 . S
C69 C65 1.404 . S
C69 H70 0.950 . S
C69 C71 1.375 . S
H70 C69 0.950 . S
C71 C69 1.375 . S
C71 C73 1.382 . S
C71 H75 0.950 . S
H72 C67 0.949 . S
C73 C68 1.399 . S
C73 C71 1.382 . S
C73 H74 0.952 . S
H74 C73 0.952 . S
H75 C71 0.950 . S
H76 C77 0.949 . S
C77 H76 0.949 . S
C77 C78 1.395 . S
C77 C79 1.391 . S
C78 C77 1.395 . S
C78 C81 1.390 . S
C79 C77 1.391 . S
C79 C83 1.387 . S
C79 C84 1.491 . S
H80 C81 0.950 . S
C81 C78 1.390 . S
C81 H80 0.950 . S
C81 C82 1.378 . S
C82 C81 1.378 . S
C82 C83 1.409 . S
C83 C79 1.387 . S
C83 C82 1.409 . S
C83 H85 0.951 . S
C84 C79 1.491 . S
C84 C86 1.382 . S
C84 C88 1.404 . S
H85 C83 0.951 . S
C86 C84 1.382 . S
C86 C87 1.390 . S
C86 H91 0.949 . S
C87 C86 1.390 . S
C87 C92 1.399 . S
C88 C84 1.404 . S
C88 H89 0.950 . S
C88 C90 1.375 . S
H89 C88 0.950 . S
C90 C88 1.375 . S
C90 C92 1.382 . S
C90 H94 0.950 . S
H91 C86 0.949 . S
C92 C87 1.399 . S
C92 C90 1.382 . S
C92 H93 0.952 1_565 S
H93 C92 0.952 1_545 S
H94 C90 0.950 . S
H95 C96 0.949 . S
C96 H95 0.949 . S
C96 C97 1.395 . S
C96 C98 1.391 . S
C97 C96 1.395 . S
C97 C100 1.390 . S
C98 C96 1.391 . S
C98 C102 1.387 . S
C98 C103 1.491 . S
H99 C100 0.950 . S
C100 C97 1.390 . S
C100 H99 0.950 . S
C100 C101 1.378 . S
C101 C100 1.378 . S
C101 C102 1.409 . S
C102 C98 1.387 . S
C102 C101 1.409 . S
C102 H104 0.951 . S
C103 C98 1.491 . S
C103 C105 1.382 . S
C103 C107 1.404 . S
H104 C102 0.951 . S
C105 C103 1.382 . S
C105 C106 1.390 . S
C105 H110 0.949 . S
C106 C105 1.390 . S
C106 C111 1.399 . S
C107 C103 1.404 . S
C107 H108 0.950 . S
C107 C109 1.375 . S
H108 C107 0.950 . S
C109 C107 1.375 . S
C109 C111 1.382 . S
C109 H113 0.950 . S
H110 C105 0.949 . S
C111 C106 1.399 . S
C111 C109 1.382 . S
C111 H112 0.952 1_455 S
H112 C111 0.952 1_655 S
H113 C109 0.950 . S
H114 C115 0.949 . S
C115 H114 0.949 . S
C115 C116 1.395 . S
C115 C117 1.391 . S
C116 C115 1.395 . S
C116 C119 1.390 . S
C117 C115 1.391 . S
C117 C121 1.387 . S
C117 C122 1.491 . S
H118 C119 0.950 . S
C119 C116 1.390 . S
C119 H118 0.950 . S
C119 C120 1.378 . S
C120 C119 1.378 . S
C120 C121 1.409 . S
C121 C117 1.387 . S
C121 C120 1.409 . S
C121 H123 0.951 . S
C122 C117 1.491 . S
C122 C124 1.382 . S
C122 C126 1.404 . S
H123 C121 0.951 . S
C124 C122 1.382 . S
C124 C125 1.390 . S
C124 H129 0.949 . S
C125 C124 1.390 . S
C125 C130 1.399 . S
C126 C122 1.404 . S
C126 H127 0.950 . S
C126 C128 1.375 . S
H127 C126 0.950 . S
C128 C126 1.375 . S
C128 C130 1.382 . S
C128 H132 0.950 . S
H129 C124 0.949 . S
C130 C125 1.399 . S
C130 C128 1.382 . S
C130 H131 0.952 . S
H131 C130 0.952 . S
H132 C128 0.950 . S
H133 C134 0.949 . S
C134 H133 0.949 . S
C134 C135 1.395 . S
C134 C136 1.391 . S
C135 C134 1.395 . S
C135 C138 1.390 . S
C136 C134 1.391 . S
C136 C140 1.387 . S
C136 C141 1.491 . S
H137 C138 0.950 . S
C138 C135 1.390 . S
C138 H137 0.950 . S
C138 C139 1.378 . S
C139 C138 1.378 . S
C139 C140 1.409 . S
C140 C136 1.387 . S
C140 C139 1.409 . S
C140 H142 0.951 . S
C141 C136 1.491 . S
C141 C143 1.382 . S
C141 C145 1.404 . S
H142 C140 0.951 . S
C143 C141 1.382 . S
C143 C144 1.390 . S
C143 H148 0.949 . S
C144 C143 1.390 . S
C144 C149 1.399 . S
C145 C141 1.404 . S
C145 H146 0.950 . S
C145 C147 1.375 . S
H146 C145 0.950 . S
C147 C145 1.375 . S
C147 C149 1.382 . S
C147 H151 0.950 . S
H148 C143 0.949 . S
C149 C144 1.399 . S
C149 C147 1.382 . S
C149 H150 0.952 . S
H150 C149 0.952 . S
H151 C147 0.950 . S
H152 C153 0.949 . S
C153 H152 0.949 . S
C153 C154 1.395 . S
C153 C155 1.391 . S
C154 C153 1.395 . S
C154 C157 1.390 . S
C155 C153 1.391 . S
C155 C159 1.387 . S
C155 C160 1.491 . S
H156 C157 0.950 . S
C157 C154 1.390 . S
C157 H156 0.950 . S
C157 C158 1.378 . S
C158 C157 1.378 . S
C158 C159 1.409 . S
C159 C155 1.387 . S
C159 C158 1.409 . S
C159 H161 0.951 . S
C160 C155 1.491 . S
C160 C162 1.382 . S
C160 C164 1.404 . S
H161 C159 0.951 . S
C162 C160 1.382 . S
C162 C163 1.390 . S
C162 H167 0.949 . S
C163 C162 1.390 . S
C163 C168 1.399 . S
C164 C160 1.404 . S
C164 H165 0.950 . S
C164 C166 1.375 . S
H165 C164 0.950 . S
C166 C164 1.375 . S
C166 C168 1.382 . S
C166 H170 0.950 . S
H167 C162 0.949 . S
C168 C163 1.399 . S
C168 C166 1.382 . S
C168 H169 0.952 . S
H169 C168 0.952 . S
H170 C166 0.950 . S
H171 C172 0.949 . S
C172 H171 0.949 . S
C172 C173 1.395 . S
C172 C174 1.391 . S
C173 C172 1.395 . S
C173 C176 1.390 . S
C174 C172 1.391 . S
C174 C178 1.387 . S
C174 C179 1.491 . S
H175 C176 0.950 . S
C176 C173 1.390 . S
C176 H175 0.950 . S
C176 C177 1.378 . S
C177 C176 1.378 . S
C177 C178 1.409 . S
C178 C174 1.387 . S
C178 C177 1.409 . S
C178 H180 0.951 . S
C179 C174 1.491 . S
C179 C181 1.382 . S
C179 C183 1.404 . S
H180 C178 0.951 . S
C181 C179 1.382 . S
C181 C182 1.390 . S
C181 H186 0.949 . S
C182 C181 1.390 . S
C182 C187 1.399 . S
C183 C179 1.404 . S
C183 H184 0.950 . S
C183 C185 1.375 . S
H184 C183 0.950 . S
C185 C183 1.375 . S
C185 C187 1.382 . S
C185 H189 0.950 . S
H186 C181 0.949 . S
C187 C182 1.399 . S
C187 C185 1.382 . S
C187 H188 0.952 . S
H188 C187 0.952 . S
H189 C185 0.950 . S
H190 C191 0.949 . S
C191 H190 0.949 . S
C191 C192 1.395 . S
C191 C193 1.391 . S
C192 C191 1.395 . S
C192 C195 1.390 . S
C193 C191 1.391 . S
C193 C197 1.387 . S
C193 C198 1.491 . S
H194 C195 0.950 . S
C195 C192 1.390 . S
C195 H194 0.950 . S
C195 C196 1.378 . S
C196 C195 1.378 . S
C196 C197 1.409 . S
C197 C193 1.387 . S
C197 C196 1.409 . S
C197 H199 0.951 . S
C198 C193 1.491 . S
C198 C200 1.382 . S
C198 C202 1.404 . S
H199 C197 0.951 . S
C200 C198 1.382 . S
C200 C201 1.390 . S
C200 H205 0.949 . S
C201 C200 1.390 . S
C201 C206 1.399 . S
C202 C198 1.404 . S
C202 H203 0.950 . S
C202 C204 1.375 . S
H203 C202 0.950 . S
C204 C202 1.375 . S
C204 C206 1.382 . S
C204 H208 0.950 1_556 S
H205 C200 0.949 . S
C206 C201 1.399 . S
C206 C204 1.382 . S
C206 H207 0.933 1_556 S
H207 C206 0.933 1_554 S
H208 C204 0.950 1_554 S
H209 C210 0.949 . S
C210 H209 0.949 . S
C210 C211 1.395 . S
C210 C212 1.391 . S
C211 C210 1.395 . S
C211 C214 1.390 . S
C212 C210 1.391 . S
C212 C216 1.387 . S
C212 C217 1.491 . S
H213 C214 0.950 . S
C214 C211 1.390 . S
C214 H213 0.950 . S
C214 C215 1.378 . S
C215 C214 1.378 . S
C215 C216 1.409 . S
C216 C212 1.387 . S
C216 C215 1.409 . S
C216 H218 0.951 . S
C217 C212 1.491 . S
C217 C219 1.382 . S
C217 C221 1.404 . S
H218 C216 0.951 . S
C219 C217 1.382 . S
C219 C220 1.390 . S
C219 H224 0.949 . S
C220 C219 1.390 . S
C220 C225 1.399 . S
C221 C217 1.404 . S
C221 H222 0.950 . S
C221 C223 1.375 . S
H222 C221 0.950 . S
C223 C221 1.375 . S
C223 C225 1.382 . S
C223 H227 0.950 . S
H224 C219 0.949 . S
C225 C220 1.399 . S
C225 C223 1.382 . S
C225 H226 0.952 . S
H226 C225 0.952 . S
H227 C223 0.950 . S
H228 C229 0.949 . S
C229 H228 0.949 . S
C229 C230 1.395 . S
C229 C231 1.391 . S
C230 C229 1.395 . S
C230 C233 1.390 . S
C231 C229 1.391 . S
C231 C235 1.387 . S
C231 C236 1.491 . S
H232 C233 0.950 . S
C233 C230 1.390 . S
C233 H232 0.950 . S
C233 C234 1.378 . S
C234 C233 1.378 . S
C234 C235 1.409 . S
C235 C231 1.387 . S
C235 C234 1.409 . S
C235 H237 0.951 . S
C236 C231 1.491 . S
C236 C238 1.382 . S
C236 C240 1.404 . S
H237 C235 0.951 . S
C238 C236 1.382 . S
C238 C239 1.390 . S
C238 H243 0.949 . S
C239 C238 1.390 . S
C239 C244 1.399 . S
C240 C236 1.404 . S
C240 H241 0.950 . S
C240 C242 1.375 . S
H241 C240 0.950 . S
C242 C240 1.375 . S
C242 C244 1.382 . S
C242 H246 0.950 . S
H243 C238 0.949 . S
C244 C239 1.399 . S
C244 C242 1.382 . S
C244 H245 0.952 . S
H245 C244 0.952 . S
H246 C242 0.950 . S
H247 C248 0.949 . S
C248 H247 0.949 . S
C248 C249 1.395 . S
C248 C250 1.391 . S
C249 C248 1.395 . S
C249 C252 1.390 . S
C250 C248 1.391 . S
C250 C254 1.387 . S
C250 C255 1.491 . S
H251 C252 0.950 . S
C252 C249 1.390 . S
C252 H251 0.950 . S
C252 C253 1.378 . S
C253 C252 1.378 . S
C253 C254 1.409 . S
C254 C250 1.387 . S
C254 C253 1.409 . S
C254 H256 0.951 . S
C255 C250 1.491 . S
C255 C257 1.382 . S
C255 C259 1.404 . S
H256 C254 0.951 . S
C257 C255 1.382 . S
C257 C258 1.390 . S
C257 H262 0.949 . S
C258 C257 1.390 . S
C258 C263 1.399 . S
C259 C255 1.404 . S
C259 H260 0.950 . S
C259 C261 1.375 . S
H260 C259 0.950 . S
C261 C259 1.375 . S
C261 C263 1.382 . S
C261 H265 0.950 . S
H262 C257 0.949 . S
C263 C258 1.399 . S
C263 C261 1.382 . S
C263 H264 0.952 . S
H264 C263 0.952 . S
H265 C261 0.950 . S
H266 C267 0.949 . S
C267 H266 0.949 . S
C267 C268 1.395 . S
C267 C269 1.391 . S
C268 C267 1.395 . S
C268 C271 1.390 . S
C269 C267 1.391 . S
C269 C273 1.387 . S
C269 C274 1.491 . S
H270 C271 0.950 . S
C271 C268 1.390 . S
C271 H270 0.950 . S
C271 C272 1.378 . S
C272 C271 1.378 . S
C272 C273 1.409 . S
C273 C269 1.387 . S
C273 C272 1.409 . S
C273 H275 0.951 . S
C274 C269 1.491 . S
C274 C276 1.382 . S
C274 C278 1.404 . S
H275 C273 0.951 . S
C276 C274 1.382 . S
C276 C277 1.390 . S
C276 H281 0.949 . S
C277 C276 1.390 . S
C277 C282 1.399 . S
C278 C274 1.404 . S
C278 H279 0.950 . S
C278 C280 1.375 . S
H279 C278 0.950 . S
C280 C278 1.375 . S
C280 C282 1.382 . S
C280 H284 0.950 . S
H281 C276 0.949 . S
C282 C277 1.399 . S
C282 C280 1.382 . S
C282 H283 0.952 . S
H283 C282 0.952 . S
H284 C280 0.950 . S
H285 C286 0.949 . S
C286 H285 0.949 . S
C286 C287 1.395 . S
C286 C288 1.391 . S
C287 C286 1.395 . S
C287 C290 1.390 . S
C288 C286 1.391 . S
C288 C292 1.387 . S
C288 C293 1.491 . S
H289 C290 0.950 . S
C290 C287 1.390 . S
C290 H289 0.950 . S
C290 C291 1.378 . S
C291 C290 1.378 . S
C291 C292 1.409 . S
C292 C288 1.387 . S
C292 C291 1.409 . S
C292 H294 0.951 . S
C293 C288 1.491 . S
C293 C295 1.382 . S
C293 C297 1.404 . S
H294 C292 0.951 . S
C295 C293 1.382 . S
C295 C296 1.390 . S
C295 H300 0.949 . S
C296 C295 1.390 . S
C296 C301 1.399 . S
C297 C293 1.404 . S
C297 H298 0.950 . S
C297 C299 1.375 . S
H298 C297 0.950 . S
C299 C297 1.375 . S
C299 C301 1.382 . S
C299 H303 0.950 . S
H300 C295 0.949 . S
C301 C296 1.399 . S
C301 C299 1.382 . S
C301 H302 0.952 . S
H302 C301 0.952 . S
H303 C299 0.950 . S
H304 C305 0.949 . S
C305 H304 0.949 . S
C305 C306 1.395 . S
C305 C307 1.391 . S
C306 C305 1.395 . S
C306 C309 1.390 . S
C307 C305 1.391 . S
C307 C311 1.387 . S
C307 C312 1.491 . S
H308 C309 0.950 . S
C309 C306 1.390 . S
C309 H308 0.950 . S
C309 C310 1.378 . S
C310 C309 1.378 . S
C310 C311 1.409 . S
C311 C307 1.387 . S
C311 C310 1.409 . S
C311 H313 0.951 . S
C312 C307 1.491 . S
C312 C314 1.382 . S
C312 C316 1.404 . S
H313 C311 0.951 . S
C314 C312 1.382 . S
C314 C315 1.390 . S
C314 H319 0.949 . S
C315 C314 1.390 . S
C315 C320 1.399 . S
C316 C312 1.404 . S
C316 H317 0.950 . S
C316 C318 1.375 . S
H317 C316 0.950 . S
C318 C316 1.375 . S
C318 C320 1.382 . S
C318 H322 0.950 . S
H319 C314 0.949 . S
C320 C315 1.399 . S
C320 C318 1.382 . S
C320 H321 0.952 . S
H321 C320 0.952 . S
H322 C318 0.950 . S
H323 C324 0.949 . S
C324 H323 0.949 . S
C324 C325 1.395 . S
C324 C326 1.391 . S
C325 C324 1.395 . S
C325 C328 1.390 . S
C326 C324 1.391 . S
C326 C330 1.387 . S
C326 C331 1.491 . S
H327 C328 0.950 . S
C328 C325 1.390 . S
C328 H327 0.950 . S
C328 C329 1.378 . S
C329 C328 1.378 . S
C329 C330 1.409 . S
C330 C326 1.387 . S
C330 C329 1.409 . S
C330 H332 0.951 . S
C331 C326 1.491 . S
C331 C333 1.382 . S
C331 C335 1.404 . S
H332 C330 0.951 . S
C333 C331 1.382 . S
C333 C334 1.390 . S
C333 H338 0.949 . S
C334 C333 1.390 . S
C334 C339 1.399 . S
C335 C331 1.404 . S
C335 H336 0.950 . S
C335 C337 1.375 . S
H336 C335 0.950 . S
C337 C335 1.375 . S
C337 C339 1.382 . S
C337 H341 0.950 . S
H338 C333 0.949 . S
C339 C334 1.399 . S
C339 C337 1.382 . S
C339 H340 0.952 . S
H340 C339 0.952 . S
H341 C337 0.950 . S
Tb342 N373 2.660 . S
Tb342 N380 2.600 . S
Tb342 O386 2.546 . S
Tb342 O387 2.610 1_566 S
Tb342 O389 2.320 1_565 S
Tb342 O390 2.552 1_565 S
Tb342 O391 2.413 1_565 S
Tb342 O393 2.362 1_556 S
Tb342 O394 2.421 . S
Tb342 C406 2.833 1_565 S
C343 C346 1.432 . S
C343 C347 1.414 . S
C343 N350 1.359 . S
C344 C346 1.417 . S
C344 C348 1.432 . S
C344 C356 1.410 . S
C345 C347 1.444 . S
C345 C348 1.317 . S
C345 H368 0.929 . S
C346 C343 1.432 . S
C346 C344 1.417 . S
C346 N354 1.360 . S
C347 C343 1.414 . S
C347 C345 1.444 . S
C347 C352 1.385 . S
C348 C344 1.432 . S
C348 C345 1.317 . S
C348 H360 0.930 . S
C349 C351 1.392 . S
C349 C352 1.370 . S
C349 H361 0.931 . S
N350 C343 1.359 . S
N350 C351 1.327 . S
N350 Tb353 2.600 . S
C351 C349 1.392 . S
C351 N350 1.327 . S
C351 H358 0.930 . S
C352 C347 1.385 . S
C352 C349 1.370 . S
C352 H371 0.930 . S
Tb353 N350 2.600 . S
Tb353 N354 2.660 . S
Tb353 O387 2.362 . S
Tb353 O388 2.421 . S
Tb353 O392 2.546 . S
Tb353 O393 2.610 1_545 S
Tb353 O395 2.320 1_545 S
Tb353 O396 2.552 1_545 S
Tb353 O397 2.413 1_545 S
Tb353 C417 2.833 1_545 S
N354 C346 1.360 . S
N354 Tb353 2.660 . S
N354 C355 1.305 . S
C355 N354 1.305 . S
C355 C357 1.407 . S
C355 H362 0.930 . S
C356 C344 1.410 . S
C356 C357 1.345 . S
C356 H364 0.930 . S
C357 C355 1.407 . S
C357 C356 1.345 . S
C357 H359 0.930 . S
H358 C351 0.930 . S
H359 C357 0.930 . S
H360 C348 0.930 . S
H361 C349 0.931 . S
H362 C355 0.930 . S
H363 C377 0.930 . S
H364 C356 0.930 . S
H365 C383 0.930 . S
H366 C374 0.937 . S
H367 C381 0.931 . S
H368 C345 0.929 . S
H369 C375 0.930 . S
H370 C408 0.930 . S
H371 C352 0.930 . S
H372 C407 0.929 . S
N373 Tb342 2.660 . S
N373 C374 1.305 . S
N373 C378 1.360 . S
C374 H366 0.937 . S
C374 N373 1.305 . S
C374 C377 1.407 . S
C375 H369 0.930 . S
C375 C376 1.410 . S
C375 C377 1.345 . S
C376 C375 1.410 . S
C376 C378 1.417 . S
C376 C408 1.432 . S
C377 H363 0.930 . S
C377 C374 1.407 . S
C377 C375 1.345 . S
C378 N373 1.360 . S
C378 C376 1.417 . S
C378 C382 1.432 . S
H379 C384 0.930 . S
N380 Tb342 2.600 . S
N380 C382 1.359 . S
N380 C383 1.327 . S
C381 H367 0.931 . S
C381 C383 1.392 . S
C381 C384 1.370 . S
C382 C378 1.432 . S
C382 N380 1.359 . S
C382 C385 1.414 . S
C383 H365 0.930 . S
C383 N380 1.327 . S
C383 C381 1.392 . S
C384 H379 0.930 . S
C384 C381 1.370 . S
C384 C385 1.385 . S
C385 C382 1.414 . S
C385 C384 1.385 . S
C385 C407 1.444 . S
O386 Tb342 2.546 . S
O386 C406 1.251 1_565 S
O387 Tb342 2.610 1_544 S
O387 Tb353 2.362 . S
O387 C398 1.283 1_554 S
O388 Tb353 2.421 . S
O388 C405 1.262 . S
O389 Tb342 2.320 1_545 S
O389 C405 1.260 1_556 S
O390 Tb342 2.552 1_545 S
O390 C398 1.243 . S
O391 Tb342 2.413 1_545 S
O391 C406 1.256 . S
O392 Tb353 2.546 . S
O392 C417 1.250 1_545 S
O393 Tb342 2.362 1_554 S
O393 Tb353 2.610 1_565 S
O393 C409 1.283 . S
O394 Tb342 2.421 . S
O394 C416 1.262 1_556 S
O395 Tb353 2.320 1_565 S
O395 C416 1.260 . S
O396 Tb353 2.552 1_565 S
O396 C409 1.243 . S
O397 Tb353 2.413 1_565 S
O397 C417 1.257 . S
C398 O387 1.283 1_556 S
C398 O390 1.243 . S
C399 C401 1.382 . S
C399 C403 1.393 1_545 S
C399 C406 1.500 . S
C400 C401 1.400 . S
C400 C402 1.384 . S
C401 C399 1.382 . S
C401 C400 1.400 . S
C401 H418 0.930 . S
C402 C400 1.384 . S
C402 C404 1.392 . S
C402 H419 0.931 . S
C403 C399 1.393 1_565 S
C403 C404 1.401 1_565 S
C403 H420 0.930 . S
C404 C402 1.392 . S
C404 C403 1.401 1_545 S
C404 H421 0.930 1_545 S
C405 O388 1.262 . S
C405 O389 1.260 1_554 S
C406 Tb342 2.833 1_545 S
C406 O386 1.251 1_545 S
C406 O391 1.256 . S
C406 C399 1.500 . S
C407 H372 0.929 . S
C407 C385 1.444 . S
C407 C408 1.317 . S
C408 H370 0.930 . S
C408 C376 1.432 . S
C408 C407 1.317 . S
C409 O393 1.283 . S
C409 O396 1.243 . S
C410 C411 1.382 . S
C410 C414 1.393 1_565 S
C410 C417 1.500 . S
C411 C410 1.382 . S
C411 C412 1.400 . S
C411 H422 0.930 . S
C412 C411 1.400 . S
C412 C413 1.384 . S
C413 C412 1.384 . S
C413 C415 1.392 . S
C413 H423 0.931 . S
C414 C410 1.393 1_545 S
C414 C415 1.401 1_545 S
C414 H424 0.930 . S
C415 C413 1.392 . S
C415 C414 1.401 1_565 S
C415 H425 0.930 1_565 S
C416 O394 1.262 1_554 S
C416 O395 1.260 . S
C417 Tb353 2.833 1_565 S
C417 O392 1.250 1_565 S
C417 O397 1.257 . S
C417 C410 1.500 . S
H418 C401 0.930 . S
H419 C402 0.931 . S
H420 C403 0.930 . S
H421 C404 0.930 1_565 S
H422 C411 0.930 . S
H423 C413 0.931 . S
H424 C414 0.930 . S
H425 C415 0.930 1_545 S
Tb426 N457 2.660 . S
Tb426 N464 2.600 . S
Tb426 O470 2.546 . S
Tb426 O471 2.610 1_456 S
Tb426 O473 2.320 1_455 S
Tb426 O474 2.552 1_455 S
Tb426 O475 2.413 1_455 S
Tb426 O477 2.362 1_556 S
Tb426 O478 2.421 . S
Tb426 C490 2.833 . S
C427 C430 1.432 . S
C427 C431 1.414 . S
C427 N434 1.359 . S
C428 C430 1.417 . S
C428 C432 1.432 . S
C428 C440 1.410 . S
C429 C431 1.444 . S
C429 C432 1.317 . S
C429 H452 0.929 . S
C430 C427 1.432 . S
C430 C428 1.417 . S
C430 N438 1.360 . S
C431 C427 1.414 . S
C431 C429 1.444 . S
C431 C436 1.385 . S
C432 C428 1.432 . S
C432 C429 1.317 . S
C432 H444 0.930 . S
C433 C435 1.392 . S
C433 C436 1.370 . S
C433 H445 0.931 . S
N434 C427 1.359 . S
N434 C435 1.327 . S
N434 Tb437 2.600 . S
C435 C433 1.392 . S
C435 N434 1.327 . S
C435 H442 0.930 . S
C436 C431 1.385 . S
C436 C433 1.370 . S
C436 H455 0.930 . S
Tb437 N434 2.600 . S
Tb437 N438 2.660 . S
Tb437 O471 2.362 . S
Tb437 O472 2.421 . S
Tb437 O476 2.546 . S
Tb437 O477 2.610 1_655 S
Tb437 O479 2.320 1_655 S
Tb437 O480 2.552 1_655 S
Tb437 O481 2.413 1_655 S
Tb437 C501 2.833 1_655 S
N438 C430 1.360 . S
N438 Tb437 2.660 . S
N438 C439 1.305 . S
C439 N438 1.305 . S
C439 C441 1.407 . S
C439 H446 0.919 1_655 S
C440 C428 1.410 . S
C440 C441 1.345 . S
C440 H448 0.930 . S
C441 C439 1.407 . S
C441 C440 1.345 . S
C441 H443 0.930 . S
H442 C435 0.930 . S
H443 C441 0.930 . S
H444 C432 0.930 . S
H445 C433 0.931 . S
H446 C439 0.919 1_455 S
H447 C461 0.930 . S
H448 C440 0.930 . S
H449 C467 0.930 . S
H450 C458 0.930 . S
H451 C465 0.931 . S
H452 C429 0.929 . S
H453 C459 0.930 . S
H454 C492 0.930 . S
H455 C436 0.930 . S
H456 C491 0.929 . S
N457 Tb426 2.660 . S
N457 C458 1.305 . S
N457 C462 1.360 . S
C458 H450 0.930 . S
C458 N457 1.305 . S
C458 C461 1.407 . S
C459 H453 0.930 . S
C459 C460 1.410 . S
C459 C461 1.345 . S
C460 C459 1.410 . S
C460 C462 1.417 . S
C460 C492 1.432 . S
C461 H447 0.930 . S
C461 C458 1.407 . S
C461 C459 1.345 . S
C462 N457 1.360 . S
C462 C460 1.417 . S
C462 C466 1.432 . S
H463 C468 0.930 . S
N464 Tb426 2.600 . S
N464 C466 1.359 . S
N464 C467 1.327 . S
C465 H451 0.931 . S
C465 C467 1.392 . S
C465 C468 1.370 . S
C466 C462 1.432 . S
C466 N464 1.359 . S
C466 C469 1.414 . S
C467 H449 0.930 . S
C467 N464 1.327 . S
C467 C465 1.392 . S
C468 H463 0.930 . S
C468 C465 1.370 . S
C468 C469 1.385 . S
C469 C466 1.414 . S
C469 C468 1.385 . S
C469 C491 1.444 . S
O470 Tb426 2.546 . S
O470 C490 1.251 . S
O471 Tb426 2.610 1_654 S
O471 Tb437 2.362 . S
O471 C482 1.283 1_554 S
O472 Tb437 2.421 . S
O472 C489 1.262 . S
O473 Tb426 2.320 1_655 S
O473 C489 1.260 1_556 S
O474 Tb426 2.552 1_655 S
O474 C482 1.243 . S
O475 Tb426 2.413 1_655 S
O475 C490 1.256 1_655 S
O476 Tb437 2.546 . S
O476 C501 1.251 1_655 S
O477 Tb426 2.362 1_554 S
O477 Tb437 2.610 1_455 S
O477 C493 1.283 . S
O478 Tb426 2.421 . S
O478 C500 1.262 1_556 S
O479 Tb437 2.320 1_455 S
O479 C500 1.260 . S
O480 Tb437 2.552 1_455 S
O480 C493 1.243 . S
O481 Tb437 2.413 1_455 S
O481 C501 1.256 . S
C482 O471 1.283 1_556 S
C482 O474 1.243 . S
C483 C485 1.382 . S
C483 C487 1.393 1_655 S
C483 C490 1.500 1_655 S
C484 C485 1.400 . S
C484 C486 1.384 . S
C485 C483 1.382 . S
C485 C484 1.400 . S
C485 H502 0.930 . S
C486 C484 1.384 . S
C486 C488 1.392 1_655 S
C486 H503 0.931 . S
C487 C483 1.393 1_455 S
C487 C488 1.401 . S
C487 H504 0.930 . S
C488 C486 1.392 1_455 S
C488 C487 1.401 . S
C488 H505 0.930 . S
C489 O472 1.262 . S
C489 O473 1.260 1_554 S
C490 Tb426 2.833 . S
C490 O470 1.251 . S
C490 O475 1.256 1_455 S
C490 C483 1.500 1_455 S
C491 H456 0.929 . S
C491 C469 1.444 . S
C491 C492 1.317 . S
C492 H454 0.930 . S
C492 C460 1.432 . S
C492 C491 1.317 . S
C493 O477 1.283 . S
C493 O480 1.243 . S
C494 C495 1.382 . S
C494 C498 1.393 1_455 S
C494 C501 1.500 . S
C495 C494 1.382 . S
C495 C496 1.400 . S
C495 H506 0.930 . S
C496 C495 1.400 . S
C496 C497 1.384 . S
C497 C496 1.384 . S
C497 C499 1.392 . S
C497 H507 0.931 . S
C498 C494 1.393 1_655 S
C498 C499 1.401 1_655 S
C498 H508 0.930 . S
C499 C497 1.392 . S
C499 C498 1.401 1_455 S
C499 H509 0.930 1_455 S
C500 O478 1.262 1_554 S
C500 O479 1.260 . S
C501 Tb437 2.833 1_455 S
C501 O476 1.251 1_455 S
C501 O481 1.256 . S
C501 C494 1.500 . S
H502 C485 0.930 . S
H503 C486 0.931 . S
H504 C487 0.930 . S
H505 C488 0.930 . S
H506 C495 0.930 . S
H507 C497 0.931 . S
H508 C498 0.930 . S
H509 C499 0.930 1_655 S
Tb510 N541 2.660 . S
Tb510 N548 2.600 . S
Tb510 O554 2.546 . S
Tb510 O555 2.610 . S
Tb510 O557 2.320 . S
Tb510 O558 2.552 . S
Tb510 O559 2.413 . S
Tb510 O561 2.362 . S
Tb510 O562 2.421 . S
Tb510 C574 2.833 . S
C511 C514 1.432 . S
C511 C515 1.414 . S
C511 N518 1.359 . S
C512 C514 1.417 . S
C512 C516 1.432 . S
C512 C524 1.410 . S
C513 C515 1.444 . S
C513 C516 1.317 . S
C513 H536 0.929 . S
C514 C511 1.432 . S
C514 C512 1.417 . S
C514 N522 1.360 . S
C515 C511 1.414 . S
C515 C513 1.444 . S
C515 C520 1.385 . S
C516 C512 1.432 . S
C516 C513 1.317 . S
C516 H528 0.930 . S
C517 C519 1.392 . S
C517 C520 1.370 . S
C517 H529 0.931 . S
N518 C511 1.359 . S
N518 C519 1.327 . S
N518 Tb521 2.600 . S
C519 C517 1.392 . S
C519 N518 1.327 . S
C519 H526 0.930 . S
C520 C515 1.385 . S
C520 C517 1.370 . S
C520 H539 0.930 . S
Tb521 N518 2.600 . S
Tb521 N522 2.660 . S
Tb521 O555 2.362 1_556 S
Tb521 O556 2.447 . S
Tb521 O560 2.546 . S
Tb521 O561 2.610 1_556 S
Tb521 O563 2.320 . S
Tb521 O564 2.552 . S
Tb521 O565 2.413 . S
Tb521 C585 2.833 . S
N522 C514 1.360 . S
N522 Tb521 2.660 . S
N522 C523 1.305 . S
C523 N522 1.305 . S
C523 C525 1.407 . S
C523 H530 0.930 . S
C524 C512 1.410 . S
C524 C525 1.345 . S
C524 H532 0.930 . S
C525 C523 1.407 . S
C525 C524 1.345 . S
C525 H527 0.930 . S
H526 C519 0.930 . S
H527 C525 0.930 . S
H528 C516 0.930 . S
H529 C517 0.931 . S
H530 C523 0.930 . S
H531 C545 0.930 . S
H532 C524 0.930 . S
H533 C551 0.930 . S
H534 C542 0.930 . S
H535 C549 0.931 . S
H536 C513 0.929 . S
H537 C543 0.930 . S
H538 C576 0.930 . S
H539 C520 0.930 . S
H540 C575 0.929 . S
N541 Tb510 2.660 . S
N541 C542 1.305 . S
N541 C546 1.360 . S
C542 H534 0.930 . S
C542 N541 1.305 . S
C542 C545 1.407 . S
C543 H537 0.930 . S
C543 C544 1.410 . S
C543 C545 1.345 . S
C544 C543 1.410 . S
C544 C546 1.417 . S
C544 C576 1.432 . S
C545 H531 0.930 . S
C545 C542 1.407 . S
C545 C543 1.345 . S
C546 N541 1.360 . S
C546 C544 1.417 . S
C546 C550 1.432 . S
H547 C552 0.930 . S
N548 Tb510 2.600 . S
N548 C550 1.359 . S
N548 C551 1.327 . S
C549 H535 0.931 . S
C549 C551 1.392 . S
C549 C552 1.370 . S
C550 C546 1.432 . S
C550 N548 1.359 . S
C550 C553 1.414 . S
C551 H533 0.930 . S
C551 N548 1.327 . S
C551 C549 1.392 . S
C552 H547 0.930 . S
C552 C549 1.370 . S
C552 C553 1.385 . S
C553 C550 1.414 . S
C553 C552 1.385 . S
C553 C575 1.444 . S
O554 Tb510 2.546 . S
O554 C574 1.251 . S
O555 Tb510 2.610 . S
O555 Tb521 2.362 1_554 S
O555 C566 1.283 . S
O556 Tb521 2.447 . S
O556 C573 1.207 1_556 S
O557 Tb510 2.320 . S
O557 C573 1.260 . S
O558 Tb510 2.552 . S
O558 C566 1.243 . S
O559 Tb510 2.413 . S
O559 C574 1.256 . S
O560 Tb521 2.546 . S
O560 C585 1.251 . S
O561 Tb510 2.362 . S
O561 Tb521 2.610 1_554 S
O561 C577 1.283 1_554 S
O562 Tb510 2.421 . S
O562 C584 1.262 . S
O563 Tb521 2.320 . S
O563 C584 1.260 1_556 S
O564 Tb521 2.552 . S
O564 C577 1.243 . S
O565 Tb521 2.413 . S
O565 C585 1.256 . S
C566 O555 1.283 . S
C566 O558 1.243 . S
C567 C569 1.382 . S
C567 C571 1.393 . S
C567 C574 1.500 . S
C568 C569 1.400 . S
C568 C570 1.384 . S
C569 C567 1.382 . S
C569 C568 1.400 . S
C569 H586 0.930 . S
C570 C568 1.384 . S
C570 C572 1.392 . S
C570 H587 0.931 . S
C571 C567 1.393 . S
C571 C572 1.401 . S
C571 H588 0.930 . S
C572 C570 1.392 . S
C572 C571 1.401 . S
C572 H589 0.930 . S
C573 O556 1.207 1_554 S
C573 O557 1.260 . S
C574 Tb510 2.833 . S
C574 O554 1.251 . S
C574 O559 1.256 . S
C574 C567 1.500 . S
C575 H540 0.929 . S
C575 C553 1.444 . S
C575 C576 1.317 . S
C576 H538 0.930 . S
C576 C544 1.432 . S
C576 C575 1.317 . S
C577 O561 1.283 1_556 S
C577 O564 1.243 . S
C578 C579 1.382 . S
C578 C582 1.393 . S
C578 C585 1.500 . S
C579 C578 1.382 . S
C579 C580 1.400 . S
C579 H590 0.930 . S
C580 C579 1.400 . S
C580 C581 1.384 . S
C581 C580 1.384 . S
C581 C583 1.392 . S
C581 H591 0.931 . S
C582 C578 1.393 . S
C582 C583 1.401 . S
C582 H592 0.930 . S
C583 C581 1.392 . S
C583 C582 1.401 . S
C583 H593 0.930 . S
C584 O562 1.262 . S
C584 O563 1.260 1_554 S
C585 Tb521 2.833 . S
C585 O560 1.251 . S
C585 O565 1.256 . S
C585 C578 1.500 . S
H586 C569 0.930 . S
H587 C570 0.931 . S
H588 C571 0.930 . S
H589 C572 0.930 . S
H590 C579 0.930 . S
H591 C581 0.931 . S
H592 C582 0.930 . S
H593 C583 0.930 . S
Tb594 N625 2.660 . S
Tb594 N632 2.600 . S
Tb594 O638 2.546 . S
Tb594 O639 2.610 . S
Tb594 O641 2.320 . S
Tb594 O642 2.552 . S
Tb594 O643 2.413 . S
Tb594 O645 2.362 . S
Tb594 O646 2.421 . S
Tb594 C658 2.833 . S
C595 C598 1.432 . S
C595 C599 1.414 . S
C595 N602 1.359 . S
C596 C598 1.417 . S
C596 C600 1.432 . S
C596 C608 1.410 . S
C597 C599 1.444 . S
C597 C600 1.317 . S
C597 H620 0.929 . S
C598 C595 1.432 . S
C598 C596 1.417 . S
C598 N606 1.360 . S
C599 C595 1.414 . S
C599 C597 1.444 . S
C599 C604 1.385 . S
C600 C596 1.432 . S
C600 C597 1.317 . S
C600 H612 0.930 . S
C601 C603 1.392 . S
C601 C604 1.370 . S
C601 H613 0.931 . S
N602 C595 1.359 . S
N602 C603 1.327 . S
N602 Tb605 2.600 . S
C603 C601 1.392 . S
C603 N602 1.327 . S
C603 H610 0.930 . S
C604 C599 1.385 . S
C604 C601 1.370 . S
C604 H623 0.930 . S
Tb605 N602 2.600 . S
Tb605 N606 2.660 . S
Tb605 O639 2.362 . S
Tb605 O640 2.421 . S
Tb605 O644 2.546 . S
Tb605 O645 2.610 . S
Tb605 O647 2.320 . S
Tb605 O648 2.552 . S
Tb605 O649 2.413 . S
Tb605 C669 2.833 . S
N606 C598 1.360 . S
N606 Tb605 2.660 . S
N606 C607 1.305 . S
C607 N606 1.305 . S
C607 C609 1.407 . S
C607 H614 0.930 . S
C608 C596 1.410 . S
C608 C609 1.345 . S
C608 H616 0.930 . S
C609 C607 1.407 . S
C609 C608 1.345 . S
C609 H611 0.930 . S
H610 C603 0.930 . S
H611 C609 0.930 . S
H612 C600 0.930 . S
H613 C601 0.931 . S
H614 C607 0.930 . S
H615 C629 0.930 . S
H616 C608 0.930 . S
H617 C635 0.930 . S
H618 C626 0.930 . S
H619 C633 0.931 . S
H620 C597 0.929 . S
H621 C627 0.930 1_655 S
H622 C660 0.900 1_655 S
H623 C604 0.930 . S
H624 C659 0.929 . S
N625 Tb594 2.660 . S
N625 C626 1.305 . S
N625 C630 1.360 . S
C626 H618 0.930 . S
C626 N625 1.305 . S
C626 C629 1.407 . S
C627 H621 0.930 1_455 S
C627 C628 1.410 . S
C627 C629 1.345 . S
C628 C627 1.410 . S
C628 C630 1.417 . S
C628 C660 1.432 . S
C629 H615 0.930 . S
C629 C626 1.407 . S
C629 C627 1.345 . S
C630 N625 1.360 . S
C630 C628 1.417 . S
C630 C634 1.432 . S
H631 C636 0.930 . S
N632 Tb594 2.600 . S
N632 C634 1.359 . S
N632 C635 1.327 . S
C633 H619 0.931 . S
C633 C635 1.392 . S
C633 C636 1.370 . S
C634 C630 1.432 . S
C634 N632 1.359 . S
C634 C637 1.414 . S
C635 H617 0.930 . S
C635 N632 1.327 . S
C635 C633 1.392 . S
C636 H631 0.930 . S
C636 C633 1.370 . S
C636 C637 1.385 . S
C637 C634 1.414 . S
C637 C636 1.385 . S
C637 C659 1.444 . S
O638 Tb594 2.546 . S
O638 C658 1.251 . S
O639 Tb594 2.610 . S
O639 Tb605 2.362 . S
O639 C650 1.283 . S
O640 Tb605 2.421 . S
O640 C657 1.262 . S
O641 Tb594 2.320 . S
O641 C657 1.260 . S
O642 Tb594 2.552 . S
O642 C650 1.243 . S
O643 Tb594 2.413 . S
O643 C658 1.256 . S
O644 Tb605 2.546 . S
O644 C669 1.251 . S
O645 Tb594 2.362 . S
O645 Tb605 2.610 . S
O645 C661 1.283 . S
O646 Tb594 2.421 . S
O646 C668 1.262 . S
O647 Tb605 2.320 . S
O647 C668 1.260 . S
O648 Tb605 2.552 . S
O648 C661 1.243 . S
O649 Tb605 2.413 . S
O649 C669 1.256 . S
C650 O639 1.283 . S
C650 O642 1.243 . S
C651 C653 1.382 . S
C651 C655 1.393 . S
C651 C658 1.500 . S
C652 C653 1.400 . S
C652 C654 1.384 . S
C653 C651 1.382 . S
C653 C652 1.400 . S
C653 H670 0.930 . S
C654 C652 1.384 . S
C654 C656 1.392 . S
C654 H671 0.931 . S
C655 C651 1.393 . S
C655 C656 1.401 . S
C655 H672 0.930 . S
C656 C654 1.392 . S
C656 C655 1.401 . S
C656 H673 0.930 . S
C657 O640 1.262 . S
C657 O641 1.260 . S
C658 Tb594 2.833 . S
C658 O638 1.251 . S
C658 O643 1.256 . S
C658 C651 1.500 . S
C659 H624 0.929 . S
C659 C637 1.444 . S
C659 C660 1.317 . S
C660 H622 0.900 1_455 S
C660 C628 1.432 . S
C660 C659 1.317 . S
C661 O645 1.283 . S
C661 O648 1.243 . S
C662 C663 1.382 . S
C662 C666 1.393 . S
C662 C669 1.500 . S
C663 C662 1.382 . S
C663 C664 1.400 . S
C663 H674 0.930 . S
C664 C663 1.400 . S
C664 C665 1.384 . S
C665 C664 1.384 . S
C665 C667 1.392 . S
C665 H675 0.931 . S
C666 C662 1.393 . S
C666 C667 1.401 . S
C666 H676 0.930 . S
C667 C665 1.392 . S
C667 C666 1.401 . S
C667 H677 0.930 . S
C668 O646 1.262 . S
C668 O647 1.260 . S
C669 Tb605 2.833 . S
C669 O644 1.251 . S
C669 O649 1.256 . S
C669 C662 1.500 . S
H670 C653 0.930 . S
H671 C654 0.931 . S
H672 C655 0.930 . S
H673 C656 0.930 . S
H674 C663 0.930 . S
H675 C665 0.931 . S
H676 C666 0.930 . S
H677 C667 0.930 . S
Tb678 N709 2.660 . S
Tb678 N716 2.600 . S
Tb678 O722 2.546 . S
Tb678 O723 2.610 . S
Tb678 O725 2.320 . S
Tb678 O726 2.552 . S
Tb678 O727 2.413 . S
Tb678 O729 2.362 . S
Tb678 O730 2.421 . S
Tb678 C742 2.833 . S
C679 C682 1.432 . S
C679 C683 1.414 . S
C679 N686 1.359 . S
C680 C682 1.417 . S
C680 C684 1.432 . S
C680 C692 1.410 . S
C681 C683 1.444 . S
C681 C684 1.317 . S
C681 H704 0.929 . S
C682 C679 1.432 . S
C682 C680 1.417 . S
C682 N690 1.360 . S
C683 C679 1.414 . S
C683 C681 1.444 . S
C683 C688 1.385 . S
C684 C680 1.432 . S
C684 C681 1.317 . S
C684 H696 0.930 . S
C685 C687 1.392 . S
C685 C688 1.370 . S
C685 H697 0.931 . S
N686 C679 1.359 . S
N686 C687 1.327 . S
N686 Tb689 2.600 . S
C687 C685 1.392 . S
C687 N686 1.327 . S
C687 H694 0.930 . S
C688 C683 1.385 . S
C688 C685 1.370 . S
C688 H707 0.930 . S
Tb689 N686 2.600 . S
Tb689 N690 2.660 . S
Tb689 O723 2.362 . S
Tb689 O724 2.421 . S
Tb689 O728 2.546 . S
Tb689 O729 2.610 . S
Tb689 O731 2.320 . S
Tb689 O732 2.552 . S
Tb689 O733 2.413 . S
Tb689 C753 2.833 . S
N690 C682 1.360 . S
N690 Tb689 2.660 . S
N690 C691 1.305 . S
C691 N690 1.305 . S
C691 C693 1.407 . S
C691 H698 0.930 . S
C692 C680 1.410 . S
C692 C693 1.345 . S
C692 H700 0.930 . S
C693 C691 1.407 . S
C693 C692 1.345 . S
C693 H695 0.930 . S
H694 C687 0.930 . S
H695 C693 0.930 . S
H696 C684 0.930 . S
H697 C685 0.931 . S
H698 C691 0.930 . S
H699 C713 0.930 . S
H700 C692 0.930 . S
H701 C719 0.930 . S
H702 C710 0.930 . S
H703 C717 0.931 . S
H704 C681 0.929 . S
H705 C711 0.930 . S
H706 C744 0.930 . S
H707 C688 0.930 . S
H708 C743 0.929 . S
N709 Tb678 2.660 . S
N709 C710 1.305 . S
N709 C714 1.360 . S
C710 H702 0.930 . S
C710 N709 1.305 . S
C710 C713 1.407 . S
C711 H705 0.930 . S
C711 C712 1.410 . S
C711 C713 1.345 . S
C712 C711 1.410 . S
C712 C714 1.417 . S
C712 C744 1.432 . S
C713 H699 0.930 . S
C713 C710 1.407 . S
C713 C711 1.345 . S
C714 N709 1.360 . S
C714 C712 1.417 . S
C714 C718 1.432 . S
H715 C720 0.930 . S
N716 Tb678 2.600 . S
N716 C718 1.359 . S
N716 C719 1.327 . S
C717 H703 0.931 . S
C717 C719 1.392 . S
C717 C720 1.370 . S
C718 C714 1.432 . S
C718 N716 1.359 . S
C718 C721 1.414 . S
C719 H701 0.930 . S
C719 N716 1.327 . S
C719 C717 1.392 . S
C720 H715 0.930 . S
C720 C717 1.370 . S
C720 C721 1.385 . S
C721 C718 1.414 . S
C721 C720 1.385 . S
C721 C743 1.444 . S
O722 Tb678 2.546 . S
O722 C742 1.251 . S
O723 Tb678 2.610 . S
O723 Tb689 2.362 . S
O723 C734 1.283 . S
O724 Tb689 2.421 . S
O724 C741 1.262 . S
O725 Tb678 2.320 . S
O725 C741 1.260 . S
O726 Tb678 2.552 . S
O726 C734 1.243 . S
O727 Tb678 2.413 . S
O727 C742 1.256 . S
O728 Tb689 2.546 . S
O728 C753 1.251 . S
O729 Tb678 2.362 . S
O729 Tb689 2.610 . S
O729 C745 1.283 . S
O730 Tb678 2.421 . S
O730 C752 1.262 . S
O731 Tb689 2.320 . S
O731 C752 1.260 . S
O732 Tb689 2.552 . S
O732 C745 1.243 . S
O733 Tb689 2.413 . S
O733 C753 1.256 . S
C734 O723 1.283 . S
C734 O726 1.243 . S
C735 C737 1.382 . S
C735 C739 1.393 . S
C735 C742 1.500 . S
C736 C737 1.400 . S
C736 C738 1.384 . S
C737 C735 1.382 . S
C737 C736 1.400 . S
C737 H754 0.930 . S
C738 C736 1.384 . S
C738 C740 1.392 . S
C738 H755 0.931 . S
C739 C735 1.393 . S
C739 C740 1.401 . S
C739 H756 0.930 . S
C740 C738 1.392 . S
C740 C739 1.401 . S
C740 H757 0.930 . S
C741 O724 1.262 . S
C741 O725 1.260 . S
C742 Tb678 2.833 . S
C742 O722 1.251 . S
C742 O727 1.256 . S
C742 C735 1.500 . S
C743 H708 0.929 . S
C743 C721 1.444 . S
C743 C744 1.317 . S
C744 H706 0.930 . S
C744 C712 1.432 . S
C744 C743 1.317 . S
C745 O729 1.283 . S
C745 O732 1.243 . S
C746 C747 1.382 . S
C746 C750 1.393 . S
C746 C753 1.500 . S
C747 C746 1.382 . S
C747 C748 1.400 . S
C747 H758 0.930 . S
C748 C747 1.400 . S
C748 C749 1.384 . S
C749 C748 1.384 . S
C749 C751 1.392 . S
C749 H759 0.931 . S
C750 C746 1.393 . S
C750 C751 1.401 . S
C750 H760 0.930 . S
C751 C749 1.392 . S
C751 C750 1.401 . S
C751 H761 0.930 . S
C752 O730 1.262 . S
C752 O731 1.260 . S
C753 Tb689 2.833 . S
C753 O728 1.251 . S
C753 O733 1.256 . S
C753 C746 1.500 . S
H754 C737 0.930 . S
H755 C738 0.931 . S
H756 C739 0.930 . S
H757 C740 0.930 . S
H758 C747 0.930 . S
H759 C749 0.931 . S
H760 C750 0.930 . S
H761 C751 0.930 . S
Tb762 N793 2.660 . S
Tb762 N800 2.600 . S
Tb762 O806 2.546 . S
Tb762 O807 2.610 . S
Tb762 O809 2.320 . S
Tb762 O810 2.552 . S
Tb762 O811 2.413 . S
Tb762 O813 2.362 . S
Tb762 O814 2.421 . S
Tb762 C826 2.833 . S
C763 C766 1.432 . S
C763 C767 1.414 . S
C763 N770 1.359 . S
C764 C766 1.417 . S
C764 C768 1.432 . S
C764 C776 1.410 . S
C765 C767 1.444 . S
C765 C768 1.317 . S
C765 H788 0.929 . S
C766 C763 1.432 . S
C766 C764 1.417 . S
C766 N774 1.360 . S
C767 C763 1.414 . S
C767 C765 1.444 . S
C767 C772 1.385 . S
C768 C764 1.432 . S
C768 C765 1.317 . S
C768 H780 0.930 . S
C769 C771 1.392 . S
C769 C772 1.370 . S
C769 H781 0.931 . S
N770 C763 1.359 . S
N770 C771 1.327 . S
N770 Tb773 2.600 . S
C771 C769 1.392 . S
C771 N770 1.327 . S
C771 H778 0.930 . S
C772 C767 1.385 . S
C772 C769 1.370 . S
C772 H791 0.930 . S
Tb773 N770 2.600 . S
Tb773 N774 2.660 . S
Tb773 O807 2.362 . S
Tb773 O808 2.421 . S
Tb773 O812 2.546 . S
Tb773 O813 2.610 . S
Tb773 O815 2.320 . S
Tb773 O816 2.552 . S
Tb773 O817 2.413 . S
Tb773 C837 2.833 . S
N774 C766 1.360 . S
N774 Tb773 2.660 . S
N774 C775 1.305 . S
C775 N774 1.305 . S
C775 C777 1.407 . S
C775 H782 0.930 . S
C776 C764 1.410 . S
C776 C777 1.345 . S
C776 H784 0.930 . S
C777 C775 1.407 . S
C777 C776 1.345 . S
C777 H779 0.930 . S
H778 C771 0.930 . S
H779 C777 0.930 . S
H780 C768 0.930 . S
H781 C769 0.931 . S
H782 C775 0.930 . S
H783 C797 0.930 . S
H784 C776 0.930 . S
H785 C803 0.930 . S
H786 C794 0.930 . S
H787 C801 0.931 . S
H788 C765 0.929 . S
H789 C795 0.930 . S
H790 C828 0.930 . S
H791 C772 0.930 . S
H792 C827 0.929 . S
N793 Tb762 2.660 . S
N793 C794 1.305 . S
N793 C798 1.360 . S
C794 H786 0.930 . S
C794 N793 1.305 . S
C794 C797 1.407 . S
C795 H789 0.930 . S
C795 C796 1.410 . S
C795 C797 1.345 . S
C796 C795 1.410 . S
C796 C798 1.417 . S
C796 C828 1.432 . S
C797 H783 0.930 . S
C797 C794 1.407 . S
C797 C795 1.345 . S
C798 N793 1.360 . S
C798 C796 1.417 . S
C798 C802 1.432 . S
H799 C804 0.930 . S
N800 Tb762 2.600 . S
N800 C802 1.359 . S
N800 C803 1.327 . S
C801 H787 0.931 . S
C801 C803 1.392 . S
C801 C804 1.370 . S
C802 C798 1.432 . S
C802 N800 1.359 . S
C802 C805 1.414 . S
C803 H785 0.930 . S
C803 N800 1.327 . S
C803 C801 1.392 . S
C804 H799 0.930 . S
C804 C801 1.370 . S
C804 C805 1.385 . S
C805 C802 1.414 . S
C805 C804 1.385 . S
C805 C827 1.444 . S
O806 Tb762 2.546 . S
O806 C826 1.251 . S
O807 Tb762 2.610 . S
O807 Tb773 2.362 . S
O807 C818 1.283 . S
O808 Tb773 2.421 . S
O808 C825 1.262 . S
O809 Tb762 2.320 . S
O809 C825 1.260 . S
O810 Tb762 2.552 . S
O810 C818 1.243 . S
O811 Tb762 2.413 . S
O811 C826 1.256 . S
O812 Tb773 2.546 . S
O812 C837 1.251 . S
O813 Tb762 2.362 . S
O813 Tb773 2.610 . S
O813 C829 1.283 . S
O814 Tb762 2.421 . S
O814 C836 1.262 . S
O815 Tb773 2.320 . S
O815 C836 1.260 . S
O816 Tb773 2.552 . S
O816 C829 1.243 . S
O817 Tb773 2.413 . S
O817 C837 1.256 . S
C818 O807 1.283 . S
C818 O810 1.243 . S
C819 C821 1.382 . S
C819 C823 1.393 . S
C819 C826 1.500 . S
C820 C821 1.400 . S
C820 C822 1.384 . S
C821 C819 1.382 . S
C821 C820 1.400 . S
C821 H838 0.930 . S
C822 C820 1.384 . S
C822 C824 1.392 . S
C822 H839 0.931 . S
C823 C819 1.393 . S
C823 C824 1.401 . S
C823 H840 0.930 . S
C824 C822 1.392 . S
C824 C823 1.401 . S
C824 H841 0.930 . S
C825 O808 1.262 . S
C825 O809 1.260 . S
C826 Tb762 2.833 . S
C826 O806 1.251 . S
C826 O811 1.256 . S
C826 C819 1.500 . S
C827 H792 0.929 . S
C827 C805 1.444 . S
C827 C828 1.317 . S
C828 H790 0.930 . S
C828 C796 1.432 . S
C828 C827 1.317 . S
C829 O813 1.283 . S
C829 O816 1.243 . S
C830 C831 1.382 . S
C830 C834 1.393 . S
C830 C837 1.500 . S
C831 C830 1.382 . S
C831 C832 1.400 . S
C831 H842 0.930 . S
C832 C831 1.400 . S
C832 C833 1.384 . S
C833 C832 1.384 . S
C833 C835 1.392 . S
C833 H843 0.931 . S
C834 C830 1.393 . S
C834 C835 1.401 . S
C834 H844 0.930 . S
C835 C833 1.392 . S
C835 C834 1.401 . S
C835 H845 0.930 . S
C836 O814 1.262 . S
C836 O815 1.260 . S
C837 Tb773 2.833 . S
C837 O812 1.251 . S
C837 O817 1.256 . S
C837 C830 1.500 . S
H838 C821 0.930 . S
H839 C822 0.931 . S
H840 C823 0.930 . S
H841 C824 0.930 . S
H842 C831 0.930 . S
H843 C833 0.931 . S
H844 C834 0.930 . S
H845 C835 0.930 . S
Tb846 N877 2.660 . S
Tb846 N884 2.600 . S
Tb846 O890 2.546 . S
Tb846 O891 2.610 . S
Tb846 O893 2.320 . S
Tb846 O894 2.552 . S
Tb846 O895 2.413 . S
Tb846 O897 2.362 . S
Tb846 O898 2.421 . S
Tb846 C910 2.833 . S
C847 C850 1.432 . S
C847 C851 1.414 . S
C847 N854 1.359 . S
C848 C850 1.417 . S
C848 C852 1.432 . S
C848 C860 1.410 . S
C849 C851 1.444 . S
C849 C852 1.317 . S
C849 H872 0.929 . S
C850 C847 1.432 . S
C850 C848 1.417 . S
C850 N858 1.360 . S
C851 C847 1.414 . S
C851 C849 1.444 . S
C851 C856 1.385 . S
C852 C848 1.432 . S
C852 C849 1.317 . S
C852 H864 0.930 . S
C853 C855 1.392 . S
C853 C856 1.370 . S
C853 H865 0.931 . S
N854 C847 1.359 . S
N854 C855 1.327 . S
N854 Tb857 2.600 . S
C855 C853 1.392 . S
C855 N854 1.327 . S
C855 H862 0.930 . S
C856 C851 1.385 . S
C856 C853 1.370 . S
C856 H875 0.930 . S
Tb857 N854 2.600 . S
Tb857 N858 2.660 . S
Tb857 O891 2.362 . S
Tb857 O892 2.421 . S
Tb857 O896 2.546 . S
Tb857 O897 2.610 . S
Tb857 O899 2.320 . S
Tb857 O900 2.552 . S
Tb857 O901 2.413 . S
Tb857 C921 2.833 . S
N858 C850 1.360 . S
N858 Tb857 2.660 . S
N858 C859 1.305 . S
C859 N858 1.305 . S
C859 C861 1.407 . S
C859 H866 0.930 . S
C860 C848 1.410 . S
C860 C861 1.345 . S
C860 H868 0.930 . S
C861 C859 1.407 . S
C861 C860 1.345 . S
C861 H863 0.930 . S
H862 C855 0.930 . S
H863 C861 0.930 . S
H864 C852 0.930 . S
H865 C853 0.931 . S
H866 C859 0.930 . S
H867 C881 0.930 . S
H868 C860 0.930 . S
H869 C887 0.930 . S
H870 C878 0.930 . S
H871 C885 0.931 . S
H872 C849 0.929 . S
H873 C879 0.930 . S
H874 C912 0.930 . S
H875 C856 0.930 . S
H876 C911 0.929 . S
N877 Tb846 2.660 . S
N877 C878 1.305 . S
N877 C882 1.360 . S
C878 H870 0.930 . S
C878 N877 1.305 . S
C878 C881 1.407 . S
C879 H873 0.930 . S
C879 C880 1.410 . S
C879 C881 1.345 . S
C880 C879 1.410 . S
C880 C882 1.417 . S
C880 C912 1.432 . S
C881 H867 0.930 . S
C881 C878 1.407 . S
C881 C879 1.345 . S
C882 N877 1.360 . S
C882 C880 1.417 . S
C882 C886 1.432 . S
H883 C888 0.930 . S
N884 Tb846 2.600 . S
N884 C886 1.359 . S
N884 C887 1.327 . S
C885 H871 0.931 . S
C885 C887 1.392 . S
C885 C888 1.370 . S
C886 C882 1.432 . S
C886 N884 1.359 . S
C886 C889 1.414 . S
C887 H869 0.930 . S
C887 N884 1.327 . S
C887 C885 1.392 . S
C888 H883 0.930 . S
C888 C885 1.370 . S
C888 C889 1.385 . S
C889 C886 1.414 . S
C889 C888 1.385 . S
C889 C911 1.444 . S
O890 Tb846 2.546 . S
O890 C910 1.251 . S
O891 Tb846 2.610 . S
O891 Tb857 2.362 . S
O891 C902 1.283 . S
O892 Tb857 2.421 . S
O892 C909 1.262 . S
O893 Tb846 2.320 . S
O893 C909 1.260 . S
O894 Tb846 2.552 . S
O894 C902 1.243 . S
O895 Tb846 2.413 . S
O895 C910 1.256 . S
O896 Tb857 2.546 . S
O896 C921 1.251 . S
O897 Tb846 2.362 . S
O897 Tb857 2.610 . S
O897 C913 1.283 . S
O898 Tb846 2.421 . S
O898 C920 1.262 . S
O899 Tb857 2.320 . S
O899 C920 1.260 . S
O900 Tb857 2.552 . S
O900 C913 1.243 . S
O901 Tb857 2.413 . S
O901 C921 1.256 . S
C902 O891 1.283 . S
C902 O894 1.243 . S
C903 C905 1.382 . S
C903 C907 1.393 . S
C903 C910 1.500 . S
C904 C905 1.400 . S
C904 C906 1.384 . S
C905 C903 1.382 . S
C905 C904 1.400 . S
C905 H922 0.930 . S
C906 C904 1.384 . S
C906 C908 1.392 . S
C906 H923 0.931 . S
C907 C903 1.393 . S
C907 C908 1.401 . S
C907 H924 0.930 . S
C908 C906 1.392 . S
C908 C907 1.401 . S
C908 H925 0.930 . S
C909 O892 1.262 . S
C909 O893 1.260 . S
C910 Tb846 2.833 . S
C910 O890 1.251 . S
C910 O895 1.256 . S
C910 C903 1.500 . S
C911 H876 0.929 . S
C911 C889 1.444 . S
C911 C912 1.317 . S
C912 H874 0.930 . S
C912 C880 1.432 . S
C912 C911 1.317 . S
C913 O897 1.283 . S
C913 O900 1.243 . S
C914 C915 1.382 . S
C914 C918 1.393 . S
C914 C921 1.500 . S
C915 C914 1.382 . S
C915 C916 1.400 . S
C915 H926 0.930 . S
C916 C915 1.400 . S
C916 C917 1.384 . S
C917 C916 1.384 . S
C917 C919 1.392 . S
C917 H927 0.931 . S
C918 C914 1.393 . S
C918 C919 1.401 . S
C918 H928 0.930 . S
C919 C917 1.392 . S
C919 C918 1.401 . S
C919 H929 0.930 . S
C920 O898 1.262 . S
C920 O899 1.260 . S
C921 Tb857 2.833 . S
C921 O896 1.251 . S
C921 O901 1.256 . S
C921 C914 1.500 . S
H922 C905 0.930 . S
H923 C906 0.931 . S
H924 C907 0.930 . S
H925 C908 0.930 . S
H926 C915 0.930 . S
H927 C917 0.931 . S
H928 C918 0.930 . S
H929 C919 0.930 . S
Tb930 N961 2.660 . S
Tb930 N968 2.600 . S
Tb930 O974 2.546 . S
Tb930 O975 2.610 . S
Tb930 O977 2.320 . S
Tb930 O978 2.552 . S
Tb930 O979 2.413 . S
Tb930 O981 2.362 . S
Tb930 O982 2.421 . S
Tb930 C994 2.833 . S
C931 C934 1.432 . S
C931 C935 1.414 . S
C931 N938 1.359 . S
C932 C934 1.417 . S
C932 C936 1.432 . S
C932 C944 1.410 . S
C933 C935 1.444 . S
C933 C936 1.317 . S
C933 H956 0.929 . S
C934 C931 1.432 . S
C934 C932 1.417 . S
C934 N942 1.360 . S
C935 C931 1.414 . S
C935 C933 1.444 . S
C935 C940 1.385 . S
C936 C932 1.432 . S
C936 C933 1.317 . S
C936 H948 0.930 . S
C937 C939 1.392 . S
C937 C940 1.370 . S
C937 H949 0.931 . S
N938 C931 1.359 . S
N938 C939 1.327 . S
N938 Tb941 2.600 . S
C939 C937 1.392 . S
C939 N938 1.327 . S
C939 H946 0.930 . S
C940 C935 1.385 . S
C940 C937 1.370 . S
C940 H959 0.930 . S
Tb941 N938 2.600 . S
Tb941 N942 2.660 . S
Tb941 O975 2.362 . S
Tb941 O976 2.421 . S
Tb941 O980 2.546 . S
Tb941 O981 2.610 . S
Tb941 O983 2.320 . S
Tb941 O984 2.552 . S
Tb941 O985 2.413 . S
Tb941 C1005 2.833 . S
N942 C934 1.360 . S
N942 Tb941 2.660 . S
N942 C943 1.305 . S
C943 N942 1.305 . S
C943 C945 1.407 . S
C943 H950 0.930 . S
C944 C932 1.410 . S
C944 C945 1.345 . S
C944 H952 0.930 . S
C945 C943 1.407 . S
C945 C944 1.345 . S
C945 H947 0.930 . S
H946 C939 0.930 . S
H947 C945 0.930 . S
H948 C936 0.930 . S
H949 C937 0.931 . S
H950 C943 0.930 . S
H951 C965 0.930 . S
H952 C944 0.930 . S
H953 C971 0.930 . S
H954 C962 0.930 . S
H955 C969 0.931 . S
H956 C933 0.929 . S
H957 C963 0.930 . S
H958 C996 0.930 . S
H959 C940 0.930 . S
H960 C995 0.929 . S
N961 Tb930 2.660 . S
N961 C962 1.305 . S
N961 C966 1.360 . S
C962 H954 0.930 . S
C962 N961 1.305 . S
C962 C965 1.407 . S
C963 H957 0.930 . S
C963 C964 1.410 . S
C963 C965 1.345 . S
C964 C963 1.410 . S
C964 C966 1.417 . S
C964 C996 1.432 . S
C965 H951 0.930 . S
C965 C962 1.407 . S
C965 C963 1.345 . S
C966 N961 1.360 . S
C966 C964 1.417 . S
C966 C970 1.432 . S
H967 C972 0.930 . S
N968 Tb930 2.600 . S
N968 C970 1.359 . S
N968 C971 1.327 . S
C969 H955 0.931 . S
C969 C971 1.392 . S
C969 C972 1.370 . S
C970 C966 1.432 . S
C970 N968 1.359 . S
C970 C973 1.414 . S
C971 H953 0.930 . S
C971 N968 1.327 . S
C971 C969 1.392 . S
C972 H967 0.930 . S
C972 C969 1.370 . S
C972 C973 1.385 . S
C973 C970 1.414 . S
C973 C972 1.385 . S
C973 C995 1.444 . S
O974 Tb930 2.546 . S
O974 C994 1.251 . S
O975 Tb930 2.610 . S
O975 Tb941 2.362 . S
O975 C986 1.283 . S
O976 Tb941 2.421 . S
O976 C993 1.262 . S
O977 Tb930 2.320 . S
O977 C993 1.260 . S
O978 Tb930 2.552 . S
O978 C986 1.243 . S
O979 Tb930 2.413 . S
O979 C994 1.256 . S
O980 Tb941 2.546 . S
O980 C1005 1.251 . S
O981 Tb930 2.362 . S
O981 Tb941 2.610 . S
O981 C997 1.283 . S
O982 Tb930 2.421 . S
O982 C1004 1.262 . S
O983 Tb941 2.320 . S
O983 C1004 1.260 . S
O984 Tb941 2.552 . S
O984 C997 1.243 . S
O985 Tb941 2.413 . S
O985 C1005 1.256 . S
C986 O975 1.283 . S
C986 O978 1.243 . S
C987 C989 1.382 . S
C987 C991 1.393 . S
C987 C994 1.500 . S
C988 C989 1.400 . S
C988 C990 1.384 . S
C989 C987 1.382 . S
C989 C988 1.400 . S
C989 H1006 0.930 . S
C990 C988 1.384 . S
C990 C992 1.392 . S
C990 H1007 0.931 . S
C991 C987 1.393 . S
C991 C992 1.401 . S
C991 H1008 0.930 . S
C992 C990 1.392 . S
C992 C991 1.401 . S
C992 H1009 0.930 . S
C993 O976 1.262 . S
C993 O977 1.260 . S
C994 Tb930 2.833 . S
C994 O974 1.251 . S
C994 O979 1.256 . S
C994 C987 1.500 . S
C995 H960 0.929 . S
C995 C973 1.444 . S
C995 C996 1.317 . S
C996 H958 0.930 . S
C996 C964 1.432 . S
C996 C995 1.317 . S
C997 O981 1.283 . S
C997 O984 1.243 . S
C998 C999 1.382 . S
C998 C1002 1.393 . S
C998 C1005 1.500 . S
C999 C998 1.382 . S
C999 C1000 1.400 . S
C999 H1010 0.930 . S
C1000 C999 1.400 . S
C1000 C1001 1.384 . S
C1001 C1000 1.384 . S
C1001 C1003 1.392 . S
C1001 H1011 0.931 . S
C1002 C998 1.393 . S
C1002 C1003 1.401 . S
C1002 H1012 0.930 . S
C1003 C1001 1.392 . S
C1003 C1002 1.401 . S
C1003 H1013 0.930 . S
C1004 O982 1.262 . S
C1004 O983 1.260 . S
C1005 Tb941 2.833 . S
C1005 O980 1.251 . S
C1005 O985 1.256 . S
C1005 C998 1.500 . S
H1006 C989 0.930 . S
H1007 C990 0.931 . S
H1008 C991 0.930 . S
H1009 C992 0.930 . S
H1010 C999 0.930 . S
H1011 C1001 0.931 . S
H1012 C1002 0.930 . S
H1013 C1003 0.930 . S
Tb1014 N1045 2.660 . S
Tb1014 N1052 2.600 . S
Tb1014 O1058 2.546 . S
Tb1014 O1059 2.610 . S
Tb1014 O1061 2.320 . S
Tb1014 O1062 2.552 . S
Tb1014 O1063 2.413 . S
Tb1014 O1065 2.362 . S
Tb1014 O1066 2.421 . S
Tb1014 C1078 2.833 . S
C1015 C1018 1.432 . S
C1015 C1019 1.414 . S
C1015 N1022 1.359 . S
C1016 C1018 1.417 . S
C1016 C1020 1.432 . S
C1016 C1028 1.410 . S
C1017 C1019 1.444 . S
C1017 C1020 1.317 . S
C1017 H1040 0.929 . S
C1018 C1015 1.432 . S
C1018 C1016 1.417 . S
C1018 N1026 1.360 . S
C1019 C1015 1.414 . S
C1019 C1017 1.444 . S
C1019 C1024 1.385 . S
C1020 C1016 1.432 . S
C1020 C1017 1.317 . S
C1020 H1032 0.930 . S
C1021 C1023 1.392 . S
C1021 C1024 1.370 . S
C1021 H1033 0.931 . S
N1022 C1015 1.359 . S
N1022 C1023 1.327 . S
N1022 Tb1025 2.600 . S
C1023 C1021 1.392 . S
C1023 N1022 1.327 . S
C1023 H1030 0.930 . S
C1024 C1019 1.385 . S
C1024 C1021 1.370 . S
C1024 H1043 0.930 . S
Tb1025 N1022 2.600 . S
Tb1025 N1026 2.660 . S
Tb1025 O1059 2.362 . S
Tb1025 O1060 2.421 . S
Tb1025 O1064 2.546 . S
Tb1025 O1065 2.610 . S
Tb1025 O1067 2.320 . S
Tb1025 O1068 2.552 . S
Tb1025 O1069 2.413 . S
Tb1025 C1089 2.833 . S
N1026 C1018 1.360 . S
N1026 Tb1025 2.660 . S
N1026 C1027 1.305 . S
C1027 N1026 1.305 . S
C1027 C1029 1.407 . S
C1027 H1034 0.930 . S
C1028 C1016 1.410 . S
C1028 C1029 1.345 . S
C1028 H1036 0.930 . S
C1029 C1027 1.407 . S
C1029 C1028 1.345 . S
C1029 H1031 0.930 . S
H1030 C1023 0.930 . S
H1031 C1029 0.930 . S
H1032 C1020 0.930 . S
H1033 C1021 0.931 . S
H1034 C1027 0.930 . S
H1035 C1049 0.930 . S
H1036 C1028 0.930 . S
H1037 C1055 0.930 . S
H1038 C1046 0.930 . S
H1039 C1053 0.931 . S
H1040 C1017 0.929 . S
H1041 C1047 0.930 1_455 S
H1042 C1080 0.930 1_455 S
H1043 C1024 0.930 . S
H1044 C1079 0.929 . S
N1045 Tb1014 2.660 . S
N1045 C1046 1.305 . S
N1045 C1050 1.360 . S
C1046 H1038 0.930 . S
C1046 N1045 1.305 . S
C1046 C1049 1.407 . S
C1047 H1041 0.930 1_655 S
C1047 C1048 1.410 . S
C1047 C1049 1.345 . S
C1048 C1047 1.410 . S
C1048 C1050 1.417 . S
C1048 C1080 1.432 . S
C1049 H1035 0.930 . S
C1049 C1046 1.407 . S
C1049 C1047 1.345 . S
C1050 N1045 1.360 . S
C1050 C1048 1.417 . S
C1050 C1054 1.432 . S
H1051 C1056 0.930 . S
N1052 Tb1014 2.600 . S
N1052 C1054 1.359 . S
N1052 C1055 1.327 . S
C1053 H1039 0.931 . S
C1053 C1055 1.392 . S
C1053 C1056 1.370 . S
C1054 C1050 1.432 . S
C1054 N1052 1.359 . S
C1054 C1057 1.414 . S
C1055 H1037 0.930 . S
C1055 N1052 1.327 . S
C1055 C1053 1.392 . S
C1056 H1051 0.930 . S
C1056 C1053 1.370 . S
C1056 C1057 1.385 . S
C1057 C1054 1.414 . S
C1057 C1056 1.385 . S
C1057 C1079 1.444 . S
O1058 Tb1014 2.546 . S
O1058 C1078 1.251 . S
O1059 Tb1014 2.610 . S
O1059 Tb1025 2.362 . S
O1059 C1070 1.283 . S
O1060 Tb1025 2.421 . S
O1060 C1077 1.262 . S
O1061 Tb1014 2.320 . S
O1061 C1077 1.260 . S
O1062 Tb1014 2.552 . S
O1062 C1070 1.243 . S
O1063 Tb1014 2.413 . S
O1063 C1078 1.256 . S
O1064 Tb1025 2.546 . S
O1064 C1089 1.251 . S
O1065 Tb1014 2.362 . S
O1065 Tb1025 2.610 . S
O1065 C1081 1.283 . S
O1066 Tb1014 2.421 . S
O1066 C1088 1.262 . S
O1067 Tb1025 2.320 . S
O1067 C1088 1.260 . S
O1068 Tb1025 2.552 . S
O1068 C1081 1.243 . S
O1069 Tb1025 2.413 . S
O1069 C1089 1.256 . S
C1070 O1059 1.283 . S
C1070 O1062 1.243 . S
C1071 C1073 1.382 . S
C1071 C1075 1.393 . S
C1071 C1078 1.500 . S
C1072 C1073 1.400 . S
C1072 C1074 1.384 . S
C1073 C1071 1.382 . S
C1073 C1072 1.400 . S
C1073 H1090 0.930 . S
C1074 C1072 1.384 . S
C1074 C1076 1.392 . S
C1074 H1091 0.931 . S
C1075 C1071 1.393 . S
C1075 C1076 1.401 . S
C1075 H1092 0.930 . S
C1076 C1074 1.392 . S
C1076 C1075 1.401 . S
C1076 H1093 0.930 . S
C1077 O1060 1.262 . S
C1077 O1061 1.260 . S
C1078 Tb1014 2.833 . S
C1078 O1058 1.251 . S
C1078 O1063 1.256 . S
C1078 C1071 1.500 . S
C1079 H1044 0.929 . S
C1079 C1057 1.444 . S
C1079 C1080 1.317 . S
C1080 H1042 0.930 1_655 S
C1080 C1048 1.432 . S
C1080 C1079 1.317 . S
C1081 O1065 1.283 . S
C1081 O1068 1.243 . S
C1082 C1083 1.382 . S
C1082 C1086 1.393 . S
C1082 C1089 1.500 . S
C1083 C1082 1.382 . S
C1083 C1084 1.400 . S
C1083 H1094 0.930 . S
C1084 C1083 1.400 . S
C1084 C1085 1.384 . S
C1085 C1084 1.384 . S
C1085 C1087 1.392 . S
C1085 H1095 0.931 . S
C1086 C1082 1.393 . S
C1086 C1087 1.401 . S
C1086 H1096 0.930 . S
C1087 C1085 1.392 . S
C1087 C1086 1.401 . S
C1087 H1097 0.930 . S
C1088 O1066 1.262 . S
C1088 O1067 1.260 . S
C1089 Tb1025 2.833 . S
C1089 O1064 1.251 . S
C1089 O1069 1.256 . S
C1089 C1082 1.500 . S
H1090 C1073 0.930 . S
H1091 C1074 0.931 . S
H1092 C1075 0.930 . S
H1093 C1076 0.930 . S
H1094 C1083 0.930 . S
H1095 C1085 0.931 . S
H1096 C1086 0.930 . S
H1097 C1087 0.930 . S
H1098 C1106 0.950 . S
H1099 C1111 0.950 . S
H1100 C1108 0.950 . S
H1101 C1110 0.950 . S
H1102 C1112 0.950 1_556 S
H1103 C1114 0.950 . S
H1104 C1116 0.950 . S
H1105 C1117 0.950 . S
C1106 H1098 0.950 . S
C1106 C1107 1.386 . S
C1106 C1108 1.391 . S
C1107 C1106 1.386 . S
C1107 C1111 1.393 . S
C1108 H1100 0.950 . S
C1108 C1106 1.391 . S
C1108 C1109 1.400 . S
C1109 C1108 1.400 . S
C1109 C1110 1.398 . S
C1109 C1115 1.491 . S
C1110 H1101 0.950 . S
C1110 C1109 1.398 . S
C1110 C1111 1.391 . S
C1111 H1099 0.950 . S
C1111 C1107 1.393 . S
C1111 C1110 1.391 . S
C1112 H1102 0.950 1_554 S
C1112 C1113 1.386 . S
C1112 C1114 1.391 . S
C1113 C1112 1.386 . S
C1113 C1117 1.393 . S
C1114 H1103 0.950 . S
C1114 C1112 1.391 . S
C1114 C1115 1.400 . S
C1115 C1109 1.491 . S
C1115 C1114 1.400 . S
C1115 C1116 1.398 . S
C1116 H1104 0.950 . S
C1116 C1115 1.398 . S
C1116 C1117 1.391 . S
C1117 H1105 0.950 . S
C1117 C1113 1.393 . S
C1117 C1116 1.391 . S
H1118 C1126 0.950 . S
H1119 C1131 0.950 . S
H1120 C1128 0.950 . S
H1121 C1130 0.950 . S
H1122 C1132 0.950 . S
H1123 C1134 0.950 . S
H1124 C1136 0.950 . S
H1125 C1137 0.950 . S
C1126 H1118 0.950 . S
C1126 C1127 1.386 . S
C1126 C1128 1.391 . S
C1127 C1126 1.386 . S
C1127 C1131 1.393 . S
C1128 H1120 0.950 . S
C1128 C1126 1.391 . S
C1128 C1129 1.400 . S
C1129 C1128 1.400 . S
C1129 C1130 1.398 . S
C1129 C1135 1.491 . S
C1130 H1121 0.950 . S
C1130 C1129 1.398 . S
C1130 C1131 1.391 . S
C1131 H1119 0.950 . S
C1131 C1127 1.393 . S
C1131 C1130 1.391 . S
C1132 H1122 0.950 . S
C1132 C1133 1.386 . S
C1132 C1134 1.391 . S
C1133 C1132 1.386 . S
C1133 C1137 1.393 . S
C1134 H1123 0.950 . S
C1134 C1132 1.391 . S
C1134 C1135 1.400 . S
C1135 C1129 1.491 . S
C1135 C1134 1.400 . S
C1135 C1136 1.398 . S
C1136 H1124 0.950 . S
C1136 C1135 1.398 . S
C1136 C1137 1.391 . S
C1137 H1125 0.950 . S
C1137 C1133 1.393 . S
C1137 C1136 1.391 . S
H1138 C1146 0.950 . S
H1139 C1151 0.950 . S
H1140 C1148 0.950 . S
H1141 C1150 0.950 . S
H1142 C1152 0.950 1_556 S
H1143 C1154 0.950 . S
H1144 C1156 0.950 . S
H1145 C1157 0.950 . S
C1146 H1138 0.950 . S
C1146 C1147 1.386 . S
C1146 C1148 1.391 . S
C1147 C1146 1.386 . S
C1147 C1151 1.393 . S
C1148 H1140 0.950 . S
C1148 C1146 1.391 . S
C1148 C1149 1.400 . S
C1149 C1148 1.400 . S
C1149 C1150 1.398 . S
C1149 C1155 1.491 . S
C1150 H1141 0.950 . S
C1150 C1149 1.398 . S
C1150 C1151 1.391 . S
C1151 H1139 0.950 . S
C1151 C1147 1.393 . S
C1151 C1150 1.391 . S
C1152 H1142 0.950 1_554 S
C1152 C1153 1.386 . S
C1152 C1154 1.391 . S
C1153 C1152 1.386 . S
C1153 C1157 1.393 . S
C1154 H1143 0.950 . S
C1154 C1152 1.391 . S
C1154 C1155 1.400 . S
C1155 C1149 1.491 . S
C1155 C1154 1.400 . S
C1155 C1156 1.398 . S
C1156 H1144 0.950 . S
C1156 C1155 1.398 . S
C1156 C1157 1.391 . S
C1157 H1145 0.950 . S
C1157 C1153 1.393 . S
C1157 C1156 1.391 . S
H1158 C1166 0.950 . S
H1159 C1171 0.919 1_554 S
H1160 C1168 0.950 . S
H1161 C1170 0.950 1_554 S
H1162 C1172 0.950 . S
H1163 C1174 0.950 . S
H1164 C1176 0.950 . S
H1165 C1177 0.950 . S
C1166 H1158 0.950 . S
C1166 C1167 1.386 . S
C1166 C1168 1.391 . S
C1167 C1166 1.386 . S
C1167 C1171 1.393 . S
C1168 H1160 0.950 . S
C1168 C1166 1.391 . S
C1168 C1169 1.400 . S
C1169 C1168 1.400 . S
C1169 C1170 1.398 . S
C1169 C1175 1.491 . S
C1170 H1161 0.950 1_556 S
C1170 C1169 1.398 . S
C1170 C1171 1.391 . S
C1171 H1159 0.919 1_556 S
C1171 C1167 1.393 . S
C1171 C1170 1.391 . S
C1172 H1162 0.950 . S
C1172 C1173 1.386 1_554 S
C1172 C1174 1.391 . S
C1173 C1172 1.386 1_556 S
C1173 C1177 1.393 . S
C1174 H1163 0.950 . S
C1174 C1172 1.391 . S
C1174 C1175 1.400 1_554 S
C1175 C1169 1.491 . S
C1175 C1174 1.400 1_556 S
C1175 C1176 1.398 . S
C1176 H1164 0.950 . S
C1176 C1175 1.398 . S
C1176 C1177 1.391 . S
C1177 H1165 0.950 . S
C1177 C1173 1.393 . S
C1177 C1176 1.391 . S
H1178 C1186 0.950 . S
H1179 C1191 0.950 . S
H1180 C1188 0.950 . S
H1181 C1190 0.950 . S
H1182 C1192 0.950 . S
H1183 C1194 0.950 1_554 S
H1184 C1196 0.950 . S
H1185 C1197 0.950 . S
C1186 H1178 0.950 . S
C1186 C1187 1.386 . S
C1186 C1188 1.391 . S
C1187 C1186 1.386 . S
C1187 C1191 1.393 . S
C1188 H1180 0.950 . S
C1188 C1186 1.391 . S
C1188 C1189 1.400 . S
C1189 C1188 1.400 . S
C1189 C1190 1.398 . S
C1189 C1195 1.491 . S
C1190 H1181 0.950 . S
C1190 C1189 1.398 . S
C1190 C1191 1.391 . S
C1191 H1179 0.950 . S
C1191 C1187 1.393 . S
C1191 C1190 1.391 . S
C1192 H1182 0.950 . S
C1192 C1193 1.386 1_554 S
C1192 C1194 1.391 1_554 S
C1193 C1192 1.386 1_556 S
C1193 C1197 1.393 . S
C1194 H1183 0.950 1_556 S
C1194 C1192 1.391 1_556 S
C1194 C1195 1.400 . S
C1195 C1189 1.491 . S
C1195 C1194 1.400 . S
C1195 C1196 1.398 . S
C1196 H1184 0.950 . S
C1196 C1195 1.398 . S
C1196 C1197 1.391 . S
C1197 H1185 0.950 . S
C1197 C1193 1.393 . S
C1197 C1196 1.391 . S
H1198 C1206 0.950 1_554 S
H1199 C1211 0.950 . S
H1200 C1208 0.950 1_554 S
H1201 C1210 0.950 . S
H1202 C1212 0.950 . S
H1203 C1214 0.950 . S
H1204 C1216 0.950 . S
H1205 C1217 0.950 . S
C1206 H1198 0.950 1_556 S
C1206 C1207 1.386 . S
C1206 C1208 1.391 . S
C1207 C1206 1.386 . S
C1207 C1211 1.393 . S
C1208 H1200 0.950 1_556 S
C1208 C1206 1.391 . S
C1208 C1209 1.400 . S
C1209 C1208 1.400 . S
C1209 C1210 1.398 . S
C1209 C1215 1.491 . S
C1210 H1201 0.950 . S
C1210 C1209 1.398 . S
C1210 C1211 1.391 . S
C1211 H1199 0.950 . S
C1211 C1207 1.393 . S
C1211 C1210 1.391 . S
C1212 H1202 0.950 . S
C1212 C1213 1.386 . S
C1212 C1214 1.391 . S
C1213 C1212 1.386 . S
C1213 C1217 1.393 1_556 S
C1214 H1203 0.950 . S
C1214 C1212 1.391 . S
C1214 C1215 1.400 . S
C1215 C1209 1.491 . S
C1215 C1214 1.400 . S
C1215 C1216 1.398 1_556 S
C1216 H1204 0.950 . S
C1216 C1215 1.398 1_554 S
C1216 C1217 1.391 . S
C1217 H1205 0.950 . S
C1217 C1213 1.393 1_554 S
C1217 C1216 1.391 . S
H1218 C1226 0.927 1_554 S
H1219 C1231 0.950 . S
H1220 C1228 0.950 1_554 S
H1221 C1230 0.950 . S
H1222 C1232 0.950 . S
H1223 C1234 0.950 . S
H1224 C1236 0.950 . S
H1225 C1237 0.950 . S
C1226 H1218 0.927 1_556 S
C1226 C1227 1.386 . S
C1226 C1228 1.391 . S
C1227 C1226 1.386 . S
C1227 C1231 1.393 . S
C1228 H1220 0.950 1_556 S
C1228 C1226 1.391 . S
C1228 C1229 1.400 . S
C1229 C1228 1.400 . S
C1229 C1230 1.398 . S
C1229 C1235 1.491 . S
C1230 H1221 0.950 . S
C1230 C1229 1.398 . S
C1230 C1231 1.391 . S
C1231 H1219 0.950 . S
C1231 C1227 1.393 . S
C1231 C1230 1.391 . S
C1232 H1222 0.950 . S
C1232 C1233 1.386 . S
C1232 C1234 1.391 . S
C1233 C1232 1.386 . S
C1233 C1237 1.393 1_556 S
C1234 H1223 0.950 . S
C1234 C1232 1.391 . S
C1234 C1235 1.400 . S
C1235 C1229 1.491 . S
C1235 C1234 1.400 . S
C1235 C1236 1.398 1_556 S
C1236 H1224 0.950 . S
C1236 C1235 1.398 1_554 S
C1236 C1237 1.391 . S
C1237 H1225 0.950 . S
C1237 C1233 1.393 1_554 S
C1237 C1236 1.391 . S
H1238 C1246 0.950 1_554 S
H1239 C1251 0.950 . S
H1240 C1248 0.950 1_554 S
H1241 C1250 0.950 . S
H1242 C1252 0.950 . S
H1243 C1254 0.950 . S
H1244 C1256 0.950 . S
H1245 C1257 0.950 . S
C1246 H1238 0.950 1_556 S
C1246 C1247 1.386 . S
C1246 C1248 1.391 . S
C1247 C1246 1.386 . S
C1247 C1251 1.393 . S
C1248 H1240 0.950 1_556 S
C1248 C1246 1.391 . S
C1248 C1249 1.400 . S
C1249 C1248 1.400 . S
C1249 C1250 1.398 . S
C1249 C1255 1.491 . S
C1250 H1241 0.950 . S
C1250 C1249 1.398 . S
C1250 C1251 1.391 . S
C1251 H1239 0.950 . S
C1251 C1247 1.393 . S
C1251 C1250 1.391 . S
C1252 H1242 0.950 . S
C1252 C1253 1.386 . S
C1252 C1254 1.391 . S
C1253 C1252 1.386 . S
C1253 C1257 1.393 1_556 S
C1254 H1243 0.950 . S
C1254 C1252 1.391 . S
C1254 C1255 1.400 . S
C1255 C1249 1.491 . S
C1255 C1254 1.400 . S
C1255 C1256 1.398 1_556 S
C1256 H1244 0.950 . S
C1256 C1255 1.398 1_554 S
C1256 C1257 1.391 . S
C1257 H1245 0.950 . S
C1257 C1253 1.393 1_554 S
C1257 C1256 1.391 . S
H1258 C1266 0.950 . S
H1259 C1271 0.950 . S
H1260 C1268 0.949 1_554 S
H1261 C1270 0.950 . S
H1262 C1272 0.950 . S
H1263 C1274 0.950 . S
H1264 C1276 0.951 1_554 S
H1265 C1277 0.950 . S
C1266 H1258 0.950 . S
C1266 C1267 1.386 . S
C1266 C1268 1.391 . S
C1267 C1266 1.386 . S
C1267 C1271 1.393 . S
C1268 H1260 0.949 1_556 S
C1268 C1266 1.391 . S
C1268 C1269 1.400 . S
C1269 C1268 1.400 . S
C1269 C1270 1.398 . S
C1269 C1275 1.491 . S
C1270 H1261 0.950 . S
C1270 C1269 1.398 . S
C1270 C1271 1.391 . S
C1271 H1259 0.950 . S
C1271 C1267 1.393 . S
C1271 C1270 1.391 . S
C1272 H1262 0.950 . S
C1272 C1273 1.401 . S
C1272 C1274 1.391 . S
C1273 C1272 1.401 . S
C1273 C1277 1.385 1_556 S
C1274 H1263 0.950 . S
C1274 C1272 1.391 . S
C1274 C1275 1.400 . S
C1275 C1269 1.491 . S
C1275 C1274 1.400 . S
C1275 C1276 1.397 . S
C1276 H1264 0.951 1_556 S
C1276 C1275 1.397 . S
C1276 C1277 1.391 1_556 S
C1277 H1265 0.950 . S
C1277 C1273 1.385 1_554 S
C1277 C1276 1.391 1_554 S
H1278 C1286 0.950 . S
H1279 C1291 0.950 . S
H1280 C1288 0.950 . S
H1281 C1290 0.950 . S
H1282 C1292 0.950 . S
H1283 C1294 0.950 . S
H1284 C1296 0.950 . S
H1285 C1297 0.950 . S
C1286 H1278 0.950 . S
C1286 C1287 1.386 . S
C1286 C1288 1.391 . S
C1287 C1286 1.386 . S
C1287 C1291 1.393 . S
C1288 H1280 0.950 . S
C1288 C1286 1.391 . S
C1288 C1289 1.400 . S
C1289 C1288 1.400 . S
C1289 C1290 1.398 . S
C1289 C1295 1.491 . S
C1290 H1281 0.950 . S
C1290 C1289 1.398 . S
C1290 C1291 1.391 . S
C1291 H1279 0.950 . S
C1291 C1287 1.393 . S
C1291 C1290 1.391 . S
C1292 H1282 0.950 . S
C1292 C1293 1.386 . S
C1292 C1294 1.391 . S
C1293 C1292 1.386 . S
C1293 C1297 1.393 . S
C1294 H1283 0.950 . S
C1294 C1292 1.391 . S
C1294 C1295 1.400 . S
C1295 C1289 1.491 . S
C1295 C1294 1.400 . S
C1295 C1296 1.398 . S
C1296 H1284 0.950 . S
C1296 C1295 1.398 . S
C1296 C1297 1.391 . S
C1297 H1285 0.950 . S
C1297 C1293 1.393 . S
C1297 C1296 1.391 . S
H1298 C1306 0.950 . S
H1299 C1311 0.950 . S
H1300 C1308 0.950 . S
H1301 C1310 0.950 . S
H1302 C1312 0.950 . S
H1303 C1314 0.950 . S
H1304 C1316 0.950 . S
H1305 C1317 0.950 1_556 S
C1306 H1298 0.950 . S
C1306 C1307 1.386 . S
C1306 C1308 1.391 . S
C1307 C1306 1.386 . S
C1307 C1311 1.393 . S
C1308 H1300 0.950 . S
C1308 C1306 1.391 . S
C1308 C1309 1.400 . S
C1309 C1308 1.400 . S
C1309 C1310 1.398 . S
C1309 C1315 1.491 . S
C1310 H1301 0.950 . S
C1310 C1309 1.398 . S
C1310 C1311 1.391 . S
C1311 H1299 0.950 . S
C1311 C1307 1.393 . S
C1311 C1310 1.391 . S
C1312 H1302 0.950 . S
C1312 C1313 1.386 . S
C1312 C1314 1.391 . S
C1313 C1312 1.386 . S
C1313 C1317 1.393 . S
C1314 H1303 0.950 . S
C1314 C1312 1.391 . S
C1314 C1315 1.400 . S
C1315 C1309 1.491 . S
C1315 C1314 1.400 . S
C1315 C1316 1.398 . S
C1316 H1304 0.950 . S
C1316 C1315 1.398 . S
C1316 C1317 1.391 . S
C1317 H1305 0.950 1_554 S
C1317 C1313 1.393 . S
C1317 C1316 1.391 . S
H1318 C1326 0.950 . S
H1319 C1331 0.950 . S
H1320 C1328 0.950 . S
H1321 C1330 0.950 . S
H1322 C1332 0.950 1_556 S
H1323 C1334 0.950 . S
H1324 C1336 0.950 . S
H1325 C1337 0.950 . S
C1326 H1318 0.950 . S
C1326 C1327 1.386 . S
C1326 C1328 1.391 . S
C1327 C1326 1.386 . S
C1327 C1331 1.393 . S
C1328 H1320 0.950 . S
C1328 C1326 1.391 . S
C1328 C1329 1.400 . S
C1329 C1328 1.400 . S
C1329 C1330 1.398 . S
C1329 C1335 1.491 . S
C1330 H1321 0.950 . S
C1330 C1329 1.398 . S
C1330 C1331 1.391 . S
C1331 H1319 0.950 . S
C1331 C1327 1.393 . S
C1331 C1330 1.391 . S
C1332 H1322 0.950 1_554 S
C1332 C1333 1.386 . S
C1332 C1334 1.391 . S
C1333 C1332 1.386 . S
C1333 C1337 1.393 . S
C1334 H1323 0.950 . S
C1334 C1332 1.391 . S
C1334 C1335 1.400 . S
C1335 C1329 1.491 . S
C1335 C1334 1.400 . S
C1335 C1336 1.398 . S
C1336 H1324 0.950 . S
C1336 C1335 1.398 . S
C1336 C1337 1.391 . S
C1337 H1325 0.950 . S
C1337 C1333 1.393 . S
C1337 C1336 1.391 . S
H1338 C1346 0.950 . S
H1339 C1351 0.950 . S
H1340 C1348 0.950 . S
H1341 C1350 0.950 . S
H1342 C1352 0.950 . S
H1343 C1354 0.950 . S
H1344 C1356 0.950 . S
H1345 C1357 0.950 . S
C1346 H1338 0.950 . S
C1346 C1347 1.386 . S
C1346 C1348 1.391 . S
C1347 C1346 1.386 . S
C1347 C1351 1.393 . S
C1348 H1340 0.950 . S
C1348 C1346 1.391 . S
C1348 C1349 1.400 . S
C1349 C1348 1.400 . S
C1349 C1350 1.398 . S
C1349 C1355 1.491 1_655 S
C1350 H1341 0.950 . S
C1350 C1349 1.398 . S
C1350 C1351 1.391 . S
C1351 H1339 0.950 . S
C1351 C1347 1.393 . S
C1351 C1350 1.391 . S
C1352 H1342 0.950 . S
C1352 C1353 1.386 . S
C1352 C1354 1.391 . S
C1353 C1352 1.386 . S
C1353 C1357 1.393 . S
C1354 H1343 0.950 . S
C1354 C1352 1.391 . S
C1354 C1355 1.400 . S
C1355 C1349 1.491 1_455 S
C1355 C1354 1.400 . S
C1355 C1356 1.398 . S
C1356 H1344 0.950 . S
C1356 C1355 1.398 . S
C1356 C1357 1.391 . S
C1357 H1345 0.950 . S
C1357 C1353 1.393 . S
C1357 C1356 1.391 . S
H1358 C1366 0.950 . S
H1359 C1371 0.950 . S
H1360 C1368 0.950 . S
H1361 C1370 0.950 . S
H1362 C1372 0.950 . S
H1363 C1374 0.950 . S
H1364 C1376 0.950 . S
H1365 C1377 0.950 . S
C1366 H1358 0.950 . S
C1366 C1367 1.386 . S
C1366 C1368 1.391 . S
C1367 C1366 1.386 . S
C1367 C1371 1.393 . S
C1368 H1360 0.950 . S
C1368 C1366 1.391 . S
C1368 C1369 1.400 . S
C1369 C1368 1.400 . S
C1369 C1370 1.398 . S
C1369 C1375 1.491 . S
C1370 H1361 0.950 . S
C1370 C1369 1.398 . S
C1370 C1371 1.391 . S
C1371 H1359 0.950 . S
C1371 C1367 1.393 . S
C1371 C1370 1.391 . S
C1372 H1362 0.950 . S
C1372 C1373 1.386 . S
C1372 C1374 1.391 . S
C1373 C1372 1.386 . S
C1373 C1377 1.393 . S
C1374 H1363 0.950 . S
C1374 C1372 1.391 . S
C1374 C1375 1.400 . S
C1375 C1369 1.491 . S
C1375 C1374 1.400 . S
C1375 C1376 1.398 . S
C1376 H1364 0.950 . S
C1376 C1375 1.398 . S
C1376 C1377 1.391 . S
C1377 H1365 0.950 . S
C1377 C1373 1.393 . S
C1377 C1376 1.391 . S
H1378 C1386 0.950 . S
H1379 C1391 0.950 . S
H1380 C1388 0.950 . S
H1381 C1390 0.950 . S
H1382 C1392 0.950 . S
H1383 C1394 0.950 1_545 S
H1384 C1396 0.950 . S
H1385 C1397 0.950 . S
C1386 H1378 0.950 . S
C1386 C1387 1.386 . S
C1386 C1388 1.391 . S
C1387 C1386 1.386 . S
C1387 C1391 1.393 . S
C1388 H1380 0.950 . S
C1388 C1386 1.391 . S
C1388 C1389 1.400 . S
C1389 C1388 1.400 . S
C1389 C1390 1.398 . S
C1389 C1395 1.491 1_545 S
C1390 H1381 0.950 . S
C1390 C1389 1.398 . S
C1390 C1391 1.391 . S
C1391 H1379 0.950 . S
C1391 C1387 1.393 . S
C1391 C1390 1.391 . S
C1392 H1382 0.950 . S
C1392 C1393 1.386 . S
C1392 C1394 1.391 . S
C1393 C1392 1.386 . S
C1393 C1397 1.393 . S
C1394 H1383 0.950 1_565 S
C1394 C1392 1.391 . S
C1394 C1395 1.400 . S
C1395 C1389 1.491 1_565 S
C1395 C1394 1.400 . S
C1395 C1396 1.398 . S
C1396 H1384 0.950 . S
C1396 C1395 1.398 . S
C1396 C1397 1.391 . S
C1397 H1385 0.950 . S
C1397 C1393 1.393 . S
C1397 C1396 1.391 . S
H1398 C1406 0.950 . S
H1399 C1411 0.950 . S
H1400 C1408 0.950 . S
H1401 C1410 0.950 . S
H1402 C1412 0.950 . S
H1403 C1414 0.950 . S
H1404 C1416 0.950 . S
H1405 C1417 0.950 . S
C1406 H1398 0.950 . S
C1406 C1407 1.386 . S
C1406 C1408 1.391 . S
C1407 C1406 1.386 . S
C1407 C1411 1.393 . S
C1408 H1400 0.950 . S
C1408 C1406 1.391 . S
C1408 C1409 1.400 . S
C1409 C1408 1.400 . S
C1409 C1410 1.398 . S
C1409 C1415 1.491 . S
C1410 H1401 0.950 . S
C1410 C1409 1.398 . S
C1410 C1411 1.391 . S
C1411 H1399 0.950 . S
C1411 C1407 1.393 . S
C1411 C1410 1.391 . S
C1412 H1402 0.950 . S
C1412 C1413 1.386 . S
C1412 C1414 1.391 . S
C1413 C1412 1.386 . S
C1413 C1417 1.393 . S
C1414 H1403 0.950 . S
C1414 C1412 1.391 . S
C1414 C1415 1.400 . S
C1415 C1409 1.491 . S
C1415 C1414 1.400 . S
C1415 C1416 1.398 . S
C1416 H1404 0.950 . S
C1416 C1415 1.398 . S
C1416 C1417 1.391 . S
C1417 H1405 0.950 . S
C1417 C1413 1.393 . S
C1417 C1416 1.391 . S
H1418 C1426 0.950 . S
H1419 C1431 0.950 . S
H1420 C1428 0.950 . S
H1421 C1430 0.950 . S
H1422 C1432 0.950 . S
H1423 C1434 0.950 . S
H1424 C1436 0.950 . S
H1425 C1437 0.950 . S
C1426 H1418 0.950 . S
C1426 C1427 1.386 . S
C1426 C1428 1.391 . S
C1427 C1426 1.386 . S
C1427 C1431 1.393 . S
C1428 H1420 0.950 . S
C1428 C1426 1.391 . S
C1428 C1429 1.400 . S
C1429 C1428 1.400 . S
C1429 C1430 1.398 . S
C1429 C1435 1.491 . S
C1430 H1421 0.950 . S
C1430 C1429 1.398 . S
C1430 C1431 1.391 . S
C1431 H1419 0.950 . S
C1431 C1427 1.393 . S
C1431 C1430 1.391 . S
C1432 H1422 0.950 . S
C1432 C1433 1.386 . S
C1432 C1434 1.391 . S
C1433 C1432 1.386 . S
C1433 C1437 1.393 . S
C1434 H1423 0.950 . S
C1434 C1432 1.391 . S
C1434 C1435 1.400 . S
C1435 C1429 1.491 . S
C1435 C1434 1.400 . S
C1435 C1436 1.398 . S
C1436 H1424 0.950 . S
C1436 C1435 1.398 . S
C1436 C1437 1.391 . S
C1437 H1425 0.950 . S
C1437 C1433 1.393 . S
C1437 C1436 1.391 . S
H1438 C1446 0.950 . S
H1439 C1451 0.950 . S
H1440 C1448 0.950 . S
H1441 C1450 0.950 . S
H1442 C1452 0.950 . S
H1443 C1454 0.950 . S
H1444 C1456 0.950 . S
H1445 C1457 0.950 . S
C1446 H1438 0.950 . S
C1446 C1447 1.386 . S
C1446 C1448 1.391 . S
C1447 C1446 1.386 . S
C1447 C1451 1.393 . S
C1448 H1440 0.950 . S
C1448 C1446 1.391 . S
C1448 C1449 1.400 . S
C1449 C1448 1.400 . S
C1449 C1450 1.398 . S
C1449 C1455 1.491 . S
C1450 H1441 0.950 . S
C1450 C1449 1.398 . S
C1450 C1451 1.391 . S
C1451 H1439 0.950 . S
C1451 C1447 1.393 . S
C1451 C1450 1.391 . S
C1452 H1442 0.950 . S
C1452 C1453 1.386 . S
C1452 C1454 1.391 . S
C1453 C1452 1.386 . S
C1453 C1457 1.393 . S
C1454 H1443 0.950 . S
C1454 C1452 1.391 . S
C1454 C1455 1.400 . S
C1455 C1449 1.491 . S
C1455 C1454 1.400 . S
C1455 C1456 1.398 . S
C1456 H1444 0.950 . S
C1456 C1455 1.398 . S
C1456 C1457 1.391 . S
C1457 H1445 0.950 . S
C1457 C1453 1.393 . S
C1457 C1456 1.391 . S
H1458 C1466 0.950 . S
H1459 C1471 0.950 . S
H1460 C1468 0.950 . S
H1461 C1470 0.950 . S
H1462 C1472 0.950 . S
H1463 C1474 0.950 . S
H1464 C1476 0.950 . S
H1465 C1477 0.950 . S
C1466 H1458 0.950 . S
C1466 C1467 1.386 . S
C1466 C1468 1.391 . S
C1467 C1466 1.386 . S
C1467 C1471 1.393 . S
C1468 H1460 0.950 . S
C1468 C1466 1.391 . S
C1468 C1469 1.400 . S
C1469 C1468 1.400 . S
C1469 C1470 1.398 . S
C1469 C1475 1.491 . S
C1470 H1461 0.950 . S
C1470 C1469 1.398 . S
C1470 C1471 1.391 . S
C1471 H1459 0.950 . S
C1471 C1467 1.393 . S
C1471 C1470 1.391 . S
C1472 H1462 0.950 . S
C1472 C1473 1.386 . S
C1472 C1474 1.391 . S
C1473 C1472 1.386 . S
C1473 C1477 1.393 . S
C1474 H1463 0.950 . S
C1474 C1472 1.391 . S
C1474 C1475 1.400 . S
C1475 C1469 1.491 . S
C1475 C1474 1.400 . S
C1475 C1476 1.398 . S
C1476 H1464 0.950 . S
C1476 C1475 1.398 . S
C1476 C1477 1.391 . S
C1477 H1465 0.950 . S
C1477 C1473 1.393 . S
C1477 C1476 1.391 . S
H1478 C1486 0.950 . S
H1479 C1491 0.950 . S
H1480 C1488 0.950 . S
H1481 C1490 0.950 . S
H1482 C1492 0.950 . S
H1483 C1494 0.950 . S
H1484 C1496 0.950 . S
H1485 C1497 0.950 . S
C1486 H1478 0.950 . S
C1486 C1487 1.386 . S
C1486 C1488 1.391 . S
C1487 C1486 1.386 . S
C1487 C1491 1.393 . S
C1488 H1480 0.950 . S
C1488 C1486 1.391 . S
C1488 C1489 1.400 . S
C1489 C1488 1.400 . S
C1489 C1490 1.398 . S
C1489 C1495 1.491 . S
C1490 H1481 0.950 . S
C1490 C1489 1.398 . S
C1490 C1491 1.391 . S
C1491 H1479 0.950 . S
C1491 C1487 1.393 . S
C1491 C1490 1.391 . S
C1492 H1482 0.950 . S
C1492 C1493 1.386 . S
C1492 C1494 1.391 . S
C1493 C1492 1.386 . S
C1493 C1497 1.393 . S
C1494 H1483 0.950 . S
C1494 C1492 1.391 . S
C1494 C1495 1.400 . S
C1495 C1489 1.491 . S
C1495 C1494 1.400 . S
C1495 C1496 1.398 . S
C1496 H1484 0.950 . S
C1496 C1495 1.398 . S
C1496 C1497 1.391 . S
C1497 H1485 0.950 . S
C1497 C1493 1.393 . S
C1497 C1496 1.391 . S
H1498 C1506 0.950 . S
H1499 C1511 0.950 . S
H1500 C1508 0.950 . S
H1501 C1510 0.950 . S
H1502 C1512 0.950 . S
H1503 C1514 0.950 . S
H1504 C1516 0.950 . S
H1505 C1517 0.950 . S
C1506 H1498 0.950 . S
C1506 C1507 1.386 . S
C1506 C1508 1.391 . S
C1507 C1506 1.386 . S
C1507 C1511 1.393 . S
C1508 H1500 0.950 . S
C1508 C1506 1.391 . S
C1508 C1509 1.400 . S
C1509 C1508 1.400 . S
C1509 C1510 1.398 . S
C1509 C1515 1.491 . S
C1510 H1501 0.950 . S
C1510 C1509 1.398 . S
C1510 C1511 1.391 . S
C1511 H1499 0.950 . S
C1511 C1507 1.393 . S
C1511 C1510 1.391 . S
C1512 H1502 0.950 . S
C1512 C1513 1.386 . S
C1512 C1514 1.391 . S
C1513 C1512 1.386 . S
C1513 C1517 1.393 . S
C1514 H1503 0.950 . S
C1514 C1512 1.391 . S
C1514 C1515 1.400 . S
C1515 C1509 1.491 . S
C1515 C1514 1.400 . S
C1515 C1516 1.398 . S
C1516 H1504 0.950 . S
C1516 C1515 1.398 . S
C1516 C1517 1.391 . S
C1517 H1505 0.950 . S
C1517 C1513 1.393 . S
C1517 C1516 1.391 . S
H1518 C1526 0.950 . S
H1519 C1531 0.950 . S
H1520 C1528 0.950 . S
H1521 C1530 0.950 . S
H1522 C1532 0.950 . S
H1523 C1534 0.950 . S
H1524 C1536 0.950 . S
H1525 C1537 0.950 . S
C1526 H1518 0.950 . S
C1526 C1527 1.386 . S
C1526 C1528 1.391 . S
C1527 C1526 1.386 . S
C1527 C1531 1.393 . S
C1528 H1520 0.950 . S
C1528 C1526 1.391 . S
C1528 C1529 1.400 . S
C1529 C1528 1.400 . S
C1529 C1530 1.398 . S
C1529 C1535 1.491 . S
C1530 H1521 0.950 . S
C1530 C1529 1.398 . S
C1530 C1531 1.391 . S
C1531 H1519 0.950 . S
C1531 C1527 1.393 . S
C1531 C1530 1.391 . S
C1532 H1522 0.950 . S
C1532 C1533 1.386 . S
C1532 C1534 1.391 . S
C1533 C1532 1.386 . S
C1533 C1537 1.393 . S
C1534 H1523 0.950 . S
C1534 C1532 1.391 . S
C1534 C1535 1.400 . S
C1535 C1529 1.491 . S
C1535 C1534 1.400 . S
C1535 C1536 1.398 . S
C1536 H1524 0.950 . S
C1536 C1535 1.398 . S
C1536 C1537 1.391 . S
C1537 H1525 0.950 . S
C1537 C1533 1.393 . S
C1537 C1536 1.391 . S
H1538 C1546 0.950 . S
H1539 C1551 0.950 . S
H1540 C1548 0.950 . S
H1541 C1550 0.950 . S
H1542 C1552 0.950 . S
H1543 C1554 0.950 . S
H1544 C1556 0.950 . S
H1545 C1557 0.950 . S
C1546 H1538 0.950 . S
C1546 C1547 1.386 . S
C1546 C1548 1.391 . S
C1547 C1546 1.386 . S
C1547 C1551 1.393 . S
C1548 H1540 0.950 . S
C1548 C1546 1.391 . S
C1548 C1549 1.400 . S
C1549 C1548 1.400 . S
C1549 C1550 1.398 . S
C1549 C1555 1.491 . S
C1550 H1541 0.950 . S
C1550 C1549 1.398 . S
C1550 C1551 1.391 . S
C1551 H1539 0.950 . S
C1551 C1547 1.393 . S
C1551 C1550 1.391 . S
C1552 H1542 0.950 . S
C1552 C1553 1.386 . S
C1552 C1554 1.391 . S
C1553 C1552 1.386 . S
C1553 C1557 1.393 . S
C1554 H1543 0.950 . S
C1554 C1552 1.391 . S
C1554 C1555 1.400 . S
C1555 C1549 1.491 . S
C1555 C1554 1.400 . S
C1555 C1556 1.398 . S
C1556 H1544 0.950 . S
C1556 C1555 1.398 . S
C1556 C1557 1.391 . S
C1557 H1545 0.950 . S
C1557 C1553 1.393 . S
C1557 C1556 1.391 . S
H1558 C1566 0.950 . S
H1559 C1571 0.950 . S
H1560 C1568 0.950 . S
H1561 C1570 0.950 . S
H1562 C1572 0.950 . S
H1563 C1574 0.950 . S
H1564 C1576 0.950 . S
H1565 C1577 0.950 . S
C1566 H1558 0.950 . S
C1566 C1567 1.386 . S
C1566 C1568 1.391 . S
C1567 C1566 1.386 . S
C1567 C1571 1.393 . S
C1568 H1560 0.950 . S
C1568 C1566 1.391 . S
C1568 C1569 1.400 . S
C1569 C1568 1.400 . S
C1569 C1570 1.398 . S
C1569 C1575 1.491 . S
C1570 H1561 0.950 . S
C1570 C1569 1.398 . S
C1570 C1571 1.391 . S
C1571 H1559 0.950 . S
C1571 C1567 1.393 . S
C1571 C1570 1.391 . S
C1572 H1562 0.950 . S
C1572 C1573 1.386 . S
C1572 C1574 1.391 . S
C1573 C1572 1.386 . S
C1573 C1577 1.393 . S
C1574 H1563 0.950 . S
C1574 C1572 1.391 . S
C1574 C1575 1.400 . S
C1575 C1569 1.491 . S
C1575 C1574 1.400 . S
C1575 C1576 1.398 . S
C1576 H1564 0.950 . S
C1576 C1575 1.398 . S
C1576 C1577 1.391 . S
C1577 H1565 0.950 . S
C1577 C1573 1.393 . S
C1577 C1576 1.391 . S
H1578 C1586 0.950 . S
H1579 C1591 0.950 . S
H1580 C1588 0.950 . S
H1581 C1590 0.950 . S
H1582 C1592 0.950 . S
H1583 C1594 0.950 . S
H1584 C1596 0.950 . S
H1585 C1597 0.950 . S
C1586 H1578 0.950 . S
C1586 C1587 1.386 . S
C1586 C1588 1.391 . S
C1587 C1586 1.386 . S
C1587 C1591 1.393 . S
C1588 H1580 0.950 . S
C1588 C1586 1.391 . S
C1588 C1589 1.400 . S
C1589 C1588 1.400 . S
C1589 C1590 1.398 . S
C1589 C1595 1.491 . S
C1590 H1581 0.950 . S
C1590 C1589 1.398 . S
C1590 C1591 1.391 . S
C1591 H1579 0.950 . S
C1591 C1587 1.393 . S
C1591 C1590 1.391 . S
C1592 H1582 0.950 . S
C1592 C1593 1.386 . S
C1592 C1594 1.391 . S
C1593 C1592 1.386 . S
C1593 C1597 1.393 . S
C1594 H1583 0.950 . S
C1594 C1592 1.391 . S
C1594 C1595 1.400 . S
C1595 C1589 1.491 . S
C1595 C1594 1.400 . S
C1595 C1596 1.398 . S
C1596 H1584 0.950 . S
C1596 C1595 1.398 . S
C1596 C1597 1.391 . S
C1597 H1585 0.950 . S
C1597 C1593 1.393 . S
C1597 C1596 1.391 . S
H1598 C1606 0.950 . S
H1599 C1611 0.950 . S
H1600 C1608 0.950 . S
H1601 C1610 0.950 . S
H1602 C1612 0.950 . S
H1603 C1614 0.950 . S
H1604 C1616 0.950 . S
H1605 C1617 0.950 . S
C1606 H1598 0.950 . S
C1606 C1607 1.386 . S
C1606 C1608 1.391 . S
C1607 C1606 1.386 . S
C1607 C1611 1.393 . S
C1608 H1600 0.950 . S
C1608 C1606 1.391 . S
C1608 C1609 1.400 . S
C1609 C1608 1.400 . S
C1609 C1610 1.398 . S
C1609 C1615 1.491 . S
C1610 H1601 0.950 . S
C1610 C1609 1.398 . S
C1610 C1611 1.391 . S
C1611 H1599 0.950 . S
C1611 C1607 1.393 . S
C1611 C1610 1.391 . S
C1612 H1602 0.950 . S
C1612 C1613 1.386 . S
C1612 C1614 1.391 . S
C1613 C1612 1.386 . S
C1613 C1617 1.393 . S
C1614 H1603 0.950 . S
C1614 C1612 1.391 . S
C1614 C1615 1.400 . S
C1615 C1609 1.491 . S
C1615 C1614 1.400 . S
C1615 C1616 1.398 . S
C1616 H1604 0.950 . S
C1616 C1615 1.398 . S
C1616 C1617 1.391 . S
C1617 H1605 0.950 . S
C1617 C1613 1.393 . S
C1617 C1616 1.391 . S
H1618 C1626 0.950 . S
H1619 C1631 0.950 . S
H1620 C1628 0.950 . S
H1621 C1630 0.950 . S
H1622 C1632 0.950 . S
H1623 C1634 0.950 . S
H1624 C1636 0.950 . S
H1625 C1637 0.950 . S
C1626 H1618 0.950 . S
C1626 C1627 1.386 . S
C1626 C1628 1.391 . S
C1627 C1626 1.386 . S
C1627 C1631 1.393 . S
C1628 H1620 0.950 . S
C1628 C1626 1.391 . S
C1628 C1629 1.400 . S
C1629 C1628 1.400 . S
C1629 C1630 1.398 . S
C1629 C1635 1.491 . S
C1630 H1621 0.950 . S
C1630 C1629 1.398 . S
C1630 C1631 1.391 . S
C1631 H1619 0.950 . S
C1631 C1627 1.393 . S
C1631 C1630 1.391 . S
C1632 H1622 0.950 . S
C1632 C1633 1.386 . S
C1632 C1634 1.391 . S
C1633 C1632 1.386 . S
C1633 C1637 1.393 . S
C1634 H1623 0.950 . S
C1634 C1632 1.391 . S
C1634 C1635 1.400 . S
C1635 C1629 1.491 . S
C1635 C1634 1.400 . S
C1635 C1636 1.398 . S
C1636 H1624 0.950 . S
C1636 C1635 1.398 . S
C1636 C1637 1.391 . S
C1637 H1625 0.950 . S
C1637 C1633 1.393 . S
C1637 C1636 1.391 . S
H1638 C1646 0.950 . S
H1639 C1651 0.950 . S
H1640 C1648 0.950 . S
H1641 C1650 0.950 . S
H1642 C1652 0.950 . S
H1643 C1654 0.950 . S
H1644 C1656 0.950 . S
H1645 C1657 0.950 . S
C1646 H1638 0.950 . S
C1646 C1647 1.386 . S
C1646 C1648 1.391 . S
C1647 C1646 1.386 . S
C1647 C1651 1.393 . S
C1648 H1640 0.950 . S
C1648 C1646 1.391 . S
C1648 C1649 1.400 . S
C1649 C1648 1.400 . S
C1649 C1650 1.398 . S
C1649 C1655 1.491 1_565 S
C1650 H1641 0.950 . S
C1650 C1649 1.398 . S
C1650 C1651 1.391 . S
C1651 H1639 0.950 . S
C1651 C1647 1.393 . S
C1651 C1650 1.391 . S
C1652 H1642 0.950 . S
C1652 C1653 1.386 . S
C1652 C1654 1.391 . S
C1653 C1652 1.386 . S
C1653 C1657 1.393 . S
C1654 H1643 0.950 . S
C1654 C1652 1.391 . S
C1654 C1655 1.400 . S
C1655 C1649 1.491 1_545 S
C1655 C1654 1.400 . S
C1655 C1656 1.398 . S
C1656 H1644 0.950 . S
C1656 C1655 1.398 . S
C1656 C1657 1.391 . S
C1657 H1645 0.950 . S
C1657 C1653 1.393 . S
C1657 C1656 1.391 . S
H1658 C1666 0.950 . S
H1659 C1671 0.950 . S
H1660 C1668 0.950 1_655 S
H1661 C1670 0.950 . S
H1662 C1672 0.950 . S
H1663 C1674 0.950 1_455 S
H1664 C1676 0.950 . S
H1665 C1677 0.950 . S
C1666 H1658 0.950 . S
C1666 C1667 1.386 . S
C1666 C1668 1.391 . S
C1667 C1666 1.386 . S
C1667 C1671 1.393 . S
C1668 H1660 0.950 1_455 S
C1668 C1666 1.391 . S
C1668 C1669 1.400 . S
C1669 C1668 1.400 . S
C1669 C1670 1.398 . S
C1669 C1675 1.491 1_455 S
C1670 H1661 0.950 . S
C1670 C1669 1.398 . S
C1670 C1671 1.391 . S
C1671 H1659 0.950 . S
C1671 C1667 1.393 . S
C1671 C1670 1.391 . S
C1672 H1662 0.950 . S
C1672 C1673 1.386 . S
C1672 C1674 1.391 . S
C1673 C1672 1.386 . S
C1673 C1677 1.393 . S
C1674 H1663 0.950 1_655 S
C1674 C1672 1.391 . S
C1674 C1675 1.400 . S
C1675 C1669 1.491 1_655 S
C1675 C1674 1.400 . S
C1675 C1676 1.398 . S
C1676 H1664 0.950 . S
C1676 C1675 1.398 . S
C1676 C1677 1.391 . S
C1677 H1665 0.950 . S
C1677 C1673 1.393 . S
C1677 C1676 1.391 . S
H1678 C1686 0.950 . S
H1679 C1691 0.950 . S
H1680 C1688 0.950 . S
H1681 C1690 0.950 . S
H1682 C1692 0.950 . S
H1683 C1694 0.950 . S
H1684 C1696 0.950 . S
H1685 C1697 0.950 . S
C1686 H1678 0.950 . S
C1686 C1687 1.386 . S
C1686 C1688 1.391 . S
C1687 C1686 1.386 . S
C1687 C1691 1.393 . S
C1688 H1680 0.950 . S
C1688 C1686 1.391 . S
C1688 C1689 1.400 . S
C1689 C1688 1.400 . S
C1689 C1690 1.398 . S
C1689 C1695 1.491 . S
C1690 H1681 0.950 . S
C1690 C1689 1.398 . S
C1690 C1691 1.391 . S
C1691 H1679 0.950 . S
C1691 C1687 1.393 . S
C1691 C1690 1.391 . S
C1692 H1682 0.950 . S
C1692 C1693 1.386 . S
C1692 C1694 1.391 . S
C1693 C1692 1.386 . S
C1693 C1697 1.393 . S
C1694 H1683 0.950 . S
C1694 C1692 1.391 . S
C1694 C1695 1.400 . S
C1695 C1689 1.491 . S
C1695 C1694 1.400 . S
C1695 C1696 1.398 . S
C1696 H1684 0.950 . S
C1696 C1695 1.398 . S
C1696 C1697 1.391 . S
C1697 H1685 0.950 . S
C1697 C1693 1.393 . S
C1697 C1696 1.391 . S
H1698 C1706 0.950 . S
H1699 C1711 0.950 . S
H1700 C1708 0.950 . S
H1701 C1710 0.950 . S
H1702 C1712 0.950 . S
H1703 C1714 0.950 . S
H1704 C1716 0.950 . S
H1705 C1717 0.950 . S
C1706 H1698 0.950 . S
C1706 C1707 1.386 . S
C1706 C1708 1.391 . S
C1707 C1706 1.386 . S
C1707 C1711 1.393 . S
C1708 H1700 0.950 . S
C1708 C1706 1.391 . S
C1708 C1709 1.400 . S
C1709 C1708 1.400 . S
C1709 C1710 1.398 . S
C1709 C1715 1.491 . S
C1710 H1701 0.950 . S
C1710 C1709 1.398 . S
C1710 C1711 1.391 . S
C1711 H1699 0.950 . S
C1711 C1707 1.393 . S
C1711 C1710 1.391 . S
C1712 H1702 0.950 . S
C1712 C1713 1.386 . S
C1712 C1714 1.391 . S
C1713 C1712 1.386 . S
C1713 C1717 1.393 . S
C1714 H1703 0.950 . S
C1714 C1712 1.391 . S
C1714 C1715 1.400 . S
C1715 C1709 1.491 . S
C1715 C1714 1.400 . S
C1715 C1716 1.398 . S
C1716 H1704 0.950 . S
C1716 C1715 1.398 . S
C1716 C1717 1.391 . S
C1717 H1705 0.950 . S
C1717 C1713 1.393 . S
C1717 C1716 1.391 . S
H1718 C1726 0.950 . S
H1719 C1731 0.950 . S
H1720 C1728 0.950 . S
H1721 C1730 0.950 . S
H1722 C1732 0.950 . S
H1723 C1734 0.950 . S
H1724 C1736 0.950 . S
H1725 C1737 0.950 . S
C1726 H1718 0.950 . S
C1726 C1727 1.386 . S
C1726 C1728 1.391 . S
C1727 C1726 1.386 . S
C1727 C1731 1.393 . S
C1728 H1720 0.950 . S
C1728 C1726 1.391 . S
C1728 C1729 1.400 . S
C1729 C1728 1.400 . S
C1729 C1730 1.398 . S
C1729 C1735 1.491 . S
C1730 H1721 0.950 . S
C1730 C1729 1.398 . S
C1730 C1731 1.391 . S
C1731 H1719 0.950 . S
C1731 C1727 1.393 . S
C1731 C1730 1.391 . S
C1732 H1722 0.950 . S
C1732 C1733 1.386 . S
C1732 C1734 1.391 . S
C1733 C1732 1.386 . S
C1733 C1737 1.393 . S
C1734 H1723 0.950 . S
C1734 C1732 1.391 . S
C1734 C1735 1.400 . S
C1735 C1729 1.491 . S
C1735 C1734 1.400 . S
C1735 C1736 1.398 . S
C1736 H1724 0.950 . S
C1736 C1735 1.398 . S
C1736 C1737 1.391 . S
C1737 H1725 0.950 . S
C1737 C1733 1.393 . S
C1737 C1736 1.391 . S
H1738 C1746 0.950 . S
H1739 C1751 0.950 . S
H1740 C1748 0.950 . S
H1741 C1750 0.950 . S
H1742 C1752 0.950 . S
H1743 C1754 0.950 . S
H1744 C1756 0.950 . S
H1745 C1757 0.950 . S
C1746 H1738 0.950 . S
C1746 C1747 1.386 . S
C1746 C1748 1.391 . S
C1747 C1746 1.386 . S
C1747 C1751 1.393 . S
C1748 H1740 0.950 . S
C1748 C1746 1.391 . S
C1748 C1749 1.400 . S
C1749 C1748 1.400 . S
C1749 C1750 1.398 . S
C1749 C1755 1.491 . S
C1750 H1741 0.950 . S
C1750 C1749 1.398 . S
C1750 C1751 1.391 . S
C1751 H1739 0.950 . S
C1751 C1747 1.393 . S
C1751 C1750 1.391 . S
C1752 H1742 0.950 . S
C1752 C1753 1.386 . S
C1752 C1754 1.391 . S
C1753 C1752 1.386 . S
C1753 C1757 1.393 . S
C1754 H1743 0.950 . S
C1754 C1752 1.391 . S
C1754 C1755 1.400 . S
C1755 C1749 1.491 . S
C1755 C1754 1.400 . S
C1755 C1756 1.398 . S
C1756 H1744 0.950 . S
C1756 C1755 1.398 . S
C1756 C1757 1.391 . S
C1757 H1745 0.950 . S
C1757 C1753 1.393 . S
C1757 C1756 1.391 . S
H1758 C1766 0.950 . S
H1759 C1771 0.950 . S
H1760 C1768 0.950 . S
H1761 C1770 0.950 . S
H1762 C1772 0.950 . S
H1763 C1774 0.950 . S
H1764 C1776 0.950 . S
H1765 C1777 0.950 . S
C1766 H1758 0.950 . S
C1766 C1767 1.386 . S
C1766 C1768 1.391 . S
C1767 C1766 1.386 . S
C1767 C1771 1.393 . S
C1768 H1760 0.950 . S
C1768 C1766 1.391 . S
C1768 C1769 1.400 . S
C1769 C1768 1.400 . S
C1769 C1770 1.398 . S
C1769 C1775 1.491 . S
C1770 H1761 0.950 . S
C1770 C1769 1.398 . S
C1770 C1771 1.391 . S
C1771 H1759 0.950 . S
C1771 C1767 1.393 . S
C1771 C1770 1.391 . S
C1772 H1762 0.950 . S
C1772 C1773 1.386 . S
C1772 C1774 1.391 . S
C1773 C1772 1.386 . S
C1773 C1777 1.393 . S
C1774 H1763 0.950 . S
C1774 C1772 1.391 . S
C1774 C1775 1.400 . S
C1775 C1769 1.491 . S
C1775 C1774 1.400 . S
C1775 C1776 1.398 . S
C1776 H1764 0.950 . S
C1776 C1775 1.398 . S
C1776 C1777 1.391 . S
C1777 H1765 0.950 . S
C1777 C1773 1.393 . S
C1777 C1776 1.391 . S
H1778 C1786 0.950 . S
H1779 C1791 0.950 . S
H1780 C1788 0.950 . S
H1781 C1790 0.950 . S
H1782 C1792 0.950 . S
H1783 C1794 0.950 . S
H1784 C1796 0.950 . S
H1785 C1797 0.950 . S
C1786 H1778 0.950 . S
C1786 C1787 1.386 . S
C1786 C1788 1.391 . S
C1787 C1786 1.386 . S
C1787 C1791 1.393 . S
C1788 H1780 0.950 . S
C1788 C1786 1.391 . S
C1788 C1789 1.400 . S
C1789 C1788 1.400 . S
C1789 C1790 1.398 . S
C1789 C1795 1.491 . S
C1790 H1781 0.950 . S
C1790 C1789 1.398 . S
C1790 C1791 1.391 . S
C1791 H1779 0.950 . S
C1791 C1787 1.393 . S
C1791 C1790 1.391 . S
C1792 H1782 0.950 . S
C1792 C1793 1.386 . S
C1792 C1794 1.391 . S
C1793 C1792 1.386 . S
C1793 C1797 1.393 . S
C1794 H1783 0.950 . S
C1794 C1792 1.391 . S
C1794 C1795 1.400 . S
C1795 C1789 1.491 . S
C1795 C1794 1.400 . S
C1795 C1796 1.398 . S
C1796 H1784 0.950 . S
C1796 C1795 1.398 . S
C1796 C1797 1.391 . S
C1797 H1785 0.950 . S
C1797 C1793 1.393 . S
C1797 C1796 1.391 . S
H1798 C1806 0.950 . S
H1799 C1811 0.950 . S
H1800 C1808 0.950 . S
H1801 C1810 0.950 . S
H1802 C1812 0.950 . S
H1803 C1814 0.950 . S
H1804 C1816 0.950 . S
H1805 C1817 0.950 . S
C1806 H1798 0.950 . S
C1806 C1807 1.386 . S
C1806 C1808 1.391 . S
C1807 C1806 1.386 . S
C1807 C1811 1.393 . S
C1808 H1800 0.950 . S
C1808 C1806 1.391 . S
C1808 C1809 1.400 . S
C1809 C1808 1.400 . S
C1809 C1810 1.398 . S
C1809 C1815 1.491 . S
C1810 H1801 0.950 . S
C1810 C1809 1.398 . S
C1810 C1811 1.391 . S
C1811 H1799 0.950 . S
C1811 C1807 1.393 . S
C1811 C1810 1.391 . S
C1812 H1802 0.950 . S
C1812 C1813 1.386 . S
C1812 C1814 1.391 . S
C1813 C1812 1.386 . S
C1813 C1817 1.393 . S
C1814 H1803 0.950 . S
C1814 C1812 1.391 . S
C1814 C1815 1.400 . S
C1815 C1809 1.491 . S
C1815 C1814 1.400 . S
C1815 C1816 1.398 . S
C1816 H1804 0.950 . S
C1816 C1815 1.398 . S
C1816 C1817 1.391 . S
C1817 H1805 0.950 . S
C1817 C1813 1.393 . S
C1817 C1816 1.391 . S
H1818 C1826 0.950 . S
H1819 C1831 0.950 . S
H1820 C1828 0.950 . S
H1821 C1830 0.950 . S
H1822 C1832 0.950 . S
H1823 C1834 0.950 . S
H1824 C1836 0.950 . S
H1825 C1837 0.950 . S
C1826 H1818 0.950 . S
C1826 C1827 1.386 . S
C1826 C1828 1.391 . S
C1827 C1826 1.386 . S
C1827 C1831 1.393 . S
C1828 H1820 0.950 . S
C1828 C1826 1.391 . S
C1828 C1829 1.400 . S
C1829 C1828 1.400 . S
C1829 C1830 1.398 . S
C1829 C1835 1.491 . S
C1830 H1821 0.950 . S
C1830 C1829 1.398 . S
C1830 C1831 1.391 . S
C1831 H1819 0.950 . S
C1831 C1827 1.393 . S
C1831 C1830 1.391 . S
C1832 H1822 0.950 . S
C1832 C1833 1.386 . S
C1832 C1834 1.391 . S
C1833 C1832 1.386 . S
C1833 C1837 1.393 . S
C1834 H1823 0.950 . S
C1834 C1832 1.391 . S
C1834 C1835 1.400 . S
C1835 C1829 1.491 . S
C1835 C1834 1.400 . S
C1835 C1836 1.398 . S
C1836 H1824 0.950 . S
C1836 C1835 1.398 . S
C1836 C1837 1.391 . S
C1837 H1825 0.950 . S
C1837 C1833 1.393 . S
C1837 C1836 1.391 . S
H1838 C1846 0.950 . S
H1839 C1851 0.950 . S
H1840 C1848 0.950 . S
H1841 C1850 0.950 . S
H1842 C1852 0.950 . S
H1843 C1854 0.950 . S
H1844 C1856 0.950 . S
H1845 C1857 0.950 . S
C1846 H1838 0.950 . S
C1846 C1847 1.386 . S
C1846 C1848 1.391 . S
C1847 C1846 1.386 . S
C1847 C1851 1.393 . S
C1848 H1840 0.950 . S
C1848 C1846 1.391 . S
C1848 C1849 1.400 . S
C1849 C1848 1.400 . S
C1849 C1850 1.398 . S
C1849 C1855 1.491 . S
C1850 H1841 0.950 . S
C1850 C1849 1.398 . S
C1850 C1851 1.391 . S
C1851 H1839 0.950 . S
C1851 C1847 1.393 . S
C1851 C1850 1.391 . S
C1852 H1842 0.950 . S
C1852 C1853 1.386 . S
C1852 C1854 1.391 . S
C1853 C1852 1.386 . S
C1853 C1857 1.393 . S
C1854 H1843 0.950 . S
C1854 C1852 1.391 . S
C1854 C1855 1.400 . S
C1855 C1849 1.491 . S
C1855 C1854 1.400 . S
C1855 C1856 1.398 . S
C1856 H1844 0.950 . S
C1856 C1855 1.398 . S
C1856 C1857 1.391 . S
C1857 H1845 0.950 . S
C1857 C1853 1.393 . S
C1857 C1856 1.391 . S
H1858 C1866 0.950 . S
H1859 C1871 0.950 . S
H1860 C1868 0.950 . S
H1861 C1870 0.950 . S
H1862 C1872 0.950 . S
H1863 C1874 0.950 . S
H1864 C1876 0.950 . S
H1865 C1877 0.950 . S
C1866 H1858 0.950 . S
C1866 C1867 1.386 . S
C1866 C1868 1.391 . S
C1867 C1866 1.386 . S
C1867 C1871 1.393 . S
C1868 H1860 0.950 . S
C1868 C1866 1.391 . S
C1868 C1869 1.400 . S
C1869 C1868 1.400 . S
C1869 C1870 1.398 . S
C1869 C1875 1.491 . S
C1870 H1861 0.950 . S
C1870 C1869 1.398 . S
C1870 C1871 1.391 . S
C1871 H1859 0.950 . S
C1871 C1867 1.393 . S
C1871 C1870 1.391 . S
C1872 H1862 0.950 . S
C1872 C1873 1.386 . S
C1872 C1874 1.391 . S
C1873 C1872 1.386 . S
C1873 C1877 1.393 . S
C1874 H1863 0.950 . S
C1874 C1872 1.391 . S
C1874 C1875 1.400 . S
C1875 C1869 1.491 . S
C1875 C1874 1.400 . S
C1875 C1876 1.398 . S
C1876 H1864 0.950 . S
C1876 C1875 1.398 . S
C1876 C1877 1.391 . S
C1877 H1865 0.950 . S
C1877 C1873 1.393 . S
C1877 C1876 1.391 . S
H1878 C1886 0.950 . S
H1879 C1891 0.950 . S
H1880 C1888 0.950 . S
H1881 C1890 0.950 . S
H1882 C1892 0.950 . S
H1883 C1894 0.950 . S
H1884 C1896 0.950 . S
H1885 C1897 0.950 . S
C1886 H1878 0.950 . S
C1886 C1887 1.386 . S
C1886 C1888 1.391 . S
C1887 C1886 1.386 . S
C1887 C1891 1.393 . S
C1888 H1880 0.950 . S
C1888 C1886 1.391 . S
C1888 C1889 1.400 . S
C1889 C1888 1.400 . S
C1889 C1890 1.398 . S
C1889 C1895 1.491 . S
C1890 H1881 0.950 . S
C1890 C1889 1.398 . S
C1890 C1891 1.391 . S
C1891 H1879 0.950 . S
C1891 C1887 1.393 . S
C1891 C1890 1.391 . S
C1892 H1882 0.950 . S
C1892 C1893 1.386 . S
C1892 C1894 1.391 . S
C1893 C1892 1.386 . S
C1893 C1897 1.393 . S
C1894 H1883 0.950 . S
C1894 C1892 1.391 . S
C1894 C1895 1.400 . S
C1895 C1889 1.491 . S
C1895 C1894 1.400 . S
C1895 C1896 1.398 . S
C1896 H1884 0.950 . S
C1896 C1895 1.398 . S
C1896 C1897 1.391 . S
C1897 H1885 0.950 . S
C1897 C1893 1.393 . S
C1897 C1896 1.391 . S
H1898 C1906 0.950 . S
H1899 C1911 0.950 . S
H1900 C1908 0.950 . S
H1901 C1910 0.950 . S
H1902 C1912 0.950 . S
H1903 C1914 0.950 . S
H1904 C1916 0.950 . S
H1905 C1917 0.950 . S
C1906 H1898 0.950 . S
C1906 C1907 1.386 . S
C1906 C1908 1.391 . S
C1907 C1906 1.386 . S
C1907 C1911 1.393 . S
C1908 H1900 0.950 . S
C1908 C1906 1.391 . S
C1908 C1909 1.400 . S
C1909 C1908 1.400 . S
C1909 C1910 1.398 . S
C1909 C1915 1.491 . S
C1910 H1901 0.950 . S
C1910 C1909 1.398 . S
C1910 C1911 1.391 . S
C1911 H1899 0.950 . S
C1911 C1907 1.393 . S
C1911 C1910 1.391 . S
C1912 H1902 0.950 . S
C1912 C1913 1.386 . S
C1912 C1914 1.391 . S
C1913 C1912 1.386 . S
C1913 C1917 1.393 . S
C1914 H1903 0.950 . S
C1914 C1912 1.391 . S
C1914 C1915 1.400 . S
C1915 C1909 1.491 . S
C1915 C1914 1.400 . S
C1915 C1916 1.398 . S
C1916 H1904 0.950 . S
C1916 C1915 1.398 . S
C1916 C1917 1.391 . S
C1917 H1905 0.950 . S
C1917 C1913 1.393 . S
C1917 C1916 1.391 . S
H1918 C1926 0.950 . S
H1919 C1931 0.950 . S
H1920 C1928 0.950 . S
H1921 C1930 0.950 . S
H1922 C1932 0.950 . S
H1923 C1934 0.950 . S
H1924 C1936 0.950 . S
H1925 C1937 0.950 . S
C1926 H1918 0.950 . S
C1926 C1927 1.386 . S
C1926 C1928 1.391 . S
C1927 C1926 1.386 . S
C1927 C1931 1.393 . S
C1928 H1920 0.950 . S
C1928 C1926 1.391 . S
C1928 C1929 1.400 . S
C1929 C1928 1.400 . S
C1929 C1930 1.398 . S
C1929 C1935 1.491 . S
C1930 H1921 0.950 . S
C1930 C1929 1.398 . S
C1930 C1931 1.391 . S
C1931 H1919 0.950 . S
C1931 C1927 1.393 . S
C1931 C1930 1.391 . S
C1932 H1922 0.950 . S
C1932 C1933 1.386 . S
C1932 C1934 1.391 . S
C1933 C1932 1.386 . S
C1933 C1937 1.393 . S
C1934 H1923 0.950 . S
C1934 C1932 1.391 . S
C1934 C1935 1.400 . S
C1935 C1929 1.491 . S
C1935 C1934 1.400 . S
C1935 C1936 1.398 . S
C1936 H1924 0.950 . S
C1936 C1935 1.398 . S
C1936 C1937 1.391 . S
C1937 H1925 0.950 . S
C1937 C1933 1.393 . S
C1937 C1936 1.391 . S
H1938 C1946 0.950 . S
H1939 C1951 0.950 . S
H1940 C1948 0.950 . S
H1941 C1950 0.950 . S
H1942 C1952 0.950 . S
H1943 C1954 0.950 . S
H1944 C1956 0.950 . S
H1945 C1957 0.950 . S
C1946 H1938 0.950 . S
C1946 C1947 1.386 . S
C1946 C1948 1.391 . S
C1947 C1946 1.386 . S
C1947 C1951 1.393 . S
C1948 H1940 0.950 . S
C1948 C1946 1.391 . S
C1948 C1949 1.400 . S
C1949 C1948 1.400 . S
C1949 C1950 1.398 . S
C1949 C1955 1.491 . S
C1950 H1941 0.950 . S
C1950 C1949 1.398 . S
C1950 C1951 1.391 . S
C1951 H1939 0.950 . S
C1951 C1947 1.393 . S
C1951 C1950 1.391 . S
C1952 H1942 0.950 . S
C1952 C1953 1.386 . S
C1952 C1954 1.391 . S
C1953 C1952 1.386 . S
C1953 C1957 1.393 . S
C1954 H1943 0.950 . S
C1954 C1952 1.391 . S
C1954 C1955 1.400 . S
C1955 C1949 1.491 . S
C1955 C1954 1.400 . S
C1955 C1956 1.398 . S
C1956 H1944 0.950 . S
C1956 C1955 1.398 . S
C1956 C1957 1.391 . S
C1957 H1945 0.950 . S
C1957 C1953 1.393 . S
C1957 C1956 1.391 . S
H1958 C1966 0.950 . S
H1959 C1971 0.950 . S
H1960 C1968 0.950 . S
H1961 C1970 0.950 . S
H1962 C1972 0.950 . S
H1963 C1974 0.950 . S
H1964 C1976 0.950 . S
H1965 C1977 0.950 . S
C1966 H1958 0.950 . S
C1966 C1967 1.386 . S
C1966 C1968 1.391 . S
C1967 C1966 1.386 . S
C1967 C1971 1.393 . S
C1968 H1960 0.950 . S
C1968 C1966 1.391 . S
C1968 C1969 1.400 . S
C1969 C1968 1.400 . S
C1969 C1970 1.398 . S
C1969 C1975 1.491 . S
C1970 H1961 0.950 . S
C1970 C1969 1.398 . S
C1970 C1971 1.391 . S
C1971 H1959 0.950 . S
C1971 C1967 1.393 . S
C1971 C1970 1.391 . S
C1972 H1962 0.950 . S
C1972 C1973 1.386 . S
C1972 C1974 1.391 . S
C1973 C1972 1.386 . S
C1973 C1977 1.393 . S
C1974 H1963 0.950 . S
C1974 C1972 1.391 . S
C1974 C1975 1.400 . S
C1975 C1969 1.491 . S
C1975 C1974 1.400 . S
C1975 C1976 1.398 . S
C1976 H1964 0.950 . S
C1976 C1975 1.398 . S
C1976 C1977 1.391 . S
C1977 H1965 0.950 . S
C1977 C1973 1.393 . S
C1977 C1976 1.391 . S
H1978 C1986 0.950 . S
H1979 C1991 0.950 . S
H1980 C1988 0.950 . S
H1981 C1990 0.950 . S
H1982 C1992 0.950 . S
H1983 C1994 0.950 . S
H1984 C1996 0.950 . S
H1985 C1997 0.950 . S
C1986 H1978 0.950 . S
C1986 C1987 1.386 . S
C1986 C1988 1.391 . S
C1987 C1986 1.386 . S
C1987 C1991 1.393 . S
C1988 H1980 0.950 . S
C1988 C1986 1.391 . S
C1988 C1989 1.400 . S
C1989 C1988 1.400 . S
C1989 C1990 1.398 . S
C1989 C1995 1.491 . S
C1990 H1981 0.950 . S
C1990 C1989 1.398 . S
C1990 C1991 1.391 . S
C1991 H1979 0.950 . S
C1991 C1987 1.393 . S
C1991 C1990 1.391 . S
C1992 H1982 0.950 . S
C1992 C1993 1.386 . S
C1992 C1994 1.391 . S
C1993 C1992 1.386 . S
C1993 C1997 1.393 . S
C1994 H1983 0.950 . S
C1994 C1992 1.391 . S
C1994 C1995 1.400 . S
C1995 C1989 1.491 . S
C1995 C1994 1.400 . S
C1995 C1996 1.398 . S
C1996 H1984 0.950 . S
C1996 C1995 1.398 . S
C1996 C1997 1.391 . S
C1997 H1985 0.950 . S
C1997 C1993 1.393 . S
C1997 C1996 1.391 . S
H1998 C2006 0.950 . S
H1999 C2011 0.950 . S
H2000 C2008 0.950 . S
H2001 C2010 0.950 . S
H2002 C2012 0.950 . S
H2003 C2014 0.950 . S
H2004 C2016 0.950 . S
H2005 C2017 0.950 . S
C2006 H1998 0.950 . S
C2006 C2007 1.386 . S
C2006 C2008 1.391 . S
C2007 C2006 1.386 . S
C2007 C2011 1.393 . S
C2008 H2000 0.950 . S
C2008 C2006 1.391 . S
C2008 C2009 1.400 . S
C2009 C2008 1.400 . S
C2009 C2010 1.398 . S
C2009 C2015 1.491 . S
C2010 H2001 0.950 . S
C2010 C2009 1.398 . S
C2010 C2011 1.391 . S
C2011 H1999 0.950 . S
C2011 C2007 1.393 . S
C2011 C2010 1.391 . S
C2012 H2002 0.950 . S
C2012 C2013 1.386 . S
C2012 C2014 1.391 . S
C2013 C2012 1.386 . S
C2013 C2017 1.393 . S
C2014 H2003 0.950 . S
C2014 C2012 1.391 . S
C2014 C2015 1.400 . S
C2015 C2009 1.491 . S
C2015 C2014 1.400 . S
C2015 C2016 1.398 . S
C2016 H2004 0.950 . S
C2016 C2015 1.398 . S
C2016 C2017 1.391 . S
C2017 H2005 0.950 . S
C2017 C2013 1.393 . S
C2017 C2016 1.391 . S
H2018 C2026 0.950 . S
H2019 C2031 0.950 . S
H2020 C2028 0.950 . S
H2021 C2030 0.950 . S
H2022 C2032 0.950 . S
H2023 C2034 0.950 . S
H2024 C2036 0.950 . S
H2025 C2037 0.950 . S
C2026 H2018 0.950 . S
C2026 C2027 1.386 . S
C2026 C2028 1.391 . S
C2027 C2026 1.386 . S
C2027 C2031 1.393 . S
C2028 H2020 0.950 . S
C2028 C2026 1.391 . S
C2028 C2029 1.400 . S
C2029 C2028 1.400 . S
C2029 C2030 1.398 . S
C2029 C2035 1.491 . S
C2030 H2021 0.950 . S
C2030 C2029 1.398 . S
C2030 C2031 1.391 . S
C2031 H2019 0.950 . S
C2031 C2027 1.393 . S
C2031 C2030 1.391 . S
C2032 H2022 0.950 . S
C2032 C2033 1.386 . S
C2032 C2034 1.391 . S
C2033 C2032 1.386 . S
C2033 C2037 1.393 . S
C2034 H2023 0.950 . S
C2034 C2032 1.391 . S
C2034 C2035 1.400 . S
C2035 C2029 1.491 . S
C2035 C2034 1.400 . S
C2035 C2036 1.398 . S
C2036 H2024 0.950 . S
C2036 C2035 1.398 . S
C2036 C2037 1.391 . S
C2037 H2025 0.950 . S
C2037 C2033 1.393 . S
C2037 C2036 1.391 . S
H2038 C2046 0.950 . S
H2039 C2051 0.950 . S
H2040 C2048 0.950 . S
H2041 C2050 0.950 . S
H2042 C2052 0.950 . S
H2043 C2054 0.950 . S
H2044 C2056 0.950 . S
H2045 C2057 0.950 . S
C2046 H2038 0.950 . S
C2046 C2047 1.386 . S
C2046 C2048 1.391 . S
C2047 C2046 1.386 . S
C2047 C2051 1.393 . S
C2048 H2040 0.950 . S
C2048 C2046 1.391 . S
C2048 C2049 1.400 . S
C2049 C2048 1.400 . S
C2049 C2050 1.398 . S
C2049 C2055 1.491 . S
C2050 H2041 0.950 . S
C2050 C2049 1.398 . S
C2050 C2051 1.391 . S
C2051 H2039 0.950 . S
C2051 C2047 1.393 . S
C2051 C2050 1.391 . S
C2052 H2042 0.950 . S
C2052 C2053 1.386 . S
C2052 C2054 1.391 . S
C2053 C2052 1.386 . S
C2053 C2057 1.393 . S
C2054 H2043 0.950 . S
C2054 C2052 1.391 . S
C2054 C2055 1.400 . S
C2055 C2049 1.491 . S
C2055 C2054 1.400 . S
C2055 C2056 1.398 . S
C2056 H2044 0.950 . S
C2056 C2055 1.398 . S
C2056 C2057 1.391 . S
C2057 H2045 0.950 . S
C2057 C2053 1.393 . S
C2057 C2056 1.391 . S
H2058 C2066 0.950 . S
H2059 C2071 0.950 . S
H2060 C2068 0.950 . S
H2061 C2070 0.950 . S
H2062 C2072 0.950 . S
H2063 C2074 0.950 . S
H2064 C2076 0.950 . S
H2065 C2077 0.950 . S
C2066 H2058 0.950 . S
C2066 C2067 1.386 . S
C2066 C2068 1.391 . S
C2067 C2066 1.386 . S
C2067 C2071 1.393 . S
C2068 H2060 0.950 . S
C2068 C2066 1.391 . S
C2068 C2069 1.400 . S
C2069 C2068 1.400 . S
C2069 C2070 1.398 . S
C2069 C2075 1.491 . S
C2070 H2061 0.950 . S
C2070 C2069 1.398 . S
C2070 C2071 1.391 . S
C2071 H2059 0.950 . S
C2071 C2067 1.393 . S
C2071 C2070 1.391 . S
C2072 H2062 0.950 . S
C2072 C2073 1.386 . S
C2072 C2074 1.391 . S
C2073 C2072 1.386 . S
C2073 C2077 1.393 . S
C2074 H2063 0.950 . S
C2074 C2072 1.391 . S
C2074 C2075 1.400 . S
C2075 C2069 1.491 . S
C2075 C2074 1.400 . S
C2075 C2076 1.398 . S
C2076 H2064 0.950 . S
C2076 C2075 1.398 . S
C2076 C2077 1.391 . S
C2077 H2065 0.950 . S
C2077 C2073 1.393 . S
C2077 C2076 1.391 . S
H2078 C2086 0.950 . S
H2079 C2091 0.950 . S
H2080 C2088 0.950 . S
H2081 C2090 0.950 . S
H2082 C2092 0.950 . S
H2083 C2094 0.950 . S
H2084 C2096 0.950 . S
H2085 C2097 0.950 . S
C2086 H2078 0.950 . S
C2086 C2087 1.386 . S
C2086 C2088 1.391 . S
C2087 C2086 1.386 . S
C2087 C2091 1.393 . S
C2088 H2080 0.950 . S
C2088 C2086 1.391 . S
C2088 C2089 1.400 . S
C2089 C2088 1.400 . S
C2089 C2090 1.398 . S
C2089 C2095 1.491 . S
C2090 H2081 0.950 . S
C2090 C2089 1.398 . S
C2090 C2091 1.391 . S
C2091 H2079 0.950 . S
C2091 C2087 1.393 . S
C2091 C2090 1.391 . S
C2092 H2082 0.950 . S
C2092 C2093 1.386 . S
C2092 C2094 1.391 . S
C2093 C2092 1.386 . S
C2093 C2097 1.393 . S
C2094 H2083 0.950 . S
C2094 C2092 1.391 . S
C2094 C2095 1.400 . S
C2095 C2089 1.491 . S
C2095 C2094 1.400 . S
C2095 C2096 1.398 . S
C2096 H2084 0.950 . S
C2096 C2095 1.398 . S
C2096 C2097 1.391 . S
C2097 H2085 0.950 . S
C2097 C2093 1.393 . S
C2097 C2096 1.391 . S
H2098 C2106 0.950 . S
H2099 C2111 0.950 . S
H2100 C2108 0.950 . S
H2101 C2110 0.950 . S
H2102 C2112 0.950 . S
H2103 C2114 0.950 . S
H2104 C2116 0.950 . S
H2105 C2117 0.950 . S
C2106 H2098 0.950 . S
C2106 C2107 1.386 . S
C2106 C2108 1.391 . S
C2107 C2106 1.386 . S
C2107 C2111 1.393 . S
C2108 H2100 0.950 . S
C2108 C2106 1.391 . S
C2108 C2109 1.400 . S
C2109 C2108 1.400 . S
C2109 C2110 1.398 . S
C2109 C2115 1.491 . S
C2110 H2101 0.950 . S
C2110 C2109 1.398 . S
C2110 C2111 1.391 . S
C2111 H2099 0.950 . S
C2111 C2107 1.393 . S
C2111 C2110 1.391 . S
C2112 H2102 0.950 . S
C2112 C2113 1.386 . S
C2112 C2114 1.391 . S
C2113 C2112 1.386 . S
C2113 C2117 1.393 . S
C2114 H2103 0.950 . S
C2114 C2112 1.391 . S
C2114 C2115 1.400 . S
C2115 C2109 1.491 . S
C2115 C2114 1.400 . S
C2115 C2116 1.398 . S
C2116 H2104 0.950 . S
C2116 C2115 1.398 . S
C2116 C2117 1.391 . S
C2117 H2105 0.950 . S
C2117 C2113 1.393 . S
C2117 C2116 1.391 . S
H2118 C2126 0.950 . S
H2119 C2131 0.950 . S
H2120 C2128 0.950 . S
H2121 C2130 0.950 . S
H2122 C2132 0.950 . S
H2123 C2134 0.950 . S
H2124 C2136 0.950 . S
H2125 C2137 0.950 . S
C2126 H2118 0.950 . S
C2126 C2127 1.386 . S
C2126 C2128 1.391 . S
C2127 C2126 1.386 . S
C2127 C2131 1.393 . S
C2128 H2120 0.950 . S
C2128 C2126 1.391 . S
C2128 C2129 1.400 . S
C2129 C2128 1.400 . S
C2129 C2130 1.398 . S
C2129 C2135 1.491 . S
C2130 H2121 0.950 . S
C2130 C2129 1.398 . S
C2130 C2131 1.391 . S
C2131 H2119 0.950 . S
C2131 C2127 1.393 . S
C2131 C2130 1.391 . S
C2132 H2122 0.950 . S
C2132 C2133 1.386 . S
C2132 C2134 1.391 . S
C2133 C2132 1.386 . S
C2133 C2137 1.393 . S
C2134 H2123 0.950 . S
C2134 C2132 1.391 . S
C2134 C2135 1.400 . S
C2135 C2129 1.491 . S
C2135 C2134 1.400 . S
C2135 C2136 1.398 . S
C2136 H2124 0.950 . S
C2136 C2135 1.398 . S
C2136 C2137 1.391 . S
C2137 H2125 0.950 . S
C2137 C2133 1.393 . S
C2137 C2136 1.391 . S
H2138 C2146 0.950 . S
H2139 C2151 0.950 . S
H2140 C2148 0.950 . S
H2141 C2150 0.950 . S
H2142 C2152 0.950 . S
H2143 C2154 0.950 . S
H2144 C2156 0.950 . S
H2145 C2157 0.950 . S
C2146 H2138 0.950 . S
C2146 C2147 1.386 . S
C2146 C2148 1.391 . S
C2147 C2146 1.386 . S
C2147 C2151 1.393 . S
C2148 H2140 0.950 . S
C2148 C2146 1.391 . S
C2148 C2149 1.400 . S
C2149 C2148 1.400 . S
C2149 C2150 1.398 . S
C2149 C2155 1.491 . S
C2150 H2141 0.950 . S
C2150 C2149 1.398 . S
C2150 C2151 1.391 . S
C2151 H2139 0.950 . S
C2151 C2147 1.393 . S
C2151 C2150 1.391 . S
C2152 H2142 0.950 . S
C2152 C2153 1.386 . S
C2152 C2154 1.391 . S
C2153 C2152 1.386 . S
C2153 C2157 1.393 . S
C2154 H2143 0.950 . S
C2154 C2152 1.391 . S
C2154 C2155 1.400 . S
C2155 C2149 1.491 . S
C2155 C2154 1.400 . S
C2155 C2156 1.398 . S
C2156 H2144 0.950 . S
C2156 C2155 1.398 . S
C2156 C2157 1.391 . S
C2157 H2145 0.950 . S
C2157 C2153 1.393 . S
C2157 C2156 1.391 . S
H2158 C2166 0.950 . S
H2159 C2171 0.950 . S
H2160 C2168 0.950 . S
H2161 C2170 0.950 . S
H2162 C2172 0.950 . S
H2163 C2174 0.950 . S
H2164 C2176 0.950 . S
H2165 C2177 0.950 . S
C2166 H2158 0.950 . S
C2166 C2167 1.386 . S
C2166 C2168 1.391 . S
C2167 C2166 1.386 . S
C2167 C2171 1.393 . S
C2168 H2160 0.950 . S
C2168 C2166 1.391 . S
C2168 C2169 1.400 . S
C2169 C2168 1.400 . S
C2169 C2170 1.398 . S
C2169 C2175 1.491 . S
C2170 H2161 0.950 . S
C2170 C2169 1.398 . S
C2170 C2171 1.391 . S
C2171 H2159 0.950 . S
C2171 C2167 1.393 . S
C2171 C2170 1.391 . S
C2172 H2162 0.950 . S
C2172 C2173 1.386 . S
C2172 C2174 1.391 . S
C2173 C2172 1.386 . S
C2173 C2177 1.393 . S
C2174 H2163 0.950 . S
C2174 C2172 1.391 . S
C2174 C2175 1.400 . S
C2175 C2169 1.491 . S
C2175 C2174 1.400 . S
C2175 C2176 1.398 . S
C2176 H2164 0.950 . S
C2176 C2175 1.398 . S
C2176 C2177 1.391 . S
C2177 H2165 0.950 . S
C2177 C2173 1.393 . S
C2177 C2176 1.391 . S
C1107 C253 1.467 . S
C1113 C409 1.409 . S
C1127 C272 1.503 . S
C1133 C493 1.430 . S
C1147 C234 1.457 . S
C1153 C573 1.458 . S
C1167 C215 1.445 . S
C1173 C489 1.446 1_556 S
C1193 C577 1.387 . S
C1187 C177 1.464 . S
C1207 C196 1.411 . S
C1213 C405 1.423 1_556 S
C1233 C398 1.474 . S
C1227 C220 1.449 . S
C1253 C482 1.509 . S
C1247 C182 1.477 . S
C1267 C201 1.466 . S
C1273 C584 1.506 1_556 S
C1287 C258 1.450 . S
C1293 C500 1.480 . S
C1307 C277 1.424 . S
C1313 C566 1.451 . S
C1333 C416 1.477 . S
C1327 C239 1.444 . S
C1353 C661 1.399 . S
C1347 C25 1.465 . S
C1367 C44 1.492 . S
C1373 C745 1.456 . S
C1387 C6 1.457 . S
C1393 C825 1.457 . S
C1407 C329 1.438 . S
C1413 C741 1.445 . S
C1427 C291 1.458 . S
C1433 C829 1.389 . S
C1447 C310 1.420 . S
C1453 C657 1.420 . S
C1467 C334 1.474 . S
C1473 C650 1.502 . S
C1487 C296 1.475 . S
C1493 C734 1.498 . S
C1513 C836 1.514 . S
C1507 C315 1.464 . S
C1527 C30 1.433 1_565 S
C1533 C752 1.475 . S
C1553 C818 1.446 . S
C1547 C49 1.429 1_455 S
C1567 C11 1.439 . S
C1573 C668 1.482 . S
C1593 C913 1.395 . S
C1587 C139 1.470 . S
C1607 C158 1.493 . S
C1613 C997 1.457 . S
C1633 C1077 1.455 . S
C1627 C120 1.449 . S
C1653 C993 1.452 . S
C1647 C101 1.442 . S
C1673 C1081 1.386 . S
C1667 C63 1.464 . S
C1687 C82 1.418 . S
C1693 C909 1.424 . S
C1707 C106 1.480 1_655 S
C1713 C902 1.499 . S
C1727 C68 1.494 . S
C1733 C986 1.523 . S
C1753 C1088 1.524 . S
C1747 C87 1.476 1_545 S
C1767 C144 1.461 . S
C1773 C1004 1.489 . S
C1787 C163 1.442 . S
C1793 C1070 1.470 . S
C1807 C125 1.423 . S
C1813 C920 1.472 . S
C1827 C287 1.647 . S
C1833 C412 1.522 . S
C1853 C496 1.581 . S
C1847 C306 1.714 . S
C1867 C325 1.665 . S
C1873 C568 1.471 . S
C1887 C116 1.687 . S
C1893 C484 1.460 . S
C1907 C135 1.667 . S
C1913 C580 1.536 . S
C1933 C400 1.406 . S
C1927 C154 1.613 . S
C1947 C59 1.652 . S
C1953 C664 1.552 . S
C1967 C78 1.716 . S
C1973 C748 1.568 . S
C1987 C97 1.648 . S
C1993 C820 1.438 . S
C2007 C230 1.673 . S
C2013 C736 1.451 . S
C2033 C832 1.547 . S
C2027 C249 1.666 . S
C2047 C268 1.616 . S
C2053 C652 1.445 . S
C2067 C173 1.657 . S
C2073 C916 1.518 . S
C2087 C192 1.728 . S
C2093 C1000 1.593 . S
C2113 C1072 1.471 . S
C2107 C211 1.665 . S
C2127 C2 1.680 . S
C2133 C988 1.445 . S
C2147 C21 1.669 . S
C2153 C1084 1.556 . S
C2167 C40 1.620 . S
C2173 C904 1.433 . S
