# Generated by pormake.
# Topology tsx, (6,3)-cn, num edge types: 1
# Building blocks:
#     Node 0, Type 0, BuildingBlock: JUFBIX_clean_sbu_0, # of connection points: 6
#     Node 1, Type 0, BuildingBlock: JUFBIX_clean_sbu_0, # of connection points: 6
#     Node 2, Type 1, BuildingBlock: KAKCAD_clean_linker_0, # of connection points: 3
#     Node 3, Type 1, BuildingBlock: KAKCAD_clean_linker_0, # of connection points: 3
#     Node 4, Type 1, BuildingBlock: KAKCAD_clean_linker_0, # of connection points: 3
#     Node 5, Type 1, BuildingBlock: KAKCAD_clean_linker_0, # of connection points: 3
#     Edge 6, Type (0, 1), BuildingBlock: AJUNOK_clean_linker_0, # of connection points: 2
#     Edge 7, Type (0, 1), BuildingBlock: AJUNOK_clean_linker_0, # of connection points: 2
#     Edge 8, Type (0, 1), BuildingBlock: AJUNOK_clean_linker_0, # of connection points: 2
#     Edge 9, Type (0, 1), BuildingBlock: AJUNOK_clean_linker_0, # of connection points: 2
#     Edge 10, Type (0, 1), BuildingBlock: AJUNOK_clean_linker_0, # of connection points: 2
#     Edge 11, Type (0, 1), BuildingBlock: AJUNOK_clean_linker_0, # of connection points: 2
#     Edge 12, Type (0, 1), BuildingBlock: AJUNOK_clean_linker_0, # of connection points: 2
#     Edge 13, Type (0, 1), BuildingBlock: AJUNOK_clean_linker_0, # of connection points: 2
#     Edge 14, Type (0, 1), BuildingBlock: AJUNOK_clean_linker_0, # of connection points: 2
#     Edge 15, Type (0, 1), BuildingBlock: AJUNOK_clean_linker_0, # of connection points: 2
#     Edge 16, Type (0, 1), BuildingBlock: AJUNOK_clean_linker_0, # of connection points: 2
#     Edge 17, Type (0, 1), BuildingBlock: AJUNOK_clean_linker_0, # of connection points: 2
# Relax obj value: 0.159
# Max RMSD: 0.169
# Mean RMSD: 0.137
data_MOF--net-tsx--node1-JUFBIX_clean_sbu_0--node2-KAKCAD_clean_linker_0--edge1-AJUNOK_clean_linker_0
_symmetry_space_group_name_H-M    P1
_symmetry_Int_Tables_number       1
_symmetry_cell_setting            triclinic
loop_
_symmetry_equiv_pos_as_xyz
'x, y, z'
_cell_length_a     18.555967
_cell_length_b     22.485302
_cell_length_c     34.905898
_cell_angle_alpha  92.878331
_cell_angle_beta   88.267875
_cell_angle_gamma 99.551533
loop_
_atom_site_label
_atom_site_type_symbol
_atom_site_fract_x
_atom_site_fract_y
_atom_site_fract_z
_atom_type_partial_charge
Co0 Co 0.07889 0.01696 -0.00123 0.0
C1 C 1.01593 0.05068 0.93289 0.0
Co2 Co 0.99166 0.07238 0.00974 0.0
C3 C 0.16998 0.92286 4e-05 0.0
C4 C 0.21176 0.99342 0.96237 0.0
N5 N 0.15574 0.97523 0.98689 0.0
N6 N 0.23339 0.90872 0.98518 0.0
C7 C 0.25959 0.95288 0.9614 0.0
H8 H 0.13485 0.89582 0.02018 0.0
H9 H 0.21698 0.0333 0.9458 0.0
C10 C 0.05604 0.03897 0.07556 0.0
N11 N 0.91366 0.11282 0.02242 0.0
C12 C 0.88691 0.15644 0.00472 0.0
C13 C 0.86687 0.09895 0.05224 0.0
N14 N 0.82542 0.17009 0.02252 0.0
C15 C 0.81295 0.13388 0.05237 0.0
C16 C 0.94435 0.9468 0.00507 0.0
O17 O 0.09445 0.01226 0.05182 0.0
O18 O 1.00878 0.06746 0.06289 0.0
O19 O 0.92565 0.99846 0.01015 0.0
O20 O 1.01155 0.94328 -0.00058 0.0
O21 O 0.97631 0.0769 0.95638 0.0
H22 H 0.87053 0.06431 0.07216 0.0
H23 H 0.9104 0.17593 0.97852 0.0
O24 O 0.06293 0.02211 0.94585 0.0
O25 O 0.14513 0.09142 -0.00166 0.0
O26 O 0.05841 0.1461 0.00922 0.0
C27 C 0.1257 0.14296 0.00319 0.0
H28 H 0.30881 0.95467 0.94372 0.0
H29 H 0.76747 0.13232 0.07267 0.0
Co30 Co 0.56771 0.46534 0.50281 0.0
C31 C 0.52387 0.50157 0.43236 0.0
Co32 Co 0.47673 0.51795 0.50637 0.0
C33 C 0.66808 0.37649 0.50951 0.0
C34 C 0.70998 0.45246 0.4761 0.0
N35 N 0.65018 0.42772 0.49629 0.0
N36 N 0.7372 0.36975 0.49887 0.0
C37 C 0.76323 0.41728 0.47775 0.0
H38 H 0.63184 0.34536 0.52688 0.0
H39 H 0.71475 0.49383 0.46101 0.0
C40 C 0.5213 0.48201 0.57678 0.0
N41 N 0.39666 0.55726 0.51258 0.0
C42 C 0.38479 0.60827 0.49677 0.0
C43 C 0.33767 0.54097 0.53554 0.0
N44 N 0.32091 0.62473 0.50923 0.0
C45 C 0.29104 0.58218 0.53347 0.0
C46 C 0.43398 0.39227 0.49753 0.0
O47 O 0.56777 0.45791 0.55655 0.0
O48 O 0.47745 0.50984 0.56031 0.0
O49 O 0.41346 0.44345 0.50081 0.0
O50 O 0.50213 0.38956 0.49779 0.0
O51 O 0.47728 0.52569 0.4525 0.0
H52 H 0.32939 0.50181 0.55292 0.0
H53 H 0.42197 0.63221 0.47613 0.0
O54 O 0.56685 0.47318 0.44896 0.0
O55 O 0.63122 0.54195 0.5084 0.0
O56 O 0.54005 0.59238 0.51188 0.0
C57 C 0.60831 0.59222 0.51195 0.0
H58 H 0.81672 0.42529 0.46386 0.0
H59 H 0.23956 0.58136 0.54903 0.0
C60 C 0.06432 0.97629 0.25848 0.0
C61 C 0.07922 0.03203 0.24108 0.0
C62 C 0.06314 0.97385 0.29838 0.0
C63 C 0.07728 0.02713 0.32179 0.0
C64 C 0.0924 0.08295 0.30424 0.0
C65 C 0.093 0.08536 0.26427 0.0
C66 C 0.07539 0.02413 0.3643 0.0
C67 C 0.10267 0.97767 0.38157 0.0
C68 C 0.09797 0.97219 0.42147 0.0
C69 C 0.06651 0.01458 0.44449 0.0
C70 C 0.03955 0.06181 0.42779 0.0
C71 C 0.04441 0.06633 0.38773 0.0
C72 C 1.00266 0.1051 0.45134 0.0
C73 C 0.94171 0.08455 0.47485 0.0
C74 C 1.02313 0.16733 0.44693 0.0
C75 C 0.98124 0.20806 0.46394 0.0
C76 C 0.91784 0.18749 0.4858 0.0
C77 C 0.12553 0.92137 0.43843 0.0
C78 C 0.10768 0.86266 0.42192 0.0
C79 C 0.17286 0.93143 0.46959 0.0
C80 C 0.20369 0.88394 0.48312 0.0
C81 C 0.18765 0.82565 0.46568 0.0
C82 C 0.13829 0.81531 0.43544 0.0
C83 C 0.8994 0.12538 0.4918 0.0
H84 H 0.05188 0.93463 0.24123 0.0
H85 H 0.04968 0.93016 0.31087 0.0
H86 H 0.10432 0.12478 0.32135 0.0
H87 H 0.1046 0.12889 0.25144 0.0
H88 H 0.12856 0.94583 0.36392 0.0
H89 H 1.02132 0.1015 0.37473 0.0
H90 H 0.0625 0.01044 0.47519 0.0
H91 H 0.92445 0.03668 0.47832 0.0
H92 H 0.06998 0.18428 0.42899 0.0
H93 H 0.99634 0.25541 0.4581 0.0
H94 H 0.0707 0.85352 0.39812 0.0
H95 H 0.18796 0.97632 0.4826 0.0
H96 H 0.85091 0.10824 0.50848 0.0
H97 H 0.12487 0.77083 0.42153 0.0
H98 H 0.24061 0.8929 0.50694 0.0
C99 C 0.98934 0.09902 0.74578 0.0
C100 C 0.99313 0.04802 0.76684 0.0
C101 C 0.98787 0.09429 0.70562 0.0
C102 C 0.99001 0.03845 0.68591 0.0
C103 C 0.99354 0.9876 0.70719 0.0
C104 C 0.99494 0.99233 0.74711 0.0
C105 C 0.98969 0.03259 0.64332 0.0
C106 C 0.03278 0.07585 0.621 0.0
C107 C 0.03726 0.06727 0.58085 0.0
C108 C 0.99696 0.01538 0.56297 0.0
C109 C 0.95306 0.97218 0.58491 0.0
C110 C 0.94939 0.98137 0.6249 0.0
C111 C 0.91152 0.91648 0.5668 0.0
C112 C 0.86335 0.91939 0.53695 0.0
C113 C 0.91566 0.86019 0.58158 0.0
C114 C 0.87006 0.80817 0.56808 0.0
C115 C 0.81895 0.81148 0.53978 0.0
C116 C 0.08839 0.1107 0.55839 0.0
C117 C 0.08577 0.17268 0.56251 0.0
C118 C 0.14459 0.09108 0.53579 0.0
C119 C 0.19918 0.13295 0.51894 0.0
C120 C 0.19799 0.19515 0.52416 0.0
C121 C 0.1399 0.21447 0.54552 0.0
C122 C 0.81715 0.86727 0.52363 0.0
H123 H 0.98901 0.14271 0.76028 0.0
H124 H 0.98485 0.13422 0.69003 0.0
H125 H 0.99656 0.94413 0.69295 0.0
H126 H 0.99783 0.95228 0.76264 0.0
H127 H 0.06581 0.11476 0.63494 0.0
H128 H 0.91465 0.94835 0.64177 0.0
H129 H 1.00053 0.0081 0.53221 0.0
H130 H 0.85904 0.9623 0.5252 0.0
H131 H 0.95293 0.85672 0.60436 0.0
H132 H 0.87253 0.76576 0.581 0.0
H133 H 0.04297 0.18887 0.57985 0.0
H134 H 0.14816 0.04351 0.53273 0.0
H135 H 0.77875 0.87076 0.50141 0.0
H136 H 0.13806 0.26213 0.55058 0.0
H137 H 0.24326 0.11684 0.50264 0.0
C138 C 0.48589 0.42704 0.76333 0.0
C139 C 0.50645 0.48014 0.7434 0.0
C140 C 0.47909 0.42967 0.80337 0.0
C141 C 0.49286 0.48547 0.82419 0.0
C142 C 0.51423 0.53841 0.80406 0.0
C143 C 0.52059 0.53577 0.76412 0.0
C144 C 0.48583 0.48878 0.86674 0.0
C145 C 0.51159 0.44638 0.88862 0.0
C146 C 0.50969 0.45157 0.92893 0.0
C147 C 0.48069 0.49967 0.94746 0.0
C148 C 0.45437 0.54231 0.92592 0.0
C149 C 0.45659 0.53618 0.88571 0.0
C150 C 0.42769 0.59542 0.94462 0.0
C151 C 0.37063 0.5887 0.97224 0.0
C152 C 0.45598 0.65335 0.93241 0.0
C153 C 0.42634 0.70338 0.94646 0.0
C154 C 0.36783 0.69685 0.97327 0.0
C155 C 0.5446 0.40949 0.95072 0.0
C156 C 0.53103 0.34726 0.94114 0.0
C157 C 0.5987 0.43185 0.97747 0.0
C158 C 0.64193 0.39331 -0.0078 0.0
C159 C 0.63169 0.3318 0.98046 0.0
C160 C 0.57398 0.30877 0.95595 0.0
C161 C 0.34063 0.63903 0.98633 0.0
H162 H 0.47358 0.38369 0.74789 0.0
H163 H 0.46181 0.38815 0.81797 0.0
H164 H 0.52679 0.58199 0.81919 0.0
H165 H 0.53701 0.57729 0.74936 0.0
H166 H 0.53679 0.41094 0.87423 0.0
H167 H 0.43544 0.56872 0.86914 0.0
H168 H 0.48032 0.50479 0.97838 0.0
H169 H 0.3472 0.54431 0.9816 0.0
H170 H 0.49999 0.65971 0.91113 0.0
H171 H 0.44738 0.74693 0.93504 0.0
H172 H 0.48908 0.32878 0.92091 0.0
H173 H 0.61042 0.47963 0.9853 0.0
H174 H 0.29528 0.63264 0.0068 0.0
H175 H 0.56433 0.26146 0.94672 0.0
H176 H 0.6848 0.41194 0.01187 0.0
C177 C 0.53414 0.57626 0.25009 0.0
C178 C 0.53691 0.52098 0.26651 0.0
C179 C 0.53685 0.58042 0.21023 0.0
C180 C 0.54187 0.52923 0.18606 0.0
C181 C 0.54394 0.47384 0.20261 0.0
C182 C 0.54131 0.46974 0.2424 0.0
C183 C 0.54384 0.53328 0.14372 0.0
C184 C 0.58634 0.58251 0.12619 0.0
C185 C 0.58761 0.58679 0.08611 0.0
C186 C 0.54521 0.54142 0.0635 0.0
C187 C 0.50294 0.49193 0.08073 0.0
C188 C 0.50272 0.48794 0.12065 0.0
C189 C 0.45609 0.44489 0.0578 0.0
C190 C 0.39383 0.45823 0.04052 0.0
C191 C 0.46818 0.38499 0.05744 0.0
C192 C 0.41706 0.3386 0.04139 0.0
C193 C 0.35287 0.35138 0.02548 0.0
C194 C 0.63385 0.63861 0.06817 0.0
C195 C 0.63461 0.6974 0.08392 0.0
C196 C 0.67991 0.62952 0.03643 0.0
C197 C 0.72752 0.67823 0.02153 0.0
C198 C 0.72895 0.73682 0.03777 0.0
C199 C 0.68165 0.74597 0.06889 0.0
C200 C 0.34261 0.41183 0.02435 0.0
H201 H 0.53065 0.61639 0.26811 0.0
H202 H 0.53412 0.62353 0.19833 0.0
H203 H 0.54825 0.43368 0.18479 0.0
H204 H 0.54232 0.42635 0.25435 0.0
H205 H 0.6199 0.61688 0.14371 0.0
H206 H 0.46851 0.45021 0.1338 0.0
H207 H 0.54487 0.54485 0.03271 0.0
H208 H 0.38326 0.50422 0.04117 0.0
H209 H 0.51569 0.37389 0.07101 0.0
H210 H 0.4259 0.29247 0.04345 0.0
H211 H 0.59929 0.70575 0.10819 0.0
H212 H 0.68074 0.58455 0.02392 0.0
H213 H 0.29371 0.42294 0.01225 0.0
H214 H 0.68248 0.79057 0.08232 0.0
H215 H 0.76365 0.67012 -0.00243 0.0
C216 C 0.16697 0.25123 0.02364 0.0
C217 C 0.18179 0.19823 0.00407 0.0
C218 C 0.22187 0.30173 0.02883 0.0
C219 C 0.29347 0.30127 0.01438 0.0
H220 H 0.11347 0.25289 0.03656 0.0
H221 H 0.2089 0.34034 0.04585 0.0
S222 S 0.35761 0.1775 0.95566 0.0
N223 N 0.27146 0.15092 0.96655 0.0
N224 N 0.37398 0.24623 0.97584 0.0
C225 C 0.30781 0.25004 -0.00729 0.0
C226 C 0.25215 0.19847 0.98765 0.0
C227 C 0.22259 0.79778 0.98381 0.0
C228 C 0.26463 0.85527 0.99006 0.0
C229 C 0.25573 0.74581 0.9809 0.0
C230 C 0.33188 0.74979 0.98442 0.0
H231 H 0.16464 0.79348 0.97871 0.0
H232 H 0.22216 0.70283 0.97351 0.0
S233 S 0.46316 0.88905 0.00835 0.0
N234 N 0.38403 0.91257 0.00458 0.0
N235 N 0.44625 0.81512 0.00012 0.0
C236 C 0.37323 0.80664 -0.00614 0.0
C237 C 0.33963 0.85934 -0.0036 0.0
C238 C 0.90959 0.83585 0.01458 0.0
C239 C 0.88846 0.8918 0.00825 0.0
C240 C 0.85737 0.78495 0.02235 0.0
C241 C 0.7823 0.78826 0.02403 0.0
H242 H 0.96693 0.83183 0.0151 0.0
H243 H 0.87606 0.74347 0.02879 0.0
S244 S 0.69762 0.92121 0.00387 0.0
N245 N 0.78643 0.94543 0.00012 0.0
N246 N 0.68888 0.84967 0.01463 0.0
C247 C 0.76023 0.8428 0.01556 0.0
C248 C 0.81315 0.89458 0.00768 0.0
C249 C 0.70219 0.19572 0.01606 0.0
C250 C 0.77857 0.21108 0.01128 0.0
C251 C 0.65525 0.23519 0.00645 0.0
C252 C 0.68282 0.29191 -0.00801 0.0
H253 H 0.67839 0.15243 0.02697 0.0
H254 H 0.59686 0.22128 0.01048 0.0
S255 S 0.8784 0.35385 0.97391 0.0
N256 N 0.87959 0.28706 0.9913 0.0
N257 N 0.79139 0.36113 0.97267 0.0
C258 C 0.75908 0.30792 0.98704 0.0
C259 C 0.8069 0.26749 -0.00332 0.0
C260 C 0.73645 0.64916 0.51312 0.0
C261 C 0.66069 0.64955 0.51688 0.0
C262 C 0.78733 0.70203 0.51944 0.0
C263 C 0.76448 0.75741 0.52949 0.0
H264 H 0.75687 0.60754 0.50572 0.0
H265 H 0.84508 0.69946 0.51686 0.0
S266 S 0.57321 0.78323 0.54407 0.0
N267 N 0.56573 0.71068 0.5317 0.0
N268 N 0.66166 0.80964 0.54364 0.0
C269 C 0.68915 0.7588 0.53285 0.0
C270 C 0.63722 0.70502 0.52654 0.0
C271 C 0.74796 0.26186 0.49207 0.0
C272 C 0.77611 0.32097 0.50518 0.0
C273 C 0.79296 0.21719 0.48854 0.0
C274 C 0.86743 0.23031 0.49814 0.0
H275 H 0.69263 0.25145 0.48176 0.0
H276 H 0.7706 0.17344 0.47567 0.0
S277 S 0.96272 0.37553 0.54066 0.0
N278 N 0.87953 0.38827 0.53244 0.0
N279 N 0.96366 0.30438 0.52668 0.0
C280 C 0.89399 0.28788 0.51451 0.0
C281 C 0.84844 0.33319 0.5178 0.0
C282 C 0.38994 0.28436 0.51342 0.0
C283 C 0.37715 0.33738 0.49695 0.0
C284 C 0.33222 0.23669 0.52011 0.0
C285 C 0.25992 0.2404 0.51045 0.0
H286 H 0.44386 0.28113 0.52334 0.0
H287 H 0.34361 0.19823 0.53496 0.0
S288 S 0.20007 0.36457 0.46027 0.0
N289 N 0.28838 0.38723 0.4666 0.0
N290 N 0.18073 0.2976 0.47891 0.0
C291 C 0.24763 0.29109 0.4913 0.0
C292 C 0.30603 0.33954 0.4846 0.0
C293 C 0.21294 0.67065 0.49584 0.0
C294 C 0.28928 0.67586 0.49864 0.0
C295 C 0.18055 0.71944 0.48563 0.0
C296 C 0.22317 0.77557 0.47812 0.0
H297 H 0.17792 0.62816 0.50099 0.0
H298 H 0.1216 0.71318 0.48361 0.0
S299 S 0.42517 0.81344 0.48184 0.0
N300 N 0.4065 0.7423 0.49378 0.0
N301 N 0.34561 0.83366 0.47384 0.0
C302 C 0.29947 0.78167 0.48104 0.0
C303 C 0.33254 0.73189 0.49136 0.0
C304 C 0.0258 0.07161 0.1428 0.0
C305 C 0.06521 0.03729 0.11755 0.0
C306 C 0.03182 0.07046 0.18262 0.0
C307 C 0.07698 0.0346 0.19882 0.0
H308 H 0.98953 0.09952 0.13182 0.0
H309 H 0.99966 0.09693 0.2009 0.0
S310 S 0.19428 0.93835 0.14594 0.0
N311 N 0.15303 0.96772 0.112 0.0
N312 N 0.16387 0.96564 0.187 0.0
C313 C 0.11742 1.00062 0.17414 0.0
C314 C 0.11174 1.00201 0.13349 0.0
C315 C 0.05859 0.02757 0.86624 0.0
C316 C 1.00904 0.05302 0.89077 0.0
C317 C 0.0535 0.02728 0.82638 0.0
C318 C 0.99873 0.05243 0.80923 0.0
H319 H 0.10184 0.00731 0.87779 0.0
H320 H 0.0929 0.00702 0.80879 0.0
S321 S 0.85545 0.12512 0.86007 0.0
N322 N 0.90358 0.10486 0.89477 0.0
N323 N 0.89388 0.10373 0.81951 0.0
C324 C 0.94934 0.07889 0.83317 0.0
C325 C 0.95445 0.07923 0.87399 0.0
C326 C 0.47549 0.5155 0.64089 0.0
C327 C 0.51828 0.4793 0.61916 0.0
C328 C 0.47203 0.51523 0.68095 0.0
C329 C 0.5106 0.47835 0.70094 0.0
H330 H 0.44472 0.54488 0.62694 0.0
H331 H 0.4385 0.54395 0.69644 0.0
S332 S 0.63046 0.37501 0.65814 0.0
N333 N 0.60013 0.40529 0.62093 0.0
N334 N 0.59315 0.40488 0.69647 0.0
C335 C 0.55312 0.44151 0.6798 0.0
C336 C 0.55719 0.44205 0.63887 0.0
C337 C 0.47727 0.5337 0.37127 0.0
C338 C 0.5287 0.50662 0.3901 0.0
C339 C 0.48062 0.53871 0.33134 0.0
C340 C 0.53533 0.51666 0.30876 0.0
H341 H 0.43374 0.5509 0.3874 0.0
H342 H 0.43943 0.55918 0.31797 0.0
S343 S 0.68608 0.44574 0.34382 0.0
N344 N 0.63811 0.45977 0.38283 0.0
N345 N 0.64421 0.46975 0.30801 0.0
C346 C 0.58773 0.49043 0.32714 0.0
C347 C 0.58449 0.4853 0.36773 0.0
loop_
_geom_bond_atom_site_label_1
_geom_bond_atom_site_label_2
_geom_bond_distance
_geom_bond_site_symmetry_2
_ccdc_geom_bond_type
Co0 N5 2.057 . S
Co0 O17 2.021 . S
Co0 O20 2.062 1_455 S
Co0 O24 2.117 1_554 S
Co0 O25 2.020 1_565 S
C1 O21 1.259 1_455 S
C1 O24 1.258 1_545 S
Co2 N11 2.057 . S
Co2 O18 2.117 . S
Co2 O19 2.020 1_545 S
Co2 O21 2.021 1_554 S
Co2 O26 2.062 1_655 S
C3 N5 1.316 . S
C3 N6 1.347 . S
C3 H8 0.931 . S
C4 N5 1.375 1_556 S
C4 C7 1.350 . S
C4 H9 0.930 . S
N5 Co0 2.057 . S
N5 C3 1.316 . S
N5 C4 1.375 1_554 S
N6 C3 1.347 . S
N6 C7 1.373 1_554 S
C7 C4 1.350 . S
C7 N6 1.373 1_556 S
C7 H28 0.931 . S
H8 C3 0.931 . S
H9 C4 0.930 . S
C10 O17 1.259 1_545 S
C10 O18 1.258 1_455 S
N11 Co2 2.057 . S
N11 C12 1.316 . S
N11 C13 1.375 . S
C12 N11 1.316 . S
C12 N14 1.347 . S
C12 H23 0.931 1_554 S
C13 N11 1.375 . S
C13 C15 1.350 . S
C13 H22 0.930 . S
N14 C12 1.347 . S
N14 C15 1.373 . S
C15 C13 1.350 . S
C15 N14 1.373 . S
C15 H29 0.931 . S
C16 O19 1.256 . S
C16 O20 1.255 . S
O17 Co0 2.021 . S
O17 C10 1.259 1_565 S
O18 Co2 2.117 . S
O18 C10 1.258 1_655 S
O19 Co2 2.020 1_565 S
O19 C16 1.256 . S
O20 Co0 2.062 1_655 S
O20 C16 1.255 . S
O21 C1 1.259 1_655 S
O21 Co2 2.021 1_556 S
H22 C13 0.930 . S
H23 C12 0.931 1_556 S
O24 Co0 2.117 1_556 S
O24 C1 1.258 1_565 S
O25 Co0 2.020 1_545 S
O25 C27 1.256 . S
O26 Co2 2.062 1_455 S
O26 C27 1.255 . S
C27 O25 1.256 . S
C27 O26 1.255 . S
H28 C7 0.931 . S
H29 C15 0.931 . S
Co30 N35 2.057 . S
Co30 O47 2.021 . S
Co30 O50 2.062 . S
Co30 O54 2.117 . S
Co30 O55 2.020 . S
C31 O51 1.259 . S
C31 O54 1.258 . S
Co32 N41 2.057 . S
Co32 O48 2.117 . S
Co32 O49 2.020 . S
Co32 O51 2.021 . S
Co32 O56 2.062 . S
C33 N35 1.316 . S
C33 N36 1.347 . S
C33 H38 0.931 . S
C34 N35 1.375 . S
C34 C37 1.350 . S
C34 H39 0.930 . S
N35 Co30 2.057 . S
N35 C33 1.316 . S
N35 C34 1.375 . S
N36 C33 1.347 . S
N36 C37 1.373 . S
C37 C34 1.350 . S
C37 N36 1.373 . S
C37 H58 0.931 . S
H38 C33 0.931 . S
H39 C34 0.930 . S
C40 O47 1.259 . S
C40 O48 1.258 . S
N41 Co32 2.057 . S
N41 C42 1.316 . S
N41 C43 1.375 . S
C42 N41 1.316 . S
C42 N44 1.347 . S
C42 H53 0.931 . S
C43 N41 1.375 . S
C43 C45 1.350 . S
C43 H52 0.930 . S
N44 C42 1.347 . S
N44 C45 1.373 . S
C45 C43 1.350 . S
C45 N44 1.373 . S
C45 H59 0.931 . S
C46 O49 1.256 . S
C46 O50 1.255 . S
O47 Co30 2.021 . S
O47 C40 1.259 . S
O48 Co32 2.117 . S
O48 C40 1.258 . S
O49 Co32 2.020 . S
O49 C46 1.256 . S
O50 Co30 2.062 . S
O50 C46 1.255 . S
O51 C31 1.259 . S
O51 Co32 2.021 . S
H52 C43 0.930 . S
H53 C42 0.931 . S
O54 Co30 2.117 . S
O54 C31 1.258 . S
O55 Co30 2.020 . S
O55 C57 1.256 . S
O56 Co32 2.062 . S
O56 C57 1.255 . S
C57 O55 1.256 . S
C57 O56 1.255 . S
H58 C37 0.931 . S
H59 C45 0.931 . S
C60 C61 1.372 1_665 S
C60 C62 1.397 . S
C60 H84 0.931 . S
C61 C60 1.372 1_445 S
C61 C65 1.411 . S
C62 C60 1.397 . S
C62 C63 1.376 1_665 S
C62 H85 0.930 . S
C63 C62 1.376 1_445 S
C63 C64 1.386 . S
C63 C66 1.481 . S
C64 C63 1.386 . S
C64 C65 1.389 . S
C64 H86 0.929 . S
C65 C61 1.411 . S
C65 C64 1.389 . S
C65 H87 0.931 . S
C66 C63 1.481 . S
C66 C67 1.389 1_545 S
C66 C71 1.388 1_455 S
C67 C66 1.389 1_565 S
C67 C68 1.401 . S
C67 H88 0.930 . S
C68 C67 1.401 . S
C68 C69 1.376 1_465 S
C68 C77 1.511 . S
C69 C68 1.376 1_645 S
C69 C70 1.392 . S
C69 H90 0.931 . S
C70 C69 1.392 . S
C70 C71 1.361 . S
C70 C72 1.500 . S
C71 C66 1.388 1_655 S
C71 C70 1.361 . S
C71 H89 0.931 . S
C72 C70 1.500 . S
C72 C73 1.371 . S
C72 C74 1.365 . S
C73 C72 1.371 . S
C73 C83 1.386 . S
C73 H91 0.931 . S
C74 C72 1.365 . S
C74 C75 1.409 . S
C74 H92 0.929 . S
C75 C74 1.409 . S
C75 C76 1.380 . S
C75 H93 0.930 . S
C76 C75 1.380 . S
C76 C83 1.357 . S
C77 C68 1.511 . S
C77 C78 1.341 . S
C77 C79 1.371 . S
C78 C77 1.341 . S
C78 C82 1.394 . S
C78 H94 0.930 . S
C79 C77 1.371 . S
C79 C80 1.392 . S
C79 H95 0.931 . S
C80 C79 1.392 . S
C80 C81 1.331 . S
C80 H98 0.932 . S
C81 C80 1.331 . S
C81 C82 1.336 . S
C82 C78 1.394 . S
C82 C81 1.336 . S
C82 H97 0.929 . S
C83 C73 1.386 . S
C83 C76 1.357 . S
C83 H96 0.928 . S
H84 C60 0.931 . S
H85 C62 0.930 . S
H86 C64 0.929 . S
H87 C65 0.931 . S
H88 C67 0.930 . S
H89 C71 0.931 . S
H90 C69 0.931 . S
H91 C73 0.931 . S
H92 C74 0.929 . S
H93 C75 0.930 . S
H94 C78 0.930 . S
H95 C79 0.931 . S
H96 C83 0.928 . S
H97 C82 0.929 . S
H98 C80 0.932 . S
C99 C100 1.386 . S
C99 C101 1.397 . S
C99 H123 0.931 . S
C100 C99 1.386 . S
C100 C104 1.397 1_545 S
C101 C99 1.397 . S
C101 C102 1.384 . S
C101 H124 0.930 . S
C102 C101 1.384 . S
C102 C103 1.377 1_545 S
C102 C105 1.481 . S
C103 C102 1.377 1_565 S
C103 C104 1.389 . S
C103 H125 0.929 . S
C104 C100 1.397 1_565 S
C104 C103 1.389 . S
C104 H126 0.931 . S
C105 C102 1.481 . S
C105 C106 1.387 . S
C105 C110 1.390 1_445 S
C106 C105 1.387 . S
C106 C107 1.401 . S
C106 H127 0.930 . S
C107 C106 1.401 . S
C107 C108 1.384 . S
C107 C116 1.511 . S
C108 C107 1.384 . S
C108 C109 1.385 1_445 S
C108 H129 0.930 1_455 S
C109 C108 1.385 1_665 S
C109 C110 1.361 . S
C109 C111 1.500 . S
C110 C105 1.390 1_665 S
C110 C109 1.361 . S
C110 H128 0.931 . S
C111 C109 1.500 . S
C111 C112 1.371 . S
C111 C113 1.365 . S
C112 C111 1.371 . S
C112 C122 1.386 . S
C112 H130 0.931 . S
C113 C111 1.365 . S
C113 C114 1.409 . S
C113 H131 0.929 . S
C114 C113 1.409 . S
C114 C115 1.380 . S
C114 H132 0.930 . S
C115 C114 1.380 . S
C115 C122 1.357 . S
C116 C107 1.511 . S
C116 C117 1.341 . S
C116 C118 1.371 . S
C117 C116 1.341 . S
C117 C121 1.394 . S
C117 H133 0.930 . S
C118 C116 1.371 . S
C118 C119 1.392 . S
C118 H134 0.931 . S
C119 C118 1.392 . S
C119 C120 1.331 . S
C119 H137 0.932 . S
C120 C119 1.331 . S
C120 C121 1.336 . S
C121 C117 1.394 . S
C121 C120 1.336 . S
C121 H136 0.929 . S
C122 C112 1.386 . S
C122 C115 1.357 . S
C122 H135 0.928 . S
H123 C99 0.931 . S
H124 C101 0.930 . S
H125 C103 0.929 . S
H126 C104 0.931 . S
H127 C106 0.930 . S
H128 C110 0.931 . S
H129 C108 0.930 1_655 S
H130 C112 0.931 . S
H131 C113 0.929 . S
H132 C114 0.930 . S
H133 C117 0.930 . S
H134 C118 0.931 . S
H135 C122 0.928 . S
H136 C121 0.929 . S
H137 C119 0.932 . S
C138 C139 1.386 . S
C138 C140 1.397 . S
C138 H162 0.931 . S
C139 C138 1.386 . S
C139 C143 1.397 . S
C140 C138 1.397 . S
C140 C141 1.384 . S
C140 H163 0.930 . S
C141 C140 1.384 . S
C141 C142 1.377 . S
C141 C144 1.481 . S
C142 C141 1.377 . S
C142 C143 1.389 . S
C142 H164 0.929 . S
C143 C139 1.397 . S
C143 C142 1.389 . S
C143 H165 0.931 . S
C144 C141 1.481 . S
C144 C145 1.387 . S
C144 C149 1.390 . S
C145 C144 1.387 . S
C145 C146 1.401 . S
C145 H166 0.930 . S
C146 C145 1.401 . S
C146 C147 1.376 . S
C146 C155 1.511 . S
C147 C146 1.376 . S
C147 C148 1.392 . S
C147 H168 0.931 . S
C148 C147 1.392 . S
C148 C149 1.361 . S
C148 C150 1.500 . S
C149 C144 1.390 . S
C149 C148 1.361 . S
C149 H167 0.931 . S
C150 C148 1.500 . S
C150 C151 1.371 . S
C150 C152 1.365 . S
C151 C150 1.371 . S
C151 C161 1.386 1_556 S
C151 H169 0.931 1_556 S
C152 C150 1.365 . S
C152 C153 1.409 . S
C152 H170 0.929 . S
C153 C152 1.409 . S
C153 C154 1.380 1_556 S
C153 H171 0.930 . S
C154 C153 1.380 1_554 S
C154 C161 1.357 . S
C155 C146 1.511 . S
C155 C156 1.341 . S
C155 C157 1.371 1_556 S
C156 C155 1.341 . S
C156 C160 1.394 . S
C156 H172 0.930 . S
C157 C155 1.371 1_554 S
C157 C158 1.392 . S
C157 H173 0.931 . S
C158 C157 1.392 . S
C158 C159 1.331 . S
C158 H176 0.932 . S
C159 C158 1.331 . S
C159 C160 1.336 1_554 S
C160 C156 1.394 . S
C160 C159 1.336 1_556 S
C160 H175 0.929 . S
C161 C151 1.386 1_554 S
C161 C154 1.357 . S
C161 H174 0.928 . S
H162 C138 0.931 . S
H163 C140 0.930 . S
H164 C142 0.929 . S
H165 C143 0.931 . S
H166 C145 0.930 . S
H167 C149 0.931 . S
H168 C147 0.931 . S
H169 C151 0.931 1_554 S
H170 C152 0.929 . S
H171 C153 0.930 . S
H172 C156 0.930 . S
H173 C157 0.931 . S
H174 C161 0.928 . S
H175 C160 0.929 . S
H176 C158 0.932 . S
C177 C178 1.386 . S
C177 C179 1.397 . S
C177 H201 0.931 . S
C178 C177 1.386 . S
C178 C182 1.397 . S
C179 C177 1.397 . S
C179 C180 1.384 . S
C179 H202 0.930 . S
C180 C179 1.384 . S
C180 C181 1.377 . S
C180 C183 1.481 . S
C181 C180 1.377 . S
C181 C182 1.389 . S
C181 H203 0.929 . S
C182 C178 1.397 . S
C182 C181 1.389 . S
C182 H204 0.931 . S
C183 C180 1.481 . S
C183 C184 1.387 . S
C183 C188 1.390 . S
C184 C183 1.387 . S
C184 C185 1.401 . S
C184 H205 0.930 . S
C185 C184 1.401 . S
C185 C186 1.376 . S
C185 C194 1.511 . S
C186 C185 1.376 . S
C186 C187 1.392 . S
C186 H207 0.931 . S
C187 C186 1.392 . S
C187 C188 1.361 . S
C187 C189 1.500 . S
C188 C183 1.390 . S
C188 C187 1.361 . S
C188 H206 0.931 . S
C189 C187 1.500 . S
C189 C190 1.371 . S
C189 C191 1.365 . S
C190 C189 1.371 . S
C190 C200 1.386 . S
C190 H208 0.931 . S
C191 C189 1.365 . S
C191 C192 1.409 . S
C191 H209 0.929 . S
C192 C191 1.409 . S
C192 C193 1.380 . S
C192 H210 0.930 . S
C193 C192 1.380 . S
C193 C200 1.357 . S
C194 C185 1.511 . S
C194 C195 1.341 . S
C194 C196 1.371 . S
C195 C194 1.341 . S
C195 C199 1.394 . S
C195 H211 0.930 . S
C196 C194 1.371 . S
C196 C197 1.394 . S
C196 H212 0.931 . S
C197 C196 1.394 . S
C197 C198 1.332 . S
C197 H215 0.928 1_554 S
C198 C197 1.332 . S
C198 C199 1.336 . S
C199 C195 1.394 . S
C199 C198 1.336 . S
C199 H214 0.929 . S
C200 C190 1.386 . S
C200 C193 1.357 . S
C200 H213 0.928 1_554 S
H201 C177 0.931 . S
H202 C179 0.930 . S
H203 C181 0.929 . S
H204 C182 0.931 . S
H205 C184 0.930 . S
H206 C188 0.931 . S
H207 C186 0.931 . S
H208 C190 0.931 . S
H209 C191 0.929 . S
H210 C192 0.930 . S
H211 C195 0.930 . S
H212 C196 0.931 . S
H213 C200 0.928 1_556 S
H214 C199 0.929 . S
H215 C197 0.928 1_556 S
C216 C217 1.369 . S
C216 C218 1.419 . S
C216 H220 0.930 . S
C217 C216 1.369 . S
C217 C226 1.429 1_554 S
C218 C216 1.419 . S
C218 C219 1.363 . S
C218 H221 0.929 . S
C219 C218 1.363 . S
C219 C225 1.428 1_554 S
H220 C216 0.930 . S
H221 C218 0.929 . S
S222 N223 1.613 . S
S222 N224 1.610 . S
N223 S222 1.613 . S
N223 C226 1.350 . S
N224 S222 1.610 . S
N224 C225 1.351 . S
C225 C219 1.428 1_556 S
C225 N224 1.351 . S
C225 C226 1.434 . S
C226 C217 1.429 1_556 S
C226 N223 1.350 . S
C226 C225 1.434 . S
C227 C228 1.369 . S
C227 C229 1.419 . S
C227 H231 0.930 . S
C228 C227 1.369 . S
C228 C237 1.427 1_554 S
C229 C227 1.419 . S
C229 C230 1.363 . S
C229 H232 0.929 . S
C230 C229 1.363 . S
C230 C236 1.425 1_554 S
H231 C227 0.930 . S
H232 C229 0.929 . S
S233 N234 1.613 . S
S233 N235 1.610 . S
N234 S233 1.613 . S
N234 C237 1.352 . S
N235 S233 1.610 . S
N235 C236 1.355 . S
C236 C230 1.425 1_556 S
C236 N235 1.355 . S
C236 C237 1.434 . S
C237 C228 1.427 1_556 S
C237 N234 1.352 . S
C237 C236 1.434 . S
C238 C239 1.369 1_556 S
C238 C240 1.419 . S
C238 H242 0.930 . S
C239 C238 1.369 1_554 S
C239 C248 1.429 . S
C240 C238 1.419 . S
C240 C241 1.363 1_556 S
C240 H243 0.929 . S
C241 C240 1.363 1_554 S
C241 C247 1.428 . S
H242 C238 0.930 . S
H243 C240 0.929 . S
S244 N245 1.613 . S
S244 N246 1.610 . S
N245 S244 1.613 . S
N245 C248 1.350 . S
N246 S244 1.610 . S
N246 C247 1.351 . S
C247 C241 1.428 . S
C247 N246 1.351 . S
C247 C248 1.434 . S
C248 C239 1.429 . S
C248 N245 1.350 . S
C248 C247 1.434 . S
C249 C250 1.369 . S
C249 C251 1.419 . S
C249 H253 0.930 . S
C250 C249 1.369 . S
C250 C259 1.429 1_554 S
C251 C249 1.419 . S
C251 C252 1.363 . S
C251 H254 0.929 . S
C252 C251 1.363 . S
C252 C258 1.428 1_554 S
H253 C249 0.930 . S
H254 C251 0.929 . S
S255 N256 1.613 . S
S255 N257 1.610 . S
N256 S255 1.613 . S
N256 C259 1.350 . S
N257 S255 1.610 . S
N257 C258 1.351 . S
C258 C252 1.428 1_556 S
C258 N257 1.351 . S
C258 C259 1.434 . S
C259 C250 1.429 1_556 S
C259 N256 1.350 . S
C259 C258 1.434 . S
C260 C261 1.369 . S
C260 C262 1.419 . S
C260 H264 0.930 . S
C261 C260 1.369 . S
C261 C270 1.429 . S
C262 C260 1.419 . S
C262 C263 1.363 . S
C262 H265 0.929 . S
C263 C262 1.363 . S
C263 C269 1.428 . S
H264 C260 0.930 . S
H265 C262 0.929 . S
S266 N267 1.613 . S
S266 N268 1.610 . S
N267 S266 1.613 . S
N267 C270 1.350 . S
N268 S266 1.610 . S
N268 C269 1.351 . S
C269 C263 1.428 . S
C269 N268 1.351 . S
C269 C270 1.434 . S
C270 C261 1.429 . S
C270 N267 1.350 . S
C270 C269 1.434 . S
C271 C272 1.369 . S
C271 C273 1.419 . S
C271 H275 0.930 . S
C272 C271 1.369 . S
C272 C281 1.429 . S
C273 C271 1.419 . S
C273 C274 1.363 . S
C273 H276 0.929 . S
C274 C273 1.363 . S
C274 C280 1.428 . S
H275 C271 0.930 . S
H276 C273 0.929 . S
S277 N278 1.613 . S
S277 N279 1.610 . S
N278 S277 1.613 . S
N278 C281 1.350 . S
N279 S277 1.610 . S
N279 C280 1.351 . S
C280 C274 1.428 . S
C280 N279 1.351 . S
C280 C281 1.434 . S
C281 C272 1.429 . S
C281 N278 1.350 . S
C281 C280 1.434 . S
C282 C283 1.369 . S
C282 C284 1.419 . S
C282 H286 0.930 . S
C283 C282 1.369 . S
C283 C292 1.429 . S
C284 C282 1.419 . S
C284 C285 1.363 . S
C284 H287 0.929 . S
C285 C284 1.363 . S
C285 C291 1.428 . S
H286 C282 0.930 . S
H287 C284 0.929 . S
S288 N289 1.613 . S
S288 N290 1.610 . S
N289 S288 1.613 . S
N289 C292 1.350 . S
N290 S288 1.610 . S
N290 C291 1.351 . S
C291 C285 1.428 . S
C291 N290 1.351 . S
C291 C292 1.434 . S
C292 C283 1.429 . S
C292 N289 1.350 . S
C292 C291 1.434 . S
C293 C294 1.369 . S
C293 C295 1.419 . S
C293 H297 0.930 . S
C294 C293 1.369 . S
C294 C303 1.429 . S
C295 C293 1.419 . S
C295 C296 1.363 . S
C295 H298 0.929 . S
C296 C295 1.363 . S
C296 C302 1.428 . S
H297 C293 0.930 . S
H298 C295 0.929 . S
S299 N300 1.613 . S
S299 N301 1.610 . S
N300 S299 1.613 . S
N300 C303 1.350 . S
N301 S299 1.610 . S
N301 C302 1.351 . S
C302 C296 1.428 . S
C302 N301 1.351 . S
C302 C303 1.434 . S
C303 C294 1.429 . S
C303 N300 1.350 . S
C303 C302 1.434 . S
C304 C305 1.369 1_665 S
C304 C306 1.419 . S
C304 H308 0.930 . S
C305 C304 1.369 1_445 S
C305 C314 1.429 . S
C306 C304 1.419 . S
C306 C307 1.363 1_665 S
C306 H309 0.929 . S
C307 C306 1.363 1_445 S
C307 C313 1.428 . S
H308 C304 0.930 . S
H309 C306 0.929 . S
S310 N311 1.613 . S
S310 N312 1.610 . S
N311 S310 1.613 . S
N311 C314 1.350 . S
N312 S310 1.610 . S
N312 C313 1.351 . S
C313 C307 1.428 . S
C313 N312 1.351 . S
C313 C314 1.434 . S
C314 C305 1.429 . S
C314 N311 1.350 . S
C314 C313 1.434 . S
C315 C316 1.369 . S
C315 C317 1.419 . S
C315 H319 0.930 . S
C316 C315 1.369 . S
C316 C325 1.429 1_455 S
C317 C315 1.419 . S
C317 C318 1.363 . S
C317 H320 0.929 . S
C318 C317 1.363 . S
C318 C324 1.428 1_455 S
H319 C315 0.930 . S
H320 C317 0.929 . S
S321 N322 1.613 . S
S321 N323 1.610 . S
N322 S321 1.613 . S
N322 C325 1.350 . S
N323 S321 1.610 . S
N323 C324 1.351 . S
C324 C318 1.428 1_655 S
C324 N323 1.351 . S
C324 C325 1.434 . S
C325 C316 1.429 1_655 S
C325 N322 1.350 . S
C325 C324 1.434 . S
C326 C327 1.369 . S
C326 C328 1.419 . S
C326 H330 0.930 . S
C327 C326 1.369 . S
C327 C336 1.429 . S
C328 C326 1.419 . S
C328 C329 1.363 . S
C328 H331 0.929 . S
C329 C328 1.363 . S
C329 C335 1.428 . S
H330 C326 0.930 . S
H331 C328 0.929 . S
S332 N333 1.613 . S
S332 N334 1.610 . S
N333 S332 1.613 . S
N333 C336 1.350 . S
N334 S332 1.610 . S
N334 C335 1.351 . S
C335 C329 1.428 . S
C335 N334 1.351 . S
C335 C336 1.434 . S
C336 C327 1.429 . S
C336 N333 1.350 . S
C336 C335 1.434 . S
C337 C338 1.369 . S
C337 C339 1.419 . S
C337 H341 0.930 . S
C338 C337 1.369 . S
C338 C347 1.429 . S
C339 C337 1.419 . S
C339 C340 1.363 . S
C339 H342 0.929 . S
C340 C339 1.363 . S
C340 C346 1.428 . S
H341 C337 0.930 . S
H342 C339 0.929 . S
S343 N344 1.613 . S
S343 N345 1.610 . S
N344 S343 1.613 . S
N344 C347 1.350 . S
N345 S343 1.610 . S
N345 C346 1.351 . S
C346 C340 1.428 . S
C346 N345 1.351 . S
C346 C347 1.434 . S
C347 C338 1.429 . S
C347 N344 1.350 . S
C347 C346 1.434 . S
C219 C193 1.526 . S
C217 C27 1.589 . S
C228 N6 1.487 . S
C230 C154 1.470 . S
C239 C16 1.567 . S
C241 C198 1.510 . S
C250 N14 1.474 . S
C252 C159 1.464 . S
C261 C57 1.588 . S
C263 C115 1.526 . S
C272 N36 1.489 . S
C274 C76 1.473 . S
C285 C120 1.510 . S
C283 C46 1.567 . S
C296 C81 1.467 . S
C294 N44 1.469 . S
C305 C10 1.393 . S
C307 C61 1.399 . S
C316 C1 1.535 . S
C318 C100 1.541 . S
C329 C139 1.398 . S
C327 C40 1.393 . S
C338 C31 1.536 . S
C340 C178 1.541 . S
