# Generated by pormake.
# Topology csq, (4,8)-cn, num edge types: 1
# Building blocks:
#     Node 0, Type 0, BuildingBlock: NAWXER_clean_linker_0, # of connection points: 4
#     Node 1, Type 0, BuildingBlock: NAWXER_clean_linker_0, # of connection points: 4
#     Node 2, Type 0, BuildingBlock: NAWXER_clean_linker_0, # of connection points: 4
#     Node 3, Type 0, BuildingBlock: NAWXER_clean_linker_0, # of connection points: 4
#     Node 4, Type 0, BuildingBlock: NAWXER_clean_linker_0, # of connection points: 4
#     Node 5, Type 0, BuildingBlock: NAWXER_clean_linker_0, # of connection points: 4
#     Node 6, Type 1, BuildingBlock: TAGTUT_clean_sbu_3, # of connection points: 8
#     Node 7, Type 1, BuildingBlock: TAGTUT_clean_sbu_3, # of connection points: 8
#     Node 8, Type 1, BuildingBlock: TAGTUT_clean_sbu_3, # of connection points: 8
#     Edge 9, Type (0, 1), BuildingBlock: XUDNAN_clean_linker_2, # of connection points: 2
#     Edge 10, Type (0, 1), BuildingBlock: XUDNAN_clean_linker_2, # of connection points: 2
#     Edge 11, Type (0, 1), BuildingBlock: XUDNAN_clean_linker_2, # of connection points: 2
#     Edge 12, Type (0, 1), BuildingBlock: XUDNAN_clean_linker_2, # of connection points: 2
#     Edge 13, Type (0, 1), BuildingBlock: XUDNAN_clean_linker_2, # of connection points: 2
#     Edge 14, Type (0, 1), BuildingBlock: XUDNAN_clean_linker_2, # of connection points: 2
#     Edge 15, Type (0, 1), BuildingBlock: XUDNAN_clean_linker_2, # of connection points: 2
#     Edge 16, Type (0, 1), BuildingBlock: XUDNAN_clean_linker_2, # of connection points: 2
#     Edge 17, Type (0, 1), BuildingBlock: XUDNAN_clean_linker_2, # of connection points: 2
#     Edge 18, Type (0, 1), BuildingBlock: XUDNAN_clean_linker_2, # of connection points: 2
#     Edge 19, Type (0, 1), BuildingBlock: XUDNAN_clean_linker_2, # of connection points: 2
#     Edge 20, Type (0, 1), BuildingBlock: XUDNAN_clean_linker_2, # of connection points: 2
#     Edge 21, Type (0, 1), BuildingBlock: XUDNAN_clean_linker_2, # of connection points: 2
#     Edge 22, Type (0, 1), BuildingBlock: XUDNAN_clean_linker_2, # of connection points: 2
#     Edge 23, Type (0, 1), BuildingBlock: XUDNAN_clean_linker_2, # of connection points: 2
#     Edge 24, Type (0, 1), BuildingBlock: XUDNAN_clean_linker_2, # of connection points: 2
#     Edge 25, Type (0, 1), BuildingBlock: XUDNAN_clean_linker_2, # of connection points: 2
#     Edge 26, Type (0, 1), BuildingBlock: XUDNAN_clean_linker_2, # of connection points: 2
#     Edge 27, Type (0, 1), BuildingBlock: XUDNAN_clean_linker_2, # of connection points: 2
#     Edge 28, Type (0, 1), BuildingBlock: XUDNAN_clean_linker_2, # of connection points: 2
#     Edge 29, Type (0, 1), BuildingBlock: XUDNAN_clean_linker_2, # of connection points: 2
#     Edge 30, Type (0, 1), BuildingBlock: XUDNAN_clean_linker_2, # of connection points: 2
#     Edge 31, Type (0, 1), BuildingBlock: XUDNAN_clean_linker_2, # of connection points: 2
#     Edge 32, Type (0, 1), BuildingBlock: XUDNAN_clean_linker_2, # of connection points: 2
# Relax obj value: 0.028
# Max RMSD: 0.110
# Mean RMSD: 0.041
data_MOF--net-csq--node1-TAGTUT_clean_sbu_3--node2-NAWXER_clean_linker_0--edge1-XUDNAN_clean_linker_2
_symmetry_space_group_name_H-M    P1
_symmetry_Int_Tables_number       1
_symmetry_cell_setting            triclinic
loop_
_symmetry_equiv_pos_as_xyz
'x, y, z'
_cell_length_a     61.855794
_cell_length_b     61.242697
_cell_length_c     21.863268
_cell_angle_alpha  92.358577
_cell_angle_beta   92.333025
_cell_angle_gamma 120.01981
loop_
_atom_site_label
_atom_site_type_symbol
_atom_site_fract_x
_atom_site_fract_y
_atom_site_fract_z
_atom_type_partial_charge
C0 C 0.34054 0.5142 0.09724 0.0
C1 C 0.33865 0.50126 0.04074 0.0
C2 C 0.31924 0.51224 0.1222 0.0
C3 C 0.29534 0.49652 0.09261 0.0
C4 C 0.3148 0.48653 0.00976 0.0
C5 C 0.29344 0.48409 0.03551 0.0
C6 C 0.27231 0.49302 0.12048 0.0
C7 C 0.30342 0.45885 0.24078 0.0
C8 C 0.31749 0.4744 0.29303 0.0
C9 C 0.28722 0.46403 0.20695 0.0
C10 C 0.28493 0.48508 0.22402 0.0
C11 C 0.31466 0.49511 0.31131 0.0
C12 C 0.29827 0.50029 0.27722 0.0
C13 C 0.2691 0.49107 0.18402 0.0
C14 C 0.16151 0.46558 0.20277 0.0
C15 C 0.16448 0.4821 0.25348 0.0
C16 C 0.18218 0.4667 0.17641 0.0
C17 C 0.20661 0.4855 0.19684 0.0
C18 C 0.18906 0.50038 0.27541 0.0
C19 C 0.2098 0.50213 0.24719 0.0
C20 C 0.22899 0.48749 0.1683 0.0
C21 C 0.17718 0.4812 0.00384 0.0
C22 C 0.16752 0.45684 0.97498 0.0
C23 C 0.1981 0.49124 0.04593 0.0
C24 C 0.20966 0.47708 0.05861 0.0
C25 C 0.17931 0.44292 0.98743 0.0
C26 C 0.20043 0.45311 0.02831 0.0
C27 C 0.23105 0.48623 0.10402 0.0
H28 H 0.35842 0.52564 0.12291 0.0
H29 H 0.32155 0.52296 0.16498 0.0
H30 H 0.31251 0.47687 0.96532 0.0
H31 H 0.27536 0.47217 0.01098 0.0
H32 H 0.30534 0.44293 0.22512 0.0
H33 H 0.2768 0.45185 0.16644 0.0
H34 H 0.32508 0.50722 0.35187 0.0
H35 H 0.29655 0.5165 0.29124 0.0
H36 H 0.14316 0.45148 0.18301 0.0
H37 H 0.17879 0.45246 0.14054 0.0
H38 H 0.19247 0.51313 0.31506 0.0
H39 H 0.22842 0.5165 0.26496 0.0
H40 H 0.16824 0.4922 0.99468 0.0
H41 H 0.20509 0.5098 0.06885 0.0
H42 H 0.17223 0.42421 0.96528 0.0
H43 H 0.20922 0.44199 0.03761 0.0
N44 N 0.25277 0.48963 0.08285 0.0
N45 N 0.24805 0.48936 0.20592 0.0
C46 C 0.6821 0.17421 0.18771 0.0
C47 C 0.69151 0.16451 0.23211 0.0
C48 C 0.69825 0.19626 0.1599 0.0
C49 C 0.72422 0.20871 0.17475 0.0
C50 C 0.71727 0.17822 0.25024 0.0
C51 C 0.73342 0.20003 0.22184 0.0
C52 C 0.74209 0.22962 0.13895 0.0
C53 C 0.70338 0.15953 0.01955 0.0
C54 C 0.68727 0.15946 0.97218 0.0
C55 C 0.72144 0.1821 0.05039 0.0
C56 C 0.72302 0.20502 0.03688 0.0
C57 C 0.68996 0.18271 0.95611 0.0
C58 C 0.70768 0.20532 0.98841 0.0
C59 C 0.74055 0.22844 0.07415 0.0
C60 C 0.83645 0.31221 1.00013 0.0
C61 C 0.82967 0.32825 0.97151 0.0
C62 C 0.81941 0.29293 0.03453 0.0
C63 C 0.79529 0.28926 0.0399 0.0
C64 C 0.80543 0.32432 0.97639 0.0
C65 C 0.78825 0.30472 0.00955 0.0
C66 C 0.77716 0.26915 0.07624 0.0
C67 C 0.83394 0.33258 0.20947 0.0
C68 C 0.84272 0.32474 0.25971 0.0
C69 C 0.81336 0.31502 0.1709 0.0
C70 C 0.80179 0.2891 0.18003 0.0
C71 C 0.83049 0.29885 0.2697 0.0
C72 C 0.81057 0.28132 0.23008 0.0
C73 C 0.77979 0.26959 0.14103 0.0
H74 H 0.66241 0.16428 0.1726 0.0
H75 H 0.69054 0.20298 0.12496 0.0
H76 H 0.72512 0.17184 0.28569 0.0
H77 H 0.7533 0.20949 0.23492 0.0
H78 H 0.70181 0.14214 0.034 0.0
H79 H 0.73373 0.18152 0.08623 0.0
H80 H 0.67842 0.18351 0.91872 0.0
H81 H 0.70903 0.22294 0.97644 0.0
H82 H 0.85511 0.31504 0.9972 0.0
H83 H 0.82506 0.281 0.0572 0.0
H84 H 0.79984 0.33649 0.95465 0.0
H85 H 0.76964 0.302 0.01284 0.0
H86 H 0.84285 0.35228 0.19968 0.0
H87 H 0.8064 0.32195 0.1349 0.0
H88 H 0.83595 0.29195 0.30877 0.0
H89 H 0.80187 0.26151 0.23904 0.0
N90 N 0.7619 0.24992 0.16959 0.0
N91 N 0.75771 0.24848 0.04525 0.0
C92 C 0.53824 0.70439 0.91033 0.0
C93 C 0.52089 0.69104 0.86001 0.0
C94 C 0.53185 0.71489 0.9591 0.0
C95 C 0.50823 0.71274 0.95793 0.0
C96 C 0.49707 0.68879 0.85952 0.0
C97 C 0.49095 0.69992 0.90773 0.0
C98 C 0.50344 0.72742 0.00432 0.0
C99 C 0.47884 0.65459 0.09826 0.0
C100 C 0.49518 0.65701 0.14833 0.0
C101 C 0.48203 0.67591 0.06944 0.0
C102 C 0.50141 0.7001 0.09058 0.0
C103 C 0.51518 0.68131 0.16752 0.0
C104 C 0.51802 0.7026 0.13954 0.0
C105 C 0.50275 0.72296 0.06682 0.0
C106 C 0.49741 0.81202 0.18614 0.0
C107 C 0.50753 0.81107 0.2443 0.0
C108 C 0.49585 0.79617 0.13611 0.0
C109 C 0.50564 0.77993 0.14199 0.0
C110 C 0.51621 0.79395 0.25044 0.0
C111 C 0.51577 0.7791 0.20005 0.0
C112 C 0.50414 0.76214 0.09118 0.0
C113 C 0.5325 0.832 0.97343 0.0
C114 C 0.51296 0.82929 0.93276 0.0
C115 C 0.52924 0.81193 0.00797 0.0
C116 C 0.50651 0.7889 0.00173 0.0
C117 C 0.49003 0.80642 0.92817 0.0
C118 C 0.48695 0.78633 0.96181 0.0
C119 C 0.50429 0.76618 0.02778 0.0
H120 H 0.55693 0.70706 0.91186 0.0
H121 H 0.54569 0.7255 0.99676 0.0
H122 H 0.48302 0.67824 0.82232 0.0
H123 H 0.4728 0.69859 0.90581 0.0
H124 H 0.46301 0.63635 0.08253 0.0
H125 H 0.46869 0.67359 0.03248 0.0
H126 H 0.52862 0.68403 0.20457 0.0
H127 H 0.5331 0.72113 0.15659 0.0
H128 H 0.49062 0.82495 0.17864 0.0
H129 H 0.48643 0.79645 0.0938 0.0
H130 H 0.52321 0.7916 0.29435 0.0
H131 H 0.52318 0.76662 0.20716 0.0
H132 H 0.55031 0.84951 0.97794 0.0
H133 H 0.54472 0.814 0.0376 0.0
H134 H 0.47476 0.80372 0.89673 0.0
H135 H 0.46947 0.7685 0.95548 0.0
N136 N 0.504 0.74868 0.98715 0.0
N137 N 0.50316 0.74047 0.10759 0.0
C138 C 0.86662 0.56494 0.9418 0.0
C139 C 0.85881 0.54147 0.90995 0.0
C140 C 0.84958 0.56924 0.97245 0.0
C141 C 0.82448 0.55 0.97336 0.0
C142 C 0.83324 0.52286 0.90744 0.0
C143 C 0.81628 0.52708 0.93893 0.0
C144 C 0.80716 0.55315 0.01277 0.0
C145 C 0.8622 0.54977 0.15485 0.0
C146 C 0.88113 0.57479 0.17262 0.0
C147 C 0.84023 0.54495 0.122 0.0
C148 C 0.83663 0.565 0.10744 0.0
C149 C 0.87759 0.59479 0.15569 0.0
C150 C 0.85534 0.5899 0.1245 0.0
C151 C 0.81302 0.56009 0.07616 0.0
C152 C 0.71479 0.53818 0.16815 0.0
C153 C 0.7214 0.56041 0.20474 0.0
C154 C 0.73176 0.53714 0.12951 0.0
C155 C 0.75582 0.55813 0.12737 0.0
C156 C 0.74567 0.58136 0.20234 0.0
C157 C 0.7628 0.58007 0.1648 0.0
C158 C 0.77367 0.55733 0.08573 0.0
C159 C 0.71963 0.56924 0.97503 0.0
C160 C 0.70486 0.55048 0.9283 0.0
C161 C 0.74026 0.56973 0.00429 0.0
C162 C 0.74607 0.55078 0.98995 0.0
C163 C 0.71088 0.53167 0.91306 0.0
C164 C 0.73135 0.53185 0.94364 0.0
C165 C 0.76815 0.55164 0.02168 0.0
H166 H 0.88607 0.57977 0.94496 0.0
H167 H 0.85618 0.58747 0.9967 0.0
H168 H 0.82634 0.50482 0.8819 0.0
H169 H 0.79691 0.5121 0.93814 0.0
H170 H 0.8639 0.5338 0.16787 0.0
H171 H 0.82578 0.52559 0.10933 0.0
H172 H 0.89189 0.6143 0.16692 0.0
H173 H 0.8528 0.60556 0.11312 0.0
H174 H 0.69661 0.52141 0.16964 0.0
H175 H 0.72615 0.51989 0.10152 0.0
H176 H 0.75143 0.59899 0.22863 0.0
H177 H 0.78129 0.59649 0.16356 0.0
H178 H 0.71547 0.58385 0.98884 0.0
H179 H 0.75187 0.58526 0.03774 0.0
H180 H 0.7002 0.51717 0.8766 0.0
H181 H 0.73571 0.51727 0.93105 0.0
N182 N 0.78489 0.54923 0.98756 0.0
N183 N 0.79606 0.56175 0.11045 0.0
C184 C 0.27456 0.8817 0.01605 0.0
C185 C 0.27802 0.87593 0.95573 0.0
C186 C 0.25988 0.86235 0.05334 0.0
C187 C 0.24923 0.83685 0.03172 0.0
C188 C 0.26604 0.85057 0.93274 0.0
C189 C 0.25185 0.83122 0.97041 0.0
C190 C 0.2356 0.81587 0.07218 0.0
C191 C 0.31327 0.85898 0.16373 0.0
C192 C 0.31513 0.86927 0.22364 0.0
C193 C 0.28988 0.84244 0.13394 0.0
C194 C 0.26786 0.83623 0.16301 0.0
C195 C 0.29304 0.86315 0.25248 0.0
C196 C 0.26964 0.84668 0.22251 0.0
C197 C 0.24325 0.81666 0.13434 0.0
C198 C 0.18645 0.71443 0.22287 0.0
C199 C 0.17669 0.71942 0.27538 0.0
C200 C 0.19594 0.73201 0.1779 0.0
C201 C 0.19556 0.75473 0.18434 0.0
C202 C 0.17592 0.742 0.28062 0.0
C203 C 0.18543 0.75949 0.23595 0.0
C204 C 0.20851 0.77518 0.14264 0.0
C205 C 0.14588 0.70846 0.02987 0.0
C206 C 0.15291 0.70387 0.97267 0.0
C207 C 0.16097 0.73154 0.0641 0.0
C208 C 0.1838 0.74974 0.04253 0.0
C209 C 0.17462 0.72266 0.94917 0.0
C210 C 0.18994 0.74529 0.98378 0.0
C211 C 0.20208 0.77342 0.07894 0.0
H212 H 0.28341 0.90118 0.03448 0.0
H213 H 0.25731 0.86738 0.09942 0.0
H214 H 0.26854 0.84565 0.88643 0.0
H215 H 0.24364 0.81178 0.95211 0.0
H216 H 0.32991 0.86341 0.14019 0.0
H217 H 0.28905 0.83397 0.08879 0.0
H218 H 0.29383 0.87037 0.29906 0.0
H219 H 0.25292 0.84174 0.24622 0.0
H220 H 0.18752 0.69735 0.2175 0.0
H221 H 0.20421 0.72821 0.13911 0.0
H222 H 0.16809 0.7463 0.31957 0.0
H223 H 0.18521 0.77703 0.24216 0.0
H224 H 0.1291 0.694 0.04858 0.0
H225 H 0.15495 0.7348 0.10756 0.0
H226 H 0.18043 0.71928 0.90538 0.0
H227 H 0.20724 0.75894 0.96531 0.0
N228 N 0.21563 0.79411 0.04702 0.0
N229 N 0.22897 0.79667 0.16741 0.0
C230 C 0.52647 0.19257 0.09496 0.0
C231 C 0.51883 0.18396 0.03311 0.0
C232 C 0.51527 0.20413 0.1271 0.0
C233 C 0.4957 0.20621 0.09817 0.0
C234 C 0.49953 0.18633 0.00433 0.0
C235 C 0.48805 0.19729 0.03657 0.0
C236 C 0.48474 0.22007 0.12798 0.0
C237 C 0.47345 0.1582 0.25178 0.0
C238 C 0.47851 0.16573 0.31509 0.0
C239 C 0.47132 0.17375 0.20957 0.0
C240 C 0.47551 0.19779 0.22914 0.0
C241 C 0.48086 0.18904 0.33462 0.0
C242 C 0.47975 0.20491 0.29235 0.0
C243 C 0.47486 0.21578 0.18629 0.0
C244 C 0.43296 0.2683 0.28867 0.0
C245 C 0.44885 0.29451 0.29568 0.0
C246 C 0.43744 0.25391 0.24537 0.0
C247 C 0.45812 0.26547 0.20929 0.0
C248 C 0.46879 0.3063 0.2578 0.0
C249 C 0.47366 0.29186 0.21559 0.0
C250 C 0.4659 0.24938 0.17588 0.0
C251 C 0.50659 0.30711 0.01359 0.0
C252 C 0.4886 0.31444 0.00383 0.0
C253 C 0.50227 0.28775 0.05123 0.0
C254 C 0.47977 0.2749 0.08009 0.0
C255 C 0.46579 0.30135 0.03185 0.0
C256 C 0.46135 0.28164 0.06943 0.0
C257 C 0.47602 0.2538 0.11786 0.0
H258 H 0.54133 0.1908 0.11778 0.0
H259 H 0.52204 0.21166 0.17401 0.0
H260 H 0.4932 0.1795 0.95681 0.0
H261 H 0.47326 0.19901 0.01309 0.0
H262 H 0.4715 0.14049 0.2342 0.0
H263 H 0.46657 0.16692 0.16176 0.0
H264 H 0.48362 0.19527 0.38277 0.0
H265 H 0.48246 0.22303 0.30948 0.0
H266 H 0.41757 0.25896 0.31783 0.0
H267 H 0.42545 0.23353 0.24218 0.0
H268 H 0.48145 0.32655 0.26343 0.0
H269 H 0.49041 0.30125 0.19088 0.0
H270 H 0.52408 0.31621 0.99163 0.0
H271 H 0.51675 0.28285 0.05788 0.0
H272 H 0.45151 0.3065 0.02531 0.0
H273 H 0.44353 0.27162 0.08968 0.0
N274 N 0.48472 0.23872 0.09651 0.0
N275 N 0.46577 0.23059 0.20712 0.0
C276 C 0.04068 0.48359 0.51822 0.0
C277 C 0.03211 0.44196 0.72676 0.0
C278 C 0.96722 0.45022 0.74311 0.0
Mg279 Mg 0.0248 0.52452 0.47734 0.0
Mg280 Mg 0.02336 0.56443 0.58124 0.0
O281 O 0.01184 0.53066 0.55479 0.0
Mg282 Mg 0.01829 0.50924 0.6102 0.0
O283 O 0.02385 0.48554 0.66017 0.0
Mg284 Mg -0.00091 0.45181 0.61732 0.0
Mg285 Mg 0.0229 0.48701 0.745 0.0
C286 C 0.99218 0.53561 0.69244 0.0
O287 O 0.05225 0.54293 0.66714 0.0
O288 O 0.00678 0.54559 0.42965 0.0
O289 O 0.04867 0.52679 0.76002 0.0
O290 O 0.06181 0.56279 0.49054 0.0
O291 O 0.00668 0.57223 0.5037 0.0
O292 O 0.06328 0.58641 0.5727 0.0
O293 O 0.98468 0.47419 0.5626 0.0
O294 O 0.98784 0.48654 0.46687 0.0
C295 C 0.97687 0.47005 0.50592 0.0
C296 C 0.0019 0.5628 0.44807 0.0
O297 O 0.9943 0.51618 0.67796 0.0
O298 O 0.01907 0.4348 0.67505 0.0
O299 O 0.00389 0.55646 0.66603 0.0
O300 O 0.96941 0.44111 0.69139 0.0
O301 O 0.0359 0.46137 0.76007 0.0
O302 O 0.98532 0.47033 0.7699 0.0
O303 O 0.04119 0.50418 0.53544 0.0
O304 O 0.02759 0.4631 0.54468 0.0
C305 C 0.07346 0.58288 0.52648 0.0
C306 C 0.05892 0.54501 0.72474 0.0
C307 C 0.50002 0.04029 0.52817 0.0
C308 C 0.56729 0.02153 0.4419 0.0
C309 C 0.51986 0.94719 0.51099 0.0
Mg310 Mg 0.46553 0.01784 0.64056 0.0
Mg311 Mg 0.47988 0.9937 0.75604 0.0
O312 O 0.47524 0.99313 0.67089 0.0
Mg313 Mg 0.50336 0.00077 0.61726 0.0
O314 O 0.52942 0.009 0.55711 0.0
Mg315 Mg 0.50716 0.9936 0.47917 0.0
Mg316 Mg 0.55371 -0.00017 0.5698 0.0
C317 C 0.50185 0.95902 0.71191 0.0
O318 O 0.5355 0.0248 0.69178 0.0
O319 O 0.4312 0.9986 0.70125 0.0
O320 O 0.56494 0.01558 0.6631 0.0
O321 O 0.48936 0.04809 0.71957 0.0
O322 O 0.44232 0.98194 0.77779 0.0
O323 O 0.50328 0.03193 0.79047 0.0
O324 O 0.47371 0.97701 0.54052 0.0
O325 O 0.44497 0.98791 0.5602 0.0
C326 C 0.45259 0.97551 0.52747 0.0
C327 C 0.42634 0.98617 0.74975 0.0
O328 O 0.50544 0.96701 0.6575 0.0
O329 O 0.54404 0.01389 0.42817 0.0
O330 O 0.49392 0.96784 0.75423 0.0
O331 O 0.50924 0.9568 0.47944 0.0
O332 O 0.57519 0.01799 0.49358 0.0
O333 O 0.53656 0.96013 0.55392 0.0
O334 O 0.49993 0.0337 0.58309 0.0
O335 O 0.50366 0.02892 0.48275 0.0
C336 C 0.5025 0.05052 0.76883 0.0
C337 C 0.55645 0.02534 0.70154 0.0
C338 C 0.52383 0.55424 0.66222 0.0
C339 C 0.46168 0.48649 0.79947 0.0
C340 C 0.49509 0.44242 0.73756 0.0
Mg341 Mg 0.54763 0.54988 0.53919 0.0
Mg342 Mg 0.52208 0.49981 0.44268 0.0
O343 O 0.53206 0.51222 0.52442 0.0
Mg344 Mg 0.50916 0.50058 0.59348 0.0
O345 O 0.48884 0.49189 0.6669 0.0
Mg346 Mg 0.51637 0.50548 0.7341 0.0
Mg347 Mg 0.46153 0.45946 0.67531 0.0
C348 C 0.49469 0.44857 0.51217 0.0
O349 O 0.47264 0.48886 0.53515 0.0
O350 O 0.57623 0.55336 0.46913 0.0
O351 O 0.4438 0.45582 0.58418 0.0
O352 O 0.52259 0.55291 0.4612 0.0
O353 O 0.55897 0.51734 0.4083 0.0
O354 O 0.5022 0.51663 0.4035 0.0
O355 O 0.54353 0.51084 0.65877 0.0
O356 O 0.57089 0.5462 0.61696 0.0
C357 C 0.5654 0.53038 0.65835 0.0
C358 C 0.57749 0.53928 0.42581 0.0
O359 O 0.49934 0.45947 0.56663 0.0
O360 O 0.48568 0.49995 0.80038 0.0
O361 O 0.50073 0.4607 0.4633 0.0
O362 O 0.5101 0.46594 0.75181 0.0
O363 O 0.44851 0.46994 0.75545 0.0
O364 O 0.47512 0.43481 0.70315 0.0
O365 O 0.51858 0.5415 0.6106 0.0
O366 O 0.5229 0.54421 0.71301 0.0
C367 C 0.50698 0.53914 0.41648 0.0
C368 C 0.45038 0.47001 0.53874 0.0
H369 H 0.15879 0.5187 0.32086 0.0
H370 H 0.11903 0.43863 0.26044 0.0
H371 H 0.08197 0.43343 0.30796 0.0
H372 H 0.13533 0.50818 0.46924 0.0
H373 H 0.1332 0.53646 0.4766 0.0
H374 H 0.15597 0.53548 0.42958 0.0
H375 H 0.138 0.54805 0.3372 0.0
H376 H 0.11499 0.54878 0.38392 0.0
H377 H 0.10518 0.52917 0.31311 0.0
H378 H 0.04976 0.43523 0.36445 0.0
H379 H 0.02566 0.44253 0.44064 0.0
H380 H 0.08596 0.52022 0.47674 0.0
C381 C 0.14236 0.50004 0.31727 0.0
C382 C 0.14204 0.47932 0.28432 0.0
C383 C 0.11989 0.45526 0.28206 0.0
C384 C 0.09856 0.45196 0.30959 0.0
C385 C 0.09951 0.47268 0.34078 0.0
C386 C 0.12089 0.49617 0.34603 0.0
C387 C 0.11745 0.51443 0.38846 0.0
C388 C 0.13662 0.52421 0.44429 0.0
C389 C 0.119 0.53641 0.35357 0.0
C390 C 0.091 0.49721 0.40705 0.0
C391 C 0.08099 0.47342 0.37749 0.0
C392 C 0.05734 0.45376 0.38792 0.0
C393 C 0.04382 0.45812 0.43147 0.0
C394 C 0.05397 0.48188 0.46498 0.0
C395 C 0.07762 0.50197 0.45132 0.0
H396 H 0.64232 0.14466 0.26124 0.0
H397 H 0.70282 0.12797 0.2604 0.0
H398 H 0.67614 0.0877 0.30581 0.0
H399 H 0.61962 0.1199 0.40167 0.0
H400 H 0.58701 0.10664 0.3773 0.0
H401 H 0.61044 0.13364 0.34182 0.0
H402 H 0.59378 0.10933 0.235 0.0
H403 H 0.57032 0.08217 0.27029 0.0
H404 H 0.59162 0.07903 0.22173 0.0
H405 H 0.64461 0.05131 0.35992 0.0
H406 H 0.60968 0.02074 0.41732 0.0
H407 H 0.56828 0.05884 0.37571 0.0
C408 C 0.64987 0.13238 0.26953 0.0
C409 C 0.67487 0.13977 0.25772 0.0
C410 C 0.68399 0.12316 0.27028 0.0
C411 C 0.66887 0.10004 0.29543 0.0
C412 C 0.64446 0.09349 0.30694 0.0
C413 C 0.63491 0.10904 0.294 0.0
C414 C 0.60828 0.09785 0.31279 0.0
C415 C 0.60623 0.11556 0.36128 0.0
C416 C 0.58992 0.09173 0.25659 0.0
C417 C 0.60464 0.07392 0.3398 0.0
C418 C 0.62575 0.07176 0.33577 0.0
C419 C 0.62777 0.05248 0.36223 0.0
C420 C 0.60788 0.03522 0.39469 0.0
C421 C 0.58617 0.03717 0.39969 0.0
C422 C 0.58435 0.05646 0.3708 0.0
H423 H 0.50484 0.65477 0.27171 0.0
H424 H 0.47675 0.60804 0.10009 0.0
H425 H 0.47091 0.57126 0.15454 0.0
H426 H 0.54165 0.6294 0.3222 0.0
H427 H 0.5364 0.63142 0.40221 0.0
H428 H 0.53485 0.65309 0.3516 0.0
H429 H 0.49006 0.63937 0.38303 0.0
H430 H 0.49146 0.61747 0.4334 0.0
H431 H 0.46626 0.6064 0.37463 0.0
H432 H 0.47104 0.54023 0.22582 0.0
H433 H 0.48085 0.51854 0.30525 0.0
H434 H 0.51138 0.58613 0.42903 0.0
C435 C 0.49748 0.63688 0.24519 0.0
C436 C 0.49115 0.6345 0.18129 0.0
C437 C 0.48127 0.61046 0.14914 0.0
C438 C 0.47793 0.58938 0.1797 0.0
C439 C 0.48462 0.59256 0.24245 0.0
C440 C 0.49437 0.61576 0.27473 0.0
C441 C 0.50229 0.61473 0.34058 0.0
C442 C 0.53047 0.63325 0.35495 0.0
C443 C 0.48657 0.61979 0.38556 0.0
C444 C 0.49621 0.58749 0.33979 0.0
C445 C 0.48549 0.57488 0.28316 0.0
C446 C 0.47928 0.54987 0.27044 0.0
C447 C 0.48492 0.53769 0.31605 0.0
C448 C 0.49696 0.55061 0.37356 0.0
C449 C 0.50203 0.57565 0.38583 0.0
H450 H 0.90614 0.54782 0.17354 0.0
H451 H 0.90674 0.61289 0.26316 0.0
H452 H 0.94212 0.62012 0.33259 0.0
H453 H 0.91446 0.52442 0.30964 0.0
H454 H 0.93374 0.51269 0.27968 0.0
H455 H 0.91149 0.51509 0.22904 0.0
H456 H 0.94695 0.54296 0.16029 0.0
H457 H 0.96937 0.54067 0.21091 0.0
H458 H 0.97416 0.57126 0.19379 0.0
H459 H 0.97384 0.61803 0.39936 0.0
H460 H -0.00126 0.60543 0.46339 0.0
H461 H 0.97634 0.54005 0.33638 0.0
C462 C 0.91377 0.56374 0.20734 0.0
C463 C 0.90369 0.57998 0.21179 0.0
C464 C 0.91445 0.60058 0.25697 0.0
C465 C 0.93455 0.60481 0.2971 0.0
C466 C 0.94367 0.58821 0.29204 0.0
C467 C 0.93361 0.568 0.24861 0.0
C468 C 0.9451 0.55143 0.25756 0.0
C469 C 0.925 0.52431 0.26972 0.0
C470 C 0.95977 0.5516 0.20235 0.0
C471 C 0.96253 0.56506 0.31416 0.0
C472 C 0.96171 0.5865 0.33236 0.0
C473 C 0.97489 0.60146 0.3853 0.0
C474 C 0.98889 0.59404 0.42151 0.0
C475 C 0.98946 0.57171 0.40497 0.0
C476 C 0.97653 0.55737 0.34979 0.0
H477 H 0.33049 0.91191 0.29961 0.0
H478 H 0.3555 0.86213 0.22535 0.0
H479 H 0.39544 0.88651 0.28833 0.0
H480 H 0.39214 0.97038 0.31416 0.0
H481 H 0.38566 0.98115 0.38533 0.0
H482 H 0.36045 0.96176 0.32861 0.0
H483 H 0.33747 0.92962 0.40967 0.0
H484 H 0.36259 0.94884 0.46647 0.0
H485 H 0.35344 0.91613 0.45024 0.0
H486 H 0.43095 0.91384 0.36674 0.0
H487 H 0.45906 0.94198 0.45411 0.0
H488 H 0.41008 0.973 0.47787 0.0
C489 C 0.34446 0.90628 0.29611 0.0
C490 C 0.33992 0.88519 0.25735 0.0
C491 C 0.35873 0.87849 0.25391 0.0
C492 C 0.38144 0.89216 0.28968 0.0
C493 C 0.38508 0.91253 0.32836 0.0
C494 C 0.36715 0.91965 0.3315 0.0
C495 C 0.37489 0.94115 0.37963 0.0
C496 C 0.3785 0.96502 0.35015 0.0
C497 C 0.35598 0.93346 0.42944 0.0
C498 C 0.3996 0.94448 0.40445 0.0
C499 C 0.40536 0.92806 0.37382 0.0
C500 C 0.42678 0.927 0.39058 0.0
C501 C 0.44262 0.94303 0.44029 0.0
C502 C 0.43679 0.9597 0.47285 0.0
C503 C 0.41512 0.96052 0.45398 0.0
H504 H 0.43617 0.33044 0.28438 0.0
H505 H 0.45793 0.29357 0.41782 0.0
H506 H 0.46381 0.32597 0.49878 0.0
H507 H 0.47965 0.38855 0.3251 0.0
H508 H 0.46148 0.40387 0.31437 0.0
H509 H 0.45216 0.37442 0.27242 0.0
H510 H 0.40833 0.35456 0.31547 0.0
H511 H 0.41746 0.38421 0.35748 0.0
H512 H 0.40575 0.35565 0.39724 0.0
H513 H 0.4771 0.36759 0.55718 0.0
H514 H 0.49517 0.41334 0.58658 0.0
H515 H 0.46287 0.42156 0.41557 0.0
C516 C 0.44098 0.32865 0.33138 0.0
C517 C 0.44632 0.30964 0.34567 0.0
C518 C 0.45334 0.30793 0.40683 0.0
C519 C 0.45667 0.3262 0.45293 0.0
C520 C 0.45236 0.34558 0.43697 0.0
C521 C 0.44406 0.34652 0.37776 0.0
C522 C 0.44415 0.37091 0.36977 0.0
C523 C 0.46034 0.38526 0.3174 0.0
C524 C 0.41732 0.36603 0.3594 0.0
C525 C 0.45581 0.38444 0.43181 0.0
C526 C 0.45985 0.36945 0.47084 0.0
C527 C 0.47339 0.37928 0.5277 0.0
C528 C 0.48365 0.40523 0.54404 0.0
C529 C 0.48059 0.42084 0.50288 0.0
C530 C 0.46559 0.40999 0.44768 0.0
H531 H 0.4816 0.84799 0.91664 0.0
H532 H 0.55173 0.85664 0.86066 0.0
H533 H 0.55543 0.88892 0.79019 0.0
H534 H 0.45836 0.85488 0.7696 0.0
H535 H 0.44471 0.87241 0.8016 0.0
H536 H 0.44754 0.84969 0.84585 0.0
H537 H 0.47238 0.88421 0.93422 0.0
H538 H 0.46928 0.90689 0.89061 0.0
H539 H 0.49989 0.91318 0.91795 0.0
H540 H 0.5506 0.92037 0.72431 0.0
H541 H 0.5403 0.95117 0.68034 0.0
H542 H 0.47393 0.92126 0.7827 0.0
C543 C 0.4977 0.85662 0.88937 0.0
C544 C 0.51632 0.84981 0.89371 0.0
C545 C 0.53733 0.86177 0.85812 0.0
C546 C 0.53945 0.87991 0.81764 0.0
C547 C 0.52046 0.8859 0.81372 0.0
C548 C 0.50017 0.87477 0.84936 0.0
C549 C 0.48282 0.88512 0.83929 0.0
C550 C 0.45682 0.86428 0.81248 0.0
C551 C 0.481 0.89813 0.89905 0.0
C552 C 0.49654 0.904 0.79275 0.0
C553 C 0.51803 0.90405 0.77758 0.0
C554 C 0.53379 0.92043 0.73589 0.0
C555 C 0.52774 0.93769 0.71074 0.0
C556 C 0.50637 0.93849 0.72829 0.0
C557 C 0.49042 0.92104 0.76864 0.0
H558 H 0.65881 0.51083 0.88103 0.0
H559 H 0.70449 0.59285 0.89531 0.0
H560 H 0.67079 0.59568 0.84047 0.0
H561 H 0.63523 0.5063 0.7278 0.0
H562 H 0.60441 0.48015 0.73753 0.0
H563 H 0.63085 0.48426 0.78486 0.0
H564 H 0.60842 0.48449 0.88224 0.0
H565 H 0.58199 0.48056 0.83499 0.0
H566 H 0.59762 0.50676 0.89195 0.0
H567 H 0.63455 0.59055 0.77943 0.0
H568 H 0.59845 0.57748 0.70588 0.0
H569 H 0.57551 0.49864 0.72467 0.0
C570 C 0.66169 0.52938 0.87283 0.0
C571 C 0.68421 0.55163 0.89405 0.0
C572 C 0.6872 0.57551 0.88176 0.0
C573 C 0.66816 0.57736 0.8503 0.0
C574 C 0.64623 0.55519 0.83067 0.0
C575 C 0.64288 0.53161 0.84068 0.0
C576 C 0.61817 0.51086 0.80979 0.0
C577 C 0.62243 0.49443 0.76216 0.0
C578 C 0.60051 0.49472 0.85761 0.0
C579 C 0.60867 0.5266 0.77931 0.0
C580 C 0.62507 0.55211 0.79323 0.0
C581 C 0.62145 0.57065 0.76839 0.0
C582 C 0.60095 0.56303 0.7265 0.0
C583 C 0.58434 0.53709 0.70954 0.0
C584 C 0.5878 0.51857 0.73758 0.0
H585 H 0.12021 0.68648 0.86989 0.0
H586 H 0.1584 0.66496 0.00404 0.0
H587 H 0.14256 0.6239 0.94521 0.0
H588 H 0.06462 0.62469 0.8473 0.0
H589 H 0.05979 0.62695 0.76647 0.0
H590 H 0.07524 0.65516 0.81737 0.0
H591 H 0.11311 0.67344 0.74958 0.0
H592 H 0.09784 0.64499 0.69924 0.0
H593 H 0.12867 0.65574 0.73453 0.0
H594 H 0.12357 0.58626 0.87389 0.0
H595 H 0.09563 0.54956 0.80316 0.0
H596 H 0.06734 0.59344 0.71533 0.0
C597 C 0.1249 0.67288 0.8868 0.0
C598 C 0.14027 0.67847 0.94138 0.0
C599 C 0.14635 0.66062 0.96258 0.0
C600 C 0.13773 0.6375 0.92914 0.0
C601 C 0.12298 0.63261 0.87487 0.0
C602 C 0.11608 0.64944 0.85432 0.0
C603 C 0.09846 0.63843 0.79677 0.0
C604 C 0.07302 0.63617 0.80765 0.0
C605 C 0.11024 0.65409 0.74178 0.0
C606 C 0.0963 0.61266 0.78896 0.0
C607 C 0.11116 0.61013 0.83388 0.0
C608 C 0.11188 0.58795 0.83841 0.0
C609 C 0.09603 0.56728 0.79794 0.0
C610 C 0.07951 0.56883 0.75392 0.0
C611 C 0.08022 0.59203 0.74779 0.0
H612 H 0.5154 0.13901 0.05261 0.0
H613 H 0.54436 0.19996 0.93112 0.0
H614 H 0.55167 0.17368 0.85552 0.0
H615 H 0.55529 0.1099 0.00252 0.0
H616 H 0.5293 0.07835 0.00709 0.0
H617 H 0.53314 0.10372 0.05971 0.0
H618 H 0.48853 0.09421 0.02756 0.0
H619 H 0.48405 0.06878 0.97503 0.0
H620 H 0.47982 0.09385 0.94763 0.0
H621 H 0.54544 0.13844 0.78435 0.0
H622 H 0.52853 0.09722 0.72509 0.0
H623 H 0.50381 0.05865 0.89187 0.0
C624 C 0.52464 0.14717 0.0116 0.0
C625 C 0.52985 0.1715 0.99774 0.0
C626 C 0.54077 0.18144 0.94257 0.0
C627 C 0.54497 0.16666 0.89954 0.0
C628 C 0.53823 0.14207 0.91267 0.0
C629 C 0.5287 0.13249 0.96792 0.0
C630 C 0.51911 0.10436 0.96668 0.0
C631 C 0.53517 0.09875 0.01164 0.0
C632 C 0.49124 0.08945 0.97996 0.0
C633 C 0.52293 0.09932 0.90084 0.0
C634 C 0.53454 0.12139 0.87083 0.0
C635 C 0.53712 0.12113 0.80773 0.0
C636 C 0.52733 0.09771 0.77438 0.0
C637 C 0.51534 0.07503 0.8044 0.0
C638 C 0.51359 0.07588 0.86843 0.0
H639 H 0.34213 0.46473 0.97061 0.0
H640 H 0.38687 0.5421 0.04949 0.0
H641 H 0.42412 0.54495 0.00542 0.0
H642 H 0.3896 0.44674 0.98461 0.0
H643 H 0.3801 0.42885 0.91129 0.0
H644 H 0.35743 0.43183 0.95462 0.0
H645 H 0.34572 0.44987 0.8619 0.0
H646 H 0.36818 0.44677 0.8182 0.0
H647 H 0.36996 0.477 0.82818 0.0
H648 H 0.45637 0.54002 0.949 0.0
H649 H 0.47996 0.52902 0.87768 0.0
H650 H 0.41333 0.4562 0.82955 0.0
C651 C 0.35964 0.48239 0.97858 0.0
C652 C 0.36135 0.50309 0.01427 0.0
C653 C 0.38495 0.52567 0.02379 0.0
C654 C 0.40629 0.52756 0.9986 0.0
C655 C 0.40379 0.50683 0.96346 0.0
C656 C 0.381 0.48477 0.95295 0.0
C657 C 0.38289 0.4659 0.90983 0.0
C658 C 0.37717 0.44191 0.94203 0.0
C659 C 0.36567 0.45952 0.85105 0.0
C660 C 0.41023 0.48096 0.89684 0.0
C661 C 0.42209 0.50434 0.92908 0.0
C662 C 0.44729 0.52172 0.92367 0.0
C663 C 0.46057 0.51525 0.8832 0.0
C664 C 0.44851 0.49175 0.84795 0.0
C665 C 0.4231 0.47431 0.85581 0.0
H666 H 0.85454 0.32739 0.87096 0.0
H667 H 0.84655 0.37787 1.00081 0.0
H668 H 0.87889 0.41475 0.95143 0.0
H669 H 0.92004 0.36397 0.86158 0.0
H670 H 0.91951 0.35724 0.78032 0.0
H671 H 0.89509 0.33485 0.82427 0.0
H672 H 0.86174 0.33604 0.75105 0.0
H673 H 0.88611 0.35852 0.70692 0.0
H674 H 0.86385 0.36592 0.73834 0.0
H675 H 0.91528 0.44561 0.89685 0.0
H676 H 0.95117 0.46899 0.83479 0.0
H677 H 0.9327 0.39924 0.73088 0.0
C678 C 0.85955 0.34625 0.88844 0.0
C679 C 0.84823 0.34997 0.93963 0.0
C680 C 0.85504 0.37479 0.96145 0.0
C681 C 0.87334 0.39578 0.93373 0.0
C682 C 0.88425 0.39156 0.88345 0.0
C683 C 0.8774 0.36745 0.86032 0.0
C684 C 0.89225 0.3683 0.80597 0.0
C685 C 0.90763 0.35533 0.81883 0.0
C686 C 0.87495 0.35649 0.74708 0.0
C687 C 0.90902 0.39664 0.80336 0.0
C688 C 0.90413 0.40963 0.84876 0.0
C689 C 0.91877 0.43574 0.85984 0.0
C690 C 0.93904 0.44891 0.82391 0.0
C691 C 0.94414 0.43619 0.77602 0.0
C692 C 0.92869 0.40967 0.76541 0.0
H693 H 0.90125 0.57416 0.85285 0.0
H694 H 0.8589 0.49664 0.90422 0.0
H695 H 0.88952 0.48753 0.85872 0.0
H696 H 0.91976 0.56134 0.71049 0.0
H697 H 0.95073 0.58874 0.71881 0.0
H698 H 0.92545 0.58928 0.75552 0.0
H699 H 0.95105 0.60118 0.86047 0.0
H700 H 0.97638 0.60054 0.82408 0.0
H701 H 0.96272 0.58131 0.88738 0.0
H702 H 0.923 0.48606 0.80263 0.0
H703 H 0.95826 0.49251 0.74236 0.0
H704 H 0.98114 0.5718 0.73478 0.0
C705 C 0.89849 0.55532 0.8553 0.0
C706 C 0.87737 0.53608 0.88181 0.0
C707 C 0.87447 0.51161 0.88299 0.0
C708 C 0.89195 0.50628 0.85784 0.0
C709 C 0.91247 0.52568 0.83231 0.0
C710 C 0.91594 0.54974 0.83112 0.0
C711 C 0.9396 0.56709 0.80047 0.0
C712 C 0.93351 0.5772 0.74291 0.0
C713 C 0.95856 0.58881 0.84582 0.0
C714 C 0.94866 0.54888 0.78386 0.0
C715 C 0.93269 0.52512 0.8027 0.0
C716 C 0.93611 0.50472 0.78917 0.0
C717 C 0.95635 0.50863 0.75529 0.0
C718 C 0.97305 0.53278 0.73532 0.0
C719 C 0.96916 0.55321 0.75049 0.0
H720 H 0.32683 0.91008 0.98753 0.0
H721 H 0.26942 0.88577 0.83889 0.0
H722 H 0.30071 0.91635 0.773 0.0
H723 H 0.36476 0.97766 0.95308 0.0
H724 H 0.39374 0.97839 0.97239 0.0
H725 H 0.36606 0.95797 0.01052 0.0
H726 H 0.3707 0.91945 0.97762 0.0
H727 H 0.39827 0.93967 0.93939 0.0
H728 H 0.37234 0.91268 0.89746 0.0
H729 H 0.33925 0.94693 0.72084 0.0
H730 H 0.38181 0.97187 0.68461 0.0
H731 H 0.4138 0.97406 0.86659 0.0
C732 C 0.32074 0.91184 0.94175 0.0
C733 C 0.29573 0.89603 0.91842 0.0
C734 C 0.28852 0.89802 0.85757 0.0
C735 C 0.30611 0.91537 0.82006 0.0
C736 C 0.33082 0.93041 0.84408 0.0
C737 C 0.33812 0.92871 0.90355 0.0
C738 C 0.36619 0.94458 0.91619 0.0
C739 C 0.37309 0.96592 0.966 0.0
C740 C 0.37753 0.92811 0.93365 0.0
C741 C 0.37368 0.95493 0.8541 0.0
C742 C 0.35304 0.94707 0.81344 0.0
C743 C 0.35553 0.95341 0.7525 0.0
C744 C 0.37975 0.96763 0.73235 0.0
C745 C 0.40106 0.97486 0.77278 0.0
C746 C 0.39785 0.96883 0.83464 0.0
H747 H 0.45662 0.31926 0.91996 0.0
H748 H 0.53321 0.35846 1.00016 0.0
H749 H 0.54383 0.39282 0.93197 0.0
H750 H 0.47063 0.33747 0.76418 0.0
H751 H 0.44431 0.34212 0.75101 0.0
H752 H 0.4426 0.31947 0.80357 0.0
H753 H 0.43172 0.34182 0.89009 0.0
H754 H 0.43301 0.36425 0.83754 0.0
H755 H 0.45207 0.37522 0.90894 0.0
H756 H 0.5464 0.42339 0.85766 0.0
H757 H 0.53953 0.45062 0.78916 0.0
H758 H 0.46112 0.39301 0.75825 0.0
C759 C 0.47559 0.33511 0.92341 0.0
C760 C 0.49417 0.33582 0.96485 0.0
C761 C 0.51877 0.35703 0.96777 0.0
C762 C 0.52501 0.37673 0.92928 0.0
C763 C 0.50646 0.37519 0.88819 0.0
C764 C 0.48217 0.35514 0.88542 0.0
C765 C 0.46556 0.35899 0.83928 0.0
C766 C 0.45516 0.33827 0.78638 0.0
C767 C 0.44434 0.36015 0.87086 0.0
C768 C 0.48428 0.38448 0.8174 0.0
C769 C 0.50782 0.39325 0.84573 0.0
C770 C 0.52807 0.41671 0.83502 0.0
C771 C 0.524 0.43204 0.79597 0.0
C772 C 0.49984 0.42397 0.76829 0.0
C773 C 0.47989 0.39955 0.77792 0.0
H774 H 0.16113 0.47639 0.87119 0.0
H775 H 0.12361 0.41283 0.9832 0.0
H776 H 0.08487 0.39598 0.91488 0.0
H777 H 0.11304 0.48752 0.84674 0.0
H778 H 0.11886 0.49583 0.76854 0.0
H779 H 0.14405 0.50002 0.82048 0.0
H780 H 0.15297 0.47216 0.74476 0.0
H781 H 0.12736 0.46755 0.69296 0.0
H782 H 0.12826 0.44061 0.72014 0.0
H783 H 0.04867 0.39113 0.84722 0.0
H784 H 0.01879 0.39912 0.78687 0.0
H785 H 0.08075 0.46337 0.71346 0.0
C786 C 0.14485 0.45866 0.88035 0.0
C787 C 0.14508 0.44584 0.93204 0.0
C788 C 0.12361 0.42276 0.94332 0.0
C789 C 0.10166 0.41302 0.90465 0.0
C790 C 0.10184 0.4263 0.85419 0.0
C791 C 0.12304 0.44848 0.84158 0.0
C792 C 0.11788 0.46046 0.78819 0.0
C793 C 0.12378 0.48753 0.80716 0.0
C794 C 0.13249 0.46016 0.73326 0.0
C795 C 0.09012 0.44252 0.7752 0.0
C796 C 0.08116 0.42263 0.81293 0.0
C797 C 0.05551 0.40598 0.81572 0.0
C798 C 0.03864 0.41047 0.7811 0.0
C799 C 0.04771 0.43125 0.74426 0.0
C800 C 0.07359 0.4467 0.73935 0.0
H801 H 0.64013 0.14691 0.92416 0.0
H802 H 0.69041 0.11694 0.94559 0.0
H803 H 0.65803 0.07638 0.89547 0.0
H804 H 0.58154 0.08799 0.93929 0.0
H805 H 0.56448 0.09337 0.87902 0.0
H806 H 0.58949 0.11985 0.92451 0.0
H807 H 0.61216 0.13967 0.82814 0.0
H808 H 0.5866 0.11432 0.78155 0.0
H809 H 0.61814 0.12082 0.77338 0.0
H810 H 0.62255 0.04066 0.83694 0.0
H811 H 0.58844 0.01378 0.75952 0.0
H812 H 0.56171 0.06719 0.76754 0.0
C813 C 0.64443 0.13189 0.9184 0.0
C814 C 0.6678 0.13515 0.94022 0.0
C815 C 0.67245 0.11483 0.9315 0.0
C816 C 0.65416 0.09164 0.90286 0.0
C817 C 0.63138 0.08908 0.88238 0.0
C818 C 0.62657 0.10873 0.88867 0.0
C819 C 0.60163 0.10183 0.85628 0.0
C820 C 0.58322 0.10072 0.90268 0.0
C821 C 0.60484 0.12025 0.80689 0.0
C822 C 0.5938 0.07568 0.82819 0.0
C823 C 0.61093 0.06848 0.84574 0.0
C824 C 0.60889 0.04595 0.82315 0.0
C825 C 0.58949 0.03087 0.7791 0.0
C826 C 0.57261 0.03856 0.75749 0.0
C827 C 0.57416 0.06073 0.78407 0.0
H828 H 0.549 0.66838 0.87176 0.0
H829 H 0.50605 0.68379 0.73622 0.0
H830 H 0.51084 0.65625 0.65905 0.0
H831 H 0.59198 0.66218 0.75891 0.0
H832 H 0.59181 0.63758 0.80179 0.0
H833 H 0.59031 0.66323 0.84101 0.0
H834 H 0.54975 0.63088 0.88886 0.0
H835 H 0.55105 0.60534 0.84993 0.0
H836 H 0.5234 0.60795 0.83903 0.0
H837 H 0.51208 0.61999 0.60511 0.0
H838 H 0.50897 0.57851 0.58232 0.0
H839 H 0.55366 0.58961 0.75084 0.0
C840 C 0.54164 0.6671 0.8252 0.0
C841 C 0.5271 0.67824 0.81035 0.0
C842 C 0.51696 0.67513 0.74916 0.0
C843 C 0.51992 0.65984 0.70466 0.0
C844 C 0.53362 0.64835 0.72166 0.0
C845 C 0.54471 0.65225 0.78038 0.0
C846 C 0.55534 0.63514 0.79033 0.0
C847 C 0.58407 0.65045 0.79846 0.0
C848 C 0.54419 0.61887 0.84518 0.0
C849 C 0.54658 0.61944 0.73 0.0
C850 C 0.53476 0.62773 0.68998 0.0
C851 C 0.52195 0.61377 0.63519 0.0
C852 C 0.52026 0.59026 0.62254 0.0
C853 C 0.53097 0.58102 0.66521 0.0
C854 C 0.54538 0.59641 0.71753 0.0
H855 H 0.45771 0.11354 0.30874 0.0
H856 H 0.50774 0.18153 0.42471 0.0
H857 H 0.51319 0.15562 0.49935 0.0
H858 H 0.43047 0.06973 0.42831 0.0
H859 H 0.43147 0.04445 0.38568 0.0
H860 H 0.42786 0.06769 0.34559 0.0
H861 H 0.46686 0.07794 0.28587 0.0
H862 H 0.47037 0.05457 0.32527 0.0
H863 H 0.49605 0.08667 0.32794 0.0
H864 H 0.51497 0.12248 0.56041 0.0
H865 H 0.51783 0.0857 0.59369 0.0
H866 H 0.47136 0.04087 0.4319 0.0
C867 C 0.46986 0.12321 0.34958 0.0
C868 C 0.48175 0.14979 0.36065 0.0
C869 C 0.49745 0.16122 0.41544 0.0
C870 C 0.50087 0.14664 0.45835 0.0
C871 C 0.4889 0.12061 0.44571 0.0
C872 C 0.47408 0.10905 0.39212 0.0
C873 C 0.4658 0.08121 0.38587 0.0
C874 C 0.4372 0.06481 0.38641 0.0
C875 C 0.47535 0.07473 0.32782 0.0
C876 C 0.47875 0.0791 0.44366 0.0
C877 C 0.4914 0.10184 0.47856 0.0
C878 C 0.50511 0.10455 0.53352 0.0
C879 C 0.50656 0.08362 0.55223 0.0
C880 C 0.49492 0.06069 0.51508 0.0
C881 C 0.48046 0.0583 0.46095 0.0
H882 H 0.36558 0.50801 0.33949 0.0
H883 H 0.30922 0.42825 0.32398 0.0
H884 H 0.33912 0.4183 0.37535 0.0
H885 H 0.41999 0.5008 0.31692 0.0
H886 H 0.43958 0.52628 0.37332 0.0
H887 H 0.41418 0.52658 0.33094 0.0
H888 H 0.39698 0.53103 0.43452 0.0
H889 H 0.42236 0.5303 0.47577 0.0
H890 H 0.39046 0.50786 0.48992 0.0
H891 H 0.37375 0.41691 0.43213 0.0
H892 H 0.41063 0.42454 0.49769 0.0
H893 H 0.44515 0.50505 0.47609 0.0
C894 C 0.35953 0.48848 0.34718 0.0
C895 C 0.33515 0.46886 0.32729 0.0
C896 C 0.32794 0.44352 0.33794 0.0
C897 C 0.34478 0.43767 0.36702 0.0
C898 C 0.36877 0.45736 0.38513 0.0
C899 C 0.37615 0.48227 0.37611 0.0
C900 C 0.40264 0.49991 0.40308 0.0
C901 C 0.42011 0.51421 0.35299 0.0
C902 C 0.40312 0.51835 0.45385 0.0
C903 C 0.40883 0.48098 0.42918 0.0
C904 C 0.38903 0.45654 0.4179 0.0
C905 C 0.3895 0.4359 0.4408 0.0
C906 C 0.41048 0.4404 0.47792 0.0
C907 C 0.43068 0.46531 0.49141 0.0
C908 C 0.43014 0.48577 0.46533 0.0
H909 H 0.85678 0.37444 0.29226 0.0
H910 H 0.87787 0.31765 0.32369 0.0
H911 H 0.91158 0.34746 0.39856 0.0
H912 H 0.92008 0.42529 0.29164 0.0
H913 H 0.9135 0.44832 0.32666 0.0
H914 H 0.88935 0.42157 0.28018 0.0
H915 H 0.86065 0.40963 0.37089 0.0
H916 H 0.8849 0.43616 0.41795 0.0
H917 H 0.87158 0.40472 0.44392 0.0
H918 H 0.943 0.38334 0.47073 0.0
H919 H 0.97387 0.42485 0.52262 0.0
H920 H 0.93548 0.4593 0.43449 0.0
C921 C 0.86853 0.36816 0.31409 0.0
C922 C 0.86408 0.3433 0.3025 0.0
C923 C 0.88008 0.33617 0.33301 0.0
C924 C 0.89947 0.35305 0.37551 0.0
C925 C 0.90304 0.3772 0.38618 0.0
C926 C 0.88839 0.38494 0.35536 0.0
C927 C 0.89746 0.41259 0.3713 0.0
C928 C 0.90559 0.42784 0.31405 0.0
C929 C 0.87745 0.41596 0.4029 0.0
C930 C 0.91961 0.41919 0.41563 0.0
C931 C 0.92217 0.39837 0.42472 0.0
C932 C 0.94122 0.39979 0.46401 0.0
C933 C 0.95851 0.42332 0.49364 0.0
C934 C 0.95675 0.44497 0.48263 0.0
C935 C 0.937 0.44285 0.44365 0.0
H936 H 0.47796 0.83258 0.26659 0.0
H937 H 0.54205 0.82916 0.34449 0.0
H938 H 0.54515 0.85648 0.4328 0.0
H939 H 0.50658 0.89757 0.29754 0.0
H940 H 0.47821 0.89772 0.31254 0.0
H941 H 0.47689 0.87303 0.26237 0.0
H942 H 0.4449 0.83951 0.32983 0.0
H943 H 0.44645 0.86426 0.3807 0.0
H944 H 0.45284 0.84093 0.41072 0.0
H945 H 0.54435 0.88692 0.50821 0.0
H946 H 0.54488 0.9243 0.55526 0.0
H947 H 0.48532 0.91296 0.42246 0.0
C948 C 0.49265 0.83734 0.30198 0.0
C949 C 0.50925 0.82778 0.29833 0.0
C950 C 0.52818 0.83493 0.34651 0.0
C951 C 0.53025 0.85068 0.39722 0.0
C952 C 0.51367 0.85972 0.39896 0.0
C953 C 0.49558 0.85378 0.35204 0.0
C954 C 0.48297 0.86939 0.36013 0.0
C955 C 0.48639 0.88538 0.30489 0.0
C956 C 0.45514 0.8525 0.371 0.0
C957 C 0.49758 0.88571 0.41757 0.0
C958 C 0.51451 0.8791 0.44041 0.0
C959 C 0.53109 0.89223 0.49107 0.0
C960 C 0.53123 0.91348 0.51747 0.0
C961 C 0.51533 0.92174 0.49208 0.0
C962 C 0.49765 0.90708 0.44296 0.0
H963 H 0.66983 0.53649 0.18533 0.0
H964 H 0.73126 0.5869 0.3172 0.0
H965 H 0.70128 0.5895 0.38325 0.0
H966 H 0.63051 0.56363 0.20622 0.0
H967 H 0.60191 0.53348 0.20115 0.0
H968 H 0.62832 0.53719 0.16112 0.0
H969 H 0.6273 0.50001 0.21599 0.0
H970 H 0.60081 0.49607 0.25585 0.0
H971 H 0.62858 0.50093 0.29865 0.0
H972 H 0.66472 0.58641 0.43586 0.0
H973 H 0.62388 0.5746 0.47605 0.0
H974 H 0.58605 0.52317 0.31485 0.0
C975 C 0.67713 0.54795 0.22823 0.0
C976 C 0.70316 0.56174 0.24523 0.0
C977 C 0.71161 0.57669 0.30179 0.0
C978 C 0.69468 0.57818 0.34004 0.0
C979 C 0.66927 0.56436 0.32172 0.0
C980 C 0.66048 0.54927 0.26758 0.0
C981 C 0.63213 0.53506 0.26044 0.0
C982 C 0.62267 0.54281 0.20387 0.0
C983 C 0.62159 0.50632 0.25759 0.0
C984 C 0.62636 0.54438 0.31938 0.0
C985 C 0.64807 0.56159 0.35353 0.0
C986 C 0.64758 0.57292 0.40959 0.0
C987 C 0.62428 0.56616 0.43189 0.0
C988 C 0.60176 0.54792 0.39865 0.0
C989 C 0.60292 0.5371 0.3414 0.0
H990 H 0.14962 0.66725 0.26419 0.0
H991 H 0.18311 0.73116 0.39983 0.0
H992 H 0.16504 0.70216 0.48202 0.0
H993 H 0.09334 0.63314 0.32913 0.0
H994 H 0.08977 0.60243 0.31174 0.0
H995 H 0.10789 0.62793 0.26467 0.0
H996 H 0.14593 0.62156 0.28442 0.0
H997 H 0.12786 0.59606 0.33198 0.0
H998 H 0.1574 0.62247 0.36217 0.0
H999 H 0.13878 0.66678 0.54808 0.0
H1000 H 0.10628 0.62808 0.59111 0.0
H1001 H 0.09213 0.58702 0.41373 0.0
C1002 C 0.15376 0.67512 0.31128 0.0
C1003 C 0.16769 0.70157 0.32524 0.0
C1004 C 0.17215 0.71104 0.3876 0.0
C1005 C 0.16219 0.69467 0.43483 0.0
C1006 C 0.14811 0.66877 0.41937 0.0
C1007 C 0.1441 0.65901 0.35912 0.0
C1008 C 0.1267 0.63062 0.3543 0.0
C1009 C 0.10303 0.62311 0.31253 0.0
C1010 C 0.14029 0.61687 0.3319 0.0
C1011 C 0.12076 0.62611 0.42079 0.0
C1012 C 0.13351 0.64828 0.45783 0.0
C1013 C 0.1291 0.6492 0.51977 0.0
C1014 C 0.11061 0.62709 0.54392 0.0
C1015 C 0.09675 0.60437 0.50616 0.0
C1016 C 0.10269 0.60385 0.44441 0.0
loop_
_geom_bond_atom_site_label_1
_geom_bond_atom_site_label_2
_geom_bond_distance
_geom_bond_site_symmetry_2
_ccdc_geom_bond_type
C0 C1 1.384 . S
C0 C2 1.384 . S
C0 H28 0.931 . S
C1 C0 1.384 . S
C1 C4 1.382 . S
C2 C0 1.384 . S
C2 C3 1.381 . S
C2 H29 0.930 . S
C3 C2 1.381 . S
C3 C5 1.381 . S
C3 C6 1.487 . S
C4 C1 1.382 . S
C4 C5 1.387 . S
C4 H30 0.930 1_554 S
C5 C3 1.381 . S
C5 C4 1.387 . S
C5 H31 0.931 . S
C6 C3 1.487 . S
C6 C13 1.399 . S
C6 N44 1.343 . S
C7 C8 1.384 . S
C7 C9 1.384 . S
C7 H32 0.931 . S
C8 C7 1.384 . S
C8 C11 1.382 . S
C9 C7 1.384 . S
C9 C10 1.381 . S
C9 H33 0.930 . S
C10 C9 1.381 . S
C10 C12 1.381 . S
C10 C13 1.487 . S
C11 C8 1.382 . S
C11 C12 1.387 . S
C11 H34 0.930 . S
C12 C10 1.381 . S
C12 C11 1.387 . S
C12 H35 0.931 . S
C13 C6 1.399 . S
C13 C10 1.487 . S
C13 N45 1.343 . S
C14 C15 1.384 . S
C14 C16 1.384 . S
C14 H36 0.931 . S
C15 C14 1.384 . S
C15 C18 1.382 . S
C16 C14 1.384 . S
C16 C17 1.381 . S
C16 H37 0.930 . S
C17 C16 1.381 . S
C17 C19 1.381 . S
C17 C20 1.487 . S
C18 C15 1.382 . S
C18 C19 1.387 . S
C18 H38 0.930 . S
C19 C17 1.381 . S
C19 C18 1.387 . S
C19 H39 0.931 . S
C20 C17 1.487 . S
C20 C27 1.399 . S
C20 N45 1.343 . S
C21 C22 1.384 . S
C21 C23 1.384 . S
C21 H40 0.931 . S
C22 C21 1.384 . S
C22 C25 1.382 . S
C23 C21 1.384 . S
C23 C24 1.381 . S
C23 H41 0.930 . S
C24 C23 1.381 . S
C24 C26 1.381 . S
C24 C27 1.487 . S
C25 C22 1.382 . S
C25 C26 1.387 . S
C25 H42 0.930 1_554 S
C26 C24 1.381 . S
C26 C25 1.387 . S
C26 H43 0.931 . S
C27 C20 1.399 . S
C27 C24 1.487 . S
C27 N44 1.343 . S
H28 C0 0.931 . S
H29 C2 0.930 . S
H30 C4 0.930 1_556 S
H31 C5 0.931 . S
H32 C7 0.931 . S
H33 C9 0.930 . S
H34 C11 0.930 . S
H35 C12 0.931 . S
H36 C14 0.931 . S
H37 C16 0.930 . S
H38 C18 0.930 . S
H39 C19 0.931 . S
H40 C21 0.931 . S
H41 C23 0.930 . S
H42 C25 0.930 1_556 S
H43 C26 0.931 . S
N44 C6 1.343 . S
N44 C27 1.343 . S
N45 C13 1.343 . S
N45 C20 1.343 . S
C46 C47 1.384 . S
C46 C48 1.384 . S
C46 H74 0.931 . S
C47 C46 1.384 . S
C47 C50 1.382 . S
C48 C46 1.384 . S
C48 C49 1.381 . S
C48 H75 0.930 . S
C49 C48 1.381 . S
C49 C51 1.381 . S
C49 C52 1.487 . S
C50 C47 1.382 . S
C50 C51 1.387 . S
C50 H76 0.930 . S
C51 C49 1.381 . S
C51 C50 1.387 . S
C51 H77 0.931 . S
C52 C49 1.487 . S
C52 C59 1.399 . S
C52 N90 1.343 . S
C53 C54 1.384 . S
C53 C55 1.384 1_556 S
C53 H78 0.931 . S
C54 C53 1.384 . S
C54 C57 1.382 . S
C55 C53 1.384 1_554 S
C55 C56 1.381 . S
C55 H79 0.930 . S
C56 C55 1.381 . S
C56 C58 1.381 1_554 S
C56 C59 1.487 . S
C57 C54 1.382 . S
C57 C58 1.387 . S
C57 H80 0.930 . S
C58 C56 1.381 1_556 S
C58 C57 1.387 . S
C58 H81 0.931 . S
C59 C52 1.399 . S
C59 C56 1.487 . S
C59 N91 1.343 . S
C60 C61 1.384 1_554 S
C60 C62 1.384 . S
C60 H82 0.931 . S
C61 C60 1.384 1_556 S
C61 C64 1.382 . S
C62 C60 1.384 . S
C62 C63 1.381 . S
C62 H83 0.930 . S
C63 C62 1.381 . S
C63 C65 1.381 1_554 S
C63 C66 1.487 . S
C64 C61 1.382 . S
C64 C65 1.387 . S
C64 H84 0.930 . S
C65 C63 1.381 1_556 S
C65 C64 1.387 . S
C65 H85 0.931 . S
C66 C63 1.487 . S
C66 C73 1.399 . S
C66 N91 1.343 . S
C67 C68 1.384 . S
C67 C69 1.384 . S
C67 H86 0.931 . S
C68 C67 1.384 . S
C68 C71 1.382 . S
C69 C67 1.384 . S
C69 C70 1.381 . S
C69 H87 0.930 . S
C70 C69 1.381 . S
C70 C72 1.381 . S
C70 C73 1.487 . S
C71 C68 1.382 . S
C71 C72 1.387 . S
C71 H88 0.930 . S
C72 C70 1.381 . S
C72 C71 1.387 . S
C72 H89 0.931 . S
C73 C66 1.399 . S
C73 C70 1.487 . S
C73 N90 1.343 . S
H74 C46 0.931 . S
H75 C48 0.930 . S
H76 C50 0.930 . S
H77 C51 0.931 . S
H78 C53 0.931 . S
H79 C55 0.930 . S
H80 C57 0.930 . S
H81 C58 0.931 . S
H82 C60 0.931 . S
H83 C62 0.930 . S
H84 C64 0.930 . S
H85 C65 0.931 . S
H86 C67 0.931 . S
H87 C69 0.930 . S
H88 C71 0.930 . S
H89 C72 0.931 . S
N90 C52 1.343 . S
N90 C73 1.343 . S
N91 C59 1.343 . S
N91 C66 1.343 . S
C92 C93 1.384 . S
C92 C94 1.384 . S
C92 H120 0.931 . S
C93 C92 1.384 . S
C93 C96 1.382 . S
C94 C92 1.384 . S
C94 C95 1.381 . S
C94 H121 0.930 1_556 S
C95 C94 1.381 . S
C95 C97 1.381 . S
C95 C98 1.487 1_556 S
C96 C93 1.382 . S
C96 C97 1.387 . S
C96 H122 0.930 . S
C97 C95 1.381 . S
C97 C96 1.387 . S
C97 H123 0.931 . S
C98 C95 1.487 1_554 S
C98 C105 1.399 . S
C98 N136 1.343 1_554 S
C99 C100 1.384 . S
C99 C101 1.384 . S
C99 H124 0.931 . S
C100 C99 1.384 . S
C100 C103 1.382 . S
C101 C99 1.384 . S
C101 C102 1.381 . S
C101 H125 0.930 . S
C102 C101 1.381 . S
C102 C104 1.381 . S
C102 C105 1.487 . S
C103 C100 1.382 . S
C103 C104 1.387 . S
C103 H126 0.930 . S
C104 C102 1.381 . S
C104 C103 1.387 . S
C104 H127 0.931 . S
C105 C98 1.399 . S
C105 C102 1.487 . S
C105 N137 1.343 . S
C106 C107 1.384 . S
C106 C108 1.384 . S
C106 H128 0.931 . S
C107 C106 1.384 . S
C107 C110 1.382 . S
C108 C106 1.384 . S
C108 C109 1.381 . S
C108 H129 0.930 . S
C109 C108 1.381 . S
C109 C111 1.381 . S
C109 C112 1.487 . S
C110 C107 1.382 . S
C110 C111 1.387 . S
C110 H130 0.930 . S
C111 C109 1.381 . S
C111 C110 1.387 . S
C111 H131 0.931 . S
C112 C109 1.487 . S
C112 C119 1.399 . S
C112 N137 1.343 . S
C113 C114 1.384 . S
C113 C115 1.384 . S
C113 H132 0.931 . S
C114 C113 1.384 . S
C114 C117 1.382 . S
C115 C113 1.384 . S
C115 C116 1.381 . S
C115 H133 0.930 1_556 S
C116 C115 1.381 . S
C116 C118 1.381 . S
C116 C119 1.487 1_556 S
C117 C114 1.382 . S
C117 C118 1.387 . S
C117 H134 0.930 . S
C118 C116 1.381 . S
C118 C117 1.387 . S
C118 H135 0.931 . S
C119 C112 1.399 . S
C119 C116 1.487 1_554 S
C119 N136 1.343 1_554 S
H120 C92 0.931 . S
H121 C94 0.930 1_554 S
H122 C96 0.930 . S
H123 C97 0.931 . S
H124 C99 0.931 . S
H125 C101 0.930 . S
H126 C103 0.930 . S
H127 C104 0.931 . S
H128 C106 0.931 . S
H129 C108 0.930 . S
H130 C110 0.930 . S
H131 C111 0.931 . S
H132 C113 0.931 . S
H133 C115 0.930 1_554 S
H134 C117 0.930 . S
H135 C118 0.931 . S
N136 C98 1.343 1_556 S
N136 C119 1.343 1_556 S
N137 C105 1.343 . S
N137 C112 1.343 . S
C138 C139 1.384 . S
C138 C140 1.384 . S
C138 H166 0.931 . S
C139 C138 1.384 . S
C139 C142 1.382 . S
C140 C138 1.384 . S
C140 C141 1.381 . S
C140 H167 0.944 . S
C141 C140 1.381 . S
C141 C143 1.381 . S
C141 C144 1.487 . S
C142 C139 1.382 . S
C142 C143 1.387 . S
C142 H168 0.930 . S
C143 C141 1.381 . S
C143 C142 1.387 . S
C143 H169 0.931 . S
C144 C141 1.487 . S
C144 C151 1.399 1_556 S
C144 N182 1.343 . S
C145 C146 1.384 . S
C145 C147 1.384 . S
C145 H170 0.931 . S
C146 C145 1.384 . S
C146 C149 1.382 . S
C147 C145 1.384 . S
C147 C148 1.381 . S
C147 H171 0.930 . S
C148 C147 1.381 . S
C148 C150 1.381 . S
C148 C151 1.487 . S
C149 C146 1.382 . S
C149 C150 1.387 . S
C149 H172 0.930 . S
C150 C148 1.381 . S
C150 C149 1.387 . S
C150 H173 0.931 . S
C151 C144 1.399 1_554 S
C151 C148 1.487 . S
C151 N183 1.343 . S
C152 C153 1.384 . S
C152 C154 1.384 . S
C152 H174 0.931 . S
C153 C152 1.384 . S
C153 C156 1.382 . S
C154 C152 1.384 . S
C154 C155 1.381 . S
C154 H175 0.930 . S
C155 C154 1.381 . S
C155 C157 1.381 . S
C155 C158 1.487 . S
C156 C153 1.382 . S
C156 C157 1.387 . S
C156 H176 0.930 . S
C157 C155 1.381 . S
C157 C156 1.387 . S
C157 H177 0.931 . S
C158 C155 1.487 . S
C158 C165 1.399 1_554 S
C158 N183 1.343 . S
C159 C160 1.384 . S
C159 C161 1.384 . S
C159 H178 0.931 . S
C160 C159 1.384 . S
C160 C163 1.382 . S
C161 C159 1.384 . S
C161 C162 1.381 . S
C161 H179 0.930 . S
C162 C161 1.381 . S
C162 C164 1.381 . S
C162 C165 1.487 . S
C163 C160 1.382 . S
C163 C164 1.387 . S
C163 H180 0.930 . S
C164 C162 1.381 . S
C164 C163 1.387 . S
C164 H181 0.931 . S
C165 C158 1.399 1_556 S
C165 C162 1.487 . S
C165 N182 1.343 . S
H166 C138 0.931 . S
H167 C140 0.944 . S
H168 C142 0.930 . S
H169 C143 0.931 . S
H170 C145 0.931 . S
H171 C147 0.930 . S
H172 C149 0.930 . S
H173 C150 0.931 . S
H174 C152 0.931 . S
H175 C154 0.930 . S
H176 C156 0.930 . S
H177 C157 0.931 . S
H178 C159 0.931 . S
H179 C161 0.930 . S
H180 C163 0.930 . S
H181 C164 0.931 . S
N182 C144 1.343 . S
N182 C165 1.343 . S
N183 C151 1.343 . S
N183 C158 1.343 . S
C184 C185 1.384 1_554 S
C184 C186 1.384 . S
C184 H212 0.931 . S
C185 C184 1.384 1_556 S
C185 C188 1.382 . S
C186 C184 1.384 . S
C186 C187 1.381 . S
C186 H213 0.930 . S
C187 C186 1.381 . S
C187 C189 1.381 1_554 S
C187 C190 1.487 . S
C188 C185 1.382 . S
C188 C189 1.387 . S
C188 H214 0.930 . S
C189 C187 1.381 1_556 S
C189 C188 1.387 . S
C189 H215 0.931 . S
C190 C187 1.487 . S
C190 C197 1.399 . S
C190 N228 1.343 . S
C191 C192 1.384 . S
C191 C193 1.384 . S
C191 H216 0.931 . S
C192 C191 1.384 . S
C192 C195 1.382 . S
C193 C191 1.384 . S
C193 C194 1.381 . S
C193 H217 0.930 . S
C194 C193 1.381 . S
C194 C196 1.381 . S
C194 C197 1.487 . S
C195 C192 1.382 . S
C195 C196 1.387 . S
C195 H218 0.930 . S
C196 C194 1.381 . S
C196 C195 1.387 . S
C196 H219 0.931 . S
C197 C190 1.399 . S
C197 C194 1.487 . S
C197 N229 1.343 . S
C198 C199 1.384 . S
C198 C200 1.384 . S
C198 H220 0.931 . S
C199 C198 1.384 . S
C199 C202 1.382 . S
C200 C198 1.384 . S
C200 C201 1.381 . S
C200 H221 0.930 . S
C201 C200 1.381 . S
C201 C203 1.381 . S
C201 C204 1.487 . S
C202 C199 1.382 . S
C202 C203 1.387 . S
C202 H222 0.930 . S
C203 C201 1.381 . S
C203 C202 1.387 . S
C203 H223 0.931 . S
C204 C201 1.487 . S
C204 C211 1.399 . S
C204 N229 1.343 . S
C205 C206 1.384 1_554 S
C205 C207 1.384 . S
C205 H224 0.931 . S
C206 C205 1.384 1_556 S
C206 C209 1.382 . S
C207 C205 1.384 . S
C207 C208 1.381 . S
C207 H225 0.930 . S
C208 C207 1.381 . S
C208 C210 1.381 1_554 S
C208 C211 1.487 . S
C209 C206 1.382 . S
C209 C210 1.387 . S
C209 H226 0.930 . S
C210 C208 1.381 1_556 S
C210 C209 1.387 . S
C210 H227 0.931 . S
C211 C204 1.399 . S
C211 C208 1.487 . S
C211 N228 1.343 . S
H212 C184 0.931 . S
H213 C186 0.930 . S
H214 C188 0.930 . S
H215 C189 0.931 . S
H216 C191 0.931 . S
H217 C193 0.930 . S
H218 C195 0.930 . S
H219 C196 0.931 . S
H220 C198 0.931 . S
H221 C200 0.930 . S
H222 C202 0.930 . S
H223 C203 0.931 . S
H224 C205 0.931 . S
H225 C207 0.930 . S
H226 C209 0.930 . S
H227 C210 0.931 . S
N228 C190 1.343 . S
N228 C211 1.343 . S
N229 C197 1.343 . S
N229 C204 1.343 . S
C230 C231 1.384 . S
C230 C232 1.384 . S
C230 H258 0.931 . S
C231 C230 1.384 . S
C231 C234 1.382 . S
C232 C230 1.384 . S
C232 C233 1.381 . S
C232 H259 0.930 . S
C233 C232 1.381 . S
C233 C235 1.381 . S
C233 C236 1.487 . S
C234 C231 1.382 . S
C234 C235 1.387 . S
C234 H260 0.930 1_554 S
C235 C233 1.381 . S
C235 C234 1.387 . S
C235 H261 0.931 . S
C236 C233 1.487 . S
C236 C243 1.399 . S
C236 N274 1.343 . S
C237 C238 1.384 . S
C237 C239 1.384 . S
C237 H262 0.931 . S
C238 C237 1.384 . S
C238 C241 1.382 . S
C239 C237 1.384 . S
C239 C240 1.381 . S
C239 H263 0.930 . S
C240 C239 1.381 . S
C240 C242 1.381 . S
C240 C243 1.487 . S
C241 C238 1.382 . S
C241 C242 1.387 . S
C241 H264 0.930 . S
C242 C240 1.381 . S
C242 C241 1.387 . S
C242 H265 0.931 . S
C243 C236 1.399 . S
C243 C240 1.487 . S
C243 N275 1.343 . S
C244 C245 1.384 . S
C244 C246 1.384 . S
C244 H266 0.931 . S
C245 C244 1.384 . S
C245 C248 1.382 . S
C246 C244 1.384 . S
C246 C247 1.381 . S
C246 H267 0.930 . S
C247 C246 1.381 . S
C247 C249 1.381 . S
C247 C250 1.487 . S
C248 C245 1.382 . S
C248 C249 1.387 . S
C248 H268 0.930 . S
C249 C247 1.381 . S
C249 C248 1.387 . S
C249 H269 0.931 . S
C250 C247 1.487 . S
C250 C257 1.399 . S
C250 N275 1.343 . S
C251 C252 1.384 . S
C251 C253 1.384 . S
C251 H270 0.931 . S
C252 C251 1.384 . S
C252 C255 1.382 . S
C253 C251 1.384 . S
C253 C254 1.381 . S
C253 H271 0.930 . S
C254 C253 1.381 . S
C254 C256 1.381 . S
C254 C257 1.487 . S
C255 C252 1.382 . S
C255 C256 1.387 . S
C255 H272 0.930 1_554 S
C256 C254 1.381 . S
C256 C255 1.387 . S
C256 H273 0.931 . S
C257 C250 1.399 . S
C257 C254 1.487 . S
C257 N274 1.343 . S
H258 C230 0.931 . S
H259 C232 0.930 . S
H260 C234 0.930 1_556 S
H261 C235 0.931 . S
H262 C237 0.931 . S
H263 C239 0.930 . S
H264 C241 0.930 . S
H265 C242 0.931 . S
H266 C244 0.931 . S
H267 C246 0.930 . S
H268 C248 0.930 . S
H269 C249 0.931 . S
H270 C251 0.931 . S
H271 C253 0.930 . S
H272 C255 0.930 1_556 S
H273 C256 0.931 . S
N274 C236 1.343 . S
N274 C257 1.343 . S
N275 C243 1.343 . S
N275 C250 1.343 . S
C276 O303 1.312 . S
C276 O304 1.208 . S
C277 O298 1.331 . S
C277 O301 1.244 . S
C278 O300 1.264 . S
C278 O302 1.273 . S
Mg279 O281 1.936 1_455 S
Mg279 O288 2.081 1_455 S
Mg279 O290 2.023 . S
Mg279 O294 2.031 1_455 S
Mg279 O303 2.291 . S
Mg280 O281 1.963 . S
Mg280 O291 1.942 . S
Mg280 O292 1.955 1_655 S
Mg280 O299 1.986 . S
O281 Mg279 1.936 1_655 S
O281 Mg280 1.963 . S
O281 Mg282 1.915 1_655 S
Mg282 O281 1.915 1_455 S
Mg282 O283 1.915 . S
Mg282 O287 2.013 . S
Mg282 O293 2.114 1_455 S
Mg282 O297 2.013 1_455 S
Mg282 O303 2.114 . S
O283 Mg282 1.915 . S
O283 Mg284 1.936 . S
O283 Mg285 1.963 . S
Mg284 O283 1.936 . S
Mg284 O293 2.291 1_455 S
Mg284 O298 2.081 . S
Mg284 O300 2.023 1_455 S
Mg284 O304 2.031 . S
Mg285 O283 1.963 . S
Mg285 O289 1.986 . S
Mg285 O301 1.942 . S
Mg285 O302 1.955 1_455 S
C286 O297 1.191 . S
C286 O299 1.307 . S
O287 Mg282 2.013 . S
O287 C306 1.191 . S
O288 Mg279 2.081 1_655 S
O288 C296 1.331 . S
O289 Mg285 1.986 . S
O289 C306 1.307 . S
O290 Mg279 2.023 . S
O290 C305 1.264 . S
O291 Mg280 1.942 . S
O291 C296 1.244 . S
O292 Mg280 1.955 1_455 S
O292 C305 1.273 . S
O293 Mg282 2.114 1_655 S
O293 Mg284 2.291 1_655 S
O293 C295 1.312 . S
O294 Mg279 2.031 1_655 S
O294 C295 1.208 . S
C295 O293 1.312 . S
C295 O294 1.208 . S
C296 O288 1.331 . S
C296 O291 1.244 . S
O297 Mg282 2.013 1_655 S
O297 C286 1.191 . S
O298 C277 1.331 . S
O298 Mg284 2.081 . S
O299 Mg280 1.986 . S
O299 C286 1.307 . S
O300 C278 1.264 . S
O300 Mg284 2.023 1_655 S
O301 C277 1.244 . S
O301 Mg285 1.942 . S
O302 C278 1.273 . S
O302 Mg285 1.955 1_655 S
O303 C276 1.312 . S
O303 Mg279 2.291 . S
O303 Mg282 2.114 . S
O304 C276 1.208 . S
O304 Mg284 2.031 . S
C305 O290 1.264 . S
C305 O292 1.273 . S
C306 O287 1.191 . S
C306 O289 1.307 . S
C307 O334 1.312 . S
C307 O335 1.208 . S
C308 O329 1.331 . S
C308 O332 1.244 . S
C309 O331 1.264 . S
C309 O333 1.273 . S
Mg310 O312 1.936 1_545 S
Mg310 O319 2.081 1_545 S
Mg310 O321 2.023 . S
Mg310 O325 2.031 1_545 S
Mg310 O334 2.291 . S
Mg311 O312 1.963 1_545 S
Mg311 O322 1.943 1_545 S
Mg311 O323 1.952 . S
Mg311 O330 1.988 1_545 S
O312 Mg310 1.936 1_565 S
O312 Mg311 1.963 1_565 S
O312 Mg313 1.915 1_565 S
Mg313 O312 1.915 1_545 S
Mg313 O314 1.915 . S
Mg313 O318 2.013 . S
Mg313 O324 2.114 1_545 S
Mg313 O328 2.013 1_545 S
Mg313 O334 2.114 . S
O314 Mg313 1.915 . S
O314 Mg315 1.936 . S
O314 Mg316 1.963 . S
Mg315 O314 1.936 . S
Mg315 O324 2.291 1_545 S
Mg315 O329 2.081 . S
Mg315 O331 2.023 1_545 S
Mg315 O335 2.031 . S
Mg316 O314 1.963 . S
Mg316 O320 1.986 . S
Mg316 O332 1.942 . S
Mg316 O333 1.955 1_545 S
C317 O328 1.191 . S
C317 O330 1.307 . S
O318 Mg313 2.013 . S
O318 C337 1.191 . S
O319 Mg310 2.081 1_565 S
O319 C327 1.331 . S
O320 Mg316 1.986 . S
O320 C337 1.307 . S
O321 Mg310 2.023 . S
O321 C336 1.264 . S
O322 Mg311 1.943 1_565 S
O322 C327 1.244 . S
O323 Mg311 1.952 . S
O323 C336 1.273 . S
O324 Mg313 2.114 1_565 S
O324 Mg315 2.291 1_565 S
O324 C326 1.312 . S
O325 Mg310 2.031 1_565 S
O325 C326 1.208 . S
C326 O324 1.312 . S
C326 O325 1.208 . S
C327 O319 1.331 . S
C327 O322 1.244 . S
O328 Mg313 2.013 1_565 S
O328 C317 1.191 . S
O329 C308 1.331 . S
O329 Mg315 2.081 . S
O330 Mg311 1.988 1_565 S
O330 C317 1.307 . S
O331 C309 1.264 . S
O331 Mg315 2.023 1_565 S
O332 C308 1.244 . S
O332 Mg316 1.942 . S
O333 C309 1.273 . S
O333 Mg316 1.955 1_565 S
O334 C307 1.312 . S
O334 Mg310 2.291 . S
O334 Mg313 2.114 . S
O335 C307 1.208 . S
O335 Mg315 2.031 . S
C336 O321 1.264 . S
C336 O323 1.273 . S
C337 O318 1.191 . S
C337 O320 1.307 . S
C338 O365 1.312 . S
C338 O366 1.208 . S
C339 O360 1.331 . S
C339 O363 1.244 . S
C340 O362 1.264 . S
C340 O364 1.273 . S
Mg341 O343 1.936 . S
Mg341 O350 2.081 . S
Mg341 O352 2.023 . S
Mg341 O356 2.031 . S
Mg341 O365 2.291 . S
Mg342 O343 1.963 . S
Mg342 O353 1.942 . S
Mg342 O354 1.955 . S
Mg342 O361 1.986 . S
O343 Mg341 1.936 . S
O343 Mg342 1.963 . S
O343 Mg344 1.915 . S
Mg344 O343 1.915 . S
Mg344 O345 1.915 . S
Mg344 O349 2.013 . S
Mg344 O355 2.114 . S
Mg344 O359 2.013 . S
Mg344 O365 2.114 . S
O345 Mg344 1.915 . S
O345 Mg346 1.936 . S
O345 Mg347 1.963 . S
Mg346 O345 1.936 . S
Mg346 O355 2.291 . S
Mg346 O360 2.081 . S
Mg346 O362 2.023 . S
Mg346 O366 2.031 . S
Mg347 O345 1.963 . S
Mg347 O351 1.986 . S
Mg347 O363 1.942 . S
Mg347 O364 1.955 . S
C348 O359 1.191 . S
C348 O361 1.307 . S
O349 Mg344 2.013 . S
O349 C368 1.191 . S
O350 Mg341 2.081 . S
O350 C358 1.331 . S
O351 Mg347 1.986 . S
O351 C368 1.307 . S
O352 Mg341 2.023 . S
O352 C367 1.264 . S
O353 Mg342 1.942 . S
O353 C358 1.244 . S
O354 Mg342 1.955 . S
O354 C367 1.273 . S
O355 Mg344 2.114 . S
O355 Mg346 2.291 . S
O355 C357 1.312 . S
O356 Mg341 2.031 . S
O356 C357 1.208 . S
C357 O355 1.312 . S
C357 O356 1.208 . S
C358 O350 1.331 . S
C358 O353 1.244 . S
O359 Mg344 2.013 . S
O359 C348 1.191 . S
O360 C339 1.331 . S
O360 Mg346 2.081 . S
O361 Mg342 1.986 . S
O361 C348 1.307 . S
O362 C340 1.264 . S
O362 Mg346 2.023 . S
O363 C339 1.244 . S
O363 Mg347 1.942 . S
O364 C340 1.273 . S
O364 Mg347 1.955 . S
O365 C338 1.312 . S
O365 Mg341 2.291 . S
O365 Mg344 2.114 . S
O366 C338 1.208 . S
O366 Mg346 2.031 . S
C367 O352 1.264 . S
C367 O354 1.273 . S
C368 O349 1.191 . S
C368 O351 1.307 . S
H369 C381 0.930 . S
H370 C383 0.930 . S
H371 C384 0.930 . S
H372 C388 0.959 . S
H373 C388 0.959 . S
H374 C388 0.961 . S
H375 C389 0.960 . S
H376 C389 0.961 . S
H377 C389 0.959 . S
H378 C392 0.929 . S
H379 C393 0.931 . S
H380 C395 0.930 . S
C381 H369 0.930 . S
C381 C382 1.399 . S
C381 C386 1.399 . S
C382 C381 1.399 . S
C382 C383 1.376 . S
C383 H370 0.930 . S
C383 C382 1.376 . S
C383 C384 1.388 . S
C384 H371 0.930 . S
C384 C383 1.388 . S
C384 C385 1.390 . S
C385 C384 1.390 . S
C385 C386 1.394 . S
C385 C391 1.465 . S
C386 C381 1.399 . S
C386 C385 1.394 . S
C386 C387 1.516 . S
C387 C386 1.516 . S
C387 C388 1.502 . S
C387 C389 1.561 . S
C387 C390 1.526 . S
C388 H372 0.959 . S
C388 H373 0.959 . S
C388 H374 0.961 . S
C388 C387 1.502 . S
C389 H375 0.960 . S
C389 H376 0.961 . S
C389 H377 0.959 . S
C389 C387 1.561 . S
C390 C387 1.526 . S
C390 C391 1.396 . S
C390 C395 1.390 . S
C391 C385 1.465 . S
C391 C390 1.396 . S
C391 C392 1.399 . S
C392 H378 0.929 . S
C392 C391 1.399 . S
C392 C393 1.385 . S
C393 H379 0.931 . S
C393 C392 1.385 . S
C393 C394 1.389 . S
C394 C393 1.389 . S
C394 C395 1.387 . S
C395 H380 0.930 . S
C395 C390 1.390 . S
C395 C394 1.387 . S
H396 C408 0.930 . S
H397 C410 0.930 . S
H398 C411 0.930 . S
H399 C415 0.959 . S
H400 C415 0.959 . S
H401 C415 0.961 . S
H402 C416 0.960 . S
H403 C416 0.961 . S
H404 C416 0.959 . S
H405 C419 0.929 . S
H406 C420 0.931 . S
H407 C422 0.930 . S
C408 H396 0.930 . S
C408 C409 1.399 . S
C408 C413 1.399 . S
C409 C408 1.399 . S
C409 C410 1.376 . S
C410 H397 0.930 . S
C410 C409 1.376 . S
C410 C411 1.388 . S
C411 H398 0.930 . S
C411 C410 1.388 . S
C411 C412 1.390 . S
C412 C411 1.390 . S
C412 C413 1.394 . S
C412 C418 1.465 . S
C413 C408 1.399 . S
C413 C412 1.394 . S
C413 C414 1.516 . S
C414 C413 1.516 . S
C414 C415 1.502 . S
C414 C416 1.561 . S
C414 C417 1.526 . S
C415 H399 0.959 . S
C415 H400 0.959 . S
C415 H401 0.961 . S
C415 C414 1.502 . S
C416 H402 0.960 . S
C416 H403 0.961 . S
C416 H404 0.959 . S
C416 C414 1.561 . S
C417 C414 1.526 . S
C417 C418 1.396 . S
C417 C422 1.390 . S
C418 C412 1.465 . S
C418 C417 1.396 . S
C418 C419 1.399 . S
C419 H405 0.929 . S
C419 C418 1.399 . S
C419 C420 1.385 . S
C420 H406 0.931 . S
C420 C419 1.385 . S
C420 C421 1.389 . S
C421 C420 1.389 . S
C421 C422 1.387 . S
C422 H407 0.930 . S
C422 C417 1.390 . S
C422 C421 1.387 . S
H423 C435 0.930 . S
H424 C437 0.930 . S
H425 C438 0.930 . S
H426 C442 0.959 . S
H427 C442 0.959 . S
H428 C442 0.961 . S
H429 C443 0.960 . S
H430 C443 0.961 . S
H431 C443 0.959 . S
H432 C446 0.929 . S
H433 C447 0.931 . S
H434 C449 0.930 . S
C435 H423 0.930 . S
C435 C436 1.399 . S
C435 C440 1.399 . S
C436 C435 1.399 . S
C436 C437 1.376 . S
C437 H424 0.930 . S
C437 C436 1.376 . S
C437 C438 1.388 . S
C438 H425 0.930 . S
C438 C437 1.388 . S
C438 C439 1.390 . S
C439 C438 1.390 . S
C439 C440 1.394 . S
C439 C445 1.465 . S
C440 C435 1.399 . S
C440 C439 1.394 . S
C440 C441 1.516 . S
C441 C440 1.516 . S
C441 C442 1.502 . S
C441 C443 1.561 . S
C441 C444 1.526 . S
C442 H426 0.959 . S
C442 H427 0.959 . S
C442 H428 0.961 . S
C442 C441 1.502 . S
C443 H429 0.960 . S
C443 H430 0.961 . S
C443 H431 0.959 . S
C443 C441 1.561 . S
C444 C441 1.526 . S
C444 C445 1.396 . S
C444 C449 1.390 . S
C445 C439 1.465 . S
C445 C444 1.396 . S
C445 C446 1.399 . S
C446 H432 0.929 . S
C446 C445 1.399 . S
C446 C447 1.385 . S
C447 H433 0.931 . S
C447 C446 1.385 . S
C447 C448 1.389 . S
C448 C447 1.389 . S
C448 C449 1.387 . S
C449 H434 0.930 . S
C449 C444 1.390 . S
C449 C448 1.387 . S
H450 C462 0.930 . S
H451 C464 0.930 . S
H452 C465 0.930 . S
H453 C469 0.959 . S
H454 C469 0.959 . S
H455 C469 0.961 . S
H456 C470 0.960 . S
H457 C470 0.961 . S
H458 C470 0.959 . S
H459 C473 0.929 . S
H460 C474 0.931 . S
H461 C476 0.930 . S
C462 H450 0.930 . S
C462 C463 1.399 . S
C462 C467 1.399 . S
C463 C462 1.399 . S
C463 C464 1.376 . S
C464 H451 0.930 . S
C464 C463 1.376 . S
C464 C465 1.388 . S
C465 H452 0.930 . S
C465 C464 1.388 . S
C465 C466 1.390 . S
C466 C465 1.390 . S
C466 C467 1.394 . S
C466 C472 1.465 . S
C467 C462 1.399 . S
C467 C466 1.394 . S
C467 C468 1.516 . S
C468 C467 1.516 . S
C468 C469 1.502 . S
C468 C470 1.561 . S
C468 C471 1.526 . S
C469 H453 0.959 . S
C469 H454 0.959 . S
C469 H455 0.961 . S
C469 C468 1.502 . S
C470 H456 0.960 . S
C470 H457 0.961 . S
C470 H458 0.959 . S
C470 C468 1.561 . S
C471 C468 1.526 . S
C471 C472 1.396 . S
C471 C476 1.390 . S
C472 C466 1.465 . S
C472 C471 1.396 . S
C472 C473 1.399 . S
C473 H459 0.929 . S
C473 C472 1.399 . S
C473 C474 1.385 . S
C474 H460 0.931 . S
C474 C473 1.385 . S
C474 C475 1.389 . S
C475 C474 1.389 . S
C475 C476 1.387 . S
C476 H461 0.930 . S
C476 C471 1.390 . S
C476 C475 1.387 . S
H477 C489 0.930 . S
H478 C491 0.930 . S
H479 C492 0.930 . S
H480 C496 0.959 . S
H481 C496 0.959 . S
H482 C496 0.961 . S
H483 C497 0.960 . S
H484 C497 0.961 . S
H485 C497 0.959 . S
H486 C500 0.929 . S
H487 C501 0.931 . S
H488 C503 0.930 . S
C489 H477 0.930 . S
C489 C490 1.399 . S
C489 C494 1.399 . S
C490 C489 1.399 . S
C490 C491 1.376 . S
C491 H478 0.930 . S
C491 C490 1.376 . S
C491 C492 1.388 . S
C492 H479 0.930 . S
C492 C491 1.388 . S
C492 C493 1.390 . S
C493 C492 1.390 . S
C493 C494 1.394 . S
C493 C499 1.465 . S
C494 C489 1.399 . S
C494 C493 1.394 . S
C494 C495 1.516 . S
C495 C494 1.516 . S
C495 C496 1.502 . S
C495 C497 1.561 . S
C495 C498 1.526 . S
C496 H480 0.959 . S
C496 H481 0.959 . S
C496 H482 0.961 . S
C496 C495 1.502 . S
C497 H483 0.960 . S
C497 H484 0.961 . S
C497 H485 0.959 . S
C497 C495 1.561 . S
C498 C495 1.526 . S
C498 C499 1.396 . S
C498 C503 1.390 . S
C499 C493 1.465 . S
C499 C498 1.396 . S
C499 C500 1.399 . S
C500 H486 0.929 . S
C500 C499 1.399 . S
C500 C501 1.385 . S
C501 H487 0.931 . S
C501 C500 1.385 . S
C501 C502 1.389 . S
C502 C501 1.389 . S
C502 C503 1.387 . S
C503 H488 0.930 . S
C503 C498 1.390 . S
C503 C502 1.387 . S
H504 C516 0.930 . S
H505 C518 0.930 . S
H506 C519 0.930 . S
H507 C523 0.959 . S
H508 C523 0.959 . S
H509 C523 0.961 . S
H510 C524 0.960 . S
H511 C524 0.961 . S
H512 C524 0.959 . S
H513 C527 0.929 . S
H514 C528 0.931 . S
H515 C530 0.930 . S
C516 H504 0.930 . S
C516 C517 1.399 . S
C516 C521 1.399 . S
C517 C516 1.399 . S
C517 C518 1.376 . S
C518 H505 0.930 . S
C518 C517 1.376 . S
C518 C519 1.388 . S
C519 H506 0.930 . S
C519 C518 1.388 . S
C519 C520 1.390 . S
C520 C519 1.390 . S
C520 C521 1.394 . S
C520 C526 1.465 . S
C521 C516 1.399 . S
C521 C520 1.394 . S
C521 C522 1.516 . S
C522 C521 1.516 . S
C522 C523 1.502 . S
C522 C524 1.561 . S
C522 C525 1.526 . S
C523 H507 0.959 . S
C523 H508 0.959 . S
C523 H509 0.961 . S
C523 C522 1.502 . S
C524 H510 0.960 . S
C524 H511 0.961 . S
C524 H512 0.959 . S
C524 C522 1.561 . S
C525 C522 1.526 . S
C525 C526 1.396 . S
C525 C530 1.390 . S
C526 C520 1.465 . S
C526 C525 1.396 . S
C526 C527 1.399 . S
C527 H513 0.929 . S
C527 C526 1.399 . S
C527 C528 1.385 . S
C528 H514 0.931 . S
C528 C527 1.385 . S
C528 C529 1.389 . S
C529 C528 1.389 . S
C529 C530 1.387 . S
C530 H515 0.930 . S
C530 C525 1.390 . S
C530 C529 1.387 . S
H531 C543 0.930 . S
H532 C545 0.930 . S
H533 C546 0.930 . S
H534 C550 0.959 . S
H535 C550 0.959 . S
H536 C550 0.961 . S
H537 C551 0.960 . S
H538 C551 0.961 . S
H539 C551 0.959 . S
H540 C554 0.929 . S
H541 C555 0.931 . S
H542 C557 0.930 . S
C543 H531 0.930 . S
C543 C544 1.399 . S
C543 C548 1.399 . S
C544 C543 1.399 . S
C544 C545 1.376 . S
C545 H532 0.930 . S
C545 C544 1.376 . S
C545 C546 1.388 . S
C546 H533 0.930 . S
C546 C545 1.388 . S
C546 C547 1.390 . S
C547 C546 1.390 . S
C547 C548 1.394 . S
C547 C553 1.465 . S
C548 C543 1.399 . S
C548 C547 1.394 . S
C548 C549 1.516 . S
C549 C548 1.516 . S
C549 C550 1.502 . S
C549 C551 1.561 . S
C549 C552 1.526 . S
C550 H534 0.959 . S
C550 H535 0.959 . S
C550 H536 0.961 . S
C550 C549 1.502 . S
C551 H537 0.960 . S
C551 H538 0.961 . S
C551 H539 0.959 . S
C551 C549 1.561 . S
C552 C549 1.526 . S
C552 C553 1.396 . S
C552 C557 1.390 . S
C553 C547 1.465 . S
C553 C552 1.396 . S
C553 C554 1.399 . S
C554 H540 0.929 . S
C554 C553 1.399 . S
C554 C555 1.385 . S
C555 H541 0.931 . S
C555 C554 1.385 . S
C555 C556 1.389 . S
C556 C555 1.389 . S
C556 C557 1.387 . S
C557 H542 0.930 . S
C557 C552 1.390 . S
C557 C556 1.387 . S
H558 C570 0.930 . S
H559 C572 0.930 . S
H560 C573 0.930 . S
H561 C577 0.959 . S
H562 C577 0.959 . S
H563 C577 0.961 . S
H564 C578 0.960 . S
H565 C578 0.961 . S
H566 C578 0.959 . S
H567 C581 0.929 . S
H568 C582 0.931 . S
H569 C584 0.930 . S
C570 H558 0.930 . S
C570 C571 1.399 . S
C570 C575 1.399 . S
C571 C570 1.399 . S
C571 C572 1.376 . S
C572 H559 0.930 . S
C572 C571 1.376 . S
C572 C573 1.388 . S
C573 H560 0.930 . S
C573 C572 1.388 . S
C573 C574 1.390 . S
C574 C573 1.390 . S
C574 C575 1.394 . S
C574 C580 1.465 . S
C575 C570 1.399 . S
C575 C574 1.394 . S
C575 C576 1.516 . S
C576 C575 1.516 . S
C576 C577 1.502 . S
C576 C578 1.561 . S
C576 C579 1.526 . S
C577 H561 0.959 . S
C577 H562 0.959 . S
C577 H563 0.961 . S
C577 C576 1.502 . S
C578 H564 0.960 . S
C578 H565 0.961 . S
C578 H566 0.959 . S
C578 C576 1.561 . S
C579 C576 1.526 . S
C579 C580 1.396 . S
C579 C584 1.390 . S
C580 C574 1.465 . S
C580 C579 1.396 . S
C580 C581 1.399 . S
C581 H567 0.929 . S
C581 C580 1.399 . S
C581 C582 1.385 . S
C582 H568 0.931 . S
C582 C581 1.385 . S
C582 C583 1.389 . S
C583 C582 1.389 . S
C583 C584 1.387 . S
C584 H569 0.930 . S
C584 C579 1.390 . S
C584 C583 1.387 . S
H585 C597 0.930 . S
H586 C599 0.930 . S
H587 C600 0.930 . S
H588 C604 0.959 . S
H589 C604 0.959 . S
H590 C604 0.961 . S
H591 C605 0.960 . S
H592 C605 0.961 . S
H593 C605 0.959 . S
H594 C608 0.929 . S
H595 C609 0.931 . S
H596 C611 0.930 . S
C597 H585 0.930 . S
C597 C598 1.399 . S
C597 C602 1.399 . S
C598 C597 1.399 . S
C598 C599 1.376 . S
C599 H586 0.930 . S
C599 C598 1.376 . S
C599 C600 1.388 . S
C600 H587 0.930 . S
C600 C599 1.388 . S
C600 C601 1.390 . S
C601 C600 1.390 . S
C601 C602 1.394 . S
C601 C607 1.465 . S
C602 C597 1.399 . S
C602 C601 1.394 . S
C602 C603 1.516 . S
C603 C602 1.516 . S
C603 C604 1.502 . S
C603 C605 1.561 . S
C603 C606 1.526 . S
C604 H588 0.959 . S
C604 H589 0.959 . S
C604 H590 0.961 . S
C604 C603 1.502 . S
C605 H591 0.960 . S
C605 H592 0.961 . S
C605 H593 0.959 . S
C605 C603 1.561 . S
C606 C603 1.526 . S
C606 C607 1.396 . S
C606 C611 1.390 . S
C607 C601 1.465 . S
C607 C606 1.396 . S
C607 C608 1.399 . S
C608 H594 0.929 . S
C608 C607 1.399 . S
C608 C609 1.385 . S
C609 H595 0.931 . S
C609 C608 1.385 . S
C609 C610 1.389 . S
C610 C609 1.389 . S
C610 C611 1.387 . S
C611 H596 0.930 . S
C611 C606 1.390 . S
C611 C610 1.387 . S
H612 C624 0.930 1_554 S
H613 C626 0.930 . S
H614 C627 0.930 . S
H615 C631 0.959 . S
H616 C631 0.959 . S
H617 C631 0.961 1_554 S
H618 C632 0.960 . S
H619 C632 0.961 . S
H620 C632 0.959 . S
H621 C635 0.929 . S
H622 C636 0.931 . S
H623 C638 0.930 . S
C624 H612 0.930 1_556 S
C624 C625 1.399 . S
C624 C629 1.399 . S
C625 C624 1.399 . S
C625 C626 1.376 . S
C626 H613 0.930 . S
C626 C625 1.376 . S
C626 C627 1.388 . S
C627 H614 0.930 . S
C627 C626 1.388 . S
C627 C628 1.390 . S
C628 C627 1.390 . S
C628 C629 1.394 . S
C628 C634 1.465 . S
C629 C624 1.399 . S
C629 C628 1.394 . S
C629 C630 1.516 . S
C630 C629 1.516 . S
C630 C631 1.502 . S
C630 C632 1.561 . S
C630 C633 1.526 . S
C631 H615 0.959 . S
C631 H616 0.959 . S
C631 H617 0.961 1_556 S
C631 C630 1.502 . S
C632 H618 0.960 . S
C632 H619 0.961 . S
C632 H620 0.959 . S
C632 C630 1.561 . S
C633 C630 1.526 . S
C633 C634 1.396 . S
C633 C638 1.390 . S
C634 C628 1.465 . S
C634 C633 1.396 . S
C634 C635 1.399 . S
C635 H621 0.929 . S
C635 C634 1.399 . S
C635 C636 1.385 . S
C636 H622 0.931 . S
C636 C635 1.385 . S
C636 C637 1.389 . S
C637 C636 1.389 . S
C637 C638 1.387 . S
C638 H623 0.930 . S
C638 C633 1.390 . S
C638 C637 1.387 . S
H639 C651 0.930 . S
H640 C653 0.943 . S
H641 C654 0.930 . S
H642 C658 0.959 . S
H643 C658 0.959 . S
H644 C658 0.961 . S
H645 C659 0.960 . S
H646 C659 0.961 . S
H647 C659 0.959 . S
H648 C662 0.929 . S
H649 C663 0.931 . S
H650 C665 0.930 . S
C651 H639 0.930 . S
C651 C652 1.399 . S
C651 C656 1.399 . S
C652 C651 1.399 . S
C652 C653 1.375 1_556 S
C653 H640 0.943 . S
C653 C652 1.375 1_554 S
C653 C654 1.378 1_554 S
C654 H641 0.930 . S
C654 C653 1.378 1_556 S
C654 C655 1.390 . S
C655 C654 1.390 . S
C655 C656 1.394 . S
C655 C661 1.465 . S
C656 C651 1.399 . S
C656 C655 1.394 . S
C656 C657 1.516 . S
C657 C656 1.516 . S
C657 C658 1.502 . S
C657 C659 1.561 . S
C657 C660 1.526 . S
C658 H642 0.959 . S
C658 H643 0.959 . S
C658 H644 0.961 . S
C658 C657 1.502 . S
C659 H645 0.960 . S
C659 H646 0.961 . S
C659 H647 0.959 . S
C659 C657 1.561 . S
C660 C657 1.526 . S
C660 C661 1.396 . S
C660 C665 1.390 . S
C661 C655 1.465 . S
C661 C660 1.396 . S
C661 C662 1.399 . S
C662 H648 0.929 . S
C662 C661 1.399 . S
C662 C663 1.385 . S
C663 H649 0.931 . S
C663 C662 1.385 . S
C663 C664 1.389 . S
C664 C663 1.389 . S
C664 C665 1.387 . S
C665 H650 0.930 . S
C665 C660 1.390 . S
C665 C664 1.387 . S
H666 C678 0.930 . S
H667 C680 0.930 . S
H668 C681 0.930 . S
H669 C685 0.959 . S
H670 C685 0.959 . S
H671 C685 0.961 . S
H672 C686 0.960 . S
H673 C686 0.961 . S
H674 C686 0.959 . S
H675 C689 0.929 . S
H676 C690 0.931 . S
H677 C692 0.930 . S
C678 H666 0.930 . S
C678 C679 1.399 . S
C678 C683 1.399 . S
C679 C678 1.399 . S
C679 C680 1.376 . S
C680 H667 0.930 . S
C680 C679 1.376 . S
C680 C681 1.388 . S
C681 H668 0.930 . S
C681 C680 1.388 . S
C681 C682 1.390 . S
C682 C681 1.390 . S
C682 C683 1.394 . S
C682 C688 1.465 . S
C683 C678 1.399 . S
C683 C682 1.394 . S
C683 C684 1.516 . S
C684 C683 1.516 . S
C684 C685 1.502 . S
C684 C686 1.561 . S
C684 C687 1.526 . S
C685 H669 0.959 . S
C685 H670 0.959 . S
C685 H671 0.961 . S
C685 C684 1.502 . S
C686 H672 0.960 . S
C686 H673 0.961 . S
C686 H674 0.959 . S
C686 C684 1.561 . S
C687 C684 1.526 . S
C687 C688 1.396 . S
C687 C692 1.390 . S
C688 C682 1.465 . S
C688 C687 1.396 . S
C688 C689 1.399 . S
C689 H675 0.929 . S
C689 C688 1.399 . S
C689 C690 1.385 . S
C690 H676 0.931 . S
C690 C689 1.385 . S
C690 C691 1.389 . S
C691 C690 1.389 . S
C691 C692 1.387 . S
C692 H677 0.930 . S
C692 C687 1.390 . S
C692 C691 1.387 . S
H693 C705 0.930 . S
H694 C707 0.930 . S
H695 C708 0.930 . S
H696 C712 0.959 . S
H697 C712 0.959 . S
H698 C712 0.961 . S
H699 C713 0.960 . S
H700 C713 0.961 . S
H701 C713 0.959 . S
H702 C716 0.929 . S
H703 C717 0.931 . S
H704 C719 0.930 . S
C705 H693 0.930 . S
C705 C706 1.399 . S
C705 C710 1.399 . S
C706 C705 1.399 . S
C706 C707 1.376 . S
C707 H694 0.930 . S
C707 C706 1.376 . S
C707 C708 1.388 . S
C708 H695 0.930 . S
C708 C707 1.388 . S
C708 C709 1.390 . S
C709 C708 1.390 . S
C709 C710 1.394 . S
C709 C715 1.465 . S
C710 C705 1.399 . S
C710 C709 1.394 . S
C710 C711 1.516 . S
C711 C710 1.516 . S
C711 C712 1.502 . S
C711 C713 1.561 . S
C711 C714 1.526 . S
C712 H696 0.959 . S
C712 H697 0.959 . S
C712 H698 0.961 . S
C712 C711 1.502 . S
C713 H699 0.960 . S
C713 H700 0.961 . S
C713 H701 0.959 . S
C713 C711 1.561 . S
C714 C711 1.526 . S
C714 C715 1.396 . S
C714 C719 1.390 . S
C715 C709 1.465 . S
C715 C714 1.396 . S
C715 C716 1.399 . S
C716 H702 0.929 . S
C716 C715 1.399 . S
C716 C717 1.385 . S
C717 H703 0.931 . S
C717 C716 1.385 . S
C717 C718 1.389 . S
C718 C717 1.389 . S
C718 C719 1.387 . S
C719 H704 0.930 . S
C719 C714 1.390 . S
C719 C718 1.387 . S
H720 C732 0.930 . S
H721 C734 0.930 . S
H722 C735 0.930 . S
H723 C739 0.959 . S
H724 C739 0.959 . S
H725 C739 0.961 . S
H726 C740 0.960 . S
H727 C740 0.961 . S
H728 C740 0.959 . S
H729 C743 0.929 . S
H730 C744 0.931 . S
H731 C746 0.930 . S
C732 H720 0.930 . S
C732 C733 1.399 . S
C732 C737 1.399 . S
C733 C732 1.399 . S
C733 C734 1.376 . S
C734 H721 0.930 . S
C734 C733 1.376 . S
C734 C735 1.388 . S
C735 H722 0.930 . S
C735 C734 1.388 . S
C735 C736 1.390 . S
C736 C735 1.390 . S
C736 C737 1.394 . S
C736 C742 1.465 . S
C737 C732 1.399 . S
C737 C736 1.394 . S
C737 C738 1.516 . S
C738 C737 1.516 . S
C738 C739 1.502 . S
C738 C740 1.561 . S
C738 C741 1.526 . S
C739 H723 0.959 . S
C739 H724 0.959 . S
C739 H725 0.961 . S
C739 C738 1.502 . S
C740 H726 0.960 . S
C740 H727 0.961 . S
C740 H728 0.959 . S
C740 C738 1.561 . S
C741 C738 1.526 . S
C741 C742 1.396 . S
C741 C746 1.390 . S
C742 C736 1.465 . S
C742 C741 1.396 . S
C742 C743 1.399 . S
C743 H729 0.929 . S
C743 C742 1.399 . S
C743 C744 1.385 . S
C744 H730 0.931 . S
C744 C743 1.385 . S
C744 C745 1.389 . S
C745 C744 1.389 . S
C745 C746 1.387 . S
C746 H731 0.930 . S
C746 C741 1.390 . S
C746 C745 1.387 . S
H747 C759 0.930 . S
H748 C761 0.930 . S
H749 C762 0.930 1_554 S
H750 C766 0.959 . S
H751 C766 0.959 . S
H752 C766 0.961 . S
H753 C767 0.960 . S
H754 C767 0.961 . S
H755 C767 0.959 . S
H756 C770 0.929 . S
H757 C771 0.931 . S
H758 C773 0.930 . S
C759 H747 0.930 . S
C759 C760 1.399 . S
C759 C764 1.399 . S
C760 C759 1.399 . S
C760 C761 1.376 1_556 S
C761 H748 0.930 . S
C761 C760 1.376 1_554 S
C761 C762 1.388 1_554 S
C762 H749 0.930 1_556 S
C762 C761 1.388 1_556 S
C762 C763 1.390 . S
C763 C762 1.390 . S
C763 C764 1.394 . S
C763 C769 1.465 . S
C764 C759 1.399 . S
C764 C763 1.394 . S
C764 C765 1.516 . S
C765 C764 1.516 . S
C765 C766 1.502 . S
C765 C767 1.561 . S
C765 C768 1.526 . S
C766 H750 0.959 . S
C766 H751 0.959 . S
C766 H752 0.961 . S
C766 C765 1.502 . S
C767 H753 0.960 . S
C767 H754 0.961 . S
C767 H755 0.959 . S
C767 C765 1.561 . S
C768 C765 1.526 . S
C768 C769 1.396 . S
C768 C773 1.390 . S
C769 C763 1.465 . S
C769 C768 1.396 . S
C769 C770 1.399 . S
C770 H756 0.929 . S
C770 C769 1.399 . S
C770 C771 1.385 . S
C771 H757 0.931 . S
C771 C770 1.385 . S
C771 C772 1.389 . S
C772 C771 1.389 . S
C772 C773 1.387 . S
C773 H758 0.930 . S
C773 C768 1.390 . S
C773 C772 1.387 . S
H774 C786 0.930 1_554 S
H775 C788 0.930 . S
H776 C789 0.930 . S
H777 C793 0.959 . S
H778 C793 0.959 . S
H779 C793 0.961 1_554 S
H780 C794 0.960 . S
H781 C794 0.961 . S
H782 C794 0.959 . S
H783 C797 0.929 . S
H784 C798 0.931 . S
H785 C800 0.930 . S
C786 H774 0.930 1_556 S
C786 C787 1.399 . S
C786 C791 1.399 . S
C787 C786 1.399 . S
C787 C788 1.376 . S
C788 H775 0.930 . S
C788 C787 1.376 . S
C788 C789 1.388 . S
C789 H776 0.930 . S
C789 C788 1.388 . S
C789 C790 1.390 . S
C790 C789 1.390 . S
C790 C791 1.394 . S
C790 C796 1.465 . S
C791 C786 1.399 . S
C791 C790 1.394 . S
C791 C792 1.516 . S
C792 C791 1.516 . S
C792 C793 1.502 . S
C792 C794 1.561 . S
C792 C795 1.526 . S
C793 H777 0.959 . S
C793 H778 0.959 . S
C793 H779 0.961 1_556 S
C793 C792 1.502 . S
C794 H780 0.960 . S
C794 H781 0.961 . S
C794 H782 0.959 . S
C794 C792 1.561 . S
C795 C792 1.526 . S
C795 C796 1.396 . S
C795 C800 1.390 . S
C796 C790 1.465 . S
C796 C795 1.396 . S
C796 C797 1.399 . S
C797 H783 0.929 . S
C797 C796 1.399 . S
C797 C798 1.385 . S
C798 H784 0.931 . S
C798 C797 1.385 . S
C798 C799 1.389 . S
C799 C798 1.389 . S
C799 C800 1.387 . S
C800 H785 0.930 . S
C800 C795 1.390 . S
C800 C799 1.387 . S
H801 C813 0.930 . S
H802 C815 0.930 . S
H803 C816 0.930 . S
H804 C820 0.959 . S
H805 C820 0.959 . S
H806 C820 0.961 . S
H807 C821 0.960 . S
H808 C821 0.961 . S
H809 C821 0.959 . S
H810 C824 0.929 . S
H811 C825 0.931 . S
H812 C827 0.930 . S
C813 H801 0.930 . S
C813 C814 1.399 . S
C813 C818 1.399 . S
C814 C813 1.399 . S
C814 C815 1.376 . S
C815 H802 0.930 . S
C815 C814 1.376 . S
C815 C816 1.388 . S
C816 H803 0.930 . S
C816 C815 1.388 . S
C816 C817 1.390 . S
C817 C816 1.390 . S
C817 C818 1.394 . S
C817 C823 1.465 . S
C818 C813 1.399 . S
C818 C817 1.394 . S
C818 C819 1.516 . S
C819 C818 1.516 . S
C819 C820 1.502 . S
C819 C821 1.561 . S
C819 C822 1.526 . S
C820 H804 0.959 . S
C820 H805 0.959 . S
C820 H806 0.961 . S
C820 C819 1.502 . S
C821 H807 0.960 . S
C821 H808 0.961 . S
C821 H809 0.959 . S
C821 C819 1.561 . S
C822 C819 1.526 . S
C822 C823 1.396 . S
C822 C827 1.390 . S
C823 C817 1.465 . S
C823 C822 1.396 . S
C823 C824 1.399 . S
C824 H810 0.929 . S
C824 C823 1.399 . S
C824 C825 1.385 . S
C825 H811 0.931 . S
C825 C824 1.385 . S
C825 C826 1.389 . S
C826 C825 1.389 . S
C826 C827 1.387 . S
C827 H812 0.930 . S
C827 C822 1.390 . S
C827 C826 1.387 . S
H828 C840 0.930 . S
H829 C842 0.930 . S
H830 C843 0.930 . S
H831 C847 0.959 . S
H832 C847 0.959 . S
H833 C847 0.961 . S
H834 C848 0.960 . S
H835 C848 0.961 . S
H836 C848 0.959 . S
H837 C851 0.929 . S
H838 C852 0.931 . S
H839 C854 0.930 . S
C840 H828 0.930 . S
C840 C841 1.399 . S
C840 C845 1.399 . S
C841 C840 1.399 . S
C841 C842 1.376 . S
C842 H829 0.930 . S
C842 C841 1.376 . S
C842 C843 1.388 . S
C843 H830 0.930 . S
C843 C842 1.388 . S
C843 C844 1.390 . S
C844 C843 1.390 . S
C844 C845 1.394 . S
C844 C850 1.465 . S
C845 C840 1.399 . S
C845 C844 1.394 . S
C845 C846 1.516 . S
C846 C845 1.516 . S
C846 C847 1.502 . S
C846 C848 1.561 . S
C846 C849 1.526 . S
C847 H831 0.959 . S
C847 H832 0.959 . S
C847 H833 0.961 . S
C847 C846 1.502 . S
C848 H834 0.960 . S
C848 H835 0.961 . S
C848 H836 0.959 . S
C848 C846 1.561 . S
C849 C846 1.526 . S
C849 C850 1.396 . S
C849 C854 1.390 . S
C850 C844 1.465 . S
C850 C849 1.396 . S
C850 C851 1.399 . S
C851 H837 0.929 . S
C851 C850 1.399 . S
C851 C852 1.385 . S
C852 H838 0.931 . S
C852 C851 1.385 . S
C852 C853 1.389 . S
C853 C852 1.389 . S
C853 C854 1.387 . S
C854 H839 0.930 . S
C854 C849 1.390 . S
C854 C853 1.387 . S
H855 C867 0.930 . S
H856 C869 0.930 . S
H857 C870 0.930 . S
H858 C874 0.959 . S
H859 C874 0.959 . S
H860 C874 0.961 . S
H861 C875 0.960 . S
H862 C875 0.961 . S
H863 C875 0.959 . S
H864 C878 0.929 . S
H865 C879 0.931 . S
H866 C881 0.930 . S
C867 H855 0.930 . S
C867 C868 1.399 . S
C867 C872 1.399 . S
C868 C867 1.399 . S
C868 C869 1.376 . S
C869 H856 0.930 . S
C869 C868 1.376 . S
C869 C870 1.388 . S
C870 H857 0.930 . S
C870 C869 1.388 . S
C870 C871 1.390 . S
C871 C870 1.390 . S
C871 C872 1.394 . S
C871 C877 1.465 . S
C872 C867 1.399 . S
C872 C871 1.394 . S
C872 C873 1.516 . S
C873 C872 1.516 . S
C873 C874 1.502 . S
C873 C875 1.561 . S
C873 C876 1.526 . S
C874 H858 0.959 . S
C874 H859 0.959 . S
C874 H860 0.961 . S
C874 C873 1.502 . S
C875 H861 0.960 . S
C875 H862 0.961 . S
C875 H863 0.959 . S
C875 C873 1.561 . S
C876 C873 1.526 . S
C876 C877 1.396 . S
C876 C881 1.390 . S
C877 C871 1.465 . S
C877 C876 1.396 . S
C877 C878 1.399 . S
C878 H864 0.929 . S
C878 C877 1.399 . S
C878 C879 1.385 . S
C879 H865 0.931 . S
C879 C878 1.385 . S
C879 C880 1.389 . S
C880 C879 1.389 . S
C880 C881 1.387 . S
C881 H866 0.930 . S
C881 C876 1.390 . S
C881 C880 1.387 . S
H882 C894 0.930 . S
H883 C896 0.930 . S
H884 C897 0.930 . S
H885 C901 0.959 . S
H886 C901 0.959 . S
H887 C901 0.961 . S
H888 C902 0.960 . S
H889 C902 0.961 . S
H890 C902 0.959 . S
H891 C905 0.929 . S
H892 C906 0.931 . S
H893 C908 0.930 . S
C894 H882 0.930 . S
C894 C895 1.399 . S
C894 C899 1.399 . S
C895 C894 1.399 . S
C895 C896 1.376 . S
C896 H883 0.930 . S
C896 C895 1.376 . S
C896 C897 1.388 . S
C897 H884 0.930 . S
C897 C896 1.388 . S
C897 C898 1.390 . S
C898 C897 1.390 . S
C898 C899 1.394 . S
C898 C904 1.465 . S
C899 C894 1.399 . S
C899 C898 1.394 . S
C899 C900 1.516 . S
C900 C899 1.516 . S
C900 C901 1.502 . S
C900 C902 1.561 . S
C900 C903 1.526 . S
C901 H885 0.959 . S
C901 H886 0.959 . S
C901 H887 0.961 . S
C901 C900 1.502 . S
C902 H888 0.960 . S
C902 H889 0.961 . S
C902 H890 0.959 . S
C902 C900 1.561 . S
C903 C900 1.526 . S
C903 C904 1.396 . S
C903 C908 1.390 . S
C904 C898 1.465 . S
C904 C903 1.396 . S
C904 C905 1.399 . S
C905 H891 0.929 . S
C905 C904 1.399 . S
C905 C906 1.385 . S
C906 H892 0.931 . S
C906 C905 1.385 . S
C906 C907 1.389 . S
C907 C906 1.389 . S
C907 C908 1.387 . S
C908 H893 0.930 . S
C908 C903 1.390 . S
C908 C907 1.387 . S
H909 C921 0.930 . S
H910 C923 0.930 . S
H911 C924 0.930 . S
H912 C928 0.959 . S
H913 C928 0.959 . S
H914 C928 0.961 . S
H915 C929 0.960 . S
H916 C929 0.961 . S
H917 C929 0.959 . S
H918 C932 0.929 . S
H919 C933 0.931 . S
H920 C935 0.930 . S
C921 H909 0.930 . S
C921 C922 1.399 . S
C921 C926 1.399 . S
C922 C921 1.399 . S
C922 C923 1.376 . S
C923 H910 0.930 . S
C923 C922 1.376 . S
C923 C924 1.388 . S
C924 H911 0.930 . S
C924 C923 1.388 . S
C924 C925 1.390 . S
C925 C924 1.390 . S
C925 C926 1.394 . S
C925 C931 1.465 . S
C926 C921 1.399 . S
C926 C925 1.394 . S
C926 C927 1.516 . S
C927 C926 1.516 . S
C927 C928 1.502 . S
C927 C929 1.561 . S
C927 C930 1.526 . S
C928 H912 0.959 . S
C928 H913 0.959 . S
C928 H914 0.961 . S
C928 C927 1.502 . S
C929 H915 0.960 . S
C929 H916 0.961 . S
C929 H917 0.959 . S
C929 C927 1.561 . S
C930 C927 1.526 . S
C930 C931 1.396 . S
C930 C935 1.390 . S
C931 C925 1.465 . S
C931 C930 1.396 . S
C931 C932 1.399 . S
C932 H918 0.929 . S
C932 C931 1.399 . S
C932 C933 1.385 . S
C933 H919 0.931 . S
C933 C932 1.385 . S
C933 C934 1.389 . S
C934 C933 1.389 . S
C934 C935 1.387 . S
C935 H920 0.930 . S
C935 C930 1.390 . S
C935 C934 1.387 . S
H936 C948 0.930 . S
H937 C950 0.930 . S
H938 C951 0.930 . S
H939 C955 0.959 . S
H940 C955 0.959 . S
H941 C955 0.961 . S
H942 C956 0.960 . S
H943 C956 0.961 . S
H944 C956 0.959 . S
H945 C959 0.929 . S
H946 C960 0.931 . S
H947 C962 0.930 . S
C948 H936 0.930 . S
C948 C949 1.399 . S
C948 C953 1.399 . S
C949 C948 1.399 . S
C949 C950 1.376 . S
C950 H937 0.930 . S
C950 C949 1.376 . S
C950 C951 1.388 . S
C951 H938 0.930 . S
C951 C950 1.388 . S
C951 C952 1.390 . S
C952 C951 1.390 . S
C952 C953 1.394 . S
C952 C958 1.465 . S
C953 C948 1.399 . S
C953 C952 1.394 . S
C953 C954 1.516 . S
C954 C953 1.516 . S
C954 C955 1.502 . S
C954 C956 1.561 . S
C954 C957 1.526 . S
C955 H939 0.959 . S
C955 H940 0.959 . S
C955 H941 0.961 . S
C955 C954 1.502 . S
C956 H942 0.960 . S
C956 H943 0.961 . S
C956 H944 0.959 . S
C956 C954 1.561 . S
C957 C954 1.526 . S
C957 C958 1.396 . S
C957 C962 1.390 . S
C958 C952 1.465 . S
C958 C957 1.396 . S
C958 C959 1.399 . S
C959 H945 0.929 . S
C959 C958 1.399 . S
C959 C960 1.385 . S
C960 H946 0.931 . S
C960 C959 1.385 . S
C960 C961 1.389 . S
C961 C960 1.389 . S
C961 C962 1.387 . S
C962 H947 0.930 . S
C962 C957 1.390 . S
C962 C961 1.387 . S
H963 C975 0.930 . S
H964 C977 0.930 . S
H965 C978 0.930 . S
H966 C982 0.959 . S
H967 C982 0.959 . S
H968 C982 0.961 . S
H969 C983 0.960 . S
H970 C983 0.961 . S
H971 C983 0.959 . S
H972 C986 0.929 . S
H973 C987 0.931 . S
H974 C989 0.930 . S
C975 H963 0.930 . S
C975 C976 1.399 . S
C975 C980 1.399 . S
C976 C975 1.399 . S
C976 C977 1.376 . S
C977 H964 0.930 . S
C977 C976 1.376 . S
C977 C978 1.388 . S
C978 H965 0.930 . S
C978 C977 1.388 . S
C978 C979 1.390 . S
C979 C978 1.390 . S
C979 C980 1.394 . S
C979 C985 1.465 . S
C980 C975 1.399 . S
C980 C979 1.394 . S
C980 C981 1.516 . S
C981 C980 1.516 . S
C981 C982 1.502 . S
C981 C983 1.561 . S
C981 C984 1.526 . S
C982 H966 0.959 . S
C982 H967 0.959 . S
C982 H968 0.961 . S
C982 C981 1.502 . S
C983 H969 0.960 . S
C983 H970 0.961 . S
C983 H971 0.959 . S
C983 C981 1.561 . S
C984 C981 1.526 . S
C984 C985 1.396 . S
C984 C989 1.390 . S
C985 C979 1.465 . S
C985 C984 1.396 . S
C985 C986 1.399 . S
C986 H972 0.929 . S
C986 C985 1.399 . S
C986 C987 1.385 . S
C987 H973 0.931 . S
C987 C986 1.385 . S
C987 C988 1.389 . S
C988 C987 1.389 . S
C988 C989 1.387 . S
C989 H974 0.930 . S
C989 C984 1.390 . S
C989 C988 1.387 . S
H990 C1002 0.930 . S
H991 C1004 0.930 . S
H992 C1005 0.930 . S
H993 C1009 0.959 . S
H994 C1009 0.959 . S
H995 C1009 0.961 . S
H996 C1010 0.960 . S
H997 C1010 0.961 . S
H998 C1010 0.959 . S
H999 C1013 0.929 . S
H1000 C1014 0.931 . S
H1001 C1016 0.930 . S
C1002 H990 0.930 . S
C1002 C1003 1.399 . S
C1002 C1007 1.399 . S
C1003 C1002 1.399 . S
C1003 C1004 1.376 . S
C1004 H991 0.930 . S
C1004 C1003 1.376 . S
C1004 C1005 1.388 . S
C1005 H992 0.930 . S
C1005 C1004 1.388 . S
C1005 C1006 1.390 . S
C1006 C1005 1.390 . S
C1006 C1007 1.394 . S
C1006 C1012 1.465 . S
C1007 C1002 1.399 . S
C1007 C1006 1.394 . S
C1007 C1008 1.516 . S
C1008 C1007 1.516 . S
C1008 C1009 1.502 . S
C1008 C1010 1.561 . S
C1008 C1011 1.526 . S
C1009 H993 0.959 . S
C1009 H994 0.959 . S
C1009 H995 0.961 . S
C1009 C1008 1.502 . S
C1010 H996 0.960 . S
C1010 H997 0.961 . S
C1010 H998 0.959 . S
C1010 C1008 1.561 . S
C1011 C1008 1.526 . S
C1011 C1012 1.396 . S
C1011 C1016 1.390 . S
C1012 C1006 1.465 . S
C1012 C1011 1.396 . S
C1012 C1013 1.399 . S
C1013 H999 0.929 . S
C1013 C1012 1.399 . S
C1013 C1014 1.385 . S
C1014 H1000 0.931 . S
C1014 C1013 1.385 . S
C1014 C1015 1.389 . S
C1015 C1014 1.389 . S
C1015 C1016 1.387 . S
C1016 H1001 0.930 . S
C1016 C1011 1.390 . S
C1016 C1015 1.387 . S
C382 C15 1.775 . S
C394 C276 1.635 . S
C409 C47 1.585 . S
C421 C308 1.511 . S
C448 C367 1.865 . S
C436 C100 1.951 . S
C475 C296 1.451 . S
C463 C146 1.475 . S
C490 C192 1.655 . S
C502 C326 1.618 . S
C529 C348 1.247 . S
C517 C245 1.268 . S
C556 C317 1.660 . S
C544 C114 1.703 . S
C571 C160 1.316 . S
C583 C357 1.206 . S
C610 C306 1.560 . S
C598 C206 1.577 . S
C625 C231 1.541 1_556 S
C637 C336 1.519 . S
C652 C1 1.860 1_556 S
C664 C339 1.848 . S
C691 C278 1.638 . S
C679 C61 1.614 . S
C718 C286 1.661 . S
C706 C139 1.633 . S
C745 C327 1.558 . S
C733 C185 1.532 . S
C772 C340 1.890 . S
C760 C252 1.967 1_556 S
C799 C277 1.463 . S
C787 C22 1.503 1_556 S
C826 C337 1.497 . S
C814 C54 1.605 . S
C841 C93 1.254 . S
C853 C338 1.266 . S
C880 C307 1.652 . S
C868 C238 1.647 . S
C907 C368 1.196 . S
C895 C8 1.276 . S
C934 C295 1.498 . S
C922 C68 1.632 . S
C961 C309 1.521 . S
C949 C107 1.590 . S
C976 C153 1.866 . S
C988 C358 1.851 . S
C1003 C199 1.650 . S
C1015 C305 1.649 . S
