# Generated by pormake.
# Topology eea, (3,6)-cn, num edge types: 1
# Building blocks:
#     Node 0, Type 0, BuildingBlock: KAKCAD_clean_linker_0, # of connection points: 3
#     Node 1, Type 0, BuildingBlock: KAKCAD_clean_linker_0, # of connection points: 3
#     Node 2, Type 0, BuildingBlock: KAKCAD_clean_linker_0, # of connection points: 3
#     Node 3, Type 0, BuildingBlock: KAKCAD_clean_linker_0, # of connection points: 3
#     Node 4, Type 0, BuildingBlock: KAKCAD_clean_linker_0, # of connection points: 3
#     Node 5, Type 0, BuildingBlock: KAKCAD_clean_linker_0, # of connection points: 3
#     Node 6, Type 0, BuildingBlock: KAKCAD_clean_linker_0, # of connection points: 3
#     Node 7, Type 0, BuildingBlock: KAKCAD_clean_linker_0, # of connection points: 3
#     Node 8, Type 0, BuildingBlock: KAKCAD_clean_linker_0, # of connection points: 3
#     Node 9, Type 0, BuildingBlock: KAKCAD_clean_linker_0, # of connection points: 3
#     Node 10, Type 0, BuildingBlock: KAKCAD_clean_linker_0, # of connection points: 3
#     Node 11, Type 0, BuildingBlock: KAKCAD_clean_linker_0, # of connection points: 3
#     Node 12, Type 0, BuildingBlock: KAKCAD_clean_linker_0, # of connection points: 3
#     Node 13, Type 0, BuildingBlock: KAKCAD_clean_linker_0, # of connection points: 3
#     Node 14, Type 0, BuildingBlock: KAKCAD_clean_linker_0, # of connection points: 3
#     Node 15, Type 0, BuildingBlock: KAKCAD_clean_linker_0, # of connection points: 3
#     Node 16, Type 0, BuildingBlock: KAKCAD_clean_linker_0, # of connection points: 3
#     Node 17, Type 0, BuildingBlock: KAKCAD_clean_linker_0, # of connection points: 3
#     Node 18, Type 1, BuildingBlock: CUKXOW_clean_sbu_0, # of connection points: 6
#     Node 19, Type 1, BuildingBlock: CUKXOW_clean_sbu_0, # of connection points: 6
#     Node 20, Type 1, BuildingBlock: CUKXOW_clean_sbu_0, # of connection points: 6
#     Node 21, Type 1, BuildingBlock: CUKXOW_clean_sbu_0, # of connection points: 6
#     Node 22, Type 1, BuildingBlock: CUKXOW_clean_sbu_0, # of connection points: 6
#     Node 23, Type 1, BuildingBlock: CUKXOW_clean_sbu_0, # of connection points: 6
#     Node 24, Type 1, BuildingBlock: CUKXOW_clean_sbu_0, # of connection points: 6
#     Node 25, Type 1, BuildingBlock: CUKXOW_clean_sbu_0, # of connection points: 6
#     Node 26, Type 1, BuildingBlock: CUKXOW_clean_sbu_0, # of connection points: 6
#     Edge 27, Type (0, 1), BuildingBlock: KIFKEQ_clean_linker_1, # of connection points: 2
#     Edge 28, Type (0, 1), BuildingBlock: KIFKEQ_clean_linker_1, # of connection points: 2
#     Edge 29, Type (0, 1), BuildingBlock: KIFKEQ_clean_linker_1, # of connection points: 2
#     Edge 30, Type (0, 1), BuildingBlock: KIFKEQ_clean_linker_1, # of connection points: 2
#     Edge 31, Type (0, 1), BuildingBlock: KIFKEQ_clean_linker_1, # of connection points: 2
#     Edge 32, Type (0, 1), BuildingBlock: KIFKEQ_clean_linker_1, # of connection points: 2
#     Edge 33, Type (0, 1), BuildingBlock: KIFKEQ_clean_linker_1, # of connection points: 2
#     Edge 34, Type (0, 1), BuildingBlock: KIFKEQ_clean_linker_1, # of connection points: 2
#     Edge 35, Type (0, 1), BuildingBlock: KIFKEQ_clean_linker_1, # of connection points: 2
#     Edge 36, Type (0, 1), BuildingBlock: KIFKEQ_clean_linker_1, # of connection points: 2
#     Edge 37, Type (0, 1), BuildingBlock: KIFKEQ_clean_linker_1, # of connection points: 2
#     Edge 38, Type (0, 1), BuildingBlock: KIFKEQ_clean_linker_1, # of connection points: 2
#     Edge 39, Type (0, 1), BuildingBlock: KIFKEQ_clean_linker_1, # of connection points: 2
#     Edge 40, Type (0, 1), BuildingBlock: KIFKEQ_clean_linker_1, # of connection points: 2
#     Edge 41, Type (0, 1), BuildingBlock: KIFKEQ_clean_linker_1, # of connection points: 2
#     Edge 42, Type (0, 1), BuildingBlock: KIFKEQ_clean_linker_1, # of connection points: 2
#     Edge 43, Type (0, 1), BuildingBlock: KIFKEQ_clean_linker_1, # of connection points: 2
#     Edge 44, Type (0, 1), BuildingBlock: KIFKEQ_clean_linker_1, # of connection points: 2
#     Edge 45, Type (0, 1), BuildingBlock: KIFKEQ_clean_linker_1, # of connection points: 2
#     Edge 46, Type (0, 1), BuildingBlock: KIFKEQ_clean_linker_1, # of connection points: 2
#     Edge 47, Type (0, 1), BuildingBlock: KIFKEQ_clean_linker_1, # of connection points: 2
#     Edge 48, Type (0, 1), BuildingBlock: KIFKEQ_clean_linker_1, # of connection points: 2
#     Edge 49, Type (0, 1), BuildingBlock: KIFKEQ_clean_linker_1, # of connection points: 2
#     Edge 50, Type (0, 1), BuildingBlock: KIFKEQ_clean_linker_1, # of connection points: 2
#     Edge 51, Type (0, 1), BuildingBlock: KIFKEQ_clean_linker_1, # of connection points: 2
#     Edge 52, Type (0, 1), BuildingBlock: KIFKEQ_clean_linker_1, # of connection points: 2
#     Edge 53, Type (0, 1), BuildingBlock: KIFKEQ_clean_linker_1, # of connection points: 2
#     Edge 54, Type (0, 1), BuildingBlock: KIFKEQ_clean_linker_1, # of connection points: 2
#     Edge 55, Type (0, 1), BuildingBlock: KIFKEQ_clean_linker_1, # of connection points: 2
#     Edge 56, Type (0, 1), BuildingBlock: KIFKEQ_clean_linker_1, # of connection points: 2
#     Edge 57, Type (0, 1), BuildingBlock: KIFKEQ_clean_linker_1, # of connection points: 2
#     Edge 58, Type (0, 1), BuildingBlock: KIFKEQ_clean_linker_1, # of connection points: 2
#     Edge 59, Type (0, 1), BuildingBlock: KIFKEQ_clean_linker_1, # of connection points: 2
#     Edge 60, Type (0, 1), BuildingBlock: KIFKEQ_clean_linker_1, # of connection points: 2
#     Edge 61, Type (0, 1), BuildingBlock: KIFKEQ_clean_linker_1, # of connection points: 2
#     Edge 62, Type (0, 1), BuildingBlock: KIFKEQ_clean_linker_1, # of connection points: 2
#     Edge 63, Type (0, 1), BuildingBlock: KIFKEQ_clean_linker_1, # of connection points: 2
#     Edge 64, Type (0, 1), BuildingBlock: KIFKEQ_clean_linker_1, # of connection points: 2
#     Edge 65, Type (0, 1), BuildingBlock: KIFKEQ_clean_linker_1, # of connection points: 2
#     Edge 66, Type (0, 1), BuildingBlock: KIFKEQ_clean_linker_1, # of connection points: 2
#     Edge 67, Type (0, 1), BuildingBlock: KIFKEQ_clean_linker_1, # of connection points: 2
#     Edge 68, Type (0, 1), BuildingBlock: KIFKEQ_clean_linker_1, # of connection points: 2
#     Edge 69, Type (0, 1), BuildingBlock: KIFKEQ_clean_linker_1, # of connection points: 2
#     Edge 70, Type (0, 1), BuildingBlock: KIFKEQ_clean_linker_1, # of connection points: 2
#     Edge 71, Type (0, 1), BuildingBlock: KIFKEQ_clean_linker_1, # of connection points: 2
#     Edge 72, Type (0, 1), BuildingBlock: KIFKEQ_clean_linker_1, # of connection points: 2
#     Edge 73, Type (0, 1), BuildingBlock: KIFKEQ_clean_linker_1, # of connection points: 2
#     Edge 74, Type (0, 1), BuildingBlock: KIFKEQ_clean_linker_1, # of connection points: 2
#     Edge 75, Type (0, 1), BuildingBlock: KIFKEQ_clean_linker_1, # of connection points: 2
#     Edge 76, Type (0, 1), BuildingBlock: KIFKEQ_clean_linker_1, # of connection points: 2
#     Edge 77, Type (0, 1), BuildingBlock: KIFKEQ_clean_linker_1, # of connection points: 2
#     Edge 78, Type (0, 1), BuildingBlock: KIFKEQ_clean_linker_1, # of connection points: 2
#     Edge 79, Type (0, 1), BuildingBlock: KIFKEQ_clean_linker_1, # of connection points: 2
#     Edge 80, Type (0, 1), BuildingBlock: KIFKEQ_clean_linker_1, # of connection points: 2
# Relax obj value: 0.017
# Max RMSD: 0.127
# Mean RMSD: 0.054
data_MOF--net-eea--node1-CUKXOW_clean_sbu_0--node2-KAKCAD_clean_linker_0--edge1-KIFKEQ_clean_linker_1
_symmetry_space_group_name_H-M    P1
_symmetry_Int_Tables_number       1
_symmetry_cell_setting            triclinic
loop_
_symmetry_equiv_pos_as_xyz
'x, y, z'
_cell_length_a     68.435081
_cell_length_b     65.346872
_cell_length_c     74.645116
_cell_angle_alpha  93.313761
_cell_angle_beta   93.044288
_cell_angle_gamma 119.92879
loop_
_atom_site_label
_atom_site_type_symbol
_atom_site_fract_x
_atom_site_fract_y
_atom_site_fract_z
_atom_type_partial_charge
C0 C 0.27078 0.15334 0.50527 0.0
C1 C 0.29154 0.1544 0.50982 0.0
C2 C 0.26243 0.15039 0.48723 0.0
C3 C 0.27442 0.14802 0.47335 0.0
C4 C 0.29521 0.14932 0.47777 0.0
C5 C 0.3038 0.15274 0.49577 0.0
C6 C 0.26492 0.14345 0.45432 0.0
C7 C 0.25803 0.15842 0.44702 0.0
C8 C 0.24885 0.15401 0.42898 0.0
C9 C 0.24595 0.13399 0.41845 0.0
C10 C 0.25237 0.11861 0.42569 0.0
C11 C 0.26225 0.12373 0.44354 0.0
C12 C 0.2477 0.09658 0.41493 0.0
C13 C 0.22622 0.08155 0.40574 0.0
C14 C 0.26432 0.08999 0.41428 0.0
C15 C 0.25947 0.06868 0.40474 0.0
C16 C 0.23779 0.05332 0.39582 0.0
C17 C 0.24222 0.17023 0.42112 0.0
C18 C 0.22913 0.17763 0.43037 0.0
C19 C 0.24889 0.17833 0.40423 0.0
C20 C 0.24262 0.19357 0.39675 0.0
C21 C 0.22932 0.20077 0.40591 0.0
C22 C 0.22261 0.19263 0.42278 0.0
C23 C 0.22127 0.06013 0.39639 0.0
H24 H 0.26062 0.15413 0.51561 0.0
H25 H 0.24624 0.14924 0.48412 0.0
H26 H 0.30486 0.14779 0.46726 0.0
H27 H 0.32009 0.15406 0.49863 0.0
H28 H 0.26032 0.17381 0.45526 0.0
H29 H 0.26699 0.1118 0.44932 0.0
H30 H 0.23845 0.13022 0.40464 0.0
H31 H 0.21298 0.08602 0.40624 0.0
H32 H 0.28109 0.10138 0.42112 0.0
H33 H 0.27275 0.06427 0.40435 0.0
H34 H 0.22365 0.17153 0.44336 0.0
H35 H 0.25913 0.17303 0.39687 0.0
H36 H 0.20427 0.04862 0.39004 0.0
H37 H 0.21247 0.19804 0.43018 0.0
H38 H 0.2479 0.19945 0.38367 0.0
C39 C 0.8655 0.17727 0.49979 0.0
C40 C 0.86466 0.16387 0.51407 0.0
C41 C 0.86827 0.17048 0.4824 0.0
C42 C 0.86962 0.14988 0.47904 0.0
C43 C 0.86852 0.13637 0.49329 0.0
C44 C 0.8663 0.14345 0.51071 0.0
C45 C 0.8723 0.14237 0.46074 0.0
C46 C 0.89168 0.15689 0.45225 0.0
C47 C 0.89511 0.14918 0.43534 0.0
C48 C 0.87851 0.12686 0.42686 0.0
C49 C 0.85887 0.11215 0.43515 0.0
C50 C 0.856 0.12013 0.45217 0.0
C51 C 0.8417 0.0883 0.42623 0.0
C52 C 0.83636 0.08467 0.40744 0.0
C53 C 0.83072 0.06885 0.43643 0.0
C54 C 0.8149 0.0464 0.42807 0.0
C55 C 0.80982 0.04268 0.40924 0.0
C56 C 0.91636 0.164 0.42685 0.0
C57 C 0.92626 0.18881 0.42792 0.0
C58 C 0.92714 0.15344 0.41785 0.0
C59 C 0.94725 0.1673 0.41009 0.0
C60 C 0.95725 0.19213 0.41126 0.0
C61 C 0.94648 0.20271 0.42027 0.0
C62 C 0.82073 0.06214 0.39904 0.0
H63 H 0.86426 0.19308 0.50214 0.0
H64 H 0.86907 0.18111 0.47154 0.0
H65 H 0.86962 0.12046 0.49097 0.0
H66 H 0.86556 0.1328 0.52154 0.0
H67 H 0.90451 0.17375 0.45921 0.0
H68 H 0.84095 0.10919 0.45878 0.0
H69 H 0.88105 0.12078 0.41385 0.0
H70 H 0.84421 0.09926 0.39915 0.0
H71 H 0.83457 0.07084 0.4509 0.0
H72 H 0.80661 0.03197 0.43643 0.0
H73 H 0.91833 0.19754 0.4346 0.0
H74 H 0.92023 0.13443 0.41699 0.0
H75 H 0.8175 0.05997 0.3845 0.0
H76 H 0.95381 0.22179 0.42164 0.0
H77 H 0.95487 0.15849 0.40306 0.0
C78 C 0.88698 0.73045 0.51657 0.0
C79 C 0.866 0.70985 0.51795 0.0
C80 C 0.89294 0.73944 0.49989 0.0
C81 C 0.87791 0.72823 0.48431 0.0
C82 C 0.85724 0.70742 0.48555 0.0
C83 C 0.85145 0.69821 0.50211 0.0
C84 C 0.88314 0.73862 0.46688 0.0
C85 C 0.90338 0.74384 0.45948 0.0
C86 C 0.90755 0.75254 0.44248 0.0
C87 C 0.89166 0.7567 0.43321 0.0
C88 C 0.87174 0.75243 0.44075 0.0
C89 C 0.86751 0.74308 0.45752 0.0
C90 C 0.85564 0.75822 0.43132 0.0
C91 C 0.86373 0.77891 0.42237 0.0
C92 C 0.83211 0.74344 0.43151 0.0
C93 C 0.81708 0.74934 0.42313 0.0
C94 C 0.82518 0.77011 0.41426 0.0
C95 C 0.92842 0.75731 0.4342 0.0
C96 C 0.94983 0.77231 0.44352 0.0
C97 C 0.927 0.74771 0.41652 0.0
C98 C 0.94663 0.75323 0.40822 0.0
C99 C 0.96806 0.76878 0.41733 0.0
C100 C 0.9695 0.77819 0.43508 0.0
C101 C 0.8487 0.78472 0.41389 0.0
H102 H 0.89855 0.7401 0.52844 0.0
H103 H 0.90894 0.75559 0.49925 0.0
H104 H 0.8455 0.6983 0.47365 0.0
H105 H 0.83546 0.68197 0.50246 0.0
H106 H 0.91548 0.74038 0.46663 0.0
H107 H 0.85231 0.73984 0.46361 0.0
H108 H 0.89496 0.76344 0.42011 0.0
H109 H 0.88174 0.79088 0.42214 0.0
H110 H 0.82526 0.72722 0.43809 0.0
H111 H 0.79909 0.73779 0.42387 0.0
H112 H 0.95132 0.78001 0.45712 0.0
H113 H 0.91066 0.73603 0.4091 0.0
H114 H 0.85557 0.80067 0.40697 0.0
H115 H 0.98584 0.79011 0.44241 0.0
H116 H 0.94507 0.74585 0.39449 0.0
C117 C 0.13426 0.27103 0.48714 0.0
C118 C 0.13646 0.29343 0.48593 0.0
C119 C 0.1297 0.26061 0.50336 0.0
C120 C 0.12677 0.2722 0.51851 0.0
C121 C 0.12847 0.29438 0.51723 0.0
C122 C 0.13357 0.30506 0.5011 0.0
C123 C 0.12247 0.26128 0.53572 0.0
C124 C 0.13806 0.25579 0.54377 0.0
C125 C 0.13401 0.2447 0.55985 0.0
C126 C 0.11386 0.23907 0.56767 0.0
C127 C 0.09814 0.24468 0.55988 0.0
C128 C 0.1027 0.25596 0.54389 0.0
C129 C 0.07701 0.23865 0.5685 0.0
C130 C 0.06538 0.2173 0.57654 0.0
C131 C 0.06858 0.25438 0.56915 0.0
C132 C 0.04924 0.24905 0.57788 0.0
C133 C 0.03805 0.228 0.58631 0.0
C134 C 0.15075 0.23906 0.56849 0.0
C135 C 0.16382 0.23284 0.55799 0.0
C136 C 0.1538 0.23982 0.58736 0.0
C137 C 0.16912 0.23413 0.59545 0.0
C138 C 0.18241 0.22818 0.58498 0.0
C139 C 0.17961 0.22778 0.56611 0.0
C140 C 0.04623 0.21212 0.58544 0.0
H141 H 0.13658 0.26183 0.47563 0.0
H142 H 0.1284 0.24347 0.50408 0.0
H143 H 0.12634 0.30361 0.52881 0.0
H144 H 0.13518 0.32235 0.50042 0.0
H145 H 0.15358 0.26071 0.53759 0.0
H146 H 0.09059 0.25997 0.53746 0.0
H147 H 0.11034 0.2303 0.57993 0.0
H148 H 0.07103 0.20448 0.57594 0.0
H149 H 0.07723 0.2711 0.56329 0.0
H150 H 0.04337 0.26168 0.57847 0.0
H151 H 0.16181 0.23165 0.54342 0.0
H152 H 0.14449 0.24497 0.59602 0.0
H153 H 0.03771 0.19557 0.59155 0.0
H154 H 0.18971 0.22372 0.5575 0.0
H155 H 0.17032 0.23424 0.60997 0.0
C156 C 0.69838 0.82809 0.50745 0.0
C157 C 0.7102 0.84349 0.49456 0.0
C158 C 0.70743 0.83311 0.52549 0.0
C159 C 0.72814 0.8539 0.53094 0.0
C160 C 0.73989 0.86928 0.51804 0.0
C161 C 0.7311 0.86401 0.49999 0.0
C162 C 0.73754 0.85981 0.55004 0.0
C163 C 0.74162 0.84392 0.55916 0.0
C164 C 0.75228 0.85042 0.57681 0.0
C165 C 0.75808 0.87261 0.58551 0.0
C166 C 0.7535 0.88843 0.57676 0.0
C167 C 0.74339 0.88193 0.55892 0.0
C168 C 0.75969 0.91187 0.58616 0.0
C169 C 0.7566 0.91398 0.60451 0.0
C170 C 0.76901 0.93236 0.57693 0.0
C171 C 0.77524 0.95443 0.58585 0.0
C172 C 0.77244 0.95661 0.60427 0.0
C173 C 0.75836 0.83459 0.58597 0.0
C174 C 0.74217 0.81071 0.58707 0.0
C175 C 0.78054 0.84346 0.59379 0.0
C176 C 0.78645 0.82878 0.60258 0.0
C177 C 0.77023 0.8049 0.60402 0.0
C178 C 0.74798 0.79606 0.59613 0.0
C179 C 0.76294 0.93608 0.61347 0.0
H180 H 0.68223 0.81215 0.50355 0.0
H181 H 0.69808 0.82104 0.53523 0.0
H182 H 0.75595 0.88535 0.52194 0.0
H183 H 0.74043 0.87623 0.49031 0.0
H184 H 0.73747 0.827 0.55224 0.0
H185 H 0.73976 0.89391 0.55194 0.0
H186 H 0.76645 0.87764 0.59909 0.0
H187 H 0.74919 0.89852 0.61198 0.0
H188 H 0.77184 0.93144 0.56284 0.0
H189 H 0.78221 0.96981 0.57828 0.0
H190 H 0.7249 0.80351 0.58124 0.0
H191 H 0.79343 0.86175 0.59289 0.0
H192 H 0.76073 0.93711 0.62768 0.0
H193 H 0.73493 0.7779 0.59715 0.0
H194 H 0.80387 0.83613 0.60805 0.0
C195 C 0.12032 0.83136 0.49985 0.0
C196 C 0.14253 0.84012 0.49503 0.0
C197 C 0.1164 0.83725 0.51704 0.0
C198 C 0.13455 0.85158 0.53016 0.0
C199 C 0.15674 0.85945 0.52561 0.0
C200 C 0.16068 0.85402 0.50826 0.0
C201 C 0.13028 0.85904 0.54815 0.0
C202 C 0.11046 0.84405 0.55615 0.0
C203 C 0.10524 0.85171 0.57226 0.0
C204 C 0.12058 0.87443 0.58076 0.0
C205 C 0.14085 0.88929 0.57342 0.0
C206 C 0.14549 0.88162 0.55708 0.0
C207 C 0.15717 0.91292 0.58283 0.0
C208 C 0.14987 0.92855 0.5888 0.0
C209 C 0.18009 0.91978 0.5862 0.0
C210 C 0.19541 0.94176 0.59555 0.0
C211 C 0.18822 0.95756 0.6015 0.0
C212 C 0.08354 0.83624 0.57997 0.0
C213 C 0.06342 0.82223 0.56863 0.0
C214 C 0.08262 0.83576 0.59873 0.0
C215 C 0.06208 0.82197 0.60596 0.0
C216 C 0.04194 0.80806 0.59462 0.0
C217 C 0.04293 0.80823 0.57585 0.0
C218 C 0.16524 0.95069 0.59791 0.0
H219 H 0.10582 0.82014 0.49027 0.0
H220 H 0.09905 0.83103 0.5198 0.0
H221 H 0.17119 0.87007 0.53538 0.0
H222 H 0.17806 0.86137 0.50514 0.0
H223 H 0.09908 0.82625 0.54991 0.0
H224 H 0.16066 0.8937 0.55109 0.0
H225 H 0.11678 0.88069 0.59312 0.0
H226 H 0.1323 0.92375 0.5862 0.0
H227 H 0.18608 0.9079 0.58193 0.0
H228 H 0.21283 0.94616 0.59833 0.0
H229 H 0.06339 0.82236 0.55413 0.0
H230 H 0.0978 0.84604 0.60789 0.0
H231 H 0.15912 0.9625 0.60194 0.0
H232 H 0.02786 0.79749 0.56668 0.0
H233 H 0.06199 0.82255 0.62048 0.0
C234 C 0.94009 0.49441 0.83678 0.0
C235 C 0.95836 0.49141 0.84241 0.0
C236 C 0.93195 0.4901 0.81857 0.0
C237 C 0.94176 0.48245 0.80566 0.0
C238 C 0.96017 0.4797 0.81127 0.0
C239 C 0.96845 0.48423 0.82944 0.0
C240 C 0.93236 0.47659 0.78649 0.0
C241 C 0.92703 0.49184 0.77769 0.0
C242 C 0.91752 0.48604 0.75966 0.0
C243 C 0.91363 0.46474 0.75045 0.0
C244 C 0.91887 0.44923 0.75903 0.0
C245 C 0.92821 0.45537 0.77709 0.0
C246 C 0.91398 0.4263 0.74941 0.0
C247 C 0.89434 0.4129 0.7374 0.0
C248 C 0.92859 0.41727 0.75253 0.0
C249 C 0.92338 0.39516 0.74429 0.0
C250 C 0.90364 0.38175 0.73251 0.0
C251 C 0.91114 0.50189 0.75059 0.0
C252 C 0.90186 0.51365 0.76018 0.0
C253 C 0.91377 0.505 0.7322 0.0
C254 C 0.9069 0.5191 0.72356 0.0
C255 C 0.89747 0.53073 0.73313 0.0
C256 C 0.89527 0.52799 0.7516 0.0
C257 C 0.88933 0.39095 0.72895 0.0
H258 H 0.93209 0.50008 0.84646 0.0
H259 H 0.91764 0.49221 0.81464 0.0
H260 H 0.96815 0.47398 0.8016 0.0
H261 H 0.98242 0.48157 0.8334 0.0
H262 H 0.93064 0.50843 0.78486 0.0
H263 H 0.93157 0.44324 0.78411 0.0
H264 H 0.90625 0.46006 0.73659 0.0
H265 H 0.88246 0.419 0.73488 0.0
H266 H 0.94409 0.42726 0.76138 0.0
H267 H 0.9348 0.38854 0.74711 0.0
H268 H 0.89929 0.5115 0.77429 0.0
H269 H 0.92117 0.49655 0.72442 0.0
H270 H 0.87386 0.38081 0.72007 0.0
H271 H 0.88847 0.53698 0.75953 0.0
H272 H 0.90867 0.52054 0.70929 0.0
C273 C 0.53962 0.50097 0.83903 0.0
C274 C 0.5255 0.48228 0.8489 0.0
C275 C 0.54485 0.49624 0.82194 0.0
C276 C 0.53637 0.47269 0.81454 0.0
C277 C 0.52264 0.45409 0.82475 0.0
C278 C 0.5171 0.45883 0.84161 0.0
C279 C 0.54182 0.4673 0.79638 0.0
C280 C 0.56318 0.48185 0.7903 0.0
C281 C 0.56862 0.47588 0.77365 0.0
C282 C 0.55265 0.455 0.76311 0.0
C283 C 0.53106 0.44041 0.76872 0.0
C284 C 0.52573 0.44701 0.78521 0.0
C285 C 0.51424 0.41806 0.7576 0.0
C286 C 0.51279 0.41666 0.73862 0.0
C287 C 0.49965 0.39775 0.76592 0.0
C288 C 0.48397 0.37675 0.7556 0.0
C289 C 0.48276 0.37537 0.73671 0.0
C290 C 0.59097 0.49144 0.7671 0.0
C291 C 0.5991 0.51581 0.76666 0.0
C292 C 0.60381 0.48184 0.76048 0.0
C293 C 0.6242 0.49623 0.75325 0.0
C294 C 0.63208 0.52054 0.75224 0.0
C295 C 0.61936 0.53018 0.75921 0.0
C296 C 0.49735 0.39547 0.7283 0.0
H297 H 0.54621 0.51922 0.84437 0.0
H298 H 0.55524 0.51104 0.81446 0.0
H299 H 0.5163 0.43575 0.81983 0.0
H300 H 0.50645 0.44411 0.84909 0.0
H301 H 0.57591 0.49745 0.7987 0.0
H302 H 0.50884 0.43638 0.78931 0.0
H303 H 0.55715 0.45018 0.7505 0.0
H304 H 0.52342 0.43198 0.73169 0.0
H305 H 0.50055 0.39789 0.78046 0.0
H306 H 0.47309 0.36138 0.7624 0.0
H307 H 0.5894 0.5236 0.77153 0.0
H308 H 0.59804 0.46314 0.76088 0.0
H309 H 0.4966 0.39488 0.71373 0.0
H310 H 0.62466 0.54871 0.75845 0.0
H311 H 0.63375 0.48825 0.74843 0.0
C312 C 0.55602 0.04564 0.84223 0.0
C313 C 0.53394 0.03154 0.84722 0.0
C314 C 0.55962 0.05554 0.82578 0.0
C315 C 0.54123 0.05122 0.81363 0.0
C316 C 0.51915 0.03641 0.81833 0.0
C317 C 0.51555 0.02692 0.83494 0.0
C318 C 0.54507 0.06257 0.79638 0.0
C319 C 0.56388 0.06676 0.78705 0.0
C320 C 0.56796 0.07813 0.77114 0.0
C321 C 0.55288 0.08506 0.76433 0.0
C322 C 0.53399 0.081 0.77336 0.0
C323 C 0.53024 0.06984 0.78937 0.0
C324 C 0.51833 0.0887 0.76616 0.0
C325 C 0.52685 0.11146 0.7604 0.0
C326 C 0.4948 0.07324 0.76476 0.0
C327 C 0.48007 0.08024 0.75742 0.0
C328 C 0.48856 0.10296 0.75148 0.0
C329 C 0.58835 0.08342 0.76188 0.0
C330 C 0.60978 0.09464 0.77165 0.0
C331 C 0.58663 0.07801 0.74316 0.0
C332 C 0.60601 0.08382 0.73437 0.0
C333 C 0.62749 0.09547 0.7441 0.0
C334 C 0.62919 0.10075 0.76283 0.0
C335 C 0.51214 0.11856 0.75323 0.0
H336 H 0.57066 0.04927 0.8511 0.0
H337 H 0.5769 0.06704 0.82285 0.0
H338 H 0.50451 0.03222 0.80922 0.0
H339 H 0.49828 0.01646 0.83828 0.0
H340 H 0.57529 0.06091 0.79197 0.0
H341 H 0.51609 0.06755 0.79662 0.0
H342 H 0.55597 0.09383 0.75204 0.0
H343 H 0.54491 0.12388 0.76158 0.0
H344 H 0.48779 0.05551 0.76894 0.0
H345 H 0.46207 0.06761 0.75603 0.0
H346 H 0.61157 0.09915 0.78607 0.0
H347 H 0.57027 0.06926 0.73535 0.0
H348 H 0.51929 0.13635 0.74916 0.0
H349 H 0.64554 0.10957 0.77065 0.0
H350 H 0.60427 0.07967 0.71991 0.0
C351 C 0.81094 0.60559 0.825 0.0
C352 C 0.8041 0.6214 0.81947 0.0
C353 C 0.80552 0.59612 0.84151 0.0
C354 C 0.79346 0.60258 0.85306 0.0
C355 C 0.78641 0.61825 0.84736 0.0
C356 C 0.79152 0.62741 0.83066 0.0
C357 C 0.78861 0.59319 0.87103 0.0
C358 C 0.80448 0.5896 0.88103 0.0
C359 C 0.79997 0.58026 0.89777 0.0
C360 C 0.77945 0.57482 0.90472 0.0
C361 C 0.76345 0.57846 0.89505 0.0
C362 C 0.76812 0.5876 0.87822 0.0
C363 C 0.74177 0.57253 0.9025 0.0
C364 C 0.72903 0.55083 0.9098 0.0
C365 C 0.73385 0.58866 0.9026 0.0
C366 C 0.71377 0.58336 0.91013 0.0
C367 C 0.70109 0.5617 0.91752 0.0
C368 C 0.81662 0.5759 0.90784 0.0
C369 C 0.82677 0.56465 0.89889 0.0
C370 C 0.8224 0.58283 0.92641 0.0
C371 C 0.83812 0.57868 0.93582 0.0
C372 C 0.84825 0.56733 0.92689 0.0
C373 C 0.84232 0.56032 0.90831 0.0
C374 C 0.70883 0.54542 0.91716 0.0
H375 H 0.8204 0.60044 0.81647 0.0
H376 H 0.81073 0.58364 0.84516 0.0
H377 H 0.77736 0.62389 0.85595 0.0
H378 H 0.78619 0.6397 0.8267 0.0
H379 H 0.82064 0.59447 0.87597 0.0
H380 H 0.75546 0.58971 0.87054 0.0
H381 H 0.77588 0.56764 0.91765 0.0
H382 H 0.73464 0.53799 0.90976 0.0
H383 H 0.74342 0.60557 0.89714 0.0
H384 H 0.70812 0.59616 0.91013 0.0
H385 H 0.82238 0.55881 0.88463 0.0
H386 H 0.81502 0.59178 0.93361 0.0
H387 H 0.6995 0.52868 0.92288 0.0
H388 H 0.8494 0.55111 0.90104 0.0
H389 H 0.84253 0.58465 0.95005 0.0
C390 C 0.3733 0.16134 0.83954 0.0
C391 C 0.37901 0.18003 0.82871 0.0
C392 C 0.38259 0.166 0.85751 0.0
C393 C 0.39806 0.18942 0.86485 0.0
C394 C 0.40422 0.20791 0.85363 0.0
C395 C 0.3946 0.20329 0.83588 0.0
C396 C 0.4078 0.19487 0.88406 0.0
C397 C 0.41305 0.17936 0.89266 0.0
C398 C 0.42345 0.18539 0.91041 0.0
C399 C 0.42892 0.20728 0.91951 0.0
C400 C 0.42356 0.22288 0.9113 0.0
C401 C 0.41253 0.21621 0.89376 0.0
C402 C 0.42994 0.24641 0.92076 0.0
C403 C 0.42909 0.24918 0.93951 0.0
C404 C 0.4372 0.26643 0.91106 0.0
C405 C 0.44311 0.28849 0.91979 0.0
C406 C 0.44229 0.29119 0.93847 0.0
C407 C 0.42891 0.16902 0.91951 0.0
C408 C 0.41257 0.14491 0.91941 0.0
C409 C 0.4503 0.1776 0.92886 0.0
C410 C 0.45519 0.16247 0.9381 0.0
C411 C 0.43873 0.1384 0.93836 0.0
C412 C 0.41739 0.12978 0.9288 0.0
C413 C 0.43538 0.27139 0.94828 0.0
H414 H 0.36123 0.14325 0.83423 0.0
H415 H 0.37727 0.15131 0.86571 0.0
H416 H 0.41659 0.22607 0.85851 0.0
H417 H 0.39946 0.21794 0.82766 0.0
H418 H 0.40977 0.16295 0.88541 0.0
H419 H 0.40747 0.22768 0.88765 0.0
H420 H 0.43746 0.21215 0.93301 0.0
H421 H 0.42328 0.23415 0.9474 0.0
H422 H 0.43864 0.2652 0.89671 0.0
H423 H 0.44868 0.30358 0.91196 0.0
H424 H 0.39587 0.13788 0.91244 0.0
H425 H 0.46333 0.19604 0.92894 0.0
H426 H 0.43444 0.27301 0.96269 0.0
H427 H 0.4042 0.11144 0.92886 0.0
H428 H 0.47199 0.16964 0.94492 0.0
C429 C 0.79027 0.17843 0.83305 0.0
C430 C 0.81167 0.18175 0.82974 0.0
C431 C 0.78557 0.18214 0.85057 0.0
C432 C 0.80221 0.18937 0.86515 0.0
C433 C 0.82336 0.19205 0.86192 0.0
C434 C 0.82801 0.18821 0.84445 0.0
C435 C 0.79801 0.19528 0.88353 0.0
C436 C 0.77752 0.18049 0.89076 0.0
C437 C 0.77366 0.18636 0.90813 0.0
C438 C 0.79025 0.20748 0.91806 0.0
C439 C 0.8106 0.22259 0.91092 0.0
C440 C 0.81448 0.21623 0.89377 0.0
C441 C 0.82735 0.24559 0.92098 0.0
C442 C 0.82031 0.2609 0.92823 0.0
C443 C 0.85049 0.25275 0.92287 0.0
C444 C 0.86631 0.27492 0.93174 0.0
C445 C 0.85929 0.29044 0.93859 0.0
C446 C 0.7523 0.17068 0.91599 0.0
C447 C 0.73124 0.16251 0.90623 0.0
C448 C 0.75291 0.16451 0.93364 0.0
C449 C 0.73285 0.15067 0.94146 0.0
C450 C 0.71167 0.14292 0.93192 0.0
C451 C 0.71113 0.1489 0.91413 0.0
C452 C 0.83614 0.28316 0.93685 0.0
H453 H 0.77736 0.1737 0.82204 0.0
H454 H 0.76918 0.18015 0.85263 0.0
H455 H 0.83639 0.19723 0.87293 0.0
H456 H 0.84449 0.1904 0.84248 0.0
H457 H 0.7648 0.16418 0.88305 0.0
H458 H 0.83 0.22812 0.88807 0.0
H459 H 0.7872 0.21231 0.93133 0.0
H460 H 0.8026 0.25589 0.92683 0.0
H461 H 0.85632 0.24121 0.91746 0.0
H462 H 0.88408 0.28017 0.93283 0.0
H463 H 0.73032 0.16722 0.89266 0.0
H464 H 0.76895 0.17034 0.94138 0.0
H465 H 0.83028 0.29474 0.94213 0.0
H466 H 0.6952 0.14357 0.90643 0.0
H467 H 0.73399 0.14599 0.955 0.0
C468 C 0.61748 0.83428 0.17015 0.0
C469 C 0.63019 0.824 0.1759 0.0
C470 C 0.60913 0.83084 0.15203 0.0
C471 C 0.61365 0.81737 0.13927 0.0
C472 C 0.62725 0.808 0.14505 0.0
C473 C 0.63521 0.81107 0.16317 0.0
C474 C 0.60351 0.81217 0.12019 0.0
C475 C 0.60055 0.82903 0.11138 0.0
C476 C 0.59032 0.82374 0.09358 0.0
C477 C 0.58355 0.80147 0.08443 0.0
C478 C 0.58649 0.78444 0.09292 0.0
C479 C 0.59621 0.78987 0.11083 0.0
C480 C 0.57909 0.76079 0.08325 0.0
C481 C 0.55868 0.7487 0.072 0.0
C482 C 0.59229 0.74996 0.08541 0.0
C483 C 0.58512 0.7275 0.07676 0.0
C484 C 0.56463 0.71531 0.06561 0.0
C485 C 0.58579 0.84099 0.08471 0.0
C486 C 0.57773 0.8539 0.09443 0.0
C487 C 0.58833 0.84379 0.06628 0.0
C488 C 0.58224 0.8585 0.05765 0.0
C489 C 0.57355 0.87086 0.06725 0.0
C490 C 0.57175 0.86868 0.08582 0.0
C491 C 0.55157 0.72627 0.06325 0.0
H492 H 0.61332 0.84424 0.17978 0.0
H493 H 0.59852 0.83811 0.14819 0.0
H494 H 0.63165 0.79809 0.13559 0.0
H495 H 0.64525 0.80324 0.16727 0.0
H496 H 0.60643 0.84642 0.11829 0.0
H497 H 0.59746 0.77634 0.11768 0.0
H498 H 0.57571 0.79725 0.07072 0.0
H499 H 0.54796 0.75638 0.07017 0.0
H500 H 0.60824 0.75888 0.09379 0.0
H501 H 0.59549 0.71951 0.07908 0.0
H502 H 0.57538 0.85205 0.1086 0.0
H503 H 0.5948 0.8344 0.05844 0.0
H504 H 0.53583 0.71756 0.0546 0.0
H505 H 0.5655 0.87825 0.09371 0.0
H506 H 0.58374 0.85962 0.04332 0.0
C507 C 0.20036 0.84682 0.16508 0.0
C508 C 0.19979 0.83299 0.17898 0.0
C509 C 0.20337 0.84088 0.14752 0.0
C510 C 0.20526 0.8207 0.14358 0.0
C511 C 0.20457 0.80683 0.15746 0.0
C512 C 0.20211 0.81307 0.17506 0.0
C513 C 0.20743 0.81366 0.12497 0.0
C514 C 0.22669 0.82819 0.11632 0.0
C515 C 0.22933 0.82093 0.09892 0.0
C516 C 0.21201 0.79919 0.09016 0.0
C517 C 0.19265 0.78445 0.09868 0.0
C518 C 0.19058 0.79185 0.11617 0.0
C519 C 0.17506 0.76101 0.08953 0.0
C520 C 0.16855 0.75836 0.07096 0.0
C521 C 0.16517 0.74091 0.09918 0.0
C522 C 0.14943 0.71867 0.09044 0.0
C523 C 0.14328 0.71593 0.0718 0.0
C524 C 0.25045 0.83546 0.09014 0.0
C525 C 0.26159 0.86041 0.09215 0.0
C526 C 0.25976 0.82437 0.07971 0.0
C527 C 0.27942 0.83782 0.07132 0.0
C528 C 0.2905 0.86268 0.07337 0.0
C529 C 0.28148 0.87387 0.08394 0.0
C530 C 0.15288 0.73609 0.0622 0.0
H531 H 0.19862 0.86227 0.16785 0.0
H532 H 0.20379 0.85174 0.13695 0.0
H533 H 0.20601 0.7912 0.15467 0.0
H534 H 0.20156 0.80207 0.18556 0.0
H535 H 0.23997 0.84464 0.12348 0.0
H536 H 0.17571 0.78077 0.12293 0.0
H537 H 0.21377 0.79348 0.07673 0.0
H538 H 0.17561 0.77352 0.06316 0.0
H539 H 0.16994 0.74224 0.11345 0.0
H540 H 0.14212 0.7036 0.09832 0.0
H541 H 0.2548 0.86957 0.09988 0.0
H542 H 0.25206 0.80525 0.07821 0.0
H543 H 0.14869 0.73462 0.04781 0.0
H544 H 0.28963 0.89304 0.08563 0.0
H545 H 0.28622 0.82875 0.06348 0.0
C546 C 0.21945 0.40104 0.1863 0.0
C547 C 0.19932 0.3798 0.18806 0.0
C548 C 0.22433 0.40974 0.16944 0.0
C549 C 0.20892 0.39761 0.15418 0.0
C550 C 0.18881 0.37637 0.15595 0.0
C551 C 0.18416 0.36742 0.17272 0.0
C552 C 0.21355 0.40723 0.13646 0.0
C553 C 0.23387 0.4127 0.12913 0.0
C554 C 0.23795 0.42111 0.11206 0.0
C555 C 0.22177 0.42463 0.10256 0.0
C556 C 0.20169 0.42009 0.11 0.0
C557 C 0.19759 0.411 0.12688 0.0
C558 C 0.18551 0.42569 0.10047 0.0
C559 C 0.19356 0.44627 0.09138 0.0
C560 C 0.16198 0.41093 0.10072 0.0
C561 C 0.14692 0.41677 0.09227 0.0
C562 C 0.15501 0.43745 0.0833 0.0
C563 C 0.25916 0.42644 0.10411 0.0
C564 C 0.28028 0.44115 0.11397 0.0
C565 C 0.2584 0.41733 0.08642 0.0
C566 C 0.2784 0.42289 0.07868 0.0
C567 C 0.29954 0.43798 0.0884 0.0
C568 C 0.30031 0.44704 0.10612 0.0
C569 C 0.17852 0.452 0.08284 0.0
H570 H 0.23139 0.41085 0.19796 0.0
H571 H 0.2399 0.4262 0.16838 0.0
H572 H 0.17674 0.36668 0.14433 0.0
H573 H 0.16847 0.35109 0.17379 0.0
H574 H 0.24622 0.40976 0.13648 0.0
H575 H 0.18232 0.40759 0.13293 0.0
H576 H 0.22502 0.43121 0.0894 0.0
H577 H 0.21155 0.45825 0.09111 0.0
H578 H 0.15516 0.3948 0.10741 0.0
H579 H 0.12894 0.40525 0.09306 0.0
H580 H 0.28128 0.44849 0.1276 0.0
H581 H 0.24231 0.40585 0.07859 0.0
H582 H 0.18538 0.46787 0.07583 0.0
H583 H 0.31641 0.4586 0.11392 0.0
H584 H 0.27736 0.4158 0.06496 0.0
C585 C 0.46794 0.94461 0.15973 0.0
C586 C 0.47046 0.96709 0.15811 0.0
C587 C 0.46523 0.93551 0.17647 0.0
C588 C 0.46451 0.94853 0.19178 0.0
C589 C 0.46669 0.97086 0.19014 0.0
C590 C 0.46994 0.98022 0.17344 0.0
C591 C 0.46166 0.93884 0.20947 0.0
C592 C 0.47705 0.93248 0.21663 0.0
C593 C 0.4746 0.92344 0.23348 0.0
C594 C 0.45629 0.92036 0.24297 0.0
C595 C 0.44024 0.92584 0.23571 0.0
C596 C 0.44333 0.93548 0.21902 0.0
C597 C 0.41992 0.9206 0.24528 0.0
C598 C 0.40929 0.90015 0.25454 0.0
C599 C 0.41074 0.93568 0.24506 0.0
C600 C 0.3914 0.93035 0.25381 0.0
C601 C 0.38104 0.91004 0.26316 0.0
C602 C 0.49082 0.91672 0.24112 0.0
C603 C 0.49718 0.90297 0.23047 0.0
C604 C 0.49947 0.92335 0.25932 0.0
C605 C 0.51393 0.91613 0.26677 0.0
C606 C 0.51997 0.90195 0.25624 0.0
C607 C 0.51154 0.8956 0.23796 0.0
C608 C 0.39021 0.89506 0.26349 0.0
H609 H 0.46844 0.93425 0.14807 0.0
H610 H 0.46352 0.91822 0.17745 0.0
H611 H 0.46625 0.9812 0.20183 0.0
H612 H 0.47184 0.99759 0.17246 0.0
H613 H 0.49121 0.93507 0.20924 0.0
H614 H 0.43105 0.93958 0.21305 0.0
H615 H 0.45439 0.91332 0.25595 0.0
H616 H 0.41544 0.88778 0.25464 0.0
H617 H 0.41861 0.95173 0.23829 0.0
H618 H 0.38471 0.94226 0.25346 0.0
H619 H 0.49056 0.89738 0.21645 0.0
H620 H 0.4951 0.93422 0.26778 0.0
H621 H 0.38232 0.87909 0.27038 0.0
H622 H 0.51558 0.88444 0.2295 0.0
H623 H 0.52048 0.92179 0.28079 0.0
C624 C 0.0268 0.49344 0.1775 0.0
C625 C 0.03926 0.50763 0.16425 0.0
C626 C 0.03552 0.49941 0.19563 0.0
C627 C 0.05651 0.51998 0.20077 0.0
C628 C 0.0688 0.53429 0.18752 0.0
C629 C 0.06036 0.52803 0.16939 0.0
C630 C 0.06582 0.52647 0.21987 0.0
C631 C 0.06965 0.51074 0.22942 0.0
C632 C 0.08008 0.51751 0.24714 0.0
C633 C 0.08564 0.53976 0.25559 0.0
C634 C 0.08151 0.55549 0.24628 0.0
C635 C 0.07192 0.54888 0.22832 0.0
C636 C 0.08779 0.57908 0.25519 0.0
C637 C 0.08064 0.58114 0.27214 0.0
C638 C 0.10111 0.59967 0.24682 0.0
C639 C 0.10736 0.62198 0.2553 0.0
C640 C 0.10007 0.6242 0.27224 0.0
C641 C 0.0867 0.5021 0.25632 0.0
C642 C 0.07103 0.47795 0.25711 0.0
C643 C 0.10915 0.51138 0.26369 0.0
C644 C 0.11594 0.49669 0.27142 0.0
C645 C 0.10031 0.47254 0.27217 0.0
C646 C 0.07773 0.46333 0.26515 0.0
C647 C 0.08655 0.60344 0.28051 0.0
H648 H 0.01049 0.47762 0.17379 0.0
H649 H 0.02577 0.48815 0.20566 0.0
H650 H 0.08509 0.55016 0.1912 0.0
H651 H 0.07016 0.5393 0.15939 0.0
H652 H 0.0656 0.49373 0.22272 0.0
H653 H 0.06892 0.56104 0.22097 0.0
H654 H 0.09364 0.54504 0.26929 0.0
H655 H 0.07018 0.56546 0.27879 0.0
H656 H 0.10708 0.59855 0.23384 0.0
H657 H 0.11823 0.63749 0.24866 0.0
H658 H 0.05362 0.47041 0.25152 0.0
H659 H 0.1216 0.5299 0.26308 0.0
H660 H 0.08027 0.60432 0.29338 0.0
H661 H 0.06541 0.44472 0.26552 0.0
H662 H 0.13341 0.50422 0.27683 0.0
C663 C 0.45294 0.51639 0.15996 0.0
C664 C 0.47253 0.51533 0.15698 0.0
C665 C 0.44823 0.51992 0.1775 0.0
C666 C 0.46326 0.52293 0.19231 0.0
C667 C 0.48272 0.52163 0.18934 0.0
C668 C 0.48721 0.51764 0.17183 0.0
C669 C 0.45921 0.52852 0.21077 0.0
C670 C 0.43825 0.51437 0.2175 0.0
C671 C 0.4344 0.5199 0.23496 0.0
C672 C 0.45148 0.54024 0.24542 0.0
C673 C 0.47236 0.55475 0.23871 0.0
C674 C 0.47625 0.54853 0.22151 0.0
C675 C 0.4897 0.57707 0.24926 0.0
C676 C 0.48372 0.59327 0.25648 0.0
C677 C 0.51241 0.58275 0.25157 0.0
C678 C 0.52887 0.60432 0.26085 0.0
C679 C 0.52303 0.62087 0.26779 0.0
C680 C 0.41261 0.50449 0.24238 0.0
C681 C 0.39189 0.49719 0.2323 0.0
C682 C 0.41244 0.49716 0.25972 0.0
C683 C 0.39198 0.48282 0.26687 0.0
C684 C 0.37125 0.47577 0.2569 0.0
C685 C 0.37139 0.48311 0.23956 0.0
C686 C 0.50019 0.61497 0.26552 0.0
H687 H 0.44133 0.51456 0.1487 0.0
H688 H 0.43318 0.521 0.17946 0.0
H689 H 0.49452 0.52383 0.20057 0.0
H690 H 0.50249 0.51704 0.16986 0.0
H691 H 0.42515 0.49875 0.20932 0.0
H692 H 0.49223 0.55985 0.21615 0.0
H693 H 0.44845 0.5449 0.25875 0.0
H694 H 0.46637 0.58946 0.25465 0.0
H695 H 0.51741 0.57044 0.24624 0.0
H696 H 0.54615 0.60798 0.26261 0.0
H697 H 0.39155 0.5027 0.21893 0.0
H698 H 0.42818 0.5024 0.26773 0.0
H699 H 0.49504 0.62736 0.27029 0.0
H700 H 0.35564 0.47781 0.23155 0.0
H701 H 0.39236 0.47755 0.28032 0.0
Tb702 Tb 0.52629 0.02191 0.00271 0.0
C703 C 0.51656 0.96989 0.0101 0.0
Tb704 Tb 0.47681 0.98097 0.00365 0.0
O705 O 0.527 0.0365 0.03032 0.0
O706 O 0.50591 0.00081 0.02177 0.0
O707 O 0.53122 0.99137 0.00554 0.0
C708 C 0.4365 0.95619 0.0162 0.0
O709 O 0.495 0.96309 0.0121 0.0
C710 C 0.49292 0.98622 0.97214 0.0
C711 C 0.48664 0.03307 0.99621 0.0
O712 O 0.44349 0.94871 0.00282 0.0
O713 O 0.45211 0.97751 0.02234 0.0
O714 O 0.47625 0.96618 0.97618 0.0
O715 O 0.49717 0.00198 0.98458 0.0
O716 O 0.47189 0.01149 1.00053 0.0
O717 O 0.50826 0.03997 0.99444 0.0
C718 C 0.56647 0.04714 0.99002 0.0
O719 O 0.55956 0.05427 0.00366 0.0
O720 O 0.55089 0.02586 0.98376 0.0
C721 C 0.51027 0.01648 0.03431 0.0
Tb722 Tb 0.9829 0.50928 0.00178 0.0
C723 C 0.03385 0.55062 0.01363 0.0
Tb724 Tb 0.0222 0.4967 0.00649 0.0
O725 O 0.9708 0.49533 0.02766 0.0
O726 O 0.00411 0.50785 0.0226 0.0
O727 O 0.01252 0.5447 0.00864 0.0
C728 C 0.04953 0.48382 0.02239 0.0
O729 O 0.04078 0.53487 0.01467 0.0
C730 C 0.01255 0.5006 0.97251 0.0
C731 C 0.97195 0.45677 0.99292 0.0
O732 O 0.05548 0.49998 0.01116 0.0
O733 O 0.02817 0.47489 0.02462 0.0
O734 O 0.02818 0.49574 0.97757 0.0
O735 O 0.00426 0.50294 0.98648 0.0
O736 O 0.9914 0.46182 0.00193 0.0
O737 O 0.96691 0.47326 0.98884 0.0
C738 C 0.95611 0.52511 0.98933 0.0
O739 O 0.95031 0.50811 0.99971 0.0
O740 O 0.97705 0.53333 0.98608 0.0
C741 C 0.98987 0.49705 0.03345 0.0
Tb742 Tb 0.47642 0.49312 0.00806 0.0
C743 C 0.48849 0.45519 0.99332 0.0
Tb744 Tb 0.52518 0.51086 0.99834 0.0
O745 O 0.46348 0.48281 0.97964 0.0
O746 O 0.49625 0.511 0.98721 0.0
O747 O 0.47357 0.4589 0.00145 0.0
C748 C 0.56166 0.52172 0.98082 0.0
O749 O 0.50897 0.4726 0.99043 0.0
C750 C 0.51873 0.50557 0.03246 0.0
C751 C 0.51323 0.54808 0.01344 0.0
O752 O 0.56164 0.5246 0.99816 0.0
O753 O 0.54116 0.51266 0.97336 0.0
O754 O 0.53787 0.52096 0.02695 0.0
O755 O 0.50533 0.49295 0.01904 0.0
O756 O 0.52562 0.54433 0.00201 0.0
O757 O 0.49501 0.53036 0.01936 0.0
C758 C 0.43983 0.48215 0.02536 0.0
O759 O 0.44604 0.49538 0.01208 0.0
O760 O 0.45414 0.47505 0.0288 0.0
C761 C 0.4826 0.49801 0.97396 0.0
Tb762 Tb 0.19081 0.35362 0.33271 0.0
C763 C 0.18031 0.30742 0.35035 0.0
Tb764 Tb 0.14152 0.31971 0.34135 0.0
O765 O 0.20319 0.36168 0.36135 0.0
O766 O 0.16983 0.35187 0.35306 0.0
O767 O 0.1938 0.32343 0.33986 0.0
C768 C 0.10329 0.2925 0.35617 0.0
O769 O 0.1606 0.30502 0.35432 0.0
C770 C 0.14945 0.31793 0.30741 0.0
C771 C 0.15213 0.36672 0.32504 0.0
O772 O 0.11242 0.28486 0.34474 0.0
O773 O 0.11565 0.31538 0.35919 0.0
O774 O 0.12977 0.31263 0.31254 0.0
O775 O 0.1626 0.32153 0.32114 0.0
O776 O 0.13836 0.34989 0.33483 0.0
O777 O 0.17211 0.3697 0.32119 0.0
C778 C 0.22796 0.37914 0.3161 0.0
O779 O 0.2209 0.38746 0.32886 0.0
O780 O 0.21418 0.35648 0.31279 0.0
C781 C 0.18346 0.35604 0.36666 0.0
Tb782 Tb 0.65191 0.83975 0.33086 0.0
C783 C 0.69946 0.87795 0.34949 0.0
Tb784 Tb 0.68669 0.82422 0.34043 0.0
O785 O 0.64952 0.84765 0.35926 0.0
O786 O 0.65791 0.82201 0.35148 0.0
O787 O 0.68153 0.87431 0.33898 0.0
C788 C 0.71617 0.81384 0.35624 0.0
O789 O 0.70325 0.86055 0.35337 0.0
C790 C 0.68196 0.83021 0.30639 0.0
C791 C 0.63877 0.78577 0.32258 0.0
O792 O 0.72095 0.82961 0.34487 0.0
O793 O 0.69486 0.80396 0.35869 0.0
O794 O 0.68866 0.81608 0.31197 0.0
O795 O 0.68065 0.84192 0.31983 0.0
O796 O 0.65693 0.7896 0.33287 0.0
O797 O 0.63492 0.80308 0.31854 0.0
C798 C 0.62324 0.85066 0.31429 0.0
O799 O 0.61809 0.83551 0.32623 0.0
O800 O 0.64444 0.85961 0.31175 0.0
C801 C 0.65635 0.83362 0.36487 0.0
Tb802 Tb 0.14747 0.83296 0.3385 0.0
C803 C 0.15715 0.79086 0.32782 0.0
Tb804 Tb 0.1966 0.8442 0.33507 0.0
O805 O 0.14503 0.84436 0.3116 0.0
O806 O 0.16674 0.83176 0.31794 0.0
O807 O 0.14286 0.79703 0.33437 0.0
C808 C 0.2367 0.86022 0.32209 0.0
O809 O 0.17815 0.80683 0.32479 0.0
C810 C 0.18226 0.83534 0.36715 0.0
C811 C 0.18681 0.88649 0.34458 0.0
O812 O 0.2295 0.84614 0.33482 0.0
O813 O 0.2214 0.86531 0.3168 0.0
O814 O 0.19839 0.83212 0.36178 0.0
O815 O 0.17742 0.84568 0.35561 0.0
O816 O 0.20125 0.88005 0.33887 0.0
O817 O 0.16565 0.8708 0.34746 0.0
C818 C 0.10809 0.81719 0.35275 0.0
O819 O 0.11442 0.8306 0.33955 0.0
O820 O 0.1238 0.81255 0.35771 0.0
C821 C 0.16158 0.84178 0.30632 0.0
Tb822 Tb 0.85747 0.68472 0.66507 0.0
C823 C 0.84598 0.6351 0.67703 0.0
Tb824 Tb 0.8083 0.65046 0.6732 0.0
O825 O 0.86935 0.68827 0.69339 0.0
O826 O 0.83668 0.68161 0.68592 0.0
O827 O 0.86026 0.65349 0.66869 0.0
C828 C 0.77155 0.62311 0.68968 0.0
O829 O 0.82576 0.63139 0.6809 0.0
C830 C 0.81603 0.65171 0.63923 0.0
C831 C 0.81965 0.69983 0.66094 0.0
O832 O 0.78959 0.64194 0.69713 0.0
O833 O 0.77412 0.61966 0.67287 0.0
O834 O 0.79658 0.64685 0.64472 0.0
O835 O 0.82915 0.65352 0.65248 0.0
O836 O 0.8055 0.68164 0.66952 0.0
O837 O 0.83981 0.70346 0.65694 0.0
C838 C 0.89493 0.71231 0.64952 0.0
O839 O 0.89137 0.71597 0.66599 0.0
O840 O 0.87739 0.69318 0.6418 0.0
C841 C 0.85 0.68341 0.69904 0.0
Tb842 Tb 0.31988 0.1761 0.66462 0.0
C843 C 0.37035 0.21332 0.67701 0.0
Tb844 Tb 0.35225 0.15794 0.67438 0.0
O845 O 0.31894 0.18595 0.69298 0.0
O846 O 0.32489 0.15847 0.68576 0.0
O847 O 0.35225 0.20906 0.66642 0.0
C848 C 0.38093 0.14718 0.6911 0.0
O849 O 0.37291 0.19597 0.68299 0.0
C850 C 0.34544 0.16123 0.6401 0.0
C851 C 0.30185 0.12023 0.66122 0.0
O852 O 0.36529 0.14938 0.69853 0.0
O853 O 0.38043 0.15104 0.67428 0.0
O854 O 0.35005 0.14569 0.64607 0.0
O855 O 0.3469 0.17526 0.65308 0.0
O856 O 0.32093 0.12397 0.67003 0.0
O857 O 0.29829 0.13777 0.65722 0.0
C858 C 0.29183 0.18704 0.64699 0.0
O859 O 0.29579 0.17035 0.6416 0.0
O860 O 0.30353 0.19745 0.6623 0.0
C861 C 0.32492 0.17142 0.69887 0.0
Tb862 Tb 0.81182 0.1619 0.67261 0.0
C863 C 0.82297 0.1209 0.66212 0.0
Tb864 Tb 0.86303 0.17505 0.66906 0.0
O865 O 0.81041 0.17508 0.64618 0.0
O866 O 0.83272 0.16339 0.65249 0.0
O867 O 0.80753 0.12659 0.66661 0.0
C868 C 0.9009 0.18791 0.65333 0.0
O869 O 0.84476 0.13683 0.66122 0.0
C870 C 0.85247 0.17143 0.7028 0.0
C871 C 0.85158 0.21445 0.68181 0.0
O872 O 0.89265 0.1717 0.66451 0.0
O873 O 0.88794 0.19702 0.65118 0.0
O874 O 0.87255 0.17686 0.69834 0.0
O875 O 0.8407 0.16847 0.68846 0.0
O876 O 0.86512 0.20961 0.67254 0.0
O877 O 0.8315 0.19774 0.68604 0.0
C878 C 0.77101 0.14571 0.68435 0.0
O879 O 0.78114 0.16401 0.67526 0.0
O880 O 0.78378 0.13645 0.6867 0.0
C881 C 0.82762 0.17365 0.6411 0.0
H882 H 0.29803 0.85681 0.03842 0.0
H883 H 0.33039 0.90027 0.08861 0.0
H884 H 0.33278 0.87965 0.02405 0.0
H885 H 0.36547 0.92259 0.07456 0.0
H886 H 0.41869 0.97275 0.04079 0.0
H887 H 0.38299 0.95064 0.05397 0.0
H888 H 0.36986 0.88654 0.02262 0.0
H889 H 0.4052 0.90913 0.00883 0.0
C890 C 0.31269 0.87117 0.0464 0.0
C891 C 0.31154 0.87682 0.0646 0.0
C892 C 0.33266 0.8842 0.0382 0.0
C893 C 0.35205 0.90301 0.0481 0.0
C894 C 0.35081 0.90857 0.06637 0.0
C895 C 0.33074 0.89574 0.07448 0.0
C896 C 0.40807 0.95396 0.03666 0.0
C897 C 0.41463 0.94262 0.02379 0.0
C898 C 0.38767 0.9412 0.04432 0.0
C899 C 0.37349 0.9167 0.03949 0.0
C900 C 0.38012 0.90543 0.0265 0.0
C901 C 0.40043 0.9183 0.01865 0.0
H902 H 0.16031 0.48181 0.08246 0.0
H903 H 0.11354 0.40802 0.06445 0.0
H904 H 0.13475 0.49276 0.06764 0.0
H905 H 0.08773 0.41906 0.05002 0.0
H906 H 0.03821 0.44795 0.04386 0.0
H907 H 0.0635 0.43643 0.05877 0.0
H908 H 0.12032 0.4925 0.03595 0.0
H909 H 0.09504 0.50397 0.02106 0.0
C910 C 0.14468 0.46792 0.07524 0.0
C911 C 0.13909 0.44402 0.07458 0.0
C912 C 0.13 0.47422 0.0668 0.0
C913 C 0.10928 0.45677 0.05764 0.0
C914 C 0.10349 0.43286 0.05715 0.0
C915 C 0.11827 0.42656 0.06546 0.0
C916 C 0.0561 0.45776 0.04204 0.0
C917 C 0.06472 0.47682 0.03133 0.0
C918 C 0.07053 0.45111 0.05049 0.0
C919 C 0.09387 0.46358 0.04853 0.0
C920 C 0.10245 0.48272 0.03784 0.0
C921 C 0.08798 0.48921 0.02926 0.0
H922 H 0.52131 0.67738 0.06087 0.0
H923 H 0.59001 0.69827 0.05047 0.0
H924 H 0.50845 0.63756 0.04707 0.0
H925 H 0.57734 0.65806 0.03762 0.0
H926 H 0.54452 0.58928 1.00067 0.0
H927 H 0.55634 0.62983 0.01225 0.0
H928 H 0.51007 0.60309 0.05348 0.0
H929 H 0.4978 0.56266 0.04159 0.0
C930 C 0.53368 0.67354 0.05557 0.0
C931 C 0.55672 0.69109 0.05682 0.0
C932 C 0.52634 0.65057 0.04787 0.0
C933 C 0.54186 0.6445 0.04131 0.0
C934 C 0.56486 0.66213 0.04236 0.0
C935 C 0.57219 0.68514 0.04997 0.0
C936 C 0.5368 0.59207 0.01216 0.0
C937 C 0.52015 0.57273 0.02015 0.0
C938 C 0.54367 0.61533 0.01887 0.0
C939 C 0.53417 0.61978 0.03381 0.0
C940 C 0.51747 0.60037 0.04175 0.0
C941 C 0.5105 0.57715 0.03498 0.0
H942 H 0.86267 0.33226 0.93121 0.0
H943 H 0.89382 0.30281 0.9648 0.0
H944 H 0.8901 0.37196 0.94477 0.0
H945 H 0.9209 0.34255 0.97903 0.0
H946 H 0.97974 0.41974 0.98745 0.0
H947 H 0.95281 0.37936 0.97452 0.0
H948 H 0.89974 0.39703 0.97137 0.0
H949 H 0.92683 0.43748 0.98347 0.0
C950 C 0.87527 0.33432 0.94169 0.0
C951 C 0.87608 0.3145 0.94703 0.0
C952 C 0.89096 0.35707 0.94956 0.0
C953 C 0.90766 0.36055 0.96317 0.0
C954 C 0.90849 0.34063 0.96845 0.0
C955 C 0.89294 0.31785 0.96037 0.0
C956 C 0.96228 0.41491 0.98405 0.0
C957 C 0.95545 0.43183 0.98633 0.0
C958 C 0.94679 0.39172 0.97671 0.0
C959 C 0.92407 0.38489 0.97171 0.0
C960 C 0.91718 0.40173 0.97459 0.0
C961 C 0.93271 0.42493 0.98166 0.0
H962 H 0.69471 0.59075 0.94123 0.0
H963 H 0.66025 0.52044 0.913 0.0
H964 H 0.6606 0.58146 0.95602 0.0
H965 H 0.62619 0.51106 0.92795 0.0
H966 H 0.56305 0.51329 0.94487 0.0
H967 H 0.59659 0.52338 0.92888 0.0
H968 H 0.63905 0.55414 0.97906 0.0
H969 H 0.60557 0.54403 0.995 0.0
C970 C 0.67978 0.57338 0.93809 0.0
C971 C 0.68012 0.5563 0.92598 0.0
C972 C 0.66034 0.568 0.94666 0.0
C973 C 0.64078 0.54552 0.94317 0.0
C974 C 0.64098 0.52858 0.93081 0.0
C975 C 0.6605 0.53388 0.92237 0.0
C976 C 0.57958 0.52219 0.95244 0.0
C977 C 0.5818 0.52786 0.97115 0.0
C978 C 0.59872 0.52789 0.94332 0.0
C979 C 0.62042 0.53957 0.95273 0.0
C980 C 0.62257 0.54537 0.97144 0.0
C981 C 0.60343 0.53947 0.98057 0.0
H982 H 0.42551 0.09174 0.92888 0.0
H983 H 0.46369 0.14887 0.97102 0.0
H984 H 0.43537 0.06627 0.94505 0.0
H985 H 0.47401 0.12352 0.98685 0.0
H986 H 0.51149 0.08047 0.99277 0.0
H987 H 0.49835 0.10561 0.98029 0.0
H988 H 0.42968 0.04664 0.97422 0.0
H989 H 0.44279 0.02135 0.98676 0.0
C990 C 0.43576 0.09881 0.94167 0.0
C991 C 0.44393 0.12246 0.94854 0.0
C992 C 0.44141 0.08419 0.95093 0.0
C993 C 0.45551 0.09294 0.96718 0.0
C994 C 0.46333 0.1164 0.97424 0.0
C995 C 0.45752 0.13094 0.96509 0.0
C996 C 0.49354 0.07291 0.98899 0.0
C997 C 0.4782 0.04888 0.99069 0.0
C998 C 0.48601 0.08736 0.98191 0.0
C999 C 0.46301 0.07805 0.97619 0.0
C1000 C 0.44754 0.05421 0.97837 0.0
C1001 C 0.45504 0.0398 0.98567 0.0
H1002 H 0.67084 0.10625 0.91634 0.0
H1003 H 0.70394 0.14792 0.96719 0.0
H1004 H 0.63592 0.08399 0.93041 0.0
H1005 H 0.66952 0.1245 0.98153 0.0
H1006 H 0.59769 0.09409 0.99812 0.0
H1007 H 0.63252 0.11754 0.98391 0.0
H1008 H 0.61891 0.05476 0.95039 0.0
H1009 H 0.58371 0.03177 0.96406 0.0
C1010 C 0.67073 0.11069 0.93052 0.0
C1011 C 0.69032 0.12894 0.94058 0.0
C1012 C 0.65073 0.09764 0.93868 0.0
C1013 C 0.64984 0.10229 0.95718 0.0
C1014 C 0.66943 0.12054 0.96723 0.0
C1015 C 0.68934 0.13376 0.95903 0.0
C1016 C 0.60225 0.08539 0.98773 0.0
C1017 C 0.58808 0.06118 0.98217 0.0
C1018 C 0.62226 0.09876 0.97964 0.0
C1019 C 0.62861 0.08811 0.96593 0.0
C1020 C 0.61443 0.06372 0.96062 0.0
C1021 C 0.59434 0.05047 0.96856 0.0
H1022 H 0.8472 0.55369 0.96109 0.0
H1023 H 0.88686 0.57027 0.91534 0.0
H1024 H 0.87402 0.54548 0.9772 0.0
H1025 H 0.91284 0.56063 0.93099 0.0
H1026 H 0.96718 0.56212 0.96916 0.0
H1027 H 0.94177 0.5739 0.95508 0.0
H1028 H 0.88514 0.51633 0.97705 0.0
H1029 H 0.91078 0.50523 0.99163 0.0
C1030 C 0.86167 0.55567 0.95447 0.0
C1031 C 0.8648 0.56261 0.93688 0.0
C1032 C 0.8769 0.55064 0.96363 0.0
C1033 C 0.89559 0.55227 0.9554 0.0
C1034 C 0.89883 0.55944 0.93787 0.0
C1035 C 0.8837 0.56463 0.92876 0.0
C1036 C 0.94932 0.55215 0.97107 0.0
C1037 C 0.9409 0.5328 0.98146 0.0
C1038 C 0.93471 0.55877 0.9629 0.0
C1039 C 0.91134 0.54601 0.96483 0.0
C1040 C 0.90305 0.52679 0.97547 0.0
C1041 C 0.9177 0.52032 0.98375 0.0
H1042 H 0.42685 0.32059 0.9291 0.0
H1043 H 0.47204 0.31465 0.96827 0.0
H1044 H 0.43799 0.35991 0.94356 0.0
H1045 H 0.48337 0.35418 0.98267 0.0
H1046 H 0.51603 0.43759 0.98468 0.0
H1047 H 0.50452 0.3972 0.97244 0.0
H1048 H 0.43432 0.37695 0.97468 0.0
H1049 H 0.44569 0.41712 0.98707 0.0
C1050 C 0.43917 0.32775 0.94081 0.0
C1051 C 0.44862 0.31467 0.94759 0.0
C1052 C 0.44542 0.35013 0.94912 0.0
C1053 C 0.46152 0.36001 0.96421 0.0
C1054 C 0.471 0.34696 0.97101 0.0
C1055 C 0.46443 0.32436 0.96286 0.0
C1056 C 0.49815 0.42448 0.98269 0.0
C1057 C 0.48177 0.43054 0.98685 0.0
C1058 C 0.4916 0.40137 0.97577 0.0
C1059 C 0.46855 0.38405 0.9726 0.0
C1060 C 0.4522 0.39004 0.97692 0.0
C1061 C 0.45874 0.413 0.9841 0.0
H1062 H 0.10952 0.70392 0.04475 0.0
H1063 H 0.14098 0.67381 0.07742 0.0
H1064 H 0.08392 0.66481 0.02903 0.0
H1065 H 0.11467 0.63464 0.06241 0.0
H1066 H 0.07963 0.57109 0.02136 0.0
H1067 H 0.10627 0.61142 0.03416 0.0
H1068 H 0.05197 0.62717 0.0339 0.0
H1069 H 0.0254 0.58699 0.0206 0.0
C1070 C 0.111 0.68898 0.04858 0.0
C1071 C 0.12732 0.69204 0.06238 0.0
C1072 C 0.09615 0.6665 0.0397 0.0
C1073 C 0.09723 0.64654 0.04442 0.0
C1074 C 0.11355 0.64964 0.05823 0.0
C1075 C 0.12843 0.67209 0.06704 0.0
C1076 C 0.07337 0.58318 0.02389 0.0
C1077 C 0.05032 0.57571 0.02004 0.0
C1078 C 0.08864 0.60629 0.03135 0.0
C1079 C 0.08124 0.6225 0.03527 0.0
C1080 C 0.05831 0.61524 0.03092 0.0
C1081 C 0.04304 0.59214 0.02335 0.0
H1082 H 0.31096 0.40849 0.07045 0.0
H1083 H 0.33564 0.48235 0.08706 0.0
H1084 H 0.34547 0.41952 0.05559 0.0
H1085 H 0.37009 0.4934 0.0721 0.0
H1086 H 0.4123 0.50103 0.02288 0.0
H1087 H 0.37869 0.49062 0.03888 0.0
H1088 H 0.38838 0.43895 0.06543 0.0
H1089 H 0.42215 0.44959 0.04964 0.0
C1090 C 0.32379 0.42706 0.07091 0.0
C1091 C 0.3207 0.44458 0.07989 0.0
C1092 C 0.34354 0.43335 0.06252 0.0
C1093 C 0.36038 0.4573 0.0627 0.0
C1094 C 0.35729 0.47482 0.07169 0.0
C1095 C 0.3377 0.4685 0.08033 0.0
C1096 C 0.40724 0.4875 0.03217 0.0
C1097 C 0.4197 0.47604 0.03502 0.0
C1098 C 0.38812 0.48164 0.04136 0.0
C1099 C 0.38098 0.46397 0.05334 0.0
C1100 C 0.39346 0.4525 0.05616 0.0
C1101 C 0.41277 0.45863 0.04718 0.0
H1102 H 0.59282 0.89978 0.0404 0.0
H1103 H 0.53604 0.87429 0.07266 0.0
H1104 H 0.57891 0.9223 0.02452 0.0
H1105 H 0.52286 0.89769 0.05753 0.0
H1106 H 0.4919 0.92349 0.01686 0.0
H1107 H 0.50583 0.89902 0.02922 0.0
H1108 H 0.57468 0.9566 0.02911 0.0
H1109 H 0.56076 0.98088 0.01623 0.0
C1110 C 0.57739 0.89898 0.04412 0.0
C1111 C 0.56559 0.88523 0.05785 0.0
C1112 C 0.56954 0.91209 0.03514 0.0
C1113 C 0.54971 0.91177 0.03968 0.0
C1114 C 0.53799 0.89808 0.05345 0.0
C1115 C 0.54577 0.88493 0.06236 0.0
C1116 C 0.51003 0.93087 0.01928 0.0
C1117 C 0.52519 0.95423 0.01568 0.0
C1118 C 0.51802 0.91688 0.0265 0.0
C1119 C 0.54138 0.92594 0.03043 0.0
C1120 C 0.55659 0.94898 0.02615 0.0
C1121 C 0.54859 0.96294 0.01881 0.0
H1122 H 0.99399 0.18587 0.4106 0.0
H1123 H 0.96955 0.23191 0.39362 0.0
H1124 H 0.0292 0.20984 0.39713 0.0
H1125 H 0.00504 0.25617 0.38058 0.0
H1126 H 0.08146 0.3075 0.37799 0.0
H1127 H 0.04615 0.28316 0.39138 0.0
H1128 H 0.04219 0.21982 0.36624 0.0
H1129 H 0.07756 0.24423 0.35283 0.0
C1130 C 0.99601 0.20097 0.40389 0.0
C1131 C 0.97885 0.2069 0.40319 0.0
C1132 C 0.01623 0.21474 0.39622 0.0
C1133 C 0.01986 0.23488 0.38783 0.0
C1134 C 0.00282 0.24091 0.38718 0.0
C1135 C 0.98251 0.22703 0.3947 0.0
C1136 C 0.07302 0.28838 0.37533 0.0
C1137 C 0.08214 0.2777 0.36436 0.0
C1138 C 0.05278 0.27447 0.38292 0.0
C1139 C 0.0414 0.2496 0.37981 0.0
C1140 C 0.05069 0.23893 0.36897 0.0
C1141 C 0.07084 0.25288 0.36124 0.0
H1142 H 0.78388 0.74063 0.39529 0.0
H1143 H 0.83024 0.81441 0.41361 0.0
H1144 H 0.75756 0.75137 0.38149 0.0
H1145 H 0.80411 0.8251 0.39939 0.0
H1146 H 0.76174 0.83561 0.35418 0.0
H1147 H 0.78827 0.82508 0.36818 0.0
H1148 H 0.73319 0.76778 0.3916 0.0
H1149 H 0.70672 0.77833 0.37761 0.0
C1150 C 0.78842 0.75911 0.39649 0.0
C1151 C 0.80921 0.77664 0.40559 0.0
C1152 C 0.77335 0.76525 0.38853 0.0
C1153 C 0.7788 0.78907 0.38936 0.0
C1154 C 0.7996 0.80663 0.39834 0.0
C1155 C 0.81459 0.80048 0.40643 0.0
C1156 C 0.75536 0.8208 0.36234 0.0
C1157 C 0.73224 0.80774 0.36482 0.0
C1158 C 0.77053 0.81484 0.37041 0.0
C1159 C 0.76278 0.79557 0.38094 0.0
C1160 C 0.7396 0.78254 0.38339 0.0
C1161 C 0.72449 0.78864 0.37547 0.0
H1162 H 0.2103 0.03047 0.3645 0.0
H1163 H 0.25221 0.02294 0.40601 0.0
H1164 H 0.19872 0.99087 0.35065 0.0
H1165 H 0.24121 0.98377 0.39169 0.0
H1166 H 0.23083 0.92253 0.35128 0.0
H1167 H 0.24443 0.96384 0.36223 0.0
H1168 H 0.17545 0.94919 0.36071 0.0
H1169 H 0.16178 0.9079 0.3499 0.0
C1170 C 0.21709 0.02045 0.37069 0.0
C1171 C 0.2321 0.02994 0.38649 0.0
C1172 C 0.21052 0.99782 0.36267 0.0
C1173 C 0.21905 0.98427 0.37011 0.0
C1174 C 0.23458 0.99396 0.38555 0.0
C1175 C 0.24093 0.01647 0.39371 0.0
C1176 C 0.21857 0.92816 0.3531 0.0
C1177 C 0.19521 0.91191 0.34979 0.0
C1178 C 0.22637 0.95177 0.35946 0.0
C1179 C 0.21099 0.95967 0.36234 0.0
C1180 C 0.18769 0.94362 0.35848 0.0
C1181 C 0.17988 0.91995 0.35238 0.0
H1182 H 0.56692 0.64879 0.25972 0.0
H1183 H 0.51927 0.64657 0.29652 0.0
H1184 H 0.59522 0.68796 0.27391 0.0
H1185 H 0.54737 0.6862 0.31004 0.0
H1186 H 0.59453 0.76826 0.31031 0.0
H1187 H 0.56693 0.72779 0.29793 0.0
H1188 H 0.61757 0.70732 0.30551 0.0
H1189 H 0.64524 0.74778 0.31814 0.0
C1190 C 0.56249 0.65644 0.27094 0.0
C1191 C 0.54067 0.64441 0.27689 0.0
C1192 C 0.57871 0.67895 0.27899 0.0
C1193 C 0.5734 0.69009 0.29298 0.0
C1194 C 0.55178 0.67808 0.29911 0.0
C1195 C 0.53566 0.65543 0.29127 0.0
C1196 C 0.5998 0.75514 0.30937 0.0
C1197 C 0.62206 0.7612 0.31522 0.0
C1198 C 0.58395 0.73197 0.30238 0.0
C1199 C 0.59014 0.71448 0.30081 0.0
C1200 C 0.61242 0.72052 0.30653 0.0
C1201 C 0.62818 0.74363 0.31383 0.0
H1202 H 0.37336 0.89855 0.2976 0.0
H1203 H 0.34245 0.90813 0.24935 0.0
H1204 H 0.33916 0.88779 0.31256 0.0
H1205 H 0.30782 0.89639 0.26391 0.0
H1206 H 0.25561 0.89453 0.29935 0.0
H1207 H 0.29118 0.90802 0.28589 0.0
H1208 H 0.30161 0.85706 0.3131 0.0
H1209 H 0.26654 0.84454 0.32722 0.0
C1210 C 0.35913 0.89819 0.29019 0.0
C1211 C 0.3605 0.90418 0.27236 0.0
C1212 C 0.33947 0.89189 0.2987 0.0
C1213 C 0.32059 0.8911 0.28946 0.0
C1214 C 0.3221 0.89722 0.27159 0.0
C1215 C 0.3419 0.90386 0.26319 0.0
C1216 C 0.26564 0.88637 0.30251 0.0
C1217 C 0.25843 0.86855 0.31432 0.0
C1218 C 0.28595 0.89395 0.2947 0.0
C1219 C 0.29933 0.8836 0.2983 0.0
C1220 C 0.29202 0.86576 0.31022 0.0
C1221 C 0.27185 0.85844 0.31824 0.0
H1222 H 0.08139 0.44258 0.29811 0.0
H1223 H 0.13593 0.46746 0.26374 0.0
H1224 H 0.09421 0.4176 0.31146 0.0
H1225 H 0.1482 0.44167 0.27629 0.0
H1226 H 0.17836 0.41067 0.31388 0.0
H1227 H 0.16593 0.43647 0.30168 0.0
H1228 H 0.09625 0.38324 0.30629 0.0
H1229 H 0.10888 0.3581 0.31936 0.0
C1230 C 0.09599 0.44244 0.2933 0.0
C1231 C 0.10774 0.45695 0.27998 0.0
C1232 C 0.1033 0.42805 0.30085 0.0
C1233 C 0.1223 0.42752 0.295 0.0
C1234 C 0.13384 0.44192 0.28147 0.0
C1235 C 0.12675 0.45661 0.27416 0.0
C1236 C 0.1604 0.40456 0.31234 0.0
C1237 C 0.14462 0.38243 0.31767 0.0
C1238 C 0.15322 0.41928 0.30521 0.0
C1239 C 0.13002 0.41202 0.30292 0.0
C1240 C 0.11426 0.38973 0.30817 0.0
C1241 C 0.12149 0.37521 0.31559 0.0
H1242 H 0.35855 0.43556 0.2737 0.0
H1243 H 0.3352 0.48283 0.25785 0.0
H1244 H 0.32334 0.41195 0.2875 0.0
H1245 H 0.29995 0.45919 0.27165 0.0
H1246 H 0.2551 0.4272 0.31897 0.0
H1247 H 0.28934 0.45036 0.30383 0.0
H1248 H 0.28113 0.38567 0.27732 0.0
H1249 H 0.24679 0.36255 0.29232 0.0
C1250 C 0.34587 0.44087 0.27317 0.0
C1251 C 0.34959 0.46102 0.26473 0.0
C1252 C 0.32568 0.42729 0.28094 0.0
C1253 C 0.30895 0.43378 0.28065 0.0
C1254 C 0.31264 0.45389 0.27217 0.0
C1255 C 0.3327 0.46729 0.26417 0.0
C1256 C 0.26061 0.41798 0.30987 0.0
C1257 C 0.24841 0.39313 0.30684 0.0
C1258 C 0.2801 0.43121 0.30115 0.0
C1259 C 0.28788 0.41979 0.28944 0.0
C1260 C 0.27561 0.39491 0.2864 0.0
C1261 C 0.25596 0.38171 0.29493 0.0
H1262 H 0.55372 0.89791 0.24113 0.0
H1263 H 0.5197 0.88701 0.28982 0.0
H1264 H 0.57771 0.88401 0.25445 0.0
H1265 H 0.54455 0.87446 0.30351 0.0
H1266 H 0.57799 0.83147 0.31707 0.0
H1267 H 0.55249 0.84277 0.30238 0.0
H1268 H 0.60846 0.89648 0.27702 0.0
H1269 H 0.63363 0.88454 0.29122 0.0
C1270 C 0.55132 0.89253 0.25466 0.0
C1271 C 0.53478 0.89363 0.26439 0.0
C1272 C 0.56529 0.88484 0.2624 0.0
C1273 C 0.56314 0.87818 0.2801 0.0
C1274 C 0.54652 0.87918 0.28978 0.0
C1275 C 0.53248 0.88673 0.28201 0.0
C1276 C 0.58474 0.84561 0.30829 0.0
C1277 C 0.60772 0.85718 0.30528 0.0
C1278 C 0.5702 0.85221 0.29996 0.0
C1279 C 0.57841 0.87061 0.28854 0.0
C1280 C 0.60146 0.88202 0.2855 0.0
C1281 C 0.61593 0.87531 0.29373 0.0
H1282 H 0.10547 0.66339 0.2564 0.0
H1283 H 0.10981 0.63942 0.30853 0.0
H1284 H 0.11902 0.70314 0.2708 0.0
H1285 H 0.12218 0.67907 0.32287 0.0
H1286 H 0.12054 0.7509 0.33779 0.0
H1287 H 0.10556 0.70971 0.32509 0.0
H1288 H 0.15892 0.7335 0.28959 0.0
H1289 H 0.17413 0.7743 0.30235 0.0
C1290 C 0.1093 0.66649 0.27089 0.0
C1291 C 0.10678 0.6481 0.28122 0.0
C1292 C 0.11687 0.68925 0.27912 0.0
C1293 C 0.12166 0.69408 0.2979 0.0
C1294 C 0.11842 0.67567 0.30837 0.0
C1295 C 0.11123 0.65295 0.30011 0.0
C1296 C 0.12913 0.74726 0.32737 0.0
C1297 C 0.14853 0.76582 0.3211 0.0
C1298 C 0.12061 0.72376 0.32017 0.0
C1299 C 0.13106 0.71859 0.30632 0.0
C1300 C 0.15049 0.7371 0.30017 0.0
C1301 C 0.15925 0.76042 0.30759 0.0
H1302 H 0.7789 0.03068 0.37983 0.0
H1303 H 0.80357 0.99983 0.41826 0.0
H1304 H 0.75305 0.99139 0.36476 0.0
H1305 H 0.77656 0.9605 0.40404 0.0
H1306 H 0.74269 0.89494 0.36437 0.0
H1307 H 0.76935 0.93475 0.37815 0.0
H1308 H 0.71933 0.95563 0.36759 0.0
H1309 H 0.69302 0.91602 0.35309 0.0
C1310 C 0.77883 0.01555 0.38511 0.0
C1311 C 0.79344 0.01855 0.40028 0.0
C1312 C 0.76371 0.99292 0.3766 0.0
C1313 C 0.76263 0.97265 0.38314 0.0
C1314 C 0.77711 0.97565 0.39841 0.0
C1315 C 0.79239 0.99828 0.40678 0.0
C1316 C 0.7374 0.90805 0.36494 0.0
C1317 C 0.71573 0.90231 0.35762 0.0
C1318 C 0.75265 0.93088 0.37297 0.0
C1319 C 0.74652 0.94849 0.37412 0.0
C1320 C 0.72482 0.94271 0.36672 0.0
C1321 C 0.70966 0.91993 0.35847 0.0
H1322 H 0.003 0.81342 0.41459 0.0
H1323 H 0.9796 0.73959 0.39903 0.0
H1324 H 0.03663 0.82486 0.39837 0.0
H1325 H 0.01334 0.75102 0.38296 0.0
H1326 H 0.09087 0.78408 0.37661 0.0
H1327 H 0.05673 0.77203 0.39216 0.0
H1328 H 0.04411 0.82122 0.36466 0.0
H1329 H 0.07813 0.83302 0.34885 0.0
C1330 C 0.00517 0.79967 0.40781 0.0
C1331 C 0.98878 0.77563 0.40807 0.0
C1332 C 0.02427 0.80621 0.39843 0.0
C1333 C 0.0275 0.78881 0.3894 0.0
C1334 C 0.01126 0.76476 0.38987 0.0
C1335 C 0.99198 0.75824 0.39899 0.0
C1336 C 0.0807 0.79217 0.3738 0.0
C1337 C 0.08703 0.80941 0.36151 0.0
C1338 C 0.06117 0.78525 0.38265 0.0
C1339 C 0.04785 0.79573 0.37962 0.0
C1340 C 0.0542 0.81299 0.36731 0.0
C1341 C 0.07354 0.81963 0.35821 0.0
H1342 H 0.2557 0.24163 0.3906 0.0
H1343 H 0.18711 0.19546 0.40289 0.0
H1344 H 0.24422 0.26774 0.37741 0.0
H1345 H 0.17534 0.22102 0.38919 0.0
H1346 H 0.16564 0.28343 0.37999 0.0
H1347 H 0.1779 0.2583 0.3936 0.0
H1348 H 0.22358 0.27082 0.35232 0.0
H1349 H 0.21189 0.29676 0.33913 0.0
C1350 C 0.23811 0.23698 0.39031 0.0
C1351 C 0.22231 0.21657 0.39781 0.0
C1352 C 0.23148 0.25187 0.38268 0.0
C1353 C 0.20882 0.24655 0.3822 0.0
C1354 C 0.19301 0.22599 0.38962 0.0
C1355 C 0.19971 0.21126 0.39743 0.0
C1356 C 0.17825 0.28076 0.37378 0.0
C1357 C 0.18772 0.29199 0.35842 0.0
C1358 C 0.18524 0.26624 0.38155 0.0
C1359 C 0.20167 0.26236 0.37404 0.0
C1360 C 0.21114 0.27365 0.35865 0.0
C1361 C 0.20435 0.28842 0.35101 0.0
H1362 H 0.66448 0.56726 0.76175 0.0
H1363 H 0.64733 0.50797 0.72266 0.0
H1364 H 0.69775 0.59208 0.74651 0.0
H1365 H 0.68142 0.53226 0.70828 0.0
H1366 H 0.73043 0.58785 0.67452 0.0
H1367 H 0.69688 0.56344 0.68977 0.0
H1368 H 0.73429 0.59953 0.74117 0.0
H1369 H 0.76743 0.62461 0.7257 0.0
C1370 C 0.66781 0.55945 0.74995 0.0
C1371 C 0.65309 0.53555 0.74346 0.0
C1372 C 0.68713 0.57364 0.74134 0.0
C1373 C 0.69237 0.56424 0.72611 0.0
C1374 C 0.6778 0.54026 0.71978 0.0
C1375 C 0.65838 0.52617 0.72826 0.0
C1376 C 0.73139 0.59052 0.68907 0.0
C1377 C 0.75142 0.60808 0.69894 0.0
C1378 C 0.71223 0.57643 0.69786 0.0
C1379 C 0.7128 0.57939 0.71676 0.0
C1380 C 0.73303 0.59696 0.7266 0.0
C1381 C 0.75209 0.61125 0.71777 0.0
H1382 H 0.49508 0.1296 0.72298 0.0
H1383 H 0.44659 0.09266 0.76098 0.0
H1384 H 0.4697 0.14135 0.70924 0.0
H1385 H 0.4205 0.10306 0.74642 0.0
H1386 H 0.38743 0.14463 0.72705 0.0
H1387 H 0.41392 0.13492 0.74214 0.0
H1388 H 0.43554 0.12522 0.69049 0.0
H1389 H 0.4098 0.13593 0.67566 0.0
C1390 C 0.47903 0.12402 0.72846 0.0
C1391 C 0.47295 0.11018 0.74313 0.0
C1392 C 0.46428 0.13046 0.72038 0.0
C1393 C 0.44292 0.12304 0.72661 0.0
C1394 C 0.43688 0.10932 0.74135 0.0
C1395 C 0.45174 0.10305 0.74955 0.0
C1396 C 0.39794 0.14048 0.719 0.0
C1397 C 0.39668 0.14108 0.70023 0.0
C1398 C 0.41301 0.13476 0.7276 0.0
C1399 C 0.42695 0.1293 0.71756 0.0
C1400 C 0.42545 0.12978 0.69872 0.0
C1401 C 0.41058 0.13574 0.69018 0.0
H1402 H 0.89087 0.36369 0.6972 0.0
H1403 H 0.90225 0.34573 0.75 0.0
H1404 H 0.87905 0.32332 0.68444 0.0
H1405 H 0.89027 0.30541 0.73729 0.0
H1406 H 0.83778 0.23002 0.71042 0.0
H1407 H 0.85149 0.27093 0.72233 0.0
H1408 H 0.89727 0.29607 0.68076 0.0
H1409 H 0.88377 0.25498 0.66888 0.0
C1410 C 0.89088 0.35111 0.70603 0.0
C1411 C 0.89746 0.35776 0.72456 0.0
C1412 C 0.88427 0.32813 0.69873 0.0
C1413 C 0.88371 0.31131 0.70991 0.0
C1414 C 0.89044 0.31803 0.72841 0.0
C1415 C 0.89742 0.34109 0.73565 0.0
C1416 C 0.85072 0.24424 0.70376 0.0
C1417 C 0.85969 0.2393 0.68869 0.0
C1418 C 0.85865 0.26763 0.71066 0.0
C1419 C 0.87544 0.28658 0.70247 0.0
C1420 C 0.88424 0.28173 0.68726 0.0
C1421 C 0.87659 0.25827 0.68053 0.0
H1422 H 0.18096 0.9817 0.62937 0.0
H1423 H 0.23279 0.98702 0.59599 0.0
H1424 H 0.20776 0.02056 0.64501 0.0
H1425 H 0.25964 0.02532 0.61221 0.0
H1426 H 0.30658 0.08112 0.65803 0.0
H1427 H 0.27872 0.04133 0.64456 0.0
H1428 H 0.22956 0.06367 0.63616 0.0
H1429 H 0.25744 0.10362 0.64951 0.0
C1430 C 0.19798 0.99111 0.62528 0.0
C1431 C 0.20462 0.9811 0.61135 0.0
C1432 C 0.21333 0.01331 0.63434 0.0
C1433 C 0.23576 0.02584 0.62987 0.0
C1434 C 0.24252 0.01585 0.6161 0.0
C1435 C 0.22711 0.99384 0.60686 0.0
C1436 C 0.28975 0.07752 0.65354 0.0
C1437 C 0.28424 0.09556 0.65482 0.0
C1438 C 0.27388 0.05477 0.64572 0.0
C1439 C 0.25206 0.0495 0.63925 0.0
C1440 C 0.24624 0.06725 0.64112 0.0
C1441 C 0.26223 0.09012 0.64871 0.0
H1442 H 0.00095 0.23102 0.57519 0.0
H1443 H 0.03034 0.21316 0.6199 0.0
H1444 H 0.96778 0.22136 0.59137 0.0
H1445 H 0.99765 0.20425 0.63638 0.0
H1446 H 0.92603 0.16623 0.65329 0.0
H1447 H 0.95896 0.1759 0.63686 0.0
H1448 H 0.95489 0.23421 0.61605 0.0
H1449 H 0.92137 0.22378 0.63193 0.0
C1450 C 0.00038 0.22527 0.58857 0.0
C1451 C 0.01813 0.22272 0.59626 0.0
C1452 C 0.98143 0.21981 0.5979 0.0
C1453 C 0.97995 0.21195 0.61521 0.0
C1454 C 0.99793 0.20975 0.62295 0.0
C1455 C 0.01673 0.21494 0.61354 0.0
C1456 C 0.93225 0.18112 0.64521 0.0
C1457 C 0.92125 0.1943 0.64388 0.0
C1458 C 0.9512 0.18678 0.63587 0.0
C1459 C 0.9597 0.20591 0.62513 0.0
C1460 C 0.94866 0.21915 0.62394 0.0
C1461 C 0.92957 0.21332 0.63315 0.0
H1462 H 0.80001 0.81702 0.6342 0.0
H1463 H 0.75501 0.75749 0.59562 0.0
H1464 H 0.81187 0.79211 0.64892 0.0
H1465 H 0.76623 0.73248 0.61096 0.0
H1466 H 0.77634 0.69125 0.6555 0.0
H1467 H 0.76377 0.71675 0.64258 0.0
H1468 H 0.83333 0.77041 0.63892 0.0
H1469 H 0.846 0.74487 0.65164 0.0
C1470 C 0.79266 0.79869 0.62879 0.0
C1471 C 0.77663 0.78938 0.61359 0.0
C1472 C 0.79939 0.78442 0.63732 0.0
C1473 C 0.78995 0.76042 0.63107 0.0
C1474 C 0.77358 0.7509 0.61617 0.0
C1475 C 0.7671 0.76524 0.60744 0.0
C1476 C 0.78898 0.7086 0.65215 0.0
C1477 C 0.81217 0.71608 0.65462 0.0
C1478 C 0.78175 0.72308 0.64463 0.0
C1479 C 0.79759 0.74548 0.63974 0.0
C1480 C 0.82079 0.75326 0.64268 0.0
C1481 C 0.82801 0.73862 0.64991 0.0
H1482 H 0.03409 0.78353 0.62457 0.0
H1483 H 0.99991 0.79994 0.58225 0.0
H1484 H 0.99834 0.76104 0.6377 0.0
H1485 H 0.96406 0.77665 0.59512 0.0
H1486 H 0.90212 0.70981 0.61413 0.0
H1487 H 0.9376 0.7331 0.6005 0.0
H1488 H 0.97059 0.77055 0.65257 0.0
H1489 H 0.93511 0.74744 0.66615 0.0
C1490 C 0.01904 0.78249 0.6181 0.0
C1491 C 0.01999 0.79368 0.60235 0.0
C1492 C 0.99855 0.76951 0.62561 0.0
C1493 C 0.97848 0.76716 0.61743 0.0
C1494 C 0.97927 0.778 0.60158 0.0
C1495 C 0.99981 0.79125 0.59419 0.0
C1496 C 0.91696 0.72311 0.62261 0.0
C1497 C 0.91598 0.72687 0.64117 0.0
C1498 C 0.93719 0.73646 0.61481 0.0
C1499 C 0.95683 0.75352 0.62551 0.0
C1500 C 0.95575 0.75733 0.64407 0.0
C1501 C 0.93546 0.74423 0.6518 0.0
H1502 H 0.1957 0.19714 0.57181 0.0
H1503 H 0.20713 0.24609 0.61809 0.0
H1504 H 0.22323 0.18858 0.58571 0.0
H1505 H 0.23248 0.23534 0.63287 0.0
H1506 H 0.29272 0.22901 0.65041 0.0
H1507 H 0.26757 0.23963 0.63459 0.0
H1508 H 0.23003 0.1687 0.60706 0.0
H1509 H 0.25654 0.15902 0.62192 0.0
C1510 C 0.20399 0.2061 0.58496 0.0
C1511 C 0.19902 0.22241 0.5937 0.0
C1512 C 0.21954 0.20077 0.59315 0.0
C1513 C 0.2302 0.21111 0.61055 0.0
C1514 C 0.22508 0.22726 0.61935 0.0
C1515 C 0.21001 0.23307 0.61096 0.0
C1516 C 0.27913 0.21582 0.64087 0.0
C1517 C 0.27648 0.19323 0.63736 0.0
C1518 C 0.26451 0.22178 0.63189 0.0
C1519 C 0.24643 0.20502 0.61956 0.0
C1520 C 0.24389 0.18232 0.61613 0.0
C1521 C 0.25896 0.17663 0.62476 0.0
H1522 H 0.81033 0.99898 0.60038 0.0
H1523 H 0.75115 0.96781 0.62998 0.0
H1524 H 0.82197 0.0378 0.61548 0.0
H1525 H 0.76349 0.00656 0.64587 0.0
H1526 H 0.7794 0.08429 0.65375 0.0
H1527 H 0.76715 0.04423 0.64071 0.0
H1528 H 0.83678 0.06054 0.64406 0.0
H1529 H 0.84907 0.10074 0.65657 0.0
C1530 C 0.79979 0.00039 0.61012 0.0
C1531 C 0.77973 0.98025 0.61388 0.0
C1532 C 0.80665 0.02264 0.619 0.0
C1533 C 0.79374 0.02533 0.63199 0.0
C1534 C 0.77374 0.00518 0.63584 0.0
C1535 C 0.7668 0.9829 0.62688 0.0
C1536 C 0.79209 0.07927 0.65187 0.0
C1537 C 0.81524 0.09583 0.65605 0.0
C1538 C 0.78505 0.05624 0.64444 0.0
C1539 C 0.80099 0.0492 0.64114 0.0
C1540 C 0.82407 0.06551 0.64602 0.0
C1541 C 0.83111 0.08855 0.65331 0.0
H1542 H 0.43754 0.34813 0.73958 0.0
H1543 H 0.49128 0.35185 0.70964 0.0
H1544 H 0.41084 0.30984 0.72288 0.0
H1545 H 0.46458 0.31333 0.69303 0.0
H1546 H 0.4141 0.2301 0.69063 0.0
H1547 H 0.44173 0.27055 0.70317 0.0
H1548 H 0.39363 0.293 0.6898 0.0
H1549 H 0.36603 0.25265 0.67704 0.0
C1550 C 0.44357 0.34076 0.72937 0.0
C1551 C 0.46643 0.35285 0.72589 0.0
C1552 C 0.4283 0.31898 0.71975 0.0
C1553 C 0.43569 0.30869 0.70668 0.0
C1554 C 0.45851 0.32088 0.70308 0.0
C1555 C 0.47371 0.3429 0.71248 0.0
C1556 C 0.40952 0.24372 0.69014 0.0
C1557 C 0.38788 0.23818 0.68288 0.0
C1558 C 0.42537 0.26687 0.69724 0.0
C1559 C 0.41974 0.28481 0.69749 0.0
C1560 C 0.39832 0.27942 0.68985 0.0
C1561 C 0.3826 0.25637 0.68246 0.0
H1562 H 0.66619 0.1386 0.74742 0.0
H1563 H 0.63525 0.06826 0.7196 0.0
H1564 H 0.70039 0.15036 0.73203 0.0
H1565 H 0.66953 0.08003 0.7042 0.0
H1566 H 0.74631 0.10507 0.70015 0.0
H1567 H 0.71087 0.09247 0.71394 0.0
H1568 H 0.71134 0.15578 0.6996 0.0
H1569 H 0.74667 0.16826 0.68566 0.0
C1570 C 0.66677 0.12566 0.73805 0.0
C1571 C 0.64814 0.10252 0.73471 0.0
C1572 C 0.68623 0.13243 0.72915 0.0
C1573 C 0.68755 0.1161 0.71692 0.0
C1574 C 0.66896 0.09292 0.71363 0.0
C1575 C 0.64935 0.08624 0.72234 0.0
C1576 C 0.73871 0.11617 0.69984 0.0
C1577 C 0.74914 0.13761 0.69186 0.0
C1578 C 0.71844 0.10893 0.70766 0.0
C1579 C 0.70843 0.1232 0.70786 0.0
C1580 C 0.71881 0.14456 0.69974 0.0
C1581 C 0.73892 0.15163 0.6917 0.0
H1582 H 0.8605 0.53524 0.73903 0.0
H1583 H 0.91669 0.55947 0.70615 0.0
H1584 H 0.84847 0.56002 0.72475 0.0
H1585 H 0.90358 0.58285 0.69083 0.0
H1586 H 0.88911 0.64306 0.68213 0.0
H1587 H 0.90136 0.61751 0.69503 0.0
H1588 H 0.83144 0.56392 0.69814 0.0
H1589 H 0.81932 0.58999 0.68601 0.0
C1590 C 0.87032 0.54581 0.72873 0.0
C1591 C 0.88971 0.5454 0.72388 0.0
C1592 C 0.86314 0.55976 0.72027 0.0
C1593 C 0.87495 0.57344 0.70652 0.0
C1594 C 0.89419 0.57281 0.7015 0.0
C1595 C 0.90154 0.55909 0.71014 0.0
C1596 C 0.87635 0.62572 0.6854 0.0
C1597 C 0.85324 0.61858 0.68309 0.0
C1598 C 0.88338 0.61099 0.69276 0.0
C1599 C 0.86743 0.58862 0.69777 0.0
C1600 C 0.84426 0.58121 0.69485 0.0
C1601 C 0.83727 0.59609 0.68775 0.0
H1602 H 0.50588 0.00843 0.14951 0.0
H1603 H 0.443 0.94739 0.12697 0.0
H1604 H 0.5139 0.022 0.11953 0.0
H1605 H 0.45013 0.96144 0.09714 0.0
H1606 H 0.48448 0.97295 0.04541 0.0
H1607 H 0.47345 0.96287 0.0753 0.0
H1608 H 0.50612 0.03747 0.09404 0.0
H1609 H 0.51815 0.04751 0.06387 0.0
C1610 C 0.49356 0.99825 0.13813 0.0
C1611 C 0.47398 0.97678 0.14041 0.0
C1612 C 0.49804 0.00605 0.12096 0.0
C1613 C 0.48282 0.99269 0.10577 0.0
C1614 C 0.46259 0.97187 0.10837 0.0
C1615 C 0.45837 0.96386 0.12546 0.0
C1616 C 0.48919 0.98725 0.05585 0.0
C1617 C 0.50224 0.01103 0.05233 0.0
C1618 C 0.48266 0.98146 0.07304 0.0
C1619 C 0.48874 0.99931 0.08721 0.0
C1620 C 0.50137 0.02322 0.08356 0.0
C1621 C 0.50815 0.02902 0.06627 0.0
H1622 H 0.05901 0.49994 0.13601 0.0
H1623 H 0.99942 0.50185 0.14945 0.0
H1624 H 0.04561 0.49267 0.10409 0.0
H1625 H 0.98648 0.4961 0.1175 0.0
H1626 H 0.96143 0.47386 0.05888 0.0
H1627 H 0.972 0.47207 0.09032 0.0
H1628 H 0.04278 0.51349 0.08119 0.0
H1629 H 0.03209 0.514 0.04982 0.0
C1630 C 0.04301 0.49881 0.13204 0.0
C1631 C 0.03025 0.50153 0.14507 0.0
C1632 C 0.03537 0.49483 0.11375 0.0
C1633 C 0.01504 0.49409 0.10805 0.0
C1634 C 0.00201 0.49619 0.12126 0.0
C1635 C 0.00946 0.49965 0.13959 0.0
C1636 C 0.97921 0.48222 0.06364 0.0
C1637 C 0.99593 0.49411 0.05199 0.0
C1638 C 0.98531 0.4814 0.08168 0.0
C1639 C 0.00829 0.49278 0.08847 0.0
C1640 C 0.02493 0.50412 0.07653 0.0
C1641 C 0.01882 0.5046 0.0585 0.0
H1642 H 0.47445 0.54175 0.12953 0.0
H1643 H 0.48356 0.48341 0.14274 0.0
H1644 H 0.48559 0.53894 0.09923 0.0
H1645 H 0.49438 0.48037 0.11231 0.0
H1646 H 0.48637 0.46915 0.04866 0.0
H1647 H 0.47437 0.47081 0.07886 0.0
H1648 H 0.52397 0.54552 0.08745 0.0
H1649 H 0.53612 0.54376 0.0574 0.0
C1650 C 0.47861 0.52818 0.12585 0.0
C1651 C 0.47817 0.51278 0.13841 0.0
C1652 C 0.48511 0.52669 0.10861 0.0
C1653 C 0.49086 0.50948 0.10352 0.0
C1654 C 0.48992 0.49372 0.11592 0.0
C1655 C 0.48385 0.49552 0.1333 0.0
C1656 C 0.4947 0.48586 0.05707 0.0
C1657 C 0.51214 0.50632 0.05082 0.0
C1658 C 0.48792 0.48679 0.07431 0.0
C1659 C 0.49824 0.5083 0.0854 0.0
C1660 C 0.51568 0.52876 0.0791 0.0
C1661 C 0.52274 0.52772 0.06201 0.0
H1662 H 0.0021 0.51536 0.85767 0.0
H1663 H 0.93296 0.47548 0.87086 0.0
H1664 H 0.01554 0.51959 0.88933 0.0
H1665 H 0.94631 0.47916 0.90246 0.0
H1666 H 0.9767 0.50522 0.96038 0.0
H1667 H 0.96418 0.50552 0.92921 0.0
H1668 H 0.0183 0.49585 0.91116 0.0
H1669 H 0.03129 0.49673 0.94236 0.0
C1670 C 0.98979 0.50744 0.86736 0.0
C1671 C 0.96649 0.49504 0.86179 0.0
C1672 C 0.99747 0.50979 0.8855 0.0
C1673 C 0.98203 0.49959 0.89849 0.0
C1674 C 0.95869 0.48755 0.89292 0.0
C1675 C 0.95102 0.48538 0.87479 0.0
C1676 C 0.98612 0.50364 0.94975 0.0
C1677 C 0.00512 0.5013 0.95377 0.0
C1678 C 0.9788 0.50349 0.93186 0.0
C1679 C 0.99024 0.50075 0.91761 0.0
C1680 C 0.00932 0.49845 0.92175 0.0
C1681 C 0.01668 0.49877 0.93963 0.0
H1682 H 0.48322 0.46445 0.85967 0.0
H1683 H 0.55378 0.51042 0.87827 0.0
H1684 H 0.47264 0.46999 0.88943 0.0
H1685 H 0.54344 0.51518 0.90845 0.0
H1686 H 0.51632 0.53346 0.95774 0.0
H1687 H 0.52666 0.53142 0.92708 0.0
H1688 H 0.47308 0.45801 0.91823 0.0
H1689 H 0.46239 0.46055 0.94847 0.0
C1690 C 0.49646 0.47569 0.87022 0.0
C1691 C 0.51929 0.48694 0.86675 0.0
C1692 C 0.49045 0.47876 0.88733 0.0
C1693 C 0.50717 0.49281 0.9015 0.0
C1694 C 0.53006 0.50447 0.89787 0.0
C1695 C 0.53603 0.5017 0.88062 0.0
C1696 C 0.50674 0.517 0.9491 0.0
C1697 C 0.48855 0.49719 0.95537 0.0
C1698 C 0.51273 0.51574 0.93159 0.0
C1699 C 0.50069 0.49456 0.92006 0.0
C1700 C 0.48244 0.47479 0.92649 0.0
C1701 C 0.47634 0.47617 0.94387 0.0
H1702 H 0.56015 0.05341 0.8792 0.0
H1703 H 0.49899 0.98966 0.85684 0.0
H1704 H 0.55284 0.04046 0.90905 0.0
H1705 H 0.49056 0.97785 0.88701 0.0
H1706 H 0.48636 0.95472 0.94341 0.0
H1707 H 0.49864 0.96404 0.91322 0.0
H1708 H 0.52885 0.03887 0.93032 0.0
H1709 H 0.51762 0.02952 0.96031 0.0
C1710 C 0.54521 0.03653 0.88055 0.0
C1711 C 0.5301 0.02274 0.86545 0.0
C1712 C 0.54078 0.02927 0.89782 0.0
C1713 C 0.52086 0.00829 0.9006 0.0
C1714 C 0.50614 0.99405 0.88547 0.0
C1715 C 0.51079 0.00109 0.86812 0.0
C1716 C 0.49586 0.97312 0.94064 0.0
C1717 C 0.50105 0.99139 0.95415 0.0
C1718 C 0.50278 0.97849 0.92335 0.0
C1719 C 0.51479 0.00224 0.91923 0.0
C1720 C 0.52013 0.02041 0.93296 0.0
C1721 C 0.51349 0.01505 0.9502 0.0
H1722 H 0.11418 0.27569 0.45246 0.0
H1723 H 0.17243 0.33655 0.4813 0.0
H1724 H 0.12552 0.29347 0.42401 0.0
H1725 H 0.18409 0.35407 0.45279 0.0
H1726 H 0.20819 0.35118 0.39406 0.0
H1727 H 0.19636 0.33808 0.42367 0.0
H1728 H 0.13231 0.33393 0.41007 0.0
H1729 H 0.14476 0.34845 0.38083 0.0
C1730 C 0.12932 0.29293 0.45267 0.0
C1731 C 0.14245 0.30483 0.46897 0.0
C1732 C 0.13573 0.3031 0.43647 0.0
C1733 C 0.15566 0.32508 0.4363 0.0
C1734 C 0.16868 0.33709 0.45263 0.0
C1735 C 0.16198 0.32715 0.46888 0.0
C1736 C 0.19174 0.34783 0.39751 0.0
C1737 C 0.17708 0.35019 0.38501 0.0
C1738 C 0.18499 0.34034 0.41441 0.0
C1739 C 0.16338 0.33482 0.419 0.0
C1740 C 0.14895 0.33778 0.4067 0.0
C1741 C 0.15592 0.34578 0.38994 0.0
H1742 H 0.66872 0.83556 0.4819 0.0
H1743 H 0.73019 0.84109 0.46453 0.0
H1744 H 0.65405 0.8311 0.45033 0.0
H1745 H 0.71532 0.83611 0.43296 0.0
H1746 H 0.66672 0.80222 0.37924 0.0
H1747 H 0.6793 0.80276 0.41074 0.0
H1748 H 0.66978 0.86187 0.42524 0.0
H1749 H 0.65849 0.86218 0.39367 0.0
C1750 C 0.67889 0.83542 0.4713 0.0
C1751 C 0.70056 0.83869 0.47556 0.0
C1752 C 0.67057 0.83299 0.45332 0.0
C1753 C 0.6836 0.83327 0.4393 0.0
C1754 C 0.70493 0.83569 0.44355 0.0
C1755 C 0.71344 0.83864 0.46154 0.0
C1756 C 0.66783 0.81562 0.38909 0.0
C1757 C 0.6623 0.83256 0.38395 0.0
C1758 C 0.67475 0.81575 0.40711 0.0
C1759 C 0.67553 0.8324 0.42034 0.0
C1760 C 0.6692 0.84879 0.41529 0.0
C1761 C 0.66279 0.84897 0.39724 0.0
H1762 H 0.11732 0.83601 0.46371 0.0
H1763 H 0.17732 0.83463 0.48311 0.0
H1764 H 0.12475 0.83082 0.43301 0.0
H1765 H 0.18598 0.83186 0.45224 0.0
H1766 H 0.18907 0.81162 0.39361 0.0
H1767 H 0.17761 0.80943 0.4243 0.0
H1768 H 0.14877 0.8535 0.41263 0.0
H1769 H 0.15909 0.85448 0.38206 0.0
C1770 C 0.13205 0.83445 0.46153 0.0
C1771 C 0.14672 0.83585 0.4761 0.0
C1772 C 0.13658 0.83193 0.44378 0.0
C1773 C 0.15622 0.83133 0.44 0.0
C1774 C 0.17061 0.8321 0.45453 0.0
C1775 C 0.16583 0.83414 0.47233 0.0
C1776 C 0.18008 0.82059 0.39768 0.0
C1777 C 0.17493 0.83317 0.38551 0.0
C1778 C 0.17364 0.81951 0.41528 0.0
C1779 C 0.16219 0.83126 0.42106 0.0
C1780 C 0.15704 0.84373 0.40869 0.0
C1781 C 0.16315 0.84449 0.39112 0.0
H1782 H 0.65494 0.86409 0.19915 0.0
H1783 H 0.6215 0.78777 0.19609 0.0
H1784 H 0.66834 0.86664 0.23069 0.0
H1785 H 0.63358 0.78997 0.22772 0.0
H1786 H 0.67682 0.79953 0.27815 0.0
H1787 H 0.66506 0.7991 0.24681 0.0
H1788 H 0.65934 0.86106 0.2604 0.0
H1789 H 0.67328 0.86257 0.29154 0.0
C1790 C 0.65026 0.84788 0.20536 0.0
C1791 C 0.63743 0.82576 0.19523 0.0
C1792 C 0.65779 0.84927 0.22345 0.0
C1793 C 0.65228 0.82852 0.23185 0.0
C1794 C 0.6388 0.80639 0.2217 0.0
C1795 C 0.63169 0.80506 0.20358 0.0
C1796 C 0.67318 0.81314 0.27439 0.0
C1797 C 0.6753 0.83071 0.28736 0.0
C1798 C 0.66614 0.81275 0.25642 0.0
C1799 C 0.6607 0.82973 0.25098 0.0
C1800 C 0.66335 0.84766 0.26398 0.0
C1801 C 0.67085 0.84829 0.28194 0.0
H1802 H 0.16456 0.83718 0.19009 0.0
H1803 H 0.22713 0.84164 0.20956 0.0
H1804 H 0.15657 0.84199 0.22107 0.0
H1805 H 0.22007 0.8479 0.2405 0.0
H1806 H 0.1867 0.82462 0.29206 0.0
H1807 H 0.19705 0.82535 0.26154 0.0
H1808 H 0.16442 0.86548 0.24848 0.0
H1809 H 0.153 0.86356 0.27918 0.0
C1810 C 0.17682 0.83975 0.20106 0.0
C1811 C 0.19633 0.83883 0.19755 0.0
C1812 C 0.17235 0.84264 0.21883 0.0
C1813 C 0.18751 0.84506 0.23343 0.0
C1814 C 0.20764 0.84541 0.22971 0.0
C1815 C 0.21184 0.84202 0.21199 0.0
C1816 C 0.18181 0.83372 0.28272 0.0
C1817 C 0.16897 0.84396 0.28797 0.0
C1818 C 0.18795 0.83435 0.26517 0.0
C1819 C 0.18173 0.8456 0.2524 0.0
C1820 C 0.16926 0.85635 0.25781 0.0
C1821 C 0.16282 0.85542 0.27542 0.0
H1822 H 0.19789 0.40374 0.21853 0.0
H1823 H 0.18783 0.33583 0.19769 0.0
H1824 H 0.18619 0.38833 0.24765 0.0
H1825 H 0.17659 0.32056 0.22697 0.0
H1826 H 0.18323 0.31684 0.29048 0.0
H1827 H 0.19663 0.33211 0.26155 0.0
H1828 H 0.14597 0.35286 0.25604 0.0
H1829 H 0.13237 0.33727 0.28469 0.0
C1830 C 0.19345 0.38563 0.22029 0.0
C1831 C 0.1937 0.37092 0.20594 0.0
C1832 C 0.18668 0.37681 0.23686 0.0
C1833 C 0.1805 0.3533 0.23945 0.0
C1834 C 0.18138 0.33878 0.22527 0.0
C1835 C 0.18769 0.34745 0.20857 0.0
C1836 C 0.17498 0.32459 0.28299 0.0
C1837 C 0.15683 0.32592 0.2897 0.0
C1838 C 0.18256 0.33323 0.2665 0.0
C1839 C 0.17235 0.34371 0.25671 0.0
C1840 C 0.15418 0.34498 0.26344 0.0
C1841 C 0.14631 0.33591 0.2797 0.0
H1842 H 0.77669 0.6223 0.79189 0.0
H1843 H 0.84629 0.64426 0.80834 0.0
H1844 H 0.78752 0.63773 0.76272 0.0
H1845 H 0.85743 0.6607 0.77971 0.0
H1846 H 0.86686 0.66275 0.72036 0.0
H1847 H 0.85522 0.64806 0.74938 0.0
H1848 H 0.80668 0.67213 0.74723 0.0
H1849 H 0.81793 0.68599 0.71767 0.0
C1850 C 0.79435 0.63075 0.7893 0.0
C1851 C 0.81065 0.63194 0.80222 0.0
C1852 C 0.80061 0.6397 0.77265 0.0
C1853 C 0.82336 0.65033 0.76874 0.0
C1854 C 0.83968 0.65211 0.782 0.0
C1855 C 0.83336 0.64283 0.79847 0.0
C1856 C 0.8538 0.665 0.72618 0.0
C1857 C 0.84326 0.67546 0.71688 0.0
C1858 C 0.84716 0.65668 0.74286 0.0
C1859 C 0.8301 0.65904 0.75081 0.0
C1860 C 0.81967 0.66973 0.74146 0.0
C1861 C 0.82616 0.6778 0.72461 0.0
H1862 H 0.35343 0.19745 0.81517 0.0
H1863 H 0.38138 0.15326 0.80038 0.0
H1864 H 0.3385 0.19333 0.784 0.0
H1865 H 0.36761 0.15008 0.76881 0.0
H1866 H 0.32541 0.13512 0.71496 0.0
H1867 H 0.33661 0.13505 0.74663 0.0
H1868 H 0.3517 0.20759 0.75677 0.0
H1869 H 0.3396 0.20707 0.72547 0.0
C1870 C 0.35634 0.18684 0.80513 0.0
C1871 C 0.36854 0.17572 0.81005 0.0
C1872 C 0.34801 0.18464 0.78723 0.0
C1873 C 0.35213 0.17169 0.77372 0.0
C1874 C 0.36388 0.16 0.77881 0.0
C1875 C 0.37186 0.16186 0.79685 0.0
C1876 C 0.33112 0.15097 0.72407 0.0
C1877 C 0.33164 0.17109 0.71787 0.0
C1878 C 0.33762 0.15101 0.74218 0.0
C1879 C 0.34496 0.17127 0.7544 0.0
C1880 C 0.34561 0.19143 0.74798 0.0
C1881 C 0.33883 0.19124 0.72998 0.0
H1882 H 0.78454 0.14864 0.80171 0.0
H1883 H 0.85145 0.20951 0.81526 0.0
H1884 H 0.7939 0.14519 0.77096 0.0
H1885 H 0.86081 0.20583 0.7847 0.0
H1886 H 0.87762 0.17747 0.73411 0.0
H1887 H 0.86735 0.17892 0.76483 0.0
H1888 H 0.80218 0.16724 0.74377 0.0
H1889 H 0.81253 0.16577 0.7131 0.0
C1890 C 0.80119 0.16134 0.79814 0.0
C1891 C 0.81727 0.17928 0.81102 0.0
C1892 C 0.80656 0.15934 0.78052 0.0
C1893 C 0.82814 0.17516 0.77543 0.0
C1894 C 0.84418 0.19309 0.78829 0.0
C1895 C 0.8388 0.19516 0.80583 0.0
C1896 C 0.86106 0.17509 0.73609 0.0
C1897 C 0.84579 0.17134 0.72126 0.0
C1898 C 0.85522 0.17603 0.75365 0.0
C1899 C 0.83396 0.17322 0.75674 0.0
C1900 C 0.81857 0.16916 0.74185 0.0
C1901 C 0.82447 0.16832 0.72428 0.0
H1902 H 0.31513 0.13449 0.52427 0.0
H1903 H 0.28712 0.1788 0.53925 0.0
H1904 H 0.32891 0.13761 0.55538 0.0
H1905 H 0.29914 0.1801 0.57073 0.0
H1906 H 0.34242 0.19628 0.62419 0.0
H1907 H 0.33002 0.19555 0.59273 0.0
H1908 H 0.31652 0.12355 0.58276 0.0
H1909 H 0.33007 0.12497 0.61382 0.0
C1910 C 0.31191 0.14497 0.53415 0.0
C1911 C 0.3 0.15644 0.52907 0.0
C1912 C 0.31947 0.14638 0.55216 0.0
C1913 C 0.31497 0.15889 0.56574 0.0
C1914 C 0.30315 0.17047 0.5607 0.0
C1915 C 0.2959 0.1694 0.5426 0.0
C1916 C 0.33688 0.1804 0.61516 0.0
C1917 C 0.33742 0.16079 0.6213 0.0
C1918 C 0.3296 0.17987 0.59717 0.0
C1919 C 0.3224 0.15955 0.58503 0.0
C1920 C 0.32251 0.13976 0.59147 0.0
C1921 C 0.33013 0.14047 0.60933 0.0
H1922 H 0.89336 0.17504 0.54418 0.0
H1923 H 0.82941 0.16785 0.5253 0.0
H1924 H 0.88711 0.1825 0.57515 0.0
H1925 H 0.82225 0.17384 0.55635 0.0
H1926 H 0.81868 0.19551 0.61419 0.0
H1927 H 0.83025 0.198 0.58351 0.0
H1928 H 0.86485 0.15979 0.59656 0.0
H1929 H 0.85419 0.15836 0.62702 0.0
C1930 C 0.87798 0.17515 0.54675 0.0
C1931 C 0.8618 0.17077 0.5325 0.0
C1932 C 0.87425 0.17922 0.56448 0.0
C1933 C 0.85395 0.17837 0.56839 0.0
C1934 C 0.83817 0.1749 0.55394 0.0
C1935 C 0.84216 0.17132 0.53614 0.0
C1936 C 0.82902 0.18799 0.61044 0.0
C1937 C 0.83558 0.1768 0.62294 0.0
C1938 C 0.83554 0.18925 0.59286 0.0
C1939 C 0.84853 0.1791 0.58743 0.0
C1940 C 0.85533 0.16831 0.6002 0.0
C1941 C 0.84905 0.16731 0.61772 0.0
H1942 H 0.82335 0.68931 0.52925 0.0
H1943 H 0.89244 0.7103 0.54735 0.0
H1944 H 0.81137 0.67412 0.55791 0.0
H1945 H 0.88067 0.69683 0.5767 0.0
H1946 H 0.84866 0.64912 0.6216 0.0
H1947 H 0.86097 0.66283 0.59225 0.0
H1948 H 0.81218 0.68648 0.588 0.0
H1949 H 0.79947 0.67187 0.61689 0.0
C1950 C 0.83605 0.69067 0.5393 0.0
C1951 C 0.85889 0.70092 0.5358 0.0
C1952 C 0.82919 0.68231 0.55595 0.0
C1953 C 0.84502 0.68432 0.56977 0.0
C1954 C 0.86791 0.69467 0.56635 0.0
C1955 C 0.87474 0.70276 0.54956 0.0
C1956 C 0.84059 0.65718 0.61426 0.0
C1957 C 0.82312 0.65941 0.62138 0.0
C1958 C 0.84771 0.6652 0.59752 0.0
C1959 C 0.83758 0.67578 0.58764 0.0
C1960 C 0.82009 0.67799 0.59495 0.0
C1961 C 0.81281 0.6697 0.61155 0.0
loop_
_geom_bond_atom_site_label_1
_geom_bond_atom_site_label_2
_geom_bond_distance
_geom_bond_site_symmetry_2
_ccdc_geom_bond_type
C0 C1 1.386 . S
C0 C2 1.397 . S
C0 H24 0.931 . S
C1 C0 1.386 . S
C1 C5 1.397 . S
C2 C0 1.397 . S
C2 C3 1.384 . S
C2 H25 0.930 . S
C3 C2 1.384 . S
C3 C4 1.377 . S
C3 C6 1.481 . S
C4 C3 1.377 . S
C4 C5 1.389 . S
C4 H26 0.929 . S
C5 C1 1.397 . S
C5 C4 1.389 . S
C5 H27 0.931 . S
C6 C3 1.481 . S
C6 C7 1.387 . S
C6 C11 1.390 . S
C7 C6 1.387 . S
C7 C8 1.401 . S
C7 H28 0.930 . S
C8 C7 1.401 . S
C8 C9 1.376 . S
C8 C17 1.511 . S
C9 C8 1.376 . S
C9 C10 1.392 . S
C9 H30 0.931 . S
C10 C9 1.392 . S
C10 C11 1.361 . S
C10 C12 1.500 . S
C11 C6 1.390 . S
C11 C10 1.361 . S
C11 H29 0.931 . S
C12 C10 1.500 . S
C12 C13 1.371 . S
C12 C14 1.365 . S
C13 C12 1.371 . S
C13 C23 1.386 . S
C13 H31 0.931 . S
C14 C12 1.365 . S
C14 C15 1.409 . S
C14 H32 0.929 . S
C15 C14 1.409 . S
C15 C16 1.380 . S
C15 H33 0.930 . S
C16 C15 1.380 . S
C16 C23 1.357 . S
C17 C8 1.511 . S
C17 C18 1.341 . S
C17 C19 1.371 . S
C18 C17 1.341 . S
C18 C22 1.394 . S
C18 H34 0.930 . S
C19 C17 1.371 . S
C19 C20 1.392 . S
C19 H35 0.931 . S
C20 C19 1.392 . S
C20 C21 1.331 . S
C20 H38 0.932 . S
C21 C20 1.331 . S
C21 C22 1.336 . S
C22 C18 1.394 . S
C22 C21 1.336 . S
C22 H37 0.929 . S
C23 C13 1.386 . S
C23 C16 1.357 . S
C23 H36 0.928 . S
H24 C0 0.931 . S
H25 C2 0.930 . S
H26 C4 0.929 . S
H27 C5 0.931 . S
H28 C7 0.930 . S
H29 C11 0.931 . S
H30 C9 0.931 . S
H31 C13 0.931 . S
H32 C14 0.929 . S
H33 C15 0.930 . S
H34 C18 0.930 . S
H35 C19 0.931 . S
H36 C23 0.928 . S
H37 C22 0.929 . S
H38 C20 0.932 . S
C39 C40 1.386 . S
C39 C41 1.397 . S
C39 H63 0.931 . S
C40 C39 1.386 . S
C40 C44 1.397 . S
C41 C39 1.397 . S
C41 C42 1.384 . S
C41 H64 0.930 . S
C42 C41 1.384 . S
C42 C43 1.377 . S
C42 C45 1.481 . S
C43 C42 1.377 . S
C43 C44 1.389 . S
C43 H65 0.929 . S
C44 C40 1.397 . S
C44 C43 1.389 . S
C44 H66 0.931 . S
C45 C42 1.481 . S
C45 C46 1.387 . S
C45 C50 1.390 . S
C46 C45 1.387 . S
C46 C47 1.401 . S
C46 H67 0.930 . S
C47 C46 1.401 . S
C47 C48 1.376 . S
C47 C56 1.511 . S
C48 C47 1.376 . S
C48 C49 1.392 . S
C48 H69 0.931 . S
C49 C48 1.392 . S
C49 C50 1.361 . S
C49 C51 1.500 . S
C50 C45 1.390 . S
C50 C49 1.361 . S
C50 H68 0.931 . S
C51 C49 1.500 . S
C51 C52 1.371 . S
C51 C53 1.365 . S
C52 C51 1.371 . S
C52 C62 1.386 . S
C52 H70 0.931 . S
C53 C51 1.365 . S
C53 C54 1.409 . S
C53 H71 0.929 . S
C54 C53 1.409 . S
C54 C55 1.380 . S
C54 H72 0.930 . S
C55 C54 1.380 . S
C55 C62 1.357 . S
C56 C47 1.511 . S
C56 C57 1.341 . S
C56 C58 1.371 . S
C57 C56 1.341 . S
C57 C61 1.394 . S
C57 H73 0.930 . S
C58 C56 1.371 . S
C58 C59 1.392 . S
C58 H74 0.931 . S
C59 C58 1.392 . S
C59 C60 1.331 . S
C59 H77 0.932 . S
C60 C59 1.331 . S
C60 C61 1.336 . S
C61 C57 1.394 . S
C61 C60 1.336 . S
C61 H76 0.929 . S
C62 C52 1.386 . S
C62 C55 1.357 . S
C62 H75 0.928 . S
H63 C39 0.931 . S
H64 C41 0.930 . S
H65 C43 0.929 . S
H66 C44 0.931 . S
H67 C46 0.930 . S
H68 C50 0.931 . S
H69 C48 0.931 . S
H70 C52 0.931 . S
H71 C53 0.929 . S
H72 C54 0.930 . S
H73 C57 0.930 . S
H74 C58 0.931 . S
H75 C62 0.928 . S
H76 C61 0.929 . S
H77 C59 0.932 . S
C78 C79 1.386 . S
C78 C80 1.397 . S
C78 H102 0.931 . S
C79 C78 1.386 . S
C79 C83 1.397 . S
C80 C78 1.397 . S
C80 C81 1.384 . S
C80 H103 0.930 . S
C81 C80 1.384 . S
C81 C82 1.377 . S
C81 C84 1.481 . S
C82 C81 1.377 . S
C82 C83 1.389 . S
C82 H104 0.929 . S
C83 C79 1.397 . S
C83 C82 1.389 . S
C83 H105 0.931 . S
C84 C81 1.481 . S
C84 C85 1.387 . S
C84 C89 1.390 . S
C85 C84 1.387 . S
C85 C86 1.401 . S
C85 H106 0.930 . S
C86 C85 1.401 . S
C86 C87 1.376 . S
C86 C95 1.511 . S
C87 C86 1.376 . S
C87 C88 1.392 . S
C87 H108 0.931 . S
C88 C87 1.392 . S
C88 C89 1.361 . S
C88 C90 1.500 . S
C89 C84 1.390 . S
C89 C88 1.361 . S
C89 H107 0.931 . S
C90 C88 1.500 . S
C90 C91 1.371 . S
C90 C92 1.365 . S
C91 C90 1.371 . S
C91 C101 1.386 . S
C91 H109 0.931 . S
C92 C90 1.365 . S
C92 C93 1.409 . S
C92 H110 0.929 . S
C93 C92 1.409 . S
C93 C94 1.380 . S
C93 H111 0.930 . S
C94 C93 1.380 . S
C94 C101 1.357 . S
C95 C86 1.511 . S
C95 C96 1.341 . S
C95 C97 1.371 . S
C96 C95 1.341 . S
C96 C100 1.394 . S
C96 H112 0.930 . S
C97 C95 1.371 . S
C97 C98 1.392 . S
C97 H113 0.931 . S
C98 C97 1.392 . S
C98 C99 1.331 . S
C98 H116 0.932 . S
C99 C98 1.331 . S
C99 C100 1.336 . S
C100 C96 1.394 . S
C100 C99 1.336 . S
C100 H115 0.929 . S
C101 C91 1.386 . S
C101 C94 1.357 . S
C101 H114 0.928 . S
H102 C78 0.931 . S
H103 C80 0.930 . S
H104 C82 0.929 . S
H105 C83 0.931 . S
H106 C85 0.930 . S
H107 C89 0.931 . S
H108 C87 0.931 . S
H109 C91 0.931 . S
H110 C92 0.929 . S
H111 C93 0.930 . S
H112 C96 0.930 . S
H113 C97 0.931 . S
H114 C101 0.928 . S
H115 C100 0.929 . S
H116 C98 0.932 . S
C117 C118 1.386 . S
C117 C119 1.397 . S
C117 H141 0.931 . S
C118 C117 1.386 . S
C118 C122 1.397 . S
C119 C117 1.397 . S
C119 C120 1.384 . S
C119 H142 0.930 . S
C120 C119 1.384 . S
C120 C121 1.377 . S
C120 C123 1.481 . S
C121 C120 1.377 . S
C121 C122 1.389 . S
C121 H143 0.929 . S
C122 C118 1.397 . S
C122 C121 1.389 . S
C122 H144 0.931 . S
C123 C120 1.481 . S
C123 C124 1.387 . S
C123 C128 1.390 . S
C124 C123 1.387 . S
C124 C125 1.401 . S
C124 H145 0.930 . S
C125 C124 1.401 . S
C125 C126 1.376 . S
C125 C134 1.511 . S
C126 C125 1.376 . S
C126 C127 1.392 . S
C126 H147 0.931 . S
C127 C126 1.392 . S
C127 C128 1.361 . S
C127 C129 1.500 . S
C128 C123 1.390 . S
C128 C127 1.361 . S
C128 H146 0.931 . S
C129 C127 1.500 . S
C129 C130 1.371 . S
C129 C131 1.365 . S
C130 C129 1.371 . S
C130 C140 1.386 . S
C130 H148 0.931 . S
C131 C129 1.365 . S
C131 C132 1.409 . S
C131 H149 0.929 . S
C132 C131 1.409 . S
C132 C133 1.380 . S
C132 H150 0.930 . S
C133 C132 1.380 . S
C133 C140 1.357 . S
C134 C125 1.511 . S
C134 C135 1.341 . S
C134 C136 1.371 . S
C135 C134 1.341 . S
C135 C139 1.394 . S
C135 H151 0.930 . S
C136 C134 1.371 . S
C136 C137 1.392 . S
C136 H152 0.931 . S
C137 C136 1.392 . S
C137 C138 1.331 . S
C137 H155 0.932 . S
C138 C137 1.331 . S
C138 C139 1.336 . S
C139 C135 1.394 . S
C139 C138 1.336 . S
C139 H154 0.929 . S
C140 C130 1.386 . S
C140 C133 1.357 . S
C140 H153 0.928 . S
H141 C117 0.931 . S
H142 C119 0.930 . S
H143 C121 0.929 . S
H144 C122 0.931 . S
H145 C124 0.930 . S
H146 C128 0.931 . S
H147 C126 0.931 . S
H148 C130 0.931 . S
H149 C131 0.929 . S
H150 C132 0.930 . S
H151 C135 0.930 . S
H152 C136 0.931 . S
H153 C140 0.928 . S
H154 C139 0.929 . S
H155 C137 0.932 . S
C156 C157 1.386 . S
C156 C158 1.397 . S
C156 H180 0.931 . S
C157 C156 1.386 . S
C157 C161 1.397 . S
C158 C156 1.397 . S
C158 C159 1.384 . S
C158 H181 0.930 . S
C159 C158 1.384 . S
C159 C160 1.377 . S
C159 C162 1.481 . S
C160 C159 1.377 . S
C160 C161 1.389 . S
C160 H182 0.929 . S
C161 C157 1.397 . S
C161 C160 1.389 . S
C161 H183 0.931 . S
C162 C159 1.481 . S
C162 C163 1.387 . S
C162 C167 1.390 . S
C163 C162 1.387 . S
C163 C164 1.401 . S
C163 H184 0.930 . S
C164 C163 1.401 . S
C164 C165 1.376 . S
C164 C173 1.511 . S
C165 C164 1.376 . S
C165 C166 1.392 . S
C165 H186 0.931 . S
C166 C165 1.392 . S
C166 C167 1.361 . S
C166 C168 1.500 . S
C167 C162 1.390 . S
C167 C166 1.361 . S
C167 H185 0.931 . S
C168 C166 1.500 . S
C168 C169 1.371 . S
C168 C170 1.365 . S
C169 C168 1.371 . S
C169 C179 1.386 . S
C169 H187 0.931 . S
C170 C168 1.365 . S
C170 C171 1.409 . S
C170 H188 0.929 . S
C171 C170 1.409 . S
C171 C172 1.380 . S
C171 H189 0.930 . S
C172 C171 1.380 . S
C172 C179 1.357 . S
C173 C164 1.511 . S
C173 C174 1.341 . S
C173 C175 1.371 . S
C174 C173 1.341 . S
C174 C178 1.394 . S
C174 H190 0.930 . S
C175 C173 1.371 . S
C175 C176 1.392 . S
C175 H191 0.931 . S
C176 C175 1.392 . S
C176 C177 1.331 . S
C176 H194 0.932 . S
C177 C176 1.331 . S
C177 C178 1.336 . S
C178 C174 1.394 . S
C178 C177 1.336 . S
C178 H193 0.929 . S
C179 C169 1.386 . S
C179 C172 1.357 . S
C179 H192 0.928 . S
H180 C156 0.931 . S
H181 C158 0.930 . S
H182 C160 0.929 . S
H183 C161 0.931 . S
H184 C163 0.930 . S
H185 C167 0.931 . S
H186 C165 0.931 . S
H187 C169 0.931 . S
H188 C170 0.929 . S
H189 C171 0.930 . S
H190 C174 0.930 . S
H191 C175 0.931 . S
H192 C179 0.928 . S
H193 C178 0.929 . S
H194 C176 0.932 . S
C195 C196 1.386 . S
C195 C197 1.397 . S
C195 H219 0.931 . S
C196 C195 1.386 . S
C196 C200 1.397 . S
C197 C195 1.397 . S
C197 C198 1.384 . S
C197 H220 0.930 . S
C198 C197 1.384 . S
C198 C199 1.377 . S
C198 C201 1.481 . S
C199 C198 1.377 . S
C199 C200 1.389 . S
C199 H221 0.929 . S
C200 C196 1.397 . S
C200 C199 1.389 . S
C200 H222 0.931 . S
C201 C198 1.481 . S
C201 C202 1.387 . S
C201 C206 1.390 . S
C202 C201 1.387 . S
C202 C203 1.401 . S
C202 H223 0.930 . S
C203 C202 1.401 . S
C203 C204 1.376 . S
C203 C212 1.511 . S
C204 C203 1.376 . S
C204 C205 1.392 . S
C204 H225 0.931 . S
C205 C204 1.392 . S
C205 C206 1.361 . S
C205 C207 1.500 . S
C206 C201 1.390 . S
C206 C205 1.361 . S
C206 H224 0.931 . S
C207 C205 1.500 . S
C207 C208 1.371 . S
C207 C209 1.365 . S
C208 C207 1.371 . S
C208 C218 1.386 . S
C208 H226 0.931 . S
C209 C207 1.365 . S
C209 C210 1.409 . S
C209 H227 0.929 . S
C210 C209 1.409 . S
C210 C211 1.380 . S
C210 H228 0.930 . S
C211 C210 1.380 . S
C211 C218 1.357 . S
C212 C203 1.511 . S
C212 C213 1.341 . S
C212 C214 1.371 . S
C213 C212 1.341 . S
C213 C217 1.394 . S
C213 H229 0.930 . S
C214 C212 1.371 . S
C214 C215 1.392 . S
C214 H230 0.931 . S
C215 C214 1.392 . S
C215 C216 1.331 . S
C215 H233 0.932 . S
C216 C215 1.331 . S
C216 C217 1.336 . S
C217 C213 1.394 . S
C217 C216 1.336 . S
C217 H232 0.929 . S
C218 C208 1.386 . S
C218 C211 1.357 . S
C218 H231 0.928 . S
H219 C195 0.931 . S
H220 C197 0.930 . S
H221 C199 0.929 . S
H222 C200 0.931 . S
H223 C202 0.930 . S
H224 C206 0.931 . S
H225 C204 0.931 . S
H226 C208 0.931 . S
H227 C209 0.929 . S
H228 C210 0.930 . S
H229 C213 0.930 . S
H230 C214 0.931 . S
H231 C218 0.928 . S
H232 C217 0.929 . S
H233 C215 0.932 . S
C234 C235 1.386 . S
C234 C236 1.397 . S
C234 H258 0.931 . S
C235 C234 1.386 . S
C235 C239 1.397 . S
C236 C234 1.397 . S
C236 C237 1.384 . S
C236 H259 0.930 . S
C237 C236 1.384 . S
C237 C238 1.377 . S
C237 C240 1.481 . S
C238 C237 1.377 . S
C238 C239 1.389 . S
C238 H260 0.929 . S
C239 C235 1.397 . S
C239 C238 1.389 . S
C239 H261 0.931 . S
C240 C237 1.481 . S
C240 C241 1.387 . S
C240 C245 1.390 . S
C241 C240 1.387 . S
C241 C242 1.401 . S
C241 H262 0.930 . S
C242 C241 1.401 . S
C242 C243 1.376 . S
C242 C251 1.511 . S
C243 C242 1.376 . S
C243 C244 1.392 . S
C243 H264 0.931 . S
C244 C243 1.392 . S
C244 C245 1.361 . S
C244 C246 1.500 . S
C245 C240 1.390 . S
C245 C244 1.361 . S
C245 H263 0.931 . S
C246 C244 1.500 . S
C246 C247 1.371 . S
C246 C248 1.365 . S
C247 C246 1.371 . S
C247 C257 1.386 . S
C247 H265 0.931 . S
C248 C246 1.365 . S
C248 C249 1.409 . S
C248 H266 0.929 . S
C249 C248 1.409 . S
C249 C250 1.380 . S
C249 H267 0.930 . S
C250 C249 1.380 . S
C250 C257 1.357 . S
C251 C242 1.511 . S
C251 C252 1.341 . S
C251 C253 1.371 . S
C252 C251 1.341 . S
C252 C256 1.394 . S
C252 H268 0.930 . S
C253 C251 1.371 . S
C253 C254 1.392 . S
C253 H269 0.931 . S
C254 C253 1.392 . S
C254 C255 1.331 . S
C254 H272 0.932 . S
C255 C254 1.331 . S
C255 C256 1.336 . S
C256 C252 1.394 . S
C256 C255 1.336 . S
C256 H271 0.929 . S
C257 C247 1.386 . S
C257 C250 1.357 . S
C257 H270 0.928 . S
H258 C234 0.931 . S
H259 C236 0.930 . S
H260 C238 0.929 . S
H261 C239 0.931 . S
H262 C241 0.930 . S
H263 C245 0.931 . S
H264 C243 0.931 . S
H265 C247 0.931 . S
H266 C248 0.929 . S
H267 C249 0.930 . S
H268 C252 0.930 . S
H269 C253 0.931 . S
H270 C257 0.928 . S
H271 C256 0.929 . S
H272 C254 0.932 . S
C273 C274 1.386 . S
C273 C275 1.397 . S
C273 H297 0.931 . S
C274 C273 1.386 . S
C274 C278 1.397 . S
C275 C273 1.397 . S
C275 C276 1.384 . S
C275 H298 0.930 . S
C276 C275 1.384 . S
C276 C277 1.377 . S
C276 C279 1.481 . S
C277 C276 1.377 . S
C277 C278 1.389 . S
C277 H299 0.929 . S
C278 C274 1.397 . S
C278 C277 1.389 . S
C278 H300 0.931 . S
C279 C276 1.481 . S
C279 C280 1.387 . S
C279 C284 1.390 . S
C280 C279 1.387 . S
C280 C281 1.401 . S
C280 H301 0.930 . S
C281 C280 1.401 . S
C281 C282 1.376 . S
C281 C290 1.511 . S
C282 C281 1.376 . S
C282 C283 1.392 . S
C282 H303 0.931 . S
C283 C282 1.392 . S
C283 C284 1.361 . S
C283 C285 1.500 . S
C284 C279 1.390 . S
C284 C283 1.361 . S
C284 H302 0.931 . S
C285 C283 1.500 . S
C285 C286 1.371 . S
C285 C287 1.365 . S
C286 C285 1.371 . S
C286 C296 1.386 . S
C286 H304 0.931 . S
C287 C285 1.365 . S
C287 C288 1.409 . S
C287 H305 0.929 . S
C288 C287 1.409 . S
C288 C289 1.380 . S
C288 H306 0.930 . S
C289 C288 1.380 . S
C289 C296 1.357 . S
C290 C281 1.511 . S
C290 C291 1.341 . S
C290 C292 1.371 . S
C291 C290 1.341 . S
C291 C295 1.394 . S
C291 H307 0.930 . S
C292 C290 1.371 . S
C292 C293 1.392 . S
C292 H308 0.931 . S
C293 C292 1.392 . S
C293 C294 1.331 . S
C293 H311 0.932 . S
C294 C293 1.331 . S
C294 C295 1.336 . S
C295 C291 1.394 . S
C295 C294 1.336 . S
C295 H310 0.929 . S
C296 C286 1.386 . S
C296 C289 1.357 . S
C296 H309 0.928 . S
H297 C273 0.931 . S
H298 C275 0.930 . S
H299 C277 0.929 . S
H300 C278 0.931 . S
H301 C280 0.930 . S
H302 C284 0.931 . S
H303 C282 0.931 . S
H304 C286 0.931 . S
H305 C287 0.929 . S
H306 C288 0.930 . S
H307 C291 0.930 . S
H308 C292 0.931 . S
H309 C296 0.928 . S
H310 C295 0.929 . S
H311 C293 0.932 . S
C312 C313 1.386 . S
C312 C314 1.397 . S
C312 H336 0.931 . S
C313 C312 1.386 . S
C313 C317 1.397 . S
C314 C312 1.397 . S
C314 C315 1.384 . S
C314 H337 0.930 . S
C315 C314 1.384 . S
C315 C316 1.377 . S
C315 C318 1.481 . S
C316 C315 1.377 . S
C316 C317 1.389 . S
C316 H338 0.929 . S
C317 C313 1.397 . S
C317 C316 1.389 . S
C317 H339 0.931 . S
C318 C315 1.481 . S
C318 C319 1.387 . S
C318 C323 1.390 . S
C319 C318 1.387 . S
C319 C320 1.401 . S
C319 H340 0.930 . S
C320 C319 1.401 . S
C320 C321 1.376 . S
C320 C329 1.511 . S
C321 C320 1.376 . S
C321 C322 1.392 . S
C321 H342 0.931 . S
C322 C321 1.392 . S
C322 C323 1.361 . S
C322 C324 1.500 . S
C323 C318 1.390 . S
C323 C322 1.361 . S
C323 H341 0.931 . S
C324 C322 1.500 . S
C324 C325 1.371 . S
C324 C326 1.365 . S
C325 C324 1.371 . S
C325 C335 1.386 . S
C325 H343 0.931 . S
C326 C324 1.365 . S
C326 C327 1.409 . S
C326 H344 0.929 . S
C327 C326 1.409 . S
C327 C328 1.380 . S
C327 H345 0.930 . S
C328 C327 1.380 . S
C328 C335 1.357 . S
C329 C320 1.511 . S
C329 C330 1.341 . S
C329 C331 1.371 . S
C330 C329 1.341 . S
C330 C334 1.394 . S
C330 H346 0.930 . S
C331 C329 1.371 . S
C331 C332 1.392 . S
C331 H347 0.931 . S
C332 C331 1.392 . S
C332 C333 1.331 . S
C332 H350 0.932 . S
C333 C332 1.331 . S
C333 C334 1.336 . S
C334 C330 1.394 . S
C334 C333 1.336 . S
C334 H349 0.929 . S
C335 C325 1.386 . S
C335 C328 1.357 . S
C335 H348 0.928 . S
H336 C312 0.931 . S
H337 C314 0.930 . S
H338 C316 0.929 . S
H339 C317 0.931 . S
H340 C319 0.930 . S
H341 C323 0.931 . S
H342 C321 0.931 . S
H343 C325 0.931 . S
H344 C326 0.929 . S
H345 C327 0.930 . S
H346 C330 0.930 . S
H347 C331 0.931 . S
H348 C335 0.928 . S
H349 C334 0.929 . S
H350 C332 0.932 . S
C351 C352 1.386 . S
C351 C353 1.397 . S
C351 H375 0.931 . S
C352 C351 1.386 . S
C352 C356 1.397 . S
C353 C351 1.397 . S
C353 C354 1.384 . S
C353 H376 0.930 . S
C354 C353 1.384 . S
C354 C355 1.377 . S
C354 C357 1.481 . S
C355 C354 1.377 . S
C355 C356 1.389 . S
C355 H377 0.929 . S
C356 C352 1.397 . S
C356 C355 1.389 . S
C356 H378 0.931 . S
C357 C354 1.481 . S
C357 C358 1.387 . S
C357 C362 1.390 . S
C358 C357 1.387 . S
C358 C359 1.401 . S
C358 H379 0.930 . S
C359 C358 1.401 . S
C359 C360 1.376 . S
C359 C368 1.511 . S
C360 C359 1.376 . S
C360 C361 1.392 . S
C360 H381 0.931 . S
C361 C360 1.392 . S
C361 C362 1.361 . S
C361 C363 1.500 . S
C362 C357 1.390 . S
C362 C361 1.361 . S
C362 H380 0.931 . S
C363 C361 1.500 . S
C363 C364 1.371 . S
C363 C365 1.365 . S
C364 C363 1.371 . S
C364 C374 1.386 . S
C364 H382 0.931 . S
C365 C363 1.365 . S
C365 C366 1.409 . S
C365 H383 0.929 . S
C366 C365 1.409 . S
C366 C367 1.380 . S
C366 H384 0.930 . S
C367 C366 1.380 . S
C367 C374 1.357 . S
C368 C359 1.511 . S
C368 C369 1.341 . S
C368 C370 1.371 . S
C369 C368 1.341 . S
C369 C373 1.394 . S
C369 H385 0.930 . S
C370 C368 1.371 . S
C370 C371 1.392 . S
C370 H386 0.931 . S
C371 C370 1.392 . S
C371 C372 1.331 . S
C371 H389 0.932 . S
C372 C371 1.331 . S
C372 C373 1.336 . S
C373 C369 1.394 . S
C373 C372 1.336 . S
C373 H388 0.929 . S
C374 C364 1.386 . S
C374 C367 1.357 . S
C374 H387 0.928 . S
H375 C351 0.931 . S
H376 C353 0.930 . S
H377 C355 0.929 . S
H378 C356 0.931 . S
H379 C358 0.930 . S
H380 C362 0.931 . S
H381 C360 0.931 . S
H382 C364 0.931 . S
H383 C365 0.929 . S
H384 C366 0.930 . S
H385 C369 0.930 . S
H386 C370 0.931 . S
H387 C374 0.928 . S
H388 C373 0.929 . S
H389 C371 0.932 . S
C390 C391 1.386 . S
C390 C392 1.397 . S
C390 H414 0.931 . S
C391 C390 1.386 . S
C391 C395 1.397 . S
C392 C390 1.397 . S
C392 C393 1.384 . S
C392 H415 0.930 . S
C393 C392 1.384 . S
C393 C394 1.377 . S
C393 C396 1.481 . S
C394 C393 1.377 . S
C394 C395 1.389 . S
C394 H416 0.929 . S
C395 C391 1.397 . S
C395 C394 1.389 . S
C395 H417 0.931 . S
C396 C393 1.481 . S
C396 C397 1.387 . S
C396 C401 1.390 . S
C397 C396 1.387 . S
C397 C398 1.401 . S
C397 H418 0.930 . S
C398 C397 1.401 . S
C398 C399 1.376 . S
C398 C407 1.511 . S
C399 C398 1.376 . S
C399 C400 1.392 . S
C399 H420 0.931 . S
C400 C399 1.392 . S
C400 C401 1.361 . S
C400 C402 1.500 . S
C401 C396 1.390 . S
C401 C400 1.361 . S
C401 H419 0.931 . S
C402 C400 1.500 . S
C402 C403 1.371 . S
C402 C404 1.365 . S
C403 C402 1.371 . S
C403 C413 1.386 . S
C403 H421 0.931 . S
C404 C402 1.365 . S
C404 C405 1.409 . S
C404 H422 0.929 . S
C405 C404 1.409 . S
C405 C406 1.380 . S
C405 H423 0.930 . S
C406 C405 1.380 . S
C406 C413 1.357 . S
C407 C398 1.511 . S
C407 C408 1.341 . S
C407 C409 1.371 . S
C408 C407 1.341 . S
C408 C412 1.394 . S
C408 H424 0.930 . S
C409 C407 1.371 . S
C409 C410 1.392 . S
C409 H425 0.931 . S
C410 C409 1.392 . S
C410 C411 1.331 . S
C410 H428 0.932 . S
C411 C410 1.331 . S
C411 C412 1.336 . S
C412 C408 1.394 . S
C412 C411 1.336 . S
C412 H427 0.929 . S
C413 C403 1.386 . S
C413 C406 1.357 . S
C413 H426 0.928 . S
H414 C390 0.931 . S
H415 C392 0.930 . S
H416 C394 0.929 . S
H417 C395 0.931 . S
H418 C397 0.930 . S
H419 C401 0.931 . S
H420 C399 0.931 . S
H421 C403 0.931 . S
H422 C404 0.929 . S
H423 C405 0.930 . S
H424 C408 0.930 . S
H425 C409 0.931 . S
H426 C413 0.928 . S
H427 C412 0.929 . S
H428 C410 0.932 . S
C429 C430 1.386 . S
C429 C431 1.397 . S
C429 H453 0.931 . S
C430 C429 1.386 . S
C430 C434 1.397 . S
C431 C429 1.397 . S
C431 C432 1.384 . S
C431 H454 0.930 . S
C432 C431 1.384 . S
C432 C433 1.377 . S
C432 C435 1.481 . S
C433 C432 1.377 . S
C433 C434 1.389 . S
C433 H455 0.929 . S
C434 C430 1.397 . S
C434 C433 1.389 . S
C434 H456 0.931 . S
C435 C432 1.481 . S
C435 C436 1.387 . S
C435 C440 1.390 . S
C436 C435 1.387 . S
C436 C437 1.401 . S
C436 H457 0.930 . S
C437 C436 1.401 . S
C437 C438 1.376 . S
C437 C446 1.511 . S
C438 C437 1.376 . S
C438 C439 1.392 . S
C438 H459 0.931 . S
C439 C438 1.392 . S
C439 C440 1.361 . S
C439 C441 1.500 . S
C440 C435 1.390 . S
C440 C439 1.361 . S
C440 H458 0.931 . S
C441 C439 1.500 . S
C441 C442 1.371 . S
C441 C443 1.365 . S
C442 C441 1.371 . S
C442 C452 1.386 . S
C442 H460 0.931 . S
C443 C441 1.365 . S
C443 C444 1.409 . S
C443 H461 0.929 . S
C444 C443 1.409 . S
C444 C445 1.380 . S
C444 H462 0.930 . S
C445 C444 1.380 . S
C445 C452 1.357 . S
C446 C437 1.511 . S
C446 C447 1.341 . S
C446 C448 1.371 . S
C447 C446 1.341 . S
C447 C451 1.394 . S
C447 H463 0.930 . S
C448 C446 1.371 . S
C448 C449 1.392 . S
C448 H464 0.931 . S
C449 C448 1.392 . S
C449 C450 1.331 . S
C449 H467 0.932 . S
C450 C449 1.331 . S
C450 C451 1.336 . S
C451 C447 1.394 . S
C451 C450 1.336 . S
C451 H466 0.929 . S
C452 C442 1.386 . S
C452 C445 1.357 . S
C452 H465 0.928 . S
H453 C429 0.931 . S
H454 C431 0.930 . S
H455 C433 0.929 . S
H456 C434 0.931 . S
H457 C436 0.930 . S
H458 C440 0.931 . S
H459 C438 0.931 . S
H460 C442 0.931 . S
H461 C443 0.929 . S
H462 C444 0.930 . S
H463 C447 0.930 . S
H464 C448 0.931 . S
H465 C452 0.928 . S
H466 C451 0.929 . S
H467 C449 0.932 . S
C468 C469 1.386 . S
C468 C470 1.397 . S
C468 H492 0.931 . S
C469 C468 1.386 . S
C469 C473 1.397 . S
C470 C468 1.397 . S
C470 C471 1.384 . S
C470 H493 0.930 . S
C471 C470 1.384 . S
C471 C472 1.377 . S
C471 C474 1.481 . S
C472 C471 1.377 . S
C472 C473 1.389 . S
C472 H494 0.929 . S
C473 C469 1.397 . S
C473 C472 1.389 . S
C473 H495 0.931 . S
C474 C471 1.481 . S
C474 C475 1.387 . S
C474 C479 1.390 . S
C475 C474 1.387 . S
C475 C476 1.401 . S
C475 H496 0.930 . S
C476 C475 1.401 . S
C476 C477 1.376 . S
C476 C485 1.511 . S
C477 C476 1.376 . S
C477 C478 1.392 . S
C477 H498 0.931 . S
C478 C477 1.392 . S
C478 C479 1.361 . S
C478 C480 1.500 . S
C479 C474 1.390 . S
C479 C478 1.361 . S
C479 H497 0.931 . S
C480 C478 1.500 . S
C480 C481 1.371 . S
C480 C482 1.365 . S
C481 C480 1.371 . S
C481 C491 1.386 . S
C481 H499 0.931 . S
C482 C480 1.365 . S
C482 C483 1.409 . S
C482 H500 0.929 . S
C483 C482 1.409 . S
C483 C484 1.380 . S
C483 H501 0.930 . S
C484 C483 1.380 . S
C484 C491 1.357 . S
C485 C476 1.511 . S
C485 C486 1.341 . S
C485 C487 1.371 . S
C486 C485 1.341 . S
C486 C490 1.394 . S
C486 H502 0.930 . S
C487 C485 1.371 . S
C487 C488 1.392 . S
C487 H503 0.931 . S
C488 C487 1.392 . S
C488 C489 1.331 . S
C488 H506 0.932 . S
C489 C488 1.331 . S
C489 C490 1.336 . S
C490 C486 1.394 . S
C490 C489 1.336 . S
C490 H505 0.929 . S
C491 C481 1.386 . S
C491 C484 1.357 . S
C491 H504 0.928 . S
H492 C468 0.931 . S
H493 C470 0.930 . S
H494 C472 0.929 . S
H495 C473 0.931 . S
H496 C475 0.930 . S
H497 C479 0.931 . S
H498 C477 0.931 . S
H499 C481 0.931 . S
H500 C482 0.929 . S
H501 C483 0.930 . S
H502 C486 0.930 . S
H503 C487 0.931 . S
H504 C491 0.928 . S
H505 C490 0.929 . S
H506 C488 0.932 . S
C507 C508 1.386 . S
C507 C509 1.397 . S
C507 H531 0.931 . S
C508 C507 1.386 . S
C508 C512 1.397 . S
C509 C507 1.397 . S
C509 C510 1.384 . S
C509 H532 0.930 . S
C510 C509 1.384 . S
C510 C511 1.377 . S
C510 C513 1.481 . S
C511 C510 1.377 . S
C511 C512 1.389 . S
C511 H533 0.929 . S
C512 C508 1.397 . S
C512 C511 1.389 . S
C512 H534 0.931 . S
C513 C510 1.481 . S
C513 C514 1.387 . S
C513 C518 1.390 . S
C514 C513 1.387 . S
C514 C515 1.401 . S
C514 H535 0.930 . S
C515 C514 1.401 . S
C515 C516 1.376 . S
C515 C524 1.511 . S
C516 C515 1.376 . S
C516 C517 1.392 . S
C516 H537 0.931 . S
C517 C516 1.392 . S
C517 C518 1.361 . S
C517 C519 1.500 . S
C518 C513 1.390 . S
C518 C517 1.361 . S
C518 H536 0.931 . S
C519 C517 1.500 . S
C519 C520 1.371 . S
C519 C521 1.365 . S
C520 C519 1.371 . S
C520 C530 1.386 . S
C520 H538 0.931 . S
C521 C519 1.365 . S
C521 C522 1.409 . S
C521 H539 0.929 . S
C522 C521 1.409 . S
C522 C523 1.380 . S
C522 H540 0.930 . S
C523 C522 1.380 . S
C523 C530 1.357 . S
C524 C515 1.511 . S
C524 C525 1.341 . S
C524 C526 1.371 . S
C525 C524 1.341 . S
C525 C529 1.394 . S
C525 H541 0.930 . S
C526 C524 1.371 . S
C526 C527 1.392 . S
C526 H542 0.931 . S
C527 C526 1.392 . S
C527 C528 1.331 . S
C527 H545 0.932 . S
C528 C527 1.331 . S
C528 C529 1.336 . S
C529 C525 1.394 . S
C529 C528 1.336 . S
C529 H544 0.929 . S
C530 C520 1.386 . S
C530 C523 1.357 . S
C530 H543 0.928 . S
H531 C507 0.931 . S
H532 C509 0.930 . S
H533 C511 0.929 . S
H534 C512 0.931 . S
H535 C514 0.930 . S
H536 C518 0.931 . S
H537 C516 0.931 . S
H538 C520 0.931 . S
H539 C521 0.929 . S
H540 C522 0.930 . S
H541 C525 0.930 . S
H542 C526 0.931 . S
H543 C530 0.928 . S
H544 C529 0.929 . S
H545 C527 0.932 . S
C546 C547 1.386 . S
C546 C548 1.397 . S
C546 H570 0.931 . S
C547 C546 1.386 . S
C547 C551 1.397 . S
C548 C546 1.397 . S
C548 C549 1.384 . S
C548 H571 0.930 . S
C549 C548 1.384 . S
C549 C550 1.377 . S
C549 C552 1.481 . S
C550 C549 1.377 . S
C550 C551 1.389 . S
C550 H572 0.929 . S
C551 C547 1.397 . S
C551 C550 1.389 . S
C551 H573 0.931 . S
C552 C549 1.481 . S
C552 C553 1.387 . S
C552 C557 1.390 . S
C553 C552 1.387 . S
C553 C554 1.401 . S
C553 H574 0.930 . S
C554 C553 1.401 . S
C554 C555 1.376 . S
C554 C563 1.511 . S
C555 C554 1.376 . S
C555 C556 1.392 . S
C555 H576 0.931 . S
C556 C555 1.392 . S
C556 C557 1.361 . S
C556 C558 1.500 . S
C557 C552 1.390 . S
C557 C556 1.361 . S
C557 H575 0.931 . S
C558 C556 1.500 . S
C558 C559 1.371 . S
C558 C560 1.365 . S
C559 C558 1.371 . S
C559 C569 1.386 . S
C559 H577 0.931 . S
C560 C558 1.365 . S
C560 C561 1.409 . S
C560 H578 0.929 . S
C561 C560 1.409 . S
C561 C562 1.380 . S
C561 H579 0.930 . S
C562 C561 1.380 . S
C562 C569 1.357 . S
C563 C554 1.511 . S
C563 C564 1.341 . S
C563 C565 1.371 . S
C564 C563 1.341 . S
C564 C568 1.394 . S
C564 H580 0.930 . S
C565 C563 1.371 . S
C565 C566 1.392 . S
C565 H581 0.931 . S
C566 C565 1.392 . S
C566 C567 1.331 . S
C566 H584 0.932 . S
C567 C566 1.331 . S
C567 C568 1.336 . S
C568 C564 1.394 . S
C568 C567 1.336 . S
C568 H583 0.929 . S
C569 C559 1.386 . S
C569 C562 1.357 . S
C569 H582 0.928 . S
H570 C546 0.931 . S
H571 C548 0.930 . S
H572 C550 0.929 . S
H573 C551 0.931 . S
H574 C553 0.930 . S
H575 C557 0.931 . S
H576 C555 0.931 . S
H577 C559 0.931 . S
H578 C560 0.929 . S
H579 C561 0.930 . S
H580 C564 0.930 . S
H581 C565 0.931 . S
H582 C569 0.928 . S
H583 C568 0.929 . S
H584 C566 0.932 . S
C585 C586 1.386 . S
C585 C587 1.397 . S
C585 H609 0.931 . S
C586 C585 1.386 . S
C586 C590 1.397 . S
C587 C585 1.397 . S
C587 C588 1.384 . S
C587 H610 0.930 . S
C588 C587 1.384 . S
C588 C589 1.377 . S
C588 C591 1.481 . S
C589 C588 1.377 . S
C589 C590 1.389 . S
C589 H611 0.929 . S
C590 C586 1.397 . S
C590 C589 1.389 . S
C590 H612 0.931 . S
C591 C588 1.481 . S
C591 C592 1.387 . S
C591 C596 1.390 . S
C592 C591 1.387 . S
C592 C593 1.401 . S
C592 H613 0.930 . S
C593 C592 1.401 . S
C593 C594 1.376 . S
C593 C602 1.511 . S
C594 C593 1.376 . S
C594 C595 1.392 . S
C594 H615 0.931 . S
C595 C594 1.392 . S
C595 C596 1.361 . S
C595 C597 1.500 . S
C596 C591 1.390 . S
C596 C595 1.361 . S
C596 H614 0.931 . S
C597 C595 1.500 . S
C597 C598 1.371 . S
C597 C599 1.365 . S
C598 C597 1.371 . S
C598 C608 1.386 . S
C598 H616 0.931 . S
C599 C597 1.365 . S
C599 C600 1.409 . S
C599 H617 0.929 . S
C600 C599 1.409 . S
C600 C601 1.380 . S
C600 H618 0.930 . S
C601 C600 1.380 . S
C601 C608 1.357 . S
C602 C593 1.511 . S
C602 C603 1.341 . S
C602 C604 1.371 . S
C603 C602 1.341 . S
C603 C607 1.394 . S
C603 H619 0.930 . S
C604 C602 1.371 . S
C604 C605 1.392 . S
C604 H620 0.931 . S
C605 C604 1.392 . S
C605 C606 1.331 . S
C605 H623 0.932 . S
C606 C605 1.331 . S
C606 C607 1.336 . S
C607 C603 1.394 . S
C607 C606 1.336 . S
C607 H622 0.929 . S
C608 C598 1.386 . S
C608 C601 1.357 . S
C608 H621 0.928 . S
H609 C585 0.931 . S
H610 C587 0.930 . S
H611 C589 0.929 . S
H612 C590 0.931 . S
H613 C592 0.930 . S
H614 C596 0.931 . S
H615 C594 0.931 . S
H616 C598 0.931 . S
H617 C599 0.929 . S
H618 C600 0.930 . S
H619 C603 0.930 . S
H620 C604 0.931 . S
H621 C608 0.928 . S
H622 C607 0.929 . S
H623 C605 0.932 . S
C624 C625 1.386 . S
C624 C626 1.397 . S
C624 H648 0.931 . S
C625 C624 1.386 . S
C625 C629 1.397 . S
C626 C624 1.397 . S
C626 C627 1.384 . S
C626 H649 0.930 . S
C627 C626 1.384 . S
C627 C628 1.377 . S
C627 C630 1.481 . S
C628 C627 1.377 . S
C628 C629 1.389 . S
C628 H650 0.929 . S
C629 C625 1.397 . S
C629 C628 1.389 . S
C629 H651 0.931 . S
C630 C627 1.481 . S
C630 C631 1.387 . S
C630 C635 1.390 . S
C631 C630 1.387 . S
C631 C632 1.401 . S
C631 H652 0.930 . S
C632 C631 1.401 . S
C632 C633 1.376 . S
C632 C641 1.511 . S
C633 C632 1.376 . S
C633 C634 1.392 . S
C633 H654 0.931 . S
C634 C633 1.392 . S
C634 C635 1.361 . S
C634 C636 1.500 . S
C635 C630 1.390 . S
C635 C634 1.361 . S
C635 H653 0.931 . S
C636 C634 1.500 . S
C636 C637 1.371 . S
C636 C638 1.365 . S
C637 C636 1.371 . S
C637 C647 1.386 . S
C637 H655 0.931 . S
C638 C636 1.365 . S
C638 C639 1.409 . S
C638 H656 0.929 . S
C639 C638 1.409 . S
C639 C640 1.380 . S
C639 H657 0.930 . S
C640 C639 1.380 . S
C640 C647 1.357 . S
C641 C632 1.511 . S
C641 C642 1.341 . S
C641 C643 1.371 . S
C642 C641 1.341 . S
C642 C646 1.394 . S
C642 H658 0.930 . S
C643 C641 1.371 . S
C643 C644 1.392 . S
C643 H659 0.931 . S
C644 C643 1.392 . S
C644 C645 1.331 . S
C644 H662 0.932 . S
C645 C644 1.331 . S
C645 C646 1.336 . S
C646 C642 1.394 . S
C646 C645 1.336 . S
C646 H661 0.929 . S
C647 C637 1.386 . S
C647 C640 1.357 . S
C647 H660 0.928 . S
H648 C624 0.931 . S
H649 C626 0.930 . S
H650 C628 0.929 . S
H651 C629 0.931 . S
H652 C631 0.930 . S
H653 C635 0.931 . S
H654 C633 0.931 . S
H655 C637 0.931 . S
H656 C638 0.929 . S
H657 C639 0.930 . S
H658 C642 0.930 . S
H659 C643 0.931 . S
H660 C647 0.928 . S
H661 C646 0.929 . S
H662 C644 0.932 . S
C663 C664 1.386 . S
C663 C665 1.397 . S
C663 H687 0.931 . S
C664 C663 1.386 . S
C664 C668 1.397 . S
C665 C663 1.397 . S
C665 C666 1.384 . S
C665 H688 0.930 . S
C666 C665 1.384 . S
C666 C667 1.377 . S
C666 C669 1.481 . S
C667 C666 1.377 . S
C667 C668 1.389 . S
C667 H689 0.929 . S
C668 C664 1.397 . S
C668 C667 1.389 . S
C668 H690 0.931 . S
C669 C666 1.481 . S
C669 C670 1.387 . S
C669 C674 1.390 . S
C670 C669 1.387 . S
C670 C671 1.401 . S
C670 H691 0.930 . S
C671 C670 1.401 . S
C671 C672 1.376 . S
C671 C680 1.511 . S
C672 C671 1.376 . S
C672 C673 1.392 . S
C672 H693 0.931 . S
C673 C672 1.392 . S
C673 C674 1.361 . S
C673 C675 1.500 . S
C674 C669 1.390 . S
C674 C673 1.361 . S
C674 H692 0.931 . S
C675 C673 1.500 . S
C675 C676 1.371 . S
C675 C677 1.365 . S
C676 C675 1.371 . S
C676 C686 1.386 . S
C676 H694 0.931 . S
C677 C675 1.365 . S
C677 C678 1.409 . S
C677 H695 0.929 . S
C678 C677 1.409 . S
C678 C679 1.380 . S
C678 H696 0.930 . S
C679 C678 1.380 . S
C679 C686 1.357 . S
C680 C671 1.511 . S
C680 C681 1.341 . S
C680 C682 1.371 . S
C681 C680 1.341 . S
C681 C685 1.394 . S
C681 H697 0.930 . S
C682 C680 1.371 . S
C682 C683 1.392 . S
C682 H698 0.931 . S
C683 C682 1.392 . S
C683 C684 1.331 . S
C683 H701 0.932 . S
C684 C683 1.331 . S
C684 C685 1.336 . S
C685 C681 1.394 . S
C685 C684 1.336 . S
C685 H700 0.929 . S
C686 C676 1.386 . S
C686 C679 1.357 . S
C686 H699 0.928 . S
H687 C663 0.931 . S
H688 C665 0.930 . S
H689 C667 0.929 . S
H690 C668 0.931 . S
H691 C670 0.930 . S
H692 C674 0.931 . S
H693 C672 0.931 . S
H694 C676 0.931 . S
H695 C677 0.929 . S
H696 C678 0.930 . S
H697 C681 0.930 . S
H698 C682 0.931 . S
H699 C686 0.928 . S
H700 C685 0.929 . S
H701 C683 0.932 . S
Tb702 O705 2.453 . S
Tb702 O706 2.596 1_545 S
Tb702 O707 2.374 1_545 S
Tb702 O715 2.343 1_554 S
Tb702 O717 2.353 . S
Tb702 O719 2.427 1_554 S
Tb702 O720 2.513 1_554 S
C703 O707 1.251 . S
C703 O709 1.258 1_554 S
Tb704 O706 2.343 1_556 S
Tb704 O709 2.355 . S
Tb704 O712 2.427 1_556 S
Tb704 O713 2.513 1_556 S
Tb704 O714 2.453 . S
Tb704 O715 2.596 1_565 S
Tb704 O716 2.374 1_565 S
O705 Tb702 2.453 . S
O705 C721 1.245 . S
O706 Tb702 2.596 1_565 S
O706 Tb704 2.343 1_554 S
O706 C721 1.259 1_565 S
O707 Tb702 2.374 1_565 S
O707 C703 1.251 . S
C708 O712 1.275 . S
C708 O713 1.246 . S
O709 C703 1.258 1_556 S
O709 Tb704 2.355 . S
C710 O714 1.246 . S
C710 O715 1.259 1_565 S
C711 O716 1.250 . S
C711 O717 1.263 1_556 S
O712 Tb704 2.427 1_554 S
O712 C708 1.275 . S
O713 Tb704 2.513 1_554 S
O713 C708 1.246 . S
O714 Tb704 2.453 . S
O714 C710 1.246 . S
O715 Tb702 2.343 1_556 S
O715 Tb704 2.596 1_545 S
O715 C710 1.259 1_545 S
O716 Tb704 2.374 1_545 S
O716 C711 1.250 . S
O717 Tb702 2.353 . S
O717 C711 1.263 1_554 S
C718 O719 1.275 . S
C718 O720 1.246 . S
O719 Tb702 2.427 1_556 S
O719 C718 1.275 . S
O720 Tb702 2.513 1_556 S
O720 C718 1.246 . S
C721 O705 1.245 . S
C721 O706 1.259 1_545 S
Tb722 O725 2.453 . S
Tb722 O726 2.596 1_655 S
Tb722 O727 2.374 1_655 S
Tb722 O735 2.343 1_554 S
Tb722 O737 2.365 . S
Tb722 O739 2.427 1_554 S
Tb722 O740 2.513 1_554 S
C723 O727 1.251 . S
C723 O729 1.263 . S
Tb724 O726 2.343 1_556 S
Tb724 O729 2.353 1_556 S
Tb724 O732 2.427 1_556 S
Tb724 O733 2.513 1_556 S
Tb724 O734 2.453 . S
Tb724 O735 2.596 1_455 S
Tb724 O736 2.374 1_455 S
O725 Tb722 2.453 . S
O725 C741 1.245 1_655 S
O726 Tb722 2.596 1_455 S
O726 Tb724 2.343 1_554 S
O726 C741 1.259 . S
O727 Tb722 2.374 1_455 S
O727 C723 1.251 . S
C728 O732 1.275 . S
C728 O733 1.246 . S
O729 C723 1.263 . S
O729 Tb724 2.353 1_554 S
C730 O734 1.281 . S
C730 O735 1.246 1_455 S
C731 O736 1.250 . S
C731 O737 1.232 1_556 S
O732 Tb724 2.427 1_554 S
O732 C728 1.275 . S
O733 Tb724 2.513 1_554 S
O733 C728 1.246 . S
O734 Tb724 2.453 . S
O734 C730 1.281 . S
O735 Tb722 2.343 1_556 S
O735 Tb724 2.596 1_655 S
O735 C730 1.246 1_655 S
O736 Tb724 2.374 1_655 S
O736 C731 1.250 . S
O737 Tb722 2.365 . S
O737 C731 1.232 1_554 S
C738 O739 1.275 . S
C738 O740 1.246 . S
O739 Tb722 2.427 1_556 S
O739 C738 1.275 . S
O740 Tb722 2.513 1_556 S
O740 C738 1.246 . S
C741 O725 1.245 1_455 S
C741 O726 1.259 . S
Tb742 O745 2.453 . S
Tb742 O746 2.596 . S
Tb742 O747 2.374 . S
Tb742 O755 2.343 1_556 S
Tb742 O757 2.353 1_556 S
Tb742 O759 2.427 1_556 S
Tb742 O760 2.513 1_556 S
C743 O747 1.251 . S
C743 O749 1.263 1_556 S
Tb744 O746 2.343 1_554 S
Tb744 O749 2.353 . S
Tb744 O752 2.427 1_554 S
Tb744 O753 2.513 1_554 S
Tb744 O754 2.453 . S
Tb744 O755 2.596 . S
Tb744 O756 2.374 . S
O745 Tb742 2.453 . S
O745 C761 1.245 . S
O746 Tb742 2.596 . S
O746 Tb744 2.343 1_556 S
O746 C761 1.259 . S
O747 Tb742 2.374 . S
O747 C743 1.251 . S
C748 O752 1.275 . S
C748 O753 1.246 . S
O749 C743 1.263 1_554 S
O749 Tb744 2.353 . S
C750 O754 1.245 . S
C750 O755 1.259 . S
C751 O756 1.250 . S
C751 O757 1.263 . S
O752 Tb744 2.427 1_556 S
O752 C748 1.275 . S
O753 Tb744 2.513 1_556 S
O753 C748 1.246 . S
O754 Tb744 2.453 . S
O754 C750 1.245 . S
O755 Tb742 2.343 1_554 S
O755 Tb744 2.596 . S
O755 C750 1.259 . S
O756 Tb744 2.374 . S
O756 C751 1.250 . S
O757 Tb742 2.353 1_554 S
O757 C751 1.263 . S
C758 O759 1.275 . S
C758 O760 1.246 . S
O759 Tb742 2.427 1_554 S
O759 C758 1.275 . S
O760 Tb742 2.513 1_554 S
O760 C758 1.246 . S
C761 O745 1.245 . S
C761 O746 1.259 . S
Tb762 O765 2.453 . S
Tb762 O766 2.596 . S
Tb762 O767 2.374 . S
Tb762 O775 2.343 . S
Tb762 O777 2.353 . S
Tb762 O779 2.427 . S
Tb762 O780 2.513 . S
C763 O767 1.251 . S
C763 O769 1.263 . S
Tb764 O766 2.343 . S
Tb764 O769 2.353 . S
Tb764 O772 2.427 . S
Tb764 O773 2.513 . S
Tb764 O774 2.453 . S
Tb764 O775 2.596 . S
Tb764 O776 2.374 . S
O765 Tb762 2.453 . S
O765 C781 1.245 . S
O766 Tb762 2.596 . S
O766 Tb764 2.343 . S
O766 C781 1.259 . S
O767 Tb762 2.374 . S
O767 C763 1.251 . S
C768 O772 1.275 . S
C768 O773 1.246 . S
O769 C763 1.263 . S
O769 Tb764 2.353 . S
C770 O774 1.245 . S
C770 O775 1.259 . S
C771 O776 1.250 . S
C771 O777 1.263 . S
O772 Tb764 2.427 . S
O772 C768 1.275 . S
O773 Tb764 2.513 . S
O773 C768 1.246 . S
O774 Tb764 2.453 . S
O774 C770 1.245 . S
O775 Tb762 2.343 . S
O775 Tb764 2.596 . S
O775 C770 1.259 . S
O776 Tb764 2.374 . S
O776 C771 1.250 . S
O777 Tb762 2.353 . S
O777 C771 1.263 . S
C778 O779 1.275 . S
C778 O780 1.246 . S
O779 Tb762 2.427 . S
O779 C778 1.275 . S
O780 Tb762 2.513 . S
O780 C778 1.246 . S
C781 O765 1.245 . S
C781 O766 1.259 . S
Tb782 O785 2.453 . S
Tb782 O786 2.596 . S
Tb782 O787 2.374 . S
Tb782 O795 2.343 . S
Tb782 O797 2.353 . S
Tb782 O799 2.427 . S
Tb782 O800 2.513 . S
C783 O787 1.251 . S
C783 O789 1.263 . S
Tb784 O786 2.343 . S
Tb784 O789 2.353 . S
Tb784 O792 2.427 . S
Tb784 O793 2.513 . S
Tb784 O794 2.453 . S
Tb784 O795 2.596 . S
Tb784 O796 2.374 . S
O785 Tb782 2.453 . S
O785 C801 1.245 . S
O786 Tb782 2.596 . S
O786 Tb784 2.343 . S
O786 C801 1.259 . S
O787 Tb782 2.374 . S
O787 C783 1.251 . S
C788 O792 1.275 . S
C788 O793 1.246 . S
O789 C783 1.263 . S
O789 Tb784 2.353 . S
C790 O794 1.245 . S
C790 O795 1.259 . S
C791 O796 1.250 . S
C791 O797 1.263 . S
O792 Tb784 2.427 . S
O792 C788 1.275 . S
O793 Tb784 2.513 . S
O793 C788 1.246 . S
O794 Tb784 2.453 . S
O794 C790 1.245 . S
O795 Tb782 2.343 . S
O795 Tb784 2.596 . S
O795 C790 1.259 . S
O796 Tb784 2.374 . S
O796 C791 1.250 . S
O797 Tb782 2.353 . S
O797 C791 1.263 . S
C798 O799 1.275 . S
C798 O800 1.246 . S
O799 Tb782 2.427 . S
O799 C798 1.275 . S
O800 Tb782 2.513 . S
O800 C798 1.246 . S
C801 O785 1.245 . S
C801 O786 1.259 . S
Tb802 O805 2.453 . S
Tb802 O806 2.596 . S
Tb802 O807 2.374 . S
Tb802 O815 2.343 . S
Tb802 O817 2.353 . S
Tb802 O819 2.427 . S
Tb802 O820 2.513 . S
C803 O807 1.251 . S
C803 O809 1.263 . S
Tb804 O806 2.343 . S
Tb804 O809 2.353 . S
Tb804 O812 2.427 . S
Tb804 O813 2.513 . S
Tb804 O814 2.453 . S
Tb804 O815 2.596 . S
Tb804 O816 2.374 . S
O805 Tb802 2.453 . S
O805 C821 1.245 . S
O806 Tb802 2.596 . S
O806 Tb804 2.343 . S
O806 C821 1.259 . S
O807 Tb802 2.374 . S
O807 C803 1.251 . S
C808 O812 1.275 . S
C808 O813 1.246 . S
O809 C803 1.263 . S
O809 Tb804 2.353 . S
C810 O814 1.245 . S
C810 O815 1.259 . S
C811 O816 1.250 . S
C811 O817 1.263 . S
O812 Tb804 2.427 . S
O812 C808 1.275 . S
O813 Tb804 2.513 . S
O813 C808 1.246 . S
O814 Tb804 2.453 . S
O814 C810 1.245 . S
O815 Tb802 2.343 . S
O815 Tb804 2.596 . S
O815 C810 1.259 . S
O816 Tb804 2.374 . S
O816 C811 1.250 . S
O817 Tb802 2.353 . S
O817 C811 1.263 . S
C818 O819 1.275 . S
C818 O820 1.246 . S
O819 Tb802 2.427 . S
O819 C818 1.275 . S
O820 Tb802 2.513 . S
O820 C818 1.246 . S
C821 O805 1.245 . S
C821 O806 1.259 . S
Tb822 O825 2.453 . S
Tb822 O826 2.596 . S
Tb822 O827 2.374 . S
Tb822 O835 2.343 . S
Tb822 O837 2.353 . S
Tb822 O839 2.427 . S
Tb822 O840 2.513 . S
C823 O827 1.251 . S
C823 O829 1.263 . S
Tb824 O826 2.343 . S
Tb824 O829 2.353 . S
Tb824 O832 2.427 . S
Tb824 O833 2.513 . S
Tb824 O834 2.453 . S
Tb824 O835 2.596 . S
Tb824 O836 2.374 . S
O825 Tb822 2.453 . S
O825 C841 1.245 . S
O826 Tb822 2.596 . S
O826 Tb824 2.343 . S
O826 C841 1.259 . S
O827 Tb822 2.374 . S
O827 C823 1.251 . S
C828 O832 1.275 . S
C828 O833 1.246 . S
O829 C823 1.263 . S
O829 Tb824 2.353 . S
C830 O834 1.245 . S
C830 O835 1.259 . S
C831 O836 1.250 . S
C831 O837 1.263 . S
O832 Tb824 2.427 . S
O832 C828 1.275 . S
O833 Tb824 2.513 . S
O833 C828 1.246 . S
O834 Tb824 2.453 . S
O834 C830 1.245 . S
O835 Tb822 2.343 . S
O835 Tb824 2.596 . S
O835 C830 1.259 . S
O836 Tb824 2.374 . S
O836 C831 1.250 . S
O837 Tb822 2.353 . S
O837 C831 1.263 . S
C838 O839 1.275 . S
C838 O840 1.246 . S
O839 Tb822 2.427 . S
O839 C838 1.275 . S
O840 Tb822 2.513 . S
O840 C838 1.246 . S
C841 O825 1.245 . S
C841 O826 1.259 . S
Tb842 O845 2.453 . S
Tb842 O846 2.596 . S
Tb842 O847 2.374 . S
Tb842 O855 2.343 . S
Tb842 O857 2.353 . S
Tb842 O859 2.427 . S
Tb842 O860 2.513 . S
C843 O847 1.251 . S
C843 O849 1.263 . S
Tb844 O846 2.343 . S
Tb844 O849 2.353 . S
Tb844 O852 2.427 . S
Tb844 O853 2.513 . S
Tb844 O854 2.453 . S
Tb844 O855 2.596 . S
Tb844 O856 2.374 . S
O845 Tb842 2.453 . S
O845 C861 1.245 . S
O846 Tb842 2.596 . S
O846 Tb844 2.343 . S
O846 C861 1.259 . S
O847 Tb842 2.374 . S
O847 C843 1.251 . S
C848 O852 1.275 . S
C848 O853 1.246 . S
O849 C843 1.263 . S
O849 Tb844 2.353 . S
C850 O854 1.245 . S
C850 O855 1.259 . S
C851 O856 1.250 . S
C851 O857 1.263 . S
O852 Tb844 2.427 . S
O852 C848 1.275 . S
O853 Tb844 2.513 . S
O853 C848 1.246 . S
O854 Tb844 2.453 . S
O854 C850 1.245 . S
O855 Tb842 2.343 . S
O855 Tb844 2.596 . S
O855 C850 1.259 . S
O856 Tb844 2.374 . S
O856 C851 1.250 . S
O857 Tb842 2.353 . S
O857 C851 1.263 . S
C858 O859 1.275 . S
C858 O860 1.246 . S
O859 Tb842 2.427 . S
O859 C858 1.275 . S
O860 Tb842 2.513 . S
O860 C858 1.246 . S
C861 O845 1.245 . S
C861 O846 1.259 . S
Tb862 O865 2.453 . S
Tb862 O866 2.596 . S
Tb862 O867 2.374 . S
Tb862 O875 2.343 . S
Tb862 O877 2.353 . S
Tb862 O879 2.427 . S
Tb862 O880 2.513 . S
C863 O867 1.251 . S
C863 O869 1.263 . S
Tb864 O866 2.343 . S
Tb864 O869 2.353 . S
Tb864 O872 2.427 . S
Tb864 O873 2.513 . S
Tb864 O874 2.453 . S
Tb864 O875 2.596 . S
Tb864 O876 2.374 . S
O865 Tb862 2.453 . S
O865 C881 1.245 . S
O866 Tb862 2.596 . S
O866 Tb864 2.343 . S
O866 C881 1.259 . S
O867 Tb862 2.374 . S
O867 C863 1.251 . S
C868 O872 1.275 . S
C868 O873 1.246 . S
O869 C863 1.263 . S
O869 Tb864 2.353 . S
C870 O874 1.245 . S
C870 O875 1.259 . S
C871 O876 1.250 . S
C871 O877 1.263 . S
O872 Tb864 2.427 . S
O872 C868 1.275 . S
O873 Tb864 2.513 . S
O873 C868 1.246 . S
O874 Tb864 2.453 . S
O874 C870 1.245 . S
O875 Tb862 2.343 . S
O875 Tb864 2.596 . S
O875 C870 1.259 . S
O876 Tb864 2.374 . S
O876 C871 1.250 . S
O877 Tb862 2.353 . S
O877 C871 1.263 . S
C878 O879 1.275 . S
C878 O880 1.246 . S
O879 Tb862 2.427 . S
O879 C878 1.275 . S
O880 Tb862 2.513 . S
O880 C878 1.246 . S
C881 O865 1.245 . S
C881 O866 1.259 . S
H882 C890 0.950 . S
H883 C895 0.950 . S
H884 C892 0.950 . S
H885 C894 0.950 . S
H886 C896 0.950 . S
H887 C898 0.950 . S
H888 C900 0.950 . S
H889 C901 0.950 . S
C890 H882 0.950 . S
C890 C891 1.386 . S
C890 C892 1.391 . S
C891 C890 1.386 . S
C891 C895 1.393 . S
C892 H884 0.950 . S
C892 C890 1.391 . S
C892 C893 1.400 . S
C893 C892 1.400 . S
C893 C894 1.398 . S
C893 C899 1.491 . S
C894 H885 0.950 . S
C894 C893 1.398 . S
C894 C895 1.391 . S
C895 H883 0.950 . S
C895 C891 1.393 . S
C895 C894 1.391 . S
C896 H886 0.950 . S
C896 C897 1.386 . S
C896 C898 1.391 . S
C897 C896 1.386 . S
C897 C901 1.393 . S
C898 H887 0.950 . S
C898 C896 1.391 . S
C898 C899 1.400 . S
C899 C893 1.491 . S
C899 C898 1.400 . S
C899 C900 1.398 . S
C900 H888 0.950 . S
C900 C899 1.398 . S
C900 C901 1.391 . S
C901 H889 0.950 . S
C901 C897 1.393 . S
C901 C900 1.391 . S
H902 C910 0.950 . S
H903 C915 0.950 . S
H904 C912 0.950 . S
H905 C914 0.950 . S
H906 C916 0.950 . S
H907 C918 0.950 . S
H908 C920 0.950 . S
H909 C921 0.950 . S
C910 H902 0.950 . S
C910 C911 1.386 . S
C910 C912 1.391 . S
C911 C910 1.386 . S
C911 C915 1.393 . S
C912 H904 0.950 . S
C912 C910 1.391 . S
C912 C913 1.400 . S
C913 C912 1.400 . S
C913 C914 1.398 . S
C913 C919 1.491 . S
C914 H905 0.950 . S
C914 C913 1.398 . S
C914 C915 1.391 . S
C915 H903 0.950 . S
C915 C911 1.393 . S
C915 C914 1.391 . S
C916 H906 0.950 . S
C916 C917 1.386 . S
C916 C918 1.391 . S
C917 C916 1.386 . S
C917 C921 1.393 . S
C918 H907 0.950 . S
C918 C916 1.391 . S
C918 C919 1.400 . S
C919 C913 1.491 . S
C919 C918 1.400 . S
C919 C920 1.398 . S
C920 H908 0.950 . S
C920 C919 1.398 . S
C920 C921 1.391 . S
C921 H909 0.950 . S
C921 C917 1.393 . S
C921 C920 1.391 . S
H922 C930 0.950 . S
H923 C935 0.950 . S
H924 C932 0.950 . S
H925 C934 0.950 . S
H926 C936 0.950 . S
H927 C938 0.950 . S
H928 C940 0.950 . S
H929 C941 0.950 . S
C930 H922 0.950 . S
C930 C931 1.386 . S
C930 C932 1.391 . S
C931 C930 1.386 . S
C931 C935 1.393 . S
C932 H924 0.950 . S
C932 C930 1.391 . S
C932 C933 1.400 . S
C933 C932 1.400 . S
C933 C934 1.398 . S
C933 C939 1.491 . S
C934 H925 0.950 . S
C934 C933 1.398 . S
C934 C935 1.391 . S
C935 H923 0.950 . S
C935 C931 1.393 . S
C935 C934 1.391 . S
C936 H926 0.950 . S
C936 C937 1.386 . S
C936 C938 1.391 . S
C937 C936 1.386 . S
C937 C941 1.393 . S
C938 H927 0.950 . S
C938 C936 1.391 . S
C938 C939 1.400 . S
C939 C933 1.491 . S
C939 C938 1.400 . S
C939 C940 1.398 . S
C940 H928 0.950 . S
C940 C939 1.398 . S
C940 C941 1.391 . S
C941 H929 0.950 . S
C941 C937 1.393 . S
C941 C940 1.391 . S
H942 C950 0.950 . S
H943 C955 0.950 . S
H944 C952 0.950 . S
H945 C954 0.950 . S
H946 C956 0.950 . S
H947 C958 0.950 . S
H948 C960 0.950 . S
H949 C961 0.950 . S
C950 H942 0.950 . S
C950 C951 1.386 . S
C950 C952 1.391 . S
C951 C950 1.386 . S
C951 C955 1.393 . S
C952 H944 0.950 . S
C952 C950 1.391 . S
C952 C953 1.400 . S
C953 C952 1.400 . S
C953 C954 1.398 . S
C953 C959 1.491 . S
C954 H945 0.950 . S
C954 C953 1.398 . S
C954 C955 1.391 . S
C955 H943 0.950 . S
C955 C951 1.393 . S
C955 C954 1.391 . S
C956 H946 0.950 . S
C956 C957 1.386 . S
C956 C958 1.391 . S
C957 C956 1.386 . S
C957 C961 1.393 . S
C958 H947 0.950 . S
C958 C956 1.391 . S
C958 C959 1.400 . S
C959 C953 1.491 . S
C959 C958 1.400 . S
C959 C960 1.398 . S
C960 H948 0.950 . S
C960 C959 1.398 . S
C960 C961 1.391 . S
C961 H949 0.950 . S
C961 C957 1.393 . S
C961 C960 1.391 . S
H962 C970 0.950 . S
H963 C975 0.950 . S
H964 C972 0.950 . S
H965 C974 0.950 . S
H966 C976 0.950 . S
H967 C978 0.950 . S
H968 C980 0.950 . S
H969 C981 0.950 . S
C970 H962 0.950 . S
C970 C971 1.386 . S
C970 C972 1.391 . S
C971 C970 1.386 . S
C971 C975 1.393 . S
C972 H964 0.950 . S
C972 C970 1.391 . S
C972 C973 1.400 . S
C973 C972 1.400 . S
C973 C974 1.398 . S
C973 C979 1.491 . S
C974 H965 0.950 . S
C974 C973 1.398 . S
C974 C975 1.391 . S
C975 H963 0.950 . S
C975 C971 1.393 . S
C975 C974 1.391 . S
C976 H966 0.950 . S
C976 C977 1.386 . S
C976 C978 1.391 . S
C977 C976 1.386 . S
C977 C981 1.393 . S
C978 H967 0.950 . S
C978 C976 1.391 . S
C978 C979 1.400 . S
C979 C973 1.491 . S
C979 C978 1.400 . S
C979 C980 1.398 . S
C980 H968 0.950 . S
C980 C979 1.398 . S
C980 C981 1.391 . S
C981 H969 0.950 . S
C981 C977 1.393 . S
C981 C980 1.391 . S
H982 C990 0.950 . S
H983 C995 0.950 . S
H984 C992 0.950 . S
H985 C994 0.950 . S
H986 C996 0.950 1_554 S
H987 C998 0.920 1_554 S
H988 C1000 0.950 . S
H989 C1001 0.950 . S
C990 H982 0.950 . S
C990 C991 1.386 . S
C990 C992 1.391 . S
C991 C990 1.386 . S
C991 C995 1.393 . S
C992 H984 0.950 . S
C992 C990 1.391 . S
C992 C993 1.400 . S
C993 C992 1.400 . S
C993 C994 1.398 . S
C993 C999 1.491 . S
C994 H985 0.950 . S
C994 C993 1.398 . S
C994 C995 1.391 . S
C995 H983 0.950 . S
C995 C991 1.393 . S
C995 C994 1.391 . S
C996 H986 0.950 1_556 S
C996 C997 1.386 . S
C996 C998 1.391 . S
C997 C996 1.386 . S
C997 C1001 1.393 . S
C998 H987 0.920 1_556 S
C998 C996 1.391 . S
C998 C999 1.400 . S
C999 C993 1.491 . S
C999 C998 1.400 . S
C999 C1000 1.398 . S
C1000 H988 0.950 . S
C1000 C999 1.398 . S
C1000 C1001 1.391 . S
C1001 H989 0.950 . S
C1001 C997 1.393 . S
C1001 C1000 1.391 . S
H1002 C1010 0.950 . S
H1003 C1015 0.950 . S
H1004 C1012 0.950 . S
H1005 C1014 0.950 . S
H1006 C1016 0.916 1_554 S
H1007 C1018 0.950 . S
H1008 C1020 0.950 . S
H1009 C1021 0.950 . S
C1010 H1002 0.950 . S
C1010 C1011 1.386 . S
C1010 C1012 1.391 . S
C1011 C1010 1.386 . S
C1011 C1015 1.393 . S
C1012 H1004 0.950 . S
C1012 C1010 1.391 . S
C1012 C1013 1.400 . S
C1013 C1012 1.400 . S
C1013 C1014 1.398 . S
C1013 C1019 1.491 . S
C1014 H1005 0.950 . S
C1014 C1013 1.398 . S
C1014 C1015 1.391 . S
C1015 H1003 0.950 . S
C1015 C1011 1.393 . S
C1015 C1014 1.391 . S
C1016 H1006 0.916 1_556 S
C1016 C1017 1.386 . S
C1016 C1018 1.391 . S
C1017 C1016 1.386 . S
C1017 C1021 1.393 . S
C1018 H1007 0.950 . S
C1018 C1016 1.391 . S
C1018 C1019 1.400 . S
C1019 C1013 1.491 . S
C1019 C1018 1.400 . S
C1019 C1020 1.398 . S
C1020 H1008 0.950 . S
C1020 C1019 1.398 . S
C1020 C1021 1.391 . S
C1021 H1009 0.950 . S
C1021 C1017 1.393 . S
C1021 C1020 1.391 . S
H1022 C1030 0.950 . S
H1023 C1035 0.950 . S
H1024 C1032 0.950 . S
H1025 C1034 0.950 . S
H1026 C1036 0.950 . S
H1027 C1038 0.950 . S
H1028 C1040 0.950 . S
H1029 C1041 0.950 . S
C1030 H1022 0.950 . S
C1030 C1031 1.386 . S
C1030 C1032 1.391 . S
C1031 C1030 1.386 . S
C1031 C1035 1.393 . S
C1032 H1024 0.950 . S
C1032 C1030 1.391 . S
C1032 C1033 1.400 . S
C1033 C1032 1.400 . S
C1033 C1034 1.398 . S
C1033 C1039 1.491 . S
C1034 H1025 0.950 . S
C1034 C1033 1.398 . S
C1034 C1035 1.391 . S
C1035 H1023 0.950 . S
C1035 C1031 1.393 . S
C1035 C1034 1.391 . S
C1036 H1026 0.950 . S
C1036 C1037 1.386 . S
C1036 C1038 1.391 . S
C1037 C1036 1.386 . S
C1037 C1041 1.393 . S
C1038 H1027 0.950 . S
C1038 C1036 1.391 . S
C1038 C1039 1.400 . S
C1039 C1033 1.491 . S
C1039 C1038 1.400 . S
C1039 C1040 1.398 . S
C1040 H1028 0.950 . S
C1040 C1039 1.398 . S
C1040 C1041 1.391 . S
C1041 H1029 0.950 . S
C1041 C1037 1.393 . S
C1041 C1040 1.391 . S
H1042 C1050 0.950 . S
H1043 C1055 0.950 . S
H1044 C1052 0.950 . S
H1045 C1054 0.950 . S
H1046 C1056 0.950 . S
H1047 C1058 0.950 . S
H1048 C1060 0.950 . S
H1049 C1061 0.950 . S
C1050 H1042 0.950 . S
C1050 C1051 1.386 . S
C1050 C1052 1.391 . S
C1051 C1050 1.386 . S
C1051 C1055 1.393 . S
C1052 H1044 0.950 . S
C1052 C1050 1.391 . S
C1052 C1053 1.400 . S
C1053 C1052 1.400 . S
C1053 C1054 1.398 . S
C1053 C1059 1.491 . S
C1054 H1045 0.950 . S
C1054 C1053 1.398 . S
C1054 C1055 1.391 . S
C1055 H1043 0.950 . S
C1055 C1051 1.393 . S
C1055 C1054 1.391 . S
C1056 H1046 0.950 . S
C1056 C1057 1.386 . S
C1056 C1058 1.391 . S
C1057 C1056 1.386 . S
C1057 C1061 1.393 . S
C1058 H1047 0.950 . S
C1058 C1056 1.391 . S
C1058 C1059 1.400 . S
C1059 C1053 1.491 . S
C1059 C1058 1.400 . S
C1059 C1060 1.398 . S
C1060 H1048 0.950 . S
C1060 C1059 1.398 . S
C1060 C1061 1.391 . S
C1061 H1049 0.950 . S
C1061 C1057 1.393 . S
C1061 C1060 1.391 . S
H1062 C1070 0.950 . S
H1063 C1075 0.950 . S
H1064 C1072 0.950 . S
H1065 C1074 0.950 . S
H1066 C1076 0.950 . S
H1067 C1078 0.950 . S
H1068 C1080 0.950 . S
H1069 C1081 0.950 . S
C1070 H1062 0.950 . S
C1070 C1071 1.386 . S
C1070 C1072 1.391 . S
C1071 C1070 1.386 . S
C1071 C1075 1.393 . S
C1072 H1064 0.950 . S
C1072 C1070 1.391 . S
C1072 C1073 1.400 . S
C1073 C1072 1.400 . S
C1073 C1074 1.398 . S
C1073 C1079 1.491 . S
C1074 H1065 0.950 . S
C1074 C1073 1.398 . S
C1074 C1075 1.391 . S
C1075 H1063 0.950 . S
C1075 C1071 1.393 . S
C1075 C1074 1.391 . S
C1076 H1066 0.950 . S
C1076 C1077 1.386 . S
C1076 C1078 1.391 . S
C1077 C1076 1.386 . S
C1077 C1081 1.393 . S
C1078 H1067 0.950 . S
C1078 C1076 1.391 . S
C1078 C1079 1.400 . S
C1079 C1073 1.491 . S
C1079 C1078 1.400 . S
C1079 C1080 1.398 . S
C1080 H1068 0.950 . S
C1080 C1079 1.398 . S
C1080 C1081 1.391 . S
C1081 H1069 0.950 . S
C1081 C1077 1.393 . S
C1081 C1080 1.391 . S
H1082 C1090 0.950 . S
H1083 C1095 0.950 . S
H1084 C1092 0.950 . S
H1085 C1094 0.950 . S
H1086 C1096 0.950 . S
H1087 C1098 0.950 . S
H1088 C1100 0.950 . S
H1089 C1101 0.950 . S
C1090 H1082 0.950 . S
C1090 C1091 1.386 . S
C1090 C1092 1.391 . S
C1091 C1090 1.386 . S
C1091 C1095 1.393 . S
C1092 H1084 0.950 . S
C1092 C1090 1.391 . S
C1092 C1093 1.400 . S
C1093 C1092 1.400 . S
C1093 C1094 1.398 . S
C1093 C1099 1.491 . S
C1094 H1085 0.950 . S
C1094 C1093 1.398 . S
C1094 C1095 1.391 . S
C1095 H1083 0.950 . S
C1095 C1091 1.393 . S
C1095 C1094 1.391 . S
C1096 H1086 0.950 . S
C1096 C1097 1.386 . S
C1096 C1098 1.391 . S
C1097 C1096 1.386 . S
C1097 C1101 1.393 . S
C1098 H1087 0.950 . S
C1098 C1096 1.391 . S
C1098 C1099 1.400 . S
C1099 C1093 1.491 . S
C1099 C1098 1.400 . S
C1099 C1100 1.398 . S
C1100 H1088 0.950 . S
C1100 C1099 1.398 . S
C1100 C1101 1.391 . S
C1101 H1089 0.950 . S
C1101 C1097 1.393 . S
C1101 C1100 1.391 . S
H1102 C1110 0.950 . S
H1103 C1115 0.950 . S
H1104 C1112 0.950 . S
H1105 C1114 0.950 . S
H1106 C1116 0.950 . S
H1107 C1118 0.950 . S
H1108 C1120 0.950 . S
H1109 C1121 0.950 . S
C1110 H1102 0.950 . S
C1110 C1111 1.386 . S
C1110 C1112 1.391 . S
C1111 C1110 1.386 . S
C1111 C1115 1.393 . S
C1112 H1104 0.950 . S
C1112 C1110 1.391 . S
C1112 C1113 1.400 . S
C1113 C1112 1.400 . S
C1113 C1114 1.398 . S
C1113 C1119 1.491 . S
C1114 H1105 0.950 . S
C1114 C1113 1.398 . S
C1114 C1115 1.391 . S
C1115 H1103 0.950 . S
C1115 C1111 1.393 . S
C1115 C1114 1.391 . S
C1116 H1106 0.950 . S
C1116 C1117 1.386 . S
C1116 C1118 1.391 . S
C1117 C1116 1.386 . S
C1117 C1121 1.393 . S
C1118 H1107 0.950 . S
C1118 C1116 1.391 . S
C1118 C1119 1.400 . S
C1119 C1113 1.491 . S
C1119 C1118 1.400 . S
C1119 C1120 1.398 . S
C1120 H1108 0.950 . S
C1120 C1119 1.398 . S
C1120 C1121 1.391 . S
C1121 H1109 0.950 . S
C1121 C1117 1.393 . S
C1121 C1120 1.391 . S
H1122 C1130 0.950 . S
H1123 C1135 0.950 . S
H1124 C1132 0.950 . S
H1125 C1134 0.952 1_455 S
H1126 C1136 0.950 . S
H1127 C1138 0.950 . S
H1128 C1140 0.950 . S
H1129 C1141 0.950 . S
C1130 H1122 0.950 . S
C1130 C1131 1.386 . S
C1130 C1132 1.391 1_655 S
C1131 C1130 1.386 . S
C1131 C1135 1.393 . S
C1132 H1124 0.950 . S
C1132 C1130 1.391 1_455 S
C1132 C1133 1.400 . S
C1133 C1132 1.400 . S
C1133 C1134 1.378 1_455 S
C1133 C1139 1.491 . S
C1134 H1125 0.952 1_655 S
C1134 C1133 1.378 1_655 S
C1134 C1135 1.409 . S
C1135 H1123 0.950 . S
C1135 C1131 1.393 . S
C1135 C1134 1.409 . S
C1136 H1126 0.950 . S
C1136 C1137 1.386 . S
C1136 C1138 1.391 . S
C1137 C1136 1.386 . S
C1137 C1141 1.393 . S
C1138 H1127 0.950 . S
C1138 C1136 1.391 . S
C1138 C1139 1.400 . S
C1139 C1133 1.491 . S
C1139 C1138 1.400 . S
C1139 C1140 1.398 . S
C1140 H1128 0.950 . S
C1140 C1139 1.398 . S
C1140 C1141 1.391 . S
C1141 H1129 0.950 . S
C1141 C1137 1.393 . S
C1141 C1140 1.391 . S
H1142 C1150 0.950 . S
H1143 C1155 0.950 . S
H1144 C1152 0.950 . S
H1145 C1154 0.950 . S
H1146 C1156 0.950 . S
H1147 C1158 0.950 . S
H1148 C1160 0.950 . S
H1149 C1161 0.950 . S
C1150 H1142 0.950 . S
C1150 C1151 1.386 . S
C1150 C1152 1.391 . S
C1151 C1150 1.386 . S
C1151 C1155 1.393 . S
C1152 H1144 0.950 . S
C1152 C1150 1.391 . S
C1152 C1153 1.400 . S
C1153 C1152 1.400 . S
C1153 C1154 1.398 . S
C1153 C1159 1.491 . S
C1154 H1145 0.950 . S
C1154 C1153 1.398 . S
C1154 C1155 1.391 . S
C1155 H1143 0.950 . S
C1155 C1151 1.393 . S
C1155 C1154 1.391 . S
C1156 H1146 0.950 . S
C1156 C1157 1.386 . S
C1156 C1158 1.391 . S
C1157 C1156 1.386 . S
C1157 C1161 1.393 . S
C1158 H1147 0.950 . S
C1158 C1156 1.391 . S
C1158 C1159 1.400 . S
C1159 C1153 1.491 . S
C1159 C1158 1.400 . S
C1159 C1160 1.398 . S
C1160 H1148 0.950 . S
C1160 C1159 1.398 . S
C1160 C1161 1.391 . S
C1161 H1149 0.950 . S
C1161 C1157 1.393 . S
C1161 C1160 1.391 . S
H1162 C1170 0.950 . S
H1163 C1175 0.950 . S
H1164 C1172 0.950 . S
H1165 C1174 0.950 . S
H1166 C1176 0.950 . S
H1167 C1178 0.950 . S
H1168 C1180 0.950 . S
H1169 C1181 0.950 . S
C1170 H1162 0.950 . S
C1170 C1171 1.386 . S
C1170 C1172 1.391 1_545 S
C1171 C1170 1.386 . S
C1171 C1175 1.393 . S
C1172 H1164 0.950 . S
C1172 C1170 1.391 1_565 S
C1172 C1173 1.400 . S
C1173 C1172 1.400 . S
C1173 C1174 1.398 . S
C1173 C1179 1.491 . S
C1174 H1165 0.950 . S
C1174 C1173 1.398 . S
C1174 C1175 1.391 1_565 S
C1175 H1163 0.950 . S
C1175 C1171 1.393 . S
C1175 C1174 1.391 1_545 S
C1176 H1166 0.950 . S
C1176 C1177 1.386 . S
C1176 C1178 1.391 . S
C1177 C1176 1.386 . S
C1177 C1181 1.393 . S
C1178 H1167 0.950 . S
C1178 C1176 1.391 . S
C1178 C1179 1.400 . S
C1179 C1173 1.491 . S
C1179 C1178 1.400 . S
C1179 C1180 1.398 . S
C1180 H1168 0.950 . S
C1180 C1179 1.398 . S
C1180 C1181 1.391 . S
C1181 H1169 0.950 . S
C1181 C1177 1.393 . S
C1181 C1180 1.391 . S
H1182 C1190 0.950 . S
H1183 C1195 0.950 . S
H1184 C1192 0.950 . S
H1185 C1194 0.950 . S
H1186 C1196 0.950 . S
H1187 C1198 0.950 . S
H1188 C1200 0.950 . S
H1189 C1201 0.950 . S
C1190 H1182 0.950 . S
C1190 C1191 1.386 . S
C1190 C1192 1.391 . S
C1191 C1190 1.386 . S
C1191 C1195 1.393 . S
C1192 H1184 0.950 . S
C1192 C1190 1.391 . S
C1192 C1193 1.400 . S
C1193 C1192 1.400 . S
C1193 C1194 1.398 . S
C1193 C1199 1.491 . S
C1194 H1185 0.950 . S
C1194 C1193 1.398 . S
C1194 C1195 1.391 . S
C1195 H1183 0.950 . S
C1195 C1191 1.393 . S
C1195 C1194 1.391 . S
C1196 H1186 0.950 . S
C1196 C1197 1.386 . S
C1196 C1198 1.391 . S
C1197 C1196 1.386 . S
C1197 C1201 1.393 . S
C1198 H1187 0.950 . S
C1198 C1196 1.391 . S
C1198 C1199 1.400 . S
C1199 C1193 1.491 . S
C1199 C1198 1.400 . S
C1199 C1200 1.398 . S
C1200 H1188 0.950 . S
C1200 C1199 1.398 . S
C1200 C1201 1.391 . S
C1201 H1189 0.950 . S
C1201 C1197 1.393 . S
C1201 C1200 1.391 . S
H1202 C1210 0.950 . S
H1203 C1215 0.950 . S
H1204 C1212 0.950 . S
H1205 C1214 0.950 . S
H1206 C1216 0.950 . S
H1207 C1218 0.950 . S
H1208 C1220 0.950 . S
H1209 C1221 0.950 . S
C1210 H1202 0.950 . S
C1210 C1211 1.386 . S
C1210 C1212 1.391 . S
C1211 C1210 1.386 . S
C1211 C1215 1.393 . S
C1212 H1204 0.950 . S
C1212 C1210 1.391 . S
C1212 C1213 1.400 . S
C1213 C1212 1.400 . S
C1213 C1214 1.398 . S
C1213 C1219 1.491 . S
C1214 H1205 0.950 . S
C1214 C1213 1.398 . S
C1214 C1215 1.391 . S
C1215 H1203 0.950 . S
C1215 C1211 1.393 . S
C1215 C1214 1.391 . S
C1216 H1206 0.950 . S
C1216 C1217 1.386 . S
C1216 C1218 1.391 . S
C1217 C1216 1.386 . S
C1217 C1221 1.393 . S
C1218 H1207 0.950 . S
C1218 C1216 1.391 . S
C1218 C1219 1.400 . S
C1219 C1213 1.491 . S
C1219 C1218 1.400 . S
C1219 C1220 1.398 . S
C1220 H1208 0.950 . S
C1220 C1219 1.398 . S
C1220 C1221 1.391 . S
C1221 H1209 0.950 . S
C1221 C1217 1.393 . S
C1221 C1220 1.391 . S
H1222 C1230 0.950 . S
H1223 C1235 0.950 . S
H1224 C1232 0.950 . S
H1225 C1234 0.950 . S
H1226 C1236 0.950 . S
H1227 C1238 0.950 . S
H1228 C1240 0.950 . S
H1229 C1241 0.950 . S
C1230 H1222 0.950 . S
C1230 C1231 1.386 . S
C1230 C1232 1.391 . S
C1231 C1230 1.386 . S
C1231 C1235 1.393 . S
C1232 H1224 0.950 . S
C1232 C1230 1.391 . S
C1232 C1233 1.400 . S
C1233 C1232 1.400 . S
C1233 C1234 1.398 . S
C1233 C1239 1.491 . S
C1234 H1225 0.950 . S
C1234 C1233 1.398 . S
C1234 C1235 1.391 . S
C1235 H1223 0.950 . S
C1235 C1231 1.393 . S
C1235 C1234 1.391 . S
C1236 H1226 0.950 . S
C1236 C1237 1.386 . S
C1236 C1238 1.391 . S
C1237 C1236 1.386 . S
C1237 C1241 1.393 . S
C1238 H1227 0.950 . S
C1238 C1236 1.391 . S
C1238 C1239 1.400 . S
C1239 C1233 1.491 . S
C1239 C1238 1.400 . S
C1239 C1240 1.398 . S
C1240 H1228 0.950 . S
C1240 C1239 1.398 . S
C1240 C1241 1.391 . S
C1241 H1229 0.950 . S
C1241 C1237 1.393 . S
C1241 C1240 1.391 . S
H1242 C1250 0.950 . S
H1243 C1255 0.950 . S
H1244 C1252 0.950 . S
H1245 C1254 0.950 . S
H1246 C1256 0.950 . S
H1247 C1258 0.950 . S
H1248 C1260 0.950 . S
H1249 C1261 0.950 . S
C1250 H1242 0.950 . S
C1250 C1251 1.386 . S
C1250 C1252 1.391 . S
C1251 C1250 1.386 . S
C1251 C1255 1.393 . S
C1252 H1244 0.950 . S
C1252 C1250 1.391 . S
C1252 C1253 1.400 . S
C1253 C1252 1.400 . S
C1253 C1254 1.398 . S
C1253 C1259 1.491 . S
C1254 H1245 0.950 . S
C1254 C1253 1.398 . S
C1254 C1255 1.391 . S
C1255 H1243 0.950 . S
C1255 C1251 1.393 . S
C1255 C1254 1.391 . S
C1256 H1246 0.950 . S
C1256 C1257 1.386 . S
C1256 C1258 1.391 . S
C1257 C1256 1.386 . S
C1257 C1261 1.393 . S
C1258 H1247 0.950 . S
C1258 C1256 1.391 . S
C1258 C1259 1.400 . S
C1259 C1253 1.491 . S
C1259 C1258 1.400 . S
C1259 C1260 1.398 . S
C1260 H1248 0.950 . S
C1260 C1259 1.398 . S
C1260 C1261 1.391 . S
C1261 H1249 0.950 . S
C1261 C1257 1.393 . S
C1261 C1260 1.391 . S
H1262 C1270 0.950 . S
H1263 C1275 0.950 . S
H1264 C1272 0.950 . S
H1265 C1274 0.950 . S
H1266 C1276 0.950 . S
H1267 C1278 0.950 . S
H1268 C1280 0.950 . S
H1269 C1281 0.950 . S
C1270 H1262 0.950 . S
C1270 C1271 1.386 . S
C1270 C1272 1.391 . S
C1271 C1270 1.386 . S
C1271 C1275 1.393 . S
C1272 H1264 0.950 . S
C1272 C1270 1.391 . S
C1272 C1273 1.400 . S
C1273 C1272 1.400 . S
C1273 C1274 1.398 . S
C1273 C1279 1.491 . S
C1274 H1265 0.950 . S
C1274 C1273 1.398 . S
C1274 C1275 1.391 . S
C1275 H1263 0.950 . S
C1275 C1271 1.393 . S
C1275 C1274 1.391 . S
C1276 H1266 0.950 . S
C1276 C1277 1.386 . S
C1276 C1278 1.391 . S
C1277 C1276 1.386 . S
C1277 C1281 1.393 . S
C1278 H1267 0.950 . S
C1278 C1276 1.391 . S
C1278 C1279 1.400 . S
C1279 C1273 1.491 . S
C1279 C1278 1.400 . S
C1279 C1280 1.398 . S
C1280 H1268 0.950 . S
C1280 C1279 1.398 . S
C1280 C1281 1.391 . S
C1281 H1269 0.950 . S
C1281 C1277 1.393 . S
C1281 C1280 1.391 . S
H1282 C1290 0.950 . S
H1283 C1295 0.950 . S
H1284 C1292 0.950 . S
H1285 C1294 0.950 . S
H1286 C1296 0.950 . S
H1287 C1298 0.950 . S
H1288 C1300 0.950 . S
H1289 C1301 0.950 . S
C1290 H1282 0.950 . S
C1290 C1291 1.386 . S
C1290 C1292 1.391 . S
C1291 C1290 1.386 . S
C1291 C1295 1.393 . S
C1292 H1284 0.950 . S
C1292 C1290 1.391 . S
C1292 C1293 1.400 . S
C1293 C1292 1.400 . S
C1293 C1294 1.398 . S
C1293 C1299 1.491 . S
C1294 H1285 0.950 . S
C1294 C1293 1.398 . S
C1294 C1295 1.391 . S
C1295 H1283 0.950 . S
C1295 C1291 1.393 . S
C1295 C1294 1.391 . S
C1296 H1286 0.950 . S
C1296 C1297 1.386 . S
C1296 C1298 1.391 . S
C1297 C1296 1.386 . S
C1297 C1301 1.393 . S
C1298 H1287 0.950 . S
C1298 C1296 1.391 . S
C1298 C1299 1.400 . S
C1299 C1293 1.491 . S
C1299 C1298 1.400 . S
C1299 C1300 1.398 . S
C1300 H1288 0.950 . S
C1300 C1299 1.398 . S
C1300 C1301 1.391 . S
C1301 H1289 0.950 . S
C1301 C1297 1.393 . S
C1301 C1300 1.391 . S
H1302 C1310 0.950 . S
H1303 C1315 0.950 . S
H1304 C1312 0.950 . S
H1305 C1314 0.950 . S
H1306 C1316 0.950 . S
H1307 C1318 0.950 . S
H1308 C1320 0.950 . S
H1309 C1321 0.950 . S
C1310 H1302 0.950 . S
C1310 C1311 1.386 . S
C1310 C1312 1.391 1_545 S
C1311 C1310 1.386 . S
C1311 C1315 1.393 . S
C1312 H1304 0.950 . S
C1312 C1310 1.391 1_565 S
C1312 C1313 1.400 . S
C1313 C1312 1.400 . S
C1313 C1314 1.398 . S
C1313 C1319 1.491 . S
C1314 H1305 0.950 . S
C1314 C1313 1.398 . S
C1314 C1315 1.391 1_565 S
C1315 H1303 0.950 . S
C1315 C1311 1.393 . S
C1315 C1314 1.391 1_545 S
C1316 H1306 0.950 . S
C1316 C1317 1.386 . S
C1316 C1318 1.391 . S
C1317 C1316 1.386 . S
C1317 C1321 1.393 . S
C1318 H1307 0.950 . S
C1318 C1316 1.391 . S
C1318 C1319 1.400 . S
C1319 C1313 1.491 . S
C1319 C1318 1.400 . S
C1319 C1320 1.398 . S
C1320 H1308 0.950 . S
C1320 C1319 1.398 . S
C1320 C1321 1.391 . S
C1321 H1309 0.950 . S
C1321 C1317 1.393 . S
C1321 C1320 1.391 . S
H1322 C1330 0.939 1_655 S
H1323 C1335 0.950 . S
H1324 C1332 0.950 . S
H1325 C1334 0.950 . S
H1326 C1336 0.950 . S
H1327 C1338 0.950 . S
H1328 C1340 0.950 . S
H1329 C1341 0.950 . S
C1330 H1322 0.939 1_455 S
C1330 C1331 1.382 1_455 S
C1330 C1332 1.406 . S
C1331 C1330 1.382 1_655 S
C1331 C1335 1.393 . S
C1332 H1324 0.950 . S
C1332 C1330 1.406 . S
C1332 C1333 1.400 . S
C1333 C1332 1.400 . S
C1333 C1334 1.398 . S
C1333 C1339 1.491 . S
C1334 H1325 0.950 . S
C1334 C1333 1.398 . S
C1334 C1335 1.391 1_455 S
C1335 H1323 0.950 . S
C1335 C1331 1.393 . S
C1335 C1334 1.391 1_655 S
C1336 H1326 0.950 . S
C1336 C1337 1.386 . S
C1336 C1338 1.391 . S
C1337 C1336 1.386 . S
C1337 C1341 1.393 . S
C1338 H1327 0.950 . S
C1338 C1336 1.391 . S
C1338 C1339 1.400 . S
C1339 C1333 1.491 . S
C1339 C1338 1.400 . S
C1339 C1340 1.398 . S
C1340 H1328 0.950 . S
C1340 C1339 1.398 . S
C1340 C1341 1.391 . S
C1341 H1329 0.950 . S
C1341 C1337 1.393 . S
C1341 C1340 1.391 . S
H1342 C1350 0.950 . S
H1343 C1355 0.950 . S
H1344 C1352 0.950 . S
H1345 C1354 0.950 . S
H1346 C1356 0.950 . S
H1347 C1358 0.950 . S
H1348 C1360 0.950 . S
H1349 C1361 0.950 . S
C1350 H1342 0.950 . S
C1350 C1351 1.386 . S
C1350 C1352 1.391 . S
C1351 C1350 1.386 . S
C1351 C1355 1.393 . S
C1352 H1344 0.950 . S
C1352 C1350 1.391 . S
C1352 C1353 1.400 . S
C1353 C1352 1.400 . S
C1353 C1354 1.398 . S
C1353 C1359 1.491 . S
C1354 H1345 0.950 . S
C1354 C1353 1.398 . S
C1354 C1355 1.391 . S
C1355 H1343 0.950 . S
C1355 C1351 1.393 . S
C1355 C1354 1.391 . S
C1356 H1346 0.950 . S
C1356 C1357 1.386 . S
C1356 C1358 1.391 . S
C1357 C1356 1.386 . S
C1357 C1361 1.393 . S
C1358 H1347 0.950 . S
C1358 C1356 1.391 . S
C1358 C1359 1.400 . S
C1359 C1353 1.491 . S
C1359 C1358 1.400 . S
C1359 C1360 1.398 . S
C1360 H1348 0.950 . S
C1360 C1359 1.398 . S
C1360 C1361 1.391 . S
C1361 H1349 0.950 . S
C1361 C1357 1.393 . S
C1361 C1360 1.391 . S
H1362 C1370 0.950 . S
H1363 C1375 0.950 . S
H1364 C1372 0.950 . S
H1365 C1374 0.950 . S
H1366 C1376 0.950 . S
H1367 C1378 0.950 . S
H1368 C1380 0.950 . S
H1369 C1381 0.950 . S
C1370 H1362 0.950 . S
C1370 C1371 1.386 . S
C1370 C1372 1.391 . S
C1371 C1370 1.386 . S
C1371 C1375 1.393 . S
C1372 H1364 0.950 . S
C1372 C1370 1.391 . S
C1372 C1373 1.400 . S
C1373 C1372 1.400 . S
C1373 C1374 1.398 . S
C1373 C1379 1.491 . S
C1374 H1365 0.950 . S
C1374 C1373 1.398 . S
C1374 C1375 1.391 . S
C1375 H1363 0.950 . S
C1375 C1371 1.393 . S
C1375 C1374 1.391 . S
C1376 H1366 0.950 . S
C1376 C1377 1.386 . S
C1376 C1378 1.391 . S
C1377 C1376 1.386 . S
C1377 C1381 1.393 . S
C1378 H1367 0.950 . S
C1378 C1376 1.391 . S
C1378 C1379 1.400 . S
C1379 C1373 1.491 . S
C1379 C1378 1.400 . S
C1379 C1380 1.398 . S
C1380 H1368 0.950 . S
C1380 C1379 1.398 . S
C1380 C1381 1.391 . S
C1381 H1369 0.950 . S
C1381 C1377 1.393 . S
C1381 C1380 1.391 . S
H1382 C1390 0.950 . S
H1383 C1395 0.950 . S
H1384 C1392 0.950 . S
H1385 C1394 0.950 . S
H1386 C1396 0.950 . S
H1387 C1398 0.950 . S
H1388 C1400 0.950 . S
H1389 C1401 0.950 . S
C1390 H1382 0.950 . S
C1390 C1391 1.386 . S
C1390 C1392 1.391 . S
C1391 C1390 1.386 . S
C1391 C1395 1.393 . S
C1392 H1384 0.950 . S
C1392 C1390 1.391 . S
C1392 C1393 1.400 . S
C1393 C1392 1.400 . S
C1393 C1394 1.398 . S
C1393 C1399 1.491 . S
C1394 H1385 0.950 . S
C1394 C1393 1.398 . S
C1394 C1395 1.391 . S
C1395 H1383 0.950 . S
C1395 C1391 1.393 . S
C1395 C1394 1.391 . S
C1396 H1386 0.950 . S
C1396 C1397 1.386 . S
C1396 C1398 1.391 . S
C1397 C1396 1.386 . S
C1397 C1401 1.393 . S
C1398 H1387 0.950 . S
C1398 C1396 1.391 . S
C1398 C1399 1.400 . S
C1399 C1393 1.491 . S
C1399 C1398 1.400 . S
C1399 C1400 1.398 . S
C1400 H1388 0.950 . S
C1400 C1399 1.398 . S
C1400 C1401 1.391 . S
C1401 H1389 0.950 . S
C1401 C1397 1.393 . S
C1401 C1400 1.391 . S
H1402 C1410 0.950 . S
H1403 C1415 0.950 . S
H1404 C1412 0.950 . S
H1405 C1414 0.950 . S
H1406 C1416 0.950 . S
H1407 C1418 0.950 . S
H1408 C1420 0.950 . S
H1409 C1421 0.950 . S
C1410 H1402 0.950 . S
C1410 C1411 1.386 . S
C1410 C1412 1.391 . S
C1411 C1410 1.386 . S
C1411 C1415 1.393 . S
C1412 H1404 0.950 . S
C1412 C1410 1.391 . S
C1412 C1413 1.400 . S
C1413 C1412 1.400 . S
C1413 C1414 1.398 . S
C1413 C1419 1.491 . S
C1414 H1405 0.950 . S
C1414 C1413 1.398 . S
C1414 C1415 1.391 . S
C1415 H1403 0.950 . S
C1415 C1411 1.393 . S
C1415 C1414 1.391 . S
C1416 H1406 0.950 . S
C1416 C1417 1.386 . S
C1416 C1418 1.391 . S
C1417 C1416 1.386 . S
C1417 C1421 1.393 . S
C1418 H1407 0.950 . S
C1418 C1416 1.391 . S
C1418 C1419 1.400 . S
C1419 C1413 1.491 . S
C1419 C1418 1.400 . S
C1419 C1420 1.398 . S
C1420 H1408 0.950 . S
C1420 C1419 1.398 . S
C1420 C1421 1.391 . S
C1421 H1409 0.950 . S
C1421 C1417 1.393 . S
C1421 C1420 1.391 . S
H1422 C1430 0.950 . S
H1423 C1435 0.950 . S
H1424 C1432 0.950 . S
H1425 C1434 0.950 . S
H1426 C1436 0.950 . S
H1427 C1438 0.950 . S
H1428 C1440 0.950 . S
H1429 C1441 0.950 . S
C1430 H1422 0.950 . S
C1430 C1431 1.386 . S
C1430 C1432 1.391 1_565 S
C1431 C1430 1.386 . S
C1431 C1435 1.393 . S
C1432 H1424 0.950 . S
C1432 C1430 1.391 1_545 S
C1432 C1433 1.400 . S
C1433 C1432 1.400 . S
C1433 C1434 1.398 . S
C1433 C1439 1.491 . S
C1434 H1425 0.950 . S
C1434 C1433 1.398 . S
C1434 C1435 1.391 1_545 S
C1435 H1423 0.950 . S
C1435 C1431 1.393 . S
C1435 C1434 1.391 1_565 S
C1436 H1426 0.950 . S
C1436 C1437 1.386 . S
C1436 C1438 1.391 . S
C1437 C1436 1.386 . S
C1437 C1441 1.393 . S
C1438 H1427 0.950 . S
C1438 C1436 1.391 . S
C1438 C1439 1.400 . S
C1439 C1433 1.491 . S
C1439 C1438 1.400 . S
C1439 C1440 1.398 . S
C1440 H1428 0.950 . S
C1440 C1439 1.398 . S
C1440 C1441 1.391 . S
C1441 H1429 0.950 . S
C1441 C1437 1.393 . S
C1441 C1440 1.391 . S
H1442 C1450 0.950 . S
H1443 C1455 0.950 . S
H1444 C1452 0.950 . S
H1445 C1454 0.950 . S
H1446 C1456 0.950 . S
H1447 C1458 0.950 . S
H1448 C1460 0.950 . S
H1449 C1461 0.950 . S
C1450 H1442 0.950 . S
C1450 C1451 1.399 . S
C1450 C1452 1.378 1_455 S
C1451 C1450 1.399 . S
C1451 C1455 1.393 . S
C1452 H1444 0.950 . S
C1452 C1450 1.378 1_655 S
C1452 C1453 1.400 . S
C1453 C1452 1.400 . S
C1453 C1454 1.398 . S
C1453 C1459 1.491 . S
C1454 H1445 0.950 . S
C1454 C1453 1.398 . S
C1454 C1455 1.391 1_655 S
C1455 H1443 0.950 . S
C1455 C1451 1.393 . S
C1455 C1454 1.391 1_455 S
C1456 H1446 0.950 . S
C1456 C1457 1.386 . S
C1456 C1458 1.391 . S
C1457 C1456 1.386 . S
C1457 C1461 1.393 . S
C1458 H1447 0.950 . S
C1458 C1456 1.391 . S
C1458 C1459 1.400 . S
C1459 C1453 1.491 . S
C1459 C1458 1.400 . S
C1459 C1460 1.398 . S
C1460 H1448 0.950 . S
C1460 C1459 1.398 . S
C1460 C1461 1.391 . S
C1461 H1449 0.950 . S
C1461 C1457 1.393 . S
C1461 C1460 1.391 . S
H1462 C1470 0.950 . S
H1463 C1475 0.950 . S
H1464 C1472 0.950 . S
H1465 C1474 0.950 . S
H1466 C1476 0.950 . S
H1467 C1478 0.950 . S
H1468 C1480 0.950 . S
H1469 C1481 0.950 . S
C1470 H1462 0.950 . S
C1470 C1471 1.386 . S
C1470 C1472 1.391 . S
C1471 C1470 1.386 . S
C1471 C1475 1.393 . S
C1472 H1464 0.950 . S
C1472 C1470 1.391 . S
C1472 C1473 1.400 . S
C1473 C1472 1.400 . S
C1473 C1474 1.398 . S
C1473 C1479 1.491 . S
C1474 H1465 0.950 . S
C1474 C1473 1.398 . S
C1474 C1475 1.391 . S
C1475 H1463 0.950 . S
C1475 C1471 1.393 . S
C1475 C1474 1.391 . S
C1476 H1466 0.950 . S
C1476 C1477 1.386 . S
C1476 C1478 1.391 . S
C1477 C1476 1.386 . S
C1477 C1481 1.393 . S
C1478 H1467 0.950 . S
C1478 C1476 1.391 . S
C1478 C1479 1.400 . S
C1479 C1473 1.491 . S
C1479 C1478 1.400 . S
C1479 C1480 1.398 . S
C1480 H1468 0.950 . S
C1480 C1479 1.398 . S
C1480 C1481 1.391 . S
C1481 H1469 0.950 . S
C1481 C1477 1.393 . S
C1481 C1480 1.391 . S
H1482 C1490 0.950 . S
H1483 C1495 0.950 . S
H1484 C1492 0.950 . S
H1485 C1494 0.950 . S
H1486 C1496 0.950 . S
H1487 C1498 0.950 . S
H1488 C1500 0.950 . S
H1489 C1501 0.950 . S
C1490 H1482 0.950 . S
C1490 C1491 1.386 . S
C1490 C1492 1.391 . S
C1491 C1490 1.386 . S
C1491 C1495 1.393 . S
C1492 H1484 0.950 . S
C1492 C1490 1.391 . S
C1492 C1493 1.400 1_455 S
C1493 C1492 1.400 1_655 S
C1493 C1494 1.398 . S
C1493 C1499 1.491 . S
C1494 H1485 0.950 . S
C1494 C1493 1.398 . S
C1494 C1495 1.391 1_655 S
C1495 H1483 0.950 . S
C1495 C1491 1.393 . S
C1495 C1494 1.391 1_455 S
C1496 H1486 0.950 . S
C1496 C1497 1.386 . S
C1496 C1498 1.391 . S
C1497 C1496 1.386 . S
C1497 C1501 1.393 . S
C1498 H1487 0.950 . S
C1498 C1496 1.391 . S
C1498 C1499 1.400 . S
C1499 C1493 1.491 . S
C1499 C1498 1.400 . S
C1499 C1500 1.398 . S
C1500 H1488 0.950 . S
C1500 C1499 1.398 . S
C1500 C1501 1.391 . S
C1501 H1489 0.950 . S
C1501 C1497 1.393 . S
C1501 C1500 1.391 . S
H1502 C1510 0.950 . S
H1503 C1515 0.950 . S
H1504 C1512 0.950 . S
H1505 C1514 0.950 . S
H1506 C1516 0.950 . S
H1507 C1518 0.950 . S
H1508 C1520 0.950 . S
H1509 C1521 0.950 . S
C1510 H1502 0.950 . S
C1510 C1511 1.386 . S
C1510 C1512 1.391 . S
C1511 C1510 1.386 . S
C1511 C1515 1.393 . S
C1512 H1504 0.950 . S
C1512 C1510 1.391 . S
C1512 C1513 1.400 . S
C1513 C1512 1.400 . S
C1513 C1514 1.398 . S
C1513 C1519 1.491 . S
C1514 H1505 0.950 . S
C1514 C1513 1.398 . S
C1514 C1515 1.391 . S
C1515 H1503 0.950 . S
C1515 C1511 1.393 . S
C1515 C1514 1.391 . S
C1516 H1506 0.950 . S
C1516 C1517 1.386 . S
C1516 C1518 1.391 . S
C1517 C1516 1.386 . S
C1517 C1521 1.393 . S
C1518 H1507 0.950 . S
C1518 C1516 1.391 . S
C1518 C1519 1.400 . S
C1519 C1513 1.491 . S
C1519 C1518 1.400 . S
C1519 C1520 1.398 . S
C1520 H1508 0.950 . S
C1520 C1519 1.398 . S
C1520 C1521 1.391 . S
C1521 H1509 0.950 . S
C1521 C1517 1.393 . S
C1521 C1520 1.391 . S
H1522 C1530 0.950 . S
H1523 C1535 0.950 . S
H1524 C1532 0.950 . S
H1525 C1534 0.950 . S
H1526 C1536 0.950 . S
H1527 C1538 0.950 . S
H1528 C1540 0.950 . S
H1529 C1541 0.950 . S
C1530 H1522 0.950 . S
C1530 C1531 1.386 . S
C1530 C1532 1.391 1_565 S
C1531 C1530 1.386 . S
C1531 C1535 1.393 . S
C1532 H1524 0.950 . S
C1532 C1530 1.391 1_545 S
C1532 C1533 1.400 . S
C1533 C1532 1.400 . S
C1533 C1534 1.398 . S
C1533 C1539 1.491 . S
C1534 H1525 0.950 . S
C1534 C1533 1.398 . S
C1534 C1535 1.391 1_545 S
C1535 H1523 0.950 . S
C1535 C1531 1.393 . S
C1535 C1534 1.391 1_565 S
C1536 H1526 0.950 . S
C1536 C1537 1.386 . S
C1536 C1538 1.391 . S
C1537 C1536 1.386 . S
C1537 C1541 1.393 . S
C1538 H1527 0.950 . S
C1538 C1536 1.391 . S
C1538 C1539 1.400 . S
C1539 C1533 1.491 . S
C1539 C1538 1.400 . S
C1539 C1540 1.398 . S
C1540 H1528 0.950 . S
C1540 C1539 1.398 . S
C1540 C1541 1.391 . S
C1541 H1529 0.950 . S
C1541 C1537 1.393 . S
C1541 C1540 1.391 . S
H1542 C1550 0.950 . S
H1543 C1555 0.950 . S
H1544 C1552 0.950 . S
H1545 C1554 0.950 . S
H1546 C1556 0.950 . S
H1547 C1558 0.950 . S
H1548 C1560 0.950 . S
H1549 C1561 0.950 . S
C1550 H1542 0.950 . S
C1550 C1551 1.386 . S
C1550 C1552 1.391 . S
C1551 C1550 1.386 . S
C1551 C1555 1.393 . S
C1552 H1544 0.950 . S
C1552 C1550 1.391 . S
C1552 C1553 1.400 . S
C1553 C1552 1.400 . S
C1553 C1554 1.398 . S
C1553 C1559 1.491 . S
C1554 H1545 0.950 . S
C1554 C1553 1.398 . S
C1554 C1555 1.391 . S
C1555 H1543 0.950 . S
C1555 C1551 1.393 . S
C1555 C1554 1.391 . S
C1556 H1546 0.950 . S
C1556 C1557 1.386 . S
C1556 C1558 1.391 . S
C1557 C1556 1.386 . S
C1557 C1561 1.393 . S
C1558 H1547 0.950 . S
C1558 C1556 1.391 . S
C1558 C1559 1.400 . S
C1559 C1553 1.491 . S
C1559 C1558 1.400 . S
C1559 C1560 1.398 . S
C1560 H1548 0.950 . S
C1560 C1559 1.398 . S
C1560 C1561 1.391 . S
C1561 H1549 0.950 . S
C1561 C1557 1.393 . S
C1561 C1560 1.391 . S
H1562 C1570 0.950 . S
H1563 C1575 0.950 . S
H1564 C1572 0.950 . S
H1565 C1574 0.950 . S
H1566 C1576 0.950 . S
H1567 C1578 0.950 . S
H1568 C1580 0.950 . S
H1569 C1581 0.950 . S
C1570 H1562 0.950 . S
C1570 C1571 1.386 . S
C1570 C1572 1.391 . S
C1571 C1570 1.386 . S
C1571 C1575 1.393 . S
C1572 H1564 0.950 . S
C1572 C1570 1.391 . S
C1572 C1573 1.400 . S
C1573 C1572 1.400 . S
C1573 C1574 1.398 . S
C1573 C1579 1.491 . S
C1574 H1565 0.950 . S
C1574 C1573 1.398 . S
C1574 C1575 1.391 . S
C1575 H1563 0.950 . S
C1575 C1571 1.393 . S
C1575 C1574 1.391 . S
C1576 H1566 0.950 . S
C1576 C1577 1.386 . S
C1576 C1578 1.391 . S
C1577 C1576 1.386 . S
C1577 C1581 1.393 . S
C1578 H1567 0.950 . S
C1578 C1576 1.391 . S
C1578 C1579 1.400 . S
C1579 C1573 1.491 . S
C1579 C1578 1.400 . S
C1579 C1580 1.398 . S
C1580 H1568 0.950 . S
C1580 C1579 1.398 . S
C1580 C1581 1.391 . S
C1581 H1569 0.950 . S
C1581 C1577 1.393 . S
C1581 C1580 1.391 . S
H1582 C1590 0.950 . S
H1583 C1595 0.950 . S
H1584 C1592 0.950 . S
H1585 C1594 0.950 . S
H1586 C1596 0.950 . S
H1587 C1598 0.950 . S
H1588 C1600 0.950 . S
H1589 C1601 0.950 . S
C1590 H1582 0.950 . S
C1590 C1591 1.386 . S
C1590 C1592 1.391 . S
C1591 C1590 1.386 . S
C1591 C1595 1.393 . S
C1592 H1584 0.950 . S
C1592 C1590 1.391 . S
C1592 C1593 1.400 . S
C1593 C1592 1.400 . S
C1593 C1594 1.398 . S
C1593 C1599 1.491 . S
C1594 H1585 0.950 . S
C1594 C1593 1.398 . S
C1594 C1595 1.391 . S
C1595 H1583 0.950 . S
C1595 C1591 1.393 . S
C1595 C1594 1.391 . S
C1596 H1586 0.950 . S
C1596 C1597 1.386 . S
C1596 C1598 1.391 . S
C1597 C1596 1.386 . S
C1597 C1601 1.393 . S
C1598 H1587 0.950 . S
C1598 C1596 1.391 . S
C1598 C1599 1.400 . S
C1599 C1593 1.491 . S
C1599 C1598 1.400 . S
C1599 C1600 1.398 . S
C1600 H1588 0.950 . S
C1600 C1599 1.398 . S
C1600 C1601 1.391 . S
C1601 H1589 0.950 . S
C1601 C1597 1.393 . S
C1601 C1600 1.391 . S
H1602 C1610 0.950 . S
H1603 C1615 0.950 . S
H1604 C1612 0.950 1_545 S
H1605 C1614 0.950 . S
H1606 C1616 0.950 . S
H1607 C1618 0.950 . S
H1608 C1620 0.950 . S
H1609 C1621 0.950 . S
C1610 H1602 0.950 . S
C1610 C1611 1.386 . S
C1610 C1612 1.391 . S
C1611 C1610 1.386 . S
C1611 C1615 1.393 . S
C1612 H1604 0.950 1_565 S
C1612 C1610 1.391 . S
C1612 C1613 1.400 . S
C1613 C1612 1.400 . S
C1613 C1614 1.398 . S
C1613 C1619 1.491 . S
C1614 H1605 0.950 . S
C1614 C1613 1.398 . S
C1614 C1615 1.391 . S
C1615 H1603 0.950 . S
C1615 C1611 1.393 . S
C1615 C1614 1.391 . S
C1616 H1606 0.950 . S
C1616 C1617 1.386 . S
C1616 C1618 1.391 . S
C1617 C1616 1.386 . S
C1617 C1621 1.393 1_565 S
C1618 H1607 0.950 . S
C1618 C1616 1.391 . S
C1618 C1619 1.400 . S
C1619 C1613 1.491 . S
C1619 C1618 1.400 . S
C1619 C1620 1.398 1_565 S
C1620 H1608 0.950 . S
C1620 C1619 1.398 1_545 S
C1620 C1621 1.391 . S
C1621 H1609 0.950 . S
C1621 C1617 1.393 1_545 S
C1621 C1620 1.391 . S
H1622 C1630 0.950 . S
H1623 C1635 0.950 1_655 S
H1624 C1632 0.950 . S
H1625 C1634 0.950 1_655 S
H1626 C1636 0.950 . S
H1627 C1638 0.955 . S
H1628 C1640 0.950 . S
H1629 C1641 0.950 . S
C1630 H1622 0.950 . S
C1630 C1631 1.386 . S
C1630 C1632 1.391 . S
C1631 C1630 1.386 . S
C1631 C1635 1.393 . S
C1632 H1624 0.950 . S
C1632 C1630 1.391 . S
C1632 C1633 1.400 . S
C1633 C1632 1.400 . S
C1633 C1634 1.398 . S
C1633 C1639 1.491 . S
C1634 H1625 0.950 1_455 S
C1634 C1633 1.398 . S
C1634 C1635 1.391 . S
C1635 H1623 0.950 1_455 S
C1635 C1631 1.393 . S
C1635 C1634 1.391 . S
C1636 H1626 0.950 . S
C1636 C1637 1.386 1_655 S
C1636 C1638 1.393 . S
C1637 C1636 1.386 1_455 S
C1637 C1641 1.393 . S
C1638 H1627 0.955 . S
C1638 C1636 1.393 . S
C1638 C1639 1.394 1_655 S
C1639 C1633 1.491 . S
C1639 C1638 1.394 1_455 S
C1639 C1640 1.398 . S
C1640 H1628 0.950 . S
C1640 C1639 1.398 . S
C1640 C1641 1.391 . S
C1641 H1629 0.950 . S
C1641 C1637 1.393 . S
C1641 C1640 1.391 . S
H1642 C1650 0.950 . S
H1643 C1655 0.950 . S
H1644 C1652 0.950 . S
H1645 C1654 0.950 . S
H1646 C1656 0.950 . S
H1647 C1658 0.950 . S
H1648 C1660 0.950 . S
H1649 C1661 0.950 . S
C1650 H1642 0.950 . S
C1650 C1651 1.386 . S
C1650 C1652 1.391 . S
C1651 C1650 1.386 . S
C1651 C1655 1.393 . S
C1652 H1644 0.950 . S
C1652 C1650 1.391 . S
C1652 C1653 1.400 . S
C1653 C1652 1.400 . S
C1653 C1654 1.398 . S
C1653 C1659 1.491 . S
C1654 H1645 0.950 . S
C1654 C1653 1.398 . S
C1654 C1655 1.391 . S
C1655 H1643 0.950 . S
C1655 C1651 1.393 . S
C1655 C1654 1.391 . S
C1656 H1646 0.950 . S
C1656 C1657 1.386 . S
C1656 C1658 1.391 . S
C1657 C1656 1.386 . S
C1657 C1661 1.393 . S
C1658 H1647 0.950 . S
C1658 C1656 1.391 . S
C1658 C1659 1.400 . S
C1659 C1653 1.491 . S
C1659 C1658 1.400 . S
C1659 C1660 1.398 . S
C1660 H1648 0.950 . S
C1660 C1659 1.398 . S
C1660 C1661 1.391 . S
C1661 H1649 0.950 . S
C1661 C1657 1.393 . S
C1661 C1660 1.391 . S
H1662 C1670 0.950 1_455 S
H1663 C1675 0.950 . S
H1664 C1672 0.950 . S
H1665 C1674 0.950 . S
H1666 C1676 0.950 . S
H1667 C1678 0.950 . S
H1668 C1680 0.950 . S
H1669 C1681 0.950 . S
C1670 H1662 0.950 1_655 S
C1670 C1671 1.386 . S
C1670 C1672 1.391 1_655 S
C1671 C1670 1.386 . S
C1671 C1675 1.393 . S
C1672 H1664 0.950 . S
C1672 C1670 1.391 1_455 S
C1672 C1673 1.400 1_455 S
C1673 C1672 1.400 1_655 S
C1673 C1674 1.398 . S
C1673 C1679 1.491 . S
C1674 H1665 0.950 . S
C1674 C1673 1.398 . S
C1674 C1675 1.391 . S
C1675 H1663 0.950 . S
C1675 C1671 1.393 . S
C1675 C1674 1.391 . S
C1676 H1666 0.950 . S
C1676 C1677 1.386 . S
C1676 C1678 1.391 . S
C1677 C1676 1.386 . S
C1677 C1681 1.393 1_655 S
C1678 H1667 0.950 . S
C1678 C1676 1.391 . S
C1678 C1679 1.400 . S
C1679 C1673 1.491 . S
C1679 C1678 1.400 . S
C1679 C1680 1.398 1_655 S
C1680 H1668 0.950 . S
C1680 C1679 1.398 1_455 S
C1680 C1681 1.391 . S
C1681 H1669 0.950 . S
C1681 C1677 1.393 1_455 S
C1681 C1680 1.391 . S
H1682 C1690 0.950 . S
H1683 C1695 0.950 . S
H1684 C1692 0.950 . S
H1685 C1694 0.950 . S
H1686 C1696 0.950 . S
H1687 C1698 0.950 . S
H1688 C1700 0.950 . S
H1689 C1701 0.950 . S
C1690 H1682 0.950 . S
C1690 C1691 1.386 . S
C1690 C1692 1.391 . S
C1691 C1690 1.386 . S
C1691 C1695 1.393 . S
C1692 H1684 0.950 . S
C1692 C1690 1.391 . S
C1692 C1693 1.400 . S
C1693 C1692 1.400 . S
C1693 C1694 1.398 . S
C1693 C1699 1.491 . S
C1694 H1685 0.950 . S
C1694 C1693 1.398 . S
C1694 C1695 1.391 . S
C1695 H1683 0.950 . S
C1695 C1691 1.393 . S
C1695 C1694 1.391 . S
C1696 H1686 0.950 . S
C1696 C1697 1.386 . S
C1696 C1698 1.391 . S
C1697 C1696 1.386 . S
C1697 C1701 1.393 . S
C1698 H1687 0.950 . S
C1698 C1696 1.391 . S
C1698 C1699 1.400 . S
C1699 C1693 1.491 . S
C1699 C1698 1.400 . S
C1699 C1700 1.398 . S
C1700 H1688 0.950 . S
C1700 C1699 1.398 . S
C1700 C1701 1.391 . S
C1701 H1689 0.950 . S
C1701 C1697 1.393 . S
C1701 C1700 1.391 . S
H1702 C1710 0.950 . S
H1703 C1715 0.950 . S
H1704 C1712 0.950 . S
H1705 C1714 0.950 1_565 S
H1706 C1716 0.950 . S
H1707 C1718 0.948 1_565 S
H1708 C1720 0.950 . S
H1709 C1721 0.950 . S
C1710 H1702 0.950 . S
C1710 C1711 1.386 . S
C1710 C1712 1.391 . S
C1711 C1710 1.386 . S
C1711 C1715 1.393 . S
C1712 H1704 0.950 . S
C1712 C1710 1.391 . S
C1712 C1713 1.400 . S
C1713 C1712 1.400 . S
C1713 C1714 1.398 . S
C1713 C1719 1.491 . S
C1714 H1705 0.950 1_545 S
C1714 C1713 1.398 . S
C1714 C1715 1.391 . S
C1715 H1703 0.950 . S
C1715 C1711 1.393 . S
C1715 C1714 1.391 . S
C1716 H1706 0.950 . S
C1716 C1717 1.386 1_565 S
C1716 C1718 1.391 1_565 S
C1717 C1716 1.386 1_545 S
C1717 C1721 1.393 . S
C1718 H1707 0.948 1_545 S
C1718 C1716 1.391 1_545 S
C1718 C1719 1.402 . S
C1719 C1713 1.491 . S
C1719 C1718 1.402 . S
C1719 C1720 1.398 . S
C1720 H1708 0.950 . S
C1720 C1719 1.398 . S
C1720 C1721 1.391 . S
C1721 H1709 0.950 . S
C1721 C1717 1.393 . S
C1721 C1720 1.391 . S
H1722 C1730 0.950 . S
H1723 C1735 0.950 . S
H1724 C1732 0.950 . S
H1725 C1734 0.950 . S
H1726 C1736 0.950 . S
H1727 C1738 0.950 . S
H1728 C1740 0.950 . S
H1729 C1741 0.950 . S
C1730 H1722 0.950 . S
C1730 C1731 1.386 . S
C1730 C1732 1.391 . S
C1731 C1730 1.386 . S
C1731 C1735 1.393 . S
C1732 H1724 0.950 . S
C1732 C1730 1.391 . S
C1732 C1733 1.400 . S
C1733 C1732 1.400 . S
C1733 C1734 1.398 . S
C1733 C1739 1.491 . S
C1734 H1725 0.950 . S
C1734 C1733 1.398 . S
C1734 C1735 1.391 . S
C1735 H1723 0.950 . S
C1735 C1731 1.393 . S
C1735 C1734 1.391 . S
C1736 H1726 0.950 . S
C1736 C1737 1.386 . S
C1736 C1738 1.391 . S
C1737 C1736 1.386 . S
C1737 C1741 1.393 . S
C1738 H1727 0.950 . S
C1738 C1736 1.391 . S
C1738 C1739 1.400 . S
C1739 C1733 1.491 . S
C1739 C1738 1.400 . S
C1739 C1740 1.398 . S
C1740 H1728 0.950 . S
C1740 C1739 1.398 . S
C1740 C1741 1.391 . S
C1741 H1729 0.950 . S
C1741 C1737 1.393 . S
C1741 C1740 1.391 . S
H1742 C1750 0.950 . S
H1743 C1755 0.950 . S
H1744 C1752 0.950 . S
H1745 C1754 0.950 . S
H1746 C1756 0.950 . S
H1747 C1758 0.950 . S
H1748 C1760 0.950 . S
H1749 C1761 0.950 . S
C1750 H1742 0.950 . S
C1750 C1751 1.386 . S
C1750 C1752 1.391 . S
C1751 C1750 1.386 . S
C1751 C1755 1.393 . S
C1752 H1744 0.950 . S
C1752 C1750 1.391 . S
C1752 C1753 1.400 . S
C1753 C1752 1.400 . S
C1753 C1754 1.398 . S
C1753 C1759 1.491 . S
C1754 H1745 0.950 . S
C1754 C1753 1.398 . S
C1754 C1755 1.391 . S
C1755 H1743 0.950 . S
C1755 C1751 1.393 . S
C1755 C1754 1.391 . S
C1756 H1746 0.950 . S
C1756 C1757 1.386 . S
C1756 C1758 1.391 . S
C1757 C1756 1.386 . S
C1757 C1761 1.393 . S
C1758 H1747 0.950 . S
C1758 C1756 1.391 . S
C1758 C1759 1.400 . S
C1759 C1753 1.491 . S
C1759 C1758 1.400 . S
C1759 C1760 1.398 . S
C1760 H1748 0.950 . S
C1760 C1759 1.398 . S
C1760 C1761 1.391 . S
C1761 H1749 0.950 . S
C1761 C1757 1.393 . S
C1761 C1760 1.391 . S
H1762 C1770 0.950 . S
H1763 C1775 0.950 . S
H1764 C1772 0.950 . S
H1765 C1774 0.950 . S
H1766 C1776 0.950 . S
H1767 C1778 0.950 . S
H1768 C1780 0.950 . S
H1769 C1781 0.950 . S
C1770 H1762 0.950 . S
C1770 C1771 1.386 . S
C1770 C1772 1.391 . S
C1771 C1770 1.386 . S
C1771 C1775 1.393 . S
C1772 H1764 0.950 . S
C1772 C1770 1.391 . S
C1772 C1773 1.400 . S
C1773 C1772 1.400 . S
C1773 C1774 1.398 . S
C1773 C1779 1.491 . S
C1774 H1765 0.950 . S
C1774 C1773 1.398 . S
C1774 C1775 1.391 . S
C1775 H1763 0.950 . S
C1775 C1771 1.393 . S
C1775 C1774 1.391 . S
C1776 H1766 0.950 . S
C1776 C1777 1.386 . S
C1776 C1778 1.391 . S
C1777 C1776 1.386 . S
C1777 C1781 1.393 . S
C1778 H1767 0.950 . S
C1778 C1776 1.391 . S
C1778 C1779 1.400 . S
C1779 C1773 1.491 . S
C1779 C1778 1.400 . S
C1779 C1780 1.398 . S
C1780 H1768 0.950 . S
C1780 C1779 1.398 . S
C1780 C1781 1.391 . S
C1781 H1769 0.950 . S
C1781 C1777 1.393 . S
C1781 C1780 1.391 . S
H1782 C1790 0.950 . S
H1783 C1795 0.950 . S
H1784 C1792 0.950 . S
H1785 C1794 0.950 . S
H1786 C1796 0.950 . S
H1787 C1798 0.950 . S
H1788 C1800 0.950 . S
H1789 C1801 0.950 . S
C1790 H1782 0.950 . S
C1790 C1791 1.386 . S
C1790 C1792 1.391 . S
C1791 C1790 1.386 . S
C1791 C1795 1.393 . S
C1792 H1784 0.950 . S
C1792 C1790 1.391 . S
C1792 C1793 1.400 . S
C1793 C1792 1.400 . S
C1793 C1794 1.398 . S
C1793 C1799 1.491 . S
C1794 H1785 0.950 . S
C1794 C1793 1.398 . S
C1794 C1795 1.391 . S
C1795 H1783 0.950 . S
C1795 C1791 1.393 . S
C1795 C1794 1.391 . S
C1796 H1786 0.950 . S
C1796 C1797 1.386 . S
C1796 C1798 1.391 . S
C1797 C1796 1.386 . S
C1797 C1801 1.393 . S
C1798 H1787 0.950 . S
C1798 C1796 1.391 . S
C1798 C1799 1.400 . S
C1799 C1793 1.491 . S
C1799 C1798 1.400 . S
C1799 C1800 1.398 . S
C1800 H1788 0.950 . S
C1800 C1799 1.398 . S
C1800 C1801 1.391 . S
C1801 H1789 0.950 . S
C1801 C1797 1.393 . S
C1801 C1800 1.391 . S
H1802 C1810 0.950 . S
H1803 C1815 0.950 . S
H1804 C1812 0.950 . S
H1805 C1814 0.950 . S
H1806 C1816 0.950 . S
H1807 C1818 0.950 . S
H1808 C1820 0.950 . S
H1809 C1821 0.950 . S
C1810 H1802 0.950 . S
C1810 C1811 1.386 . S
C1810 C1812 1.391 . S
C1811 C1810 1.386 . S
C1811 C1815 1.393 . S
C1812 H1804 0.950 . S
C1812 C1810 1.391 . S
C1812 C1813 1.400 . S
C1813 C1812 1.400 . S
C1813 C1814 1.398 . S
C1813 C1819 1.491 . S
C1814 H1805 0.950 . S
C1814 C1813 1.398 . S
C1814 C1815 1.391 . S
C1815 H1803 0.950 . S
C1815 C1811 1.393 . S
C1815 C1814 1.391 . S
C1816 H1806 0.950 . S
C1816 C1817 1.386 . S
C1816 C1818 1.391 . S
C1817 C1816 1.386 . S
C1817 C1821 1.393 . S
C1818 H1807 0.950 . S
C1818 C1816 1.391 . S
C1818 C1819 1.400 . S
C1819 C1813 1.491 . S
C1819 C1818 1.400 . S
C1819 C1820 1.398 . S
C1820 H1808 0.950 . S
C1820 C1819 1.398 . S
C1820 C1821 1.391 . S
C1821 H1809 0.950 . S
C1821 C1817 1.393 . S
C1821 C1820 1.391 . S
H1822 C1830 0.950 . S
H1823 C1835 0.950 . S
H1824 C1832 0.950 . S
H1825 C1834 0.950 . S
H1826 C1836 0.950 . S
H1827 C1838 0.950 . S
H1828 C1840 0.950 . S
H1829 C1841 0.950 . S
C1830 H1822 0.950 . S
C1830 C1831 1.386 . S
C1830 C1832 1.391 . S
C1831 C1830 1.386 . S
C1831 C1835 1.393 . S
C1832 H1824 0.950 . S
C1832 C1830 1.391 . S
C1832 C1833 1.400 . S
C1833 C1832 1.400 . S
C1833 C1834 1.398 . S
C1833 C1839 1.491 . S
C1834 H1825 0.950 . S
C1834 C1833 1.398 . S
C1834 C1835 1.391 . S
C1835 H1823 0.950 . S
C1835 C1831 1.393 . S
C1835 C1834 1.391 . S
C1836 H1826 0.950 . S
C1836 C1837 1.386 . S
C1836 C1838 1.391 . S
C1837 C1836 1.386 . S
C1837 C1841 1.393 . S
C1838 H1827 0.950 . S
C1838 C1836 1.391 . S
C1838 C1839 1.400 . S
C1839 C1833 1.491 . S
C1839 C1838 1.400 . S
C1839 C1840 1.398 . S
C1840 H1828 0.950 . S
C1840 C1839 1.398 . S
C1840 C1841 1.391 . S
C1841 H1829 0.950 . S
C1841 C1837 1.393 . S
C1841 C1840 1.391 . S
H1842 C1850 0.950 . S
H1843 C1855 0.950 . S
H1844 C1852 0.950 . S
H1845 C1854 0.950 . S
H1846 C1856 0.950 . S
H1847 C1858 0.950 . S
H1848 C1860 0.950 . S
H1849 C1861 0.950 . S
C1850 H1842 0.950 . S
C1850 C1851 1.386 . S
C1850 C1852 1.391 . S
C1851 C1850 1.386 . S
C1851 C1855 1.393 . S
C1852 H1844 0.950 . S
C1852 C1850 1.391 . S
C1852 C1853 1.400 . S
C1853 C1852 1.400 . S
C1853 C1854 1.398 . S
C1853 C1859 1.491 . S
C1854 H1845 0.950 . S
C1854 C1853 1.398 . S
C1854 C1855 1.391 . S
C1855 H1843 0.950 . S
C1855 C1851 1.393 . S
C1855 C1854 1.391 . S
C1856 H1846 0.950 . S
C1856 C1857 1.386 . S
C1856 C1858 1.391 . S
C1857 C1856 1.386 . S
C1857 C1861 1.393 . S
C1858 H1847 0.950 . S
C1858 C1856 1.391 . S
C1858 C1859 1.400 . S
C1859 C1853 1.491 . S
C1859 C1858 1.400 . S
C1859 C1860 1.398 . S
C1860 H1848 0.950 . S
C1860 C1859 1.398 . S
C1860 C1861 1.391 . S
C1861 H1849 0.950 . S
C1861 C1857 1.393 . S
C1861 C1860 1.391 . S
H1862 C1870 0.950 . S
H1863 C1875 0.950 . S
H1864 C1872 0.950 . S
H1865 C1874 0.950 . S
H1866 C1876 0.950 . S
H1867 C1878 0.950 . S
H1868 C1880 0.950 . S
H1869 C1881 0.950 . S
C1870 H1862 0.950 . S
C1870 C1871 1.386 . S
C1870 C1872 1.391 . S
C1871 C1870 1.386 . S
C1871 C1875 1.393 . S
C1872 H1864 0.950 . S
C1872 C1870 1.391 . S
C1872 C1873 1.400 . S
C1873 C1872 1.400 . S
C1873 C1874 1.398 . S
C1873 C1879 1.491 . S
C1874 H1865 0.950 . S
C1874 C1873 1.398 . S
C1874 C1875 1.391 . S
C1875 H1863 0.950 . S
C1875 C1871 1.393 . S
C1875 C1874 1.391 . S
C1876 H1866 0.950 . S
C1876 C1877 1.386 . S
C1876 C1878 1.391 . S
C1877 C1876 1.386 . S
C1877 C1881 1.393 . S
C1878 H1867 0.950 . S
C1878 C1876 1.391 . S
C1878 C1879 1.400 . S
C1879 C1873 1.491 . S
C1879 C1878 1.400 . S
C1879 C1880 1.398 . S
C1880 H1868 0.950 . S
C1880 C1879 1.398 . S
C1880 C1881 1.391 . S
C1881 H1869 0.950 . S
C1881 C1877 1.393 . S
C1881 C1880 1.391 . S
H1882 C1890 0.950 . S
H1883 C1895 0.950 . S
H1884 C1892 0.950 . S
H1885 C1894 0.950 . S
H1886 C1896 0.950 . S
H1887 C1898 0.950 . S
H1888 C1900 0.950 . S
H1889 C1901 0.950 . S
C1890 H1882 0.950 . S
C1890 C1891 1.386 . S
C1890 C1892 1.391 . S
C1891 C1890 1.386 . S
C1891 C1895 1.393 . S
C1892 H1884 0.950 . S
C1892 C1890 1.391 . S
C1892 C1893 1.400 . S
C1893 C1892 1.400 . S
C1893 C1894 1.398 . S
C1893 C1899 1.491 . S
C1894 H1885 0.950 . S
C1894 C1893 1.398 . S
C1894 C1895 1.391 . S
C1895 H1883 0.950 . S
C1895 C1891 1.393 . S
C1895 C1894 1.391 . S
C1896 H1886 0.950 . S
C1896 C1897 1.386 . S
C1896 C1898 1.391 . S
C1897 C1896 1.386 . S
C1897 C1901 1.393 . S
C1898 H1887 0.950 . S
C1898 C1896 1.391 . S
C1898 C1899 1.400 . S
C1899 C1893 1.491 . S
C1899 C1898 1.400 . S
C1899 C1900 1.398 . S
C1900 H1888 0.950 . S
C1900 C1899 1.398 . S
C1900 C1901 1.391 . S
C1901 H1889 0.950 . S
C1901 C1897 1.393 . S
C1901 C1900 1.391 . S
H1902 C1910 0.950 . S
H1903 C1915 0.950 . S
H1904 C1912 0.950 . S
H1905 C1914 0.950 . S
H1906 C1916 0.950 . S
H1907 C1918 0.950 . S
H1908 C1920 0.950 . S
H1909 C1921 0.950 . S
C1910 H1902 0.950 . S
C1910 C1911 1.386 . S
C1910 C1912 1.391 . S
C1911 C1910 1.386 . S
C1911 C1915 1.393 . S
C1912 H1904 0.950 . S
C1912 C1910 1.391 . S
C1912 C1913 1.400 . S
C1913 C1912 1.400 . S
C1913 C1914 1.398 . S
C1913 C1919 1.491 . S
C1914 H1905 0.950 . S
C1914 C1913 1.398 . S
C1914 C1915 1.391 . S
C1915 H1903 0.950 . S
C1915 C1911 1.393 . S
C1915 C1914 1.391 . S
C1916 H1906 0.950 . S
C1916 C1917 1.386 . S
C1916 C1918 1.391 . S
C1917 C1916 1.386 . S
C1917 C1921 1.393 . S
C1918 H1907 0.950 . S
C1918 C1916 1.391 . S
C1918 C1919 1.400 . S
C1919 C1913 1.491 . S
C1919 C1918 1.400 . S
C1919 C1920 1.398 . S
C1920 H1908 0.950 . S
C1920 C1919 1.398 . S
C1920 C1921 1.391 . S
C1921 H1909 0.950 . S
C1921 C1917 1.393 . S
C1921 C1920 1.391 . S
H1922 C1930 0.950 . S
H1923 C1935 0.950 . S
H1924 C1932 0.950 . S
H1925 C1934 0.950 . S
H1926 C1936 0.950 . S
H1927 C1938 0.950 . S
H1928 C1940 0.950 . S
H1929 C1941 0.950 . S
C1930 H1922 0.950 . S
C1930 C1931 1.386 . S
C1930 C1932 1.391 . S
C1931 C1930 1.386 . S
C1931 C1935 1.393 . S
C1932 H1924 0.950 . S
C1932 C1930 1.391 . S
C1932 C1933 1.400 . S
C1933 C1932 1.400 . S
C1933 C1934 1.398 . S
C1933 C1939 1.491 . S
C1934 H1925 0.950 . S
C1934 C1933 1.398 . S
C1934 C1935 1.391 . S
C1935 H1923 0.950 . S
C1935 C1931 1.393 . S
C1935 C1934 1.391 . S
C1936 H1926 0.950 . S
C1936 C1937 1.386 . S
C1936 C1938 1.391 . S
C1937 C1936 1.386 . S
C1937 C1941 1.393 . S
C1938 H1927 0.950 . S
C1938 C1936 1.391 . S
C1938 C1939 1.400 . S
C1939 C1933 1.491 . S
C1939 C1938 1.400 . S
C1939 C1940 1.398 . S
C1940 H1928 0.950 . S
C1940 C1939 1.398 . S
C1940 C1941 1.391 . S
C1941 H1929 0.950 . S
C1941 C1937 1.393 . S
C1941 C1940 1.391 . S
H1942 C1950 0.950 . S
H1943 C1955 0.950 . S
H1944 C1952 0.950 . S
H1945 C1954 0.950 . S
H1946 C1956 0.950 . S
H1947 C1958 0.950 . S
H1948 C1960 0.950 . S
H1949 C1961 0.950 . S
C1950 H1942 0.950 . S
C1950 C1951 1.386 . S
C1950 C1952 1.391 . S
C1951 C1950 1.386 . S
C1951 C1955 1.393 . S
C1952 H1944 0.950 . S
C1952 C1950 1.391 . S
C1952 C1953 1.400 . S
C1953 C1952 1.400 . S
C1953 C1954 1.398 . S
C1953 C1959 1.491 . S
C1954 H1945 0.950 . S
C1954 C1953 1.398 . S
C1954 C1955 1.391 . S
C1955 H1943 0.950 . S
C1955 C1951 1.393 . S
C1955 C1954 1.391 . S
C1956 H1946 0.950 . S
C1956 C1957 1.386 . S
C1956 C1958 1.391 . S
C1957 C1956 1.386 . S
C1957 C1961 1.393 . S
C1958 H1947 0.950 . S
C1958 C1956 1.391 . S
C1958 C1959 1.400 . S
C1959 C1953 1.491 . S
C1959 C1958 1.400 . S
C1959 C1960 1.398 . S
C1960 H1948 0.950 . S
C1960 C1959 1.398 . S
C1960 C1961 1.391 . S
C1961 H1949 0.950 . S
C1961 C1957 1.393 . S
C1961 C1960 1.391 . S
C891 C528 1.557 . S
C897 C708 1.536 . S
C911 C562 1.543 . S
C917 C728 1.520 . S
C931 C484 1.573 . S
C937 C751 1.569 . S
C951 C445 1.471 . S
C957 C731 1.467 . S
C977 C748 1.441 . S
C971 C367 1.461 . S
C991 C411 1.453 . S
C997 C711 1.445 . S
C1017 C718 1.552 . S
C1011 C450 1.566 . S
C1037 C738 1.485 . S
C1031 C372 1.517 . S
C1051 C406 1.573 . S
C1057 C743 1.571 . S
C1071 C523 1.467 . S
C1077 C723 1.465 . S
C1091 C567 1.433 . S
C1097 C758 1.430 . S
C1117 C703 1.469 . S
C1111 C489 1.467 . S
C1137 C768 1.532 . S
C1131 C60 1.549 . S
C1151 C94 1.537 . S
C1157 C788 1.500 . S
C1171 C16 1.574 . S
C1177 C811 1.570 . S
C1191 C679 1.461 . S
C1197 C791 1.455 . S
C1211 C601 1.459 . S
C1217 C808 1.450 . S
C1231 C645 1.454 . S
C1237 C771 1.445 . S
C1251 C684 1.560 . S
C1257 C778 1.552 . S
C1271 C606 1.525 . S
C1277 C798 1.505 . S
C1297 C803 1.570 . S
C1291 C640 1.572 . S
C1311 C55 1.468 . S
C1317 C783 1.465 . S
C1337 C818 1.419 . S
C1331 C99 1.439 . S
C1351 C21 1.460 . S
C1357 C763 1.463 . S
C1377 C828 1.529 . S
C1371 C294 1.547 . S
C1391 C328 1.540 . S
C1397 C848 1.502 . S
C1417 C871 1.564 . S
C1411 C250 1.569 . S
C1437 C851 1.468 . S
C1431 C211 1.473 . S
C1457 C868 1.437 . S
C1451 C133 1.452 . S
C1471 C177 1.466 . S
C1477 C831 1.461 . S
C1491 C216 1.551 . S
C1497 C838 1.538 . S
C1511 C138 1.525 . S
C1517 C858 1.494 . S
C1537 C863 1.560 . S
C1531 C172 1.563 . S
C1551 C289 1.470 . S
C1557 C843 1.467 . S
C1571 C333 1.439 . S
C1577 C878 1.419 . S
C1591 C255 1.460 . S
C1597 C823 1.462 . S
C1611 C586 1.277 . S
C1617 C721 1.255 1_565 S
C1637 C741 1.598 . S
C1631 C625 1.670 . S
C1651 C664 1.505 . S
C1657 C750 1.471 . S
C1671 C235 1.686 . S
C1677 C730 1.610 1_655 S
C1691 C274 1.483 . S
C1697 C761 1.429 . S
C1717 C710 1.261 1_545 S
C1711 C313 1.281 . S
C1731 C118 1.287 . S
C1737 C781 1.255 . S
C1751 C157 1.670 . S
C1757 C801 1.610 . S
C1771 C196 1.499 . S
C1777 C810 1.463 . S
C1791 C469 1.678 . S
C1797 C790 1.617 . S
C1817 C821 1.444 . S
C1811 C508 1.484 . S
C1831 C547 1.282 . S
C1837 C770 1.263 . S
C1851 C352 1.283 . S
C1857 C841 1.267 . S
C1871 C391 1.667 . S
C1877 C861 1.595 . S
C1897 C870 1.454 . S
C1891 C430 1.495 . S
C1911 C1 1.690 . S
C1917 C850 1.635 . S
C1931 C40 1.488 . S
C1937 C881 1.435 . S
C1951 C79 1.284 . S
C1957 C830 1.254 . S
