# Generated by pormake.
# Topology zzz, (3,6)-cn, num edge types: 1
# Building blocks:
#     Node 0, Type 0, BuildingBlock: CUQRIR_clean_linker_1, # of connection points: 3
#     Node 1, Type 0, BuildingBlock: CUQRIR_clean_linker_1, # of connection points: 3
#     Node 2, Type 0, BuildingBlock: CUQRIR_clean_linker_1, # of connection points: 3
#     Node 3, Type 0, BuildingBlock: CUQRIR_clean_linker_1, # of connection points: 3
#     Node 4, Type 0, BuildingBlock: CUQRIR_clean_linker_1, # of connection points: 3
#     Node 5, Type 0, BuildingBlock: CUQRIR_clean_linker_1, # of connection points: 3
#     Node 6, Type 0, BuildingBlock: CUQRIR_clean_linker_1, # of connection points: 3
#     Node 7, Type 0, BuildingBlock: CUQRIR_clean_linker_1, # of connection points: 3
#     Node 8, Type 1, BuildingBlock: BETDAH_clean_sbu_0, # of connection points: 6
#     Node 9, Type 1, BuildingBlock: BETDAH_clean_sbu_0, # of connection points: 6
#     Node 10, Type 1, BuildingBlock: BETDAH_clean_sbu_0, # of connection points: 6
#     Node 11, Type 1, BuildingBlock: BETDAH_clean_sbu_0, # of connection points: 6
#     Edge 12, Type (0, 1), BuildingBlock: TEMPAE_clean_linker_10, # of connection points: 2
#     Edge 13, Type (0, 1), BuildingBlock: TEMPAE_clean_linker_10, # of connection points: 2
#     Edge 14, Type (0, 1), BuildingBlock: TEMPAE_clean_linker_10, # of connection points: 2
#     Edge 15, Type (0, 1), BuildingBlock: TEMPAE_clean_linker_10, # of connection points: 2
#     Edge 16, Type (0, 1), BuildingBlock: TEMPAE_clean_linker_10, # of connection points: 2
#     Edge 17, Type (0, 1), BuildingBlock: TEMPAE_clean_linker_10, # of connection points: 2
#     Edge 18, Type (0, 1), BuildingBlock: TEMPAE_clean_linker_10, # of connection points: 2
#     Edge 19, Type (0, 1), BuildingBlock: TEMPAE_clean_linker_10, # of connection points: 2
#     Edge 20, Type (0, 1), BuildingBlock: TEMPAE_clean_linker_10, # of connection points: 2
#     Edge 21, Type (0, 1), BuildingBlock: TEMPAE_clean_linker_10, # of connection points: 2
#     Edge 22, Type (0, 1), BuildingBlock: TEMPAE_clean_linker_10, # of connection points: 2
#     Edge 23, Type (0, 1), BuildingBlock: TEMPAE_clean_linker_10, # of connection points: 2
#     Edge 24, Type (0, 1), BuildingBlock: TEMPAE_clean_linker_10, # of connection points: 2
#     Edge 25, Type (0, 1), BuildingBlock: TEMPAE_clean_linker_10, # of connection points: 2
#     Edge 26, Type (0, 1), BuildingBlock: TEMPAE_clean_linker_10, # of connection points: 2
#     Edge 27, Type (0, 1), BuildingBlock: TEMPAE_clean_linker_10, # of connection points: 2
#     Edge 28, Type (0, 1), BuildingBlock: TEMPAE_clean_linker_10, # of connection points: 2
#     Edge 29, Type (0, 1), BuildingBlock: TEMPAE_clean_linker_10, # of connection points: 2
#     Edge 30, Type (0, 1), BuildingBlock: TEMPAE_clean_linker_10, # of connection points: 2
#     Edge 31, Type (0, 1), BuildingBlock: TEMPAE_clean_linker_10, # of connection points: 2
#     Edge 32, Type (0, 1), BuildingBlock: TEMPAE_clean_linker_10, # of connection points: 2
#     Edge 33, Type (0, 1), BuildingBlock: TEMPAE_clean_linker_10, # of connection points: 2
#     Edge 34, Type (0, 1), BuildingBlock: TEMPAE_clean_linker_10, # of connection points: 2
#     Edge 35, Type (0, 1), BuildingBlock: TEMPAE_clean_linker_10, # of connection points: 2
# Relax obj value: 0.308
# Max RMSD: 0.195
# Mean RMSD: 0.161
data_MOF--net-zzz--node1-BETDAH_clean_sbu_0--node2-CUQRIR_clean_linker_1--edge1-TEMPAE_clean_linker_10
_symmetry_space_group_name_H-M    P1
_symmetry_Int_Tables_number       1
_symmetry_cell_setting            triclinic
loop_
_symmetry_equiv_pos_as_xyz
'x, y, z'
_cell_length_a     49.463896
_cell_length_b     49.363294
_cell_length_c     12.130128
_cell_angle_alpha  90.23395
_cell_angle_beta   89.828695
_cell_angle_gamma 89.913025
loop_
_atom_site_label
_atom_site_type_symbol
_atom_site_fract_x
_atom_site_fract_y
_atom_site_fract_z
_atom_type_partial_charge
C0 C 0.74331 0.51288 0.37455 0.0
N1 N 0.7671 0.49883 0.3772 0.0
N2 N 0.72625 0.50244 0.29661 0.0
C3 C 0.73629 0.5358 0.45094 0.0
C4 C 0.74084 0.48193 0.25123 0.0
N5 N 0.76508 0.47952 0.30098 0.0
C6 C 0.73286 0.46625 0.14936 0.0
H7 H 0.7472 0.53376 0.5303 0.0
H8 H 0.71417 0.53653 0.46632 0.0
H9 H 0.74248 0.55515 0.41217 0.0
H10 H 0.71932 0.47836 0.09592 0.0
H11 H 0.72217 0.44751 0.17443 0.0
H12 H 0.75089 0.46024 0.10039 0.0
C13 C 0.01886 0.74319 0.39449 0.0
N14 N 0.03244 0.76726 0.40387 0.0
N15 N 0.02892 0.72779 0.30914 0.0
C16 C 0.99678 0.73429 0.47086 0.0
C17 C 0.04857 0.74376 0.26629 0.0
N18 N 0.051 0.76695 0.32443 0.0
C19 C 0.06332 0.73832 0.15923 0.0
H20 H 0.99678 0.7119 0.47911 0.0
H21 H 0.97704 0.74062 0.43619 0.0
H22 H 0.9991 0.74389 0.55317 0.0
H23 H 0.05112 0.72546 0.10312 0.0
H24 H 0.08269 0.72788 0.177 0.0
H25 H 0.0681 0.7575 0.11597 0.0
C26 C 0.78166 1.01644 0.44724 0.0
N27 N 0.75813 0.03074 0.45625 0.0
N28 N 0.79887 0.02835 0.37354 0.0
C29 C 0.78806 0.99141 0.51169 0.0
C30 C 0.78466 0.05002 0.33711 0.0
N31 N 0.76039 0.05159 0.38784 0.0
C32 C 0.7932 0.06795 0.24283 0.0
H33 H 0.77758 0.99182 0.59269 0.0
H34 H 0.8102 0.98941 0.52397 0.0
H35 H 0.78088 0.97347 0.46493 0.0
H36 H 0.80617 0.05674 0.18338 0.0
H37 H 0.80487 0.08531 0.27612 0.0
H38 H 0.77548 0.07613 0.19806 0.0
C39 C 0.50729 0.78807 0.38261 0.0
N40 N 0.49299 0.76438 0.38412 0.0
N41 N 0.49725 0.80542 0.30515 0.0
C42 C 0.53009 0.79472 0.45909 0.0
C43 C 0.47683 0.79122 0.25874 0.0
N44 N 0.47396 0.76692 0.30754 0.0
C45 C 0.46147 0.79991 0.1574 0.0
H46 H 0.52764 0.78396 0.53864 0.0
H47 H 0.53122 0.81689 0.47377 0.0
H48 H 0.54936 0.78803 0.42059 0.0
H49 H 0.47373 0.81374 0.10563 0.0
H50 H 0.44275 0.81062 0.18318 0.0
H51 H 0.4556 0.78215 0.1065 0.0
C52 C 0.27966 0.5186 0.15216 0.0
N53 N 0.25683 0.53409 0.14385 0.0
N54 N 0.29813 0.53043 0.22111 0.0
C55 C 0.28374 0.4921 0.09342 0.0
C56 C 0.28556 0.55349 0.25431 0.0
N57 N 0.26108 0.55582 0.20689 0.0
C58 C 0.2964 0.57299 0.33947 0.0
H59 H 0.3024 0.48166 0.1204 0.0
H60 H 0.28524 0.49582 1.00352 0.0
H61 H 0.26595 0.47886 0.10745 0.0
H62 H 0.30945 0.58813 0.29794 0.0
H63 H 0.30865 0.56221 0.40204 0.0
H64 H 0.2799 0.58409 0.38219 0.0
C65 C 0.03055 0.29105 0.06295 0.0
N66 N 0.03355 0.26398 0.08369 0.0
N67 N 0.03424 0.30607 0.15697 0.0
C68 C 0.02332 0.30266 0.95318 0.0
C69 C 0.03916 0.28723 0.23475 0.0
N70 N 0.03873 0.26209 0.19088 0.0
C71 C 0.04046 0.29328 0.3566 0.0
H72 H 0.03037 0.32393 0.9468 0.0
H73 H 1.001 0.3024 0.94431 0.0
H74 H 0.03218 0.2902 0.88577 0.0
H75 H 0.01966 0.29701 0.3878 0.0
H76 H 0.0525 0.31181 0.37236 0.0
H77 H 0.04941 0.27626 0.40333 0.0
C78 C 0.24009 0.02299 0.16781 0.0
N79 N 0.26444 1.01006 0.15857 0.0
N80 N 0.22421 1.01107 0.24654 0.0
C81 C 0.23148 0.04636 0.0977 0.0
C82 C 0.24011 0.99087 0.28553 0.0
N83 N 0.26392 0.99004 0.23136 0.0
C84 C 0.23368 0.97369 0.38481 0.0
H85 H 0.23706 0.06551 0.14 0.0
H86 H 0.20925 0.04621 0.0857 0.0
H87 H 0.24189 0.04573 0.01656 0.0
H88 H 0.22383 0.95469 0.35701 0.0
H89 H 0.2199 0.98445 0.44258 0.0
H90 H 0.25234 0.96811 0.42991 0.0
C91 C 0.51457 0.25346 0.19954 0.0
N92 N 0.52882 0.27703 0.18985 0.0
N93 N 0.52719 0.23588 0.26978 0.0
C94 C 0.48803 0.24801 0.14447 0.0
C95 C 0.54936 0.24984 0.30269 0.0
N96 N 0.55049 0.27421 0.25332 0.0
C97 C 0.56881 0.24078 0.39099 0.0
H98 H 0.47151 0.25582 0.19795 0.0
H99 H 0.48503 0.22593 0.1322 0.0
H100 H 0.48681 0.25853 0.06407 0.0
H101 H 0.58511 0.22849 0.35249 0.0
H102 H 0.55838 0.2283 0.45394 0.0
H103 H 0.57843 0.25824 0.43305 0.0
Ho104 Ho 0.02773 1.00971 0.89847 0.0
Ho105 Ho 0.99319 1.01239 0.72481 0.0
C106 C 0.01912 0.95485 0.75068 0.0
C107 C 0.05241 0.99985 0.0817 0.0
C108 C 0.07304 0.98054 0.11781 0.0
C109 C 0.06811 0.96544 0.21291 0.0
C110 C 0.08513 0.94411 0.24044 0.0
C111 C 0.10774 0.93776 0.17429 0.0
C112 C 0.11371 0.95416 0.0831 0.0
C113 C 0.09637 0.97535 0.05458 0.0
C114 C 0.05668 0.02378 0.71486 0.0
C115 C 1.01023 0.06861 0.83476 0.0
C116 C 0.96233 0.01946 0.55544 0.0
C117 C 0.96748 0.03318 0.45177 0.0
C118 C 0.99394 0.03315 0.4094 0.0
C119 C 1.00386 0.05636 0.35934 0.0
C120 C 0.98708 0.07912 0.35117 0.0
C121 C 0.95919 0.07658 0.36959 0.0
C122 C 0.94938 0.05352 0.42104 0.0
C123 C 0.96689 0.99929 0.91816 0.0
O124 O 0.02492 0.96422 0.85064 0.0
O125 O 1.01006 0.97196 0.67718 0.0
O126 O 0.06012 0.01837 0.01223 0.0
O127 O 0.02909 0.98927 0.05571 0.0
O128 O 0.06035 0.03307 0.81323 0.0
O129 O 0.03784 1.00634 0.7174 0.0
O130 O 1.0069 0.0568 0.73742 0.0
O131 O 1.01299 0.0528 0.92134 0.0
O132 O 0.96264 0.03561 0.64081 0.0
O133 O 0.97611 0.99743 0.57227 0.0
O134 O 0.96447 0.98681 0.82552 0.0
O135 O 0.98407 0.01774 0.90439 0.0
H136 H 0.05028 0.96926 0.26284 0.0
H137 H 0.07959 0.93165 0.31019 0.0
H138 H 0.13097 0.94976 0.03088 0.0
H139 H 0.1006 0.98685 0.98064 0.0
H140 H 1.00806 1.01719 0.43018 0.0
H141 H 0.02536 0.05779 0.34314 0.0
H142 H 0.94584 0.09384 0.35996 0.0
H143 H 0.9288 0.05355 0.45204 0.0
Ho144 Ho 0.51691 0.03461 0.92074 0.0
Ho145 Ho 0.5039 1.00976 0.67845 0.0
C146 C 0.56638 0.02298 0.75048 0.0
C147 C 0.52682 0.04342 0.12538 0.0
C148 C 0.54346 0.06421 0.17807 0.0
C149 C 0.55833 0.05763 0.27191 0.0
C150 C 0.57919 0.07455 0.30653 0.0
C151 C 0.58556 0.09822 0.24718 0.0
C152 C 0.56884 0.106 0.15961 0.0
C153 C 0.54796 0.08907 0.12513 0.0
C154 C 0.51296 0.07441 0.76218 0.0
C155 C 0.4544 0.02111 0.8496 0.0
C156 C 0.49472 1.00097 0.47311 0.0
C157 C 0.47947 0.97938 0.41869 0.0
C158 C 0.46463 0.98526 0.32398 0.0
C159 C 0.44481 0.96729 0.28789 0.0
C160 C 0.4394 0.94334 0.34694 0.0
C161 C 0.45643 0.93619 0.43442 0.0
C162 C 0.47628 0.95416 0.47034 0.0
C163 C 0.50843 0.96986 0.83607 0.0
O164 O 0.55911 0.02532 0.85591 0.0
O165 O 0.5483 0.02106 0.66981 0.0
O166 O 0.50487 0.05214 0.07657 0.0
O167 O 0.54048 0.02586 0.06569 0.0
O168 O 0.51852 0.07884 0.86495 0.0
O169 O 0.51023 0.04921 0.75322 0.0
O170 O 0.46162 0.01872 0.74403 0.0
O171 O 0.47251 0.02337 0.93002 0.0
O172 O 0.51704 0.99337 0.52213 0.0
O173 O 0.47997 1.01751 0.53338 0.0
O174 O 0.50295 0.96548 0.7332 0.0
O175 O 0.51069 0.99511 0.84581 0.0
H176 H 0.55507 0.03856 0.3138 0.0
H177 H 0.59155 0.06795 0.37471 0.0
H178 H 0.57278 0.12444 0.1142 0.0
H179 H 0.53643 0.09472 0.05323 0.0
H180 H 0.46699 1.00455 0.28273 0.0
H181 H 0.43228 0.97337 0.2194 0.0
H182 H 0.45331 0.91755 0.4794 0.0
H183 H 0.48793 0.94899 0.54248 0.0
Ho184 Ho 0.49349 0.52387 0.86524 0.0
Ho185 Ho 0.52753 0.51485 0.68755 0.0
C186 C 0.50546 0.57439 0.70134 0.0
C187 C 0.46822 0.5402 0.04009 0.0
C188 C 0.44775 0.56063 0.06637 0.0
C189 C 0.45088 0.57595 0.16238 0.0
C190 C 0.43331 0.59724 0.18496 0.0
C191 C 0.41201 0.60344 0.11238 0.0
C192 C 0.40831 0.5874 0.0178 0.0
C193 C 0.42614 0.56611 0.99472 0.0
C194 C 0.46444 0.50773 0.68402 0.0
C195 C 0.51382 0.46369 0.84621 0.0
C196 C 0.55737 0.49814 0.52674 0.0
C197 C 0.57891 0.4776 0.52111 0.0
C198 C 0.57489 0.45156 0.56414 0.0
C199 C 0.59387 0.43125 0.54434 0.0
C200 C 0.61676 0.43658 0.47931 0.0
C201 C 0.62236 0.46325 0.44796 0.0
C202 C 0.60367 0.48379 0.47042 0.0
C203 C 0.55563 0.53154 0.86867 0.0
O204 O 0.50028 0.56736 0.80453 0.0
O205 O 0.51219 0.55534 0.62988 0.0
O206 O 0.46034 0.51983 0.97978 0.0
O207 O 0.49181 0.54952 0.01017 0.0
O208 O 0.46045 0.49993 0.78406 0.0
O209 O 0.4838 0.52445 0.6841 0.0
O210 O 0.52124 0.47123 0.74616 0.0
O211 O 0.50556 0.48207 0.91729 0.0
O212 O 0.56302 0.51962 0.58475 0.0
O213 O 0.53276 0.48937 0.54378 0.0
O214 O 0.55825 0.54117 0.7707 0.0
O215 O 0.53705 0.51395 0.86758 0.0
H216 H 0.46748 0.57202 0.21825 0.0
H217 H 0.43719 0.60952 0.25739 0.0
H218 H 0.39227 0.59192 0.96007 0.0
H219 H 0.42353 0.55452 0.91947 0.0
H220 H 0.55645 0.4464 0.60744 0.0
H221 H 0.58917 0.41076 0.56957 0.0
H222 H 0.64013 0.46774 0.39932 0.0
H223 H 0.60795 0.50415 0.4434 0.0
Ho224 Ho 1.00928 0.49933 0.83211 0.0
Ho225 Ho 0.01808 0.53193 0.64533 0.0
C226 C 0.95755 0.5128 0.67851 0.0
C227 C 0.99397 0.47665 0.01342 0.0
C228 C 0.97384 0.45655 0.04679 0.0
C229 C 0.95965 0.46078 0.14507 0.0
C230 C 0.93942 0.44291 0.17661 0.0
C231 C 0.93274 0.4205 0.10971 0.0
C232 C 0.9478 0.41566 0.01319 0.0
C233 C 0.96825 0.4336 0.98183 0.0
C234 C 0.02189 0.46844 0.65025 0.0
C235 C 0.07004 0.51818 0.80002 0.0
C236 C 0.03226 0.55438 0.46226 0.0
C237 C 0.05326 0.57251 0.41938 0.0
C238 C 0.07046 0.56251 0.33732 0.0
C239 C 0.09075 0.5787 0.29439 0.0
C240 C 0.09401 0.60569 0.33035 0.0
C241 C 0.07633 0.616 0.41124 0.0
C242 C 0.05612 0.59947 0.4559 0.0
C243 C 1.0048 0.56263 0.82611 0.0
O244 O 0.96554 0.50749 0.78014 0.0
O245 O 0.97581 0.51865 0.6031 0.0
O246 O 1.01398 0.46781 0.95307 0.0
O247 O 0.98447 0.49986 0.97948 0.0
O248 O 0.03004 0.46393 0.74944 0.0
O249 O 1.00634 0.4888 0.65229 0.0
O250 O 0.06196 0.52582 0.7008 0.0
O251 O 0.05208 0.51038 0.87357 0.0
O252 O 1.01435 0.56477 0.52938 0.0
O253 O 0.04031 0.53026 0.49212 0.0
O254 O 0.99589 0.56633 0.72729 0.0
O255 O 0.02087 0.54258 0.82489 0.0
H256 H 0.96377 0.47835 0.19623 0.0
H257 H 0.92788 0.44772 0.25015 0.0
H258 H 0.94302 0.39868 0.95992 0.0
H259 H 0.97908 0.42997 0.90543 0.0
H260 H 0.0685 0.54188 0.30743 0.0
H261 H 0.10441 0.56955 0.23505 0.0
H262 H 0.0782 0.63668 0.44033 0.0
H263 H 0.04282 0.60778 0.51861 0.0
C264 C 0.17868 0.99504 0.29722 0.0
C265 C 0.19666 1.0167 0.28265 0.0
C266 C 0.1549 0.99781 0.36003 0.0
C267 C 0.14735 0.02345 0.4028 0.0
C268 C 0.16395 0.04616 0.37813 0.0
C269 C 0.18871 0.04244 0.32054 0.0
C270 C 0.13922 0.9727 0.38877 0.0
C271 C 0.15624 0.07414 0.4173 0.0
C272 C 0.07482 0.02625 0.51937 0.0
C273 C 0.07935 0.0238 0.63299 0.0
C274 C 0.09667 0.02745 0.44367 0.0
C275 C 0.12377 0.02549 0.48201 0.0
C276 C 0.12826 0.0228 0.5969 0.0
C277 C 0.10616 0.02246 0.67049 0.0
C278 C 0.09077 0.03122 0.32282 0.0
C279 C 0.15646 0.0195 0.64233 0.0
H280 H 0.18441 0.97523 0.26621 0.0
H281 H 0.20236 0.05937 0.30983 0.0
H282 H 0.14187 0.96817 0.47762 0.0
H283 H 0.11734 0.97584 0.37458 0.0
H284 H 0.1463 0.95497 0.34039 0.0
H285 H 0.16835 0.09007 0.37575 0.0
H286 H 0.13445 0.078 0.40204 0.0
H287 H 0.15961 0.07577 0.50742 0.0
H288 H 0.05424 0.0278 0.48997 0.0
H289 H 0.1099 0.02051 0.75815 0.0
H290 H 0.10231 1.01642 0.27219 0.0
H291 H 0.09737 0.05175 0.2975 0.0
H292 H 0.0689 0.02903 0.30421 0.0
H293 H 0.16622 1.00136 0.60517 0.0
H294 H 0.15656 1.01728 0.73343 0.0
H295 H 0.16901 0.03727 0.62024 0.0
C296 C 0.49452 0.204 0.35789 0.0
C297 C 0.51968 0.20902 0.30809 0.0
C298 C 0.4899 0.17994 0.41858 0.0
C299 C 0.51135 0.16117 0.43478 0.0
C300 C 0.53626 0.16581 0.38049 0.0
C301 C 0.53959 0.18881 0.31395 0.0
C302 C 0.46263 0.17551 0.47114 0.0
C303 C 0.56052 0.14819 0.40214 0.0
C304 C 0.51665 0.12288 0.70692 0.0
C305 C 0.51127 0.09596 0.67616 0.0
C306 C 0.51594 0.14415 0.63013 0.0
C307 C 0.5093 0.13873 0.51864 0.0
C308 C 0.50343 0.11158 0.48696 0.0
C309 C 0.50457 0.09051 0.56593 0.0
C310 C 0.52322 0.1724 0.66813 0.0
C311 C 0.49634 0.1048 0.36926 0.0
H312 H 0.47896 0.21943 0.35441 0.0
H313 H 0.55887 0.19229 0.2739 0.0
H314 H 0.45639 0.15402 0.46253 0.0
H315 H 0.46379 0.1802 0.56049 0.0
H316 H 0.44688 0.18866 0.43404 0.0
H317 H 0.57711 0.15231 0.34286 0.0
H318 H 0.56818 0.15237 0.48638 0.0
H319 H 0.55501 0.12648 0.39878 0.0
H320 H 0.52188 0.12737 0.79177 0.0
H321 H 0.50038 0.06983 0.5413 0.0
H322 H 0.50627 0.18653 0.65164 0.0
H323 H 0.54102 0.17983 0.62133 0.0
H324 H 0.52799 0.17327 0.75751 0.0
H325 H 0.47831 0.11664 0.34399 0.0
H326 H 0.4921 0.08288 0.35743 0.0
H327 H 0.51318 0.11065 0.31372 0.0
C328 C 0.32833 0.4973 0.31505 0.0
C329 C 0.32472 0.52169 0.25767 0.0
C330 C 0.35255 0.49196 0.37321 0.0
C331 C 0.37304 0.51208 0.37952 0.0
C332 C 0.36966 0.53624 0.31867 0.0
C333 C 0.34621 0.54018 0.25528 0.0
C334 C 0.35558 0.46536 0.43252 0.0
C335 C 0.38969 0.55904 0.32809 0.0
C336 C 0.41579 0.51663 0.64148 0.0
C337 C 0.44154 0.50874 0.60444 0.0
C338 C 0.39349 0.51758 0.5696 0.0
C339 C 0.39655 0.50945 0.45789 0.0
C340 C 0.42249 0.50093 0.42046 0.0
C341 C 0.44476 0.50115 0.49363 0.0
C342 C 0.36677 0.52806 0.61289 0.0
C343 C 0.42677 0.49159 0.3031 0.0
H344 H 0.31176 0.48301 0.31896 0.0
H345 H 0.34362 0.55896 0.21054 0.0
H346 H 0.37638 0.45725 0.4218 0.0
H347 H 0.35212 0.46847 0.52205 0.0
H348 H 0.34088 0.45006 0.40241 0.0
H349 H 0.38381 0.57651 0.27649 0.0
H350 H 0.39097 0.566 0.41504 0.0
H351 H 0.41007 0.55197 0.30337 0.0
H352 H 0.4132 0.52267 0.72693 0.0
H353 H 0.46457 0.49485 0.46478 0.0
H354 H 0.35113 0.51209 0.60602 0.0
H355 H 0.35991 0.5455 0.56264 0.0
H356 H 0.36798 0.53463 0.70044 0.0
H357 H 0.41065 0.47716 0.27862 0.0
H358 H 0.44675 0.48167 0.29141 0.0
H359 H 0.42561 0.50917 0.24668 0.0
C360 C 0.05396 0.35032 0.20496 0.0
C361 C 0.03098 0.33476 0.18083 0.0
C362 C 0.05224 0.3744 0.26818 0.0
C363 C 0.02682 0.38341 0.30899 0.0
C364 C 1.00326 0.36901 0.27646 0.0
C365 C 1.00565 0.34482 0.21395 0.0
C366 C 0.078 0.38885 0.2989 0.0
C367 C 0.97562 0.378 0.31477 0.0
C368 C 0.02652 0.41977 0.58977 0.0
C369 C 0.02259 0.44709 0.56158 0.0
C370 C 0.02749 0.3991 0.50897 0.0
C371 C 0.02523 0.40566 0.39555 0.0
C372 C 0.02179 0.43331 0.3664 0.0
C373 C 0.02003 0.45358 0.44944 0.0
C374 C 0.03112 0.3701 0.54533 0.0
C375 C 0.02084 0.44159 0.24722 0.0
H376 H 0.07362 0.34229 0.18236 0.0
H377 H 0.98789 0.33259 0.19826 0.0
H378 H 0.07557 0.41109 0.29101 0.0
H379 H 0.08291 0.38452 0.38628 0.0
H380 H 0.09533 0.38223 0.24685 0.0
H381 H 0.95921 0.36735 0.26986 0.0
H382 H 0.97342 0.37378 0.40413 0.0
H383 H 0.97311 0.40015 0.30331 0.0
H384 H 0.02853 0.41441 0.67593 0.0
H385 H 0.01737 0.47461 0.42642 0.0
H386 H 0.05002 0.36166 0.50957 0.0
H387 H 1.01414 0.35753 0.51441 0.0
H388 H 0.03204 0.36817 0.63645 0.0
H389 H 1.01453 0.46304 0.23767 0.0
H390 H 1.00691 0.42825 0.20056 0.0
H391 H 0.0412 0.43919 0.20989 0.0
C392 C 0.84624 0.03977 0.32931 0.0
C393 C 0.8256 0.02033 0.33522 0.0
C394 C 0.87015 0.03503 0.26901 0.0
C395 C 0.87421 1.00974 0.21554 0.0
C396 C 0.85432 0.98922 0.22845 0.0
C397 C 0.83015 0.99484 0.28708 0.0
C398 C 0.88982 0.05813 0.25541 0.0
C399 C 0.85789 0.96179 0.17516 0.0
C400 C 0.9183 1.0101 0.9555 0.0
C401 C 0.94355 1.00177 0.99539 0.0
C402 C 0.89569 1.01253 0.02587 0.0
C403 C 0.89803 1.00581 0.13906 0.0
C404 C 0.92349 0.99694 0.17936 0.0
C405 C 0.94601 0.99534 0.10739 0.0
C406 C 0.86934 0.02277 0.97921 0.0
C407 C 0.92684 0.98891 0.29832 0.0
H408 H 0.84288 0.05947 0.36666 0.0
H409 H 0.81423 0.97982 0.29027 0.0
H410 H 0.91093 0.0509 0.24647 0.0
H411 H 0.88458 0.06948 0.1796 0.0
H412 H 0.88869 0.07246 0.32613 0.0
H413 H 0.84251 0.94704 0.20404 0.0
H414 H 0.85613 0.96376 0.08439 0.0
H415 H 0.87833 0.95362 0.19283 0.0
H416 H 0.91635 1.01514 0.86895 0.0
H417 H 0.96545 0.98867 0.13832 0.0
H418 H 0.86335 0.04179 0.02193 0.0
H419 H 0.85306 1.00777 0.99375 0.0
H420 H 0.87068 0.0268 0.88932 0.0
H421 H 0.91875 1.00495 0.35362 0.0
H422 H 0.94831 0.98496 0.31968 0.0
H423 H 0.915 0.97027 0.31444 0.0
C424 C 0.52991 0.8398 0.23565 0.0
C425 C 0.50426 0.83312 0.27705 0.0
C426 C 0.53421 0.86447 0.17875 0.0
C427 C 0.51212 0.88226 0.15884 0.0
C428 C 0.48671 0.87607 0.20634 0.0
C429 C 0.48346 0.8523 0.26819 0.0
C430 C 0.5619 0.8705 0.13304 0.0
C431 C 0.46199 0.89275 0.18125 0.0
C432 C 0.51662 0.95357 0.03223 0.0
C433 C 0.511 0.94814 0.92097 0.0
C434 C 0.51828 0.93231 0.11022 0.0
C435 C 0.51411 0.905 0.07642 0.0
C436 C 0.50878 0.8996 0.96373 0.0
C437 C 0.50744 0.92107 0.88807 0.0
C438 C 0.52402 0.93905 0.22916 0.0
C439 C 0.50351 0.87111 0.9232 0.0
H440 H 0.5461 0.82508 0.24169 0.0
H441 H 0.46366 0.84726 0.30062 0.0
H442 H 0.5622 0.86621 0.04322 0.0
H443 H 0.56694 0.89223 0.14462 0.0
H444 H 0.57774 0.85794 0.17281 0.0
H445 H 0.4451 0.88796 0.23824 0.0
H446 H 0.46657 0.91468 0.18543 0.0
H447 H 0.4552 0.88825 0.09603 0.0
H448 H 0.51942 0.97437 0.05852 0.0
H449 H 0.50311 0.91659 0.80235 0.0
H450 H 0.54289 0.92875 0.25524 0.0
H451 H 0.50748 0.93134 0.28235 0.0
H452 H 0.52619 0.96119 0.24332 0.0
H453 H 0.52079 0.85776 0.94395 0.0
H454 H 0.50023 0.8702 0.8327 0.0
H455 H 0.48536 0.86277 0.96491 0.0
C456 C 0.69247 0.5371 0.23754 0.0
C457 C 0.69897 0.51026 0.26488 0.0
C458 C 0.66756 0.54352 0.1865 0.0
C459 C 0.64919 0.52253 0.15804 0.0
C460 C 0.65524 0.49569 0.19028 0.0
C461 C 0.67948 0.49011 0.24621 0.0
C462 C 0.66131 0.57261 0.15908 0.0
C463 C 0.63681 0.47252 0.16002 0.0
C464 C 0.57602 0.53184 0.05882 0.0
C465 C 0.57923 0.53061 0.94431 0.0
C466 C 0.59862 0.5311 0.12966 0.0
C467 C 0.6251 0.52777 0.08529 0.0
C468 C 0.62826 0.52661 0.96908 0.0
C469 C 0.60545 0.52851 0.90044 0.0
C470 C 0.59349 0.53331 0.25163 0.0
C471 C 0.65569 0.52218 0.91692 0.0
H472 H 0.70729 0.55286 0.2515 0.0
H473 H 0.68402 0.46946 0.26986 0.0
H474 H 0.66244 0.57554 0.06858 0.0
H475 H 0.64041 0.57775 0.18559 0.0
H476 H 0.67565 0.58685 0.19918 0.0
H477 H 0.64528 0.45264 0.18498 0.0
H478 H 0.61682 0.47544 0.20015 0.0
H479 H 0.63345 0.47206 0.06961 0.0
H480 H 0.55583 0.53373 0.09323 0.0
H481 H 0.60809 0.5274 0.81176 0.0
H482 H 0.58409 0.51418 0.28009 0.0
H483 H 0.57875 0.54981 0.26878 0.0
H484 H 0.61212 0.53733 0.29958 0.0
H485 H 0.66993 0.53819 0.94399 0.0
H486 H 0.65484 0.5222 0.8254 0.0
H487 H 0.66411 0.50246 0.94418 0.0
C488 C 0.04316 0.68266 0.24062 0.0
C489 C 0.02219 0.70064 0.26949 0.0
C490 C 0.0386 0.65975 0.17373 0.0
C491 C 1.01195 0.65266 0.14271 0.0
C492 C 0.99023 0.6691 0.18171 0.0
C493 C 0.99562 0.69323 0.24203 0.0
C494 C 0.06261 0.64436 0.12885 0.0
C495 C 0.96135 0.66191 0.15554 0.0
C496 C 1.00513 0.61231 0.87297 0.0
C497 C 1.00555 0.58527 0.90892 0.0
C498 C 1.00663 0.63424 0.94781 0.0
C499 C 1.00754 0.62935 0.06295 0.0
C500 C 1.007 0.60204 0.09991 0.0
C501 C 1.00651 0.58039 0.02274 0.0
C502 C 1.00825 0.66269 0.903 0.0
C503 C 1.00674 0.59573 0.22129 0.0
H504 H 0.06367 0.68776 0.26375 0.0
H505 H 0.97918 0.7068 0.26348 0.0
H506 H 0.0612 0.62268 0.15146 0.0
H507 H 0.06271 0.64535 0.03747 0.0
H508 H 0.08203 0.65275 0.15906 0.0
H509 H 0.94689 0.67298 0.20969 0.0
H510 H 0.95689 0.66728 0.06879 0.0
H511 H 0.95799 0.63981 0.16475 0.0
H512 H 1.0045 0.61639 0.78527 0.0
H513 H 1.00647 0.55962 0.0515 0.0
H514 H 0.02722 0.67249 0.93112 0.0
H515 H 0.99119 0.67501 0.93508 0.0
H516 H 1.00774 0.66314 0.81147 0.0
H517 H 0.98779 0.60363 0.25871 0.0
H518 H 0.02374 0.6061 0.26293 0.0
H519 H 1.00811 0.57364 0.23745 0.0
C520 C 1.0076 0.22754 0.25135 0.0
C521 C 0.03359 0.23817 0.25267 0.0
C522 C 1.00235 0.20216 0.29537 0.0
C523 C 0.02384 0.18756 0.34517 0.0
C524 C 0.04954 0.19988 0.35815 0.0
C525 C 0.05429 0.22505 0.30914 0.0
C526 C 0.97391 0.19127 0.28307 0.0
C527 C 0.07251 0.18645 0.41866 0.0
C528 C 0.99189 0.12359 0.44257 0.0
C529 C 0.99929 0.10604 0.35635 0.0
C530 C 1.00241 0.1497 0.44865 0.0
C531 C 0.02028 0.1584 0.36503 0.0
C532 C 0.03022 0.13959 0.28567 0.0
C533 C 0.01958 0.11343 0.2827 0.0
C534 C 0.99251 0.1683 0.53933 0.0
C535 C 0.05107 0.14712 0.20033 0.0
H536 H 0.99166 0.2387 0.21027 0.0
H537 H 0.07424 0.23408 0.31192 0.0
H538 H 0.97285 0.16888 0.28186 0.0
H539 H 0.9614 0.19886 0.35268 0.0
H540 H 0.96441 0.19881 0.20611 0.0
H541 H 0.08964 0.183 0.3609 0.0
H542 H 0.07994 0.2003 0.48425 0.0
H543 H 0.06681 0.16694 0.45707 0.0
H544 H 0.97744 0.11708 0.50445 0.0
H545 H 0.0262 0.09917 0.21987 0.0
H546 H 0.97199 0.17576 0.51883 0.0
H547 H 1.00604 0.18595 0.55191 0.0
H548 H 0.99061 0.15704 0.61801 0.0
H549 H 0.05126 0.13268 0.12984 0.0
H550 H 0.07139 0.14674 0.23865 0.0
H551 H 0.04749 0.16776 0.16834 0.0
C552 C 0.3093 0.98478 0.30511 0.0
C553 C 0.2864 0.97313 0.25873 0.0
C554 C 0.33195 0.96902 0.32901 0.0
C555 C 0.33156 0.94081 0.30439 0.0
C556 C 0.30764 0.92869 0.26376 0.0
C557 C 0.28522 0.94515 0.241 0.0
C558 C 0.35617 0.9829 0.37998 0.0
C559 C 0.3056 0.89871 0.24115 0.0
C560 C 0.40198 0.92816 0.22401 0.0
C561 C 0.41339 0.92914 0.32954 0.0
C562 C 0.37395 0.92649 0.21152 0.0
C563 C 0.35746 0.92576 0.3069 0.0
C564 C 0.36923 0.91994 0.40988 0.0
C565 C 0.39731 0.92219 0.4209 0.0
C566 C 0.36195 0.92921 0.09804 0.0
C567 C 0.35209 0.9154 0.51102 0.0
H568 H 0.3094 1.00639 0.32152 0.0
H569 H 0.26698 0.93634 0.20704 0.0
H570 H 0.37529 0.97648 0.33992 0.0
H571 H 0.35471 1.00532 0.37514 0.0
H572 H 0.35747 0.97739 0.4683 0.0
H573 H 0.28556 0.89102 0.26815 0.0
H574 H 0.3071 0.89512 0.15098 0.0
H575 H 0.32162 0.88688 0.28309 0.0
H576 H 0.41461 0.93171 0.15232 0.0
H577 H 0.40593 0.92174 0.50288 0.0
H578 H 0.34796 0.94675 0.09562 0.0
H579 H 0.35005 0.91081 0.07842 0.0
H580 H 0.37764 0.93185 0.03324 0.0
H581 H 0.34868 0.93497 0.55415 0.0
H582 H 0.3625 0.90162 0.56938 0.0
H583 H 0.33213 0.90669 0.48899 0.0
C584 C 0.56589 0.31217 0.36462 0.0
C585 C 0.57007 0.29476 0.2758 0.0
C586 C 0.58331 0.33382 0.38362 0.0
C587 C 0.60685 0.33666 0.31708 0.0
C588 C 0.61242 0.31737 0.23315 0.0
C589 C 0.59348 0.29686 0.21178 0.0
C590 C 0.57535 0.35451 0.47026 0.0
C591 C 0.63771 0.3184 0.16358 0.0
C592 C 0.61791 0.41033 0.30923 0.0
C593 C 0.62802 0.41382 0.41596 0.0
C594 C 0.61497 0.38441 0.26453 0.0
C595 C 0.62286 0.36184 0.32822 0.0
C596 C 0.63851 0.36585 0.42437 0.0
C597 C 0.64016 0.39197 0.46985 0.0
C598 C 0.59928 0.38113 0.15876 0.0
C599 C 0.64986 0.34221 0.48741 0.0
H600 H 0.54809 0.30947 0.41572 0.0
H601 H 0.59688 0.28252 0.14525 0.0
H602 H 0.59056 0.35502 0.53708 0.0
H603 H 0.57437 0.37498 0.43304 0.0
H604 H 0.55535 0.35009 0.50802 0.0
H605 H 0.64683 0.29786 0.15777 0.0
H606 H 0.63233 0.32451 0.07846 0.0
H607 H 0.65308 0.3326 0.19649 0.0
H608 H 0.60834 0.42727 0.26825 0.0
H609 H 0.6483 0.39479 0.55201 0.0
H610 H 0.57969 0.37099 0.17558 0.0
H611 H 0.61078 0.36821 0.10026 0.0
H612 H 0.5951 0.40087 0.11844 0.0
H613 H 0.6344 0.33448 0.54569 0.0
H614 H 0.66783 0.3484 0.53606 0.0
H615 H 0.65558 0.32544 0.43055 0.0
C616 C 0.2411 0.60019 0.16433 0.0
C617 C 0.24197 0.57692 0.22926 0.0
C618 C 0.22051 0.61944 0.18008 0.0
C619 C 0.1995 0.61391 0.25659 0.0
C620 C 0.20209 0.59138 0.32895 0.0
C621 C 0.22428 0.57413 0.31768 0.0
C622 C 0.22097 0.64476 0.11109 0.0
C623 C 0.18052 0.58362 0.41174 0.0
C624 C 0.13364 0.6366 0.36177 0.0
C625 C 0.11759 0.6213 0.28943 0.0
C626 C 0.16117 0.64052 0.33812 0.0
C627 C 0.17257 0.62697 0.24601 0.0
C628 C 0.1552 0.61732 0.16196 0.0
C629 C 0.12753 0.61571 0.18354 0.0
C630 C 0.17841 0.65585 0.41926 0.0
C631 C 0.16574 0.60494 0.05622 0.0
H632 H 0.25616 0.60301 0.10034 0.0
H633 H 0.22649 0.55676 0.37133 0.0
H634 H 0.22057 0.63925 0.02228 0.0
H635 H 0.20401 0.65879 0.12998 0.0
H636 H 0.24028 0.65564 0.12544 0.0
H637 H 0.18425 0.5634 0.44872 0.0
H638 H 0.17999 0.59861 0.47983 0.0
H639 H 0.1603 0.5831 0.37252 0.0
H640 H 0.12582 0.64285 0.44141 0.0
H641 H 0.11436 0.60636 0.12311 0.0
H642 H 0.19965 0.65791 0.39061 0.0
H643 H 0.17804 0.64566 0.50062 0.0
H644 H 0.16975 0.67639 0.43197 0.0
H645 H 0.17587 0.62073 0.00643 0.0
H646 H 0.14927 0.59608 0.00572 0.0
H647 H 0.18063 0.5887 0.07349 0.0
C648 C 0.05768 0.81338 0.26306 0.0
C649 C 0.06865 0.78884 0.29697 0.0
C650 C 0.07447 0.83489 0.23404 0.0
C651 C 0.103 0.83158 0.23981 0.0
C652 C 0.11414 0.8063 0.27016 0.0
C653 C 0.09669 0.78515 0.29901 0.0
C654 C 0.06146 0.8611 0.19728 0.0
C655 C 0.14423 0.8014 0.27442 0.0
C656 C 0.12421 0.89373 0.0999 0.0
C657 C 0.12141 0.91139 0.19026 0.0
C658 C 0.12393 0.86566 0.11607 0.0
C659 C 0.12021 0.8557 0.22396 0.0
C660 C 0.12385 0.87318 0.31516 0.0
C661 C 0.12439 0.9011 0.29715 0.0
C662 C 0.12287 0.84708 0.0173 0.0
C663 C 0.12199 0.86288 0.43175 0.0
H664 H 0.0359 0.81555 0.25913 0.0
H665 H 0.10485 0.76574 0.32402 0.0
H666 H 0.06967 0.87855 0.24409 0.0
H667 H 0.06594 0.86452 0.1088 0.0
H668 H 0.03914 0.86091 0.20786 0.0
H669 H 0.15582 0.81613 0.22427 0.0
H670 H 0.15109 0.80289 0.36123 0.0
H671 H 0.14908 0.7806 0.24507 0.0
H672 H 0.12283 0.90145 0.01657 0.0
H673 H 0.12324 0.91464 0.36745 0.0
H674 H 0.10151 0.84421 0.99202 0.0
H675 H 0.1315 0.8269 0.03702 0.0
H676 H 0.13404 0.85586 0.94639 0.0
H677 H 0.12751 0.87864 0.49329 0.0
H678 H 0.13544 0.84511 0.4425 0.0
H679 H 0.10099 0.8562 0.44849 0.0
C680 C 0.71612 0.05688 0.3041 0.0
C681 C 0.73841 0.0686 0.355 0.0
C682 C 0.69359 0.07246 0.27696 0.0
C683 C 0.69354 0.10065 0.30182 0.0
C684 C 0.71699 0.11291 0.34628 0.0
C685 C 0.73925 0.09657 0.37308 0.0
C686 C 0.66987 0.05834 0.22312 0.0
C687 C 0.71873 0.14292 0.36861 0.0
C688 C 0.62844 0.1187 0.17716 0.0
C689 C 0.61174 0.11192 0.26682 0.0
C690 C 0.65643 0.1211 0.19146 0.0
C691 C 0.66751 0.11543 0.29593 0.0
C692 C 0.65034 0.11463 0.38932 0.0
C693 C 0.62241 0.11302 0.37358 0.0
C694 C 0.67424 0.12569 0.09232 0.0
C695 C 0.66153 0.1113 0.5039 0.0
H696 H 0.71629 0.03528 0.28747 0.0
H697 H 0.75705 0.10547 0.41044 0.0
H698 H 0.65042 0.0646 0.2608 0.0
H699 H 0.66918 0.06379 0.13462 0.0
H700 H 0.67147 0.03593 0.22839 0.0
H701 H 0.73859 0.15078 0.34025 0.0
H702 H 0.70245 0.15459 0.32759 0.0
H703 H 0.7176 0.14655 0.45885 0.0
H704 H 0.62036 0.11907 0.09426 0.0
H705 H 0.60927 0.10957 0.44382 0.0
H706 H 0.67793 0.10615 0.04934 0.0
H707 H 0.69405 0.1344 0.11664 0.0
H708 H 0.66422 0.13951 0.03299 0.0
H709 H 0.67386 0.09257 0.50769 0.0
H710 H 0.64537 0.11015 0.56751 0.0
H711 H 0.67492 0.1286 0.5239 0.0
C712 C 0.42742 0.7518 0.27417 0.0
C713 C 0.45521 0.74639 0.27441 0.0
C714 C 0.40896 0.73223 0.23789 0.0
C715 C 0.41874 0.70658 0.20399 0.0
C716 C 0.44704 0.70136 0.20268 0.0
C717 C 0.46488 0.7215 0.23725 0.0
C718 C 0.37927 0.73927 0.23757 0.0
C719 C 0.45871 0.67452 0.16511 0.0
C720 C 0.39165 0.63819 0.23573 0.0
C721 C 0.39724 0.62923 0.12818 0.0
C722 C 0.39349 0.66573 0.26165 0.0
C723 C 0.40016 0.6841 0.17685 0.0
C724 C 0.39803 0.67583 0.06562 0.0
C725 C 0.39703 0.64805 0.0419 0.0
C726 C 0.39383 0.67418 0.38121 0.0
C727 C 0.40202 0.69562 0.97278 0.0
H728 H 0.42022 0.77139 0.30231 0.0
H729 H 0.48651 0.71793 0.23529 0.0
H730 H 0.36719 0.72554 0.1845 0.0
H731 H 0.37133 0.7382 0.3231 0.0
H732 H 0.3763 0.76042 0.20896 0.0
H733 H 0.4809 0.67328 0.17801 0.0
H734 H 0.44906 0.65762 0.21022 0.0
H735 H 0.45474 0.6715 0.07599 0.0
H736 H 0.39038 0.62362 0.3021 0.0
H737 H 0.40017 0.64134 0.95763 0.0
H738 H 0.38286 0.69358 0.39281 0.0
H739 H 0.41507 0.67729 0.40743 0.0
H740 H 0.38458 0.6586 0.4353 0.0
H741 H 0.39402 0.71593 0.99543 0.0
H742 H 0.3919 0.68842 0.89647 0.0
H743 H 0.42394 0.69765 0.95484 0.0
C744 C 0.8105 0.47212 0.22764 0.0
C745 C 0.78636 0.46149 0.26768 0.0
C746 C 0.83164 0.45503 0.19552 0.0
C747 C 0.82835 0.42649 0.20366 0.0
C748 C 0.80342 0.41565 0.24002 0.0
C749 C 0.78269 0.43342 0.27249 0.0
C750 C 0.85739 0.46773 0.15246 0.0
C751 C 0.79842 0.38557 0.24658 0.0
C752 C 0.88791 0.40434 0.04566 0.0
C753 C 0.90694 0.40626 0.13095 0.0
C754 C 0.86021 0.40517 0.06989 0.0
C755 C 0.85203 0.40893 0.18055 0.0
C756 C 0.8708 0.40449 0.26634 0.0
C757 C 0.89831 0.40265 0.24007 0.0
C758 C 0.8402 0.4068 0.9767 0.0
C759 C 0.86255 0.40679 0.3857 0.0
H760 H 0.81272 0.49391 0.22172 0.0
H761 H 0.76364 0.42545 0.30254 0.0
H762 H 0.87533 0.45914 0.19432 0.0
H763 H 0.85951 0.46336 0.06311 0.0
H764 H 0.85759 0.49007 0.16363 0.0
H765 H 0.77733 0.38082 0.22199 0.0
H766 H 0.81247 0.37368 0.19375 0.0
H767 H 0.80086 0.37891 0.33324 0.0
H768 H 0.89434 0.40602 0.96046 0.0
H769 H 0.91311 0.40264 0.30587 0.0
H770 H 0.83723 0.4283 0.95315 0.0
H771 H 0.8203 0.39842 1.00183 0.0
H772 H 0.84769 0.39563 0.90298 0.0
H773 H 0.85774 0.42825 0.40478 0.0
H774 H 0.87881 0.39996 0.44216 0.0
H775 H 0.84411 0.39467 0.40153 0.0
C776 C 1.00705 0.23278 0.96014 0.0
C777 C 0.03144 0.24014 0.01116 0.0
C778 C 1.00326 0.20655 0.91301 0.0
C779 C 0.02409 0.18646 0.91874 0.0
C780 C 0.04945 0.19479 0.96301 0.0
C781 C 0.05258 0.2211 0.00864 0.0
C782 C 0.97648 0.20074 0.85894 0.0
C783 C 0.07375 0.17624 0.9651 0.0
C784 C 1.00062 0.11171 0.94207 0.0
C785 C 1.01194 0.0991 0.84873 0.0
C786 C 1.00327 0.13991 0.96204 0.0
C787 C 0.01872 0.15656 0.88971 0.0
C788 C 0.02986 0.14389 0.7937 0.0
C789 C 0.02606 0.11565 0.77394 0.0
C790 C 0.98903 0.15169 0.06107 0.0
C791 C 0.04648 0.15971 0.71202 0.0
H792 H 0.99039 0.24707 0.96157 0.0
H793 H 0.07157 0.22653 0.04725 0.0
H794 H 0.9764 0.18154 0.8112 0.0
H795 H 0.96044 0.19997 0.923 0.0
H796 H 0.97115 0.21757 0.80249 0.0
H797 H 0.08586 0.17961 0.0409 0.0
H798 H 0.0684 0.15449 0.95994 0.0
H799 H 0.08703 0.18122 0.89421 0.0
H800 H 0.98934 0.0994 1.00001 0.0
H801 H 0.03508 0.10635 0.70152 0.0
H802 H 0.96959 0.1607 0.03456 0.0
H803 H 1.00121 0.16786 0.10004 0.0
H804 H 0.98427 0.13598 0.12335 0.0
H805 H 0.04044 0.18136 0.70932 0.0
H806 H 0.04479 0.15085 0.62808 0.0
H807 H 0.06809 0.15852 0.73556 0.0
C808 C 0.30192 0.03999 0.09459 0.0
C809 C 0.28751 1.01559 0.0867 0.0
C810 C 0.32756 0.04308 0.04341 0.0
C811 C 0.33953 0.02113 0.98433 0.0
C812 C 0.32402 0.9972 0.96961 0.0
C813 C 0.29843 0.99476 0.02091 0.0
C814 C 0.34237 0.06957 0.05622 0.0
C815 C 0.33438 0.97395 0.90018 0.0
C816 C 0.40427 0.02717 0.80561 0.0
C817 C 0.42486 0.0211 0.88155 0.0
C818 C 0.37665 0.02814 0.8377 0.0
C819 C 0.36898 0.02212 0.94812 0.0
C820 C 0.38977 1.01584 0.02452 0.0
C821 C 0.41713 1.01555 0.9908 0.0
C822 C 0.35586 0.03545 0.75212 0.0
C823 C 0.38323 1.00811 0.14166 0.0
H824 H 0.29375 0.05615 0.14545 0.0
H825 H 0.28726 0.97599 0.01323 0.0
H826 H 0.35954 0.06694 0.11382 0.0
H827 H 0.35083 0.07606 0.97566 0.0
H828 H 0.32901 0.08586 0.08889 0.0
H829 H 0.33155 0.97891 0.81191 0.0
H830 H 0.35628 0.97042 0.91362 0.0
H831 H 0.32324 0.95488 0.91711 0.0
H832 H 0.40974 0.03164 0.72103 0.0
H833 H 0.43256 1.01048 0.05058 0.0
H834 H 0.36462 0.049 0.68848 0.0
H835 H 0.33794 0.04556 0.78923 0.0
H836 H 0.34904 1.01673 0.70981 0.0
H837 H 0.36674 0.02069 0.17668 0.0
H838 H 0.40108 1.01001 0.19641 0.0
H839 H 0.37639 0.98675 0.14234 0.0
C840 C 0.51893 0.32626 0.19123 0.0
C841 C 0.52188 0.30197 0.13206 0.0
C842 C 0.51839 0.35165 0.13846 0.0
C843 C 0.51801 0.35309 0.02142 0.0
C844 C 0.51884 0.32831 0.96068 0.0
C845 C 0.52166 0.30325 0.01651 0.0
C846 C 0.51897 0.37674 0.21015 0.0
C847 C 0.51743 0.3279 0.83654 0.0
C848 C 0.49185 0.42296 0.93137 0.0
C849 C 0.51451 0.43458 0.8805 0.0
C850 C 0.49216 0.396 0.96988 0.0
C851 C 0.51638 0.38043 0.96461 0.0
C852 C 0.53933 0.39211 0.91155 0.0
C853 C 0.53785 0.41868 0.86798 0.0
C854 C 0.46626 0.38465 0.01673 0.0
C855 C 0.56583 0.37714 0.90069 0.0
H856 H 0.51794 0.3255 0.28017 0.0
H857 H 0.52414 0.28467 0.96962 0.0
H858 H 0.52839 0.39424 0.16779 0.0
H859 H 0.49801 0.38226 0.23398 0.0
H860 H 0.53033 0.37293 0.28748 0.0
H861 H 0.50772 0.30898 0.80657 0.0
H862 H 0.50604 0.34549 0.80374 0.0
H863 H 0.53824 0.32837 0.80238 0.0
H864 H 0.47356 0.43493 0.94007 0.0
H865 H 0.55545 0.42743 0.82833 0.0
H866 H 0.46378 0.39175 0.10301 0.0
H867 H 0.46582 0.36218 0.01536 0.0
H868 H 0.44857 0.39225 0.96979 0.0
H869 H 0.58311 0.39132 0.90992 0.0
H870 H 0.56724 0.36828 0.81665 0.0
H871 H 0.56809 0.36063 0.96165 0.0
C872 C 0.23092 0.52411 0.97084 0.0
C873 C 0.23159 0.5283 0.08544 0.0
C874 C 0.2061 0.52074 0.91368 0.0
C875 C 0.18097 0.52359 0.97074 0.0
C876 C 0.18181 0.52822 0.08645 0.0
C877 C 0.2068 0.52878 0.14199 0.0
C878 C 0.20726 0.51452 0.79198 0.0
C879 C 0.15652 0.53325 0.15372 0.0
C880 C 0.11674 0.53968 0.80106 0.0
C881 C 0.09935 0.51858 0.83212 0.0
C882 C 0.14355 0.54134 0.84193 0.0
C883 C 0.15383 0.52077 0.91291 0.0
C884 C 0.13682 0.49825 0.93616 0.0
C885 C 0.10981 0.49793 0.89881 0.0
C886 C 0.16034 0.56539 0.80771 0.0
C887 C 0.14663 0.47413 1.00098 0.0
H888 H 0.24979 0.52365 0.92539 0.0
H889 H 0.20679 0.52995 0.23076 0.0
H890 H 0.18872 0.50427 0.76208 0.0
H891 H 0.20989 0.53372 0.74594 0.0
H892 H 0.22498 0.50148 0.77249 0.0
H893 H 0.16063 0.54773 0.22188 0.0
H894 H 0.13973 0.54155 0.10363 0.0
H895 H 0.14987 0.51401 0.19192 0.0
H896 H 0.10905 0.55559 0.74828 0.0
H897 H 0.09684 0.48112 0.92132 0.0
H898 H 0.16846 0.56163 0.72365 0.0
H899 H 0.17752 0.56937 0.86383 0.0
H900 H 0.14763 0.58393 0.80313 0.0
H901 H 0.13882 0.45508 0.96391 0.0
H902 H 0.13846 0.47527 0.0861 0.0
H903 H 0.169 0.47277 0.00454 0.0
C904 C 0.05098 0.80079 0.53774 0.0
C905 C 0.02867 0.78994 0.48096 0.0
C906 C 0.04965 0.82607 0.59333 0.0
C907 C 0.02519 0.84122 0.59463 0.0
C908 C 1.00209 0.82948 0.54334 0.0
C909 C 1.00413 0.80425 0.48684 0.0
C910 C 0.07481 0.83678 0.64838 0.0
C911 C 0.97534 0.84414 0.54441 0.0
C912 C 0.01914 0.90377 0.78956 0.0
C913 C 0.02273 0.92554 0.71639 0.0
C914 C 0.01959 0.87638 0.75195 0.0
C915 C 0.02451 0.87026 0.6387 0.0
C916 C 0.02916 0.89224 0.56599 0.0
C917 C 0.02782 0.91926 0.60492 0.0
C918 C 1.01444 0.854 0.83349 0.0
C919 C 0.03584 0.88723 0.44624 0.0
H920 H 0.06998 0.78987 0.53455 0.0
H921 H 0.98684 0.79636 0.44258 0.0
H922 H 0.07772 0.85862 0.63055 0.0
H923 H 0.07273 0.83464 0.73895 0.0
H924 H 0.09321 0.82554 0.62194 0.0
H925 H 0.95859 0.83111 0.51439 0.0
H926 H 0.97046 0.85125 0.62911 0.0
H927 H 0.97659 0.86227 0.49092 0.0
H928 H 1.01503 0.90815 0.87562 0.0
H929 H 0.03089 0.93569 0.54717 0.0
H930 H 0.03344 0.84264 0.84789 0.0
H931 H 0.99938 0.83948 0.80027 0.0
H932 H 1.00704 0.86191 0.914 0.0
H933 H 0.03991 0.90627 0.40067 0.0
H934 H 0.01889 0.87651 0.40541 0.0
H935 H 0.0539 0.87396 0.44002 0.0
C936 C 0.72348 0.04644 0.59017 0.0
C937 C 0.73419 0.02563 0.52375 0.0
C938 C 0.69752 0.04452 0.63849 0.0
C939 C 0.68144 0.02113 0.62015 0.0
C940 C 0.69305 0.9992 0.55975 0.0
C941 C 0.71908 1.00178 0.51163 0.0
C942 C 0.68744 0.06782 0.70847 0.0
C943 C 0.67739 0.9734 0.54161 0.0
C944 C 0.61623 1.01603 0.79579 0.0
C945 C 0.59593 0.02258 0.71932 0.0
C946 C 0.64388 1.0146 0.76461 0.0
C947 C 0.65188 0.02065 0.65462 0.0
C948 C 0.63135 0.02735 0.57753 0.0
C949 C 0.60395 0.0281 0.61046 0.0
C950 C 0.66433 1.00666 0.85065 0.0
C951 C 0.63786 0.03501 0.46024 0.0
H952 H 0.73519 0.06479 0.60092 0.0
H953 H 0.72704 0.98568 0.45987 0.0
H954 H 0.66551 0.07148 0.69653 0.0
H955 H 0.69068 0.0629 0.79656 0.0
H956 H 0.69859 0.08683 0.69064 0.0
H957 H 0.69041 0.95685 0.5088 0.0
H958 H 0.66798 0.96665 0.62004 0.0
H959 H 0.66087 0.97715 0.48186 0.0
H960 H 0.61051 1.01152 0.88007 0.0
H961 H 0.58873 0.03348 0.55019 0.0
H962 H 0.6716 0.02517 0.89334 0.0
H963 H 0.68202 0.99609 0.81385 0.0
H964 H 0.65512 0.99331 0.91395 0.0
H965 H 0.62181 0.02789 0.40324 0.0
H966 H 0.65747 0.02694 0.43076 0.0
H967 H 0.63858 0.05739 0.45515 0.0
C968 C 0.47429 0.72847 0.50539 0.0
C969 C 0.49662 0.74027 0.45213 0.0
C970 C 0.4757 0.70239 0.55274 0.0
C971 C 0.50033 0.68759 0.54986 0.0
C972 C 0.5234 0.70009 0.50167 0.0
C973 C 0.52123 0.72607 0.4529 0.0
C974 C 0.45048 0.69033 0.60268 0.0
C975 C 0.55021 0.68555 0.4978 0.0
C976 C 0.50731 0.62508 0.73848 0.0
C977 C 0.50343 0.60342 0.66451 0.0
C978 C 0.50679 0.65239 0.70263 0.0
C979 C 0.50146 0.65853 0.59036 0.0
C980 C 0.49679 0.63669 0.51624 0.0
C981 C 0.49827 0.60962 0.55352 0.0
C982 C 0.51226 0.67469 0.7849 0.0
C983 C 0.48968 0.64194 0.3974 0.0
H984 H 0.45524 0.73935 0.50588 0.0
H985 H 0.53849 0.73477 0.41088 0.0
H986 H 0.44672 0.66985 0.56801 0.0
H987 H 0.45318 0.68801 0.69285 0.0
H988 H 0.43234 0.70312 0.5883 0.0
H989 H 0.56679 0.69885 0.46822 0.0
H990 H 0.55549 0.67784 0.58084 0.0
H991 H 0.54877 0.66779 0.44177 0.0
H992 H 0.51144 0.62065 0.82425 0.0
H993 H 0.49493 0.5932 0.49555 0.0
H994 H 0.49418 0.68785 0.79341 0.0
H995 H 0.52909 0.68762 0.75517 0.0
H996 H 0.51755 0.66669 0.86755 0.0
H997 H 0.48626 0.62295 0.35005 0.0
H998 H 0.50606 0.65357 0.35681 0.0
H999 H 0.47105 0.65446 0.39376 0.0
C1000 C 0.80496 0.52787 0.44367 0.0
C1001 C 0.79102 0.50314 0.44526 0.0
C1002 C 0.83087 0.53052 0.4921 0.0
C1003 C 0.84352 0.50782 0.54237 0.0
C1004 C 0.82888 0.48315 0.54842 0.0
C1005 C 0.80289 0.48125 0.50097 0.0
C1006 C 0.8452 0.55741 0.48558 0.0
C1007 C 0.84084 0.45843 0.60259 0.0
C1008 C 0.92118 0.50538 0.53648 0.0
C1009 C 0.92827 0.51107 0.64624 0.0
C1010 C 0.89392 0.50394 0.50286 0.0
C1011 C 0.87276 0.50917 0.57943 0.0
C1012 C 0.87978 0.51509 0.6905 0.0
C1013 C 0.90732 0.51554 0.72283 0.0
C1014 C 0.88771 0.49616 0.38533 0.0
C1015 C 0.85822 0.52107 0.77534 0.0
H1016 H 0.79615 0.54479 0.39989 0.0
H1017 H 0.79215 0.46214 0.50333 0.0
H1018 H 0.86261 0.55574 0.4281 0.0
H1019 H 0.83165 0.57382 0.4562 0.0
H1020 H 0.85329 0.56315 0.56765 0.0
H1021 H 0.82925 0.43976 0.58297 0.0
H1022 H 0.86218 0.45539 0.57685 0.0
H1023 H 0.84066 0.46126 0.6933 0.0
H1024 H 0.93706 0.50154 0.4766 0.0
H1025 H 0.91246 0.52002 0.80776 0.0
H1026 H 0.87506 0.47762 0.38471 0.0
H1027 H 0.90626 0.49225 0.33588 0.0
H1028 H 0.87592 0.51246 0.34502 0.0
H1029 H 0.84379 0.53637 0.74347 0.0
H1030 H 0.86688 0.52862 0.85407 0.0
H1031 H 0.84659 0.50238 0.79268 0.0
loop_
_geom_bond_atom_site_label_1
_geom_bond_atom_site_label_2
_geom_bond_distance
_geom_bond_site_symmetry_2
_ccdc_geom_bond_type
C0 N1 1.317 . S
C0 N2 1.348 . S
C0 C3 1.485 . S
N1 C0 1.317 . S
N1 N5 1.370 . S
N2 C0 1.348 . S
N2 C4 1.346 . S
C3 C0 1.485 . S
C3 H7 0.960 . S
C3 H8 0.961 . S
C3 H9 0.960 . S
C4 N2 1.346 . S
C4 N5 1.307 . S
C4 C6 1.486 . S
N5 N1 1.370 . S
N5 C4 1.307 . S
C6 C4 1.486 . S
C6 H10 0.960 . S
C6 H11 0.960 . S
C6 H12 0.959 . S
H7 C3 0.960 . S
H8 C3 0.961 . S
H9 C3 0.960 . S
H10 C6 0.960 . S
H11 C6 0.960 . S
H12 C6 0.959 . S
C13 N14 1.317 . S
C13 N15 1.350 . S
C13 C16 1.485 . S
N14 C13 1.317 . S
N14 N18 1.371 . S
N15 C13 1.350 . S
N15 C17 1.345 1_655 S
C16 C13 1.485 . S
C16 H20 0.960 1_655 S
C16 H21 0.961 . S
C16 H22 0.960 . S
C17 N15 1.345 1_455 S
C17 N18 1.307 1_455 S
C17 C19 1.486 . S
N18 N14 1.371 . S
N18 C17 1.307 1_655 S
C19 C17 1.486 . S
C19 H23 0.922 1_455 S
C19 H24 0.991 . S
C19 H25 0.967 . S
H20 C16 0.960 1_455 S
H21 C16 0.961 . S
H22 C16 0.960 . S
H23 C19 0.922 1_655 S
H24 C19 0.991 . S
H25 C19 0.967 . S
C26 N27 1.317 . S
C26 N28 1.350 . S
C26 C29 1.485 . S
N27 C26 1.317 . S
N27 N31 1.371 . S
N28 C26 1.350 . S
N28 C30 1.345 1_565 S
C29 C26 1.485 . S
C29 H33 0.960 1_565 S
C29 H34 0.961 . S
C29 H35 0.960 . S
C30 N28 1.345 1_545 S
C30 N31 1.307 1_545 S
C30 C32 1.486 . S
N31 N27 1.371 . S
N31 C30 1.307 1_565 S
C32 C30 1.486 . S
C32 H36 0.922 1_545 S
C32 H37 0.991 . S
C32 H38 0.967 . S
H33 C29 0.960 1_545 S
H34 C29 0.961 . S
H35 C29 0.960 . S
H36 C32 0.922 1_565 S
H37 C32 0.991 . S
H38 C32 0.967 . S
C39 N40 1.317 . S
C39 N41 1.348 . S
C39 C42 1.485 . S
N40 C39 1.317 . S
N40 N44 1.370 . S
N41 C39 1.348 . S
N41 C43 1.346 . S
C42 C39 1.485 . S
C42 H46 0.960 . S
C42 H47 0.961 . S
C42 H48 0.960 . S
C43 N41 1.346 . S
C43 N44 1.307 . S
C43 C45 1.486 . S
N44 N40 1.370 . S
N44 C43 1.307 . S
C45 C43 1.486 . S
C45 H49 0.960 . S
C45 H50 0.960 . S
C45 H51 0.959 . S
H46 C42 0.960 . S
H47 C42 0.961 . S
H48 C42 0.960 . S
H49 C45 0.960 . S
H50 C45 0.960 . S
H51 C45 0.959 . S
C52 N53 1.317 . S
C52 N54 1.348 1_556 S
C52 C55 1.485 . S
N53 C52 1.317 . S
N53 N57 1.370 1_556 S
N54 C52 1.348 1_554 S
N54 C56 1.346 . S
C55 C52 1.485 . S
C55 H59 0.960 . S
C55 H60 0.961 . S
C55 H61 0.960 . S
C56 N54 1.346 . S
C56 N57 1.307 . S
C56 C58 1.486 . S
N57 N53 1.370 1_554 S
N57 C56 1.307 . S
C58 C56 1.486 . S
C58 H62 0.960 . S
C58 H63 0.960 . S
C58 H64 0.959 . S
H59 C55 0.960 . S
H60 C55 0.961 . S
H61 C55 0.960 . S
H62 C58 0.960 . S
H63 C58 0.960 . S
H64 C58 0.959 . S
C65 N66 1.317 . S
C65 N67 1.350 1_556 S
C65 C68 1.485 . S
N66 C65 1.317 . S
N66 N70 1.370 1_556 S
N67 C65 1.350 1_554 S
N67 C69 1.345 1_655 S
C68 C65 1.485 . S
C68 H72 0.960 1_655 S
C68 H73 0.961 . S
C68 H74 0.960 . S
C69 N67 1.345 1_455 S
C69 N70 1.307 1_455 S
C69 C71 1.486 . S
N70 N66 1.370 1_554 S
N70 C69 1.307 1_655 S
C71 C69 1.486 . S
C71 H75 0.960 1_455 S
C71 H76 0.960 . S
C71 H77 0.959 . S
H72 C68 0.960 1_455 S
H73 C68 0.961 . S
H74 C68 0.960 . S
H75 C71 0.960 1_655 S
H76 C71 0.960 . S
H77 C71 0.959 . S
C78 N79 1.317 . S
C78 N80 1.350 1_556 S
C78 C81 1.485 . S
N79 C78 1.317 . S
N79 N83 1.370 1_556 S
N80 C78 1.350 1_554 S
N80 C82 1.345 1_565 S
C81 C78 1.485 . S
C81 H85 0.960 1_565 S
C81 H86 0.961 . S
C81 H87 0.960 . S
C82 N80 1.345 1_545 S
C82 N83 1.307 1_545 S
C82 C84 1.486 . S
N83 N79 1.370 1_554 S
N83 C82 1.307 1_565 S
C84 C82 1.486 . S
C84 H88 0.960 1_545 S
C84 H89 0.960 . S
C84 H90 0.959 . S
H85 C81 0.960 1_545 S
H86 C81 0.961 . S
H87 C81 0.960 . S
H88 C84 0.960 1_565 S
H89 C84 0.960 . S
H90 C84 0.959 . S
C91 N92 1.317 . S
C91 N93 1.348 1_556 S
C91 C94 1.485 . S
N92 C91 1.317 . S
N92 N96 1.370 1_556 S
N93 C91 1.348 1_554 S
N93 C95 1.346 . S
C94 C91 1.485 . S
C94 H98 0.960 . S
C94 H99 0.961 . S
C94 H100 0.960 . S
C95 N93 1.346 . S
C95 N96 1.307 . S
C95 C97 1.486 . S
N96 N92 1.370 1_554 S
N96 C95 1.307 . S
C97 C95 1.486 . S
C97 H101 0.960 . S
C97 H102 0.960 . S
C97 H103 0.959 . S
H98 C94 0.960 . S
H99 C94 0.961 . S
H100 C94 0.960 . S
H101 C97 0.960 . S
H102 C97 0.960 . S
H103 C97 0.959 . S
Ho104 C107 2.811 1_556 S
Ho104 O124 2.322 . S
Ho104 O126 2.378 . S
Ho104 O127 2.524 . S
Ho104 O128 2.381 . S
Ho104 O129 2.669 1_565 S
Ho104 O131 2.346 1_565 S
Ho104 O135 2.305 1_455 S
Ho105 C116 2.811 . S
Ho105 O125 2.346 1_545 S
Ho105 O129 2.305 1_655 S
Ho105 O130 2.322 . S
Ho105 O132 2.378 . S
Ho105 O133 2.524 . S
Ho105 O134 2.381 . S
Ho105 O135 2.669 1_545 S
C106 O124 1.259 1_655 S
C106 O125 1.268 . S
C107 Ho104 2.811 1_554 S
C107 C108 1.488 . S
C107 O126 1.215 1_554 S
C107 O127 1.289 1_554 S
C108 C107 1.488 . S
C108 C109 1.348 . S
C108 C113 1.413 . S
C109 C108 1.348 . S
C109 C110 1.442 . S
C109 H136 0.930 1_455 S
C110 C109 1.442 . S
C110 C111 1.381 . S
C110 H137 0.931 1_455 S
C111 C110 1.381 . S
C111 C112 1.321 . S
C112 C111 1.321 . S
C112 C113 1.403 . S
C112 H138 0.934 . S
C113 C108 1.413 . S
C113 C112 1.403 . S
C113 H139 0.930 . S
C114 O128 1.275 . S
C114 O129 1.256 1_565 S
C115 O130 1.259 1_455 S
C115 O131 1.268 . S
C116 Ho105 2.811 . S
C116 C117 1.488 . S
C116 O132 1.215 . S
C116 O133 1.289 . S
C117 C116 1.488 . S
C117 C118 1.348 . S
C117 C122 1.413 . S
C118 C117 1.348 . S
C118 C119 1.442 . S
C118 H140 0.930 1_655 S
C119 C118 1.442 . S
C119 C120 1.381 . S
C119 H141 0.931 1_655 S
C120 C119 1.381 . S
C120 C121 1.321 . S
C121 C120 1.321 . S
C121 C122 1.403 . S
C121 H142 0.934 . S
C122 C117 1.413 . S
C122 C121 1.403 . S
C122 H143 0.930 . S
C123 O134 1.275 . S
C123 O135 1.256 1_545 S
O124 Ho104 2.322 . S
O124 C106 1.259 1_455 S
O125 Ho105 2.346 1_565 S
O125 C106 1.268 . S
O126 Ho104 2.378 . S
O126 C107 1.215 1_556 S
O127 Ho104 2.524 . S
O127 C107 1.289 1_556 S
O128 Ho104 2.381 . S
O128 C114 1.275 . S
O129 Ho104 2.669 1_545 S
O129 Ho105 2.305 1_455 S
O129 C114 1.256 1_545 S
O130 Ho105 2.322 . S
O130 C115 1.259 1_655 S
O131 Ho104 2.346 1_545 S
O131 C115 1.268 . S
O132 Ho105 2.378 . S
O132 C116 1.215 . S
O133 Ho105 2.524 . S
O133 C116 1.289 . S
O134 Ho105 2.381 . S
O134 C123 1.275 . S
O135 Ho104 2.305 1_655 S
O135 Ho105 2.669 1_565 S
O135 C123 1.256 1_565 S
H136 C109 0.930 1_655 S
H137 C110 0.931 1_655 S
H138 C112 0.934 . S
H139 C113 0.930 . S
H140 C118 0.930 1_455 S
H141 C119 0.931 1_455 S
H142 C121 0.934 . S
H143 C122 0.930 . S
Ho144 C147 2.811 1_556 S
Ho144 O164 2.322 . S
Ho144 O166 2.378 . S
Ho144 O167 2.542 . S
Ho144 O168 2.381 . S
Ho144 O169 2.669 . S
Ho144 O171 2.346 . S
Ho144 O175 2.305 1_545 S
Ho145 C156 2.811 . S
Ho145 O165 2.346 . S
Ho145 O169 2.305 1_565 S
Ho145 O170 2.322 . S
Ho145 O172 2.378 . S
Ho145 O173 2.538 . S
Ho145 O174 2.381 . S
Ho145 O175 2.669 . S
C146 O164 1.259 1_565 S
C146 O165 1.268 . S
C147 Ho144 2.811 1_554 S
C147 C148 1.488 . S
C147 O166 1.215 1_554 S
C147 O167 1.331 1_554 S
C148 C147 1.488 . S
C148 C149 1.348 . S
C148 C153 1.413 . S
C149 C148 1.348 . S
C149 C150 1.442 . S
C149 H176 0.930 1_545 S
C150 C149 1.442 . S
C150 C151 1.381 . S
C150 H177 0.931 1_545 S
C151 C150 1.381 . S
C151 C152 1.321 . S
C152 C151 1.321 . S
C152 C153 1.403 . S
C152 H178 0.934 . S
C153 C148 1.413 . S
C153 C152 1.403 . S
C153 H179 0.930 . S
C154 O168 1.275 . S
C154 O169 1.256 . S
C155 O170 1.259 1_545 S
C155 O171 1.268 . S
C156 Ho145 2.811 . S
C156 C157 1.488 . S
C156 O172 1.215 . S
C156 O173 1.322 . S
C157 C156 1.488 . S
C157 C158 1.348 . S
C157 C162 1.413 . S
C158 C157 1.348 . S
C158 C159 1.442 . S
C158 H180 0.930 1_565 S
C159 C158 1.442 . S
C159 C160 1.381 . S
C159 H181 0.931 1_565 S
C160 C159 1.381 . S
C160 C161 1.321 . S
C161 C160 1.321 . S
C161 C162 1.403 . S
C161 H182 0.934 . S
C162 C157 1.413 . S
C162 C161 1.403 . S
C162 H183 0.930 . S
C163 O174 1.275 . S
C163 O175 1.256 . S
O164 Ho144 2.322 . S
O164 C146 1.259 1_545 S
O165 Ho145 2.346 . S
O165 C146 1.268 . S
O166 Ho144 2.378 . S
O166 C147 1.215 1_556 S
O167 Ho144 2.542 . S
O167 C147 1.331 1_556 S
O168 Ho144 2.381 . S
O168 C154 1.275 . S
O169 Ho144 2.669 . S
O169 Ho145 2.305 1_545 S
O169 C154 1.256 . S
O170 Ho145 2.322 . S
O170 C155 1.259 1_565 S
O171 Ho144 2.346 . S
O171 C155 1.268 . S
O172 Ho145 2.378 . S
O172 C156 1.215 . S
O173 Ho145 2.538 . S
O173 C156 1.322 . S
O174 Ho145 2.381 . S
O174 C163 1.275 . S
O175 Ho144 2.305 1_565 S
O175 Ho145 2.669 . S
O175 C163 1.256 . S
H176 C149 0.930 1_565 S
H177 C150 0.931 1_565 S
H178 C152 0.934 . S
H179 C153 0.930 . S
H180 C158 0.930 1_545 S
H181 C159 0.931 1_545 S
H182 C161 0.934 . S
H183 C162 0.930 . S
Ho184 C187 2.811 1_556 S
Ho184 O204 2.322 . S
Ho184 O206 2.378 . S
Ho184 O207 2.524 . S
Ho184 O208 2.381 . S
Ho184 O209 2.669 . S
Ho184 O211 2.346 . S
Ho184 O215 2.305 . S
Ho185 C196 2.811 . S
Ho185 O205 2.346 . S
Ho185 O209 2.305 . S
Ho185 O210 2.322 . S
Ho185 O212 2.378 . S
Ho185 O213 2.524 . S
Ho185 O214 2.381 . S
Ho185 O215 2.669 . S
C186 O204 1.259 . S
C186 O205 1.268 . S
C187 Ho184 2.811 1_554 S
C187 C188 1.488 . S
C187 O206 1.215 1_554 S
C187 O207 1.289 1_554 S
C188 C187 1.488 . S
C188 C189 1.348 . S
C188 C193 1.413 . S
C189 C188 1.348 . S
C189 C190 1.442 . S
C189 H216 0.930 . S
C190 C189 1.442 . S
C190 C191 1.381 . S
C190 H217 0.931 . S
C191 C190 1.381 . S
C191 C192 1.321 . S
C192 C191 1.321 . S
C192 C193 1.403 . S
C192 H218 0.934 . S
C193 C188 1.413 . S
C193 C192 1.403 . S
C193 H219 0.930 . S
C194 O208 1.275 . S
C194 O209 1.256 . S
C195 O210 1.259 . S
C195 O211 1.268 . S
C196 Ho185 2.811 . S
C196 C197 1.488 . S
C196 O212 1.215 . S
C196 O213 1.289 . S
C197 C196 1.488 . S
C197 C198 1.348 . S
C197 C202 1.413 . S
C198 C197 1.348 . S
C198 C199 1.442 . S
C198 H220 0.930 . S
C199 C198 1.442 . S
C199 C200 1.381 . S
C199 H221 0.931 . S
C200 C199 1.381 . S
C200 C201 1.321 . S
C201 C200 1.321 . S
C201 C202 1.403 . S
C201 H222 0.934 . S
C202 C197 1.413 . S
C202 C201 1.403 . S
C202 H223 0.930 . S
C203 O214 1.275 . S
C203 O215 1.256 . S
O204 Ho184 2.322 . S
O204 C186 1.259 . S
O205 Ho185 2.346 . S
O205 C186 1.268 . S
O206 Ho184 2.378 . S
O206 C187 1.215 1_556 S
O207 Ho184 2.524 . S
O207 C187 1.289 1_556 S
O208 Ho184 2.381 . S
O208 C194 1.275 . S
O209 Ho184 2.669 . S
O209 Ho185 2.305 . S
O209 C194 1.256 . S
O210 Ho185 2.322 . S
O210 C195 1.259 . S
O211 Ho184 2.346 . S
O211 C195 1.268 . S
O212 Ho185 2.378 . S
O212 C196 1.215 . S
O213 Ho185 2.524 . S
O213 C196 1.289 . S
O214 Ho185 2.381 . S
O214 C203 1.275 . S
O215 Ho184 2.305 . S
O215 Ho185 2.669 . S
O215 C203 1.256 . S
H216 C189 0.930 . S
H217 C190 0.931 . S
H218 C192 0.934 . S
H219 C193 0.930 . S
H220 C198 0.930 . S
H221 C199 0.931 . S
H222 C201 0.934 . S
H223 C202 0.930 . S
Ho224 C227 2.811 1_556 S
Ho224 O244 2.322 . S
Ho224 O246 2.378 . S
Ho224 O247 2.524 . S
Ho224 O248 2.381 . S
Ho224 O249 2.669 1_655 S
Ho224 O251 2.346 1_655 S
Ho224 O255 2.305 . S
Ho225 C236 2.811 . S
Ho225 O245 2.346 1_455 S
Ho225 O249 2.305 . S
Ho225 O250 2.322 . S
Ho225 O252 2.378 . S
Ho225 O253 2.524 . S
Ho225 O254 2.381 . S
Ho225 O255 2.669 1_455 S
C226 O244 1.259 . S
C226 O245 1.268 . S
C227 Ho224 2.811 1_554 S
C227 C228 1.488 . S
C227 O246 1.215 1_554 S
C227 O247 1.289 1_554 S
C228 C227 1.488 . S
C228 C229 1.348 . S
C228 C233 1.413 . S
C229 C228 1.348 . S
C229 C230 1.442 . S
C229 H256 0.930 . S
C230 C229 1.442 . S
C230 C231 1.381 . S
C230 H257 0.931 . S
C231 C230 1.381 . S
C231 C232 1.321 . S
C232 C231 1.321 . S
C232 C233 1.403 . S
C232 H258 0.934 . S
C233 C228 1.413 . S
C233 C232 1.403 . S
C233 H259 0.930 . S
C234 O248 1.289 . S
C234 O249 1.248 1_655 S
C235 O250 1.259 . S
C235 O251 1.268 . S
C236 Ho225 2.811 . S
C236 C237 1.488 . S
C236 O252 1.215 . S
C236 O253 1.289 . S
C237 C236 1.488 . S
C237 C238 1.348 . S
C237 C242 1.413 . S
C238 C237 1.348 . S
C238 C239 1.442 . S
C238 H260 0.930 . S
C239 C238 1.442 . S
C239 C240 1.381 . S
C239 H261 0.931 . S
C240 C239 1.381 . S
C240 C241 1.321 . S
C241 C240 1.321 . S
C241 C242 1.403 . S
C241 H262 0.934 . S
C242 C237 1.413 . S
C242 C241 1.403 . S
C242 H263 0.930 . S
C243 O254 1.294 . S
C243 O255 1.246 1_455 S
O244 Ho224 2.322 . S
O244 C226 1.259 . S
O245 Ho225 2.346 1_655 S
O245 C226 1.268 . S
O246 Ho224 2.378 . S
O246 C227 1.215 1_556 S
O247 Ho224 2.524 . S
O247 C227 1.289 1_556 S
O248 Ho224 2.381 . S
O248 C234 1.289 . S
O249 Ho224 2.669 1_455 S
O249 Ho225 2.305 . S
O249 C234 1.248 1_455 S
O250 Ho225 2.322 . S
O250 C235 1.259 . S
O251 Ho224 2.346 1_455 S
O251 C235 1.268 . S
O252 Ho225 2.378 . S
O252 C236 1.215 . S
O253 Ho225 2.524 . S
O253 C236 1.289 . S
O254 Ho225 2.381 . S
O254 C243 1.294 . S
O255 Ho224 2.305 . S
O255 Ho225 2.669 1_655 S
O255 C243 1.246 1_655 S
H256 C229 0.930 . S
H257 C230 0.931 . S
H258 C232 0.934 . S
H259 C233 0.930 . S
H260 C238 0.930 . S
H261 C239 0.931 . S
H262 C241 0.934 . S
H263 C242 0.930 . S
C264 C265 1.391 . S
C264 C266 1.394 . S
C264 H280 0.931 . S
C265 C264 1.391 . S
C265 C269 1.376 1_565 S
C266 C264 1.394 . S
C266 C267 1.369 . S
C266 C270 1.531 . S
C267 C266 1.369 . S
C267 C268 1.410 1_565 S
C267 C275 1.503 . S
C268 C267 1.410 1_545 S
C268 C269 1.392 . S
C268 C271 1.511 . S
C269 C265 1.376 1_545 S
C269 C268 1.392 . S
C269 H281 0.929 . S
C270 C266 1.531 . S
C270 H282 0.960 . S
C270 H283 0.962 . S
C270 H284 0.960 . S
C271 C268 1.511 . S
C271 H285 0.961 . S
C271 H286 0.961 . S
C271 H287 0.961 . S
C272 C273 1.387 . S
C272 C274 1.363 . S
C272 H288 0.931 . S
C273 C272 1.387 . S
C273 C277 1.389 1_545 S
C274 C272 1.363 . S
C274 C275 1.370 1_545 S
C274 C278 1.524 . S
C275 C267 1.503 . S
C275 C274 1.370 1_565 S
C275 C276 1.403 . S
C276 C275 1.403 . S
C276 C277 1.404 . S
C276 C279 1.539 . S
C277 C273 1.389 1_565 S
C277 C276 1.404 . S
C277 H289 0.930 . S
C278 C274 1.524 . S
C278 H290 0.956 . S
C278 H291 0.961 . S
C278 H292 0.961 . S
C279 C276 1.539 . S
C279 H293 0.958 . S
C279 H294 0.961 . S
C279 H295 0.960 . S
H280 C264 0.931 . S
H281 C269 0.929 . S
H282 C270 0.960 . S
H283 C270 0.962 . S
H284 C270 0.960 . S
H285 C271 0.961 . S
H286 C271 0.961 . S
H287 C271 0.961 . S
H288 C272 0.931 . S
H289 C277 0.930 . S
H290 C278 0.956 . S
H291 C278 0.961 . S
H292 C278 0.961 . S
H293 C279 0.958 . S
H294 C279 0.961 . S
H295 C279 0.960 . S
C296 C297 1.391 . S
C296 C298 1.394 . S
C296 H312 0.931 . S
C297 C296 1.391 . S
C297 C301 1.376 . S
C298 C296 1.394 . S
C298 C299 1.369 . S
C298 C302 1.531 . S
C299 C298 1.369 . S
C299 C300 1.410 . S
C299 C307 1.503 . S
C300 C299 1.410 . S
C300 C301 1.392 . S
C300 C303 1.511 . S
C301 C297 1.376 . S
C301 C300 1.392 . S
C301 H313 0.929 . S
C302 C298 1.531 . S
C302 H314 0.960 . S
C302 H315 0.962 . S
C302 H316 0.960 . S
C303 C300 1.511 . S
C303 H317 0.961 . S
C303 H318 0.961 . S
C303 H319 0.961 . S
C304 C305 1.370 . S
C304 C306 1.363 . S
C304 H320 0.931 . S
C305 C304 1.370 . S
C305 C309 1.408 . S
C306 C304 1.363 . S
C306 C307 1.370 . S
C306 C310 1.524 . S
C307 C299 1.503 . S
C307 C306 1.370 . S
C307 C308 1.403 . S
C308 C307 1.403 . S
C308 C309 1.404 . S
C308 C311 1.539 . S
C309 C305 1.408 . S
C309 C308 1.404 . S
C309 H321 0.930 . S
C310 C306 1.524 . S
C310 H322 0.956 . S
C310 H323 0.961 . S
C310 H324 0.961 . S
C311 C308 1.539 . S
C311 H325 0.958 . S
C311 H326 0.961 . S
C311 H327 0.960 . S
H312 C296 0.931 . S
H313 C301 0.929 . S
H314 C302 0.960 . S
H315 C302 0.962 . S
H316 C302 0.960 . S
H317 C303 0.961 . S
H318 C303 0.961 . S
H319 C303 0.961 . S
H320 C304 0.931 . S
H321 C309 0.930 . S
H322 C310 0.956 . S
H323 C310 0.961 . S
H324 C310 0.961 . S
H325 C311 0.958 . S
H326 C311 0.961 . S
H327 C311 0.960 . S
C328 C329 1.391 . S
C328 C330 1.394 . S
C328 H344 0.931 . S
C329 C328 1.391 . S
C329 C333 1.376 . S
C330 C328 1.394 . S
C330 C331 1.369 . S
C330 C334 1.531 . S
C331 C330 1.369 . S
C331 C332 1.410 . S
C331 C339 1.503 . S
C332 C331 1.410 . S
C332 C333 1.392 . S
C332 C335 1.511 . S
C333 C329 1.376 . S
C333 C332 1.392 . S
C333 H345 0.929 . S
C334 C330 1.531 . S
C334 H346 0.960 . S
C334 H347 0.962 . S
C334 H348 0.960 . S
C335 C332 1.511 . S
C335 H349 0.961 . S
C335 H350 0.961 . S
C335 H351 0.961 . S
C336 C337 1.370 . S
C336 C338 1.363 . S
C336 H352 0.931 . S
C337 C336 1.370 . S
C337 C341 1.408 . S
C338 C336 1.363 . S
C338 C339 1.370 . S
C338 C342 1.524 . S
C339 C331 1.503 . S
C339 C338 1.370 . S
C339 C340 1.403 . S
C340 C339 1.403 . S
C340 C341 1.404 . S
C340 C343 1.539 . S
C341 C337 1.408 . S
C341 C340 1.404 . S
C341 H353 0.930 . S
C342 C338 1.524 . S
C342 H354 0.956 . S
C342 H355 0.961 . S
C342 H356 0.961 . S
C343 C340 1.539 . S
C343 H357 0.958 . S
C343 H358 0.961 . S
C343 H359 0.960 . S
H344 C328 0.931 . S
H345 C333 0.929 . S
H346 C334 0.960 . S
H347 C334 0.962 . S
H348 C334 0.960 . S
H349 C335 0.961 . S
H350 C335 0.961 . S
H351 C335 0.961 . S
H352 C336 0.931 . S
H353 C341 0.930 . S
H354 C342 0.956 . S
H355 C342 0.961 . S
H356 C342 0.961 . S
H357 C343 0.958 . S
H358 C343 0.961 . S
H359 C343 0.960 . S
C360 C361 1.391 1_455 S
C360 C362 1.394 . S
C360 H376 0.931 . S
C361 C360 1.391 1_655 S
C361 C365 1.376 . S
C362 C360 1.394 . S
C362 C363 1.369 1_455 S
C362 C366 1.531 . S
C363 C362 1.369 1_655 S
C363 C364 1.410 . S
C363 C371 1.503 . S
C364 C363 1.410 . S
C364 C365 1.392 . S
C364 C367 1.511 . S
C365 C361 1.376 . S
C365 C364 1.392 . S
C365 H377 0.929 . S
C366 C362 1.531 . S
C366 H378 0.960 . S
C366 H379 0.962 . S
C366 H380 0.960 . S
C367 C364 1.511 . S
C367 H381 0.961 . S
C367 H382 0.961 . S
C367 H383 0.961 . S
C368 C369 1.370 . S
C368 C370 1.363 . S
C368 H384 0.931 . S
C369 C368 1.370 . S
C369 C373 1.408 1_455 S
C370 C368 1.363 . S
C370 C371 1.370 1_455 S
C370 C374 1.524 . S
C371 C363 1.503 . S
C371 C370 1.370 1_655 S
C371 C372 1.403 . S
C372 C371 1.403 . S
C372 C373 1.404 . S
C372 C375 1.539 . S
C373 C369 1.408 1_655 S
C373 C372 1.404 . S
C373 H385 0.930 . S
C374 C370 1.524 . S
C374 H386 0.956 . S
C374 H387 0.961 . S
C374 H388 0.961 . S
C375 C372 1.539 . S
C375 H389 0.958 . S
C375 H390 0.961 . S
C375 H391 0.960 . S
H376 C360 0.931 . S
H377 C365 0.929 . S
H378 C366 0.960 . S
H379 C366 0.962 . S
H380 C366 0.960 . S
H381 C367 0.961 . S
H382 C367 0.961 . S
H383 C367 0.961 . S
H384 C368 0.931 . S
H385 C373 0.930 . S
H386 C374 0.956 . S
H387 C374 0.961 . S
H388 C374 0.961 . S
H389 C375 0.958 . S
H390 C375 0.961 . S
H391 C375 0.960 . S
C392 C393 1.391 . S
C392 C394 1.394 . S
C392 H408 0.931 . S
C393 C392 1.391 . S
C393 C397 1.376 1_545 S
C394 C392 1.394 . S
C394 C395 1.369 . S
C394 C398 1.531 . S
C395 C394 1.369 . S
C395 C396 1.410 1_545 S
C395 C403 1.503 . S
C396 C395 1.410 1_565 S
C396 C397 1.392 . S
C396 C399 1.511 . S
C397 C393 1.376 1_565 S
C397 C396 1.392 . S
C397 H409 0.929 . S
C398 C394 1.531 . S
C398 H410 0.960 . S
C398 H411 0.962 . S
C398 H412 0.960 . S
C399 C396 1.511 . S
C399 H413 0.961 . S
C399 H414 0.961 . S
C399 H415 0.961 . S
C400 C401 1.383 . S
C400 C402 1.363 1_556 S
C400 H416 0.931 . S
C401 C400 1.383 . S
C401 C405 1.393 1_566 S
C402 C400 1.363 1_554 S
C402 C403 1.370 1_565 S
C402 C406 1.524 . S
C403 C395 1.503 . S
C403 C402 1.370 1_545 S
C403 C404 1.403 . S
C404 C403 1.403 . S
C404 C405 1.404 . S
C404 C407 1.539 . S
C405 C401 1.393 1_544 S
C405 C404 1.404 . S
C405 H417 0.930 . S
C406 C402 1.524 . S
C406 H418 0.956 . S
C406 H419 0.961 . S
C406 H420 0.961 1_554 S
C407 C404 1.539 . S
C407 H421 0.958 . S
C407 H422 0.961 . S
C407 H423 0.960 . S
H408 C392 0.931 . S
H409 C397 0.929 . S
H410 C398 0.960 . S
H411 C398 0.962 . S
H412 C398 0.960 . S
H413 C399 0.961 . S
H414 C399 0.961 . S
H415 C399 0.961 . S
H416 C400 0.931 . S
H417 C405 0.930 . S
H418 C406 0.956 . S
H419 C406 0.961 . S
H420 C406 0.961 1_556 S
H421 C407 0.958 . S
H422 C407 0.961 . S
H423 C407 0.960 . S
C424 C425 1.391 . S
C424 C426 1.394 . S
C424 H440 0.931 . S
C425 C424 1.391 . S
C425 C429 1.376 . S
C426 C424 1.394 . S
C426 C427 1.369 . S
C426 C430 1.531 . S
C427 C426 1.369 . S
C427 C428 1.410 . S
C427 C435 1.503 . S
C428 C427 1.410 . S
C428 C429 1.392 . S
C428 C431 1.511 . S
C429 C425 1.376 . S
C429 C428 1.392 . S
C429 H441 0.929 . S
C430 C426 1.531 . S
C430 H442 0.960 . S
C430 H443 0.962 . S
C430 H444 0.960 . S
C431 C428 1.511 . S
C431 H445 0.961 . S
C431 H446 0.961 . S
C431 H447 0.961 . S
C432 C433 1.370 1_554 S
C432 C434 1.363 . S
C432 H448 0.931 . S
C433 C432 1.370 1_556 S
C433 C437 1.408 . S
C434 C432 1.363 . S
C434 C435 1.370 . S
C434 C438 1.524 . S
C435 C427 1.503 . S
C435 C434 1.370 . S
C435 C436 1.403 . S
C436 C435 1.403 . S
C436 C437 1.404 1_554 S
C436 C439 1.539 . S
C437 C433 1.408 . S
C437 C436 1.404 1_556 S
C437 H449 0.930 . S
C438 C434 1.524 . S
C438 H450 0.956 . S
C438 H451 0.961 . S
C438 H452 0.961 . S
C439 C436 1.539 . S
C439 H453 0.958 1_554 S
C439 H454 0.961 1_554 S
C439 H455 0.960 . S
H440 C424 0.931 . S
H441 C429 0.929 . S
H442 C430 0.960 . S
H443 C430 0.962 . S
H444 C430 0.960 . S
H445 C431 0.961 . S
H446 C431 0.961 . S
H447 C431 0.961 . S
H448 C432 0.931 . S
H449 C437 0.930 . S
H450 C438 0.956 . S
H451 C438 0.961 . S
H452 C438 0.961 . S
H453 C439 0.958 1_556 S
H454 C439 0.961 1_556 S
H455 C439 0.960 . S
C456 C457 1.391 . S
C456 C458 1.394 . S
C456 H472 0.931 . S
C457 C456 1.391 . S
C457 C461 1.376 . S
C458 C456 1.394 . S
C458 C459 1.369 . S
C458 C462 1.531 . S
C459 C458 1.369 . S
C459 C460 1.410 . S
C459 C467 1.503 . S
C460 C459 1.410 . S
C460 C461 1.392 . S
C460 C463 1.511 . S
C461 C457 1.376 . S
C461 C460 1.392 . S
C461 H473 0.929 . S
C462 C458 1.531 . S
C462 H474 0.960 . S
C462 H475 0.962 . S
C462 H476 0.960 . S
C463 C460 1.511 . S
C463 H477 0.961 . S
C463 H478 0.961 . S
C463 H479 0.961 . S
C464 C465 1.370 1_554 S
C464 C466 1.363 . S
C464 H480 0.931 . S
C465 C464 1.370 1_556 S
C465 C469 1.408 . S
C466 C464 1.363 . S
C466 C467 1.370 . S
C466 C470 1.524 . S
C467 C459 1.503 . S
C467 C466 1.370 . S
C467 C468 1.403 . S
C468 C467 1.403 . S
C468 C469 1.404 1_554 S
C468 C471 1.539 . S
C469 C465 1.408 . S
C469 C468 1.404 1_556 S
C469 H481 0.930 . S
C470 C466 1.524 . S
C470 H482 0.956 . S
C470 H483 0.961 . S
C470 H484 0.961 . S
C471 C468 1.539 . S
C471 H485 0.958 . S
C471 H486 0.961 . S
C471 H487 0.960 . S
H472 C456 0.931 . S
H473 C461 0.929 . S
H474 C462 0.960 . S
H475 C462 0.962 . S
H476 C462 0.960 . S
H477 C463 0.961 . S
H478 C463 0.961 . S
H479 C463 0.961 . S
H480 C464 0.931 . S
H481 C469 0.930 . S
H482 C470 0.956 . S
H483 C470 0.961 . S
H484 C470 0.961 . S
H485 C471 0.958 . S
H486 C471 0.961 . S
H487 C471 0.960 . S
C488 C489 1.391 . S
C488 C490 1.394 . S
C488 H504 0.931 . S
C489 C488 1.391 . S
C489 C493 1.376 1_455 S
C490 C488 1.394 . S
C490 C491 1.369 . S
C490 C494 1.531 . S
C491 C490 1.369 . S
C491 C492 1.410 1_455 S
C491 C499 1.503 . S
C492 C491 1.410 1_655 S
C492 C493 1.392 . S
C492 C495 1.511 . S
C493 C489 1.376 1_655 S
C493 C492 1.392 . S
C493 H505 0.929 . S
C494 C490 1.531 . S
C494 H506 0.960 . S
C494 H507 0.962 . S
C494 H508 0.960 . S
C495 C492 1.511 . S
C495 H509 0.961 . S
C495 H510 0.961 . S
C495 H511 0.961 . S
C496 C497 1.370 . S
C496 C498 1.363 1_556 S
C496 H512 0.931 . S
C497 C496 1.370 . S
C497 C501 1.408 1_656 S
C498 C496 1.363 1_554 S
C498 C499 1.370 1_655 S
C498 C502 1.524 . S
C499 C491 1.503 . S
C499 C498 1.370 1_455 S
C499 C500 1.403 . S
C500 C499 1.403 . S
C500 C501 1.404 . S
C500 C503 1.539 . S
C501 C497 1.408 1_454 S
C501 C500 1.404 . S
C501 H513 0.930 . S
C502 C498 1.524 . S
C502 H514 0.956 . S
C502 H515 0.961 . S
C502 H516 0.961 1_554 S
C503 C500 1.539 . S
C503 H517 0.958 . S
C503 H518 0.961 . S
C503 H519 0.960 . S
H504 C488 0.931 . S
H505 C493 0.929 . S
H506 C494 0.960 . S
H507 C494 0.962 . S
H508 C494 0.960 . S
H509 C495 0.961 . S
H510 C495 0.961 . S
H511 C495 0.961 . S
H512 C496 0.931 . S
H513 C501 0.930 . S
H514 C502 0.956 . S
H515 C502 0.961 . S
H516 C502 0.961 1_556 S
H517 C503 0.958 . S
H518 C503 0.961 . S
H519 C503 0.960 . S
C520 C521 1.391 1_655 S
C520 C522 1.394 . S
C520 H536 0.931 1_554 S
C521 C520 1.391 1_455 S
C521 C525 1.376 . S
C522 C520 1.394 . S
C522 C523 1.369 . S
C522 C526 1.531 . S
C523 C522 1.369 . S
C523 C524 1.410 1_655 S
C523 C531 1.503 . S
C524 C523 1.410 1_455 S
C524 C525 1.392 . S
C524 C527 1.511 . S
C525 C521 1.376 . S
C525 C524 1.392 . S
C525 H537 0.929 . S
C526 C522 1.531 . S
C526 H538 0.960 . S
C526 H539 0.962 . S
C526 H540 0.960 1_554 S
C527 C524 1.511 . S
C527 H541 0.961 . S
C527 H542 0.950 1_455 S
C527 H543 0.961 . S
C528 C529 1.370 . S
C528 C530 1.363 . S
C528 H544 0.931 . S
C529 C528 1.370 . S
C529 C533 1.408 . S
C530 C528 1.363 . S
C530 C531 1.370 . S
C530 C534 1.524 . S
C531 C523 1.503 . S
C531 C530 1.370 . S
C531 C532 1.403 . S
C532 C531 1.403 . S
C532 C533 1.404 . S
C532 C535 1.539 1_655 S
C533 C529 1.408 . S
C533 C532 1.404 . S
C533 H545 0.930 . S
C534 C530 1.524 . S
C534 H546 0.956 . S
C534 H547 0.961 . S
C534 H548 0.961 . S
C535 C532 1.539 1_455 S
C535 H549 0.958 . S
C535 H550 0.961 . S
C535 H551 0.960 . S
H536 C520 0.931 1_556 S
H537 C525 0.929 . S
H538 C526 0.960 . S
H539 C526 0.962 . S
H540 C526 0.960 1_556 S
H541 C527 0.961 . S
H542 C527 0.950 1_655 S
H543 C527 0.961 . S
H544 C528 0.931 . S
H545 C533 0.930 . S
H546 C534 0.956 . S
H547 C534 0.961 . S
H548 C534 0.961 . S
H549 C535 0.958 . S
H550 C535 0.961 . S
H551 C535 0.960 . S
C552 C553 1.391 . S
C552 C554 1.394 . S
C552 H568 0.931 . S
C553 C552 1.391 . S
C553 C557 1.376 1_545 S
C554 C552 1.394 . S
C554 C555 1.369 1_545 S
C554 C558 1.531 . S
C555 C554 1.369 1_565 S
C555 C556 1.410 . S
C555 C563 1.503 . S
C556 C555 1.410 . S
C556 C557 1.392 . S
C556 C559 1.511 . S
C557 C553 1.376 1_565 S
C557 C556 1.392 . S
C557 H569 0.929 . S
C558 C554 1.531 . S
C558 H570 0.960 . S
C558 H571 0.962 . S
C558 H572 0.960 . S
C559 C556 1.511 . S
C559 H573 0.961 . S
C559 H574 0.961 . S
C559 H575 0.961 . S
C560 C561 1.370 . S
C560 C562 1.363 . S
C560 H576 0.931 . S
C561 C560 1.370 . S
C561 C565 1.408 . S
C562 C560 1.363 . S
C562 C563 1.370 . S
C562 C566 1.524 . S
C563 C555 1.503 . S
C563 C562 1.370 . S
C563 C564 1.403 . S
C564 C563 1.403 . S
C564 C565 1.404 . S
C564 C567 1.539 . S
C565 C561 1.408 . S
C565 C564 1.404 . S
C565 H577 0.930 . S
C566 C562 1.524 . S
C566 H578 0.956 . S
C566 H579 0.961 . S
C566 H580 0.961 . S
C567 C564 1.539 . S
C567 H581 0.958 1_565 S
C567 H582 0.961 . S
C567 H583 0.960 . S
H568 C552 0.931 . S
H569 C557 0.929 . S
H570 C558 0.960 . S
H571 C558 0.962 . S
H572 C558 0.960 . S
H573 C559 0.961 . S
H574 C559 0.961 . S
H575 C559 0.961 . S
H576 C560 0.931 . S
H577 C565 0.930 . S
H578 C566 0.956 . S
H579 C566 0.961 . S
H580 C566 0.961 . S
H581 C567 0.958 1_545 S
H582 C567 0.961 . S
H583 C567 0.960 . S
C584 C585 1.391 . S
C584 C586 1.394 . S
C584 H600 0.931 . S
C585 C584 1.391 . S
C585 C589 1.376 . S
C586 C584 1.394 . S
C586 C587 1.369 . S
C586 C590 1.531 . S
C587 C586 1.369 . S
C587 C588 1.410 . S
C587 C595 1.503 . S
C588 C587 1.410 . S
C588 C589 1.392 . S
C588 C591 1.511 . S
C589 C585 1.376 . S
C589 C588 1.392 . S
C589 H601 0.929 1_554 S
C590 C586 1.531 . S
C590 H602 0.960 . S
C590 H603 0.962 . S
C590 H604 0.960 . S
C591 C588 1.511 . S
C591 H605 0.961 1_554 S
C591 H606 0.961 . S
C591 H607 0.961 . S
C592 C593 1.370 . S
C592 C594 1.363 . S
C592 H608 0.931 . S
C593 C592 1.370 . S
C593 C597 1.408 . S
C594 C592 1.363 . S
C594 C595 1.370 . S
C594 C598 1.524 . S
C595 C587 1.503 . S
C595 C594 1.370 . S
C595 C596 1.403 . S
C596 C595 1.403 . S
C596 C597 1.404 . S
C596 C599 1.539 . S
C597 C593 1.408 . S
C597 C596 1.404 . S
C597 H609 0.930 . S
C598 C594 1.524 . S
C598 H610 0.956 . S
C598 H611 0.961 . S
C598 H612 0.961 . S
C599 C596 1.539 . S
C599 H613 0.958 . S
C599 H614 0.961 . S
C599 H615 0.960 . S
H600 C584 0.931 . S
H601 C589 0.929 1_556 S
H602 C590 0.960 . S
H603 C590 0.962 . S
H604 C590 0.960 . S
H605 C591 0.961 1_556 S
H606 C591 0.961 . S
H607 C591 0.961 . S
H608 C592 0.931 . S
H609 C597 0.930 . S
H610 C598 0.956 . S
H611 C598 0.961 . S
H612 C598 0.961 . S
H613 C599 0.958 . S
H614 C599 0.961 . S
H615 C599 0.960 . S
C616 C617 1.391 . S
C616 C618 1.394 . S
C616 H632 0.931 . S
C617 C616 1.391 . S
C617 C621 1.376 . S
C618 C616 1.394 . S
C618 C619 1.369 . S
C618 C622 1.531 . S
C619 C618 1.369 . S
C619 C620 1.410 . S
C619 C627 1.503 . S
C620 C619 1.410 . S
C620 C621 1.392 . S
C620 C623 1.511 . S
C621 C617 1.376 . S
C621 C620 1.392 . S
C621 H633 0.929 . S
C622 C618 1.531 . S
C622 H634 0.960 . S
C622 H635 0.962 . S
C622 H636 0.960 1_554 S
C623 C620 1.511 . S
C623 H637 0.961 . S
C623 H638 0.961 . S
C623 H639 0.961 . S
C624 C625 1.370 . S
C624 C626 1.363 . S
C624 H640 0.931 . S
C625 C624 1.370 . S
C625 C629 1.408 . S
C626 C624 1.363 . S
C626 C627 1.370 . S
C626 C630 1.524 . S
C627 C619 1.503 . S
C627 C626 1.370 . S
C627 C628 1.403 . S
C628 C627 1.403 . S
C628 C629 1.404 . S
C628 C631 1.539 . S
C629 C625 1.408 . S
C629 C628 1.404 . S
C629 H641 0.930 . S
C630 C626 1.524 . S
C630 H642 0.956 . S
C630 H643 0.961 . S
C630 H644 0.961 . S
C631 C628 1.539 . S
C631 H645 0.958 . S
C631 H646 0.961 . S
C631 H647 0.960 . S
H632 C616 0.931 . S
H633 C621 0.929 . S
H634 C622 0.960 . S
H635 C622 0.962 . S
H636 C622 0.960 1_556 S
H637 C623 0.961 . S
H638 C623 0.961 . S
H639 C623 0.961 . S
H640 C624 0.931 . S
H641 C629 0.930 . S
H642 C630 0.956 . S
H643 C630 0.961 . S
H644 C630 0.961 . S
H645 C631 0.958 . S
H646 C631 0.961 . S
H647 C631 0.960 . S
C648 C649 1.391 . S
C648 C650 1.394 . S
C648 H664 0.931 . S
C649 C648 1.391 . S
C649 C653 1.376 1_655 S
C650 C648 1.394 . S
C650 C651 1.369 1_655 S
C650 C654 1.531 . S
C651 C650 1.369 1_455 S
C651 C652 1.410 . S
C651 C659 1.503 . S
C652 C651 1.410 . S
C652 C653 1.392 . S
C652 C655 1.511 . S
C653 C649 1.376 1_455 S
C653 C652 1.392 . S
C653 H665 0.929 . S
C654 C650 1.531 . S
C654 H666 0.960 . S
C654 H667 0.962 . S
C654 H668 0.960 . S
C655 C652 1.511 . S
C655 H669 0.961 . S
C655 H670 0.961 . S
C655 H671 0.961 . S
C656 C657 1.370 . S
C656 C658 1.363 . S
C656 H672 0.931 . S
C657 C656 1.370 . S
C657 C661 1.408 . S
C658 C656 1.363 . S
C658 C659 1.370 . S
C658 C662 1.524 . S
C659 C651 1.503 . S
C659 C658 1.370 . S
C659 C660 1.403 . S
C660 C659 1.403 . S
C660 C661 1.404 . S
C660 C663 1.539 . S
C661 C657 1.408 . S
C661 C660 1.404 . S
C661 H673 0.930 . S
C662 C658 1.524 . S
C662 H674 0.956 . S
C662 H675 0.961 . S
C662 H676 0.961 . S
C663 C660 1.539 . S
C663 H677 0.958 . S
C663 H678 0.961 . S
C663 H679 0.960 . S
H664 C648 0.931 . S
H665 C653 0.929 . S
H666 C654 0.960 . S
H667 C654 0.962 . S
H668 C654 0.960 . S
H669 C655 0.961 . S
H670 C655 0.961 . S
H671 C655 0.961 . S
H672 C656 0.931 . S
H673 C661 0.930 . S
H674 C662 0.956 . S
H675 C662 0.961 . S
H676 C662 0.961 . S
H677 C663 0.958 . S
H678 C663 0.961 . S
H679 C663 0.960 . S
C680 C681 1.391 . S
C680 C682 1.394 . S
C680 H696 0.931 . S
C681 C680 1.391 . S
C681 C685 1.376 1_565 S
C682 C680 1.394 . S
C682 C683 1.369 1_565 S
C682 C686 1.531 . S
C683 C682 1.369 1_545 S
C683 C684 1.410 . S
C683 C691 1.503 . S
C684 C683 1.410 . S
C684 C685 1.392 . S
C684 C687 1.511 . S
C685 C681 1.376 1_545 S
C685 C684 1.392 . S
C685 H697 0.929 . S
C686 C682 1.531 . S
C686 H698 0.960 . S
C686 H699 0.962 . S
C686 H700 0.960 . S
C687 C684 1.511 . S
C687 H701 0.961 . S
C687 H702 0.961 . S
C687 H703 0.961 . S
C688 C689 1.370 . S
C688 C690 1.363 . S
C688 H704 0.931 . S
C689 C688 1.370 . S
C689 C693 1.408 . S
C690 C688 1.363 . S
C690 C691 1.370 . S
C690 C694 1.524 . S
C691 C683 1.503 . S
C691 C690 1.370 . S
C691 C692 1.403 . S
C692 C691 1.403 . S
C692 C693 1.404 . S
C692 C695 1.539 . S
C693 C689 1.408 . S
C693 C692 1.404 . S
C693 H705 0.930 . S
C694 C690 1.524 . S
C694 H706 0.956 . S
C694 H707 0.961 . S
C694 H708 0.961 . S
C695 C692 1.539 . S
C695 H709 0.958 . S
C695 H710 0.961 . S
C695 H711 0.960 . S
H696 C680 0.931 . S
H697 C685 0.929 . S
H698 C686 0.960 . S
H699 C686 0.962 . S
H700 C686 0.960 . S
H701 C687 0.961 . S
H702 C687 0.961 . S
H703 C687 0.961 . S
H704 C688 0.931 . S
H705 C693 0.930 . S
H706 C694 0.956 . S
H707 C694 0.961 . S
H708 C694 0.961 . S
H709 C695 0.958 . S
H710 C695 0.961 . S
H711 C695 0.960 . S
C712 C713 1.391 . S
C712 C714 1.394 . S
C712 H728 0.931 . S
C713 C712 1.391 . S
C713 C717 1.376 . S
C714 C712 1.394 . S
C714 C715 1.369 . S
C714 C718 1.531 . S
C715 C714 1.369 . S
C715 C716 1.410 . S
C715 C723 1.503 . S
C716 C715 1.410 . S
C716 C717 1.392 . S
C716 C719 1.511 . S
C717 C713 1.376 . S
C717 C716 1.392 . S
C717 H729 0.929 . S
C718 C714 1.531 . S
C718 H730 0.960 . S
C718 H731 0.962 . S
C718 H732 0.960 . S
C719 C716 1.511 . S
C719 H733 0.961 . S
C719 H734 0.961 . S
C719 H735 0.961 . S
C720 C721 1.370 . S
C720 C722 1.363 . S
C720 H736 0.931 . S
C721 C720 1.370 . S
C721 C725 1.408 . S
C722 C720 1.363 . S
C722 C723 1.370 . S
C722 C726 1.524 . S
C723 C715 1.503 . S
C723 C722 1.370 . S
C723 C724 1.403 . S
C724 C723 1.403 . S
C724 C725 1.404 . S
C724 C727 1.539 . S
C725 C721 1.408 . S
C725 C724 1.404 . S
C725 H737 0.930 . S
C726 C722 1.524 . S
C726 H738 0.956 . S
C726 H739 0.961 . S
C726 H740 0.961 . S
C727 C724 1.539 . S
C727 H741 0.958 . S
C727 H742 0.961 . S
C727 H743 0.960 . S
H728 C712 0.931 . S
H729 C717 0.929 . S
H730 C718 0.960 . S
H731 C718 0.962 . S
H732 C718 0.960 . S
H733 C719 0.961 . S
H734 C719 0.961 . S
H735 C719 0.961 . S
H736 C720 0.931 . S
H737 C725 0.930 . S
H738 C726 0.956 . S
H739 C726 0.961 . S
H740 C726 0.961 . S
H741 C727 0.958 . S
H742 C727 0.961 . S
H743 C727 0.960 . S
C744 C745 1.391 . S
C744 C746 1.394 . S
C744 H760 0.931 . S
C745 C744 1.391 . S
C745 C749 1.376 . S
C746 C744 1.394 . S
C746 C747 1.369 . S
C746 C750 1.531 . S
C747 C746 1.369 . S
C747 C748 1.410 . S
C747 C755 1.503 . S
C748 C747 1.410 . S
C748 C749 1.392 . S
C748 C751 1.511 . S
C749 C745 1.376 . S
C749 C748 1.392 . S
C749 H761 0.929 . S
C750 C746 1.531 . S
C750 H762 0.960 . S
C750 H763 0.962 . S
C750 H764 0.960 . S
C751 C748 1.511 . S
C751 H765 0.961 . S
C751 H766 0.961 . S
C751 H767 0.961 . S
C752 C753 1.370 . S
C752 C754 1.363 . S
C752 H768 0.931 . S
C753 C752 1.370 . S
C753 C757 1.408 . S
C754 C752 1.363 . S
C754 C755 1.370 . S
C754 C758 1.524 . S
C755 C747 1.503 . S
C755 C754 1.370 . S
C755 C756 1.403 . S
C756 C755 1.403 . S
C756 C757 1.404 . S
C756 C759 1.539 . S
C757 C753 1.408 . S
C757 C756 1.404 . S
C757 H769 0.930 . S
C758 C754 1.524 . S
C758 H770 0.956 . S
C758 H771 0.961 . S
C758 H772 0.961 . S
C759 C756 1.539 . S
C759 H773 0.958 . S
C759 H774 0.961 . S
C759 H775 0.960 . S
H760 C744 0.931 . S
H761 C749 0.929 . S
H762 C750 0.960 . S
H763 C750 0.962 . S
H764 C750 0.960 . S
H765 C751 0.961 . S
H766 C751 0.961 . S
H767 C751 0.961 . S
H768 C752 0.931 . S
H769 C757 0.930 . S
H770 C758 0.956 . S
H771 C758 0.961 . S
H772 C758 0.961 . S
H773 C759 0.958 . S
H774 C759 0.961 . S
H775 C759 0.960 . S
C776 C777 1.391 1_655 S
C776 C778 1.394 . S
C776 H792 0.931 . S
C777 C776 1.391 1_455 S
C777 C781 1.376 . S
C778 C776 1.394 . S
C778 C779 1.369 1_655 S
C778 C782 1.531 . S
C779 C778 1.369 1_455 S
C779 C780 1.410 . S
C779 C787 1.503 . S
C780 C779 1.410 . S
C780 C781 1.392 . S
C780 C783 1.511 . S
C781 C777 1.376 . S
C781 C780 1.392 . S
C781 H793 0.929 . S
C782 C778 1.531 . S
C782 H794 0.960 . S
C782 H795 0.962 . S
C782 H796 0.960 . S
C783 C780 1.511 . S
C783 H797 0.961 . S
C783 H798 0.961 . S
C783 H799 0.961 . S
C784 C785 1.370 . S
C784 C786 1.363 . S
C784 H800 0.931 1_556 S
C785 C784 1.370 . S
C785 C789 1.408 . S
C786 C784 1.363 . S
C786 C787 1.370 . S
C786 C790 1.531 1_556 S
C787 C779 1.503 . S
C787 C786 1.370 . S
C787 C788 1.403 . S
C788 C787 1.403 . S
C788 C789 1.404 . S
C788 C791 1.539 . S
C789 C785 1.408 . S
C789 C788 1.404 . S
C789 H801 0.930 . S
C790 C786 1.531 1_554 S
C790 H802 0.919 1_455 S
C790 H803 0.991 . S
C790 H804 0.963 . S
C791 C788 1.539 . S
C791 H805 0.958 . S
C791 H806 0.961 . S
C791 H807 0.960 . S
H792 C776 0.931 . S
H793 C781 0.929 . S
H794 C782 0.960 . S
H795 C782 0.962 . S
H796 C782 0.960 . S
H797 C783 0.961 . S
H798 C783 0.961 . S
H799 C783 0.961 . S
H800 C784 0.931 1_554 S
H801 C789 0.930 . S
H802 C790 0.919 1_655 S
H803 C790 0.991 . S
H804 C790 0.963 . S
H805 C791 0.958 . S
H806 C791 0.961 . S
H807 C791 0.960 . S
C808 C809 1.391 . S
C808 C810 1.394 . S
C808 H824 0.931 . S
C809 C808 1.391 . S
C809 C813 1.376 1_545 S
C810 C808 1.394 . S
C810 C811 1.369 . S
C810 C814 1.531 . S
C811 C810 1.369 . S
C811 C812 1.410 1_545 S
C811 C819 1.503 . S
C812 C811 1.410 1_565 S
C812 C813 1.392 . S
C812 C815 1.511 . S
C813 C809 1.376 1_565 S
C813 C812 1.392 . S
C813 H825 0.929 . S
C814 C810 1.531 . S
C814 H826 0.960 . S
C814 H827 0.962 . S
C814 H828 0.960 . S
C815 C812 1.511 . S
C815 H829 0.961 . S
C815 H830 0.961 . S
C815 H831 0.961 . S
C816 C817 1.370 . S
C816 C818 1.363 . S
C816 H832 0.931 . S
C817 C816 1.370 . S
C817 C821 1.408 . S
C818 C816 1.363 . S
C818 C819 1.370 . S
C818 C822 1.524 . S
C819 C811 1.503 . S
C819 C818 1.370 . S
C819 C820 1.403 . S
C820 C819 1.403 . S
C820 C821 1.404 . S
C820 C823 1.539 1_556 S
C821 C817 1.408 . S
C821 C820 1.404 . S
C821 H833 0.930 1_556 S
C822 C818 1.524 . S
C822 H834 0.956 . S
C822 H835 0.961 1_545 S
C822 H836 0.961 . S
C823 C820 1.539 1_554 S
C823 H837 0.958 . S
C823 H838 0.963 1_545 S
C823 H839 0.960 1_545 S
H824 C808 0.931 . S
H825 C813 0.929 . S
H826 C814 0.960 . S
H827 C814 0.962 . S
H828 C814 0.960 . S
H829 C815 0.961 . S
H830 C815 0.961 . S
H831 C815 0.961 . S
H832 C816 0.931 . S
H833 C821 0.930 1_554 S
H834 C822 0.956 . S
H835 C822 0.961 1_565 S
H836 C822 0.961 . S
H837 C823 0.958 . S
H838 C823 0.963 1_565 S
H839 C823 0.960 1_565 S
C840 C841 1.391 . S
C840 C842 1.394 . S
C840 H856 0.931 1_556 S
C841 C840 1.391 . S
C841 C845 1.376 . S
C842 C840 1.394 . S
C842 C843 1.369 . S
C842 C846 1.531 1_556 S
C843 C842 1.369 . S
C843 C844 1.410 . S
C843 C851 1.503 . S
C844 C843 1.410 . S
C844 C845 1.392 . S
C844 C847 1.511 . S
C845 C841 1.376 . S
C845 C844 1.392 . S
C845 H857 0.929 . S
C846 C842 1.531 1_554 S
C846 H858 0.960 . S
C846 H859 0.962 . S
C846 H860 0.960 . S
C847 C844 1.511 . S
C847 H861 0.961 . S
C847 H862 0.961 . S
C847 H863 0.961 . S
C848 C849 1.370 . S
C848 C850 1.363 . S
C848 H864 0.931 . S
C849 C848 1.370 . S
C849 C853 1.408 . S
C850 C848 1.363 . S
C850 C851 1.370 . S
C850 C854 1.524 . S
C851 C843 1.503 . S
C851 C850 1.370 . S
C851 C852 1.403 . S
C852 C851 1.403 . S
C852 C853 1.404 . S
C852 C855 1.539 . S
C853 C849 1.408 . S
C853 C852 1.404 . S
C853 H865 0.930 . S
C854 C850 1.524 . S
C854 H866 0.956 . S
C854 H867 0.961 . S
C854 H868 0.961 . S
C855 C852 1.539 . S
C855 H869 0.958 1_556 S
C855 H870 0.961 . S
C855 H871 0.960 . S
H856 C840 0.931 1_554 S
H857 C845 0.929 . S
H858 C846 0.960 . S
H859 C846 0.962 . S
H860 C846 0.960 . S
H861 C847 0.961 . S
H862 C847 0.961 . S
H863 C847 0.961 . S
H864 C848 0.931 . S
H865 C853 0.930 . S
H866 C854 0.956 . S
H867 C854 0.961 . S
H868 C854 0.961 . S
H869 C855 0.958 1_554 S
H870 C855 0.961 . S
H871 C855 0.960 . S
C872 C873 1.391 . S
C872 C874 1.394 . S
C872 H888 0.931 . S
C873 C872 1.391 . S
C873 C877 1.376 . S
C874 C872 1.394 . S
C874 C875 1.369 . S
C874 C878 1.531 . S
C875 C874 1.369 . S
C875 C876 1.410 . S
C875 C883 1.503 . S
C876 C875 1.410 . S
C876 C877 1.392 . S
C876 C879 1.511 . S
C877 C873 1.376 . S
C877 C876 1.392 . S
C877 H889 0.929 . S
C878 C874 1.531 . S
C878 H890 0.960 . S
C878 H891 0.962 . S
C878 H892 0.960 . S
C879 C876 1.511 . S
C879 H893 0.961 1_556 S
C879 H894 0.961 . S
C879 H895 0.961 . S
C880 C881 1.370 . S
C880 C882 1.363 . S
C880 H896 0.931 . S
C881 C880 1.370 . S
C881 C885 1.408 . S
C882 C880 1.363 . S
C882 C883 1.370 . S
C882 C886 1.524 1_556 S
C883 C875 1.503 . S
C883 C882 1.370 . S
C883 C884 1.403 . S
C884 C883 1.403 . S
C884 C885 1.404 . S
C884 C887 1.539 . S
C885 C881 1.408 . S
C885 C884 1.404 . S
C885 H897 0.930 . S
C886 C882 1.524 1_554 S
C886 H898 0.956 . S
C886 H899 0.961 . S
C886 H900 0.961 . S
C887 C884 1.539 . S
C887 H901 0.958 . S
C887 H902 0.961 . S
C887 H903 0.960 . S
H888 C872 0.931 . S
H889 C877 0.929 . S
H890 C878 0.960 . S
H891 C878 0.962 . S
H892 C878 0.960 . S
H893 C879 0.961 1_554 S
H894 C879 0.961 . S
H895 C879 0.961 . S
H896 C880 0.931 . S
H897 C885 0.930 . S
H898 C886 0.956 . S
H899 C886 0.961 . S
H900 C886 0.961 . S
H901 C887 0.958 . S
H902 C887 0.961 . S
H903 C887 0.960 . S
C904 C905 1.391 1_455 S
C904 C906 1.394 . S
C904 H920 0.931 . S
C905 C904 1.391 1_655 S
C905 C909 1.376 . S
C906 C904 1.394 . S
C906 C907 1.369 1_455 S
C906 C910 1.531 . S
C907 C906 1.369 1_655 S
C907 C908 1.410 . S
C907 C915 1.503 . S
C908 C907 1.410 . S
C908 C909 1.392 . S
C908 C911 1.511 . S
C909 C905 1.376 . S
C909 C908 1.392 . S
C909 H921 0.929 . S
C910 C906 1.531 . S
C910 H922 0.960 . S
C910 H923 0.962 . S
C910 H924 0.960 . S
C911 C908 1.511 . S
C911 H925 0.961 . S
C911 H926 0.961 . S
C911 H927 0.961 . S
C912 C913 1.376 . S
C912 C914 1.363 1_655 S
C912 H928 0.926 1_655 S
C913 C912 1.376 . S
C913 C917 1.408 . S
C914 C912 1.363 1_455 S
C914 C915 1.363 1_455 S
C914 C918 1.532 . S
C915 C907 1.503 . S
C915 C914 1.363 1_655 S
C915 C916 1.403 . S
C916 C915 1.403 . S
C916 C917 1.404 . S
C916 C919 1.539 . S
C917 C913 1.408 . S
C917 C916 1.404 . S
C917 H929 0.930 . S
C918 C914 1.532 . S
C918 H930 0.956 . S
C918 H931 0.978 . S
C918 H932 0.961 . S
C919 C916 1.539 . S
C919 H933 0.958 . S
C919 H934 0.961 . S
C919 H935 0.960 . S
H920 C904 0.931 . S
H921 C909 0.929 . S
H922 C910 0.960 . S
H923 C910 0.962 . S
H924 C910 0.960 . S
H925 C911 0.961 . S
H926 C911 0.961 . S
H927 C911 0.961 . S
H928 C912 0.926 1_455 S
H929 C917 0.930 . S
H930 C918 0.956 . S
H931 C918 0.978 . S
H932 C918 0.961 . S
H933 C919 0.958 . S
H934 C919 0.961 . S
H935 C919 0.960 . S
C936 C937 1.391 1_545 S
C936 C938 1.394 . S
C936 H952 0.931 . S
C937 C936 1.391 1_565 S
C937 C941 1.376 . S
C938 C936 1.394 . S
C938 C939 1.369 1_545 S
C938 C942 1.531 . S
C939 C938 1.369 1_565 S
C939 C940 1.410 . S
C939 C947 1.503 . S
C940 C939 1.410 . S
C940 C941 1.392 . S
C940 C943 1.511 . S
C941 C937 1.376 . S
C941 C940 1.392 . S
C941 H953 0.929 . S
C942 C938 1.531 . S
C942 H954 0.960 . S
C942 H955 0.962 . S
C942 H956 0.960 . S
C943 C940 1.511 . S
C943 H957 0.961 . S
C943 H958 0.961 . S
C943 H959 0.961 . S
C944 C945 1.370 . S
C944 C946 1.363 . S
C944 H960 0.931 . S
C945 C944 1.370 . S
C945 C949 1.408 . S
C946 C944 1.363 . S
C946 C947 1.370 . S
C946 C950 1.524 . S
C947 C939 1.503 . S
C947 C946 1.370 . S
C947 C948 1.403 . S
C948 C947 1.403 . S
C948 C949 1.404 . S
C948 C951 1.542 . S
C949 C945 1.408 . S
C949 C948 1.404 . S
C949 H961 0.930 . S
C950 C946 1.524 . S
C950 H962 0.956 1_565 S
C950 H963 0.961 . S
C950 H964 0.961 . S
C951 C948 1.542 . S
C951 H965 0.937 1_565 S
C951 H966 0.972 . S
C951 H967 0.968 . S
H952 C936 0.931 . S
H953 C941 0.929 . S
H954 C942 0.960 . S
H955 C942 0.962 . S
H956 C942 0.960 . S
H957 C943 0.961 . S
H958 C943 0.961 . S
H959 C943 0.961 . S
H960 C944 0.931 . S
H961 C949 0.930 . S
H962 C950 0.956 1_545 S
H963 C950 0.961 . S
H964 C950 0.961 . S
H965 C951 0.937 1_545 S
H966 C951 0.972 . S
H967 C951 0.968 . S
C968 C969 1.391 . S
C968 C970 1.394 . S
C968 H984 0.931 . S
C969 C968 1.391 . S
C969 C973 1.376 . S
C970 C968 1.394 . S
C970 C971 1.369 . S
C970 C974 1.531 . S
C971 C970 1.369 . S
C971 C972 1.410 . S
C971 C979 1.503 . S
C972 C971 1.410 . S
C972 C973 1.392 . S
C972 C975 1.511 . S
C973 C969 1.376 . S
C973 C972 1.392 . S
C973 H985 0.929 . S
C974 C970 1.531 . S
C974 H986 0.960 . S
C974 H987 0.962 . S
C974 H988 0.960 . S
C975 C972 1.511 . S
C975 H989 0.961 . S
C975 H990 0.961 . S
C975 H991 0.961 . S
C976 C977 1.370 . S
C976 C978 1.363 . S
C976 H992 0.931 . S
C977 C976 1.370 . S
C977 C981 1.408 . S
C978 C976 1.363 . S
C978 C979 1.370 . S
C978 C982 1.524 . S
C979 C971 1.503 . S
C979 C978 1.370 . S
C979 C980 1.403 . S
C980 C979 1.403 . S
C980 C981 1.404 . S
C980 C983 1.539 . S
C981 C977 1.408 . S
C981 C980 1.404 . S
C981 H993 0.930 . S
C982 C978 1.524 . S
C982 H994 0.956 . S
C982 H995 0.961 . S
C982 H996 0.961 . S
C983 C980 1.539 . S
C983 H997 0.958 . S
C983 H998 0.961 . S
C983 H999 0.960 . S
H984 C968 0.931 . S
H985 C973 0.929 . S
H986 C974 0.960 . S
H987 C974 0.962 . S
H988 C974 0.960 . S
H989 C975 0.961 . S
H990 C975 0.961 . S
H991 C975 0.961 . S
H992 C976 0.931 . S
H993 C981 0.930 . S
H994 C982 0.956 . S
H995 C982 0.961 . S
H996 C982 0.961 . S
H997 C983 0.958 . S
H998 C983 0.961 . S
H999 C983 0.960 . S
C1000 C1001 1.391 . S
C1000 C1002 1.394 . S
C1000 H1016 0.931 . S
C1001 C1000 1.391 . S
C1001 C1005 1.376 . S
C1002 C1000 1.394 . S
C1002 C1003 1.369 . S
C1002 C1006 1.531 . S
C1003 C1002 1.369 . S
C1003 C1004 1.410 . S
C1003 C1011 1.503 . S
C1004 C1003 1.410 . S
C1004 C1005 1.392 . S
C1004 C1007 1.511 . S
C1005 C1001 1.376 . S
C1005 C1004 1.392 . S
C1005 H1017 0.929 . S
C1006 C1002 1.531 . S
C1006 H1018 0.960 . S
C1006 H1019 0.962 . S
C1006 H1020 0.960 . S
C1007 C1004 1.511 . S
C1007 H1021 0.961 . S
C1007 H1022 0.961 . S
C1007 H1023 0.961 . S
C1008 C1009 1.370 . S
C1008 C1010 1.363 . S
C1008 H1024 0.931 . S
C1009 C1008 1.370 . S
C1009 C1013 1.408 . S
C1010 C1008 1.363 . S
C1010 C1011 1.370 . S
C1010 C1014 1.524 . S
C1011 C1003 1.503 . S
C1011 C1010 1.370 . S
C1011 C1012 1.403 . S
C1012 C1011 1.403 . S
C1012 C1013 1.404 . S
C1012 C1015 1.539 . S
C1013 C1009 1.408 . S
C1013 C1012 1.404 . S
C1013 H1025 0.930 . S
C1014 C1010 1.524 . S
C1014 H1026 0.956 . S
C1014 H1027 0.961 . S
C1014 H1028 0.961 . S
C1015 C1012 1.539 . S
C1015 H1029 0.958 . S
C1015 H1030 0.961 . S
C1015 H1031 0.960 . S
H1016 C1000 0.931 . S
H1017 C1005 0.929 . S
H1018 C1006 0.960 . S
H1019 C1006 0.962 . S
H1020 C1006 0.960 . S
H1021 C1007 0.961 . S
H1022 C1007 0.961 . S
H1023 C1007 0.961 . S
H1024 C1008 0.931 . S
H1025 C1013 0.930 . S
H1026 C1014 0.956 . S
H1027 C1014 0.961 . S
H1028 C1014 0.961 . S
H1029 C1015 0.958 . S
H1030 C1015 0.961 . S
H1031 C1015 0.960 . S
C265 N80 1.855 . S
C273 C114 1.948 1_545 S
C305 C154 1.968 . S
C297 N93 1.898 . S
C337 C194 1.972 . S
C329 N54 1.916 . S
C369 C234 1.960 1_455 S
C361 N67 1.901 . S
C401 C123 1.955 1_565 S
C393 N28 1.901 1_545 S
C425 N41 1.859 . S
C433 C163 1.963 . S
C457 N2 1.875 . S
C465 C203 1.972 . S
C489 N15 1.901 1_455 S
C497 C243 1.961 1_655 S
C529 C120 0.445 . S
C521 N70 0.507 1_455 S
C561 C160 0.475 . S
C553 N83 0.467 1_545 S
C593 C200 0.512 . S
C585 N96 0.411 . S
C617 N57 0.491 . S
C625 C240 0.461 . S
C649 N18 0.469 . S
C657 C111 0.483 . S
C689 C151 0.493 . S
C681 N31 0.468 . S
C721 C191 0.500 . S
C713 N44 0.415 . S
C745 N5 0.414 . S
C753 C231 0.517 . S
C777 N66 2.193 1_455 S
C785 C115 2.253 . S
C809 N79 2.119 1_545 S
C817 C155 2.231 . S
C849 C195 2.216 . S
C841 N92 2.121 . S
C881 C235 2.250 . S
C873 N53 2.177 . S
C905 N14 2.133 . S
C913 C106 2.264 . S
C945 C146 2.232 . S
C937 N27 2.113 . S
C977 C186 2.226 . S
C969 N40 2.100 . S
C1001 N1 2.142 . S
C1009 C226 2.256 . S
