# Generated by pormake.
# Topology zzz, (3,6)-cn, num edge types: 1
# Building blocks:
#     Node 0, Type 0, BuildingBlock: MIDCAF_clean_linker_0, # of connection points: 3
#     Node 1, Type 0, BuildingBlock: MIDCAF_clean_linker_0, # of connection points: 3
#     Node 2, Type 0, BuildingBlock: MIDCAF_clean_linker_0, # of connection points: 3
#     Node 3, Type 0, BuildingBlock: MIDCAF_clean_linker_0, # of connection points: 3
#     Node 4, Type 0, BuildingBlock: MIDCAF_clean_linker_0, # of connection points: 3
#     Node 5, Type 0, BuildingBlock: MIDCAF_clean_linker_0, # of connection points: 3
#     Node 6, Type 0, BuildingBlock: MIDCAF_clean_linker_0, # of connection points: 3
#     Node 7, Type 0, BuildingBlock: MIDCAF_clean_linker_0, # of connection points: 3
#     Node 8, Type 1, BuildingBlock: BETGAK_clean_sbu_0, # of connection points: 6
#     Node 9, Type 1, BuildingBlock: BETGAK_clean_sbu_0, # of connection points: 6
#     Node 10, Type 1, BuildingBlock: BETGAK_clean_sbu_0, # of connection points: 6
#     Node 11, Type 1, BuildingBlock: BETGAK_clean_sbu_0, # of connection points: 6
#     Edge 12, Type (0, 1), BuildingBlock: CIFDUS_clean_linker_0, # of connection points: 2
#     Edge 13, Type (0, 1), BuildingBlock: CIFDUS_clean_linker_0, # of connection points: 2
#     Edge 14, Type (0, 1), BuildingBlock: CIFDUS_clean_linker_0, # of connection points: 2
#     Edge 15, Type (0, 1), BuildingBlock: CIFDUS_clean_linker_0, # of connection points: 2
#     Edge 16, Type (0, 1), BuildingBlock: CIFDUS_clean_linker_0, # of connection points: 2
#     Edge 17, Type (0, 1), BuildingBlock: CIFDUS_clean_linker_0, # of connection points: 2
#     Edge 18, Type (0, 1), BuildingBlock: CIFDUS_clean_linker_0, # of connection points: 2
#     Edge 19, Type (0, 1), BuildingBlock: CIFDUS_clean_linker_0, # of connection points: 2
#     Edge 20, Type (0, 1), BuildingBlock: CIFDUS_clean_linker_0, # of connection points: 2
#     Edge 21, Type (0, 1), BuildingBlock: CIFDUS_clean_linker_0, # of connection points: 2
#     Edge 22, Type (0, 1), BuildingBlock: CIFDUS_clean_linker_0, # of connection points: 2
#     Edge 23, Type (0, 1), BuildingBlock: CIFDUS_clean_linker_0, # of connection points: 2
#     Edge 24, Type (0, 1), BuildingBlock: CIFDUS_clean_linker_0, # of connection points: 2
#     Edge 25, Type (0, 1), BuildingBlock: CIFDUS_clean_linker_0, # of connection points: 2
#     Edge 26, Type (0, 1), BuildingBlock: CIFDUS_clean_linker_0, # of connection points: 2
#     Edge 27, Type (0, 1), BuildingBlock: CIFDUS_clean_linker_0, # of connection points: 2
#     Edge 28, Type (0, 1), BuildingBlock: CIFDUS_clean_linker_0, # of connection points: 2
#     Edge 29, Type (0, 1), BuildingBlock: CIFDUS_clean_linker_0, # of connection points: 2
#     Edge 30, Type (0, 1), BuildingBlock: CIFDUS_clean_linker_0, # of connection points: 2
#     Edge 31, Type (0, 1), BuildingBlock: CIFDUS_clean_linker_0, # of connection points: 2
#     Edge 32, Type (0, 1), BuildingBlock: CIFDUS_clean_linker_0, # of connection points: 2
#     Edge 33, Type (0, 1), BuildingBlock: CIFDUS_clean_linker_0, # of connection points: 2
#     Edge 34, Type (0, 1), BuildingBlock: CIFDUS_clean_linker_0, # of connection points: 2
#     Edge 35, Type (0, 1), BuildingBlock: CIFDUS_clean_linker_0, # of connection points: 2
# Relax obj value: 0.478
# Max RMSD: 0.268
# Mean RMSD: 0.255
data_MOF--net-zzz--node1-BETGAK_clean_sbu_0--node2-MIDCAF_clean_linker_0--edge1-CIFDUS_clean_linker_0
_symmetry_space_group_name_H-M    P1
_symmetry_Int_Tables_number       1
_symmetry_cell_setting            triclinic
loop_
_symmetry_equiv_pos_as_xyz
'x, y, z'
_cell_length_a     52.918666
_cell_length_b     52.858539
_cell_length_c     16.453172
_cell_angle_alpha  89.68405
_cell_angle_beta   90.035588
_cell_angle_gamma 89.997788
loop_
_atom_site_label
_atom_site_type_symbol
_atom_site_fract_x
_atom_site_fract_y
_atom_site_fract_z
_atom_type_partial_charge
C0 C 0.80254 0.51222 0.47982 0.0
C1 C 0.81362 0.49473 0.53442 0.0
C2 C 0.8014 0.47136 0.54634 0.0
C3 C 0.78002 0.4649 0.50072 0.0
H4 H 0.67268 0.48016 0.33794 0.0
H5 H 0.63491 0.49124 0.2579 0.0
H6 H 0.68224 0.50647 0.04964 0.0
H7 H 0.71953 0.49515 0.12914 0.0
H8 H 0.75579 0.43756 0.11246 0.0
H9 H 0.78981 0.41545 0.04538 0.0
H10 H 0.80573 0.37432 0.26779 0.0
H11 H 0.77263 0.39816 0.33624 0.0
H12 H 0.77393 0.51892 0.38898 0.0
H13 H 0.81119 0.53052 0.46969 0.0
H14 H 0.80932 0.45725 0.58696 0.0
H15 H 0.7723 0.44601 0.50729 0.0
N16 N 0.73315 0.48407 0.34548 0.0
N17 N 0.7296 0.453 0.24356 0.0
N18 N 0.76108 0.44947 0.34245 0.0
C19 C 0.72083 0.47441 0.27914 0.0
C20 C 0.74947 0.44026 0.27566 0.0
C21 C 0.7534 0.47128 0.37758 0.0
C22 C 0.69905 0.48727 0.24008 0.0
C23 C 0.67495 0.48669 0.27585 0.0
C24 C 0.65333 0.49271 0.22965 0.0
C25 C 0.65547 0.49971 0.14707 0.0
C26 C 0.67981 0.50152 0.11311 0.0
C27 C 0.70124 0.49512 0.15873 0.0
C28 C 0.76212 0.42003 0.22992 0.0
C29 C 0.7659 0.42307 0.14612 0.0
C30 C 0.78552 0.4102 0.10751 0.0
C31 C 0.80135 0.39369 0.15187 0.0
C32 C 0.79467 0.38768 0.23254 0.0
C33 C 0.77553 0.40111 0.27169 0.0
C34 C 0.76996 0.48166 0.4424 0.0
C35 C 0.78088 0.50579 0.43455 0.0
C36 C 0.02713 0.80801 0.52636 0.0
C37 C 1.00759 0.82269 0.49223 0.0
C38 C 0.99454 0.81279 0.42446 0.0
C39 C 1.00223 0.78995 0.38819 0.0
H40 H 0.99166 0.7131 0.23522 0.0
H41 H 0.97679 0.67878 0.14729 0.0
H42 H 0.05318 0.65069 0.12835 0.0
H43 H 0.06776 0.68424 0.21629 0.0
H44 H 0.10346 0.73966 0.16466 0.0
H45 H 0.13264 0.76892 0.09887 0.0
H46 H 0.133 0.81503 0.31515 0.0
H47 H 0.10521 0.78532 0.38153 0.0
H48 H 0.05113 0.77567 0.51473 0.0
H49 H 0.03794 0.81484 0.57761 0.0
H50 H 0.97911 0.82324 0.3971 0.0
H51 H 0.99318 0.78393 0.33247 0.0
N52 N 0.02663 0.73861 0.32741 0.0
N53 N 0.06587 0.73035 0.26473 0.0
N54 N 0.06203 0.76407 0.35444 0.0
C55 C 0.04125 0.72391 0.2774 0.0
C56 C 0.07639 0.75039 0.303 0.0
C57 C 0.03738 0.75857 0.36736 0.0
C58 C 0.03095 0.70169 0.23241 0.0
C59 C 1.00515 0.69932 0.21336 0.0
C60 C 0.99668 0.67973 0.16237 0.0
C61 C 1.01377 0.66189 0.13006 0.0
C62 C 0.03934 0.66374 0.15239 0.0
C63 C 0.04776 0.68328 0.20251 0.0
C64 C 0.10103 0.7609 0.27682 0.0
C65 C 0.11075 0.7554 0.19944 0.0
C66 C 0.12736 0.77233 0.16145 0.0
C67 C 0.13411 0.79511 0.19991 0.0
C68 C 0.12796 0.79803 0.2825 0.0
C69 C 0.11167 0.78101 0.32067 0.0
C70 C 0.0231 0.77657 0.41894 0.0
C71 C 0.03473 0.78537 0.49025 0.0
C72 C 0.71977 0.05777 0.53794 0.0
C73 C 0.71069 0.03283 0.53297 0.0
C74 C 0.72566 1.01477 0.49229 0.0
C75 C 0.7481 0.02193 0.45257 0.0
H76 H 0.85744 0.06141 0.35969 0.0
H77 H 0.89637 0.05304 0.28372 0.0
H78 H 0.85407 1.00837 0.11223 0.0
H79 H 0.81512 0.01725 0.18777 0.0
H80 H 0.76637 0.13387 0.33619 0.0
H81 H 0.7362 0.15986 0.26133 0.0
H82 H 0.74302 0.10903 0.05651 0.0
H83 H 0.77484 0.08537 0.12847 0.0
H84 H 0.74746 0.08465 0.49893 0.0
H85 H 0.70883 0.0723 0.5679 0.0
H86 H 0.71948 0.99529 0.48823 0.0
H87 H 0.75825 1.00802 0.4172 0.0
N88 N 0.79535 0.04348 0.3686 0.0
N89 N 0.80339 0.07395 0.26637 0.0
N90 N 0.76869 0.07873 0.35247 0.0
C91 C 0.81012 0.05246 0.30654 0.0
C92 C 0.78286 0.0873 0.28983 0.0
C93 C 0.77451 0.05693 0.39202 0.0
C94 C 0.83345 0.03966 0.28018 0.0
C95 C 0.85675 0.04889 0.30786 0.0
C96 C 0.87893 0.04426 0.26401 0.0
C97 C 0.87824 0.03018 0.19172 0.0
C98 C 0.85525 0.01905 0.16812 0.0
C99 C 0.83298 0.02399 0.21154 0.0
C100 C 0.7725 0.10751 0.2382 0.0
C101 C 0.76219 0.12924 0.27352 0.0
C102 C 0.74452 0.14382 0.23082 0.0
C103 C 0.73576 0.13597 0.15397 0.0
C104 C 0.74873 0.116 0.11535 0.0
C105 C 0.76714 0.10215 0.15683 0.0
C106 C 0.7559 0.04734 0.45229 0.0
C107 C 0.74199 0.0649 0.49808 0.0
C108 C 0.42831 0.74602 0.03561 0.0
C109 C 0.4084 0.73046 0.06341 0.0
C110 C 0.39814 0.73537 0.14088 0.0
C111 C 0.41014 0.75217 0.19363 0.0
H112 H 0.44959 0.84994 0.24518 0.0
H113 H 0.46165 0.89018 0.18549 0.0
H114 H 0.53963 0.86589 0.18013 0.0
H115 H 0.52709 0.82494 0.2395 0.0
H116 H 0.52655 0.75641 0.3717 0.0
H117 H 0.54042 0.71809 0.4443 0.0
H118 H 0.46282 0.70128 0.50541 0.0
H119 H 0.44932 0.73939 0.43468 0.0
H120 H 0.45626 0.7736 0.06657 0.0
H121 H 0.43702 0.74313 0.97696 0.0
H122 H 0.38207 0.72482 0.16348 0.0
H123 H 0.40355 0.75364 0.25577 0.0
N124 N 0.45909 0.79964 0.21535 0.0
N125 N 0.48784 0.79282 0.32303 0.0
N126 N 0.4578 0.76178 0.28876 0.0
C127 C 0.47813 0.80823 0.26326 0.0
C128 C 0.47721 0.76949 0.33647 0.0
C129 C 0.44883 0.77657 0.22805 0.0
C130 C 0.48739 0.8343 0.24724 0.0
C131 C 0.46944 0.85343 0.23335 0.0
C132 C 0.47643 0.87664 0.19915 0.0
C133 C 0.50166 0.88145 0.177 0.0
C134 C 0.51996 0.86279 0.19532 0.0
C135 C 0.5129 0.83945 0.23044 0.0
C136 C 0.48686 0.75099 0.39758 0.0
C137 C 0.51266 0.74499 0.40333 0.0
C138 C 0.52051 0.72279 0.44394 0.0
C139 C 0.50274 0.70624 0.48016 0.0
C140 C 0.47716 0.71344 0.47922 0.0
C141 C 0.46937 0.73538 0.43836 0.0
C142 C 0.43163 0.76544 0.16814 0.0
C143 C 0.43958 0.76356 0.08729 0.0
C144 C 0.21008 0.54358 0.94943 0.0
C145 C 0.19954 0.5194 0.96111 0.0
C146 C 0.21292 0.50205 1.01078 0.0
C147 C 0.23516 0.50931 0.05186 0.0
H148 H 0.3127 0.4946 0.21004 0.0
H149 H 0.34999 0.47881 0.28382 0.0
H150 H 0.37769 0.55537 0.30521 0.0
H151 H 0.34119 0.57074 0.23107 0.0
H152 H 0.2855 0.59618 0.34567 0.0
H153 H 0.25957 0.62015 0.44032 0.0
H154 H 0.20322 0.6304 0.25245 0.0
H155 H 0.22938 0.60763 0.15811 0.0
H156 H 0.23862 0.57011 0.98368 0.0
H157 H 0.20047 0.55769 0.91284 0.0
H158 H 0.20571 0.4831 0.02045 0.0
H159 H 0.24397 0.49615 0.09384 0.0
N160 N 0.28442 0.53336 0.12866 0.0
N161 N 0.2917 0.56685 0.22014 0.0
N162 N 0.25553 0.56703 0.13945 0.0
C163 C 0.29948 0.54485 0.18568 0.0
C164 C 0.26976 0.578 0.19768 0.0
C165 C 0.26246 0.54497 0.10433 0.0
C166 C 0.32385 0.53393 0.21503 0.0
C167 C 0.32716 0.50787 0.22862 0.0
C168 C 0.34842 0.49891 0.27179 0.0
C169 C 0.36693 0.5158 0.3015 0.0
C170 C 0.36419 0.54165 0.28305 0.0
C171 C 0.34303 0.55053 0.24077 0.0
C172 C 0.25899 0.5991 0.24532 0.0
C173 C 0.26803 0.60444 0.32377 0.0
C174 C 0.25308 0.6181 0.37827 0.0
C175 C 0.22883 0.62644 0.35529 0.0
C176 C 0.22164 0.62423 0.27323 0.0
C177 C 0.2366 0.61079 0.21885 0.0
C178 C 0.24444 0.53411 0.04429 0.0
C179 C 0.2321 0.55077 0.99035 0.0
C180 C 0.99188 0.22089 0.90266 0.0
C181 C 1.01284 0.20598 0.92494 0.0
C182 C 0.0282 0.21448 0.98952 0.0
C183 C 0.02169 0.23623 0.03395 0.0
H184 H 0.95677 0.34066 0.21957 0.0
H185 H 0.97065 0.37675 0.29834 0.0
H186 H 0.04832 0.35377 0.26639 0.0
H187 H 0.03416 0.31705 0.18741 0.0
H188 H 0.93122 0.28326 0.31318 0.0
H189 H 0.90819 0.25485 0.40364 0.0
H190 H 0.90688 0.19831 0.21447 0.0
H191 H 0.92829 0.22694 0.12397 0.0
H192 H 0.96796 0.2522 0.93231 0.0
H193 H 0.97934 0.215 0.85432 0.0
H194 H 0.04467 0.20373 1.00796 0.0
H195 H 0.03271 0.24114 0.08709 0.0
N196 N 0.99749 0.28819 0.105 0.0
N197 N 0.96297 0.29196 0.19492 0.0
N198 N 0.96553 0.25727 0.10857 0.0
C199 C 0.98475 0.30156 0.16342 0.0
C200 C 0.95329 0.26981 0.16811 0.0
C201 C 0.98738 0.26609 0.07649 0.0
C202 C 0.99434 0.32579 0.19763 0.0
C203 C 0.97688 0.34347 0.22804 0.0
C204 C 0.98488 0.36437 0.27292 0.0
C205 C 1.01064 0.36825 0.28951 0.0
C206 C 0.02829 0.35126 0.25563 0.0
C207 C 0.02023 0.33034 0.20967 0.0
C208 C 0.93257 0.25693 0.21251 0.0
C209 C 0.92511 0.26512 0.29003 0.0
C210 C 0.91204 0.24872 0.3422 0.0
C211 C 0.90655 0.22379 0.31802 0.0
C212 C 0.91081 0.21717 0.2364 0.0
C213 C 0.92352 0.23361 0.18419 0.0
C214 C 0.99971 0.24992 0.01478 0.0
C215 C 0.98537 0.24242 0.94717 0.0
C216 C 0.30951 1.01127 0.96324 0.0
C217 C 0.33001 0.02149 1.0071 0.0
C218 C 0.32668 0.02593 0.09084 0.0
C219 C 0.30413 0.01946 0.12996 0.0
H220 H 0.17855 0.9751 0.1705 0.0
H221 H 0.1393 0.98547 0.24055 0.0
H222 H 0.17718 0.04689 0.36303 0.0
H223 H 0.21609 0.03703 0.28927 0.0
H224 H 0.27703 0.91772 0.18149 0.0
H225 H 0.30564 0.89303 0.26674 0.0
H226 H 0.28624 0.94048 0.47149 0.0
H227 H 0.25597 0.96273 0.3881 0.0
H228 H 0.272 0.99544 0.96877 0.0
H229 H 0.31114 1.00779 0.89868 0.0
H230 H 0.342 0.03316 0.12763 0.0
H231 H 0.30282 0.02175 0.19525 0.0
N232 N 0.24126 1.0062 0.1493 0.0
N233 N 0.2319 0.97273 0.23979 0.0
N234 N 0.27066 0.97352 0.17191 0.0
C235 C 0.22481 0.9944 0.20126 0.0
C236 C 0.25467 0.9621 0.22469 0.0
C237 C 0.26417 0.99532 0.13351 0.0
C238 C 0.20019 1.00547 0.22377 0.0
C239 C 0.17811 0.99147 0.20985 0.0
C240 C 0.15574 0.9972 0.25113 0.0
C241 C 0.15508 0.01667 0.30926 0.0
C242 C 0.17679 0.03187 0.31857 0.0
C243 C 0.19913 0.02632 0.27609 0.0
C244 C 0.26471 0.94224 0.27833 0.0
C245 C 0.27814 0.92184 0.24583 0.0
C246 C 0.29486 0.90804 0.29469 0.0
C247 C 0.29958 0.91549 0.37554 0.0
C248 C 0.28362 0.93395 0.4099 0.0
C249 C 0.26614 0.94697 0.36184 0.0
C250 C 0.28417 1.00839 0.08685 0.0
C251 C 0.28687 1.00464 1.00289 0.0
C252 C 0.63167 0.31152 0.23404 0.0
C253 C 0.63657 0.30576 0.3162 0.0
C254 C 0.63107 0.28118 0.34453 0.0
C255 C 0.61736 0.26438 0.29606 0.0
H256 H 0.54452 0.22698 0.3454 0.0
H257 H 0.53316 0.19013 0.42725 0.0
H258 H 0.52937 0.14475 0.2102 0.0
H259 H 0.5405 0.18219 0.1277 0.0
H260 H 0.51175 0.2894 0.11016 0.0
H261 H 0.49942 0.32693 0.03423 0.0
H262 H 0.55498 0.30916 0.85015 0.0
H263 H 0.56841 0.27272 0.93085 0.0
H264 H 0.61308 0.30073 0.12475 0.0
H265 H 0.63562 0.33008 0.20905 0.0
H266 H 0.6354 0.27569 0.4065 0.0
H267 H 0.61131 0.24657 0.32249 0.0
N268 N 0.57686 0.23828 0.21329 0.0
N269 N 0.54265 0.24091 0.12173 0.0
N270 N 0.57628 0.26991 0.11381 0.0
C271 C 0.55462 0.22895 0.18501 0.0
C272 C 0.55386 0.26138 0.08527 0.0
C273 C 0.58794 0.25864 0.17772 0.0
C274 C 0.54304 0.20752 0.23015 0.0
C275 C 0.54058 0.20929 0.31493 0.0
C276 C 0.53407 0.18813 0.36183 0.0
C277 C 0.53033 0.16441 0.32549 0.0
C278 C 0.53217 0.16272 0.24014 0.0
C279 C 0.53825 0.18417 0.19279 0.0
C280 C 0.54066 0.27782 0.02566 0.0
C281 C 0.52061 0.29305 0.0519 0.0
C282 C 0.51367 0.31481 1.00795 0.0
C283 C 0.52632 0.32177 0.93547 0.0
C284 C 0.54515 0.30522 0.90643 0.0
C285 C 0.5525 0.28384 0.95164 0.0
C286 C 0.60925 0.27177 0.21806 0.0
C287 C 0.61833 0.29465 0.18542 0.0
La288 La 0.03393 1.00028 0.81242 0.0
La289 La 0.99965 0.01822 0.68744 0.0
C290 C 0.06086 0.9888 0.93365 0.0
C291 C 0.07767 0.96721 0.94984 0.0
C292 C 0.08709 0.95276 0.88527 0.0
C293 C 0.10075 0.93067 0.90048 0.0
C294 C 0.10515 0.92252 0.98063 0.0
C295 C 0.09678 0.93771 0.04531 0.0
C296 C 0.08308 0.95988 0.02993 0.0
C297 C 0.05389 1.00021 0.66509 0.0
C298 C 1.00911 0.95887 0.70851 0.0
C299 C 0.97376 0.02834 0.5627 0.0
C300 C 0.95607 0.04859 0.54062 0.0
C301 C 0.9463 0.06476 0.60021 0.0
C302 C 0.93049 0.08481 0.57818 0.0
C303 C 0.92439 0.08918 0.49606 0.0
C304 C 0.93366 0.0724 0.43693 0.0
C305 C 0.94934 0.05226 0.45915 0.0
C306 C 0.97931 0.01721 0.83455 0.0
C307 C 0.02296 0.05951 0.79643 0.0
O308 O 0.06813 1.00417 0.87571 0.0
O309 O 0.03681 0.98333 0.92802 0.0
O310 O 0.05756 0.98311 0.71987 0.0
O311 O 0.04002 0.01742 0.69384 0.0
O312 O 0.01823 0.96365 0.78146 0.0
O313 O 1.00396 0.97766 0.65752 0.0
O314 O 0.96626 1.01322 0.62094 0.0
O315 O 0.99736 0.03516 0.57175 0.0
O316 O 0.97493 0.03433 0.78009 0.0
O317 O 0.99363 1.00063 0.80465 0.0
O318 O 1.01352 0.05539 0.72333 0.0
O319 O 0.02904 0.04032 0.84463 0.0
H320 H 0.08326 0.95806 0.82296 0.0
H321 H 0.10713 0.91949 0.84946 0.0
H322 H 0.09959 0.93175 0.10776 0.0
H323 H 0.07593 0.97079 0.08052 0.0
H324 H 0.95126 0.06215 0.66355 0.0
H325 H 0.92351 0.09724 0.62522 0.0
H326 H 0.92977 0.07548 0.37302 0.0
H327 H 0.95675 0.03993 0.41245 0.0
La328 La 0.52192 0.04079 0.82332 0.0
La329 La 0.51559 1.00717 0.69062 0.0
C330 C 0.53736 0.06483 0.94539 0.0
C331 C 0.55885 0.08199 0.95673 0.0
C332 C 0.56925 0.09517 0.89035 0.0
C333 C 0.59089 0.10997 0.90041 0.0
C334 C 0.6027 0.11158 0.97683 0.0
C335 C 0.59178 0.09868 0.04337 0.0
C336 C 0.57002 0.08411 0.03337 0.0
C337 C 0.50854 0.06436 0.68661 0.0
C338 C 0.56989 0.02711 0.71437 0.0
C339 C 0.50155 0.98452 0.56387 0.0
C340 C 0.48077 0.96775 0.54014 0.0
C341 C 0.46885 0.95174 0.59672 0.0
C342 C 0.44873 0.93634 0.57253 0.0
C343 C 0.44007 0.93692 0.49159 0.0
C344 C 0.45235 0.95295 0.43541 0.0
C345 C 0.47254 0.96808 0.45945 0.0
C346 C 0.52931 0.98347 0.82676 0.0
C347 C 0.46784 0.02032 0.8029 0.0
O348 O 0.51962 0.07299 0.89677 0.0
O349 O 0.54324 0.04125 0.93119 0.0
O350 O 0.50024 0.06957 0.75829 0.0
O351 O 0.52437 0.04662 0.69311 0.0
O352 O 0.56149 0.03493 0.78559 0.0
O353 O 0.5539 0.01855 0.65963 0.0
O354 O 0.51777 0.97528 0.61593 0.0
O355 O 0.49533 1.00786 0.58066 0.0
O356 O 0.53739 0.97829 0.75469 0.0
O357 O 0.51341 1.00118 0.82081 0.0
O358 O 0.47592 1.01199 0.7316 0.0
O359 O 0.48398 0.02936 0.85632 0.0
H360 H 0.56094 0.09359 0.83037 0.0
H361 H 0.59861 0.11975 0.84803 0.0
H362 H 0.60061 0.09889 0.10274 0.0
H363 H 0.56236 0.07388 0.08501 0.0
H364 H 0.47495 0.95131 0.65959 0.0
H365 H 0.43986 0.92417 0.61731 0.0
H366 H 0.44587 0.95452 0.37315 0.0
H367 H 0.48146 0.98043 0.41518 0.0
La368 La 0.50074 0.51486 0.76279 0.0
La369 La 0.53866 0.51204 0.63963 0.0
C370 C 0.47416 0.52651 0.884 0.0
C371 C 0.4572 0.54739 0.90513 0.0
C372 C 0.4433 0.56043 0.84542 0.0
C373 C 0.42821 0.58106 0.86682 0.0
C374 C 0.42705 0.58917 0.94809 0.0
C375 C 0.44085 0.57571 1.00749 0.0
C376 C 0.45566 0.55498 0.98618 0.0
C377 C 0.48177 0.50353 0.61736 0.0
C378 C 0.51494 0.56511 0.66292 0.0
C379 C 0.56622 0.50105 0.51978 0.0
C380 C 0.58539 0.48167 0.50389 0.0
C381 C 0.59324 0.47719 0.42408 0.0
C382 C 0.61011 0.45756 0.40757 0.0
C383 C 0.61942 0.44209 0.47081 0.0
C384 C 0.61234 0.44749 0.55133 0.0
C385 C 0.59537 0.46706 0.56769 0.0
C386 C 0.55733 0.52446 0.78401 0.0
C387 C 0.52404 0.46171 0.73992 0.0
O388 O 0.46654 0.51156 0.82605 0.0
O389 O 0.49805 0.53242 0.87673 0.0
O390 O 0.47424 0.49405 0.68574 0.0
O391 O 0.49902 0.51928 0.63241 0.0
O392 O 0.5054 0.55538 0.7307 0.0
O393 O 0.52603 0.5502 0.60969 0.0
O394 O 0.57224 0.51773 0.57464 0.0
O395 O 0.54307 0.49282 0.52899 0.0
O396 O 0.56415 0.5341 0.71518 0.0
O397 O 0.54068 0.50788 0.77045 0.0
O398 O 0.53508 0.47153 0.67459 0.0
O399 O 0.51155 0.47624 0.79064 0.0
H400 H 0.44439 0.55489 0.78221 0.0
H401 H 0.41774 0.59082 0.81958 0.0
H402 H 0.44107 0.5817 0.0703 0.0
H403 H 0.46643 0.54524 0.03285 0.0
H404 H 0.58574 0.48837 0.37422 0.0
H405 H 0.61478 0.4537 0.34476 0.0
H406 H 0.61933 0.43611 0.60147 0.0
H407 H 0.5896 0.47043 0.62988 0.0
La408 La 1.00605 0.49629 0.76433 0.0
La409 La 1.01479 0.53579 0.64837 0.0
C410 C 0.99049 0.46771 0.87718 0.0
C411 C 0.96906 0.45047 0.88972 0.0
C412 C 0.97166 0.42977 0.94261 0.0
C413 C 0.95106 0.41394 0.95846 0.0
C414 C 0.92745 0.41869 0.92195 0.0
C415 C 0.92532 0.43886 0.86614 0.0
C416 C 0.94597 0.45451 0.84998 0.0
C417 C 0.01932 0.47884 0.61878 0.0
C418 C 0.95979 0.5162 0.65505 0.0
C419 C 0.03042 0.56476 0.53689 0.0
C420 C 0.05106 0.58308 0.52969 0.0
C421 C 0.06596 0.58922 0.59731 0.0
C422 C 0.08672 0.60533 0.58842 0.0
C423 C 0.09294 0.61544 0.51167 0.0
C424 C 0.07721 0.60998 0.44494 0.0
C425 C 0.05644 0.59394 0.45399 0.0
C426 C 1.00197 0.5531 0.79478 0.0
C427 C 0.06144 0.51539 0.75366 0.0
O428 O 1.00681 0.46078 0.82229 0.0
O429 O 0.98521 0.49187 0.87201 0.0
O430 O 0.02672 0.46966 0.68766 0.0
O431 O 1.00451 0.49696 0.63312 0.0
O432 O 0.96672 0.5055 0.72478 0.0
O433 O 0.97714 0.52605 0.60697 0.0
O434 O 1.01254 0.57073 0.58787 0.0
O435 O 0.03724 0.54107 0.54442 0.0
O436 O 0.99442 0.56238 0.72625 0.0
O437 O 0.01668 0.535 0.77947 0.0
O438 O 0.05393 0.52648 0.68538 0.0
O439 O 0.04459 0.50504 0.80277 0.0
H440 H 0.98949 0.42615 0.97291 0.0
H441 H 0.95346 0.39837 1.00084 0.0
H442 H 0.90739 0.44336 0.83773 0.0
H443 H 0.94368 0.47017 0.8082 0.0
H444 H 0.06189 0.58105 0.65643 0.0
H445 H 0.09833 0.60929 0.64109 0.0
H446 H 0.08166 0.61701 0.38467 0.0
H447 H 0.04505 0.58938 0.40129 0.0
H448 H 0.12749 0.97851 0.37618 0.0
H449 H 0.1336 0.0599 0.37378 0.0
H450 H 0.10082 0.06258 0.47852 0.0
H451 H 0.07247 0.04122 0.57912 0.0
H452 H 0.06825 0.95975 0.5801 0.0
H453 H 0.09748 0.95778 0.46603 0.0
C454 C 0.1213 0.99696 0.39661 0.0
C455 C 0.13314 0.01895 0.36645 0.0
C456 C 0.10261 0.99834 0.45705 0.0
C457 C 0.12511 0.04258 0.39615 0.0
C458 C 0.10625 0.04414 0.45599 0.0
C459 C 0.07761 0.02315 0.55299 0.0
C460 C 0.06826 1.00063 0.58796 0.0
C461 C 0.09514 0.02209 0.48813 0.0
C462 C 0.07529 0.97731 0.55436 0.0
C463 C 0.09208 0.97615 0.48927 0.0
H464 H 0.4985 0.15947 0.45487 0.0
H465 H 0.55323 0.11794 0.3149 0.0
H466 H 0.55043 0.08243 0.41086 0.0
H467 H 0.53471 0.06443 0.54163 0.0
H468 H 0.47979 0.10662 0.67935 0.0
H469 H 0.48041 0.14034 0.57788 0.0
C470 C 0.50971 0.14258 0.44502 0.0
C471 C 0.52618 0.14153 0.37791 0.0
C472 C 0.5081 0.1223 0.50071 0.0
C473 C 0.54026 0.11928 0.3656 0.0
C474 C 0.53881 0.099 0.42092 0.0
C475 C 0.52269 0.08088 0.54878 0.0
C476 C 0.50742 0.08306 0.61867 0.0
C477 C 0.52313 0.10046 0.4897 0.0
C478 C 0.49188 0.10448 0.6267 0.0
C479 C 0.49222 0.12385 0.56862 0.0
H480 H 0.4162 0.53247 0.30864 0.0
H481 H 0.3645 0.4801 0.42294 0.0
H482 H 0.39617 0.47002 0.5259 0.0
H483 H 0.43716 0.47888 0.59154 0.0
H484 H 0.48831 0.53231 0.48045 0.0
H485 H 0.45832 0.53921 0.36918 0.0
C486 C 0.41182 0.51878 0.35588 0.0
C487 C 0.38771 0.50723 0.35765 0.0
C488 C 0.43003 0.5134 0.41631 0.0
C489 C 0.3828 0.48916 0.41883 0.0
C490 C 0.40089 0.48353 0.47852 0.0
C491 C 0.44188 0.49181 0.54246 0.0
C492 C 0.46493 0.5052 0.54483 0.0
C493 C 0.42437 0.49592 0.47897 0.0
C494 C 0.47073 0.52181 0.48046 0.0
C495 C 0.45352 0.52583 0.41684 0.0
H496 H 0.99243 0.4168 0.30255 0.0
H497 H 0.04618 0.36511 0.41014 0.0
H498 H 0.05518 0.39561 0.51708 0.0
H499 H 0.04504 0.43536 0.58769 0.0
H500 H 0.99078 0.48681 0.48222 0.0
H501 H 0.98474 0.45811 0.36754 0.0
C502 C 1.00622 0.41222 0.34912 0.0
C503 C 0.01847 0.38847 0.34802 0.0
C504 C 1.01109 0.4298 0.41152 0.0
C505 C 0.03661 0.38321 0.40842 0.0
C506 C 0.04162 0.40061 0.47029 0.0
C507 C 0.03212 0.44044 0.53907 0.0
C508 C 0.01823 0.46314 0.54401 0.0
C509 C 0.0286 0.42372 0.4735 0.0
C510 C 1.00168 0.46947 0.48019 0.0
C511 C 0.99814 0.45299 0.41466 0.0
H512 H 0.90185 0.99048 0.11509 0.0
H513 H 0.90313 0.07171 0.13829 0.0
H514 H 0.9354 0.07471 0.03296 0.0
H515 H 0.96102 0.0547 0.92696 0.0
H516 H 0.96241 0.97351 0.90712 0.0
H517 H 0.93164 0.96992 0.01843 0.0
C518 C 0.90948 1.00875 0.09759 0.0
C519 C 0.90005 0.03085 0.13446 0.0
C520 C 0.92842 1.01035 0.03728 0.0
C521 C 0.91019 0.05442 0.1115 0.0
C522 C 0.92855 0.05618 0.05085 0.0
C523 C 0.95479 0.03621 0.94783 0.0
C524 C 0.9637 1.01442 0.90865 0.0
C525 C 0.93748 0.03435 1.01236 0.0
C526 C 0.95579 0.99055 0.93657 0.0
C527 C 0.9381 0.98853 0.99987 0.0
H528 H 0.53467 0.88609 0.04954 0.0
H529 H 0.48246 0.92959 0.19383 0.0
H530 H 0.48721 0.96551 0.10122 0.0
H531 H 0.50359 0.98359 0.97206 0.0
H532 H 0.55665 0.94011 0.83115 0.0
H533 H 0.55454 0.90568 0.93007 0.0
C534 C 0.52477 0.90358 0.06218 0.0
C535 C 0.50793 0.90477 0.12844 0.0
C536 C 0.5276 0.92431 1.00856 0.0
C537 C 0.49514 0.92774 0.14257 0.0
C538 C 0.49789 0.94842 0.08962 0.0
C539 C 0.51492 0.96671 0.9637 0.0
C540 C 0.53002 0.96437 0.89359 0.0
C541 C 0.5136 0.94675 0.02116 0.0
C542 C 0.54469 0.94239 0.88403 0.0
C543 C 0.54348 0.92261 0.94064 0.0
H544 H 0.64702 0.53668 0.03365 0.0
H545 H 0.61265 0.47043 0.14012 0.0
H546 H 0.57796 0.47303 0.04179 0.0
H547 H 0.55915 0.49221 0.91687 0.0
H548 H 0.59435 0.55838 0.81216 0.0
H549 H 0.62663 0.55772 0.91775 0.0
C550 C 0.63186 0.52289 0.03576 0.0
C551 C 0.63266 0.50328 0.09408 0.0
C552 C 0.61206 0.52438 0.97859 0.0
C553 C 0.61255 0.48584 0.09644 0.0
C554 C 0.59274 0.4872 0.03968 0.0
C555 C 0.57367 0.50668 0.91806 0.0
C556 C 0.5744 0.5252 0.85601 0.0
C557 C 0.59251 0.50612 0.97928 0.0
C558 C 0.59339 0.5438 0.85859 0.0
C559 C 0.61195 0.54343 0.91901 0.0
H560 H 0.0293 0.61245 0.11605 0.0
H561 H 0.98024 0.66786 1.00435 0.0
H562 H 0.9706 0.63836 0.89505 0.0
H563 H 0.97882 0.59816 0.8244 0.0
H564 H 0.02875 0.54316 0.93355 0.0
H565 H 0.03535 0.57109 0.04987 0.0
C566 C 0.01644 0.6181 0.06794 0.0
C567 C 1.00567 0.64257 0.06875 0.0
C568 C 1.01125 0.60111 1.00417 0.0
C569 C 0.98866 0.6492 1.00635 0.0
C570 C 0.98329 0.63237 0.94316 0.0
C571 C 0.99092 0.59216 0.87411 0.0
C572 C 1.00341 0.56863 0.86987 0.0
C573 C 0.99484 0.60847 0.94054 0.0
C574 C 0.01894 0.56115 0.93503 0.0
C575 C 0.0228 0.57718 1.00151 0.0
H576 H 0.87844 0.18033 0.30232 0.0
H577 H 0.92561 0.22066 0.47268 0.0
H578 H 0.93096 0.18248 0.5526 0.0
H579 H 0.93104 0.13639 0.55585 0.0
H580 H 0.88815 0.09482 0.37802 0.0
H581 H 0.87313 0.13444 0.31813 0.0
C582 C 0.88963 0.18089 0.35749 0.0
C583 C 0.9022 0.20336 0.3794 0.0
C584 C 0.89415 0.15836 0.40066 0.0
C585 C 0.91567 0.20386 0.4533 0.0
C586 C 0.91915 0.1818 0.49878 0.0
C587 C 0.91773 0.13591 0.50572 0.0
C588 C 0.91101 0.11264 0.47077 0.0
C589 C 0.9098 0.15872 0.47022 0.0
C590 C 0.89396 0.11247 0.40518 0.0
C591 C 0.88534 0.13514 0.37099 0.0
H592 H 0.34467 0.90279 0.30445 0.0
H593 H 0.3104 0.9129 0.54072 0.0
H594 H 0.35215 0.91775 0.60092 0.0
H595 H 0.39716 0.92778 0.58013 0.0
H596 H 0.43113 0.91366 0.34593 0.0
H597 H 0.39025 0.90101 0.29197 0.0
C598 C 0.34591 0.90498 0.36969 0.0
C599 C 0.32396 0.90878 0.41675 0.0
C600 C 0.36997 0.90751 0.40427 0.0
C601 C 0.32674 0.91128 0.50158 0.0
C602 C 0.35069 0.91394 0.53642 0.0
C603 C 0.39592 0.92112 0.51807 0.0
C604 C 0.41707 0.92278 0.46626 0.0
C605 C 0.37233 0.91358 0.48733 0.0
C606 C 0.41495 0.91373 0.38625 0.0
C607 C 0.39159 0.90631 0.35537 0.0
H608 H 0.66508 0.34872 0.29276 0.0
H609 H 0.61828 0.31078 0.4709 0.0
H610 H 0.6135 0.34988 0.54496 0.0
H611 H 0.61341 0.39588 0.54015 0.0
H612 H 0.65654 0.43514 0.3561 0.0
H613 H 0.67126 0.39472 0.30248 0.0
C614 C 0.65415 0.34889 0.34848 0.0
C615 C 0.64145 0.3268 0.37421 0.0
C616 C 0.65007 0.37193 0.38854 0.0
C617 C 0.6283 0.32726 0.44864 0.0
C618 C 0.62515 0.34984 0.49078 0.0
C619 C 0.62676 0.39574 0.49016 0.0
C620 C 0.63343 0.41852 0.45121 0.0
C621 C 0.63458 0.37249 0.4584 0.0
C622 C 0.65062 0.41784 0.38604 0.0
C623 C 0.65908 0.39472 0.35543 0.0
H624 H 0.18914 0.65984 0.34716 0.0
H625 H 0.22329 0.60349 0.50357 0.0
H626 H 0.18425 0.59947 0.57918 0.0
H627 H 0.13839 0.60332 0.57722 0.0
H628 H 0.10271 0.65666 0.41411 0.0
H629 H 0.14411 0.66997 0.36392 0.0
C630 C 0.1882 0.64706 0.39886 0.0
C631 C 0.20901 0.63143 0.41749 0.0
C632 C 0.1651 0.64362 0.43937 0.0
C633 C 0.20772 0.61574 0.48686 0.0
C634 C 0.18515 0.61307 0.52972 0.0
C635 C 0.1396 0.61854 0.53294 0.0
C636 C 0.11745 0.62851 0.49802 0.0
C637 C 0.16336 0.62562 0.50295 0.0
C638 C 0.11949 0.64818 0.44042 0.0
C639 C 0.14315 0.65583 0.41179 0.0
H640 H 0.11716 0.80737 0.04918 0.0
H641 H 0.16525 0.83509 0.24124 0.0
H642 H 0.16281 0.87774 0.18363 0.0
H643 H 0.14043 0.90799 0.09337 0.0
H644 H 0.09192 0.87912 0.90431 0.0
H645 H 0.10179 0.83598 0.94502 0.0
C646 C 0.12808 0.82235 0.07706 0.0
C647 C 0.1408 0.81798 0.15101 0.0
C648 C 0.12614 0.84683 0.04475 0.0
C649 C 0.15469 0.83796 0.18555 0.0
C650 C 0.15322 0.86241 0.15281 0.0
C651 C 0.1324 0.8922 0.06039 0.0
C652 C 0.11521 0.89678 0.99667 0.0
C653 C 0.13783 0.86727 0.08504 0.0
C654 C 0.10527 0.87618 0.9534 0.0
C655 C 0.11076 0.85145 0.97698 0.0
H656 H 0.7179 0.13667 0.99594 0.0
H657 H 0.69513 0.15389 0.24225 0.0
H658 H 0.65143 0.15379 0.20134 0.0
H659 H 0.61941 0.13896 0.10609 0.0
H660 H 0.64218 0.11306 0.86866 0.0
H661 H 0.68547 0.12602 0.89591 0.0
C662 C 0.70351 0.14035 0.04116 0.0
C663 C 0.71036 0.14417 0.1231 0.0
C664 C 0.67798 0.13809 0.01915 0.0
C665 C 0.69112 0.15064 0.17875 0.0
C666 C 0.66576 0.1502 0.15578 0.0
C667 C 0.6338 0.13626 0.06001 0.0
C668 C 0.62754 0.12443 0.98633 0.0
C669 C 0.65899 0.14229 0.07778 0.0
C670 C 0.64629 0.12206 0.92612 0.0
C671 C 0.67121 0.12926 0.94193 0.0
H672 H 0.39256 0.68551 0.12949 0.0
H673 H 0.41078 0.72029 0.89823 0.0
H674 H 0.41558 0.67856 0.83816 0.0
H675 H 0.42269 0.63299 0.85964 0.0
H676 H 0.40062 0.59868 0.0878 0.0
H677 H 0.38858 0.63994 0.13991 0.0
C678 C 0.39654 0.68441 0.06509 0.0
C679 C 0.40245 0.70639 0.01992 0.0
C680 C 0.39903 0.66039 0.03052 0.0
C681 C 0.40738 0.70385 0.93614 0.0
C682 C 0.41001 0.67992 0.90136 0.0
C683 C 0.41443 0.63428 0.91976 0.0
C684 C 0.41357 0.61281 0.97085 0.0
C685 C 0.40726 0.6581 0.94934 0.0
C686 C 0.40257 0.61502 0.04833 0.0
C687 C 0.39551 0.63861 0.0781 0.0
H688 H 0.81633 0.38483 0.99428 0.0
H689 H 0.84524 0.39018 0.23953 0.0
H690 H 0.88786 0.39334 0.1881 0.0
H691 H 0.91559 0.40427 0.07556 0.0
H692 H 0.88725 0.40258 0.82964 0.0
H693 H 0.84584 0.38913 0.87951 0.0
C694 C 0.83195 0.38637 0.03662 0.0
C695 C 0.82718 0.38784 0.12076 0.0
C696 C 0.8566 0.38965 1.00656 0.0
C697 C 0.84792 0.38888 0.1745 0.0
C698 C 0.8725 0.39111 0.14511 0.0
C699 C 0.90068 0.40015 0.03236 0.0
C700 C 0.90442 0.40492 0.9491 0.0
C701 C 0.87686 0.39294 0.06145 0.0
C702 C 0.8847 0.39965 0.89432 0.0
C703 C 0.86103 0.39189 0.92277 0.0
H704 H 0.02793 0.16151 0.99664 0.0
H705 H 1.00656 0.1931 0.76416 0.0
H706 H 1.0081 0.15107 0.70352 0.0
H707 H 1.01359 0.10471 0.71756 0.0
H708 H 0.03592 0.07373 0.95013 0.0
H709 H 0.03626 0.11594 1.00843 0.0
C710 C 0.02412 0.1594 0.93228 0.0
C711 C 0.01698 0.1807 0.88557 0.0
C712 C 0.02507 0.13506 0.89747 0.0
C713 C 1.01173 0.17718 0.80237 0.0
C714 C 1.01268 0.15306 0.76738 0.0
C715 C 0.01871 0.10718 0.78084 0.0
C716 C 0.02462 0.08582 0.82908 0.0
C717 C 0.01894 0.13175 0.81456 0.0
C718 C 0.03126 0.08961 0.91105 0.0
C719 C 0.03144 0.11385 0.94478 0.0
H720 H 0.35381 0.99424 0.8865 0.0
H721 H 0.3635 0.05979 0.03918 0.0
H722 H 0.40654 0.06487 0.9901 0.0
H723 H 0.4423 0.04986 0.90878 0.0
H724 H 0.43241 0.98648 0.74813 0.0
H725 H 0.38855 0.98177 0.79409 0.0
C726 C 0.36507 1.00996 0.90801 0.0
C727 C 0.35525 0.02628 0.96812 0.0
C728 C 0.38993 1.01314 0.87826 0.0
C729 C 0.37052 0.04642 0.995 0.0
C730 C 0.3952 0.04948 0.96652 0.0
C731 C 0.43053 0.03505 0.88358 0.0
C732 C 0.44073 0.01836 0.82581 0.0
C733 C 0.40527 0.03272 0.90932 0.0
C734 C 0.42506 0.99956 0.79276 0.0
C735 C 0.39998 0.99682 0.81923 0.0
H736 H 0.55872 0.35173 0.84377 0.0
H737 H 0.48177 0.34915 0.93217 0.0
H738 H 0.47463 0.39169 0.88062 0.0
H739 H 0.49047 0.43069 0.81544 0.0
H740 H 0.56545 0.43179 0.71348 0.0
H741 H 0.57271 0.38854 0.76295 0.0
C742 C 0.54012 0.35998 0.85046 0.0
C743 C 0.52107 0.34686 0.89424 0.0
C744 C 0.5357 0.38439 0.81791 0.0
C745 C 0.49727 0.35865 0.90195 0.0
C746 C 0.493 0.38308 0.87157 0.0
C747 C 0.50833 0.42135 0.80344 0.0
C748 C 0.52748 0.43455 0.76147 0.0
C749 C 0.51217 0.3963 0.83067 0.0
C750 C 0.55038 0.42208 0.74546 0.0
C751 C 0.55457 0.39737 0.77416 0.0
H752 H 0.1784 0.53439 0.81521 0.0
H753 H 0.16165 0.49161 0.03291 0.0
H754 H 0.11826 0.48569 0.98692 0.0
H755 H 0.084 0.49478 0.88902 0.0
H756 H 0.10044 0.53881 0.67371 0.0
H757 H 0.14454 0.54243 0.71551 0.0
C758 C 0.16532 0.52378 0.85293 0.0
C759 C 0.17365 0.51353 0.92791 0.0
C760 C 0.14004 0.52087 0.82689 0.0
C761 C 0.15624 0.49944 0.97452 0.0
C762 C 0.13119 0.49626 0.94861 0.0
C763 C 0.09722 0.50508 0.85092 0.0
C764 C 0.08866 0.51655 0.77821 0.0
C765 C 0.12274 0.5072 0.8755 0.0
C766 C 0.10627 0.52975 0.72989 0.0
C767 C 0.13161 0.53187 0.75382 0.0
H768 H 1.00998 0.84049 0.64908 0.0
H769 H 0.99541 0.86511 0.40284 0.0
H770 H 0.99294 0.90888 0.44819 0.0
H771 H 0.99813 0.94085 0.55607 0.0
H772 H 1.01489 0.9161 0.80072 0.0
H773 H 1.01376 0.87211 0.75723 0.0
C774 C 1.00629 0.85535 0.60501 0.0
C775 C 1.00298 0.84915 0.52225 0.0
C776 C 1.00557 0.88073 0.63114 0.0
C777 C 0.99768 0.86893 0.467 0.0
C778 C 0.99654 0.89415 0.49279 0.0
C779 C 1.00132 0.92585 0.60011 0.0
C780 C 1.00666 0.932 0.68173 0.0
C781 C 1.0009 0.90036 0.57448 0.0
C782 C 1.01081 0.91214 0.73754 0.0
C783 C 1.01016 0.88686 0.7127 0.0
H784 H 0.68686 0.04933 0.67133 0.0
H785 H 0.67526 1.00296 0.45939 0.0
H786 H 0.6312 0.99662 0.49757 0.0
H787 H 0.5951 1.00614 0.58662 0.0
H788 H 0.60641 0.05291 0.79775 0.0
H789 H 0.6511 0.05749 0.76358 0.0
C790 C 0.67474 0.03779 0.63347 0.0
C791 C 0.6846 0.02667 0.56238 0.0
C792 C 0.64916 0.03451 0.65511 0.0
C793 C 0.66852 1.01146 0.51503 0.0
C794 C 0.64314 1.00804 0.53635 0.0
C795 C 0.60733 0.01732 0.62528 0.0
C796 C 0.59726 0.02927 0.69444 0.0
C797 C 0.63314 0.01978 0.60554 0.0
C798 C 0.61354 0.04348 0.74415 0.0
C799 C 0.63916 0.04613 0.72462 0.0
H800 H 0.48469 0.68051 0.61425 0.0
H801 H 0.53711 0.67338 0.41476 0.0
H802 H 0.54603 0.62981 0.45488 0.0
H803 H 0.53723 0.59267 0.54148 0.0
H804 H 0.48464 0.59946 0.74053 0.0
H805 H 0.47735 0.64384 0.70504 0.0
C806 C 0.49812 0.66948 0.57952 0.0
C807 C 0.51015 0.68049 0.51125 0.0
C808 C 0.50298 0.64413 0.60237 0.0
C809 C 0.52778 0.6658 0.46814 0.0
C810 C 0.53272 0.64067 0.49058 0.0
C811 C 0.52422 0.60385 0.57736 0.0
C812 C 0.51141 0.59252 0.6434 0.0
C813 C 0.52017 0.6295 0.5568 0.0
C814 C 0.49479 0.60751 0.68941 0.0
C815 C 0.49058 0.63297 0.66905 0.0
H816 H 0.85524 0.51704 0.4665 0.0
H817 H 0.82932 0.48268 0.6897 0.0
H818 H 0.87173 0.48641 0.74765 0.0
H819 H 0.91693 0.4983 0.73341 0.0
H820 H 0.94205 0.5325 0.5086 0.0
H821 H 0.89944 0.53034 0.45434 0.0
C822 C 0.85865 0.5108 0.52843 0.0
C823 C 0.83887 0.49958 0.57329 0.0
C824 C 0.88318 0.51287 0.56141 0.0
C825 C 0.84407 0.49118 0.65306 0.0
C826 C 0.86839 0.49335 0.68647 0.0
C827 C 0.91312 0.50525 0.6726 0.0
C828 C 0.93303 0.51535 0.6254 0.0
C829 C 0.88826 0.50388 0.64087 0.0
C830 C 0.92739 0.52453 0.54684 0.0
C831 C 0.90289 0.52331 0.51536 0.0
loop_
_geom_bond_atom_site_label_1
_geom_bond_atom_site_label_2
_geom_bond_distance
_geom_bond_site_symmetry_2
_ccdc_geom_bond_type
C0 C1 1.384 . S
C0 H13 0.947 . S
C0 C35 1.382 . S
C1 C0 1.384 . S
C1 C2 1.378 . S
C2 C1 1.378 . S
C2 C3 1.378 . S
C2 H14 0.952 . S
C3 C2 1.378 . S
C3 H15 0.950 . S
C3 C34 1.383 . S
H4 C23 0.947 . S
H5 C24 0.946 . S
H6 C26 0.953 . S
H7 C27 0.945 . S
H8 C29 0.952 . S
H9 C30 0.949 . S
H10 C32 0.950 . S
H11 C33 0.948 . S
H12 C35 0.951 . S
H13 C0 0.947 . S
H14 C2 0.952 . S
H15 C3 0.950 . S
N16 C19 1.382 . S
N16 C21 1.363 . S
N17 C19 1.371 . S
N17 C20 1.372 . S
N18 C20 1.361 . S
N18 C21 1.377 . S
C19 N16 1.382 . S
C19 N17 1.371 . S
C19 C22 1.480 . S
C20 N17 1.372 . S
C20 N18 1.361 . S
C20 C28 1.457 . S
C21 N16 1.363 . S
C21 N18 1.377 . S
C21 C34 1.479 . S
C22 C19 1.480 . S
C22 C23 1.383 . S
C22 C27 1.385 . S
C23 H4 0.947 . S
C23 C22 1.383 . S
C23 C24 1.388 . S
C24 H5 0.946 . S
C24 C23 1.388 . S
C24 C25 1.384 . S
C25 C24 1.384 . S
C25 C26 1.377 . S
C26 H6 0.953 . S
C26 C25 1.377 . S
C26 C27 1.369 . S
C27 H7 0.945 . S
C27 C22 1.385 . S
C27 C26 1.369 . S
C28 C20 1.457 . S
C28 C29 1.372 . S
C28 C33 1.364 . S
C29 H8 0.952 . S
C29 C28 1.372 . S
C29 C30 1.389 . S
C30 H9 0.949 . S
C30 C29 1.389 . S
C30 C31 1.387 . S
C31 C30 1.387 . S
C31 C32 1.372 . S
C32 H10 0.950 . S
C32 C31 1.372 . S
C32 C33 1.379 . S
C33 H11 0.948 . S
C33 C28 1.364 . S
C33 C32 1.379 . S
C34 C3 1.383 . S
C34 C21 1.479 . S
C34 C35 1.398 . S
C35 C0 1.382 . S
C35 H12 0.951 . S
C35 C34 1.398 . S
C36 C37 1.384 1_655 S
C36 H49 0.948 . S
C36 C71 1.382 1_655 S
C37 C36 1.384 1_455 S
C37 C38 1.378 . S
C38 C37 1.378 . S
C38 C39 1.378 . S
C38 H50 0.952 . S
C39 C38 1.378 . S
C39 H51 0.950 . S
C39 C70 1.383 . S
H40 C59 0.947 . S
H41 C60 0.952 . S
H42 C62 0.953 . S
H43 C63 0.945 . S
H44 C65 0.949 1_655 S
H45 C66 0.956 . S
H46 C68 0.950 . S
H47 C69 0.948 . S
H48 C71 0.951 1_655 S
H49 C36 0.948 . S
H50 C38 0.952 . S
H51 C39 0.950 . S
N52 C55 1.382 . S
N52 C57 1.363 . S
N53 C55 1.371 . S
N53 C56 1.372 . S
N54 C56 1.361 . S
N54 C57 1.377 . S
C55 N52 1.382 . S
C55 N53 1.371 . S
C55 C58 1.480 . S
C56 N53 1.372 . S
C56 N54 1.361 . S
C56 C64 1.457 . S
C57 N52 1.363 . S
C57 N54 1.377 . S
C57 C70 1.479 . S
C58 C55 1.480 . S
C58 C59 1.383 . S
C58 C63 1.385 . S
C59 H40 0.947 . S
C59 C58 1.383 . S
C59 C60 1.386 1_455 S
C60 H41 0.952 . S
C60 C59 1.386 1_655 S
C60 C61 1.381 1_655 S
C61 C60 1.381 1_455 S
C61 C62 1.377 . S
C62 H42 0.953 . S
C62 C61 1.377 . S
C62 C63 1.369 . S
C63 H43 0.945 . S
C63 C58 1.385 . S
C63 C62 1.369 . S
C64 C56 1.457 . S
C64 C65 1.376 . S
C64 C69 1.364 . S
C65 H44 0.949 1_455 S
C65 C64 1.376 . S
C65 C66 1.386 1_455 S
C66 H45 0.956 . S
C66 C65 1.386 1_655 S
C66 C67 1.383 1_655 S
C67 C66 1.383 1_455 S
C67 C68 1.372 . S
C68 H46 0.950 . S
C68 C67 1.372 . S
C68 C69 1.379 . S
C69 H47 0.948 . S
C69 C64 1.364 . S
C69 C68 1.379 . S
C70 C39 1.383 . S
C70 C57 1.479 . S
C70 C71 1.398 . S
C71 C36 1.382 1_455 S
C71 H48 0.951 1_455 S
C71 C70 1.398 . S
C72 C73 1.384 1_565 S
C72 H85 0.948 . S
C72 C107 1.382 1_565 S
C73 C72 1.384 1_545 S
C73 C74 1.378 . S
C74 C73 1.378 . S
C74 C75 1.378 . S
C74 H86 0.952 . S
C75 C74 1.378 . S
C75 H87 0.950 . S
C75 C106 1.383 . S
H76 C95 0.947 . S
H77 C96 0.952 . S
H78 C98 0.953 . S
H79 C99 0.945 . S
H80 C101 0.949 1_565 S
H81 C102 0.957 . S
H82 C104 0.950 . S
H83 C105 0.948 . S
H84 C107 0.951 1_565 S
H85 C72 0.948 . S
H86 C74 0.952 . S
H87 C75 0.950 . S
N88 C91 1.382 . S
N88 C93 1.363 . S
N89 C91 1.371 . S
N89 C92 1.372 . S
N90 C92 1.361 . S
N90 C93 1.377 . S
C91 N88 1.382 . S
C91 N89 1.371 . S
C91 C94 1.480 . S
C92 N89 1.372 . S
C92 N90 1.361 . S
C92 C100 1.457 . S
C93 N88 1.363 . S
C93 N90 1.377 . S
C93 C106 1.479 . S
C94 C91 1.480 . S
C94 C95 1.383 . S
C94 C99 1.385 . S
C95 H76 0.947 . S
C95 C94 1.383 . S
C95 C96 1.386 1_545 S
C96 H77 0.952 . S
C96 C95 1.386 1_565 S
C96 C97 1.382 1_565 S
C97 C96 1.382 1_545 S
C97 C98 1.377 . S
C98 H78 0.953 . S
C98 C97 1.377 . S
C98 C99 1.369 . S
C99 H79 0.945 . S
C99 C94 1.385 . S
C99 C98 1.369 . S
C100 C92 1.457 . S
C100 C101 1.377 . S
C100 C105 1.364 . S
C101 H80 0.949 1_545 S
C101 C100 1.377 . S
C101 C102 1.386 1_545 S
C102 H81 0.957 . S
C102 C101 1.386 1_565 S
C102 C103 1.383 1_565 S
C103 C102 1.383 1_545 S
C103 C104 1.372 . S
C104 H82 0.950 . S
C104 C103 1.372 . S
C104 C105 1.379 . S
C105 H83 0.948 . S
C105 C100 1.364 . S
C105 C104 1.379 . S
C106 C75 1.383 . S
C106 C93 1.479 . S
C106 C107 1.398 . S
C107 C72 1.382 1_545 S
C107 H84 0.951 1_545 S
C107 C106 1.398 . S
C108 C109 1.384 . S
C108 H121 0.947 . S
C108 C143 1.382 . S
C109 C108 1.384 . S
C109 C110 1.378 . S
C110 C109 1.378 . S
C110 C111 1.378 . S
C110 H122 0.952 . S
C111 C110 1.378 . S
C111 H123 0.950 . S
C111 C142 1.383 . S
H112 C131 0.947 . S
H113 C132 0.946 . S
H114 C134 0.953 . S
H115 C135 0.945 . S
H116 C137 0.952 . S
H117 C138 0.949 . S
H118 C140 0.950 . S
H119 C141 0.948 . S
H120 C143 0.951 . S
H121 C108 0.947 . S
H122 C110 0.952 . S
H123 C111 0.950 . S
N124 C127 1.382 . S
N124 C129 1.363 . S
N125 C127 1.371 . S
N125 C128 1.372 . S
N126 C128 1.361 . S
N126 C129 1.377 . S
C127 N124 1.382 . S
C127 N125 1.371 . S
C127 C130 1.480 . S
C128 N125 1.372 . S
C128 N126 1.361 . S
C128 C136 1.457 . S
C129 N124 1.363 . S
C129 N126 1.377 . S
C129 C142 1.479 . S
C130 C127 1.480 . S
C130 C131 1.383 . S
C130 C135 1.385 . S
C131 H112 0.947 . S
C131 C130 1.383 . S
C131 C132 1.388 . S
C132 H113 0.946 . S
C132 C131 1.388 . S
C132 C133 1.384 . S
C133 C132 1.384 . S
C133 C134 1.377 . S
C134 H114 0.953 . S
C134 C133 1.377 . S
C134 C135 1.369 . S
C135 H115 0.945 . S
C135 C130 1.385 . S
C135 C134 1.369 . S
C136 C128 1.457 . S
C136 C137 1.372 . S
C136 C141 1.364 . S
C137 H116 0.952 . S
C137 C136 1.372 . S
C137 C138 1.389 . S
C138 H117 0.949 . S
C138 C137 1.389 . S
C138 C139 1.387 . S
C139 C138 1.387 . S
C139 C140 1.372 . S
C140 H118 0.950 . S
C140 C139 1.372 . S
C140 C141 1.379 . S
C141 H119 0.948 . S
C141 C136 1.364 . S
C141 C140 1.379 . S
C142 C111 1.383 . S
C142 C129 1.479 . S
C142 C143 1.398 . S
C143 C108 1.382 . S
C143 H120 0.951 . S
C143 C142 1.398 . S
C144 C145 1.384 . S
C144 H157 0.947 . S
C144 C179 1.382 . S
C145 C144 1.384 . S
C145 C146 1.378 . S
C146 C145 1.378 . S
C146 C147 1.378 . S
C146 H158 0.952 . S
C147 C146 1.378 . S
C147 H159 0.950 . S
C147 C178 1.383 . S
H148 C167 0.947 1_556 S
H149 C168 0.946 . S
H150 C170 0.953 . S
H151 C171 0.945 . S
H152 C173 0.952 . S
H153 C174 0.949 . S
H154 C176 0.950 . S
H155 C177 0.948 . S
H156 C179 0.951 . S
H157 C144 0.947 . S
H158 C146 0.952 . S
H159 C147 0.950 . S
N160 C163 1.382 1_556 S
N160 C165 1.363 . S
N161 C163 1.371 . S
N161 C164 1.372 . S
N162 C164 1.361 . S
N162 C165 1.377 1_554 S
C163 N160 1.382 1_554 S
C163 N161 1.371 . S
C163 C166 1.480 . S
C164 N161 1.372 . S
C164 N162 1.361 . S
C164 C172 1.457 . S
C165 N160 1.363 . S
C165 N162 1.377 1_556 S
C165 C178 1.479 . S
C166 C163 1.480 . S
C166 C167 1.383 . S
C166 C171 1.385 . S
C167 H148 0.947 1_554 S
C167 C166 1.383 . S
C167 C168 1.388 . S
C168 H149 0.946 . S
C168 C167 1.388 . S
C168 C169 1.384 . S
C169 C168 1.384 . S
C169 C170 1.377 . S
C170 H150 0.953 . S
C170 C169 1.377 . S
C170 C171 1.369 . S
C171 H151 0.945 . S
C171 C166 1.385 . S
C171 C170 1.369 . S
C172 C164 1.457 . S
C172 C173 1.372 . S
C172 C177 1.364 . S
C173 H152 0.952 . S
C173 C172 1.372 . S
C173 C174 1.389 . S
C174 H153 0.949 . S
C174 C173 1.389 . S
C174 C175 1.387 . S
C175 C174 1.387 . S
C175 C176 1.372 . S
C176 H154 0.950 . S
C176 C175 1.372 . S
C176 C177 1.379 . S
C177 H155 0.948 . S
C177 C172 1.364 . S
C177 C176 1.379 . S
C178 C147 1.383 . S
C178 C165 1.479 . S
C178 C179 1.398 . S
C179 C144 1.382 . S
C179 H156 0.951 . S
C179 C178 1.398 . S
C180 C181 1.384 . S
C180 H193 0.948 1_455 S
C180 C215 1.382 . S
C181 C180 1.384 . S
C181 C182 1.378 . S
C182 C181 1.378 . S
C182 C183 1.378 . S
C182 H194 0.952 . S
C183 C182 1.378 . S
C183 H195 0.950 . S
C183 C214 1.383 . S
H184 C203 0.947 1_556 S
H185 C204 0.949 . S
H186 C206 0.953 . S
H187 C207 0.945 . S
H188 C209 0.947 1_655 S
H189 C210 0.954 . S
H190 C212 0.950 . S
H191 C213 0.948 . S
H192 C215 0.950 1_655 S
H193 C180 0.948 1_655 S
H194 C182 0.952 . S
H195 C183 0.950 . S
N196 C199 1.382 1_556 S
N196 C201 1.363 . S
N197 C199 1.371 . S
N197 C200 1.372 . S
N198 C200 1.361 . S
N198 C201 1.377 1_554 S
C199 N196 1.382 1_554 S
C199 N197 1.371 . S
C199 C202 1.480 . S
C200 N197 1.372 . S
C200 N198 1.361 . S
C200 C208 1.457 . S
C201 N196 1.363 . S
C201 N198 1.377 1_556 S
C201 C214 1.479 . S
C202 C199 1.480 . S
C202 C203 1.383 . S
C202 C207 1.385 . S
C203 H184 0.947 1_554 S
C203 C202 1.383 . S
C203 C204 1.387 1_455 S
C204 H185 0.949 . S
C204 C203 1.387 1_655 S
C204 C205 1.382 1_655 S
C205 C204 1.382 1_455 S
C205 C206 1.377 . S
C206 H186 0.953 . S
C206 C205 1.377 . S
C206 C207 1.369 . S
C207 H187 0.945 . S
C207 C202 1.385 . S
C207 C206 1.369 . S
C208 C200 1.457 . S
C208 C209 1.379 . S
C208 C213 1.364 . S
C209 H188 0.947 1_455 S
C209 C208 1.379 . S
C209 C210 1.387 1_455 S
C210 H189 0.954 . S
C210 C209 1.387 1_655 S
C210 C211 1.384 1_655 S
C211 C210 1.384 1_455 S
C211 C212 1.372 . S
C212 H190 0.950 . S
C212 C211 1.372 . S
C212 C213 1.379 . S
C213 H191 0.948 . S
C213 C208 1.364 . S
C213 C212 1.379 . S
C214 C183 1.383 . S
C214 C201 1.479 . S
C214 C215 1.399 . S
C215 C180 1.382 . S
C215 H192 0.950 1_455 S
C215 C214 1.399 . S
C216 C217 1.384 . S
C216 H229 0.948 1_545 S
C216 C251 1.382 . S
C217 C216 1.384 . S
C217 C218 1.378 . S
C218 C217 1.378 . S
C218 C219 1.378 . S
C218 H230 0.952 . S
C219 C218 1.378 . S
C219 H231 0.950 . S
C219 C250 1.383 . S
H220 C239 0.947 1_556 S
H221 C240 0.949 . S
H222 C242 0.953 . S
H223 C243 0.945 . S
H224 C245 0.947 1_565 S
H225 C246 0.954 . S
H226 C248 0.950 . S
H227 C249 0.948 . S
H228 C251 0.950 1_565 S
H229 C216 0.948 1_565 S
H230 C218 0.952 . S
H231 C219 0.950 . S
N232 C235 1.382 1_556 S
N232 C237 1.363 . S
N233 C235 1.371 . S
N233 C236 1.372 . S
N234 C236 1.361 . S
N234 C237 1.377 1_554 S
C235 N232 1.382 1_554 S
C235 N233 1.371 . S
C235 C238 1.480 . S
C236 N233 1.372 . S
C236 N234 1.361 . S
C236 C244 1.457 . S
C237 N232 1.363 . S
C237 N234 1.377 1_556 S
C237 C250 1.479 . S
C238 C235 1.480 . S
C238 C239 1.383 . S
C238 C243 1.385 . S
C239 H220 0.947 1_554 S
C239 C238 1.383 . S
C239 C240 1.387 1_545 S
C240 H221 0.949 . S
C240 C239 1.387 1_565 S
C240 C241 1.382 1_565 S
C241 C240 1.382 1_545 S
C241 C242 1.377 . S
C242 H222 0.953 . S
C242 C241 1.377 . S
C242 C243 1.369 . S
C243 H223 0.945 . S
C243 C238 1.385 . S
C243 C242 1.369 . S
C244 C236 1.457 . S
C244 C245 1.379 . S
C244 C249 1.364 . S
C245 H224 0.947 1_545 S
C245 C244 1.379 . S
C245 C246 1.387 1_545 S
C246 H225 0.954 . S
C246 C245 1.387 1_565 S
C246 C247 1.384 1_565 S
C247 C246 1.384 1_545 S
C247 C248 1.372 . S
C248 H226 0.950 . S
C248 C247 1.372 . S
C248 C249 1.379 . S
C249 H227 0.948 . S
C249 C244 1.364 . S
C249 C248 1.379 . S
C250 C219 1.383 . S
C250 C237 1.479 . S
C250 C251 1.399 . S
C251 C216 1.382 . S
C251 H228 0.950 1_545 S
C251 C250 1.399 . S
C252 C253 1.384 . S
C252 H265 0.947 . S
C252 C287 1.382 . S
C253 C252 1.384 . S
C253 C254 1.378 . S
C254 C253 1.378 . S
C254 C255 1.378 . S
C254 H266 0.952 . S
C255 C254 1.378 . S
C255 H267 0.950 . S
C255 C286 1.383 . S
H256 C275 0.947 . S
H257 C276 0.946 . S
H258 C278 0.953 1_556 S
H259 C279 0.945 1_556 S
H260 C281 0.952 . S
H261 C282 0.949 . S
H262 C284 0.950 . S
H263 C285 0.948 . S
H264 C287 0.951 . S
H265 C252 0.947 . S
H266 C254 0.952 . S
H267 C255 0.950 . S
N268 C271 1.382 . S
N268 C273 1.363 . S
N269 C271 1.371 1_556 S
N269 C272 1.372 . S
N270 C272 1.361 1_554 S
N270 C273 1.377 . S
C271 N268 1.382 . S
C271 N269 1.371 1_554 S
C271 C274 1.480 . S
C272 N269 1.372 . S
C272 N270 1.361 1_556 S
C272 C280 1.457 . S
C273 N268 1.363 . S
C273 N270 1.377 . S
C273 C286 1.479 . S
C274 C271 1.480 . S
C274 C275 1.383 . S
C274 C279 1.385 . S
C275 H256 0.947 . S
C275 C274 1.383 . S
C275 C276 1.388 . S
C276 H257 0.946 . S
C276 C275 1.388 . S
C276 C277 1.384 . S
C277 C276 1.384 . S
C277 C278 1.377 . S
C278 H258 0.953 1_554 S
C278 C277 1.377 . S
C278 C279 1.369 . S
C279 H259 0.945 1_554 S
C279 C274 1.385 . S
C279 C278 1.369 . S
C280 C272 1.457 . S
C280 C281 1.372 . S
C280 C285 1.364 . S
C281 H260 0.952 . S
C281 C280 1.372 . S
C281 C282 1.389 . S
C282 H261 0.949 . S
C282 C281 1.389 . S
C282 C283 1.387 . S
C283 C282 1.387 . S
C283 C284 1.372 . S
C284 H262 0.950 . S
C284 C283 1.372 . S
C284 C285 1.379 . S
C285 H263 0.948 . S
C285 C280 1.364 . S
C285 C284 1.379 . S
C286 C255 1.383 . S
C286 C273 1.479 . S
C286 C287 1.398 . S
C287 C252 1.382 . S
C287 H264 0.951 . S
C287 C286 1.398 . S
La288 C290 2.928 . S
La288 O308 2.521 . S
La288 O309 2.628 . S
La288 O310 2.554 . S
La288 O311 2.757 1_565 S
La288 O312 2.470 . S
La288 O317 2.482 1_455 S
La288 O319 2.503 1_565 S
La289 C299 2.928 . S
La289 O311 2.482 1_655 S
La289 O313 2.503 1_545 S
La289 O314 2.521 . S
La289 O315 2.628 . S
La289 O316 2.554 . S
La289 O317 2.757 1_545 S
La289 O318 2.470 . S
C290 La288 2.928 . S
C290 C291 1.503 . S
C290 O308 1.261 . S
C290 O309 1.243 . S
C291 C290 1.503 . S
C291 C292 1.394 . S
C291 C296 1.373 . S
C292 C291 1.394 . S
C292 C293 1.380 . S
C292 H320 0.930 . S
C293 C292 1.380 . S
C293 C294 1.376 . S
C293 H321 0.930 . S
C294 C293 1.376 . S
C294 C295 1.370 . S
C295 C294 1.370 . S
C295 C296 1.396 . S
C295 H322 0.929 1_556 S
C296 C291 1.373 . S
C296 C295 1.396 . S
C296 H323 0.929 1_455 S
C297 O310 1.240 . S
C297 O311 1.289 1_565 S
C298 O312 1.258 1_655 S
C298 O313 1.256 . S
C299 La289 2.928 . S
C299 C300 1.503 . S
C299 O314 1.261 . S
C299 O315 1.243 . S
C300 C299 1.503 . S
C300 C301 1.394 . S
C300 C305 1.373 . S
C301 C300 1.394 . S
C301 C302 1.380 . S
C301 H324 0.930 . S
C302 C301 1.380 . S
C302 C303 1.376 . S
C302 H325 0.930 . S
C303 C302 1.376 . S
C303 C304 1.370 . S
C304 C303 1.370 . S
C304 C305 1.396 . S
C304 H326 0.929 . S
C305 C300 1.373 . S
C305 C304 1.396 . S
C305 H327 0.929 1_655 S
C306 O316 1.240 . S
C306 O317 1.289 1_545 S
C307 O318 1.258 1_455 S
C307 O319 1.256 . S
O308 La288 2.521 . S
O308 C290 1.261 . S
O309 La288 2.628 . S
O309 C290 1.243 . S
O310 La288 2.554 . S
O310 C297 1.240 . S
O311 La288 2.757 1_545 S
O311 La289 2.482 1_455 S
O311 C297 1.289 1_545 S
O312 La288 2.470 . S
O312 C298 1.258 1_455 S
O313 La289 2.503 1_565 S
O313 C298 1.256 . S
O314 La289 2.521 . S
O314 C299 1.261 . S
O315 La289 2.628 . S
O315 C299 1.243 . S
O316 La289 2.554 . S
O316 C306 1.240 . S
O317 La288 2.482 1_655 S
O317 La289 2.757 1_565 S
O317 C306 1.289 1_565 S
O318 La289 2.470 . S
O318 C307 1.258 1_655 S
O319 La288 2.503 1_545 S
O319 C307 1.256 . S
H320 C292 0.930 . S
H321 C293 0.930 . S
H322 C295 0.929 1_554 S
H323 C296 0.929 1_655 S
H324 C301 0.930 . S
H325 C302 0.930 . S
H326 C304 0.929 . S
H327 C305 0.929 1_455 S
La328 C330 2.928 . S
La328 O348 2.521 . S
La328 O349 2.628 . S
La328 O350 2.554 . S
La328 O351 2.757 . S
La328 O352 2.470 . S
La328 O357 2.482 1_545 S
La328 O359 2.503 . S
La329 C339 2.928 . S
La329 O351 2.482 1_565 S
La329 O353 2.503 . S
La329 O354 2.521 . S
La329 O355 2.628 . S
La329 O356 2.554 . S
La329 O357 2.757 . S
La329 O358 2.470 . S
C330 La328 2.928 . S
C330 C331 1.503 . S
C330 O348 1.261 . S
C330 O349 1.243 . S
C331 C330 1.503 . S
C331 C332 1.394 . S
C331 C336 1.373 . S
C332 C331 1.394 . S
C332 C333 1.380 . S
C332 H360 0.930 . S
C333 C332 1.380 . S
C333 C334 1.376 . S
C333 H361 0.930 . S
C334 C333 1.376 . S
C334 C335 1.370 . S
C335 C334 1.370 . S
C335 C336 1.396 . S
C335 H362 0.967 1_556 S
C336 C331 1.373 . S
C336 C335 1.396 . S
C336 H363 0.929 1_545 S
C337 O350 1.240 . S
C337 O351 1.289 . S
C338 O352 1.258 1_565 S
C338 O353 1.256 . S
C339 La329 2.928 . S
C339 C340 1.503 . S
C339 O354 1.261 . S
C339 O355 1.243 . S
C340 C339 1.503 . S
C340 C341 1.394 . S
C340 C345 1.373 . S
C341 C340 1.394 . S
C341 C342 1.380 . S
C341 H364 0.930 . S
C342 C341 1.380 . S
C342 C343 1.376 . S
C342 H365 0.930 . S
C343 C342 1.376 . S
C343 C344 1.370 . S
C344 C343 1.370 . S
C344 C345 1.396 . S
C344 H366 0.958 . S
C345 C340 1.373 . S
C345 C344 1.396 . S
C345 H367 0.929 1_565 S
C346 O356 1.240 . S
C346 O357 1.289 . S
C347 O358 1.258 1_545 S
C347 O359 1.256 . S
O348 La328 2.521 . S
O348 C330 1.261 . S
O349 La328 2.628 . S
O349 C330 1.243 . S
O350 La328 2.554 . S
O350 C337 1.240 . S
O351 La328 2.757 . S
O351 La329 2.482 1_545 S
O351 C337 1.289 . S
O352 La328 2.470 . S
O352 C338 1.258 1_545 S
O353 La329 2.503 . S
O353 C338 1.256 . S
O354 La329 2.521 . S
O354 C339 1.261 . S
O355 La329 2.628 . S
O355 C339 1.243 . S
O356 La329 2.554 . S
O356 C346 1.240 . S
O357 La328 2.482 1_565 S
O357 La329 2.757 . S
O357 C346 1.289 . S
O358 La329 2.470 . S
O358 C347 1.258 1_565 S
O359 La328 2.503 . S
O359 C347 1.256 . S
H360 C332 0.930 . S
H361 C333 0.930 . S
H362 C335 0.967 1_554 S
H363 C336 0.929 1_565 S
H364 C341 0.930 . S
H365 C342 0.930 . S
H366 C344 0.958 . S
H367 C345 0.929 1_545 S
La368 C370 2.928 . S
La368 O388 2.521 . S
La368 O389 2.628 . S
La368 O390 2.554 . S
La368 O391 2.757 . S
La368 O392 2.470 . S
La368 O397 2.482 . S
La368 O399 2.503 . S
La369 C379 2.928 . S
La369 O391 2.482 . S
La369 O393 2.503 . S
La369 O394 2.521 . S
La369 O395 2.628 . S
La369 O396 2.554 . S
La369 O397 2.757 . S
La369 O398 2.470 . S
C370 La368 2.928 . S
C370 C371 1.503 . S
C370 O388 1.261 . S
C370 O389 1.243 . S
C371 C370 1.503 . S
C371 C372 1.394 . S
C371 C376 1.373 . S
C372 C371 1.394 . S
C372 C373 1.380 . S
C372 H400 0.930 . S
C373 C372 1.380 . S
C373 C374 1.376 . S
C373 H401 0.930 . S
C374 C373 1.376 . S
C374 C375 1.370 . S
C375 C374 1.370 . S
C375 C376 1.396 . S
C375 H402 0.929 1_556 S
C376 C371 1.373 . S
C376 C375 1.396 . S
C376 H403 0.929 . S
C377 O390 1.240 . S
C377 O391 1.289 . S
C378 O392 1.258 . S
C378 O393 1.256 . S
C379 La369 2.928 . S
C379 C380 1.503 . S
C379 O394 1.261 . S
C379 O395 1.243 . S
C380 C379 1.503 . S
C380 C381 1.394 . S
C380 C385 1.373 . S
C381 C380 1.394 . S
C381 C382 1.380 . S
C381 H404 0.930 . S
C382 C381 1.380 . S
C382 C383 1.376 . S
C382 H405 0.930 . S
C383 C382 1.376 . S
C383 C384 1.370 . S
C384 C383 1.370 . S
C384 C385 1.396 . S
C384 H406 0.929 . S
C385 C380 1.373 . S
C385 C384 1.396 . S
C385 H407 0.929 . S
C386 O396 1.240 . S
C386 O397 1.289 . S
C387 O398 1.258 . S
C387 O399 1.256 . S
O388 La368 2.521 . S
O388 C370 1.261 . S
O389 La368 2.628 . S
O389 C370 1.243 . S
O390 La368 2.554 . S
O390 C377 1.240 . S
O391 La368 2.757 . S
O391 La369 2.482 . S
O391 C377 1.289 . S
O392 La368 2.470 . S
O392 C378 1.258 . S
O393 La369 2.503 . S
O393 C378 1.256 . S
O394 La369 2.521 . S
O394 C379 1.261 . S
O395 La369 2.628 . S
O395 C379 1.243 . S
O396 La369 2.554 . S
O396 C386 1.240 . S
O397 La368 2.482 . S
O397 La369 2.757 . S
O397 C386 1.289 . S
O398 La369 2.470 . S
O398 C387 1.258 . S
O399 La368 2.503 . S
O399 C387 1.256 . S
H400 C372 0.930 . S
H401 C373 0.930 . S
H402 C375 0.929 1_554 S
H403 C376 0.929 . S
H404 C381 0.930 . S
H405 C382 0.930 . S
H406 C384 0.929 . S
H407 C385 0.929 . S
La408 C410 2.928 . S
La408 O428 2.521 . S
La408 O429 2.628 . S
La408 O430 2.554 . S
La408 O431 2.757 1_655 S
La408 O432 2.470 . S
La408 O437 2.482 . S
La408 O439 2.503 1_655 S
La409 C419 2.928 . S
La409 O431 2.482 . S
La409 O433 2.503 1_455 S
La409 O434 2.521 . S
La409 O435 2.628 . S
La409 O436 2.554 . S
La409 O437 2.757 1_455 S
La409 O438 2.470 . S
C410 La408 2.928 . S
C410 C411 1.503 . S
C410 O428 1.261 . S
C410 O429 1.243 . S
C411 C410 1.503 . S
C411 C412 1.394 . S
C411 C416 1.373 . S
C412 C411 1.394 . S
C412 C413 1.380 . S
C412 H440 0.930 . S
C413 C412 1.380 . S
C413 C414 1.376 . S
C413 H441 0.930 . S
C414 C413 1.376 . S
C414 C415 1.370 . S
C415 C414 1.370 . S
C415 C416 1.396 . S
C415 H442 0.929 1_556 S
C416 C411 1.373 . S
C416 C415 1.396 . S
C416 H443 0.929 . S
C417 O430 1.250 . S
C417 O431 1.283 1_655 S
C418 O432 1.258 . S
C418 O433 1.256 . S
C419 La409 2.928 . S
C419 C420 1.503 . S
C419 O434 1.261 . S
C419 O435 1.243 . S
C420 C419 1.503 . S
C420 C421 1.394 . S
C420 C425 1.373 . S
C421 C420 1.394 . S
C421 C422 1.380 . S
C421 H444 0.930 . S
C422 C421 1.380 . S
C422 C423 1.376 . S
C422 H445 0.930 . S
C423 C422 1.376 . S
C423 C424 1.370 . S
C424 C423 1.370 . S
C424 C425 1.396 . S
C424 H446 0.929 . S
C425 C420 1.373 . S
C425 C424 1.396 . S
C425 H447 0.929 . S
C426 O436 1.256 . S
C426 O437 1.280 1_455 S
C427 O438 1.258 . S
C427 O439 1.256 . S
O428 La408 2.521 . S
O428 C410 1.261 . S
O429 La408 2.628 . S
O429 C410 1.243 . S
O430 La408 2.554 . S
O430 C417 1.250 . S
O431 La408 2.757 1_455 S
O431 La409 2.482 . S
O431 C417 1.283 1_455 S
O432 La408 2.470 . S
O432 C418 1.258 . S
O433 La409 2.503 1_655 S
O433 C418 1.256 . S
O434 La409 2.521 . S
O434 C419 1.261 . S
O435 La409 2.628 . S
O435 C419 1.243 . S
O436 La409 2.554 . S
O436 C426 1.256 . S
O437 La408 2.482 . S
O437 La409 2.757 1_655 S
O437 C426 1.280 1_655 S
O438 La409 2.470 . S
O438 C427 1.258 . S
O439 La408 2.503 1_455 S
O439 C427 1.256 . S
H440 C412 0.930 . S
H441 C413 0.930 . S
H442 C415 0.929 1_554 S
H443 C416 0.929 . S
H444 C421 0.930 . S
H445 C422 0.930 . S
H446 C424 0.929 . S
H447 C425 0.929 . S
H448 C454 0.930 . S
H449 C457 0.930 . S
H450 C458 0.930 . S
H451 C459 0.930 . S
H452 C462 0.930 . S
H453 C463 0.930 . S
C454 H448 0.930 . S
C454 C455 1.343 1_565 S
C454 C456 1.415 . S
C455 C454 1.343 1_545 S
C455 C457 1.436 . S
C456 C454 1.415 . S
C456 C461 1.425 1_565 S
C456 C463 1.409 . S
C457 H449 0.930 . S
C457 C455 1.436 . S
C457 C458 1.362 . S
C458 H450 0.930 . S
C458 C457 1.362 . S
C458 C461 1.409 . S
C459 H451 0.930 . S
C459 C460 1.367 . S
C459 C461 1.415 . S
C460 C459 1.367 . S
C460 C462 1.404 1_545 S
C461 C456 1.425 1_545 S
C461 C458 1.409 . S
C461 C459 1.415 . S
C462 H452 0.930 . S
C462 C460 1.404 1_565 S
C462 C463 1.362 . S
C463 H453 0.930 . S
C463 C456 1.409 . S
C463 C462 1.362 . S
H464 C470 0.930 . S
H465 C473 0.930 . S
H466 C474 0.930 . S
H467 C475 0.930 . S
H468 C478 0.930 . S
H469 C479 0.930 . S
C470 H464 0.930 . S
C470 C471 1.355 . S
C470 C472 1.415 . S
C471 C470 1.355 . S
C471 C473 1.419 . S
C472 C470 1.415 . S
C472 C477 1.425 . S
C472 C479 1.409 . S
C473 H465 0.930 . S
C473 C471 1.419 . S
C473 C474 1.362 . S
C474 H466 0.930 . S
C474 C473 1.362 . S
C474 C477 1.409 . S
C475 H467 0.930 . S
C475 C476 1.355 . S
C475 C477 1.415 . S
C476 C475 1.355 . S
C476 C478 1.419 . S
C477 C472 1.425 . S
C477 C474 1.409 . S
C477 C475 1.415 . S
C478 H468 0.930 . S
C478 C476 1.419 . S
C478 C479 1.362 . S
C479 H469 0.930 . S
C479 C472 1.409 . S
C479 C478 1.362 . S
H480 C486 0.930 . S
H481 C489 0.930 . S
H482 C490 0.930 . S
H483 C491 0.930 . S
H484 C494 0.930 . S
H485 C495 0.930 . S
C486 H480 0.930 . S
C486 C487 1.355 . S
C486 C488 1.415 . S
C487 C486 1.355 . S
C487 C489 1.419 . S
C488 C486 1.415 . S
C488 C493 1.425 . S
C488 C495 1.409 . S
C489 H481 0.930 . S
C489 C487 1.419 . S
C489 C490 1.362 . S
C490 H482 0.930 . S
C490 C489 1.362 . S
C490 C493 1.409 . S
C491 H483 0.930 . S
C491 C492 1.355 . S
C491 C493 1.415 . S
C492 C491 1.355 . S
C492 C494 1.419 . S
C493 C488 1.425 . S
C493 C490 1.409 . S
C493 C491 1.415 . S
C494 H484 0.930 . S
C494 C492 1.419 . S
C494 C495 1.362 . S
C495 H485 0.930 . S
C495 C488 1.409 . S
C495 C494 1.362 . S
H496 C502 0.930 . S
H497 C505 0.931 . S
H498 C506 0.930 . S
H499 C507 0.929 1_655 S
H500 C510 0.930 . S
H501 C511 0.932 . S
C502 H496 0.930 . S
C502 C503 1.355 . S
C502 C504 1.415 . S
C503 C502 1.355 . S
C503 C505 1.419 . S
C504 C502 1.415 . S
C504 C509 1.427 . S
C504 C511 1.409 . S
C505 H497 0.931 . S
C505 C503 1.419 . S
C505 C506 1.362 . S
C506 H498 0.930 . S
C506 C505 1.362 . S
C506 C509 1.410 . S
C507 H499 0.929 1_455 S
C507 C508 1.354 . S
C507 C509 1.414 . S
C508 C507 1.354 . S
C508 C510 1.420 . S
C509 C504 1.427 . S
C509 C506 1.410 . S
C509 C507 1.414 . S
C510 H500 0.930 . S
C510 C508 1.420 . S
C510 C511 1.362 . S
C511 H501 0.932 . S
C511 C504 1.409 . S
C511 C510 1.362 . S
H512 C518 0.930 . S
H513 C521 0.930 . S
H514 C522 0.930 . S
H515 C523 0.930 . S
H516 C526 0.930 . S
H517 C527 0.930 . S
C518 H512 0.930 . S
C518 C519 1.355 1_565 S
C518 C520 1.415 . S
C519 C518 1.355 1_545 S
C519 C521 1.419 . S
C520 C518 1.415 . S
C520 C525 1.425 1_565 S
C520 C527 1.409 . S
C521 H513 0.930 . S
C521 C519 1.419 . S
C521 C522 1.362 . S
C522 H514 0.930 . S
C522 C521 1.362 . S
C522 C525 1.409 . S
C523 H515 0.930 . S
C523 C524 1.355 1_545 S
C523 C525 1.415 1_556 S
C524 C523 1.355 1_565 S
C524 C526 1.419 . S
C525 C520 1.425 1_545 S
C525 C522 1.409 . S
C525 C523 1.415 1_554 S
C526 H516 0.930 . S
C526 C524 1.419 . S
C526 C527 1.362 1_556 S
C527 H517 0.930 . S
C527 C520 1.409 . S
C527 C526 1.362 1_554 S
H528 C534 0.930 . S
H529 C537 0.930 . S
H530 C538 0.930 . S
H531 C539 0.930 . S
H532 C542 0.930 . S
H533 C543 0.930 . S
C534 H528 0.930 . S
C534 C535 1.355 . S
C534 C536 1.415 . S
C535 C534 1.355 . S
C535 C537 1.419 . S
C536 C534 1.415 . S
C536 C541 1.425 . S
C536 C543 1.409 . S
C537 H529 0.930 . S
C537 C535 1.419 . S
C537 C538 1.362 . S
C538 H530 0.930 . S
C538 C537 1.362 . S
C538 C541 1.409 . S
C539 H531 0.930 . S
C539 C540 1.355 . S
C539 C541 1.415 1_556 S
C540 C539 1.355 . S
C540 C542 1.419 . S
C541 C536 1.425 . S
C541 C538 1.409 . S
C541 C539 1.415 1_554 S
C542 H532 0.930 . S
C542 C540 1.419 . S
C542 C543 1.362 1_556 S
C543 H533 0.930 . S
C543 C536 1.409 . S
C543 C542 1.362 1_554 S
H544 C550 0.930 . S
H545 C553 0.930 . S
H546 C554 0.930 . S
H547 C555 0.930 . S
H548 C558 0.930 . S
H549 C559 0.930 . S
C550 H544 0.930 . S
C550 C551 1.355 . S
C550 C552 1.415 . S
C551 C550 1.355 . S
C551 C553 1.419 . S
C552 C550 1.415 . S
C552 C557 1.425 . S
C552 C559 1.409 . S
C553 H545 0.930 . S
C553 C551 1.419 . S
C553 C554 1.362 . S
C554 H546 0.930 . S
C554 C553 1.362 . S
C554 C557 1.409 . S
C555 H547 0.930 . S
C555 C556 1.355 . S
C555 C557 1.415 1_556 S
C556 C555 1.355 . S
C556 C558 1.419 . S
C557 C552 1.425 . S
C557 C554 1.409 . S
C557 C555 1.415 1_554 S
C558 H548 0.930 . S
C558 C556 1.419 . S
C558 C559 1.362 1_556 S
C559 H549 0.930 . S
C559 C552 1.409 . S
C559 C558 1.362 1_554 S
H560 C566 0.930 . S
H561 C569 0.930 . S
H562 C570 0.930 . S
H563 C571 0.930 . S
H564 C574 0.930 . S
H565 C575 0.931 . S
C566 H560 0.930 . S
C566 C567 1.355 1_455 S
C566 C568 1.415 . S
C567 C566 1.355 1_655 S
C567 C569 1.419 . S
C568 C566 1.415 . S
C568 C573 1.425 1_455 S
C568 C575 1.417 . S
C569 H561 0.930 . S
C569 C567 1.419 . S
C569 C570 1.362 . S
C570 H562 0.930 . S
C570 C569 1.362 . S
C570 C573 1.409 . S
C571 H563 0.930 . S
C571 C572 1.348 1_655 S
C571 C573 1.415 1_556 S
C572 C571 1.348 1_455 S
C572 C574 1.428 . S
C573 C568 1.425 1_655 S
C573 C570 1.409 . S
C573 C571 1.415 1_554 S
C574 H564 0.930 . S
C574 C572 1.428 . S
C574 C575 1.354 1_556 S
C575 H565 0.931 . S
C575 C568 1.417 . S
C575 C574 1.354 1_554 S
H576 C582 0.930 . S
H577 C585 0.930 . S
H578 C586 0.930 . S
H579 C587 0.930 . S
H580 C590 0.930 . S
H581 C591 0.930 . S
C582 H576 0.930 . S
C582 C583 1.355 1_655 S
C582 C584 1.415 . S
C583 C582 1.355 1_455 S
C583 C585 1.419 . S
C584 C582 1.415 . S
C584 C589 1.425 . S
C584 C591 1.409 . S
C585 H577 0.930 . S
C585 C583 1.419 . S
C585 C586 1.362 1_455 S
C586 H578 0.930 . S
C586 C585 1.362 1_655 S
C586 C589 1.409 . S
C587 H579 0.930 . S
C587 C588 1.355 . S
C587 C589 1.415 . S
C588 C587 1.355 . S
C588 C590 1.419 . S
C589 C584 1.425 . S
C589 C586 1.409 . S
C589 C587 1.415 . S
C590 H580 0.930 . S
C590 C588 1.419 . S
C590 C591 1.362 . S
C591 H581 0.930 . S
C591 C584 1.409 . S
C591 C590 1.362 . S
H592 C598 0.930 1_545 S
H593 C601 0.930 . S
H594 C602 0.930 . S
H595 C603 0.930 . S
H596 C606 0.930 . S
H597 C607 0.930 . S
C598 H592 0.930 1_565 S
C598 C599 1.355 1_565 S
C598 C600 1.415 . S
C599 C598 1.355 1_545 S
C599 C601 1.419 1_545 S
C600 C598 1.415 . S
C600 C605 1.425 . S
C600 C607 1.409 . S
C601 H593 0.930 . S
C601 C599 1.419 1_565 S
C601 C602 1.362 . S
C602 H594 0.930 . S
C602 C601 1.362 . S
C602 C605 1.409 . S
C603 H595 0.930 . S
C603 C604 1.355 . S
C603 C605 1.415 . S
C604 C603 1.355 . S
C604 C606 1.419 . S
C605 C600 1.425 . S
C605 C602 1.409 . S
C605 C603 1.415 . S
C606 H596 0.930 . S
C606 C604 1.419 . S
C606 C607 1.362 . S
C607 H597 0.930 . S
C607 C600 1.409 . S
C607 C606 1.362 . S
H608 C614 0.930 . S
H609 C617 0.930 . S
H610 C618 0.930 . S
H611 C619 0.930 . S
H612 C622 0.930 . S
H613 C623 0.930 . S
C614 H608 0.930 . S
C614 C615 1.355 . S
C614 C616 1.415 . S
C615 C614 1.355 . S
C615 C617 1.419 . S
C616 C614 1.415 . S
C616 C621 1.425 . S
C616 C623 1.409 . S
C617 H609 0.930 . S
C617 C615 1.419 . S
C617 C618 1.362 . S
C618 H610 0.930 . S
C618 C617 1.362 . S
C618 C621 1.409 . S
C619 H611 0.930 . S
C619 C620 1.355 . S
C619 C621 1.415 . S
C620 C619 1.355 . S
C620 C622 1.419 . S
C621 C616 1.425 . S
C621 C618 1.409 . S
C621 C619 1.415 . S
C622 H612 0.930 . S
C622 C620 1.419 . S
C622 C623 1.362 . S
C623 H613 0.930 . S
C623 C616 1.409 . S
C623 C622 1.362 . S
H624 C630 0.930 . S
H625 C633 0.930 . S
H626 C634 0.930 . S
H627 C635 0.930 . S
H628 C638 0.930 . S
H629 C639 0.930 . S
C630 H624 0.930 . S
C630 C631 1.355 . S
C630 C632 1.415 . S
C631 C630 1.355 . S
C631 C633 1.419 . S
C632 C630 1.415 . S
C632 C637 1.425 . S
C632 C639 1.409 . S
C633 H625 0.930 . S
C633 C631 1.419 . S
C633 C634 1.362 . S
C634 H626 0.930 . S
C634 C633 1.362 . S
C634 C637 1.409 . S
C635 H627 0.930 . S
C635 C636 1.355 . S
C635 C637 1.415 . S
C636 C635 1.355 . S
C636 C638 1.419 . S
C637 C632 1.425 . S
C637 C634 1.409 . S
C637 C635 1.415 . S
C638 H628 0.930 . S
C638 C636 1.419 . S
C638 C639 1.362 . S
C639 H629 0.930 . S
C639 C632 1.409 . S
C639 C638 1.362 . S
H640 C646 0.930 . S
H641 C649 0.930 . S
H642 C650 0.930 . S
H643 C651 0.930 . S
H644 C654 0.930 . S
H645 C655 0.930 . S
C646 H640 0.930 . S
C646 C647 1.356 . S
C646 C648 1.415 1_655 S
C647 C646 1.356 . S
C647 C649 1.399 1_655 S
C648 C646 1.415 1_455 S
C648 C653 1.425 . S
C648 C655 1.409 1_554 S
C649 H641 0.930 . S
C649 C647 1.399 1_455 S
C649 C650 1.362 . S
C650 H642 0.930 . S
C650 C649 1.362 . S
C650 C653 1.409 . S
C651 H643 0.930 . S
C651 C652 1.355 . S
C651 C653 1.415 . S
C652 C651 1.355 . S
C652 C654 1.419 1_554 S
C653 C648 1.425 . S
C653 C650 1.409 . S
C653 C651 1.415 . S
C654 H644 0.930 . S
C654 C652 1.419 1_556 S
C654 C655 1.362 . S
C655 H645 0.930 . S
C655 C648 1.409 1_556 S
C655 C654 1.362 . S
H656 C662 0.930 . S
H657 C665 0.930 . S
H658 C666 0.930 . S
H659 C667 0.930 . S
H660 C670 0.930 . S
H661 C671 0.906 1_566 S
C662 H656 0.930 . S
C662 C663 1.355 1_565 S
C662 C664 1.415 1_565 S
C663 C662 1.355 1_545 S
C663 C665 1.418 . S
C664 C662 1.415 1_545 S
C664 C669 1.425 . S
C664 C671 1.424 . S
C665 H657 0.930 . S
C665 C663 1.418 . S
C665 C666 1.362 . S
C666 H658 0.930 . S
C666 C665 1.362 . S
C666 C669 1.409 . S
C667 H659 0.930 . S
C667 C668 1.355 . S
C667 C669 1.415 . S
C668 C667 1.355 . S
C668 C670 1.419 1_554 S
C669 C664 1.425 . S
C669 C666 1.409 . S
C669 C667 1.415 . S
C670 H660 0.930 . S
C670 C668 1.419 1_556 S
C670 C671 1.372 1_556 S
C671 H661 0.906 1_544 S
C671 C664 1.424 . S
C671 C670 1.372 1_554 S
H672 C678 0.930 . S
H673 C681 0.930 . S
H674 C682 0.930 1_556 S
H675 C683 0.930 . S
H676 C686 0.930 . S
H677 C687 0.930 . S
C678 H672 0.930 . S
C678 C679 1.355 . S
C678 C680 1.415 . S
C679 C678 1.355 . S
C679 C681 1.419 . S
C680 C678 1.415 . S
C680 C685 1.425 . S
C680 C687 1.409 . S
C681 H673 0.930 . S
C681 C679 1.419 . S
C681 C682 1.362 . S
C682 H674 0.930 1_554 S
C682 C681 1.362 . S
C682 C685 1.409 . S
C683 H675 0.930 . S
C683 C684 1.355 1_556 S
C683 C685 1.415 1_556 S
C684 C683 1.355 1_554 S
C684 C686 1.419 . S
C685 C680 1.425 . S
C685 C682 1.409 . S
C685 C683 1.415 1_554 S
C686 H676 0.930 . S
C686 C684 1.419 . S
C686 C687 1.362 . S
C687 H677 0.930 . S
C687 C680 1.409 . S
C687 C686 1.362 . S
H688 C694 0.930 . S
H689 C697 0.930 . S
H690 C698 0.930 . S
H691 C699 0.930 . S
H692 C702 0.930 . S
H693 C703 0.930 . S
C694 H688 0.930 . S
C694 C695 1.355 . S
C694 C696 1.415 . S
C695 C694 1.355 . S
C695 C697 1.419 . S
C696 C694 1.415 . S
C696 C701 1.425 . S
C696 C703 1.409 1_554 S
C697 H689 0.930 . S
C697 C695 1.419 . S
C697 C698 1.362 . S
C698 H690 0.930 . S
C698 C697 1.362 . S
C698 C701 1.409 . S
C699 H691 0.930 . S
C699 C700 1.355 . S
C699 C701 1.415 . S
C700 C699 1.355 . S
C700 C702 1.419 1_554 S
C701 C696 1.425 . S
C701 C698 1.409 . S
C701 C699 1.415 . S
C702 H692 0.930 . S
C702 C700 1.419 1_556 S
C702 C703 1.362 . S
C703 H693 0.930 . S
C703 C696 1.409 1_556 S
C703 C702 1.362 . S
H704 C710 0.930 . S
H705 C713 0.930 . S
H706 C714 0.930 . S
H707 C715 0.930 . S
H708 C718 0.930 . S
H709 C719 0.930 . S
C710 H704 0.930 . S
C710 C711 1.355 . S
C710 C712 1.415 . S
C711 C710 1.355 . S
C711 C713 1.419 1_455 S
C712 C710 1.415 . S
C712 C717 1.425 1_455 S
C712 C719 1.409 . S
C713 H705 0.930 . S
C713 C711 1.419 1_655 S
C713 C714 1.362 . S
C714 H706 0.930 . S
C714 C713 1.362 . S
C714 C717 1.409 . S
C715 H707 0.930 . S
C715 C716 1.355 1_655 S
C715 C717 1.415 . S
C716 C715 1.355 1_455 S
C716 C718 1.419 . S
C717 C712 1.425 1_655 S
C717 C714 1.409 . S
C717 C715 1.415 . S
C718 H708 0.930 . S
C718 C716 1.419 . S
C718 C719 1.362 . S
C719 H709 0.930 . S
C719 C712 1.409 . S
C719 C718 1.362 . S
H720 C726 0.930 . S
H721 C729 0.930 . S
H722 C730 0.930 . S
H723 C731 0.930 . S
H724 C734 0.930 . S
H725 C735 0.930 . S
C726 H720 0.930 . S
C726 C727 1.355 1_565 S
C726 C728 1.415 . S
C727 C726 1.355 1_545 S
C727 C729 1.419 . S
C728 C726 1.415 . S
C728 C733 1.425 1_565 S
C728 C735 1.409 . S
C729 H721 0.930 . S
C729 C727 1.419 . S
C729 C730 1.362 . S
C730 H722 0.930 . S
C730 C729 1.362 . S
C730 C733 1.409 . S
C731 H723 0.930 . S
C731 C732 1.355 . S
C731 C733 1.415 . S
C732 C731 1.355 . S
C732 C734 1.419 1_545 S
C733 C728 1.425 1_545 S
C733 C730 1.409 . S
C733 C731 1.415 . S
C734 H724 0.930 . S
C734 C732 1.419 1_565 S
C734 C735 1.362 . S
C735 H725 0.930 . S
C735 C728 1.409 . S
C735 C734 1.362 . S
H736 C742 0.930 . S
H737 C745 0.930 . S
H738 C746 0.930 . S
H739 C747 0.930 . S
H740 C750 0.930 . S
H741 C751 0.930 . S
C742 H736 0.930 . S
C742 C743 1.355 . S
C742 C744 1.415 . S
C743 C742 1.355 . S
C743 C745 1.419 . S
C744 C742 1.415 . S
C744 C749 1.425 . S
C744 C751 1.409 . S
C745 H737 0.930 . S
C745 C743 1.419 . S
C745 C746 1.362 . S
C746 H738 0.930 . S
C746 C745 1.362 . S
C746 C749 1.409 . S
C747 H739 0.930 . S
C747 C748 1.355 . S
C747 C749 1.415 . S
C748 C747 1.355 . S
C748 C750 1.419 . S
C749 C744 1.425 . S
C749 C746 1.409 . S
C749 C747 1.415 . S
C750 H740 0.930 . S
C750 C748 1.419 . S
C750 C751 1.362 . S
C751 H741 0.930 . S
C751 C744 1.409 . S
C751 C750 1.362 . S
H752 C758 0.930 . S
H753 C761 0.930 . S
H754 C762 0.930 . S
H755 C763 0.930 . S
H756 C766 0.930 . S
H757 C767 0.930 . S
C758 H752 0.930 . S
C758 C759 1.355 . S
C758 C760 1.415 . S
C759 C758 1.355 . S
C759 C761 1.419 . S
C760 C758 1.415 . S
C760 C765 1.425 . S
C760 C767 1.409 . S
C761 H753 0.930 . S
C761 C759 1.419 . S
C761 C762 1.362 . S
C762 H754 0.930 . S
C762 C761 1.362 . S
C762 C765 1.409 . S
C763 H755 0.930 . S
C763 C764 1.355 . S
C763 C765 1.415 . S
C764 C763 1.355 . S
C764 C766 1.419 . S
C765 C760 1.425 . S
C765 C762 1.409 . S
C765 C763 1.415 . S
C766 H756 0.930 . S
C766 C764 1.419 . S
C766 C767 1.362 . S
C767 H757 0.930 . S
C767 C760 1.409 . S
C767 C766 1.362 . S
H768 C774 0.930 . S
H769 C777 0.930 . S
H770 C778 0.930 . S
H771 C779 0.930 . S
H772 C782 0.930 . S
H773 C783 0.930 . S
C774 H768 0.930 . S
C774 C775 1.355 1_455 S
C774 C776 1.415 . S
C775 C774 1.355 1_655 S
C775 C777 1.419 . S
C776 C774 1.415 . S
C776 C781 1.425 1_455 S
C776 C783 1.409 . S
C777 H769 0.930 . S
C777 C775 1.419 . S
C777 C778 1.362 . S
C778 H770 0.930 . S
C778 C777 1.362 . S
C778 C781 1.409 . S
C779 H771 0.930 . S
C779 C780 1.355 . S
C779 C781 1.415 . S
C780 C779 1.355 . S
C780 C782 1.419 1_655 S
C781 C776 1.425 1_655 S
C781 C778 1.409 . S
C781 C779 1.415 . S
C782 H772 0.930 . S
C782 C780 1.419 1_455 S
C782 C783 1.362 . S
C783 H773 0.930 . S
C783 C776 1.409 . S
C783 C782 1.362 . S
H784 C790 0.930 . S
H785 C793 0.930 . S
H786 C794 0.930 . S
H787 C795 0.930 . S
H788 C798 0.930 . S
H789 C799 0.930 . S
C790 H784 0.930 . S
C790 C791 1.355 1_545 S
C790 C792 1.415 . S
C791 C790 1.355 1_565 S
C791 C793 1.419 . S
C792 C790 1.415 . S
C792 C797 1.425 1_545 S
C792 C799 1.409 . S
C793 H785 0.930 . S
C793 C791 1.419 . S
C793 C794 1.362 . S
C794 H786 0.930 . S
C794 C793 1.362 . S
C794 C797 1.409 . S
C795 H787 0.930 . S
C795 C796 1.355 . S
C795 C797 1.415 . S
C796 C795 1.355 . S
C796 C798 1.419 1_565 S
C797 C792 1.425 1_565 S
C797 C794 1.409 . S
C797 C795 1.415 . S
C798 H788 0.930 . S
C798 C796 1.419 1_545 S
C798 C799 1.362 . S
C799 H789 0.930 . S
C799 C792 1.409 . S
C799 C798 1.362 . S
H800 C806 0.930 . S
H801 C809 0.930 . S
H802 C810 0.930 . S
H803 C811 0.930 . S
H804 C814 0.930 . S
H805 C815 0.930 . S
C806 H800 0.930 . S
C806 C807 1.355 . S
C806 C808 1.415 . S
C807 C806 1.355 . S
C807 C809 1.419 . S
C808 C806 1.415 . S
C808 C813 1.425 . S
C808 C815 1.409 . S
C809 H801 0.930 . S
C809 C807 1.419 . S
C809 C810 1.362 . S
C810 H802 0.930 . S
C810 C809 1.362 . S
C810 C813 1.409 . S
C811 H803 0.930 . S
C811 C812 1.355 . S
C811 C813 1.415 . S
C812 C811 1.355 . S
C812 C814 1.419 . S
C813 C808 1.425 . S
C813 C810 1.409 . S
C813 C811 1.415 . S
C814 H804 0.930 . S
C814 C812 1.419 . S
C814 C815 1.362 . S
C815 H805 0.930 . S
C815 C808 1.409 . S
C815 C814 1.362 . S
H816 C822 0.930 . S
H817 C825 0.930 . S
H818 C826 0.930 . S
H819 C827 0.930 . S
H820 C830 0.930 . S
H821 C831 0.930 . S
C822 H816 0.930 . S
C822 C823 1.355 . S
C822 C824 1.415 . S
C823 C822 1.355 . S
C823 C825 1.419 . S
C824 C822 1.415 . S
C824 C829 1.425 . S
C824 C831 1.409 . S
C825 H817 0.930 . S
C825 C823 1.419 . S
C825 C826 1.362 . S
C826 H818 0.930 . S
C826 C825 1.362 . S
C826 C829 1.409 . S
C827 H819 0.930 . S
C827 C828 1.355 . S
C827 C829 1.415 . S
C828 C827 1.355 . S
C828 C830 1.419 . S
C829 C824 1.425 . S
C829 C826 1.409 . S
C829 C827 1.415 . S
C830 H820 0.930 . S
C830 C828 1.419 . S
C830 C831 1.362 . S
C831 H821 0.930 . S
C831 C824 1.409 . S
C831 C830 1.362 . S
C455 C241 2.285 . S
C460 C297 2.546 1_545 S
C476 C337 2.574 . S
C471 C277 2.320 . S
C492 C377 2.547 . S
C487 C169 2.221 . S
C508 C417 2.543 1_455 S
C503 C205 2.218 . S
C524 C306 2.544 1_565 S
C519 C97 2.222 . S
C535 C133 2.336 . S
C540 C346 2.581 . S
C551 C25 2.246 . S
C556 C386 2.562 . S
C567 C61 2.287 1_655 S
C572 C426 2.552 . S
C588 C303 0.615 . S
C583 C211 0.638 . S
C604 C343 0.556 . S
C599 C247 0.607 . S
C620 C383 0.660 . S
C615 C253 0.623 . S
C631 C175 0.602 . S
C636 C423 0.553 . S
C647 C67 0.473 1_655 S
C652 C294 0.493 1_554 S
C668 C334 0.478 1_554 S
C663 C103 0.508 . S
C684 C374 0.674 1_554 S
C679 C109 0.611 . S
C695 C31 0.480 . S
C700 C414 0.522 1_554 S
C711 C181 3.039 . S
C716 C307 3.438 . S
C727 C217 2.988 . S
C732 C347 3.383 . S
C748 C387 3.382 . S
C743 C283 2.929 . S
C764 C427 3.398 . S
C759 C145 2.974 . S
C775 C37 3.039 1_655 S
C780 C298 3.422 . S
C796 C338 3.382 . S
C791 C73 2.981 1_565 S
C812 C378 3.382 . S
C807 C139 2.879 . S
C823 C1 3.045 . S
C828 C418 3.415 . S
