# Generated by pormake.
# Topology pyr, (3,6)-cn, num edge types: 1
# Building blocks:
#     Node 0, Type 0, BuildingBlock: MIDCAF_clean_linker_0, # of connection points: 3
#     Node 1, Type 0, BuildingBlock: MIDCAF_clean_linker_0, # of connection points: 3
#     Node 2, Type 0, BuildingBlock: MIDCAF_clean_linker_0, # of connection points: 3
#     Node 3, Type 0, BuildingBlock: MIDCAF_clean_linker_0, # of connection points: 3
#     Node 4, Type 0, BuildingBlock: MIDCAF_clean_linker_0, # of connection points: 3
#     Node 5, Type 0, BuildingBlock: MIDCAF_clean_linker_0, # of connection points: 3
#     Node 6, Type 0, BuildingBlock: MIDCAF_clean_linker_0, # of connection points: 3
#     Node 7, Type 0, BuildingBlock: MIDCAF_clean_linker_0, # of connection points: 3
#     Node 8, Type 1, BuildingBlock: GEDQOX_clean_sbu_0, # of connection points: 6
#     Node 9, Type 1, BuildingBlock: GEDQOX_clean_sbu_0, # of connection points: 6
#     Node 10, Type 1, BuildingBlock: GEDQOX_clean_sbu_0, # of connection points: 6
#     Node 11, Type 1, BuildingBlock: GEDQOX_clean_sbu_0, # of connection points: 6
#     Edge 12, Type (0, 1), BuildingBlock: XUDNAN_clean_linker_2, # of connection points: 2
#     Edge 13, Type (0, 1), BuildingBlock: XUDNAN_clean_linker_2, # of connection points: 2
#     Edge 14, Type (0, 1), BuildingBlock: XUDNAN_clean_linker_2, # of connection points: 2
#     Edge 15, Type (0, 1), BuildingBlock: XUDNAN_clean_linker_2, # of connection points: 2
#     Edge 16, Type (0, 1), BuildingBlock: XUDNAN_clean_linker_2, # of connection points: 2
#     Edge 17, Type (0, 1), BuildingBlock: XUDNAN_clean_linker_2, # of connection points: 2
#     Edge 18, Type (0, 1), BuildingBlock: XUDNAN_clean_linker_2, # of connection points: 2
#     Edge 19, Type (0, 1), BuildingBlock: XUDNAN_clean_linker_2, # of connection points: 2
#     Edge 20, Type (0, 1), BuildingBlock: XUDNAN_clean_linker_2, # of connection points: 2
#     Edge 21, Type (0, 1), BuildingBlock: XUDNAN_clean_linker_2, # of connection points: 2
#     Edge 22, Type (0, 1), BuildingBlock: XUDNAN_clean_linker_2, # of connection points: 2
#     Edge 23, Type (0, 1), BuildingBlock: XUDNAN_clean_linker_2, # of connection points: 2
#     Edge 24, Type (0, 1), BuildingBlock: XUDNAN_clean_linker_2, # of connection points: 2
#     Edge 25, Type (0, 1), BuildingBlock: XUDNAN_clean_linker_2, # of connection points: 2
#     Edge 26, Type (0, 1), BuildingBlock: XUDNAN_clean_linker_2, # of connection points: 2
#     Edge 27, Type (0, 1), BuildingBlock: XUDNAN_clean_linker_2, # of connection points: 2
#     Edge 28, Type (0, 1), BuildingBlock: XUDNAN_clean_linker_2, # of connection points: 2
#     Edge 29, Type (0, 1), BuildingBlock: XUDNAN_clean_linker_2, # of connection points: 2
#     Edge 30, Type (0, 1), BuildingBlock: XUDNAN_clean_linker_2, # of connection points: 2
#     Edge 31, Type (0, 1), BuildingBlock: XUDNAN_clean_linker_2, # of connection points: 2
#     Edge 32, Type (0, 1), BuildingBlock: XUDNAN_clean_linker_2, # of connection points: 2
#     Edge 33, Type (0, 1), BuildingBlock: XUDNAN_clean_linker_2, # of connection points: 2
#     Edge 34, Type (0, 1), BuildingBlock: XUDNAN_clean_linker_2, # of connection points: 2
#     Edge 35, Type (0, 1), BuildingBlock: XUDNAN_clean_linker_2, # of connection points: 2
# Relax obj value: 0.102
# Max RMSD: 0.155
# Mean RMSD: 0.062
data_MOF--net-pyr--node1-GEDQOX_clean_sbu_0--node2-MIDCAF_clean_linker_0--edge1-XUDNAN_clean_linker_2
_symmetry_space_group_name_H-M    P1
_symmetry_Int_Tables_number       1
_symmetry_cell_setting            triclinic
loop_
_symmetry_equiv_pos_as_xyz
'x, y, z'
_cell_length_a     48.356108
_cell_length_b     48.474087
_cell_length_c     42.928509
_cell_angle_alpha  87.928587
_cell_angle_beta   92.141418
_cell_angle_gamma 87.506121
loop_
_atom_site_label
_atom_site_type_symbol
_atom_site_fract_x
_atom_site_fract_y
_atom_site_fract_z
_atom_type_partial_charge
C0 C 0.13885 0.15732 0.26601 0.0
C1 C 0.15096 0.13264 0.2802 0.0
C2 C 0.17647 0.12318 0.26827 0.0
C3 C 0.18879 0.13698 0.24304 0.0
H4 H 0.25935 0.13279 0.19075 0.0
H5 H 0.30236 0.11125 0.17384 0.0
H6 H 0.29883 0.16496 0.09158 0.0
H7 H 0.25526 0.18705 0.1088 0.0
H8 H 0.20953 0.24633 0.11398 0.0
H9 H 0.18891 0.28914 0.09041 0.0
H10 H 0.11927 0.28296 0.14983 0.0
H11 H 0.1406 0.24035 0.17419 0.0
H12 H 0.14084 0.18978 0.23031 0.0
H13 H 0.1193 0.16558 0.27396 0.0
H14 H 0.18726 0.10482 0.27849 0.0
H15 H 0.20818 0.12836 0.23504 0.0
N16 N 0.21369 0.16405 0.18861 0.0
N17 N 0.2142 0.19991 0.15005 0.0
N18 N 0.17844 0.19928 0.18624 0.0
C19 C 0.22622 0.17584 0.16353 0.0
C20 C 0.19029 0.21198 0.16118 0.0
C21 C 0.18984 0.17531 0.2003 0.0
C22 C 0.25313 0.16221 0.15161 0.0
C23 C 0.26738 0.14025 0.16895 0.0
C24 C 0.29247 0.1277 0.15911 0.0
C25 C 0.30484 0.13602 0.13109 0.0
C26 C 0.29032 0.1575 0.11312 0.0
C27 C 0.2652 0.17044 0.12326 0.0
C28 C 0.17705 0.23904 0.14623 0.0
C29 C 0.1898 0.25388 0.12218 0.0
C30 C 0.17758 0.27878 0.1083 0.0
C31 C 0.1517 0.29027 0.11739 0.0
C32 C 0.13911 0.27557 0.1418 0.0
C33 C 0.15145 0.25067 0.15582 0.0
C34 C 0.17644 0.16119 0.22824 0.0
C35 C 0.15127 0.17123 0.24057 0.0
C36 C 0.2617 0.81652 0.76374 0.0
C37 C 0.24848 0.80183 0.74027 0.0
C38 C 0.26165 0.77772 0.7298 0.0
C39 C 0.28818 0.76928 0.74123 0.0
H40 H 0.35235 0.70232 0.75401 0.0
H41 H 0.36938 0.66605 0.7212 0.0
H42 H 0.44019 0.71379 0.69994 0.0
H43 H 0.42344 0.74986 0.73418 0.0
H44 H 0.42524 0.81246 0.78375 0.0
H45 H 0.44677 0.84975 0.81211 0.0
H46 H 0.37996 0.85061 0.87585 0.0
H47 H 0.35795 0.8142 0.84709 0.0
H48 H 0.2985 0.82065 0.79216 0.0
H49 H 0.25205 0.83527 0.77214 0.0
H50 H 0.25175 0.76582 0.71201 0.0
H51 H 0.29801 0.75109 0.73176 0.0
N52 N 0.34537 0.75696 0.75813 0.0
N53 N 0.38802 0.76994 0.77972 0.0
N54 N 0.34677 0.79527 0.7895 0.0
C55 C 0.37317 0.75243 0.76222 0.0
C56 C 0.37465 0.79114 0.79393 0.0
C57 C 0.33199 0.77841 0.77137 0.0
C58 C 0.38645 0.72902 0.74639 0.0
C59 C 0.3718 0.70489 0.74272 0.0
C60 C 0.38146 0.6842 0.72366 0.0
C61 C 0.40579 0.68725 0.70719 0.0
C62 C 0.42137 0.71072 0.71226 0.0
C63 C 0.41183 0.73139 0.73186 0.0
C64 C 0.38993 0.81054 0.81321 0.0
C65 C 0.41547 0.8203 0.80414 0.0
C66 C 0.4277 0.84161 0.82022 0.0
C67 C 0.41495 0.85281 0.84609 0.0
C68 C 0.39018 0.84211 0.85607 0.0
C69 C 0.37762 0.8214 0.83957 0.0
C70 C 0.30227 0.78492 0.76325 0.0
C71 C 0.28839 0.80819 0.77507 0.0
C72 C 0.73391 0.28325 0.875 0.0
C73 C 0.72036 0.26686 0.85342 0.0
C74 C 0.71664 0.27649 0.82226 0.0
C75 C 0.7252 0.30257 0.81311 0.0
H76 H 0.68947 0.36921 0.76227 0.0
H77 H 0.65987 0.39346 0.72255 0.0
H78 H 0.7131 0.46279 0.72446 0.0
H79 H 0.74234 0.43882 0.76529 0.0
H80 H 0.7855 0.44114 0.82433 0.0
H81 H 0.81887 0.46573 0.85527 0.0
H82 H 0.83016 0.3952 0.91963 0.0
H83 H 0.79723 0.37026 0.88836 0.0
H84 H 0.75266 0.32171 0.88305 0.0
H85 H 0.73707 0.27619 0.89916 0.0
H86 H 0.706 0.26437 0.80523 0.0
H87 H 0.72129 0.30975 0.78909 0.0
N88 N 0.73051 0.3611 0.80107 0.0
N89 N 0.75408 0.40145 0.81004 0.0
N90 N 0.76317 0.36192 0.84268 0.0
C91 C 0.73509 0.38779 0.79306 0.0
C92 C 0.76826 0.3886 0.83487 0.0
C93 C 0.74446 0.34801 0.82572 0.0
C94 C 0.71828 0.40209 0.76719 0.0
C95 C 0.69507 0.38955 0.75416 0.0
C96 C 0.67811 0.40343 0.73111 0.0
C97 C 0.68401 0.43014 0.72021 0.0
C98 C 0.70764 0.44243 0.73265 0.0
C99 C 0.72452 0.42862 0.75597 0.0
C100 C 0.7886 0.40367 0.85376 0.0
C101 C 0.79504 0.43081 0.84506 0.0
C102 C 0.81407 0.44502 0.86296 0.0
C103 C 0.82708 0.4325 0.89006 0.0
C104 C 0.82071 0.40535 0.89874 0.0
C105 C 0.80171 0.3911 0.88082 0.0
C106 C 0.73799 0.3194 0.83486 0.0
C107 C 0.74289 0.30921 0.86574 0.0
C108 C 0.76462 0.78198 0.37754 0.0
C109 C 0.75875 0.75451 0.37118 0.0
C110 C 0.76499 0.74444 0.34185 0.0
C111 C 0.77688 0.76126 0.31952 0.0
H112 H 0.78178 0.77651 0.2222 0.0
H113 H 0.79175 0.74924 0.17717 0.0
H114 H 0.87048 0.78726 0.16966 0.0
H115 H 0.86036 0.81498 0.21455 0.0
H116 H 0.88304 0.84849 0.27782 0.0
H117 H 0.91457 0.87936 0.30288 0.0
H118 H 0.84746 0.91164 0.35694 0.0
H119 H 0.81669 0.87917 0.3334 0.0
H120 H 0.78159 0.81967 0.36102 0.0
H121 H 0.75967 0.79058 0.39969 0.0
H122 H 0.76136 0.72326 0.33627 0.0
H123 H 0.78183 0.75249 0.29745 0.0
N124 N 0.8004 0.7966 0.27365 0.0
N125 N 0.83209 0.83057 0.26293 0.0
N126 N 0.81298 0.82684 0.31242 0.0
C127 C 0.81691 0.8093 0.25327 0.0
C128 C 0.82977 0.83972 0.29237 0.0
C129 C 0.79838 0.80509 0.30323 0.0
C130 C 0.82056 0.79748 0.22234 0.0
C131 C 0.801 0.77951 0.21059 0.0
C132 C 0.80667 0.76386 0.1848 0.0
C133 C 0.83208 0.76575 0.17026 0.0
C134 C 0.85065 0.78544 0.18031 0.0
C135 C 0.84491 0.80125 0.20612 0.0
C136 C 0.84755 0.86137 0.30388 0.0
C137 C 0.87505 0.86247 0.2948 0.0
C138 C 0.89309 0.88032 0.30915 0.0
C139 C 0.88381 0.89794 0.33236 0.0
C140 C 0.85572 0.89785 0.33997 0.0
C141 C 0.83793 0.87947 0.32624 0.0
C142 C 0.78331 0.78849 0.32608 0.0
C143 C 0.77694 0.79875 0.35528 0.0
C144 C 0.76179 0.92631 0.88356 0.0
C145 C 0.74842 0.91655 0.91041 0.0
C146 C 0.76204 0.89377 0.92706 0.0
C147 C 0.78716 0.881 0.91674 0.0
H148 H 0.84832 0.81076 0.93438 0.0
H149 H 0.86864 0.76764 0.95759 0.0
H150 H 0.92518 0.76198 0.88243 0.0
H151 H 0.9054 0.80586 0.85991 0.0
H152 H 0.91299 0.85911 0.81609 0.0
H153 H 0.93671 0.87742 0.77171 0.0
H154 H 0.87212 0.94102 0.75573 0.0
H155 H 0.8483 0.92276 0.80142 0.0
H156 H 0.79565 0.92234 0.85261 0.0
H157 H 0.75277 0.94389 0.86993 0.0
H158 H 0.75284 0.88518 0.94765 0.0
H159 H 0.79631 0.86335 0.93016 0.0
N160 N 0.83838 0.85244 0.89107 0.0
N161 N 0.87406 0.85204 0.8551 0.0
N162 N 0.83981 0.88823 0.85223 0.0
C163 C 0.86198 0.83976 0.88009 0.0
C164 C 0.8635 0.87622 0.84085 0.0
C165 C 0.8269 0.87671 0.8774 0.0
C166 C 0.87473 0.81245 0.89483 0.0
C167 C 0.86507 0.80048 0.92262 0.0
C168 C 0.87685 0.77517 0.93596 0.0
C169 C 0.89878 0.76009 0.9221 0.0
C170 C 0.90867 0.77233 0.89446 0.0
C171 C 0.897 0.7978 0.88125 0.0
C172 C 0.87818 0.88893 0.81293 0.0
C173 C 0.90352 0.87701 0.8034 0.0
C174 C 0.91728 0.88763 0.77735 0.0
C175 C 0.90651 0.91075 0.75893 0.0
C176 C 0.88148 0.92331 0.76885 0.0
C177 C 0.8676 0.91261 0.79521 0.0
C178 C 0.80014 0.89057 0.88946 0.0
C179 C 0.78686 0.9138 0.87348 0.0
C180 C 0.65257 0.20679 0.19235 0.0
C181 C 0.62658 0.19752 0.20034 0.0
C182 C 0.613 0.20958 0.22521 0.0
C183 C 0.62575 0.22972 0.24267 0.0
H184 H 0.62185 0.31802 0.2845 0.0
H185 H 0.60506 0.35886 0.31166 0.0
H186 H 0.67584 0.34955 0.3761 0.0
H187 H 0.69258 0.3095 0.34935 0.0
H188 H 0.73185 0.25072 0.34613 0.0
H189 H 0.77751 0.23214 0.3626 0.0
H190 H 0.79939 0.22772 0.26587 0.0
H191 H 0.75237 0.24404 0.24974 0.0
H192 H 0.68631 0.23202 0.20463 0.0
H193 H 0.66352 0.19768 0.17342 0.0
H194 H 0.59294 0.20273 0.2318 0.0
H195 H 0.61537 0.23777 0.26257 0.0
N196 N 0.65619 0.27444 0.27447 0.0
N197 N 0.69779 0.27902 0.30338 0.0
N198 N 0.69569 0.24632 0.26475 0.0
C199 C 0.67098 0.2874 0.29688 0.0
C200 C 0.71027 0.25872 0.28743 0.0
C201 C 0.6686 0.25387 0.25827 0.0
C202 C 0.65878 0.31061 0.31438 0.0
C203 C 0.63366 0.32461 0.30461 0.0
C204 C 0.62404 0.34798 0.32016 0.0
C205 C 0.63942 0.35777 0.34566 0.0
C206 C 0.66387 0.34307 0.35604 0.0
C207 C 0.6734 0.3199 0.34067 0.0
C208 C 0.73869 0.24876 0.29671 0.0
C209 C 0.74652 0.24579 0.32845 0.0
C210 C 0.77296 0.23539 0.33784 0.0
C211 C 0.79269 0.22854 0.3157 0.0
C212 C 0.78484 0.23216 0.28376 0.0
C213 C 0.75796 0.24172 0.2744 0.0
C214 C 0.6526 0.23754 0.23603 0.0
C215 C 0.66559 0.22637 0.21025 0.0
C216 C 0.25498 0.59469 0.14554 0.0
C217 C 0.24698 0.59971 0.11392 0.0
C218 C 0.26702 0.60813 0.0931 0.0
C219 C 0.29414 0.61213 0.10369 0.0
H220 H 0.35667 0.66654 0.08747 0.0
H221 H 0.38274 0.70196 0.06183 0.0
H222 H 0.45513 0.6768 0.11974 0.0
H223 H 0.42876 0.64196 0.14618 0.0
H224 H 0.41972 0.59874 0.20698 0.0
H225 H 0.43667 0.59008 0.26093 0.0
H226 H 0.35261 0.59343 0.29143 0.0
H227 H 0.33547 0.60159 0.23732 0.0
H228 H 0.28758 0.59484 0.1807 0.0
H229 H 0.24005 0.58846 0.16229 0.0
H230 H 0.26181 0.61158 0.06847 0.0
H231 H 0.3089 0.6188 0.08693 0.0
N232 N 0.34737 0.62761 0.12811 0.0
N233 N 0.38277 0.62375 0.16695 0.0
N234 N 0.34014 0.60399 0.1756 0.0
C235 C 0.37344 0.63316 0.13813 0.0
C236 C 0.3663 0.60917 0.1858 0.0
C237 C 0.33066 0.61285 0.14655 0.0
C238 C 0.39047 0.65166 0.11926 0.0
C239 C 0.37827 0.66824 0.09445 0.0
C240 C 0.39331 0.68851 0.07957 0.0
C241 C 0.42098 0.69251 0.08894 0.0
C242 C 0.43367 0.67472 0.11241 0.0
C243 C 0.41856 0.65464 0.12749 0.0
C244 C 0.37627 0.60096 0.21794 0.0
C245 C 0.40482 0.59724 0.22513 0.0
C246 C 0.41453 0.59214 0.25594 0.0
C247 C 0.39592 0.59118 0.28023 0.0
C248 C 0.36735 0.59417 0.27305 0.0
C249 C 0.35758 0.5987 0.24211 0.0
C250 C 0.30206 0.60754 0.13536 0.0
C251 C 0.28224 0.59848 0.15612 0.0
C252 C 0.18986 0.17066 0.68071 0.0
C253 C 0.17072 0.15476 0.69641 0.0
C254 C 0.16946 0.15626 0.72895 0.0
C255 C 0.18596 0.17424 0.74524 0.0
H256 H 0.18294 0.21794 0.82604 0.0
H257 H 0.16147 0.23924 0.87033 0.0
H258 H 0.22178 0.3026 0.86801 0.0
H259 H 0.24385 0.28064 0.82568 0.0
H260 H 0.25154 0.30505 0.75684 0.0
H261 H 0.27936 0.33862 0.73129 0.0
H262 H 0.31006 0.27616 0.6703 0.0
H263 H 0.2808 0.24241 0.69539 0.0
H264 H 0.22022 0.20131 0.68399 0.0
H265 H 0.19123 0.17008 0.65561 0.0
H266 H 0.15534 0.14384 0.74181 0.0
H267 H 0.18385 0.17532 0.7702 0.0
N268 N 0.21263 0.21814 0.77608 0.0
N269 N 0.24127 0.2557 0.77512 0.0
N270 N 0.23637 0.22937 0.73077 0.0
C271 C 0.224 0.23948 0.79082 0.0
C272 C 0.24763 0.25089 0.7453 0.0
C273 C 0.21888 0.21278 0.74613 0.0
C274 C 0.21465 0.248 0.82168 0.0
C275 C 0.19206 0.23593 0.83569 0.0
C276 C 0.17963 0.24829 0.86097 0.0
C277 C 0.18937 0.27309 0.87248 0.0
C278 C 0.21358 0.28349 0.86025 0.0
C279 C 0.22616 0.27099 0.83541 0.0
C280 C 0.26433 0.27094 0.72844 0.0
C281 C 0.26424 0.29834 0.73803 0.0
C282 C 0.28035 0.31763 0.72343 0.0
C283 C 0.29747 0.31 0.69918 0.0
C284 C 0.29706 0.28274 0.68889 0.0
C285 C 0.28045 0.26338 0.7033 0.0
C286 C 0.20415 0.19118 0.72939 0.0
C287 C 0.20641 0.18866 0.69702 0.0
Nd288 Nd 0.04989 0.99568 0.51861 0.0
Nd289 Nd 1.01083 0.04252 0.5197 0.0
C290 C 0.0755 0.94631 0.52116 0.0
C291 C 0.08581 0.92798 0.54736 0.0
C292 C 0.09607 0.90118 0.54213 0.0
C293 C 0.10748 0.88443 0.567 0.0
C294 C 0.10893 0.89435 0.59745 0.0
C295 C 0.09779 0.92103 0.60257 0.0
C296 C 0.08626 0.93764 0.57776 0.0
C297 C 0.06835 0.03688 0.55547 0.0
C298 C 1.00168 0.99435 0.57275 0.0
C299 C 0.98508 0.09175 0.51669 0.0
C300 C 0.97247 0.10807 0.48989 0.0
C301 C 0.96955 0.13692 0.49049 0.0
C302 C 0.95661 0.15208 0.46517 0.0
C303 C 0.9462 0.13854 0.43897 0.0
C304 C 0.94984 0.1096 0.4384 0.0
C305 C 0.96304 0.0946 0.46342 0.0
C306 C 0.99244 1.0017 0.48227 0.0
C307 C 0.05781 0.04163 0.46328 0.0
O308 O 0.04858 0.94999 0.51805 0.0
O309 O 0.08835 0.96935 0.51789 0.0
O310 O 0.08403 0.02307 0.53725 0.0
O311 O 0.0442 0.02829 0.55472 0.0
O312 O 1.0183 0.98009 0.5547 0.0
O313 O 0.99783 0.02136 0.5669 0.0
O314 O 1.01207 0.08838 0.51734 0.0
O315 O 0.97285 0.06895 0.52369 0.0
O316 O 0.97678 1.01528 0.50069 0.0
O317 O 1.0166 1.01025 0.48334 0.0
O318 O 0.04169 0.05744 0.48062 0.0
O319 O 0.06099 1.01497 0.47098 0.0
H320 H 0.09568 0.89338 0.51879 0.0
H321 H 0.11546 0.86384 0.5623 0.0
H322 H 0.09887 0.92954 0.62554 0.0
H323 H 0.07831 0.95834 0.58216 0.0
H324 H 0.97703 0.14768 0.5106 0.0
H325 H 0.9546 0.17435 0.46626 0.0
H326 H 0.94171 0.09827 0.41908 0.0
H327 H 0.96534 0.07231 0.46235 0.0
Nd328 Nd 0.52476 1.00357 0.04307 0.0
Nd329 Nd 0.52483 0.04141 1.00118 0.0
C330 C 0.52281 0.95657 0.07661 0.0
C331 C 0.51623 0.92772 0.07162 0.0
C332 C 0.52165 0.91498 0.04347 0.0
C333 C 0.51397 0.88784 0.03901 0.0
C334 C 0.50055 0.87314 0.06249 0.0
C335 C 0.49514 0.88619 0.09053 0.0
C336 C 0.50299 0.91314 0.09505 0.0
C337 C 0.48359 0.04401 0.05771 0.0
C338 C 0.48962 0.99356 0.98075 0.0
C339 C 0.52648 0.0872 0.96572 0.0
C340 C 0.54927 0.1017 0.95187 0.0
C341 C 0.54616 0.13002 0.94434 0.0
C342 C 0.56823 0.14414 0.93233 0.0
C343 C 0.59371 0.13006 0.92762 0.0
C344 C 0.59668 0.1016 0.93513 0.0
C345 C 0.57468 0.08756 0.94733 0.0
C346 C 0.56746 1.00249 0.98653 0.0
C347 C 0.55867 0.05246 0.06635 0.0
O348 O 0.54542 0.9654 0.06487 0.0
O349 O 0.50212 0.97456 0.07283 0.0
O350 O 0.50368 0.03391 0.07608 0.0
O351 O 0.48679 0.0345 0.03061 0.0
O352 O 0.50777 0.98133 1.00056 0.0
O353 O 0.48744 0.02054 0.98017 0.0
O354 O 0.52607 0.0871 0.99603 0.0
O355 O 0.52164 0.0631 0.95476 0.0
O356 O 0.54781 1.01292 0.96801 0.0
O357 O 0.56331 1.01128 1.01381 0.0
O358 O 0.54607 0.06418 0.04138 0.0
O359 O 0.55646 0.02598 0.07179 0.0
H360 H 0.53163 0.92603 0.02493 0.0
H361 H 0.51871 0.8783 0.01731 0.0
H362 H 0.48429 0.87579 0.10885 0.0
H363 H 0.49833 0.92278 0.11674 0.0
H364 H 0.52673 0.14123 0.94791 0.0
H365 H 0.56529 0.16602 0.92645 0.0
H366 H 0.61616 0.09032 0.93209 0.0
H367 H 0.57756 0.06571 0.95345 0.0
Nd368 Nd 0.50164 0.50731 0.51524 0.0
Nd369 Nd 0.54437 0.54981 0.52273 0.0
C370 C 0.45705 0.47801 0.50888 0.0
C371 C 0.44009 0.46368 0.53133 0.0
C372 C 0.4138 0.45506 0.52236 0.0
C373 C 0.39794 0.44104 0.54391 0.0
C374 C 0.40826 0.43544 0.57471 0.0
C375 C 0.4347 0.44424 0.58343 0.0
C376 C 0.45037 0.45836 0.56201 0.0
C377 C 0.54121 0.49512 0.56233 0.0
C378 C 0.49005 0.55884 0.5611 0.0
C379 C 0.58934 0.57737 0.53439 0.0
C380 C 0.61131 0.59154 0.51844 0.0
C381 C 0.63808 0.59072 0.53218 0.0
C382 C 0.65859 0.6064 0.51914 0.0
C383 C 0.65256 0.62333 0.49222 0.0
C384 C 0.62585 0.62333 0.47798 0.0
C385 C 0.60546 0.60747 0.49088 0.0
C386 C 0.50452 0.56361 0.47678 0.0
C387 C 0.55453 0.49939 0.47421 0.0
O388 O 0.45597 0.50498 0.50958 0.0
O389 O 0.48229 0.46763 0.50694 0.0
O390 O 0.53116 0.47655 0.5448 0.0
O391 O 0.52926 0.51813 0.55598 0.0
O392 O 0.4787 0.54226 0.54096 0.0
O393 O 0.51712 0.56077 0.56314 0.0
O394 O 0.58969 0.55041 0.53358 0.0
O395 O 0.56441 0.58893 0.53116 0.0
O396 O 0.5155 0.58147 0.49466 0.0
O397 O 0.51594 0.54 0.48176 0.0
O398 O 0.56636 0.51647 0.49352 0.0
O399 O 0.52758 0.49642 0.47391 0.0
H400 H 0.40557 0.45915 0.49875 0.0
H401 H 0.37754 0.43484 0.53655 0.0
H402 H 0.44354 0.43986 0.60673 0.0
H403 H 0.47068 0.46492 0.56931 0.0
H404 H 0.64295 0.57844 0.55343 0.0
H405 H 0.67905 0.60555 0.53038 0.0
H406 H 0.62031 0.63637 0.45749 0.0
H407 H 0.5849 0.60835 0.47984 0.0
Nd408 Nd 1.00901 0.52173 0.04706 0.0
Nd409 Nd 0.04369 0.5297 0.99227 0.0
C410 C 0.96645 0.5252 0.08322 0.0
C411 C 0.94992 0.55062 0.0887 0.0
C412 C 0.92117 0.55019 0.0917 0.0
C413 C 0.90534 0.57503 0.09285 0.0
C414 C 0.91807 0.60058 0.09065 0.0
C415 C 0.94691 0.60078 0.08805 0.0
C416 C 0.96262 0.57611 0.08701 0.0
C417 C 0.05779 0.54656 0.05967 0.0
C418 C 0.9983 0.5797 0.99955 0.0
C419 C 0.08648 0.52758 0.95632 0.0
C420 C 0.10269 0.50255 0.94771 0.0
C421 C 0.09678 0.49073 0.91896 0.0
C422 C 0.10508 0.46336 0.9141 0.0
C423 C 0.1198 0.44739 0.93772 0.0
C424 C 0.12857 0.46015 0.96498 0.0
C425 C 0.11994 0.48747 0.97005 0.0
C426 C 0.99423 0.50771 0.97808 0.0
C427 C 0.05254 0.47032 0.03845 0.0
O428 O 0.96432 0.5167 0.0547 0.0
O429 O 0.9921 0.52451 0.09418 0.0
O430 O 0.04811 0.52776 0.07802 0.0
O431 O 0.04161 0.55212 0.03646 0.0
O432 O 0.98892 0.56182 0.02054 0.0
O433 O 1.02238 0.57395 0.98683 0.0
O434 O 0.08857 0.53425 0.98562 0.0
O435 O 0.06086 0.52953 0.94519 0.0
O436 O 1.00534 0.52618 0.96054 0.0
O437 O 1.00961 0.50037 1.00167 0.0
O438 O 0.06146 0.48722 0.01607 0.0
O439 O 0.03005 0.47766 0.0534 0.0
H440 H 0.91095 0.53075 0.09241 0.0
H441 H 0.88311 0.57427 0.09476 0.0
H442 H 0.95744 0.62004 0.08688 0.0
H443 H 0.98474 0.57704 0.08414 0.0
H444 H 0.08391 0.50194 0.90111 0.0
H445 H 0.09882 0.45426 0.89241 0.0
H446 H 0.14017 0.44838 0.98342 0.0
H447 H 0.12513 0.49599 0.99239 0.0
H448 H 0.11807 0.14967 0.33103 0.0
H449 H 0.15103 0.07611 0.28801 0.0
H450 H 0.13124 0.04718 0.32873 0.0
H451 H 0.12904 0.12385 0.41172 0.0
H452 H 0.09722 0.13894 0.4254 0.0
H453 H 0.11364 0.15489 0.39276 0.0
H454 H 0.06852 0.15224 0.35906 0.0
H455 H 0.05195 0.1363 0.39162 0.0
H456 H 0.05292 0.11939 0.35494 0.0
H457 H 0.10877 0.02498 0.37425 0.0
H458 H 0.08474 1.0109 0.42099 0.0
H459 H 0.06359 0.09692 0.43801 0.0
C460 C 0.12104 0.12747 0.33001 0.0
C461 C 0.13698 0.11564 0.3058 0.0
C462 C 0.13993 0.0863 0.3061 0.0
C463 C 0.12842 0.06943 0.32926 0.0
C464 C 0.11345 0.08161 0.35274 0.0
C465 C 0.10952 0.10996 0.35341 0.0
C466 C 0.09241 0.11723 0.38183 0.0
C467 C 0.10907 0.13478 0.40425 0.0
C468 C 0.06481 0.13219 0.37123 0.0
C469 C 0.08753 0.0886 0.39688 0.0
C470 C 0.09999 0.06853 0.37937 0.0
C471 C 0.09894 0.0406 0.38802 0.0
C472 C 0.08507 0.03277 0.41502 0.0
C473 C 0.07188 0.05244 0.43404 0.0
C474 C 0.07318 0.08103 0.42441 0.0
H475 H 0.43846 0.85545 0.90493 0.0
H476 H 0.41543 0.90496 0.8212 0.0
H477 H 0.43 0.94701 0.84737 0.0
H478 H 0.41791 0.90441 0.96105 0.0
H479 H 0.44718 0.8966 0.98764 0.0
H480 H 0.43465 0.87038 0.96272 0.0
H481 H 0.4833 0.8633 0.94079 0.0
H482 H 0.49626 0.88951 0.96541 0.0
H483 H 0.50014 0.89243 0.92388 0.0
H484 H 0.44513 0.98383 0.88355 0.0
H485 H 0.46531 1.01207 0.92479 0.0
H486 H 0.48128 0.93809 0.98382 0.0
C487 C 0.43671 0.87518 0.89218 0.0
C488 C 0.42592 0.87721 0.86114 0.0
C489 C 0.42387 0.90318 0.84496 0.0
C490 C 0.4319 0.9271 0.85968 0.0
C491 C 0.44225 0.92456 0.89046 0.0
C492 C 0.44514 0.89919 0.90636 0.0
C493 C 0.458 0.902 0.93878 0.0
C494 C 0.43824 0.8928 0.96403 0.0
C495 C 0.48609 0.88585 0.94241 0.0
C496 C 0.46156 0.93291 0.93873 0.0
C497 C 0.45205 0.94559 0.9108 0.0
C498 C 0.4528 0.97411 0.90546 0.0
C499 C 0.46413 0.99 0.92907 0.0
C500 C 0.47487 0.97728 0.95743 0.0
C501 C 0.47328 0.94839 0.96232 0.0
H502 H 0.6555 0.40951 0.66991 0.0
H503 H 0.6685 0.48533 0.71833 0.0
H504 H 0.63486 0.51026 0.68178 0.0
H505 H 0.64566 0.44047 0.59169 0.0
H506 H 0.61886 0.41763 0.58058 0.0
H507 H 0.64554 0.40607 0.60911 0.0
H508 H 0.60805 0.39419 0.64842 0.0
H509 H 0.58127 0.40578 0.62008 0.0
H510 H 0.58263 0.42054 0.65802 0.0
H511 H 0.5985 0.5266 0.64174 0.0
H512 H 0.56168 0.53339 0.60055 0.0
H513 H 0.57065 0.4467 0.57918 0.0
C514 C 0.65133 0.43136 0.67289 0.0
C515 C 0.66487 0.44544 0.697 0.0
C516 C 0.65891 0.47413 0.69975 0.0
C517 C 0.63965 0.48846 0.67922 0.0
C518 C 0.62645 0.47384 0.65608 0.0
C519 C 0.63202 0.44595 0.65275 0.0
C520 C 0.61418 0.43494 0.6266 0.0
C521 C 0.63214 0.42415 0.60044 0.0
C522 C 0.59542 0.41254 0.63904 0.0
C523 C 0.59747 0.46097 0.61599 0.0
C524 C 0.60504 0.48319 0.63322 0.0
C525 C 0.59243 0.50939 0.62805 0.0
C526 C 0.5715 0.51301 0.60466 0.0
C527 C 0.5633 0.49053 0.58682 0.0
C528 C 0.57651 0.4642 0.59254 0.0
H529 H 0.82626 0.71035 0.17617 0.0
H530 H 0.85904 0.77339 0.11543 0.0
H531 H 0.87924 0.73692 0.08312 0.0
H532 H 0.88322 0.66702 0.1791 0.0
H533 H 0.86524 0.63522 0.17976 0.0
H534 H 0.849 0.66594 0.19427 0.0
H535 H 0.8068 0.66135 0.15607 0.0
H536 H 0.82287 0.63037 0.14151 0.0
H537 H 0.81215 0.65879 0.11492 0.0
H538 H 0.90111 0.69387 0.06229 0.0
H539 H 0.9237 0.64806 0.05522 0.0
H540 H 0.87663 0.61338 0.13003 0.0
C541 C 0.8367 0.71656 0.15534 0.0
C542 C 0.84075 0.74469 0.14799 0.0
C543 C 0.85561 0.75194 0.12133 0.0
C544 C 0.86697 0.73138 0.10278 0.0
C545 C 0.86316 0.70377 0.1112 0.0
C546 C 0.84823 0.69637 0.13678 0.0
C547 C 0.84985 0.66542 0.14318 0.0
C548 C 0.8626 0.65799 0.176 0.0
C549 C 0.82121 0.65327 0.13864 0.0
C550 C 0.869 0.65659 0.118 0.0
C551 C 0.87605 0.67892 0.09942 0.0
C552 C 0.89534 0.67619 0.07633 0.0
C553 C 0.90816 0.6501 0.07259 0.0
C554 C 0.90176 0.6271 0.09194 0.0
C555 C 0.88144 0.63039 0.1144 0.0
H556 H 0.32599 0.11747 0.07311 0.0
H557 H 0.35013 0.12596 0.17056 0.0
H558 H 0.39612 0.10503 0.16119 0.0
H559 H 0.36299 0.05052 0.06503 0.0
H560 H 0.37395 0.05771 0.026 0.0
H561 H 0.34263 0.07427 0.03922 0.0
H562 H 0.36127 0.12207 0.02525 0.0
H563 H 0.39265 0.10565 1.01199 0.0
H564 H 0.39444 0.13115 0.04145 0.0
H565 H 0.44019 0.08322 0.14255 0.0
H566 H 0.47881 0.06061 0.1167 0.0
H567 H 0.42981 0.06272 0.02972 0.0
C568 C 0.34101 0.11511 0.09246 0.0
C569 C 0.3336 0.12363 0.12296 0.0
C570 C 0.35438 0.11962 0.14722 0.0
C571 C 0.38093 0.10773 0.14204 0.0
C572 C 0.38736 0.09936 0.11224 0.0
C573 C 0.36806 0.1027 0.08771 0.0
C574 C 0.38083 0.09095 0.05821 0.0
C575 C 0.3641 0.06693 0.04641 0.0
C576 C 0.38238 0.11382 0.0327 0.0
C577 C 0.41015 0.08059 0.07006 0.0
C578 C 0.41314 0.086 0.10139 0.0
C579 C 0.43788 0.07887 0.11807 0.0
C580 C 0.45999 0.06583 0.1029 0.0
C581 C 0.45816 0.05932 0.07084 0.0
C582 C 0.43247 0.06712 0.05415 0.0
H583 H 0.23733 0.80797 0.6778 0.0
H584 H 0.20141 0.82211 0.7672 0.0
H585 H 0.15938 0.84386 0.74005 0.0
H586 H 0.21497 0.87138 0.64255 0.0
H587 H 0.20862 0.85809 0.60439 0.0
H588 H 0.23416 0.84102 0.6308 0.0
H589 H 0.20917 0.79503 0.62585 0.0
H590 H 0.1835 0.812 0.59937 0.0
H591 H 0.17294 0.79397 0.6341 0.0
H592 H 0.12251 0.86638 0.70276 0.0
H593 H 0.09499 0.88974 0.65904 0.0
H594 H 0.15671 0.86212 0.59474 0.0
C595 C 0.22032 0.81499 0.69166 0.0
C596 C 0.22237 0.81303 0.72455 0.0
C597 C 0.20012 0.82334 0.74194 0.0
C598 C 0.17617 0.83556 0.72673 0.0
C599 C 0.17495 0.83738 0.69418 0.0
C600 C 0.1965 0.82742 0.6769 0.0
C601 C 0.19119 0.83382 0.6424 0.0
C602 C 0.21356 0.85217 0.62929 0.0
C603 C 0.18907 0.80711 0.62438 0.0
C604 C 0.16345 0.84937 0.64292 0.0
C605 C 0.15421 0.85092 0.67291 0.0
C606 C 0.12952 0.86519 0.67918 0.0
C607 C 0.11413 0.87854 0.65421 0.0
C608 C 0.12364 0.87781 0.62337 0.0
C609 C 0.14848 0.86265 0.61783 0.0
H610 H 0.87665 0.41242 0.91744 0.0
H611 H 0.8238 0.48702 0.90486 0.0
H612 H 0.85925 0.51323 0.93219 0.0
H613 H 0.90636 0.42856 0.996 0.0
H614 H 0.94001 0.41381 0.98759 0.0
H615 H 0.90923 0.40017 0.97014 0.0
H616 H 0.92854 0.4083 0.91523 0.0
H617 H 0.95928 0.42196 0.93246 0.0
H618 H 0.93871 0.44236 0.90346 0.0
H619 H 0.90219 0.53242 0.95409 0.0
H620 H 0.94992 0.54319 0.97044 0.0
H621 H 0.97437 0.45609 0.97241 0.0
C622 C 0.87219 0.4341 0.92118 0.0
C623 C 0.84744 0.44767 0.90889 0.0
C624 C 0.84274 0.47624 0.91365 0.0
C625 C 0.86263 0.49126 0.92944 0.0
C626 C 0.88698 0.47736 0.94072 0.0
C627 C 0.89178 0.44938 0.93709 0.0
C628 C 0.92053 0.43989 0.94951 0.0
C629 C 0.91893 0.41939 0.97748 0.0
C630 C 0.93777 0.4274 0.92362 0.0
C631 C 0.93153 0.46711 0.95958 0.0
C632 C 0.91168 0.48841 0.95452 0.0
C633 C 0.91768 0.51588 0.95891 0.0
C634 C 0.94477 0.5218 0.96813 0.0
C635 C 0.96536 0.50036 0.97322 0.0
C636 C 0.9586 0.47265 0.96959 0.0
H637 H 0.72046 0.71525 0.3614 0.0
H638 H 0.76916 0.75206 0.4348 0.0
H639 H 0.74878 0.72112 0.47383 0.0
H640 H 0.65993 0.70587 0.40271 0.0
H641 H 0.65298 0.67298 0.38651 0.0
H642 H 0.6716 0.69791 0.36452 0.0
H643 H 0.71214 0.66173 0.35947 0.0
H644 H 0.69363 0.63666 0.38147 0.0
H645 H 0.72813 0.64495 0.39417 0.0
H646 H 0.72166 0.68709 0.50491 0.0
H647 H 0.68972 0.65319 0.52553 0.0
H648 H 0.66213 0.63641 0.43092 0.0
C649 C 0.72725 0.71663 0.38558 0.0
C650 C 0.74644 0.73619 0.39494 0.0
C651 C 0.75416 0.7376 0.42703 0.0
C652 C 0.74292 0.71991 0.44935 0.0
C653 C 0.72425 0.70075 0.43918 0.0
C654 C 0.7166 0.69894 0.40803 0.0
C655 C 0.69601 0.67677 0.40307 0.0
C656 C 0.66851 0.68913 0.38834 0.0
C657 C 0.70822 0.65366 0.38338 0.0
C658 C 0.69276 0.66678 0.43641 0.0
C659 C 0.70929 0.68073 0.45691 0.0
C660 C 0.70889 0.67578 0.48905 0.0
C661 C 0.6908 0.65632 0.50051 0.0
C662 C 0.67342 0.64202 0.47986 0.0
C663 C 0.6749 0.64711 0.44738 0.0
H664 H 0.1141 0.33185 0.13952 0.0
H665 H 0.15691 0.30956 0.05621 0.0
H666 H 0.13692 0.35149 0.02888 0.0
H667 H 0.05061 0.35984 0.0981 0.0
H668 H 0.04492 0.38756 0.12432 0.0
H669 H 0.06283 0.35585 0.13827 0.0
H670 H 0.10437 0.38337 0.15737 0.0
H671 H 0.08659 0.41515 0.14346 0.0
H672 H 0.12067 0.40621 0.13029 0.0
H673 H 0.11239 0.39702 1.00921 0.0
H674 H 0.08502 0.44083 0.99952 0.0
H675 H 0.0558 0.43547 0.09364 0.0
C676 C 0.11929 0.33552 0.11548 0.0
C677 C 0.13802 0.31664 0.10078 0.0
C678 C 0.14368 0.32323 0.06907 0.0
C679 C 0.13207 0.34723 0.05294 0.0
C680 C 0.11419 0.36525 0.06814 0.0
C681 C 0.10765 0.35968 0.09872 0.0
C682 C 0.08757 0.38268 0.10932 0.0
C683 C 0.05984 0.37077 0.11803 0.0
C684 C 0.10058 0.39774 0.13675 0.0
C685 C 0.08392 0.40195 0.08005 0.0
C686 C 0.09964 0.39137 0.05664 0.0
C687 C 0.10014 0.40535 0.02757 0.0
C688 C 0.08454 0.43058 0.02227 0.0
C689 C 0.06816 0.44239 0.04559 0.0
C690 C 0.06783 0.42738 0.07498 0.0
H691 H 0.68711 0.25935 0.9025 0.0
H692 H 0.7243 0.21658 0.82645 0.0
H693 H 0.69858 0.17503 0.84003 0.0
H694 H 0.68417 0.19864 0.95731 0.0
H695 H 0.65109 0.21035 0.97111 0.0
H696 H 0.67528 0.23511 0.95798 0.0
H697 H 0.63773 0.25682 0.91875 0.0
H698 H 0.61355 0.232 0.93146 0.0
H699 H 0.62135 0.23526 0.8908 0.0
H700 H 0.66587 0.13982 0.85917 0.0
H701 H 0.62811 0.11381 0.88182 0.0
H702 H 0.61185 0.18022 0.94466 0.0
C703 C 0.69047 0.24093 0.88934 0.0
C704 C 0.70789 0.24092 0.8637 0.0
C705 C 0.7111 0.21683 0.84628 0.0
C706 C 0.69667 0.19318 0.85389 0.0
C707 C 0.67913 0.19408 0.8789 0.0
C708 C 0.67605 0.21731 0.89643 0.0
C709 C 0.65417 0.21387 0.92038 0.0
C710 C 0.66695 0.21452 0.95367 0.0
C711 C 0.6303 0.23578 0.915 0.0
C712 C 0.64493 0.18533 0.9131 0.0
C713 C 0.65983 0.17408 0.88943 0.0
C714 C 0.65429 0.14828 0.87797 0.0
C715 C 0.63286 0.13366 0.89099 0.0
C716 C 0.6171 0.14504 0.91494 0.0
C717 C 0.62345 0.17111 0.92622 0.0
H718 H 0.88265 0.91217 0.39394 0.0
H719 H 0.93006 0.92286 0.31057 0.0
H720 H 0.96417 0.94854 0.34062 0.0
H721 H 0.89223 0.9812 0.42056 0.0
H722 H 0.89374 0.97014 0.46116 0.0
H723 H 0.87377 0.95156 0.43328 0.0
H724 H 0.90133 0.90623 0.45082 0.0
H725 H 0.92161 0.92473 0.47849 0.0
H726 H 0.93859 0.90474 0.44957 0.0
H727 H 0.99414 0.97156 0.38045 0.0
H728 H 1.01472 0.99498 0.42543 0.0
H729 H 0.94508 0.97327 0.48075 0.0
C730 C 0.89983 0.92026 0.38161 0.0
C731 C 0.90358 0.91513 0.34975 0.0
C732 C 0.92688 0.92581 0.33507 0.0
C733 C 0.94635 0.94061 0.3519 0.0
C734 C 0.94204 0.94498 0.38327 0.0
C735 C 0.9191 0.93554 0.39781 0.0
C736 C 0.91867 0.9439 0.43143 0.0
C737 C 0.89309 0.96283 0.43692 0.0
C738 C 0.92014 0.91838 0.45389 0.0
C739 C 0.94505 0.95947 0.43358 0.0
C740 C 0.95846 0.95951 0.40569 0.0
C741 C 0.9837 0.97189 0.40231 0.0
C742 C 0.99528 0.98499 0.42798 0.0
C743 C 0.98131 0.98598 0.45635 0.0
C744 C 0.956 0.97294 0.45918 0.0
H745 H 0.45818 0.66689 0.69324 0.0
H746 H 0.37103 0.66173 0.66672 0.0
H747 H 0.38299 0.62736 0.62811 0.0
H748 H 0.4828 0.66231 0.61514 0.0
H749 H 0.51374 0.64201 0.62711 0.0
H750 H 0.49834 0.66568 0.65357 0.0
H751 H 0.49543 0.6257 0.6949 0.0
H752 H 0.51071 0.60189 0.6685 0.0
H753 H 0.47776 0.59509 0.68478 0.0
H754 H 0.40408 0.59351 0.59219 0.0
H755 H 0.43334 0.56392 0.55988 0.0
H756 H 0.50688 0.592 0.60815 0.0
C757 C 0.44161 0.65864 0.67924 0.0
C758 C 0.41359 0.66679 0.68353 0.0
C759 C 0.3926 0.65536 0.66463 0.0
C760 C 0.39917 0.63592 0.6424 0.0
C761 C 0.42689 0.62816 0.63902 0.0
C762 C 0.44782 0.63925 0.65674 0.0
C763 C 0.47598 0.6277 0.6479 0.0
C764 C 0.49375 0.6508 0.63517 0.0
C765 C 0.49084 0.61164 0.67568 0.0
C766 C 0.46754 0.60849 0.62246 0.0
C767 C 0.43911 0.60897 0.61782 0.0
C768 C 0.42639 0.59296 0.59557 0.0
C769 C 0.44318 0.57617 0.57737 0.0
C770 C 0.47241 0.5756 0.58142 0.0
C771 C 0.48461 0.59194 0.60443 0.0
H772 H 0.91237 0.96468 0.73049 0.0
H773 H 0.93348 0.87791 0.71775 0.0
H774 H 0.95889 0.89036 0.67136 0.0
H775 H 0.90293 0.98362 0.64647 0.0
H776 H 0.91793 1.01686 0.64942 0.0
H777 H 0.901 1.00184 0.68225 0.0
H778 H 0.94537 1.00627 0.71679 0.0
H779 H 0.96244 0.02125 0.68404 0.0
H780 H 0.97773 0.991 0.70475 0.0
H781 H 0.98336 0.91117 0.62632 0.0
H782 H 1.00391 0.93869 0.58494 0.0
H783 H 0.96792 1.0137 0.62211 0.0
C784 C 0.92218 0.94823 0.7179 0.0
C785 C 0.92093 0.91999 0.72905 0.0
C786 C 0.93435 0.8996 0.71113 0.0
C787 C 0.94885 0.90649 0.68423 0.0
C788 C 0.9501 0.93416 0.67439 0.0
C789 C 0.93703 0.95484 0.69045 0.0
C790 C 0.94195 0.98297 0.67414 0.0
C791 C 0.9143 0.99717 0.66238 0.0
C792 C 0.95781 1.00147 0.69625 0.0
C793 C 0.95976 0.97476 0.64664 0.0
C794 C 0.96408 0.94636 0.64758 0.0
C795 C 0.97996 0.9334 0.6254 0.0
C796 C 0.9917 0.94948 0.60171 0.0
C797 C 0.98789 0.97877 0.59941 0.0
C798 C 0.97144 0.99149 0.6226 0.0
H799 H 0.61545 0.19073 0.13774 0.0
H800 H 0.61301 0.14935 0.22876 0.0
H801 H 0.59777 0.10702 0.20401 0.0
H802 H 0.55353 0.16053 0.10569 0.0
H803 H 0.5667 0.15793 0.06713 0.0
H804 H 0.57809 0.18469 0.09199 0.0
H805 H 0.62908 0.16789 0.08554 0.0
H806 H 0.6178 0.14089 0.06092 0.0
H807 H 0.63949 0.13236 0.09528 0.0
H808 H 0.58494 0.06868 0.16944 0.0
H809 H 0.569 0.03856 0.12795 0.0
H810 H 0.57644 0.10546 0.0592 0.0
C811 C 0.61155 0.17274 0.15235 0.0
C812 C 0.61534 0.17319 0.18514 0.0
C813 C 0.60996 0.14941 0.20363 0.0
C814 C 0.60152 0.12525 0.18977 0.0
C815 C 0.59821 0.12533 0.15738 0.0
C816 C 0.60254 0.14857 0.13889 0.0
C817 C 0.59623 0.14343 0.10474 0.0
C818 C 0.5722 0.16279 0.09162 0.0
C819 C 0.6222 0.14631 0.08549 0.0
C820 C 0.58782 0.11365 0.10696 0.0
C821 C 0.58955 0.10351 0.1375 0.0
C822 C 0.58333 0.07643 0.14545 0.0
C823 C 0.57446 0.05941 0.12167 0.0
C824 C 0.57146 0.06963 0.09034 0.0
C825 C 0.57851 0.09706 0.08294 0.0
H826 H 0.43354 0.55278 0.30735 0.0
H827 H 0.38272 0.62562 0.32664 0.0
H828 H 0.40367 0.62542 0.38011 0.0
H829 H 0.43026 0.51969 0.38587 0.0
H830 H 0.46546 0.50586 0.38565 0.0
H831 H 0.44535 0.51094 0.34954 0.0
H832 H 0.48346 0.54108 0.32718 0.0
H833 H 0.50356 0.53623 0.36325 0.0
H834 H 0.49418 0.57066 0.34806 0.0
H835 H 0.43368 0.62023 0.42915 0.0
H836 H 0.46747 0.60751 0.47261 0.0
H837 H 0.49638 0.53616 0.42293 0.0
C838 C 0.42662 0.56843 0.32305 0.0
C839 C 0.40653 0.58919 0.31306 0.0
C840 C 0.3979 0.60939 0.33408 0.0
C841 C 0.40975 0.6095 0.36438 0.0
C842 C 0.42984 0.58899 0.3734 0.0
C843 C 0.43787 0.56853 0.35356 0.0
C844 C 0.46008 0.54905 0.36896 0.0
C845 C 0.44965 0.51964 0.37273 0.0
C846 C 0.4869 0.54929 0.35078 0.0
C847 C 0.46377 0.56217 0.40024 0.0
C848 C 0.44624 0.58528 0.40226 0.0
C849 C 0.44716 0.6019 0.42808 0.0
C850 C 0.46645 0.59463 0.45253 0.0
C851 C 0.4842 0.57079 0.45109 0.0
C852 C 0.48267 0.55426 0.42475 0.0
H853 H 0.20716 0.3085 0.91733 0.0
H854 H 0.13268 0.27896 0.8724 0.0
H855 H 0.10525 0.3165 0.89459 0.0
H856 H 0.17247 0.34129 0.98688 0.0
H857 H 0.19462 0.3702 0.98465 0.0
H858 H 0.20747 0.33633 0.97449 0.0
H859 H 0.22075 0.35601 0.92055 0.0
H860 H 0.2079 0.38982 0.93013 0.0
H861 H 0.1946 0.37409 0.89556 0.0
H862 H 0.08774 0.36225 0.9095 0.0
H863 H 0.08112 0.41196 0.91844 0.0
H864 H 0.16703 0.41462 0.95056 0.0
C865 C 0.18496 0.30939 0.91292 0.0
C866 C 0.17226 0.2906 0.89296 0.0
C867 C 0.14307 0.29252 0.88805 0.0
C868 C 0.1272 0.31401 0.90047 0.0
C869 C 0.14071 0.33341 0.91791 0.0
C870 C 0.16891 0.33111 0.92459 0.0
C871 C 0.17907 0.357 0.93929 0.0
C872 C 0.18899 0.35084 0.97336 0.0
C873 C 0.2019 0.36998 0.92023 0.0
C874 C 0.15262 0.37498 0.93748 0.0
C875 C 0.13059 0.36063 0.92597 0.0
C876 C 0.10467 0.37352 0.91917 0.0
C877 C 0.10122 0.40184 0.92389 0.0
C878 C 0.12366 0.41712 0.93489 0.0
C879 C 0.14948 0.40333 0.94248 0.0
H880 H 0.72516 0.92874 0.96967 0.0
H881 H 0.70502 0.9329 0.87016 0.0
H882 H 0.65931 0.95399 0.88004 0.0
H883 H 0.65476 0.9135 0.99443 0.0
H884 H 0.65576 0.93479 0.02798 0.0
H885 H 0.68742 0.91941 1.01415 0.0
H886 H 0.70793 0.9676 1.00947 0.0
H887 H 0.67633 0.98311 0.02327 0.0
H888 H 0.68937 0.99478 0.98651 0.0
H889 H 0.61512 0.97441 0.89917 0.0
H890 H 0.57558 0.99404 0.92577 0.0
H891 H 0.62014 0.98003 1.01512 0.0
C892 C 0.71111 0.93397 0.94993 0.0
C893 C 0.71968 0.92902 0.91873 0.0
C894 C 0.70004 0.93657 0.89407 0.0
C895 C 0.6736 0.94856 0.89952 0.0
C896 C 0.66607 0.95341 0.93003 0.0
C897 C 0.68414 0.94648 0.955 0.0
C898 C 0.67019 0.95472 0.98539 0.0
C899 C 0.66684 0.92907 1.00677 0.0
C900 C 0.68696 0.97633 1.00216 0.0
C901 C 0.64163 0.96725 0.97347 0.0
C902 C 0.64007 0.96593 0.94133 0.0
C903 C 0.61629 0.97558 0.92431 0.0
C904 C 0.59361 0.98688 0.93998 0.0
C905 C 0.59385 0.98919 0.97298 0.0
C906 C 0.61867 0.97898 0.98998 0.0
H907 H 0.8228 0.23815 0.37005 0.0
H908 H 0.82642 0.19124 0.28569 0.0
H909 H 0.87069 0.16908 0.30503 0.0
H910 H 0.89765 0.24403 0.38592 0.0
H911 H 0.8945 0.23809 0.4273 0.0
H912 H 0.86622 0.2548 0.40424 0.0
H913 H 0.83318 0.21786 0.42406 0.0
H914 H 0.86124 0.20122 0.44725 0.0
H915 H 0.84214 0.18179 0.41935 0.0
H916 H 0.91237 0.14862 0.33547 0.0
H917 H 0.94504 0.12823 0.37621 0.0
H918 H 0.91011 0.18367 0.44323 0.0
C919 C 0.83274 0.22332 0.35538 0.0
C920 C 0.82079 0.21678 0.32607 0.0
C921 C 0.83515 0.19741 0.30779 0.0
C922 C 0.86039 0.18451 0.31867 0.0
C923 C 0.87099 0.1909 0.34802 0.0
C924 C 0.85747 0.20967 0.36623 0.0
C925 C 0.87108 0.21016 0.39855 0.0
C926 C 0.88308 0.23846 0.40433 0.0
C927 C 0.8507 0.20227 0.42377 0.0
C928 C 0.89388 0.18807 0.39598 0.0
C929 C 0.89397 0.17779 0.36639 0.0
C930 C 0.91247 0.15651 0.35873 0.0
C931 C 0.93079 0.14488 0.38218 0.0
C932 C 0.93001 0.154 0.4132 0.0
C933 C 0.91169 0.1764 0.41979 0.0
H934 H 0.21093 0.55997 0.13177 0.0
H935 H 0.21681 0.63269 0.07061 0.0
H936 H 0.1691 0.62706 0.0505 0.0
H937 H 0.17082 0.52075 0.07949 0.0
H938 H 0.14986 0.50631 0.10929 0.0
H939 H 0.18459 0.51595 0.11902 0.0
H940 H 0.16595 0.54756 0.16167 0.0
H941 H 0.13116 0.53796 0.1521 0.0
H942 H 0.13939 0.57389 0.15132 0.0
H943 H 0.12144 0.61281 0.03566 0.0
H944 H 0.0761 0.59175 0.02863 0.0
H945 H 0.10007 0.52983 0.10126 0.0
C946 C 0.20212 0.57493 0.11443 0.0
C947 C 0.21783 0.59665 0.10261 0.0
C948 C 0.2055 0.61553 0.0796 0.0
C949 C 0.1783 0.61265 0.06817 0.0
C950 C 0.16354 0.59092 0.08014 0.0
C951 C 0.1749 0.57248 0.1029 0.0
C952 C 0.15449 0.55094 0.11178 0.0
C953 C 0.16561 0.52177 0.10444 0.0
C954 C 0.14732 0.55271 0.14627 0.0
C955 C 0.12995 0.56012 0.09035 0.0
C956 C 0.13568 0.58315 0.07221 0.0
C957 C 0.1166 0.59492 0.04992 0.0
C958 C 0.09096 0.58283 0.04608 0.0
C959 C 0.08459 0.55938 0.0646 0.0
C960 C 0.10432 0.54797 0.08707 0.0
H961 H 0.31094 0.31777 0.63749 0.0
H962 H 0.32632 0.34862 0.73007 0.0
H963 H 0.35438 0.38491 0.70778 0.0
H964 H 0.38039 0.32843 0.61116 0.0
H965 H 0.3687 0.33819 0.57178 0.0
H966 H 0.34912 0.31482 0.59487 0.0
H967 H 0.30539 0.3473 0.58533 0.0
H968 H 0.32492 0.37091 0.5625 0.0
H969 H 0.30663 0.38299 0.59557 0.0
H970 H 0.37938 0.41865 0.67596 0.0
H971 H 0.40372 0.44559 0.63667 0.0
H972 H 0.37548 0.39114 0.56499 0.0
C973 C 0.32044 0.33195 0.65312 0.0
C974 C 0.31593 0.33057 0.6855 0.0
C975 C 0.32874 0.34966 0.70508 0.0
C976 C 0.34489 0.37029 0.6927 0.0
C977 C 0.34842 0.37141 0.66071 0.0
C978 C 0.33694 0.35258 0.64118 0.0
C979 C 0.34473 0.35809 0.60772 0.0
C980 C 0.36175 0.33342 0.59568 0.0
C981 C 0.31888 0.36525 0.58654 0.0
C982 C 0.36227 0.38299 0.61162 0.0
C983 C 0.3639 0.3904 0.64236 0.0
C984 C 0.37858 0.41288 0.65184 0.0
C985 C 0.39246 0.42796 0.62935 0.0
C986 C 0.39184 0.42032 0.59777 0.0
C987 C 0.37623 0.39767 0.58885 0.0
H988 H 0.95221 0.73255 0.91833 0.0
H989 H 0.87164 0.72121 0.95732 0.0
H990 H 0.8886 0.67654 0.98075 0.0
H991 H 0.96483 0.66001 0.89943 0.0
H992 H 1.0014 0.65932 0.90942 0.0
H993 H 0.98361 0.69123 0.8959 0.0
H994 H 1.00065 0.71472 0.94571 0.0
H995 H 1.01846 0.68288 0.95939 0.0
H996 H 0.99351 0.69966 0.98342 0.0
H997 H 0.91369 0.63174 1.00038 0.0
H998 H 0.94467 0.59139 1.01462 0.0
H999 H 1.01001 0.62792 0.96252 0.0
C1000 C 0.93792 0.72076 0.93162 0.0
C1001 C 0.91025 0.73171 0.93595 0.0
C1002 C 0.89295 0.71474 0.95389 0.0
C1003 C 0.9024 0.68876 0.96725 0.0
C1004 C 0.92949 0.67893 0.9627 0.0
C1005 C 0.94708 0.69433 0.94522 0.0
C1006 C 0.97527 0.67843 0.94397 0.0
C1007 C 0.98166 0.67186 0.91017 0.0
C1008 C 0.99834 0.69491 0.95901 0.0
C1009 C 0.97072 0.65182 0.96339 0.0
C1010 C 0.94404 0.65278 0.97393 0.0
C1011 C 0.93463 0.631 0.9923 0.0
C1012 C 0.95265 0.6079 1.00036 0.0
C1013 C 0.98027 0.60577 0.99007 0.0
C1014 C 0.98922 0.62839 0.97104 0.0
H1015 H 0.45515 0.72581 0.12128 0.0
H1016 H 0.41912 0.71469 0.02869 0.0
H1017 H 0.43911 0.75814 1.01019 0.0
H1018 H 0.44235 0.79597 0.12327 0.0
H1019 H 0.47422 0.80324 0.14387 0.0
H1020 H 0.45979 0.76988 0.14883 0.0
H1021 H 0.50567 0.74614 0.13207 0.0
H1022 H 0.5204 0.77948 0.12734 0.0
H1023 H 0.51989 0.75635 0.0954 0.0
H1024 H 0.45913 0.80548 1.00352 0.0
H1025 H 0.47777 0.85178 1.00926 0.0
H1026 H 0.50251 0.82992 0.10554 0.0
C1027 C 0.45216 0.73191 0.09683 0.0
C1028 C 0.43562 0.71667 0.07644 0.0
C1029 C 0.43153 0.72608 0.04486 0.0
C1030 C 0.44297 0.75063 0.03407 0.0
C1031 C 0.45869 0.7654 0.05505 0.0
C1032 C 0.46352 0.75618 0.0857 0.0
C1033 C 0.47959 0.77656 0.10416 0.0
C1034 C 0.46298 0.78702 0.13164 0.0
C1035 C 0.50808 0.76387 0.1154 0.0
C1036 C 0.48235 0.79913 0.07941 0.0
C1037 C 0.47041 0.7923 0.05113 0.0
C1038 C 0.46897 0.81081 0.02542 0.0
C1039 C 0.47971 0.83705 0.02886 0.0
C1040 C 0.49162 0.84455 0.05786 0.0
C1041 C 0.49336 0.82499 0.08314 0.0
H1042 H 0.18133 0.12161 0.64706 0.0
H1043 H 0.11545 0.15023 0.70558 0.0
H1044 H 0.08217 0.12331 0.67578 0.0
H1045 H 0.14049 0.12421 0.57514 0.0
H1046 H 0.15701 0.09346 0.56061 0.0
H1047 H 0.17589 0.11461 0.58689 0.0
H1048 H 0.18631 0.07213 0.62457 0.0
H1049 H 0.16753 0.05085 0.59837 0.0
H1050 H 0.15804 0.05264 0.63848 0.0
H1051 H 0.05586 0.09406 0.63925 0.0
H1052 H 0.03853 0.06309 0.59915 0.0
H1053 H 0.1213 0.05372 0.56407 0.0
C1054 C 0.15989 0.12228 0.65353 0.0
C1055 C 0.15103 0.13791 0.67878 0.0
C1056 C 0.12282 0.13804 0.68668 0.0
C1057 C 0.10371 0.12299 0.66975 0.0
C1058 C 0.1131 0.1079 0.64496 0.0
C1059 C 0.14052 0.10734 0.63689 0.0
C1060 C 0.14519 0.08937 0.60926 0.0
C1061 C 0.15523 0.10644 0.58132 0.0
C1062 C 0.16547 0.06479 0.61822 0.0
C1063 C 0.1161 0.07996 0.60307 0.0
C1064 C 0.09791 0.09095 0.62389 0.0
C1065 C 0.0699 0.08528 0.62284 0.0
C1066 C 0.06026 0.06771 0.6 0.0
C1067 C 0.07861 0.05603 0.57866 0.0
C1068 C 0.10684 0.06237 0.58015 0.0
H1069 H 0.5871 0.37427 0.36325 0.0
H1070 H 0.67224 0.39916 0.36405 0.0
H1071 H 0.65935 0.43955 0.39456 0.0
H1072 H 0.5548 0.44496 0.35719 0.0
H1073 H 0.52723 0.43616 0.38234 0.0
H1074 H 0.54272 0.41029 0.3585 0.0
H1075 H 0.55369 0.37866 0.40777 0.0
H1076 H 0.53838 0.40444 0.43173 0.0
H1077 H 0.57353 0.39164 0.44003 0.0
H1078 H 0.63814 0.47515 0.42859 0.0
H1079 H 0.60956 0.50422 0.46226 0.0
H1080 H 0.53801 0.45702 0.43828 0.0
C1081 C 0.60288 0.38854 0.36929 0.0
C1082 C 0.63072 0.38343 0.3614 0.0
C1083 C 0.65085 0.40241 0.37019 0.0
C1084 C 0.64371 0.42553 0.38737 0.0
C1085 C 0.61627 0.42962 0.39542 0.0
C1086 C 0.59609 0.41181 0.38646 0.0
C1087 C 0.56836 0.42035 0.39931 0.0
C1088 C 0.54702 0.42842 0.37275 0.0
C1089 C 0.55789 0.39741 0.421 0.0
C1090 C 0.57627 0.44532 0.41738 0.0
C1091 C 0.60396 0.45041 0.41472 0.0
C1092 C 0.61633 0.47159 0.43054 0.0
C1093 C 0.59995 0.48796 0.44968 0.0
C1094 C 0.57151 0.48306 0.4528 0.0
C1095 C 0.5596 0.46156 0.43614 0.0
loop_
_geom_bond_atom_site_label_1
_geom_bond_atom_site_label_2
_geom_bond_distance
_geom_bond_site_symmetry_2
_ccdc_geom_bond_type
C0 C1 1.384 . S
C0 H13 0.947 . S
C0 C35 1.382 . S
C1 C0 1.384 . S
C1 C2 1.378 . S
C2 C1 1.378 . S
C2 C3 1.378 . S
C2 H14 0.952 . S
C3 C2 1.378 . S
C3 H15 0.950 . S
C3 C34 1.383 . S
H4 C23 0.947 . S
H5 C24 0.946 . S
H6 C26 0.953 . S
H7 C27 0.945 . S
H8 C29 0.952 . S
H9 C30 0.949 . S
H10 C32 0.950 . S
H11 C33 0.948 . S
H12 C35 0.951 . S
H13 C0 0.947 . S
H14 C2 0.952 . S
H15 C3 0.950 . S
N16 C19 1.382 . S
N16 C21 1.363 . S
N17 C19 1.371 . S
N17 C20 1.372 . S
N18 C20 1.361 . S
N18 C21 1.377 . S
C19 N16 1.382 . S
C19 N17 1.371 . S
C19 C22 1.480 . S
C20 N17 1.372 . S
C20 N18 1.361 . S
C20 C28 1.457 . S
C21 N16 1.363 . S
C21 N18 1.377 . S
C21 C34 1.479 . S
C22 C19 1.480 . S
C22 C23 1.383 . S
C22 C27 1.385 . S
C23 H4 0.947 . S
C23 C22 1.383 . S
C23 C24 1.388 . S
C24 H5 0.946 . S
C24 C23 1.388 . S
C24 C25 1.384 . S
C25 C24 1.384 . S
C25 C26 1.377 . S
C26 H6 0.953 . S
C26 C25 1.377 . S
C26 C27 1.369 . S
C27 H7 0.945 . S
C27 C22 1.385 . S
C27 C26 1.369 . S
C28 C20 1.457 . S
C28 C29 1.372 . S
C28 C33 1.364 . S
C29 H8 0.952 . S
C29 C28 1.372 . S
C29 C30 1.389 . S
C30 H9 0.949 . S
C30 C29 1.389 . S
C30 C31 1.387 . S
C31 C30 1.387 . S
C31 C32 1.372 . S
C32 H10 0.950 . S
C32 C31 1.372 . S
C32 C33 1.379 . S
C33 H11 0.948 . S
C33 C28 1.364 . S
C33 C32 1.379 . S
C34 C3 1.383 . S
C34 C21 1.479 . S
C34 C35 1.398 . S
C35 C0 1.382 . S
C35 H12 0.951 . S
C35 C34 1.398 . S
C36 C37 1.384 . S
C36 H49 0.947 . S
C36 C71 1.382 . S
C37 C36 1.384 . S
C37 C38 1.378 . S
C38 C37 1.378 . S
C38 C39 1.378 . S
C38 H50 0.952 . S
C39 C38 1.378 . S
C39 H51 0.950 . S
C39 C70 1.383 . S
H40 C59 0.947 . S
H41 C60 0.946 . S
H42 C62 0.953 . S
H43 C63 0.945 . S
H44 C65 0.952 . S
H45 C66 0.949 . S
H46 C68 0.950 . S
H47 C69 0.948 . S
H48 C71 0.951 . S
H49 C36 0.947 . S
H50 C38 0.952 . S
H51 C39 0.950 . S
N52 C55 1.382 . S
N52 C57 1.363 . S
N53 C55 1.371 . S
N53 C56 1.372 . S
N54 C56 1.361 . S
N54 C57 1.377 . S
C55 N52 1.382 . S
C55 N53 1.371 . S
C55 C58 1.480 . S
C56 N53 1.372 . S
C56 N54 1.361 . S
C56 C64 1.457 . S
C57 N52 1.363 . S
C57 N54 1.377 . S
C57 C70 1.479 . S
C58 C55 1.480 . S
C58 C59 1.383 . S
C58 C63 1.385 . S
C59 H40 0.947 . S
C59 C58 1.383 . S
C59 C60 1.388 . S
C60 H41 0.946 . S
C60 C59 1.388 . S
C60 C61 1.384 . S
C61 C60 1.384 . S
C61 C62 1.377 . S
C62 H42 0.953 . S
C62 C61 1.377 . S
C62 C63 1.369 . S
C63 H43 0.945 . S
C63 C58 1.385 . S
C63 C62 1.369 . S
C64 C56 1.457 . S
C64 C65 1.372 . S
C64 C69 1.364 . S
C65 H44 0.952 . S
C65 C64 1.372 . S
C65 C66 1.389 . S
C66 H45 0.949 . S
C66 C65 1.389 . S
C66 C67 1.387 . S
C67 C66 1.387 . S
C67 C68 1.372 . S
C68 H46 0.950 . S
C68 C67 1.372 . S
C68 C69 1.379 . S
C69 H47 0.948 . S
C69 C64 1.364 . S
C69 C68 1.379 . S
C70 C39 1.383 . S
C70 C57 1.479 . S
C70 C71 1.398 . S
C71 C36 1.382 . S
C71 H48 0.951 . S
C71 C70 1.398 . S
C72 C73 1.384 . S
C72 H85 0.947 . S
C72 C107 1.382 . S
C73 C72 1.384 . S
C73 C74 1.378 . S
C74 C73 1.378 . S
C74 C75 1.378 . S
C74 H86 0.952 . S
C75 C74 1.378 . S
C75 H87 0.950 . S
C75 C106 1.383 . S
H76 C95 0.947 . S
H77 C96 0.946 . S
H78 C98 0.953 . S
H79 C99 0.945 . S
H80 C101 0.952 . S
H81 C102 0.949 . S
H82 C104 0.950 . S
H83 C105 0.948 . S
H84 C107 0.951 . S
H85 C72 0.947 . S
H86 C74 0.952 . S
H87 C75 0.950 . S
N88 C91 1.382 . S
N88 C93 1.363 . S
N89 C91 1.371 . S
N89 C92 1.372 . S
N90 C92 1.361 . S
N90 C93 1.377 . S
C91 N88 1.382 . S
C91 N89 1.371 . S
C91 C94 1.480 . S
C92 N89 1.372 . S
C92 N90 1.361 . S
C92 C100 1.457 . S
C93 N88 1.363 . S
C93 N90 1.377 . S
C93 C106 1.479 . S
C94 C91 1.480 . S
C94 C95 1.383 . S
C94 C99 1.385 . S
C95 H76 0.947 . S
C95 C94 1.383 . S
C95 C96 1.388 . S
C96 H77 0.946 . S
C96 C95 1.388 . S
C96 C97 1.384 . S
C97 C96 1.384 . S
C97 C98 1.377 . S
C98 H78 0.953 . S
C98 C97 1.377 . S
C98 C99 1.369 . S
C99 H79 0.945 . S
C99 C94 1.385 . S
C99 C98 1.369 . S
C100 C92 1.457 . S
C100 C101 1.372 . S
C100 C105 1.364 . S
C101 H80 0.952 . S
C101 C100 1.372 . S
C101 C102 1.389 . S
C102 H81 0.949 . S
C102 C101 1.389 . S
C102 C103 1.387 . S
C103 C102 1.387 . S
C103 C104 1.372 . S
C104 H82 0.950 . S
C104 C103 1.372 . S
C104 C105 1.379 . S
C105 H83 0.948 . S
C105 C100 1.364 . S
C105 C104 1.379 . S
C106 C75 1.383 . S
C106 C93 1.479 . S
C106 C107 1.398 . S
C107 C72 1.382 . S
C107 H84 0.951 . S
C107 C106 1.398 . S
C108 C109 1.384 . S
C108 H121 0.947 . S
C108 C143 1.382 . S
C109 C108 1.384 . S
C109 C110 1.378 . S
C110 C109 1.378 . S
C110 C111 1.378 . S
C110 H122 0.952 . S
C111 C110 1.378 . S
C111 H123 0.950 . S
C111 C142 1.383 . S
H112 C131 0.947 . S
H113 C132 0.946 . S
H114 C134 0.953 . S
H115 C135 0.945 . S
H116 C137 0.952 . S
H117 C138 0.949 . S
H118 C140 0.950 . S
H119 C141 0.948 . S
H120 C143 0.951 . S
H121 C108 0.947 . S
H122 C110 0.952 . S
H123 C111 0.950 . S
N124 C127 1.382 . S
N124 C129 1.363 . S
N125 C127 1.371 . S
N125 C128 1.372 . S
N126 C128 1.361 . S
N126 C129 1.377 . S
C127 N124 1.382 . S
C127 N125 1.371 . S
C127 C130 1.480 . S
C128 N125 1.372 . S
C128 N126 1.361 . S
C128 C136 1.457 . S
C129 N124 1.363 . S
C129 N126 1.377 . S
C129 C142 1.479 . S
C130 C127 1.480 . S
C130 C131 1.383 . S
C130 C135 1.385 . S
C131 H112 0.947 . S
C131 C130 1.383 . S
C131 C132 1.388 . S
C132 H113 0.946 . S
C132 C131 1.388 . S
C132 C133 1.384 . S
C133 C132 1.384 . S
C133 C134 1.377 . S
C134 H114 0.953 . S
C134 C133 1.377 . S
C134 C135 1.369 . S
C135 H115 0.945 . S
C135 C130 1.385 . S
C135 C134 1.369 . S
C136 C128 1.457 . S
C136 C137 1.372 . S
C136 C141 1.364 . S
C137 H116 0.952 . S
C137 C136 1.372 . S
C137 C138 1.389 . S
C138 H117 0.949 . S
C138 C137 1.389 . S
C138 C139 1.387 . S
C139 C138 1.387 . S
C139 C140 1.372 . S
C140 H118 0.950 . S
C140 C139 1.372 . S
C140 C141 1.379 . S
C141 H119 0.948 . S
C141 C136 1.364 . S
C141 C140 1.379 . S
C142 C111 1.383 . S
C142 C129 1.479 . S
C142 C143 1.398 . S
C143 C108 1.382 . S
C143 H120 0.951 . S
C143 C142 1.398 . S
C144 C145 1.384 . S
C144 H157 0.947 . S
C144 C179 1.382 . S
C145 C144 1.384 . S
C145 C146 1.378 . S
C146 C145 1.378 . S
C146 C147 1.378 . S
C146 H158 0.952 . S
C147 C146 1.378 . S
C147 H159 0.950 . S
C147 C178 1.383 . S
H148 C167 0.947 . S
H149 C168 0.946 . S
H150 C170 0.953 . S
H151 C171 0.945 . S
H152 C173 0.952 . S
H153 C174 0.949 . S
H154 C176 0.950 . S
H155 C177 0.948 . S
H156 C179 0.951 . S
H157 C144 0.947 . S
H158 C146 0.952 . S
H159 C147 0.950 . S
N160 C163 1.382 . S
N160 C165 1.363 . S
N161 C163 1.371 . S
N161 C164 1.372 . S
N162 C164 1.361 . S
N162 C165 1.377 . S
C163 N160 1.382 . S
C163 N161 1.371 . S
C163 C166 1.480 . S
C164 N161 1.372 . S
C164 N162 1.361 . S
C164 C172 1.457 . S
C165 N160 1.363 . S
C165 N162 1.377 . S
C165 C178 1.479 . S
C166 C163 1.480 . S
C166 C167 1.383 . S
C166 C171 1.385 . S
C167 H148 0.947 . S
C167 C166 1.383 . S
C167 C168 1.388 . S
C168 H149 0.946 . S
C168 C167 1.388 . S
C168 C169 1.384 . S
C169 C168 1.384 . S
C169 C170 1.377 . S
C170 H150 0.953 . S
C170 C169 1.377 . S
C170 C171 1.369 . S
C171 H151 0.945 . S
C171 C166 1.385 . S
C171 C170 1.369 . S
C172 C164 1.457 . S
C172 C173 1.372 . S
C172 C177 1.364 . S
C173 H152 0.952 . S
C173 C172 1.372 . S
C173 C174 1.389 . S
C174 H153 0.949 . S
C174 C173 1.389 . S
C174 C175 1.387 . S
C175 C174 1.387 . S
C175 C176 1.372 . S
C176 H154 0.950 . S
C176 C175 1.372 . S
C176 C177 1.379 . S
C177 H155 0.948 . S
C177 C172 1.364 . S
C177 C176 1.379 . S
C178 C147 1.383 . S
C178 C165 1.479 . S
C178 C179 1.398 . S
C179 C144 1.382 . S
C179 H156 0.951 . S
C179 C178 1.398 . S
C180 C181 1.384 . S
C180 H193 0.947 . S
C180 C215 1.382 . S
C181 C180 1.384 . S
C181 C182 1.378 . S
C182 C181 1.378 . S
C182 C183 1.378 . S
C182 H194 0.952 . S
C183 C182 1.378 . S
C183 H195 0.950 . S
C183 C214 1.383 . S
H184 C203 0.947 . S
H185 C204 0.946 . S
H186 C206 0.953 . S
H187 C207 0.945 . S
H188 C209 0.952 . S
H189 C210 0.949 . S
H190 C212 0.950 . S
H191 C213 0.948 . S
H192 C215 0.951 . S
H193 C180 0.947 . S
H194 C182 0.952 . S
H195 C183 0.950 . S
N196 C199 1.382 . S
N196 C201 1.363 . S
N197 C199 1.371 . S
N197 C200 1.372 . S
N198 C200 1.361 . S
N198 C201 1.377 . S
C199 N196 1.382 . S
C199 N197 1.371 . S
C199 C202 1.480 . S
C200 N197 1.372 . S
C200 N198 1.361 . S
C200 C208 1.457 . S
C201 N196 1.363 . S
C201 N198 1.377 . S
C201 C214 1.479 . S
C202 C199 1.480 . S
C202 C203 1.383 . S
C202 C207 1.385 . S
C203 H184 0.947 . S
C203 C202 1.383 . S
C203 C204 1.388 . S
C204 H185 0.946 . S
C204 C203 1.388 . S
C204 C205 1.384 . S
C205 C204 1.384 . S
C205 C206 1.377 . S
C206 H186 0.953 . S
C206 C205 1.377 . S
C206 C207 1.369 . S
C207 H187 0.945 . S
C207 C202 1.385 . S
C207 C206 1.369 . S
C208 C200 1.457 . S
C208 C209 1.372 . S
C208 C213 1.364 . S
C209 H188 0.952 . S
C209 C208 1.372 . S
C209 C210 1.389 . S
C210 H189 0.949 . S
C210 C209 1.389 . S
C210 C211 1.387 . S
C211 C210 1.387 . S
C211 C212 1.372 . S
C212 H190 0.950 . S
C212 C211 1.372 . S
C212 C213 1.379 . S
C213 H191 0.948 . S
C213 C208 1.364 . S
C213 C212 1.379 . S
C214 C183 1.383 . S
C214 C201 1.479 . S
C214 C215 1.398 . S
C215 C180 1.382 . S
C215 H192 0.951 . S
C215 C214 1.398 . S
C216 C217 1.384 . S
C216 H229 0.947 . S
C216 C251 1.382 . S
C217 C216 1.384 . S
C217 C218 1.378 . S
C218 C217 1.378 . S
C218 C219 1.378 . S
C218 H230 0.952 . S
C219 C218 1.378 . S
C219 H231 0.950 . S
C219 C250 1.383 . S
H220 C239 0.947 . S
H221 C240 0.946 . S
H222 C242 0.953 . S
H223 C243 0.945 . S
H224 C245 0.952 . S
H225 C246 0.949 . S
H226 C248 0.950 . S
H227 C249 0.948 . S
H228 C251 0.951 . S
H229 C216 0.947 . S
H230 C218 0.952 . S
H231 C219 0.950 . S
N232 C235 1.382 . S
N232 C237 1.363 . S
N233 C235 1.371 . S
N233 C236 1.372 . S
N234 C236 1.361 . S
N234 C237 1.377 . S
C235 N232 1.382 . S
C235 N233 1.371 . S
C235 C238 1.480 . S
C236 N233 1.372 . S
C236 N234 1.361 . S
C236 C244 1.457 . S
C237 N232 1.363 . S
C237 N234 1.377 . S
C237 C250 1.479 . S
C238 C235 1.480 . S
C238 C239 1.383 . S
C238 C243 1.385 . S
C239 H220 0.947 . S
C239 C238 1.383 . S
C239 C240 1.388 . S
C240 H221 0.946 . S
C240 C239 1.388 . S
C240 C241 1.384 . S
C241 C240 1.384 . S
C241 C242 1.377 . S
C242 H222 0.953 . S
C242 C241 1.377 . S
C242 C243 1.369 . S
C243 H223 0.945 . S
C243 C238 1.385 . S
C243 C242 1.369 . S
C244 C236 1.457 . S
C244 C245 1.372 . S
C244 C249 1.364 . S
C245 H224 0.952 . S
C245 C244 1.372 . S
C245 C246 1.389 . S
C246 H225 0.949 . S
C246 C245 1.389 . S
C246 C247 1.387 . S
C247 C246 1.387 . S
C247 C248 1.372 . S
C248 H226 0.950 . S
C248 C247 1.372 . S
C248 C249 1.379 . S
C249 H227 0.948 . S
C249 C244 1.364 . S
C249 C248 1.379 . S
C250 C219 1.383 . S
C250 C237 1.479 . S
C250 C251 1.398 . S
C251 C216 1.382 . S
C251 H228 0.951 . S
C251 C250 1.398 . S
C252 C253 1.384 . S
C252 H265 0.947 . S
C252 C287 1.382 . S
C253 C252 1.384 . S
C253 C254 1.378 . S
C254 C253 1.378 . S
C254 C255 1.378 . S
C254 H266 0.952 . S
C255 C254 1.378 . S
C255 H267 0.950 . S
C255 C286 1.383 . S
H256 C275 0.947 . S
H257 C276 0.946 . S
H258 C278 0.953 . S
H259 C279 0.945 . S
H260 C281 0.952 . S
H261 C282 0.949 . S
H262 C284 0.950 . S
H263 C285 0.948 . S
H264 C287 0.951 . S
H265 C252 0.947 . S
H266 C254 0.952 . S
H267 C255 0.950 . S
N268 C271 1.382 . S
N268 C273 1.363 . S
N269 C271 1.371 . S
N269 C272 1.372 . S
N270 C272 1.361 . S
N270 C273 1.377 . S
C271 N268 1.382 . S
C271 N269 1.371 . S
C271 C274 1.480 . S
C272 N269 1.372 . S
C272 N270 1.361 . S
C272 C280 1.457 . S
C273 N268 1.363 . S
C273 N270 1.377 . S
C273 C286 1.479 . S
C274 C271 1.480 . S
C274 C275 1.383 . S
C274 C279 1.385 . S
C275 H256 0.947 . S
C275 C274 1.383 . S
C275 C276 1.388 . S
C276 H257 0.946 . S
C276 C275 1.388 . S
C276 C277 1.384 . S
C277 C276 1.384 . S
C277 C278 1.377 . S
C278 H258 0.953 . S
C278 C277 1.377 . S
C278 C279 1.369 . S
C279 H259 0.945 . S
C279 C274 1.385 . S
C279 C278 1.369 . S
C280 C272 1.457 . S
C280 C281 1.372 . S
C280 C285 1.364 . S
C281 H260 0.952 . S
C281 C280 1.372 . S
C281 C282 1.389 . S
C282 H261 0.949 . S
C282 C281 1.389 . S
C282 C283 1.387 . S
C283 C282 1.387 . S
C283 C284 1.372 . S
C284 H262 0.950 . S
C284 C283 1.372 . S
C284 C285 1.379 . S
C285 H263 0.948 . S
C285 C280 1.364 . S
C285 C284 1.379 . S
C286 C255 1.383 . S
C286 C273 1.479 . S
C286 C287 1.398 . S
C287 C252 1.382 . S
C287 H264 0.951 . S
C287 C286 1.398 . S
Nd288 C290 2.836 . S
Nd288 O308 2.500 . S
Nd288 O309 2.492 . S
Nd288 O310 2.487 1_565 S
Nd288 O311 2.682 1_565 S
Nd288 O312 2.410 . S
Nd288 O317 2.414 1_455 S
Nd288 O319 2.424 1_565 S
Nd289 C299 2.836 . S
Nd289 O311 2.414 1_655 S
Nd289 O313 2.424 1_545 S
Nd289 O314 2.500 . S
Nd289 O315 2.492 . S
Nd289 O316 2.487 1_545 S
Nd289 O317 2.682 1_545 S
Nd289 O318 2.410 . S
C290 Nd288 2.836 . S
C290 C291 1.498 . S
C290 O308 1.258 . S
C290 O309 1.239 . S
C291 C290 1.498 . S
C291 C292 1.366 . S
C291 C296 1.407 . S
C292 C291 1.366 . S
C292 C293 1.392 . S
C292 H320 0.930 . S
C293 C292 1.392 . S
C293 C294 1.398 . S
C293 H321 0.929 . S
C294 C293 1.398 . S
C294 C295 1.352 . S
C295 C294 1.352 . S
C295 C296 1.384 . S
C295 H322 0.930 . S
C296 C291 1.407 . S
C296 C295 1.384 . S
C296 H323 0.929 . S
C297 O310 1.241 . S
C297 O311 1.273 . S
C298 O312 1.251 1_655 S
C298 O313 1.268 . S
C299 Nd289 2.836 . S
C299 C300 1.498 . S
C299 O314 1.258 . S
C299 O315 1.239 . S
C300 C299 1.498 . S
C300 C301 1.366 . S
C300 C305 1.407 . S
C301 C300 1.366 . S
C301 C302 1.392 . S
C301 H324 0.930 . S
C302 C301 1.392 . S
C302 C303 1.398 . S
C302 H325 0.929 . S
C303 C302 1.398 . S
C303 C304 1.352 . S
C304 C303 1.352 . S
C304 C305 1.384 . S
C304 H326 0.930 . S
C305 C300 1.407 . S
C305 C304 1.384 . S
C305 H327 0.929 . S
C306 O316 1.241 . S
C306 O317 1.273 . S
C307 O318 1.251 1_455 S
C307 O319 1.268 . S
O308 Nd288 2.500 . S
O308 C290 1.258 . S
O309 Nd288 2.492 . S
O309 C290 1.239 . S
O310 Nd288 2.487 1_545 S
O310 C297 1.241 . S
O311 Nd288 2.682 1_545 S
O311 Nd289 2.414 1_455 S
O311 C297 1.273 . S
O312 Nd288 2.410 . S
O312 C298 1.251 1_455 S
O313 Nd289 2.424 1_565 S
O313 C298 1.268 . S
O314 Nd289 2.500 . S
O314 C299 1.258 . S
O315 Nd289 2.492 . S
O315 C299 1.239 . S
O316 Nd289 2.487 1_565 S
O316 C306 1.241 . S
O317 Nd288 2.414 1_655 S
O317 Nd289 2.682 1_565 S
O317 C306 1.273 . S
O318 Nd289 2.410 . S
O318 C307 1.251 1_655 S
O319 Nd288 2.424 1_545 S
O319 C307 1.268 . S
H320 C292 0.930 . S
H321 C293 0.929 . S
H322 C295 0.930 . S
H323 C296 0.929 . S
H324 C301 0.930 . S
H325 C302 0.929 . S
H326 C304 0.930 . S
H327 C305 0.929 . S
Nd328 C330 2.836 . S
Nd328 O348 2.500 . S
Nd328 O349 2.492 . S
Nd328 O350 2.487 1_565 S
Nd328 O351 2.682 1_565 S
Nd328 O352 2.410 1_554 S
Nd328 O357 2.414 1_554 S
Nd328 O359 2.424 1_565 S
Nd329 C339 2.836 . S
Nd329 O351 2.414 1_556 S
Nd329 O353 2.424 1_545 S
Nd329 O354 2.500 . S
Nd329 O355 2.492 . S
Nd329 O356 2.487 1_545 S
Nd329 O357 2.682 1_545 S
Nd329 O358 2.410 1_556 S
C330 Nd328 2.836 . S
C330 C331 1.498 . S
C330 O348 1.258 . S
C330 O349 1.239 . S
C331 C330 1.498 . S
C331 C332 1.366 . S
C331 C336 1.407 . S
C332 C331 1.366 . S
C332 C333 1.392 . S
C332 H360 0.930 . S
C333 C332 1.392 . S
C333 C334 1.398 . S
C333 H361 0.929 . S
C334 C333 1.398 . S
C334 C335 1.352 . S
C335 C334 1.352 . S
C335 C336 1.384 . S
C335 H362 0.930 . S
C336 C331 1.407 . S
C336 C335 1.384 . S
C336 H363 0.929 . S
C337 O350 1.241 . S
C337 O351 1.273 . S
C338 O352 1.251 . S
C338 O353 1.268 . S
C339 Nd329 2.836 . S
C339 C340 1.498 . S
C339 O354 1.258 . S
C339 O355 1.239 . S
C340 C339 1.498 . S
C340 C341 1.366 . S
C340 C345 1.407 . S
C341 C340 1.366 . S
C341 C342 1.392 . S
C341 H364 0.930 . S
C342 C341 1.392 . S
C342 C343 1.398 . S
C342 H365 0.929 . S
C343 C342 1.398 . S
C343 C344 1.352 . S
C344 C343 1.352 . S
C344 C345 1.384 . S
C344 H366 0.930 . S
C345 C340 1.407 . S
C345 C344 1.384 . S
C345 H367 0.929 . S
C346 O356 1.241 . S
C346 O357 1.273 . S
C347 O358 1.251 . S
C347 O359 1.268 . S
O348 Nd328 2.500 . S
O348 C330 1.258 . S
O349 Nd328 2.492 . S
O349 C330 1.239 . S
O350 Nd328 2.487 1_545 S
O350 C337 1.241 . S
O351 Nd328 2.682 1_545 S
O351 Nd329 2.414 1_554 S
O351 C337 1.273 . S
O352 Nd328 2.410 1_556 S
O352 C338 1.251 . S
O353 Nd329 2.424 1_565 S
O353 C338 1.268 . S
O354 Nd329 2.500 . S
O354 C339 1.258 . S
O355 Nd329 2.492 . S
O355 C339 1.239 . S
O356 Nd329 2.487 1_565 S
O356 C346 1.241 . S
O357 Nd328 2.414 1_556 S
O357 Nd329 2.682 1_565 S
O357 C346 1.273 . S
O358 Nd329 2.410 1_554 S
O358 C347 1.251 . S
O359 Nd328 2.424 1_545 S
O359 C347 1.268 . S
H360 C332 0.930 . S
H361 C333 0.929 . S
H362 C335 0.930 . S
H363 C336 0.929 . S
H364 C341 0.930 . S
H365 C342 0.929 . S
H366 C344 0.930 . S
H367 C345 0.929 . S
Nd368 C370 2.836 . S
Nd368 O388 2.500 . S
Nd368 O389 2.492 . S
Nd368 O390 2.487 . S
Nd368 O391 2.682 . S
Nd368 O392 2.410 . S
Nd368 O397 2.414 . S
Nd368 O399 2.424 . S
Nd369 C379 2.836 . S
Nd369 O391 2.414 . S
Nd369 O393 2.424 . S
Nd369 O394 2.500 . S
Nd369 O395 2.492 . S
Nd369 O396 2.487 . S
Nd369 O397 2.682 . S
Nd369 O398 2.410 . S
C370 Nd368 2.836 . S
C370 C371 1.498 . S
C370 O388 1.258 . S
C370 O389 1.239 . S
C371 C370 1.498 . S
C371 C372 1.366 . S
C371 C376 1.407 . S
C372 C371 1.366 . S
C372 C373 1.392 . S
C372 H400 0.930 . S
C373 C372 1.392 . S
C373 C374 1.398 . S
C373 H401 0.929 . S
C374 C373 1.398 . S
C374 C375 1.352 . S
C375 C374 1.352 . S
C375 C376 1.384 . S
C375 H402 0.930 . S
C376 C371 1.407 . S
C376 C375 1.384 . S
C376 H403 0.929 . S
C377 O390 1.241 . S
C377 O391 1.273 . S
C378 O392 1.251 . S
C378 O393 1.268 . S
C379 Nd369 2.836 . S
C379 C380 1.498 . S
C379 O394 1.258 . S
C379 O395 1.239 . S
C380 C379 1.498 . S
C380 C381 1.366 . S
C380 C385 1.407 . S
C381 C380 1.366 . S
C381 C382 1.392 . S
C381 H404 0.930 . S
C382 C381 1.392 . S
C382 C383 1.398 . S
C382 H405 0.929 . S
C383 C382 1.398 . S
C383 C384 1.352 . S
C384 C383 1.352 . S
C384 C385 1.384 . S
C384 H406 0.930 . S
C385 C380 1.407 . S
C385 C384 1.384 . S
C385 H407 0.929 . S
C386 O396 1.241 . S
C386 O397 1.273 . S
C387 O398 1.251 . S
C387 O399 1.268 . S
O388 Nd368 2.500 . S
O388 C370 1.258 . S
O389 Nd368 2.492 . S
O389 C370 1.239 . S
O390 Nd368 2.487 . S
O390 C377 1.241 . S
O391 Nd368 2.682 . S
O391 Nd369 2.414 . S
O391 C377 1.273 . S
O392 Nd368 2.410 . S
O392 C378 1.251 . S
O393 Nd369 2.424 . S
O393 C378 1.268 . S
O394 Nd369 2.500 . S
O394 C379 1.258 . S
O395 Nd369 2.492 . S
O395 C379 1.239 . S
O396 Nd369 2.487 . S
O396 C386 1.241 . S
O397 Nd368 2.414 . S
O397 Nd369 2.682 . S
O397 C386 1.273 . S
O398 Nd369 2.410 . S
O398 C387 1.251 . S
O399 Nd368 2.424 . S
O399 C387 1.268 . S
H400 C372 0.930 . S
H401 C373 0.929 . S
H402 C375 0.930 . S
H403 C376 0.929 . S
H404 C381 0.930 . S
H405 C382 0.929 . S
H406 C384 0.930 . S
H407 C385 0.929 . S
Nd408 C410 2.836 . S
Nd408 O428 2.500 . S
Nd408 O429 2.492 . S
Nd408 O430 2.487 1_655 S
Nd408 O431 2.682 1_655 S
Nd408 O432 2.410 . S
Nd408 O437 2.414 1_554 S
Nd408 O439 2.424 1_655 S
Nd409 C419 2.836 . S
Nd409 O431 2.414 1_556 S
Nd409 O433 2.424 1_455 S
Nd409 O434 2.500 . S
Nd409 O435 2.492 . S
Nd409 O436 2.487 1_455 S
Nd409 O437 2.682 1_455 S
Nd409 O438 2.410 . S
C410 Nd408 2.836 . S
C410 C411 1.498 . S
C410 O428 1.258 . S
C410 O429 1.239 . S
C411 C410 1.498 . S
C411 C412 1.366 . S
C411 C416 1.407 . S
C412 C411 1.366 . S
C412 C413 1.392 . S
C412 H440 0.930 . S
C413 C412 1.392 . S
C413 C414 1.398 . S
C413 H441 0.929 . S
C414 C413 1.398 . S
C414 C415 1.352 . S
C415 C414 1.352 . S
C415 C416 1.384 . S
C415 H442 0.930 . S
C416 C411 1.407 . S
C416 C415 1.384 . S
C416 H443 0.929 . S
C417 O430 1.241 . S
C417 O431 1.273 . S
C418 O432 1.251 1_556 S
C418 O433 1.268 . S
C419 Nd409 2.836 . S
C419 C420 1.498 . S
C419 O434 1.258 . S
C419 O435 1.239 . S
C420 C419 1.498 . S
C420 C421 1.366 . S
C420 C425 1.407 . S
C421 C420 1.366 . S
C421 C422 1.392 . S
C421 H444 0.930 . S
C422 C421 1.392 . S
C422 C423 1.398 . S
C422 H445 0.929 . S
C423 C422 1.398 . S
C423 C424 1.352 . S
C424 C423 1.352 . S
C424 C425 1.384 . S
C424 H446 0.930 . S
C425 C420 1.407 . S
C425 C424 1.384 . S
C425 H447 0.929 . S
C426 O436 1.241 . S
C426 O437 1.273 . S
C427 O438 1.251 1_554 S
C427 O439 1.268 . S
O428 Nd408 2.500 . S
O428 C410 1.258 . S
O429 Nd408 2.492 . S
O429 C410 1.239 . S
O430 Nd408 2.487 1_455 S
O430 C417 1.241 . S
O431 Nd408 2.682 1_455 S
O431 Nd409 2.414 1_554 S
O431 C417 1.273 . S
O432 Nd408 2.410 . S
O432 C418 1.251 1_554 S
O433 Nd409 2.424 1_655 S
O433 C418 1.268 . S
O434 Nd409 2.500 . S
O434 C419 1.258 . S
O435 Nd409 2.492 . S
O435 C419 1.239 . S
O436 Nd409 2.487 1_655 S
O436 C426 1.241 . S
O437 Nd408 2.414 1_556 S
O437 Nd409 2.682 1_655 S
O437 C426 1.273 . S
O438 Nd409 2.410 . S
O438 C427 1.251 1_556 S
O439 Nd408 2.424 1_455 S
O439 C427 1.268 . S
H440 C412 0.930 . S
H441 C413 0.929 . S
H442 C415 0.930 . S
H443 C416 0.929 . S
H444 C421 0.930 . S
H445 C422 0.929 . S
H446 C424 0.930 . S
H447 C425 0.929 . S
H448 C460 0.930 . S
H449 C462 0.930 . S
H450 C463 0.930 . S
H451 C467 0.959 . S
H452 C467 0.959 . S
H453 C467 0.961 . S
H454 C468 0.960 . S
H455 C468 0.961 . S
H456 C468 0.959 . S
H457 C471 0.929 . S
H458 C472 0.931 . S
H459 C474 0.930 . S
C460 H448 0.930 . S
C460 C461 1.399 . S
C460 C465 1.399 . S
C461 C460 1.399 . S
C461 C462 1.376 . S
C462 H449 0.930 . S
C462 C461 1.376 . S
C462 C463 1.388 . S
C463 H450 0.930 . S
C463 C462 1.388 . S
C463 C464 1.390 . S
C464 C463 1.390 . S
C464 C465 1.394 . S
C464 C470 1.465 . S
C465 C460 1.399 . S
C465 C464 1.394 . S
C465 C466 1.516 . S
C466 C465 1.516 . S
C466 C467 1.502 . S
C466 C468 1.561 . S
C466 C469 1.526 . S
C467 H451 0.959 . S
C467 H452 0.959 . S
C467 H453 0.961 . S
C467 C466 1.502 . S
C468 H454 0.960 . S
C468 H455 0.961 . S
C468 H456 0.959 . S
C468 C466 1.561 . S
C469 C466 1.526 . S
C469 C470 1.396 . S
C469 C474 1.390 . S
C470 C464 1.465 . S
C470 C469 1.396 . S
C470 C471 1.399 . S
C471 H457 0.929 . S
C471 C470 1.399 . S
C471 C472 1.385 . S
C472 H458 0.931 . S
C472 C471 1.385 . S
C472 C473 1.389 . S
C473 C472 1.389 . S
C473 C474 1.387 . S
C474 H459 0.930 . S
C474 C469 1.390 . S
C474 C473 1.387 . S
H475 C487 0.930 . S
H476 C489 0.930 . S
H477 C490 0.930 . S
H478 C494 0.959 . S
H479 C494 0.959 . S
H480 C494 0.961 . S
H481 C495 0.960 . S
H482 C495 0.961 . S
H483 C495 0.959 . S
H484 C498 0.929 . S
H485 C499 0.931 . S
H486 C501 0.930 . S
C487 H475 0.930 . S
C487 C488 1.399 . S
C487 C492 1.399 . S
C488 C487 1.399 . S
C488 C489 1.376 . S
C489 H476 0.930 . S
C489 C488 1.376 . S
C489 C490 1.388 . S
C490 H477 0.930 . S
C490 C489 1.388 . S
C490 C491 1.390 . S
C491 C490 1.390 . S
C491 C492 1.394 . S
C491 C497 1.465 . S
C492 C487 1.399 . S
C492 C491 1.394 . S
C492 C493 1.516 . S
C493 C492 1.516 . S
C493 C494 1.502 . S
C493 C495 1.561 . S
C493 C496 1.526 . S
C494 H478 0.959 . S
C494 H479 0.959 . S
C494 H480 0.961 . S
C494 C493 1.502 . S
C495 H481 0.960 . S
C495 H482 0.961 . S
C495 H483 0.959 . S
C495 C493 1.561 . S
C496 C493 1.526 . S
C496 C497 1.396 . S
C496 C501 1.390 . S
C497 C491 1.465 . S
C497 C496 1.396 . S
C497 C498 1.399 . S
C498 H484 0.929 . S
C498 C497 1.399 . S
C498 C499 1.385 . S
C499 H485 0.931 . S
C499 C498 1.385 . S
C499 C500 1.389 . S
C500 C499 1.389 . S
C500 C501 1.387 . S
C501 H486 0.930 . S
C501 C496 1.390 . S
C501 C500 1.387 . S
H502 C514 0.930 . S
H503 C516 0.930 . S
H504 C517 0.930 . S
H505 C521 0.959 . S
H506 C521 0.959 . S
H507 C521 0.961 . S
H508 C522 0.960 . S
H509 C522 0.961 . S
H510 C522 0.959 . S
H511 C525 0.929 . S
H512 C526 0.931 . S
H513 C528 0.930 . S
C514 H502 0.930 . S
C514 C515 1.399 . S
C514 C519 1.399 . S
C515 C514 1.399 . S
C515 C516 1.376 . S
C516 H503 0.930 . S
C516 C515 1.376 . S
C516 C517 1.388 . S
C517 H504 0.930 . S
C517 C516 1.388 . S
C517 C518 1.390 . S
C518 C517 1.390 . S
C518 C519 1.394 . S
C518 C524 1.465 . S
C519 C514 1.399 . S
C519 C518 1.394 . S
C519 C520 1.516 . S
C520 C519 1.516 . S
C520 C521 1.502 . S
C520 C522 1.561 . S
C520 C523 1.526 . S
C521 H505 0.959 . S
C521 H506 0.959 . S
C521 H507 0.961 . S
C521 C520 1.502 . S
C522 H508 0.960 . S
C522 H509 0.961 . S
C522 H510 0.959 . S
C522 C520 1.561 . S
C523 C520 1.526 . S
C523 C524 1.396 . S
C523 C528 1.390 . S
C524 C518 1.465 . S
C524 C523 1.396 . S
C524 C525 1.399 . S
C525 H511 0.929 . S
C525 C524 1.399 . S
C525 C526 1.385 . S
C526 H512 0.931 . S
C526 C525 1.385 . S
C526 C527 1.389 . S
C527 C526 1.389 . S
C527 C528 1.387 . S
C528 H513 0.930 . S
C528 C523 1.390 . S
C528 C527 1.387 . S
H529 C541 0.930 . S
H530 C543 0.930 . S
H531 C544 0.930 . S
H532 C548 0.959 . S
H533 C548 0.959 . S
H534 C548 0.961 . S
H535 C549 0.960 . S
H536 C549 0.961 . S
H537 C549 0.959 . S
H538 C552 0.929 . S
H539 C553 0.931 . S
H540 C555 0.930 . S
C541 H529 0.930 . S
C541 C542 1.399 . S
C541 C546 1.399 . S
C542 C541 1.399 . S
C542 C543 1.376 . S
C543 H530 0.930 . S
C543 C542 1.376 . S
C543 C544 1.388 . S
C544 H531 0.930 . S
C544 C543 1.388 . S
C544 C545 1.390 . S
C545 C544 1.390 . S
C545 C546 1.394 . S
C545 C551 1.465 . S
C546 C541 1.399 . S
C546 C545 1.394 . S
C546 C547 1.516 . S
C547 C546 1.516 . S
C547 C548 1.502 . S
C547 C549 1.561 . S
C547 C550 1.526 . S
C548 H532 0.959 . S
C548 H533 0.959 . S
C548 H534 0.961 . S
C548 C547 1.502 . S
C549 H535 0.960 . S
C549 H536 0.961 . S
C549 H537 0.959 . S
C549 C547 1.561 . S
C550 C547 1.526 . S
C550 C551 1.396 . S
C550 C555 1.390 . S
C551 C545 1.465 . S
C551 C550 1.396 . S
C551 C552 1.399 . S
C552 H538 0.929 . S
C552 C551 1.399 . S
C552 C553 1.385 . S
C553 H539 0.931 . S
C553 C552 1.385 . S
C553 C554 1.389 . S
C554 C553 1.389 . S
C554 C555 1.387 . S
C555 H540 0.930 . S
C555 C550 1.390 . S
C555 C554 1.387 . S
H556 C568 0.930 . S
H557 C570 0.930 . S
H558 C571 0.930 . S
H559 C575 0.959 . S
H560 C575 0.959 . S
H561 C575 0.961 . S
H562 C576 0.960 . S
H563 C576 0.961 . S
H564 C576 0.959 . S
H565 C579 0.929 . S
H566 C580 0.931 . S
H567 C582 0.930 . S
C568 H556 0.930 . S
C568 C569 1.399 . S
C568 C573 1.399 . S
C569 C568 1.399 . S
C569 C570 1.376 . S
C570 H557 0.930 . S
C570 C569 1.376 . S
C570 C571 1.388 . S
C571 H558 0.930 . S
C571 C570 1.388 . S
C571 C572 1.390 . S
C572 C571 1.390 . S
C572 C573 1.394 . S
C572 C578 1.465 . S
C573 C568 1.399 . S
C573 C572 1.394 . S
C573 C574 1.516 . S
C574 C573 1.516 . S
C574 C575 1.502 1_554 S
C574 C576 1.561 . S
C574 C577 1.526 . S
C575 H559 0.959 . S
C575 H560 0.959 . S
C575 H561 0.961 . S
C575 C574 1.502 1_556 S
C576 H562 0.960 . S
C576 H563 0.961 . S
C576 H564 0.959 . S
C576 C574 1.561 . S
C577 C574 1.526 . S
C577 C578 1.396 . S
C577 C582 1.390 . S
C578 C572 1.465 . S
C578 C577 1.396 . S
C578 C579 1.399 . S
C579 H565 0.929 . S
C579 C578 1.399 . S
C579 C580 1.385 . S
C580 H566 0.931 . S
C580 C579 1.385 . S
C580 C581 1.389 . S
C581 C580 1.389 . S
C581 C582 1.387 . S
C582 H567 0.930 . S
C582 C577 1.390 . S
C582 C581 1.387 . S
H583 C595 0.930 . S
H584 C597 0.930 . S
H585 C598 0.930 . S
H586 C602 0.959 . S
H587 C602 0.959 . S
H588 C602 0.961 . S
H589 C603 0.960 . S
H590 C603 0.961 . S
H591 C603 0.959 . S
H592 C606 0.929 . S
H593 C607 0.931 . S
H594 C609 0.930 . S
C595 H583 0.930 . S
C595 C596 1.399 . S
C595 C600 1.399 . S
C596 C595 1.399 . S
C596 C597 1.376 . S
C597 H584 0.930 . S
C597 C596 1.376 . S
C597 C598 1.388 . S
C598 H585 0.930 . S
C598 C597 1.388 . S
C598 C599 1.390 . S
C599 C598 1.390 . S
C599 C600 1.394 . S
C599 C605 1.465 . S
C600 C595 1.399 . S
C600 C599 1.394 . S
C600 C601 1.516 . S
C601 C600 1.516 . S
C601 C602 1.502 . S
C601 C603 1.561 . S
C601 C604 1.526 . S
C602 H586 0.959 . S
C602 H587 0.959 . S
C602 H588 0.961 . S
C602 C601 1.502 . S
C603 H589 0.960 . S
C603 H590 0.961 . S
C603 H591 0.959 . S
C603 C601 1.561 . S
C604 C601 1.526 . S
C604 C605 1.396 . S
C604 C609 1.390 . S
C605 C599 1.465 . S
C605 C604 1.396 . S
C605 C606 1.399 . S
C606 H592 0.929 . S
C606 C605 1.399 . S
C606 C607 1.385 . S
C607 H593 0.931 . S
C607 C606 1.385 . S
C607 C608 1.389 . S
C608 C607 1.389 . S
C608 C609 1.387 . S
C609 H594 0.930 . S
C609 C604 1.390 . S
C609 C608 1.387 . S
H610 C622 0.930 . S
H611 C624 0.930 . S
H612 C625 0.930 . S
H613 C629 0.959 . S
H614 C629 0.959 . S
H615 C629 0.961 . S
H616 C630 0.960 . S
H617 C630 0.961 . S
H618 C630 0.959 . S
H619 C633 0.929 . S
H620 C634 0.931 . S
H621 C636 0.930 . S
C622 H610 0.930 . S
C622 C623 1.399 . S
C622 C627 1.399 . S
C623 C622 1.399 . S
C623 C624 1.376 . S
C624 H611 0.930 . S
C624 C623 1.376 . S
C624 C625 1.388 . S
C625 H612 0.930 . S
C625 C624 1.388 . S
C625 C626 1.390 . S
C626 C625 1.390 . S
C626 C627 1.394 . S
C626 C632 1.465 . S
C627 C622 1.399 . S
C627 C626 1.394 . S
C627 C628 1.516 . S
C628 C627 1.516 . S
C628 C629 1.502 . S
C628 C630 1.561 . S
C628 C631 1.526 . S
C629 H613 0.959 . S
C629 H614 0.959 . S
C629 H615 0.961 . S
C629 C628 1.502 . S
C630 H616 0.960 . S
C630 H617 0.961 . S
C630 H618 0.959 . S
C630 C628 1.561 . S
C631 C628 1.526 . S
C631 C632 1.396 . S
C631 C636 1.390 . S
C632 C626 1.465 . S
C632 C631 1.396 . S
C632 C633 1.399 . S
C633 H619 0.929 . S
C633 C632 1.399 . S
C633 C634 1.385 . S
C634 H620 0.931 . S
C634 C633 1.385 . S
C634 C635 1.389 . S
C635 C634 1.389 . S
C635 C636 1.387 . S
C636 H621 0.930 . S
C636 C631 1.390 . S
C636 C635 1.387 . S
H637 C649 0.930 . S
H638 C651 0.930 . S
H639 C652 0.930 . S
H640 C656 0.959 . S
H641 C656 0.959 . S
H642 C656 0.961 . S
H643 C657 0.960 . S
H644 C657 0.961 . S
H645 C657 0.959 . S
H646 C660 0.929 . S
H647 C661 0.931 . S
H648 C663 0.930 . S
C649 H637 0.930 . S
C649 C650 1.399 . S
C649 C654 1.399 . S
C650 C649 1.399 . S
C650 C651 1.376 . S
C651 H638 0.930 . S
C651 C650 1.376 . S
C651 C652 1.388 . S
C652 H639 0.930 . S
C652 C651 1.388 . S
C652 C653 1.390 . S
C653 C652 1.390 . S
C653 C654 1.394 . S
C653 C659 1.465 . S
C654 C649 1.399 . S
C654 C653 1.394 . S
C654 C655 1.516 . S
C655 C654 1.516 . S
C655 C656 1.502 . S
C655 C657 1.561 . S
C655 C658 1.526 . S
C656 H640 0.959 . S
C656 H641 0.959 . S
C656 H642 0.961 . S
C656 C655 1.502 . S
C657 H643 0.960 . S
C657 H644 0.961 . S
C657 H645 0.959 . S
C657 C655 1.561 . S
C658 C655 1.526 . S
C658 C659 1.396 . S
C658 C663 1.390 . S
C659 C653 1.465 . S
C659 C658 1.396 . S
C659 C660 1.399 . S
C660 H646 0.929 . S
C660 C659 1.399 . S
C660 C661 1.385 . S
C661 H647 0.931 . S
C661 C660 1.385 . S
C661 C662 1.389 . S
C662 C661 1.389 . S
C662 C663 1.387 . S
C663 H648 0.930 . S
C663 C658 1.390 . S
C663 C662 1.387 . S
H664 C676 0.930 . S
H665 C678 0.930 . S
H666 C679 0.930 1_556 S
H667 C683 0.959 . S
H668 C683 0.959 . S
H669 C683 0.961 . S
H670 C684 0.960 . S
H671 C684 0.961 . S
H672 C684 0.959 . S
H673 C687 0.929 . S
H674 C688 0.931 . S
H675 C690 0.930 . S
C676 H664 0.930 . S
C676 C677 1.399 . S
C676 C681 1.399 . S
C677 C676 1.399 . S
C677 C678 1.376 . S
C678 H665 0.930 . S
C678 C677 1.376 . S
C678 C679 1.388 . S
C679 H666 0.930 1_554 S
C679 C678 1.388 . S
C679 C680 1.390 . S
C680 C679 1.390 . S
C680 C681 1.394 . S
C680 C686 1.465 . S
C681 C676 1.399 . S
C681 C680 1.394 . S
C681 C682 1.516 . S
C682 C681 1.516 . S
C682 C683 1.502 . S
C682 C684 1.561 . S
C682 C685 1.526 . S
C683 H667 0.959 . S
C683 H668 0.959 . S
C683 H669 0.961 . S
C683 C682 1.502 . S
C684 H670 0.960 . S
C684 H671 0.961 . S
C684 H672 0.959 . S
C684 C682 1.561 . S
C685 C682 1.526 . S
C685 C686 1.396 . S
C685 C690 1.390 . S
C686 C680 1.465 . S
C686 C685 1.396 . S
C686 C687 1.399 1_554 S
C687 H673 0.929 . S
C687 C686 1.399 1_556 S
C687 C688 1.385 . S
C688 H674 0.931 . S
C688 C687 1.385 . S
C688 C689 1.389 1_556 S
C689 C688 1.389 1_554 S
C689 C690 1.387 . S
C690 H675 0.930 . S
C690 C685 1.390 . S
C690 C689 1.387 . S
H691 C703 0.930 . S
H692 C705 0.930 . S
H693 C706 0.930 . S
H694 C710 0.959 . S
H695 C710 0.959 . S
H696 C710 0.961 . S
H697 C711 0.960 . S
H698 C711 0.961 . S
H699 C711 0.959 . S
H700 C714 0.929 . S
H701 C715 0.931 . S
H702 C717 0.930 . S
C703 H691 0.930 . S
C703 C704 1.399 . S
C703 C708 1.399 . S
C704 C703 1.399 . S
C704 C705 1.376 . S
C705 H692 0.930 . S
C705 C704 1.376 . S
C705 C706 1.388 . S
C706 H693 0.930 . S
C706 C705 1.388 . S
C706 C707 1.390 . S
C707 C706 1.390 . S
C707 C708 1.394 . S
C707 C713 1.465 . S
C708 C703 1.399 . S
C708 C707 1.394 . S
C708 C709 1.516 . S
C709 C708 1.516 . S
C709 C710 1.502 . S
C709 C711 1.561 . S
C709 C712 1.526 . S
C710 H694 0.959 . S
C710 H695 0.959 . S
C710 H696 0.961 . S
C710 C709 1.502 . S
C711 H697 0.960 . S
C711 H698 0.961 . S
C711 H699 0.959 . S
C711 C709 1.561 . S
C712 C709 1.526 . S
C712 C713 1.396 . S
C712 C717 1.390 . S
C713 C707 1.465 . S
C713 C712 1.396 . S
C713 C714 1.399 . S
C714 H700 0.929 . S
C714 C713 1.399 . S
C714 C715 1.385 . S
C715 H701 0.931 . S
C715 C714 1.385 . S
C715 C716 1.389 . S
C716 C715 1.389 . S
C716 C717 1.387 . S
C717 H702 0.930 . S
C717 C712 1.390 . S
C717 C716 1.387 . S
H718 C730 0.930 . S
H719 C732 0.930 . S
H720 C733 0.930 . S
H721 C737 0.959 . S
H722 C737 0.959 . S
H723 C737 0.961 . S
H724 C738 0.960 . S
H725 C738 0.961 . S
H726 C738 0.959 . S
H727 C741 0.929 . S
H728 C742 0.931 . S
H729 C744 0.930 . S
C730 H718 0.930 . S
C730 C731 1.399 . S
C730 C735 1.399 . S
C731 C730 1.399 . S
C731 C732 1.376 . S
C732 H719 0.930 . S
C732 C731 1.376 . S
C732 C733 1.388 . S
C733 H720 0.930 . S
C733 C732 1.388 . S
C733 C734 1.390 . S
C734 C733 1.390 . S
C734 C735 1.394 . S
C734 C740 1.465 . S
C735 C730 1.399 . S
C735 C734 1.394 . S
C735 C736 1.516 . S
C736 C735 1.516 . S
C736 C737 1.502 . S
C736 C738 1.561 . S
C736 C739 1.526 . S
C737 H721 0.959 . S
C737 H722 0.959 . S
C737 H723 0.961 . S
C737 C736 1.502 . S
C738 H724 0.960 . S
C738 H725 0.961 . S
C738 H726 0.959 . S
C738 C736 1.561 . S
C739 C736 1.526 . S
C739 C740 1.396 . S
C739 C744 1.390 . S
C740 C734 1.465 . S
C740 C739 1.396 . S
C740 C741 1.399 . S
C741 H727 0.929 . S
C741 C740 1.399 . S
C741 C742 1.385 . S
C742 H728 0.931 . S
C742 C741 1.385 . S
C742 C743 1.389 . S
C743 C742 1.389 . S
C743 C744 1.387 . S
C744 H729 0.930 . S
C744 C739 1.390 . S
C744 C743 1.387 . S
H745 C757 0.930 . S
H746 C759 0.930 . S
H747 C760 0.930 . S
H748 C764 0.959 . S
H749 C764 0.959 . S
H750 C764 0.961 . S
H751 C765 0.960 . S
H752 C765 0.961 . S
H753 C765 0.959 . S
H754 C768 0.929 . S
H755 C769 0.931 . S
H756 C771 0.930 . S
C757 H745 0.930 . S
C757 C758 1.399 . S
C757 C762 1.399 . S
C758 C757 1.399 . S
C758 C759 1.376 . S
C759 H746 0.930 . S
C759 C758 1.376 . S
C759 C760 1.388 . S
C760 H747 0.930 . S
C760 C759 1.388 . S
C760 C761 1.390 . S
C761 C760 1.390 . S
C761 C762 1.394 . S
C761 C767 1.465 . S
C762 C757 1.399 . S
C762 C761 1.394 . S
C762 C763 1.516 . S
C763 C762 1.516 . S
C763 C764 1.502 . S
C763 C765 1.561 . S
C763 C766 1.526 . S
C764 H748 0.959 . S
C764 H749 0.959 . S
C764 H750 0.961 . S
C764 C763 1.502 . S
C765 H751 0.960 . S
C765 H752 0.961 . S
C765 H753 0.959 . S
C765 C763 1.561 . S
C766 C763 1.526 . S
C766 C767 1.396 . S
C766 C771 1.390 . S
C767 C761 1.465 . S
C767 C766 1.396 . S
C767 C768 1.399 . S
C768 H754 0.929 . S
C768 C767 1.399 . S
C768 C769 1.385 . S
C769 H755 0.931 . S
C769 C768 1.385 . S
C769 C770 1.389 . S
C770 C769 1.389 . S
C770 C771 1.387 . S
C771 H756 0.930 . S
C771 C766 1.390 . S
C771 C770 1.387 . S
H772 C784 0.930 . S
H773 C786 0.930 . S
H774 C787 0.930 . S
H775 C791 0.959 . S
H776 C791 0.948 1_545 S
H777 C791 0.961 . S
H778 C792 0.960 . S
H779 C792 0.961 . S
H780 C792 0.959 . S
H781 C795 0.929 . S
H782 C796 0.931 . S
H783 C798 0.930 . S
C784 H772 0.930 . S
C784 C785 1.399 . S
C784 C789 1.399 . S
C785 C784 1.399 . S
C785 C786 1.376 . S
C786 H773 0.930 . S
C786 C785 1.376 . S
C786 C787 1.388 . S
C787 H774 0.930 . S
C787 C786 1.388 . S
C787 C788 1.390 . S
C788 C787 1.390 . S
C788 C789 1.394 . S
C788 C794 1.465 . S
C789 C784 1.399 . S
C789 C788 1.394 . S
C789 C790 1.516 . S
C790 C789 1.516 . S
C790 C791 1.502 . S
C790 C792 1.561 . S
C790 C793 1.526 . S
C791 H775 0.959 . S
C791 H776 0.948 1_565 S
C791 H777 0.961 . S
C791 C790 1.502 . S
C792 H778 0.960 . S
C792 H779 0.961 . S
C792 H780 0.959 . S
C792 C790 1.561 . S
C793 C790 1.526 . S
C793 C794 1.396 . S
C793 C798 1.390 . S
C794 C788 1.465 . S
C794 C793 1.396 . S
C794 C795 1.399 . S
C795 H781 0.929 . S
C795 C794 1.399 . S
C795 C796 1.385 . S
C796 H782 0.931 . S
C796 C795 1.385 . S
C796 C797 1.389 . S
C797 C796 1.389 . S
C797 C798 1.387 . S
C798 H783 0.930 . S
C798 C793 1.390 . S
C798 C797 1.387 . S
H799 C811 0.930 . S
H800 C813 0.930 . S
H801 C814 0.930 . S
H802 C818 0.959 . S
H803 C818 0.959 . S
H804 C818 0.961 . S
H805 C819 0.960 . S
H806 C819 0.961 . S
H807 C819 0.959 . S
H808 C822 0.929 . S
H809 C823 0.931 . S
H810 C825 0.930 . S
C811 H799 0.930 . S
C811 C812 1.399 . S
C811 C816 1.399 . S
C812 C811 1.399 . S
C812 C813 1.376 . S
C813 H800 0.930 . S
C813 C812 1.376 . S
C813 C814 1.388 . S
C814 H801 0.930 . S
C814 C813 1.388 . S
C814 C815 1.390 . S
C815 C814 1.390 . S
C815 C816 1.394 . S
C815 C821 1.465 . S
C816 C811 1.399 . S
C816 C815 1.394 . S
C816 C817 1.516 . S
C817 C816 1.516 . S
C817 C818 1.502 . S
C817 C819 1.561 . S
C817 C820 1.526 . S
C818 H802 0.959 . S
C818 H803 0.959 . S
C818 H804 0.961 . S
C818 C817 1.502 . S
C819 H805 0.960 . S
C819 H806 0.961 . S
C819 H807 0.959 . S
C819 C817 1.561 . S
C820 C817 1.526 . S
C820 C821 1.396 . S
C820 C825 1.390 . S
C821 C815 1.465 . S
C821 C820 1.396 . S
C821 C822 1.399 . S
C822 H808 0.929 . S
C822 C821 1.399 . S
C822 C823 1.385 . S
C823 H809 0.931 . S
C823 C822 1.385 . S
C823 C824 1.389 . S
C824 C823 1.389 . S
C824 C825 1.387 . S
C825 H810 0.930 . S
C825 C820 1.390 . S
C825 C824 1.387 . S
H826 C838 0.930 . S
H827 C840 0.930 . S
H828 C841 0.930 . S
H829 C845 0.959 . S
H830 C845 0.959 . S
H831 C845 0.961 . S
H832 C846 0.960 . S
H833 C846 0.961 . S
H834 C846 0.959 . S
H835 C849 0.929 . S
H836 C850 0.931 . S
H837 C852 0.930 . S
C838 H826 0.930 . S
C838 C839 1.399 . S
C838 C843 1.399 . S
C839 C838 1.399 . S
C839 C840 1.376 . S
C840 H827 0.930 . S
C840 C839 1.376 . S
C840 C841 1.388 . S
C841 H828 0.930 . S
C841 C840 1.388 . S
C841 C842 1.390 . S
C842 C841 1.390 . S
C842 C843 1.394 . S
C842 C848 1.465 . S
C843 C838 1.399 . S
C843 C842 1.394 . S
C843 C844 1.516 . S
C844 C843 1.516 . S
C844 C845 1.502 . S
C844 C846 1.561 . S
C844 C847 1.526 . S
C845 H829 0.959 . S
C845 H830 0.959 . S
C845 H831 0.961 . S
C845 C844 1.502 . S
C846 H832 0.960 . S
C846 H833 0.961 . S
C846 H834 0.959 . S
C846 C844 1.561 . S
C847 C844 1.526 . S
C847 C848 1.396 . S
C847 C852 1.390 . S
C848 C842 1.465 . S
C848 C847 1.396 . S
C848 C849 1.399 . S
C849 H835 0.929 . S
C849 C848 1.399 . S
C849 C850 1.385 . S
C850 H836 0.931 . S
C850 C849 1.385 . S
C850 C851 1.389 . S
C851 C850 1.389 . S
C851 C852 1.387 . S
C852 H837 0.930 . S
C852 C847 1.390 . S
C852 C851 1.387 . S
H853 C865 0.930 . S
H854 C867 0.930 . S
H855 C868 0.930 . S
H856 C872 0.959 . S
H857 C872 0.959 . S
H858 C872 0.961 . S
H859 C873 0.960 . S
H860 C873 0.961 . S
H861 C873 0.959 . S
H862 C876 0.929 . S
H863 C877 0.931 . S
H864 C879 0.930 . S
C865 H853 0.930 . S
C865 C866 1.399 . S
C865 C870 1.399 . S
C866 C865 1.399 . S
C866 C867 1.376 . S
C867 H854 0.930 . S
C867 C866 1.376 . S
C867 C868 1.388 . S
C868 H855 0.930 . S
C868 C867 1.388 . S
C868 C869 1.390 . S
C869 C868 1.390 . S
C869 C870 1.394 . S
C869 C875 1.465 . S
C870 C865 1.399 . S
C870 C869 1.394 . S
C870 C871 1.516 . S
C871 C870 1.516 . S
C871 C872 1.502 . S
C871 C873 1.561 . S
C871 C874 1.526 . S
C872 H856 0.959 . S
C872 H857 0.959 . S
C872 H858 0.961 . S
C872 C871 1.502 . S
C873 H859 0.960 . S
C873 H860 0.961 . S
C873 H861 0.959 . S
C873 C871 1.561 . S
C874 C871 1.526 . S
C874 C875 1.396 . S
C874 C879 1.390 . S
C875 C869 1.465 . S
C875 C874 1.396 . S
C875 C876 1.399 . S
C876 H862 0.929 . S
C876 C875 1.399 . S
C876 C877 1.385 . S
C877 H863 0.931 . S
C877 C876 1.385 . S
C877 C878 1.389 . S
C878 C877 1.389 . S
C878 C879 1.387 . S
C879 H864 0.930 . S
C879 C874 1.390 . S
C879 C878 1.387 . S
H880 C892 0.930 . S
H881 C894 0.930 . S
H882 C895 0.930 . S
H883 C899 0.959 . S
H884 C899 0.959 . S
H885 C899 0.961 . S
H886 C900 0.961 . S
H887 C900 0.961 1_554 S
H888 C900 0.959 . S
H889 C903 0.929 . S
H890 C904 0.931 . S
H891 C906 0.930 1_554 S
C892 H880 0.930 . S
C892 C893 1.399 . S
C892 C897 1.399 . S
C893 C892 1.399 . S
C893 C894 1.376 . S
C894 H881 0.930 . S
C894 C893 1.376 . S
C894 C895 1.388 . S
C895 H882 0.930 . S
C895 C894 1.388 . S
C895 C896 1.390 . S
C896 C895 1.390 . S
C896 C897 1.394 . S
C896 C902 1.465 . S
C897 C892 1.399 . S
C897 C896 1.394 . S
C897 C898 1.516 . S
C898 C897 1.516 . S
C898 C899 1.502 1_556 S
C898 C900 1.561 . S
C898 C901 1.526 . S
C899 H883 0.959 . S
C899 H884 0.959 . S
C899 H885 0.961 . S
C899 C898 1.502 1_554 S
C900 H886 0.961 . S
C900 H887 0.961 1_556 S
C900 H888 0.959 . S
C900 C898 1.561 . S
C901 C898 1.526 . S
C901 C902 1.396 . S
C901 C906 1.390 . S
C902 C896 1.465 . S
C902 C901 1.396 . S
C902 C903 1.399 . S
C903 H889 0.929 . S
C903 C902 1.399 . S
C903 C904 1.385 . S
C904 H890 0.931 . S
C904 C903 1.385 . S
C904 C905 1.389 . S
C905 C904 1.389 . S
C905 C906 1.387 . S
C906 H891 0.930 1_556 S
C906 C901 1.390 . S
C906 C905 1.387 . S
H907 C919 0.930 . S
H908 C921 0.930 . S
H909 C922 0.930 . S
H910 C926 0.959 . S
H911 C926 0.959 . S
H912 C926 0.961 . S
H913 C927 0.960 . S
H914 C927 0.961 . S
H915 C927 0.959 . S
H916 C930 0.929 . S
H917 C931 0.931 . S
H918 C933 0.930 . S
C919 H907 0.930 . S
C919 C920 1.399 . S
C919 C924 1.399 . S
C920 C919 1.399 . S
C920 C921 1.376 . S
C921 H908 0.930 . S
C921 C920 1.376 . S
C921 C922 1.388 . S
C922 H909 0.930 . S
C922 C921 1.388 . S
C922 C923 1.390 . S
C923 C922 1.390 . S
C923 C924 1.394 . S
C923 C929 1.465 . S
C924 C919 1.399 . S
C924 C923 1.394 . S
C924 C925 1.516 . S
C925 C924 1.516 . S
C925 C926 1.502 . S
C925 C927 1.561 . S
C925 C928 1.526 . S
C926 H910 0.959 . S
C926 H911 0.959 . S
C926 H912 0.961 . S
C926 C925 1.502 . S
C927 H913 0.960 . S
C927 H914 0.961 . S
C927 H915 0.959 . S
C927 C925 1.561 . S
C928 C925 1.526 . S
C928 C929 1.396 . S
C928 C933 1.390 . S
C929 C923 1.465 . S
C929 C928 1.396 . S
C929 C930 1.399 . S
C930 H916 0.929 . S
C930 C929 1.399 . S
C930 C931 1.385 . S
C931 H917 0.931 . S
C931 C930 1.385 . S
C931 C932 1.389 . S
C932 C931 1.389 . S
C932 C933 1.387 . S
C933 H918 0.930 . S
C933 C928 1.390 . S
C933 C932 1.387 . S
H934 C946 0.930 . S
H935 C948 0.930 . S
H936 C949 0.930 . S
H937 C953 0.959 . S
H938 C953 0.959 . S
H939 C953 0.961 . S
H940 C954 0.960 . S
H941 C954 0.961 . S
H942 C954 0.959 . S
H943 C957 0.929 . S
H944 C958 0.931 . S
H945 C960 0.930 . S
C946 H934 0.930 . S
C946 C947 1.399 . S
C946 C951 1.399 . S
C947 C946 1.399 . S
C947 C948 1.376 . S
C948 H935 0.930 . S
C948 C947 1.376 . S
C948 C949 1.388 . S
C949 H936 0.930 . S
C949 C948 1.388 . S
C949 C950 1.390 . S
C950 C949 1.390 . S
C950 C951 1.394 . S
C950 C956 1.465 . S
C951 C946 1.399 . S
C951 C950 1.394 . S
C951 C952 1.516 . S
C952 C951 1.516 . S
C952 C953 1.502 . S
C952 C954 1.561 . S
C952 C955 1.526 . S
C953 H937 0.959 . S
C953 H938 0.959 . S
C953 H939 0.961 . S
C953 C952 1.502 . S
C954 H940 0.960 . S
C954 H941 0.961 . S
C954 H942 0.959 . S
C954 C952 1.561 . S
C955 C952 1.526 . S
C955 C956 1.396 . S
C955 C960 1.390 . S
C956 C950 1.465 . S
C956 C955 1.396 . S
C956 C957 1.399 . S
C957 H943 0.929 . S
C957 C956 1.399 . S
C957 C958 1.385 . S
C958 H944 0.931 . S
C958 C957 1.385 . S
C958 C959 1.389 . S
C959 C958 1.389 . S
C959 C960 1.387 . S
C960 H945 0.930 . S
C960 C955 1.390 . S
C960 C959 1.387 . S
H961 C973 0.930 . S
H962 C975 0.930 . S
H963 C976 0.930 . S
H964 C980 0.959 . S
H965 C980 0.959 . S
H966 C980 0.961 . S
H967 C981 0.960 . S
H968 C981 0.961 . S
H969 C981 0.959 . S
H970 C984 0.929 . S
H971 C985 0.931 . S
H972 C987 0.930 . S
C973 H961 0.930 . S
C973 C974 1.399 . S
C973 C978 1.399 . S
C974 C973 1.399 . S
C974 C975 1.376 . S
C975 H962 0.930 . S
C975 C974 1.376 . S
C975 C976 1.388 . S
C976 H963 0.930 . S
C976 C975 1.388 . S
C976 C977 1.390 . S
C977 C976 1.390 . S
C977 C978 1.394 . S
C977 C983 1.465 . S
C978 C973 1.399 . S
C978 C977 1.394 . S
C978 C979 1.516 . S
C979 C978 1.516 . S
C979 C980 1.502 . S
C979 C981 1.561 . S
C979 C982 1.526 . S
C980 H964 0.959 . S
C980 H965 0.959 . S
C980 H966 0.961 . S
C980 C979 1.502 . S
C981 H967 0.960 . S
C981 H968 0.961 . S
C981 H969 0.959 . S
C981 C979 1.561 . S
C982 C979 1.526 . S
C982 C983 1.396 . S
C982 C987 1.390 . S
C983 C977 1.465 . S
C983 C982 1.396 . S
C983 C984 1.399 . S
C984 H970 0.929 . S
C984 C983 1.399 . S
C984 C985 1.385 . S
C985 H971 0.931 . S
C985 C984 1.385 . S
C985 C986 1.389 . S
C986 C985 1.389 . S
C986 C987 1.387 . S
C987 H972 0.930 . S
C987 C982 1.390 . S
C987 C986 1.387 . S
H988 C1000 0.930 . S
H989 C1002 0.930 . S
H990 C1003 0.930 1_554 S
H991 C1007 0.959 . S
H992 C1007 0.959 . S
H993 C1007 0.961 . S
H994 C1008 0.960 . S
H995 C1008 0.961 . S
H996 C1008 0.959 . S
H997 C1011 0.929 . S
H998 C1012 0.931 . S
H999 C1014 0.930 . S
C1000 H988 0.930 . S
C1000 C1001 1.399 . S
C1000 C1005 1.399 . S
C1001 C1000 1.399 . S
C1001 C1002 1.376 . S
C1002 H989 0.930 . S
C1002 C1001 1.376 . S
C1002 C1003 1.388 . S
C1003 H990 0.930 1_556 S
C1003 C1002 1.388 . S
C1003 C1004 1.390 . S
C1004 C1003 1.390 . S
C1004 C1005 1.394 . S
C1004 C1010 1.465 . S
C1005 C1000 1.399 . S
C1005 C1004 1.394 . S
C1005 C1006 1.516 . S
C1006 C1005 1.516 . S
C1006 C1007 1.502 . S
C1006 C1008 1.561 . S
C1006 C1009 1.526 . S
C1007 H991 0.959 . S
C1007 H992 0.959 . S
C1007 H993 0.961 . S
C1007 C1006 1.502 . S
C1008 H994 0.960 . S
C1008 H995 0.961 . S
C1008 H996 0.959 . S
C1008 C1006 1.561 . S
C1009 C1006 1.526 . S
C1009 C1010 1.396 . S
C1009 C1014 1.390 . S
C1010 C1004 1.465 . S
C1010 C1009 1.396 . S
C1010 C1011 1.399 1_556 S
C1011 H997 0.929 . S
C1011 C1010 1.399 1_554 S
C1011 C1012 1.385 . S
C1012 H998 0.931 . S
C1012 C1011 1.385 . S
C1012 C1013 1.389 1_554 S
C1013 C1012 1.389 1_556 S
C1013 C1014 1.387 . S
C1014 H999 0.930 . S
C1014 C1009 1.390 . S
C1014 C1013 1.387 . S
H1015 C1027 0.930 . S
H1016 C1029 0.930 . S
H1017 C1030 0.930 . S
H1018 C1034 0.959 . S
H1019 C1034 0.959 . S
H1020 C1034 0.961 . S
H1021 C1035 0.960 . S
H1022 C1035 0.961 . S
H1023 C1035 0.959 . S
H1024 C1038 0.929 . S
H1025 C1039 0.931 . S
H1026 C1041 0.930 . S
C1027 H1015 0.930 . S
C1027 C1028 1.399 . S
C1027 C1032 1.399 . S
C1028 C1027 1.399 . S
C1028 C1029 1.376 . S
C1029 H1016 0.930 . S
C1029 C1028 1.376 . S
C1029 C1030 1.388 . S
C1030 H1017 0.930 . S
C1030 C1029 1.388 . S
C1030 C1031 1.390 . S
C1031 C1030 1.390 . S
C1031 C1032 1.394 . S
C1031 C1037 1.465 . S
C1032 C1027 1.399 . S
C1032 C1031 1.394 . S
C1032 C1033 1.516 . S
C1033 C1032 1.516 . S
C1033 C1034 1.502 . S
C1033 C1035 1.561 . S
C1033 C1036 1.526 . S
C1034 H1018 0.959 . S
C1034 H1019 0.959 . S
C1034 H1020 0.961 . S
C1034 C1033 1.502 . S
C1035 H1021 0.960 . S
C1035 H1022 0.961 . S
C1035 H1023 0.959 . S
C1035 C1033 1.561 . S
C1036 C1033 1.526 . S
C1036 C1037 1.396 . S
C1036 C1041 1.390 . S
C1037 C1031 1.465 . S
C1037 C1036 1.396 . S
C1037 C1038 1.399 . S
C1038 H1024 0.929 . S
C1038 C1037 1.399 . S
C1038 C1039 1.385 . S
C1039 H1025 0.931 . S
C1039 C1038 1.385 . S
C1039 C1040 1.389 . S
C1040 C1039 1.389 . S
C1040 C1041 1.387 . S
C1041 H1026 0.930 . S
C1041 C1036 1.390 . S
C1041 C1040 1.387 . S
H1042 C1054 0.930 . S
H1043 C1056 0.930 . S
H1044 C1057 0.930 . S
H1045 C1061 0.959 . S
H1046 C1061 0.959 . S
H1047 C1061 0.961 . S
H1048 C1062 0.960 . S
H1049 C1062 0.961 . S
H1050 C1062 0.959 . S
H1051 C1065 0.929 . S
H1052 C1066 0.931 . S
H1053 C1068 0.930 . S
C1054 H1042 0.930 . S
C1054 C1055 1.399 . S
C1054 C1059 1.399 . S
C1055 C1054 1.399 . S
C1055 C1056 1.376 . S
C1056 H1043 0.930 . S
C1056 C1055 1.376 . S
C1056 C1057 1.388 . S
C1057 H1044 0.930 . S
C1057 C1056 1.388 . S
C1057 C1058 1.390 . S
C1058 C1057 1.390 . S
C1058 C1059 1.394 . S
C1058 C1064 1.465 . S
C1059 C1054 1.399 . S
C1059 C1058 1.394 . S
C1059 C1060 1.516 . S
C1060 C1059 1.516 . S
C1060 C1061 1.502 . S
C1060 C1062 1.561 . S
C1060 C1063 1.526 . S
C1061 H1045 0.959 . S
C1061 H1046 0.959 . S
C1061 H1047 0.961 . S
C1061 C1060 1.502 . S
C1062 H1048 0.960 . S
C1062 H1049 0.961 . S
C1062 H1050 0.959 . S
C1062 C1060 1.561 . S
C1063 C1060 1.526 . S
C1063 C1064 1.396 . S
C1063 C1068 1.390 . S
C1064 C1058 1.465 . S
C1064 C1063 1.396 . S
C1064 C1065 1.399 . S
C1065 H1051 0.929 . S
C1065 C1064 1.399 . S
C1065 C1066 1.385 . S
C1066 H1052 0.931 . S
C1066 C1065 1.385 . S
C1066 C1067 1.389 . S
C1067 C1066 1.389 . S
C1067 C1068 1.387 . S
C1068 H1053 0.930 . S
C1068 C1063 1.390 . S
C1068 C1067 1.387 . S
H1069 C1081 0.930 . S
H1070 C1083 0.930 . S
H1071 C1084 0.930 . S
H1072 C1088 0.959 . S
H1073 C1088 0.959 . S
H1074 C1088 0.961 . S
H1075 C1089 0.960 . S
H1076 C1089 0.961 . S
H1077 C1089 0.959 . S
H1078 C1092 0.929 . S
H1079 C1093 0.931 . S
H1080 C1095 0.930 . S
C1081 H1069 0.930 . S
C1081 C1082 1.399 . S
C1081 C1086 1.399 . S
C1082 C1081 1.399 . S
C1082 C1083 1.376 . S
C1083 H1070 0.930 . S
C1083 C1082 1.376 . S
C1083 C1084 1.388 . S
C1084 H1071 0.930 . S
C1084 C1083 1.388 . S
C1084 C1085 1.390 . S
C1085 C1084 1.390 . S
C1085 C1086 1.394 . S
C1085 C1091 1.465 . S
C1086 C1081 1.399 . S
C1086 C1085 1.394 . S
C1086 C1087 1.516 . S
C1087 C1086 1.516 . S
C1087 C1088 1.502 . S
C1087 C1089 1.561 . S
C1087 C1090 1.526 . S
C1088 H1072 0.959 . S
C1088 H1073 0.959 . S
C1088 H1074 0.961 . S
C1088 C1087 1.502 . S
C1089 H1075 0.960 . S
C1089 H1076 0.961 . S
C1089 H1077 0.959 . S
C1089 C1087 1.561 . S
C1090 C1087 1.526 . S
C1090 C1091 1.396 . S
C1090 C1095 1.390 . S
C1091 C1085 1.465 . S
C1091 C1090 1.396 . S
C1091 C1092 1.399 . S
C1092 H1078 0.929 . S
C1092 C1091 1.399 . S
C1092 C1093 1.385 . S
C1093 H1079 0.931 . S
C1093 C1092 1.385 . S
C1093 C1094 1.389 . S
C1094 C1093 1.389 . S
C1094 C1095 1.387 . S
C1095 H1080 0.930 . S
C1095 C1090 1.390 . S
C1095 C1094 1.387 . S
C461 C1 2.888 . S
C473 C307 2.858 . S
C488 C67 2.418 . S
C500 C338 2.506 . S
C527 C377 1.346 . S
C515 C97 1.400 . S
C542 C133 0.535 . S
C554 C414 0.525 . S
C581 C337 2.789 . S
C569 C25 2.869 . S
C608 C294 1.529 . S
C596 C37 1.519 . S
C635 C426 1.410 . S
C623 C103 1.471 . S
C662 C383 1.052 . S
C650 C109 1.028 . S
C677 C31 2.286 . S
C689 C427 2.301 . S
C716 C343 1.287 . S
C704 C73 1.256 . S
C731 C139 0.604 . S
C743 C306 0.562 . S
C758 C61 2.530 . S
C770 C378 2.548 . S
C797 C298 2.883 . S
C785 C175 2.899 . S
C812 C181 2.416 . S
C824 C347 2.488 . S
C839 C247 1.396 . S
C851 C386 1.343 . S
C866 C277 0.420 . S
C878 C423 0.490 . S
C893 C145 2.888 . S
C905 C346 2.791 . S
C932 C303 1.524 . S
C920 C211 1.486 . S
C959 C417 1.378 . S
C947 C217 1.445 . S
C986 C374 1.099 . S
C974 C283 1.040 . S
C1001 C169 2.282 . S
C1013 C418 2.292 . S
C1040 C334 1.289 . S
C1028 C241 1.275 . S
C1067 C297 0.683 . S
C1055 C253 0.507 . S
C1082 C205 2.540 . S
C1094 C387 2.556 . S
