# Generated by pormake.
# Topology tsx, (6,3)-cn, num edge types: 1
# Building blocks:
#     Node 0, Type 0, BuildingBlock: JUFBIX_clean_sbu_0, # of connection points: 6
#     Node 1, Type 0, BuildingBlock: JUFBIX_clean_sbu_0, # of connection points: 6
#     Node 2, Type 1, BuildingBlock: INOVEN_clean_linker_0, # of connection points: 3
#     Node 3, Type 1, BuildingBlock: INOVEN_clean_linker_0, # of connection points: 3
#     Node 4, Type 1, BuildingBlock: INOVEN_clean_linker_0, # of connection points: 3
#     Node 5, Type 1, BuildingBlock: INOVEN_clean_linker_0, # of connection points: 3
#     Edge 6, Type (0, 1), BuildingBlock: MIFKUJ_clean_linker_0, # of connection points: 2
#     Edge 7, Type (0, 1), BuildingBlock: MIFKUJ_clean_linker_0, # of connection points: 2
#     Edge 8, Type (0, 1), BuildingBlock: MIFKUJ_clean_linker_0, # of connection points: 2
#     Edge 9, Type (0, 1), BuildingBlock: MIFKUJ_clean_linker_0, # of connection points: 2
#     Edge 10, Type (0, 1), BuildingBlock: MIFKUJ_clean_linker_0, # of connection points: 2
#     Edge 11, Type (0, 1), BuildingBlock: MIFKUJ_clean_linker_0, # of connection points: 2
#     Edge 12, Type (0, 1), BuildingBlock: MIFKUJ_clean_linker_0, # of connection points: 2
#     Edge 13, Type (0, 1), BuildingBlock: MIFKUJ_clean_linker_0, # of connection points: 2
#     Edge 14, Type (0, 1), BuildingBlock: MIFKUJ_clean_linker_0, # of connection points: 2
#     Edge 15, Type (0, 1), BuildingBlock: MIFKUJ_clean_linker_0, # of connection points: 2
#     Edge 16, Type (0, 1), BuildingBlock: MIFKUJ_clean_linker_0, # of connection points: 2
#     Edge 17, Type (0, 1), BuildingBlock: MIFKUJ_clean_linker_0, # of connection points: 2
# Relax obj value: 0.097
# Max RMSD: 0.119
# Mean RMSD: 0.109
data_MOF--net-tsx--node1-JUFBIX_clean_sbu_0--node2-INOVEN_clean_linker_0--edge1-MIFKUJ_clean_linker_0
_symmetry_space_group_name_H-M    P1
_symmetry_Int_Tables_number       1
_symmetry_cell_setting            triclinic
loop_
_symmetry_equiv_pos_as_xyz
'x, y, z'
_cell_length_a     25.994528
_cell_length_b     30.618856
_cell_length_c     42.382901
_cell_angle_alpha  92.189492
_cell_angle_beta   98.48144
_cell_angle_gamma 97.148415
loop_
_atom_site_label
_atom_site_type_symbol
_atom_site_fract_x
_atom_site_fract_y
_atom_site_fract_z
_atom_type_partial_charge
Co0 Co 0.0535 0.98065 -0.00088 0.0
C1 C 0.99519 1.00298 0.94189 0.0
Co2 Co 0.98899 0.01989 0.00472 0.0
C3 C 0.12974 0.91631 0.00345 0.0
C4 C 0.14306 0.9671 0.97109 0.0
N5 N 0.11025 0.95228 0.99135 0.0
N6 N 0.17381 0.90883 0.99172 0.0
C7 C 0.18195 0.94073 0.97133 0.0
H8 H 0.11268 0.89665 0.02092 0.0
H9 H 0.13915 0.99564 0.95709 0.0
C10 C 0.0481 0.99947 0.06196 0.0
N11 N 0.93313 0.04879 0.01288 0.0
C12 C 0.91684 0.0864 0.0018 0.0
C13 C 0.90074 0.03585 0.03382 0.0
N14 N 0.87541 0.09723 0.01501 0.0
C15 C 0.86541 0.06534 0.03516 0.0
C16 C 0.96184 0.92726 0.00127 0.0
O17 O 0.07247 0.97759 0.04427 0.0
O18 O 0.01141 0.01983 0.04924 0.0
O19 O 0.94647 0.96462 0.00536 0.0
O20 O 0.00914 0.92561 0.99724 0.0
O21 O 0.96742 0.02029 0.95997 0.0
H22 H 0.90339 0.00719 0.04784 0.0
H23 H 0.93521 0.10543 0.98451 0.0
O24 O 0.03389 0.98446 0.95429 0.0
O25 O 0.09712 0.03619 0.00096 0.0
O26 O 0.03203 0.07454 0.00396 0.0
C27 C 0.0803 0.07338 0.00241 0.0
H28 H 0.21363 0.94448 0.95728 0.0
H29 H 0.8357 0.06401 0.05062 0.0
Co30 Co 0.54889 0.48269 0.50032 0.0
C31 C 0.49118 0.50664 0.44315 0.0
Co32 Co 0.48701 0.5249 0.50584 0.0
C33 C 0.62433 0.41753 0.5048 0.0
C34 C 0.635 0.46577 0.47023 0.0
N35 N 0.604 0.45269 0.49191 0.0
N36 N 0.66718 0.40892 0.49215 0.0
C37 C 0.67361 0.43918 0.47036 0.0
H38 H 0.60892 0.39941 0.52355 0.0
H39 H 0.63022 0.49344 0.45543 0.0
C40 C 0.5451 0.50218 0.56305 0.0
N41 N 0.43263 0.55532 0.51443 0.0
C42 C 0.41678 0.59295 0.50311 0.0
C43 C 0.40042 0.54314 0.53564 0.0
N44 N 0.37576 0.60446 0.51641 0.0
C45 C 0.3656 0.57307 0.53689 0.0
C46 C 0.45601 0.43257 0.50285 0.0
O47 O 0.56912 0.48014 0.54526 0.0
O48 O 0.50902 0.52324 0.55036 0.0
O49 O 0.44236 0.47079 0.50584 0.0
O50 O 0.50317 0.42891 0.49954 0.0
O51 O 0.46601 0.52695 0.46123 0.0
H52 H 0.40263 0.51452 0.54974 0.0
H53 H 0.43493 0.61136 0.48544 0.0
O54 O 0.52764 0.48565 0.45553 0.0
O55 O 0.59422 0.53722 0.50128 0.0
O56 O 0.53193 0.5782 0.50567 0.0
C57 C 0.57953 0.57518 0.50338 0.0
H58 H 0.70409 0.44178 0.4554 0.0
H59 H 0.33593 0.57226 0.55237 0.0
H60 H 0.07038 0.99669 0.49319 0.0
H61 H 0.13261 0.96163 0.40848 0.0
H62 H 0.02763 0.05981 0.40591 0.0
N63 N 0.01592 0.05825 0.46751 0.0
N64 N 0.01441 0.09759 0.46125 0.0
C65 C 0.07338 1.00075 0.46821 0.0
C66 C 0.10561 0.9761 0.45286 0.0
C67 C 0.04678 0.03216 0.4516 0.0
C68 C 0.05007 0.03695 0.419 0.0
C69 C 0.07978 0.01067 0.40298 0.0
C70 C 0.10848 0.98131 0.4204 0.0
H71 H 0.96951 0.99301 0.513 0.0
H72 H 0.89513 0.9584 0.59445 0.0
H73 H 0.01443 0.07046 0.60196 0.0
N74 N 0.03233 0.06328 0.54133 0.0
N75 N 0.04635 0.10224 0.55175 0.0
C76 C 0.96481 0.99957 0.53766 0.0
C77 C 0.92765 0.97249 0.55149 0.0
C78 C 0.99521 0.0357 0.55553 0.0
C79 C 0.98992 0.04332 0.5878 0.0
C80 C 0.95427 0.01538 0.60217 0.0
C81 C 0.92241 0.9806 0.58359 0.0
H82 H 0.56769 0.48879 0.99474 0.0
H83 H 0.63152 0.45509 0.9104 0.0
H84 H 0.52096 0.54901 0.90697 0.0
N85 N 0.51116 0.54883 0.9685 0.0
N86 N 0.51314 0.589 0.96409 0.0
C87 C 0.57023 0.49247 0.96967 0.0
C88 C 0.60361 0.46876 0.95454 0.0
C89 C 0.54215 0.52275 0.95275 0.0
C90 C 0.54475 0.52707 0.92008 0.0
C91 C 0.5757 0.50176 0.90422 0.0
C92 C 0.60615 0.47381 0.92202 0.0
H93 H 0.46994 0.49234 0.013 0.0
H94 H 0.40389 0.45708 0.09734 0.0
H95 H 0.52543 0.56669 0.10262 0.0
N96 N 0.53794 0.56034 0.04068 0.0
N97 N 0.55779 0.5975 0.05284 0.0
C98 C 0.46813 0.49824 0.03815 0.0
C99 C 0.4318 0.47142 0.05291 0.0
C100 C 0.50125 0.53341 0.05576 0.0
C101 C 0.49891 0.5406 0.08855 0.0
C102 C 0.46458 0.51265 0.10372 0.0
C103 C 0.43071 0.47861 0.08567 0.0
H104 H 0.05989 0.15864 0.00941 0.0
H105 H 0.12093 0.22623 0.00946 0.0
H106 H 0.24385 0.14898 0.99396 0.0
H107 H 0.18345 0.08133 0.99456 0.0
H108 H 0.28003 0.21137 0.03863 0.0
H109 H 0.18301 0.20651 0.93361 0.0
H110 H 0.10395 0.20016 0.8928 0.0
H111 H 0.05898 0.31727 0.93398 0.0
H112 H 0.13743 0.32399 0.97534 0.0
H113 H 0.45624 0.40047 0.01979 0.0
H114 H 0.3971 0.33242 0.00112 0.0
H115 H 0.26687 0.39145 0.02861 0.0
H116 H 0.32575 0.45908 0.04737 0.0
H117 H 0.23885 0.33623 0.97223 0.0
H118 H 0.33066 0.33472 0.08044 0.0
H119 H 0.4103 0.34154 0.12084 0.0
H120 H 0.46546 0.23523 0.07208 0.0
H121 H 0.38645 0.22832 0.03105 0.0
C122 C 0.09988 0.15604 0.00593 0.0
C123 C 0.11677 0.11456 0.00203 0.0
C124 C 0.13468 0.19473 0.00575 0.0
C125 C 0.1869 0.19277 0.00129 0.0
C126 C 0.20379 0.15138 0.99739 0.0
C127 C 0.16913 0.11271 0.99772 0.0
C128 C 0.22442 0.23381 0.00191 0.0
C129 C 0.27138 0.23824 0.0236 0.0
C130 C 0.21301 0.26929 0.98268 0.0
C131 C 0.16592 0.26555 0.95774 0.0
C132 C 0.15608 0.23074 0.93411 0.0
C133 C 0.1114 0.2271 0.91085 0.0
C134 C 0.07641 0.25824 0.91084 0.0
C135 C 0.0861 0.29315 0.93404 0.0
C136 C 0.13071 0.29693 0.95737 0.0
C137 C 0.4147 0.39923 0.02088 0.0
C138 C 0.3954 0.4347 0.03513 0.0
C139 C 0.38105 0.3604 0.01038 0.0
C140 C 0.32772 0.35678 0.01384 0.0
C141 C 0.30781 0.39354 0.02571 0.0
C142 C 0.34143 0.43205 0.03648 0.0
C143 C 0.29393 0.31356 0.00898 0.0
C144 C 0.24767 0.30888 0.98673 0.0
C145 C 0.30597 0.27772 0.02758 0.0
C146 C 0.35299 0.28133 0.05251 0.0
C147 C 0.35995 0.31301 0.07822 0.0
C148 C 0.40495 0.31687 0.10124 0.0
C149 C 0.44298 0.2889 0.09899 0.0
C150 C 0.436 0.25692 0.07376 0.0
C151 C 0.39114 0.25302 0.05061 0.0
H152 H 0.4778 0.29193 0.11683 0.0
H153 H 0.04184 0.25536 0.89282 0.0
H154 H 0.14312 0.82324 0.00277 0.0
H155 H 0.19866 0.76347 0.0061 0.0
H156 H 0.33382 0.85787 -0.00064 0.0
H157 H 0.27884 0.91694 0.99594 0.0
H158 H 0.32342 0.79151 0.95525 0.0
H159 H 0.31774 0.80691 0.06852 0.0
H160 H 0.27445 0.80763 0.1165 0.0
H161 H 0.20497 0.67344 0.09315 0.0
H162 H 0.24728 0.67212 0.04475 0.0
H163 H 0.53514 0.67504 0.97563 0.0
H164 H 0.4753 0.72595 0.98949 0.0
H165 H 0.3566 0.61574 0.99474 0.0
H166 H 0.41762 0.56471 0.98194 0.0
H167 H 0.35092 0.68353 0.03848 0.0
H168 H 0.35662 0.66735 0.92611 0.0
H169 H 0.40098 0.66523 0.8786 0.0
H170 H 0.46837 0.80034 0.89977 0.0
H171 H 0.42498 0.80307 0.94768 0.0
C172 C 0.18487 0.83115 0.00271 0.0
C173 C 0.20657 0.87461 -0.00136 0.0
C174 C 0.21657 0.79705 0.00457 0.0
C175 C 0.27045 0.80612 0.00274 0.0
C176 C 0.29235 0.84992 0.00048 0.0
C177 C 0.26086 0.88368 -0.00154 0.0
C178 C 0.30378 0.77028 0.00038 0.0
C179 C 0.32973 0.76825 0.97367 0.0
C180 C 0.31065 0.73878 0.02376 0.0
C181 C 0.28516 0.7396 0.0528 0.0
C182 C 0.29282 0.77769 0.07344 0.0
C183 C 0.26855 0.77818 0.10075 0.0
C184 C 0.23683 0.74065 0.10781 0.0
C185 C 0.22945 0.70251 0.08762 0.0
C186 C 0.25359 0.70187 0.06025 0.0
C187 C 0.49657 0.66189 0.98033 0.0
C188 C 0.48061 0.61642 0.97728 0.0
C189 C 0.46241 0.69081 0.98823 0.0
C190 C 0.41089 0.67474 0.9923 0.0
C191 C 0.39599 0.62891 0.9915 0.0
C192 C 0.43075 0.59982 0.98413 0.0
C193 C 0.37167 0.70598 0.99392 0.0
C194 C 0.34431 0.70681 0.02012 0.0
C195 C 0.36302 0.73641 0.96997 0.0
C196 C 0.3878 0.73532 0.94059 0.0
C197 C 0.38102 0.69656 0.92068 0.0
C198 C 0.40602 0.69525 0.89369 0.0
C199 C 0.43756 0.7326 0.8862 0.0
C200 C 0.44395 0.77142 0.90561 0.0
C201 C 0.4191 0.7729 0.93266 0.0
H202 H 0.45698 0.73149 0.86534 0.0
H203 H 0.2181 0.74109 0.12898 0.0
H204 H 0.87314 0.91896 0.02838 0.0
H205 H 0.81088 0.85293 0.03017 0.0
H206 H 0.90183 0.77764 0.97669 0.0
H207 H 0.96573 0.84396 0.97544 0.0
H208 H 0.78098 0.76572 0.95672 0.0
H209 H 0.91667 0.75604 0.04253 0.0
H210 H 0.98251 0.77955 0.09001 0.0
H211 H 0.86025 0.8048 0.14348 0.0
H212 H 0.79391 0.78368 0.09592 0.0
H213 H 0.6162 0.57549 0.00733 0.0
H214 H 0.68934 0.62357 0.99075 0.0
H215 H 0.66125 0.72899 0.05393 0.0
H216 H 0.58849 0.68098 0.07032 0.0
H217 H 0.7632 0.71151 0.0639 0.0
H218 H 0.63011 0.73164 0.97232 0.0
H219 H 0.56587 0.70321 0.92492 0.0
H220 H 0.68648 0.64854 0.88342 0.0
H221 H 0.75146 0.67673 0.93055 0.0
C222 C 0.88002 0.88845 0.01689 0.0
C223 C 0.9245 0.88665 0.00185 0.0
C224 C 0.84431 0.85076 0.01791 0.0
C225 C 0.85169 0.81049 0.0035 0.0
C226 C 0.89539 0.80852 0.98782 0.0
C227 C 0.93197 0.84626 0.98734 0.0
C228 C 0.81437 0.77065 0.0066 0.0
C229 C 0.77764 0.75316 0.98002 0.0
C230 C 0.81019 0.75421 0.03696 0.0
C231 C 0.85024 0.76877 0.06541 0.0
C232 C 0.90385 0.76756 0.06418 0.0
C233 C 0.94133 0.78047 0.09116 0.0
C234 C 0.92567 0.79401 0.1197 0.0
C235 C 0.87249 0.79476 0.12129 0.0
C236 C 0.83491 0.78248 0.09428 0.0
C237 C 0.62504 0.6092 0.01705 0.0
C238 C 0.59675 0.62496 0.04001 0.0
C239 C 0.66684 0.6366 0.00764 0.0
C240 C 0.6808 0.67989 0.02115 0.0
C241 C 0.65133 0.69569 0.04328 0.0
C242 C 0.60983 0.66845 0.05259 0.0
C243 C 0.72815 0.70829 0.01448 0.0
C244 C 0.76698 0.72353 0.04049 0.0
C245 C 0.73444 0.72203 0.9836 0.0
C246 C 0.69553 0.70594 0.95507 0.0
C247 C 0.64288 0.7134 0.95314 0.0
C248 C 0.60636 0.69738 0.92632 0.0
C249 C 0.62205 0.67389 0.90128 0.0
C250 C 0.67438 0.66668 0.90287 0.0
C251 C 0.71109 0.68279 0.92957 0.0
H252 H 0.59369 0.6614 0.88059 0.0
H253 H 0.95475 0.80363 0.14062 0.0
H254 H 0.91332 0.17676 0.99505 0.0
H255 H 0.86812 0.24219 0.98953 0.0
H256 H 0.73185 0.17058 0.01969 0.0
H257 H 0.7757 0.10482 0.0239 0.0
H258 H 0.70261 0.21744 0.97144 0.0
H259 H 0.81991 0.24605 0.0709 0.0
H260 H 0.90555 0.25393 0.10594 0.0
H261 H 0.9647 0.35807 0.05064 0.0
H262 H 0.87959 0.35042 0.01501 0.0
H263 H 0.57015 0.4014 0.99033 0.0
H264 H 0.61832 0.34033 0.00792 0.0
H265 H 0.7553 0.4033 0.97319 0.0
H266 H 0.70777 0.46448 0.95624 0.0
H267 H 0.78295 0.36082 0.0268 0.0
H268 H 0.66868 0.32891 0.92568 0.0
H269 H 0.58346 0.32177 0.89026 0.0
H270 H 0.51934 0.22371 0.9486 0.0
H271 H 0.60405 0.23079 0.98465 0.0
C272 C 0.87353 0.17476 0.00012 0.0
C273 C 0.84842 0.1355 0.01021 0.0
C274 C 0.84792 0.21238 0.99733 0.0
C275 C 0.79687 0.2116 0.00479 0.0
C276 C 0.77133 0.17216 0.01405 0.0
C277 C 0.79673 0.13461 0.0167 0.0
C278 C 0.76962 0.25157 0.00274 0.0
C279 C 0.71991 0.24857 0.98398 0.0
C280 C 0.79244 0.29251 0.0186 0.0
C281 C 0.84353 0.29739 0.04013 0.0
C282 C 0.8513 0.27043 0.06609 0.0
C283 C 0.89972 0.27488 0.08607 0.0
C284 C 0.94058 0.30641 0.08047 0.0
C285 C 0.93303 0.33363 0.05493 0.0
C286 C 0.8847 0.32929 0.03485 0.0
C287 C 0.61102 0.40276 0.98741 0.0
C288 C 0.63511 0.43726 0.97158 0.0
C289 C 0.63837 0.36776 0.9972 0.0
C290 C 0.69007 0.36684 0.99122 0.0
C291 C 0.71541 0.40315 0.97787 0.0
C292 C 0.68816 0.43798 0.96808 0.0
C293 C 0.71607 0.32648 0.99563 0.0
C294 C 0.76555 0.32949 0.01461 0.0
C295 C 0.69315 0.2855 0.97994 0.0
C296 C 0.6425 0.2807 0.95802 0.0
C297 C 0.63631 0.30602 0.93105 0.0
C298 C 0.58812 0.30197 0.91086 0.0
C299 C 0.54597 0.27238 0.91722 0.0
C300 C 0.552 0.24667 0.94373 0.0
C301 C 0.60009 0.25067 0.96405 0.0
H302 H 0.50868 0.26929 0.90156 0.0
H303 H 0.97804 0.3098 0.09597 0.0
H304 H 0.55912 0.66006 0.49638 0.0
H305 H 0.62274 0.72608 0.49617 0.0
H306 H 0.74945 0.64685 0.50965 0.0
H307 H 0.68619 0.58062 0.50962 0.0
H308 H 0.76518 0.72122 0.55142 0.0
H309 H 0.72051 0.68449 0.43977 0.0
H310 H 0.66137 0.66459 0.38887 0.0
H311 H 0.60014 0.78805 0.39502 0.0
H312 H 0.65832 0.80841 0.44628 0.0
H313 H 0.96027 0.89567 0.53404 0.0
H314 H 0.90404 0.82589 0.5164 0.0
H315 H 0.76684 0.89277 0.51246 0.0
H316 H 0.82299 0.96226 0.53076 0.0
H317 H 0.76169 0.82175 0.46213 0.0
H318 H 0.79895 0.85338 0.57673 0.0
H319 H 0.85829 0.87351 0.62753 0.0
H320 H 0.93337 0.75808 0.61533 0.0
H321 H 0.87514 0.7378 0.56403 0.0
C322 C 0.60052 0.65668 0.49923 0.0
C323 C 0.61766 0.61516 0.50308 0.0
C324 C 0.63676 0.69436 0.49893 0.0
C325 C 0.69071 0.69121 0.50267 0.0
C326 C 0.70795 0.64988 0.50665 0.0
C327 C 0.67174 0.61212 0.50659 0.0
C328 C 0.72918 0.73137 0.5036 0.0
C329 C 0.76505 0.74275 0.53166 0.0
C330 C 0.72835 0.75975 0.47798 0.0
C331 C 0.69346 0.74781 0.44705 0.0
C332 C 0.69411 0.70725 0.43043 0.0
C333 C 0.66081 0.6959 0.40148 0.0
C334 C 0.62693 0.72499 0.38876 0.0
C335 C 0.62638 0.76553 0.40493 0.0
C336 C 0.65954 0.77701 0.43392 0.0
C337 C 0.91822 0.89555 0.52833 0.0
C338 C 0.89561 0.93393 0.53357 0.0
C339 C 0.88623 0.85584 0.51836 0.0
C340 C 0.83138 0.8543 0.5133 0.0
C341 C 0.80908 0.89343 0.51606 0.0
C342 C 0.84101 0.93295 0.52652 0.0
C343 C 0.7973 0.81145 0.50995 0.0
C344 C 0.76216 0.79977 0.48162 0.0
C345 C 0.7987 0.78265 0.5353 0.0
C346 C 0.83319 0.7944 0.56635 0.0
C347 C 0.82846 0.83253 0.58472 0.0
C348 C 0.86184 0.84394 0.61362 0.0
C349 C 0.89969 0.81715 0.62461 0.0
C350 C 0.90412 0.77884 0.60675 0.0
C351 C 0.87096 0.76739 0.57775 0.0
H352 H 0.92548 0.82601 0.64701 0.0
H353 H 0.60118 0.71615 0.36635 0.0
H354 H 0.63852 0.32412 0.50607 0.0
H355 H 0.69495 0.26484 0.50941 0.0
H356 H 0.82754 0.35931 0.49793 0.0
H357 H 0.77184 0.41787 0.49469 0.0
H358 H 0.80974 0.29013 0.45304 0.0
H359 H 0.81967 0.31264 0.56796 0.0
H360 H 0.78224 0.31485 0.61809 0.0
H361 H 0.71654 0.17884 0.6003 0.0
H362 H 0.753 0.176 0.54981 0.0
H363 H 0.02934 0.18442 0.46619 0.0
H364 H 0.9678 0.23328 0.48073 0.0
H365 H 0.86166 0.12026 0.49884 0.0
H366 H 0.92477 0.07145 0.48563 0.0
H367 H 0.85547 0.19007 0.5392 0.0
H368 H 0.84534 0.16488 0.42661 0.0
H369 H 0.87924 0.16008 0.3754 0.0
H370 H 0.93838 0.298 0.38656 0.0
H371 H 0.90549 0.30349 0.43808 0.0
C372 C 0.67997 0.33217 0.50507 0.0
C373 C 0.7007 0.37541 0.49962 0.0
C374 C 0.71213 0.29838 0.50692 0.0
C375 C 0.76541 0.30762 0.50362 0.0
C376 C 0.7865 0.3513 0.50021 0.0
C377 C 0.75461 0.38473 0.49828 0.0
C378 C 0.79866 0.27202 0.50039 0.0
C379 C 0.82007 0.26856 0.47204 0.0
C380 C 0.81029 0.24251 0.52456 0.0
C381 C 0.78852 0.24426 0.55492 0.0
C382 C 0.79681 0.28333 0.57458 0.0
C383 C 0.77587 0.28466 0.60309 0.0
C384 C 0.74688 0.24705 0.61232 0.0
C385 C 0.73891 0.20797 0.5931 0.0
C386 C 0.75974 0.20647 0.56454 0.0
C387 C 0.99331 0.17028 0.47395 0.0
C388 C 0.98146 0.12454 0.4745 0.0
C389 C 0.9581 0.19803 0.48213 0.0
C390 C 0.90934 0.1804 0.48998 0.0
C391 C 0.8988 0.13462 0.49262 0.0
C392 C 0.93476 0.10678 0.48502 0.0
C393 C 0.86822 0.20967 0.49237 0.0
C394 C 0.84491 0.21156 0.52021 0.0
C395 C 0.85398 0.23754 0.46752 0.0
C396 C 0.87324 0.23451 0.43631 0.0
C397 C 0.86582 0.19413 0.41822 0.0
C398 C 0.88484 0.19129 0.38914 0.0
C399 C 0.91103 0.22869 0.37776 0.0
C400 C 0.91812 0.26905 0.39541 0.0
C401 C 0.89924 0.27206 0.42454 0.0
H402 H 0.92575 0.22642 0.35524 0.0
H403 H 0.73071 0.24815 0.63441 0.0
H404 H 0.46221 0.3456 0.4864 0.0
H405 H 0.39616 0.28162 0.48989 0.0
H406 H 0.29662 0.36765 0.5264 0.0
H407 H 0.36128 0.43114 0.52269 0.0
H408 H 0.31428 0.2939 0.56314 0.0
H409 H 0.26802 0.33056 0.45275 0.0
H410 H 0.28439 0.3409 0.39752 0.0
H411 H 0.31348 0.20636 0.38816 0.0
H412 H 0.29822 0.19545 0.4436 0.0
H413 H 0.06341 0.18847 0.56182 0.0
H414 H 0.13709 0.23852 0.54842 0.0
H415 H 0.19375 0.12919 0.50312 0.0
H416 H 0.11903 0.07927 0.51598 0.0
H417 H 0.20871 0.20404 0.4705 0.0
H418 H 0.24756 0.16395 0.57777 0.0
H419 H 0.23184 0.15149 0.63287 0.0
H420 H 0.22085 0.28913 0.64877 0.0
H421 H 0.23566 0.30232 0.59358 0.0
C422 C 0.42613 0.35075 0.49506 0.0
C423 C 0.41698 0.39341 0.50426 0.0
C424 C 0.38846 0.31428 0.49692 0.0
C425 C 0.34157 0.32005 0.50836 0.0
C426 C 0.33257 0.36254 0.51752 0.0
C427 C 0.36961 0.39882 0.5153 0.0
C428 C 0.30195 0.28219 0.51203 0.0
C429 C 0.29109 0.27431 0.54289 0.0
C430 C 0.27312 0.25563 0.48568 0.0
C431 C 0.2828 0.2624 0.45249 0.0
C432 C 0.2786 0.30335 0.43907 0.0
C433 C 0.28753 0.30928 0.40769 0.0
C434 C 0.3002 0.27437 0.38939 0.0
C435 C 0.30386 0.23342 0.40241 0.0
C436 C 0.29509 0.22736 0.43381 0.0
C437 C 0.09127 0.17547 0.54857 0.0
C438 C 0.0859 0.13041 0.54007 0.0
C439 C 0.13336 0.20385 0.54104 0.0
C440 C 0.1716 0.1874 0.52543 0.0
C441 C 0.16487 0.14252 0.51535 0.0
C442 C 0.12225 0.11408 0.52267 0.0
C443 C 0.21975 0.21697 0.52154 0.0
C444 C 0.23243 0.22311 0.4908 0.0
C445 C 0.25086 0.24172 0.54806 0.0
C446 C 0.24237 0.23405 0.58142 0.0
C447 C 0.24144 0.19152 0.59293 0.0
C448 C 0.23272 0.18433 0.6242 0.0
C449 C 0.22525 0.21948 0.64429 0.0
C450 C 0.22661 0.26193 0.63318 0.0
C451 C 0.23522 0.26929 0.60191 0.0
H452 H 0.21849 0.21384 0.66849 0.0
H453 H 0.30701 0.279 0.36508 0.0
H454 H 0.27561 0.61192 0.52418 0.0
H455 H 0.23122 0.67725 0.51844 0.0
H456 H 0.36871 0.74904 0.48982 0.0
H457 H 0.41438 0.68383 0.49671 0.0
H458 H 0.32855 0.79802 0.53237 0.0
H459 H 0.26129 0.71175 0.435 0.0
H460 H 0.22029 0.64519 0.40168 0.0
H461 H 0.08108 0.6445 0.44515 0.0
H462 H 0.12155 0.71075 0.47907 0.0
H463 H 0.20969 0.97112 0.45611 0.0
H464 H 0.25619 0.90963 0.4736 0.0
H465 H 0.1158 0.84525 0.5038 0.0
H466 H 0.06886 0.90699 0.48596 0.0
H467 H 0.15595 0.79231 0.46334 0.0
H468 H 0.22255 0.88252 0.55846 0.0
H469 H 0.26408 0.95016 0.59031 0.0
H470 H 0.40512 0.94481 0.54962 0.0
H471 H 0.36418 0.87748 0.51714 0.0
C472 C 0.29671 0.64161 0.51688 0.0
C473 C 0.34875 0.64259 0.51104 0.0
C474 C 0.27101 0.67889 0.51332 0.0
C475 C 0.29642 0.71798 0.50344 0.0
C476 C 0.34831 0.71919 0.49744 0.0
C477 C 0.37419 0.68177 0.50107 0.0
C478 C 0.26868 0.75749 0.49962 0.0
C479 C 0.29112 0.79697 0.51697 0.0
C480 C 0.21914 0.75578 0.48021 0.0
C481 C 0.19467 0.71595 0.45981 0.0
C482 C 0.2221 0.6972 0.43765 0.0
C483 C 0.19892 0.65956 0.41862 0.0
C484 C 0.14817 0.64055 0.42136 0.0
C485 C 0.12043 0.65922 0.44309 0.0
C486 C 0.14345 0.69683 0.4622 0.0
C487 C 0.18915 0.9443 0.46719 0.0
C488 C 0.13573 0.94361 0.46963 0.0
C489 C 0.21578 0.90926 0.47727 0.0
C490 C 0.18953 0.87283 0.49005 0.0
C491 C 0.13679 0.87308 0.49402 0.0
C492 C 0.11015 0.90842 0.48409 0.0
C493 C 0.21579 0.83291 0.49605 0.0
C494 C 0.19315 0.79332 0.47898 0.0
C495 C 0.26523 0.83467 0.51555 0.0
C496 C 0.2901 0.8751 0.53516 0.0
C497 C 0.26228 0.89594 0.5561 0.0
C498 C 0.28574 0.93421 0.57431 0.0
C499 C 0.33717 0.95182 0.57194 0.0
C500 C 0.36527 0.93115 0.55141 0.0
C501 C 0.34198 0.89289 0.53313 0.0
H502 H 0.35526 0.98145 0.58606 0.0
H503 H 0.13029 0.61142 0.4066 0.0
H504 H 0.07805 0.93529 0.10139 0.0
H505 H 0.08952 0.93949 0.16022 0.0
H506 H 0.06135 0.07533 0.15989 0.0
H507 H 0.0481 0.07087 0.10143 0.0
H508 H 0.14782 0.05498 0.20858 0.0
H509 H 0.96637 0.0127 0.16617 0.0
H510 H 0.89034 0.96827 0.13336 0.0
H511 H 0.92535 0.85369 0.18348 0.0
H512 H 1.00285 0.89705 0.21568 0.0
H513 H 0.08394 0.08299 0.36627 0.0
H514 H 0.08335 0.08362 0.30838 0.0
H515 H 0.07526 0.94188 0.30283 0.0
H516 H 0.07355 0.94084 0.36007 0.0
H517 H 0.00851 0.96737 0.2566 0.0
H518 H 0.19095 0.01127 0.29974 0.0
H519 H 0.26459 0.05771 0.3334 0.0
H520 H 0.22501 0.17134 0.28356 0.0
H521 H 0.15068 0.12566 0.24986 0.0
C522 C 0.07515 0.96613 0.11399 0.0
C523 C 0.0619 1.00265 0.09704 0.0
C524 C 0.08162 0.96851 0.14746 0.0
C525 C 0.07617 0.00774 0.16426 0.0
C526 C 0.06587 0.04488 0.14734 0.0
C527 C 0.05805 0.04218 0.11401 0.0
C528 C 0.07674 0.00919 0.19926 0.0
C529 C 0.1173 0.03604 0.21916 0.0
C530 C 0.03688 0.98442 0.2129 0.0
C531 C 0.99103 0.95797 0.19295 0.0
C532 C 0.95853 0.97783 0.16975 0.0
C533 C 0.91507 0.95284 0.15127 0.0
C534 C 0.90319 0.90809 0.15613 0.0
C535 C 0.93481 0.88824 0.17947 0.0
C536 C 0.97862 0.91298 0.19779 0.0
C537 C 0.08164 0.05198 0.35264 0.0
C538 C 0.07932 0.01191 0.36787 0.0
C539 C 0.08186 0.05241 0.31962 0.0
C540 C 0.08006 0.01281 0.30131 0.0
C541 C 0.077 0.97285 0.31644 0.0
C542 C 0.07654 0.97238 0.34928 0.0
C543 C 0.08027 0.01245 0.26626 0.0
C544 C 0.03946 0.98603 0.2462 0.0
C545 C 0.11984 0.03775 0.25256 0.0
C546 C 0.16496 0.06512 0.27249 0.0
C547 C 0.19776 0.04621 0.29609 0.0
C548 C 0.23965 0.07239 0.31516 0.0
C549 C 0.24938 0.11747 0.31068 0.0
C550 C 0.21738 0.13643 0.28703 0.0
C551 C 0.1754 0.11041 0.26792 0.0
H552 H 0.28178 0.1377 0.3255 0.0
H553 H 0.86926 0.88896 0.14196 0.0
H554 H 0.90437 0.01913 0.90492 0.0
H555 H 0.88935 0.02571 0.84673 0.0
H556 H 0.04836 1.00244 0.84217 0.0
H557 H 0.06331 0.99479 0.89984 0.0
H558 H 0.01261 0.07912 0.80912 0.0
H559 H 0.96395 0.92236 0.81997 0.0
H560 H 0.913 0.85883 0.84005 0.0
H561 H 0.7696 0.90021 0.79472 0.0
H562 H 0.81976 0.96443 0.77478 0.0
H563 H 0.03759 0.0278 0.65012 0.0
H564 H 0.03633 0.03119 0.70755 0.0
H565 H 0.86708 0.01726 0.69063 0.0
H566 H 0.86822 0.01279 0.63284 0.0
H567 H 0.89735 0.96598 0.73516 0.0
H568 H 0.94333 0.11731 0.7187 0.0
H569 H 0.99152 0.18236 0.69869 0.0
H570 H 0.13473 0.15579 0.7546 0.0
H571 H 0.08756 0.09017 0.7746 0.0
C572 C 0.93599 0.01526 0.89144 0.0
C573 C 0.98491 0.00623 0.90688 0.0
C574 C 0.92737 0.01903 0.8583 0.0
C575 C 0.96784 0.01462 0.84031 0.0
C576 C 0.01674 0.00604 0.85572 0.0
C577 C 0.02506 1.00142 0.88863 0.0
C578 C 0.95966 0.01866 0.80532 0.0
C579 C 0.98763 0.05438 0.79284 0.0
C580 C 0.92564 0.98711 0.78434 0.0
C581 C 0.89554 0.9485 0.79626 0.0
C582 C 0.92153 0.91818 0.81458 0.0
C583 C 0.89281 0.88198 0.82587 0.0
C584 C 0.83809 0.87557 0.81876 0.0
C585 C 0.81199 0.90528 0.80027 0.0
C586 C 0.84054 0.94157 0.78896 0.0
C587 C 1.00013 0.0262 0.65862 0.0
C588 C 0.95302 0.02043 0.637 0.0
C589 C 0.99942 0.02818 0.69149 0.0
C590 C 0.95162 0.02528 0.70352 0.0
C591 C 0.90444 0.01972 0.68196 0.0
C592 C 0.90512 0.01722 0.64898 0.0
C593 C 0.9513 0.02612 0.7386 0.0
C594 C 0.92172 0.9913 0.75123 0.0
C595 C 0.98335 0.05892 0.75976 0.0
C596 C 0.01191 0.0986 0.74799 0.0
C597 C 0.98516 0.12515 0.72658 0.0
C598 C 0.01229 0.16216 0.71525 0.0
C599 C 0.06617 0.17315 0.72532 0.0
C600 C 0.09299 0.14722 0.74681 0.0
C601 C 0.06606 0.11014 0.75819 0.0
H602 H 0.08711 0.2018 0.7165 0.0
H603 H 0.81591 0.84752 0.82751 0.0
H604 H 0.58926 0.4415 0.60071 0.0
H605 H 0.60135 0.44211 0.6594 0.0
H606 H 0.54201 0.56732 0.663 0.0
H607 H 0.52897 0.56658 0.60473 0.0
H608 H 0.63291 0.56037 0.70994 0.0
H609 H 0.46051 0.48357 0.66772 0.0
H610 H 0.39959 0.42636 0.63387 0.0
H611 H 0.47594 0.32531 0.68169 0.0
H612 H 0.53793 0.38202 0.71548 0.0
H613 H 0.56832 0.57271 0.8663 0.0
H614 H 0.56636 0.57322 0.80857 0.0
H615 H 0.58357 0.43479 0.80499 0.0
H616 H 0.5806 0.43304 0.86189 0.0
H617 H 0.51799 0.44764 0.75739 0.0
H618 H 0.68849 0.52246 0.80154 0.0
H619 H 0.75023 0.57872 0.83578 0.0
H620 H 0.68186 0.68139 0.7851 0.0
H621 H 0.6192 0.62574 0.75083 0.0
C622 C 0.57949 0.46935 0.6141 0.0
C623 C 0.55782 0.5038 0.59822 0.0
C624 C 0.58632 0.46965 0.64752 0.0
C625 C 0.57237 0.50473 0.66541 0.0
C626 C 0.55309 0.54005 0.6496 0.0
C627 C 0.5454 0.5394 0.61633 0.0
C628 C 0.57416 0.50348 0.70042 0.0
C629 C 0.60775 0.53588 0.72043 0.0
C630 C 0.54179 0.47113 0.71394 0.0
C631 C 0.50424 0.43703 0.69385 0.0
C632 C 0.46462 0.44916 0.67082 0.0
C633 C 0.42984 0.41683 0.65168 0.0
C634 C 0.43399 0.37223 0.65556 0.0
C635 C 0.47284 0.35988 0.67866 0.0
C636 C 0.5078 0.39209 0.69781 0.0
C637 C 0.57092 0.54221 0.8532 0.0
C638 C 0.57523 0.50295 0.86903 0.0
C639 C 0.57063 0.5427 0.82017 0.0
C640 C 0.57607 0.50425 0.80239 0.0
C641 C 0.57973 0.465 0.81809 0.0
C642 C 0.57883 0.46425 0.85087 0.0
C643 C 0.57725 0.50442 0.76738 0.0
C644 C 0.54386 0.47191 0.7472 0.0
C645 C 0.61032 0.53642 0.75379 0.0
C646 C 0.64889 0.56992 0.77378 0.0
C647 C 0.68651 0.55704 0.79777 0.0
C648 C 0.72165 0.58882 0.81719 0.0
C649 C 0.71989 0.6336 0.81266 0.0
C650 C 0.68314 0.64669 0.7886 0.0
C651 C 0.64784 0.61504 0.76914 0.0
H652 H 0.74703 0.65816 0.82778 0.0
H653 H 0.40702 0.34724 0.64073 0.0
H654 H 0.51481 0.44974 0.39839 0.0
H655 H 0.50676 0.45729 0.3409 0.0
H656 H 0.43905 0.57783 0.35111 0.0
H657 H 0.44515 0.56942 0.40886 0.0
H658 H 0.39229 0.53336 0.29813 0.0
H659 H 0.56926 0.58028 0.34293 0.0
H660 H 0.65433 0.57655 0.37654 0.0
H661 H 0.67391 0.46032 0.322 0.0
H662 H 0.58852 0.46291 0.28836 0.0
H663 H 0.4555 0.58604 0.14043 0.0
H664 H 0.45735 0.59186 0.19873 0.0
H665 H 0.4805 0.45511 0.20377 0.0
H666 H 0.47758 0.44891 0.14573 0.0
H667 H 0.55236 0.52008 0.24936 0.0
H668 H 0.36706 0.47391 0.20783 0.0
H669 H 0.2834 0.48343 0.17462 0.0
H670 H 0.28403 0.60891 0.22362 0.0
H671 H 0.36817 0.6004 0.25682 0.0
C672 C 0.49769 0.47763 0.38837 0.0
C673 C 0.481 0.50919 0.40811 0.0
C674 C 0.4934 0.48208 0.35552 0.0
C675 C 0.47366 0.5188 0.34176 0.0
C676 C 0.45478 0.54942 0.36122 0.0
C677 C 0.45825 0.54456 0.39417 0.0
C678 C 0.47434 0.52539 0.30726 0.0
C679 C 0.42755 0.53123 0.28759 0.0
C680 C 0.5204 0.52297 0.29341 0.0
C681 C 0.57227 0.52163 0.31324 0.0
C682 C 0.59156 0.55378 0.3382 0.0
C683 C 0.63985 0.55188 0.35726 0.0
C684 C 0.66946 0.51818 0.35144 0.0
C685 C 0.65091 0.4864 0.32648 0.0
C686 C 0.60259 0.48809 0.30738 0.0
C687 C 0.46099 0.55735 0.15411 0.0
C688 C 0.46616 0.51699 0.13874 0.0
C689 C 0.46193 0.56067 0.18724 0.0
C690 C 0.46901 0.52387 0.20539 0.0
C691 C 0.47501 0.48382 0.1901 0.0
C692 C 0.47308 0.48028 0.15703 0.0
C693 C 0.47013 0.5266 0.24039 0.0
C694 C 0.5174 0.52274 0.2601 0.0
C695 C 0.42492 0.5319 0.25428 0.0
C696 C 0.37418 0.53677 0.23452 0.0
C697 C 0.34961 0.50372 0.21131 0.0
C698 C 0.30206 0.50889 0.19254 0.0
C699 C 0.2785 0.54682 0.19694 0.0
C700 C 0.30237 0.57959 0.2202 0.0
C701 C 0.34997 0.5746 0.23901 0.0
H702 H 0.24168 0.55076 0.18238 0.0
H703 H 0.70682 0.51674 0.36624 0.0
loop_
_geom_bond_atom_site_label_1
_geom_bond_atom_site_label_2
_geom_bond_distance
_geom_bond_site_symmetry_2
_ccdc_geom_bond_type
Co0 N5 2.057 . S
Co0 O17 2.021 . S
Co0 O20 2.062 1_455 S
Co0 O24 2.117 1_554 S
Co0 O25 2.020 1_565 S
C1 O21 1.259 1_455 S
C1 O24 1.258 1_545 S
Co2 N11 2.057 . S
Co2 O18 2.117 1_655 S
Co2 O19 2.018 1_545 S
Co2 O21 2.021 1_554 S
Co2 O26 2.062 1_655 S
C3 N5 1.316 . S
C3 N6 1.347 . S
C3 H8 0.931 . S
C4 N5 1.375 1_556 S
C4 C7 1.350 . S
C4 H9 0.930 . S
N5 Co0 2.057 . S
N5 C3 1.316 . S
N5 C4 1.375 1_554 S
N6 C3 1.347 . S
N6 C7 1.373 1_554 S
C7 C4 1.350 . S
C7 N6 1.373 1_556 S
C7 H28 0.931 . S
H8 C3 0.931 . S
H9 C4 0.930 . S
C10 O17 1.259 1_545 S
C10 O18 1.257 . S
N11 Co2 2.057 . S
N11 C12 1.316 1_554 S
N11 C13 1.375 . S
C12 N11 1.316 1_556 S
C12 N14 1.347 1_556 S
C12 H23 0.931 . S
C13 N11 1.375 . S
C13 C15 1.350 . S
C13 H22 0.930 . S
N14 C12 1.347 1_554 S
N14 C15 1.373 . S
C15 C13 1.350 . S
C15 N14 1.373 . S
C15 H29 0.931 . S
C16 O19 1.257 . S
C16 O20 1.255 . S
O17 Co0 2.021 . S
O17 C10 1.259 1_565 S
O18 Co2 2.117 1_455 S
O18 C10 1.257 . S
O19 Co2 2.018 1_565 S
O19 C16 1.257 . S
O20 Co0 2.062 1_655 S
O20 C16 1.255 . S
O21 C1 1.259 1_655 S
O21 Co2 2.021 1_556 S
H22 C13 0.930 . S
H23 C12 0.931 . S
O24 Co0 2.117 1_556 S
O24 C1 1.258 1_565 S
O25 Co0 2.020 1_545 S
O25 C27 1.256 . S
O26 Co2 2.062 1_455 S
O26 C27 1.255 . S
C27 O25 1.256 . S
C27 O26 1.255 . S
H28 C7 0.931 . S
H29 C15 0.931 . S
Co30 N35 2.057 . S
Co30 O47 2.021 . S
Co30 O50 2.062 . S
Co30 O54 2.117 . S
Co30 O55 2.020 . S
C31 O51 1.259 . S
C31 O54 1.258 . S
Co32 N41 2.057 . S
Co32 O48 2.117 . S
Co32 O49 2.020 . S
Co32 O51 2.021 . S
Co32 O56 2.062 . S
C33 N35 1.316 . S
C33 N36 1.347 . S
C33 H38 0.931 . S
C34 N35 1.375 . S
C34 C37 1.350 . S
C34 H39 0.930 . S
N35 Co30 2.057 . S
N35 C33 1.316 . S
N35 C34 1.375 . S
N36 C33 1.347 . S
N36 C37 1.373 . S
C37 C34 1.350 . S
C37 N36 1.373 . S
C37 H58 0.931 . S
H38 C33 0.931 . S
H39 C34 0.930 . S
C40 O47 1.259 . S
C40 O48 1.258 . S
N41 Co32 2.057 . S
N41 C42 1.316 . S
N41 C43 1.375 . S
C42 N41 1.316 . S
C42 N44 1.347 . S
C42 H53 0.931 . S
C43 N41 1.375 . S
C43 C45 1.350 . S
C43 H52 0.930 . S
N44 C42 1.347 . S
N44 C45 1.373 . S
C45 C43 1.350 . S
C45 N44 1.373 . S
C45 H59 0.931 . S
C46 O49 1.256 . S
C46 O50 1.255 . S
O47 Co30 2.021 . S
O47 C40 1.259 . S
O48 Co32 2.117 . S
O48 C40 1.258 . S
O49 Co32 2.020 . S
O49 C46 1.256 . S
O50 Co30 2.062 . S
O50 C46 1.255 . S
O51 C31 1.259 . S
O51 Co32 2.021 . S
H52 C43 0.930 . S
H53 C42 0.931 . S
O54 Co30 2.117 . S
O54 C31 1.258 . S
O55 Co30 2.020 . S
O55 C57 1.256 . S
O56 Co32 2.062 . S
O56 C57 1.255 . S
C57 O55 1.256 . S
C57 O56 1.255 . S
H58 C37 0.931 . S
H59 C45 0.931 . S
H60 C65 0.929 . S
H61 C70 0.931 . S
H62 C68 0.930 1_655 S
N63 N64 1.234 . S
N63 C67 1.453 1_655 S
N64 N63 1.234 . S
C65 H60 0.929 . S
C65 C66 1.373 . S
C65 C67 1.368 1_565 S
C66 C65 1.373 . S
C66 C70 1.397 . S
C67 N63 1.453 1_455 S
C67 C65 1.368 1_545 S
C67 C68 1.373 . S
C68 H62 0.930 1_455 S
C68 C67 1.373 . S
C68 C69 1.371 1_545 S
C69 C68 1.371 1_565 S
C69 C70 1.383 . S
C70 H61 0.931 . S
C70 C66 1.397 . S
C70 C69 1.383 . S
H71 C76 0.929 . S
H72 C81 0.931 . S
H73 C79 0.930 . S
N74 N75 1.234 . S
N74 C78 1.453 . S
N75 N74 1.234 . S
C76 H71 0.929 . S
C76 C77 1.373 . S
C76 C78 1.368 1_665 S
C77 C76 1.373 . S
C77 C81 1.397 . S
C78 N74 1.453 . S
C78 C76 1.368 1_445 S
C78 C79 1.373 . S
C79 H73 0.930 . S
C79 C78 1.373 . S
C79 C80 1.371 1_455 S
C80 C79 1.371 1_655 S
C80 C81 1.383 1_545 S
C81 H72 0.931 . S
C81 C77 1.397 . S
C81 C80 1.383 1_565 S
H82 C87 0.929 . S
H83 C92 0.931 . S
H84 C90 0.930 . S
N85 N86 1.234 . S
N85 C89 1.453 . S
N86 N85 1.234 . S
C87 H82 0.929 . S
C87 C88 1.373 . S
C87 C89 1.368 . S
C88 C87 1.373 . S
C88 C92 1.397 . S
C89 N85 1.453 . S
C89 C87 1.368 . S
C89 C90 1.373 . S
C90 H84 0.930 . S
C90 C89 1.373 . S
C90 C91 1.371 . S
C91 C90 1.371 . S
C91 C92 1.383 . S
C92 H83 0.931 . S
C92 C88 1.397 . S
C92 C91 1.383 . S
H93 C98 0.929 . S
H94 C103 0.931 . S
H95 C101 0.930 . S
N96 N97 1.234 . S
N96 C100 1.453 . S
N97 N96 1.234 . S
C98 H93 0.929 . S
C98 C99 1.373 . S
C98 C100 1.368 . S
C99 C98 1.373 . S
C99 C103 1.397 . S
C100 N96 1.453 . S
C100 C98 1.368 . S
C100 C101 1.373 . S
C101 H95 0.930 . S
C101 C100 1.373 . S
C101 C102 1.371 . S
C102 C101 1.371 . S
C102 C103 1.383 . S
C103 H94 0.931 . S
C103 C99 1.397 . S
C103 C102 1.383 . S
H104 C122 0.951 . S
H105 C124 0.951 . S
H106 C126 0.950 . S
H107 C127 0.950 . S
H108 C129 0.950 . S
H109 C132 0.950 . S
H110 C133 0.950 . S
H111 C135 0.950 . S
H112 C136 0.950 . S
H113 C137 0.951 . S
H114 C139 0.951 . S
H115 C141 0.950 . S
H116 C142 0.950 . S
H117 C144 0.950 1_556 S
H118 C147 0.950 . S
H119 C148 0.950 . S
H120 C150 0.950 . S
H121 C151 0.950 . S
C122 H104 0.951 . S
C122 C123 1.366 . S
C122 C124 1.388 . S
C123 C122 1.366 . S
C123 C127 1.385 . S
C124 H105 0.951 . S
C124 C122 1.388 . S
C124 C125 1.366 . S
C125 C124 1.366 . S
C125 C126 1.414 . S
C125 C128 1.499 . S
C126 H106 0.950 . S
C126 C125 1.414 . S
C126 C127 1.374 . S
C127 H107 0.950 . S
C127 C123 1.385 . S
C127 C126 1.374 . S
C128 C125 1.499 . S
C128 C129 1.373 . S
C128 C130 1.389 . S
C129 H108 0.950 . S
C129 C128 1.373 . S
C129 C145 1.377 . S
C130 C128 1.389 . S
C130 C131 1.524 1_554 S
C130 C144 1.377 . S
C131 C130 1.524 1_556 S
C131 C132 1.397 . S
C131 C136 1.363 . S
C132 H109 0.950 . S
C132 C131 1.397 . S
C132 C133 1.334 . S
C133 H110 0.950 . S
C133 C132 1.334 . S
C133 C134 1.287 . S
C134 C133 1.287 . S
C134 C135 1.524 . S
C134 H153 0.913 . S
C135 H111 0.950 . S
C135 C134 1.524 . S
C135 C136 1.415 . S
C136 H112 0.950 . S
C136 C131 1.363 . S
C136 C135 1.415 . S
C137 H113 0.951 . S
C137 C138 1.366 . S
C137 C139 1.388 . S
C138 C137 1.366 . S
C138 C142 1.385 . S
C139 H114 0.951 . S
C139 C137 1.388 . S
C139 C140 1.366 . S
C140 C139 1.366 . S
C140 C141 1.414 . S
C140 C143 1.499 . S
C141 H115 0.950 . S
C141 C140 1.414 . S
C141 C142 1.374 . S
C142 H116 0.950 . S
C142 C138 1.385 . S
C142 C141 1.374 . S
C143 C140 1.499 . S
C143 C144 1.373 . S
C143 C145 1.389 . S
C144 H117 0.950 1_554 S
C144 C130 1.377 . S
C144 C143 1.373 . S
C145 C129 1.377 . S
C145 C143 1.389 . S
C145 C146 1.524 . S
C146 C145 1.524 . S
C146 C147 1.397 . S
C146 C151 1.363 . S
C147 H118 0.950 . S
C147 C146 1.397 . S
C147 C148 1.334 . S
C148 H119 0.950 . S
C148 C147 1.334 . S
C148 C149 1.287 . S
C149 C148 1.287 . S
C149 C150 1.524 . S
C149 H152 0.999 . S
C150 H120 0.950 . S
C150 C149 1.524 . S
C150 C151 1.415 . S
C151 H121 0.950 . S
C151 C146 1.363 . S
C151 C150 1.415 . S
H152 C149 0.999 . S
H153 C134 0.913 . S
H154 C172 0.951 . S
H155 C174 0.951 . S
H156 C176 0.951 . S
H157 C177 0.950 . S
H158 C179 0.950 . S
H159 C182 0.950 . S
H160 C183 0.950 . S
H161 C185 0.950 . S
H162 C186 0.950 . S
H163 C187 0.951 . S
H164 C189 0.951 . S
H165 C191 0.950 . S
H166 C192 0.950 . S
H167 C194 0.950 . S
H168 C197 0.950 . S
H169 C198 0.950 . S
H170 C200 0.950 . S
H171 C201 0.950 . S
C172 H154 0.951 . S
C172 C173 1.366 . S
C172 C174 1.388 . S
C173 C172 1.366 . S
C173 C177 1.385 . S
C174 H155 0.951 . S
C174 C172 1.388 . S
C174 C175 1.366 . S
C175 C174 1.366 . S
C175 C176 1.414 . S
C175 C178 1.499 . S
C176 H156 0.951 . S
C176 C175 1.414 . S
C176 C177 1.374 . S
C177 H157 0.950 . S
C177 C173 1.385 . S
C177 C176 1.374 . S
C178 C175 1.499 . S
C178 C179 1.373 1_554 S
C178 C180 1.389 . S
C179 H158 0.950 . S
C179 C178 1.373 1_556 S
C179 C195 1.377 . S
C180 C178 1.389 . S
C180 C181 1.524 . S
C180 C194 1.377 . S
C181 C180 1.524 . S
C181 C182 1.397 . S
C181 C186 1.363 . S
C182 H159 0.950 . S
C182 C181 1.397 . S
C182 C183 1.334 . S
C183 H160 0.950 . S
C183 C182 1.334 . S
C183 C184 1.287 . S
C184 C183 1.287 . S
C184 C185 1.524 . S
C184 H203 0.913 . S
C185 H161 0.950 . S
C185 C184 1.524 . S
C185 C186 1.415 . S
C186 H162 0.950 . S
C186 C181 1.363 . S
C186 C185 1.415 . S
C187 H163 0.951 . S
C187 C188 1.366 . S
C187 C189 1.388 . S
C188 C187 1.366 . S
C188 C192 1.385 . S
C189 H164 0.951 . S
C189 C187 1.388 . S
C189 C190 1.366 . S
C190 C189 1.366 . S
C190 C191 1.414 . S
C190 C193 1.499 . S
C191 H165 0.950 . S
C191 C190 1.414 . S
C191 C192 1.374 . S
C192 H166 0.950 . S
C192 C188 1.385 . S
C192 C191 1.374 . S
C193 C190 1.499 . S
C193 C194 1.373 1_556 S
C193 C195 1.389 . S
C194 H167 0.950 . S
C194 C180 1.377 . S
C194 C193 1.373 1_554 S
C195 C179 1.377 . S
C195 C193 1.389 . S
C195 C196 1.524 . S
C196 C195 1.524 . S
C196 C197 1.397 . S
C196 C201 1.363 . S
C197 H168 0.950 . S
C197 C196 1.397 . S
C197 C198 1.334 . S
C198 H169 0.950 . S
C198 C197 1.334 . S
C198 C199 1.287 . S
C199 C198 1.287 . S
C199 C200 1.524 . S
C199 H202 0.999 . S
C200 H170 0.950 . S
C200 C199 1.524 . S
C200 C201 1.415 . S
C201 H171 0.950 . S
C201 C196 1.363 . S
C201 C200 1.415 . S
H202 C199 0.999 . S
H203 C184 0.913 . S
H204 C222 0.951 . S
H205 C224 0.951 . S
H206 C226 0.950 . S
H207 C227 0.950 . S
H208 C229 0.950 . S
H209 C232 0.950 . S
H210 C233 0.950 . S
H211 C235 0.950 . S
H212 C236 0.950 . S
H213 C237 0.951 1_556 S
H214 C239 0.951 1_556 S
H215 C241 0.950 . S
H216 C242 0.950 . S
H217 C244 0.950 . S
H218 C247 0.950 . S
H219 C248 0.950 . S
H220 C250 0.950 . S
H221 C251 0.950 . S
C222 H204 0.951 . S
C222 C223 1.366 . S
C222 C224 1.388 . S
C223 C222 1.366 . S
C223 C227 1.385 1_554 S
C224 H205 0.951 . S
C224 C222 1.388 . S
C224 C225 1.366 . S
C225 C224 1.366 . S
C225 C226 1.414 1_554 S
C225 C228 1.499 . S
C226 H206 0.950 . S
C226 C225 1.414 1_556 S
C226 C227 1.374 . S
C227 H207 0.950 . S
C227 C223 1.385 1_556 S
C227 C226 1.374 . S
C228 C225 1.499 . S
C228 C229 1.373 1_554 S
C228 C230 1.389 . S
C229 H208 0.950 . S
C229 C228 1.373 1_556 S
C229 C245 1.377 . S
C230 C228 1.389 . S
C230 C231 1.524 . S
C230 C244 1.377 . S
C231 C230 1.524 . S
C231 C232 1.397 . S
C231 C236 1.363 . S
C232 H209 0.950 . S
C232 C231 1.397 . S
C232 C233 1.334 . S
C233 H210 0.950 . S
C233 C232 1.334 . S
C233 C234 1.287 . S
C234 C233 1.287 . S
C234 C235 1.524 . S
C234 H253 0.913 . S
C235 H211 0.950 . S
C235 C234 1.524 . S
C235 C236 1.415 . S
C236 H212 0.950 . S
C236 C231 1.363 . S
C236 C235 1.415 . S
C237 H213 0.951 1_554 S
C237 C238 1.366 . S
C237 C239 1.388 . S
C238 C237 1.366 . S
C238 C242 1.385 . S
C239 H214 0.951 1_554 S
C239 C237 1.388 . S
C239 C240 1.366 . S
C240 C239 1.366 . S
C240 C241 1.414 . S
C240 C243 1.499 . S
C241 H215 0.950 . S
C241 C240 1.414 . S
C241 C242 1.374 . S
C242 H216 0.950 . S
C242 C238 1.385 . S
C242 C241 1.374 . S
C243 C240 1.499 . S
C243 C244 1.373 . S
C243 C245 1.389 1_554 S
C244 H217 0.950 . S
C244 C230 1.377 . S
C244 C243 1.373 . S
C245 C229 1.377 . S
C245 C243 1.389 1_556 S
C245 C246 1.524 . S
C246 C245 1.524 . S
C246 C247 1.397 . S
C246 C251 1.363 . S
C247 H218 0.950 . S
C247 C246 1.397 . S
C247 C248 1.334 . S
C248 H219 0.950 . S
C248 C247 1.334 . S
C248 C249 1.287 . S
C249 C248 1.287 . S
C249 C250 1.524 . S
C249 H252 0.999 . S
C250 H220 0.950 . S
C250 C249 1.524 . S
C250 C251 1.415 . S
C251 H221 0.950 . S
C251 C246 1.363 . S
C251 C250 1.415 . S
H252 C249 0.999 . S
H253 C234 0.913 . S
H254 C272 0.951 . S
H255 C274 0.951 . S
H256 C276 0.950 . S
H257 C277 0.950 . S
H258 C279 0.950 . S
H259 C282 0.950 . S
H260 C283 0.950 . S
H261 C285 0.950 . S
H262 C286 0.950 . S
H263 C287 0.951 . S
H264 C289 0.951 . S
H265 C291 0.950 . S
H266 C292 0.950 . S
H267 C294 0.950 . S
H268 C297 0.950 . S
H269 C298 0.950 . S
H270 C300 0.950 . S
H271 C301 0.950 . S
C272 H254 0.951 . S
C272 C273 1.366 . S
C272 C274 1.388 . S
C273 C272 1.366 . S
C273 C277 1.385 1_556 S
C274 H255 0.951 . S
C274 C272 1.388 . S
C274 C275 1.366 . S
C275 C274 1.366 . S
C275 C276 1.414 1_556 S
C275 C278 1.499 . S
C276 H256 0.950 . S
C276 C275 1.414 1_554 S
C276 C277 1.374 . S
C277 H257 0.950 . S
C277 C273 1.385 1_554 S
C277 C276 1.374 . S
C278 C275 1.499 . S
C278 C279 1.373 . S
C278 C280 1.389 . S
C279 H258 0.950 . S
C279 C278 1.373 . S
C279 C295 1.377 . S
C280 C278 1.389 . S
C280 C281 1.524 1_556 S
C280 C294 1.377 . S
C281 C280 1.524 1_554 S
C281 C282 1.397 . S
C281 C286 1.363 1_554 S
C282 H259 0.950 . S
C282 C281 1.397 . S
C282 C283 1.334 . S
C283 H260 0.950 . S
C283 C282 1.334 . S
C283 C284 1.287 . S
C284 C283 1.287 . S
C284 C285 1.524 . S
C284 H303 0.913 . S
C285 H261 0.950 . S
C285 C284 1.524 . S
C285 C286 1.415 1_554 S
C286 H262 0.950 . S
C286 C281 1.363 1_556 S
C286 C285 1.415 1_556 S
C287 H263 0.951 . S
C287 C288 1.366 . S
C287 C289 1.388 . S
C288 C287 1.366 . S
C288 C292 1.385 . S
C289 H264 0.951 . S
C289 C287 1.388 . S
C289 C290 1.366 . S
C290 C289 1.366 . S
C290 C291 1.414 . S
C290 C293 1.499 . S
C291 H265 0.950 . S
C291 C290 1.414 . S
C291 C292 1.374 . S
C292 H266 0.950 . S
C292 C288 1.385 . S
C292 C291 1.374 . S
C293 C290 1.499 . S
C293 C294 1.373 . S
C293 C295 1.389 . S
C294 H267 0.950 . S
C294 C280 1.377 . S
C294 C293 1.373 . S
C295 C279 1.377 . S
C295 C293 1.389 . S
C295 C296 1.524 . S
C296 C295 1.524 . S
C296 C297 1.397 . S
C296 C301 1.363 . S
C297 H268 0.950 . S
C297 C296 1.397 . S
C297 C298 1.334 . S
C298 H269 0.950 . S
C298 C297 1.334 . S
C298 C299 1.287 . S
C299 C298 1.287 . S
C299 C300 1.524 . S
C299 H302 0.999 . S
C300 H270 0.950 . S
C300 C299 1.524 . S
C300 C301 1.415 . S
C301 H271 0.950 . S
C301 C296 1.363 . S
C301 C300 1.415 . S
H302 C299 0.999 . S
H303 C284 0.913 . S
H304 C322 0.951 . S
H305 C324 0.951 . S
H306 C326 0.950 . S
H307 C327 0.950 . S
H308 C329 0.950 . S
H309 C332 0.950 . S
H310 C333 0.950 . S
H311 C335 0.950 . S
H312 C336 0.950 . S
H313 C337 0.951 . S
H314 C339 0.951 . S
H315 C341 0.950 . S
H316 C342 0.950 . S
H317 C344 0.950 . S
H318 C347 0.950 . S
H319 C348 0.950 . S
H320 C350 0.950 . S
H321 C351 0.950 . S
C322 H304 0.951 . S
C322 C323 1.366 . S
C322 C324 1.388 . S
C323 C322 1.366 . S
C323 C327 1.385 . S
C324 H305 0.951 . S
C324 C322 1.388 . S
C324 C325 1.366 . S
C325 C324 1.366 . S
C325 C326 1.414 . S
C325 C328 1.499 . S
C326 H306 0.950 . S
C326 C325 1.414 . S
C326 C327 1.374 . S
C327 H307 0.950 . S
C327 C323 1.385 . S
C327 C326 1.374 . S
C328 C325 1.499 . S
C328 C329 1.373 . S
C328 C330 1.389 . S
C329 H308 0.950 . S
C329 C328 1.373 . S
C329 C345 1.377 . S
C330 C328 1.389 . S
C330 C331 1.524 . S
C330 C344 1.377 . S
C331 C330 1.524 . S
C331 C332 1.397 . S
C331 C336 1.363 . S
C332 H309 0.950 . S
C332 C331 1.397 . S
C332 C333 1.334 . S
C333 H310 0.950 . S
C333 C332 1.334 . S
C333 C334 1.287 . S
C334 C333 1.287 . S
C334 C335 1.524 . S
C334 H353 0.913 . S
C335 H311 0.950 . S
C335 C334 1.524 . S
C335 C336 1.415 . S
C336 H312 0.950 . S
C336 C331 1.363 . S
C336 C335 1.415 . S
C337 H313 0.951 . S
C337 C338 1.366 . S
C337 C339 1.388 . S
C338 C337 1.366 . S
C338 C342 1.385 . S
C339 H314 0.951 . S
C339 C337 1.388 . S
C339 C340 1.366 . S
C340 C339 1.366 . S
C340 C341 1.414 . S
C340 C343 1.499 . S
C341 H315 0.950 . S
C341 C340 1.414 . S
C341 C342 1.374 . S
C342 H316 0.950 . S
C342 C338 1.385 . S
C342 C341 1.374 . S
C343 C340 1.499 . S
C343 C344 1.373 . S
C343 C345 1.389 . S
C344 H317 0.950 . S
C344 C330 1.377 . S
C344 C343 1.373 . S
C345 C329 1.377 . S
C345 C343 1.389 . S
C345 C346 1.524 . S
C346 C345 1.524 . S
C346 C347 1.397 . S
C346 C351 1.363 . S
C347 H318 0.950 . S
C347 C346 1.397 . S
C347 C348 1.334 . S
C348 H319 0.950 . S
C348 C347 1.334 . S
C348 C349 1.287 . S
C349 C348 1.287 . S
C349 C350 1.524 . S
C349 H352 0.999 . S
C350 H320 0.950 . S
C350 C349 1.524 . S
C350 C351 1.415 . S
C351 H321 0.950 . S
C351 C346 1.363 . S
C351 C350 1.415 . S
H352 C349 0.999 . S
H353 C334 0.913 . S
H354 C372 0.951 . S
H355 C374 0.951 . S
H356 C376 0.950 . S
H357 C377 0.950 . S
H358 C379 0.950 . S
H359 C382 0.950 . S
H360 C383 0.950 . S
H361 C385 0.950 . S
H362 C386 0.950 . S
H363 C387 0.951 . S
H364 C389 0.951 . S
H365 C391 0.950 . S
H366 C392 0.950 . S
H367 C394 0.950 . S
H368 C397 0.950 . S
H369 C398 0.950 . S
H370 C400 0.950 . S
H371 C401 0.950 . S
C372 H354 0.951 . S
C372 C373 1.366 . S
C372 C374 1.388 . S
C373 C372 1.366 . S
C373 C377 1.385 . S
C374 H355 0.951 . S
C374 C372 1.388 . S
C374 C375 1.366 . S
C375 C374 1.366 . S
C375 C376 1.414 . S
C375 C378 1.499 . S
C376 H356 0.950 . S
C376 C375 1.414 . S
C376 C377 1.374 . S
C377 H357 0.950 . S
C377 C373 1.385 . S
C377 C376 1.374 . S
C378 C375 1.499 . S
C378 C379 1.373 . S
C378 C380 1.389 . S
C379 H358 0.950 . S
C379 C378 1.373 . S
C379 C395 1.377 . S
C380 C378 1.389 . S
C380 C381 1.524 . S
C380 C394 1.377 . S
C381 C380 1.524 . S
C381 C382 1.397 . S
C381 C386 1.363 . S
C382 H359 0.950 . S
C382 C381 1.397 . S
C382 C383 1.334 . S
C383 H360 0.950 . S
C383 C382 1.334 . S
C383 C384 1.287 . S
C384 C383 1.287 . S
C384 C385 1.524 . S
C384 H403 0.913 . S
C385 H361 0.950 . S
C385 C384 1.524 . S
C385 C386 1.415 . S
C386 H362 0.950 . S
C386 C381 1.363 . S
C386 C385 1.415 . S
C387 H363 0.951 . S
C387 C388 1.366 . S
C387 C389 1.388 . S
C388 C387 1.366 . S
C388 C392 1.385 . S
C389 H364 0.951 . S
C389 C387 1.388 . S
C389 C390 1.366 . S
C390 C389 1.366 . S
C390 C391 1.414 . S
C390 C393 1.499 . S
C391 H365 0.950 . S
C391 C390 1.414 . S
C391 C392 1.374 . S
C392 H366 0.950 . S
C392 C388 1.385 . S
C392 C391 1.374 . S
C393 C390 1.499 . S
C393 C394 1.373 . S
C393 C395 1.389 . S
C394 H367 0.950 . S
C394 C380 1.377 . S
C394 C393 1.373 . S
C395 C379 1.377 . S
C395 C393 1.389 . S
C395 C396 1.524 . S
C396 C395 1.524 . S
C396 C397 1.397 . S
C396 C401 1.363 . S
C397 H368 0.950 . S
C397 C396 1.397 . S
C397 C398 1.334 . S
C398 H369 0.950 . S
C398 C397 1.334 . S
C398 C399 1.287 . S
C399 C398 1.287 . S
C399 C400 1.524 . S
C399 H402 0.999 . S
C400 H370 0.950 . S
C400 C399 1.524 . S
C400 C401 1.415 . S
C401 H371 0.950 . S
C401 C396 1.363 . S
C401 C400 1.415 . S
H402 C399 0.999 . S
H403 C384 0.913 . S
H404 C422 0.951 . S
H405 C424 0.951 . S
H406 C426 0.950 . S
H407 C427 0.950 . S
H408 C429 0.950 . S
H409 C432 0.950 . S
H410 C433 0.950 . S
H411 C435 0.950 . S
H412 C436 0.950 . S
H413 C437 0.951 . S
H414 C439 0.951 . S
H415 C441 0.950 . S
H416 C442 0.950 . S
H417 C444 0.950 . S
H418 C447 0.950 . S
H419 C448 0.950 . S
H420 C450 0.950 . S
H421 C451 0.950 . S
C422 H404 0.951 . S
C422 C423 1.366 . S
C422 C424 1.388 . S
C423 C422 1.366 . S
C423 C427 1.385 . S
C424 H405 0.951 . S
C424 C422 1.388 . S
C424 C425 1.366 . S
C425 C424 1.366 . S
C425 C426 1.414 . S
C425 C428 1.499 . S
C426 H406 0.950 . S
C426 C425 1.414 . S
C426 C427 1.374 . S
C427 H407 0.950 . S
C427 C423 1.385 . S
C427 C426 1.374 . S
C428 C425 1.499 . S
C428 C429 1.373 . S
C428 C430 1.389 . S
C429 H408 0.950 . S
C429 C428 1.373 . S
C429 C445 1.377 . S
C430 C428 1.389 . S
C430 C431 1.524 . S
C430 C444 1.377 . S
C431 C430 1.524 . S
C431 C432 1.397 . S
C431 C436 1.363 . S
C432 H409 0.950 . S
C432 C431 1.397 . S
C432 C433 1.334 . S
C433 H410 0.950 . S
C433 C432 1.334 . S
C433 C434 1.287 . S
C434 C433 1.287 . S
C434 C435 1.524 . S
C434 H453 0.913 . S
C435 H411 0.950 . S
C435 C434 1.524 . S
C435 C436 1.415 . S
C436 H412 0.950 . S
C436 C431 1.363 . S
C436 C435 1.415 . S
C437 H413 0.951 . S
C437 C438 1.366 . S
C437 C439 1.388 . S
C438 C437 1.366 . S
C438 C442 1.385 . S
C439 H414 0.951 . S
C439 C437 1.388 . S
C439 C440 1.366 . S
C440 C439 1.366 . S
C440 C441 1.414 . S
C440 C443 1.499 . S
C441 H415 0.950 . S
C441 C440 1.414 . S
C441 C442 1.374 . S
C442 H416 0.950 . S
C442 C438 1.385 . S
C442 C441 1.374 . S
C443 C440 1.499 . S
C443 C444 1.373 . S
C443 C445 1.389 . S
C444 H417 0.950 . S
C444 C430 1.377 . S
C444 C443 1.373 . S
C445 C429 1.377 . S
C445 C443 1.389 . S
C445 C446 1.524 . S
C446 C445 1.524 . S
C446 C447 1.397 . S
C446 C451 1.363 . S
C447 H418 0.950 . S
C447 C446 1.397 . S
C447 C448 1.334 . S
C448 H419 0.950 . S
C448 C447 1.334 . S
C448 C449 1.287 . S
C449 C448 1.287 . S
C449 C450 1.524 . S
C449 H452 0.999 . S
C450 H420 0.950 . S
C450 C449 1.524 . S
C450 C451 1.415 . S
C451 H421 0.950 . S
C451 C446 1.363 . S
C451 C450 1.415 . S
H452 C449 0.999 . S
H453 C434 0.913 . S
H454 C472 0.951 . S
H455 C474 0.951 . S
H456 C476 0.950 . S
H457 C477 0.950 . S
H458 C479 0.950 . S
H459 C482 0.950 . S
H460 C483 0.950 . S
H461 C485 0.950 . S
H462 C486 0.950 . S
H463 C487 0.951 . S
H464 C489 0.951 . S
H465 C491 0.950 . S
H466 C492 0.950 . S
H467 C494 0.950 . S
H468 C497 0.950 . S
H469 C498 0.950 . S
H470 C500 0.950 . S
H471 C501 0.950 . S
C472 H454 0.951 . S
C472 C473 1.366 . S
C472 C474 1.388 . S
C473 C472 1.366 . S
C473 C477 1.385 . S
C474 H455 0.951 . S
C474 C472 1.388 . S
C474 C475 1.366 . S
C475 C474 1.366 . S
C475 C476 1.414 . S
C475 C478 1.499 . S
C476 H456 0.950 . S
C476 C475 1.414 . S
C476 C477 1.374 . S
C477 H457 0.950 . S
C477 C473 1.385 . S
C477 C476 1.374 . S
C478 C475 1.499 . S
C478 C479 1.373 . S
C478 C480 1.389 . S
C479 H458 0.950 . S
C479 C478 1.373 . S
C479 C495 1.377 . S
C480 C478 1.389 . S
C480 C481 1.524 . S
C480 C494 1.377 . S
C481 C480 1.524 . S
C481 C482 1.397 . S
C481 C486 1.363 . S
C482 H459 0.950 . S
C482 C481 1.397 . S
C482 C483 1.334 . S
C483 H460 0.950 . S
C483 C482 1.334 . S
C483 C484 1.287 . S
C484 C483 1.287 . S
C484 C485 1.524 . S
C484 H503 0.913 . S
C485 H461 0.950 . S
C485 C484 1.524 . S
C485 C486 1.415 . S
C486 H462 0.950 . S
C486 C481 1.363 . S
C486 C485 1.415 . S
C487 H463 0.951 . S
C487 C488 1.366 . S
C487 C489 1.388 . S
C488 C487 1.366 . S
C488 C492 1.385 . S
C489 H464 0.951 . S
C489 C487 1.388 . S
C489 C490 1.366 . S
C490 C489 1.366 . S
C490 C491 1.414 . S
C490 C493 1.499 . S
C491 H465 0.950 . S
C491 C490 1.414 . S
C491 C492 1.374 . S
C492 H466 0.950 . S
C492 C488 1.385 . S
C492 C491 1.374 . S
C493 C490 1.499 . S
C493 C494 1.373 . S
C493 C495 1.389 . S
C494 H467 0.950 . S
C494 C480 1.377 . S
C494 C493 1.373 . S
C495 C479 1.377 . S
C495 C493 1.389 . S
C495 C496 1.524 . S
C496 C495 1.524 . S
C496 C497 1.397 . S
C496 C501 1.363 . S
C497 H468 0.950 . S
C497 C496 1.397 . S
C497 C498 1.334 . S
C498 H469 0.950 . S
C498 C497 1.334 . S
C498 C499 1.287 . S
C499 C498 1.287 . S
C499 C500 1.524 . S
C499 H502 0.999 . S
C500 H470 0.950 . S
C500 C499 1.524 . S
C500 C501 1.415 . S
C501 H471 0.950 . S
C501 C496 1.363 . S
C501 C500 1.415 . S
H502 C499 0.999 . S
H503 C484 0.913 . S
H504 C522 0.951 . S
H505 C524 0.951 . S
H506 C526 0.950 . S
H507 C527 0.950 . S
H508 C529 0.950 . S
H509 C532 0.950 . S
H510 C533 0.950 . S
H511 C535 0.950 . S
H512 C536 0.950 . S
H513 C537 0.951 . S
H514 C539 0.951 . S
H515 C541 0.950 . S
H516 C542 0.950 . S
H517 C544 0.950 . S
H518 C547 0.950 . S
H519 C548 0.950 . S
H520 C550 0.950 . S
H521 C551 0.950 . S
C522 H504 0.951 . S
C522 C523 1.366 1_565 S
C522 C524 1.388 . S
C523 C522 1.366 1_545 S
C523 C527 1.385 . S
C524 H505 0.951 . S
C524 C522 1.388 . S
C524 C525 1.366 1_565 S
C525 C524 1.366 1_545 S
C525 C526 1.414 . S
C525 C528 1.499 . S
C526 H506 0.950 . S
C526 C525 1.414 . S
C526 C527 1.374 . S
C527 H507 0.950 . S
C527 C523 1.385 . S
C527 C526 1.374 . S
C528 C525 1.499 . S
C528 C529 1.373 . S
C528 C530 1.389 1_445 S
C529 H508 0.950 . S
C529 C528 1.373 . S
C529 C545 1.377 . S
C530 C528 1.389 1_665 S
C530 C531 1.524 . S
C530 C544 1.377 . S
C531 C530 1.524 . S
C531 C532 1.397 . S
C531 C536 1.363 . S
C532 H509 0.950 . S
C532 C531 1.397 . S
C532 C533 1.334 . S
C533 H510 0.950 . S
C533 C532 1.334 . S
C533 C534 1.287 . S
C534 C533 1.287 . S
C534 C535 1.524 . S
C534 H553 0.913 . S
C535 H511 0.950 . S
C535 C534 1.524 . S
C535 C536 1.415 . S
C536 H512 0.950 . S
C536 C531 1.363 . S
C536 C535 1.415 . S
C537 H513 0.951 . S
C537 C538 1.366 . S
C537 C539 1.388 . S
C538 C537 1.366 . S
C538 C542 1.385 1_545 S
C539 H514 0.951 . S
C539 C537 1.388 . S
C539 C540 1.366 . S
C540 C539 1.366 . S
C540 C541 1.414 1_545 S
C540 C543 1.499 . S
C541 H515 0.950 . S
C541 C540 1.414 1_565 S
C541 C542 1.374 . S
C542 H516 0.950 . S
C542 C538 1.385 1_565 S
C542 C541 1.374 . S
C543 C540 1.499 . S
C543 C544 1.373 1_445 S
C543 C545 1.389 . S
C544 H517 0.950 . S
C544 C530 1.377 . S
C544 C543 1.373 1_665 S
C545 C529 1.377 . S
C545 C543 1.389 . S
C545 C546 1.524 . S
C546 C545 1.524 . S
C546 C547 1.397 . S
C546 C551 1.363 . S
C547 H518 0.950 . S
C547 C546 1.397 . S
C547 C548 1.334 . S
C548 H519 0.950 . S
C548 C547 1.334 . S
C548 C549 1.287 . S
C549 C548 1.287 . S
C549 C550 1.524 . S
C549 H552 0.999 . S
C550 H520 0.950 . S
C550 C549 1.524 . S
C550 C551 1.415 . S
C551 H521 0.950 . S
C551 C546 1.363 . S
C551 C550 1.415 . S
H552 C549 0.999 . S
H553 C534 0.913 . S
H554 C572 0.951 . S
H555 C574 0.951 . S
H556 C576 0.950 . S
H557 C577 0.950 . S
H558 C579 0.950 . S
H559 C582 0.950 . S
H560 C583 0.950 . S
H561 C585 0.950 . S
H562 C586 0.950 . S
H563 C587 0.951 . S
H564 C589 0.951 . S
H565 C591 0.950 . S
H566 C592 0.950 . S
H567 C594 0.950 . S
H568 C597 0.950 . S
H569 C598 0.962 . S
H570 C600 0.950 . S
H571 C601 0.950 . S
C572 H554 0.951 . S
C572 C573 1.366 1_665 S
C572 C574 1.388 . S
C573 C572 1.366 1_445 S
C573 C577 1.385 . S
C574 H555 0.951 . S
C574 C572 1.388 . S
C574 C575 1.366 1_665 S
C575 C574 1.366 1_445 S
C575 C576 1.414 . S
C575 C578 1.499 . S
C576 H556 0.950 . S
C576 C575 1.414 . S
C576 C577 1.374 . S
C577 H557 0.950 . S
C577 C573 1.385 . S
C577 C576 1.374 . S
C578 C575 1.499 . S
C578 C579 1.373 . S
C578 C580 1.389 1_445 S
C579 H558 0.950 . S
C579 C578 1.373 . S
C579 C595 1.377 . S
C580 C578 1.389 1_665 S
C580 C581 1.524 . S
C580 C594 1.377 . S
C581 C580 1.524 . S
C581 C582 1.397 1_655 S
C581 C586 1.363 . S
C582 H559 0.950 . S
C582 C581 1.397 1_455 S
C582 C583 1.334 . S
C583 H560 0.950 . S
C583 C582 1.334 . S
C583 C584 1.287 1_455 S
C584 C583 1.287 1_655 S
C584 C585 1.524 . S
C584 H603 0.913 . S
C585 H561 0.950 . S
C585 C584 1.524 . S
C585 C586 1.415 . S
C586 H562 0.950 . S
C586 C581 1.363 . S
C586 C585 1.415 . S
C587 H563 0.951 . S
C587 C588 1.366 1_455 S
C587 C589 1.388 . S
C588 C587 1.366 1_655 S
C588 C592 1.385 1_545 S
C589 H564 0.951 . S
C589 C587 1.388 . S
C589 C590 1.366 1_455 S
C590 C589 1.366 1_655 S
C590 C591 1.414 1_545 S
C590 C593 1.499 . S
C591 H565 0.950 . S
C591 C590 1.414 1_565 S
C591 C592 1.374 . S
C592 H566 0.950 . S
C592 C588 1.385 1_565 S
C592 C591 1.374 . S
C593 C590 1.499 . S
C593 C594 1.373 1_545 S
C593 C595 1.389 1_655 S
C594 H567 0.950 . S
C594 C580 1.377 . S
C594 C593 1.373 1_565 S
C595 C579 1.377 . S
C595 C593 1.389 1_455 S
C595 C596 1.524 . S
C596 C595 1.524 . S
C596 C597 1.397 1_455 S
C596 C601 1.363 . S
C597 H568 0.950 . S
C597 C596 1.397 1_655 S
C597 C598 1.336 . S
C598 H569 0.962 . S
C598 C597 1.336 . S
C598 C599 1.273 1_655 S
C599 C598 1.273 1_455 S
C599 C600 1.524 . S
C599 H602 0.999 . S
C600 H570 0.950 . S
C600 C599 1.524 . S
C600 C601 1.415 . S
C601 H571 0.950 . S
C601 C596 1.363 . S
C601 C600 1.415 . S
H602 C599 0.999 . S
H603 C584 0.913 . S
H604 C622 0.951 . S
H605 C624 0.951 . S
H606 C626 0.950 . S
H607 C627 0.950 . S
H608 C629 0.950 . S
H609 C632 0.950 . S
H610 C633 0.950 . S
H611 C635 0.950 . S
H612 C636 0.950 . S
H613 C637 0.951 . S
H614 C639 0.951 . S
H615 C641 0.950 . S
H616 C642 0.950 . S
H617 C644 0.950 . S
H618 C647 0.950 . S
H619 C648 0.950 . S
H620 C650 0.950 . S
H621 C651 0.950 . S
C622 H604 0.951 . S
C622 C623 1.366 . S
C622 C624 1.388 . S
C623 C622 1.366 . S
C623 C627 1.385 . S
C624 H605 0.951 . S
C624 C622 1.388 . S
C624 C625 1.366 . S
C625 C624 1.366 . S
C625 C626 1.414 . S
C625 C628 1.499 . S
C626 H606 0.950 . S
C626 C625 1.414 . S
C626 C627 1.374 . S
C627 H607 0.950 . S
C627 C623 1.385 . S
C627 C626 1.374 . S
C628 C625 1.499 . S
C628 C629 1.373 . S
C628 C630 1.389 . S
C629 H608 0.950 . S
C629 C628 1.373 . S
C629 C645 1.377 . S
C630 C628 1.389 . S
C630 C631 1.524 . S
C630 C644 1.377 . S
C631 C630 1.524 . S
C631 C632 1.397 . S
C631 C636 1.363 . S
C632 H609 0.950 . S
C632 C631 1.397 . S
C632 C633 1.334 . S
C633 H610 0.950 . S
C633 C632 1.334 . S
C633 C634 1.287 . S
C634 C633 1.287 . S
C634 C635 1.524 . S
C634 H653 0.913 . S
C635 H611 0.950 . S
C635 C634 1.524 . S
C635 C636 1.415 . S
C636 H612 0.950 . S
C636 C631 1.363 . S
C636 C635 1.415 . S
C637 H613 0.951 . S
C637 C638 1.366 . S
C637 C639 1.388 . S
C638 C637 1.366 . S
C638 C642 1.385 . S
C639 H614 0.951 . S
C639 C637 1.388 . S
C639 C640 1.366 . S
C640 C639 1.366 . S
C640 C641 1.414 . S
C640 C643 1.499 . S
C641 H615 0.950 . S
C641 C640 1.414 . S
C641 C642 1.374 . S
C642 H616 0.950 . S
C642 C638 1.385 . S
C642 C641 1.374 . S
C643 C640 1.499 . S
C643 C644 1.373 . S
C643 C645 1.389 . S
C644 H617 0.950 . S
C644 C630 1.377 . S
C644 C643 1.373 . S
C645 C629 1.377 . S
C645 C643 1.389 . S
C645 C646 1.524 . S
C646 C645 1.524 . S
C646 C647 1.397 . S
C646 C651 1.363 . S
C647 H618 0.950 . S
C647 C646 1.397 . S
C647 C648 1.334 . S
C648 H619 0.950 . S
C648 C647 1.334 . S
C648 C649 1.287 . S
C649 C648 1.287 . S
C649 C650 1.524 . S
C649 H652 0.999 . S
C650 H620 0.950 . S
C650 C649 1.524 . S
C650 C651 1.415 . S
C651 H621 0.950 . S
C651 C646 1.363 . S
C651 C650 1.415 . S
H652 C649 0.999 . S
H653 C634 0.913 . S
H654 C672 0.951 . S
H655 C674 0.951 . S
H656 C676 0.950 . S
H657 C677 0.950 . S
H658 C679 0.950 . S
H659 C682 0.950 . S
H660 C683 0.950 . S
H661 C685 0.950 . S
H662 C686 0.950 . S
H663 C687 0.951 . S
H664 C689 0.951 . S
H665 C691 0.950 . S
H666 C692 0.950 . S
H667 C694 0.950 . S
H668 C697 0.950 . S
H669 C698 0.950 . S
H670 C700 0.950 . S
H671 C701 0.950 . S
C672 H654 0.951 . S
C672 C673 1.366 . S
C672 C674 1.388 . S
C673 C672 1.366 . S
C673 C677 1.385 . S
C674 H655 0.951 . S
C674 C672 1.388 . S
C674 C675 1.366 . S
C675 C674 1.366 . S
C675 C676 1.414 . S
C675 C678 1.499 . S
C676 H656 0.950 . S
C676 C675 1.414 . S
C676 C677 1.374 . S
C677 H657 0.950 . S
C677 C673 1.385 . S
C677 C676 1.374 . S
C678 C675 1.499 . S
C678 C679 1.373 . S
C678 C680 1.389 . S
C679 H658 0.950 . S
C679 C678 1.373 . S
C679 C695 1.377 . S
C680 C678 1.389 . S
C680 C681 1.524 . S
C680 C694 1.377 . S
C681 C680 1.524 . S
C681 C682 1.397 . S
C681 C686 1.363 . S
C682 H659 0.950 . S
C682 C681 1.397 . S
C682 C683 1.334 . S
C683 H660 0.950 . S
C683 C682 1.334 . S
C683 C684 1.287 . S
C684 C683 1.287 . S
C684 C685 1.524 . S
C684 H703 0.913 . S
C685 H661 0.950 . S
C685 C684 1.524 . S
C685 C686 1.415 . S
C686 H662 0.950 . S
C686 C681 1.363 . S
C686 C685 1.415 . S
C687 H663 0.951 . S
C687 C688 1.366 . S
C687 C689 1.388 . S
C688 C687 1.366 . S
C688 C692 1.385 . S
C689 H664 0.951 . S
C689 C687 1.388 . S
C689 C690 1.366 . S
C690 C689 1.366 . S
C690 C691 1.414 . S
C690 C693 1.499 . S
C691 H665 0.950 . S
C691 C690 1.414 . S
C691 C692 1.374 . S
C692 H666 0.950 . S
C692 C688 1.385 . S
C692 C691 1.374 . S
C693 C690 1.499 . S
C693 C694 1.373 . S
C693 C695 1.389 . S
C694 H667 0.950 . S
C694 C680 1.377 . S
C694 C693 1.373 . S
C695 C679 1.377 . S
C695 C693 1.389 . S
C695 C696 1.524 . S
C696 C695 1.524 . S
C696 C697 1.397 . S
C696 C701 1.363 . S
C697 H668 0.950 . S
C697 C696 1.397 . S
C697 C698 1.334 . S
C698 H669 0.950 . S
C698 C697 1.334 . S
C698 C699 1.287 . S
C699 C698 1.287 . S
C699 C700 1.524 . S
C699 H702 0.999 . S
C700 H670 0.950 . S
C700 C699 1.524 . S
C700 C701 1.415 . S
C701 H671 0.950 . S
C701 C696 1.363 . S
C701 C700 1.415 . S
H702 C699 0.999 . S
H703 C684 0.913 . S
C138 C99 1.436 . S
C123 C27 1.460 . S
C173 N6 1.298 . S
C188 N86 1.315 . S
C223 C16 1.376 . S
C238 N97 1.335 . S
C273 N14 1.420 1_556 S
C288 C88 1.423 . S
C323 C57 1.460 . S
C338 C77 1.436 . S
C373 N36 1.298 . S
C388 N64 1.315 . S
C438 N75 1.336 . S
C423 C46 1.375 . S
C488 C66 1.423 . S
C473 N44 1.420 . S
C523 C10 1.470 . S
C538 C69 1.466 1_545 S
C573 C1 1.539 . S
C588 C80 1.533 . S
C638 C91 1.466 . S
C623 C40 1.470 . S
C673 C31 1.539 . S
C688 C102 1.533 . S
