# Generated by pormake.
# Topology eea, (3,6)-cn, num edge types: 1
# Building blocks:
#     Node 0, Type 0, BuildingBlock: KAKCAD_clean_linker_0, # of connection points: 3
#     Node 1, Type 0, BuildingBlock: KAKCAD_clean_linker_0, # of connection points: 3
#     Node 2, Type 0, BuildingBlock: KAKCAD_clean_linker_0, # of connection points: 3
#     Node 3, Type 0, BuildingBlock: KAKCAD_clean_linker_0, # of connection points: 3
#     Node 4, Type 0, BuildingBlock: KAKCAD_clean_linker_0, # of connection points: 3
#     Node 5, Type 0, BuildingBlock: KAKCAD_clean_linker_0, # of connection points: 3
#     Node 6, Type 0, BuildingBlock: KAKCAD_clean_linker_0, # of connection points: 3
#     Node 7, Type 0, BuildingBlock: KAKCAD_clean_linker_0, # of connection points: 3
#     Node 8, Type 0, BuildingBlock: KAKCAD_clean_linker_0, # of connection points: 3
#     Node 9, Type 0, BuildingBlock: KAKCAD_clean_linker_0, # of connection points: 3
#     Node 10, Type 0, BuildingBlock: KAKCAD_clean_linker_0, # of connection points: 3
#     Node 11, Type 0, BuildingBlock: KAKCAD_clean_linker_0, # of connection points: 3
#     Node 12, Type 0, BuildingBlock: KAKCAD_clean_linker_0, # of connection points: 3
#     Node 13, Type 0, BuildingBlock: KAKCAD_clean_linker_0, # of connection points: 3
#     Node 14, Type 0, BuildingBlock: KAKCAD_clean_linker_0, # of connection points: 3
#     Node 15, Type 0, BuildingBlock: KAKCAD_clean_linker_0, # of connection points: 3
#     Node 16, Type 0, BuildingBlock: KAKCAD_clean_linker_0, # of connection points: 3
#     Node 17, Type 0, BuildingBlock: KAKCAD_clean_linker_0, # of connection points: 3
#     Node 18, Type 1, BuildingBlock: HISSIN_clean_sbu_0, # of connection points: 6
#     Node 19, Type 1, BuildingBlock: HISSIN_clean_sbu_0, # of connection points: 6
#     Node 20, Type 1, BuildingBlock: HISSIN_clean_sbu_0, # of connection points: 6
#     Node 21, Type 1, BuildingBlock: HISSIN_clean_sbu_0, # of connection points: 6
#     Node 22, Type 1, BuildingBlock: HISSIN_clean_sbu_0, # of connection points: 6
#     Node 23, Type 1, BuildingBlock: HISSIN_clean_sbu_0, # of connection points: 6
#     Node 24, Type 1, BuildingBlock: HISSIN_clean_sbu_0, # of connection points: 6
#     Node 25, Type 1, BuildingBlock: HISSIN_clean_sbu_0, # of connection points: 6
#     Node 26, Type 1, BuildingBlock: HISSIN_clean_sbu_0, # of connection points: 6
#     Edge 27, Type (0, 1), None
#     Edge 28, Type (0, 1), None
#     Edge 29, Type (0, 1), None
#     Edge 30, Type (0, 1), None
#     Edge 31, Type (0, 1), None
#     Edge 32, Type (0, 1), None
#     Edge 33, Type (0, 1), None
#     Edge 34, Type (0, 1), None
#     Edge 35, Type (0, 1), None
#     Edge 36, Type (0, 1), None
#     Edge 37, Type (0, 1), None
#     Edge 38, Type (0, 1), None
#     Edge 39, Type (0, 1), None
#     Edge 40, Type (0, 1), None
#     Edge 41, Type (0, 1), None
#     Edge 42, Type (0, 1), None
#     Edge 43, Type (0, 1), None
#     Edge 44, Type (0, 1), None
#     Edge 45, Type (0, 1), None
#     Edge 46, Type (0, 1), None
#     Edge 47, Type (0, 1), None
#     Edge 48, Type (0, 1), None
#     Edge 49, Type (0, 1), None
#     Edge 50, Type (0, 1), None
#     Edge 51, Type (0, 1), None
#     Edge 52, Type (0, 1), None
#     Edge 53, Type (0, 1), None
#     Edge 54, Type (0, 1), None
#     Edge 55, Type (0, 1), None
#     Edge 56, Type (0, 1), None
#     Edge 57, Type (0, 1), None
#     Edge 58, Type (0, 1), None
#     Edge 59, Type (0, 1), None
#     Edge 60, Type (0, 1), None
#     Edge 61, Type (0, 1), None
#     Edge 62, Type (0, 1), None
#     Edge 63, Type (0, 1), None
#     Edge 64, Type (0, 1), None
#     Edge 65, Type (0, 1), None
#     Edge 66, Type (0, 1), None
#     Edge 67, Type (0, 1), None
#     Edge 68, Type (0, 1), None
#     Edge 69, Type (0, 1), None
#     Edge 70, Type (0, 1), None
#     Edge 71, Type (0, 1), None
#     Edge 72, Type (0, 1), None
#     Edge 73, Type (0, 1), None
#     Edge 74, Type (0, 1), None
#     Edge 75, Type (0, 1), None
#     Edge 76, Type (0, 1), None
#     Edge 77, Type (0, 1), None
#     Edge 78, Type (0, 1), None
#     Edge 79, Type (0, 1), None
#     Edge 80, Type (0, 1), None
# Relax obj value: 0.033
# Max RMSD: 0.130
# Mean RMSD: 0.111
data_MOF--net-eea--node1-HISSIN_clean_sbu_0--node2-KAKCAD_clean_linker_0--edge1-none
_symmetry_space_group_name_H-M    P1
_symmetry_Int_Tables_number       1
_symmetry_cell_setting            triclinic
loop_
_symmetry_equiv_pos_as_xyz
'x, y, z'
_cell_length_a     33.910884
_cell_length_b     34.081768
_cell_length_c     55.762709
_cell_angle_alpha  93.084075
_cell_angle_beta   92.404107
_cell_angle_gamma 120.08213
loop_
_atom_site_label
_atom_site_type_symbol
_atom_site_fract_x
_atom_site_fract_y
_atom_site_fract_z
_atom_type_partial_charge
C0 C 0.32498 0.19715 0.51403 0.0
C1 C 0.35814 0.18601 0.52123 0.0
C2 C 0.30877 0.19041 0.48986 0.0
C3 C 0.3253 0.17227 0.47239 0.0
C4 C 0.35969 0.16272 0.47945 0.0
C5 C 0.37602 0.16961 0.50362 0.0
C6 C 0.30416 0.16 0.4473 0.0
C7 C 0.29304 0.189 0.43551 0.0
C8 C 0.26948 0.17545 0.41251 0.0
C9 C 0.25784 0.13288 0.40121 0.0
C10 C 0.26804 0.10324 0.41288 0.0
C11 C 0.29159 0.11724 0.43582 0.0
C12 C 0.25114 0.05645 0.40188 0.0
C13 C 0.20713 0.03136 0.38995 0.0
C14 C 0.27819 0.03606 0.40379 0.0
C15 C 0.26147 0.99147 0.39407 0.0
C16 C 0.21757 0.96659 0.38206 0.0
C17 C 0.25302 0.20347 0.40114 0.0
C18 C 0.2326 0.22299 0.41497 0.0
C19 C 0.25445 0.20814 0.37622 0.0
C20 C 0.2353 0.23143 0.36532 0.0
C21 C 0.21439 0.25044 0.37917 0.0
C22 C 0.21354 0.2462 0.40413 0.0
C23 C 0.19064 0.98701 0.38001 0.0
H24 H 0.31102 0.21043 0.52716 0.0
H25 H 0.282 0.19773 0.48502 0.0
H26 H 0.37332 0.14906 0.46633 0.0
H27 H 0.40144 0.16053 0.50863 0.0
H28 H 0.30234 0.22194 0.44433 0.0
H29 H 0.29793 0.0938 0.44534 0.0
H30 H 0.23919 0.12206 0.38361 0.0
H31 H 0.18497 0.04564 0.38864 0.0
H32 H 0.31239 0.05466 0.41267 0.0
H33 H 0.28315 0.97669 0.39578 0.0
H34 H 0.23017 0.21927 0.43411 0.0
H35 H 0.27026 0.19366 0.36513 0.0
H36 H 0.15652 0.96854 0.37102 0.0
H37 H 0.19781 0.26052 0.4154 0.0
H38 H 0.2369 0.2345 0.34611 0.0
C39 C 0.87027 0.20823 0.50942 0.0
C40 C 0.85737 0.1763 0.52676 0.0
C41 C 0.88105 0.19871 0.48663 0.0
C42 C 0.87845 0.15684 0.48067 0.0
C43 C 0.86662 0.12549 0.4982 0.0
C44 C 0.85634 0.13513 0.52097 0.0
C45 C 0.88424 0.14382 0.45578 0.0
C46 C 0.92246 0.17257 0.44349 0.0
C47 C 0.92759 0.15881 0.42003 0.0
C48 C 0.89347 0.11645 0.40898 0.0
C49 C 0.85511 0.08766 0.42096 0.0
C50 C 0.85082 0.10158 0.44432 0.0
C51 C 0.81988 0.04278 0.40908 0.0
C52 C 0.80591 0.03823 0.3845 0.0
C53 C 0.80084 0.00397 0.42205 0.0
C54 C 0.76905 0.96142 0.4106 0.0
C55 C 0.75592 0.95679 0.3859 0.0
C56 C 0.96813 0.18811 0.40676 0.0
C57 C 0.98659 0.23544 0.40807 0.0
C58 C 0.98774 0.16869 0.39195 0.0
C59 C 0.02448 0.19584 0.37862 0.0
C60 C 0.04294 0.24312 0.38005 0.0
C61 C 0.02362 0.2626 0.39496 0.0
C62 C 0.77441 0.99566 0.37302 0.0
H63 H 0.87177 0.24041 0.51345 0.0
H64 H 0.88983 0.22335 0.47339 0.0
H65 H 0.86454 0.09302 0.49414 0.0
H66 H 0.84619 0.10963 0.5338 0.0
H67 H 0.94867 0.20485 0.45246 0.0
H68 H 0.82081 0.07983 0.4535 0.0
H69 H 0.89677 0.10568 0.39092 0.0
H70 H 0.81931 0.06761 0.37411 0.0
H71 H 0.8113 0.00628 0.44094 0.0
H72 H 0.7555 0.93206 0.42101 0.0
H73 H 0.97204 0.25152 0.41896 0.0
H74 H 0.97505 0.13243 0.39083 0.0
H75 H 0.76466 0.99328 0.35401 0.0
H76 H 0.03706 0.29902 0.39651 0.0
H77 H 0.03907 0.17989 0.36765 0.0
C78 C 0.88391 0.70128 0.51755 0.0
C79 C 0.83957 0.66552 0.52069 0.0
C80 C 0.89478 0.72012 0.49533 0.0
C81 C 0.86142 0.70409 0.47579 0.0
C82 C 0.81727 0.66802 0.47887 0.0
C83 C 0.80656 0.64883 0.50097 0.0
C84 C 0.87184 0.72589 0.45256 0.0
C85 C 0.91242 0.7363 0.44165 0.0
C86 C 0.92162 0.75633 0.41954 0.0
C87 C 0.89001 0.76651 0.40872 0.0
C88 C 0.84987 0.75738 0.41947 0.0
C89 C 0.84097 0.73675 0.44132 0.0
C90 C 0.81774 0.76995 0.40785 0.0
C91 C 0.83462 0.81021 0.39606 0.0
C92 C 0.77008 0.74164 0.40799 0.0
C93 C 0.74021 0.75308 0.39644 0.0
C94 C 0.75727 0.7928 0.38423 0.0
C95 C 0.96445 0.7679 0.40769 0.0
C96 C 0.00676 0.78757 0.42131 0.0
C97 C 0.96371 0.76177 0.38243 0.0
C98 C 0.00421 0.77588 0.37107 0.0
C99 C 0.04657 0.79625 0.38467 0.0
C100 C 0.04724 0.80153 0.40996 0.0
C101 C 0.8048 0.82128 0.38426 0.0
H102 H 0.91029 0.71467 0.5323 0.0
H103 H 0.92902 0.74801 0.49362 0.0
H104 H 0.79085 0.65461 0.46414 0.0
H105 H 0.77204 0.62157 0.50276 0.0
H106 H 0.9362 0.72777 0.45007 0.0
H107 H 0.81057 0.73033 0.45003 0.0
H108 H 0.89696 0.78208 0.39182 0.0
H109 H 0.87103 0.83351 0.39605 0.0
H110 H 0.75576 0.71015 0.41663 0.0
H111 H 0.70372 0.73038 0.39675 0.0
H112 H 0.00879 0.79333 0.44073 0.0
H113 H 0.93169 0.74603 0.37135 0.0
H114 H 0.8191 0.85248 0.37534 0.0
H115 H 0.07917 0.81697 0.4211 0.0
H116 H 1.00225 0.77071 0.35162 0.0
C117 C 0.16147 0.28316 0.51627 0.0
C118 C 0.15484 0.31974 0.51172 0.0
C119 C 0.15169 0.26382 0.53833 0.0
C120 C 0.13472 0.28027 0.55647 0.0
C121 C 0.12729 0.31634 0.55182 0.0
C122 C 0.1375 0.33602 0.52977 0.0
C123 C 0.12644 0.26076 0.58036 0.0
C124 C 0.15876 0.2519 0.59167 0.0
C125 C 0.15188 0.23349 0.61411 0.0
C126 C 0.11197 0.22379 0.62524 0.0
C127 C 0.0788 0.23182 0.61436 0.0
C128 C 0.08657 0.25075 0.59191 0.0
C129 C 0.03645 0.22031 0.62678 0.0
C130 C 0.01603 0.18192 0.64019 0.0
C131 C 0.01702 0.24831 0.62617 0.0
C132 C 0.97871 0.23851 0.63882 0.0
C133 C 0.95911 0.20075 0.65264 0.0
C134 C 0.18581 0.22354 0.62594 0.0
C135 C 0.20692 0.2043 0.61237 0.0
C136 C 0.19603 0.2316 0.65107 0.0
C137 C 0.22562 0.21968 0.6624 0.0
C138 C 0.24611 0.19978 0.64888 0.0
C139 C 0.23681 0.19267 0.62369 0.0
C140 C 0.97817 0.17252 0.65311 0.0
H141 H 0.17511 0.26995 0.50291 0.0
H142 H 0.15744 0.23583 0.54119 0.0
H143 H 0.11453 0.33002 0.56543 0.0
H144 H 0.13157 0.36385 0.52681 0.0
H145 H 0.18995 0.2604 0.58322 0.0
H146 H 0.06107 0.25649 0.58307 0.0
H147 H 0.10667 0.20969 0.64254 0.0
H148 H 0.02909 0.15876 0.64066 0.0
H149 H 0.03191 0.27839 0.61633 0.0
H150 H 0.96478 0.26093 0.63796 0.0
H151 H 0.19949 0.19713 0.59303 0.0
H152 H 0.18113 0.24718 0.66206 0.0
H153 H 0.96344 0.1427 0.66317 0.0
H154 H 0.252 0.17741 0.61269 0.0
H155 H 0.2324 0.22611 0.68179 0.0
C156 C 0.64121 0.78312 0.52739 0.0
C157 C 0.66077 0.81607 0.51077 0.0
C158 C 0.65916 0.79297 0.55144 0.0
C159 C 0.69648 0.83613 0.55927 0.0
C160 C 0.71603 0.86889 0.5426 0.0
C161 C 0.69844 0.85895 0.51862 0.0
C162 C 0.71493 0.84778 0.58479 0.0
C163 C 0.72561 0.81898 0.59707 0.0
C164 C 0.74628 0.83195 0.62077 0.0
C165 C 0.75533 0.8737 0.63216 0.0
C166 C 0.74504 0.90282 0.62005 0.0
C167 C 0.72437 0.88938 0.59649 0.0
C168 C 0.75871 0.94852 0.63144 0.0
C169 C 0.75336 0.95476 0.65596 0.0
C170 C 0.77918 0.9866 0.618 0.0
C171 C 0.79435 0.03005 0.62887 0.0
C172 C 0.78965 0.03639 0.65346 0.0
C173 C 0.76046 0.80316 0.63331 0.0
C174 C 0.73256 0.75558 0.63105 0.0
C175 C 0.80231 0.82313 0.64751 0.0
C176 C 0.81599 0.79612 0.65911 0.0
C177 C 0.7884 0.74857 0.65649 0.0
C178 C 0.74647 0.72857 0.64243 0.0
C179 C 0.7688 -0.00166 0.66689 0.0
H180 H 0.6123 0.7497 0.52174 0.0
H181 H 0.64343 0.76721 0.56399 0.0
H182 H 0.74511 0.90228 0.5481 0.0
H183 H 0.71394 0.88515 0.50627 0.0
H184 H 0.71974 0.78755 0.58777 0.0
H185 H 0.71576 0.91149 0.58713 0.0
H186 H 0.77152 0.88411 0.65034 0.0
H187 H 0.73725 0.92596 0.66669 0.0
H188 H 0.78452 0.98299 0.59919 0.0
H189 H 0.81039 0.05872 0.61804 0.0
H190 H 0.69987 0.73918 0.62056 0.0
H191 H 0.82508 0.85966 0.64927 0.0
H192 H 0.76439 0.00215 0.68584 0.0
H193 H 0.7243 0.69195 0.64017 0.0
H194 H 0.84869 0.81246 0.6696 0.0
C195 C 0.11455 0.79785 0.51817 0.0
C196 C 0.15899 0.80728 0.5139 0.0
C197 C 0.10385 0.80488 0.54143 0.0
C198 C 0.13752 0.82189 0.56081 0.0
C199 C 0.18133 0.82947 0.5567 0.0
C200 C 0.19191 0.82214 0.53355 0.0
C201 C 0.12874 0.83615 0.5847 0.0
C202 C 0.08898 0.808 0.5961 0.0
C203 C 0.08123 0.8228 0.61861 0.0
C204 C 0.11339 0.86623 0.62932 0.0
C205 C 0.1525 0.89514 0.61786 0.0
C206 C 0.16008 0.87964 0.5957 0.0
C207 C 0.18436 0.94222 0.62856 0.0
C208 C 0.16725 0.96807 0.63961 0.0
C209 C 0.2319 0.96186 0.62763 0.0
C210 C 0.26163 0.00623 0.63772 0.0
C211 C 0.24441 0.0316 0.64914 0.0
C212 C 0.03862 0.79457 0.63057 0.0
C213 C 0.99613 0.7724 0.61712 0.0
C214 C 0.03975 0.79222 0.65573 0.0
C215 C 0.99924 0.76873 0.66719 0.0
C216 C 0.95672 0.74707 0.65372 0.0
C217 C 0.95575 0.74903 0.62853 0.0
C218 C 0.19694 0.01213 0.64991 0.0
H219 H 0.08825 0.78582 0.50345 0.0
H220 H 0.06988 0.79897 0.54404 0.0
H221 H 0.20787 0.84232 0.57135 0.0
H222 H 0.2265 0.83001 0.53091 0.0
H223 H 0.0645 0.77451 0.58762 0.0
H224 H 0.18959 0.90222 0.58643 0.0
H225 H 0.10738 0.87804 0.64646 0.0
H226 H 0.13081 0.95444 0.64012 0.0
H227 H 0.24619 0.94272 0.61944 0.0
H228 H 0.2981 0.02029 0.63697 0.0
H229 H 0.99394 0.77411 0.5978 0.0
H230 H 0.07205 0.80865 0.6666 0.0
H231 H 0.18259 0.03101 0.65836 0.0
H232 H 0.9237 0.7327 0.61749 0.0
H233 H 1.00129 0.76749 0.68654 0.0
C234 C 0.99165 0.53048 0.84736 0.0
C235 C 0.02481 0.51934 0.85456 0.0
C236 C 0.97544 0.52374 0.8232 0.0
C237 C 0.99197 0.50561 0.80573 0.0
C238 C 0.02635 0.49606 0.81279 0.0
C239 C 0.04269 0.50295 0.83696 0.0
C240 C 0.97083 0.49334 0.78063 0.0
C241 C 0.95971 0.52233 0.76884 0.0
C242 C 0.93615 0.50878 0.74584 0.0
C243 C 0.92451 0.46622 0.73454 0.0
C244 C 0.93471 0.43657 0.74621 0.0
C245 C 0.95826 0.45057 0.76915 0.0
C246 C 0.91781 0.38979 0.73522 0.0
C247 C 0.8738 0.36469 0.72328 0.0
C248 C 0.94486 0.3694 0.73713 0.0
C249 C 0.92815 0.3248 0.7274 0.0
C250 C 0.88424 0.29992 0.71539 0.0
C251 C 0.91969 0.53681 0.73447 0.0
C252 C 0.89926 0.55632 0.7483 0.0
C253 C 0.92112 0.54148 0.70955 0.0
C254 C 0.90197 0.56476 0.69866 0.0
C255 C 0.88106 0.58377 0.71251 0.0
C256 C 0.88021 0.57953 0.73746 0.0
C257 C 0.85731 0.32034 0.71334 0.0
H258 H 0.97769 0.54376 0.86049 0.0
H259 H 0.94866 0.53107 0.81835 0.0
H260 H 0.03999 0.48239 0.79967 0.0
H261 H 0.06811 0.49387 0.84197 0.0
H262 H 0.96901 0.55528 0.77766 0.0
H263 H 0.9646 0.42714 0.77868 0.0
H264 H 0.90586 0.45539 0.71694 0.0
H265 H 0.85164 0.37898 0.72198 0.0
H266 H 0.97906 0.388 0.746 0.0
H267 H 0.94982 0.31003 0.72911 0.0
H268 H 0.89684 0.5526 0.76744 0.0
H269 H 0.93693 0.527 0.69846 0.0
H270 H 0.82319 0.30187 0.70436 0.0
H271 H 0.86448 0.59385 0.74873 0.0
H272 H 0.90356 0.56783 0.67944 0.0
C273 C 0.53693 0.54156 0.84276 0.0
C274 C 0.52403 0.50963 0.8601 0.0
C275 C 0.54771 0.53204 0.81996 0.0
C276 C 0.54511 0.49017 0.81401 0.0
C277 C 0.53328 0.45882 0.83154 0.0
C278 C 0.523 0.46846 0.8543 0.0
C279 C 0.5509 0.47715 0.78911 0.0
C280 C 0.58913 0.5059 0.77682 0.0
C281 C 0.59426 0.49214 0.75336 0.0
C282 C 0.56013 0.44978 0.74232 0.0
C283 C 0.52178 0.42099 0.75429 0.0
C284 C 0.51749 0.43491 0.77765 0.0
C285 C 0.48654 0.37611 0.74241 0.0
C286 C 0.47257 0.37156 0.71783 0.0
C287 C 0.46751 0.3373 0.75538 0.0
C288 C 0.43572 0.29475 0.74393 0.0
C289 C 0.42259 0.29012 0.71924 0.0
C290 C 0.6348 0.52144 0.74009 0.0
C291 C 0.65326 0.56877 0.74141 0.0
C292 C 0.6544 0.50202 0.72528 0.0
C293 C 0.69115 0.52917 0.71195 0.0
C294 C 0.7096 0.57645 0.71338 0.0
C295 C 0.69028 0.59594 0.72829 0.0
C296 C 0.44108 0.32899 0.70635 0.0
H297 H 0.53843 0.57374 0.84678 0.0
H298 H 0.55649 0.55668 0.80672 0.0
H299 H 0.5312 0.42635 0.82747 0.0
H300 H 0.51285 0.44296 0.86713 0.0
H301 H 0.61534 0.53818 0.78579 0.0
H302 H 0.48747 0.41316 0.78683 0.0
H303 H 0.56343 0.43901 0.72425 0.0
H304 H 0.48598 0.40094 0.70744 0.0
H305 H 0.47797 0.3396 0.77427 0.0
H306 H 0.42217 0.26539 0.75434 0.0
H307 H 0.63871 0.58485 0.75229 0.0
H308 H 0.64171 0.46576 0.72417 0.0
H309 H 0.43132 0.32661 0.68734 0.0
H310 H 0.70372 0.63235 0.72984 0.0
H311 H 0.70573 0.51322 0.70098 0.0
C312 C 0.55058 0.03461 0.85088 0.0
C313 C 0.50624 -0.00115 0.85403 0.0
C314 C 0.56145 0.05345 0.82866 0.0
C315 C 0.52809 0.03742 0.80913 0.0
C316 C 0.48394 0.00135 0.8122 0.0
C317 C 0.47323 0.98216 0.8343 0.0
C318 C 0.53851 0.05922 0.78589 0.0
C319 C 0.57909 0.06963 0.77499 0.0
C320 C 0.58829 0.08966 0.75287 0.0
C321 C 0.55668 0.09984 0.74205 0.0
C322 C 0.51654 0.09071 0.75281 0.0
C323 C 0.50764 0.07008 0.77465 0.0
C324 C 0.4844 0.10328 0.74118 0.0
C325 C 0.50129 0.14354 0.72939 0.0
C326 C 0.43675 0.07497 0.74132 0.0
C327 C 0.40688 0.0864 0.72977 0.0
C328 C 0.42394 0.12612 0.71756 0.0
C329 C 0.63112 0.10123 0.74102 0.0
C330 C 0.67343 0.1209 0.75464 0.0
C331 C 0.63038 0.0951 0.71576 0.0
C332 C 0.67089 0.10922 0.7044 0.0
C333 C 0.71324 0.12958 0.718 0.0
C334 C 0.71392 0.13486 0.7433 0.0
C335 C 0.47147 0.15461 0.71759 0.0
H336 H 0.57696 0.04801 0.86563 0.0
H337 H 0.59569 0.08134 0.82696 0.0
H338 H 0.45752 0.98794 0.79747 0.0
H339 H 0.43871 0.9549 0.8361 0.0
H340 H 0.60287 0.0611 0.78341 0.0
H341 H 0.47724 0.06366 0.78336 0.0
H342 H 0.56363 0.11541 0.72515 0.0
H343 H 0.5377 0.16684 0.72938 0.0
H344 H 0.42243 0.04348 0.74996 0.0
H345 H 0.37039 0.0637 0.73008 0.0
H346 H 0.67546 0.12666 0.77406 0.0
H347 H 0.59836 0.07936 0.70468 0.0
H348 H 0.48577 0.18581 0.70867 0.0
H349 H 0.74584 0.1503 0.75443 0.0
H350 H 0.66892 0.10404 0.68496 0.0
C351 C 0.82813 0.61649 0.8496 0.0
C352 C 0.8215 0.65308 0.84505 0.0
C353 C 0.81836 0.59715 0.87166 0.0
C354 C 0.80138 0.6136 0.8898 0.0
C355 C 0.79395 0.64967 0.88515 0.0
C356 C 0.80416 0.66935 0.86311 0.0
C357 C 0.7931 0.59409 0.9137 0.0
C358 C 0.82542 0.58523 0.925 0.0
C359 C 0.81855 0.56682 0.94744 0.0
C360 C 0.77863 0.55712 0.95857 0.0
C361 C 0.74546 0.56515 0.94769 0.0
C362 C 0.75323 0.58408 0.92525 0.0
C363 C 0.70311 0.55364 0.96011 0.0
C364 C 0.68269 0.51525 0.97353 0.0
C365 C 0.68368 0.58164 0.9595 0.0
C366 C 0.64538 0.57184 0.97215 0.0
C367 C 0.62577 0.53408 0.98597 0.0
C368 C 0.85247 0.55687 0.95927 0.0
C369 C 0.87358 0.53763 0.9457 0.0
C370 C 0.86269 0.56493 0.9844 0.0
C371 C 0.89228 0.55301 0.99574 0.0
C372 C 0.91277 0.53311 0.98221 0.0
C373 C 0.90347 0.526 0.95702 0.0
C374 C 0.64483 0.50585 0.98644 0.0
H375 H 0.84177 0.60328 0.83624 0.0
H376 H 0.82411 0.56916 0.87452 0.0
H377 H 0.78119 0.66335 0.89877 0.0
H378 H 0.79823 0.69719 0.86014 0.0
H379 H 0.85661 0.59373 0.91655 0.0
H380 H 0.72774 0.58982 0.9164 0.0
H381 H 0.77333 0.54302 0.97587 0.0
H382 H 0.69576 0.49209 0.97399 0.0
H383 H 0.69858 0.61172 0.94966 0.0
H384 H 0.63144 0.59426 0.9713 0.0
H385 H 0.86615 0.53046 0.92636 0.0
H386 H 0.84779 0.58051 0.99539 0.0
H387 H 0.6301 0.47603 0.9965 0.0
H388 H 0.91866 0.51074 0.94602 0.0
H389 H 0.89906 0.55945 1.01513 0.0
C390 C 0.30787 0.11645 0.86072 0.0
C391 C 0.32744 0.1494 0.8441 0.0
C392 C 0.32583 0.12631 0.88477 0.0
C393 C 0.36314 0.16946 0.8926 0.0
C394 C 0.38269 0.20222 0.87593 0.0
C395 C 0.36511 0.19228 0.85195 0.0
C396 C 0.38159 0.18111 0.91812 0.0
C397 C 0.39227 0.15232 0.9304 0.0
C398 C 0.41294 0.16529 0.95411 0.0
C399 C 0.422 0.20703 0.96549 0.0
C400 C 0.4117 0.23615 0.95338 0.0
C401 C 0.39104 0.22271 0.92982 0.0
C402 C 0.42538 0.28185 0.96477 0.0
C403 C 0.42003 0.28809 0.98929 0.0
C404 C 0.44584 0.31993 0.95134 0.0
C405 C 0.46101 0.36339 0.96221 0.0
C406 C 0.45631 0.36973 0.98679 0.0
C407 C 0.42712 0.13649 0.96664 0.0
C408 C 0.39923 0.08891 0.96438 0.0
C409 C 0.46898 0.15646 0.98084 0.0
C410 C 0.48265 0.12945 0.99244 0.0
C411 C 0.45506 0.0819 0.98982 0.0
C412 C 0.41314 0.0619 0.97577 0.0
C413 C 0.43546 0.33167 1.00022 0.0
H414 H 0.27897 0.08303 0.85507 0.0
H415 H 0.3101 0.10054 0.89733 0.0
H416 H 0.41178 0.23561 0.88143 0.0
H417 H 0.3806 0.21848 0.83961 0.0
H418 H 0.38641 0.12088 0.9211 0.0
H419 H 0.38242 0.24482 0.92046 0.0
H420 H 0.43819 0.21744 0.98367 0.0
H421 H 0.40391 0.25929 1.00002 0.0
H422 H 0.45118 0.31632 0.93252 0.0
H423 H 0.47706 0.39205 0.95137 0.0
H424 H 0.36654 0.07251 0.95389 0.0
H425 H 0.49175 0.19299 0.9826 0.0
H426 H 0.43106 0.33549 0.01917 0.0
H427 H 0.39096 0.02528 0.9735 0.0
H428 H 0.51536 0.14579 1.00293 0.0
C429 C 0.78121 0.13118 0.85151 0.0
C430 C 0.82566 0.14061 0.84724 0.0
C431 C 0.77052 0.13821 0.87476 0.0
C432 C 0.80418 0.15522 0.89414 0.0
C433 C 0.848 0.1628 0.89004 0.0
C434 C 0.85858 0.15547 0.86689 0.0
C435 C 0.79541 0.16948 0.91803 0.0
C436 C 0.75565 0.14133 0.92943 0.0
C437 C 0.7479 0.15613 0.95194 0.0
C438 C 0.78006 0.19956 0.96266 0.0
C439 C 0.81916 0.22848 0.95119 0.0
C440 C 0.82674 0.21298 0.92903 0.0
C441 C 0.85102 0.27555 0.96189 0.0
C442 C 0.83392 0.3014 0.97294 0.0
C443 C 0.89856 0.29519 0.96097 0.0
C444 C 0.9283 0.33956 0.97105 0.0
C445 C 0.91107 0.36493 0.98247 0.0
C446 C 0.70528 0.1279 0.9639 0.0
C447 C 0.66279 0.10573 0.95045 0.0
C448 C 0.70642 0.12555 0.98907 0.0
C449 C 0.66591 0.10206 1.00052 0.0
C450 C 0.62338 0.08041 0.98706 0.0
C451 C 0.62241 0.08236 0.96187 0.0
C452 C 0.86361 0.34546 0.98324 0.0
H453 H 0.75492 0.11916 0.83678 0.0
H454 H 0.73655 0.1323 0.87737 0.0
H455 H 0.87454 0.17565 0.90469 0.0
H456 H 0.89317 0.16335 0.86424 0.0
H457 H 0.73116 0.10784 0.92096 0.0
H458 H 0.85626 0.23556 0.91977 0.0
H459 H 0.77405 0.21137 0.9798 0.0
H460 H 0.79747 0.28777 0.97346 0.0
H461 H 0.91286 0.27605 0.95278 0.0
H462 H 0.96477 0.35362 0.9703 0.0
H463 H 0.66061 0.10744 0.93114 0.0
H464 H 0.73871 0.14198 0.99993 0.0
H465 H 0.84926 0.36434 0.99169 0.0
H466 H 0.59036 0.06603 0.95082 0.0
H467 H 0.66796 0.10082 0.01988 0.0
C468 C 0.65831 0.86381 0.1807 0.0
C469 C 0.69147 0.85267 0.1879 0.0
C470 C 0.64209 0.85707 0.15653 0.0
C471 C 0.65863 0.83894 0.13906 0.0
C472 C 0.69301 0.82939 0.14612 0.0
C473 C 0.70935 0.83628 0.17029 0.0
C474 C 0.63749 0.82666 0.11397 0.0
C475 C 0.62637 0.85566 0.10218 0.0
C476 C 0.60281 0.84211 0.07918 0.0
C477 C 0.59117 0.79954 0.06787 0.0
C478 C 0.60137 0.7699 0.07955 0.0
C479 C 0.62492 0.7839 0.10249 0.0
C480 C 0.58447 0.72311 0.06855 0.0
C481 C 0.54046 0.69802 0.05662 0.0
C482 C 0.61152 0.70273 0.07046 0.0
C483 C 0.59481 0.65813 0.06074 0.0
C484 C 0.5509 0.63325 0.04872 0.0
C485 C 0.58635 0.87014 0.0678 0.0
C486 C 0.56592 0.88965 0.08163 0.0
C487 C 0.58778 0.87481 0.04288 0.0
C488 C 0.56863 0.89809 0.03199 0.0
C489 C 0.54772 0.9171 0.04584 0.0
C490 C 0.54687 0.91286 0.0708 0.0
C491 C 0.52397 0.65367 0.04668 0.0
H492 H 0.64435 0.87709 0.19383 0.0
H493 H 0.61532 0.8644 0.15169 0.0
H494 H 0.70664 0.81572 0.133 0.0
H495 H 0.73477 0.8272 0.1753 0.0
H496 H 0.63566 0.8886 0.111 0.0
H497 H 0.63126 0.76046 0.11201 0.0
H498 H 0.57252 0.78872 0.05028 0.0
H499 H 0.5183 0.71231 0.05531 0.0
H500 H 0.64572 0.72133 0.07933 0.0
H501 H 0.61648 0.64336 0.06245 0.0
H502 H 0.5635 0.88593 0.10077 0.0
H503 H 0.60359 0.86033 0.0318 0.0
H504 H 0.48985 0.6352 0.03769 0.0
H505 H 0.53114 0.92718 0.08206 0.0
H506 H 0.57022 0.90116 1.01278 0.0
C507 C 0.20359 0.87489 0.17609 0.0
C508 C 0.19069 0.84296 0.19343 0.0
C509 C 0.21438 0.86537 0.15329 0.0
C510 C 0.21177 0.8235 0.14734 0.0
C511 C 0.19994 0.79215 0.16487 0.0
C512 C 0.18967 0.8018 0.18763 0.0
C513 C 0.21757 0.81048 0.12245 0.0
C514 C 0.25579 0.83923 0.11015 0.0
C515 C 0.26092 0.82547 0.0867 0.0
C516 C 0.22679 0.78312 0.07565 0.0
C517 C 0.18844 0.75433 0.08762 0.0
C518 C 0.18415 0.76825 0.11099 0.0
C519 C 0.15321 0.70944 0.07574 0.0
C520 C 0.13924 0.70489 0.05117 0.0
C521 C 0.13417 0.67064 0.08872 0.0
C522 C 0.10239 0.62808 0.07726 0.0
C523 C 0.08925 0.62346 0.05257 0.0
C524 C 0.30146 0.85477 0.07343 0.0
C525 C 0.31992 0.9021 0.07474 0.0
C526 C 0.32107 0.83535 0.05861 0.0
C527 C 0.35781 0.8625 0.04528 0.0
C528 C 0.37626 0.90978 0.04671 0.0
C529 C 0.35694 0.92927 0.06162 0.0
C530 C 0.10774 0.66233 0.03968 0.0
H531 H 0.20509 0.90708 0.18011 0.0
H532 H 0.22315 0.89001 0.14005 0.0
H533 H 0.19787 0.75969 0.16081 0.0
H534 H 0.17951 0.7763 0.20046 0.0
H535 H 0.282 0.87152 0.11912 0.0
H536 H 0.15414 0.74649 0.12017 0.0
H537 H 0.23009 0.77235 0.05758 0.0
H538 H 0.15264 0.73427 0.04078 0.0
H539 H 0.14463 0.67294 0.10761 0.0
H540 H 0.08884 0.59872 0.08768 0.0
H541 H 0.30537 0.91819 0.08563 0.0
H542 H 0.30837 0.7991 0.0575 0.0
H543 H 0.09799 0.65994 0.02068 0.0
H544 H 0.37038 0.96568 0.06317 0.0
H545 H 0.37239 0.84655 0.03432 0.0
C546 C 0.21725 0.36794 0.18422 0.0
C547 C 0.17291 0.33219 0.18736 0.0
C548 C 0.22812 0.38678 0.162 0.0
C549 C 0.19475 0.37076 0.14246 0.0
C550 C 0.1506 0.33468 0.14554 0.0
C551 C 0.1399 0.31549 0.16763 0.0
C552 C 0.20518 0.39256 0.11923 0.0
C553 C 0.24575 0.40296 0.10832 0.0
C554 C 0.25495 0.423 0.0862 0.0
C555 C 0.22334 0.43317 0.07538 0.0
C556 C 0.1832 0.42404 0.08614 0.0
C557 C 0.17431 0.40341 0.10798 0.0
C558 C 0.15107 0.43661 0.07451 0.0
C559 C 0.16795 0.47687 0.06273 0.0
C560 C 0.10342 0.4083 0.07466 0.0
C561 C 0.07354 0.41974 0.0631 0.0
C562 C 0.0906 0.45946 0.0509 0.0
C563 C 0.29779 0.43457 0.07436 0.0
C564 C 0.34009 0.45424 0.08798 0.0
C565 C 0.29704 0.42843 0.0491 0.0
C566 C 0.33755 0.44255 0.03774 0.0
C567 C 0.37991 0.46291 0.05134 0.0
C568 C 0.38058 0.4682 0.07663 0.0
C569 C 0.13813 0.48794 0.05092 0.0
H570 H 0.24363 0.38134 0.19896 0.0
H571 H 0.26235 0.41467 0.16029 0.0
H572 H 0.12419 0.32128 0.13081 0.0
H573 H 0.10538 0.28824 0.16943 0.0
H574 H 0.26954 0.39443 0.11674 0.0
H575 H 0.14391 0.39699 0.11669 0.0
H576 H 0.23029 0.44875 0.05848 0.0
H577 H 0.20436 0.50017 0.06272 0.0
H578 H 0.0891 0.37681 0.0833 0.0
H579 H 0.03706 0.39704 0.06341 0.0
H580 H 0.34213 0.46 0.10739 0.0
H581 H 0.26502 0.41269 0.03801 0.0
H582 H 0.15243 0.51915 0.04201 0.0
H583 H 0.4125 0.48363 0.08777 0.0
H584 H 0.33558 0.43738 0.01829 0.0
C585 C 0.4948 0.94983 0.18294 0.0
C586 C 0.48817 0.98641 0.17839 0.0
C587 C 0.48502 0.93049 0.205 0.0
C588 C 0.46805 0.94694 0.22313 0.0
C589 C 0.46062 0.983 0.21848 0.0
C590 C 0.47083 0.00269 0.19644 0.0
C591 C 0.45977 0.92743 0.24703 0.0
C592 C 0.49209 0.91857 0.25834 0.0
C593 C 0.48521 0.90016 0.28078 0.0
C594 C 0.4453 0.89046 0.2919 0.0
C595 C 0.41212 0.89848 0.28103 0.0
C596 C 0.4199 0.91742 0.25858 0.0
C597 C 0.36978 0.88698 0.29344 0.0
C598 C 0.34935 0.84859 0.30686 0.0
C599 C 0.35035 0.91498 0.29284 0.0
C600 C 0.31204 0.90517 0.30548 0.0
C601 C 0.29244 0.86741 0.3193 0.0
C602 C 0.51914 0.89021 0.2926 0.0
C603 C 0.54025 0.87097 0.27904 0.0
C604 C 0.52935 0.89827 0.31774 0.0
C605 C 0.55895 0.88635 0.32907 0.0
C606 C 0.57944 0.86645 0.31555 0.0
C607 C 0.57014 0.85934 0.29036 0.0
C608 C 0.3115 0.83919 0.31978 0.0
H609 H 0.50844 0.93662 0.16958 0.0
H610 H 0.49077 0.9025 0.20786 0.0
H611 H 0.44786 -0.00331 0.2321 0.0
H612 H 0.4649 0.03052 0.19347 0.0
H613 H 0.52328 0.92706 0.24988 0.0
H614 H 0.3944 0.92315 0.24973 0.0
H615 H 0.43999 0.87636 0.3092 0.0
H616 H 0.36242 0.82543 0.30732 0.0
H617 H 0.36524 0.94506 0.28299 0.0
H618 H 0.29811 0.92759 0.30463 0.0
H619 H 0.53282 0.8638 0.2597 0.0
H620 H 0.51445 0.91385 0.32873 0.0
H621 H 0.29677 0.80937 0.32984 0.0
H622 H 0.58533 0.84408 0.27936 0.0
H623 H 0.56573 0.89278 0.34846 0.0
C624 C 0.97454 0.44978 0.19405 0.0
C625 C 0.99411 0.48273 0.17744 0.0
C626 C 0.99249 0.45964 0.21811 0.0
C627 C 0.02981 0.5028 0.22593 0.0
C628 C 0.04936 0.53555 0.20926 0.0
C629 C 0.03177 0.52561 0.18529 0.0
C630 C 0.04826 0.51444 0.25146 0.0
C631 C 0.05894 0.48565 0.26374 0.0
C632 C 0.07961 0.49862 0.28744 0.0
C633 C 0.08867 0.54036 0.29883 0.0
C634 C 0.07837 0.56948 0.28671 0.0
C635 C 0.05771 0.55604 0.26315 0.0
C636 C 0.09204 0.61518 0.29811 0.0
C637 C 0.08669 0.62143 0.32262 0.0
C638 C 0.11251 0.65326 0.28467 0.0
C639 C 0.12767 0.69672 0.29554 0.0
C640 C 0.12298 0.70306 0.32012 0.0
C641 C 0.09379 0.46982 0.29998 0.0
C642 C 0.0659 0.42225 0.29772 0.0
C643 C 0.13565 0.48979 0.31417 0.0
C644 C 0.14932 0.46278 0.32577 0.0
C645 C 0.12173 0.41523 0.32316 0.0
C646 C 0.0798 0.39524 0.3091 0.0
C647 C 0.10213 0.665 0.33355 0.0
H648 H 0.94564 0.41637 0.18841 0.0
H649 H 0.97676 0.43388 0.23066 0.0
H650 H 0.07845 0.56895 0.21477 0.0
H651 H 0.04727 0.55181 0.17294 0.0
H652 H 0.05308 0.45422 0.25443 0.0
H653 H 0.04909 0.57815 0.2538 0.0
H654 H 0.10485 0.55078 0.317 0.0
H655 H 0.07058 0.59263 0.33335 0.0
H656 H 0.11785 0.64966 0.26585 0.0
H657 H 0.14372 0.72538 0.2847 0.0
H658 H 0.0332 0.40584 0.28722 0.0
H659 H 0.15841 0.52632 0.31593 0.0
H660 H 0.09772 0.66882 0.3525 0.0
H661 H 0.05763 0.35861 0.30683 0.0
H662 H 0.18202 0.47912 0.33626 0.0
C663 C 0.44788 0.46452 0.18484 0.0
C664 C 0.49232 0.47395 0.18057 0.0
C665 C 0.43719 0.47155 0.20809 0.0
C666 C 0.47085 0.48857 0.22748 0.0
C667 C 0.51466 0.49615 0.22337 0.0
C668 C 0.52525 0.48882 0.20022 0.0
C669 C 0.46208 0.50283 0.25137 0.0
C670 C 0.42231 0.47467 0.26277 0.0
C671 C 0.41456 0.48947 0.28528 0.0
C672 C 0.44672 0.5329 0.29599 0.0
C673 C 0.48583 0.56182 0.28452 0.0
C674 C 0.49341 0.54632 0.26237 0.0
C675 C 0.51769 0.60889 0.29523 0.0
C676 C 0.50059 0.63474 0.30627 0.0
C677 C 0.56523 0.62853 0.2943 0.0
C678 C 0.59497 0.6729 0.30439 0.0
C679 C 0.57774 0.69827 0.3158 0.0
C680 C 0.37195 0.46124 0.29724 0.0
C681 C 0.32946 0.43907 0.28379 0.0
C682 C 0.37309 0.45889 0.3224 0.0
C683 C 0.33258 0.4354 0.33386 0.0
C684 C 0.29005 0.41374 0.32039 0.0
C685 C 0.28908 0.4157 0.2952 0.0
C686 C 0.53027 0.6788 0.31657 0.0
H687 H 0.42159 0.4525 0.17011 0.0
H688 H 0.40322 0.46564 0.21071 0.0
H689 H 0.54121 0.50899 0.23802 0.0
H690 H 0.55984 0.49669 0.19757 0.0
H691 H 0.39783 0.44118 0.25429 0.0
H692 H 0.52293 0.5689 0.2531 0.0
H693 H 0.44072 0.54471 0.31313 0.0
H694 H 0.46414 0.62111 0.30679 0.0
H695 H 0.57953 0.60939 0.28611 0.0
H696 H 0.63144 0.68696 0.30364 0.0
H697 H 0.32728 0.44078 0.26447 0.0
H698 H 0.40538 0.47532 0.33327 0.0
H699 H 0.51593 0.69768 0.32503 0.0
H700 H 0.25703 0.39937 0.28415 0.0
H701 H 0.33463 0.43416 0.35321 0.0
Eu702 Eu 0.4817 0.96523 0.99082 0.0
Eu703 Eu 0.51707 0.02873 0.04332 0.0
C704 C 0.47065 0.05296 1.00061 0.0
C705 C 0.47107 0.94365 0.9232 0.0
C706 C 0.4969 0.99088 0.92165 0.0
C707 C 0.46765 0.93234 0.87949 0.0
C708 C 0.50858 0.00869 0.89929 0.0
C709 C 0.45644 0.91452 0.90194 0.0
C710 C 0.49416 0.97968 0.87788 0.0
C711 C 0.46098 0.92508 0.94699 0.0
O712 O 0.44079 0.98275 0.04186 0.0
O713 O 0.43108 0.92226 0.01691 0.0
C714 C 0.4174 0.93938 0.03425 0.0
O715 O 0.52757 0.94619 1.01149 0.0
O716 O 0.50583 0.06536 0.07322 0.0
O717 O 0.56434 0.05604 0.07567 0.0
O718 O 0.51161 0.96183 0.04888 0.0
C719 C 0.52796 0.94248 0.0348 0.0
O720 O 0.54202 0.03258 0.9847 0.0
O721 O 0.57986 0.05221 0.02219 0.0
O722 O 0.50468 0.0706 0.01748 0.0
O723 O 0.49643 0.93219 0.9607 0.0
O724 O 0.43303 0.9328 0.95904 0.0
O725 O 0.45044 0.00991 0.99241 0.0
C726 C 0.52478 0.04709 0.11062 0.0
C727 C 0.50083 -0.00042 0.11126 0.0
C728 C 0.52296 0.05514 0.15418 0.0
C729 C 0.48863 0.98002 0.13316 0.0
C730 C 0.53548 0.07473 0.13221 0.0
C731 C 0.49974 0.00749 0.15496 0.0
C732 C 0.53846 0.06729 0.08741 0.0
C733 C 0.58003 0.05426 0.99866 0.0
H734 H 0.50816 0.01401 0.9378 0.0
H735 H 0.45621 0.90902 0.86339 0.0
H736 H 0.52841 0.04528 0.89873 0.0
H737 H 0.43663 0.87798 0.90272 0.0
H738 H 0.49172 0.97754 0.09479 0.0
H739 H 0.53238 0.07733 0.17062 0.0
H740 H 0.47022 0.94326 0.13299 0.0
H741 H 0.55381 0.11145 0.13212 0.0
Eu742 Eu 0.03179 0.50924 0.99347 0.0
Eu743 Eu 0.96947 0.48064 0.03993 0.0
C744 C 0.94222 0.41104 0.99408 0.0
C745 C 0.06492 0.52781 0.92964 0.0
C746 C 0.0188 0.50979 0.92179 0.0
C747 C 0.08516 0.54035 0.88841 0.0
C748 C 0.00593 0.50729 0.89742 0.0
C749 C 0.09805 0.54301 0.91287 0.0
C750 C 0.03896 0.52268 0.88046 0.0
C751 C 0.07834 0.53209 0.95538 0.0
O752 O 0.01614 0.45136 0.04325 0.0
O753 O 0.07506 0.50244 0.02281 0.0
C754 C 0.05919 0.47146 0.03836 0.0
O755 O 0.05157 0.57354 0.0166 0.0
O756 O 0.92825 0.42953 0.06401 0.0
O757 O 0.93935 0.49784 0.06952 0.0
O758 O 0.03586 0.54329 0.05286 0.0
C759 C 0.05724 0.57825 0.04018 0.0
O760 O 0.96632 0.50621 0.98103 0.0
O761 O 0.9468 0.52076 0.01793 0.0
O762 O 0.92635 0.42893 1.00952 0.0
O763 O 0.07044 0.55967 0.96863 0.0
O764 O 0.066 0.49407 0.96513 0.0
O765 O 0.98526 0.43295 0.9892 0.0
C766 C 0.94158 0.46198 0.10369 0.0
C767 C 0.98854 0.48064 0.10954 0.0
C768 C 0.92821 0.45308 0.14597 0.0
C769 C 0.00536 0.48622 0.13346 0.0
C770 C 0.91137 0.44771 0.12193 0.0
C771 C 0.97547 0.4731 0.15196 0.0
C772 C 0.92498 0.45883 0.07859 0.0
C773 C 0.94347 0.51964 0.99427 0.0
H774 H 0.99279 0.49783 0.93454 0.0
H775 H 0.11136 0.55269 0.87576 0.0
H776 H 0.97001 0.49279 0.89182 0.0
H777 H 0.13383 0.55722 0.91872 0.0
H778 H 0.01229 0.49154 0.0956 0.0
H779 H 0.9045 0.44297 0.15991 0.0
H780 H 0.04184 0.50118 0.13753 0.0
H781 H 0.875 0.43318 0.11764 0.0
Eu782 Eu 0.52268 0.48835 0.04332 0.0
Eu783 Eu 0.48475 0.51284 0.99414 0.0
C784 C 0.53331 0.58631 0.0383 0.0
C785 C 0.5335 0.4703 0.10876 0.0
C786 C 0.50496 0.48801 0.11376 0.0
C787 C 0.53381 0.45323 0.15049 0.0
C788 C 0.49087 0.4883 0.13693 0.0
C789 C 0.54767 0.45272 0.12721 0.0
C790 C 0.50526 0.47109 0.15562 0.0
C791 C 0.54716 0.46901 0.08415 0.0
O792 O 0.56087 0.54267 0.99291 0.0
O793 O 0.57154 0.49401 1.01544 0.0
C794 C 0.58455 0.52331 0.9989 0.0
O795 O 0.47383 0.42245 0.02162 0.0
O796 O 0.49284 0.56173 0.96826 0.0
O797 O 0.43804 0.49173 0.96174 0.0
O798 O 0.48818 0.45004 0.98479 0.0
C799 C 0.47328 0.4159 0.99823 0.0
O800 O 0.46104 0.49218 0.05321 0.0
O801 O 0.42291 0.47581 0.01577 0.0
O802 O 0.49744 0.5675 0.02268 0.0
O803 O 0.51501 0.4388 0.06867 0.0
O804 O 0.57041 0.50821 0.07527 0.0
O805 O 0.55442 0.56452 0.04449 0.0
C806 C 0.47907 0.52724 0.92891 0.0
C807 C 0.50983 0.5112 0.92718 0.0
C808 C 0.48042 0.53535 0.88586 0.0
C809 C 0.52525 0.50663 0.90495 0.0
C810 C 0.4648 0.53975 0.90819 0.0
C811 C 0.51035 0.51813 0.88396 0.0
C812 C 0.4623 0.53043 0.95245 0.0
C813 C 0.42313 0.47766 0.03948 0.0
H814 H 0.49377 0.50185 0.09975 0.0
H815 H 0.54523 0.43943 0.16444 0.0
H816 H 0.46953 0.50297 0.14033 0.0
H817 H 0.56942 0.43859 0.12362 0.0
H818 H 0.5216 0.50176 0.94303 0.0
H819 H 0.46804 0.54413 0.86998 0.0
H820 H 0.54873 0.49385 0.90418 0.0
H821 H 0.44121 0.55235 0.90922 0.0
Eu822 Eu 0.14837 0.29857 0.32415 0.0
Eu823 Eu 0.18374 0.36207 0.37665 0.0
C824 C 0.13731 0.3863 0.33395 0.0
C825 C 0.13774 0.27699 0.25653 0.0
C826 C 0.16357 0.32421 0.25499 0.0
C827 C 0.13431 0.26568 0.21282 0.0
C828 C 0.17525 0.34203 0.23262 0.0
C829 C 0.12311 0.24786 0.23528 0.0
C830 C 0.16083 0.31301 0.21122 0.0
C831 C 0.12765 0.25841 0.28033 0.0
O832 O 0.10746 0.31608 0.37519 0.0
O833 O 0.09775 0.2556 0.35025 0.0
C834 C 0.08407 0.27272 0.36758 0.0
O835 O 0.19424 0.27953 0.34483 0.0
O836 O 0.1725 0.3987 0.40655 0.0
O837 O 0.23101 0.38938 0.409 0.0
O838 O 0.17828 0.29517 0.38222 0.0
C839 C 0.19463 0.27582 0.36813 0.0
O840 O 0.20869 0.36591 0.31803 0.0
O841 O 0.24653 0.38555 0.35552 0.0
O842 O 0.17134 0.40394 0.35081 0.0
O843 O 0.1631 0.26553 0.29404 0.0
O844 O 0.0997 0.26613 0.29237 0.0
O845 O 0.11711 0.34325 0.32574 0.0
C846 C 0.19145 0.38043 0.44395 0.0
C847 C 0.1675 0.33292 0.4446 0.0
C848 C 0.18963 0.38848 0.48751 0.0
C849 C 0.1553 0.31335 0.46649 0.0
C850 C 0.20215 0.40807 0.46555 0.0
C851 C 0.16641 0.34083 0.4883 0.0
C852 C 0.20513 0.40062 0.42074 0.0
C853 C 0.24669 0.38759 0.33199 0.0
H854 H 0.17483 0.34734 0.27114 0.0
H855 H 0.12287 0.24235 0.19672 0.0
H856 H 0.19507 0.37861 0.23207 0.0
H857 H 0.1033 0.21132 0.23605 0.0
H858 H 0.15839 0.31087 0.42812 0.0
H859 H 0.19905 0.41066 0.50395 0.0
H860 H 0.13688 0.2766 0.46633 0.0
H861 H 0.22049 0.44478 0.46545 0.0
Eu862 Eu 0.69846 0.84258 0.3268 0.0
Eu863 Eu 0.63614 0.81398 0.37326 0.0
C864 C 0.60889 0.74438 0.32741 0.0
C865 C 0.73159 0.86115 0.26297 0.0
C866 C 0.68547 0.84312 0.25512 0.0
C867 C 0.75182 0.87369 0.22174 0.0
C868 C 0.67259 0.84062 0.23076 0.0
C869 C 0.76471 0.87635 0.24621 0.0
C870 C 0.70562 0.85602 0.2138 0.0
C871 C 0.74501 0.86542 0.28872 0.0
O872 O 0.68281 0.7847 0.37659 0.0
O873 O 0.74173 0.83578 0.35615 0.0
C874 C 0.72586 0.8048 0.37169 0.0
O875 O 0.71824 0.90688 0.34993 0.0
O876 O 0.59492 0.76287 0.39734 0.0
O877 O 0.60602 0.83118 0.40286 0.0
O878 O 0.70253 0.87662 0.38619 0.0
C879 C 0.72391 0.91159 0.37352 0.0
O880 O 0.63299 0.83955 0.31437 0.0
O881 O 0.61347 0.8541 0.35127 0.0
O882 O 0.59302 0.76227 0.34286 0.0
O883 O 0.7371 0.89301 0.30197 0.0
O884 O 0.73267 0.82741 0.29847 0.0
O885 O 0.65192 0.76629 0.32253 0.0
C886 C 0.60824 0.79532 0.43703 0.0
C887 C 0.65521 0.81398 0.44288 0.0
C888 C 0.59487 0.78642 0.47931 0.0
C889 C 0.67203 0.81956 0.4668 0.0
C890 C 0.57804 0.78105 0.45527 0.0
C891 C 0.64214 0.80644 0.4853 0.0
C892 C 0.59165 0.79217 0.41192 0.0
C893 C 0.61014 0.85298 0.32761 0.0
H894 H 0.65945 0.83116 0.26788 0.0
H895 H 0.77802 0.88603 0.2091 0.0
H896 H 0.63667 0.82613 0.22516 0.0
H897 H 0.80049 0.89056 0.25205 0.0
H898 H 0.67896 0.82488 0.42893 0.0
H899 H 0.57116 0.7763 0.49325 0.0
H900 H 0.70851 0.83452 0.47086 0.0
H901 H 0.54167 0.76652 0.45098 0.0
Eu902 Eu 0.18935 0.82168 0.37665 0.0
Eu903 Eu 0.15141 0.84618 0.32747 0.0
C904 C 0.19998 0.91964 0.37163 0.0
C905 C 0.20016 0.80364 0.44209 0.0
C906 C 0.17162 0.82134 0.44709 0.0
C907 C 0.20048 0.78656 0.48382 0.0
C908 C 0.15753 0.82163 0.47027 0.0
C909 C 0.21434 0.78605 0.46054 0.0
C910 C 0.17193 0.80441 0.48896 0.0
C911 C 0.21382 0.80235 0.41748 0.0
O912 O 0.22753 0.87601 0.32624 0.0
O913 O 0.23821 0.82734 0.34878 0.0
C914 C 0.25121 0.85664 0.33223 0.0
O915 O 0.1405 0.75578 0.35496 0.0
O916 O 0.1595 0.89506 0.3016 0.0
O917 O 0.1047 0.82507 0.29507 0.0
O918 O 0.15484 0.78337 0.31812 0.0
C919 C 0.13994 0.74924 0.33157 0.0
O920 O 0.1277 0.82551 0.38654 0.0
O921 O 0.08957 0.80914 0.3491 0.0
O922 O 0.16411 0.90083 0.35602 0.0
O923 O 0.18168 0.77213 0.402 0.0
O924 O 0.23707 0.84155 0.4086 0.0
O925 O 0.22109 0.89785 0.37782 0.0
C926 C 0.14574 0.86058 0.26224 0.0
C927 C 0.17649 0.84453 0.26051 0.0
C928 C 0.14708 0.86868 0.21919 0.0
C929 C 0.19192 0.83996 0.23829 0.0
C930 C 0.13146 0.87309 0.24152 0.0
C931 C 0.17702 0.85146 0.2173 0.0
C932 C 0.12896 0.86376 0.28578 0.0
C933 C 0.0898 0.811 0.37281 0.0
H934 H 0.16043 0.83518 0.43308 0.0
H935 H 0.21189 0.77276 0.49777 0.0
H936 H 0.13619 0.83629 0.47366 0.0
H937 H 0.23608 0.77192 0.45695 0.0
H938 H 0.18826 0.8351 0.27637 0.0
H939 H 0.1347 0.87746 0.20332 0.0
H940 H 0.2154 0.82719 0.23751 0.0
H941 H 0.10787 0.88569 0.24256 0.0
Eu942 Eu 0.81503 0.6319 0.65748 0.0
Eu943 Eu 0.85041 0.6954 0.70998 0.0
C944 C 0.80398 0.71963 0.66728 0.0
C945 C 0.8044 0.61032 0.58986 0.0
C946 C 0.83023 0.65754 0.58832 0.0
C947 C 0.80098 0.59901 0.54615 0.0
C948 C 0.84191 0.67536 0.56596 0.0
C949 C 0.78978 0.58119 0.56861 0.0
C950 C 0.82749 0.64635 0.54455 0.0
C951 C 0.79431 0.59175 0.61366 0.0
O952 O 0.77413 0.64941 0.70853 0.0
O953 O 0.76442 0.58893 0.68358 0.0
C954 C 0.75074 0.60605 0.70092 0.0
O955 O 0.86091 0.61286 0.67816 0.0
O956 O 0.83917 0.73203 0.73988 0.0
O957 O 0.89768 0.72271 0.74234 0.0
O958 O 0.84495 0.6285 0.71555 0.0
C959 C 0.86129 0.60915 0.70147 0.0
O960 O 0.87536 0.69924 0.65136 0.0
O961 O 0.91319 0.71888 0.68886 0.0
O962 O 0.83801 0.73727 0.68415 0.0
O963 O 0.82976 0.59886 0.62737 0.0
O964 O 0.76636 0.59946 0.62571 0.0
O965 O 0.78378 0.67658 0.65908 0.0
C966 C 0.85811 0.71376 0.77729 0.0
C967 C 0.83417 0.66625 0.77793 0.0
C968 C 0.85629 0.72181 0.82085 0.0
C969 C 0.82196 0.64668 0.79983 0.0
C970 C 0.86881 0.7414 0.79888 0.0
C971 C 0.83308 0.67416 0.82163 0.0
C972 C 0.87179 0.73396 0.75408 0.0
C973 C 0.91336 0.72092 0.66533 0.0
H974 H 0.8415 0.68067 0.60447 0.0
H975 H 0.78954 0.57569 0.53006 0.0
H976 H 0.86174 0.71195 0.5654 0.0
H977 H 0.76996 0.54465 0.56938 0.0
H978 H 0.82505 0.6442 0.76146 0.0
H979 H 0.86571 0.744 0.83728 0.0
H980 H 0.80355 0.60993 0.79966 0.0
H981 H 0.88715 0.77811 0.79879 0.0
Eu982 Eu 0.36513 0.17591 0.66013 0.0
Eu983 Eu 0.30281 0.14731 0.7066 0.0
C984 C 0.27556 0.07771 0.66074 0.0
C985 C 0.39826 0.19448 0.5963 0.0
C986 C 0.35214 0.17646 0.58845 0.0
C987 C 0.41849 0.20702 0.55507 0.0
C988 C 0.33926 0.17396 0.56409 0.0
C989 C 0.43138 0.20968 0.57954 0.0
C990 C 0.3723 0.18935 0.54713 0.0
C991 C 0.41168 0.19875 0.62205 0.0
O992 O 0.34947 0.11803 0.70992 0.0
O993 O 0.4084 0.16911 0.68948 0.0
C994 C 0.39253 0.13813 0.70502 0.0
O995 O 0.38491 0.24021 0.68326 0.0
O996 O 0.26159 0.0962 0.73067 0.0
O997 O 0.27268 0.1645 0.73619 0.0
O998 O 0.3692 0.20995 0.71952 0.0
C999 C 0.39058 0.24491 0.70685 0.0
O1000 O 0.29966 0.17288 0.6477 0.0
O1001 O 0.28014 0.18743 0.6846 0.0
O1002 O 0.25969 0.0956 0.67619 0.0
O1003 O 0.40377 0.22634 0.6353 0.0
O1004 O 0.39934 0.16074 0.6318 0.0
O1005 O 0.31859 0.09961 0.65586 0.0
C1006 C 0.27491 0.12865 0.77036 0.0
C1007 C 0.32188 0.14731 0.77621 0.0
C1008 C 0.26154 0.11975 0.81264 0.0
C1009 C 0.33869 0.15289 0.80013 0.0
C1010 C 0.2447 0.11437 0.7886 0.0
C1011 C 0.3088 0.13977 0.81863 0.0
C1012 C 0.25832 0.1255 0.74525 0.0
C1013 C 0.27681 0.18631 0.66094 0.0
H1014 H 0.32612 0.16449 0.60121 0.0
H1015 H 0.44469 0.21936 0.54243 0.0
H1016 H 0.30334 0.15946 0.55849 0.0
H1017 H 0.46716 0.22389 0.58538 0.0
H1018 H 0.34563 0.1582 0.76227 0.0
H1019 H 0.23783 0.10963 0.82658 0.0
H1020 H 0.37518 0.16785 0.8042 0.0
H1021 H 0.20834 0.09984 0.78431 0.0
Eu1022 Eu 0.85602 0.15502 0.70999 0.0
Eu1023 Eu 0.81809 0.17951 0.6608 0.0
C1024 C 0.86665 0.25298 0.70497 0.0
C1025 C 0.86684 0.13697 0.77542 0.0
C1026 C 0.8383 0.15467 0.78043 0.0
C1027 C 0.86715 0.11989 0.81715 0.0
C1028 C 0.8242 0.15496 0.8036 0.0
C1029 C 0.88101 0.11938 0.79388 0.0
C1030 C 0.8386 0.13775 0.82229 0.0
C1031 C 0.8805 0.13568 0.75082 0.0
O1032 O 0.89421 0.20934 0.65958 0.0
O1033 O 0.90488 0.16067 0.68211 0.0
C1034 C 0.91788 0.18998 0.66556 0.0
O1035 O 0.80717 0.08912 0.68829 0.0
O1036 O 0.82617 0.2284 0.63493 0.0
O1037 O 0.77138 0.1584 0.62841 0.0
O1038 O 0.82152 0.11671 0.65146 0.0
C1039 C 0.80662 0.08257 0.6649 0.0
O1040 O 0.79438 0.15884 0.71988 0.0
O1041 O 0.75624 0.14248 0.68244 0.0
O1042 O 0.83078 0.23416 0.68935 0.0
O1043 O 0.84835 0.10547 0.73533 0.0
O1044 O 0.90374 0.17488 0.74194 0.0
O1045 O 0.88776 0.23119 0.71116 0.0
C1046 C 0.81241 0.19391 0.59558 0.0
C1047 C 0.84317 0.17787 0.59384 0.0
C1048 C 0.81376 0.20202 0.55253 0.0
C1049 C 0.85859 0.1733 0.57162 0.0
C1050 C 0.79813 0.20642 0.57486 0.0
C1051 C 0.84369 0.1848 0.55063 0.0
C1052 C 0.79563 0.1971 0.61912 0.0
C1053 C 0.75647 0.14433 0.70614 0.0
H1054 H 0.8271 0.16852 0.76641 0.0
H1055 H 0.87856 0.10609 0.8311 0.0
H1056 H 0.80286 0.16963 0.80699 0.0
H1057 H 0.90275 0.10525 0.79028 0.0
H1058 H 0.85494 0.16843 0.6097 0.0
H1059 H 0.80137 0.2108 0.53665 0.0
H1060 H 0.88207 0.16053 0.57085 0.0
H1061 H 0.77454 0.21902 0.57589 0.0
loop_
_geom_bond_atom_site_label_1
_geom_bond_atom_site_label_2
_geom_bond_distance
_geom_bond_site_symmetry_2
_ccdc_geom_bond_type
C0 C1 1.386 . S
C0 C2 1.397 . S
C0 H24 0.931 . S
C1 C0 1.386 . S
C1 C5 1.397 . S
C2 C0 1.397 . S
C2 C3 1.384 . S
C2 H25 0.930 . S
C3 C2 1.384 . S
C3 C4 1.377 . S
C3 C6 1.481 . S
C4 C3 1.377 . S
C4 C5 1.389 . S
C4 H26 0.929 . S
C5 C1 1.397 . S
C5 C4 1.389 . S
C5 H27 0.931 . S
C6 C3 1.481 . S
C6 C7 1.387 . S
C6 C11 1.390 . S
C7 C6 1.387 . S
C7 C8 1.401 . S
C7 H28 0.930 . S
C8 C7 1.401 . S
C8 C9 1.376 . S
C8 C17 1.511 . S
C9 C8 1.376 . S
C9 C10 1.392 . S
C9 H30 0.931 . S
C10 C9 1.392 . S
C10 C11 1.361 . S
C10 C12 1.500 . S
C11 C6 1.390 . S
C11 C10 1.361 . S
C11 H29 0.931 . S
C12 C10 1.500 . S
C12 C13 1.371 . S
C12 C14 1.365 . S
C13 C12 1.371 . S
C13 C23 1.386 . S
C13 H31 0.931 . S
C14 C12 1.365 . S
C14 C15 1.409 . S
C14 H32 0.929 . S
C15 C14 1.409 . S
C15 C16 1.380 1_545 S
C15 H33 0.930 . S
C16 C15 1.380 1_565 S
C16 C23 1.357 1_565 S
C17 C8 1.511 . S
C17 C18 1.341 . S
C17 C19 1.371 . S
C18 C17 1.341 . S
C18 C22 1.394 . S
C18 H34 0.930 . S
C19 C17 1.371 . S
C19 C20 1.392 . S
C19 H35 0.931 . S
C20 C19 1.392 . S
C20 C21 1.331 . S
C20 H38 0.932 . S
C21 C20 1.331 . S
C21 C22 1.336 . S
C22 C18 1.394 . S
C22 C21 1.336 . S
C22 H37 0.929 . S
C23 C13 1.386 . S
C23 C16 1.357 1_545 S
C23 H36 0.928 . S
H24 C0 0.931 . S
H25 C2 0.930 . S
H26 C4 0.929 . S
H27 C5 0.931 . S
H28 C7 0.930 . S
H29 C11 0.931 . S
H30 C9 0.931 . S
H31 C13 0.931 . S
H32 C14 0.929 . S
H33 C15 0.930 . S
H34 C18 0.930 . S
H35 C19 0.931 . S
H36 C23 0.928 . S
H37 C22 0.929 . S
H38 C20 0.932 . S
C39 C40 1.386 . S
C39 C41 1.397 . S
C39 H63 0.931 . S
C40 C39 1.386 . S
C40 C44 1.397 . S
C41 C39 1.397 . S
C41 C42 1.384 . S
C41 H64 0.930 . S
C42 C41 1.384 . S
C42 C43 1.377 . S
C42 C45 1.481 . S
C43 C42 1.377 . S
C43 C44 1.389 . S
C43 H65 0.929 . S
C44 C40 1.397 . S
C44 C43 1.389 . S
C44 H66 0.931 . S
C45 C42 1.481 . S
C45 C46 1.387 . S
C45 C50 1.390 . S
C46 C45 1.387 . S
C46 C47 1.401 . S
C46 H67 0.930 . S
C47 C46 1.401 . S
C47 C48 1.376 . S
C47 C56 1.511 . S
C48 C47 1.376 . S
C48 C49 1.392 . S
C48 H69 0.931 . S
C49 C48 1.392 . S
C49 C50 1.361 . S
C49 C51 1.500 . S
C50 C45 1.390 . S
C50 C49 1.361 . S
C50 H68 0.931 . S
C51 C49 1.500 . S
C51 C52 1.371 . S
C51 C53 1.365 . S
C52 C51 1.371 . S
C52 C62 1.386 . S
C52 H70 0.931 . S
C53 C51 1.365 . S
C53 C54 1.409 1_545 S
C53 H71 0.929 . S
C54 C53 1.409 1_565 S
C54 C55 1.380 . S
C54 H72 0.930 . S
C55 C54 1.380 . S
C55 C62 1.357 1_565 S
C56 C47 1.511 . S
C56 C57 1.341 . S
C56 C58 1.371 . S
C57 C56 1.341 . S
C57 C61 1.394 1_655 S
C57 H73 0.930 . S
C58 C56 1.371 . S
C58 C59 1.392 . S
C58 H74 0.931 . S
C59 C58 1.392 . S
C59 C60 1.331 1_655 S
C59 H77 0.932 1_655 S
C60 C59 1.331 1_455 S
C60 C61 1.336 . S
C61 C57 1.394 1_455 S
C61 C60 1.336 . S
C61 H76 0.929 . S
C62 C52 1.386 . S
C62 C55 1.357 1_545 S
C62 H75 0.928 . S
H63 C39 0.931 . S
H64 C41 0.930 . S
H65 C43 0.929 . S
H66 C44 0.931 . S
H67 C46 0.930 . S
H68 C50 0.931 . S
H69 C48 0.931 . S
H70 C52 0.931 . S
H71 C53 0.929 . S
H72 C54 0.930 . S
H73 C57 0.930 . S
H74 C58 0.931 . S
H75 C62 0.928 . S
H76 C61 0.929 . S
H77 C59 0.932 1_455 S
C78 C79 1.386 . S
C78 C80 1.397 . S
C78 H102 0.931 . S
C79 C78 1.386 . S
C79 C83 1.397 . S
C80 C78 1.397 . S
C80 C81 1.384 . S
C80 H103 0.930 . S
C81 C80 1.384 . S
C81 C82 1.377 . S
C81 C84 1.481 . S
C82 C81 1.377 . S
C82 C83 1.389 . S
C82 H104 0.929 . S
C83 C79 1.397 . S
C83 C82 1.389 . S
C83 H105 0.931 . S
C84 C81 1.481 . S
C84 C85 1.387 . S
C84 C89 1.390 . S
C85 C84 1.387 . S
C85 C86 1.401 . S
C85 H106 0.930 . S
C86 C85 1.401 . S
C86 C87 1.376 . S
C86 C95 1.511 . S
C87 C86 1.376 . S
C87 C88 1.392 . S
C87 H108 0.931 . S
C88 C87 1.392 . S
C88 C89 1.361 . S
C88 C90 1.500 . S
C89 C84 1.390 . S
C89 C88 1.361 . S
C89 H107 0.931 . S
C90 C88 1.500 . S
C90 C91 1.371 . S
C90 C92 1.365 . S
C91 C90 1.371 . S
C91 C101 1.386 . S
C91 H109 0.931 . S
C92 C90 1.365 . S
C92 C93 1.409 . S
C92 H110 0.929 . S
C93 C92 1.409 . S
C93 C94 1.380 . S
C93 H111 0.930 . S
C94 C93 1.380 . S
C94 C101 1.357 . S
C95 C86 1.511 . S
C95 C96 1.341 1_655 S
C95 C97 1.371 . S
C96 C95 1.341 1_455 S
C96 C100 1.394 . S
C96 H112 0.930 . S
C97 C95 1.371 . S
C97 C98 1.392 1_655 S
C97 H113 0.931 . S
C98 C97 1.392 1_455 S
C98 C99 1.331 . S
C98 H116 0.932 . S
C99 C98 1.331 . S
C99 C100 1.336 . S
C100 C96 1.394 . S
C100 C99 1.336 . S
C100 H115 0.929 . S
C101 C91 1.386 . S
C101 C94 1.357 . S
C101 H114 0.928 . S
H102 C78 0.931 . S
H103 C80 0.930 . S
H104 C82 0.929 . S
H105 C83 0.931 . S
H106 C85 0.930 . S
H107 C89 0.931 . S
H108 C87 0.931 . S
H109 C91 0.931 . S
H110 C92 0.929 . S
H111 C93 0.930 . S
H112 C96 0.930 . S
H113 C97 0.931 . S
H114 C101 0.928 . S
H115 C100 0.929 . S
H116 C98 0.932 . S
C117 C118 1.386 . S
C117 C119 1.397 . S
C117 H141 0.931 . S
C118 C117 1.386 . S
C118 C122 1.397 . S
C119 C117 1.397 . S
C119 C120 1.384 . S
C119 H142 0.930 . S
C120 C119 1.384 . S
C120 C121 1.377 . S
C120 C123 1.481 . S
C121 C120 1.377 . S
C121 C122 1.389 . S
C121 H143 0.929 . S
C122 C118 1.397 . S
C122 C121 1.389 . S
C122 H144 0.931 . S
C123 C120 1.481 . S
C123 C124 1.387 . S
C123 C128 1.390 . S
C124 C123 1.387 . S
C124 C125 1.401 . S
C124 H145 0.930 . S
C125 C124 1.401 . S
C125 C126 1.376 . S
C125 C134 1.511 . S
C126 C125 1.376 . S
C126 C127 1.392 . S
C126 H147 0.931 . S
C127 C126 1.392 . S
C127 C128 1.361 . S
C127 C129 1.500 . S
C128 C123 1.390 . S
C128 C127 1.361 . S
C128 H146 0.931 . S
C129 C127 1.500 . S
C129 C130 1.371 . S
C129 C131 1.365 . S
C130 C129 1.371 . S
C130 C140 1.386 1_455 S
C130 H148 0.931 . S
C131 C129 1.365 . S
C131 C132 1.409 1_455 S
C131 H149 0.929 . S
C132 C131 1.409 1_655 S
C132 C133 1.380 . S
C132 H150 0.930 . S
C133 C132 1.380 . S
C133 C140 1.357 . S
C134 C125 1.511 . S
C134 C135 1.341 . S
C134 C136 1.371 . S
C135 C134 1.341 . S
C135 C139 1.394 . S
C135 H151 0.930 . S
C136 C134 1.371 . S
C136 C137 1.392 . S
C136 H152 0.931 . S
C137 C136 1.392 . S
C137 C138 1.331 . S
C137 H155 0.932 . S
C138 C137 1.331 . S
C138 C139 1.336 . S
C139 C135 1.394 . S
C139 C138 1.336 . S
C139 H154 0.929 . S
C140 C130 1.386 1_655 S
C140 C133 1.357 . S
C140 H153 0.928 . S
H141 C117 0.931 . S
H142 C119 0.930 . S
H143 C121 0.929 . S
H144 C122 0.931 . S
H145 C124 0.930 . S
H146 C128 0.931 . S
H147 C126 0.931 . S
H148 C130 0.931 . S
H149 C131 0.929 . S
H150 C132 0.930 . S
H151 C135 0.930 . S
H152 C136 0.931 . S
H153 C140 0.928 . S
H154 C139 0.929 . S
H155 C137 0.932 . S
C156 C157 1.386 . S
C156 C158 1.397 . S
C156 H180 0.931 . S
C157 C156 1.386 . S
C157 C161 1.397 . S
C158 C156 1.397 . S
C158 C159 1.384 . S
C158 H181 0.930 . S
C159 C158 1.384 . S
C159 C160 1.377 . S
C159 C162 1.481 . S
C160 C159 1.377 . S
C160 C161 1.389 . S
C160 H182 0.929 . S
C161 C157 1.397 . S
C161 C160 1.389 . S
C161 H183 0.931 . S
C162 C159 1.481 . S
C162 C163 1.387 . S
C162 C167 1.390 . S
C163 C162 1.387 . S
C163 C164 1.401 . S
C163 H184 0.930 . S
C164 C163 1.401 . S
C164 C165 1.376 . S
C164 C173 1.511 . S
C165 C164 1.376 . S
C165 C166 1.392 . S
C165 H186 0.931 . S
C166 C165 1.392 . S
C166 C167 1.361 . S
C166 C168 1.500 . S
C167 C162 1.390 . S
C167 C166 1.361 . S
C167 H185 0.931 . S
C168 C166 1.500 . S
C168 C169 1.371 . S
C168 C170 1.365 . S
C169 C168 1.371 . S
C169 C179 1.386 . S
C169 H187 0.931 . S
C170 C168 1.365 . S
C170 C171 1.409 1_565 S
C170 H188 0.929 . S
C171 C170 1.409 1_545 S
C171 C172 1.380 . S
C171 H189 0.930 . S
C172 C171 1.380 . S
C172 C179 1.357 1_545 S
C173 C164 1.511 . S
C173 C174 1.341 . S
C173 C175 1.371 . S
C174 C173 1.341 . S
C174 C178 1.394 . S
C174 H190 0.930 . S
C175 C173 1.371 . S
C175 C176 1.392 . S
C175 H191 0.931 . S
C176 C175 1.392 . S
C176 C177 1.331 . S
C176 H194 0.932 . S
C177 C176 1.331 . S
C177 C178 1.336 . S
C178 C174 1.394 . S
C178 C177 1.336 . S
C178 H193 0.929 . S
C179 C169 1.386 . S
C179 C172 1.357 1_565 S
C179 H192 0.928 . S
H180 C156 0.931 . S
H181 C158 0.930 . S
H182 C160 0.929 . S
H183 C161 0.931 . S
H184 C163 0.930 . S
H185 C167 0.931 . S
H186 C165 0.931 . S
H187 C169 0.931 . S
H188 C170 0.929 . S
H189 C171 0.930 . S
H190 C174 0.930 . S
H191 C175 0.931 . S
H192 C179 0.928 . S
H193 C178 0.929 . S
H194 C176 0.932 . S
C195 C196 1.386 . S
C195 C197 1.397 . S
C195 H219 0.931 . S
C196 C195 1.386 . S
C196 C200 1.397 . S
C197 C195 1.397 . S
C197 C198 1.384 . S
C197 H220 0.930 . S
C198 C197 1.384 . S
C198 C199 1.377 . S
C198 C201 1.481 . S
C199 C198 1.377 . S
C199 C200 1.389 . S
C199 H221 0.929 . S
C200 C196 1.397 . S
C200 C199 1.389 . S
C200 H222 0.931 . S
C201 C198 1.481 . S
C201 C202 1.387 . S
C201 C206 1.390 . S
C202 C201 1.387 . S
C202 C203 1.401 . S
C202 H223 0.930 . S
C203 C202 1.401 . S
C203 C204 1.376 . S
C203 C212 1.511 . S
C204 C203 1.376 . S
C204 C205 1.392 . S
C204 H225 0.931 . S
C205 C204 1.392 . S
C205 C206 1.361 . S
C205 C207 1.500 . S
C206 C201 1.390 . S
C206 C205 1.361 . S
C206 H224 0.931 . S
C207 C205 1.500 . S
C207 C208 1.371 . S
C207 C209 1.365 . S
C208 C207 1.371 . S
C208 C218 1.386 . S
C208 H226 0.931 . S
C209 C207 1.365 . S
C209 C210 1.409 . S
C209 H227 0.929 . S
C210 C209 1.409 . S
C210 C211 1.380 1_565 S
C210 H228 0.930 1_565 S
C211 C210 1.380 1_545 S
C211 C218 1.357 1_545 S
C212 C203 1.511 . S
C212 C213 1.341 . S
C212 C214 1.371 . S
C213 C212 1.341 . S
C213 C217 1.394 1_455 S
C213 H229 0.930 . S
C214 C212 1.371 . S
C214 C215 1.392 . S
C214 H230 0.931 . S
C215 C214 1.392 . S
C215 C216 1.331 1_455 S
C215 H233 0.932 . S
C216 C215 1.331 1_655 S
C216 C217 1.336 . S
C217 C213 1.394 1_655 S
C217 C216 1.336 . S
C217 H232 0.929 . S
C218 C208 1.386 . S
C218 C211 1.357 1_565 S
C218 H231 0.928 1_565 S
H219 C195 0.931 . S
H220 C197 0.930 . S
H221 C199 0.929 . S
H222 C200 0.931 . S
H223 C202 0.930 . S
H224 C206 0.931 . S
H225 C204 0.931 . S
H226 C208 0.931 . S
H227 C209 0.929 . S
H228 C210 0.930 1_545 S
H229 C213 0.930 . S
H230 C214 0.931 . S
H231 C218 0.928 1_545 S
H232 C217 0.929 . S
H233 C215 0.932 . S
C234 C235 1.386 1_655 S
C234 C236 1.397 . S
C234 H258 0.931 . S
C235 C234 1.386 1_455 S
C235 C239 1.397 . S
C236 C234 1.397 . S
C236 C237 1.384 . S
C236 H259 0.930 . S
C237 C236 1.384 . S
C237 C238 1.377 1_655 S
C237 C240 1.481 . S
C238 C237 1.377 1_455 S
C238 C239 1.389 . S
C238 H260 0.929 . S
C239 C235 1.397 . S
C239 C238 1.389 . S
C239 H261 0.931 . S
C240 C237 1.481 . S
C240 C241 1.387 . S
C240 C245 1.390 . S
C241 C240 1.387 . S
C241 C242 1.401 . S
C241 H262 0.930 . S
C242 C241 1.401 . S
C242 C243 1.376 . S
C242 C251 1.511 . S
C243 C242 1.376 . S
C243 C244 1.392 . S
C243 H264 0.931 . S
C244 C243 1.392 . S
C244 C245 1.361 . S
C244 C246 1.500 . S
C245 C240 1.390 . S
C245 C244 1.361 . S
C245 H263 0.931 . S
C246 C244 1.500 . S
C246 C247 1.371 . S
C246 C248 1.365 . S
C247 C246 1.371 . S
C247 C257 1.386 . S
C247 H265 0.931 . S
C248 C246 1.365 . S
C248 C249 1.409 . S
C248 H266 0.929 . S
C249 C248 1.409 . S
C249 C250 1.380 . S
C249 H267 0.930 . S
C250 C249 1.380 . S
C250 C257 1.357 . S
C251 C242 1.511 . S
C251 C252 1.341 . S
C251 C253 1.371 . S
C252 C251 1.341 . S
C252 C256 1.394 . S
C252 H268 0.930 . S
C253 C251 1.371 . S
C253 C254 1.392 . S
C253 H269 0.931 . S
C254 C253 1.392 . S
C254 C255 1.331 . S
C254 H272 0.932 . S
C255 C254 1.331 . S
C255 C256 1.336 . S
C256 C252 1.394 . S
C256 C255 1.336 . S
C256 H271 0.929 . S
C257 C247 1.386 . S
C257 C250 1.357 . S
C257 H270 0.928 . S
H258 C234 0.931 . S
H259 C236 0.930 . S
H260 C238 0.929 . S
H261 C239 0.931 . S
H262 C241 0.930 . S
H263 C245 0.931 . S
H264 C243 0.931 . S
H265 C247 0.931 . S
H266 C248 0.929 . S
H267 C249 0.930 . S
H268 C252 0.930 . S
H269 C253 0.931 . S
H270 C257 0.928 . S
H271 C256 0.929 . S
H272 C254 0.932 . S
C273 C274 1.386 . S
C273 C275 1.397 . S
C273 H297 0.931 . S
C274 C273 1.386 . S
C274 C278 1.397 . S
C275 C273 1.397 . S
C275 C276 1.384 . S
C275 H298 0.930 . S
C276 C275 1.384 . S
C276 C277 1.377 . S
C276 C279 1.481 . S
C277 C276 1.377 . S
C277 C278 1.389 . S
C277 H299 0.929 . S
C278 C274 1.397 . S
C278 C277 1.389 . S
C278 H300 0.931 . S
C279 C276 1.481 . S
C279 C280 1.387 . S
C279 C284 1.390 . S
C280 C279 1.387 . S
C280 C281 1.401 . S
C280 H301 0.930 . S
C281 C280 1.401 . S
C281 C282 1.376 . S
C281 C290 1.511 . S
C282 C281 1.376 . S
C282 C283 1.392 . S
C282 H303 0.931 . S
C283 C282 1.392 . S
C283 C284 1.361 . S
C283 C285 1.500 . S
C284 C279 1.390 . S
C284 C283 1.361 . S
C284 H302 0.931 . S
C285 C283 1.500 . S
C285 C286 1.371 . S
C285 C287 1.365 . S
C286 C285 1.371 . S
C286 C296 1.386 . S
C286 H304 0.931 . S
C287 C285 1.365 . S
C287 C288 1.409 . S
C287 H305 0.929 . S
C288 C287 1.409 . S
C288 C289 1.380 . S
C288 H306 0.930 . S
C289 C288 1.380 . S
C289 C296 1.357 . S
C290 C281 1.511 . S
C290 C291 1.341 . S
C290 C292 1.371 . S
C291 C290 1.341 . S
C291 C295 1.394 . S
C291 H307 0.930 . S
C292 C290 1.371 . S
C292 C293 1.392 . S
C292 H308 0.931 . S
C293 C292 1.392 . S
C293 C294 1.331 . S
C293 H311 0.932 . S
C294 C293 1.331 . S
C294 C295 1.336 . S
C295 C291 1.394 . S
C295 C294 1.336 . S
C295 H310 0.929 . S
C296 C286 1.386 . S
C296 C289 1.357 . S
C296 H309 0.928 . S
H297 C273 0.931 . S
H298 C275 0.930 . S
H299 C277 0.929 . S
H300 C278 0.931 . S
H301 C280 0.930 . S
H302 C284 0.931 . S
H303 C282 0.931 . S
H304 C286 0.931 . S
H305 C287 0.929 . S
H306 C288 0.930 . S
H307 C291 0.930 . S
H308 C292 0.931 . S
H309 C296 0.928 . S
H310 C295 0.929 . S
H311 C293 0.932 . S
C312 C313 1.386 . S
C312 C314 1.397 . S
C312 H336 0.931 . S
C313 C312 1.386 . S
C313 C317 1.397 . S
C314 C312 1.397 . S
C314 C315 1.384 . S
C314 H337 0.930 . S
C315 C314 1.384 . S
C315 C316 1.377 . S
C315 C318 1.481 . S
C316 C315 1.377 . S
C316 C317 1.389 . S
C316 H338 0.929 1_545 S
C317 C313 1.397 . S
C317 C316 1.389 . S
C317 H339 0.931 1_545 S
C318 C315 1.481 . S
C318 C319 1.387 . S
C318 C323 1.390 . S
C319 C318 1.387 . S
C319 C320 1.401 . S
C319 H340 0.930 . S
C320 C319 1.401 . S
C320 C321 1.376 . S
C320 C329 1.511 . S
C321 C320 1.376 . S
C321 C322 1.392 . S
C321 H342 0.931 . S
C322 C321 1.392 . S
C322 C323 1.361 . S
C322 C324 1.500 . S
C323 C318 1.390 . S
C323 C322 1.361 . S
C323 H341 0.931 . S
C324 C322 1.500 . S
C324 C325 1.371 . S
C324 C326 1.365 . S
C325 C324 1.371 . S
C325 C335 1.386 . S
C325 H343 0.931 . S
C326 C324 1.365 . S
C326 C327 1.409 . S
C326 H344 0.929 . S
C327 C326 1.409 . S
C327 C328 1.380 . S
C327 H345 0.930 . S
C328 C327 1.380 . S
C328 C335 1.357 . S
C329 C320 1.511 . S
C329 C330 1.341 . S
C329 C331 1.371 . S
C330 C329 1.341 . S
C330 C334 1.394 . S
C330 H346 0.930 . S
C331 C329 1.371 . S
C331 C332 1.392 . S
C331 H347 0.931 . S
C332 C331 1.392 . S
C332 C333 1.331 . S
C332 H350 0.932 . S
C333 C332 1.331 . S
C333 C334 1.336 . S
C334 C330 1.394 . S
C334 C333 1.336 . S
C334 H349 0.929 . S
C335 C325 1.386 . S
C335 C328 1.357 . S
C335 H348 0.928 . S
H336 C312 0.931 . S
H337 C314 0.930 . S
H338 C316 0.929 1_565 S
H339 C317 0.931 1_565 S
H340 C319 0.930 . S
H341 C323 0.931 . S
H342 C321 0.931 . S
H343 C325 0.931 . S
H344 C326 0.929 . S
H345 C327 0.930 . S
H346 C330 0.930 . S
H347 C331 0.931 . S
H348 C335 0.928 . S
H349 C334 0.929 . S
H350 C332 0.932 . S
C351 C352 1.386 . S
C351 C353 1.397 . S
C351 H375 0.931 . S
C352 C351 1.386 . S
C352 C356 1.397 . S
C353 C351 1.397 . S
C353 C354 1.384 . S
C353 H376 0.930 . S
C354 C353 1.384 . S
C354 C355 1.377 . S
C354 C357 1.481 . S
C355 C354 1.377 . S
C355 C356 1.389 . S
C355 H377 0.929 . S
C356 C352 1.397 . S
C356 C355 1.389 . S
C356 H378 0.931 . S
C357 C354 1.481 . S
C357 C358 1.387 . S
C357 C362 1.390 . S
C358 C357 1.387 . S
C358 C359 1.401 . S
C358 H379 0.930 . S
C359 C358 1.401 . S
C359 C360 1.376 . S
C359 C368 1.511 . S
C360 C359 1.376 . S
C360 C361 1.392 . S
C360 H381 0.931 . S
C361 C360 1.392 . S
C361 C362 1.361 . S
C361 C363 1.500 . S
C362 C357 1.390 . S
C362 C361 1.361 . S
C362 H380 0.931 . S
C363 C361 1.500 . S
C363 C364 1.371 . S
C363 C365 1.365 . S
C364 C363 1.371 . S
C364 C374 1.386 . S
C364 H382 0.931 . S
C365 C363 1.365 . S
C365 C366 1.409 . S
C365 H383 0.929 . S
C366 C365 1.409 . S
C366 C367 1.380 . S
C366 H384 0.930 . S
C367 C366 1.380 . S
C367 C374 1.357 . S
C368 C359 1.511 . S
C368 C369 1.341 . S
C368 C370 1.371 . S
C369 C368 1.341 . S
C369 C373 1.394 . S
C369 H385 0.930 . S
C370 C368 1.371 . S
C370 C371 1.392 . S
C370 H386 0.931 . S
C371 C370 1.392 . S
C371 C372 1.331 . S
C371 H389 0.932 1_556 S
C372 C371 1.331 . S
C372 C373 1.336 . S
C373 C369 1.394 . S
C373 C372 1.336 . S
C373 H388 0.929 . S
C374 C364 1.386 . S
C374 C367 1.357 . S
C374 H387 0.928 . S
H375 C351 0.931 . S
H376 C353 0.930 . S
H377 C355 0.929 . S
H378 C356 0.931 . S
H379 C358 0.930 . S
H380 C362 0.931 . S
H381 C360 0.931 . S
H382 C364 0.931 . S
H383 C365 0.929 . S
H384 C366 0.930 . S
H385 C369 0.930 . S
H386 C370 0.931 . S
H387 C374 0.928 . S
H388 C373 0.929 . S
H389 C371 0.932 1_554 S
C390 C391 1.386 . S
C390 C392 1.397 . S
C390 H414 0.931 . S
C391 C390 1.386 . S
C391 C395 1.397 . S
C392 C390 1.397 . S
C392 C393 1.384 . S
C392 H415 0.930 . S
C393 C392 1.384 . S
C393 C394 1.377 . S
C393 C396 1.481 . S
C394 C393 1.377 . S
C394 C395 1.389 . S
C394 H416 0.929 . S
C395 C391 1.397 . S
C395 C394 1.389 . S
C395 H417 0.931 . S
C396 C393 1.481 . S
C396 C397 1.387 . S
C396 C401 1.390 . S
C397 C396 1.387 . S
C397 C398 1.401 . S
C397 H418 0.930 . S
C398 C397 1.401 . S
C398 C399 1.376 . S
C398 C407 1.511 . S
C399 C398 1.376 . S
C399 C400 1.392 . S
C399 H420 0.931 . S
C400 C399 1.392 . S
C400 C401 1.361 . S
C400 C402 1.500 . S
C401 C396 1.390 . S
C401 C400 1.361 . S
C401 H419 0.931 . S
C402 C400 1.500 . S
C402 C403 1.371 . S
C402 C404 1.365 . S
C403 C402 1.371 . S
C403 C413 1.386 1_556 S
C403 H421 0.931 1_556 S
C404 C402 1.365 . S
C404 C405 1.409 . S
C404 H422 0.929 . S
C405 C404 1.409 . S
C405 C406 1.380 . S
C405 H423 0.930 . S
C406 C405 1.380 . S
C406 C413 1.357 1_556 S
C407 C398 1.511 . S
C407 C408 1.341 . S
C407 C409 1.371 . S
C408 C407 1.341 . S
C408 C412 1.394 . S
C408 H424 0.930 . S
C409 C407 1.371 . S
C409 C410 1.392 1_556 S
C409 H425 0.915 1_556 S
C410 C409 1.392 1_554 S
C410 C411 1.331 1_554 S
C410 H428 0.932 . S
C411 C410 1.331 1_556 S
C411 C412 1.336 . S
C412 C408 1.394 . S
C412 C411 1.336 . S
C412 H427 0.929 1_545 S
C413 C403 1.386 1_554 S
C413 C406 1.357 1_554 S
C413 H426 0.928 . S
H414 C390 0.931 . S
H415 C392 0.930 . S
H416 C394 0.929 . S
H417 C395 0.931 . S
H418 C397 0.930 . S
H419 C401 0.931 . S
H420 C399 0.931 . S
H421 C403 0.931 1_554 S
H422 C404 0.929 . S
H423 C405 0.930 . S
H424 C408 0.930 . S
H425 C409 0.915 1_554 S
H426 C413 0.928 . S
H427 C412 0.929 1_565 S
H428 C410 0.932 . S
C429 C430 1.386 . S
C429 C431 1.397 . S
C429 H453 0.931 . S
C430 C429 1.386 . S
C430 C434 1.397 . S
C431 C429 1.397 . S
C431 C432 1.384 . S
C431 H454 0.930 . S
C432 C431 1.384 . S
C432 C433 1.377 . S
C432 C435 1.481 . S
C433 C432 1.377 . S
C433 C434 1.389 . S
C433 H455 0.929 . S
C434 C430 1.397 . S
C434 C433 1.389 . S
C434 H456 0.931 . S
C435 C432 1.481 . S
C435 C436 1.387 . S
C435 C440 1.390 . S
C436 C435 1.387 . S
C436 C437 1.401 . S
C436 H457 0.930 . S
C437 C436 1.401 . S
C437 C438 1.376 . S
C437 C446 1.511 . S
C438 C437 1.376 . S
C438 C439 1.392 . S
C438 H459 0.931 . S
C439 C438 1.392 . S
C439 C440 1.361 . S
C439 C441 1.500 . S
C440 C435 1.390 . S
C440 C439 1.361 . S
C440 H458 0.931 . S
C441 C439 1.500 . S
C441 C442 1.371 . S
C441 C443 1.365 . S
C442 C441 1.371 . S
C442 C452 1.386 . S
C442 H460 0.931 . S
C443 C441 1.365 . S
C443 C444 1.409 . S
C443 H461 0.929 . S
C444 C443 1.409 . S
C444 C445 1.380 . S
C444 H462 0.930 . S
C445 C444 1.380 . S
C445 C452 1.357 . S
C446 C437 1.511 . S
C446 C447 1.341 . S
C446 C448 1.371 . S
C447 C446 1.341 . S
C447 C451 1.394 . S
C447 H463 0.930 . S
C448 C446 1.371 . S
C448 C449 1.392 . S
C448 H464 0.931 . S
C449 C448 1.392 . S
C449 C450 1.331 . S
C449 H467 0.932 1_556 S
C450 C449 1.331 . S
C450 C451 1.336 . S
C451 C447 1.394 . S
C451 C450 1.336 . S
C451 H466 0.929 . S
C452 C442 1.386 . S
C452 C445 1.357 . S
C452 H465 0.928 1_556 S
H453 C429 0.931 . S
H454 C431 0.930 . S
H455 C433 0.929 . S
H456 C434 0.931 . S
H457 C436 0.930 . S
H458 C440 0.931 . S
H459 C438 0.931 . S
H460 C442 0.931 . S
H461 C443 0.929 . S
H462 C444 0.930 . S
H463 C447 0.930 . S
H464 C448 0.931 . S
H465 C452 0.928 1_554 S
H466 C451 0.929 . S
H467 C449 0.932 1_554 S
C468 C469 1.386 . S
C468 C470 1.397 . S
C468 H492 0.931 . S
C469 C468 1.386 . S
C469 C473 1.397 . S
C470 C468 1.397 . S
C470 C471 1.384 . S
C470 H493 0.930 . S
C471 C470 1.384 . S
C471 C472 1.377 . S
C471 C474 1.481 . S
C472 C471 1.377 . S
C472 C473 1.389 . S
C472 H494 0.929 . S
C473 C469 1.397 . S
C473 C472 1.389 . S
C473 H495 0.931 . S
C474 C471 1.481 . S
C474 C475 1.387 . S
C474 C479 1.390 . S
C475 C474 1.387 . S
C475 C476 1.401 . S
C475 H496 0.930 . S
C476 C475 1.401 . S
C476 C477 1.376 . S
C476 C485 1.511 . S
C477 C476 1.376 . S
C477 C478 1.392 . S
C477 H498 0.931 . S
C478 C477 1.392 . S
C478 C479 1.361 . S
C478 C480 1.500 . S
C479 C474 1.390 . S
C479 C478 1.361 . S
C479 H497 0.931 . S
C480 C478 1.500 . S
C480 C481 1.371 . S
C480 C482 1.365 . S
C481 C480 1.371 . S
C481 C491 1.386 1_554 S
C481 H499 0.931 . S
C482 C480 1.365 . S
C482 C483 1.409 . S
C482 H500 0.929 . S
C483 C482 1.409 . S
C483 C484 1.380 . S
C483 H501 0.930 . S
C484 C483 1.380 . S
C484 C491 1.357 1_554 S
C485 C476 1.511 . S
C485 C486 1.341 . S
C485 C487 1.371 . S
C486 C485 1.341 . S
C486 C490 1.394 . S
C486 H502 0.930 . S
C487 C485 1.371 . S
C487 C488 1.392 1_554 S
C487 H503 0.941 . S
C488 C487 1.392 1_556 S
C488 C489 1.331 1_556 S
C488 H506 0.932 . S
C489 C488 1.331 1_554 S
C489 C490 1.336 . S
C490 C486 1.394 . S
C490 C489 1.336 . S
C490 H505 0.929 . S
C491 C481 1.386 1_556 S
C491 C484 1.357 1_556 S
C491 H504 0.928 . S
H492 C468 0.931 . S
H493 C470 0.930 . S
H494 C472 0.929 . S
H495 C473 0.931 . S
H496 C475 0.930 . S
H497 C479 0.931 . S
H498 C477 0.931 . S
H499 C481 0.931 . S
H500 C482 0.929 . S
H501 C483 0.930 . S
H502 C486 0.930 . S
H503 C487 0.941 . S
H504 C491 0.928 . S
H505 C490 0.929 . S
H506 C488 0.932 . S
C507 C508 1.386 . S
C507 C509 1.397 . S
C507 H531 0.931 . S
C508 C507 1.386 . S
C508 C512 1.397 . S
C509 C507 1.397 . S
C509 C510 1.384 . S
C509 H532 0.930 . S
C510 C509 1.384 . S
C510 C511 1.377 . S
C510 C513 1.481 . S
C511 C510 1.377 . S
C511 C512 1.389 . S
C511 H533 0.929 . S
C512 C508 1.397 . S
C512 C511 1.389 . S
C512 H534 0.931 . S
C513 C510 1.481 . S
C513 C514 1.387 . S
C513 C518 1.390 . S
C514 C513 1.387 . S
C514 C515 1.401 . S
C514 H535 0.930 . S
C515 C514 1.401 . S
C515 C516 1.376 . S
C515 C524 1.511 . S
C516 C515 1.376 . S
C516 C517 1.392 . S
C516 H537 0.931 . S
C517 C516 1.392 . S
C517 C518 1.361 . S
C517 C519 1.500 . S
C518 C513 1.390 . S
C518 C517 1.361 . S
C518 H536 0.931 . S
C519 C517 1.500 . S
C519 C520 1.371 . S
C519 C521 1.365 . S
C520 C519 1.371 . S
C520 C530 1.389 . S
C520 H538 0.931 . S
C521 C519 1.365 . S
C521 C522 1.409 . S
C521 H539 0.929 . S
C522 C521 1.409 . S
C522 C523 1.380 . S
C522 H540 0.930 . S
C523 C522 1.380 . S
C523 C530 1.361 . S
C524 C515 1.511 . S
C524 C525 1.341 . S
C524 C526 1.371 . S
C525 C524 1.341 . S
C525 C529 1.394 . S
C525 H541 0.930 . S
C526 C524 1.371 . S
C526 C527 1.392 . S
C526 H542 0.931 . S
C527 C526 1.392 . S
C527 C528 1.331 . S
C527 H545 0.932 1_554 S
C528 C527 1.331 . S
C528 C529 1.336 . S
C529 C525 1.394 . S
C529 C528 1.336 . S
C529 H544 0.929 . S
C530 C520 1.389 . S
C530 C523 1.361 . S
C530 H543 0.922 1_554 S
H531 C507 0.931 . S
H532 C509 0.930 . S
H533 C511 0.929 . S
H534 C512 0.931 . S
H535 C514 0.930 . S
H536 C518 0.931 . S
H537 C516 0.931 . S
H538 C520 0.931 . S
H539 C521 0.929 . S
H540 C522 0.930 . S
H541 C525 0.930 . S
H542 C526 0.931 . S
H543 C530 0.922 1_556 S
H544 C529 0.929 . S
H545 C527 0.932 1_556 S
C546 C547 1.386 . S
C546 C548 1.397 . S
C546 H570 0.931 . S
C547 C546 1.386 . S
C547 C551 1.397 . S
C548 C546 1.397 . S
C548 C549 1.384 . S
C548 H571 0.930 . S
C549 C548 1.384 . S
C549 C550 1.377 . S
C549 C552 1.481 . S
C550 C549 1.377 . S
C550 C551 1.389 . S
C550 H572 0.929 . S
C551 C547 1.397 . S
C551 C550 1.389 . S
C551 H573 0.931 . S
C552 C549 1.481 . S
C552 C553 1.387 . S
C552 C557 1.390 . S
C553 C552 1.387 . S
C553 C554 1.401 . S
C553 H574 0.930 . S
C554 C553 1.401 . S
C554 C555 1.376 . S
C554 C563 1.511 . S
C555 C554 1.376 . S
C555 C556 1.392 . S
C555 H576 0.931 . S
C556 C555 1.392 . S
C556 C557 1.361 . S
C556 C558 1.500 . S
C557 C552 1.390 . S
C557 C556 1.361 . S
C557 H575 0.931 . S
C558 C556 1.500 . S
C558 C559 1.371 . S
C558 C560 1.365 . S
C559 C558 1.371 . S
C559 C569 1.386 . S
C559 H577 0.931 . S
C560 C558 1.365 . S
C560 C561 1.409 . S
C560 H578 0.929 . S
C561 C560 1.409 . S
C561 C562 1.380 . S
C561 H579 0.930 . S
C562 C561 1.380 . S
C562 C569 1.357 . S
C563 C554 1.511 . S
C563 C564 1.341 . S
C563 C565 1.371 . S
C564 C563 1.341 . S
C564 C568 1.394 . S
C564 H580 0.930 . S
C565 C563 1.371 . S
C565 C566 1.392 . S
C565 H581 0.931 . S
C566 C565 1.392 . S
C566 C567 1.331 . S
C566 H584 0.932 . S
C567 C566 1.331 . S
C567 C568 1.336 . S
C568 C564 1.394 . S
C568 C567 1.336 . S
C568 H583 0.929 . S
C569 C559 1.386 . S
C569 C562 1.357 . S
C569 H582 0.928 . S
H570 C546 0.931 . S
H571 C548 0.930 . S
H572 C550 0.929 . S
H573 C551 0.931 . S
H574 C553 0.930 . S
H575 C557 0.931 . S
H576 C555 0.931 . S
H577 C559 0.931 . S
H578 C560 0.929 . S
H579 C561 0.930 . S
H580 C564 0.930 . S
H581 C565 0.931 . S
H582 C569 0.928 . S
H583 C568 0.929 . S
H584 C566 0.932 . S
C585 C586 1.386 . S
C585 C587 1.397 . S
C585 H609 0.931 . S
C586 C585 1.386 . S
C586 C590 1.399 . S
C587 C585 1.397 . S
C587 C588 1.384 . S
C587 H610 0.930 . S
C588 C587 1.384 . S
C588 C589 1.377 . S
C588 C591 1.481 . S
C589 C588 1.377 . S
C589 C590 1.390 . S
C589 H611 0.929 1_565 S
C590 C586 1.399 . S
C590 C589 1.390 . S
C590 H612 0.928 1_565 S
C591 C588 1.481 . S
C591 C592 1.387 . S
C591 C596 1.390 . S
C592 C591 1.387 . S
C592 C593 1.401 . S
C592 H613 0.930 . S
C593 C592 1.401 . S
C593 C594 1.376 . S
C593 C602 1.511 . S
C594 C593 1.376 . S
C594 C595 1.392 . S
C594 H615 0.931 . S
C595 C594 1.392 . S
C595 C596 1.361 . S
C595 C597 1.500 . S
C596 C591 1.390 . S
C596 C595 1.361 . S
C596 H614 0.931 . S
C597 C595 1.500 . S
C597 C598 1.371 . S
C597 C599 1.365 . S
C598 C597 1.371 . S
C598 C608 1.386 . S
C598 H616 0.931 . S
C599 C597 1.365 . S
C599 C600 1.409 . S
C599 H617 0.929 . S
C600 C599 1.409 . S
C600 C601 1.380 . S
C600 H618 0.930 . S
C601 C600 1.380 . S
C601 C608 1.357 . S
C602 C593 1.511 . S
C602 C603 1.341 . S
C602 C604 1.371 . S
C603 C602 1.341 . S
C603 C607 1.394 . S
C603 H619 0.930 . S
C604 C602 1.371 . S
C604 C605 1.392 . S
C604 H620 0.931 . S
C605 C604 1.392 . S
C605 C606 1.331 . S
C605 H623 0.932 . S
C606 C605 1.331 . S
C606 C607 1.336 . S
C607 C603 1.394 . S
C607 C606 1.336 . S
C607 H622 0.929 . S
C608 C598 1.386 . S
C608 C601 1.357 . S
C608 H621 0.928 . S
H609 C585 0.931 . S
H610 C587 0.930 . S
H611 C589 0.929 1_545 S
H612 C590 0.928 1_545 S
H613 C592 0.930 . S
H614 C596 0.931 . S
H615 C594 0.931 . S
H616 C598 0.931 . S
H617 C599 0.929 . S
H618 C600 0.930 . S
H619 C603 0.930 . S
H620 C604 0.931 . S
H621 C608 0.928 . S
H622 C607 0.929 . S
H623 C605 0.932 . S
C624 C625 1.386 . S
C624 C626 1.397 . S
C624 H648 0.931 . S
C625 C624 1.386 . S
C625 C629 1.397 1_655 S
C626 C624 1.397 . S
C626 C627 1.384 1_655 S
C626 H649 0.930 . S
C627 C626 1.384 1_455 S
C627 C628 1.377 . S
C627 C630 1.481 . S
C628 C627 1.377 . S
C628 C629 1.389 . S
C628 H650 0.929 . S
C629 C625 1.397 1_455 S
C629 C628 1.389 . S
C629 H651 0.931 . S
C630 C627 1.481 . S
C630 C631 1.387 . S
C630 C635 1.390 . S
C631 C630 1.387 . S
C631 C632 1.401 . S
C631 H652 0.930 . S
C632 C631 1.401 . S
C632 C633 1.376 . S
C632 C641 1.511 . S
C633 C632 1.376 . S
C633 C634 1.392 . S
C633 H654 0.931 . S
C634 C633 1.392 . S
C634 C635 1.361 . S
C634 C636 1.500 . S
C635 C630 1.390 . S
C635 C634 1.361 . S
C635 H653 0.931 . S
C636 C634 1.500 . S
C636 C637 1.371 . S
C636 C638 1.365 . S
C637 C636 1.371 . S
C637 C647 1.386 . S
C637 H655 0.931 . S
C638 C636 1.365 . S
C638 C639 1.409 . S
C638 H656 0.929 . S
C639 C638 1.409 . S
C639 C640 1.380 . S
C639 H657 0.930 . S
C640 C639 1.380 . S
C640 C647 1.357 . S
C641 C632 1.511 . S
C641 C642 1.341 . S
C641 C643 1.371 . S
C642 C641 1.341 . S
C642 C646 1.394 . S
C642 H658 0.930 . S
C643 C641 1.371 . S
C643 C644 1.392 . S
C643 H659 0.931 . S
C644 C643 1.392 . S
C644 C645 1.331 . S
C644 H662 0.932 . S
C645 C644 1.331 . S
C645 C646 1.336 . S
C646 C642 1.394 . S
C646 C645 1.336 . S
C646 H661 0.929 . S
C647 C637 1.386 . S
C647 C640 1.357 . S
C647 H660 0.928 . S
H648 C624 0.931 . S
H649 C626 0.930 . S
H650 C628 0.929 . S
H651 C629 0.931 . S
H652 C631 0.930 . S
H653 C635 0.931 . S
H654 C633 0.931 . S
H655 C637 0.931 . S
H656 C638 0.929 . S
H657 C639 0.930 . S
H658 C642 0.930 . S
H659 C643 0.931 . S
H660 C647 0.928 . S
H661 C646 0.929 . S
H662 C644 0.932 . S
C663 C664 1.386 . S
C663 C665 1.397 . S
C663 H687 0.931 . S
C664 C663 1.386 . S
C664 C668 1.397 . S
C665 C663 1.397 . S
C665 C666 1.384 . S
C665 H688 0.930 . S
C666 C665 1.384 . S
C666 C667 1.377 . S
C666 C669 1.481 . S
C667 C666 1.377 . S
C667 C668 1.389 . S
C667 H689 0.929 . S
C668 C664 1.397 . S
C668 C667 1.389 . S
C668 H690 0.931 . S
C669 C666 1.481 . S
C669 C670 1.387 . S
C669 C674 1.390 . S
C670 C669 1.387 . S
C670 C671 1.401 . S
C670 H691 0.930 . S
C671 C670 1.401 . S
C671 C672 1.376 . S
C671 C680 1.511 . S
C672 C671 1.376 . S
C672 C673 1.392 . S
C672 H693 0.931 . S
C673 C672 1.392 . S
C673 C674 1.361 . S
C673 C675 1.500 . S
C674 C669 1.390 . S
C674 C673 1.361 . S
C674 H692 0.931 . S
C675 C673 1.500 . S
C675 C676 1.371 . S
C675 C677 1.365 . S
C676 C675 1.371 . S
C676 C686 1.386 . S
C676 H694 0.931 . S
C677 C675 1.365 . S
C677 C678 1.409 . S
C677 H695 0.929 . S
C678 C677 1.409 . S
C678 C679 1.380 . S
C678 H696 0.930 . S
C679 C678 1.380 . S
C679 C686 1.357 . S
C680 C671 1.511 . S
C680 C681 1.341 . S
C680 C682 1.371 . S
C681 C680 1.341 . S
C681 C685 1.394 . S
C681 H697 0.930 . S
C682 C680 1.371 . S
C682 C683 1.392 . S
C682 H698 0.931 . S
C683 C682 1.392 . S
C683 C684 1.331 . S
C683 H701 0.932 . S
C684 C683 1.331 . S
C684 C685 1.336 . S
C685 C681 1.394 . S
C685 C684 1.336 . S
C685 H700 0.929 . S
C686 C676 1.386 . S
C686 C679 1.357 . S
C686 H699 0.928 . S
H687 C663 0.931 . S
H688 C665 0.930 . S
H689 C667 0.929 . S
H690 C668 0.931 . S
H691 C670 0.930 . S
H692 C674 0.931 . S
H693 C672 0.931 . S
H694 C676 0.931 . S
H695 C677 0.929 . S
H696 C678 0.930 . S
H697 C681 0.930 . S
H698 C682 0.931 . S
H699 C686 0.928 . S
H700 C685 0.929 . S
H701 C683 0.932 . S
Eu702 C711 2.828 . S
Eu702 O713 2.427 . S
Eu702 O715 2.418 . S
Eu702 O720 2.373 1_565 S
Eu702 O723 2.488 . S
Eu702 O724 2.471 . S
Eu702 O725 2.349 1_565 S
Eu703 O712 2.373 1_545 S
Eu703 O716 2.488 . S
Eu703 O717 2.471 . S
Eu703 O718 2.349 1_545 S
Eu703 O721 2.392 . S
Eu703 O722 2.418 . S
Eu703 C732 2.828 . S
C704 O722 1.244 1_556 S
C704 O725 1.265 . S
C705 C706 1.379 1_565 S
C705 C709 1.373 . S
C705 C711 1.505 . S
C706 C705 1.379 1_545 S
C706 C708 1.369 . S
C706 H734 0.930 . S
C707 C709 1.383 . S
C707 C710 1.384 . S
C707 H735 0.930 . S
C708 C706 1.369 . S
C708 C710 1.391 1_545 S
C708 H736 0.930 . S
C709 C705 1.373 . S
C709 C707 1.383 . S
C709 H737 0.931 . S
C710 C707 1.384 . S
C710 C708 1.391 1_565 S
C711 Eu702 2.828 . S
C711 C705 1.505 . S
C711 O723 1.249 . S
C711 O724 1.244 . S
O712 Eu703 2.373 1_565 S
O712 C714 1.258 . S
O713 Eu702 2.427 . S
O713 C714 1.202 1_556 S
C714 O712 1.258 . S
C714 O713 1.202 1_554 S
O715 Eu702 2.418 . S
O715 C719 1.244 1_556 S
O716 Eu703 2.488 . S
O716 C732 1.249 . S
O717 Eu703 2.471 . S
O717 C732 1.244 . S
O718 Eu703 2.349 1_565 S
O718 C719 1.265 . S
C719 O715 1.244 1_554 S
C719 O718 1.265 . S
O720 Eu702 2.373 1_545 S
O720 C733 1.258 . S
O721 Eu703 2.392 . S
O721 C733 1.242 1_554 S
O722 Eu703 2.418 . S
O722 C704 1.244 1_554 S
O723 Eu702 2.488 . S
O723 C711 1.249 . S
O724 Eu702 2.471 . S
O724 C711 1.244 . S
O725 Eu702 2.349 1_545 S
O725 C704 1.265 . S
C726 C727 1.379 1_545 S
C726 C730 1.373 . S
C726 C732 1.505 . S
C727 C726 1.379 1_565 S
C727 C729 1.369 . S
C727 H738 0.930 . S
C728 C730 1.383 . S
C728 C731 1.402 . S
C728 H739 0.930 . S
C729 C727 1.369 . S
C729 C731 1.375 1_565 S
C729 H740 0.930 . S
C730 C726 1.373 . S
C730 C728 1.383 . S
C730 H741 0.931 . S
C731 C728 1.402 . S
C731 C729 1.375 1_545 S
C732 Eu703 2.828 . S
C732 O716 1.249 . S
C732 O717 1.244 . S
C732 C726 1.505 . S
C733 O720 1.258 . S
C733 O721 1.242 1_556 S
H734 C706 0.930 . S
H735 C707 0.930 . S
H736 C708 0.930 . S
H737 C709 0.931 . S
H738 C727 0.930 . S
H739 C728 0.930 . S
H740 C729 0.930 . S
H741 C730 0.931 . S
Eu742 C751 2.828 . S
Eu742 O753 2.392 1_556 S
Eu742 O755 2.418 . S
Eu742 O760 2.373 1_455 S
Eu742 O763 2.488 . S
Eu742 O764 2.471 1_455 S
Eu742 O765 2.349 1_455 S
Eu743 O752 2.373 1_655 S
Eu743 O756 2.488 . S
Eu743 O757 2.471 1_655 S
Eu743 O758 2.349 1_655 S
Eu743 O761 2.392 1_554 S
Eu743 O762 2.418 . S
Eu743 C772 2.828 . S
C744 O762 1.244 1_556 S
C744 O765 1.265 . S
C745 C746 1.379 1_455 S
C745 C749 1.373 . S
C745 C751 1.505 . S
C746 C745 1.379 1_655 S
C746 C748 1.369 . S
C746 H774 0.930 . S
C747 C749 1.383 . S
C747 C750 1.382 1_455 S
C747 H775 0.930 . S
C748 C746 1.369 . S
C748 C750 1.392 . S
C748 H776 0.930 . S
C749 C745 1.373 . S
C749 C747 1.383 . S
C749 H777 0.931 . S
C750 C747 1.382 1_655 S
C750 C748 1.392 . S
C751 Eu742 2.828 . S
C751 C745 1.505 . S
C751 O763 1.249 . S
C751 O764 1.244 1_455 S
O752 Eu743 2.373 1_455 S
O752 C754 1.258 . S
O753 Eu742 2.392 1_554 S
O753 C754 1.242 . S
C754 O752 1.258 . S
C754 O753 1.242 . S
O755 Eu742 2.418 . S
O755 C759 1.244 1_556 S
O756 Eu743 2.488 . S
O756 C772 1.249 . S
O757 Eu743 2.471 1_455 S
O757 C772 1.244 1_455 S
O758 Eu743 2.349 1_455 S
O758 C759 1.265 . S
C759 O755 1.244 1_554 S
C759 O758 1.265 . S
O760 Eu742 2.373 1_655 S
O760 C773 1.258 . S
O761 Eu743 2.392 1_556 S
O761 C773 1.242 . S
O762 Eu743 2.418 . S
O762 C744 1.244 1_554 S
O763 Eu742 2.488 . S
O763 C751 1.249 . S
O764 Eu742 2.471 1_655 S
O764 C751 1.244 1_655 S
O765 Eu742 2.349 1_655 S
O765 C744 1.265 . S
C766 C767 1.379 1_655 S
C766 C770 1.373 . S
C766 C772 1.505 . S
C767 C766 1.379 1_455 S
C767 C769 1.369 . S
C767 H778 0.930 . S
C768 C770 1.383 . S
C768 C771 1.382 1_655 S
C768 H779 0.930 . S
C769 C767 1.369 . S
C769 C771 1.392 . S
C769 H780 0.930 . S
C770 C766 1.373 . S
C770 C768 1.383 . S
C770 H781 0.931 . S
C771 C768 1.382 1_455 S
C771 C769 1.392 . S
C772 Eu743 2.828 . S
C772 O756 1.249 . S
C772 O757 1.244 1_655 S
C772 C766 1.505 . S
C773 O760 1.258 . S
C773 O761 1.242 . S
H774 C746 0.930 . S
H775 C747 0.930 . S
H776 C748 0.930 . S
H777 C749 0.931 . S
H778 C767 0.930 . S
H779 C768 0.930 . S
H780 C769 0.930 . S
H781 C770 0.931 . S
Eu782 C791 2.828 . S
Eu782 O793 2.422 . S
Eu782 O795 2.418 . S
Eu782 O800 2.373 . S
Eu782 O803 2.488 . S
Eu782 O804 2.471 . S
Eu782 O805 2.349 . S
Eu783 O792 2.373 . S
Eu783 O796 2.488 . S
Eu783 O797 2.471 . S
Eu783 O798 2.349 . S
Eu783 O801 2.392 1_556 S
Eu783 O802 2.418 . S
Eu783 C812 2.828 . S
C784 O802 1.244 1_554 S
C784 O805 1.265 . S
C785 C786 1.379 . S
C785 C789 1.373 . S
C785 C791 1.505 . S
C786 C785 1.379 . S
C786 C788 1.369 . S
C786 H814 0.930 . S
C787 C789 1.383 . S
C787 C790 1.382 . S
C787 H815 0.930 . S
C788 C786 1.369 . S
C788 C790 1.392 . S
C788 H816 0.930 . S
C789 C785 1.373 . S
C789 C787 1.383 . S
C789 H817 0.931 . S
C790 C787 1.382 . S
C790 C788 1.392 . S
C791 Eu782 2.828 . S
C791 C785 1.505 . S
C791 O803 1.249 . S
C791 O804 1.244 . S
O792 Eu783 2.373 . S
O792 C794 1.258 . S
O793 Eu782 2.422 . S
O793 C794 1.208 1_554 S
C794 O792 1.258 . S
C794 O793 1.208 1_556 S
O795 Eu782 2.418 . S
O795 C799 1.244 1_554 S
O796 Eu783 2.488 . S
O796 C812 1.249 . S
O797 Eu783 2.471 . S
O797 C812 1.244 . S
O798 Eu783 2.349 . S
O798 C799 1.265 . S
C799 O795 1.244 1_556 S
C799 O798 1.265 . S
O800 Eu782 2.373 . S
O800 C813 1.258 . S
O801 Eu783 2.392 1_554 S
O801 C813 1.242 . S
O802 Eu783 2.418 . S
O802 C784 1.244 1_556 S
O803 Eu782 2.488 . S
O803 C791 1.249 . S
O804 Eu782 2.471 . S
O804 C791 1.244 . S
O805 Eu782 2.349 . S
O805 C784 1.265 . S
C806 C807 1.379 . S
C806 C810 1.373 . S
C806 C812 1.505 . S
C807 C806 1.379 . S
C807 C809 1.369 . S
C807 H818 0.930 . S
C808 C810 1.383 . S
C808 C811 1.382 . S
C808 H819 0.930 . S
C809 C807 1.369 . S
C809 C811 1.392 . S
C809 H820 0.930 . S
C810 C806 1.373 . S
C810 C808 1.383 . S
C810 H821 0.931 . S
C811 C808 1.382 . S
C811 C809 1.392 . S
C812 Eu783 2.828 . S
C812 O796 1.249 . S
C812 O797 1.244 . S
C812 C806 1.505 . S
C813 O800 1.258 . S
C813 O801 1.242 . S
H814 C786 0.930 . S
H815 C787 0.930 . S
H816 C788 0.930 . S
H817 C789 0.931 . S
H818 C807 0.930 . S
H819 C808 0.930 . S
H820 C809 0.930 . S
H821 C810 0.931 . S
Eu822 C831 2.828 . S
Eu822 O833 2.392 . S
Eu822 O835 2.418 . S
Eu822 O840 2.373 . S
Eu822 O843 2.488 . S
Eu822 O844 2.471 . S
Eu822 O845 2.349 . S
Eu823 O832 2.373 . S
Eu823 O836 2.488 . S
Eu823 O837 2.471 . S
Eu823 O838 2.349 . S
Eu823 O841 2.392 . S
Eu823 O842 2.418 . S
Eu823 C852 2.828 . S
C824 O842 1.244 . S
C824 O845 1.265 . S
C825 C826 1.379 . S
C825 C829 1.373 . S
C825 C831 1.505 . S
C826 C825 1.379 . S
C826 C828 1.369 . S
C826 H854 0.930 . S
C827 C829 1.383 . S
C827 C830 1.382 . S
C827 H855 0.930 . S
C828 C826 1.369 . S
C828 C830 1.392 . S
C828 H856 0.930 . S
C829 C825 1.373 . S
C829 C827 1.383 . S
C829 H857 0.931 . S
C830 C827 1.382 . S
C830 C828 1.392 . S
C831 Eu822 2.828 . S
C831 C825 1.505 . S
C831 O843 1.249 . S
C831 O844 1.244 . S
O832 Eu823 2.373 . S
O832 C834 1.258 . S
O833 Eu822 2.392 . S
O833 C834 1.242 . S
C834 O832 1.258 . S
C834 O833 1.242 . S
O835 Eu822 2.418 . S
O835 C839 1.244 . S
O836 Eu823 2.488 . S
O836 C852 1.249 . S
O837 Eu823 2.471 . S
O837 C852 1.244 . S
O838 Eu823 2.349 . S
O838 C839 1.265 . S
C839 O835 1.244 . S
C839 O838 1.265 . S
O840 Eu822 2.373 . S
O840 C853 1.258 . S
O841 Eu823 2.392 . S
O841 C853 1.242 . S
O842 Eu823 2.418 . S
O842 C824 1.244 . S
O843 Eu822 2.488 . S
O843 C831 1.249 . S
O844 Eu822 2.471 . S
O844 C831 1.244 . S
O845 Eu822 2.349 . S
O845 C824 1.265 . S
C846 C847 1.379 . S
C846 C850 1.373 . S
C846 C852 1.505 . S
C847 C846 1.379 . S
C847 C849 1.369 . S
C847 H858 0.930 . S
C848 C850 1.383 . S
C848 C851 1.382 . S
C848 H859 0.930 . S
C849 C847 1.369 . S
C849 C851 1.392 . S
C849 H860 0.930 . S
C850 C846 1.373 . S
C850 C848 1.383 . S
C850 H861 0.931 . S
C851 C848 1.382 . S
C851 C849 1.392 . S
C852 Eu823 2.828 . S
C852 O836 1.249 . S
C852 O837 1.244 . S
C852 C846 1.505 . S
C853 O840 1.258 . S
C853 O841 1.242 . S
H854 C826 0.930 . S
H855 C827 0.930 . S
H856 C828 0.930 . S
H857 C829 0.931 . S
H858 C847 0.930 . S
H859 C848 0.930 . S
H860 C849 0.930 . S
H861 C850 0.931 . S
Eu862 C871 2.828 . S
Eu862 O873 2.392 . S
Eu862 O875 2.418 . S
Eu862 O880 2.373 . S
Eu862 O883 2.488 . S
Eu862 O884 2.471 . S
Eu862 O885 2.349 . S
Eu863 O872 2.373 . S
Eu863 O876 2.488 . S
Eu863 O877 2.471 . S
Eu863 O878 2.349 . S
Eu863 O881 2.392 . S
Eu863 O882 2.418 . S
Eu863 C892 2.828 . S
C864 O882 1.244 . S
C864 O885 1.265 . S
C865 C866 1.379 . S
C865 C869 1.373 . S
C865 C871 1.505 . S
C866 C865 1.379 . S
C866 C868 1.369 . S
C866 H894 0.930 . S
C867 C869 1.383 . S
C867 C870 1.382 . S
C867 H895 0.930 . S
C868 C866 1.369 . S
C868 C870 1.392 . S
C868 H896 0.930 . S
C869 C865 1.373 . S
C869 C867 1.383 . S
C869 H897 0.931 . S
C870 C867 1.382 . S
C870 C868 1.392 . S
C871 Eu862 2.828 . S
C871 C865 1.505 . S
C871 O883 1.249 . S
C871 O884 1.244 . S
O872 Eu863 2.373 . S
O872 C874 1.258 . S
O873 Eu862 2.392 . S
O873 C874 1.242 . S
C874 O872 1.258 . S
C874 O873 1.242 . S
O875 Eu862 2.418 . S
O875 C879 1.244 . S
O876 Eu863 2.488 . S
O876 C892 1.249 . S
O877 Eu863 2.471 . S
O877 C892 1.244 . S
O878 Eu863 2.349 . S
O878 C879 1.265 . S
C879 O875 1.244 . S
C879 O878 1.265 . S
O880 Eu862 2.373 . S
O880 C893 1.258 . S
O881 Eu863 2.392 . S
O881 C893 1.242 . S
O882 Eu863 2.418 . S
O882 C864 1.244 . S
O883 Eu862 2.488 . S
O883 C871 1.249 . S
O884 Eu862 2.471 . S
O884 C871 1.244 . S
O885 Eu862 2.349 . S
O885 C864 1.265 . S
C886 C887 1.379 . S
C886 C890 1.373 . S
C886 C892 1.505 . S
C887 C886 1.379 . S
C887 C889 1.369 . S
C887 H898 0.930 . S
C888 C890 1.383 . S
C888 C891 1.382 . S
C888 H899 0.930 . S
C889 C887 1.369 . S
C889 C891 1.392 . S
C889 H900 0.930 . S
C890 C886 1.373 . S
C890 C888 1.383 . S
C890 H901 0.931 . S
C891 C888 1.382 . S
C891 C889 1.392 . S
C892 Eu863 2.828 . S
C892 O876 1.249 . S
C892 O877 1.244 . S
C892 C886 1.505 . S
C893 O880 1.258 . S
C893 O881 1.242 . S
H894 C866 0.930 . S
H895 C867 0.930 . S
H896 C868 0.930 . S
H897 C869 0.931 . S
H898 C887 0.930 . S
H899 C888 0.930 . S
H900 C889 0.930 . S
H901 C890 0.931 . S
Eu902 C911 2.828 . S
Eu902 O913 2.392 . S
Eu902 O915 2.418 . S
Eu902 O920 2.373 . S
Eu902 O923 2.488 . S
Eu902 O924 2.471 . S
Eu902 O925 2.349 . S
Eu903 O912 2.373 . S
Eu903 O916 2.488 . S
Eu903 O917 2.471 . S
Eu903 O918 2.349 . S
Eu903 O921 2.392 . S
Eu903 O922 2.418 . S
Eu903 C932 2.828 . S
C904 O922 1.244 . S
C904 O925 1.265 . S
C905 C906 1.379 . S
C905 C909 1.373 . S
C905 C911 1.505 . S
C906 C905 1.379 . S
C906 C908 1.369 . S
C906 H934 0.930 . S
C907 C909 1.383 . S
C907 C910 1.382 . S
C907 H935 0.930 . S
C908 C906 1.369 . S
C908 C910 1.392 . S
C908 H936 0.930 . S
C909 C905 1.373 . S
C909 C907 1.383 . S
C909 H937 0.931 . S
C910 C907 1.382 . S
C910 C908 1.392 . S
C911 Eu902 2.828 . S
C911 C905 1.505 . S
C911 O923 1.249 . S
C911 O924 1.244 . S
O912 Eu903 2.373 . S
O912 C914 1.258 . S
O913 Eu902 2.392 . S
O913 C914 1.242 . S
C914 O912 1.258 . S
C914 O913 1.242 . S
O915 Eu902 2.418 . S
O915 C919 1.244 . S
O916 Eu903 2.488 . S
O916 C932 1.249 . S
O917 Eu903 2.471 . S
O917 C932 1.244 . S
O918 Eu903 2.349 . S
O918 C919 1.265 . S
C919 O915 1.244 . S
C919 O918 1.265 . S
O920 Eu902 2.373 . S
O920 C933 1.258 . S
O921 Eu903 2.392 . S
O921 C933 1.242 . S
O922 Eu903 2.418 . S
O922 C904 1.244 . S
O923 Eu902 2.488 . S
O923 C911 1.249 . S
O924 Eu902 2.471 . S
O924 C911 1.244 . S
O925 Eu902 2.349 . S
O925 C904 1.265 . S
C926 C927 1.379 . S
C926 C930 1.373 . S
C926 C932 1.505 . S
C927 C926 1.379 . S
C927 C929 1.369 . S
C927 H938 0.930 . S
C928 C930 1.383 . S
C928 C931 1.382 . S
C928 H939 0.930 . S
C929 C927 1.369 . S
C929 C931 1.392 . S
C929 H940 0.930 . S
C930 C926 1.373 . S
C930 C928 1.383 . S
C930 H941 0.931 . S
C931 C928 1.382 . S
C931 C929 1.392 . S
C932 Eu903 2.828 . S
C932 O916 1.249 . S
C932 O917 1.244 . S
C932 C926 1.505 . S
C933 O920 1.258 . S
C933 O921 1.242 . S
H934 C906 0.930 . S
H935 C907 0.930 . S
H936 C908 0.930 . S
H937 C909 0.931 . S
H938 C927 0.930 . S
H939 C928 0.930 . S
H940 C929 0.930 . S
H941 C930 0.931 . S
Eu942 C951 2.828 . S
Eu942 O953 2.392 . S
Eu942 O955 2.418 . S
Eu942 O960 2.373 . S
Eu942 O963 2.488 . S
Eu942 O964 2.471 . S
Eu942 O965 2.349 . S
Eu943 O952 2.373 . S
Eu943 O956 2.488 . S
Eu943 O957 2.471 . S
Eu943 O958 2.349 . S
Eu943 O961 2.392 . S
Eu943 O962 2.418 . S
Eu943 C972 2.828 . S
C944 O962 1.244 . S
C944 O965 1.265 . S
C945 C946 1.379 . S
C945 C949 1.373 . S
C945 C951 1.505 . S
C946 C945 1.379 . S
C946 C948 1.369 . S
C946 H974 0.930 . S
C947 C949 1.383 . S
C947 C950 1.382 . S
C947 H975 0.930 . S
C948 C946 1.369 . S
C948 C950 1.392 . S
C948 H976 0.930 . S
C949 C945 1.373 . S
C949 C947 1.383 . S
C949 H977 0.931 . S
C950 C947 1.382 . S
C950 C948 1.392 . S
C951 Eu942 2.828 . S
C951 C945 1.505 . S
C951 O963 1.249 . S
C951 O964 1.244 . S
O952 Eu943 2.373 . S
O952 C954 1.258 . S
O953 Eu942 2.392 . S
O953 C954 1.242 . S
C954 O952 1.258 . S
C954 O953 1.242 . S
O955 Eu942 2.418 . S
O955 C959 1.244 . S
O956 Eu943 2.488 . S
O956 C972 1.249 . S
O957 Eu943 2.471 . S
O957 C972 1.244 . S
O958 Eu943 2.349 . S
O958 C959 1.265 . S
C959 O955 1.244 . S
C959 O958 1.265 . S
O960 Eu942 2.373 . S
O960 C973 1.258 . S
O961 Eu943 2.392 . S
O961 C973 1.242 . S
O962 Eu943 2.418 . S
O962 C944 1.244 . S
O963 Eu942 2.488 . S
O963 C951 1.249 . S
O964 Eu942 2.471 . S
O964 C951 1.244 . S
O965 Eu942 2.349 . S
O965 C944 1.265 . S
C966 C967 1.379 . S
C966 C970 1.373 . S
C966 C972 1.505 . S
C967 C966 1.379 . S
C967 C969 1.369 . S
C967 H978 0.930 . S
C968 C970 1.383 . S
C968 C971 1.382 . S
C968 H979 0.930 . S
C969 C967 1.369 . S
C969 C971 1.392 . S
C969 H980 0.930 . S
C970 C966 1.373 . S
C970 C968 1.383 . S
C970 H981 0.931 . S
C971 C968 1.382 . S
C971 C969 1.392 . S
C972 Eu943 2.828 . S
C972 O956 1.249 . S
C972 O957 1.244 . S
C972 C966 1.505 . S
C973 O960 1.258 . S
C973 O961 1.242 . S
H974 C946 0.930 . S
H975 C947 0.930 . S
H976 C948 0.930 . S
H977 C949 0.931 . S
H978 C967 0.930 . S
H979 C968 0.930 . S
H980 C969 0.930 . S
H981 C970 0.931 . S
Eu982 C991 2.828 . S
Eu982 O993 2.392 . S
Eu982 O995 2.418 . S
Eu982 O1000 2.373 . S
Eu982 O1003 2.488 . S
Eu982 O1004 2.471 . S
Eu982 O1005 2.349 . S
Eu983 O992 2.373 . S
Eu983 O996 2.488 . S
Eu983 O997 2.471 . S
Eu983 O998 2.349 . S
Eu983 O1001 2.392 . S
Eu983 O1002 2.418 . S
Eu983 C1012 2.828 . S
C984 O1002 1.244 . S
C984 O1005 1.265 . S
C985 C986 1.379 . S
C985 C989 1.373 . S
C985 C991 1.505 . S
C986 C985 1.379 . S
C986 C988 1.369 . S
C986 H1014 0.930 . S
C987 C989 1.383 . S
C987 C990 1.382 . S
C987 H1015 0.930 . S
C988 C986 1.369 . S
C988 C990 1.392 . S
C988 H1016 0.930 . S
C989 C985 1.373 . S
C989 C987 1.383 . S
C989 H1017 0.931 . S
C990 C987 1.382 . S
C990 C988 1.392 . S
C991 Eu982 2.828 . S
C991 C985 1.505 . S
C991 O1003 1.249 . S
C991 O1004 1.244 . S
O992 Eu983 2.373 . S
O992 C994 1.258 . S
O993 Eu982 2.392 . S
O993 C994 1.242 . S
C994 O992 1.258 . S
C994 O993 1.242 . S
O995 Eu982 2.418 . S
O995 C999 1.244 . S
O996 Eu983 2.488 . S
O996 C1012 1.249 . S
O997 Eu983 2.471 . S
O997 C1012 1.244 . S
O998 Eu983 2.349 . S
O998 C999 1.265 . S
C999 O995 1.244 . S
C999 O998 1.265 . S
O1000 Eu982 2.373 . S
O1000 C1013 1.258 . S
O1001 Eu983 2.392 . S
O1001 C1013 1.242 . S
O1002 Eu983 2.418 . S
O1002 C984 1.244 . S
O1003 Eu982 2.488 . S
O1003 C991 1.249 . S
O1004 Eu982 2.471 . S
O1004 C991 1.244 . S
O1005 Eu982 2.349 . S
O1005 C984 1.265 . S
C1006 C1007 1.379 . S
C1006 C1010 1.373 . S
C1006 C1012 1.505 . S
C1007 C1006 1.379 . S
C1007 C1009 1.369 . S
C1007 H1018 0.930 . S
C1008 C1010 1.383 . S
C1008 C1011 1.382 . S
C1008 H1019 0.930 . S
C1009 C1007 1.369 . S
C1009 C1011 1.392 . S
C1009 H1020 0.930 . S
C1010 C1006 1.373 . S
C1010 C1008 1.383 . S
C1010 H1021 0.931 . S
C1011 C1008 1.382 . S
C1011 C1009 1.392 . S
C1012 Eu983 2.828 . S
C1012 O996 1.249 . S
C1012 O997 1.244 . S
C1012 C1006 1.505 . S
C1013 O1000 1.258 . S
C1013 O1001 1.242 . S
H1014 C986 0.930 . S
H1015 C987 0.930 . S
H1016 C988 0.930 . S
H1017 C989 0.931 . S
H1018 C1007 0.930 . S
H1019 C1008 0.930 . S
H1020 C1009 0.930 . S
H1021 C1010 0.931 . S
Eu1022 C1031 2.828 . S
Eu1022 O1033 2.392 . S
Eu1022 O1035 2.418 . S
Eu1022 O1040 2.373 . S
Eu1022 O1043 2.488 . S
Eu1022 O1044 2.471 . S
Eu1022 O1045 2.349 . S
Eu1023 O1032 2.373 . S
Eu1023 O1036 2.488 . S
Eu1023 O1037 2.471 . S
Eu1023 O1038 2.349 . S
Eu1023 O1041 2.392 . S
Eu1023 O1042 2.418 . S
Eu1023 C1052 2.828 . S
C1024 O1042 1.244 . S
C1024 O1045 1.265 . S
C1025 C1026 1.379 . S
C1025 C1029 1.373 . S
C1025 C1031 1.505 . S
C1026 C1025 1.379 . S
C1026 C1028 1.369 . S
C1026 H1054 0.930 . S
C1027 C1029 1.383 . S
C1027 C1030 1.382 . S
C1027 H1055 0.930 . S
C1028 C1026 1.369 . S
C1028 C1030 1.392 . S
C1028 H1056 0.930 . S
C1029 C1025 1.373 . S
C1029 C1027 1.383 . S
C1029 H1057 0.931 . S
C1030 C1027 1.382 . S
C1030 C1028 1.392 . S
C1031 Eu1022 2.828 . S
C1031 C1025 1.505 . S
C1031 O1043 1.249 . S
C1031 O1044 1.244 . S
O1032 Eu1023 2.373 . S
O1032 C1034 1.258 . S
O1033 Eu1022 2.392 . S
O1033 C1034 1.242 . S
C1034 O1032 1.258 . S
C1034 O1033 1.242 . S
O1035 Eu1022 2.418 . S
O1035 C1039 1.244 . S
O1036 Eu1023 2.488 . S
O1036 C1052 1.249 . S
O1037 Eu1023 2.471 . S
O1037 C1052 1.244 . S
O1038 Eu1023 2.349 . S
O1038 C1039 1.265 . S
C1039 O1035 1.244 . S
C1039 O1038 1.265 . S
O1040 Eu1022 2.373 . S
O1040 C1053 1.258 . S
O1041 Eu1023 2.392 . S
O1041 C1053 1.242 . S
O1042 Eu1023 2.418 . S
O1042 C1024 1.244 . S
O1043 Eu1022 2.488 . S
O1043 C1031 1.249 . S
O1044 Eu1022 2.471 . S
O1044 C1031 1.244 . S
O1045 Eu1022 2.349 . S
O1045 C1024 1.265 . S
C1046 C1047 1.379 . S
C1046 C1050 1.373 . S
C1046 C1052 1.505 . S
C1047 C1046 1.379 . S
C1047 C1049 1.369 . S
C1047 H1058 0.930 . S
C1048 C1050 1.383 . S
C1048 C1051 1.382 . S
C1048 H1059 0.930 . S
C1049 C1047 1.369 . S
C1049 C1051 1.392 . S
C1049 H1060 0.930 . S
C1050 C1046 1.373 . S
C1050 C1048 1.383 . S
C1050 H1061 0.931 . S
C1051 C1048 1.382 . S
C1051 C1049 1.392 . S
C1052 Eu1023 2.828 . S
C1052 O1036 1.249 . S
C1052 O1037 1.244 . S
C1052 C1046 1.505 . S
C1053 O1040 1.258 . S
C1053 O1041 1.242 . S
H1054 C1026 0.930 . S
H1055 C1027 0.930 . S
H1056 C1028 0.930 . S
H1057 C1029 0.931 . S
H1058 C1047 0.930 . S
H1059 C1048 0.930 . S
H1060 C1049 0.930 . S
H1061 C1050 0.931 . S
C528 C714 2.414 . S
C562 C754 2.206 . S
C484 C784 2.567 . S
C445 C744 2.172 . S
C794 C367 1.922 . S
C411 C704 2.325 . S
C733 C450 2.393 . S
C773 C372 2.167 . S
C406 C799 2.559 . S
C523 C759 2.163 . S
C567 C813 1.866 . S
C719 C489 2.298 . S
C834 C60 2.414 . S
C94 C874 2.206 . S
C16 C904 2.567 . S
C679 C864 2.171 . S
C601 C914 1.922 . S
C645 C824 2.326 . S
C684 C853 2.391 . S
C606 C893 2.166 . S
C919 C640 2.560 . S
C55 C879 2.162 . S
C933 C99 1.865 . S
C21 C839 2.299 . S
C954 C294 2.413 . S
C328 C994 2.206 . S
C1024 C250 2.568 . S
C984 C211 2.171 . S
C1034 C133 1.921 . S
C177 C944 2.326 . S
C216 C973 2.392 . S
C138 C1013 2.166 . S
C1039 C172 2.560 . S
C289 C999 2.162 . S
C333 C1053 1.866 . S
C255 C959 2.299 . S
C586 C731 1.538 1_565 S
C771 C625 2.170 1_455 S
C664 C790 1.633 . S
C235 C750 2.161 1_455 S
C274 C811 1.623 . S
C710 C313 1.553 1_565 S
C118 C851 1.551 . S
C157 C891 2.170 . S
C196 C910 1.633 . S
C469 C870 2.160 . S
C931 C508 1.623 . S
C547 C830 1.554 . S
C352 C971 1.551 . S
C391 C1011 2.169 . S
C1030 C430 1.633 . S
C1 C990 2.161 . S
C40 C1051 1.623 . S
C79 C950 1.555 . S
