# Generated by pormake.
# Topology anh, (6,3)-cn, num edge types: 1
# Building blocks:
#     Node 0, Type 0, BuildingBlock: VOLQOD_clean_sbu_1, # of connection points: 6
#     Node 1, Type 0, BuildingBlock: VOLQOD_clean_sbu_1, # of connection points: 6
#     Node 2, Type 0, BuildingBlock: VOLQOD_clean_sbu_1, # of connection points: 6
#     Node 3, Type 1, BuildingBlock: BETDIP_clean_linker_0, # of connection points: 3
#     Node 4, Type 1, BuildingBlock: BETDIP_clean_linker_0, # of connection points: 3
#     Node 5, Type 1, BuildingBlock: BETDIP_clean_linker_0, # of connection points: 3
#     Node 6, Type 1, BuildingBlock: BETDIP_clean_linker_0, # of connection points: 3
#     Node 7, Type 1, BuildingBlock: BETDIP_clean_linker_0, # of connection points: 3
#     Node 8, Type 1, BuildingBlock: BETDIP_clean_linker_0, # of connection points: 3
#     Edge 9, Type (0, 1), BuildingBlock: ZUJKAS_clean_linker_0, # of connection points: 2
#     Edge 10, Type (0, 1), BuildingBlock: ZUJKAS_clean_linker_0, # of connection points: 2
#     Edge 11, Type (0, 1), BuildingBlock: ZUJKAS_clean_linker_0, # of connection points: 2
#     Edge 12, Type (0, 1), BuildingBlock: ZUJKAS_clean_linker_0, # of connection points: 2
#     Edge 13, Type (0, 1), BuildingBlock: ZUJKAS_clean_linker_0, # of connection points: 2
#     Edge 14, Type (0, 1), BuildingBlock: ZUJKAS_clean_linker_0, # of connection points: 2
#     Edge 15, Type (0, 1), BuildingBlock: ZUJKAS_clean_linker_0, # of connection points: 2
#     Edge 16, Type (0, 1), BuildingBlock: ZUJKAS_clean_linker_0, # of connection points: 2
#     Edge 17, Type (0, 1), BuildingBlock: ZUJKAS_clean_linker_0, # of connection points: 2
#     Edge 18, Type (0, 1), BuildingBlock: ZUJKAS_clean_linker_0, # of connection points: 2
#     Edge 19, Type (0, 1), BuildingBlock: ZUJKAS_clean_linker_0, # of connection points: 2
#     Edge 20, Type (0, 1), BuildingBlock: ZUJKAS_clean_linker_0, # of connection points: 2
#     Edge 21, Type (0, 1), BuildingBlock: ZUJKAS_clean_linker_0, # of connection points: 2
#     Edge 22, Type (0, 1), BuildingBlock: ZUJKAS_clean_linker_0, # of connection points: 2
#     Edge 23, Type (0, 1), BuildingBlock: ZUJKAS_clean_linker_0, # of connection points: 2
#     Edge 24, Type (0, 1), BuildingBlock: ZUJKAS_clean_linker_0, # of connection points: 2
#     Edge 25, Type (0, 1), BuildingBlock: ZUJKAS_clean_linker_0, # of connection points: 2
#     Edge 26, Type (0, 1), BuildingBlock: ZUJKAS_clean_linker_0, # of connection points: 2
# Relax obj value: 0.169
# Max RMSD: 0.216
# Mean RMSD: 0.154
data_MOF--net-anh--node1-VOLQOD_clean_sbu_1--node2-BETDIP_clean_linker_0--edge1-ZUJKAS_clean_linker_0
_symmetry_space_group_name_H-M    P1
_symmetry_Int_Tables_number       1
_symmetry_cell_setting            triclinic
loop_
_symmetry_equiv_pos_as_xyz
'x, y, z'
_cell_length_a     37.887639
_cell_length_b     37.76721
_cell_length_c     73.570623
_cell_angle_alpha  93.878799
_cell_angle_beta   89.835986
_cell_angle_gamma 120.18373
loop_
_atom_site_label
_atom_site_type_symbol
_atom_site_fract_x
_atom_site_fract_y
_atom_site_fract_z
_atom_type_partial_charge
O0 O 0.05627 0.6308 0.19644 0.0
Zn1 Zn 0.05812 0.64497 0.17036 0.0
O2 O 0.06299 0.60516 0.15356 0.0
Zn3 Zn 0.01589 0.57677 0.13651 0.0
Zn4 Zn 0.06628 0.56511 0.16765 0.0
Zn5 Zn 0.11203 0.63304 0.13962 0.0
O6 O 0.03208 0.58366 0.11024 0.0
O7 O 0.09847 0.629 0.11297 0.0
O8 O 0.00635 0.64567 0.16484 0.0
O9 O 0.97962 0.60058 0.1407 0.0
O10 O 0.98132 0.51644 0.14081 0.0
O11 O 0.01625 0.50991 0.16318 0.0
O12 O 0.11444 0.55934 0.16114 0.0
O13 O 0.10695 0.7019 0.16897 0.0
O14 O 0.1475 0.60783 0.14206 0.0
O15 O 0.14453 0.69266 0.14801 0.0
C16 C 0.06255 0.60499 0.20398 0.0
C17 C 0.066 0.60717 0.10315 0.0
C18 C 0.98531 0.4947 0.15225 0.0
C19 C 0.97864 0.62657 0.15234 0.0
C20 C 0.14428 0.57853 0.15089 0.0
C21 C 0.13884 0.71586 0.15952 0.0
O22 O 0.069 0.57943 0.19454 0.0
O23 O 0.46576 0.04465 0.45922 0.0
Zn24 Zn 0.44947 0.04281 0.48543 0.0
O25 O 0.48892 0.03991 0.5015 0.0
Zn26 Zn 0.5152 0.08857 0.51846 0.0
Zn27 Zn 0.53032 0.03593 0.48705 0.0
Zn28 Zn 0.46093 0.99229 0.51557 0.0
O29 O 0.51455 0.07443 0.54437 0.0
O30 O 0.47211 0.00711 0.54243 0.0
O31 O 0.446 0.09367 0.49225 0.0
O32 O 0.48714 0.12122 0.51695 0.0
O33 O 0.57368 0.12527 0.51217 0.0
O34 O 0.5855 0.08628 0.49206 0.0
O35 O 0.53337 0.98544 0.49167 0.0
O36 O 0.39304 0.99352 0.48739 0.0
O37 O 0.48139 0.95343 0.50978 0.0
O38 O 0.40065 0.96203 0.51022 0.0
C39 C 0.49351 0.04035 0.45132 0.0
C40 C 0.49516 0.04064 0.55184 0.0
C41 C 0.59775 0.11985 0.50178 0.0
C42 C 0.4617 0.12088 0.50557 0.0
C43 C 0.51073 0.95486 0.50077 0.0
C44 C 0.37819 0.96506 0.49832 0.0
O45 O 0.5189 0.03506 0.46034 0.0
O46 O 0.47375 0.46337 0.79323 0.0
Zn47 Zn 0.45704 0.44634 0.81876 0.0
O48 O 0.49876 0.48508 0.83709 0.0
Zn49 Zn 0.47635 0.51022 0.85401 0.0
Zn50 Zn 0.54409 0.52774 0.82466 0.0
Zn51 Zn 0.51879 0.45671 0.85118 0.0
O52 O 0.48127 0.50007 0.88027 0.0
O53 O 0.50705 0.45878 0.87762 0.0
O54 O 0.40336 0.44452 0.82274 0.0
O55 O 0.41702 0.48642 0.84777 0.0
O56 O 0.50311 0.57131 0.85176 0.0
O57 O 0.54937 0.5825 0.83096 0.0
O58 O 0.59721 0.53231 0.83161 0.0
O59 O 0.4488 0.38913 0.81977 0.0
O60 O 0.57965 0.48149 0.84954 0.0
O61 O 0.49176 0.3977 0.84243 0.0
C62 C 0.50642 0.49168 0.78692 0.0
C63 C 0.49306 0.47774 0.88734 0.0
C64 C 0.53155 0.59551 0.84186 0.0
C65 C 0.39228 0.46177 0.83513 0.0
C66 C 0.60671 0.51175 0.84146 0.0
C67 C 0.46485 0.37492 0.83013 0.0
O68 O 0.53614 0.5175 0.79747 0.0
H69 H 0.5371 0.085 0.20716 0.0
H70 H 0.60537 0.13968 0.25785 0.0
H71 H 0.47767 0.04981 0.2581 0.0
H72 H 0.65879 0.15042 0.24019 0.0
C73 C 0.65118 0.15743 0.2272 0.0
C74 C 0.53804 0.08802 0.22193 0.0
C75 C 0.50275 0.06401 0.2315 0.0
C76 C 0.57527 0.11479 0.23124 0.0
C77 C 0.57708 0.11837 0.25044 0.0
C78 C 0.54177 0.09514 0.2602 0.0
C79 C 0.50484 0.06819 0.25061 0.0
N80 N 0.60987 0.13818 0.22077 0.0
H81 H 0.53976 0.54077 0.54137 0.0
H82 H 0.55935 0.60228 0.59499 0.0
H83 H 0.52185 0.47427 0.58892 0.0
H84 H 0.58497 0.65888 0.5812 0.0
C85 C 0.57703 0.65234 0.56674 0.0
C86 C 0.54021 0.54008 0.55607 0.0
C87 C 0.52976 0.50338 0.56386 0.0
C88 C 0.55172 0.57617 0.56706 0.0
C89 C 0.5516 0.57514 0.58618 0.0
C90 C 0.54121 0.53848 0.59414 0.0
C91 C 0.53076 0.50288 0.58287 0.0
N92 N 0.56196 0.61225 0.55821 0.0
H93 H 0.03643 0.60869 0.85716 0.0
H94 H 0.11531 0.62212 0.90216 0.0
H95 H 0.00822 0.63121 0.91192 0.0
H96 H 0.16286 0.64272 0.87886 0.0
C97 C 0.14388 0.61797 0.86871 0.0
C98 C 0.04412 0.61483 0.87165 0.0
C99 C 0.01849 0.6207 0.88372 0.0
C100 C 0.07947 0.61624 0.87809 0.0
C101 C 0.08899 0.6228 0.89693 0.0
C102 C 0.06358 0.62866 0.90919 0.0
C103 C 0.02875 0.62826 0.90245 0.0
N104 N 0.10272 0.60726 0.86544 0.0
H105 H 0.00899 0.56385 0.4495 0.0
H106 H 0.96825 0.5043 0.39554 0.0
H107 H 0.06745 0.62859 0.40249 0.0
H108 H 0.91472 0.45808 0.40868 0.0
C109 C 0.92139 0.45947 0.42312 0.0
C110 C 0.01137 0.56487 0.43483 0.0
C111 C 0.04172 0.60034 0.42736 0.0
C112 C 0.98432 0.53021 0.42358 0.0
C113 C 0.98788 0.53104 0.40452 0.0
C114 C 0.01808 0.56642 0.39686 0.0
C115 C 0.04472 0.60089 0.40837 0.0
N116 N 0.95482 0.49505 0.43207 0.0
H117 H 0.54807 0.03504 0.79568 0.0
H118 H 0.57107 0.98578 0.74543 0.0
H119 H 0.53871 0.07966 0.74493 0.0
H120 H 0.53678 0.97739 0.80629 0.0
C121 C 0.5547 0.96674 0.7987 0.0
C122 C 0.54953 0.03367 0.78099 0.0
C123 C 0.54223 0.06037 0.77142 0.0
C124 C 0.55963 0.00639 0.77161 0.0
C125 C 0.56314 0.00667 0.75264 0.0
C126 C 0.55622 0.03349 0.74297 0.0
C127 C 0.54563 0.06004 0.75246 0.0
N128 N 0.5666 0.97837 0.78073 0.0
H129 H 0.4722 0.47394 0.13345 0.0
H130 H 0.5341 0.45978 0.08696 0.0
H131 H 0.41687 0.44962 0.07966 0.0
H132 H 0.56336 0.44011 0.10966 0.0
C133 C 0.56993 0.46539 0.11965 0.0
C134 C 0.47253 0.46732 0.1189 0.0
C135 C 0.43996 0.46092 0.10747 0.0
C136 C 0.50603 0.466 0.11172 0.0
C137 C 0.50745 0.45897 0.09278 0.0
C138 C 0.47512 0.45262 0.08116 0.0
C139 C 0.44115 0.45289 0.08864 0.0
N140 N 0.53946 0.47572 0.12368 0.0
H141 H 0.21567 0.61559 0.13271 0.0
H142 H 0.26347 0.59076 0.12733 0.0
H143 H 0.1891 0.48607 0.15792 0.0
H144 H 0.14156 0.511 0.16373 0.0
H145 H 0.27091 0.52049 0.16616 0.0
H146 H 0.24066 0.49429 0.09136 0.0
H147 H 0.25651 0.54596 0.09989 0.0
H148 H 0.20892 0.50418 0.10677 0.0
C149 C 0.20953 0.58736 0.13836 0.0
C150 C 0.17461 0.56509 0.14852 0.0
C151 C 0.23674 0.57311 0.13518 0.0
C152 C 0.22925 0.53615 0.1419 0.0
C153 C 0.19519 0.51452 0.15252 0.0
H154 H 0.35787 0.41224 0.10012 0.0
H155 H 0.30371 0.42573 0.11019 0.0
C156 C 0.16809 0.52885 0.15581 0.0
C157 C 0.25685 0.5199 0.13775 0.0
H158 H 0.29804 0.4913 0.10251 0.0
C159 C 0.27666 0.51378 0.15226 0.0
C160 C 0.26351 0.51033 0.11961 0.0
C161 C 0.24096 0.5136 0.10352 0.0
C162 C 0.3042 0.49971 0.14908 0.0
C163 C 0.31264 0.49243 0.13091 0.0
C164 C 0.29173 0.4972 0.11643 0.0
C165 C 0.34444 0.48183 0.12649 0.0
C166 C 0.32384 0.49264 0.16518 0.0
C167 C 0.38511 0.50878 0.13241 0.0
C168 C 0.41591 0.50106 0.12676 0.0
C169 C 0.40663 0.46652 0.11489 0.0
C170 C 0.3658 0.43916 0.10922 0.0
C171 C 0.33493 0.44676 0.11499 0.0
H172 H 0.30479 0.4865 0.17737 0.0
H173 H 0.329 0.46644 0.16207 0.0
H174 H 0.35381 0.52063 0.16869 0.0
H175 H 0.39328 0.53663 0.14085 0.0
H176 H 0.44723 0.52309 0.13105 0.0
H177 H 0.65595 0.12132 0.47924 0.0
H178 H 0.71848 0.1817 0.47089 0.0
H179 H 0.69614 0.25804 0.50993 0.0
H180 H 0.6331 0.19785 0.51825 0.0
H181 H 0.70494 0.28291 0.47535 0.0
H182 H 0.83209 0.25819 0.49386 0.0
H183 H 0.79133 0.21464 0.48106 0.0
H184 H 0.78213 0.2304 0.50335 0.0
C185 C 0.66475 0.15075 0.4864 0.0
C186 C 0.63924 0.15478 0.49928 0.0
C187 C 0.70074 0.18524 0.48168 0.0
C188 C 0.71208 0.22428 0.48988 0.0
C189 C 0.68795 0.2281 0.5035 0.0
H190 H 0.9263 0.45057 0.45965 0.0
H191 H 0.87663 0.39446 0.47696 0.0
C192 C 0.65193 0.19364 0.50823 0.0
C193 C 0.74568 0.26136 0.48245 0.0
H194 H 0.84607 0.30711 0.47159 0.0
C195 C 0.73594 0.28853 0.47476 0.0
C196 C 0.7861 0.2687 0.48179 0.0
C197 C 0.79869 0.24165 0.49062 0.0
C198 C 0.76517 0.32199 0.4658 0.0
C199 C 0.80498 0.32803 0.46426 0.0
C200 C 0.81529 0.30195 0.47259 0.0
C201 C 0.83591 0.36085 0.45368 0.0
C202 C 0.75313 0.35044 0.45791 0.0
C203 C 0.82968 0.35995 0.43482 0.0
C204 C 0.8579 0.3919 0.42491 0.0
C205 C 0.89279 0.42514 0.43369 0.0
C206 C 0.89952 0.42547 0.45251 0.0
C207 C 0.87129 0.39343 0.46242 0.0
H208 H 0.7253 0.34788 0.46418 0.0
H209 H 0.77828 0.38289 0.45989 0.0
H210 H 0.74653 0.34228 0.44305 0.0
H211 H 0.8028 0.33467 0.42781 0.0
H212 H 0.85222 0.39085 0.4104 0.0
H213 H 0.49389 0.6331 0.85961 0.0
H214 H 0.50545 0.702 0.85564 0.0
H215 H 0.604 0.72469 0.82002 0.0
H216 H 0.59285 0.65616 0.82379 0.0
H217 H 0.5835 0.78723 0.85913 0.0
H218 H 0.5114 0.72959 0.78953 0.0
H219 H 0.50442 0.69559 0.80705 0.0
H220 H 0.55153 0.71963 0.79533 0.0
C221 C 0.51851 0.65299 0.85119 0.0
C222 C 0.54205 0.63889 0.8418 0.0
C223 C 0.52509 0.69232 0.84898 0.0
C224 C 0.55524 0.71798 0.8374 0.0
C225 C 0.58038 0.70503 0.8289 0.0
H226 H 0.59995 0.9336 0.7849 0.0
H227 H 0.60423 0.87634 0.79605 0.0
C228 C 0.57386 0.66582 0.83107 0.0
C229 C 0.55794 0.75659 0.83272 0.0
H230 H 0.53831 0.79993 0.79787 0.0
C231 C 0.57364 0.7902 0.84577 0.0
C232 C 0.54499 0.76002 0.81528 0.0
C233 C 0.52684 0.72428 0.80098 0.0
C234 C 0.57739 0.82771 0.84165 0.0
C235 C 0.56432 0.83108 0.82419 0.0
C236 C 0.54853 0.7973 0.81121 0.0
C237 C 0.56579 0.86893 0.81898 0.0
C238 C 0.596 0.86352 0.85587 0.0
C239 C 0.5431 0.88399 0.8283 0.0
C240 C 0.54072 0.91682 0.82199 0.0
C241 C 0.56051 0.93464 0.80613 0.0
C242 C 0.58412 0.92027 0.79709 0.0
C243 C 0.58669 0.88765 0.80347 0.0
H244 H 0.61472 0.85966 0.86629 0.0
H245 H 0.61546 0.89285 0.84955 0.0
H246 H 0.57119 0.86573 0.86295 0.0
H247 H 0.52599 0.86941 0.84005 0.0
H248 H 0.52228 0.92737 0.82915 0.0
H249 H 0.92798 0.61299 0.12341 0.0
H250 H 0.86003 0.60482 0.12434 0.0
H251 H 0.87742 0.63965 0.18209 0.0
H252 H 0.94599 0.64814 0.18125 0.0
H253 H 0.8105 0.56137 0.17235 0.0
H254 H 0.80711 0.67641 0.13095 0.0
H255 H 0.83317 0.65281 0.11983 0.0
H256 H 0.85384 0.68338 0.14107 0.0
C257 C 0.91786 0.62013 0.13621 0.0
C258 C 0.94207 0.63086 0.15228 0.0
C259 C 0.87915 0.6158 0.1367 0.0
C260 C 0.86389 0.62198 0.15325 0.0
C261 C 0.88892 0.63517 0.16916 0.0
H262 H 0.60158 0.53744 0.14141 0.0
H263 H 0.67178 0.57943 0.15387 0.0
C264 C 0.92803 0.64005 0.16864 0.0
C265 C 0.81981 0.60754 0.15416 0.0
H266 H 0.74339 0.61098 0.13149 0.0
C267 C 0.79578 0.57296 0.16386 0.0
C268 C 0.80071 0.62286 0.14321 0.0
C269 C 0.82512 0.6612 0.13332 0.0
C270 C 0.75314 0.55106 0.16153 0.0
C271 C 0.73436 0.56409 0.14917 0.0
C272 C 0.75804 0.60079 0.14079 0.0
C273 C 0.69122 0.53756 0.14305 0.0
C274 C 0.72865 0.513 0.1716 0.0
C275 C 0.6792 0.50029 0.13283 0.0
C276 C 0.63939 0.47647 0.12557 0.0
C277 C 0.61098 0.4895 0.12849 0.0
C278 C 0.62281 0.52649 0.13904 0.0
C279 C 0.66282 0.55053 0.14615 0.0
H280 H 0.74538 0.51374 0.18413 0.0
H281 H 0.6987 0.50944 0.1754 0.0
H282 H 0.72283 0.48563 0.16263 0.0
H283 H 0.70099 0.49019 0.13004 0.0
H284 H 0.63099 0.44821 0.1174 0.0
H285 H 0.32606 0.94594 0.46897 0.0
H286 H 0.25848 0.88526 0.46371 0.0
H287 H 0.26401 0.85052 0.51785 0.0
H288 H 0.33227 0.91053 0.523 0.0
H289 H 0.24888 0.79048 0.49367 0.0
H290 H 0.14358 0.84605 0.47821 0.0
H291 H 0.18743 0.86942 0.4644 0.0
H292 H 0.19357 0.87945 0.48883 0.0
C293 C 0.3125 0.92596 0.47992 0.0
C294 C 0.33468 0.93275 0.49632 0.0
C295 C 0.27363 0.8914 0.47696 0.0
C296 C 0.25593 0.86352 0.49046 0.0
C297 C 0.27703 0.87167 0.50726 0.0
H298 H 0.02494 0.63633 0.45716 0.0
H299 H 0.07351 0.69822 0.47608 0.0
C300 C 0.31608 0.90591 0.51016 0.0
C301 C 0.21874 0.82313 0.48597 0.0
H302 H 0.12476 0.77776 0.4645 0.0
C303 C 0.22137 0.7877 0.4877 0.0
C304 C 0.18253 0.81924 0.47845 0.0
C305 C 0.17647 0.85562 0.47757 0.0
C306 C 0.19007 0.74896 0.48088 0.0
C307 C 0.15572 0.74572 0.47174 0.0
C308 C 0.15154 0.78051 0.47124 0.0
C309 C 0.12626 0.70756 0.46101 0.0
C310 C 0.1947 0.71201 0.48298 0.0
C311 C 0.13995 0.69271 0.44627 0.0
C312 C 0.11252 0.65759 0.43555 0.0
C313 C 0.07076 0.63677 0.43928 0.0
C314 C 0.05705 0.65157 0.45411 0.0
C315 C 0.08462 0.68693 0.46484 0.0
H316 H 0.21469 0.71693 0.49504 0.0
H317 H 0.16461 0.68395 0.48441 0.0
H318 H 0.20909 0.70674 0.47073 0.0
H319 H 0.17189 0.70865 0.4429 0.0
H320 H 0.12401 0.64671 0.42431 0.0
H321 H 0.46608 0.32618 0.8553 0.0
H322 H 0.4664 0.2619 0.84928 0.0
H323 H 0.44519 0.26389 0.79188 0.0
H324 H 0.44346 0.32759 0.7979 0.0
H325 H 0.408 0.18383 0.80396 0.0
H326 H 0.57174 0.27878 0.82646 0.0
H327 H 0.53611 0.27603 0.84323 0.0
H328 H 0.54015 0.30092 0.82271 0.0
C329 C 0.46039 0.3123 0.84146 0.0
C330 C 0.45548 0.33211 0.827 0.0
C331 C 0.46067 0.27569 0.83805 0.0
C332 C 0.45698 0.25892 0.8201 0.0
C333 C 0.44835 0.2766 0.80583 0.0
H334 H 0.57098 0.14091 0.76628 0.0
H335 H 0.5471 0.18545 0.77991 0.0
C336 C 0.44737 0.31294 0.80927 0.0
C337 C 0.46756 0.22665 0.81591 0.0
H338 H 0.54812 0.21003 0.81648 0.0
C339 C 0.43845 0.18924 0.80685 0.0
C340 C 0.50758 0.23425 0.81952 0.0
C341 C 0.54086 0.27475 0.82836 0.0
C342 C 0.44859 0.15943 0.80094 0.0
C343 C 0.48866 0.16725 0.80447 0.0
C344 C 0.51735 0.20415 0.81396 0.0
C345 C 0.50297 0.13975 0.79675 0.0
C346 C 0.41705 0.12071 0.79026 0.0
C347 C 0.48655 0.09959 0.80201 0.0
C348 C 0.50004 0.07392 0.79415 0.0
C349 C 0.53016 0.08822 0.78097 0.0
C350 C 0.54732 0.12889 0.77619 0.0
C351 C 0.53383 0.15438 0.78401 0.0
H352 H 0.38999 0.12264 0.78601 0.0
H353 H 0.43045 0.11431 0.7779 0.0
H354 H 0.40654 0.09437 0.79883 0.0
H355 H 0.4632 0.08805 0.81207 0.0
H356 H 0.48617 0.04264 0.79801 0.0
H357 H 0.57392 0.94838 0.48569 0.0
H358 H 0.59167 0.89542 0.49028 0.0
H359 H 0.4871 0.83395 0.52372 0.0
H360 H 0.46872 0.88574 0.51897 0.0
H361 H 0.61156 0.87805 0.5226 0.0
H362 H 0.4771 0.73903 0.49105 0.0
H363 H 0.48827 0.79017 0.48686 0.0
H364 H 0.46158 0.76641 0.50685 0.0
C365 C 0.55431 0.92316 0.49375 0.0
C366 C 0.51988 0.92132 0.50195 0.0
C367 C 0.56454 0.893 0.49637 0.0
C368 C 0.54032 0.86042 0.50709 0.0
C369 C 0.50562 0.85819 0.515 0.0
H370 H 0.589 0.72633 0.57998 0.0
H371 H 0.58651 0.77854 0.56297 0.0
C372 C 0.49535 0.88812 0.51237 0.0
C373 C 0.55275 0.8305 0.51149 0.0
H374 H 0.51405 0.72804 0.51484 0.0
C375 C 0.59065 0.84519 0.52056 0.0
C376 C 0.52584 0.78768 0.50851 0.0
C377 C 0.48614 0.76994 0.49759 0.0
C378 C 0.60108 0.81819 0.52789 0.0
C379 C 0.57241 0.77557 0.52645 0.0
C380 C 0.5358 0.76078 0.51623 0.0
C381 C 0.57816 0.746 0.53647 0.0
C382 C 0.64242 0.83572 0.53734 0.0
C383 C 0.57361 0.71006 0.5273 0.0
C384 C 0.5742 0.67988 0.53705 0.0
C385 C 0.57941 0.68523 0.55614 0.0
C386 C 0.58516 0.72166 0.56526 0.0
C387 C 0.58412 0.75164 0.55553 0.0
H388 H 0.66524 0.86474 0.53161 0.0
H389 H 0.64008 0.84294 0.55201 0.0
H390 H 0.65374 0.81368 0.53613 0.0
H391 H 0.56875 0.70498 0.51263 0.0
H392 H 0.56992 0.65216 0.52963 0.0
H393 H 0.63888 0.47199 0.85887 0.0
H394 H 0.71107 0.49514 0.86453 0.0
H395 H 0.74512 0.60353 0.83618 0.0
H396 H 0.67313 0.58033 0.83009 0.0
H397 H 0.79107 0.56813 0.82684 0.0
H398 H 0.78535 0.58763 0.90196 0.0
H399 H 0.74885 0.53694 0.89256 0.0
H400 H 0.7445 0.58015 0.88674 0.0
C401 C 0.6617 0.50071 0.8538 0.0
C402 C 0.65024 0.52446 0.84416 0.0
C403 C 0.70291 0.51399 0.85714 0.0
C404 C 0.7333 0.55144 0.8511 0.0
C405 C 0.72205 0.57467 0.84105 0.0
H406 H 0.98543 0.66907 0.8927 0.0
H407 H 0.91782 0.65665 0.88338 0.0
C408 C 0.68088 0.56132 0.8376 0.0
C409 C 0.77688 0.5664 0.85526 0.0
H410 H 0.84552 0.59053 0.89041 0.0
C411 C 0.80312 0.57334 0.84073 0.0
C412 C 0.79259 0.57399 0.8734 0.0
C413 C 0.76647 0.56972 0.88957 0.0
C414 C 0.8445 0.58636 0.84387 0.0
C415 C 0.85966 0.59171 0.86199 0.0
C416 C 0.83371 0.58608 0.87652 0.0
C417 C 0.9018 0.60137 0.86626 0.0
C418 C 0.87159 0.59443 0.82777 0.0
C419 C 0.91506 0.57445 0.85969 0.0
C420 C 0.95355 0.58154 0.86493 0.0
C421 C 0.97925 0.61543 0.87701 0.0
C422 C 0.96612 0.64265 0.88342 0.0
C423 C 0.92767 0.63566 0.87808 0.0
H424 H 0.8592 0.60177 0.81583 0.0
H425 H 0.90306 0.6202 0.83116 0.0
H426 H 0.87324 0.56647 0.82373 0.0
H427 H 0.89513 0.54718 0.85098 0.0
H428 H 0.96254 0.5596 0.86007 0.0
H429 H 0.20096 0.7612 0.13732 0.0
H430 H 0.26127 0.82844 0.1451 0.0
H431 H 0.21234 0.83475 0.19744 0.0
H432 H 0.15133 0.76804 0.18957 0.0
H433 H 0.25478 0.91096 0.18261 0.0
H434 H 0.34422 0.83072 0.18096 0.0
H435 H 0.31762 0.82574 0.15994 0.0
H436 H 0.28917 0.80334 0.17971 0.0
C437 C 0.20272 0.77722 0.15037 0.0
C438 C 0.17177 0.75904 0.16298 0.0
C439 C 0.23721 0.81557 0.15479 0.0
C440 C 0.24164 0.83598 0.172 0.0
C441 C 0.20953 0.81931 0.18411 0.0
H442 H 0.45087 0.98582 0.24025 0.0
H443 H 0.38754 0.93423 0.22435 0.0
C444 C 0.17474 0.78117 0.17961 0.0
C445 C 0.28116 0.87233 0.17818 0.0
H446 H 0.38019 0.9017 0.18882 0.0
C447 C 0.28236 0.90919 0.18383 0.0
C448 C 0.31688 0.86958 0.17993 0.0
C449 C 0.31704 0.83017 0.17498 0.0
C450 C 0.31827 0.94322 0.19155 0.0
C451 C 0.35381 0.94025 0.19339 0.0
C452 C 0.35285 0.9038 0.18728 0.0
C453 C 0.39133 0.97294 0.20316 0.0
C454 C 0.31747 0.98136 0.19841 0.0
C455 C 0.41446 0.01183 0.19648 0.0
C456 C 0.45063 0.04171 0.2057 0.0
C457 C 0.46418 0.03298 0.22168 0.0
C458 C 0.44089 0.99385 0.22821 0.0
C459 C 0.40485 0.96421 0.21906 0.0
H460 H 0.28585 0.97596 0.19897 0.0
H461 H 0.33231 0.99252 0.21222 0.0
H462 H 0.33477 0.006 0.18914 0.0
H463 H 0.40484 0.01889 0.18405 0.0
H464 H 0.46787 0.07164 0.20039 0.0
H465 H 0.46536 0.16585 0.53661 0.0
H466 H 0.46005 0.2277 0.53931 0.0
H467 H 0.4336 0.21503 0.48148 0.0
H468 H 0.43831 0.15233 0.47868 0.0
H469 H 0.50403 0.29216 0.4962 0.0
H470 H 0.36438 0.25191 0.53451 0.0
H471 H 0.39444 0.23213 0.54358 0.0
H472 H 0.37133 0.21412 0.52104 0.0
C473 C 0.45754 0.17569 0.52452 0.0
C474 C 0.45246 0.15447 0.50743 0.0
C475 C 0.45419 0.21082 0.52611 0.0
C476 C 0.44601 0.22557 0.51062 0.0
C477 C 0.43945 0.20372 0.4936 0.0
H478 H 0.47129 0.46943 0.53638 0.0
H479 H 0.4468 0.40305 0.51873 0.0
C480 C 0.44214 0.16802 0.49204 0.0
C481 C 0.45018 0.26665 0.51222 0.0
H482 H 0.41866 0.32317 0.53814 0.0
C483 C 0.48466 0.29895 0.50488 0.0
C484 C 0.42473 0.27529 0.52346 0.0
C485 C 0.38639 0.24147 0.53097 0.0
C486 C 0.49648 0.33996 0.50994 0.0
C487 C 0.47315 0.34854 0.52257 0.0
C488 C 0.4366 0.31632 0.52855 0.0
C489 C 0.4894 0.38981 0.53186 0.0
C490 C 0.53518 0.37387 0.50271 0.0
C491 C 0.52129 0.4039 0.54499 0.0
C492 C 0.53489 0.44123 0.55515 0.0
C493 C 0.51701 0.46519 0.55222 0.0
C494 C 0.48573 0.45154 0.53874 0.0
C495 C 0.47169 0.41378 0.52872 0.0
H496 H 0.54416 0.36314 0.49004 0.0
H497 H 0.53149 0.40038 0.4999 0.0
H498 H 0.56034 0.3847 0.51312 0.0
H499 H 0.53496 0.38545 0.54767 0.0
H500 H 0.55915 0.45123 0.56541 0.0
H501 H 0.34943 0.46978 0.86309 0.0
H502 H 0.28942 0.47718 0.86086 0.0
H503 H 0.2829 0.452 0.80251 0.0
H504 H 0.34335 0.44437 0.80467 0.0
H505 H 0.29107 0.52765 0.81356 0.0
H506 H 0.1665 0.40625 0.85028 0.0
H507 H 0.21408 0.42857 0.86304 0.0
H508 H 0.20831 0.40121 0.8412 0.0
C509 C 0.33452 0.46458 0.84983 0.0
C510 C 0.3512 0.45685 0.83404 0.0
C511 C 0.29996 0.46843 0.84859 0.0
C512 C 0.28149 0.46474 0.83154 0.0
C513 C 0.29652 0.4545 0.81581 0.0
H514 H 0.10348 0.54806 0.84558 0.0
H515 H 0.13169 0.50735 0.83156 0.0
C516 C 0.33096 0.45011 0.81707 0.0
C517 C 0.25173 0.47892 0.83024 0.0
H518 H 0.16918 0.47257 0.85175 0.0
C519 C 0.26364 0.51488 0.82142 0.0
C520 C 0.21577 0.46203 0.8403 0.0
C521 C 0.2002 0.42211 0.84907 0.0
C522 C 0.24281 0.53662 0.82396 0.0
C523 C 0.20959 0.52209 0.83569 0.0
C524 C 0.19514 0.48399 0.84298 0.0
C525 C 0.19308 0.54832 0.84251 0.0
C526 C 0.25783 0.5761 0.81486 0.0
C527 C 0.21836 0.58471 0.85331 0.0
C528 C 0.20235 0.6078 0.86143 0.0
C529 C 0.16086 0.5949 0.85886 0.0
C530 C 0.1357 0.55889 0.84772 0.0
C531 C 0.15169 0.53559 0.8397 0.0
H532 H 0.27406 0.57623 0.80223 0.0
H533 H 0.23218 0.58103 0.81139 0.0
H534 H 0.27968 0.60225 0.8243 0.0
H535 H 0.25023 0.59455 0.85594 0.0
H536 H 0.22223 0.6353 0.87004 0.0
H537 H 0.91129 0.4522 0.13341 0.0
H538 H 0.85223 0.38688 0.14066 0.0
H539 H 0.9234 0.377 0.18357 0.0
H540 H 0.98264 0.44134 0.1762 0.0
H541 H 0.87135 0.30204 0.16499 0.0
H542 H 0.78993 0.3856 0.1861 0.0
H543 H 0.80541 0.38986 0.16288 0.0
H544 H 0.84345 0.41194 0.18115 0.0
C545 C 0.91459 0.43575 0.14417 0.0
C546 C 0.95154 0.45238 0.15441 0.0
C547 C 0.88074 0.39857 0.14836 0.0
C548 C 0.88323 0.37768 0.16294 0.0
C549 C 0.92076 0.39279 0.17235 0.0
H550 H 0.73264 0.19528 0.23477 0.0
H551 H 0.7881 0.24517 0.21699 0.0
C552 C 0.9546 0.42971 0.16812 0.0
C553 C 0.84636 0.34193 0.16947 0.0
H554 H 0.75606 0.31488 0.18981 0.0
C555 C 0.84594 0.30468 0.17027 0.0
C556 C 0.8134 0.34561 0.17645 0.0
C557 C 0.81301 0.38544 0.17679 0.0
C558 C 0.81361 0.27112 0.17808 0.0
C559 C 0.7812 0.27518 0.18541 0.0
C560 C 0.781 0.31195 0.18412 0.0
C561 C 0.7481 0.24255 0.19533 0.0
C562 C 0.81447 0.23169 0.17854 0.0
C563 C 0.70734 0.22502 0.18914 0.0
C564 C 0.67571 0.19674 0.19929 0.0
C565 C 0.6844 0.18584 0.21591 0.0
C566 C 0.72523 0.2031 0.22199 0.0
C567 C 0.75687 0.2313 0.21179 0.0
H568 H 0.8351 0.22977 0.16825 0.0
H569 H 0.82585 0.23034 0.19221 0.0
H570 H 0.78338 0.20456 0.17604 0.0
H571 H 0.69999 0.23363 0.17655 0.0
H572 H 0.64453 0.18403 0.19425 0.0
H573 H 0.12722 0.66583 0.08426 0.0
H574 H 0.12938 0.67235 0.05145 0.0
H575 H 0.01202 0.56131 0.04392 0.0
H576 H 0.00894 0.55531 0.07685 0.0
H577 H 0.12983 0.6242 0.02359 0.0
H578 H 0.99219 0.63874 0.01678 0.0
H579 H 0.01515 0.64137 0.03864 0.0
H580 H 0.98153 0.59236 0.02663 0.0
C581 C 0.10178 0.64279 0.07565 0.0
C582 C 0.06774 0.61019 0.08319 0.0
C583 C 0.10309 0.64658 0.05688 0.0
C584 C 0.07054 0.61777 0.04525 0.0
C585 C 0.03697 0.58457 0.05268 0.0
H586 H 0.07827 0.57799 0.92839 0.0
H587 H 0.08293 0.57771 0.9615 0.0
C588 C 0.03538 0.58102 0.07149 0.0
C589 C 0.07213 0.62229 0.02535 0.0
H590 H 0.01965 0.62807 0.98915 0.0
C591 C 0.10586 0.6253 0.01607 0.0
C592 C 0.04125 0.62453 0.01561 0.0
C593 C 0.00572 0.62453 0.02495 0.0
C594 C 0.10918 0.62968 0.99725 0.0
C595 C 0.07729 0.62983 0.98736 0.0
C596 C 0.04394 0.6276 0.99671 0.0
C597 C 0.07739 0.63168 0.96728 0.0
C598 C 0.14717 0.63481 0.98826 0.0
C599 C 0.07203 0.66167 0.95948 0.0
C600 C 0.06872 0.66146 0.94056 0.0
C601 C 0.07099 0.63142 0.92911 0.0
C602 C 0.07724 0.60197 0.93691 0.0
C603 C 0.08002 0.60187 0.95583 0.0
H604 H 0.17345 0.64744 -0.00178 0.0
H605 H 0.14149 0.60436 0.98256 0.0
H606 H 0.15574 0.65549 0.977 0.0
H607 H 0.06978 0.68488 0.96806 0.0
H608 H 0.0639 0.68448 0.93487 0.0
H609 H 0.55114 0.03633 0.4302 0.0
H610 H 0.56276 0.0491 0.39804 0.0
H611 H 0.45879 0.06636 0.39515 0.0
H612 H 0.44714 0.05421 0.42742 0.0
H613 H 0.51187 0.00869 0.36733 0.0
H614 H 0.55106 0.17175 0.37595 0.0
H615 H 0.54888 0.14295 0.39495 0.0
H616 H 0.50263 0.13635 0.38482 0.0
C617 C 0.53057 0.04267 0.42275 0.0
C618 C 0.49835 0.04454 0.43146 0.0
C619 C 0.53733 0.05001 0.40436 0.0
C620 C 0.51216 0.0595 0.39435 0.0
C621 C 0.47916 0.06004 0.40278 0.0
H622 H 0.48845 0.10188 0.28314 0.0
H623 H 0.48478 0.09558 0.31605 0.0
C624 C 0.47236 0.05276 0.42119 0.0
C625 C 0.52034 0.06855 0.37503 0.0
H626 H 0.5424 0.1424 0.3455 0.0
C627 C 0.51886 0.03801 0.36255 0.0
C628 C 0.52961 0.10692 0.36891 0.0
C629 C 0.53355 0.14156 0.38186 0.0
C630 C 0.52518 0.04436 0.34397 0.0
C631 C 0.53387 0.08252 0.33782 0.0
C632 C 0.53584 0.11324 0.35032 0.0
C633 C 0.53877 0.09018 0.31828 0.0
C634 C 0.52126 0.00977 0.33099 0.0
C635 C 0.57115 0.09059 0.30878 0.0
C636 C 0.5733 0.09415 0.28996 0.0
C637 C 0.54305 0.09729 0.28039 0.0
C638 C 0.51185 0.09893 0.29013 0.0
C639 C 0.5098 0.0955 0.30892 0.0
H640 H 0.50642 0.97992 0.3373 0.0
H641 H 0.50326 0.00661 0.31848 0.0
H642 H 0.55214 0.01662 0.32687 0.0
H643 H 0.59416 0.08715 0.31586 0.0
H644 H 0.59758 0.09266 0.28278 0.0
H645 H 0.57521 0.53785 0.76821 0.0
H646 H 0.58044 0.54613 0.73553 0.0
H647 H 0.45052 0.46375 0.72787 0.0
H648 H 0.44515 0.45429 0.76055 0.0
H649 H 0.49173 0.44749 0.70223 0.0
H650 H 0.54791 0.61455 0.7081 0.0
H651 H 0.57977 0.60168 0.72074 0.0
H652 H 0.52781 0.58321 0.72714 0.0
C653 C 0.5477 0.52148 0.75959 0.0
C654 C 0.5097 0.4956 0.76701 0.0
C655 C 0.55072 0.52651 0.74092 0.0
C656 C 0.51573 0.50637 0.72932 0.0
C657 C 0.47787 0.47985 0.73661 0.0
H658 H 0.5047 0.56731 0.61814 0.0
H659 H 0.49778 0.55925 0.65095 0.0
C660 C 0.47487 0.47445 0.75528 0.0
C661 C 0.5188 0.51233 0.70953 0.0
H662 H 0.55269 0.58579 0.67893 0.0
C663 C 0.50483 0.4777 0.69713 0.0
C664 C 0.53525 0.55171 0.70287 0.0
C665 C 0.54813 0.58985 0.7154 0.0
C666 C 0.50767 0.48142 0.67826 0.0
C667 C 0.52605 0.52099 0.67164 0.0
C668 C 0.53916 0.55554 0.68403 0.0
C669 C 0.53158 0.52715 0.65192 0.0
C670 C 0.49026 0.44282 0.66561 0.0
C671 C 0.55378 0.51276 0.64168 0.0
C672 C 0.55753 0.51711 0.62296 0.0
C673 C 0.53975 0.53658 0.6142 0.0
C674 C 0.5189 0.5524 0.62458 0.0
C675 C 0.51481 0.54767 0.64329 0.0
H676 H 0.46689 0.41564 0.67233 0.0
H677 H 0.47613 0.44591 0.65306 0.0
H678 H 0.51518 0.43689 0.6616 0.0
H679 H 0.56805 0.49795 0.64815 0.0
H680 H 0.57426 0.50517 0.61531 0.0
H681 H 0.54139 0.10571 0.57658 0.0
H682 H 0.55487 0.10332 0.60884 0.0
H683 H 0.47668 0.97164 0.60415 0.0
H684 H 0.46312 0.9735 0.5719 0.0
H685 H 0.49703 0.0703 0.63691 0.0
H686 H 0.58585 0.99044 0.62629 0.0
H687 H 0.57622 0.01534 0.60841 0.0
H688 H 0.53676 0.96595 0.61457 0.0
C689 C 0.52695 0.07622 0.5824 0.0
C690 C 0.50134 0.03977 0.57162 0.0
C691 C 0.53476 0.07494 0.60081 0.0
C692 C 0.51736 0.03724 0.60871 0.0
C693 C 0.49104 0.00094 0.59816 0.0
H694 H 0.51975 0.96684 0.7182 0.0
H695 H 0.51276 0.96753 0.68509 0.0
C696 C 0.48311 0.00215 0.57976 0.0
C697 C 0.52611 0.03599 0.62813 0.0
H698 H 0.56976 9e-05 0.65674 0.0
C699 C 0.51309 0.05515 0.64127 0.0
C700 C 0.5469 0.01598 0.63368 0.0
C701 C 0.56259 0.996 0.62003 0.0
C702 C 0.51978 0.05434 0.65992 0.0
C703 C 0.54084 0.03459 0.6655 0.0
C704 C 0.55376 0.01529 0.65236 0.0
C705 C 0.54943 0.03367 0.68498 0.0
C706 C 0.50345 0.07387 0.6735 0.0
C707 C 0.57381 0.07046 0.69564 0.0
C708 C 0.57778 0.07013 0.71445 0.0
C709 C 0.55774 0.03295 0.72287 0.0
C710 C 0.53563 0.99586 0.71202 0.0
C711 C 0.53148 0.99624 0.69316 0.0
H712 H 0.47945 0.0783 0.66721 0.0
H713 H 0.4905 0.05487 0.68527 0.0
H714 H 0.52878 0.10448 0.67872 0.0
H715 H 0.58866 0.09955 0.68948 0.0
H716 H 0.59548 0.09908 0.72251 0.0
H717 H 0.49572 0.41851 0.90548 0.0
H718 H 0.49069 0.41028 0.93816 0.0
H719 H 0.48065 0.51896 0.94688 0.0
H720 H 0.48413 0.52654 0.91405 0.0
H721 H 0.53904 0.45803 0.96568 0.0
H722 H 0.3858 0.43985 0.97474 0.0
H723 H 0.40558 0.43846 0.95254 0.0
H724 H 0.42033 0.48689 0.96498 0.0
C725 C 0.49222 0.44058 0.91433 0.0
C726 C 0.49012 0.47309 0.90717 0.0
C727 C 0.48935 0.43581 0.93302 0.0
C728 C 0.4846 0.46358 0.94495 0.0
C729 C 0.48313 0.49647 0.93789 0.0
H730 H 0.53865 0.5038 0.06109 0.0
H731 H 0.54122 0.50393 0.02791 0.0
C732 C 0.48541 0.50094 0.91913 0.0
C733 C 0.48251 0.45867 0.96483 0.0
H734 H 0.42563 0.45151 0.00191 0.0
C735 C 0.51408 0.4563 0.97358 0.0
C736 C 0.44957 0.45564 0.97508 0.0
C737 C 0.4132 0.45489 0.96632 0.0
C738 C 0.51404 0.4518 0.99235 0.0
C739 C 0.48222 0.451 0.00277 0.0
C740 C 0.45023 0.45252 0.99395 0.0
C741 C 0.48176 0.44937 0.02286 0.0
C742 C 0.54776 0.4473 0.00072 0.0
C743 C 0.44718 0.41914 0.0311 0.0
C744 C 0.44541 0.41943 0.05008 0.0
C745 C 0.47832 0.4498 0.06113 0.0
C746 C 0.51322 0.47954 0.05287 0.0
C747 C 0.51475 0.47957 0.03391 0.0
H748 H 0.56104 0.43484 0.99044 0.0
H749 H 0.57264 0.47795 0.00617 0.0
H750 H 0.53661 0.42675 0.01206 0.0
H751 H 0.4213 0.39564 0.02284 0.0
H752 H 0.41815 0.39622 0.05614 0.0
H753 H 0.08302 0.56071 0.22511 0.0
H754 H 0.07525 0.55428 0.25788 0.0
H755 H 0.0282 0.63736 0.26094 0.0
H756 H 0.03671 0.64478 0.2282 0.0
H757 H 0.08295 0.65392 0.28869 0.0
H758 H 0.96746 0.4878 0.28224 0.0
H759 H 0.01392 0.49967 0.2711 0.0
H760 H 0.98254 0.51905 0.26305 0.0
C761 C 0.07111 0.57774 0.23274 0.0
C762 C 0.0602 0.60305 0.224 0.0
C763 C 0.06642 0.57377 0.25145 0.0
C764 C 0.05024 0.59457 0.26174 0.0
C765 C 0.04043 0.62077 0.25319 0.0
H766 H 0.95721 0.54168 0.37084 0.0
H767 H 0.96459 0.54861 0.33795 0.0
C768 C 0.04537 0.62501 0.23449 0.0
C769 C 0.04384 0.58923 0.28146 0.0
H770 H -0.00459 0.51703 0.3121 0.0
C771 C 0.06368 0.62404 0.29382 0.0
C772 C 0.01812 0.55028 0.28808 0.0
C773 C -0.00606 0.51212 0.27543 0.0
C774 C 0.05919 0.62085 0.31267 0.0
C775 C 0.03494 0.58165 0.31932 0.0
C776 C 0.01439 0.54696 0.30695 0.0
C777 C 0.03038 0.57607 0.33908 0.0
C778 C 0.07995 0.65959 0.32524 0.0
C779 C 0.06478 0.5882 0.35049 0.0
C780 C 0.06065 0.58438 0.36922 0.0
C781 C 0.02196 0.56788 0.37685 0.0
C782 C 0.98735 0.55433 0.36531 0.0
C783 C 0.99155 0.55842 0.34657 0.0
H784 H 0.08721 0.68718 0.31796 0.0
H785 H 0.06056 0.6579 0.33687 0.0
H786 H 0.1091 0.66368 0.33076 0.0
H787 H 0.09488 0.6008 0.34492 0.0
H788 H 0.08775 0.59439 0.37777 0.0
loop_
_geom_bond_atom_site_label_1
_geom_bond_atom_site_label_2
_geom_bond_distance
_geom_bond_site_symmetry_2
_ccdc_geom_bond_type
O0 Zn1 1.953 . S
O0 C16 1.225 . S
Zn1 O0 1.953 . S
Zn1 O2 1.949 . S
Zn1 O8 1.919 . S
Zn1 O13 1.924 . S
O2 Zn1 1.949 . S
O2 Zn3 1.923 . S
O2 Zn4 1.950 . S
O2 Zn5 1.945 . S
Zn3 O2 1.923 . S
Zn3 O6 1.933 . S
Zn3 O9 1.941 1_455 S
Zn3 O10 1.965 1_455 S
Zn4 O2 1.950 . S
Zn4 O11 1.938 . S
Zn4 O12 1.906 . S
Zn4 O22 1.953 . S
Zn5 O2 1.945 . S
Zn5 O7 1.932 . S
Zn5 O14 1.977 . S
Zn5 O15 1.910 . S
O6 Zn3 1.933 . S
O6 C17 1.226 . S
O7 Zn5 1.932 . S
O7 C17 1.307 . S
O8 Zn1 1.919 . S
O8 C19 1.253 1_455 S
O9 Zn3 1.941 1_655 S
O9 C19 1.283 . S
O10 Zn3 1.965 1_655 S
O10 C18 1.303 . S
O11 Zn4 1.938 . S
O11 C18 1.247 1_455 S
O12 Zn4 1.906 . S
O12 C20 1.304 . S
O13 Zn1 1.924 . S
O13 C21 1.311 . S
O14 Zn5 1.977 . S
O14 C20 1.272 . S
O15 Zn5 1.910 . S
O15 C21 1.231 . S
C16 O0 1.225 . S
C16 O22 1.298 . S
C17 O6 1.226 . S
C17 O7 1.307 . S
C18 O10 1.303 . S
C18 O11 1.247 1_655 S
C19 O8 1.253 1_655 S
C19 O9 1.283 . S
C20 O12 1.304 . S
C20 O14 1.272 . S
C21 O13 1.311 . S
C21 O15 1.231 . S
O22 Zn4 1.953 . S
O22 C16 1.298 . S
O23 Zn24 1.953 . S
O23 C39 1.225 . S
Zn24 O23 1.953 . S
Zn24 O25 1.949 . S
Zn24 O31 1.919 . S
Zn24 O36 1.924 . S
O25 Zn24 1.949 . S
O25 Zn26 1.923 . S
O25 Zn27 1.950 . S
O25 Zn28 1.945 . S
Zn26 O25 1.923 . S
Zn26 O29 1.933 . S
Zn26 O32 1.941 . S
Zn26 O33 1.965 . S
Zn27 O25 1.950 . S
Zn27 O34 1.938 . S
Zn27 O35 1.906 1_545 S
Zn27 O45 1.953 . S
Zn28 O25 1.945 . S
Zn28 O30 1.932 . S
Zn28 O37 1.977 1_545 S
Zn28 O38 1.910 1_545 S
O29 Zn26 1.933 . S
O29 C40 1.226 . S
O30 Zn28 1.932 . S
O30 C40 1.307 . S
O31 Zn24 1.919 . S
O31 C42 1.253 . S
O32 Zn26 1.941 . S
O32 C42 1.283 . S
O33 Zn26 1.965 . S
O33 C41 1.303 . S
O34 Zn27 1.938 . S
O34 C41 1.247 . S
O35 Zn27 1.906 1_565 S
O35 C43 1.304 . S
O36 Zn24 1.924 . S
O36 C44 1.311 1_545 S
O37 Zn28 1.977 1_565 S
O37 C43 1.272 . S
O38 Zn28 1.910 1_565 S
O38 C44 1.231 . S
C39 O23 1.225 . S
C39 O45 1.298 . S
C40 O29 1.226 . S
C40 O30 1.307 . S
C41 O33 1.303 . S
C41 O34 1.247 . S
C42 O31 1.253 . S
C42 O32 1.283 . S
C43 O35 1.304 . S
C43 O37 1.272 . S
C44 O36 1.311 1_565 S
C44 O38 1.231 . S
O45 Zn27 1.953 . S
O45 C39 1.298 . S
O46 Zn47 1.953 . S
O46 C62 1.225 . S
Zn47 O46 1.953 . S
Zn47 O48 1.949 . S
Zn47 O54 1.919 . S
Zn47 O59 1.924 . S
O48 Zn47 1.949 . S
O48 Zn49 1.923 . S
O48 Zn50 1.950 . S
O48 Zn51 1.945 . S
Zn49 O48 1.923 . S
Zn49 O52 1.933 . S
Zn49 O55 1.941 . S
Zn49 O56 1.965 . S
Zn50 O48 1.950 . S
Zn50 O57 1.938 . S
Zn50 O58 1.906 . S
Zn50 O68 1.953 . S
Zn51 O48 1.945 . S
Zn51 O53 1.932 . S
Zn51 O60 1.977 . S
Zn51 O61 1.910 . S
O52 Zn49 1.933 . S
O52 C63 1.226 . S
O53 Zn51 1.932 . S
O53 C63 1.307 . S
O54 Zn47 1.919 . S
O54 C65 1.253 . S
O55 Zn49 1.941 . S
O55 C65 1.283 . S
O56 Zn49 1.965 . S
O56 C64 1.303 . S
O57 Zn50 1.938 . S
O57 C64 1.247 . S
O58 Zn50 1.906 . S
O58 C66 1.304 . S
O59 Zn47 1.924 . S
O59 C67 1.311 . S
O60 Zn51 1.977 . S
O60 C66 1.272 . S
O61 Zn51 1.910 . S
O61 C67 1.231 . S
C62 O46 1.225 . S
C62 O68 1.298 . S
C63 O52 1.226 . S
C63 O53 1.307 . S
C64 O56 1.303 . S
C64 O57 1.247 . S
C65 O54 1.253 . S
C65 O55 1.283 . S
C66 O58 1.304 . S
C66 O60 1.272 . S
C67 O59 1.311 . S
C67 O61 1.231 . S
O68 Zn50 1.953 . S
O68 C62 1.298 . S
H69 C74 0.930 . S
H70 C77 0.930 . S
H71 C79 0.930 . S
H72 C73 1.016 . S
C73 H72 1.016 . S
C73 N80 1.286 . S
C74 H69 0.930 . S
C74 C75 1.397 . S
C74 C76 1.361 . S
C75 C74 1.397 . S
C75 C79 1.390 . S
C76 C74 1.361 . S
C76 C77 1.393 . S
C76 N80 1.413 . S
C77 H70 0.930 . S
C77 C76 1.393 . S
C77 C78 1.399 . S
C78 C77 1.399 . S
C78 C79 1.381 . S
C79 H71 0.930 . S
C79 C75 1.390 . S
C79 C78 1.381 . S
N80 C73 1.286 . S
N80 C76 1.413 . S
H81 C86 0.930 . S
H82 C89 0.930 . S
H83 C91 0.930 . S
H84 C85 1.016 . S
C85 H84 1.016 . S
C85 N92 1.286 . S
C86 H81 0.930 . S
C86 C87 1.397 . S
C86 C88 1.361 . S
C87 C86 1.397 . S
C87 C91 1.390 . S
C88 C86 1.361 . S
C88 C89 1.393 . S
C88 N92 1.413 . S
C89 H82 0.930 . S
C89 C88 1.393 . S
C89 C90 1.399 . S
C90 C89 1.399 . S
C90 C91 1.381 . S
C91 H83 0.930 . S
C91 C87 1.390 . S
C91 C90 1.381 . S
N92 C85 1.286 . S
N92 C88 1.413 . S
H93 C98 0.930 . S
H94 C101 0.930 . S
H95 C103 0.930 1_655 S
H96 C97 1.016 . S
C97 H96 1.016 . S
C97 N104 1.286 . S
C98 H93 0.930 . S
C98 C99 1.397 1_455 S
C98 C100 1.361 . S
C99 C98 1.397 1_655 S
C99 C103 1.390 1_655 S
C100 C98 1.361 . S
C100 C101 1.393 . S
C100 N104 1.413 . S
C101 H94 0.930 . S
C101 C100 1.393 . S
C101 C102 1.399 . S
C102 C101 1.399 . S
C102 C103 1.381 . S
C103 H95 0.930 1_455 S
C103 C99 1.390 1_455 S
C103 C102 1.381 . S
N104 C97 1.286 . S
N104 C100 1.413 . S
H105 C110 0.930 . S
H106 C113 0.938 . S
H107 C115 0.930 . S
H108 C109 1.016 . S
C109 H108 1.016 . S
C109 N116 1.286 . S
C110 H105 0.930 . S
C110 C111 1.397 . S
C110 C112 1.361 . S
C111 C110 1.397 . S
C111 C115 1.390 . S
C112 C110 1.361 . S
C112 C113 1.392 1_455 S
C112 N116 1.413 1_455 S
C113 H106 0.938 . S
C113 C112 1.392 1_655 S
C113 C114 1.393 1_655 S
C114 C113 1.393 1_455 S
C114 C115 1.381 . S
C115 H107 0.930 . S
C115 C111 1.390 . S
C115 C114 1.381 . S
N116 C109 1.286 . S
N116 C112 1.413 1_655 S
H117 C122 0.930 . S
H118 C125 0.930 1_565 S
H119 C127 0.930 . S
H120 C121 1.016 . S
C121 H120 1.016 . S
C121 N128 1.286 . S
C122 H117 0.930 . S
C122 C123 1.397 . S
C122 C124 1.361 . S
C123 C122 1.397 . S
C123 C127 1.390 . S
C124 C122 1.361 . S
C124 C125 1.393 . S
C124 N128 1.413 1_545 S
C125 H118 0.930 1_545 S
C125 C124 1.393 . S
C125 C126 1.399 . S
C126 C125 1.399 . S
C126 C127 1.381 . S
C127 H119 0.930 . S
C127 C123 1.390 . S
C127 C126 1.381 . S
N128 C121 1.286 . S
N128 C124 1.413 1_565 S
H129 C134 0.930 . S
H130 C137 0.930 . S
H131 C139 0.930 . S
H132 C133 1.016 . S
C133 H132 1.016 . S
C133 N140 1.286 . S
C134 H129 0.930 . S
C134 C135 1.397 . S
C134 C136 1.361 . S
C135 C134 1.397 . S
C135 C139 1.390 . S
C136 C134 1.361 . S
C136 C137 1.393 . S
C136 N140 1.413 . S
C137 H130 0.930 . S
C137 C136 1.393 . S
C137 C138 1.399 . S
C138 C137 1.399 . S
C138 C139 1.381 . S
C139 H131 0.930 . S
C139 C135 1.390 . S
C139 C138 1.381 . S
N140 C133 1.286 . S
N140 C136 1.413 . S
H141 C149 0.929 . S
H142 C151 0.930 . S
H143 C153 0.930 . S
H144 C156 0.929 . S
H145 C159 0.930 . S
H146 C161 0.960 . S
H147 C161 0.960 . S
H148 C161 0.960 . S
C149 H141 0.929 . S
C149 C150 1.377 . S
C149 C151 1.384 . S
C150 C149 1.377 . S
C150 C156 1.390 . S
C151 H142 0.930 . S
C151 C149 1.384 . S
C151 C152 1.372 . S
C152 C151 1.372 . S
C152 C153 1.400 . S
C152 C157 1.490 . S
C153 H143 0.930 . S
C153 C152 1.400 . S
C153 C156 1.386 . S
H154 C170 0.930 . S
H155 C171 0.931 . S
C156 H144 0.929 . S
C156 C150 1.390 . S
C156 C153 1.386 . S
C157 C152 1.490 . S
C157 C159 1.395 . S
C157 C160 1.403 . S
H158 C164 0.930 . S
C159 H145 0.930 . S
C159 C157 1.395 . S
C159 C162 1.403 . S
C160 C157 1.403 . S
C160 C161 1.524 . S
C160 C164 1.400 . S
C161 H146 0.960 . S
C161 H147 0.960 . S
C161 H148 0.960 . S
C161 C160 1.524 . S
C162 C159 1.403 . S
C162 C163 1.392 . S
C162 C166 1.495 . S
C163 C162 1.392 . S
C163 C164 1.385 . S
C163 C165 1.478 . S
C164 H158 0.930 . S
C164 C160 1.400 . S
C164 C163 1.385 . S
C165 C163 1.478 . S
C165 C167 1.381 . S
C165 C171 1.383 . S
C166 C162 1.495 . S
C166 H172 0.959 . S
C166 H173 0.961 . S
C166 H174 0.960 . S
C167 C165 1.381 . S
C167 C168 1.394 . S
C167 H175 0.930 . S
C168 C167 1.394 . S
C168 C169 1.383 . S
C168 H176 0.929 . S
C169 C168 1.383 . S
C169 C170 1.377 . S
C170 H154 0.930 . S
C170 C169 1.377 . S
C170 C171 1.379 . S
C171 H155 0.931 . S
C171 C165 1.383 . S
C171 C170 1.379 . S
H172 C166 0.959 . S
H173 C166 0.961 . S
H174 C166 0.960 . S
H175 C167 0.930 . S
H176 C168 0.929 . S
H177 C185 0.929 . S
H178 C187 0.930 . S
H179 C189 0.930 . S
H180 C192 0.929 . S
H181 C195 0.930 . S
H182 C197 0.960 . S
H183 C197 0.960 . S
H184 C197 0.960 . S
C185 H177 0.929 . S
C185 C186 1.377 . S
C185 C187 1.384 . S
C186 C185 1.377 . S
C186 C192 1.390 . S
C187 H178 0.930 . S
C187 C185 1.384 . S
C187 C188 1.372 . S
C188 C187 1.372 . S
C188 C189 1.400 . S
C188 C193 1.490 . S
C189 H179 0.930 . S
C189 C188 1.400 . S
C189 C192 1.386 . S
H190 C206 0.930 . S
H191 C207 0.931 . S
C192 H180 0.929 . S
C192 C186 1.390 . S
C192 C189 1.386 . S
C193 C188 1.490 . S
C193 C195 1.395 . S
C193 C196 1.403 . S
H194 C200 0.930 . S
C195 H181 0.930 . S
C195 C193 1.395 . S
C195 C198 1.403 . S
C196 C193 1.403 . S
C196 C197 1.524 . S
C196 C200 1.400 . S
C197 H182 0.960 . S
C197 H183 0.960 . S
C197 H184 0.960 . S
C197 C196 1.524 . S
C198 C195 1.403 . S
C198 C199 1.392 . S
C198 C202 1.495 . S
C199 C198 1.392 . S
C199 C200 1.385 . S
C199 C201 1.478 . S
C200 H194 0.930 . S
C200 C196 1.400 . S
C200 C199 1.385 . S
C201 C199 1.478 . S
C201 C203 1.381 . S
C201 C207 1.383 . S
C202 C198 1.495 . S
C202 H208 0.959 . S
C202 H209 0.961 . S
C202 H210 0.960 . S
C203 C201 1.381 . S
C203 C204 1.394 . S
C203 H211 0.930 . S
C204 C203 1.394 . S
C204 C205 1.383 . S
C204 H212 0.929 . S
C205 C204 1.383 . S
C205 C206 1.377 . S
C206 H190 0.930 . S
C206 C205 1.377 . S
C206 C207 1.379 . S
C207 H191 0.931 . S
C207 C201 1.383 . S
C207 C206 1.379 . S
H208 C202 0.959 . S
H209 C202 0.961 . S
H210 C202 0.960 . S
H211 C203 0.930 . S
H212 C204 0.929 . S
H213 C221 0.929 . S
H214 C223 0.930 . S
H215 C225 0.930 . S
H216 C228 0.929 . S
H217 C231 0.930 . S
H218 C233 0.960 . S
H219 C233 0.960 . S
H220 C233 0.960 . S
C221 H213 0.929 . S
C221 C222 1.377 . S
C221 C223 1.384 . S
C222 C221 1.377 . S
C222 C228 1.390 . S
C223 H214 0.930 . S
C223 C221 1.384 . S
C223 C224 1.372 . S
C224 C223 1.372 . S
C224 C225 1.400 . S
C224 C229 1.490 . S
C225 H215 0.930 . S
C225 C224 1.400 . S
C225 C228 1.386 . S
H226 C242 0.930 . S
H227 C243 0.931 . S
C228 H216 0.929 . S
C228 C222 1.390 . S
C228 C225 1.386 . S
C229 C224 1.490 . S
C229 C231 1.395 . S
C229 C232 1.403 . S
H230 C236 0.930 . S
C231 H217 0.930 . S
C231 C229 1.395 . S
C231 C234 1.403 . S
C232 C229 1.403 . S
C232 C233 1.524 . S
C232 C236 1.400 . S
C233 H218 0.960 . S
C233 H219 0.960 . S
C233 H220 0.960 . S
C233 C232 1.524 . S
C234 C231 1.403 . S
C234 C235 1.392 . S
C234 C238 1.495 . S
C235 C234 1.392 . S
C235 C236 1.385 . S
C235 C237 1.478 . S
C236 H230 0.930 . S
C236 C232 1.400 . S
C236 C235 1.385 . S
C237 C235 1.478 . S
C237 C239 1.381 . S
C237 C243 1.383 . S
C238 C234 1.495 . S
C238 H244 0.959 . S
C238 H245 0.961 . S
C238 H246 0.960 . S
C239 C237 1.381 . S
C239 C240 1.394 . S
C239 H247 0.930 . S
C240 C239 1.394 . S
C240 C241 1.383 . S
C240 H248 0.929 . S
C241 C240 1.383 . S
C241 C242 1.377 . S
C242 H226 0.930 . S
C242 C241 1.377 . S
C242 C243 1.379 . S
C243 H227 0.931 . S
C243 C237 1.383 . S
C243 C242 1.379 . S
H244 C238 0.959 . S
H245 C238 0.961 . S
H246 C238 0.960 . S
H247 C239 0.930 . S
H248 C240 0.929 . S
H249 C257 0.929 . S
H250 C259 0.930 . S
H251 C261 0.930 . S
H252 C264 0.929 . S
H253 C267 0.930 . S
H254 C269 0.960 . S
H255 C269 0.960 . S
H256 C269 0.960 . S
C257 H249 0.929 . S
C257 C258 1.377 . S
C257 C259 1.384 . S
C258 C257 1.377 . S
C258 C264 1.390 . S
C259 H250 0.930 . S
C259 C257 1.384 . S
C259 C260 1.372 . S
C260 C259 1.372 . S
C260 C261 1.400 . S
C260 C265 1.490 . S
C261 H251 0.930 . S
C261 C260 1.400 . S
C261 C264 1.386 . S
H262 C278 0.930 . S
H263 C279 0.931 . S
C264 H252 0.929 . S
C264 C258 1.390 . S
C264 C261 1.386 . S
C265 C260 1.490 . S
C265 C267 1.395 . S
C265 C268 1.403 . S
H266 C272 0.930 . S
C267 H253 0.930 . S
C267 C265 1.395 . S
C267 C270 1.403 . S
C268 C265 1.403 . S
C268 C269 1.524 . S
C268 C272 1.400 . S
C269 H254 0.960 . S
C269 H255 0.960 . S
C269 H256 0.960 . S
C269 C268 1.524 . S
C270 C267 1.403 . S
C270 C271 1.392 . S
C270 C274 1.495 . S
C271 C270 1.392 . S
C271 C272 1.385 . S
C271 C273 1.478 . S
C272 H266 0.930 . S
C272 C268 1.400 . S
C272 C271 1.385 . S
C273 C271 1.478 . S
C273 C275 1.381 . S
C273 C279 1.383 . S
C274 C270 1.495 . S
C274 H280 0.959 . S
C274 H281 0.961 . S
C274 H282 0.960 . S
C275 C273 1.381 . S
C275 C276 1.394 . S
C275 H283 0.930 . S
C276 C275 1.394 . S
C276 C277 1.383 . S
C276 H284 0.929 . S
C277 C276 1.383 . S
C277 C278 1.377 . S
C278 H262 0.930 . S
C278 C277 1.377 . S
C278 C279 1.379 . S
C279 H263 0.931 . S
C279 C273 1.383 . S
C279 C278 1.379 . S
H280 C274 0.959 . S
H281 C274 0.961 . S
H282 C274 0.960 . S
H283 C275 0.930 . S
H284 C276 0.929 . S
H285 C293 0.929 . S
H286 C295 0.930 . S
H287 C297 0.930 . S
H288 C300 0.929 . S
H289 C303 0.930 . S
H290 C305 0.960 . S
H291 C305 0.960 . S
H292 C305 0.960 . S
C293 H285 0.929 . S
C293 C294 1.377 . S
C293 C295 1.384 . S
C294 C293 1.377 . S
C294 C300 1.390 . S
C295 H286 0.930 . S
C295 C293 1.384 . S
C295 C296 1.372 . S
C296 C295 1.372 . S
C296 C297 1.400 . S
C296 C301 1.490 . S
C297 H287 0.930 . S
C297 C296 1.400 . S
C297 C300 1.386 . S
H298 C314 0.930 . S
H299 C315 0.931 . S
C300 H288 0.929 . S
C300 C294 1.390 . S
C300 C297 1.386 . S
C301 C296 1.490 . S
C301 C303 1.395 . S
C301 C304 1.403 . S
H302 C308 0.930 . S
C303 H289 0.930 . S
C303 C301 1.395 . S
C303 C306 1.403 . S
C304 C301 1.403 . S
C304 C305 1.524 . S
C304 C308 1.400 . S
C305 H290 0.960 . S
C305 H291 0.960 . S
C305 H292 0.960 . S
C305 C304 1.524 . S
C306 C303 1.403 . S
C306 C307 1.392 . S
C306 C310 1.495 . S
C307 C306 1.392 . S
C307 C308 1.385 . S
C307 C309 1.478 . S
C308 H302 0.930 . S
C308 C304 1.400 . S
C308 C307 1.385 . S
C309 C307 1.478 . S
C309 C311 1.381 . S
C309 C315 1.383 . S
C310 C306 1.495 . S
C310 H316 0.959 . S
C310 H317 0.961 . S
C310 H318 0.960 . S
C311 C309 1.381 . S
C311 C312 1.394 . S
C311 H319 0.930 . S
C312 C311 1.394 . S
C312 C313 1.383 . S
C312 H320 0.929 . S
C313 C312 1.383 . S
C313 C314 1.377 . S
C314 H298 0.930 . S
C314 C313 1.377 . S
C314 C315 1.379 . S
C315 H299 0.931 . S
C315 C309 1.383 . S
C315 C314 1.379 . S
H316 C310 0.959 . S
H317 C310 0.961 . S
H318 C310 0.960 . S
H319 C311 0.930 . S
H320 C312 0.929 . S
H321 C329 0.929 . S
H322 C331 0.930 . S
H323 C333 0.930 . S
H324 C336 0.929 . S
H325 C339 0.930 . S
H326 C341 0.960 . S
H327 C341 0.960 . S
H328 C341 0.960 . S
C329 H321 0.929 . S
C329 C330 1.377 . S
C329 C331 1.384 . S
C330 C329 1.377 . S
C330 C336 1.390 . S
C331 H322 0.930 . S
C331 C329 1.384 . S
C331 C332 1.372 . S
C332 C331 1.372 . S
C332 C333 1.400 . S
C332 C337 1.490 . S
C333 H323 0.930 . S
C333 C332 1.400 . S
C333 C336 1.386 . S
H334 C350 0.930 . S
H335 C351 0.931 . S
C336 H324 0.929 . S
C336 C330 1.390 . S
C336 C333 1.386 . S
C337 C332 1.490 . S
C337 C339 1.395 . S
C337 C340 1.403 . S
H338 C344 0.930 . S
C339 H325 0.930 . S
C339 C337 1.395 . S
C339 C342 1.403 . S
C340 C337 1.403 . S
C340 C341 1.524 . S
C340 C344 1.400 . S
C341 H326 0.960 . S
C341 H327 0.960 . S
C341 H328 0.960 . S
C341 C340 1.524 . S
C342 C339 1.403 . S
C342 C343 1.392 . S
C342 C346 1.495 . S
C343 C342 1.392 . S
C343 C344 1.385 . S
C343 C345 1.478 . S
C344 H338 0.930 . S
C344 C340 1.400 . S
C344 C343 1.385 . S
C345 C343 1.478 . S
C345 C347 1.381 . S
C345 C351 1.383 . S
C346 C342 1.495 . S
C346 H352 0.959 . S
C346 H353 0.961 . S
C346 H354 0.960 . S
C347 C345 1.381 . S
C347 C348 1.394 . S
C347 H355 0.930 . S
C348 C347 1.394 . S
C348 C349 1.383 . S
C348 H356 0.929 . S
C349 C348 1.383 . S
C349 C350 1.377 . S
C350 H334 0.930 . S
C350 C349 1.377 . S
C350 C351 1.379 . S
C351 H335 0.931 . S
C351 C345 1.383 . S
C351 C350 1.379 . S
H352 C346 0.959 . S
H353 C346 0.961 . S
H354 C346 0.960 . S
H355 C347 0.930 . S
H356 C348 0.929 . S
H357 C365 0.929 . S
H358 C367 0.930 . S
H359 C369 0.930 . S
H360 C372 0.929 . S
H361 C375 0.930 . S
H362 C377 0.960 . S
H363 C377 0.960 . S
H364 C377 0.960 . S
C365 H357 0.929 . S
C365 C366 1.377 . S
C365 C367 1.384 . S
C366 C365 1.377 . S
C366 C372 1.390 . S
C367 H358 0.930 . S
C367 C365 1.384 . S
C367 C368 1.372 . S
C368 C367 1.372 . S
C368 C369 1.400 . S
C368 C373 1.490 . S
C369 H359 0.930 . S
C369 C368 1.400 . S
C369 C372 1.386 . S
H370 C386 0.930 . S
H371 C387 0.931 . S
C372 H360 0.929 . S
C372 C366 1.390 . S
C372 C369 1.386 . S
C373 C368 1.490 . S
C373 C375 1.395 . S
C373 C376 1.403 . S
H374 C380 0.930 . S
C375 H361 0.930 . S
C375 C373 1.395 . S
C375 C378 1.403 . S
C376 C373 1.403 . S
C376 C377 1.524 . S
C376 C380 1.400 . S
C377 H362 0.960 . S
C377 H363 0.960 . S
C377 H364 0.960 . S
C377 C376 1.524 . S
C378 C375 1.403 . S
C378 C379 1.392 . S
C378 C382 1.495 . S
C379 C378 1.392 . S
C379 C380 1.385 . S
C379 C381 1.478 . S
C380 H374 0.930 . S
C380 C376 1.400 . S
C380 C379 1.385 . S
C381 C379 1.478 . S
C381 C383 1.381 . S
C381 C387 1.383 . S
C382 C378 1.495 . S
C382 H388 0.959 . S
C382 H389 0.961 . S
C382 H390 0.960 . S
C383 C381 1.381 . S
C383 C384 1.394 . S
C383 H391 0.930 . S
C384 C383 1.394 . S
C384 C385 1.383 . S
C384 H392 0.929 . S
C385 C384 1.383 . S
C385 C386 1.377 . S
C386 H370 0.930 . S
C386 C385 1.377 . S
C386 C387 1.379 . S
C387 H371 0.931 . S
C387 C381 1.383 . S
C387 C386 1.379 . S
H388 C382 0.959 . S
H389 C382 0.961 . S
H390 C382 0.960 . S
H391 C383 0.930 . S
H392 C384 0.929 . S
H393 C401 0.929 . S
H394 C403 0.930 . S
H395 C405 0.930 . S
H396 C408 0.929 . S
H397 C411 0.930 . S
H398 C413 0.960 . S
H399 C413 0.960 . S
H400 C413 0.960 . S
C401 H393 0.929 . S
C401 C402 1.377 . S
C401 C403 1.384 . S
C402 C401 1.377 . S
C402 C408 1.390 . S
C403 H394 0.930 . S
C403 C401 1.384 . S
C403 C404 1.372 . S
C404 C403 1.372 . S
C404 C405 1.400 . S
C404 C409 1.490 . S
C405 H395 0.930 . S
C405 C404 1.400 . S
C405 C408 1.386 . S
H406 C422 0.930 . S
H407 C423 0.931 . S
C408 H396 0.929 . S
C408 C402 1.390 . S
C408 C405 1.386 . S
C409 C404 1.490 . S
C409 C411 1.395 . S
C409 C412 1.403 . S
H410 C416 0.930 . S
C411 H397 0.930 . S
C411 C409 1.395 . S
C411 C414 1.403 . S
C412 C409 1.403 . S
C412 C413 1.524 . S
C412 C416 1.400 . S
C413 H398 0.960 . S
C413 H399 0.960 . S
C413 H400 0.960 . S
C413 C412 1.524 . S
C414 C411 1.403 . S
C414 C415 1.392 . S
C414 C418 1.495 . S
C415 C414 1.392 . S
C415 C416 1.385 . S
C415 C417 1.478 . S
C416 H410 0.930 . S
C416 C412 1.400 . S
C416 C415 1.385 . S
C417 C415 1.478 . S
C417 C419 1.381 . S
C417 C423 1.383 . S
C418 C414 1.495 . S
C418 H424 0.959 . S
C418 H425 0.961 . S
C418 H426 0.960 . S
C419 C417 1.381 . S
C419 C420 1.394 . S
C419 H427 0.930 . S
C420 C419 1.394 . S
C420 C421 1.383 . S
C420 H428 0.929 . S
C421 C420 1.383 . S
C421 C422 1.377 . S
C422 H406 0.930 . S
C422 C421 1.377 . S
C422 C423 1.379 . S
C423 H407 0.931 . S
C423 C417 1.383 . S
C423 C422 1.379 . S
H424 C418 0.959 . S
H425 C418 0.961 . S
H426 C418 0.960 . S
H427 C419 0.930 . S
H428 C420 0.929 . S
H429 C437 0.929 . S
H430 C439 0.930 . S
H431 C441 0.930 . S
H432 C444 0.929 . S
H433 C447 0.930 . S
H434 C449 0.960 . S
H435 C449 0.960 . S
H436 C449 0.960 . S
C437 H429 0.929 . S
C437 C438 1.377 . S
C437 C439 1.384 . S
C438 C437 1.377 . S
C438 C444 1.390 . S
C439 H430 0.930 . S
C439 C437 1.384 . S
C439 C440 1.372 . S
C440 C439 1.372 . S
C440 C441 1.400 . S
C440 C445 1.490 . S
C441 H431 0.930 . S
C441 C440 1.400 . S
C441 C444 1.386 . S
H442 C458 0.930 . S
H443 C459 0.931 . S
C444 H432 0.929 . S
C444 C438 1.390 . S
C444 C441 1.386 . S
C445 C440 1.490 . S
C445 C447 1.395 . S
C445 C448 1.403 . S
H446 C452 0.930 . S
C447 H433 0.930 . S
C447 C445 1.395 . S
C447 C450 1.403 . S
C448 C445 1.403 . S
C448 C449 1.524 . S
C448 C452 1.400 . S
C449 H434 0.960 . S
C449 H435 0.960 . S
C449 H436 0.960 . S
C449 C448 1.524 . S
C450 C447 1.403 . S
C450 C451 1.392 . S
C450 C454 1.495 . S
C451 C450 1.392 . S
C451 C452 1.385 . S
C451 C453 1.478 . S
C452 H446 0.930 . S
C452 C448 1.400 . S
C452 C451 1.385 . S
C453 C451 1.478 . S
C453 C455 1.381 . S
C453 C459 1.383 . S
C454 C450 1.495 . S
C454 H460 0.959 . S
C454 H461 0.961 . S
C454 H462 0.960 . S
C455 C453 1.381 . S
C455 C456 1.386 1_565 S
C455 H463 0.930 . S
C456 C455 1.386 1_545 S
C456 C457 1.375 . S
C456 H464 0.949 . S
C457 C456 1.375 . S
C457 C458 1.374 1_545 S
C458 H442 0.930 . S
C458 C457 1.374 1_565 S
C458 C459 1.379 . S
C459 H443 0.931 . S
C459 C453 1.383 . S
C459 C458 1.379 . S
H460 C454 0.959 . S
H461 C454 0.961 . S
H462 C454 0.960 . S
H463 C455 0.930 . S
H464 C456 0.949 . S
H465 C473 0.929 . S
H466 C475 0.930 . S
H467 C477 0.930 . S
H468 C480 0.929 . S
H469 C483 0.930 . S
H470 C485 0.960 . S
H471 C485 0.960 . S
H472 C485 0.960 . S
C473 H465 0.929 . S
C473 C474 1.377 . S
C473 C475 1.384 . S
C474 C473 1.377 . S
C474 C480 1.390 . S
C475 H466 0.930 . S
C475 C473 1.384 . S
C475 C476 1.372 . S
C476 C475 1.372 . S
C476 C477 1.400 . S
C476 C481 1.490 . S
C477 H467 0.930 . S
C477 C476 1.400 . S
C477 C480 1.386 . S
H478 C494 0.930 . S
H479 C495 0.931 . S
C480 H468 0.929 . S
C480 C474 1.390 . S
C480 C477 1.386 . S
C481 C476 1.490 . S
C481 C483 1.395 . S
C481 C484 1.403 . S
H482 C488 0.930 . S
C483 H469 0.930 . S
C483 C481 1.395 . S
C483 C486 1.403 . S
C484 C481 1.403 . S
C484 C485 1.524 . S
C484 C488 1.400 . S
C485 H470 0.960 . S
C485 H471 0.960 . S
C485 H472 0.960 . S
C485 C484 1.524 . S
C486 C483 1.403 . S
C486 C487 1.392 . S
C486 C490 1.495 . S
C487 C486 1.392 . S
C487 C488 1.385 . S
C487 C489 1.478 . S
C488 H482 0.930 . S
C488 C484 1.400 . S
C488 C487 1.385 . S
C489 C487 1.478 . S
C489 C491 1.381 . S
C489 C495 1.383 . S
C490 C486 1.495 . S
C490 H496 0.959 . S
C490 H497 0.961 . S
C490 H498 0.960 . S
C491 C489 1.381 . S
C491 C492 1.394 . S
C491 H499 0.930 . S
C492 C491 1.394 . S
C492 C493 1.383 . S
C492 H500 0.929 . S
C493 C492 1.383 . S
C493 C494 1.377 . S
C494 H478 0.930 . S
C494 C493 1.377 . S
C494 C495 1.379 . S
C495 H479 0.931 . S
C495 C489 1.383 . S
C495 C494 1.379 . S
H496 C490 0.959 . S
H497 C490 0.961 . S
H498 C490 0.960 . S
H499 C491 0.930 . S
H500 C492 0.929 . S
H501 C509 0.929 . S
H502 C511 0.930 . S
H503 C513 0.930 . S
H504 C516 0.929 . S
H505 C519 0.930 . S
H506 C521 0.960 . S
H507 C521 0.960 . S
H508 C521 0.960 . S
C509 H501 0.929 . S
C509 C510 1.377 . S
C509 C511 1.384 . S
C510 C509 1.377 . S
C510 C516 1.390 . S
C511 H502 0.930 . S
C511 C509 1.384 . S
C511 C512 1.372 . S
C512 C511 1.372 . S
C512 C513 1.400 . S
C512 C517 1.490 . S
C513 H503 0.930 . S
C513 C512 1.400 . S
C513 C516 1.386 . S
H514 C530 0.930 . S
H515 C531 0.931 . S
C516 H504 0.929 . S
C516 C510 1.390 . S
C516 C513 1.386 . S
C517 C512 1.490 . S
C517 C519 1.395 . S
C517 C520 1.403 . S
H518 C524 0.930 . S
C519 H505 0.930 . S
C519 C517 1.395 . S
C519 C522 1.403 . S
C520 C517 1.403 . S
C520 C521 1.524 . S
C520 C524 1.400 . S
C521 H506 0.960 . S
C521 H507 0.960 . S
C521 H508 0.960 . S
C521 C520 1.524 . S
C522 C519 1.403 . S
C522 C523 1.392 . S
C522 C526 1.495 . S
C523 C522 1.392 . S
C523 C524 1.385 . S
C523 C525 1.478 . S
C524 H518 0.930 . S
C524 C520 1.400 . S
C524 C523 1.385 . S
C525 C523 1.478 . S
C525 C527 1.381 . S
C525 C531 1.383 . S
C526 C522 1.495 . S
C526 H532 0.959 . S
C526 H533 0.961 . S
C526 H534 0.960 . S
C527 C525 1.381 . S
C527 C528 1.394 . S
C527 H535 0.930 . S
C528 C527 1.394 . S
C528 C529 1.383 . S
C528 H536 0.929 . S
C529 C528 1.383 . S
C529 C530 1.377 . S
C530 H514 0.930 . S
C530 C529 1.377 . S
C530 C531 1.379 . S
C531 H515 0.931 . S
C531 C525 1.383 . S
C531 C530 1.379 . S
H532 C526 0.959 . S
H533 C526 0.961 . S
H534 C526 0.960 . S
H535 C527 0.930 . S
H536 C528 0.929 . S
H537 C545 0.929 . S
H538 C547 0.930 . S
H539 C549 0.930 . S
H540 C552 0.929 . S
H541 C555 0.930 . S
H542 C557 0.960 . S
H543 C557 0.960 . S
H544 C557 0.960 . S
C545 H537 0.929 . S
C545 C546 1.377 . S
C545 C547 1.384 . S
C546 C545 1.377 . S
C546 C552 1.390 . S
C547 H538 0.930 . S
C547 C545 1.384 . S
C547 C548 1.372 . S
C548 C547 1.372 . S
C548 C549 1.400 . S
C548 C553 1.490 . S
C549 H539 0.930 . S
C549 C548 1.400 . S
C549 C552 1.386 . S
H550 C566 0.930 . S
H551 C567 0.931 . S
C552 H540 0.929 . S
C552 C546 1.390 . S
C552 C549 1.386 . S
C553 C548 1.490 . S
C553 C555 1.395 . S
C553 C556 1.403 . S
H554 C560 0.930 . S
C555 H541 0.930 . S
C555 C553 1.395 . S
C555 C558 1.403 . S
C556 C553 1.403 . S
C556 C557 1.524 . S
C556 C560 1.400 . S
C557 H542 0.960 . S
C557 H543 0.960 . S
C557 H544 0.960 . S
C557 C556 1.524 . S
C558 C555 1.403 . S
C558 C559 1.392 . S
C558 C562 1.495 . S
C559 C558 1.392 . S
C559 C560 1.385 . S
C559 C561 1.478 . S
C560 H554 0.930 . S
C560 C556 1.400 . S
C560 C559 1.385 . S
C561 C559 1.478 . S
C561 C563 1.381 . S
C561 C567 1.383 . S
C562 C558 1.495 . S
C562 H568 0.959 . S
C562 H569 0.961 . S
C562 H570 0.960 . S
C563 C561 1.381 . S
C563 C564 1.394 . S
C563 H571 0.930 . S
C564 C563 1.394 . S
C564 C565 1.383 . S
C564 H572 0.929 . S
C565 C564 1.383 . S
C565 C566 1.377 . S
C566 H550 0.930 . S
C566 C565 1.377 . S
C566 C567 1.379 . S
C567 H551 0.931 . S
C567 C561 1.383 . S
C567 C566 1.379 . S
H568 C562 0.959 . S
H569 C562 0.961 . S
H570 C562 0.960 . S
H571 C563 0.930 . S
H572 C564 0.929 . S
H573 C581 0.929 . S
H574 C583 0.930 . S
H575 C585 0.930 . S
H576 C588 0.929 . S
H577 C591 0.930 . S
H578 C593 0.960 . S
H579 C593 0.960 1_655 S
H580 C593 0.960 . S
C581 H573 0.929 . S
C581 C582 1.377 . S
C581 C583 1.384 . S
C582 C581 1.377 . S
C582 C588 1.390 . S
C583 H574 0.930 . S
C583 C581 1.384 . S
C583 C584 1.372 . S
C584 C583 1.372 . S
C584 C585 1.400 . S
C584 C589 1.490 . S
C585 H575 0.930 . S
C585 C584 1.400 . S
C585 C588 1.386 . S
H586 C602 0.930 . S
H587 C603 0.931 . S
C588 H576 0.929 . S
C588 C582 1.390 . S
C588 C585 1.386 . S
C589 C584 1.490 . S
C589 C591 1.395 . S
C589 C592 1.403 . S
H590 C596 0.930 . S
C591 H577 0.930 . S
C591 C589 1.395 . S
C591 C594 1.403 . S
C592 C589 1.403 . S
C592 C593 1.524 . S
C592 C596 1.400 . S
C593 H578 0.960 . S
C593 H579 0.960 1_455 S
C593 H580 0.960 . S
C593 C592 1.524 . S
C594 C591 1.403 . S
C594 C595 1.410 . S
C594 C598 1.495 . S
C595 C594 1.410 . S
C595 C596 1.404 . S
C595 C597 1.442 1_554 S
C596 H590 0.930 . S
C596 C592 1.400 . S
C596 C595 1.404 . S
C597 C595 1.442 1_556 S
C597 C599 1.381 . S
C597 C603 1.383 . S
C598 C594 1.495 . S
C598 H604 0.959 . S
C598 H605 0.961 1_554 S
C598 H606 0.960 1_554 S
C599 C597 1.381 . S
C599 C600 1.394 . S
C599 H607 0.930 . S
C600 C599 1.394 . S
C600 C601 1.383 . S
C600 H608 0.929 . S
C601 C600 1.383 . S
C601 C602 1.377 . S
C602 H586 0.930 . S
C602 C601 1.377 . S
C602 C603 1.379 . S
C603 H587 0.931 . S
C603 C597 1.383 . S
C603 C602 1.379 . S
H604 C598 0.959 . S
H605 C598 0.961 1_556 S
H606 C598 0.960 1_556 S
H607 C599 0.930 . S
H608 C600 0.929 . S
H609 C617 0.929 . S
H610 C619 0.930 . S
H611 C621 0.930 . S
H612 C624 0.929 . S
H613 C627 0.930 . S
H614 C629 0.960 . S
H615 C629 0.960 . S
H616 C629 0.960 . S
C617 H609 0.929 . S
C617 C618 1.377 . S
C617 C619 1.384 . S
C618 C617 1.377 . S
C618 C624 1.390 . S
C619 H610 0.930 . S
C619 C617 1.384 . S
C619 C620 1.372 . S
C620 C619 1.372 . S
C620 C621 1.400 . S
C620 C625 1.490 . S
C621 H611 0.930 . S
C621 C620 1.400 . S
C621 C624 1.386 . S
H622 C638 0.930 . S
H623 C639 0.931 . S
C624 H612 0.929 . S
C624 C618 1.390 . S
C624 C621 1.386 . S
C625 C620 1.490 . S
C625 C627 1.395 . S
C625 C628 1.403 . S
H626 C632 0.930 . S
C627 H613 0.930 . S
C627 C625 1.395 . S
C627 C630 1.403 . S
C628 C625 1.403 . S
C628 C629 1.524 . S
C628 C632 1.400 . S
C629 H614 0.960 . S
C629 H615 0.960 . S
C629 H616 0.960 . S
C629 C628 1.524 . S
C630 C627 1.403 . S
C630 C631 1.392 . S
C630 C634 1.495 1_545 S
C631 C630 1.392 . S
C631 C632 1.385 . S
C631 C633 1.478 . S
C632 H626 0.930 . S
C632 C628 1.400 . S
C632 C631 1.385 . S
C633 C631 1.478 . S
C633 C635 1.381 . S
C633 C639 1.383 . S
C634 C630 1.495 1_565 S
C634 H640 0.959 . S
C634 H641 0.961 . S
C634 H642 0.959 . S
C635 C633 1.381 . S
C635 C636 1.394 . S
C635 H643 0.930 . S
C636 C635 1.394 . S
C636 C637 1.383 . S
C636 H644 0.929 . S
C637 C636 1.383 . S
C637 C638 1.377 . S
C638 H622 0.930 . S
C638 C637 1.377 . S
C638 C639 1.379 . S
C639 H623 0.931 . S
C639 C633 1.383 . S
C639 C638 1.379 . S
H640 C634 0.959 . S
H641 C634 0.961 . S
H642 C634 0.959 . S
H643 C635 0.930 . S
H644 C636 0.929 . S
H645 C653 0.929 . S
H646 C655 0.930 . S
H647 C657 0.930 . S
H648 C660 0.929 . S
H649 C663 0.930 . S
H650 C665 0.960 . S
H651 C665 0.960 . S
H652 C665 0.960 . S
C653 H645 0.929 . S
C653 C654 1.377 . S
C653 C655 1.384 . S
C654 C653 1.377 . S
C654 C660 1.390 . S
C655 H646 0.930 . S
C655 C653 1.384 . S
C655 C656 1.372 . S
C656 C655 1.372 . S
C656 C657 1.400 . S
C656 C661 1.490 . S
C657 H647 0.930 . S
C657 C656 1.400 . S
C657 C660 1.386 . S
H658 C674 0.930 . S
H659 C675 0.931 . S
C660 H648 0.929 . S
C660 C654 1.390 . S
C660 C657 1.386 . S
C661 C656 1.490 . S
C661 C663 1.395 . S
C661 C664 1.403 . S
H662 C668 0.930 . S
C663 H649 0.930 . S
C663 C661 1.395 . S
C663 C666 1.403 . S
C664 C661 1.403 . S
C664 C665 1.524 . S
C664 C668 1.400 . S
C665 H650 0.960 . S
C665 H651 0.960 . S
C665 H652 0.960 . S
C665 C664 1.524 . S
C666 C663 1.403 . S
C666 C667 1.392 . S
C666 C670 1.495 . S
C667 C666 1.392 . S
C667 C668 1.385 . S
C667 C669 1.478 . S
C668 H662 0.930 . S
C668 C664 1.400 . S
C668 C667 1.385 . S
C669 C667 1.478 . S
C669 C671 1.381 . S
C669 C675 1.383 . S
C670 C666 1.495 . S
C670 H676 0.959 . S
C670 H677 0.961 . S
C670 H678 0.960 . S
C671 C669 1.381 . S
C671 C672 1.394 . S
C671 H679 0.930 . S
C672 C671 1.394 . S
C672 C673 1.383 . S
C672 H680 0.929 . S
C673 C672 1.383 . S
C673 C674 1.377 . S
C674 H658 0.930 . S
C674 C673 1.377 . S
C674 C675 1.379 . S
C675 H659 0.931 . S
C675 C669 1.383 . S
C675 C674 1.379 . S
H676 C670 0.959 . S
H677 C670 0.961 . S
H678 C670 0.960 . S
H679 C671 0.930 . S
H680 C672 0.929 . S
H681 C689 0.929 . S
H682 C691 0.930 . S
H683 C693 0.930 1_565 S
H684 C696 0.929 1_565 S
H685 C699 0.930 . S
H686 C701 0.960 . S
H687 C701 0.960 1_545 S
H688 C701 0.960 . S
C689 H681 0.929 . S
C689 C690 1.377 . S
C689 C691 1.384 . S
C690 C689 1.377 . S
C690 C696 1.390 . S
C691 H682 0.930 . S
C691 C689 1.384 . S
C691 C692 1.372 . S
C692 C691 1.372 . S
C692 C693 1.400 . S
C692 C697 1.490 . S
C693 H683 0.930 1_545 S
C693 C692 1.400 . S
C693 C696 1.386 . S
H694 C710 0.930 1_565 S
H695 C711 0.931 1_565 S
C696 H684 0.929 1_545 S
C696 C690 1.390 . S
C696 C693 1.386 . S
C697 C692 1.490 . S
C697 C699 1.395 . S
C697 C700 1.403 . S
H698 C704 0.930 . S
C699 H685 0.930 . S
C699 C697 1.395 . S
C699 C702 1.403 . S
C700 C697 1.403 . S
C700 C701 1.524 1_545 S
C700 C704 1.400 . S
C701 H686 0.960 . S
C701 H687 0.960 1_565 S
C701 H688 0.960 . S
C701 C700 1.524 1_565 S
C702 C699 1.403 . S
C702 C703 1.392 . S
C702 C706 1.495 . S
C703 C702 1.392 . S
C703 C704 1.385 . S
C703 C705 1.478 . S
C704 H698 0.930 . S
C704 C700 1.400 . S
C704 C703 1.385 . S
C705 C703 1.478 . S
C705 C707 1.381 . S
C705 C711 1.383 . S
C706 C702 1.495 . S
C706 H712 0.959 . S
C706 H713 0.961 . S
C706 H714 0.960 . S
C707 C705 1.381 . S
C707 C708 1.394 . S
C707 H715 0.930 . S
C708 C707 1.394 . S
C708 C709 1.383 . S
C708 H716 0.929 . S
C709 C708 1.383 . S
C709 C710 1.377 . S
C710 H694 0.930 1_545 S
C710 C709 1.377 . S
C710 C711 1.379 . S
C711 H695 0.931 1_545 S
C711 C705 1.383 . S
C711 C710 1.379 . S
H712 C706 0.959 . S
H713 C706 0.961 . S
H714 C706 0.960 . S
H715 C707 0.930 . S
H716 C708 0.929 . S
H717 C725 0.929 . S
H718 C727 0.930 . S
H719 C729 0.930 . S
H720 C732 0.929 . S
H721 C735 0.930 . S
H722 C737 0.960 . S
H723 C737 0.960 . S
H724 C737 0.960 . S
C725 H717 0.929 . S
C725 C726 1.377 . S
C725 C727 1.384 . S
C726 C725 1.377 . S
C726 C732 1.390 . S
C727 H718 0.930 . S
C727 C725 1.384 . S
C727 C728 1.372 . S
C728 C727 1.372 . S
C728 C729 1.400 . S
C728 C733 1.490 . S
C729 H719 0.930 . S
C729 C728 1.400 . S
C729 C732 1.386 . S
H730 C746 0.930 . S
H731 C747 0.931 . S
C732 H720 0.929 . S
C732 C726 1.390 . S
C732 C729 1.386 . S
C733 C728 1.490 . S
C733 C735 1.395 . S
C733 C736 1.403 . S
H734 C740 0.930 . S
C735 H721 0.930 . S
C735 C733 1.395 . S
C735 C738 1.403 . S
C736 C733 1.403 . S
C736 C737 1.524 . S
C736 C740 1.400 . S
C737 H722 0.960 . S
C737 H723 0.960 . S
C737 H724 0.960 . S
C737 C736 1.524 . S
C738 C735 1.403 . S
C738 C739 1.392 . S
C738 C742 1.495 . S
C739 C738 1.392 . S
C739 C740 1.385 . S
C739 C741 1.478 1_556 S
C740 H734 0.930 . S
C740 C736 1.400 . S
C740 C739 1.385 . S
C741 C739 1.478 1_554 S
C741 C743 1.381 . S
C741 C747 1.383 . S
C742 C738 1.495 . S
C742 H748 0.959 . S
C742 H749 0.961 1_556 S
C742 H750 0.960 1_556 S
C743 C741 1.381 . S
C743 C744 1.394 . S
C743 H751 0.930 . S
C744 C743 1.394 . S
C744 C745 1.383 . S
C744 H752 0.929 . S
C745 C744 1.383 . S
C745 C746 1.377 . S
C746 H730 0.930 . S
C746 C745 1.377 . S
C746 C747 1.379 . S
C747 H731 0.931 . S
C747 C741 1.383 . S
C747 C746 1.379 . S
H748 C742 0.959 . S
H749 C742 0.961 1_554 S
H750 C742 0.960 1_554 S
H751 C743 0.930 . S
H752 C744 0.929 . S
H753 C761 0.929 . S
H754 C763 0.930 . S
H755 C765 0.930 1_655 S
H756 C768 0.946 . S
H757 C771 0.930 . S
H758 C773 0.960 . S
H759 C773 0.960 . S
H760 C773 0.960 . S
C761 H753 0.929 . S
C761 C762 1.377 . S
C761 C763 1.384 . S
C762 C761 1.377 . S
C762 C768 1.390 . S
C763 H754 0.930 . S
C763 C761 1.384 . S
C763 C764 1.372 . S
C764 C763 1.372 . S
C764 C765 1.400 . S
C764 C769 1.490 . S
C765 H755 0.930 1_455 S
C765 C764 1.400 . S
C765 C768 1.386 . S
H766 C782 0.930 . S
H767 C783 0.931 . S
C768 H756 0.946 . S
C768 C762 1.390 . S
C768 C765 1.386 . S
C769 C764 1.490 . S
C769 C771 1.395 . S
C769 C772 1.403 . S
H770 C776 0.930 . S
C771 H757 0.930 . S
C771 C769 1.395 . S
C771 C774 1.403 . S
C772 C769 1.403 . S
C772 C773 1.524 . S
C772 C776 1.400 . S
C773 H758 0.960 . S
C773 H759 0.960 . S
C773 H760 0.960 . S
C773 C772 1.524 . S
C774 C771 1.403 . S
C774 C775 1.392 . S
C774 C778 1.495 . S
C775 C774 1.392 . S
C775 C776 1.385 . S
C775 C777 1.478 . S
C776 H770 0.930 . S
C776 C772 1.400 . S
C776 C775 1.385 . S
C777 C775 1.478 . S
C777 C779 1.381 . S
C777 C783 1.383 1_455 S
C778 C774 1.495 . S
C778 H784 0.959 . S
C778 H785 0.961 . S
C778 H786 0.960 . S
C779 C777 1.381 . S
C779 C780 1.394 . S
C779 H787 0.930 . S
C780 C779 1.394 . S
C780 C781 1.383 . S
C780 H788 0.929 . S
C781 C780 1.383 . S
C781 C782 1.377 1_455 S
C782 H766 0.930 . S
C782 C781 1.377 1_655 S
C782 C783 1.379 . S
C783 H767 0.931 . S
C783 C777 1.383 1_655 S
C783 C782 1.379 . S
H784 C778 0.959 . S
H785 C778 0.961 . S
H786 C778 0.960 . S
H787 C779 0.930 . S
H788 C780 0.929 . S
C150 C20 1.480 . S
C169 C135 1.517 . S
C186 C41 1.237 . S
C205 C109 1.217 . S
C222 C64 1.245 . S
C241 C121 1.243 . S
C258 C19 0.894 . S
C277 C133 0.941 . S
C313 C111 1.184 . S
C294 C44 1.174 . S
C349 C123 1.139 . S
C330 C67 1.137 . S
C366 C43 1.201 . S
C385 C85 1.184 . S
C402 C66 1.478 . S
C421 C99 1.518 . S
C438 C21 1.150 . S
C457 C75 1.152 . S
C493 C87 1.211 . S
C474 C42 1.150 . S
C529 C97 0.939 . S
C510 C65 0.896 . S
C546 C18 1.234 . S
C565 C73 1.205 . S
C601 C102 1.518 . S
C582 C17 1.517 . S
C618 C39 1.534 . S
C637 C78 1.523 . S
C654 C62 1.535 . S
C673 C90 1.518 . S
C709 C126 1.503 . S
C690 C40 1.511 . S
C745 C138 1.519 . S
C726 C63 1.517 . S
C762 C16 1.515 . S
C781 C114 1.500 . S
