# Generated by pormake.
# Topology ssa, (4,4)-cn, num edge types: 1
# Building blocks:
#     Node 0, Type 0, BuildingBlock: NAWXER_clean_sbu_0, # of connection points: 4
#     Node 1, Type 0, BuildingBlock: NAWXER_clean_sbu_0, # of connection points: 4
#     Node 2, Type 0, BuildingBlock: NAWXER_clean_sbu_0, # of connection points: 4
#     Node 3, Type 0, BuildingBlock: NAWXER_clean_sbu_0, # of connection points: 4
#     Node 4, Type 0, BuildingBlock: NAWXER_clean_sbu_0, # of connection points: 4
#     Node 5, Type 0, BuildingBlock: NAWXER_clean_sbu_0, # of connection points: 4
#     Node 6, Type 1, BuildingBlock: AZAVOO_clean_linker_0, # of connection points: 4
#     Node 7, Type 1, BuildingBlock: AZAVOO_clean_linker_0, # of connection points: 4
#     Node 8, Type 1, BuildingBlock: AZAVOO_clean_linker_0, # of connection points: 4
#     Node 9, Type 1, BuildingBlock: AZAVOO_clean_linker_0, # of connection points: 4
#     Node 10, Type 1, BuildingBlock: AZAVOO_clean_linker_0, # of connection points: 4
#     Node 11, Type 1, BuildingBlock: AZAVOO_clean_linker_0, # of connection points: 4
#     Edge 12, Type (0, 1), BuildingBlock: ZUJKAS_clean_linker_0, # of connection points: 2
#     Edge 13, Type (0, 1), BuildingBlock: ZUJKAS_clean_linker_0, # of connection points: 2
#     Edge 14, Type (0, 1), BuildingBlock: ZUJKAS_clean_linker_0, # of connection points: 2
#     Edge 15, Type (0, 1), BuildingBlock: ZUJKAS_clean_linker_0, # of connection points: 2
#     Edge 16, Type (0, 1), BuildingBlock: ZUJKAS_clean_linker_0, # of connection points: 2
#     Edge 17, Type (0, 1), BuildingBlock: ZUJKAS_clean_linker_0, # of connection points: 2
#     Edge 18, Type (0, 1), BuildingBlock: ZUJKAS_clean_linker_0, # of connection points: 2
#     Edge 19, Type (0, 1), BuildingBlock: ZUJKAS_clean_linker_0, # of connection points: 2
#     Edge 20, Type (0, 1), BuildingBlock: ZUJKAS_clean_linker_0, # of connection points: 2
#     Edge 21, Type (0, 1), BuildingBlock: ZUJKAS_clean_linker_0, # of connection points: 2
#     Edge 22, Type (0, 1), BuildingBlock: ZUJKAS_clean_linker_0, # of connection points: 2
#     Edge 23, Type (0, 1), BuildingBlock: ZUJKAS_clean_linker_0, # of connection points: 2
#     Edge 24, Type (0, 1), BuildingBlock: ZUJKAS_clean_linker_0, # of connection points: 2
#     Edge 25, Type (0, 1), BuildingBlock: ZUJKAS_clean_linker_0, # of connection points: 2
#     Edge 26, Type (0, 1), BuildingBlock: ZUJKAS_clean_linker_0, # of connection points: 2
#     Edge 27, Type (0, 1), BuildingBlock: ZUJKAS_clean_linker_0, # of connection points: 2
#     Edge 28, Type (0, 1), BuildingBlock: ZUJKAS_clean_linker_0, # of connection points: 2
#     Edge 29, Type (0, 1), BuildingBlock: ZUJKAS_clean_linker_0, # of connection points: 2
#     Edge 30, Type (0, 1), BuildingBlock: ZUJKAS_clean_linker_0, # of connection points: 2
#     Edge 31, Type (0, 1), BuildingBlock: ZUJKAS_clean_linker_0, # of connection points: 2
#     Edge 32, Type (0, 1), BuildingBlock: ZUJKAS_clean_linker_0, # of connection points: 2
#     Edge 33, Type (0, 1), BuildingBlock: ZUJKAS_clean_linker_0, # of connection points: 2
#     Edge 34, Type (0, 1), BuildingBlock: ZUJKAS_clean_linker_0, # of connection points: 2
#     Edge 35, Type (0, 1), BuildingBlock: ZUJKAS_clean_linker_0, # of connection points: 2
# Relax obj value: 0.078
# Max RMSD: 0.233
# Mean RMSD: 0.129
data_MOF--net-ssa--node1-NAWXER_clean_sbu_0--node2-AZAVOO_clean_linker_0--edge1-ZUJKAS_clean_linker_0
_symmetry_space_group_name_H-M    P1
_symmetry_Int_Tables_number       1
_symmetry_cell_setting            triclinic
loop_
_symmetry_equiv_pos_as_xyz
'x, y, z'
_cell_length_a     60.933946
_cell_length_b     61.400496
_cell_length_c     57.648435
_cell_angle_alpha  89.957445
_cell_angle_beta   92.446392
_cell_angle_gamma 120.09017
loop_
_atom_site_label
_atom_site_type_symbol
_atom_site_fract_x
_atom_site_fract_y
_atom_site_fract_z
_atom_type_partial_charge
C0 C 0.15798 0.58741 0.0277 0.0
C1 C 0.11949 0.51311 0.9762 0.0
O2 O 0.13777 0.569 0.03543 0.0
Zn3 Zn 0.11036 0.53103 0.02545 0.0
O4 O 0.1662 0.58475 0.00863 0.0
Zn5 Zn 0.13938 0.55042 0.00173 0.0
O6 O 0.10613 0.55422 0.99654 0.0
O7 O 0.07926 0.53186 0.02315 0.0
O8 O 0.1393 0.53413 0.97287 0.0
O9 O 0.10755 0.51001 0.99481 0.0
O10 O 0.11434 0.51178 0.04978 0.0
O11 O 0.1471 0.52928 0.02742 0.0
C12 C 0.08468 0.54616 0.00583 0.0
C13 C 0.13599 0.51545 0.04466 0.0
C14 C 0.55322 0.00853 0.58089 0.0
C15 C 0.59048 0.967 0.5394 0.0
O16 O 0.55031 0.98676 0.58388 0.0
Zn17 Zn 0.57156 0.98771 0.55981 0.0
O18 O 0.56734 0.0223 0.56484 0.0
Zn19 Zn 0.58999 0.0192 0.53858 0.0
O20 O 0.57395 0.02162 0.51002 0.0
O21 O 0.55028 0.98665 0.52861 0.0
O22 O 0.59715 0.98889 0.53148 0.0
O23 O 0.57548 0.95874 0.55595 0.0
O24 O 0.60895 0.01648 0.57253 0.0
O25 O 0.62346 0.04654 0.54673 0.0
C26 C 0.55339 0.00078 0.51118 0.0
C27 C 0.62662 0.03783 0.56577 0.0
C28 C 0.57872 0.46073 0.06343 0.0
C29 C 0.62155 0.53133 0.11898 0.0
O30 O 0.57423 0.47862 0.05885 0.0
Zn31 Zn 0.58464 0.51509 0.07285 0.0
O32 O 0.59285 0.46275 0.08112 0.0
Zn33 Zn 0.60005 0.4957 0.09163 0.0
O34 O 0.56396 0.48912 0.1027 0.0
O35 O 0.55257 0.51155 0.08071 0.0
O36 O 0.62178 0.51074 0.1193 0.0
O37 O 0.60874 0.53497 0.10277 0.0
O38 O 0.60241 0.53673 0.04771 0.0
O39 O 0.62288 0.5193 0.0645 0.0
C40 C 0.54805 0.49641 0.09726 0.0
C41 C 0.6216 0.53373 0.04905 0.0
C42 C 0.07041 0.52041 0.52846 0.0
C43 C 0.0391 0.44877 0.57936 0.0
O44 O 0.08172 0.51739 0.54612 0.0
Zn45 Zn 0.05493 0.4846 0.55394 0.0
O46 O 0.04779 0.50306 0.52229 0.0
Zn47 Zn 0.02003 0.46652 0.53398 0.0
O48 O 0.99232 0.47168 0.54167 0.0
O49 O 0.02633 0.49229 0.56517 0.0
O50 O 0.02263 0.44589 0.5632 0.0
O51 O 0.06072 0.46869 0.58035 0.0
O52 O 0.05342 0.46134 0.52555 0.0
O53 O 0.01551 0.44465 0.50777 0.0
C54 C 0.00347 0.48637 0.55912 0.0
C55 C 0.03754 0.44717 0.50936 0.0
C56 C 0.61534 0.03391 0.12142 0.0
C57 C 0.57497 0.07212 0.07547 0.0
O58 O 0.61718 0.05521 0.12489 0.0
Zn59 Zn 0.59507 0.05321 0.09881 0.0
O60 O 0.60114 0.01978 0.10436 0.0
Zn61 Zn 0.57707 0.02079 0.07668 0.0
O62 O 0.59306 0.0181 0.04966 0.0
O63 O 0.61623 0.05376 0.06957 0.0
O64 O 0.56884 0.05006 0.06787 0.0
O65 O 0.59011 0.08148 0.0932 0.0
O66 O 0.55812 0.02434 0.10873 0.0
O67 O 0.54441 0.99287 0.08322 0.0
C68 C 0.61337 0.03925 0.05229 0.0
C69 C 0.54096 0.00233 0.10132 0.0
C70 C 0.58696 0.56161 0.62047 0.0
C71 C 0.52149 0.51151 0.56083 0.0
O72 O 0.56525 0.55963 0.61741 0.0
Zn73 Zn 0.55397 0.53657 0.59096 0.0
O74 O 0.59343 0.54936 0.60702 0.0
Zn75 Zn 0.57736 0.52346 0.57787 0.0
O76 O 0.60061 0.54117 0.55396 0.0
O77 O 0.5789 0.55916 0.56446 0.0
O78 O 0.54112 0.50906 0.55981 0.0
O79 O 0.52085 0.52578 0.57641 0.0
O80 O 0.54993 0.50295 0.60663 0.0
O81 O 0.57613 0.49362 0.58981 0.0
C82 C 0.59554 0.5588 0.55178 0.0
C83 C 0.55957 0.48867 0.6047 0.0
H84 H 0.27964 0.40633 0.46026 0.0
H85 H 0.1132 0.36982 0.23345 0.0
H86 H 0.32011 0.45336 0.33111 0.0
H87 H 0.35479 0.4633 0.35945 0.0
H88 H 0.33286 0.38451 0.36092 0.0
H89 H 0.29754 0.37476 0.33291 0.0
H90 H 0.28208 0.43688 0.36387 0.0
H91 H 0.2848 0.43163 0.40578 0.0
H92 H 0.24373 0.35076 0.39511 0.0
H93 H 0.24137 0.35634 0.35318 0.0
H94 H 0.23642 0.43281 0.34427 0.0
H95 H 0.20216 0.42859 0.36788 0.0
H96 H 0.15785 0.34964 0.34847 0.0
H97 H 0.19259 0.354 0.32501 0.0
H98 H 0.22893 0.43877 0.28437 0.0
H99 H 0.19144 0.43636 0.26442 0.0
H100 H 0.15623 0.35527 0.25969 0.0
H101 H 0.19395 0.35802 0.27945 0.0
H102 H 0.28316 0.45387 0.26453 0.0
H103 H 0.27628 0.46691 0.22624 0.0
H104 H 0.22452 0.38907 0.20632 0.0
H105 H 0.23265 0.37612 0.24443 0.0
H106 H 0.32281 0.45675 0.28759 0.0
H107 H 0.35827 0.46766 0.2626 0.0
H108 H 0.32459 0.38938 0.24165 0.0
H109 H 0.28936 0.37866 0.2669 0.0
O110 O 0.27827 0.40797 0.44365 0.0
O111 O 0.25693 0.36652 0.43726 0.0
O112 O 0.14721 0.41307 0.24418 0.0
O113 O 0.12819 0.37132 0.24146 0.0
C114 C 0.28236 0.40725 0.3172 0.0
C115 C 0.26065 0.4002 0.33009 0.0
C116 C 0.2381 0.39687 0.31892 0.0
C117 C 0.2371 0.4002 0.29479 0.0
C118 C 0.25875 0.4071 0.28183 0.0
C119 C 0.28135 0.41044 0.29302 0.0
C120 C 0.30655 0.41341 0.32978 0.0
C121 C 0.32336 0.43839 0.33694 0.0
C122 C 0.34317 0.444 0.35323 0.0
C123 C 0.34658 0.42468 0.36264 0.0
C124 C 0.33053 0.39979 0.35432 0.0
C125 C 0.31058 0.39419 0.33809 0.0
C126 C 0.26172 0.39699 0.35555 0.0
C127 C 0.27378 0.41806 0.37064 0.0
C128 C 0.27525 0.415 0.39456 0.0
C129 C 0.26455 0.39077 0.4038 0.0
C130 C 0.25222 0.36968 0.38857 0.0
C131 C 0.25081 0.37279 0.36464 0.0
C132 C 0.21696 0.39371 0.33303 0.0
C133 C 0.21937 0.41458 0.34522 0.0
C134 C 0.19984 0.41212 0.35871 0.0
C135 C 0.17742 0.38875 0.36008 0.0
C136 C 0.17489 0.36788 0.3476 0.0
C137 C 0.19465 0.37031 0.33427 0.0
C138 C 0.21402 0.39856 0.28339 0.0
C139 C 0.21304 0.42052 0.27906 0.0
C140 C 0.19163 0.41908 0.26765 0.0
C141 C 0.17082 0.3956 0.26047 0.0
C142 C 0.17189 0.37363 0.265 0.0
C143 C 0.19335 0.37512 0.27634 0.0
C144 C 0.25847 0.41406 0.25722 0.0
C145 C 0.27113 0.43957 0.2516 0.0
C146 C 0.26685 0.44699 0.22982 0.0
C147 C 0.24949 0.42906 0.21339 0.0
C148 C 0.23811 0.40334 0.21853 0.0
C149 C 0.24265 0.3959 0.2403 0.0
C150 C 0.30369 0.4169 0.27919 0.0
C151 C 0.32332 0.44194 0.27786 0.0
C152 C 0.34339 0.44815 0.26341 0.0
C153 C 0.34419 0.42937 0.25012 0.0
C154 C 0.32466 0.40422 0.25186 0.0
C155 C 0.30452 0.39807 0.2662 0.0
C156 C 0.26629 0.38758 0.42921 0.0
C157 C 0.14809 0.39397 0.24823 0.0
H158 H 0.91004 0.2461 0.97092 0.0
H159 H 0.74704 0.0428 0.7905 0.0
H160 H 0.90399 0.26044 0.83912 0.0
H161 H 0.94078 0.30195 0.8487 0.0
H162 H 0.99052 0.27141 0.84187 0.0
H163 H 0.95343 0.22981 0.8319 0.0
H164 H 0.86773 0.22064 0.87532 0.0
H165 H 0.88008 0.23332 0.9162 0.0
H166 H 0.93843 0.2131 0.91274 0.0
H167 H 0.92571 0.20028 0.8719 0.0
H168 H 0.82156 0.17926 0.84643 0.0
H169 H 0.78959 0.15519 0.87433 0.0
H170 H 0.8355 0.12457 0.90132 0.0
H171 H 0.86766 0.14895 0.87305 0.0
H172 H 0.81393 0.16832 0.79767 0.0
H173 H 0.77437 0.12961 0.78678 0.0
H174 H 0.80838 0.08577 0.81018 0.0
H175 H 0.84798 0.12469 0.82066 0.0
H176 H 0.8534 0.21227 0.77335 0.0
H177 H 0.8295 0.19845 0.73607 0.0
H178 H 0.84536 0.13743 0.73235 0.0
H179 H 0.86989 0.15184 0.76958 0.0
H180 H 0.89399 0.25215 0.79116 0.0
H181 H 0.91775 0.28143 0.76081 0.0
H182 H 0.95535 0.23913 0.74785 0.0
H183 H 0.93122 0.20967 0.77827 0.0
O184 O 0.90543 0.24092 0.95475 0.0
O185 O 0.93521 0.23035 0.95203 0.0
O186 O 0.74596 0.08182 0.7826 0.0
O187 O 0.76248 0.05841 0.79458 0.0
C188 C 0.90368 0.21749 0.82851 0.0
C189 C 0.88829 0.20182 0.84597 0.0
C190 C 0.86521 0.17971 0.83973 0.0
C191 C 0.85805 0.17279 0.81608 0.0
C192 C 0.87329 0.18867 0.79862 0.0
C193 C 0.89603 0.21106 0.80487 0.0
C194 C 0.92615 0.24224 0.83491 0.0
C195 C 0.92285 0.26275 0.83966 0.0
C196 C 0.94384 0.28641 0.84494 0.0
C197 C 0.96847 0.28987 0.84582 0.0
C198 C 0.97172 0.26919 0.84128 0.0
C199 C 0.95065 0.24553 0.83565 0.0
C200 C 0.89573 0.2094 0.87076 0.0
C201 C 0.88308 0.21884 0.88348 0.0
C202 C 0.89022 0.22613 0.9068 0.0
C203 C 0.91022 0.22419 0.91775 0.0
C204 C 0.92292 0.2148 0.90485 0.0
C205 C 0.91572 0.20748 0.88154 0.0
C206 C 0.84674 0.16561 0.85759 0.0
C207 C 0.82468 0.16728 0.85831 0.0
C208 C 0.8064 0.15343 0.87416 0.0
C209 C 0.80988 0.13771 0.88977 0.0
C210 C 0.83235 0.13653 0.88946 0.0
C211 C 0.85066 0.15036 0.87339 0.0
C212 C 0.8339 0.14928 0.80967 0.0
C213 C 0.81287 0.15035 0.80023 0.0
C214 C 0.79026 0.1282 0.79413 0.0
C215 C 0.78823 0.10458 0.79755 0.0
C216 C 0.80931 0.10363 0.80725 0.0
C217 C 0.83194 0.12581 0.81327 0.0
C218 C 0.86356 0.1832 0.77405 0.0
C219 C 0.85256 0.19652 0.76408 0.0
C220 C 0.83863 0.18839 0.74295 0.0
C221 C 0.83535 0.16671 0.73146 0.0
C222 C 0.84774 0.15431 0.74075 0.0
C223 C 0.86171 0.16248 0.76197 0.0
C224 C 0.91086 0.22881 0.78674 0.0
C225 C 0.90735 0.24922 0.78174 0.0
C226 C 0.92083 0.26582 0.76441 0.0
C227 C 0.93825 0.26241 0.75195 0.0
C228 C 0.94209 0.24219 0.75729 0.0
C229 C 0.92832 0.22536 0.77451 0.0
C230 C 0.91778 0.23197 0.94252 0.0
C231 C 0.76426 0.08099 0.7911 0.0
H232 H 0.69893 0.80103 0.16057 0.0
H233 H 0.72602 0.96968 0.37045 0.0
H234 H 0.66313 0.76678 0.28071 0.0
H235 H 0.65812 0.72877 0.262 0.0
H236 H 0.733 0.7475 0.28887 0.0
H237 H 0.73776 0.78564 0.30778 0.0
H238 H 0.67101 0.80795 0.25499 0.0
H239 H 0.67538 0.80312 0.2136 0.0
H240 H 0.75429 0.8254 0.22757 0.0
H241 H 0.74963 0.8303 0.26893 0.0
H242 H 0.66623 0.8418 0.27839 0.0
H243 H 0.66382 0.87325 0.25409 0.0
H244 H 0.74557 0.91966 0.25979 0.0
H245 H 0.74779 0.88769 0.28399 0.0
H246 H 0.66469 0.84937 0.33421 0.0
H247 H 0.66366 0.88567 0.35044 0.0
H248 H 0.74533 0.93034 0.34736 0.0
H249 H 0.74607 0.89379 0.33137 0.0
H250 H 0.6586 0.80209 0.35912 0.0
H251 H 0.64825 0.81341 0.39604 0.0
H252 H 0.72705 0.87034 0.40872 0.0
H253 H 0.73716 0.85892 0.3716 0.0
H254 H 0.65959 0.75945 0.33063 0.0
H255 H 0.65081 0.72602 0.35812 0.0
H256 H 0.72532 0.77203 0.39143 0.0
H257 H 0.73392 0.80543 0.36377 0.0
O258 O 0.69766 0.80323 0.17701 0.0
O259 O 0.73816 0.81495 0.18508 0.0
O260 O 0.68393 0.93124 0.36532 0.0
O261 O 0.72586 0.95508 0.36391 0.0
C262 C 0.70414 0.80285 0.30515 0.0
C263 C 0.70735 0.82224 0.28998 0.0
C264 C 0.70788 0.84393 0.29873 0.0
C265 C 0.70606 0.84669 0.3227 0.0
C266 C 0.70323 0.82752 0.33798 0.0
C267 C 0.70209 0.80548 0.3292 0.0
C268 C 0.70089 0.77903 0.29536 0.0
C269 C 0.67842 0.76263 0.28261 0.0
C270 C 0.67564 0.741 0.27188 0.0
C271 C 0.6953 0.73532 0.27373 0.0
C272 C 0.71751 0.75136 0.28722 0.0
C273 C 0.7203 0.77313 0.29795 0.0
C274 C 0.71008 0.81972 0.26485 0.0
C275 C 0.68927 0.81201 0.24902 0.0
C276 C 0.6918 0.80915 0.22542 0.0
C277 C 0.7152 0.81392 0.21726 0.0
C278 C 0.73601 0.82163 0.23326 0.0
C279 C 0.73344 0.82447 0.25686 0.0
C280 C 0.70718 0.86239 0.28264 0.0
C281 C 0.68363 0.85856 0.27404 0.0
C282 C 0.68231 0.87651 0.2602 0.0
C283 C 0.70453 0.89883 0.25498 0.0
C284 C 0.72817 0.90264 0.26362 0.0
C285 C 0.72949 0.88442 0.27726 0.0
C286 C 0.70545 0.86903 0.33166 0.0
C287 C 0.68231 0.86705 0.33703 0.0
C288 C 0.68179 0.88779 0.3463 0.0
C289 C 0.70443 0.91092 0.35023 0.0
C290 C 0.72756 0.91283 0.34457 0.0
C291 C 0.72804 0.89204 0.33537 0.0
C292 C 0.69859 0.82975 0.36268 0.0
C293 C 0.67377 0.81635 0.37028 0.0
C294 C 0.6679 0.82289 0.39138 0.0
C295 C 0.6868 0.84301 0.40514 0.0
C296 C 0.71204 0.85501 0.39831 0.0
C297 C 0.7179 0.84839 0.37725 0.0
C298 C 0.69746 0.78475 0.34509 0.0
C299 C 0.67416 0.76213 0.34362 0.0
C300 C 0.6692 0.74306 0.35932 0.0
C301 C 0.68741 0.74636 0.37691 0.0
C302 C 0.71085 0.76901 0.37819 0.0
C303 C 0.71584 0.78804 0.36238 0.0
C304 C 0.7178 0.81076 0.19218 0.0
C305 C 0.70401 0.93295 0.36027 0.0
H306 H 0.82635 0.64727 0.65777 0.0
H307 H 0.97381 0.55394 0.80578 0.0
H308 H 0.84614 0.65799 0.78306 0.0
H309 H 0.81096 0.66518 0.77244 0.0
H310 H 0.75752 0.58964 0.79279 0.0
H311 H 0.79275 0.58255 0.80316 0.0
H312 H 0.87906 0.64897 0.74556 0.0
H313 H 0.86361 0.65465 0.70743 0.0
H314 H 0.7919 0.58645 0.71604 0.0
H315 H 0.80772 0.58083 0.75398 0.0
H316 H 0.91966 0.63283 0.75888 0.0
H317 H 0.9351 0.62141 0.725 0.0
H318 H 0.86269 0.55266 0.71567 0.0
H319 H 0.84741 0.56449 0.74918 0.0
H320 H 0.93162 0.63499 0.8145 0.0
H321 H 0.96632 0.62588 0.81905 0.0
H322 H 0.91553 0.54955 0.79402 0.0
H323 H 0.88093 0.55885 0.78985 0.0
H324 H 0.90177 0.64172 0.85176 0.0
H325 H 0.9251 0.63748 0.88557 0.0
H326 H 0.88692 0.5571 0.87259 0.0
H327 H 0.86367 0.56154 0.839 0.0
H328 H 0.84899 0.64789 0.84117 0.0
H329 H 0.82086 0.64329 0.87249 0.0
H330 H 0.79257 0.56319 0.87215 0.0
H331 H 0.8205 0.5679 0.84098 0.0
O332 O 0.83213 0.64458 0.67282 0.0
O333 O 0.79553 0.60953 0.6782 0.0
O334 O 0.98572 0.59746 0.81703 0.0
O335 O 0.96045 0.55807 0.80409 0.0
C336 C 0.84288 0.61399 0.79612 0.0
C337 C 0.85383 0.61149 0.77585 0.0
C338 C 0.8733 0.60542 0.77767 0.0
C339 C 0.88269 0.60306 0.79976 0.0
C340 C 0.87148 0.60517 0.81999 0.0
C341 C 0.85116 0.61001 0.81817 0.0
C342 C 0.82197 0.61975 0.79384 0.0
C343 C 0.82685 0.64322 0.78571 0.0
C344 C 0.80677 0.64727 0.7796 0.0
C345 C 0.78152 0.62793 0.78169 0.0
C346 C 0.77679 0.60499 0.79126 0.0
C347 C 0.79687 0.60089 0.79718 0.0
C348 C 0.84446 0.61459 0.75256 0.0
C349 C 0.86006 0.63524 0.73912 0.0
C350 C 0.85116 0.63846 0.71738 0.0
C351 C 0.82649 0.62104 0.70871 0.0
C352 C 0.81097 0.60025 0.72221 0.0
C353 C 0.81993 0.59703 0.74391 0.0
C354 C 0.88243 0.5995 0.75642 0.0
C355 C 0.90714 0.61543 0.74934 0.0
C356 C 0.91593 0.60879 0.73008 0.0
C357 C 0.90013 0.58609 0.71761 0.0
C358 C 0.87522 0.57045 0.7246 0.0
C359 C 0.86648 0.57711 0.74381 0.0
C360 C 0.90383 0.5976 0.80179 0.0
C361 C 0.92806 0.61633 0.81 0.0
C362 C 0.94783 0.61107 0.81257 0.0
C363 C 0.9437 0.58697 0.80688 0.0
C364 C 0.91937 0.5683 0.79854 0.0
C365 C 0.8996 0.57357 0.79606 0.0
C366 C 0.88114 0.60194 0.84299 0.0
C367 C 0.89794 0.62315 0.85669 0.0
C368 C 0.91135 0.62071 0.87583 0.0
C369 C 0.90796 0.59699 0.8816 0.0
C370 C 0.88976 0.57558 0.86873 0.0
C371 C 0.87651 0.57806 0.84953 0.0
C372 C 0.83679 0.60822 0.83889 0.0
C373 C 0.83698 0.62945 0.84816 0.0
C374 C 0.82096 0.6268 0.86599 0.0
C375 C 0.80438 0.60285 0.87454 0.0
C376 C 0.8049 0.58181 0.86567 0.0
C377 C 0.821 0.5845 0.84805 0.0
C378 C 0.81703 0.62461 0.68568 0.0
C379 C 0.96461 0.58126 0.80966 0.0
H380 H 0.26826 0.85227 0.45449 0.0
H381 H 0.13415 0.63708 0.28003 0.0
H382 H 0.28445 0.86309 0.33301 0.0
H383 H 0.32308 0.89874 0.35088 0.0
H384 H 0.36568 0.8627 0.3331 0.0
H385 H 0.32714 0.82721 0.31567 0.0
H386 H 0.23473 0.81867 0.35796 0.0
H387 H 0.24257 0.83364 0.39846 0.0
H388 H 0.30875 0.82489 0.40345 0.0
H389 H 0.30048 0.80963 0.36306 0.0
H390 H 0.19159 0.76438 0.33574 0.0
H391 H 0.16653 0.73509 0.36583 0.0
H392 H 0.23181 0.72913 0.38857 0.0
H393 H 0.2565 0.75826 0.35873 0.0
H394 H 0.1943 0.7626 0.27748 0.0
H395 H 0.15742 0.72173 0.26621 0.0
H396 H 0.19193 0.68434 0.30328 0.0
H397 H 0.2288 0.72531 0.31419 0.0
H398 H 0.24009 0.80139 0.24602 0.0
H399 H 0.23468 0.78316 0.20686 0.0
H400 H 0.25539 0.73008 0.23452 0.0
H401 H 0.2601 0.74798 0.2734 0.0
H402 H 0.28616 0.85608 0.2762 0.0
H403 H 0.31893 0.88195 0.24935 0.0
H404 H 0.33726 0.8228 0.24221 0.0
H405 H 0.30564 0.7979 0.2701 0.0
O406 O 0.26546 0.84622 0.43854 0.0
O407 O 0.29943 0.84161 0.44014 0.0
O408 O 0.13165 0.67361 0.2653 0.0
O409 O 0.14851 0.65348 0.2842 0.0
C410 C 0.27918 0.81912 0.31582 0.0
C411 C 0.2623 0.80432 0.33289 0.0
C412 C 0.24118 0.78052 0.32673 0.0
C413 C 0.23646 0.77179 0.30339 0.0
C414 C 0.25342 0.78646 0.28634 0.0
C415 C 0.27478 0.81014 0.29253 0.0
C416 C 0.303 0.84258 0.32303 0.0
C417 C 0.30226 0.8632 0.33259 0.0
C418 C 0.32427 0.88345 0.34283 0.0
C419 C 0.34738 0.88348 0.34341 0.0
C420 C 0.34827 0.86343 0.33263 0.0
C421 C 0.32626 0.84312 0.32265 0.0
C422 C 0.26715 0.81329 0.35754 0.0
C423 C 0.25088 0.81997 0.36786 0.0
C424 C 0.25543 0.82854 0.39098 0.0
C425 C 0.27634 0.83055 0.40418 0.0
C426 C 0.29252 0.82365 0.39377 0.0
C427 C 0.2879 0.81501 0.37068 0.0
C428 C 0.22588 0.76354 0.34522 0.0
C429 C 0.20041 0.7568 0.34736 0.0
C430 C 0.18616 0.74006 0.36446 0.0
C431 C 0.19727 0.72997 0.37969 0.0
C432 C 0.22284 0.73696 0.37747 0.0
C433 C 0.23696 0.75352 0.36038 0.0
C434 C 0.21409 0.7469 0.29679 0.0
C435 C 0.19383 0.74555 0.28314 0.0
C436 C 0.1728 0.72219 0.27675 0.0
C437 C 0.1717 0.69975 0.28391 0.0
C438 C 0.19213 0.70123 0.29753 0.0
C439 C 0.21316 0.7246 0.30386 0.0
C440 C 0.25017 0.77578 0.26252 0.0
C441 C 0.24336 0.78578 0.24352 0.0
C442 C 0.24048 0.77547 0.22118 0.0
C443 C 0.24444 0.75504 0.21757 0.0
C444 C 0.25167 0.74543 0.23672 0.0
C445 C 0.25443 0.75565 0.25894 0.0
C446 C 0.29338 0.82504 0.27495 0.0
C447 C 0.29725 0.84875 0.26874 0.0
C448 C 0.31585 0.8634 0.25326 0.0
C449 C 0.33079 0.85448 0.24359 0.0
C450 C 0.32642 0.83045 0.24956 0.0
C451 C 0.30808 0.816 0.26525 0.0
C452 C 0.28119 0.83977 0.42869 0.0
C453 C 0.14938 0.67489 0.27719 0.0
H454 H 0.50703 0.22726 0.65992 0.0
H455 H 0.4316 0.04452 0.85861 0.0
H456 H 0.53231 0.25878 0.78814 0.0
H457 H 0.5424 0.29631 0.76594 0.0
H458 H 0.46515 0.28043 0.77087 0.0
H459 H 0.45552 0.24321 0.79372 0.0
H460 H 0.51943 0.21106 0.7585 0.0
H461 H 0.52112 0.21829 0.71668 0.0
H462 H 0.44751 0.21278 0.71652 0.0
H463 H 0.44599 0.20533 0.7583 0.0
H464 H 0.51324 0.16699 0.79231 0.0
H465 H 0.51412 0.13744 0.76468 0.0
H466 H 0.4411 0.1213 0.7347 0.0
H467 H 0.44043 0.15115 0.76263 0.0
H468 H 0.51085 0.16692 0.84321 0.0
H469 H 0.50298 0.12667 0.85875 0.0
H470 H 0.42514 0.09148 0.83162 0.0
H471 H 0.43319 0.13194 0.81644 0.0
H472 H 0.52483 0.2195 0.86278 0.0
H473 H 0.53063 0.21037 0.90302 0.0
H474 H 0.45019 0.15726 0.90463 0.0
H475 H 0.44453 0.16673 0.8642 0.0
H476 H 0.53221 0.26206 0.83591 0.0
H477 H 0.54313 0.29402 0.8665 0.0
H478 H 0.46472 0.25649 0.88503 0.0
H479 H 0.45395 0.22473 0.85421 0.0
O480 O 0.50592 0.22424 0.67643 0.0
O481 O 0.46808 0.22132 0.67731 0.0
O482 O 0.47537 0.0797 0.86642 0.0
O483 O 0.43523 0.06067 0.85267 0.0
C484 C 0.48638 0.22354 0.80218 0.0
C485 C 0.48176 0.20363 0.78677 0.0
C486 C 0.47755 0.18046 0.79556 0.0
C487 C 0.47715 0.17689 0.81977 0.0
C488 C 0.48177 0.19681 0.83521 0.0
C489 C 0.4864 0.22017 0.82639 0.0
C490 C 0.49325 0.24842 0.79257 0.0
C491 C 0.51778 0.26381 0.78491 0.0
C492 C 0.52339 0.28504 0.772 0.0
C493 C 0.50447 0.29116 0.76632 0.0
C494 C 0.48019 0.27635 0.77506 0.0
C495 C 0.47464 0.25512 0.78813 0.0
C496 C 0.48256 0.20759 0.76134 0.0
C497 C 0.50365 0.21128 0.74935 0.0
C498 C 0.50458 0.21547 0.72549 0.0
C499 C 0.48445 0.21612 0.71325 0.0
C500 C 0.46333 0.21239 0.72541 0.0
C501 C 0.46241 0.20815 0.74925 0.0
C502 C 0.47671 0.16108 0.77957 0.0
C503 C 0.49722 0.15676 0.78004 0.0
C504 C 0.49765 0.13981 0.76427 0.0
C505 C 0.47759 0.1269 0.74758 0.0
C506 C 0.45688 0.13106 0.74728 0.0
C507 C 0.45641 0.14799 0.76322 0.0
C508 C 0.47252 0.15238 0.8289 0.0
C509 C 0.49207 0.15053 0.84078 0.0
C510 C 0.48755 0.1275 0.84957 0.0
C511 C 0.46339 0.10586 0.84647 0.0
C512 C 0.44393 0.10777 0.83435 0.0
C513 C 0.44847 0.13084 0.82563 0.0
C514 C 0.48425 0.19385 0.86059 0.0
C515 C 0.50834 0.20647 0.87202 0.0
C516 C 0.51161 0.20121 0.89504 0.0
C517 C 0.49087 0.18304 0.90699 0.0
C518 C 0.46655 0.1712 0.89579 0.0
C519 C 0.46326 0.17664 0.87278 0.0
C520 C 0.49226 0.24124 0.84274 0.0
C521 C 0.51732 0.26109 0.84623 0.0
C522 C 0.52356 0.27912 0.86388 0.0
C523 C 0.5048 0.27764 0.87824 0.0
C524 C 0.47953 0.25822 0.87412 0.0
C525 C 0.47334 0.24009 0.85656 0.0
C526 C 0.48556 0.2207 0.68793 0.0
C527 C 0.45847 0.08135 0.85581 0.0
H528 H 0.17966 0.51547 0.0356 0.0
H529 H 0.20079 0.49737 0.05886 0.0
H530 H 0.1422 0.47211 0.10837 0.0
H531 H 0.12065 0.48963 0.08498 0.0
H532 H 0.22051 0.51015 0.10242 0.0
H533 H 0.14677 0.40939 0.09876 0.0
H534 H 0.14568 0.43203 0.07945 0.0
H535 H 0.13442 0.42874 0.10835 0.0
C536 C 0.17113 0.50586 0.05133 0.0
C537 C 0.14844 0.50396 0.05843 0.0
C538 C 0.18322 0.49549 0.06457 0.0
C539 C 0.17284 0.48299 0.08512 0.0
C540 C 0.15019 0.48105 0.09224 0.0
H541 H 0.23938 0.46739 0.21012 0.0
H542 H 0.2237 0.48001 0.17622 0.0
C543 C 0.138 0.49128 0.07895 0.0
C544 C 0.1866 0.47363 0.10005 0.0
H545 H 0.17861 0.42248 0.13021 0.0
C546 C 0.21149 0.49087 0.10818 0.0
C547 C 0.17505 0.44836 0.10722 0.0
C548 C 0.14911 0.42851 0.09778 0.0
C549 C 0.22455 0.48389 0.12437 0.0
C550 C 0.21219 0.45919 0.13297 0.0
C551 C 0.18792 0.44152 0.12379 0.0
C552 C 0.22312 0.45207 0.15296 0.0
C553 C 0.2513 0.50319 0.13244 0.0
C554 C 0.22756 0.4318 0.15124 0.0
C555 C 0.23667 0.42453 0.17071 0.0
C556 C 0.24132 0.43735 0.19218 0.0
C557 C 0.23674 0.45758 0.19373 0.0
C558 C 0.22771 0.46481 0.17435 0.0
H559 H 0.26074 0.51772 0.11916 0.0
H560 H 0.25074 0.51287 0.14846 0.0
H561 H 0.26294 0.49424 0.13639 0.0
H562 H 0.22389 0.42159 0.1349 0.0
H563 H 0.24 0.40887 0.16898 0.0
H564 H 0.63612 0.02838 0.61018 0.0
H565 H 0.67494 0.0523 0.63448 0.0
H566 H 0.71006 0.10291 0.57837 0.0
H567 H 0.67093 0.07946 0.55408 0.0
H568 H 0.72281 0.06174 0.62897 0.0
H569 H 0.72111 0.15135 0.63105 0.0
H570 H 0.69441 0.12216 0.62005 0.0
H571 H 0.72118 0.13987 0.60244 0.0
C572 C 0.65206 0.04463 0.60299 0.0
C573 C 0.65038 0.05214 0.58025 0.0
C574 C 0.67427 0.05825 0.6169 0.0
C575 C 0.69528 0.07959 0.60836 0.0
C576 C 0.69389 0.08685 0.58549 0.0
H577 H 0.84116 0.14824 0.69022 0.0
H578 H 0.80936 0.12828 0.65794 0.0
C579 C 0.67155 0.07335 0.57161 0.0
C580 C 0.71847 0.09411 0.62361 0.0
H581 H 0.75611 0.15151 0.6503 0.0
C582 C 0.73022 0.08141 0.63355 0.0
C583 C 0.72794 0.11972 0.62966 0.0
C584 C 0.71542 0.13407 0.62044 0.0
C585 C 0.75078 0.09343 0.64983 0.0
C586 C 0.76025 0.11905 0.65587 0.0
C587 C 0.74892 0.13192 0.64547 0.0
C588 C 0.78025 0.1322 0.67452 0.0
C589 C 0.76137 0.07826 0.66121 0.0
C590 C 0.7747 0.14168 0.69416 0.0
C591 C 0.79282 0.15328 0.71236 0.0
C592 C 0.81693 0.15566 0.71132 0.0
C593 C 0.82266 0.14648 0.69151 0.0
C594 C 0.80451 0.13502 0.67314 0.0
H595 H 0.74834 0.05769 0.65851 0.0
H596 H 0.77966 0.0832 0.65358 0.0
H597 H 0.76497 0.0825 0.68017 0.0
H598 H 0.75608 0.13963 0.69563 0.0
H599 H 0.7877 0.15979 0.72757 0.0
H600 H 0.64112 0.52696 0.16148 0.0
H601 H 0.65994 0.55893 0.19306 0.0
H602 H 0.65112 0.61151 0.14968 0.0
H603 H 0.63228 0.57994 0.11829 0.0
H604 H 0.70284 0.62834 0.179 0.0
H605 H 0.61223 0.58466 0.22515 0.0
H606 H 0.62377 0.56527 0.21331 0.0
H607 H 0.61207 0.58051 0.19412 0.0
C608 C 0.6435 0.54544 0.15861 0.0
C609 C 0.63506 0.55087 0.13745 0.0
C610 C 0.6542 0.56361 0.17664 0.0
C611 C 0.6568 0.58745 0.1736 0.0
C612 C 0.64926 0.59318 0.15227 0.0
H613 H 0.67744 0.72057 0.2291 0.0
H614 H 0.67123 0.6832 0.20811 0.0
C615 C 0.63841 0.57507 0.1344 0.0
C616 C 0.66591 0.60626 0.19285 0.0
H617 H 0.64394 0.62544 0.23738 0.0
C618 C 0.69027 0.62747 0.19218 0.0
C619 C 0.6493 0.60503 0.20984 0.0
C620 C 0.62282 0.58271 0.21083 0.0
C621 C 0.69801 0.64809 0.20749 0.0
C622 C 0.68087 0.64742 0.22357 0.0
C623 C 0.65703 0.6257 0.22507 0.0
C624 C 0.68587 0.67033 0.23646 0.0
C625 C 0.7239 0.67107 0.20566 0.0
C626 C 0.69626 0.67537 0.25931 0.0
C627 C 0.69981 0.69677 0.27144 0.0
C628 C 0.69274 0.71317 0.26088 0.0
C629 C 0.68267 0.70808 0.23784 0.0
C630 C 0.67926 0.68686 0.22577 0.0
H631 H 0.73612 0.66754 0.19429 0.0
H632 H 0.72177 0.68671 0.19844 0.0
H633 H 0.73351 0.67725 0.22318 0.0
H634 H 0.70138 0.66268 0.26778 0.0
H635 H 0.7075 0.70015 0.2892 0.0
H636 H 0.02216 0.51659 0.59791 0.0
H637 H 0.00141 0.53388 0.62061 0.0
H638 H 0.93516 0.49784 0.5738 0.0
H639 H 0.95574 0.47999 0.55097 0.0
H640 H 0.98336 0.56573 0.60647 0.0
H641 H 0.90592 0.47487 0.63792 0.0
H642 H 0.93347 0.47742 0.62482 0.0
H643 H 0.90857 0.47738 0.60698 0.0
C644 C 0.00314 0.51221 0.59239 0.0
C645 C 0.99056 0.49679 0.57265 0.0
C646 C 0.99134 0.52219 0.60539 0.0
C647 C 0.96668 0.51695 0.59903 0.0
C648 C 0.95406 0.50176 0.57922 0.0
H649 H 0.87508 0.56302 0.6763 0.0
H650 H 0.89022 0.54733 0.64535 0.0
C651 C 0.96588 0.49168 0.56615 0.0
C652 C 0.95457 0.52768 0.61331 0.0
H653 H 0.90704 0.51186 0.6506 0.0
C654 C 0.96655 0.55397 0.61599 0.0
C655 C 0.93261 0.51227 0.62563 0.0
C656 C 0.91942 0.48391 0.62392 0.0
C657 C 0.95747 0.56527 0.63105 0.0
C658 C 0.93606 0.54984 0.64396 0.0
C659 C 0.9235 0.5236 0.64066 0.0
C660 C 0.92733 0.56047 0.66205 0.0
C661 C 0.97098 0.59361 0.63315 0.0
C662 C 0.94317 0.57295 0.6817 0.0
C663 C 0.93453 0.58174 0.69948 0.0
C664 C 0.90982 0.57814 0.698 0.0
C665 C 0.8941 0.56586 0.67812 0.0
C666 C 0.90275 0.557 0.66036 0.0
H667 H 0.9822 0.60259 0.61773 0.0
H668 H 0.95729 0.6003 0.63526 0.0
H669 H 0.98428 0.59993 0.64867 0.0
H670 H 0.96202 0.57534 0.68355 0.0
H671 H 0.94695 0.59064 0.71472 0.0
H672 H 0.50679 0.95183 0.09832 0.0
H673 H 0.46937 0.92817 0.12116 0.0
H674 H 0.48442 0.99707 0.15549 0.0
H675 H 0.52237 0.02068 0.13336 0.0
H676 H 0.47508 0.96229 0.18599 0.0
H677 H 0.40033 0.92087 0.1154 0.0
H678 H 0.42476 0.9132 0.11169 0.0
H679 H 0.43228 0.94552 0.11044 0.0
C680 C 0.50197 0.96195 0.11058 0.0
C681 C 0.51752 0.9881 0.11407 0.0
C682 C 0.48046 0.94843 0.1235 0.0
C683 C 0.4738 0.96089 0.13975 0.0
C684 C 0.48913 0.98706 0.14299 0.0
H685 H 0.33056 0.88607 0.20991 0.0
H686 H 0.36519 0.91332 0.18527 0.0
C687 C 0.51082 0.00053 0.13034 0.0
C688 C 0.45187 0.9465 0.15449 0.0
H689 H 0.38875 0.90244 0.15282 0.0
C690 C 0.45615 0.9494 0.17871 0.0
C691 C 0.42707 0.92998 0.14502 0.0
C692 C 0.42076 0.9274 0.11921 0.0
C693 C 0.43651 0.93575 0.19371 0.0
C694 C 0.41209 0.91808 0.18425 0.0
C695 C 0.40759 0.91572 0.16005 0.0
C696 C 0.39111 0.90161 0.19919 0.0
C697 C 0.44213 0.94066 0.21954 0.0
C698 C 0.39406 0.88575 0.21495 0.0
C699 C 0.37453 0.87054 0.22934 0.0
C700 C 0.35138 0.87047 0.22796 0.0
C701 C 0.34826 0.88597 0.21173 0.0
C702 C 0.36796 0.9014 0.19749 0.0
H703 H 0.45859 0.95978 0.22344 0.0
H704 H 0.42549 0.93881 0.22844 0.0
H705 H 0.447 0.92682 0.22689 0.0
H706 H 0.41153 0.88515 0.21617 0.0
H707 H 0.37776 0.8591 0.24178 0.0
H708 H 0.57519 0.45386 0.60507 0.0
H709 H 0.5641 0.41971 0.63235 0.0
H710 H 0.51674 0.4414 0.66762 0.0
H711 H 0.52731 0.47525 0.64027 0.0
H712 H 0.57312 0.42422 0.67995 0.0
H713 H 0.46979 0.36593 0.65783 0.0
H714 H 0.49126 0.39051 0.63937 0.0
H715 H 0.48014 0.39827 0.66474 0.0
C716 C 0.5622 0.45121 0.61848 0.0
C717 C 0.55206 0.46723 0.62043 0.0
C718 C 0.55591 0.43171 0.63406 0.0
C719 C 0.53932 0.42781 0.6518 0.0
C720 C 0.52912 0.44371 0.65375 0.0
H721 H 0.48914 0.32625 0.76865 0.0
H722 H 0.49758 0.35991 0.7413 0.0
C723 C 0.53532 0.46315 0.63815 0.0
C724 C 0.53368 0.40789 0.66896 0.0
H725 H 0.48544 0.35486 0.69161 0.0
C726 C 0.55397 0.40899 0.68242 0.0
C727 C 0.50864 0.38814 0.67224 0.0
C728 C 0.48622 0.38543 0.65765 0.0
C729 C 0.54989 0.39097 0.69923 0.0
C730 C 0.52489 0.37117 0.70243 0.0
C731 C 0.50456 0.37015 0.68913 0.0
C732 C 0.51963 0.35083 0.71892 0.0
C733 C 0.57231 0.3934 0.71363 0.0
C734 C 0.52892 0.33443 0.71514 0.0
C735 C 0.52402 0.31518 0.73058 0.0
C736 C 0.50972 0.31191 0.75015 0.0
C737 C 0.50014 0.32821 0.75373 0.0
C738 C 0.50501 0.34747 0.73818 0.0
H739 H 0.58903 0.4127 0.71312 0.0
H740 H 0.56742 0.38871 0.732 0.0
H741 H 0.5778 0.38004 0.7067 0.0
H742 H 0.53977 0.33639 0.70009 0.0
H743 H 0.53111 0.30257 0.72695 0.0
H744 H 0.62599 0.98109 0.50675 0.0
H745 H 0.64238 0.956 0.48975 0.0
H746 H 0.59442 0.89345 0.53207 0.0
H747 H 0.57776 0.91843 0.54927 0.0
H748 H 0.66666 0.93085 0.51455 0.0
H749 H 0.57778 0.86551 0.46312 0.0
H750 H 0.5838 0.89563 0.47418 0.0
H751 H 0.57536 0.87004 0.49355 0.0
C752 C 0.61886 0.96199 0.51248 0.0
C753 C 0.60046 0.95172 0.5293 0.0
C754 C 0.62832 0.94773 0.50278 0.0
C755 C 0.61947 0.92288 0.50956 0.0
C756 C 0.60129 0.91255 0.52648 0.0
H757 H 0.65318 0.81723 0.43881 0.0
H758 H 0.63775 0.83474 0.46798 0.0
C759 C 0.59186 0.92687 0.53631 0.0
C760 C 0.62924 0.9079 0.49856 0.0
H761 H 0.61329 0.86089 0.45842 0.0
C762 C 0.65496 0.91536 0.50247 0.0
C763 C 0.61384 0.88761 0.48299 0.0
C764 C 0.58617 0.87917 0.478 0.0
C765 C 0.66591 0.90345 0.49069 0.0
C766 C 0.65082 0.88399 0.4742 0.0
C767 C 0.62483 0.87582 0.47106 0.0
C768 C 0.662 0.87348 0.45847 0.0
C769 C 0.69357 0.912 0.49585 0.0
C770 C 0.68076 0.88944 0.44354 0.0
C771 C 0.68956 0.87953 0.42694 0.0
C772 C 0.67963 0.85339 0.42478 0.0
C773 C 0.66117 0.83743 0.44006 0.0
C774 C 0.6524 0.8474 0.45674 0.0
H775 H 0.69981 0.92023 0.51371 0.0
H776 H 0.69736 0.8962 0.49397 0.0
H777 H 0.70523 0.92681 0.48352 0.0
H778 H 0.68789 0.90953 0.44406 0.0
H779 H 0.70328 0.89229 0.41505 0.0
H780 H 0.62069 0.55605 0.00804 0.0
H781 H 0.65266 0.57126 0.97856 0.0
H782 H 0.7004 0.55388 0.02287 0.0
H783 H 0.66842 0.53814 0.05208 0.0
H784 H 0.70382 0.60802 0.97825 0.0
H785 H 0.69049 0.5127 0.96413 0.0
H786 H 0.66914 0.51813 0.98065 0.0
H787 H 0.69893 0.52378 0.99375 0.0
C788 C 0.63809 0.55568 0.01158 0.0
C789 C 0.64186 0.54556 0.03225 0.0
C790 C 0.65634 0.56438 0.99473 0.0
C791 C 0.67864 0.56318 0.99833 0.0
C792 C 0.68304 0.55439 0.01949 0.0
H793 H 0.81288 0.62943 0.91531 0.0
H794 H 0.78229 0.62145 0.94512 0.0
C795 C 0.66476 0.54549 0.03621 0.0
C796 C 0.69681 0.57002 0.97964 0.0
H797 H 0.72496 0.54631 0.94589 0.0
C798 C 0.70842 0.59455 0.97109 0.0
C799 C 0.70245 0.55227 0.97007 0.0
C800 C 0.68943 0.52518 0.97743 0.0
C801 C 0.72586 0.60192 0.95345 0.0
C802 C 0.73216 0.58439 0.94449 0.0
C803 C 0.7203 0.55981 0.95289 0.0
C804 C 0.75048 0.59069 0.92597 0.0
C805 C 0.73694 0.62819 0.94425 0.0
C806 C 0.74288 0.5759 0.90547 0.0
C807 C 0.76035 0.58018 0.88868 0.0
C808 C 0.7858 0.5994 0.892 0.0
C809 C 0.79332 0.61463 0.91226 0.0
C810 C 0.77584 0.61017 0.92922 0.0
H811 H 0.72509 0.63666 0.94815 0.0
H812 H 0.7561 0.64031 0.95264 0.0
H813 H 0.73888 0.62823 0.92519 0.0
H814 H 0.72343 0.56079 0.90257 0.0
H815 H 0.75396 0.56837 0.87308 0.0
H816 H 0.05281 0.53075 0.48804 0.0
H817 H 0.07413 0.56852 0.46494 0.0
H818 H 0.13758 0.60061 0.51508 0.0
H819 H 0.11662 0.56263 0.53814 0.0
H820 H 0.09071 0.61845 0.47621 0.0
H821 H 0.17126 0.60528 0.45426 0.0
H822 H 0.143 0.58076 0.46675 0.0
H823 H 0.1671 0.60598 0.48484 0.0
C824 C 0.07132 0.54581 0.49418 0.0
C825 C 0.08312 0.54359 0.51484 0.0
C826 C 0.08344 0.5674 0.48097 0.0
C827 C 0.10756 0.58718 0.48813 0.0
C828 C 0.11918 0.58531 0.50901 0.0
H829 H 0.21193 0.72778 0.42468 0.0
H830 H 0.18913 0.69439 0.45223 0.0
C831 C 0.10712 0.56365 0.5222 0.0
C832 C 0.12057 0.60962 0.47358 0.0
H833 H 0.17328 0.64308 0.4424 0.0
C834 C 0.10876 0.62387 0.4688 0.0
C835 C 0.14407 0.61654 0.4639 0.0
C836 C 0.15703 0.60124 0.46748 0.0
C837 C 0.11999 0.64504 0.45472 0.0
C838 C 0.14345 0.6519 0.44506 0.0
C839 C 0.15533 0.63778 0.44997 0.0
C840 C 0.15587 0.6733 0.42929 0.0
C841 C 0.10683 0.66005 0.45047 0.0
C842 C 0.14454 0.67257 0.40737 0.0
C843 C 0.15758 0.69153 0.39152 0.0
C844 C 0.18222 0.71143 0.39732 0.0
C845 C 0.19311 0.7125 0.4196 0.0
C846 C 0.1801 0.69354 0.43539 0.0
H847 H 0.09233 0.65601 0.4634 0.0
H848 H 0.12076 0.68056 0.45105 0.0
H849 H 0.09713 0.65508 0.43295 0.0
H850 H 0.12603 0.65684 0.4022 0.0
H851 H 0.14882 0.69 0.3744 0.0
H852 H 0.53891 0.05531 0.04001 0.0
H853 H 0.52321 0.07916 0.01819 0.0
H854 H 0.57138 0.14505 0.06109 0.0
H855 H 0.58744 0.12128 0.08313 0.0
H856 H 0.49941 0.1071 0.03439 0.0
H857 H 0.59139 0.16672 0.99291 0.0
H858 H 0.58418 0.13776 0.00698 0.0
H859 H 0.592 0.16531 0.0241 0.0
C860 C 0.54616 0.07485 0.04493 0.0
C861 C 0.56461 0.08646 0.0632 0.0
C862 C 0.53705 0.08841 0.03248 0.0
C863 C 0.54629 0.11387 0.03792 0.0
C864 C 0.56422 0.12545 0.05651 0.0
H865 H 0.52124 0.21238 0.94388 0.0
H866 H 0.53304 0.19811 0.97952 0.0
C867 C 0.57332 0.11183 0.06909 0.0
C868 C 0.53774 0.12826 0.02328 0.0
H869 H 0.55683 0.17101 0.98005 0.0
C870 C 0.512 0.12136 0.02272 0.0
C871 C 0.55427 0.1469 0.0082 0.0
C872 C 0.58199 0.15463 0.00784 0.0
C873 C 0.50216 0.13206 0.00691 0.0
C874 C 0.51841 0.14969 0.99094 0.0
C875 C 0.54439 0.15748 0.9923 0.0
C876 C 0.50861 0.15843 0.97123 0.0
C877 C 0.4744 0.12412 0.00726 0.0
C878 C 0.49077 0.14088 0.95488 0.0
C879 C 0.48403 0.14896 0.93457 0.0
C880 C 0.49521 0.17478 0.93007 0.0
C881 C 0.51244 0.19236 0.94682 0.0
C882 C 0.51912 0.18425 0.9672 0.0
H883 H 0.46707 0.11804 0.02482 0.0
H884 H 0.47102 0.13961 0.0019 0.0
H885 H 0.46336 0.10787 0.99505 0.0
H886 H 0.48296 0.12088 0.95726 0.0
H887 H 0.47111 0.13494 0.92181 0.0
H888 H 0.48582 0.52409 0.54703 0.0
H889 H 0.45464 0.50586 0.51429 0.0
H890 H 0.47861 0.45177 0.50191 0.0
H891 H 0.51044 0.47056 0.53396 0.0
H892 H 0.47687 0.47285 0.46313 0.0
H893 H 0.38718 0.44298 0.50653 0.0
H894 H 0.4095 0.47578 0.51171 0.0
H895 H 0.41678 0.45249 0.52259 0.0
C896 C 0.48412 0.50805 0.53755 0.0
C897 C 0.50056 0.49876 0.54302 0.0
C898 C 0.4662 0.49754 0.51891 0.0
C899 C 0.46402 0.4772 0.50579 0.0
C900 C 0.47992 0.46744 0.51176 0.0
H901 H 0.34122 0.39645 0.40107 0.0
H902 H 0.3705 0.40738 0.43496 0.0
C903 C 0.49808 0.47817 0.5301 0.0
C904 C 0.44658 0.46727 0.48481 0.0
H905 H 0.38527 0.44504 0.46504 0.0
C906 C 0.45678 0.46652 0.46362 0.0
C907 C 0.4203 0.45867 0.48544 0.0
C908 C 0.40775 0.45725 0.50784 0.0
C909 C 0.44158 0.45794 0.44299 0.0
C910 C 0.41559 0.45068 0.44339 0.0
C911 C 0.40525 0.45086 0.46467 0.0
C912 C 0.39885 0.44321 0.42195 0.0
C913 C 0.45351 0.45642 0.42109 0.0
C914 C 0.40513 0.45958 0.40322 0.0
C915 C 0.3887 0.45312 0.38355 0.0
C916 C 0.36536 0.43035 0.38237 0.0
C917 C 0.35924 0.41389 0.40111 0.0
C918 C 0.37583 0.42024 0.42065 0.0
H919 H 0.47039 0.45438 0.42508 0.0
H920 H 0.43981 0.44034 0.40967 0.0
H921 H 0.45997 0.47407 0.4114 0.0
H922 H 0.42249 0.47767 0.40401 0.0
H923 H 0.39414 0.46617 0.36941 0.0
H924 H 0.13428 0.51382 0.93153 0.0
H925 H 0.11438 0.47928 0.9023 0.0
H926 H 0.06244 0.43094 0.9526 0.0
H927 H 0.08182 0.46493 0.9816 0.0
H928 H 0.10482 0.42669 0.90378 0.0
H929 H 0.01718 0.43296 0.89709 0.0
H930 H 0.047 0.45814 0.90931 0.0
H931 H 0.02724 0.43147 0.9265 0.0
C932 C 0.11875 0.49575 0.93636 0.0
C933 C 0.10941 0.49222 0.95879 0.0
C934 C 0.10745 0.47609 0.91968 0.0
C935 C 0.08672 0.45277 0.92527 0.0
C936 C 0.07816 0.44895 0.94788 0.0
H937 H 0.00629 0.30098 0.87873 0.0
H938 H 0.03874 0.34277 0.89339 0.0
C939 C 0.0893 0.46845 0.96443 0.0
C940 C 0.07304 0.43238 0.9076 0.0
H941 H 0.01354 0.3944 0.88357 0.0
C942 C 0.08499 0.41983 0.89894 0.0
C943 C 0.04734 0.42381 0.90102 0.0
C944 C 0.03397 0.43744 0.90877 0.0
C945 C 0.07134 0.39787 0.88497 0.0
C946 C 0.04505 0.38813 0.88 0.0
C947 C 0.03362 0.40167 0.88751 0.0
C948 C 0.02839 0.36308 0.86865 0.0
C949 C 0.08514 0.38522 0.87597 0.0
C950 C 0.01169 0.3605 0.84991 0.0
C951 C 0.99285 0.33664 0.84184 0.0
C952 C 0.99045 0.31491 0.85227 0.0
C953 C 0.00794 0.31744 0.87023 0.0
C954 C 0.02661 0.34133 0.8785 0.0
H955 H 0.10553 0.39907 0.87389 0.0
H956 H 0.08412 0.37119 0.88867 0.0
H957 H 0.07657 0.37537 0.85903 0.0
H958 H 0.01263 0.37698 0.8421 0.0
H959 H 0.9797 0.33516 0.82784 0.0
H960 H 0.03469 0.52639 0.01566 0.0
H961 H 0.00387 0.53631 0.99723 0.0
H962 H 0.06246 0.59201 0.95586 0.0
H963 H 0.09316 0.58184 0.97371 0.0
H964 H 0.00203 0.58038 0.99442 0.0
H965 H 0.00865 0.54728 0.90692 0.0
H966 H 0.02183 0.54081 0.93286 0.0
H967 H 0.03882 0.57093 0.91941 0.0
C968 C 0.04102 0.54079 0.00268 0.0
C969 C 0.06629 0.5531 0.99593 0.0
C970 C 0.0234 0.54645 0.9922 0.0
C971 C 0.03078 0.56452 0.97485 0.0
C972 C 0.05622 0.57754 0.96878 0.0
H973 H 0.95937 0.62636 0.88637 0.0
H974 H 0.98861 0.61948 0.91146 0.0
C975 C 0.07377 0.57176 0.97907 0.0
C976 C 0.01185 0.56948 0.96272 0.0
H977 H 0.98648 0.56988 0.90889 0.0
C978 C 0.99848 0.57794 0.97575 0.0
C979 C 0.00713 0.56607 0.93837 0.0
C980 C 0.01967 0.55553 0.92359 0.0
C981 C 0.98102 0.58376 0.96491 0.0
C982 C 0.97687 0.58096 0.94054 0.0
C983 C 0.98996 0.57221 0.92758 0.0
C984 C 0.95901 0.58694 0.92792 0.0
C985 C 0.96747 0.59335 0.9794 0.0
C986 C 0.93271 0.57107 0.92918 0.0
C987 C 0.91593 0.57493 0.91484 0.0
C988 C 0.92524 0.59478 0.8991 0.0
C989 C 0.9516 0.61118 0.89858 0.0
C990 C 0.96833 0.6072 0.91278 0.0
H991 H 0.97548 0.59793 0.99758 0.0
H992 H 0.96861 0.61042 0.97162 0.0
H993 H 0.94709 0.57875 0.97973 0.0
H994 H 0.92522 0.55515 0.94058 0.0
H995 H 0.89571 0.56204 0.91561 0.0
H996 H 0.55361 0.02529 0.47128 0.0
H997 H 0.52033 0.0106 0.44014 0.0
H998 H 0.47432 0.9432 0.47788 0.0
H999 H 0.5074 0.95749 0.50888 0.0
H1000 H 0.47987 0.93458 0.43122 0.0
H1001 H 0.4503 0.00628 0.44056 0.0
H1002 H 0.48372 0.01822 0.43794 0.0
H1003 H 0.46844 0.00091 0.4631 0.0
C1004 C 0.53634 0.00741 0.47301 0.0
C1005 C 0.53316 0.99254 0.49257 0.0
C1006 C 0.51731 0.99913 0.45526 0.0
C1007 C 0.4948 0.97596 0.45686 0.0
C1008 C 0.49155 0.96119 0.47638 0.0
H1009 H 0.34856 0.90143 0.38694 0.0
H1010 H 0.38605 0.92742 0.41236 0.0
C1011 C 0.51049 0.96941 0.49409 0.0
C1012 C 0.47495 0.96632 0.43781 0.0
H1013 H 0.43019 0.97617 0.40992 0.0
C1014 C 0.46911 0.94375 0.42643 0.0
C1015 C 0.4609 0.9783 0.43179 0.0
C1016 C 0.46592 0.00218 0.44405 0.0
C1017 C 0.44928 0.93253 0.4094 0.0
C1018 C 0.43522 0.94449 0.40331 0.0
C1019 C 0.44123 0.96725 0.41448 0.0
C1020 C 0.41298 0.93247 0.38667 0.0
C1021 C 0.44292 0.90745 0.39874 0.0
C1022 C 0.41578 0.92761 0.36353 0.0
C1023 C 0.39439 0.91276 0.34896 0.0
C1024 C 0.36988 0.90274 0.35726 0.0
C1025 C 0.36717 0.90908 0.37997 0.0
C1026 C 0.38857 0.92384 0.39455 0.0
H1027 H 0.45207 0.89842 0.40874 0.0
H1028 H 0.42207 0.89436 0.39772 0.0
H1029 H 0.4497 0.9103 0.38082 0.0
H1030 H 0.4345 0.9345 0.35703 0.0
H1031 H 0.39701 0.90844 0.33143 0.0
H1032 H 0.54078 0.44636 0.03004 0.0
H1033 H 0.52662 0.41281 0.00068 0.0
H1034 H 0.58022 0.39265 0.02986 0.0
H1035 H 0.59403 0.42585 0.05979 0.0
H1036 H 0.55519 0.41005 0.9681 0.0
H1037 H 0.51731 0.32429 0.02108 0.0
H1038 H 0.52411 0.35439 0.03286 0.0
H1039 H 0.54936 0.34768 0.02951 0.0
C1040 C 0.5493 0.43455 0.03046 0.0
C1041 C 0.56854 0.43876 0.04724 0.0
C1042 C 0.54119 0.41538 0.01364 0.0
C1043 C 0.55218 0.40005 0.01316 0.0
C1044 C 0.57105 0.40385 0.03018 0.0
H1045 H 0.54471 0.29329 0.90991 0.0
H1046 H 0.55613 0.32293 0.94276 0.0
C1047 C 0.57902 0.42291 0.04722 0.0
C1048 C 0.54512 0.38146 0.99379 0.0
H1049 H 0.52229 0.31919 0.98102 0.0
C1050 C 0.54784 0.39016 0.97095 0.0
C1051 C 0.53562 0.35552 0.99752 0.0
C1052 C 0.53118 0.34483 0.02155 0.0
C1053 C 0.54152 0.3737 0.95178 0.0
C1054 C 0.53212 0.34785 0.95553 0.0
C1055 C 0.52953 0.33908 0.97829 0.0
C1056 C 0.5249 0.32967 0.93591 0.0
C1057 C 0.54525 0.38408 0.92763 0.0
C1058 C 0.50346 0.32359 0.92135 0.0
C1059 C 0.49689 0.30669 0.90259 0.0
C1060 C 0.51175 0.29571 0.89803 0.0
C1061 C 0.53314 0.30176 0.91278 0.0
C1062 C 0.53957 0.31851 0.93163 0.0
H1063 H 0.5569 0.40496 0.92783 0.0
H1064 H 0.55454 0.37622 0.917 0.0
H1065 H 0.52645 0.37848 0.91904 0.0
H1066 H 0.49182 0.33193 0.92452 0.0
H1067 H 0.48036 0.30244 0.89149 0.0
H1068 H 0.08295 0.44877 0.50936 0.0
H1069 H 0.09717 0.42934 0.48152 0.0
H1070 H 0.02462 0.39674 0.44378 0.0
H1071 H 0.01013 0.41656 0.47164 0.0
H1072 H 0.07646 0.37799 0.46898 0.0
H1073 H 0.07644 0.43553 0.39409 0.0
H1074 H 0.07442 0.44393 0.42359 0.0
H1075 H 0.04738 0.41803 0.40888 0.0
C1076 C 0.06989 0.43747 0.4952 0.0
C1077 C 0.04542 0.43437 0.49266 0.0
C1078 C 0.07807 0.42629 0.47932 0.0
C1079 C 0.06205 0.41179 0.4605 0.0
C1080 C 0.03739 0.40816 0.45804 0.0
H1081 H 0.12652 0.3665 0.34849 0.0
H1082 H 0.09349 0.36612 0.37186 0.0
C1083 C 0.02913 0.41941 0.474 0.0
C1084 C 0.07192 0.40122 0.44343 0.0
H1085 H 0.09496 0.41049 0.38915 0.0
C1086 C 0.08008 0.38471 0.45137 0.0
C1087 C 0.07646 0.40989 0.42042 0.0
C1088 C 0.06839 0.42793 0.41113 0.0
C1089 C 0.09392 0.37775 0.43735 0.0
C1090 C 0.09998 0.38781 0.41496 0.0
C1091 C 0.0903 0.40288 0.40639 0.0
C1092 C 0.11901 0.38573 0.40147 0.0
C1093 C 0.10271 0.36039 0.44694 0.0
C1094 C 0.14418 0.39688 0.41041 0.0
C1095 C 0.16296 0.39723 0.39716 0.0
C1096 C 0.15694 0.38646 0.37465 0.0
C1097 C 0.1316 0.37474 0.36587 0.0
C1098 C 0.11278 0.37458 0.37913 0.0
H1099 H 0.09019 0.34827 0.46057 0.0
H1100 H 0.10321 0.34819 0.43299 0.0
H1101 H 0.12217 0.37182 0.45495 0.0
H1102 H 0.14947 0.40599 0.42745 0.0
H1103 H 0.1823 0.40624 0.4044 0.0
H1104 H 0.61466 0.0131 0.01429 0.0
H1105 H 0.64872 0.02689 0.98705 0.0
H1106 H 0.69237 0.09687 0.02588 0.0
H1107 H 0.65851 0.08345 0.05301 0.0
H1108 H 0.68778 0.10243 0.97793 0.0
H1109 H 0.71952 0.03357 0.99755 0.0
H1110 H 0.68601 0.02018 0.99116 0.0
H1111 H 0.70045 0.0396 0.01683 0.0
C1112 C 0.63155 0.03138 0.01708 0.0
C1113 C 0.63386 0.04718 0.03582 0.0
C1114 C 0.65105 0.03913 0.00161 0.0
C1115 C 0.67316 0.06274 0.00468 0.0
C1116 C 0.6755 0.07852 0.02332 0.0
H1117 H 0.81618 0.13178 0.93624 0.0
H1118 H 0.78277 0.11157 0.96421 0.0
C1119 C 0.65609 0.0708 0.03879 0.0
C1120 C 0.69339 0.07169 0.98783 0.0
H1121 H 0.73772 0.06012 0.96557 0.0
C1122 C 0.69871 0.0932 0.97523 0.0
C1123 C 0.70774 0.0597 0.98457 0.0
C1124 C 0.70337 0.0371 0.99835 0.0
C1125 C 0.71787 0.10295 0.95924 0.0
C1126 C 0.73183 0.09065 0.95556 0.0
C1127 C 0.72678 0.06932 0.96835 0.0
C1128 C 0.75181 0.09997 0.93849 0.0
C1129 C 0.72325 0.12653 0.94658 0.0
C1130 C 0.74532 0.09931 0.91479 0.0
C1131 C 0.76425 0.11074 0.89886 0.0
C1132 C 0.79003 0.12299 0.90636 0.0
C1133 C 0.79648 0.12242 0.92998 0.0
C1134 C 0.77747 0.11096 0.94594 0.0
H1135 H 0.71474 0.13664 0.95499 0.0
H1136 H 0.74403 0.13954 0.94578 0.0
H1137 H 0.71508 0.12139 0.92851 0.0
H1138 H 0.72559 0.09055 0.90871 0.0
H1139 H 0.75872 0.11044 0.8807 0.0
H1140 H 0.62838 0.56193 0.51906 0.0
H1141 H 0.64694 0.59354 0.48903 0.0
H1142 H 0.60964 0.63177 0.51519 0.0
H1143 H 0.59077 0.60021 0.54493 0.0
H1144 H 0.60228 0.62302 0.46782 0.0
H1145 H 0.70456 0.66704 0.49493 0.0
H1146 H 0.68819 0.63339 0.49102 0.0
H1147 H 0.67957 0.64724 0.51378 0.0
C1148 C 0.62432 0.5772 0.51854 0.0
C1149 C 0.60807 0.57852 0.53438 0.0
C1150 C 0.63505 0.59531 0.50145 0.0
C1151 C 0.62987 0.61513 0.50005 0.0
C1152 C 0.61392 0.61664 0.51601 0.0
H1153 H 0.69729 0.7528 0.42388 0.0
H1154 H 0.68444 0.72012 0.45299 0.0
C1155 C 0.60316 0.59857 0.53301 0.0
C1156 C 0.63991 0.63367 0.4813 0.0
H1157 H 0.69454 0.68026 0.45938 0.0
C1158 C 0.62245 0.6355 0.46593 0.0
C1159 C 0.66623 0.65006 0.47905 0.0
C1160 C 0.68578 0.64958 0.49567 0.0
C1161 C 0.63056 0.65335 0.44839 0.0
C1162 C 0.65688 0.66948 0.44588 0.0
C1163 C 0.67438 0.66767 0.46124 0.0
C1164 C 0.66646 0.68907 0.42803 0.0
C1165 C 0.61086 0.65526 0.43312 0.0
C1166 C 0.66117 0.68241 0.40434 0.0
C1167 C 0.66849 0.70102 0.38767 0.0
C1168 C 0.68141 0.72664 0.3944 0.0
C1169 C 0.68755 0.73324 0.41812 0.0
C1170 C 0.68016 0.71461 0.43477 0.0
H1171 H 0.59191 0.64571 0.44074 0.0
H1172 H 0.61653 0.67524 0.43021 0.0
H1173 H 0.60904 0.64612 0.41599 0.0
H1174 H 0.65105 0.66279 0.39876 0.0
H1175 H 0.66388 0.69536 0.36951 0.0
H1176 H 0.52212 0.98466 0.61657 0.0
H1177 H 0.50443 0.00216 0.64326 0.0
H1178 H 0.53919 0.07201 0.60666 0.0
H1179 H 0.55711 0.05482 0.58001 0.0
H1180 H 0.54974 0.07735 0.65486 0.0
H1181 H 0.44627 0.01802 0.63329 0.0
H1182 H 0.46268 0.00093 0.63899 0.0
H1183 H 0.4701 0.02058 0.61409 0.0
C1184 C 0.52579 0.00365 0.61404 0.0
C1185 C 0.54109 0.01837 0.59619 0.0
C1186 C 0.51551 0.01355 0.62921 0.0
C1187 C 0.52027 0.03826 0.62674 0.0
C1188 C 0.53519 0.05284 0.60875 0.0
H1189 H 0.46571 0.12355 0.70087 0.0
H1190 H 0.47375 0.10008 0.67128 0.0
C1191 C 0.54543 0.04297 0.59356 0.0
C1192 C 0.51141 0.04965 0.64396 0.0
H1193 H 0.45839 0.04481 0.6669 0.0
C1194 C 0.52977 0.07029 0.65743 0.0
C1195 C 0.48534 0.04047 0.64714 0.0
C1196 C 0.46489 0.01891 0.6325 0.0
C1197 C 0.52278 0.0818 0.67429 0.0
C1198 C 0.49676 0.07224 0.67789 0.0
C1199 C 0.47832 0.05188 0.66418 0.0
C1200 C 0.48863 0.0835 0.69584 0.0
C1201 C 0.54328 0.10423 0.68805 0.0
C1202 C 0.49358 0.08121 0.7194 0.0
C1203 C 0.4889 0.09443 0.73631 0.0
C1204 C 0.47921 0.11022 0.72993 0.0
C1205 C 0.47301 0.11141 0.70635 0.0
C1206 C 0.47767 0.09811 0.68943 0.0
H1207 H 0.56201 0.1122 0.68014 0.0
H1208 H 0.53826 0.11924 0.68943 0.0
H1209 H 0.54514 0.09838 0.7059 0.0
H1210 H 0.50179 0.06977 0.72465 0.0
H1211 H 0.49343 0.09276 0.75436 0.0
H1212 H 0.52996 0.45968 0.12956 0.0
H1213 H 0.49393 0.4473 0.15393 0.0
H1214 H 0.47911 0.50215 0.12124 0.0
H1215 H 0.51481 0.51424 0.09633 0.0
H1216 H 0.48813 0.47616 0.18549 0.0
H1217 H 0.40897 0.44067 0.11861 0.0
H1218 H 0.4402 0.44652 0.11228 0.0
H1219 H 0.43395 0.47217 0.11377 0.0
C1220 C 0.51887 0.46893 0.12733 0.0
C1221 C 0.52523 0.48792 0.11095 0.0
C1222 C 0.49829 0.46184 0.14131 0.0
C1223 C 0.48361 0.47357 0.13924 0.0
C1224 C 0.48977 0.49241 0.12278 0.0
H1225 H 0.36417 0.46848 0.22015 0.0
H1226 H 0.39826 0.47929 0.19349 0.0
C1227 C 0.51028 0.4994 0.10863 0.0
C1228 C 0.4628 0.46697 0.15522 0.0
H1229 H 0.39933 0.4461 0.15704 0.0
C1230 C 0.46869 0.46944 0.17925 0.0
C1231 C 0.43744 0.45824 0.14707 0.0
C1232 C 0.42966 0.45399 0.12154 0.0
C1233 C 0.44999 0.46373 0.19533 0.0
C1234 C 0.42472 0.45517 0.18717 0.0
C1235 C 0.41878 0.45275 0.16319 0.0
C1236 C 0.40417 0.44856 0.20334 0.0
C1237 C 0.45744 0.46727 0.22094 0.0
C1238 C 0.39614 0.42759 0.21754 0.0
C1239 C 0.37671 0.42137 0.23278 0.0
C1240 C 0.365 0.43606 0.23411 0.0
C1241 C 0.37307 0.45701 0.21977 0.0
C1242 C 0.39239 0.46312 0.20443 0.0
H1243 H 0.47835 0.47872 0.22421 0.0
H1244 H 0.44839 0.47653 0.22989 0.0
H1245 H 0.45077 0.44858 0.22874 0.0
H1246 H 0.40486 0.41598 0.21676 0.0
H1247 H 0.371 0.4052 0.24368 0.0
H1248 H 0.99259 0.40795 0.58582 0.0
H1249 H 0.9812 0.37594 0.61519 0.0
H1250 H 0.05922 0.4122 0.64134 0.0
H1251 H 0.07074 0.44487 0.61229 0.0
H1252 H 0.99725 0.34232 0.62309 0.0
H1253 H 0.02223 0.40697 0.69969 0.0
H1254 H 0.02027 0.41656 0.67045 0.0
H1255 H 0.0476 0.41479 0.68066 0.0
C1256 C 0.00738 0.40919 0.59781 0.0
C1257 C 0.03255 0.42907 0.59683 0.0
C1258 C 0.00083 0.39083 0.61457 0.0
C1259 C 0.01929 0.39187 0.63065 0.0
C1260 C 0.04457 0.41135 0.62942 0.0
H1261 H 0.98921 0.28664 0.74511 0.0
H1262 H 0.01195 0.31732 0.71505 0.0
C1263 C 0.05113 0.42992 0.61275 0.0
C1264 C 0.01167 0.37251 0.64867 0.0
H1265 H 0.00614 0.36402 0.70715 0.0
C1266 C 0.99941 0.34708 0.64148 0.0
C1267 C 0.01455 0.37879 0.67267 0.0
C1268 C 0.02668 0.40573 0.68141 0.0
C1269 C 0.98928 0.32776 0.65759 0.0
C1270 C 0.99149 0.33406 0.68144 0.0
C1271 C 0.00465 0.3594 0.68878 0.0
C1272 C 0.97803 0.31469 0.69877 0.0
C1273 C 0.97571 0.3007 0.64906 0.0
C1274 C 0.95158 0.30326 0.69943 0.0
C1275 C 0.93867 0.28603 0.71656 0.0
C1276 C 0.95201 0.27984 0.73325 0.0
C1277 C 0.9785 0.29098 0.73231 0.0
C1278 C 0.99147 0.30849 0.71528 0.0
H1279 H 0.98013 0.2989 0.6309 0.0
H1280 H 0.98094 0.28921 0.66041 0.0
H1281 H 0.95491 0.29285 0.64967 0.0
H1282 H 0.94097 0.30803 0.68691 0.0
H1283 H 0.91823 0.27756 0.7168 0.0
H1284 H 0.64746 0.05814 0.15952 0.0
H1285 H 0.67128 0.04317 0.18359 0.0
H1286 H 0.63906 0.97522 0.1413 0.0
H1287 H 0.61557 0.98991 0.11725 0.0
H1288 H 0.65193 0.99873 0.20908 0.0
H1289 H 0.71501 0.99958 0.14253 0.0
H1290 H 0.69789 0.01648 0.13937 0.0
H1291 H 0.68232 0.98331 0.13232 0.0
C1292 C 0.64558 0.04007 0.15532 0.0
C1293 C 0.6297 0.02528 0.1364 0.0
C1294 C 0.65921 0.03158 0.16904 0.0
C1295 C 0.65735 0.00835 0.16388 0.0
C1296 C 0.6413 0.99351 0.14521 0.0
H1297 H 0.67675 0.89169 0.21457 0.0
H1298 H 0.66999 0.92269 0.19369 0.0
C1299 C 0.6277 0.00188 0.13158 0.0
C1300 C 0.67095 0.99861 0.17851 0.0
H1301 H 0.70812 0.97186 0.17468 0.0
C1302 C 0.66473 0.99341 0.2018 0.0
C1303 C 0.68774 0.99182 0.16894 0.0
C1304 C 0.69634 0.99833 0.14447 0.0
C1305 C 0.67338 0.97987 0.21525 0.0
C1306 C 0.68876 0.97161 0.20513 0.0
C1307 C 0.6962 0.97813 0.18231 0.0
C1308 C 0.69482 0.95381 0.21702 0.0
C1309 C 0.66474 0.9731 0.23968 0.0
C1310 C 0.71148 0.96125 0.23673 0.0
C1311 C 0.71544 0.94355 0.24868 0.0
C1312 C 0.70263 0.91818 0.24111 0.0
C1313 C 0.68663 0.91105 0.22091 0.0
C1314 C 0.68285 0.92873 0.20894 0.0
H1315 H 0.65071 0.97877 0.24411 0.0
H1316 H 0.6561 0.95249 0.24196 0.0
H1317 H 0.68139 0.98267 0.25215 0.0
H1318 H 0.72102 0.98059 0.24309 0.0
H1319 H 0.72776 0.9495 0.26427 0.0
H1320 H 0.63782 0.58014 0.62438 0.0
H1321 H 0.66622 0.60005 0.6585 0.0
H1322 H 0.60451 0.59668 0.69528 0.0
H1323 H 0.57572 0.57683 0.66087 0.0
H1324 H 0.6729 0.64709 0.69122 0.0
H1325 H 0.63589 0.55156 0.72804 0.0
H1326 H 0.63499 0.55501 0.69697 0.0
H1327 H 0.61475 0.56088 0.71438 0.0
C1328 C 0.63031 0.58399 0.63956 0.0
C1329 C 0.6045 0.57674 0.64004 0.0
C1330 C 0.6466 0.59547 0.65898 0.0
C1331 C 0.63737 0.59974 0.67929 0.0
C1332 C 0.6119 0.59358 0.67963 0.0
H1333 H 0.73574 0.6145 0.80012 0.0
H1334 H 0.69858 0.61274 0.77996 0.0
C1335 C 0.59555 0.58228 0.66001 0.0
C1336 C 0.65414 0.60811 0.70053 0.0
H1337 H 0.67493 0.58397 0.74366 0.0
C1338 C 0.67304 0.63349 0.70315 0.0
C1339 C 0.65403 0.59031 0.71611 0.0
C1340 C 0.63387 0.56286 0.71394 0.0
C1341 C 0.69288 0.64128 0.72016 0.0
C1342 C 0.69416 0.62303 0.7343 0.0
C1343 C 0.67408 0.59799 0.7328 0.0
C1344 C 0.71753 0.62846 0.74814 0.0
C1345 C 0.71264 0.66885 0.7223 0.0
C1346 C 0.74062 0.6382 0.73713 0.0
C1347 C 0.76179 0.63936 0.74862 0.0
C1348 C 0.76024 0.63042 0.77127 0.0
C1349 C 0.73742 0.62147 0.78264 0.0
C1350 C 0.71625 0.62054 0.77118 0.0
H1351 H 0.70406 0.68073 0.71813 0.0
H1352 H 0.72184 0.67406 0.74003 0.0
H1353 H 0.72743 0.67317 0.70964 0.0
H1354 H 0.74192 0.64357 0.71912 0.0
H1355 H 0.77892 0.64581 0.73921 0.0
H1356 H 0.13913 0.60213 0.0623 0.0
H1357 H 0.16136 0.63965 0.08719 0.0
H1358 H 0.2293 0.66444 0.04959 0.0
H1359 H 0.20697 0.62653 0.02428 0.0
H1360 H 0.23613 0.66343 0.09841 0.0
H1361 H 0.18485 0.71406 0.07572 0.0
H1362 H 0.16342 0.6813 0.08041 0.0
H1363 H 0.18441 0.6904 0.05674 0.0
C1364 C 0.15872 0.61565 0.05907 0.0
C1365 C 0.17133 0.61132 0.04136 0.0
C1366 C 0.17133 0.63724 0.07319 0.0
C1367 C 0.19682 0.65502 0.06998 0.0
C1368 C 0.2095 0.65105 0.05213 0.0
H1369 H 0.2576 0.77838 0.17553 0.0
H1370 H 0.25097 0.75834 0.13704 0.0
C1371 C 0.19675 0.62943 0.03773 0.0
C1372 C 0.21043 0.67619 0.08699 0.0
H1373 H 0.20383 0.72137 0.11498 0.0
C1374 C 0.22959 0.67659 0.10168 0.0
C1375 C 0.20214 0.69357 0.09104 0.0
C1376 C 0.18275 0.69501 0.07497 0.0
C1377 C 0.23903 0.6924 0.12152 0.0
C1378 C 0.22882 0.70792 0.12684 0.0
C1379 C 0.21136 0.70917 0.11104 0.0
C1380 C 0.23362 0.72045 0.14991 0.0
C1381 C 0.25905 0.69157 0.13719 0.0
C1382 C 0.22552 0.70572 0.16971 0.0
C1383 C 0.22895 0.71698 0.19155 0.0
C1384 C 0.24058 0.7433 0.1941 0.0
C1385 C 0.24843 0.75806 0.17415 0.0
C1386 C 0.24485 0.74669 0.15219 0.0
H1387 H 0.27039 0.68537 0.12745 0.0
H1388 H 0.27208 0.71027 0.1455 0.0
H1389 H 0.24968 0.67786 0.15108 0.0
H1390 H 0.21616 0.68538 0.16822 0.0
H1391 H 0.2221 0.70499 0.20643 0.0
loop_
_geom_bond_atom_site_label_1
_geom_bond_atom_site_label_2
_geom_bond_distance
_geom_bond_site_symmetry_2
_ccdc_geom_bond_type
C0 O2 1.247 . S
C0 O4 1.258 . S
C1 O8 1.247 . S
C1 O9 1.258 . S
O2 C0 1.247 . S
O2 Zn3 2.028 . S
Zn3 O2 2.028 . S
Zn3 O7 2.035 1_554 S
Zn3 O9 2.035 1_554 S
Zn3 O10 2.028 . S
O4 C0 1.258 . S
O4 Zn5 2.035 1_554 S
Zn5 O4 2.035 1_556 S
Zn5 O6 2.028 . S
Zn5 O8 2.028 . S
Zn5 O11 2.035 1_556 S
O6 Zn5 2.028 . S
O6 C12 1.247 . S
O7 Zn3 2.035 1_556 S
O7 C12 1.258 . S
O8 C1 1.247 . S
O8 Zn5 2.028 . S
O9 C1 1.258 . S
O9 Zn3 2.035 1_556 S
O10 Zn3 2.028 . S
O10 C13 1.247 . S
O11 Zn5 2.035 1_554 S
O11 C13 1.258 . S
C12 O6 1.247 . S
C12 O7 1.258 . S
C13 O10 1.247 . S
C13 O11 1.258 . S
C14 O16 1.247 1_545 S
C14 O18 1.258 . S
C15 O22 1.247 1_565 S
C15 O23 1.258 . S
O16 C14 1.247 1_565 S
O16 Zn17 2.028 . S
Zn17 O16 2.028 . S
Zn17 O21 2.035 . S
Zn17 O23 2.035 . S
Zn17 O24 2.028 . S
O18 C14 1.258 . S
O18 Zn19 2.035 . S
Zn19 O18 2.035 . S
Zn19 O20 2.028 . S
Zn19 O22 2.028 . S
Zn19 O25 2.035 . S
O20 Zn19 2.028 . S
O20 C26 1.247 1_545 S
O21 Zn17 2.035 . S
O21 C26 1.258 . S
O22 C15 1.247 1_545 S
O22 Zn19 2.028 . S
O23 C15 1.258 . S
O23 Zn17 2.035 . S
O24 Zn17 2.028 . S
O24 C27 1.247 1_565 S
O25 Zn19 2.035 . S
O25 C27 1.258 . S
C26 O20 1.247 1_565 S
C26 O21 1.258 . S
C27 O24 1.247 1_545 S
C27 O25 1.258 . S
C28 O30 1.247 . S
C28 O32 1.258 . S
C29 O36 1.247 . S
C29 O37 1.258 . S
O30 C28 1.247 . S
O30 Zn31 2.028 . S
Zn31 O30 2.028 . S
Zn31 O35 2.035 . S
Zn31 O37 2.035 . S
Zn31 O38 2.028 . S
O32 C28 1.258 . S
O32 Zn33 2.035 . S
Zn33 O32 2.035 . S
Zn33 O34 2.028 . S
Zn33 O36 2.028 . S
Zn33 O39 2.035 . S
O34 Zn33 2.028 . S
O34 C40 1.247 . S
O35 Zn31 2.035 . S
O35 C40 1.258 . S
O36 C29 1.247 . S
O36 Zn33 2.028 . S
O37 C29 1.258 . S
O37 Zn31 2.035 . S
O38 Zn31 2.028 . S
O38 C41 1.247 . S
O39 Zn33 2.035 . S
O39 C41 1.258 . S
C40 O34 1.247 . S
C40 O35 1.258 . S
C41 O38 1.247 . S
C41 O39 1.258 . S
C42 O44 1.247 . S
C42 O46 1.223 1_455 S
C43 O50 1.247 . S
C43 O51 1.258 1_655 S
O44 C42 1.247 . S
O44 Zn45 2.028 . S
Zn45 O44 2.028 . S
Zn45 O49 2.035 . S
Zn45 O51 2.035 . S
Zn45 O52 2.028 . S
O46 C42 1.223 1_655 S
O46 Zn47 2.043 . S
Zn47 O46 2.043 . S
Zn47 O48 2.028 . S
Zn47 O50 2.028 . S
Zn47 O53 2.062 . S
O48 Zn47 2.028 . S
O48 C54 1.247 . S
O49 Zn45 2.035 . S
O49 C54 1.258 1_455 S
O50 C43 1.247 . S
O50 Zn47 2.028 . S
O51 C43 1.258 1_455 S
O51 Zn45 2.035 . S
O52 Zn45 2.028 . S
O52 C55 1.247 . S
O53 Zn47 2.062 . S
O53 C55 1.227 1_655 S
C54 O48 1.247 . S
C54 O49 1.258 1_655 S
C55 O52 1.247 . S
C55 O53 1.227 1_455 S
C56 O58 1.247 . S
C56 O60 1.258 . S
C57 O64 1.247 . S
C57 O65 1.258 . S
O58 C56 1.247 . S
O58 Zn59 2.028 . S
Zn59 O58 2.028 . S
Zn59 O63 2.035 . S
Zn59 O65 2.035 . S
Zn59 O66 2.028 . S
O60 C56 1.258 . S
O60 Zn61 2.035 . S
Zn61 O60 2.035 . S
Zn61 O62 2.028 . S
Zn61 O64 2.028 . S
Zn61 O67 2.035 . S
O62 Zn61 2.028 . S
O62 C68 1.247 . S
O63 Zn59 2.035 . S
O63 C68 1.258 . S
O64 C57 1.247 . S
O64 Zn61 2.028 . S
O65 C57 1.258 . S
O65 Zn59 2.035 . S
O66 Zn59 2.028 . S
O66 C69 1.247 . S
O67 Zn61 2.035 . S
O67 C69 1.258 . S
C68 O62 1.247 . S
C68 O63 1.258 . S
C69 O66 1.247 . S
C69 O67 1.258 . S
C70 O72 1.247 . S
C70 O74 1.258 . S
C71 O78 1.247 . S
C71 O79 1.258 . S
O72 C70 1.247 . S
O72 Zn73 2.028 . S
Zn73 O72 2.028 . S
Zn73 O77 2.035 . S
Zn73 O79 2.035 . S
Zn73 O80 2.028 . S
O74 C70 1.258 . S
O74 Zn75 2.035 . S
Zn75 O74 2.035 . S
Zn75 O76 2.028 . S
Zn75 O78 2.028 . S
Zn75 O81 2.035 . S
O76 Zn75 2.028 . S
O76 C82 1.247 . S
O77 Zn73 2.035 . S
O77 C82 1.258 . S
O78 C71 1.247 . S
O78 Zn75 2.028 . S
O79 C71 1.258 . S
O79 Zn73 2.035 . S
O80 Zn73 2.028 . S
O80 C83 1.247 . S
O81 Zn75 2.035 . S
O81 C83 1.258 . S
C82 O76 1.247 . S
C82 O77 1.258 . S
C83 O80 1.247 . S
C83 O81 1.258 . S
H84 O110 0.856 . S
H85 O113 0.854 . S
H86 C121 0.930 . S
H87 C122 0.930 . S
H88 C124 0.930 . S
H89 C125 0.930 . S
H90 C127 0.931 . S
H91 C128 0.930 . S
H92 C130 0.930 . S
H93 C131 0.929 . S
H94 C133 0.930 . S
H95 C134 0.931 . S
H96 C136 0.930 . S
H97 C137 0.929 . S
H98 C139 0.931 . S
H99 C140 0.930 . S
H100 C142 0.930 . S
H101 C143 0.932 . S
H102 C145 0.930 . S
H103 C146 0.929 . S
H104 C148 0.931 . S
H105 C149 0.930 . S
H106 C151 0.929 . S
H107 C152 0.931 . S
H108 C154 0.930 . S
H109 C155 0.929 . S
O110 H84 0.856 . S
O110 C156 1.300 . S
O111 C156 1.209 . S
O112 C157 1.199 . S
O113 H85 0.854 . S
O113 C157 1.297 . S
C114 C115 1.404 . S
C114 C119 1.397 . S
C114 C120 1.492 . S
C115 C114 1.404 . S
C115 C116 1.396 . S
C115 C126 1.492 . S
C116 C115 1.396 . S
C116 C117 1.397 . S
C116 C132 1.509 . S
C117 C116 1.397 . S
C117 C118 1.412 . S
C117 C138 1.485 . S
C118 C117 1.412 . S
C118 C119 1.388 . S
C118 C144 1.490 . S
C119 C114 1.397 . S
C119 C118 1.388 . S
C119 C150 1.519 . S
C120 C114 1.492 . S
C120 C121 1.363 . S
C120 C125 1.390 . S
C121 H86 0.930 . S
C121 C120 1.363 . S
C121 C122 1.372 . S
C122 H87 0.930 . S
C122 C121 1.372 . S
C122 C123 1.383 . S
C123 C122 1.383 . S
C123 C124 1.395 . S
C124 H88 0.930 . S
C124 C123 1.395 . S
C124 C125 1.362 . S
C125 H89 0.930 . S
C125 C120 1.390 . S
C125 C124 1.362 . S
C126 C115 1.492 . S
C126 C127 1.377 . S
C126 C131 1.397 . S
C127 H90 0.931 . S
C127 C126 1.377 . S
C127 C128 1.376 . S
C128 H91 0.930 . S
C128 C127 1.376 . S
C128 C129 1.376 . S
C129 C128 1.376 . S
C129 C130 1.378 . S
C129 C156 1.486 . S
C130 H92 0.930 . S
C130 C129 1.378 . S
C130 C131 1.376 . S
C131 H93 0.929 . S
C131 C126 1.397 . S
C131 C130 1.376 . S
C132 C116 1.509 . S
C132 C133 1.391 . S
C132 C137 1.386 . S
C133 H94 0.930 . S
C133 C132 1.391 . S
C133 C134 1.375 . S
C134 H95 0.931 . S
C134 C133 1.375 . S
C134 C135 1.375 . S
C135 C134 1.375 . S
C135 C136 1.361 . S
C136 H96 0.930 . S
C136 C135 1.361 . S
C136 C137 1.399 . S
C137 H97 0.929 . S
C137 C132 1.386 . S
C137 C136 1.399 . S
C138 C117 1.485 . S
C138 C139 1.394 . S
C138 C143 1.360 . S
C139 H98 0.931 . S
C139 C138 1.394 . S
C139 C140 1.372 . S
C140 H99 0.930 . S
C140 C139 1.372 . S
C140 C141 1.397 . S
C141 C140 1.397 . S
C141 C142 1.390 . S
C141 C157 1.476 . S
C142 H100 0.930 . S
C142 C141 1.390 . S
C142 C143 1.366 . S
C143 H101 0.932 . S
C143 C138 1.360 . S
C143 C142 1.366 . S
C144 C118 1.490 . S
C144 C145 1.380 . S
C144 C149 1.386 . S
C145 H102 0.930 . S
C145 C144 1.380 . S
C145 C146 1.381 . S
C146 H103 0.929 . S
C146 C145 1.381 . S
C146 C147 1.371 . S
C147 C146 1.371 . S
C147 C148 1.380 . S
C148 H104 0.931 . S
C148 C147 1.380 . S
C148 C149 1.387 . S
C149 H105 0.930 . S
C149 C144 1.386 . S
C149 C148 1.387 . S
C150 C119 1.519 . S
C150 C151 1.377 . S
C150 C155 1.361 . S
C151 H106 0.929 . S
C151 C150 1.377 . S
C151 C152 1.386 . S
C152 H107 0.931 . S
C152 C151 1.386 . S
C152 C153 1.363 . S
C153 C152 1.363 . S
C153 C154 1.385 . S
C154 H108 0.930 . S
C154 C153 1.385 . S
C154 C155 1.396 . S
C155 H109 0.929 . S
C155 C150 1.361 . S
C155 C154 1.396 . S
C156 O110 1.300 . S
C156 O111 1.209 . S
C156 C129 1.486 . S
C157 O112 1.199 . S
C157 O113 1.297 . S
C157 C141 1.476 . S
H158 O184 0.856 . S
H159 O187 0.854 . S
H160 C195 0.930 . S
H161 C196 0.930 . S
H162 C198 0.930 . S
H163 C199 0.930 . S
H164 C201 0.931 . S
H165 C202 0.930 . S
H166 C204 0.930 . S
H167 C205 0.929 . S
H168 C207 0.930 . S
H169 C208 0.931 . S
H170 C210 0.930 . S
H171 C211 0.929 . S
H172 C213 0.931 . S
H173 C214 0.930 . S
H174 C216 0.930 . S
H175 C217 0.932 . S
H176 C219 0.930 . S
H177 C220 0.929 . S
H178 C222 0.931 . S
H179 C223 0.930 . S
H180 C225 0.929 . S
H181 C226 0.931 . S
H182 C228 0.930 . S
H183 C229 0.929 . S
O184 H158 0.856 . S
O184 C230 1.300 . S
O185 C230 1.209 . S
O186 C231 1.199 . S
O187 H159 0.854 . S
O187 C231 1.297 . S
C188 C189 1.404 . S
C188 C193 1.397 . S
C188 C194 1.492 . S
C189 C188 1.404 . S
C189 C190 1.396 . S
C189 C200 1.492 . S
C190 C189 1.396 . S
C190 C191 1.397 . S
C190 C206 1.509 . S
C191 C190 1.397 . S
C191 C192 1.412 . S
C191 C212 1.485 . S
C192 C191 1.412 . S
C192 C193 1.388 . S
C192 C218 1.490 . S
C193 C188 1.397 . S
C193 C192 1.388 . S
C193 C224 1.519 . S
C194 C188 1.492 . S
C194 C195 1.363 . S
C194 C199 1.390 . S
C195 H160 0.930 . S
C195 C194 1.363 . S
C195 C196 1.372 . S
C196 H161 0.930 . S
C196 C195 1.372 . S
C196 C197 1.383 . S
C197 C196 1.383 . S
C197 C198 1.395 . S
C198 H162 0.930 . S
C198 C197 1.395 . S
C198 C199 1.362 . S
C199 H163 0.930 . S
C199 C194 1.390 . S
C199 C198 1.362 . S
C200 C189 1.492 . S
C200 C201 1.377 . S
C200 C205 1.397 . S
C201 H164 0.931 . S
C201 C200 1.377 . S
C201 C202 1.376 . S
C202 H165 0.930 . S
C202 C201 1.376 . S
C202 C203 1.376 . S
C203 C202 1.376 . S
C203 C204 1.378 . S
C203 C230 1.486 . S
C204 H166 0.930 . S
C204 C203 1.378 . S
C204 C205 1.376 . S
C205 H167 0.929 . S
C205 C200 1.397 . S
C205 C204 1.376 . S
C206 C190 1.509 . S
C206 C207 1.391 . S
C206 C211 1.386 . S
C207 H168 0.930 . S
C207 C206 1.391 . S
C207 C208 1.375 . S
C208 H169 0.931 . S
C208 C207 1.375 . S
C208 C209 1.375 . S
C209 C208 1.375 . S
C209 C210 1.361 . S
C210 H170 0.930 . S
C210 C209 1.361 . S
C210 C211 1.399 . S
C211 H171 0.929 . S
C211 C206 1.386 . S
C211 C210 1.399 . S
C212 C191 1.485 . S
C212 C213 1.394 . S
C212 C217 1.360 . S
C213 H172 0.931 . S
C213 C212 1.394 . S
C213 C214 1.372 . S
C214 H173 0.930 . S
C214 C213 1.372 . S
C214 C215 1.397 . S
C215 C214 1.397 . S
C215 C216 1.390 . S
C215 C231 1.476 . S
C216 H174 0.930 . S
C216 C215 1.390 . S
C216 C217 1.366 . S
C217 H175 0.932 . S
C217 C212 1.360 . S
C217 C216 1.366 . S
C218 C192 1.490 . S
C218 C219 1.380 . S
C218 C223 1.386 . S
C219 H176 0.930 . S
C219 C218 1.380 . S
C219 C220 1.381 . S
C220 H177 0.929 . S
C220 C219 1.381 . S
C220 C221 1.371 . S
C221 C220 1.371 . S
C221 C222 1.380 . S
C222 H178 0.931 . S
C222 C221 1.380 . S
C222 C223 1.387 . S
C223 H179 0.930 . S
C223 C218 1.386 . S
C223 C222 1.387 . S
C224 C193 1.519 . S
C224 C225 1.377 . S
C224 C229 1.361 . S
C225 H180 0.929 . S
C225 C224 1.377 . S
C225 C226 1.386 . S
C226 H181 0.931 . S
C226 C225 1.386 . S
C226 C227 1.363 . S
C227 C226 1.363 . S
C227 C228 1.385 . S
C228 H182 0.930 . S
C228 C227 1.385 . S
C228 C229 1.396 . S
C229 H183 0.929 . S
C229 C224 1.361 . S
C229 C228 1.396 . S
C230 O184 1.300 . S
C230 O185 1.209 . S
C230 C203 1.486 . S
C231 O186 1.199 . S
C231 O187 1.297 . S
C231 C215 1.476 . S
H232 O258 0.856 . S
H233 O261 0.854 . S
H234 C269 0.930 . S
H235 C270 0.930 . S
H236 C272 0.930 . S
H237 C273 0.930 . S
H238 C275 0.931 . S
H239 C276 0.930 . S
H240 C278 0.930 . S
H241 C279 0.929 . S
H242 C281 0.930 . S
H243 C282 0.931 . S
H244 C284 0.930 . S
H245 C285 0.929 . S
H246 C287 0.931 . S
H247 C288 0.930 . S
H248 C290 0.930 . S
H249 C291 0.932 . S
H250 C293 0.930 . S
H251 C294 0.929 . S
H252 C296 0.931 . S
H253 C297 0.930 . S
H254 C299 0.929 . S
H255 C300 0.931 . S
H256 C302 0.930 . S
H257 C303 0.929 . S
O258 H232 0.856 . S
O258 C304 1.300 . S
O259 C304 1.209 . S
O260 C305 1.199 . S
O261 H233 0.854 . S
O261 C305 1.297 . S
C262 C263 1.404 . S
C262 C267 1.397 . S
C262 C268 1.492 . S
C263 C262 1.404 . S
C263 C264 1.396 . S
C263 C274 1.492 . S
C264 C263 1.396 . S
C264 C265 1.397 . S
C264 C280 1.509 . S
C265 C264 1.397 . S
C265 C266 1.412 . S
C265 C286 1.485 . S
C266 C265 1.412 . S
C266 C267 1.388 . S
C266 C292 1.490 . S
C267 C262 1.397 . S
C267 C266 1.388 . S
C267 C298 1.519 . S
C268 C262 1.492 . S
C268 C269 1.363 . S
C268 C273 1.390 . S
C269 H234 0.930 . S
C269 C268 1.363 . S
C269 C270 1.372 . S
C270 H235 0.930 . S
C270 C269 1.372 . S
C270 C271 1.383 . S
C271 C270 1.383 . S
C271 C272 1.395 . S
C272 H236 0.930 . S
C272 C271 1.395 . S
C272 C273 1.362 . S
C273 H237 0.930 . S
C273 C268 1.390 . S
C273 C272 1.362 . S
C274 C263 1.492 . S
C274 C275 1.377 . S
C274 C279 1.397 . S
C275 H238 0.931 . S
C275 C274 1.377 . S
C275 C276 1.376 . S
C276 H239 0.930 . S
C276 C275 1.376 . S
C276 C277 1.376 . S
C277 C276 1.376 . S
C277 C278 1.378 . S
C277 C304 1.486 . S
C278 H240 0.930 . S
C278 C277 1.378 . S
C278 C279 1.376 . S
C279 H241 0.929 . S
C279 C274 1.397 . S
C279 C278 1.376 . S
C280 C264 1.509 . S
C280 C281 1.391 . S
C280 C285 1.386 . S
C281 H242 0.930 . S
C281 C280 1.391 . S
C281 C282 1.375 . S
C282 H243 0.931 . S
C282 C281 1.375 . S
C282 C283 1.375 . S
C283 C282 1.375 . S
C283 C284 1.361 . S
C284 H244 0.930 . S
C284 C283 1.361 . S
C284 C285 1.399 . S
C285 H245 0.929 . S
C285 C280 1.386 . S
C285 C284 1.399 . S
C286 C265 1.485 . S
C286 C287 1.394 . S
C286 C291 1.360 . S
C287 H246 0.931 . S
C287 C286 1.394 . S
C287 C288 1.372 . S
C288 H247 0.930 . S
C288 C287 1.372 . S
C288 C289 1.397 . S
C289 C288 1.397 . S
C289 C290 1.390 . S
C289 C305 1.476 . S
C290 H248 0.930 . S
C290 C289 1.390 . S
C290 C291 1.366 . S
C291 H249 0.932 . S
C291 C286 1.360 . S
C291 C290 1.366 . S
C292 C266 1.490 . S
C292 C293 1.380 . S
C292 C297 1.386 . S
C293 H250 0.930 . S
C293 C292 1.380 . S
C293 C294 1.381 . S
C294 H251 0.929 . S
C294 C293 1.381 . S
C294 C295 1.371 . S
C295 C294 1.371 . S
C295 C296 1.380 . S
C296 H252 0.931 . S
C296 C295 1.380 . S
C296 C297 1.387 . S
C297 H253 0.930 . S
C297 C292 1.386 . S
C297 C296 1.387 . S
C298 C267 1.519 . S
C298 C299 1.377 . S
C298 C303 1.361 . S
C299 H254 0.929 . S
C299 C298 1.377 . S
C299 C300 1.386 . S
C300 H255 0.931 . S
C300 C299 1.386 . S
C300 C301 1.363 . S
C301 C300 1.363 . S
C301 C302 1.385 . S
C302 H256 0.930 . S
C302 C301 1.385 . S
C302 C303 1.396 . S
C303 H257 0.929 . S
C303 C298 1.361 . S
C303 C302 1.396 . S
C304 O258 1.300 . S
C304 O259 1.209 . S
C304 C277 1.486 . S
C305 O260 1.199 . S
C305 O261 1.297 . S
C305 C289 1.476 . S
H306 O332 0.856 . S
H307 O335 0.854 . S
H308 C343 0.930 . S
H309 C344 0.930 . S
H310 C346 0.930 . S
H311 C347 0.930 . S
H312 C349 0.931 . S
H313 C350 0.930 . S
H314 C352 0.930 . S
H315 C353 0.929 . S
H316 C355 0.930 . S
H317 C356 0.931 . S
H318 C358 0.930 . S
H319 C359 0.929 . S
H320 C361 0.931 . S
H321 C362 0.930 1_455 S
H322 C364 0.930 . S
H323 C365 0.932 . S
H324 C367 0.930 . S
H325 C368 0.929 . S
H326 C370 0.931 . S
H327 C371 0.930 . S
H328 C373 0.929 . S
H329 C374 0.931 . S
H330 C376 0.930 . S
H331 C377 0.929 . S
O332 H306 0.856 . S
O332 C378 1.300 . S
O333 C378 1.209 . S
O334 C379 1.199 . S
O335 H307 0.854 . S
O335 C379 1.297 . S
C336 C337 1.404 . S
C336 C341 1.397 . S
C336 C342 1.492 . S
C337 C336 1.404 . S
C337 C338 1.396 . S
C337 C348 1.492 . S
C338 C337 1.396 . S
C338 C339 1.397 . S
C338 C354 1.509 . S
C339 C338 1.397 . S
C339 C340 1.412 . S
C339 C360 1.485 . S
C340 C339 1.412 . S
C340 C341 1.388 . S
C340 C366 1.490 . S
C341 C336 1.397 . S
C341 C340 1.388 . S
C341 C372 1.519 . S
C342 C336 1.492 . S
C342 C343 1.363 . S
C342 C347 1.390 . S
C343 H308 0.930 . S
C343 C342 1.363 . S
C343 C344 1.372 . S
C344 H309 0.930 . S
C344 C343 1.372 . S
C344 C345 1.383 . S
C345 C344 1.383 . S
C345 C346 1.395 . S
C346 H310 0.930 . S
C346 C345 1.395 . S
C346 C347 1.362 . S
C347 H311 0.930 . S
C347 C342 1.390 . S
C347 C346 1.362 . S
C348 C337 1.492 . S
C348 C349 1.377 . S
C348 C353 1.397 . S
C349 H312 0.931 . S
C349 C348 1.377 . S
C349 C350 1.376 . S
C350 H313 0.930 . S
C350 C349 1.376 . S
C350 C351 1.376 . S
C351 C350 1.376 . S
C351 C352 1.378 . S
C351 C378 1.486 . S
C352 H314 0.930 . S
C352 C351 1.378 . S
C352 C353 1.376 . S
C353 H315 0.929 . S
C353 C348 1.397 . S
C353 C352 1.376 . S
C354 C338 1.509 . S
C354 C355 1.391 . S
C354 C359 1.386 . S
C355 H316 0.930 . S
C355 C354 1.391 . S
C355 C356 1.375 . S
C356 H317 0.931 . S
C356 C355 1.375 . S
C356 C357 1.375 . S
C357 C356 1.375 . S
C357 C358 1.361 . S
C358 H318 0.930 . S
C358 C357 1.361 . S
C358 C359 1.399 . S
C359 H319 0.929 . S
C359 C354 1.386 . S
C359 C358 1.399 . S
C360 C339 1.485 . S
C360 C361 1.394 . S
C360 C365 1.360 . S
C361 H320 0.931 . S
C361 C360 1.394 . S
C361 C362 1.372 . S
C362 H321 0.930 1_655 S
C362 C361 1.372 . S
C362 C363 1.397 . S
C363 C362 1.397 . S
C363 C364 1.390 . S
C363 C379 1.476 1_655 S
C364 H322 0.930 . S
C364 C363 1.390 . S
C364 C365 1.366 . S
C365 H323 0.932 . S
C365 C360 1.360 . S
C365 C364 1.366 . S
C366 C340 1.490 . S
C366 C367 1.380 . S
C366 C371 1.386 . S
C367 H324 0.930 . S
C367 C366 1.380 . S
C367 C368 1.381 . S
C368 H325 0.929 . S
C368 C367 1.381 . S
C368 C369 1.371 . S
C369 C368 1.371 . S
C369 C370 1.380 . S
C370 H326 0.931 . S
C370 C369 1.380 . S
C370 C371 1.387 . S
C371 H327 0.930 . S
C371 C366 1.386 . S
C371 C370 1.387 . S
C372 C341 1.519 . S
C372 C373 1.377 . S
C372 C377 1.361 . S
C373 H328 0.929 . S
C373 C372 1.377 . S
C373 C374 1.386 . S
C374 H329 0.931 . S
C374 C373 1.386 . S
C374 C375 1.363 . S
C375 C374 1.363 . S
C375 C376 1.385 . S
C376 H330 0.930 . S
C376 C375 1.385 . S
C376 C377 1.396 . S
C377 H331 0.929 . S
C377 C372 1.361 . S
C377 C376 1.396 . S
C378 O332 1.300 . S
C378 O333 1.209 . S
C378 C351 1.486 . S
C379 O334 1.199 . S
C379 O335 1.297 . S
C379 C363 1.476 1_455 S
H380 O406 0.856 . S
H381 O409 0.854 . S
H382 C417 0.930 . S
H383 C418 0.930 . S
H384 C420 0.930 . S
H385 C421 0.930 . S
H386 C423 0.931 . S
H387 C424 0.930 . S
H388 C426 0.930 . S
H389 C427 0.929 . S
H390 C429 0.930 . S
H391 C430 0.931 . S
H392 C432 0.930 . S
H393 C433 0.929 . S
H394 C435 0.931 . S
H395 C436 0.930 . S
H396 C438 0.930 . S
H397 C439 0.932 . S
H398 C441 0.930 . S
H399 C442 0.929 . S
H400 C444 0.931 . S
H401 C445 0.930 . S
H402 C447 0.929 . S
H403 C448 0.931 . S
H404 C450 0.930 . S
H405 C451 0.929 . S
O406 H380 0.856 . S
O406 C452 1.300 . S
O407 C452 1.209 . S
O408 C453 1.199 . S
O409 H381 0.854 . S
O409 C453 1.297 . S
C410 C411 1.404 . S
C410 C415 1.397 . S
C410 C416 1.492 . S
C411 C410 1.404 . S
C411 C412 1.396 . S
C411 C422 1.492 . S
C412 C411 1.396 . S
C412 C413 1.397 . S
C412 C428 1.509 . S
C413 C412 1.397 . S
C413 C414 1.412 . S
C413 C434 1.485 . S
C414 C413 1.412 . S
C414 C415 1.388 . S
C414 C440 1.490 . S
C415 C410 1.397 . S
C415 C414 1.388 . S
C415 C446 1.519 . S
C416 C410 1.492 . S
C416 C417 1.363 . S
C416 C421 1.390 . S
C417 H382 0.930 . S
C417 C416 1.363 . S
C417 C418 1.372 . S
C418 H383 0.930 . S
C418 C417 1.372 . S
C418 C419 1.383 . S
C419 C418 1.383 . S
C419 C420 1.395 . S
C420 H384 0.930 . S
C420 C419 1.395 . S
C420 C421 1.362 . S
C421 H385 0.930 . S
C421 C416 1.390 . S
C421 C420 1.362 . S
C422 C411 1.492 . S
C422 C423 1.377 . S
C422 C427 1.397 . S
C423 H386 0.931 . S
C423 C422 1.377 . S
C423 C424 1.376 . S
C424 H387 0.930 . S
C424 C423 1.376 . S
C424 C425 1.376 . S
C425 C424 1.376 . S
C425 C426 1.378 . S
C425 C452 1.486 . S
C426 H388 0.930 . S
C426 C425 1.378 . S
C426 C427 1.376 . S
C427 H389 0.929 . S
C427 C422 1.397 . S
C427 C426 1.376 . S
C428 C412 1.509 . S
C428 C429 1.391 . S
C428 C433 1.386 . S
C429 H390 0.930 . S
C429 C428 1.391 . S
C429 C430 1.375 . S
C430 H391 0.931 . S
C430 C429 1.375 . S
C430 C431 1.375 . S
C431 C430 1.375 . S
C431 C432 1.361 . S
C432 H392 0.930 . S
C432 C431 1.361 . S
C432 C433 1.399 . S
C433 H393 0.929 . S
C433 C428 1.386 . S
C433 C432 1.399 . S
C434 C413 1.485 . S
C434 C435 1.394 . S
C434 C439 1.360 . S
C435 H394 0.931 . S
C435 C434 1.394 . S
C435 C436 1.372 . S
C436 H395 0.930 . S
C436 C435 1.372 . S
C436 C437 1.397 . S
C437 C436 1.397 . S
C437 C438 1.390 . S
C437 C453 1.476 . S
C438 H396 0.930 . S
C438 C437 1.390 . S
C438 C439 1.366 . S
C439 H397 0.932 . S
C439 C434 1.360 . S
C439 C438 1.366 . S
C440 C414 1.490 . S
C440 C441 1.380 . S
C440 C445 1.386 . S
C441 H398 0.930 . S
C441 C440 1.380 . S
C441 C442 1.381 . S
C442 H399 0.929 . S
C442 C441 1.381 . S
C442 C443 1.371 . S
C443 C442 1.371 . S
C443 C444 1.380 . S
C444 H400 0.931 . S
C444 C443 1.380 . S
C444 C445 1.387 . S
C445 H401 0.930 . S
C445 C440 1.386 . S
C445 C444 1.387 . S
C446 C415 1.519 . S
C446 C447 1.377 . S
C446 C451 1.361 . S
C447 H402 0.929 . S
C447 C446 1.377 . S
C447 C448 1.386 . S
C448 H403 0.931 . S
C448 C447 1.386 . S
C448 C449 1.363 . S
C449 C448 1.363 . S
C449 C450 1.385 . S
C450 H404 0.930 . S
C450 C449 1.385 . S
C450 C451 1.396 . S
C451 H405 0.929 . S
C451 C446 1.361 . S
C451 C450 1.396 . S
C452 O406 1.300 . S
C452 O407 1.209 . S
C452 C425 1.486 . S
C453 O408 1.199 . S
C453 O409 1.297 . S
C453 C437 1.476 . S
H454 O480 0.856 . S
H455 O483 0.854 . S
H456 C491 0.930 . S
H457 C492 0.930 . S
H458 C494 0.930 . S
H459 C495 0.930 . S
H460 C497 0.931 . S
H461 C498 0.930 . S
H462 C500 0.930 . S
H463 C501 0.929 . S
H464 C503 0.930 . S
H465 C504 0.931 . S
H466 C506 0.930 . S
H467 C507 0.929 . S
H468 C509 0.931 . S
H469 C510 0.930 . S
H470 C512 0.930 . S
H471 C513 0.932 . S
H472 C515 0.930 . S
H473 C516 0.929 . S
H474 C518 0.931 . S
H475 C519 0.930 . S
H476 C521 0.929 . S
H477 C522 0.931 . S
H478 C524 0.930 . S
H479 C525 0.929 . S
O480 H454 0.856 . S
O480 C526 1.300 . S
O481 C526 1.209 . S
O482 C527 1.199 . S
O483 H455 0.854 . S
O483 C527 1.297 . S
C484 C485 1.404 . S
C484 C489 1.397 . S
C484 C490 1.492 . S
C485 C484 1.404 . S
C485 C486 1.396 . S
C485 C496 1.492 . S
C486 C485 1.396 . S
C486 C487 1.397 . S
C486 C502 1.509 . S
C487 C486 1.397 . S
C487 C488 1.412 . S
C487 C508 1.485 . S
C488 C487 1.412 . S
C488 C489 1.388 . S
C488 C514 1.490 . S
C489 C484 1.397 . S
C489 C488 1.388 . S
C489 C520 1.519 . S
C490 C484 1.492 . S
C490 C491 1.363 . S
C490 C495 1.390 . S
C491 H456 0.930 . S
C491 C490 1.363 . S
C491 C492 1.372 . S
C492 H457 0.930 . S
C492 C491 1.372 . S
C492 C493 1.383 . S
C493 C492 1.383 . S
C493 C494 1.395 . S
C494 H458 0.930 . S
C494 C493 1.395 . S
C494 C495 1.362 . S
C495 H459 0.930 . S
C495 C490 1.390 . S
C495 C494 1.362 . S
C496 C485 1.492 . S
C496 C497 1.377 . S
C496 C501 1.397 . S
C497 H460 0.931 . S
C497 C496 1.377 . S
C497 C498 1.376 . S
C498 H461 0.930 . S
C498 C497 1.376 . S
C498 C499 1.376 . S
C499 C498 1.376 . S
C499 C500 1.378 . S
C499 C526 1.486 . S
C500 H462 0.930 . S
C500 C499 1.378 . S
C500 C501 1.376 . S
C501 H463 0.929 . S
C501 C496 1.397 . S
C501 C500 1.376 . S
C502 C486 1.509 . S
C502 C503 1.391 . S
C502 C507 1.386 . S
C503 H464 0.930 . S
C503 C502 1.391 . S
C503 C504 1.375 . S
C504 H465 0.931 . S
C504 C503 1.375 . S
C504 C505 1.375 . S
C505 C504 1.375 . S
C505 C506 1.361 . S
C506 H466 0.930 . S
C506 C505 1.361 . S
C506 C507 1.399 . S
C507 H467 0.929 . S
C507 C502 1.386 . S
C507 C506 1.399 . S
C508 C487 1.485 . S
C508 C509 1.394 . S
C508 C513 1.360 . S
C509 H468 0.931 . S
C509 C508 1.394 . S
C509 C510 1.372 . S
C510 H469 0.930 . S
C510 C509 1.372 . S
C510 C511 1.397 . S
C511 C510 1.397 . S
C511 C512 1.390 . S
C511 C527 1.476 . S
C512 H470 0.930 . S
C512 C511 1.390 . S
C512 C513 1.366 . S
C513 H471 0.932 . S
C513 C508 1.360 . S
C513 C512 1.366 . S
C514 C488 1.490 . S
C514 C515 1.380 . S
C514 C519 1.386 . S
C515 H472 0.930 . S
C515 C514 1.380 . S
C515 C516 1.381 . S
C516 H473 0.929 . S
C516 C515 1.381 . S
C516 C517 1.371 . S
C517 C516 1.371 . S
C517 C518 1.380 . S
C518 H474 0.931 . S
C518 C517 1.380 . S
C518 C519 1.387 . S
C519 H475 0.930 . S
C519 C514 1.386 . S
C519 C518 1.387 . S
C520 C489 1.519 . S
C520 C521 1.377 . S
C520 C525 1.361 . S
C521 H476 0.929 . S
C521 C520 1.377 . S
C521 C522 1.386 . S
C522 H477 0.931 . S
C522 C521 1.386 . S
C522 C523 1.363 . S
C523 C522 1.363 . S
C523 C524 1.385 . S
C524 H478 0.930 . S
C524 C523 1.385 . S
C524 C525 1.396 . S
C525 H479 0.929 . S
C525 C520 1.361 . S
C525 C524 1.396 . S
C526 O480 1.300 . S
C526 O481 1.209 . S
C526 C499 1.486 . S
C527 O482 1.199 . S
C527 O483 1.297 . S
C527 C511 1.476 . S
H528 C536 0.929 . S
H529 C538 0.930 . S
H530 C540 0.930 . S
H531 C543 0.929 . S
H532 C546 0.930 . S
H533 C548 0.960 . S
H534 C548 0.960 . S
H535 C548 0.960 . S
C536 H528 0.929 . S
C536 C537 1.377 . S
C536 C538 1.384 . S
C537 C536 1.377 . S
C537 C543 1.390 . S
C538 H529 0.930 . S
C538 C536 1.384 . S
C538 C539 1.372 . S
C539 C538 1.372 . S
C539 C540 1.400 . S
C539 C544 1.490 . S
C540 H530 0.930 . S
C540 C539 1.400 . S
C540 C543 1.386 . S
H541 C557 0.930 . S
H542 C558 0.931 . S
C543 H531 0.929 . S
C543 C537 1.390 . S
C543 C540 1.386 . S
C544 C539 1.490 . S
C544 C546 1.395 . S
C544 C547 1.403 . S
H545 C551 0.930 . S
C546 H532 0.930 . S
C546 C544 1.395 . S
C546 C549 1.403 . S
C547 C544 1.403 . S
C547 C548 1.524 . S
C547 C551 1.400 . S
C548 H533 0.960 . S
C548 H534 0.960 . S
C548 H535 0.960 . S
C548 C547 1.524 . S
C549 C546 1.403 . S
C549 C550 1.392 . S
C549 C553 1.495 . S
C550 C549 1.392 . S
C550 C551 1.385 . S
C550 C552 1.478 . S
C551 H545 0.930 . S
C551 C547 1.400 . S
C551 C550 1.385 . S
C552 C550 1.478 . S
C552 C554 1.381 . S
C552 C558 1.383 . S
C553 C549 1.495 . S
C553 H559 0.959 . S
C553 H560 0.961 . S
C553 H561 0.960 . S
C554 C552 1.381 . S
C554 C555 1.394 . S
C554 H562 0.930 . S
C555 C554 1.394 . S
C555 C556 1.383 . S
C555 H563 0.929 . S
C556 C555 1.383 . S
C556 C557 1.377 . S
C557 H541 0.930 . S
C557 C556 1.377 . S
C557 C558 1.379 . S
C558 H542 0.931 . S
C558 C552 1.383 . S
C558 C557 1.379 . S
H559 C553 0.959 . S
H560 C553 0.961 . S
H561 C553 0.960 . S
H562 C554 0.930 . S
H563 C555 0.929 . S
H564 C572 0.929 . S
H565 C574 0.930 . S
H566 C576 0.930 . S
H567 C579 0.929 . S
H568 C582 0.930 . S
H569 C584 0.960 . S
H570 C584 0.960 . S
H571 C584 0.960 . S
C572 H564 0.929 . S
C572 C573 1.377 . S
C572 C574 1.384 . S
C573 C572 1.377 . S
C573 C579 1.390 . S
C574 H565 0.930 . S
C574 C572 1.384 . S
C574 C575 1.372 . S
C575 C574 1.372 . S
C575 C576 1.400 . S
C575 C580 1.490 . S
C576 H566 0.930 . S
C576 C575 1.400 . S
C576 C579 1.386 . S
H577 C593 0.930 . S
H578 C594 0.931 . S
C579 H567 0.929 . S
C579 C573 1.390 . S
C579 C576 1.386 . S
C580 C575 1.490 . S
C580 C582 1.395 . S
C580 C583 1.403 . S
H581 C587 0.930 . S
C582 H568 0.930 . S
C582 C580 1.395 . S
C582 C585 1.403 . S
C583 C580 1.403 . S
C583 C584 1.524 . S
C583 C587 1.400 . S
C584 H569 0.960 . S
C584 H570 0.960 . S
C584 H571 0.960 . S
C584 C583 1.524 . S
C585 C582 1.403 . S
C585 C586 1.392 . S
C585 C589 1.495 . S
C586 C585 1.392 . S
C586 C587 1.385 . S
C586 C588 1.478 . S
C587 H581 0.930 . S
C587 C583 1.400 . S
C587 C586 1.385 . S
C588 C586 1.478 . S
C588 C590 1.381 . S
C588 C594 1.383 . S
C589 C585 1.495 . S
C589 H595 0.959 . S
C589 H596 0.961 . S
C589 H597 0.960 . S
C590 C588 1.381 . S
C590 C591 1.394 . S
C590 H598 0.930 . S
C591 C590 1.394 . S
C591 C592 1.383 . S
C591 H599 0.929 . S
C592 C591 1.383 . S
C592 C593 1.377 . S
C593 H577 0.930 . S
C593 C592 1.377 . S
C593 C594 1.379 . S
C594 H578 0.931 . S
C594 C588 1.383 . S
C594 C593 1.379 . S
H595 C589 0.959 . S
H596 C589 0.961 . S
H597 C589 0.960 . S
H598 C590 0.930 . S
H599 C591 0.929 . S
H600 C608 0.929 . S
H601 C610 0.930 . S
H602 C612 0.930 . S
H603 C615 0.929 . S
H604 C618 0.930 . S
H605 C620 0.960 . S
H606 C620 0.960 . S
H607 C620 0.960 . S
C608 H600 0.929 . S
C608 C609 1.377 . S
C608 C610 1.384 . S
C609 C608 1.377 . S
C609 C615 1.390 . S
C610 H601 0.930 . S
C610 C608 1.384 . S
C610 C611 1.372 . S
C611 C610 1.372 . S
C611 C612 1.400 . S
C611 C616 1.490 . S
C612 H602 0.930 . S
C612 C611 1.400 . S
C612 C615 1.386 . S
H613 C629 0.930 . S
H614 C630 0.931 . S
C615 H603 0.929 . S
C615 C609 1.390 . S
C615 C612 1.386 . S
C616 C611 1.490 . S
C616 C618 1.395 . S
C616 C619 1.403 . S
H617 C623 0.930 . S
C618 H604 0.930 . S
C618 C616 1.395 . S
C618 C621 1.403 . S
C619 C616 1.403 . S
C619 C620 1.524 . S
C619 C623 1.400 . S
C620 H605 0.960 . S
C620 H606 0.960 . S
C620 H607 0.960 . S
C620 C619 1.524 . S
C621 C618 1.403 . S
C621 C622 1.392 . S
C621 C625 1.495 . S
C622 C621 1.392 . S
C622 C623 1.385 . S
C622 C624 1.478 . S
C623 H617 0.930 . S
C623 C619 1.400 . S
C623 C622 1.385 . S
C624 C622 1.478 . S
C624 C626 1.381 . S
C624 C630 1.383 . S
C625 C621 1.495 . S
C625 H631 0.959 . S
C625 H632 0.961 . S
C625 H633 0.960 . S
C626 C624 1.381 . S
C626 C627 1.394 . S
C626 H634 0.930 . S
C627 C626 1.394 . S
C627 C628 1.383 . S
C627 H635 0.929 . S
C628 C627 1.383 . S
C628 C629 1.377 . S
C629 H613 0.930 . S
C629 C628 1.377 . S
C629 C630 1.379 . S
C630 H614 0.931 . S
C630 C624 1.383 . S
C630 C629 1.379 . S
H631 C625 0.959 . S
H632 C625 0.961 . S
H633 C625 0.960 . S
H634 C626 0.930 . S
H635 C627 0.929 . S
H636 C644 0.929 . S
H637 C646 0.930 . S
H638 C648 0.930 . S
H639 C651 0.929 . S
H640 C654 0.930 1_455 S
H641 C656 0.960 . S
H642 C656 0.960 . S
H643 C656 0.960 . S
C644 H636 0.929 . S
C644 C645 1.377 . S
C644 C646 1.384 . S
C645 C644 1.377 . S
C645 C651 1.390 . S
C646 H637 0.930 . S
C646 C644 1.384 . S
C646 C647 1.372 . S
C647 C646 1.372 . S
C647 C648 1.400 . S
C647 C652 1.490 . S
C648 H638 0.930 . S
C648 C647 1.400 . S
C648 C651 1.386 . S
H649 C665 0.930 . S
H650 C666 0.931 . S
C651 H639 0.929 . S
C651 C645 1.390 . S
C651 C648 1.386 . S
C652 C647 1.490 . S
C652 C654 1.395 . S
C652 C655 1.403 . S
H653 C659 0.930 . S
C654 H640 0.930 1_655 S
C654 C652 1.395 . S
C654 C657 1.403 . S
C655 C652 1.403 . S
C655 C656 1.524 . S
C655 C659 1.400 . S
C656 H641 0.960 . S
C656 H642 0.960 . S
C656 H643 0.960 . S
C656 C655 1.524 . S
C657 C654 1.403 . S
C657 C658 1.392 . S
C657 C661 1.495 1_655 S
C658 C657 1.392 . S
C658 C659 1.385 . S
C658 C660 1.478 . S
C659 H653 0.930 . S
C659 C655 1.400 . S
C659 C658 1.385 . S
C660 C658 1.478 . S
C660 C662 1.381 . S
C660 C666 1.383 . S
C661 C657 1.495 1_455 S
C661 H667 0.959 . S
C661 H668 0.961 . S
C661 H669 0.960 . S
C662 C660 1.381 . S
C662 C663 1.394 . S
C662 H670 0.930 . S
C663 C662 1.394 . S
C663 C664 1.383 . S
C663 H671 0.929 . S
C664 C663 1.383 . S
C664 C665 1.377 . S
C665 H649 0.930 . S
C665 C664 1.377 . S
C665 C666 1.379 . S
C666 H650 0.931 . S
C666 C660 1.383 . S
C666 C665 1.379 . S
H667 C661 0.959 . S
H668 C661 0.961 . S
H669 C661 0.960 . S
H670 C662 0.930 . S
H671 C663 0.929 . S
H672 C680 0.929 . S
H673 C682 0.930 . S
H674 C684 0.930 . S
H675 C687 0.929 . S
H676 C690 0.930 . S
H677 C692 0.960 . S
H678 C692 0.960 . S
H679 C692 0.960 . S
C680 H672 0.929 . S
C680 C681 1.377 1_565 S
C680 C682 1.384 . S
C681 C680 1.377 1_545 S
C681 C687 1.390 . S
C682 H673 0.930 . S
C682 C680 1.384 . S
C682 C683 1.372 . S
C683 C682 1.372 . S
C683 C684 1.400 1_565 S
C683 C688 1.490 . S
C684 H674 0.930 . S
C684 C683 1.400 1_545 S
C684 C687 1.386 . S
H685 C701 0.930 . S
H686 C702 0.931 . S
C687 H675 0.929 . S
C687 C681 1.390 . S
C687 C684 1.386 . S
C688 C683 1.490 . S
C688 C690 1.395 . S
C688 C691 1.403 . S
H689 C695 0.930 . S
C690 H676 0.930 . S
C690 C688 1.395 . S
C690 C693 1.403 . S
C691 C688 1.403 . S
C691 C692 1.524 . S
C691 C695 1.400 . S
C692 H677 0.960 . S
C692 H678 0.960 . S
C692 H679 0.960 . S
C692 C691 1.524 . S
C693 C690 1.403 . S
C693 C694 1.392 . S
C693 C697 1.495 . S
C694 C693 1.392 . S
C694 C695 1.385 . S
C694 C696 1.478 . S
C695 H689 0.930 . S
C695 C691 1.400 . S
C695 C694 1.385 . S
C696 C694 1.478 . S
C696 C698 1.381 . S
C696 C702 1.383 . S
C697 C693 1.495 . S
C697 H703 0.959 . S
C697 H704 0.961 . S
C697 H705 0.960 . S
C698 C696 1.381 . S
C698 C699 1.394 . S
C698 H706 0.930 . S
C699 C698 1.394 . S
C699 C700 1.383 . S
C699 H707 0.929 . S
C700 C699 1.383 . S
C700 C701 1.377 . S
C701 H685 0.930 . S
C701 C700 1.377 . S
C701 C702 1.379 . S
C702 H686 0.931 . S
C702 C696 1.383 . S
C702 C701 1.379 . S
H703 C697 0.959 . S
H704 C697 0.961 . S
H705 C697 0.960 . S
H706 C698 0.930 . S
H707 C699 0.929 . S
H708 C716 0.929 . S
H709 C718 0.930 . S
H710 C720 0.930 . S
H711 C723 0.929 . S
H712 C726 0.930 . S
H713 C728 0.960 . S
H714 C728 0.960 . S
H715 C728 0.960 . S
C716 H708 0.929 . S
C716 C717 1.377 . S
C716 C718 1.384 . S
C717 C716 1.377 . S
C717 C723 1.390 . S
C718 H709 0.930 . S
C718 C716 1.384 . S
C718 C719 1.372 . S
C719 C718 1.372 . S
C719 C720 1.400 . S
C719 C724 1.490 . S
C720 H710 0.930 . S
C720 C719 1.400 . S
C720 C723 1.386 . S
H721 C737 0.930 . S
H722 C738 0.931 . S
C723 H711 0.929 . S
C723 C717 1.390 . S
C723 C720 1.386 . S
C724 C719 1.490 . S
C724 C726 1.395 . S
C724 C727 1.403 . S
H725 C731 0.930 . S
C726 H712 0.930 . S
C726 C724 1.395 . S
C726 C729 1.403 . S
C727 C724 1.403 . S
C727 C728 1.524 . S
C727 C731 1.400 . S
C728 H713 0.960 . S
C728 H714 0.960 . S
C728 H715 0.960 . S
C728 C727 1.524 . S
C729 C726 1.403 . S
C729 C730 1.392 . S
C729 C733 1.495 . S
C730 C729 1.392 . S
C730 C731 1.385 . S
C730 C732 1.478 . S
C731 H725 0.930 . S
C731 C727 1.400 . S
C731 C730 1.385 . S
C732 C730 1.478 . S
C732 C734 1.381 . S
C732 C738 1.383 . S
C733 C729 1.495 . S
C733 H739 0.959 . S
C733 H740 0.961 . S
C733 H741 0.960 . S
C734 C732 1.381 . S
C734 C735 1.394 . S
C734 H742 0.930 . S
C735 C734 1.394 . S
C735 C736 1.383 . S
C735 H743 0.929 . S
C736 C735 1.383 . S
C736 C737 1.377 . S
C737 H721 0.930 . S
C737 C736 1.377 . S
C737 C738 1.379 . S
C738 H722 0.931 . S
C738 C732 1.383 . S
C738 C737 1.379 . S
H739 C733 0.959 . S
H740 C733 0.961 . S
H741 C733 0.960 . S
H742 C734 0.930 . S
H743 C735 0.929 . S
H744 C752 0.899 1_545 S
H745 C754 0.930 . S
H746 C756 0.930 . S
H747 C759 0.929 . S
H748 C762 0.930 . S
H749 C764 0.960 . S
H750 C764 0.960 . S
H751 C764 0.960 . S
C752 H744 0.899 1_565 S
C752 C753 1.377 . S
C752 C754 1.384 . S
C753 C752 1.377 . S
C753 C759 1.390 . S
C754 H745 0.930 . S
C754 C752 1.384 . S
C754 C755 1.372 . S
C755 C754 1.372 . S
C755 C756 1.400 . S
C755 C760 1.490 . S
C756 H746 0.930 . S
C756 C755 1.400 . S
C756 C759 1.386 . S
H757 C773 0.930 . S
H758 C774 0.931 . S
C759 H747 0.929 . S
C759 C753 1.390 . S
C759 C756 1.386 . S
C760 C755 1.490 . S
C760 C762 1.395 . S
C760 C763 1.403 . S
H761 C767 0.930 . S
C762 H748 0.930 . S
C762 C760 1.395 . S
C762 C765 1.403 . S
C763 C760 1.403 . S
C763 C764 1.524 . S
C763 C767 1.400 . S
C764 H749 0.960 . S
C764 H750 0.960 . S
C764 H751 0.960 . S
C764 C763 1.524 . S
C765 C762 1.403 . S
C765 C766 1.392 . S
C765 C769 1.495 . S
C766 C765 1.392 . S
C766 C767 1.385 . S
C766 C768 1.478 . S
C767 H761 0.930 . S
C767 C763 1.400 . S
C767 C766 1.385 . S
C768 C766 1.478 . S
C768 C770 1.381 . S
C768 C774 1.383 . S
C769 C765 1.495 . S
C769 H775 0.959 . S
C769 H776 0.961 . S
C769 H777 0.960 . S
C770 C768 1.381 . S
C770 C771 1.394 . S
C770 H778 0.930 . S
C771 C770 1.394 . S
C771 C772 1.383 . S
C771 H779 0.929 . S
C772 C771 1.383 . S
C772 C773 1.377 . S
C773 H757 0.930 . S
C773 C772 1.377 . S
C773 C774 1.379 . S
C774 H758 0.931 . S
C774 C768 1.383 . S
C774 C773 1.379 . S
H775 C769 0.959 . S
H776 C769 0.961 . S
H777 C769 0.960 . S
H778 C770 0.930 . S
H779 C771 0.929 . S
H780 C788 0.929 . S
H781 C790 0.976 . S
H782 C792 0.930 . S
H783 C795 0.929 . S
H784 C798 0.930 . S
H785 C800 0.960 1_556 S
H786 C800 0.963 . S
H787 C800 0.960 . S
C788 H780 0.929 . S
C788 C789 1.377 . S
C788 C790 1.349 1_554 S
C789 C788 1.377 . S
C789 C795 1.390 . S
C790 H781 0.976 . S
C790 C788 1.349 1_556 S
C790 C791 1.364 1_556 S
C791 C790 1.364 1_554 S
C791 C792 1.400 . S
C791 C796 1.490 1_554 S
C792 H782 0.930 . S
C792 C791 1.400 . S
C792 C795 1.386 . S
H793 C809 0.930 . S
H794 C810 0.931 . S
C795 H783 0.929 . S
C795 C789 1.390 . S
C795 C792 1.386 . S
C796 C791 1.490 1_556 S
C796 C798 1.395 . S
C796 C799 1.403 . S
H797 C803 0.930 . S
C798 H784 0.930 . S
C798 C796 1.395 . S
C798 C801 1.403 . S
C799 C796 1.403 . S
C799 C800 1.524 1_556 S
C799 C803 1.400 . S
C800 H785 0.960 1_554 S
C800 H786 0.963 . S
C800 H787 0.960 . S
C800 C799 1.524 1_554 S
C801 C798 1.403 . S
C801 C802 1.392 . S
C801 C805 1.495 . S
C802 C801 1.392 . S
C802 C803 1.385 . S
C802 C804 1.478 . S
C803 H797 0.930 . S
C803 C799 1.400 . S
C803 C802 1.385 . S
C804 C802 1.478 . S
C804 C806 1.381 . S
C804 C810 1.383 . S
C805 C801 1.495 . S
C805 H811 0.959 . S
C805 H812 0.961 . S
C805 H813 0.960 . S
C806 C804 1.381 . S
C806 C807 1.394 . S
C806 H814 0.930 . S
C807 C806 1.394 . S
C807 C808 1.383 . S
C807 H815 0.929 . S
C808 C807 1.383 . S
C808 C809 1.377 . S
C809 H793 0.930 . S
C809 C808 1.377 . S
C809 C810 1.379 . S
C810 H794 0.931 . S
C810 C804 1.383 . S
C810 C809 1.379 . S
H811 C805 0.959 . S
H812 C805 0.961 . S
H813 C805 0.960 . S
H814 C806 0.930 . S
H815 C807 0.929 . S
H816 C824 0.929 . S
H817 C826 0.930 . S
H818 C828 0.930 . S
H819 C831 0.929 . S
H820 C834 0.930 . S
H821 C836 0.960 . S
H822 C836 0.960 . S
H823 C836 0.960 . S
C824 H816 0.929 . S
C824 C825 1.377 . S
C824 C826 1.384 . S
C825 C824 1.377 . S
C825 C831 1.390 . S
C826 H817 0.930 . S
C826 C824 1.384 . S
C826 C827 1.372 . S
C827 C826 1.372 . S
C827 C828 1.400 . S
C827 C832 1.490 . S
C828 H818 0.930 . S
C828 C827 1.400 . S
C828 C831 1.386 . S
H829 C845 0.930 . S
H830 C846 0.931 . S
C831 H819 0.929 . S
C831 C825 1.390 . S
C831 C828 1.386 . S
C832 C827 1.490 . S
C832 C834 1.395 . S
C832 C835 1.403 . S
H833 C839 0.930 . S
C834 H820 0.930 . S
C834 C832 1.395 . S
C834 C837 1.403 . S
C835 C832 1.403 . S
C835 C836 1.524 . S
C835 C839 1.400 . S
C836 H821 0.960 . S
C836 H822 0.960 . S
C836 H823 0.960 . S
C836 C835 1.524 . S
C837 C834 1.403 . S
C837 C838 1.392 . S
C837 C841 1.495 . S
C838 C837 1.392 . S
C838 C839 1.385 . S
C838 C840 1.478 . S
C839 H833 0.930 . S
C839 C835 1.400 . S
C839 C838 1.385 . S
C840 C838 1.478 . S
C840 C842 1.381 . S
C840 C846 1.383 . S
C841 C837 1.495 . S
C841 H847 0.959 . S
C841 H848 0.961 . S
C841 H849 0.960 . S
C842 C840 1.381 . S
C842 C843 1.394 . S
C842 H850 0.930 . S
C843 C842 1.394 . S
C843 C844 1.383 . S
C843 H851 0.929 . S
C844 C843 1.383 . S
C844 C845 1.377 . S
C845 H829 0.930 . S
C845 C844 1.377 . S
C845 C846 1.379 . S
C846 H830 0.931 . S
C846 C840 1.383 . S
C846 C845 1.379 . S
H847 C841 0.959 . S
H848 C841 0.961 . S
H849 C841 0.960 . S
H850 C842 0.930 . S
H851 C843 0.929 . S
H852 C860 0.929 . S
H853 C862 0.930 . S
H854 C864 0.930 . S
H855 C867 0.929 . S
H856 C870 0.930 . S
H857 C872 0.960 . S
H858 C872 0.960 . S
H859 C872 0.960 . S
C860 H852 0.929 . S
C860 C861 1.377 . S
C860 C862 1.384 . S
C861 C860 1.377 . S
C861 C867 1.390 . S
C862 H853 0.930 . S
C862 C860 1.384 . S
C862 C863 1.372 . S
C863 C862 1.372 . S
C863 C864 1.400 . S
C863 C868 1.490 1_554 S
C864 H854 0.930 . S
C864 C863 1.400 . S
C864 C867 1.386 . S
H865 C881 0.930 . S
H866 C882 0.931 . S
C867 H855 0.929 . S
C867 C861 1.390 . S
C867 C864 1.386 . S
C868 C863 1.490 1_556 S
C868 C870 1.395 1_556 S
C868 C871 1.403 . S
H869 C875 0.930 . S
C870 H856 0.930 . S
C870 C868 1.395 1_554 S
C870 C873 1.403 1_554 S
C871 C868 1.403 . S
C871 C872 1.524 . S
C871 C875 1.400 . S
C872 H857 0.960 . S
C872 H858 0.960 . S
C872 H859 0.960 . S
C872 C871 1.524 . S
C873 C870 1.403 1_556 S
C873 C874 1.392 . S
C873 C877 1.495 . S
C874 C873 1.392 . S
C874 C875 1.385 . S
C874 C876 1.478 . S
C875 H869 0.930 . S
C875 C871 1.400 . S
C875 C874 1.385 . S
C876 C874 1.478 . S
C876 C878 1.381 . S
C876 C882 1.383 . S
C877 C873 1.495 . S
C877 H883 0.959 1_556 S
C877 H884 0.961 . S
C877 H885 0.960 . S
C878 C876 1.381 . S
C878 C879 1.394 . S
C878 H886 0.930 . S
C879 C878 1.394 . S
C879 C880 1.383 . S
C879 H887 0.929 . S
C880 C879 1.383 . S
C880 C881 1.377 . S
C881 H865 0.930 . S
C881 C880 1.377 . S
C881 C882 1.379 . S
C882 H866 0.931 . S
C882 C876 1.383 . S
C882 C881 1.379 . S
H883 C877 0.959 1_554 S
H884 C877 0.961 . S
H885 C877 0.960 . S
H886 C878 0.930 . S
H887 C879 0.929 . S
H888 C896 0.929 . S
H889 C898 0.930 . S
H890 C900 0.930 . S
H891 C903 0.929 . S
H892 C906 0.930 . S
H893 C908 0.960 . S
H894 C908 0.960 . S
H895 C908 0.960 . S
C896 H888 0.929 . S
C896 C897 1.377 . S
C896 C898 1.384 . S
C897 C896 1.377 . S
C897 C903 1.390 . S
C898 H889 0.930 . S
C898 C896 1.384 . S
C898 C899 1.372 . S
C899 C898 1.372 . S
C899 C900 1.400 . S
C899 C904 1.490 . S
C900 H890 0.930 . S
C900 C899 1.400 . S
C900 C903 1.386 . S
H901 C917 0.930 . S
H902 C918 0.931 . S
C903 H891 0.929 . S
C903 C897 1.390 . S
C903 C900 1.386 . S
C904 C899 1.490 . S
C904 C906 1.395 . S
C904 C907 1.403 . S
H905 C911 0.930 . S
C906 H892 0.930 . S
C906 C904 1.395 . S
C906 C909 1.403 . S
C907 C904 1.403 . S
C907 C908 1.524 . S
C907 C911 1.400 . S
C908 H893 0.960 . S
C908 H894 0.960 . S
C908 H895 0.960 . S
C908 C907 1.524 . S
C909 C906 1.403 . S
C909 C910 1.392 . S
C909 C913 1.495 . S
C910 C909 1.392 . S
C910 C911 1.385 . S
C910 C912 1.478 . S
C911 H905 0.930 . S
C911 C907 1.400 . S
C911 C910 1.385 . S
C912 C910 1.478 . S
C912 C914 1.381 . S
C912 C918 1.383 . S
C913 C909 1.495 . S
C913 H919 0.959 . S
C913 H920 0.961 . S
C913 H921 0.960 . S
C914 C912 1.381 . S
C914 C915 1.394 . S
C914 H922 0.930 . S
C915 C914 1.394 . S
C915 C916 1.383 . S
C915 H923 0.929 . S
C916 C915 1.383 . S
C916 C917 1.377 . S
C917 H901 0.930 . S
C917 C916 1.377 . S
C917 C918 1.379 . S
C918 H902 0.931 . S
C918 C912 1.383 . S
C918 C917 1.379 . S
H919 C913 0.959 . S
H920 C913 0.961 . S
H921 C913 0.960 . S
H922 C914 0.930 . S
H923 C915 0.929 . S
H924 C932 0.929 . S
H925 C934 0.930 . S
H926 C936 0.930 . S
H927 C939 0.929 . S
H928 C942 0.930 . S
H929 C944 0.960 . S
H930 C944 0.960 . S
H931 C944 0.960 . S
C932 H924 0.929 . S
C932 C933 1.377 . S
C932 C934 1.384 . S
C933 C932 1.377 . S
C933 C939 1.390 . S
C934 H925 0.930 . S
C934 C932 1.384 . S
C934 C935 1.372 . S
C935 C934 1.372 . S
C935 C936 1.400 . S
C935 C940 1.490 . S
C936 H926 0.930 . S
C936 C935 1.400 . S
C936 C939 1.386 . S
H937 C953 0.930 . S
H938 C954 0.931 . S
C939 H927 0.929 . S
C939 C933 1.390 . S
C939 C936 1.386 . S
C940 C935 1.490 . S
C940 C942 1.395 . S
C940 C943 1.403 . S
H941 C947 0.930 . S
C942 H928 0.930 . S
C942 C940 1.395 . S
C942 C945 1.403 . S
C943 C940 1.403 . S
C943 C944 1.524 . S
C943 C947 1.400 . S
C944 H929 0.960 . S
C944 H930 0.960 . S
C944 H931 0.960 . S
C944 C943 1.524 . S
C945 C942 1.403 . S
C945 C946 1.392 . S
C945 C949 1.495 . S
C946 C945 1.392 . S
C946 C947 1.385 . S
C946 C948 1.478 . S
C947 H941 0.930 . S
C947 C943 1.400 . S
C947 C946 1.385 . S
C948 C946 1.478 . S
C948 C950 1.381 . S
C948 C954 1.383 . S
C949 C945 1.495 . S
C949 H955 0.959 . S
C949 H956 0.961 . S
C949 H957 0.960 . S
C950 C948 1.381 . S
C950 C951 1.394 1_455 S
C950 H958 0.930 . S
C951 C950 1.394 1_655 S
C951 C952 1.383 . S
C951 H959 0.929 . S
C952 C951 1.383 . S
C952 C953 1.377 1_655 S
C953 H937 0.930 . S
C953 C952 1.377 1_455 S
C953 C954 1.379 . S
C954 H938 0.931 . S
C954 C948 1.383 . S
C954 C953 1.379 . S
H955 C949 0.959 . S
H956 C949 0.961 . S
H957 C949 0.960 . S
H958 C950 0.930 . S
H959 C951 0.929 . S
H960 C968 0.929 . S
H961 C970 0.930 . S
H962 C972 0.930 . S
H963 C975 0.929 . S
H964 C978 0.930 . S
H965 C980 0.960 . S
H966 C980 0.960 . S
H967 C980 0.960 . S
C968 H960 0.929 . S
C968 C969 1.377 . S
C968 C970 1.384 . S
C969 C968 1.377 . S
C969 C975 1.390 . S
C970 H961 0.930 . S
C970 C968 1.384 . S
C970 C971 1.372 . S
C971 C970 1.372 . S
C971 C972 1.400 . S
C971 C976 1.490 . S
C972 H962 0.930 . S
C972 C971 1.400 . S
C972 C975 1.386 . S
H973 C989 0.930 . S
H974 C990 0.931 . S
C975 H963 0.929 . S
C975 C969 1.390 . S
C975 C972 1.386 . S
C976 C971 1.490 . S
C976 C978 1.395 . S
C976 C979 1.403 . S
H977 C983 0.930 . S
C978 H964 0.930 . S
C978 C976 1.395 . S
C978 C981 1.403 . S
C979 C976 1.403 . S
C979 C980 1.524 . S
C979 C983 1.400 . S
C980 H965 0.960 . S
C980 H966 0.960 . S
C980 H967 0.960 . S
C980 C979 1.524 . S
C981 C978 1.403 . S
C981 C982 1.392 . S
C981 C985 1.495 . S
C982 C981 1.392 . S
C982 C983 1.385 . S
C982 C984 1.478 . S
C983 H977 0.930 . S
C983 C979 1.400 . S
C983 C982 1.385 . S
C984 C982 1.478 . S
C984 C986 1.381 1_455 S
C984 C990 1.383 . S
C985 C981 1.495 . S
C985 H991 0.959 . S
C985 H992 0.961 . S
C985 H993 0.960 1_455 S
C986 C984 1.381 1_655 S
C986 C987 1.394 . S
C986 H994 0.930 . S
C987 C986 1.394 . S
C987 C988 1.383 . S
C987 H995 0.929 . S
C988 C987 1.383 . S
C988 C989 1.377 1_655 S
C989 H973 0.930 . S
C989 C988 1.377 1_455 S
C989 C990 1.379 . S
C990 H974 0.931 . S
C990 C984 1.383 . S
C990 C989 1.379 . S
H991 C985 0.959 . S
H992 C985 0.961 . S
H993 C985 0.960 1_655 S
H994 C986 0.930 . S
H995 C987 0.929 . S
H996 C1004 0.929 . S
H997 C1006 0.930 . S
H998 C1008 0.930 . S
H999 C1011 0.929 . S
H1000 C1014 0.930 . S
H1001 C1016 0.960 . S
H1002 C1016 0.960 . S
H1003 C1016 0.960 . S
C1004 H996 0.929 . S
C1004 C1005 1.377 . S
C1004 C1006 1.384 . S
C1005 C1004 1.377 . S
C1005 C1011 1.390 . S
C1006 H997 0.930 . S
C1006 C1004 1.384 . S
C1006 C1007 1.372 . S
C1007 C1006 1.372 . S
C1007 C1008 1.400 . S
C1007 C1012 1.490 . S
C1008 H998 0.930 . S
C1008 C1007 1.400 . S
C1008 C1011 1.386 . S
H1009 C1025 0.930 . S
H1010 C1026 0.931 . S
C1011 H999 0.929 . S
C1011 C1005 1.390 . S
C1011 C1008 1.386 . S
C1012 C1007 1.490 . S
C1012 C1014 1.395 . S
C1012 C1015 1.403 . S
H1013 C1019 0.930 . S
C1014 H1000 0.930 . S
C1014 C1012 1.395 . S
C1014 C1017 1.403 . S
C1015 C1012 1.403 . S
C1015 C1016 1.524 . S
C1015 C1019 1.400 . S
C1016 H1001 0.960 . S
C1016 H1002 0.960 . S
C1016 H1003 0.960 . S
C1016 C1015 1.524 . S
C1017 C1014 1.403 . S
C1017 C1018 1.392 . S
C1017 C1021 1.495 . S
C1018 C1017 1.392 . S
C1018 C1019 1.385 . S
C1018 C1020 1.478 . S
C1019 H1013 0.930 . S
C1019 C1015 1.400 . S
C1019 C1018 1.385 . S
C1020 C1018 1.478 . S
C1020 C1022 1.381 . S
C1020 C1026 1.383 . S
C1021 C1017 1.495 . S
C1021 H1027 0.959 . S
C1021 H1028 0.961 . S
C1021 H1029 0.960 . S
C1022 C1020 1.381 . S
C1022 C1023 1.394 . S
C1022 H1030 0.930 . S
C1023 C1022 1.394 . S
C1023 C1024 1.383 . S
C1023 H1031 0.929 . S
C1024 C1023 1.383 . S
C1024 C1025 1.377 . S
C1025 H1009 0.930 . S
C1025 C1024 1.377 . S
C1025 C1026 1.379 . S
C1026 H1010 0.931 . S
C1026 C1020 1.383 . S
C1026 C1025 1.379 . S
H1027 C1021 0.959 . S
H1028 C1021 0.961 . S
H1029 C1021 0.960 . S
H1030 C1022 0.930 . S
H1031 C1023 0.929 . S
H1032 C1040 0.929 . S
H1033 C1042 0.930 . S
H1034 C1044 0.930 . S
H1035 C1047 0.929 . S
H1036 C1050 0.930 . S
H1037 C1052 0.960 . S
H1038 C1052 0.960 . S
H1039 C1052 0.960 . S
C1040 H1032 0.929 . S
C1040 C1041 1.377 . S
C1040 C1042 1.384 . S
C1041 C1040 1.377 . S
C1041 C1047 1.390 . S
C1042 H1033 0.930 . S
C1042 C1040 1.384 . S
C1042 C1043 1.372 . S
C1043 C1042 1.372 . S
C1043 C1044 1.400 . S
C1043 C1048 1.490 1_554 S
C1044 H1034 0.930 . S
C1044 C1043 1.400 . S
C1044 C1047 1.386 . S
H1045 C1061 0.930 . S
H1046 C1062 0.931 . S
C1047 H1035 0.929 . S
C1047 C1041 1.390 . S
C1047 C1044 1.386 . S
C1048 C1043 1.490 1_556 S
C1048 C1050 1.395 . S
C1048 C1051 1.403 . S
H1049 C1055 0.930 . S
C1050 H1036 0.930 . S
C1050 C1048 1.395 . S
C1050 C1053 1.403 . S
C1051 C1048 1.403 . S
C1051 C1052 1.524 1_556 S
C1051 C1055 1.400 . S
C1052 H1037 0.960 . S
C1052 H1038 0.960 . S
C1052 H1039 0.960 . S
C1052 C1051 1.524 1_554 S
C1053 C1050 1.403 . S
C1053 C1054 1.392 . S
C1053 C1057 1.495 . S
C1054 C1053 1.392 . S
C1054 C1055 1.385 . S
C1054 C1056 1.478 . S
C1055 H1049 0.930 . S
C1055 C1051 1.400 . S
C1055 C1054 1.385 . S
C1056 C1054 1.478 . S
C1056 C1058 1.381 . S
C1056 C1062 1.383 . S
C1057 C1053 1.495 . S
C1057 H1063 0.959 . S
C1057 H1064 0.961 . S
C1057 H1065 0.960 . S
C1058 C1056 1.381 . S
C1058 C1059 1.394 . S
C1058 H1066 0.930 . S
C1059 C1058 1.394 . S
C1059 C1060 1.383 . S
C1059 H1067 0.929 . S
C1060 C1059 1.383 . S
C1060 C1061 1.377 . S
C1061 H1045 0.930 . S
C1061 C1060 1.377 . S
C1061 C1062 1.379 . S
C1062 H1046 0.931 . S
C1062 C1056 1.383 . S
C1062 C1061 1.379 . S
H1063 C1057 0.959 . S
H1064 C1057 0.961 . S
H1065 C1057 0.960 . S
H1066 C1058 0.930 . S
H1067 C1059 0.929 . S
H1068 C1076 0.929 . S
H1069 C1078 0.930 . S
H1070 C1080 0.930 . S
H1071 C1083 0.929 . S
H1072 C1086 0.930 . S
H1073 C1088 0.960 . S
H1074 C1088 0.960 . S
H1075 C1088 0.960 . S
C1076 H1068 0.929 . S
C1076 C1077 1.377 . S
C1076 C1078 1.384 . S
C1077 C1076 1.377 . S
C1077 C1083 1.390 . S
C1078 H1069 0.930 . S
C1078 C1076 1.384 . S
C1078 C1079 1.372 . S
C1079 C1078 1.372 . S
C1079 C1080 1.400 . S
C1079 C1084 1.490 . S
C1080 H1070 0.930 . S
C1080 C1079 1.400 . S
C1080 C1083 1.386 . S
H1081 C1097 0.930 . S
H1082 C1098 0.931 . S
C1083 H1071 0.929 . S
C1083 C1077 1.390 . S
C1083 C1080 1.386 . S
C1084 C1079 1.490 . S
C1084 C1086 1.395 . S
C1084 C1087 1.403 . S
H1085 C1091 0.930 . S
C1086 H1072 0.930 . S
C1086 C1084 1.395 . S
C1086 C1089 1.403 . S
C1087 C1084 1.403 . S
C1087 C1088 1.524 . S
C1087 C1091 1.400 . S
C1088 H1073 0.960 . S
C1088 H1074 0.960 . S
C1088 H1075 0.960 . S
C1088 C1087 1.524 . S
C1089 C1086 1.403 . S
C1089 C1090 1.392 . S
C1089 C1093 1.495 . S
C1090 C1089 1.392 . S
C1090 C1091 1.385 . S
C1090 C1092 1.478 . S
C1091 H1085 0.930 . S
C1091 C1087 1.400 . S
C1091 C1090 1.385 . S
C1092 C1090 1.478 . S
C1092 C1094 1.381 . S
C1092 C1098 1.383 . S
C1093 C1089 1.495 . S
C1093 H1099 0.959 . S
C1093 H1100 0.961 . S
C1093 H1101 0.960 . S
C1094 C1092 1.381 . S
C1094 C1095 1.394 . S
C1094 H1102 0.930 . S
C1095 C1094 1.394 . S
C1095 C1096 1.383 . S
C1095 H1103 0.929 . S
C1096 C1095 1.383 . S
C1096 C1097 1.377 . S
C1097 H1081 0.930 . S
C1097 C1096 1.377 . S
C1097 C1098 1.379 . S
C1098 H1082 0.931 . S
C1098 C1092 1.383 . S
C1098 C1097 1.379 . S
H1099 C1093 0.959 . S
H1100 C1093 0.961 . S
H1101 C1093 0.960 . S
H1102 C1094 0.930 . S
H1103 C1095 0.929 . S
H1104 C1112 0.929 . S
H1105 C1114 0.930 1_556 S
H1106 C1116 0.930 . S
H1107 C1119 0.929 . S
H1108 C1122 0.930 . S
H1109 C1124 0.960 . S
H1110 C1124 0.960 . S
H1111 C1124 0.960 . S
C1112 H1104 0.929 . S
C1112 C1113 1.377 . S
C1112 C1114 1.384 . S
C1113 C1112 1.377 . S
C1113 C1119 1.390 . S
C1114 H1105 0.930 1_554 S
C1114 C1112 1.384 . S
C1114 C1115 1.372 . S
C1115 C1114 1.372 . S
C1115 C1116 1.400 . S
C1115 C1120 1.490 . S
C1116 H1106 0.930 . S
C1116 C1115 1.400 . S
C1116 C1119 1.386 . S
H1117 C1133 0.930 . S
H1118 C1134 0.931 . S
C1119 H1107 0.929 . S
C1119 C1113 1.390 . S
C1119 C1116 1.386 . S
C1120 C1115 1.490 . S
C1120 C1122 1.395 1_554 S
C1120 C1123 1.403 . S
H1121 C1127 0.930 . S
C1122 H1108 0.930 . S
C1122 C1120 1.395 1_556 S
C1122 C1125 1.403 . S
C1123 C1120 1.403 . S
C1123 C1124 1.526 . S
C1123 C1127 1.397 1_554 S
C1124 H1109 0.960 . S
C1124 H1110 0.960 . S
C1124 H1111 0.960 . S
C1124 C1123 1.526 . S
C1125 C1122 1.403 . S
C1125 C1126 1.392 . S
C1125 C1129 1.495 . S
C1126 C1125 1.392 . S
C1126 C1127 1.385 . S
C1126 C1128 1.478 . S
C1127 H1121 0.930 . S
C1127 C1123 1.397 1_556 S
C1127 C1126 1.385 . S
C1128 C1126 1.478 . S
C1128 C1130 1.381 . S
C1128 C1134 1.383 . S
C1129 C1125 1.495 . S
C1129 H1135 0.959 . S
C1129 H1136 0.961 . S
C1129 H1137 0.960 . S
C1130 C1128 1.381 . S
C1130 C1131 1.394 . S
C1130 H1138 0.930 . S
C1131 C1130 1.394 . S
C1131 C1132 1.383 . S
C1131 H1139 0.929 . S
C1132 C1131 1.383 . S
C1132 C1133 1.377 . S
C1133 H1117 0.930 . S
C1133 C1132 1.377 . S
C1133 C1134 1.379 . S
C1134 H1118 0.931 . S
C1134 C1128 1.383 . S
C1134 C1133 1.379 . S
H1135 C1129 0.959 . S
H1136 C1129 0.961 . S
H1137 C1129 0.960 . S
H1138 C1130 0.930 . S
H1139 C1131 0.929 . S
H1140 C1148 0.929 . S
H1141 C1150 0.930 . S
H1142 C1152 0.930 . S
H1143 C1155 0.929 . S
H1144 C1158 0.930 . S
H1145 C1160 0.960 . S
H1146 C1160 0.960 . S
H1147 C1160 0.960 . S
C1148 H1140 0.929 . S
C1148 C1149 1.377 . S
C1148 C1150 1.384 . S
C1149 C1148 1.377 . S
C1149 C1155 1.390 . S
C1150 H1141 0.930 . S
C1150 C1148 1.384 . S
C1150 C1151 1.372 . S
C1151 C1150 1.372 . S
C1151 C1152 1.400 . S
C1151 C1156 1.490 . S
C1152 H1142 0.930 . S
C1152 C1151 1.400 . S
C1152 C1155 1.386 . S
H1153 C1169 0.930 . S
H1154 C1170 0.931 . S
C1155 H1143 0.929 . S
C1155 C1149 1.390 . S
C1155 C1152 1.386 . S
C1156 C1151 1.490 . S
C1156 C1158 1.395 . S
C1156 C1159 1.403 . S
H1157 C1163 0.930 . S
C1158 H1144 0.930 . S
C1158 C1156 1.395 . S
C1158 C1161 1.403 . S
C1159 C1156 1.403 . S
C1159 C1160 1.524 . S
C1159 C1163 1.400 . S
C1160 H1145 0.960 . S
C1160 H1146 0.960 . S
C1160 H1147 0.960 . S
C1160 C1159 1.524 . S
C1161 C1158 1.403 . S
C1161 C1162 1.392 . S
C1161 C1165 1.495 . S
C1162 C1161 1.392 . S
C1162 C1163 1.385 . S
C1162 C1164 1.478 . S
C1163 H1157 0.930 . S
C1163 C1159 1.400 . S
C1163 C1162 1.385 . S
C1164 C1162 1.478 . S
C1164 C1166 1.381 . S
C1164 C1170 1.383 . S
C1165 C1161 1.495 . S
C1165 H1171 0.959 . S
C1165 H1172 0.961 . S
C1165 H1173 0.960 . S
C1166 C1164 1.381 . S
C1166 C1167 1.394 . S
C1166 H1174 0.930 . S
C1167 C1166 1.394 . S
C1167 C1168 1.383 . S
C1167 H1175 0.929 . S
C1168 C1167 1.383 . S
C1168 C1169 1.377 . S
C1169 H1153 0.930 . S
C1169 C1168 1.377 . S
C1169 C1170 1.379 . S
C1170 H1154 0.931 . S
C1170 C1164 1.383 . S
C1170 C1169 1.379 . S
H1171 C1165 0.959 . S
H1172 C1165 0.961 . S
H1173 C1165 0.960 . S
H1174 C1166 0.930 . S
H1175 C1167 0.929 . S
H1176 C1184 0.929 . S
H1177 C1186 0.930 . S
H1178 C1188 0.930 . S
H1179 C1191 0.929 . S
H1180 C1194 0.930 . S
H1181 C1196 0.960 . S
H1182 C1196 0.960 . S
H1183 C1196 0.960 . S
C1184 H1176 0.929 . S
C1184 C1185 1.377 . S
C1184 C1186 1.384 . S
C1185 C1184 1.377 . S
C1185 C1191 1.390 . S
C1186 H1177 0.930 . S
C1186 C1184 1.384 . S
C1186 C1187 1.372 . S
C1187 C1186 1.372 . S
C1187 C1188 1.400 . S
C1187 C1192 1.490 . S
C1188 H1178 0.930 . S
C1188 C1187 1.400 . S
C1188 C1191 1.386 . S
H1189 C1205 0.930 . S
H1190 C1206 0.931 . S
C1191 H1179 0.929 . S
C1191 C1185 1.390 . S
C1191 C1188 1.386 . S
C1192 C1187 1.490 . S
C1192 C1194 1.395 . S
C1192 C1195 1.403 . S
H1193 C1199 0.930 . S
C1194 H1180 0.930 . S
C1194 C1192 1.395 . S
C1194 C1197 1.403 . S
C1195 C1192 1.403 . S
C1195 C1196 1.524 . S
C1195 C1199 1.400 . S
C1196 H1181 0.960 . S
C1196 H1182 0.960 . S
C1196 H1183 0.960 . S
C1196 C1195 1.524 . S
C1197 C1194 1.403 . S
C1197 C1198 1.392 . S
C1197 C1201 1.495 . S
C1198 C1197 1.392 . S
C1198 C1199 1.385 . S
C1198 C1200 1.478 . S
C1199 H1193 0.930 . S
C1199 C1195 1.400 . S
C1199 C1198 1.385 . S
C1200 C1198 1.478 . S
C1200 C1202 1.381 . S
C1200 C1206 1.383 . S
C1201 C1197 1.495 . S
C1201 H1207 0.959 . S
C1201 H1208 0.961 . S
C1201 H1209 0.960 . S
C1202 C1200 1.381 . S
C1202 C1203 1.394 . S
C1202 H1210 0.930 . S
C1203 C1202 1.394 . S
C1203 C1204 1.383 . S
C1203 H1211 0.929 . S
C1204 C1203 1.383 . S
C1204 C1205 1.377 . S
C1205 H1189 0.930 . S
C1205 C1204 1.377 . S
C1205 C1206 1.379 . S
C1206 H1190 0.931 . S
C1206 C1200 1.383 . S
C1206 C1205 1.379 . S
H1207 C1201 0.959 . S
H1208 C1201 0.961 . S
H1209 C1201 0.960 . S
H1210 C1202 0.930 . S
H1211 C1203 0.929 . S
H1212 C1220 0.929 . S
H1213 C1222 0.930 . S
H1214 C1224 0.930 . S
H1215 C1227 0.929 . S
H1216 C1230 0.930 . S
H1217 C1232 0.960 . S
H1218 C1232 0.960 . S
H1219 C1232 0.960 . S
C1220 H1212 0.929 . S
C1220 C1221 1.377 . S
C1220 C1222 1.384 . S
C1221 C1220 1.377 . S
C1221 C1227 1.390 . S
C1222 H1213 0.930 . S
C1222 C1220 1.384 . S
C1222 C1223 1.372 . S
C1223 C1222 1.372 . S
C1223 C1224 1.400 . S
C1223 C1228 1.490 . S
C1224 H1214 0.930 . S
C1224 C1223 1.400 . S
C1224 C1227 1.386 . S
H1225 C1241 0.930 . S
H1226 C1242 0.931 . S
C1227 H1215 0.929 . S
C1227 C1221 1.390 . S
C1227 C1224 1.386 . S
C1228 C1223 1.490 . S
C1228 C1230 1.395 . S
C1228 C1231 1.403 . S
H1229 C1235 0.930 . S
C1230 H1216 0.930 . S
C1230 C1228 1.395 . S
C1230 C1233 1.403 . S
C1231 C1228 1.403 . S
C1231 C1232 1.524 . S
C1231 C1235 1.400 . S
C1232 H1217 0.960 . S
C1232 H1218 0.960 . S
C1232 H1219 0.960 . S
C1232 C1231 1.524 . S
C1233 C1230 1.403 . S
C1233 C1234 1.392 . S
C1233 C1237 1.495 . S
C1234 C1233 1.392 . S
C1234 C1235 1.385 . S
C1234 C1236 1.478 . S
C1235 H1229 0.930 . S
C1235 C1231 1.400 . S
C1235 C1234 1.385 . S
C1236 C1234 1.478 . S
C1236 C1238 1.381 . S
C1236 C1242 1.383 . S
C1237 C1233 1.495 . S
C1237 H1243 0.959 . S
C1237 H1244 0.961 . S
C1237 H1245 0.960 . S
C1238 C1236 1.381 . S
C1238 C1239 1.394 . S
C1238 H1246 0.930 . S
C1239 C1238 1.394 . S
C1239 C1240 1.383 . S
C1239 H1247 0.929 . S
C1240 C1239 1.383 . S
C1240 C1241 1.377 . S
C1241 H1225 0.930 . S
C1241 C1240 1.377 . S
C1241 C1242 1.379 . S
C1242 H1226 0.931 . S
C1242 C1236 1.383 . S
C1242 C1241 1.379 . S
H1243 C1237 0.959 . S
H1244 C1237 0.961 . S
H1245 C1237 0.960 . S
H1246 C1238 0.930 . S
H1247 C1239 0.929 . S
H1248 C1256 0.929 . S
H1249 C1258 0.930 . S
H1250 C1260 0.930 . S
H1251 C1263 0.929 1_455 S
H1252 C1266 0.930 . S
H1253 C1268 0.960 . S
H1254 C1268 0.960 . S
H1255 C1268 0.960 . S
C1256 H1248 0.929 . S
C1256 C1257 1.377 . S
C1256 C1258 1.384 . S
C1257 C1256 1.377 . S
C1257 C1263 1.390 . S
C1258 H1249 0.930 . S
C1258 C1256 1.384 . S
C1258 C1259 1.372 . S
C1259 C1258 1.372 . S
C1259 C1260 1.400 . S
C1259 C1264 1.490 . S
C1260 H1250 0.930 . S
C1260 C1259 1.400 . S
C1260 C1263 1.386 . S
H1261 C1277 0.930 . S
H1262 C1278 0.931 . S
C1263 H1251 0.929 1_655 S
C1263 C1257 1.390 . S
C1263 C1260 1.386 . S
C1264 C1259 1.490 . S
C1264 C1266 1.395 . S
C1264 C1267 1.403 . S
H1265 C1271 0.930 . S
C1266 H1252 0.930 . S
C1266 C1264 1.395 . S
C1266 C1269 1.403 . S
C1267 C1264 1.403 . S
C1267 C1268 1.524 1_655 S
C1267 C1271 1.400 . S
C1268 H1253 0.960 . S
C1268 H1254 0.960 . S
C1268 H1255 0.960 . S
C1268 C1267 1.524 1_455 S
C1269 C1266 1.403 . S
C1269 C1270 1.392 . S
C1269 C1273 1.495 . S
C1270 C1269 1.392 . S
C1270 C1271 1.385 . S
C1270 C1272 1.478 . S
C1271 H1265 0.930 . S
C1271 C1267 1.400 . S
C1271 C1270 1.385 . S
C1272 C1270 1.478 . S
C1272 C1274 1.381 . S
C1272 C1278 1.383 . S
C1273 C1269 1.495 . S
C1273 H1279 0.959 . S
C1273 H1280 0.961 . S
C1273 H1281 0.960 . S
C1274 C1272 1.381 . S
C1274 C1275 1.394 . S
C1274 H1282 0.930 . S
C1275 C1274 1.394 . S
C1275 C1276 1.383 . S
C1275 H1283 0.929 . S
C1276 C1275 1.383 . S
C1276 C1277 1.377 . S
C1277 H1261 0.930 . S
C1277 C1276 1.377 . S
C1277 C1278 1.379 . S
C1278 H1262 0.931 . S
C1278 C1272 1.383 . S
C1278 C1277 1.379 . S
H1279 C1273 0.959 . S
H1280 C1273 0.961 . S
H1281 C1273 0.960 . S
H1282 C1274 0.930 . S
H1283 C1275 0.929 . S
H1284 C1292 0.929 . S
H1285 C1294 0.930 . S
H1286 C1296 0.930 . S
H1287 C1299 0.929 . S
H1288 C1302 0.930 . S
H1289 C1304 0.960 . S
H1290 C1304 0.960 1_545 S
H1291 C1304 0.960 . S
C1292 H1284 0.929 . S
C1292 C1293 1.377 . S
C1292 C1294 1.384 . S
C1293 C1292 1.377 . S
C1293 C1299 1.390 1_545 S
C1294 H1285 0.930 . S
C1294 C1292 1.384 . S
C1294 C1295 1.372 1_545 S
C1295 C1294 1.372 1_565 S
C1295 C1296 1.400 . S
C1295 C1300 1.490 . S
C1296 H1286 0.930 . S
C1296 C1295 1.400 . S
C1296 C1299 1.386 . S
H1297 C1313 0.930 . S
H1298 C1314 0.931 . S
C1299 H1287 0.929 . S
C1299 C1293 1.390 1_565 S
C1299 C1296 1.386 . S
C1300 C1295 1.490 . S
C1300 C1302 1.395 . S
C1300 C1303 1.403 . S
H1301 C1307 0.930 . S
C1302 H1288 0.930 . S
C1302 C1300 1.395 . S
C1302 C1305 1.403 . S
C1303 C1300 1.403 . S
C1303 C1304 1.524 . S
C1303 C1307 1.400 . S
C1304 H1289 0.960 . S
C1304 H1290 0.960 1_565 S
C1304 H1291 0.960 . S
C1304 C1303 1.524 . S
C1305 C1302 1.403 . S
C1305 C1306 1.392 . S
C1305 C1309 1.495 . S
C1306 C1305 1.392 . S
C1306 C1307 1.385 . S
C1306 C1308 1.478 . S
C1307 H1301 0.930 . S
C1307 C1303 1.400 . S
C1307 C1306 1.385 . S
C1308 C1306 1.478 . S
C1308 C1310 1.381 . S
C1308 C1314 1.383 . S
C1309 C1305 1.495 . S
C1309 H1315 0.959 . S
C1309 H1316 0.961 . S
C1309 H1317 0.960 . S
C1310 C1308 1.381 . S
C1310 C1311 1.394 . S
C1310 H1318 0.930 . S
C1311 C1310 1.394 . S
C1311 C1312 1.383 . S
C1311 H1319 0.929 . S
C1312 C1311 1.383 . S
C1312 C1313 1.377 . S
C1313 H1297 0.930 . S
C1313 C1312 1.377 . S
C1313 C1314 1.379 . S
C1314 H1298 0.931 . S
C1314 C1308 1.383 . S
C1314 C1313 1.379 . S
H1315 C1309 0.959 . S
H1316 C1309 0.961 . S
H1317 C1309 0.960 . S
H1318 C1310 0.930 . S
H1319 C1311 0.929 . S
H1320 C1328 0.929 . S
H1321 C1330 0.930 . S
H1322 C1332 0.930 . S
H1323 C1335 0.929 . S
H1324 C1338 0.930 . S
H1325 C1340 0.960 . S
H1326 C1340 0.960 . S
H1327 C1340 0.960 . S
C1328 H1320 0.929 . S
C1328 C1329 1.377 . S
C1328 C1330 1.384 . S
C1329 C1328 1.377 . S
C1329 C1335 1.390 . S
C1330 H1321 0.930 . S
C1330 C1328 1.384 . S
C1330 C1331 1.372 . S
C1331 C1330 1.372 . S
C1331 C1332 1.400 . S
C1331 C1336 1.490 . S
C1332 H1322 0.930 . S
C1332 C1331 1.400 . S
C1332 C1335 1.386 . S
H1333 C1349 0.930 . S
H1334 C1350 0.931 . S
C1335 H1323 0.929 . S
C1335 C1329 1.390 . S
C1335 C1332 1.386 . S
C1336 C1331 1.490 . S
C1336 C1338 1.395 . S
C1336 C1339 1.403 . S
H1337 C1343 0.930 . S
C1338 H1324 0.930 . S
C1338 C1336 1.395 . S
C1338 C1341 1.403 . S
C1339 C1336 1.403 . S
C1339 C1340 1.524 . S
C1339 C1343 1.400 . S
C1340 H1325 0.960 . S
C1340 H1326 0.960 . S
C1340 H1327 0.960 . S
C1340 C1339 1.524 . S
C1341 C1338 1.403 . S
C1341 C1342 1.392 . S
C1341 C1345 1.495 . S
C1342 C1341 1.392 . S
C1342 C1343 1.385 . S
C1342 C1344 1.478 . S
C1343 H1337 0.930 . S
C1343 C1339 1.400 . S
C1343 C1342 1.385 . S
C1344 C1342 1.478 . S
C1344 C1346 1.381 . S
C1344 C1350 1.383 . S
C1345 C1341 1.495 . S
C1345 H1351 0.959 . S
C1345 H1352 0.961 . S
C1345 H1353 0.960 . S
C1346 C1344 1.381 . S
C1346 C1347 1.394 . S
C1346 H1354 0.930 . S
C1347 C1346 1.394 . S
C1347 C1348 1.383 . S
C1347 H1355 0.929 . S
C1348 C1347 1.383 . S
C1348 C1349 1.377 . S
C1349 H1333 0.930 . S
C1349 C1348 1.377 . S
C1349 C1350 1.379 . S
C1350 H1334 0.931 . S
C1350 C1344 1.383 . S
C1350 C1349 1.379 . S
H1351 C1345 0.959 . S
H1352 C1345 0.961 . S
H1353 C1345 0.960 . S
H1354 C1346 0.930 . S
H1355 C1347 0.929 . S
H1356 C1364 0.929 . S
H1357 C1366 0.930 . S
H1358 C1368 0.930 . S
H1359 C1371 0.929 . S
H1360 C1374 0.930 . S
H1361 C1376 0.960 . S
H1362 C1376 0.960 . S
H1363 C1376 0.960 . S
C1364 H1356 0.929 . S
C1364 C1365 1.377 . S
C1364 C1366 1.384 . S
C1365 C1364 1.377 . S
C1365 C1371 1.390 . S
C1366 H1357 0.930 . S
C1366 C1364 1.384 . S
C1366 C1367 1.372 . S
C1367 C1366 1.372 . S
C1367 C1368 1.400 . S
C1367 C1372 1.490 . S
C1368 H1358 0.930 . S
C1368 C1367 1.400 . S
C1368 C1371 1.386 . S
H1369 C1385 0.930 . S
H1370 C1386 0.931 . S
C1371 H1359 0.929 . S
C1371 C1365 1.390 . S
C1371 C1368 1.386 . S
C1372 C1367 1.490 . S
C1372 C1374 1.395 . S
C1372 C1375 1.403 . S
H1373 C1379 0.930 . S
C1374 H1360 0.930 . S
C1374 C1372 1.395 . S
C1374 C1377 1.403 . S
C1375 C1372 1.403 . S
C1375 C1376 1.524 . S
C1375 C1379 1.400 . S
C1376 H1361 0.960 . S
C1376 H1362 0.960 . S
C1376 H1363 0.960 . S
C1376 C1375 1.524 . S
C1377 C1374 1.403 . S
C1377 C1378 1.392 . S
C1377 C1381 1.495 . S
C1378 C1377 1.392 . S
C1378 C1379 1.385 . S
C1378 C1380 1.478 . S
C1379 H1373 0.930 . S
C1379 C1375 1.400 . S
C1379 C1378 1.385 . S
C1380 C1378 1.478 . S
C1380 C1382 1.381 . S
C1380 C1386 1.383 . S
C1381 C1377 1.495 . S
C1381 H1387 0.959 . S
C1381 H1388 0.961 . S
C1381 H1389 0.960 . S
C1382 C1380 1.381 . S
C1382 C1383 1.394 . S
C1382 H1390 0.930 . S
C1383 C1382 1.394 . S
C1383 C1384 1.383 . S
C1383 H1391 0.929 . S
C1384 C1383 1.383 . S
C1384 C1385 1.377 . S
C1385 H1369 0.930 . S
C1385 C1384 1.377 . S
C1385 C1386 1.379 . S
C1386 H1370 0.931 . S
C1386 C1380 1.383 . S
C1386 C1385 1.379 . S
H1387 C1381 0.959 . S
H1388 C1381 0.961 . S
H1389 C1381 0.960 . S
H1390 C1382 0.930 . S
H1391 C1383 0.929 . S
C537 C13 2.195 . S
C556 C147 2.156 . S
C573 C27 1.351 . S
C592 C221 1.303 . S
C628 C271 1.805 . S
C609 C29 1.858 . S
C664 C357 1.239 . S
C645 C54 1.233 . S
C700 C449 1.935 . S
C681 C69 1.938 . S
C736 C493 1.878 . S
C717 C83 1.936 . S
C753 C15 1.173 . S
C772 C295 1.141 . S
C789 C41 2.601 . S
C808 C375 2.570 . S
C844 C431 1.403 . S
C825 C42 1.398 . S
C880 C517 1.476 . S
C861 C57 1.492 . S
C897 C71 2.156 . S
C916 C123 2.084 . S
C952 C197 1.927 . S
C933 C1 1.941 . S
C988 C369 1.882 . S
C969 C12 2.021 . S
C1005 C26 2.166 . S
C1024 C419 2.003 . S
C1060 C523 2.351 . S
C1041 C28 2.447 . S
C1077 C55 1.426 . S
C1096 C135 1.395 . S
C1113 C68 1.933 . S
C1132 C209 1.821 . S
C1149 C82 2.475 . S
C1168 C301 2.359 . S
C1185 C14 1.935 . S
C1204 C505 1.820 . S
C1240 C153 2.252 . S
C1221 C40 2.281 . S
C1257 C43 2.422 . S
C1276 C227 2.298 . S
C1293 C56 1.658 . S
C1312 C283 1.532 . S
C1329 C70 1.623 . S
C1348 C345 1.497 . S
C1365 C0 2.105 . S
C1384 C443 1.945 . S
