# Generated by pormake.
# Topology zzz, (3,6)-cn, num edge types: 1
# Building blocks:
#     Node 0, Type 0, BuildingBlock: BETDAH_clean_linker_0, # of connection points: 3
#     Node 1, Type 0, BuildingBlock: BETDAH_clean_linker_0, # of connection points: 3
#     Node 2, Type 0, BuildingBlock: BETDAH_clean_linker_0, # of connection points: 3
#     Node 3, Type 0, BuildingBlock: BETDAH_clean_linker_0, # of connection points: 3
#     Node 4, Type 0, BuildingBlock: BETDAH_clean_linker_0, # of connection points: 3
#     Node 5, Type 0, BuildingBlock: BETDAH_clean_linker_0, # of connection points: 3
#     Node 6, Type 0, BuildingBlock: BETDAH_clean_linker_0, # of connection points: 3
#     Node 7, Type 0, BuildingBlock: BETDAH_clean_linker_0, # of connection points: 3
#     Node 8, Type 1, BuildingBlock: KUMBOL_clean_sbu_1, # of connection points: 6
#     Node 9, Type 1, BuildingBlock: KUMBOL_clean_sbu_1, # of connection points: 6
#     Node 10, Type 1, BuildingBlock: KUMBOL_clean_sbu_1, # of connection points: 6
#     Node 11, Type 1, BuildingBlock: KUMBOL_clean_sbu_1, # of connection points: 6
#     Edge 12, Type (0, 1), BuildingBlock: KIFKEQ_clean_linker_1, # of connection points: 2
#     Edge 13, Type (0, 1), BuildingBlock: KIFKEQ_clean_linker_1, # of connection points: 2
#     Edge 14, Type (0, 1), BuildingBlock: KIFKEQ_clean_linker_1, # of connection points: 2
#     Edge 15, Type (0, 1), BuildingBlock: KIFKEQ_clean_linker_1, # of connection points: 2
#     Edge 16, Type (0, 1), BuildingBlock: KIFKEQ_clean_linker_1, # of connection points: 2
#     Edge 17, Type (0, 1), BuildingBlock: KIFKEQ_clean_linker_1, # of connection points: 2
#     Edge 18, Type (0, 1), BuildingBlock: KIFKEQ_clean_linker_1, # of connection points: 2
#     Edge 19, Type (0, 1), BuildingBlock: KIFKEQ_clean_linker_1, # of connection points: 2
#     Edge 20, Type (0, 1), BuildingBlock: KIFKEQ_clean_linker_1, # of connection points: 2
#     Edge 21, Type (0, 1), BuildingBlock: KIFKEQ_clean_linker_1, # of connection points: 2
#     Edge 22, Type (0, 1), BuildingBlock: KIFKEQ_clean_linker_1, # of connection points: 2
#     Edge 23, Type (0, 1), BuildingBlock: KIFKEQ_clean_linker_1, # of connection points: 2
#     Edge 24, Type (0, 1), BuildingBlock: KIFKEQ_clean_linker_1, # of connection points: 2
#     Edge 25, Type (0, 1), BuildingBlock: KIFKEQ_clean_linker_1, # of connection points: 2
#     Edge 26, Type (0, 1), BuildingBlock: KIFKEQ_clean_linker_1, # of connection points: 2
#     Edge 27, Type (0, 1), BuildingBlock: KIFKEQ_clean_linker_1, # of connection points: 2
#     Edge 28, Type (0, 1), BuildingBlock: KIFKEQ_clean_linker_1, # of connection points: 2
#     Edge 29, Type (0, 1), BuildingBlock: KIFKEQ_clean_linker_1, # of connection points: 2
#     Edge 30, Type (0, 1), BuildingBlock: KIFKEQ_clean_linker_1, # of connection points: 2
#     Edge 31, Type (0, 1), BuildingBlock: KIFKEQ_clean_linker_1, # of connection points: 2
#     Edge 32, Type (0, 1), BuildingBlock: KIFKEQ_clean_linker_1, # of connection points: 2
#     Edge 33, Type (0, 1), BuildingBlock: KIFKEQ_clean_linker_1, # of connection points: 2
#     Edge 34, Type (0, 1), BuildingBlock: KIFKEQ_clean_linker_1, # of connection points: 2
#     Edge 35, Type (0, 1), BuildingBlock: KIFKEQ_clean_linker_1, # of connection points: 2
# Relax obj value: 0.178
# Max RMSD: 0.105
# Mean RMSD: 0.081
data_MOF--net-zzz--node1-KUMBOL_clean_sbu_1--node2-BETDAH_clean_linker_0--edge1-KIFKEQ_clean_linker_1
_symmetry_space_group_name_H-M    P1
_symmetry_Int_Tables_number       1
_symmetry_cell_setting            triclinic
loop_
_symmetry_equiv_pos_as_xyz
'x, y, z'
_cell_length_a     50.892114
_cell_length_b     50.66225
_cell_length_c     16.021304
_cell_angle_alpha  89.888676
_cell_angle_beta   90.026564
_cell_angle_gamma 90.379658
loop_
_atom_site_label
_atom_site_type_symbol
_atom_site_fract_x
_atom_site_fract_y
_atom_site_fract_z
_atom_type_partial_charge
H0 H 0.83077 0.56477 0.23977 0.0
H1 H 0.75117 0.56024 0.15219 0.0
H2 H 0.76876 0.54513 0.41162 0.0
C3 C 0.80999 0.56217 0.25277 0.0
C4 C 0.80223 0.55561 0.33415 0.0
C5 C 0.79177 0.56342 0.187 0.0
C6 C 0.76505 0.5591 0.20327 0.0
C7 C 0.75633 0.55253 0.28381 0.0
C8 C 0.77516 0.55053 0.3494 0.0
N9 N 0.72901 0.5473 0.29916 0.0
C10 C 0.70913 0.5475 0.23781 0.0
H11 H 0.98732 0.83665 0.21723 0.0
H12 H 0.99175 0.75615 0.13827 0.0
H13 H 0.99627 0.77518 0.40089 0.0
C14 C 0.98839 0.81589 0.23348 0.0
C15 C 0.99103 0.80863 0.31766 0.0
C16 C 0.98873 0.79714 0.16923 0.0
C17 C 0.9914 0.77038 0.18861 0.0
C18 C 0.99396 0.76204 0.27184 0.0
C19 C 0.99408 0.78137 0.33655 0.0
N20 N 0.99668 0.73453 0.29112 0.0
C21 C 0.99747 0.71411 0.23153 0.0
H22 H 0.71641 0.98448 0.28233 0.0
H23 H 0.78969 0.99184 0.15152 0.0
H24 H 0.78171 0.0233 0.40089 0.0
C25 C 0.73703 0.99014 0.2824 0.0
C26 C 0.74708 1.00388 0.35095 0.0
C27 C 0.75216 0.98602 0.21053 0.0
C28 C 0.77841 0.99457 0.20813 0.0
C29 C 0.78965 1.00737 0.27759 0.0
C30 C 0.77363 1.01246 0.34854 0.0
N31 N 0.81649 1.01611 0.2767 0.0
C32 C 0.83425 1.01322 0.21006 0.0
H33 H 0.56888 0.72848 0.24024 0.0
H34 H 0.56139 0.80917 0.16436 0.0
H35 H 0.5377 0.78556 0.41224 0.0
C36 C 0.56419 0.74871 0.25601 0.0
C37 C 0.55396 0.75433 0.33558 0.0
C38 C 0.56658 0.76832 0.19421 0.0
C39 C 0.55937 0.79424 0.21243 0.0
C40 C 0.5488 0.80081 0.29038 0.0
C41 C 0.54599 0.78068 0.35202 0.0
N42 N 0.54041 0.82727 0.30654 0.0
C43 C 0.54069 0.8478 0.24705 0.0
H44 H 0.21685 0.50596 0.17811 0.0
H45 H 0.29821 0.5027 0.24837 0.0
H46 H 0.27679 0.51116 0.98942 0.0
C47 C 0.23742 0.50558 0.16076 0.0
C48 C 0.24406 0.50767 0.07585 0.0
C49 C 0.2568 0.50431 0.22338 0.0
C50 C 0.28335 0.50455 0.20044 0.0
C51 C 0.29099 0.50748 0.11694 0.0
C52 C 0.27115 0.5091 0.05428 0.0
N53 N 0.31836 0.50908 0.09578 0.0
C54 C 0.33906 0.50957 0.15446 0.0
H55 H 0.07912 0.23095 0.0837 0.0
H56 H 0.06781 0.30677 0.19525 0.0
H57 H 0.02141 0.28346 0.98132 0.0
C58 C 0.07001 0.25023 0.08163 0.0
C59 C 0.05032 0.25488 0.02226 0.0
C60 C 0.07628 0.26867 0.14395 0.0
C61 C 0.06324 0.29291 0.14583 0.0
C62 C 0.04354 0.29869 0.08714 0.0
C63 C 0.03693 0.27939 0.02572 0.0
N64 N 0.02966 0.32321 0.09061 0.0
C65 C 0.03315 0.34283 0.15196 0.0
H66 H 0.32097 0.07013 0.09862 0.0
H67 H 0.24131 0.06542 0.18477 0.0
H68 H 0.2628 0.03172 0.94684 0.0
C69 C 0.30054 0.0651 0.08712 0.0
C70 C 0.29438 0.05117 0.01434 0.0
C71 C 0.28167 0.06994 0.14916 0.0
C72 C 0.2556 0.06208 0.1359 0.0
C73 C 0.24836 0.04843 0.06304 0.0
C74 C 0.26792 0.04308 1.00175 0.0
N75 N 0.22207 0.0386 0.05314 0.0
C76 C 0.20256 0.03946 0.11538 0.0
H77 H 0.48852 0.33744 0.15053 0.0
H78 H 0.49528 0.2586 0.24697 0.0
H79 H 0.51542 0.27523 0.99046 0.0
C80 C 0.49248 0.31668 0.14049 0.0
C81 C 0.50121 0.30862 0.06165 0.0
C82 C 0.49079 0.29888 0.20776 0.0
C83 C 0.49685 0.27224 0.19506 0.0
C84 C 0.50588 0.26335 0.11741 0.0
C85 C 0.50818 0.28176 0.05047 0.0
N86 N 0.51342 0.23634 0.10659 0.0
C87 C 0.5138 0.21719 0.17052 0.0
C88 C 0.06539 0.06682 0.86751 0.0
C89 C 0.04099 0.0653 0.99725 0.0
C90 C 0.04623 0.05517 0.91701 0.0
C91 C 0.05435 0.08803 0.02486 0.0
C92 C 0.07978 0.08883 0.89647 0.0
C93 C 0.07373 0.09976 0.9746 0.0
N94 N 0.07034 0.05621 0.79141 0.0
C95 C 0.09117 0.06483 0.74471 0.0
C96 C 0.10012 0.09889 0.84657 0.0
C97 C 0.10611 0.08656 0.77098 0.0
Gd98 Gd 0.9934 0.04731 0.58544 0.0
Gd99 Gd 0.0439 0.02029 0.7507 0.0
N100 N 0.0339 0.03304 0.88875 0.0
C101 C 0.02315 0.05175 0.04844 0.0
C102 C 0.01821 1.01862 0.94117 0.0
C103 C 1.01209 0.02803 0.02081 0.0
H104 H 1.01062 0.9996 0.92236 0.0
H105 H 0.99915 1.0168 0.06126 0.0
H106 H 0.02023 0.0312 0.40371 0.0
H107 H 0.09564 0.05535 0.68606 0.0
H108 H 1.00834 1.00637 0.27607 0.0
H109 H 0.0186 0.05885 0.1105 0.0
H110 H 0.05037 0.09624 0.08592 0.0
H111 H 0.93576 0.06261 0.67542 0.0
H112 H 0.11163 0.11579 0.86659 0.0
H113 H 0.12214 0.09385 0.73283 0.0
H114 H 0.91923 0.97854 0.32496 0.0
H115 H 0.08431 0.11691 0.99749 0.0
H116 H 0.8754 1.01578 0.56131 0.0
H117 H 0.88943 0.04793 0.66885 0.0
N118 N 0.94834 0.03677 0.57925 0.0
C119 C 0.94078 0.02033 0.51673 0.0
C120 C 0.93007 0.04766 0.63089 0.0
C121 C 0.8959 0.02155 0.56563 0.0
C122 C 0.90373 0.03971 0.62638 0.0
C123 C 0.91434 1.01223 0.50817 0.0
H124 H 0.8868 0.98964 0.43309 0.0
N125 N 0.98376 0.02358 0.46383 0.0
C126 C 0.95903 1.01379 0.45641 0.0
C127 C 0.96956 0.99622 0.32039 0.0
C128 C 0.95134 0.99943 0.38504 0.0
C129 C 1.00111 0.02198 0.39905 0.0
C130 C 0.99439 1.00802 0.32673 0.0
O131 O 0.03902 0.06356 0.71294 0.0
O132 O 0.99547 0.06941 0.70796 0.0
O133 O 1.00898 0.08616 0.56229 0.0
O134 O 0.97285 0.07415 0.50148 0.0
O135 O 1.00134 1.0076 0.77734 0.0
O136 O 0.97676 0.04061 0.71597 0.0
O137 O 1.0095 1.00573 0.56395 0.0
O138 O 0.01721 0.98865 0.69468 0.0
O139 O 0.06299 0.99483 0.84137 0.0
O140 O 0.07999 1.0002 0.71911 0.0
O141 O 0.03625 0.04996 0.54469 0.0
O142 O 0.05978 1.01899 0.61886 0.0
C143 C 0.01843 0.0774 0.73499 0.0
C144 C 0.97977 0.02198 0.77289 0.0
C145 C 1.00376 0.1003 0.42467 0.0
C146 C 0.0387 0.12518 0.35417 0.0
C147 C 1.00535 0.10153 0.27355 0.0
C148 C 0.99325 0.09298 0.34704 0.0
C149 C 0.0277 0.1177 0.2768 0.0
C150 C 0.02665 0.11591 0.42745 0.0
C151 C 0.992 0.09138 0.50403 0.0
C152 C 0.92542 0.98994 0.3787 0.0
C153 C 0.90696 0.99626 0.44033 0.0
H154 H 0.96436 0.98549 0.26425 0.0
C155 C 1.01134 0.98535 0.61514 0.0
C156 C 0.05724 0.03524 0.55531 0.0
C157 C 0.08456 0.95856 0.7793 0.0
C158 C 0.06733 0.91353 0.78535 0.0
C159 C 0.11257 0.92185 0.74277 0.0
C160 C 0.10897 0.94892 0.75341 0.0
C161 C 0.092 0.9042 0.7592 0.0
C162 C 0.06371 0.94091 0.79313 0.0
C163 C 0.08082 0.98709 0.78868 0.0
H164 H 0.99713 0.09599 0.21373 0.0
H165 H 0.97583 0.08065 0.34301 0.0
H166 H 0.03572 0.12489 0.21846 0.0
H167 H 0.03509 0.12069 0.48759 0.0
H168 H 0.1315 0.91448 0.72319 0.0
H169 H 0.12519 0.96235 0.74129 0.0
H170 H 0.09577 0.88326 0.75409 0.0
H171 H 0.04471 0.94861 0.81092 0.0
C172 C 0.54142 0.94793 0.64022 0.0
C173 C 0.51043 0.92008 0.71517 0.0
C174 C 0.51734 0.94452 0.67892 0.0
C175 C 0.52884 0.89956 0.71636 0.0
C176 C 0.55934 0.92684 0.63666 0.0
C177 C 0.55328 0.90295 0.67726 0.0
N178 N 0.54631 0.97108 0.59995 0.0
C179 C 0.5673 0.9732 0.54712 0.0
C180 C 0.58222 0.93 0.58921 0.0
C181 C 0.58593 0.95307 0.54279 0.0
Gd182 Gd 0.53785 0.05602 0.78911 0.0
Gd183 Gd 0.51499 1.00471 0.61966 0.0
N184 N 0.50007 0.96476 0.67707 0.0
C185 C 0.48493 0.91678 0.74658 0.0
C186 C 0.47468 0.96122 0.70259 0.0
C187 C 0.46682 0.93728 0.73877 0.0
H188 H 0.4608 0.9772 0.69704 0.0
H189 H 0.44689 0.93472 0.76103 0.0
H190 H 0.60457 0.05787 0.78359 0.0
H191 H 0.56974 0.99031 0.50755 0.0
H192 H 0.63929 0.08676 0.72656 0.0
H193 H 0.47883 0.89828 0.77481 0.0
H194 H 0.52407 0.88073 0.74496 0.0
H195 H 0.48549 0.09387 0.81691 0.0
H196 H 0.5965 0.91429 0.58487 0.0
H197 H 0.60292 0.95522 0.50268 0.0
H198 H 0.59355 0.16498 0.64298 0.0
H199 H 0.56695 0.88664 0.67609 0.0
H200 H 0.50259 0.17084 0.71819 0.0
H201 H 0.47163 0.13974 0.78677 0.0
N202 N 0.52346 0.09915 0.76423 0.0
C203 C 0.54126 0.11631 0.73155 0.0
C204 C 0.49903 0.10746 0.78723 0.0
C205 C 0.50873 0.15083 0.7315 0.0
C206 C 0.49119 0.13334 0.77029 0.0
C207 C 0.53425 0.14252 0.71269 0.0
H208 H 0.54798 0.17981 0.66188 0.0
N209 N 0.57331 0.08326 0.74744 0.0
C210 C 0.5669 0.10793 0.72134 0.0
C211 C 0.61244 0.1174 0.69015 0.0
C212 C 0.58624 0.12561 0.69132 0.0
C213 C 0.59911 0.07623 0.75416 0.0
C214 C 0.61896 0.09281 0.72341 0.0
O215 O 0.51311 0.99473 0.7586 0.0
O216 O 0.55064 1.01353 0.80549 0.0
O217 O 0.55689 0.07485 0.89471 0.0
O218 O 0.52175 0.05155 0.91379 0.0
O219 O 0.48058 0.02638 0.67913 0.0
O220 O 0.49536 0.04258 0.80623 0.0
O221 O 0.51445 0.06991 0.6747 0.0
O222 O 0.53046 0.04393 0.57156 0.0
O223 O 0.48108 1.01415 0.54744 0.0
O224 O 0.50785 0.98381 0.5009 0.0
O225 O 0.56997 0.02998 0.73262 0.0
O226 O 0.55487 0.02444 0.59922 0.0
C227 C 0.53329 0.99437 0.80956 0.0
C228 C 0.4762 0.03547 0.75507 0.0
C229 C 0.55434 0.04898 0.01582 0.0
C230 C 0.58793 1.01771 0.05992 0.0
C231 C 0.55876 0.03796 0.16203 0.0
C232 C 0.54623 0.05198 0.09861 0.0
C233 C 0.57959 0.02115 0.1432 0.0
C234 C 0.57472 0.03151 0.99655 0.0
C235 C 0.54137 0.06371 0.94901 0.0
C236 C 0.57902 0.15124 0.66717 0.0
C237 C 0.55308 0.15971 0.67807 0.0
H238 H 0.62789 0.13036 0.66745 0.0
C239 C 0.52178 0.06693 0.59654 0.0
C240 C 0.57451 0.02652 0.65238 0.0
C241 C 0.46855 0.99401 0.41804 0.0
C242 C 0.42693 1.00536 0.35289 0.0
C243 C 0.45732 0.97601 0.28243 0.0
C244 C 0.47493 0.97826 0.34917 0.0
C245 C 0.43338 0.98947 0.28411 0.0
C246 C 0.44453 1.00729 0.41947 0.0
C247 C 0.48635 0.99711 0.4894 0.0
H248 H 0.55263 0.04049 0.22621 0.0
H249 H 0.53032 0.0652 0.11414 0.0
H250 H 0.58958 1.01157 0.19449 0.0
H251 H 0.58035 0.02899 0.93195 0.0
H252 H 0.46226 0.96389 0.22919 0.0
H253 H 0.49342 0.96781 0.34687 0.0
H254 H 0.42013 0.98772 0.23147 0.0
H255 H 0.43922 1.01902 0.47337 0.0
C256 C 0.44754 0.51282 0.84271 0.0
C257 C 0.45941 0.49624 0.97975 0.0
C258 C 0.46561 0.51063 0.90685 0.0
C259 C 0.43489 0.48351 0.98615 0.0
C260 C 0.4226 0.50069 0.84987 0.0
C261 C 0.41654 0.4857 0.92129 0.0
N262 N 0.45391 0.52776 0.77509 0.0
C263 C 0.43542 0.53306 0.71565 0.0
C264 C 0.40424 0.5046 0.78608 0.0
C265 C 0.41058 0.52116 0.71924 0.0
Gd266 Gd 0.55 0.51883 0.61821 0.0
Gd267 Gd 0.49653 0.54631 0.77398 0.0
N268 N 0.48926 0.52282 0.89822 0.0
C269 C 0.47795 0.49532 0.04427 0.0
C270 C 0.50697 0.523 0.96229 0.0
C271 C 0.50174 0.50898 0.03579 0.0
H272 H 0.52524 0.53377 0.95632 0.0
H273 H 0.51599 0.50882 0.08595 0.0
H274 H 0.51641 0.50002 0.444 0.0
H275 H 0.43941 0.54702 0.66639 0.0
H276 H 0.50706 0.51782 0.30435 0.0
H277 H 0.47393 0.48449 0.1013 0.0
H278 H 0.4298 0.47223 0.04143 0.0
H279 H 0.60422 0.54918 0.68381 0.0
H280 H 0.38488 0.49563 0.78919 0.0
H281 H 0.39618 0.52514 0.67117 0.0
H282 H 0.56455 0.59274 0.28022 0.0
H283 H 0.39754 0.47614 0.92767 0.0
H284 H 0.62675 0.6069 0.50061 0.0
H285 H 0.63469 0.5845 0.6357 0.0
N286 N 0.57933 0.55233 0.57787 0.0
C287 C 0.57559 0.56312 0.50115 0.0
C288 C 0.60083 0.55892 0.6247 0.0
C289 C 0.61347 0.59142 0.5213 0.0
C290 C 0.61802 0.57882 0.59763 0.0
C291 C 0.59224 0.5834 0.47149 0.0
H292 H 0.59995 0.61038 0.36912 0.0
N293 N 0.54134 0.5321 0.47945 0.0
C294 C 0.55562 0.55309 0.45123 0.0
C295 C 0.53333 0.55102 0.3181 0.0
C296 C 0.55183 0.56326 0.37006 0.0
C297 C 0.52526 0.51858 0.42588 0.0
C298 C 0.52039 0.52825 0.34558 0.0
O299 O 0.50987 0.50395 0.79889 0.0
O300 O 0.52312 0.48701 0.67196 0.0
O301 O 0.56968 0.49333 0.52956 0.0
O302 O 0.58437 0.4966 0.65539 0.0
O303 O 0.53938 0.55286 0.81357 0.0
O304 O 0.56169 0.51828 0.75432 0.0
O305 O 0.54847 0.56291 0.65229 0.0
O306 O 0.50473 0.56917 0.65552 0.0
O307 O 0.50675 0.57975 0.85053 0.0
O308 O 0.46657 0.57472 0.80905 0.0
O309 O 0.50738 0.50707 0.58779 0.0
O310 O 0.4854 0.5432 0.63666 0.0
C311 C 0.51525 0.4838 0.74985 0.0
C312 C 0.55969 0.53677 0.81131 0.0
C313 C 0.58646 0.45506 0.59373 0.0
C314 C 0.56412 0.41236 0.58841 0.0
C315 C 0.60932 0.41557 0.63734 0.0
C316 C 0.60912 0.44282 0.62432 0.0
C317 C 0.58703 0.40036 0.61934 0.0
C318 C 0.56401 0.43984 0.57678 0.0
C319 C 0.58567 0.48387 0.58533 0.0
C320 C 0.56739 0.58451 0.34202 0.0
C321 C 0.5876 0.59452 0.39255 0.0
H322 H 0.52983 0.55823 0.25537 0.0
C323 C 0.52822 0.57834 0.63915 0.0
C324 C 0.4868 0.52279 0.58615 0.0
C325 C 0.48465 0.6181 0.80633 0.0
C326 C 0.50877 0.65971 0.7884 0.0
C327 C 0.46308 0.65592 0.74422 0.0
C328 C 0.46215 0.6298 0.77225 0.0
C329 C 0.48603 0.67097 0.75345 0.0
C330 C 0.5081 0.6328 0.80983 0.0
C331 C 0.48399 0.5909 0.84001 0.0
H332 H 0.62688 0.40616 0.66081 0.0
H333 H 0.62651 0.45438 0.63888 0.0
H334 H 0.58803 0.37917 0.62752 0.0
H335 H 0.54624 0.44953 0.55594 0.0
H336 H 0.44562 0.66487 0.7183 0.0
H337 H 0.44384 0.61887 0.76774 0.0
H338 H 0.48537 0.69166 0.73685 0.0
H339 H 0.52575 0.62342 0.83254 0.0
C340 C 0.05334 0.4753 0.89258 0.0
C341 C 0.05271 0.49836 0.02497 0.0
C342 C 0.04328 0.49514 0.94271 0.0
C343 C 0.07313 0.48225 0.05426 0.0
C344 C 0.07287 0.45821 0.92319 0.0
C345 C 0.08313 0.46218 1.00358 0.0
N346 N 0.04348 0.47225 0.81432 0.0
C347 C 0.05035 0.45112 0.76639 0.0
C348 C 0.08112 0.43732 0.87259 0.0
C349 C 0.06953 0.43355 0.79434 0.0
Gd350 Gd 0.04065 0.55501 0.62035 0.0
Gd351 Gd 1.0107 0.50182 0.77342 0.0
N352 N 0.02309 0.51001 0.91322 0.0
C353 C 0.04063 0.51692 0.07657 0.0
C354 C 1.00974 0.52628 0.96611 0.0
C355 C 0.01873 0.53057 0.04748 0.0
H356 H 0.99173 0.5356 0.94688 0.0
H357 H 1.00841 0.54399 0.08828 0.0
H358 H 0.03495 0.52476 0.43588 0.0
H359 H 0.04129 0.44824 0.70602 0.0
H360 H 1.01453 0.53267 0.29863 0.0
H361 H 0.04729 0.51999 0.1401 0.0
H362 H 0.08075 0.48462 0.11699 0.0
H363 H 0.03699 0.61331 0.72364 0.0
H364 H 0.09605 0.42373 0.89397 0.0
H365 H 0.0754 0.41714 0.75555 0.0
H366 H 0.97589 0.61841 0.32468 0.0
H367 H 0.09839 0.44947 0.02783 0.0
H368 H 0.98942 0.66552 0.58005 0.0
H369 H 1.01477 0.65588 0.70808 0.0
N370 N 0.0217 0.59725 0.61064 0.0
C371 C 1.00922 0.60277 0.53761 0.0
C372 C 0.02469 0.61642 0.66986 0.0
C373 C 0.99846 0.64636 0.58774 0.0
C374 C 1.01266 0.64096 0.66023 0.0
C375 C 0.99711 0.62742 0.52444 0.0
H376 H 0.97525 0.65147 0.43686 0.0
N377 N 0.02175 0.56081 0.48821 0.0
C378 C 1.00966 0.5842 0.47409 0.0
C379 C 0.99937 0.57074 0.333 0.0
C380 C 0.99787 0.58969 0.39626 0.0
C381 C 0.02418 0.54269 0.4258 0.0
C382 C 1.0128 0.54723 0.34766 0.0
O383 O 0.05503 0.50436 0.74584 0.0
O384 O 0.06057 0.54835 0.74459 0.0
O385 O 0.07925 0.54497 0.57285 0.0
O386 O 0.06686 0.58582 0.57567 0.0
O387 O 0.99851 0.54432 0.80315 0.0
O388 O 0.03433 0.56765 0.75514 0.0
O389 O 0.99874 0.54137 0.58898 0.0
O390 O 0.98025 0.52899 0.71501 0.0
O391 O 0.98455 0.48208 0.86084 0.0
O392 O 0.98846 0.46715 0.73553 0.0
O393 O 0.04652 0.51193 0.58041 0.0
O394 O 1.01119 0.48986 0.63779 0.0
C395 C 0.06972 0.52505 0.76328 0.0
C396 C 1.01377 0.5655 0.80472 0.0
C397 C 0.10996 0.57636 0.62137 0.0
C398 C 0.15467 0.5659 0.66375 0.0
C399 C 0.1316 0.60175 0.73084 0.0
C400 C 0.10954 0.59674 0.68106 0.0
C401 C 0.15422 0.58655 0.72184 0.0
C402 C 0.13252 0.56096 0.6138 0.0
C403 C 0.0866 0.5697 0.57073 0.0
C404 C 0.98516 0.6139 0.38386 0.0
C405 C 0.98474 0.63269 0.44784 0.0
H406 H 0.99061 0.57422 0.27236 0.0
C407 C 0.97798 0.53671 0.63651 0.0
C408 C 0.03006 0.49163 0.5821 0.0
C409 C 0.9469 0.46373 0.79659 0.0
C410 C 0.90359 0.48387 0.80629 0.0
C411 C 0.90828 0.43934 0.75174 0.0
C412 C 0.93544 0.44079 0.76367 0.0
C413 C 0.89239 0.46068 0.77306 0.0
C414 C 0.93097 0.4852 0.81718 0.0
C415 C 0.97555 0.46564 0.80525 0.0
H416 H 0.13116 0.6175 0.77634 0.0
H417 H 0.09218 0.60867 0.68989 0.0
H418 H 0.17133 0.59091 0.75975 0.0
H419 H 0.13303 0.54539 0.56741 0.0
H420 H 0.8995 0.42155 0.72649 0.0
H421 H 0.94751 0.42411 0.74664 0.0
H422 H 0.87134 0.45871 0.76537 0.0
H423 H 0.94005 0.50323 0.8397 0.0
H424 H 0.17323 0.08091 0.16874 0.0
H425 H 0.18504 0.99764 0.20575 0.0
H426 H 0.13847 0.08049 0.27482 0.0
H427 H 0.15003 0.9968 0.31041 0.0
H428 H 0.10368 1.00761 0.55163 0.0
H429 H 0.13851 1.00925 0.44764 0.0
H430 H 0.09467 0.06686 0.30671 0.0
H431 H 0.06003 0.06563 0.41196 0.0
C432 C 0.16831 0.06248 0.1996 0.0
C433 C 0.1819 0.03933 0.17916 0.0
C434 C 0.14822 0.06214 0.26017 0.0
C435 C 0.14116 0.0386 0.30221 0.0
C436 C 0.15496 1.01545 0.28109 0.0
C437 C 0.175 1.01583 0.22053 0.0
C438 C 0.10136 0.02068 0.49861 0.0
C439 C 0.07876 0.03642 0.49087 0.0
C440 C 0.12141 0.0215 0.43819 0.0
C441 C 0.11967 0.03809 0.36758 0.0
C442 C 0.09711 0.05401 0.36017 0.0
C443 C 0.07703 0.05318 0.42068 0.0
H444 H 0.47391 0.19859 0.26804 0.0
H445 H 0.55628 0.18862 0.2171 0.0
H446 H 0.47556 0.16276 0.37103 0.0
H447 H 0.55838 0.15324 0.32115 0.0
H448 H 0.54851 0.07283 0.44896 0.0
H449 H 0.54642 0.10894 0.34836 0.0
H450 H 0.49011 0.1487 0.50478 0.0
H451 H 0.49137 0.11178 0.60316 0.0
C452 C 0.49244 0.18882 0.27943 0.0
C453 C 0.51495 0.1964 0.2344 0.0
C454 C 0.49349 0.1683 0.33899 0.0
C455 C 0.51712 0.1547 0.35524 0.0
C456 C 0.53968 0.16268 0.31013 0.0
C457 C 0.53858 0.18318 0.25067 0.0
C458 C 0.53561 0.08924 0.46193 0.0
C459 C 0.52039 0.08943 0.53534 0.0
C460 C 0.53458 0.11022 0.4043 0.0
C461 C 0.51822 0.13221 0.41771 0.0
C462 C 0.50284 0.13224 0.49108 0.0
C463 C 0.50384 0.11117 0.5486 0.0
H464 H 0.35299 0.47255 0.26992 0.0
H465 H 0.37478 0.54908 0.17435 0.0
H466 H 0.3892 0.47484 0.37116 0.0
H467 H 0.41119 0.55144 0.27407 0.0
H468 H 0.45514 0.56119 0.52151 0.0
H469 H 0.42032 0.55733 0.41826 0.0
H470 H 0.43646 0.4742 0.39278 0.0
H471 H 0.47123 0.47807 0.49863 0.0
C472 C 0.36564 0.48983 0.27038 0.0
C473 C 0.36095 0.51068 0.21436 0.0
C474 C 0.38658 0.49111 0.32816 0.0
C475 C 0.40339 0.51339 0.33192 0.0
C476 C 0.39863 0.53411 0.27478 0.0
C477 C 0.37777 0.53275 0.21701 0.0
C478 C 0.4513 0.54198 0.49433 0.0
C479 C 0.46607 0.51991 0.51948 0.0
C480 C 0.43134 0.53981 0.434 0.0
C481 C 0.42525 0.51544 0.39606 0.0
C482 C 0.44017 0.4933 0.42074 0.0
C483 C 0.46033 0.49552 0.48118 0.0
H484 H 0.02334 0.3393 0.31814 0.0
H485 H 0.04675 0.39433 0.12659 0.0
H486 H 0.02417 0.37485 0.42149 0.0
H487 H 0.04723 0.43024 0.22926 0.0
H488 H 0.06609 0.48545 0.45305 0.0
H489 H 0.06829 0.44976 0.35018 0.0
H490 H 1.00039 0.41276 0.46297 0.0
H491 H 0.99834 0.44794 0.56519 0.0
C492 C 0.02874 0.35906 0.29825 0.0
C493 C 0.03499 0.36399 0.2143 0.0
C494 C 0.02904 0.37959 0.35741 0.0
C495 C 0.03559 0.40578 0.33449 0.0
C496 C 0.04233 0.41048 0.25021 0.0
C497 C 0.04195 0.38989 0.191 0.0
C498 C 0.0516 0.46972 0.45591 0.0
C499 C 0.03201 0.4699 0.51811 0.0
C500 C 0.0528 0.44919 0.39644 0.0
C501 C 0.0346 0.42799 0.39765 0.0
C502 C 1.01511 0.42826 0.4601 0.0
C503 C 1.01383 0.44875 0.51894 0.0
H504 H 0.88226 0.99023 0.2202 0.0
H505 H 0.83225 0.03398 0.05392 0.0
H506 H 0.91748 0.99098 0.1154 0.0
H507 H 0.86706 0.03453 0.94835 0.0
H508 H 0.94387 0.05879 0.82105 0.0
H509 H 0.90887 0.05509 0.92324 0.0
H510 H 0.93253 0.97533 0.97893 0.0
H511 H 0.9677 0.97899 0.87442 0.0
C512 C 0.87873 0.99974 0.16067 0.0
C513 C 0.8545 1.012 0.14513 0.0
C514 C 0.89889 1.0001 0.10028 0.0
C515 C 0.89541 1.01293 0.02279 0.0
C516 C 0.87082 0.0248 1.00734 0.0
C517 C 0.8507 0.02434 0.06762 0.0
C518 C 0.94144 0.04021 0.85362 0.0
C519 C 0.95855 1.01904 0.83774 0.0
C520 C 0.92124 0.03811 0.91291 0.0
C521 C 0.91738 1.0148 0.95946 0.0
C522 C 0.9348 0.99368 0.94488 0.0
C523 C 0.95502 0.99574 0.88471 0.0
H524 H 0.5779 0.86013 0.13086 0.0
H525 H 0.50263 0.88438 0.22512 0.0
H526 H 0.57679 0.89583 0.02711 0.0
H527 H 0.50149 0.92036 0.123 0.0
H528 H 0.49347 0.96422 0.87491 0.0
H529 H 0.49584 0.92913 0.97853 0.0
H530 H 0.57932 0.94283 1.0035 0.0
H531 H 0.57694 0.97737 0.89639 0.0
C532 C 0.56115 0.87321 0.12953 0.0
C533 C 0.54031 0.86939 0.18587 0.0
C534 C 0.56054 0.89385 0.07033 0.0
C535 C 0.53898 0.91121 0.0656 0.0
C536 C 0.51825 0.90732 0.12305 0.0
C537 C 0.51893 0.88674 0.18219 0.0
C538 C 0.51242 0.95958 0.90159 0.0
C539 C 0.53503 0.97354 0.87611 0.0
C540 C 0.51375 0.93958 0.96235 0.0
C541 C 0.53778 0.93287 1.00049 0.0
C542 C 0.56045 0.94704 0.9754 0.0
C543 C 0.55908 0.9671 0.91436 0.0
H544 H 0.65738 0.55762 0.26451 0.0
H545 H 0.71233 0.53642 0.07208 0.0
H546 H 0.62128 0.55569 0.16323 0.0
H547 H 0.67656 0.535 0.96987 0.0
H548 H 0.60438 0.50693 0.82515 0.0
H549 H 0.63963 0.5101 0.92686 0.0
H550 H 0.60049 0.57552 0.04479 0.0
H551 H 0.5647 0.57198 0.94308 0.0
C552 C 0.66174 0.55272 0.20021 0.0
C553 C 0.6877 0.54714 0.17632 0.0
C554 C 0.64103 0.55175 0.14172 0.0
C555 C 0.64565 0.54509 0.05743 0.0
C556 C 0.67186 0.53977 0.03396 0.0
C557 C 0.69253 0.54076 0.09249 0.0
C558 C 0.60312 0.52207 0.87257 0.0
C559 C 0.58139 0.53918 0.8751 0.0
C560 C 0.62365 0.52403 0.93107 0.0
C561 C 0.62336 0.54319 0.99476 0.0
C562 C 0.60154 0.56029 0.99765 0.0
C563 C 0.58095 0.55836 0.93874 0.0
H564 H 0.03688 0.67878 0.21506 0.0
H565 H 0.96132 0.69949 0.11432 0.0
H566 H 0.03983 0.64202 0.11663 0.0
H567 H 0.96422 0.66288 0.01436 0.0
H568 H 0.96863 0.58003 0.89021 0.0
H569 H 0.96392 0.61504 0.99511 0.0
H570 H 0.04657 0.63334 0.97214 0.0
H571 H 0.05126 0.59836 0.86986 0.0
C572 C 0.02091 0.67548 0.17148 0.0
C573 C 0.99895 0.69212 0.17215 0.0
C574 C 0.0226 0.65443 0.11453 0.0
C575 C 1.00234 0.64928 0.05636 0.0
C576 C 0.98015 0.66586 0.05822 0.0
C577 C 0.97852 0.68702 0.11519 0.0
C578 C 0.98579 0.59146 0.90802 0.0
C579 C 1.01029 0.58631 0.87074 0.0
C580 C 0.98308 0.61173 0.96787 0.0
C581 C 1.00485 0.6273 0.99292 0.0
C582 C 0.02933 0.62179 0.95602 0.0
C583 C 0.03198 0.60174 0.89627 0.0
H584 H 0.12443 0.24428 0.14562 0.0
H585 H 0.06226 0.27096 0.30673 0.0
H586 H 0.13334 0.20801 0.24126 0.0
H587 H 0.07012 0.23484 0.39976 0.0
H588 H 0.05048 0.16104 0.47962 0.0
H589 H 0.08016 0.198 0.47214 0.0
H590 H 0.10596 0.17202 0.22872 0.0
H591 H 0.07903 0.133 0.24139 0.0
C592 C 0.11362 0.2432 0.20377 0.0
C593 C 0.09161 0.25932 0.21656 0.0
C594 C 0.11846 0.2222 0.25821 0.0
C595 C 0.10093 0.217 0.32428 0.0
C596 C 0.08346 0.2372 0.34773 0.0
C597 C 0.07887 0.25831 0.29398 0.0
C598 C 0.06332 0.16222 0.426 0.0
C599 C 0.06109 0.1444 0.35874 0.0
C600 C 0.08029 0.18391 0.42142 0.0
C601 C 0.09431 0.18919 0.34769 0.0
C602 C 0.09508 0.16933 0.28613 0.0
C603 C 0.07888 0.14706 0.29216 0.0
H604 H 0.26881 0.04528 0.29503 0.0
H605 H 0.3169 0.10845 0.19626 0.0
H606 H 0.30287 0.03478 0.39505 0.0
H607 H 0.35156 0.09706 0.29322 0.0
H608 H 0.41946 0.0563 0.40319 0.0
H609 H 0.3782 0.08058 0.40834 0.0
H610 H 0.33713 1.01156 0.31597 0.0
H611 H 0.37803 0.98725 0.31363 0.0
C612 C 0.28592 0.05807 0.29792 0.0
C613 C 0.29119 0.07642 0.23408 0.0
C614 C 0.30563 0.05182 0.35494 0.0
C615 C 0.3305 0.06377 0.34731 0.0
C616 C 0.33291 0.08679 0.29866 0.0
C617 C 0.31297 0.09337 0.24278 0.0
C618 C 0.40145 0.04622 0.38566 0.0
C619 C 0.40191 1.01996 0.35698 0.0
C620 C 0.37787 0.0601 0.38903 0.0
C621 C 0.35433 0.04798 0.3638 0.0
C622 C 0.35477 0.02138 0.33806 0.0
C623 C 0.3783 1.00756 0.33462 0.0
H624 H 0.456 0.33643 0.26201 0.0
H625 H 0.51779 0.28489 0.34762 0.0
H626 H 0.46134 0.36316 0.38767 0.0
H627 H 0.52295 0.31122 0.47181 0.0
H628 H 0.54385 0.36728 0.66153 0.0
H629 H 0.51254 0.33636 0.59859 0.0
H630 H 0.50095 0.39073 0.39388 0.0
H631 H 0.53229 0.42078 0.45414 0.0
C632 C 0.47004 0.33027 0.3089 0.0
C633 C 0.48711 0.30914 0.29356 0.0
C634 C 0.47296 0.34545 0.38103 0.0
C635 C 0.49311 0.33975 0.43829 0.0
C636 C 0.50727 0.31624 0.429 0.0
C637 C 0.50437 0.30111 0.3571 0.0
C638 C 0.53427 0.37273 0.60372 0.0
C639 C 0.54116 0.39621 0.56182 0.0
C640 C 0.5161 0.35519 0.56836 0.0
C641 C 0.50446 0.36096 0.4909 0.0
C642 C 0.50923 0.38571 0.45411 0.0
C643 C 0.52748 0.40303 0.48877 0.0
H644 H 0.28249 0.52932 0.35202 0.0
H645 H 0.21437 0.4806 0.29941 0.0
H646 H 0.26686 0.53622 0.49282 0.0
H647 H 0.19746 0.48971 0.43742 0.0
H648 H 0.16198 0.51265 0.66404 0.0
H649 H 0.19557 0.48978 0.5834 0.0
H650 H 0.23408 0.56473 0.53542 0.0
H651 H 0.20139 0.58689 0.61871 0.0
C652 C 0.26442 0.51959 0.37066 0.0
C653 C 0.24936 0.50489 0.31319 0.0
C654 C 0.2553 0.52385 0.45155 0.0
C655 C 0.23056 0.51418 0.47623 0.0
C656 C 0.21664 0.49752 0.42126 0.0
C657 C 0.22606 0.49275 0.34097 0.0
C658 C 0.17844 0.52386 0.63932 0.0
C659 C 0.17899 0.55148 0.64561 0.0
C660 C 0.19751 0.51088 0.59249 0.0
C661 C 0.21698 0.52547 0.55003 0.0
C662 C 0.21945 0.55269 0.56668 0.0
C663 C 0.20063 0.56555 0.61455 0.0
H664 H 0.9557 0.83193 0.09322 0.0
H665 H 0.02381 0.78361 0.0491 0.0
H666 H 0.9656 0.85741 0.9674 0.0
H667 H 0.03395 0.80918 0.92448 0.0
H668 H 0.0326 0.92002 0.91338 0.0
H669 H 1.00375 0.88761 0.97419 0.0
H670 H 0.02612 0.83112 0.78599 0.0
H671 H 0.05466 0.86443 0.72135 0.0
C672 C 0.97223 0.8262 0.05488 0.0
C673 C 0.98941 0.80634 0.08168 0.0
C674 C 0.97786 0.8407 0.98291 0.0
C675 C 1.00091 0.8357 0.93747 0.0
C676 C 0.01604 0.81351 0.95811 0.0
C677 C 1.0103 0.7989 0.02983 0.0
C678 C 0.0307 0.90119 0.88206 0.0
C679 C 0.04638 0.89485 0.8128 0.0
C680 C 1.01397 0.88247 0.91724 0.0
C681 C 1.01271 0.85674 0.88506 0.0
C682 C 0.02688 0.85079 0.81234 0.0
C683 C 0.04344 0.86976 0.77609 0.0
H684 H 0.7274 0.93908 0.17894 0.0
H685 H 0.74346 1.01592 0.07472 0.0
H686 H 0.68752 0.93575 0.09522 0.0
H687 H 0.70313 1.01391 0.99635 0.0
H688 H 0.62416 0.02509 0.93317 0.0
H689 H 0.66674 1.00489 0.92016 0.0
H690 H 0.64936 0.95534 0.13375 0.0
H691 H 0.60569 0.97316 0.13998 0.0
C692 C 0.72299 0.95469 0.13488 0.0
C693 C 0.738 0.97802 0.13439 0.0
C694 C 0.69986 0.95309 0.08805 0.0
C695 C 0.69103 0.97522 0.04288 0.0
C696 C 0.70868 0.9965 0.03114 0.0
C697 C 0.73211 0.99775 0.07617 0.0
C698 C 0.62883 1.00909 0.97535 0.0
C699 C 0.61167 1.00169 0.04046 0.0
C700 C 0.65365 0.99769 0.96843 0.0
C701 C 0.66233 0.97936 0.0283 0.0
C702 C 0.64392 0.96963 0.08668 0.0
C703 C 0.61883 0.98044 0.09191 0.0
H704 H 0.54101 0.78342 0.05309 0.0
H705 H 0.6059 0.73598 0.13867 0.0
H706 H 0.54127 0.76058 0.92083 0.0
H707 H 0.60651 0.7132 1.00442 0.0
H708 H 0.52762 0.70661 0.71937 0.0
H709 H 0.55562 0.73896 0.79025 0.0
H710 H 0.5703 0.6824 0.98657 0.0
H711 H 0.5417 0.65155 0.92172 0.0
C712 C 0.55622 0.76897 0.04215 0.0
C713 C 0.57282 0.76077 0.10719 0.0
C714 C 0.55652 0.75596 0.9656 0.0
C715 C 0.57336 0.73446 0.95311 0.0
C716 C 0.59286 0.72928 0.0132 0.0
C717 C 0.59238 0.74213 0.09022 0.0
C718 C 0.5371 0.70098 0.77714 0.0
C719 C 0.53146 0.67651 0.8154 0.0
C720 C 0.55349 0.71941 0.81695 0.0
C721 C 0.56494 0.71341 0.89459 0.0
C722 C 0.56213 0.68776 0.92649 0.0
C723 C 0.5454 0.66976 0.88833 0.0
H724 H 0.82956 0.59654 0.12289 0.0
H725 H 0.77629 0.53339 0.05497 0.0
H726 H 0.85549 0.58793 0.99776 0.0
H727 H 0.802 0.52487 0.93099 0.0
H728 H 0.91136 0.51551 0.94181 0.0
H729 H 0.88153 0.54684 1.00134 0.0
H730 H 0.82687 0.53347 0.79916 0.0
H731 H 0.85764 0.50236 0.73637 0.0
C732 C 0.82286 0.58151 0.07969 0.0
C733 C 0.80147 0.56505 0.1 0.0
C734 C 0.83759 0.57668 1.00795 0.0
C735 C 0.83118 0.55523 0.95608 0.0
C736 C 0.8075 0.54151 0.96976 0.0
C737 C 0.79276 0.54635 0.04134 0.0
C738 C 0.89358 0.5199 0.90754 0.0
C739 C 0.88681 0.50599 0.83472 0.0
C740 C 0.87639 0.5381 0.94181 0.0
C741 C 0.85178 0.54261 0.90504 0.0
C742 C 0.84569 0.53024 0.82897 0.0
C743 C 0.86315 0.51219 0.79377 0.0
H744 H 1.00151 0.23416 0.97745 0.0
H745 H 0.08441 0.22401 0.9346 0.0
H746 H 0.99253 0.19294 0.9022 0.0
H747 H 0.07595 0.18248 0.86537 0.0
H748 H 0.05681 0.11382 0.69931 0.0
H749 H 0.06262 0.15804 0.75549 0.0
H750 H 0.99328 0.14711 0.90795 0.0
H751 H 0.98697 0.10319 0.84739 0.0
C752 C 0.01781 0.22343 0.95084 0.0
C753 C 0.04372 0.23265 0.96263 0.0
C754 C 1.01274 0.19935 0.90884 0.0
C755 C 0.03343 0.18363 0.87746 0.0
C756 C 0.0592 0.19365 0.88662 0.0
C757 C 0.06416 0.21767 0.92742 0.0
C758 C 0.04279 0.12089 0.7448 0.0
C759 C 0.02153 0.1048 0.76913 0.0
C760 C 0.04617 0.14641 0.77786 0.0
C761 C 0.02864 0.15672 0.83786 0.0
C762 C 1.00713 0.14052 0.86135 0.0
C763 C 1.00352 0.1151 0.82696 0.0
H764 H 0.30753 0.06713 0.85371 0.0
H765 H 0.33419 1.01858 0.05737 0.0
H766 H 0.35065 0.0624 0.78539 0.0
H767 H 0.37693 1.01396 0.99041 0.0
H768 H 0.45897 0.04348 0.91558 0.0
H769 H 0.41408 0.04454 0.96813 0.0
H770 H 0.38442 0.03172 0.71917 0.0
H771 H 0.42965 0.03043 0.66609 0.0
C772 C 0.32223 0.05471 0.88247 0.0
C773 C 0.31718 0.04297 0.96064 0.0
C774 C 0.34709 0.05217 0.84374 0.0
C775 C 0.36766 0.03816 0.88285 0.0
C776 C 0.36195 0.02532 0.9588 0.0
C777 C 0.33722 0.02764 0.99678 0.0
C778 C 0.443 0.0409 0.87157 0.0
C779 C 0.44828 0.03682 0.78625 0.0
C780 C 0.41708 0.04133 0.90201 0.0
C781 C 0.39534 0.03801 0.84832 0.0
C782 C 0.40051 0.03443 0.76262 0.0
C783 C 0.42656 0.0336 0.73218 0.0
H784 H 0.462 0.33425 0.97921 0.0
H785 H 0.54622 0.33194 1.00052 0.0
H786 H 0.46516 0.37444 0.89556 0.0
H787 H 0.54972 0.37293 0.91992 0.0
H788 H 0.5506 0.44319 0.74043 0.0
H789 H 0.54727 0.39873 0.79962 0.0
H790 H 0.47225 0.41906 0.90749 0.0
H791 H 0.47492 0.46221 0.8415 0.0
C792 C 0.4813 0.34208 0.9643 0.0
C793 C 0.50386 0.32948 0.99521 0.0
C794 C 0.48318 0.36557 0.91745 0.0
C795 C 0.50772 0.37774 0.90121 0.0
C796 C 0.5304 0.36442 0.92959 0.0
C797 C 0.52848 0.3407 0.9758 0.0
C798 C 0.53305 0.43776 0.77438 0.0
C799 C 0.51293 0.45635 0.78509 0.0
C800 C 0.53131 0.41232 0.81028 0.0
C801 C 0.50941 0.40466 0.85916 0.0
C802 C 0.48929 0.42349 0.86952 0.0
C803 C 0.491 0.44873 0.83289 0.0
H804 H 0.2321 0.54638 0.95926 0.0
H805 H 0.20457 0.47161 0.0545 0.0
H806 H 0.19142 0.55066 0.87698 0.0
H807 H 0.16423 0.47571 0.97304 0.0
H808 H 0.10159 0.4812 0.76746 0.0
H809 H 0.14478 0.47633 0.83261 0.0
H810 H 0.14371 0.5584 0.90357 0.0
H811 H 0.1001 0.56292 0.84071 0.0
C812 C 0.2177 0.53056 0.96114 0.0
C813 C 0.22186 0.50853 0.01319 0.0
C814 C 0.19415 0.53315 0.9148 0.0
C815 C 0.17419 0.51361 0.91824 0.0
C816 C 0.179 0.49111 0.96765 0.0
C817 C 0.20225 0.48873 0.0146 0.0
C818 C 0.11034 0.49812 0.798 0.0
C819 C 0.09687 0.5223 0.79996 0.0
C820 C 0.13532 0.49539 0.83508 0.0
C821 C 0.14804 0.51693 0.87411 0.0
C822 C 0.13488 0.54135 0.8738 0.0
C823 C 0.10971 0.54394 0.83775 0.0
H824 H 0.02627 0.81871 0.44734 0.0
H825 H 0.95636 0.84924 0.3309 0.0
H826 H 0.03078 0.85998 0.5279 0.0
H827 H 0.9611 0.89014 0.4091 0.0
H828 H 1.00047 0.9705 0.45406 0.0
H829 H 0.99425 0.92677 0.3961 0.0
H830 H 1.00929 0.89236 0.63758 0.0
H831 H 1.01463 0.93684 0.69683 0.0
C832 C 1.0115 0.83384 0.44039 0.0
C833 C 0.99108 0.83055 0.38165 0.0
C834 C 1.01417 0.85762 0.48623 0.0
C835 C 0.99663 0.87879 0.47385 0.0
C836 C 0.97535 0.87467 0.4192 0.0
C837 C 0.97255 0.85103 0.37451 0.0
C838 C 1.00222 0.95389 0.49554 0.0
C839 C 1.00796 0.95775 0.58061 0.0
C840 C 0.99866 0.92853 0.46202 0.0
C841 C 1.00111 0.90575 0.51188 0.0
C842 C 1.00738 0.90933 0.59692 0.0
C843 C 1.01046 0.93495 0.63094 0.0
H844 H 0.72143 0.05046 0.37199 0.0
H845 H 0.72716 0.9721 0.47442 0.0
H846 H 0.68124 0.05782 0.45278 0.0
H847 H 0.68712 0.97942 0.55632 0.0
H848 H 0.61971 1.00891 0.73019 0.0
H849 H 0.66414 1.0056 0.67063 0.0
H850 H 0.63592 0.03899 0.43971 0.0
H851 H 0.59183 0.04196 0.49858 0.0
C852 C 0.71471 0.0352 0.41451 0.0
C853 C 0.72797 1.01095 0.41836 0.0
C854 C 0.69138 0.03922 0.45992 0.0
C855 C 0.68064 1.01916 0.511 0.0
C856 C 0.69479 0.99544 0.51851 0.0
C857 C 0.71792 0.99129 0.47204 0.0
C858 C 0.62309 1.01571 0.66694 0.0
C859 C 0.60209 0.02566 0.61925 0.0
C860 C 0.64855 1.0137 0.63257 0.0
C861 C 0.65384 0.02213 0.55018 0.0
C862 C 0.63286 0.0326 0.50353 0.0
C863 C 0.60743 0.03414 0.53722 0.0
H864 H 0.58945 0.71553 0.37236 0.0
H865 H 0.51147 0.74113 0.43698 0.0
H866 H 0.58286 0.67508 0.4515 0.0
H867 H 0.50503 0.70067 0.51951 0.0
H868 H 0.49148 0.6102 0.56405 0.0
H869 H 0.49759 0.65411 0.50327 0.0
H870 H 0.57874 0.65382 0.58193 0.0
H871 H 0.57242 0.60999 0.64252 0.0
C872 C 0.57094 0.71274 0.40465 0.0
C873 C 0.55095 0.73179 0.3972 0.0
C874 C 0.5672 0.68943 0.45099 0.0
C875 C 0.54328 0.68408 0.49226 0.0
C876 C 0.5236 0.70363 0.48781 0.0
C877 C 0.52741 0.72714 0.4413 0.0
C878 C 0.51063 0.61953 0.56864 0.0
C879 C 0.53168 0.60601 0.60623 0.0
C880 C 0.51413 0.64495 0.53405 0.0
C881 C 0.53882 0.65781 0.53598 0.0
C882 C 0.55957 0.64459 0.57669 0.0
C883 C 0.55601 0.61924 0.61141 0.0
H884 H 0.82023 0.51118 0.41549 0.0
H885 H 0.83408 0.59478 0.39318 0.0
H886 H 0.8616 0.50651 0.49257 0.0
H887 H 0.87475 0.59061 0.4724 0.0
H888 H 0.93339 0.50743 0.66772 0.0
H889 H 0.88926 0.51236 0.60931 0.0
H890 H 0.91769 0.57682 0.45644 0.0
H891 H 0.96078 0.57265 0.51963 0.0
C892 C 0.83164 0.52872 0.42976 0.0
C893 C 0.82354 0.55342 0.39901 0.0
C894 C 0.85559 0.52608 0.47375 0.0
C895 C 0.87224 0.54809 0.48833 0.0
C896 C 0.86321 0.57296 0.46111 0.0
C897 C 0.83949 0.57551 0.41675 0.0
C898 C 0.92996 0.52303 0.62339 0.0
C899 C 0.95087 0.53976 0.5996 0.0
C900 C 0.90464 0.52565 0.58835 0.0
C901 C 0.89927 0.54519 0.52775 0.0
C902 C 0.92038 0.56182 0.50379 0.0
C903 C 0.94557 0.55915 0.53913 0.0
loop_
_geom_bond_atom_site_label_1
_geom_bond_atom_site_label_2
_geom_bond_distance
_geom_bond_site_symmetry_2
_ccdc_geom_bond_type
H0 C3 0.929 . S
H1 C6 0.929 . S
H2 C8 0.930 . S
C3 H0 0.929 . S
C3 C4 1.398 . S
C3 C5 1.396 . S
C4 C3 1.398 . S
C4 C8 1.407 . S
C5 C3 1.396 . S
C5 C6 1.394 . S
C6 H1 0.929 . S
C6 C5 1.394 . S
C6 C7 1.382 . S
C7 C6 1.382 . S
C7 C8 1.392 . S
C7 N9 1.420 . S
C8 H2 0.930 . S
C8 C4 1.407 . S
C8 C7 1.392 . S
N9 C7 1.420 . S
N9 C10 1.244 . S
C10 N9 1.244 . S
H11 C14 0.929 . S
H12 C17 0.929 . S
H13 C19 0.930 . S
C14 H11 0.929 . S
C14 C15 1.398 . S
C14 C16 1.396 . S
C15 C14 1.398 . S
C15 C19 1.407 . S
C16 C14 1.396 . S
C16 C17 1.394 . S
C17 H12 0.929 . S
C17 C16 1.394 . S
C17 C18 1.382 . S
C18 C17 1.382 . S
C18 C19 1.392 . S
C18 N20 1.420 . S
C19 H13 0.930 . S
C19 C15 1.407 . S
C19 C18 1.392 . S
N20 C18 1.420 . S
N20 C21 1.244 . S
C21 N20 1.244 . S
H22 C25 0.929 . S
H23 C28 0.929 . S
H24 C30 0.930 . S
C25 H22 0.929 . S
C25 C26 1.398 . S
C25 C27 1.396 . S
C26 C25 1.398 . S
C26 C30 1.407 . S
C27 C25 1.396 . S
C27 C28 1.394 . S
C28 H23 0.929 . S
C28 C27 1.394 . S
C28 C29 1.382 . S
C29 C28 1.382 . S
C29 C30 1.392 . S
C29 N31 1.420 . S
C30 H24 0.930 . S
C30 C26 1.407 . S
C30 C29 1.392 . S
N31 C29 1.420 . S
N31 C32 1.244 . S
C32 N31 1.244 . S
H33 C36 0.929 . S
H34 C39 0.929 . S
H35 C41 0.930 . S
C36 H33 0.929 . S
C36 C37 1.398 . S
C36 C38 1.396 . S
C37 C36 1.398 . S
C37 C41 1.407 . S
C38 C36 1.396 . S
C38 C39 1.394 . S
C39 H34 0.929 . S
C39 C38 1.394 . S
C39 C40 1.382 . S
C40 C39 1.382 . S
C40 C41 1.392 . S
C40 N42 1.420 . S
C41 H35 0.930 . S
C41 C37 1.407 . S
C41 C40 1.392 . S
N42 C40 1.420 . S
N42 C43 1.244 . S
C43 N42 1.244 . S
H44 C47 0.929 . S
H45 C50 0.929 . S
H46 C52 0.930 . S
C47 H44 0.929 . S
C47 C48 1.398 1_554 S
C47 C49 1.396 . S
C48 C47 1.398 1_556 S
C48 C52 1.407 . S
C49 C47 1.396 . S
C49 C50 1.394 . S
C50 H45 0.929 . S
C50 C49 1.394 . S
C50 C51 1.382 . S
C51 C50 1.382 . S
C51 C52 1.392 1_554 S
C51 N53 1.420 . S
C52 H46 0.930 . S
C52 C48 1.407 . S
C52 C51 1.392 1_556 S
N53 C51 1.420 . S
N53 C54 1.244 . S
C54 N53 1.244 . S
H55 C58 0.929 . S
H56 C61 0.929 . S
H57 C63 0.930 . S
C58 H55 0.929 . S
C58 C59 1.398 1_554 S
C58 C60 1.396 . S
C59 C58 1.398 1_556 S
C59 C63 1.407 . S
C60 C58 1.396 . S
C60 C61 1.394 . S
C61 H56 0.929 . S
C61 C60 1.394 . S
C61 C62 1.382 . S
C62 C61 1.382 . S
C62 C63 1.392 1_554 S
C62 N64 1.420 . S
C63 H57 0.930 . S
C63 C59 1.407 . S
C63 C62 1.392 1_556 S
N64 C62 1.420 . S
N64 C65 1.244 . S
C65 N64 1.244 . S
H66 C69 0.929 . S
H67 C72 0.929 . S
H68 C74 0.930 . S
C69 H66 0.929 . S
C69 C70 1.398 1_554 S
C69 C71 1.396 . S
C70 C69 1.398 1_556 S
C70 C74 1.407 . S
C71 C69 1.396 . S
C71 C72 1.394 . S
C72 H67 0.929 . S
C72 C71 1.394 . S
C72 C73 1.382 . S
C73 C72 1.382 . S
C73 C74 1.392 1_554 S
C73 N75 1.420 . S
C74 H68 0.930 . S
C74 C70 1.407 . S
C74 C73 1.392 1_556 S
N75 C73 1.420 . S
N75 C76 1.244 . S
C76 N75 1.244 . S
H77 C80 0.929 . S
H78 C83 0.929 . S
H79 C85 0.930 . S
C80 H77 0.929 . S
C80 C81 1.398 1_554 S
C80 C82 1.396 . S
C81 C80 1.398 1_556 S
C81 C85 1.407 . S
C82 C80 1.396 . S
C82 C83 1.394 . S
C83 H78 0.929 . S
C83 C82 1.394 . S
C83 C84 1.382 . S
C84 C83 1.382 . S
C84 C85 1.392 1_554 S
C84 N86 1.420 . S
C85 H79 0.930 . S
C85 C81 1.407 . S
C85 C84 1.392 1_556 S
N86 C84 1.420 . S
N86 C87 1.244 . S
C87 N86 1.244 . S
C88 C90 1.422 . S
C88 C92 1.415 . S
C88 N94 1.369 . S
C89 C90 1.421 1_554 S
C89 C91 1.417 . S
C89 C101 1.422 . S
C90 C88 1.422 . S
C90 C89 1.421 1_556 S
C90 N100 1.359 . S
C91 C89 1.417 . S
C91 C93 1.329 1_554 S
C91 H110 0.930 . S
C92 C88 1.415 . S
C92 C93 1.437 . S
C92 C96 1.413 . S
C93 C91 1.329 1_556 S
C93 C92 1.437 . S
C93 H115 0.929 1_556 S
N94 C88 1.369 . S
N94 C95 1.338 . S
N94 Gd99 2.622 1_545 S
C95 N94 1.338 . S
C95 C97 1.378 . S
C95 H107 0.929 1_545 S
C96 C92 1.413 . S
C96 C97 1.348 . S
C96 H112 0.931 . S
C97 C95 1.378 . S
C97 C96 1.348 . S
C97 H113 0.930 . S
Gd98 N118 2.622 . S
Gd98 N125 2.570 . S
Gd98 O132 2.353 1_655 S
Gd98 O133 2.468 1_655 S
Gd98 O134 2.427 . S
Gd98 O136 2.388 . S
Gd98 O137 2.386 1_545 S
Gd98 O141 2.307 1_655 S
Gd98 C151 2.805 . S
Gd99 N94 2.622 1_565 S
Gd99 N100 2.570 1_565 S
Gd99 O131 2.386 1_565 S
Gd99 O135 2.307 1_465 S
Gd99 O138 2.353 . S
Gd99 O139 2.468 . S
Gd99 O140 2.427 . S
Gd99 O142 2.388 . S
Gd99 C163 2.805 . S
N100 C90 1.359 . S
N100 Gd99 2.570 1_545 S
N100 C102 1.343 . S
C101 C89 1.422 . S
C101 C103 1.321 . S
C101 H109 0.931 . S
C102 N100 1.343 . S
C102 C103 1.390 1_556 S
C102 H104 0.931 1_455 S
C103 C101 1.321 . S
C103 C102 1.390 1_554 S
C103 H105 0.918 1_455 S
H104 C102 0.931 1_655 S
H105 C103 0.918 1_655 S
H106 C129 0.931 . S
H107 C95 0.929 1_565 S
H108 C130 0.930 . S
H109 C101 0.931 . S
H110 C91 0.930 . S
H111 C120 0.929 . S
H112 C96 0.931 . S
H113 C97 0.930 . S
H114 C152 0.930 . S
H115 C93 0.929 1_554 S
H116 C121 0.931 . S
H117 C122 0.930 . S
N118 Gd98 2.622 . S
N118 C119 1.369 . S
N118 C120 1.338 . S
C119 N118 1.369 . S
C119 C123 1.415 1_545 S
C119 C126 1.428 . S
C120 H111 0.929 . S
C120 N118 1.338 . S
C120 C122 1.378 . S
C121 H116 0.931 . S
C121 C122 1.348 1_565 S
C121 C123 1.413 . S
C122 H117 0.930 . S
C122 C120 1.378 . S
C122 C121 1.348 1_545 S
C123 C119 1.415 1_565 S
C123 C121 1.413 . S
C123 C153 1.437 . S
H124 C153 0.929 . S
N125 Gd98 2.570 . S
N125 C126 1.377 . S
N125 C129 1.343 1_655 S
C126 C119 1.428 . S
C126 N125 1.377 . S
C126 C128 1.400 1_545 S
C127 C128 1.422 . S
C127 C130 1.321 1_655 S
C127 H154 0.931 . S
C128 C126 1.400 1_565 S
C128 C127 1.422 . S
C128 C152 1.417 . S
C129 H106 0.931 . S
C129 N125 1.343 1_455 S
C129 C130 1.390 1_545 S
C130 H108 0.930 . S
C130 C127 1.321 1_455 S
C130 C129 1.390 1_565 S
O131 Gd99 2.386 1_545 S
O131 C143 1.265 . S
O132 Gd98 2.353 1_455 S
O132 C143 1.242 . S
O133 Gd98 2.468 1_455 S
O133 C151 1.263 1_455 S
O134 Gd98 2.427 . S
O134 C151 1.252 . S
O135 Gd99 2.307 1_645 S
O135 C144 1.261 . S
O136 Gd98 2.388 . S
O136 C144 1.252 . S
O137 Gd98 2.386 1_565 S
O137 C155 1.265 . S
O138 Gd99 2.353 . S
O138 C155 1.242 1_455 S
O139 Gd99 2.468 . S
O139 C163 1.263 . S
O140 Gd99 2.427 . S
O140 C163 1.252 . S
O141 Gd98 2.307 1_455 S
O141 C156 1.261 . S
O142 Gd99 2.388 . S
O142 C156 1.252 1_565 S
C143 O131 1.265 . S
C143 O132 1.242 . S
C144 O135 1.261 . S
C144 O136 1.252 . S
C145 C148 1.394 . S
C145 C150 1.370 . S
C145 C151 1.500 . S
C146 C149 1.383 . S
C146 C150 1.395 . S
C147 C148 1.396 . S
C147 C149 1.365 . S
C147 H164 0.929 . S
C148 C145 1.394 . S
C148 C147 1.396 . S
C148 H165 0.930 . S
C149 C146 1.383 . S
C149 C147 1.365 . S
C149 H166 0.931 . S
C150 C145 1.370 . S
C150 C146 1.395 . S
C150 H167 0.930 1_655 S
C151 Gd98 2.805 . S
C151 O133 1.263 1_655 S
C151 O134 1.252 . S
C151 C145 1.500 . S
C152 H114 0.930 . S
C152 C128 1.417 . S
C152 C153 1.329 . S
C153 C123 1.437 . S
C153 H124 0.929 . S
C153 C152 1.329 . S
H154 C127 0.931 . S
C155 O137 1.265 . S
C155 O138 1.242 1_655 S
C156 O141 1.261 . S
C156 O142 1.252 1_545 S
C157 C160 1.394 . S
C157 C162 1.370 . S
C157 C163 1.500 . S
C158 C161 1.383 . S
C158 C162 1.395 . S
C159 C160 1.396 . S
C159 C161 1.365 . S
C159 H168 0.929 . S
C160 C157 1.394 . S
C160 C159 1.396 . S
C160 H169 0.930 . S
C161 C158 1.383 . S
C161 C159 1.365 . S
C161 H170 0.931 . S
C162 C157 1.370 . S
C162 C158 1.395 . S
C162 H171 0.930 . S
C163 Gd99 2.805 . S
C163 O139 1.263 . S
C163 O140 1.252 . S
C163 C157 1.500 . S
H164 C147 0.929 . S
H165 C148 0.930 . S
H166 C149 0.931 . S
H167 C150 0.930 1_455 S
H168 C159 0.929 . S
H169 C160 0.930 . S
H170 C161 0.931 . S
H171 C162 0.930 . S
C172 C174 1.422 . S
C172 C176 1.415 . S
C172 N178 1.369 . S
C173 C174 1.421 . S
C173 C175 1.417 . S
C173 C185 1.422 . S
C174 C172 1.422 . S
C174 C173 1.421 . S
C174 N184 1.359 . S
C175 C173 1.417 . S
C175 C177 1.329 . S
C175 H194 0.930 . S
C176 C172 1.415 . S
C176 C177 1.437 . S
C176 C180 1.413 . S
C177 C175 1.329 . S
C177 C176 1.437 . S
C177 H199 0.929 . S
N178 C172 1.369 . S
N178 C179 1.338 . S
N178 Gd183 2.622 . S
C179 N178 1.338 . S
C179 C181 1.378 . S
C179 H191 0.929 . S
C180 C176 1.413 . S
C180 C181 1.348 . S
C180 H196 0.931 . S
C181 C179 1.378 . S
C181 C180 1.348 . S
C181 H197 0.930 . S
Gd182 N202 2.622 . S
Gd182 N209 2.570 . S
Gd182 O216 2.353 1_545 S
Gd182 O217 2.468 . S
Gd182 O218 2.427 . S
Gd182 O220 2.388 . S
Gd182 O221 2.386 . S
Gd182 O225 2.307 . S
Gd182 C235 2.805 . S
Gd183 N178 2.622 . S
Gd183 N184 2.570 . S
Gd183 O215 2.386 . S
Gd183 O219 2.307 1_565 S
Gd183 O222 2.353 1_565 S
Gd183 O223 2.468 . S
Gd183 O224 2.427 . S
Gd183 O226 2.388 . S
Gd183 C247 2.805 . S
N184 C174 1.359 . S
N184 Gd183 2.570 . S
N184 C186 1.343 . S
C185 C173 1.422 . S
C185 C187 1.321 . S
C185 H193 0.931 . S
C186 N184 1.343 . S
C186 C187 1.390 . S
C186 H188 0.931 . S
C187 C185 1.321 . S
C187 C186 1.390 . S
C187 H189 0.930 . S
H188 C186 0.931 . S
H189 C187 0.930 . S
H190 C213 0.931 . S
H191 C179 0.929 . S
H192 C214 0.930 . S
H193 C185 0.931 . S
H194 C175 0.930 . S
H195 C204 0.929 . S
H196 C180 0.931 . S
H197 C181 0.930 . S
H198 C236 0.930 . S
H199 C177 0.929 . S
H200 C205 0.931 . S
H201 C206 0.930 . S
N202 Gd182 2.622 . S
N202 C203 1.369 . S
N202 C204 1.338 . S
C203 N202 1.369 . S
C203 C207 1.415 . S
C203 C210 1.422 . S
C204 H195 0.929 . S
C204 N202 1.338 . S
C204 C206 1.378 . S
C205 H200 0.931 . S
C205 C206 1.348 . S
C205 C207 1.413 . S
C206 H201 0.930 . S
C206 C204 1.378 . S
C206 C205 1.348 . S
C207 C203 1.415 . S
C207 C205 1.413 . S
C207 C237 1.437 . S
H208 C237 0.929 . S
N209 Gd182 2.570 . S
N209 C210 1.359 . S
N209 C213 1.343 . S
C210 C203 1.422 . S
C210 N209 1.359 . S
C210 C212 1.421 . S
C211 C212 1.422 . S
C211 C214 1.321 . S
C211 H238 0.931 . S
C212 C210 1.421 . S
C212 C211 1.422 . S
C212 C236 1.417 . S
C213 H190 0.931 . S
C213 N209 1.343 . S
C213 C214 1.390 . S
C214 H192 0.930 . S
C214 C211 1.321 . S
C214 C213 1.390 . S
O215 Gd183 2.386 . S
O215 C227 1.265 . S
O216 Gd182 2.353 1_565 S
O216 C227 1.242 . S
O217 Gd182 2.468 . S
O217 C235 1.263 . S
O218 Gd182 2.427 . S
O218 C235 1.252 . S
O219 Gd183 2.307 1_545 S
O219 C228 1.261 . S
O220 Gd182 2.388 . S
O220 C228 1.252 . S
O221 Gd182 2.386 . S
O221 C239 1.265 . S
O222 Gd183 2.353 1_545 S
O222 C239 1.242 . S
O223 Gd183 2.468 . S
O223 C247 1.263 . S
O224 Gd183 2.427 . S
O224 C247 1.252 . S
O225 Gd182 2.307 . S
O225 C240 1.261 . S
O226 Gd183 2.388 . S
O226 C240 1.252 1_565 S
C227 O215 1.265 . S
C227 O216 1.242 . S
C228 O219 1.261 . S
C228 O220 1.252 . S
C229 C232 1.394 1_556 S
C229 C234 1.370 . S
C229 C235 1.500 . S
C230 C233 1.383 . S
C230 C234 1.395 1_554 S
C231 C232 1.396 . S
C231 C233 1.365 . S
C231 H248 0.929 . S
C232 C229 1.394 1_554 S
C232 C231 1.396 . S
C232 H249 0.930 . S
C233 C230 1.383 . S
C233 C231 1.365 . S
C233 H250 0.931 . S
C234 C229 1.370 . S
C234 C230 1.395 1_556 S
C234 H251 0.930 . S
C235 Gd182 2.805 . S
C235 O217 1.263 . S
C235 O218 1.252 . S
C235 C229 1.500 . S
C236 H198 0.930 . S
C236 C212 1.417 . S
C236 C237 1.329 . S
C237 C207 1.437 . S
C237 H208 0.929 . S
C237 C236 1.329 . S
H238 C211 0.931 . S
C239 O221 1.265 . S
C239 O222 1.242 . S
C240 O225 1.261 . S
C240 O226 1.252 1_545 S
C241 C244 1.394 . S
C241 C246 1.370 1_565 S
C241 C247 1.500 . S
C242 C245 1.383 1_545 S
C242 C246 1.395 . S
C243 C244 1.396 . S
C243 C245 1.365 . S
C243 H252 0.929 . S
C244 C241 1.394 . S
C244 C243 1.396 . S
C244 H253 0.930 . S
C245 C242 1.383 1_565 S
C245 C243 1.365 . S
C245 H254 0.931 . S
C246 C241 1.370 1_545 S
C246 C242 1.395 . S
C246 H255 0.930 . S
C247 Gd183 2.805 . S
C247 O223 1.263 . S
C247 O224 1.252 . S
C247 C241 1.500 . S
H248 C231 0.929 . S
H249 C232 0.930 . S
H250 C233 0.931 . S
H251 C234 0.930 . S
H252 C243 0.929 . S
H253 C244 0.930 . S
H254 C245 0.931 . S
H255 C246 0.930 . S
C256 C258 1.422 . S
C256 C260 1.415 . S
C256 N262 1.369 . S
C257 C258 1.421 1_554 S
C257 C259 1.417 . S
C257 C269 1.422 . S
C258 C256 1.422 . S
C258 C257 1.421 1_556 S
C258 N268 1.359 . S
C259 C257 1.417 . S
C259 C261 1.329 1_554 S
C259 H278 0.930 . S
C260 C256 1.415 . S
C260 C261 1.437 . S
C260 C264 1.413 . S
C261 C259 1.329 1_556 S
C261 C260 1.437 . S
C261 H283 0.929 1_556 S
N262 C256 1.369 . S
N262 C263 1.338 . S
N262 Gd267 2.622 . S
C263 N262 1.338 . S
C263 C265 1.378 . S
C263 H275 0.929 . S
C264 C260 1.413 . S
C264 C265 1.348 . S
C264 H280 0.931 . S
C265 C263 1.378 . S
C265 C264 1.348 . S
C265 H281 0.930 . S
Gd266 N286 2.622 . S
Gd266 N293 2.570 . S
Gd266 O300 2.353 . S
Gd266 O301 2.468 . S
Gd266 O302 2.427 . S
Gd266 O304 2.388 . S
Gd266 O305 2.386 . S
Gd266 O309 2.307 . S
Gd266 C319 2.805 . S
Gd267 N262 2.622 . S
Gd267 N268 2.570 . S
Gd267 O299 2.386 . S
Gd267 O303 2.307 . S
Gd267 O306 2.353 . S
Gd267 O307 2.468 . S
Gd267 O308 2.427 . S
Gd267 O310 2.388 . S
Gd267 C331 2.805 . S
N268 C258 1.359 . S
N268 Gd267 2.570 . S
N268 C270 1.343 . S
C269 C257 1.422 . S
C269 C271 1.321 . S
C269 H277 0.931 . S
C270 N268 1.343 . S
C270 C271 1.390 1_556 S
C270 H272 0.931 . S
C271 C269 1.321 . S
C271 C270 1.390 1_554 S
C271 H273 0.930 . S
H272 C270 0.931 . S
H273 C271 0.930 . S
H274 C297 0.931 . S
H275 C263 0.929 . S
H276 C298 0.930 . S
H277 C269 0.931 . S
H278 C259 0.930 . S
H279 C288 0.929 . S
H280 C264 0.931 . S
H281 C265 0.930 . S
H282 C320 0.930 . S
H283 C261 0.929 1_554 S
H284 C289 0.931 . S
H285 C290 0.930 . S
N286 Gd266 2.622 . S
N286 C287 1.369 . S
N286 C288 1.338 . S
C287 N286 1.369 . S
C287 C291 1.415 . S
C287 C294 1.422 . S
C288 H279 0.929 . S
C288 N286 1.338 . S
C288 C290 1.378 . S
C289 H284 0.931 . S
C289 C290 1.348 . S
C289 C291 1.413 . S
C290 H285 0.930 . S
C290 C288 1.378 . S
C290 C289 1.348 . S
C291 C287 1.415 . S
C291 C289 1.413 . S
C291 C321 1.437 . S
H292 C321 0.929 . S
N293 Gd266 2.570 . S
N293 C294 1.359 . S
N293 C297 1.343 . S
C294 C287 1.422 . S
C294 N293 1.359 . S
C294 C296 1.421 . S
C295 C296 1.422 . S
C295 C298 1.321 . S
C295 H322 0.931 . S
C296 C294 1.421 . S
C296 C295 1.422 . S
C296 C320 1.417 . S
C297 H274 0.931 . S
C297 N293 1.343 . S
C297 C298 1.390 . S
C298 H276 0.930 . S
C298 C295 1.321 . S
C298 C297 1.390 . S
O299 Gd267 2.386 . S
O299 C311 1.265 . S
O300 Gd266 2.353 . S
O300 C311 1.242 . S
O301 Gd266 2.468 . S
O301 C319 1.263 . S
O302 Gd266 2.427 . S
O302 C319 1.252 . S
O303 Gd267 2.307 . S
O303 C312 1.261 . S
O304 Gd266 2.388 . S
O304 C312 1.252 . S
O305 Gd266 2.386 . S
O305 C323 1.265 . S
O306 Gd267 2.353 . S
O306 C323 1.242 . S
O307 Gd267 2.468 . S
O307 C331 1.263 . S
O308 Gd267 2.427 . S
O308 C331 1.252 . S
O309 Gd266 2.307 . S
O309 C324 1.261 . S
O310 Gd267 2.388 . S
O310 C324 1.252 . S
C311 O299 1.265 . S
C311 O300 1.242 . S
C312 O303 1.261 . S
C312 O304 1.252 . S
C313 C316 1.394 . S
C313 C318 1.370 . S
C313 C319 1.500 . S
C314 C317 1.383 . S
C314 C318 1.395 . S
C315 C316 1.396 . S
C315 C317 1.365 . S
C315 H332 0.929 . S
C316 C313 1.394 . S
C316 C315 1.396 . S
C316 H333 0.930 . S
C317 C314 1.383 . S
C317 C315 1.365 . S
C317 H334 0.931 . S
C318 C313 1.370 . S
C318 C314 1.395 . S
C318 H335 0.930 . S
C319 Gd266 2.805 . S
C319 O301 1.263 . S
C319 O302 1.252 . S
C319 C313 1.500 . S
C320 H282 0.930 . S
C320 C296 1.417 . S
C320 C321 1.329 . S
C321 C291 1.437 . S
C321 H292 0.929 . S
C321 C320 1.329 . S
H322 C295 0.931 . S
C323 O305 1.265 . S
C323 O306 1.242 . S
C324 O309 1.261 . S
C324 O310 1.252 . S
C325 C328 1.394 . S
C325 C330 1.370 . S
C325 C331 1.500 . S
C326 C329 1.383 . S
C326 C330 1.395 . S
C327 C328 1.396 . S
C327 C329 1.365 . S
C327 H336 0.929 . S
C328 C325 1.394 . S
C328 C327 1.396 . S
C328 H337 0.930 . S
C329 C326 1.383 . S
C329 C327 1.365 . S
C329 H338 0.930 1_556 S
C330 C325 1.370 . S
C330 C326 1.395 . S
C330 H339 0.930 . S
C331 Gd267 2.805 . S
C331 O307 1.263 . S
C331 O308 1.252 . S
C331 C325 1.500 . S
H332 C315 0.929 . S
H333 C316 0.930 . S
H334 C317 0.931 . S
H335 C318 0.930 . S
H336 C327 0.929 . S
H337 C328 0.930 . S
H338 C329 0.930 1_554 S
H339 C330 0.930 . S
C340 C342 1.422 . S
C340 C344 1.415 . S
C340 N346 1.369 . S
C341 C342 1.421 1_554 S
C341 C343 1.417 . S
C341 C353 1.422 . S
C342 C340 1.422 . S
C342 C341 1.421 1_556 S
C342 N352 1.359 . S
C343 C341 1.417 . S
C343 C345 1.329 1_554 S
C343 H362 0.930 . S
C344 C340 1.415 . S
C344 C345 1.437 . S
C344 C348 1.413 . S
C345 C343 1.329 1_556 S
C345 C344 1.437 . S
C345 H367 0.929 1_556 S
N346 C340 1.369 . S
N346 C347 1.335 1_455 S
N346 Gd351 2.622 1_455 S
C347 N346 1.335 1_655 S
C347 C349 1.367 1_655 S
C347 H359 0.945 . S
C348 C344 1.413 . S
C348 C349 1.348 . S
C348 H364 0.931 . S
C349 C347 1.367 1_455 S
C349 C348 1.348 . S
C349 H365 0.930 . S
Gd350 N370 2.622 . S
Gd350 N377 2.570 . S
Gd350 O384 2.353 . S
Gd350 O385 2.468 . S
Gd350 O386 2.427 . S
Gd350 O388 2.388 . S
Gd350 O389 2.386 1_455 S
Gd350 O393 2.307 . S
Gd350 C403 2.805 . S
Gd351 N346 2.622 1_655 S
Gd351 N352 2.570 1_655 S
Gd351 O383 2.386 1_655 S
Gd351 O387 2.307 1_655 S
Gd351 O390 2.353 . S
Gd351 O391 2.468 . S
Gd351 O392 2.427 . S
Gd351 O394 2.388 . S
Gd351 C415 2.805 . S
N352 C342 1.359 . S
N352 Gd351 2.570 1_455 S
N352 C354 1.343 . S
C353 C341 1.422 . S
C353 C355 1.321 . S
C353 H361 0.931 . S
C354 N352 1.343 . S
C354 C355 1.390 1_556 S
C354 H356 0.931 . S
C355 C353 1.321 . S
C355 C354 1.390 1_554 S
C355 H357 0.930 . S
H356 C354 0.931 . S
H357 C355 0.930 . S
H358 C381 0.931 . S
H359 C347 0.945 . S
H360 C382 0.930 . S
H361 C353 0.931 . S
H362 C343 0.930 . S
H363 C372 0.929 . S
H364 C348 0.931 . S
H365 C349 0.930 . S
H366 C404 0.930 . S
H367 C345 0.929 1_554 S
H368 C373 0.931 . S
H369 C374 0.930 . S
N370 Gd350 2.622 . S
N370 C371 1.369 . S
N370 C372 1.338 . S
C371 N370 1.369 . S
C371 C375 1.415 1_455 S
C371 C378 1.424 . S
C372 H363 0.929 . S
C372 N370 1.338 . S
C372 C374 1.378 . S
C373 H368 0.931 . S
C373 C374 1.348 1_655 S
C373 C375 1.413 . S
C374 H369 0.930 . S
C374 C372 1.378 . S
C374 C373 1.348 1_455 S
C375 C371 1.415 1_655 S
C375 C373 1.413 . S
C375 C405 1.437 . S
H376 C405 0.929 . S
N377 Gd350 2.570 . S
N377 C378 1.366 . S
N377 C381 1.343 . S
C378 C371 1.424 . S
C378 N377 1.366 . S
C378 C380 1.412 1_455 S
C379 C380 1.422 . S
C379 C382 1.321 . S
C379 H406 0.931 . S
C380 C378 1.412 1_655 S
C380 C379 1.422 . S
C380 C404 1.417 . S
C381 H358 0.931 . S
C381 N377 1.343 . S
C381 C382 1.390 1_455 S
C382 H360 0.930 . S
C382 C379 1.321 . S
C382 C381 1.390 1_655 S
O383 Gd351 2.386 1_455 S
O383 C395 1.265 . S
O384 Gd350 2.353 . S
O384 C395 1.242 . S
O385 Gd350 2.468 . S
O385 C403 1.263 . S
O386 Gd350 2.427 . S
O386 C403 1.252 . S
O387 Gd351 2.307 1_455 S
O387 C396 1.261 . S
O388 Gd350 2.388 . S
O388 C396 1.252 . S
O389 Gd350 2.386 1_655 S
O389 C407 1.265 . S
O390 Gd351 2.353 . S
O390 C407 1.242 . S
O391 Gd351 2.468 . S
O391 C415 1.263 . S
O392 Gd351 2.427 . S
O392 C415 1.252 . S
O393 Gd350 2.307 . S
O393 C408 1.261 . S
O394 Gd351 2.388 . S
O394 C408 1.252 1_655 S
C395 O383 1.265 . S
C395 O384 1.242 . S
C396 O387 1.261 . S
C396 O388 1.252 . S
C397 C400 1.394 . S
C397 C402 1.370 . S
C397 C403 1.500 . S
C398 C401 1.383 . S
C398 C402 1.395 . S
C399 C400 1.396 . S
C399 C401 1.365 . S
C399 H416 0.929 . S
C400 C397 1.394 . S
C400 C399 1.396 . S
C400 H417 0.930 . S
C401 C398 1.383 . S
C401 C399 1.365 . S
C401 H418 0.931 . S
C402 C397 1.370 . S
C402 C398 1.395 . S
C402 H419 0.930 . S
C403 Gd350 2.805 . S
C403 O385 1.263 . S
C403 O386 1.252 . S
C403 C397 1.500 . S
C404 H366 0.930 . S
C404 C380 1.417 . S
C404 C405 1.329 . S
C405 C375 1.437 . S
C405 H376 0.929 . S
C405 C404 1.329 . S
H406 C379 0.931 . S
C407 O389 1.265 . S
C407 O390 1.242 . S
C408 O393 1.261 . S
C408 O394 1.252 1_455 S
C409 C412 1.394 . S
C409 C414 1.370 . S
C409 C415 1.500 . S
C410 C413 1.383 . S
C410 C414 1.395 . S
C411 C412 1.396 . S
C411 C413 1.365 . S
C411 H420 0.929 . S
C412 C409 1.394 . S
C412 C411 1.396 . S
C412 H421 0.930 . S
C413 C410 1.383 . S
C413 C411 1.365 . S
C413 H422 0.931 . S
C414 C409 1.370 . S
C414 C410 1.395 . S
C414 H423 0.930 . S
C415 Gd351 2.805 . S
C415 O391 1.263 . S
C415 O392 1.252 . S
C415 C409 1.500 . S
H416 C399 0.929 . S
H417 C400 0.930 . S
H418 C401 0.931 . S
H419 C402 0.930 . S
H420 C411 0.929 . S
H421 C412 0.930 . S
H422 C413 0.931 . S
H423 C414 0.930 . S
H424 C432 0.950 . S
H425 C437 0.976 . S
H426 C434 0.950 . S
H427 C436 0.950 1_565 S
H428 C438 0.950 1_565 S
H429 C440 0.950 1_565 S
H430 C442 0.950 . S
H431 C443 0.950 . S
C432 H424 0.950 . S
C432 C433 1.386 . S
C432 C434 1.391 . S
C433 C432 1.386 . S
C433 C437 1.393 . S
C434 H426 0.950 . S
C434 C432 1.391 . S
C434 C435 1.400 . S
C435 C434 1.400 . S
C435 C436 1.398 . S
C435 C441 1.491 . S
C436 H427 0.950 1_545 S
C436 C435 1.398 . S
C436 C437 1.391 . S
C437 H425 0.976 . S
C437 C433 1.393 . S
C437 C436 1.391 . S
C438 H428 0.950 1_545 S
C438 C439 1.386 . S
C438 C440 1.391 . S
C439 C438 1.386 . S
C439 C443 1.393 . S
C440 H429 0.950 1_545 S
C440 C438 1.391 . S
C440 C441 1.400 . S
C441 C435 1.491 . S
C441 C440 1.400 . S
C441 C442 1.398 . S
C442 H430 0.950 . S
C442 C441 1.398 . S
C442 C443 1.391 . S
C443 H431 0.950 . S
C443 C439 1.393 . S
C443 C442 1.391 . S
H444 C452 0.950 . S
H445 C457 0.950 . S
H446 C454 0.950 . S
H447 C456 0.950 . S
H448 C458 0.950 . S
H449 C460 0.950 . S
H450 C462 0.950 . S
H451 C463 0.950 . S
C452 H444 0.950 . S
C452 C453 1.386 . S
C452 C454 1.391 . S
C453 C452 1.386 . S
C453 C457 1.393 . S
C454 H446 0.950 . S
C454 C452 1.391 . S
C454 C455 1.400 . S
C455 C454 1.400 . S
C455 C456 1.398 . S
C455 C461 1.491 . S
C456 H447 0.950 . S
C456 C455 1.398 . S
C456 C457 1.391 . S
C457 H445 0.950 . S
C457 C453 1.393 . S
C457 C456 1.391 . S
C458 H448 0.950 . S
C458 C459 1.386 . S
C458 C460 1.391 . S
C459 C458 1.386 . S
C459 C463 1.393 . S
C460 H449 0.950 . S
C460 C458 1.391 . S
C460 C461 1.400 . S
C461 C455 1.491 . S
C461 C460 1.400 . S
C461 C462 1.398 . S
C462 H450 0.950 . S
C462 C461 1.398 . S
C462 C463 1.391 . S
C463 H451 0.950 . S
C463 C459 1.393 . S
C463 C462 1.391 . S
H464 C472 0.950 . S
H465 C477 0.950 . S
H466 C474 0.950 . S
H467 C476 0.950 . S
H468 C478 0.950 . S
H469 C480 0.950 . S
H470 C482 0.950 . S
H471 C483 0.950 . S
C472 H464 0.950 . S
C472 C473 1.386 . S
C472 C474 1.391 . S
C473 C472 1.386 . S
C473 C477 1.393 . S
C474 H466 0.950 . S
C474 C472 1.391 . S
C474 C475 1.400 . S
C475 C474 1.400 . S
C475 C476 1.398 . S
C475 C481 1.491 . S
C476 H467 0.950 . S
C476 C475 1.398 . S
C476 C477 1.391 . S
C477 H465 0.950 . S
C477 C473 1.393 . S
C477 C476 1.391 . S
C478 H468 0.950 . S
C478 C479 1.386 . S
C478 C480 1.391 . S
C479 C478 1.386 . S
C479 C483 1.393 . S
C480 H469 0.950 . S
C480 C478 1.391 . S
C480 C481 1.400 . S
C481 C475 1.491 . S
C481 C480 1.400 . S
C481 C482 1.398 . S
C482 H470 0.950 . S
C482 C481 1.398 . S
C482 C483 1.391 . S
C483 H471 0.950 . S
C483 C479 1.393 . S
C483 C482 1.391 . S
H484 C492 0.950 . S
H485 C497 0.950 . S
H486 C494 0.950 . S
H487 C496 0.950 . S
H488 C498 0.950 . S
H489 C500 0.950 . S
H490 C502 0.950 . S
H491 C503 0.950 . S
C492 H484 0.950 . S
C492 C493 1.386 . S
C492 C494 1.391 . S
C493 C492 1.386 . S
C493 C497 1.393 . S
C494 H486 0.950 . S
C494 C492 1.391 . S
C494 C495 1.400 . S
C495 C494 1.400 . S
C495 C496 1.398 . S
C495 C501 1.491 . S
C496 H487 0.950 . S
C496 C495 1.398 . S
C496 C497 1.391 . S
C497 H485 0.950 . S
C497 C493 1.393 . S
C497 C496 1.391 . S
C498 H488 0.950 . S
C498 C499 1.386 . S
C498 C500 1.391 . S
C499 C498 1.386 . S
C499 C503 1.393 . S
C500 H489 0.950 . S
C500 C498 1.391 . S
C500 C501 1.400 . S
C501 C495 1.491 . S
C501 C500 1.400 . S
C501 C502 1.398 . S
C502 H490 0.950 . S
C502 C501 1.398 . S
C502 C503 1.391 . S
C503 H491 0.950 . S
C503 C499 1.393 . S
C503 C502 1.391 . S
H504 C512 0.950 . S
H505 C517 0.950 . S
H506 C514 0.950 . S
H507 C516 0.950 1_556 S
H508 C518 0.950 . S
H509 C520 0.950 . S
H510 C522 0.950 1_554 S
H511 C523 0.950 . S
C512 H504 0.950 . S
C512 C513 1.386 . S
C512 C514 1.391 . S
C513 C512 1.386 . S
C513 C517 1.393 . S
C514 H506 0.950 . S
C514 C512 1.391 . S
C514 C515 1.400 . S
C515 C514 1.400 . S
C515 C516 1.398 . S
C515 C521 1.491 1_554 S
C516 H507 0.950 1_554 S
C516 C515 1.398 . S
C516 C517 1.391 . S
C517 H505 0.950 . S
C517 C513 1.393 . S
C517 C516 1.391 . S
C518 H508 0.950 . S
C518 C519 1.391 . S
C518 C520 1.391 . S
C519 C518 1.391 . S
C519 C523 1.384 1_545 S
C520 H509 0.950 . S
C520 C518 1.391 . S
C520 C521 1.400 1_545 S
C521 C515 1.491 1_556 S
C521 C520 1.400 1_565 S
C521 C522 1.398 . S
C522 H510 0.950 1_556 S
C522 C521 1.398 . S
C522 C523 1.391 . S
C523 H511 0.950 . S
C523 C519 1.384 1_565 S
C523 C522 1.391 . S
H524 C532 0.950 . S
H525 C537 0.950 . S
H526 C534 0.950 . S
H527 C536 0.950 . S
H528 C538 0.950 . S
H529 C540 0.950 . S
H530 C542 0.950 1_554 S
H531 C543 0.950 . S
C532 H524 0.950 . S
C532 C533 1.386 . S
C532 C534 1.391 . S
C533 C532 1.386 . S
C533 C537 1.393 . S
C534 H526 0.950 . S
C534 C532 1.391 . S
C534 C535 1.400 . S
C535 C534 1.400 . S
C535 C536 1.398 . S
C535 C541 1.491 1_554 S
C536 H527 0.950 . S
C536 C535 1.398 . S
C536 C537 1.391 . S
C537 H525 0.950 . S
C537 C533 1.393 . S
C537 C536 1.391 . S
C538 H528 0.950 . S
C538 C539 1.386 . S
C538 C540 1.391 . S
C539 C538 1.386 . S
C539 C543 1.393 . S
C540 H529 0.950 . S
C540 C538 1.391 . S
C540 C541 1.400 . S
C541 C535 1.491 1_556 S
C541 C540 1.400 . S
C541 C542 1.398 . S
C542 H530 0.950 1_556 S
C542 C541 1.398 . S
C542 C543 1.391 . S
C543 H531 0.950 . S
C543 C539 1.393 . S
C543 C542 1.391 . S
H544 C552 0.950 . S
H545 C557 0.950 . S
H546 C554 0.950 . S
H547 C556 0.950 . S
H548 C558 0.950 . S
H549 C560 0.950 . S
H550 C562 0.950 1_554 S
H551 C563 0.950 . S
C552 H544 0.950 . S
C552 C553 1.386 . S
C552 C554 1.391 . S
C553 C552 1.386 . S
C553 C557 1.393 . S
C554 H546 0.950 . S
C554 C552 1.391 . S
C554 C555 1.400 . S
C555 C554 1.400 . S
C555 C556 1.398 . S
C555 C561 1.491 1_554 S
C556 H547 0.950 . S
C556 C555 1.398 . S
C556 C557 1.391 . S
C557 H545 0.950 . S
C557 C553 1.393 . S
C557 C556 1.391 . S
C558 H548 0.950 . S
C558 C559 1.386 . S
C558 C560 1.391 . S
C559 C558 1.386 . S
C559 C563 1.393 . S
C560 H549 0.950 . S
C560 C558 1.391 . S
C560 C561 1.400 . S
C561 C555 1.491 1_556 S
C561 C560 1.400 . S
C561 C562 1.398 . S
C562 H550 0.950 1_556 S
C562 C561 1.398 . S
C562 C563 1.391 . S
C563 H551 0.950 . S
C563 C559 1.393 . S
C563 C562 1.391 . S
H564 C572 0.950 . S
H565 C577 0.950 . S
H566 C574 0.950 . S
H567 C576 0.950 . S
H568 C578 0.950 . S
H569 C580 0.950 . S
H570 C582 0.950 . S
H571 C583 0.950 . S
C572 H564 0.950 . S
C572 C573 1.386 1_455 S
C572 C574 1.391 . S
C573 C572 1.386 1_655 S
C573 C577 1.393 . S
C574 H566 0.950 . S
C574 C572 1.391 . S
C574 C575 1.400 1_455 S
C575 C574 1.400 1_655 S
C575 C576 1.398 . S
C575 C581 1.491 1_554 S
C576 H567 0.950 . S
C576 C575 1.398 . S
C576 C577 1.391 . S
C577 H565 0.950 . S
C577 C573 1.393 . S
C577 C576 1.391 . S
C578 H568 0.950 . S
C578 C579 1.386 . S
C578 C580 1.391 . S
C579 C578 1.386 . S
C579 C583 1.393 1_655 S
C580 H569 0.950 . S
C580 C578 1.391 . S
C580 C581 1.400 . S
C581 C575 1.491 1_556 S
C581 C580 1.400 . S
C581 C582 1.398 1_655 S
C582 H570 0.950 . S
C582 C581 1.398 1_455 S
C582 C583 1.391 . S
C583 H571 0.950 . S
C583 C579 1.393 1_455 S
C583 C582 1.391 . S
H584 C592 0.950 . S
H585 C597 0.950 . S
H586 C594 0.950 . S
H587 C596 0.950 1_655 S
H588 C598 0.950 . S
H589 C600 0.950 . S
H590 C602 0.950 . S
H591 C603 0.950 . S
C592 H584 0.950 . S
C592 C593 1.386 . S
C592 C594 1.391 . S
C593 C592 1.386 . S
C593 C597 1.393 . S
C594 H586 0.950 . S
C594 C592 1.391 . S
C594 C595 1.400 . S
C595 C594 1.400 . S
C595 C596 1.398 . S
C595 C601 1.491 . S
C596 H587 0.950 1_455 S
C596 C595 1.398 . S
C596 C597 1.391 . S
C597 H585 0.950 . S
C597 C593 1.393 . S
C597 C596 1.391 . S
C598 H588 0.950 . S
C598 C599 1.386 1_655 S
C598 C600 1.391 . S
C599 C598 1.386 1_455 S
C599 C603 1.393 . S
C600 H589 0.950 . S
C600 C598 1.391 . S
C600 C601 1.400 1_655 S
C601 C595 1.491 . S
C601 C600 1.400 1_455 S
C601 C602 1.398 . S
C602 H590 0.950 . S
C602 C601 1.398 . S
C602 C603 1.391 . S
C603 H591 0.950 . S
C603 C599 1.393 . S
C603 C602 1.391 . S
H604 C612 0.950 . S
H605 C617 0.950 . S
H606 C614 0.950 1_565 S
H607 C616 0.950 . S
H608 C618 0.950 . S
H609 C620 0.950 . S
H610 C622 0.950 . S
H611 C623 0.950 . S
C612 H604 0.950 . S
C612 C613 1.386 . S
C612 C614 1.391 . S
C613 C612 1.386 . S
C613 C617 1.393 . S
C614 H606 0.950 1_545 S
C614 C612 1.391 . S
C614 C615 1.400 . S
C615 C614 1.400 . S
C615 C616 1.398 . S
C615 C621 1.491 . S
C616 H607 0.950 . S
C616 C615 1.398 . S
C616 C617 1.391 . S
C617 H605 0.950 . S
C617 C613 1.393 . S
C617 C616 1.391 . S
C618 H608 0.950 . S
C618 C619 1.386 . S
C618 C620 1.391 . S
C619 C618 1.386 . S
C619 C623 1.393 1_545 S
C620 H609 0.950 . S
C620 C618 1.391 . S
C620 C621 1.400 . S
C621 C615 1.491 . S
C621 C620 1.400 . S
C621 C622 1.398 1_545 S
C622 H610 0.950 . S
C622 C621 1.398 1_565 S
C622 C623 1.391 . S
C623 H611 0.950 . S
C623 C619 1.393 1_565 S
C623 C622 1.391 . S
H624 C632 0.950 . S
H625 C637 0.950 . S
H626 C634 0.950 . S
H627 C636 0.950 . S
H628 C638 0.950 . S
H629 C640 0.950 . S
H630 C642 0.950 . S
H631 C643 0.950 . S
C632 H624 0.950 . S
C632 C633 1.386 . S
C632 C634 1.391 . S
C633 C632 1.386 . S
C633 C637 1.393 . S
C634 H626 0.950 . S
C634 C632 1.391 . S
C634 C635 1.400 . S
C635 C634 1.400 . S
C635 C636 1.398 . S
C635 C641 1.491 . S
C636 H627 0.950 . S
C636 C635 1.398 . S
C636 C637 1.391 . S
C637 H625 0.950 . S
C637 C633 1.393 . S
C637 C636 1.391 . S
C638 H628 0.950 . S
C638 C639 1.386 . S
C638 C640 1.391 . S
C639 C638 1.386 . S
C639 C643 1.393 . S
C640 H629 0.950 . S
C640 C638 1.391 . S
C640 C641 1.400 . S
C641 C635 1.491 . S
C641 C640 1.400 . S
C641 C642 1.398 . S
C642 H630 0.950 . S
C642 C641 1.398 . S
C642 C643 1.391 . S
C643 H631 0.950 . S
C643 C639 1.393 . S
C643 C642 1.391 . S
H644 C652 0.950 . S
H645 C657 0.950 . S
H646 C654 0.950 . S
H647 C656 0.950 . S
H648 C658 0.950 . S
H649 C660 0.950 . S
H650 C662 0.950 . S
H651 C663 0.950 . S
C652 H644 0.950 . S
C652 C653 1.386 . S
C652 C654 1.391 . S
C653 C652 1.386 . S
C653 C657 1.393 . S
C654 H646 0.950 . S
C654 C652 1.391 . S
C654 C655 1.400 . S
C655 C654 1.400 . S
C655 C656 1.398 . S
C655 C661 1.491 . S
C656 H647 0.950 . S
C656 C655 1.398 . S
C656 C657 1.391 . S
C657 H645 0.950 . S
C657 C653 1.393 . S
C657 C656 1.391 . S
C658 H648 0.950 . S
C658 C659 1.386 . S
C658 C660 1.391 . S
C659 C658 1.386 . S
C659 C663 1.393 . S
C660 H649 0.950 . S
C660 C658 1.391 . S
C660 C661 1.400 . S
C661 C655 1.491 . S
C661 C660 1.400 . S
C661 C662 1.398 . S
C662 H650 0.950 . S
C662 C661 1.398 . S
C662 C663 1.391 . S
C663 H651 0.950 . S
C663 C659 1.393 . S
C663 C662 1.391 . S
H664 C672 0.950 . S
H665 C677 0.950 . S
H666 C674 0.950 . S
H667 C676 0.950 . S
H668 C678 0.950 . S
H669 C680 0.950 . S
H670 C682 0.950 . S
H671 C683 0.950 . S
C672 H664 0.950 . S
C672 C673 1.386 . S
C672 C674 1.391 . S
C673 C672 1.386 . S
C673 C677 1.393 1_655 S
C674 H666 0.950 . S
C674 C672 1.391 . S
C674 C675 1.400 . S
C675 C674 1.400 . S
C675 C676 1.398 1_655 S
C675 C681 1.491 . S
C676 H667 0.950 . S
C676 C675 1.398 1_455 S
C676 C677 1.391 . S
C677 H665 0.950 . S
C677 C673 1.393 1_455 S
C677 C676 1.391 . S
C678 H668 0.950 . S
C678 C679 1.386 1_554 S
C678 C680 1.391 . S
C679 C678 1.386 1_556 S
C679 C683 1.393 1_455 S
C680 H669 0.950 . S
C680 C678 1.391 . S
C680 C681 1.400 1_455 S
C681 C675 1.491 . S
C681 C680 1.400 1_655 S
C681 C682 1.398 . S
C682 H670 0.950 . S
C682 C681 1.398 . S
C682 C683 1.391 1_554 S
C683 H671 0.950 . S
C683 C679 1.393 1_655 S
C683 C682 1.391 1_556 S
H684 C692 0.950 . S
H685 C697 0.950 . S
H686 C694 0.950 . S
H687 C696 0.950 1_545 S
H688 C698 0.950 . S
H689 C700 0.950 . S
H690 C702 0.950 1_556 S
H691 C703 0.950 . S
C692 H684 0.950 . S
C692 C693 1.386 . S
C692 C694 1.391 . S
C693 C692 1.386 . S
C693 C697 1.393 . S
C694 H686 0.950 . S
C694 C692 1.391 . S
C694 C695 1.400 . S
C695 C694 1.400 . S
C695 C696 1.398 . S
C695 C701 1.498 . S
C696 H687 0.950 1_565 S
C696 C695 1.398 . S
C696 C697 1.391 . S
C697 H685 0.950 . S
C697 C693 1.393 . S
C697 C696 1.391 . S
C698 H688 0.950 . S
C698 C699 1.373 1_554 S
C698 C700 1.391 . S
C699 C698 1.373 1_556 S
C699 C703 1.398 1_545 S
C700 H689 0.950 . S
C700 C698 1.391 . S
C700 C701 1.386 1_545 S
C701 C695 1.498 . S
C701 C700 1.386 1_565 S
C701 C702 1.405 . S
C702 H690 0.950 1_554 S
C702 C701 1.405 . S
C702 C703 1.391 1_554 S
C703 H691 0.950 . S
C703 C699 1.398 1_565 S
C703 C702 1.391 1_556 S
H704 C712 0.950 . S
H705 C717 0.950 . S
H706 C714 0.950 . S
H707 C716 0.950 . S
H708 C718 0.950 . S
H709 C720 0.950 1_556 S
H710 C722 0.950 . S
H711 C723 0.950 . S
C712 H704 0.950 . S
C712 C713 1.386 . S
C712 C714 1.391 . S
C713 C712 1.386 . S
C713 C717 1.393 . S
C714 H706 0.950 . S
C714 C712 1.391 . S
C714 C715 1.400 . S
C715 C714 1.400 . S
C715 C716 1.398 . S
C715 C721 1.491 . S
C716 H707 0.950 . S
C716 C715 1.398 . S
C716 C717 1.391 . S
C717 H705 0.950 . S
C717 C713 1.393 . S
C717 C716 1.391 . S
C718 H708 0.950 . S
C718 C719 1.386 . S
C718 C720 1.391 1_556 S
C719 C718 1.386 . S
C719 C723 1.393 1_556 S
C720 H709 0.950 1_554 S
C720 C718 1.391 1_554 S
C720 C721 1.400 . S
C721 C715 1.491 . S
C721 C720 1.400 . S
C721 C722 1.398 . S
C722 H710 0.950 . S
C722 C721 1.398 . S
C722 C723 1.391 . S
C723 H711 0.950 . S
C723 C719 1.393 1_554 S
C723 C722 1.391 . S
H724 C732 0.950 . S
H725 C737 0.950 . S
H726 C734 0.950 . S
H727 C736 0.950 . S
H728 C738 0.950 . S
H729 C740 0.950 . S
H730 C742 0.950 1_556 S
H731 C743 0.950 . S
C732 H724 0.950 . S
C732 C733 1.386 . S
C732 C734 1.391 . S
C733 C732 1.386 . S
C733 C737 1.393 . S
C734 H726 0.950 . S
C734 C732 1.391 . S
C734 C735 1.400 . S
C735 C734 1.400 . S
C735 C736 1.398 . S
C735 C741 1.491 . S
C736 H727 0.950 . S
C736 C735 1.398 . S
C736 C737 1.391 . S
C737 H725 0.950 . S
C737 C733 1.393 . S
C737 C736 1.391 . S
C738 H728 0.950 . S
C738 C739 1.386 1_554 S
C738 C740 1.391 . S
C739 C738 1.386 1_556 S
C739 C743 1.393 . S
C740 H729 0.950 . S
C740 C738 1.391 . S
C740 C741 1.400 . S
C741 C735 1.491 . S
C741 C740 1.400 . S
C741 C742 1.398 . S
C742 H730 0.950 1_554 S
C742 C741 1.398 . S
C742 C743 1.391 1_554 S
C743 H731 0.950 . S
C743 C739 1.393 . S
C743 C742 1.391 1_556 S
H744 C752 0.950 . S
H745 C757 0.950 . S
H746 C754 0.981 . S
H747 C756 0.950 . S
H748 C758 0.950 . S
H749 C760 0.950 . S
H750 C762 0.931 1_655 S
H751 C763 0.950 1_655 S
C752 H744 0.950 . S
C752 C753 1.386 . S
C752 C754 1.391 . S
C753 C752 1.386 . S
C753 C757 1.393 . S
C754 H746 0.981 . S
C754 C752 1.391 . S
C754 C755 1.400 . S
C755 C754 1.400 . S
C755 C756 1.398 . S
C755 C761 1.491 . S
C756 H747 0.950 . S
C756 C755 1.398 . S
C756 C757 1.391 . S
C757 H745 0.950 . S
C757 C753 1.393 . S
C757 C756 1.391 . S
C758 H748 0.950 . S
C758 C759 1.386 . S
C758 C760 1.391 . S
C759 C758 1.386 . S
C759 C763 1.393 . S
C760 H749 0.950 . S
C760 C758 1.391 . S
C760 C761 1.400 . S
C761 C755 1.491 . S
C761 C760 1.400 . S
C761 C762 1.398 . S
C762 H750 0.931 1_455 S
C762 C761 1.398 . S
C762 C763 1.391 . S
C763 H751 0.950 1_455 S
C763 C759 1.393 . S
C763 C762 1.391 . S
H764 C772 0.950 . S
H765 C777 0.969 . S
H766 C774 0.950 . S
H767 C776 0.950 1_565 S
H768 C778 0.950 1_565 S
H769 C780 0.950 1_565 S
H770 C782 0.950 . S
H771 C783 0.950 . S
C772 H764 0.950 . S
C772 C773 1.386 . S
C772 C774 1.391 . S
C773 C772 1.386 . S
C773 C777 1.393 . S
C774 H766 0.950 . S
C774 C772 1.391 . S
C774 C775 1.400 . S
C775 C774 1.400 . S
C775 C776 1.398 . S
C775 C781 1.491 . S
C776 H767 0.950 1_545 S
C776 C775 1.398 . S
C776 C777 1.391 . S
C777 H765 0.969 . S
C777 C773 1.393 . S
C777 C776 1.391 . S
C778 H768 0.950 1_545 S
C778 C779 1.386 . S
C778 C780 1.391 . S
C779 C778 1.386 . S
C779 C783 1.393 . S
C780 H769 0.950 1_545 S
C780 C778 1.391 . S
C780 C781 1.400 . S
C781 C775 1.491 . S
C781 C780 1.400 . S
C781 C782 1.398 . S
C782 H770 0.950 . S
C782 C781 1.398 . S
C782 C783 1.391 . S
C783 H771 0.950 . S
C783 C779 1.393 . S
C783 C782 1.391 . S
H784 C792 0.950 . S
H785 C797 0.950 . S
H786 C794 0.950 . S
H787 C796 0.950 . S
H788 C798 0.950 . S
H789 C800 0.950 . S
H790 C802 0.950 . S
H791 C803 0.950 . S
C792 H784 0.950 . S
C792 C793 1.386 . S
C792 C794 1.391 . S
C793 C792 1.386 . S
C793 C797 1.393 . S
C794 H786 0.950 . S
C794 C792 1.391 . S
C794 C795 1.400 . S
C795 C794 1.400 . S
C795 C796 1.398 . S
C795 C801 1.491 . S
C796 H787 0.950 . S
C796 C795 1.398 . S
C796 C797 1.391 . S
C797 H785 0.950 . S
C797 C793 1.393 . S
C797 C796 1.391 . S
C798 H788 0.950 . S
C798 C799 1.386 . S
C798 C800 1.391 . S
C799 C798 1.386 . S
C799 C803 1.393 . S
C800 H789 0.950 . S
C800 C798 1.391 . S
C800 C801 1.400 . S
C801 C795 1.491 . S
C801 C800 1.400 . S
C801 C802 1.398 . S
C802 H790 0.950 . S
C802 C801 1.398 . S
C802 C803 1.391 . S
C803 H791 0.950 . S
C803 C799 1.393 . S
C803 C802 1.391 . S
H804 C812 0.950 . S
H805 C817 0.950 . S
H806 C814 0.950 . S
H807 C816 0.950 . S
H808 C818 0.950 . S
H809 C820 0.950 . S
H810 C822 0.950 . S
H811 C823 0.950 . S
C812 H804 0.950 . S
C812 C813 1.386 . S
C812 C814 1.391 . S
C813 C812 1.386 . S
C813 C817 1.393 . S
C814 H806 0.950 . S
C814 C812 1.391 . S
C814 C815 1.400 . S
C815 C814 1.400 . S
C815 C816 1.398 . S
C815 C821 1.491 . S
C816 H807 0.950 . S
C816 C815 1.398 . S
C816 C817 1.391 . S
C817 H805 0.950 . S
C817 C813 1.393 . S
C817 C816 1.391 . S
C818 H808 0.950 . S
C818 C819 1.386 . S
C818 C820 1.391 . S
C819 C818 1.386 . S
C819 C823 1.393 . S
C820 H809 0.950 . S
C820 C818 1.391 . S
C820 C821 1.400 . S
C821 C815 1.491 . S
C821 C820 1.400 . S
C821 C822 1.398 . S
C822 H810 0.950 . S
C822 C821 1.398 . S
C822 C823 1.391 . S
C823 H811 0.950 . S
C823 C819 1.393 . S
C823 C822 1.391 . S
H824 C832 0.950 . S
H825 C837 0.950 . S
H826 C834 0.950 . S
H827 C836 0.950 . S
H828 C838 0.950 . S
H829 C840 0.950 . S
H830 C842 0.950 . S
H831 C843 0.950 . S
C832 H824 0.950 . S
C832 C833 1.386 1_455 S
C832 C834 1.391 . S
C833 C832 1.386 1_655 S
C833 C837 1.393 . S
C834 H826 0.950 . S
C834 C832 1.391 . S
C834 C835 1.400 1_455 S
C835 C834 1.400 1_655 S
C835 C836 1.398 . S
C835 C841 1.491 . S
C836 H827 0.950 . S
C836 C835 1.398 . S
C836 C837 1.391 . S
C837 H825 0.950 . S
C837 C833 1.393 . S
C837 C836 1.391 . S
C838 H828 0.950 . S
C838 C839 1.386 . S
C838 C840 1.391 . S
C839 C838 1.386 . S
C839 C843 1.393 1_655 S
C840 H829 0.950 . S
C840 C838 1.391 . S
C840 C841 1.400 . S
C841 C835 1.491 . S
C841 C840 1.400 . S
C841 C842 1.398 1_655 S
C842 H830 0.950 . S
C842 C841 1.398 1_455 S
C842 C843 1.391 . S
C843 H831 0.950 . S
C843 C839 1.393 1_455 S
C843 C842 1.391 . S
H844 C852 0.950 . S
H845 C857 0.950 . S
H846 C854 0.950 . S
H847 C856 0.950 . S
H848 C858 0.950 . S
H849 C860 0.950 . S
H850 C862 0.950 . S
H851 C863 0.950 . S
C852 H844 0.950 . S
C852 C853 1.386 1_545 S
C852 C854 1.391 . S
C853 C852 1.386 1_565 S
C853 C857 1.393 . S
C854 H846 0.950 . S
C854 C852 1.391 . S
C854 C855 1.400 1_545 S
C855 C854 1.400 1_565 S
C855 C856 1.398 . S
C855 C861 1.491 . S
C856 H847 0.950 . S
C856 C855 1.398 . S
C856 C857 1.391 . S
C857 H845 0.950 . S
C857 C853 1.393 . S
C857 C856 1.391 . S
C858 H848 0.950 . S
C858 C859 1.386 . S
C858 C860 1.391 . S
C859 C858 1.386 . S
C859 C863 1.393 1_565 S
C860 H849 0.950 . S
C860 C858 1.391 . S
C860 C861 1.400 . S
C861 C855 1.491 . S
C861 C860 1.400 . S
C861 C862 1.398 1_565 S
C862 H850 0.950 . S
C862 C861 1.398 1_545 S
C862 C863 1.391 . S
C863 H851 0.950 . S
C863 C859 1.393 1_545 S
C863 C862 1.391 . S
H864 C872 0.950 . S
H865 C877 0.950 . S
H866 C874 0.950 . S
H867 C876 0.950 . S
H868 C878 0.950 . S
H869 C880 0.950 . S
H870 C882 0.950 . S
H871 C883 0.950 . S
C872 H864 0.950 . S
C872 C873 1.386 . S
C872 C874 1.391 . S
C873 C872 1.386 . S
C873 C877 1.393 . S
C874 H866 0.950 . S
C874 C872 1.391 . S
C874 C875 1.400 . S
C875 C874 1.400 . S
C875 C876 1.398 . S
C875 C881 1.491 . S
C876 H867 0.950 . S
C876 C875 1.398 . S
C876 C877 1.391 . S
C877 H865 0.950 . S
C877 C873 1.393 . S
C877 C876 1.391 . S
C878 H868 0.950 . S
C878 C879 1.386 . S
C878 C880 1.391 . S
C879 C878 1.386 . S
C879 C883 1.393 . S
C880 H869 0.950 . S
C880 C878 1.391 . S
C880 C881 1.400 . S
C881 C875 1.491 . S
C881 C880 1.400 . S
C881 C882 1.398 . S
C882 H870 0.950 . S
C882 C881 1.398 . S
C882 C883 1.391 . S
C883 H871 0.950 . S
C883 C879 1.393 . S
C883 C882 1.391 . S
H884 C892 0.950 . S
H885 C897 0.950 . S
H886 C894 0.950 . S
H887 C896 0.950 . S
H888 C898 0.950 . S
H889 C900 0.950 . S
H890 C902 0.950 . S
H891 C903 0.950 . S
C892 H884 0.950 . S
C892 C893 1.386 . S
C892 C894 1.391 . S
C893 C892 1.386 . S
C893 C897 1.393 . S
C894 H886 0.950 . S
C894 C892 1.391 . S
C894 C895 1.400 . S
C895 C894 1.400 . S
C895 C896 1.398 . S
C895 C901 1.491 . S
C896 H887 0.950 . S
C896 C895 1.398 . S
C896 C897 1.391 . S
C897 H885 0.950 . S
C897 C893 1.393 . S
C897 C896 1.391 . S
C898 H888 0.950 . S
C898 C899 1.386 . S
C898 C900 1.391 . S
C899 C898 1.386 . S
C899 C903 1.393 . S
C900 H889 0.950 . S
C900 C898 1.391 . S
C900 C901 1.400 . S
C901 C895 1.491 . S
C901 C900 1.400 . S
C901 C902 1.398 . S
C902 H890 0.950 . S
C902 C901 1.398 . S
C902 C903 1.391 . S
C903 H891 0.950 . S
C903 C899 1.393 . S
C903 C902 1.391 . S
C433 C76 1.898 . S
C439 C156 2.014 . S
C459 C239 2.030 . S
C453 C87 1.900 . S
C479 C324 1.998 . S
C473 C54 1.885 . S
C499 C408 1.984 . S
C493 C65 1.867 . S
C519 C144 2.009 . S
C513 C32 1.887 . S
C533 C43 1.883 . S
C539 C227 2.022 . S
C553 C10 1.870 . S
C559 C312 1.996 . S
C573 C21 1.888 . S
C579 C396 1.994 1_655 S
C599 C146 0.615 1_455 S
C593 C60 0.610 . S
C619 C242 0.638 . S
C613 C71 0.541 . S
C639 C314 0.589 . S
C633 C82 0.608 . S
C653 C49 0.546 . S
C659 C398 0.586 . S
C673 C16 0.572 . S
C679 C158 0.590 . S
C699 C230 0.618 1_556 S
C693 C27 0.565 . S
C719 C326 0.648 . S
C713 C38 0.594 . S
C733 C5 0.578 . S
C739 C410 0.563 . S
C753 C59 1.930 . S
C759 C143 2.110 . S
C773 C70 1.900 . S
C779 C228 2.117 . S
C799 C311 2.121 . S
C793 C81 1.919 . S
C819 C395 2.134 . S
C813 C48 1.952 . S
C833 C15 1.895 . S
C839 C155 2.101 . S
C859 C240 2.117 1_565 S
C853 C26 1.895 . S
C879 C323 2.126 . S
C873 C37 1.931 . S
C893 C4 1.943 . S
C899 C407 2.133 . S
