# Generated by pormake.
# Topology anh, (6,3)-cn, num edge types: 1
# Building blocks:
#     Node 0, Type 0, BuildingBlock: CUWYAW_clean_sbu_0, # of connection points: 6
#     Node 1, Type 0, BuildingBlock: CUWYAW_clean_sbu_0, # of connection points: 6
#     Node 2, Type 0, BuildingBlock: CUWYAW_clean_sbu_0, # of connection points: 6
#     Node 3, Type 1, BuildingBlock: VETTIZ_charged_linker_0, # of connection points: 3
#     Node 4, Type 1, BuildingBlock: VETTIZ_charged_linker_0, # of connection points: 3
#     Node 5, Type 1, BuildingBlock: VETTIZ_charged_linker_0, # of connection points: 3
#     Node 6, Type 1, BuildingBlock: VETTIZ_charged_linker_0, # of connection points: 3
#     Node 7, Type 1, BuildingBlock: VETTIZ_charged_linker_0, # of connection points: 3
#     Node 8, Type 1, BuildingBlock: VETTIZ_charged_linker_0, # of connection points: 3
#     Edge 9, Type (0, 1), BuildingBlock: OJICUG_clean_linker_0, # of connection points: 2
#     Edge 10, Type (0, 1), BuildingBlock: OJICUG_clean_linker_0, # of connection points: 2
#     Edge 11, Type (0, 1), BuildingBlock: OJICUG_clean_linker_0, # of connection points: 2
#     Edge 12, Type (0, 1), BuildingBlock: OJICUG_clean_linker_0, # of connection points: 2
#     Edge 13, Type (0, 1), BuildingBlock: OJICUG_clean_linker_0, # of connection points: 2
#     Edge 14, Type (0, 1), BuildingBlock: OJICUG_clean_linker_0, # of connection points: 2
#     Edge 15, Type (0, 1), BuildingBlock: OJICUG_clean_linker_0, # of connection points: 2
#     Edge 16, Type (0, 1), BuildingBlock: OJICUG_clean_linker_0, # of connection points: 2
#     Edge 17, Type (0, 1), BuildingBlock: OJICUG_clean_linker_0, # of connection points: 2
#     Edge 18, Type (0, 1), BuildingBlock: OJICUG_clean_linker_0, # of connection points: 2
#     Edge 19, Type (0, 1), BuildingBlock: OJICUG_clean_linker_0, # of connection points: 2
#     Edge 20, Type (0, 1), BuildingBlock: OJICUG_clean_linker_0, # of connection points: 2
#     Edge 21, Type (0, 1), BuildingBlock: OJICUG_clean_linker_0, # of connection points: 2
#     Edge 22, Type (0, 1), BuildingBlock: OJICUG_clean_linker_0, # of connection points: 2
#     Edge 23, Type (0, 1), BuildingBlock: OJICUG_clean_linker_0, # of connection points: 2
#     Edge 24, Type (0, 1), BuildingBlock: OJICUG_clean_linker_0, # of connection points: 2
#     Edge 25, Type (0, 1), BuildingBlock: OJICUG_clean_linker_0, # of connection points: 2
#     Edge 26, Type (0, 1), BuildingBlock: OJICUG_clean_linker_0, # of connection points: 2
# Relax obj value: 0.312
# Max RMSD: 0.196
# Mean RMSD: 0.167
data_MOF--net-anh--node1-CUWYAW_clean_sbu_0--node2-VETTIZ_charged_linker_0--edge1-OJICUG_clean_linker_0
_symmetry_space_group_name_H-M    P1
_symmetry_Int_Tables_number       1
_symmetry_cell_setting            triclinic
loop_
_symmetry_equiv_pos_as_xyz
'x, y, z'
_cell_length_a     27.702575
_cell_length_b     27.749282
_cell_length_c     52.434743
_cell_angle_alpha  89.981609
_cell_angle_beta   90.198023
_cell_angle_gamma 119.96198
loop_
_atom_site_label
_atom_site_type_symbol
_atom_site_fract_x
_atom_site_fract_y
_atom_site_fract_z
_atom_type_partial_charge
C0 C 1.07261 0.40029 0.15177 0.0
Eu1 Eu 0.14626 0.50328 0.15912 0.0
C2 C 1.01363 0.37791 0.15896 0.0
C3 C 1.00065 0.38083 0.18463 0.0
C4 C 0.95368 0.38429 0.19081 0.0
C5 C 0.91813 0.3836 0.17156 0.0
C6 C 0.92648 0.37272 0.14632 0.0
C7 C 0.97421 0.37014 0.14001 0.0
C8 C 0.17023 0.54832 0.20667 0.0
C9 C 1.06831 0.56416 0.15763 0.0
C10 C 0.25785 0.73108 0.16749 0.0
Eu11 Eu 0.20166 0.62541 0.15854 0.0
C12 C 0.2898 0.79139 0.17237 0.0
C13 C 0.29533 0.82929 0.15323 0.0
C14 C 0.31879 0.88587 0.15886 0.0
C15 C 0.33716 0.90549 0.18372 0.0
C16 C 0.33325 0.86763 0.20259 0.0
C17 C 0.30989 0.81121 0.19696 0.0
C18 C 0.17062 0.57669 0.11215 0.0
C19 C 0.27998 0.56457 0.15549 0.0
O20 O 1.08967 0.43706 0.13342 0.0
O21 O 1.10853 0.41625 0.17061 0.0
O22 O 0.17449 0.50585 0.19965 0.0
O23 O 0.15165 0.56446 0.18849 0.0
O24 O 1.07243 0.51933 0.15285 0.0
O25 O 1.11357 0.61108 0.16412 0.0
O26 O 0.24999 0.69405 0.18495 0.0
O27 O 0.23727 0.71068 0.145 0.0
O28 O 0.16566 0.6189 0.11896 0.0
O29 O 0.19359 0.56403 0.12955 0.0
O30 O 0.2776 0.61077 0.15993 0.0
O31 O 0.23328 0.5165 0.15197 0.0
H32 H 1.02948 0.38616 0.19984 0.0
H33 H 0.94692 0.3909 0.21054 0.0
H34 H 0.89895 0.37124 0.13123 0.0
H35 H 0.98307 0.36781 0.12008 0.0
H36 H 0.28001 0.81507 0.13409 0.0
H37 H 0.32193 0.9141 0.14385 0.0
H38 H 0.34629 0.8812 0.22203 0.0
H39 H 0.30574 0.7829 0.21214 0.0
C40 C 0.55732 0.21131 0.49604 0.0
Eu41 Eu 0.59496 0.14285 0.49625 0.0
C42 C 0.59393 0.27174 0.50019 0.0
C43 C 0.61229 0.29114 0.52511 0.0
C44 C 0.66475 0.33737 0.52909 0.0
C45 C 0.6988 0.36578 0.50826 0.0
C46 C 0.67632 0.3527 0.48355 0.0
C47 C 0.62406 0.30579 0.4795 0.0
C48 C 0.62551 0.11309 0.54022 0.0
C49 C 0.73286 0.2268 0.49142 0.0
C50 C 0.72131 1.04336 0.48748 0.0
Eu51 Eu 0.66492 0.09495 0.48737 0.0
C52 C 0.72969 0.99568 0.48333 0.0
C53 C 0.77072 1.00181 0.46589 0.0
C54 C 0.79351 0.96705 0.46721 0.0
C55 C 0.77544 0.92564 0.48596 0.0
C56 C 0.72975 0.9152 0.50133 0.0
C57 C 0.70714 0.95026 0.50012 0.0
C58 C 0.63733 0.13126 0.44478 0.0
C59 C 0.5265 1.01027 0.48877 0.0
O60 O 0.56666 0.1919 0.47503 0.0
O61 O 0.55166 0.17975 0.51565 0.0
O62 O 0.57547 0.10292 0.53517 0.0
O63 O 0.65737 0.13784 0.52165 0.0
O64 O 0.6824 0.22076 0.48818 0.0
O65 O 0.73666 0.18209 0.49603 0.0
O66 O 0.69213 1.04361 0.50705 0.0
O67 O 0.71881 1.07085 0.46777 0.0
O68 O 0.68712 0.1404 0.44943 0.0
O69 O 0.60492 0.10298 0.46238 0.0
O70 O 0.57697 1.01509 0.4895 0.0
O71 O 0.52206 1.05564 0.48906 0.0
H72 H 0.58936 0.26696 0.54154 0.0
H73 H 0.68031 0.34841 0.54844 0.0
H74 H 0.7012 0.37514 0.46719 0.0
H75 H 0.61051 0.29269 0.46005 0.0
H76 H 0.78884 1.03663 0.4528 0.0
H77 H 0.82843 0.97553 0.45505 0.0
H78 H 0.71523 0.88361 0.51602 0.0
H79 H 0.67546 0.94457 0.51377 0.0
C80 C 0.89646 0.71801 0.8191 0.0
Eu81 Eu 0.79354 0.68975 0.82622 0.0
C82 C 0.91641 0.67806 0.82336 0.0
C83 C 0.92081 0.66293 0.84851 0.0
C84 C 0.91232 0.61003 0.85367 0.0
C85 C 0.90076 0.5719 0.83379 0.0
C86 C 0.90578 0.59016 0.80847 0.0
C87 C 0.91349 0.64298 0.80326 0.0
C88 C 0.74857 0.66989 0.87372 0.0
C89 C 0.73233 0.55166 0.82484 0.0
C90 C 0.56578 0.57699 0.83385 0.0
Eu91 Eu 0.67216 0.62382 0.82567 0.0
C92 C 0.5139 0.57704 0.82765 0.0
C93 C 0.48331 0.54999 0.80557 0.0
C94 C 0.42723 0.53479 0.80353 0.0
C95 C 0.40097 0.54629 0.82353 0.0
C96 C 0.43335 0.57918 0.84411 0.0
C97 C 0.48931 0.59415 0.84621 0.0
C98 C 0.71948 0.64335 0.77885 0.0
C99 C 0.733 0.76289 0.82263 0.0
O100 O 0.86118 0.70537 0.80022 0.0
O101 O 0.87994 0.73296 0.83945 0.0
O102 O 0.79061 0.71666 0.86646 0.0
O103 O 0.73266 0.63454 0.85586 0.0
O104 O 0.77583 0.59992 0.81807 0.0
O105 O 0.68748 0.55136 0.83356 0.0
O106 O 0.60292 0.61659 0.84845 0.0
O107 O 0.58779 0.56139 0.81596 0.0
O108 O 0.67677 0.59644 0.78532 0.0
O109 O 0.73275 0.67785 0.79667 0.0
O110 O 0.68683 0.71433 0.82712 0.0
O111 O 0.78101 0.76403 0.81905 0.0
H112 H 0.92451 0.68935 0.86447 0.0
H113 H 0.91108 0.59763 0.87337 0.0
H114 H 0.89844 0.56192 0.79277 0.0
H115 H 0.91081 0.6537 0.78364 0.0
H116 H 0.50117 0.53646 0.79081 0.0
H117 H 0.4033 0.51 0.78734 0.0
H118 H 0.41425 0.5884 0.85995 0.0
H119 H 0.51182 0.61487 0.86344 0.0
C120 C 0.69518 0.39734 0.20524 0.0
C121 C 0.75088 0.4226 0.21354 0.0
C122 C 0.76272 0.43794 0.23949 0.0
C123 C 0.66458 0.38633 0.24911 0.0
C124 C 0.65257 0.37745 0.22343 0.0
C125 C 0.59142 0.33918 0.2185 0.0
H126 H 0.39794 0.09936 0.25778 0.0
C127 C 0.61316 0.35177 0.2635 0.0
C128 C 0.56932 0.32443 0.24579 0.0
H129 H 0.42155 0.17053 0.18259 0.0
H130 H 0.4732 0.26389 0.20113 0.0
H131 H 0.52572 0.1743 0.28011 0.0
H132 H 0.37405 0.16176 0.29001 0.0
H133 H 0.41216 0.23247 0.30081 0.0
H134 H 0.41453 0.17703 0.31796 0.0
H135 H 0.45825 0.12227 0.29156 0.0
H136 H 0.50424 0.17631 0.31214 0.0
C137 C 0.58356 0.28801 0.20274 0.0
C138 C 0.56861 0.37308 0.20487 0.0
C139 C 0.6268 0.28763 0.35275 0.0
C140 C 0.58499 0.25184 0.36998 0.0
C141 C 0.52965 0.24022 0.36567 0.0
C142 C 0.51528 0.25668 0.34295 0.0
C143 C 0.55618 0.28339 0.32443 0.0
C144 C 0.61126 0.30398 0.33032 0.0
C145 C 0.64855 0.34174 0.30956 0.0
C146 C 0.60523 0.33514 0.28949 0.0
C147 C 0.55165 0.29691 0.29799 0.0
C148 C 0.68587 0.31844 0.30024 0.0
C149 C 0.68184 0.40192 0.32021 0.0
C150 C 0.41457 0.13526 0.24536 0.0
C151 C 0.40869 0.12813 0.21881 0.0
C152 C 0.42746 0.17518 0.20306 0.0
C153 C 0.45867 0.22871 0.21356 0.0
C154 C 0.47285 0.23424 0.23954 0.0
C155 C 0.44697 0.18877 0.25539 0.0
C156 C 0.46486 0.20322 0.28273 0.0
C157 C 0.50937 0.26468 0.28006 0.0
C158 C 0.5166 0.28086 0.25426 0.0
C159 C 0.48979 0.16722 0.29214 0.0
C160 C 0.41401 0.19356 0.29878 0.0
H161 H 0.73073 0.43153 0.27679 0.0
H162 H 0.68481 0.38782 0.18525 0.0
H163 H 0.58414 0.41421 0.21425 0.0
H164 H 0.52267 0.35217 0.20553 0.0
H165 H 0.58215 0.38058 0.18462 0.0
H166 H 0.62264 0.29406 0.19404 0.0
H167 H 0.55466 0.27876 0.18644 0.0
H168 H 0.56855 0.25034 0.2148 0.0
H169 H 0.67012 0.30019 0.35576 0.0
H170 H 0.49719 0.21721 0.37947 0.0
H171 H 0.47346 0.24871 0.34011 0.0
H172 H 0.65988 0.27409 0.29449 0.0
H173 H 0.71481 0.32097 0.31557 0.0
H174 H 0.71173 0.34097 0.28373 0.0
H175 H 0.66707 0.40601 0.33936 0.0
H176 H 0.67724 0.43191 0.30787 0.0
H177 H 0.72686 0.41577 0.3222 0.0
H178 H 0.80502 0.45842 0.2467 0.0
C179 C 0.71959 0.42103 0.25719 0.0
C180 C 0.91735 0.80504 0.52763 0.0
C181 C 0.90495 0.84586 0.53543 0.0
C182 C 0.91587 0.8654 0.56073 0.0
C183 C 0.94138 0.79626 0.57116 0.0
C184 C 0.93641 0.78133 0.54579 0.0
C185 C 0.94924 0.73548 0.54124 0.0
H186 H 0.88794 0.49509 0.57682 0.0
C187 C 0.95155 0.75723 0.586 0.0
C188 C 0.95983 0.72356 0.5686 0.0
H189 H 0.95811 0.5769 0.5052 0.0
H190 H 1.00398 0.66654 0.5272 0.0
H191 H 1.00173 0.58676 0.61203 0.0
H192 H 0.83924 0.56251 0.59531 0.0
H193 H 0.8525 0.57178 0.62848 0.0
H194 H 0.85343 0.51537 0.61305 0.0
H195 H 0.94372 0.54566 0.63242 0.0
H196 H 0.98716 0.61982 0.63707 0.0
C197 C 1.0015 0.75779 0.52399 0.0
C198 C 0.89675 0.68574 0.52925 0.0
C199 C 0.87581 0.71842 0.67615 0.0
C200 C 0.86174 0.67379 0.69291 0.0
C201 C 0.87874 0.63493 0.68699 0.0
C202 C 0.90621 0.63864 0.66405 0.0
C203 C 0.91513 0.68046 0.64648 0.0
C204 C 0.90203 0.7207 0.65304 0.0
C205 C 0.91761 0.76391 0.63255 0.0
C206 C 0.93933 0.74082 0.61195 0.0
C207 C 0.93704 0.69155 0.62024 0.0
C208 C 0.96486 0.81974 0.64316 0.0
C209 C 0.86471 0.76617 0.62416 0.0
C210 C 0.91421 0.53203 0.56583 0.0
C211 C 0.91668 0.52947 0.53903 0.0
C212 C 0.95359 0.57813 0.52565 0.0
C213 C 0.97811 0.62977 0.53798 0.0
C214 C 0.96255 0.63181 0.56312 0.0
C215 C 0.93722 0.5842 0.57759 0.0
C216 C 0.92798 0.5963 0.60464 0.0
C217 C 0.94591 0.65788 0.60264 0.0
C218 C 0.96269 0.67689 0.57764 0.0
C219 C 0.96678 0.58642 0.62258 0.0
C220 C 0.86512 0.55969 0.61087 0.0
H221 H 0.94186 0.8567 0.59774 0.0
H222 H 0.91064 0.79086 0.50801 0.0
H223 H 0.8601 0.67209 0.54194 0.0
H224 H 0.90171 0.64938 0.52568 0.0
H225 H 0.88674 0.69722 0.51048 0.0
H226 H 1.01611 0.80079 0.51708 0.0
H227 H 0.99291 0.73182 0.50661 0.0
H228 H 1.03728 0.7594 0.5344 0.0
H229 H 0.86408 0.74945 0.68026 0.0
H230 H 0.86996 0.6011 0.69993 0.0
H231 H 0.91741 0.60752 0.66028 0.0
H232 H 0.99543 0.81328 0.65429 0.0
H233 H 0.94782 0.83943 0.656 0.0
H234 H 0.98924 0.84934 0.62789 0.0
H235 H 0.8282 0.74112 0.6366 0.0
H236 H 0.85077 0.74918 0.60466 0.0
H237 H 0.87157 0.8091 0.62485 0.0
H238 H 0.90742 0.89774 0.56688 0.0
C239 C 0.93456 0.84097 0.57865 0.0
C240 C 1.13241 0.39512 0.85755 0.0
C241 C 0.18774 0.41364 0.86455 0.0
C242 C 0.20027 0.40406 0.8894 0.0
C243 C 1.10415 0.36705 0.90125 0.0
C244 C 1.09091 0.37098 0.87622 0.0
C245 C 1.02993 0.35112 0.8728 0.0
H246 H 0.84376 0.39311 0.90871 0.0
C247 C 1.05471 0.35072 0.91703 0.0
C248 C 1.00968 0.33694 0.90045 0.0
H249 H 0.8491 0.31068 0.8396 0.0
H250 H 0.90045 0.2733 0.86291 0.0
H251 H 0.82995 0.28469 0.94658 0.0
H252 H 0.9604 0.44859 0.92686 0.0
H253 H 0.95818 0.43801 0.9603 0.0
H254 H 0.89851 0.43202 0.94466 0.0
H255 H 0.84608 0.34324 0.96652 0.0
H256 H 0.88079 0.30329 0.97067 0.0
C257 C 1.0041 0.29998 0.85474 0.0
C258 C 1.0241 0.40013 0.86222 0.0
C259 C 1.09261 0.42741 0.00725 0.0
C260 C 1.06053 0.43776 0.02475 0.0
C261 C 1.00377 0.41788 0.01928 0.0
C262 C 0.98009 0.39014 -0.00372 0.0
C263 C 1.0139 0.38388 0.97823 0.0
C264 C 1.06871 0.40098 0.98411 0.0
C265 C 1.09781 0.389 0.96298 0.0
C266 C 1.05134 0.363 0.94308 0.0
C267 C 1.00262 0.36086 0.95214 0.0
C268 C 1.11352 0.34617 0.97298 0.0
C269 C 0.14887 0.44476 0.95405 0.0
C270 C 0.8547 0.36616 0.89845 0.0
C271 C 0.84707 0.35913 0.87176 0.0
C272 C 0.85834 0.32032 0.85966 0.0
C273 C 0.88961 0.30076 0.87248 0.0
C274 C 0.90998 0.32188 0.89678 0.0
C275 C 0.88679 0.34697 0.91074 0.0
C276 C 0.91042 0.36029 0.93748 0.0
C277 C 0.95709 0.34636 0.93533 0.0
C278 C 0.95848 0.32792 0.91057 0.0
C279 C 0.8646 0.32122 0.95639 0.0
C280 C 0.93312 0.42298 0.94275 0.0
H281 H 0.16957 0.37325 0.92641 0.0
H282 H 1.1222 0.40099 0.83826 0.0
H283 H 1.04418 0.41343 0.84326 0.0
H284 H 1.04396 0.43643 0.87537 0.0
H285 H 0.98031 0.38919 0.85954 0.0
H286 H 1.03619 0.29599 0.84375 0.0
H287 H 0.9767 0.30314 0.84015 0.0
H288 H 0.97989 0.2606 0.86555 0.0
H289 H 1.13624 0.44185 0.01095 0.0
H290 H 0.97784 0.42425 0.03271 0.0
H291 H 0.93691 0.37628 0.99292 0.0
H292 H 1.07917 0.31355 0.98459 0.0
H293 H 0.1514 0.36675 0.9852 0.0
H294 H 1.12058 0.32364 0.95739 0.0
H295 H 0.15873 0.48004 0.96711 0.0
H296 H 1.14152 0.45788 0.93511 0.0
H297 H 0.18751 0.44218 0.95325 0.0
H298 H 0.24285 0.41702 0.89479 0.0
C299 C 0.15837 0.38002 0.90775 0.0
C300 C 0.98761 0.47753 0.47674 0.0
C301 C 0.94159 0.43152 0.46393 0.0
C302 C 0.94559 0.42792 0.43737 0.0
C303 C 1.03643 0.51245 0.43613 0.0
C304 C 1.03484 0.51803 0.46227 0.0
C305 C 1.08801 0.5715 0.47104 0.0
H306 H 0.34222 0.80036 0.43231 0.0
C307 C 1.08876 0.55976 0.42575 0.0
C308 C 1.12023 0.59597 0.4459 0.0
H309 H 0.28057 0.77224 0.50928 0.0
H310 H 0.19611 0.68596 0.49555 0.0
H311 H 0.30574 0.67522 0.41787 0.0
H312 H 0.23209 0.77826 0.40855 0.0
H313 H 0.21179 0.736 0.38132 0.0
H314 H 0.28497 0.78295 0.38741 0.0
H315 H 0.33149 0.73264 0.39609 0.0
H316 H 0.27875 0.66363 0.38674 0.0
C317 C 1.12147 0.55594 0.48937 0.0
C318 C 1.07152 0.61128 0.48353 0.0
C319 C 1.12321 0.5608 0.33002 0.0
C320 C 0.16549 0.59877 0.31377 0.0
C321 C 0.20911 0.64812 0.32426 0.0
C322 C 0.21139 0.65886 0.35053 0.0
C323 C 0.16911 0.62027 0.36669 0.0
C324 C 1.12556 0.57274 0.35621 0.0
C325 C 1.08306 0.53777 0.37593 0.0
C326 C 1.10879 0.57142 0.40019 0.0
C327 C 0.15943 0.61927 0.39469 0.0
C328 C 1.08031 0.48053 0.3768 0.0
C329 C 1.02737 0.53535 0.36878 0.0
C330 C 0.31115 0.77582 0.44646 0.0
C331 C 0.31936 0.79354 0.47196 0.0
C332 C 0.2761 0.7601 0.48941 0.0
C333 C 0.227 0.71007 0.48146 0.0
C334 C 0.21971 0.69346 0.45555 0.0
C335 C 0.26195 0.7274 0.43879 0.0
C336 C 0.24837 0.70784 0.41184 0.0
C337 C 0.19199 0.65582 0.41464 0.0
C338 C 0.17364 0.6456 0.44033 0.0
C339 C 0.29338 0.69437 0.40239 0.0
C340 C 0.24441 0.75348 0.39629 0.0
H341 H 0.99055 0.46017 0.40361 0.0
H342 H 0.98637 0.48228 0.49718 0.0
H343 H 1.04039 0.61513 0.47157 0.0
H344 H 1.10771 0.65352 0.48587 0.0
H345 H 1.05328 0.59567 0.50263 0.0
H346 H 1.13123 0.52572 0.48016 0.0
H347 H 1.09729 0.53656 0.50698 0.0
H348 H 0.16137 0.59292 0.49491 0.0
H349 H 1.08878 0.52274 0.32246 0.0
H350 H 0.24234 0.6778 0.31216 0.0
H351 H 0.2465 0.69668 0.35722 0.0
H352 H 1.12226 0.4854 0.37376 0.0
H353 H 1.05225 0.45227 0.3617 0.0
H354 H 1.0669 0.45966 0.39548 0.0
H355 H 1.03449 0.57191 0.35718 0.0
H356 H 1.00446 0.53707 0.3857 0.0
H357 H 0.99983 0.49747 0.3575 0.0
H358 H 0.91232 0.39372 0.42689 0.0
C359 C 0.99178 0.46715 0.4237 0.0
C360 C 0.72602 1.01267 0.81086 0.0
C361 C 0.71989 0.96375 0.79843 0.0
C362 C 0.70884 0.95835 0.77214 0.0
C363 C 0.71186 1.04764 0.77031 0.0
C364 C 0.72148 1.0543 0.79629 0.0
C365 C 0.72454 0.10896 0.80501 0.0
H366 H 0.73039 0.35317 0.76424 0.0
C367 C 0.71118 0.09715 0.75974 0.0
C368 C 0.71883 0.13465 0.77976 0.0
H369 H 0.72999 0.30869 0.84301 0.0
H370 H 0.72708 0.22196 0.82959 0.0
H371 H 0.81349 0.31595 0.74395 0.0
H372 H 0.63531 0.23728 0.74758 0.0
H373 H 0.65024 0.21989 0.71768 0.0
H374 H 0.67629 0.29195 0.72549 0.0
H375 H 0.77402 0.33286 0.72224 0.0
H376 H 0.78905 0.27782 0.71555 0.0
C377 C 0.78091 0.14682 0.81804 0.0
C378 C 0.67527 0.09455 0.8229 0.0
C379 C 0.68464 0.10216 0.66351 0.0
C380 C 0.68775 0.14338 0.64686 0.0
C381 C 0.70107 0.19561 0.65699 0.0
C382 C 0.70954 0.20615 0.68329 0.0
C383 C 0.70529 0.16423 0.69987 0.0
C384 C 0.69438 0.11383 0.68975 0.0
C385 C 0.69534 1.07571 0.70988 0.0
C386 C 0.7064 0.1106 0.73398 0.0
C387 C 0.71127 0.16197 0.72805 0.0
C388 C 0.74427 1.06537 0.70361 0.0
C389 C 0.63688 1.02267 0.71039 0.0
C390 C 0.73031 0.32565 0.7789 0.0
C391 C 0.73129 0.33947 0.80477 0.0
C392 C 0.72935 0.30011 0.82284 0.0
C393 C 0.72754 0.24958 0.81506 0.0
C394 C 0.72624 0.23678 0.78884 0.0
C395 C 0.72722 0.27525 0.77156 0.0
C396 C 0.72273 0.25628 0.74456 0.0
C397 C 0.71826 0.19997 0.74785 0.0
C398 C 0.7212 0.18727 0.77384 0.0
C399 C 0.77727 0.29783 0.73064 0.0
C400 C 0.66872 0.25131 0.73297 0.0
H401 H 0.69626 0.99102 0.73836 0.0
H402 H 0.73388 1.01815 0.83118 0.0
H403 H 0.6353 1.06435 0.81358 0.0
H404 H 0.67244 0.1317 0.82789 0.0
H405 H 0.67947 1.07557 0.84083 0.0
H406 H 0.81573 0.15457 0.80508 0.0
H407 H 0.78514 0.12718 0.83575 0.0
H408 H 0.78544 0.18758 0.82317 0.0
H409 H 0.6753 1.06186 0.65623 0.0
H410 H 0.70349 0.22795 0.64456 0.0
H411 H 0.71841 0.24648 0.68968 0.0
H412 H 0.77679 0.09948 0.69186 0.0
H413 H 0.72957 1.02603 0.6928 0.0
H414 H 0.76699 1.06457 0.72086 0.0
H415 H 0.6036 1.03315 0.7067 0.0
H416 H 0.62633 1.00182 0.72916 0.0
H417 H 0.63316 0.99241 0.69556 0.0
H418 H 0.70357 0.9219 0.76207 0.0
C419 C 0.70482 0.99921 0.75826 0.0
C420 C 0.815 0.56358 0.14387 0.0
C421 C 0.86278 0.56731 0.1313 0.0
C422 C 0.86742 0.57702 0.10492 0.0
C423 C 0.7801 0.57815 0.1033 0.0
C424 C 0.77371 0.56896 0.1293 0.0
C425 C 0.71872 0.56534 0.1379 0.0
H426 H 0.48816 0.58905 0.09919 0.0
C427 C 0.73174 0.58137 0.09283 0.0
C428 C 0.69446 0.57418 0.11279 0.0
H429 H 0.51597 0.55181 0.17569 0.0
H430 H 0.60238 0.55432 0.16186 0.0
H431 H 0.61465 0.67885 0.08483 0.0
H432 H 0.51127 0.50245 0.07463 0.0
H433 H 0.55435 0.52532 0.04775 0.0
H434 H 0.50683 0.55093 0.05353 0.0
H435 H 0.55538 0.64732 0.06386 0.0
H436 H 0.62355 0.66347 0.05327 0.0
C437 C 0.73183 0.61195 0.15725 0.0
C438 C 0.68031 0.50729 0.14918 0.0
C439 C 0.73114 0.61538 -0.00274 0.0
C440 C 0.69283 0.61856 0.98067 0.0
C441 C 0.64267 0.61151 0.99078 0.0
C442 C 0.6315 0.60279 0.01704 0.0
C443 C 0.6705 0.60017 0.03352 0.0
C444 C 0.71884 0.60558 0.02336 0.0
C445 C 0.75445 0.59933 0.04327 0.0
C446 C 0.72004 0.58998 0.06729 0.0
C447 C 0.67133 0.59122 0.06155 0.0
C448 C 0.81079 0.65493 0.04444 0.0
C449 C 0.7589 0.54729 0.03617 0.0
C450 C 0.51282 0.58199 0.11319 0.0
C451 C 0.49504 0.5712 0.13862 0.0
C452 C 0.52841 0.56069 0.15592 0.0
C453 C 0.57861 0.56223 0.14792 0.0
C454 C 0.59563 0.57332 0.12215 0.0
C455 C 0.5616 0.58203 0.10546 0.0
C456 C 0.58142 0.58911 0.07853 0.0
C457 C 0.634 0.58555 0.08137 0.0
C458 C 0.64409 0.57664 0.10704 0.0
C459 C 0.59421 0.64748 0.06939 0.0
C460 C 0.53627 0.53985 0.06261 0.0
H461 H 0.835 0.58994 0.07116 0.0
H462 H 0.80961 0.55585 0.16418 0.0
H463 H 0.67458 0.4744 0.13538 0.0
H464 H 0.6386 0.50103 0.1536 0.0
H465 H 0.69847 0.50124 0.167 0.0
H466 H 0.76196 0.65311 0.14904 0.0
H467 H 0.75043 0.60581 0.1749 0.0
H468 H 0.69395 0.61328 0.16257 0.0
H469 H 0.76982 0.62 0.99002 0.0
H470 H 0.61265 0.61412 0.97841 0.0
H471 H 0.59307 0.59903 0.02349 0.0
H472 H 0.80505 0.69099 0.04003 0.0
H473 H 0.84096 0.65526 0.03045 0.0
H474 H 0.82996 0.66421 0.06365 0.0
H475 H 0.72172 0.51636 0.02524 0.0
H476 H 0.75996 0.52397 0.05308 0.0
H477 H 0.79608 0.55869 0.02421 0.0
H478 H 0.90297 0.58048 0.09469 0.0
C479 C 0.82728 0.58253 0.09113 0.0
C480 C 0.34111 0.51903 0.15604 0.0
C481 C 0.3361 0.56707 0.15314 0.0
H482 H 0.39436 0.48274 0.15469 0.0
C483 C 0.38526 0.61709 0.14713 0.0
H484 H 0.30472 0.4796 0.16067 0.0
C485 C 0.43662 0.61856 0.14326 0.0
C486 C 0.44153 0.57052 0.14603 0.0
H487 H 0.38377 0.65504 0.14456 0.0
H488 H 0.47267 0.65747 0.1377 0.0
C489 C 0.39288 0.52085 0.15281 0.0
C490 C 0.78586 0.32458 0.47227 0.0
C491 C 0.7858 0.28313 0.48782 0.0
H492 H 0.8335 0.4036 0.45351 0.0
C493 C 0.83796 0.29491 0.49816 0.0
H494 H 0.74754 0.3172 0.4633 0.0
C495 C 0.88806 0.34528 0.49255 0.0
C496 C 0.88817 0.3858 0.47621 0.0
H497 H 0.84038 0.26434 0.51009 0.0
H498 H 0.9272 0.35096 0.49983 0.0
C499 C 0.83569 0.37456 0.46661 0.0
C500 C 0.77873 0.86846 0.81575 0.0
C501 C 0.73028 0.8164 0.82002 0.0
H502 H 0.81384 0.95548 0.80652 0.0
C503 C 0.67912 0.81616 0.82061 0.0
H504 H 0.81908 0.87121 0.81503 0.0
C505 C 0.67634 0.86513 0.81595 0.0
C506 C 0.72461 0.91676 0.81096 0.0
H507 H 0.64063 0.7775 0.8237 0.0
H508 H 0.63581 0.86199 0.81498 0.0
C509 C 0.7759 0.91744 0.81122 0.0
C510 C 1.00236 0.60391 0.16361 0.0
C511 C 1.01247 0.5619 0.15424 0.0
H512 H 0.947 0.6379 0.16473 0.0
C513 C 0.969 0.51849 0.14019 0.0
H514 H 1.03445 0.63836 0.1744 0.0
C515 C 0.91858 0.51789 0.13499 0.0
C516 C 0.90893 0.56056 0.14364 0.0
H517 H 0.97482 0.48587 0.13215 0.0
H518 H 0.88788 0.48507 0.12296 0.0
C519 C 0.95156 0.60324 0.15841 0.0
C520 C 0.4209 0.94509 0.49345 0.0
C521 C 0.47386 0.95334 0.48647 0.0
H522 H 0.33186 0.88911 0.49533 0.0
C523 C 0.47518 0.90687 0.47636 0.0
H524 H 0.41749 0.97932 0.50134 0.0
C525 C 0.42564 0.85521 0.47247 0.0
C526 C 0.37265 0.8471 0.47921 0.0
H527 H 0.51451 0.91085 0.4706 0.0
H528 H 0.42874 0.82146 0.46379 0.0
C529 C 0.37145 0.89291 0.49018 0.0
C530 C 0.76701 0.49348 0.80208 0.0
C531 C 0.73323 0.49752 0.82104 0.0
H532 H 0.79401 0.443 0.78261 0.0
C533 C 0.69987 0.44891 0.83548 0.0
H534 H 0.79261 0.52908 0.79017 0.0
C535 C 0.70061 0.39858 0.83112 0.0
C536 C 0.73389 0.39446 0.81179 0.0
H537 H 0.67305 0.44972 0.85024 0.0
H538 H 0.67382 0.36238 0.84247 0.0
C539 C 0.76729 0.44335 0.79754 0.0
C540 C 0.86762 0.93926 0.49904 0.0
C541 C 0.81115 0.90247 0.49339 0.0
H542 H 0.94179 0.94984 0.51719 0.0
C543 C 0.78805 0.84567 0.49884 0.0
H544 H 0.88618 0.98342 0.4954 0.0
C545 C 0.82025 0.82653 0.51097 0.0
C546 C 0.87541 0.86418 0.5182 0.0
H547 H 0.74456 0.8167 0.49478 0.0
H548 H 0.80108 0.78301 0.51614 0.0
C549 C 0.89936 0.92032 0.51162 0.0
C550 C 0.90011 0.48193 0.82789 0.0
C551 C 0.87879 0.51249 0.8398 0.0
H552 H 0.9057 0.40816 0.82836 0.0
C553 C 0.8368 0.48636 0.85822 0.0
H554 H 0.9318 0.50081 0.81332 0.0
C555 C 0.8204 0.43254 0.86639 0.0
C556 C 0.8466 0.40427 0.85671 0.0
H557 H 0.81789 0.5083 0.86692 0.0
H558 H 0.79006 0.41466 0.88156 0.0
C559 C 0.88428 0.42832 0.8363 0.0
C560 C 0.40328 0.99163 0.2075 0.0
C561 C 0.35835 0.96464 0.19048 0.0
H562 H 0.45401 1.06442 0.22964 0.0
C563 C 0.33193 0.99347 0.18134 0.0
H564 H 0.42544 0.97122 0.21439 0.0
C565 C 0.34881 1.04743 0.18994 0.0
C566 C 0.39181 1.07283 0.20799 0.0
H567 H 0.29697 0.97365 0.16829 0.0
H568 H 0.32717 1.06847 0.18321 0.0
C569 C 0.41963 1.04496 0.21623 0.0
C570 C 0.78948 0.39016 0.52892 0.0
C571 C 0.75876 0.4048 0.5124 0.0
H572 H 0.86598 0.4176 0.54922 0.0
C573 C 0.78549 0.45674 0.50039 0.0
H574 H 0.77038 0.3493 0.53758 0.0
C575 C 0.84026 0.49563 0.50691 0.0
C576 C 0.86921 0.48307 0.5255 0.0
H577 H 0.76298 0.46862 0.48727 0.0
H578 H 0.85777 0.53713 0.49909 0.0
C579 C 0.84439 0.42884 0.53527 0.0
C580 C 0.31246 0.45566 0.82361 0.0
C581 C 0.3397 0.51391 0.82628 0.0
H582 H 0.24168 0.37757 0.83399 0.0
C583 C 0.3107 0.53842 0.837 0.0
H584 H 0.33392 0.43547 0.81571 0.0
C585 C 0.25786 0.50504 0.84738 0.0
C586 C 0.23363 0.44698 0.84709 0.0
H587 H 0.33066 0.58316 0.83917 0.0
H588 H 0.23797 0.52451 0.85746 0.0
C589 C 0.25986 0.42238 0.83416 0.0
C590 C 0.89112 0.44794 0.19167 0.0
C591 C 0.87568 0.39887 0.17792 0.0
H592 H 0.86386 0.49654 0.21213 0.0
C593 C 0.81957 0.36338 0.17184 0.0
H594 H 0.93453 0.47673 0.19597 0.0
C595 C 0.7789 0.37392 0.1816 0.0
C596 C 0.79383 0.42075 0.19725 0.0
H597 H 0.80688 0.32556 0.16109 0.0
H598 H 0.73571 0.34281 0.17847 0.0
C599 C 0.85066 0.45927 0.20088 0.0
C600 C 0.15317 0.49849 0.08301 0.0
C601 C 0.14293 0.54152 0.08974 0.0
H602 H 1.13433 0.43118 0.05741 0.0
C603 C 1.10444 0.54933 0.07548 0.0
H604 H 0.18244 0.49143 0.09384 0.0
C605 C 1.07668 0.51473 0.05475 0.0
C606 C 1.08719 0.4719 0.04781 0.0
H607 H 1.09552 0.582 0.0804 0.0
H608 H 1.04788 0.52229 0.04381 0.0
C609 C 1.12565 0.46406 0.0622 0.0
C610 C 0.57019 0.13947 0.41614 0.0
C611 C 0.62416 0.16256 0.42611 0.0
H612 H 0.51598 0.14826 0.39013 0.0
C613 C 0.66464 0.21654 0.41896 0.0
H614 H 0.53826 0.09796 0.42158 0.0
C615 C 0.65141 0.24683 0.40179 0.0
C616 C 0.5978 0.22306 0.39081 0.0
H617 H 0.70629 0.23569 0.42696 0.0
H618 H 0.68346 0.28873 0.39712 0.0
C619 C 0.55734 0.16895 0.39841 0.0
C620 C 0.74659 0.60553 0.74188 0.0
C621 C 0.75495 0.65129 0.7566 0.0
H622 H 0.77397 0.5768 0.71025 0.0
C623 C 0.7992 0.7044 0.75065 0.0
H624 H 0.71294 0.56407 0.74619 0.0
C625 C 0.83462 0.71167 0.7303 0.0
C626 C 0.82639 0.66592 0.71549 0.0
H627 H 0.80665 0.74032 0.76183 0.0
H628 H 0.86863 0.75307 0.72625 0.0
C629 C 0.78203 0.61275 0.72155 0.0
C630 C 0.69764 0.15932 0.57467 0.0
C631 C 0.64489 0.11643 0.5669 0.0
H632 H 0.75223 0.202 0.60623 0.0
C633 C 0.60826 1.08002 0.58542 0.0
H634 H 0.72656 0.1883 0.56085 0.0
C635 C 0.62339 1.08716 0.61127 0.0
C636 C 0.67492 0.13176 0.6192 0.0
H637 H 0.5673 1.04673 0.57996 0.0
H638 H 0.59376 1.05932 0.62519 0.0
C639 C 0.7122 0.16735 0.60062 0.0
C640 C 0.76964 0.69065 0.92013 0.0
C641 C 0.73315 0.65625 0.90092 0.0
H642 H 0.78578 0.70508 0.96025 0.0
C643 C 0.6828 0.60916 0.90808 0.0
H644 H 0.80881 0.72718 0.91526 0.0
C645 C 0.66911 0.59713 0.93398 0.0
C646 C 0.70619 0.63119 0.95315 0.0
H647 H 0.65387 0.58199 0.89368 0.0
H648 H 0.62998 0.56076 0.93905 0.0
C649 C 0.75662 0.67792 0.94591 0.0
C650 C 0.16427 0.52422 0.25295 0.0
C651 C 0.16892 0.56206 0.23392 0.0
H652 H 0.1584 0.50578 0.29293 0.0
C653 C 0.17166 0.61206 0.2413 0.0
H654 H 0.16182 0.48521 0.24791 0.0
C655 C 0.17076 0.62428 0.26725 0.0
C656 C 0.16556 0.58604 0.2862 0.0
H657 H 0.17512 0.64191 0.22707 0.0
H658 H 0.17357 0.66335 0.27251 0.0
C659 C 0.16195 0.53577 0.27874 0.0
loop_
_geom_bond_atom_site_label_1
_geom_bond_atom_site_label_2
_geom_bond_distance
_geom_bond_site_symmetry_2
_ccdc_geom_bond_type
C0 Eu1 2.835 . S
C0 C2 1.500 . S
C0 O20 1.257 . S
C0 O21 1.260 . S
Eu1 C0 2.835 . S
Eu1 O20 2.473 . S
Eu1 O21 2.480 . S
Eu1 O22 2.430 1_655 S
Eu1 O23 2.670 1_655 S
Eu1 O24 2.394 . S
Eu1 O29 2.355 1_655 S
Eu1 O31 2.374 1_655 S
C2 C0 1.500 . S
C2 C3 1.377 . S
C2 C7 1.377 . S
C3 C2 1.377 . S
C3 C4 1.395 . S
C3 H32 0.931 . S
C4 C3 1.395 . S
C4 C5 1.383 . S
C4 H33 0.931 . S
C5 C4 1.383 . S
C5 C6 1.394 . S
C6 C5 1.394 . S
C6 C7 1.378 . S
C6 H34 0.931 . S
C7 C2 1.377 . S
C7 C6 1.378 . S
C7 H35 0.931 . S
C8 O22 1.259 . S
C8 O23 1.270 . S
C9 O24 1.251 . S
C9 O25 1.251 . S
C10 Eu11 2.835 . S
C10 C12 1.500 . S
C10 O26 1.257 . S
C10 O27 1.260 . S
Eu11 C10 2.835 . S
Eu11 O23 2.355 . S
Eu11 O25 2.374 1_455 S
Eu11 O26 2.473 . S
Eu11 O27 2.480 . S
Eu11 O28 2.430 . S
Eu11 O29 2.670 . S
Eu11 O30 2.394 . S
C12 C10 1.500 . S
C12 C13 1.377 . S
C12 C17 1.377 . S
C13 C12 1.377 . S
C13 C14 1.395 . S
C13 H36 0.931 . S
C14 C13 1.395 . S
C14 C15 1.383 . S
C14 H37 0.931 . S
C15 C14 1.383 . S
C15 C16 1.394 . S
C16 C15 1.394 . S
C16 C17 1.378 . S
C16 H38 0.931 . S
C17 C12 1.377 . S
C17 C16 1.378 . S
C17 H39 0.931 . S
C18 O28 1.259 . S
C18 O29 1.270 . S
C19 O30 1.251 . S
C19 O31 1.251 . S
O20 C0 1.257 . S
O20 Eu1 2.473 . S
O21 C0 1.260 . S
O21 Eu1 2.480 . S
O22 Eu1 2.430 1_455 S
O22 C8 1.259 . S
O23 Eu1 2.670 1_455 S
O23 C8 1.270 . S
O23 Eu11 2.355 . S
O24 Eu1 2.394 . S
O24 C9 1.251 . S
O25 C9 1.251 . S
O25 Eu11 2.374 1_655 S
O26 C10 1.257 . S
O26 Eu11 2.473 . S
O27 C10 1.260 . S
O27 Eu11 2.480 . S
O28 Eu11 2.430 . S
O28 C18 1.259 . S
O29 Eu1 2.355 1_455 S
O29 Eu11 2.670 . S
O29 C18 1.270 . S
O30 Eu11 2.394 . S
O30 C19 1.251 . S
O31 Eu1 2.374 1_455 S
O31 C19 1.251 . S
H32 C3 0.931 . S
H33 C4 0.931 . S
H34 C6 0.931 . S
H35 C7 0.931 . S
H36 C13 0.931 . S
H37 C14 0.931 . S
H38 C16 0.931 . S
H39 C17 0.931 . S
C40 Eu41 2.835 . S
C40 C42 1.500 . S
C40 O60 1.257 . S
C40 O61 1.260 . S
Eu41 C40 2.835 . S
Eu41 O60 2.473 . S
Eu41 O61 2.480 . S
Eu41 O62 2.430 . S
Eu41 O63 2.670 . S
Eu41 O64 2.394 . S
Eu41 O69 2.355 . S
Eu41 O71 2.374 1_545 S
C42 C40 1.500 . S
C42 C43 1.377 . S
C42 C47 1.377 . S
C43 C42 1.377 . S
C43 C44 1.395 . S
C43 H72 0.931 . S
C44 C43 1.395 . S
C44 C45 1.383 . S
C44 H73 0.931 . S
C45 C44 1.383 . S
C45 C46 1.394 . S
C46 C45 1.394 . S
C46 C47 1.378 . S
C46 H74 0.931 . S
C47 C42 1.377 . S
C47 C46 1.378 . S
C47 H75 0.931 . S
C48 O62 1.259 . S
C48 O63 1.270 . S
C49 O64 1.251 . S
C49 O65 1.251 . S
C50 Eu51 2.835 . S
C50 C52 1.500 . S
C50 O66 1.257 . S
C50 O67 1.260 . S
Eu51 C50 2.835 . S
Eu51 O63 2.355 1_565 S
Eu51 O65 2.374 1_565 S
Eu51 O66 2.473 . S
Eu51 O67 2.480 . S
Eu51 O68 2.430 1_565 S
Eu51 O69 2.670 1_565 S
Eu51 O70 2.394 . S
C52 C50 1.500 . S
C52 C53 1.377 . S
C52 C57 1.377 . S
C53 C52 1.377 . S
C53 C54 1.395 . S
C53 H76 0.931 . S
C54 C53 1.395 . S
C54 C55 1.383 . S
C54 H77 0.931 . S
C55 C54 1.383 . S
C55 C56 1.394 . S
C56 C55 1.394 . S
C56 C57 1.378 . S
C56 H78 0.931 . S
C57 C52 1.377 . S
C57 C56 1.378 . S
C57 H79 0.931 . S
C58 O68 1.259 . S
C58 O69 1.270 . S
C59 O70 1.251 . S
C59 O71 1.251 . S
O60 C40 1.257 . S
O60 Eu41 2.473 . S
O61 C40 1.260 . S
O61 Eu41 2.480 . S
O62 Eu41 2.430 . S
O62 C48 1.259 . S
O63 Eu41 2.670 . S
O63 C48 1.270 . S
O63 Eu51 2.355 1_545 S
O64 Eu41 2.394 . S
O64 C49 1.251 . S
O65 C49 1.251 . S
O65 Eu51 2.374 1_545 S
O66 C50 1.257 . S
O66 Eu51 2.473 . S
O67 C50 1.260 . S
O67 Eu51 2.480 . S
O68 Eu51 2.430 1_545 S
O68 C58 1.259 . S
O69 Eu41 2.355 . S
O69 Eu51 2.670 1_545 S
O69 C58 1.270 . S
O70 Eu51 2.394 . S
O70 C59 1.251 . S
O71 Eu41 2.374 1_565 S
O71 C59 1.251 . S
H72 C43 0.931 . S
H73 C44 0.931 . S
H74 C46 0.931 . S
H75 C47 0.931 . S
H76 C53 0.931 . S
H77 C54 0.931 . S
H78 C56 0.931 . S
H79 C57 0.931 . S
C80 Eu81 2.835 . S
C80 C82 1.500 . S
C80 O100 1.257 . S
C80 O101 1.260 . S
Eu81 C80 2.835 . S
Eu81 O100 2.473 . S
Eu81 O101 2.480 . S
Eu81 O102 2.430 . S
Eu81 O103 2.670 . S
Eu81 O104 2.394 . S
Eu81 O109 2.355 . S
Eu81 O111 2.374 . S
C82 C80 1.500 . S
C82 C83 1.377 . S
C82 C87 1.377 . S
C83 C82 1.377 . S
C83 C84 1.395 . S
C83 H112 0.931 . S
C84 C83 1.395 . S
C84 C85 1.383 . S
C84 H113 0.931 . S
C85 C84 1.383 . S
C85 C86 1.394 . S
C86 C85 1.394 . S
C86 C87 1.378 . S
C86 H114 0.931 . S
C87 C82 1.377 . S
C87 C86 1.378 . S
C87 H115 0.931 . S
C88 O102 1.259 . S
C88 O103 1.270 . S
C89 O104 1.251 . S
C89 O105 1.251 . S
C90 Eu91 2.835 . S
C90 C92 1.500 . S
C90 O106 1.257 . S
C90 O107 1.260 . S
Eu91 C90 2.835 . S
Eu91 O103 2.355 . S
Eu91 O105 2.374 . S
Eu91 O106 2.473 . S
Eu91 O107 2.480 . S
Eu91 O108 2.430 . S
Eu91 O109 2.670 . S
Eu91 O110 2.394 . S
C92 C90 1.500 . S
C92 C93 1.377 . S
C92 C97 1.377 . S
C93 C92 1.377 . S
C93 C94 1.395 . S
C93 H116 0.931 . S
C94 C93 1.395 . S
C94 C95 1.383 . S
C94 H117 0.931 . S
C95 C94 1.383 . S
C95 C96 1.394 . S
C96 C95 1.394 . S
C96 C97 1.378 . S
C96 H118 0.931 . S
C97 C92 1.377 . S
C97 C96 1.378 . S
C97 H119 0.931 . S
C98 O108 1.259 . S
C98 O109 1.270 . S
C99 O110 1.251 . S
C99 O111 1.251 . S
O100 C80 1.257 . S
O100 Eu81 2.473 . S
O101 C80 1.260 . S
O101 Eu81 2.480 . S
O102 Eu81 2.430 . S
O102 C88 1.259 . S
O103 Eu81 2.670 . S
O103 C88 1.270 . S
O103 Eu91 2.355 . S
O104 Eu81 2.394 . S
O104 C89 1.251 . S
O105 C89 1.251 . S
O105 Eu91 2.374 . S
O106 C90 1.257 . S
O106 Eu91 2.473 . S
O107 C90 1.260 . S
O107 Eu91 2.480 . S
O108 Eu91 2.430 . S
O108 C98 1.259 . S
O109 Eu81 2.355 . S
O109 Eu91 2.670 . S
O109 C98 1.270 . S
O110 Eu91 2.394 . S
O110 C99 1.251 . S
O111 Eu81 2.374 . S
O111 C99 1.251 . S
H112 C83 0.931 . S
H113 C84 0.931 . S
H114 C86 0.931 . S
H115 C87 0.931 . S
H116 C93 0.931 . S
H117 C94 0.931 . S
H118 C96 0.931 . S
H119 C97 0.931 . S
C120 C121 1.391 . S
C120 C124 1.391 . S
C120 H162 0.948 . S
C121 C120 1.391 . S
C121 C122 1.391 . S
C122 C121 1.391 . S
C122 H178 0.947 . S
C122 C179 1.392 . S
C123 C124 1.391 . S
C123 C127 1.397 . S
C123 C179 1.419 . S
C124 C120 1.391 . S
C124 C123 1.391 . S
C124 C125 1.399 . S
C125 C124 1.399 . S
C125 C128 1.396 . S
C125 C137 1.453 . S
C125 C138 1.684 . S
H126 C150 0.948 . S
C127 C123 1.397 . S
C127 C128 1.394 . S
C127 C146 1.723 . S
C128 C125 1.396 . S
C128 C127 1.394 . S
C128 C158 1.723 . S
H129 C152 0.947 . S
H130 C153 0.948 1_545 S
H131 C159 0.982 . S
H132 C160 0.979 . S
H133 C160 0.980 . S
H134 C160 0.983 . S
H135 C159 0.979 . S
H136 C159 0.977 . S
C137 C125 1.453 . S
C137 H166 0.982 . S
C137 H167 0.979 . S
C137 H168 0.977 . S
C138 C125 1.684 . S
C138 H163 0.979 . S
C138 H164 0.980 . S
C138 H165 0.983 . S
C139 C140 1.391 . S
C139 C144 1.391 . S
C139 H169 0.948 . S
C140 C139 1.391 . S
C140 C141 1.391 . S
C141 C140 1.391 . S
C141 C142 1.392 . S
C141 H170 0.947 1_545 S
C142 C141 1.392 . S
C142 C143 1.419 . S
C142 H171 0.948 1_545 S
C143 C142 1.419 . S
C143 C144 1.391 . S
C143 C147 1.397 . S
C144 C139 1.391 . S
C144 C143 1.391 . S
C144 C145 1.399 . S
C145 C144 1.399 . S
C145 C146 1.396 . S
C145 C148 1.453 . S
C145 C149 1.684 . S
C146 C127 1.723 . S
C146 C145 1.396 . S
C146 C147 1.394 . S
C147 C143 1.397 . S
C147 C146 1.394 . S
C147 C157 1.723 . S
C148 C145 1.453 . S
C148 H172 0.982 . S
C148 H173 0.979 . S
C148 H174 0.977 . S
C149 C145 1.684 . S
C149 H175 0.979 . S
C149 H176 0.980 . S
C149 H177 0.983 . S
C150 H126 0.948 . S
C150 C151 1.391 . S
C150 C155 1.391 . S
C151 C150 1.391 . S
C151 C152 1.391 . S
C152 H129 0.947 . S
C152 C151 1.391 . S
C152 C153 1.392 . S
C153 H130 0.948 1_565 S
C153 C152 1.392 . S
C153 C154 1.419 . S
C154 C153 1.419 . S
C154 C155 1.391 . S
C154 C158 1.397 1_565 S
C155 C150 1.391 . S
C155 C154 1.391 . S
C155 C156 1.399 . S
C156 C155 1.399 . S
C156 C157 1.396 1_565 S
C156 C159 1.453 . S
C156 C160 1.684 . S
C157 C147 1.723 . S
C157 C156 1.396 1_545 S
C157 C158 1.394 . S
C158 C128 1.723 . S
C158 C154 1.397 1_545 S
C158 C157 1.394 . S
C159 H131 0.982 . S
C159 H135 0.979 . S
C159 H136 0.977 . S
C159 C156 1.453 . S
C160 H132 0.979 . S
C160 H133 0.980 . S
C160 H134 0.983 . S
C160 C156 1.684 . S
H161 C179 0.948 . S
H162 C120 0.948 . S
H163 C138 0.979 . S
H164 C138 0.980 . S
H165 C138 0.983 . S
H166 C137 0.982 . S
H167 C137 0.979 . S
H168 C137 0.977 . S
H169 C139 0.948 . S
H170 C141 0.947 1_565 S
H171 C142 0.948 1_565 S
H172 C148 0.982 . S
H173 C148 0.979 . S
H174 C148 0.977 . S
H175 C149 0.979 . S
H176 C149 0.980 . S
H177 C149 0.983 . S
H178 C122 0.947 . S
C179 C122 1.392 . S
C179 C123 1.419 . S
C179 H161 0.948 . S
C180 C181 1.391 . S
C180 C184 1.391 . S
C180 H222 0.948 . S
C181 C180 1.391 . S
C181 C182 1.391 . S
C182 C181 1.391 . S
C182 H238 0.947 . S
C182 C239 1.392 . S
C183 C184 1.391 . S
C183 C187 1.397 . S
C183 C239 1.419 . S
C184 C180 1.391 . S
C184 C183 1.391 . S
C184 C185 1.399 . S
C185 C184 1.399 . S
C185 C188 1.396 . S
C185 C197 1.453 . S
C185 C198 1.684 . S
H186 C210 0.948 . S
C187 C183 1.397 . S
C187 C188 1.394 . S
C187 C206 1.723 . S
C188 C185 1.396 . S
C188 C187 1.394 . S
C188 C218 1.723 . S
H189 C212 0.947 . S
H190 C213 0.948 . S
H191 C219 0.982 . S
H192 C220 0.979 . S
H193 C220 0.980 . S
H194 C220 0.983 . S
H195 C219 0.979 . S
H196 C219 0.977 . S
C197 C185 1.453 . S
C197 H226 0.982 . S
C197 H227 0.979 . S
C197 H228 0.977 . S
C198 C185 1.684 . S
C198 H223 0.979 . S
C198 H224 0.980 . S
C198 H225 0.983 . S
C199 C200 1.391 . S
C199 C204 1.391 . S
C199 H229 0.948 . S
C200 C199 1.391 . S
C200 C201 1.391 . S
C201 C200 1.391 . S
C201 C202 1.392 . S
C201 H230 0.947 . S
C202 C201 1.392 . S
C202 C203 1.419 . S
C202 H231 0.948 . S
C203 C202 1.419 . S
C203 C204 1.391 . S
C203 C207 1.397 . S
C204 C199 1.391 . S
C204 C203 1.391 . S
C204 C205 1.399 . S
C205 C204 1.399 . S
C205 C206 1.396 . S
C205 C208 1.453 . S
C205 C209 1.684 . S
C206 C187 1.723 . S
C206 C205 1.396 . S
C206 C207 1.394 . S
C207 C203 1.397 . S
C207 C206 1.394 . S
C207 C217 1.723 . S
C208 C205 1.453 . S
C208 H232 0.982 . S
C208 H233 0.979 . S
C208 H234 0.977 . S
C209 C205 1.684 . S
C209 H235 0.979 . S
C209 H236 0.980 . S
C209 H237 0.983 . S
C210 H186 0.948 . S
C210 C211 1.391 . S
C210 C215 1.391 . S
C211 C210 1.391 . S
C211 C212 1.391 . S
C212 H189 0.947 . S
C212 C211 1.391 . S
C212 C213 1.392 . S
C213 H190 0.948 . S
C213 C212 1.392 . S
C213 C214 1.419 . S
C214 C213 1.419 . S
C214 C215 1.391 . S
C214 C218 1.397 . S
C215 C210 1.391 . S
C215 C214 1.391 . S
C215 C216 1.399 . S
C216 C215 1.399 . S
C216 C217 1.396 . S
C216 C219 1.453 . S
C216 C220 1.684 . S
C217 C207 1.723 . S
C217 C216 1.396 . S
C217 C218 1.394 . S
C218 C188 1.723 . S
C218 C214 1.397 . S
C218 C217 1.394 . S
C219 H191 0.982 . S
C219 H195 0.979 . S
C219 H196 0.977 . S
C219 C216 1.453 . S
C220 H192 0.979 . S
C220 H193 0.980 . S
C220 H194 0.983 . S
C220 C216 1.684 . S
H221 C239 0.948 . S
H222 C180 0.948 . S
H223 C198 0.979 . S
H224 C198 0.980 . S
H225 C198 0.983 . S
H226 C197 0.982 . S
H227 C197 0.979 . S
H228 C197 0.977 . S
H229 C199 0.948 . S
H230 C201 0.947 . S
H231 C202 0.948 . S
H232 C208 0.982 . S
H233 C208 0.979 . S
H234 C208 0.977 . S
H235 C209 0.979 . S
H236 C209 0.980 . S
H237 C209 0.983 . S
H238 C182 0.947 . S
C239 C182 1.392 . S
C239 C183 1.419 . S
C239 H221 0.948 . S
C240 C241 1.391 . S
C240 C244 1.391 . S
C240 H282 0.948 . S
C241 C240 1.391 . S
C241 C242 1.391 . S
C242 C241 1.391 . S
C242 H298 0.947 . S
C242 C299 1.392 . S
C243 C244 1.391 . S
C243 C247 1.397 . S
C243 C299 1.419 . S
C244 C240 1.391 . S
C244 C243 1.391 . S
C244 C245 1.399 . S
C245 C244 1.399 . S
C245 C248 1.396 . S
C245 C257 1.453 . S
C245 C258 1.684 . S
H246 C270 0.948 . S
C247 C243 1.397 . S
C247 C248 1.394 . S
C247 C266 1.723 . S
C248 C245 1.396 . S
C248 C247 1.394 . S
C248 C278 1.723 1_455 S
H249 C272 0.947 . S
H250 C273 0.948 . S
H251 C279 0.982 . S
H252 C280 0.979 . S
H253 C280 0.980 . S
H254 C280 0.983 . S
H255 C279 0.979 . S
H256 C279 0.977 . S
C257 C245 1.453 . S
C257 H286 0.982 1_455 S
C257 H287 0.979 . S
C257 H288 0.977 1_455 S
C258 C245 1.684 . S
C258 H283 0.979 . S
C258 H284 0.980 . S
C258 H285 0.983 . S
C259 C260 1.391 . S
C259 C264 1.391 1_554 S
C259 H289 0.948 . S
C260 C259 1.391 . S
C260 C261 1.391 1_455 S
C261 C260 1.391 1_655 S
C261 C262 1.392 1_554 S
C261 H290 0.947 . S
C262 C261 1.392 1_556 S
C262 C263 1.419 . S
C262 H291 0.948 . S
C263 C262 1.419 . S
C263 C264 1.391 1_655 S
C263 C267 1.397 . S
C264 C259 1.391 1_556 S
C264 C263 1.391 1_455 S
C264 C265 1.399 . S
C265 C264 1.399 . S
C265 C266 1.396 . S
C265 C268 1.453 . S
C265 C269 1.684 . S
C266 C247 1.723 . S
C266 C265 1.396 . S
C266 C267 1.394 1_455 S
C267 C263 1.397 . S
C267 C266 1.394 1_655 S
C267 C277 1.723 . S
C268 C265 1.453 . S
C268 H292 0.982 . S
C268 H293 0.979 . S
C268 H294 0.977 . S
C269 C265 1.684 . S
C269 H295 0.979 . S
C269 H296 0.980 . S
C269 H297 0.983 . S
C270 H246 0.948 . S
C270 C271 1.391 . S
C270 C275 1.391 . S
C271 C270 1.391 . S
C271 C272 1.391 . S
C272 H249 0.947 . S
C272 C271 1.391 . S
C272 C273 1.392 . S
C273 H250 0.948 . S
C273 C272 1.392 . S
C273 C274 1.419 . S
C274 C273 1.419 . S
C274 C275 1.391 . S
C274 C278 1.397 . S
C275 C270 1.391 . S
C275 C274 1.391 . S
C275 C276 1.399 . S
C276 C275 1.399 . S
C276 C277 1.396 . S
C276 C279 1.453 . S
C276 C280 1.684 . S
C277 C267 1.723 . S
C277 C276 1.396 . S
C277 C278 1.394 . S
C278 C248 1.723 1_655 S
C278 C274 1.397 . S
C278 C277 1.394 . S
C279 H251 0.982 . S
C279 H255 0.979 . S
C279 H256 0.977 . S
C279 C276 1.453 . S
C280 H252 0.979 . S
C280 H253 0.980 . S
C280 H254 0.983 . S
C280 C276 1.684 . S
H281 C299 0.948 . S
H282 C240 0.948 . S
H283 C258 0.979 . S
H284 C258 0.980 . S
H285 C258 0.983 . S
H286 C257 0.982 1_655 S
H287 C257 0.979 . S
H288 C257 0.977 1_655 S
H289 C259 0.948 . S
H290 C261 0.947 . S
H291 C262 0.948 . S
H292 C268 0.982 . S
H293 C268 0.979 . S
H294 C268 0.977 . S
H295 C269 0.979 . S
H296 C269 0.980 . S
H297 C269 0.983 . S
H298 C242 0.947 . S
C299 C242 1.392 . S
C299 C243 1.419 . S
C299 H281 0.948 . S
C300 C301 1.391 . S
C300 C304 1.391 . S
C300 H342 0.948 . S
C301 C300 1.391 . S
C301 C302 1.391 . S
C302 C301 1.391 . S
C302 H358 0.947 . S
C302 C359 1.392 . S
C303 C304 1.391 . S
C303 C307 1.397 1_655 S
C303 C359 1.419 . S
C304 C300 1.391 . S
C304 C303 1.391 . S
C304 C305 1.399 1_655 S
C305 C304 1.399 1_455 S
C305 C308 1.396 . S
C305 C317 1.453 . S
C305 C318 1.684 . S
H306 C330 0.948 . S
C307 C303 1.397 1_455 S
C307 C308 1.394 . S
C307 C326 1.723 . S
C308 C305 1.396 . S
C308 C307 1.394 . S
C308 C338 1.723 . S
H309 C332 0.947 . S
H310 C333 0.948 . S
H311 C339 0.982 . S
H312 C340 0.979 . S
H313 C340 0.980 . S
H314 C340 0.983 . S
H315 C339 0.979 . S
H316 C339 0.977 . S
C317 C305 1.453 . S
C317 H346 0.982 . S
C317 H347 0.979 . S
C317 H348 0.977 . S
C318 C305 1.684 . S
C318 H343 0.979 1_455 S
C318 H344 0.980 . S
C318 H345 0.983 . S
C319 C320 1.391 . S
C319 C324 1.391 . S
C319 H349 0.948 1_455 S
C320 C319 1.391 . S
C320 C321 1.391 . S
C321 C320 1.391 . S
C321 C322 1.392 . S
C321 H350 0.947 . S
C322 C321 1.392 . S
C322 C323 1.419 . S
C322 H351 0.948 . S
C323 C322 1.419 . S
C323 C324 1.391 . S
C323 C327 1.397 . S
C324 C319 1.391 . S
C324 C323 1.391 . S
C324 C325 1.399 1_455 S
C325 C324 1.399 1_655 S
C325 C326 1.396 1_655 S
C325 C328 1.453 . S
C325 C329 1.684 . S
C326 C307 1.723 . S
C326 C325 1.396 1_455 S
C326 C327 1.394 . S
C327 C323 1.397 . S
C327 C326 1.394 . S
C327 C337 1.723 . S
C328 C325 1.453 . S
C328 H352 0.982 1_655 S
C328 H353 0.979 . S
C328 H354 0.977 . S
C329 C325 1.684 . S
C329 H355 0.979 . S
C329 H356 0.980 . S
C329 H357 0.983 . S
C330 H306 0.948 . S
C330 C331 1.391 . S
C330 C335 1.391 . S
C331 C330 1.391 . S
C331 C332 1.391 . S
C332 H309 0.947 . S
C332 C331 1.391 . S
C332 C333 1.392 . S
C333 H310 0.948 . S
C333 C332 1.392 . S
C333 C334 1.419 . S
C334 C333 1.419 . S
C334 C335 1.391 . S
C334 C338 1.397 . S
C335 C330 1.391 . S
C335 C334 1.391 . S
C335 C336 1.399 . S
C336 C335 1.399 . S
C336 C337 1.396 . S
C336 C339 1.453 . S
C336 C340 1.684 . S
C337 C327 1.723 . S
C337 C336 1.396 . S
C337 C338 1.394 . S
C338 C308 1.723 . S
C338 C334 1.397 . S
C338 C337 1.394 . S
C339 H311 0.982 . S
C339 H315 0.979 . S
C339 H316 0.977 . S
C339 C336 1.453 . S
C340 H312 0.979 . S
C340 H313 0.980 . S
C340 H314 0.983 . S
C340 C336 1.684 . S
H341 C359 0.948 . S
H342 C300 0.948 . S
H343 C318 0.979 1_655 S
H344 C318 0.980 . S
H345 C318 0.983 . S
H346 C317 0.982 . S
H347 C317 0.979 . S
H348 C317 0.977 . S
H349 C319 0.948 1_655 S
H350 C321 0.947 . S
H351 C322 0.948 . S
H352 C328 0.982 1_455 S
H353 C328 0.979 . S
H354 C328 0.977 . S
H355 C329 0.979 . S
H356 C329 0.980 . S
H357 C329 0.983 . S
H358 C302 0.947 . S
C359 C302 1.392 . S
C359 C303 1.419 . S
C359 H341 0.948 . S
C360 C361 1.391 . S
C360 C364 1.391 . S
C360 H402 0.948 . S
C361 C360 1.391 . S
C361 C362 1.391 . S
C362 C361 1.391 . S
C362 H418 0.947 . S
C362 C419 1.392 . S
C363 C364 1.391 . S
C363 C367 1.397 . S
C363 C419 1.419 . S
C364 C360 1.391 . S
C364 C363 1.391 . S
C364 C365 1.399 . S
C365 C364 1.399 . S
C365 C368 1.396 . S
C365 C377 1.453 . S
C365 C378 1.684 . S
H366 C390 0.948 . S
C367 C363 1.397 . S
C367 C368 1.394 . S
C367 C386 1.723 . S
C368 C365 1.396 . S
C368 C367 1.394 . S
C368 C398 1.723 1_565 S
H369 C392 0.947 . S
H370 C393 0.948 . S
H371 C399 0.982 . S
H372 C400 0.979 . S
H373 C400 0.980 . S
H374 C400 0.983 . S
H375 C399 0.979 . S
H376 C399 0.977 . S
C377 C365 1.453 . S
C377 H406 0.982 1_565 S
C377 H407 0.979 . S
C377 H408 0.977 1_565 S
C378 C365 1.684 . S
C378 H403 0.979 . S
C378 H404 0.980 . S
C378 H405 0.983 . S
C379 C380 1.391 1_565 S
C379 C384 1.391 . S
C379 H409 0.948 . S
C380 C379 1.391 1_545 S
C380 C381 1.391 . S
C381 C380 1.391 . S
C381 C382 1.392 . S
C381 H410 0.947 . S
C382 C381 1.392 . S
C382 C383 1.419 . S
C382 H411 0.948 . S
C383 C382 1.419 . S
C383 C384 1.391 1_545 S
C383 C387 1.397 . S
C384 C379 1.391 . S
C384 C383 1.391 1_565 S
C384 C385 1.399 . S
C385 C384 1.399 . S
C385 C386 1.396 . S
C385 C388 1.453 . S
C385 C389 1.684 . S
C386 C367 1.723 . S
C386 C385 1.396 . S
C386 C387 1.394 1_565 S
C387 C383 1.397 . S
C387 C386 1.394 1_545 S
C387 C397 1.723 . S
C388 C385 1.453 . S
C388 H412 0.982 . S
C388 H413 0.979 . S
C388 H414 0.977 . S
C389 C385 1.684 . S
C389 H415 0.979 . S
C389 H416 0.980 . S
C389 H417 0.983 . S
C390 H366 0.948 . S
C390 C391 1.391 . S
C390 C395 1.391 . S
C391 C390 1.391 . S
C391 C392 1.391 . S
C392 H369 0.947 . S
C392 C391 1.391 . S
C392 C393 1.392 . S
C393 H370 0.948 . S
C393 C392 1.392 . S
C393 C394 1.419 . S
C394 C393 1.419 . S
C394 C395 1.391 . S
C394 C398 1.397 . S
C395 C390 1.391 . S
C395 C394 1.391 . S
C395 C396 1.399 . S
C396 C395 1.399 . S
C396 C397 1.396 . S
C396 C399 1.453 . S
C396 C400 1.684 . S
C397 C387 1.723 . S
C397 C396 1.396 . S
C397 C398 1.394 . S
C398 C368 1.723 1_545 S
C398 C394 1.397 . S
C398 C397 1.394 . S
C399 H371 0.982 . S
C399 H375 0.979 . S
C399 H376 0.977 . S
C399 C396 1.453 . S
C400 H372 0.979 . S
C400 H373 0.980 . S
C400 H374 0.983 . S
C400 C396 1.684 . S
H401 C419 0.948 . S
H402 C360 0.948 . S
H403 C378 0.979 . S
H404 C378 0.980 . S
H405 C378 0.983 . S
H406 C377 0.982 1_545 S
H407 C377 0.979 . S
H408 C377 0.977 1_545 S
H409 C379 0.948 . S
H410 C381 0.947 . S
H411 C382 0.948 . S
H412 C388 0.982 . S
H413 C388 0.979 . S
H414 C388 0.977 . S
H415 C389 0.979 . S
H416 C389 0.980 . S
H417 C389 0.983 . S
H418 C362 0.947 . S
C419 C362 1.392 . S
C419 C363 1.419 . S
C419 H401 0.948 . S
C420 C421 1.391 . S
C420 C424 1.391 . S
C420 H462 0.948 . S
C421 C420 1.391 . S
C421 C422 1.391 . S
C422 C421 1.391 . S
C422 H478 0.947 . S
C422 C479 1.392 . S
C423 C424 1.391 . S
C423 C427 1.397 . S
C423 C479 1.419 . S
C424 C420 1.391 . S
C424 C423 1.391 . S
C424 C425 1.399 . S
C425 C424 1.399 . S
C425 C428 1.396 . S
C425 C437 1.453 . S
C425 C438 1.684 . S
H426 C450 0.948 . S
C427 C423 1.397 . S
C427 C428 1.394 . S
C427 C446 1.723 . S
C428 C425 1.396 . S
C428 C427 1.394 . S
C428 C458 1.723 . S
H429 C452 0.947 . S
H430 C453 0.948 . S
H431 C459 0.982 . S
H432 C460 0.979 . S
H433 C460 0.980 . S
H434 C460 0.983 . S
H435 C459 0.979 . S
H436 C459 0.977 . S
C437 C425 1.453 . S
C437 H466 0.982 . S
C437 H467 0.979 . S
C437 H468 0.977 . S
C438 C425 1.684 . S
C438 H463 0.979 . S
C438 H464 0.980 . S
C438 H465 0.983 . S
C439 C440 1.391 1_554 S
C439 C444 1.391 . S
C439 H469 0.948 . S
C440 C439 1.391 1_556 S
C440 C441 1.391 1_556 S
C441 C440 1.391 1_554 S
C441 C442 1.392 . S
C441 H470 0.927 1_554 S
C442 C441 1.392 . S
C442 C443 1.419 . S
C442 H471 0.948 . S
C443 C442 1.419 . S
C443 C444 1.391 . S
C443 C447 1.397 . S
C444 C439 1.391 . S
C444 C443 1.391 . S
C444 C445 1.399 . S
C445 C444 1.399 . S
C445 C446 1.396 . S
C445 C448 1.453 . S
C445 C449 1.684 . S
C446 C427 1.723 . S
C446 C445 1.396 . S
C446 C447 1.394 . S
C447 C443 1.397 . S
C447 C446 1.394 . S
C447 C457 1.723 . S
C448 C445 1.453 . S
C448 H472 0.982 . S
C448 H473 0.979 . S
C448 H474 0.977 . S
C449 C445 1.684 . S
C449 H475 0.979 . S
C449 H476 0.980 . S
C449 H477 0.983 . S
C450 H426 0.948 . S
C450 C451 1.391 . S
C450 C455 1.391 . S
C451 C450 1.391 . S
C451 C452 1.391 . S
C452 H429 0.947 . S
C452 C451 1.391 . S
C452 C453 1.392 . S
C453 H430 0.948 . S
C453 C452 1.392 . S
C453 C454 1.419 . S
C454 C453 1.419 . S
C454 C455 1.391 . S
C454 C458 1.397 . S
C455 C450 1.391 . S
C455 C454 1.391 . S
C455 C456 1.399 . S
C456 C455 1.399 . S
C456 C457 1.396 . S
C456 C459 1.453 . S
C456 C460 1.684 . S
C457 C447 1.723 . S
C457 C456 1.396 . S
C457 C458 1.394 . S
C458 C428 1.723 . S
C458 C454 1.397 . S
C458 C457 1.394 . S
C459 H431 0.982 . S
C459 H435 0.979 . S
C459 H436 0.977 . S
C459 C456 1.453 . S
C460 H432 0.979 . S
C460 H433 0.980 . S
C460 H434 0.983 . S
C460 C456 1.684 . S
H461 C479 0.948 . S
H462 C420 0.948 . S
H463 C438 0.979 . S
H464 C438 0.980 . S
H465 C438 0.983 . S
H466 C437 0.982 . S
H467 C437 0.979 . S
H468 C437 0.977 . S
H469 C439 0.948 . S
H470 C441 0.927 1_556 S
H471 C442 0.948 . S
H472 C448 0.982 . S
H473 C448 0.979 . S
H474 C448 0.977 . S
H475 C449 0.979 . S
H476 C449 0.980 . S
H477 C449 0.983 . S
H478 C422 0.947 . S
C479 C422 1.392 . S
C479 C423 1.419 . S
C479 H461 0.948 . S
C480 C481 1.387 . S
C480 H484 0.950 . S
C480 C489 1.390 . S
C481 C480 1.387 . S
C481 C483 1.387 . S
H482 C489 0.950 . S
C483 C481 1.387 . S
C483 C485 1.390 . S
C483 H487 0.950 . S
H484 C480 0.950 . S
C485 C483 1.390 . S
C485 C486 1.387 . S
C485 H488 0.950 . S
C486 C485 1.387 . S
C486 C489 1.387 . S
H487 C483 0.950 . S
H488 C485 0.950 . S
C489 C480 1.390 . S
C489 H482 0.950 . S
C489 C486 1.387 . S
C490 C491 1.387 . S
C490 H494 0.950 . S
C490 C499 1.390 . S
C491 C490 1.387 . S
C491 C493 1.387 . S
H492 C499 0.950 . S
C493 C491 1.387 . S
C493 C495 1.390 . S
C493 H497 0.950 . S
H494 C490 0.950 . S
C495 C493 1.390 . S
C495 C496 1.387 . S
C495 H498 0.950 . S
C496 C495 1.387 . S
C496 C499 1.387 . S
H497 C493 0.950 . S
H498 C495 0.950 . S
C499 C490 1.390 . S
C499 H492 0.950 . S
C499 C496 1.387 . S
C500 C501 1.387 . S
C500 H504 0.950 . S
C500 C509 1.390 . S
C501 C500 1.387 . S
C501 C503 1.387 . S
H502 C509 0.950 . S
C503 C501 1.387 . S
C503 C505 1.390 . S
C503 H507 0.950 . S
H504 C500 0.950 . S
C505 C503 1.390 . S
C505 C506 1.387 . S
C505 H508 0.950 . S
C506 C505 1.387 . S
C506 C509 1.387 . S
H507 C503 0.950 . S
H508 C505 0.950 . S
C509 C500 1.390 . S
C509 H502 0.950 . S
C509 C506 1.387 . S
C510 C511 1.387 . S
C510 H514 0.950 . S
C510 C519 1.390 . S
C511 C510 1.387 . S
C511 C513 1.387 . S
H512 C519 0.950 . S
C513 C511 1.387 . S
C513 C515 1.390 . S
C513 H517 0.950 . S
H514 C510 0.950 . S
C515 C513 1.390 . S
C515 C516 1.387 . S
C515 H518 0.950 . S
C516 C515 1.387 . S
C516 C519 1.387 . S
H517 C513 0.950 . S
H518 C515 0.950 . S
C519 C510 1.390 . S
C519 H512 0.950 . S
C519 C516 1.387 . S
C520 C521 1.387 . S
C520 H524 0.950 . S
C520 C529 1.390 . S
C521 C520 1.387 . S
C521 C523 1.387 . S
H522 C529 0.950 . S
C523 C521 1.387 . S
C523 C525 1.390 . S
C523 H527 0.950 . S
H524 C520 0.950 . S
C525 C523 1.390 . S
C525 C526 1.387 . S
C525 H528 0.950 . S
C526 C525 1.387 . S
C526 C529 1.387 . S
H527 C523 0.950 . S
H528 C525 0.950 . S
C529 C520 1.390 . S
C529 H522 0.950 . S
C529 C526 1.387 . S
C530 C531 1.387 . S
C530 H534 0.950 . S
C530 C539 1.390 . S
C531 C530 1.387 . S
C531 C533 1.387 . S
H532 C539 0.950 . S
C533 C531 1.387 . S
C533 C535 1.390 . S
C533 H537 0.950 . S
H534 C530 0.950 . S
C535 C533 1.390 . S
C535 C536 1.387 . S
C535 H538 0.950 . S
C536 C535 1.387 . S
C536 C539 1.387 . S
H537 C533 0.950 . S
H538 C535 0.950 . S
C539 C530 1.390 . S
C539 H532 0.950 . S
C539 C536 1.387 . S
C540 C541 1.387 . S
C540 H544 0.950 . S
C540 C549 1.390 . S
C541 C540 1.387 . S
C541 C543 1.387 . S
H542 C549 0.950 . S
C543 C541 1.387 . S
C543 C545 1.390 . S
C543 H547 0.950 . S
H544 C540 0.950 . S
C545 C543 1.390 . S
C545 C546 1.387 . S
C545 H548 0.950 . S
C546 C545 1.387 . S
C546 C549 1.387 . S
H547 C543 0.950 . S
H548 C545 0.950 . S
C549 C540 1.390 . S
C549 H542 0.950 . S
C549 C546 1.387 . S
C550 C551 1.387 . S
C550 H554 0.950 . S
C550 C559 1.390 . S
C551 C550 1.387 . S
C551 C553 1.387 . S
H552 C559 0.950 . S
C553 C551 1.387 . S
C553 C555 1.390 . S
C553 H557 0.950 . S
H554 C550 0.950 . S
C555 C553 1.390 . S
C555 C556 1.387 . S
C555 H558 0.950 . S
C556 C555 1.387 . S
C556 C559 1.387 . S
H557 C553 0.950 . S
H558 C555 0.950 . S
C559 C550 1.390 . S
C559 H552 0.950 . S
C559 C556 1.387 . S
C560 C561 1.387 . S
C560 H564 0.950 . S
C560 C569 1.390 . S
C561 C560 1.387 . S
C561 C563 1.387 . S
H562 C569 0.950 . S
C563 C561 1.387 . S
C563 C565 1.390 . S
C563 H567 0.950 . S
H564 C560 0.950 . S
C565 C563 1.390 . S
C565 C566 1.387 . S
C565 H568 0.950 . S
C566 C565 1.387 . S
C566 C569 1.387 . S
H567 C563 0.950 . S
H568 C565 0.950 . S
C569 C560 1.390 . S
C569 H562 0.950 . S
C569 C566 1.387 . S
C570 C571 1.387 . S
C570 H574 0.950 . S
C570 C579 1.390 . S
C571 C570 1.387 . S
C571 C573 1.387 . S
H572 C579 0.950 . S
C573 C571 1.387 . S
C573 C575 1.390 . S
C573 H577 0.950 . S
H574 C570 0.950 . S
C575 C573 1.390 . S
C575 C576 1.387 . S
C575 H578 0.950 . S
C576 C575 1.387 . S
C576 C579 1.387 . S
H577 C573 0.950 . S
H578 C575 0.950 . S
C579 C570 1.390 . S
C579 H572 0.950 . S
C579 C576 1.387 . S
C580 C581 1.387 . S
C580 H584 0.950 . S
C580 C589 1.390 . S
C581 C580 1.387 . S
C581 C583 1.387 . S
H582 C589 0.950 . S
C583 C581 1.387 . S
C583 C585 1.390 . S
C583 H587 0.950 . S
H584 C580 0.950 . S
C585 C583 1.390 . S
C585 C586 1.387 . S
C585 H588 0.950 . S
C586 C585 1.387 . S
C586 C589 1.387 . S
H587 C583 0.950 . S
H588 C585 0.950 . S
C589 C580 1.390 . S
C589 H582 0.950 . S
C589 C586 1.387 . S
C590 C591 1.387 . S
C590 H594 0.950 . S
C590 C599 1.390 . S
C591 C590 1.387 . S
C591 C593 1.387 . S
H592 C599 0.950 . S
C593 C591 1.387 . S
C593 C595 1.390 . S
C593 H597 0.950 . S
H594 C590 0.950 . S
C595 C593 1.390 . S
C595 C596 1.387 . S
C595 H598 0.950 . S
C596 C595 1.387 . S
C596 C599 1.387 . S
H597 C593 0.950 . S
H598 C595 0.950 . S
C599 C590 1.390 . S
C599 H592 0.950 . S
C599 C596 1.387 . S
C600 C601 1.387 . S
C600 H604 0.950 . S
C600 C609 1.390 . S
C601 C600 1.387 . S
C601 C603 1.387 1_455 S
H602 C609 0.950 . S
C603 C601 1.387 1_655 S
C603 C605 1.390 . S
C603 H607 0.950 . S
H604 C600 0.950 . S
C605 C603 1.390 . S
C605 C606 1.387 1_655 S
C605 H608 0.950 . S
C606 C605 1.387 1_455 S
C606 C609 1.387 . S
H607 C603 0.950 . S
H608 C605 0.950 . S
C609 C600 1.390 . S
C609 H602 0.950 . S
C609 C606 1.387 . S
C610 C611 1.383 1_565 S
C610 H614 0.956 . S
C610 C619 1.389 1_565 S
C611 C610 1.383 1_545 S
C611 C613 1.387 . S
H612 C619 0.950 1_565 S
C613 C611 1.387 . S
C613 C615 1.390 . S
C613 H617 0.950 . S
H614 C610 0.956 . S
C615 C613 1.390 . S
C615 C616 1.387 . S
C615 H618 0.950 . S
C616 C615 1.387 . S
C616 C619 1.387 . S
H617 C613 0.950 . S
H618 C615 0.950 . S
C619 C610 1.389 1_545 S
C619 H612 0.950 1_545 S
C619 C616 1.387 . S
C620 C621 1.387 . S
C620 H624 0.950 . S
C620 C629 1.390 . S
C621 C620 1.387 . S
C621 C623 1.387 . S
H622 C629 0.950 . S
C623 C621 1.387 . S
C623 C625 1.390 . S
C623 H627 0.950 . S
H624 C620 0.950 . S
C625 C623 1.390 . S
C625 C626 1.387 . S
C625 H628 0.950 . S
C626 C625 1.387 . S
C626 C629 1.387 . S
H627 C623 0.950 . S
H628 C625 0.950 . S
C629 C620 1.390 . S
C629 H622 0.950 . S
C629 C626 1.387 . S
C630 C631 1.387 . S
C630 H634 0.950 . S
C630 C639 1.390 . S
C631 C630 1.387 . S
C631 C633 1.387 1_545 S
H632 C639 0.950 . S
C633 C631 1.387 1_565 S
C633 C635 1.390 . S
C633 H637 0.950 . S
H634 C630 0.950 . S
C635 C633 1.390 . S
C635 C636 1.387 1_565 S
C635 H638 0.950 . S
C636 C635 1.387 1_545 S
C636 C639 1.387 . S
H637 C633 0.950 . S
H638 C635 0.950 . S
C639 C630 1.390 . S
C639 H632 0.950 . S
C639 C636 1.387 . S
C640 C641 1.387 . S
C640 H644 0.950 . S
C640 C649 1.390 . S
C641 C640 1.387 . S
C641 C643 1.387 . S
H642 C649 0.950 . S
C643 C641 1.387 . S
C643 C645 1.390 . S
C643 H647 0.950 . S
H644 C640 0.950 . S
C645 C643 1.390 . S
C645 C646 1.387 . S
C645 H648 0.950 . S
C646 C645 1.387 . S
C646 C649 1.387 . S
H647 C643 0.950 . S
H648 C645 0.950 . S
C649 C640 1.390 . S
C649 H642 0.950 . S
C649 C646 1.387 . S
C650 C651 1.387 . S
C650 H654 0.950 1_455 S
C650 C659 1.390 . S
C651 C650 1.387 . S
C651 C653 1.387 . S
H652 C659 0.950 1_655 S
C653 C651 1.387 . S
C653 C655 1.390 . S
C653 H657 0.950 . S
H654 C650 0.950 1_655 S
C655 C653 1.390 . S
C655 C656 1.387 . S
C655 H658 0.950 . S
C656 C655 1.387 . S
C656 C659 1.387 . S
H657 C653 0.950 . S
H658 C655 0.950 . S
C659 C650 1.390 . S
C659 H652 0.950 1_455 S
C659 C656 1.387 . S
C481 C19 3.096 . S
C486 C451 3.087 . S
C491 C49 3.162 . S
C496 C301 2.966 . S
C501 C99 3.095 . S
C506 C361 2.894 . S
C511 C9 3.162 . S
C516 C421 2.965 . S
C526 C331 3.087 . S
C521 C59 3.096 . S
C536 C391 3.154 . S
C531 C89 3.162 . S
C541 C55 0.644 . S
C546 C181 0.647 . S
C551 C85 0.681 . S
C556 C271 0.657 . S
C561 C15 0.644 . S
C566 C151 0.618 . S
C576 C211 0.647 . S
C571 C45 0.671 . S
C586 C241 0.653 . S
C581 C95 0.649 . S
C591 C5 0.675 . S
C596 C121 0.597 . S
C606 C260 1.007 . S
C601 C18 1.030 . S
C611 C58 1.030 . S
C616 C140 1.032 . S
C621 C98 1.032 . S
C626 C200 1.004 . S
C636 C380 1.794 . S
C631 C48 1.729 . S
C646 C440 1.790 . S
C641 C88 1.727 . S
C651 C8 1.728 . S
C656 C320 1.791 . S
