# Generated by pormake.
# Topology pyr, (3,6)-cn, num edge types: 1
# Building blocks:
#     Node 0, Type 0, BuildingBlock: VETTIZ_charged_linker_0, # of connection points: 3
#     Node 1, Type 0, BuildingBlock: VETTIZ_charged_linker_0, # of connection points: 3
#     Node 2, Type 0, BuildingBlock: VETTIZ_charged_linker_0, # of connection points: 3
#     Node 3, Type 0, BuildingBlock: VETTIZ_charged_linker_0, # of connection points: 3
#     Node 4, Type 0, BuildingBlock: VETTIZ_charged_linker_0, # of connection points: 3
#     Node 5, Type 0, BuildingBlock: VETTIZ_charged_linker_0, # of connection points: 3
#     Node 6, Type 0, BuildingBlock: VETTIZ_charged_linker_0, # of connection points: 3
#     Node 7, Type 0, BuildingBlock: VETTIZ_charged_linker_0, # of connection points: 3
#     Node 8, Type 1, BuildingBlock: PAMTOO_clean_sbu_0, # of connection points: 6
#     Node 9, Type 1, BuildingBlock: PAMTOO_clean_sbu_0, # of connection points: 6
#     Node 10, Type 1, BuildingBlock: PAMTOO_clean_sbu_0, # of connection points: 6
#     Node 11, Type 1, BuildingBlock: PAMTOO_clean_sbu_0, # of connection points: 6
#     Edge 12, Type (0, 1), None
#     Edge 13, Type (0, 1), None
#     Edge 14, Type (0, 1), None
#     Edge 15, Type (0, 1), None
#     Edge 16, Type (0, 1), None
#     Edge 17, Type (0, 1), None
#     Edge 18, Type (0, 1), None
#     Edge 19, Type (0, 1), None
#     Edge 20, Type (0, 1), None
#     Edge 21, Type (0, 1), None
#     Edge 22, Type (0, 1), None
#     Edge 23, Type (0, 1), None
#     Edge 24, Type (0, 1), None
#     Edge 25, Type (0, 1), None
#     Edge 26, Type (0, 1), None
#     Edge 27, Type (0, 1), None
#     Edge 28, Type (0, 1), None
#     Edge 29, Type (0, 1), None
#     Edge 30, Type (0, 1), None
#     Edge 31, Type (0, 1), None
#     Edge 32, Type (0, 1), None
#     Edge 33, Type (0, 1), None
#     Edge 34, Type (0, 1), None
#     Edge 35, Type (0, 1), None
# Relax obj value: 0.221
# Max RMSD: 0.199
# Mean RMSD: 0.086
data_MOF--net-pyr--node1-PAMTOO_clean_sbu_0--node2-VETTIZ_charged_linker_0--edge1-none
_symmetry_space_group_name_H-M    P1
_symmetry_Int_Tables_number       1
_symmetry_cell_setting            triclinic
loop_
_symmetry_equiv_pos_as_xyz
'x, y, z'
_cell_length_a     25.044912
_cell_length_b     25.98567
_cell_length_c     25.209351
_cell_angle_alpha  89.938789
_cell_angle_beta   90.109677
_cell_angle_gamma 104.40507
loop_
_atom_site_label
_atom_site_type_symbol
_atom_site_fract_x
_atom_site_fract_y
_atom_site_fract_z
_atom_type_partial_charge
C0 C 0.40658 0.23289 0.46935 0.0
C1 C 0.36343 0.24165 0.501 0.0
C2 C 0.3502 0.29128 0.49675 0.0
C3 C 0.39888 0.30623 0.41374 0.0
C4 C 0.42148 0.26396 0.42382 0.0
C5 C 0.4504 0.24919 0.37608 0.0
H6 H 0.43536 0.19328 0.12887 0.0
C7 C 0.40302 0.31759 0.35654 0.0
C8 C 0.43748 0.2878 0.33482 0.0
H9 H 0.56853 0.18358 0.23543 0.0
H10 H 0.54419 0.25081 0.29201 0.0
H11 H 0.46058 0.32218 0.14188 0.0
H12 H 0.3389 0.19465 0.2145 0.0
H13 H 0.30732 0.24252 0.1874 0.0
H14 H 0.34309 0.20793 0.1444 0.0
H15 H 0.39745 0.29137 0.10846 0.0
H16 H 0.40196 0.34614 0.15386 0.0
C17 C 0.51244 0.25818 0.38882 0.0
C18 C 0.4237 0.1906 0.36091 0.0
C19 C 0.24013 0.37496 0.27711 0.0
C20 C 0.21641 0.36989 0.22621 0.0
C21 C 0.24457 0.35203 0.18437 0.0
C22 C 0.29441 0.33789 0.19357 0.0
C23 C 0.31575 0.34023 0.24538 0.0
C24 C 0.28914 0.3594 0.28591 0.0
C25 C 0.31697 0.35848 0.33869 0.0
C26 C 0.36523 0.33544 0.32308 0.0
C27 C 0.3638 0.32448 0.26832 0.0
C28 C 0.33742 0.41639 0.35844 0.0
C29 C 0.27529 0.32202 0.37708 0.0
C30 C 0.45846 0.20394 0.16525 0.0
C31 C 0.50158 0.18032 0.17944 0.0
C32 C 0.53315 0.19858 0.22515 0.0
C33 C 0.51821 0.23548 0.25889 0.0
C34 C 0.47012 0.25176 0.24796 0.0
C35 C 0.4439 0.24013 0.20001 0.0
C36 C 0.39892 0.2689 0.1929 0.0
C37 C 0.40081 0.29664 0.24646 0.0
C38 C 0.44074 0.28331 0.27912 0.0
C39 C 0.41505 0.30908 0.14671 0.0
C40 C 0.34397 0.2266 0.18412 0.0
H41 H 0.3571 0.36107 0.45003 0.0
H42 H 0.42126 0.19743 0.47473 0.0
H43 H 0.37862 0.18437 0.35425 0.0
H44 H 0.44187 0.17857 0.32447 0.0
H45 H 0.43008 0.16296 0.39253 0.0
H46 H 0.52064 0.26003 0.43223 0.0
H47 H 0.52898 0.2249 0.37437 0.0
H48 H 0.53656 0.29582 0.37094 0.0
H49 H 0.21967 0.38849 0.31019 0.0
H50 H 0.22799 0.34895 0.14446 0.0
H51 H 0.31374 0.32433 0.16028 0.0
H52 H 0.35667 0.44317 0.32553 0.0
H53 H 0.30266 0.43123 0.37429 0.0
H54 H 0.3695 0.42057 0.38943 0.0
H55 H 0.23234 0.3116 0.36173 0.0
H56 H 0.28568 0.28339 0.38376 0.0
H57 H 0.27278 0.3415 0.41578 0.0
H58 H 0.31977 0.30158 0.52229 0.0
C59 C 0.36965 0.32469 0.45365 0.0
C60 C 0.0572 0.89849 0.67656 0.0
C61 C 0.02052 0.92791 0.69436 0.0
C62 C 0.99653 0.91699 0.74496 0.0
C63 C 0.05539 0.85754 0.76279 0.0
C64 C 0.07426 0.86397 0.71133 0.0
C65 C 0.11861 0.83563 0.7007 0.0
H66 H 0.31112 0.7211 0.79843 0.0
C67 C 0.08765 0.82579 0.79127 0.0
C68 C 0.12384 0.81162 0.75476 0.0
H69 H 0.29331 0.77428 0.63809 0.0
H70 H 0.20647 0.79184 0.66107 0.0
H71 H 0.2995 0.79599 0.85638 0.0
H72 H 0.17387 0.66417 0.81826 0.0
H73 H 0.16533 0.68135 0.88496 0.0
H74 H 0.23105 0.67216 0.86351 0.0
H75 H 0.26521 0.75815 0.91002 0.0
H76 H 0.24632 0.81757 0.88805 0.0
C77 C 0.17183 0.87774 0.68415 0.0
C78 C 0.0968 0.7921 0.65865 0.0
C79 C 0.12091 0.85414 0.98626 0.0
C80 C 0.16723 0.84645 1.01405 0.0
C81 C 0.18447 0.79972 1.00315 0.0
C82 C 0.1663 0.77061 0.95706 0.0
C83 C 0.13375 0.79045 0.9211 0.0
C84 C 0.10736 0.82832 0.93752 0.0
C85 C 0.07656 0.84672 0.89278 0.0
C86 C 0.09327 0.81655 0.84621 0.0
C87 C 0.12928 0.78592 0.86304 0.0
C88 C 0.09892 0.90767 0.88612 0.0
C89 C 0.01391 0.83008 0.90464 0.0
C90 C 0.28898 0.73714 0.76826 0.0
C91 C 0.31015 0.74699 0.7165 0.0
C92 C 0.27843 0.76595 0.67826 0.0
C93 C 0.22801 0.77669 0.6918 0.0
C94 C 0.20949 0.77005 0.74454 0.0
C95 C 0.23951 0.74997 0.78161 0.0
C96 C 0.2147 0.74725 0.83621 0.0
C97 C 0.16545 0.77075 0.82596 0.0
C98 C 0.16276 0.78375 0.77212 0.0
C99 C 0.25823 0.78126 0.87479 0.0
C100 C 0.1954 0.68812 0.85208 0.0
H101 H 0.99526 0.87485 0.81772 0.0
H102 H 0.07529 0.90467 0.63733 0.0
H103 H 0.05284 0.77185 0.66632 0.0
H104 H 0.1189 0.76022 0.65934 0.0
H105 H 0.09937 0.80944 0.61815 0.0
H106 H 0.17197 0.91802 0.6992 0.0
H107 H 0.17597 0.88064 0.64032 0.0
H108 H 0.20975 0.86995 0.7011 0.0
H109 H 0.10268 0.8863 0.99692 0.0
H110 H 0.21706 0.78924 1.0256 0.0
H111 H 0.18252 0.73715 0.94838 0.0
H112 H 0.14464 0.91839 0.88274 0.0
H113 H 0.08746 0.92934 0.92049 0.0
H114 H 0.08276 0.92329 0.85055 0.0
H115 H 1.00458 0.80751 0.94238 0.0
H116 H 0.99084 0.80429 0.87281 0.0
H117 H 0.99646 0.86519 0.90896 0.0
H118 H 0.96722 0.93818 0.75918 0.0
C119 C 0.01331 0.88107 0.77906 0.0
C120 C 0.60339 0.22527 0.99931 0.0
C121 C 0.55934 0.18543 0.98046 0.0
C122 C 0.53057 0.19778 0.93533 0.0
C123 C 0.59181 0.28827 0.93032 0.0
C124 C 0.61801 0.27502 0.97478 0.0
C125 C 0.66243 0.31941 0.99497 0.0
H126 H 0.84545 0.55167 0.97398 0.0
C127 C 0.6202 0.34548 0.91617 0.0
C128 C 0.66136 0.36237 0.95502 0.0
H129 H 0.82544 0.43035 0.09563 0.0
H130 H 0.74361 0.38276 1.05552 0.0
H131 H 0.70129 0.54369 0.97445 0.0
H132 H 0.80285 0.47642 0.86904 0.0
H133 H 0.75996 0.50977 0.834 0.0
H134 H 0.81338 0.54713 0.8764 0.0
H135 H 0.75514 0.5851 0.93549 0.0
H136 H 0.68861 0.5553 0.90718 0.0
C137 C 0.64456 0.33379 1.05118 0.0
C138 C 0.71696 0.3009 0.9925 0.0
C139 C 0.56748 0.44601 0.75364 0.0
C140 C 0.58677 0.49878 0.73376 0.0
C141 C 0.63111 0.53261 0.76139 0.0
C142 C 0.6557 0.51504 0.80632 0.0
C143 C 0.6358 0.46287 0.82579 0.0
C144 C 0.59193 0.42917 0.79973 0.0
C145 C 0.5748 0.37555 0.82781 0.0
C146 C 0.6152 0.38247 0.87456 0.0
C147 C 0.65171 0.43422 0.87298 0.0
C148 C 0.51483 0.36673 0.84698 0.0
C149 C 0.58252 0.33179 0.78958 0.0
C150 C 0.82279 0.51474 0.99173 0.0
C151 C 0.84351 0.49428 1.03792 0.0
C152 C 0.8118 0.44715 1.06025 0.0
C153 C 0.76324 0.41912 1.03641 0.0
C154 C 0.7445 0.43759 0.98912 0.0
C155 C 0.77248 0.48572 0.96829 0.0
C156 C 0.74191 0.49968 0.91988 0.0
C157 C 0.69419 0.4495 0.91293 0.0
C158 C 0.69729 0.41384 0.95393 0.0
C159 C 0.72066 0.54874 0.93448 0.0
C160 C 0.7815 0.50905 0.87207 0.0
H161 H 0.52392 0.25576 0.87576 0.0
H162 H 0.62597 0.21886 1.03438 0.0
H163 H 0.71644 0.27272 0.95915 0.0
H164 H 0.75391 0.33333 0.98467 0.0
H165 H 0.72326 0.28019 1.02954 0.0
H166 H 0.59896 0.32226 1.05618 0.0
H167 H 0.66235 0.3133 1.08283 0.0
H168 H 0.65584 0.37716 1.0588 0.0
H169 H 0.53323 0.41869 0.73439 0.0
H170 H 0.64736 0.57308 0.74792 0.0
H171 H 0.68958 0.54301 0.8244 0.0
H172 H 0.50955 0.40202 0.86931 0.0
H173 H 0.4858 0.36017 0.81284 0.0
H174 H 0.50278 0.33234 0.87396 0.0
H175 H 0.62486 0.34216 0.77274 0.0
H176 H 0.57692 0.29309 0.80973 0.0
H177 H 0.55266 0.32689 0.75618 0.0
H178 H 0.49572 0.16827 0.9197 0.0
C179 C 0.5469 0.2487 0.90991 0.0
C180 C 0.96742 0.89664 0.46011 0.0
C181 C 0.94682 0.9201 0.50453 0.0
C182 C 0.89876 0.89065 0.52923 0.0
C183 C 0.89118 0.81752 0.46789 0.0
C184 C 0.93813 0.84494 0.44203 0.0
C185 C 0.94991 0.81204 0.39486 0.0
H186 H 0.87873 0.57152 0.25757 0.0
C187 C 0.86971 0.76522 0.44211 0.0
C188 C 0.90325 0.76037 0.39874 0.0
H189 H 1.00881 0.70931 0.21806 0.0
H190 H 0.98416 0.75687 0.29342 0.0
H191 H 0.88905 0.58046 0.39265 0.0
H192 H 0.78649 0.64359 0.28383 0.0
H193 H 0.74842 0.60935 0.33767 0.0
H194 H 0.77894 0.57323 0.2906 0.0
H195 H 0.84042 0.5381 0.34906 0.0
H196 H 0.81812 0.5621 0.4098 0.0
C197 C 1.00717 0.80129 0.40261 0.0
C198 C 0.9454 0.84299 0.34354 0.0
C199 C 0.69948 0.651 0.52717 0.0
C200 C 0.66365 0.60156 0.51704 0.0
C201 C 0.67707 0.57101 0.47466 0.0
C202 C 0.7247 0.59057 0.4428 0.0
C203 C 0.75931 0.6415 0.45295 0.0
C204 C 0.74568 0.66989 0.49503 0.0
C205 C 0.78396 0.72315 0.50119 0.0
C206 C 0.82378 0.72346 0.45603 0.0
C207 C 0.81026 0.67577 0.42709 0.0
C208 C 0.81222 0.72409 0.55646 0.0
C209 C 0.74953 0.76499 0.49282 0.0
C210 C 0.90209 0.61186 0.26511 0.0
C211 C 0.94637 0.63603 0.23112 0.0
C212 C 0.97457 0.68923 0.24274 0.0
C213 C 0.96025 0.71703 0.2868 0.0
C214 C 0.91599 0.69253 0.32005 0.0
C215 C 0.88712 0.64083 0.30831 0.0
C216 C 0.83886 0.62204 0.34575 0.0
C217 C 0.84412 0.66977 0.38256 0.0
C218 C 0.89017 0.7117 0.36786 0.0
C219 C 0.84664 0.57283 0.37602 0.0
C220 C 0.78509 0.61109 0.31295 0.0
H221 H 0.83578 0.82212 0.53387 0.0
H222 H 1.00451 0.9179 0.44 0.0
H223 H 0.90717 0.85746 0.34394 0.0
H224 H 0.94298 0.81825 0.30771 0.0
H225 H 0.98113 0.87804 0.33961 0.0
H226 H 0.01041 0.78453 0.44276 0.0
H227 H 0.04014 0.83865 0.39879 0.0
H228 H 0.01531 0.77231 0.37374 0.0
H229 H 0.69116 0.67596 0.55893 0.0
H230 H 0.65036 0.5324 0.46555 0.0
H231 H 0.73247 0.56572 0.41118 0.0
H232 H 0.81428 0.68362 0.56933 0.0
H233 H 0.7894 0.74007 0.58756 0.0
H234 H 0.85582 0.7471 0.55648 0.0
H235 H 0.71286 0.74941 0.46714 0.0
H236 H 0.77262 0.801 0.47164 0.0
H237 H 0.73432 0.77685 0.53114 0.0
H238 H 0.88234 0.90564 0.56403 0.0
C239 C 0.87146 0.84061 0.51157 0.0
C240 C 0.76071 0.73116 0.952 0.0
C241 C 0.79264 0.7043 0.92165 0.0
C242 C 0.77327 0.68519 0.87089 0.0
C243 C 0.7006 0.73101 0.87691 0.0
C244 C 0.71439 0.74341 0.92896 0.0
C245 C 0.676 0.77261 0.95425 0.0
H246 H 0.51307 0.9396 0.92227 0.0
C247 C 0.65733 0.75715 0.86122 0.0
C248 C 0.63998 0.77909 0.90691 0.0
H249 H 0.57009 0.88412 1.06825 0.0
H250 H 0.60171 0.81701 1.02021 0.0
H251 H 0.47006 0.81135 0.86634 0.0
H252 H 0.58963 0.95428 0.85751 0.0
H253 H 0.62104 0.91885 0.81257 0.0
H254 H 0.55445 0.93089 0.79816 0.0
H255 H 0.46825 0.87673 0.84386 0.0
H256 H 0.48676 0.83008 0.79971 0.0
C257 C 0.64253 0.7369 0.99823 0.0
C258 C 0.71125 0.82665 0.97467 0.0
C259 C 0.67694 0.8412 0.68159 0.0
C260 C 0.65735 0.88462 0.66424 0.0
C261 C 0.60539 0.88887 0.68231 0.0
C262 C 0.58017 0.85814 0.72528 0.0
C263 C 0.60814 0.82458 0.75071 0.0
C264 C 0.65257 0.81234 0.72606 0.0
C265 C 0.67746 0.77602 0.75928 0.0
C266 C 0.64404 0.77381 0.81036 0.0
C267 C 0.60514 0.8045 0.80559 0.0
C268 C 0.66761 0.72122 0.73138 0.0
C269 C 0.73958 0.80288 0.76787 0.0
C270 C 0.53187 0.91252 0.94377 0.0
C271 C 0.54022 0.91774 0.99874 0.0
C272 C 0.56426 0.8815 1.02564 0.0
C273 C 0.58298 0.84287 0.99778 0.0
C274 C 0.57963 0.84169 0.94227 0.0
C275 C 0.55272 0.87473 0.91622 0.0
C276 C 0.55179 0.86654 0.85713 0.0
C277 C 0.58422 0.82393 0.85205 0.0
C278 C 0.60124 0.81065 0.90237 0.0
C279 C 0.49095 0.84516 0.84059 0.0
C280 C 0.58057 0.92003 0.82973 0.0
H281 H 0.71242 0.68213 0.81047 0.0
H282 H 0.77291 0.74469 0.99181 0.0
H283 H 0.73872 0.84774 0.94268 0.0
H284 H 0.68658 0.85379 0.98801 0.0
H285 H 0.73751 0.82087 1.0086 0.0
H286 H 0.64441 0.69474 0.99436 0.0
H287 H 0.65825 0.75052 1.03838 0.0
H288 H 0.598 0.73573 0.99609 0.0
H289 H 0.7154 0.83537 0.6666 0.0
H290 H 0.58758 0.92002 0.66741 0.0
H291 H 0.54227 0.86454 0.73975 0.0
H292 H 0.6493 0.72137 0.69115 0.0
H293 H 0.70678 0.70924 0.72561 0.0
H294 H 0.63886 0.68958 0.75434 0.0
H295 H 0.74509 0.8436 0.78424 0.0
H296 H 0.76008 0.78089 0.79518 0.0
H297 H 0.76283 0.80567 0.73011 0.0
H298 H 0.79482 0.6615 0.84791 0.0
C299 C 0.72641 0.69744 0.84892 0.0
C300 C 0.9589 0.21507 0.51992 0.0
C301 C 0.99639 0.1864 0.50241 0.0
C302 C 0.01832 0.19564 0.45092 0.0
C303 C 0.95806 0.25385 0.43273 0.0
C304 C 0.94003 0.24798 0.48456 0.0
C305 C 0.8945 0.27485 0.49521 0.0
H306 H 0.70179 0.39058 0.39897 0.0
C307 C 0.92421 0.28431 0.40421 0.0
C308 C 0.8876 0.29754 0.44093 0.0
H309 H 0.71851 0.3352 0.55873 0.0
H310 H 0.80468 0.31635 0.53528 0.0
H311 H 0.7127 0.30711 0.34503 0.0
H312 H 0.83859 0.44504 0.37563 0.0
H313 H 0.84448 0.42582 0.30903 0.0
H314 H 0.78007 0.43678 0.33212 0.0
H315 H 0.73817 0.35112 0.29176 0.0
H316 H 0.76499 0.29391 0.30508 0.0
C317 C 0.84249 0.23175 0.51268 0.0
C318 C 0.91547 0.31932 0.53653 0.0
C319 C 0.90338 0.26607 0.2069 0.0
C320 C 0.85603 0.26913 0.17798 0.0
C321 C 0.83102 0.31065 0.19074 0.0
C322 C 0.84366 0.33826 0.23858 0.0
C323 C 0.87926 0.32227 0.27437 0.0
C324 C 0.91214 0.29021 0.25699 0.0
C325 C 0.94361 0.27318 0.30204 0.0
C326 C 0.91905 0.2951 0.34946 0.0
C327 C 0.88114 0.32367 0.33284 0.0
C328 C 0.93088 0.21147 0.30229 0.0
C329 C 1.00518 0.30137 0.29518 0.0
C330 C 0.7236 0.37406 0.42905 0.0
C331 C 0.7023 0.36381 0.48069 0.0
C332 C 0.73354 0.34387 0.51866 0.0
C333 C 0.78353 0.33234 0.50482 0.0
C334 C 0.80203 0.33931 0.45207 0.0
C335 C 0.7725 0.36048 0.41539 0.0
C336 C 0.79586 0.3617 0.36038 0.0
C337 C 0.84453 0.33755 0.37013 0.0
C338 C 0.8479 0.32466 0.4239 0.0
C339 C 0.75099 0.32701 0.32348 0.0
C340 C 0.81562 0.4204 0.34289 0.0
H341 H 0.01642 0.23373 0.37684 0.0
H342 H 0.94152 0.20954 0.55946 0.0
H343 H 0.95898 0.34065 0.52825 0.0
H344 H 0.89213 0.35022 0.53566 0.0
H345 H 0.91391 0.30264 0.57726 0.0
H346 H 0.84274 0.19197 0.49651 0.0
H347 H 0.83999 0.22809 0.55656 0.0
H348 H 0.80368 0.23909 0.49742 0.0
H349 H 0.92659 0.23777 0.19577 0.0
H350 H 0.79671 0.31739 0.16804 0.0
H351 H 0.82092 0.36677 0.24837 0.0
H352 H 0.88704 0.19375 0.29163 0.0
H353 H 0.9572 0.19704 0.27333 0.0
H354 H 0.93563 0.19401 0.34114 0.0
H355 H 1.0098 0.34337 0.28319 0.0
H356 H 0.029 0.30393 0.33234 0.0
H357 H 0.02453 0.28155 0.26426 0.0
H358 H 0.04787 0.17473 0.43669 0.0
C359 C 0.99991 0.22991 0.41623 0.0
C360 C 0.45538 0.66502 0.43757 0.0
C361 C 0.43236 0.61392 0.46014 0.0
C362 C 0.38564 0.58176 0.43434 0.0
C363 C 0.38523 0.65013 0.3671 0.0
C364 C 0.43178 0.68197 0.39097 0.0
C365 C 0.4526 0.73354 0.35987 0.0
H366 H 0.40704 0.88838 0.14911 0.0
C367 C 0.37032 0.6786 0.31934 0.0
C368 C 0.41045 0.72807 0.31467 0.0
H369 H 0.54686 0.93178 0.25435 0.0
H370 H 0.51257 0.84787 0.30361 0.0
H371 H 0.31941 0.84732 0.23298 0.0
H372 H 0.41804 0.77927 0.12967 0.0
H373 H 0.35636 0.72982 0.13245 0.0
H374 H 0.35605 0.79499 0.1073 0.0
H375 H 0.30513 0.83691 0.1637 0.0
H376 H 0.27422 0.78798 0.21276 0.0
C377 C 0.45173 0.78102 0.39604 0.0
C378 C 0.51065 0.73547 0.33853 0.0
C379 C 0.19286 0.60243 0.2072 0.0
C380 C 0.17096 0.62359 0.16211 0.0
C381 C 0.20209 0.67129 0.14021 0.0
C382 C 0.25177 0.69848 0.16262 0.0
C383 C 0.27252 0.67865 0.20806 0.0
C384 C 0.24418 0.63084 0.22946 0.0
C385 C 0.27537 0.61668 0.27735 0.0
C386 C 0.32539 0.66511 0.28174 0.0
C387 C 0.32242 0.70063 0.24063 0.0
C388 C 0.23752 0.61127 0.32633 0.0
C389 C 0.29328 0.56542 0.26404 0.0
C390 C 0.4308 0.88118 0.18302 0.0
C391 C 0.4794 0.91801 0.19758 0.0
C392 C 0.5088 0.90462 0.24177 0.0
C393 C 0.4889 0.85576 0.27031 0.0
C394 C 0.4395 0.81924 0.25413 0.0
C395 C 0.41254 0.83338 0.21061 0.0
C396 C 0.36281 0.79206 0.19501 0.0
C397 C 0.36225 0.74975 0.23616 0.0
C398 C 0.40667 0.76452 0.27209 0.0
C399 C 0.3126 0.81697 0.20089 0.0
C400 C 0.37327 0.77308 0.13814 0.0
H401 H 0.32646 0.57269 0.37204 0.0
H402 H 0.49174 0.69086 0.45517 0.0
H403 H 0.51092 0.69779 0.31777 0.0
H404 H 0.52466 0.7679 0.30962 0.0
H405 H 0.54112 0.74101 0.37145 0.0
H406 H 0.4103 0.77592 0.4142 0.0
H407 H 0.48246 0.7845 0.42854 0.0
H408 H 0.46093 0.81885 0.37385 0.0
H409 H 0.17036 0.56553 0.2251 0.0
H410 H 0.18765 0.68878 0.10569 0.0
H411 H 0.27114 0.7349 0.14345 0.0
H412 H 0.21833 0.64549 0.32858 0.0
H413 H 0.20385 0.57428 0.3241 0.0
H414 H 0.25994 0.61119 0.36398 0.0
H415 H 0.30776 0.56632 0.22228 0.0
H416 H 0.32825 0.56051 0.28849 0.0
H417 H 0.25842 0.5298 0.26883 0.0
H418 H 0.36671 0.54252 0.44967 0.0
C419 C 0.36206 0.59947 0.38887 0.0
C420 C 0.05327 0.21607 0.74441 0.0
C421 C 0.07986 0.18828 0.70794 0.0
C422 C 0.13673 0.20859 0.69959 0.0
C423 C 0.13753 0.28697 0.75118 0.0
C424 C 0.08395 0.26534 0.76674 0.0
C425 C 0.06785 0.301 0.80921 0.0
H426 H 0.13665 0.5444 0.94077 0.0
C427 C 0.15684 0.34105 0.77324 0.0
C428 C 0.11748 0.35035 0.809 0.0
H429 H 1.00241 0.40898 0.97747 0.0
H430 H 0.02765 0.36062 0.90331 0.0
H431 H 0.12214 0.52658 0.80266 0.0
H432 H 0.23222 0.47864 0.91546 0.0
H433 H 0.26721 0.51423 0.86038 0.0
H434 H 0.23275 0.54751 0.90648 0.0
H435 H 0.16921 0.5743 0.84287 0.0
H436 H 0.19243 0.54725 0.78415 0.0
C437 C 0.01401 0.31516 0.7928 0.0
C438 C 0.06312 0.27081 0.86245 0.0
C439 C 0.3237 0.45454 0.68187 0.0
C440 C 0.35313 0.50782 0.68365 0.0
C441 C 0.33547 0.54156 0.72037 0.0
C442 C 0.28936 0.52194 0.75412 0.0
C443 C 0.26054 0.4678 0.75163 0.0
C444 C 0.27872 0.43582 0.71557 0.0
C445 C 0.24615 0.37958 0.71724 0.0
C446 C 0.20245 0.38255 0.75782 0.0
C447 C 0.21094 0.43373 0.77965 0.0
C448 C 0.22209 0.36487 0.66059 0.0
C449 C 0.2852 0.34577 0.73812 0.0
C450 C 0.11295 0.50416 0.93331 0.0
C451 C 0.06756 0.48084 0.96641 0.0
C452 C 0.038 0.42821 0.95403 0.0
C453 C 0.05299 0.39966 0.91105 0.0
C454 C 0.09928 0.4227 0.87979 0.0
C455 C 0.12834 0.47443 0.89098 0.0
C456 C 0.17631 0.49268 0.85306 0.0
C457 C 0.17383 0.44275 0.82015 0.0
C458 C 0.12743 0.40144 0.83512 0.0
C459 C 0.16487 0.53786 0.81873 0.0
C460 C 0.23022 0.50945 0.88537 0.0
H461 H 0.20736 0.27012 0.70925 0.0
H462 H 0.01025 0.20057 0.75433 0.0
H463 H 0.09757 0.25113 0.86706 0.0
H464 H 0.06603 0.29714 0.89709 0.0
H465 H 0.02381 0.23953 0.86453 0.0
H466 H 0.01791 0.3322 0.7521 0.0
H467 H 0.97893 0.27926 0.79301 0.0
H468 H 1.0038 0.34497 0.81954 0.0
H469 H 0.33596 0.42684 0.65527 0.0
H470 H 0.35753 0.58297 0.72338 0.0
H471 H 0.27829 0.54935 0.7813 0.0
H472 H 0.2154 0.40031 0.63931 0.0
H473 H 0.25039 0.34811 0.63597 0.0
H474 H 0.18101 0.33692 0.66042 0.0
H475 H 0.32033 0.36998 0.76147 0.0
H476 H 0.26428 0.31436 0.76622 0.0
H477 H 0.30308 0.32735 0.70504 0.0
H478 H 0.15986 0.18795 0.67488 0.0
C479 C 0.16509 0.25705 0.72034 0.0
Dy480 Dy 0.0736 0.0625 0.5748 0.0
Dy481 Dy 0.94969 0.05832 0.62227 0.0
C482 C 0.05201 0.14088 0.67455 0.0
O483 O 0.05193 0.99127 0.6265 0.0
O484 O 0.97284 0.99557 0.67116 0.0
O485 O 0.15635 0.06299 0.59845 0.0
O486 O 0.1373 0.07189 0.51531 0.0
O487 O 0.94079 0.99548 0.55812 0.0
O488 O 0.02692 0.99118 0.52984 0.0
O489 O 0.98258 0.13584 0.58229 0.0
O490 O 0.03779 0.11269 0.5199 0.0
O491 O 0.87226 0.06899 0.59314 0.0
O492 O 0.88061 1.04855 0.67582 0.0
C493 C 0.01371 0.97341 0.66214 0.0
O494 O 0.08179 0.12774 0.63581 0.0
O495 O 0.99973 0.11637 0.68072 0.0
C496 C 0.22719 0.11322 0.54445 0.0
C497 C 0.32211 0.19501 0.52307 0.0
C498 C 0.28573 0.20083 0.5639 0.0
C499 C 0.23836 0.16035 0.57418 0.0
C500 C 0.26495 0.10575 0.50649 0.0
C501 C 0.31169 0.14606 0.49571 0.0
C502 C 0.17572 0.07198 0.55044 0.0
C503 C 0.97322 0.97294 0.52962 0.0
C504 C 1.00733 0.14377 0.53641 0.0
C505 C 0.79429 1.01524 0.63508 0.0
C506 C 0.69808 0.93226 0.64387 0.0
C507 C 0.74118 0.92701 0.61019 0.0
C508 C 0.78906 0.96821 0.606 0.0
C509 C 0.74963 1.02252 0.66467 0.0
C510 C 0.70186 0.98153 0.66894 0.0
C511 C 0.84705 0.05529 0.63815 0.0
H512 H 0.2924 0.23741 0.58629 0.0
H513 H 0.20965 0.16655 0.60398 0.0
H514 H 0.25703 0.06948 0.48336 0.0
H515 H 0.33725 0.13965 0.46307 0.0
H516 H 0.73947 0.88984 0.59001 0.0
H517 H 0.82296 0.96242 0.58218 0.0
H518 H 0.75288 0.0588 0.68699 0.0
H519 H 0.67009 0.98704 0.69586 0.0
Dy520 Dy 0.45659 1.03916 1.06733 0.0
Dy521 Dy 0.58618 0.06183 0.10689 0.0
C522 C 0.49717 0.96767 0.16389 0.0
O523 O 0.47625 0.11672 0.10986 0.0
O524 O 0.5526 0.11485 0.15954 0.0
O525 O 0.37571 1.03332 0.09951 0.0
O526 O 0.3861 1.02212 1.01498 0.0
O527 O 0.58064 0.1251 1.04627 0.0
O528 O 0.49423 0.10281 1.0086 0.0
O529 O 0.56734 0.9845 1.06422 0.0
O530 O 0.48915 0.98395 1.01592 0.0
O531 O 0.66815 0.07291 1.07497 0.0
O532 O 0.65593 0.07722 0.16004 0.0
C533 C 0.5113 0.13556 0.1479 0.0
O534 O 0.46047 0.97769 0.13009 0.0
O535 O 0.54822 0.99697 0.16493 0.0
C536 C 0.30099 0.97857 1.0531 0.0
C537 C 0.20744 0.89354 1.03732 0.0
C538 C 0.25081 0.88746 1.07063 0.0
C539 C 0.29759 0.92955 1.07799 0.0
C540 C 0.25613 0.9864 1.02431 0.0
C541 C 0.20998 0.9446 1.01639 0.0
C542 C 0.3514 1.02157 1.05374 0.0
C543 C 0.54416 0.13404 1.01153 0.0
C544 C 0.53112 0.96416 1.02756 0.0
C545 C 0.73887 0.12937 0.12521 0.0
C546 C 0.82289 0.22074 0.15008 0.0
C547 C 0.78012 0.22388 0.1147 0.0
C548 C 0.73801 0.17865 0.10288 0.0
C549 C 0.78399 0.12495 0.1558 0.0
C550 C 0.82548 0.1699 0.16817 0.0
C551 C 0.69158 0.08303 0.12139 0.0
H552 H 0.25016 0.84952 1.08858 0.0
H553 H 0.33183 0.9232 0.10119 0.0
H554 H 0.25796 1.02427 1.00534 0.0
H555 H 0.17874 0.95207 0.98993 0.0
H556 H 0.77729 0.26172 0.0988 0.0
H557 H 0.70362 0.18265 1.07847 0.0
H558 H 0.78548 0.08707 0.173 0.0
H559 H 0.85673 0.16461 0.1958 0.0
Dy560 Dy 0.49397 0.4976 0.57122 0.0
Dy561 Dy 0.5201 0.6142 0.62479 0.0
C562 C 0.56074 0.51938 0.68577 0.0
O563 O 0.41598 0.49142 0.61622 0.0
O564 O 0.43665 0.57279 0.65728 0.0
O565 O 0.47868 0.41203 0.57666 0.0
O566 O 0.49088 0.45044 0.50006 0.0
O567 O 0.48852 0.62689 0.542 0.0
O568 O 0.44602 0.54151 0.51845 0.0
O569 O 0.60046 0.6176 0.5846 0.0
O570 O 0.5763 0.53972 0.53737 0.0
O571 O 0.53355 0.6996 0.6185 0.0
O572 O 0.52326 0.66205 0.6955 0.0
C573 C 0.40383 0.52542 0.64993 0.0
O574 O 0.53199 0.48544 0.65115 0.0
O575 O 0.56702 0.57107 0.67935 0.0
C576 C 0.5423 0.3888 0.51805 0.0
C577 C 0.64684 0.37165 0.49405 0.0
C578 C 0.63559 0.38806 0.54503 0.0
C579 C 0.58401 0.39653 0.55687 0.0
C580 C 0.55295 0.37168 0.46748 0.0
C581 C 0.60453 0.36291 0.45568 0.0
C582 C 0.49261 0.40827 0.52728 0.0
C583 C 0.45677 0.59318 0.50911 0.0
C584 C 0.61137 0.58496 0.54857 0.0
C585 C 0.47018 0.72241 0.67787 0.0
C586 C 0.36561 0.73915 0.70292 0.0
C587 C 0.37611 0.72153 0.65219 0.0
C588 C 0.42766 0.71327 0.63984 0.0
C589 C 0.46022 0.74052 0.72829 0.0
C590 C 0.40863 0.74913 0.74062 0.0
C591 C 0.5203 0.7037 0.66804 0.0
H592 H 0.66716 0.3963 0.57542 0.0
H593 H 0.57771 0.41137 0.59589 0.0
H594 H 0.52201 0.36696 0.43656 0.0
H595 H 0.6114 0.34975 0.41619 0.0
H596 H 0.34397 0.71225 0.62239 0.0
H597 H 0.43338 0.69754 0.60107 0.0
H598 H 0.49175 0.74616 0.7587 0.0
H599 H 0.40235 0.76315 0.77994 0.0
Dy600 Dy 0.01448 0.61011 1.06172 0.0
Dy601 Dy 1.0005 0.5053 0.13441 0.0
C602 C 0.96416 0.60679 0.18441 0.0
O603 O 0.09658 0.62735 0.10175 0.0
O604 O 0.08633 0.55317 0.15443 0.0
O605 O 0.01397 0.69272 1.05142 0.0
O606 O 0.01699 0.6438 0.98289 0.0
O607 O 0.01846 0.48211 1.05043 0.0
O608 O 0.06367 0.56211 1.01628 0.0
O609 O 0.91448 0.49613 0.10439 0.0
O610 O 0.93239 0.55804 1.03781 0.0
O611 O 0.99686 0.42114 0.13544 0.0
O612 O 0.99994 0.464 0.20905 0.0
C613 C 0.11537 0.59971 0.13809 0.0
O614 O 0.98565 0.63413 0.1419 0.0
O615 O 0.96038 0.55528 0.18764 0.0
C616 C 0.95179 0.69458 0.98096 0.0
C617 C 0.8469 0.69862 0.94178 0.0
C618 C 0.85457 0.68971 0.99595 0.0
C619 C 0.90632 0.68773 1.01529 0.0
C620 C 0.94405 0.70204 0.92669 0.0
C621 C 0.89232 0.70463 0.90733 0.0
C622 C 1.00473 0.68644 1.0006 0.0
C623 C 0.05003 0.50988 1.01333 0.0
C624 C 0.89891 0.51827 1.06191 0.0
C625 C 0.05896 0.40578 0.20028 0.0
C626 C 0.16203 0.38206 0.21733 0.0
C627 C 0.14966 0.42621 0.24191 0.0
C628 C 0.09889 0.43804 0.23341 0.0
C629 C 0.07067 0.36087 0.17673 0.0
C630 C 0.12169 0.34917 0.18507 0.0
C631 C 1.00791 0.42168 0.18595 0.0
H632 H 0.82043 0.68362 1.02347 0.0
H633 H 0.91037 0.67971 1.05709 0.0
H634 H 0.97806 0.70579 0.89925 0.0
H635 H 0.88819 0.71211 0.86545 0.0
H636 H 0.17971 0.45244 0.26688 0.0
H637 H 0.09162 0.47326 0.2519 0.0
H638 H 0.04068 0.33532 0.15108 0.0
H639 H 0.12946 0.31422 0.16642 0.0
loop_
_geom_bond_atom_site_label_1
_geom_bond_atom_site_label_2
_geom_bond_distance
_geom_bond_site_symmetry_2
_ccdc_geom_bond_type
C0 C1 1.391 . S
C0 C4 1.391 . S
C0 H42 0.948 . S
C1 C0 1.391 . S
C1 C2 1.391 . S
C2 C1 1.391 . S
C2 H58 0.947 . S
C2 C59 1.392 . S
C3 C4 1.391 . S
C3 C7 1.397 . S
C3 C59 1.419 . S
C4 C0 1.391 . S
C4 C3 1.391 . S
C4 C5 1.399 . S
C5 C4 1.399 . S
C5 C8 1.396 . S
C5 C17 1.453 . S
C5 C18 1.684 . S
H6 C30 0.948 . S
C7 C3 1.397 . S
C7 C8 1.394 . S
C7 C26 1.723 . S
C8 C5 1.396 . S
C8 C7 1.394 . S
C8 C38 1.723 . S
H9 C32 0.947 . S
H10 C33 0.948 . S
H11 C39 0.982 . S
H12 C40 0.979 . S
H13 C40 0.980 . S
H14 C40 0.983 . S
H15 C39 0.979 . S
H16 C39 0.977 . S
C17 C5 1.453 . S
C17 H46 0.982 . S
C17 H47 0.979 . S
C17 H48 0.977 . S
C18 C5 1.684 . S
C18 H43 0.979 . S
C18 H44 0.980 . S
C18 H45 0.983 . S
C19 C20 1.391 . S
C19 C24 1.391 . S
C19 H49 0.948 . S
C20 C19 1.391 . S
C20 C21 1.391 . S
C21 C20 1.391 . S
C21 C22 1.392 . S
C21 H50 0.947 . S
C22 C21 1.392 . S
C22 C23 1.419 . S
C22 H51 0.948 . S
C23 C22 1.419 . S
C23 C24 1.391 . S
C23 C27 1.397 . S
C24 C19 1.391 . S
C24 C23 1.391 . S
C24 C25 1.399 . S
C25 C24 1.399 . S
C25 C26 1.396 . S
C25 C28 1.453 . S
C25 C29 1.684 . S
C26 C7 1.723 . S
C26 C25 1.396 . S
C26 C27 1.394 . S
C27 C23 1.397 . S
C27 C26 1.394 . S
C27 C37 1.723 . S
C28 C25 1.453 . S
C28 H52 0.982 . S
C28 H53 0.979 . S
C28 H54 0.977 . S
C29 C25 1.684 . S
C29 H55 0.979 . S
C29 H56 0.980 . S
C29 H57 0.983 . S
C30 H6 0.948 . S
C30 C31 1.391 . S
C30 C35 1.391 . S
C31 C30 1.391 . S
C31 C32 1.391 . S
C32 H9 0.947 . S
C32 C31 1.391 . S
C32 C33 1.392 . S
C33 H10 0.948 . S
C33 C32 1.392 . S
C33 C34 1.419 . S
C34 C33 1.419 . S
C34 C35 1.391 . S
C34 C38 1.397 . S
C35 C30 1.391 . S
C35 C34 1.391 . S
C35 C36 1.399 . S
C36 C35 1.399 . S
C36 C37 1.396 . S
C36 C39 1.453 . S
C36 C40 1.684 . S
C37 C27 1.723 . S
C37 C36 1.396 . S
C37 C38 1.394 . S
C38 C8 1.723 . S
C38 C34 1.397 . S
C38 C37 1.394 . S
C39 H11 0.982 . S
C39 H15 0.979 . S
C39 H16 0.977 . S
C39 C36 1.453 . S
C40 H12 0.979 . S
C40 H13 0.980 . S
C40 H14 0.983 . S
C40 C36 1.684 . S
H41 C59 0.948 . S
H42 C0 0.948 . S
H43 C18 0.979 . S
H44 C18 0.980 . S
H45 C18 0.983 . S
H46 C17 0.982 . S
H47 C17 0.979 . S
H48 C17 0.977 . S
H49 C19 0.948 . S
H50 C21 0.947 . S
H51 C22 0.948 . S
H52 C28 0.982 . S
H53 C28 0.979 . S
H54 C28 0.977 . S
H55 C29 0.979 . S
H56 C29 0.980 . S
H57 C29 0.983 . S
H58 C2 0.947 . S
C59 C2 1.392 . S
C59 C3 1.419 . S
C59 H41 0.948 . S
C60 C61 1.391 . S
C60 C64 1.391 . S
C60 H102 0.948 . S
C61 C60 1.391 . S
C61 C62 1.391 . S
C62 C61 1.391 . S
C62 H118 0.947 . S
C62 C119 1.392 . S
C63 C64 1.391 1_455 S
C63 C67 1.397 . S
C63 C119 1.419 1_455 S
C64 C60 1.391 . S
C64 C63 1.391 1_655 S
C64 C65 1.399 1_655 S
C65 C64 1.399 1_455 S
C65 C68 1.396 . S
C65 C77 1.453 . S
C65 C78 1.684 1_455 S
H66 C90 0.948 . S
C67 C63 1.397 . S
C67 C68 1.394 . S
C67 C86 1.723 . S
C68 C65 1.396 . S
C68 C67 1.394 . S
C68 C98 1.723 . S
H69 C92 0.947 . S
H70 C93 0.948 . S
H71 C99 0.982 . S
H72 C100 0.979 . S
H73 C100 0.980 . S
H74 C100 0.983 . S
H75 C99 0.979 . S
H76 C99 0.977 . S
C77 C65 1.453 . S
C77 H106 0.982 . S
C77 H107 0.979 . S
C77 H108 0.977 . S
C78 C65 1.684 1_655 S
C78 H103 0.979 . S
C78 H104 0.980 1_655 S
C78 H105 0.983 . S
C79 C80 1.391 . S
C79 C84 1.391 . S
C79 H109 0.948 . S
C80 C79 1.391 . S
C80 C81 1.391 . S
C81 C80 1.391 . S
C81 C82 1.392 . S
C81 H110 0.947 . S
C82 C81 1.392 . S
C82 C83 1.419 . S
C82 H111 0.948 . S
C83 C82 1.419 . S
C83 C84 1.391 . S
C83 C87 1.397 . S
C84 C79 1.391 . S
C84 C83 1.391 . S
C84 C85 1.399 . S
C85 C84 1.399 . S
C85 C86 1.396 . S
C85 C88 1.453 . S
C85 C89 1.684 . S
C86 C67 1.723 . S
C86 C85 1.396 . S
C86 C87 1.394 . S
C87 C83 1.397 . S
C87 C86 1.394 . S
C87 C97 1.723 . S
C88 C85 1.453 . S
C88 H112 0.982 . S
C88 H113 0.979 . S
C88 H114 0.977 . S
C89 C85 1.684 . S
C89 H115 0.979 . S
C89 H116 0.980 . S
C89 H117 0.983 . S
C90 H66 0.948 . S
C90 C91 1.391 . S
C90 C95 1.391 . S
C91 C90 1.391 . S
C91 C92 1.391 . S
C92 H69 0.947 . S
C92 C91 1.391 . S
C92 C93 1.392 . S
C93 H70 0.948 . S
C93 C92 1.392 . S
C93 C94 1.419 . S
C94 C93 1.419 . S
C94 C95 1.391 . S
C94 C98 1.397 . S
C95 C90 1.391 . S
C95 C94 1.391 . S
C95 C96 1.399 . S
C96 C95 1.399 . S
C96 C97 1.396 . S
C96 C99 1.453 . S
C96 C100 1.684 . S
C97 C87 1.723 . S
C97 C96 1.396 . S
C97 C98 1.394 . S
C98 C68 1.723 . S
C98 C94 1.397 . S
C98 C97 1.394 . S
C99 H71 0.982 . S
C99 H75 0.979 . S
C99 H76 0.977 . S
C99 C96 1.453 . S
C100 H72 0.979 . S
C100 H73 0.980 . S
C100 H74 0.983 . S
C100 C96 1.684 . S
H101 C119 0.948 . S
H102 C60 0.948 . S
H103 C78 0.979 . S
H104 C78 0.980 1_455 S
H105 C78 0.983 . S
H106 C77 0.982 . S
H107 C77 0.979 . S
H108 C77 0.977 . S
H109 C79 0.948 . S
H110 C81 0.947 . S
H111 C82 0.948 . S
H112 C88 0.982 . S
H113 C88 0.979 . S
H114 C88 0.977 . S
H115 C89 0.979 . S
H116 C89 0.980 . S
H117 C89 0.983 . S
H118 C62 0.947 . S
C119 C62 1.392 . S
C119 C63 1.419 1_655 S
C119 H101 0.948 . S
C120 C121 1.391 . S
C120 C124 1.391 . S
C120 H162 0.948 . S
C121 C120 1.391 . S
C121 C122 1.391 . S
C122 C121 1.391 . S
C122 H178 0.947 . S
C122 C179 1.392 . S
C123 C124 1.391 . S
C123 C127 1.397 . S
C123 C179 1.419 . S
C124 C120 1.391 . S
C124 C123 1.391 . S
C124 C125 1.399 . S
C125 C124 1.399 . S
C125 C128 1.396 . S
C125 C137 1.453 . S
C125 C138 1.684 . S
H126 C150 0.948 . S
C127 C123 1.397 . S
C127 C128 1.394 . S
C127 C146 1.723 . S
C128 C125 1.396 . S
C128 C127 1.394 . S
C128 C158 1.723 . S
H129 C152 0.947 . S
H130 C153 0.948 . S
H131 C159 0.982 . S
H132 C160 0.979 . S
H133 C160 0.980 . S
H134 C160 0.983 . S
H135 C159 0.979 . S
H136 C159 0.977 . S
C137 C125 1.453 . S
C137 H166 0.982 . S
C137 H167 0.979 . S
C137 H168 0.977 . S
C138 C125 1.684 . S
C138 H163 0.979 . S
C138 H164 0.980 . S
C138 H165 0.983 . S
C139 C140 1.391 . S
C139 C144 1.391 . S
C139 H169 0.948 . S
C140 C139 1.391 . S
C140 C141 1.391 . S
C141 C140 1.391 . S
C141 C142 1.392 . S
C141 H170 0.947 . S
C142 C141 1.392 . S
C142 C143 1.419 . S
C142 H171 0.948 . S
C143 C142 1.419 . S
C143 C144 1.391 . S
C143 C147 1.397 . S
C144 C139 1.391 . S
C144 C143 1.391 . S
C144 C145 1.399 . S
C145 C144 1.399 . S
C145 C146 1.396 . S
C145 C148 1.453 . S
C145 C149 1.684 . S
C146 C127 1.723 . S
C146 C145 1.396 . S
C146 C147 1.394 . S
C147 C143 1.397 . S
C147 C146 1.394 . S
C147 C157 1.723 . S
C148 C145 1.453 . S
C148 H172 0.982 . S
C148 H173 0.979 . S
C148 H174 0.977 . S
C149 C145 1.684 . S
C149 H175 0.979 . S
C149 H176 0.980 . S
C149 H177 0.983 . S
C150 H126 0.948 . S
C150 C151 1.391 . S
C150 C155 1.391 . S
C151 C150 1.391 . S
C151 C152 1.391 . S
C152 H129 0.947 . S
C152 C151 1.391 . S
C152 C153 1.392 . S
C153 H130 0.948 . S
C153 C152 1.392 . S
C153 C154 1.419 . S
C154 C153 1.419 . S
C154 C155 1.391 . S
C154 C158 1.397 . S
C155 C150 1.391 . S
C155 C154 1.391 . S
C155 C156 1.399 . S
C156 C155 1.399 . S
C156 C157 1.396 . S
C156 C159 1.453 . S
C156 C160 1.684 . S
C157 C147 1.723 . S
C157 C156 1.396 . S
C157 C158 1.394 . S
C158 C128 1.723 . S
C158 C154 1.397 . S
C158 C157 1.394 . S
C159 H131 0.982 . S
C159 H135 0.979 . S
C159 H136 0.977 . S
C159 C156 1.453 . S
C160 H132 0.979 . S
C160 H133 0.980 . S
C160 H134 0.983 . S
C160 C156 1.684 . S
H161 C179 0.948 . S
H162 C120 0.948 . S
H163 C138 0.979 . S
H164 C138 0.980 . S
H165 C138 0.983 . S
H166 C137 0.982 . S
H167 C137 0.979 . S
H168 C137 0.977 . S
H169 C139 0.948 . S
H170 C141 0.947 . S
H171 C142 0.948 . S
H172 C148 0.982 . S
H173 C148 0.979 . S
H174 C148 0.977 . S
H175 C149 0.979 . S
H176 C149 0.980 . S
H177 C149 0.983 . S
H178 C122 0.947 . S
C179 C122 1.392 . S
C179 C123 1.419 . S
C179 H161 0.948 . S
C180 C181 1.391 . S
C180 C184 1.391 . S
C180 H222 0.948 . S
C181 C180 1.391 . S
C181 C182 1.391 . S
C182 C181 1.391 . S
C182 H238 0.947 . S
C182 C239 1.392 . S
C183 C184 1.391 . S
C183 C187 1.397 . S
C183 C239 1.419 . S
C184 C180 1.391 . S
C184 C183 1.391 . S
C184 C185 1.399 . S
C185 C184 1.399 . S
C185 C188 1.396 . S
C185 C197 1.453 . S
C185 C198 1.684 . S
H186 C210 0.948 . S
C187 C183 1.397 . S
C187 C188 1.394 . S
C187 C206 1.723 . S
C188 C185 1.396 . S
C188 C187 1.394 . S
C188 C218 1.723 . S
H189 C212 0.933 1_455 S
H190 C213 0.948 . S
H191 C219 0.982 . S
H192 C220 0.979 . S
H193 C220 0.980 . S
H194 C220 0.983 . S
H195 C219 0.979 . S
H196 C219 0.977 . S
C197 C185 1.453 . S
C197 H226 0.982 1_655 S
C197 H227 0.979 1_655 S
C197 H228 0.977 . S
C198 C185 1.684 . S
C198 H223 0.979 . S
C198 H224 0.980 . S
C198 H225 0.983 . S
C199 C200 1.391 . S
C199 C204 1.391 . S
C199 H229 0.948 . S
C200 C199 1.391 . S
C200 C201 1.391 . S
C201 C200 1.391 . S
C201 C202 1.392 . S
C201 H230 0.947 . S
C202 C201 1.392 . S
C202 C203 1.419 . S
C202 H231 0.948 . S
C203 C202 1.419 . S
C203 C204 1.391 . S
C203 C207 1.397 . S
C204 C199 1.391 . S
C204 C203 1.391 . S
C204 C205 1.399 . S
C205 C204 1.399 . S
C205 C206 1.396 . S
C205 C208 1.453 . S
C205 C209 1.684 . S
C206 C187 1.723 . S
C206 C205 1.396 . S
C206 C207 1.394 . S
C207 C203 1.397 . S
C207 C206 1.394 . S
C207 C217 1.723 . S
C208 C205 1.453 . S
C208 H232 0.982 . S
C208 H233 0.979 . S
C208 H234 0.977 . S
C209 C205 1.684 . S
C209 H235 0.979 . S
C209 H236 0.980 . S
C209 H237 0.983 . S
C210 H186 0.948 . S
C210 C211 1.391 . S
C210 C215 1.391 . S
C211 C210 1.391 . S
C211 C212 1.391 . S
C212 H189 0.933 1_655 S
C212 C211 1.391 . S
C212 C213 1.392 . S
C213 H190 0.948 . S
C213 C212 1.392 . S
C213 C214 1.419 . S
C214 C213 1.419 . S
C214 C215 1.391 . S
C214 C218 1.397 . S
C215 C210 1.391 . S
C215 C214 1.391 . S
C215 C216 1.399 . S
C216 C215 1.399 . S
C216 C217 1.396 . S
C216 C219 1.453 . S
C216 C220 1.684 . S
C217 C207 1.723 . S
C217 C216 1.396 . S
C217 C218 1.394 . S
C218 C188 1.723 . S
C218 C214 1.397 . S
C218 C217 1.394 . S
C219 H191 0.982 . S
C219 H195 0.979 . S
C219 H196 0.977 . S
C219 C216 1.453 . S
C220 H192 0.979 . S
C220 H193 0.980 . S
C220 H194 0.983 . S
C220 C216 1.684 . S
H221 C239 0.948 . S
H222 C180 0.948 . S
H223 C198 0.979 . S
H224 C198 0.980 . S
H225 C198 0.983 . S
H226 C197 0.982 1_455 S
H227 C197 0.979 1_455 S
H228 C197 0.977 . S
H229 C199 0.948 . S
H230 C201 0.947 . S
H231 C202 0.948 . S
H232 C208 0.982 . S
H233 C208 0.979 . S
H234 C208 0.977 . S
H235 C209 0.979 . S
H236 C209 0.980 . S
H237 C209 0.983 . S
H238 C182 0.947 . S
C239 C182 1.392 . S
C239 C183 1.419 . S
C239 H221 0.948 . S
C240 C241 1.391 . S
C240 C244 1.391 . S
C240 H282 0.948 . S
C241 C240 1.391 . S
C241 C242 1.391 . S
C242 C241 1.391 . S
C242 H298 0.947 . S
C242 C299 1.392 . S
C243 C244 1.391 . S
C243 C247 1.397 . S
C243 C299 1.419 . S
C244 C240 1.391 . S
C244 C243 1.391 . S
C244 C245 1.399 . S
C245 C244 1.399 . S
C245 C248 1.396 . S
C245 C257 1.453 . S
C245 C258 1.684 . S
H246 C270 0.948 . S
C247 C243 1.397 . S
C247 C248 1.394 . S
C247 C266 1.723 . S
C248 C245 1.396 . S
C248 C247 1.394 . S
C248 C278 1.723 . S
H249 C272 0.947 . S
H250 C273 0.948 . S
H251 C279 0.982 . S
H252 C280 0.979 . S
H253 C280 0.980 . S
H254 C280 0.983 . S
H255 C279 0.979 . S
H256 C279 0.977 . S
C257 C245 1.453 . S
C257 H286 0.982 . S
C257 H287 0.979 . S
C257 H288 0.977 . S
C258 C245 1.684 . S
C258 H283 0.979 . S
C258 H284 0.980 . S
C258 H285 0.983 . S
C259 C260 1.391 . S
C259 C264 1.391 . S
C259 H289 0.948 . S
C260 C259 1.391 . S
C260 C261 1.391 . S
C261 C260 1.391 . S
C261 C262 1.392 . S
C261 H290 0.947 . S
C262 C261 1.392 . S
C262 C263 1.419 . S
C262 H291 0.948 . S
C263 C262 1.419 . S
C263 C264 1.391 . S
C263 C267 1.397 . S
C264 C259 1.391 . S
C264 C263 1.391 . S
C264 C265 1.399 . S
C265 C264 1.399 . S
C265 C266 1.396 . S
C265 C268 1.453 . S
C265 C269 1.684 . S
C266 C247 1.723 . S
C266 C265 1.396 . S
C266 C267 1.394 . S
C267 C263 1.397 . S
C267 C266 1.394 . S
C267 C277 1.723 . S
C268 C265 1.453 . S
C268 H292 0.982 . S
C268 H293 0.979 . S
C268 H294 0.977 . S
C269 C265 1.684 . S
C269 H295 0.979 . S
C269 H296 0.980 . S
C269 H297 0.983 . S
C270 H246 0.948 . S
C270 C271 1.391 . S
C270 C275 1.391 . S
C271 C270 1.391 . S
C271 C272 1.391 . S
C272 H249 0.947 . S
C272 C271 1.391 . S
C272 C273 1.392 . S
C273 H250 0.948 . S
C273 C272 1.392 . S
C273 C274 1.419 . S
C274 C273 1.419 . S
C274 C275 1.391 . S
C274 C278 1.397 . S
C275 C270 1.391 . S
C275 C274 1.391 . S
C275 C276 1.399 . S
C276 C275 1.399 . S
C276 C277 1.396 . S
C276 C279 1.453 . S
C276 C280 1.684 . S
C277 C267 1.723 . S
C277 C276 1.396 . S
C277 C278 1.394 . S
C278 C248 1.723 . S
C278 C274 1.397 . S
C278 C277 1.394 . S
C279 H251 0.982 . S
C279 H255 0.979 . S
C279 H256 0.977 . S
C279 C276 1.453 . S
C280 H252 0.979 . S
C280 H253 0.980 . S
C280 H254 0.983 . S
C280 C276 1.684 . S
H281 C299 0.948 . S
H282 C240 0.948 . S
H283 C258 0.979 . S
H284 C258 0.980 . S
H285 C258 0.983 . S
H286 C257 0.982 . S
H287 C257 0.979 . S
H288 C257 0.977 . S
H289 C259 0.948 . S
H290 C261 0.947 . S
H291 C262 0.948 . S
H292 C268 0.982 . S
H293 C268 0.979 . S
H294 C268 0.977 . S
H295 C269 0.979 . S
H296 C269 0.980 . S
H297 C269 0.983 . S
H298 C242 0.947 . S
C299 C242 1.392 . S
C299 C243 1.419 . S
C299 H281 0.948 . S
C300 C301 1.391 . S
C300 C304 1.391 . S
C300 H342 0.948 . S
C301 C300 1.391 . S
C301 C302 1.391 . S
C302 C301 1.391 . S
C302 H358 0.947 . S
C302 C359 1.392 . S
C303 C304 1.391 1_655 S
C303 C307 1.397 . S
C303 C359 1.419 1_655 S
C304 C300 1.391 . S
C304 C303 1.391 1_455 S
C304 C305 1.399 1_455 S
C305 C304 1.399 1_655 S
C305 C308 1.396 . S
C305 C317 1.453 . S
C305 C318 1.684 1_655 S
H306 C330 0.948 . S
C307 C303 1.397 . S
C307 C308 1.394 . S
C307 C326 1.723 . S
C308 C305 1.396 . S
C308 C307 1.394 . S
C308 C338 1.723 . S
H309 C332 0.947 . S
H310 C333 0.948 . S
H311 C339 0.982 . S
H312 C340 0.979 . S
H313 C340 0.980 . S
H314 C340 0.983 . S
H315 C339 0.979 . S
H316 C339 0.977 . S
C317 C305 1.453 . S
C317 H346 0.982 . S
C317 H347 0.979 . S
C317 H348 0.977 . S
C318 C305 1.684 1_455 S
C318 H343 0.979 . S
C318 H344 0.980 1_455 S
C318 H345 0.983 . S
C319 C320 1.391 . S
C319 C324 1.391 . S
C319 H349 0.948 . S
C320 C319 1.391 . S
C320 C321 1.391 . S
C321 C320 1.391 . S
C321 C322 1.392 . S
C321 H350 0.947 . S
C322 C321 1.392 . S
C322 C323 1.419 . S
C322 H351 0.948 . S
C323 C322 1.419 . S
C323 C324 1.391 . S
C323 C327 1.397 . S
C324 C319 1.391 . S
C324 C323 1.391 . S
C324 C325 1.399 . S
C325 C324 1.399 . S
C325 C326 1.396 . S
C325 C328 1.453 . S
C325 C329 1.684 . S
C326 C307 1.723 . S
C326 C325 1.396 . S
C326 C327 1.394 . S
C327 C323 1.397 . S
C327 C326 1.394 . S
C327 C337 1.723 . S
C328 C325 1.453 . S
C328 H352 0.982 . S
C328 H353 0.979 . S
C328 H354 0.977 . S
C329 C325 1.684 . S
C329 H355 0.979 . S
C329 H356 0.992 . S
C329 H357 0.983 . S
C330 H306 0.948 . S
C330 C331 1.391 . S
C330 C335 1.391 . S
C331 C330 1.391 . S
C331 C332 1.391 . S
C332 H309 0.947 . S
C332 C331 1.391 . S
C332 C333 1.392 . S
C333 H310 0.948 . S
C333 C332 1.392 . S
C333 C334 1.419 . S
C334 C333 1.419 . S
C334 C335 1.391 . S
C334 C338 1.397 . S
C335 C330 1.391 . S
C335 C334 1.391 . S
C335 C336 1.399 . S
C336 C335 1.399 . S
C336 C337 1.396 . S
C336 C339 1.453 . S
C336 C340 1.684 . S
C337 C327 1.723 . S
C337 C336 1.396 . S
C337 C338 1.394 . S
C338 C308 1.723 . S
C338 C334 1.397 . S
C338 C337 1.394 . S
C339 H311 0.982 . S
C339 H315 0.979 . S
C339 H316 0.977 . S
C339 C336 1.453 . S
C340 H312 0.979 . S
C340 H313 0.980 . S
C340 H314 0.983 . S
C340 C336 1.684 . S
H341 C359 0.948 . S
H342 C300 0.948 . S
H343 C318 0.979 . S
H344 C318 0.980 1_655 S
H345 C318 0.983 . S
H346 C317 0.982 . S
H347 C317 0.979 . S
H348 C317 0.977 . S
H349 C319 0.948 . S
H350 C321 0.947 . S
H351 C322 0.948 . S
H352 C328 0.982 . S
H353 C328 0.979 . S
H354 C328 0.977 . S
H355 C329 0.979 . S
H356 C329 0.992 . S
H357 C329 0.983 . S
H358 C302 0.947 . S
C359 C302 1.392 . S
C359 C303 1.419 1_455 S
C359 H341 0.948 . S
C360 C361 1.391 . S
C360 C364 1.391 . S
C360 H402 0.948 . S
C361 C360 1.391 . S
C361 C362 1.391 . S
C362 C361 1.391 . S
C362 H418 0.947 . S
C362 C419 1.392 . S
C363 C364 1.391 . S
C363 C367 1.397 . S
C363 C419 1.419 . S
C364 C360 1.391 . S
C364 C363 1.391 . S
C364 C365 1.399 . S
C365 C364 1.399 . S
C365 C368 1.396 . S
C365 C377 1.453 . S
C365 C378 1.684 . S
H366 C390 0.948 . S
C367 C363 1.397 . S
C367 C368 1.394 . S
C367 C386 1.723 . S
C368 C365 1.396 . S
C368 C367 1.394 . S
C368 C398 1.723 . S
H369 C392 0.947 . S
H370 C393 0.948 . S
H371 C399 0.982 . S
H372 C400 0.979 . S
H373 C400 0.980 . S
H374 C400 0.983 . S
H375 C399 0.979 . S
H376 C399 0.977 . S
C377 C365 1.453 . S
C377 H406 0.982 . S
C377 H407 0.979 . S
C377 H408 0.977 . S
C378 C365 1.684 . S
C378 H403 0.979 . S
C378 H404 0.980 . S
C378 H405 0.983 . S
C379 C380 1.391 . S
C379 C384 1.391 . S
C379 H409 0.948 . S
C380 C379 1.391 . S
C380 C381 1.391 . S
C381 C380 1.391 . S
C381 C382 1.392 . S
C381 H410 0.947 . S
C382 C381 1.392 . S
C382 C383 1.419 . S
C382 H411 0.948 . S
C383 C382 1.419 . S
C383 C384 1.391 . S
C383 C387 1.397 . S
C384 C379 1.391 . S
C384 C383 1.391 . S
C384 C385 1.399 . S
C385 C384 1.399 . S
C385 C386 1.396 . S
C385 C388 1.453 . S
C385 C389 1.684 . S
C386 C367 1.723 . S
C386 C385 1.396 . S
C386 C387 1.394 . S
C387 C383 1.397 . S
C387 C386 1.394 . S
C387 C397 1.723 . S
C388 C385 1.453 . S
C388 H412 0.982 . S
C388 H413 0.979 . S
C388 H414 0.977 . S
C389 C385 1.684 . S
C389 H415 0.979 . S
C389 H416 0.980 . S
C389 H417 0.983 . S
C390 H366 0.948 . S
C390 C391 1.391 . S
C390 C395 1.391 . S
C391 C390 1.391 . S
C391 C392 1.391 . S
C392 H369 0.947 . S
C392 C391 1.391 . S
C392 C393 1.392 . S
C393 H370 0.948 . S
C393 C392 1.392 . S
C393 C394 1.419 . S
C394 C393 1.419 . S
C394 C395 1.391 . S
C394 C398 1.397 . S
C395 C390 1.391 . S
C395 C394 1.391 . S
C395 C396 1.399 . S
C396 C395 1.399 . S
C396 C397 1.396 . S
C396 C399 1.453 . S
C396 C400 1.684 . S
C397 C387 1.723 . S
C397 C396 1.396 . S
C397 C398 1.394 . S
C398 C368 1.723 . S
C398 C394 1.397 . S
C398 C397 1.394 . S
C399 H371 0.982 . S
C399 H375 0.979 . S
C399 H376 0.977 . S
C399 C396 1.453 . S
C400 H372 0.979 . S
C400 H373 0.980 . S
C400 H374 0.983 . S
C400 C396 1.684 . S
H401 C419 0.948 . S
H402 C360 0.948 . S
H403 C378 0.979 . S
H404 C378 0.980 . S
H405 C378 0.983 . S
H406 C377 0.982 . S
H407 C377 0.979 . S
H408 C377 0.977 . S
H409 C379 0.948 . S
H410 C381 0.947 . S
H411 C382 0.948 . S
H412 C388 0.982 . S
H413 C388 0.979 . S
H414 C388 0.977 . S
H415 C389 0.979 . S
H416 C389 0.980 . S
H417 C389 0.983 . S
H418 C362 0.947 . S
C419 C362 1.392 . S
C419 C363 1.419 . S
C419 H401 0.948 . S
C420 C421 1.391 . S
C420 C424 1.391 . S
C420 H462 0.948 . S
C421 C420 1.391 . S
C421 C422 1.391 . S
C422 C421 1.391 . S
C422 H478 0.947 . S
C422 C479 1.392 . S
C423 C424 1.391 . S
C423 C427 1.397 . S
C423 C479 1.419 . S
C424 C420 1.391 . S
C424 C423 1.391 . S
C424 C425 1.399 . S
C425 C424 1.399 . S
C425 C428 1.396 . S
C425 C437 1.453 . S
C425 C438 1.684 . S
H426 C450 0.948 . S
C427 C423 1.397 . S
C427 C428 1.394 . S
C427 C446 1.723 . S
C428 C425 1.396 . S
C428 C427 1.394 . S
C428 C458 1.723 . S
H429 C452 0.936 1_655 S
H430 C453 0.948 . S
H431 C459 0.982 . S
H432 C460 0.979 . S
H433 C460 0.980 . S
H434 C460 0.983 . S
H435 C459 0.979 . S
H436 C459 0.977 . S
C437 C425 1.453 . S
C437 H466 0.982 1_455 S
C437 H467 0.979 1_455 S
C437 H468 0.977 . S
C438 C425 1.684 . S
C438 H463 0.979 . S
C438 H464 0.980 . S
C438 H465 0.983 . S
C439 C440 1.391 . S
C439 C444 1.391 . S
C439 H469 0.948 . S
C440 C439 1.391 . S
C440 C441 1.391 . S
C441 C440 1.391 . S
C441 C442 1.392 . S
C441 H470 0.947 . S
C442 C441 1.392 . S
C442 C443 1.419 . S
C442 H471 0.948 . S
C443 C442 1.419 . S
C443 C444 1.391 . S
C443 C447 1.397 . S
C444 C439 1.391 . S
C444 C443 1.391 . S
C444 C445 1.399 . S
C445 C444 1.399 . S
C445 C446 1.396 . S
C445 C448 1.453 . S
C445 C449 1.684 . S
C446 C427 1.723 . S
C446 C445 1.396 . S
C446 C447 1.394 . S
C447 C443 1.397 . S
C447 C446 1.394 . S
C447 C457 1.723 . S
C448 C445 1.453 . S
C448 H472 0.982 . S
C448 H473 0.979 . S
C448 H474 0.977 . S
C449 C445 1.684 . S
C449 H475 0.979 . S
C449 H476 0.980 . S
C449 H477 0.983 . S
C450 H426 0.948 . S
C450 C451 1.391 . S
C450 C455 1.391 . S
C451 C450 1.391 . S
C451 C452 1.391 . S
C452 H429 0.936 1_455 S
C452 C451 1.391 . S
C452 C453 1.392 . S
C453 H430 0.948 . S
C453 C452 1.392 . S
C453 C454 1.419 . S
C454 C453 1.419 . S
C454 C455 1.391 . S
C454 C458 1.397 . S
C455 C450 1.391 . S
C455 C454 1.391 . S
C455 C456 1.399 . S
C456 C455 1.399 . S
C456 C457 1.396 . S
C456 C459 1.453 . S
C456 C460 1.684 . S
C457 C447 1.723 . S
C457 C456 1.396 . S
C457 C458 1.394 . S
C458 C428 1.723 . S
C458 C454 1.397 . S
C458 C457 1.394 . S
C459 H431 0.982 . S
C459 H435 0.979 . S
C459 H436 0.977 . S
C459 C456 1.453 . S
C460 H432 0.979 . S
C460 H433 0.980 . S
C460 H434 0.983 . S
C460 C456 1.684 . S
H461 C479 0.948 . S
H462 C420 0.948 . S
H463 C438 0.979 . S
H464 C438 0.980 . S
H465 C438 0.983 . S
H466 C437 0.982 1_655 S
H467 C437 0.979 1_655 S
H468 C437 0.977 . S
H469 C439 0.948 . S
H470 C441 0.947 . S
H471 C442 0.948 . S
H472 C448 0.982 . S
H473 C448 0.979 . S
H474 C448 0.977 . S
H475 C449 0.979 . S
H476 C449 0.980 . S
H477 C449 0.983 . S
H478 C422 0.947 . S
C479 C422 1.392 . S
C479 C423 1.419 . S
C479 H461 0.948 . S
Dy480 O483 2.307 1_545 S
Dy480 O485 2.395 . S
Dy480 O486 2.379 . S
Dy480 O488 2.339 1_545 S
Dy480 O490 2.298 . S
Dy480 O494 2.275 . S
Dy480 C502 2.738 . S
Dy481 O484 2.298 . S
Dy481 O487 2.275 . S
Dy481 O489 2.307 1_565 S
Dy481 O491 2.395 . S
Dy481 O492 2.379 . S
Dy481 O495 2.339 1_565 S
Dy481 C511 2.738 . S
C482 O494 1.254 . S
C482 O495 1.257 1_455 S
O483 Dy480 2.307 1_565 S
O483 C493 1.266 . S
O484 Dy481 2.298 . S
O484 C493 1.236 1_655 S
O485 Dy480 2.395 . S
O485 C502 1.255 . S
O486 Dy480 2.379 . S
O486 C502 1.249 . S
O487 Dy481 2.275 . S
O487 C503 1.254 . S
O488 Dy480 2.339 1_565 S
O488 C503 1.257 1_455 S
O489 Dy481 2.307 1_545 S
O489 C504 1.266 . S
O490 Dy480 2.298 . S
O490 C504 1.236 1_455 S
O491 Dy481 2.395 . S
O491 C511 1.255 . S
O492 Dy481 2.379 . S
O492 C511 1.249 . S
C493 O483 1.266 . S
C493 O484 1.236 1_455 S
O494 Dy480 2.275 . S
O494 C482 1.254 . S
O495 Dy481 2.339 1_545 S
O495 C482 1.257 1_655 S
C496 C499 1.344 . S
C496 C500 1.328 . S
C496 C502 1.516 . S
C497 C498 1.304 . S
C497 C501 1.323 . S
C498 C497 1.304 . S
C498 C499 1.371 . S
C498 H512 0.930 . S
C499 C496 1.344 . S
C499 C498 1.371 . S
C499 H513 0.931 . S
C500 C496 1.328 . S
C500 C501 1.433 . S
C500 H514 0.931 . S
C501 C497 1.323 . S
C501 C500 1.433 . S
C501 H515 0.933 . S
C502 Dy480 2.738 . S
C502 O485 1.255 . S
C502 O486 1.249 . S
C502 C496 1.516 . S
C503 O487 1.254 . S
C503 O488 1.257 1_655 S
C504 O489 1.266 . S
C504 O490 1.236 1_655 S
C505 C508 1.344 . S
C505 C509 1.328 . S
C505 C511 1.516 . S
C506 C507 1.304 . S
C506 C510 1.323 . S
C507 C506 1.304 . S
C507 C508 1.371 . S
C507 H516 0.930 . S
C508 C505 1.344 . S
C508 C507 1.371 . S
C508 H517 0.931 . S
C509 C505 1.328 . S
C509 C510 1.433 . S
C509 H518 0.931 . S
C510 C506 1.323 . S
C510 C509 1.433 . S
C510 H519 0.933 . S
C511 Dy481 2.738 . S
C511 O491 1.255 . S
C511 O492 1.249 . S
C511 C505 1.516 . S
H512 C498 0.930 . S
H513 C499 0.931 . S
H514 C500 0.931 . S
H515 C501 0.933 . S
H516 C507 0.930 . S
H517 C508 0.931 . S
H518 C509 0.931 . S
H519 C510 0.933 . S
Dy520 O523 2.307 1_566 S
Dy520 O525 2.395 . S
Dy520 O526 2.379 . S
Dy520 O528 2.339 1_565 S
Dy520 O530 2.298 . S
Dy520 O534 2.275 1_556 S
Dy520 C542 2.738 . S
Dy521 O524 2.298 . S
Dy521 O527 2.275 1_554 S
Dy521 O529 2.307 1_544 S
Dy521 O531 2.395 . S
Dy521 O532 2.379 . S
Dy521 O535 2.339 1_545 S
Dy521 C551 2.738 . S
C522 O534 1.254 . S
C522 O535 1.257 . S
O523 Dy520 2.307 1_544 S
O523 C533 1.266 . S
O524 Dy521 2.298 . S
O524 C533 1.236 . S
O525 Dy520 2.395 . S
O525 C542 1.255 . S
O526 Dy520 2.379 . S
O526 C542 1.249 . S
O527 Dy521 2.275 1_556 S
O527 C543 1.254 . S
O528 Dy520 2.339 1_545 S
O528 C543 1.257 . S
O529 Dy521 2.307 1_566 S
O529 C544 1.266 . S
O530 Dy520 2.298 . S
O530 C544 1.236 . S
O531 Dy521 2.395 . S
O531 C551 1.255 . S
O532 Dy521 2.379 . S
O532 C551 1.249 . S
C533 O523 1.266 . S
C533 O524 1.236 . S
O534 Dy520 2.275 1_554 S
O534 C522 1.254 . S
O535 Dy521 2.339 1_565 S
O535 C522 1.257 . S
C536 C539 1.344 . S
C536 C540 1.328 . S
C536 C542 1.516 . S
C537 C538 1.304 . S
C537 C541 1.323 . S
C538 C537 1.304 . S
C538 C539 1.371 . S
C538 H552 0.930 . S
C539 C536 1.344 . S
C539 C538 1.371 . S
C539 H553 0.931 . S
C540 C536 1.328 . S
C540 C541 1.433 . S
C540 H554 0.931 . S
C541 C537 1.323 . S
C541 C540 1.433 . S
C541 H555 0.933 . S
C542 Dy520 2.738 . S
C542 O525 1.255 . S
C542 O526 1.249 . S
C542 C536 1.516 . S
C543 O527 1.254 . S
C543 O528 1.257 . S
C544 O529 1.266 . S
C544 O530 1.236 . S
C545 C548 1.344 . S
C545 C549 1.328 . S
C545 C551 1.516 . S
C546 C547 1.304 . S
C546 C550 1.323 . S
C547 C546 1.304 . S
C547 C548 1.371 . S
C547 H556 0.930 . S
C548 C545 1.344 . S
C548 C547 1.371 . S
C548 H557 0.931 . S
C549 C545 1.328 . S
C549 C550 1.433 . S
C549 H558 0.931 . S
C550 C546 1.323 . S
C550 C549 1.433 . S
C550 H559 0.933 . S
C551 Dy521 2.738 . S
C551 O531 1.255 . S
C551 O532 1.249 . S
C551 C545 1.516 . S
H552 C538 0.930 . S
H553 C539 0.931 . S
H554 C540 0.931 . S
H555 C541 0.933 . S
H556 C547 0.930 . S
H557 C548 0.931 . S
H558 C549 0.931 . S
H559 C550 0.933 . S
Dy560 O563 2.307 . S
Dy560 O565 2.395 . S
Dy560 O566 2.379 . S
Dy560 O568 2.339 . S
Dy560 O570 2.298 . S
Dy560 O574 2.275 . S
Dy560 C582 2.738 . S
Dy561 O564 2.298 . S
Dy561 O567 2.275 . S
Dy561 O569 2.307 . S
Dy561 O571 2.395 . S
Dy561 O572 2.379 . S
Dy561 O575 2.339 . S
Dy561 C591 2.738 . S
C562 O574 1.254 . S
C562 O575 1.257 . S
O563 Dy560 2.307 . S
O563 C573 1.266 . S
O564 Dy561 2.298 . S
O564 C573 1.236 . S
O565 Dy560 2.395 . S
O565 C582 1.255 . S
O566 Dy560 2.379 . S
O566 C582 1.249 . S
O567 Dy561 2.275 . S
O567 C583 1.254 . S
O568 Dy560 2.339 . S
O568 C583 1.257 . S
O569 Dy561 2.307 . S
O569 C584 1.266 . S
O570 Dy560 2.298 . S
O570 C584 1.236 . S
O571 Dy561 2.395 . S
O571 C591 1.255 . S
O572 Dy561 2.379 . S
O572 C591 1.249 . S
C573 O563 1.266 . S
C573 O564 1.236 . S
O574 Dy560 2.275 . S
O574 C562 1.254 . S
O575 Dy561 2.339 . S
O575 C562 1.257 . S
C576 C579 1.344 . S
C576 C580 1.328 . S
C576 C582 1.516 . S
C577 C578 1.304 . S
C577 C581 1.323 . S
C578 C577 1.304 . S
C578 C579 1.371 . S
C578 H592 0.930 . S
C579 C576 1.344 . S
C579 C578 1.371 . S
C579 H593 0.931 . S
C580 C576 1.328 . S
C580 C581 1.433 . S
C580 H594 0.931 . S
C581 C577 1.323 . S
C581 C580 1.433 . S
C581 H595 0.933 . S
C582 Dy560 2.738 . S
C582 O565 1.255 . S
C582 O566 1.249 . S
C582 C576 1.516 . S
C583 O567 1.254 . S
C583 O568 1.257 . S
C584 O569 1.266 . S
C584 O570 1.236 . S
C585 C588 1.344 . S
C585 C589 1.328 . S
C585 C591 1.516 . S
C586 C587 1.304 . S
C586 C590 1.323 . S
C587 C586 1.304 . S
C587 C588 1.371 . S
C587 H596 0.930 . S
C588 C585 1.344 . S
C588 C587 1.371 . S
C588 H597 0.931 . S
C589 C585 1.328 . S
C589 C590 1.433 . S
C589 H598 0.931 . S
C590 C586 1.323 . S
C590 C589 1.433 . S
C590 H599 0.933 . S
C591 Dy561 2.738 . S
C591 O571 1.255 . S
C591 O572 1.249 . S
C591 C585 1.516 . S
H592 C578 0.930 . S
H593 C579 0.931 . S
H594 C580 0.931 . S
H595 C581 0.933 . S
H596 C587 0.930 . S
H597 C588 0.931 . S
H598 C589 0.931 . S
H599 C590 0.933 . S
Dy600 O603 2.308 1_655 S
Dy600 O605 2.395 . S
Dy600 O606 2.379 . S
Dy600 O608 2.339 1_655 S
Dy600 O610 2.298 . S
Dy600 O614 2.275 1_556 S
Dy600 C622 2.738 . S
Dy601 O604 2.298 . S
Dy601 O607 2.275 1_554 S
Dy601 O609 2.311 1_455 S
Dy601 O611 2.395 . S
Dy601 O612 2.379 . S
Dy601 O615 2.339 1_455 S
Dy601 C631 2.738 . S
C602 O614 1.254 . S
C602 O615 1.257 . S
O603 Dy600 2.308 1_455 S
O603 C613 1.265 1_556 S
O604 Dy601 2.298 . S
O604 C613 1.236 . S
O605 Dy600 2.395 . S
O605 C622 1.255 . S
O606 Dy600 2.379 . S
O606 C622 1.249 . S
O607 Dy601 2.275 1_556 S
O607 C623 1.254 . S
O608 Dy600 2.339 1_455 S
O608 C623 1.257 . S
O609 Dy601 2.311 1_655 S
O609 C624 1.261 1_554 S
O610 Dy600 2.298 . S
O610 C624 1.236 . S
O611 Dy601 2.395 . S
O611 C631 1.255 . S
O612 Dy601 2.379 . S
O612 C631 1.249 . S
C613 O603 1.265 1_554 S
C613 O604 1.236 . S
O614 Dy600 2.275 1_554 S
O614 C602 1.254 . S
O615 Dy601 2.339 1_655 S
O615 C602 1.257 . S
C616 C619 1.344 . S
C616 C620 1.328 . S
C616 C622 1.516 . S
C617 C618 1.304 . S
C617 C621 1.323 . S
C618 C617 1.304 . S
C618 C619 1.371 . S
C618 H632 0.930 . S
C619 C616 1.344 . S
C619 C618 1.371 . S
C619 H633 0.931 . S
C620 C616 1.328 . S
C620 C621 1.433 . S
C620 H634 0.931 . S
C621 C617 1.323 . S
C621 C620 1.433 . S
C621 H635 0.933 . S
C622 Dy600 2.738 . S
C622 O605 1.255 . S
C622 O606 1.249 . S
C622 C616 1.516 . S
C623 O607 1.254 . S
C623 O608 1.257 . S
C624 O609 1.261 1_556 S
C624 O610 1.236 . S
C625 C628 1.344 . S
C625 C629 1.328 . S
C625 C631 1.516 . S
C626 C627 1.304 . S
C626 C630 1.323 . S
C627 C626 1.304 . S
C627 C628 1.371 . S
C627 H636 0.930 . S
C628 C625 1.344 . S
C628 C627 1.371 . S
C628 H637 0.931 . S
C629 C625 1.328 . S
C629 C630 1.433 . S
C629 H638 0.931 . S
C630 C626 1.323 . S
C630 C629 1.433 . S
C630 H639 0.933 . S
C631 Dy601 2.738 . S
C631 O611 1.255 . S
C631 O612 1.249 . S
C631 C625 1.516 . S
H632 C618 0.930 . S
H633 C619 0.931 . S
H634 C620 0.931 . S
H635 C621 0.933 . S
H636 C627 0.930 . S
H637 C628 0.931 . S
H638 C629 0.931 . S
H639 C630 0.933 . S
C1 C497 1.897 . S
C80 C537 2.132 . S
C562 C140 3.543 . S
C211 C602 3.665 . S
C533 C31 3.361 . S
C493 C61 3.628 1_455 S
C624 C151 2.327 . S
C584 C200 2.587 . S
C20 C626 3.344 . S
C543 C121 3.196 . S
C181 C503 3.032 . S
C91 C586 3.534 . S
C506 C260 2.173 . S
C320 C546 2.132 . S
C361 C583 3.552 . S
C451 C623 3.665 . S
C271 C544 3.485 . S
C504 C301 3.627 1_655 S
C613 C380 2.311 . S
C573 C440 2.587 . S
C241 C617 3.030 . S
C522 C391 3.237 . S
C482 C421 3.032 . S
C331 C577 3.534 . S
