# Generated by pormake.
# Topology rtl, (3,6)-cn, num edge types: 1
# Building blocks:
#     Node 0, Type 0, BuildingBlock: KAKCAD_clean_linker_0, # of connection points: 3
#     Node 1, Type 0, BuildingBlock: KAKCAD_clean_linker_0, # of connection points: 3
#     Node 2, Type 0, BuildingBlock: KAKCAD_clean_linker_0, # of connection points: 3
#     Node 3, Type 0, BuildingBlock: KAKCAD_clean_linker_0, # of connection points: 3
#     Node 4, Type 1, BuildingBlock: VOLQOD_clean_sbu_1, # of connection points: 6
#     Node 5, Type 1, BuildingBlock: VOLQOD_clean_sbu_1, # of connection points: 6
#     Edge 6, Type (0, 1), BuildingBlock: CIFDUS_clean_linker_0, # of connection points: 2
#     Edge 7, Type (0, 1), BuildingBlock: CIFDUS_clean_linker_0, # of connection points: 2
#     Edge 8, Type (0, 1), BuildingBlock: CIFDUS_clean_linker_0, # of connection points: 2
#     Edge 9, Type (0, 1), BuildingBlock: CIFDUS_clean_linker_0, # of connection points: 2
#     Edge 10, Type (0, 1), BuildingBlock: CIFDUS_clean_linker_0, # of connection points: 2
#     Edge 11, Type (0, 1), BuildingBlock: CIFDUS_clean_linker_0, # of connection points: 2
#     Edge 12, Type (0, 1), BuildingBlock: CIFDUS_clean_linker_0, # of connection points: 2
#     Edge 13, Type (0, 1), BuildingBlock: CIFDUS_clean_linker_0, # of connection points: 2
#     Edge 14, Type (0, 1), BuildingBlock: CIFDUS_clean_linker_0, # of connection points: 2
#     Edge 15, Type (0, 1), BuildingBlock: CIFDUS_clean_linker_0, # of connection points: 2
#     Edge 16, Type (0, 1), BuildingBlock: CIFDUS_clean_linker_0, # of connection points: 2
#     Edge 17, Type (0, 1), BuildingBlock: CIFDUS_clean_linker_0, # of connection points: 2
# Relax obj value: 0.078
# Max RMSD: 0.156
# Mean RMSD: 0.088
data_MOF--net-rtl--node1-VOLQOD_clean_sbu_1--node2-KAKCAD_clean_linker_0--edge1-CIFDUS_clean_linker_0
_symmetry_space_group_name_H-M    P1
_symmetry_Int_Tables_number       1
_symmetry_cell_setting            triclinic
loop_
_symmetry_equiv_pos_as_xyz
'x, y, z'
_cell_length_a     40.650979
_cell_length_b     35.116373
_cell_length_c     26.379976
_cell_angle_alpha  89.767629
_cell_angle_beta   90.64243
_cell_angle_gamma 89.642363
loop_
_atom_site_label
_atom_site_type_symbol
_atom_site_fract_x
_atom_site_fract_y
_atom_site_fract_z
_atom_type_partial_charge
C0 C 0.09399 0.76205 0.8315 0.0
C1 C 0.09317 0.80208 0.83391 0.0
C2 C 0.09876 0.7403 0.87577 0.0
C3 C 0.10207 0.75837 0.92297 0.0
C4 C 0.10129 0.79831 0.92503 0.0
C5 C 0.09691 0.81986 0.88114 0.0
C6 C 0.10662 0.7366 0.97076 0.0
C7 C 0.13264 0.7105 0.97673 0.0
C8 C 0.14127 0.69639 0.02519 0.0
C9 C 0.12328 0.70857 0.06753 0.0
C10 C 0.09717 0.7347 0.06193 0.0
C11 C 0.08815 0.74701 0.01305 0.0
C12 C 0.08279 0.75378 0.10689 0.0
C13 C 0.07757 0.73406 0.15263 0.0
C14 C 0.07632 0.79316 0.10503 0.0
C15 C 0.06549 0.81243 0.14767 0.0
C16 C 0.06148 0.79317 0.19388 0.0
C17 C 0.17145 0.67279 0.03221 0.0
C18 C 0.17911 0.64365 -0.00212 0.0
C19 C 0.19379 0.68071 0.07185 0.0
C20 C 0.22344 0.66062 0.07633 0.0
C21 C 0.23152 0.63225 0.04116 0.0
C22 C 0.20881 0.62357 0.00233 0.0
C23 C 0.067 0.7536 0.19578 0.0
H24 H 0.09124 0.74769 0.79546 0.0
H25 H 0.09939 0.70953 0.8733 0.0
H26 H 0.10426 0.81302 0.96082 0.0
H27 H 0.09599 0.8506 0.8843 0.0
H28 H 0.1477 0.70354 0.94436 0.0
H29 H 0.06786 0.7669 0.00805 0.0
H30 H 0.13077 0.69923 0.10512 0.0
H31 H 0.08209 0.7037 0.15528 0.0
H32 H 0.08069 0.80966 0.07103 0.0
H33 H 0.06079 0.84276 0.14456 0.0
H34 H 0.16225 0.63662 0.96729 0.0
H35 H 0.18899 0.70348 0.09839 0.0
H36 H 0.06414 0.73798 0.23092 0.0
H37 H 0.21416 0.60148 0.97504 0.0
H38 H 0.2406 0.6684 0.10617 0.0
C39 C 0.5661 0.74424 0.669 0.0
C40 C 0.59006 0.72651 0.70014 0.0
C41 C 0.57481 0.76072 0.62284 0.0
C42 C 0.60769 0.76023 0.60722 0.0
C43 C 0.63194 0.74476 0.63974 0.0
C44 C 0.62321 0.72797 0.6857 0.0
C45 C 0.61637 0.77208 0.55517 0.0
C46 C 0.64404 0.79466 0.54664 0.0
C47 C 0.65469 0.80216 0.49712 0.0
C48 C 0.6374 0.78626 0.45587 0.0
C49 C 0.60973 0.76318 0.46384 0.0
C50 C 0.59894 0.75722 0.51367 0.0
C51 C 0.59378 0.74261 0.42095 0.0
C52 C 0.58992 0.75971 0.37288 0.0
C53 C 0.58318 0.70485 0.42761 0.0
C54 C 0.56894 0.68483 0.38756 0.0
C55 C 0.56536 0.70178 0.33957 0.0
C56 C 0.6855 0.82387 0.48937 0.0
C57 C 0.6928 0.85556 0.51982 0.0
C58 C 0.70895 0.81137 0.45431 0.0
C59 C 0.73954 0.8291 0.45136 0.0
C60 C 0.74746 0.85955 0.48365 0.0
C61 C 0.72346 0.8731 0.51714 0.0
C62 C 0.57601 0.73939 0.33249 0.0
H63 H 0.54043 0.74434 0.67956 0.0
H64 H 0.55573 0.77289 0.59867 0.0
H65 H 0.65745 0.74366 0.62835 0.0
H66 H 0.64223 0.71426 0.70845 0.0
H67 H 0.65793 0.80529 0.57885 0.0
H68 H 0.57772 0.73948 0.52046 0.0
H69 H 0.64615 0.79086 0.41773 0.0
H70 H 0.5975 0.78882 0.36647 0.0
H71 H 0.58656 0.69025 0.46354 0.0
H72 H 0.56151 0.65562 0.39382 0.0
H73 H 0.67508 0.86624 0.54671 0.0
H74 H 0.70428 0.78687 0.43056 0.0
H75 H 0.57338 0.75314 0.29582 0.0
H76 H 0.72876 0.8963 0.54282 0.0
H77 H 0.75725 0.81837 0.4245 0.0
C78 C 0.90034 0.22425 0.18175 0.0
C79 C 0.93454 0.21939 0.18801 0.0
C80 C 0.88751 0.24486 0.14057 0.0
C81 C 0.90857 0.26074 0.10445 0.0
C82 C 0.94272 0.2571 0.11149 0.0
C83 C 0.95559 0.23688 0.153 0.0
C84 C 0.89484 0.27805 0.05741 0.0
C85 C 0.86848 0.30402 0.05924 0.0
C86 C 0.85351 0.31767 0.01435 0.0
C87 C 0.8652 0.30491 0.96738 0.0
C88 C 0.89135 0.27867 0.96499 0.0
C89 C 0.90634 0.26589 0.01017 0.0
C90 C 0.90104 0.26162 0.91594 0.0
C91 C 0.87688 0.24842 0.88193 0.0
C92 C 0.93437 0.25575 0.90454 0.0
C93 C 0.94331 0.23609 0.86079 0.0
C94 C 0.91912 0.22166 0.82765 0.0
C95 C 0.8241 0.34291 0.01636 0.0
C96 C 0.79865 0.33495 0.05033 0.0
C97 C 0.8204 0.37379 0.98262 0.0
C98 C 0.79147 0.39558 0.98195 0.0
C99 C 0.76559 0.38671 0.01474 0.0
C100 C 0.76973 0.35657 0.04949 0.0
C101 C 0.8858 0.22862 0.83834 0.0
H102 H 0.88333 0.21077 0.20741 0.0
H103 H 0.86106 0.24682 0.13568 0.0
H104 H 0.95948 0.2694 0.0844 0.0
H105 H 0.98205 0.23445 0.15716 0.0
H106 H 0.85952 0.3134 0.0957 0.0
H107 H 0.9257 0.24455 0.00872 0.0
H108 H 0.8532 0.31438 0.93262 0.0
H109 H 0.85098 0.25196 0.89008 0.0
H110 H 0.95352 0.26596 0.92982 0.0
H111 H 0.9692 0.23185 0.85321 0.0
H112 H 0.8006 0.31115 0.07647 0.0
H113 H 0.83973 0.38081 0.9563 0.0
H114 H 0.86651 0.21747 0.81407 0.0
H115 H 0.75034 0.34935 0.07562 0.0
H116 H 0.78891 0.41854 0.9546 0.0
C117 C 0.40491 0.28631 0.32941 0.0
C118 C 0.43714 0.30029 0.32998 0.0
C119 C 0.39392 0.26327 0.36889 0.0
C120 C 0.41514 0.2532 0.40942 0.0
C121 C 0.44809 0.2653 0.408 0.0
C122 C 0.45886 0.289 0.36897 0.0
C123 C 0.40179 0.23434 0.45546 0.0
C124 C 0.37561 0.20847 0.45169 0.0
C125 C 0.3581 0.19707 0.49494 0.0
C126 C 0.36896 0.20983 0.5428 0.0
C127 C 0.39633 0.23368 0.54746 0.0
C128 C 0.41239 0.24603 0.50375 0.0
C129 C 0.40629 0.24911 0.59742 0.0
C130 C 0.38269 0.26519 0.62953 0.0
C131 C 0.43968 0.25036 0.61162 0.0
C132 C 0.44941 0.26857 0.65626 0.0
C133 C 0.42592 0.28615 0.68716 0.0
C134 C 0.32674 0.17528 0.48996 0.0
C135 C 0.30625 0.17998 0.44697 0.0
C136 C 0.31566 0.15191 0.52967 0.0
C137 C 0.28425 0.13602 0.528 0.0
C138 C 0.26337 0.14173 0.48565 0.0
C139 C 0.27539 0.16287 0.44446 0.0
C140 C 0.39243 0.28364 0.67391 0.0
H141 H 0.38768 0.29488 0.29981 0.0
H142 H 0.36826 0.25521 0.36888 0.0
H143 H 0.46534 0.25746 0.43788 0.0
H144 H 0.48397 0.29915 0.36973 0.0
H145 H 0.3683 0.19819 0.41465 0.0
H146 H 0.43175 0.26693 0.50747 0.0
H147 H 0.35558 0.20245 0.57665 0.0
H148 H 0.35682 0.26494 0.61927 0.0
H149 H 0.45832 0.23797 0.58758 0.0
H150 H 0.47539 0.27031 0.66545 0.0
H151 H 0.31329 0.19802 0.41563 0.0
H152 H 0.33085 0.14647 0.56288 0.0
H153 H 0.37383 0.29674 0.69734 0.0
H154 H 0.26078 0.16703 0.41033 0.0
H155 H 0.27618 0.12031 0.56089 0.0
O156 O 0.92161 0.00777 0.51741 0.0
Zn157 Zn 0.96265 0.03988 0.52112 0.0
O158 O 0.00227 0.00812 0.51615 0.0
Zn159 Zn 0.02993 0.01411 0.57656 0.0
Zn160 Zn 0.99005 0.95442 0.5098 0.0
Zn161 Zn 0.02686 0.02414 0.45677 0.0
O162 O 0.07521 0.03249 0.55885 0.0
O163 O 0.07125 0.04445 0.47622 0.0
O164 O 0.96299 0.06949 0.58631 0.0
O165 O 0.00958 0.0518 0.62477 0.0
O166 O 0.03609 0.9644 0.61317 0.0
O167 O 0.00698 0.92269 0.56876 0.0
O168 O 0.00868 0.93146 0.4464 0.0
O169 O 0.95931 0.07782 0.46356 0.0
O170 O 0.03467 0.97986 0.41064 0.0
O171 O 0.003 0.06489 0.41695 0.0
C172 C 0.91696 0.9723 0.51045 0.0
C173 C 0.08753 0.04447 0.51767 0.0
C174 C 0.02562 0.93072 0.60628 0.0
C175 C 0.98313 0.0715 0.62355 0.0
C176 C 0.02613 0.94505 0.41096 0.0
C177 C 0.97681 0.08394 0.42466 0.0
O178 O 0.94102 0.94916 0.50641 0.0
O179 O 0.57795 0.49903 -0.00191 0.0
Zn180 Zn 0.53868 0.53519 -0.00254 0.0
O181 O 0.497 0.50707 -0.0014 0.0
Zn182 Zn 0.47018 0.52163 0.94027 0.0
Zn183 Zn 0.50577 0.45254 0.99432 0.0
Zn184 Zn 0.47283 0.51823 0.06091 0.0
O185 O 0.42694 0.54295 0.96126 0.0
O186 O 0.42697 0.53908 0.0452 0.0
O187 O 0.54118 0.5695 0.93564 0.0
O188 O 0.49267 0.56064 0.89819 0.0
O189 O 0.46043 0.47744 0.89499 0.0
O190 O 0.48689 0.42897 0.93113 0.0
O191 O 0.48662 0.42488 0.05334 0.0
O192 O 0.54236 0.56898 0.05882 0.0
O193 O 0.46801 0.47064 0.10371 0.0
O194 O 0.49706 0.55738 0.10251 0.0
C195 C 0.57992 0.46277 -0.00245 0.0
C196 C 0.41266 0.54773 0.00341 0.0
C197 C 0.46887 0.44252 0.89562 0.0
C198 C 0.52057 0.5768 0.90008 0.0
C199 C 0.47355 0.43559 0.0945 0.0
C200 C 0.52416 0.57493 0.09704 0.0
O201 O 0.5542 0.44228 0.99595 0.0
H202 H 0.23899 0.07822 0.53339 0.0
H203 H 0.20894 0.17304 0.43792 0.0
H204 H 0.15291 0.1499 0.437 0.0
H205 H 0.11161 0.10397 0.46509 0.0
H206 H 0.13972 0.01493 0.57015 0.0
H207 H 0.19711 0.03557 0.56709 0.0
C208 C 0.2203 0.09443 0.51303 0.0
C209 C 0.22885 0.12724 0.48525 0.0
C210 C 0.18751 0.08221 0.5148 0.0
C211 C 0.20384 0.14702 0.45838 0.0
C212 C 0.17146 0.13413 0.45833 0.0
C213 C 0.13038 0.08918 0.48729 0.0
C214 C 0.12171 0.05795 0.51755 0.0
C215 C 0.163 0.10187 0.48651 0.0
C216 C 0.14597 0.0392 0.54675 0.0
C217 C 0.17873 0.05087 0.54482 0.0
H218 H 0.27173 0.61797 0.96227 0.0
H219 H 0.26544 0.60552 0.12459 0.0
H220 H 0.32103 0.57837 0.12766 0.0
H221 H 0.3718 0.55902 0.08397 0.0
H222 H 0.37695 0.57171 0.92123 0.0
H223 H 0.32137 0.5975 0.91874 0.0
C224 C 0.28228 0.60876 -0.00174 0.0
C225 C 0.26442 0.61363 0.04307 0.0
C226 C 0.31416 0.59333 -0.00026 0.0
C227 C 0.27879 0.60232 0.08954 0.0
C228 C 0.31053 0.58672 0.09131 0.0
C229 C 0.36077 0.56742 0.04798 0.0
C230 C 0.37871 0.56343 0.00295 0.0
C231 C 0.32856 0.58233 0.04664 0.0
C232 C 0.36389 0.57441 0.95661 0.0
C233 C 0.33201 0.58919 0.95503 0.0
H234 H 0.76552 0.934 0.49393 0.0
H235 H 0.80555 0.8206 0.47695 0.0
H236 H 0.86117 0.84564 0.48274 0.0
H237 H 0.89843 0.89906 0.49522 0.0
H238 H 0.85898 0.01244 0.51508 0.0
H239 H 0.80313 0.98782 0.50662 0.0
C240 C 0.7864 0.91473 0.49176 0.0
C241 C 0.78125 0.87547 0.48479 0.0
C242 C 0.81843 0.92921 0.49609 0.0
C243 C 0.80868 0.85102 0.48134 0.0
C244 C 0.84055 0.86525 0.48515 0.0
C245 C 0.87768 0.9185 0.49776 0.0
C246 C 0.88299 0.95755 0.50593 0.0
C247 C 0.84569 0.90421 0.49288 0.0
C248 C 0.85569 0.98222 0.50896 0.0
C249 C 0.82371 0.96818 0.50404 0.0
H250 H 0.70486 0.35588 0.01331 0.0
H251 H 0.7548 0.46371 0.00678 0.0
H252 H 0.70178 0.49708 0.00022 0.0
H253 H 0.64104 0.49533 -0.00267 0.0
H254 H 0.5921 0.38652 0.00353 0.0
H255 H 0.64491 0.35399 0.00961 0.0
C256 C 0.70415 0.38672 0.01099 0.0
C257 C 0.73366 0.40732 0.01099 0.0
C258 C 0.67374 0.40557 0.00711 0.0
C259 C 0.73238 0.44722 0.00671 0.0
C260 C 0.70209 0.46629 0.00312 0.0
C261 C 0.64193 0.46451 -5e-05 0.0
C262 C 0.6125 0.44354 4e-05 0.0
C263 C 0.67257 0.44573 0.00336 0.0
C264 C 0.61422 0.40355 0.00333 0.0
C265 C 0.64447 0.3848 0.00689 0.0
H266 H 0.08574 0.86138 0.22234 0.0
H267 H 0.01815 0.77406 0.26898 0.0
H268 H 0.00211 0.81277 0.34182 0.0
H269 H 0.00552 0.87292 0.38957 0.0
H270 H 0.07155 0.96088 0.33893 0.0
H271 H 0.08941 0.92058 0.26955 0.0
C272 C 0.06723 0.8509 0.2481 0.0
C273 C 0.05284 0.81512 0.23985 0.0
C274 C 0.05766 0.87354 0.28892 0.0
C275 C 0.02968 0.80147 0.27456 0.0
C276 C 0.02034 0.8237 0.31597 0.0
C277 C 0.02388 0.88323 0.36344 0.0
C278 C 0.03704 0.91998 0.3694 0.0
C279 C 0.0339 0.86 0.32315 0.0
C280 C 0.0608 0.93287 0.33513 0.0
C281 C 0.07113 0.90981 0.29546 0.0
H282 H 0.53775 0.67952 0.70639 0.0
H283 H 0.62076 0.72047 0.79328 0.0
H284 H 0.60682 0.67753 0.86298 0.0
H285 H 0.57165 0.62708 0.89816 0.0
H286 H 0.48801 0.58812 0.81061 0.0
H287 H 0.50142 0.6321 0.74263 0.0
C288 C 0.55244 0.67976 0.74095 0.0
C289 C 0.58019 0.7033 0.74459 0.0
C290 C 0.54428 0.65519 0.78072 0.0
C291 C 0.59941 0.7024 0.78928 0.0
C292 C 0.59142 0.67792 0.82919 0.0
C293 C 0.55637 0.62824 0.86421 0.0
C294 C 0.52896 0.60416 0.85951 0.0
C295 C 0.56409 0.65386 0.82509 0.0
C296 C 0.50926 0.60628 0.81539 0.0
C297 C 0.51689 0.63142 0.77637 0.0
H298 H 0.91272 0.21161 0.28523 0.0
H299 H 0.98661 0.16989 0.18259 0.0
H300 H 0.00718 0.12616 0.24752 0.0
H301 H 0.00263 0.09735 0.33169 0.0
H302 H 0.92692 0.13624 0.43306 0.0
H303 H 0.90834 0.18292 0.36996 0.0
C304 C 0.93321 0.19283 0.2769 0.0
C305 C 0.94805 0.19426 0.22894 0.0
C306 C 0.94448 0.16695 0.31405 0.0
C307 C 0.97498 0.17006 0.21932 0.0
C308 C 0.98662 0.14469 0.25632 0.0
C309 C 0.98216 0.11613 0.3402 0.0
C310 C 0.96618 0.11315 0.38708 0.0
C311 C 0.97135 0.14262 0.30359 0.0
C312 C 0.93962 0.13773 0.39724 0.0
C313 C 0.92898 0.16449 0.36118 0.0
H314 H 0.40554 0.35736 0.70913 0.0
H315 H 0.4705 0.26776 0.76192 0.0
H316 H 0.48938 0.30815 0.83181 0.0
H317 H 0.48781 0.36935 0.87684 0.0
H318 H 0.42342 0.45915 0.82189 0.0
H319 H 0.40379 0.41808 0.75399 0.0
C320 C 0.42351 0.34652 0.73636 0.0
C321 C 0.43644 0.30962 0.73078 0.0
C322 C 0.43443 0.36996 0.77584 0.0
C323 C 0.46027 0.29616 0.76555 0.0
C324 C 0.471 0.31919 0.80545 0.0
C325 C 0.46943 0.37992 0.8501 0.0
C326 C 0.45715 0.41731 0.85453 0.0
C327 C 0.45836 0.35623 0.81079 0.0
C328 C 0.43343 0.43057 0.81936 0.0
C329 C 0.4221 0.40709 0.78051 0.0
H330 H 0.59052 0.69349 0.24537 0.0
H331 H 0.50945 0.65949 0.33897 0.0
H332 H 0.48886 0.6182 0.27147 0.0
H333 H 0.49529 0.58971 0.18755 0.0
H334 H 0.57735 0.62228 0.09459 0.0
H335 H 0.59604 0.66627 0.16004 0.0
C336 C 0.56809 0.67744 0.25058 0.0
C337 C 0.55151 0.67945 0.29696 0.0
C338 C 0.55672 0.6533 0.21194 0.0
C339 C 0.52273 0.65813 0.30364 0.0
C340 C 0.51096 0.63457 0.2651 0.0
C341 C 0.51718 0.60653 0.1814 0.0
C342 C 0.53491 0.60249 0.1362 0.0
C343 C 0.52801 0.63154 0.21937 0.0
C344 C 0.56326 0.62459 0.12906 0.0
C345 C 0.57398 0.64984 0.16646 0.0
H346 H 0.96696 0.1672 0.82385 0.0
H347 H 0.89185 0.22232 0.73221 0.0
H348 H 0.90475 0.18044 0.66141 0.0
H349 H 0.93679 0.12767 0.62595 0.0
H350 H 0.01309 0.07392 0.71679 0.0
H351 H 0.00056 0.11626 0.78724 0.0
C352 C 0.95375 0.17053 0.78815 0.0
C353 C 0.9284 0.19786 0.78349 0.0
C354 C 0.96144 0.14654 0.74748 0.0
C355 C 0.91116 0.20121 0.73714 0.0
C356 C 0.91861 0.17737 0.69654 0.0
C357 C 0.95067 0.12514 0.66116 0.0
C358 C 0.97573 0.09748 0.66609 0.0
C359 C 0.94352 0.14974 0.70143 0.0
C360 C 0.99367 0.09492 0.71188 0.0
C361 C 0.98651 0.11911 0.75224 0.0
H362 H 0.43352 0.29419 0.22776 0.0
H363 H 0.46252 0.37031 0.3477 0.0
H364 H 0.4752 0.41983 0.28545 0.0
H365 H 0.47712 0.44171 0.19675 0.0
H366 H 0.4517 0.36397 0.07661 0.0
H367 H 0.43827 0.31488 0.1389 0.0
C368 C 0.44277 0.3216 0.24002 0.0
C369 C 0.44712 0.32879 0.29194 0.0
C370 C 0.45037 0.34965 0.20406 0.0
C371 C 0.4593 0.3642 0.30773 0.0
C372 C 0.46633 0.39253 0.27225 0.0
C373 C 0.46847 0.41406 0.18439 0.0
C374 C 0.46505 0.40647 0.1324 0.0
C375 C 0.46174 0.38566 0.22033 0.0
C376 C 0.45445 0.37037 0.11658 0.0
C377 C 0.44679 0.34234 0.1521 0.0
H378 H 0.04645 0.79377 0.75983 0.0
H379 H 0.12785 0.86439 0.80595 0.0
H380 H 0.11459 0.90978 0.73847 0.0
H381 H 0.07776 0.93171 0.67069 0.0
H382 H 0.99642 0.86163 0.62282 0.0
H383 H 0.01189 0.81356 0.68639 0.0
C384 C 0.06161 0.81873 0.75436 0.0
C385 C 0.08785 0.82598 0.7881 0.0
C386 C 0.05365 0.84498 0.71564 0.0
C387 C 0.10722 0.85852 0.78086 0.0
C388 C 0.09966 0.88448 0.74234 0.0
C389 C 0.0634 0.9059 0.67406 0.0
C390 C 0.03571 0.90051 0.6426 0.0
C391 C 0.07248 0.87846 0.71035 0.0
C392 C 0.01776 0.86657 0.6468 0.0
C393 C 0.02658 0.83909 0.68315 0.0
loop_
_geom_bond_atom_site_label_1
_geom_bond_atom_site_label_2
_geom_bond_distance
_geom_bond_site_symmetry_2
_ccdc_geom_bond_type
C0 C1 1.386 . S
C0 C2 1.397 . S
C0 H24 0.931 . S
C1 C0 1.386 . S
C1 C5 1.397 . S
C2 C0 1.397 . S
C2 C3 1.384 . S
C2 H25 0.930 . S
C3 C2 1.384 . S
C3 C4 1.377 . S
C3 C6 1.481 . S
C4 C3 1.377 . S
C4 C5 1.389 . S
C4 H26 0.929 . S
C5 C1 1.397 . S
C5 C4 1.389 . S
C5 H27 0.931 . S
C6 C3 1.481 . S
C6 C7 1.387 . S
C6 C11 1.390 1_556 S
C7 C6 1.387 . S
C7 C8 1.401 1_556 S
C7 H28 0.930 . S
C8 C7 1.401 1_554 S
C8 C9 1.376 . S
C8 C17 1.511 . S
C9 C8 1.376 . S
C9 C10 1.392 . S
C9 H30 0.931 . S
C10 C9 1.392 . S
C10 C11 1.361 . S
C10 C12 1.500 . S
C11 C6 1.390 1_554 S
C11 C10 1.361 . S
C11 H29 0.931 . S
C12 C10 1.500 . S
C12 C13 1.371 . S
C12 C14 1.365 . S
C13 C12 1.371 . S
C13 C23 1.386 . S
C13 H31 0.931 . S
C14 C12 1.365 . S
C14 C15 1.409 . S
C14 H32 0.929 . S
C15 C14 1.409 . S
C15 C16 1.380 . S
C15 H33 0.930 . S
C16 C15 1.380 . S
C16 C23 1.357 . S
C17 C8 1.511 . S
C17 C18 1.341 1_554 S
C17 C19 1.371 . S
C18 C17 1.341 1_556 S
C18 C22 1.394 . S
C18 H34 0.930 . S
C19 C17 1.371 . S
C19 C20 1.392 . S
C19 H35 0.931 . S
C20 C19 1.392 . S
C20 C21 1.331 . S
C20 H38 0.932 . S
C21 C20 1.331 . S
C21 C22 1.336 1_554 S
C22 C18 1.394 . S
C22 C21 1.336 1_556 S
C22 H37 0.929 . S
C23 C13 1.386 . S
C23 C16 1.357 . S
C23 H36 0.928 . S
H24 C0 0.931 . S
H25 C2 0.930 . S
H26 C4 0.929 . S
H27 C5 0.931 . S
H28 C7 0.930 . S
H29 C11 0.931 . S
H30 C9 0.931 . S
H31 C13 0.931 . S
H32 C14 0.929 . S
H33 C15 0.930 . S
H34 C18 0.930 . S
H35 C19 0.931 . S
H36 C23 0.928 . S
H37 C22 0.929 . S
H38 C20 0.932 . S
C39 C40 1.386 . S
C39 C41 1.397 . S
C39 H63 0.931 . S
C40 C39 1.386 . S
C40 C44 1.397 . S
C41 C39 1.397 . S
C41 C42 1.384 . S
C41 H64 0.930 . S
C42 C41 1.384 . S
C42 C43 1.377 . S
C42 C45 1.481 . S
C43 C42 1.377 . S
C43 C44 1.389 . S
C43 H65 0.929 . S
C44 C40 1.397 . S
C44 C43 1.389 . S
C44 H66 0.931 . S
C45 C42 1.481 . S
C45 C46 1.387 . S
C45 C50 1.390 . S
C46 C45 1.387 . S
C46 C47 1.401 . S
C46 H67 0.930 . S
C47 C46 1.401 . S
C47 C48 1.376 . S
C47 C56 1.511 . S
C48 C47 1.376 . S
C48 C49 1.392 . S
C48 H69 0.931 . S
C49 C48 1.392 . S
C49 C50 1.361 . S
C49 C51 1.500 . S
C50 C45 1.390 . S
C50 C49 1.361 . S
C50 H68 0.931 . S
C51 C49 1.500 . S
C51 C52 1.371 . S
C51 C53 1.365 . S
C52 C51 1.371 . S
C52 C62 1.386 . S
C52 H70 0.931 . S
C53 C51 1.365 . S
C53 C54 1.409 . S
C53 H71 0.929 . S
C54 C53 1.409 . S
C54 C55 1.380 . S
C54 H72 0.930 . S
C55 C54 1.380 . S
C55 C62 1.357 . S
C56 C47 1.511 . S
C56 C57 1.341 . S
C56 C58 1.371 . S
C57 C56 1.341 . S
C57 C61 1.394 . S
C57 H73 0.930 . S
C58 C56 1.371 . S
C58 C59 1.392 . S
C58 H74 0.931 . S
C59 C58 1.392 . S
C59 C60 1.331 . S
C59 H77 0.932 . S
C60 C59 1.331 . S
C60 C61 1.336 . S
C61 C57 1.394 . S
C61 C60 1.336 . S
C61 H76 0.929 . S
C62 C52 1.386 . S
C62 C55 1.357 . S
C62 H75 0.928 . S
H63 C39 0.931 . S
H64 C41 0.930 . S
H65 C43 0.929 . S
H66 C44 0.931 . S
H67 C46 0.930 . S
H68 C50 0.931 . S
H69 C48 0.931 . S
H70 C52 0.931 . S
H71 C53 0.929 . S
H72 C54 0.930 . S
H73 C57 0.930 . S
H74 C58 0.931 . S
H75 C62 0.928 . S
H76 C61 0.929 . S
H77 C59 0.932 . S
C78 C79 1.386 . S
C78 C80 1.397 . S
C78 H102 0.931 . S
C79 C78 1.386 . S
C79 C83 1.397 . S
C80 C78 1.397 . S
C80 C81 1.384 . S
C80 H103 0.930 . S
C81 C80 1.384 . S
C81 C82 1.377 . S
C81 C84 1.481 . S
C82 C81 1.377 . S
C82 C83 1.389 . S
C82 H104 0.929 . S
C83 C79 1.397 . S
C83 C82 1.389 . S
C83 H105 0.931 . S
C84 C81 1.481 . S
C84 C85 1.387 . S
C84 C89 1.390 . S
C85 C84 1.387 . S
C85 C86 1.401 . S
C85 H106 0.930 . S
C86 C85 1.401 . S
C86 C87 1.376 1_554 S
C86 C95 1.511 . S
C87 C86 1.376 1_556 S
C87 C88 1.392 . S
C87 H108 0.931 . S
C88 C87 1.392 . S
C88 C89 1.361 1_556 S
C88 C90 1.500 . S
C89 C84 1.390 . S
C89 C88 1.361 1_554 S
C89 H107 0.931 . S
C90 C88 1.500 . S
C90 C91 1.371 . S
C90 C92 1.365 . S
C91 C90 1.371 . S
C91 C101 1.386 . S
C91 H109 0.931 . S
C92 C90 1.365 . S
C92 C93 1.409 . S
C92 H110 0.929 . S
C93 C92 1.409 . S
C93 C94 1.380 . S
C93 H111 0.930 . S
C94 C93 1.380 . S
C94 C101 1.357 . S
C95 C86 1.511 . S
C95 C96 1.341 . S
C95 C97 1.371 1_554 S
C96 C95 1.341 . S
C96 C100 1.394 . S
C96 H112 0.930 . S
C97 C95 1.371 1_556 S
C97 C98 1.392 . S
C97 H113 0.931 . S
C98 C97 1.392 . S
C98 C99 1.331 1_556 S
C98 H116 0.932 . S
C99 C98 1.331 1_554 S
C99 C100 1.336 . S
C100 C96 1.394 . S
C100 C99 1.336 . S
C100 H115 0.929 . S
C101 C91 1.386 . S
C101 C94 1.357 . S
C101 H114 0.928 . S
H102 C78 0.931 . S
H103 C80 0.930 . S
H104 C82 0.929 . S
H105 C83 0.931 . S
H106 C85 0.930 . S
H107 C89 0.931 . S
H108 C87 0.931 . S
H109 C91 0.931 . S
H110 C92 0.929 . S
H111 C93 0.930 . S
H112 C96 0.930 . S
H113 C97 0.931 . S
H114 C101 0.928 . S
H115 C100 0.929 . S
H116 C98 0.932 . S
C117 C118 1.386 . S
C117 C119 1.397 . S
C117 H141 0.931 . S
C118 C117 1.386 . S
C118 C122 1.397 . S
C119 C117 1.397 . S
C119 C120 1.384 . S
C119 H142 0.930 . S
C120 C119 1.384 . S
C120 C121 1.377 . S
C120 C123 1.481 . S
C121 C120 1.377 . S
C121 C122 1.389 . S
C121 H143 0.929 . S
C122 C118 1.397 . S
C122 C121 1.389 . S
C122 H144 0.931 . S
C123 C120 1.481 . S
C123 C124 1.387 . S
C123 C128 1.390 . S
C124 C123 1.387 . S
C124 C125 1.401 . S
C124 H145 0.930 . S
C125 C124 1.401 . S
C125 C126 1.376 . S
C125 C134 1.511 . S
C126 C125 1.376 . S
C126 C127 1.392 . S
C126 H147 0.931 . S
C127 C126 1.392 . S
C127 C128 1.361 . S
C127 C129 1.500 . S
C128 C123 1.390 . S
C128 C127 1.361 . S
C128 H146 0.931 . S
C129 C127 1.500 . S
C129 C130 1.371 . S
C129 C131 1.365 . S
C130 C129 1.371 . S
C130 C140 1.386 . S
C130 H148 0.931 . S
C131 C129 1.365 . S
C131 C132 1.409 . S
C131 H149 0.929 . S
C132 C131 1.409 . S
C132 C133 1.380 . S
C132 H150 0.930 . S
C133 C132 1.380 . S
C133 C140 1.357 . S
C134 C125 1.511 . S
C134 C135 1.341 . S
C134 C136 1.371 . S
C135 C134 1.341 . S
C135 C139 1.394 . S
C135 H151 0.930 . S
C136 C134 1.371 . S
C136 C137 1.392 . S
C136 H152 0.931 . S
C137 C136 1.392 . S
C137 C138 1.331 . S
C137 H155 0.932 . S
C138 C137 1.331 . S
C138 C139 1.336 . S
C139 C135 1.394 . S
C139 C138 1.336 . S
C139 H154 0.929 . S
C140 C130 1.386 . S
C140 C133 1.357 . S
C140 H153 0.928 . S
H141 C117 0.931 . S
H142 C119 0.930 . S
H143 C121 0.929 . S
H144 C122 0.931 . S
H145 C124 0.930 . S
H146 C128 0.931 . S
H147 C126 0.931 . S
H148 C130 0.931 . S
H149 C131 0.929 . S
H150 C132 0.930 . S
H151 C135 0.930 . S
H152 C136 0.931 . S
H153 C140 0.928 . S
H154 C139 0.929 . S
H155 C137 0.932 . S
O156 Zn157 1.953 1_565 S
O156 C172 1.225 . S
Zn157 O156 1.953 1_545 S
Zn157 O158 1.949 1_655 S
Zn157 O164 1.919 . S
Zn157 O169 1.924 . S
O158 Zn157 1.949 1_455 S
O158 Zn159 1.923 . S
O158 Zn160 1.950 1_445 S
O158 Zn161 1.945 . S
Zn159 O158 1.923 . S
Zn159 O162 1.933 . S
Zn159 O165 1.941 . S
Zn159 O166 1.965 1_545 S
Zn160 O158 1.950 1_665 S
Zn160 O167 1.938 1_655 S
Zn160 O168 1.906 1_655 S
Zn160 O178 1.953 . S
Zn161 O158 1.945 . S
Zn161 O163 1.932 . S
Zn161 O170 1.977 1_545 S
Zn161 O171 1.910 1_455 S
O162 Zn159 1.933 . S
O162 C173 1.226 . S
O163 Zn161 1.932 . S
O163 C173 1.307 . S
O164 Zn157 1.919 . S
O164 C175 1.253 . S
O165 Zn159 1.941 . S
O165 C175 1.283 1_455 S
O166 Zn159 1.965 1_565 S
O166 C174 1.303 . S
O167 Zn160 1.938 1_455 S
O167 C174 1.247 . S
O168 Zn160 1.906 1_455 S
O168 C176 1.304 . S
O169 Zn157 1.924 . S
O169 C177 1.311 . S
O170 Zn161 1.977 1_565 S
O170 C176 1.272 . S
O171 Zn161 1.910 1_655 S
O171 C177 1.231 . S
C172 O156 1.225 . S
C172 O178 1.298 . S
C173 O162 1.226 . S
C173 O163 1.307 . S
C174 O166 1.303 . S
C174 O167 1.247 . S
C175 O164 1.253 . S
C175 O165 1.283 1_655 S
C176 O168 1.304 . S
C176 O170 1.272 . S
C177 O169 1.311 . S
C177 O171 1.231 . S
O178 Zn160 1.953 . S
O178 C172 1.298 . S
O179 Zn180 1.953 1_556 S
O179 C195 1.225 1_556 S
Zn180 O179 1.953 1_554 S
Zn180 O181 1.949 . S
Zn180 O187 1.919 1_554 S
Zn180 O192 1.924 . S
O181 Zn180 1.949 . S
O181 Zn182 1.923 1_554 S
O181 Zn183 1.950 . S
O181 Zn184 1.945 . S
Zn182 O181 1.923 1_556 S
Zn182 O185 1.933 . S
Zn182 O188 1.941 . S
Zn182 O189 1.965 . S
Zn183 O181 1.950 . S
Zn183 O190 1.938 1_554 S
Zn183 O191 1.906 . S
Zn183 O201 1.953 . S
Zn184 O181 1.945 . S
Zn184 O186 1.932 . S
Zn184 O193 1.977 . S
Zn184 O194 1.910 . S
O185 Zn182 1.933 . S
O185 C196 1.226 1_556 S
O186 Zn184 1.932 . S
O186 C196 1.307 . S
O187 Zn180 1.919 1_556 S
O187 C198 1.253 . S
O188 Zn182 1.941 . S
O188 C198 1.283 . S
O189 Zn182 1.965 . S
O189 C197 1.303 . S
O190 Zn183 1.938 1_556 S
O190 C197 1.247 . S
O191 Zn183 1.906 . S
O191 C199 1.304 . S
O192 Zn180 1.924 . S
O192 C200 1.311 . S
O193 Zn184 1.977 . S
O193 C199 1.272 . S
O194 Zn184 1.910 . S
O194 C200 1.231 . S
C195 O179 1.225 1_554 S
C195 O201 1.298 . S
C196 O185 1.226 1_554 S
C196 O186 1.307 . S
C197 O189 1.303 . S
C197 O190 1.247 . S
C198 O187 1.253 . S
C198 O188 1.283 . S
C199 O191 1.304 . S
C199 O193 1.272 . S
C200 O192 1.311 . S
C200 O194 1.231 . S
O201 Zn183 1.953 . S
O201 C195 1.298 . S
H202 C208 0.930 . S
H203 C211 0.930 . S
H204 C212 0.930 . S
H205 C213 0.930 . S
H206 C216 0.930 . S
H207 C217 0.930 . S
C208 H202 0.930 . S
C208 C209 1.355 . S
C208 C210 1.415 . S
C209 C208 1.355 . S
C209 C211 1.419 . S
C210 C208 1.415 . S
C210 C215 1.425 . S
C210 C217 1.409 . S
C211 H203 0.930 . S
C211 C209 1.419 . S
C211 C212 1.362 . S
C212 H204 0.930 . S
C212 C211 1.362 . S
C212 C215 1.409 . S
C213 H205 0.930 . S
C213 C214 1.355 . S
C213 C215 1.415 . S
C214 C213 1.355 . S
C214 C216 1.419 . S
C215 C210 1.425 . S
C215 C212 1.409 . S
C215 C213 1.415 . S
C216 H206 0.930 . S
C216 C214 1.419 . S
C216 C217 1.362 . S
C217 H207 0.930 . S
C217 C210 1.409 . S
C217 C216 1.362 . S
H218 C224 0.930 . S
H219 C227 0.930 . S
H220 C228 0.930 . S
H221 C229 0.930 . S
H222 C232 0.930 . S
H223 C233 0.930 . S
C224 H218 0.930 . S
C224 C225 1.355 1_556 S
C224 C226 1.415 . S
C225 C224 1.355 1_554 S
C225 C227 1.419 . S
C226 C224 1.415 . S
C226 C231 1.425 1_556 S
C226 C233 1.409 . S
C227 H219 0.930 . S
C227 C225 1.419 . S
C227 C228 1.362 . S
C228 H220 0.930 . S
C228 C227 1.362 . S
C228 C231 1.409 . S
C229 H221 0.930 . S
C229 C230 1.355 . S
C229 C231 1.415 . S
C230 C229 1.355 . S
C230 C232 1.419 1_554 S
C231 C226 1.425 1_554 S
C231 C228 1.409 . S
C231 C229 1.415 . S
C232 H222 0.930 . S
C232 C230 1.419 1_556 S
C232 C233 1.362 . S
C233 H223 0.930 . S
C233 C226 1.409 . S
C233 C232 1.362 . S
H234 C240 0.930 . S
H235 C243 0.930 . S
H236 C244 0.930 . S
H237 C245 0.930 . S
H238 C248 0.930 1_545 S
H239 C249 0.953 . S
C240 H234 0.930 . S
C240 C241 1.355 . S
C240 C242 1.415 . S
C241 C240 1.355 . S
C241 C243 1.419 . S
C242 C240 1.415 . S
C242 C247 1.425 . S
C242 C249 1.409 . S
C243 H235 0.930 . S
C243 C241 1.419 . S
C243 C244 1.362 . S
C244 H236 0.930 . S
C244 C243 1.362 . S
C244 C247 1.409 . S
C245 H237 0.930 . S
C245 C246 1.355 . S
C245 C247 1.415 . S
C246 C245 1.355 . S
C246 C248 1.419 . S
C247 C242 1.425 . S
C247 C244 1.409 . S
C247 C245 1.415 . S
C248 H238 0.930 1_565 S
C248 C246 1.419 . S
C248 C249 1.362 . S
C249 H239 0.953 . S
C249 C242 1.409 . S
C249 C248 1.362 . S
H250 C256 0.930 . S
H251 C259 0.930 . S
H252 C260 0.930 . S
H253 C261 0.930 . S
H254 C264 0.930 . S
H255 C265 0.930 . S
C256 H250 0.930 . S
C256 C257 1.355 1_556 S
C256 C258 1.415 . S
C257 C256 1.355 1_554 S
C257 C259 1.419 . S
C258 C256 1.415 . S
C258 C263 1.425 1_556 S
C258 C265 1.409 . S
C259 H251 0.930 . S
C259 C257 1.419 . S
C259 C260 1.362 . S
C260 H252 0.930 . S
C260 C259 1.362 . S
C260 C263 1.409 . S
C261 H253 0.930 . S
C261 C262 1.355 . S
C261 C263 1.415 . S
C262 C261 1.355 . S
C262 C264 1.419 1_554 S
C263 C258 1.425 1_554 S
C263 C260 1.409 . S
C263 C261 1.415 . S
C264 H254 0.930 . S
C264 C262 1.419 1_556 S
C264 C265 1.362 . S
C265 H255 0.930 . S
C265 C258 1.409 . S
C265 C264 1.362 . S
H266 C272 0.930 . S
H267 C275 0.930 . S
H268 C276 0.930 1_655 S
H269 C277 0.930 . S
H270 C280 0.930 . S
H271 C281 0.930 . S
C272 H266 0.930 . S
C272 C273 1.355 . S
C272 C274 1.415 . S
C273 C272 1.355 . S
C273 C275 1.419 . S
C274 C272 1.415 . S
C274 C279 1.425 . S
C274 C281 1.409 . S
C275 H267 0.930 . S
C275 C273 1.419 . S
C275 C276 1.362 . S
C276 H268 0.930 1_455 S
C276 C275 1.362 . S
C276 C279 1.409 . S
C277 H269 0.930 . S
C277 C278 1.355 . S
C277 C279 1.415 . S
C278 C277 1.355 . S
C278 C280 1.419 . S
C279 C274 1.425 . S
C279 C276 1.409 . S
C279 C277 1.415 . S
C280 H270 0.930 . S
C280 C278 1.419 . S
C280 C281 1.362 . S
C281 H271 0.930 . S
C281 C274 1.409 . S
C281 C280 1.362 . S
H282 C288 0.930 . S
H283 C291 0.930 . S
H284 C292 0.930 . S
H285 C293 0.930 . S
H286 C296 0.930 . S
H287 C297 0.930 . S
C288 H282 0.930 . S
C288 C289 1.355 . S
C288 C290 1.415 . S
C289 C288 1.355 . S
C289 C291 1.419 . S
C290 C288 1.415 . S
C290 C295 1.425 . S
C290 C297 1.409 . S
C291 H283 0.930 . S
C291 C289 1.419 . S
C291 C292 1.362 . S
C292 H284 0.930 . S
C292 C291 1.362 . S
C292 C295 1.409 . S
C293 H285 0.930 . S
C293 C294 1.355 . S
C293 C295 1.415 . S
C294 C293 1.355 . S
C294 C296 1.419 . S
C295 C290 1.425 . S
C295 C292 1.409 . S
C295 C293 1.415 . S
C296 H286 0.930 . S
C296 C294 1.419 . S
C296 C297 1.362 . S
C297 H287 0.930 . S
C297 C290 1.409 . S
C297 C296 1.362 . S
H298 C304 0.930 . S
H299 C307 0.930 . S
H300 C308 0.930 . S
H301 C309 0.930 . S
H302 C312 0.930 . S
H303 C313 0.930 . S
C304 H298 0.930 . S
C304 C305 1.355 . S
C304 C306 1.415 . S
C305 C304 1.355 . S
C305 C307 1.419 . S
C306 C304 1.415 . S
C306 C311 1.425 . S
C306 C313 1.409 . S
C307 H299 0.930 . S
C307 C305 1.419 . S
C307 C308 1.362 . S
C308 H300 0.930 . S
C308 C307 1.362 . S
C308 C311 1.409 . S
C309 H301 0.930 . S
C309 C310 1.355 . S
C309 C311 1.415 . S
C310 C309 1.355 . S
C310 C312 1.419 . S
C311 C306 1.425 . S
C311 C308 1.409 . S
C311 C309 1.415 . S
C312 H302 0.930 . S
C312 C310 1.419 . S
C312 C313 1.362 . S
C313 H303 0.930 . S
C313 C306 1.409 . S
C313 C312 1.362 . S
H314 C320 0.930 . S
H315 C323 0.930 . S
H316 C324 0.930 . S
H317 C325 0.930 . S
H318 C328 0.930 . S
H319 C329 0.930 . S
C320 H314 0.930 . S
C320 C321 1.355 . S
C320 C322 1.415 . S
C321 C320 1.355 . S
C321 C323 1.419 . S
C322 C320 1.415 . S
C322 C327 1.425 . S
C322 C329 1.409 . S
C323 H315 0.930 . S
C323 C321 1.419 . S
C323 C324 1.362 . S
C324 H316 0.930 . S
C324 C323 1.362 . S
C324 C327 1.409 . S
C325 H317 0.930 . S
C325 C326 1.355 . S
C325 C327 1.415 . S
C326 C325 1.355 . S
C326 C328 1.419 . S
C327 C322 1.425 . S
C327 C324 1.409 . S
C327 C325 1.415 . S
C328 H318 0.930 . S
C328 C326 1.419 . S
C328 C329 1.362 . S
C329 H319 0.930 . S
C329 C322 1.409 . S
C329 C328 1.362 . S
H330 C336 0.930 . S
H331 C339 0.930 . S
H332 C340 0.930 . S
H333 C341 0.930 . S
H334 C344 0.930 . S
H335 C345 0.930 . S
C336 H330 0.930 . S
C336 C337 1.355 . S
C336 C338 1.415 . S
C337 C336 1.355 . S
C337 C339 1.419 . S
C338 C336 1.415 . S
C338 C343 1.425 . S
C338 C345 1.409 . S
C339 H331 0.930 . S
C339 C337 1.419 . S
C339 C340 1.362 . S
C340 H332 0.930 . S
C340 C339 1.362 . S
C340 C343 1.409 . S
C341 H333 0.930 . S
C341 C342 1.355 . S
C341 C343 1.415 . S
C342 C341 1.355 . S
C342 C344 1.419 . S
C343 C338 1.425 . S
C343 C340 1.409 . S
C343 C341 1.415 . S
C344 H334 0.930 . S
C344 C342 1.419 . S
C344 C345 1.362 . S
C345 H335 0.930 . S
C345 C338 1.409 . S
C345 C344 1.362 . S
H346 C352 0.930 . S
H347 C355 0.930 . S
H348 C356 0.930 . S
H349 C357 0.930 . S
H350 C360 0.930 . S
H351 C361 0.930 . S
C352 H346 0.930 . S
C352 C353 1.355 . S
C352 C354 1.415 . S
C353 C352 1.355 . S
C353 C355 1.419 . S
C354 C352 1.415 . S
C354 C359 1.425 . S
C354 C361 1.409 . S
C355 H347 0.930 . S
C355 C353 1.419 . S
C355 C356 1.362 . S
C356 H348 0.930 . S
C356 C355 1.362 . S
C356 C359 1.409 . S
C357 H349 0.930 . S
C357 C358 1.355 . S
C357 C359 1.415 . S
C358 C357 1.355 . S
C358 C360 1.419 . S
C359 C354 1.425 . S
C359 C356 1.409 . S
C359 C357 1.415 . S
C360 H350 0.930 . S
C360 C358 1.419 . S
C360 C361 1.362 . S
C361 H351 0.930 . S
C361 C354 1.409 . S
C361 C360 1.362 . S
H362 C368 0.930 . S
H363 C371 0.930 . S
H364 C372 0.930 . S
H365 C373 0.930 . S
H366 C376 0.930 . S
H367 C377 0.930 . S
C368 H362 0.930 . S
C368 C369 1.355 . S
C368 C370 1.415 . S
C369 C368 1.355 . S
C369 C371 1.419 . S
C370 C368 1.415 . S
C370 C375 1.425 . S
C370 C377 1.409 . S
C371 H363 0.930 . S
C371 C369 1.419 . S
C371 C372 1.362 . S
C372 H364 0.930 . S
C372 C371 1.362 . S
C372 C375 1.409 . S
C373 H365 0.930 . S
C373 C374 1.355 . S
C373 C375 1.415 . S
C374 C373 1.355 . S
C374 C376 1.419 . S
C375 C370 1.425 . S
C375 C372 1.409 . S
C375 C373 1.415 . S
C376 H366 0.930 . S
C376 C374 1.419 . S
C376 C377 1.362 . S
C377 H367 0.930 . S
C377 C370 1.409 . S
C377 C376 1.362 . S
H378 C384 0.930 . S
H379 C387 0.930 . S
H380 C388 0.930 . S
H381 C389 0.930 . S
H382 C392 0.929 1_655 S
H383 C393 0.930 . S
C384 H378 0.930 . S
C384 C385 1.355 . S
C384 C386 1.415 . S
C385 C384 1.355 . S
C385 C387 1.419 . S
C386 C384 1.415 . S
C386 C391 1.425 . S
C386 C393 1.409 . S
C387 H379 0.930 . S
C387 C385 1.419 . S
C387 C388 1.362 . S
C388 H380 0.930 . S
C388 C387 1.362 . S
C388 C391 1.409 . S
C389 H381 0.930 . S
C389 C390 1.355 . S
C389 C391 1.415 . S
C390 C389 1.355 . S
C390 C392 1.419 . S
C391 C386 1.425 . S
C391 C388 1.409 . S
C391 C389 1.415 . S
C392 H382 0.929 1_455 S
C392 C390 1.419 . S
C392 C393 1.362 . S
C393 H383 0.930 . S
C393 C386 1.409 . S
C393 C392 1.362 . S
C214 C173 1.641 . S
C209 C138 1.592 . S
C225 C21 1.656 . S
C230 C196 1.672 . S
C241 C60 1.622 . S
C246 C172 1.656 . S
C257 C99 1.658 . S
C262 C195 1.684 . S
C278 C176 1.688 . S
C273 C16 1.702 . S
C294 C198 1.669 . S
C289 C40 1.624 . S
C305 C79 1.691 . S
C310 C177 1.664 . S
C321 C133 1.645 . S
C326 C197 1.615 . S
C342 C200 1.645 . S
C337 C55 1.677 . S
C358 C175 1.626 . S
C353 C94 1.665 . S
C374 C199 1.687 . S
C369 C118 1.685 . S
C385 C1 1.600 . S
C390 C174 1.616 . S
