# Generated by pormake.
# Topology zzz, (3,6)-cn, num edge types: 1
# Building blocks:
#     Node 0, Type 0, BuildingBlock: QEWDON_clean_linker_0, # of connection points: 3
#     Node 1, Type 0, BuildingBlock: QEWDON_clean_linker_0, # of connection points: 3
#     Node 2, Type 0, BuildingBlock: QEWDON_clean_linker_0, # of connection points: 3
#     Node 3, Type 0, BuildingBlock: QEWDON_clean_linker_0, # of connection points: 3
#     Node 4, Type 0, BuildingBlock: QEWDON_clean_linker_0, # of connection points: 3
#     Node 5, Type 0, BuildingBlock: QEWDON_clean_linker_0, # of connection points: 3
#     Node 6, Type 0, BuildingBlock: QEWDON_clean_linker_0, # of connection points: 3
#     Node 7, Type 0, BuildingBlock: QEWDON_clean_linker_0, # of connection points: 3
#     Node 8, Type 1, BuildingBlock: KUMBOL_clean_sbu_0, # of connection points: 6
#     Node 9, Type 1, BuildingBlock: KUMBOL_clean_sbu_0, # of connection points: 6
#     Node 10, Type 1, BuildingBlock: KUMBOL_clean_sbu_0, # of connection points: 6
#     Node 11, Type 1, BuildingBlock: KUMBOL_clean_sbu_0, # of connection points: 6
#     Edge 12, Type (0, 1), BuildingBlock: AJUNOK_clean_linker_0, # of connection points: 2
#     Edge 13, Type (0, 1), BuildingBlock: AJUNOK_clean_linker_0, # of connection points: 2
#     Edge 14, Type (0, 1), BuildingBlock: AJUNOK_clean_linker_0, # of connection points: 2
#     Edge 15, Type (0, 1), BuildingBlock: AJUNOK_clean_linker_0, # of connection points: 2
#     Edge 16, Type (0, 1), BuildingBlock: AJUNOK_clean_linker_0, # of connection points: 2
#     Edge 17, Type (0, 1), BuildingBlock: AJUNOK_clean_linker_0, # of connection points: 2
#     Edge 18, Type (0, 1), BuildingBlock: AJUNOK_clean_linker_0, # of connection points: 2
#     Edge 19, Type (0, 1), BuildingBlock: AJUNOK_clean_linker_0, # of connection points: 2
#     Edge 20, Type (0, 1), BuildingBlock: AJUNOK_clean_linker_0, # of connection points: 2
#     Edge 21, Type (0, 1), BuildingBlock: AJUNOK_clean_linker_0, # of connection points: 2
#     Edge 22, Type (0, 1), BuildingBlock: AJUNOK_clean_linker_0, # of connection points: 2
#     Edge 23, Type (0, 1), BuildingBlock: AJUNOK_clean_linker_0, # of connection points: 2
#     Edge 24, Type (0, 1), BuildingBlock: AJUNOK_clean_linker_0, # of connection points: 2
#     Edge 25, Type (0, 1), BuildingBlock: AJUNOK_clean_linker_0, # of connection points: 2
#     Edge 26, Type (0, 1), BuildingBlock: AJUNOK_clean_linker_0, # of connection points: 2
#     Edge 27, Type (0, 1), BuildingBlock: AJUNOK_clean_linker_0, # of connection points: 2
#     Edge 28, Type (0, 1), BuildingBlock: AJUNOK_clean_linker_0, # of connection points: 2
#     Edge 29, Type (0, 1), BuildingBlock: AJUNOK_clean_linker_0, # of connection points: 2
#     Edge 30, Type (0, 1), BuildingBlock: AJUNOK_clean_linker_0, # of connection points: 2
#     Edge 31, Type (0, 1), BuildingBlock: AJUNOK_clean_linker_0, # of connection points: 2
#     Edge 32, Type (0, 1), BuildingBlock: AJUNOK_clean_linker_0, # of connection points: 2
#     Edge 33, Type (0, 1), BuildingBlock: AJUNOK_clean_linker_0, # of connection points: 2
#     Edge 34, Type (0, 1), BuildingBlock: AJUNOK_clean_linker_0, # of connection points: 2
#     Edge 35, Type (0, 1), BuildingBlock: AJUNOK_clean_linker_0, # of connection points: 2
# Relax obj value: 0.153
# Max RMSD: 0.165
# Mean RMSD: 0.078
data_MOF--net-zzz--node1-KUMBOL_clean_sbu_0--node2-QEWDON_clean_linker_0--edge1-AJUNOK_clean_linker_0
_symmetry_space_group_name_H-M    P1
_symmetry_Int_Tables_number       1
_symmetry_cell_setting            triclinic
loop_
_symmetry_equiv_pos_as_xyz
'x, y, z'
_cell_length_a     40.64655
_cell_length_b     40.539051
_cell_length_c     10.968236
_cell_angle_alpha  91.403882
_cell_angle_beta   89.785615
_cell_angle_gamma 90.07132
loop_
_atom_site_label
_atom_site_type_symbol
_atom_site_fract_x
_atom_site_fract_y
_atom_site_fract_z
_atom_type_partial_charge
H0 H 0.77567 0.50436 0.15123 0.0
C1 C 0.79074 0.51366 0.2256 0.0
C2 C 0.81836 0.4951 0.26002 0.0
C3 C 0.78415 0.545 0.28029 0.0
H4 H 0.86143 0.49376 0.37359 0.0
C5 C 0.83961 0.50758 0.35048 0.0
C6 C 0.83661 0.53922 0.39972 0.0
C7 C 0.80822 0.5578 0.36721 0.0
C8 C 0.75462 0.56539 0.23603 0.0
H9 H 0.80548 0.58202 0.40909 0.0
C10 C 0.72542 0.55178 0.17714 0.0
C11 C 0.6996 0.57271 0.13232 0.0
C12 C 0.75644 0.6 0.24797 0.0
H13 H 0.77784 0.61224 0.28558 0.0
C14 C 0.73109 0.62015 0.20911 0.0
H15 H 0.72279 0.52535 0.16514 0.0
C16 C 0.70324 0.60688 0.15353 0.0
H17 H 0.68405 0.62388 0.12837 0.0
H18 H 0.73315 0.64664 0.22183 0.0
H19 H 0.05664 0.77496 0.08915 0.0
C20 C 0.05313 0.79296 0.16239 0.0
C21 C 0.06847 0.82322 0.15091 0.0
C22 C 0.03207 0.7868 0.26064 0.0
H23 H 0.07313 0.87271 0.21271 0.0
C24 C 0.063 0.84893 0.23549 0.0
C25 C 0.04495 0.84512 0.34399 0.0
C26 C 0.02848 0.81327 0.35431 0.0
C27 C 1.01209 0.75422 0.25179 0.0
H28 H 1.01331 0.80905 0.43348 0.0
C29 C 0.0214 0.72531 0.17665 0.0
C30 C 0.99891 0.6984 0.15131 0.0
C31 C 0.98071 0.75368 0.30518 0.0
H32 H 0.97195 0.77435 0.36037 0.0
C33 C 0.95908 0.72748 0.28283 0.0
H34 H 0.04551 0.72387 0.13498 0.0
C35 C 0.9678 0.70066 0.20708 0.0
H36 H 0.94981 0.68124 0.19248 0.0
H37 H 0.93481 0.72815 0.32385 0.0
H38 H 0.79159 0.07019 0.1284 0.0
C39 C 0.77165 0.06087 0.18333 0.0
C40 C 0.74043 0.07265 0.16099 0.0
C41 C 0.77718 0.03803 0.27493 0.0
H42 H 0.68957 0.06915 0.19637 0.0
C43 C 0.71355 0.06219 0.22925 0.0
C44 C 0.71693 0.04454 0.33732 0.0
C45 C 0.74961 0.03113 0.35717 0.0
C46 C 0.81242 0.02427 0.28357 0.0
H47 H 0.75356 1.01569 0.43441 0.0
C48 C 0.83579 0.0244 0.18278 0.0
C49 C 0.86925 1.01383 0.1954 0.0
C50 C 0.82388 1.01258 0.39495 0.0
H51 H 0.80809 1.01235 0.47447 0.0
C52 C 0.85638 1.00201 0.40769 0.0
H53 H 0.82824 0.03212 0.09356 0.0
C54 C 0.87871 1.00273 0.31038 0.0
H55 H 0.90384 0.99507 0.3261 0.0
H56 H 0.8645 0.99365 0.49537 0.0
H57 H 0.48555 0.79997 0.20775 0.0
C58 C 0.49529 0.78063 0.26346 0.0
C59 C 0.4763 0.75229 0.27748 0.0
C60 C 0.52585 0.78432 0.32221 0.0
H61 H 0.47325 0.70417 0.35349 0.0
C62 C 0.4876 0.72671 0.35002 0.0
C63 C 0.51722 0.72864 0.41418 0.0
C64 C 0.53682 0.7577 0.39823 0.0
C65 C 0.5442 0.81703 0.30939 0.0
H66 H 0.56008 0.75957 0.44534 0.0
C67 C 0.54042 0.83836 0.20663 0.0
C68 C 0.55585 0.87012 0.2034 0.0
C69 C 0.56389 0.82856 0.40639 0.0
H70 H 0.56699 0.81425 0.48747 0.0
C71 C 0.57883 0.85949 0.40388 0.0
H72 H 0.52602 0.83036 0.12864 0.0
C73 C 0.57465 0.88007 0.3051 0.0
H74 H 0.58593 0.90426 0.30923 0.0
H75 H 0.59347 0.86778 0.48075 0.0
H76 H 0.2951 0.57544 0.27202 0.0
C77 C 0.2782 0.56504 0.20562 0.0
C78 C 0.25122 0.58438 0.17205 0.0
C79 C 0.28198 0.53224 0.16176 0.0
H80 H 0.20543 0.58549 0.07317 0.0
C81 C 0.2272 0.57114 0.09313 0.0
C82 C 0.22872 0.53889 0.04733 0.0
C83 C 0.25654 0.51943 0.08041 0.0
C84 C 0.3105 0.51124 0.21077 0.0
H85 H 0.25783 0.49463 0.04268 0.0
C86 C 0.3393 0.52448 0.27364 0.0
C87 C 0.36361 0.50334 0.32632 0.0
C88 C 0.30792 0.47664 0.20156 0.0
H89 H 0.28687 0.46462 0.16048 0.0
C90 C 0.33208 0.45617 0.24761 0.0
H91 H 0.34287 0.5508 0.28378 0.0
C92 C 0.35942 0.46916 0.3076 0.0
H93 H 0.37764 0.45193 0.33924 0.0
H94 H 0.32951 0.42967 0.23704 0.0
H95 H 1.00807 0.29095 0.27253 0.0
C96 C 1.01593 0.27327 0.2035 0.0
C97 C 1.00659 0.2408 0.22006 0.0
C98 C 0.03338 0.28288 0.09969 0.0
H99 H 1.00677 0.19098 0.15356 0.0
C100 C 1.01409 0.21606 0.13377 0.0
C101 C 0.02778 0.22298 0.01967 0.0
C102 C 0.03854 0.25702 0.00416 0.0
C103 C 0.04345 0.32009 0.09476 0.0
H104 H 0.04995 0.26305 0.91849 0.0
C105 C 0.04061 0.34399 0.19723 0.0
C106 C 0.04946 0.37834 0.18755 0.0
C107 C 0.05569 0.3326 0.98519 0.0
H108 H 0.05841 0.31691 0.9048 0.0
C109 C 0.06446 0.36583 0.97547 0.0
H110 H 0.0324 0.33654 0.28594 0.0
C111 C 0.06133 0.38821 0.07387 0.0
H112 H 0.06807 0.41373 0.0603 0.0
H113 H 0.07378 0.37447 0.8895 0.0
H114 H 0.28425 1.01143 0.24154 0.0
C115 C 0.30087 1.01409 0.16523 0.0
C116 C 0.33166 0.99972 0.17395 0.0
C117 C 0.29222 0.03261 0.06397 0.0
H118 H 0.37965 0.99399 0.10204 0.0
C119 C 0.35553 1.00397 0.08405 0.0
C120 C 0.34931 1.02065 0.97563 0.0
C121 C 0.31689 0.03552 0.96708 0.0
C122 C 0.25869 0.05048 0.07032 0.0
H123 H 0.31076 0.04876 0.88605 0.0
C124 C 0.23161 0.04087 0.1494 0.0
C125 C 0.20296 0.06132 0.17039 0.0
C126 C 0.25483 0.07984 0.00704 0.0
H127 H 0.27406 0.08872 0.94781 0.0
C128 C 0.22691 0.09943 0.02368 0.0
H129 H 0.2326 1.01738 0.1933 0.0
C130 C 0.20199 0.09086 0.10509 0.0
H131 H 0.18214 0.10832 0.11805 0.0
H132 H 0.22501 0.12233 0.97543 0.0
H133 H 0.48313 0.26864 0.26962 0.0
C134 C 0.492 0.2878 0.21089 0.0
C135 C 0.48889 0.32026 0.25295 0.0
C136 C 0.50847 0.27983 0.10199 0.0
H137 H 0.49537 0.3716 0.21025 0.0
C138 C 0.49759 0.34629 0.17683 0.0
C139 C 0.51095 0.34039 0.06048 0.0
C140 C 0.51728 0.30674 0.02385 0.0
C141 C 0.51512 0.24329 0.07513 0.0
H142 H 0.529 0.30185 0.9366 0.0
C143 C 0.51685 0.21911 0.16973 0.0
C144 C 0.51835 0.1845 0.14261 0.0
C145 C 0.51759 0.23173 0.95408 0.0
H146 H 0.51651 0.24852 0.87907 0.0
C147 C 0.52027 0.19806 0.92699 0.0
H148 H 0.51649 0.22686 0.2647 0.0
C149 C 0.51972 0.17477 0.01911 0.0
H150 H 0.52095 0.14893 0.99356 0.0
H151 H 0.5224 0.19003 0.83271 0.0
Gd152 Gd 1.00763 0.04056 0.56732 0.0
Gd153 Gd 0.06186 0.02647 0.79933 0.0
C154 C 0.04974 0.10673 0.10014 0.0
C155 C 0.09686 0.1419 0.06564 0.0
C156 C 0.08708 0.09359 0.93291 0.0
C157 C 0.05951 0.08573 1.00134 0.0
C158 C 0.10651 0.12137 0.96718 0.0
C159 C 0.06816 0.135 0.13024 0.0
C160 C 0.02218 0.09827 0.16863 0.0
C161 C 1.00761 0.06764 0.14824 0.0
N162 N 0.04297 0.0572 0.97507 0.0
C163 C 1.02008 0.0465 0.05748 0.0
H164 H 1.01135 1.02142 0.05749 0.0
C165 C 0.12394 0.08034 0.77238 0.0
N166 N 0.09524 0.07416 0.83434 0.0
C167 C 0.14378 0.10736 0.80346 0.0
C168 C 0.13493 0.12813 0.90058 0.0
H169 H 0.13322 0.0639 0.70254 0.0
H170 H 0.06089 0.1512 0.20564 0.0
H171 H 0.05515 0.03675 0.30251 0.0
H172 H 1.01326 0.11433 0.24176 0.0
H173 H 0.98773 0.05941 0.20554 0.0
H174 H 0.11125 0.16345 0.09162 0.0
H175 H 0.93242 1.01203 0.67106 0.0
H176 H 0.04553 0.94143 0.14203 0.0
H177 H 0.07443 0.99498 0.15941 0.0
H178 H 0.94969 0.89895 0.33357 0.0
H179 H 0.16632 0.11177 0.75353 0.0
H180 H 0.15043 0.14907 0.92442 0.0
H181 H 0.99868 0.90641 0.20615 0.0
H182 H 0.8984 0.9633 0.64987 0.0
N183 N 0.02257 1.00508 0.39853 0.0
C184 C 0.03854 0.95919 0.21294 0.0
C185 C 0.05503 0.98911 0.22268 0.0
C186 C 1.01193 0.95343 0.29022 0.0
C187 C 1.00433 0.97706 0.3836 0.0
C188 C 0.04526 1.01247 0.31073 0.0
N189 N 0.9707 0.99473 0.54988 0.0
C190 C 0.97748 0.97205 0.45955 0.0
C191 C 0.9209 0.96505 0.59728 0.0
C192 C 0.92863 0.94081 0.51037 0.0
C193 C 0.94151 0.99235 0.61289 0.0
C194 C 0.95682 0.94429 0.43894 0.0
H195 H 0.91231 0.91987 0.49737 0.0
O196 O 0.96206 0.04621 0.46794 0.0
O197 O 0.04151 0.06999 0.698 0.0
O198 O 1.00932 1.00956 0.85659 0.0
O199 O 0.97637 0.0418 0.73966 0.0
O200 O 0.99255 0.08334 0.69133 0.0
O201 O 1.00112 0.08146 0.44525 0.0
O202 O 0.10812 1.02047 0.89347 0.0
O203 O 0.0287 0.99745 0.66835 0.0
O204 O 0.05976 0.0547 0.49696 0.0
O205 O 0.09432 0.0284 0.62876 0.0
O206 O 0.07804 0.98463 0.67247 0.0
O207 O 0.06922 0.98531 0.92017 0.0
C208 C 1.02061 0.09202 0.73685 0.0
C209 C 0.96487 0.92067 0.34829 0.0
C210 C 0.99271 0.92493 0.27568 0.0
C211 C 0.96966 0.07562 0.4346 0.0
C212 C 0.94707 0.10206 0.47662 0.0
C213 C 0.91793 0.09529 0.54172 0.0
C214 C 0.95641 0.13475 0.46199 0.0
C215 C 0.93767 0.16064 0.51257 0.0
C216 C 0.8989 0.12115 0.59118 0.0
C217 C 0.90866 0.15391 0.57641 0.0
C218 C 0.98036 0.02382 0.83661 0.0
C219 C 0.04983 0.97593 0.62856 0.0
C220 C 0.10066 0.99129 0.92992 0.0
C221 C 0.12348 0.96464 0.89109 0.0
C222 C 0.15388 0.97148 0.83463 0.0
C223 C 0.11403 0.93182 0.90413 0.0
C224 C 0.13414 0.90593 0.86093 0.0
C225 C 0.17405 0.94572 0.79175 0.0
C226 C 0.16431 0.91293 0.80509 0.0
C227 C 0.08955 0.04328 0.52432 0.0
H228 H 0.91006 0.07014 0.55608 0.0
H229 H 0.97852 0.14021 0.4104 0.0
H230 H 0.87658 0.11576 0.64099 0.0
H231 H 0.89359 0.17381 0.61329 0.0
H232 H 0.16201 0.99665 0.82269 0.0
H233 H 0.09108 0.9263 0.9503 0.0
H234 H 0.19738 0.95119 0.74887 0.0
H235 H 0.18038 0.89315 0.77387 0.0
Gd236 Gd 0.52743 0.99549 0.55384 0.0
Gd237 Gd 0.53915 0.05476 0.79002 0.0
C238 C 0.44646 0.06036 0.03488 0.0
C239 C 0.42059 0.11075 0.97125 0.0
C240 C 0.47182 0.09201 0.87456 0.0
C241 C 0.47216 0.06476 0.94868 0.0
C242 C 0.4461 0.11551 0.88723 0.0
C243 C 0.42076 0.08325 0.04478 0.0
C244 C 0.44723 0.03314 0.10991 0.0
C245 C 0.47364 1.01165 0.10178 0.0
N246 N 0.49758 0.04292 0.93877 0.0
C247 C 0.49902 1.01755 0.01911 0.0
H248 H 0.52025 1.00245 0.02789 0.0
C249 C 0.49942 0.1263 0.73749 0.0
N250 N 0.49718 0.09658 0.79496 0.0
C251 C 0.47377 0.14911 0.742 0.0
C252 C 0.44684 0.14362 0.81664 0.0
H253 H 0.52129 0.1336 0.68986 0.0
H254 H 0.40092 0.07997 0.10971 0.0
H255 H 0.51915 0.03122 0.27208 0.0
H256 H 0.42801 0.02897 0.17655 0.0
H257 H 0.47523 0.99117 0.16302 0.0
H258 H 0.4007 0.12841 0.98082 0.0
H259 H 0.57025 0.93478 0.69178 0.0
H260 H 0.6119 0.02864 0.09251 0.0
H261 H 0.55479 0.04937 0.10968 0.0
H262 H 0.67167 0.94892 0.31421 0.0
H263 H 0.47555 0.17173 0.69193 0.0
H264 H 0.42742 0.16188 0.82287 0.0
H265 H 0.65495 0.99076 0.16872 0.0
H266 H 0.62168 0.90504 0.67037 0.0
N267 N 0.55729 1.00738 0.3709 0.0
C268 C 0.59672 1.02213 0.16967 0.0
C269 C 0.5647 0.03384 0.17871 0.0
C270 C 0.60804 1.00049 0.25681 0.0
C271 C 0.58762 0.9936 0.35795 0.0
C272 C 0.5447 0.02437 0.27519 0.0
N273 N 0.57847 0.96656 0.54221 0.0
C274 C 0.59791 0.9716 0.44351 0.0
C275 C 0.61569 0.92413 0.60686 0.0
C276 C 0.63642 0.93014 0.50884 0.0
C277 C 0.58664 0.94218 0.62103 0.0
C278 C 0.62783 0.95421 0.42603 0.0
H279 H 0.65893 0.91607 0.49788 0.0
O280 O 0.51827 0.94304 0.56173 0.0
O281 O 0.50185 1.019 0.71675 0.0
O282 O 0.55488 1.00438 0.86217 0.0
O283 O 0.52372 0.96995 0.73743 0.0
O284 O 0.47506 1.01631 0.55863 0.0
O285 O 0.49877 0.9701 0.41238 0.0
O286 O 0.54595 0.09496 0.92129 0.0
O287 O 0.56799 1.02171 0.65715 0.0
O288 O 0.51459 0.04573 0.47159 0.0
O289 O 0.53491 0.08309 0.61386 0.0
O290 O 0.57893 0.07186 0.66123 0.0
O291 O 0.58415 0.05891 0.89771 0.0
C292 C 0.47352 0.02546 0.67243 0.0
C293 C 0.64833 0.96144 0.32712 0.0
C294 C 0.63881 0.98519 0.24436 0.0
C295 C 0.49873 0.94222 0.46915 0.0
C296 C 0.46695 0.92601 0.49213 0.0
C297 C 0.46601 0.89512 0.54766 0.0
C298 C 0.43741 0.94165 0.46424 0.0
C299 C 0.40712 0.92673 0.48995 0.0
C300 C 0.43584 0.88034 0.57501 0.0
C301 C 0.40639 0.89599 0.54581 0.0
C302 C 0.54159 0.975 0.83685 0.0
C303 C 0.58809 0.04347 0.61664 0.0
C304 C 0.57688 0.08869 0.93526 0.0
C305 C 0.60003 0.11518 0.90148 0.0
C306 C 0.58921 0.14372 0.84286 0.0
C307 C 0.63367 0.11103 0.9202 0.0
C308 C 0.65628 0.135 0.88241 0.0
C309 C 0.61163 0.16781 0.80665 0.0
C310 C 0.64522 0.16362 0.82704 0.0
C311 C 0.52329 0.07622 0.50407 0.0
H312 H 0.4886 0.88257 0.57057 0.0
H313 H 0.43787 0.96514 0.41904 0.0
H314 H 0.43532 0.85656 0.61774 0.0
H315 H 0.38317 0.88396 0.56469 0.0
H316 H 0.56352 0.1474 0.82401 0.0
H317 H 0.64235 0.0892 0.96561 0.0
H318 H 0.6029 0.18978 0.76297 0.0
H319 H 0.66244 0.18258 0.80057 0.0
Gd320 Gd 0.50014 0.54778 0.86589 0.0
Gd321 Gd 0.55754 0.52246 0.6352 0.0
C322 C 0.66756 0.54407 0.64216 0.0
C323 C 0.67426 0.57973 0.46925 0.0
C324 C 0.62024 0.55757 0.51854 0.0
C325 C 0.63342 0.54228 0.61934 0.0
C326 C 0.6408 0.57585 0.4411 0.0
C327 C 0.68767 0.56368 0.56896 0.0
C328 C 0.68071 0.52506 0.73489 0.0
C329 C 0.66024 0.5038 0.79852 0.0
N330 N 0.61343 0.52347 0.68908 0.0
C331 C 0.62659 0.50288 0.77281 0.0
H332 H 0.61113 0.48615 0.82214 0.0
C333 C 0.57539 0.56348 0.38362 0.0
N334 N 0.58785 0.55286 0.49183 0.0
C335 C 0.59472 0.58214 0.3055 0.0
C336 C 0.62736 0.58886 0.33547 0.0
H337 H 0.55041 0.55837 0.35715 0.0
H338 H 0.71382 0.56581 0.58653 0.0
H339 H 0.4498 0.59043 0.68756 0.0
H340 H 0.70678 0.52577 0.75519 0.0
H341 H 0.67033 0.4882 0.86774 0.0
H342 H 0.69024 0.59417 0.41213 0.0
H343 H 0.50578 0.4979 0.10609 0.0
H344 H 0.35211 0.55322 0.73113 0.0
H345 H 0.39084 0.59241 0.6375 0.0
H346 H 0.36475 0.46949 0.02778 0.0
H347 H 0.58444 0.59128 0.22192 0.0
H348 H 0.64208 0.60356 0.27505 0.0
H349 H 0.34264 0.50721 0.87654 0.0
H350 H 0.4704 0.45886 0.21642 0.0
N351 N 0.44499 0.54952 0.80412 0.0
C352 C 0.37805 0.55215 0.75317 0.0
C353 C 0.39982 0.5743 0.70011 0.0
C354 C 0.38987 0.52943 0.83635 0.0
C355 C 0.4239 0.52894 0.86147 0.0
C356 C 0.43331 0.57299 0.72837 0.0
N357 N 0.46832 0.51117 0.9813 0.0
C358 C 0.43605 0.50864 0.95079 0.0
C359 C 0.46047 0.47269 0.14182 0.0
C360 C 0.42771 0.46847 0.10714 0.0
C361 C 0.48039 0.49481 0.07938 0.0
C362 C 0.4148 0.48734 0.01342 0.0
H363 H 0.41247 0.45108 0.15491 0.0
O364 O 0.48869 0.56733 0.04784 0.0
O365 O 0.55399 0.54654 0.82057 0.0
O366 O 0.55231 0.48365 0.78719 0.0
O367 O 0.49849 0.49161 0.84399 0.0
O368 O 0.54269 0.539 0.99876 0.0
O369 O 0.48974 0.59981 0.89357 0.0
O370 O 0.53832 0.48088 0.52859 0.0
O371 O 0.50333 0.52493 0.67902 0.0
O372 O 0.5088 0.59028 0.73177 0.0
O373 O 0.55648 0.57873 0.62038 0.0
O374 O 0.5164 0.53562 0.50374 0.0
O375 O 0.59059 0.48618 0.55189 0.0
C376 C 0.56697 0.54096 0.92362 0.0
C377 C 0.3813 0.48622 0.98286 0.0
C378 C 0.36875 0.50759 0.8961 0.0
C379 C 0.48108 0.5963 0.007 0.0
C380 C 0.44847 0.61005 0.03928 0.0
C381 C 0.42132 0.59001 0.06568 0.0
C382 C 0.44417 0.64418 0.03702 0.0
C383 C 0.41311 0.65861 0.05935 0.0
C384 C 0.39005 0.60381 0.08155 0.0
C385 C 0.38582 0.63798 0.07766 0.0
C386 C 0.52449 0.47211 0.8346 0.0
C387 C 0.49144 0.53322 0.57613 0.0
C388 C 0.56676 0.46623 0.52326 0.0
C389 C 0.56797 0.43312 0.57595 0.0
C390 C 0.59408 0.42317 0.65024 0.0
C391 C 0.54078 0.41244 0.56129 0.0
C392 C 0.53794 0.38292 0.6255 0.0
C393 C 0.59211 0.39351 0.71195 0.0
C394 C 0.56405 0.37371 0.70135 0.0
C395 C 0.53302 0.59956 0.65721 0.0
H396 H 0.42417 0.56381 0.07457 0.0
H397 H 0.46564 0.65955 0.02306 0.0
H398 H 0.36918 0.58803 0.09967 0.0
H399 H 0.36159 0.6483 0.09385 0.0
H400 H 0.61573 0.43843 0.66249 0.0
H401 H 0.52221 0.41946 0.49647 0.0
H402 H 0.61214 0.38612 0.76997 0.0
H403 H 0.56307 0.35103 0.75127 0.0
Gd404 Gd 1.02007 0.50431 0.8089 0.0
Gd405 Gd 0.04905 0.56297 0.59964 0.0
C406 C 0.05008 0.66801 0.76703 0.0
C407 C 1.00561 0.69438 0.65948 0.0
C408 C 1.0197 0.63701 0.61332 0.0
C409 C 0.04373 0.6382 0.70166 0.0
C410 C 1.00098 0.6654 0.58894 0.0
C411 C 0.03032 0.69576 0.74785 0.0
C412 C 0.07657 0.66932 0.8478 0.0
C413 C 0.09621 0.6415 0.86077 0.0
N414 N 0.06196 0.61072 0.7198 0.0
C415 C 0.0886 0.6124 0.79575 0.0
H416 H 0.10449 0.59166 0.80721 0.0
C417 C 0.99938 0.61009 0.43634 0.0
N418 N 1.01675 0.60911 0.54345 0.0
C419 C 0.97921 0.63691 0.41155 0.0
C420 C 0.97925 0.66435 0.49063 0.0
H421 H 0.99985 0.58918 0.3731 0.0
H422 H 0.03443 0.7186 0.79893 0.0
H423 H 0.93918 0.49106 0.85378 0.0
H424 H 0.08232 0.69175 0.8992 0.0
H425 H 0.11714 0.64237 0.9215 0.0
H426 H 0.99114 0.71624 0.64296 0.0
H427 H 0.09406 0.46538 0.75097 0.0
H428 H 0.91217 0.40011 0.67601 0.0
H429 H 0.8963 0.45091 0.79043 0.0
H430 H 1.01604 0.3519 0.57421 0.0
H431 H 0.96381 0.63635 0.33133 0.0
H432 H 0.9636 0.68515 0.47218 0.0
H433 H 0.95704 0.36315 0.59845 0.0
H434 H 0.11361 0.41276 0.66962 0.0
N435 N 0.97756 0.46653 0.7569 0.0
C436 C 0.93075 0.41837 0.69937 0.0
C437 C 0.92165 0.44705 0.7633 0.0
C438 C 0.96402 0.4125 0.67431 0.0
C439 C 0.98732 0.4372 0.70579 0.0
C440 C 0.94572 0.47021 0.79587 0.0
N441 N 0.04298 0.45453 0.72739 0.0
C442 C 1.02082 0.43073 0.69351 0.0
C443 C 0.08745 0.4175 0.67549 0.0
C444 C 0.06513 0.39339 0.63718 0.0
C445 C 0.07598 0.44779 0.7217 0.0
C446 C 0.03144 0.39959 0.64723 0.0
H447 H 0.07417 0.36996 0.60123 0.0
O448 O 0.02627 0.51146 0.0053 0.0
O449 O 0.03521 0.55786 0.79624 0.0
O450 O 0.09466 0.54212 0.69532 0.0
O451 O 0.07439 0.51285 0.85859 0.0
O452 O 0.99041 0.54858 0.88059 0.0
O453 O 1.01217 0.4641 0.93318 0.0
O454 O 0.09993 0.5713 0.54711 0.0
O455 O 0.04515 0.50767 0.62659 0.0
O456 O 0.97326 0.52247 0.71192 0.0
O457 O 0.99257 0.56116 0.57763 0.0
O458 O 0.03268 0.52421 0.4589 0.0
O459 O 0.06169 0.57728 0.41496 0.0
C460 C 1.0111 0.57177 0.85345 0.0
C461 C 1.00823 0.37566 0.6113 0.0
C462 C 0.97463 0.38215 0.62427 0.0
C463 C 1.01514 0.48241 0.0302 0.0
C464 C 0.98827 0.48083 0.12035 0.0
C465 C 0.99151 0.49903 0.22925 0.0
C466 C 0.95909 0.46265 0.09835 0.0
C467 C 0.93324 0.46366 0.1837 0.0
C468 C 0.96672 0.4985 0.31676 0.0
C469 C 0.93781 0.481 0.29482 0.0
C470 C 0.09932 0.52663 0.79952 0.0
C471 C 0.03456 0.49782 0.52146 0.0
C472 C 0.09229 0.58274 0.44156 0.0
C473 C 0.10608 0.61549 0.41428 0.0
C474 C 0.08629 0.64363 0.40171 0.0
C475 C 0.14018 0.61869 0.40425 0.0
C476 C 0.15485 0.64945 0.38177 0.0
C477 C 0.10066 0.67443 0.38195 0.0
C478 C 0.13484 0.67742 0.37183 0.0
C479 C 0.96792 0.54455 0.62673 0.0
H480 H 1.0135 0.51342 0.24652 0.0
H481 H 0.95598 0.44839 0.01484 0.0
H482 H 0.97016 0.51139 0.40258 0.0
H483 H 0.91847 0.48225 0.36288 0.0
H484 H 0.05986 0.64199 0.40622 0.0
H485 H 0.15529 0.59673 0.40981 0.0
H486 H 0.0852 0.69594 0.3725 0.0
H487 H 0.14553 0.70128 0.35358 0.0
C488 C 0.14222 0.06744 0.24119 0.0
C489 C 0.17414 0.05395 0.25981 0.0
C490 C 0.116 0.06477 0.32659 0.0
C491 C 0.11879 0.0468 0.43486 0.0
H492 H 0.13699 0.08061 0.15907 0.0
H493 H 0.09321 0.07725 0.30667 0.0
S494 S 0.19578 1.00486 0.53089 0.0
N495 N 0.20621 1.02186 0.4011 0.0
N496 N 0.15667 1.01413 0.55349 0.0
C497 C 0.1501 0.03215 0.4537 0.0
C498 C 0.17741 0.03604 0.36861 0.0
C499 C 0.49905 0.12914 0.22727 0.0
C500 C 0.51868 0.15801 0.23965 0.0
C501 C 0.50042 0.1031 0.31173 0.0
C502 C 0.52172 0.1042 0.4133 0.0
H503 H 0.48225 0.12661 0.15122 0.0
H504 H 0.48445 0.08199 0.2973 0.0
S505 S 0.58112 0.1723 0.48142 0.0
N506 N 0.56158 0.1847 0.35914 0.0
N507 N 0.56491 0.13624 0.5143 0.0
C508 C 0.54197 0.13267 0.42514 0.0
C509 C 0.54026 0.15928 0.33993 0.0
C510 C 0.41544 0.53957 0.36275 0.0
C511 C 0.39359 0.51481 0.40172 0.0
C512 C 0.44616 0.54578 0.42184 0.0
C513 C 0.45687 0.52775 0.52389 0.0
H514 H 0.40935 0.55344 0.28316 0.0
H515 H 0.46207 0.56461 0.38539 0.0
S516 S 0.40851 0.46111 0.66572 0.0
N517 N 0.3843 0.47412 0.557 0.0
N518 N 0.44258 0.48318 0.65715 0.0
C519 C 0.43513 0.50317 0.56393 0.0
C520 C 0.40353 0.49759 0.50651 0.0
C521 C 1.01608 0.41485 0.34174 0.0
C522 C 0.0467 0.40511 0.29058 0.0
C523 C 1.01263 0.44345 0.4201 0.0
C524 C 0.03953 0.46408 0.45464 0.0
H525 H 0.99418 0.40103 0.31719 0.0
H526 H 0.98831 0.44954 0.45362 0.0
S527 S 0.12527 0.45035 0.34705 0.0
N528 N 0.10472 0.4194 0.28251 0.0
N529 N 0.09808 0.47202 0.42751 0.0
C530 C 0.07025 0.45436 0.40523 0.0
C531 C 0.07383 0.42542 0.32496 0.0
C532 C 0.90208 0.04414 0.03016 0.0
C533 C 0.89535 1.01495 0.09373 0.0
C534 C 0.92903 0.04652 0.94718 0.0
C535 C 0.95122 1.02009 0.92409 0.0
H536 H 0.88694 0.06574 0.04712 0.0
H537 H 0.93288 0.06967 0.90238 0.0
S538 S 0.94119 0.93623 0.04645 0.0
N539 N 0.91121 0.95754 0.11302 0.0
N540 N 0.9615 0.96242 0.96107 0.0
C541 C 0.94398 0.99043 0.98297 0.0
C542 C 0.91636 0.98782 0.06621 0.0
C543 C 0.52164 0.90275 0.05046 0.0
C544 C 0.55258 0.89409 0.09875 0.0
C545 C 0.51828 0.92837 0.9649 0.0
C546 C 0.54555 0.94707 0.92518 0.0
H547 H 0.49969 0.89035 0.08182 0.0
H548 H 0.49391 0.93426 0.93235 0.0
S549 S 0.63245 0.931 0.0052 0.0
N550 N 0.61153 0.90404 0.0853 0.0
N551 N 0.60481 0.95251 0.93121 0.0
C552 C 0.57658 0.93797 0.96925 0.0
C553 C 0.58016 0.91152 0.05377 0.0
C554 C 0.64781 0.53575 0.11157 0.0
C555 C 0.66807 0.56109 0.06621 0.0
C556 C 0.6157 0.52932 0.06419 0.0
C557 C 0.60211 0.54739 0.96726 0.0
H558 H 0.65612 0.5218 0.18853 0.0
H559 H 0.60114 0.5101 0.10512 0.0
S560 S 0.64444 0.61581 0.81183 0.0
N561 N 0.6717 0.60331 0.91192 0.0
N562 N 0.61175 0.5922 0.8298 0.0
C563 C 0.62211 0.57245 0.92022 0.0
C564 C 0.65481 0.57882 0.9671 0.0
C565 C 0.03095 0.6452 0.08282 0.0
C566 C 1.00526 0.66823 0.06469 0.0
C567 C 0.03338 0.61474 0.01357 0.0
C568 C 1.01047 0.60554 0.92113 0.0
H569 H 0.04879 0.65018 0.15396 0.0
H570 H 0.05314 0.59792 0.03438 0.0
S571 S 0.9383 0.65595 0.83651 0.0
N572 N 0.95642 0.67856 0.94417 0.0
N573 N 0.96069 0.62219 0.81971 0.0
C574 C 0.98465 0.6281 0.90343 0.0
C575 C 0.98229 0.65902 0.97248 0.0
C576 C 0.99867 0.22257 0.4322 0.0
C577 C 0.985 0.23258 0.32205 0.0
C578 C 0.98001 0.20382 0.51256 0.0
C579 C 0.94772 0.19413 0.48201 0.0
H580 H 0.02464 0.22621 0.44995 0.0
H581 H 0.99235 0.19276 0.58891 0.0
S582 S 0.89932 0.22088 0.21748 0.0
N583 N 0.93609 0.23735 0.19771 0.0
N584 N 0.90113 0.20133 0.34767 0.0
C585 C 0.93252 0.20838 0.38181 0.0
C586 C 0.95139 0.22757 0.30067 0.0
C587 C 0.35354 0.99451 0.38292 0.0
C588 C 0.33991 0.97946 0.27832 0.0
C589 C 0.37192 0.97594 0.46408 0.0
C590 C 0.37729 0.94202 0.44132 0.0
H591 H 0.35265 1.02109 0.39571 0.0
H592 H 0.38487 0.98873 0.53746 0.0
S593 S 0.34182 0.89086 0.19014 0.0
N594 N 0.32873 0.92862 0.16488 0.0
N595 N 0.36367 0.89356 0.31667 0.0
C596 C 0.36046 0.92623 0.34485 0.0
C597 C 0.34175 0.94513 0.26271 0.0
C598 C 0.5079 0.31035 0.46183 0.0
C599 C 0.48561 0.3265 0.38554 0.0
C600 C 0.52051 0.32661 0.56481 0.0
C601 C 0.51121 0.35937 0.5919 0.0
H602 H 0.51993 0.28771 0.43193 0.0
H603 H 0.54165 0.31562 0.60753 0.0
S604 S 0.43969 0.40269 0.46204 0.0
N605 N 0.44479 0.36977 0.37251 0.0
N606 N 0.46743 0.39993 0.57115 0.0
C607 C 0.48203 0.37091 0.53835 0.0
C608 C 0.46969 0.35469 0.43168 0.0
C609 C 0.23785 0.61375 0.36548 0.0
C610 C 0.24296 0.61552 0.23895 0.0
C611 C 0.21191 0.63114 0.42128 0.0
C612 C 0.19034 0.64998 0.35106 0.0
H613 H 0.25004 0.59498 0.41744 0.0
H614 H 0.20549 0.62549 0.51442 0.0
S615 S 0.20331 0.67363 0.03041 0.0
N616 N 0.23288 0.64687 0.05707 0.0
N617 N 0.18268 0.67804 0.1598 0.0
C618 C 0.20018 0.65788 0.23243 0.0
C619 C 0.2272 0.64094 0.17677 0.0
C620 C 0.07514 0.84075 0.93849 0.0
C621 C 0.08971 0.82983 0.04591 0.0
C622 C 0.09247 0.86165 0.8615 0.0
C623 C 0.12448 0.87223 0.89181 0.0
H624 H 0.04915 0.83668 0.92232 0.0
H625 H 0.07926 0.87323 0.7883 0.0
S626 S 0.17552 0.84324 0.14624 0.0
N627 N 0.13953 0.82506 0.16508 0.0
N628 N 0.17217 0.86472 0.02085 0.0
C629 C 0.14087 0.857 0.98751 0.0
C630 C 0.12327 0.83573 0.06546 0.0
C631 C 0.72211 0.12781 0.1033 0.0
C632 C 0.73449 0.0968 0.0662 0.0
C633 C 0.70049 0.14472 0.02853 0.0
C634 C 0.69075 0.13064 0.91631 0.0
H635 H 0.72542 0.13668 0.19648 0.0
H636 H 0.68754 0.16595 0.06672 0.0
S637 S 0.7253 0.05614 0.76351 0.0
N638 N 0.74264 0.05725 0.89951 0.0
N639 N 0.7015 0.08908 0.75832 0.0
C640 C 0.70779 0.10304 0.86964 0.0
C641 C 0.72988 0.0859 0.94554 0.0
C642 C 0.45017 0.74074 0.07895 0.0
C643 C 0.44624 0.74619 0.20504 0.0
C644 C 0.43256 0.71544 0.0193 0.0
C645 C 0.41176 0.69464 0.08625 0.0
H646 H 0.47055 0.75193 0.03116 0.0
H647 H 0.43983 0.70839 0.92713 0.0
S648 S 0.38233 0.71043 0.40259 0.0
N649 N 0.41115 0.73847 0.38122 0.0
N650 N 0.37931 0.68951 0.27203 0.0
C651 C 0.40175 0.70564 0.20319 0.0
C652 C 0.41894 0.73203 0.26239 0.0
C653 C 0.84875 0.47846 0.07899 0.0
C654 C 0.83201 0.46767 0.18317 0.0
C655 C 0.88255 0.4722 0.06521 0.0
C656 C 0.89938 0.45324 0.15066 0.0
H657 H 0.83814 0.49783 0.02543 0.0
H658 H 0.89619 0.48665 1.00068 0.0
S659 S 0.86126 0.40453 0.39433 0.0
N660 N 0.83056 0.42605 0.33818 0.0
N661 N 0.89402 0.41376 0.31222 0.0
C662 C 0.8805 0.43475 0.23184 0.0
C663 C 0.84612 0.44118 0.24506 0.0
C664 C 0.05367 0.17989 0.85875 0.0
C665 C 0.02632 0.19351 0.92421 0.0
C666 C 0.05231 0.1481 0.7953 0.0
C667 C 0.02427 0.12692 0.79969 0.0
H668 H 0.07674 0.19326 0.85975 0.0
H669 H 0.07381 0.13974 0.74504 0.0
S670 S 0.94375 0.1533 0.93333 0.0
N671 N 0.96816 0.18489 0.96382 0.0
N672 N 0.96689 0.12582 0.8606 0.0
C673 C 0.9964 0.14159 0.85706 0.0
C674 C 0.99719 0.17415 0.91517 0.0
C675 C 0.40268 0.99591 0.8807 0.0
C676 C 0.37819 1.02125 0.88097 0.0
C677 C 0.43297 0.99789 0.8164 0.0
C678 C 0.44059 0.0244 0.74108 0.0
H679 H 0.39896 0.97388 0.93256 0.0
H680 H 0.45061 0.97809 0.82539 0.0
S681 S 0.38288 0.09278 0.67487 0.0
N682 N 0.36305 0.07165 0.77925 0.0
N683 N 0.41807 0.07333 0.64959 0.0
C684 C 0.4151 0.04788 0.72699 0.0
C685 C 0.38459 0.04677 0.79776 0.0
C686 C 0.54639 0.38874 0.98624 0.0
C687 C 0.51655 0.37064 0.98297 0.0
C688 C 0.54917 0.42089 0.93629 0.0
C689 C 0.52209 0.43702 0.8829 0.0
H690 H 0.56759 0.37836 0.03072 0.0
H691 H 0.57262 0.43353 0.94232 0.0
S692 S 0.4375 0.402 0.86559 0.0
N693 N 0.45907 0.37261 0.92884 0.0
N694 N 0.46375 0.43216 0.83941 0.0
C695 C 0.49206 0.41931 0.88251 0.0
C696 C 0.48946 0.38659 0.93106 0.0
C697 C 0.17099 0.51411 0.02972 0.0
C698 C 0.19908 0.52739 0.97207 0.0
C699 C 0.13959 0.5127 0.97218 0.0
C700 C 0.13412 0.52502 0.85395 0.0
H701 H 0.17284 0.50636 0.12326 0.0
H702 H 0.11907 0.50306 0.02361 0.0
S703 S 0.19974 0.56145 0.66082 0.0
N704 N 0.21909 0.55239 0.78778 0.0
N705 N 0.16121 0.54965 0.68 0.0
C706 C 0.16239 0.53734 0.79394 0.0
C707 C 0.19429 0.53864 0.85262 0.0
C708 C 0.0718 0.89901 0.4291 0.0
C709 C 0.04527 0.87592 0.43491 0.0
C710 C 0.07173 0.93043 0.48871 0.0
C711 C 0.04594 0.94153 0.56531 0.0
H712 H 0.09371 0.89315 0.37689 0.0
H713 H 0.09265 0.94645 0.47394 0.0
S714 S 0.97706 0.887 0.66041 0.0
N715 N 0.99579 0.86469 0.55263 0.0
N716 N 0.99748 0.92225 0.67312 0.0
C717 C 0.02133 0.91735 0.58781 0.0
C718 C 1.02069 0.88521 0.52215 0.0
C719 C 0.65939 0.06582 0.40387 0.0
C720 C 0.68541 0.04264 0.42015 0.0
C721 C 0.62852 0.06406 0.46265 0.0
C722 C 0.62108 0.04025 0.54925 0.0
H723 H 0.66242 0.08682 0.34631 0.0
H724 H 0.61021 0.08242 0.44116 0.0
S725 S 0.68275 0.98147 0.66846 0.0
N726 N 0.70226 0.99853 0.55331 0.0
N727 N 0.64579 0.99847 0.67481 0.0
C728 C 0.6477 1.01944 0.58052 0.0
C729 C 0.67917 1.01995 0.51463 0.0
C730 C 0.49961 0.68449 0.56288 0.0
C731 C 0.52519 0.69917 0.49435 0.0
C732 C 0.50281 0.65329 0.61667 0.0
C733 C 0.53195 0.63447 0.60687 0.0
H734 H 0.47604 0.6968 0.57145 0.0
H735 H 0.4816 0.64347 0.66356 0.0
S736 S 0.60906 0.66397 0.46042 0.0
N737 N 0.58239 0.69363 0.4339 0.0
N738 N 0.58896 0.63593 0.53854 0.0
C739 C 0.55871 0.6499 0.54703 0.0
C740 C 0.55528 0.68183 0.49086 0.0
C741 C 0.89521 0.56067 0.40551 0.0
C742 C 0.86663 0.55154 0.47048 0.0
C743 C 0.92707 0.56041 0.4586 0.0
C744 C 0.93273 0.54999 0.57914 0.0
H745 H 0.89327 0.56581 0.30935 0.0
H746 H 0.94764 0.56615 0.40048 0.0
S747 S 0.86568 0.52957 0.79664 0.0
N748 N 0.84602 0.53545 0.6675 0.0
N749 N 0.90503 0.53615 0.7678 0.0
C750 C 0.90398 0.54342 0.64795 0.0
C751 C 0.87145 0.54372 0.5937 0.0
loop_
_geom_bond_atom_site_label_1
_geom_bond_atom_site_label_2
_geom_bond_distance
_geom_bond_site_symmetry_2
_ccdc_geom_bond_type
H0 C1 0.949 . S
C1 H0 0.949 . S
C1 C2 1.395 . S
C1 C3 1.391 . S
C2 C1 1.395 . S
C2 C5 1.390 . S
C3 C1 1.391 . S
C3 C7 1.387 . S
C3 C8 1.491 . S
H4 C5 0.950 . S
C5 C2 1.390 . S
C5 H4 0.950 . S
C5 C6 1.378 . S
C6 C5 1.378 . S
C6 C7 1.409 . S
C7 C3 1.387 . S
C7 C6 1.409 . S
C7 H9 0.951 . S
C8 C3 1.491 . S
C8 C10 1.382 . S
C8 C12 1.404 . S
H9 C7 0.951 . S
C10 C8 1.382 . S
C10 C11 1.390 . S
C10 H15 0.949 . S
C11 C10 1.390 . S
C11 C16 1.399 . S
C12 C8 1.404 . S
C12 H13 0.950 . S
C12 C14 1.375 . S
H13 C12 0.950 . S
C14 C12 1.375 . S
C14 C16 1.382 . S
C14 H18 0.950 . S
H15 C10 0.949 . S
C16 C11 1.399 . S
C16 C14 1.382 . S
C16 H17 0.952 . S
H17 C16 0.952 . S
H18 C14 0.950 . S
H19 C20 0.949 . S
C20 H19 0.949 . S
C20 C21 1.395 . S
C20 C22 1.391 . S
C21 C20 1.395 . S
C21 C24 1.390 . S
C22 C20 1.391 . S
C22 C26 1.387 . S
C22 C27 1.491 . S
H23 C24 0.950 . S
C24 C21 1.390 . S
C24 H23 0.950 . S
C24 C25 1.378 . S
C25 C24 1.378 . S
C25 C26 1.409 . S
C26 C22 1.387 . S
C26 C25 1.409 . S
C26 H28 0.951 . S
C27 C22 1.491 . S
C27 C29 1.382 . S
C27 C31 1.404 . S
H28 C26 0.951 . S
C29 C27 1.382 . S
C29 C30 1.390 . S
C29 H34 0.949 . S
C30 C29 1.390 . S
C30 C35 1.399 . S
C31 C27 1.404 . S
C31 H32 0.950 . S
C31 C33 1.375 . S
H32 C31 0.950 . S
C33 C31 1.375 . S
C33 C35 1.382 . S
C33 H37 0.950 . S
H34 C29 0.949 . S
C35 C30 1.399 . S
C35 C33 1.382 . S
C35 H36 0.952 . S
H36 C35 0.952 . S
H37 C33 0.950 . S
H38 C39 0.949 . S
C39 H38 0.949 . S
C39 C40 1.395 . S
C39 C41 1.391 . S
C40 C39 1.395 . S
C40 C43 1.390 . S
C41 C39 1.391 . S
C41 C45 1.387 . S
C41 C46 1.491 . S
H42 C43 0.950 . S
C43 C40 1.390 . S
C43 H42 0.950 . S
C43 C44 1.378 . S
C44 C43 1.378 . S
C44 C45 1.409 . S
C45 C41 1.387 . S
C45 C44 1.409 . S
C45 H47 0.951 . S
C46 C41 1.491 . S
C46 C48 1.382 . S
C46 C50 1.404 . S
H47 C45 0.951 . S
C48 C46 1.382 . S
C48 C49 1.390 . S
C48 H53 0.949 . S
C49 C48 1.390 . S
C49 C54 1.399 . S
C50 C46 1.404 . S
C50 H51 0.950 . S
C50 C52 1.375 . S
H51 C50 0.950 . S
C52 C50 1.375 . S
C52 C54 1.382 . S
C52 H56 0.950 . S
H53 C48 0.949 . S
C54 C49 1.399 . S
C54 C52 1.382 . S
C54 H55 0.952 . S
H55 C54 0.952 . S
H56 C52 0.950 . S
H57 C58 0.949 . S
C58 H57 0.949 . S
C58 C59 1.395 . S
C58 C60 1.391 . S
C59 C58 1.395 . S
C59 C62 1.390 . S
C60 C58 1.391 . S
C60 C64 1.387 . S
C60 C65 1.491 . S
H61 C62 0.950 . S
C62 C59 1.390 . S
C62 H61 0.950 . S
C62 C63 1.378 . S
C63 C62 1.378 . S
C63 C64 1.409 . S
C64 C60 1.387 . S
C64 C63 1.409 . S
C64 H66 0.951 . S
C65 C60 1.491 . S
C65 C67 1.382 . S
C65 C69 1.404 . S
H66 C64 0.951 . S
C67 C65 1.382 . S
C67 C68 1.390 . S
C67 H72 0.949 . S
C68 C67 1.390 . S
C68 C73 1.399 . S
C69 C65 1.404 . S
C69 H70 0.950 . S
C69 C71 1.375 . S
H70 C69 0.950 . S
C71 C69 1.375 . S
C71 C73 1.382 . S
C71 H75 0.950 . S
H72 C67 0.949 . S
C73 C68 1.399 . S
C73 C71 1.382 . S
C73 H74 0.952 . S
H74 C73 0.952 . S
H75 C71 0.950 . S
H76 C77 0.949 . S
C77 H76 0.949 . S
C77 C78 1.395 . S
C77 C79 1.391 1_554 S
C78 C77 1.395 . S
C78 C81 1.390 1_554 S
C79 C77 1.391 1_556 S
C79 C83 1.387 . S
C79 C84 1.491 . S
H80 C81 0.950 . S
C81 C78 1.390 1_556 S
C81 H80 0.950 . S
C81 C82 1.378 . S
C82 C81 1.378 . S
C82 C83 1.409 . S
C83 C79 1.387 . S
C83 C82 1.409 . S
C83 H85 0.951 . S
C84 C79 1.491 . S
C84 C86 1.382 1_556 S
C84 C88 1.404 . S
H85 C83 0.951 . S
C86 C84 1.382 1_554 S
C86 C87 1.390 . S
C86 H91 0.949 . S
C87 C86 1.390 . S
C87 C92 1.399 1_554 S
C88 C84 1.404 . S
C88 H89 0.950 . S
C88 C90 1.375 . S
H89 C88 0.950 . S
C90 C88 1.375 . S
C90 C92 1.382 . S
C90 H94 0.950 . S
H91 C86 0.949 . S
C92 C87 1.399 1_556 S
C92 C90 1.382 . S
C92 H93 0.952 . S
H93 C92 0.952 . S
H94 C90 0.950 . S
H95 C96 0.949 . S
C96 H95 0.949 . S
C96 C97 1.395 . S
C96 C98 1.391 1_554 S
C97 C96 1.395 . S
C97 C100 1.390 1_554 S
C98 C96 1.391 1_556 S
C98 C102 1.387 . S
C98 C103 1.491 . S
H99 C100 0.950 . S
C100 C97 1.390 1_556 S
C100 H99 0.950 . S
C100 C101 1.378 . S
C101 C100 1.378 . S
C101 C102 1.409 . S
C102 C98 1.387 . S
C102 C101 1.409 . S
C102 H104 0.951 . S
C103 C98 1.491 . S
C103 C105 1.382 1_556 S
C103 C107 1.404 . S
H104 C102 0.951 . S
C105 C103 1.382 1_554 S
C105 C106 1.390 . S
C105 H110 0.949 . S
C106 C105 1.390 . S
C106 C111 1.399 1_554 S
C107 C103 1.404 . S
C107 H108 0.950 . S
C107 C109 1.375 . S
H108 C107 0.950 . S
C109 C107 1.375 . S
C109 C111 1.382 . S
C109 H113 0.950 1_455 S
H110 C105 0.949 . S
C111 C106 1.399 1_556 S
C111 C109 1.382 . S
C111 H112 0.952 . S
H112 C111 0.952 . S
H113 C109 0.950 1_655 S
H114 C115 0.949 . S
C115 H114 0.949 . S
C115 C116 1.395 . S
C115 C117 1.391 1_554 S
C116 C115 1.395 . S
C116 C119 1.390 1_554 S
C117 C115 1.391 1_556 S
C117 C121 1.387 . S
C117 C122 1.491 . S
H118 C119 0.950 . S
C119 C116 1.390 1_556 S
C119 H118 0.950 . S
C119 C120 1.378 . S
C120 C119 1.378 . S
C120 C121 1.409 . S
C121 C117 1.387 . S
C121 C120 1.409 . S
C121 H123 0.951 . S
C122 C117 1.491 . S
C122 C124 1.382 1_556 S
C122 C126 1.404 . S
H123 C121 0.951 . S
C124 C122 1.382 1_554 S
C124 C125 1.390 . S
C124 H129 0.949 . S
C125 C124 1.390 . S
C125 C130 1.399 1_554 S
C126 C122 1.404 . S
C126 H127 0.950 . S
C126 C128 1.375 . S
H127 C126 0.950 . S
C128 C126 1.375 . S
C128 C130 1.382 . S
C128 H132 0.950 1_545 S
H129 C124 0.949 . S
C130 C125 1.399 1_556 S
C130 C128 1.382 . S
C130 H131 0.952 . S
H131 C130 0.952 . S
H132 C128 0.950 1_565 S
H133 C134 0.949 . S
C134 H133 0.949 . S
C134 C135 1.395 . S
C134 C136 1.391 1_554 S
C135 C134 1.395 . S
C135 C138 1.390 1_554 S
C136 C134 1.391 1_556 S
C136 C140 1.387 . S
C136 C141 1.491 . S
H137 C138 0.950 . S
C138 C135 1.390 1_556 S
C138 H137 0.950 . S
C138 C139 1.378 . S
C139 C138 1.378 . S
C139 C140 1.409 . S
C140 C136 1.387 . S
C140 C139 1.409 . S
C140 H142 0.951 . S
C141 C136 1.491 . S
C141 C143 1.382 1_556 S
C141 C145 1.404 . S
H142 C140 0.951 . S
C143 C141 1.382 1_554 S
C143 C144 1.390 . S
C143 H148 0.949 . S
C144 C143 1.390 . S
C144 C149 1.399 1_554 S
C145 C141 1.404 . S
C145 H146 0.950 . S
C145 C147 1.375 . S
H146 C145 0.950 . S
C147 C145 1.375 . S
C147 C149 1.382 . S
C147 H151 0.950 . S
H148 C143 0.949 . S
C149 C144 1.399 1_556 S
C149 C147 1.382 . S
C149 H150 0.952 . S
H150 C149 0.952 . S
H151 C147 0.950 . S
Gd152 N183 2.661 1_545 S
Gd152 N189 2.601 . S
Gd152 O196 2.545 . S
Gd152 O197 2.606 1_655 S
Gd152 O199 2.429 . S
Gd152 O200 2.545 1_655 S
Gd152 O201 2.412 . S
Gd152 O203 2.362 1_545 S
Gd152 O204 2.324 1_655 S
Gd152 C211 2.828 . S
Gd153 N162 2.661 1_566 S
Gd153 N166 2.601 1_565 S
Gd153 O197 2.362 1_565 S
Gd153 O198 2.324 1_455 S
Gd153 O202 2.545 . S
Gd153 O203 2.606 1_455 S
Gd153 O205 2.429 . S
Gd153 O206 2.545 . S
Gd153 O207 2.412 . S
Gd153 C220 2.828 . S
C154 C157 1.417 . S
C154 C159 1.431 . S
C154 C160 1.412 . S
C155 C158 1.437 . S
C155 C159 1.317 . S
C155 H174 0.929 . S
C156 C157 1.426 . S
C156 C158 1.413 . S
C156 N166 1.359 1_554 S
C157 C154 1.417 . S
C157 C156 1.426 . S
C157 N162 1.350 . S
C158 C155 1.437 . S
C158 C156 1.413 . S
C158 C168 1.391 . S
C159 C154 1.431 . S
C159 C155 1.317 . S
C159 H170 0.930 . S
C160 C154 1.412 . S
C160 C161 1.355 . S
C160 H172 0.930 . S
C161 C160 1.355 . S
C161 C163 1.402 . S
C161 H173 0.930 1_455 S
N162 Gd153 2.661 1_544 S
N162 C157 1.350 . S
N162 C163 1.307 . S
C163 C161 1.402 . S
C163 N162 1.307 . S
C163 H164 0.930 1_455 S
H164 C163 0.930 1_655 S
C165 N166 1.334 1_565 S
C165 C167 1.394 . S
C165 H169 0.930 . S
N166 Gd153 2.601 1_545 S
N166 C156 1.359 1_556 S
N166 C165 1.334 1_545 S
C167 C165 1.394 . S
C167 C168 1.359 1_566 S
C167 H179 0.930 . S
C168 C158 1.391 . S
C168 C167 1.359 1_544 S
C168 H180 0.929 . S
H169 C165 0.930 . S
H170 C159 0.930 . S
H171 C188 0.930 . S
H172 C160 0.930 . S
H173 C161 0.930 1_655 S
H174 C155 0.929 . S
H175 C193 0.930 . S
H176 C184 0.930 . S
H177 C185 0.930 . S
H178 C209 0.929 . S
H179 C167 0.930 . S
H180 C168 0.929 . S
H181 C210 0.930 . S
H182 C191 0.930 . S
N183 Gd152 2.661 1_565 S
N183 C187 1.350 . S
N183 C188 1.307 1_655 S
C184 H176 0.930 . S
C184 C185 1.355 1_655 S
C184 C186 1.412 . S
C185 H177 0.930 . S
C185 C184 1.355 1_455 S
C185 C188 1.402 . S
C186 C184 1.412 . S
C186 C187 1.417 . S
C186 C210 1.431 . S
C187 N183 1.350 . S
C187 C186 1.417 . S
C187 C190 1.422 1_565 S
C188 H171 0.930 . S
C188 N183 1.307 1_455 S
C188 C185 1.402 . S
N189 Gd152 2.601 . S
N189 C190 1.367 . S
N189 C193 1.334 . S
C190 C187 1.422 1_545 S
C190 N189 1.367 . S
C190 C194 1.411 1_545 S
C191 H182 0.930 . S
C191 C192 1.359 . S
C191 C193 1.394 . S
C192 C191 1.359 . S
C192 C194 1.391 1_545 S
C192 H195 0.929 . S
C193 H175 0.930 . S
C193 N189 1.334 . S
C193 C191 1.394 . S
C194 C190 1.411 1_565 S
C194 C192 1.391 1_565 S
C194 C209 1.437 . S
H195 C192 0.929 . S
O196 Gd152 2.545 . S
O196 C211 1.258 . S
O197 Gd152 2.606 1_455 S
O197 Gd153 2.362 1_545 S
O197 C208 1.284 . S
O198 Gd153 2.324 1_655 S
O198 C218 1.254 1_565 S
O199 Gd152 2.429 . S
O199 C218 1.268 . S
O200 Gd152 2.545 1_455 S
O200 C208 1.250 . S
O201 Gd152 2.412 . S
O201 C211 1.252 . S
O202 Gd153 2.545 . S
O202 C220 1.258 . S
O203 Gd152 2.362 1_565 S
O203 Gd153 2.606 1_655 S
O203 C219 1.284 . S
O204 Gd152 2.324 1_455 S
O204 C227 1.254 . S
O205 Gd153 2.429 . S
O205 C227 1.268 1_565 S
O206 Gd153 2.545 . S
O206 C219 1.250 1_455 S
O207 Gd153 2.412 . S
O207 C220 1.252 . S
C208 O197 1.284 . S
C208 O200 1.250 . S
C209 H178 0.929 . S
C209 C194 1.437 . S
C209 C210 1.317 . S
C210 H181 0.930 . S
C210 C186 1.431 . S
C210 C209 1.317 . S
C211 Gd152 2.828 . S
C211 O196 1.258 . S
C211 O201 1.252 . S
C211 C212 1.497 . S
C212 C211 1.497 . S
C212 C213 1.395 . S
C212 C214 1.380 . S
C213 C212 1.395 . S
C213 C216 1.398 . S
C213 H228 0.930 . S
C214 C212 1.380 . S
C214 C215 1.391 . S
C214 H229 0.930 1_655 S
C215 C214 1.391 . S
C215 C217 1.387 . S
C216 C213 1.398 . S
C216 C217 1.380 . S
C216 H230 0.930 . S
C217 C215 1.387 . S
C217 C216 1.380 . S
C217 H231 0.930 . S
C218 O198 1.254 1_545 S
C218 O199 1.268 . S
C219 O203 1.284 . S
C219 O206 1.250 1_655 S
C220 Gd153 2.828 . S
C220 O202 1.258 . S
C220 O207 1.252 . S
C220 C221 1.497 1_556 S
C221 C220 1.497 1_554 S
C221 C222 1.395 . S
C221 C223 1.380 . S
C222 C221 1.395 . S
C222 C225 1.398 . S
C222 H232 0.930 . S
C223 C221 1.380 . S
C223 C224 1.391 . S
C223 H233 0.930 . S
C224 C223 1.391 . S
C224 C226 1.387 . S
C225 C222 1.398 . S
C225 C226 1.380 . S
C225 H234 0.930 . S
C226 C224 1.387 . S
C226 C225 1.380 . S
C226 H235 0.930 . S
C227 O204 1.254 . S
C227 O205 1.268 1_545 S
H228 C213 0.930 . S
H229 C214 0.930 1_455 S
H230 C216 0.930 . S
H231 C217 0.930 . S
H232 C222 0.930 . S
H233 C223 0.930 . S
H234 C225 0.930 . S
H235 C226 0.930 . S
Gd236 N267 2.661 . S
Gd236 N273 2.601 . S
Gd236 O280 2.545 . S
Gd236 O281 2.606 1_565 S
Gd236 O283 2.429 . S
Gd236 O284 2.545 1_565 S
Gd236 O285 2.412 . S
Gd236 O287 2.362 . S
Gd236 O288 2.324 1_565 S
Gd236 C295 2.828 . S
Gd237 N246 2.661 1_556 S
Gd237 N250 2.601 . S
Gd237 O281 2.362 . S
Gd237 O282 2.324 1_545 S
Gd237 O286 2.545 . S
Gd237 O287 2.606 1_545 S
Gd237 O289 2.429 . S
Gd237 O290 2.545 . S
Gd237 O291 2.420 . S
Gd237 C304 2.828 . S
C238 C241 1.417 . S
C238 C243 1.431 . S
C238 C244 1.412 . S
C239 C242 1.437 . S
C239 C243 1.317 . S
C239 H258 0.929 . S
C240 C241 1.426 . S
C240 C242 1.413 . S
C240 N250 1.359 1_554 S
C241 C238 1.417 . S
C241 C240 1.426 . S
C241 N246 1.350 . S
C242 C239 1.437 . S
C242 C240 1.413 . S
C242 C252 1.391 . S
C243 C238 1.431 . S
C243 C239 1.317 . S
C243 H254 0.930 . S
C244 C238 1.412 . S
C244 C245 1.355 . S
C244 H256 0.930 . S
C245 C244 1.355 . S
C245 C247 1.402 . S
C245 H257 0.930 1_545 S
N246 Gd237 2.661 1_554 S
N246 C241 1.350 . S
N246 C247 1.307 . S
C247 C245 1.402 . S
C247 N246 1.307 . S
C247 H248 0.930 1_545 S
H248 C247 0.930 1_565 S
C249 N250 1.334 . S
C249 C251 1.394 . S
C249 H253 0.930 . S
N250 Gd237 2.601 . S
N250 C240 1.359 1_556 S
N250 C249 1.334 . S
C251 C249 1.394 . S
C251 C252 1.359 1_556 S
C251 H263 0.930 . S
C252 C242 1.391 . S
C252 C251 1.359 1_554 S
C252 H264 0.929 . S
H253 C249 0.930 . S
H254 C243 0.930 . S
H255 C272 0.930 . S
H256 C244 0.930 . S
H257 C245 0.930 1_565 S
H258 C239 0.929 . S
H259 C277 0.930 . S
H260 C268 0.930 . S
H261 C269 0.930 . S
H262 C293 0.929 . S
H263 C251 0.930 . S
H264 C252 0.929 . S
H265 C294 0.930 . S
H266 C275 0.930 . S
N267 Gd236 2.661 . S
N267 C271 1.350 . S
N267 C272 1.307 1_565 S
C268 H260 0.930 . S
C268 C269 1.355 1_565 S
C268 C270 1.412 . S
C269 H261 0.930 . S
C269 C268 1.355 1_545 S
C269 C272 1.402 . S
C270 C268 1.412 . S
C270 C271 1.417 . S
C270 C294 1.431 . S
C271 N267 1.350 . S
C271 C270 1.417 . S
C271 C274 1.426 . S
C272 H255 0.930 . S
C272 N267 1.307 1_545 S
C272 C269 1.402 . S
N273 Gd236 2.601 . S
N273 C274 1.359 . S
N273 C277 1.334 . S
C274 C271 1.426 . S
C274 N273 1.359 . S
C274 C278 1.413 . S
C275 H266 0.930 . S
C275 C276 1.359 . S
C275 C277 1.394 . S
C276 C275 1.359 . S
C276 C278 1.391 . S
C276 H279 0.929 . S
C277 H259 0.930 . S
C277 N273 1.334 . S
C277 C275 1.394 . S
C278 C274 1.413 . S
C278 C276 1.391 . S
C278 C293 1.437 . S
H279 C276 0.929 . S
O280 Gd236 2.545 . S
O280 C295 1.258 . S
O281 Gd236 2.606 1_545 S
O281 Gd237 2.362 . S
O281 C292 1.284 . S
O282 Gd237 2.324 1_565 S
O282 C302 1.254 . S
O283 Gd236 2.429 . S
O283 C302 1.268 . S
O284 Gd236 2.545 1_545 S
O284 C292 1.250 . S
O285 Gd236 2.412 . S
O285 C295 1.252 . S
O286 Gd237 2.545 . S
O286 C304 1.258 . S
O287 Gd236 2.362 . S
O287 Gd237 2.606 1_565 S
O287 C303 1.284 . S
O288 Gd236 2.324 1_545 S
O288 C311 1.254 . S
O289 Gd237 2.429 . S
O289 C311 1.268 . S
O290 Gd237 2.545 . S
O290 C303 1.252 1_545 S
O291 Gd237 2.420 . S
O291 C304 1.253 . S
C292 O281 1.284 . S
C292 O284 1.250 . S
C293 H262 0.929 . S
C293 C278 1.437 . S
C293 C294 1.317 . S
C294 H265 0.930 . S
C294 C270 1.431 . S
C294 C293 1.317 . S
C295 Gd236 2.828 . S
C295 O280 1.258 . S
C295 O285 1.252 . S
C295 C296 1.497 . S
C296 C295 1.497 . S
C296 C297 1.395 . S
C296 C298 1.380 . S
C297 C296 1.395 . S
C297 C300 1.398 . S
C297 H312 0.930 . S
C298 C296 1.380 . S
C298 C299 1.391 . S
C298 H313 0.930 1_565 S
C299 C298 1.391 . S
C299 C301 1.387 . S
C300 C297 1.398 . S
C300 C301 1.380 . S
C300 H314 0.930 . S
C301 C299 1.387 . S
C301 C300 1.380 . S
C301 H315 0.930 . S
C302 O282 1.254 . S
C302 O283 1.268 . S
C303 O287 1.284 . S
C303 O290 1.252 1_565 S
C304 Gd237 2.828 . S
C304 O286 1.258 . S
C304 O291 1.253 . S
C304 C305 1.497 1_556 S
C305 C304 1.497 1_554 S
C305 C306 1.395 . S
C305 C307 1.380 . S
C306 C305 1.395 . S
C306 C309 1.398 . S
C306 H316 0.930 . S
C307 C305 1.380 . S
C307 C308 1.391 . S
C307 H317 0.930 . S
C308 C307 1.391 . S
C308 C310 1.387 . S
C309 C306 1.398 . S
C309 C310 1.380 . S
C309 H318 0.930 . S
C310 C308 1.387 . S
C310 C309 1.380 . S
C310 H319 0.930 . S
C311 O288 1.254 . S
C311 O289 1.268 . S
H312 C297 0.930 . S
H313 C298 0.930 1_545 S
H314 C300 0.930 . S
H315 C301 0.930 . S
H316 C306 0.930 . S
H317 C307 0.930 . S
H318 C309 0.930 . S
H319 C310 0.930 . S
Gd320 N351 2.661 . S
Gd320 N357 2.601 . S
Gd320 O364 2.545 1_556 S
Gd320 O365 2.606 . S
Gd320 O367 2.429 . S
Gd320 O368 2.545 . S
Gd320 O369 2.412 . S
Gd320 O371 2.362 . S
Gd320 O372 2.324 . S
Gd320 C379 2.828 1_556 S
Gd321 N330 2.661 . S
Gd321 N334 2.601 . S
Gd321 O365 2.362 . S
Gd321 O366 2.324 . S
Gd321 O370 2.545 . S
Gd321 O371 2.606 . S
Gd321 O373 2.429 . S
Gd321 O374 2.545 . S
Gd321 O375 2.412 . S
Gd321 C388 2.828 . S
C322 C325 1.417 . S
C322 C327 1.431 . S
C322 C328 1.412 . S
C323 C326 1.437 . S
C323 C327 1.317 . S
C323 H342 0.929 . S
C324 C325 1.426 . S
C324 C326 1.413 . S
C324 N334 1.359 . S
C325 C322 1.417 . S
C325 C324 1.426 . S
C325 N330 1.350 . S
C326 C323 1.437 . S
C326 C324 1.413 . S
C326 C336 1.391 . S
C327 C322 1.431 . S
C327 C323 1.317 . S
C327 H338 0.930 . S
C328 C322 1.412 . S
C328 C329 1.355 . S
C328 H340 0.930 . S
C329 C328 1.355 . S
C329 C331 1.402 . S
C329 H341 0.930 . S
N330 Gd321 2.661 . S
N330 C325 1.350 . S
N330 C331 1.307 . S
C331 C329 1.402 . S
C331 N330 1.307 . S
C331 H332 0.930 . S
H332 C331 0.930 . S
C333 N334 1.334 . S
C333 C335 1.394 . S
C333 H337 0.930 . S
N334 Gd321 2.601 . S
N334 C324 1.359 . S
N334 C333 1.334 . S
C335 C333 1.394 . S
C335 C336 1.359 . S
C335 H347 0.930 . S
C336 C326 1.391 . S
C336 C335 1.359 . S
C336 H348 0.929 . S
H337 C333 0.930 . S
H338 C327 0.930 . S
H339 C356 0.930 . S
H340 C328 0.930 . S
H341 C329 0.930 . S
H342 C323 0.929 . S
H343 C361 0.930 . S
H344 C352 0.930 . S
H345 C353 0.930 . S
H346 C377 0.929 . S
H347 C335 0.930 . S
H348 C336 0.929 . S
H349 C378 0.930 . S
H350 C359 0.930 . S
N351 Gd320 2.661 . S
N351 C355 1.350 . S
N351 C356 1.307 . S
C352 H344 0.930 . S
C352 C353 1.355 . S
C352 C354 1.412 . S
C353 H345 0.930 . S
C353 C352 1.355 . S
C353 C356 1.402 . S
C354 C352 1.412 . S
C354 C355 1.417 . S
C354 C378 1.431 . S
C355 N351 1.350 . S
C355 C354 1.417 . S
C355 C358 1.426 . S
C356 H339 0.930 . S
C356 N351 1.307 . S
C356 C353 1.402 . S
N357 Gd320 2.601 . S
N357 C358 1.359 . S
N357 C361 1.334 1_556 S
C358 C355 1.426 . S
C358 N357 1.359 . S
C358 C362 1.413 . S
C359 H350 0.930 . S
C359 C360 1.359 . S
C359 C361 1.394 . S
C360 C359 1.359 . S
C360 C362 1.391 1_554 S
C360 H363 0.929 . S
C361 H343 0.930 . S
C361 N357 1.334 1_554 S
C361 C359 1.394 . S
C362 C358 1.413 . S
C362 C360 1.391 1_556 S
C362 C377 1.437 . S
H363 C360 0.929 . S
O364 Gd320 2.545 1_554 S
O364 C379 1.258 . S
O365 Gd320 2.606 . S
O365 Gd321 2.362 . S
O365 C376 1.284 . S
O366 Gd321 2.324 . S
O366 C386 1.254 . S
O367 Gd320 2.429 . S
O367 C386 1.268 . S
O368 Gd320 2.545 . S
O368 C376 1.250 . S
O369 Gd320 2.412 . S
O369 C379 1.252 1_556 S
O370 Gd321 2.545 . S
O370 C388 1.258 . S
O371 Gd320 2.362 . S
O371 Gd321 2.606 . S
O371 C387 1.284 . S
O372 Gd320 2.324 . S
O372 C395 1.254 . S
O373 Gd321 2.429 . S
O373 C395 1.268 . S
O374 Gd321 2.545 . S
O374 C387 1.250 . S
O375 Gd321 2.412 . S
O375 C388 1.252 . S
C376 O365 1.284 . S
C376 O368 1.250 . S
C377 H346 0.929 . S
C377 C362 1.437 . S
C377 C378 1.317 . S
C378 H349 0.930 . S
C378 C354 1.431 . S
C378 C377 1.317 . S
C379 Gd320 2.828 1_554 S
C379 O364 1.258 . S
C379 O369 1.252 1_554 S
C379 C380 1.497 . S
C380 C379 1.497 . S
C380 C381 1.395 . S
C380 C382 1.380 . S
C381 C380 1.395 . S
C381 C384 1.398 . S
C381 H396 0.930 . S
C382 C380 1.380 . S
C382 C383 1.391 . S
C382 H397 0.930 . S
C383 C382 1.391 . S
C383 C385 1.387 . S
C384 C381 1.398 . S
C384 C385 1.380 . S
C384 H398 0.930 . S
C385 C383 1.387 . S
C385 C384 1.380 . S
C385 H399 0.930 . S
C386 O366 1.254 . S
C386 O367 1.268 . S
C387 O371 1.284 . S
C387 O374 1.250 . S
C388 Gd321 2.828 . S
C388 O370 1.258 . S
C388 O375 1.252 . S
C388 C389 1.497 . S
C389 C388 1.497 . S
C389 C390 1.395 . S
C389 C391 1.380 . S
C390 C389 1.395 . S
C390 C393 1.398 . S
C390 H400 0.930 . S
C391 C389 1.380 . S
C391 C392 1.391 . S
C391 H401 0.930 . S
C392 C391 1.391 . S
C392 C394 1.387 . S
C393 C390 1.398 . S
C393 C394 1.380 . S
C393 H402 0.930 1_554 S
C394 C392 1.387 . S
C394 C393 1.380 . S
C394 H403 0.930 . S
C395 O372 1.254 . S
C395 O373 1.268 . S
H396 C381 0.930 . S
H397 C382 0.930 . S
H398 C384 0.930 . S
H399 C385 0.930 . S
H400 C390 0.930 . S
H401 C391 0.930 . S
H402 C393 0.930 1_556 S
H403 C394 0.930 . S
Gd404 N435 2.661 . S
Gd404 N441 2.600 . S
Gd404 O448 2.545 1_556 S
Gd404 O449 2.606 1_655 S
Gd404 O451 2.429 1_655 S
Gd404 O452 2.545 . S
Gd404 O453 2.412 . S
Gd404 O455 2.362 1_655 S
Gd404 O456 2.324 . S
Gd404 C463 2.828 1_556 S
Gd405 N414 2.661 . S
Gd405 N418 2.601 . S
Gd405 O449 2.362 . S
Gd405 O450 2.324 . S
Gd405 O454 2.545 . S
Gd405 O455 2.606 . S
Gd405 O457 2.429 1_455 S
Gd405 O458 2.545 . S
Gd405 O459 2.412 . S
Gd405 C472 2.828 . S
C406 C409 1.417 . S
C406 C411 1.431 . S
C406 C412 1.412 . S
C407 C410 1.437 . S
C407 C411 1.317 . S
C407 H426 0.929 . S
C408 C409 1.426 . S
C408 C410 1.413 . S
C408 N418 1.359 . S
C409 C406 1.417 . S
C409 C408 1.426 . S
C409 N414 1.350 . S
C410 C407 1.437 . S
C410 C408 1.413 . S
C410 C420 1.391 . S
C411 C406 1.431 . S
C411 C407 1.317 . S
C411 H422 0.930 . S
C412 C406 1.412 . S
C412 C413 1.355 . S
C412 H424 0.930 . S
C413 C412 1.355 . S
C413 C415 1.402 . S
C413 H425 0.930 . S
N414 Gd405 2.661 . S
N414 C409 1.350 . S
N414 C415 1.307 . S
C415 C413 1.402 . S
C415 N414 1.307 . S
C415 H416 0.930 . S
H416 C415 0.930 . S
C417 N418 1.334 1_655 S
C417 C419 1.394 . S
C417 H421 0.930 . S
N418 Gd405 2.601 . S
N418 C408 1.359 . S
N418 C417 1.334 1_455 S
C419 C417 1.394 . S
C419 C420 1.359 1_655 S
C419 H431 0.930 . S
C420 C410 1.391 . S
C420 C419 1.359 1_455 S
C420 H432 0.929 . S
H421 C417 0.930 . S
H422 C411 0.930 . S
H423 C440 0.930 . S
H424 C412 0.930 . S
H425 C413 0.930 . S
H426 C407 0.929 . S
H427 C445 0.930 . S
H428 C436 0.930 . S
H429 C437 0.930 . S
H430 C461 0.929 . S
H431 C419 0.930 . S
H432 C420 0.929 . S
H433 C462 0.930 . S
H434 C443 0.930 . S
N435 Gd404 2.661 . S
N435 C439 1.350 . S
N435 C440 1.307 . S
C436 H428 0.930 . S
C436 C437 1.355 . S
C436 C438 1.412 . S
C437 H429 0.930 . S
C437 C436 1.355 . S
C437 C440 1.402 . S
C438 C436 1.412 . S
C438 C439 1.417 . S
C438 C462 1.431 . S
C439 N435 1.350 . S
C439 C438 1.417 . S
C439 C442 1.426 . S
C440 H423 0.930 . S
C440 N435 1.307 . S
C440 C437 1.402 . S
N441 Gd404 2.600 . S
N441 C442 1.358 . S
N441 C445 1.336 1_656 S
C442 C439 1.426 . S
C442 N441 1.358 . S
C442 C446 1.413 . S
C443 H434 0.930 . S
C443 C444 1.359 . S
C443 C445 1.394 . S
C444 C443 1.359 . S
C444 C446 1.391 1_454 S
C444 H447 0.929 . S
C445 H427 0.930 . S
C445 N441 1.336 1_454 S
C445 C443 1.394 . S
C446 C442 1.413 . S
C446 C444 1.391 1_656 S
C446 C461 1.437 . S
H447 C444 0.929 . S
O448 Gd404 2.545 1_554 S
O448 C463 1.258 . S
O449 Gd404 2.606 1_455 S
O449 Gd405 2.362 . S
O449 C460 1.284 1_455 S
O450 Gd405 2.324 . S
O450 C470 1.254 . S
O451 Gd404 2.429 1_455 S
O451 C470 1.268 . S
O452 Gd404 2.545 . S
O452 C460 1.250 . S
O453 Gd404 2.412 . S
O453 C463 1.252 1_556 S
O454 Gd405 2.545 . S
O454 C472 1.258 . S
O455 Gd404 2.362 1_455 S
O455 Gd405 2.606 . S
O455 C471 1.284 . S
O456 Gd404 2.324 . S
O456 C479 1.254 . S
O457 Gd405 2.429 1_655 S
O457 C479 1.268 . S
O458 Gd405 2.545 . S
O458 C471 1.250 . S
O459 Gd405 2.412 . S
O459 C472 1.252 . S
C460 O449 1.284 1_655 S
C460 O452 1.250 . S
C461 H430 0.929 . S
C461 C446 1.437 . S
C461 C462 1.317 . S
C462 H433 0.930 . S
C462 C438 1.431 . S
C462 C461 1.317 . S
C463 Gd404 2.828 1_554 S
C463 O448 1.258 . S
C463 O453 1.252 1_554 S
C463 C464 1.497 . S
C464 C463 1.497 . S
C464 C465 1.395 . S
C464 C466 1.380 . S
C465 C464 1.395 . S
C465 C468 1.398 . S
C465 H480 0.930 . S
C466 C464 1.380 . S
C466 C467 1.391 . S
C466 H481 0.930 . S
C467 C466 1.391 . S
C467 C469 1.387 . S
C468 C465 1.398 . S
C468 C469 1.380 . S
C468 H482 0.930 . S
C469 C467 1.387 . S
C469 C468 1.380 . S
C469 H483 0.930 . S
C470 O450 1.254 . S
C470 O451 1.268 . S
C471 O455 1.284 . S
C471 O458 1.250 . S
C472 Gd405 2.828 . S
C472 O454 1.258 . S
C472 O459 1.252 . S
C472 C473 1.497 . S
C473 C472 1.497 . S
C473 C474 1.395 . S
C473 C475 1.380 . S
C474 C473 1.395 . S
C474 C477 1.398 . S
C474 H484 0.930 . S
C475 C473 1.380 . S
C475 C476 1.391 . S
C475 H485 0.930 . S
C476 C475 1.391 . S
C476 C478 1.387 . S
C477 C474 1.398 . S
C477 C478 1.380 . S
C477 H486 0.930 1_554 S
C478 C476 1.387 . S
C478 C477 1.380 . S
C478 H487 0.930 . S
C479 O456 1.254 . S
C479 O457 1.268 . S
H480 C465 0.930 . S
H481 C466 0.930 . S
H482 C468 0.930 . S
H483 C469 0.930 . S
H484 C474 0.930 . S
H485 C475 0.930 . S
H486 C477 0.930 1_556 S
H487 C478 0.930 . S
C488 C489 1.369 . S
C488 C490 1.419 . S
C488 H492 0.930 . S
C489 C488 1.369 . S
C489 C498 1.429 . S
C490 C488 1.419 . S
C490 C491 1.363 . S
C490 H493 0.929 . S
C491 C490 1.363 . S
C491 C497 1.428 . S
H492 C488 0.930 . S
H493 C490 0.929 . S
S494 N495 1.613 . S
S494 N496 1.610 . S
N495 S494 1.613 . S
N495 C498 1.350 . S
N496 S494 1.610 . S
N496 C497 1.351 . S
C497 C491 1.428 . S
C497 N496 1.351 . S
C497 C498 1.434 . S
C498 C489 1.429 . S
C498 N495 1.350 . S
C498 C497 1.434 . S
C499 C500 1.369 . S
C499 C501 1.419 . S
C499 H503 0.930 . S
C500 C499 1.369 . S
C500 C509 1.429 . S
C501 C499 1.419 . S
C501 C502 1.363 . S
C501 H504 0.929 . S
C502 C501 1.363 . S
C502 C508 1.428 . S
H503 C499 0.930 . S
H504 C501 0.929 . S
S505 N506 1.613 . S
S505 N507 1.610 . S
N506 S505 1.613 . S
N506 C509 1.350 . S
N507 S505 1.610 . S
N507 C508 1.351 . S
C508 C502 1.428 . S
C508 N507 1.351 . S
C508 C509 1.434 . S
C509 C500 1.429 . S
C509 N506 1.350 . S
C509 C508 1.434 . S
C510 C511 1.369 . S
C510 C512 1.419 . S
C510 H514 0.930 . S
C511 C510 1.369 . S
C511 C520 1.429 . S
C512 C510 1.419 . S
C512 C513 1.363 . S
C512 H515 0.929 . S
C513 C512 1.363 . S
C513 C519 1.428 . S
H514 C510 0.930 . S
H515 C512 0.929 . S
S516 N517 1.613 . S
S516 N518 1.610 . S
N517 S516 1.613 . S
N517 C520 1.350 . S
N518 S516 1.610 . S
N518 C519 1.351 . S
C519 C513 1.428 . S
C519 N518 1.351 . S
C519 C520 1.434 . S
C520 C511 1.429 . S
C520 N517 1.350 . S
C520 C519 1.434 . S
C521 C522 1.369 . S
C521 C523 1.419 . S
C521 H525 0.930 . S
C522 C521 1.369 . S
C522 C531 1.429 . S
C523 C521 1.419 . S
C523 C524 1.363 . S
C523 H526 0.929 . S
C524 C523 1.363 . S
C524 C530 1.428 . S
H525 C521 0.930 . S
H526 C523 0.929 . S
S527 N528 1.613 1_655 S
S527 N529 1.610 . S
N528 S527 1.613 1_455 S
N528 C531 1.350 . S
N529 S527 1.610 . S
N529 C530 1.351 1_655 S
C530 C524 1.428 . S
C530 N529 1.351 1_455 S
C530 C531 1.434 . S
C531 C522 1.429 . S
C531 N528 1.350 . S
C531 C530 1.434 . S
C532 C533 1.369 1_545 S
C532 C534 1.419 . S
C532 H536 0.930 . S
C533 C532 1.369 1_565 S
C533 C542 1.429 . S
C534 C532 1.419 . S
C534 C535 1.363 1_544 S
C534 H537 0.929 . S
C535 C534 1.363 1_566 S
C535 C541 1.428 . S
H536 C532 0.930 . S
H537 C534 0.929 . S
S538 N539 1.613 1_556 S
S538 N540 1.610 . S
N539 S538 1.613 1_554 S
N539 C542 1.350 . S
N540 S538 1.610 . S
N540 C541 1.351 . S
C541 C535 1.428 . S
C541 N540 1.351 . S
C541 C542 1.434 1_556 S
C542 C533 1.429 . S
C542 N539 1.350 . S
C542 C541 1.434 1_554 S
C543 C544 1.369 . S
C543 C545 1.419 . S
C543 H547 0.930 . S
C544 C543 1.369 . S
C544 C553 1.429 . S
C545 C543 1.419 . S
C545 C546 1.363 1_554 S
C545 H548 0.929 1_554 S
C546 C545 1.363 1_556 S
C546 C552 1.428 1_556 S
H547 C543 0.930 . S
H548 C545 0.929 1_556 S
S549 N550 1.613 . S
S549 N551 1.610 1_554 S
N550 S549 1.613 . S
N550 C553 1.350 . S
N551 S549 1.610 1_556 S
N551 C552 1.351 1_556 S
C552 C546 1.428 1_554 S
C552 N551 1.351 1_554 S
C552 C553 1.434 . S
C553 C544 1.429 . S
C553 N550 1.350 . S
C553 C552 1.434 . S
C554 C555 1.369 . S
C554 C556 1.419 . S
C554 H558 0.930 . S
C555 C554 1.369 . S
C555 C564 1.429 . S
C556 C554 1.419 . S
C556 C557 1.363 1_554 S
C556 H559 0.929 . S
C557 C556 1.363 1_556 S
C557 C563 1.428 . S
H558 C554 0.930 . S
H559 C556 0.929 . S
S560 N561 1.613 1_556 S
S560 N562 1.610 . S
N561 S560 1.613 1_554 S
N561 C564 1.350 . S
N562 S560 1.610 . S
N562 C563 1.351 . S
C563 C557 1.428 . S
C563 N562 1.351 . S
C563 C564 1.434 1_556 S
C564 C555 1.429 . S
C564 N561 1.350 . S
C564 C563 1.434 1_554 S
C565 C566 1.382 . S
C565 C567 1.416 1_655 S
C565 H569 0.920 1_655 S
C566 C565 1.382 . S
C566 C575 1.429 . S
C567 C565 1.416 1_455 S
C567 C568 1.363 1_454 S
C567 H570 0.929 . S
C568 C567 1.363 1_656 S
C568 C574 1.428 . S
H569 C565 0.920 1_455 S
H570 C567 0.929 . S
S571 N572 1.613 . S
S571 N573 1.610 1_554 S
N572 S571 1.613 . S
N572 C575 1.350 . S
N573 S571 1.610 1_556 S
N573 C574 1.351 . S
C574 C568 1.428 . S
C574 N573 1.351 . S
C574 C575 1.434 1_556 S
C575 C566 1.429 . S
C575 N572 1.350 . S
C575 C574 1.434 1_554 S
C576 C577 1.369 . S
C576 C578 1.419 . S
C576 H580 0.930 . S
C577 C576 1.369 . S
C577 C586 1.429 . S
C578 C576 1.419 . S
C578 C579 1.363 . S
C578 H581 0.929 . S
C579 C578 1.363 . S
C579 C585 1.423 1_455 S
H580 C576 0.930 . S
H581 C578 0.929 . S
S582 N583 1.613 1_655 S
S582 N584 1.610 . S
N583 S582 1.613 1_455 S
N583 C586 1.350 . S
N584 S582 1.610 . S
N584 C585 1.369 . S
C585 C579 1.423 1_655 S
C585 N584 1.369 . S
C585 C586 1.420 1_655 S
C586 C577 1.429 . S
C586 N583 1.350 . S
C586 C585 1.420 1_455 S
C587 C588 1.369 . S
C587 C589 1.419 . S
C587 H591 0.930 . S
C588 C587 1.369 . S
C588 C597 1.429 . S
C589 C587 1.419 . S
C589 C590 1.363 . S
C589 H592 0.929 . S
C590 C589 1.363 . S
C590 C596 1.428 1_545 S
H591 C587 0.930 . S
H592 C589 0.929 . S
S593 N594 1.613 1_565 S
S593 N595 1.610 . S
N594 S593 1.613 1_545 S
N594 C597 1.350 . S
N595 S593 1.610 . S
N595 C596 1.351 . S
C596 C590 1.428 1_565 S
C596 N595 1.351 . S
C596 C597 1.434 1_565 S
C597 C588 1.429 . S
C597 N594 1.350 . S
C597 C596 1.434 1_545 S
C598 C599 1.369 . S
C598 C600 1.419 . S
C598 H602 0.930 . S
C599 C598 1.369 . S
C599 C608 1.429 . S
C600 C598 1.419 . S
C600 C601 1.363 . S
C600 H603 0.929 . S
C601 C600 1.363 . S
C601 C607 1.428 . S
H602 C598 0.930 . S
H603 C600 0.929 . S
S604 N605 1.613 . S
S604 N606 1.610 . S
N605 S604 1.613 . S
N605 C608 1.350 . S
N606 S604 1.610 . S
N606 C607 1.351 . S
C607 C601 1.428 . S
C607 N606 1.351 . S
C607 C608 1.434 . S
C608 C599 1.429 . S
C608 N605 1.350 . S
C608 C607 1.434 . S
C609 C610 1.369 . S
C609 C611 1.419 . S
C609 H613 0.930 . S
C610 C609 1.369 . S
C610 C619 1.429 . S
C611 C609 1.419 . S
C611 C612 1.363 . S
C611 H614 0.929 . S
C612 C611 1.363 . S
C612 C618 1.428 . S
H613 C609 0.930 . S
H614 C611 0.929 . S
S615 N616 1.613 . S
S615 N617 1.610 . S
N616 S615 1.613 . S
N616 C619 1.350 . S
N617 S615 1.610 . S
N617 C618 1.351 . S
C618 C612 1.428 . S
C618 N617 1.351 . S
C618 C619 1.434 . S
C619 C610 1.429 . S
C619 N616 1.350 . S
C619 C618 1.434 . S
C620 C621 1.369 . S
C620 C622 1.419 . S
C620 H624 0.930 . S
C621 C620 1.369 . S
C621 C630 1.429 . S
C622 C620 1.419 . S
C622 C623 1.363 1_655 S
C622 H625 0.929 . S
C623 C622 1.363 1_455 S
C623 C629 1.428 . S
H624 C620 0.930 . S
H625 C622 0.929 . S
S626 N627 1.613 1_455 S
S626 N628 1.610 . S
N627 S626 1.613 1_655 S
N627 C630 1.350 . S
N628 S626 1.610 . S
N628 C629 1.351 . S
C629 C623 1.428 . S
C629 N628 1.351 . S
C629 C630 1.434 1_455 S
C630 C621 1.429 . S
C630 N627 1.350 . S
C630 C629 1.434 1_655 S
C631 C632 1.369 1_545 S
C631 C633 1.419 . S
C631 H635 0.930 . S
C632 C631 1.369 1_565 S
C632 C641 1.429 . S
C633 C631 1.419 . S
C633 C634 1.363 . S
C633 H636 0.929 . S
C634 C633 1.363 . S
C634 C640 1.428 1_545 S
H635 C631 0.930 . S
H636 C633 0.929 . S
S637 N638 1.613 . S
S637 N639 1.610 . S
N638 S637 1.613 . S
N638 C641 1.350 . S
N639 S637 1.610 . S
N639 C640 1.351 . S
C640 C634 1.428 1_565 S
C640 N639 1.351 . S
C640 C641 1.434 . S
C641 C632 1.429 . S
C641 N638 1.350 . S
C641 C640 1.434 . S
C642 C643 1.369 . S
C642 C644 1.419 . S
C642 H646 0.930 . S
C643 C642 1.369 . S
C643 C652 1.429 . S
C644 C642 1.419 . S
C644 C645 1.363 . S
C644 H647 0.929 . S
C645 C644 1.363 . S
C645 C651 1.428 . S
H646 C642 0.930 . S
H647 C644 0.929 . S
S648 N649 1.613 . S
S648 N650 1.610 . S
N649 S648 1.613 . S
N649 C652 1.350 . S
N650 S648 1.610 . S
N650 C651 1.351 . S
C651 C645 1.428 . S
C651 N650 1.351 . S
C651 C652 1.434 . S
C652 C643 1.429 . S
C652 N649 1.350 . S
C652 C651 1.434 . S
C653 C654 1.369 . S
C653 C655 1.419 . S
C653 H657 0.930 . S
C654 C653 1.369 . S
C654 C663 1.429 . S
C655 C653 1.419 . S
C655 C656 1.363 . S
C655 H658 0.929 . S
C656 C655 1.363 . S
C656 C662 1.428 . S
H657 C653 0.930 . S
H658 C655 0.929 . S
S659 N660 1.613 . S
S659 N661 1.610 . S
N660 S659 1.613 . S
N660 C663 1.350 . S
N661 S659 1.610 . S
N661 C662 1.351 . S
C662 C656 1.428 . S
C662 N661 1.351 . S
C662 C663 1.434 . S
C663 C654 1.429 . S
C663 N660 1.350 . S
C663 C662 1.434 . S
C664 C665 1.369 . S
C664 C666 1.419 . S
C664 H668 0.930 . S
C665 C664 1.369 . S
C665 C674 1.429 . S
C666 C664 1.419 . S
C666 C667 1.363 . S
C666 H669 0.929 . S
C667 C666 1.363 . S
C667 C673 1.428 . S
H668 C664 0.930 . S
H669 C666 0.929 . S
S670 N671 1.613 . S
S670 N672 1.610 . S
N671 S670 1.613 . S
N671 C674 1.350 1_554 S
N672 S670 1.610 . S
N672 C673 1.351 1_554 S
C673 C667 1.428 . S
C673 N672 1.351 1_556 S
C673 C674 1.434 . S
C674 C665 1.429 . S
C674 N671 1.350 1_556 S
C674 C673 1.434 . S
C675 C676 1.369 . S
C675 C677 1.419 . S
C675 H679 0.930 . S
C676 C675 1.369 . S
C676 C685 1.429 . S
C677 C675 1.419 . S
C677 C678 1.363 . S
C677 H680 0.929 1_545 S
C678 C677 1.363 . S
C678 C684 1.428 . S
H679 C675 0.930 . S
H680 C677 0.929 1_565 S
S681 N682 1.613 . S
S681 N683 1.610 . S
N682 S681 1.613 . S
N682 C685 1.350 . S
N683 S681 1.610 . S
N683 C684 1.351 . S
C684 C678 1.428 . S
C684 N683 1.351 . S
C684 C685 1.434 . S
C685 C676 1.429 . S
C685 N682 1.350 . S
C685 C684 1.434 . S
C686 C687 1.369 . S
C686 C688 1.419 . S
C686 H690 0.930 . S
C687 C686 1.369 . S
C687 C696 1.429 . S
C688 C686 1.419 . S
C688 C689 1.363 . S
C688 H691 0.929 . S
C689 C688 1.363 . S
C689 C695 1.428 . S
H690 C686 0.930 . S
H691 C688 0.929 . S
S692 N693 1.613 . S
S692 N694 1.610 . S
N693 S692 1.613 . S
N693 C696 1.350 . S
N694 S692 1.610 . S
N694 C695 1.351 . S
C695 C689 1.428 . S
C695 N694 1.351 . S
C695 C696 1.434 . S
C696 C687 1.429 . S
C696 N693 1.350 . S
C696 C695 1.434 . S
C697 C698 1.369 . S
C697 C699 1.419 . S
C697 H701 0.930 . S
C698 C697 1.369 . S
C698 C707 1.429 . S
C699 C697 1.419 . S
C699 C700 1.363 . S
C699 H702 0.929 . S
C700 C699 1.363 . S
C700 C706 1.428 . S
H701 C697 0.930 . S
H702 C699 0.929 . S
S703 N704 1.613 . S
S703 N705 1.610 . S
N704 S703 1.613 . S
N704 C707 1.350 . S
N705 S703 1.610 . S
N705 C706 1.351 . S
C706 C700 1.428 . S
C706 N705 1.351 . S
C706 C707 1.434 . S
C707 C698 1.429 . S
C707 N704 1.350 . S
C707 C706 1.434 . S
C708 C709 1.369 . S
C708 C710 1.415 1_655 S
C708 H712 0.930 1_655 S
C709 C708 1.369 . S
C709 C718 1.429 . S
C710 C708 1.415 1_455 S
C710 C711 1.346 1_455 S
C710 H713 0.951 . S
C711 C710 1.346 1_655 S
C711 C717 1.428 . S
H712 C708 0.930 1_455 S
H713 C710 0.951 . S
S714 N715 1.613 . S
S714 N716 1.610 . S
N715 S714 1.613 . S
N715 C718 1.350 . S
N716 S714 1.610 . S
N716 C717 1.351 . S
C717 C711 1.428 . S
C717 N716 1.351 . S
C717 C718 1.434 . S
C718 C709 1.429 . S
C718 N715 1.350 . S
C718 C717 1.434 . S
C719 C720 1.369 . S
C719 C721 1.420 . S
C719 H723 0.930 1_565 S
C720 C719 1.369 . S
C720 C729 1.429 . S
C721 C719 1.420 . S
C721 C722 1.369 . S
C721 H724 0.921 1_565 S
C722 C721 1.369 . S
C722 C728 1.428 . S
H723 C719 0.930 1_545 S
H724 C721 0.921 1_545 S
S725 N726 1.613 . S
S725 N727 1.610 . S
N726 S725 1.613 . S
N726 C729 1.350 . S
N727 S725 1.610 . S
N727 C728 1.351 . S
C728 C722 1.428 . S
C728 N727 1.351 . S
C728 C729 1.434 . S
C729 C720 1.429 . S
C729 N726 1.350 . S
C729 C728 1.434 . S
C730 C731 1.369 . S
C730 C732 1.419 . S
C730 H734 0.930 . S
C731 C730 1.369 . S
C731 C740 1.429 . S
C732 C730 1.419 . S
C732 C733 1.363 . S
C732 H735 0.929 . S
C733 C732 1.363 . S
C733 C739 1.428 . S
H734 C730 0.930 . S
H735 C732 0.929 . S
S736 N737 1.613 . S
S736 N738 1.610 . S
N737 S736 1.613 . S
N737 C740 1.350 . S
N738 S736 1.610 . S
N738 C739 1.351 . S
C739 C733 1.428 . S
C739 N738 1.351 . S
C739 C740 1.434 . S
C740 C731 1.429 . S
C740 N737 1.350 . S
C740 C739 1.434 . S
C741 C742 1.369 . S
C741 C743 1.419 . S
C741 H745 0.930 . S
C742 C741 1.369 . S
C742 C751 1.429 . S
C743 C741 1.419 . S
C743 C744 1.363 . S
C743 H746 0.929 . S
C744 C743 1.363 . S
C744 C750 1.428 . S
H745 C741 0.930 . S
H746 C743 0.929 . S
S747 N748 1.613 . S
S747 N749 1.610 . S
N748 S747 1.613 . S
N748 C751 1.350 . S
N749 S747 1.610 . S
N749 C750 1.351 . S
C750 C744 1.428 . S
C750 N749 1.351 . S
C750 C751 1.434 . S
C751 C742 1.429 . S
C751 N748 1.350 . S
C751 C750 1.434 . S
C489 C125 2.065 . S
C491 C227 2.063 . S
C502 C311 2.075 . S
C500 C144 2.062 . S
C513 C387 1.984 . S
C511 C87 2.123 . S
C524 C471 1.966 . S
C522 C106 2.127 . S
C535 C218 2.064 1_565 S
C533 C49 2.156 . S
C544 C68 2.169 . S
C546 C302 2.074 . S
C555 C11 2.238 . S
C557 C376 1.984 . S
C566 C30 2.227 . S
C568 C460 1.969 . S
C579 C215 0.935 1_455 S
C577 C97 0.888 . S
C590 C299 0.899 1_545 S
C588 C116 0.853 . S
C601 C392 0.894 . S
C599 C135 0.855 . S
C610 C78 0.868 . S
C612 C476 0.928 . S
C621 C21 0.876 . S
C623 C224 0.936 . S
C634 C308 0.904 . S
C632 C40 0.873 . S
C645 C383 0.890 . S
C643 C59 0.835 . S
C654 C2 0.867 . S
C656 C467 0.928 . S
C665 C101 2.099 . S
C667 C208 2.184 . S
C676 C120 2.087 . S
C678 C292 2.158 . S
C689 C386 2.276 . S
C687 C139 2.018 . S
C700 C470 2.296 . S
C698 C82 2.029 . S
C709 C25 2.105 . S
C711 C219 2.184 . S
C722 C303 2.161 . S
C720 C44 2.081 . S
C733 C395 2.277 . S
C731 C63 2.021 . S
C742 C6 2.042 . S
C744 C479 2.296 . S
