# Generated by pormake.
# Topology pts, (4,4)-cn, num edge types: 1
# Building blocks:
#     Node 0, Type 0, BuildingBlock: GIZVER_clean_linker_0, # of connection points: 4
#     Node 1, Type 0, BuildingBlock: GIZVER_clean_linker_0, # of connection points: 4
#     Node 2, Type 1, BuildingBlock: AZAVOO_clean_sbu_0, # of connection points: 4
#     Node 3, Type 1, BuildingBlock: AZAVOO_clean_sbu_0, # of connection points: 4
#     Edge 4, Type (0, 1), BuildingBlock: XUDNAN_clean_linker_2, # of connection points: 2
#     Edge 5, Type (0, 1), BuildingBlock: XUDNAN_clean_linker_2, # of connection points: 2
#     Edge 6, Type (0, 1), BuildingBlock: XUDNAN_clean_linker_2, # of connection points: 2
#     Edge 7, Type (0, 1), BuildingBlock: XUDNAN_clean_linker_2, # of connection points: 2
#     Edge 8, Type (0, 1), BuildingBlock: XUDNAN_clean_linker_2, # of connection points: 2
#     Edge 9, Type (0, 1), BuildingBlock: XUDNAN_clean_linker_2, # of connection points: 2
#     Edge 10, Type (0, 1), BuildingBlock: XUDNAN_clean_linker_2, # of connection points: 2
#     Edge 11, Type (0, 1), BuildingBlock: XUDNAN_clean_linker_2, # of connection points: 2
# Relax obj value: 0.014
# Max RMSD: 0.077
# Mean RMSD: 0.070
data_MOF--net-pts--node1-AZAVOO_clean_sbu_0--node2-GIZVER_clean_linker_0--edge1-XUDNAN_clean_linker_2
_symmetry_space_group_name_H-M    P1
_symmetry_Int_Tables_number       1
_symmetry_cell_setting            triclinic
loop_
_symmetry_equiv_pos_as_xyz
'x, y, z'
_cell_length_a     23.874763
_cell_length_b     26.107604
_cell_length_c     36.772412
_cell_angle_alpha  88.899011
_cell_angle_beta   96.57561
_cell_angle_gamma 89.714596
loop_
_atom_site_label
_atom_site_type_symbol
_atom_site_fract_x
_atom_site_fract_y
_atom_site_fract_z
_atom_type_partial_charge
H0 H 0.63017 0.10102 0.00657 0.0
H1 H 0.58428 0.09209 0.89007 0.0
H2 H 0.74678 0.03839 0.93828 0.0
H3 H 0.55372 0.15443 -0.02512 0.0
H4 H 0.53379 0.14948 0.92692 0.0
H5 H 0.50557 0.10558 0.0175 0.0
H6 H 0.36052 0.02009 -0.02465 0.0
H7 H 0.47825 0.0725 0.90264 0.0
C8 C 0.63956 0.08852 -0.02003 0.0
C9 C 0.69308 0.06813 -0.02391 0.0
C10 C 0.59976 0.09682 0.94901 0.0
C11 C 0.61374 0.08374 0.91415 0.0
C12 C 0.66668 0.06227 0.91014 0.0
C13 C 0.70524 0.05354 0.94135 0.0
C14 C 0.5462 0.12648 0.95239 0.0
C15 C 0.49781 0.09195 -0.04066 0.0
C16 C 0.48135 0.08702 -0.00523 0.0
C17 C 0.43243 0.06003 0.00067 0.0
C18 C 0.4002 0.03776 -0.0291 0.0
C19 C 0.41589 0.04178 0.9353 0.0
C20 C 0.46555 0.06841 0.92989 0.0
H21 H 0.10201 0.57675 0.40122 0.0
H22 H 0.15776 0.58439 0.51653 0.0
H23 H 0.04247 0.69761 0.46518 0.0
H24 H 0.19069 0.53286 0.42982 0.0
H25 H 0.20642 0.52933 0.47849 0.0
H26 H 0.13084 0.47072 0.39859 0.0
H27 H 0.07073 0.34597 0.46164 0.0
H28 H 0.14237 0.47789 0.51614 0.0
C29 C 0.0999 0.59459 0.42742 0.0
C30 C 0.06683 0.63888 0.42947 0.0
C31 C 0.13233 0.57444 0.45882 0.0
C32 C 0.13144 0.59876 0.49248 0.0
C33 C 0.09825 0.64268 0.49492 0.0
C34 C 0.06544 0.66194 0.46355 0.0
C35 C 0.17122 0.52957 0.45585 0.0
C36 C 0.13958 0.47994 0.4571 0.0
C37 C 0.12277 0.45381 0.4246 0.0
C38 C 0.09764 0.4053 0.42572 0.0
C39 C 0.08765 0.38428 0.45982 0.0
C40 C 0.10289 0.41055 0.49223 0.0
C41 C 0.12883 0.45837 0.49092 0.0
Mg42 Mg 0.09223 1.00139 0.24306 0.0
O43 O 1.01787 0.01234 0.19823 0.0
O44 O 0.93777 1.01009 0.22441 0.0
Mg45 Mg 0.96129 0.99692 0.28603 0.0
C46 C 0.9641 0.01487 0.19621 0.0
C47 C 0.18582 0.99797 0.18987 0.0
O48 O 0.17994 0.94861 0.19574 0.0
O49 O 0.07894 0.08249 0.26089 0.0
O50 O 1.00169 0.07748 0.28977 0.0
O51 O 0.08969 0.9164 0.23829 0.0
O52 O 1.04071 0.96018 0.27477 0.0
C53 C 0.04264 0.10296 0.27906 0.0
C54 C 0.05329 0.91663 0.26182 0.0
O55 O 0.15488 0.02935 0.20467 0.0
Mg56 Mg 1.01154 0.01186 0.67122 0.0
O57 O 0.08519 1.00571 0.71793 0.0
O58 O 0.16451 1.00311 0.6905 0.0
Mg59 Mg 0.14266 0.99999 0.62864 0.0
C60 C 0.13901 1.00412 0.71916 0.0
C61 C 0.92825 1.00675 0.73089 0.0
O62 O 0.94727 0.95936 0.73306 0.0
O63 O 1.03561 0.09441 0.65867 0.0
O64 O 0.11176 0.08334 0.62948 0.0
O65 O 1.0025 0.92674 0.67023 0.0
O66 O 0.05984 0.97064 0.63845 0.0
C67 C 0.07485 0.11232 0.64136 0.0
C68 C 0.04153 0.92697 0.64856 0.0
O69 O 0.94855 0.03847 0.70932 0.0
H70 H 0.39405 0.97737 0.0368 0.0
H71 H 0.41781 0.14146 0.0444 0.0
H72 H 0.36313 0.14267 0.09762 0.0
H73 H 0.25575 0.97593 0.05294 0.0
H74 H 0.25924 0.91728 0.07981 0.0
H75 H 0.30781 0.92768 0.04652 0.0
H76 H 0.39241 0.91311 0.09647 0.0
H77 H 0.34407 0.90177 0.12993 0.0
H78 H 0.3974 0.95025 0.13752 0.0
H79 H 0.29375 0.12768 0.14348 0.0
H80 H 0.22265 0.09656 0.18234 0.0
H81 H 0.24554 0.9419 0.14508 0.0
C82 C 0.38909 0.01328 0.0504 0.0
C83 C 0.41038 0.05928 0.03675 0.0
C84 C 0.40265 0.10569 0.05488 0.0
C85 C 0.37135 0.10675 0.08494 0.0
C86 C 0.34885 0.06097 0.09676 0.0
C87 C 0.3583 0.01491 0.08047 0.0
C88 C 0.32648 0.97168 0.09666 0.0
C89 C 0.28486 0.94671 0.06723 0.0
C90 C 0.36754 0.93186 0.11632 0.0
C91 C 0.29588 1.00088 0.12363 0.0
C92 C 0.30954 0.05227 0.12347 0.0
C93 C 0.28358 0.08736 0.14435 0.0
C94 C 0.24298 0.06937 0.16615 0.0
C95 C 0.22876 0.01675 0.16691 0.0
C96 C 0.25594 0.98223 0.14546 0.0
H97 H 0.17705 0.34343 0.52711 0.0
H98 H 1.01408 0.41384 0.53264 0.0
H99 H 0.99574 0.3521 0.58196 0.0
H100 H 0.13324 0.22293 0.53017 0.0
H101 H 0.19436 0.19561 0.55709 0.0
H102 H 0.20115 0.25289 0.53026 0.0
H103 H 0.24395 0.30046 0.58802 0.0
H104 H 0.23806 0.24288 0.61516 0.0
H105 H 0.20635 0.30177 0.62781 0.0
H106 H 0.98836 0.27307 0.62143 0.0
H107 H 0.99174 0.18447 0.64654 0.0
H108 H 0.15939 0.16518 0.61379 0.0
C109 C 0.13888 0.34727 0.5402 0.0
C110 C 0.09757 0.38387 0.52723 0.0
C111 C 0.0467 0.38675 0.54327 0.0
C112 C 1.03604 0.35182 0.57116 0.0
C113 C 0.07685 0.31457 0.58252 0.0
C114 C 0.12762 0.31254 0.56775 0.0
C115 C 0.16083 0.26468 0.58029 0.0
C116 C 0.17304 0.23214 0.54751 0.0
C117 C 0.21554 0.27827 0.60426 0.0
C118 C 0.11958 0.23856 0.60268 0.0
C119 C 0.07198 0.26835 0.60449 0.0
C120 C 1.02597 0.24992 0.62088 0.0
C121 C 1.02823 0.19947 0.63503 0.0
C122 C 0.07582 0.1678 0.63212 0.0
C123 C 0.12251 0.18841 0.61666 0.0
H124 H 0.69075 0.03335 0.04756 0.0
H125 H 0.79993 0.10235 -0.02611 0.0
H126 H 0.88018 0.09571 0.02201 0.0
H127 H 0.75589 0.09634 0.13015 0.0
H128 H 0.74845 0.04125 0.15947 0.0
H129 H 0.69859 0.05242 0.11944 0.0
H130 H 0.71964 0.96182 0.09663 0.0
H131 H 0.76989 0.95054 0.13641 0.0
H132 H 0.79125 0.94403 0.09126 0.0
H133 H 0.94974 0.0773 0.07581 0.0
H134 H 1.0039 0.05477 0.13508 0.0
H135 H 0.8505 1.00091 0.17597 0.0
C136 C 0.73142 0.04757 0.04182 0.0
C137 C 0.73931 0.06749 0.00677 0.0
C138 C 0.79319 0.08578 0.00026 0.0
C139 C 0.83903 0.08245 0.02745 0.0
C140 C 0.83036 0.06132 0.0613 0.0
C141 C 0.77793 0.04478 0.06889 0.0
C142 C 0.7808 0.02349 0.10775 0.0
C143 C 0.74374 0.05529 0.13055 0.0
C144 C 0.76443 0.96659 0.10801 0.0
C145 C 0.84301 0.03039 0.12049 0.0
C146 C 0.87071 0.05201 0.09309 0.0
C147 C 0.92855 0.06073 0.09767 0.0
C148 C 0.95899 0.04753 0.13138 0.0
C149 C 0.9315 0.02623 0.16024 0.0
C150 C 0.87268 0.0175 0.15456 0.0
H151 H 1.01325 0.67699 0.53199 0.0
H152 H 0.19451 0.67996 0.53133 0.0
H153 H 0.20163 0.74673 0.57837 0.0
H154 H 0.99214 0.80423 0.53591 0.0
H155 H 0.93807 0.80294 0.56635 0.0
H156 H 0.94799 0.74872 0.53838 0.0
H157 H 0.96184 0.68928 0.59598 0.0
H158 H 0.95114 0.74333 0.62427 0.0
H159 H 1.01423 0.7048 0.63335 0.0
H160 H 0.18652 0.82505 0.61416 0.0
H161 H 0.15124 0.90251 0.64227 0.0
H162 H 0.98071 0.84502 0.62358 0.0
C163 C 0.05453 0.6904 0.54291 0.0
C164 C 0.1034 0.67324 0.52851 0.0
C165 C 0.15677 0.69211 0.54264 0.0
C166 C 0.16114 0.73012 0.56921 0.0
C167 C 0.11184 0.74786 0.58185 0.0
C168 C 0.05964 0.7277 0.56985 0.0
C169 C 1.01275 0.75627 0.58539 0.0
C170 C 0.97028 0.77941 0.55467 0.0
C171 C 0.98326 0.72134 0.6113 0.0
C172 C 0.04636 0.79746 0.60627 0.0
C173 C 0.1035 0.79185 0.60405 0.0
C174 C 0.14214 0.82896 0.61714 0.0
C175 C 0.12179 0.87294 0.63275 0.0
C176 C 0.06356 0.87895 0.63545 0.0
C177 C 1.02566 0.84033 0.62275 0.0
H178 H 0.39238 0.08494 0.86596 0.0
H179 H 0.34956 0.95557 0.93337 0.0
H180 H 0.27251 0.93327 0.88611 0.0
H181 H 0.25697 0.12139 0.82995 0.0
H182 H 0.27365 0.13575 0.78429 0.0
H183 H 0.32718 0.14102 0.82266 0.0
H184 H 0.39198 0.07831 0.79278 0.0
H185 H 0.33916 0.0737 0.75388 0.0
H186 H 0.36543 0.0165 0.77845 0.0
H187 H 0.19275 0.93139 0.83474 0.0
H188 H 0.12758 0.94013 0.77729 0.0
H189 H 0.22935 0.06366 0.74067 0.0
C190 C 0.36809 0.05101 0.87052 0.0
C191 C 0.37669 0.02275 0.90395 0.0
C192 C 0.34301 0.97892 0.90858 0.0
C193 C 0.29919 0.9657 0.88179 0.0
C194 C 0.29041 0.99573 0.84997 0.0
C195 C 0.32499 0.03649 0.84371 0.0
C196 C 0.30707 0.06206 0.80687 0.0
C197 C 0.29022 0.11838 0.81123 0.0
C198 C 0.35367 0.05734 0.78149 0.0
C199 C 0.25635 0.02995 0.79379 0.0
C200 C 0.24688 0.99235 0.81928 0.0
C201 C 0.20033 0.96006 0.81425 0.0
C202 C 0.16333 0.96553 0.78184 0.0
C203 C 0.17393 1.00228 0.75479 0.0
C204 C 0.22082 0.03494 0.76094 0.0
H205 H 1.01063 0.33848 0.40748 0.0
H206 H 0.16352 0.39826 0.36944 0.0
H207 H 0.15622 0.33485 0.32053 0.0
H208 H 0.04705 0.21312 0.40166 0.0
H209 H 0.97728 0.18959 0.38742 0.0
H210 H 0.98595 0.247 0.41357 0.0
H211 H 0.92238 0.29719 0.36302 0.0
H212 H 0.91305 0.23965 0.33672 0.0
H213 H 0.93926 0.29686 0.31648 0.0
H214 H 0.14216 0.25664 0.28289 0.0
H215 H 0.12234 0.17013 0.25938 0.0
H216 H 0.98147 0.15806 0.32401 0.0
C217 C 0.04196 0.33905 0.38839 0.0
C218 C 0.0875 0.37372 0.39235 0.0
C219 C 0.12749 0.37305 0.36667 0.0
C220 C 0.12387 0.33689 0.33881 0.0
C221 C 0.07997 0.30172 0.33687 0.0
C222 C 1.03944 0.30275 0.36082 0.0
C223 C 1.00092 0.25685 0.35605 0.0
C224 C 1.00298 0.22476 0.39179 0.0
C225 C 0.94031 0.27366 0.34223 0.0
C226 C 1.02776 0.2286 0.32685 0.0
C227 C 0.07253 0.25566 0.31561 0.0
C228 C 0.10655 0.23552 0.29097 0.0
C229 C 0.09506 0.18616 0.2779 0.0
C230 C 0.05025 0.15715 0.28979 0.0
C231 C 1.0156 0.17933 0.31402 0.0
H232 H 0.72391 0.98074 0.88633 0.0
H233 H 0.65811 0.13163 0.85311 0.0
H234 H 0.71231 0.13086 0.79977 0.0
H235 H 0.8589 1.0032 0.86998 0.0
H236 H 0.87358 0.94073 0.85313 0.0
H237 H 0.82126 0.94797 0.88418 0.0
H238 H 0.74599 0.90605 0.83793 0.0
H239 H 0.79842 0.89751 0.80694 0.0
H240 H 0.73366 0.93125 0.7917 0.0
H241 H 0.78622 0.11999 0.75679 0.0
H242 H 0.86606 0.09577 0.72331 0.0
H243 H 0.884 0.95209 0.78505 0.0
C244 C 0.7194 0.01281 0.86707 0.0
C245 C 0.68651 0.05608 0.87366 0.0
C246 C 0.68216 0.09767 0.84819 0.0
C247 C 0.71321 0.09774 0.81799 0.0
C248 C 0.74781 0.05567 0.81348 0.0
C249 C 0.75014 0.01348 0.83692 0.0
C250 C 0.79411 0.97511 0.82803 0.0
C251 C 0.83963 0.96628 0.86077 0.0
C252 C 0.76638 0.92448 0.81538 0.0
C253 C 0.81766 1.00311 0.7968 0.0
C254 C 0.79022 0.04936 0.78864 0.0
C255 C 0.80723 0.0834 0.76245 0.0
C256 C 0.85293 0.06948 0.74378 0.0
C257 C 0.88115 0.02193 0.75143 0.0
C258 C 0.86299 0.98846 0.77828 0.0
H259 H 0.11488 0.65807 0.3669 0.0
H260 H 0.96258 0.68484 0.41768 0.0
H261 H 0.93179 0.74965 0.36975 0.0
H262 H 0.14486 0.77797 0.35126 0.0
H263 H 0.17088 0.77158 0.30742 0.0
H264 H 0.17348 0.71769 0.33853 0.0
H265 H 0.11626 0.66346 0.28925 0.0
H266 H 0.11412 0.7172 0.25753 0.0
H267 H 0.04953 0.68718 0.2673 0.0
H268 H 0.93024 0.82525 0.32778 0.0
H269 H 0.95513 0.90151 0.2925 0.0
H270 H 0.10594 0.82404 0.26643 0.0
C271 C 0.07359 0.67547 0.36674 0.0
C272 C 0.041 0.6663 0.39588 0.0
C273 C 0.98819 0.69134 0.39557 0.0
C274 C 0.97023 0.72802 0.36833 0.0
C275 C 1.00505 0.73854 0.3412 0.0
C276 C 0.0551 0.71212 0.33968 0.0
C277 C 0.08873 0.73556 0.31112 0.0
C278 C 0.14791 0.75167 0.32812 0.0
C279 C 0.09235 0.69865 0.27941 0.0
C280 C 0.05201 0.78157 0.2989 0.0
C281 C 1.00332 0.78206 0.31598 0.0
C282 C 0.96716 0.82446 0.31325 0.0
C283 C 0.9818 0.8678 0.29336 0.0
C284 C 1.03205 0.86834 0.27641 0.0
C285 C 0.06637 0.824 0.27818 0.0
loop_
_geom_bond_atom_site_label_1
_geom_bond_atom_site_label_2
_geom_bond_distance
_geom_bond_site_symmetry_2
_ccdc_geom_bond_type
H0 C8 0.930 . S
H1 C11 0.930 . S
H2 C13 0.930 . S
H3 C14 0.970 . S
H4 C14 0.970 1_556 S
H5 C16 0.930 . S
H6 C18 0.928 . S
H7 C20 0.930 . S
C8 H0 0.930 . S
C8 C9 1.382 . S
C8 C10 1.426 . S
C9 C8 1.382 . S
C9 C13 1.389 1_545 S
C10 C8 1.426 . S
C10 C11 1.375 1_554 S
C10 C14 1.532 . S
C11 H1 0.930 . S
C11 C10 1.375 1_556 S
C11 C12 1.416 . S
C12 C11 1.416 . S
C12 C13 1.371 1_546 S
C13 H2 0.930 . S
C13 C9 1.389 1_565 S
C13 C12 1.371 1_564 S
C14 H3 0.970 . S
C14 H4 0.970 1_554 S
C14 C10 1.532 . S
C14 C15 1.499 . S
C15 C14 1.499 . S
C15 C16 1.375 . S
C15 C20 1.411 1_554 S
C16 H5 0.930 . S
C16 C15 1.375 . S
C16 C17 1.407 . S
C17 C16 1.407 . S
C17 C18 1.341 1_544 S
C18 H6 0.928 . S
C18 C17 1.341 1_566 S
C18 C19 1.419 1_565 S
C19 C18 1.419 1_545 S
C19 C20 1.387 . S
C20 H7 0.930 . S
C20 C15 1.411 1_556 S
C20 C19 1.387 . S
H21 C29 0.930 . S
H22 C32 0.930 . S
H23 C34 0.930 1_655 S
H24 C35 0.970 . S
H25 C35 0.970 . S
H26 C37 0.930 . S
H27 C39 0.930 1_655 S
H28 C41 0.930 . S
C29 H21 0.930 . S
C29 C30 1.382 . S
C29 C31 1.426 . S
C30 C29 1.382 . S
C30 C34 1.389 . S
C31 C29 1.426 . S
C31 C32 1.375 . S
C31 C35 1.532 . S
C32 H22 0.930 . S
C32 C31 1.375 . S
C32 C33 1.416 . S
C33 C32 1.416 . S
C33 C34 1.371 . S
C34 H23 0.930 1_455 S
C34 C30 1.389 . S
C34 C33 1.371 . S
C35 H24 0.970 . S
C35 H25 0.970 . S
C35 C31 1.532 . S
C35 C36 1.499 . S
C36 C35 1.499 . S
C36 C37 1.370 . S
C36 C41 1.415 . S
C37 H26 0.930 . S
C37 C36 1.370 . S
C37 C38 1.407 . S
C38 C37 1.407 . S
C38 C39 1.365 . S
C39 H27 0.930 1_455 S
C39 C38 1.365 . S
C39 C40 1.393 . S
C40 C39 1.393 . S
C40 C41 1.387 . S
C41 H28 0.930 . S
C41 C36 1.415 . S
C41 C40 1.387 . S
Mg42 O43 2.028 . S
Mg42 O49 1.986 . S
Mg42 O51 2.114 1_545 S
Mg42 O52 2.251 1_545 S
Mg42 O55 2.010 . S
O43 Mg42 2.028 . S
O43 C46 1.250 1_455 S
O44 Mg45 2.028 . S
O44 C46 1.248 . S
Mg45 O44 2.028 . S
Mg45 O50 2.032 . S
Mg45 O52 2.079 1_645 S
C46 O43 1.250 1_655 S
C46 O44 1.248 . S
C47 O48 1.264 . S
C47 O55 1.249 . S
O48 C47 1.264 . S
O49 Mg42 1.986 . S
O49 C53 1.246 . S
O50 Mg45 2.032 . S
O50 C53 1.259 1_655 S
O51 Mg42 2.114 1_565 S
O51 C54 1.252 . S
O52 Mg42 2.251 1_565 S
O52 Mg45 2.079 1_465 S
O52 C54 1.273 . S
C53 O49 1.246 . S
C53 O50 1.259 1_455 S
C54 O51 1.252 . S
C54 O52 1.273 . S
O55 Mg42 2.010 . S
O55 C47 1.249 . S
Mg56 O57 2.028 1_655 S
Mg56 O63 1.986 . S
Mg56 O65 2.114 1_545 S
Mg56 O66 2.251 1_645 S
Mg56 O69 2.010 . S
O57 Mg56 2.028 1_455 S
O57 C60 1.250 . S
O58 Mg59 2.028 . S
O58 C60 1.248 . S
Mg59 O58 2.028 . S
Mg59 O64 2.032 . S
Mg59 O66 2.079 1_545 S
C60 O57 1.250 . S
C60 O58 1.248 . S
C61 O62 1.264 . S
C61 O69 1.249 . S
O62 C61 1.264 . S
O63 Mg56 1.986 . S
O63 C67 1.246 1_655 S
O64 Mg59 2.032 . S
O64 C67 1.259 . S
O65 Mg56 2.114 1_565 S
O65 C68 1.252 1_655 S
O66 Mg56 2.251 1_465 S
O66 Mg59 2.079 1_565 S
O66 C68 1.273 . S
C67 O63 1.246 1_455 S
C67 O64 1.259 . S
C68 O65 1.252 1_455 S
C68 O66 1.273 . S
O69 Mg56 2.010 . S
O69 C61 1.249 . S
H70 C82 0.930 . S
H71 C84 0.930 . S
H72 C85 0.930 . S
H73 C89 0.959 1_545 S
H74 C89 0.959 . S
H75 C89 0.961 . S
H76 C90 0.960 . S
H77 C90 0.961 . S
H78 C90 0.959 . S
H79 C93 0.929 . S
H80 C94 0.931 . S
H81 C96 0.930 . S
C82 H70 0.930 . S
C82 C83 1.399 1_565 S
C82 C87 1.399 . S
C83 C82 1.399 1_545 S
C83 C84 1.376 . S
C84 H71 0.930 . S
C84 C83 1.376 . S
C84 C85 1.388 . S
C85 H72 0.930 . S
C85 C84 1.388 . S
C85 C86 1.390 . S
C86 C85 1.390 . S
C86 C87 1.394 1_545 S
C86 C92 1.465 . S
C87 C82 1.399 . S
C87 C86 1.394 1_565 S
C87 C88 1.516 . S
C88 C87 1.516 . S
C88 C89 1.502 . S
C88 C90 1.561 . S
C88 C91 1.526 . S
C89 H73 0.959 1_565 S
C89 H74 0.959 . S
C89 H75 0.961 . S
C89 C88 1.502 . S
C90 H76 0.960 . S
C90 H77 0.961 . S
C90 H78 0.959 . S
C90 C88 1.561 . S
C91 C88 1.526 . S
C91 C92 1.396 1_565 S
C91 C96 1.390 . S
C92 C86 1.465 . S
C92 C91 1.396 1_545 S
C92 C93 1.399 . S
C93 H79 0.929 . S
C93 C92 1.399 . S
C93 C94 1.385 . S
C94 H80 0.931 . S
C94 C93 1.385 . S
C94 C95 1.389 . S
C95 C94 1.389 . S
C95 C96 1.387 1_545 S
C96 H81 0.930 . S
C96 C91 1.390 . S
C96 C95 1.387 1_565 S
H97 C109 0.930 . S
H98 C111 0.930 . S
H99 C112 0.928 1_655 S
H100 C116 0.959 . S
H101 C116 0.959 . S
H102 C116 0.961 . S
H103 C117 0.960 . S
H104 C117 0.961 . S
H105 C117 0.959 . S
H106 C120 0.929 . S
H107 C121 0.931 . S
H108 C123 0.930 . S
C109 H97 0.930 . S
C109 C110 1.399 . S
C109 C114 1.399 . S
C110 C109 1.399 . S
C110 C111 1.376 . S
C111 H98 0.930 . S
C111 C110 1.376 . S
C111 C112 1.391 . S
C112 H99 0.928 1_455 S
C112 C111 1.391 . S
C112 C113 1.390 . S
C113 C112 1.390 . S
C113 C114 1.394 . S
C113 C119 1.465 . S
C114 C109 1.399 . S
C114 C113 1.394 . S
C114 C115 1.516 . S
C115 C114 1.516 . S
C115 C116 1.502 . S
C115 C117 1.561 1_455 S
C115 C118 1.526 . S
C116 H100 0.959 . S
C116 H101 0.959 . S
C116 H102 0.961 . S
C116 C115 1.502 . S
C117 H103 0.960 . S
C117 H104 0.961 . S
C117 H105 0.959 . S
C117 C115 1.561 1_655 S
C118 C115 1.526 . S
C118 C119 1.396 . S
C118 C123 1.390 . S
C119 C113 1.465 . S
C119 C118 1.396 . S
C119 C120 1.399 1_455 S
C120 H106 0.929 . S
C120 C119 1.399 1_655 S
C120 C121 1.385 . S
C121 H107 0.931 . S
C121 C120 1.385 . S
C121 C122 1.389 1_655 S
C122 C121 1.389 1_455 S
C122 C123 1.387 . S
C123 H108 0.930 . S
C123 C118 1.390 . S
C123 C122 1.387 . S
H124 C136 0.930 . S
H125 C138 0.930 . S
H126 C139 0.930 . S
H127 C143 0.959 . S
H128 C143 0.959 . S
H129 C143 0.961 . S
H130 C144 0.960 . S
H131 C144 0.961 . S
H132 C144 0.959 . S
H133 C147 0.929 . S
H134 C148 0.931 . S
H135 C150 0.930 . S
C136 H124 0.930 . S
C136 C137 1.399 1_565 S
C136 C141 1.399 . S
C137 C136 1.399 1_545 S
C137 C138 1.376 . S
C138 H125 0.930 . S
C138 C137 1.376 . S
C138 C139 1.388 . S
C139 H126 0.930 . S
C139 C138 1.388 . S
C139 C140 1.390 . S
C140 C139 1.390 . S
C140 C141 1.394 1_545 S
C140 C146 1.465 . S
C141 C136 1.399 . S
C141 C140 1.394 1_565 S
C141 C142 1.516 . S
C142 C141 1.516 . S
C142 C143 1.502 . S
C142 C144 1.561 . S
C142 C145 1.526 . S
C143 H127 0.959 . S
C143 H128 0.959 . S
C143 H129 0.961 . S
C143 C142 1.502 . S
C144 H130 0.960 . S
C144 H131 0.961 . S
C144 H132 0.959 . S
C144 C142 1.561 . S
C145 C142 1.526 . S
C145 C146 1.396 1_565 S
C145 C150 1.390 . S
C146 C140 1.465 . S
C146 C145 1.396 1_545 S
C146 C147 1.399 . S
C147 H133 0.929 . S
C147 C146 1.399 . S
C147 C148 1.385 . S
C148 H134 0.931 . S
C148 C147 1.385 . S
C148 C149 1.389 . S
C149 C148 1.389 . S
C149 C150 1.387 1_545 S
C150 H135 0.930 . S
C150 C145 1.390 . S
C150 C149 1.387 1_565 S
H151 C163 0.930 . S
H152 C165 0.930 . S
H153 C166 0.930 . S
H154 C170 0.959 . S
H155 C170 0.959 . S
H156 C170 0.961 . S
H157 C171 0.960 . S
H158 C171 0.961 . S
H159 C171 0.959 . S
H160 C174 0.929 . S
H161 C175 0.931 . S
H162 C177 0.930 . S
C163 H151 0.930 . S
C163 C164 1.399 1_655 S
C163 C168 1.399 . S
C164 C163 1.399 1_455 S
C164 C165 1.376 . S
C165 H152 0.930 . S
C165 C164 1.376 . S
C165 C166 1.388 . S
C166 H153 0.930 . S
C166 C165 1.388 . S
C166 C167 1.390 . S
C167 C166 1.390 . S
C167 C168 1.394 1_455 S
C167 C173 1.465 . S
C168 C163 1.399 . S
C168 C167 1.394 1_655 S
C168 C169 1.516 . S
C169 C168 1.516 . S
C169 C170 1.502 . S
C169 C171 1.561 . S
C169 C172 1.526 . S
C170 H154 0.959 . S
C170 H155 0.959 . S
C170 H156 0.961 . S
C170 C169 1.502 . S
C171 H157 0.960 . S
C171 H158 0.961 . S
C171 H159 0.959 . S
C171 C169 1.561 . S
C172 C169 1.526 . S
C172 C173 1.396 1_655 S
C172 C177 1.390 . S
C173 C167 1.465 . S
C173 C172 1.396 1_455 S
C173 C174 1.399 . S
C174 H160 0.929 . S
C174 C173 1.399 . S
C174 C175 1.385 . S
C175 H161 0.931 . S
C175 C174 1.385 . S
C175 C176 1.389 . S
C176 C175 1.389 . S
C176 C177 1.387 1_455 S
C177 H162 0.930 . S
C177 C172 1.390 . S
C177 C176 1.387 1_655 S
H178 C190 0.930 . S
H179 C192 0.930 . S
H180 C193 0.930 . S
H181 C197 0.959 . S
H182 C197 0.959 . S
H183 C197 0.961 . S
H184 C198 0.960 . S
H185 C198 0.961 . S
H186 C198 0.959 . S
H187 C201 0.929 . S
H188 C202 0.931 . S
H189 C204 0.930 . S
C190 H178 0.930 . S
C190 C191 1.399 . S
C190 C195 1.399 . S
C191 C190 1.399 . S
C191 C192 1.376 1_545 S
C192 H179 0.930 . S
C192 C191 1.376 1_565 S
C192 C193 1.388 . S
C193 H180 0.930 . S
C193 C192 1.388 . S
C193 C194 1.390 . S
C194 C193 1.390 . S
C194 C195 1.394 1_565 S
C194 C200 1.465 . S
C195 C190 1.399 . S
C195 C194 1.394 1_545 S
C195 C196 1.516 . S
C196 C195 1.516 . S
C196 C197 1.502 . S
C196 C198 1.561 . S
C196 C199 1.526 . S
C197 H181 0.959 . S
C197 H182 0.959 . S
C197 H183 0.961 . S
C197 C196 1.502 . S
C198 H184 0.960 . S
C198 H185 0.961 . S
C198 H186 0.959 . S
C198 C196 1.561 . S
C199 C196 1.526 . S
C199 C200 1.396 1_545 S
C199 C204 1.390 . S
C200 C194 1.465 . S
C200 C199 1.396 1_565 S
C200 C201 1.399 . S
C201 H187 0.929 . S
C201 C200 1.399 . S
C201 C202 1.385 . S
C202 H188 0.931 . S
C202 C201 1.385 . S
C202 C203 1.389 1_565 S
C203 C202 1.389 1_545 S
C203 C204 1.387 . S
C204 H189 0.930 . S
C204 C199 1.390 . S
C204 C203 1.387 . S
H205 C217 0.930 . S
H206 C219 0.930 . S
H207 C220 0.930 . S
H208 C224 0.959 . S
H209 C224 0.959 . S
H210 C224 0.961 . S
H211 C225 0.960 . S
H212 C225 0.961 . S
H213 C225 0.959 1_455 S
H214 C228 0.929 . S
H215 C229 0.931 . S
H216 C231 0.930 1_655 S
C217 H205 0.930 . S
C217 C218 1.399 1_655 S
C217 C222 1.399 1_655 S
C218 C217 1.399 1_455 S
C218 C219 1.376 . S
C219 H206 0.930 . S
C219 C218 1.376 . S
C219 C220 1.388 . S
C220 H207 0.930 . S
C220 C219 1.388 . S
C220 C221 1.390 . S
C221 C220 1.390 . S
C221 C222 1.394 . S
C221 C227 1.465 . S
C222 C217 1.399 1_455 S
C222 C221 1.394 . S
C222 C223 1.516 1_455 S
C223 C222 1.516 1_655 S
C223 C224 1.502 . S
C223 C225 1.561 . S
C223 C226 1.526 1_655 S
C224 H208 0.959 . S
C224 H209 0.959 . S
C224 H210 0.961 . S
C224 C223 1.502 . S
C225 H211 0.960 . S
C225 H212 0.961 . S
C225 H213 0.959 1_655 S
C225 C223 1.561 . S
C226 C223 1.526 1_455 S
C226 C227 1.396 . S
C226 C231 1.390 . S
C227 C221 1.465 . S
C227 C226 1.396 . S
C227 C228 1.399 . S
C228 H214 0.929 . S
C228 C227 1.399 . S
C228 C229 1.385 . S
C229 H215 0.931 . S
C229 C228 1.385 . S
C229 C230 1.389 . S
C230 C229 1.389 . S
C230 C231 1.387 . S
C231 H216 0.930 1_455 S
C231 C226 1.390 . S
C231 C230 1.387 . S
H232 C244 0.930 . S
H233 C246 0.930 . S
H234 C247 0.930 . S
H235 C251 0.959 . S
H236 C251 0.959 . S
H237 C251 0.961 . S
H238 C252 0.960 . S
H239 C252 0.961 . S
H240 C252 0.959 . S
H241 C255 0.929 . S
H242 C256 0.931 . S
H243 C258 0.930 . S
C244 H232 0.930 . S
C244 C245 1.399 1_565 S
C244 C249 1.399 . S
C245 C244 1.399 1_545 S
C245 C246 1.376 . S
C246 H233 0.930 . S
C246 C245 1.376 . S
C246 C247 1.388 . S
C247 H234 0.930 . S
C247 C246 1.388 . S
C247 C248 1.390 . S
C248 C247 1.390 . S
C248 C249 1.394 1_545 S
C248 C254 1.465 . S
C249 C244 1.399 . S
C249 C248 1.394 1_565 S
C249 C250 1.516 . S
C250 C249 1.516 . S
C250 C251 1.502 . S
C250 C252 1.561 . S
C250 C253 1.526 . S
C251 H235 0.959 . S
C251 H236 0.959 . S
C251 H237 0.961 . S
C251 C250 1.502 . S
C252 H238 0.960 . S
C252 H239 0.961 . S
C252 H240 0.959 . S
C252 C250 1.561 . S
C253 C250 1.526 . S
C253 C254 1.396 1_565 S
C253 C258 1.390 . S
C254 C248 1.465 . S
C254 C253 1.396 1_545 S
C254 C255 1.399 . S
C255 H241 0.929 . S
C255 C254 1.399 . S
C255 C256 1.385 . S
C256 H242 0.931 . S
C256 C255 1.385 . S
C256 C257 1.389 . S
C257 C256 1.389 . S
C257 C258 1.387 1_545 S
C258 H243 0.930 . S
C258 C253 1.390 . S
C258 C257 1.387 1_565 S
H259 C271 0.930 . S
H260 C273 0.930 . S
H261 C274 0.930 . S
H262 C278 0.959 . S
H263 C278 0.959 . S
H264 C278 0.961 . S
H265 C279 0.960 . S
H266 C279 0.961 . S
H267 C279 0.959 . S
H268 C282 0.929 . S
H269 C283 0.931 . S
H270 C285 0.930 . S
C271 H259 0.930 . S
C271 C272 1.399 . S
C271 C276 1.399 . S
C272 C271 1.399 . S
C272 C273 1.376 . S
C273 H260 0.930 . S
C273 C272 1.376 . S
C273 C274 1.388 . S
C274 H261 0.930 . S
C274 C273 1.388 . S
C274 C275 1.390 . S
C275 C274 1.390 . S
C275 C276 1.394 . S
C275 C281 1.465 . S
C276 C271 1.399 . S
C276 C275 1.394 . S
C276 C277 1.516 . S
C277 C276 1.516 . S
C277 C278 1.502 . S
C277 C279 1.561 1_455 S
C277 C280 1.526 . S
C278 H262 0.959 . S
C278 H263 0.959 . S
C278 H264 0.961 . S
C278 C277 1.502 . S
C279 H265 0.960 . S
C279 H266 0.961 . S
C279 H267 0.959 . S
C279 C277 1.561 1_655 S
C280 C277 1.526 . S
C280 C281 1.396 . S
C280 C285 1.390 . S
C281 C275 1.465 . S
C281 C280 1.396 . S
C281 C282 1.399 . S
C282 H268 0.929 . S
C282 C281 1.399 . S
C282 C283 1.385 . S
C283 H269 0.931 . S
C283 C282 1.385 . S
C283 C284 1.389 . S
C284 C283 1.389 . S
C284 C285 1.387 . S
C285 H270 0.930 . S
C285 C280 1.390 . S
C285 C284 1.387 . S
C95 C47 1.211 . S
C83 C17 1.496 . S
C122 C67 1.511 . S
C110 C40 1.454 . S
C149 C46 1.515 . S
C137 C9 1.423 . S
C176 C68 1.547 . S
C164 C33 1.419 . S
C203 C60 1.476 . S
C191 C19 1.503 . S
C230 C53 1.541 . S
C218 C38 1.430 . S
C257 C61 1.249 . S
C245 C12 1.450 . S
C272 C30 1.456 . S
C284 C54 1.556 . S
