# Generated by pormake.
# Topology pyr, (3,6)-cn, num edge types: 1
# Building blocks:
#     Node 0, Type 0, BuildingBlock: MIDCAF_clean_linker_0, # of connection points: 3
#     Node 1, Type 0, BuildingBlock: MIDCAF_clean_linker_0, # of connection points: 3
#     Node 2, Type 0, BuildingBlock: MIDCAF_clean_linker_0, # of connection points: 3
#     Node 3, Type 0, BuildingBlock: MIDCAF_clean_linker_0, # of connection points: 3
#     Node 4, Type 0, BuildingBlock: MIDCAF_clean_linker_0, # of connection points: 3
#     Node 5, Type 0, BuildingBlock: MIDCAF_clean_linker_0, # of connection points: 3
#     Node 6, Type 0, BuildingBlock: MIDCAF_clean_linker_0, # of connection points: 3
#     Node 7, Type 0, BuildingBlock: MIDCAF_clean_linker_0, # of connection points: 3
#     Node 8, Type 1, BuildingBlock: VOLQOD_clean_sbu_1, # of connection points: 6
#     Node 9, Type 1, BuildingBlock: VOLQOD_clean_sbu_1, # of connection points: 6
#     Node 10, Type 1, BuildingBlock: VOLQOD_clean_sbu_1, # of connection points: 6
#     Node 11, Type 1, BuildingBlock: VOLQOD_clean_sbu_1, # of connection points: 6
#     Edge 12, Type (0, 1), BuildingBlock: KIFKEQ_clean_linker_1, # of connection points: 2
#     Edge 13, Type (0, 1), BuildingBlock: KIFKEQ_clean_linker_1, # of connection points: 2
#     Edge 14, Type (0, 1), BuildingBlock: KIFKEQ_clean_linker_1, # of connection points: 2
#     Edge 15, Type (0, 1), BuildingBlock: KIFKEQ_clean_linker_1, # of connection points: 2
#     Edge 16, Type (0, 1), BuildingBlock: KIFKEQ_clean_linker_1, # of connection points: 2
#     Edge 17, Type (0, 1), BuildingBlock: KIFKEQ_clean_linker_1, # of connection points: 2
#     Edge 18, Type (0, 1), BuildingBlock: KIFKEQ_clean_linker_1, # of connection points: 2
#     Edge 19, Type (0, 1), BuildingBlock: KIFKEQ_clean_linker_1, # of connection points: 2
#     Edge 20, Type (0, 1), BuildingBlock: KIFKEQ_clean_linker_1, # of connection points: 2
#     Edge 21, Type (0, 1), BuildingBlock: KIFKEQ_clean_linker_1, # of connection points: 2
#     Edge 22, Type (0, 1), BuildingBlock: KIFKEQ_clean_linker_1, # of connection points: 2
#     Edge 23, Type (0, 1), BuildingBlock: KIFKEQ_clean_linker_1, # of connection points: 2
#     Edge 24, Type (0, 1), BuildingBlock: KIFKEQ_clean_linker_1, # of connection points: 2
#     Edge 25, Type (0, 1), BuildingBlock: KIFKEQ_clean_linker_1, # of connection points: 2
#     Edge 26, Type (0, 1), BuildingBlock: KIFKEQ_clean_linker_1, # of connection points: 2
#     Edge 27, Type (0, 1), BuildingBlock: KIFKEQ_clean_linker_1, # of connection points: 2
#     Edge 28, Type (0, 1), BuildingBlock: KIFKEQ_clean_linker_1, # of connection points: 2
#     Edge 29, Type (0, 1), BuildingBlock: KIFKEQ_clean_linker_1, # of connection points: 2
#     Edge 30, Type (0, 1), BuildingBlock: KIFKEQ_clean_linker_1, # of connection points: 2
#     Edge 31, Type (0, 1), BuildingBlock: KIFKEQ_clean_linker_1, # of connection points: 2
#     Edge 32, Type (0, 1), BuildingBlock: KIFKEQ_clean_linker_1, # of connection points: 2
#     Edge 33, Type (0, 1), BuildingBlock: KIFKEQ_clean_linker_1, # of connection points: 2
#     Edge 34, Type (0, 1), BuildingBlock: KIFKEQ_clean_linker_1, # of connection points: 2
#     Edge 35, Type (0, 1), BuildingBlock: KIFKEQ_clean_linker_1, # of connection points: 2
# Relax obj value: 0.035
# Max RMSD: 0.119
# Mean RMSD: 0.044
data_MOF--net-pry--node1-VOLQOD_clean_sbu_1--node2-MIDCAF_clean_linker_0--edge1-KIFKEQ_clean_linker_1
_symmetry_space_group_name_H-M    P1
_symmetry_Int_Tables_number       1
_symmetry_cell_setting            triclinic
loop_
_symmetry_equiv_pos_as_xyz
'x, y, z'
_cell_length_a     45.905004
_cell_length_b     45.925421
_cell_length_c     46.157762
_cell_angle_alpha  90.054283
_cell_angle_beta   90.078201
_cell_angle_gamma 90.19697
loop_
_atom_site_label
_atom_site_type_symbol
_atom_site_fract_x
_atom_site_fract_y
_atom_site_fract_z
_atom_type_partial_charge
C0 C 0.06971 0.10709 0.22466 0.0
C1 C 0.08884 0.09279 0.24361 0.0
C2 C 0.11788 0.08848 0.23522 0.0
C3 C 0.12766 0.09824 0.20829 0.0
H4 H 0.1856 0.07623 0.14366 0.0
H5 H 0.23115 0.05732 0.12483 0.0
H6 H 0.22926 0.12096 0.05603 0.0
H7 H 0.18326 0.13971 0.0745 0.0
H8 H 0.11682 0.17324 0.06558 0.0
H9 H 0.09702 0.21739 0.04416 0.0
H10 H 0.06803 0.24544 0.12885 0.0
H11 H 0.08625 0.20056 0.14972 0.0
H12 H 0.06451 0.12861 0.18381 0.0
H13 H 0.04724 0.11074 0.23077 0.0
H14 H 0.13297 0.07737 0.24945 0.0
H15 H 0.15021 0.09464 0.20247 0.0
N16 N 0.14335 0.11202 0.14889 0.0
N17 N 0.14029 0.14502 0.11033 0.0
N18 N 0.10618 0.14687 0.14814 0.0
C19 C 0.15386 0.12226 0.12335 0.0
C20 C 0.11648 0.15745 0.12263 0.0
C21 C 0.11945 0.12405 0.16131 0.0
C22 C 0.18075 0.10968 0.11075 0.0
C23 C 0.1947 0.08617 0.12442 0.0
C24 C 0.22096 0.07539 0.11371 0.0
C25 C 0.23397 0.08782 0.0891 0.0
C26 C 0.21969 0.11078 0.07492 0.0
C27 C 0.19336 0.12161 0.08563 0.0
C28 C 0.10311 0.18345 0.10932 0.0
C29 C 0.10594 0.18876 0.0795 0.0
C30 C 0.09475 0.21423 0.06728 0.0
C31 C 0.08103 0.23529 0.08471 0.0
C32 C 0.07789 0.22963 0.11452 0.0
C33 C 0.08853 0.2039 0.1266 0.0
C34 C 0.10872 0.11303 0.18945 0.0
C35 C 0.07964 0.11741 0.19792 0.0
C36 C 0.29501 0.93604 0.61899 0.0
C37 C 0.2821 0.9251 0.5936 0.0
C38 C 0.29695 0.90389 0.57745 0.0
C39 C 0.32381 0.89326 0.58694 0.0
H40 H 0.37905 0.82527 0.57487 0.0
H41 H 0.39639 0.7796 0.55473 0.0
H42 H 0.46488 0.77705 0.61891 0.0
H43 H 0.44788 0.82307 0.63895 0.0
H44 H 0.44845 0.86979 0.68937 0.0
H45 H 0.46831 0.88843 0.73475 0.0
H46 H 0.40419 0.95704 0.73472 0.0
H47 H 0.3846 0.93886 0.68921 0.0
H48 H 0.331 0.93425 0.64829 0.0
H49 H 0.28422 0.95266 0.63168 0.0
H50 H 0.28742 0.89489 0.5579 0.0
H51 H 0.33439 0.87652 0.57424 0.0
N52 N 0.37576 0.86731 0.61111 0.0
N53 N 0.41301 0.86659 0.64591 0.0
N54 N 0.37707 0.90268 0.64765 0.0
C55 C 0.40025 0.85486 0.62197 0.0
C56 C 0.40159 0.89059 0.65882 0.0
C57 C 0.36404 0.89124 0.62378 0.0
C58 C 0.41192 0.82787 0.6087 0.0
C59 C 0.39792 0.81516 0.58467 0.0
C60 C 0.40775 0.78885 0.57317 0.0
C61 C 0.43186 0.7746 0.58536 0.0
C62 C 0.44637 0.78762 0.60889 0.0
C63 C 0.4365 0.81395 0.62047 0.0
C64 C 0.4148 0.9027 0.68561 0.0
C65 C 0.43869 0.88897 0.69888 0.0
C66 C 0.45 0.89956 0.725 0.0
C67 C 0.43775 0.92414 0.73839 0.0
C68 C 0.41433 0.93825 0.72481 0.0
C69 C 0.40297 0.92766 0.69875 0.0
C70 C 0.33647 0.90374 0.61271 0.0
C71 C 0.32192 0.92557 0.62839 0.0
C72 C 0.60397 0.29962 0.9489 0.0
C73 C 0.57906 0.28651 0.93678 0.0
C74 C 0.56436 0.30092 0.91427 0.0
C75 C 0.57475 0.32742 0.9036 0.0
H76 H 0.5666 0.38049 0.83356 0.0
H77 H 0.54892 0.39725 0.78679 0.0
H78 H 0.61024 0.46878 0.78927 0.0
H79 H 0.62845 0.45175 0.83575 0.0
H80 H 0.67828 0.45145 0.88113 0.0
H81 H 0.72475 0.47056 0.89802 0.0
H82 H 0.72747 0.40469 0.96468 0.0
H83 H 0.68069 0.3857 0.94816 0.0
H84 H 0.63397 0.33531 0.94773 0.0
H85 H 0.61598 0.28895 0.96606 0.0
H86 H 0.54482 0.29164 0.90479 0.0
H87 H 0.56302 0.33766 0.88599 0.0
N88 N 0.59998 0.37899 0.87835 0.0
N89 N 0.63581 0.41539 0.87745 0.0
N90 N 0.63648 0.37994 0.91393 0.0
C91 C 0.6116 0.40305 0.86572 0.0
C92 C 0.64837 0.40405 0.90157 0.0
C93 C 0.6122 0.36734 0.90251 0.0
C94 C 0.59915 0.4146 0.8384 0.0
C95 C 0.57622 0.39992 0.8243 0.0
C96 C 0.56594 0.40962 0.7975 0.0
C97 C 0.57828 0.43426 0.78421 0.0
C98 C 0.6006 0.44944 0.7987 0.0
C99 C 0.61093 0.43972 0.82546 0.0
C100 C 0.67573 0.41685 0.91313 0.0
C101 C 0.6886 0.44108 0.89952 0.0
C102 C 0.71536 0.45199 0.90909 0.0
C103 C 0.7299 0.439 0.93252 0.0
C104 C 0.71669 0.41533 0.9467 0.0
C105 C 0.68992 0.40435 0.9371 0.0
C106 C 0.60011 0.3402 0.91519 0.0
C107 C 0.61437 0.32617 0.93825 0.0
C108 C 0.79769 0.59624 0.44793 0.0
C109 C 0.78503 0.57178 0.43454 0.0
C110 C 0.79985 0.55828 0.4116 0.0
C111 C 0.8262 0.56961 0.40153 0.0
H112 H 0.88311 0.56066 0.3352 0.0
H113 H 0.90144 0.54235 0.28923 0.0
H114 H 0.96157 0.61474 0.28445 0.0
H115 H 0.94374 0.63284 0.33064 0.0
H116 H 0.92893 0.68887 0.37077 0.0
H117 H 0.9456 0.73567 0.38882 0.0
H118 H 0.91286 0.71405 0.474 0.0
H119 H 0.89475 0.66775 0.45535 0.0
H120 H 0.83279 0.627 0.44813 0.0
H121 H 0.78669 0.60723 0.46555 0.0
H122 H 0.7909 0.53909 0.40117 0.0
H123 H 0.83666 0.55891 0.38342 0.0
N124 N 0.87677 0.59706 0.37703 0.0
N125 N 0.91066 0.63524 0.37549 0.0
N126 N 0.87614 0.63324 0.41289 0.0
C127 C 0.89975 0.61027 0.36396 0.0
C128 C 0.89909 0.64677 0.40001 0.0
C129 C 0.86481 0.60835 0.40147 0.0
C130 C 0.91183 0.59834 0.33665 0.0
C131 C 0.90036 0.57264 0.32448 0.0
C132 C 0.91076 0.56218 0.29803 0.0
C133 C 0.93287 0.57715 0.28313 0.0
C134 C 0.94475 0.6025 0.29554 0.0
C135 C 0.93437 0.61298 0.32199 0.0
C136 C 0.91046 0.67462 0.41162 0.0
C137 C 0.9254 0.69404 0.39339 0.0
C138 C 0.93515 0.72089 0.40385 0.0
C139 C 0.93072 0.72881 0.43298 0.0
C140 C 0.91622 0.70905 0.45133 0.0
C141 C 0.90598 0.68238 0.44071 0.0
C142 C 0.83837 0.59478 0.41413 0.0
C143 C 0.82407 0.60764 0.43783 0.0
C144 C 0.81523 0.96571 0.93823 0.0
C145 C 0.80319 0.95185 0.96259 0.0
C146 C 0.81973 0.93072 0.97715 0.0
C147 C 0.84716 0.92272 0.96686 0.0
H148 H 0.90326 0.85424 0.97089 0.0
H149 H 0.92078 0.80607 0.98399 0.0
H150 H 0.99074 0.8145 0.92203 0.0
H151 H 0.97297 0.8624 0.90841 0.0
H152 H 0.96526 0.90521 0.85734 0.0
H153 H 0.9778 0.91988 0.80834 0.0
H154 H 0.91114 0.98592 0.81068 0.0
H155 H 0.89852 0.97148 0.85997 0.0
H156 H 0.85085 0.96828 0.9086 0.0
H157 H 0.80297 0.9819 0.92636 0.0
H158 H 0.81127 0.92001 0.99628 0.0
H159 H 0.85895 0.90585 0.97826 0.0
N160 N 0.89966 0.90114 0.94035 0.0
N161 N 0.9339 0.90196 0.90281 0.0
N162 N 0.89686 0.93687 0.90419 0.0
C163 C 0.9236 0.88963 0.92748 0.0
C164 C 0.92077 0.92561 0.89104 0.0
C165 C 0.88625 0.92487 0.92895 0.0
C166 C 0.93644 0.86212 0.93829 0.0
C167 C 0.9226 0.84604 0.96028 0.0
C168 C 0.93273 0.81842 0.96791 0.0
C169 C 0.95696 0.80631 0.95381 0.0
C170 C 0.97165 0.82298 0.93288 0.0
C171 C 0.96152 0.85054 0.92519 0.0
C172 C 0.9306 0.93691 0.86258 0.0
C173 C 0.95339 0.92308 0.84765 0.0
C174 C 0.96053 0.93136 0.81947 0.0
C175 C 0.94519 0.95377 0.80558 0.0
C176 C 0.92338 0.96861 0.8209 0.0
C177 C 0.9161 0.96023 0.84911 0.0
C178 C 0.85871 0.93568 0.94175 0.0
C179 C 0.84269 0.95775 0.92795 0.0
C180 C 0.5987 0.05455 0.31474 0.0
C181 C 0.57038 0.05961 0.30456 0.0
C182 C 0.54966 0.0719 0.3232 0.0
C183 C 0.55756 0.08019 0.35132 0.0
H184 H 0.54383 0.15092 0.40701 0.0
H185 H 0.52711 0.19908 0.42146 0.0
H186 H 0.59299 0.20213 0.48825 0.0
H187 H 0.61001 0.15419 0.4738 0.0
H188 H 0.65748 0.10611 0.47747 0.0
H189 H 0.70558 0.09245 0.49501 0.0
H190 H 0.71509 0.03325 0.42287 0.0
H191 H 0.66687 0.04626 0.40567 0.0
H192 H 0.62867 0.05861 0.34995 0.0
H193 H 0.61496 0.04499 0.30067 0.0
H194 H 0.5277 0.07603 0.31566 0.0
H195 H 0.54143 0.09043 0.36503 0.0
N196 N 0.58151 0.10958 0.40245 0.0
N197 N 0.61617 0.11063 0.4398 0.0
N198 N 0.61996 0.07612 0.40265 0.0
C199 C 0.59171 0.12166 0.42739 0.0
C200 C 0.63032 0.08774 0.42768 0.0
C201 C 0.59549 0.08675 0.39001 0.0
C202 C 0.57859 0.14877 0.43892 0.0
C203 C 0.55453 0.16162 0.42506 0.0
C204 C 0.54481 0.18919 0.43341 0.0
C205 C 0.559 0.20451 0.45573 0.0
C206 C 0.58197 0.19103 0.47063 0.0
C207 C 0.59161 0.16345 0.46239 0.0
C208 C 0.65831 0.07749 0.43998 0.0
C209 C 0.66966 0.08994 0.46549 0.0
C210 C 0.69733 0.08224 0.47549 0.0
C211 C 0.71429 0.06195 0.46022 0.0
C212 C 0.70251 0.04873 0.43533 0.0
C213 C 0.67485 0.05636 0.42537 0.0
C214 C 0.58614 0.07573 0.36136 0.0
C215 C 0.60644 0.06224 0.34296 0.0
C216 C 0.31472 0.55414 0.08934 0.0
C217 C 0.30143 0.56869 0.06609 0.0
C218 C 0.31705 0.59061 0.05159 0.0
C219 C 0.34493 0.59863 0.0609 0.0
H220 H 0.4026 0.66612 0.0547 0.0
H221 H 0.41947 0.71469 0.04182 0.0
H222 H 0.48861 0.70809 0.10501 0.0
H223 H 0.47156 0.65974 0.11836 0.0
H224 H 0.46935 0.61156 0.16481 0.0
H225 H 0.48486 0.59374 0.21196 0.0
H226 H 0.41831 0.52713 0.20879 0.0
H227 H 0.40285 0.54463 0.16141 0.0
H228 H 0.35189 0.55076 0.11701 0.0
H229 H 0.30337 0.53685 0.10065 0.0
H230 H 0.3073 0.60235 0.03371 0.0
H231 H 0.35599 0.61618 0.04972 0.0
N232 N 0.39867 0.61982 0.0859 0.0
N233 N 0.43519 0.61732 0.1213 0.0
N234 N 0.39824 0.58204 0.12001 0.0
C235 C 0.42331 0.63091 0.09801 0.0
C236 C 0.4229 0.59281 0.13237 0.0
C237 C 0.38606 0.59531 0.09667 0.0
C238 C 0.43549 0.65904 0.08782 0.0
C239 C 0.42159 0.67483 0.06569 0.0
C240 C 0.43134 0.70267 0.05817 0.0
C241 C 0.45522 0.71534 0.07258 0.0
C242 C 0.46983 0.69912 0.09387 0.0
C243 C 0.46011 0.6713 0.10139 0.0
C244 C 0.43456 0.57979 0.15938 0.0
C245 C 0.45818 0.59289 0.17391 0.0
C246 C 0.46703 0.58277 0.20102 0.0
C247 C 0.45259 0.55926 0.2142 0.0
C248 C 0.42996 0.54521 0.1991 0.0
C249 C 0.42101 0.55538 0.17199 0.0
C250 C 0.35783 0.58482 0.08488 0.0
C251 C 0.34263 0.56204 0.09859 0.0
C252 C 0.08654 0.30923 0.56035 0.0
C253 C 0.06207 0.29689 0.57396 0.0
C254 C 0.04682 0.31354 0.59449 0.0
C255 C 0.05639 0.34149 0.60195 0.0
H256 H 0.05032 0.40049 0.6682 0.0
H257 H 0.03665 0.41927 0.71556 0.0
H258 H 0.09824 0.48988 0.70574 0.0
H259 H 0.11239 0.47092 0.65862 0.0
H260 H 0.16234 0.46488 0.61403 0.0
H261 H 0.21028 0.47944 0.59681 0.0
H262 H 0.20721 0.41176 0.53187 0.0
H263 H 0.15907 0.39723 0.54877 0.0
H264 H 0.11542 0.34563 0.55724 0.0
H265 H 0.09902 0.29692 0.5447 0.0
H266 H 0.02758 0.30489 0.60501 0.0
H267 H 0.04441 0.35345 0.61824 0.0
N268 N 0.08169 0.39557 0.62219 0.0
N269 N 0.11755 0.43186 0.61919 0.0
N270 N 0.11706 0.39357 0.58567 0.0
C271 C 0.09368 0.42061 0.63252 0.0
C272 C 0.12932 0.41858 0.5957 0.0
C273 C 0.09316 0.38198 0.59868 0.0
C274 C 0.08275 0.43394 0.65967 0.0
C275 C 0.06075 0.42021 0.67593 0.0
C276 C 0.05278 0.43107 0.70307 0.0
C277 C 0.06657 0.45591 0.71454 0.0
C278 C 0.0876 0.47038 0.69773 0.0
C279 C 0.09559 0.45955 0.67062 0.0
C280 C 0.1569 0.42961 0.58303 0.0
C281 C 0.17163 0.45326 0.59584 0.0
C282 C 0.1992 0.46156 0.58609 0.0
C283 C 0.21262 0.44654 0.56322 0.0
C284 C 0.19735 0.42385 0.54945 0.0
C285 C 0.1698 0.41543 0.55928 0.0
C286 C 0.08141 0.35347 0.58897 0.0
C287 C 0.09605 0.33719 0.5677 0.0
O288 O 0.9954 0.07318 0.54365 0.0
Zn289 Zn 0.97918 0.03246 0.5414 0.0
O290 O 0.00382 0.00759 0.51726 0.0
Zn291 Zn 0.98259 0.99605 0.48229 0.0
Zn292 Zn 0.03904 0.02877 0.50614 0.0
Zn293 Zn 0.01456 0.97297 0.53923 0.0
O294 O 0.98114 0.95231 0.47857 0.0
O295 O -0.00073 0.93643 0.52031 0.0
O296 O 0.93852 0.03463 0.52525 0.0
O297 O 0.94101 0.00974 0.48407 0.0
O298 O 0.00121 0.01244 0.44611 0.0
O299 O 0.04256 0.0313 0.46286 0.0
O300 O 0.07528 0.00934 0.52129 0.0
O301 O 0.97611 0.01707 0.58221 0.0
O302 O 0.05807 0.96954 0.54257 0.0
O303 O -0.00054 0.97492 0.57996 0.0
C304 C 0.01901 0.08478 0.5348 0.0
C305 C 0.98747 0.93159 0.49578 0.0
C306 C 0.02563 0.02498 0.4419 0.0
C307 C 0.92658 0.0246 0.50239 0.0
C308 C 0.07936 0.98564 0.53499 0.0
C309 C 0.98505 0.99377 0.59416 0.0
O310 O 0.03781 0.0701 0.52077 0.0
O311 O 0.50436 0.06924 0.9867 0.0
Zn312 Zn 0.48782 0.02868 0.9907 0.0
O313 O 0.51239 0.00498 0.01626 0.0
Zn314 Zn 0.52852 0.97231 0.99451 0.0
Zn315 Zn 0.54449 0.02855 0.03154 0.0
Zn316 Zn 0.48894 0.9901 0.04838 0.0
O317 O 0.51619 0.934 0.01163 0.0
O318 O 0.48779 0.94622 0.04853 0.0
O319 O 0.48493 0.01083 0.95068 0.0
O320 O 0.51432 0.97265 0.95342 0.0
O321 O 0.57234 0.97341 0.99377 0.0
O322 O 0.58346 0.01263 0.01961 0.0
O323 O 0.54392 0.02958 0.0751 0.0
O324 O 0.44702 0.0326 0.00675 0.0
O325 O 0.5049 0.00343 0.08684 0.0
O326 O 0.44788 0.00473 0.04599 0.0
C327 C 0.52567 0.08249 0.99863 0.0
C328 C 0.49984 0.92694 0.03277 0.0
C329 C 0.59115 0.99066 0.00468 0.0
C330 C 0.497 0.98876 0.93909 0.0
C331 C 0.52689 0.01878 0.09403 0.0
C332 C 0.43438 0.02159 0.02874 0.0
O333 O 0.54232 0.06963 0.01659 0.0
O334 O 0.53087 0.50433 0.56628 0.0
Zn335 Zn 0.52729 0.52049 0.52592 0.0
O336 O 0.50243 0.4956 0.50176 0.0
Zn337 Zn 0.52531 0.47947 0.46985 0.0
Zn338 Zn 0.48666 0.46379 0.52518 0.0
Zn339 Zn 0.47034 0.51866 0.48613 0.0
O340 O 0.50902 0.49163 0.43109 0.0
O341 O 0.47184 0.52013 0.44266 0.0
O342 O 0.56775 0.52373 0.50934 0.0
O343 O 0.56676 0.49387 0.4715 0.0
O344 O 0.52596 0.43565 0.47126 0.0
O345 O 0.49812 0.42474 0.50902 0.0
O346 O 0.44294 0.46517 0.52659 0.0
O347 O 0.51082 0.56095 0.52945 0.0
O348 O 0.43141 0.50204 0.49778 0.0
O349 O 0.47175 0.55981 0.50112 0.0
C350 C 0.51928 0.48274 0.57921 0.0
C351 C 0.48804 0.50814 0.42374 0.0
C352 C 0.51399 0.41694 0.4878 0.0
C353 C 0.58036 0.51157 0.48797 0.0
C354 C 0.42396 0.48115 0.51434 0.0
C355 C 0.48878 0.57342 0.51826 0.0
O356 O 0.50172 0.46569 0.56612 0.0
O357 O 0.98352 0.50464 0.06643 0.0
Zn358 Zn 0.98734 0.48953 0.02553 0.0
O359 O 0.01232 0.51516 0.00231 0.0
Zn360 Zn 0.98966 0.5313 0.97023 0.0
Zn361 Zn 0.0272 0.54692 0.02643 0.0
Zn362 Zn 0.04521 0.493 0.98705 0.0
O363 O 0.00639 0.51924 0.93175 0.0
O364 O 0.04431 0.49175 0.94345 0.0
O365 O 0.94696 0.48665 0.00863 0.0
O366 O 0.94821 0.51685 0.97115 0.0
O367 O 0.98889 0.57513 0.97175 0.0
O368 O 0.01506 0.58593 0.01079 0.0
O369 O 0.071 0.54664 0.0285 0.0
O370 O 0.00381 0.44894 0.02766 0.0
O371 O 0.0836 0.51041 -0.00067 0.0
O372 O 0.04462 0.45185 0.00198 0.0
C373 C 0.99459 0.52634 0.07974 0.0
C374 C 0.02785 0.50334 0.92447 0.0
C375 C -9e-05 0.59379 0.98906 0.0
C376 C 0.9345 0.49899 0.98728 0.0
C377 C 0.09045 0.53125 0.01625 0.0
C378 C 0.02685 0.43739 0.01755 0.0
O379 O 0.01176 0.54397 0.06699 0.0
H380 H 0.11286 0.10516 0.29596 0.0
H381 H 0.04224 0.05791 0.25574 0.0
H382 H 0.09687 0.0886 0.34344 0.0
H383 H 0.0269 0.03981 0.3031 0.0
H384 H 0.9905 0.03518 0.39514 0.0
H385 H 0.0051 0.05187 0.34717 0.0
H386 H 0.09553 0.04822 0.37345 0.0
H387 H 0.08069 0.03321 0.42168 0.0
C388 C 0.09405 0.09092 0.29738 0.0
C389 C 0.07878 0.08273 0.27233 0.0
C390 C 0.08495 0.08121 0.32456 0.0
C391 C 0.06069 0.06256 0.32727 0.0
C392 C 0.04539 0.05445 0.30202 0.0
C393 C 0.05421 0.06466 0.27485 0.0
C394 C 0.01348 0.03789 0.39054 0.0
C395 C 0.03444 0.0331 0.41219 0.0
C396 C 0.02192 0.04733 0.36298 0.0
C397 C 0.05155 0.05167 0.35632 0.0
C398 C 0.07248 0.04594 0.37787 0.0
C399 C 0.06401 0.03708 0.40552 0.0
H400 H 0.44711 0.98035 0.75617 0.0
H401 H 0.4525 0.89117 0.78532 0.0
H402 H 0.46291 0.99713 0.80391 0.0
H403 H 0.46815 0.90787 0.83294 0.0
H404 H 0.5212 0.94537 0.90662 0.0
H405 H 0.50875 0.93094 0.85745 0.0
H406 H 0.44463 -0.00054 0.85345 0.0
H407 H 0.45751 0.0144 0.90256 0.0
C408 C 0.4516 0.96435 0.77279 0.0
C409 C 0.44859 0.93443 0.76695 0.0
C410 C 0.46061 0.97395 0.80013 0.0
C411 C 0.46679 0.95385 0.82223 0.0
C412 C 0.46405 0.92393 0.81627 0.0
C413 C 0.45509 0.91434 0.78896 0.0
C414 C 0.50453 0.9575 0.89527 0.0
C415 C 0.49025 0.98097 0.90865 0.0
C416 C 0.4973 0.9491 0.86709 0.0
C417 C 0.47556 0.9639 0.85159 0.0
C418 C 0.46168 0.98778 0.8647 0.0
C419 C 0.46897 0.99624 0.89291 0.0
H420 H 0.52268 0.4361 0.76254 0.0
H421 H 0.61237 0.45269 0.73931 0.0
H422 H 0.50748 0.44907 0.71352 0.0
H423 H 0.59717 0.46576 0.69049 0.0
H424 H 0.55707 0.51325 0.6138 0.0
H425 H 0.57019 0.50318 0.66395 0.0
H426 H 0.51187 0.42917 0.66426 0.0
H427 H 0.49834 0.43942 0.61426 0.0
C428 C 0.53914 0.44245 0.74697 0.0
C429 C 0.56873 0.44337 0.75484 0.0
C430 C 0.53044 0.44988 0.71891 0.0
C431 C 0.55112 0.45843 0.69814 0.0
C432 C 0.58065 0.45971 0.70612 0.0
C433 C 0.58935 0.45224 0.73413 0.0
C434 C 0.54693 0.49489 0.62456 0.0
C435 C 0.5267 0.47709 0.60994 0.0
C436 C 0.55457 0.48905 0.65327 0.0
C437 C 0.54212 0.46534 0.66804 0.0
C438 C 0.52159 0.4478 0.65358 0.0
C439 C 0.51399 0.45358 0.62485 0.0
H440 H 0.89953 0.55652 0.23844 0.0
H441 H 0.98872 0.57495 0.26246 0.0
H442 H 0.91548 0.54221 0.19019 0.0
H443 H 0.00468 0.56067 0.2141 0.0
H444 H 0.01473 0.56972 0.11517 0.0
H445 H 0.00057 0.57989 0.1649 0.0
H446 H 0.94323 0.50512 0.16395 0.0
H447 H 0.95699 0.49511 0.11391 0.0
C448 C 0.9226 0.55709 0.23357 0.0
C449 C 0.94285 0.56695 0.25427 0.0
C450 C 0.93174 0.54889 0.2059 0.0
C451 C 0.96134 0.55038 0.1983 0.0
C452 C 0.98167 0.5597 0.21917 0.0
C453 C 0.97253 0.56789 0.24685 0.0
C454 C -0.00081 0.55533 0.12554 0.0
C455 C 0.98691 0.53165 0.11046 0.0
C456 C 0.99122 0.56107 0.15415 0.0
C457 C 0.97077 0.54332 0.16837 0.0
C458 C 0.95879 0.51939 0.15346 0.0
C459 C 0.9668 0.51359 0.12483 0.0
H460 H 0.25202 0.07822 0.03323 0.0
H461 H 0.28133 0.07433 0.12211 0.0
H462 H 0.29967 0.06102 0.01704 0.0
H463 H 0.32871 0.05729 0.10604 0.0
H464 H 0.39971 -0.00038 0.07155 0.0
H465 H 0.35072 0.01455 0.08458 0.0
H466 H 0.35076 0.07677 0.01445 0.0
H467 H 0.39975 0.06141 0.00093 0.0
C468 C 0.26867 0.07385 0.04928 0.0
C469 C 0.26283 0.07743 0.07896 0.0
C470 C 0.29594 0.06401 0.04002 0.0
C471 C 0.31791 0.05758 0.06026 0.0
C472 C 0.31208 0.06143 0.0899 0.0
C473 C 0.2849 0.07121 0.09913 0.0
C474 C 0.38928 0.01636 0.05874 0.0
C475 C 0.4038 0.02945 0.03529 0.0
C476 C 0.36121 0.02504 0.06634 0.0
C477 C 0.34695 0.04708 0.05076 0.0
C478 C 0.36107 0.05959 0.02677 0.0
C479 C 0.38921 0.05087 0.01911 0.0
H480 H 0.26365 0.94007 0.53921 0.0
H481 H 0.23423 0.93213 0.6277 0.0
H482 H 0.21466 0.95476 0.52441 0.0
H483 H 0.18553 0.9473 0.61304 0.0
H484 H 0.0959 0.9406 0.56991 0.0
H485 H 0.14513 0.92648 0.58349 0.0
H486 H 0.18012 0.99646 0.53155 0.0
H487 H 0.13079 0.01062 0.5177 0.0
C488 C 0.24673 0.94151 0.55547 0.0
C489 C 0.25274 0.93497 0.5846 0.0
C490 C 0.21879 0.95013 0.54705 0.0
C491 C 0.19629 0.95209 0.56757 0.0
C492 C 0.20237 0.94569 0.59671 0.0
C493 C 0.23031 0.93731 0.60514 0.0
C494 C 0.11404 0.95298 0.56129 0.0
C495 C 0.10937 0.9768 0.54275 0.0
C496 C 0.14224 0.94497 0.56922 0.0
C497 C 0.16643 0.96045 0.55867 0.0
C498 C 0.16186 0.98402 0.53984 0.0
C499 C 0.13361 0.9922 0.53205 0.0
H500 H 0.77534 0.45392 0.89746 0.0
H501 H 0.75088 0.44731 0.98755 0.0
H502 H 0.82396 0.46971 0.91162 0.0
H503 H 0.79963 0.46334 0.0018 0.0
H504 H 0.89931 0.45899 0.01406 0.0
H505 H 0.84945 0.44574 0.00149 0.0
H506 H 0.84978 0.51015 0.93332 0.0
H507 H 0.89984 0.52296 0.94539 0.0
C508 C 0.78024 0.45624 0.92031 0.0
C509 C 0.75923 0.44943 0.94139 0.0
C510 C 0.80812 0.46532 0.92843 0.0
C511 C 0.81569 0.46786 0.95785 0.0
C512 C 0.79462 0.46124 0.97896 0.0
C513 C 0.7667 0.45208 0.97081 0.0
C514 C 0.88873 0.47043 0.99646 0.0
C515 C 0.90368 0.49193 0.98063 0.0
C516 C 0.86006 0.46293 0.98937 0.0
C517 C 0.84565 0.47681 0.96633 0.0
C518 C 0.86041 0.49871 0.95088 0.0
C519 C 0.88908 0.50615 0.95792 0.0
H520 H 0.76369 0.56484 0.48959 0.0
H521 H 0.74011 0.55529 0.39945 0.0
H522 H 0.71497 0.54867 0.50372 0.0
H523 H 0.69154 0.53944 0.41345 0.0
H524 H 0.61568 0.48683 0.44718 0.0
H525 H 0.66584 0.49957 0.43567 0.0
H526 H 0.66499 0.56551 0.50251 0.0
H527 H 0.61503 0.55228 0.51457 0.0
C528 C 0.74807 0.55937 0.47282 0.0
C529 C 0.75578 0.56121 0.44342 0.0
C530 C 0.72017 0.55015 0.48089 0.0
C531 C 0.69936 0.54268 0.45972 0.0
C532 C 0.70718 0.54446 0.43034 0.0
C533 C 0.73504 0.55357 0.4223 0.0
C534 C 0.6262 0.50396 0.45954 0.0
C535 C 0.61124 0.51862 0.48171 0.0
C536 C 0.65494 0.51136 0.45283 0.0
C537 C 0.66939 0.53369 0.46804 0.0
C538 C 0.65463 0.54798 0.49059 0.0
C539 C 0.62589 0.5405 0.49738 0.0
H540 H 0.03357 0.26821 0.10036 0.0
H541 H 0.10603 0.26681 0.0406 0.0
H542 H 0.02039 0.31625 0.08323 0.0
H543 H 0.09111 0.31352 0.02149 0.0
H544 H 0.08019 0.41166 0.0185 0.0
H545 H 0.09205 0.36239 0.0333 0.0
H546 H 0.00046 0.34423 0.04651 0.0
H547 H 0.98894 0.39424 0.03332 0.0
C548 C 0.04661 0.27797 0.08341 0.0
C549 C 0.07113 0.26354 0.07219 0.0
C550 C 0.03869 0.30544 0.07316 0.0
C551 C 0.05471 0.31906 0.05097 0.0
C552 C 0.07855 0.30413 0.039 0.0
C553 C 0.08682 0.27692 0.04964 0.0
C554 C 0.0626 0.39708 0.02445 0.0
C555 C 0.03366 0.40684 0.02486 0.0
C556 C 0.06935 0.36866 0.03277 0.0
C557 C 0.04726 0.34907 0.04114 0.0
C558 C 0.01818 0.35875 0.04082 0.0
C559 C 0.0115 0.38738 0.03306 0.0
H560 H 0.55969 0.24103 0.90367 0.0
H561 H 0.57616 0.26603 0.99248 0.0
H562 H 0.54513 0.19265 0.91968 0.0
H563 H 0.56162 0.21747 0.00851 0.0
H564 H 0.56896 0.11781 0.01965 0.0
H565 H 0.58018 0.16765 0.00551 0.0
H566 H 0.50705 0.16701 0.94652 0.0
H567 H 0.49603 0.11694 0.96025 0.0
C568 C 0.5598 0.23634 0.92666 0.0
C569 C 0.56908 0.25741 0.9468 0.0
C570 C 0.55145 0.20859 0.93583 0.0
C571 C 0.55222 0.20121 0.96536 0.0
C572 C 0.56117 0.22236 0.98557 0.0
C573 C 0.5695 0.25017 0.97639 0.0
C574 C 0.55516 0.12829 0.00375 0.0
C575 C 0.53167 0.11327 0.99099 0.0
C576 C 0.56151 0.15695 0.99578 0.0
C577 C 0.54454 0.17127 0.97486 0.0
C578 C 0.52076 0.15644 0.96244 0.0
C579 C 0.51438 0.12778 0.97043 0.0
H580 H 0.97968 0.75968 0.41733 0.0
H581 H 0.90423 0.76403 0.47328 0.0
H582 H 0.99395 0.80849 0.4327 0.0
H583 H 0.91966 0.81217 0.48966 0.0
H584 H 0.97894 0.88472 0.53119 0.0
H585 H 0.96607 0.83492 0.51696 0.0
H586 H 0.96799 0.86023 0.42698 0.0
H587 H 0.98026 0.91015 0.44107 0.0
C588 C 0.96608 0.77092 0.43284 0.0
C589 C 0.94061 0.75781 0.44383 0.0
C590 C 0.97443 0.7988 0.44175 0.0
C591 C 0.95786 0.81397 0.46229 0.0
C592 C 0.93292 0.80073 0.47395 0.0
C593 C 0.92423 0.77306 0.46465 0.0
C594 C 0.97671 0.87963 0.50837 0.0
C595 C 0.98057 0.90132 0.48723 0.0
C596 C 0.96923 0.85122 0.50029 0.0
C597 C 0.96612 0.84388 0.47092 0.0
C598 C 0.97046 0.86539 0.44976 0.0
C599 C 0.97733 0.89392 0.45784 0.0
H600 H 0.48743 0.75531 0.57548 0.0
H601 H 0.39724 0.72865 0.5702 0.0
H602 H 0.50238 0.70754 0.55766 0.0
H603 H 0.41211 0.681 0.55265 0.0
H604 H 0.44576 0.60812 0.49635 0.0
H605 H 0.43326 0.65744 0.51099 0.0
H606 H 0.50371 0.65705 0.57316 0.0
H607 H 0.5167 0.60795 0.55806 0.0
C608 C 0.47082 0.7392 0.57064 0.0
C609 C 0.44115 0.74579 0.57413 0.0
C610 C 0.47938 0.71184 0.56045 0.0
C611 C 0.45844 0.69047 0.55362 0.0
C612 C 0.42878 0.69713 0.55714 0.0
C613 C 0.42025 0.72445 0.56723 0.0
C614 C 0.45872 0.61858 0.51303 0.0
C615 C 0.48216 0.60398 0.52612 0.0
C616 C 0.45144 0.64682 0.52153 0.0
C617 C 0.46734 0.66112 0.5434 0.0
C618 C 0.49118 0.64679 0.55605 0.0
C619 C 0.49854 0.61855 0.54748 0.0
H620 H 0.95141 0.91514 0.76138 0.0
H621 H 0.95136 0.00729 0.78 0.0
H622 H 0.96049 0.92535 0.71051 0.0
H623 H 0.96107 0.01766 0.72894 0.0
H624 H 0.94923 0.02478 0.63022 0.0
H625 H 0.93928 0.01563 0.68133 0.0
H626 H 0.99836 0.94257 0.67965 0.0
H627 H 0.00757 0.9511 0.62857 0.0
C628 C 0.95373 0.9376 0.75461 0.0
C629 C 0.95093 0.96041 0.77469 0.0
C630 C 0.95896 0.94348 0.72544 0.0
C631 C 0.96174 0.97232 0.71563 0.0
C632 C 0.95873 0.9952 0.73571 0.0
C633 C 0.95327 0.9893 0.76494 0.0
C634 C 0.96005 0.00674 0.64078 0.0
C635 C 0.97906 0.98857 0.62524 0.0
C636 C 0.95449 0.00161 0.67012 0.0
C637 C 0.96794 0.9783 0.68459 0.0
C638 C 0.98719 0.96038 0.66908 0.0
C639 C 0.99258 0.96537 0.63977 0.0
H640 H 0.52816 0.02344 0.28342 0.0
H641 H 0.59635 0.08252 0.25723 0.0
H642 H 0.5177 0.01238 0.23263 0.0
H643 H 0.58498 0.07319 0.20655 0.0
H644 H 0.57928 0.0305 0.1192 0.0
H645 H 0.58946 0.0391 0.17016 0.0
H646 H 0.49772 0.02948 0.1896 0.0
H647 H 0.48801 0.01907 0.13873 0.0
C648 C 0.54063 0.03427 0.26665 0.0
C649 C 0.56315 0.0536 0.274 0.0
C650 C 0.53457 0.02815 0.23756 0.0
C651 C 0.55057 0.04176 0.21527 0.0
C652 C 0.57269 0.06165 0.22293 0.0
C653 C 0.5791 0.06723 0.25196 0.0
C654 C 0.56133 0.03019 0.13442 0.0
C655 C 0.53286 0.02417 0.12501 0.0
C656 C 0.56709 0.03533 0.16368 0.0
C657 C 0.54441 0.03528 0.18419 0.0
C658 C 0.51587 0.02925 0.17465 0.0
C659 C 0.51022 0.02347 0.14543 0.0
H660 H 0.45891 0.50428 0.2365 0.0
H661 H 0.46179 0.59527 0.2602 0.0
H662 H 0.46762 0.49088 0.28712 0.0
H663 H 0.47101 0.58193 0.31043 0.0
H664 H 0.44977 0.54707 0.40043 0.0
H665 H 0.44211 0.55838 0.3495 0.0
H666 H 0.50667 0.49463 0.32553 0.0
H667 H 0.51435 0.48304 0.37664 0.0
C668 C 0.46154 0.52137 0.25249 0.0
C669 C 0.4597 0.55082 0.2444 0.0
C670 C 0.46672 0.51372 0.28137 0.0
C671 C 0.46982 0.53537 0.30271 0.0
C672 C 0.46838 0.56477 0.2945 0.0
C673 C 0.46343 0.57241 0.26568 0.0
C674 C 0.4623 0.53534 0.38437 0.0
C675 C 0.48277 0.51421 0.39266 0.0
C676 C 0.45801 0.54197 0.35518 0.0
C677 C 0.47394 0.52752 0.33358 0.0
C678 C 0.49399 0.50599 0.34174 0.0
C679 C 0.49847 0.49948 0.37101 0.0
H680 H 0.01363 0.45933 0.74179 0.0
H681 H 0.10568 0.47393 0.75543 0.0
H682 H 0.00428 0.47183 0.79238 0.0
H683 H 0.09622 0.48737 0.80556 0.0
H684 H 0.07227 0.47187 0.90064 0.0
H685 H 0.08115 0.46207 0.8496 0.0
H686 H 0.00563 0.51296 0.8266 0.0
H687 H 0.99638 0.52247 0.87775 0.0
C688 C 0.03182 0.46538 0.75553 0.0
C689 C 0.06039 0.46558 0.74461 0.0
C690 C 0.02644 0.47281 0.78441 0.0
C691 C 0.04953 0.48047 0.80299 0.0
C692 C 0.07801 0.48122 0.79189 0.0
C693 C 0.08337 0.47387 0.76305 0.0
C694 C 0.05755 0.48104 0.88475 0.0
C695 C 0.03359 0.49794 0.89335 0.0
C696 C 0.06276 0.47556 0.85546 0.0
C697 C 0.04412 0.4868 0.83406 0.0
C698 C 0.02021 0.50376 0.8426 0.0
C699 C 0.01502 0.50932 0.87192 0.0
H700 H 0.77591 0.00483 0.96548 0.0
H701 H 0.76157 0.9129 0.97966 0.0
H702 H 0.72481 0.01428 0.97652 0.0
H703 H 0.71091 0.92248 0.99174 0.0
H704 H 0.61579 0.94606 0.97411 0.0
H705 H 0.6673 0.93721 0.96562 0.0
H706 H 0.6893 0.01345 0.01611 0.0
H707 H 0.63768 0.02269 0.02423 0.0
C708 C 0.76191 0.98668 0.97115 0.0
C709 C 0.7728 0.95811 0.97161 0.0
C710 C 0.73272 0.99213 0.97774 0.0
C711 C 0.71378 0.9691 0.98486 0.0
C712 C 0.72484 0.94064 0.98596 0.0
C713 C 0.75399 0.9352 0.97941 0.0
C714 C 0.63156 0.96096 0.98345 0.0
C715 C 0.62255 0.98511 -0.00016 0.0
C716 C 0.66112 0.95576 0.97873 0.0
C717 C 0.6824 0.97457 0.99028 0.0
C718 C 0.67343 0.99872 0.00669 0.0
C719 C 0.64383 0.00392 0.01144 0.0
H720 H 0.74223 0.0093 0.46076 0.0
H721 H 0.75534 0.10061 0.47962 0.0
H722 H 0.79329 -0.00011 0.47203 0.0
H723 H 0.80622 0.09112 0.49113 0.0
H724 H 0.88932 0.05773 0.53481 0.0
H725 H 0.83751 0.06584 0.52659 0.0
H726 H 0.84095 0.01175 0.45008 0.0
H727 H 0.89264 0.00329 0.45839 0.0
C728 C 0.75598 0.02735 0.46732 0.0
C729 C 0.74471 0.05571 0.46921 0.0
C730 C 0.78521 0.02196 0.47376 0.0
C731 C 0.80378 0.04479 0.48233 0.0
C732 C 0.79237 0.07301 0.48492 0.0
C733 C 0.76317 0.07842 0.47839 0.0
C734 C 0.87906 0.04754 0.51624 0.0
C735 C 0.89518 0.02988 0.49724 0.0
C736 C 0.84939 0.05229 0.51149 0.0
C737 C 0.83516 0.03938 0.48773 0.0
C738 C 0.85123 0.02167 0.4688 0.0
C739 C 0.88091 0.01702 0.47346 0.0
H740 H 0.27829 0.56224 0.01168 0.0
H741 H 0.25532 0.56077 0.10239 0.0
H742 H 0.22726 0.55367 -0.00123 0.0
H743 H 0.2046 0.55159 0.08954 0.0
H744 H 0.11326 0.57007 0.05518 0.0
H745 H 0.16441 0.57885 0.06636 0.0
H746 H 0.18941 0.5147 0.0027 0.0
H747 H 0.13821 0.50599 0.99122 0.0
C748 C 0.26236 0.56001 0.02883 0.0
C749 C 0.2708 0.56214 0.05804 0.0
C750 C 0.23322 0.55489 0.02145 0.0
C751 C 0.21194 0.55208 0.04315 0.0
C752 C 0.22046 0.55399 0.07234 0.0
C753 C 0.24955 0.55891 0.0797 0.0
C754 C 0.12961 0.55789 0.04345 0.0
C755 C 0.12159 0.53725 0.02236 0.0
C756 C 0.15892 0.56281 0.05 0.0
C757 C 0.18089 0.54735 0.03551 0.0
C758 C 0.17295 0.52709 0.01407 0.0
C759 C 0.14361 0.52202 0.00762 0.0
H760 H 0.23575 0.45186 0.50873 0.0
H761 H 0.25853 0.45573 0.5995 0.0
H762 H 0.28686 0.4601 0.49589 0.0
H763 H 0.30928 0.46448 0.5867 0.0
H764 H 0.4002 0.44315 0.55329 0.0
H765 H 0.34887 0.43541 0.56407 0.0
H766 H 0.32537 0.49923 0.49958 0.0
H767 H 0.37684 0.50697 0.48852 0.0
C768 C 0.25165 0.45459 0.52589 0.0
C769 C 0.24316 0.4532 0.55511 0.0
C770 C 0.28081 0.4595 0.51855 0.0
C771 C 0.30203 0.46278 0.54031 0.0
C772 C 0.29345 0.4617 0.56948 0.0
C773 C 0.26434 0.45703 0.57679 0.0
C774 C 0.38415 0.45549 0.54128 0.0
C775 C 0.39268 0.47577 0.52011 0.0
C776 C 0.35474 0.45116 0.54761 0.0
C777 C 0.33315 0.46686 0.53279 0.0
C778 C 0.34156 0.48671 0.51121 0.0
C779 C 0.37104 0.49123 0.50501 0.0
H780 H 0.95991 0.77806 0.00609 0.0
H781 H 0.97332 0.76524 0.91432 0.0
H782 H 0.97092 0.7268 0.01467 0.0
H783 H 0.9854 0.71445 0.92302 0.0
H784 H 0.96862 0.61886 0.94525 0.0
H785 H 0.95958 0.67042 0.93728 0.0
H786 H 0.01089 0.69161 0.01299 0.0
H787 H 0.01956 0.63996 0.02135 0.0
C788 C 0.96538 0.76436 0.98779 0.0
C789 C 0.9657 0.77573 0.95953 0.0
C790 C 0.97196 0.73507 0.99273 0.0
C791 C 0.97892 0.71653 0.9695 0.0
C792 C 0.97976 0.72806 0.94134 0.0
C793 C 0.97321 0.75729 0.93641 0.0
C794 C 0.97803 0.63447 0.96021 0.0
C795 C 0.99481 0.62522 0.98395 0.0
C796 C 0.97298 0.66406 0.95553 0.0
C797 C 0.98458 0.68512 0.97446 0.0
C798 C 0.00139 0.67591 0.99819 0.0
C799 C 0.00648 0.64629 0.00287 0.0
H800 H 0.47027 0.75746 0.11166 0.0
H801 H 0.45934 0.74243 0.01986 0.0
H802 H 0.4826 0.80818 0.10213 0.0
H803 H 0.47073 0.79352 0.01039 0.0
H804 H 0.52054 0.87977 0.00298 0.0
H805 H 0.51127 0.82843 0.01269 0.0
H806 H 0.4574 0.85197 0.08565 0.0
H807 H 0.46698 0.9033 0.07631 0.0
C808 C 0.47074 0.76493 0.08941 0.0
C809 C 0.46388 0.7459 0.0665 0.0
C810 C 0.47745 0.79408 0.08399 0.0
C811 C 0.47749 0.8049 0.05553 0.0
C812 C 0.4711 0.78578 0.03255 0.0
C813 C 0.46431 0.75661 0.03798 0.0
C814 C 0.50678 0.87404 0.02115 0.0
C815 C 0.49451 0.89571 0.03887 0.0
C816 C 0.50135 0.8446 0.0266 0.0
C817 C 0.48361 0.83614 0.04992 0.0
C818 C 0.47148 0.85777 0.06773 0.0
C819 C 0.47684 0.88721 0.06226 0.0
H820 H 0.06139 0.26896 0.52142 0.0
H821 H 0.04336 0.25548 0.61232 0.0
H822 H 0.05022 0.21789 0.51179 0.0
H823 H 0.0318 0.20458 0.60255 0.0
H824 H 0.98669 0.122 0.56808 0.0
H825 H 0.99548 0.17366 0.57689 0.0
H826 H 0.07251 0.17006 0.52341 0.0
H827 H 0.06369 0.11851 0.51433 0.0
C828 C 0.05507 0.25513 0.53935 0.0
C829 C 0.05336 0.26633 0.56766 0.0
C830 C 0.04866 0.22589 0.53381 0.0
C831 C 0.04025 0.20723 0.55643 0.0
C832 C 0.0379 0.21853 0.58462 0.0
C833 C 0.04445 0.24772 0.59019 0.0
C834 C 0.0055 0.13219 0.55818 0.0
C835 C 0.02449 0.11607 0.54051 0.0
C836 C 0.01058 0.16177 0.56333 0.0
C837 C 0.03464 0.17591 0.55078 0.0
C838 C 0.05358 0.15984 0.53308 0.0
C839 C 0.04862 0.13023 0.52806 0.0
H840 H 0.59633 0.24997 0.46367 0.0
H841 H 0.50466 0.22856 0.46118 0.0
H842 H 0.58446 0.30102 0.4716 0.0
H843 H 0.49273 0.27998 0.46865 0.0
H844 H 0.48765 0.37048 0.51436 0.0
H845 H 0.49771 0.31881 0.50709 0.0
H846 H 0.56199 0.34068 0.44238 0.0
H847 H 0.55216 0.39226 0.44965 0.0
C848 C 0.57363 0.25615 0.46511 0.0
C849 C 0.55141 0.23525 0.46193 0.0
C850 C 0.56684 0.28543 0.46931 0.0
C851 C 0.53768 0.29448 0.47056 0.0
C852 C 0.5154 0.27356 0.4679 0.0
C853 C 0.52221 0.24422 0.46345 0.0
C854 C 0.50388 0.36428 0.49852 0.0
C855 C 0.51919 0.38554 0.48268 0.0
C856 C 0.5095 0.33468 0.49427 0.0
C857 C 0.53073 0.32576 0.47429 0.0
C858 C 0.54577 0.34696 0.45821 0.0
C859 C 0.54 0.37651 0.46227 0.0
loop_
_geom_bond_atom_site_label_1
_geom_bond_atom_site_label_2
_geom_bond_distance
_geom_bond_site_symmetry_2
_ccdc_geom_bond_type
C0 C1 1.384 . S
C0 H13 0.947 . S
C0 C35 1.382 . S
C1 C0 1.384 . S
C1 C2 1.378 . S
C2 C1 1.378 . S
C2 C3 1.378 . S
C2 H14 0.952 . S
C3 C2 1.378 . S
C3 H15 0.950 . S
C3 C34 1.383 . S
H4 C23 0.947 . S
H5 C24 0.946 . S
H6 C26 0.953 . S
H7 C27 0.945 . S
H8 C29 0.952 . S
H9 C30 0.949 . S
H10 C32 0.950 . S
H11 C33 0.948 . S
H12 C35 0.951 . S
H13 C0 0.947 . S
H14 C2 0.952 . S
H15 C3 0.950 . S
N16 C19 1.382 . S
N16 C21 1.363 . S
N17 C19 1.371 . S
N17 C20 1.372 . S
N18 C20 1.361 . S
N18 C21 1.377 . S
C19 N16 1.382 . S
C19 N17 1.371 . S
C19 C22 1.480 . S
C20 N17 1.372 . S
C20 N18 1.361 . S
C20 C28 1.457 . S
C21 N16 1.363 . S
C21 N18 1.377 . S
C21 C34 1.479 . S
C22 C19 1.480 . S
C22 C23 1.383 . S
C22 C27 1.385 . S
C23 H4 0.947 . S
C23 C22 1.383 . S
C23 C24 1.388 . S
C24 H5 0.946 . S
C24 C23 1.388 . S
C24 C25 1.384 . S
C25 C24 1.384 . S
C25 C26 1.377 . S
C26 H6 0.953 . S
C26 C25 1.377 . S
C26 C27 1.369 . S
C27 H7 0.945 . S
C27 C22 1.385 . S
C27 C26 1.369 . S
C28 C20 1.457 . S
C28 C29 1.372 . S
C28 C33 1.364 . S
C29 H8 0.952 . S
C29 C28 1.372 . S
C29 C30 1.389 . S
C30 H9 0.949 . S
C30 C29 1.389 . S
C30 C31 1.387 . S
C31 C30 1.387 . S
C31 C32 1.372 . S
C32 H10 0.950 . S
C32 C31 1.372 . S
C32 C33 1.379 . S
C33 H11 0.948 . S
C33 C28 1.364 . S
C33 C32 1.379 . S
C34 C3 1.383 . S
C34 C21 1.479 . S
C34 C35 1.398 . S
C35 C0 1.382 . S
C35 H12 0.951 . S
C35 C34 1.398 . S
C36 C37 1.384 . S
C36 H49 0.947 . S
C36 C71 1.382 . S
C37 C36 1.384 . S
C37 C38 1.378 . S
C38 C37 1.378 . S
C38 C39 1.378 . S
C38 H50 0.952 . S
C39 C38 1.378 . S
C39 H51 0.950 . S
C39 C70 1.383 . S
H40 C59 0.947 . S
H41 C60 0.946 . S
H42 C62 0.953 . S
H43 C63 0.945 . S
H44 C65 0.952 . S
H45 C66 0.949 . S
H46 C68 0.950 . S
H47 C69 0.948 . S
H48 C71 0.951 . S
H49 C36 0.947 . S
H50 C38 0.952 . S
H51 C39 0.950 . S
N52 C55 1.382 . S
N52 C57 1.363 . S
N53 C55 1.371 . S
N53 C56 1.372 . S
N54 C56 1.361 . S
N54 C57 1.377 . S
C55 N52 1.382 . S
C55 N53 1.371 . S
C55 C58 1.480 . S
C56 N53 1.372 . S
C56 N54 1.361 . S
C56 C64 1.457 . S
C57 N52 1.363 . S
C57 N54 1.377 . S
C57 C70 1.479 . S
C58 C55 1.480 . S
C58 C59 1.383 . S
C58 C63 1.385 . S
C59 H40 0.947 . S
C59 C58 1.383 . S
C59 C60 1.388 . S
C60 H41 0.946 . S
C60 C59 1.388 . S
C60 C61 1.384 . S
C61 C60 1.384 . S
C61 C62 1.377 . S
C62 H42 0.953 . S
C62 C61 1.377 . S
C62 C63 1.369 . S
C63 H43 0.945 . S
C63 C58 1.385 . S
C63 C62 1.369 . S
C64 C56 1.457 . S
C64 C65 1.372 . S
C64 C69 1.364 . S
C65 H44 0.952 . S
C65 C64 1.372 . S
C65 C66 1.389 . S
C66 H45 0.949 . S
C66 C65 1.389 . S
C66 C67 1.387 . S
C67 C66 1.387 . S
C67 C68 1.372 . S
C68 H46 0.950 . S
C68 C67 1.372 . S
C68 C69 1.379 . S
C69 H47 0.948 . S
C69 C64 1.364 . S
C69 C68 1.379 . S
C70 C39 1.383 . S
C70 C57 1.479 . S
C70 C71 1.398 . S
C71 C36 1.382 . S
C71 H48 0.951 . S
C71 C70 1.398 . S
C72 C73 1.384 . S
C72 H85 0.947 . S
C72 C107 1.382 . S
C73 C72 1.384 . S
C73 C74 1.378 . S
C74 C73 1.378 . S
C74 C75 1.378 . S
C74 H86 0.952 . S
C75 C74 1.378 . S
C75 H87 0.950 . S
C75 C106 1.383 . S
H76 C95 0.947 . S
H77 C96 0.946 . S
H78 C98 0.953 . S
H79 C99 0.945 . S
H80 C101 0.952 . S
H81 C102 0.949 . S
H82 C104 0.950 . S
H83 C105 0.948 . S
H84 C107 0.951 . S
H85 C72 0.947 . S
H86 C74 0.952 . S
H87 C75 0.950 . S
N88 C91 1.382 . S
N88 C93 1.363 . S
N89 C91 1.371 . S
N89 C92 1.372 . S
N90 C92 1.361 . S
N90 C93 1.377 . S
C91 N88 1.382 . S
C91 N89 1.371 . S
C91 C94 1.480 . S
C92 N89 1.372 . S
C92 N90 1.361 . S
C92 C100 1.457 . S
C93 N88 1.363 . S
C93 N90 1.377 . S
C93 C106 1.479 . S
C94 C91 1.480 . S
C94 C95 1.383 . S
C94 C99 1.385 . S
C95 H76 0.947 . S
C95 C94 1.383 . S
C95 C96 1.388 . S
C96 H77 0.946 . S
C96 C95 1.388 . S
C96 C97 1.384 . S
C97 C96 1.384 . S
C97 C98 1.377 . S
C98 H78 0.953 . S
C98 C97 1.377 . S
C98 C99 1.369 . S
C99 H79 0.945 . S
C99 C94 1.385 . S
C99 C98 1.369 . S
C100 C92 1.457 . S
C100 C101 1.372 . S
C100 C105 1.364 . S
C101 H80 0.952 . S
C101 C100 1.372 . S
C101 C102 1.389 . S
C102 H81 0.949 . S
C102 C101 1.389 . S
C102 C103 1.387 . S
C103 C102 1.387 . S
C103 C104 1.372 . S
C104 H82 0.950 . S
C104 C103 1.372 . S
C104 C105 1.379 . S
C105 H83 0.948 . S
C105 C100 1.364 . S
C105 C104 1.379 . S
C106 C75 1.383 . S
C106 C93 1.479 . S
C106 C107 1.398 . S
C107 C72 1.382 . S
C107 H84 0.951 . S
C107 C106 1.398 . S
C108 C109 1.384 . S
C108 H121 0.947 . S
C108 C143 1.382 . S
C109 C108 1.384 . S
C109 C110 1.378 . S
C110 C109 1.378 . S
C110 C111 1.378 . S
C110 H122 0.952 . S
C111 C110 1.378 . S
C111 H123 0.950 . S
C111 C142 1.383 . S
H112 C131 0.947 . S
H113 C132 0.946 . S
H114 C134 0.953 . S
H115 C135 0.945 . S
H116 C137 0.952 . S
H117 C138 0.949 . S
H118 C140 0.950 . S
H119 C141 0.948 . S
H120 C143 0.951 . S
H121 C108 0.947 . S
H122 C110 0.952 . S
H123 C111 0.950 . S
N124 C127 1.382 . S
N124 C129 1.363 . S
N125 C127 1.371 . S
N125 C128 1.372 . S
N126 C128 1.361 . S
N126 C129 1.377 . S
C127 N124 1.382 . S
C127 N125 1.371 . S
C127 C130 1.480 . S
C128 N125 1.372 . S
C128 N126 1.361 . S
C128 C136 1.457 . S
C129 N124 1.363 . S
C129 N126 1.377 . S
C129 C142 1.479 . S
C130 C127 1.480 . S
C130 C131 1.383 . S
C130 C135 1.385 . S
C131 H112 0.947 . S
C131 C130 1.383 . S
C131 C132 1.388 . S
C132 H113 0.946 . S
C132 C131 1.388 . S
C132 C133 1.384 . S
C133 C132 1.384 . S
C133 C134 1.377 . S
C134 H114 0.953 . S
C134 C133 1.377 . S
C134 C135 1.369 . S
C135 H115 0.945 . S
C135 C130 1.385 . S
C135 C134 1.369 . S
C136 C128 1.457 . S
C136 C137 1.372 . S
C136 C141 1.364 . S
C137 H116 0.952 . S
C137 C136 1.372 . S
C137 C138 1.389 . S
C138 H117 0.949 . S
C138 C137 1.389 . S
C138 C139 1.387 . S
C139 C138 1.387 . S
C139 C140 1.372 . S
C140 H118 0.950 . S
C140 C139 1.372 . S
C140 C141 1.379 . S
C141 H119 0.948 . S
C141 C136 1.364 . S
C141 C140 1.379 . S
C142 C111 1.383 . S
C142 C129 1.479 . S
C142 C143 1.398 . S
C143 C108 1.382 . S
C143 H120 0.951 . S
C143 C142 1.398 . S
C144 C145 1.384 . S
C144 H157 0.947 1_565 S
C144 C179 1.382 . S
C145 C144 1.384 . S
C145 C146 1.378 . S
C146 C145 1.378 . S
C146 C147 1.378 . S
C146 H158 0.952 . S
C147 C146 1.378 . S
C147 H159 0.950 . S
C147 C178 1.383 . S
H148 C167 0.947 . S
H149 C168 0.946 . S
H150 C170 0.953 . S
H151 C171 0.945 . S
H152 C173 0.952 . S
H153 C174 0.949 . S
H154 C176 0.950 1_545 S
H155 C177 0.948 . S
H156 C179 0.951 . S
H157 C144 0.947 1_545 S
H158 C146 0.952 . S
H159 C147 0.950 . S
N160 C163 1.382 . S
N160 C165 1.363 . S
N161 C163 1.371 . S
N161 C164 1.372 . S
N162 C164 1.361 . S
N162 C165 1.377 . S
C163 N160 1.382 . S
C163 N161 1.371 . S
C163 C166 1.480 . S
C164 N161 1.372 . S
C164 N162 1.361 . S
C164 C172 1.457 . S
C165 N160 1.363 . S
C165 N162 1.377 . S
C165 C178 1.479 . S
C166 C163 1.480 . S
C166 C167 1.383 . S
C166 C171 1.385 . S
C167 H148 0.947 . S
C167 C166 1.383 . S
C167 C168 1.388 . S
C168 H149 0.946 . S
C168 C167 1.388 . S
C168 C169 1.384 . S
C169 C168 1.384 . S
C169 C170 1.377 . S
C170 H150 0.953 . S
C170 C169 1.377 . S
C170 C171 1.369 . S
C171 H151 0.945 . S
C171 C166 1.385 . S
C171 C170 1.369 . S
C172 C164 1.457 . S
C172 C173 1.372 . S
C172 C177 1.364 . S
C173 H152 0.952 . S
C173 C172 1.372 . S
C173 C174 1.389 . S
C174 H153 0.949 . S
C174 C173 1.389 . S
C174 C175 1.387 . S
C175 C174 1.387 . S
C175 C176 1.372 . S
C176 H154 0.950 1_565 S
C176 C175 1.372 . S
C176 C177 1.379 . S
C177 H155 0.948 . S
C177 C172 1.364 . S
C177 C176 1.379 . S
C178 C147 1.383 . S
C178 C165 1.479 . S
C178 C179 1.398 . S
C179 C144 1.382 . S
C179 H156 0.951 . S
C179 C178 1.398 . S
C180 C181 1.384 . S
C180 H193 0.947 . S
C180 C215 1.382 . S
C181 C180 1.384 . S
C181 C182 1.378 . S
C182 C181 1.378 . S
C182 C183 1.378 . S
C182 H194 0.952 . S
C183 C182 1.378 . S
C183 H195 0.950 . S
C183 C214 1.383 . S
H184 C203 0.947 . S
H185 C204 0.946 . S
H186 C206 0.953 . S
H187 C207 0.945 . S
H188 C209 0.952 . S
H189 C210 0.949 . S
H190 C212 0.950 . S
H191 C213 0.948 . S
H192 C215 0.951 . S
H193 C180 0.947 . S
H194 C182 0.952 . S
H195 C183 0.950 . S
N196 C199 1.382 . S
N196 C201 1.363 . S
N197 C199 1.371 . S
N197 C200 1.372 . S
N198 C200 1.361 . S
N198 C201 1.377 . S
C199 N196 1.382 . S
C199 N197 1.371 . S
C199 C202 1.480 . S
C200 N197 1.372 . S
C200 N198 1.361 . S
C200 C208 1.457 . S
C201 N196 1.363 . S
C201 N198 1.377 . S
C201 C214 1.479 . S
C202 C199 1.480 . S
C202 C203 1.383 . S
C202 C207 1.385 . S
C203 H184 0.947 . S
C203 C202 1.383 . S
C203 C204 1.388 . S
C204 H185 0.946 . S
C204 C203 1.388 . S
C204 C205 1.384 . S
C205 C204 1.384 . S
C205 C206 1.377 . S
C206 H186 0.953 . S
C206 C205 1.377 . S
C206 C207 1.369 . S
C207 H187 0.945 . S
C207 C202 1.385 . S
C207 C206 1.369 . S
C208 C200 1.457 . S
C208 C209 1.372 . S
C208 C213 1.364 . S
C209 H188 0.952 . S
C209 C208 1.372 . S
C209 C210 1.389 . S
C210 H189 0.949 . S
C210 C209 1.389 . S
C210 C211 1.387 . S
C211 C210 1.387 . S
C211 C212 1.372 . S
C212 H190 0.950 . S
C212 C211 1.372 . S
C212 C213 1.379 . S
C213 H191 0.948 . S
C213 C208 1.364 . S
C213 C212 1.379 . S
C214 C183 1.383 . S
C214 C201 1.479 . S
C214 C215 1.398 . S
C215 C180 1.382 . S
C215 H192 0.951 . S
C215 C214 1.398 . S
C216 C217 1.384 . S
C216 H229 0.947 . S
C216 C251 1.382 . S
C217 C216 1.384 . S
C217 C218 1.378 . S
C218 C217 1.378 . S
C218 C219 1.378 . S
C218 H230 0.952 . S
C219 C218 1.378 . S
C219 H231 0.950 . S
C219 C250 1.383 . S
H220 C239 0.947 . S
H221 C240 0.946 . S
H222 C242 0.953 . S
H223 C243 0.945 . S
H224 C245 0.952 . S
H225 C246 0.949 . S
H226 C248 0.950 . S
H227 C249 0.948 . S
H228 C251 0.951 . S
H229 C216 0.947 . S
H230 C218 0.952 . S
H231 C219 0.950 . S
N232 C235 1.382 . S
N232 C237 1.363 . S
N233 C235 1.371 . S
N233 C236 1.372 . S
N234 C236 1.361 . S
N234 C237 1.377 . S
C235 N232 1.382 . S
C235 N233 1.371 . S
C235 C238 1.480 . S
C236 N233 1.372 . S
C236 N234 1.361 . S
C236 C244 1.457 . S
C237 N232 1.363 . S
C237 N234 1.377 . S
C237 C250 1.479 . S
C238 C235 1.480 . S
C238 C239 1.383 . S
C238 C243 1.385 . S
C239 H220 0.947 . S
C239 C238 1.383 . S
C239 C240 1.388 . S
C240 H221 0.946 . S
C240 C239 1.388 . S
C240 C241 1.384 . S
C241 C240 1.384 . S
C241 C242 1.377 . S
C242 H222 0.953 . S
C242 C241 1.377 . S
C242 C243 1.369 . S
C243 H223 0.945 . S
C243 C238 1.385 . S
C243 C242 1.369 . S
C244 C236 1.457 . S
C244 C245 1.372 . S
C244 C249 1.364 . S
C245 H224 0.952 . S
C245 C244 1.372 . S
C245 C246 1.389 . S
C246 H225 0.949 . S
C246 C245 1.389 . S
C246 C247 1.387 . S
C247 C246 1.387 . S
C247 C248 1.372 . S
C248 H226 0.950 . S
C248 C247 1.372 . S
C248 C249 1.379 . S
C249 H227 0.948 . S
C249 C244 1.364 . S
C249 C248 1.379 . S
C250 C219 1.383 . S
C250 C237 1.479 . S
C250 C251 1.398 . S
C251 C216 1.382 . S
C251 H228 0.951 . S
C251 C250 1.398 . S
C252 C253 1.384 . S
C252 H265 0.947 . S
C252 C287 1.382 . S
C253 C252 1.384 . S
C253 C254 1.378 . S
C254 C253 1.378 . S
C254 C255 1.378 . S
C254 H266 0.952 . S
C255 C254 1.378 . S
C255 H267 0.950 . S
C255 C286 1.383 . S
H256 C275 0.947 . S
H257 C276 0.946 . S
H258 C278 0.953 . S
H259 C279 0.945 . S
H260 C281 0.952 . S
H261 C282 0.949 . S
H262 C284 0.950 . S
H263 C285 0.948 . S
H264 C287 0.951 . S
H265 C252 0.947 . S
H266 C254 0.952 . S
H267 C255 0.950 . S
N268 C271 1.382 . S
N268 C273 1.363 . S
N269 C271 1.371 . S
N269 C272 1.372 . S
N270 C272 1.361 . S
N270 C273 1.377 . S
C271 N268 1.382 . S
C271 N269 1.371 . S
C271 C274 1.480 . S
C272 N269 1.372 . S
C272 N270 1.361 . S
C272 C280 1.457 . S
C273 N268 1.363 . S
C273 N270 1.377 . S
C273 C286 1.479 . S
C274 C271 1.480 . S
C274 C275 1.383 . S
C274 C279 1.385 . S
C275 H256 0.947 . S
C275 C274 1.383 . S
C275 C276 1.388 . S
C276 H257 0.946 . S
C276 C275 1.388 . S
C276 C277 1.384 . S
C277 C276 1.384 . S
C277 C278 1.377 . S
C278 H258 0.953 . S
C278 C277 1.377 . S
C278 C279 1.369 . S
C279 H259 0.945 . S
C279 C274 1.385 . S
C279 C278 1.369 . S
C280 C272 1.457 . S
C280 C281 1.372 . S
C280 C285 1.364 . S
C281 H260 0.952 . S
C281 C280 1.372 . S
C281 C282 1.389 . S
C282 H261 0.949 . S
C282 C281 1.389 . S
C282 C283 1.387 . S
C283 C282 1.387 . S
C283 C284 1.372 . S
C284 H262 0.950 . S
C284 C283 1.372 . S
C284 C285 1.379 . S
C285 H263 0.948 . S
C285 C280 1.364 . S
C285 C284 1.379 . S
C286 C255 1.383 . S
C286 C273 1.479 . S
C286 C287 1.398 . S
C287 C252 1.382 . S
C287 H264 0.951 . S
C287 C286 1.398 . S
O288 Zn289 1.953 . S
O288 C304 1.225 1_655 S
Zn289 O288 1.953 . S
Zn289 O290 1.949 1_655 S
Zn289 O296 1.919 . S
Zn289 O301 1.924 . S
O290 Zn289 1.949 1_455 S
O290 Zn291 1.923 1_445 S
O290 Zn292 1.950 . S
O290 Zn293 1.945 1_545 S
Zn291 O290 1.923 1_665 S
Zn291 O294 1.933 . S
Zn291 O297 1.941 1_565 S
Zn291 O298 1.965 1_665 S
Zn292 O290 1.950 . S
Zn292 O299 1.938 . S
Zn292 O300 1.883 1_545 S
Zn292 O310 1.953 . S
Zn293 O290 1.945 1_565 S
Zn293 O295 1.932 1_455 S
Zn293 O302 1.977 . S
Zn293 O303 1.910 1_455 S
O294 Zn291 1.933 . S
O294 C305 1.226 . S
O295 Zn293 1.932 1_655 S
O295 C305 1.307 . S
O296 Zn289 1.919 . S
O296 C307 1.253 . S
O297 Zn291 1.941 1_545 S
O297 C307 1.283 . S
O298 Zn291 1.965 1_445 S
O298 C306 1.303 . S
O299 Zn292 1.938 . S
O299 C306 1.247 . S
O300 Zn292 1.883 1_565 S
O300 C308 1.338 . S
O301 Zn289 1.924 . S
O301 C309 1.311 1_545 S
O302 Zn293 1.977 . S
O302 C308 1.272 . S
O303 Zn293 1.910 1_655 S
O303 C309 1.231 . S
C304 O288 1.225 1_455 S
C304 O310 1.298 . S
C305 O294 1.226 . S
C305 O295 1.307 . S
C306 O298 1.303 . S
C306 O299 1.247 . S
C307 O296 1.253 . S
C307 O297 1.283 . S
C308 O300 1.338 . S
C308 O302 1.272 . S
C309 O301 1.311 1_565 S
C309 O303 1.231 . S
O310 Zn292 1.953 . S
O310 C304 1.298 . S
O311 Zn312 1.953 . S
O311 C327 1.225 . S
Zn312 O311 1.953 . S
Zn312 O313 1.949 1_556 S
Zn312 O319 1.919 . S
Zn312 O324 1.924 1_556 S
O313 Zn312 1.949 1_554 S
O313 Zn314 1.923 1_545 S
O313 Zn315 1.950 . S
O313 Zn316 1.945 1_545 S
Zn314 O313 1.923 1_565 S
Zn314 O317 1.933 . S
Zn314 O320 1.941 1_554 S
Zn314 O321 1.965 1_554 S
Zn315 O313 1.950 . S
Zn315 O322 1.938 . S
Zn315 O323 1.906 . S
Zn315 O333 1.953 . S
Zn316 O313 1.945 1_565 S
Zn316 O318 1.932 . S
Zn316 O325 1.977 1_565 S
Zn316 O326 1.910 1_565 S
O317 Zn314 1.933 . S
O317 C328 1.226 . S
O318 Zn316 1.932 . S
O318 C328 1.307 . S
O319 Zn312 1.919 . S
O319 C330 1.253 1_545 S
O320 Zn314 1.941 1_556 S
O320 C330 1.283 . S
O321 Zn314 1.965 1_556 S
O321 C329 1.305 . S
O322 Zn315 1.938 . S
O322 C329 1.230 1_544 S
O323 Zn315 1.906 . S
O323 C331 1.304 . S
O324 Zn312 1.924 1_554 S
O324 C332 1.311 . S
O325 Zn316 1.977 1_545 S
O325 C331 1.272 . S
O326 Zn316 1.910 1_545 S
O326 C332 1.231 . S
C327 O311 1.225 . S
C327 O333 1.298 1_556 S
C328 O317 1.226 . S
C328 O318 1.307 . S
C329 O321 1.305 . S
C329 O322 1.230 1_566 S
C330 O319 1.253 1_565 S
C330 O320 1.283 . S
C331 O323 1.304 . S
C331 O325 1.272 . S
C332 O324 1.311 . S
C332 O326 1.231 . S
O333 Zn315 1.953 . S
O333 C327 1.298 1_554 S
O334 Zn335 1.953 . S
O334 C350 1.225 . S
Zn335 O334 1.953 . S
Zn335 O336 1.949 . S
Zn335 O342 1.919 . S
Zn335 O347 1.924 . S
O336 Zn335 1.949 . S
O336 Zn337 1.923 . S
O336 Zn338 1.950 . S
O336 Zn339 1.945 . S
Zn337 O336 1.923 . S
Zn337 O340 1.933 . S
Zn337 O343 1.941 . S
Zn337 O344 1.965 . S
Zn338 O336 1.950 . S
Zn338 O345 1.938 . S
Zn338 O346 1.906 . S
Zn338 O356 1.953 . S
Zn339 O336 1.945 . S
Zn339 O341 1.932 . S
Zn339 O348 1.977 . S
Zn339 O349 1.910 . S
O340 Zn337 1.933 . S
O340 C351 1.226 . S
O341 Zn339 1.932 . S
O341 C351 1.307 . S
O342 Zn335 1.919 . S
O342 C353 1.253 . S
O343 Zn337 1.941 . S
O343 C353 1.283 . S
O344 Zn337 1.965 . S
O344 C352 1.303 . S
O345 Zn338 1.938 . S
O345 C352 1.247 . S
O346 Zn338 1.906 . S
O346 C354 1.304 . S
O347 Zn335 1.924 . S
O347 C355 1.311 . S
O348 Zn339 1.977 . S
O348 C354 1.272 . S
O349 Zn339 1.910 . S
O349 C355 1.231 . S
C350 O334 1.225 . S
C350 O356 1.298 . S
C351 O340 1.226 . S
C351 O341 1.307 . S
C352 O344 1.303 . S
C352 O345 1.247 . S
C353 O342 1.253 . S
C353 O343 1.283 . S
C354 O346 1.304 . S
C354 O348 1.272 . S
C355 O347 1.311 . S
C355 O349 1.231 . S
O356 Zn338 1.953 . S
O356 C350 1.298 . S
O357 Zn358 1.953 . S
O357 C373 1.225 . S
Zn358 O357 1.953 . S
Zn358 O359 1.949 1_655 S
Zn358 O365 1.919 . S
Zn358 O370 1.924 . S
O359 Zn358 1.949 1_455 S
O359 Zn360 1.923 1_454 S
O359 Zn361 1.950 . S
O359 Zn362 1.945 1_554 S
Zn360 O359 1.923 1_656 S
Zn360 O363 1.933 1_655 S
Zn360 O366 1.941 . S
Zn360 O367 1.965 . S
Zn361 O359 1.950 . S
Zn361 O368 1.938 . S
Zn361 O369 1.906 . S
Zn361 O379 1.953 . S
Zn362 O359 1.945 1_556 S
Zn362 O364 1.932 . S
Zn362 O371 1.977 1_556 S
Zn362 O372 1.910 1_556 S
O363 Zn360 1.933 1_455 S
O363 C374 1.226 . S
O364 Zn362 1.932 . S
O364 C374 1.307 . S
O365 Zn358 1.919 . S
O365 C376 1.253 1_554 S
O366 Zn360 1.941 . S
O366 C376 1.283 . S
O367 Zn360 1.965 . S
O367 C375 1.303 . S
O368 Zn361 1.938 . S
O368 C375 1.247 1_454 S
O369 Zn361 1.906 . S
O369 C377 1.304 . S
O370 Zn358 1.924 . S
O370 C378 1.311 1_655 S
O371 Zn362 1.977 1_554 S
O371 C377 1.272 . S
O372 Zn362 1.910 1_554 S
O372 C378 1.231 . S
C373 O357 1.225 . S
C373 O379 1.298 1_655 S
C374 O363 1.226 . S
C374 O364 1.307 . S
C375 O367 1.303 . S
C375 O368 1.247 1_656 S
C376 O365 1.253 1_556 S
C376 O366 1.283 . S
C377 O369 1.304 . S
C377 O371 1.272 . S
C378 O370 1.311 1_455 S
C378 O372 1.231 . S
O379 Zn361 1.953 . S
O379 C373 1.298 1_455 S
H380 C388 0.950 . S
H381 C393 0.950 . S
H382 C390 0.950 . S
H383 C392 0.950 . S
H384 C394 0.950 . S
H385 C396 0.950 . S
H386 C398 0.950 . S
H387 C399 0.950 . S
C388 H380 0.950 . S
C388 C389 1.386 . S
C388 C390 1.391 . S
C389 C388 1.386 . S
C389 C393 1.393 . S
C390 H382 0.950 . S
C390 C388 1.391 . S
C390 C391 1.400 . S
C391 C390 1.400 . S
C391 C392 1.398 . S
C391 C397 1.491 . S
C392 H383 0.950 . S
C392 C391 1.398 . S
C392 C393 1.391 . S
C393 H381 0.950 . S
C393 C389 1.393 . S
C393 C392 1.391 . S
C394 H384 0.950 . S
C394 C395 1.386 . S
C394 C396 1.391 . S
C395 C394 1.386 . S
C395 C399 1.393 . S
C396 H385 0.950 . S
C396 C394 1.391 . S
C396 C397 1.400 . S
C397 C391 1.491 . S
C397 C396 1.400 . S
C397 C398 1.398 . S
C398 H386 0.950 . S
C398 C397 1.398 . S
C398 C399 1.391 . S
C399 H387 0.950 . S
C399 C395 1.393 . S
C399 C398 1.391 . S
H400 C408 0.950 . S
H401 C413 0.950 . S
H402 C410 0.950 . S
H403 C412 0.950 . S
H404 C414 0.950 . S
H405 C416 0.950 . S
H406 C418 0.950 . S
H407 C419 0.950 . S
C408 H400 0.950 . S
C408 C409 1.386 . S
C408 C410 1.391 . S
C409 C408 1.386 . S
C409 C413 1.393 . S
C410 H402 0.950 . S
C410 C408 1.391 . S
C410 C411 1.400 . S
C411 C410 1.400 . S
C411 C412 1.398 . S
C411 C417 1.491 . S
C412 H403 0.950 . S
C412 C411 1.398 . S
C412 C413 1.391 . S
C413 H401 0.950 . S
C413 C409 1.393 . S
C413 C412 1.391 . S
C414 H404 0.950 . S
C414 C415 1.386 . S
C414 C416 1.391 . S
C415 C414 1.386 . S
C415 C419 1.393 . S
C416 H405 0.950 . S
C416 C414 1.391 . S
C416 C417 1.400 . S
C417 C411 1.491 . S
C417 C416 1.400 . S
C417 C418 1.398 . S
C418 H406 0.950 . S
C418 C417 1.398 . S
C418 C419 1.391 . S
C419 H407 0.950 . S
C419 C415 1.393 . S
C419 C418 1.391 . S
H420 C428 0.950 . S
H421 C433 0.950 . S
H422 C430 0.950 . S
H423 C432 0.950 . S
H424 C434 0.950 . S
H425 C436 0.950 . S
H426 C438 0.950 . S
H427 C439 0.950 . S
C428 H420 0.950 . S
C428 C429 1.386 . S
C428 C430 1.391 . S
C429 C428 1.386 . S
C429 C433 1.393 . S
C430 H422 0.950 . S
C430 C428 1.391 . S
C430 C431 1.400 . S
C431 C430 1.400 . S
C431 C432 1.398 . S
C431 C437 1.491 . S
C432 H423 0.950 . S
C432 C431 1.398 . S
C432 C433 1.391 . S
C433 H421 0.950 . S
C433 C429 1.393 . S
C433 C432 1.391 . S
C434 H424 0.950 . S
C434 C435 1.386 . S
C434 C436 1.391 . S
C435 C434 1.386 . S
C435 C439 1.393 . S
C436 H425 0.950 . S
C436 C434 1.391 . S
C436 C437 1.400 . S
C437 C431 1.491 . S
C437 C436 1.400 . S
C437 C438 1.398 . S
C438 H426 0.950 . S
C438 C437 1.398 . S
C438 C439 1.391 . S
C439 H427 0.950 . S
C439 C435 1.393 . S
C439 C438 1.391 . S
H440 C448 0.950 . S
H441 C453 0.950 . S
H442 C450 0.950 . S
H443 C452 0.950 . S
H444 C454 0.950 1_455 S
H445 C456 0.950 1_455 S
H446 C458 0.950 . S
H447 C459 0.950 . S
C448 H440 0.950 . S
C448 C449 1.386 . S
C448 C450 1.391 . S
C449 C448 1.386 . S
C449 C453 1.393 . S
C450 H442 0.950 . S
C450 C448 1.391 . S
C450 C451 1.400 . S
C451 C450 1.400 . S
C451 C452 1.398 . S
C451 C457 1.491 . S
C452 H443 0.950 . S
C452 C451 1.398 . S
C452 C453 1.391 . S
C453 H441 0.950 . S
C453 C449 1.393 . S
C453 C452 1.391 . S
C454 H444 0.950 1_655 S
C454 C455 1.386 . S
C454 C456 1.391 . S
C455 C454 1.386 . S
C455 C459 1.393 . S
C456 H445 0.950 1_655 S
C456 C454 1.391 . S
C456 C457 1.400 . S
C457 C451 1.491 . S
C457 C456 1.400 . S
C457 C458 1.398 . S
C458 H446 0.950 . S
C458 C457 1.398 . S
C458 C459 1.391 . S
C459 H447 0.950 . S
C459 C455 1.393 . S
C459 C458 1.391 . S
H460 C468 0.950 . S
H461 C473 0.950 . S
H462 C470 0.950 . S
H463 C472 0.950 . S
H464 C474 0.950 . S
H465 C476 0.950 . S
H466 C478 0.950 . S
H467 C479 0.950 . S
C468 H460 0.950 . S
C468 C469 1.386 . S
C468 C470 1.391 . S
C469 C468 1.386 . S
C469 C473 1.393 . S
C470 H462 0.950 . S
C470 C468 1.391 . S
C470 C471 1.400 . S
C471 C470 1.400 . S
C471 C472 1.398 . S
C471 C477 1.491 . S
C472 H463 0.950 . S
C472 C471 1.398 . S
C472 C473 1.391 . S
C473 H461 0.950 . S
C473 C469 1.393 . S
C473 C472 1.391 . S
C474 H464 0.950 . S
C474 C475 1.386 . S
C474 C476 1.391 . S
C475 C474 1.386 . S
C475 C479 1.393 . S
C476 H465 0.950 . S
C476 C474 1.391 . S
C476 C477 1.400 . S
C477 C471 1.491 . S
C477 C476 1.400 . S
C477 C478 1.398 . S
C478 H466 0.950 . S
C478 C477 1.398 . S
C478 C479 1.391 . S
C479 H467 0.950 . S
C479 C475 1.393 . S
C479 C478 1.391 . S
H480 C488 0.950 . S
H481 C493 0.950 . S
H482 C490 0.950 . S
H483 C492 0.950 . S
H484 C494 0.950 . S
H485 C496 0.950 . S
H486 C498 0.950 . S
H487 C499 0.950 . S
C488 H480 0.950 . S
C488 C489 1.386 . S
C488 C490 1.391 . S
C489 C488 1.386 . S
C489 C493 1.393 . S
C490 H482 0.950 . S
C490 C488 1.391 . S
C490 C491 1.400 . S
C491 C490 1.400 . S
C491 C492 1.398 . S
C491 C497 1.491 . S
C492 H483 0.950 . S
C492 C491 1.398 . S
C492 C493 1.391 . S
C493 H481 0.950 . S
C493 C489 1.393 . S
C493 C492 1.391 . S
C494 H484 0.950 . S
C494 C495 1.386 . S
C494 C496 1.391 . S
C495 C494 1.386 . S
C495 C499 1.393 . S
C496 H485 0.950 . S
C496 C494 1.391 . S
C496 C497 1.400 . S
C497 C491 1.491 . S
C497 C496 1.400 . S
C497 C498 1.398 . S
C498 H486 0.950 . S
C498 C497 1.398 . S
C498 C499 1.391 . S
C499 H487 0.950 . S
C499 C495 1.393 . S
C499 C498 1.391 . S
H500 C508 0.950 . S
H501 C513 0.950 . S
H502 C510 0.950 . S
H503 C512 0.950 . S
H504 C514 0.950 1_554 S
H505 C516 0.950 . S
H506 C518 0.950 . S
H507 C519 0.950 . S
C508 H500 0.950 . S
C508 C509 1.386 . S
C508 C510 1.391 . S
C509 C508 1.386 . S
C509 C513 1.393 . S
C510 H502 0.950 . S
C510 C508 1.391 . S
C510 C511 1.400 . S
C511 C510 1.400 . S
C511 C512 1.398 . S
C511 C517 1.491 . S
C512 H503 0.950 . S
C512 C511 1.398 . S
C512 C513 1.391 . S
C513 H501 0.950 . S
C513 C509 1.393 . S
C513 C512 1.391 . S
C514 H504 0.950 1_556 S
C514 C515 1.386 . S
C514 C516 1.391 . S
C515 C514 1.386 . S
C515 C519 1.393 . S
C516 H505 0.950 . S
C516 C514 1.391 . S
C516 C517 1.400 . S
C517 C511 1.491 . S
C517 C516 1.400 . S
C517 C518 1.398 . S
C518 H506 0.950 . S
C518 C517 1.398 . S
C518 C519 1.391 . S
C519 H507 0.950 . S
C519 C515 1.393 . S
C519 C518 1.391 . S
H520 C528 0.950 . S
H521 C533 0.950 . S
H522 C530 0.950 . S
H523 C532 0.950 . S
H524 C534 0.950 . S
H525 C536 0.950 . S
H526 C538 0.950 . S
H527 C539 0.950 . S
C528 H520 0.950 . S
C528 C529 1.386 . S
C528 C530 1.391 . S
C529 C528 1.386 . S
C529 C533 1.393 . S
C530 H522 0.950 . S
C530 C528 1.391 . S
C530 C531 1.400 . S
C531 C530 1.400 . S
C531 C532 1.398 . S
C531 C537 1.491 . S
C532 H523 0.950 . S
C532 C531 1.398 . S
C532 C533 1.391 . S
C533 H521 0.950 . S
C533 C529 1.393 . S
C533 C532 1.391 . S
C534 H524 0.950 . S
C534 C535 1.386 . S
C534 C536 1.391 . S
C535 C534 1.386 . S
C535 C539 1.393 . S
C536 H525 0.950 . S
C536 C534 1.391 . S
C536 C537 1.400 . S
C537 C531 1.491 . S
C537 C536 1.400 . S
C537 C538 1.398 . S
C538 H526 0.950 . S
C538 C537 1.398 . S
C538 C539 1.391 . S
C539 H527 0.950 . S
C539 C535 1.393 . S
C539 C538 1.391 . S
H540 C548 0.950 . S
H541 C553 0.950 . S
H542 C550 0.950 . S
H543 C552 0.950 . S
H544 C554 0.950 . S
H545 C556 0.950 . S
H546 C558 0.950 . S
H547 C559 0.950 1_655 S
C548 H540 0.950 . S
C548 C549 1.386 . S
C548 C550 1.391 . S
C549 C548 1.386 . S
C549 C553 1.393 . S
C550 H542 0.950 . S
C550 C548 1.391 . S
C550 C551 1.400 . S
C551 C550 1.400 . S
C551 C552 1.398 . S
C551 C557 1.491 . S
C552 H543 0.950 . S
C552 C551 1.398 . S
C552 C553 1.391 . S
C553 H541 0.950 . S
C553 C549 1.393 . S
C553 C552 1.391 . S
C554 H544 0.950 . S
C554 C555 1.386 . S
C554 C556 1.391 . S
C555 C554 1.386 . S
C555 C559 1.393 . S
C556 H545 0.950 . S
C556 C554 1.391 . S
C556 C557 1.400 . S
C557 C551 1.491 . S
C557 C556 1.400 . S
C557 C558 1.398 . S
C558 H546 0.950 . S
C558 C557 1.398 . S
C558 C559 1.391 . S
C559 H547 0.950 1_455 S
C559 C555 1.393 . S
C559 C558 1.391 . S
H560 C568 0.950 . S
H561 C573 0.950 . S
H562 C570 0.950 . S
H563 C572 0.950 . S
H564 C574 0.950 . S
H565 C576 0.950 1_554 S
H566 C578 0.950 . S
H567 C579 0.950 . S
C568 H560 0.950 . S
C568 C569 1.386 . S
C568 C570 1.391 . S
C569 C568 1.386 . S
C569 C573 1.393 . S
C570 H562 0.950 . S
C570 C568 1.391 . S
C570 C571 1.400 . S
C571 C570 1.400 . S
C571 C572 1.398 . S
C571 C577 1.491 . S
C572 H563 0.950 . S
C572 C571 1.398 . S
C572 C573 1.391 . S
C573 H561 0.950 . S
C573 C569 1.393 . S
C573 C572 1.391 . S
C574 H564 0.950 . S
C574 C575 1.386 1_554 S
C574 C576 1.391 1_554 S
C575 C574 1.386 1_556 S
C575 C579 1.393 . S
C576 H565 0.950 1_556 S
C576 C574 1.391 1_556 S
C576 C577 1.400 . S
C577 C571 1.491 . S
C577 C576 1.400 . S
C577 C578 1.398 . S
C578 H566 0.950 . S
C578 C577 1.398 . S
C578 C579 1.391 . S
C579 H567 0.950 . S
C579 C575 1.393 . S
C579 C578 1.391 . S
H580 C588 0.950 . S
H581 C593 0.950 . S
H582 C590 0.950 . S
H583 C592 0.950 . S
H584 C594 0.950 . S
H585 C596 0.950 . S
H586 C598 0.950 1_455 S
H587 C599 0.950 1_455 S
C588 H580 0.950 . S
C588 C589 1.386 . S
C588 C590 1.391 . S
C589 C588 1.386 . S
C589 C593 1.393 . S
C590 H582 0.950 . S
C590 C588 1.391 . S
C590 C591 1.400 . S
C591 C590 1.400 . S
C591 C592 1.398 . S
C591 C597 1.491 . S
C592 H583 0.950 . S
C592 C591 1.398 . S
C592 C593 1.391 . S
C593 H581 0.950 . S
C593 C589 1.393 . S
C593 C592 1.391 . S
C594 H584 0.950 . S
C594 C595 1.386 . S
C594 C596 1.391 . S
C595 C594 1.386 . S
C595 C599 1.393 . S
C596 H585 0.950 . S
C596 C594 1.391 . S
C596 C597 1.400 . S
C597 C591 1.491 . S
C597 C596 1.400 . S
C597 C598 1.398 . S
C598 H586 0.950 1_655 S
C598 C597 1.398 . S
C598 C599 1.391 . S
C599 H587 0.950 1_655 S
C599 C595 1.393 . S
C599 C598 1.391 . S
H600 C608 0.950 . S
H601 C613 0.950 . S
H602 C610 0.950 . S
H603 C612 0.950 . S
H604 C614 0.950 . S
H605 C616 0.950 . S
H606 C618 0.950 . S
H607 C619 0.950 . S
C608 H600 0.950 . S
C608 C609 1.386 . S
C608 C610 1.391 . S
C609 C608 1.386 . S
C609 C613 1.393 . S
C610 H602 0.950 . S
C610 C608 1.391 . S
C610 C611 1.400 . S
C611 C610 1.400 . S
C611 C612 1.398 . S
C611 C617 1.491 . S
C612 H603 0.950 . S
C612 C611 1.398 . S
C612 C613 1.391 . S
C613 H601 0.950 . S
C613 C609 1.393 . S
C613 C612 1.391 . S
C614 H604 0.950 . S
C614 C615 1.386 . S
C614 C616 1.391 . S
C615 C614 1.386 . S
C615 C619 1.393 . S
C616 H605 0.950 . S
C616 C614 1.391 . S
C616 C617 1.400 . S
C617 C611 1.491 . S
C617 C616 1.400 . S
C617 C618 1.398 . S
C618 H606 0.950 . S
C618 C617 1.398 . S
C618 C619 1.391 . S
C619 H607 0.950 . S
C619 C615 1.393 . S
C619 C618 1.391 . S
H620 C628 0.950 . S
H621 C633 0.950 . S
H622 C630 0.950 . S
H623 C632 0.950 . S
H624 C634 0.950 . S
H625 C636 0.950 . S
H626 C638 0.950 . S
H627 C639 0.954 . S
C628 H620 0.950 . S
C628 C629 1.386 . S
C628 C630 1.391 . S
C629 C628 1.386 . S
C629 C633 1.393 1_565 S
C630 H622 0.950 . S
C630 C628 1.391 . S
C630 C631 1.400 . S
C631 C630 1.400 . S
C631 C632 1.398 1_565 S
C631 C637 1.491 . S
C632 H623 0.950 . S
C632 C631 1.398 1_545 S
C632 C633 1.391 . S
C633 H621 0.950 . S
C633 C629 1.393 1_545 S
C633 C632 1.391 . S
C634 H624 0.950 . S
C634 C635 1.363 1_545 S
C634 C636 1.391 . S
C635 C634 1.363 1_565 S
C635 C639 1.419 . S
C636 H625 0.950 . S
C636 C634 1.391 . S
C636 C637 1.400 1_545 S
C637 C631 1.491 . S
C637 C636 1.400 1_565 S
C637 C638 1.398 . S
C638 H626 0.950 . S
C638 C637 1.398 . S
C638 C639 1.391 . S
C639 H627 0.954 . S
C639 C635 1.419 . S
C639 C638 1.391 . S
H640 C648 0.950 . S
H641 C653 0.950 . S
H642 C650 0.950 . S
H643 C652 0.950 . S
H644 C654 0.950 1_565 S
H645 C656 0.950 1_565 S
H646 C658 0.950 . S
H647 C659 0.950 . S
C648 H640 0.950 . S
C648 C649 1.386 . S
C648 C650 1.391 . S
C649 C648 1.386 . S
C649 C653 1.393 . S
C650 H642 0.950 . S
C650 C648 1.391 . S
C650 C651 1.400 . S
C651 C650 1.400 . S
C651 C652 1.398 . S
C651 C657 1.491 . S
C652 H643 0.950 . S
C652 C651 1.398 . S
C652 C653 1.391 . S
C653 H641 0.950 . S
C653 C649 1.393 . S
C653 C652 1.391 . S
C654 H644 0.950 1_545 S
C654 C655 1.386 . S
C654 C656 1.391 . S
C655 C654 1.386 . S
C655 C659 1.393 . S
C656 H645 0.950 1_545 S
C656 C654 1.391 . S
C656 C657 1.400 . S
C657 C651 1.491 . S
C657 C656 1.400 . S
C657 C658 1.398 . S
C658 H646 0.950 . S
C658 C657 1.398 . S
C658 C659 1.391 . S
C659 H647 0.950 . S
C659 C655 1.393 . S
C659 C658 1.391 . S
H660 C668 0.950 . S
H661 C673 0.950 . S
H662 C670 0.950 . S
H663 C672 0.950 . S
H664 C674 0.950 . S
H665 C676 0.950 . S
H666 C678 0.950 . S
H667 C679 0.950 . S
C668 H660 0.950 . S
C668 C669 1.386 . S
C668 C670 1.391 . S
C669 C668 1.386 . S
C669 C673 1.393 . S
C670 H662 0.950 . S
C670 C668 1.391 . S
C670 C671 1.400 . S
C671 C670 1.400 . S
C671 C672 1.398 . S
C671 C677 1.491 . S
C672 H663 0.950 . S
C672 C671 1.398 . S
C672 C673 1.391 . S
C673 H661 0.950 . S
C673 C669 1.393 . S
C673 C672 1.391 . S
C674 H664 0.950 . S
C674 C675 1.386 . S
C674 C676 1.391 . S
C675 C674 1.386 . S
C675 C679 1.393 . S
C676 H665 0.950 . S
C676 C674 1.391 . S
C676 C677 1.400 . S
C677 C671 1.491 . S
C677 C676 1.400 . S
C677 C678 1.398 . S
C678 H666 0.950 . S
C678 C677 1.398 . S
C678 C679 1.391 . S
C679 H667 0.950 . S
C679 C675 1.393 . S
C679 C678 1.391 . S
H680 C688 0.950 . S
H681 C693 0.950 . S
H682 C690 0.950 . S
H683 C692 0.950 . S
H684 C694 0.950 . S
H685 C696 0.950 . S
H686 C698 0.950 . S
H687 C699 0.950 . S
C688 H680 0.950 . S
C688 C689 1.386 . S
C688 C690 1.391 . S
C689 C688 1.386 . S
C689 C693 1.393 . S
C690 H682 0.950 . S
C690 C688 1.391 . S
C690 C691 1.400 . S
C691 C690 1.400 . S
C691 C692 1.398 . S
C691 C697 1.491 . S
C692 H683 0.950 . S
C692 C691 1.398 . S
C692 C693 1.391 . S
C693 H681 0.950 . S
C693 C689 1.393 . S
C693 C692 1.391 . S
C694 H684 0.950 . S
C694 C695 1.386 . S
C694 C696 1.391 . S
C695 C694 1.386 . S
C695 C699 1.393 . S
C696 H685 0.950 . S
C696 C694 1.391 . S
C696 C697 1.400 . S
C697 C691 1.491 . S
C697 C696 1.400 . S
C697 C698 1.398 . S
C698 H686 0.950 . S
C698 C697 1.398 . S
C698 C699 1.391 . S
C699 H687 0.950 . S
C699 C695 1.393 . S
C699 C698 1.391 . S
H700 C708 0.950 . S
H701 C713 0.950 . S
H702 C710 0.950 . S
H703 C712 0.950 . S
H704 C714 0.950 . S
H705 C716 0.950 . S
H706 C718 0.950 . S
H707 C719 0.950 . S
C708 H700 0.950 . S
C708 C709 1.386 1_545 S
C708 C710 1.391 . S
C709 C708 1.386 1_565 S
C709 C713 1.393 . S
C710 H702 0.950 . S
C710 C708 1.391 . S
C710 C711 1.400 1_545 S
C711 C710 1.400 1_565 S
C711 C712 1.398 . S
C711 C717 1.491 . S
C712 H703 0.950 . S
C712 C711 1.398 . S
C712 C713 1.391 . S
C713 H701 0.950 . S
C713 C709 1.393 . S
C713 C712 1.391 . S
C714 H704 0.950 . S
C714 C715 1.386 . S
C714 C716 1.391 . S
C715 C714 1.386 . S
C715 C719 1.393 1_565 S
C716 H705 0.950 . S
C716 C714 1.391 . S
C716 C717 1.400 . S
C717 C711 1.491 . S
C717 C716 1.400 . S
C717 C718 1.398 1_565 S
C718 H706 0.950 . S
C718 C717 1.398 1_545 S
C718 C719 1.391 . S
C719 H707 0.950 . S
C719 C715 1.393 1_545 S
C719 C718 1.391 . S
H720 C728 0.950 1_565 S
H721 C733 0.950 . S
H722 C730 0.950 1_565 S
H723 C732 0.950 . S
H724 C734 0.950 . S
H725 C736 0.950 . S
H726 C738 0.948 . S
H727 C739 0.950 . S
C728 H720 0.950 1_545 S
C728 C729 1.386 . S
C728 C730 1.391 . S
C729 C728 1.386 . S
C729 C733 1.393 . S
C730 H722 0.950 1_545 S
C730 C728 1.391 . S
C730 C731 1.400 . S
C731 C730 1.400 . S
C731 C732 1.398 . S
C731 C737 1.491 . S
C732 H723 0.950 . S
C732 C731 1.398 . S
C732 C733 1.391 . S
C733 H721 0.950 . S
C733 C729 1.393 . S
C733 C732 1.391 . S
C734 H724 0.950 . S
C734 C735 1.386 . S
C734 C736 1.391 . S
C735 C734 1.386 . S
C735 C739 1.393 1_545 S
C736 H725 0.950 . S
C736 C734 1.391 . S
C736 C737 1.400 . S
C737 C731 1.491 . S
C737 C736 1.400 . S
C737 C738 1.401 1_545 S
C738 H726 0.948 . S
C738 C737 1.401 1_565 S
C738 C739 1.390 . S
C739 H727 0.950 . S
C739 C735 1.393 1_565 S
C739 C738 1.390 . S
H740 C748 0.950 . S
H741 C753 0.950 . S
H742 C750 0.950 1_556 S
H743 C752 0.950 . S
H744 C754 0.950 . S
H745 C756 0.950 . S
H746 C758 0.950 . S
H747 C759 0.950 . S
C748 H740 0.950 . S
C748 C749 1.386 . S
C748 C750 1.391 . S
C749 C748 1.386 . S
C749 C753 1.393 . S
C750 H742 0.950 1_554 S
C750 C748 1.391 . S
C750 C751 1.400 . S
C751 C750 1.400 . S
C751 C752 1.398 . S
C751 C757 1.491 . S
C752 H743 0.950 . S
C752 C751 1.398 . S
C752 C753 1.391 . S
C753 H741 0.950 . S
C753 C749 1.393 . S
C753 C752 1.391 . S
C754 H744 0.950 . S
C754 C755 1.386 . S
C754 C756 1.391 . S
C755 C754 1.386 . S
C755 C759 1.393 1_554 S
C756 H745 0.950 . S
C756 C754 1.391 . S
C756 C757 1.400 . S
C757 C751 1.491 . S
C757 C756 1.400 . S
C757 C758 1.398 1_554 S
C758 H746 0.950 . S
C758 C757 1.398 1_556 S
C758 C759 1.391 . S
C759 H747 0.950 . S
C759 C755 1.393 1_556 S
C759 C758 1.391 . S
H760 C768 0.950 . S
H761 C773 0.950 . S
H762 C770 0.950 . S
H763 C772 0.950 . S
H764 C774 0.950 . S
H765 C776 0.950 . S
H766 C778 0.950 . S
H767 C779 0.950 . S
C768 H760 0.950 . S
C768 C769 1.386 . S
C768 C770 1.391 . S
C769 C768 1.386 . S
C769 C773 1.393 . S
C770 H762 0.950 . S
C770 C768 1.391 . S
C770 C771 1.400 . S
C771 C770 1.400 . S
C771 C772 1.398 . S
C771 C777 1.491 . S
C772 H763 0.950 . S
C772 C771 1.398 . S
C772 C773 1.391 . S
C773 H761 0.950 . S
C773 C769 1.393 . S
C773 C772 1.391 . S
C774 H764 0.950 . S
C774 C775 1.386 . S
C774 C776 1.391 . S
C775 C774 1.386 . S
C775 C779 1.393 . S
C776 H765 0.950 . S
C776 C774 1.391 . S
C776 C777 1.400 . S
C777 C771 1.491 . S
C777 C776 1.400 . S
C777 C778 1.398 . S
C778 H766 0.950 . S
C778 C777 1.398 . S
C778 C779 1.391 . S
C779 H767 0.950 . S
C779 C775 1.393 . S
C779 C778 1.391 . S
H780 C788 0.950 1_554 S
H781 C793 0.950 . S
H782 C790 0.950 . S
H783 C792 0.950 . S
H784 C794 0.950 . S
H785 C796 0.950 . S
H786 C798 0.950 . S
H787 C799 0.950 . S
C788 H780 0.950 1_556 S
C788 C789 1.386 . S
C788 C790 1.391 1_556 S
C789 C788 1.386 . S
C789 C793 1.393 . S
C790 H782 0.950 . S
C790 C788 1.391 1_554 S
C790 C791 1.400 1_554 S
C791 C790 1.400 1_556 S
C791 C792 1.398 . S
C791 C797 1.491 . S
C792 H783 0.950 . S
C792 C791 1.398 . S
C792 C793 1.391 . S
C793 H781 0.950 . S
C793 C789 1.393 . S
C793 C792 1.391 . S
C794 H784 0.950 . S
C794 C795 1.386 . S
C794 C796 1.391 . S
C795 C794 1.386 . S
C795 C799 1.393 1_556 S
C796 H785 0.950 . S
C796 C794 1.391 . S
C796 C797 1.400 . S
C797 C791 1.491 . S
C797 C796 1.400 . S
C797 C798 1.398 1_556 S
C798 H786 0.950 . S
C798 C797 1.398 1_554 S
C798 C799 1.391 . S
C799 H787 0.950 . S
C799 C795 1.393 1_554 S
C799 C798 1.391 . S
H800 C808 0.950 . S
H801 C813 0.950 . S
H802 C810 0.950 . S
H803 C812 0.950 . S
H804 C814 0.950 . S
H805 C816 0.950 . S
H806 C818 0.950 . S
H807 C819 0.950 . S
C808 H800 0.950 . S
C808 C809 1.386 . S
C808 C810 1.391 . S
C809 C808 1.386 . S
C809 C813 1.393 . S
C810 H802 0.950 . S
C810 C808 1.391 . S
C810 C811 1.400 . S
C811 C810 1.400 . S
C811 C812 1.398 . S
C811 C817 1.491 . S
C812 H803 0.950 . S
C812 C811 1.398 . S
C812 C813 1.391 . S
C813 H801 0.950 . S
C813 C809 1.393 . S
C813 C812 1.391 . S
C814 H804 0.950 . S
C814 C815 1.386 . S
C814 C816 1.391 . S
C815 C814 1.386 . S
C815 C819 1.393 . S
C816 H805 0.950 . S
C816 C814 1.391 . S
C816 C817 1.400 . S
C817 C811 1.491 . S
C817 C816 1.400 . S
C817 C818 1.398 . S
C818 H806 0.950 . S
C818 C817 1.398 . S
C818 C819 1.391 . S
C819 H807 0.950 . S
C819 C815 1.393 . S
C819 C818 1.391 . S
H820 C828 0.950 . S
H821 C833 0.950 . S
H822 C830 0.950 . S
H823 C832 0.950 . S
H824 C834 0.950 . S
H825 C836 0.950 . S
H826 C838 0.950 . S
H827 C839 0.950 . S
C828 H820 0.950 . S
C828 C829 1.386 . S
C828 C830 1.391 . S
C829 C828 1.386 . S
C829 C833 1.393 . S
C830 H822 0.950 . S
C830 C828 1.391 . S
C830 C831 1.400 . S
C831 C830 1.400 . S
C831 C832 1.398 . S
C831 C837 1.491 . S
C832 H823 0.950 . S
C832 C831 1.398 . S
C832 C833 1.391 . S
C833 H821 0.950 . S
C833 C829 1.393 . S
C833 C832 1.391 . S
C834 H824 0.950 . S
C834 C835 1.386 . S
C834 C836 1.391 . S
C835 C834 1.386 . S
C835 C839 1.393 . S
C836 H825 0.950 . S
C836 C834 1.391 . S
C836 C837 1.400 . S
C837 C831 1.491 . S
C837 C836 1.400 . S
C837 C838 1.398 . S
C838 H826 0.950 . S
C838 C837 1.398 . S
C838 C839 1.391 . S
C839 H827 0.950 . S
C839 C835 1.393 . S
C839 C838 1.391 . S
H840 C848 0.950 . S
H841 C853 0.950 . S
H842 C850 0.950 . S
H843 C852 0.950 . S
H844 C854 0.950 . S
H845 C856 0.950 . S
H846 C858 0.950 . S
H847 C859 0.950 . S
C848 H840 0.950 . S
C848 C849 1.386 . S
C848 C850 1.391 . S
C849 C848 1.386 . S
C849 C853 1.393 . S
C850 H842 0.950 . S
C850 C848 1.391 . S
C850 C851 1.400 . S
C851 C850 1.400 . S
C851 C852 1.398 . S
C851 C857 1.491 . S
C852 H843 0.950 . S
C852 C851 1.398 . S
C852 C853 1.391 . S
C853 H841 0.950 . S
C853 C849 1.393 . S
C853 C852 1.391 . S
C854 H844 0.950 . S
C854 C855 1.386 . S
C854 C856 1.391 . S
C855 C854 1.386 . S
C855 C859 1.393 . S
C856 H845 0.950 . S
C856 C854 1.391 . S
C856 C857 1.400 . S
C857 C851 1.491 . S
C857 C856 1.400 . S
C857 C858 1.398 . S
C858 H846 0.950 . S
C858 C857 1.398 . S
C858 C859 1.391 . S
C859 H847 0.950 . S
C859 C855 1.393 . S
C859 C858 1.391 . S
C389 C1 1.582 . S
C395 C306 1.578 . S
C409 C67 1.582 . S
C415 C330 1.566 . S
C435 C350 1.432 . S
C429 C97 1.403 . S
C449 C133 1.453 . S
C455 C373 1.459 . S
C475 C332 1.659 . S
C469 C25 1.684 . S
C495 C308 1.651 . S
C489 C37 1.677 . S
C515 C376 1.599 . S
C509 C103 1.618 . S
C535 C353 1.565 . S
C529 C109 1.621 . S
C549 C31 1.378 . S
C555 C378 1.353 . S
C575 C327 1.648 . S
C569 C73 1.617 . S
C589 C139 1.653 . S
C595 C305 1.659 . S
C609 C61 1.359 . S
C615 C355 1.334 . S
C635 C309 1.722 . S
C629 C175 1.704 . S
C649 C181 1.608 . S
C655 C331 1.657 . S
C669 C247 1.827 . S
C675 C351 1.835 . S
C689 C277 1.823 . S
C695 C374 1.831 . S
C709 C145 1.617 . S
C715 C329 1.592 . S
C735 C307 1.638 . S
C729 C211 1.557 . S
C755 C377 1.514 . S
C749 C217 1.541 . S
C775 C354 1.573 . S
C769 C283 1.602 . S
C789 C169 1.946 . S
C795 C375 1.895 . S
C815 C328 1.610 . S
C809 C241 1.603 . S
C835 C304 1.615 . S
C829 C253 1.602 . S
C849 C205 1.872 . S
C855 C352 1.896 . S
