# Generated by pormake.
# Topology ptr, (4,4)-cn, num edge types: 1
# Building blocks:
#     Node 0, Type 0, BuildingBlock: CEKHIL_clean_sbu_0, # of connection points: 4
#     Node 1, Type 0, BuildingBlock: CEKHIL_clean_sbu_0, # of connection points: 4
#     Node 2, Type 0, BuildingBlock: CEKHIL_clean_sbu_0, # of connection points: 4
#     Node 3, Type 0, BuildingBlock: CEKHIL_clean_sbu_0, # of connection points: 4
#     Node 4, Type 0, BuildingBlock: CEKHIL_clean_sbu_0, # of connection points: 4
#     Node 5, Type 0, BuildingBlock: CEKHIL_clean_sbu_0, # of connection points: 4
#     Node 6, Type 0, BuildingBlock: CEKHIL_clean_sbu_0, # of connection points: 4
#     Node 7, Type 0, BuildingBlock: CEKHIL_clean_sbu_0, # of connection points: 4
#     Node 8, Type 0, BuildingBlock: CEKHIL_clean_sbu_0, # of connection points: 4
#     Node 9, Type 0, BuildingBlock: CEKHIL_clean_sbu_0, # of connection points: 4
#     Node 10, Type 0, BuildingBlock: CEKHIL_clean_sbu_0, # of connection points: 4
#     Node 11, Type 0, BuildingBlock: CEKHIL_clean_sbu_0, # of connection points: 4
#     Node 12, Type 0, BuildingBlock: CEKHIL_clean_sbu_0, # of connection points: 4
#     Node 13, Type 0, BuildingBlock: CEKHIL_clean_sbu_0, # of connection points: 4
#     Node 14, Type 0, BuildingBlock: CEKHIL_clean_sbu_0, # of connection points: 4
#     Node 15, Type 0, BuildingBlock: CEKHIL_clean_sbu_0, # of connection points: 4
#     Node 16, Type 0, BuildingBlock: CEKHIL_clean_sbu_0, # of connection points: 4
#     Node 17, Type 0, BuildingBlock: CEKHIL_clean_sbu_0, # of connection points: 4
#     Node 18, Type 1, BuildingBlock: NAWXER_clean_linker_0, # of connection points: 4
#     Node 19, Type 1, BuildingBlock: NAWXER_clean_linker_0, # of connection points: 4
#     Node 20, Type 1, BuildingBlock: NAWXER_clean_linker_0, # of connection points: 4
#     Node 21, Type 1, BuildingBlock: NAWXER_clean_linker_0, # of connection points: 4
#     Node 22, Type 1, BuildingBlock: NAWXER_clean_linker_0, # of connection points: 4
#     Node 23, Type 1, BuildingBlock: NAWXER_clean_linker_0, # of connection points: 4
#     Node 24, Type 1, BuildingBlock: NAWXER_clean_linker_0, # of connection points: 4
#     Node 25, Type 1, BuildingBlock: NAWXER_clean_linker_0, # of connection points: 4
#     Node 26, Type 1, BuildingBlock: NAWXER_clean_linker_0, # of connection points: 4
#     Node 27, Type 1, BuildingBlock: NAWXER_clean_linker_0, # of connection points: 4
#     Node 28, Type 1, BuildingBlock: NAWXER_clean_linker_0, # of connection points: 4
#     Node 29, Type 1, BuildingBlock: NAWXER_clean_linker_0, # of connection points: 4
#     Node 30, Type 1, BuildingBlock: NAWXER_clean_linker_0, # of connection points: 4
#     Node 31, Type 1, BuildingBlock: NAWXER_clean_linker_0, # of connection points: 4
#     Node 32, Type 1, BuildingBlock: NAWXER_clean_linker_0, # of connection points: 4
#     Node 33, Type 1, BuildingBlock: NAWXER_clean_linker_0, # of connection points: 4
#     Node 34, Type 1, BuildingBlock: NAWXER_clean_linker_0, # of connection points: 4
#     Node 35, Type 1, BuildingBlock: NAWXER_clean_linker_0, # of connection points: 4
#     Edge 36, Type (0, 1), BuildingBlock: AJUNOK_clean_linker_0, # of connection points: 2
#     Edge 37, Type (0, 1), BuildingBlock: AJUNOK_clean_linker_0, # of connection points: 2
#     Edge 38, Type (0, 1), BuildingBlock: AJUNOK_clean_linker_0, # of connection points: 2
#     Edge 39, Type (0, 1), BuildingBlock: AJUNOK_clean_linker_0, # of connection points: 2
#     Edge 40, Type (0, 1), BuildingBlock: AJUNOK_clean_linker_0, # of connection points: 2
#     Edge 41, Type (0, 1), BuildingBlock: AJUNOK_clean_linker_0, # of connection points: 2
#     Edge 42, Type (0, 1), BuildingBlock: AJUNOK_clean_linker_0, # of connection points: 2
#     Edge 43, Type (0, 1), BuildingBlock: AJUNOK_clean_linker_0, # of connection points: 2
#     Edge 44, Type (0, 1), BuildingBlock: AJUNOK_clean_linker_0, # of connection points: 2
#     Edge 45, Type (0, 1), BuildingBlock: AJUNOK_clean_linker_0, # of connection points: 2
#     Edge 46, Type (0, 1), BuildingBlock: AJUNOK_clean_linker_0, # of connection points: 2
#     Edge 47, Type (0, 1), BuildingBlock: AJUNOK_clean_linker_0, # of connection points: 2
#     Edge 48, Type (0, 1), BuildingBlock: AJUNOK_clean_linker_0, # of connection points: 2
#     Edge 49, Type (0, 1), BuildingBlock: AJUNOK_clean_linker_0, # of connection points: 2
#     Edge 50, Type (0, 1), BuildingBlock: AJUNOK_clean_linker_0, # of connection points: 2
#     Edge 51, Type (0, 1), BuildingBlock: AJUNOK_clean_linker_0, # of connection points: 2
#     Edge 52, Type (0, 1), BuildingBlock: AJUNOK_clean_linker_0, # of connection points: 2
#     Edge 53, Type (0, 1), BuildingBlock: AJUNOK_clean_linker_0, # of connection points: 2
#     Edge 54, Type (0, 1), BuildingBlock: AJUNOK_clean_linker_0, # of connection points: 2
#     Edge 55, Type (0, 1), BuildingBlock: AJUNOK_clean_linker_0, # of connection points: 2
#     Edge 56, Type (0, 1), BuildingBlock: AJUNOK_clean_linker_0, # of connection points: 2
#     Edge 57, Type (0, 1), BuildingBlock: AJUNOK_clean_linker_0, # of connection points: 2
#     Edge 58, Type (0, 1), BuildingBlock: AJUNOK_clean_linker_0, # of connection points: 2
#     Edge 59, Type (0, 1), BuildingBlock: AJUNOK_clean_linker_0, # of connection points: 2
#     Edge 60, Type (0, 1), BuildingBlock: AJUNOK_clean_linker_0, # of connection points: 2
#     Edge 61, Type (0, 1), BuildingBlock: AJUNOK_clean_linker_0, # of connection points: 2
#     Edge 62, Type (0, 1), BuildingBlock: AJUNOK_clean_linker_0, # of connection points: 2
#     Edge 63, Type (0, 1), BuildingBlock: AJUNOK_clean_linker_0, # of connection points: 2
#     Edge 64, Type (0, 1), BuildingBlock: AJUNOK_clean_linker_0, # of connection points: 2
#     Edge 65, Type (0, 1), BuildingBlock: AJUNOK_clean_linker_0, # of connection points: 2
#     Edge 66, Type (0, 1), BuildingBlock: AJUNOK_clean_linker_0, # of connection points: 2
#     Edge 67, Type (0, 1), BuildingBlock: AJUNOK_clean_linker_0, # of connection points: 2
#     Edge 68, Type (0, 1), BuildingBlock: AJUNOK_clean_linker_0, # of connection points: 2
#     Edge 69, Type (0, 1), BuildingBlock: AJUNOK_clean_linker_0, # of connection points: 2
#     Edge 70, Type (0, 1), BuildingBlock: AJUNOK_clean_linker_0, # of connection points: 2
#     Edge 71, Type (0, 1), BuildingBlock: AJUNOK_clean_linker_0, # of connection points: 2
#     Edge 72, Type (0, 1), BuildingBlock: AJUNOK_clean_linker_0, # of connection points: 2
#     Edge 73, Type (0, 1), BuildingBlock: AJUNOK_clean_linker_0, # of connection points: 2
#     Edge 74, Type (0, 1), BuildingBlock: AJUNOK_clean_linker_0, # of connection points: 2
#     Edge 75, Type (0, 1), BuildingBlock: AJUNOK_clean_linker_0, # of connection points: 2
#     Edge 76, Type (0, 1), BuildingBlock: AJUNOK_clean_linker_0, # of connection points: 2
#     Edge 77, Type (0, 1), BuildingBlock: AJUNOK_clean_linker_0, # of connection points: 2
#     Edge 78, Type (0, 1), BuildingBlock: AJUNOK_clean_linker_0, # of connection points: 2
#     Edge 79, Type (0, 1), BuildingBlock: AJUNOK_clean_linker_0, # of connection points: 2
#     Edge 80, Type (0, 1), BuildingBlock: AJUNOK_clean_linker_0, # of connection points: 2
#     Edge 81, Type (0, 1), BuildingBlock: AJUNOK_clean_linker_0, # of connection points: 2
#     Edge 82, Type (0, 1), BuildingBlock: AJUNOK_clean_linker_0, # of connection points: 2
#     Edge 83, Type (0, 1), BuildingBlock: AJUNOK_clean_linker_0, # of connection points: 2
#     Edge 84, Type (0, 1), BuildingBlock: AJUNOK_clean_linker_0, # of connection points: 2
#     Edge 85, Type (0, 1), BuildingBlock: AJUNOK_clean_linker_0, # of connection points: 2
#     Edge 86, Type (0, 1), BuildingBlock: AJUNOK_clean_linker_0, # of connection points: 2
#     Edge 87, Type (0, 1), BuildingBlock: AJUNOK_clean_linker_0, # of connection points: 2
#     Edge 88, Type (0, 1), BuildingBlock: AJUNOK_clean_linker_0, # of connection points: 2
#     Edge 89, Type (0, 1), BuildingBlock: AJUNOK_clean_linker_0, # of connection points: 2
#     Edge 90, Type (0, 1), BuildingBlock: AJUNOK_clean_linker_0, # of connection points: 2
#     Edge 91, Type (0, 1), BuildingBlock: AJUNOK_clean_linker_0, # of connection points: 2
#     Edge 92, Type (0, 1), BuildingBlock: AJUNOK_clean_linker_0, # of connection points: 2
#     Edge 93, Type (0, 1), BuildingBlock: AJUNOK_clean_linker_0, # of connection points: 2
#     Edge 94, Type (0, 1), BuildingBlock: AJUNOK_clean_linker_0, # of connection points: 2
#     Edge 95, Type (0, 1), BuildingBlock: AJUNOK_clean_linker_0, # of connection points: 2
#     Edge 96, Type (0, 1), BuildingBlock: AJUNOK_clean_linker_0, # of connection points: 2
#     Edge 97, Type (0, 1), BuildingBlock: AJUNOK_clean_linker_0, # of connection points: 2
#     Edge 98, Type (0, 1), BuildingBlock: AJUNOK_clean_linker_0, # of connection points: 2
#     Edge 99, Type (0, 1), BuildingBlock: AJUNOK_clean_linker_0, # of connection points: 2
#     Edge 100, Type (0, 1), BuildingBlock: AJUNOK_clean_linker_0, # of connection points: 2
#     Edge 101, Type (0, 1), BuildingBlock: AJUNOK_clean_linker_0, # of connection points: 2
#     Edge 102, Type (0, 1), BuildingBlock: AJUNOK_clean_linker_0, # of connection points: 2
#     Edge 103, Type (0, 1), BuildingBlock: AJUNOK_clean_linker_0, # of connection points: 2
#     Edge 104, Type (0, 1), BuildingBlock: AJUNOK_clean_linker_0, # of connection points: 2
#     Edge 105, Type (0, 1), BuildingBlock: AJUNOK_clean_linker_0, # of connection points: 2
#     Edge 106, Type (0, 1), BuildingBlock: AJUNOK_clean_linker_0, # of connection points: 2
#     Edge 107, Type (0, 1), BuildingBlock: AJUNOK_clean_linker_0, # of connection points: 2
# Relax obj value: 0.032
# Max RMSD: 0.132
# Mean RMSD: 0.053
data_MOF--net-ptr--node1-CEKHIL_clean_sbu_0--node2-NAWXER_clean_linker_0--edge1-AJUNOK_clean_linker_0
_symmetry_space_group_name_H-M    P1
_symmetry_Int_Tables_number       1
_symmetry_cell_setting            triclinic
loop_
_symmetry_equiv_pos_as_xyz
'x, y, z'
_cell_length_a     68.303599
_cell_length_b     67.543612
_cell_length_c     50.342752
_cell_angle_alpha  90.89441
_cell_angle_beta   89.488426
_cell_angle_gamma 121.00973
loop_
_atom_site_label
_atom_site_type_symbol
_atom_site_fract_x
_atom_site_fract_y
_atom_site_fract_z
_atom_type_partial_charge
Co0 Co 0.0083 0.34691 0.01257 0.0
O1 O 0.01692 0.33183 0.03788 0.0
O2 O 0.04142 0.36339 0.01639 0.0
C3 C 0.98284 0.31429 0.99097 0.0
O4 O 0.00503 0.36647 0.98407 0.0
Co5 Co 0.95799 0.33555 0.01197 0.0
O6 O 0.9674 0.35147 0.97736 0.0
C7 C 0.98922 0.36569 0.05424 0.0
C8 C 0.03797 0.34762 0.03353 0.0
C9 C 0.9882 0.36497 0.97079 0.0
O10 O 0.0061 0.36628 0.04194 0.0
O11 O 0.96847 0.35299 0.04657 0.0
O12 O 0.00442 0.32437 0.98499 0.0
O13 O 0.97786 0.32313 0.01086 0.0
Co14 Co 0.65961 0.66107 0.00987 0.0
O15 O 0.68429 0.67596 0.98498 0.0
O16 O 0.67364 0.64264 0.00433 0.0
C17 C 0.66905 0.69297 0.03419 0.0
O18 O 0.63586 0.64127 0.03771 0.0
Co19 Co 0.62308 0.67526 0.01455 0.0
O20 O 0.61573 0.6581 0.04838 0.0
C21 C 0.62161 0.64631 0.96918 0.0
C22 C 0.68755 0.65888 0.98833 0.0
C23 C 0.62165 0.64337 0.05277 0.0
O24 O 0.63737 0.64404 0.97997 0.0
O25 O 0.61482 0.65938 0.9789 0.0
O26 O 0.67918 0.68146 0.03844 0.0
O27 O 0.65535 0.6861 0.01418 0.0
Co28 Co 0.34553 0.00103 0.00739 0.0
O29 O 0.33016 0.01126 0.9846 0.0
O30 O 0.36302 0.0346 0.00472 0.0
C31 C 0.31426 0.97598 0.03079 0.0
O32 O 0.36564 0.99626 0.03344 0.0
Co33 Co 0.33232 0.94977 0.00409 0.0
O34 O 0.35067 0.95798 0.0371 0.0
C35 C 0.3625 0.98179 0.96309 0.0
C36 C 0.34674 0.03216 0.98919 0.0
C37 C 0.36491 0.97869 0.04434 0.0
O38 O 0.36289 0.99853 0.9761 0.0
O39 O 0.35 0.96066 0.96998 0.0
O40 O 0.32535 0.99786 0.0369 0.0
O41 O 0.32093 0.97047 0.00932 0.0
Co42 Co 0.99803 0.65608 0.01314 0.0
O43 O 0.9896 0.67038 0.9864 0.0
O44 O 0.96499 0.64023 0.00996 0.0
C45 C 0.02451 0.68908 0.03374 0.0
O46 O 1.00066 0.63714 0.04291 0.0
Co47 Co 0.04755 0.66537 0.01426 0.0
O48 O 0.03802 0.65046 0.04938 0.0
C49 C 0.01572 0.63491 0.97278 0.0
C50 C 0.9685 0.65495 0.99142 0.0
C51 C 0.01715 0.63799 0.05625 0.0
O52 O 0.9992 0.63508 0.98505 0.0
O53 O 0.03658 0.64741 0.98009 0.0
O54 O 0.00294 0.68007 0.03924 0.0
O55 O 0.02887 0.6792 0.01439 0.0
Co56 Co 0.34826 0.34592 0.01676 0.0
O57 O 0.32496 0.32983 0.04313 0.0
O58 O 0.33199 0.36194 0.02352 0.0
C59 C 0.34069 0.31446 0.9926 0.0
O60 O 0.37003 0.36692 0.9881 0.0
Co61 Co 0.38802 0.33675 0.00832 0.0
O62 O 0.39184 0.35274 0.97417 0.0
C63 C 0.38892 0.36521 0.05421 0.0
C64 C 0.3199 0.34577 0.04051 0.0
C65 C 0.38419 0.36627 0.9716 0.0
O66 O 0.37104 0.3647 0.04535 0.0
O67 O 0.39723 0.35388 0.04327 0.0
O68 O 0.32864 0.32411 0.98915 0.0
O69 O 0.35534 0.32287 0.01168 0.0
Co70 Co 0.65861 0.00171 0.01379 0.0
O71 O 0.67337 0.99217 0.03854 0.0
O72 O 0.64118 0.9683 0.01763 0.0
C73 C 0.69037 0.0262 0.99069 0.0
O74 O 0.63907 0.0055 0.98593 0.0
Co75 Co 0.67159 0.05302 0.01342 0.0
O76 O 0.65438 0.04355 0.97949 0.0
C77 C 0.64158 0.02265 0.05576 0.0
C78 C 0.6569 0.97111 0.03435 0.0
C79 C 0.64034 0.02253 0.97308 0.0
O80 O 0.64057 0.00519 0.04372 0.0
O81 O 0.6544 0.04345 0.04792 0.0
O82 O 0.67957 0.00415 0.98552 0.0
O83 O 0.68308 0.03222 0.01119 0.0
Co84 Co 0.67716 0.68134 0.34479 0.0
O85 O 0.68661 0.66708 0.37035 0.0
O86 O 0.71 0.7 0.35029 0.0
C87 C 0.65432 0.6487 0.32145 0.0
O88 O 0.67344 0.70062 0.31638 0.0
Co89 Co 0.62589 0.6663 0.34004 0.0
O90 O 0.63615 0.68359 0.30637 0.0
C91 C 0.65425 0.69901 0.38258 0.0
C92 C 0.70726 0.68427 0.36706 0.0
C93 C 0.65701 0.69871 0.30193 0.0
O94 O 0.67208 0.69909 0.37395 0.0
O95 O 0.63427 0.68635 0.37268 0.0
O96 O 0.67618 0.66031 0.31686 0.0
O97 O 0.64747 0.65601 0.34114 0.0
Co98 Co 0.3266 0.99431 0.34369 0.0
O99 O 0.34978 0.00795 0.31673 0.0
O100 O 0.342 0.97709 0.33991 0.0
C101 C 0.33515 0.02745 0.36478 0.0
O102 O 0.30444 0.97568 0.37338 0.0
Co103 Co 0.28791 0.0055 0.34719 0.0
O104 O 0.28064 0.98876 0.38131 0.0
C105 C 0.28714 0.97472 0.30446 0.0
C106 C 0.35404 0.9917 0.32144 0.0
C107 C 0.28852 0.97587 0.38708 0.0
O108 O 0.3037 0.97427 0.31578 0.0
O109 O 0.27956 0.98755 0.31277 0.0
O110 O 0.3466 0.01744 0.36996 0.0
O111 O 0.32058 0.01831 0.34566 0.0
Co112 Co 0.01178 0.33469 0.34425 0.0
O113 O 0.99836 0.34428 0.31773 0.0
O114 O 0.02732 0.36821 0.34347 0.0
C115 C 0.97869 0.30703 0.36291 0.0
O116 O 0.02955 0.33068 0.37418 0.0
Co117 Co 0.0029 0.28482 0.34077 0.0
O118 O 0.01745 0.2928 0.37638 0.0
C119 C 0.03387 0.31911 0.30256 0.0
C120 C 0.01326 0.3654 0.32446 0.0
C121 C 0.02897 0.3134 0.38558 0.0
O122 O 0.03376 0.33504 0.31679 0.0
O123 O 0.02087 0.29755 0.30712 0.0
O124 O 0.98738 0.32865 0.36948 0.0
O125 O 0.98879 0.30333 0.34331 0.0
Co126 Co 0.66011 0.98728 0.3476 0.0
O127 O 0.65296 0.00237 0.32062 0.0
O128 O 0.62727 0.97141 0.34231 0.0
C129 C 0.68546 0.01981 0.3695 0.0
O130 O 0.66131 0.96728 0.37697 0.0
Co131 Co 0.70945 0.99656 0.3526 0.0
O132 O 0.69817 0.9809 0.38724 0.0
C133 C 0.6799 0.96758 0.30839 0.0
C134 C 0.6317 0.98657 0.324 0.0
C135 C 0.67688 0.96787 0.39183 0.0
O136 O 0.66276 0.96739 0.31939 0.0
O137 O 0.70028 0.97957 0.31749 0.0
O138 O 0.66373 0.01034 0.37432 0.0
O139 O 0.69081 0.01039 0.35057 0.0
Co140 Co 0.01245 0.67785 0.3461 0.0
O141 O 0.98785 0.66334 0.3712 0.0
O142 O 0.99842 0.69629 0.35091 0.0
C143 C 0.00342 0.64571 0.32264 0.0
O144 O 0.03615 0.69733 0.3181 0.0
Co145 Co 0.04954 0.66446 0.34283 0.0
O146 O 0.05774 0.68183 0.30909 0.0
C147 C 0.05081 0.69445 0.38677 0.0
C148 C 0.98485 0.68058 0.36763 0.0
C149 C 0.05134 0.69609 0.30404 0.0
O150 O 0.03455 0.69561 0.37569 0.0
O151 O 0.05814 0.68161 0.37776 0.0
O152 O 0.993 0.65686 0.31792 0.0
O153 O 0.0171 0.65302 0.34271 0.0
Co154 Co 0.32927 0.33988 0.3498 0.0
O155 O 0.3428 0.33095 0.37693 0.0
O156 O 0.31232 0.30646 0.35356 0.0
C157 C 0.36224 0.36482 0.32882 0.0
O158 O 0.31095 0.34305 0.31975 0.0
Co159 Co 0.34134 0.39094 0.34762 0.0
O160 O 0.32522 0.38094 0.31307 0.0
C161 C 0.30926 0.36027 0.38851 0.0
C162 C 0.3269 0.30975 0.37211 0.0
C163 C 0.31193 0.35979 0.30654 0.0
O164 O 0.3093 0.34296 0.37746 0.0
O165 O 0.3223 0.38107 0.3808 0.0
O166 O 0.35216 0.34277 0.32393 0.0
O167 O 0.35338 0.37063 0.34792 0.0
Co168 Co 0.34154 0.01483 0.67593 0.0
O169 O 0.3498 1.00047 0.70271 0.0
O170 O 0.37456 0.0309 0.67961 0.0
C171 C 0.31548 0.98186 0.65493 0.0
O172 O 0.33902 0.03387 0.64621 0.0
Co173 Co 0.29181 0.00497 0.67421 0.0
O174 O 0.30168 0.0205 0.63945 0.0
C175 C 0.32288 0.03463 0.71664 0.0
C176 C 0.3709 0.01614 0.69814 0.0
C177 C 0.3226 0.03308 0.63279 0.0
O178 O 0.33979 0.03544 0.70415 0.0
O179 O 0.30211 0.02168 0.70921 0.0
O180 O 0.33712 0.99109 0.64967 0.0
O181 O 0.31082 0.99153 0.67423 0.0
Co182 Co 0.99017 0.32424 0.67546 0.0
O183 O 0.01357 0.33901 0.64884 0.0
O184 O 0.00597 0.30755 0.67046 0.0
C185 C 0.99814 0.35677 0.69797 0.0
O186 O 0.96823 0.30462 0.70492 0.0
Co187 Co 0.95087 0.3344 0.68069 0.0
O188 O 0.94404 0.31698 0.71417 0.0
C189 C 0.95023 0.30473 0.63672 0.0
C190 C 0.0182 0.3229 0.65273 0.0
C191 C 0.95229 0.30427 0.71916 0.0
O192 O 0.96728 0.30453 0.64716 0.0
O193 O 0.94256 0.3172 0.64592 0.0
O194 O 0.01002 0.34704 0.70221 0.0
O195 O 0.98358 0.34778 0.67884 0.0
Co196 Co 0.67918 0.66736 0.67746 0.0
O197 O 0.66493 0.67768 0.65303 0.0
O198 O 0.69718 0.70089 0.67428 0.0
C199 C 0.64662 0.64287 0.69951 0.0
O200 O 0.69829 0.66248 0.70501 0.0
Co201 Co 0.66454 0.61538 0.67698 0.0
O202 O 0.6826 0.6242 0.71017 0.0
C203 C 0.69811 0.6468 0.6376 0.0
C204 C 0.6816 0.69853 0.65763 0.0
C205 C 0.69723 0.64501 0.71661 0.0
O206 O 0.6974 0.66405 0.64767 0.0
O207 O 0.68564 0.62602 0.6456 0.0
O208 O 0.65796 0.66475 0.70563 0.0
O209 O 0.6542 0.63706 0.67913 0.0
Co210 Co 0.32979 0.32412 0.68039 0.0
O211 O 0.32287 0.33921 0.65304 0.0
O212 O 0.29711 0.30816 0.67457 0.0
C213 C 0.3546 0.35637 0.70314 0.0
O214 O 0.33043 0.304 0.70996 0.0
Co215 Co 0.37905 0.33326 0.68673 0.0
O216 O 0.36702 0.31678 0.72076 0.0
C217 C 0.35021 0.30425 0.64214 0.0
C218 C 0.30158 0.32341 0.6564 0.0
C219 C 0.34565 0.30396 0.72489 0.0
O220 O 0.33296 0.30426 0.65254 0.0
O221 O 0.37045 0.3162 0.65167 0.0
O222 O 0.33274 0.34711 0.70675 0.0
O223 O 0.3605 0.34719 0.68446 0.0
Co224 Co 0.68 0.01087 0.68092 0.0
O225 O 0.65808 0.99781 0.7093 0.0
O226 O 0.66452 0.02796 0.68559 0.0
C227 C 0.67063 0.97714 0.66075 0.0
O228 O 0.70076 0.02879 0.64976 0.0
Co229 Co 0.71847 0.99935 0.67431 0.0
O230 O 0.72254 0.01377 0.63912 0.0
C231 C 0.7218 0.03182 0.71657 0.0
C232 C 0.65343 0.01383 0.70483 0.0
C233 C 0.71493 0.02704 0.63423 0.0
O234 O 0.70413 0.03156 0.70743 0.0
O235 O 0.7293 0.01925 0.70715 0.0
O236 O 0.65887 0.98691 0.65599 0.0
O237 O 0.68612 0.98699 0.67878 0.0
Co238 Co 0.99583 0.67145 0.68445 0.0
O239 O 0.01039 0.66237 0.71001 0.0
O240 O 0.97897 0.63795 0.68826 0.0
C241 C 0.0283 0.69632 0.66254 0.0
O242 O 0.97654 0.67482 0.65574 0.0
Co243 Co 0.00844 0.72275 0.68271 0.0
O244 O 0.99109 0.71273 0.64899 0.0
C245 C 0.97554 0.69168 0.72287 0.0
C246 C 0.99457 0.64114 0.70538 0.0
C247 C 0.97727 0.69161 0.64287 0.0
O248 O 0.97676 0.67451 0.71342 0.0
O249 O 0.98759 0.71233 0.7143 0.0
O250 O 0.01769 0.67433 0.65708 0.0
O251 O 0.02015 0.70216 0.68234 0.0
C252 C 0.25384 0.36418 0.12232 0.0
C253 C 0.24827 0.34687 0.10298 0.0
C254 C 0.23664 0.36445 0.13735 0.0
C255 C 0.21361 0.34742 0.13322 0.0
C256 C 0.22522 0.3301 0.09858 0.0
C257 C 0.20804 0.33046 0.11345 0.0
C258 C 0.19513 0.3477 0.14845 0.0
C259 C 0.23466 0.33206 0.2078 0.0
C260 C 0.24522 0.34913 0.22773 0.0
C261 C 0.2184 0.332 0.19092 0.0
C262 C 0.21246 0.34904 0.19367 0.0
C263 C 0.23905 0.36596 0.23057 0.0
C264 C 0.22273 0.36579 0.21388 0.0
C265 C 0.1949 0.34906 0.17651 0.0
C266 C 0.10205 0.32173 0.20724 0.0
C267 C 0.10371 0.34017 0.22258 0.0
C268 C 0.11999 0.32501 0.19069 0.0
C269 C 0.14022 0.34659 0.18968 0.0
C270 C 0.12391 0.36196 0.22091 0.0
C271 C 0.14212 0.36503 0.20492 0.0
C272 C 0.15998 0.34907 0.17464 0.0
C273 C 0.11986 0.36472 0.11705 0.0
C274 C 0.11005 0.34867 0.09602 0.0
C275 C 0.13603 0.36442 0.1337 0.0
C276 C 0.14267 0.34805 0.12966 0.0
C277 C 0.11714 0.33269 0.09159 0.0
C278 C 0.13336 0.33247 0.10815 0.0
C279 C 0.16031 0.34797 0.14664 0.0
H280 H 0.2715 0.37737 0.12596 0.0
H281 H 0.24132 0.37806 0.15203 0.0
H282 H 0.22048 0.31681 0.08345 0.0
H283 H 0.19037 0.31736 0.10967 0.0
H284 H 0.23917 0.31895 0.2051 0.0
H285 H 0.21033 0.31855 0.17588 0.0
H286 H 0.24678 0.3792 0.2459 0.0
H287 H 0.21827 0.37893 0.21661 0.0
H288 H 0.08728 0.30449 0.20873 0.0
H289 H 0.11844 0.31045 0.17948 0.0
H290 H 0.1258 0.37658 0.23229 0.0
H291 H 0.15774 0.38177 0.20452 0.0
H292 H 0.11479 0.37728 0.12083 0.0
H293 H 0.14355 0.37723 0.14948 0.0
H294 H 0.11014 0.32038 0.07524 0.0
H295 H 0.13848 0.31995 0.1043 0.0
N296 N 0.1778 0.34713 0.13464 0.0
N297 N 0.17729 0.34969 0.18849 0.0
C298 C 0.64189 0.88637 0.11373 0.0
C299 C 0.65804 0.89803 0.09357 0.0
C300 C 0.64361 0.87068 0.12996 0.0
C301 C 0.66158 0.86642 0.12647 0.0
C302 C 0.67575 0.89343 0.08979 0.0
C303 C 0.67737 0.87761 0.1059 0.0
C304 C 0.66372 0.85 0.1438 0.0
C305 C 0.68015 0.90966 0.19969 0.0
C306 C 0.66488 0.90402 0.22105 0.0
C307 C 0.67856 0.89236 0.18267 0.0
C308 C 0.66171 0.86914 0.18682 0.0
C309 C 0.64754 0.88091 0.22459 0.0
C310 C 0.64607 0.8636 0.20772 0.0
C311 C 0.66217 0.85045 0.17177 0.0
C312 C 0.68468 0.77936 0.20727 0.0
C313 C 0.66714 0.76754 0.22598 0.0
C314 C 0.68438 0.79559 0.19048 0.0
C315 C 0.66651 0.80018 0.19208 0.0
C316 C 0.64958 0.77254 0.22784 0.0
C317 C 0.64937 0.7888 0.21123 0.0
C318 C 0.66558 0.81709 0.17443 0.0
C319 C 0.6562 0.75829 0.12246 0.0
C320 C 0.67234 0.76469 0.10198 0.0
C321 C 0.65452 0.77513 0.13699 0.0
C322 C 0.66934 0.7987 0.13169 0.0
C323 C 0.68687 0.78818 0.09633 0.0
C324 C 0.68539 0.80505 0.11109 0.0
C325 C 0.66745 0.81676 0.14645 0.0
H326 H 0.62822 0.88975 0.11731 0.0
H327 H 0.63088 0.86189 0.14527 0.0
H328 H 0.68839 0.90213 0.07436 0.0
H329 H 0.69124 0.87447 0.10263 0.0
H330 H 0.69376 0.92736 0.19671 0.0
H331 H 0.69118 0.897 0.1671 0.0
H332 H 0.63584 0.87609 0.24122 0.0
H333 H 0.63313 0.84577 0.21146 0.0
H334 H 0.69835 0.77576 0.20534 0.0
H335 H 0.69807 0.8045 0.17622 0.0
H336 H 0.63596 0.76384 0.24224 0.0
H337 H 0.63555 0.7922 0.21305 0.0
H338 H 0.64441 0.74022 0.12666 0.0
H339 H 0.64136 0.76969 0.15202 0.0
H340 H 0.69929 0.79346 0.08043 0.0
H341 H 0.69679 0.82308 0.10641 0.0
N342 N 0.66653 0.83328 0.13224 0.0
N343 N 0.66294 0.83389 0.18592 0.0
C344 C 0.1096 0.75886 0.11388 0.0
C345 C 0.09536 0.76323 0.09822 0.0
C346 C 0.12723 0.77666 0.12873 0.0
C347 C 0.13095 0.79912 0.128 0.0
C348 C 0.09892 0.78562 0.0977 0.0
C349 C 0.11679 0.80352 0.11226 0.0
C350 C 0.14985 0.81807 0.14323 0.0
C351 C 0.09637 0.77255 0.20384 0.0
C352 C 0.1045 0.76325 0.22257 0.0
C353 C 0.11157 0.78988 0.18662 0.0
C354 C 0.1351 0.79804 0.18774 0.0
C355 C 0.128 0.7714 0.22351 0.0
C356 C 0.14313 0.78868 0.2064 0.0
C357 C 0.15184 0.81732 0.17102 0.0
C358 C 0.22585 0.91335 0.19916 0.0
C359 C 0.23607 0.90844 0.22013 0.0
C360 C 0.21033 0.89568 0.18227 0.0
C361 C 0.20484 0.87281 0.18603 0.0
C362 C 0.23079 0.88562 0.22362 0.0
C363 C 0.21525 0.86796 0.20679 0.0
C364 C 0.18684 0.8536 0.17002 0.0
C365 C 0.24485 0.89606 0.1156 0.0
C366 C 0.2399 0.90579 0.09418 0.0
C367 C 0.22722 0.87893 0.13081 0.0
C368 C 0.20428 0.87167 0.12542 0.0
C369 C 0.217 0.89786 0.08794 0.0
C370 C 0.19933 0.88096 0.10348 0.0
C371 C 0.18549 0.85387 0.14202 0.0
H372 H 0.10713 0.74169 0.11448 0.0
H373 H 0.13814 0.77298 0.14053 0.0
H374 H 0.08819 0.78933 0.08557 0.0
H375 H 0.11948 0.82077 0.1114 0.0
H376 H 0.07831 0.76645 0.20256 0.0
H377 H 0.10499 0.79719 0.17284 0.0
H378 H 0.13476 0.76469 0.23789 0.0
H379 H 0.1612 0.79483 0.20782 0.0
H380 H 0.22953 0.9308 0.19619 0.0
H381 H 0.2021 0.89978 0.16681 0.0
H382 H 0.23802 0.88127 0.24 0.0
H383 H 0.21105 0.8504 0.21024 0.0
H384 H 0.26238 0.90155 0.12038 0.0
H385 H 0.2316 0.87133 0.14674 0.0
H386 H 0.21283 0.90502 0.07133 0.0
H387 H 0.1818 0.8754 0.09859 0.0
N388 N 0.1668 0.83624 0.12972 0.0
N389 N 0.17018 0.83519 0.18329 0.0
C390 C 0.35167 0.10993 0.81983 0.0
C391 C 0.33373 0.09862 0.80142 0.0
C392 C 0.35266 0.12694 0.83701 0.0
C393 C 0.33558 0.13265 0.83619 0.0
C394 C 0.31667 0.10433 0.80083 0.0
C395 C 0.31764 0.12121 0.81795 0.0
C396 C 0.33692 0.15166 0.85258 0.0
C397 C 0.32819 0.09713 0.90949 0.0
C398 C 0.34491 0.10435 0.92943 0.0
C399 C 0.3269 0.11322 0.89365 0.0
C400 C 0.34281 0.13697 0.89663 0.0
C401 C 0.36076 0.12811 0.93255 0.0
C402 C 0.35964 0.14425 0.91641 0.0
C403 C 0.34122 0.1543 0.88031 0.0
C404 C 0.32128 0.22877 0.90896 0.0
C405 C 0.33996 0.24346 0.92524 0.0
C406 C 0.32125 0.21108 0.89422 0.0
C407 C 0.33987 0.20772 0.8955 0.0
C408 C 0.3585 0.23991 0.92666 0.0
C409 C 0.35838 0.22209 0.91203 0.0
C410 C 0.33974 0.1889 0.88002 0.0
C411 C 0.35281 0.24168 0.81684 0.0
C412 C 0.33271 0.23606 0.803 0.0
C413 C 0.35345 0.22568 0.83354 0.0
C414 C 0.33415 0.20359 0.83646 0.0
C415 C 0.31312 0.21413 0.80687 0.0
C416 C 0.31397 0.1979 0.82305 0.0
C417 C 0.33548 0.18618 0.85251 0.0
H418 H 0.36494 0.1057 0.82085 0.0
H419 H 0.36695 0.13589 0.85053 0.0
H420 H 0.30279 0.09609 0.78666 0.0
H421 H 0.3044 0.12548 0.81678 0.0
H422 H 0.316 0.07895 0.9061 0.0
H423 H 0.31322 0.10702 0.87927 0.0
H424 H 0.37379 0.13426 0.94778 0.0
H425 H 0.37196 0.16246 0.9194 0.0
H426 H 0.30645 0.2306 0.90809 0.0
H427 H 0.30648 0.19976 0.88215 0.0
H428 H 0.37312 0.25096 0.93906 0.0
H429 H 0.37284 0.21968 0.9134 0.0
H430 H 0.36832 0.25824 0.81421 0.0
H431 H 0.36925 0.23033 0.84359 0.0
H432 H 0.29711 0.2094 0.79736 0.0
H433 H 0.29885 0.18095 0.82524 0.0
N434 N 0.33417 0.16768 0.83987 0.0
N435 N 0.34259 0.17297 0.89292 0.0
C436 C 0.91637 0.22559 0.91122 0.0
C437 C 0.91132 0.23854 0.92911 0.0
C438 C 0.89906 0.20776 0.89605 0.0
C439 C 0.87641 0.20256 0.89857 0.0
C440 C 0.88862 0.2334 0.93131 0.0
C441 C 0.87128 0.21534 0.91647 0.0
C442 C 0.85803 0.18374 0.88268 0.0
C443 C 0.89749 0.24175 0.82531 0.0
C444 C 0.90633 0.23645 0.80278 0.0
C445 C 0.88277 0.2244 0.84268 0.0
C446 C 0.8769 0.20138 0.83824 0.0
C447 C 0.90069 0.21349 0.7985 0.0
C448 C 0.88612 0.19614 0.81605 0.0
C449 C 0.85921 0.18241 0.8547 0.0
C450 C 0.77246 0.11198 0.81171 0.0
C451 C 0.77533 0.09376 0.80294 0.0
C452 C 0.78784 0.12849 0.82978 0.0
C453 C 0.80639 0.12714 0.83905 0.0
C454 C 0.79352 0.09207 0.8132 0.0
C455 C 0.80908 0.10881 0.83084 0.0
C456 C 0.82426 0.14618 0.85493 0.0
C457 C 0.78015 0.09015 0.91271 0.0
C458 C 0.76576 0.0956 0.92711 0.0
C459 C 0.79864 0.10711 0.89827 0.0
C460 C 0.80319 0.12988 0.89804 0.0
C461 C 0.77062 0.11854 0.92717 0.0
C462 C 0.78924 0.13554 0.91288 0.0
C463 C 0.82263 0.14785 0.88265 0.0
H464 H 0.93366 0.22905 0.9092 0.0
H465 H 0.90331 0.19789 0.88254 0.0
H466 H 0.88427 0.24348 0.94433 0.0
H467 H 0.85391 0.21165 0.91854 0.0
H468 H 0.90142 0.25926 0.82907 0.0
H469 H 0.87528 0.22892 0.85894 0.0
H470 H 0.90671 0.20871 0.78098 0.0
H471 H 0.88157 0.17849 0.81189 0.0
H472 H 0.75901 0.11411 0.80371 0.0
H473 H 0.7858 0.14283 0.83569 0.0
H474 H 0.79608 0.07815 0.80697 0.0
H475 H 0.82349 0.10771 0.83768 0.0
H476 H 0.77736 0.07286 0.91295 0.0
H477 H 0.80959 0.10252 0.88759 0.0
H478 H 0.75988 0.1233 0.93809 0.0
H479 H 0.79257 0.15306 0.9131 0.0
N480 N 0.83962 0.16659 0.89561 0.0
N481 N 0.8423 0.16352 0.84194 0.0
C482 C 0.76948 0.67327 0.90635 0.0
C483 C 0.75934 0.65736 0.92706 0.0
C484 C 0.78667 0.67371 0.89076 0.0
C485 C 0.79353 0.65761 0.89472 0.0
C486 C 0.76625 0.64131 0.93116 0.0
C487 C 0.78323 0.64149 0.91519 0.0
C488 C 0.81243 0.65857 0.87884 0.0
C489 C 0.758 0.64296 0.81831 0.0
C490 C 0.7641 0.65919 0.79799 0.0
C491 C 0.77443 0.64449 0.83595 0.0
C492 C 0.7973 0.66257 0.83405 0.0
C493 C 0.78682 0.6776 0.79645 0.0
C494 C 0.80329 0.67917 0.81419 0.0
C495 C 0.81524 0.66318 0.85124 0.0
C496 C 0.89305 0.65505 0.81426 0.0
C497 C 0.90723 0.67679 0.80276 0.0
C498 C 0.87545 0.65157 0.83166 0.0
C499 C 0.87171 0.66972 0.83763 0.0
C500 C 0.90424 0.69523 0.81025 0.0
C501 C 0.88639 0.69162 0.82711 0.0
C502 C 0.85134 0.66558 0.85265 0.0
C503 C 0.90349 0.67598 0.9143 0.0
C504 C 0.89756 0.65564 0.92808 0.0
C505 C 0.88753 0.67723 0.89832 0.0
C506 C 0.86522 0.65822 0.89585 0.0
C507 C 0.87519 0.63657 0.9254 0.0
C508 C 0.85911 0.63797 0.90972 0.0
C509 C 0.84802 0.65976 0.87974 0.0
H510 H 0.76422 0.68554 0.90224 0.0
H511 H 0.7948 0.68692 0.87583 0.0
H512 H 0.75882 0.6289 0.94702 0.0
H513 H 0.7884 0.62907 0.91892 0.0
H514 H 0.74057 0.62869 0.82012 0.0
H515 H 0.76933 0.6311 0.85058 0.0
H516 H 0.79203 0.69025 0.78089 0.0
H517 H 0.82082 0.69319 0.81215 0.0
H518 H 0.89495 0.64052 0.80896 0.0
H519 H 0.86416 0.6345 0.83954 0.0
H520 H 0.91538 0.7124 0.80256 0.0
H521 H 0.88384 0.70586 0.83167 0.0
H522 H 0.92045 0.69109 0.91611 0.0
H523 H 0.89251 0.69321 0.88826 0.0
H524 H 0.87015 0.62043 0.9351 0.0
H525 H 0.84197 0.62311 0.9081 0.0
N526 N 0.82877 0.65665 0.89188 0.0
N527 N 0.83479 0.66687 0.83939 0.0
C528 C 0.76995 0.66733 0.45207 0.0
C529 C 0.77745 0.68447 0.43255 0.0
C530 C 0.78557 0.66549 0.46803 0.0
C531 C 0.80916 0.68125 0.46562 0.0
C532 C 0.80108 0.69984 0.42963 0.0
C533 C 0.8167 0.69832 0.44605 0.0
C534 C 0.82623 0.67918 0.48172 0.0
C535 C 0.78211 0.68449 0.54801 0.0
C536 C 0.76825 0.66287 0.55994 0.0
C537 C 0.79971 0.68801 0.53058 0.0
C538 C 0.80375 0.67 0.52501 0.0
C539 C 0.77172 0.64463 0.55309 0.0
C540 C 0.78958 0.6483 0.53625 0.0
C541 C 0.82358 0.67384 0.50905 0.0
C542 C 0.91691 0.69343 0.54045 0.0
C543 C 0.91059 0.67732 0.561 0.0
C544 C 0.90047 0.6927 0.52342 0.0
C545 C 0.87733 0.6755 0.52603 0.0
C546 C 0.88742 0.6601 0.56362 0.0
C547 C 0.87101 0.65921 0.54633 0.0
C548 C 0.85942 0.67551 0.50932 0.0
C549 C 0.90493 0.6663 0.45239 0.0
C550 C 0.91493 0.68277 0.43219 0.0
C551 C 0.88763 0.66525 0.46841 0.0
C552 C 0.88041 0.68115 0.4652 0.0
C553 C 0.90719 0.69821 0.42843 0.0
C554 C 0.89017 0.69744 0.44483 0.0
C555 C 0.8617 0.67992 0.48169 0.0
H556 H 0.75191 0.65509 0.45486 0.0
H557 H 0.77905 0.65128 0.4817 0.0
H558 H 0.80762 0.71274 0.41425 0.0
H559 H 0.83478 0.7104 0.44324 0.0
H560 H 0.77984 0.69887 0.55284 0.0
H561 H 0.8106 0.70493 0.52214 0.0
H562 H 0.76083 0.62753 0.56107 0.0
H563 H 0.79236 0.63416 0.532 0.0
H564 H 0.93457 0.70697 0.53791 0.0
H565 H 0.90587 0.70602 0.50864 0.0
H566 H 0.88182 0.64783 0.57964 0.0
H567 H 0.85325 0.64598 0.54913 0.0
H568 H 0.9104 0.65409 0.45579 0.0
H569 H 0.87978 0.65182 0.48311 0.0
H570 H 0.91394 0.71059 0.41251 0.0
H571 H 0.88456 0.70956 0.4415 0.0
N572 N 0.84519 0.6819 0.46919 0.0
N573 N 0.84025 0.67232 0.5217 0.0
C574 C 0.31247 0.22573 0.45255 0.0
C575 C 0.32625 0.23543 0.43005 0.0
C576 C 0.31407 0.2093 0.46744 0.0
C577 C 0.33005 0.2028 0.46066 0.0
C578 C 0.34132 0.22808 0.42233 0.0
C579 C 0.34323 0.21192 0.43752 0.0
C580 C 0.33267 0.18612 0.47711 0.0
C581 C 0.35147 0.24567 0.53439 0.0
C582 C 0.33641 0.24 0.55598 0.0
C583 C 0.34969 0.22838 0.51715 0.0
C584 C 0.33284 0.20517 0.52132 0.0
C585 C 0.31928 0.21684 0.55976 0.0
C586 C 0.31761 0.19957 0.54267 0.0
C587 C 0.33239 0.18647 0.50522 0.0
C588 C 0.35274 0.11322 0.53719 0.0
C589 C 0.33473 0.10082 0.55514 0.0
C590 C 0.3529 0.13003 0.52099 0.0
C591 C 0.33513 0.13477 0.52275 0.0
C592 C 0.31728 0.10595 0.55717 0.0
C593 C 0.31758 0.12287 0.54131 0.0
C594 C 0.33469 0.1524 0.50597 0.0
C595 C 0.32352 0.0939 0.45213 0.0
C596 C 0.33869 0.10042 0.43061 0.0
C597 C 0.32235 0.11066 0.4675 0.0
C598 C 0.33688 0.13427 0.46213 0.0
C599 C 0.35291 0.12393 0.42488 0.0
C600 C 0.35203 0.14072 0.44053 0.0
C601 C 0.33566 0.15232 0.4779 0.0
H602 H 0.30051 0.23093 0.45865 0.0
H603 H 0.30282 0.20178 0.48433 0.0
H604 H 0.3521 0.23534 0.40499 0.0
H605 H 0.35539 0.20696 0.43151 0.0
H606 H 0.36492 0.2634 0.53122 0.0
H607 H 0.36194 0.23305 0.50114 0.0
H608 H 0.30776 0.21198 0.57657 0.0
H609 H 0.30468 0.18173 0.54642 0.0
H610 H 0.36644 0.10963 0.53542 0.0
H611 H 0.36684 0.13932 0.50714 0.0
H612 H 0.30337 0.09683 0.57113 0.0
H613 H 0.30385 0.1264 0.54322 0.0
H614 H 0.31211 0.07581 0.45654 0.0
H615 H 0.30977 0.10508 0.48324 0.0
H616 H 0.36465 0.12927 0.40824 0.0
H617 H 0.3632 0.15878 0.43577 0.0
N618 N 0.33461 0.16919 0.46459 0.0
N619 N 0.33309 0.16947 0.51844 0.0
C620 C 0.76722 0.08939 0.45144 0.0
C621 C 0.75665 0.09506 0.43172 0.0
C622 C 0.7858 0.10681 0.46556 0.0
C623 C 0.79363 0.13022 0.46081 0.0
C624 C 0.76472 0.11837 0.42646 0.0
C625 C 0.78304 0.13581 0.44094 0.0
C626 C 0.81338 0.14893 0.47556 0.0
C627 C 0.7601 0.10722 0.53812 0.0
C628 C 0.76701 0.09508 0.55416 0.0
C629 C 0.77588 0.1247 0.52142 0.0
C630 C 0.79879 0.13038 0.5208 0.0
C631 C 0.78998 0.10107 0.55375 0.0
C632 C 0.80575 0.11867 0.53741 0.0
C633 C 0.81587 0.14873 0.5034 0.0
C634 C 0.89265 0.24394 0.52851 0.0
C635 C 0.90125 0.23881 0.55094 0.0
C636 C 0.87728 0.22628 0.51153 0.0
C637 C 0.87066 0.2032 0.51629 0.0
C638 C 0.8954 0.21589 0.55508 0.0
C639 C 0.88016 0.19823 0.53797 0.0
C640 C 0.85179 0.18402 0.50103 0.0
C641 C 0.90781 0.22189 0.44184 0.0
C642 C 0.90345 0.23507 0.42422 0.0
C643 C 0.89029 0.20527 0.45768 0.0
C644 C 0.86806 0.20142 0.45605 0.0
C645 C 0.88122 0.23119 0.42249 0.0
C646 C 0.86358 0.21426 0.43803 0.0
C647 C 0.8496 0.18404 0.47316 0.0
H648 H 0.76153 0.07149 0.45536 0.0
H649 H 0.79425 0.10191 0.47986 0.0
H650 H 0.75688 0.12305 0.4111 0.0
H651 H 0.78894 0.1537 0.43663 0.0
H652 H 0.74249 0.10299 0.5383 0.0
H653 H 0.77024 0.13381 0.50907 0.0
H654 H 0.79577 0.0922 0.56629 0.0
H655 H 0.82336 0.12293 0.53742 0.0
H656 H 0.89711 0.26152 0.5247 0.0
H657 H 0.86977 0.23063 0.4955 0.0
H658 H 0.90171 0.21145 0.57229 0.0
H659 H 0.87519 0.18056 0.54218 0.0
H660 H 0.92485 0.22466 0.44357 0.0
H661 H 0.89409 0.19537 0.47121 0.0
H662 H 0.87748 0.24113 0.40896 0.0
H663 H 0.84654 0.21151 0.43641 0.0
N664 N 0.83036 0.16663 0.4615 0.0
N665 N 0.83496 0.16624 0.51497 0.0
C666 C 0.98762 0.55817 0.15191 0.0
C667 C 0.00571 0.57067 0.13409 0.0
C668 C 0.98764 0.54161 0.1684 0.0
C669 C 0.00567 0.53724 0.16711 0.0
C670 C 0.02337 0.56582 0.13242 0.0
C671 C 0.02325 0.54915 0.1486 0.0
C672 C 0.00648 0.52024 0.18467 0.0
C673 C 0.01639 0.57955 0.23595 0.0
C674 C 1.00056 0.57326 0.25675 0.0
C675 C 0.01811 0.56264 0.22162 0.0
C676 C 0.00358 0.53913 0.22742 0.0
C677 C 0.98642 0.54985 0.26299 0.0
C678 C 0.98788 0.53291 0.24839 0.0
C679 C 0.00529 0.52096 0.21267 0.0
C680 C 0.02859 0.44857 0.24304 0.0
C681 C 0.01464 0.43961 0.26556 0.0
C682 C 0.02724 0.46462 0.22713 0.0
C683 C 0.01127 0.47137 0.23284 0.0
C684 C 0.99953 0.44718 0.27215 0.0
C685 C 0.99784 0.46291 0.25592 0.0
C686 C 0.00882 0.48758 0.21533 0.0
C687 C 0.99121 0.42675 0.16098 0.0
C688 C 0.00575 0.43195 0.13893 0.0
C689 C 0.99286 0.44443 0.17736 0.0
C690 C 0.0092 0.46759 0.17207 0.0
C691 C 0.02238 0.45509 0.13399 0.0
C692 C 0.02402 0.47275 0.15037 0.0
C693 C 0.00939 0.48658 0.18724 0.0
H694 H 0.97376 0.56153 0.15341 0.0
H695 H 0.97366 0.53231 0.18222 0.0
H696 H 0.03734 0.575 0.11855 0.0
H697 H 0.03719 0.54591 0.14705 0.0
H698 H 0.02788 0.59757 0.23129 0.0
H699 H 0.03106 0.56801 0.20634 0.0
H700 H 0.97427 0.5447 0.27918 0.0
H701 H 0.97673 0.51493 0.25347 0.0
H702 H 0.04051 0.4431 0.23776 0.0
H703 H 0.03864 0.47162 0.21027 0.0
H704 H 0.98858 0.44043 0.28944 0.0
H705 H 0.98565 0.46806 0.26109 0.0
H706 H 0.97814 0.40905 0.16508 0.0
H707 H 0.98084 0.44005 0.19358 0.0
H708 H 0.03342 0.45963 0.11677 0.0
H709 H 0.03654 0.49052 0.14573 0.0
N710 N 0.00851 0.5031 0.17312 0.0
N711 N 0.00649 0.50461 0.22688 0.0
C712 C 0.44807 0.42598 0.16177 0.0
C713 C 0.43862 0.43071 0.13984 0.0
C714 C 0.46341 0.44387 0.17852 0.0
C715 C 0.46919 0.46674 0.17397 0.0
C716 C 0.44365 0.4534 0.13594 0.0
C717 C 0.4589 0.47128 0.15279 0.0
C718 C 0.48798 0.4862 0.18893 0.0
C719 C 0.43272 0.44788 0.24828 0.0
C720 C 0.43732 0.43475 0.2657 0.0
C721 C 0.45009 0.46469 0.2325 0.0
C722 C 0.47243 0.46884 0.23402 0.0
C723 C 0.45973 0.43911 0.26753 0.0
C724 C 0.47722 0.45621 0.25199 0.0
C725 C 0.49063 0.48624 0.2167 0.0
C726 C 0.5734 0.58084 0.23769 0.0
C727 C 0.58439 0.57493 0.25664 0.0
C728 C 0.55449 0.5636 0.22384 0.0
C729 C 0.54668 0.54014 0.22813 0.0
C730 C 0.57627 0.55155 0.26151 0.0
C731 C 0.55761 0.5343 0.2473 0.0
C732 C 0.52658 0.52157 0.21374 0.0
C733 C 0.57776 0.56388 0.14924 0.0
C734 C 0.56993 0.57547 0.13364 0.0
C735 C 0.56281 0.54651 0.16661 0.0
C736 C 0.53982 0.54044 0.16838 0.0
C737 C 0.5469 0.56914 0.13527 0.0
C738 C 0.53196 0.55169 0.15232 0.0
C739 C 0.52344 0.52187 0.18604 0.0
H740 H 0.44425 0.40857 0.16536 0.0
H741 H 0.47154 0.4399 0.1942 0.0
H742 H 0.43667 0.4575 0.1191 0.0
H743 H 0.46324 0.48879 0.14876 0.0
H744 H 0.41559 0.44488 0.24661 0.0
H745 H 0.44607 0.47448 0.21906 0.0
H746 H 0.46371 0.42937 0.28108 0.0
H747 H 0.49436 0.45924 0.25359 0.0
H748 H 0.57903 0.59879 0.23418 0.0
H749 H 0.54578 0.56867 0.21014 0.0
H750 H 0.58437 0.54666 0.27632 0.0
H751 H 0.55173 0.51636 0.25126 0.0
H752 H 0.59543 0.56839 0.14814 0.0
H753 H 0.56911 0.53774 0.1785 0.0
H754 H 0.54038 0.57757 0.12308 0.0
H755 H 0.51425 0.54709 0.15316 0.0
N756 N 0.50432 0.50416 0.17479 0.0
N757 N 0.50998 0.50374 0.22804 0.0
C758 C 0.43784 0.00761 0.24163 0.0
C759 C 0.42369 0.98827 0.25732 0.0
C760 C 0.45492 0.0081 0.22569 0.0
C761 C 0.45838 0.98936 0.22526 0.0
C762 C 0.42706 0.96938 0.25656 0.0
C763 C 0.4445 0.9701 0.241 0.0
C764 C 0.47717 0.99039 0.20937 0.0
C765 C 0.42312 0.97709 0.14932 0.0
C766 C 0.4298 0.99284 0.12838 0.0
C767 C 0.43922 0.97836 0.16729 0.0
C768 C 0.46235 0.99578 0.16518 0.0
C769 C 0.45275 0.01074 0.12676 0.0
C770 C 0.46888 0.01211 0.14488 0.0
C771 C 0.48005 0.99549 0.18197 0.0
C772 C 0.56192 0.98834 0.15183 0.0
C773 C 0.57319 0.00771 0.13536 0.0
C774 C 0.54347 0.98489 0.16765 0.0
C775 C 0.53601 0.0008 0.16731 0.0
C776 C 0.56554 0.02344 0.1349 0.0
C777 C 0.54713 0.01998 0.15064 0.0
C778 C 0.51582 0.99702 0.18281 0.0
C779 C 0.56863 0.00743 0.2432 0.0
C780 C 0.5625 0.98757 0.25806 0.0
C781 C 0.5525 0.00863 0.22748 0.0
C782 C 0.52986 0.99005 0.22639 0.0
C783 C 0.53966 0.96922 0.25745 0.0
C784 C 0.52347 0.97051 0.24187 0.0
C785 C 0.5126 0.99132 0.21004 0.0
H786 H 0.43592 0.02256 0.24194 0.0
H787 H 0.46572 0.02332 0.21406 0.0
H788 H 0.41611 0.95394 0.26775 0.0
H789 H 0.44693 0.95546 0.24092 0.0
H790 H 0.4055 0.96324 0.15123 0.0
H791 H 0.43364 0.96502 0.18206 0.0
H792 H 0.4584 0.02306 0.11076 0.0
H793 H 0.4866 0.0256 0.14261 0.0
H794 H 0.56733 0.97583 0.15236 0.0
H795 H 0.53477 0.96958 0.17973 0.0
H796 H 0.57348 0.03819 0.12188 0.0
H797 H 0.5415 0.03231 0.14972 0.0
H798 H 0.58587 0.0222 0.24393 0.0
H799 H 0.55769 0.02419 0.21639 0.0
H800 H 0.53438 0.95373 0.26873 0.0
H801 H 0.50601 0.9561 0.2416 0.0
N802 N 0.49341 0.98825 0.22226 0.0
N803 N 0.49939 0.99881 0.16989 0.0
C804 C 0.58759 0.03095 0.78978 0.0
C805 C 0.58308 0.01746 0.7666 0.0
C806 C 0.56966 0.03011 0.80439 0.0
C807 C 0.54684 0.0152 0.79653 0.0
C808 C 0.56041 0.00331 0.75811 0.0
C809 C 0.54247 0.00215 0.77297 0.0
C810 C 0.52741 0.01383 0.81168 0.0
C811 C 0.56562 0.99619 0.87164 0.0
C812 C 0.57453 0.01219 0.89287 0.0
C813 C 0.54977 0.99621 0.85409 0.0
C814 C 0.54266 0.01229 0.8575 0.0
C815 C 0.56709 0.02796 0.89637 0.0
C816 C 0.55123 0.02789 0.87903 0.0
C817 C 0.5256 0.01261 0.83974 0.0
C818 C 0.42927 0.98873 0.86059 0.0
C819 C 0.43271 0.00212 0.88367 0.0
C820 C 0.44787 0.99217 0.84511 0.0
C821 C 0.47026 0.00913 0.85239 0.0
C822 C 0.4551 0.01911 0.89085 0.0
C823 C 0.47368 0.0225 0.87543 0.0
C824 C 0.49028 0.01192 0.83737 0.0
C825 C 0.4516 0.03167 0.78363 0.0
C826 C 0.44379 0.01866 0.75997 0.0
C827 C 0.46774 0.03055 0.79939 0.0
C828 C 0.47589 0.01585 0.79222 0.0
C829 C 0.45282 0.00497 0.75198 0.0
C830 C 0.46872 0.00356 0.76799 0.0
C831 C 0.49232 0.01371 0.80939 0.0
H832 H 0.605 0.04227 0.79643 0.0
H833 H 0.57371 0.04125 0.8217 0.0
H834 H 0.55657 0.9928 0.74025 0.0
H835 H 0.5251 0.9908 0.76618 0.0
H836 H 0.57116 0.98392 0.86841 0.0
H837 H 0.54304 0.98368 0.83794 0.0
H838 H 0.57352 0.04036 0.91268 0.0
H839 H 0.54583 0.04027 0.88227 0.0
H840 H 0.4122 0.97539 0.85472 0.0
H841 H 0.4448 0.98121 0.82781 0.0
H842 H 0.45833 0.02927 0.90889 0.0
H843 H 0.49079 0.03545 0.88166 0.0
H844 H 0.44512 0.04263 0.78995 0.0
H845 H 0.47373 0.04111 0.81727 0.0
H846 H 0.44706 0.99483 0.73377 0.0
H847 H 0.47502 0.99243 0.76172 0.0
N848 N 0.51065 0.01428 0.79771 0.0
N849 N 0.50713 0.01175 0.85134 0.0
C850 C 0.97716 0.55316 0.78016 0.0
C851 C 0.99408 0.56547 0.761 0.0
C852 C 0.97796 0.53655 0.7957 0.0
C853 C 0.99572 0.53194 0.79239 0.0
C854 C 0.01125 0.5601 0.7569 0.0
C855 C 0.01198 0.54342 0.77234 0.0
C856 C 0.99741 0.51521 0.8097 0.0
C857 C 0.01264 0.5746 0.86512 0.0
C858 C 0.99791 0.56894 0.88705 0.0
C859 C 0.0112 0.55729 0.84826 0.0
C860 C 0.99482 0.534 0.85286 0.0
C861 C 0.9811 0.54571 0.89118 0.0
C862 C 0.97963 0.5284 0.87428 0.0
C863 C 0.99533 0.51535 0.83768 0.0
C864 C 0.01638 0.44347 0.87386 0.0
C865 C 0.99825 0.43128 0.89174 0.0
C866 C 0.01644 0.45976 0.85684 0.0
C867 C 0.99848 0.46426 0.85766 0.0
C868 C 0.98052 0.43607 0.89275 0.0
C869 C 0.98074 0.45251 0.87606 0.0
C870 C 0.99829 0.4817 0.84023 0.0
C871 C 0.98571 0.42304 0.78554 0.0
C872 C 0.00348 0.42887 0.76735 0.0
C873 C 0.98515 0.44022 0.8007 0.0
C874 C 1.00233 0.4635 0.79778 0.0
C875 C 0.02086 0.45204 0.76469 0.0
C876 C 0.02018 0.46929 0.77967 0.0
C877 C 1.0009 0.48185 0.81237 0.0
H878 H 0.96368 0.55685 0.78366 0.0
H879 H 0.9648 0.52749 0.8105 0.0
H880 H 0.02429 0.56903 0.74193 0.0
H881 H 0.02564 0.53995 0.76911 0.0
H882 H 0.02584 0.59238 0.8616 0.0
H883 H 0.02358 0.56207 0.83239 0.0
H884 H 0.96987 0.54081 0.90826 0.0
H885 H 0.96707 0.51053 0.87843 0.0
H886 H 0.03028 0.44015 0.87283 0.0
H887 H 0.03058 0.46897 0.84322 0.0
H888 H 0.9665 0.42711 0.90661 0.0
H889 H 0.96685 0.45585 0.87728 0.0
H890 H 0.972 0.40524 0.78754 0.0
H891 H 0.97096 0.43541 0.81414 0.0
H892 H 0.03452 0.45682 0.75044 0.0
H893 H 0.03347 0.48717 0.77698 0.0
N894 N 1.00038 0.49857 0.79815 0.0
N895 N 0.99561 0.49847 0.85176 0.0
C896 C 0.5572 0.58173 0.77902 0.0
C897 C 0.56978 0.57509 0.76279 0.0
C898 C 0.53909 0.56544 0.79458 0.0
C899 C 0.53325 0.54223 0.79419 0.0
C900 C 0.56397 0.55184 0.76273 0.0
C901 C 0.54569 0.53554 0.77798 0.0
C902 C 0.51424 0.52477 0.81057 0.0
C903 C 0.57064 0.57083 0.86827 0.0
C904 C 0.5642 0.58238 0.88656 0.0
C905 C 0.55424 0.5531 0.85206 0.0
C906 C 0.53116 0.54668 0.85394 0.0
C907 C 0.5411 0.57584 0.88842 0.0
C908 C 0.52474 0.55811 0.87233 0.0
C909 C 0.51328 0.52698 0.8384 0.0
C910 C 0.44604 0.43248 0.87306 0.0
C911 C 0.43202 0.43576 0.89107 0.0
C912 C 0.46064 0.45006 0.85584 0.0
C913 C 0.46194 0.47146 0.85666 0.0
C914 C 0.43321 0.45722 0.89151 0.0
C915 C 0.44828 0.475 0.87473 0.0
C916 C 0.47853 0.49051 0.8397 0.0
C917 C 0.41967 0.44175 0.78873 0.0
C918 C 0.42478 0.4331 0.76581 0.0
C919 C 0.43705 0.46003 0.80331 0.0
C920 C 0.46011 0.46937 0.7962 0.0
C921 C 0.4478 0.44298 0.75818 0.0
C922 C 0.46524 0.46083 0.77324 0.0
C923 C 0.47884 0.48871 0.81169 0.0
H924 H 0.56116 0.59945 0.77943 0.0
H925 H 0.52955 0.57093 0.80677 0.0
H926 H 0.5737 0.54624 0.7511 0.0
H927 H 0.54156 0.51775 0.77754 0.0
H928 H 0.58832 0.57542 0.86667 0.0
H929 H 0.5595 0.54408 0.83855 0.0
H930 H 0.53558 0.58404 0.90282 0.0
H931 H 0.50699 0.55318 0.87439 0.0
H932 H 0.44636 0.41663 0.87282 0.0
H933 H 0.47143 0.44718 0.8424 0.0
H934 H 0.42265 0.46036 0.90502 0.0
H935 H 0.44916 0.49148 0.87574 0.0
H936 H 0.40225 0.43432 0.79563 0.0
H937 H 0.43227 0.46691 0.82002 0.0
H938 H 0.45238 0.437 0.74043 0.0
H939 H 0.4828 0.46792 0.76695 0.0
N940 N 0.49694 0.50578 0.79826 0.0
N941 N 0.49552 0.50971 0.8519 0.0
C942 C 0.68266 0.77766 0.47941 0.0
C943 C 0.66194 0.76279 0.46627 0.0
C944 C 0.68407 0.79403 0.49795 0.0
C945 C 0.66482 0.79576 0.5034 0.0
C946 C 0.64244 0.76373 0.47317 0.0
C947 C 0.64398 0.78037 0.49113 0.0
C948 C 0.66663 0.81489 0.51971 0.0
C949 C 0.66261 0.76168 0.57576 0.0
C950 C 0.67949 0.76973 0.59562 0.0
C951 C 0.66007 0.77711 0.56006 0.0
C952 C 0.67484 0.8011 0.5631 0.0
C953 C 0.69393 0.79374 0.59913 0.0
C954 C 0.69166 0.80921 0.58302 0.0
C955 C 0.67188 0.81783 0.54717 0.0
C956 C 0.6511 0.89108 0.57801 0.0
C957 C 0.66951 0.90525 0.59487 0.0
C958 C 0.65144 0.87405 0.5623 0.0
C959 C 0.67023 0.87092 0.56312 0.0
C960 C 0.68848 0.90234 0.59527 0.0
C961 C 0.68869 0.88511 0.57978 0.0
C962 C 0.67019 0.85233 0.54728 0.0
C963 C 0.68355 0.90631 0.48642 0.0
C964 C 0.66414 0.90089 0.47124 0.0
C965 C 0.68367 0.88984 0.50279 0.0
C966 C 0.66461 0.86737 0.5039 0.0
C967 C 0.64494 0.87835 0.4727 0.0
C968 C 0.64529 0.8617 0.48863 0.0
C969 C 0.66554 0.8496 0.51984 0.0
H970 H 0.69795 0.77729 0.47457 0.0
H971 H 0.70033 0.80593 0.50717 0.0
H972 H 0.62604 0.75195 0.46414 0.0
H973 H 0.62894 0.78142 0.49526 0.0
H974 H 0.6511 0.74334 0.57246 0.0
H975 H 0.64609 0.77011 0.54606 0.0
H976 H 0.70664 0.80065 0.61473 0.0
H977 H 0.703 0.82759 0.58629 0.0
H978 H 0.63621 0.89284 0.57741 0.0
H979 H 0.6368 0.86298 0.54992 0.0
H980 H 0.70319 0.9134 0.60754 0.0
H981 H 0.70336 0.883 0.58062 0.0
H982 H 0.69903 0.92306 0.48505 0.0
H983 H 0.69896 0.89445 0.51396 0.0
H984 H 0.62969 0.87351 0.46134 0.0
H985 H 0.63046 0.84439 0.4891 0.0
N986 N 0.66373 0.83088 0.50712 0.0
N987 N 0.67342 0.83654 0.55989 0.0
C988 C 0.11461 0.7556 0.49098 0.0
C989 C 0.10401 0.76045 0.47038 0.0
C990 C 0.13062 0.77336 0.50741 0.0
C991 C 0.1362 0.79625 0.50361 0.0
C992 C 0.10951 0.78333 0.46673 0.0
C993 C 0.12551 0.80106 0.48314 0.0
C994 C 0.15435 0.8155 0.51944 0.0
C995 C 0.09708 0.77286 0.57521 0.0
C996 C 0.10261 0.7641 0.59709 0.0
C997 C 0.11433 0.78965 0.55928 0.0
C998 C 0.13745 0.79741 0.56432 0.0
C999 C 0.12566 0.7723 0.60276 0.0
C1000 C 0.14294 0.78879 0.58648 0.0
C1001 C 0.15592 0.81529 0.54744 0.0
C1002 C 0.23079 0.91085 0.57503 0.0
C1003 C 0.24537 0.90692 0.5906 0.0
C1004 C 0.21329 0.89281 0.56031 0.0
C1005 C 0.21005 0.87054 0.56108 0.0
C1006 C 0.24229 0.88471 0.59118 0.0
C1007 C 0.22454 0.86656 0.57674 0.0
C1008 C 0.19129 0.85135 0.54595 0.0
C1009 C 0.24446 0.8979 0.48599 0.0
C1010 C 0.23617 0.90711 0.46736 0.0
C1011 C 0.22934 0.8801 0.50279 0.0
C1012 C 0.20571 0.87139 0.5014 0.0
C1013 C 0.21254 0.8983 0.46603 0.0
C1014 C 0.19749 0.88057 0.48274 0.0
C1015 C 0.18915 0.85199 0.51816 0.0
H1016 H 0.1108 0.73812 0.49405 0.0
H1017 H 0.13906 0.76928 0.52264 0.0
H1018 H 0.10205 0.78765 0.45058 0.0
H1019 H 0.12976 0.81863 0.47963 0.0
H1020 H 0.07942 0.76706 0.5708 0.0
H1021 H 0.10951 0.79673 0.54319 0.0
H1022 H 0.13027 0.76583 0.61968 0.0
H1023 H 0.16059 0.79472 0.59111 0.0
H1024 H 0.2329 0.92787 0.57439 0.0
H1025 H 0.20211 0.89616 0.54857 0.0
H1026 H 0.25327 0.88134 0.60325 0.0
H1027 H 0.22222 0.84946 0.57763 0.0
H1028 H 0.2626 0.90447 0.48758 0.0
H1029 H 0.23611 0.87295 0.51654 0.0
H1030 H 0.20564 0.9049 0.45169 0.0
H1031 H 0.17935 0.87402 0.48112 0.0
N1032 N 0.17082 0.83398 0.50604 0.0
N1033 N 0.17459 0.8331 0.55956 0.0
C1034 C 0.24234 0.35241 0.4918 0.0
C1035 C 0.23862 0.34007 0.46778 0.0
C1036 C 0.22395 0.3483 0.50808 0.0
C1037 C 0.2015 0.33134 0.501 0.0
C1038 C 0.2162 0.32291 0.46091 0.0
C1039 C 0.19784 0.31869 0.47729 0.0
C1040 C 0.18166 0.328 0.51694 0.0
C1041 C 0.22248 0.30983 0.56943 0.0
C1042 C 0.23043 0.3228 0.59309 0.0
C1043 C 0.20607 0.31081 0.55402 0.0
C1044 C 0.19779 0.32533 0.56155 0.0
C1045 C 0.22142 0.33646 0.60132 0.0
C1046 C 0.20528 0.33775 0.58567 0.0
C1047 C 0.18071 0.32696 0.54505 0.0
C1048 C 0.08598 0.30646 0.57093 0.0
C1049 C 0.09079 0.32304 0.59101 0.0
C1050 C 0.10363 0.30749 0.55556 0.0
C1051 C 0.12638 0.32515 0.55998 0.0
C1052 C 0.11356 0.3406 0.59547 0.0
C1053 C 0.13121 0.3415 0.58027 0.0
C1054 C 0.14533 0.32624 0.54429 0.0
C1055 C 0.10402 0.34106 0.48619 0.0
C1056 C 0.09364 0.32379 0.46645 0.0
C1057 C 0.12081 0.34184 0.50277 0.0
C1058 C 0.12761 0.32549 0.49963 0.0
C1059 C 0.10066 0.30767 0.46323 0.0
C1060 C 0.11758 0.30863 0.4795 0.0
C1061 C 0.14581 0.32627 0.51625 0.0
H1062 H 0.25945 0.36552 0.4978 0.0
H1063 H 0.22728 0.35876 0.52588 0.0
H1064 H 0.2128 0.31325 0.44244 0.0
H1065 H 0.18069 0.30568 0.47125 0.0
H1066 H 0.2289 0.29885 0.56295 0.0
H1067 H 0.19988 0.30017 0.53621 0.0
H1068 H 0.22726 0.34654 0.61957 0.0
H1069 H 0.19892 0.34876 0.59221 0.0
H1070 H 0.06854 0.29287 0.56695 0.0
H1071 H 0.09954 0.2944 0.54036 0.0
H1072 H 0.11769 0.35353 0.6109 0.0
H1073 H 0.14865 0.35514 0.58417 0.0
H1074 H 0.09898 0.35376 0.48892 0.0
H1075 H 0.12867 0.35532 0.51781 0.0
H1076 H 0.09317 0.29441 0.44788 0.0
H1077 H 0.12273 0.29602 0.4765 0.0
N1078 N 0.16398 0.32722 0.50373 0.0
N1079 N 0.16274 0.32652 0.55758 0.0
C1080 C 0.97592 0.38327 0.08867 0.0
C1081 C 0.99387 0.38131 0.07753 0.0
C1082 C 0.97986 0.3991 0.10916 0.0
C1083 C 1.00189 0.41365 0.11942 0.0
H1084 H 0.95868 0.37296 0.08107 0.0
H1085 H 0.96564 0.40053 0.11634 0.0
S1086 S 0.05442 0.41384 0.09972 0.0
N1087 N 0.03438 0.39421 0.08004 0.0
N1088 N 0.04162 0.42397 0.11869 0.0
C1089 C 0.01988 0.41134 0.10937 0.0
C1090 C 0.01591 0.39515 0.08845 0.0
C1091 C 0.60917 0.60565 0.07515 0.0
C1092 C 0.61062 0.62725 0.07522 0.0
C1093 C 0.59676 0.58926 0.0948 0.0
C1094 C 0.58541 0.5939 0.11516 0.0
H1095 H 0.61693 0.60101 0.05929 0.0
H1096 H 0.59528 0.57251 0.09344 0.0
S1097 S 0.58683 0.64891 0.12692 0.0
N1098 N 0.60175 0.65321 0.09939 0.0
N1099 N 0.57839 0.6223 0.13599 0.0
C1100 C 0.58776 0.61579 0.11632 0.0
C1101 C 0.60038 0.63249 0.09645 0.0
C1102 C 0.39473 0.00395 0.07849 0.0
C1103 C 0.38155 0.98229 0.0657 0.0
C1104 C 0.41035 0.00738 0.09873 0.0
C1105 C 0.41328 0.98925 0.10702 0.0
H1106 H 0.3929 0.01835 0.07299 0.0
H1107 H 0.42 0.02425 0.10815 0.0
S1108 S 0.38474 0.92986 0.07856 0.0
N1109 N 0.37376 0.94279 0.0621 0.0
N1110 N 0.40298 0.94943 0.09974 0.0
C1111 C 0.40061 0.96772 0.0941 0.0
C1112 C 0.38479 0.96418 0.07358 0.0
C1113 C 0.38136 0.96958 0.92896 0.0
C1114 C 0.37866 0.98721 0.94044 0.0
C1115 C 0.39829 0.97446 0.90988 0.0
C1116 C 0.41326 0.99717 0.90146 0.0
H1117 H 0.37086 0.95187 0.93536 0.0
H1118 H 0.40025 0.96043 0.90248 0.0
S1119 S 0.4117 0.04926 0.92228 0.0
N1120 N 0.39124 0.02817 0.9398 0.0
N1121 N 0.42299 0.03717 0.90394 0.0
C1122 C 0.4101 0.01482 0.91166 0.0
C1123 C 0.39282 0.00989 0.93109 0.0
C1124 C 0.01224 0.40283 0.94728 0.0
C1125 C 0.99259 0.38055 0.94802 0.0
C1126 C 0.01458 0.41897 0.92821 0.0
C1127 C 0.99736 0.41335 0.9093 0.0
H1128 H 0.02534 0.40823 0.96231 0.0
H1129 H 0.02943 0.43627 0.92903 0.0
S1130 S 0.9446 0.35632 0.89977 0.0
N1131 N 0.95706 0.35297 0.92583 0.0
N1132 N 0.96149 0.38331 0.89044 0.0
C1133 C 0.97843 0.39076 0.90876 0.0
C1134 C 0.97606 0.37437 0.92798 0.0
C1135 C 0.60901 0.61104 0.9406 0.0
C1136 C 0.60941 0.63182 0.94558 0.0
C1137 C 0.5951 0.59554 0.92063 0.0
C1138 C 0.58114 0.60031 0.90489 0.0
H1139 H 0.61871 0.60616 0.95297 0.0
H1140 H 0.59448 0.57926 0.91831 0.0
S1141 S 0.57876 0.65391 0.90677 0.0
N1142 N 0.59658 0.65748 0.93087 0.0
N1143 N 0.57058 0.62835 0.89336 0.0
C1144 C 0.58245 0.62161 0.90851 0.0
C1145 C 0.59655 0.63737 0.92882 0.0
C1146 C 0.02825 0.61658 0.93843 0.0
C1147 C 0.01058 0.61891 0.94974 0.0
C1148 C 0.02401 0.60088 0.91769 0.0
C1149 C 1.00194 0.5868 0.90732 0.0
H1150 H 0.04554 0.62661 0.94595 0.0
H1151 H 0.03808 0.59926 0.91029 0.0
S1152 S 0.94995 0.58734 0.92783 0.0
N1153 N 0.9702 0.6066 0.9476 0.0
N1154 N 0.96239 0.57705 0.90848 0.0
C1155 C 0.98417 0.5893 0.91774 0.0
C1156 C 0.98845 0.60537 0.93893 0.0
C1157 C 0.40485 0.40706 0.95671 0.0
C1158 C 0.39388 0.38343 0.9503 0.0
C1159 C 0.41665 0.42382 0.9373 0.0
C1160 C 0.41753 0.41756 0.91064 0.0
H1161 H 0.40519 0.41262 0.97709 0.0
H1162 H 0.42585 0.44179 0.94352 0.0
S1163 S 0.38824 0.3576 0.88334 0.0
N1164 N 0.38285 0.35437 0.91553 0.0
N1165 N 0.40384 0.38575 0.87858 0.0
C1166 C 0.40539 0.39384 0.90383 0.0
C1167 C 0.39386 0.37681 0.92377 0.0
C1168 C 0.62788 0.037 0.93516 0.0
C1169 C 0.62429 0.01823 0.95077 0.0
C1170 C 0.61209 0.03457 0.91594 0.0
C1171 C 0.59202 0.01325 0.91122 0.0
H1172 H 0.64282 0.054 0.93815 0.0
H1173 H 0.61545 0.0497 0.90498 0.0
S1174 S 0.57476 0.95823 0.94504 0.0
N1175 N 0.59937 0.97711 0.959 0.0
N1176 N 0.5697 0.97267 0.92267 0.0
C1177 C 0.58854 0.99404 0.92568 0.0
C1178 C 0.60465 0.9965 0.94547 0.0
C1179 C 0.60585 0.99664 0.08143 0.0
C1180 C 0.62584 0.01845 0.07847 0.0
C1181 C 0.5893 0.99303 0.10059 0.0
C1182 C 0.59212 0.01106 0.11756 0.0
H1183 H 0.60245 0.98245 0.06814 0.0
H1184 H 0.57375 0.97626 0.10136 0.0
S1185 S 0.64287 0.07029 0.12098 0.0
N1186 N 0.64854 0.05761 0.09631 0.0
N1187 N 0.6175 0.05067 0.13232 0.0
C1188 C 0.61257 0.03252 0.1159 0.0
C1189 C 0.6294 0.03624 0.09639 0.0
C1190 C 0.99231 0.60028 0.07951 0.0
C1191 C 0.01214 0.62243 0.07914 0.0
C1192 C 0.98963 0.58382 0.0983 0.0
C1193 C 0.00669 0.58902 0.11728 0.0
H1194 H 0.9794 0.59517 0.0643 0.0
H1195 H 0.97472 0.56658 0.09711 0.0
S1196 S 0.05971 0.64565 0.12783 0.0
N1197 N 0.04758 0.6495 0.10179 0.0
N1198 N 0.04252 0.61859 0.13675 0.0
C1199 C 0.02572 0.61154 0.1183 0.0
C1200 C 0.02844 0.62825 0.09934 0.0
C1201 C 0.39236 0.39319 0.08994 0.0
C1202 C 0.40104 0.38045 0.07745 0.0
C1203 C 0.40429 0.40899 0.11056 0.0
C1204 C 0.42526 0.41254 0.11966 0.0
H1205 H 0.3764 0.39132 0.08348 0.0
H1206 H 0.39716 0.41869 0.11928 0.0
S1207 S 0.45565 0.38381 0.09412 0.0
N1208 N 0.43206 0.37248 0.07628 0.0
N1209 N 0.45438 0.40231 0.11477 0.0
C1210 C 0.43398 0.3997 0.10782 0.0
C1211 C 0.42191 0.38363 0.0868 0.0
C1212 C 0.6691 0.7182 0.42693 0.0
C1213 C 0.65701 0.71575 0.40347 0.0
C1214 C 0.67081 0.73355 0.44722 0.0
C1215 C 0.66077 0.74715 0.44444 0.0
H1216 H 0.67676 0.70779 0.42986 0.0
H1217 H 0.67967 0.73447 0.46536 0.0
S1218 S 0.63056 0.7496 0.38474 0.0
N1219 N 0.63671 0.7295 0.37749 0.0
N1220 N 0.64072 0.75899 0.41489 0.0
C1221 C 0.64964 0.74557 0.42041 0.0
C1222 C 0.64756 0.72971 0.40011 0.0
C1223 C 0.26224 0.96159 0.42638 0.0
C1224 C 0.27759 0.95944 0.4094 0.0
C1225 C 0.2496 0.94504 0.44565 0.0
C1226 C 0.25177 0.92563 0.44889 0.0
H1227 H 0.2595 0.97593 0.42444 0.0
H1228 H 0.23767 0.94724 0.45781 0.0
S1229 S 0.29018 0.91207 0.41065 0.0
N1230 N 0.29488 0.93659 0.39808 0.0
N1231 N 0.2709 0.90543 0.43424 0.0
C1232 C 0.26764 0.92361 0.43288 0.0
C1233 C 0.28059 0.94051 0.41317 0.0
C1234 C 0.06436 0.33839 0.41276 0.0
C1235 C 0.04359 0.31733 0.40916 0.0
C1236 C 0.08012 0.34087 0.43231 0.0
C1237 C 0.07561 0.32238 0.44886 0.0
H1238 H 0.06902 0.35266 0.39953 0.0
H1239 H 0.09638 0.35695 0.4336 0.0
S1240 S 0.02223 0.26515 0.45075 0.0
N1241 N 0.01827 0.27872 0.42629 0.0
N1242 N 0.04791 0.28345 0.46265 0.0
C1243 C 0.05434 0.30185 0.44667 0.0
C1244 C 0.03832 0.29932 0.42693 0.0
C1245 C 0.07412 0.34154 0.28658 0.0
C1246 C 0.05095 0.32592 0.28114 0.0
C1247 C 0.09097 0.34643 0.26735 0.0
C1248 C 0.08524 0.33626 0.24174 0.0
H1249 H 0.07936 0.34928 0.3062 0.0
H1250 H 0.10867 0.35765 0.273 0.0
S1251 S 0.02633 0.29688 0.21666 0.0
N1252 N 0.02277 0.30169 0.24809 0.0
N1253 N 0.05417 0.31188 0.21132 0.0
C1254 C 0.06188 0.32158 0.23572 0.0
C1255 C 0.04481 0.31618 0.25556 0.0
C1256 C 0.64405 0.71118 0.26261 0.0
C1257 C 0.6617 0.71562 0.28048 0.0
C1258 C 0.64636 0.72778 0.24452 0.0
C1259 C 0.66647 0.74955 0.24328 0.0
H1260 H 0.62794 0.69491 0.263 0.0
H1261 H 0.63206 0.7237 0.23172 0.0
S1262 S 0.71846 0.76968 0.2841 0.0
N1263 N 0.7006 0.74325 0.29462 0.0
N1264 N 0.70486 0.77443 0.26039 0.0
C1265 C 0.68471 0.75395 0.25999 0.0
C1266 C 0.68235 0.73701 0.27861 0.0
C1267 C 0.2545 0.95558 0.27245 0.0
C1268 C 0.27548 0.95893 0.28151 0.0
C1269 C 0.24229 0.93975 0.25204 0.0
C1270 C 0.25051 0.92661 0.23982 0.0
H1271 H 0.24706 0.96481 0.28161 0.0
H1272 H 0.22589 0.93725 0.24637 0.0
S1273 S 0.30556 0.93041 0.25379 0.0
N1274 N 0.30475 0.94886 0.27501 0.0
N1275 N 0.28161 0.91909 0.23659 0.0
C1276 C 0.27178 0.93028 0.24789 0.0
C1277 C 0.28431 0.94645 0.2687 0.0
C1278 C 0.69358 0.94946 0.27508 0.0
C1279 C 0.67587 0.95256 0.28468 0.0
C1280 C 0.69003 0.93436 0.25386 0.0
C1281 C 0.66864 0.92168 0.2414 0.0
H1282 H 0.71025 0.95834 0.28439 0.0
H1283 H 0.70395 0.93199 0.24777 0.0
S1284 S 0.61729 0.92516 0.25653 0.0
N1285 N 0.63652 0.94288 0.27832 0.0
N1286 N 0.62999 0.91432 0.23854 0.0
C1287 C 0.65099 0.92511 0.25 0.0
C1288 C 0.65458 0.94061 0.27157 0.0
C1289 C 0.07753 0.70942 0.26466 0.0
C1290 C 0.06288 0.71251 0.28186 0.0
C1291 C 0.09026 0.7255 0.24501 0.0
C1292 C 0.08886 0.74534 0.24158 0.0
H1293 H 0.07958 0.69465 0.26662 0.0
H1294 H 0.10161 0.72256 0.23265 0.0
S1295 S 0.0526 0.76144 0.28038 0.0
N1296 N 0.04718 0.73678 0.2933 0.0
N1297 N 0.07132 0.76704 0.25638 0.0
C1298 C 0.07377 0.74836 0.2579 0.0
C1299 C 0.06074 0.73196 0.27801 0.0
C1300 C 0.30002 0.37329 0.26722 0.0
C1301 C 0.29595 0.35501 0.28402 0.0
C1302 C 0.28389 0.37087 0.24849 0.0
C1303 C 0.26298 0.35001 0.24547 0.0
H1304 H 0.31558 0.38999 0.26906 0.0
H1305 H 0.28761 0.38567 0.23664 0.0
S1306 S 0.24424 0.2962 0.28279 0.0
N1307 N 0.26971 0.31474 0.29512 0.0
N1308 N 0.2394 0.31025 0.25967 0.0
C1309 C 0.25904 0.33116 0.26101 0.0
C1310 C 0.27551 0.33363 0.28029 0.0
C1311 C 0.27735 0.33303 0.41864 0.0
C1312 C 0.29254 0.35582 0.41027 0.0
C1313 C 0.2603 0.32812 0.4376 0.0
C1314 C 0.25779 0.34579 0.44914 0.0
H1315 H 0.27831 0.31871 0.41017 0.0
H1316 H 0.24887 0.31031 0.44314 0.0
S1317 S 0.293 0.40835 0.43469 0.0
N1318 N 0.30398 0.39634 0.41573 0.0
N1319 N 0.27179 0.38692 0.45097 0.0
C1320 C 0.27304 0.36866 0.44144 0.0
C1321 C 0.29042 0.37371 0.42214 0.0
C1322 C 0.65814 0.9273 0.40759 0.0
C1323 C 0.6703 0.95108 0.41345 0.0
C1324 C 0.65549 0.91114 0.42668 0.0
C1325 C 0.66461 0.91814 0.45249 0.0
H1326 H 0.65179 0.92125 0.38766 0.0
H1327 H 0.64717 0.89314 0.42068 0.0
S1328 S 0.69459 0.97847 0.47871 0.0
N1329 N 0.68973 0.98087 0.44718 0.0
N1330 N 0.68364 0.95058 0.48363 0.0
C1331 C 0.67543 0.94188 0.459 0.0
C1332 C 0.67855 0.95831 0.43935 0.0
C1333 C 0.08351 0.71248 0.41878 0.0
C1334 C 0.06272 0.70977 0.41 0.0
C1335 C 0.0963 0.72832 0.43894 0.0
C1336 C 0.08885 0.74211 0.45121 0.0
H1337 H 0.09044 0.70282 0.40947 0.0
H1338 H 0.11259 0.73038 0.44428 0.0
S1339 S 0.03441 0.73993 0.43821 0.0
N1340 N 0.03435 0.721 0.417 0.0
N1341 N 0.05852 0.75073 0.45501 0.0
C1342 C 0.06767 0.73895 0.44357 0.0
C1343 C 0.05458 0.72279 0.42299 0.0
C1344 C 0.30927 0.04509 0.75769 0.0
C1345 C 0.32731 0.04997 0.74008 0.0
C1346 C 0.31192 0.0604 0.77828 0.0
C1347 C 0.33269 0.08128 0.78214 0.0
H1348 H 0.29271 0.02952 0.75523 0.0
H1349 H 0.29736 0.05613 0.79089 0.0
S1350 S 0.38572 0.10181 0.74272 0.0
N1351 N 0.36719 0.07671 0.72891 0.0
N1352 N 0.37199 0.10569 0.7675 0.0
C1353 C 0.35123 0.08597 0.76554 0.0
C1354 C 0.34858 0.07028 0.74455 0.0
C1355 C 0.92209 0.28465 0.75394 0.0
C1356 C 0.94196 0.28764 0.7414 0.0
C1357 C 0.91107 0.26841 0.77396 0.0
C1358 C 0.9194 0.25441 0.78252 0.0
H1359 H 0.91457 0.29462 0.74794 0.0
H1360 H 0.89549 0.26642 0.78234 0.0
S1361 S 0.97174 0.25635 0.75799 0.0
N1362 N 0.97015 0.27578 0.74014 0.0
N1363 N 0.94944 0.2454 0.77811 0.0
C1364 C 0.93953 0.25749 0.77074 0.0
C1365 C 0.9508 0.27406 0.75018 0.0
C1366 C 0.72712 0.67009 0.75083 0.0
C1367 C 0.71436 0.64872 0.73734 0.0
C1368 C 0.74326 0.67352 0.7704 0.0
C1369 C 0.74718 0.65569 0.77722 0.0
H1370 H 0.72451 0.6842 0.74643 0.0
H1371 H 0.75254 0.69013 0.78048 0.0
S1372 S 0.72042 0.59746 0.74591 0.0
N1373 N 0.70829 0.61004 0.7311 0.0
N1374 N 0.73843 0.61667 0.76755 0.0
C1375 C 0.73502 0.63453 0.76346 0.0
C1376 C 0.71868 0.63099 0.74364 0.0
C1377 C 0.71905 0.66411 0.59501 0.0
C1378 C 0.71609 0.65135 0.61803 0.0
C1379 C 0.73601 0.6679 0.57626 0.0
C1380 C 0.75077 0.6594 0.58023 0.0
H1381 H 0.7079 0.67075 0.59123 0.0
H1382 H 0.73732 0.67722 0.55838 0.0
S1383 S 0.75204 0.62818 0.63969 0.0
N1384 N 0.73033 0.632 0.645 0.0
N1385 N 0.76277 0.63998 0.61066 0.0
C1386 C 0.74852 0.64756 0.6039 0.0
C1387 C 0.73105 0.64334 0.62258 0.0
C1388 C 0.34771 0.07082 0.60964 0.0
C1389 C 0.32774 0.04875 0.60996 0.0
C1390 C 0.35058 0.08736 0.59085 0.0
C1391 C 0.3336 0.08233 0.57182 0.0
H1392 H 0.36057 0.0758 0.62487 0.0
H1393 H 0.36558 0.10453 0.59209 0.0
S1394 S 0.28026 0.026 0.56118 0.0
N1395 N 0.29225 0.02196 0.58723 0.0
N1396 N 0.29768 0.05303 0.5523 0.0
C1397 C 0.31444 0.05989 0.57077 0.0
C1398 C 0.31151 0.04311 0.58972 0.0
C1399 C 0.94658 0.27562 0.60229 0.0
C1400 C 0.93826 0.28909 0.61367 0.0
C1401 C 0.93483 0.25974 0.58163 0.0
C1402 C 0.91441 0.25683 0.5714 0.0
H1403 H 0.96214 0.27706 0.6096 0.0
H1404 H 0.94169 0.24954 0.5737 0.0
S1405 S 0.88493 0.2873 0.59414 0.0
N1406 N 0.90802 0.2982 0.6128 0.0
N1407 N 0.88606 0.26824 0.57432 0.0
C1408 C 0.906 0.27028 0.58228 0.0
C1409 C 0.91788 0.28643 0.60329 0.0
C1410 C 0.3645 0.28635 0.60925 0.0
C1411 C 0.34649 0.28903 0.61868 0.0
C1412 C 0.36124 0.27106 0.58833 0.0
C1413 C 0.33986 0.25777 0.57603 0.0
H1414 H 0.3812 0.29571 0.61845 0.0
H1415 H 0.37541 0.26905 0.58235 0.0
S1416 S 0.28771 0.25988 0.5908 0.0
N1417 N 0.30679 0.27821 0.61232 0.0
N1418 N 0.30084 0.24936 0.5731 0.0
C1419 C 0.3219 0.26078 0.58445 0.0
C1420 C 0.32518 0.27645 0.6057 0.0
C1421 C 0.72647 0.06437 0.61146 0.0
C1422 C 0.72482 0.04269 0.61117 0.0
C1423 C 0.73918 0.08094 0.59207 0.0
C1424 C 0.75064 0.07636 0.57178 0.0
H1425 H 0.71891 0.06906 0.62752 0.0
H1426 H 0.74101 0.09782 0.59375 0.0
S1427 S 0.74837 0.02102 0.55921 0.0
N1428 N 0.73329 0.01661 0.58663 0.0
N1429 N 0.75721 0.04781 0.5505 0.0
C1430 C 0.74782 0.05428 0.57018 0.0
C1431 C 0.73489 0.03742 0.58979 0.0
C1432 C 0.95909 0.70546 0.611 0.0
C1433 C 0.96058 0.6869 0.62113 0.0
C1434 C 0.94313 0.70208 0.59154 0.0
C1435 C 0.92786 0.68002 0.58101 0.0
H1436 H 0.97009 0.7229 0.61846 0.0
H1437 H 0.94246 0.71697 0.58513 0.0
S1438 S 0.92526 0.62562 0.59914 0.0
N1439 N 0.94565 0.64553 0.61826 0.0
N1440 N 0.91583 0.63929 0.58122 0.0
C1441 C 0.92928 0.66126 0.59049 0.0
C1442 C 0.94558 0.66468 0.61055 0.0
C1443 C 0.95511 0.67443 0.76577 0.0
C1444 C 0.95785 0.68726 0.74288 0.0
C1445 C 0.9387 0.67103 0.78513 0.0
C1446 C 0.9243 0.68007 0.78198 0.0
H1447 H 0.96604 0.66744 0.769 0.0
H1448 H 0.93753 0.66158 0.80285 0.0
S1449 S 0.92254 0.71178 0.72329 0.0
N1450 N 0.9437 0.70729 0.71696 0.0
N1451 N 0.91233 0.70012 0.75251 0.0
C1452 C 0.92631 0.69203 0.75848 0.0
C1453 C 0.94321 0.69581 0.73915 0.0
C1454 C 0.34816 0.29323 0.77134 0.0
C1455 C 0.33854 0.28653 0.74587 0.0
C1456 C 0.34506 0.27674 0.79015 0.0
C1457 C 0.33279 0.2529 0.78396 0.0
H1458 H 0.35868 0.31139 0.77651 0.0
H1459 H 0.35295 0.28281 0.80946 0.0
S1460 S 0.30453 0.22671 0.71941 0.0
N1461 N 0.31579 0.25474 0.71542 0.0
N1462 N 0.31093 0.22368 0.75005 0.0
C1463 C 0.32258 0.24603 0.75862 0.0
C1464 C 0.32527 0.26287 0.73974 0.0
C1465 C 0.75853 0.05797 0.73945 0.0
C1466 C 0.7347 0.04781 0.73862 0.0
C1467 C 0.77138 0.07278 0.76027 0.0
C1468 C 0.76088 0.07778 0.78137 0.0
H1469 H 0.76742 0.05465 0.72368 0.0
H1470 H 0.78977 0.08058 0.75965 0.0
S1471 S 0.69868 0.05447 0.78926 0.0
N1472 N 0.7009 0.0433 0.76078 0.0
N1473 N 0.72502 0.07067 0.8006 0.0
C1474 C 0.73698 0.0676 0.7809 0.0
C1475 C 0.72389 0.05273 0.75937 0.0
C1476 C 0.07812 0.36792 0.05146 0.0
C1477 C 0.05674 0.34753 0.04815 0.0
C1478 C 0.09535 0.36823 0.06694 0.0
C1479 C 0.09193 0.3481 0.07927 0.0
H1480 H 0.08139 0.38384 0.04257 0.0
H1481 H 0.11148 0.38433 0.06925 0.0
S1482 S 0.03925 0.29023 0.07648 0.0
N1483 N 0.03334 0.30661 0.05828 0.0
N1484 N 0.06563 0.30733 0.08715 0.0
C1485 C 0.07078 0.32759 0.07578 0.0
C1486 C 0.05323 0.32728 0.0603 0.0
C1487 C 0.66884 0.72929 0.04133 0.0
C1488 C 0.67144 0.71164 0.05192 0.0
C1489 C 0.66979 0.74671 0.05763 0.0
C1490 C 0.67288 0.74683 0.08519 0.0
H1491 H 0.666 0.72961 0.02024 0.0
H1492 H 0.66749 0.75987 0.04871 0.0
S1493 S 0.68029 0.70439 0.12281 0.0
N1494 N 0.67737 0.69535 0.09161 0.0
N1495 N 0.67868 0.72797 0.12245 0.0
C1496 C 0.67555 0.72933 0.09608 0.0
C1497 C 0.675 0.71178 0.07937 0.0
C1498 C 0.27875 0.93731 0.03589 0.0
C1499 C 0.29543 0.95847 0.04736 0.0
C1500 C 0.26056 0.9205 0.05104 0.0
C1501 C 0.25872 0.92407 0.07829 0.0
H1502 H 0.2796 0.93378 0.01499 0.0
H1503 H 0.24805 0.90444 0.04148 0.0
S1504 S 0.29801 0.9762 0.11799 0.0
N1505 N 0.30886 0.98198 0.08769 0.0
N1506 N 0.27496 0.95014 0.11621 0.0
C1507 C 0.27532 0.94503 0.09005 0.0
C1508 C 0.2936 0.96231 0.07457 0.0
C1509 C 0.36691 0.07079 0.96685 0.0
C1510 C 0.34669 0.05186 0.97673 0.0
C1511 C 0.36635 0.08804 0.95208 0.0
C1512 C 0.34557 0.08704 0.94692 0.0
H1513 H 0.3831 0.07177 0.96955 0.0
H1514 H 0.38218 0.10183 0.9439 0.0
S1515 S 0.28845 0.04285 0.97225 0.0
N1516 N 0.30572 0.03426 0.98258 0.0
N1517 N 0.30474 0.0669 0.9558 0.0
C1518 C 0.32548 0.06883 0.95808 0.0
C1519 C 0.32602 0.0512 0.97272 0.0
C1520 C 0.96812 0.29156 0.94866 0.0
C1521 C 0.96491 0.29452 0.9757 0.0
C1522 C 0.95075 0.27336 0.93372 0.0
C1523 C 0.92969 0.25736 0.94541 0.0
H1524 H 0.98393 0.30367 0.93883 0.0
H1525 H 0.95369 0.27205 0.91275 0.0
S1526 S 0.91396 0.25619 0.01637 0.0
N1527 N 0.93976 0.2793 0.014 0.0
N1528 N 0.90748 0.24468 0.98623 0.0
C1529 C 0.92664 0.25978 0.97268 0.0
C1530 C 0.94416 0.27846 0.98774 0.0
C1531 C 0.70408 0.63744 0.96562 0.0
C1532 C 0.70649 0.65841 0.97455 0.0
C1533 C 0.72139 0.63714 0.95064 0.0
C1534 C 0.74179 0.65778 0.9444 0.0
H1535 H 0.68843 0.62126 0.96945 0.0
H1536 H 0.71852 0.6207 0.94328 0.0
S1537 S 0.75771 0.71683 0.96691 0.0
N1538 N 0.73152 0.70005 0.97827 0.0
N1539 N 0.76431 0.69945 0.95112 0.0
C1540 C 0.74478 0.67871 0.95449 0.0
C1541 C 0.72707 0.67903 0.96931 0.0
C1542 C 0.95444 0.66382 0.95036 0.0
C1543 C 0.94972 0.65403 0.97579 0.0
C1544 C 0.93744 0.66389 0.93507 0.0
C1545 C 0.91497 0.65443 0.94465 0.0
H1546 H 0.97146 0.67141 0.94202 0.0
H1547 H 0.94197 0.67139 0.91548 0.0
S1548 S 0.89393 0.62752 0.01061 0.0
N1549 N 0.92101 0.63476 0.01007 0.0
N1550 N 0.88913 0.63557 0.98177 0.0
C1551 C 0.90998 0.64456 0.97013 0.0
C1552 C 0.92731 0.64421 0.98558 0.0
C1553 C 0.34578 0.28101 0.98494 0.0
C1554 C 0.33937 0.29617 0.97496 0.0
C1555 C 0.34581 0.26402 0.96874 0.0
C1556 C 0.33968 0.2617 0.94179 0.0
H1557 H 0.35074 0.28218 0.00556 0.0
H1558 H 0.35053 0.25251 0.97747 0.0
S1559 S 0.32323 0.29835 0.90545 0.0
N1560 N 0.32751 0.30843 0.93628 0.0
N1561 N 0.32809 0.2768 0.90547 0.0
C1562 C 0.33343 0.27693 0.93143 0.0
C1563 C 0.33316 0.2941 0.9481 0.0
C1564 C 0.72423 0.06574 0.98413 0.0
C1565 C 0.70922 0.04345 0.97388 0.0
C1566 C 0.74237 0.08244 0.96888 0.0
C1567 C 0.74612 0.0776 0.94266 0.0
H1568 H 0.72218 0.07028 0.00427 0.0
H1569 H 0.75375 0.0992 0.97787 0.0
S1570 S 0.71035 0.02253 0.90561 0.0
N1571 N 0.69858 0.01775 0.93541 0.0
N1572 N 0.7323 0.04931 0.90651 0.0
C1573 C 0.7309 0.05552 0.93195 0.0
C1574 C 0.71255 0.03842 0.9476 0.0
C1575 C 0.67637 0.95558 0.06146 0.0
C1576 C 0.65652 0.95166 0.04832 0.0
C1577 C 0.67674 0.93805 0.07558 0.0
C1578 C 0.6572 0.91589 0.07746 0.0
H1579 H 0.69186 0.97241 0.06094 0.0
H1580 H 0.69236 0.94204 0.08558 0.0
S1581 S 0.60101 0.89623 0.04618 0.0
N1582 N 0.61689 0.9236 0.03764 0.0
N1583 N 0.61757 0.89067 0.06441 0.0
C1584 C 0.63726 0.91158 0.06428 0.0
C1585 C 0.63694 0.92942 0.04961 0.0
C1586 C 0.03727 0.71901 0.0701 0.0
C1587 C 0.04286 0.70829 0.04964 0.0
C1588 C 0.05434 0.73701 0.08562 0.0
C1589 C 0.07752 0.74462 0.08147 0.0
H1590 H 0.0196 0.7135 0.07419 0.0
H1591 H 0.04938 0.74481 0.10121 0.0
S1592 S 0.10151 0.7233 0.03002 0.0
N1593 N 0.07362 0.70758 0.02553 0.0
N1594 N 0.10538 0.74085 0.05525 0.0
C1595 C 0.08339 0.73425 0.06109 0.0
C1596 C 0.06614 0.71623 0.04502 0.0
C1597 C 0.29965 0.36547 0.05788 0.0
C1598 C 0.30143 0.34562 0.05643 0.0
C1599 C 0.28257 0.36586 0.0732 0.0
C1600 C 0.26647 0.34631 0.08732 0.0
H1601 H 0.31164 0.38092 0.04728 0.0
H1602 H 0.28178 0.38147 0.07375 0.0
S1603 S 0.26367 0.29011 0.0905 0.0
N1604 N 0.28558 0.30593 0.07078 0.0
N1605 N 0.25353 0.30676 0.09936 0.0
C1606 C 0.26802 0.32637 0.08607 0.0
C1607 C 0.28549 0.32601 0.0707 0.0
C1608 C 0.72504 0.66464 0.38908 0.0
C1609 C 0.72637 0.68535 0.38202 0.0
C1610 C 0.74185 0.66465 0.40481 0.0
C1611 C 0.76055 0.68537 0.41468 0.0
H1612 H 0.71082 0.64818 0.38239 0.0
H1613 H 0.74009 0.64817 0.40932 0.0
S1614 S 0.77144 0.74437 0.40263 0.0
N1615 N 0.74778 0.72718 0.38591 0.0
N1616 N 0.779 0.7273 0.41651 0.0
C1617 C 0.76215 0.7063 0.4076 0.0
C1618 C 0.74516 0.70626 0.39107 0.0
C1619 C 0.34398 0.04959 0.40769 0.0
C1620 C 0.33714 0.04683 0.38095 0.0
C1621 C 0.34453 0.06705 0.42374 0.0
C1622 C 0.33876 0.08259 0.41335 0.0
H1623 H 0.34837 0.03784 0.41646 0.0
H1624 H 0.34946 0.06843 0.44439 0.0
S1625 S 0.32048 0.08324 0.34449 0.0
N1626 N 0.32483 0.06135 0.34476 0.0
N1627 N 0.32638 0.09442 0.37483 0.0
C1628 C 0.33238 0.08032 0.38657 0.0
C1629 C 0.33142 0.06235 0.37038 0.0
C1630 C 0.94665 0.29352 0.39575 0.0
C1631 C 0.95919 0.28817 0.37768 0.0
C1632 C 0.92837 0.27622 0.41036 0.0
C1633 C 0.92219 0.25297 0.4078 0.0
H1634 H 0.95095 0.31124 0.39866 0.0
H1635 H 0.91926 0.28112 0.42413 0.0
S1636 S 0.94883 0.22945 0.36296 0.0
N1637 N 0.96339 0.25752 0.3576 0.0
N1638 N 0.9295 0.22527 0.38564 0.0
C1639 C 0.93442 0.24729 0.38982 0.0
C1640 C 0.95277 0.26481 0.37459 0.0
C1641 C 0.00609 0.38147 0.28388 0.0
C1642 C 0.01438 0.38499 0.31011 0.0
C1643 C 0.00656 0.39936 0.26958 0.0
C1644 C 0.01489 0.42131 0.28112 0.0
H1645 H 0.99933 0.36478 0.27418 0.0
H1646 H 1.00008 0.39591 0.24942 0.0
S1647 S 0.03835 0.43965 0.34907 0.0
N1648 N 0.03137 0.41234 0.34692 0.0
N1649 N 0.0316 0.44578 0.32015 0.0
C1650 C 0.02313 0.42514 0.3073 0.0
C1651 C 0.02308 0.40703 0.32175 0.0
C1652 C 0.61751 0.6117 0.31592 0.0
C1653 C 0.63779 0.62936 0.30449 0.0
C1654 C 0.60065 0.59375 0.30034 0.0
C1655 C 0.60326 0.59315 0.2727 0.0
H1656 H 0.61458 0.6118 0.3371 0.0
H1657 H 0.58517 0.5806 0.30987 0.0
S1658 S 0.65306 0.63525 0.23303 0.0
N1659 N 0.65971 0.64499 0.26393 0.0
N1660 N 0.62761 0.61147 0.23446 0.0
C1661 C 0.62348 0.6106 0.26099 0.0
C1662 C 0.64089 0.62865 0.27695 0.0
C1663 C 0.37557 0.99757 0.27929 0.0
C1664 C 0.37126 0.98969 0.30558 0.0
C1665 C 0.39215 0.99654 0.26378 0.0
C1666 C 0.40541 0.98796 0.27405 0.0
H1667 H 0.36592 0.00446 0.27051 0.0
H1668 H 0.39457 0.00256 0.24352 0.0
S1669 S 0.40135 0.96607 0.34236 0.0
N1670 N 0.3815 0.97307 0.3414 0.0
N1671 N 0.41342 0.97203 0.31269 0.0
C1672 C 0.40123 0.97999 0.30041 0.0
C1673 C 0.384 0.98066 0.31606 0.0
C1674 C 0.59171 0.97795 0.31661 0.0
C1675 C 0.61377 0.98561 0.30676 0.0
C1676 C 0.57509 0.97835 0.30069 0.0
C1677 C 0.57989 0.98616 0.27427 0.0
H1678 H 0.58746 0.97225 0.33695 0.0
H1679 H 0.55854 0.97302 0.30933 0.0
S1680 S 0.63403 0.00452 0.23798 0.0
N1681 N 0.63889 0.99915 0.26831 0.0
N1682 N 0.6076 0.99924 0.23827 0.0
C1683 C 0.6016 0.9928 0.26391 0.0
C1684 C 0.61853 0.99268 0.28018 0.0
C1685 C 0.00506 0.61007 0.31635 0.0
C1686 C 1.00119 0.6268 0.30546 0.0
C1687 C 0.0042 0.59244 0.30051 0.0
C1688 C 0.99991 0.59122 0.27314 0.0
H1689 H 0.00883 0.61061 0.3373 0.0
H1690 H 0.00749 0.58 0.30962 0.0
S1691 S 0.9887 0.63078 0.23487 0.0
N1692 N 0.99262 0.6409 0.26568 0.0
N1693 N 0.99152 0.60792 0.23573 0.0
C1694 C 0.99592 0.60774 0.26196 0.0
C1695 C 0.99638 0.62549 0.27819 0.0
C1696 C 0.38786 0.40561 0.31424 0.0
C1697 C 0.38168 0.38225 0.31275 0.0
C1698 C 0.40586 0.42245 0.29897 0.0
C1699 C 0.41866 0.41667 0.282 0.0
H1700 H 0.37857 0.41096 0.32708 0.0
H1701 H 0.40991 0.44019 0.30056 0.0
S1702 S 0.4097 0.3582 0.2708 0.0
N1703 N 0.38991 0.35429 0.29272 0.0
N1704 N 0.424 0.38611 0.26438 0.0
C1705 C 0.41288 0.39349 0.28045 0.0
C1706 C 0.39432 0.37625 0.29571 0.0
C1707 C 0.31788 0.26874 0.37529 0.0
C1708 C 0.32572 0.29052 0.38732 0.0
C1709 C 0.31819 0.25093 0.3891 0.0
C1710 C 0.32578 0.25415 0.41558 0.0
H1711 H 0.31203 0.26565 0.35488 0.0
H1712 H 0.31238 0.23452 0.37907 0.0
S1713 S 0.34697 0.30739 0.45647 0.0
N1714 N 0.34082 0.31399 0.42749 0.0
N1715 N 0.34076 0.28037 0.45345 0.0
C1716 C 0.33314 0.2756 0.42796 0.0
C1717 C 0.33327 0.29382 0.41383 0.0
C1718 C 0.6998 0.04253 0.41197 0.0
C1719 C 0.7032 0.03963 0.38493 0.0
C1720 C 0.71717 0.0606 0.42713 0.0
C1721 C 0.73819 0.07661 0.41549 0.0
H1722 H 0.68389 0.03042 0.42163 0.0
H1723 H 0.7142 0.06208 0.44804 0.0
S1724 S 0.75527 0.0771 0.34538 0.0
N1725 N 0.72907 0.0545 0.34714 0.0
N1726 N 0.76135 0.08871 0.37551 0.0
C1727 C 0.74159 0.07418 0.38843 0.0
C1728 C 0.72417 0.0556 0.37316 0.0
C1729 C 0.94683 0.66156 0.3896 0.0
C1730 C 0.96689 0.68204 0.38247 0.0
C1731 C 0.93 0.66208 0.40513 0.0
C1732 C 0.93274 0.68308 0.41461 0.0
H1733 H 0.94408 0.64495 0.38312 0.0
H1734 H 0.91472 0.64581 0.40979 0.0
S1735 S 0.98288 0.74154 0.40248 0.0
N1736 N 0.98881 0.7239 0.38606 0.0
N1737 N 0.95759 0.72493 0.41625 0.0
C1738 C 0.95278 0.70374 0.40755 0.0
C1739 C 0.96977 0.7032 0.39127 0.0
C1740 C 0.41147 0.02571 0.70316 0.0
C1741 C 0.3896 0.01734 0.71415 0.0
C1742 C 0.42899 0.02598 0.71798 0.0
C1743 C 0.42534 0.01846 0.74444 0.0
H1744 H 0.41493 0.03163 0.68284 0.0
H1745 H 0.44552 0.03224 0.70876 0.0
S1746 S 0.37159 0.99588 0.78277 0.0
N1747 N 0.36553 0.00176 0.75332 0.0
N1748 N 0.39854 0.0028 0.78113 0.0
C1749 C 0.40374 0.01048 0.75576 0.0
C1750 C 0.38584 0.00979 0.74062 0.0
C1751 C 0.0154 0.38455 0.7364 0.0
C1752 C 0.99981 0.37566 0.71509 0.0
C1753 C 0.01682 0.40206 0.75319 0.0
C1754 C 1.00253 0.41101 0.74932 0.0
H1755 H 0.02652 0.3779 0.74025 0.0
H1756 H 0.0289 0.40842 0.76947 0.0
S1757 S 0.95959 0.3947 0.6962 0.0
N1758 N 0.97046 0.37812 0.69069 0.0
N1759 N 0.97292 0.41051 0.7227 0.0
C1760 C 0.98711 0.40255 0.72811 0.0
C1761 C 0.9858 0.38499 0.71085 0.0
C1762 C 0.62359 0.63054 0.74152 0.0
C1763 C 0.62678 0.62561 0.71514 0.0
C1764 C 0.60511 0.6142 0.75676 0.0
C1765 C 0.589 0.59237 0.7461 0.0
H1766 H 0.63566 0.64701 0.75064 0.0
H1767 H 0.60364 0.61856 0.77718 0.0
S1768 S 0.58842 0.57191 0.67706 0.0
N1769 N 0.61165 0.59784 0.67854 0.0
N1770 N 0.57662 0.56749 0.70679 0.0
C1771 C 0.59171 0.58751 0.71948 0.0
C1772 C 0.61065 0.60403 0.70411 0.0
C1773 C 0.6614 0.71641 0.6373 0.0
C1774 C 0.68217 0.71819 0.64415 0.0
C1775 C 0.66085 0.73345 0.6224 0.0
C1776 C 0.68104 0.75288 0.61315 0.0
H1777 H 0.64532 0.70158 0.64339 0.0
H1778 H 0.64434 0.73121 0.6179 0.0
S1779 S 0.74001 0.76551 0.62538 0.0
N1780 N 0.72351 0.74102 0.64102 0.0
N1781 N 0.72259 0.77275 0.61202 0.0
C1782 C 0.70204 0.75508 0.62023 0.0
C1783 C 0.70257 0.73781 0.63592 0.0
C1784 C 0.3032 0.95196 0.61859 0.0
C1785 C 0.29734 0.96251 0.63899 0.0
C1786 C 0.28631 0.93375 0.60312 0.0
C1787 C 0.26305 0.92576 0.60727 0.0
H1788 H 0.32094 0.95776 0.61452 0.0
H1789 H 0.29147 0.92609 0.58758 0.0
S1790 S 0.23839 0.9465 0.65857 0.0
N1791 N 0.26626 0.96264 0.66302 0.0
N1792 N 0.23483 0.92898 0.63342 0.0
C1793 C 0.25691 0.93595 0.62758 0.0
C1794 C 0.27399 0.95419 0.64359 0.0
C1795 C 0.0526 0.34198 0.6234 0.0
C1796 C 0.03657 0.3223 0.63747 0.0
C1797 C 0.07013 0.34208 0.60861 0.0
C1798 C 0.07213 0.32241 0.60698 0.0
H1799 H 0.05173 0.35755 0.62389 0.0
H1800 H 0.08207 0.35761 0.59808 0.0
S1801 S 0.0348 0.2665 0.64012 0.0
N1802 N 0.02403 0.28262 0.64894 0.0
N1803 N 0.05692 0.28283 0.62088 0.0
C1804 C 0.05626 0.3026 0.62086 0.0
C1805 C 0.03852 0.30255 0.6362 0.0
C1806 C 0.26155 0.31493 0.65051 0.0
C1807 C 0.28342 0.32274 0.63987 0.0
C1808 C 0.24446 0.31512 0.63534 0.0
C1809 C 0.24852 0.32252 0.60883 0.0
H1810 H 0.25777 0.30912 0.67086 0.0
H1811 H 0.22793 0.3093 0.64432 0.0
S1812 S 0.30246 0.34352 0.57129 0.0
N1813 N 0.30798 0.33757 0.60102 0.0
N1814 N 0.27571 0.33733 0.57243 0.0
C1815 C 0.27012 0.32987 0.59782 0.0
C1816 C 0.28762 0.33014 0.61337 0.0
C1817 C 0.6618 0.95475 0.61801 0.0
C1818 C 0.66865 0.95773 0.64472 0.0
C1819 C 0.66194 0.93762 0.60201 0.0
C1820 C 0.66877 0.92281 0.61228 0.0
H1821 H 0.65701 0.96618 0.60918 0.0
H1822 H 0.65719 0.93631 0.5813 0.0
S1823 S 0.68547 0.92185 0.68197 0.0
N1824 N 0.68084 0.94353 0.68128 0.0
N1825 N 0.68045 0.91095 0.65151 0.0
C1826 C 0.67477 0.92509 0.63927 0.0
C1827 C 0.67486 0.94265 0.65541 0.0
C1828 C 0.05028 0.7085 0.61986 0.0
C1829 C 0.04766 0.71363 0.64639 0.0
C1830 C 0.06813 0.72493 0.60398 0.0
C1831 C 0.08424 0.74682 0.6143 0.0
H1832 H 0.03823 0.69184 0.61113 0.0
H1833 H 0.0694 0.72048 0.58352 0.0
S1834 S 0.0854 0.76868 0.68254 0.0
N1835 N 0.06286 0.74222 0.68223 0.0
N1836 N 0.09666 0.77277 0.6525 0.0
C1837 C 0.08205 0.75205 0.64082 0.0
C1838 C 0.06367 0.73553 0.65684 0.0
C1839 C 0.97521 0.5994 0.71906 0.0
C1840 C 0.99472 0.62178 0.71904 0.0
C1841 C 0.97504 0.58123 0.73263 0.0
C1842 C 0.99449 0.58466 0.74628 0.0
H1843 H 0.95985 0.59595 0.70884 0.0
H1844 H 0.95962 0.56433 0.73231 0.0
S1845 S 0.04989 0.6398 0.75244 0.0
N1846 N 0.03405 0.64616 0.73404 0.0
N1847 N 0.03359 0.61211 0.75925 0.0
C1848 C 0.0141 0.60685 0.74625 0.0
C1849 C 0.01424 0.62536 0.73273 0.0
C1850 C 0.39282 0.37755 0.72491 0.0
C1851 C 0.37176 0.3757 0.71971 0.0
C1852 C 0.40964 0.39595 0.74005 0.0
C1853 C 0.40631 0.41359 0.75009 0.0
H1854 H 0.3963 0.36455 0.71747 0.0
H1855 H 0.42534 0.39625 0.74403 0.0
S1856 S 0.35467 0.41767 0.73989 0.0
N1857 N 0.34857 0.3932 0.72496 0.0
N1858 N 0.38062 0.42858 0.75218 0.0
C1859 C 0.38538 0.41211 0.74458 0.0
C1860 C 0.36802 0.393 0.72969 0.0
C1861 C 0.62292 0.02372 0.7099 0.0
C1862 C 0.63639 0.0158 0.72116 0.0
C1863 C 0.60573 0.02433 0.72475 0.0
C1864 C 0.60188 0.01766 0.75152 0.0
H1865 H 0.62525 0.02885 0.68929 0.0
H1866 H 0.59534 0.03003 0.71526 0.0
S1867 S 0.63333 0.99692 0.79069 0.0
N1868 N 0.64513 0.00179 0.7609 0.0
N1869 N 0.61328 0.00361 0.7889 0.0
C1870 C 0.61566 0.01037 0.7632 0.0
C1871 C 0.63279 0.00927 0.74798 0.0
loop_
_geom_bond_atom_site_label_1
_geom_bond_atom_site_label_2
_geom_bond_distance
_geom_bond_site_symmetry_2
_ccdc_geom_bond_type
Co0 O1 2.216 . S
Co0 O2 2.091 . S
Co0 O4 2.004 1_554 S
Co0 O10 2.021 . S
Co0 O12 2.137 1_454 S
Co0 O13 2.244 1_455 S
O1 Co0 2.216 . S
O1 C8 1.247 . S
O2 Co0 2.091 . S
O2 C8 1.261 . S
C3 O12 1.247 . S
C3 O13 1.272 1_556 S
O4 Co0 2.004 1_556 S
O4 C9 1.259 . S
Co5 O6 2.061 1_554 S
Co5 O11 2.052 . S
Co5 O13 2.135 . S
O6 Co5 2.061 1_556 S
O6 C9 1.235 1_655 S
C7 O10 1.238 1_655 S
C7 O11 1.241 . S
C8 O1 1.247 . S
C8 O2 1.261 . S
C9 O4 1.259 . S
C9 O6 1.235 1_455 S
O10 Co0 2.021 . S
O10 C7 1.238 1_455 S
O11 Co5 2.052 . S
O11 C7 1.241 . S
O12 Co0 2.137 1_656 S
O12 C3 1.247 . S
O13 Co0 2.244 1_655 S
O13 C3 1.272 1_554 S
O13 Co5 2.135 . S
Co14 O15 2.216 1_554 S
Co14 O16 2.091 . S
Co14 O18 2.004 . S
Co14 O24 2.021 1_554 S
Co14 O26 2.137 . S
Co14 O27 2.244 . S
O15 Co14 2.216 1_556 S
O15 C22 1.247 . S
O16 Co14 2.091 . S
O16 C22 1.261 1_554 S
C17 O26 1.247 . S
C17 O27 1.272 . S
O18 Co14 2.004 . S
O18 C23 1.259 . S
Co19 O20 2.061 . S
Co19 O25 2.052 1_554 S
Co19 O27 2.135 . S
O20 Co19 2.061 . S
O20 C23 1.235 . S
C21 O24 1.238 . S
C21 O25 1.241 . S
C22 O15 1.247 . S
C22 O16 1.261 1_556 S
C23 O18 1.259 . S
C23 O20 1.235 . S
O24 Co14 2.021 1_556 S
O24 C21 1.238 . S
O25 Co19 2.052 1_556 S
O25 C21 1.241 . S
O26 Co14 2.137 . S
O26 C17 1.247 . S
O27 Co14 2.244 . S
O27 C17 1.272 . S
O27 Co19 2.135 . S
Co28 O29 2.216 1_554 S
Co28 O30 2.091 . S
Co28 O32 2.004 . S
Co28 O38 2.021 1_554 S
Co28 O40 2.137 1_545 S
Co28 O41 2.244 1_545 S
O29 Co28 2.216 1_556 S
O29 C36 1.247 . S
O30 Co28 2.091 . S
O30 C36 1.261 1_554 S
C31 O40 1.247 . S
C31 O41 1.272 . S
O32 Co28 2.004 . S
O32 C37 1.259 . S
Co33 O34 2.061 . S
Co33 O39 2.052 1_554 S
Co33 O41 2.135 . S
O34 Co33 2.061 . S
O34 C37 1.235 1_565 S
C35 O38 1.238 1_565 S
C35 O39 1.241 . S
C36 O29 1.247 . S
C36 O30 1.261 1_556 S
C37 O32 1.259 . S
C37 O34 1.235 1_545 S
O38 Co28 2.021 1_556 S
O38 C35 1.238 1_545 S
O39 Co33 2.052 1_556 S
O39 C35 1.241 . S
O40 Co28 2.137 1_565 S
O40 C31 1.247 . S
O41 Co28 2.244 1_565 S
O41 C31 1.272 . S
O41 Co33 2.135 . S
Co42 O43 2.216 1_554 S
Co42 O44 2.091 . S
Co42 O46 2.004 . S
Co42 O52 2.021 1_554 S
Co42 O54 2.137 1_655 S
Co42 O55 2.244 1_655 S
O43 Co42 2.216 1_556 S
O43 C50 1.247 . S
O44 Co42 2.091 . S
O44 C50 1.261 1_554 S
C45 O54 1.247 . S
C45 O55 1.272 . S
O46 Co42 2.004 . S
O46 C51 1.308 . S
Co47 O48 2.061 . S
Co47 O53 2.052 1_554 S
Co47 O55 2.135 . S
O48 Co47 2.061 . S
O48 C51 1.185 1_455 S
C49 O52 1.238 1_455 S
C49 O53 1.241 . S
C50 O43 1.247 . S
C50 O44 1.261 1_556 S
C51 O46 1.308 . S
C51 O48 1.185 1_655 S
O52 Co42 2.021 1_556 S
O52 C49 1.238 1_655 S
O53 Co47 2.052 1_556 S
O53 C49 1.241 . S
O54 Co42 2.137 1_455 S
O54 C45 1.247 . S
O55 Co42 2.244 1_455 S
O55 C45 1.272 . S
O55 Co47 2.135 . S
Co56 O57 2.216 . S
Co56 O58 2.091 . S
Co56 O60 2.004 1_554 S
Co56 O66 2.021 . S
Co56 O68 2.137 1_554 S
Co56 O69 2.244 1_554 S
O57 Co56 2.216 . S
O57 C64 1.247 . S
O58 Co56 2.091 . S
O58 C64 1.261 . S
C59 O68 1.247 . S
C59 O69 1.272 . S
O60 Co56 2.004 1_556 S
O60 C65 1.259 . S
Co61 O62 2.061 . S
Co61 O67 2.052 1_556 S
Co61 O69 2.135 . S
O62 Co61 2.061 . S
O62 C65 1.235 . S
C63 O66 1.238 . S
C63 O67 1.241 . S
C64 O57 1.247 . S
C64 O58 1.261 . S
C65 O60 1.259 . S
C65 O62 1.235 . S
O66 Co56 2.021 . S
O66 C63 1.238 . S
O67 Co61 2.052 1_554 S
O67 C63 1.241 . S
O68 Co56 2.137 1_556 S
O68 C59 1.247 . S
O69 Co56 2.244 1_556 S
O69 C59 1.272 . S
O69 Co61 2.135 . S
Co70 O71 2.216 . S
Co70 O72 2.091 . S
Co70 O74 2.004 1_554 S
Co70 O80 2.021 . S
Co70 O82 2.137 1_564 S
Co70 O83 2.244 1_565 S
O71 Co70 2.216 . S
O71 C78 1.247 . S
O72 Co70 2.091 . S
O72 C78 1.261 . S
C73 O82 1.247 . S
C73 O83 1.272 1_556 S
O74 Co70 2.004 1_556 S
O74 C79 1.310 . S
Co75 O76 2.061 1_554 S
Co75 O81 2.052 . S
Co75 O83 2.135 . S
O76 Co75 2.061 1_556 S
O76 C79 1.185 1_545 S
C77 O80 1.238 1_545 S
C77 O81 1.241 . S
C78 O71 1.247 . S
C78 O72 1.261 . S
C79 O74 1.310 . S
C79 O76 1.185 1_565 S
O80 Co70 2.021 . S
O80 C77 1.238 1_565 S
O81 Co75 2.052 . S
O81 C77 1.241 . S
O82 Co70 2.137 1_546 S
O82 C73 1.247 . S
O83 Co70 2.244 1_545 S
O83 C73 1.272 1_554 S
O83 Co75 2.135 . S
Co84 O85 2.216 . S
Co84 O86 2.091 . S
Co84 O88 2.004 . S
Co84 O94 2.021 . S
Co84 O96 2.137 . S
Co84 O97 2.244 . S
O85 Co84 2.216 . S
O85 C92 1.247 . S
O86 Co84 2.091 . S
O86 C92 1.261 . S
C87 O96 1.247 . S
C87 O97 1.272 . S
O88 Co84 2.004 . S
O88 C93 1.259 . S
Co89 O90 2.061 . S
Co89 O95 2.052 . S
Co89 O97 2.135 . S
O90 Co89 2.061 . S
O90 C93 1.235 . S
C91 O94 1.238 . S
C91 O95 1.241 . S
C92 O85 1.247 . S
C92 O86 1.261 . S
C93 O88 1.259 . S
C93 O90 1.235 . S
O94 Co84 2.021 . S
O94 C91 1.238 . S
O95 Co89 2.052 . S
O95 C91 1.241 . S
O96 Co84 2.137 . S
O96 C87 1.247 . S
O97 Co84 2.244 . S
O97 C87 1.272 . S
O97 Co89 2.135 . S
Co98 O99 2.216 1_565 S
Co98 O100 2.091 . S
Co98 O102 2.004 . S
Co98 O108 2.021 . S
Co98 O110 2.137 1_565 S
Co98 O111 2.244 1_565 S
O99 Co98 2.216 1_545 S
O99 C106 1.247 1_545 S
O100 Co98 2.091 . S
O100 C106 1.261 . S
C101 O110 1.247 . S
C101 O111 1.272 . S
O102 Co98 2.004 . S
O102 C107 1.259 . S
Co103 O104 2.061 . S
Co103 O109 2.052 . S
Co103 O111 2.135 1_565 S
O104 Co103 2.061 . S
O104 C107 1.235 . S
C105 O108 1.238 . S
C105 O109 1.241 . S
C106 O99 1.247 1_565 S
C106 O100 1.261 . S
C107 O102 1.259 . S
C107 O104 1.235 . S
O108 Co98 2.021 . S
O108 C105 1.238 . S
O109 Co103 2.052 . S
O109 C105 1.241 . S
O110 Co98 2.137 1_545 S
O110 C101 1.247 . S
O111 Co98 2.244 1_545 S
O111 C101 1.272 . S
O111 Co103 2.135 1_545 S
Co112 O113 2.211 1_455 S
Co112 O114 2.091 . S
Co112 O116 2.004 . S
Co112 O122 2.021 . S
Co112 O124 2.137 1_455 S
Co112 O125 2.244 1_455 S
O113 Co112 2.211 1_655 S
O113 C120 1.246 1_655 S
O114 Co112 2.091 . S
O114 C120 1.261 . S
C115 O124 1.247 . S
C115 O125 1.272 . S
O116 Co112 2.004 . S
O116 C121 1.259 . S
Co117 O118 2.061 . S
Co117 O123 2.052 . S
Co117 O125 2.135 1_455 S
O118 Co117 2.061 . S
O118 C121 1.235 . S
C119 O122 1.238 . S
C119 O123 1.241 . S
C120 O113 1.246 1_455 S
C120 O114 1.261 . S
C121 O116 1.259 . S
C121 O118 1.235 . S
O122 Co112 2.021 . S
O122 C119 1.238 . S
O123 Co117 2.052 . S
O123 C119 1.241 . S
O124 Co112 2.137 1_655 S
O124 C115 1.247 . S
O125 Co112 2.244 1_655 S
O125 C115 1.272 . S
O125 Co117 2.135 1_655 S
Co126 O127 2.216 1_565 S
Co126 O128 2.091 . S
Co126 O130 2.004 . S
Co126 O136 2.021 . S
Co126 O138 2.137 1_565 S
Co126 O139 2.244 1_565 S
O127 Co126 2.216 1_545 S
O127 C134 1.247 1_545 S
O128 Co126 2.091 . S
O128 C134 1.261 . S
C129 O138 1.247 . S
C129 O139 1.272 . S
O130 Co126 2.004 . S
O130 C135 1.259 . S
Co131 O132 2.061 . S
Co131 O137 2.052 . S
Co131 O139 2.135 1_565 S
O132 Co131 2.061 . S
O132 C135 1.235 . S
C133 O136 1.238 . S
C133 O137 1.241 . S
C134 O127 1.247 1_565 S
C134 O128 1.261 . S
C135 O130 1.259 . S
C135 O132 1.235 . S
O136 Co126 2.021 . S
O136 C133 1.238 . S
O137 Co131 2.052 . S
O137 C133 1.241 . S
O138 Co126 2.137 1_545 S
O138 C129 1.247 . S
O139 Co126 2.244 1_545 S
O139 C129 1.272 . S
O139 Co131 2.135 1_545 S
Co140 O141 2.216 1_455 S
Co140 O142 2.091 1_455 S
Co140 O144 2.004 . S
Co140 O150 2.021 . S
Co140 O152 2.137 1_455 S
Co140 O153 2.244 . S
O141 Co140 2.216 1_655 S
O141 C148 1.247 . S
O142 Co140 2.091 1_655 S
O142 C148 1.261 . S
C143 O152 1.247 1_455 S
C143 O153 1.272 . S
O144 Co140 2.004 . S
O144 C149 1.259 . S
Co145 O146 2.061 . S
Co145 O151 2.052 . S
Co145 O153 2.135 . S
O146 Co145 2.061 . S
O146 C149 1.235 . S
C147 O150 1.238 . S
C147 O151 1.241 . S
C148 O141 1.247 . S
C148 O142 1.261 . S
C149 O144 1.259 . S
C149 O146 1.235 . S
O150 Co140 2.021 . S
O150 C147 1.238 . S
O151 Co145 2.052 . S
O151 C147 1.241 . S
O152 Co140 2.137 1_655 S
O152 C143 1.247 1_655 S
O153 Co140 2.244 . S
O153 C143 1.272 . S
O153 Co145 2.135 . S
Co154 O155 2.216 . S
Co154 O156 2.091 . S
Co154 O158 2.004 . S
Co154 O164 2.021 . S
Co154 O166 2.137 . S
Co154 O167 2.244 . S
O155 Co154 2.216 . S
O155 C162 1.247 . S
O156 Co154 2.091 . S
O156 C162 1.261 . S
C157 O166 1.247 . S
C157 O167 1.272 . S
O158 Co154 2.004 . S
O158 C163 1.259 . S
Co159 O160 2.061 . S
Co159 O165 2.052 . S
Co159 O167 2.135 . S
O160 Co159 2.061 . S
O160 C163 1.235 . S
C161 O164 1.238 . S
C161 O165 1.241 . S
C162 O155 1.247 . S
C162 O156 1.261 . S
C163 O158 1.259 . S
C163 O160 1.235 . S
O164 Co154 2.021 . S
O164 C161 1.238 . S
O165 Co159 2.052 . S
O165 C161 1.241 . S
O166 Co154 2.137 . S
O166 C157 1.247 . S
O167 Co154 2.244 . S
O167 C157 1.272 . S
O167 Co159 2.135 . S
Co168 O169 2.216 1_545 S
Co168 O170 2.091 . S
Co168 O172 2.004 . S
Co168 O178 2.021 . S
Co168 O180 2.137 1_545 S
Co168 O181 2.244 1_545 S
O169 Co168 2.216 1_565 S
O169 C176 1.247 1_565 S
O170 Co168 2.091 . S
O170 C176 1.261 . S
C171 O180 1.247 . S
C171 O181 1.272 . S
O172 Co168 2.004 . S
O172 C177 1.259 . S
Co173 O174 2.061 . S
Co173 O179 2.052 . S
Co173 O181 2.135 1_545 S
O174 Co173 2.061 . S
O174 C177 1.235 . S
C175 O178 1.238 . S
C175 O179 1.241 . S
C176 O169 1.247 1_545 S
C176 O170 1.261 . S
C177 O172 1.259 . S
C177 O174 1.235 . S
O178 Co168 2.021 . S
O178 C175 1.238 . S
O179 Co173 2.052 . S
O179 C175 1.241 . S
O180 Co168 2.137 1_565 S
O180 C171 1.247 . S
O181 Co168 2.244 1_565 S
O181 C171 1.272 . S
O181 Co173 2.135 1_565 S
Co182 O183 2.216 1_655 S
Co182 O184 2.091 1_655 S
Co182 O186 2.004 . S
Co182 O192 2.021 . S
Co182 O194 2.137 1_655 S
Co182 O195 2.244 . S
O183 Co182 2.216 1_455 S
O183 C190 1.247 . S
O184 Co182 2.091 1_455 S
O184 C190 1.261 . S
C185 O194 1.247 1_655 S
C185 O195 1.272 . S
O186 Co182 2.004 . S
O186 C191 1.259 . S
Co187 O188 2.061 . S
Co187 O193 2.052 . S
Co187 O195 2.135 . S
O188 Co187 2.061 . S
O188 C191 1.235 . S
C189 O192 1.238 . S
C189 O193 1.241 . S
C190 O183 1.247 . S
C190 O184 1.261 . S
C191 O186 1.259 . S
C191 O188 1.235 . S
O192 Co182 2.021 . S
O192 C189 1.238 . S
O193 Co187 2.052 . S
O193 C189 1.241 . S
O194 Co182 2.137 1_455 S
O194 C185 1.247 1_455 S
O195 Co182 2.244 . S
O195 C185 1.272 . S
O195 Co187 2.135 . S
Co196 O197 2.216 . S
Co196 O198 2.091 . S
Co196 O200 2.004 . S
Co196 O206 2.021 . S
Co196 O208 2.137 . S
Co196 O209 2.244 . S
O197 Co196 2.216 . S
O197 C204 1.247 . S
O198 Co196 2.091 . S
O198 C204 1.261 . S
C199 O208 1.247 . S
C199 O209 1.272 . S
O200 Co196 2.004 . S
O200 C205 1.259 . S
Co201 O202 2.061 . S
Co201 O207 2.052 . S
Co201 O209 2.135 . S
O202 Co201 2.061 . S
O202 C205 1.235 . S
C203 O206 1.238 . S
C203 O207 1.241 . S
C204 O197 1.247 . S
C204 O198 1.261 . S
C205 O200 1.259 . S
C205 O202 1.235 . S
O206 Co196 2.021 . S
O206 C203 1.238 . S
O207 Co201 2.052 . S
O207 C203 1.241 . S
O208 Co196 2.137 . S
O208 C199 1.247 . S
O209 Co196 2.244 . S
O209 C199 1.272 . S
O209 Co201 2.135 . S
Co210 O211 2.216 . S
Co210 O212 2.091 . S
Co210 O214 2.004 . S
Co210 O220 2.021 . S
Co210 O222 2.137 . S
Co210 O223 2.244 . S
O211 Co210 2.216 . S
O211 C218 1.247 . S
O212 Co210 2.091 . S
O212 C218 1.261 . S
C213 O222 1.247 . S
C213 O223 1.272 . S
O214 Co210 2.004 . S
O214 C219 1.259 . S
Co215 O216 2.061 . S
Co215 O221 2.052 . S
Co215 O223 2.135 . S
O216 Co215 2.061 . S
O216 C219 1.235 . S
C217 O220 1.238 . S
C217 O221 1.241 . S
C218 O211 1.247 . S
C218 O212 1.261 . S
C219 O214 1.259 . S
C219 O216 1.235 . S
O220 Co210 2.021 . S
O220 C217 1.238 . S
O221 Co215 2.052 . S
O221 C217 1.241 . S
O222 Co210 2.137 . S
O222 C213 1.247 . S
O223 Co210 2.244 . S
O223 C213 1.272 . S
O223 Co215 2.135 . S
Co224 O225 2.216 1_545 S
Co224 O226 2.091 . S
Co224 O228 2.004 . S
Co224 O234 2.021 . S
Co224 O236 2.137 1_545 S
Co224 O237 2.244 1_545 S
O225 Co224 2.216 1_565 S
O225 C232 1.247 1_565 S
O226 Co224 2.091 . S
O226 C232 1.261 . S
C227 O236 1.247 . S
C227 O237 1.272 . S
O228 Co224 2.004 . S
O228 C233 1.259 . S
Co229 O230 2.061 . S
Co229 O235 2.052 . S
Co229 O237 2.135 1_545 S
O230 Co229 2.061 . S
O230 C233 1.235 . S
C231 O234 1.238 . S
C231 O235 1.241 . S
C232 O225 1.247 1_545 S
C232 O226 1.261 . S
C233 O228 1.259 . S
C233 O230 1.235 . S
O234 Co224 2.021 . S
O234 C231 1.238 . S
O235 Co229 2.052 . S
O235 C231 1.241 . S
O236 Co224 2.137 1_565 S
O236 C227 1.247 . S
O237 Co224 2.244 1_565 S
O237 C227 1.272 . S
O237 Co229 2.135 1_565 S
Co238 O239 2.193 1_655 S
Co238 O240 2.091 . S
Co238 O242 2.004 . S
Co238 O248 2.021 . S
Co238 O250 2.137 1_655 S
Co238 O251 2.244 1_655 S
O239 Co238 2.193 1_455 S
O239 C246 1.246 1_455 S
O240 Co238 2.091 . S
O240 C246 1.261 . S
C241 O250 1.247 . S
C241 O251 1.272 . S
O242 Co238 2.004 . S
O242 C247 1.259 . S
Co243 O244 2.061 . S
Co243 O249 2.052 . S
Co243 O251 2.135 1_655 S
O244 Co243 2.061 . S
O244 C247 1.235 . S
C245 O248 1.238 . S
C245 O249 1.241 . S
C246 O239 1.246 1_655 S
C246 O240 1.261 . S
C247 O242 1.259 . S
C247 O244 1.235 . S
O248 Co238 2.021 . S
O248 C245 1.238 . S
O249 Co243 2.052 . S
O249 C245 1.241 . S
O250 Co238 2.137 1_455 S
O250 C241 1.247 . S
O251 Co238 2.244 1_455 S
O251 C241 1.272 . S
O251 Co243 2.135 1_455 S
C252 C253 1.384 . S
C252 C254 1.384 . S
C252 H280 0.931 . S
C253 C252 1.384 . S
C253 C256 1.382 . S
C254 C252 1.384 . S
C254 C255 1.381 . S
C254 H281 0.930 . S
C255 C254 1.381 . S
C255 C257 1.381 . S
C255 C258 1.487 . S
C256 C253 1.382 . S
C256 C257 1.387 . S
C256 H282 0.930 . S
C257 C255 1.381 . S
C257 C256 1.387 . S
C257 H283 0.931 . S
C258 C255 1.487 . S
C258 C265 1.399 . S
C258 N296 1.343 . S
C259 C260 1.384 . S
C259 C261 1.384 . S
C259 H284 0.931 . S
C260 C259 1.384 . S
C260 C263 1.382 . S
C261 C259 1.384 . S
C261 C262 1.381 . S
C261 H285 0.930 . S
C262 C261 1.381 . S
C262 C264 1.381 . S
C262 C265 1.487 . S
C263 C260 1.382 . S
C263 C264 1.387 . S
C263 H286 0.930 . S
C264 C262 1.381 . S
C264 C263 1.387 . S
C264 H287 0.931 . S
C265 C258 1.399 . S
C265 C262 1.487 . S
C265 N297 1.343 . S
C266 C267 1.384 . S
C266 C268 1.384 . S
C266 H288 0.931 . S
C267 C266 1.384 . S
C267 C270 1.382 . S
C268 C266 1.384 . S
C268 C269 1.381 . S
C268 H289 0.930 . S
C269 C268 1.381 . S
C269 C271 1.381 . S
C269 C272 1.487 . S
C270 C267 1.382 . S
C270 C271 1.387 . S
C270 H290 0.930 . S
C271 C269 1.381 . S
C271 C270 1.387 . S
C271 H291 0.931 . S
C272 C269 1.487 . S
C272 C279 1.399 . S
C272 N297 1.343 . S
C273 C274 1.384 . S
C273 C275 1.384 . S
C273 H292 0.931 . S
C274 C273 1.384 . S
C274 C277 1.382 . S
C275 C273 1.384 . S
C275 C276 1.381 . S
C275 H293 0.930 . S
C276 C275 1.381 . S
C276 C278 1.381 . S
C276 C279 1.487 . S
C277 C274 1.382 . S
C277 C278 1.387 . S
C277 H294 0.930 . S
C278 C276 1.381 . S
C278 C277 1.387 . S
C278 H295 0.931 . S
C279 C272 1.399 . S
C279 C276 1.487 . S
C279 N296 1.343 . S
H280 C252 0.931 . S
H281 C254 0.930 . S
H282 C256 0.930 . S
H283 C257 0.931 . S
H284 C259 0.931 . S
H285 C261 0.930 . S
H286 C263 0.930 . S
H287 C264 0.931 . S
H288 C266 0.931 . S
H289 C268 0.930 . S
H290 C270 0.930 . S
H291 C271 0.931 . S
H292 C273 0.931 . S
H293 C275 0.930 . S
H294 C277 0.930 . S
H295 C278 0.931 . S
N296 C258 1.343 . S
N296 C279 1.343 . S
N297 C265 1.343 . S
N297 C272 1.343 . S
C298 C299 1.384 . S
C298 C300 1.384 . S
C298 H326 0.931 . S
C299 C298 1.384 . S
C299 C302 1.382 . S
C300 C298 1.384 . S
C300 C301 1.381 . S
C300 H327 0.930 . S
C301 C300 1.381 . S
C301 C303 1.381 . S
C301 C304 1.487 . S
C302 C299 1.382 . S
C302 C303 1.387 . S
C302 H328 0.930 . S
C303 C301 1.381 . S
C303 C302 1.387 . S
C303 H329 0.931 . S
C304 C301 1.487 . S
C304 C311 1.399 . S
C304 N342 1.343 . S
C305 C306 1.384 . S
C305 C307 1.384 . S
C305 H330 0.931 . S
C306 C305 1.384 . S
C306 C309 1.382 . S
C307 C305 1.384 . S
C307 C308 1.381 . S
C307 H331 0.930 . S
C308 C307 1.381 . S
C308 C310 1.381 . S
C308 C311 1.487 . S
C309 C306 1.382 . S
C309 C310 1.387 . S
C309 H332 0.930 . S
C310 C308 1.381 . S
C310 C309 1.387 . S
C310 H333 0.931 . S
C311 C304 1.399 . S
C311 C308 1.487 . S
C311 N343 1.343 . S
C312 C313 1.384 . S
C312 C314 1.384 . S
C312 H334 0.931 . S
C313 C312 1.384 . S
C313 C316 1.382 . S
C314 C312 1.384 . S
C314 C315 1.381 . S
C314 H335 0.930 . S
C315 C314 1.381 . S
C315 C317 1.381 . S
C315 C318 1.487 . S
C316 C313 1.382 . S
C316 C317 1.387 . S
C316 H336 0.930 . S
C317 C315 1.381 . S
C317 C316 1.387 . S
C317 H337 0.931 . S
C318 C315 1.487 . S
C318 C325 1.399 . S
C318 N343 1.343 . S
C319 C320 1.384 . S
C319 C321 1.384 . S
C319 H338 0.931 . S
C320 C319 1.384 . S
C320 C323 1.382 . S
C321 C319 1.384 . S
C321 C322 1.381 . S
C321 H339 0.930 . S
C322 C321 1.381 . S
C322 C324 1.381 . S
C322 C325 1.487 . S
C323 C320 1.382 . S
C323 C324 1.387 . S
C323 H340 0.930 . S
C324 C322 1.381 . S
C324 C323 1.387 . S
C324 H341 0.931 . S
C325 C318 1.399 . S
C325 C322 1.487 . S
C325 N342 1.343 . S
H326 C298 0.931 . S
H327 C300 0.930 . S
H328 C302 0.930 . S
H329 C303 0.931 . S
H330 C305 0.931 . S
H331 C307 0.930 . S
H332 C309 0.930 . S
H333 C310 0.931 . S
H334 C312 0.931 . S
H335 C314 0.930 . S
H336 C316 0.930 . S
H337 C317 0.931 . S
H338 C319 0.931 . S
H339 C321 0.930 . S
H340 C323 0.930 . S
H341 C324 0.931 . S
N342 C304 1.343 . S
N342 C325 1.343 . S
N343 C311 1.343 . S
N343 C318 1.343 . S
C344 C345 1.384 . S
C344 C346 1.384 . S
C344 H372 0.931 . S
C345 C344 1.384 . S
C345 C348 1.382 . S
C346 C344 1.384 . S
C346 C347 1.381 . S
C346 H373 0.930 . S
C347 C346 1.381 . S
C347 C349 1.381 . S
C347 C350 1.487 . S
C348 C345 1.382 . S
C348 C349 1.387 . S
C348 H374 0.930 . S
C349 C347 1.381 . S
C349 C348 1.387 . S
C349 H375 0.931 . S
C350 C347 1.487 . S
C350 C357 1.399 . S
C350 N388 1.343 . S
C351 C352 1.384 . S
C351 C353 1.384 . S
C351 H376 0.931 . S
C352 C351 1.384 . S
C352 C355 1.382 . S
C353 C351 1.384 . S
C353 C354 1.381 . S
C353 H377 0.930 . S
C354 C353 1.381 . S
C354 C356 1.381 . S
C354 C357 1.487 . S
C355 C352 1.382 . S
C355 C356 1.387 . S
C355 H378 0.930 . S
C356 C354 1.381 . S
C356 C355 1.387 . S
C356 H379 0.931 . S
C357 C350 1.399 . S
C357 C354 1.487 . S
C357 N389 1.343 . S
C358 C359 1.384 . S
C358 C360 1.384 . S
C358 H380 0.931 . S
C359 C358 1.384 . S
C359 C362 1.382 . S
C360 C358 1.384 . S
C360 C361 1.381 . S
C360 H381 0.930 . S
C361 C360 1.381 . S
C361 C363 1.381 . S
C361 C364 1.487 . S
C362 C359 1.382 . S
C362 C363 1.387 . S
C362 H382 0.930 . S
C363 C361 1.381 . S
C363 C362 1.387 . S
C363 H383 0.931 . S
C364 C361 1.487 . S
C364 C371 1.399 . S
C364 N389 1.343 . S
C365 C366 1.384 . S
C365 C367 1.384 . S
C365 H384 0.931 . S
C366 C365 1.384 . S
C366 C369 1.382 . S
C367 C365 1.384 . S
C367 C368 1.381 . S
C367 H385 0.930 . S
C368 C367 1.381 . S
C368 C370 1.381 . S
C368 C371 1.487 . S
C369 C366 1.382 . S
C369 C370 1.387 . S
C369 H386 0.930 . S
C370 C368 1.381 . S
C370 C369 1.387 . S
C370 H387 0.931 . S
C371 C364 1.399 . S
C371 C368 1.487 . S
C371 N388 1.343 . S
H372 C344 0.931 . S
H373 C346 0.930 . S
H374 C348 0.930 . S
H375 C349 0.931 . S
H376 C351 0.931 . S
H377 C353 0.930 . S
H378 C355 0.930 . S
H379 C356 0.931 . S
H380 C358 0.931 . S
H381 C360 0.930 . S
H382 C362 0.930 . S
H383 C363 0.931 . S
H384 C365 0.931 . S
H385 C367 0.930 . S
H386 C369 0.930 . S
H387 C370 0.931 . S
N388 C350 1.343 . S
N388 C371 1.343 . S
N389 C357 1.343 . S
N389 C364 1.343 . S
C390 C391 1.384 . S
C390 C392 1.384 . S
C390 H418 0.931 . S
C391 C390 1.384 . S
C391 C394 1.382 . S
C392 C390 1.384 . S
C392 C393 1.381 . S
C392 H419 0.930 . S
C393 C392 1.381 . S
C393 C395 1.381 . S
C393 C396 1.487 . S
C394 C391 1.382 . S
C394 C395 1.387 . S
C394 H420 0.930 . S
C395 C393 1.381 . S
C395 C394 1.387 . S
C395 H421 0.931 . S
C396 C393 1.487 . S
C396 C403 1.399 . S
C396 N434 1.343 . S
C397 C398 1.384 . S
C397 C399 1.384 . S
C397 H422 0.931 . S
C398 C397 1.384 . S
C398 C401 1.382 . S
C399 C397 1.384 . S
C399 C400 1.381 . S
C399 H423 0.930 . S
C400 C399 1.381 . S
C400 C402 1.381 . S
C400 C403 1.487 . S
C401 C398 1.382 . S
C401 C402 1.387 . S
C401 H424 0.930 . S
C402 C400 1.381 . S
C402 C401 1.387 . S
C402 H425 0.931 . S
C403 C396 1.399 . S
C403 C400 1.487 . S
C403 N435 1.343 . S
C404 C405 1.384 . S
C404 C406 1.384 . S
C404 H426 0.931 . S
C405 C404 1.384 . S
C405 C408 1.382 . S
C406 C404 1.384 . S
C406 C407 1.381 . S
C406 H427 0.930 . S
C407 C406 1.381 . S
C407 C409 1.381 . S
C407 C410 1.487 . S
C408 C405 1.382 . S
C408 C409 1.387 . S
C408 H428 0.930 . S
C409 C407 1.381 . S
C409 C408 1.387 . S
C409 H429 0.931 . S
C410 C407 1.487 . S
C410 C417 1.399 . S
C410 N435 1.343 . S
C411 C412 1.384 . S
C411 C413 1.384 . S
C411 H430 0.931 . S
C412 C411 1.384 . S
C412 C415 1.382 . S
C413 C411 1.384 . S
C413 C414 1.381 . S
C413 H431 0.930 . S
C414 C413 1.381 . S
C414 C416 1.381 . S
C414 C417 1.487 . S
C415 C412 1.382 . S
C415 C416 1.387 . S
C415 H432 0.930 . S
C416 C414 1.381 . S
C416 C415 1.387 . S
C416 H433 0.931 . S
C417 C410 1.399 . S
C417 C414 1.487 . S
C417 N434 1.343 . S
H418 C390 0.931 . S
H419 C392 0.930 . S
H420 C394 0.930 . S
H421 C395 0.931 . S
H422 C397 0.931 . S
H423 C399 0.930 . S
H424 C401 0.930 . S
H425 C402 0.931 . S
H426 C404 0.931 . S
H427 C406 0.930 . S
H428 C408 0.930 . S
H429 C409 0.931 . S
H430 C411 0.931 . S
H431 C413 0.930 . S
H432 C415 0.930 . S
H433 C416 0.931 . S
N434 C396 1.343 . S
N434 C417 1.343 . S
N435 C403 1.343 . S
N435 C410 1.343 . S
C436 C437 1.384 . S
C436 C438 1.384 . S
C436 H464 0.931 . S
C437 C436 1.384 . S
C437 C440 1.382 . S
C438 C436 1.384 . S
C438 C439 1.381 . S
C438 H465 0.930 . S
C439 C438 1.381 . S
C439 C441 1.381 . S
C439 C442 1.487 . S
C440 C437 1.382 . S
C440 C441 1.387 . S
C440 H466 0.930 . S
C441 C439 1.381 . S
C441 C440 1.387 . S
C441 H467 0.931 . S
C442 C439 1.487 . S
C442 C449 1.399 . S
C442 N480 1.343 . S
C443 C444 1.384 . S
C443 C445 1.384 . S
C443 H468 0.931 . S
C444 C443 1.384 . S
C444 C447 1.382 . S
C445 C443 1.384 . S
C445 C446 1.381 . S
C445 H469 0.930 . S
C446 C445 1.381 . S
C446 C448 1.381 . S
C446 C449 1.487 . S
C447 C444 1.382 . S
C447 C448 1.387 . S
C447 H470 0.930 . S
C448 C446 1.381 . S
C448 C447 1.387 . S
C448 H471 0.931 . S
C449 C442 1.399 . S
C449 C446 1.487 . S
C449 N481 1.343 . S
C450 C451 1.384 . S
C450 C452 1.384 . S
C450 H472 0.931 . S
C451 C450 1.384 . S
C451 C454 1.382 . S
C452 C450 1.384 . S
C452 C453 1.381 . S
C452 H473 0.930 . S
C453 C452 1.381 . S
C453 C455 1.381 . S
C453 C456 1.487 . S
C454 C451 1.382 . S
C454 C455 1.387 . S
C454 H474 0.930 . S
C455 C453 1.381 . S
C455 C454 1.387 . S
C455 H475 0.931 . S
C456 C453 1.487 . S
C456 C463 1.399 . S
C456 N481 1.343 . S
C457 C458 1.384 . S
C457 C459 1.384 . S
C457 H476 0.931 . S
C458 C457 1.384 . S
C458 C461 1.382 . S
C459 C457 1.384 . S
C459 C460 1.381 . S
C459 H477 0.930 . S
C460 C459 1.381 . S
C460 C462 1.381 . S
C460 C463 1.487 . S
C461 C458 1.382 . S
C461 C462 1.387 . S
C461 H478 0.930 . S
C462 C460 1.381 . S
C462 C461 1.387 . S
C462 H479 0.931 . S
C463 C456 1.399 . S
C463 C460 1.487 . S
C463 N480 1.343 . S
H464 C436 0.931 . S
H465 C438 0.930 . S
H466 C440 0.930 . S
H467 C441 0.931 . S
H468 C443 0.931 . S
H469 C445 0.930 . S
H470 C447 0.930 . S
H471 C448 0.931 . S
H472 C450 0.931 . S
H473 C452 0.930 . S
H474 C454 0.930 . S
H475 C455 0.931 . S
H476 C457 0.931 . S
H477 C459 0.930 . S
H478 C461 0.930 . S
H479 C462 0.931 . S
N480 C442 1.343 . S
N480 C463 1.343 . S
N481 C449 1.343 . S
N481 C456 1.343 . S
C482 C483 1.384 . S
C482 C484 1.384 . S
C482 H510 0.931 . S
C483 C482 1.384 . S
C483 C486 1.382 . S
C484 C482 1.384 . S
C484 C485 1.381 . S
C484 H511 0.930 . S
C485 C484 1.381 . S
C485 C487 1.381 . S
C485 C488 1.487 . S
C486 C483 1.382 . S
C486 C487 1.387 . S
C486 H512 0.930 . S
C487 C485 1.381 . S
C487 C486 1.387 . S
C487 H513 0.931 . S
C488 C485 1.487 . S
C488 C495 1.399 . S
C488 N526 1.343 . S
C489 C490 1.384 . S
C489 C491 1.384 . S
C489 H514 0.931 . S
C490 C489 1.384 . S
C490 C493 1.382 . S
C491 C489 1.384 . S
C491 C492 1.381 . S
C491 H515 0.930 . S
C492 C491 1.381 . S
C492 C494 1.381 . S
C492 C495 1.487 . S
C493 C490 1.382 . S
C493 C494 1.387 . S
C493 H516 0.930 . S
C494 C492 1.381 . S
C494 C493 1.387 . S
C494 H517 0.931 . S
C495 C488 1.399 . S
C495 C492 1.487 . S
C495 N527 1.343 . S
C496 C497 1.384 . S
C496 C498 1.384 . S
C496 H518 0.931 . S
C497 C496 1.384 . S
C497 C500 1.382 . S
C498 C496 1.384 . S
C498 C499 1.381 . S
C498 H519 0.930 . S
C499 C498 1.381 . S
C499 C501 1.381 . S
C499 C502 1.487 . S
C500 C497 1.382 . S
C500 C501 1.387 . S
C500 H520 0.930 . S
C501 C499 1.381 . S
C501 C500 1.387 . S
C501 H521 0.931 . S
C502 C499 1.487 . S
C502 C509 1.399 . S
C502 N527 1.343 . S
C503 C504 1.384 . S
C503 C505 1.384 . S
C503 H522 0.931 . S
C504 C503 1.384 . S
C504 C507 1.382 . S
C505 C503 1.384 . S
C505 C506 1.381 . S
C505 H523 0.930 . S
C506 C505 1.381 . S
C506 C508 1.381 . S
C506 C509 1.487 . S
C507 C504 1.382 . S
C507 C508 1.387 . S
C507 H524 0.930 . S
C508 C506 1.381 . S
C508 C507 1.387 . S
C508 H525 0.931 . S
C509 C502 1.399 . S
C509 C506 1.487 . S
C509 N526 1.343 . S
H510 C482 0.931 . S
H511 C484 0.930 . S
H512 C486 0.930 . S
H513 C487 0.931 . S
H514 C489 0.931 . S
H515 C491 0.930 . S
H516 C493 0.930 . S
H517 C494 0.931 . S
H518 C496 0.931 . S
H519 C498 0.930 . S
H520 C500 0.930 . S
H521 C501 0.931 . S
H522 C503 0.931 . S
H523 C505 0.930 . S
H524 C507 0.930 . S
H525 C508 0.931 . S
N526 C488 1.343 . S
N526 C509 1.343 . S
N527 C495 1.343 . S
N527 C502 1.343 . S
C528 C529 1.384 . S
C528 C530 1.384 . S
C528 H556 0.931 . S
C529 C528 1.384 . S
C529 C532 1.382 . S
C530 C528 1.384 . S
C530 C531 1.381 . S
C530 H557 0.930 . S
C531 C530 1.381 . S
C531 C533 1.381 . S
C531 C534 1.487 . S
C532 C529 1.382 . S
C532 C533 1.387 . S
C532 H558 0.930 . S
C533 C531 1.381 . S
C533 C532 1.387 . S
C533 H559 0.931 . S
C534 C531 1.487 . S
C534 C541 1.399 . S
C534 N572 1.343 . S
C535 C536 1.384 . S
C535 C537 1.384 . S
C535 H560 0.931 . S
C536 C535 1.384 . S
C536 C539 1.382 . S
C537 C535 1.384 . S
C537 C538 1.381 . S
C537 H561 0.930 . S
C538 C537 1.381 . S
C538 C540 1.381 . S
C538 C541 1.487 . S
C539 C536 1.382 . S
C539 C540 1.387 . S
C539 H562 0.930 . S
C540 C538 1.381 . S
C540 C539 1.387 . S
C540 H563 0.931 . S
C541 C534 1.399 . S
C541 C538 1.487 . S
C541 N573 1.343 . S
C542 C543 1.384 . S
C542 C544 1.384 . S
C542 H564 0.931 . S
C543 C542 1.384 . S
C543 C546 1.382 . S
C544 C542 1.384 . S
C544 C545 1.381 . S
C544 H565 0.930 . S
C545 C544 1.381 . S
C545 C547 1.381 . S
C545 C548 1.487 . S
C546 C543 1.382 . S
C546 C547 1.387 . S
C546 H566 0.930 . S
C547 C545 1.381 . S
C547 C546 1.387 . S
C547 H567 0.931 . S
C548 C545 1.487 . S
C548 C555 1.399 . S
C548 N573 1.343 . S
C549 C550 1.384 . S
C549 C551 1.384 . S
C549 H568 0.931 . S
C550 C549 1.384 . S
C550 C553 1.382 . S
C551 C549 1.384 . S
C551 C552 1.381 . S
C551 H569 0.930 . S
C552 C551 1.381 . S
C552 C554 1.381 . S
C552 C555 1.487 . S
C553 C550 1.382 . S
C553 C554 1.387 . S
C553 H570 0.930 . S
C554 C552 1.381 . S
C554 C553 1.387 . S
C554 H571 0.931 . S
C555 C548 1.399 . S
C555 C552 1.487 . S
C555 N572 1.343 . S
H556 C528 0.931 . S
H557 C530 0.930 . S
H558 C532 0.930 . S
H559 C533 0.931 . S
H560 C535 0.931 . S
H561 C537 0.930 . S
H562 C539 0.930 . S
H563 C540 0.931 . S
H564 C542 0.931 . S
H565 C544 0.930 . S
H566 C546 0.930 . S
H567 C547 0.931 . S
H568 C549 0.931 . S
H569 C551 0.930 . S
H570 C553 0.930 . S
H571 C554 0.931 . S
N572 C534 1.343 . S
N572 C555 1.343 . S
N573 C541 1.343 . S
N573 C548 1.343 . S
C574 C575 1.384 . S
C574 C576 1.384 . S
C574 H602 0.931 . S
C575 C574 1.384 . S
C575 C578 1.382 . S
C576 C574 1.384 . S
C576 C577 1.381 . S
C576 H603 0.930 . S
C577 C576 1.381 . S
C577 C579 1.381 . S
C577 C580 1.487 . S
C578 C575 1.382 . S
C578 C579 1.387 . S
C578 H604 0.930 . S
C579 C577 1.381 . S
C579 C578 1.387 . S
C579 H605 0.931 . S
C580 C577 1.487 . S
C580 C587 1.399 . S
C580 N618 1.343 . S
C581 C582 1.384 . S
C581 C583 1.384 . S
C581 H606 0.931 . S
C582 C581 1.384 . S
C582 C585 1.382 . S
C583 C581 1.384 . S
C583 C584 1.381 . S
C583 H607 0.930 . S
C584 C583 1.381 . S
C584 C586 1.381 . S
C584 C587 1.487 . S
C585 C582 1.382 . S
C585 C586 1.387 . S
C585 H608 0.930 . S
C586 C584 1.381 . S
C586 C585 1.387 . S
C586 H609 0.931 . S
C587 C580 1.399 . S
C587 C584 1.487 . S
C587 N619 1.343 . S
C588 C589 1.384 . S
C588 C590 1.384 . S
C588 H610 0.931 . S
C589 C588 1.384 . S
C589 C592 1.382 . S
C590 C588 1.384 . S
C590 C591 1.381 . S
C590 H611 0.930 . S
C591 C590 1.381 . S
C591 C593 1.381 . S
C591 C594 1.487 . S
C592 C589 1.382 . S
C592 C593 1.387 . S
C592 H612 0.930 . S
C593 C591 1.381 . S
C593 C592 1.387 . S
C593 H613 0.931 . S
C594 C591 1.487 . S
C594 C601 1.399 . S
C594 N619 1.343 . S
C595 C596 1.384 . S
C595 C597 1.384 . S
C595 H614 0.931 . S
C596 C595 1.384 . S
C596 C599 1.382 . S
C597 C595 1.384 . S
C597 C598 1.381 . S
C597 H615 0.930 . S
C598 C597 1.381 . S
C598 C600 1.381 . S
C598 C601 1.487 . S
C599 C596 1.382 . S
C599 C600 1.387 . S
C599 H616 0.930 . S
C600 C598 1.381 . S
C600 C599 1.387 . S
C600 H617 0.931 . S
C601 C594 1.399 . S
C601 C598 1.487 . S
C601 N618 1.343 . S
H602 C574 0.931 . S
H603 C576 0.930 . S
H604 C578 0.930 . S
H605 C579 0.931 . S
H606 C581 0.931 . S
H607 C583 0.930 . S
H608 C585 0.930 . S
H609 C586 0.931 . S
H610 C588 0.931 . S
H611 C590 0.930 . S
H612 C592 0.930 . S
H613 C593 0.931 . S
H614 C595 0.931 . S
H615 C597 0.930 . S
H616 C599 0.930 . S
H617 C600 0.931 . S
N618 C580 1.343 . S
N618 C601 1.343 . S
N619 C587 1.343 . S
N619 C594 1.343 . S
C620 C621 1.384 . S
C620 C622 1.384 . S
C620 H648 0.931 . S
C621 C620 1.384 . S
C621 C624 1.382 . S
C622 C620 1.384 . S
C622 C623 1.381 . S
C622 H649 0.930 . S
C623 C622 1.381 . S
C623 C625 1.381 . S
C623 C626 1.487 . S
C624 C621 1.382 . S
C624 C625 1.387 . S
C624 H650 0.930 . S
C625 C623 1.381 . S
C625 C624 1.387 . S
C625 H651 0.931 . S
C626 C623 1.487 . S
C626 C633 1.399 . S
C626 N664 1.343 . S
C627 C628 1.384 . S
C627 C629 1.384 . S
C627 H652 0.931 . S
C628 C627 1.384 . S
C628 C631 1.382 . S
C629 C627 1.384 . S
C629 C630 1.381 . S
C629 H653 0.930 . S
C630 C629 1.381 . S
C630 C632 1.381 . S
C630 C633 1.487 . S
C631 C628 1.382 . S
C631 C632 1.387 . S
C631 H654 0.930 . S
C632 C630 1.381 . S
C632 C631 1.387 . S
C632 H655 0.931 . S
C633 C626 1.399 . S
C633 C630 1.487 . S
C633 N665 1.343 . S
C634 C635 1.384 . S
C634 C636 1.384 . S
C634 H656 0.931 . S
C635 C634 1.384 . S
C635 C638 1.382 . S
C636 C634 1.384 . S
C636 C637 1.381 . S
C636 H657 0.930 . S
C637 C636 1.381 . S
C637 C639 1.381 . S
C637 C640 1.487 . S
C638 C635 1.382 . S
C638 C639 1.387 . S
C638 H658 0.930 . S
C639 C637 1.381 . S
C639 C638 1.387 . S
C639 H659 0.931 . S
C640 C637 1.487 . S
C640 C647 1.399 . S
C640 N665 1.343 . S
C641 C642 1.384 . S
C641 C643 1.384 . S
C641 H660 0.931 . S
C642 C641 1.384 . S
C642 C645 1.382 . S
C643 C641 1.384 . S
C643 C644 1.381 . S
C643 H661 0.930 . S
C644 C643 1.381 . S
C644 C646 1.381 . S
C644 C647 1.487 . S
C645 C642 1.382 . S
C645 C646 1.387 . S
C645 H662 0.930 . S
C646 C644 1.381 . S
C646 C645 1.387 . S
C646 H663 0.931 . S
C647 C640 1.399 . S
C647 C644 1.487 . S
C647 N664 1.343 . S
H648 C620 0.931 . S
H649 C622 0.930 . S
H650 C624 0.930 . S
H651 C625 0.931 . S
H652 C627 0.931 . S
H653 C629 0.930 . S
H654 C631 0.930 . S
H655 C632 0.931 . S
H656 C634 0.931 . S
H657 C636 0.930 . S
H658 C638 0.930 . S
H659 C639 0.931 . S
H660 C641 0.931 . S
H661 C643 0.930 . S
H662 C645 0.930 . S
H663 C646 0.931 . S
N664 C626 1.343 . S
N664 C647 1.343 . S
N665 C633 1.343 . S
N665 C640 1.343 . S
C666 C667 1.384 . S
C666 C668 1.384 . S
C666 H694 0.931 . S
C667 C666 1.384 . S
C667 C670 1.382 1_655 S
C668 C666 1.384 . S
C668 C669 1.408 . S
C668 H695 0.930 . S
C669 C668 1.408 . S
C669 C671 1.368 1_655 S
C669 C672 1.471 1_655 S
C670 C667 1.382 1_455 S
C670 C671 1.387 . S
C670 H696 0.930 . S
C671 C669 1.368 1_455 S
C671 C670 1.387 . S
C671 H697 0.931 . S
C672 C669 1.471 1_455 S
C672 C679 1.399 1_455 S
C672 N710 1.347 . S
C673 C674 1.384 . S
C673 C675 1.384 . S
C673 H698 0.931 . S
C674 C673 1.384 . S
C674 C677 1.382 1_455 S
C675 C673 1.384 . S
C675 C676 1.382 1_455 S
C675 H699 0.930 . S
C676 C675 1.382 1_655 S
C676 C678 1.378 . S
C676 C679 1.497 . S
C677 C674 1.382 1_655 S
C677 C678 1.387 . S
C677 H700 0.930 . S
C678 C676 1.378 . S
C678 C677 1.387 . S
C678 H701 0.931 . S
C679 C672 1.399 1_655 S
C679 C676 1.497 . S
C679 N711 1.362 . S
C680 C681 1.384 . S
C680 C682 1.384 . S
C680 H702 0.931 . S
C681 C680 1.384 . S
C681 C684 1.382 1_455 S
C682 C680 1.384 . S
C682 C683 1.421 . S
C682 H703 0.930 . S
C683 C682 1.421 . S
C683 C685 1.362 1_455 S
C683 C686 1.471 1_455 S
C684 C681 1.382 1_655 S
C684 C685 1.387 . S
C684 H704 0.930 . S
C685 C683 1.362 1_655 S
C685 C684 1.387 . S
C685 H705 0.931 . S
C686 C683 1.471 1_655 S
C686 C693 1.399 1_655 S
C686 N711 1.312 . S
C687 C688 1.384 . S
C687 C689 1.384 . S
C687 H706 0.931 . S
C688 C687 1.384 . S
C688 C691 1.382 1_655 S
C689 C687 1.384 . S
C689 C690 1.380 1_655 S
C689 H707 0.930 . S
C690 C689 1.380 1_455 S
C690 C692 1.385 . S
C690 C693 1.497 . S
C691 C688 1.382 1_455 S
C691 C692 1.387 . S
C691 H708 0.930 . S
C692 C690 1.385 . S
C692 C691 1.387 . S
C692 H709 0.931 . S
C693 C686 1.399 1_455 S
C693 C690 1.497 . S
C693 N710 1.330 . S
H694 C666 0.931 . S
H695 C668 0.930 . S
H696 C670 0.930 . S
H697 C671 0.931 . S
H698 C673 0.931 . S
H699 C675 0.930 . S
H700 C677 0.930 . S
H701 C678 0.931 . S
H702 C680 0.931 . S
H703 C682 0.930 . S
H704 C684 0.930 . S
H705 C685 0.931 . S
H706 C687 0.931 . S
H707 C689 0.930 . S
H708 C691 0.930 . S
H709 C692 0.931 . S
N710 C672 1.347 . S
N710 C693 1.330 . S
N711 C679 1.362 . S
N711 C686 1.312 . S
C712 C713 1.384 . S
C712 C714 1.384 . S
C712 H740 0.931 . S
C713 C712 1.384 . S
C713 C716 1.382 . S
C714 C712 1.384 . S
C714 C715 1.381 . S
C714 H741 0.930 . S
C715 C714 1.381 . S
C715 C717 1.381 . S
C715 C718 1.487 . S
C716 C713 1.382 . S
C716 C717 1.387 . S
C716 H742 0.930 . S
C717 C715 1.381 . S
C717 C716 1.387 . S
C717 H743 0.931 . S
C718 C715 1.487 . S
C718 C725 1.399 . S
C718 N756 1.343 . S
C719 C720 1.384 . S
C719 C721 1.384 . S
C719 H744 0.931 . S
C720 C719 1.384 . S
C720 C723 1.382 . S
C721 C719 1.384 . S
C721 C722 1.381 . S
C721 H745 0.930 . S
C722 C721 1.381 . S
C722 C724 1.381 . S
C722 C725 1.487 . S
C723 C720 1.382 . S
C723 C724 1.387 . S
C723 H746 0.930 . S
C724 C722 1.381 . S
C724 C723 1.387 . S
C724 H747 0.931 . S
C725 C718 1.399 . S
C725 C722 1.487 . S
C725 N757 1.343 . S
C726 C727 1.384 . S
C726 C728 1.384 . S
C726 H748 0.931 . S
C727 C726 1.384 . S
C727 C730 1.382 . S
C728 C726 1.384 . S
C728 C729 1.381 . S
C728 H749 0.930 . S
C729 C728 1.381 . S
C729 C731 1.381 . S
C729 C732 1.487 . S
C730 C727 1.382 . S
C730 C731 1.387 . S
C730 H750 0.930 . S
C731 C729 1.381 . S
C731 C730 1.387 . S
C731 H751 0.931 . S
C732 C729 1.487 . S
C732 C739 1.399 . S
C732 N757 1.343 . S
C733 C734 1.384 . S
C733 C735 1.384 . S
C733 H752 0.931 . S
C734 C733 1.384 . S
C734 C737 1.382 . S
C735 C733 1.384 . S
C735 C736 1.381 . S
C735 H753 0.930 . S
C736 C735 1.381 . S
C736 C738 1.381 . S
C736 C739 1.487 . S
C737 C734 1.382 . S
C737 C738 1.387 . S
C737 H754 0.930 . S
C738 C736 1.381 . S
C738 C737 1.387 . S
C738 H755 0.931 . S
C739 C732 1.399 . S
C739 C736 1.487 . S
C739 N756 1.343 . S
H740 C712 0.931 . S
H741 C714 0.930 . S
H742 C716 0.930 . S
H743 C717 0.931 . S
H744 C719 0.931 . S
H745 C721 0.930 . S
H746 C723 0.930 . S
H747 C724 0.931 . S
H748 C726 0.931 . S
H749 C728 0.930 . S
H750 C730 0.930 . S
H751 C731 0.931 . S
H752 C733 0.931 . S
H753 C735 0.930 . S
H754 C737 0.930 . S
H755 C738 0.931 . S
N756 C718 1.343 . S
N756 C739 1.343 . S
N757 C725 1.343 . S
N757 C732 1.343 . S
C758 C759 1.384 1_545 S
C758 C760 1.384 . S
C758 H786 0.931 . S
C759 C758 1.384 1_565 S
C759 C762 1.382 . S
C760 C758 1.384 . S
C760 C761 1.381 1_545 S
C760 H787 0.930 . S
C761 C760 1.381 1_565 S
C761 C763 1.381 . S
C761 C764 1.487 . S
C762 C759 1.382 . S
C762 C763 1.387 . S
C762 H788 0.930 . S
C763 C761 1.381 . S
C763 C762 1.387 . S
C763 H789 0.931 . S
C764 C761 1.487 . S
C764 C771 1.399 1_565 S
C764 N802 1.343 . S
C765 C766 1.384 1_565 S
C765 C767 1.384 . S
C765 H790 0.931 . S
C766 C765 1.384 1_545 S
C766 C769 1.382 . S
C767 C765 1.384 . S
C767 C768 1.381 1_565 S
C767 H791 0.930 . S
C768 C767 1.381 1_545 S
C768 C770 1.381 . S
C768 C771 1.487 . S
C769 C766 1.382 . S
C769 C770 1.387 . S
C769 H792 0.930 . S
C770 C768 1.381 . S
C770 C769 1.387 . S
C770 H793 0.931 . S
C771 C764 1.399 1_545 S
C771 C768 1.487 . S
C771 N803 1.343 . S
C772 C773 1.384 1_565 S
C772 C774 1.384 . S
C772 H794 0.931 . S
C773 C772 1.384 1_545 S
C773 C776 1.382 . S
C774 C772 1.384 . S
C774 C775 1.381 1_565 S
C774 H795 0.930 . S
C775 C774 1.381 1_545 S
C775 C777 1.381 . S
C775 C778 1.487 . S
C776 C773 1.382 . S
C776 C777 1.387 . S
C776 H796 0.930 . S
C777 C775 1.381 . S
C777 C776 1.387 . S
C777 H797 0.931 . S
C778 C775 1.487 . S
C778 C785 1.399 1_545 S
C778 N803 1.343 . S
C779 C780 1.384 1_545 S
C779 C781 1.384 . S
C779 H798 0.931 . S
C780 C779 1.384 1_565 S
C780 C783 1.382 . S
C781 C779 1.384 . S
C781 C782 1.381 1_545 S
C781 H799 0.930 . S
C782 C781 1.381 1_565 S
C782 C784 1.381 . S
C782 C785 1.487 . S
C783 C780 1.382 . S
C783 C784 1.387 . S
C783 H800 0.930 . S
C784 C782 1.381 . S
C784 C783 1.387 . S
C784 H801 0.931 . S
C785 C778 1.399 1_565 S
C785 C782 1.487 . S
C785 N802 1.343 . S
H786 C758 0.931 . S
H787 C760 0.930 . S
H788 C762 0.930 . S
H789 C763 0.931 . S
H790 C765 0.931 . S
H791 C767 0.930 . S
H792 C769 0.930 . S
H793 C770 0.931 . S
H794 C772 0.931 . S
H795 C774 0.930 . S
H796 C776 0.930 . S
H797 C777 0.931 . S
H798 C779 0.931 . S
H799 C781 0.930 . S
H800 C783 0.930 . S
H801 C784 0.931 . S
N802 C764 1.343 . S
N802 C785 1.343 . S
N803 C771 1.343 . S
N803 C778 1.343 . S
C804 C805 1.384 . S
C804 C806 1.384 . S
C804 H832 0.931 . S
C805 C804 1.384 . S
C805 C808 1.382 1_545 S
C806 C804 1.384 . S
C806 C807 1.380 . S
C806 H833 0.930 . S
C807 C806 1.380 . S
C807 C809 1.384 1_545 S
C807 C810 1.492 1_545 S
C808 C805 1.382 1_565 S
C808 C809 1.387 . S
C808 H834 0.930 . S
C809 C807 1.384 1_565 S
C809 C808 1.387 . S
C809 H835 0.931 . S
C810 C807 1.492 1_565 S
C810 C817 1.399 1_565 S
C810 N848 1.336 . S
C811 C812 1.384 . S
C811 C813 1.384 . S
C811 H836 0.931 . S
C812 C811 1.384 . S
C812 C815 1.382 1_565 S
C813 C811 1.384 . S
C813 C814 1.402 . S
C813 H837 0.930 . S
C814 C813 1.402 . S
C814 C816 1.371 1_565 S
C814 C817 1.472 1_565 S
C815 C812 1.382 1_545 S
C815 C816 1.387 . S
C815 H838 0.930 . S
C816 C814 1.371 1_545 S
C816 C815 1.387 . S
C816 H839 0.931 . S
C817 C810 1.399 1_545 S
C817 C814 1.472 1_545 S
C817 N849 1.348 . S
C818 C819 1.384 . S
C818 C820 1.384 . S
C818 H840 0.931 . S
C819 C818 1.384 . S
C819 C822 1.382 1_565 S
C820 C818 1.384 . S
C820 C821 1.380 1_565 S
C820 H841 0.930 . S
C821 C820 1.380 1_545 S
C821 C823 1.384 . S
C821 C824 1.497 . S
C822 C819 1.382 1_545 S
C822 C823 1.387 . S
C822 H842 0.930 . S
C823 C821 1.384 . S
C823 C822 1.387 . S
C823 H843 0.931 . S
C824 C821 1.497 . S
C824 C831 1.399 1_545 S
C824 N849 1.330 . S
C825 C826 1.384 . S
C825 C827 1.384 . S
C825 H844 0.931 . S
C826 C825 1.384 . S
C826 C829 1.382 1_545 S
C827 C825 1.384 . S
C827 C828 1.414 . S
C827 H845 0.930 . S
C828 C827 1.414 . S
C828 C830 1.365 1_545 S
C828 C831 1.472 1_545 S
C829 C826 1.382 1_565 S
C829 C830 1.387 . S
C829 H846 0.930 . S
C830 C828 1.365 1_565 S
C830 C829 1.387 . S
C830 H847 0.931 . S
C831 C824 1.399 1_565 S
C831 C828 1.472 1_565 S
C831 N848 1.342 . S
H832 C804 0.931 . S
H833 C806 0.930 . S
H834 C808 0.930 . S
H835 C809 0.931 . S
H836 C811 0.931 . S
H837 C813 0.930 . S
H838 C815 0.930 . S
H839 C816 0.931 . S
H840 C818 0.931 . S
H841 C820 0.930 . S
H842 C822 0.930 . S
H843 C823 0.931 . S
H844 C825 0.931 . S
H845 C827 0.930 . S
H846 C829 0.930 . S
H847 C830 0.931 . S
N848 C810 1.336 . S
N848 C831 1.342 . S
N849 C817 1.348 . S
N849 C824 1.330 . S
C850 C851 1.384 . S
C850 C852 1.384 . S
C850 H878 0.931 . S
C851 C850 1.384 . S
C851 C854 1.382 1_655 S
C852 C850 1.384 . S
C852 C853 1.428 . S
C852 H879 0.930 . S
C853 C852 1.428 . S
C853 C855 1.359 1_655 S
C853 C856 1.463 . S
C854 C851 1.382 1_455 S
C854 C855 1.387 . S
C854 H880 0.930 . S
C855 C853 1.359 1_455 S
C855 C854 1.387 . S
C855 H881 0.931 . S
C856 C853 1.463 . S
C856 C863 1.399 . S
C856 N894 1.320 1_655 S
C857 C858 1.384 . S
C857 C859 1.384 . S
C857 H882 0.931 . S
C858 C857 1.384 . S
C858 C861 1.382 1_455 S
C859 C857 1.384 . S
C859 C860 1.381 1_455 S
C859 H883 0.930 . S
C860 C859 1.381 1_655 S
C860 C862 1.381 . S
C860 C863 1.499 . S
C861 C858 1.382 1_655 S
C861 C862 1.387 . S
C861 H884 0.930 . S
C862 C860 1.381 . S
C862 C861 1.387 . S
C862 H885 0.931 . S
C863 C856 1.399 . S
C863 C860 1.499 . S
C863 N895 1.331 . S
C864 C865 1.384 . S
C864 C866 1.384 . S
C864 H886 0.931 . S
C865 C864 1.384 . S
C865 C868 1.382 1_455 S
C866 C864 1.384 . S
C866 C867 1.415 . S
C866 H887 0.930 . S
C867 C866 1.415 . S
C867 C869 1.365 1_455 S
C867 C870 1.469 1_455 S
C868 C865 1.382 1_655 S
C868 C869 1.387 . S
C868 H888 0.930 . S
C869 C867 1.365 1_655 S
C869 C868 1.387 . S
C869 H889 0.931 . S
C870 C867 1.469 1_655 S
C870 C877 1.399 1_655 S
C870 N895 1.345 . S
C871 C872 1.384 . S
C871 C873 1.384 . S
C871 H890 0.931 . S
C872 C871 1.384 . S
C872 C875 1.382 1_655 S
C873 C871 1.384 . S
C873 C874 1.381 . S
C873 H891 0.930 . S
C874 C873 1.381 . S
C874 C876 1.381 1_655 S
C874 C877 1.493 1_655 S
C875 C872 1.382 1_455 S
C875 C876 1.387 . S
C875 H892 0.930 . S
C876 C874 1.381 1_455 S
C876 C875 1.387 . S
C876 H893 0.931 . S
C877 C870 1.399 1_455 S
C877 C874 1.493 1_455 S
C877 N894 1.360 . S
H878 C850 0.931 . S
H879 C852 0.930 . S
H880 C854 0.930 . S
H881 C855 0.931 . S
H882 C857 0.931 . S
H883 C859 0.930 . S
H884 C861 0.930 . S
H885 C862 0.931 . S
H886 C864 0.931 . S
H887 C866 0.930 . S
H888 C868 0.930 . S
H889 C869 0.931 . S
H890 C871 0.931 . S
H891 C873 0.930 . S
H892 C875 0.930 . S
H893 C876 0.931 . S
N894 C856 1.320 1_455 S
N894 C877 1.360 . S
N895 C863 1.331 . S
N895 C870 1.345 . S
C896 C897 1.384 . S
C896 C898 1.384 . S
C896 H924 0.931 . S
C897 C896 1.384 . S
C897 C900 1.382 . S
C898 C896 1.384 . S
C898 C899 1.381 . S
C898 H925 0.930 . S
C899 C898 1.381 . S
C899 C901 1.381 . S
C899 C902 1.487 . S
C900 C897 1.382 . S
C900 C901 1.387 . S
C900 H926 0.930 . S
C901 C899 1.381 . S
C901 C900 1.387 . S
C901 H927 0.931 . S
C902 C899 1.487 . S
C902 C909 1.399 . S
C902 N940 1.343 . S
C903 C904 1.384 . S
C903 C905 1.384 . S
C903 H928 0.931 . S
C904 C903 1.384 . S
C904 C907 1.382 . S
C905 C903 1.384 . S
C905 C906 1.381 . S
C905 H929 0.930 . S
C906 C905 1.381 . S
C906 C908 1.381 . S
C906 C909 1.487 . S
C907 C904 1.382 . S
C907 C908 1.387 . S
C907 H930 0.930 . S
C908 C906 1.381 . S
C908 C907 1.387 . S
C908 H931 0.931 . S
C909 C902 1.399 . S
C909 C906 1.487 . S
C909 N941 1.343 . S
C910 C911 1.384 . S
C910 C912 1.384 . S
C910 H932 0.931 . S
C911 C910 1.384 . S
C911 C914 1.382 . S
C912 C910 1.384 . S
C912 C913 1.381 . S
C912 H933 0.930 . S
C913 C912 1.381 . S
C913 C915 1.381 . S
C913 C916 1.487 . S
C914 C911 1.382 . S
C914 C915 1.387 . S
C914 H934 0.930 . S
C915 C913 1.381 . S
C915 C914 1.387 . S
C915 H935 0.931 . S
C916 C913 1.487 . S
C916 C923 1.399 . S
C916 N941 1.343 . S
C917 C918 1.384 . S
C917 C919 1.384 . S
C917 H936 0.931 . S
C918 C917 1.384 . S
C918 C921 1.382 . S
C919 C917 1.384 . S
C919 C920 1.381 . S
C919 H937 0.930 . S
C920 C919 1.381 . S
C920 C922 1.381 . S
C920 C923 1.487 . S
C921 C918 1.382 . S
C921 C922 1.387 . S
C921 H938 0.930 . S
C922 C920 1.381 . S
C922 C921 1.387 . S
C922 H939 0.931 . S
C923 C916 1.399 . S
C923 C920 1.487 . S
C923 N940 1.343 . S
H924 C896 0.931 . S
H925 C898 0.930 . S
H926 C900 0.930 . S
H927 C901 0.931 . S
H928 C903 0.931 . S
H929 C905 0.930 . S
H930 C907 0.930 . S
H931 C908 0.931 . S
H932 C910 0.931 . S
H933 C912 0.930 . S
H934 C914 0.930 . S
H935 C915 0.931 . S
H936 C917 0.931 . S
H937 C919 0.930 . S
H938 C921 0.930 . S
H939 C922 0.931 . S
N940 C902 1.343 . S
N940 C923 1.343 . S
N941 C909 1.343 . S
N941 C916 1.343 . S
C942 C943 1.384 . S
C942 C944 1.384 . S
C942 H970 0.931 . S
C943 C942 1.384 . S
C943 C946 1.382 . S
C944 C942 1.384 . S
C944 C945 1.381 . S
C944 H971 0.930 . S
C945 C944 1.381 . S
C945 C947 1.381 . S
C945 C948 1.487 . S
C946 C943 1.382 . S
C946 C947 1.387 . S
C946 H972 0.930 . S
C947 C945 1.381 . S
C947 C946 1.387 . S
C947 H973 0.931 . S
C948 C945 1.487 . S
C948 C955 1.399 . S
C948 N986 1.343 . S
C949 C950 1.384 . S
C949 C951 1.384 . S
C949 H974 0.931 . S
C950 C949 1.384 . S
C950 C953 1.382 . S
C951 C949 1.384 . S
C951 C952 1.381 . S
C951 H975 0.930 . S
C952 C951 1.381 . S
C952 C954 1.381 . S
C952 C955 1.487 . S
C953 C950 1.382 . S
C953 C954 1.387 . S
C953 H976 0.930 . S
C954 C952 1.381 . S
C954 C953 1.387 . S
C954 H977 0.931 . S
C955 C948 1.399 . S
C955 C952 1.487 . S
C955 N987 1.343 . S
C956 C957 1.384 . S
C956 C958 1.384 . S
C956 H978 0.931 . S
C957 C956 1.384 . S
C957 C960 1.382 . S
C958 C956 1.384 . S
C958 C959 1.381 . S
C958 H979 0.930 . S
C959 C958 1.381 . S
C959 C961 1.381 . S
C959 C962 1.487 . S
C960 C957 1.382 . S
C960 C961 1.387 . S
C960 H980 0.930 . S
C961 C959 1.381 . S
C961 C960 1.387 . S
C961 H981 0.931 . S
C962 C959 1.487 . S
C962 C969 1.399 . S
C962 N987 1.343 . S
C963 C964 1.384 . S
C963 C965 1.384 . S
C963 H982 0.931 . S
C964 C963 1.384 . S
C964 C967 1.382 . S
C965 C963 1.384 . S
C965 C966 1.381 . S
C965 H983 0.930 . S
C966 C965 1.381 . S
C966 C968 1.381 . S
C966 C969 1.487 . S
C967 C964 1.382 . S
C967 C968 1.387 . S
C967 H984 0.930 . S
C968 C966 1.381 . S
C968 C967 1.387 . S
C968 H985 0.931 . S
C969 C962 1.399 . S
C969 C966 1.487 . S
C969 N986 1.343 . S
H970 C942 0.931 . S
H971 C944 0.930 . S
H972 C946 0.930 . S
H973 C947 0.931 . S
H974 C949 0.931 . S
H975 C951 0.930 . S
H976 C953 0.930 . S
H977 C954 0.931 . S
H978 C956 0.931 . S
H979 C958 0.930 . S
H980 C960 0.930 . S
H981 C961 0.931 . S
H982 C963 0.931 . S
H983 C965 0.930 . S
H984 C967 0.930 . S
H985 C968 0.931 . S
N986 C948 1.343 . S
N986 C969 1.343 . S
N987 C955 1.343 . S
N987 C962 1.343 . S
C988 C989 1.384 . S
C988 C990 1.384 . S
C988 H1016 0.931 . S
C989 C988 1.384 . S
C989 C992 1.382 . S
C990 C988 1.384 . S
C990 C991 1.381 . S
C990 H1017 0.930 . S
C991 C990 1.381 . S
C991 C993 1.381 . S
C991 C994 1.487 . S
C992 C989 1.382 . S
C992 C993 1.387 . S
C992 H1018 0.930 . S
C993 C991 1.381 . S
C993 C992 1.387 . S
C993 H1019 0.931 . S
C994 C991 1.487 . S
C994 C1001 1.399 . S
C994 N1032 1.343 . S
C995 C996 1.384 . S
C995 C997 1.384 . S
C995 H1020 0.931 . S
C996 C995 1.384 . S
C996 C999 1.382 . S
C997 C995 1.384 . S
C997 C998 1.381 . S
C997 H1021 0.930 . S
C998 C997 1.381 . S
C998 C1000 1.381 . S
C998 C1001 1.487 . S
C999 C996 1.382 . S
C999 C1000 1.387 . S
C999 H1022 0.930 . S
C1000 C998 1.381 . S
C1000 C999 1.387 . S
C1000 H1023 0.931 . S
C1001 C994 1.399 . S
C1001 C998 1.487 . S
C1001 N1033 1.343 . S
C1002 C1003 1.384 . S
C1002 C1004 1.384 . S
C1002 H1024 0.931 . S
C1003 C1002 1.384 . S
C1003 C1006 1.382 . S
C1004 C1002 1.384 . S
C1004 C1005 1.381 . S
C1004 H1025 0.930 . S
C1005 C1004 1.381 . S
C1005 C1007 1.381 . S
C1005 C1008 1.487 . S
C1006 C1003 1.382 . S
C1006 C1007 1.387 . S
C1006 H1026 0.930 . S
C1007 C1005 1.381 . S
C1007 C1006 1.387 . S
C1007 H1027 0.931 . S
C1008 C1005 1.487 . S
C1008 C1015 1.399 . S
C1008 N1033 1.343 . S
C1009 C1010 1.384 . S
C1009 C1011 1.384 . S
C1009 H1028 0.931 . S
C1010 C1009 1.384 . S
C1010 C1013 1.382 . S
C1011 C1009 1.384 . S
C1011 C1012 1.381 . S
C1011 H1029 0.930 . S
C1012 C1011 1.381 . S
C1012 C1014 1.381 . S
C1012 C1015 1.487 . S
C1013 C1010 1.382 . S
C1013 C1014 1.387 . S
C1013 H1030 0.930 . S
C1014 C1012 1.381 . S
C1014 C1013 1.387 . S
C1014 H1031 0.931 . S
C1015 C1008 1.399 . S
C1015 C1012 1.487 . S
C1015 N1032 1.343 . S
H1016 C988 0.931 . S
H1017 C990 0.930 . S
H1018 C992 0.930 . S
H1019 C993 0.931 . S
H1020 C995 0.931 . S
H1021 C997 0.930 . S
H1022 C999 0.930 . S
H1023 C1000 0.931 . S
H1024 C1002 0.931 . S
H1025 C1004 0.930 . S
H1026 C1006 0.930 . S
H1027 C1007 0.931 . S
H1028 C1009 0.931 . S
H1029 C1011 0.930 . S
H1030 C1013 0.930 . S
H1031 C1014 0.931 . S
N1032 C994 1.343 . S
N1032 C1015 1.343 . S
N1033 C1001 1.343 . S
N1033 C1008 1.343 . S
C1034 C1035 1.384 . S
C1034 C1036 1.384 . S
C1034 H1062 0.931 . S
C1035 C1034 1.384 . S
C1035 C1038 1.382 . S
C1036 C1034 1.384 . S
C1036 C1037 1.381 . S
C1036 H1063 0.930 . S
C1037 C1036 1.381 . S
C1037 C1039 1.381 . S
C1037 C1040 1.487 . S
C1038 C1035 1.382 . S
C1038 C1039 1.387 . S
C1038 H1064 0.930 . S
C1039 C1037 1.381 . S
C1039 C1038 1.387 . S
C1039 H1065 0.931 . S
C1040 C1037 1.487 . S
C1040 C1047 1.399 . S
C1040 N1078 1.343 . S
C1041 C1042 1.384 . S
C1041 C1043 1.384 . S
C1041 H1066 0.931 . S
C1042 C1041 1.384 . S
C1042 C1045 1.382 . S
C1043 C1041 1.384 . S
C1043 C1044 1.381 . S
C1043 H1067 0.930 . S
C1044 C1043 1.381 . S
C1044 C1046 1.381 . S
C1044 C1047 1.487 . S
C1045 C1042 1.382 . S
C1045 C1046 1.387 . S
C1045 H1068 0.930 . S
C1046 C1044 1.381 . S
C1046 C1045 1.387 . S
C1046 H1069 0.931 . S
C1047 C1040 1.399 . S
C1047 C1044 1.487 . S
C1047 N1079 1.343 . S
C1048 C1049 1.384 . S
C1048 C1050 1.384 . S
C1048 H1070 0.931 . S
C1049 C1048 1.384 . S
C1049 C1052 1.382 . S
C1050 C1048 1.384 . S
C1050 C1051 1.381 . S
C1050 H1071 0.930 . S
C1051 C1050 1.381 . S
C1051 C1053 1.381 . S
C1051 C1054 1.487 . S
C1052 C1049 1.382 . S
C1052 C1053 1.387 . S
C1052 H1072 0.930 . S
C1053 C1051 1.381 . S
C1053 C1052 1.387 . S
C1053 H1073 0.931 . S
C1054 C1051 1.487 . S
C1054 C1061 1.399 . S
C1054 N1079 1.343 . S
C1055 C1056 1.384 . S
C1055 C1057 1.384 . S
C1055 H1074 0.931 . S
C1056 C1055 1.384 . S
C1056 C1059 1.382 . S
C1057 C1055 1.384 . S
C1057 C1058 1.381 . S
C1057 H1075 0.930 . S
C1058 C1057 1.381 . S
C1058 C1060 1.381 . S
C1058 C1061 1.487 . S
C1059 C1056 1.382 . S
C1059 C1060 1.387 . S
C1059 H1076 0.930 . S
C1060 C1058 1.381 . S
C1060 C1059 1.387 . S
C1060 H1077 0.931 . S
C1061 C1054 1.399 . S
C1061 C1058 1.487 . S
C1061 N1078 1.343 . S
H1062 C1034 0.931 . S
H1063 C1036 0.930 . S
H1064 C1038 0.930 . S
H1065 C1039 0.931 . S
H1066 C1041 0.931 . S
H1067 C1043 0.930 . S
H1068 C1045 0.930 . S
H1069 C1046 0.931 . S
H1070 C1048 0.931 . S
H1071 C1050 0.930 . S
H1072 C1052 0.930 . S
H1073 C1053 0.931 . S
H1074 C1055 0.931 . S
H1075 C1057 0.930 . S
H1076 C1059 0.930 . S
H1077 C1060 0.931 . S
N1078 C1040 1.343 . S
N1078 C1061 1.343 . S
N1079 C1047 1.343 . S
N1079 C1054 1.343 . S
C1080 C1081 1.355 . S
C1080 C1082 1.428 . S
C1080 H1084 0.931 1_655 S
C1081 C1080 1.355 . S
C1081 C1090 1.429 . S
C1082 C1080 1.428 . S
C1082 C1083 1.364 . S
C1082 H1085 0.935 1_655 S
C1083 C1082 1.364 . S
C1083 C1089 1.428 . S
H1084 C1080 0.931 1_455 S
H1085 C1082 0.935 1_455 S
S1086 N1087 1.613 . S
S1086 N1088 1.610 . S
N1087 S1086 1.613 . S
N1087 C1090 1.350 . S
N1088 S1086 1.610 . S
N1088 C1089 1.351 . S
C1089 C1083 1.428 . S
C1089 N1088 1.351 . S
C1089 C1090 1.434 . S
C1090 C1081 1.429 . S
C1090 N1087 1.350 . S
C1090 C1089 1.434 . S
C1091 C1092 1.369 . S
C1091 C1093 1.419 . S
C1091 H1095 0.930 . S
C1092 C1091 1.369 . S
C1092 C1101 1.429 . S
C1093 C1091 1.419 . S
C1093 C1094 1.363 . S
C1093 H1096 0.929 . S
C1094 C1093 1.363 . S
C1094 C1100 1.428 . S
H1095 C1091 0.930 . S
H1096 C1093 0.929 . S
S1097 N1098 1.613 . S
S1097 N1099 1.610 . S
N1098 S1097 1.613 . S
N1098 C1101 1.350 . S
N1099 S1097 1.610 . S
N1099 C1100 1.351 . S
C1100 C1094 1.428 . S
C1100 N1099 1.351 . S
C1100 C1101 1.434 . S
C1101 C1092 1.429 . S
C1101 N1098 1.350 . S
C1101 C1100 1.434 . S
C1102 C1103 1.369 . S
C1102 C1104 1.419 . S
C1102 H1106 0.930 . S
C1103 C1102 1.369 . S
C1103 C1112 1.429 1_545 S
C1104 C1102 1.419 . S
C1104 C1105 1.363 . S
C1104 H1107 0.929 . S
C1105 C1104 1.363 . S
C1105 C1111 1.428 1_545 S
H1106 C1102 0.930 . S
H1107 C1104 0.929 . S
S1108 N1109 1.613 . S
S1108 N1110 1.610 . S
N1109 S1108 1.613 . S
N1109 C1112 1.350 . S
N1110 S1108 1.610 . S
N1110 C1111 1.351 . S
C1111 C1105 1.428 1_565 S
C1111 N1110 1.351 . S
C1111 C1112 1.434 . S
C1112 C1103 1.429 1_565 S
C1112 N1109 1.350 . S
C1112 C1111 1.434 . S
C1113 C1114 1.369 . S
C1113 C1115 1.419 . S
C1113 H1117 0.930 . S
C1114 C1113 1.369 . S
C1114 C1123 1.429 1_565 S
C1115 C1113 1.419 . S
C1115 C1116 1.363 . S
C1115 H1118 0.929 . S
C1116 C1115 1.363 . S
C1116 C1122 1.428 1_565 S
H1117 C1113 0.930 . S
H1118 C1115 0.929 . S
S1119 N1120 1.613 . S
S1119 N1121 1.610 . S
N1120 S1119 1.613 . S
N1120 C1123 1.350 . S
N1121 S1119 1.610 . S
N1121 C1122 1.351 . S
C1122 C1116 1.428 1_545 S
C1122 N1121 1.351 . S
C1122 C1123 1.434 . S
C1123 C1114 1.429 1_545 S
C1123 N1120 1.350 . S
C1123 C1122 1.434 . S
C1124 C1125 1.369 . S
C1124 C1126 1.419 . S
C1124 H1128 0.930 . S
C1125 C1124 1.369 . S
C1125 C1134 1.429 1_455 S
C1126 C1124 1.419 . S
C1126 C1127 1.363 . S
C1126 H1129 0.929 . S
C1127 C1126 1.363 . S
C1127 C1133 1.428 1_455 S
H1128 C1124 0.930 . S
H1129 C1126 0.929 . S
S1130 N1131 1.613 . S
S1130 N1132 1.610 . S
N1131 S1130 1.613 . S
N1131 C1134 1.350 . S
N1132 S1130 1.610 . S
N1132 C1133 1.351 . S
C1133 C1127 1.428 1_655 S
C1133 N1132 1.351 . S
C1133 C1134 1.434 . S
C1134 C1125 1.429 1_655 S
C1134 N1131 1.350 . S
C1134 C1133 1.434 . S
C1135 C1136 1.369 . S
C1135 C1137 1.419 . S
C1135 H1139 0.930 . S
C1136 C1135 1.369 . S
C1136 C1145 1.429 . S
C1137 C1135 1.419 . S
C1137 C1138 1.363 . S
C1137 H1140 0.929 . S
C1138 C1137 1.363 . S
C1138 C1144 1.428 . S
H1139 C1135 0.930 . S
H1140 C1137 0.929 . S
S1141 N1142 1.613 . S
S1141 N1143 1.610 . S
N1142 S1141 1.613 . S
N1142 C1145 1.350 . S
N1143 S1141 1.610 . S
N1143 C1144 1.351 . S
C1144 C1138 1.428 . S
C1144 N1143 1.351 . S
C1144 C1145 1.434 . S
C1145 C1136 1.429 . S
C1145 N1142 1.350 . S
C1145 C1144 1.434 . S
C1146 C1147 1.369 . S
C1146 C1148 1.419 . S
C1146 H1150 0.930 . S
C1147 C1146 1.369 . S
C1147 C1156 1.429 1_455 S
C1148 C1146 1.419 . S
C1148 C1149 1.363 . S
C1148 H1151 0.929 . S
C1149 C1148 1.363 . S
C1149 C1155 1.428 1_455 S
H1150 C1146 0.930 . S
H1151 C1148 0.929 . S
S1152 N1153 1.613 . S
S1152 N1154 1.610 . S
N1153 S1152 1.613 . S
N1153 C1156 1.350 . S
N1154 S1152 1.610 . S
N1154 C1155 1.351 . S
C1155 C1149 1.428 1_655 S
C1155 N1154 1.351 . S
C1155 C1156 1.434 . S
C1156 C1147 1.429 1_655 S
C1156 N1153 1.350 . S
C1156 C1155 1.434 . S
C1157 C1158 1.369 . S
C1157 C1159 1.419 . S
C1157 H1161 0.930 . S
C1158 C1157 1.369 . S
C1158 C1167 1.429 . S
C1159 C1157 1.419 . S
C1159 C1160 1.363 . S
C1159 H1162 0.929 . S
C1160 C1159 1.363 . S
C1160 C1166 1.428 . S
H1161 C1157 0.930 . S
H1162 C1159 0.929 . S
S1163 N1164 1.613 . S
S1163 N1165 1.610 . S
N1164 S1163 1.613 . S
N1164 C1167 1.350 . S
N1165 S1163 1.610 . S
N1165 C1166 1.351 . S
C1166 C1160 1.428 . S
C1166 N1165 1.351 . S
C1166 C1167 1.434 . S
C1167 C1158 1.429 . S
C1167 N1164 1.350 . S
C1167 C1166 1.434 . S
C1168 C1169 1.369 1_545 S
C1168 C1170 1.419 . S
C1168 H1172 0.930 . S
C1169 C1168 1.369 1_565 S
C1169 C1178 1.429 . S
C1170 C1168 1.419 . S
C1170 C1171 1.363 1_545 S
C1170 H1173 0.929 . S
C1171 C1170 1.363 1_565 S
C1171 C1177 1.428 . S
H1172 C1168 0.930 . S
H1173 C1170 0.929 . S
S1174 N1175 1.613 . S
S1174 N1176 1.610 . S
N1175 S1174 1.613 . S
N1175 C1178 1.350 . S
N1176 S1174 1.610 . S
N1176 C1177 1.351 . S
C1177 C1171 1.428 . S
C1177 N1176 1.351 . S
C1177 C1178 1.434 . S
C1178 C1169 1.429 . S
C1178 N1175 1.350 . S
C1178 C1177 1.434 . S
C1179 C1180 1.369 1_565 S
C1179 C1181 1.419 . S
C1179 H1183 0.930 . S
C1180 C1179 1.369 1_545 S
C1180 C1189 1.429 . S
C1181 C1179 1.419 . S
C1181 C1182 1.363 1_565 S
C1181 H1184 0.929 . S
C1182 C1181 1.363 1_545 S
C1182 C1188 1.428 . S
H1183 C1179 0.930 . S
H1184 C1181 0.929 . S
S1185 N1186 1.613 . S
S1185 N1187 1.610 . S
N1186 S1185 1.613 . S
N1186 C1189 1.350 . S
N1187 S1185 1.610 . S
N1187 C1188 1.351 . S
C1188 C1182 1.428 . S
C1188 N1187 1.351 . S
C1188 C1189 1.434 . S
C1189 C1180 1.429 . S
C1189 N1186 1.350 . S
C1189 C1188 1.434 . S
C1190 C1191 1.369 . S
C1190 C1192 1.419 . S
C1190 H1194 0.930 . S
C1191 C1190 1.369 . S
C1191 C1200 1.429 1_655 S
C1192 C1190 1.419 . S
C1192 C1193 1.363 . S
C1192 H1195 0.929 . S
C1193 C1192 1.363 . S
C1193 C1199 1.428 1_655 S
H1194 C1190 0.930 . S
H1195 C1192 0.929 . S
S1196 N1197 1.613 . S
S1196 N1198 1.610 . S
N1197 S1196 1.613 . S
N1197 C1200 1.350 . S
N1198 S1196 1.610 . S
N1198 C1199 1.351 . S
C1199 C1193 1.428 1_455 S
C1199 N1198 1.351 . S
C1199 C1200 1.434 . S
C1200 C1191 1.429 1_455 S
C1200 N1197 1.350 . S
C1200 C1199 1.434 . S
C1201 C1202 1.369 . S
C1201 C1203 1.419 . S
C1201 H1205 0.930 . S
C1202 C1201 1.369 . S
C1202 C1211 1.429 . S
C1203 C1201 1.419 . S
C1203 C1204 1.363 . S
C1203 H1206 0.929 . S
C1204 C1203 1.363 . S
C1204 C1210 1.428 . S
H1205 C1201 0.930 . S
H1206 C1203 0.929 . S
S1207 N1208 1.613 . S
S1207 N1209 1.610 . S
N1208 S1207 1.613 . S
N1208 C1211 1.350 . S
N1209 S1207 1.610 . S
N1209 C1210 1.351 . S
C1210 C1204 1.428 . S
C1210 N1209 1.351 . S
C1210 C1211 1.434 . S
C1211 C1202 1.429 . S
C1211 N1208 1.350 . S
C1211 C1210 1.434 . S
C1212 C1213 1.369 . S
C1212 C1214 1.419 . S
C1212 H1216 0.930 . S
C1213 C1212 1.369 . S
C1213 C1222 1.429 . S
C1214 C1212 1.419 . S
C1214 C1215 1.363 . S
C1214 H1217 0.929 . S
C1215 C1214 1.363 . S
C1215 C1221 1.428 . S
H1216 C1212 0.930 . S
H1217 C1214 0.929 . S
S1218 N1219 1.613 . S
S1218 N1220 1.610 . S
N1219 S1218 1.613 . S
N1219 C1222 1.350 . S
N1220 S1218 1.610 . S
N1220 C1221 1.351 . S
C1221 C1215 1.428 . S
C1221 N1220 1.351 . S
C1221 C1222 1.434 . S
C1222 C1213 1.429 . S
C1222 N1219 1.350 . S
C1222 C1221 1.434 . S
C1223 C1224 1.369 . S
C1223 C1225 1.419 . S
C1223 H1227 0.930 . S
C1224 C1223 1.369 . S
C1224 C1233 1.429 . S
C1225 C1223 1.419 . S
C1225 C1226 1.363 . S
C1225 H1228 0.929 . S
C1226 C1225 1.363 . S
C1226 C1232 1.428 . S
H1227 C1223 0.930 . S
H1228 C1225 0.929 . S
S1229 N1230 1.613 . S
S1229 N1231 1.610 . S
N1230 S1229 1.613 . S
N1230 C1233 1.350 . S
N1231 S1229 1.610 . S
N1231 C1232 1.351 . S
C1232 C1226 1.428 . S
C1232 N1231 1.351 . S
C1232 C1233 1.434 . S
C1233 C1224 1.429 . S
C1233 N1230 1.350 . S
C1233 C1232 1.434 . S
C1234 C1235 1.369 . S
C1234 C1236 1.419 . S
C1234 H1238 0.930 . S
C1235 C1234 1.369 . S
C1235 C1244 1.429 . S
C1236 C1234 1.419 . S
C1236 C1237 1.363 . S
C1236 H1239 0.929 . S
C1237 C1236 1.363 . S
C1237 C1243 1.428 . S
H1238 C1234 0.930 . S
H1239 C1236 0.929 . S
S1240 N1241 1.613 . S
S1240 N1242 1.610 . S
N1241 S1240 1.613 . S
N1241 C1244 1.350 . S
N1242 S1240 1.610 . S
N1242 C1243 1.351 . S
C1243 C1237 1.428 . S
C1243 N1242 1.351 . S
C1243 C1244 1.434 . S
C1244 C1235 1.429 . S
C1244 N1241 1.350 . S
C1244 C1243 1.434 . S
C1245 C1246 1.369 . S
C1245 C1247 1.419 . S
C1245 H1249 0.930 . S
C1246 C1245 1.369 . S
C1246 C1255 1.429 . S
C1247 C1245 1.419 . S
C1247 C1248 1.363 . S
C1247 H1250 0.929 . S
C1248 C1247 1.363 . S
C1248 C1254 1.428 . S
H1249 C1245 0.930 . S
H1250 C1247 0.929 . S
S1251 N1252 1.613 1_655 S
S1251 N1253 1.616 1_655 S
N1252 S1251 1.613 1_455 S
N1252 C1255 1.350 . S
N1253 S1251 1.616 1_455 S
N1253 C1254 1.351 . S
C1254 C1248 1.428 . S
C1254 N1253 1.351 . S
C1254 C1255 1.434 . S
C1255 C1246 1.429 . S
C1255 N1252 1.350 . S
C1255 C1254 1.434 . S
C1256 C1257 1.369 . S
C1256 C1258 1.419 . S
C1256 H1260 0.930 . S
C1257 C1256 1.369 . S
C1257 C1266 1.429 . S
C1258 C1256 1.419 . S
C1258 C1259 1.363 . S
C1258 H1261 0.929 . S
C1259 C1258 1.363 . S
C1259 C1265 1.428 . S
H1260 C1256 0.930 . S
H1261 C1258 0.929 . S
S1262 N1263 1.613 . S
S1262 N1264 1.610 . S
N1263 S1262 1.613 . S
N1263 C1266 1.350 . S
N1264 S1262 1.610 . S
N1264 C1265 1.351 . S
C1265 C1259 1.428 . S
C1265 N1264 1.351 . S
C1265 C1266 1.434 . S
C1266 C1257 1.429 . S
C1266 N1263 1.350 . S
C1266 C1265 1.434 . S
C1267 C1268 1.369 . S
C1267 C1269 1.419 . S
C1267 H1271 0.930 . S
C1268 C1267 1.369 . S
C1268 C1277 1.429 . S
C1269 C1267 1.419 . S
C1269 C1270 1.363 . S
C1269 H1272 0.929 . S
C1270 C1269 1.363 . S
C1270 C1276 1.428 . S
H1271 C1267 0.930 . S
H1272 C1269 0.929 . S
S1273 N1274 1.613 . S
S1273 N1275 1.610 . S
N1274 S1273 1.613 . S
N1274 C1277 1.350 . S
N1275 S1273 1.610 . S
N1275 C1276 1.351 . S
C1276 C1270 1.428 . S
C1276 N1275 1.351 . S
C1276 C1277 1.434 . S
C1277 C1268 1.429 . S
C1277 N1274 1.350 . S
C1277 C1276 1.434 . S
C1278 C1279 1.369 . S
C1278 C1280 1.419 . S
C1278 H1282 0.930 . S
C1279 C1278 1.369 . S
C1279 C1288 1.429 . S
C1280 C1278 1.419 . S
C1280 C1281 1.363 . S
C1280 H1283 0.929 . S
C1281 C1280 1.363 . S
C1281 C1287 1.428 . S
H1282 C1278 0.930 . S
H1283 C1280 0.929 . S
S1284 N1285 1.613 . S
S1284 N1286 1.610 . S
N1285 S1284 1.613 . S
N1285 C1288 1.350 . S
N1286 S1284 1.610 . S
N1286 C1287 1.351 . S
C1287 C1281 1.428 . S
C1287 N1286 1.351 . S
C1287 C1288 1.434 . S
C1288 C1279 1.429 . S
C1288 N1285 1.350 . S
C1288 C1287 1.434 . S
C1289 C1290 1.369 . S
C1289 C1291 1.419 . S
C1289 H1293 0.930 . S
C1290 C1289 1.369 . S
C1290 C1299 1.429 . S
C1291 C1289 1.419 . S
C1291 C1292 1.363 . S
C1291 H1294 0.929 . S
C1292 C1291 1.363 . S
C1292 C1298 1.428 . S
H1293 C1289 0.930 . S
H1294 C1291 0.929 . S
S1295 N1296 1.613 . S
S1295 N1297 1.610 . S
N1296 S1295 1.613 . S
N1296 C1299 1.350 . S
N1297 S1295 1.610 . S
N1297 C1298 1.351 . S
C1298 C1292 1.428 . S
C1298 N1297 1.351 . S
C1298 C1299 1.434 . S
C1299 C1290 1.429 . S
C1299 N1296 1.350 . S
C1299 C1298 1.434 . S
C1300 C1301 1.369 . S
C1300 C1302 1.419 . S
C1300 H1304 0.930 . S
C1301 C1300 1.369 . S
C1301 C1310 1.429 . S
C1302 C1300 1.419 . S
C1302 C1303 1.363 . S
C1302 H1305 0.929 . S
C1303 C1302 1.363 . S
C1303 C1309 1.428 . S
H1304 C1300 0.930 . S
H1305 C1302 0.929 . S
S1306 N1307 1.613 . S
S1306 N1308 1.610 . S
N1307 S1306 1.613 . S
N1307 C1310 1.350 . S
N1308 S1306 1.610 . S
N1308 C1309 1.351 . S
C1309 C1303 1.428 . S
C1309 N1308 1.351 . S
C1309 C1310 1.434 . S
C1310 C1301 1.429 . S
C1310 N1307 1.350 . S
C1310 C1309 1.434 . S
C1311 C1312 1.369 . S
C1311 C1313 1.419 . S
C1311 H1315 0.930 . S
C1312 C1311 1.369 . S
C1312 C1321 1.429 . S
C1313 C1311 1.419 . S
C1313 C1314 1.363 . S
C1313 H1316 0.929 . S
C1314 C1313 1.363 . S
C1314 C1320 1.428 . S
H1315 C1311 0.930 . S
H1316 C1313 0.929 . S
S1317 N1318 1.613 . S
S1317 N1319 1.610 . S
N1318 S1317 1.613 . S
N1318 C1321 1.350 . S
N1319 S1317 1.610 . S
N1319 C1320 1.351 . S
C1320 C1314 1.428 . S
C1320 N1319 1.351 . S
C1320 C1321 1.434 . S
C1321 C1312 1.429 . S
C1321 N1318 1.350 . S
C1321 C1320 1.434 . S
C1322 C1323 1.369 . S
C1322 C1324 1.419 . S
C1322 H1326 0.930 . S
C1323 C1322 1.369 . S
C1323 C1332 1.429 . S
C1324 C1322 1.419 . S
C1324 C1325 1.363 . S
C1324 H1327 0.929 . S
C1325 C1324 1.363 . S
C1325 C1331 1.428 . S
H1326 C1322 0.930 . S
H1327 C1324 0.929 . S
S1328 N1329 1.613 . S
S1328 N1330 1.610 . S
N1329 S1328 1.613 . S
N1329 C1332 1.350 . S
N1330 S1328 1.610 . S
N1330 C1331 1.351 . S
C1331 C1325 1.428 . S
C1331 N1330 1.351 . S
C1331 C1332 1.434 . S
C1332 C1323 1.429 . S
C1332 N1329 1.350 . S
C1332 C1331 1.434 . S
C1333 C1334 1.369 . S
C1333 C1335 1.419 . S
C1333 H1337 0.930 . S
C1334 C1333 1.369 . S
C1334 C1343 1.429 . S
C1335 C1333 1.419 . S
C1335 C1336 1.363 . S
C1335 H1338 0.929 . S
C1336 C1335 1.363 . S
C1336 C1342 1.428 . S
H1337 C1333 0.930 . S
H1338 C1335 0.929 . S
S1339 N1340 1.613 . S
S1339 N1341 1.610 . S
N1340 S1339 1.613 . S
N1340 C1343 1.350 . S
N1341 S1339 1.610 . S
N1341 C1342 1.351 . S
C1342 C1336 1.428 . S
C1342 N1341 1.351 . S
C1342 C1343 1.434 . S
C1343 C1334 1.429 . S
C1343 N1340 1.350 . S
C1343 C1342 1.434 . S
C1344 C1345 1.369 . S
C1344 C1346 1.419 . S
C1344 H1348 0.930 . S
C1345 C1344 1.369 . S
C1345 C1354 1.429 . S
C1346 C1344 1.419 . S
C1346 C1347 1.363 . S
C1346 H1349 0.929 . S
C1347 C1346 1.363 . S
C1347 C1353 1.428 . S
H1348 C1344 0.930 . S
H1349 C1346 0.929 . S
S1350 N1351 1.613 . S
S1350 N1352 1.610 . S
N1351 S1350 1.613 . S
N1351 C1354 1.350 . S
N1352 S1350 1.610 . S
N1352 C1353 1.351 . S
C1353 C1347 1.428 . S
C1353 N1352 1.351 . S
C1353 C1354 1.434 . S
C1354 C1345 1.429 . S
C1354 N1351 1.350 . S
C1354 C1353 1.434 . S
C1355 C1356 1.369 . S
C1355 C1357 1.419 . S
C1355 H1359 0.930 . S
C1356 C1355 1.369 . S
C1356 C1365 1.429 . S
C1357 C1355 1.419 . S
C1357 C1358 1.363 . S
C1357 H1360 0.929 . S
C1358 C1357 1.363 . S
C1358 C1364 1.428 . S
H1359 C1355 0.930 . S
H1360 C1357 0.929 . S
S1361 N1362 1.613 . S
S1361 N1363 1.610 . S
N1362 S1361 1.613 . S
N1362 C1365 1.350 . S
N1363 S1361 1.610 . S
N1363 C1364 1.351 . S
C1364 C1358 1.428 . S
C1364 N1363 1.351 . S
C1364 C1365 1.434 . S
C1365 C1356 1.429 . S
C1365 N1362 1.350 . S
C1365 C1364 1.434 . S
C1366 C1367 1.369 . S
C1366 C1368 1.419 . S
C1366 H1370 0.930 . S
C1367 C1366 1.369 . S
C1367 C1376 1.429 . S
C1368 C1366 1.419 . S
C1368 C1369 1.363 . S
C1368 H1371 0.929 . S
C1369 C1368 1.363 . S
C1369 C1375 1.428 . S
H1370 C1366 0.930 . S
H1371 C1368 0.929 . S
S1372 N1373 1.613 . S
S1372 N1374 1.610 . S
N1373 S1372 1.613 . S
N1373 C1376 1.350 . S
N1374 S1372 1.610 . S
N1374 C1375 1.351 . S
C1375 C1369 1.428 . S
C1375 N1374 1.351 . S
C1375 C1376 1.434 . S
C1376 C1367 1.429 . S
C1376 N1373 1.350 . S
C1376 C1375 1.434 . S
C1377 C1378 1.369 . S
C1377 C1379 1.419 . S
C1377 H1381 0.930 . S
C1378 C1377 1.369 . S
C1378 C1387 1.429 . S
C1379 C1377 1.419 . S
C1379 C1380 1.363 . S
C1379 H1382 0.929 . S
C1380 C1379 1.363 . S
C1380 C1386 1.428 . S
H1381 C1377 0.930 . S
H1382 C1379 0.929 . S
S1383 N1384 1.613 . S
S1383 N1385 1.610 . S
N1384 S1383 1.613 . S
N1384 C1387 1.350 . S
N1385 S1383 1.610 . S
N1385 C1386 1.351 . S
C1386 C1380 1.428 . S
C1386 N1385 1.351 . S
C1386 C1387 1.434 . S
C1387 C1378 1.429 . S
C1387 N1384 1.350 . S
C1387 C1386 1.434 . S
C1388 C1389 1.369 . S
C1388 C1390 1.419 . S
C1388 H1392 0.930 . S
C1389 C1388 1.369 . S
C1389 C1398 1.429 . S
C1390 C1388 1.419 . S
C1390 C1391 1.363 . S
C1390 H1393 0.929 . S
C1391 C1390 1.363 . S
C1391 C1397 1.428 . S
H1392 C1388 0.930 . S
H1393 C1390 0.929 . S
S1394 N1395 1.613 . S
S1394 N1396 1.610 . S
N1395 S1394 1.613 . S
N1395 C1398 1.350 . S
N1396 S1394 1.610 . S
N1396 C1397 1.351 . S
C1397 C1391 1.428 . S
C1397 N1396 1.351 . S
C1397 C1398 1.434 . S
C1398 C1389 1.429 . S
C1398 N1395 1.350 . S
C1398 C1397 1.434 . S
C1399 C1400 1.369 . S
C1399 C1401 1.419 . S
C1399 H1403 0.930 . S
C1400 C1399 1.369 . S
C1400 C1409 1.429 . S
C1401 C1399 1.419 . S
C1401 C1402 1.363 . S
C1401 H1404 0.929 . S
C1402 C1401 1.363 . S
C1402 C1408 1.428 . S
H1403 C1399 0.930 . S
H1404 C1401 0.929 . S
S1405 N1406 1.613 . S
S1405 N1407 1.610 . S
N1406 S1405 1.613 . S
N1406 C1409 1.350 . S
N1407 S1405 1.610 . S
N1407 C1408 1.351 . S
C1408 C1402 1.428 . S
C1408 N1407 1.351 . S
C1408 C1409 1.434 . S
C1409 C1400 1.429 . S
C1409 N1406 1.350 . S
C1409 C1408 1.434 . S
C1410 C1411 1.369 . S
C1410 C1412 1.419 . S
C1410 H1414 0.930 . S
C1411 C1410 1.369 . S
C1411 C1420 1.429 . S
C1412 C1410 1.419 . S
C1412 C1413 1.363 . S
C1412 H1415 0.929 . S
C1413 C1412 1.363 . S
C1413 C1419 1.428 . S
H1414 C1410 0.930 . S
H1415 C1412 0.929 . S
S1416 N1417 1.613 . S
S1416 N1418 1.610 . S
N1417 S1416 1.613 . S
N1417 C1420 1.350 . S
N1418 S1416 1.610 . S
N1418 C1419 1.351 . S
C1419 C1413 1.428 . S
C1419 N1418 1.351 . S
C1419 C1420 1.434 . S
C1420 C1411 1.429 . S
C1420 N1417 1.350 . S
C1420 C1419 1.434 . S
C1421 C1422 1.369 . S
C1421 C1423 1.419 . S
C1421 H1425 0.930 . S
C1422 C1421 1.369 . S
C1422 C1431 1.429 . S
C1423 C1421 1.419 . S
C1423 C1424 1.363 . S
C1423 H1426 0.929 . S
C1424 C1423 1.363 . S
C1424 C1430 1.428 . S
H1425 C1421 0.930 . S
H1426 C1423 0.929 . S
S1427 N1428 1.613 . S
S1427 N1429 1.610 . S
N1428 S1427 1.613 . S
N1428 C1431 1.350 . S
N1429 S1427 1.610 . S
N1429 C1430 1.351 . S
C1430 C1424 1.428 . S
C1430 N1429 1.351 . S
C1430 C1431 1.434 . S
C1431 C1422 1.429 . S
C1431 N1428 1.350 . S
C1431 C1430 1.434 . S
C1432 C1433 1.369 . S
C1432 C1434 1.419 . S
C1432 H1436 0.930 . S
C1433 C1432 1.369 . S
C1433 C1442 1.429 . S
C1434 C1432 1.419 . S
C1434 C1435 1.363 . S
C1434 H1437 0.929 . S
C1435 C1434 1.363 . S
C1435 C1441 1.428 . S
H1436 C1432 0.930 . S
H1437 C1434 0.929 . S
S1438 N1439 1.613 . S
S1438 N1440 1.610 . S
N1439 S1438 1.613 . S
N1439 C1442 1.350 . S
N1440 S1438 1.610 . S
N1440 C1441 1.351 . S
C1441 C1435 1.428 . S
C1441 N1440 1.351 . S
C1441 C1442 1.434 . S
C1442 C1433 1.429 . S
C1442 N1439 1.350 . S
C1442 C1441 1.434 . S
C1443 C1444 1.369 . S
C1443 C1445 1.419 . S
C1443 H1447 0.930 . S
C1444 C1443 1.369 . S
C1444 C1453 1.429 . S
C1445 C1443 1.419 . S
C1445 C1446 1.363 . S
C1445 H1448 0.929 . S
C1446 C1445 1.363 . S
C1446 C1452 1.428 . S
H1447 C1443 0.930 . S
H1448 C1445 0.929 . S
S1449 N1450 1.613 . S
S1449 N1451 1.610 . S
N1450 S1449 1.613 . S
N1450 C1453 1.350 . S
N1451 S1449 1.610 . S
N1451 C1452 1.351 . S
C1452 C1446 1.428 . S
C1452 N1451 1.351 . S
C1452 C1453 1.434 . S
C1453 C1444 1.429 . S
C1453 N1450 1.350 . S
C1453 C1452 1.434 . S
C1454 C1455 1.369 . S
C1454 C1456 1.419 . S
C1454 H1458 0.930 . S
C1455 C1454 1.369 . S
C1455 C1464 1.429 . S
C1456 C1454 1.419 . S
C1456 C1457 1.363 . S
C1456 H1459 0.929 . S
C1457 C1456 1.363 . S
C1457 C1463 1.428 . S
H1458 C1454 0.930 . S
H1459 C1456 0.929 . S
S1460 N1461 1.613 . S
S1460 N1462 1.610 . S
N1461 S1460 1.613 . S
N1461 C1464 1.350 . S
N1462 S1460 1.610 . S
N1462 C1463 1.351 . S
C1463 C1457 1.428 . S
C1463 N1462 1.351 . S
C1463 C1464 1.434 . S
C1464 C1455 1.429 . S
C1464 N1461 1.350 . S
C1464 C1463 1.434 . S
C1465 C1466 1.369 . S
C1465 C1467 1.419 . S
C1465 H1469 0.930 . S
C1466 C1465 1.369 . S
C1466 C1475 1.429 . S
C1467 C1465 1.419 . S
C1467 C1468 1.363 . S
C1467 H1470 0.929 . S
C1468 C1467 1.363 . S
C1468 C1474 1.428 . S
H1469 C1465 0.930 . S
H1470 C1467 0.929 . S
S1471 N1472 1.613 . S
S1471 N1473 1.610 . S
N1472 S1471 1.613 . S
N1472 C1475 1.350 . S
N1473 S1471 1.610 . S
N1473 C1474 1.351 . S
C1474 C1468 1.428 . S
C1474 N1473 1.351 . S
C1474 C1475 1.434 . S
C1475 C1466 1.429 . S
C1475 N1472 1.350 . S
C1475 C1474 1.434 . S
C1476 C1477 1.369 . S
C1476 C1478 1.419 . S
C1476 H1480 0.930 . S
C1477 C1476 1.369 . S
C1477 C1486 1.429 . S
C1478 C1476 1.419 . S
C1478 C1479 1.363 . S
C1478 H1481 0.929 . S
C1479 C1478 1.363 . S
C1479 C1485 1.428 . S
H1480 C1476 0.930 . S
H1481 C1478 0.929 . S
S1482 N1483 1.613 . S
S1482 N1484 1.610 . S
N1483 S1482 1.613 . S
N1483 C1486 1.350 . S
N1484 S1482 1.610 . S
N1484 C1485 1.351 . S
C1485 C1479 1.428 . S
C1485 N1484 1.351 . S
C1485 C1486 1.434 . S
C1486 C1477 1.429 . S
C1486 N1483 1.350 . S
C1486 C1485 1.434 . S
C1487 C1488 1.369 . S
C1487 C1489 1.419 . S
C1487 H1491 0.930 . S
C1488 C1487 1.369 . S
C1488 C1497 1.429 . S
C1489 C1487 1.419 . S
C1489 C1490 1.363 . S
C1489 H1492 0.929 . S
C1490 C1489 1.363 . S
C1490 C1496 1.428 . S
H1491 C1487 0.930 . S
H1492 C1489 0.929 . S
S1493 N1494 1.613 . S
S1493 N1495 1.610 . S
N1494 S1493 1.613 . S
N1494 C1497 1.350 . S
N1495 S1493 1.610 . S
N1495 C1496 1.351 . S
C1496 C1490 1.428 . S
C1496 N1495 1.351 . S
C1496 C1497 1.434 . S
C1497 C1488 1.429 . S
C1497 N1494 1.350 . S
C1497 C1496 1.434 . S
C1498 C1499 1.369 . S
C1498 C1500 1.419 . S
C1498 H1502 0.930 . S
C1499 C1498 1.369 . S
C1499 C1508 1.429 . S
C1500 C1498 1.419 . S
C1500 C1501 1.363 . S
C1500 H1503 0.929 . S
C1501 C1500 1.363 . S
C1501 C1507 1.428 . S
H1502 C1498 0.930 . S
H1503 C1500 0.929 . S
S1504 N1505 1.613 . S
S1504 N1506 1.610 . S
N1505 S1504 1.613 . S
N1505 C1508 1.350 . S
N1506 S1504 1.610 . S
N1506 C1507 1.351 . S
C1507 C1501 1.428 . S
C1507 N1506 1.351 . S
C1507 C1508 1.434 . S
C1508 C1499 1.429 . S
C1508 N1505 1.350 . S
C1508 C1507 1.434 . S
C1509 C1510 1.369 . S
C1509 C1511 1.419 . S
C1509 H1513 0.930 . S
C1510 C1509 1.369 . S
C1510 C1519 1.429 . S
C1511 C1509 1.419 . S
C1511 C1512 1.363 . S
C1511 H1514 0.929 . S
C1512 C1511 1.363 . S
C1512 C1518 1.428 . S
H1513 C1509 0.930 . S
H1514 C1511 0.929 . S
S1515 N1516 1.613 . S
S1515 N1517 1.610 1_554 S
N1516 S1515 1.613 . S
N1516 C1519 1.350 1_554 S
N1517 S1515 1.610 1_556 S
N1517 C1518 1.351 . S
C1518 C1512 1.428 . S
C1518 N1517 1.351 . S
C1518 C1519 1.434 . S
C1519 C1510 1.429 . S
C1519 N1516 1.350 1_556 S
C1519 C1518 1.434 . S
C1520 C1521 1.369 . S
C1520 C1522 1.419 . S
C1520 H1524 0.930 . S
C1521 C1520 1.369 . S
C1521 C1530 1.429 . S
C1522 C1520 1.419 . S
C1522 C1523 1.363 . S
C1522 H1525 0.929 . S
C1523 C1522 1.363 . S
C1523 C1529 1.428 . S
H1524 C1520 0.930 . S
H1525 C1522 0.929 . S
S1526 N1527 1.613 . S
S1526 N1528 1.610 1_554 S
N1527 S1526 1.613 . S
N1527 C1530 1.350 1_554 S
N1528 S1526 1.610 1_556 S
N1528 C1529 1.351 . S
C1529 C1523 1.428 . S
C1529 N1528 1.351 . S
C1529 C1530 1.434 . S
C1530 C1521 1.429 . S
C1530 N1527 1.350 1_556 S
C1530 C1529 1.434 . S
C1531 C1532 1.369 . S
C1531 C1533 1.419 . S
C1531 H1535 0.930 . S
C1532 C1531 1.369 . S
C1532 C1541 1.429 . S
C1533 C1531 1.419 . S
C1533 C1534 1.363 . S
C1533 H1536 0.929 . S
C1534 C1533 1.363 . S
C1534 C1540 1.428 . S
H1535 C1531 0.930 . S
H1536 C1533 0.929 . S
S1537 N1538 1.613 . S
S1537 N1539 1.610 1_554 S
N1538 S1537 1.613 . S
N1538 C1541 1.350 1_554 S
N1539 S1537 1.610 1_556 S
N1539 C1540 1.351 . S
C1540 C1534 1.428 . S
C1540 N1539 1.351 . S
C1540 C1541 1.434 . S
C1541 C1532 1.429 . S
C1541 N1538 1.350 1_556 S
C1541 C1540 1.434 . S
C1542 C1543 1.369 . S
C1542 C1544 1.419 . S
C1542 H1546 0.930 . S
C1543 C1542 1.369 . S
C1543 C1552 1.429 . S
C1544 C1542 1.419 . S
C1544 C1545 1.363 . S
C1544 H1547 0.929 . S
C1545 C1544 1.363 . S
C1545 C1551 1.428 . S
H1546 C1542 0.930 . S
H1547 C1544 0.929 . S
S1548 N1549 1.613 . S
S1548 N1550 1.610 1_554 S
N1549 S1548 1.613 . S
N1549 C1552 1.350 1_554 S
N1550 S1548 1.610 1_556 S
N1550 C1551 1.351 . S
C1551 C1545 1.428 . S
C1551 N1550 1.351 . S
C1551 C1552 1.434 . S
C1552 C1543 1.429 . S
C1552 N1549 1.350 1_556 S
C1552 C1551 1.434 . S
C1553 C1554 1.369 . S
C1553 C1555 1.419 . S
C1553 H1557 0.901 1_556 S
C1554 C1553 1.369 . S
C1554 C1563 1.429 . S
C1555 C1553 1.419 . S
C1555 C1556 1.363 . S
C1555 H1558 0.929 . S
C1556 C1555 1.363 . S
C1556 C1562 1.428 . S
H1557 C1553 0.901 1_554 S
H1558 C1555 0.929 . S
S1559 N1560 1.613 . S
S1559 N1561 1.610 . S
N1560 S1559 1.613 . S
N1560 C1563 1.350 . S
N1561 S1559 1.610 . S
N1561 C1562 1.351 . S
C1562 C1556 1.428 . S
C1562 N1561 1.351 . S
C1562 C1563 1.434 . S
C1563 C1554 1.429 . S
C1563 N1560 1.350 . S
C1563 C1562 1.434 . S
C1564 C1565 1.369 . S
C1564 C1566 1.419 . S
C1564 H1568 0.930 1_556 S
C1565 C1564 1.369 . S
C1565 C1574 1.429 . S
C1566 C1564 1.419 . S
C1566 C1567 1.363 . S
C1566 H1569 0.929 . S
C1567 C1566 1.363 . S
C1567 C1573 1.428 . S
H1568 C1564 0.930 1_554 S
H1569 C1566 0.929 . S
S1570 N1571 1.613 . S
S1570 N1572 1.610 . S
N1571 S1570 1.613 . S
N1571 C1574 1.350 . S
N1572 S1570 1.610 . S
N1572 C1573 1.351 . S
C1573 C1567 1.428 . S
C1573 N1572 1.351 . S
C1573 C1574 1.434 . S
C1574 C1565 1.429 . S
C1574 N1571 1.350 . S
C1574 C1573 1.434 . S
C1575 C1576 1.369 . S
C1575 C1577 1.419 . S
C1575 H1579 0.930 . S
C1576 C1575 1.369 . S
C1576 C1585 1.429 . S
C1577 C1575 1.419 . S
C1577 C1578 1.363 . S
C1577 H1580 0.929 . S
C1578 C1577 1.363 . S
C1578 C1584 1.428 . S
H1579 C1575 0.930 . S
H1580 C1577 0.929 . S
S1581 N1582 1.613 . S
S1581 N1583 1.610 . S
N1582 S1581 1.613 . S
N1582 C1585 1.350 . S
N1583 S1581 1.610 . S
N1583 C1584 1.351 . S
C1584 C1578 1.428 . S
C1584 N1583 1.351 . S
C1584 C1585 1.434 . S
C1585 C1576 1.429 . S
C1585 N1582 1.350 . S
C1585 C1584 1.434 . S
C1586 C1587 1.369 . S
C1586 C1588 1.419 . S
C1586 H1590 0.930 . S
C1587 C1586 1.369 . S
C1587 C1596 1.429 . S
C1588 C1586 1.419 . S
C1588 C1589 1.363 . S
C1588 H1591 0.929 . S
C1589 C1588 1.363 . S
C1589 C1595 1.428 . S
H1590 C1586 0.930 . S
H1591 C1588 0.929 . S
S1592 N1593 1.613 . S
S1592 N1594 1.610 . S
N1593 S1592 1.613 . S
N1593 C1596 1.350 . S
N1594 S1592 1.610 . S
N1594 C1595 1.351 . S
C1595 C1589 1.428 . S
C1595 N1594 1.351 . S
C1595 C1596 1.434 . S
C1596 C1587 1.429 . S
C1596 N1593 1.350 . S
C1596 C1595 1.434 . S
C1597 C1598 1.369 . S
C1597 C1599 1.419 . S
C1597 H1601 0.930 . S
C1598 C1597 1.369 . S
C1598 C1607 1.429 . S
C1599 C1597 1.419 . S
C1599 C1600 1.363 . S
C1599 H1602 0.929 . S
C1600 C1599 1.363 . S
C1600 C1606 1.428 . S
H1601 C1597 0.930 . S
H1602 C1599 0.929 . S
S1603 N1604 1.613 . S
S1603 N1605 1.610 . S
N1604 S1603 1.613 . S
N1604 C1607 1.350 . S
N1605 S1603 1.610 . S
N1605 C1606 1.351 . S
C1606 C1600 1.428 . S
C1606 N1605 1.351 . S
C1606 C1607 1.434 . S
C1607 C1598 1.429 . S
C1607 N1604 1.350 . S
C1607 C1606 1.434 . S
C1608 C1609 1.369 . S
C1608 C1610 1.419 . S
C1608 H1612 0.930 . S
C1609 C1608 1.369 . S
C1609 C1618 1.429 . S
C1610 C1608 1.419 . S
C1610 C1611 1.363 . S
C1610 H1613 0.929 . S
C1611 C1610 1.363 . S
C1611 C1617 1.428 . S
H1612 C1608 0.930 . S
H1613 C1610 0.929 . S
S1614 N1615 1.613 . S
S1614 N1616 1.610 . S
N1615 S1614 1.613 . S
N1615 C1618 1.350 . S
N1616 S1614 1.610 . S
N1616 C1617 1.351 . S
C1617 C1611 1.428 . S
C1617 N1616 1.351 . S
C1617 C1618 1.434 . S
C1618 C1609 1.429 . S
C1618 N1615 1.350 . S
C1618 C1617 1.434 . S
C1619 C1620 1.369 . S
C1619 C1621 1.419 . S
C1619 H1623 0.930 . S
C1620 C1619 1.369 . S
C1620 C1629 1.429 . S
C1621 C1619 1.419 . S
C1621 C1622 1.363 . S
C1621 H1624 0.929 . S
C1622 C1621 1.363 . S
C1622 C1628 1.428 . S
H1623 C1619 0.930 . S
H1624 C1621 0.929 . S
S1625 N1626 1.613 . S
S1625 N1627 1.610 . S
N1626 S1625 1.613 . S
N1626 C1629 1.350 . S
N1627 S1625 1.610 . S
N1627 C1628 1.351 . S
C1628 C1622 1.428 . S
C1628 N1627 1.351 . S
C1628 C1629 1.434 . S
C1629 C1620 1.429 . S
C1629 N1626 1.350 . S
C1629 C1628 1.434 . S
C1630 C1631 1.369 . S
C1630 C1632 1.419 . S
C1630 H1634 0.930 . S
C1631 C1630 1.369 . S
C1631 C1640 1.429 . S
C1632 C1630 1.419 . S
C1632 C1633 1.363 . S
C1632 H1635 0.929 . S
C1633 C1632 1.363 . S
C1633 C1639 1.428 . S
H1634 C1630 0.930 . S
H1635 C1632 0.929 . S
S1636 N1637 1.613 . S
S1636 N1638 1.610 . S
N1637 S1636 1.613 . S
N1637 C1640 1.350 . S
N1638 S1636 1.610 . S
N1638 C1639 1.351 . S
C1639 C1633 1.428 . S
C1639 N1638 1.351 . S
C1639 C1640 1.434 . S
C1640 C1631 1.429 . S
C1640 N1637 1.350 . S
C1640 C1639 1.434 . S
C1641 C1642 1.369 . S
C1641 C1643 1.419 . S
C1641 H1645 0.930 . S
C1642 C1641 1.369 . S
C1642 C1651 1.429 . S
C1643 C1641 1.419 . S
C1643 C1644 1.363 . S
C1643 H1646 0.929 . S
C1644 C1643 1.363 . S
C1644 C1650 1.428 . S
H1645 C1641 0.930 . S
H1646 C1643 0.929 . S
S1647 N1648 1.613 . S
S1647 N1649 1.610 . S
N1648 S1647 1.613 . S
N1648 C1651 1.350 . S
N1649 S1647 1.610 . S
N1649 C1650 1.351 . S
C1650 C1644 1.428 . S
C1650 N1649 1.351 . S
C1650 C1651 1.434 . S
C1651 C1642 1.429 . S
C1651 N1648 1.350 . S
C1651 C1650 1.434 . S
C1652 C1653 1.369 . S
C1652 C1654 1.419 . S
C1652 H1656 0.930 . S
C1653 C1652 1.369 . S
C1653 C1662 1.429 . S
C1654 C1652 1.419 . S
C1654 C1655 1.363 . S
C1654 H1657 0.929 . S
C1655 C1654 1.363 . S
C1655 C1661 1.428 . S
H1656 C1652 0.930 . S
H1657 C1654 0.929 . S
S1658 N1659 1.613 . S
S1658 N1660 1.610 . S
N1659 S1658 1.613 . S
N1659 C1662 1.350 . S
N1660 S1658 1.610 . S
N1660 C1661 1.351 . S
C1661 C1655 1.428 . S
C1661 N1660 1.351 . S
C1661 C1662 1.434 . S
C1662 C1653 1.429 . S
C1662 N1659 1.350 . S
C1662 C1661 1.434 . S
C1663 C1664 1.369 1_545 S
C1663 C1665 1.419 . S
C1663 H1667 0.930 . S
C1664 C1663 1.369 1_565 S
C1664 C1673 1.429 . S
C1665 C1663 1.419 . S
C1665 C1666 1.363 1_545 S
C1665 H1668 0.929 . S
C1666 C1665 1.363 1_565 S
C1666 C1672 1.428 . S
H1667 C1663 0.930 . S
H1668 C1665 0.929 . S
S1669 N1670 1.613 . S
S1669 N1671 1.610 . S
N1670 S1669 1.613 . S
N1670 C1673 1.350 . S
N1671 S1669 1.610 . S
N1671 C1672 1.351 . S
C1672 C1666 1.428 . S
C1672 N1671 1.351 . S
C1672 C1673 1.434 . S
C1673 C1664 1.429 . S
C1673 N1670 1.350 . S
C1673 C1672 1.434 . S
C1674 C1675 1.369 . S
C1674 C1676 1.419 . S
C1674 H1678 0.930 . S
C1675 C1674 1.369 . S
C1675 C1684 1.429 1_565 S
C1676 C1674 1.419 . S
C1676 C1677 1.363 . S
C1676 H1679 0.929 . S
C1677 C1676 1.363 . S
C1677 C1683 1.428 1_565 S
H1678 C1674 0.930 . S
H1679 C1676 0.929 . S
S1680 N1681 1.613 . S
S1680 N1682 1.610 . S
N1681 S1680 1.613 . S
N1681 C1684 1.350 . S
N1682 S1680 1.610 . S
N1682 C1683 1.351 . S
C1683 C1677 1.428 1_545 S
C1683 N1682 1.351 . S
C1683 C1684 1.434 . S
C1684 C1675 1.429 1_545 S
C1684 N1681 1.350 . S
C1684 C1683 1.434 . S
C1685 C1686 1.369 1_655 S
C1685 C1687 1.419 . S
C1685 H1689 0.930 . S
C1686 C1685 1.369 1_455 S
C1686 C1695 1.429 . S
C1687 C1685 1.419 . S
C1687 C1688 1.363 1_655 S
C1687 H1690 0.929 . S
C1688 C1687 1.363 1_455 S
C1688 C1694 1.428 . S
H1689 C1685 0.930 . S
H1690 C1687 0.929 . S
S1691 N1692 1.613 . S
S1691 N1693 1.610 . S
N1692 S1691 1.613 . S
N1692 C1695 1.350 . S
N1693 S1691 1.610 . S
N1693 C1694 1.351 . S
C1694 C1688 1.428 . S
C1694 N1693 1.351 . S
C1694 C1695 1.434 . S
C1695 C1686 1.429 . S
C1695 N1692 1.350 . S
C1695 C1694 1.434 . S
C1696 C1697 1.369 . S
C1696 C1698 1.419 . S
C1696 H1700 0.930 . S
C1697 C1696 1.369 . S
C1697 C1706 1.429 . S
C1698 C1696 1.419 . S
C1698 C1699 1.363 . S
C1698 H1701 0.929 . S
C1699 C1698 1.363 . S
C1699 C1705 1.428 . S
H1700 C1696 0.930 . S
H1701 C1698 0.929 . S
S1702 N1703 1.613 . S
S1702 N1704 1.610 . S
N1703 S1702 1.613 . S
N1703 C1706 1.350 . S
N1704 S1702 1.610 . S
N1704 C1705 1.351 . S
C1705 C1699 1.428 . S
C1705 N1704 1.351 . S
C1705 C1706 1.434 . S
C1706 C1697 1.429 . S
C1706 N1703 1.350 . S
C1706 C1705 1.434 . S
C1707 C1708 1.369 . S
C1707 C1709 1.419 . S
C1707 H1711 0.930 . S
C1708 C1707 1.369 . S
C1708 C1717 1.429 . S
C1709 C1707 1.419 . S
C1709 C1710 1.363 . S
C1709 H1712 0.929 . S
C1710 C1709 1.363 . S
C1710 C1716 1.428 . S
H1711 C1707 0.930 . S
H1712 C1709 0.929 . S
S1713 N1714 1.613 . S
S1713 N1715 1.610 . S
N1714 S1713 1.613 . S
N1714 C1717 1.350 . S
N1715 S1713 1.610 . S
N1715 C1716 1.351 . S
C1716 C1710 1.428 . S
C1716 N1715 1.351 . S
C1716 C1717 1.434 . S
C1717 C1708 1.429 . S
C1717 N1714 1.350 . S
C1717 C1716 1.434 . S
C1718 C1719 1.369 . S
C1718 C1720 1.419 . S
C1718 H1722 0.930 . S
C1719 C1718 1.369 . S
C1719 C1728 1.429 . S
C1720 C1718 1.419 . S
C1720 C1721 1.363 . S
C1720 H1723 0.929 . S
C1721 C1720 1.363 . S
C1721 C1727 1.428 . S
H1722 C1718 0.930 . S
H1723 C1720 0.929 . S
S1724 N1725 1.613 . S
S1724 N1726 1.610 . S
N1725 S1724 1.613 . S
N1725 C1728 1.350 . S
N1726 S1724 1.610 . S
N1726 C1727 1.351 . S
C1727 C1721 1.428 . S
C1727 N1726 1.351 . S
C1727 C1728 1.434 . S
C1728 C1719 1.429 . S
C1728 N1725 1.350 . S
C1728 C1727 1.434 . S
C1729 C1730 1.369 . S
C1729 C1731 1.419 . S
C1729 H1733 0.930 . S
C1730 C1729 1.369 . S
C1730 C1739 1.429 . S
C1731 C1729 1.419 . S
C1731 C1732 1.363 . S
C1731 H1734 0.929 . S
C1732 C1731 1.363 . S
C1732 C1738 1.428 . S
H1733 C1729 0.930 . S
H1734 C1731 0.929 . S
S1735 N1736 1.613 . S
S1735 N1737 1.610 . S
N1736 S1735 1.613 . S
N1736 C1739 1.350 . S
N1737 S1735 1.610 . S
N1737 C1738 1.351 . S
C1738 C1732 1.428 . S
C1738 N1737 1.351 . S
C1738 C1739 1.434 . S
C1739 C1730 1.429 . S
C1739 N1736 1.350 . S
C1739 C1738 1.434 . S
C1740 C1741 1.369 1_565 S
C1740 C1742 1.419 . S
C1740 H1744 0.930 . S
C1741 C1740 1.369 1_545 S
C1741 C1750 1.429 . S
C1742 C1740 1.419 . S
C1742 C1743 1.363 1_565 S
C1742 H1745 0.929 . S
C1743 C1742 1.363 1_545 S
C1743 C1749 1.428 . S
H1744 C1740 0.930 . S
H1745 C1742 0.929 . S
S1746 N1747 1.613 . S
S1746 N1748 1.610 . S
N1747 S1746 1.613 . S
N1747 C1750 1.350 . S
N1748 S1746 1.610 . S
N1748 C1749 1.351 . S
C1749 C1743 1.428 . S
C1749 N1748 1.351 . S
C1749 C1750 1.434 . S
C1750 C1741 1.429 . S
C1750 N1747 1.350 . S
C1750 C1749 1.434 . S
C1751 C1752 1.369 1_455 S
C1751 C1753 1.419 . S
C1751 H1755 0.930 . S
C1752 C1751 1.369 1_655 S
C1752 C1761 1.429 . S
C1753 C1751 1.419 . S
C1753 C1754 1.363 1_455 S
C1753 H1756 0.929 . S
C1754 C1753 1.363 1_655 S
C1754 C1760 1.428 . S
H1755 C1751 0.930 . S
H1756 C1753 0.929 . S
S1757 N1758 1.613 . S
S1757 N1759 1.610 . S
N1758 S1757 1.613 . S
N1758 C1761 1.350 . S
N1759 S1757 1.610 . S
N1759 C1760 1.351 . S
C1760 C1754 1.428 . S
C1760 N1759 1.351 . S
C1760 C1761 1.434 . S
C1761 C1752 1.429 . S
C1761 N1758 1.350 . S
C1761 C1760 1.434 . S
C1762 C1763 1.369 . S
C1762 C1764 1.419 . S
C1762 H1766 0.930 . S
C1763 C1762 1.369 . S
C1763 C1772 1.429 . S
C1764 C1762 1.419 . S
C1764 C1765 1.363 . S
C1764 H1767 0.929 . S
C1765 C1764 1.363 . S
C1765 C1771 1.428 . S
H1766 C1762 0.930 . S
H1767 C1764 0.929 . S
S1768 N1769 1.613 . S
S1768 N1770 1.610 . S
N1769 S1768 1.613 . S
N1769 C1772 1.350 . S
N1770 S1768 1.610 . S
N1770 C1771 1.351 . S
C1771 C1765 1.428 . S
C1771 N1770 1.351 . S
C1771 C1772 1.434 . S
C1772 C1763 1.429 . S
C1772 N1769 1.350 . S
C1772 C1771 1.434 . S
C1773 C1774 1.369 . S
C1773 C1775 1.419 . S
C1773 H1777 0.930 . S
C1774 C1773 1.369 . S
C1774 C1783 1.429 . S
C1775 C1773 1.419 . S
C1775 C1776 1.363 . S
C1775 H1778 0.929 . S
C1776 C1775 1.363 . S
C1776 C1782 1.428 . S
H1777 C1773 0.930 . S
H1778 C1775 0.929 . S
S1779 N1780 1.613 . S
S1779 N1781 1.610 . S
N1780 S1779 1.613 . S
N1780 C1783 1.350 . S
N1781 S1779 1.610 . S
N1781 C1782 1.351 . S
C1782 C1776 1.428 . S
C1782 N1781 1.351 . S
C1782 C1783 1.434 . S
C1783 C1774 1.429 . S
C1783 N1780 1.350 . S
C1783 C1782 1.434 . S
C1784 C1785 1.369 . S
C1784 C1786 1.419 . S
C1784 H1788 0.930 . S
C1785 C1784 1.369 . S
C1785 C1794 1.429 . S
C1786 C1784 1.419 . S
C1786 C1787 1.363 . S
C1786 H1789 0.929 . S
C1787 C1786 1.363 . S
C1787 C1793 1.428 . S
H1788 C1784 0.930 . S
H1789 C1786 0.929 . S
S1790 N1791 1.613 . S
S1790 N1792 1.610 . S
N1791 S1790 1.613 . S
N1791 C1794 1.350 . S
N1792 S1790 1.610 . S
N1792 C1793 1.351 . S
C1793 C1787 1.428 . S
C1793 N1792 1.351 . S
C1793 C1794 1.434 . S
C1794 C1785 1.429 . S
C1794 N1791 1.350 . S
C1794 C1793 1.434 . S
C1795 C1796 1.369 . S
C1795 C1797 1.419 . S
C1795 H1799 0.930 . S
C1796 C1795 1.369 . S
C1796 C1805 1.429 . S
C1797 C1795 1.419 . S
C1797 C1798 1.363 . S
C1797 H1800 0.929 . S
C1798 C1797 1.363 . S
C1798 C1804 1.428 . S
H1799 C1795 0.930 . S
H1800 C1797 0.929 . S
S1801 N1802 1.613 . S
S1801 N1803 1.610 . S
N1802 S1801 1.613 . S
N1802 C1805 1.350 . S
N1803 S1801 1.610 . S
N1803 C1804 1.351 . S
C1804 C1798 1.428 . S
C1804 N1803 1.351 . S
C1804 C1805 1.434 . S
C1805 C1796 1.429 . S
C1805 N1802 1.350 . S
C1805 C1804 1.434 . S
C1806 C1807 1.369 . S
C1806 C1808 1.419 . S
C1806 H1810 0.930 . S
C1807 C1806 1.369 . S
C1807 C1816 1.429 . S
C1808 C1806 1.419 . S
C1808 C1809 1.363 . S
C1808 H1811 0.929 . S
C1809 C1808 1.363 . S
C1809 C1815 1.428 . S
H1810 C1806 0.930 . S
H1811 C1808 0.929 . S
S1812 N1813 1.613 . S
S1812 N1814 1.610 . S
N1813 S1812 1.613 . S
N1813 C1816 1.350 . S
N1814 S1812 1.610 . S
N1814 C1815 1.351 . S
C1815 C1809 1.428 . S
C1815 N1814 1.351 . S
C1815 C1816 1.434 . S
C1816 C1807 1.429 . S
C1816 N1813 1.350 . S
C1816 C1815 1.434 . S
C1817 C1818 1.369 . S
C1817 C1819 1.419 . S
C1817 H1821 0.930 . S
C1818 C1817 1.369 . S
C1818 C1827 1.429 . S
C1819 C1817 1.419 . S
C1819 C1820 1.363 . S
C1819 H1822 0.929 . S
C1820 C1819 1.363 . S
C1820 C1826 1.428 . S
H1821 C1817 0.930 . S
H1822 C1819 0.929 . S
S1823 N1824 1.613 . S
S1823 N1825 1.610 . S
N1824 S1823 1.613 . S
N1824 C1827 1.350 . S
N1825 S1823 1.610 . S
N1825 C1826 1.351 . S
C1826 C1820 1.428 . S
C1826 N1825 1.351 . S
C1826 C1827 1.434 . S
C1827 C1818 1.429 . S
C1827 N1824 1.350 . S
C1827 C1826 1.434 . S
C1828 C1829 1.369 . S
C1828 C1830 1.419 . S
C1828 H1832 0.930 . S
C1829 C1828 1.369 . S
C1829 C1838 1.429 . S
C1830 C1828 1.419 . S
C1830 C1831 1.363 . S
C1830 H1833 0.929 . S
C1831 C1830 1.363 . S
C1831 C1837 1.428 . S
H1832 C1828 0.930 . S
H1833 C1830 0.929 . S
S1834 N1835 1.613 . S
S1834 N1836 1.610 . S
N1835 S1834 1.613 . S
N1835 C1838 1.350 . S
N1836 S1834 1.610 . S
N1836 C1837 1.351 . S
C1837 C1831 1.428 . S
C1837 N1836 1.351 . S
C1837 C1838 1.434 . S
C1838 C1829 1.429 . S
C1838 N1835 1.350 . S
C1838 C1837 1.434 . S
C1839 C1840 1.369 . S
C1839 C1841 1.419 . S
C1839 H1843 0.930 . S
C1840 C1839 1.369 . S
C1840 C1849 1.429 1_655 S
C1841 C1839 1.419 . S
C1841 C1842 1.363 . S
C1841 H1844 0.929 . S
C1842 C1841 1.363 . S
C1842 C1848 1.428 1_655 S
H1843 C1839 0.930 . S
H1844 C1841 0.929 . S
S1845 N1846 1.613 . S
S1845 N1847 1.610 . S
N1846 S1845 1.613 . S
N1846 C1849 1.350 . S
N1847 S1845 1.610 . S
N1847 C1848 1.351 . S
C1848 C1842 1.428 1_455 S
C1848 N1847 1.351 . S
C1848 C1849 1.434 . S
C1849 C1840 1.429 1_455 S
C1849 N1846 1.350 . S
C1849 C1848 1.434 . S
C1850 C1851 1.369 . S
C1850 C1852 1.419 . S
C1850 H1854 0.930 . S
C1851 C1850 1.369 . S
C1851 C1860 1.429 . S
C1852 C1850 1.419 . S
C1852 C1853 1.363 . S
C1852 H1855 0.929 . S
C1853 C1852 1.363 . S
C1853 C1859 1.428 . S
H1854 C1850 0.930 . S
H1855 C1852 0.929 . S
S1856 N1857 1.613 . S
S1856 N1858 1.610 . S
N1857 S1856 1.613 . S
N1857 C1860 1.350 . S
N1858 S1856 1.610 . S
N1858 C1859 1.351 . S
C1859 C1853 1.428 . S
C1859 N1858 1.351 . S
C1859 C1860 1.434 . S
C1860 C1851 1.429 . S
C1860 N1857 1.350 . S
C1860 C1859 1.434 . S
C1861 C1862 1.369 . S
C1861 C1863 1.419 . S
C1861 H1865 0.930 . S
C1862 C1861 1.369 . S
C1862 C1871 1.429 1_545 S
C1863 C1861 1.419 . S
C1863 C1864 1.363 . S
C1863 H1866 0.929 . S
C1864 C1863 1.363 . S
C1864 C1870 1.428 1_545 S
H1865 C1861 0.930 . S
H1866 C1863 0.929 . S
S1867 N1868 1.613 . S
S1867 N1869 1.610 . S
N1868 S1867 1.613 . S
N1868 C1871 1.350 . S
N1869 S1867 1.610 . S
N1869 C1870 1.351 . S
C1870 C1864 1.428 1_565 S
C1870 N1869 1.351 . S
C1870 C1871 1.434 . S
C1871 C1862 1.429 1_565 S
C1871 N1868 1.350 . S
C1871 C1870 1.434 . S
C1081 C7 1.457 . S
C1083 C688 1.478 . S
C1092 C23 1.628 . S
C1094 C734 1.592 . S
C1105 C766 1.490 . S
C1103 C37 1.445 . S
C1114 C35 1.458 . S
C1116 C819 1.478 . S
C1125 C9 1.457 . S
C1127 C865 1.496 . S
C1136 C21 1.589 . S
C1138 C904 1.624 . S
C1147 C49 1.456 . S
C1149 C858 1.473 . S
C1160 C911 1.608 . S
C1158 C65 1.629 . S
C1171 C812 1.500 . S
C1169 C79 1.459 . S
C1180 C77 1.448 . S
C1182 C773 1.465 . S
C1193 C667 1.499 . S
C1191 C51 1.457 . S
C1202 C63 1.589 . S
C1204 C713 1.604 . S
C1213 C91 1.655 . S
C1215 C943 1.686 . S
C1224 C107 1.702 . S
C1226 C1010 1.652 . S
C1237 C1056 1.650 . S
C1235 C121 1.704 . S
C1246 C119 1.620 . S
C1248 C267 1.632 . S
C1257 C93 1.701 . S
C1259 C313 1.655 . S
C1268 C105 1.648 . S
C1270 C359 1.645 . S
C1279 C133 1.581 . S
C1281 C306 1.586 . S
C1290 C149 1.680 . S
C1292 C352 1.634 . S
C1303 C260 1.648 . S
C1301 C163 1.696 . S
C1314 C1035 1.710 . S
C1312 C161 1.696 . S
C1325 C964 1.661 . S
C1323 C135 1.699 . S
C1336 C989 1.673 . S
C1334 C147 1.663 . S
C1345 C175 1.584 . S
C1347 C391 1.604 . S
C1356 C191 1.674 . S
C1358 C444 1.645 . S
C1367 C205 1.693 . S
C1369 C490 1.662 . S
C1378 C203 1.693 . S
C1380 C536 1.725 . S
C1391 C589 1.651 . S
C1389 C177 1.707 . S
C1402 C635 1.678 . S
C1400 C189 1.664 . S
C1413 C582 1.677 . S
C1411 C217 1.665 . S
C1424 C628 1.658 . S
C1422 C233 1.708 . S
C1433 C247 1.701 . S
C1435 C543 1.667 . S
C1446 C497 1.645 . S
C1444 C245 1.615 . S
C1455 C219 1.697 . S
C1457 C412 1.666 . S
C1468 C451 1.666 . S
C1466 C231 1.647 . S
C1479 C274 1.637 . S
C1477 C8 1.657 . S
C1488 C17 1.577 . S
C1490 C320 1.557 . S
C1501 C366 1.646 . S
C1499 C31 1.656 . S
C1512 C398 1.634 . S
C1510 C36 1.667 . S
C1523 C437 1.614 . S
C1521 C3 1.640 . S
C1534 C483 1.550 . S
C1532 C22 1.592 . S
C1543 C50 1.662 . S
C1545 C504 1.625 . S
C1554 C59 1.569 . S
C1556 C405 1.535 . S
C1565 C73 1.638 . S
C1567 C458 1.617 . S
C1576 C78 1.684 . S
C1578 C299 1.663 . S
C1589 C345 1.629 . S
C1587 C45 1.642 . S
C1598 C64 1.592 . S
C1600 C253 1.568 . S
C1611 C529 1.579 . S
C1609 C92 1.624 . S
C1620 C101 1.683 . S
C1622 C596 1.659 . S
C1631 C115 1.692 . S
C1633 C642 1.665 . S
C1644 C681 1.453 . S
C1642 C120 1.449 . S
C1653 C87 1.614 . S
C1655 C727 1.593 . S
C1664 C106 1.415 . S
C1666 C759 1.421 . S
C1675 C134 1.437 . S
C1677 C780 1.433 . S
C1686 C143 1.438 . S
C1688 C674 1.433 . S
C1699 C720 1.610 . S
C1697 C157 1.621 . S
C1708 C162 1.637 . S
C1710 C575 1.611 . S
C1719 C129 1.687 . S
C1721 C621 1.661 . S
C1732 C550 1.636 . S
C1730 C148 1.688 . S
C1743 C826 1.440 . S
C1741 C176 1.436 . S
C1752 C185 1.437 . S
C1754 C872 1.435 . S
C1763 C199 1.620 . S
C1765 C897 1.591 . S
C1776 C950 1.582 . S
C1774 C204 1.627 . S
C1787 C1003 1.660 . S
C1785 C171 1.687 . S
C1796 C190 1.689 . S
C1798 C1049 1.656 . S
C1807 C218 1.628 . S
C1809 C1042 1.601 . S
C1818 C227 1.679 . S
C1820 C957 1.639 . S
C1831 C996 1.657 . S
C1829 C241 1.681 . S
C1842 C851 1.446 . S
C1840 C246 1.443 . S
C1853 C918 1.587 . S
C1851 C213 1.615 . S
C1862 C232 1.423 . S
C1864 C805 1.422 . S
