# Generated by pormake.
# Topology zzz, (3,6)-cn, num edge types: 1
# Building blocks:
#     Node 0, Type 0, BuildingBlock: VETTIZ_charged_linker_0, # of connection points: 3
#     Node 1, Type 0, BuildingBlock: VETTIZ_charged_linker_0, # of connection points: 3
#     Node 2, Type 0, BuildingBlock: VETTIZ_charged_linker_0, # of connection points: 3
#     Node 3, Type 0, BuildingBlock: VETTIZ_charged_linker_0, # of connection points: 3
#     Node 4, Type 0, BuildingBlock: VETTIZ_charged_linker_0, # of connection points: 3
#     Node 5, Type 0, BuildingBlock: VETTIZ_charged_linker_0, # of connection points: 3
#     Node 6, Type 0, BuildingBlock: VETTIZ_charged_linker_0, # of connection points: 3
#     Node 7, Type 0, BuildingBlock: VETTIZ_charged_linker_0, # of connection points: 3
#     Node 8, Type 1, BuildingBlock: KUMBOL_clean_sbu_1, # of connection points: 6
#     Node 9, Type 1, BuildingBlock: KUMBOL_clean_sbu_1, # of connection points: 6
#     Node 10, Type 1, BuildingBlock: KUMBOL_clean_sbu_1, # of connection points: 6
#     Node 11, Type 1, BuildingBlock: KUMBOL_clean_sbu_1, # of connection points: 6
#     Edge 12, Type (0, 1), BuildingBlock: OJICUG_clean_linker_0, # of connection points: 2
#     Edge 13, Type (0, 1), BuildingBlock: OJICUG_clean_linker_0, # of connection points: 2
#     Edge 14, Type (0, 1), BuildingBlock: OJICUG_clean_linker_0, # of connection points: 2
#     Edge 15, Type (0, 1), BuildingBlock: OJICUG_clean_linker_0, # of connection points: 2
#     Edge 16, Type (0, 1), BuildingBlock: OJICUG_clean_linker_0, # of connection points: 2
#     Edge 17, Type (0, 1), BuildingBlock: OJICUG_clean_linker_0, # of connection points: 2
#     Edge 18, Type (0, 1), BuildingBlock: OJICUG_clean_linker_0, # of connection points: 2
#     Edge 19, Type (0, 1), BuildingBlock: OJICUG_clean_linker_0, # of connection points: 2
#     Edge 20, Type (0, 1), BuildingBlock: OJICUG_clean_linker_0, # of connection points: 2
#     Edge 21, Type (0, 1), BuildingBlock: OJICUG_clean_linker_0, # of connection points: 2
#     Edge 22, Type (0, 1), BuildingBlock: OJICUG_clean_linker_0, # of connection points: 2
#     Edge 23, Type (0, 1), BuildingBlock: OJICUG_clean_linker_0, # of connection points: 2
#     Edge 24, Type (0, 1), BuildingBlock: OJICUG_clean_linker_0, # of connection points: 2
#     Edge 25, Type (0, 1), BuildingBlock: OJICUG_clean_linker_0, # of connection points: 2
#     Edge 26, Type (0, 1), BuildingBlock: OJICUG_clean_linker_0, # of connection points: 2
#     Edge 27, Type (0, 1), BuildingBlock: OJICUG_clean_linker_0, # of connection points: 2
#     Edge 28, Type (0, 1), BuildingBlock: OJICUG_clean_linker_0, # of connection points: 2
#     Edge 29, Type (0, 1), BuildingBlock: OJICUG_clean_linker_0, # of connection points: 2
#     Edge 30, Type (0, 1), BuildingBlock: OJICUG_clean_linker_0, # of connection points: 2
#     Edge 31, Type (0, 1), BuildingBlock: OJICUG_clean_linker_0, # of connection points: 2
#     Edge 32, Type (0, 1), BuildingBlock: OJICUG_clean_linker_0, # of connection points: 2
#     Edge 33, Type (0, 1), BuildingBlock: OJICUG_clean_linker_0, # of connection points: 2
#     Edge 34, Type (0, 1), BuildingBlock: OJICUG_clean_linker_0, # of connection points: 2
#     Edge 35, Type (0, 1), BuildingBlock: OJICUG_clean_linker_0, # of connection points: 2
# Relax obj value: 0.362
# Max RMSD: 0.208
# Mean RMSD: 0.188
data_MOF--net-zzz--node1-KUMBOL_clean_sbu_1--node2-VETTIZ_charged_linker_0--edge1-OJICUG_clean_linker_0
_symmetry_space_group_name_H-M    P1
_symmetry_Int_Tables_number       1
_symmetry_cell_setting            triclinic
loop_
_symmetry_equiv_pos_as_xyz
'x, y, z'
_cell_length_a     43.088213
_cell_length_b     43.191497
_cell_length_c     16.110459
_cell_angle_alpha  90.182744
_cell_angle_beta   90.037129
_cell_angle_gamma 90.320973
loop_
_atom_site_label
_atom_site_type_symbol
_atom_site_fract_x
_atom_site_fract_y
_atom_site_fract_z
_atom_type_partial_charge
C0 C 0.83791 0.55848 0.36136 0.0
C1 C 0.86502 0.57415 0.39308 0.0
C2 C 0.87111 0.60429 0.36365 0.0
C3 C 0.82813 0.60146 0.26791 0.0
C4 C 0.81912 0.57325 0.29933 0.0
C5 C 0.78764 0.5639 0.2602 0.0
H6 H 0.67501 0.60774 0.96889 0.0
C7 C 0.80655 0.61138 0.2032 0.0
C8 C 0.78098 0.59096 0.19975 0.0
H9 H 0.67061 0.52438 0.11514 0.0
H10 H 0.71968 0.53908 0.1843 0.0
H11 H 0.7015 0.65524 0.11115 0.0
H12 H 0.72907 0.60289 0.9077 0.0
H13 H 0.7657 0.61895 0.92936 0.0
H14 H 0.73347 0.6434 0.89993 0.0
H15 H 0.69607 0.66208 1.00171 0.0
H16 H 0.729 0.67768 0.05735 0.0
C17 C 0.76288 0.56181 0.32864 0.0
C18 C 0.79134 0.53309 0.21334 0.0
C19 C 0.84799 0.66467 0.95397 0.0
C20 C 0.83206 0.67012 0.87891 0.0
C21 C 0.80129 0.68086 0.88346 0.0
C22 C 0.78441 0.67707 0.95697 0.0
C23 C 0.79874 0.66232 1.02418 0.0
C24 C 0.83058 0.66034 0.02662 0.0
C25 C 0.84159 0.6474 0.10824 0.0
C26 C 0.81083 0.63473 0.1428 0.0
C27 C 0.78618 0.64252 0.09076 0.0
C28 C 0.85496 0.67474 0.15998 0.0
C29 C 0.86577 0.62158 0.09343 0.0
C30 C 0.68361 0.59272 1.01732 0.0
C31 C 0.66794 0.56514 0.03648 0.0
C32 C 0.68176 0.54595 0.09807 0.0
C33 C 0.71021 0.55445 0.13847 0.0
C34 C 0.72563 0.58218 0.11644 0.0
C35 C 0.71194 0.60032 0.05575 0.0
C36 C 0.73163 0.62723 0.03111 0.0
C37 C 0.75899 0.62376 0.08951 0.0
C38 C 0.7561 0.59736 0.14125 0.0
C39 C 0.71361 0.65728 0.0505 0.0
C40 C 0.7405 0.62318 0.93767 0.0
H41 H 0.85672 0.64177 0.28935 0.0
H42 H 0.83135 0.53597 0.3851 0.0
H43 H 0.81033 0.53489 0.16689 0.0
H44 H 0.76985 0.52663 0.1798 0.0
H45 H 0.79708 0.51412 0.25711 0.0
H46 H 0.76181 0.5839 0.3641 0.0
H47 H 0.76842 0.54289 0.37275 0.0
H48 H 0.73956 0.55731 0.30242 0.0
H49 H 0.87229 0.65856 0.95332 0.0
H50 H 0.78898 0.68728 0.8275 0.0
H51 H 0.76027 0.68289 0.95638 0.0
H52 H 0.83836 0.68244 0.20853 0.0
H53 H 0.86005 0.69538 0.12129 0.0
H54 H 0.8774 0.66872 0.18957 0.0
H55 H 0.85624 0.60344 0.05126 0.0
H56 H 0.87286 0.61029 0.1518 0.0
H57 H 0.88732 0.63116 0.06568 0.0
H58 H 0.89069 0.61759 0.38668 0.0
C59 C 0.85236 0.61811 0.30422 0.0
C60 C 0.90898 0.81218 0.92775 0.0
C61 C 0.90403 0.84438 0.927 0.0
C62 C 0.89056 0.85785 0.99836 0.0
C63 C 0.90479 0.81285 0.07705 0.0
C64 C 0.90968 0.79684 1.00422 0.0
C65 C 0.92113 0.76462 1.02001 0.0
H66 H 0.02748 0.68238 0.14478 0.0
C67 C 0.9196 0.79572 0.14523 0.0
C68 C 0.92674 0.76632 0.11426 0.0
H69 H 0.94161 0.65015 0.03171 0.0
H70 H 0.91499 0.69511 0.08946 0.0
H71 H 0.02368 0.76262 0.134 0.0
H72 H 0.01724 0.70619 0.31355 0.0
H73 H 0.97603 0.71055 0.32732 0.0
H74 H 1.0019 0.74072 0.35977 0.0
H75 H 0.04534 0.73666 0.19925 0.0
H76 H 0.03162 0.77288 0.24013 0.0
C77 C 0.95147 0.75886 0.97079 0.0
C78 C 0.8952 0.74175 0.99367 0.0
C79 C 0.96471 0.86336 0.37423 0.0
C80 C 0.98923 0.86123 0.43168 0.0
C81 C 1.00735 0.83373 0.42845 0.0
C82 C 1.00055 0.80922 0.37113 0.0
C83 C 0.97543 0.81192 0.3154 0.0
C84 C 0.95844 0.83913 0.31767 0.0
C85 C 0.93363 0.83997 0.25252 0.0
C86 C 0.93664 0.80788 0.21406 0.0
C87 C 0.96141 0.79088 0.2498 0.0
C88 C 0.94143 0.86668 0.19089 0.0
C89 C 0.90182 0.84373 0.29574 0.0
C90 C 1.00317 0.6854 0.13024 0.0
C91 C 0.98713 0.66335 0.07828 0.0
C92 C 0.9549 0.667 0.06706 0.0
C93 C 0.9397 0.69318 0.09682 0.0
C94 C 0.95681 0.71642 0.13591 0.0
C95 C 0.9866 0.71159 0.16197 0.0
C96 C 0.99542 0.73749 0.22443 0.0
C97 C 0.96743 0.7599 0.21839 0.0
C98 C 0.94678 0.74717 0.15988 0.0
C99 C 0.02582 0.75335 0.19804 0.0
C100 C 0.99785 0.72304 0.31133 0.0
H101 H 0.88286 0.85379 0.12881 0.0
H102 H 0.91687 0.80022 0.87282 0.0
H103 H 0.88273 0.75008 0.93761 0.0
H104 H 0.87779 0.73886 0.04387 0.0
H105 H 0.90458 0.71894 0.97522 0.0
H106 H 0.96949 0.77629 0.98775 0.0
H107 H 0.9474 0.75994 0.90286 0.0
H108 H 0.96097 0.73554 0.98245 0.0
H109 H 0.95082 0.88413 0.37115 0.0
H110 H 0.02661 0.83094 0.47086 0.0
H111 H 1.01511 0.78908 0.371 0.0
H112 H 0.96038 0.88212 0.21354 0.0
H113 H 0.92138 0.88223 0.18092 0.0
H114 H 0.94953 0.85769 0.13002 0.0
H115 H 0.90012 0.82841 0.35095 0.0
H116 H 0.88229 0.8371 0.25471 0.0
H117 H 0.89841 0.868 0.31681 0.0
H118 H 0.88377 0.88188 0.99806 0.0
C119 C 0.89105 0.8421 0.07426 0.0
C120 C 0.86037 1.00002 0.10991 0.0
C121 C 0.88347 0.98199 0.06714 0.0
C122 C 0.87972 0.94945 0.06786 0.0
C123 C 0.82867 0.95405 0.12664 0.0
C124 C 0.83329 0.98488 0.14269 0.0
C125 C 0.80665 0.99625 0.1991 0.0
H126 H 0.65589 0.95877 0.33311 0.0
C127 C 0.79699 0.94514 0.14818 0.0
C128 C 0.78355 0.96854 0.19728 0.0
H129 H 0.71112 0.03258 0.43832 0.0
H130 H 0.75376 0.01991 0.34138 0.0
H131 H 0.6696 0.97498 0.15999 0.0
H132 H 0.70579 0.90622 0.32053 0.0
H133 H 0.69919 0.88853 0.22299 0.0
H134 H 0.66755 0.90706 0.27598 0.0
H135 H 0.65517 0.9363 0.15476 0.0
H136 H 0.68648 0.94938 0.0887 0.0
C137 C 0.79196 0.02574 0.16393 0.0
C138 C 0.82001 1.00154 0.28665 0.0
C139 C 0.74428 0.88295 0.92563 0.0
C140 C 0.71271 0.88457 0.90437 0.0
C141 C 0.69091 0.88547 0.96981 0.0
C142 C 0.70054 0.89252 0.05075 0.0
C143 C 0.73185 0.90003 0.065 0.0
C144 C 0.75351 0.89324 1.00461 0.0
C145 C 0.78531 0.90516 0.02677 0.0
C146 C 0.77827 0.92271 0.10751 0.0
C147 C 0.74689 0.92008 0.12819 0.0
C148 C 0.79667 0.92712 0.9567 0.0
C149 C 0.80696 0.87704 0.0391 0.0
C150 C 0.67729 0.97192 0.33791 0.0
C151 C 0.68 0.99602 0.39613 0.0
C152 C 0.70815 1.01348 0.39533 0.0
C153 C 0.73306 1.00591 0.34009 0.0
C154 C 0.73 0.98068 0.28459 0.0
C155 C 0.70195 0.96471 0.28436 0.0
C156 C 0.70063 0.94003 0.21936 0.0
C157 C 0.73371 0.94051 0.18767 0.0
C158 C 0.75142 0.96497 0.22307 0.0
C159 C 0.67677 0.95042 0.15232 0.0
C160 C 0.69269 0.90873 0.2614 0.0
H161 H 0.85136 0.91076 0.10108 0.0
H162 H 0.8633 0.02477 0.11713 0.0
H163 H 0.83776 0.02032 0.28577 0.0
H164 H 0.83126 0.98013 0.3099 0.0
H165 H 0.80191 1.00804 0.33163 0.0
H166 H 0.78333 0.02153 0.09982 0.0
H167 H 0.80922 0.04494 0.1621 0.0
H168 H 0.77211 0.03319 0.20284 0.0
H169 H 0.76145 0.87973 0.87746 0.0
H170 H 0.66622 0.8852 0.95753 0.0
H171 H 0.68286 0.89483 0.09702 0.0
H172 H 0.77969 0.94603 0.9464 0.0
H173 H 0.79985 0.91439 0.89743 0.0
H174 H 0.81935 0.9379 0.96985 0.0
H175 H 0.79709 0.85529 1.01269 0.0
H176 H 0.81155 0.87266 0.10592 0.0
H177 H 0.82927 0.8805 1.0064 0.0
H178 H 0.89685 0.93443 0.0403 0.0
C179 C 0.85297 0.93553 0.09947 0.0
C180 C 0.54687 0.7011 0.36304 0.0
C181 C 0.5636 0.67395 0.38912 0.0
C182 C 0.59199 0.66762 0.34859 0.0
C183 C 0.5843 0.70936 0.25303 0.0
C184 C 0.55846 0.71921 0.29486 0.0
C185 C 0.54815 0.75056 0.25746 0.0
H186 H 0.58502 0.85942 0.94837 0.0
C187 C 0.591 0.72963 0.18377 0.0
C188 C 0.57207 0.7559 0.18671 0.0
H189 H 0.50589 0.86649 0.1107 0.0
H190 H 0.5223 0.81852 0.18247 0.0
H191 H 0.63727 0.83068 0.06818 0.0
H192 H 0.57348 0.80668 0.88789 0.0
H193 H 0.58448 0.76834 0.90844 0.0
H194 H 0.61208 0.79627 0.86762 0.0
H195 H 0.63787 0.83451 0.95702 0.0
H196 H 0.65406 0.80103 1.00713 0.0
C197 C 0.55039 0.77604 0.32396 0.0
C198 C 0.51505 0.74725 0.2229 0.0
C199 C 0.62085 0.68282 0.91305 0.0
C200 C 0.62554 0.69779 0.83643 0.0
C201 C 0.63975 0.72728 0.83658 0.0
C202 C 0.64235 0.74403 0.91099 0.0
C203 C 0.62915 0.73148 0.98302 0.0
C204 C 0.62209 0.7004 0.98593 0.0
C205 C 0.61034 0.69089 0.06988 0.0
C206 C 0.60885 0.72258 0.11324 0.0
C207 C 0.61629 0.74625 0.05788 0.0
C208 C 0.63372 0.66794 0.10728 0.0
C209 C 0.57773 0.67596 0.0624 0.0
C210 C 0.57085 0.85113 0.9993 0.0
C211 C 0.54382 0.86693 1.02186 0.0
C212 C 0.52685 0.85497 0.09068 0.0
C213 C 0.53618 0.8271 0.13189 0.0
C214 C 0.56242 0.81066 0.10337 0.0
C215 C 0.5787 0.82304 0.03691 0.0
C216 C 0.60265 0.80167 1.00302 0.0
C217 C 0.6003 0.77494 0.06357 0.0
C218 C 0.57687 0.77976 0.12447 0.0
C219 C 0.63475 0.81779 1.00862 0.0
C220 C 0.59293 0.79263 0.91253 0.0
H221 H 0.62609 0.68258 0.26184 0.0
H222 H 0.52595 0.70803 0.395 0.0
H223 H 0.51384 0.72798 0.17704 0.0
H224 H 0.50759 0.76865 0.19126 0.0
H225 H 0.49835 0.74221 0.27371 0.0
H226 H 0.57429 0.77723 0.34989 0.0
H227 H 0.53402 0.77124 0.37568 0.0
H228 H 0.54483 0.799 0.29779 0.0
H229 H 0.6113 0.65962 0.91546 0.0
H230 H 0.6451 0.73878 0.77862 0.0
H231 H 0.65174 0.76708 0.90905 0.0
H232 H 0.64288 0.65198 0.05904 0.0
H233 H 0.62262 0.65249 0.1535 0.0
H234 H 0.65365 0.68049 0.13567 0.0
H235 H 0.56144 0.69177 0.03012 0.0
H236 H 0.56802 0.67064 0.12454 0.0
H237 H 0.57861 0.65375 0.02755 0.0
H238 H 0.60618 0.64807 0.36571 0.0
C239 C 0.60287 0.68601 0.28427 0.0
C240 C 0.3559 0.49741 0.29974 0.0
C241 C 0.3758 0.48024 0.35468 0.0
C242 C 0.36725 0.44939 0.37295 0.0
C243 C 0.31775 0.45636 0.30701 0.0
C244 C 0.327 0.48391 0.27329 0.0
C245 C 0.30224 0.49386 0.20917 0.0
H246 H 0.14714 0.46755 0.08934 0.0
C247 C 0.28514 0.4507 0.28913 0.0
C248 C 0.27527 0.47062 0.2255 0.0
H249 H 0.21225 0.52185 0.94705 0.0
H250 H 0.25287 0.51154 0.05164 0.0
H251 H 0.18903 0.4105 0.13918 0.0
H252 H 0.16182 0.4958 0.24487 0.0
H253 H 0.17724 0.47757 0.33275 0.0
H254 H 0.14408 0.46095 0.27955 0.0
H255 H 0.15138 0.42091 0.17799 0.0
H256 H 0.17993 0.40356 0.24455 0.0
C257 C 0.31607 0.48953 0.1219 0.0
C258 C 0.29214 0.52741 0.22453 0.0
C259 C 0.22385 0.42631 0.54335 0.0
C260 C 0.19277 0.43453 0.55669 0.0
C261 C 0.17157 0.42978 0.49098 0.0
C262 C 0.18241 0.42496 0.41013 0.0
C263 C 0.21441 0.42638 0.39524 0.0
C264 C 0.2347 0.42454 0.46141 0.0
C265 C 0.26791 0.42859 0.43495 0.0
C266 C 0.26349 0.43636 0.34263 0.0
C267 C 0.23208 0.43607 0.32105 0.0
C268 C 0.28509 0.39771 0.45039 0.0
C269 C 0.28251 0.45595 0.48453 0.0
C270 C 0.17023 0.47658 0.07791 0.0
C271 C 0.17614 0.49468 1.00727 0.0
C272 C 0.20662 0.50739 0.99976 0.0
C273 C 0.23037 0.50113 0.05967 0.0
C274 C 0.22384 0.48202 0.12853 0.0
C275 C 0.19379 0.47064 0.13619 0.0
C276 C 0.18899 0.45308 0.21495 0.0
C277 C 0.22189 0.45173 0.24843 0.0
C278 C 0.24291 0.46945 0.19995 0.0
C279 C 0.17649 0.42028 0.19354 0.0
C280 C 0.16692 0.47256 0.27107 0.0
H281 H 0.33293 0.41372 0.36146 0.0
H282 H 0.36257 0.52028 0.27893 0.0
H283 H 0.28308 0.53011 0.28873 0.0
H284 H 0.27356 0.53407 0.18045 0.0
H285 H 0.31204 0.54359 0.21637 0.0
H286 H 0.32371 0.46521 0.11268 0.0
H287 H 0.33656 0.50494 0.11338 0.0
H288 H 0.29914 0.49485 0.07275 0.0
H289 H 0.24015 0.42723 0.5944 0.0
H290 H 0.14707 0.43409 0.49911 0.0
H291 H 0.16559 0.42348 0.36142 0.0
H292 H 0.2733 0.38329 0.49814 0.0
H293 H 0.30881 0.40167 0.47518 0.0
H294 H 0.28644 0.38357 0.39275 0.0
H295 H 0.26879 0.47742 0.47567 0.0
H296 H 0.30666 0.46099 0.46653 0.0
H297 H 0.28359 0.45077 0.55186 0.0
H298 H 0.38199 0.43486 0.41065 0.0
C299 C 0.33867 0.43734 0.34786 0.0
C300 C 0.15461 0.23362 0.48451 0.0
C301 C 0.15807 0.2013 0.48004 0.0
C302 C 0.16989 0.18868 0.40559 0.0
C303 C 0.15521 0.23537 0.33491 0.0
C304 C 0.15241 0.25027 0.41024 0.0
C305 C 0.14051 0.28266 0.40026 0.0
H306 H 0.03249 0.36973 0.2971 0.0
C307 C 0.1382 0.25338 0.27217 0.0
C308 C 0.13189 0.28221 0.30754 0.0
H309 H 0.12104 0.39477 0.40957 0.0
H310 H 0.14493 0.35193 0.3386 0.0
H311 H 0.03791 0.346 0.12861 0.0
H312 H 0.03432 0.28777 0.30488 0.0
H313 H 0.02378 0.27887 0.1994 0.0
H314 H 1.01175 0.31488 0.24544 0.0
H315 H 0.05078 0.31121 0.07825 0.0
H316 H 0.07849 0.34038 0.10694 0.0
C317 C 0.16724 0.30523 0.42278 0.0
C318 C 0.1118 0.2877 0.45662 0.0
C319 C 0.08764 0.18841 0.04714 0.0
C320 C 0.06185 0.19077 0.99421 0.0
C321 C 0.0436 0.2181 1.00239 0.0
C322 C 0.05166 0.24226 0.06004 0.0
C323 C 0.07812 0.23926 0.11118 0.0
C324 C 0.09511 0.21216 0.10391 0.0
C325 C 0.12133 0.21059 0.16445 0.0
C326 C 0.11929 0.24218 0.20581 0.0
C327 C 0.09368 0.25964 0.17617 0.0
C328 C 0.15205 0.20731 0.11549 0.0
C329 C 0.11477 0.18322 0.22514 0.0
C330 C 0.0567 0.36534 0.31011 0.0
C331 C 0.07426 0.38613 0.36307 0.0
C332 C 0.10634 0.38019 0.37178 0.0
C333 C 0.12013 0.35446 0.33573 0.0
C334 C 0.10166 0.33248 0.29648 0.0
C335 C 0.07164 0.3386 0.27485 0.0
C336 C 0.06094 0.31338 0.21192 0.0
C337 C 0.08855 0.29025 0.21176 0.0
C338 C 0.11057 0.30192 0.26819 0.0
C339 C 0.05673 0.32851 0.12642 0.0
C340 C 0.0309 0.2978 0.24208 0.0
H341 H 0.17478 0.19472 0.27491 0.0
H342 H 0.14804 0.24459 0.54219 0.0
H343 H 0.09349 0.27017 0.44293 0.0
H344 H 0.10166 0.31095 0.44847 0.0
H345 H 0.11808 0.28619 0.52328 0.0
H346 H 0.18248 0.29551 0.47189 0.0
H347 H 0.15846 0.32715 0.44962 0.0
H348 H 0.18202 0.31026 0.36788 0.0
H349 H 0.10171 0.16772 0.04669 0.0
H350 H 0.02331 0.221 0.96363 0.0
H351 H 0.03708 0.26236 0.06405 0.0
H352 H 0.15214 0.22266 0.06015 0.0
H353 H 0.1553 0.18311 0.09366 0.0
H354 H 0.1725 0.21431 0.15268 0.0
H355 H 0.09461 0.16868 0.20598 0.0
H356 H 0.109 0.19154 0.28855 0.0
H357 H 0.13456 0.16697 0.2286 0.0
H358 H 0.17479 0.16421 0.40142 0.0
C359 C 0.16838 0.20581 0.33201 0.0
C360 C 0.33046 0.03818 0.99278 0.0
C361 C 0.34691 0.05639 0.93226 0.0
C362 C 0.33618 0.08686 0.91766 0.0
C363 C 0.30269 0.08363 0.03671 0.0
C364 C 0.30664 0.05235 0.04161 0.0
C365 C 0.28477 0.0398 0.10949 0.0
H366 H 0.19348 0.08344 0.4476 0.0
C367 C 0.28698 0.09464 0.11112 0.0
C368 C 0.27004 0.0698 0.14515 0.0
H369 H 0.15955 0.01804 0.26551 0.0
H370 H 0.20548 0.02892 0.17718 0.0
H371 H 0.26131 0.06324 0.44705 0.0
H372 H 0.21407 0.13616 0.32387 0.0
H373 H 0.2488 0.15094 0.3679 0.0
H374 H 0.22081 0.13248 0.43387 0.0
H375 H 0.26286 0.10167 0.48765 0.0
H376 H 0.29199 0.08769 0.41635 0.0
C377 C 0.30364 0.02284 0.17637 0.0
C378 C 0.2604 0.01814 0.07052 0.0
C379 C 0.36261 0.1567 0.27854 0.0
C380 C 0.36805 0.15093 0.36311 0.0
C381 C 0.3419 0.14974 0.41561 0.0
C382 C 0.31238 0.14427 0.38169 0.0
C383 C 0.30964 0.13947 0.29556 0.0
C384 C 0.33418 0.1473 0.24458 0.0
C385 C 0.33013 0.13523 0.15739 0.0
C386 C 0.29915 0.11774 0.16549 0.0
C387 C 0.28798 0.11987 0.24721 0.0
C388 C 0.35776 0.11343 0.13673 0.0
C389 C 0.32859 0.16307 0.09792 0.0
C390 C 0.19578 0.07094 0.38955 0.0
C391 C 0.17258 0.04987 0.3645 0.0
C392 C 0.17713 0.03404 0.28778 0.0
C393 C 0.20379 0.03978 0.23733 0.0
C394 C 0.22684 0.06061 0.26507 0.0
C395 C 0.22205 0.07614 0.33947 0.0
C396 C 0.24708 0.09961 0.35663 0.0
C397 C 0.26476 0.099 0.27516 0.0
C398 C 0.25498 0.07438 0.22404 0.0
C399 C 0.26682 0.08768 0.43071 0.0
C400 C 0.23202 0.13157 0.37186 0.0
H401 H 0.30665 0.12398 0.95903 0.0
H402 H 0.33646 1.01418 1.00273 0.0
H403 H 0.24435 0.03128 0.02984 0.0
H404 H 0.24677 1.00619 0.11925 0.0
H405 H 0.27185 0.99998 0.03249 0.0
H406 H 0.32171 0.03844 0.20305 0.0
H407 H 0.31526 1.00219 0.14964 0.0
H408 H 0.28823 1.01504 0.22759 0.0
H409 H 0.38168 0.16134 0.23699 0.0
H410 H 0.34476 0.14843 0.48229 0.0
H411 H 0.29353 0.14097 0.4241 0.0
H412 H 0.35762 0.0929 0.17824 0.0
H413 H 0.38051 0.12525 0.14297 0.0
H414 H 0.35782 0.10533 0.07215 0.0
H415 H 0.34671 0.18054 0.11374 0.0
H416 H 0.3056 0.17454 0.10152 0.0
H417 H 0.33321 0.15629 0.03306 0.0
H418 H 0.34676 0.10124 0.87045 0.0
C419 C 0.31385 0.10042 0.96925 0.0
C420 C 0.48962 0.34373 0.04173 0.0
C421 C 0.47266 0.36974 1.00943 0.0
C422 C 0.44241 0.37461 0.04049 0.0
C423 C 0.44809 0.33352 0.13963 0.0
C424 C 0.47617 0.3252 0.10655 0.0
C425 C 0.48658 0.29452 0.14729 0.0
H426 H 0.45057 0.18897 0.4645 0.0
C427 C 0.43978 0.3131 0.2078 0.0
C428 C 0.46056 0.2882 0.21181 0.0
H429 H 0.52871 0.17993 0.29979 0.0
H430 H 0.51214 0.22708 0.2248 0.0
H431 H 0.4547 0.24359 0.5171 0.0
H432 H 0.39989 0.20984 0.32749 0.0
H433 H 0.37799 0.23825 0.37927 0.0
H434 H 0.39578 0.20774 0.43862 0.0
H435 H 0.41468 0.25035 0.52732 0.0
H436 H 0.44055 0.28013 0.48797 0.0
C437 C 0.5182 0.29926 0.1897 0.0
C438 C 0.48767 0.26895 0.08078 0.0
C439 C 0.39631 0.35984 0.46417 0.0
C440 C 0.39132 0.3452 0.54126 0.0
C441 C 0.37876 0.31497 0.54077 0.0
C442 C 0.38011 0.29711 0.46815 0.0
C443 C 0.3944 0.30989 0.39794 0.0
C444 C 0.39822 0.34143 0.39265 0.0
C445 C 0.41014 0.3509 0.30862 0.0
C446 C 0.41855 0.31907 0.27241 0.0
C447 C 0.4116 0.29562 0.32889 0.0
C448 C 0.43892 0.37227 0.31762 0.0
C449 C 0.38335 0.36724 0.26265 0.0
C450 C 0.4646 0.1969 0.41288 0.0
C451 C 0.49135 0.18075 0.39025 0.0
C452 C 0.50801 0.19187 0.31995 0.0
C453 C 0.49849 0.21919 0.27658 0.0
C454 C 0.4719 0.23553 0.30311 0.0
C455 C 0.45576 0.22377 0.37064 0.0
C456 C 0.42894 0.24327 0.3957 0.0
C457 C 0.43044 0.2687 0.33113 0.0
C458 C 0.45568 0.2648 0.2753 0.0
C459 C 0.43477 0.25505 0.48621 0.0
C460 C 0.39894 0.2238 0.38551 0.0
H461 H 0.40578 0.35832 0.11718 0.0
H462 H 0.51214 0.3379 1.01668 0.0
H463 H 0.46492 0.267 0.04849 0.0
H464 H 0.49286 0.24615 0.10831 0.0
H465 H 0.50576 0.27425 0.0337 0.0
H466 H 0.51699 0.31853 0.23552 0.0
H467 H 0.53632 0.30507 0.14312 0.0
H468 H 0.52548 0.27816 0.22307 0.0
H469 H 0.40387 0.3837 0.46144 0.0
H470 H 0.37253 0.30373 0.59846 0.0
H471 H 0.37288 0.27334 0.4711 0.0
H472 H 0.45715 0.36095 0.35561 0.0
H473 H 0.43268 0.39461 0.34728 0.0
H474 H 0.44903 0.37809 0.25644 0.0
H475 H 0.36732 0.37867 0.30675 0.0
H476 H 0.36931 0.3505 0.22569 0.0
H477 H 0.39194 0.38618 0.22221 0.0
H478 H 0.42805 0.39322 1.0176 0.0
C479 C 0.42985 0.35591 0.10212 0.0
C480 C 0.11747 0.03946 0.85448 0.0
C481 C 0.10293 0.06266 0.98619 0.0
C482 C 0.09526 0.04513 0.91495 0.0
C483 C 0.13325 0.07423 0.9959 0.0
C484 C 0.14796 0.05101 0.8641 0.0
C485 C 0.15571 0.06839 0.93508 0.0
N486 N 0.10917 0.02295 0.78589 0.0
C487 C 0.13055 1.01623 0.72603 0.0
C488 C 0.16976 0.0448 0.80196 0.0
C489 C 0.16103 0.02722 0.73282 0.0
Gd490 Gd 0.99442 0.04646 0.64675 0.0
Gd491 Gd 0.05736 1.00574 0.78004 0.0
N492 N 0.06588 0.03432 0.90274 0.0
C493 C 0.07983 0.06825 0.04526 0.0
C494 C 0.04354 0.0389 0.96142 0.0
C495 C 0.05006 0.05615 0.033 0.0
H496 H 0.02068 0.02929 0.95372 0.0
H497 H 0.03213 0.06002 0.07883 0.0
H498 H 0.03352 0.02337 0.47508 0.0
H499 H 0.12439 1.00186 0.6736 0.0
H500 H 0.02432 0.99192 0.35053 0.0
H501 H 0.08476 0.0817 0.10066 0.0
H502 H 0.13955 0.08777 0.05016 0.0
H503 H 0.92465 0.05657 0.73364 0.0
H504 H 0.19341 0.05325 0.80707 0.0
H505 H 0.17783 0.02194 0.68498 0.0
H506 H 0.91606 0.96613 0.36403 0.0
H507 H 0.179 0.07745 0.94348 0.0
H508 H 0.85724 1.00574 0.59286 0.0
H509 H 0.87067 0.03869 0.7137 0.0
N510 N 0.94203 0.03234 0.62901 0.0
C511 C 0.93494 1.01521 0.56067 0.0
C512 C 0.91927 0.0413 0.68263 0.0
C513 C 0.88106 1.01314 0.60219 0.0
C514 C 0.88857 0.03163 0.6706 0.0
C515 C 0.90429 1.00493 0.54569 0.0
H516 H 0.87436 0.97889 0.46235 0.0
N517 N 0.98768 0.01839 0.52173 0.0
C518 C 0.95839 1.00819 0.50505 0.0
C519 C 0.97602 0.98417 0.37796 0.0
C520 C 0.95185 0.99052 0.43319 0.0
C521 C 1.01093 1.01354 0.46574 0.0
C522 C 1.00561 0.99603 0.39391 0.0
O523 O 0.05956 0.05912 0.77632 0.0
O524 O 1.00848 0.07151 0.76564 0.0
O525 O 1.00003 0.08067 0.55001 0.0
O526 O 0.96543 0.08771 0.64485 0.0
O527 O 1.00681 0.99919 0.82432 0.0
O528 O 0.97784 0.04073 0.77979 0.0
O529 O 0.9908 0.99319 0.64975 0.0
O530 O 0.04142 0.97891 0.66543 0.0
O531 O 0.05311 0.97127 0.87657 0.0
O532 O 0.08965 0.96707 0.78553 0.0
O533 O 0.04607 0.05325 0.60962 0.0
O534 O 0.06887 1.00748 0.64366 0.0
C535 C 0.03681 0.07898 0.78826 0.0
C536 C 0.98215 1.0173 0.83067 0.0
C537 C 0.99846 0.12977 0.61426 0.0
C538 C 0.04662 0.15963 0.62914 0.0
C539 C 0.99788 0.18015 0.68141 0.0
C540 C 0.98209 0.15371 0.65326 0.0
C541 C 0.0299 0.1833 0.66886 0.0
C542 C 0.03076 0.1326 0.60535 0.0
C543 C 0.98277 0.10072 0.58885 0.0
C544 C 0.92148 0.97983 0.41869 0.0
C545 C 0.89774 0.98706 0.47473 0.0
H546 H 0.97198 0.9706 0.32225 0.0
C547 C 1.01301 0.97251 0.64066 0.0
C548 C 0.06852 0.03279 0.59924 0.0
C549 C 0.05982 0.92257 0.81372 0.0
C550 C 1.01413 0.89016 0.78715 0.0
C551 C 0.06612 0.86953 0.76745 0.0
C552 C 0.07914 0.89777 0.79291 0.0
C553 C 0.03384 0.86551 0.76579 0.0
C554 C 0.02755 0.91896 0.80606 0.0
C555 C 0.07268 0.95277 0.84009 0.0
H556 H 0.98515 0.19855 0.71159 0.0
H557 H 0.95728 0.1518 0.6628 0.0
H558 H 0.04121 0.20466 0.68744 0.0
H559 H 0.04378 0.11375 0.57848 0.0
H560 H 0.0811 0.85036 0.75167 0.0
H561 H 0.10414 0.90027 0.79617 0.0
H562 H 0.02451 0.84278 0.75158 0.0
H563 H 1.01255 0.93847 0.81799 0.0
C564 C 0.47168 0.9268 0.66529 0.0
C565 C 0.41803 0.93254 0.70666 0.0
C566 C 0.44616 0.94551 0.67808 0.0
C567 C 0.41694 0.90115 0.72929 0.0
C568 C 0.46993 0.89475 0.68091 0.0
C569 C 0.44286 0.88226 0.71628 0.0
N570 N 0.49723 0.93949 0.62983 0.0
C571 C 0.52063 0.92128 0.60062 0.0
C572 C 0.49479 0.87606 0.65633 0.0
C573 C 0.51991 0.88929 0.61412 0.0
Gd574 Gd 0.54251 0.04358 0.77606 0.0
Gd575 Gd 0.49749 0.99326 0.61318 0.0
N576 N 0.44776 0.97541 0.65255 0.0
C577 C 0.39139 0.95093 0.70611 0.0
C578 C 0.42113 0.99194 0.64183 0.0
C579 C 0.39277 0.98046 0.67115 0.0
H580 H 0.4218 1.01419 0.6113 0.0
H581 H 0.37194 0.9942 0.66567 0.0
H582 H 0.58292 0.09444 0.66332 0.0
H583 H 0.54014 0.93165 0.56876 0.0
H584 H 0.5959 0.15023 0.66482 0.0
H585 H 0.36932 0.94188 0.72755 0.0
H586 H 0.39568 0.8909 0.75268 0.0
H587 H 0.51718 0.02687 0.96713 0.0
H588 H 0.49429 0.8513 0.66686 0.0
H589 H 0.53881 0.87493 0.59275 0.0
H590 H 0.55292 0.18699 0.92196 0.0
H591 H 0.44122 0.85777 0.73012 0.0
H592 H 0.50894 0.11119 0.10539 0.0
H593 H 0.50253 0.05443 0.09541 0.0
N594 N 0.53093 0.06777 0.90357 0.0
C595 C 0.53547 0.09877 0.90886 0.0
C596 C 0.51988 0.05168 0.9702 0.0
C597 C 0.51522 0.09928 0.04857 0.0
C598 C 0.5116 0.0672 0.04321 0.0
C599 C 0.52773 0.11546 0.98126 0.0
H600 H 0.5275 0.16079 0.03957 0.0
N601 N 0.5579 0.09603 0.777 0.0
C602 C 0.54953 0.11343 0.84316 0.0
C603 C 0.57297 0.15875 0.78145 0.0
C604 C 0.55661 0.14531 0.84728 0.0
C605 C 0.5753 0.10864 0.71465 0.0
C606 C 0.58269 0.14022 0.71527 0.0
O607 O 0.52257 0.96854 0.71916 0.0
O608 O 0.51707 1.00122 0.82933 0.0
O609 O 0.57275 1.00404 0.77883 0.0
O610 O 0.58752 0.04677 0.838 0.0
O611 O 0.46921 0.02959 0.68558 0.0
O612 O 0.49229 0.03375 0.81365 0.0
O613 O 0.52315 0.07463 0.67441 0.0
O614 O 0.50068 0.04386 0.57191 0.0
O615 O 0.51673 0.99415 0.48866 0.0
O616 O 0.47027 0.97691 0.50811 0.0
O617 O 0.56212 0.03986 0.64385 0.0
O618 O 0.55003 0.9898 0.6162 0.0
C619 C 0.51865 0.97277 0.79969 0.0
C620 C 0.46711 0.03328 0.76698 0.0
C621 C 0.62523 1.01486 0.77081 0.0
C622 C 0.66387 0.97806 0.72104 0.0
C623 C 0.66569 0.03188 0.67669 0.0
C624 C 0.6394 0.03843 0.72444 0.0
C625 C 0.67773 1.00185 0.67422 0.0
C626 C 0.63766 0.98504 0.76927 0.0
C627 C 0.59547 0.01906 0.81353 0.0
C628 C 0.54793 0.16242 0.9178 0.0
C629 C 0.53348 0.14751 0.98475 0.0
H630 H 0.57886 0.18318 0.7821 0.0
C631 C 0.51008 0.07103 0.6008 0.0
C632 C 0.56868 1.01365 0.60598 0.0
C633 C 0.47982 1.00568 0.38735 0.0
C634 C 0.45487 0.05365 0.34428 0.0
C635 C 0.47797 0.01917 0.24179 0.0
C636 C 0.48701 0.99895 0.30462 0.0
C637 C 0.4623 0.04652 0.26128 0.0
C638 C 0.46332 0.03268 0.40672 0.0
C639 C 0.49089 0.98544 0.45383 0.0
H640 H 0.67651 0.05004 0.64049 0.0
H641 H 0.62981 0.06154 0.72347 0.0
H642 H 0.698 0.99737 0.63646 0.0
H643 H 0.62687 0.96732 0.80726 0.0
H644 H 0.48314 1.01356 0.17782 0.0
H645 H 0.49968 0.97816 0.28872 0.0
H646 H 0.4554 0.06169 0.21124 0.0
H647 H 0.45751 0.03759 0.47071 0.0
C648 C 0.44164 0.50307 0.87615 0.0
C649 C 0.46557 0.49463 1.01043 0.0
C650 C 0.46636 0.50772 0.93026 0.0
C651 C 0.44025 0.47603 0.03408 0.0
C652 C 0.41595 0.48479 0.90012 0.0
C653 C 0.41549 0.47115 0.97912 0.0
N654 N 0.44322 0.51563 0.79893 0.0
C655 C 0.41929 0.51204 0.74417 0.0
C656 C 0.39165 0.48044 0.8435 0.0
C657 C 0.39326 0.49429 0.76539 0.0
Gd658 Gd 0.55091 0.49824 0.64218 0.0
Gd659 Gd 0.48847 0.54373 0.76704 0.0
N660 N 0.4909 0.52533 0.90498 0.0
C661 C 0.49001 0.50107 0.06506 0.0
C662 C 0.51333 0.53376 0.96068 0.0
C663 C 0.51367 0.52123 0.04059 0.0
H664 H 0.53044 0.55101 0.94543 0.0
H665 H 0.53189 0.52759 0.08378 0.0
H666 H 0.51873 0.52024 0.46154 0.0
H667 H 0.42014 0.52293 0.68416 0.0
H668 H 0.53415 0.54732 0.33371 0.0
H669 H 0.49026 0.49151 0.12717 0.0
H670 H 0.43942 0.46557 0.09511 0.0
H671 H 0.61641 0.48662 0.74901 0.0
H672 H 0.37153 0.46654 0.85953 0.0
H673 H 0.37445 0.4913 0.72147 0.0
H674 H 0.64327 0.56638 0.36907 0.0
H675 H 0.39607 0.45684 0.99839 0.0
H676 H 0.69154 0.52948 0.618 0.0
H677 H 0.6719 0.50088 0.74025 0.0
N678 N 0.60453 0.50821 0.63521 0.0
C679 C 0.61497 0.52325 0.56675 0.0
C680 C 0.62461 0.49978 0.69654 0.0
C681 C 0.66711 0.52357 0.62203 0.0
C682 C 0.65611 0.50748 0.6912 0.0
C683 C 0.64653 0.53147 0.55836 0.0
H684 H 0.68065 0.55378 0.47939 0.0
N685 N 0.56371 0.52234 0.51561 0.0
C686 C 0.59399 0.53028 0.5046 0.0
C687 C 0.58198 0.55224 0.37072 0.0
C688 C 0.60389 0.54579 0.43235 0.0
C689 C 0.54248 0.52751 0.45433 0.0
C690 C 0.5512 0.54281 0.38149 0.0
O691 O 0.48621 0.49054 0.76073 0.0
O692 O 0.53707 0.47854 0.76755 0.0
O693 O 0.53533 0.45954 0.56755 0.0
O694 O 0.57976 0.45717 0.62952 0.0
O695 O 0.54012 0.55421 0.79717 0.0
O696 O 0.56307 0.50721 0.77698 0.0
O697 O 0.55338 0.55093 0.62654 0.0
O698 O 0.50383 0.56846 0.64909 0.0
O699 O 0.48589 0.58385 0.84805 0.0
O700 O 0.44966 0.5758 0.75843 0.0
O701 O 0.50068 0.49464 0.5925 0.0
O702 O 0.47286 0.53751 0.63383 0.0
C703 C 0.50828 0.47201 0.78689 0.0
C704 C 0.56287 0.53453 0.81301 0.0
C705 C 0.54595 0.41385 0.64152 0.0
C706 C 0.50164 0.3828 0.68882 0.0
C707 C 0.55244 0.37617 0.75191 0.0
C708 C 0.5649 0.39893 0.69989 0.0
C709 C 0.52096 0.3683 0.74709 0.0
C710 C 0.51463 0.40491 0.63509 0.0
C711 C 0.55709 0.44149 0.59574 0.0
C712 C 0.63524 0.55434 0.424 0.0
C713 C 0.65651 0.54718 0.48685 0.0
H714 H 0.58863 0.5642 0.31438 0.0
C715 C 0.5315 0.57181 0.61599 0.0
C716 C 0.47685 0.51368 0.58394 0.0
C717 C 0.47197 0.62559 0.76185 0.0
C718 C 0.5132 0.65923 0.70757 0.0
C719 C 0.46008 0.66476 0.65888 0.0
C720 C 0.45044 0.64058 0.71065 0.0
C721 C 0.49128 0.67393 0.6567 0.0
C722 C 0.50304 0.63569 0.76117 0.0
C723 C 0.46385 0.59627 0.80421 0.0
H724 H 0.56709 0.36506 0.79742 0.0
H725 H 0.58907 0.40541 0.70693 0.0
H726 H 0.51173 0.35118 0.78952 0.0
H727 H 0.5001 0.4156 0.58846 0.0
H728 H 0.44341 0.676 0.61891 0.0
H729 H 0.42647 0.63293 0.70876 0.0
H730 H 0.49827 0.69217 0.6146 0.0
H731 H 0.51965 0.62474 0.80189 0.0
C732 C 0.99072 0.42535 0.80069 0.0
C733 C 1.01571 0.41737 0.93322 0.0
C734 C 1.00553 0.4372 0.86948 0.0
C735 C 1.01174 0.3852 0.9244 0.0
C736 C 0.9855 0.39324 0.79262 0.0
C737 C 0.99664 0.37314 0.85414 0.0
N738 N 0.97993 0.44551 0.7436 0.0
C739 C 0.96245 0.43534 0.67827 0.0
C740 C 0.96862 0.38246 0.72398 0.0
C741 C 0.95676 0.40367 0.66698 0.0
Gd742 Gd 0.0379 0.56137 0.63348 0.0
Gd743 Gd 0.99264 0.49806 0.76034 0.0
N744 N 1.00848 0.46835 0.87592 0.0
C745 C 0.0288 0.43053 1.00466 0.0
C746 C 0.01976 0.48137 0.94745 0.0
C747 C 0.03048 0.46271 1.01216 0.0
H748 H 0.02135 0.50617 0.95419 0.0
H749 H 0.04004 0.47318 0.06777 0.0
H750 H 0.0575 0.52083 0.46057 0.0
H751 H 0.95323 0.45171 0.63416 0.0
H752 H 0.03878 0.51378 0.31775 0.0
H753 H 0.03697 0.41613 0.055 0.0
H754 H 0.01964 0.36954 0.97232 0.0
H755 H 1.00685 0.62801 0.70234 0.0
H756 H 0.9641 0.35796 0.71536 0.0
H757 H 0.94326 0.39566 0.61438 0.0
H758 H 0.96429 0.59465 0.28386 0.0
H759 H 0.99311 0.34835 0.84885 0.0
H760 H 0.95004 0.66534 0.50991 0.0
H761 H 0.97136 0.66829 0.65228 0.0
N762 N 1.00497 0.60161 0.59046 0.0
C763 C 0.99443 0.60019 0.51096 0.0
C764 C 0.99753 0.62611 0.6404 0.0
C765 C 0.9656 0.64747 0.53158 0.0
C766 C 0.97753 0.64918 0.61205 0.0
C767 C 0.97417 0.62293 0.47968 0.0
H768 H 0.94738 0.63762 0.37308 0.0
N769 N 0.02423 0.55483 0.49217 0.0
C770 C 1.00387 0.5758 0.46094 0.0
C771 C 1.00528 0.55041 0.32703 0.0
C772 C 0.99351 0.57386 0.37786 0.0
C773 C 0.03799 0.53404 0.44018 0.0
C774 C 0.02815 0.53083 0.35788 0.0
O775 O 0.04407 0.49676 0.79416 0.0
O776 O 0.06806 0.53967 0.73473 0.0
O777 O 0.07553 0.57569 0.55198 0.0
O778 O 0.0666 0.60141 0.6639 0.0
O779 O 1.00746 0.53997 0.84037 0.0
O780 O 0.02633 0.58048 0.75996 0.0
O781 O 0.985 0.56006 0.64382 0.0
O782 O 0.9757 0.50918 0.62984 0.0
O783 O 0.96118 0.53469 0.7937 0.0
O784 O 0.94643 0.4866 0.80574 0.0
O785 O 0.05149 0.51052 0.60606 0.0
O786 O 1.00664 0.48296 0.63018 0.0
C787 C 0.06807 0.51571 0.78577 0.0
C788 C 0.01669 0.56915 0.83116 0.0
C789 C 0.11813 0.58881 0.63714 0.0
C790 C 0.15606 0.55002 0.67971 0.0
C791 C 0.16274 0.60402 0.71997 0.0
C792 C 0.13529 0.61175 0.67868 0.0
C793 C 0.17302 0.57334 0.72108 0.0
C794 C 0.12896 0.55822 0.63689 0.0
C795 C 0.08665 0.5952 0.60622 0.0
C796 C 0.97263 0.59594 0.34727 0.0
C797 C 0.96307 0.62047 0.39797 0.0
H798 H 0.99796 0.54816 0.26291 0.0
C799 C 0.96827 0.53764 0.61085 0.0
C800 C 0.03371 0.48575 0.593 0.0
C801 C 0.90955 0.52397 0.7598 0.0
C802 C 0.87409 0.56503 0.71794 0.0
C803 C 0.86973 0.51365 0.65653 0.0
C804 C 0.89484 0.50353 0.70415 0.0
C805 C 0.85938 0.5442 0.66313 0.0
C806 C 0.89873 0.55436 0.76711 0.0
C807 C 0.93798 0.51565 0.80525 0.0
H808 H 0.17577 0.62177 0.75259 0.0
H809 H 0.127 0.63537 0.68116 0.0
H810 H 0.19396 0.56786 0.75507 0.0
H811 H 0.11585 0.54055 0.60408 0.0
H812 H 0.85859 0.4979 0.61328 0.0
H813 H 0.90303 0.48006 0.69625 0.0
H814 H 0.8403 0.55163 0.62438 0.0
H815 H 0.90987 0.5698 0.81136 0.0
C816 C 0.13275 1.01568 0.43916 0.0
C817 C 0.14402 0.04538 0.41873 0.0
H818 H 0.10081 0.98846 0.51185 0.0
C819 C 0.12899 0.07101 0.45574 0.0
H820 H 0.14365 0.99534 0.41298 0.0
C821 C 0.10407 0.06707 0.51184 0.0
C822 C 0.09355 0.03738 0.53438 0.0
H823 H 0.13674 0.09431 0.44179 0.0
H824 H 0.09372 0.08729 0.53991 0.0
C825 C 0.10821 1.01175 0.49655 0.0
C826 C 0.5086 0.12424 0.40856 0.0
C827 C 0.50064 0.15317 0.44305 0.0
H828 H 0.51668 0.07563 0.43004 0.0
C829 C 0.498 0.15484 0.5305 0.0
H830 H 0.5114 0.12189 0.34209 0.0
C831 C 0.50154 0.12852 0.58095 0.0
C832 C 0.5072 0.09921 0.54611 0.0
H833 H 0.49259 0.17666 0.5603 0.0
H834 H 0.49896 0.13103 0.64752 0.0
C835 C 0.51126 0.09757 0.45913 0.0
C836 C 0.40328 0.52006 0.44701 0.0
C837 C 0.40446 0.4929 0.39848 0.0
H838 H 0.42467 0.54799 0.54234 0.0
C839 C 0.43124 0.47431 0.40658 0.0
H840 H 0.38307 0.53479 0.44399 0.0
C841 C 0.45483 0.48141 0.46448 0.0
C842 C 0.45285 0.50757 0.51658 0.0
H843 H 0.43331 0.45324 0.37044 0.0
H844 H 0.47422 0.4657 0.47006 0.0
C845 C 0.42709 0.52732 0.50476 0.0
C846 C 0.08036 0.43962 0.43035 0.0
C847 C 0.06126 0.41356 0.41225 0.0
H848 H 0.08848 0.48037 0.50401 0.0
C849 C 0.03208 0.41261 0.45172 0.0
H850 H 0.10253 0.44253 0.39983 0.0
C851 C 0.02308 0.43603 0.50882 0.0
C852 C 0.04311 0.46099 0.5303 0.0
H853 H 1.01654 0.39323 0.44078 0.0
H854 H 1.00043 0.43419 0.53717 0.0
C855 C 0.07201 0.46206 0.48985 0.0
C856 C 0.93915 0.97868 1.01291 0.0
C857 C 0.91084 0.99515 1.0182 0.0
H858 H 0.98282 0.97213 0.9512 0.0
C859 C 0.90784 0.02119 0.96636 0.0
H860 H 0.94336 0.9591 0.05307 0.0
C861 C 0.93126 0.02912 0.90823 0.0
C862 C 0.95827 1.01092 0.89819 0.0
H863 H 0.88677 0.03473 0.96802 0.0
H864 H 0.92779 0.04933 0.87028 0.0
C865 C 0.96211 0.98618 0.95386 0.0
C866 C 0.53783 0.89167 0.8804 0.0
C867 C 0.53357 0.89375 0.96719 0.0
H868 H 0.53843 0.91433 0.76312 0.0
C869 C 0.5224 0.92216 0.99859 0.0
H870 H 0.54578 0.87032 0.85237 0.0
C871 C 0.51697 0.94773 0.94503 0.0
C872 C 0.52256 0.94566 0.85852 0.0
H873 H 0.51884 0.92499 0.06469 0.0
H874 H 0.50884 0.96923 0.97168 0.0
C875 C 0.53297 0.91705 0.82795 0.0
C876 C 0.61835 0.57977 0.9578 0.0
C877 C 0.63878 0.55661 0.98735 0.0
H878 H 0.57926 0.59145 0.88064 0.0
C879 C 0.63238 0.5259 0.96261 0.0
H880 H 0.62157 0.60368 0.97632 0.0
C881 C 0.60756 0.51887 0.90807 0.0
C882 C 0.58822 0.54224 0.87538 0.0
H883 H 0.6472 0.50726 0.98304 0.0
H884 H 0.60374 0.49491 0.89092 0.0
C885 C 0.5937 0.57276 0.9028 0.0
C886 C 0.99052 0.60681 0.03634 0.0
C887 C 1.00211 0.63739 0.02974 0.0
H888 H 0.98611 0.56153 0.98113 0.0
C889 C 0.02146 0.64405 0.96167 0.0
H890 H 0.97499 0.60087 0.08678 0.0
C891 C 0.0274 0.62155 0.8998 0.0
C892 C 1.01434 0.59145 0.90387 0.0
H893 H 0.03015 0.6674 0.95291 0.0
H894 H 0.04123 0.62828 0.84666 0.0
C895 C 0.99671 0.5842 0.97499 0.0
C896 C 0.12911 0.19109 0.61363 0.0
C897 C 0.13675 0.1822 0.53189 0.0
H898 H 0.09456 0.19068 0.70972 0.0
C899 C 0.11709 0.16108 0.49068 0.0
H900 H 0.14393 0.20695 0.64781 0.0
C901 C 0.08871 0.15278 0.52454 0.0
C902 C 0.0794 0.16422 0.60234 0.0
H903 H 0.12154 0.15372 0.42752 0.0
H904 H 0.07309 0.13936 0.48575 0.0
C905 C 0.10062 0.18217 0.64859 0.0
C906 C 0.39348 0.10628 0.43445 0.0
C907 C 0.39652 0.13281 0.38411 0.0
H908 H 0.40874 0.06038 0.45963 0.0
C909 C 0.42328 0.13538 0.33424 0.0
H910 H 0.37363 0.103 0.47461 0.0
C911 C 0.44276 0.10999 0.32276 0.0
C912 C 0.43728 0.08217 0.3653 0.0
H913 H 0.42756 0.15588 0.29745 0.0
H914 H 0.46141 0.11182 0.27803 0.0
C915 C 0.41358 0.08131 0.42505 0.0
C916 C 0.41763 0.38713 0.62332 0.0
C917 C 0.41092 0.35552 0.61229 0.0
H918 H 0.45206 0.42077 0.65564 0.0
C919 C 0.4308 0.33368 0.64929 0.0
H920 H 0.40245 0.4046 0.59776 0.0
C921 C 0.45934 0.3429 0.68226 0.0
C922 C 0.46837 0.37412 0.6796 0.0
H923 H 0.42651 0.30906 0.643 0.0
H924 H 0.47552 0.32516 0.70109 0.0
C925 C 0.44628 0.39634 0.65583 0.0
C926 C 0.15477 0.46337 0.64599 0.0
C927 C 0.18553 0.45847 0.62062 0.0
H928 H 0.12107 0.49636 0.68396 0.0
C929 C 0.20768 0.48195 0.63706 0.0
H930 H 0.13722 0.44561 0.6371 0.0
C931 C 0.19843 0.5111 0.6645 0.0
C932 C 0.16691 0.5174 0.67653 0.0
H933 H 0.23175 0.47944 0.61932 0.0
H934 H 0.21567 0.5294 0.66745 0.0
C935 C 0.1455 0.49264 0.67285 0.0
C936 C 0.93458 0.85206 0.79432 0.0
C937 C 0.92357 0.86381 0.87062 0.0
H938 H 0.97216 0.85123 0.70682 0.0
C939 C 0.93879 0.88979 0.90479 0.0
H940 H 0.92283 0.83296 0.76377 0.0
C941 C 0.96694 0.89987 0.8729 0.0
C942 C 0.98052 0.88495 0.80438 0.0
H943 H 0.9316 0.89999 0.96298 0.0
H944 H 0.97942 0.9172 0.90843 0.0
C945 C 0.963 0.86237 0.76184 0.0
C946 C 0.72341 0.92143 0.78867 0.0
C947 C 0.70394 0.89829 0.82267 0.0
H948 H 0.72574 0.96542 0.72989 0.0
C949 C 0.67316 0.89641 0.79391 0.0
H950 H 0.74752 0.92362 0.80654 0.0
C951 C 0.66063 0.92081 0.74811 0.0
C952 C 0.67873 0.94731 0.73097 0.0
H953 H 0.6578 0.87816 0.8152 0.0
H954 H 0.63598 0.92051 0.73474 0.0
C955 C 0.71084 0.94586 0.7439 0.0
C956 C 0.59903 0.65672 0.75327 0.0
C957 C 0.60505 0.68828 0.76678 0.0
H958 H 0.56475 0.62255 0.72543 0.0
C959 C 0.58362 0.71008 0.73667 0.0
H960 H 0.61532 0.63939 0.7743 0.0
C961 C 0.55445 0.70047 0.7085 0.0
C962 C 0.5464 0.66894 0.70955 0.0
H963 H 0.58748 0.73467 0.74564 0.0
H964 H 0.53724 0.71795 0.69532 0.0
C965 C 0.56978 0.64713 0.72618 0.0
C966 C 0.82064 0.63039 0.77141 0.0
C967 C 0.84191 0.65197 0.80508 0.0
H968 H 0.81421 0.58542 0.71892 0.0
C969 C 0.87357 0.64847 0.78687 0.0
H970 H 0.79599 0.63225 0.7835 0.0
C971 C 0.88403 0.62135 0.74874 0.0
C972 C 0.863 0.5973 0.72912 0.0
H973 H 0.89048 0.66497 0.81033 0.0
H974 H 0.9088 0.61807 0.7418 0.0
C975 C 0.83111 0.60317 0.73444 0.0
C976 C 0.02415 0.1543 0.91539 0.0
C977 C 0.05472 0.16412 0.93392 0.0
H978 H 0.99447 0.12037 0.85624 0.0
C979 C 0.07904 0.14651 0.8985 0.0
H980 H 1.0046 0.1668 0.94071 0.0
C981 C 0.07323 0.11964 0.85068 0.0
C982 C 0.0428 0.10904 0.83532 0.0
H983 H 0.10299 0.15331 0.90823 0.0
H984 H 0.09284 0.10697 0.82623 0.0
C985 C 0.01832 0.12732 0.86702 0.0
C986 C 0.40128 0.03264 0.93011 0.0
C987 C 0.37618 0.04607 0.88725 0.0
H988 H 0.44924 0.01855 0.92711 0.0
C989 C 0.38133 0.05431 0.8034 0.0
H990 H 0.39875 0.02651 0.99489 0.0
C991 C 0.41045 0.05025 0.76488 0.0
C992 C 0.43571 0.03745 0.80806 0.0
H993 H 0.36289 0.06475 0.76761 0.0
H994 H 0.41333 0.05787 0.70139 0.0
C995 C 0.43053 0.02855 0.89136 0.0
C996 C 0.51456 0.40504 0.94494 0.0
C997 C 0.4843 0.39237 0.94387 0.0
H998 H 0.54599 0.43974 0.89664 0.0
C999 C 0.46317 0.40508 0.88601 0.0
H1000 H 0.53158 0.39634 0.98833 0.0
C1001 C 0.47096 0.4307 0.83655 0.0
C1002 C 0.50071 0.44398 0.83921 0.0
H1003 H 0.43989 0.39576 0.88023 0.0
H1004 H 0.45342 0.44019 0.79599 0.0
C1005 C 0.52271 0.43028 0.89284 0.0
C1006 C 0.12794 0.47626 0.92794 0.0
C1007 C 0.14998 0.49992 0.94473 0.0
H1008 H 0.08573 0.46235 0.86659 0.0
C1009 C 0.14514 0.52871 0.90562 0.0
H1010 H 0.13069 0.45352 0.95493 0.0
C1011 C 0.11888 0.53379 0.8543 0.0
C1012 C 0.09666 0.5102 0.83899 0.0
H1013 H 0.16108 0.54773 0.91679 0.0
H1014 H 0.11568 0.55655 0.82778 0.0
C1015 C 0.10188 0.4813 0.87666 0.0
C1016 C 0.02585 0.89681 0.51616 0.0
C1017 C 0.99553 0.88814 0.49168 0.0
H1018 H 0.05515 0.9295 0.5809 0.0
C1019 C 0.97099 0.90679 0.52183 0.0
H1020 H 0.04556 0.88353 0.49497 0.0
C1021 C 0.97654 0.93342 0.57094 0.0
C1022 C 1.00687 0.94276 0.59243 0.0
H1023 H 0.94715 0.90092 0.5073 0.0
H1024 H 0.95685 0.94688 0.59155 0.0
C1025 C 0.03139 0.92353 0.56547 0.0
C1026 C 0.64196 0.03155 0.47479 0.0
C1027 C 0.65315 1.00167 0.45579 0.0
H1028 H 0.60683 0.05896 0.53588 0.0
C1029 C 0.63671 0.97629 0.48976 0.0
H1030 H 0.65364 0.05175 0.44996 0.0
C1031 C 0.6098 0.98038 0.53803 0.0
C1032 C 0.59812 1.01006 0.55551 0.0
H1033 H 0.64457 0.95288 0.47851 0.0
H1034 H 0.59811 0.96001 0.56191 0.0
C1035 C 0.61488 0.03567 0.52377 0.0
C1036 C 0.52251 0.64164 0.46784 0.0
C1037 C 0.55356 0.65144 0.45702 0.0
H1038 H 0.491 0.60932 0.52658 0.0
C1039 C 0.57637 0.63599 0.50463 0.0
H1040 H 0.50413 0.65258 0.43294 0.0
C1041 C 0.56914 0.61022 0.55389 0.0
C1042 C 0.53843 0.59986 0.56318 0.0
H1043 H 0.60043 0.64324 0.50239 0.0
H1044 H 0.58782 0.59864 0.58617 0.0
C1045 C 0.51503 0.61646 0.52091 0.0
C1046 C 0.89938 0.58159 0.51953 0.0
C1047 C 0.88752 0.56153 0.45745 0.0
H1048 H 0.93334 0.5901 0.61433 0.0
C1049 C 0.90128 0.53203 0.45079 0.0
H1050 H 0.88935 0.60428 0.52869 0.0
C1051 C 0.92684 0.5237 0.5018 0.0
C1052 C 0.9396 0.54473 0.56024 0.0
H1053 H 0.89329 0.51596 0.40361 0.0
H1054 H 0.93735 0.50119 0.49331 0.0
C1055 C 0.92493 0.5735 0.56901 0.0
loop_
_geom_bond_atom_site_label_1
_geom_bond_atom_site_label_2
_geom_bond_distance
_geom_bond_site_symmetry_2
_ccdc_geom_bond_type
C0 C1 1.391 . S
C0 C4 1.391 . S
C0 H42 0.948 . S
C1 C0 1.391 . S
C1 C2 1.391 . S
C2 C1 1.391 . S
C2 H58 0.947 . S
C2 C59 1.392 . S
C3 C4 1.391 . S
C3 C7 1.397 . S
C3 C59 1.419 . S
C4 C0 1.391 . S
C4 C3 1.391 . S
C4 C5 1.399 . S
C5 C4 1.399 . S
C5 C8 1.396 . S
C5 C17 1.453 . S
C5 C18 1.684 . S
H6 C30 0.948 . S
C7 C3 1.397 . S
C7 C8 1.394 . S
C7 C26 1.723 . S
C8 C5 1.396 . S
C8 C7 1.394 . S
C8 C38 1.723 . S
H9 C32 0.947 . S
H10 C33 0.948 . S
H11 C39 0.982 . S
H12 C40 0.979 . S
H13 C40 0.980 . S
H14 C40 0.983 . S
H15 C39 0.979 . S
H16 C39 0.977 . S
C17 C5 1.453 . S
C17 H46 0.982 . S
C17 H47 0.979 . S
C17 H48 0.977 . S
C18 C5 1.684 . S
C18 H43 0.979 . S
C18 H44 0.980 . S
C18 H45 0.983 . S
C19 C20 1.391 . S
C19 C24 1.391 . S
C19 H49 0.948 . S
C20 C19 1.391 . S
C20 C21 1.391 . S
C21 C20 1.391 . S
C21 C22 1.392 . S
C21 H50 0.947 1_554 S
C22 C21 1.392 . S
C22 C23 1.419 . S
C22 H51 0.948 . S
C23 C22 1.419 . S
C23 C24 1.391 . S
C23 C27 1.397 . S
C24 C19 1.391 . S
C24 C23 1.391 . S
C24 C25 1.399 . S
C25 C24 1.399 . S
C25 C26 1.396 . S
C25 C28 1.453 . S
C25 C29 1.684 . S
C26 C7 1.723 . S
C26 C25 1.396 . S
C26 C27 1.394 . S
C27 C23 1.397 . S
C27 C26 1.394 . S
C27 C37 1.723 . S
C28 C25 1.453 . S
C28 H52 0.982 . S
C28 H53 0.979 . S
C28 H54 0.977 . S
C29 C25 1.684 . S
C29 H55 0.979 . S
C29 H56 0.980 . S
C29 H57 0.983 . S
C30 H6 0.948 . S
C30 C31 1.391 . S
C30 C35 1.391 . S
C31 C30 1.391 . S
C31 C32 1.391 . S
C32 H9 0.947 . S
C32 C31 1.391 . S
C32 C33 1.392 . S
C33 H10 0.948 . S
C33 C32 1.392 . S
C33 C34 1.419 . S
C34 C33 1.419 . S
C34 C35 1.391 . S
C34 C38 1.397 . S
C35 C30 1.391 . S
C35 C34 1.391 . S
C35 C36 1.399 . S
C36 C35 1.399 . S
C36 C37 1.396 . S
C36 C39 1.453 . S
C36 C40 1.684 . S
C37 C27 1.723 . S
C37 C36 1.396 . S
C37 C38 1.394 . S
C38 C8 1.723 . S
C38 C34 1.397 . S
C38 C37 1.394 . S
C39 H11 0.982 . S
C39 H15 0.979 . S
C39 H16 0.977 . S
C39 C36 1.453 . S
C40 H12 0.979 . S
C40 H13 0.980 . S
C40 H14 0.983 . S
C40 C36 1.684 . S
H41 C59 0.948 . S
H42 C0 0.948 . S
H43 C18 0.979 . S
H44 C18 0.980 . S
H45 C18 0.983 . S
H46 C17 0.982 . S
H47 C17 0.979 . S
H48 C17 0.977 . S
H49 C19 0.948 . S
H50 C21 0.947 1_556 S
H51 C22 0.948 . S
H52 C28 0.982 . S
H53 C28 0.979 . S
H54 C28 0.977 . S
H55 C29 0.979 . S
H56 C29 0.980 . S
H57 C29 0.983 . S
H58 C2 0.947 . S
C59 C2 1.392 . S
C59 C3 1.419 . S
C59 H41 0.948 . S
C60 C61 1.391 . S
C60 C64 1.391 . S
C60 H102 0.948 . S
C61 C60 1.391 . S
C61 C62 1.391 . S
C62 C61 1.391 . S
C62 H118 0.947 . S
C62 C119 1.392 . S
C63 C64 1.391 . S
C63 C67 1.397 . S
C63 C119 1.419 . S
C64 C60 1.391 . S
C64 C63 1.391 . S
C64 C65 1.399 . S
C65 C64 1.399 . S
C65 C68 1.396 . S
C65 C77 1.453 . S
C65 C78 1.684 . S
H66 C90 0.948 . S
C67 C63 1.397 . S
C67 C68 1.394 . S
C67 C86 1.723 . S
C68 C65 1.396 . S
C68 C67 1.394 . S
C68 C98 1.723 . S
H69 C92 0.947 . S
H70 C93 0.948 . S
H71 C99 0.982 1_455 S
H72 C100 0.979 . S
H73 C100 0.980 . S
H74 C100 0.983 . S
H75 C99 0.979 . S
H76 C99 0.977 . S
C77 C65 1.453 . S
C77 H106 0.982 1_655 S
C77 H107 0.979 . S
C77 H108 0.977 . S
C78 C65 1.684 . S
C78 H103 0.979 . S
C78 H104 0.980 . S
C78 H105 0.983 . S
C79 C80 1.391 . S
C79 C84 1.391 . S
C79 H109 0.948 . S
C80 C79 1.391 . S
C80 C81 1.391 . S
C81 C80 1.391 . S
C81 C82 1.392 . S
C81 H110 0.947 . S
C82 C81 1.392 . S
C82 C83 1.419 . S
C82 H111 0.948 . S
C83 C82 1.419 . S
C83 C84 1.391 . S
C83 C87 1.397 . S
C84 C79 1.391 . S
C84 C83 1.391 . S
C84 C85 1.399 . S
C85 C84 1.399 . S
C85 C86 1.396 . S
C85 C88 1.453 . S
C85 C89 1.684 . S
C86 C67 1.723 . S
C86 C85 1.396 . S
C86 C87 1.394 . S
C87 C83 1.397 . S
C87 C86 1.394 . S
C87 C97 1.723 . S
C88 C85 1.453 . S
C88 H112 0.982 1_655 S
C88 H113 0.979 . S
C88 H114 0.977 . S
C89 C85 1.684 . S
C89 H115 0.979 . S
C89 H116 0.980 . S
C89 H117 0.983 . S
C90 H66 0.948 . S
C90 C91 1.391 . S
C90 C95 1.391 . S
C91 C90 1.391 . S
C91 C92 1.391 . S
C92 H69 0.947 . S
C92 C91 1.391 . S
C92 C93 1.392 . S
C93 H70 0.948 . S
C93 C92 1.392 . S
C93 C94 1.419 . S
C94 C93 1.419 . S
C94 C95 1.391 . S
C94 C98 1.397 . S
C95 C90 1.391 . S
C95 C94 1.391 . S
C95 C96 1.399 . S
C96 C95 1.399 . S
C96 C97 1.396 . S
C96 C99 1.453 . S
C96 C100 1.684 . S
C97 C87 1.723 . S
C97 C96 1.396 . S
C97 C98 1.394 . S
C98 C68 1.723 . S
C98 C94 1.397 . S
C98 C97 1.394 . S
C99 H71 0.982 1_655 S
C99 H75 0.979 . S
C99 H76 0.977 . S
C99 C96 1.453 . S
C100 H72 0.979 . S
C100 H73 0.980 . S
C100 H74 0.983 . S
C100 C96 1.684 . S
H101 C119 0.948 . S
H102 C60 0.948 . S
H103 C78 0.979 . S
H104 C78 0.980 . S
H105 C78 0.983 . S
H106 C77 0.982 1_455 S
H107 C77 0.979 . S
H108 C77 0.977 . S
H109 C79 0.948 . S
H110 C81 0.947 . S
H111 C82 0.948 . S
H112 C88 0.982 1_455 S
H113 C88 0.979 . S
H114 C88 0.977 . S
H115 C89 0.979 . S
H116 C89 0.980 . S
H117 C89 0.983 . S
H118 C62 0.947 . S
C119 C62 1.392 . S
C119 C63 1.419 . S
C119 H101 0.948 . S
C120 C121 1.391 . S
C120 C124 1.391 . S
C120 H162 0.948 . S
C121 C120 1.391 . S
C121 C122 1.391 . S
C122 C121 1.391 . S
C122 H178 0.947 . S
C122 C179 1.392 . S
C123 C124 1.391 . S
C123 C127 1.397 . S
C123 C179 1.419 . S
C124 C120 1.391 . S
C124 C123 1.391 . S
C124 C125 1.399 . S
C125 C124 1.399 . S
C125 C128 1.396 . S
C125 C137 1.453 . S
C125 C138 1.684 . S
H126 C150 0.948 . S
C127 C123 1.397 . S
C127 C128 1.394 . S
C127 C146 1.723 . S
C128 C125 1.396 . S
C128 C127 1.394 . S
C128 C158 1.723 . S
H129 C152 0.947 . S
H130 C153 0.948 . S
H131 C159 0.982 1_545 S
H132 C160 0.979 . S
H133 C160 0.980 . S
H134 C160 0.983 . S
H135 C159 0.979 . S
H136 C159 0.977 . S
C137 C125 1.453 . S
C137 H166 0.982 1_565 S
C137 H167 0.979 . S
C137 H168 0.977 . S
C138 C125 1.684 . S
C138 H163 0.979 . S
C138 H164 0.980 . S
C138 H165 0.983 . S
C139 C140 1.391 . S
C139 C144 1.391 . S
C139 H169 0.948 . S
C140 C139 1.391 . S
C140 C141 1.391 . S
C141 C140 1.391 . S
C141 C142 1.392 . S
C141 H170 0.947 . S
C142 C141 1.392 . S
C142 C143 1.419 . S
C142 H171 0.948 . S
C143 C142 1.419 . S
C143 C144 1.391 . S
C143 C147 1.397 . S
C144 C139 1.391 . S
C144 C143 1.391 . S
C144 C145 1.399 . S
C145 C144 1.399 . S
C145 C146 1.396 . S
C145 C148 1.453 . S
C145 C149 1.684 . S
C146 C127 1.723 . S
C146 C145 1.396 . S
C146 C147 1.394 . S
C147 C143 1.397 . S
C147 C146 1.394 . S
C147 C157 1.723 . S
C148 C145 1.453 . S
C148 H172 0.982 1_565 S
C148 H173 0.979 . S
C148 H174 0.977 . S
C149 C145 1.684 . S
C149 H175 0.979 . S
C149 H176 0.980 . S
C149 H177 0.983 . S
C150 H126 0.948 . S
C150 C151 1.391 . S
C150 C155 1.391 . S
C151 C150 1.391 . S
C151 C152 1.391 . S
C152 H129 0.947 . S
C152 C151 1.391 . S
C152 C153 1.392 . S
C153 H130 0.948 . S
C153 C152 1.392 . S
C153 C154 1.419 . S
C154 C153 1.419 . S
C154 C155 1.391 . S
C154 C158 1.397 . S
C155 C150 1.391 . S
C155 C154 1.391 . S
C155 C156 1.399 . S
C156 C155 1.399 . S
C156 C157 1.396 . S
C156 C159 1.453 . S
C156 C160 1.684 . S
C157 C147 1.723 . S
C157 C156 1.396 . S
C157 C158 1.394 . S
C158 C128 1.723 . S
C158 C154 1.397 . S
C158 C157 1.394 . S
C159 H131 0.982 1_565 S
C159 H135 0.979 . S
C159 H136 0.977 . S
C159 C156 1.453 . S
C160 H132 0.979 . S
C160 H133 0.980 . S
C160 H134 0.983 . S
C160 C156 1.684 . S
H161 C179 0.948 . S
H162 C120 0.948 . S
H163 C138 0.979 . S
H164 C138 0.980 . S
H165 C138 0.983 . S
H166 C137 0.982 1_545 S
H167 C137 0.979 . S
H168 C137 0.977 . S
H169 C139 0.948 . S
H170 C141 0.947 . S
H171 C142 0.948 . S
H172 C148 0.982 1_545 S
H173 C148 0.979 . S
H174 C148 0.977 . S
H175 C149 0.979 . S
H176 C149 0.980 . S
H177 C149 0.983 . S
H178 C122 0.947 . S
C179 C122 1.392 . S
C179 C123 1.419 . S
C179 H161 0.948 . S
C180 C181 1.391 . S
C180 C184 1.391 . S
C180 H222 0.948 . S
C181 C180 1.391 . S
C181 C182 1.391 . S
C182 C181 1.391 . S
C182 H238 0.947 . S
C182 C239 1.392 . S
C183 C184 1.391 . S
C183 C187 1.397 . S
C183 C239 1.419 . S
C184 C180 1.391 . S
C184 C183 1.391 . S
C184 C185 1.399 . S
C185 C184 1.399 . S
C185 C188 1.396 . S
C185 C197 1.453 . S
C185 C198 1.684 . S
H186 C210 0.948 . S
C187 C183 1.397 . S
C187 C188 1.394 . S
C187 C206 1.723 . S
C188 C185 1.396 . S
C188 C187 1.394 . S
C188 C218 1.723 . S
H189 C212 0.947 . S
H190 C213 0.948 . S
H191 C219 0.982 . S
H192 C220 0.979 . S
H193 C220 0.980 . S
H194 C220 0.983 . S
H195 C219 0.979 . S
H196 C219 0.977 . S
C197 C185 1.453 . S
C197 H226 0.982 . S
C197 H227 0.979 . S
C197 H228 0.977 . S
C198 C185 1.684 . S
C198 H223 0.979 . S
C198 H224 0.980 . S
C198 H225 0.983 . S
C199 C200 1.391 . S
C199 C204 1.391 . S
C199 H229 0.948 . S
C200 C199 1.391 . S
C200 C201 1.391 . S
C201 C200 1.391 . S
C201 C202 1.392 . S
C201 H230 0.947 1_554 S
C202 C201 1.392 . S
C202 C203 1.419 . S
C202 H231 0.948 . S
C203 C202 1.419 . S
C203 C204 1.391 . S
C203 C207 1.397 . S
C204 C199 1.391 . S
C204 C203 1.391 . S
C204 C205 1.399 . S
C205 C204 1.399 . S
C205 C206 1.396 . S
C205 C208 1.453 . S
C205 C209 1.684 . S
C206 C187 1.723 . S
C206 C205 1.396 . S
C206 C207 1.394 . S
C207 C203 1.397 . S
C207 C206 1.394 . S
C207 C217 1.723 . S
C208 C205 1.453 . S
C208 H232 0.982 . S
C208 H233 0.979 . S
C208 H234 0.977 . S
C209 C205 1.684 . S
C209 H235 0.979 . S
C209 H236 0.980 . S
C209 H237 0.983 . S
C210 H186 0.948 . S
C210 C211 1.391 . S
C210 C215 1.391 . S
C211 C210 1.391 . S
C211 C212 1.391 . S
C212 H189 0.947 . S
C212 C211 1.391 . S
C212 C213 1.392 . S
C213 H190 0.948 . S
C213 C212 1.392 . S
C213 C214 1.419 . S
C214 C213 1.419 . S
C214 C215 1.391 . S
C214 C218 1.397 . S
C215 C210 1.391 . S
C215 C214 1.391 . S
C215 C216 1.399 . S
C216 C215 1.399 . S
C216 C217 1.396 . S
C216 C219 1.453 . S
C216 C220 1.684 . S
C217 C207 1.723 . S
C217 C216 1.396 . S
C217 C218 1.394 . S
C218 C188 1.723 . S
C218 C214 1.397 . S
C218 C217 1.394 . S
C219 H191 0.982 . S
C219 H195 0.979 . S
C219 H196 0.977 . S
C219 C216 1.453 . S
C220 H192 0.979 . S
C220 H193 0.980 . S
C220 H194 0.983 . S
C220 C216 1.684 . S
H221 C239 0.948 . S
H222 C180 0.948 . S
H223 C198 0.979 . S
H224 C198 0.980 . S
H225 C198 0.983 . S
H226 C197 0.982 . S
H227 C197 0.979 . S
H228 C197 0.977 . S
H229 C199 0.948 . S
H230 C201 0.947 1_556 S
H231 C202 0.948 . S
H232 C208 0.982 . S
H233 C208 0.979 . S
H234 C208 0.977 . S
H235 C209 0.979 . S
H236 C209 0.980 . S
H237 C209 0.983 . S
H238 C182 0.947 . S
C239 C182 1.392 . S
C239 C183 1.419 . S
C239 H221 0.948 . S
C240 C241 1.391 . S
C240 C244 1.391 . S
C240 H282 0.948 . S
C241 C240 1.391 . S
C241 C242 1.391 . S
C242 C241 1.391 . S
C242 H298 0.947 . S
C242 C299 1.392 . S
C243 C244 1.391 . S
C243 C247 1.397 . S
C243 C299 1.419 . S
C244 C240 1.391 . S
C244 C243 1.391 . S
C244 C245 1.399 1_554 S
C245 C244 1.399 1_556 S
C245 C248 1.396 . S
C245 C257 1.453 . S
C245 C258 1.684 . S
H246 C270 0.948 . S
C247 C243 1.397 . S
C247 C248 1.394 1_554 S
C247 C266 1.723 . S
C248 C245 1.396 . S
C248 C247 1.394 1_556 S
C248 C278 1.723 . S
H249 C272 0.947 . S
H250 C273 0.948 . S
H251 C279 0.982 . S
H252 C280 0.979 . S
H253 C280 0.980 . S
H254 C280 0.983 . S
H255 C279 0.979 . S
H256 C279 0.986 . S
C257 C245 1.453 . S
C257 H286 0.982 . S
C257 H287 0.979 . S
C257 H288 0.977 . S
C258 C245 1.684 . S
C258 H283 0.979 . S
C258 H284 0.980 . S
C258 H285 0.983 . S
C259 C260 1.391 . S
C259 C264 1.391 . S
C259 H289 0.948 . S
C260 C259 1.391 . S
C260 C261 1.391 . S
C261 C260 1.391 . S
C261 C262 1.392 . S
C261 H290 0.947 . S
C262 C261 1.392 . S
C262 C263 1.419 . S
C262 H291 0.948 . S
C263 C262 1.419 . S
C263 C264 1.391 . S
C263 C267 1.397 . S
C264 C259 1.391 . S
C264 C263 1.391 . S
C264 C265 1.399 . S
C265 C264 1.399 . S
C265 C266 1.396 . S
C265 C268 1.453 . S
C265 C269 1.684 . S
C266 C247 1.723 . S
C266 C265 1.396 . S
C266 C267 1.394 . S
C267 C263 1.397 . S
C267 C266 1.394 . S
C267 C277 1.723 1_554 S
C268 C265 1.453 . S
C268 H292 0.982 . S
C268 H293 0.979 . S
C268 H294 0.977 . S
C269 C265 1.684 . S
C269 H295 0.979 . S
C269 H296 0.980 . S
C269 H297 0.983 . S
C270 H246 0.948 . S
C270 C271 1.391 . S
C270 C275 1.391 . S
C271 C270 1.391 . S
C271 C272 1.391 . S
C272 H249 0.947 . S
C272 C271 1.391 . S
C272 C273 1.392 . S
C273 H250 0.948 . S
C273 C272 1.392 . S
C273 C274 1.419 . S
C274 C273 1.419 . S
C274 C275 1.391 . S
C274 C278 1.397 . S
C275 C270 1.391 . S
C275 C274 1.391 . S
C275 C276 1.399 . S
C276 C275 1.399 . S
C276 C277 1.396 . S
C276 C279 1.453 . S
C276 C280 1.684 . S
C277 C267 1.723 1_556 S
C277 C276 1.396 . S
C277 C278 1.394 . S
C278 C248 1.723 . S
C278 C274 1.397 . S
C278 C277 1.394 . S
C279 H251 0.982 . S
C279 H255 0.979 . S
C279 H256 0.986 . S
C279 C276 1.453 . S
C280 H252 0.979 . S
C280 H253 0.980 . S
C280 H254 0.983 . S
C280 C276 1.684 . S
H281 C299 0.948 . S
H282 C240 0.948 . S
H283 C258 0.979 . S
H284 C258 0.980 . S
H285 C258 0.983 . S
H286 C257 0.982 . S
H287 C257 0.979 . S
H288 C257 0.977 . S
H289 C259 0.948 . S
H290 C261 0.947 . S
H291 C262 0.948 . S
H292 C268 0.982 . S
H293 C268 0.979 . S
H294 C268 0.977 . S
H295 C269 0.979 . S
H296 C269 0.980 . S
H297 C269 0.983 . S
H298 C242 0.947 . S
C299 C242 1.392 . S
C299 C243 1.419 . S
C299 H281 0.948 . S
C300 C301 1.391 . S
C300 C304 1.391 . S
C300 H342 0.948 . S
C301 C300 1.391 . S
C301 C302 1.391 . S
C302 C301 1.391 . S
C302 H358 0.947 . S
C302 C359 1.392 . S
C303 C304 1.391 . S
C303 C307 1.397 . S
C303 C359 1.419 . S
C304 C300 1.391 . S
C304 C303 1.391 . S
C304 C305 1.399 . S
C305 C304 1.399 . S
C305 C308 1.396 . S
C305 C317 1.453 . S
C305 C318 1.684 . S
H306 C330 0.948 . S
C307 C303 1.397 . S
C307 C308 1.394 . S
C307 C326 1.723 1_554 S
C308 C305 1.396 . S
C308 C307 1.394 . S
C308 C338 1.723 . S
H309 C332 0.947 . S
H310 C333 0.948 . S
H311 C339 0.982 . S
H312 C340 0.979 1_655 S
H313 C340 0.980 . S
H314 C340 0.983 . S
H315 C339 0.979 . S
H316 C339 0.977 . S
C317 C305 1.453 . S
C317 H346 0.982 . S
C317 H347 0.979 . S
C317 H348 0.977 . S
C318 C305 1.684 . S
C318 H343 0.979 1_455 S
C318 H344 0.980 . S
C318 H345 0.983 . S
C319 C320 1.391 . S
C319 C324 1.391 . S
C319 H349 0.948 . S
C320 C319 1.391 . S
C320 C321 1.391 . S
C321 C320 1.391 . S
C321 C322 1.392 . S
C321 H350 0.947 . S
C322 C321 1.392 . S
C322 C323 1.419 . S
C322 H351 0.948 . S
C323 C322 1.419 . S
C323 C324 1.391 . S
C323 C327 1.397 . S
C324 C319 1.391 . S
C324 C323 1.391 . S
C324 C325 1.399 . S
C325 C324 1.399 . S
C325 C326 1.396 . S
C325 C328 1.453 . S
C325 C329 1.684 . S
C326 C307 1.723 1_556 S
C326 C325 1.396 . S
C326 C327 1.394 . S
C327 C323 1.397 . S
C327 C326 1.394 . S
C327 C337 1.723 . S
C328 C325 1.453 . S
C328 H352 0.982 . S
C328 H353 0.979 . S
C328 H354 0.966 1_556 S
C329 C325 1.684 . S
C329 H355 0.979 1_455 S
C329 H356 0.980 . S
C329 H357 0.983 . S
C330 H306 0.948 . S
C330 C331 1.391 . S
C330 C335 1.391 . S
C331 C330 1.391 . S
C331 C332 1.391 . S
C332 H309 0.947 . S
C332 C331 1.391 . S
C332 C333 1.392 . S
C333 H310 0.948 . S
C333 C332 1.392 . S
C333 C334 1.419 . S
C334 C333 1.419 . S
C334 C335 1.391 . S
C334 C338 1.397 . S
C335 C330 1.391 . S
C335 C334 1.391 . S
C335 C336 1.399 1_554 S
C336 C335 1.399 1_556 S
C336 C337 1.396 . S
C336 C339 1.453 . S
C336 C340 1.684 . S
C337 C327 1.723 . S
C337 C336 1.396 . S
C337 C338 1.394 1_556 S
C338 C308 1.723 . S
C338 C334 1.397 . S
C338 C337 1.394 1_554 S
C339 H311 0.982 . S
C339 H315 0.979 . S
C339 H316 0.977 . S
C339 C336 1.453 . S
C340 H312 0.979 1_455 S
C340 H313 0.980 . S
C340 H314 0.983 . S
C340 C336 1.684 . S
H341 C359 0.948 . S
H342 C300 0.948 . S
H343 C318 0.979 1_655 S
H344 C318 0.980 . S
H345 C318 0.983 . S
H346 C317 0.982 . S
H347 C317 0.979 . S
H348 C317 0.977 . S
H349 C319 0.948 . S
H350 C321 0.947 . S
H351 C322 0.948 . S
H352 C328 0.982 . S
H353 C328 0.979 . S
H354 C328 0.966 1_554 S
H355 C329 0.979 1_655 S
H356 C329 0.980 . S
H357 C329 0.983 . S
H358 C302 0.947 . S
C359 C302 1.392 . S
C359 C303 1.419 . S
C359 H341 0.948 . S
C360 C361 1.391 . S
C360 C364 1.391 . S
C360 H402 0.948 . S
C361 C360 1.391 . S
C361 C362 1.391 . S
C362 C361 1.391 . S
C362 H418 0.947 . S
C362 C419 1.392 . S
C363 C364 1.391 . S
C363 C367 1.397 . S
C363 C419 1.419 . S
C364 C360 1.391 . S
C364 C363 1.391 . S
C364 C365 1.399 . S
C365 C364 1.399 . S
C365 C368 1.396 . S
C365 C377 1.453 . S
C365 C378 1.684 . S
H366 C390 0.948 . S
C367 C363 1.397 . S
C367 C368 1.394 . S
C367 C386 1.723 1_556 S
C368 C365 1.396 . S
C368 C367 1.394 . S
C368 C398 1.723 1_556 S
H369 C392 0.947 1_556 S
H370 C393 0.954 . S
H371 C399 0.982 . S
H372 C400 0.979 . S
H373 C400 0.980 . S
H374 C400 0.983 . S
H375 C399 0.979 . S
H376 C399 0.977 . S
C377 C365 1.453 . S
C377 H406 0.982 . S
C377 H407 0.979 . S
C377 H408 0.977 . S
C378 C365 1.684 . S
C378 H403 0.979 . S
C378 H404 0.980 . S
C378 H405 0.983 . S
C379 C380 1.391 . S
C379 C384 1.391 . S
C379 H409 0.948 . S
C380 C379 1.391 . S
C380 C381 1.391 . S
C381 C380 1.391 . S
C381 C382 1.392 . S
C381 H410 0.947 . S
C382 C381 1.392 . S
C382 C383 1.419 . S
C382 H411 0.948 . S
C383 C382 1.419 . S
C383 C384 1.391 . S
C383 C387 1.397 . S
C384 C379 1.391 . S
C384 C383 1.391 . S
C384 C385 1.399 . S
C385 C384 1.399 . S
C385 C386 1.396 . S
C385 C388 1.453 . S
C385 C389 1.684 . S
C386 C367 1.723 1_554 S
C386 C385 1.396 . S
C386 C387 1.394 . S
C387 C383 1.397 . S
C387 C386 1.394 . S
C387 C397 1.723 . S
C388 C385 1.453 . S
C388 H412 0.982 . S
C388 H413 0.979 . S
C388 H414 0.977 1_554 S
C389 C385 1.684 . S
C389 H415 0.979 . S
C389 H416 0.980 1_554 S
C389 H417 0.983 . S
C390 H366 0.948 . S
C390 C391 1.391 . S
C390 C395 1.391 . S
C391 C390 1.391 . S
C391 C392 1.391 . S
C392 H369 0.947 1_554 S
C392 C391 1.391 . S
C392 C393 1.390 1_554 S
C393 H370 0.954 . S
C393 C392 1.390 1_556 S
C393 C394 1.415 1_556 S
C394 C393 1.415 1_554 S
C394 C395 1.391 . S
C394 C398 1.397 . S
C395 C390 1.391 . S
C395 C394 1.391 . S
C395 C396 1.399 . S
C396 C395 1.399 . S
C396 C397 1.396 . S
C396 C399 1.453 . S
C396 C400 1.684 . S
C397 C387 1.723 . S
C397 C396 1.396 . S
C397 C398 1.394 . S
C398 C368 1.723 1_554 S
C398 C394 1.397 . S
C398 C397 1.394 . S
C399 H371 0.982 . S
C399 H375 0.979 . S
C399 H376 0.977 . S
C399 C396 1.453 . S
C400 H372 0.979 . S
C400 H373 0.980 . S
C400 H374 0.983 . S
C400 C396 1.684 . S
H401 C419 0.948 . S
H402 C360 0.948 . S
H403 C378 0.979 . S
H404 C378 0.980 . S
H405 C378 0.983 . S
H406 C377 0.982 . S
H407 C377 0.979 . S
H408 C377 0.977 . S
H409 C379 0.948 . S
H410 C381 0.947 . S
H411 C382 0.948 . S
H412 C388 0.982 . S
H413 C388 0.979 . S
H414 C388 0.977 1_556 S
H415 C389 0.979 . S
H416 C389 0.980 1_556 S
H417 C389 0.983 . S
H418 C362 0.947 . S
C419 C362 1.392 . S
C419 C363 1.419 . S
C419 H401 0.948 . S
C420 C421 1.391 . S
C420 C424 1.391 . S
C420 H462 0.948 . S
C421 C420 1.391 . S
C421 C422 1.391 . S
C422 C421 1.391 . S
C422 H478 0.947 . S
C422 C479 1.392 . S
C423 C424 1.391 . S
C423 C427 1.397 . S
C423 C479 1.419 . S
C424 C420 1.391 . S
C424 C423 1.391 . S
C424 C425 1.399 . S
C425 C424 1.399 . S
C425 C428 1.396 . S
C425 C437 1.453 . S
C425 C438 1.684 . S
H426 C450 0.948 . S
C427 C423 1.397 . S
C427 C428 1.394 . S
C427 C446 1.723 1_556 S
C428 C425 1.396 . S
C428 C427 1.394 . S
C428 C458 1.723 1_556 S
H429 C452 0.947 1_556 S
H430 C453 0.948 . S
H431 C459 0.982 . S
H432 C460 0.979 . S
H433 C460 0.980 . S
H434 C460 0.983 . S
H435 C459 0.979 . S
H436 C459 0.977 . S
C437 C425 1.453 . S
C437 H466 0.982 . S
C437 H467 0.979 . S
C437 H468 0.977 . S
C438 C425 1.684 . S
C438 H463 0.979 . S
C438 H464 0.980 . S
C438 H465 0.983 . S
C439 C440 1.391 . S
C439 C444 1.391 . S
C439 H469 0.948 . S
C440 C439 1.391 . S
C440 C441 1.391 . S
C441 C440 1.391 . S
C441 C442 1.392 . S
C441 H470 0.947 . S
C442 C441 1.392 . S
C442 C443 1.419 . S
C442 H471 0.948 . S
C443 C442 1.419 . S
C443 C444 1.391 . S
C443 C447 1.397 . S
C444 C439 1.391 . S
C444 C443 1.391 . S
C444 C445 1.399 . S
C445 C444 1.399 . S
C445 C446 1.396 . S
C445 C448 1.453 . S
C445 C449 1.684 . S
C446 C427 1.723 1_554 S
C446 C445 1.396 . S
C446 C447 1.394 . S
C447 C443 1.397 . S
C447 C446 1.394 . S
C447 C457 1.723 . S
C448 C445 1.453 . S
C448 H472 0.982 . S
C448 H473 0.979 . S
C448 H474 0.977 1_554 S
C449 C445 1.684 . S
C449 H475 0.979 . S
C449 H476 0.980 1_554 S
C449 H477 0.983 . S
C450 H426 0.948 . S
C450 C451 1.391 . S
C450 C455 1.391 . S
C451 C450 1.391 . S
C451 C452 1.391 . S
C452 H429 0.947 1_554 S
C452 C451 1.391 . S
C452 C453 1.392 1_554 S
C453 H430 0.948 . S
C453 C452 1.392 1_556 S
C453 C454 1.419 1_556 S
C454 C453 1.419 1_554 S
C454 C455 1.391 . S
C454 C458 1.397 . S
C455 C450 1.391 . S
C455 C454 1.391 . S
C455 C456 1.399 . S
C456 C455 1.399 . S
C456 C457 1.396 . S
C456 C459 1.453 . S
C456 C460 1.684 . S
C457 C447 1.723 . S
C457 C456 1.396 . S
C457 C458 1.394 . S
C458 C428 1.723 1_554 S
C458 C454 1.397 . S
C458 C457 1.394 . S
C459 H431 0.982 . S
C459 H435 0.979 . S
C459 H436 0.977 . S
C459 C456 1.453 . S
C460 H432 0.979 . S
C460 H433 0.980 . S
C460 H434 0.983 . S
C460 C456 1.684 . S
H461 C479 0.948 . S
H462 C420 0.948 . S
H463 C438 0.979 . S
H464 C438 0.980 . S
H465 C438 0.983 . S
H466 C437 0.982 . S
H467 C437 0.979 . S
H468 C437 0.977 . S
H469 C439 0.948 . S
H470 C441 0.947 . S
H471 C442 0.948 . S
H472 C448 0.982 . S
H473 C448 0.979 . S
H474 C448 0.977 1_556 S
H475 C449 0.979 . S
H476 C449 0.980 1_556 S
H477 C449 0.983 . S
H478 C422 0.947 . S
C479 C422 1.392 . S
C479 C423 1.419 . S
C479 H461 0.948 . S
C480 C482 1.422 . S
C480 C484 1.415 . S
C480 N486 1.369 . S
C481 C482 1.421 . S
C481 C483 1.417 1_556 S
C481 C493 1.422 1_556 S
C482 C480 1.422 . S
C482 C481 1.421 . S
C482 N492 1.359 . S
C483 C481 1.417 1_554 S
C483 C485 1.329 1_554 S
C483 H502 0.930 . S
C484 C480 1.415 . S
C484 C485 1.437 . S
C484 C488 1.413 . S
C485 C483 1.329 1_556 S
C485 C484 1.437 . S
C485 H507 0.929 . S
N486 C480 1.369 . S
N486 C487 1.338 1_545 S
N486 Gd491 2.622 1_545 S
C487 N486 1.338 1_565 S
C487 C489 1.378 1_565 S
C487 H499 0.929 . S
C488 C484 1.413 . S
C488 C489 1.348 . S
C488 H504 0.931 . S
C489 C487 1.378 1_545 S
C489 C488 1.348 . S
C489 H505 0.930 . S
Gd490 N510 2.622 . S
Gd490 N517 2.570 . S
Gd490 O524 2.353 1_655 S
Gd490 O525 2.468 . S
Gd490 O526 2.427 . S
Gd490 O528 2.388 . S
Gd490 O529 2.386 1_545 S
Gd490 O533 2.307 1_655 S
Gd490 C543 2.805 . S
Gd491 N486 2.622 1_565 S
Gd491 N492 2.570 1_565 S
Gd491 O523 2.386 1_565 S
Gd491 O527 2.305 1_465 S
Gd491 O530 2.353 . S
Gd491 O531 2.468 . S
Gd491 O532 2.427 . S
Gd491 O534 2.388 . S
Gd491 C555 2.805 . S
N492 C482 1.359 . S
N492 Gd491 2.570 1_545 S
N492 C494 1.343 . S
C493 C481 1.422 1_554 S
C493 C495 1.321 . S
C493 H501 0.931 . S
C494 N492 1.343 . S
C494 C495 1.390 1_556 S
C494 H496 0.931 . S
C495 C493 1.321 . S
C495 C494 1.390 1_554 S
C495 H497 0.930 . S
H496 C494 0.931 . S
H497 C495 0.930 . S
H498 C521 0.931 1_455 S
H499 C487 0.929 . S
H500 C522 0.930 1_455 S
H501 C493 0.931 . S
H502 C483 0.930 . S
H503 C512 0.929 . S
H504 C488 0.931 . S
H505 C489 0.930 . S
H506 C544 0.930 . S
H507 C485 0.929 . S
H508 C513 0.931 . S
H509 C514 0.930 . S
N510 Gd490 2.622 . S
N510 C511 1.353 1_545 S
N510 C512 1.338 . S
C511 N510 1.353 1_565 S
C511 C515 1.428 . S
C511 C518 1.426 . S
C512 H503 0.929 . S
C512 N510 1.338 . S
C512 C514 1.378 . S
C513 H508 0.931 . S
C513 C514 1.348 1_565 S
C513 C515 1.413 . S
C514 H509 0.930 . S
C514 C512 1.378 . S
C514 C513 1.348 1_545 S
C515 C511 1.428 . S
C515 C513 1.413 . S
C515 C545 1.437 . S
H516 C545 0.929 . S
N517 Gd490 2.570 . S
N517 C518 1.359 1_545 S
N517 C521 1.343 . S
C518 C511 1.426 . S
C518 N517 1.359 1_565 S
C518 C520 1.421 . S
C519 C520 1.422 . S
C519 C522 1.321 . S
C519 H546 0.931 . S
C520 C518 1.421 . S
C520 C519 1.422 . S
C520 C544 1.417 . S
C521 H498 0.931 1_655 S
C521 N517 1.343 . S
C521 C522 1.390 1_545 S
C522 H500 0.930 1_655 S
C522 C519 1.321 . S
C522 C521 1.390 1_565 S
O523 Gd491 2.386 1_545 S
O523 C535 1.265 . S
O524 Gd490 2.353 1_455 S
O524 C535 1.242 . S
O525 Gd490 2.468 . S
O525 C543 1.263 . S
O526 Gd490 2.427 . S
O526 C543 1.252 . S
O527 Gd491 2.305 1_645 S
O527 C536 1.263 . S
O528 Gd490 2.388 . S
O528 C536 1.252 . S
O529 Gd490 2.386 1_565 S
O529 C547 1.265 . S
O530 Gd491 2.353 . S
O530 C547 1.242 1_455 S
O531 Gd491 2.468 . S
O531 C555 1.263 . S
O532 Gd491 2.427 . S
O532 C555 1.252 . S
O533 Gd490 2.307 1_455 S
O533 C548 1.261 . S
O534 Gd491 2.388 . S
O534 C548 1.252 1_565 S
C535 O523 1.265 . S
C535 O524 1.242 . S
C536 O527 1.263 . S
C536 O528 1.252 . S
C537 C540 1.394 . S
C537 C542 1.370 . S
C537 C543 1.500 . S
C538 C541 1.383 . S
C538 C542 1.395 . S
C539 C540 1.396 . S
C539 C541 1.365 . S
C539 H556 0.929 . S
C540 C537 1.394 . S
C540 C539 1.396 . S
C540 H557 0.930 . S
C541 C538 1.383 . S
C541 C539 1.365 . S
C541 H558 0.931 . S
C542 C537 1.370 . S
C542 C538 1.395 . S
C542 H559 0.930 1_655 S
C543 Gd490 2.805 . S
C543 O525 1.263 . S
C543 O526 1.252 . S
C543 C537 1.500 . S
C544 H506 0.930 . S
C544 C520 1.417 . S
C544 C545 1.329 . S
C545 C515 1.437 . S
C545 H516 0.929 . S
C545 C544 1.329 . S
H546 C519 0.931 . S
C547 O529 1.265 . S
C547 O530 1.242 1_655 S
C548 O533 1.261 . S
C548 O534 1.252 1_545 S
C549 C552 1.394 . S
C549 C554 1.370 . S
C549 C555 1.500 . S
C550 C553 1.383 . S
C550 C554 1.395 . S
C551 C552 1.396 . S
C551 C553 1.365 . S
C551 H560 0.929 . S
C552 C549 1.394 . S
C552 C551 1.396 . S
C552 H561 0.930 . S
C553 C550 1.383 . S
C553 C551 1.365 . S
C553 H562 0.931 . S
C554 C549 1.370 . S
C554 C550 1.395 . S
C554 H563 0.930 . S
C555 Gd491 2.805 . S
C555 O531 1.263 . S
C555 O532 1.252 . S
C555 C549 1.500 . S
H556 C539 0.929 . S
H557 C540 0.930 . S
H558 C541 0.931 . S
H559 C542 0.930 1_455 S
H560 C551 0.929 . S
H561 C552 0.930 . S
H562 C553 0.931 . S
H563 C554 0.930 . S
C564 C566 1.422 . S
C564 C568 1.415 . S
C564 N570 1.369 . S
C565 C566 1.421 . S
C565 C567 1.417 . S
C565 C577 1.422 . S
C566 C564 1.422 . S
C566 C565 1.421 . S
C566 N576 1.359 . S
C567 C565 1.417 . S
C567 C569 1.329 . S
C567 H586 0.930 . S
C568 C564 1.415 . S
C568 C569 1.437 . S
C568 C572 1.413 . S
C569 C567 1.329 . S
C569 C568 1.437 . S
C569 H591 0.929 . S
N570 C564 1.369 . S
N570 C571 1.338 . S
N570 Gd575 2.622 . S
C571 N570 1.338 . S
C571 C573 1.378 . S
C571 H583 0.929 . S
C572 C568 1.413 . S
C572 C573 1.348 . S
C572 H588 0.931 . S
C573 C571 1.378 . S
C573 C572 1.348 . S
C573 H589 0.930 . S
Gd574 N594 2.622 . S
Gd574 N601 2.570 . S
Gd574 O608 2.353 1_545 S
Gd574 O609 2.468 . S
Gd574 O610 2.427 . S
Gd574 O612 2.388 . S
Gd574 O613 2.386 . S
Gd574 O617 2.307 . S
Gd574 C627 2.805 . S
Gd575 N570 2.622 . S
Gd575 N576 2.570 . S
Gd575 O607 2.386 . S
Gd575 O611 2.307 1_565 S
Gd575 O614 2.353 1_565 S
Gd575 O615 2.468 . S
Gd575 O616 2.427 . S
Gd575 O618 2.388 . S
Gd575 C639 2.805 . S
N576 C566 1.359 . S
N576 Gd575 2.570 . S
N576 C578 1.343 . S
C577 C565 1.422 . S
C577 C579 1.321 . S
C577 H585 0.931 . S
C578 N576 1.343 . S
C578 C579 1.390 . S
C578 H580 0.931 . S
C579 C577 1.321 . S
C579 C578 1.390 . S
C579 H581 0.930 . S
H580 C578 0.931 . S
H581 C579 0.930 . S
H582 C605 0.931 . S
H583 C571 0.929 . S
H584 C606 0.930 . S
H585 C577 0.931 . S
H586 C567 0.930 . S
H587 C596 0.929 . S
H588 C572 0.931 . S
H589 C573 0.930 . S
H590 C628 0.930 . S
H591 C569 0.929 . S
H592 C597 0.931 . S
H593 C598 0.930 . S
N594 Gd574 2.622 . S
N594 C595 1.369 . S
N594 C596 1.338 . S
C595 N594 1.369 . S
C595 C599 1.415 . S
C595 C602 1.422 . S
C596 H587 0.929 . S
C596 N594 1.338 . S
C596 C598 1.378 . S
C597 H592 0.931 . S
C597 C598 1.348 . S
C597 C599 1.413 . S
C598 H593 0.930 . S
C598 C596 1.378 . S
C598 C597 1.348 . S
C599 C595 1.415 . S
C599 C597 1.413 . S
C599 C629 1.437 . S
H600 C629 0.929 . S
N601 Gd574 2.570 . S
N601 C602 1.359 . S
N601 C605 1.343 . S
C602 C595 1.422 . S
C602 N601 1.359 . S
C602 C604 1.421 . S
C603 C604 1.422 . S
C603 C606 1.321 . S
C603 H630 0.931 . S
C604 C602 1.421 . S
C604 C603 1.422 . S
C604 C628 1.417 . S
C605 H582 0.931 . S
C605 N601 1.343 . S
C605 C606 1.390 . S
C606 H584 0.930 . S
C606 C603 1.321 . S
C606 C605 1.390 . S
O607 Gd575 2.386 . S
O607 C619 1.265 . S
O608 Gd574 2.353 1_565 S
O608 C619 1.242 . S
O609 Gd574 2.468 . S
O609 C627 1.263 . S
O610 Gd574 2.427 . S
O610 C627 1.252 . S
O611 Gd575 2.307 1_545 S
O611 C620 1.261 . S
O612 Gd574 2.388 . S
O612 C620 1.252 . S
O613 Gd574 2.386 . S
O613 C631 1.265 . S
O614 Gd575 2.353 1_545 S
O614 C631 1.242 . S
O615 Gd575 2.468 . S
O615 C639 1.263 . S
O616 Gd575 2.427 . S
O616 C639 1.252 . S
O617 Gd574 2.307 . S
O617 C632 1.261 1_545 S
O618 Gd575 2.388 . S
O618 C632 1.252 . S
C619 O607 1.265 . S
C619 O608 1.242 . S
C620 O611 1.261 . S
C620 O612 1.252 . S
C621 C624 1.394 1_556 S
C621 C626 1.370 . S
C621 C627 1.500 . S
C622 C625 1.383 1_556 S
C622 C626 1.395 . S
C623 C624 1.396 . S
C623 C625 1.365 . S
C623 H640 0.929 . S
C624 C621 1.394 1_554 S
C624 C623 1.396 . S
C624 H641 0.930 . S
C625 C622 1.383 1_554 S
C625 C623 1.365 . S
C625 H642 0.931 . S
C626 C621 1.370 . S
C626 C622 1.395 . S
C626 H643 0.930 . S
C627 Gd574 2.805 . S
C627 O609 1.263 . S
C627 O610 1.252 . S
C627 C621 1.500 . S
C628 H590 0.930 . S
C628 C604 1.417 . S
C628 C629 1.329 . S
C629 C599 1.437 . S
C629 H600 0.929 . S
C629 C628 1.329 . S
H630 C603 0.931 . S
C631 O613 1.265 . S
C631 O614 1.242 . S
C632 O617 1.261 1_565 S
C632 O618 1.252 . S
C633 C636 1.394 . S
C633 C638 1.370 . S
C633 C639 1.500 . S
C634 C637 1.383 . S
C634 C638 1.395 . S
C635 C636 1.396 . S
C635 C637 1.365 . S
C635 H644 0.929 . S
C636 C633 1.394 . S
C636 C635 1.396 . S
C636 H645 0.930 . S
C637 C634 1.383 . S
C637 C635 1.365 . S
C637 H646 0.931 . S
C638 C633 1.370 . S
C638 C634 1.395 . S
C638 H647 0.930 . S
C639 Gd575 2.805 . S
C639 O615 1.263 . S
C639 O616 1.252 . S
C639 C633 1.500 . S
H640 C623 0.929 . S
H641 C624 0.930 . S
H642 C625 0.931 . S
H643 C626 0.930 . S
H644 C635 0.929 . S
H645 C636 0.930 . S
H646 C637 0.931 . S
H647 C638 0.930 . S
C648 C650 1.422 . S
C648 C652 1.415 . S
C648 N654 1.369 . S
C649 C650 1.421 . S
C649 C651 1.417 1_556 S
C649 C661 1.422 1_556 S
C650 C648 1.422 . S
C650 C649 1.421 . S
C650 N660 1.359 . S
C651 C649 1.417 1_554 S
C651 C653 1.329 1_554 S
C651 H670 0.930 . S
C652 C648 1.415 . S
C652 C653 1.437 . S
C652 C656 1.413 . S
C653 C651 1.329 1_556 S
C653 C652 1.437 . S
C653 H675 0.929 . S
N654 C648 1.369 . S
N654 C655 1.338 . S
N654 Gd659 2.622 . S
C655 N654 1.338 . S
C655 C657 1.378 . S
C655 H667 0.929 . S
C656 C652 1.413 . S
C656 C657 1.348 . S
C656 H672 0.931 . S
C657 C655 1.378 . S
C657 C656 1.348 . S
C657 H673 0.930 . S
Gd658 N678 2.622 . S
Gd658 N685 2.570 . S
Gd658 O692 2.353 . S
Gd658 O693 2.468 . S
Gd658 O694 2.427 . S
Gd658 O696 2.388 . S
Gd658 O697 2.386 . S
Gd658 O701 2.307 . S
Gd658 C711 2.805 . S
Gd659 N654 2.622 . S
Gd659 N660 2.570 . S
Gd659 O691 2.386 . S
Gd659 O695 2.307 . S
Gd659 O698 2.353 . S
Gd659 O699 2.468 . S
Gd659 O700 2.427 . S
Gd659 O702 2.388 . S
Gd659 C723 2.805 . S
N660 C650 1.359 . S
N660 Gd659 2.570 . S
N660 C662 1.343 . S
C661 C649 1.422 1_554 S
C661 C663 1.321 . S
C661 H669 0.931 . S
C662 N660 1.343 . S
C662 C663 1.390 1_556 S
C662 H664 0.931 . S
C663 C661 1.321 . S
C663 C662 1.390 1_554 S
C663 H665 0.930 . S
H664 C662 0.931 . S
H665 C663 0.930 . S
H666 C689 0.931 . S
H667 C655 0.929 . S
H668 C690 0.930 . S
H669 C661 0.931 . S
H670 C651 0.930 . S
H671 C680 0.929 . S
H672 C656 0.931 . S
H673 C657 0.930 . S
H674 C712 0.930 . S
H675 C653 0.929 . S
H676 C681 0.931 . S
H677 C682 0.930 . S
N678 Gd658 2.622 . S
N678 C679 1.369 . S
N678 C680 1.338 . S
C679 N678 1.369 . S
C679 C683 1.415 . S
C679 C686 1.422 . S
C680 H671 0.929 . S
C680 N678 1.338 . S
C680 C682 1.378 . S
C681 H676 0.931 . S
C681 C682 1.348 . S
C681 C683 1.413 . S
C682 H677 0.930 . S
C682 C680 1.378 . S
C682 C681 1.348 . S
C683 C679 1.415 . S
C683 C681 1.413 . S
C683 C713 1.437 . S
H684 C713 0.929 . S
N685 Gd658 2.570 . S
N685 C686 1.359 . S
N685 C689 1.343 . S
C686 C679 1.422 . S
C686 N685 1.359 . S
C686 C688 1.421 . S
C687 C688 1.422 . S
C687 C690 1.321 . S
C687 H714 0.931 . S
C688 C686 1.421 . S
C688 C687 1.422 . S
C688 C712 1.417 . S
C689 H666 0.931 . S
C689 N685 1.343 . S
C689 C690 1.390 . S
C690 H668 0.930 . S
C690 C687 1.321 . S
C690 C689 1.390 . S
O691 Gd659 2.386 . S
O691 C703 1.265 . S
O692 Gd658 2.353 . S
O692 C703 1.242 . S
O693 Gd658 2.468 . S
O693 C711 1.263 . S
O694 Gd658 2.427 . S
O694 C711 1.252 . S
O695 Gd659 2.307 . S
O695 C704 1.261 . S
O696 Gd658 2.388 . S
O696 C704 1.252 . S
O697 Gd658 2.386 . S
O697 C715 1.265 . S
O698 Gd659 2.353 . S
O698 C715 1.242 . S
O699 Gd659 2.468 . S
O699 C723 1.263 . S
O700 Gd659 2.427 . S
O700 C723 1.252 . S
O701 Gd658 2.307 . S
O701 C716 1.261 . S
O702 Gd659 2.388 . S
O702 C716 1.252 . S
C703 O691 1.265 . S
C703 O692 1.242 . S
C704 O695 1.261 . S
C704 O696 1.252 . S
C705 C708 1.394 . S
C705 C710 1.370 . S
C705 C711 1.500 . S
C706 C709 1.383 . S
C706 C710 1.395 . S
C707 C708 1.396 . S
C707 C709 1.365 . S
C707 H724 0.929 . S
C708 C705 1.394 . S
C708 C707 1.396 . S
C708 H725 0.930 . S
C709 C706 1.383 . S
C709 C707 1.365 . S
C709 H726 0.931 . S
C710 C705 1.370 . S
C710 C706 1.395 . S
C710 H727 0.930 . S
C711 Gd658 2.805 . S
C711 O693 1.263 . S
C711 O694 1.252 . S
C711 C705 1.500 . S
C712 H674 0.930 . S
C712 C688 1.417 . S
C712 C713 1.329 . S
C713 C683 1.437 . S
C713 H684 0.929 . S
C713 C712 1.329 . S
H714 C687 0.931 . S
C715 O697 1.265 . S
C715 O698 1.242 . S
C716 O701 1.261 . S
C716 O702 1.252 . S
C717 C720 1.394 . S
C717 C722 1.370 . S
C717 C723 1.500 . S
C718 C721 1.383 . S
C718 C722 1.395 . S
C719 C720 1.396 . S
C719 C721 1.365 . S
C719 H728 0.929 . S
C720 C717 1.394 . S
C720 C719 1.396 . S
C720 H729 0.930 . S
C721 C718 1.383 . S
C721 C719 1.365 . S
C721 H730 0.931 . S
C722 C717 1.370 . S
C722 C718 1.395 . S
C722 H731 0.930 . S
C723 Gd659 2.805 . S
C723 O699 1.263 . S
C723 O700 1.252 . S
C723 C717 1.500 . S
H724 C707 0.929 . S
H725 C708 0.930 . S
H726 C709 0.931 . S
H727 C710 0.930 . S
H728 C719 0.929 . S
H729 C720 0.930 . S
H730 C721 0.931 . S
H731 C722 0.930 . S
C732 C734 1.422 . S
C732 C736 1.415 . S
C732 N738 1.369 1_455 S
C733 C734 1.421 . S
C733 C735 1.417 1_556 S
C733 C745 1.422 1_556 S
C734 C732 1.422 . S
C734 C733 1.421 . S
C734 N744 1.359 . S
C735 C733 1.417 1_554 S
C735 C737 1.329 1_554 S
C735 H754 0.930 . S
C736 C732 1.415 . S
C736 C737 1.437 . S
C736 C740 1.413 . S
C737 C735 1.329 1_556 S
C737 C736 1.437 . S
C737 H759 0.929 . S
N738 C732 1.369 1_655 S
N738 C739 1.338 . S
N738 Gd743 2.622 . S
C739 N738 1.338 . S
C739 C741 1.378 1_655 S
C739 H751 0.929 . S
C740 C736 1.413 . S
C740 C741 1.348 . S
C740 H756 0.931 . S
C741 C739 1.378 1_455 S
C741 C740 1.348 . S
C741 H757 0.930 . S
Gd742 N762 2.622 . S
Gd742 N769 2.570 . S
Gd742 O776 2.353 . S
Gd742 O777 2.468 . S
Gd742 O778 2.427 . S
Gd742 O780 2.388 . S
Gd742 O781 2.386 1_455 S
Gd742 O785 2.307 . S
Gd742 C795 2.805 . S
Gd743 N738 2.622 . S
Gd743 N744 2.570 1_655 S
Gd743 O775 2.386 1_655 S
Gd743 O779 2.307 . S
Gd743 O782 2.353 . S
Gd743 O783 2.468 . S
Gd743 O784 2.427 . S
Gd743 O786 2.388 . S
Gd743 C807 2.805 . S
N744 C734 1.359 . S
N744 Gd743 2.570 1_455 S
N744 C746 1.343 . S
C745 C733 1.422 1_554 S
C745 C747 1.321 . S
C745 H753 0.931 . S
C746 N744 1.343 . S
C746 C747 1.390 1_556 S
C746 H748 0.926 1_455 S
C747 C745 1.321 . S
C747 C746 1.390 1_554 S
C747 H749 0.930 . S
H748 C746 0.926 1_655 S
H749 C747 0.930 . S
H750 C773 0.931 . S
H751 C739 0.929 . S
H752 C774 0.930 . S
H753 C745 0.931 . S
H754 C735 0.930 . S
H755 C764 0.929 . S
H756 C740 0.931 . S
H757 C741 0.930 . S
H758 C796 0.930 . S
H759 C737 0.929 . S
H760 C765 0.931 . S
H761 C766 0.930 . S
N762 Gd742 2.622 . S
N762 C763 1.355 1_455 S
N762 C764 1.338 . S
C763 N762 1.355 1_655 S
C763 C767 1.427 . S
C763 C770 1.426 . S
C764 H755 0.929 . S
C764 N762 1.338 . S
C764 C766 1.378 . S
C765 H760 0.931 . S
C765 C766 1.348 1_655 S
C765 C767 1.413 . S
C766 H761 0.930 . S
C766 C764 1.378 . S
C766 C765 1.348 1_455 S
C767 C763 1.427 . S
C767 C765 1.413 . S
C767 C797 1.437 . S
H768 C797 0.929 . S
N769 Gd742 2.570 . S
N769 C770 1.359 1_455 S
N769 C773 1.343 . S
C770 C763 1.426 . S
C770 N769 1.359 1_655 S
C770 C772 1.421 . S
C771 C772 1.422 . S
C771 C774 1.321 . S
C771 H798 0.931 . S
C772 C770 1.421 . S
C772 C771 1.422 . S
C772 C796 1.417 . S
C773 H750 0.931 . S
C773 N769 1.343 . S
C773 C774 1.390 1_455 S
C774 H752 0.930 . S
C774 C771 1.321 . S
C774 C773 1.390 1_655 S
O775 Gd743 2.386 1_455 S
O775 C787 1.265 . S
O776 Gd742 2.353 . S
O776 C787 1.242 . S
O777 Gd742 2.468 . S
O777 C795 1.263 . S
O778 Gd742 2.427 . S
O778 C795 1.252 . S
O779 Gd743 2.307 . S
O779 C788 1.261 1_655 S
O780 Gd742 2.388 . S
O780 C788 1.252 . S
O781 Gd742 2.386 1_655 S
O781 C799 1.265 . S
O782 Gd743 2.353 . S
O782 C799 1.242 . S
O783 Gd743 2.468 . S
O783 C807 1.263 . S
O784 Gd743 2.427 . S
O784 C807 1.252 . S
O785 Gd742 2.307 . S
O785 C800 1.261 . S
O786 Gd743 2.388 . S
O786 C800 1.252 1_655 S
C787 O775 1.265 . S
C787 O776 1.242 . S
C788 O779 1.261 1_455 S
C788 O780 1.252 . S
C789 C792 1.394 . S
C789 C794 1.370 . S
C789 C795 1.500 . S
C790 C793 1.383 . S
C790 C794 1.395 . S
C791 C792 1.396 . S
C791 C793 1.365 . S
C791 H808 0.929 . S
C792 C789 1.394 . S
C792 C791 1.396 . S
C792 H809 0.930 . S
C793 C790 1.383 . S
C793 C791 1.365 . S
C793 H810 0.931 . S
C794 C789 1.370 . S
C794 C790 1.395 . S
C794 H811 0.930 . S
C795 Gd742 2.805 . S
C795 O777 1.263 . S
C795 O778 1.252 . S
C795 C789 1.500 . S
C796 H758 0.930 . S
C796 C772 1.417 . S
C796 C797 1.329 . S
C797 C767 1.437 . S
C797 H768 0.929 . S
C797 C796 1.329 . S
H798 C771 0.931 . S
C799 O781 1.265 . S
C799 O782 1.242 . S
C800 O785 1.261 . S
C800 O786 1.252 1_455 S
C801 C804 1.394 . S
C801 C806 1.370 . S
C801 C807 1.500 . S
C802 C805 1.383 . S
C802 C806 1.395 . S
C803 C804 1.396 . S
C803 C805 1.365 . S
C803 H812 0.929 . S
C804 C801 1.394 . S
C804 C803 1.396 . S
C804 H813 0.930 . S
C805 C802 1.383 . S
C805 C803 1.365 . S
C805 H814 0.931 . S
C806 C801 1.370 . S
C806 C802 1.395 . S
C806 H815 0.930 . S
C807 Gd743 2.805 . S
C807 O783 1.263 . S
C807 O784 1.252 . S
C807 C801 1.500 . S
H808 C791 0.929 . S
H809 C792 0.930 . S
H810 C793 0.931 . S
H811 C794 0.930 . S
H812 C803 0.929 . S
H813 C804 0.930 . S
H814 C805 0.931 . S
H815 C806 0.930 . S
C816 C817 1.387 . S
C816 H820 0.950 1_545 S
C816 C825 1.386 1_545 S
C817 C816 1.387 . S
C817 C819 1.387 . S
H818 C825 0.976 . S
C819 C817 1.387 . S
C819 C821 1.390 . S
C819 H823 0.950 . S
H820 C816 0.950 1_565 S
C821 C819 1.390 . S
C821 C822 1.387 . S
C821 H824 0.950 . S
C822 C821 1.387 . S
C822 C825 1.366 1_545 S
H823 C819 0.950 . S
H824 C821 0.950 . S
C825 C816 1.386 1_565 S
C825 H818 0.976 . S
C825 C822 1.366 1_565 S
C826 C827 1.387 . S
C826 H830 0.950 . S
C826 C835 1.390 . S
C827 C826 1.387 . S
C827 C829 1.387 . S
H828 C835 0.950 . S
C829 C827 1.387 . S
C829 C831 1.390 . S
C829 H833 0.950 . S
H830 C826 0.950 . S
C831 C829 1.390 . S
C831 C832 1.387 . S
C831 H834 0.950 . S
C832 C831 1.387 . S
C832 C835 1.387 . S
H833 C829 0.950 . S
H834 C831 0.950 . S
C835 C826 1.390 . S
C835 H828 0.950 . S
C835 C832 1.387 . S
C836 C837 1.387 . S
C836 H840 0.950 . S
C836 C845 1.390 . S
C837 C836 1.387 . S
C837 C839 1.387 . S
H838 C845 0.950 . S
C839 C837 1.387 . S
C839 C841 1.390 . S
C839 H843 0.950 . S
H840 C836 0.950 . S
C841 C839 1.390 . S
C841 C842 1.387 . S
C841 H844 0.950 . S
C842 C841 1.387 . S
C842 C845 1.387 . S
H843 C839 0.950 . S
H844 C841 0.950 . S
C845 C836 1.390 . S
C845 H838 0.950 . S
C845 C842 1.387 . S
C846 C847 1.387 . S
C846 H850 0.950 . S
C846 C855 1.390 . S
C847 C846 1.387 . S
C847 C849 1.387 . S
H848 C855 0.950 . S
C849 C847 1.387 . S
C849 C851 1.390 . S
C849 H853 0.950 . S
H850 C846 0.950 . S
C851 C849 1.390 . S
C851 C852 1.387 . S
C851 H854 0.950 . S
C852 C851 1.387 . S
C852 C855 1.387 . S
H853 C849 0.950 . S
H854 C851 0.950 . S
C855 C846 1.390 . S
C855 H848 0.950 . S
C855 C852 1.387 . S
C856 C857 1.387 . S
C856 H860 0.950 . S
C856 C865 1.390 1_554 S
C857 C856 1.387 . S
C857 C859 1.387 1_565 S
H858 C865 0.950 . S
C859 C857 1.387 1_545 S
C859 C861 1.390 1_554 S
C859 H863 0.950 . S
H860 C856 0.950 . S
C861 C859 1.390 1_556 S
C861 C862 1.387 1_545 S
C861 H864 0.950 . S
C862 C861 1.387 1_565 S
C862 C865 1.387 . S
H863 C859 0.950 . S
H864 C861 0.950 . S
C865 C856 1.390 1_556 S
C865 H858 0.950 . S
C865 C862 1.387 . S
C866 C867 1.387 . S
C866 H870 0.950 . S
C866 C875 1.390 1_554 S
C867 C866 1.387 . S
C867 C869 1.387 . S
H868 C875 0.950 . S
C869 C867 1.387 . S
C869 C871 1.390 1_554 S
C869 H873 0.950 . S
H870 C866 0.950 . S
C871 C869 1.390 1_556 S
C871 C872 1.387 . S
C871 H874 0.950 . S
C872 C871 1.387 . S
C872 C875 1.387 . S
H873 C869 0.950 . S
H874 C871 0.950 . S
C875 C866 1.390 1_556 S
C875 H868 0.950 . S
C875 C872 1.387 . S
C876 C877 1.387 . S
C876 H880 0.950 . S
C876 C885 1.390 1_554 S
C877 C876 1.387 . S
C877 C879 1.387 . S
H878 C885 0.950 . S
C879 C877 1.387 . S
C879 C881 1.390 1_554 S
C879 H883 0.950 . S
H880 C876 0.950 . S
C881 C879 1.390 1_556 S
C881 C882 1.387 . S
C881 H884 0.950 . S
C882 C881 1.387 . S
C882 C885 1.387 . S
H883 C879 0.950 . S
H884 C881 0.950 . S
C885 C876 1.390 1_556 S
C885 H878 0.950 . S
C885 C882 1.387 . S
C886 C887 1.387 . S
C886 H890 0.950 . S
C886 C895 1.390 1_554 S
C887 C886 1.387 . S
C887 C889 1.387 . S
H888 C895 0.950 . S
C889 C887 1.387 . S
C889 C891 1.390 1_554 S
C889 H893 0.950 . S
H890 C886 0.950 . S
C891 C889 1.390 1_556 S
C891 C892 1.387 . S
C891 H894 0.942 1_655 S
C892 C891 1.387 . S
C892 C895 1.387 . S
H893 C889 0.950 . S
H894 C891 0.942 1_455 S
C895 C886 1.390 1_556 S
C895 H888 0.950 . S
C895 C892 1.387 . S
C896 C897 1.387 . S
C896 H900 0.950 . S
C896 C905 1.390 . S
C897 C896 1.387 . S
C897 C899 1.387 . S
H898 C905 0.959 . S
C899 C897 1.387 . S
C899 C901 1.393 . S
C899 H903 0.950 . S
H900 C896 0.950 . S
C901 C899 1.393 . S
C901 C902 1.387 1_455 S
C901 H904 0.948 1_455 S
C902 C901 1.387 1_655 S
C902 C905 1.387 1_655 S
H903 C899 0.950 . S
H904 C901 0.948 1_655 S
C905 C896 1.390 . S
C905 H898 0.959 . S
C905 C902 1.387 1_455 S
C906 C907 1.387 . S
C906 H910 0.950 . S
C906 C915 1.390 1_545 S
C907 C906 1.387 . S
C907 C909 1.387 . S
H908 C915 0.950 . S
C909 C907 1.387 . S
C909 C911 1.390 . S
C909 H913 0.950 . S
H910 C906 0.950 . S
C911 C909 1.390 . S
C911 C912 1.387 1_545 S
C911 H914 0.950 . S
C912 C911 1.387 1_565 S
C912 C915 1.387 . S
H913 C909 0.950 . S
H914 C911 0.950 . S
C915 C906 1.390 1_565 S
C915 H908 0.950 . S
C915 C912 1.387 . S
C916 C917 1.387 . S
C916 H920 0.950 . S
C916 C925 1.390 . S
C917 C916 1.387 . S
C917 C919 1.387 . S
H918 C925 0.950 . S
C919 C917 1.387 . S
C919 C921 1.390 . S
C919 H923 0.950 . S
H920 C916 0.950 . S
C921 C919 1.390 . S
C921 C922 1.387 . S
C921 H924 0.950 . S
C922 C921 1.387 . S
C922 C925 1.387 . S
H923 C919 0.950 . S
H924 C921 0.950 . S
C925 C916 1.390 . S
C925 H918 0.950 . S
C925 C922 1.387 . S
C926 C927 1.387 . S
C926 H930 0.950 . S
C926 C935 1.390 . S
C927 C926 1.387 . S
C927 C929 1.387 . S
H928 C935 0.950 . S
C929 C927 1.387 . S
C929 C931 1.390 . S
C929 H933 0.950 . S
H930 C926 0.950 . S
C931 C929 1.390 . S
C931 C932 1.387 . S
C931 H934 0.950 . S
C932 C931 1.387 . S
C932 C935 1.387 . S
H933 C929 0.950 . S
H934 C931 0.950 . S
C935 C926 1.390 . S
C935 H928 0.950 . S
C935 C932 1.387 . S
C936 C937 1.387 1_556 S
C936 H940 0.950 . S
C936 C945 1.390 1_655 S
C937 C936 1.387 1_554 S
C937 C939 1.387 . S
H938 C945 0.950 . S
C939 C937 1.387 . S
C939 C941 1.390 1_655 S
C939 H943 0.950 . S
H940 C936 0.950 . S
C941 C939 1.390 1_455 S
C941 C942 1.387 1_554 S
C941 H944 0.950 . S
C942 C941 1.387 1_556 S
C942 C945 1.387 . S
H943 C939 0.950 . S
H944 C941 0.950 . S
C945 C936 1.390 1_455 S
C945 H938 0.950 . S
C945 C942 1.387 . S
C946 C947 1.359 1_545 S
C946 H950 0.955 . S
C946 C955 1.414 . S
C947 C946 1.359 1_565 S
C947 C949 1.387 1_554 S
H948 C955 0.950 . S
C949 C947 1.387 1_556 S
C949 C951 1.390 . S
C949 H953 0.950 . S
H950 C946 0.955 . S
C951 C949 1.390 . S
C951 C952 1.387 1_565 S
C951 H954 0.950 . S
C952 C951 1.387 1_545 S
C952 C955 1.387 1_556 S
H953 C949 0.950 . S
H954 C951 0.950 . S
C955 C946 1.414 . S
C955 H948 0.950 . S
C955 C952 1.387 1_554 S
C956 C957 1.387 . S
C956 H960 0.950 . S
C956 C965 1.390 . S
C957 C956 1.387 . S
C957 C959 1.387 1_554 S
H958 C965 0.950 . S
C959 C957 1.387 1_556 S
C959 C961 1.390 . S
C959 H963 0.950 . S
H960 C956 0.950 . S
C961 C959 1.390 . S
C961 C962 1.387 . S
C961 H964 0.950 . S
C962 C961 1.387 . S
C962 C965 1.387 1_556 S
H963 C959 0.950 . S
H964 C961 0.950 . S
C965 C956 1.390 . S
C965 H958 0.950 . S
C965 C962 1.387 1_554 S
C966 C967 1.387 1_556 S
C966 H970 0.950 . S
C966 C975 1.390 . S
C967 C966 1.387 1_554 S
C967 C969 1.387 . S
H968 C975 0.950 . S
C969 C967 1.387 . S
C969 C971 1.390 . S
C969 H973 0.950 . S
H970 C966 0.950 . S
C971 C969 1.390 . S
C971 C972 1.387 1_554 S
C971 H974 0.950 . S
C972 C971 1.387 1_556 S
C972 C975 1.387 . S
H973 C969 0.950 . S
H974 C971 0.950 . S
C975 C966 1.390 . S
C975 H968 0.950 . S
C975 C972 1.387 . S
C976 C977 1.387 . S
C976 H980 0.950 . S
C976 C985 1.390 . S
C977 C976 1.387 . S
C977 C979 1.387 . S
H978 C985 0.950 . S
C979 C977 1.387 . S
C979 C981 1.390 . S
C979 H983 0.950 . S
H980 C976 0.950 . S
C981 C979 1.390 . S
C981 C982 1.387 . S
C981 H984 0.950 . S
C982 C981 1.387 . S
C982 C985 1.387 . S
H983 C979 0.950 . S
H984 C981 0.950 . S
C985 C976 1.390 . S
C985 H978 0.950 . S
C985 C982 1.387 . S
C986 C987 1.387 . S
C986 H990 0.950 . S
C986 C995 1.390 . S
C987 C986 1.387 . S
C987 C989 1.387 . S
H988 C995 0.950 . S
C989 C987 1.387 . S
C989 C991 1.390 . S
C989 H993 0.950 . S
H990 C986 0.950 . S
C991 C989 1.390 . S
C991 C992 1.387 . S
C991 H994 0.950 . S
C992 C991 1.387 . S
C992 C995 1.387 . S
H993 C989 0.950 . S
H994 C991 0.950 . S
C995 C986 1.390 . S
C995 H988 0.950 . S
C995 C992 1.387 . S
C996 C997 1.387 . S
C996 H1000 0.950 . S
C996 C1005 1.390 . S
C997 C996 1.387 . S
C997 C999 1.387 . S
H998 C1005 0.950 . S
C999 C997 1.387 . S
C999 C1001 1.390 . S
C999 H1003 0.950 . S
H1000 C996 0.950 . S
C1001 C999 1.390 . S
C1001 C1002 1.387 . S
C1001 H1004 0.950 . S
C1002 C1001 1.387 . S
C1002 C1005 1.387 . S
H1003 C999 0.950 . S
H1004 C1001 0.950 . S
C1005 C996 1.390 . S
C1005 H998 0.950 . S
C1005 C1002 1.387 . S
C1006 C1007 1.387 . S
C1006 H1010 0.950 . S
C1006 C1015 1.390 . S
C1007 C1006 1.387 . S
C1007 C1009 1.387 . S
H1008 C1015 0.950 . S
C1009 C1007 1.387 . S
C1009 C1011 1.390 . S
C1009 H1013 0.950 . S
H1010 C1006 0.950 . S
C1011 C1009 1.390 . S
C1011 C1012 1.387 . S
C1011 H1014 0.950 . S
C1012 C1011 1.387 . S
C1012 C1015 1.387 . S
H1013 C1009 0.950 . S
H1014 C1011 0.950 . S
C1015 C1006 1.390 . S
C1015 H1008 0.950 . S
C1015 C1012 1.387 . S
C1016 C1017 1.387 . S
C1016 H1020 0.950 1_655 S
C1016 C1025 1.390 1_655 S
C1017 C1016 1.387 . S
C1017 C1019 1.387 . S
H1018 C1025 0.950 . S
C1019 C1017 1.387 . S
C1019 C1021 1.390 . S
C1019 H1023 0.950 . S
H1020 C1016 0.950 1_455 S
C1021 C1019 1.390 . S
C1021 C1022 1.387 . S
C1021 H1024 0.950 . S
C1022 C1021 1.387 . S
C1022 C1025 1.387 1_655 S
H1023 C1019 0.950 . S
H1024 C1021 0.950 . S
C1025 C1016 1.390 1_455 S
C1025 H1018 0.950 . S
C1025 C1022 1.387 1_455 S
C1026 C1027 1.387 1_545 S
C1026 H1030 0.950 . S
C1026 C1035 1.390 . S
C1027 C1026 1.387 1_565 S
C1027 C1029 1.387 . S
H1028 C1035 0.950 . S
C1029 C1027 1.387 . S
C1029 C1031 1.390 . S
C1029 H1033 0.950 . S
H1030 C1026 0.950 . S
C1031 C1029 1.390 . S
C1031 C1032 1.387 . S
C1031 H1034 0.950 . S
C1032 C1031 1.387 . S
C1032 C1035 1.387 1_565 S
H1033 C1029 0.950 . S
H1034 C1031 0.950 . S
C1035 C1026 1.390 . S
C1035 H1028 0.950 . S
C1035 C1032 1.387 1_545 S
C1036 C1037 1.387 . S
C1036 H1040 0.950 . S
C1036 C1045 1.390 . S
C1037 C1036 1.387 . S
C1037 C1039 1.387 . S
H1038 C1045 0.950 . S
C1039 C1037 1.387 . S
C1039 C1041 1.390 . S
C1039 H1043 0.950 . S
H1040 C1036 0.950 . S
C1041 C1039 1.390 . S
C1041 C1042 1.387 . S
C1041 H1044 0.950 . S
C1042 C1041 1.387 . S
C1042 C1045 1.387 . S
H1043 C1039 0.950 . S
H1044 C1041 0.950 . S
C1045 C1036 1.390 . S
C1045 H1038 0.950 . S
C1045 C1042 1.387 . S
C1046 C1047 1.387 . S
C1046 H1050 0.950 . S
C1046 C1055 1.390 . S
C1047 C1046 1.387 . S
C1047 C1049 1.387 . S
H1048 C1055 0.950 . S
C1049 C1047 1.387 . S
C1049 C1051 1.390 . S
C1049 H1053 0.950 . S
H1050 C1046 0.950 . S
C1051 C1049 1.390 . S
C1051 C1052 1.387 . S
C1051 H1054 0.950 . S
C1052 C1051 1.387 . S
C1052 C1055 1.387 . S
H1053 C1049 0.950 . S
H1054 C1051 0.950 . S
C1055 C1046 1.390 . S
C1055 H1048 0.950 . S
C1055 C1052 1.387 . S
C817 C391 2.754 . S
C822 C548 2.844 . S
C832 C631 2.842 . S
C827 C451 2.764 . S
C842 C716 2.850 . S
C837 C241 2.356 . S
C852 C800 2.824 . S
C847 C331 2.334 . S
C862 C536 2.843 1_565 S
C857 C121 2.391 . S
C867 C211 2.729 . S
C872 C619 2.841 . S
C877 C31 2.726 . S
C882 C704 2.850 . S
C887 C91 2.374 . S
C892 C788 2.826 1_655 S
C902 C538 0.780 . S
C897 C301 0.767 . S
C912 C634 0.766 . S
C907 C380 0.768 . S
C922 C706 0.802 . S
C917 C440 0.800 . S
C927 C260 0.760 . S
C932 C790 0.771 . S
C937 C61 0.769 . S
C942 C550 0.781 . S
C952 C622 0.773 . S
C947 C140 0.764 . S
C962 C718 0.803 . S
C957 C200 0.788 . S
C967 C20 0.760 . S
C972 C802 0.774 . S
C977 C320 3.070 . S
C982 C535 3.307 . S
C987 C361 2.682 . S
C992 C620 3.409 . S
C1002 C703 3.330 . S
C997 C421 2.698 . S
C1012 C787 3.331 . S
C1007 C271 3.095 . S
C1017 C80 3.091 . S
C1022 C547 3.308 . S
C1032 C632 3.409 . S
C1027 C151 3.094 . S
C1042 C715 3.331 . S
C1037 C181 2.676 . S
C1047 C1 2.678 . S
C1052 C799 3.330 . S
