# Generated by pormake.
# Topology ssa, (4,4)-cn, num edge types: 1
# Building blocks:
#     Node 0, Type 0, BuildingBlock: NAWXER_clean_sbu_0, # of connection points: 4
#     Node 1, Type 0, BuildingBlock: NAWXER_clean_sbu_0, # of connection points: 4
#     Node 2, Type 0, BuildingBlock: NAWXER_clean_sbu_0, # of connection points: 4
#     Node 3, Type 0, BuildingBlock: NAWXER_clean_sbu_0, # of connection points: 4
#     Node 4, Type 0, BuildingBlock: NAWXER_clean_sbu_0, # of connection points: 4
#     Node 5, Type 0, BuildingBlock: NAWXER_clean_sbu_0, # of connection points: 4
#     Node 6, Type 1, BuildingBlock: KUFVIS_clean_linker_0, # of connection points: 4
#     Node 7, Type 1, BuildingBlock: KUFVIS_clean_linker_0, # of connection points: 4
#     Node 8, Type 1, BuildingBlock: KUFVIS_clean_linker_0, # of connection points: 4
#     Node 9, Type 1, BuildingBlock: KUFVIS_clean_linker_0, # of connection points: 4
#     Node 10, Type 1, BuildingBlock: KUFVIS_clean_linker_0, # of connection points: 4
#     Node 11, Type 1, BuildingBlock: KUFVIS_clean_linker_0, # of connection points: 4
#     Edge 12, Type (0, 1), BuildingBlock: UVAHIK_clean_linker_0, # of connection points: 2
#     Edge 13, Type (0, 1), BuildingBlock: UVAHIK_clean_linker_0, # of connection points: 2
#     Edge 14, Type (0, 1), BuildingBlock: UVAHIK_clean_linker_0, # of connection points: 2
#     Edge 15, Type (0, 1), BuildingBlock: UVAHIK_clean_linker_0, # of connection points: 2
#     Edge 16, Type (0, 1), BuildingBlock: UVAHIK_clean_linker_0, # of connection points: 2
#     Edge 17, Type (0, 1), BuildingBlock: UVAHIK_clean_linker_0, # of connection points: 2
#     Edge 18, Type (0, 1), BuildingBlock: UVAHIK_clean_linker_0, # of connection points: 2
#     Edge 19, Type (0, 1), BuildingBlock: UVAHIK_clean_linker_0, # of connection points: 2
#     Edge 20, Type (0, 1), BuildingBlock: UVAHIK_clean_linker_0, # of connection points: 2
#     Edge 21, Type (0, 1), BuildingBlock: UVAHIK_clean_linker_0, # of connection points: 2
#     Edge 22, Type (0, 1), BuildingBlock: UVAHIK_clean_linker_0, # of connection points: 2
#     Edge 23, Type (0, 1), BuildingBlock: UVAHIK_clean_linker_0, # of connection points: 2
#     Edge 24, Type (0, 1), BuildingBlock: UVAHIK_clean_linker_0, # of connection points: 2
#     Edge 25, Type (0, 1), BuildingBlock: UVAHIK_clean_linker_0, # of connection points: 2
#     Edge 26, Type (0, 1), BuildingBlock: UVAHIK_clean_linker_0, # of connection points: 2
#     Edge 27, Type (0, 1), BuildingBlock: UVAHIK_clean_linker_0, # of connection points: 2
#     Edge 28, Type (0, 1), BuildingBlock: UVAHIK_clean_linker_0, # of connection points: 2
#     Edge 29, Type (0, 1), BuildingBlock: UVAHIK_clean_linker_0, # of connection points: 2
#     Edge 30, Type (0, 1), BuildingBlock: UVAHIK_clean_linker_0, # of connection points: 2
#     Edge 31, Type (0, 1), BuildingBlock: UVAHIK_clean_linker_0, # of connection points: 2
#     Edge 32, Type (0, 1), BuildingBlock: UVAHIK_clean_linker_0, # of connection points: 2
#     Edge 33, Type (0, 1), BuildingBlock: UVAHIK_clean_linker_0, # of connection points: 2
#     Edge 34, Type (0, 1), BuildingBlock: UVAHIK_clean_linker_0, # of connection points: 2
#     Edge 35, Type (0, 1), BuildingBlock: UVAHIK_clean_linker_0, # of connection points: 2
# Relax obj value: 0.007
# Max RMSD: 0.057
# Mean RMSD: 0.038
data_MOF--net-ssa--node1-NAWXER_clean_sbu_0--node2-KUFVIS_clean_linker_0--edge1-UVAHIK_clean_linker_0
_symmetry_space_group_name_H-M    P1
_symmetry_Int_Tables_number       1
_symmetry_cell_setting            triclinic
loop_
_symmetry_equiv_pos_as_xyz
'x, y, z'
_cell_length_a     67.167296
_cell_length_b     67.220223
_cell_length_c     36.666148
_cell_angle_alpha  90.038468
_cell_angle_beta   89.924331
_cell_angle_gamma 119.96039
loop_
_atom_site_label
_atom_site_type_symbol
_atom_site_fract_x
_atom_site_fract_y
_atom_site_fract_z
_atom_type_partial_charge
C0 C 0.04399 0.55162 0.98742 0.0
C1 C 0.9885 0.47246 0.95339 0.0
O2 O 0.03076 0.53957 0.01356 0.0
Zn3 Zn 1.00384 0.50515 0.02381 0.0
O4 O 0.04237 0.54246 0.95637 0.0
Zn5 Zn 0.01717 0.51219 0.96914 0.0
O6 O 0.98993 0.5192 0.98019 0.0
O7 O 0.97832 0.50968 0.03723 0.0
O8 O 1.00349 0.48795 0.93282 0.0
O9 O 0.98737 0.477 0.98701 0.0
O10 O 0.01794 0.4945 0.05942 0.0
O11 O 0.03388 0.50027 0.00498 0.0
C12 C 0.97661 0.51754 0.00653 0.0
C13 C 0.03291 0.49428 0.03838 0.0
C14 C 0.49078 0.02443 0.54865 0.0
C15 C 0.52071 0.97682 0.50029 0.0
O16 O 0.4932 0.00923 0.56538 0.0
Zn17 Zn 0.50547 1.00009 0.52481 0.0
O18 O 0.49673 0.0287 0.51511 0.0
Zn19 Zn 0.51138 0.01739 0.47407 0.0
O20 O 0.48781 0.00577 0.43712 0.0
O21 O 0.47738 0.98448 0.4869 0.0
O22 O 0.52139 0.9914 0.47696 0.0
O23 O 0.51227 0.97564 0.53181 0.0
O24 O 0.53926 0.02944 0.51757 0.0
O25 O 0.54017 0.04519 0.4642 0.0
C26 C 0.47286 0.98834 0.45457 0.0
C27 C 0.55011 0.04512 0.49362 0.0
C28 C 0.50322 0.47928 0.95819 0.0
C29 C 0.53141 0.55722 0.00542 0.0
O30 O 0.50374 0.49584 0.94051 0.0
Zn31 Zn 0.51697 0.51864 0.9798 0.0
O32 O 0.51011 0.48234 0.9913 0.0
Zn33 Zn 0.52366 0.50821 0.03189 0.0
O34 O 0.49915 0.49544 0.0683 0.0
O35 O 0.48919 0.5056 0.01734 0.0
O36 O 0.53248 0.54341 0.02838 0.0
O37 O 0.52329 0.55011 0.97369 0.0
O38 O 0.55045 0.52228 0.98593 0.0
O39 O 0.55298 0.50998 0.0407 0.0
C40 C 0.48419 0.49726 0.0496 0.0
C41 C 0.56193 0.51819 0.00977 0.0
C42 C 0.05555 0.55704 0.49191 0.0
C43 C 1.00165 0.48009 0.53816 0.0
O44 O 0.05544 0.54923 0.52354 0.0
Zn45 Zn 0.0284 0.51909 0.5172 0.0
O46 O 0.03998 0.54437 0.46884 0.0
Zn47 Zn 0.01116 0.51027 0.46537 0.0
O48 O 0.98473 0.51447 0.4581 0.0
O49 O 1.00081 0.52605 0.51225 0.0
O50 O 0.9981 0.48341 0.505 0.0
O51 O 0.01735 0.49652 0.5565 0.0
O52 O 0.04043 0.50346 0.47901 0.0
O53 O 0.02113 0.49683 0.42746 0.0
C54 C 0.98536 0.52329 0.48909 0.0
C55 C 0.03648 0.49575 0.44629 0.0
C56 C 0.52727 0.98461 0.03904 0.0
C57 C 0.50957 0.04166 0.99065 0.0
O58 O 0.52635 1.00055 0.05621 0.0
Zn59 Zn 0.51866 0.0135 0.01516 0.0
O60 O 0.52352 0.98247 0.00462 0.0
Zn61 Zn 0.51449 0.99863 0.96266 0.0
O62 O 0.54023 0.00949 0.92968 0.0
O63 O 0.54915 0.02846 0.98176 0.0
O64 O 0.50914 0.02782 0.96603 0.0
O65 O 0.5141 0.03925 0.02346 0.0
O66 O 0.48453 0.98672 0.0025 0.0
O67 O 0.48483 0.97338 0.94754 0.0
C68 C 0.55502 0.02537 0.94986 0.0
C69 C 0.47399 0.97272 0.97635 0.0
C70 C 0.56113 0.52119 0.49914 0.0
C71 C 0.48205 0.49521 0.46055 0.0
O72 O 0.54805 0.52114 0.52469 0.0
Zn73 Zn 0.51282 0.51164 0.53299 0.0
O74 O 0.55298 0.51403 0.46744 0.0
Zn75 Zn 0.52184 0.50731 0.47846 0.0
O76 O 0.52682 0.54065 0.4913 0.0
O77 O 0.51527 0.54052 0.54789 0.0
O78 O 0.49832 0.49688 0.44059 0.0
O79 O 0.48565 0.50001 0.49454 0.0
O80 O 0.50204 0.48612 0.56693 0.0
O81 O 0.51033 0.47799 0.51271 0.0
C82 C 0.5236 0.55107 0.518 0.0
C83 C 0.50346 0.47196 0.54556 0.0
H84 H 0.30277 0.44474 0.25247 0.0
H85 H 0.25193 0.45647 0.3018 0.0
H86 H 0.24523 0.43499 0.18858 0.0
H87 H 0.22553 0.45403 0.18519 0.0
H88 H 0.1627 0.44063 0.23623 0.0
H89 H 0.21357 0.4362 0.30007 0.0
C90 C 0.2865 0.44443 0.25037 0.0
C91 C 0.275 0.43935 0.21701 0.0
C92 C 0.27811 0.45032 0.28078 0.0
C93 C 0.25772 0.45112 0.27814 0.0
C94 C 0.24514 0.44522 0.24504 0.0
C95 C 0.25425 0.43958 0.21437 0.0
C96 C 0.22249 0.44452 0.24267 0.0
C97 C 0.21474 0.44887 0.20926 0.0
C98 C 0.19295 0.44686 0.2069 0.0
C99 C 0.17914 0.44123 0.23789 0.0
C100 C 0.18681 0.43804 0.27149 0.0
C101 C 0.20828 0.43939 0.27389 0.0
H102 H 0.72089 0.16444 0.71083 0.0
H103 H 0.77715 0.20879 0.7799 0.0
H104 H 0.77455 0.22744 0.66737 0.0
H105 H 0.81219 0.24598 0.67189 0.0
H106 H 0.86249 0.2969 0.74229 0.0
H107 H 0.79815 0.24654 0.78751 0.0
C108 C 0.73719 0.18011 0.71478 0.0
C109 C 0.74712 0.19507 0.68541 0.0
C110 C 0.74768 0.18519 0.74907 0.0
C111 C 0.76874 0.20562 0.75368 0.0
C112 C 0.77911 0.22128 0.72442 0.0
C113 C 0.76766 0.21584 0.69032 0.0
C114 C 0.80204 0.24269 0.72921 0.0
C115 C 0.81699 0.25302 0.69907 0.0
C116 C 0.83866 0.27258 0.70382 0.0
C117 C 0.84585 0.28154 0.73869 0.0
C118 C 0.83139 0.27207 0.7687 0.0
C119 C 0.80938 0.253 0.76403 0.0
H120 H 0.55221 0.70638 0.26935 0.0
H121 H 0.55383 0.76307 0.21325 0.0
H122 H 0.54137 0.75464 0.32971 0.0
H123 H 0.56059 0.79263 0.32912 0.0
H124 H 0.54642 0.84158 0.27929 0.0
H125 H 0.53408 0.78201 0.21851 0.0
C126 C 0.5511 0.72193 0.27007 0.0
C127 C 0.54727 0.72965 0.30336 0.0
C128 C 0.55297 0.73362 0.23751 0.0
C129 C 0.5514 0.7537 0.2384 0.0
C130 C 0.54766 0.76198 0.27176 0.0
C131 C 0.54494 0.74924 0.30391 0.0
C132 C 0.54727 0.7841 0.27353 0.0
C133 C 0.55429 0.79762 0.30573 0.0
C134 C 0.55382 0.81818 0.30773 0.0
C135 C 0.54663 0.82556 0.27761 0.0
C136 C 0.53963 0.8127 0.24547 0.0
C137 C 0.54 0.79201 0.24333 0.0
H138 H 0.85274 0.54324 0.75592 0.0
H139 H 0.79524 0.54034 0.81085 0.0
H140 H 0.79363 0.5303 0.69376 0.0
H141 H 0.76919 0.54288 0.69437 0.0
H142 H 0.70759 0.52898 0.74993 0.0
H143 H 0.75822 0.52047 0.80727 0.0
C144 C 0.8357 0.54124 0.75489 0.0
C145 C 0.82475 0.53786 0.72114 0.0
C146 C 0.82479 0.54142 0.78731 0.0
C147 C 0.8027 0.5387 0.7857 0.0
C148 C 0.79083 0.53463 0.75216 0.0
C149 C 0.8021 0.53379 0.71995 0.0
C150 C 0.7672 0.53199 0.75096 0.0
C151 C 0.75884 0.53702 0.71885 0.0
C152 C 0.73726 0.53555 0.71841 0.0
C153 C 0.72396 0.52943 0.75017 0.0
C154 C 0.73173 0.52445 0.78237 0.0
C155 C 0.75303 0.52527 0.78244 0.0
H156 H 0.18408 0.70173 0.23232 0.0
H157 H 0.22724 0.76145 0.16905 0.0
H158 H 0.24203 0.75843 0.28326 0.0
H159 H 0.2582 0.79629 0.27941 0.0
H160 H 0.30877 0.84986 0.21226 0.0
H161 H 0.26463 0.78426 0.16473 0.0
C162 C 0.19904 0.71877 0.23044 0.0
C163 C 0.21222 0.72901 0.26166 0.0
C164 C 0.20469 0.73031 0.19698 0.0
C165 C 0.22385 0.75244 0.19477 0.0
C166 C 0.23784 0.76312 0.22554 0.0
C167 C 0.23168 0.75106 0.2591 0.0
C168 C 0.25826 0.78692 0.22246 0.0
C169 C 0.26631 0.80183 0.25299 0.0
C170 C 0.2846 0.82446 0.24945 0.0
C171 C 0.29452 0.83244 0.21515 0.0
C172 C 0.28707 0.81813 0.18465 0.0
C173 C 0.26952 0.79526 0.18849 0.0
H174 H 0.4549 0.29686 0.74586 0.0
H175 H 0.44314 0.24192 0.81807 0.0
H176 H 0.46571 0.24321 0.70659 0.0
H177 H 0.44512 0.20513 0.71294 0.0
H178 H 0.44959 0.15769 0.78539 0.0
H179 H 0.46225 0.22255 0.82689 0.0
C180 C 0.45422 0.2806 0.75072 0.0
C181 C 0.46014 0.27066 0.72252 0.0
C182 C 0.44843 0.27056 0.78527 0.0
C183 C 0.4482 0.24981 0.79141 0.0
C184 C 0.45398 0.23921 0.76309 0.0
C185 C 0.46034 0.2502 0.72862 0.0
C186 C 0.45311 0.21672 0.76932 0.0
C187 C 0.4482 0.20111 0.74019 0.0
C188 C 0.44703 0.17993 0.74596 0.0
C189 C 0.44999 0.17387 0.7811 0.0
C190 C 0.45531 0.18908 0.81028 0.0
C191 C 0.45727 0.21063 0.80431 0.0
C192 C 0.06444 0.48554 0.02696 0.0
C193 C 0.04993 0.48812 0.05188 0.0
C194 C 0.08157 0.48117 0.03913 0.0
C195 C 0.11729 0.48804 0.11919 0.0
H196 H 0.12895 0.44375 0.06993 0.0
C197 C 0.19134 0.47519 0.16552 0.0
C198 C 0.18432 0.45222 0.17354 0.0
C199 C 0.17758 0.48058 0.14377 0.0
C200 C 0.12597 0.45625 0.08384 0.0
H201 H 0.04182 0.48769 0.10921 0.0
H202 H 0.07182 0.47995 0.13058 0.0
H203 H 0.09801 0.44995 0.04858 0.0
H204 H 0.15858 0.41687 0.16329 0.0
H205 H 0.13476 0.42613 0.12469 0.0
H206 H 0.14479 0.49393 0.15505 0.0
C207 C 0.06999 0.48155 0.10155 0.0
C208 C 0.10831 0.45987 0.07156 0.0
C209 C 0.0527 0.4858 0.08932 0.0
C210 C 0.16453 0.4347 0.15679 0.0
C211 C 0.15084 0.44005 0.1349 0.0
C212 C 0.13502 0.48453 0.13133 0.0
C213 C 0.08472 0.47936 0.07656 0.0
C214 C 0.10362 0.47563 0.08934 0.0
C215 C 0.15661 0.46304 0.12971 0.0
C216 C 0.13944 0.46844 0.11402 0.0
H217 H 0.0628 0.48719 -0.00212 0.0
H218 H 0.09273 0.47978 0.0192 0.0
H219 H 0.11433 0.50053 0.13317 0.0
H220 H 0.20632 0.48896 0.17875 0.0
H221 H 0.18264 0.49845 0.13979 0.0
C222 C 0.58915 0.0562 0.51568 0.0
C223 C 0.57409 0.06276 0.50085 0.0
C224 C 0.61116 0.07273 0.52665 0.0
C225 C 0.65376 0.13605 0.52729 0.0
H226 H 0.67394 0.11888 0.61476 0.0
C227 C 0.72075 0.19525 0.63763 0.0
C228 C 0.73571 0.18771 0.64966 0.0
C229 C 0.70436 0.1829 0.61068 0.0
C230 C 0.66868 0.12385 0.59006 0.0
H231 H 0.57021 0.09157 0.48466 0.0
H232 H 0.60831 0.12073 0.5059 0.0
H233 H 0.63836 0.09126 0.586 0.0
H234 H 0.74665 0.16274 0.64162 0.0
H235 H 0.71811 0.14121 0.59463 0.0
H236 H 0.68387 0.16941 0.53355 0.0
C237 C 0.60353 0.10283 0.50797 0.0
C238 C 0.64829 0.10793 0.57328 0.0
C239 C 0.58165 0.08617 0.49594 0.0
C240 C 0.73543 0.16896 0.63236 0.0
C241 C 0.71905 0.15661 0.60571 0.0
C242 C 0.67408 0.15224 0.5447 0.0
C243 C 0.61839 0.09631 0.52437 0.0
C244 C 0.64055 0.11364 0.54145 0.0
C245 C 0.70267 0.16281 0.59593 0.0
C246 C 0.68175 0.14613 0.57606 0.0
H247 H 0.58375 0.03819 0.51923 0.0
H248 H 0.6223 0.06691 0.53775 0.0
H249 H 0.64852 0.14111 0.50273 0.0
H250 H 0.72047 0.20944 0.65115 0.0
H251 H 0.69178 0.18788 0.60377 0.0
C252 C 0.52606 0.59163 0.00816 0.0
C253 C 0.53866 0.58085 0.01751 0.0
C254 C 0.53043 0.612 0.02574 0.0
C255 C 0.55513 0.64187 0.11306 0.0
H256 H 0.54748 0.69086 0.07237 0.0
C257 C 0.5741 0.71884 0.20089 0.0
C258 C 0.55641 0.72415 0.20306 0.0
C259 C 0.57448 0.70507 0.17273 0.0
C260 C 0.54964 0.67726 0.08403 0.0
H261 H 0.56693 0.58378 0.04989 0.0
H262 H 0.57534 0.61964 0.07899 0.0
H263 H 0.54371 0.65968 0.03275 0.0
H264 H 0.5262 0.72072 0.17614 0.0
H265 H 0.52674 0.69637 0.1266 0.0
H266 H 0.5609 0.6591 0.16413 0.0
C267 C 0.56141 0.61206 0.05946 0.0
C268 C 0.54742 0.65937 0.06141 0.0
C269 C 0.55676 0.5916 0.04253 0.0
C270 C 0.5401 0.71695 0.17489 0.0
C271 C 0.5404 0.70301 0.14662 0.0
C272 C 0.5575 0.65969 0.13539 0.0
C273 C 0.54769 0.62202 0.05257 0.0
C274 C 0.55028 0.64149 0.07567 0.0
C275 C 0.55705 0.69613 0.14619 0.0
C276 C 0.55492 0.67768 0.12124 0.0
H277 H 0.5119 0.58358 0.98908 0.0
H278 H 0.51948 0.61913 0.01974 0.0
H279 H 0.55667 0.62808 0.12545 0.0
H280 H 0.58698 0.72434 0.22216 0.0
H281 H 0.58782 0.70049 0.17271 0.0
C282 C 0.97361 0.54719 0.52458 0.0
C283 C 0.9676 0.52881 0.50056 0.0
C284 C 0.95667 0.55005 0.54177 0.0
C285 C 0.89379 0.52972 0.54641 0.0
H286 H 0.90872 0.54618 0.64813 0.0
C287 C 0.8291 0.52099 0.66217 0.0
C288 C 0.83771 0.53907 0.68758 0.0
C289 C 0.84332 0.52078 0.6342 0.0
C290 C 0.90434 0.54182 0.61969 0.0
H291 H 0.93922 0.49967 0.47407 0.0
H292 H 0.90936 0.50418 0.50513 0.0
H293 H 0.93657 0.54417 0.60869 0.0
H294 H 0.86704 0.57195 0.70185 0.0
H295 H 0.89164 0.57166 0.65325 0.0
H296 H 0.86102 0.52674 0.55845 0.0
C297 C 0.92721 0.51669 0.51014 0.0
C298 C 0.92039 0.54077 0.59692 0.0
C299 C 0.94429 0.51409 0.49231 0.0
C300 C 0.86011 0.55762 0.683 0.0
C301 C 0.87419 0.55742 0.65524 0.0
C302 C 0.87752 0.5306 0.56949 0.0
C303 C 0.93323 0.53423 0.53615 0.0
C304 C 0.91555 0.53504 0.55983 0.0
C305 C 0.86628 0.53864 0.63135 0.0
C306 C 0.88281 0.53697 0.60628 0.0
H307 H 0.99147 0.55892 0.53113 0.0
H308 H 0.96201 0.56422 0.56064 0.0
H309 H 0.88945 0.52523 0.51802 0.0
H310 H 0.8119 0.50648 0.66517 0.0
H311 H 0.83677 0.50608 0.61617 0.0
C312 C 0.43461 0.96124 -0.00264 0.0
C313 C 0.44978 0.95503 0.9818 0.0
C314 C 0.41308 0.94443 0.00988 0.0
C315 C 0.37232 0.88085 0.01619 0.0
H316 H 0.35721 0.89905 0.10779 0.0
C317 C 0.31162 0.82029 0.13144 0.0
C318 C 0.2981 0.82791 0.14914 0.0
C319 C 0.32665 0.83343 0.10331 0.0
C320 C 0.36096 0.89375 0.08198 0.0
H321 H 0.45424 0.92656 0.96556 0.0
H322 H 0.41697 0.897 0.98907 0.0
H323 H 0.39004 0.92679 0.07324 0.0
H324 H 0.28795 0.85382 0.14954 0.0
H325 H 0.31387 0.87655 0.10038 0.0
H326 H 0.34352 0.8472 0.02674 0.0
C327 C 0.42126 0.91479 0.99062 0.0
C328 C 0.37979 0.90974 0.06191 0.0
C329 C 0.44264 0.93169 0.97714 0.0
C330 C 0.29832 0.84768 0.13633 0.0
C331 C 0.3132 0.86072 0.10837 0.0
C332 C 0.35352 0.86464 0.03673 0.0
C333 C 0.40655 0.921 0.00841 0.0
C334 C 0.38573 0.90366 0.02859 0.0
C335 C 0.32828 0.85432 0.09274 0.0
C336 C 0.34762 0.87104 0.06973 0.0
H337 H 0.43975 0.97917 0.00103 0.0
H338 H 0.40195 0.94993 0.02214 0.0
H339 H 0.37628 0.87552 0.99063 0.0
H340 H 0.31183 0.80517 0.14111 0.0
H341 H 0.33814 0.82815 0.09177 0.0
C342 C 0.50217 0.43457 0.53499 0.0
C343 C 0.49803 0.44883 0.55815 0.0
C344 C 0.49783 0.41301 0.54668 0.0
C345 C 0.46463 0.36747 0.61344 0.0
H346 H 0.51035 0.34933 0.5959 0.0
C347 C 0.48865 0.30149 0.68279 0.0
C348 C 0.46635 0.28285 0.68735 0.0
C349 C 0.49275 0.31913 0.6584 0.0
C350 C 0.49737 0.3541 0.60077 0.0
H351 H 0.48582 0.45142 0.61172 0.0
H352 H 0.47812 0.41359 0.63218 0.0
H353 H 0.51676 0.38626 0.57303 0.0
H354 H 0.43126 0.26686 0.66831 0.0
H355 H 0.43844 0.29733 0.62487 0.0
H356 H 0.44555 0.33575 0.64213 0.0
C357 C 0.48467 0.41916 0.60484 0.0
C358 C 0.50098 0.37519 0.58757 0.0
C359 C 0.48917 0.44087 0.59321 0.0
C360 C 0.44868 0.28091 0.66467 0.0
C361 C 0.45273 0.29853 0.64032 0.0
C362 C 0.46095 0.34636 0.62639 0.0
C363 C 0.48908 0.40506 0.58174 0.0
C364 C 0.48479 0.38224 0.59425 0.0
C365 C 0.47451 0.31842 0.63848 0.0
C366 C 0.47739 0.33954 0.62061 0.0
H367 H 0.50899 0.44012 0.50776 0.0
H368 H 0.50115 0.40246 0.52812 0.0
H369 H 0.45173 0.3723 0.61867 0.0
H370 H 0.50238 0.30356 0.7007 0.0
H371 H 0.50969 0.33424 0.65778 0.0
C372 C 0.54713 0.96873 0.46375 0.0
C373 C 0.52958 0.96146 0.48986 0.0
C374 C 0.55447 0.95383 0.45133 0.0
C375 C 0.54953 0.89637 0.46688 0.0
H376 H 0.56238 0.90154 0.36315 0.0
C377 C 0.54427 0.82491 0.37052 0.0
C378 C 0.5598 0.83221 0.3412 0.0
C379 C 0.54521 0.84087 0.39607 0.0
C380 C 0.55928 0.90008 0.3923 0.0
H381 H 0.50641 0.93317 0.52443 0.0
H382 H 0.51837 0.90659 0.50143 0.0
H383 H 0.55434 0.92897 0.39245 0.0
H384 H 0.58974 0.86109 0.31736 0.0
H385 H 0.59175 0.88886 0.3623 0.0
H386 H 0.55326 0.8664 0.4656 0.0
C387 C 0.52699 0.92403 0.49121 0.0
C388 C 0.5547 0.91591 0.40925 0.0
C389 C 0.52 0.93919 0.50427 0.0
C390 C 0.57769 0.8551 0.33991 0.0
C391 C 0.57867 0.87099 0.36539 0.0
C392 C 0.55383 0.88024 0.44966 0.0
C393 C 0.544 0.93102 0.46396 0.0
C394 C 0.54975 0.91436 0.44678 0.0
C395 C 0.56166 0.86429 0.39244 0.0
C396 C 0.55878 0.88199 0.41217 0.0
H397 H 0.55511 0.98596 0.45266 0.0
H398 H 0.56812 0.96015 0.43127 0.0
H399 H 0.54601 0.89471 0.49587 0.0
H400 H 0.53014 0.80738 0.37167 0.0
H401 H 0.53184 0.83523 0.41656 0.0
C402 C 0.59706 0.53643 0.97083 0.0
C403 C 0.58459 0.52129 -0.00071 0.0
C404 C 0.61667 0.53706 0.95667 0.0
C405 C 0.64005 0.49949 0.941 0.0
H406 H 0.69355 0.55549 0.90788 0.0
C407 C 0.72806 0.53294 0.84786 0.0
C408 C 0.71799 0.51994 0.81625 0.0
C409 C 0.71437 0.53169 0.87758 0.0
C410 C 0.67894 0.53968 0.91744 0.0
H411 H 0.58337 0.49553 0.03619 0.0
H412 H 0.61764 0.49639 0.01091 0.0
H413 H 0.66565 0.55773 0.9479 0.0
H414 H 0.68599 0.49436 0.79183 0.0
H415 H 0.66211 0.492 0.84372 0.0
H416 H 0.65286 0.48147 0.90927 0.0
C417 C 0.61221 0.50783 -0.00023 0.0
C418 C 0.66288 0.54098 0.94013 0.0
C419 C 0.59272 0.50747 0.01439 0.0
C420 C 0.69417 0.50462 0.81582 0.0
C421 C 0.68054 0.50319 0.84564 0.0
C422 C 0.65601 0.49819 0.918 0.0
C423 C 0.62412 0.52235 0.9703 0.0
C424 C 0.64296 0.52092 0.9514 0.0
C425 C 0.69038 0.51721 0.87642 0.0
C426 C 0.67534 0.51829 0.90523 0.0
H427 H 0.59124 0.54731 0.95866 0.0
H428 H 0.62532 0.54827 0.93375 0.0
H429 H 0.62479 0.48374 0.94902 0.0
H430 H 0.74636 0.54499 0.84881 0.0
H431 H 0.72245 0.54257 0.90104 0.0
C432 C 0.09594 0.59035 0.49674 0.0
C433 C 0.07416 0.57995 0.48017 0.0
C434 C 0.11425 0.61044 0.482 0.0
C435 C 0.15099 0.64015 0.42508 0.0
H436 H 0.14238 0.68866 0.38479 0.0
C437 C 0.19916 0.69362 0.2993 0.0
C438 C 0.20452 0.71663 0.29692 0.0
C439 C 0.18759 0.68034 0.32973 0.0
C440 C 0.14529 0.67552 0.3964 0.0
H441 H 0.05421 0.58314 0.43647 0.0
H442 H 0.08587 0.61817 0.41128 0.0
H443 H 0.11286 0.65961 0.42413 0.0
H444 H 0.20312 0.74416 0.32522 0.0
H445 H 0.18271 0.72086 0.37863 0.0
H446 H 0.18302 0.65556 0.39613 0.0
C447 C 0.08892 0.61086 0.43549 0.0
C448 C 0.12827 0.65875 0.41868 0.0
C449 C 0.07079 0.59067 0.44982 0.0
C450 C 0.19931 0.7265 0.32653 0.0
C451 C 0.18746 0.71311 0.35688 0.0
C452 C 0.16794 0.65682 0.40252 0.0
C453 C 0.11098 0.62072 0.45088 0.0
C454 C 0.13063 0.64052 0.43244 0.0
C455 C 0.1809 0.68969 0.35833 0.0
C456 C 0.16501 0.67435 0.38713 0.0
H457 H 0.09909 0.58243 0.52007 0.0
H458 H 0.13105 0.61772 0.49453 0.0
H459 H 0.15327 0.62626 0.43509 0.0
H460 H 0.203 0.68561 0.2768 0.0
H461 H 0.18264 0.66233 0.32976 0.0
C462 C 0.50184 0.07357 0.00703 0.0
C463 C 0.50541 0.06059 0.98037 0.0
C464 C 0.49809 0.09152 -0.00316 0.0
C465 C 0.50779 0.13137 0.92114 0.0
H466 H 0.45487 0.13359 0.95839 0.0
C467 C 0.44464 0.16158 0.86185 0.0
C468 C 0.46073 0.18245 0.84574 0.0
C469 C 0.45151 0.15133 0.88833 0.0
C470 C 0.46987 0.13336 0.94805 0.0
H471 H 0.50794 0.05642 0.92215 0.0
H472 H 0.50159 0.0877 0.90456 0.0
H473 H 0.46463 0.10581 0.98363 0.0
H474 H 0.49611 0.20995 0.84653 0.0
H475 H 0.50822 0.19211 0.8932 0.0
H476 H 0.51252 0.15807 0.88446 0.0
C477 C 0.50178 0.08408 0.9333 0.0
C478 C 0.47551 0.11754 0.96261 0.0
C479 C 0.50523 0.06602 0.94341 0.0
C480 C 0.48337 0.19395 0.85885 0.0
C481 C 0.49031 0.1836 0.88522 0.0
C482 C 0.50229 0.14727 0.90683 0.0
C483 C 0.49819 0.09705 0.95985 0.0
C484 C 0.4941 0.11591 0.94844 0.0
C485 C 0.47467 0.16167 0.89895 0.0
C486 C 0.48287 0.148 0.91933 0.0
H487 H 0.50185 0.06979 0.03574 0.0
H488 H 0.49538 0.10126 0.01787 0.0
H489 H 0.52239 0.13069 0.91001 0.0
H490 H 0.42713 0.15234 0.85188 0.0
H491 H 0.43904 0.13439 0.89809 0.0
C492 C 0.44151 0.48633 0.46877 0.0
C493 C 0.45926 0.48906 0.44522 0.0
C494 C 0.42046 0.48227 0.45499 0.0
C495 C 0.39396 0.48973 0.37209 0.0
H496 H 0.33684 0.44738 0.42048 0.0
C497 C 0.30886 0.47914 0.32052 0.0
C498 C 0.29199 0.45623 0.3143 0.0
C499 C 0.32774 0.48429 0.3428 0.0
C500 C 0.35263 0.45931 0.4067 0.0
H501 H 0.46853 0.4891 0.38857 0.0
H502 H 0.43149 0.48169 0.36434 0.0
H503 H 0.37311 0.45248 0.44372 0.0
H504 H 0.28059 0.42086 0.32796 0.0
H505 H 0.31324 0.42971 0.36723 0.0
H506 H 0.37347 0.49599 0.33435 0.0
C507 C 0.43409 0.48304 0.39359 0.0
C508 C 0.37345 0.46233 0.42012 0.0
C509 C 0.45524 0.48709 0.40744 0.0
C510 C 0.29317 0.43868 0.33312 0.0
C511 C 0.31198 0.4438 0.3554 0.0
C512 C 0.37316 0.48673 0.35869 0.0
C513 C 0.41653 0.4808 0.41724 0.0
C514 C 0.39436 0.47746 0.40282 0.0
C515 C 0.33005 0.46657 0.35902 0.0
C516 C 0.35221 0.47136 0.37568 0.0
H517 H 0.44395 0.48774 0.49806 0.0
H518 H 0.40747 0.48091 0.47398 0.0
H519 H 0.40975 0.50176 0.35842 0.0
H520 H 0.30849 0.49287 0.30565 0.0
H521 H 0.34117 0.50204 0.34557 0.0
C522 C 0.97191 0.44367 0.90232 0.0
C523 C 0.97175 0.44943 0.93912 0.0
C524 C 0.9554 0.42208 0.88917 0.0
C525 C 0.89736 0.37372 0.90912 0.0
H526 H 0.91461 0.34091 0.84084 0.0
C527 C 0.85831 0.28356 0.82073 0.0
C528 C 0.83975 0.2839 0.8039 0.0
C529 C 0.87243 0.30096 0.84495 0.0
C530 C 0.90952 0.34964 0.86036 0.0
H531 H 0.95424 0.43686 0.99103 0.0
H532 H 0.92572 0.39938 0.96811 0.0
H533 H 0.94406 0.37737 0.86588 0.0
H534 H 0.82023 0.30147 0.80087 0.0
H535 H 0.84477 0.3319 0.84343 0.0
H536 H 0.86274 0.34598 0.90331 0.0
C537 C 0.93839 0.41159 0.94932 0.0
C538 C 0.92638 0.37073 0.87425 0.0
C539 C 0.95487 0.43307 0.96246 0.0
C540 C 0.83419 0.30063 0.8142 0.0
C541 C 0.84837 0.31813 0.83837 0.0
C542 C 0.88044 0.35263 0.89508 0.0
C543 C 0.93837 0.40586 0.91251 0.0
C544 C 0.92049 0.38312 0.89854 0.0
C545 C 0.86834 0.31914 0.85243 0.0
C546 C 0.88631 0.34041 0.87035 0.0
H547 H 0.98462 0.45589 0.88362 0.0
H548 H 0.95571 0.41826 0.86054 0.0
H549 H 0.89223 0.38294 0.92759 0.0
H550 H 0.86306 0.27097 0.81268 0.0
H551 H 0.88742 0.30101 0.85591 0.0
C552 C 0.96378 0.54152 0.97397 0.0
C553 C 0.95917 0.52436 -0.00015 0.0
C554 C 0.94662 0.54614 0.96313 0.0
C555 C 0.88536 0.51664 0.94894 0.0
H556 H 0.89726 0.57753 0.92288 0.0
C557 C 0.82486 0.52855 0.85162 0.0
C558 C 0.83649 0.54374 0.82274 0.0
C559 C 0.83686 0.52835 0.88271 0.0
C560 C 0.8936 0.5604 0.93005 0.0
H561 H 0.93329 0.49916 0.03585 0.0
H562 H 0.90283 0.50692 0.01613 0.0
H563 H 0.92433 0.57327 0.96186 0.0
H564 H 0.86937 0.57177 0.80497 0.0
H565 H 0.89033 0.57122 0.85857 0.0
H566 H 0.85543 0.5037 0.91535 0.0
C567 C 0.91988 0.51691 0.00456 0.0
C568 C 0.90906 0.55798 0.95249 0.0
C569 C 0.93728 0.51255 0.01596 0.0
C570 C 0.86001 0.55967 0.82658 0.0
C571 C 0.87196 0.55951 0.85757 0.0
C572 C 0.86995 0.51905 0.9263 0.0
C573 C 0.92431 0.53348 0.97752 0.0
C574 C 0.90555 0.53607 0.96103 0.0
C575 C 0.8607 0.54341 0.88559 0.0
C576 C 0.87436 0.54097 0.91542 0.0
H577 H 0.98054 0.55095 0.96121 0.0
H578 H 0.95054 0.5588 0.94195 0.0
H579 H 0.88228 0.49953 0.95478 0.0
H580 H 0.80674 0.51603 0.8494 0.0
H581 H 0.82762 0.51592 0.90397 0.0
C582 C 0.44207 0.9791 0.40816 0.0
C583 C 0.45044 0.97228 0.43783 0.0
C584 C 0.42095 0.96374 0.39228 0.0
C585 C 0.36765 0.90667 0.40649 0.0
H586 H 0.36327 0.9096 0.30146 0.0
C587 C 0.30317 0.83325 0.31104 0.0
C588 C 0.29479 0.83997 0.2812 0.0
C589 C 0.31854 0.84973 0.33562 0.0
C590 C 0.36409 0.90875 0.33089 0.0
H591 H 0.44328 0.94403 0.47416 0.0
H592 H 0.40706 0.91697 0.44556 0.0
H593 H 0.39794 0.93772 0.33227 0.0
H594 H 0.29373 0.86855 0.25593 0.0
H595 H 0.32052 0.89725 0.29871 0.0
H596 H 0.33401 0.87673 0.40429 0.0
C597 C 0.4163 0.93435 0.43516 0.0
C598 C 0.38398 0.92497 0.34867 0.0
C599 C 0.43722 0.94984 0.45142 0.0
C600 C 0.30018 0.86299 0.27847 0.0
C601 C 0.31557 0.8794 0.30282 0.0
C602 C 0.34783 0.89017 0.38852 0.0
C603 C 0.40789 0.94103 0.40524 0.0
C604 C 0.38613 0.92417 0.38672 0.0
C605 C 0.32573 0.87311 0.33055 0.0
C606 C 0.34589 0.89108 0.35054 0.0
H607 H 0.45175 0.99637 0.39737 0.0
H608 H 0.41487 0.96974 0.36985 0.0
H609 H 0.36846 0.90566 0.43587 0.0
H610 H 0.29937 0.81565 0.31362 0.0
H611 H 0.32614 0.84444 0.35679 0.0
C612 C 0.50143 0.44145 0.95835 0.0
C613 C 0.49524 0.45643 0.94168 0.0
C614 C 0.49364 0.41949 0.94461 0.0
C615 C 0.44817 0.37331 0.89166 0.0
H616 H 0.49294 0.35352 0.87861 0.0
C617 C 0.43145 0.29388 0.80782 0.0
C618 C 0.4448 0.28353 0.81475 0.0
C619 C 0.43404 0.31226 0.82907 0.0
C620 C 0.48004 0.35846 0.8829 0.0
H621 H 0.47594 0.46002 0.89741 0.0
H622 H 0.46201 0.42109 0.87324 0.0
H623 H 0.5053 0.39193 0.90107 0.0
H624 H 0.46906 0.28224 0.85207 0.0
H625 H 0.47281 0.31365 0.89046 0.0
H626 H 0.42283 0.33973 0.8737 0.0
C627 C 0.47296 0.42661 0.89711 0.0
C628 C 0.48722 0.38062 0.8954 0.0
C629 C 0.48105 0.44889 0.9107 0.0
C630 C 0.45861 0.28995 0.84606 0.0
C631 C 0.46104 0.30823 0.86762 0.0
C632 C 0.4409 0.35096 0.87946 0.0
C633 C 0.47929 0.41177 0.91395 0.0
C634 C 0.47141 0.38834 0.89974 0.0
C635 C 0.44985 0.32049 0.85803 0.0
C636 C 0.45679 0.34328 0.87469 0.0
H637 H 0.5124 0.4467 0.98221 0.0
H638 H 0.49865 0.40839 0.95833 0.0
H639 H 0.43558 0.37874 0.89526 0.0
H640 H 0.42049 0.28907 0.78398 0.0
H641 H 0.42506 0.32112 0.82077 0.0
C642 C 0.06086 0.47795 0.45607 0.0
C643 C 0.04976 0.48537 0.43171 0.0
C644 C 0.07439 0.46909 0.44321 0.0
C645 C 0.08806 0.44632 0.36029 0.0
H646 H 0.14456 0.46358 0.41266 0.0
C647 C 0.18058 0.45519 0.32708 0.0
C648 C 0.17296 0.43617 0.30391 0.0
C649 C 0.16493 0.45763 0.3491 0.0
C650 C 0.12888 0.4586 0.39767 0.0
H651 H 0.04381 0.48894 0.37468 0.0
H652 H 0.06814 0.4741 0.35196 0.0
H653 H 0.11839 0.47587 0.43532 0.0
H654 H 0.14373 0.40375 0.28791 0.0
H655 H 0.11652 0.40729 0.32782 0.0
H656 H 0.09919 0.43027 0.32143 0.0
C657 C 0.06598 0.47469 0.38113 0.0
C658 C 0.11369 0.46544 0.41089 0.0
C659 C 0.05212 0.48331 0.39407 0.0
C660 C 0.14997 0.4185 0.30583 0.0
C661 C 0.13436 0.42076 0.32819 0.0
C662 C 0.10335 0.43967 0.34689 0.0
C663 C 0.07749 0.46769 0.4056 0.0
C664 C 0.09318 0.45958 0.39218 0.0
C665 C 0.1414 0.44096 0.34851 0.0
C666 C 0.12409 0.44592 0.36518 0.0
H667 H 0.0591 0.47897 0.48528 0.0
H668 H 0.08246 0.46336 0.46289 0.0
H669 H 0.0723 0.44119 0.34545 0.0
H670 H 0.19816 0.46922 0.3255 0.0
H671 H 0.17102 0.47348 0.36418 0.0
C672 C 0.58657 0.03612 0.90393 0.0
C673 C 0.5786 0.04099 0.9363 0.0
C674 C 0.60843 0.05158 0.89033 0.0
C675 C 0.65057 0.11266 0.88951 0.0
H676 H 0.69162 0.09326 0.84952 0.0
C677 C 0.73234 0.1772 0.81316 0.0
C678 C 0.73577 0.16912 0.77975 0.0
C679 C 0.71702 0.16179 0.839 0.0
C680 C 0.68033 0.09898 0.8604 0.0
H681 H 0.58752 0.06577 0.98009 0.0
H682 H 0.62548 0.09284 0.95599 0.0
H683 H 0.65648 0.0654 0.88068 0.0
H684 H 0.72761 0.13854 0.74867 0.0
H685 H 0.70058 0.11186 0.79282 0.0
H686 H 0.67355 0.14586 0.86775 0.0
C687 C 0.61483 0.07704 0.94124 0.0
C688 C 0.66023 0.083 0.8783 0.0
C689 C 0.59312 0.06147 0.95508 0.0
C690 C 0.72503 0.1453 0.77396 0.0
C691 C 0.70966 0.12995 0.79956 0.0
C692 C 0.6705 0.12857 0.87123 0.0
C693 C 0.62264 0.07235 0.90858 0.0
C694 C 0.64496 0.0896 0.89248 0.0
C695 C 0.7048 0.13801 0.83187 0.0
C696 C 0.68544 0.12186 0.85578 0.0
H697 H 0.57583 0.02049 0.88886 0.0
H698 H 0.61392 0.04762 0.8649 0.0
H699 H 0.63901 0.11819 0.89988 0.0
H700 H 0.7404 0.19546 0.8184 0.0
H701 H 0.7141 0.16859 0.86394 0.0
C702 C 0.54688 0.58921 0.48893 0.0
C703 C 0.52887 0.57493 0.51248 0.0
C704 C 0.55002 0.61052 0.47852 0.0
C705 C 0.51664 0.63757 0.45899 0.0
H706 H 0.57656 0.69105 0.44243 0.0
C707 C 0.52865 0.71118 0.36314 0.0
C708 C 0.54633 0.7173 0.33746 0.0
C709 C 0.527 0.69784 0.3936 0.0
C710 C 0.55968 0.67629 0.44693 0.0
H711 H 0.50051 0.57199 0.54479 0.0
H712 H 0.50567 0.60936 0.5257 0.0
H713 H 0.57309 0.66005 0.4814 0.0
H714 H 0.57683 0.71539 0.32456 0.0
H715 H 0.57381 0.69198 0.37697 0.0
H716 H 0.50339 0.65307 0.42268 0.0
C717 C 0.51749 0.60404 0.51573 0.0
C718 C 0.5577 0.65862 0.46938 0.0
C719 C 0.51462 0.58279 0.52679 0.0
C720 C 0.56284 0.71068 0.34364 0.0
C721 C 0.56126 0.6975 0.374 0.0
C722 C 0.51863 0.65521 0.43631 0.0
C723 C 0.53498 0.6179 0.49092 0.0
C724 C 0.5363 0.63869 0.47449 0.0
C725 C 0.54314 0.69059 0.39908 0.0
C726 C 0.54032 0.67434 0.42884 0.0
H727 H 0.55812 0.58355 0.47756 0.0
H728 H 0.56347 0.62065 0.45904 0.0
H729 H 0.49994 0.62232 0.46221 0.0
H730 H 0.51567 0.71603 0.35901 0.0
H731 H 0.51291 0.69291 0.41254 0.0
C732 C 0.48443 0.04145 0.60534 0.0
C733 C 0.48197 0.03792 0.56747 0.0
C734 C 0.47819 0.05623 0.62221 0.0
C735 C 0.44248 0.08288 0.6138 0.0
H736 H 0.48972 0.13235 0.67136 0.0
C737 C 0.42903 0.14143 0.71601 0.0
C738 C 0.44554 0.16491 0.71537 0.0
C739 C 0.43119 0.12605 0.69292 0.0
C740 C 0.47643 0.11872 0.65513 0.0
H741 H 0.47005 0.04617 0.51784 0.0
H742 H 0.45859 0.07145 0.54756 0.0
H743 H 0.49748 0.10382 0.64362 0.0
H744 H 0.4765 0.19099 0.68905 0.0
H745 H 0.48048 0.16401 0.6489 0.0
H746 H 0.42126 0.09757 0.62618 0.0
C747 C 0.46559 0.06302 0.56404 0.0
C748 C 0.48078 0.10228 0.63965 0.0
C749 C 0.47224 0.04865 0.54707 0.0
C750 C 0.46341 0.173 0.68968 0.0
C751 C 0.4658 0.15757 0.66704 0.0
C752 C 0.43797 0.09911 0.62993 0.0
C753 C 0.46892 0.06731 0.60161 0.0
C754 C 0.46387 0.08423 0.61883 0.0
C755 C 0.45014 0.13389 0.66935 0.0
C756 C 0.45496 0.11723 0.65058 0.0
H757 H 0.49194 0.03347 0.62168 0.0
H758 H 0.48081 0.05919 0.6513 0.0
H759 H 0.42918 0.0691 0.59783 0.0
H760 H 0.41524 0.13483 0.73587 0.0
H761 H 0.41895 0.10787 0.69532 0.0
C762 C 0.44725 0.49745 0.04691 0.0
C763 C 0.4608 0.48952 0.0637 0.0
C764 C 0.42467 0.48948 0.05811 0.0
C765 C 0.37539 0.44135 0.10232 0.0
H766 H 0.35614 0.4859 0.12206 0.0
C767 C 0.29628 0.42189 0.18835 0.0
C768 C 0.28657 0.43608 0.18505 0.0
C769 C 0.31421 0.42494 0.16547 0.0
C770 C 0.36091 0.4731 0.11575 0.0
H771 H 0.46127 0.46699 0.10549 0.0
H772 H 0.42143 0.45282 0.12507 0.0
H773 H 0.395 0.4989 0.10094 0.0
H774 H 0.28569 0.46238 0.15225 0.0
H775 H 0.31629 0.467 0.11091 0.0
H776 H 0.34128 0.41548 0.11705 0.0
C777 C 0.42846 0.46524 0.10314 0.0
C778 C 0.38334 0.48063 0.104 0.0
C779 C 0.45128 0.47349 0.0922 0.0
C780 C 0.29293 0.45124 0.15541 0.0
C781 C 0.31076 0.45416 0.13219 0.0
C782 C 0.3528 0.43374 0.11367 0.0
C783 C 0.41497 0.47318 0.08612 0.0
C784 C 0.39092 0.46489 0.0977 0.0
C785 C 0.3226 0.44209 0.13847 0.0
C786 C 0.34536 0.44956 0.12114 0.0
H787 H 0.45406 0.50984 0.02489 0.0
H788 H 0.41465 0.49581 0.0444 0.0
H789 H 0.38071 0.42882 0.09706 0.0
H790 H 0.29153 0.40995 0.21091 0.0
H791 H 0.32274 0.41525 0.17127 0.0
C792 C 0.97713 0.43783 0.53058 0.0
C793 C 0.9873 0.45697 0.55394 0.0
C794 C 0.96201 0.41601 0.54417 0.0
C795 C 0.92035 0.38783 0.61617 0.0
H796 H 0.92306 0.33339 0.58908 0.0
C797 C 0.84629 0.29843 0.65099 0.0
C798 C 0.8533 0.28594 0.67287 0.0
C799 C 0.86249 0.31727 0.63088 0.0
C800 C 0.92207 0.34845 0.59666 0.0
H801 H 0.99004 0.46822 0.60999 0.0
H802 H 0.96298 0.42985 0.63387 0.0
H803 H 0.95331 0.37131 0.56855 0.0
H804 H 0.88209 0.28186 0.68864 0.0
H805 H 0.91035 0.31434 0.65248 0.0
H806 H 0.88911 0.36508 0.6441 0.0
C807 C 0.96694 0.43188 0.60499 0.0
C808 C 0.93934 0.37009 0.585 0.0
C809 C 0.98247 0.45376 0.59143 0.0
C810 C 0.8763 0.2911 0.67151 0.0
C811 C 0.89244 0.30974 0.65102 0.0
C812 C 0.90293 0.3662 0.62732 0.0
C813 C 0.95641 0.41286 0.58137 0.0
C814 C 0.93868 0.38999 0.59482 0.0
C815 C 0.88587 0.32369 0.63205 0.0
C816 C 0.90362 0.3463 0.61774 0.0
H817 H 0.98065 0.43976 0.50155 0.0
H818 H 0.95404 0.40171 0.52533 0.0
H819 H 0.91929 0.40285 0.62377 0.0
H820 H 0.82872 0.29496 0.6521 0.0
H821 H 0.85697 0.32763 0.61613 0.0
C822 C 0.52541 0.96295 0.09564 0.0
C823 C 0.53085 0.9674 0.0585 0.0
C824 C 0.52626 0.94485 0.11291 0.0
C825 C 0.52694 0.89073 0.0923 0.0
H826 H 0.54111 0.89428 0.19534 0.0
C827 C 0.54538 0.82872 0.18225 0.0
C828 C 0.53254 0.82199 0.21471 0.0
C829 C 0.54354 0.84401 0.15834 0.0
C830 C 0.53706 0.89308 0.16654 0.0
H831 H 0.54244 0.95708 0.01065 0.0
H832 H 0.54505 0.92628 0.04109 0.0
H833 H 0.54366 0.92757 0.1647 0.0
H834 H 0.50619 0.82394 0.24598 0.0
H835 H 0.50312 0.85067 0.20448 0.0
H836 H 0.52117 0.85626 0.0945 0.0
C837 C 0.53926 0.93612 0.05671 0.0
C838 C 0.53836 0.91209 0.14896 0.0
C839 C 0.538 0.95395 0.0393 0.0
C840 C 0.51629 0.82895 0.22113 0.0
C841 C 0.51463 0.84431 0.19758 0.0
C842 C 0.52608 0.87181 0.10985 0.0
C843 C 0.533 0.93103 0.0936 0.0
C844 C 0.53296 0.91111 0.11171 0.0
C845 C 0.52896 0.85274 0.16691 0.0
C846 C 0.53076 0.87276 0.14723 0.0
H847 H 0.51958 0.97285 0.11103 0.0
H848 H 0.5209 0.9413 0.14114 0.0
H849 H 0.52234 0.88913 0.06374 0.0
H850 H 0.55818 0.82376 0.17696 0.0
H851 H 0.55474 0.85035 0.13477 0.0
C852 C 0.59696 0.54756 0.53194 0.0
C853 C 0.5853 0.52896 0.50807 0.0
C854 C 0.61798 0.55249 0.54696 0.0
C855 C 0.66486 0.538 0.5461 0.0
H856 H 0.66509 0.54982 0.64966 0.0
C857 C 0.72128 0.52602 0.65516 0.0
C858 C 0.72824 0.54084 0.68533 0.0
C859 C 0.70785 0.52797 0.62768 0.0
C860 C 0.66563 0.54699 0.62068 0.0
H861 H 0.58694 0.50169 0.47933 0.0
H862 H 0.62357 0.50978 0.50668 0.0
H863 H 0.63432 0.54701 0.61201 0.0
H864 H 0.72847 0.57036 0.70932 0.0
H865 H 0.70573 0.57429 0.66099 0.0
H866 H 0.69605 0.53723 0.55565 0.0
C867 C 0.61669 0.52089 0.51322 0.0
C868 C 0.64791 0.54538 0.59896 0.0
C869 C 0.59573 0.51623 0.49755 0.0
C870 C 0.72319 0.55871 0.68629 0.0
C871 C 0.71002 0.5608 0.65879 0.0
C872 C 0.6827 0.53954 0.56806 0.0
C873 C 0.62757 0.53854 0.53925 0.0
C874 C 0.64726 0.54095 0.56137 0.0
C875 C 0.70129 0.54481 0.63004 0.0
C876 C 0.68328 0.54413 0.60562 0.0
H877 H 0.58934 0.55779 0.54014 0.0
H878 H 0.62621 0.56666 0.56598 0.0
H879 H 0.66489 0.53459 0.51724 0.0
H880 H 0.72487 0.51201 0.65412 0.0
H881 H 0.70135 0.51535 0.60599 0.0
C882 C 0.05736 0.58739 0.02335 0.0
C883 C 0.06123 0.57585 0.99471 0.0
C884 C 0.07443 0.60918 0.03406 0.0
C885 C 0.13645 0.64363 0.03891 0.0
H886 H 0.12243 0.68886 0.07813 0.0
C887 C 0.20034 0.71779 0.13153 0.0
C888 C 0.1903 0.71903 0.16448 0.0
C889 C 0.18652 0.70496 0.10223 0.0
C890 C 0.12667 0.67647 0.06713 0.0
H891 H 0.08567 0.57846 0.95369 0.0
H892 H 0.11595 0.61681 0.97291 0.0
H893 H 0.09423 0.65773 0.04009 0.0
H894 H 0.15809 0.70902 0.19199 0.0
H895 H 0.134 0.68666 0.14113 0.0
H896 H 0.16845 0.66174 0.06743 0.0
C897 C 0.09956 0.60885 0.98693 0.0
C898 C 0.11055 0.65867 0.04532 0.0
C899 C 0.08224 0.58701 0.97582 0.0
C900 C 0.16626 0.70816 0.16701 0.0
C901 C 0.15249 0.69556 0.13771 0.0
C902 C 0.15262 0.66148 0.06072 0.0
C903 C 0.09593 0.61997 0.01661 0.0
C904 C 0.11488 0.64153 0.03224 0.0
C905 C 0.16243 0.69342 0.10524 0.0
C906 C 0.1475 0.67753 0.07627 0.0
H907 H 0.04128 0.57927 0.03828 0.0
H908 H 0.07115 0.61707 0.05732 0.0
H909 H 0.14024 0.6306 0.02948 0.0
H910 H 0.21885 0.72597 0.12893 0.0
H911 H 0.19465 0.7037 0.07748 0.0
loop_
_geom_bond_atom_site_label_1
_geom_bond_atom_site_label_2
_geom_bond_distance
_geom_bond_site_symmetry_2
_ccdc_geom_bond_type
C0 O2 1.247 . S
C0 O4 1.261 . S
C1 O8 1.247 . S
C1 O9 1.258 1_556 S
O2 C0 1.247 . S
O2 Zn3 2.028 1_455 S
Zn3 O2 2.028 1_655 S
Zn3 O7 2.035 . S
Zn3 O9 2.035 . S
Zn3 O10 2.028 1_655 S
O4 C0 1.261 . S
O4 Zn5 2.033 1_554 S
Zn5 O4 2.033 1_556 S
Zn5 O6 2.028 1_455 S
Zn5 O8 2.028 1_455 S
Zn5 O11 2.033 1_556 S
O6 Zn5 2.028 1_655 S
O6 C12 1.247 . S
O7 Zn3 2.035 . S
O7 C12 1.258 1_554 S
O8 C1 1.247 . S
O8 Zn5 2.028 1_655 S
O9 C1 1.258 1_554 S
O9 Zn3 2.035 . S
O10 Zn3 2.028 1_455 S
O10 C13 1.247 . S
O11 Zn5 2.033 1_554 S
O11 C13 1.261 . S
C12 O6 1.247 . S
C12 O7 1.258 1_556 S
C13 O10 1.247 . S
C13 O11 1.261 . S
C14 O16 1.247 . S
C14 O18 1.258 . S
C15 O22 1.247 . S
C15 O23 1.258 . S
O16 C14 1.247 . S
O16 Zn17 2.028 1_545 S
Zn17 O16 2.028 1_565 S
Zn17 O21 2.035 . S
Zn17 O23 2.035 . S
Zn17 O24 2.028 1_565 S
O18 C14 1.258 . S
O18 Zn19 2.035 . S
Zn19 O18 2.035 . S
Zn19 O20 2.028 1_545 S
Zn19 O22 2.028 1_545 S
Zn19 O25 2.035 . S
O20 Zn19 2.028 1_565 S
O20 C26 1.247 . S
O21 Zn17 2.035 . S
O21 C26 1.258 . S
O22 C15 1.247 . S
O22 Zn19 2.028 1_565 S
O23 C15 1.258 . S
O23 Zn17 2.035 . S
O24 Zn17 2.028 1_545 S
O24 C27 1.247 . S
O25 Zn19 2.035 . S
O25 C27 1.258 . S
C26 O20 1.247 . S
C26 O21 1.258 . S
C27 O24 1.247 . S
C27 O25 1.258 . S
C28 O30 1.247 . S
C28 O32 1.258 1_556 S
C29 O36 1.247 . S
C29 O37 1.260 . S
O30 C28 1.247 . S
O30 Zn31 2.028 . S
Zn31 O30 2.028 . S
Zn31 O35 2.034 1_556 S
Zn31 O37 2.034 1_556 S
Zn31 O38 2.028 . S
O32 C28 1.258 1_554 S
O32 Zn33 2.035 . S
Zn33 O32 2.035 . S
Zn33 O34 2.028 . S
Zn33 O36 2.028 . S
Zn33 O39 2.035 . S
O34 Zn33 2.028 . S
O34 C40 1.247 . S
O35 Zn31 2.034 1_554 S
O35 C40 1.260 . S
O36 C29 1.247 . S
O36 Zn33 2.028 . S
O37 C29 1.260 . S
O37 Zn31 2.034 1_554 S
O38 Zn31 2.028 . S
O38 C41 1.247 . S
O39 Zn33 2.035 . S
O39 C41 1.258 1_554 S
C40 O34 1.247 . S
C40 O35 1.260 . S
C41 O38 1.247 . S
C41 O39 1.258 1_556 S
C42 O44 1.247 . S
C42 O46 1.258 . S
C43 O50 1.247 . S
C43 O51 1.258 . S
O44 C42 1.247 . S
O44 Zn45 2.028 . S
Zn45 O44 2.028 . S
Zn45 O49 2.035 1_455 S
Zn45 O51 2.035 1_455 S
Zn45 O52 2.028 . S
O46 C42 1.258 . S
O46 Zn47 2.035 1_455 S
Zn47 O46 2.035 1_655 S
Zn47 O48 2.028 . S
Zn47 O50 2.028 . S
Zn47 O53 2.035 1_655 S
O48 Zn47 2.028 . S
O48 C54 1.247 . S
O49 Zn45 2.035 1_655 S
O49 C54 1.258 . S
O50 C43 1.247 . S
O50 Zn47 2.028 . S
O51 C43 1.258 . S
O51 Zn45 2.035 1_655 S
O52 Zn45 2.028 . S
O52 C55 1.247 . S
O53 Zn47 2.035 1_455 S
O53 C55 1.258 . S
C54 O48 1.247 . S
C54 O49 1.258 . S
C55 O52 1.247 . S
C55 O53 1.258 . S
C56 O58 1.247 . S
C56 O60 1.258 . S
C57 O64 1.247 . S
C57 O65 1.258 1_556 S
O58 C56 1.247 . S
O58 Zn59 2.028 1_565 S
Zn59 O58 2.028 1_545 S
Zn59 O63 2.035 . S
Zn59 O65 2.035 . S
Zn59 O66 2.028 1_545 S
O60 C56 1.258 . S
O60 Zn61 2.035 1_554 S
Zn61 O60 2.035 1_556 S
Zn61 O62 2.028 1_565 S
Zn61 O64 2.028 1_565 S
Zn61 O67 2.035 1_556 S
O62 Zn61 2.028 1_545 S
O62 C68 1.247 . S
O63 Zn59 2.035 . S
O63 C68 1.258 1_554 S
O64 C57 1.247 . S
O64 Zn61 2.028 1_545 S
O65 C57 1.258 1_554 S
O65 Zn59 2.035 . S
O66 Zn59 2.028 1_565 S
O66 C69 1.247 . S
O67 Zn61 2.035 1_554 S
O67 C69 1.258 . S
C68 O62 1.247 . S
C68 O63 1.258 1_556 S
C69 O66 1.247 . S
C69 O67 1.258 . S
C70 O72 1.247 . S
C70 O74 1.258 . S
C71 O78 1.247 . S
C71 O79 1.258 . S
O72 C70 1.247 . S
O72 Zn73 2.028 . S
Zn73 O72 2.028 . S
Zn73 O77 2.035 . S
Zn73 O79 2.035 . S
Zn73 O80 2.028 . S
O74 C70 1.258 . S
O74 Zn75 2.035 . S
Zn75 O74 2.035 . S
Zn75 O76 2.028 . S
Zn75 O78 2.028 . S
Zn75 O81 2.035 . S
O76 Zn75 2.028 . S
O76 C82 1.247 . S
O77 Zn73 2.035 . S
O77 C82 1.258 . S
O78 C71 1.247 . S
O78 Zn75 2.028 . S
O79 C71 1.258 . S
O79 Zn73 2.035 . S
O80 Zn73 2.028 . S
O80 C83 1.247 . S
O81 Zn75 2.035 . S
O81 C83 1.258 . S
C82 O76 1.247 . S
C82 O77 1.258 . S
C83 O80 1.247 . S
C83 O81 1.258 . S
H84 C90 0.930 . S
H85 C93 0.931 . S
H86 C95 0.931 . S
H87 C97 0.930 . S
H88 C99 0.930 . S
H89 C101 0.931 . S
C90 H84 0.930 . S
C90 C91 1.380 . S
C90 C92 1.394 . S
C91 C90 1.380 . S
C91 C95 1.382 . S
C92 C90 1.394 . S
C92 C93 1.400 . S
C93 H85 0.931 . S
C93 C92 1.400 . S
C93 C94 1.375 . S
C94 C93 1.375 . S
C94 C95 1.415 . S
C94 C96 1.501 . S
C95 H86 0.931 . S
C95 C91 1.382 . S
C95 C94 1.415 . S
C96 C94 1.501 . S
C96 C97 1.384 . S
C96 C101 1.408 . S
C97 H87 0.930 . S
C97 C96 1.384 . S
C97 C98 1.389 . S
C98 C97 1.389 . S
C98 C99 1.405 . S
C99 H88 0.930 . S
C99 C98 1.405 . S
C99 C100 1.364 . S
C100 C99 1.364 . S
C100 C101 1.400 . S
C101 H89 0.931 . S
C101 C96 1.408 . S
C101 C100 1.400 . S
H102 C108 0.930 . S
H103 C111 0.931 . S
H104 C113 0.931 . S
H105 C115 0.930 . S
H106 C117 0.930 . S
H107 C119 0.931 . S
C108 H102 0.930 . S
C108 C109 1.380 . S
C108 C110 1.394 . S
C109 C108 1.380 . S
C109 C113 1.382 . S
C110 C108 1.394 . S
C110 C111 1.400 . S
C111 H103 0.931 . S
C111 C110 1.400 . S
C111 C112 1.375 . S
C112 C111 1.375 . S
C112 C113 1.415 . S
C112 C114 1.501 . S
C113 H104 0.931 . S
C113 C109 1.382 . S
C113 C112 1.415 . S
C114 C112 1.501 . S
C114 C115 1.384 . S
C114 C119 1.408 . S
C115 H105 0.930 . S
C115 C114 1.384 . S
C115 C116 1.389 . S
C116 C115 1.389 . S
C116 C117 1.405 . S
C117 H106 0.930 . S
C117 C116 1.405 . S
C117 C118 1.364 . S
C118 C117 1.364 . S
C118 C119 1.400 . S
C119 H107 0.931 . S
C119 C114 1.408 . S
C119 C118 1.400 . S
H120 C126 0.930 . S
H121 C129 0.931 . S
H122 C131 0.931 . S
H123 C133 0.930 . S
H124 C135 0.930 . S
H125 C137 0.931 . S
C126 H120 0.930 . S
C126 C127 1.380 . S
C126 C128 1.394 . S
C127 C126 1.380 . S
C127 C131 1.382 . S
C128 C126 1.394 . S
C128 C129 1.400 . S
C129 H121 0.931 . S
C129 C128 1.400 . S
C129 C130 1.375 . S
C130 C129 1.375 . S
C130 C131 1.415 . S
C130 C132 1.501 . S
C131 H122 0.931 . S
C131 C127 1.382 . S
C131 C130 1.415 . S
C132 C130 1.501 . S
C132 C133 1.384 . S
C132 C137 1.408 . S
C133 H123 0.930 . S
C133 C132 1.384 . S
C133 C134 1.389 . S
C134 C133 1.389 . S
C134 C135 1.405 . S
C135 H124 0.930 . S
C135 C134 1.405 . S
C135 C136 1.364 . S
C136 C135 1.364 . S
C136 C137 1.400 . S
C137 H125 0.931 . S
C137 C132 1.408 . S
C137 C136 1.400 . S
H138 C144 0.930 . S
H139 C147 0.931 . S
H140 C149 0.931 . S
H141 C151 0.930 . S
H142 C153 0.930 . S
H143 C155 0.931 . S
C144 H138 0.930 . S
C144 C145 1.380 . S
C144 C146 1.394 . S
C145 C144 1.380 . S
C145 C149 1.382 . S
C146 C144 1.394 . S
C146 C147 1.400 . S
C147 H139 0.931 . S
C147 C146 1.400 . S
C147 C148 1.375 . S
C148 C147 1.375 . S
C148 C149 1.415 . S
C148 C150 1.501 . S
C149 H140 0.931 . S
C149 C145 1.382 . S
C149 C148 1.415 . S
C150 C148 1.501 . S
C150 C151 1.384 . S
C150 C155 1.408 . S
C151 H141 0.930 . S
C151 C150 1.384 . S
C151 C152 1.389 . S
C152 C151 1.389 . S
C152 C153 1.405 . S
C153 H142 0.930 . S
C153 C152 1.405 . S
C153 C154 1.364 . S
C154 C153 1.364 . S
C154 C155 1.400 . S
C155 H143 0.931 . S
C155 C150 1.408 . S
C155 C154 1.400 . S
H156 C162 0.930 . S
H157 C165 0.931 . S
H158 C167 0.931 . S
H159 C169 0.930 . S
H160 C171 0.930 . S
H161 C173 0.931 . S
C162 H156 0.930 . S
C162 C163 1.380 . S
C162 C164 1.394 . S
C163 C162 1.380 . S
C163 C167 1.382 . S
C164 C162 1.394 . S
C164 C165 1.400 . S
C165 H157 0.931 . S
C165 C164 1.400 . S
C165 C166 1.375 . S
C166 C165 1.375 . S
C166 C167 1.415 . S
C166 C168 1.501 . S
C167 H158 0.931 . S
C167 C163 1.382 . S
C167 C166 1.415 . S
C168 C166 1.501 . S
C168 C169 1.384 . S
C168 C173 1.408 . S
C169 H159 0.930 . S
C169 C168 1.384 . S
C169 C170 1.389 . S
C170 C169 1.389 . S
C170 C171 1.405 . S
C171 H160 0.930 . S
C171 C170 1.405 . S
C171 C172 1.364 . S
C172 C171 1.364 . S
C172 C173 1.400 . S
C173 H161 0.931 . S
C173 C168 1.408 . S
C173 C172 1.400 . S
H174 C180 0.930 . S
H175 C183 0.931 . S
H176 C185 0.931 . S
H177 C187 0.930 . S
H178 C189 0.930 . S
H179 C191 0.931 . S
C180 H174 0.930 . S
C180 C181 1.380 . S
C180 C182 1.394 . S
C181 C180 1.380 . S
C181 C185 1.382 . S
C182 C180 1.394 . S
C182 C183 1.400 . S
C183 H175 0.931 . S
C183 C182 1.400 . S
C183 C184 1.375 . S
C184 C183 1.375 . S
C184 C185 1.415 . S
C184 C186 1.501 . S
C185 H176 0.931 . S
C185 C181 1.382 . S
C185 C184 1.415 . S
C186 C184 1.501 . S
C186 C187 1.384 . S
C186 C191 1.408 . S
C187 H177 0.930 . S
C187 C186 1.384 . S
C187 C188 1.389 . S
C188 C187 1.389 . S
C188 C189 1.405 . S
C189 H178 0.930 . S
C189 C188 1.405 . S
C189 C190 1.364 . S
C190 C189 1.364 . S
C190 C191 1.400 . S
C191 H179 0.931 . S
C191 C186 1.408 . S
C191 C190 1.400 . S
C192 C193 1.349 . S
C192 C194 1.327 . S
C192 H217 0.950 . S
C193 C192 1.349 . S
C193 C209 1.349 . S
C194 C192 1.327 . S
C194 C213 1.429 . S
C194 H218 0.950 . S
C195 C212 1.574 . S
C195 C214 1.368 . S
C195 H219 0.949 . S
H196 C200 0.949 . S
C197 C198 1.349 . S
C197 C199 1.327 . S
C197 H220 0.950 . S
C198 C197 1.349 . S
C198 C210 1.349 . S
C199 C197 1.327 . S
C199 C215 1.429 . S
C199 H221 0.950 . S
C200 H196 0.949 . S
C200 C208 1.574 . S
C200 C216 1.368 . S
H201 C209 0.950 . S
H202 C207 0.950 . S
H203 C208 0.949 . S
H204 C210 0.950 . S
H205 C211 0.950 . S
H206 C212 0.949 . S
C207 H202 0.950 . S
C207 C209 1.327 . S
C207 C213 1.429 . S
C208 C200 1.574 . S
C208 H203 0.949 . S
C208 C214 1.368 . S
C209 C193 1.349 . S
C209 H201 0.950 . S
C209 C207 1.327 . S
C210 C198 1.349 . S
C210 H204 0.950 . S
C210 C211 1.327 . S
C211 H205 0.950 . S
C211 C210 1.327 . S
C211 C215 1.429 . S
C212 C195 1.574 . S
C212 H206 0.949 . S
C212 C216 1.368 . S
C213 C194 1.429 . S
C213 C207 1.429 . S
C213 C214 1.523 . S
C214 C195 1.368 . S
C214 C208 1.368 . S
C214 C213 1.523 . S
C215 C199 1.429 . S
C215 C211 1.429 . S
C215 C216 1.523 . S
C216 C200 1.368 . S
C216 C212 1.368 . S
C216 C215 1.523 . S
H217 C192 0.950 . S
H218 C194 0.950 . S
H219 C195 0.949 . S
H220 C197 0.950 . S
H221 C199 0.950 . S
C222 C223 1.349 . S
C222 C224 1.327 . S
C222 H247 0.950 . S
C223 C222 1.349 . S
C223 C239 1.349 . S
C224 C222 1.327 . S
C224 C243 1.429 . S
C224 H248 0.950 . S
C225 C242 1.574 . S
C225 C244 1.368 . S
C225 H249 0.949 . S
H226 C230 0.949 . S
C227 C228 1.349 . S
C227 C229 1.327 . S
C227 H250 0.950 . S
C228 C227 1.349 . S
C228 C240 1.349 . S
C229 C227 1.327 . S
C229 C245 1.429 . S
C229 H251 0.950 . S
C230 H226 0.949 . S
C230 C238 1.574 . S
C230 C246 1.368 . S
H231 C239 0.950 . S
H232 C237 0.950 . S
H233 C238 0.949 . S
H234 C240 0.950 . S
H235 C241 0.950 . S
H236 C242 0.949 . S
C237 H232 0.950 . S
C237 C239 1.327 . S
C237 C243 1.429 . S
C238 C230 1.574 . S
C238 H233 0.949 . S
C238 C244 1.368 . S
C239 C223 1.349 . S
C239 H231 0.950 . S
C239 C237 1.327 . S
C240 C228 1.349 . S
C240 H234 0.950 . S
C240 C241 1.327 . S
C241 H235 0.950 . S
C241 C240 1.327 . S
C241 C245 1.429 . S
C242 C225 1.574 . S
C242 H236 0.949 . S
C242 C246 1.368 . S
C243 C224 1.429 . S
C243 C237 1.429 . S
C243 C244 1.523 . S
C244 C225 1.368 . S
C244 C238 1.368 . S
C244 C243 1.523 . S
C245 C229 1.429 . S
C245 C241 1.429 . S
C245 C246 1.523 . S
C246 C230 1.368 . S
C246 C242 1.368 . S
C246 C245 1.523 . S
H247 C222 0.950 . S
H248 C224 0.950 . S
H249 C225 0.949 . S
H250 C227 0.950 . S
H251 C229 0.950 . S
C252 C253 1.349 . S
C252 C254 1.327 . S
C252 H277 0.950 . S
C253 C252 1.349 . S
C253 C269 1.349 . S
C254 C252 1.327 . S
C254 C273 1.429 . S
C254 H278 0.950 . S
C255 C272 1.574 . S
C255 C274 1.368 . S
C255 H279 0.949 . S
H256 C260 0.949 . S
C257 C258 1.349 . S
C257 C259 1.327 . S
C257 H280 0.950 . S
C258 C257 1.349 . S
C258 C270 1.349 . S
C259 C257 1.327 . S
C259 C275 1.429 . S
C259 H281 0.950 . S
C260 H256 0.949 . S
C260 C268 1.574 . S
C260 C276 1.368 . S
H261 C269 0.950 . S
H262 C267 0.950 . S
H263 C268 0.949 . S
H264 C270 0.950 . S
H265 C271 0.950 . S
H266 C272 0.949 . S
C267 H262 0.950 . S
C267 C269 1.327 . S
C267 C273 1.429 . S
C268 C260 1.574 . S
C268 H263 0.949 . S
C268 C274 1.368 . S
C269 C253 1.349 . S
C269 H261 0.950 . S
C269 C267 1.327 . S
C270 C258 1.349 . S
C270 H264 0.950 . S
C270 C271 1.327 . S
C271 H265 0.950 . S
C271 C270 1.327 . S
C271 C275 1.429 . S
C272 C255 1.574 . S
C272 H266 0.949 . S
C272 C276 1.368 . S
C273 C254 1.429 . S
C273 C267 1.429 . S
C273 C274 1.523 . S
C274 C255 1.368 . S
C274 C268 1.368 . S
C274 C273 1.523 . S
C275 C259 1.429 . S
C275 C271 1.429 . S
C275 C276 1.523 . S
C276 C260 1.368 . S
C276 C272 1.368 . S
C276 C275 1.523 . S
H277 C252 0.950 . S
H278 C254 0.950 . S
H279 C255 0.949 . S
H280 C257 0.950 . S
H281 C259 0.950 . S
C282 C283 1.349 . S
C282 C284 1.327 . S
C282 H307 0.950 . S
C283 C282 1.349 . S
C283 C299 1.349 . S
C284 C282 1.327 . S
C284 C303 1.429 . S
C284 H308 0.950 . S
C285 C302 1.574 . S
C285 C304 1.368 . S
C285 H309 0.949 . S
H286 C290 0.949 . S
C287 C288 1.349 . S
C287 C289 1.327 . S
C287 H310 0.950 . S
C288 C287 1.349 . S
C288 C300 1.349 . S
C289 C287 1.327 . S
C289 C305 1.429 . S
C289 H311 0.950 . S
C290 H286 0.949 . S
C290 C298 1.574 . S
C290 C306 1.368 . S
H291 C299 0.950 . S
H292 C297 0.950 . S
H293 C298 0.949 . S
H294 C300 0.950 . S
H295 C301 0.950 . S
H296 C302 0.949 . S
C297 H292 0.950 . S
C297 C299 1.327 . S
C297 C303 1.429 . S
C298 C290 1.574 . S
C298 H293 0.949 . S
C298 C304 1.368 . S
C299 C283 1.349 . S
C299 H291 0.950 . S
C299 C297 1.327 . S
C300 C288 1.349 . S
C300 H294 0.950 . S
C300 C301 1.327 . S
C301 H295 0.950 . S
C301 C300 1.327 . S
C301 C305 1.429 . S
C302 C285 1.574 . S
C302 H296 0.949 . S
C302 C306 1.368 . S
C303 C284 1.429 . S
C303 C297 1.429 . S
C303 C304 1.523 . S
C304 C285 1.368 . S
C304 C298 1.368 . S
C304 C303 1.523 . S
C305 C289 1.429 . S
C305 C301 1.429 . S
C305 C306 1.523 . S
C306 C290 1.368 . S
C306 C302 1.368 . S
C306 C305 1.523 . S
H307 C282 0.950 . S
H308 C284 0.950 . S
H309 C285 0.949 . S
H310 C287 0.950 . S
H311 C289 0.950 . S
C312 C313 1.349 . S
C312 C314 1.327 . S
C312 H337 0.950 . S
C313 C312 1.349 . S
C313 C329 1.349 . S
C314 C312 1.327 . S
C314 C333 1.429 . S
C314 H338 0.950 . S
C315 C332 1.574 . S
C315 C334 1.368 . S
C315 H339 0.949 . S
H316 C320 0.949 . S
C317 C318 1.349 . S
C317 C319 1.327 . S
C317 H340 0.950 . S
C318 C317 1.349 . S
C318 C330 1.349 . S
C319 C317 1.327 . S
C319 C335 1.429 . S
C319 H341 0.950 . S
C320 H316 0.949 . S
C320 C328 1.574 . S
C320 C336 1.368 . S
H321 C329 0.950 . S
H322 C327 0.950 . S
H323 C328 0.949 . S
H324 C330 0.950 . S
H325 C331 0.950 . S
H326 C332 0.949 . S
C327 H322 0.950 . S
C327 C329 1.327 . S
C327 C333 1.429 . S
C328 C320 1.574 . S
C328 H323 0.949 . S
C328 C334 1.368 . S
C329 C313 1.349 . S
C329 H321 0.950 . S
C329 C327 1.327 . S
C330 C318 1.349 . S
C330 H324 0.950 . S
C330 C331 1.327 . S
C331 H325 0.950 . S
C331 C330 1.327 . S
C331 C335 1.429 . S
C332 C315 1.574 . S
C332 H326 0.949 . S
C332 C336 1.368 . S
C333 C314 1.429 . S
C333 C327 1.429 . S
C333 C334 1.523 . S
C334 C315 1.368 . S
C334 C328 1.368 . S
C334 C333 1.523 . S
C335 C319 1.429 . S
C335 C331 1.429 . S
C335 C336 1.523 . S
C336 C320 1.368 . S
C336 C332 1.368 . S
C336 C335 1.523 . S
H337 C312 0.950 . S
H338 C314 0.950 . S
H339 C315 0.949 . S
H340 C317 0.950 . S
H341 C319 0.950 . S
C342 C343 1.349 . S
C342 C344 1.327 . S
C342 H367 0.950 . S
C343 C342 1.349 . S
C343 C359 1.349 . S
C344 C342 1.327 . S
C344 C363 1.429 . S
C344 H368 0.950 . S
C345 C362 1.574 . S
C345 C364 1.368 . S
C345 H369 0.949 . S
H346 C350 0.949 . S
C347 C348 1.349 . S
C347 C349 1.327 . S
C347 H370 0.950 . S
C348 C347 1.349 . S
C348 C360 1.349 . S
C349 C347 1.327 . S
C349 C365 1.429 . S
C349 H371 0.950 . S
C350 H346 0.949 . S
C350 C358 1.574 . S
C350 C366 1.368 . S
H351 C359 0.950 . S
H352 C357 0.950 . S
H353 C358 0.949 . S
H354 C360 0.950 . S
H355 C361 0.950 . S
H356 C362 0.949 . S
C357 H352 0.950 . S
C357 C359 1.327 . S
C357 C363 1.429 . S
C358 C350 1.574 . S
C358 H353 0.949 . S
C358 C364 1.368 . S
C359 C343 1.349 . S
C359 H351 0.950 . S
C359 C357 1.327 . S
C360 C348 1.349 . S
C360 H354 0.950 . S
C360 C361 1.327 . S
C361 H355 0.950 . S
C361 C360 1.327 . S
C361 C365 1.429 . S
C362 C345 1.574 . S
C362 H356 0.949 . S
C362 C366 1.368 . S
C363 C344 1.429 . S
C363 C357 1.429 . S
C363 C364 1.523 . S
C364 C345 1.368 . S
C364 C358 1.368 . S
C364 C363 1.523 . S
C365 C349 1.429 . S
C365 C361 1.429 . S
C365 C366 1.523 . S
C366 C350 1.368 . S
C366 C362 1.368 . S
C366 C365 1.523 . S
H367 C342 0.950 . S
H368 C344 0.950 . S
H369 C345 0.949 . S
H370 C347 0.950 . S
H371 C349 0.950 . S
C372 C373 1.349 . S
C372 C374 1.327 . S
C372 H397 0.950 . S
C373 C372 1.349 . S
C373 C389 1.349 . S
C374 C372 1.327 . S
C374 C393 1.429 . S
C374 H398 0.950 . S
C375 C392 1.574 . S
C375 C394 1.368 . S
C375 H399 0.949 . S
H376 C380 0.949 . S
C377 C378 1.349 . S
C377 C379 1.327 . S
C377 H400 0.950 . S
C378 C377 1.349 . S
C378 C390 1.349 . S
C379 C377 1.327 . S
C379 C395 1.429 . S
C379 H401 0.950 . S
C380 H376 0.949 . S
C380 C388 1.574 . S
C380 C396 1.368 . S
H381 C389 0.950 . S
H382 C387 0.950 . S
H383 C388 0.949 . S
H384 C390 0.950 . S
H385 C391 0.950 . S
H386 C392 0.949 . S
C387 H382 0.950 . S
C387 C389 1.327 . S
C387 C393 1.429 . S
C388 C380 1.574 . S
C388 H383 0.949 . S
C388 C394 1.368 . S
C389 C373 1.349 . S
C389 H381 0.950 . S
C389 C387 1.327 . S
C390 C378 1.349 . S
C390 H384 0.950 . S
C390 C391 1.327 . S
C391 H385 0.950 . S
C391 C390 1.327 . S
C391 C395 1.429 . S
C392 C375 1.574 . S
C392 H386 0.949 . S
C392 C396 1.368 . S
C393 C374 1.429 . S
C393 C387 1.429 . S
C393 C394 1.523 . S
C394 C375 1.368 . S
C394 C388 1.368 . S
C394 C393 1.523 . S
C395 C379 1.429 . S
C395 C391 1.429 . S
C395 C396 1.523 . S
C396 C380 1.368 . S
C396 C392 1.368 . S
C396 C395 1.523 . S
H397 C372 0.950 . S
H398 C374 0.950 . S
H399 C375 0.949 . S
H400 C377 0.950 . S
H401 C379 0.950 . S
C402 C403 1.349 . S
C402 C404 1.327 . S
C402 H427 0.950 . S
C403 C402 1.349 . S
C403 C419 1.349 . S
C404 C402 1.327 . S
C404 C423 1.429 . S
C404 H428 0.950 . S
C405 C422 1.574 . S
C405 C424 1.368 . S
C405 H429 0.949 . S
H406 C410 0.949 . S
C407 C408 1.349 . S
C407 C409 1.327 . S
C407 H430 0.950 . S
C408 C407 1.349 . S
C408 C420 1.349 . S
C409 C407 1.327 . S
C409 C425 1.429 . S
C409 H431 0.950 . S
C410 H406 0.949 . S
C410 C418 1.574 . S
C410 C426 1.368 . S
H411 C419 0.950 . S
H412 C417 0.950 . S
H413 C418 0.949 . S
H414 C420 0.950 . S
H415 C421 0.950 . S
H416 C422 0.949 . S
C417 H412 0.950 . S
C417 C419 1.327 . S
C417 C423 1.429 . S
C418 C410 1.574 . S
C418 H413 0.949 . S
C418 C424 1.368 . S
C419 C403 1.349 . S
C419 H411 0.950 . S
C419 C417 1.327 . S
C420 C408 1.349 . S
C420 H414 0.950 . S
C420 C421 1.327 . S
C421 H415 0.950 . S
C421 C420 1.327 . S
C421 C425 1.429 . S
C422 C405 1.574 . S
C422 H416 0.949 . S
C422 C426 1.368 . S
C423 C404 1.429 . S
C423 C417 1.429 . S
C423 C424 1.523 . S
C424 C405 1.368 . S
C424 C418 1.368 . S
C424 C423 1.523 . S
C425 C409 1.429 . S
C425 C421 1.429 . S
C425 C426 1.523 . S
C426 C410 1.368 . S
C426 C422 1.368 . S
C426 C425 1.523 . S
H427 C402 0.950 . S
H428 C404 0.950 . S
H429 C405 0.949 . S
H430 C407 0.950 . S
H431 C409 0.950 . S
C432 C433 1.349 . S
C432 C434 1.327 . S
C432 H457 0.950 . S
C433 C432 1.349 . S
C433 C449 1.349 . S
C434 C432 1.327 . S
C434 C453 1.429 . S
C434 H458 0.950 . S
C435 C452 1.574 . S
C435 C454 1.368 . S
C435 H459 0.949 . S
H436 C440 0.949 . S
C437 C438 1.349 . S
C437 C439 1.327 . S
C437 H460 0.950 . S
C438 C437 1.349 . S
C438 C450 1.349 . S
C439 C437 1.327 . S
C439 C455 1.429 . S
C439 H461 0.950 . S
C440 H436 0.949 . S
C440 C448 1.574 . S
C440 C456 1.368 . S
H441 C449 0.950 . S
H442 C447 0.950 . S
H443 C448 0.949 . S
H444 C450 0.950 . S
H445 C451 0.950 . S
H446 C452 0.949 . S
C447 H442 0.950 . S
C447 C449 1.327 . S
C447 C453 1.429 . S
C448 C440 1.574 . S
C448 H443 0.949 . S
C448 C454 1.368 . S
C449 C433 1.349 . S
C449 H441 0.950 . S
C449 C447 1.327 . S
C450 C438 1.349 . S
C450 H444 0.950 . S
C450 C451 1.327 . S
C451 H445 0.950 . S
C451 C450 1.327 . S
C451 C455 1.429 . S
C452 C435 1.574 . S
C452 H446 0.949 . S
C452 C456 1.368 . S
C453 C434 1.429 . S
C453 C447 1.429 . S
C453 C454 1.523 . S
C454 C435 1.368 . S
C454 C448 1.368 . S
C454 C453 1.523 . S
C455 C439 1.429 . S
C455 C451 1.429 . S
C455 C456 1.523 . S
C456 C440 1.368 . S
C456 C452 1.368 . S
C456 C455 1.523 . S
H457 C432 0.950 . S
H458 C434 0.950 . S
H459 C435 0.949 . S
H460 C437 0.950 . S
H461 C439 0.950 . S
C462 C463 1.349 . S
C462 C464 1.327 . S
C462 H487 0.950 . S
C463 C462 1.349 . S
C463 C479 1.349 . S
C464 C462 1.327 . S
C464 C483 1.429 . S
C464 H488 0.950 . S
C465 C482 1.574 . S
C465 C484 1.368 . S
C465 H489 0.949 . S
H466 C470 0.949 . S
C467 C468 1.349 . S
C467 C469 1.327 . S
C467 H490 0.950 . S
C468 C467 1.349 . S
C468 C480 1.349 . S
C469 C467 1.327 . S
C469 C485 1.429 . S
C469 H491 0.950 . S
C470 H466 0.949 . S
C470 C478 1.574 . S
C470 C486 1.368 . S
H471 C479 0.950 . S
H472 C477 0.950 . S
H473 C478 0.949 . S
H474 C480 0.950 . S
H475 C481 0.950 . S
H476 C482 0.949 . S
C477 H472 0.950 . S
C477 C479 1.327 . S
C477 C483 1.429 . S
C478 C470 1.574 . S
C478 H473 0.949 . S
C478 C484 1.368 . S
C479 C463 1.349 . S
C479 H471 0.950 . S
C479 C477 1.327 . S
C480 C468 1.349 . S
C480 H474 0.950 . S
C480 C481 1.327 . S
C481 H475 0.950 . S
C481 C480 1.327 . S
C481 C485 1.429 . S
C482 C465 1.574 . S
C482 H476 0.949 . S
C482 C486 1.368 . S
C483 C464 1.429 . S
C483 C477 1.429 . S
C483 C484 1.523 . S
C484 C465 1.368 . S
C484 C478 1.368 . S
C484 C483 1.523 . S
C485 C469 1.429 . S
C485 C481 1.429 . S
C485 C486 1.523 . S
C486 C470 1.368 . S
C486 C482 1.368 . S
C486 C485 1.523 . S
H487 C462 0.950 . S
H488 C464 0.950 . S
H489 C465 0.949 . S
H490 C467 0.950 . S
H491 C469 0.950 . S
C492 C493 1.349 . S
C492 C494 1.327 . S
C492 H517 0.950 . S
C493 C492 1.349 . S
C493 C509 1.349 . S
C494 C492 1.327 . S
C494 C513 1.429 . S
C494 H518 0.950 . S
C495 C512 1.574 . S
C495 C514 1.368 . S
C495 H519 0.949 . S
H496 C500 0.949 . S
C497 C498 1.349 . S
C497 C499 1.327 . S
C497 H520 0.950 . S
C498 C497 1.349 . S
C498 C510 1.349 . S
C499 C497 1.327 . S
C499 C515 1.429 . S
C499 H521 0.950 . S
C500 H496 0.949 . S
C500 C508 1.574 . S
C500 C516 1.368 . S
H501 C509 0.950 . S
H502 C507 0.950 . S
H503 C508 0.949 . S
H504 C510 0.950 . S
H505 C511 0.950 . S
H506 C512 0.949 . S
C507 H502 0.950 . S
C507 C509 1.327 . S
C507 C513 1.429 . S
C508 C500 1.574 . S
C508 H503 0.949 . S
C508 C514 1.368 . S
C509 C493 1.349 . S
C509 H501 0.950 . S
C509 C507 1.327 . S
C510 C498 1.349 . S
C510 H504 0.950 . S
C510 C511 1.327 . S
C511 H505 0.950 . S
C511 C510 1.327 . S
C511 C515 1.429 . S
C512 C495 1.574 . S
C512 H506 0.949 . S
C512 C516 1.368 . S
C513 C494 1.429 . S
C513 C507 1.429 . S
C513 C514 1.523 . S
C514 C495 1.368 . S
C514 C508 1.368 . S
C514 C513 1.523 . S
C515 C499 1.429 . S
C515 C511 1.429 . S
C515 C516 1.523 . S
C516 C500 1.368 . S
C516 C512 1.368 . S
C516 C515 1.523 . S
H517 C492 0.950 . S
H518 C494 0.950 . S
H519 C495 0.949 . S
H520 C497 0.950 . S
H521 C499 0.950 . S
C522 C523 1.349 . S
C522 C524 1.327 . S
C522 H547 0.950 . S
C523 C522 1.349 . S
C523 C539 1.349 . S
C524 C522 1.327 . S
C524 C543 1.429 . S
C524 H548 0.950 . S
C525 C542 1.574 . S
C525 C544 1.368 . S
C525 H549 0.949 . S
H526 C530 0.949 . S
C527 C528 1.349 . S
C527 C529 1.327 . S
C527 H550 0.950 . S
C528 C527 1.349 . S
C528 C540 1.349 . S
C529 C527 1.327 . S
C529 C545 1.429 . S
C529 H551 0.950 . S
C530 H526 0.949 . S
C530 C538 1.574 . S
C530 C546 1.368 . S
H531 C539 0.950 . S
H532 C537 0.950 . S
H533 C538 0.949 . S
H534 C540 0.950 . S
H535 C541 0.950 . S
H536 C542 0.949 . S
C537 H532 0.950 . S
C537 C539 1.327 . S
C537 C543 1.429 . S
C538 C530 1.574 . S
C538 H533 0.949 . S
C538 C544 1.368 . S
C539 C523 1.349 . S
C539 H531 0.950 . S
C539 C537 1.327 . S
C540 C528 1.349 . S
C540 H534 0.950 . S
C540 C541 1.327 . S
C541 H535 0.950 . S
C541 C540 1.327 . S
C541 C545 1.429 . S
C542 C525 1.574 . S
C542 H536 0.949 . S
C542 C546 1.368 . S
C543 C524 1.429 . S
C543 C537 1.429 . S
C543 C544 1.523 . S
C544 C525 1.368 . S
C544 C538 1.368 . S
C544 C543 1.523 . S
C545 C529 1.429 . S
C545 C541 1.429 . S
C545 C546 1.523 . S
C546 C530 1.368 . S
C546 C542 1.368 . S
C546 C545 1.523 . S
H547 C522 0.950 . S
H548 C524 0.950 . S
H549 C525 0.949 . S
H550 C527 0.950 . S
H551 C529 0.950 . S
C552 C553 1.349 . S
C552 C554 1.327 . S
C552 H577 0.950 . S
C553 C552 1.349 . S
C553 C569 1.349 . S
C554 C552 1.327 . S
C554 C573 1.429 . S
C554 H578 0.950 . S
C555 C572 1.574 . S
C555 C574 1.368 . S
C555 H579 0.949 . S
H556 C560 0.949 . S
C557 C558 1.349 . S
C557 C559 1.327 . S
C557 H580 0.950 . S
C558 C557 1.349 . S
C558 C570 1.349 . S
C559 C557 1.327 . S
C559 C575 1.429 . S
C559 H581 0.950 . S
C560 H556 0.949 . S
C560 C568 1.574 . S
C560 C576 1.368 . S
H561 C569 0.950 . S
H562 C567 0.950 . S
H563 C568 0.949 . S
H564 C570 0.950 . S
H565 C571 0.950 . S
H566 C572 0.949 . S
C567 H562 0.950 . S
C567 C569 1.327 . S
C567 C573 1.429 . S
C568 C560 1.574 . S
C568 H563 0.949 . S
C568 C574 1.368 . S
C569 C553 1.349 . S
C569 H561 0.950 . S
C569 C567 1.327 . S
C570 C558 1.349 . S
C570 H564 0.950 . S
C570 C571 1.327 . S
C571 H565 0.950 . S
C571 C570 1.327 . S
C571 C575 1.429 . S
C572 C555 1.574 . S
C572 H566 0.949 . S
C572 C576 1.368 . S
C573 C554 1.429 . S
C573 C567 1.429 . S
C573 C574 1.523 . S
C574 C555 1.368 . S
C574 C568 1.368 . S
C574 C573 1.523 . S
C575 C559 1.429 . S
C575 C571 1.429 . S
C575 C576 1.523 . S
C576 C560 1.368 . S
C576 C572 1.368 . S
C576 C575 1.523 . S
H577 C552 0.950 . S
H578 C554 0.950 . S
H579 C555 0.949 . S
H580 C557 0.950 . S
H581 C559 0.950 . S
C582 C583 1.349 . S
C582 C584 1.327 . S
C582 H607 0.950 . S
C583 C582 1.349 . S
C583 C599 1.349 . S
C584 C582 1.327 . S
C584 C603 1.429 . S
C584 H608 0.950 . S
C585 C602 1.574 . S
C585 C604 1.368 . S
C585 H609 0.949 . S
H586 C590 0.949 . S
C587 C588 1.349 . S
C587 C589 1.327 . S
C587 H610 0.950 . S
C588 C587 1.349 . S
C588 C600 1.349 . S
C589 C587 1.327 . S
C589 C605 1.429 . S
C589 H611 0.950 . S
C590 H586 0.949 . S
C590 C598 1.574 . S
C590 C606 1.368 . S
H591 C599 0.950 . S
H592 C597 0.950 . S
H593 C598 0.949 . S
H594 C600 0.950 . S
H595 C601 0.950 . S
H596 C602 0.949 . S
C597 H592 0.950 . S
C597 C599 1.327 . S
C597 C603 1.429 . S
C598 C590 1.574 . S
C598 H593 0.949 . S
C598 C604 1.368 . S
C599 C583 1.349 . S
C599 H591 0.950 . S
C599 C597 1.327 . S
C600 C588 1.349 . S
C600 H594 0.950 . S
C600 C601 1.327 . S
C601 H595 0.950 . S
C601 C600 1.327 . S
C601 C605 1.429 . S
C602 C585 1.574 . S
C602 H596 0.949 . S
C602 C606 1.368 . S
C603 C584 1.429 . S
C603 C597 1.429 . S
C603 C604 1.523 . S
C604 C585 1.368 . S
C604 C598 1.368 . S
C604 C603 1.523 . S
C605 C589 1.429 . S
C605 C601 1.429 . S
C605 C606 1.523 . S
C606 C590 1.368 . S
C606 C602 1.368 . S
C606 C605 1.523 . S
H607 C582 0.950 . S
H608 C584 0.950 . S
H609 C585 0.949 . S
H610 C587 0.950 . S
H611 C589 0.950 . S
C612 C613 1.349 . S
C612 C614 1.327 . S
C612 H637 0.950 . S
C613 C612 1.349 . S
C613 C629 1.349 . S
C614 C612 1.327 . S
C614 C633 1.429 . S
C614 H638 0.950 . S
C615 C632 1.574 . S
C615 C634 1.368 . S
C615 H639 0.949 . S
H616 C620 0.949 . S
C617 C618 1.349 . S
C617 C619 1.327 . S
C617 H640 0.950 . S
C618 C617 1.349 . S
C618 C630 1.349 . S
C619 C617 1.327 . S
C619 C635 1.429 . S
C619 H641 0.950 . S
C620 H616 0.949 . S
C620 C628 1.574 . S
C620 C636 1.368 . S
H621 C629 0.950 . S
H622 C627 0.950 . S
H623 C628 0.949 . S
H624 C630 0.950 . S
H625 C631 0.950 . S
H626 C632 0.949 . S
C627 H622 0.950 . S
C627 C629 1.327 . S
C627 C633 1.429 . S
C628 C620 1.574 . S
C628 H623 0.949 . S
C628 C634 1.368 . S
C629 C613 1.349 . S
C629 H621 0.950 . S
C629 C627 1.327 . S
C630 C618 1.349 . S
C630 H624 0.950 . S
C630 C631 1.327 . S
C631 H625 0.950 . S
C631 C630 1.327 . S
C631 C635 1.429 . S
C632 C615 1.574 . S
C632 H626 0.949 . S
C632 C636 1.368 . S
C633 C614 1.429 . S
C633 C627 1.429 . S
C633 C634 1.523 . S
C634 C615 1.368 . S
C634 C628 1.368 . S
C634 C633 1.523 . S
C635 C619 1.429 . S
C635 C631 1.429 . S
C635 C636 1.523 . S
C636 C620 1.368 . S
C636 C632 1.368 . S
C636 C635 1.523 . S
H637 C612 0.950 . S
H638 C614 0.950 . S
H639 C615 0.949 . S
H640 C617 0.950 . S
H641 C619 0.950 . S
C642 C643 1.349 . S
C642 C644 1.327 . S
C642 H667 0.950 . S
C643 C642 1.349 . S
C643 C659 1.349 . S
C644 C642 1.327 . S
C644 C663 1.429 . S
C644 H668 0.950 . S
C645 C662 1.574 . S
C645 C664 1.368 . S
C645 H669 0.949 . S
H646 C650 0.949 . S
C647 C648 1.349 . S
C647 C649 1.327 . S
C647 H670 0.950 . S
C648 C647 1.349 . S
C648 C660 1.349 . S
C649 C647 1.327 . S
C649 C665 1.429 . S
C649 H671 0.950 . S
C650 H646 0.949 . S
C650 C658 1.574 . S
C650 C666 1.368 . S
H651 C659 0.950 . S
H652 C657 0.950 . S
H653 C658 0.949 . S
H654 C660 0.950 . S
H655 C661 0.950 . S
H656 C662 0.949 . S
C657 H652 0.950 . S
C657 C659 1.327 . S
C657 C663 1.429 . S
C658 C650 1.574 . S
C658 H653 0.949 . S
C658 C664 1.368 . S
C659 C643 1.349 . S
C659 H651 0.950 . S
C659 C657 1.327 . S
C660 C648 1.349 . S
C660 H654 0.950 . S
C660 C661 1.327 . S
C661 H655 0.950 . S
C661 C660 1.327 . S
C661 C665 1.429 . S
C662 C645 1.574 . S
C662 H656 0.949 . S
C662 C666 1.368 . S
C663 C644 1.429 . S
C663 C657 1.429 . S
C663 C664 1.523 . S
C664 C645 1.368 . S
C664 C658 1.368 . S
C664 C663 1.523 . S
C665 C649 1.429 . S
C665 C661 1.429 . S
C665 C666 1.523 . S
C666 C650 1.368 . S
C666 C662 1.368 . S
C666 C665 1.523 . S
H667 C642 0.950 . S
H668 C644 0.950 . S
H669 C645 0.949 . S
H670 C647 0.950 . S
H671 C649 0.950 . S
C672 C673 1.349 . S
C672 C674 1.327 . S
C672 H697 0.950 . S
C673 C672 1.349 . S
C673 C689 1.349 . S
C674 C672 1.327 . S
C674 C693 1.429 . S
C674 H698 0.950 . S
C675 C692 1.574 . S
C675 C694 1.368 . S
C675 H699 0.949 . S
H676 C680 0.949 . S
C677 C678 1.349 . S
C677 C679 1.327 . S
C677 H700 0.950 . S
C678 C677 1.349 . S
C678 C690 1.349 . S
C679 C677 1.327 . S
C679 C695 1.429 . S
C679 H701 0.950 . S
C680 H676 0.949 . S
C680 C688 1.574 . S
C680 C696 1.368 . S
H681 C689 0.950 . S
H682 C687 0.950 . S
H683 C688 0.949 . S
H684 C690 0.950 . S
H685 C691 0.950 . S
H686 C692 0.949 . S
C687 H682 0.950 . S
C687 C689 1.327 . S
C687 C693 1.429 . S
C688 C680 1.574 . S
C688 H683 0.949 . S
C688 C694 1.368 . S
C689 C673 1.349 . S
C689 H681 0.950 . S
C689 C687 1.327 . S
C690 C678 1.349 . S
C690 H684 0.950 . S
C690 C691 1.327 . S
C691 H685 0.950 . S
C691 C690 1.327 . S
C691 C695 1.429 . S
C692 C675 1.574 . S
C692 H686 0.949 . S
C692 C696 1.368 . S
C693 C674 1.429 . S
C693 C687 1.429 . S
C693 C694 1.523 . S
C694 C675 1.368 . S
C694 C688 1.368 . S
C694 C693 1.523 . S
C695 C679 1.429 . S
C695 C691 1.429 . S
C695 C696 1.523 . S
C696 C680 1.368 . S
C696 C692 1.368 . S
C696 C695 1.523 . S
H697 C672 0.950 . S
H698 C674 0.950 . S
H699 C675 0.949 . S
H700 C677 0.950 . S
H701 C679 0.950 . S
C702 C703 1.349 . S
C702 C704 1.327 . S
C702 H727 0.950 . S
C703 C702 1.349 . S
C703 C719 1.349 . S
C704 C702 1.327 . S
C704 C723 1.429 . S
C704 H728 0.950 . S
C705 C722 1.574 . S
C705 C724 1.368 . S
C705 H729 0.949 . S
H706 C710 0.949 . S
C707 C708 1.349 . S
C707 C709 1.327 . S
C707 H730 0.950 . S
C708 C707 1.349 . S
C708 C720 1.349 . S
C709 C707 1.327 . S
C709 C725 1.429 . S
C709 H731 0.950 . S
C710 H706 0.949 . S
C710 C718 1.574 . S
C710 C726 1.368 . S
H711 C719 0.950 . S
H712 C717 0.950 . S
H713 C718 0.949 . S
H714 C720 0.950 . S
H715 C721 0.950 . S
H716 C722 0.949 . S
C717 H712 0.950 . S
C717 C719 1.327 . S
C717 C723 1.429 . S
C718 C710 1.574 . S
C718 H713 0.949 . S
C718 C724 1.368 . S
C719 C703 1.349 . S
C719 H711 0.950 . S
C719 C717 1.327 . S
C720 C708 1.349 . S
C720 H714 0.950 . S
C720 C721 1.327 . S
C721 H715 0.950 . S
C721 C720 1.327 . S
C721 C725 1.429 . S
C722 C705 1.574 . S
C722 H716 0.949 . S
C722 C726 1.368 . S
C723 C704 1.429 . S
C723 C717 1.429 . S
C723 C724 1.523 . S
C724 C705 1.368 . S
C724 C718 1.368 . S
C724 C723 1.523 . S
C725 C709 1.429 . S
C725 C721 1.429 . S
C725 C726 1.523 . S
C726 C710 1.368 . S
C726 C722 1.368 . S
C726 C725 1.523 . S
H727 C702 0.950 . S
H728 C704 0.950 . S
H729 C705 0.949 . S
H730 C707 0.950 . S
H731 C709 0.950 . S
C732 C733 1.349 . S
C732 C734 1.327 . S
C732 H757 0.950 . S
C733 C732 1.349 . S
C733 C749 1.349 . S
C734 C732 1.327 . S
C734 C753 1.429 . S
C734 H758 0.950 . S
C735 C752 1.574 . S
C735 C754 1.368 . S
C735 H759 0.949 . S
H736 C740 0.949 . S
C737 C738 1.349 . S
C737 C739 1.327 . S
C737 H760 0.950 . S
C738 C737 1.349 . S
C738 C750 1.349 . S
C739 C737 1.327 . S
C739 C755 1.429 . S
C739 H761 0.950 . S
C740 H736 0.949 . S
C740 C748 1.574 . S
C740 C756 1.368 . S
H741 C749 0.950 . S
H742 C747 0.950 . S
H743 C748 0.949 . S
H744 C750 0.950 . S
H745 C751 0.950 . S
H746 C752 0.949 . S
C747 H742 0.950 . S
C747 C749 1.327 . S
C747 C753 1.429 . S
C748 C740 1.574 . S
C748 H743 0.949 . S
C748 C754 1.368 . S
C749 C733 1.349 . S
C749 H741 0.950 . S
C749 C747 1.327 . S
C750 C738 1.349 . S
C750 H744 0.950 . S
C750 C751 1.327 . S
C751 H745 0.950 . S
C751 C750 1.327 . S
C751 C755 1.429 . S
C752 C735 1.574 . S
C752 H746 0.949 . S
C752 C756 1.368 . S
C753 C734 1.429 . S
C753 C747 1.429 . S
C753 C754 1.523 . S
C754 C735 1.368 . S
C754 C748 1.368 . S
C754 C753 1.523 . S
C755 C739 1.429 . S
C755 C751 1.429 . S
C755 C756 1.523 . S
C756 C740 1.368 . S
C756 C752 1.368 . S
C756 C755 1.523 . S
H757 C732 0.950 . S
H758 C734 0.950 . S
H759 C735 0.949 . S
H760 C737 0.950 . S
H761 C739 0.950 . S
C762 C763 1.349 . S
C762 C764 1.327 . S
C762 H787 0.950 . S
C763 C762 1.349 . S
C763 C779 1.349 . S
C764 C762 1.327 . S
C764 C783 1.429 . S
C764 H788 0.950 . S
C765 C782 1.574 . S
C765 C784 1.368 . S
C765 H789 0.949 . S
H766 C770 0.949 . S
C767 C768 1.349 . S
C767 C769 1.327 . S
C767 H790 0.950 . S
C768 C767 1.349 . S
C768 C780 1.349 . S
C769 C767 1.327 . S
C769 C785 1.429 . S
C769 H791 0.950 . S
C770 H766 0.949 . S
C770 C778 1.574 . S
C770 C786 1.368 . S
H771 C779 0.950 . S
H772 C777 0.950 . S
H773 C778 0.949 . S
H774 C780 0.950 . S
H775 C781 0.950 . S
H776 C782 0.949 . S
C777 H772 0.950 . S
C777 C779 1.327 . S
C777 C783 1.429 . S
C778 C770 1.574 . S
C778 H773 0.949 . S
C778 C784 1.368 . S
C779 C763 1.349 . S
C779 H771 0.950 . S
C779 C777 1.327 . S
C780 C768 1.349 . S
C780 H774 0.950 . S
C780 C781 1.327 . S
C781 H775 0.950 . S
C781 C780 1.327 . S
C781 C785 1.429 . S
C782 C765 1.574 . S
C782 H776 0.949 . S
C782 C786 1.368 . S
C783 C764 1.429 . S
C783 C777 1.429 . S
C783 C784 1.523 . S
C784 C765 1.368 . S
C784 C778 1.368 . S
C784 C783 1.523 . S
C785 C769 1.429 . S
C785 C781 1.429 . S
C785 C786 1.523 . S
C786 C770 1.368 . S
C786 C782 1.368 . S
C786 C785 1.523 . S
H787 C762 0.950 . S
H788 C764 0.950 . S
H789 C765 0.949 . S
H790 C767 0.950 . S
H791 C769 0.950 . S
C792 C793 1.349 . S
C792 C794 1.327 . S
C792 H817 0.950 . S
C793 C792 1.349 . S
C793 C809 1.349 . S
C794 C792 1.327 . S
C794 C813 1.429 . S
C794 H818 0.950 . S
C795 C812 1.574 . S
C795 C814 1.368 . S
C795 H819 0.949 . S
H796 C800 0.949 . S
C797 C798 1.349 . S
C797 C799 1.327 . S
C797 H820 0.950 . S
C798 C797 1.349 . S
C798 C810 1.349 . S
C799 C797 1.327 . S
C799 C815 1.429 . S
C799 H821 0.950 . S
C800 H796 0.949 . S
C800 C808 1.574 . S
C800 C816 1.368 . S
H801 C809 0.950 . S
H802 C807 0.950 . S
H803 C808 0.949 . S
H804 C810 0.950 . S
H805 C811 0.950 . S
H806 C812 0.949 . S
C807 H802 0.950 . S
C807 C809 1.327 . S
C807 C813 1.429 . S
C808 C800 1.574 . S
C808 H803 0.949 . S
C808 C814 1.368 . S
C809 C793 1.349 . S
C809 H801 0.950 . S
C809 C807 1.327 . S
C810 C798 1.349 . S
C810 H804 0.950 . S
C810 C811 1.327 . S
C811 H805 0.950 . S
C811 C810 1.327 . S
C811 C815 1.429 . S
C812 C795 1.574 . S
C812 H806 0.949 . S
C812 C816 1.368 . S
C813 C794 1.429 . S
C813 C807 1.429 . S
C813 C814 1.523 . S
C814 C795 1.368 . S
C814 C808 1.368 . S
C814 C813 1.523 . S
C815 C799 1.429 . S
C815 C811 1.429 . S
C815 C816 1.523 . S
C816 C800 1.368 . S
C816 C812 1.368 . S
C816 C815 1.523 . S
H817 C792 0.950 . S
H818 C794 0.950 . S
H819 C795 0.949 . S
H820 C797 0.950 . S
H821 C799 0.950 . S
C822 C823 1.349 . S
C822 C824 1.327 . S
C822 H847 0.950 . S
C823 C822 1.349 . S
C823 C839 1.349 . S
C824 C822 1.327 . S
C824 C843 1.429 . S
C824 H848 0.950 . S
C825 C842 1.574 . S
C825 C844 1.368 . S
C825 H849 0.949 . S
H826 C830 0.949 . S
C827 C828 1.349 . S
C827 C829 1.327 . S
C827 H850 0.950 . S
C828 C827 1.349 . S
C828 C840 1.349 . S
C829 C827 1.327 . S
C829 C845 1.429 . S
C829 H851 0.950 . S
C830 H826 0.949 . S
C830 C838 1.574 . S
C830 C846 1.368 . S
H831 C839 0.950 . S
H832 C837 0.950 . S
H833 C838 0.949 . S
H834 C840 0.950 . S
H835 C841 0.950 . S
H836 C842 0.949 . S
C837 H832 0.950 . S
C837 C839 1.327 . S
C837 C843 1.429 . S
C838 C830 1.574 . S
C838 H833 0.949 . S
C838 C844 1.368 . S
C839 C823 1.349 . S
C839 H831 0.950 . S
C839 C837 1.327 . S
C840 C828 1.349 . S
C840 H834 0.950 . S
C840 C841 1.327 . S
C841 H835 0.950 . S
C841 C840 1.327 . S
C841 C845 1.429 . S
C842 C825 1.574 . S
C842 H836 0.949 . S
C842 C846 1.368 . S
C843 C824 1.429 . S
C843 C837 1.429 . S
C843 C844 1.523 . S
C844 C825 1.368 . S
C844 C838 1.368 . S
C844 C843 1.523 . S
C845 C829 1.429 . S
C845 C841 1.429 . S
C845 C846 1.523 . S
C846 C830 1.368 . S
C846 C842 1.368 . S
C846 C845 1.523 . S
H847 C822 0.950 . S
H848 C824 0.950 . S
H849 C825 0.949 . S
H850 C827 0.950 . S
H851 C829 0.950 . S
C852 C853 1.349 . S
C852 C854 1.327 . S
C852 H877 0.950 . S
C853 C852 1.349 . S
C853 C869 1.349 . S
C854 C852 1.327 . S
C854 C873 1.429 . S
C854 H878 0.950 . S
C855 C872 1.574 . S
C855 C874 1.368 . S
C855 H879 0.949 . S
H856 C860 0.949 . S
C857 C858 1.349 . S
C857 C859 1.327 . S
C857 H880 0.950 . S
C858 C857 1.349 . S
C858 C870 1.349 . S
C859 C857 1.327 . S
C859 C875 1.429 . S
C859 H881 0.950 . S
C860 H856 0.949 . S
C860 C868 1.574 . S
C860 C876 1.368 . S
H861 C869 0.950 . S
H862 C867 0.950 . S
H863 C868 0.949 . S
H864 C870 0.950 . S
H865 C871 0.950 . S
H866 C872 0.949 . S
C867 H862 0.950 . S
C867 C869 1.327 . S
C867 C873 1.429 . S
C868 C860 1.574 . S
C868 H863 0.949 . S
C868 C874 1.368 . S
C869 C853 1.349 . S
C869 H861 0.950 . S
C869 C867 1.327 . S
C870 C858 1.349 . S
C870 H864 0.950 . S
C870 C871 1.327 . S
C871 H865 0.950 . S
C871 C870 1.327 . S
C871 C875 1.429 . S
C872 C855 1.574 . S
C872 H866 0.949 . S
C872 C876 1.368 . S
C873 C854 1.429 . S
C873 C867 1.429 . S
C873 C874 1.523 . S
C874 C855 1.368 . S
C874 C868 1.368 . S
C874 C873 1.523 . S
C875 C859 1.429 . S
C875 C871 1.429 . S
C875 C876 1.523 . S
C876 C860 1.368 . S
C876 C872 1.368 . S
C876 C875 1.523 . S
H877 C852 0.950 . S
H878 C854 0.950 . S
H879 C855 0.949 . S
H880 C857 0.950 . S
H881 C859 0.950 . S
C882 C883 1.349 . S
C882 C884 1.327 . S
C882 H907 0.950 . S
C883 C882 1.349 . S
C883 C899 1.349 . S
C884 C882 1.327 . S
C884 C903 1.429 . S
C884 H908 0.950 . S
C885 C902 1.574 . S
C885 C904 1.368 . S
C885 H909 0.949 . S
H886 C890 0.949 . S
C887 C888 1.349 . S
C887 C889 1.327 . S
C887 H910 0.950 . S
C888 C887 1.349 . S
C888 C900 1.349 . S
C889 C887 1.327 . S
C889 C905 1.429 . S
C889 H911 0.950 . S
C890 H886 0.949 . S
C890 C898 1.574 . S
C890 C906 1.368 . S
H891 C899 0.950 . S
H892 C897 0.950 . S
H893 C898 0.949 . S
H894 C900 0.950 . S
H895 C901 0.950 . S
H896 C902 0.949 . S
C897 H892 0.950 . S
C897 C899 1.327 . S
C897 C903 1.429 . S
C898 C890 1.574 . S
C898 H893 0.949 . S
C898 C904 1.368 . S
C899 C883 1.349 . S
C899 H891 0.950 . S
C899 C897 1.327 . S
C900 C888 1.349 . S
C900 H894 0.950 . S
C900 C901 1.327 . S
C901 H895 0.950 . S
C901 C900 1.327 . S
C901 C905 1.429 . S
C902 C885 1.574 . S
C902 H896 0.949 . S
C902 C906 1.368 . S
C903 C884 1.429 . S
C903 C897 1.429 . S
C903 C904 1.523 . S
C904 C885 1.368 . S
C904 C898 1.368 . S
C904 C903 1.523 . S
C905 C889 1.429 . S
C905 C901 1.429 . S
C905 C906 1.523 . S
C906 C890 1.368 . S
C906 C902 1.368 . S
C906 C905 1.523 . S
H907 C882 0.950 . S
H908 C884 0.950 . S
H909 C885 0.949 . S
H910 C887 0.950 . S
H911 C889 0.950 . S
C193 C13 1.599 . S
C198 C98 1.522 . S
C223 C27 1.605 . S
C228 C109 1.534 . S
C258 C128 1.525 . S
C253 C29 1.596 . S
C288 C145 1.533 . S
C283 C54 1.602 . S
C318 C172 1.533 . S
C313 C69 1.595 . S
C348 C181 1.535 . S
C343 C83 1.606 . S
C373 C15 1.602 . S
C378 C134 1.524 . S
C403 C41 1.603 . S
C408 C154 1.541 . S
C438 C163 1.529 . S
C433 C42 1.599 . S
C468 C190 1.541 . S
C463 C57 1.602 . S
C493 C71 1.597 . S
C498 C92 1.526 . S
C528 C118 1.538 . S
C523 C1 1.600 . S
C558 C146 1.568 . S
C553 C12 1.652 . S
C583 C26 1.663 . S
C588 C170 1.581 . S
C618 C182 1.564 . S
C613 C28 1.649 . S
C643 C55 1.661 . S
C648 C100 1.554 . S
C673 C68 1.651 . S
C678 C110 1.567 . S
C703 C82 1.660 . S
C708 C127 1.561 . S
C733 C14 1.658 . S
C738 C188 1.576 . S
C768 C91 1.559 . S
C763 C40 1.658 . S
C793 C43 1.660 . S
C798 C116 1.578 . S
C823 C56 1.656 . S
C828 C136 1.550 . S
C853 C70 1.655 . S
C858 C152 1.574 . S
C883 C0 1.655 . S
C888 C164 1.571 . S
