# Generated by pormake.
# Topology apo, (3,6)-cn, num edge types: 1
# Building blocks:
#     Node 0, Type 0, BuildingBlock: MIDCAF_clean_linker_0, # of connection points: 3
#     Node 1, Type 0, BuildingBlock: MIDCAF_clean_linker_0, # of connection points: 3
#     Node 2, Type 0, BuildingBlock: MIDCAF_clean_linker_0, # of connection points: 3
#     Node 3, Type 0, BuildingBlock: MIDCAF_clean_linker_0, # of connection points: 3
#     Node 4, Type 0, BuildingBlock: MIDCAF_clean_linker_0, # of connection points: 3
#     Node 5, Type 0, BuildingBlock: MIDCAF_clean_linker_0, # of connection points: 3
#     Node 6, Type 0, BuildingBlock: MIDCAF_clean_linker_0, # of connection points: 3
#     Node 7, Type 0, BuildingBlock: MIDCAF_clean_linker_0, # of connection points: 3
#     Node 8, Type 1, BuildingBlock: KUMBOL_clean_sbu_1, # of connection points: 6
#     Node 9, Type 1, BuildingBlock: KUMBOL_clean_sbu_1, # of connection points: 6
#     Node 10, Type 1, BuildingBlock: KUMBOL_clean_sbu_1, # of connection points: 6
#     Node 11, Type 1, BuildingBlock: KUMBOL_clean_sbu_1, # of connection points: 6
#     Edge 12, Type (0, 1), BuildingBlock: KIFKEQ_clean_linker_1, # of connection points: 2
#     Edge 13, Type (0, 1), BuildingBlock: KIFKEQ_clean_linker_1, # of connection points: 2
#     Edge 14, Type (0, 1), BuildingBlock: KIFKEQ_clean_linker_1, # of connection points: 2
#     Edge 15, Type (0, 1), BuildingBlock: KIFKEQ_clean_linker_1, # of connection points: 2
#     Edge 16, Type (0, 1), BuildingBlock: KIFKEQ_clean_linker_1, # of connection points: 2
#     Edge 17, Type (0, 1), BuildingBlock: KIFKEQ_clean_linker_1, # of connection points: 2
#     Edge 18, Type (0, 1), BuildingBlock: KIFKEQ_clean_linker_1, # of connection points: 2
#     Edge 19, Type (0, 1), BuildingBlock: KIFKEQ_clean_linker_1, # of connection points: 2
#     Edge 20, Type (0, 1), BuildingBlock: KIFKEQ_clean_linker_1, # of connection points: 2
#     Edge 21, Type (0, 1), BuildingBlock: KIFKEQ_clean_linker_1, # of connection points: 2
#     Edge 22, Type (0, 1), BuildingBlock: KIFKEQ_clean_linker_1, # of connection points: 2
#     Edge 23, Type (0, 1), BuildingBlock: KIFKEQ_clean_linker_1, # of connection points: 2
#     Edge 24, Type (0, 1), BuildingBlock: KIFKEQ_clean_linker_1, # of connection points: 2
#     Edge 25, Type (0, 1), BuildingBlock: KIFKEQ_clean_linker_1, # of connection points: 2
#     Edge 26, Type (0, 1), BuildingBlock: KIFKEQ_clean_linker_1, # of connection points: 2
#     Edge 27, Type (0, 1), BuildingBlock: KIFKEQ_clean_linker_1, # of connection points: 2
#     Edge 28, Type (0, 1), BuildingBlock: KIFKEQ_clean_linker_1, # of connection points: 2
#     Edge 29, Type (0, 1), BuildingBlock: KIFKEQ_clean_linker_1, # of connection points: 2
#     Edge 30, Type (0, 1), BuildingBlock: KIFKEQ_clean_linker_1, # of connection points: 2
#     Edge 31, Type (0, 1), BuildingBlock: KIFKEQ_clean_linker_1, # of connection points: 2
#     Edge 32, Type (0, 1), BuildingBlock: KIFKEQ_clean_linker_1, # of connection points: 2
#     Edge 33, Type (0, 1), BuildingBlock: KIFKEQ_clean_linker_1, # of connection points: 2
#     Edge 34, Type (0, 1), BuildingBlock: KIFKEQ_clean_linker_1, # of connection points: 2
#     Edge 35, Type (0, 1), BuildingBlock: KIFKEQ_clean_linker_1, # of connection points: 2
# Relax obj value: 0.009
# Max RMSD: 0.094
# Mean RMSD: 0.075
data_MOF--net-apo--node1-KUMBOL_clean_sbu_1--node2-MIDCAF_clean_linker_0--edge1-KIFKEQ_clean_linker_1
_symmetry_space_group_name_H-M    P1
_symmetry_Int_Tables_number       1
_symmetry_cell_setting            triclinic
loop_
_symmetry_equiv_pos_as_xyz
'x, y, z'
_cell_length_a     29.586546
_cell_length_b     52.67455
_cell_length_c     64.437539
_cell_angle_alpha  89.91564
_cell_angle_beta   90.000156
_cell_angle_gamma 90.281006
loop_
_atom_site_label
_atom_site_type_symbol
_atom_site_fract_x
_atom_site_fract_y
_atom_site_fract_z
_atom_type_partial_charge
C0 C 0.3177 0.39696 0.49219 0.0
C1 C 0.30661 0.37447 0.50287 0.0
C2 C 0.2876 0.3542 0.49162 0.0
C3 C 0.27978 0.35636 0.47028 0.0
H4 H 0.20958 0.32148 0.42105 0.0
H5 H 0.1696 0.2887 0.40133 0.0
H6 H 0.20726 0.32614 0.34415 0.0
H7 H 0.24587 0.35896 0.36362 0.0
H8 H 0.28135 0.41191 0.36363 0.0
H9 H 0.30854 0.44754 0.3433 0.0
H10 H 0.36167 0.48266 0.39872 0.0
H11 H 0.33383 0.44684 0.41943 0.0
H12 H 0.31919 0.4167 0.46314 0.0
H13 H 0.33279 0.41286 0.50033 0.0
H14 H 0.27808 0.33672 0.49938 0.0
H15 H 0.26496 0.34033 0.46223 0.0
N16 N 0.2612 0.36194 0.42642 0.0
N17 N 0.26844 0.38461 0.39534 0.0
N18 N 0.29691 0.40196 0.42614 0.0
C19 C 0.25398 0.36363 0.40563 0.0
C20 C 0.2898 0.40386 0.40533 0.0
C21 C 0.28271 0.38102 0.43682 0.0
C22 C 0.23074 0.34303 0.39399 0.0
C23 C 0.20931 0.32269 0.40427 0.0
C24 C 0.18653 0.30384 0.39296 0.0
C25 C 0.1848 0.30489 0.37114 0.0
C26 C 0.20692 0.32499 0.36093 0.0
C27 C 0.2294 0.3438 0.37217 0.0
C28 C 0.30559 0.42631 0.39326 0.0
C29 C 0.2987 0.42716 0.37165 0.0
C30 C 0.3145 0.4476 0.35989 0.0
C31 C 0.33761 0.46783 0.36935 0.0
C32 C 0.34374 0.46739 0.391 0.0
C33 C 0.328 0.4468 0.40284 0.0
C34 C 0.29092 0.37884 0.45956 0.0
C35 C 0.31008 0.3991 0.47081 0.0
C36 C 0.15365 0.1128 0.98907 0.0
C37 C 0.18031 0.12708 1.00284 0.0
C38 C 0.21801 0.14038 0.99505 0.0
C39 C 0.22862 0.13949 0.97384 0.0
H40 H 0.29213 0.18138 0.92289 0.0
H41 H 0.33259 0.21419 0.90323 0.0
H42 H 0.29395 0.17745 0.84596 0.0
H43 H 0.25511 0.14466 0.86533 0.0
H44 H 0.22176 0.09053 0.86496 0.0
H45 H 0.19669 0.05402 0.84506 0.0
H46 H 0.14046 0.0204 0.90059 0.0
H47 H 0.16472 0.05732 0.92059 0.0
H48 H 0.14359 0.10009 0.95793 0.0
H49 H 0.12464 0.10219 0.99467 0.0
H50 H 0.23905 0.15157 1.00535 0.0
H51 H 0.25787 0.14988 0.96825 0.0
N52 N 0.23742 0.14155 0.92791 0.0
N53 N 0.23278 0.11868 0.89676 0.0
N54 N 0.20031 0.10194 0.92691 0.0
C55 C 0.24665 0.13965 0.90725 0.0
C56 C 0.20986 0.0997 0.90639 0.0
C57 C 0.21397 0.12273 0.9378 0.0
C58 C 0.27062 0.16019 0.89577 0.0
C59 C 0.29238 0.18033 0.90611 0.0
C60 C 0.31541 0.1992 0.89482 0.0
C61 C 0.31699 0.19836 0.87298 0.0
C62 C 0.29452 0.17844 0.86275 0.0
C63 C 0.2719 0.15962 0.87394 0.0
C64 C 0.19519 0.07701 0.89444 0.0
C65 C 0.20415 0.07539 0.87303 0.0
C66 C 0.19006 0.0543 0.86158 0.0
C67 C 0.16668 0.03421 0.87121 0.0
C68 C 0.15797 0.03568 0.89264 0.0
C69 C 0.17207 0.05683 0.90413 0.0
C70 C 0.20232 0.12479 0.96014 0.0
C71 C 0.16473 0.11149 0.96803 0.0
C72 C 0.85094 0.12224 0.52506 0.0
C73 C 0.83689 0.14457 0.51502 0.0
C74 C 0.81164 0.16237 0.52632 0.0
C75 C 0.80107 0.15809 0.54718 0.0
H76 H 0.73774 0.19142 0.59718 0.0
H77 H 0.69857 0.22362 0.61751 0.0
H78 H 0.71108 0.17683 0.67228 0.0
H79 H 0.75065 0.14494 0.65224 0.0
H80 H 0.80055 0.09539 0.65121 0.0
H81 H 0.82905 0.05898 0.67003 0.0
H82 H 0.88784 0.02973 0.61365 0.0
H83 H 0.85872 0.06629 0.59447 0.0
H84 H 0.85218 0.10063 0.5532 0.0
H85 H 0.87083 0.10825 0.51688 0.0
H86 H 0.79968 0.17959 0.519 0.0
H87 H 0.78165 0.17231 0.55533 0.0
N88 N 0.78156 0.14943 0.5905 0.0
N89 N 0.78734 0.12472 0.62059 0.0
N90 N 0.8197 0.11041 0.58958 0.0
C91 C 0.7725 0.14605 0.611 0.0
C92 C 0.81086 0.10679 0.61009 0.0
C93 C 0.80509 0.1317 0.57965 0.0
C94 C 0.7476 0.16555 0.62303 0.0
C95 C 0.73214 0.18797 0.61355 0.0
C96 C 0.70948 0.2064 0.62518 0.0
C97 C 0.70193 0.20286 0.64654 0.0
C98 C 0.71701 0.18036 0.65594 0.0
C99 C 0.73951 0.16196 0.64436 0.0
C100 C 0.82748 0.08396 0.62126 0.0
C101 C 0.81946 0.08128 0.64268 0.0
C102 C 0.83605 0.06041 0.65357 0.0
C103 C 0.86111 0.04159 0.64339 0.0
C104 C 0.86847 0.04389 0.62191 0.0
C105 C 0.85194 0.0649 0.61095 0.0
C106 C 0.8155 0.13588 0.55732 0.0
C107 C 0.84041 0.11795 0.54596 0.0
C108 C 0.65153 0.38427 0.0265 0.0
C109 C 0.66701 0.3626 0.01603 0.0
C110 C 0.69438 0.34527 0.02682 0.0
C111 C 0.70589 0.34948 0.04759 0.0
H112 H 0.76992 0.31632 0.09805 0.0
H113 H 0.80887 0.28426 0.11864 0.0
H114 H 0.8064 0.33412 0.17177 0.0
H115 H 0.76704 0.36596 0.15145 0.0
H116 H 0.74043 0.42669 0.14209 0.0
H117 H 0.71221 0.46367 0.16092 0.0
H118 H 0.59482 0.46557 0.12126 0.0
H119 H 0.62345 0.42894 0.10197 0.0
H120 H 0.65057 0.40549 0.05472 0.0
H121 H 0.63086 0.39817 0.01858 0.0
H122 H 0.70644 0.32824 0.01928 0.0
H123 H 0.72692 0.33567 0.0554 0.0
N124 N 0.72782 0.35863 0.09085 0.0
N125 N 0.72539 0.38461 0.12033 0.0
N126 N 0.68861 0.39725 0.08985 0.0
C127 C 0.73925 0.3629 0.11101 0.0
C128 C 0.70007 0.40183 0.1099 0.0
C129 C 0.70265 0.37579 0.08012 0.0
C130 C 0.76503 0.34375 0.12306 0.0
C131 C 0.77781 0.32052 0.11409 0.0
C132 C 0.80032 0.30216 0.12588 0.0
C133 C 0.81048 0.30657 0.14689 0.0
C134 C 0.79839 0.32993 0.15573 0.0
C135 C 0.77601 0.34828 0.14399 0.0
C136 C 0.68409 0.42492 0.12058 0.0
C137 C 0.70878 0.43511 0.13727 0.0
C138 C 0.69282 0.4563 0.14798 0.0
C139 C 0.65143 0.46732 0.14249 0.0
C140 C 0.62682 0.4573 0.12575 0.0
C141 C 0.64329 0.43646 0.11471 0.0
C142 C 0.69039 0.37117 0.05808 0.0
C143 C 0.66309 0.38852 0.04724 0.0
C144 C 0.67672 0.60599 0.52324 0.0
C145 C 0.68499 0.62811 0.51158 0.0
C146 C 0.70277 0.64955 0.52179 0.0
C147 C 0.71176 0.64889 0.54315 0.0
H148 H 0.79007 0.68393 0.59213 0.0
H149 H 0.82834 0.71796 0.61132 0.0
H150 H 0.77905 0.68645 0.66896 0.0
H151 H 0.74102 0.65273 0.65007 0.0
H152 H 0.71406 0.59575 0.65125 0.0
H153 H 0.68713 0.55972 0.67142 0.0
H154 H 0.63432 0.52513 0.61568 0.0
H155 H 0.66053 0.56143 0.59541 0.0
H156 H 0.67865 0.58787 0.55285 0.0
H157 H 0.66405 0.58891 0.51589 0.0
H158 H 0.70924 0.66698 0.51333 0.0
H159 H 0.72515 0.66578 0.55052 0.0
N160 N 0.7328 0.64539 0.58746 0.0
N161 N 0.72574 0.62368 0.61912 0.0
N162 N 0.69793 0.60524 0.58868 0.0
C163 C 0.73988 0.6444 0.60833 0.0
C164 C 0.70485 0.604 0.60948 0.0
C165 C 0.71169 0.62582 0.57752 0.0
C166 C 0.76246 0.66555 0.61952 0.0
C167 C 0.78727 0.68435 0.60888 0.0
C168 C 0.80938 0.70374 0.61986 0.0
C169 C 0.80653 0.70489 0.64162 0.0
C170 C 0.78144 0.68624 0.65218 0.0
C171 C 0.75986 0.66679 0.6413 0.0
C172 C 0.68939 0.58162 0.62165 0.0
C173 C 0.69681 0.58049 0.6432 0.0
C174 C 0.68162 0.55971 0.6548 0.0
C175 C 0.6586 0.53953 0.64517 0.0
C176 C 0.65148 0.54051 0.62361 0.0
C177 C 0.66673 0.5613 0.61197 0.0
C178 C 0.70309 0.62676 0.55479 0.0
C179 C 0.6855 0.60535 0.54452 0.0
C180 C 0.85454 0.89232 0.02495 0.0
C181 C 0.84309 0.87089 0.01305 0.0
C182 C 0.82202 0.85018 0.02301 0.0
C183 C 0.81233 0.85103 0.0443 0.0
H184 H 0.77466 0.80641 0.10041 0.0
H185 H 0.73349 0.77348 0.11986 0.0
H186 H 0.67819 0.8309 0.16009 0.0
H187 H 0.71975 0.86361 0.14111 0.0
H188 H 0.8146 0.903 0.15221 0.0
H189 H 0.8406 0.93928 0.17217 0.0
H190 H 0.87316 0.97906 0.11533 0.0
H191 H 0.84861 0.94229 0.09532 0.0
H192 H 0.85405 0.91018 0.05461 0.0
H193 H 0.86993 0.90885 0.0178 0.0
H194 H 0.81309 0.83326 0.01437 0.0
H195 H 0.7959 0.8348 0.05143 0.0
N196 N 0.78846 0.85538 0.08821 0.0
N197 N 0.79042 0.87843 0.11937 0.0
N198 N 0.82513 0.89499 0.08964 0.0
C199 C 0.77722 0.85752 0.10862 0.0
C200 C 0.81456 0.89719 0.11005 0.0
C201 C 0.81229 0.8742 0.07857 0.0
C202 C 0.75056 0.83756 0.11929 0.0
C203 C 0.75347 0.81196 0.11332 0.0
C204 C 0.73016 0.79315 0.12447 0.0
C205 C 0.70272 0.79974 0.14142 0.0
C206 C 0.69891 0.82537 0.14701 0.0
C207 C 0.7229 0.84404 0.1362 0.0
C208 C 0.82951 0.91967 0.12213 0.0
C209 C 0.82719 0.91948 0.14392 0.0
C210 C 0.84189 0.94041 0.1554 0.0
C211 C 0.85888 0.96222 0.1454 0.0
C212 C 0.86092 0.96247 0.12359 0.0
C213 C 0.84659 0.94141 0.11209 0.0
C214 C 0.82352 0.87261 0.05611 0.0
C215 C 0.84503 0.89315 0.04614 0.0
C216 C 0.15868 0.88864 0.4888 0.0
C217 C 0.1834 0.87252 0.50191 0.0
C218 C 0.21895 0.85827 0.49345 0.0
C219 C 0.22929 0.85991 0.47231 0.0
H220 H 0.283 0.81612 0.42303 0.0
H221 H 0.32731 0.78369 0.40517 0.0
H222 H 0.32677 0.8294 0.34948 0.0
H223 H 0.2835 0.86173 0.36715 0.0
H224 H 0.22744 0.90888 0.3636 0.0
H225 H 0.20124 0.94407 0.34254 0.0
H226 H 0.12904 0.97418 0.39523 0.0
H227 H 0.15603 0.9391 0.4166 0.0
H228 H 0.14968 0.9032 0.45805 0.0
H229 H 0.13124 0.89994 0.49492 0.0
H230 H 0.23828 0.84547 0.50314 0.0
H231 H 0.25676 0.84855 0.46632 0.0
N232 N 0.24168 0.85978 0.42751 0.0
N233 N 0.23617 0.88126 0.39577 0.0
N234 N 0.20015 0.89763 0.42516 0.0
C235 C 0.25193 0.86135 0.40697 0.0
C236 C 0.21037 0.89948 0.40464 0.0
C237 C 0.21578 0.87787 0.43672 0.0
C238 C 0.2796 0.84161 0.39659 0.0
C239 C 0.29255 0.8193 0.40701 0.0
C240 C 0.31774 0.80065 0.39676 0.0
C241 C 0.33078 0.80402 0.37593 0.0
C242 C 0.31799 0.82637 0.36561 0.0
C243 C 0.29278 0.84487 0.37577 0.0
C244 C 0.19388 0.92105 0.39188 0.0
C245 C 0.20597 0.92293 0.3708 0.0
C246 C 0.19072 0.94309 0.35862 0.0
C247 C 0.16291 0.96192 0.36715 0.0
C248 C 0.15085 0.96014 0.38823 0.0
C249 C 0.16614 0.93993 0.40046 0.0
C250 C 0.2047 0.8761 0.45917 0.0
C251 C 0.16942 0.89057 0.4677 0.0
C252 C 0.35108 0.61762 0.99095 0.0
C253 C 0.32588 0.63388 1.00371 0.0
C254 C 0.29076 0.6481 0.99481 0.0
C255 C 0.28129 0.64629 0.97359 0.0
H256 H 0.23101 0.69008 0.92306 0.0
H257 H 0.18781 0.72237 0.90436 0.0
H258 H 0.18878 0.67536 0.84952 0.0
H259 H 0.23097 0.64319 0.86801 0.0
H260 H 0.29029 0.5973 0.86497 0.0
H261 H 0.31689 0.56189 0.8444 0.0
H262 H 0.37814 0.52891 0.89891 0.0
H263 H 0.35219 0.56478 0.91964 0.0
H264 H 0.36126 0.60275 0.9604 0.0
H265 H 0.37819 0.60633 0.9974 0.0
H266 H 0.27104 0.66098 1.00422 0.0
H267 H 0.25412 0.65762 0.96725 0.0
N268 N 0.27095 0.64604 0.9286 0.0
N269 N 0.2774 0.6241 0.89717 0.0
N270 N 0.31186 0.6079 0.92705 0.0
C271 C 0.26153 0.64425 0.90799 0.0
C272 C 0.30249 0.60585 0.90646 0.0
C273 C 0.29613 0.62792 0.93826 0.0
C274 C 0.23456 0.66395 0.89711 0.0
C275 C 0.22181 0.68659 0.90705 0.0
C276 C 0.19726 0.70517 0.89631 0.0
C277 C 0.18465 0.70139 0.87548 0.0
C278 C 0.19725 0.67873 0.86564 0.0
C279 C 0.22184 0.6603 0.87627 0.0
C280 C 0.31901 0.584 0.89406 0.0
C281 C 0.3094 0.58256 0.87269 0.0
C282 C 0.32442 0.56211 0.86084 0.0
C283 C 0.34945 0.54246 0.86999 0.0
C284 C 0.35928 0.54386 0.89133 0.0
C285 C 0.3442 0.56438 0.90324 0.0
C286 C 0.30633 0.62993 0.96079 0.0
C287 C 0.3412 0.61551 0.96977 0.0
C288 C 0.85896 0.12101 0.25245 0.0
C289 C 0.84887 0.07606 0.25948 0.0
C290 C 0.87351 0.09883 0.2618 0.0
C291 C 0.81061 0.07562 0.24658 0.0
C292 C 0.81911 0.12098 0.24044 0.0
C293 C 0.7958 0.09804 0.23704 0.0
N294 N 0.88179 0.14292 0.25645 0.0
C295 C 0.86352 0.16571 0.25094 0.0
C296 C 0.80284 0.14416 0.23297 0.0
C297 C 0.82464 0.16668 0.23863 0.0
Gd298 Gd 0.05877 0.14161 0.23736 0.0
Gd299 Gd 0.94927 0.13877 0.27564 0.0
N300 N 0.91099 0.0998 0.2739 0.0
C301 C 0.86282 0.05462 0.27062 0.0
C302 C 0.92338 0.07945 0.28572 0.0
C303 C 0.89978 0.05645 0.28408 0.0
H304 H 0.95213 0.08093 0.29601 0.0
H305 H 0.91024 0.04015 0.29309 0.0
H306 H 0.02983 0.18678 0.2024 0.0
H307 H 0.87846 0.18327 0.25623 0.0
H308 H 0.04551 0.2321 0.1961 0.0
H309 H 0.84472 0.03676 0.2693 0.0
H310 H 0.79154 0.05823 0.24434 0.0
H311 H 0.14291 0.12002 0.26636 0.0
H312 H 0.77236 0.14496 0.22367 0.0
H313 H 0.81109 0.1848 0.23381 0.0
H314 H 0.16683 0.25163 0.24299 0.0
H315 H 0.76542 0.09759 0.22766 0.0
H316 H 0.23042 0.18246 0.28156 0.0
H317 H 0.21101 0.13678 0.28427 0.0
N318 N 0.1244 0.15591 0.25407 0.0
C319 C 0.13573 0.18069 0.25148 0.0
C320 C 0.15157 0.13992 0.26508 0.0
C321 C 0.20081 0.17517 0.27363 0.0
C322 C 0.18997 0.14936 0.2752 0.0
C323 C 0.17383 0.19115 0.26148 0.0
H324 H 0.21294 0.22549 0.2665 0.0
N325 N 0.07482 0.18405 0.22806 0.0
C326 C 0.10961 0.19534 0.23834 0.0
C327 C 0.09656 0.23456 0.21987 0.0
C328 C 0.12114 0.22097 0.23471 0.0
C329 C 0.05367 0.19655 0.21226 0.0
C330 C 0.06328 0.22212 0.2083 0.0
O331 O 0.96576 0.10575 0.25436 0.0
O332 O 0.99224 0.12649 0.22582 0.0
O333 O 0.09395 0.14235 0.20761 0.0
O334 O 0.09484 0.10852 0.22646 0.0
O335 O 0.01277 0.12003 0.28751 0.0
O336 O 0.05567 0.10752 0.25897 0.0
O337 O 0.06303 0.15601 0.27051 0.0
O338 O 0.99353 0.17371 0.27534 0.0
O339 O 0.95595 0.13576 0.30912 0.0
O340 O 0.89551 0.15178 0.29593 0.0
O341 O 0.9921 0.15761 0.22588 0.0
O342 O 0.95817 0.17368 0.25523 0.0
C343 C 0.97198 0.10692 0.23423 0.0
C344 C 0.04281 0.10517 0.27856 0.0
C345 C 0.09128 0.10292 0.18994 0.0
C346 C 0.09189 0.09654 0.15223 0.0
C347 C 0.05509 0.06572 0.17493 0.0
C348 C 0.06672 0.08015 0.19224 0.0
C349 C 0.06761 0.07373 0.15511 0.0
C350 C 0.1038 0.11099 0.16987 0.0
C351 C 0.10367 0.11832 0.20834 0.0
C352 C 0.15779 0.23189 0.2454 0.0
C353 C 0.18413 0.21699 0.25874 0.0
H354 H 0.10431 0.25429 0.21662 0.0
C355 C 0.03709 0.17326 0.279 0.0
C356 C 0.9657 0.17422 0.23508 0.0
C357 C 0.91967 0.16742 0.32838 0.0
C358 C 0.91298 0.18082 0.36454 0.0
C359 C 0.93499 0.21116 0.33777 0.0
C360 C 0.93195 0.19221 0.32271 0.0
C361 C 0.92559 0.20557 0.35854 0.0
C362 C 0.91023 0.16179 0.34924 0.0
C363 C 0.91789 0.14706 0.31285 0.0
H364 H 0.03631 0.04819 0.17689 0.0
H365 H 0.05634 0.07342 0.20741 0.0
H366 H 0.05869 0.06181 0.14205 0.0
H367 H 0.12218 0.12869 0.16802 0.0
H368 H 0.94455 0.23027 0.33332 0.0
H369 H 0.93916 0.19683 0.30668 0.0
H370 H 0.92757 0.22072 0.36986 0.0
H371 H 0.90145 0.14248 0.35356 0.0
C372 C 0.65394 0.37909 0.75888 0.0
C373 C 0.66047 0.42496 0.76156 0.0
C374 C 0.6356 0.40234 0.76456 0.0
C375 C 0.70386 0.42389 0.75278 0.0
C376 C 0.69754 0.37796 0.7501 0.0
C377 C 0.72233 0.40048 0.74706 0.0
N378 N 0.62894 0.35763 0.76169 0.0
C379 C 0.64597 0.33441 0.75673 0.0
C380 C 0.71484 0.35423 0.74453 0.0
C381 C 0.68901 0.33235 0.74796 0.0
Gd382 Gd 0.44456 0.36346 0.74029 0.0
Gd383 Gd 0.55684 0.36322 0.7759 0.0
N384 N 0.59279 0.40288 0.77233 0.0
C385 C 0.64083 0.448 0.76735 0.0
C386 C 0.57425 0.42518 0.77875 0.0
C387 C 0.5977 0.44808 0.77614 0.0
H388 H 0.54161 0.4255 0.78603 0.0
H389 H 0.58257 0.46576 0.78101 0.0
H390 H 0.46928 0.30715 0.71725 0.0
H391 H 0.62672 0.31742 0.75998 0.0
H392 H 0.44351 0.26287 0.71898 0.0
H393 H 0.65881 0.46579 0.76527 0.0
H394 H 0.72338 0.44109 0.75029 0.0
H395 H 0.36696 0.39763 0.76506 0.0
H396 H 0.74819 0.35258 0.73773 0.0
H397 H 0.70233 0.31389 0.74397 0.0
H398 H 0.31125 0.26588 0.76185 0.0
H399 H 0.75583 0.39998 0.74028 0.0
H400 H 0.26333 0.34712 0.78677 0.0
H401 H 0.29522 0.39051 0.78393 0.0
N402 N 0.37554 0.3587 0.75762 0.0
C403 C 0.35827 0.33477 0.75863 0.0
C404 C 0.35337 0.37864 0.76636 0.0
C405 C 0.29475 0.35014 0.77847 0.0
C406 C 0.31269 0.37467 0.77694 0.0
C407 C 0.31751 0.32982 0.76925 0.0
H408 H 0.2699 0.30062 0.77869 0.0
N409 N 0.42157 0.32054 0.73933 0.0
C410 C 0.38214 0.31512 0.74939 0.0
C411 C 0.38834 0.27099 0.73968 0.0
C412 C 0.36498 0.2901 0.75016 0.0
C413 C 0.44203 0.30238 0.72759 0.0
C414 C 0.42652 0.27727 0.72801 0.0
O415 O 0.56087 0.38311 0.74461 0.0
O416 O 0.48916 0.39805 0.7384 0.0
O417 O 0.43864 0.36041 0.70675 0.0
O418 O 0.39108 0.38323 0.72382 0.0
O419 O 0.49601 0.3849 0.7878 0.0
O420 O 0.45287 0.39874 0.75984 0.0
O421 O 0.44141 0.34819 0.77325 0.0
O422 O 0.51016 0.32928 0.77723 0.0
O423 O 0.55599 0.37079 0.80906 0.0
O424 O 0.60634 0.34576 0.79617 0.0
O425 O 0.50916 0.34584 0.72779 0.0
O426 O 0.54361 0.32856 0.7565 0.0
C427 C 0.53292 0.39869 0.73523 0.0
C428 C 0.46578 0.40017 0.77943 0.0
C429 C 0.36481 0.36302 0.69321 0.0
C430 C 0.33143 0.35522 0.659 0.0
C431 C 0.29435 0.33956 0.69029 0.0
C432 C 0.32874 0.34989 0.7025 0.0
C433 C 0.29555 0.34219 0.66873 0.0
C434 C 0.36604 0.36563 0.67147 0.0
C435 C 0.40177 0.37373 0.70586 0.0
C436 C 0.32469 0.28503 0.76097 0.0
C437 C 0.30103 0.30483 0.77049 0.0
H438 H 0.37624 0.25154 0.73986 0.0
C439 C 0.46693 0.33062 0.78154 0.0
C440 C 0.53728 0.32957 0.73634 0.0
C441 C 0.58018 0.33672 0.82991 0.0
C442 C 0.58201 0.32627 0.86685 0.0
C443 C 0.55299 0.2957 0.84182 0.0
C444 C 0.56176 0.31271 0.82569 0.0
C445 C 0.56298 0.30239 0.86228 0.0
C446 C 0.59035 0.34343 0.85047 0.0
C447 C 0.58857 0.35494 0.81301 0.0
H448 H 0.26652 0.32955 0.69758 0.0
H449 H 0.32699 0.34767 0.71915 0.0
H450 H 0.26799 0.33432 0.65971 0.0
H451 H 0.39428 0.37548 0.6643 0.0
H452 H 0.53873 0.27719 0.83845 0.0
H453 H 0.55446 0.30711 0.8099 0.0
H454 H 0.55662 0.28866 0.87448 0.0
H455 H 0.60436 0.36207 0.8537 0.0
C456 C 0.8583 0.83605 0.76023 0.0
C457 C 0.86197 0.79352 0.77452 0.0
C458 C 0.88086 0.81799 0.77203 0.0
C459 C 0.82165 0.78716 0.7642 0.0
C460 C 0.81739 0.82991 0.75016 0.0
C461 C 0.79945 0.8053 0.75205 0.0
N462 N 0.87714 0.85951 0.75813 0.0
C463 C 0.85625 0.87798 0.74684 0.0
C464 C 0.79595 0.84867 0.73834 0.0
C465 C 0.81538 0.87284 0.73675 0.0
Gd466 Gd 0.0585 0.85735 0.73964 0.0
Gd467 Gd 0.94587 0.86644 0.77525 0.0
N468 N 0.92014 0.82463 0.78172 0.0
C469 C 0.8834 0.77638 0.78783 0.0
C470 C 0.93818 0.80885 0.79635 0.0
C471 C 0.92109 0.7843 0.79914 0.0
H472 H 0.96462 0.81524 0.80656 0.0
H473 H 0.93635 0.7717 0.81041 0.0
H474 H 0.05028 0.91625 0.71837 0.0
H475 H 0.87136 0.89663 0.74556 0.0
H476 H 0.09371 0.95593 0.71778 0.0
H477 H 0.86993 0.75743 0.7902 0.0
H478 H 0.80694 0.76838 0.76581 0.0
H479 H 0.12346 0.81511 0.76408 0.0
H480 H 0.76447 0.84469 0.73037 0.0
H481 H 0.799 0.88746 0.72769 0.0
H482 H 0.2295 0.93636 0.75498 0.0
H483 H 0.76821 0.80016 0.7443 0.0
H484 H 0.24655 0.85212 0.78192 0.0
H485 H 0.19785 0.81378 0.78146 0.0
N486 N 0.12923 0.85394 0.75569 0.0
C487 C 0.15584 0.87505 0.7553 0.0
C488 C 0.14399 0.83206 0.76469 0.0
C489 C 0.21379 0.85283 0.77443 0.0
C490 C 0.18634 0.83118 0.77428 0.0
C491 C 0.19876 0.87511 0.76483 0.0
H492 H 0.25807 0.89778 0.77192 0.0
N493 N 0.09737 0.89642 0.73725 0.0
C494 C 0.13948 0.8969 0.74583 0.0
C495 C 0.14889 0.94078 0.73562 0.0
C496 C 0.16602 0.91923 0.74552 0.0
C497 C 0.0816 0.91704 0.72671 0.0
C498 C 0.10672 0.93957 0.72598 0.0
O499 O 0.93852 0.84921 0.74325 0.0
O500 O 0.00427 0.82727 0.74126 0.0
O501 O 0.06444 0.85768 0.70549 0.0
O502 O 0.10234 0.83063 0.72449 0.0
O503 O 0.00767 0.84783 0.78963 0.0
O504 O 0.03847 0.82637 0.76202 0.0
O505 O 0.06702 0.87929 0.76977 0.0
O506 O 0.99763 0.89787 0.77417 0.0
O507 O 0.93285 0.86918 0.80872 0.0
O508 O 0.89604 0.89297 0.78673 0.0
O509 O 0.00113 0.88046 0.72561 0.0
O510 O 0.96137 0.89844 0.75303 0.0
C511 C 0.96288 0.83119 0.73497 0.0
C512 C 0.03368 0.82981 0.7821 0.0
C513 C 0.11269 0.82656 0.68751 0.0
C514 C 0.1288 0.82551 0.65032 0.0
C515 C 0.14786 0.78945 0.67211 0.0
C516 C 0.13104 0.80209 0.68942 0.0
C517 C 0.14655 0.80098 0.65266 0.0
C518 C 0.11204 0.83838 0.66786 0.0
C519 C 0.09267 0.83874 0.70598 0.0
C520 C 0.20876 0.91935 0.75501 0.0
C521 C 0.22506 0.89736 0.76464 0.0
H522 H 0.16825 0.95828 0.73503 0.0
C523 C 0.04089 0.89643 0.77836 0.0
C524 C 0.97287 0.89744 0.73325 0.0
C525 C 0.87719 0.89878 0.82305 0.0
C526 C 0.8595 0.90326 0.85992 0.0
C527 C 0.82596 0.9318 0.83465 0.0
C528 C 0.84867 0.91938 0.81869 0.0
C529 C 0.83147 0.92392 0.85514 0.0
C530 C 0.88212 0.89058 0.84376 0.0
C531 C 0.90252 0.88669 0.80598 0.0
H532 H 0.16172 0.77058 0.67376 0.0
H533 H 0.13181 0.79249 0.7043 0.0
H534 H 0.15986 0.79083 0.6394 0.0
H535 H 0.09795 0.85722 0.66612 0.0
H536 H 0.80418 0.94769 0.83113 0.0
H537 H 0.84419 0.92611 0.80293 0.0
H538 H 0.81348 0.93385 0.8673 0.0
H539 H 0.90413 0.87479 0.84737 0.0
C540 C 0.65082 0.66837 0.25711 0.0
C541 C 0.64863 0.71104 0.27115 0.0
C542 C 0.62998 0.68641 0.26959 0.0
C543 C 0.68684 0.71757 0.2593 0.0
C544 C 0.68955 0.67472 0.24544 0.0
C545 C 0.7072 0.69948 0.24647 0.0
N546 N 0.63204 0.64481 0.25579 0.0
C547 C 0.65126 0.62637 0.24388 0.0
C548 C 0.70907 0.65605 0.23289 0.0
C549 C 0.68998 0.63174 0.2322 0.0
Gd550 Gd 0.45154 0.64671 0.24155 0.0
Gd551 Gd 0.56634 0.63775 0.27528 0.0
N552 N 0.59243 0.67968 0.28062 0.0
C553 C 0.62903 0.72821 0.28498 0.0
C554 C 0.5763 0.69556 0.2956 0.0
C555 C 0.59335 0.72024 0.29758 0.0
H556 H 0.55136 0.68919 0.30661 0.0
H557 H 0.57956 0.73291 0.30915 0.0
H558 H 0.45865 0.58942 0.21744 0.0
H559 H 0.6363 0.60762 0.24326 0.0
H560 H 0.41736 0.549 0.21704 0.0
H561 H 0.64239 0.74729 0.28666 0.0
H562 H 0.7013 0.73648 0.26018 0.0
H563 H 0.38706 0.68708 0.2681 0.0
H564 H 0.73884 0.66021 0.22368 0.0
H565 H 0.70494 0.61719 0.2226 0.0
H566 H 0.28603 0.56457 0.2586 0.0
H567 H 0.73675 0.70478 0.23749 0.0
H568 H 0.2677 0.64755 0.28772 0.0
H569 H 0.31438 0.68666 0.287 0.0
N570 N 0.38222 0.64849 0.25898 0.0
C571 C 0.35663 0.62699 0.2587 0.0
C572 C 0.36735 0.66983 0.26873 0.0
C573 C 0.29967 0.64762 0.27952 0.0
C574 C 0.32599 0.66971 0.27922 0.0
C575 C 0.31478 0.62591 0.26915 0.0
H576 H 0.25748 0.60202 0.27708 0.0
N577 N 0.41408 0.60724 0.23882 0.0
C578 C 0.3731 0.60574 0.24842 0.0
C579 C 0.36435 0.56227 0.23712 0.0
C580 C 0.34755 0.58305 0.24812 0.0
C581 C 0.42901 0.58755 0.22695 0.0
C582 C 0.40492 0.56466 0.22624 0.0
O583 O 0.56942 0.6544 0.24286 0.0
O584 O 0.50471 0.67751 0.24185 0.0
O585 O 0.44318 0.64685 0.20758 0.0
O586 O 0.40504 0.67295 0.22729 0.0
O587 O 0.50611 0.65665 0.29069 0.0
O588 O 0.47272 0.67784 0.26347 0.0
O589 O 0.4452 0.6254 0.27217 0.0
O590 O 0.51447 0.60635 0.27695 0.0
O591 O 0.58463 0.63581 0.30828 0.0
O592 O 0.61833 0.61176 0.2855 0.0
O593 O 0.50849 0.62376 0.22718 0.0
O594 O 0.54755 0.60502 0.25447 0.0
C595 C 0.54639 0.67375 0.23589 0.0
C596 C 0.47957 0.67465 0.28346 0.0
C597 C 0.3917 0.67693 0.19037 0.0
C598 C 0.37442 0.67815 0.15327 0.0
C599 C 0.35138 0.71282 0.17563 0.0
C600 C 0.37024 0.70052 0.1927 0.0
C601 C 0.35367 0.70182 0.15602 0.0
C602 C 0.39329 0.6656 0.17055 0.0
C603 C 0.41384 0.66522 0.20859 0.0
C604 C 0.30596 0.58188 0.2586 0.0
C605 C 0.28964 0.60324 0.26908 0.0
H606 H 0.34572 0.54452 0.23649 0.0
C607 C 0.47073 0.60757 0.28025 0.0
C608 C 0.53514 0.60601 0.23485 0.0
C609 C 0.64324 0.60693 0.32116 0.0
C610 C 0.66452 0.6018 0.3576 0.0
C611 C 0.70005 0.57598 0.33104 0.0
C612 C 0.67429 0.58791 0.3158 0.0
C613 C 0.69507 0.58274 0.35181 0.0
C614 C 0.63886 0.61406 0.34216 0.0
C615 C 0.61487 0.61845 0.30481 0.0
H616 H 0.33517 0.73103 0.17759 0.0
H617 H 0.3686 0.70973 0.2077 0.0
H618 H 0.33882 0.71171 0.14295 0.0
H619 H 0.40971 0.64743 0.16847 0.0
H620 H 0.72378 0.56132 0.32675 0.0
H621 H 0.6785 0.58206 0.29981 0.0
H622 H 0.71541 0.57318 0.36339 0.0
H623 H 0.61491 0.6286 0.34655 0.0
H624 H 0.15647 0.0122 0.37754 0.0
H625 H 0.13263 0.96 0.32701 0.0
H626 H 0.12984 0.04715 0.35598 0.0
H627 H 0.10616 0.99497 0.30545 0.0
H628 H 0.10182 0.06784 0.26651 0.0
H629 H 0.1327 0.03368 0.28782 0.0
H630 H 0.05915 0.06184 0.34085 0.0
H631 H 0.02898 0.09606 0.31984 0.0
C632 C 0.14524 0.00814 0.36189 0.0
C633 C 0.14663 0.98328 0.35403 0.0
C634 C 0.13006 0.02819 0.34951 0.0
C635 C 0.11591 0.02385 0.32898 0.0
C636 C 0.11752 0.99902 0.32108 0.0
C637 C 0.13264 0.97897 0.33346 0.0
C638 C 0.09241 0.06683 0.28274 0.0
C639 C 0.06284 0.08474 0.29141 0.0
C640 C 0.10991 0.04716 0.29492 0.0
C641 C 0.09838 0.04504 0.31604 0.0
C642 C 0.06922 0.0631 0.32472 0.0
C643 C 0.05167 0.08267 0.31257 0.0
H644 H 0.30332 0.51699 0.83952 0.0
H645 H 0.43181 0.51893 0.87134 0.0
H646 H 0.33028 0.48245 0.81771 0.0
H647 H 0.45874 0.48436 0.84954 0.0
H648 H 0.4757 0.40577 0.82134 0.0
H649 H 0.44662 0.43941 0.8433 0.0
H650 H 0.38449 0.47455 0.7899 0.0
H651 H 0.41317 0.44062 0.76784 0.0
C652 C 0.33743 0.51015 0.84179 0.0
C653 C 0.36544 0.52079 0.85717 0.0
C654 C 0.35288 0.49036 0.82926 0.0
C655 C 0.3967 0.48066 0.83183 0.0
C656 C 0.42457 0.49113 0.84734 0.0
C657 C 0.40912 0.51094 0.85986 0.0
C658 C 0.4558 0.42062 0.81422 0.0
C659 C 0.44681 0.42045 0.79277 0.0
C660 C 0.43931 0.44001 0.82684 0.0
C661 C 0.41338 0.45975 0.81837 0.0
C662 C 0.40393 0.45947 0.79697 0.0
C663 C 0.4205 0.44005 0.7843 0.0
H664 H 0.70093 0.51472 0.67707 0.0
H665 H 0.5769 0.51536 0.64169 0.0
H666 H 0.67083 0.48057 0.69873 0.0
H667 H 0.54748 0.48062 0.66285 0.0
H668 H 0.48998 0.4407 0.72027 0.0
H669 H 0.52114 0.47409 0.69828 0.0
H670 H 0.64975 0.43561 0.69733 0.0
H671 H 0.61858 0.40215 0.7193 0.0
C672 C 0.66729 0.50753 0.67388 0.0
C673 C 0.64125 0.51784 0.6577 0.0
C674 C 0.65023 0.48778 0.68616 0.0
C675 C 0.6067 0.47792 0.68256 0.0
C676 C 0.58092 0.488 0.6662 0.0
C677 C 0.598 0.50771 0.65391 0.0
C678 C 0.52486 0.43928 0.71532 0.0
C679 C 0.55186 0.41882 0.72168 0.0
C680 C 0.54268 0.45839 0.70264 0.0
C681 C 0.58791 0.4575 0.69601 0.0
C682 C 0.61493 0.43703 0.70237 0.0
C683 C 0.59704 0.41785 0.71498 0.0
H684 H 0.93166 0.99351 0.13778 0.0
H685 H 0.82199 0.98141 0.1811 0.0
H686 H 0.95857 0.0291 0.1587 0.0
H687 H 0.84988 0.01646 0.20224 0.0
H688 H 0.9492 0.05872 0.24579 0.0
H689 H 0.92023 0.02461 0.22393 0.0
H690 H 0.93265 0.07307 0.17012 0.0
H691 H 0.96018 0.10758 0.19216 0.0
C692 C 0.913 0.99853 0.15162 0.0
C693 C 0.87471 0.98443 0.15777 0.0
C694 C 0.92856 0.01888 0.16363 0.0
C695 C 0.90646 0.0254 0.18214 0.0
C696 C 0.86797 0.01157 0.18819 0.0
C697 C 0.85213 0.99143 0.1761 0.0
C698 C 0.94482 0.06229 0.2294 0.0
C699 C 0.9559 0.08602 0.22082 0.0
C700 C 0.92853 0.04271 0.21685 0.0
C701 C 0.92386 0.04627 0.19536 0.0
C702 C 0.93596 0.06981 0.18665 0.0
C703 C 0.95164 0.08954 0.19928 0.0
H704 H 0.86174 0.99105 0.63292 0.0
H705 H 0.90294 0.04323 0.68105 0.0
H706 H 0.88856 0.95546 0.65397 0.0
H707 H 0.92984 0.0079 0.70193 0.0
H708 H 0.92367 0.93923 0.74386 0.0
H709 H 0.89722 0.97306 0.72139 0.0
H710 H 0.95681 0.93576 0.66845 0.0
H711 H 0.98248 0.90135 0.69093 0.0
C712 C 0.87698 0.99493 0.64787 0.0
C713 C 0.87976 0.01993 0.65542 0.0
C714 C 0.89233 0.97456 0.65993 0.0
C715 C 0.91084 0.9788 0.67975 0.0
C716 C 0.91476 0.00388 0.68697 0.0
C717 C 0.8994 0.02416 0.67498 0.0
C718 C 0.93103 0.93807 0.72742 0.0
C719 C 0.95552 0.91758 0.71926 0.0
C720 C 0.91611 0.95763 0.71454 0.0
C721 C 0.92533 0.95729 0.69314 0.0
C722 C 0.94895 0.93654 0.68485 0.0
C723 C 0.96388 0.91689 0.69777 0.0
H724 H 0.69157 0.51294 0.1505 0.0
H725 H 0.57062 0.46917 0.16241 0.0
H726 H 0.66231 0.54742 0.17228 0.0
H727 H 0.542 0.50331 0.18462 0.0
H728 H 0.55202 0.55665 0.24429 0.0
H729 H 0.579 0.52338 0.22089 0.0
H730 H 0.58408 0.57741 0.17055 0.0
H731 H 0.55583 0.61063 0.19381 0.0
C732 C 0.65873 0.5108 0.15775 0.0
C733 C 0.63318 0.48856 0.15481 0.0
C734 C 0.64202 0.53046 0.1701 0.0
C735 C 0.60006 0.52785 0.18006 0.0
C736 C 0.5745 0.50564 0.17709 0.0
C737 C 0.59071 0.48625 0.16437 0.0
C738 C 0.55891 0.56139 0.22823 0.0
C739 C 0.55186 0.58612 0.22079 0.0
C740 C 0.57408 0.54238 0.21488 0.0
C741 C 0.58347 0.54796 0.19401 0.0
C742 C 0.57706 0.57276 0.18662 0.0
C743 C 0.5608 0.59164 0.19986 0.0
H744 H 0.33492 0.51915 0.37681 0.0
H745 H 0.38241 0.46389 0.33253 0.0
H746 H 0.36561 0.55335 0.35508 0.0
H747 H 0.41193 0.49788 0.31072 0.0
H748 H 0.50688 0.56194 0.2909 0.0
H749 H 0.47384 0.52892 0.31256 0.0
H750 H 0.35357 0.57407 0.32034 0.0
H751 H 0.38724 0.60762 0.29896 0.0
C752 C 0.35193 0.51432 0.36248 0.0
C753 C 0.35622 0.48882 0.35639 0.0
C754 C 0.36905 0.53389 0.34994 0.0
C755 C 0.39119 0.52831 0.33118 0.0
C756 C 0.39541 0.50281 0.32515 0.0
C757 C 0.37813 0.48333 0.33758 0.0
C758 C 0.4734 0.56492 0.29722 0.0
C759 C 0.44961 0.58741 0.29309 0.0
C760 C 0.45433 0.54588 0.30953 0.0
C761 C 0.41103 0.54882 0.31812 0.0
C762 C 0.38715 0.57132 0.31406 0.0
C763 C 0.40622 0.59041 0.30163 0.0
H764 H 0.08543 0.00939 0.87423 0.0
H765 H 0.21078 0.00937 0.83983 0.0
H766 H 0.05698 0.97495 0.85263 0.0
H767 H 0.18152 0.9756 0.81763 0.0
H768 H 0.1274 0.89876 0.79387 0.0
H769 H 0.15929 0.93085 0.817 0.0
H770 H 0.03153 0.97022 0.81722 0.0
H771 H 0.99968 0.93826 0.79434 0.0
C772 C 0.10709 0.00191 0.86217 0.0
C773 C 0.15033 0.01225 0.85872 0.0
C774 C 0.09055 0.98237 0.8496 0.0
C775 C 0.11679 0.97268 0.83325 0.0
C776 C 0.16051 0.98252 0.83014 0.0
C777 C 0.17707 0.00209 0.84273 0.0
C778 C 0.10625 0.91436 0.79871 0.0
C779 C 0.06105 0.91596 0.79212 0.0
C780 C 0.12453 0.93276 0.81199 0.0
C781 C 0.09788 0.95304 0.81908 0.0
C782 C 0.05278 0.95462 0.81239 0.0
C783 C 0.0346 0.93633 0.79912 0.0
H784 H 0.09874 0.13722 0.02052 0.0
H785 H 0.23604 0.11733 0.03571 0.0
H786 H 0.07779 0.13386 0.05699 0.0
H787 H 0.21497 0.11277 0.07218 0.0
H788 H 0.1707 0.11971 0.13916 0.0
H789 H 0.19225 0.13124 0.10383 0.0
H790 H 0.06446 0.10212 0.08139 0.0
H791 H 0.04187 0.09235 0.11662 0.0
C792 C 0.12444 0.13214 0.03174 0.0
C793 C 0.16893 0.12739 0.02529 0.0
C794 C 0.11244 0.13002 0.05266 0.0
C795 C 0.14444 0.12263 0.06766 0.0
C796 C 0.18941 0.11876 0.06122 0.0
C797 C 0.20155 0.12127 0.04029 0.0
C798 C 0.14684 0.11626 0.12673 0.0
C799 C 0.10462 0.10488 0.13083 0.0
C800 C 0.15948 0.12256 0.10637 0.0
C801 C 0.13031 0.11755 0.08957 0.0
C802 C 0.08775 0.10666 0.09381 0.0
C803 C 0.07501 0.10061 0.1141 0.0
H804 H 0.29043 0.40992 0.53305 0.0
H805 H 0.34025 0.33377 0.52431 0.0
H806 H 0.29987 0.40543 0.57047 0.0
H807 H 0.35013 0.32932 0.56169 0.0
H808 H 0.30863 0.31965 0.62979 0.0
H809 H 0.30495 0.32478 0.59232 0.0
H810 H 0.35421 0.40179 0.59822 0.0
H811 H 0.35596 0.39699 0.6359 0.0
C812 C 0.30398 0.39234 0.53909 0.0
C813 C 0.31432 0.37216 0.52566 0.0
C814 C 0.30948 0.38976 0.56058 0.0
C815 C 0.3256 0.36696 0.56919 0.0
C816 C 0.33682 0.34698 0.55569 0.0
C817 C 0.33118 0.34953 0.53423 0.0
C818 C 0.31842 0.33775 0.62314 0.0
C819 C 0.33224 0.35797 0.63594 0.0
C820 C 0.31687 0.3406 0.60157 0.0
C821 C 0.32922 0.36373 0.59216 0.0
C822 C 0.3439 0.38381 0.60492 0.0
C823 C 0.34543 0.38096 0.62654 0.0
H824 H 0.72098 0.34538 0.98456 0.0
H825 H 0.58462 0.36959 0.9976 0.0
H826 H 0.69998 0.33732 0.94854 0.0
H827 H 0.56403 0.36232 0.96144 0.0
H828 H 0.53216 0.31752 0.90193 0.0
H829 H 0.55289 0.32667 0.93778 0.0
H830 H 0.67856 0.36003 0.91684 0.0
H831 H 0.65842 0.35014 0.881 0.0
C832 C 0.68652 0.34897 0.97975 0.0
C833 C 0.65446 0.35807 0.99398 0.0
C834 C 0.67462 0.34463 0.95904 0.0
C835 C 0.63033 0.3492 0.9521 0.0
C836 C 0.59832 0.35838 0.96632 0.0
C837 C 0.61025 0.36279 0.987 0.0
C838 C 0.56431 0.3267 0.90498 0.0
C839 C 0.5937 0.33301 0.88861 0.0
C840 C 0.57599 0.33218 0.92552 0.0
C841 C 0.61742 0.34405 0.93019 0.0
C842 C 0.64662 0.35062 0.91379 0.0
C843 C 0.63485 0.34522 0.89324 0.0
H844 H 0.83613 0.11093 0.48257 0.0
H845 H 0.86478 0.18931 0.49744 0.0
H846 H 0.85595 0.11907 0.44639 0.0
H847 H 0.88297 0.19766 0.46119 0.0
H848 H 0.95789 0.1973 0.39921 0.0
H849 H 0.94032 0.18813 0.43543 0.0
H850 H 0.82719 0.14168 0.41615 0.0
H851 H 0.84474 0.15088 0.37993 0.0
C852 C 0.84675 0.12988 0.47814 0.0
C853 C 0.84882 0.14946 0.49292 0.0
C854 C 0.85763 0.13462 0.45735 0.0
C855 C 0.87101 0.15903 0.45086 0.0
C856 C 0.87327 0.17857 0.46567 0.0
C857 C 0.8623 0.17385 0.48643 0.0
C858 C 0.92907 0.18529 0.4027 0.0
C859 C 0.90268 0.17488 0.38664 0.0
C860 C 0.91899 0.18001 0.42347 0.0
C861 C 0.88228 0.1642 0.42872 0.0
C862 C 0.8561 0.15364 0.41266 0.0
C863 C 0.86616 0.15892 0.39188 0.0
H864 H 0.91686 0.88979 0.99228 0.0
H865 H 0.7888 0.85199 0.98205 0.0
H866 H 0.92641 0.89478 0.95492 0.0
H867 H 0.79909 0.8565 0.94462 0.0
H868 H 0.84771 0.85594 0.87674 0.0
H869 H 0.84878 0.84444 0.91371 0.0
H870 H 0.88398 0.92176 0.92928 0.0
H871 H 0.88271 0.93313 0.89256 0.0
C872 C 0.89085 0.8824 0.98209 0.0
C873 C 0.85169 0.87084 0.99025 0.0
C874 C 0.89647 0.88517 0.96068 0.0
C875 C 0.86334 0.87622 0.94686 0.0
C876 C 0.82539 0.86341 0.95489 0.0
C877 C 0.81954 0.86081 0.97636 0.0
C878 C 0.85634 0.87029 0.88811 0.0
C879 C 0.86495 0.89542 0.88188 0.0
C880 C 0.85666 0.86378 0.90922 0.0
C881 C 0.86642 0.88221 0.92437 0.0
C882 C 0.87676 0.90709 0.91797 0.0
C883 C 0.87577 0.91365 0.89699 0.0
H884 H 0.73539 0.65037 0.48058 0.0
H885 H 0.61375 0.60636 0.49089 0.0
H886 H 0.72403 0.64695 0.44313 0.0
H887 H 0.60318 0.60251 0.45352 0.0
H888 H 0.64775 0.56945 0.38953 0.0
H889 H 0.64757 0.57887 0.42658 0.0
H890 H 0.67107 0.65818 0.41313 0.0
H891 H 0.67107 0.64863 0.3758 0.0
C892 C 0.70583 0.64035 0.47492 0.0
C893 C 0.67586 0.62833 0.48881 0.0
C894 C 0.69935 0.63839 0.45344 0.0
C895 C 0.66295 0.62426 0.4454 0.0
C896 C 0.63195 0.61319 0.45926 0.0
C897 C 0.63818 0.6153 0.48068 0.0
C898 C 0.65236 0.58894 0.39449 0.0
C899 C 0.65957 0.60831 0.37986 0.0
C900 C 0.652 0.59436 0.41569 0.0
C901 C 0.65938 0.61927 0.42276 0.0
C902 C 0.66555 0.6388 0.4081 0.0
C903 C 0.66522 0.6334 0.3868 0.0
H904 H 0.26709 0.63289 0.03643 0.0
H905 H 0.40878 0.64075 0.02167 0.0
H906 H 0.28408 0.63972 0.07317 0.0
H907 H 0.42578 0.64763 0.05843 0.0
H908 H 0.41445 0.69811 0.11905 0.0
H909 H 0.40643 0.68387 0.08312 0.0
H910 H 0.32677 0.61979 0.10387 0.0
H911 H 0.33549 0.63399 0.13997 0.0
C912 C 0.30188 0.63594 0.04107 0.0
C913 C 0.33657 0.63641 0.02617 0.0
C914 C 0.31167 0.6396 0.06211 0.0
C915 C 0.35628 0.64418 0.06867 0.0
C916 C 0.39108 0.6442 0.05381 0.0
C917 C 0.38138 0.64016 0.03281 0.0
C918 C 0.39615 0.68066 0.11591 0.0
C919 C 0.37572 0.66706 0.13218 0.0
C920 C 0.3916 0.67249 0.09539 0.0
C921 C 0.36579 0.65078 0.09068 0.0
C922 C 0.34663 0.63667 0.10705 0.0
C923 C 0.35189 0.64463 0.12767 0.0
H924 H 0.24068 0.87354 0.53517 0.0
H925 H 0.09968 0.86575 0.51904 0.0
H926 H 0.22207 0.8663 0.57169 0.0
H927 H 0.08104 0.85854 0.5556 0.0
H928 H 0.08974 0.80669 0.61546 0.0
H929 H 0.0991 0.82195 0.57988 0.0
H930 H 0.17848 0.88524 0.60228 0.0
H931 H 0.1686 0.86995 0.63805 0.0
C932 C 0.20568 0.87046 0.53947 0.0
C933 C 0.17167 0.87005 0.52425 0.0
C934 C 0.19497 0.86657 0.56039 0.0
C935 C 0.1501 0.86186 0.56649 0.0
C936 C 0.11593 0.86204 0.55132 0.0
C937 C 0.12657 0.86628 0.53044 0.0
C938 C 0.10837 0.82415 0.61277 0.0
C939 C 0.12848 0.83718 0.62941 0.0
C940 C 0.11361 0.83294 0.59245 0.0
C941 C 0.1397 0.85472 0.5883 0.0
C942 C 0.15843 0.8683 0.60504 0.0
C943 C 0.15252 0.85971 0.62546 0.0
H944 H 0.13239 0.31198 0.33664 0.0
H945 H 0.18123 0.25335 0.37777 0.0
H946 H 0.09647 0.27997 0.31504 0.0
H947 H 0.14311 0.2213 0.35669 0.0
H948 H 0.11592 0.1696 0.30077 0.0
H949 H 0.15021 0.20126 0.32344 0.0
H950 H 0.03546 0.25036 0.31373 0.0
H951 H 0.00286 0.21934 0.28996 0.0
C952 C 0.13536 0.29224 0.34114 0.0
C953 C 0.16015 0.28526 0.35886 0.0
C954 C 0.11417 0.27387 0.32887 0.0
C955 C 0.11688 0.24799 0.33407 0.0
C956 C 0.14083 0.24102 0.35206 0.0
C957 C 0.16222 0.25943 0.36431 0.0
C958 C 0.09839 0.18731 0.30326 0.0
C959 C 0.05698 0.19209 0.2934 0.0
C960 C 0.11767 0.20531 0.31654 0.0
C961 C 0.09565 0.22843 0.32046 0.0
C962 C 0.05373 0.23296 0.31085 0.0
C963 C 0.03474 0.21505 0.29741 0.0
H964 H 0.3221 0.24985 0.87989 0.0
H965 H 0.36813 0.19138 0.83807 0.0
H966 H 0.36011 0.28188 0.85867 0.0
H967 H 0.40359 0.22336 0.81629 0.0
H968 H 0.49811 0.28325 0.79078 0.0
H969 H 0.46479 0.25208 0.81422 0.0
H970 H 0.35327 0.30284 0.8259 0.0
H971 H 0.38843 0.33466 0.80354 0.0
C972 C 0.34044 0.24379 0.86624 0.0
C973 C 0.34174 0.21799 0.86067 0.0
C974 C 0.36173 0.26221 0.85389 0.0
C975 C 0.38477 0.25529 0.83564 0.0
C976 C 0.38665 0.22945 0.8303 0.0
C977 C 0.36568 0.21108 0.84269 0.0
C978 C 0.46687 0.28791 0.79864 0.0
C979 C 0.44614 0.3115 0.79547 0.0
C980 C 0.44737 0.26988 0.81187 0.0
C981 C 0.40622 0.27486 0.82202 0.0
C982 C 0.38533 0.29846 0.81867 0.0
C983 C 0.40517 0.3166 0.80562 0.0
H984 H 0.72402 0.2195 0.68541 0.0
H985 H 0.62706 0.23064 0.63616 0.0
H986 H 0.68432 0.25036 0.70671 0.0
H987 H 0.58718 0.26156 0.65753 0.0
H988 H 0.57294 0.28377 0.74731 0.0
H989 H 0.61298 0.25382 0.72523 0.0
H990 H 0.59497 0.30387 0.67273 0.0
H991 H 0.55465 0.33381 0.69486 0.0
C992 C 0.69404 0.22843 0.67917 0.0
C993 C 0.67855 0.22248 0.65912 0.0
C994 C 0.67126 0.24611 0.6914 0.0
C995 C 0.63238 0.25831 0.68389 0.0
C996 C 0.6173 0.25271 0.6637 0.0
C997 C 0.64014 0.235 0.65145 0.0
C998 C 0.57786 0.28847 0.73109 0.0
C999 C 0.56116 0.31128 0.72287 0.0
C1000 C 0.60085 0.27133 0.71844 0.0
C1001 C 0.60746 0.27652 0.69723 0.0
C1002 C 0.59013 0.29919 0.68895 0.0
C1003 C 0.56718 0.31637 0.70164 0.0
H1004 H 0.79061 0.2925 0.18674 0.0
H1005 H 0.88125 0.27594 0.13603 0.0
H1006 H 0.82791 0.26055 0.20798 0.0
H1007 H 0.91875 0.244 0.15734 0.0
H1008 H 0.94313 0.17081 0.19419 0.0
H1009 H 0.90538 0.20256 0.17282 0.0
H1010 H 0.89925 0.25304 0.22554 0.0
H1011 H 0.93659 0.22109 0.24694 0.0
C1012 C 0.81879 0.28219 0.18018 0.0
C1013 C 0.83305 0.28684 0.1597 0.0
C1014 C 0.84019 0.26388 0.19238 0.0
C1015 C 0.87642 0.24976 0.1844 0.0
C1016 C 0.89055 0.2543 0.16387 0.0
C1017 C 0.86908 0.27261 0.15166 0.0
C1018 C 0.93381 0.18874 0.20117 0.0
C1019 C 0.94274 0.19351 0.22222 0.0
C1020 C 0.91234 0.20696 0.18892 0.0
C1021 C 0.89932 0.23037 0.19745 0.0
C1022 C 0.90826 0.23508 0.21855 0.0
C1023 C 0.92975 0.21684 0.2308 0.0
H1024 H 0.77199 0.73342 0.67306 0.0
H1025 H 0.89356 0.72206 0.63725 0.0
H1026 H 0.81123 0.76472 0.69442 0.0
H1027 H 0.93285 0.75376 0.65853 0.0
H1028 H 0.99623 0.78649 0.71968 0.0
H1029 H 0.95912 0.7572 0.69563 0.0
H1030 H 0.8452 0.80786 0.69128 0.0
H1031 H 0.88251 0.83728 0.71488 0.0
C1032 C 0.80708 0.73772 0.6697 0.0
C1033 C 0.82976 0.72524 0.65353 0.0
C1034 C 0.82945 0.75578 0.68183 0.0
C1035 C 0.87514 0.76167 0.67816 0.0
C1036 C 0.89773 0.74944 0.66181 0.0
C1037 C 0.87516 0.73151 0.64952 0.0
C1038 C 0.96339 0.79144 0.71349 0.0
C1039 C 0.94183 0.81396 0.71959 0.0
C1040 C 0.94224 0.77472 0.69965 0.0
C1041 C 0.89907 0.78013 0.69172 0.0
C1042 C 0.87811 0.80295 0.69741 0.0
C1043 C 0.89942 0.81975 0.71103 0.0
H1044 H 0.61328 0.79763 0.15125 0.0
H1045 H 0.73898 0.75786 0.15971 0.0
H1046 H 0.5747 0.76657 0.17315 0.0
H1047 H 0.70134 0.72745 0.18257 0.0
H1048 H 0.61432 0.66396 0.20866 0.0
H1049 H 0.65116 0.69343 0.18488 0.0
H1050 H 0.56605 0.75395 0.20754 0.0
H1051 H 0.52804 0.724 0.23061 0.0
C1052 C 0.6326 0.78221 0.1579 0.0
C1053 C 0.67899 0.78004 0.15378 0.0
C1054 C 0.61066 0.76451 0.17062 0.0
C1055 C 0.63481 0.74448 0.17986 0.0
C1056 C 0.68131 0.74228 0.1755 0.0
C1057 C 0.70303 0.75973 0.16246 0.0
C1058 C 0.60355 0.68358 0.20849 0.0
C1059 C 0.56833 0.69172 0.22143 0.0
C1060 C 0.62483 0.70057 0.19494 0.0
C1061 C 0.61174 0.72622 0.19417 0.0
C1062 C 0.57651 0.73429 0.20728 0.0
C1063 C 0.5548 0.71718 0.22062 0.0
H1064 H 0.40209 0.81112 0.3496 0.0
H1065 H 0.31844 0.75235 0.37666 0.0
H1066 H 0.44017 0.7795 0.32842 0.0
H1067 H 0.35676 0.7206 0.35542 0.0
H1068 H 0.46309 0.66845 0.32496 0.0
H1069 H 0.43015 0.69929 0.34894 0.0
H1070 H 0.41842 0.7533 0.29874 0.0
H1071 H 0.45191 0.7228 0.27501 0.0
C1072 C 0.39184 0.79142 0.35104 0.0
C1073 C 0.35686 0.7843 0.36465 0.0
C1074 C 0.41366 0.7733 0.33889 0.0
C1075 C 0.40113 0.74757 0.34005 0.0
C1076 C 0.3674 0.74025 0.35427 0.0
C1077 C 0.34548 0.75843 0.36644 0.0
C1078 C 0.45363 0.68698 0.31913 0.0
C1079 C 0.45993 0.69319 0.29811 0.0
C1080 C 0.43453 0.70455 0.33281 0.0
C1081 C 0.42179 0.72877 0.32576 0.0
C1082 C 0.42843 0.73495 0.30474 0.0
C1083 C 0.44727 0.71739 0.29109 0.0
H1084 H 0.1978 0.75302 0.87527 0.0
H1085 H 0.11367 0.69404 0.84901 0.0
H1086 H 0.15989 0.7845 0.85355 0.0
H1087 H 0.07583 0.72539 0.8274 0.0
H1088 H 0.05361 0.83664 0.82317 0.0
H1089 H 0.08763 0.80606 0.84709 0.0
H1090 H 0.09539 0.75119 0.79746 0.0
H1091 H 0.06055 0.78142 0.77382 0.0
C1092 C 0.17077 0.74683 0.86511 0.0
C1093 C 0.15908 0.72098 0.86372 0.0
C1094 C 0.14906 0.76487 0.85265 0.0
C1095 C 0.11518 0.75743 0.83855 0.0
C1096 C 0.10248 0.7317 0.83774 0.0
C1097 C 0.12413 0.71372 0.85015 0.0
C1098 C 0.06249 0.81799 0.81744 0.0
C1099 C 0.0546 0.81146 0.79661 0.0
C1100 C 0.08222 0.80055 0.83109 0.0
C1101 C 0.09415 0.77615 0.82421 0.0
C1102 C 0.08606 0.76968 0.80336 0.0
C1103 C 0.06647 0.7871 0.78975 0.0
loop_
_geom_bond_atom_site_label_1
_geom_bond_atom_site_label_2
_geom_bond_distance
_geom_bond_site_symmetry_2
_ccdc_geom_bond_type
C0 C1 1.384 . S
C0 H13 0.947 . S
C0 C35 1.382 . S
C1 C0 1.384 . S
C1 C2 1.378 . S
C2 C1 1.378 . S
C2 C3 1.378 . S
C2 H14 0.952 . S
C3 C2 1.378 . S
C3 H15 0.950 . S
C3 C34 1.383 . S
H4 C23 0.947 . S
H5 C24 0.946 . S
H6 C26 0.953 . S
H7 C27 0.945 . S
H8 C29 0.952 . S
H9 C30 0.949 . S
H10 C32 0.950 . S
H11 C33 0.948 . S
H12 C35 0.951 . S
H13 C0 0.947 . S
H14 C2 0.952 . S
H15 C3 0.950 . S
N16 C19 1.382 . S
N16 C21 1.363 . S
N17 C19 1.371 . S
N17 C20 1.372 . S
N18 C20 1.361 . S
N18 C21 1.377 . S
C19 N16 1.382 . S
C19 N17 1.371 . S
C19 C22 1.480 . S
C20 N17 1.372 . S
C20 N18 1.361 . S
C20 C28 1.457 . S
C21 N16 1.363 . S
C21 N18 1.377 . S
C21 C34 1.479 . S
C22 C19 1.480 . S
C22 C23 1.383 . S
C22 C27 1.385 . S
C23 H4 0.947 . S
C23 C22 1.383 . S
C23 C24 1.388 . S
C24 H5 0.946 . S
C24 C23 1.388 . S
C24 C25 1.384 . S
C25 C24 1.384 . S
C25 C26 1.377 . S
C26 H6 0.953 . S
C26 C25 1.377 . S
C26 C27 1.369 . S
C27 H7 0.945 . S
C27 C22 1.385 . S
C27 C26 1.369 . S
C28 C20 1.457 . S
C28 C29 1.372 . S
C28 C33 1.364 . S
C29 H8 0.952 . S
C29 C28 1.372 . S
C29 C30 1.389 . S
C30 H9 0.949 . S
C30 C29 1.389 . S
C30 C31 1.387 . S
C31 C30 1.387 . S
C31 C32 1.372 . S
C32 H10 0.950 . S
C32 C31 1.372 . S
C32 C33 1.379 . S
C33 H11 0.948 . S
C33 C28 1.364 . S
C33 C32 1.379 . S
C34 C3 1.383 . S
C34 C21 1.479 . S
C34 C35 1.398 . S
C35 C0 1.382 . S
C35 H12 0.951 . S
C35 C34 1.398 . S
C36 C37 1.384 . S
C36 H49 0.947 . S
C36 C71 1.382 . S
C37 C36 1.384 . S
C37 C38 1.378 . S
C38 C37 1.378 . S
C38 C39 1.378 . S
C38 H50 0.952 . S
C39 C38 1.378 . S
C39 H51 0.950 . S
C39 C70 1.383 . S
H40 C59 0.947 . S
H41 C60 0.946 . S
H42 C62 0.953 . S
H43 C63 0.945 . S
H44 C65 0.952 . S
H45 C66 0.949 . S
H46 C68 0.950 . S
H47 C69 0.948 . S
H48 C71 0.951 . S
H49 C36 0.947 . S
H50 C38 0.952 . S
H51 C39 0.950 . S
N52 C55 1.382 . S
N52 C57 1.363 . S
N53 C55 1.371 . S
N53 C56 1.372 . S
N54 C56 1.361 . S
N54 C57 1.377 . S
C55 N52 1.382 . S
C55 N53 1.371 . S
C55 C58 1.480 . S
C56 N53 1.372 . S
C56 N54 1.361 . S
C56 C64 1.457 . S
C57 N52 1.363 . S
C57 N54 1.377 . S
C57 C70 1.479 . S
C58 C55 1.480 . S
C58 C59 1.383 . S
C58 C63 1.385 . S
C59 H40 0.947 . S
C59 C58 1.383 . S
C59 C60 1.388 . S
C60 H41 0.946 . S
C60 C59 1.388 . S
C60 C61 1.384 . S
C61 C60 1.384 . S
C61 C62 1.377 . S
C62 H42 0.953 . S
C62 C61 1.377 . S
C62 C63 1.369 . S
C63 H43 0.945 . S
C63 C58 1.385 . S
C63 C62 1.369 . S
C64 C56 1.457 . S
C64 C65 1.372 . S
C64 C69 1.364 . S
C65 H44 0.952 . S
C65 C64 1.372 . S
C65 C66 1.389 . S
C66 H45 0.949 . S
C66 C65 1.389 . S
C66 C67 1.387 . S
C67 C66 1.387 . S
C67 C68 1.372 . S
C68 H46 0.950 . S
C68 C67 1.372 . S
C68 C69 1.379 . S
C69 H47 0.948 . S
C69 C64 1.364 . S
C69 C68 1.379 . S
C70 C39 1.383 . S
C70 C57 1.479 . S
C70 C71 1.398 . S
C71 C36 1.382 . S
C71 H48 0.951 . S
C71 C70 1.398 . S
C72 C73 1.384 . S
C72 H85 0.947 . S
C72 C107 1.382 . S
C73 C72 1.384 . S
C73 C74 1.378 . S
C74 C73 1.378 . S
C74 C75 1.378 . S
C74 H86 0.952 . S
C75 C74 1.378 . S
C75 H87 0.950 . S
C75 C106 1.383 . S
H76 C95 0.947 . S
H77 C96 0.946 . S
H78 C98 0.953 . S
H79 C99 0.945 . S
H80 C101 0.952 . S
H81 C102 0.949 . S
H82 C104 0.950 . S
H83 C105 0.948 . S
H84 C107 0.951 . S
H85 C72 0.947 . S
H86 C74 0.952 . S
H87 C75 0.950 . S
N88 C91 1.382 . S
N88 C93 1.363 . S
N89 C91 1.371 . S
N89 C92 1.372 . S
N90 C92 1.361 . S
N90 C93 1.377 . S
C91 N88 1.382 . S
C91 N89 1.371 . S
C91 C94 1.480 . S
C92 N89 1.372 . S
C92 N90 1.361 . S
C92 C100 1.457 . S
C93 N88 1.363 . S
C93 N90 1.377 . S
C93 C106 1.479 . S
C94 C91 1.480 . S
C94 C95 1.383 . S
C94 C99 1.385 . S
C95 H76 0.947 . S
C95 C94 1.383 . S
C95 C96 1.388 . S
C96 H77 0.946 . S
C96 C95 1.388 . S
C96 C97 1.384 . S
C97 C96 1.384 . S
C97 C98 1.377 . S
C98 H78 0.953 . S
C98 C97 1.377 . S
C98 C99 1.369 . S
C99 H79 0.945 . S
C99 C94 1.385 . S
C99 C98 1.369 . S
C100 C92 1.457 . S
C100 C101 1.372 . S
C100 C105 1.364 . S
C101 H80 0.952 . S
C101 C100 1.372 . S
C101 C102 1.389 . S
C102 H81 0.949 . S
C102 C101 1.389 . S
C102 C103 1.387 . S
C103 C102 1.387 . S
C103 C104 1.372 . S
C104 H82 0.950 . S
C104 C103 1.372 . S
C104 C105 1.379 . S
C105 H83 0.948 . S
C105 C100 1.364 . S
C105 C104 1.379 . S
C106 C75 1.383 . S
C106 C93 1.479 . S
C106 C107 1.398 . S
C107 C72 1.382 . S
C107 H84 0.951 . S
C107 C106 1.398 . S
C108 C109 1.384 . S
C108 H121 0.947 . S
C108 C143 1.382 . S
C109 C108 1.384 . S
C109 C110 1.378 . S
C110 C109 1.378 . S
C110 C111 1.378 . S
C110 H122 0.952 . S
C111 C110 1.378 . S
C111 H123 0.950 . S
C111 C142 1.383 . S
H112 C131 0.947 . S
H113 C132 0.946 . S
H114 C134 0.953 . S
H115 C135 0.945 . S
H116 C137 0.952 . S
H117 C138 0.949 . S
H118 C140 0.950 . S
H119 C141 0.948 . S
H120 C143 0.951 . S
H121 C108 0.947 . S
H122 C110 0.952 . S
H123 C111 0.950 . S
N124 C127 1.382 . S
N124 C129 1.363 . S
N125 C127 1.371 . S
N125 C128 1.372 . S
N126 C128 1.361 . S
N126 C129 1.377 . S
C127 N124 1.382 . S
C127 N125 1.371 . S
C127 C130 1.480 . S
C128 N125 1.372 . S
C128 N126 1.361 . S
C128 C136 1.457 . S
C129 N124 1.363 . S
C129 N126 1.377 . S
C129 C142 1.479 . S
C130 C127 1.480 . S
C130 C131 1.383 . S
C130 C135 1.385 . S
C131 H112 0.947 . S
C131 C130 1.383 . S
C131 C132 1.388 . S
C132 H113 0.946 . S
C132 C131 1.388 . S
C132 C133 1.384 . S
C133 C132 1.384 . S
C133 C134 1.377 . S
C134 H114 0.953 . S
C134 C133 1.377 . S
C134 C135 1.369 . S
C135 H115 0.945 . S
C135 C130 1.385 . S
C135 C134 1.369 . S
C136 C128 1.457 . S
C136 C137 1.372 . S
C136 C141 1.364 . S
C137 H116 0.952 . S
C137 C136 1.372 . S
C137 C138 1.389 . S
C138 H117 0.949 . S
C138 C137 1.389 . S
C138 C139 1.387 . S
C139 C138 1.387 . S
C139 C140 1.372 . S
C140 H118 0.950 . S
C140 C139 1.372 . S
C140 C141 1.379 . S
C141 H119 0.948 . S
C141 C136 1.364 . S
C141 C140 1.379 . S
C142 C111 1.383 . S
C142 C129 1.479 . S
C142 C143 1.398 . S
C143 C108 1.382 . S
C143 H120 0.951 . S
C143 C142 1.398 . S
C144 C145 1.384 . S
C144 H157 0.947 . S
C144 C179 1.382 . S
C145 C144 1.384 . S
C145 C146 1.378 . S
C146 C145 1.378 . S
C146 C147 1.378 . S
C146 H158 0.952 . S
C147 C146 1.378 . S
C147 H159 0.950 . S
C147 C178 1.383 . S
H148 C167 0.947 . S
H149 C168 0.946 . S
H150 C170 0.953 . S
H151 C171 0.945 . S
H152 C173 0.952 . S
H153 C174 0.949 . S
H154 C176 0.950 . S
H155 C177 0.948 . S
H156 C179 0.951 . S
H157 C144 0.947 . S
H158 C146 0.952 . S
H159 C147 0.950 . S
N160 C163 1.382 . S
N160 C165 1.363 . S
N161 C163 1.371 . S
N161 C164 1.372 . S
N162 C164 1.361 . S
N162 C165 1.377 . S
C163 N160 1.382 . S
C163 N161 1.371 . S
C163 C166 1.480 . S
C164 N161 1.372 . S
C164 N162 1.361 . S
C164 C172 1.457 . S
C165 N160 1.363 . S
C165 N162 1.377 . S
C165 C178 1.479 . S
C166 C163 1.480 . S
C166 C167 1.383 . S
C166 C171 1.385 . S
C167 H148 0.947 . S
C167 C166 1.383 . S
C167 C168 1.388 . S
C168 H149 0.946 . S
C168 C167 1.388 . S
C168 C169 1.384 . S
C169 C168 1.384 . S
C169 C170 1.377 . S
C170 H150 0.953 . S
C170 C169 1.377 . S
C170 C171 1.369 . S
C171 H151 0.945 . S
C171 C166 1.385 . S
C171 C170 1.369 . S
C172 C164 1.457 . S
C172 C173 1.372 . S
C172 C177 1.364 . S
C173 H152 0.952 . S
C173 C172 1.372 . S
C173 C174 1.389 . S
C174 H153 0.949 . S
C174 C173 1.389 . S
C174 C175 1.387 . S
C175 C174 1.387 . S
C175 C176 1.372 . S
C176 H154 0.950 . S
C176 C175 1.372 . S
C176 C177 1.379 . S
C177 H155 0.948 . S
C177 C172 1.364 . S
C177 C176 1.379 . S
C178 C147 1.383 . S
C178 C165 1.479 . S
C178 C179 1.398 . S
C179 C144 1.382 . S
C179 H156 0.951 . S
C179 C178 1.398 . S
C180 C181 1.384 . S
C180 H193 0.947 . S
C180 C215 1.382 . S
C181 C180 1.384 . S
C181 C182 1.378 . S
C182 C181 1.378 . S
C182 C183 1.378 . S
C182 H194 0.952 . S
C183 C182 1.378 . S
C183 H195 0.950 . S
C183 C214 1.383 . S
H184 C203 0.947 . S
H185 C204 0.946 . S
H186 C206 0.953 . S
H187 C207 0.945 . S
H188 C209 0.952 . S
H189 C210 0.949 . S
H190 C212 0.950 . S
H191 C213 0.948 . S
H192 C215 0.951 . S
H193 C180 0.947 . S
H194 C182 0.952 . S
H195 C183 0.950 . S
N196 C199 1.382 . S
N196 C201 1.363 . S
N197 C199 1.371 . S
N197 C200 1.372 . S
N198 C200 1.361 . S
N198 C201 1.377 . S
C199 N196 1.382 . S
C199 N197 1.371 . S
C199 C202 1.480 . S
C200 N197 1.372 . S
C200 N198 1.361 . S
C200 C208 1.457 . S
C201 N196 1.363 . S
C201 N198 1.377 . S
C201 C214 1.479 . S
C202 C199 1.480 . S
C202 C203 1.383 . S
C202 C207 1.385 . S
C203 H184 0.947 . S
C203 C202 1.383 . S
C203 C204 1.388 . S
C204 H185 0.946 . S
C204 C203 1.388 . S
C204 C205 1.384 . S
C205 C204 1.384 . S
C205 C206 1.377 . S
C206 H186 0.953 . S
C206 C205 1.377 . S
C206 C207 1.369 . S
C207 H187 0.945 . S
C207 C202 1.385 . S
C207 C206 1.369 . S
C208 C200 1.457 . S
C208 C209 1.372 . S
C208 C213 1.364 . S
C209 H188 0.952 . S
C209 C208 1.372 . S
C209 C210 1.389 . S
C210 H189 0.949 . S
C210 C209 1.389 . S
C210 C211 1.387 . S
C211 C210 1.387 . S
C211 C212 1.372 . S
C212 H190 0.950 . S
C212 C211 1.372 . S
C212 C213 1.379 . S
C213 H191 0.948 . S
C213 C208 1.364 . S
C213 C212 1.379 . S
C214 C183 1.383 . S
C214 C201 1.479 . S
C214 C215 1.398 . S
C215 C180 1.382 . S
C215 H192 0.951 . S
C215 C214 1.398 . S
C216 C217 1.384 . S
C216 H229 0.947 . S
C216 C251 1.382 . S
C217 C216 1.384 . S
C217 C218 1.378 . S
C218 C217 1.378 . S
C218 C219 1.378 . S
C218 H230 0.952 . S
C219 C218 1.378 . S
C219 H231 0.950 . S
C219 C250 1.383 . S
H220 C239 0.947 . S
H221 C240 0.946 . S
H222 C242 0.953 . S
H223 C243 0.945 . S
H224 C245 0.952 . S
H225 C246 0.949 . S
H226 C248 0.950 . S
H227 C249 0.948 . S
H228 C251 0.951 . S
H229 C216 0.947 . S
H230 C218 0.952 . S
H231 C219 0.950 . S
N232 C235 1.382 . S
N232 C237 1.363 . S
N233 C235 1.371 . S
N233 C236 1.372 . S
N234 C236 1.361 . S
N234 C237 1.377 . S
C235 N232 1.382 . S
C235 N233 1.371 . S
C235 C238 1.480 . S
C236 N233 1.372 . S
C236 N234 1.361 . S
C236 C244 1.457 . S
C237 N232 1.363 . S
C237 N234 1.377 . S
C237 C250 1.479 . S
C238 C235 1.480 . S
C238 C239 1.383 . S
C238 C243 1.385 . S
C239 H220 0.947 . S
C239 C238 1.383 . S
C239 C240 1.388 . S
C240 H221 0.946 . S
C240 C239 1.388 . S
C240 C241 1.384 . S
C241 C240 1.384 . S
C241 C242 1.377 . S
C242 H222 0.953 . S
C242 C241 1.377 . S
C242 C243 1.369 . S
C243 H223 0.945 . S
C243 C238 1.385 . S
C243 C242 1.369 . S
C244 C236 1.457 . S
C244 C245 1.372 . S
C244 C249 1.364 . S
C245 H224 0.952 . S
C245 C244 1.372 . S
C245 C246 1.389 . S
C246 H225 0.949 . S
C246 C245 1.389 . S
C246 C247 1.387 . S
C247 C246 1.387 . S
C247 C248 1.372 . S
C248 H226 0.950 . S
C248 C247 1.372 . S
C248 C249 1.379 . S
C249 H227 0.948 . S
C249 C244 1.364 . S
C249 C248 1.379 . S
C250 C219 1.383 . S
C250 C237 1.479 . S
C250 C251 1.398 . S
C251 C216 1.382 . S
C251 H228 0.951 . S
C251 C250 1.398 . S
C252 C253 1.384 . S
C252 H265 0.947 . S
C252 C287 1.382 . S
C253 C252 1.384 . S
C253 C254 1.378 . S
C254 C253 1.378 . S
C254 C255 1.378 . S
C254 H266 0.952 . S
C255 C254 1.378 . S
C255 H267 0.950 . S
C255 C286 1.383 . S
H256 C275 0.947 . S
H257 C276 0.946 . S
H258 C278 0.953 . S
H259 C279 0.945 . S
H260 C281 0.952 . S
H261 C282 0.949 . S
H262 C284 0.950 . S
H263 C285 0.948 . S
H264 C287 0.951 . S
H265 C252 0.947 . S
H266 C254 0.952 . S
H267 C255 0.950 . S
N268 C271 1.382 . S
N268 C273 1.363 . S
N269 C271 1.371 . S
N269 C272 1.372 . S
N270 C272 1.361 . S
N270 C273 1.377 . S
C271 N268 1.382 . S
C271 N269 1.371 . S
C271 C274 1.480 . S
C272 N269 1.372 . S
C272 N270 1.361 . S
C272 C280 1.457 . S
C273 N268 1.363 . S
C273 N270 1.377 . S
C273 C286 1.479 . S
C274 C271 1.480 . S
C274 C275 1.383 . S
C274 C279 1.385 . S
C275 H256 0.947 . S
C275 C274 1.383 . S
C275 C276 1.388 . S
C276 H257 0.946 . S
C276 C275 1.388 . S
C276 C277 1.384 . S
C277 C276 1.384 . S
C277 C278 1.377 . S
C278 H258 0.953 . S
C278 C277 1.377 . S
C278 C279 1.369 . S
C279 H259 0.945 . S
C279 C274 1.385 . S
C279 C278 1.369 . S
C280 C272 1.457 . S
C280 C281 1.372 . S
C280 C285 1.364 . S
C281 H260 0.952 . S
C281 C280 1.372 . S
C281 C282 1.389 . S
C282 H261 0.949 . S
C282 C281 1.389 . S
C282 C283 1.387 . S
C283 C282 1.387 . S
C283 C284 1.372 . S
C284 H262 0.950 . S
C284 C283 1.372 . S
C284 C285 1.379 . S
C285 H263 0.948 . S
C285 C280 1.364 . S
C285 C284 1.379 . S
C286 C255 1.383 . S
C286 C273 1.479 . S
C286 C287 1.398 . S
C287 C252 1.382 . S
C287 H264 0.951 . S
C287 C286 1.398 . S
C288 C290 1.422 . S
C288 C292 1.415 . S
C288 N294 1.369 . S
C289 C290 1.421 . S
C289 C291 1.417 . S
C289 C301 1.422 . S
C290 C288 1.422 . S
C290 C289 1.421 . S
C290 N300 1.359 . S
C291 C289 1.417 . S
C291 C293 1.329 . S
C291 H310 0.930 . S
C292 C288 1.415 . S
C292 C293 1.437 . S
C292 C296 1.413 . S
C293 C291 1.329 . S
C293 C292 1.437 . S
C293 H315 0.929 . S
N294 C288 1.369 . S
N294 C295 1.338 . S
N294 Gd299 2.622 . S
C295 N294 1.338 . S
C295 C297 1.378 . S
C295 H307 0.929 . S
C296 C292 1.413 . S
C296 C297 1.348 . S
C296 H312 0.931 . S
C297 C295 1.378 . S
C297 C296 1.348 . S
C297 H313 0.930 . S
Gd298 N318 2.622 . S
Gd298 N325 2.570 . S
Gd298 O332 2.353 . S
Gd298 O333 2.468 . S
Gd298 O334 2.427 . S
Gd298 O336 2.388 . S
Gd298 O337 2.386 . S
Gd298 O341 2.322 . S
Gd298 C351 2.805 . S
Gd299 N294 2.622 . S
Gd299 N300 2.570 . S
Gd299 O331 2.386 . S
Gd299 O335 2.307 1_655 S
Gd299 O338 2.353 1_655 S
Gd299 O339 2.468 . S
Gd299 O340 2.427 . S
Gd299 O342 2.388 . S
Gd299 C363 2.805 . S
N300 C290 1.359 . S
N300 Gd299 2.570 . S
N300 C302 1.343 . S
C301 C289 1.422 . S
C301 C303 1.321 . S
C301 H309 0.931 . S
C302 N300 1.343 . S
C302 C303 1.390 . S
C302 H304 0.931 . S
C303 C301 1.321 . S
C303 C302 1.390 . S
C303 H305 0.930 . S
H304 C302 0.931 . S
H305 C303 0.930 . S
H306 C329 0.931 . S
H307 C295 0.929 . S
H308 C330 0.930 . S
H309 C301 0.931 . S
H310 C291 0.930 . S
H311 C320 0.929 . S
H312 C296 0.931 . S
H313 C297 0.930 . S
H314 C352 0.930 . S
H315 C293 0.929 . S
H316 C321 0.931 . S
H317 C322 0.930 . S
N318 Gd298 2.622 . S
N318 C319 1.369 . S
N318 C320 1.338 . S
C319 N318 1.369 . S
C319 C323 1.415 . S
C319 C326 1.422 . S
C320 H311 0.929 . S
C320 N318 1.338 . S
C320 C322 1.378 . S
C321 H316 0.931 . S
C321 C322 1.348 . S
C321 C323 1.413 . S
C322 H317 0.930 . S
C322 C320 1.378 . S
C322 C321 1.348 . S
C323 C319 1.415 . S
C323 C321 1.413 . S
C323 C353 1.437 . S
H324 C353 0.929 . S
N325 Gd298 2.570 . S
N325 C326 1.359 . S
N325 C329 1.343 . S
C326 C319 1.422 . S
C326 N325 1.359 . S
C326 C328 1.421 . S
C327 C328 1.422 . S
C327 C330 1.321 . S
C327 H354 0.931 . S
C328 C326 1.421 . S
C328 C327 1.422 . S
C328 C352 1.417 . S
C329 H306 0.931 . S
C329 N325 1.343 . S
C329 C330 1.390 . S
C330 H308 0.930 . S
C330 C327 1.321 . S
C330 C329 1.390 . S
O331 Gd299 2.386 . S
O331 C343 1.265 . S
O332 Gd298 2.353 . S
O332 C343 1.242 1_455 S
O333 Gd298 2.468 . S
O333 C351 1.263 . S
O334 Gd298 2.427 . S
O334 C351 1.252 . S
O335 Gd299 2.307 1_455 S
O335 C344 1.261 . S
O336 Gd298 2.388 . S
O336 C344 1.252 . S
O337 Gd298 2.386 . S
O337 C355 1.265 . S
O338 Gd299 2.353 1_455 S
O338 C355 1.242 . S
O339 Gd299 2.468 . S
O339 C363 1.263 . S
O340 Gd299 2.427 . S
O340 C363 1.252 . S
O341 Gd298 2.322 . S
O341 C356 1.244 1_455 S
O342 Gd299 2.388 . S
O342 C356 1.252 . S
C343 O331 1.265 . S
C343 O332 1.242 1_655 S
C344 O335 1.261 . S
C344 O336 1.252 . S
C345 C348 1.394 . S
C345 C350 1.370 . S
C345 C351 1.500 . S
C346 C349 1.383 . S
C346 C350 1.395 . S
C347 C348 1.396 . S
C347 C349 1.365 . S
C347 H364 0.929 . S
C348 C345 1.394 . S
C348 C347 1.396 . S
C348 H365 0.930 . S
C349 C346 1.383 . S
C349 C347 1.365 . S
C349 H366 0.931 . S
C350 C345 1.370 . S
C350 C346 1.395 . S
C350 H367 0.930 . S
C351 Gd298 2.805 . S
C351 O333 1.263 . S
C351 O334 1.252 . S
C351 C345 1.500 . S
C352 H314 0.930 . S
C352 C328 1.417 . S
C352 C353 1.329 . S
C353 C323 1.437 . S
C353 H324 0.929 . S
C353 C352 1.329 . S
H354 C327 0.931 . S
C355 O337 1.265 . S
C355 O338 1.242 . S
C356 O341 1.244 1_655 S
C356 O342 1.252 . S
C357 C360 1.394 . S
C357 C362 1.370 . S
C357 C363 1.500 . S
C358 C361 1.383 . S
C358 C362 1.395 . S
C359 C360 1.396 . S
C359 C361 1.365 . S
C359 H368 0.929 . S
C360 C357 1.394 . S
C360 C359 1.396 . S
C360 H369 0.930 . S
C361 C358 1.383 . S
C361 C359 1.365 . S
C361 H370 0.931 . S
C362 C357 1.370 . S
C362 C358 1.395 . S
C362 H371 0.930 . S
C363 Gd299 2.805 . S
C363 O339 1.263 . S
C363 O340 1.252 . S
C363 C357 1.500 . S
H364 C347 0.929 . S
H365 C348 0.930 . S
H366 C349 0.931 . S
H367 C350 0.930 . S
H368 C359 0.929 . S
H369 C360 0.930 . S
H370 C361 0.931 . S
H371 C362 0.930 . S
C372 C374 1.422 . S
C372 C376 1.415 . S
C372 N378 1.369 . S
C373 C374 1.421 . S
C373 C375 1.417 . S
C373 C385 1.422 . S
C374 C372 1.422 . S
C374 C373 1.421 . S
C374 N384 1.359 . S
C375 C373 1.417 . S
C375 C377 1.329 . S
C375 H394 0.930 . S
C376 C372 1.415 . S
C376 C377 1.437 . S
C376 C380 1.413 . S
C377 C375 1.329 . S
C377 C376 1.437 . S
C377 H399 0.929 . S
N378 C372 1.369 . S
N378 C379 1.338 . S
N378 Gd383 2.622 . S
C379 N378 1.338 . S
C379 C381 1.378 . S
C379 H391 0.929 . S
C380 C376 1.413 . S
C380 C381 1.348 . S
C380 H396 0.931 . S
C381 C379 1.378 . S
C381 C380 1.348 . S
C381 H397 0.930 . S
Gd382 N402 2.622 . S
Gd382 N409 2.570 . S
Gd382 O416 2.353 . S
Gd382 O417 2.468 . S
Gd382 O418 2.427 . S
Gd382 O420 2.388 . S
Gd382 O421 2.386 . S
Gd382 O425 2.307 . S
Gd382 C435 2.805 . S
Gd383 N378 2.622 . S
Gd383 N384 2.570 . S
Gd383 O415 2.386 . S
Gd383 O419 2.307 . S
Gd383 O422 2.353 . S
Gd383 O423 2.468 . S
Gd383 O424 2.427 . S
Gd383 O426 2.388 . S
Gd383 C447 2.805 . S
N384 C374 1.359 . S
N384 Gd383 2.570 . S
N384 C386 1.343 . S
C385 C373 1.422 . S
C385 C387 1.321 . S
C385 H393 0.931 . S
C386 N384 1.343 . S
C386 C387 1.390 . S
C386 H388 0.931 . S
C387 C385 1.321 . S
C387 C386 1.390 . S
C387 H389 0.930 . S
H388 C386 0.931 . S
H389 C387 0.930 . S
H390 C413 0.931 . S
H391 C379 0.929 . S
H392 C414 0.930 . S
H393 C385 0.931 . S
H394 C375 0.930 . S
H395 C404 0.929 . S
H396 C380 0.931 . S
H397 C381 0.930 . S
H398 C436 0.930 . S
H399 C377 0.929 . S
H400 C405 0.931 . S
H401 C406 0.930 . S
N402 Gd382 2.622 . S
N402 C403 1.369 . S
N402 C404 1.338 . S
C403 N402 1.369 . S
C403 C407 1.415 . S
C403 C410 1.422 . S
C404 H395 0.929 . S
C404 N402 1.338 . S
C404 C406 1.378 . S
C405 H400 0.931 . S
C405 C406 1.348 . S
C405 C407 1.413 . S
C406 H401 0.930 . S
C406 C404 1.378 . S
C406 C405 1.348 . S
C407 C403 1.415 . S
C407 C405 1.413 . S
C407 C437 1.437 . S
H408 C437 0.929 . S
N409 Gd382 2.570 . S
N409 C410 1.359 . S
N409 C413 1.343 . S
C410 C403 1.422 . S
C410 N409 1.359 . S
C410 C412 1.421 . S
C411 C412 1.422 . S
C411 C414 1.321 . S
C411 H438 0.931 . S
C412 C410 1.421 . S
C412 C411 1.422 . S
C412 C436 1.417 . S
C413 H390 0.931 . S
C413 N409 1.343 . S
C413 C414 1.390 . S
C414 H392 0.930 . S
C414 C411 1.321 . S
C414 C413 1.390 . S
O415 Gd383 2.386 . S
O415 C427 1.265 . S
O416 Gd382 2.353 . S
O416 C427 1.242 . S
O417 Gd382 2.468 . S
O417 C435 1.263 . S
O418 Gd382 2.427 . S
O418 C435 1.252 . S
O419 Gd383 2.307 . S
O419 C428 1.261 . S
O420 Gd382 2.388 . S
O420 C428 1.252 . S
O421 Gd382 2.386 . S
O421 C439 1.265 . S
O422 Gd383 2.353 . S
O422 C439 1.242 . S
O423 Gd383 2.468 . S
O423 C447 1.263 . S
O424 Gd383 2.427 . S
O424 C447 1.252 . S
O425 Gd382 2.307 . S
O425 C440 1.261 . S
O426 Gd383 2.388 . S
O426 C440 1.252 . S
C427 O415 1.265 . S
C427 O416 1.242 . S
C428 O419 1.261 . S
C428 O420 1.252 . S
C429 C432 1.394 . S
C429 C434 1.370 . S
C429 C435 1.500 . S
C430 C433 1.383 . S
C430 C434 1.395 . S
C431 C432 1.396 . S
C431 C433 1.365 . S
C431 H448 0.929 . S
C432 C429 1.394 . S
C432 C431 1.396 . S
C432 H449 0.930 . S
C433 C430 1.383 . S
C433 C431 1.365 . S
C433 H450 0.931 . S
C434 C429 1.370 . S
C434 C430 1.395 . S
C434 H451 0.930 . S
C435 Gd382 2.805 . S
C435 O417 1.263 . S
C435 O418 1.252 . S
C435 C429 1.500 . S
C436 H398 0.930 . S
C436 C412 1.417 . S
C436 C437 1.329 . S
C437 C407 1.437 . S
C437 H408 0.929 . S
C437 C436 1.329 . S
H438 C411 0.931 . S
C439 O421 1.265 . S
C439 O422 1.242 . S
C440 O425 1.261 . S
C440 O426 1.252 . S
C441 C444 1.394 . S
C441 C446 1.370 . S
C441 C447 1.500 . S
C442 C445 1.383 . S
C442 C446 1.395 . S
C443 C444 1.396 . S
C443 C445 1.365 . S
C443 H452 0.929 . S
C444 C441 1.394 . S
C444 C443 1.396 . S
C444 H453 0.930 . S
C445 C442 1.383 . S
C445 C443 1.365 . S
C445 H454 0.931 . S
C446 C441 1.370 . S
C446 C442 1.395 . S
C446 H455 0.930 . S
C447 Gd383 2.805 . S
C447 O423 1.263 . S
C447 O424 1.252 . S
C447 C441 1.500 . S
H448 C431 0.929 . S
H449 C432 0.930 . S
H450 C433 0.931 . S
H451 C434 0.930 . S
H452 C443 0.929 . S
H453 C444 0.930 . S
H454 C445 0.931 . S
H455 C446 0.930 . S
C456 C458 1.422 . S
C456 C460 1.415 . S
C456 N462 1.369 . S
C457 C458 1.421 . S
C457 C459 1.417 . S
C457 C469 1.422 . S
C458 C456 1.422 . S
C458 C457 1.421 . S
C458 N468 1.359 . S
C459 C457 1.417 . S
C459 C461 1.329 . S
C459 H478 0.930 . S
C460 C456 1.415 . S
C460 C461 1.437 . S
C460 C464 1.413 . S
C461 C459 1.329 . S
C461 C460 1.437 . S
C461 H483 0.929 . S
N462 C456 1.369 . S
N462 C463 1.338 . S
N462 Gd467 2.622 . S
C463 N462 1.338 . S
C463 C465 1.378 . S
C463 H475 0.929 . S
C464 C460 1.413 . S
C464 C465 1.348 . S
C464 H480 0.931 . S
C465 C463 1.378 . S
C465 C464 1.348 . S
C465 H481 0.930 . S
Gd466 N486 2.622 . S
Gd466 N493 2.570 . S
Gd466 O500 2.353 . S
Gd466 O501 2.468 . S
Gd466 O502 2.427 . S
Gd466 O504 2.388 . S
Gd466 O505 2.386 . S
Gd466 O509 2.307 . S
Gd466 C519 2.805 . S
Gd467 N462 2.622 . S
Gd467 N468 2.570 . S
Gd467 O499 2.386 . S
Gd467 O503 2.307 1_655 S
Gd467 O506 2.353 1_655 S
Gd467 O507 2.468 . S
Gd467 O508 2.427 . S
Gd467 O510 2.388 . S
Gd467 C531 2.805 . S
N468 C458 1.359 . S
N468 Gd467 2.570 . S
N468 C470 1.343 . S
C469 C457 1.422 . S
C469 C471 1.321 . S
C469 H477 0.931 . S
C470 N468 1.343 . S
C470 C471 1.390 . S
C470 H472 0.931 . S
C471 C469 1.321 . S
C471 C470 1.390 . S
C471 H473 0.930 . S
H472 C470 0.931 . S
H473 C471 0.930 . S
H474 C497 0.931 . S
H475 C463 0.929 . S
H476 C498 0.930 . S
H477 C469 0.931 . S
H478 C459 0.930 . S
H479 C488 0.929 . S
H480 C464 0.931 . S
H481 C465 0.930 . S
H482 C520 0.930 . S
H483 C461 0.929 . S
H484 C489 0.931 . S
H485 C490 0.930 . S
N486 Gd466 2.622 . S
N486 C487 1.369 . S
N486 C488 1.338 . S
C487 N486 1.369 . S
C487 C491 1.415 . S
C487 C494 1.422 . S
C488 H479 0.929 . S
C488 N486 1.338 . S
C488 C490 1.378 . S
C489 H484 0.931 . S
C489 C490 1.348 . S
C489 C491 1.413 . S
C490 H485 0.930 . S
C490 C488 1.378 . S
C490 C489 1.348 . S
C491 C487 1.415 . S
C491 C489 1.413 . S
C491 C521 1.437 . S
H492 C521 0.929 . S
N493 Gd466 2.570 . S
N493 C494 1.359 . S
N493 C497 1.343 . S
C494 C487 1.422 . S
C494 N493 1.359 . S
C494 C496 1.421 . S
C495 C496 1.422 . S
C495 C498 1.321 . S
C495 H522 0.931 . S
C496 C494 1.421 . S
C496 C495 1.422 . S
C496 C520 1.417 . S
C497 H474 0.931 . S
C497 N493 1.343 . S
C497 C498 1.390 . S
C498 H476 0.930 . S
C498 C495 1.321 . S
C498 C497 1.390 . S
O499 Gd467 2.386 . S
O499 C511 1.265 . S
O500 Gd466 2.353 . S
O500 C511 1.242 1_455 S
O501 Gd466 2.468 . S
O501 C519 1.263 . S
O502 Gd466 2.427 . S
O502 C519 1.252 . S
O503 Gd467 2.307 1_455 S
O503 C512 1.261 . S
O504 Gd466 2.388 . S
O504 C512 1.252 . S
O505 Gd466 2.386 . S
O505 C523 1.265 . S
O506 Gd467 2.353 1_455 S
O506 C523 1.242 . S
O507 Gd467 2.468 . S
O507 C531 1.263 . S
O508 Gd467 2.427 . S
O508 C531 1.252 . S
O509 Gd466 2.307 . S
O509 C524 1.261 1_455 S
O510 Gd467 2.388 . S
O510 C524 1.252 . S
C511 O499 1.265 . S
C511 O500 1.242 1_655 S
C512 O503 1.261 . S
C512 O504 1.252 . S
C513 C516 1.394 . S
C513 C518 1.370 . S
C513 C519 1.500 . S
C514 C517 1.383 . S
C514 C518 1.395 . S
C515 C516 1.396 . S
C515 C517 1.365 . S
C515 H532 0.929 . S
C516 C513 1.394 . S
C516 C515 1.396 . S
C516 H533 0.930 . S
C517 C514 1.383 . S
C517 C515 1.365 . S
C517 H534 0.931 . S
C518 C513 1.370 . S
C518 C514 1.395 . S
C518 H535 0.930 . S
C519 Gd466 2.805 . S
C519 O501 1.263 . S
C519 O502 1.252 . S
C519 C513 1.500 . S
C520 H482 0.930 . S
C520 C496 1.417 . S
C520 C521 1.329 . S
C521 C491 1.437 . S
C521 H492 0.929 . S
C521 C520 1.329 . S
H522 C495 0.931 . S
C523 O505 1.265 . S
C523 O506 1.242 . S
C524 O509 1.261 1_655 S
C524 O510 1.252 . S
C525 C528 1.394 . S
C525 C530 1.370 . S
C525 C531 1.500 . S
C526 C529 1.383 . S
C526 C530 1.395 . S
C527 C528 1.396 . S
C527 C529 1.365 . S
C527 H536 0.929 . S
C528 C525 1.394 . S
C528 C527 1.396 . S
C528 H537 0.930 . S
C529 C526 1.383 . S
C529 C527 1.365 . S
C529 H538 0.931 . S
C530 C525 1.370 . S
C530 C526 1.395 . S
C530 H539 0.930 . S
C531 Gd467 2.805 . S
C531 O507 1.263 . S
C531 O508 1.252 . S
C531 C525 1.500 . S
H532 C515 0.929 . S
H533 C516 0.930 . S
H534 C517 0.931 . S
H535 C518 0.930 . S
H536 C527 0.929 . S
H537 C528 0.930 . S
H538 C529 0.931 . S
H539 C530 0.930 . S
C540 C542 1.422 . S
C540 C544 1.415 . S
C540 N546 1.369 . S
C541 C542 1.421 . S
C541 C543 1.417 . S
C541 C553 1.422 . S
C542 C540 1.422 . S
C542 C541 1.421 . S
C542 N552 1.359 . S
C543 C541 1.417 . S
C543 C545 1.329 . S
C543 H562 0.930 . S
C544 C540 1.415 . S
C544 C545 1.437 . S
C544 C548 1.413 . S
C545 C543 1.329 . S
C545 C544 1.437 . S
C545 H567 0.929 . S
N546 C540 1.369 . S
N546 C547 1.338 . S
N546 Gd551 2.622 . S
C547 N546 1.338 . S
C547 C549 1.378 . S
C547 H559 0.929 . S
C548 C544 1.413 . S
C548 C549 1.348 . S
C548 H564 0.931 . S
C549 C547 1.378 . S
C549 C548 1.348 . S
C549 H565 0.930 . S
Gd550 N570 2.622 . S
Gd550 N577 2.570 . S
Gd550 O584 2.353 . S
Gd550 O585 2.468 . S
Gd550 O586 2.427 . S
Gd550 O588 2.388 . S
Gd550 O589 2.386 . S
Gd550 O593 2.307 . S
Gd550 C603 2.805 . S
Gd551 N546 2.622 . S
Gd551 N552 2.570 . S
Gd551 O583 2.386 . S
Gd551 O587 2.307 . S
Gd551 O590 2.353 . S
Gd551 O591 2.468 . S
Gd551 O592 2.427 . S
Gd551 O594 2.388 . S
Gd551 C615 2.805 . S
N552 C542 1.359 . S
N552 Gd551 2.570 . S
N552 C554 1.343 . S
C553 C541 1.422 . S
C553 C555 1.321 . S
C553 H561 0.931 . S
C554 N552 1.343 . S
C554 C555 1.390 . S
C554 H556 0.931 . S
C555 C553 1.321 . S
C555 C554 1.390 . S
C555 H557 0.930 . S
H556 C554 0.931 . S
H557 C555 0.930 . S
H558 C581 0.931 . S
H559 C547 0.929 . S
H560 C582 0.930 . S
H561 C553 0.931 . S
H562 C543 0.930 . S
H563 C572 0.929 . S
H564 C548 0.931 . S
H565 C549 0.930 . S
H566 C604 0.930 . S
H567 C545 0.929 . S
H568 C573 0.931 . S
H569 C574 0.930 . S
N570 Gd550 2.622 . S
N570 C571 1.369 . S
N570 C572 1.338 . S
C571 N570 1.369 . S
C571 C575 1.415 . S
C571 C578 1.422 . S
C572 H563 0.929 . S
C572 N570 1.338 . S
C572 C574 1.378 . S
C573 H568 0.931 . S
C573 C574 1.348 . S
C573 C575 1.413 . S
C574 H569 0.930 . S
C574 C572 1.378 . S
C574 C573 1.348 . S
C575 C571 1.415 . S
C575 C573 1.413 . S
C575 C605 1.437 . S
H576 C605 0.929 . S
N577 Gd550 2.570 . S
N577 C578 1.359 . S
N577 C581 1.343 . S
C578 C571 1.422 . S
C578 N577 1.359 . S
C578 C580 1.421 . S
C579 C580 1.422 . S
C579 C582 1.321 . S
C579 H606 0.931 . S
C580 C578 1.421 . S
C580 C579 1.422 . S
C580 C604 1.417 . S
C581 H558 0.931 . S
C581 N577 1.343 . S
C581 C582 1.390 . S
C582 H560 0.930 . S
C582 C579 1.321 . S
C582 C581 1.390 . S
O583 Gd551 2.386 . S
O583 C595 1.265 . S
O584 Gd550 2.353 . S
O584 C595 1.242 . S
O585 Gd550 2.468 . S
O585 C603 1.263 . S
O586 Gd550 2.427 . S
O586 C603 1.252 . S
O587 Gd551 2.307 . S
O587 C596 1.261 . S
O588 Gd550 2.388 . S
O588 C596 1.252 . S
O589 Gd550 2.386 . S
O589 C607 1.265 . S
O590 Gd551 2.353 . S
O590 C607 1.242 . S
O591 Gd551 2.468 . S
O591 C615 1.263 . S
O592 Gd551 2.427 . S
O592 C615 1.252 . S
O593 Gd550 2.307 . S
O593 C608 1.261 . S
O594 Gd551 2.388 . S
O594 C608 1.252 . S
C595 O583 1.265 . S
C595 O584 1.242 . S
C596 O587 1.261 . S
C596 O588 1.252 . S
C597 C600 1.394 . S
C597 C602 1.370 . S
C597 C603 1.500 . S
C598 C601 1.383 . S
C598 C602 1.395 . S
C599 C600 1.396 . S
C599 C601 1.365 . S
C599 H616 0.929 . S
C600 C597 1.394 . S
C600 C599 1.396 . S
C600 H617 0.930 . S
C601 C598 1.383 . S
C601 C599 1.365 . S
C601 H618 0.931 . S
C602 C597 1.370 . S
C602 C598 1.395 . S
C602 H619 0.930 . S
C603 Gd550 2.805 . S
C603 O585 1.263 . S
C603 O586 1.252 . S
C603 C597 1.500 . S
C604 H566 0.930 . S
C604 C580 1.417 . S
C604 C605 1.329 . S
C605 C575 1.437 . S
C605 H576 0.929 . S
C605 C604 1.329 . S
H606 C579 0.931 . S
C607 O589 1.265 . S
C607 O590 1.242 . S
C608 O593 1.261 . S
C608 O594 1.252 . S
C609 C612 1.394 . S
C609 C614 1.370 . S
C609 C615 1.500 . S
C610 C613 1.383 . S
C610 C614 1.395 . S
C611 C612 1.396 . S
C611 C613 1.365 . S
C611 H620 0.929 . S
C612 C609 1.394 . S
C612 C611 1.396 . S
C612 H621 0.930 . S
C613 C610 1.383 . S
C613 C611 1.365 . S
C613 H622 0.931 . S
C614 C609 1.370 . S
C614 C610 1.395 . S
C614 H623 0.930 . S
C615 Gd551 2.805 . S
C615 O591 1.263 . S
C615 O592 1.252 . S
C615 C609 1.500 . S
H616 C599 0.929 . S
H617 C600 0.930 . S
H618 C601 0.931 . S
H619 C602 0.930 . S
H620 C611 0.929 . S
H621 C612 0.930 . S
H622 C613 0.931 . S
H623 C614 0.930 . S
H624 C632 0.950 . S
H625 C637 0.950 . S
H626 C634 0.950 . S
H627 C636 0.950 . S
H628 C638 0.950 . S
H629 C640 0.950 . S
H630 C642 0.950 . S
H631 C643 0.950 . S
C632 H624 0.950 . S
C632 C633 1.386 1_545 S
C632 C634 1.391 . S
C633 C632 1.386 1_565 S
C633 C637 1.393 . S
C634 H626 0.950 . S
C634 C632 1.391 . S
C634 C635 1.400 . S
C635 C634 1.400 . S
C635 C636 1.398 . S
C635 C641 1.491 . S
C636 H627 0.950 . S
C636 C635 1.398 . S
C636 C637 1.391 1_545 S
C637 H625 0.950 . S
C637 C633 1.393 . S
C637 C636 1.391 1_565 S
C638 H628 0.950 . S
C638 C639 1.386 . S
C638 C640 1.391 . S
C639 C638 1.386 . S
C639 C643 1.393 . S
C640 H629 0.950 . S
C640 C638 1.391 . S
C640 C641 1.400 . S
C641 C635 1.491 . S
C641 C640 1.400 . S
C641 C642 1.398 . S
C642 H630 0.950 . S
C642 C641 1.398 . S
C642 C643 1.391 . S
C643 H631 0.950 . S
C643 C639 1.393 . S
C643 C642 1.391 . S
H644 C652 0.950 . S
H645 C657 0.950 . S
H646 C654 0.950 . S
H647 C656 0.950 . S
H648 C658 0.950 . S
H649 C660 0.950 . S
H650 C662 0.950 . S
H651 C663 0.950 . S
C652 H644 0.950 . S
C652 C653 1.386 . S
C652 C654 1.391 . S
C653 C652 1.386 . S
C653 C657 1.393 . S
C654 H646 0.950 . S
C654 C652 1.391 . S
C654 C655 1.400 . S
C655 C654 1.400 . S
C655 C656 1.398 . S
C655 C661 1.491 . S
C656 H647 0.950 . S
C656 C655 1.398 . S
C656 C657 1.391 . S
C657 H645 0.950 . S
C657 C653 1.393 . S
C657 C656 1.391 . S
C658 H648 0.950 . S
C658 C659 1.386 . S
C658 C660 1.391 . S
C659 C658 1.386 . S
C659 C663 1.393 . S
C660 H649 0.950 . S
C660 C658 1.391 . S
C660 C661 1.400 . S
C661 C655 1.491 . S
C661 C660 1.400 . S
C661 C662 1.398 . S
C662 H650 0.950 . S
C662 C661 1.398 . S
C662 C663 1.391 . S
C663 H651 0.950 . S
C663 C659 1.393 . S
C663 C662 1.391 . S
H664 C672 0.950 . S
H665 C677 0.950 . S
H666 C674 0.950 . S
H667 C676 0.950 . S
H668 C678 0.950 . S
H669 C680 0.950 . S
H670 C682 0.950 . S
H671 C683 0.950 . S
C672 H664 0.950 . S
C672 C673 1.386 . S
C672 C674 1.391 . S
C673 C672 1.386 . S
C673 C677 1.393 . S
C674 H666 0.950 . S
C674 C672 1.391 . S
C674 C675 1.400 . S
C675 C674 1.400 . S
C675 C676 1.398 . S
C675 C681 1.491 . S
C676 H667 0.950 . S
C676 C675 1.398 . S
C676 C677 1.391 . S
C677 H665 0.950 . S
C677 C673 1.393 . S
C677 C676 1.391 . S
C678 H668 0.950 . S
C678 C679 1.386 . S
C678 C680 1.391 . S
C679 C678 1.386 . S
C679 C683 1.393 . S
C680 H669 0.950 . S
C680 C678 1.391 . S
C680 C681 1.400 . S
C681 C675 1.491 . S
C681 C680 1.400 . S
C681 C682 1.398 . S
C682 H670 0.950 . S
C682 C681 1.398 . S
C682 C683 1.391 . S
C683 H671 0.950 . S
C683 C679 1.393 . S
C683 C682 1.391 . S
H684 C692 0.950 . S
H685 C697 0.950 . S
H686 C694 0.950 . S
H687 C696 0.950 . S
H688 C698 0.950 . S
H689 C700 0.950 . S
H690 C702 0.950 . S
H691 C703 0.950 . S
C692 H684 0.950 . S
C692 C693 1.386 1_545 S
C692 C694 1.391 . S
C693 C692 1.386 1_565 S
C693 C697 1.393 . S
C694 H686 0.950 . S
C694 C692 1.391 . S
C694 C695 1.400 . S
C695 C694 1.400 . S
C695 C696 1.398 . S
C695 C701 1.491 . S
C696 H687 0.950 . S
C696 C695 1.398 . S
C696 C697 1.391 1_545 S
C697 H685 0.950 . S
C697 C693 1.393 . S
C697 C696 1.391 1_565 S
C698 H688 0.950 . S
C698 C699 1.386 . S
C698 C700 1.391 . S
C699 C698 1.386 . S
C699 C703 1.393 . S
C700 H689 0.950 . S
C700 C698 1.391 . S
C700 C701 1.400 . S
C701 C695 1.491 . S
C701 C700 1.400 . S
C701 C702 1.398 . S
C702 H690 0.950 . S
C702 C701 1.398 . S
C702 C703 1.391 . S
C703 H691 0.950 . S
C703 C699 1.393 . S
C703 C702 1.391 . S
H704 C712 0.950 . S
H705 C717 0.950 . S
H706 C714 0.950 . S
H707 C716 0.947 1_545 S
H708 C718 0.950 . S
H709 C720 0.950 . S
H710 C722 0.950 . S
H711 C723 0.950 . S
C712 H704 0.950 . S
C712 C713 1.386 1_565 S
C712 C714 1.391 . S
C713 C712 1.386 1_545 S
C713 C717 1.393 . S
C714 H706 0.950 . S
C714 C712 1.391 . S
C714 C715 1.400 . S
C715 C714 1.400 . S
C715 C716 1.398 . S
C715 C721 1.491 . S
C716 H707 0.947 1_565 S
C716 C715 1.398 . S
C716 C717 1.391 1_565 S
C717 H705 0.950 . S
C717 C713 1.393 . S
C717 C716 1.391 1_545 S
C718 H708 0.950 . S
C718 C719 1.386 . S
C718 C720 1.391 . S
C719 C718 1.386 . S
C719 C723 1.393 . S
C720 H709 0.950 . S
C720 C718 1.391 . S
C720 C721 1.400 . S
C721 C715 1.491 . S
C721 C720 1.400 . S
C721 C722 1.398 . S
C722 H710 0.950 . S
C722 C721 1.398 . S
C722 C723 1.391 . S
C723 H711 0.950 . S
C723 C719 1.393 . S
C723 C722 1.391 . S
H724 C732 0.950 . S
H725 C737 0.950 . S
H726 C734 0.950 . S
H727 C736 0.950 . S
H728 C738 0.950 . S
H729 C740 0.950 . S
H730 C742 0.950 . S
H731 C743 0.950 . S
C732 H724 0.950 . S
C732 C733 1.386 . S
C732 C734 1.391 . S
C733 C732 1.386 . S
C733 C737 1.393 . S
C734 H726 0.950 . S
C734 C732 1.391 . S
C734 C735 1.400 . S
C735 C734 1.400 . S
C735 C736 1.398 . S
C735 C741 1.491 . S
C736 H727 0.950 . S
C736 C735 1.398 . S
C736 C737 1.391 . S
C737 H725 0.950 . S
C737 C733 1.393 . S
C737 C736 1.391 . S
C738 H728 0.950 . S
C738 C739 1.386 . S
C738 C740 1.391 . S
C739 C738 1.386 . S
C739 C743 1.393 . S
C740 H729 0.950 . S
C740 C738 1.391 . S
C740 C741 1.400 . S
C741 C735 1.491 . S
C741 C740 1.400 . S
C741 C742 1.398 . S
C742 H730 0.950 . S
C742 C741 1.398 . S
C742 C743 1.391 . S
C743 H731 0.950 . S
C743 C739 1.393 . S
C743 C742 1.391 . S
H744 C752 0.950 . S
H745 C757 0.950 . S
H746 C754 0.950 . S
H747 C756 0.950 . S
H748 C758 0.950 . S
H749 C760 0.950 . S
H750 C762 0.950 . S
H751 C763 0.950 . S
C752 H744 0.950 . S
C752 C753 1.386 . S
C752 C754 1.391 . S
C753 C752 1.386 . S
C753 C757 1.393 . S
C754 H746 0.950 . S
C754 C752 1.391 . S
C754 C755 1.400 . S
C755 C754 1.400 . S
C755 C756 1.398 . S
C755 C761 1.491 . S
C756 H747 0.950 . S
C756 C755 1.398 . S
C756 C757 1.391 . S
C757 H745 0.950 . S
C757 C753 1.393 . S
C757 C756 1.391 . S
C758 H748 0.950 . S
C758 C759 1.386 . S
C758 C760 1.391 . S
C759 C758 1.386 . S
C759 C763 1.393 . S
C760 H749 0.950 . S
C760 C758 1.391 . S
C760 C761 1.400 . S
C761 C755 1.491 . S
C761 C760 1.400 . S
C761 C762 1.398 . S
C762 H750 0.950 . S
C762 C761 1.398 . S
C762 C763 1.391 . S
C763 H751 0.950 . S
C763 C759 1.393 . S
C763 C762 1.391 . S
H764 C772 0.950 . S
H765 C777 0.950 . S
H766 C774 0.950 . S
H767 C776 0.950 . S
H768 C778 0.950 . S
H769 C780 0.950 . S
H770 C782 0.950 . S
H771 C783 0.950 . S
C772 H764 0.950 . S
C772 C773 1.386 . S
C772 C774 1.391 1_545 S
C773 C772 1.386 . S
C773 C777 1.393 1_545 S
C774 H766 0.950 . S
C774 C772 1.391 1_565 S
C774 C775 1.400 . S
C775 C774 1.400 . S
C775 C776 1.398 . S
C775 C781 1.491 . S
C776 H767 0.950 . S
C776 C775 1.398 . S
C776 C777 1.391 . S
C777 H765 0.950 . S
C777 C773 1.393 1_565 S
C777 C776 1.391 . S
C778 H768 0.950 . S
C778 C779 1.386 . S
C778 C780 1.391 . S
C779 C778 1.386 . S
C779 C783 1.393 . S
C780 H769 0.950 . S
C780 C778 1.391 . S
C780 C781 1.400 . S
C781 C775 1.491 . S
C781 C780 1.400 . S
C781 C782 1.398 . S
C782 H770 0.950 . S
C782 C781 1.398 . S
C782 C783 1.391 . S
C783 H771 0.950 . S
C783 C779 1.393 . S
C783 C782 1.391 . S
H784 C792 0.950 . S
H785 C797 0.950 . S
H786 C794 0.950 . S
H787 C796 0.950 . S
H788 C798 0.950 . S
H789 C800 0.950 . S
H790 C802 0.950 . S
H791 C803 0.950 . S
C792 H784 0.950 . S
C792 C793 1.386 . S
C792 C794 1.391 . S
C793 C792 1.386 . S
C793 C797 1.393 . S
C794 H786 0.950 . S
C794 C792 1.391 . S
C794 C795 1.400 . S
C795 C794 1.400 . S
C795 C796 1.398 . S
C795 C801 1.491 . S
C796 H787 0.950 . S
C796 C795 1.398 . S
C796 C797 1.391 . S
C797 H785 0.950 . S
C797 C793 1.393 . S
C797 C796 1.391 . S
C798 H788 0.950 . S
C798 C799 1.386 . S
C798 C800 1.391 . S
C799 C798 1.386 . S
C799 C803 1.393 . S
C800 H789 0.950 . S
C800 C798 1.391 . S
C800 C801 1.400 . S
C801 C795 1.491 . S
C801 C800 1.400 . S
C801 C802 1.398 . S
C802 H790 0.950 . S
C802 C801 1.398 . S
C802 C803 1.391 . S
C803 H791 0.950 . S
C803 C799 1.393 . S
C803 C802 1.391 . S
H804 C812 0.950 . S
H805 C817 0.950 . S
H806 C814 0.950 . S
H807 C816 0.950 . S
H808 C818 0.950 . S
H809 C820 0.950 . S
H810 C822 0.950 . S
H811 C823 0.950 . S
C812 H804 0.950 . S
C812 C813 1.386 . S
C812 C814 1.391 . S
C813 C812 1.386 . S
C813 C817 1.393 . S
C814 H806 0.950 . S
C814 C812 1.391 . S
C814 C815 1.400 . S
C815 C814 1.400 . S
C815 C816 1.398 . S
C815 C821 1.491 . S
C816 H807 0.950 . S
C816 C815 1.398 . S
C816 C817 1.391 . S
C817 H805 0.950 . S
C817 C813 1.393 . S
C817 C816 1.391 . S
C818 H808 0.950 . S
C818 C819 1.386 . S
C818 C820 1.391 . S
C819 C818 1.386 . S
C819 C823 1.393 . S
C820 H809 0.950 . S
C820 C818 1.391 . S
C820 C821 1.400 . S
C821 C815 1.491 . S
C821 C820 1.400 . S
C821 C822 1.398 . S
C822 H810 0.950 . S
C822 C821 1.398 . S
C822 C823 1.391 . S
C823 H811 0.950 . S
C823 C819 1.393 . S
C823 C822 1.391 . S
H824 C832 0.950 . S
H825 C837 0.950 . S
H826 C834 0.950 . S
H827 C836 0.950 . S
H828 C838 0.950 . S
H829 C840 0.950 . S
H830 C842 0.950 . S
H831 C843 0.950 . S
C832 H824 0.950 . S
C832 C833 1.386 . S
C832 C834 1.391 . S
C833 C832 1.386 . S
C833 C837 1.393 . S
C834 H826 0.950 . S
C834 C832 1.391 . S
C834 C835 1.400 . S
C835 C834 1.400 . S
C835 C836 1.398 . S
C835 C841 1.491 . S
C836 H827 0.950 . S
C836 C835 1.398 . S
C836 C837 1.391 . S
C837 H825 0.950 . S
C837 C833 1.393 . S
C837 C836 1.391 . S
C838 H828 0.950 . S
C838 C839 1.386 . S
C838 C840 1.391 . S
C839 C838 1.386 . S
C839 C843 1.393 . S
C840 H829 0.950 . S
C840 C838 1.391 . S
C840 C841 1.400 . S
C841 C835 1.491 . S
C841 C840 1.400 . S
C841 C842 1.398 . S
C842 H830 0.950 . S
C842 C841 1.398 . S
C842 C843 1.391 . S
C843 H831 0.950 . S
C843 C839 1.393 . S
C843 C842 1.391 . S
H844 C852 0.950 . S
H845 C857 0.950 . S
H846 C854 0.950 . S
H847 C856 0.950 . S
H848 C858 0.950 . S
H849 C860 0.950 . S
H850 C862 0.950 . S
H851 C863 0.950 . S
C852 H844 0.950 . S
C852 C853 1.386 . S
C852 C854 1.391 . S
C853 C852 1.386 . S
C853 C857 1.393 . S
C854 H846 0.950 . S
C854 C852 1.391 . S
C854 C855 1.400 . S
C855 C854 1.400 . S
C855 C856 1.398 . S
C855 C861 1.491 . S
C856 H847 0.950 . S
C856 C855 1.398 . S
C856 C857 1.391 . S
C857 H845 0.950 . S
C857 C853 1.393 . S
C857 C856 1.391 . S
C858 H848 0.950 . S
C858 C859 1.386 . S
C858 C860 1.391 . S
C859 C858 1.386 . S
C859 C863 1.393 . S
C860 H849 0.950 . S
C860 C858 1.391 . S
C860 C861 1.400 . S
C861 C855 1.491 . S
C861 C860 1.400 . S
C861 C862 1.398 . S
C862 H850 0.950 . S
C862 C861 1.398 . S
C862 C863 1.391 . S
C863 H851 0.950 . S
C863 C859 1.393 . S
C863 C862 1.391 . S
H864 C872 0.950 . S
H865 C877 0.950 . S
H866 C874 0.950 . S
H867 C876 0.950 . S
H868 C878 0.950 . S
H869 C880 0.950 . S
H870 C882 0.950 . S
H871 C883 0.950 . S
C872 H864 0.950 . S
C872 C873 1.386 . S
C872 C874 1.391 . S
C873 C872 1.386 . S
C873 C877 1.393 . S
C874 H866 0.950 . S
C874 C872 1.391 . S
C874 C875 1.400 . S
C875 C874 1.400 . S
C875 C876 1.398 . S
C875 C881 1.491 . S
C876 H867 0.950 . S
C876 C875 1.398 . S
C876 C877 1.391 . S
C877 H865 0.950 . S
C877 C873 1.393 . S
C877 C876 1.391 . S
C878 H868 0.950 . S
C878 C879 1.386 . S
C878 C880 1.391 . S
C879 C878 1.386 . S
C879 C883 1.393 . S
C880 H869 0.950 . S
C880 C878 1.391 . S
C880 C881 1.400 . S
C881 C875 1.491 . S
C881 C880 1.400 . S
C881 C882 1.398 . S
C882 H870 0.950 . S
C882 C881 1.398 . S
C882 C883 1.391 . S
C883 H871 0.950 . S
C883 C879 1.393 . S
C883 C882 1.391 . S
H884 C892 0.950 . S
H885 C897 0.950 . S
H886 C894 0.950 . S
H887 C896 0.950 . S
H888 C898 0.950 . S
H889 C900 0.950 . S
H890 C902 0.950 . S
H891 C903 0.950 . S
C892 H884 0.950 . S
C892 C893 1.386 . S
C892 C894 1.391 . S
C893 C892 1.386 . S
C893 C897 1.393 . S
C894 H886 0.950 . S
C894 C892 1.391 . S
C894 C895 1.400 . S
C895 C894 1.400 . S
C895 C896 1.398 . S
C895 C901 1.491 . S
C896 H887 0.950 . S
C896 C895 1.398 . S
C896 C897 1.391 . S
C897 H885 0.950 . S
C897 C893 1.393 . S
C897 C896 1.391 . S
C898 H888 0.950 . S
C898 C899 1.386 . S
C898 C900 1.391 . S
C899 C898 1.386 . S
C899 C903 1.393 . S
C900 H889 0.950 . S
C900 C898 1.391 . S
C900 C901 1.400 . S
C901 C895 1.491 . S
C901 C900 1.400 . S
C901 C902 1.398 . S
C902 H890 0.950 . S
C902 C901 1.398 . S
C902 C903 1.391 . S
C903 H891 0.950 . S
C903 C899 1.393 . S
C903 C902 1.391 . S
H904 C912 0.950 . S
H905 C917 0.950 . S
H906 C914 0.950 . S
H907 C916 0.950 . S
H908 C918 0.950 . S
H909 C920 0.950 . S
H910 C922 0.950 . S
H911 C923 0.950 . S
C912 H904 0.950 . S
C912 C913 1.386 . S
C912 C914 1.391 . S
C913 C912 1.386 . S
C913 C917 1.393 . S
C914 H906 0.950 . S
C914 C912 1.391 . S
C914 C915 1.400 . S
C915 C914 1.400 . S
C915 C916 1.398 . S
C915 C921 1.491 . S
C916 H907 0.950 . S
C916 C915 1.398 . S
C916 C917 1.391 . S
C917 H905 0.950 . S
C917 C913 1.393 . S
C917 C916 1.391 . S
C918 H908 0.950 . S
C918 C919 1.386 . S
C918 C920 1.391 . S
C919 C918 1.386 . S
C919 C923 1.393 . S
C920 H909 0.950 . S
C920 C918 1.391 . S
C920 C921 1.400 . S
C921 C915 1.491 . S
C921 C920 1.400 . S
C921 C922 1.398 . S
C922 H910 0.950 . S
C922 C921 1.398 . S
C922 C923 1.391 . S
C923 H911 0.950 . S
C923 C919 1.393 . S
C923 C922 1.391 . S
H924 C932 0.950 . S
H925 C937 0.950 . S
H926 C934 0.950 . S
H927 C936 0.950 . S
H928 C938 0.950 . S
H929 C940 0.950 . S
H930 C942 0.950 . S
H931 C943 0.950 . S
C932 H924 0.950 . S
C932 C933 1.386 . S
C932 C934 1.391 . S
C933 C932 1.386 . S
C933 C937 1.393 . S
C934 H926 0.950 . S
C934 C932 1.391 . S
C934 C935 1.400 . S
C935 C934 1.400 . S
C935 C936 1.398 . S
C935 C941 1.491 . S
C936 H927 0.950 . S
C936 C935 1.398 . S
C936 C937 1.391 . S
C937 H925 0.950 . S
C937 C933 1.393 . S
C937 C936 1.391 . S
C938 H928 0.950 . S
C938 C939 1.386 . S
C938 C940 1.391 . S
C939 C938 1.386 . S
C939 C943 1.393 . S
C940 H929 0.950 . S
C940 C938 1.391 . S
C940 C941 1.400 . S
C941 C935 1.491 . S
C941 C940 1.400 . S
C941 C942 1.398 . S
C942 H930 0.950 . S
C942 C941 1.398 . S
C942 C943 1.391 . S
C943 H931 0.950 . S
C943 C939 1.393 . S
C943 C942 1.391 . S
H944 C952 0.950 . S
H945 C957 0.950 . S
H946 C954 0.950 . S
H947 C956 0.950 . S
H948 C958 0.950 . S
H949 C960 0.950 . S
H950 C962 0.950 . S
H951 C963 0.947 1_655 S
C952 H944 0.950 . S
C952 C953 1.386 . S
C952 C954 1.391 . S
C953 C952 1.386 . S
C953 C957 1.393 . S
C954 H946 0.950 . S
C954 C952 1.391 . S
C954 C955 1.400 . S
C955 C954 1.400 . S
C955 C956 1.398 . S
C955 C961 1.491 . S
C956 H947 0.950 . S
C956 C955 1.398 . S
C956 C957 1.391 . S
C957 H945 0.950 . S
C957 C953 1.393 . S
C957 C956 1.391 . S
C958 H948 0.950 . S
C958 C959 1.386 . S
C958 C960 1.391 . S
C959 C958 1.386 . S
C959 C963 1.393 . S
C960 H949 0.950 . S
C960 C958 1.391 . S
C960 C961 1.400 . S
C961 C955 1.491 . S
C961 C960 1.400 . S
C961 C962 1.398 . S
C962 H950 0.950 . S
C962 C961 1.398 . S
C962 C963 1.391 . S
C963 H951 0.947 1_455 S
C963 C959 1.393 . S
C963 C962 1.391 . S
H964 C972 0.950 . S
H965 C977 0.950 . S
H966 C974 0.950 . S
H967 C976 0.950 . S
H968 C978 0.950 . S
H969 C980 0.950 . S
H970 C982 0.950 . S
H971 C983 0.950 . S
C972 H964 0.950 . S
C972 C973 1.386 . S
C972 C974 1.391 . S
C973 C972 1.386 . S
C973 C977 1.393 . S
C974 H966 0.950 . S
C974 C972 1.391 . S
C974 C975 1.400 . S
C975 C974 1.400 . S
C975 C976 1.398 . S
C975 C981 1.491 . S
C976 H967 0.950 . S
C976 C975 1.398 . S
C976 C977 1.391 . S
C977 H965 0.950 . S
C977 C973 1.393 . S
C977 C976 1.391 . S
C978 H968 0.950 . S
C978 C979 1.386 . S
C978 C980 1.391 . S
C979 C978 1.386 . S
C979 C983 1.393 . S
C980 H969 0.950 . S
C980 C978 1.391 . S
C980 C981 1.400 . S
C981 C975 1.491 . S
C981 C980 1.400 . S
C981 C982 1.398 . S
C982 H970 0.950 . S
C982 C981 1.398 . S
C982 C983 1.391 . S
C983 H971 0.950 . S
C983 C979 1.393 . S
C983 C982 1.391 . S
H984 C992 0.950 . S
H985 C997 0.950 . S
H986 C994 0.950 . S
H987 C996 0.950 . S
H988 C998 0.950 . S
H989 C1000 0.950 . S
H990 C1002 0.950 . S
H991 C1003 0.950 . S
C992 H984 0.950 . S
C992 C993 1.386 . S
C992 C994 1.391 . S
C993 C992 1.386 . S
C993 C997 1.393 . S
C994 H986 0.950 . S
C994 C992 1.391 . S
C994 C995 1.400 . S
C995 C994 1.400 . S
C995 C996 1.398 . S
C995 C1001 1.491 . S
C996 H987 0.950 . S
C996 C995 1.398 . S
C996 C997 1.391 . S
C997 H985 0.950 . S
C997 C993 1.393 . S
C997 C996 1.391 . S
C998 H988 0.950 . S
C998 C999 1.386 . S
C998 C1000 1.391 . S
C999 C998 1.386 . S
C999 C1003 1.393 . S
C1000 H989 0.950 . S
C1000 C998 1.391 . S
C1000 C1001 1.400 . S
C1001 C995 1.491 . S
C1001 C1000 1.400 . S
C1001 C1002 1.398 . S
C1002 H990 0.950 . S
C1002 C1001 1.398 . S
C1002 C1003 1.391 . S
C1003 H991 0.950 . S
C1003 C999 1.393 . S
C1003 C1002 1.391 . S
H1004 C1012 0.950 . S
H1005 C1017 0.950 . S
H1006 C1014 0.950 . S
H1007 C1016 0.950 . S
H1008 C1018 0.950 . S
H1009 C1020 0.950 . S
H1010 C1022 0.950 . S
H1011 C1023 0.950 . S
C1012 H1004 0.950 . S
C1012 C1013 1.386 . S
C1012 C1014 1.391 . S
C1013 C1012 1.386 . S
C1013 C1017 1.393 . S
C1014 H1006 0.950 . S
C1014 C1012 1.391 . S
C1014 C1015 1.400 . S
C1015 C1014 1.400 . S
C1015 C1016 1.398 . S
C1015 C1021 1.491 . S
C1016 H1007 0.950 . S
C1016 C1015 1.398 . S
C1016 C1017 1.391 . S
C1017 H1005 0.950 . S
C1017 C1013 1.393 . S
C1017 C1016 1.391 . S
C1018 H1008 0.950 . S
C1018 C1019 1.386 . S
C1018 C1020 1.391 . S
C1019 C1018 1.386 . S
C1019 C1023 1.393 . S
C1020 H1009 0.950 . S
C1020 C1018 1.391 . S
C1020 C1021 1.400 . S
C1021 C1015 1.491 . S
C1021 C1020 1.400 . S
C1021 C1022 1.398 . S
C1022 H1010 0.950 . S
C1022 C1021 1.398 . S
C1022 C1023 1.391 . S
C1023 H1011 0.950 . S
C1023 C1019 1.393 . S
C1023 C1022 1.391 . S
H1024 C1032 0.950 . S
H1025 C1037 0.950 . S
H1026 C1034 0.950 . S
H1027 C1036 0.950 . S
H1028 C1038 0.950 1_455 S
H1029 C1040 0.950 . S
H1030 C1042 0.950 . S
H1031 C1043 0.950 . S
C1032 H1024 0.950 . S
C1032 C1033 1.386 . S
C1032 C1034 1.391 . S
C1033 C1032 1.386 . S
C1033 C1037 1.393 . S
C1034 H1026 0.950 . S
C1034 C1032 1.391 . S
C1034 C1035 1.400 . S
C1035 C1034 1.400 . S
C1035 C1036 1.398 . S
C1035 C1041 1.491 . S
C1036 H1027 0.950 . S
C1036 C1035 1.398 . S
C1036 C1037 1.391 . S
C1037 H1025 0.950 . S
C1037 C1033 1.393 . S
C1037 C1036 1.391 . S
C1038 H1028 0.950 1_655 S
C1038 C1039 1.386 . S
C1038 C1040 1.391 . S
C1039 C1038 1.386 . S
C1039 C1043 1.393 . S
C1040 H1029 0.950 . S
C1040 C1038 1.391 . S
C1040 C1041 1.400 . S
C1041 C1035 1.491 . S
C1041 C1040 1.400 . S
C1041 C1042 1.398 . S
C1042 H1030 0.950 . S
C1042 C1041 1.398 . S
C1042 C1043 1.391 . S
C1043 H1031 0.950 . S
C1043 C1039 1.393 . S
C1043 C1042 1.391 . S
H1044 C1052 0.950 . S
H1045 C1057 0.950 . S
H1046 C1054 0.950 . S
H1047 C1056 0.950 . S
H1048 C1058 0.950 . S
H1049 C1060 0.950 . S
H1050 C1062 0.950 . S
H1051 C1063 0.950 . S
C1052 H1044 0.950 . S
C1052 C1053 1.386 . S
C1052 C1054 1.391 . S
C1053 C1052 1.386 . S
C1053 C1057 1.393 . S
C1054 H1046 0.950 . S
C1054 C1052 1.391 . S
C1054 C1055 1.400 . S
C1055 C1054 1.400 . S
C1055 C1056 1.398 . S
C1055 C1061 1.491 . S
C1056 H1047 0.950 . S
C1056 C1055 1.398 . S
C1056 C1057 1.391 . S
C1057 H1045 0.950 . S
C1057 C1053 1.393 . S
C1057 C1056 1.391 . S
C1058 H1048 0.950 . S
C1058 C1059 1.386 . S
C1058 C1060 1.391 . S
C1059 C1058 1.386 . S
C1059 C1063 1.393 . S
C1060 H1049 0.950 . S
C1060 C1058 1.391 . S
C1060 C1061 1.400 . S
C1061 C1055 1.491 . S
C1061 C1060 1.400 . S
C1061 C1062 1.398 . S
C1062 H1050 0.950 . S
C1062 C1061 1.398 . S
C1062 C1063 1.391 . S
C1063 H1051 0.950 . S
C1063 C1059 1.393 . S
C1063 C1062 1.391 . S
H1064 C1072 0.950 . S
H1065 C1077 0.950 . S
H1066 C1074 0.950 . S
H1067 C1076 0.950 . S
H1068 C1078 0.950 . S
H1069 C1080 0.950 . S
H1070 C1082 0.950 . S
H1071 C1083 0.950 . S
C1072 H1064 0.950 . S
C1072 C1073 1.386 . S
C1072 C1074 1.391 . S
C1073 C1072 1.386 . S
C1073 C1077 1.393 . S
C1074 H1066 0.950 . S
C1074 C1072 1.391 . S
C1074 C1075 1.400 . S
C1075 C1074 1.400 . S
C1075 C1076 1.398 . S
C1075 C1081 1.491 . S
C1076 H1067 0.950 . S
C1076 C1075 1.398 . S
C1076 C1077 1.391 . S
C1077 H1065 0.950 . S
C1077 C1073 1.393 . S
C1077 C1076 1.391 . S
C1078 H1068 0.950 . S
C1078 C1079 1.386 . S
C1078 C1080 1.391 . S
C1079 C1078 1.386 . S
C1079 C1083 1.393 . S
C1080 H1069 0.950 . S
C1080 C1078 1.391 . S
C1080 C1081 1.400 . S
C1081 C1075 1.491 . S
C1081 C1080 1.400 . S
C1081 C1082 1.398 . S
C1082 H1070 0.950 . S
C1082 C1081 1.398 . S
C1082 C1083 1.391 . S
C1083 H1071 0.950 . S
C1083 C1079 1.393 . S
C1083 C1082 1.391 . S
H1084 C1092 0.950 . S
H1085 C1097 0.950 . S
H1086 C1094 0.950 . S
H1087 C1096 0.950 . S
H1088 C1098 0.950 . S
H1089 C1100 0.950 . S
H1090 C1102 0.950 . S
H1091 C1103 0.950 . S
C1092 H1084 0.950 . S
C1092 C1093 1.386 . S
C1092 C1094 1.391 . S
C1093 C1092 1.386 . S
C1093 C1097 1.393 . S
C1094 H1086 0.950 . S
C1094 C1092 1.391 . S
C1094 C1095 1.400 . S
C1095 C1094 1.400 . S
C1095 C1096 1.398 . S
C1095 C1101 1.491 . S
C1096 H1087 0.950 . S
C1096 C1095 1.398 . S
C1096 C1097 1.391 . S
C1097 H1085 0.950 . S
C1097 C1093 1.393 . S
C1097 C1096 1.391 . S
C1098 H1088 0.950 . S
C1098 C1099 1.386 . S
C1098 C1100 1.391 . S
C1099 C1098 1.386 . S
C1099 C1103 1.393 . S
C1100 H1089 0.950 . S
C1100 C1098 1.391 . S
C1100 C1101 1.400 . S
C1101 C1095 1.491 . S
C1101 C1100 1.400 . S
C1101 C1102 1.398 . S
C1102 H1090 0.950 . S
C1102 C1101 1.398 . S
C1102 C1103 1.391 . S
C1103 H1091 0.950 . S
C1103 C1099 1.393 . S
C1103 C1102 1.391 . S
C633 C247 1.479 . S
C639 C344 1.461 . S
C659 C428 1.466 . S
C653 C283 1.480 . S
C679 C427 1.464 . S
C673 C175 1.472 . S
C693 C211 1.473 . S
C699 C343 1.470 . S
C719 C524 1.460 . S
C713 C103 1.460 . S
C739 C608 1.452 . S
C733 C139 1.467 . S
C753 C31 1.453 . S
C759 C607 1.468 . S
C773 C67 1.455 . S
C779 C523 1.464 . S
C799 C346 1.357 . S
C793 C37 1.514 1_554 S
C819 C430 1.336 . S
C813 C1 1.509 . S
C839 C442 1.399 . S
C833 C109 1.525 1_556 S
C859 C358 1.417 . S
C853 C73 1.536 . S
C879 C526 1.313 . S
C873 C181 1.519 1_556 S
C893 C145 1.522 . S
C899 C610 1.355 . S
C919 C598 1.388 . S
C913 C253 1.543 1_554 S
C933 C217 1.543 . S
C939 C514 1.383 . S
C959 C355 1.578 . S
C953 C25 1.549 . S
C979 C439 1.584 . S
C973 C61 1.564 . S
C993 C97 1.551 . S
C999 C440 1.550 . S
C1019 C356 1.553 . S
C1013 C133 1.542 . S
C1039 C511 1.578 . S
C1033 C169 1.571 . S
C1053 C205 1.579 . S
C1059 C595 1.583 . S
C1073 C241 1.567 . S
C1079 C596 1.550 . S
C1093 C277 1.556 . S
C1099 C512 1.562 . S
