# Generated by pormake.
# Topology ant, (3,6)-cn, num edge types: 1
# Building blocks:
#     Node 0, Type 0, BuildingBlock: KAKCAD_clean_linker_0, # of connection points: 3
#     Node 1, Type 0, BuildingBlock: KAKCAD_clean_linker_0, # of connection points: 3
#     Node 2, Type 0, BuildingBlock: KAKCAD_clean_linker_0, # of connection points: 3
#     Node 3, Type 0, BuildingBlock: KAKCAD_clean_linker_0, # of connection points: 3
#     Node 4, Type 0, BuildingBlock: KAKCAD_clean_linker_0, # of connection points: 3
#     Node 5, Type 0, BuildingBlock: KAKCAD_clean_linker_0, # of connection points: 3
#     Node 6, Type 0, BuildingBlock: KAKCAD_clean_linker_0, # of connection points: 3
#     Node 7, Type 0, BuildingBlock: KAKCAD_clean_linker_0, # of connection points: 3
#     Node 8, Type 1, BuildingBlock: MIDCAF_clean_sbu_0, # of connection points: 6
#     Node 9, Type 1, BuildingBlock: MIDCAF_clean_sbu_0, # of connection points: 6
#     Node 10, Type 1, BuildingBlock: MIDCAF_clean_sbu_0, # of connection points: 6
#     Node 11, Type 1, BuildingBlock: MIDCAF_clean_sbu_0, # of connection points: 6
#     Edge 12, Type (0, 1), BuildingBlock: TEMPAE_clean_linker_10, # of connection points: 2
#     Edge 13, Type (0, 1), BuildingBlock: TEMPAE_clean_linker_10, # of connection points: 2
#     Edge 14, Type (0, 1), BuildingBlock: TEMPAE_clean_linker_10, # of connection points: 2
#     Edge 15, Type (0, 1), BuildingBlock: TEMPAE_clean_linker_10, # of connection points: 2
#     Edge 16, Type (0, 1), BuildingBlock: TEMPAE_clean_linker_10, # of connection points: 2
#     Edge 17, Type (0, 1), BuildingBlock: TEMPAE_clean_linker_10, # of connection points: 2
#     Edge 18, Type (0, 1), BuildingBlock: TEMPAE_clean_linker_10, # of connection points: 2
#     Edge 19, Type (0, 1), BuildingBlock: TEMPAE_clean_linker_10, # of connection points: 2
#     Edge 20, Type (0, 1), BuildingBlock: TEMPAE_clean_linker_10, # of connection points: 2
#     Edge 21, Type (0, 1), BuildingBlock: TEMPAE_clean_linker_10, # of connection points: 2
#     Edge 22, Type (0, 1), BuildingBlock: TEMPAE_clean_linker_10, # of connection points: 2
#     Edge 23, Type (0, 1), BuildingBlock: TEMPAE_clean_linker_10, # of connection points: 2
#     Edge 24, Type (0, 1), BuildingBlock: TEMPAE_clean_linker_10, # of connection points: 2
#     Edge 25, Type (0, 1), BuildingBlock: TEMPAE_clean_linker_10, # of connection points: 2
#     Edge 26, Type (0, 1), BuildingBlock: TEMPAE_clean_linker_10, # of connection points: 2
#     Edge 27, Type (0, 1), BuildingBlock: TEMPAE_clean_linker_10, # of connection points: 2
#     Edge 28, Type (0, 1), BuildingBlock: TEMPAE_clean_linker_10, # of connection points: 2
#     Edge 29, Type (0, 1), BuildingBlock: TEMPAE_clean_linker_10, # of connection points: 2
#     Edge 30, Type (0, 1), BuildingBlock: TEMPAE_clean_linker_10, # of connection points: 2
#     Edge 31, Type (0, 1), BuildingBlock: TEMPAE_clean_linker_10, # of connection points: 2
#     Edge 32, Type (0, 1), BuildingBlock: TEMPAE_clean_linker_10, # of connection points: 2
#     Edge 33, Type (0, 1), BuildingBlock: TEMPAE_clean_linker_10, # of connection points: 2
#     Edge 34, Type (0, 1), BuildingBlock: TEMPAE_clean_linker_10, # of connection points: 2
#     Edge 35, Type (0, 1), BuildingBlock: TEMPAE_clean_linker_10, # of connection points: 2
# Relax obj value: 0.103
# Max RMSD: 0.159
# Mean RMSD: 0.105
data_MOF--net-ant--node1-MIDCAF_clean_sbu_0--node2-KAKCAD_clean_linker_0--edge1-TEMPAE_clean_linker_10
_symmetry_space_group_name_H-M    P1
_symmetry_Int_Tables_number       1
_symmetry_cell_setting            triclinic
loop_
_symmetry_equiv_pos_as_xyz
'x, y, z'
_cell_length_a     34.996195
_cell_length_b     34.670954
_cell_length_c     94.480556
_cell_angle_alpha  90.32934
_cell_angle_beta   93.687126
_cell_angle_gamma 89.921186
loop_
_atom_site_label
_atom_site_type_symbol
_atom_site_fract_x
_atom_site_fract_y
_atom_site_fract_z
_atom_type_partial_charge
C0 C 0.19645 0.18115 0.01644 0.0
C1 C 0.21155 0.20862 0.00752 0.0
C2 C 0.20083 0.18569 0.03115 0.0
C3 C 0.22085 0.21756 0.03722 0.0
C4 C 0.23724 0.24419 0.02823 0.0
C5 C 0.23243 0.23987 0.01353 0.0
C6 C 0.22249 0.22411 0.05281 0.0
C7 C 0.22561 0.19292 0.06215 0.0
C8 C 0.22223 0.1981 0.07677 0.0
C9 C 0.21735 0.23557 0.08221 0.0
C10 C 0.21538 0.26742 0.07298 0.0
C11 C 0.21786 0.26129 0.05836 0.0
C12 C 0.20789 0.30716 0.07803 0.0
C13 C 0.17588 0.31528 0.08578 0.0
C14 C 0.22996 0.33793 0.07344 0.0
C15 C 0.21935 0.37605 0.07597 0.0
C16 C 0.1862 0.38442 0.08307 0.0
C17 C 0.2207 0.16332 0.08577 0.0
C18 C 0.19595 0.13319 0.08132 0.0
C19 C 0.24569 0.15816 0.09786 0.0
C20 C 0.24683 0.12271 0.10503 0.0
C21 C 0.22264 0.09221 0.10028 0.0
C22 C 0.19699 0.09816 0.08842 0.0
C23 C 0.16508 0.35357 0.08826 0.0
H24 H 0.17994 0.15701 0.01204 0.0
H25 H 0.18722 0.16496 0.03771 0.0
H26 H 0.2534 0.26865 0.03254 0.0
H27 H 0.24474 0.26119 0.00682 0.0
H28 H 0.22989 0.16412 0.05801 0.0
H29 H 0.21411 0.28553 0.0512 0.0
H30 H 0.21418 0.23979 0.09345 0.0
H31 H 0.15811 0.29209 0.08927 0.0
H32 H 0.25493 0.33243 0.06752 0.0
H33 H 0.23692 0.39902 0.07219 0.0
H34 H 0.17632 0.13643 0.07205 0.0
H35 H 0.26521 0.18094 0.10143 0.0
H36 H 0.13935 0.35895 0.09374 0.0
H37 H 0.17842 0.0752 0.08428 0.0
H38 H 0.26677 0.11904 0.11417 0.0
C39 C 0.1304 0.77834 0.26115 0.0
C40 C 0.09612 0.79018 0.25377 0.0
C41 C 0.13539 0.78216 0.27588 0.0
C42 C 0.10675 0.79909 0.28365 0.0
C43 C 0.07375 0.81357 0.27615 0.0
C44 C 0.0682 0.80857 0.26149 0.0
C45 C 0.10981 0.79918 0.2995 0.0
C46 C 0.14542 0.80163 0.30728 0.0
C47 C 0.14799 0.7992 0.32222 0.0
C48 C 0.11419 0.79546 0.32941 0.0
C49 C 0.07853 0.794 0.32177 0.0
C50 C 0.07668 0.79511 0.30695 0.0
C51 C 0.04238 0.79138 0.32892 0.0
C52 C 0.03465 0.75955 0.33737 0.0
C53 C 0.0136 0.81885 0.32585 0.0
C54 C 0.97728 0.8141 0.33079 0.0
C55 C 0.9689 0.78158 0.33881 0.0
C56 C 0.18611 0.79985 0.33017 0.0
C57 C 0.21682 0.77909 0.325 0.0
C58 C 0.19233 0.8213 0.3428 0.0
C59 C 0.22869 0.82245 0.34995 0.0
C60 C 0.25941 0.80188 0.34467 0.0
C61 C 0.25295 0.78015 0.33213 0.0
C62 C -0.00199 0.75453 0.34222 0.0
H63 H 0.15336 0.76538 0.25562 0.0
H64 H 0.16121 0.77053 0.28117 0.0
H65 H 0.05154 0.82808 0.28161 0.0
H66 H 0.04134 0.81811 0.25636 0.0
H67 H 0.17125 0.80583 0.30176 0.0
H68 H 0.049 0.79177 0.30126 0.0
H69 H 0.11553 0.79358 0.34088 0.0
H70 H 0.0564 0.73784 0.33972 0.0
H71 H 0.01898 0.8435 0.31926 0.0
H72 H 0.95534 0.83522 0.32792 0.0
H73 H 0.21293 0.76187 0.31541 0.0
H74 H 0.16929 0.83778 0.34702 0.0
H75 H 0.99228 0.72937 0.34849 0.0
H76 H 0.27608 0.76441 0.32764 0.0
H77 H 0.23274 0.8393 0.35961 0.0
C78 C 0.67359 0.66741 0.51398 0.0
C79 C 0.68618 0.69329 0.50393 0.0
C80 C 0.68165 0.6743 0.52846 0.0
C81 C 0.70299 0.70691 0.53314 0.0
C82 C 0.7166 0.73201 0.52295 0.0
C83 C 0.70801 0.72543 0.50852 0.0
C84 C 0.70997 0.71555 0.54854 0.0
C85 C 0.71659 0.6858 0.5584 0.0
C86 C 0.7218 0.69393 0.57295 0.0
C87 C 0.72091 0.73235 0.57776 0.0
C88 C 0.71455 0.76263 0.568 0.0
C89 C 0.70886 0.75379 0.55348 0.0
C90 C 0.71205 0.80356 0.57267 0.0
C91 C 0.69002 0.81409 0.584 0.0
C92 C 0.72927 0.8328 0.56502 0.0
C93 C 0.72362 0.87165 0.5683 0.0
C94 C 0.70056 0.88229 0.57932 0.0
C95 C 0.72557 0.66137 0.58294 0.0
C96 C 0.69334 0.63881 0.58513 0.0
C97 C 0.76159 0.64972 0.58881 0.0
C98 C 0.76541 0.61511 0.59642 0.0
C99 C 0.73317 0.59198 0.59835 0.0
C100 C 0.69703 0.60462 0.59282 0.0
C101 C 0.68425 0.85305 0.58726 0.0
H102 H 0.65652 0.64254 0.51065 0.0
H103 H 0.67022 0.65463 0.53598 0.0
H104 H 0.73385 0.75688 0.52611 0.0
H105 H 0.71847 0.74549 0.50091 0.0
H106 H 0.71766 0.65608 0.55481 0.0
H107 H 0.70211 0.77685 0.54603 0.0
H108 H 0.72476 0.73852 0.58902 0.0
H109 H 0.67618 0.79227 0.59004 0.0
H110 H 0.7467 0.82561 0.55631 0.0
H111 H 0.7365 0.89338 0.56194 0.0
H112 H 0.66543 0.64702 0.58047 0.0
H113 H 0.78687 0.66655 0.58704 0.0
H114 H 0.66684 0.8603 0.59597 0.0
H115 H 0.67174 0.58714 0.59386 0.0
H116 H 0.79358 0.60606 0.60054 0.0
C117 C 0.6216 0.25246 0.76233 0.0
C118 C 0.59502 0.27593 0.75458 0.0
C119 C 0.62623 0.2555 0.77707 0.0
C120 C 0.60418 0.28185 0.7844 0.0
C121 C 0.57809 0.3058 0.77666 0.0
C122 C 0.57359 0.30291 0.7619 0.0
C123 C 0.60642 0.28236 0.8001 0.0
C124 C 0.64182 0.28103 0.80796 0.0
C125 C 0.64342 0.2796 0.82285 0.0
C126 C 0.60934 0.27882 0.82993 0.0
C127 C 0.57392 0.27963 0.82208 0.0
C128 C 0.57265 0.28188 0.80728 0.0
C129 C 0.53753 0.27513 0.82883 0.0
C130 C 0.52262 0.238 0.83045 0.0
C131 C 0.51432 0.30742 0.83085 0.0
C132 C 0.47616 0.30259 0.83402 0.0
C133 C 0.46061 0.2654 0.83489 0.0
C134 C 0.68105 0.27793 0.83077 0.0
C135 C 0.70362 0.24461 0.83004 0.0
C136 C 0.69604 0.31068 0.83791 0.0
C137 C 0.73378 0.31057 0.8438 0.0
C138 C 0.75668 0.27746 0.84283 0.0
C139 C 0.74103 0.24423 0.83616 0.0
C140 C 0.48432 0.23315 0.8334 0.0
H141 H 0.63815 0.23095 0.75704 0.0
H142 H 0.64608 0.23624 0.78278 0.0
H143 H 0.56098 0.32663 0.78206 0.0
H144 H 0.55335 0.32181 0.75621 0.0
H145 H 0.66819 0.28133 0.80253 0.0
H146 H 0.54511 0.28159 0.80131 0.0
H147 H 0.61037 0.27676 0.84139 0.0
H148 H 0.54002 0.21279 0.82864 0.0
H149 H 0.52517 0.33623 0.82929 0.0
H150 H 0.45826 0.32785 0.83504 0.0
H151 H 0.69256 0.2192 0.82445 0.0
H152 H 0.67906 0.33673 0.83845 0.0
H153 H 0.47289 0.20425 0.8341 0.0
H154 H 0.75831 0.21852 0.83517 0.0
H155 H 0.74534 0.3365 0.84889 0.0
C156 C 0.02878 0.72906 0.98124 0.0
C157 C 0.05993 0.70576 0.98593 0.0
C158 C 0.02314 0.73884 0.9669 0.0
C159 C 0.04816 0.72483 0.95704 0.0
C160 C 0.07914 0.70136 0.96175 0.0
C161 C 0.08518 0.6922 0.97608 0.0
C162 C 0.04155 0.73336 0.94177 0.0
C163 C 0.03951 0.77145 0.93686 0.0
C164 C 0.03607 0.77929 0.92218 0.0
C165 C 0.03359 0.74803 0.9125 0.0
C166 C 0.03599 0.70987 0.9174 0.0
C167 C 0.03964 0.70292 0.93201 0.0
C168 C 0.03756 0.6766 0.90756 0.0
C169 C 0.00797 0.66911 0.89716 0.0
C170 C 0.06751 0.6499 0.90962 0.0
C171 C 0.06711 0.61551 0.90196 0.0
C172 C 0.03676 0.60686 0.89197 0.0
C173 C 0.03835 0.81991 0.91712 0.0
C174 C 0.02209 0.85034 0.92462 0.0
C175 C 0.05905 0.82891 0.90529 0.0
C176 C 0.06426 0.86726 0.90133 0.0
C177 C 0.04925 0.89776 0.90916 0.0
C178 C 0.02763 0.88872 0.92075 0.0
C179 C 0.00743 0.63431 0.88947 0.0
H180 H 0.00925 0.74026 0.9887 0.0
H181 H -0.00101 0.75683 0.96348 0.0
H182 H 0.09887 0.69035 0.95432 0.0
H183 H 0.10947 0.67437 0.97949 0.0
H184 H 0.04271 0.79484 0.94449 0.0
H185 H 0.0414 0.67347 0.93583 0.0
H186 H 0.03102 0.75325 0.90118 0.0
H187 H 0.98449 0.68928 0.89544 0.0
H188 H 0.09072 0.65509 0.91756 0.0
H189 H 0.08983 0.59487 0.90438 0.0
H190 H 0.00547 0.84459 0.93366 0.0
H191 H 0.0724 0.80642 0.89932 0.0
H192 H 0.98377 0.62852 0.88179 0.0
H193 H 0.0158 0.91132 0.92711 0.0
H194 H 0.0804 0.87297 0.89217 0.0
C195 C 0.67068 0.80938 0.23482 0.0
C196 C 0.65193 0.78081 0.24226 0.0
C197 C 0.6649 0.81206 0.22011 0.0
C198 C 0.64 0.78648 0.21253 0.0
C199 C 0.62007 0.75889 0.21995 0.0
C200 C 0.62614 0.75592 0.23466 0.0
C201 C 0.63799 0.78614 0.19686 0.0
C202 C 0.672 0.78457 0.18991 0.0
C203 C 0.6716 0.7832 0.17508 0.0
C204 C 0.63634 0.78335 0.16709 0.0
C205 C 0.60178 0.78476 0.17392 0.0
C206 C 0.60288 0.78594 0.18885 0.0
C207 C 0.56443 0.78469 0.16557 0.0
C208 C 0.55795 0.80885 0.15374 0.0
C209 C 0.53458 0.76108 0.16967 0.0
C210 C 0.49882 0.76204 0.16228 0.0
C211 C 0.492 0.7867 0.15063 0.0
C212 C 0.70852 0.78015 0.16832 0.0
C213 C 0.73995 0.80204 0.17375 0.0
C214 C 0.71389 0.75272 0.1576 0.0
C215 C 0.75057 0.74589 0.153 0.0
C216 C 0.78214 0.76611 0.1592 0.0
C217 C 0.77643 0.79483 0.16934 0.0
C218 C 0.52194 0.81003 0.14639 0.0
H219 H 0.69007 0.82952 0.24036 0.0
H220 H 0.68041 0.83377 0.2146 0.0
H221 H 0.60113 0.73852 0.21431 0.0
H222 H 0.61157 0.73324 0.24001 0.0
H223 H 0.69903 0.78308 0.19618 0.0
H224 H 0.57649 0.78738 0.19424 0.0
H225 H 0.63579 0.78206 0.15561 0.0
H226 H 0.58043 0.82753 0.1504 0.0
H227 H 0.53884 0.74191 0.17865 0.0
H228 H 0.47616 0.7441 0.16594 0.0
H229 H 0.73653 0.82396 0.1818 0.0
H230 H 0.6902 0.73533 0.15328 0.0
H231 H 0.51744 0.82923 0.13743 0.0
H232 H 0.80038 0.81132 0.174 0.0
H233 H 0.75452 0.72383 0.14506 0.0
C234 C 0.54287 0.2212 0.48287 0.0
C235 C 0.56231 0.18734 0.48735 0.0
C236 C 0.53564 0.22907 0.46846 0.0
C237 C 0.54839 0.20376 0.45808 0.0
C238 C 0.56834 0.17022 0.46255 0.0
C239 C 0.57478 0.1619 0.47696 0.0
C240 C 0.54087 0.21215 0.44268 0.0
C241 C 0.54135 0.25018 0.43757 0.0
C242 C 0.53503 0.25803 0.42298 0.0
C243 C 0.52879 0.22701 0.41341 0.0
C244 C 0.52937 0.18895 0.41834 0.0
C245 C 0.53438 0.18188 0.43292 0.0
C246 C 0.52848 0.15582 0.40843 0.0
C247 C 0.49724 0.14912 0.39863 0.0
C248 C 0.55851 0.12904 0.40956 0.0
C249 C 0.55687 0.09539 0.40147 0.0
C250 C 0.52507 0.08758 0.39204 0.0
C251 C 0.53725 0.29844 0.41781 0.0
C252 C 0.52293 0.3292 0.42568 0.0
C253 C 0.55513 0.30679 0.40527 0.0
C254 C 0.5592 0.3449 0.40088 0.0
C255 C 0.54585 0.37572 0.40897 0.0
C256 C 0.52734 0.36734 0.42136 0.0
C257 C 0.49538 0.11497 0.39056 0.0
H258 H 0.53356 0.24211 0.49047 0.0
H259 H 0.51984 0.25496 0.46549 0.0
H260 H 0.57943 0.15035 0.45494 0.0
H261 H 0.58949 0.13537 0.4799 0.0
H262 H 0.54818 0.27366 0.4449 0.0
H263 H 0.53354 0.15236 0.43659 0.0
H264 H 0.52456 0.23224 0.40212 0.0
H265 H 0.47373 0.16948 0.39764 0.0
H266 H 0.58294 0.1337 0.41701 0.0
H267 H 0.5799 0.07465 0.4031 0.0
H268 H 0.50848 0.32386 0.43528 0.0
H269 H 0.56691 0.28397 0.399 0.0
H270 H 0.47055 0.10966 0.38338 0.0
H271 H 0.51692 0.39027 0.42793 0.0
H272 H 0.57296 0.35017 0.39113 0.0
C273 C 0.169 0.30439 0.7344 0.0
C274 C 0.14676 0.27692 0.74099 0.0
C275 C 0.16519 0.30921 0.71971 0.0
C276 C 0.13903 0.28672 0.71131 0.0
C277 C 0.116 0.26005 0.71792 0.0
C278 C 0.11991 0.2551 0.7326 0.0
C279 C 0.13803 0.28893 0.69563 0.0
C280 C 0.17247 0.28868 0.68888 0.0
C281 C 0.17252 0.28867 0.67408 0.0
C282 C 0.13774 0.28965 0.66585 0.0
C283 C 0.10286 0.29052 0.67244 0.0
C284 C 0.10323 0.28968 0.68735 0.0
C285 C 0.06599 0.29235 0.66384 0.0
C286 C 0.05996 0.32002 0.6531 0.0
C287 C 0.03608 0.26722 0.6667 0.0
C288 C 0.00063 0.27007 0.65913 0.0
C289 C 0.99417 0.29837 0.64865 0.0
C290 C 0.20945 0.28607 0.66752 0.0
C291 C 0.23732 0.31452 0.67048 0.0
C292 C 0.21877 0.25296 0.65986 0.0
C293 C 0.25605 0.24769 0.6557 0.0
C294 C 0.28419 0.27579 0.65896 0.0
C295 C 0.27433 0.30959 0.66612 0.0
C296 C 0.0242 0.32325 0.64565 0.0
H297 H 0.18941 0.32211 0.74058 0.0
H298 H 0.18301 0.33031 0.71488 0.0
H299 H 0.096 0.24196 0.71169 0.0
H300 H 0.10268 0.23332 0.73733 0.0
H301 H 0.19949 0.28701 0.69515 0.0
H302 H 0.07645 0.29039 0.69252 0.0
H303 H 0.13787 0.2895 0.65437 0.0
H304 H 0.08255 0.33985 0.65076 0.0
H305 H 0.04005 0.24549 0.67486 0.0
H306 H 0.97784 0.25081 0.66179 0.0
H307 H 0.23066 0.34007 0.67651 0.0
H308 H 0.1977 0.23049 0.65766 0.0
H309 H 0.01993 0.34527 0.63761 0.0
H310 H 0.29562 0.33155 0.66879 0.0
H311 H 0.26304 0.22153 0.65009 0.0
Zn312 Zn 0.16548 0.69396 0.13912 0.0
Zn313 Zn 0.09229 0.80114 0.11013 0.0
Zn314 Zn 0.13083 0.74265 0.12069 0.0
C315 C 0.09622 0.73765 0.0898 0.0
C316 C 0.16401 0.82944 0.11508 0.0
O317 O 0.10358 0.73864 0.14114 0.0
O318 O 0.13141 0.69441 0.15502 0.0
C319 C 0.14859 0.65584 0.11244 0.0
O320 O 0.11409 0.71835 0.09976 0.0
O321 O 0.08574 0.77193 0.09209 0.0
O322 O 0.13108 0.84188 0.11134 0.0
O323 O 0.16907 0.79377 0.1185 0.0
O324 O 0.16295 0.65189 0.12497 0.0
O325 O 0.13393 0.68831 0.1083 0.0
O326 O 0.1891 0.76395 0.12549 0.0
O327 O 0.21411 0.72377 0.14171 0.0
C328 C 0.21721 0.75305 0.13398 0.0
O329 O 0.07625 0.75454 0.13074 0.0
O330 O 0.04707 0.8059 0.12139 0.0
C331 C 0.10638 0.72028 0.15297 0.0
C332 C 0.04755 0.77797 0.12987 0.0
Zn333 Zn 0.57486 0.70279 0.35203 0.0
Zn334 Zn 0.66609 0.7931 0.39733 0.0
Zn335 Zn 0.61352 0.73467 0.37296 0.0
C336 C 0.59188 0.82188 0.386 0.0
C337 C 0.70436 0.76715 0.37245 0.0
O338 O 0.59823 0.67343 0.37883 0.0
O339 O 0.56711 0.65083 0.35945 0.0
C340 C 0.53147 0.76489 0.36069 0.0
O341 O 0.58563 0.78994 0.37905 0.0
O342 O 0.62301 0.82858 0.39319 0.0
O343 O 0.70589 0.78743 0.38369 0.0
O344 O 0.6737 0.74893 0.36776 0.0
O345 O 0.5309 0.73895 0.35126 0.0
O346 O 0.56037 0.76811 0.36974 0.0
O347 O 0.64962 0.73802 0.35478 0.0
O348 O 0.6132 0.7086 0.33804 0.0
C349 C 0.64371 0.726 0.34192 0.0
O350 O 0.61699 0.69291 0.38999 0.0
O351 O 0.64765 0.74163 0.39927 0.0
C352 C 0.58063 0.64552 0.37199 0.0
C353 C 0.63568 0.70809 0.40058 0.0
Zn354 Zn 0.59675 0.28113 0.60689 0.0
Zn355 Zn 0.67501 0.19998 0.64034 0.0
Zn356 Zn 0.63746 0.23888 0.62163 0.0
C357 C 0.7216 0.26164 0.63446 0.0
C358 C 0.66469 0.15078 0.61705 0.0
O359 O 0.58057 0.24756 0.63091 0.0
O360 O 0.54515 0.27215 0.61299 0.0
C361 C 0.65555 0.32791 0.61383 0.0
O362 O 0.69258 0.26931 0.62585 0.0
O363 O 0.72102 0.23262 0.64244 0.0
O364 O 0.67873 0.15215 0.62967 0.0
O365 O 0.64808 0.18095 0.61151 0.0
O366 O 0.62066 0.33174 0.60986 0.0
O367 O 0.66838 0.2946 0.61796 0.0
O368 O 0.62891 0.20626 0.60132 0.0
O369 O 0.6076 0.25672 0.58903 0.0
C370 C 0.61904 0.22227 0.58936 0.0
O371 O 0.6068 0.23599 0.6418 0.0
O372 O 0.64257 0.19902 0.65636 0.0
C373 C 0.54764 0.25791 0.62523 0.0
C374 C 0.61332 0.21974 0.654 0.0
Zn375 Zn 0.05659 0.16706 0.85037 0.0
Zn376 Zn 0.16636 0.29943 0.88376 0.0
Zn377 Zn 0.11854 0.24898 0.87429 0.0
C378 C 0.16563 0.2392 0.90382 0.0
C379 C 0.09629 0.33728 0.8809 0.0
O380 O 0.12964 0.22685 0.85198 0.0
O381 O 0.09992 0.18069 0.83799 0.0
C382 C 0.09463 0.17442 0.88089 0.0
O383 O 0.13948 0.22581 0.89494 0.0
O384 O 0.18265 0.27026 0.90124 0.0
O385 O 0.1305 0.34332 0.88541 0.0
O386 O 0.08598 0.3038 0.87612 0.0
O387 O 0.08159 0.18592 0.86888 0.0
O388 O 0.11388 0.19937 0.88827 0.0
O389 O 0.06201 0.27374 0.87165 0.0
O390 O 0.0555 0.21899 0.86089 0.0
C391 C 0.03994 0.24988 0.86487 0.0
O392 O 0.1637 0.24901 0.85967 0.0
O393 O 0.20011 0.29741 0.86766 0.0
C394 C 0.12586 0.20652 0.84032 0.0
C395 C 0.19322 0.27054 0.8588 0.0
C396 C 0.17682 0.4519 0.07384 0.0
C397 C 0.17378 0.42524 0.08487 0.0
C398 C 0.1683 0.49113 0.07573 0.0
C399 C 0.15645 0.50413 0.08898 0.0
C400 C 0.15126 0.47706 0.09988 0.0
C401 C 0.16003 0.438 0.0977 0.0
C402 C 0.17386 0.51896 0.06381 0.0
C403 C 0.13858 0.48968 0.11416 0.0
C404 C 0.18612 0.60224 0.10336 0.0
C405 C 0.15118 0.62207 0.10301 0.0
C406 C 0.18847 0.56457 0.09812 0.0
C407 C 0.15499 0.54622 0.09223 0.0
C408 C 0.12012 0.56723 0.09078 0.0
C409 C 0.11849 0.60496 0.09637 0.0
C410 C 0.22628 0.54347 0.09991 0.0
C411 C 0.08402 0.54904 0.08424 0.0
H412 H 0.18647 0.44218 0.06374 0.0
H413 H 0.15766 0.41774 0.10629 0.0
H414 H 0.14892 0.53865 0.06234 0.0
H415 H 0.19945 0.53706 0.0665 0.0
H416 H 0.17797 0.50382 0.05362 0.0
H417 H 0.13217 0.4648 0.12098 0.0
H418 H 0.1615 0.50718 0.11974 0.0
H419 H 0.11269 0.50812 0.11284 0.0
H420 H 0.21136 0.61547 0.1086 0.0
H421 H 0.09132 0.62005 0.09631 0.0
H422 H 0.23357 0.53015 0.08973 0.0
H423 H 0.22405 0.51986 0.1077 0.0
H424 H 0.25013 0.56278 0.10372 0.0
H425 H 0.09004 0.53213 0.07462 0.0
H426 H 0.0618 0.57103 0.08133 0.0
H427 H 0.07232 0.52888 0.09194 0.0
C428 C 0.90976 0.80642 0.34913 0.0
C429 C 0.92947 0.77575 0.3432 0.0
C430 C 0.87194 0.80203 0.35286 0.0
C431 C 0.85329 0.76614 0.3505 0.0
C432 C 0.8729 0.73511 0.3444 0.0
C433 C 0.91094 0.74021 0.34089 0.0
C434 C 0.85216 0.83568 0.35953 0.0
C435 C 0.85366 0.69663 0.34159 0.0
C436 C 0.77261 0.74898 0.37441 0.0
C437 C 0.7408 0.76137 0.36586 0.0
C438 C 0.80927 0.74873 0.3693 0.0
C439 C 0.81405 0.76078 0.35525 0.0
C440 C 0.78166 0.77154 0.34636 0.0
C441 C 0.74546 0.77252 0.35193 0.0
C442 C 0.84309 0.73773 0.37922 0.0
C443 C 0.78543 0.78411 0.33125 0.0
H444 H 0.92416 0.83383 0.35099 0.0
H445 H 0.92598 0.71665 0.33609 0.0
H446 H 0.82531 0.84283 0.3532 0.0
H447 H 0.84421 0.82782 0.37032 0.0
H448 H 0.87045 0.86187 0.36035 0.0
H449 H 0.87222 0.67603 0.33614 0.0
H450 H 0.84602 0.68368 0.35173 0.0
H451 H 0.82662 0.70062 0.33495 0.0
H452 H 0.76893 0.74085 0.38531 0.0
H453 H 0.72138 0.78427 0.34574 0.0
H454 H 0.86165 0.7633 0.38135 0.0
H455 H 0.86067 0.7154 0.37425 0.0
H456 H 0.83418 0.72661 0.3895 0.0
H457 H 0.79842 0.81327 0.3312 0.0
H458 H 0.75724 0.7852 0.32514 0.0
H459 H 0.80454 0.76422 0.32576 0.0
C460 C 0.76368 0.52645 0.60054 0.0
C461 C 0.73674 0.55322 0.60499 0.0
C462 C 0.76111 0.48719 0.60408 0.0
C463 C 0.73073 0.47461 0.61211 0.0
C464 C 0.70638 0.50227 0.61798 0.0
C465 C 0.70966 0.54122 0.61434 0.0
C466 C 0.78857 0.45882 0.59807 0.0
C467 C 0.67413 0.49031 0.62687 0.0
C468 C 0.67348 0.38628 0.60104 0.0
C469 C 0.68072 0.36172 0.61262 0.0
C470 C 0.69181 0.42193 0.60034 0.0
C471 C 0.71833 0.43348 0.61151 0.0
C472 C 0.72818 0.40743 0.62269 0.0
C473 C 0.70879 0.37187 0.62322 0.0
C474 C 0.68065 0.4483 0.58806 0.0
C475 C 0.75733 0.41775 0.63455 0.0
H476 H 0.78493 0.53554 0.5934 0.0
H477 H 0.68941 0.56199 0.61811 0.0
H478 H 0.79596 0.43542 0.60574 0.0
H479 H 0.77488 0.44533 0.58834 0.0
H480 H 0.81534 0.47318 0.5952 0.0
H481 H 0.66127 0.51535 0.63222 0.0
H482 H 0.65138 0.47603 0.61999 0.0
H483 H 0.68445 0.46926 0.63505 0.0
H484 H 0.65215 0.37818 0.59272 0.0
H485 H 0.71409 0.35318 0.63227 0.0
H486 H 0.70651 0.45862 0.58305 0.0
H487 H 0.66549 0.47399 0.59198 0.0
H488 H 0.66159 0.43385 0.57979 0.0
H489 H 0.78004 0.43677 0.63081 0.0
H490 H 0.7709 0.39145 0.63931 0.0
H491 H 0.74284 0.43333 0.64298 0.0
C492 C 0.81273 0.25013 0.85714 0.0
C493 C 0.79766 0.27817 0.84774 0.0
C494 C 0.85221 0.24831 0.86079 0.0
C495 C 0.87718 0.27445 0.85455 0.0
C496 C 0.86191 0.30342 0.84531 0.0
C497 C 0.8222 0.30518 0.84213 0.0
C498 C 0.86731 0.21767 0.87099 0.0
C499 C 0.88761 0.33129 0.83821 0.0
C500 C 0.97976 0.28442 0.87003 0.0
C501 C -0.00116 0.2578 0.86176 0.0
C502 C 0.9401 0.29021 0.86784 0.0
C503 C 0.91937 0.26963 0.85687 0.0
C504 C 0.93884 0.24366 0.8482 0.0
C505 C 0.97827 0.23765 0.85089 0.0
C506 C 0.92024 0.31743 0.87751 0.0
C507 C 0.91797 0.22197 0.83614 0.0
H508 H 0.79361 0.22937 0.86151 0.0
H509 H 0.81047 0.3266 0.83475 0.0
H510 H 0.88419 0.19619 0.86527 0.0
H511 H 0.88677 0.23071 0.87943 0.0
H512 H 0.84393 0.20232 0.87603 0.0
H513 H 0.8711 0.35357 0.832 0.0
H514 H 0.9072 0.34594 0.84621 0.0
H515 H 0.90567 0.31521 0.83095 0.0
H516 H 0.99563 0.29987 0.87851 0.0
H517 H 0.99306 0.21724 0.84443 0.0
H518 H 0.89923 0.30119 0.88346 0.0
H519 H 0.90405 0.33966 0.87121 0.0
H520 H 0.94068 0.33214 0.88524 0.0
H521 H 0.89663 0.2022 0.84037 0.0
H522 H 0.93771 0.20473 0.82986 0.0
H523 H 0.9021 0.24246 0.82894 0.0
C524 C 0.00101 0.54625 0.88479 0.0
C525 C 0.03497 0.5679 0.88528 0.0
C526 C 0.0013 0.50656 0.8816 0.0
C527 C 0.03642 0.4882 0.87911 0.0
C528 C 0.06998 0.51069 0.87831 0.0
C529 C 0.0687 0.55028 0.88125 0.0
C530 C 0.96466 0.48388 0.88206 0.0
C531 C 0.10811 0.49245 0.87564 0.0
C532 C 0.06609 0.39083 0.89327 0.0
C533 C 0.06955 0.36994 0.88073 0.0
C534 C 0.05106 0.42827 0.89299 0.0
C535 C 0.04018 0.44546 0.87976 0.0
C536 C 0.04011 0.42298 0.86718 0.0
C537 C 0.05475 0.38516 0.86782 0.0
C538 C 0.05079 0.45075 0.90672 0.0
C539 C 0.02821 0.43998 0.85291 0.0
H540 H 0.97473 0.55962 0.88783 0.0
H541 H 0.0948 0.56709 0.88123 0.0
H542 H 0.96308 0.46069 0.8739 0.0
H543 H 0.96367 0.47004 0.89259 0.0
H544 H 0.93911 0.50278 0.88043 0.0
H545 H 0.13058 0.51431 0.87402 0.0
H546 H 0.11778 0.4744 0.88486 0.0
H547 H 0.1054 0.47334 0.86618 0.0
H548 H 0.0776 0.37882 0.90324 0.0
H549 H 0.05778 0.36892 0.85811 0.0
H550 H 0.02327 0.46632 0.90741 0.0
H551 H 0.074 0.47258 0.90711 0.0
H552 H 0.05522 0.43182 0.91613 0.0
H553 H 0.00306 0.45925 0.85361 0.0
H554 H 0.02122 0.41714 0.84486 0.0
H555 H 0.05207 0.45752 0.8492 0.0
C556 C 0.84915 0.74715 0.16616 0.0
C557 C 0.82143 0.7574 0.15547 0.0
C558 C 0.88787 0.74449 0.16333 0.0
C559 C 0.89892 0.75297 0.14955 0.0
C560 C 0.87066 0.76122 0.13855 0.0
C561 C 0.83206 0.76312 0.14164 0.0
C562 C 0.91709 0.7348 0.17524 0.0
C563 C 0.88141 0.77044 0.12372 0.0
C564 C 0.99325 0.8006 0.14337 0.0
C565 C 0.01347 0.77011 0.13764 0.0
C566 C 0.95687 0.79462 0.14831 0.0
C567 C 0.93997 0.75757 0.14695 0.0
C568 C 0.96125 0.7262 0.1419 0.0
C569 C -0.00183 0.7328 0.13748 0.0
C570 C 0.93561 0.82848 0.15416 0.0
C571 C 0.94404 0.68643 0.14013 0.0
H572 H 0.84059 0.74242 0.17684 0.0
H573 H 0.81044 0.77116 0.13344 0.0
H574 H 0.93699 0.71218 0.1718 0.0
H575 H 0.9345 0.76073 0.17812 0.0
H576 H 0.90349 0.72461 0.18484 0.0
H577 H 0.85594 0.77267 0.11612 0.0
H578 H 0.89702 0.79829 0.12381 0.0
H579 H 0.90086 0.74797 0.11985 0.0
H580 H 0.00542 0.82936 0.14356 0.0
H581 H 0.01389 0.70931 0.13292 0.0
H582 H 0.92366 0.82073 0.16436 0.0
H583 H 0.91122 0.83634 0.14664 0.0
H584 H 0.95428 0.85417 0.15592 0.0
H585 H 0.92936 0.67808 0.14971 0.0
H586 H 0.96595 0.66427 0.13803 0.0
H587 H 0.9222 0.6865 0.13108 0.0
C588 C 0.58592 0.42737 0.39873 0.0
C589 C 0.55173 0.41641 0.4046 0.0
C590 C 0.59154 0.46529 0.3942 0.0
C591 C 0.56252 0.49318 0.39574 0.0
C592 C 0.52836 0.48266 0.40198 0.0
C593 C 0.52326 0.44437 0.40623 0.0
C594 C 0.62817 0.47525 0.38743 0.0
C595 C 0.49681 0.51165 0.40384 0.0
C596 C 0.5896 0.59892 0.39232 0.0
C597 C 0.57602 0.60685 0.37837 0.0
C598 C 0.58481 0.56229 0.39826 0.0
C599 C 0.56683 0.53259 0.3899 0.0
C600 C 0.55342 0.54024 0.37576 0.0
C601 C 0.55791 0.57723 0.37022 0.0
C602 C 0.599 0.55536 0.41346 0.0
C603 C 0.53463 0.50923 0.36641 0.0
H604 H 0.60844 0.40627 0.39769 0.0
H605 H 0.49655 0.4362 0.41058 0.0
H606 H 0.62155 0.48429 0.37629 0.0
H607 H 0.64253 0.49991 0.39309 0.0
H608 H 0.64847 0.45059 0.38745 0.0
H609 H 0.47341 0.4997 0.4099 0.0
H610 H 0.50849 0.53771 0.40945 0.0
H611 H 0.48448 0.521 0.3933 0.0
H612 H 0.60412 0.62121 0.39859 0.0
H613 H 0.54742 0.58276 0.35938 0.0
H614 H 0.62112 0.53238 0.41391 0.0
H615 H 0.57509 0.54517 0.41964 0.0
H616 H 0.61144 0.58174 0.41864 0.0
H617 H 0.55458 0.48459 0.36544 0.0
H618 H 0.52598 0.51984 0.3556 0.0
H619 H 0.50885 0.49807 0.37126 0.0
C620 C 0.93513 0.27011 0.6366 0.0
C621 C 0.95536 0.3028 0.64158 0.0
C622 C 0.89592 0.27219 0.63268 0.0
C623 C 0.87646 0.30782 0.63386 0.0
C624 C 0.89752 0.34168 0.63744 0.0
C625 C 0.93689 0.33877 0.64131 0.0
C626 C 0.87471 0.23548 0.62856 0.0
C627 C 0.87796 0.38032 0.63841 0.0
C628 C 0.77155 0.29722 0.62199 0.0
C629 C 0.75725 0.28416 0.63462 0.0
C630 C 0.80991 0.30908 0.6217 0.0
C631 C 0.83409 0.30739 0.63431 0.0
C632 C 0.81834 0.29832 0.64732 0.0
C633 C 0.78011 0.28676 0.64729 0.0
C634 C 0.82511 0.31988 0.60769 0.0
C635 C 0.84275 0.29688 0.66109 0.0
H636 H 0.94961 0.24245 0.6365 0.0
H637 H 0.95253 0.3642 0.64506 0.0
H638 H 0.85685 0.22676 0.63729 0.0
H639 H 0.85528 0.24012 0.61898 0.0
H640 H 0.89452 0.21137 0.62642 0.0
H641 H 0.89869 0.40447 0.638 0.0
H642 H 0.85535 0.3838 0.62973 0.0
H643 H 0.86399 0.38235 0.6486 0.0
H644 H 0.75374 0.29547 0.61218 0.0
H645 H 0.76875 0.27727 0.6571 0.0
H646 H 0.83623 0.29361 0.60259 0.0
H647 H 0.84886 0.341 0.60907 0.0
H648 H 0.80209 0.33219 0.60042 0.0
H649 H 0.86268 0.27198 0.66086 0.0
H650 H 0.82526 0.29371 0.67042 0.0
H651 H 0.86028 0.32339 0.66253 0.0
C652 C 0.34379 0.23593 0.65934 0.0
C653 C 0.32409 0.26969 0.65522 0.0
C654 C 0.38205 0.23039 0.65615 0.0
C655 C 0.40055 0.25898 0.64845 0.0
C656 C 0.38069 0.29316 0.64432 0.0
C657 C 0.34276 0.29821 0.64786 0.0
C658 C 0.4026 0.19397 0.66095 0.0
C659 C 0.39923 0.32408 0.63589 0.0
C660 C 0.50779 0.26788 0.64593 0.0
C661 C 0.51212 0.25238 0.63245 0.0
C662 C 0.47199 0.26765 0.65185 0.0
C663 C 0.43979 0.25251 0.64382 0.0
C664 C 0.4445 0.23532 0.63042 0.0
C665 C 0.48066 0.2355 0.6249 0.0
C666 C 0.46823 0.28577 0.66626 0.0
C667 C 0.41091 0.21904 0.62148 0.0
H668 H 0.32939 0.21415 0.66523 0.0
H669 H 0.32738 0.32424 0.64467 0.0
H670 H 0.41105 0.17726 0.6516 0.0
H671 H 0.42928 0.20132 0.66737 0.0
H672 H 0.38463 0.17531 0.66735 0.0
H673 H 0.37998 0.34915 0.6337 0.0
H674 H 0.42579 0.33446 0.64172 0.0
H675 H 0.40745 0.31195 0.62562 0.0
H676 H 0.53163 0.28253 0.65139 0.0
H677 H 0.48412 0.22373 0.6144 0.0
H678 H 0.45096 0.26714 0.6729 0.0
H679 H 0.45311 0.31382 0.66502 0.0
H680 H 0.49656 0.29093 0.67194 0.0
H681 H 0.39427 0.19896 0.62779 0.0
H682 H 0.42002 0.20347 0.61195 0.0
H683 H 0.39141 0.24285 0.61794 0.0
C684 C 0.43511 0.82474 0.1411 0.0
C685 C 0.45303 0.78894 0.14354 0.0
C686 C 0.39587 0.82689 0.13694 0.0
C687 C 0.37435 0.79245 0.13531 0.0
C688 C 0.39316 0.7563 0.13651 0.0
C689 C 0.43227 0.75502 0.1406 0.0
C690 C 0.37704 0.86596 0.13546 0.0
C691 C 0.37141 0.71881 0.1346 0.0
C692 C 0.27495 0.7789 0.14719 0.0
C693 C 0.25419 0.773 0.13423 0.0
C694 C 0.3135 0.7897 0.14762 0.0
C695 C 0.33186 0.79332 0.13476 0.0
C696 C 0.31004 0.7908 0.12164 0.0
C697 C 0.27108 0.78101 0.12153 0.0
C698 C 0.33535 0.79367 0.16186 0.0
C699 C 0.32838 0.79468 0.1077 0.0
H700 H 0.4511 0.85109 0.1433 0.0
H701 H 0.44631 0.72732 0.14216 0.0
H702 H 0.35419 0.86605 0.12676 0.0
H703 H 0.36355 0.87329 0.14545 0.0
H704 H 0.39818 0.88882 0.13343 0.0
H705 H 0.39083 0.6935 0.13424 0.0
H706 H 0.35279 0.71495 0.14356 0.0
H707 H 0.35264 0.71932 0.12468 0.0
H708 H 0.26148 0.77324 0.15699 0.0
H709 H 0.25477 0.77653 0.11151 0.0
H710 H 0.35371 0.81975 0.16214 0.0
H711 H 0.35434 0.76827 0.16368 0.0
H712 H 0.31594 0.79556 0.17069 0.0
H713 H 0.35079 0.81733 0.10829 0.0
H714 H 0.30686 0.8016 0.09892 0.0
H715 H 0.34231 0.76697 0.10512 0.0
C716 C 0.40195 0.27779 0.8478 0.0
C717 C 0.41918 0.26043 0.83644 0.0
C718 C 0.36242 0.27461 0.84912 0.0
C719 C 0.3395 0.25437 0.83861 0.0
C720 C 0.35683 0.23681 0.82708 0.0
C721 C 0.39665 0.23971 0.82622 0.0
C722 C 0.34518 0.29318 0.86174 0.0
C723 C 0.33324 0.21596 0.81549 0.0
C724 C 0.24445 0.22648 0.85226 0.0
C725 C 0.22355 0.2603 0.84946 0.0
C726 C 0.28165 0.22242 0.84773 0.0
C727 C 0.2974 0.25242 0.83982 0.0
C728 C 0.27418 0.28414 0.83536 0.0
C729 C 0.23778 0.28825 0.84058 0.0
C730 C 0.30548 0.18838 0.85289 0.0
C731 C 0.28911 0.31573 0.8263 0.0
H732 H 0.41952 0.29373 0.85569 0.0
H733 H 0.4101 0.22673 0.81733 0.0
H734 H 0.32514 0.31643 0.8581 0.0
H735 H 0.32849 0.27161 0.8674 0.0
H736 H 0.36727 0.30581 0.86937 0.0
H737 H 0.35132 0.20208 0.80766 0.0
H738 H 0.31521 0.19356 0.82008 0.0
H739 H 0.31357 0.23667 0.80982 0.0
H740 H 0.23344 0.20516 0.8593 0.0
H741 H 0.22147 0.31444 0.83848 0.0
H742 H 0.32548 0.1978 0.86184 0.0
H743 H 0.32297 0.17701 0.84443 0.0
H744 H 0.28746 0.16468 0.85667 0.0
H745 H 0.30786 0.33519 0.83302 0.0
H746 H 0.26542 0.33317 0.82122 0.0
H747 H 0.30644 0.30358 0.81791 0.0
C748 C 0.31487 0.83875 0.35643 0.0
C749 C 0.29855 0.80351 0.35179 0.0
C750 C 0.35388 0.84115 0.36101 0.0
C751 C 0.37698 0.80764 0.36076 0.0
C752 C 0.35986 0.77156 0.35719 0.0
C753 C 0.32089 0.76996 0.35283 0.0
C754 C 0.37073 0.87995 0.36515 0.0
C755 C 0.38323 0.73489 0.35696 0.0
C756 C 0.47742 0.80175 0.34942 0.0
C757 C 0.49677 0.78834 0.36183 0.0
C758 C 0.43908 0.81326 0.34936 0.0
C759 C 0.41951 0.81021 0.36197 0.0
C760 C 0.44034 0.80125 0.3749 0.0
C761 C 0.47908 0.79054 0.37469 0.0
C762 C 0.41846 0.82415 0.33543 0.0
C763 C 0.4209 0.79875 0.38865 0.0
H764 H 0.29775 0.86483 0.35575 0.0
H765 H 0.30819 0.74248 0.34967 0.0
H766 H 0.3937 0.87727 0.37374 0.0
H767 H 0.38355 0.89288 0.35584 0.0
H768 H 0.34845 0.90006 0.36868 0.0
H769 H 0.36506 0.70887 0.35511 0.0
H770 H 0.40342 0.73648 0.34839 0.0
H771 H 0.40049 0.73138 0.36714 0.0
H772 H 0.49151 0.80062 0.33953 0.0
H773 H 0.49428 0.78038 0.38432 0.0
H774 H 0.39955 0.8494 0.33681 0.0
H775 H 0.40018 0.79971 0.3315 0.0
H776 H 0.43873 0.83109 0.32724 0.0
H777 H 0.39833 0.82109 0.38925 0.0
H778 H 0.4418 0.80199 0.39794 0.0
H779 H 0.40704 0.77011 0.38931 0.0
C780 C 0.72336 0.95062 0.58262 0.0
C781 C 0.69337 0.92375 0.58242 0.0
C782 C 0.71738 0.98944 0.5862 0.0
C783 C 0.68048 0.0018 0.58963 0.0
C784 C 0.64972 0.97523 0.58879 0.0
C785 C 0.65655 0.93651 0.58526 0.0
C786 C 0.75105 0.01672 0.5871 0.0
C787 C 0.6099 0.98733 0.59223 0.0
C788 C 0.67579 0.07997 0.61755 0.0
C789 C 0.66726 0.11322 0.60949 0.0
C790 C 0.68041 0.04397 0.61116 0.0
C791 C 0.6755 0.04048 0.59624 0.0
C792 C 0.66657 0.07369 0.58795 0.0
C793 C 0.66307 0.10984 0.5947 0.0
C794 C 0.69102 0.00968 0.62044 0.0
C795 C 0.66053 0.07102 0.57203 0.0
H796 H 0.75192 0.941 0.5805 0.0
H797 H 0.63306 0.91611 0.58483 0.0
H798 H 0.74368 0.04387 0.58139 0.0
H799 H 0.7584 0.0244 0.59836 0.0
H800 H 0.77675 0.00388 0.58259 0.0
H801 H 0.58831 0.96459 0.58947 0.0
H802 H 0.60946 0.99373 0.60374 0.0
H803 H 0.60143 0.0141 0.58645 0.0
H804 H 0.67922 0.082 0.62901 0.0
H805 H 0.65806 0.13546 0.58843 0.0
H806 H 0.71809 0.99661 0.61719 0.0
H807 H 0.66846 0.98727 0.61913 0.0
H808 H 0.69481 0.01757 0.63185 0.0
H809 H 0.65888 0.0999 0.567 0.0
H810 H 0.63343 0.0554 0.56921 0.0
H811 H 0.68396 0.05437 0.56749 0.0
C812 C 0.19045 0.03307 0.10857 0.0
C813 C 0.22445 0.05349 0.10703 0.0
C814 C 0.19101 0.99395 0.11211 0.0
C815 C 0.22657 0.97475 0.11461 0.0
C816 C 0.26107 0.996 0.11438 0.0
C817 C 0.25964 0.03515 0.11044 0.0
C818 C 0.15334 0.97267 0.11227 0.0
C819 C 0.29953 0.97709 0.11745 0.0
C820 C 0.20313 0.87737 0.12887 0.0
C821 C 0.1954 0.85741 0.11609 0.0
C822 C 0.21896 0.9146 0.12891 0.0
C823 C 0.22657 0.93193 0.11585 0.0
C824 C 0.22409 0.90937 0.10327 0.0
C825 C 0.20817 0.87232 0.10354 0.0
C826 C 0.22275 0.93705 0.14264 0.0
C827 C 0.23295 0.92619 0.08916 0.0
H828 H 0.16317 0.04737 0.10635 0.0
H829 H 0.2861 0.05071 0.10933 0.0
H830 H 0.15173 0.95021 0.10384 0.0
H831 H 0.15114 0.95793 0.12257 0.0
H832 H 0.12827 0.99216 0.11052 0.0
H833 H 0.3215 0.99854 0.12122 0.0
H834 H 0.29812 0.95406 0.12551 0.0
H835 H 0.30904 0.96372 0.10757 0.0
H836 H 0.19305 0.8657 0.13859 0.0
H837 H 0.202 0.85673 0.09367 0.0
H838 H 0.19704 0.95546 0.14352 0.0
H839 H 0.24816 0.95622 0.14298 0.0
H840 H 0.22508 0.91754 0.15195 0.0
H841 H 0.20939 0.94587 0.08544 0.0
H842 H 0.2359 0.90341 0.08098 0.0
H843 H 0.25975 0.94326 0.09017 0.0
C844 C 0.48918 0.0267 0.3856 0.0
C845 C 0.52232 0.04925 0.38497 0.0
C846 C 0.49009 0.9869 0.38269 0.0
C847 C 0.52509 0.96951 0.37943 0.0
C848 C 0.55718 0.99299 0.37714 0.0
C849 C 0.55519 0.03267 0.37977 0.0
C850 C 0.45471 0.96305 0.38444 0.0
C851 C 0.59506 0.9758 0.37352 0.0
C852 C 0.56031 0.87761 0.39662 0.0
C853 C 0.56434 0.85392 0.38477 0.0
C854 C 0.54418 0.91437 0.39516 0.0
C855 C 0.5312 0.92746 0.3815 0.0
C856 C 0.53118 0.90189 0.36976 0.0
C857 C 0.54857 0.86554 0.37148 0.0
C858 C 0.54485 0.94054 0.40803 0.0
C859 C 0.51605 0.91392 0.35515 0.0
H860 H 0.46348 0.03939 0.38946 0.0
H861 H 0.58049 0.05029 0.37885 0.0
H862 H 0.4528 0.93865 0.37677 0.0
H863 H 0.45592 0.9508 0.39528 0.0
H864 H 0.42833 0.98082 0.383 0.0
H865 H 0.61594 0.99821 0.37076 0.0
H866 H 0.6076 0.95938 0.38276 0.0
H867 H 0.59097 0.95538 0.36449 0.0
H868 H 0.57253 0.86848 0.40691 0.0
H869 H 0.55251 0.84772 0.36223 0.0
H870 H 0.51634 0.95385 0.40906 0.0
H871 H 0.56566 0.96424 0.40681 0.0
H872 H 0.55315 0.92495 0.418 0.0
H873 H 0.49195 0.9346 0.35564 0.0
H874 H 0.50626 0.88848 0.34869 0.0
H875 H 0.53925 0.92813 0.34964 0.0
C876 C 0.09271 0.94962 0.90085 0.0
C877 C 0.05691 0.93876 0.90547 0.0
C878 C 0.10033 0.98799 0.89726 0.0
C879 C 0.07171 0.01646 0.89851 0.0
C880 C 0.03576 0.00592 0.90337 0.0
C881 C 0.02871 0.96723 0.90669 0.0
C882 C 0.13887 0.99795 0.89195 0.0
C883 C 0.00452 0.03547 0.90488 0.0
C884 C 0.10055 0.12249 0.89936 0.0
C885 C 0.08976 0.13393 0.88547 0.0
C886 C 0.09487 0.08438 0.90381 0.0
C887 C 0.07861 0.05689 0.89403 0.0
C888 C 0.06848 0.06808 0.87991 0.0
C889 C 0.07395 0.10642 0.87585 0.0
C890 C 0.1058 0.07369 0.919 0.0
C891 C 0.05171 0.03958 0.86907 0.0
H892 H 0.11502 0.92814 0.90013 0.0
H893 H 0.00079 0.95922 0.91005 0.0
H894 H 0.13508 0.00977 0.88106 0.0
H895 H 0.15293 0.02064 0.89877 0.0
H896 H 0.15824 0.97256 0.89177 0.0
H897 H 0.97895 0.02307 0.90956 0.0
H898 H 0.0154 0.05978 0.91168 0.0
H899 H 0.99556 0.04756 0.89434 0.0
H900 H 0.11307 0.14337 0.90682 0.0
H901 H 0.06595 0.11464 0.86504 0.0
H902 H 0.12661 0.0495 0.91935 0.0
H903 H 0.0801 0.06365 0.9242 0.0
H904 H 0.11862 0.09829 0.92522 0.0
H905 H 0.07134 0.01464 0.86818 0.0
H906 H 0.04646 0.05262 0.85841 0.0
H907 H 0.02421 0.02822 0.87252 0.0
C908 C 0.21045 0.1717 0.98462 0.0
C909 C 0.2037 0.20601 0.99199 0.0
C910 C 0.20386 0.16964 0.96982 0.0
C911 C 0.18986 0.20253 0.96234 0.0
C912 C 0.18182 0.23679 0.96984 0.0
C913 C 0.18906 0.23815 0.98456 0.0
C914 C 0.21288 0.13276 0.96214 0.0
C915 C 0.16636 0.27237 0.96227 0.0
C916 C 0.21016 0.226 0.9247 0.0
C917 C 0.17392 0.22111 0.91774 0.0
C918 C 0.21663 0.21693 0.93907 0.0
C919 C 0.18604 0.20269 0.94662 0.0
C920 C 0.15028 0.19461 0.93933 0.0
C921 C 0.14453 0.20427 0.92495 0.0
C922 C 0.25525 0.22581 0.94642 0.0
C923 C 0.11708 0.17901 0.94697 0.0
H924 H 0.22175 0.14684 0.99041 0.0
H925 H 0.18317 0.26442 0.99032 0.0
H926 H 0.18814 0.12388 0.95493 0.0
H927 H 0.2374 0.13759 0.95548 0.0
H928 H 0.22029 0.10881 0.96958 0.0
H929 H 0.15971 0.29592 0.96975 0.0
H930 H 0.18765 0.28322 0.95505 0.0
H931 H 0.13992 0.26521 0.95568 0.0
H932 H 0.23298 0.23889 0.9191 0.0
H933 H 0.11624 0.20137 0.91969 0.0
H934 H 0.26516 0.20154 0.95332 0.0
H935 H 0.25283 0.25165 0.95329 0.0
H936 H 0.27729 0.23162 0.93875 0.0
H937 H 0.1267 0.15625 0.95459 0.0
H938 H 0.09442 0.16693 0.93944 0.0
H939 H 0.10435 0.20267 0.95308 0.0
C940 C 0.06613 0.80667 0.22944 0.0
C941 C 0.08907 0.78212 0.23825 0.0
C942 C 0.05956 0.79899 0.21487 0.0
C943 C 0.07785 0.76709 0.20879 0.0
C944 C 0.10053 0.74193 0.2176 0.0
C945 C 0.10505 0.74922 0.2322 0.0
C946 C 0.03404 0.82583 0.20598 0.0
C947 C 0.12138 0.70802 0.21154 0.0
C948 C 0.06105 0.72155 0.17242 0.0
C949 C 0.09103 0.73809 0.16549 0.0
C950 C 0.05328 0.73401 0.18615 0.0
C951 C 0.0774 0.76199 0.19315 0.0
C952 C 0.10585 0.78053 0.18567 0.0
C953 C 0.11184 0.76871 0.17182 0.0
C954 C 0.02095 0.71565 0.19348 0.0
C955 C 0.13269 0.80998 0.19272 0.0
H956 H 0.05377 0.83243 0.2338 0.0
H957 H 0.12152 0.72905 0.23884 0.0
H958 H 0.0518 0.84809 0.20118 0.0
H959 H 0.01794 0.81009 0.19724 0.0
H960 H 0.01328 0.84088 0.21251 0.0
H961 H 0.13828 0.69154 0.21983 0.0
H962 H 0.10066 0.6881 0.20595 0.0
H963 H 0.14116 0.7183 0.20364 0.0
H964 H 0.04485 0.69802 0.16738 0.0
H965 H 0.13512 0.78124 0.16634 0.0
H966 H 0.00427 0.73803 0.19885 0.0
H967 H 0.03272 0.69552 0.20174 0.0
H968 H 0.00136 0.69929 0.18594 0.0
H969 H 0.11631 0.83311 0.19776 0.0
H970 H 0.15157 0.82342 0.18513 0.0
H971 H 0.15099 0.79586 0.20122 0.0
C972 C 0.68398 0.65286 0.48188 0.0
C973 C 0.67575 0.68765 0.48867 0.0
C974 C 0.67647 0.64847 0.46718 0.0
C975 C 0.65984 0.6794 0.45924 0.0
C976 C 0.65013 0.71404 0.46619 0.0
C977 C 0.65847 0.71781 0.48082 0.0
C978 C 0.68787 0.61153 0.46004 0.0
C979 C 0.63227 0.74771 0.4581 0.0
C980 C 0.67991 0.69767 0.42126 0.0
C981 C 0.64435 0.68939 0.41424 0.0
C982 C 0.68615 0.69219 0.43583 0.0
C983 C 0.65614 0.67751 0.44354 0.0
C984 C 0.62125 0.66587 0.4363 0.0
C985 C 0.61552 0.67246 0.42165 0.0
C986 C 0.72365 0.70544 0.44309 0.0
C987 C 0.58884 0.64964 0.44417 0.0
H988 H 0.69753 0.62964 0.48799 0.0
H989 H 0.65177 0.74454 0.48614 0.0
H990 H 0.66379 0.60039 0.45297 0.0
H991 H 0.71206 0.61728 0.45331 0.0
H992 H 0.69682 0.58886 0.46783 0.0
H993 H 0.62356 0.77124 0.46525 0.0
H994 H 0.65302 0.7596 0.45087 0.0
H995 H 0.60673 0.73808 0.45145 0.0
H996 H 0.70202 0.71133 0.41548 0.0
H997 H 0.58766 0.66724 0.4163 0.0
H998 H 0.73535 0.68322 0.45057 0.0
H999 H 0.71882 0.73202 0.44933 0.0
H1000 H 0.74544 0.71188 0.43538 0.0
H1001 H 0.59965 0.62828 0.45216 0.0
H1002 H 0.56686 0.63562 0.43686 0.0
H1003 H 0.57497 0.67333 0.44991 0.0
C1004 C 0.55264 0.2721 0.73208 0.0
C1005 C 0.5895 0.27168 0.73893 0.0
C1006 C 0.54725 0.26598 0.71737 0.0
C1007 C 0.57943 0.25893 0.70941 0.0
C1008 C 0.6167 0.25936 0.71623 0.0
C1009 C 0.62124 0.26595 0.73086 0.0
C1010 C 0.50719 0.26615 0.71042 0.0
C1011 C 0.65189 0.25209 0.70812 0.0
C1012 C 0.58228 0.20112 0.67573 0.0
C1013 C 0.59131 0.22993 0.66619 0.0
C1014 C 0.57389 0.21051 0.68964 0.0
C1015 C 0.57494 0.24963 0.69404 0.0
C1016 C 0.57991 0.27899 0.68397 0.0
C1017 C 0.58866 0.26871 0.67018 0.0
C1018 C 0.56854 0.1783 0.70001 0.0
C1019 C 0.5803 0.32106 0.68813 0.0
H1020 H 0.52792 0.27622 0.73827 0.0
H1021 H 0.64981 0.2664 0.73603 0.0
H1022 H 0.50558 0.28543 0.70106 0.0
H1023 H 0.49953 0.23674 0.70654 0.0
H1024 H 0.48561 0.2757 0.71782 0.0
H1025 H 0.67878 0.25374 0.71502 0.0
H1026 H 0.65016 0.22307 0.7031 0.0
H1027 H 0.65347 0.27353 0.69951 0.0
H1028 H 0.58486 0.17108 0.67265 0.0
H1029 H 0.59649 0.29096 0.66288 0.0
H1030 H 0.54549 0.18536 0.70711 0.0
H1031 H 0.59542 0.17437 0.70674 0.0
H1032 H 0.56153 0.15055 0.6945 0.0
H1033 H 0.55794 0.32743 0.69562 0.0
H1034 H 0.57571 0.33998 0.67872 0.0
H1035 H 0.60848 0.3283 0.69355 0.0
C1036 C 0.10254 0.70742 0.00806 0.0
C1037 C 0.06726 0.69748 0.0012 0.0
C1038 C 0.10832 0.70498 0.02285 0.0
C1039 C 0.07828 0.69153 0.0309 0.0
C1040 C 0.04385 0.67814 0.02385 0.0
C1041 C 0.03846 0.6819 0.00907 0.0
C1042 C 0.14515 0.72039 0.02992 0.0
C1043 C 0.01162 0.66252 0.03201 0.0
C1044 C 0.10236 0.68649 0.07082 0.0
C1045 C 0.08875 0.72241 0.07517 0.0
C1046 C 0.09728 0.67462 0.05652 0.0
C1047 C 0.07959 0.70003 0.04636 0.0
C1048 C 0.06507 0.73586 0.0508 0.0
C1049 C 0.06922 0.74617 0.0651 0.0
C1050 C 0.11181 0.63553 0.05227 0.0
C1051 C 0.04659 0.76434 0.04037 0.0
H1052 H 0.12478 0.71947 0.00195 0.0
H1053 H 0.01138 0.67362 0.00369 0.0
H1054 H 0.13938 0.74826 0.03522 0.0
H1055 H 0.15678 0.70026 0.03819 0.0
H1056 H 0.1673 0.72522 0.02221 0.0
H1057 H 0.99076 0.64586 0.02505 0.0
H1058 H 0.02292 0.64372 0.04078 0.0
H1059 H 0.99615 0.68679 0.03678 0.0
H1060 H 0.11769 0.66814 0.07845 0.0
H1061 H 0.05815 0.77391 0.06825 0.0
H1062 H 0.13888 0.63897 0.04692 0.0
H1063 H 0.09088 0.62114 0.04465 0.0
H1064 H 0.11749 0.61649 0.06159 0.0
H1065 H 0.0671 0.77231 0.03239 0.0
H1066 H 0.0372 0.79119 0.0456 0.0
H1067 H 0.02128 0.75114 0.03458 0.0
C1068 C 0.62986 0.76722 0.26638 0.0
C1069 C 0.65972 0.77641 0.25782 0.0
C1070 C 0.63678 0.7612 0.28095 0.0
C1071 C 0.67449 0.76512 0.28722 0.0
C1072 C 0.70471 0.77537 0.27875 0.0
C1073 C 0.69703 0.78059 0.26411 0.0
C1074 C 0.60364 0.75025 0.28962 0.0
C1075 C 0.7451 0.7803 0.28512 0.0
C1076 C 0.66585 0.77662 0.32634 0.0
C1077 C 0.66762 0.73803 0.33059 0.0
C1078 C 0.67347 0.78693 0.31249 0.0
C1079 C 0.68152 0.75763 0.30262 0.0
C1080 C 0.68753 0.71927 0.30734 0.0
C1081 C 0.68044 0.70992 0.32134 0.0
C1082 C 0.66807 0.82838 0.30801 0.0
C1083 C 0.69611 0.68711 0.29719 0.0
H1084 H 0.60088 0.76474 0.26168 0.0
H1085 H 0.72041 0.78722 0.25755 0.0
H1086 H 0.60962 0.72229 0.29498 0.0
H1087 H 0.59991 0.77225 0.29799 0.0
H1088 H 0.57627 0.74765 0.28305 0.0
H1089 H 0.76467 0.79162 0.27733 0.0
H1090 H 0.7455 0.80025 0.29435 0.0
H1091 H 0.75634 0.75216 0.28907 0.0
H1092 H 0.65517 0.79822 0.33345 0.0
H1093 H 0.681 0.67996 0.32459 0.0
H1094 H 0.63899 0.83204 0.30278 0.0
H1095 H 0.68913 0.83666 0.30029 0.0
H1096 H 0.67094 0.84835 0.31726 0.0
H1097 H 0.66933 0.67889 0.29098 0.0
H1098 H 0.70751 0.66116 0.30288 0.0
H1099 H 0.71704 0.69644 0.28958 0.0
C1100 C 0.60485 0.16152 0.50772 0.0
C1101 C 0.57051 0.17947 0.50277 0.0
C1102 C 0.61457 0.1578 0.5223 0.0
C1103 C 0.59018 0.17373 0.53217 0.0
C1104 C 0.55452 0.18979 0.5273 0.0
C1105 C 0.54485 0.19176 0.5127 0.0
C1106 C 0.6522 0.13921 0.5271 0.0
C1107 C 0.52791 0.20792 0.53743 0.0
C1108 C 0.60146 0.1683 0.5724 0.0
C1109 C 0.62084 0.20291 0.57553 0.0
C1110 C 0.59416 0.15627 0.55822 0.0
C1111 C 0.60473 0.18057 0.5471 0.0
C1112 C 0.62593 0.21456 0.55033 0.0
C1113 C 0.63443 0.22472 0.56449 0.0
C1114 C 0.5735 0.11873 0.55512 0.0
C1115 C 0.6366 0.24222 0.53891 0.0
H1116 H 0.62514 0.15191 0.50026 0.0
H1117 H 0.51762 0.20431 0.50907 0.0
H1118 H 0.67366 0.16188 0.53001 0.0
H1119 H 0.64901 0.12121 0.53663 0.0
H1120 H 0.66353 0.12097 0.51861 0.0
H1121 H 0.49995 0.21625 0.53206 0.0
H1122 H 0.52253 0.18788 0.54617 0.0
H1123 H 0.54151 0.23418 0.54226 0.0
H1124 H 0.59031 0.15181 0.58094 0.0
H1125 H 0.64912 0.25172 0.56695 0.0
H1126 H 0.58878 0.10157 0.54729 0.0
H1127 H 0.54427 0.12446 0.55036 0.0
H1128 H 0.57113 0.10126 0.56484 0.0
H1129 H 0.65345 0.2272 0.531 0.0
H1130 H 0.65361 0.26712 0.54326 0.0
H1131 H 0.61022 0.2535 0.53321 0.0
C1132 C 0.1886 0.26914 0.76346 0.0
C1133 C 0.15186 0.27043 0.75653 0.0
C1134 C 0.19359 0.26096 0.77802 0.0
C1135 C 0.16108 0.25343 0.78572 0.0
C1136 C 0.12394 0.25569 0.77884 0.0
C1137 C 0.11982 0.26432 0.76437 0.0
C1138 C 0.2336 0.25916 0.785 0.0
C1139 C 0.08843 0.2482 0.7867 0.0
C1140 C 0.15564 0.1906 0.8178 0.0
C1141 C 0.14703 0.21812 0.82803 0.0
C1142 C 0.16478 0.20191 0.80421 0.0
C1143 C 0.16502 0.24163 0.80082 0.0
C1144 C 0.16082 0.2695 0.81161 0.0
C1145 C 0.15139 0.25739 0.82508 0.0
C1146 C 0.16992 0.17129 0.79307 0.0
C1147 C 0.16211 0.31212 0.80854 0.0
H1148 H 0.21355 0.27351 0.75744 0.0
H1149 H 0.09137 0.26609 0.75916 0.0
H1150 H 0.23493 0.2731 0.79562 0.0
H1151 H 0.24211 0.22856 0.78652 0.0
H1152 H 0.25479 0.27322 0.77845 0.0
H1153 H 0.06169 0.25175 0.77984 0.0
H1154 H 0.08919 0.2184 0.79094 0.0
H1155 H 0.0874 0.26825 0.79586 0.0
H1156 H 0.15246 0.16021 0.8201 0.0
H1157 H 0.14423 0.27885 0.83287 0.0
H1158 H 0.19396 0.1787 0.7865 0.0
H1159 H 0.14354 0.1695 0.78592 0.0
H1160 H 0.17543 0.14245 0.79786 0.0
H1161 H 0.18593 0.31887 0.80177 0.0
H1162 H 0.1656 0.32957 0.81844 0.0
H1163 H 0.135 0.32088 0.80269 0.0
loop_
_geom_bond_atom_site_label_1
_geom_bond_atom_site_label_2
_geom_bond_distance
_geom_bond_site_symmetry_2
_ccdc_geom_bond_type
C0 C1 1.386 . S
C0 C2 1.397 . S
C0 H24 0.931 . S
C1 C0 1.386 . S
C1 C5 1.397 . S
C2 C0 1.397 . S
C2 C3 1.384 . S
C2 H25 0.930 . S
C3 C2 1.384 . S
C3 C4 1.377 . S
C3 C6 1.481 . S
C4 C3 1.377 . S
C4 C5 1.389 . S
C4 H26 0.929 . S
C5 C1 1.397 . S
C5 C4 1.389 . S
C5 H27 0.931 . S
C6 C3 1.481 . S
C6 C7 1.387 . S
C6 C11 1.390 . S
C7 C6 1.387 . S
C7 C8 1.401 . S
C7 H28 0.930 . S
C8 C7 1.401 . S
C8 C9 1.376 . S
C8 C17 1.511 . S
C9 C8 1.376 . S
C9 C10 1.392 . S
C9 H30 0.931 . S
C10 C9 1.392 . S
C10 C11 1.361 . S
C10 C12 1.500 . S
C11 C6 1.390 . S
C11 C10 1.361 . S
C11 H29 0.931 . S
C12 C10 1.500 . S
C12 C13 1.371 . S
C12 C14 1.365 . S
C13 C12 1.371 . S
C13 C23 1.386 . S
C13 H31 0.931 . S
C14 C12 1.365 . S
C14 C15 1.409 . S
C14 H32 0.929 . S
C15 C14 1.409 . S
C15 C16 1.380 . S
C15 H33 0.930 . S
C16 C15 1.380 . S
C16 C23 1.357 . S
C17 C8 1.511 . S
C17 C18 1.341 . S
C17 C19 1.371 . S
C18 C17 1.341 . S
C18 C22 1.394 . S
C18 H34 0.930 . S
C19 C17 1.371 . S
C19 C20 1.392 . S
C19 H35 0.931 . S
C20 C19 1.392 . S
C20 C21 1.331 . S
C20 H38 0.932 . S
C21 C20 1.331 . S
C21 C22 1.336 . S
C22 C18 1.394 . S
C22 C21 1.336 . S
C22 H37 0.929 . S
C23 C13 1.386 . S
C23 C16 1.357 . S
C23 H36 0.928 . S
H24 C0 0.931 . S
H25 C2 0.930 . S
H26 C4 0.929 . S
H27 C5 0.931 . S
H28 C7 0.930 . S
H29 C11 0.931 . S
H30 C9 0.931 . S
H31 C13 0.931 . S
H32 C14 0.929 . S
H33 C15 0.930 . S
H34 C18 0.930 . S
H35 C19 0.931 . S
H36 C23 0.928 . S
H37 C22 0.929 . S
H38 C20 0.932 . S
C39 C40 1.386 . S
C39 C41 1.397 . S
C39 H63 0.931 . S
C40 C39 1.386 . S
C40 C44 1.397 . S
C41 C39 1.397 . S
C41 C42 1.384 . S
C41 H64 0.930 . S
C42 C41 1.384 . S
C42 C43 1.377 . S
C42 C45 1.481 . S
C43 C42 1.377 . S
C43 C44 1.389 . S
C43 H65 0.929 . S
C44 C40 1.397 . S
C44 C43 1.389 . S
C44 H66 0.931 . S
C45 C42 1.481 . S
C45 C46 1.387 . S
C45 C50 1.390 . S
C46 C45 1.387 . S
C46 C47 1.401 . S
C46 H67 0.930 . S
C47 C46 1.401 . S
C47 C48 1.376 . S
C47 C56 1.511 . S
C48 C47 1.376 . S
C48 C49 1.392 . S
C48 H69 0.931 . S
C49 C48 1.392 . S
C49 C50 1.361 . S
C49 C51 1.500 . S
C50 C45 1.390 . S
C50 C49 1.361 . S
C50 H68 0.931 . S
C51 C49 1.500 . S
C51 C52 1.371 . S
C51 C53 1.365 . S
C52 C51 1.371 . S
C52 C62 1.386 . S
C52 H70 0.931 . S
C53 C51 1.365 . S
C53 C54 1.409 1_455 S
C53 H71 0.929 . S
C54 C53 1.409 1_655 S
C54 C55 1.380 . S
C54 H72 0.930 . S
C55 C54 1.380 . S
C55 C62 1.357 1_655 S
C56 C47 1.511 . S
C56 C57 1.341 . S
C56 C58 1.371 . S
C57 C56 1.341 . S
C57 C61 1.394 . S
C57 H73 0.930 . S
C58 C56 1.371 . S
C58 C59 1.392 . S
C58 H74 0.931 . S
C59 C58 1.392 . S
C59 C60 1.331 . S
C59 H77 0.932 . S
C60 C59 1.331 . S
C60 C61 1.336 . S
C61 C57 1.394 . S
C61 C60 1.336 . S
C61 H76 0.929 . S
C62 C52 1.386 . S
C62 C55 1.357 1_455 S
C62 H75 0.928 . S
H63 C39 0.931 . S
H64 C41 0.930 . S
H65 C43 0.929 . S
H66 C44 0.931 . S
H67 C46 0.930 . S
H68 C50 0.931 . S
H69 C48 0.931 . S
H70 C52 0.931 . S
H71 C53 0.929 . S
H72 C54 0.930 . S
H73 C57 0.930 . S
H74 C58 0.931 . S
H75 C62 0.928 . S
H76 C61 0.929 . S
H77 C59 0.932 . S
C78 C79 1.386 . S
C78 C80 1.397 . S
C78 H102 0.931 . S
C79 C78 1.386 . S
C79 C83 1.397 . S
C80 C78 1.397 . S
C80 C81 1.384 . S
C80 H103 0.930 . S
C81 C80 1.384 . S
C81 C82 1.377 . S
C81 C84 1.481 . S
C82 C81 1.377 . S
C82 C83 1.389 . S
C82 H104 0.929 . S
C83 C79 1.397 . S
C83 C82 1.389 . S
C83 H105 0.931 . S
C84 C81 1.481 . S
C84 C85 1.387 . S
C84 C89 1.390 . S
C85 C84 1.387 . S
C85 C86 1.401 . S
C85 H106 0.930 . S
C86 C85 1.401 . S
C86 C87 1.376 . S
C86 C95 1.511 . S
C87 C86 1.376 . S
C87 C88 1.392 . S
C87 H108 0.931 . S
C88 C87 1.392 . S
C88 C89 1.361 . S
C88 C90 1.500 . S
C89 C84 1.390 . S
C89 C88 1.361 . S
C89 H107 0.931 . S
C90 C88 1.500 . S
C90 C91 1.371 . S
C90 C92 1.365 . S
C91 C90 1.371 . S
C91 C101 1.386 . S
C91 H109 0.931 . S
C92 C90 1.365 . S
C92 C93 1.409 . S
C92 H110 0.929 . S
C93 C92 1.409 . S
C93 C94 1.380 . S
C93 H111 0.930 . S
C94 C93 1.380 . S
C94 C101 1.357 . S
C95 C86 1.511 . S
C95 C96 1.341 . S
C95 C97 1.371 . S
C96 C95 1.341 . S
C96 C100 1.394 . S
C96 H112 0.930 . S
C97 C95 1.371 . S
C97 C98 1.392 . S
C97 H113 0.931 . S
C98 C97 1.392 . S
C98 C99 1.331 . S
C98 H116 0.932 . S
C99 C98 1.331 . S
C99 C100 1.336 . S
C100 C96 1.394 . S
C100 C99 1.336 . S
C100 H115 0.929 . S
C101 C91 1.386 . S
C101 C94 1.357 . S
C101 H114 0.928 . S
H102 C78 0.931 . S
H103 C80 0.930 . S
H104 C82 0.929 . S
H105 C83 0.931 . S
H106 C85 0.930 . S
H107 C89 0.931 . S
H108 C87 0.931 . S
H109 C91 0.931 . S
H110 C92 0.929 . S
H111 C93 0.930 . S
H112 C96 0.930 . S
H113 C97 0.931 . S
H114 C101 0.928 . S
H115 C100 0.929 . S
H116 C98 0.932 . S
C117 C118 1.386 . S
C117 C119 1.397 . S
C117 H141 0.931 . S
C118 C117 1.386 . S
C118 C122 1.397 . S
C119 C117 1.397 . S
C119 C120 1.384 . S
C119 H142 0.930 . S
C120 C119 1.384 . S
C120 C121 1.377 . S
C120 C123 1.481 . S
C121 C120 1.377 . S
C121 C122 1.389 . S
C121 H143 0.929 . S
C122 C118 1.397 . S
C122 C121 1.389 . S
C122 H144 0.931 . S
C123 C120 1.481 . S
C123 C124 1.387 . S
C123 C128 1.390 . S
C124 C123 1.387 . S
C124 C125 1.401 . S
C124 H145 0.930 . S
C125 C124 1.401 . S
C125 C126 1.376 . S
C125 C134 1.511 . S
C126 C125 1.376 . S
C126 C127 1.392 . S
C126 H147 0.931 . S
C127 C126 1.392 . S
C127 C128 1.361 . S
C127 C129 1.500 . S
C128 C123 1.390 . S
C128 C127 1.361 . S
C128 H146 0.931 . S
C129 C127 1.500 . S
C129 C130 1.371 . S
C129 C131 1.365 . S
C130 C129 1.371 . S
C130 C140 1.386 . S
C130 H148 0.931 . S
C131 C129 1.365 . S
C131 C132 1.409 . S
C131 H149 0.929 . S
C132 C131 1.409 . S
C132 C133 1.380 . S
C132 H150 0.930 . S
C133 C132 1.380 . S
C133 C140 1.357 . S
C134 C125 1.511 . S
C134 C135 1.341 . S
C134 C136 1.371 . S
C135 C134 1.341 . S
C135 C139 1.394 . S
C135 H151 0.930 . S
C136 C134 1.371 . S
C136 C137 1.392 . S
C136 H152 0.931 . S
C137 C136 1.392 . S
C137 C138 1.331 . S
C137 H155 0.932 . S
C138 C137 1.331 . S
C138 C139 1.336 . S
C139 C135 1.394 . S
C139 C138 1.336 . S
C139 H154 0.929 . S
C140 C130 1.386 . S
C140 C133 1.357 . S
C140 H153 0.928 . S
H141 C117 0.931 . S
H142 C119 0.930 . S
H143 C121 0.929 . S
H144 C122 0.931 . S
H145 C124 0.930 . S
H146 C128 0.931 . S
H147 C126 0.931 . S
H148 C130 0.931 . S
H149 C131 0.929 . S
H150 C132 0.930 . S
H151 C135 0.930 . S
H152 C136 0.931 . S
H153 C140 0.928 . S
H154 C139 0.929 . S
H155 C137 0.932 . S
C156 C157 1.386 . S
C156 C158 1.397 . S
C156 H180 0.931 . S
C157 C156 1.386 . S
C157 C161 1.397 . S
C158 C156 1.397 . S
C158 C159 1.384 . S
C158 H181 0.930 . S
C159 C158 1.384 . S
C159 C160 1.377 . S
C159 C162 1.481 . S
C160 C159 1.377 . S
C160 C161 1.389 . S
C160 H182 0.929 . S
C161 C157 1.397 . S
C161 C160 1.389 . S
C161 H183 0.931 . S
C162 C159 1.481 . S
C162 C163 1.387 . S
C162 C167 1.390 . S
C163 C162 1.387 . S
C163 C164 1.401 . S
C163 H184 0.930 . S
C164 C163 1.401 . S
C164 C165 1.376 . S
C164 C173 1.511 . S
C165 C164 1.376 . S
C165 C166 1.392 . S
C165 H186 0.931 . S
C166 C165 1.392 . S
C166 C167 1.361 . S
C166 C168 1.500 . S
C167 C162 1.390 . S
C167 C166 1.361 . S
C167 H185 0.931 . S
C168 C166 1.500 . S
C168 C169 1.371 . S
C168 C170 1.365 . S
C169 C168 1.371 . S
C169 C179 1.386 . S
C169 H187 0.931 . S
C170 C168 1.365 . S
C170 C171 1.409 . S
C170 H188 0.929 . S
C171 C170 1.409 . S
C171 C172 1.380 . S
C171 H189 0.930 . S
C172 C171 1.380 . S
C172 C179 1.357 . S
C173 C164 1.511 . S
C173 C174 1.341 . S
C173 C175 1.371 . S
C174 C173 1.341 . S
C174 C178 1.394 . S
C174 H190 0.930 . S
C175 C173 1.371 . S
C175 C176 1.392 . S
C175 H191 0.931 . S
C176 C175 1.392 . S
C176 C177 1.331 . S
C176 H194 0.932 . S
C177 C176 1.331 . S
C177 C178 1.336 . S
C178 C174 1.394 . S
C178 C177 1.336 . S
C178 H193 0.929 . S
C179 C169 1.386 . S
C179 C172 1.357 . S
C179 H192 0.928 . S
H180 C156 0.931 . S
H181 C158 0.930 . S
H182 C160 0.929 . S
H183 C161 0.931 . S
H184 C163 0.930 . S
H185 C167 0.931 . S
H186 C165 0.931 . S
H187 C169 0.931 . S
H188 C170 0.929 . S
H189 C171 0.930 . S
H190 C174 0.930 . S
H191 C175 0.931 . S
H192 C179 0.928 . S
H193 C178 0.929 . S
H194 C176 0.932 . S
C195 C196 1.386 . S
C195 C197 1.397 . S
C195 H219 0.931 . S
C196 C195 1.386 . S
C196 C200 1.397 . S
C197 C195 1.397 . S
C197 C198 1.384 . S
C197 H220 0.930 . S
C198 C197 1.384 . S
C198 C199 1.377 . S
C198 C201 1.481 . S
C199 C198 1.377 . S
C199 C200 1.389 . S
C199 H221 0.929 . S
C200 C196 1.397 . S
C200 C199 1.389 . S
C200 H222 0.931 . S
C201 C198 1.481 . S
C201 C202 1.387 . S
C201 C206 1.390 . S
C202 C201 1.387 . S
C202 C203 1.401 . S
C202 H223 0.930 . S
C203 C202 1.401 . S
C203 C204 1.376 . S
C203 C212 1.511 . S
C204 C203 1.376 . S
C204 C205 1.392 . S
C204 H225 0.931 . S
C205 C204 1.392 . S
C205 C206 1.361 . S
C205 C207 1.500 . S
C206 C201 1.390 . S
C206 C205 1.361 . S
C206 H224 0.931 . S
C207 C205 1.500 . S
C207 C208 1.371 . S
C207 C209 1.365 . S
C208 C207 1.371 . S
C208 C218 1.386 . S
C208 H226 0.931 . S
C209 C207 1.365 . S
C209 C210 1.409 . S
C209 H227 0.929 . S
C210 C209 1.409 . S
C210 C211 1.380 . S
C210 H228 0.930 . S
C211 C210 1.380 . S
C211 C218 1.357 . S
C212 C203 1.511 . S
C212 C213 1.341 . S
C212 C214 1.371 . S
C213 C212 1.341 . S
C213 C217 1.394 . S
C213 H229 0.930 . S
C214 C212 1.371 . S
C214 C215 1.392 . S
C214 H230 0.931 . S
C215 C214 1.392 . S
C215 C216 1.331 . S
C215 H233 0.932 . S
C216 C215 1.331 . S
C216 C217 1.336 . S
C217 C213 1.394 . S
C217 C216 1.336 . S
C217 H232 0.929 . S
C218 C208 1.386 . S
C218 C211 1.357 . S
C218 H231 0.928 . S
H219 C195 0.931 . S
H220 C197 0.930 . S
H221 C199 0.929 . S
H222 C200 0.931 . S
H223 C202 0.930 . S
H224 C206 0.931 . S
H225 C204 0.931 . S
H226 C208 0.931 . S
H227 C209 0.929 . S
H228 C210 0.930 . S
H229 C213 0.930 . S
H230 C214 0.931 . S
H231 C218 0.928 . S
H232 C217 0.929 . S
H233 C215 0.932 . S
C234 C235 1.386 . S
C234 C236 1.397 . S
C234 H258 0.931 . S
C235 C234 1.386 . S
C235 C239 1.397 . S
C236 C234 1.397 . S
C236 C237 1.384 . S
C236 H259 0.930 . S
C237 C236 1.384 . S
C237 C238 1.377 . S
C237 C240 1.481 . S
C238 C237 1.377 . S
C238 C239 1.389 . S
C238 H260 0.929 . S
C239 C235 1.397 . S
C239 C238 1.389 . S
C239 H261 0.931 . S
C240 C237 1.481 . S
C240 C241 1.387 . S
C240 C245 1.390 . S
C241 C240 1.387 . S
C241 C242 1.401 . S
C241 H262 0.930 . S
C242 C241 1.401 . S
C242 C243 1.376 . S
C242 C251 1.511 . S
C243 C242 1.376 . S
C243 C244 1.392 . S
C243 H264 0.931 . S
C244 C243 1.392 . S
C244 C245 1.361 . S
C244 C246 1.500 . S
C245 C240 1.390 . S
C245 C244 1.361 . S
C245 H263 0.931 . S
C246 C244 1.500 . S
C246 C247 1.371 . S
C246 C248 1.365 . S
C247 C246 1.371 . S
C247 C257 1.386 . S
C247 H265 0.931 . S
C248 C246 1.365 . S
C248 C249 1.409 . S
C248 H266 0.929 . S
C249 C248 1.409 . S
C249 C250 1.380 . S
C249 H267 0.930 . S
C250 C249 1.380 . S
C250 C257 1.357 . S
C251 C242 1.511 . S
C251 C252 1.341 . S
C251 C253 1.371 . S
C252 C251 1.341 . S
C252 C256 1.394 . S
C252 H268 0.930 . S
C253 C251 1.371 . S
C253 C254 1.392 . S
C253 H269 0.931 . S
C254 C253 1.392 . S
C254 C255 1.331 . S
C254 H272 0.932 . S
C255 C254 1.331 . S
C255 C256 1.336 . S
C256 C252 1.394 . S
C256 C255 1.336 . S
C256 H271 0.929 . S
C257 C247 1.386 . S
C257 C250 1.357 . S
C257 H270 0.928 . S
H258 C234 0.931 . S
H259 C236 0.930 . S
H260 C238 0.929 . S
H261 C239 0.931 . S
H262 C241 0.930 . S
H263 C245 0.931 . S
H264 C243 0.931 . S
H265 C247 0.931 . S
H266 C248 0.929 . S
H267 C249 0.930 . S
H268 C252 0.930 . S
H269 C253 0.931 . S
H270 C257 0.928 . S
H271 C256 0.929 . S
H272 C254 0.932 . S
C273 C274 1.386 . S
C273 C275 1.397 . S
C273 H297 0.931 . S
C274 C273 1.386 . S
C274 C278 1.397 . S
C275 C273 1.397 . S
C275 C276 1.384 . S
C275 H298 0.930 . S
C276 C275 1.384 . S
C276 C277 1.377 . S
C276 C279 1.481 . S
C277 C276 1.377 . S
C277 C278 1.389 . S
C277 H299 0.929 . S
C278 C274 1.397 . S
C278 C277 1.389 . S
C278 H300 0.931 . S
C279 C276 1.481 . S
C279 C280 1.387 . S
C279 C284 1.390 . S
C280 C279 1.387 . S
C280 C281 1.401 . S
C280 H301 0.930 . S
C281 C280 1.401 . S
C281 C282 1.376 . S
C281 C290 1.511 . S
C282 C281 1.376 . S
C282 C283 1.392 . S
C282 H303 0.931 . S
C283 C282 1.392 . S
C283 C284 1.361 . S
C283 C285 1.500 . S
C284 C279 1.390 . S
C284 C283 1.361 . S
C284 H302 0.931 . S
C285 C283 1.500 . S
C285 C286 1.371 . S
C285 C287 1.365 . S
C286 C285 1.371 . S
C286 C296 1.386 . S
C286 H304 0.931 . S
C287 C285 1.365 . S
C287 C288 1.417 . S
C287 H305 0.929 . S
C288 C287 1.417 . S
C288 C289 1.380 1_455 S
C288 H306 0.922 1_455 S
C289 C288 1.380 1_655 S
C289 C296 1.357 1_655 S
C290 C281 1.511 . S
C290 C291 1.341 . S
C290 C292 1.371 . S
C291 C290 1.341 . S
C291 C295 1.394 . S
C291 H307 0.930 . S
C292 C290 1.371 . S
C292 C293 1.392 . S
C292 H308 0.931 . S
C293 C292 1.392 . S
C293 C294 1.331 . S
C293 H311 0.932 . S
C294 C293 1.331 . S
C294 C295 1.336 . S
C295 C291 1.394 . S
C295 C294 1.336 . S
C295 H310 0.929 . S
C296 C286 1.386 . S
C296 C289 1.357 1_455 S
C296 H309 0.928 . S
H297 C273 0.931 . S
H298 C275 0.930 . S
H299 C277 0.929 . S
H300 C278 0.931 . S
H301 C280 0.930 . S
H302 C284 0.931 . S
H303 C282 0.931 . S
H304 C286 0.931 . S
H305 C287 0.929 . S
H306 C288 0.922 1_655 S
H307 C291 0.930 . S
H308 C292 0.931 . S
H309 C296 0.928 . S
H310 C295 0.929 . S
H311 C293 0.932 . S
Zn312 O318 1.920 . S
Zn312 O324 1.898 . S
Zn312 O327 1.905 . S
Zn313 O321 1.905 . S
Zn313 O322 1.898 . S
Zn313 O330 1.920 . S
Zn314 O317 2.080 . S
Zn314 O320 2.114 . S
Zn314 O323 2.120 . S
Zn314 O325 2.120 . S
Zn314 O326 2.114 . S
Zn314 O329 2.080 . S
C315 O320 1.166 . S
C315 O321 1.182 . S
C316 O322 1.167 . S
C316 O323 1.299 . S
O317 Zn314 2.080 . S
O317 C331 1.305 . S
O318 Zn312 1.920 . S
O318 C331 1.234 . S
C319 O324 1.167 . S
C319 O325 1.299 . S
O320 Zn314 2.114 . S
O320 C315 1.166 . S
O321 Zn313 1.905 . S
O321 C315 1.182 . S
O322 Zn313 1.898 . S
O322 C316 1.167 . S
O323 Zn314 2.120 . S
O323 C316 1.299 . S
O324 Zn312 1.898 . S
O324 C319 1.167 . S
O325 Zn314 2.120 . S
O325 C319 1.299 . S
O326 Zn314 2.114 . S
O326 C328 1.166 . S
O327 Zn312 1.905 . S
O327 C328 1.182 . S
C328 O326 1.166 . S
C328 O327 1.182 . S
O329 Zn314 2.080 . S
O329 C332 1.305 . S
O330 Zn313 1.920 . S
O330 C332 1.234 . S
C331 O317 1.305 . S
C331 O318 1.234 . S
C332 O329 1.305 . S
C332 O330 1.234 . S
Zn333 O339 1.920 . S
Zn333 O345 1.898 . S
Zn333 O348 1.905 . S
Zn334 O342 1.905 . S
Zn334 O343 1.898 . S
Zn334 O351 1.920 . S
Zn335 O338 2.080 . S
Zn335 O341 2.114 . S
Zn335 O344 2.120 . S
Zn335 O346 2.120 . S
Zn335 O347 2.114 . S
Zn335 O350 2.080 . S
C336 O341 1.166 . S
C336 O342 1.182 . S
C337 O343 1.167 . S
C337 O344 1.299 . S
O338 Zn335 2.080 . S
O338 C352 1.305 . S
O339 Zn333 1.920 . S
O339 C352 1.234 . S
C340 O345 1.167 . S
C340 O346 1.299 . S
O341 Zn335 2.114 . S
O341 C336 1.166 . S
O342 Zn334 1.905 . S
O342 C336 1.182 . S
O343 Zn334 1.898 . S
O343 C337 1.167 . S
O344 Zn335 2.120 . S
O344 C337 1.299 . S
O345 Zn333 1.898 . S
O345 C340 1.167 . S
O346 Zn335 2.120 . S
O346 C340 1.299 . S
O347 Zn335 2.114 . S
O347 C349 1.166 . S
O348 Zn333 1.905 . S
O348 C349 1.182 . S
C349 O347 1.166 . S
C349 O348 1.182 . S
O350 Zn335 2.080 . S
O350 C353 1.305 . S
O351 Zn334 1.920 . S
O351 C353 1.234 . S
C352 O338 1.305 . S
C352 O339 1.234 . S
C353 O350 1.305 . S
C353 O351 1.234 . S
Zn354 O360 1.920 . S
Zn354 O366 1.898 . S
Zn354 O369 1.905 . S
Zn355 O363 1.905 . S
Zn355 O364 1.898 . S
Zn355 O372 1.920 . S
Zn356 O359 2.080 . S
Zn356 O362 2.114 . S
Zn356 O365 2.120 . S
Zn356 O367 2.120 . S
Zn356 O368 2.114 . S
Zn356 O371 2.080 . S
C357 O362 1.166 . S
C357 O363 1.182 . S
C358 O364 1.167 . S
C358 O365 1.299 . S
O359 Zn356 2.080 . S
O359 C373 1.305 . S
O360 Zn354 1.920 . S
O360 C373 1.234 . S
C361 O366 1.167 . S
C361 O367 1.299 . S
O362 Zn356 2.114 . S
O362 C357 1.166 . S
O363 Zn355 1.905 . S
O363 C357 1.182 . S
O364 Zn355 1.898 . S
O364 C358 1.167 . S
O365 Zn356 2.120 . S
O365 C358 1.299 . S
O366 Zn354 1.898 . S
O366 C361 1.167 . S
O367 Zn356 2.120 . S
O367 C361 1.299 . S
O368 Zn356 2.114 . S
O368 C370 1.166 . S
O369 Zn354 1.905 . S
O369 C370 1.182 . S
C370 O368 1.166 . S
C370 O369 1.182 . S
O371 Zn356 2.080 . S
O371 C374 1.305 . S
O372 Zn355 1.920 . S
O372 C374 1.234 . S
C373 O359 1.305 . S
C373 O360 1.234 . S
C374 O371 1.305 . S
C374 O372 1.234 . S
Zn375 O381 1.920 . S
Zn375 O387 1.898 . S
Zn375 O390 1.905 . S
Zn376 O384 1.905 . S
Zn376 O385 1.898 . S
Zn376 O393 1.920 . S
Zn377 O380 2.080 . S
Zn377 O383 2.114 . S
Zn377 O386 2.120 . S
Zn377 O388 2.120 . S
Zn377 O389 2.114 . S
Zn377 O392 2.080 . S
C378 O383 1.166 . S
C378 O384 1.182 . S
C379 O385 1.167 . S
C379 O386 1.299 . S
O380 Zn377 2.080 . S
O380 C394 1.305 . S
O381 Zn375 1.920 . S
O381 C394 1.234 . S
C382 O387 1.167 . S
C382 O388 1.299 . S
O383 Zn377 2.114 . S
O383 C378 1.166 . S
O384 Zn376 1.905 . S
O384 C378 1.182 . S
O385 Zn376 1.898 . S
O385 C379 1.167 . S
O386 Zn377 2.120 . S
O386 C379 1.299 . S
O387 Zn375 1.898 . S
O387 C382 1.167 . S
O388 Zn377 2.120 . S
O388 C382 1.299 . S
O389 Zn377 2.114 . S
O389 C391 1.166 . S
O390 Zn375 1.905 . S
O390 C391 1.182 . S
C391 O389 1.166 . S
C391 O390 1.182 . S
O392 Zn377 2.080 . S
O392 C395 1.305 . S
O393 Zn376 1.920 . S
O393 C395 1.234 . S
C394 O380 1.305 . S
C394 O381 1.234 . S
C395 O392 1.305 . S
C395 O393 1.234 . S
C396 C397 1.391 . S
C396 C398 1.394 . S
C396 H412 0.931 . S
C397 C396 1.391 . S
C397 C401 1.376 . S
C398 C396 1.394 . S
C398 C399 1.369 . S
C398 C402 1.531 . S
C399 C398 1.369 . S
C399 C400 1.410 . S
C399 C407 1.503 . S
C400 C399 1.410 . S
C400 C401 1.392 . S
C400 C403 1.511 . S
C401 C397 1.376 . S
C401 C400 1.392 . S
C401 H413 0.929 . S
C402 C398 1.531 . S
C402 H414 0.960 . S
C402 H415 0.962 . S
C402 H416 0.960 . S
C403 C400 1.511 . S
C403 H417 0.961 . S
C403 H418 0.961 . S
C403 H419 0.961 . S
C404 C405 1.370 . S
C404 C406 1.363 . S
C404 H420 0.931 . S
C405 C404 1.370 . S
C405 C409 1.408 . S
C406 C404 1.363 . S
C406 C407 1.370 . S
C406 C410 1.524 . S
C407 C399 1.503 . S
C407 C406 1.370 . S
C407 C408 1.403 . S
C408 C407 1.403 . S
C408 C409 1.404 . S
C408 C411 1.539 . S
C409 C405 1.408 . S
C409 C408 1.404 . S
C409 H421 0.930 . S
C410 C406 1.524 . S
C410 H422 0.956 . S
C410 H423 0.961 . S
C410 H424 0.961 . S
C411 C408 1.539 . S
C411 H425 0.958 . S
C411 H426 0.961 . S
C411 H427 0.960 . S
H412 C396 0.931 . S
H413 C401 0.929 . S
H414 C402 0.960 . S
H415 C402 0.962 . S
H416 C402 0.960 . S
H417 C403 0.961 . S
H418 C403 0.961 . S
H419 C403 0.961 . S
H420 C404 0.931 . S
H421 C409 0.930 . S
H422 C410 0.956 . S
H423 C410 0.961 . S
H424 C410 0.961 . S
H425 C411 0.958 . S
H426 C411 0.961 . S
H427 C411 0.960 . S
C428 C429 1.391 . S
C428 C430 1.394 . S
C428 H444 0.931 . S
C429 C428 1.391 . S
C429 C433 1.376 . S
C430 C428 1.394 . S
C430 C431 1.369 . S
C430 C434 1.531 . S
C431 C430 1.369 . S
C431 C432 1.410 . S
C431 C439 1.503 . S
C432 C431 1.410 . S
C432 C433 1.392 . S
C432 C435 1.511 . S
C433 C429 1.376 . S
C433 C432 1.392 . S
C433 H445 0.929 . S
C434 C430 1.531 . S
C434 H446 0.960 . S
C434 H447 0.962 . S
C434 H448 0.960 . S
C435 C432 1.511 . S
C435 H449 0.961 . S
C435 H450 0.961 . S
C435 H451 0.961 . S
C436 C437 1.370 . S
C436 C438 1.363 . S
C436 H452 0.931 . S
C437 C436 1.370 . S
C437 C441 1.408 . S
C438 C436 1.363 . S
C438 C439 1.370 . S
C438 C442 1.524 . S
C439 C431 1.503 . S
C439 C438 1.370 . S
C439 C440 1.403 . S
C440 C439 1.403 . S
C440 C441 1.404 . S
C440 C443 1.539 . S
C441 C437 1.408 . S
C441 C440 1.404 . S
C441 H453 0.930 . S
C442 C438 1.524 . S
C442 H454 0.956 . S
C442 H455 0.961 . S
C442 H456 0.961 . S
C443 C440 1.539 . S
C443 H457 0.958 . S
C443 H458 0.961 . S
C443 H459 0.960 . S
H444 C428 0.931 . S
H445 C433 0.929 . S
H446 C434 0.960 . S
H447 C434 0.962 . S
H448 C434 0.960 . S
H449 C435 0.961 . S
H450 C435 0.961 . S
H451 C435 0.961 . S
H452 C436 0.931 . S
H453 C441 0.930 . S
H454 C442 0.956 . S
H455 C442 0.961 . S
H456 C442 0.961 . S
H457 C443 0.958 . S
H458 C443 0.961 . S
H459 C443 0.960 . S
C460 C461 1.391 . S
C460 C462 1.394 . S
C460 H476 0.931 . S
C461 C460 1.391 . S
C461 C465 1.376 . S
C462 C460 1.394 . S
C462 C463 1.369 . S
C462 C466 1.531 . S
C463 C462 1.369 . S
C463 C464 1.410 . S
C463 C471 1.503 . S
C464 C463 1.410 . S
C464 C465 1.392 . S
C464 C467 1.511 . S
C465 C461 1.376 . S
C465 C464 1.392 . S
C465 H477 0.929 . S
C466 C462 1.531 . S
C466 H478 0.960 . S
C466 H479 0.962 . S
C466 H480 0.960 . S
C467 C464 1.511 . S
C467 H481 0.961 . S
C467 H482 0.961 . S
C467 H483 0.961 . S
C468 C469 1.370 . S
C468 C470 1.363 . S
C468 H484 0.931 . S
C469 C468 1.370 . S
C469 C473 1.408 . S
C470 C468 1.363 . S
C470 C471 1.370 . S
C470 C474 1.524 . S
C471 C463 1.503 . S
C471 C470 1.370 . S
C471 C472 1.403 . S
C472 C471 1.403 . S
C472 C473 1.404 . S
C472 C475 1.539 . S
C473 C469 1.408 . S
C473 C472 1.404 . S
C473 H485 0.930 . S
C474 C470 1.524 . S
C474 H486 0.956 . S
C474 H487 0.961 . S
C474 H488 0.961 . S
C475 C472 1.539 . S
C475 H489 0.958 . S
C475 H490 0.961 . S
C475 H491 0.960 . S
H476 C460 0.931 . S
H477 C465 0.929 . S
H478 C466 0.960 . S
H479 C466 0.962 . S
H480 C466 0.960 . S
H481 C467 0.961 . S
H482 C467 0.961 . S
H483 C467 0.961 . S
H484 C468 0.931 . S
H485 C473 0.930 . S
H486 C474 0.956 . S
H487 C474 0.961 . S
H488 C474 0.961 . S
H489 C475 0.958 . S
H490 C475 0.961 . S
H491 C475 0.960 . S
C492 C493 1.391 . S
C492 C494 1.394 . S
C492 H508 0.931 . S
C493 C492 1.391 . S
C493 C497 1.376 . S
C494 C492 1.394 . S
C494 C495 1.369 . S
C494 C498 1.531 . S
C495 C494 1.369 . S
C495 C496 1.410 . S
C495 C503 1.503 . S
C496 C495 1.410 . S
C496 C497 1.392 . S
C496 C499 1.511 . S
C497 C493 1.376 . S
C497 C496 1.392 . S
C497 H509 0.929 . S
C498 C494 1.531 . S
C498 H510 0.960 . S
C498 H511 0.962 . S
C498 H512 0.960 . S
C499 C496 1.511 . S
C499 H513 0.961 . S
C499 H514 0.961 . S
C499 H515 0.961 . S
C500 C501 1.370 1_655 S
C500 C502 1.363 . S
C500 H516 0.931 . S
C501 C500 1.370 1_455 S
C501 C505 1.408 1_455 S
C502 C500 1.363 . S
C502 C503 1.370 . S
C502 C506 1.524 . S
C503 C495 1.503 . S
C503 C502 1.370 . S
C503 C504 1.403 . S
C504 C503 1.403 . S
C504 C505 1.404 . S
C504 C507 1.539 . S
C505 C501 1.408 1_655 S
C505 C504 1.404 . S
C505 H517 0.930 1_655 S
C506 C502 1.524 . S
C506 H518 0.956 . S
C506 H519 0.961 . S
C506 H520 0.961 . S
C507 C504 1.539 . S
C507 H521 0.958 . S
C507 H522 0.961 . S
C507 H523 0.960 . S
H508 C492 0.931 . S
H509 C497 0.929 . S
H510 C498 0.960 . S
H511 C498 0.962 . S
H512 C498 0.960 . S
H513 C499 0.961 . S
H514 C499 0.961 . S
H515 C499 0.961 . S
H516 C500 0.931 . S
H517 C505 0.930 1_455 S
H518 C506 0.956 . S
H519 C506 0.961 . S
H520 C506 0.961 . S
H521 C507 0.958 . S
H522 C507 0.961 . S
H523 C507 0.960 . S
C524 C525 1.391 . S
C524 C526 1.394 . S
C524 H540 0.958 . S
C525 C524 1.391 . S
C525 C529 1.376 . S
C526 C524 1.394 . S
C526 C527 1.369 . S
C526 C530 1.531 . S
C527 C526 1.369 . S
C527 C528 1.410 . S
C527 C535 1.503 . S
C528 C527 1.410 . S
C528 C529 1.392 . S
C528 C531 1.511 . S
C529 C525 1.376 . S
C529 C528 1.392 . S
C529 H541 0.929 . S
C530 C526 1.531 . S
C530 H542 0.960 . S
C530 H543 0.962 1_455 S
C530 H544 0.960 1_455 S
C531 C528 1.511 . S
C531 H545 0.961 . S
C531 H546 0.961 . S
C531 H547 0.961 . S
C532 C533 1.370 . S
C532 C534 1.363 . S
C532 H548 0.931 . S
C533 C532 1.370 . S
C533 C537 1.408 . S
C534 C532 1.363 . S
C534 C535 1.370 . S
C534 C538 1.524 . S
C535 C527 1.503 . S
C535 C534 1.370 . S
C535 C536 1.403 . S
C536 C535 1.403 . S
C536 C537 1.404 . S
C536 C539 1.539 . S
C537 C533 1.408 . S
C537 C536 1.404 . S
C537 H549 0.930 . S
C538 C534 1.524 . S
C538 H550 0.956 . S
C538 H551 0.961 . S
C538 H552 0.961 . S
C539 C536 1.539 . S
C539 H553 0.958 . S
C539 H554 0.961 . S
C539 H555 0.960 . S
H540 C524 0.958 . S
H541 C529 0.929 . S
H542 C530 0.960 . S
H543 C530 0.962 1_655 S
H544 C530 0.960 1_655 S
H545 C531 0.961 . S
H546 C531 0.961 . S
H547 C531 0.961 . S
H548 C532 0.931 . S
H549 C537 0.930 . S
H550 C538 0.956 . S
H551 C538 0.961 . S
H552 C538 0.961 . S
H553 C539 0.958 . S
H554 C539 0.961 . S
H555 C539 0.960 . S
C556 C557 1.391 . S
C556 C558 1.394 . S
C556 H572 0.931 . S
C557 C556 1.391 . S
C557 C561 1.376 . S
C558 C556 1.394 . S
C558 C559 1.369 . S
C558 C562 1.531 . S
C559 C558 1.369 . S
C559 C560 1.410 . S
C559 C567 1.503 . S
C560 C559 1.410 . S
C560 C561 1.392 . S
C560 C563 1.511 . S
C561 C557 1.376 . S
C561 C560 1.392 . S
C561 H573 0.929 . S
C562 C558 1.531 . S
C562 H574 0.960 . S
C562 H575 0.962 . S
C562 H576 0.960 . S
C563 C560 1.511 . S
C563 H577 0.961 . S
C563 H578 0.961 . S
C563 H579 0.961 . S
C564 C565 1.370 1_655 S
C564 C566 1.363 . S
C564 H580 0.931 1_655 S
C565 C564 1.370 1_455 S
C565 C569 1.408 1_455 S
C566 C564 1.363 . S
C566 C567 1.370 . S
C566 C570 1.524 . S
C567 C559 1.503 . S
C567 C566 1.370 . S
C567 C568 1.403 . S
C568 C567 1.403 . S
C568 C569 1.404 . S
C568 C571 1.539 . S
C569 C565 1.408 1_655 S
C569 C568 1.404 . S
C569 H581 0.930 . S
C570 C566 1.524 . S
C570 H582 0.956 . S
C570 H583 0.961 . S
C570 H584 0.961 . S
C571 C568 1.539 . S
C571 H585 0.958 . S
C571 H586 0.961 . S
C571 H587 0.960 . S
H572 C556 0.931 . S
H573 C561 0.929 . S
H574 C562 0.960 . S
H575 C562 0.962 . S
H576 C562 0.960 . S
H577 C563 0.961 . S
H578 C563 0.961 . S
H579 C563 0.961 . S
H580 C564 0.931 1_455 S
H581 C569 0.930 . S
H582 C570 0.956 . S
H583 C570 0.961 . S
H584 C570 0.961 . S
H585 C571 0.958 . S
H586 C571 0.961 . S
H587 C571 0.960 . S
C588 C589 1.391 . S
C588 C590 1.394 . S
C588 H604 0.931 . S
C589 C588 1.391 . S
C589 C593 1.376 . S
C590 C588 1.394 . S
C590 C591 1.369 . S
C590 C594 1.531 . S
C591 C590 1.369 . S
C591 C592 1.410 . S
C591 C599 1.503 . S
C592 C591 1.410 . S
C592 C593 1.392 . S
C592 C595 1.511 . S
C593 C589 1.376 . S
C593 C592 1.392 . S
C593 H605 0.929 . S
C594 C590 1.531 . S
C594 H606 0.960 . S
C594 H607 0.962 . S
C594 H608 0.960 . S
C595 C592 1.511 . S
C595 H609 0.961 . S
C595 H610 0.961 . S
C595 H611 0.961 . S
C596 C597 1.370 . S
C596 C598 1.363 . S
C596 H612 0.931 . S
C597 C596 1.370 . S
C597 C601 1.408 . S
C598 C596 1.363 . S
C598 C599 1.370 . S
C598 C602 1.524 . S
C599 C591 1.503 . S
C599 C598 1.370 . S
C599 C600 1.403 . S
C600 C599 1.403 . S
C600 C601 1.404 . S
C600 C603 1.539 . S
C601 C597 1.408 . S
C601 C600 1.404 . S
C601 H613 0.930 . S
C602 C598 1.524 . S
C602 H614 0.956 . S
C602 H615 0.961 . S
C602 H616 0.961 . S
C603 C600 1.539 . S
C603 H617 0.958 . S
C603 H618 0.961 . S
C603 H619 0.960 . S
H604 C588 0.931 . S
H605 C593 0.929 . S
H606 C594 0.960 . S
H607 C594 0.962 . S
H608 C594 0.960 . S
H609 C595 0.961 . S
H610 C595 0.961 . S
H611 C595 0.961 . S
H612 C596 0.931 . S
H613 C601 0.930 . S
H614 C602 0.956 . S
H615 C602 0.961 . S
H616 C602 0.961 . S
H617 C603 0.958 . S
H618 C603 0.961 . S
H619 C603 0.960 . S
C620 C621 1.391 . S
C620 C622 1.394 . S
C620 H636 0.931 . S
C621 C620 1.391 . S
C621 C625 1.376 . S
C622 C620 1.394 . S
C622 C623 1.369 . S
C622 C626 1.531 . S
C623 C622 1.369 . S
C623 C624 1.410 . S
C623 C631 1.503 . S
C624 C623 1.410 . S
C624 C625 1.392 . S
C624 C627 1.511 . S
C625 C621 1.376 . S
C625 C624 1.392 . S
C625 H637 0.929 . S
C626 C622 1.531 . S
C626 H638 0.960 . S
C626 H639 0.962 . S
C626 H640 0.960 . S
C627 C624 1.511 . S
C627 H641 0.961 . S
C627 H642 0.961 . S
C627 H643 0.961 . S
C628 C629 1.370 . S
C628 C630 1.363 . S
C628 H644 0.931 . S
C629 C628 1.370 . S
C629 C633 1.408 . S
C630 C628 1.363 . S
C630 C631 1.370 . S
C630 C634 1.524 . S
C631 C623 1.503 . S
C631 C630 1.370 . S
C631 C632 1.403 . S
C632 C631 1.403 . S
C632 C633 1.404 . S
C632 C635 1.539 . S
C633 C629 1.408 . S
C633 C632 1.404 . S
C633 H645 0.930 . S
C634 C630 1.524 . S
C634 H646 0.956 . S
C634 H647 0.961 . S
C634 H648 0.961 . S
C635 C632 1.539 . S
C635 H649 0.958 . S
C635 H650 0.961 . S
C635 H651 0.960 . S
H636 C620 0.931 . S
H637 C625 0.929 . S
H638 C626 0.960 . S
H639 C626 0.962 . S
H640 C626 0.960 . S
H641 C627 0.961 . S
H642 C627 0.961 . S
H643 C627 0.961 . S
H644 C628 0.931 . S
H645 C633 0.930 . S
H646 C634 0.956 . S
H647 C634 0.961 . S
H648 C634 0.961 . S
H649 C635 0.958 . S
H650 C635 0.961 . S
H651 C635 0.960 . S
C652 C653 1.391 . S
C652 C654 1.394 . S
C652 H668 0.931 . S
C653 C652 1.391 . S
C653 C657 1.376 . S
C654 C652 1.394 . S
C654 C655 1.369 . S
C654 C658 1.531 . S
C655 C654 1.369 . S
C655 C656 1.410 . S
C655 C663 1.503 . S
C656 C655 1.410 . S
C656 C657 1.392 . S
C656 C659 1.511 . S
C657 C653 1.376 . S
C657 C656 1.392 . S
C657 H669 0.929 . S
C658 C654 1.531 . S
C658 H670 0.960 . S
C658 H671 0.962 . S
C658 H672 0.960 . S
C659 C656 1.511 . S
C659 H673 0.961 . S
C659 H674 0.961 . S
C659 H675 0.961 . S
C660 C661 1.370 . S
C660 C662 1.363 . S
C660 H676 0.931 . S
C661 C660 1.370 . S
C661 C665 1.408 . S
C662 C660 1.363 . S
C662 C663 1.370 . S
C662 C666 1.524 . S
C663 C655 1.503 . S
C663 C662 1.370 . S
C663 C664 1.403 . S
C664 C663 1.403 . S
C664 C665 1.404 . S
C664 C667 1.539 . S
C665 C661 1.408 . S
C665 C664 1.404 . S
C665 H677 0.930 . S
C666 C662 1.524 . S
C666 H678 0.956 . S
C666 H679 0.961 . S
C666 H680 0.961 . S
C667 C664 1.539 . S
C667 H681 0.958 . S
C667 H682 0.961 . S
C667 H683 0.960 . S
H668 C652 0.931 . S
H669 C657 0.929 . S
H670 C658 0.960 . S
H671 C658 0.962 . S
H672 C658 0.960 . S
H673 C659 0.961 . S
H674 C659 0.961 . S
H675 C659 0.961 . S
H676 C660 0.931 . S
H677 C665 0.930 . S
H678 C666 0.956 . S
H679 C666 0.961 . S
H680 C666 0.961 . S
H681 C667 0.958 . S
H682 C667 0.961 . S
H683 C667 0.960 . S
C684 C685 1.391 . S
C684 C686 1.394 . S
C684 H700 0.931 . S
C685 C684 1.391 . S
C685 C689 1.376 . S
C686 C684 1.394 . S
C686 C687 1.369 . S
C686 C690 1.531 . S
C687 C686 1.369 . S
C687 C688 1.410 . S
C687 C695 1.503 . S
C688 C687 1.410 . S
C688 C689 1.392 . S
C688 C691 1.511 . S
C689 C685 1.376 . S
C689 C688 1.392 . S
C689 H701 0.929 . S
C690 C686 1.531 . S
C690 H702 0.960 . S
C690 H703 0.962 . S
C690 H704 0.960 . S
C691 C688 1.511 . S
C691 H705 0.961 . S
C691 H706 0.961 . S
C691 H707 0.961 . S
C692 C693 1.370 . S
C692 C694 1.363 . S
C692 H708 0.931 . S
C693 C692 1.370 . S
C693 C697 1.408 . S
C694 C692 1.363 . S
C694 C695 1.370 . S
C694 C698 1.524 . S
C695 C687 1.503 . S
C695 C694 1.370 . S
C695 C696 1.403 . S
C696 C695 1.403 . S
C696 C697 1.404 . S
C696 C699 1.539 . S
C697 C693 1.408 . S
C697 C696 1.404 . S
C697 H709 0.930 . S
C698 C694 1.524 . S
C698 H710 0.956 . S
C698 H711 0.961 . S
C698 H712 0.961 . S
C699 C696 1.539 . S
C699 H713 0.958 . S
C699 H714 0.961 . S
C699 H715 0.960 . S
H700 C684 0.931 . S
H701 C689 0.929 . S
H702 C690 0.960 . S
H703 C690 0.962 . S
H704 C690 0.960 . S
H705 C691 0.961 . S
H706 C691 0.961 . S
H707 C691 0.961 . S
H708 C692 0.931 . S
H709 C697 0.930 . S
H710 C698 0.956 . S
H711 C698 0.961 . S
H712 C698 0.961 . S
H713 C699 0.958 . S
H714 C699 0.961 . S
H715 C699 0.960 . S
C716 C717 1.391 . S
C716 C718 1.394 . S
C716 H732 0.931 . S
C717 C716 1.391 . S
C717 C721 1.376 . S
C718 C716 1.394 . S
C718 C719 1.369 . S
C718 C722 1.531 . S
C719 C718 1.369 . S
C719 C720 1.410 . S
C719 C727 1.503 . S
C720 C719 1.410 . S
C720 C721 1.392 . S
C720 C723 1.511 . S
C721 C717 1.376 . S
C721 C720 1.392 . S
C721 H733 0.929 . S
C722 C718 1.531 . S
C722 H734 0.960 . S
C722 H735 0.962 . S
C722 H736 0.960 . S
C723 C720 1.511 . S
C723 H737 0.961 . S
C723 H738 0.961 . S
C723 H739 0.961 . S
C724 C725 1.370 . S
C724 C726 1.363 . S
C724 H740 0.931 . S
C725 C724 1.370 . S
C725 C729 1.408 . S
C726 C724 1.363 . S
C726 C727 1.370 . S
C726 C730 1.524 . S
C727 C719 1.503 . S
C727 C726 1.370 . S
C727 C728 1.403 . S
C728 C727 1.403 . S
C728 C729 1.404 . S
C728 C731 1.539 . S
C729 C725 1.408 . S
C729 C728 1.404 . S
C729 H741 0.930 . S
C730 C726 1.524 . S
C730 H742 0.956 . S
C730 H743 0.961 . S
C730 H744 0.961 . S
C731 C728 1.539 . S
C731 H745 0.958 . S
C731 H746 0.961 . S
C731 H747 0.960 . S
H732 C716 0.931 . S
H733 C721 0.929 . S
H734 C722 0.960 . S
H735 C722 0.962 . S
H736 C722 0.960 . S
H737 C723 0.961 . S
H738 C723 0.961 . S
H739 C723 0.961 . S
H740 C724 0.931 . S
H741 C729 0.930 . S
H742 C730 0.956 . S
H743 C730 0.961 . S
H744 C730 0.961 . S
H745 C731 0.958 . S
H746 C731 0.961 . S
H747 C731 0.960 . S
C748 C749 1.391 . S
C748 C750 1.394 . S
C748 H764 0.931 . S
C749 C748 1.391 . S
C749 C753 1.376 . S
C750 C748 1.394 . S
C750 C751 1.369 . S
C750 C754 1.531 . S
C751 C750 1.369 . S
C751 C752 1.410 . S
C751 C759 1.503 . S
C752 C751 1.410 . S
C752 C753 1.392 . S
C752 C755 1.511 . S
C753 C749 1.376 . S
C753 C752 1.392 . S
C753 H765 0.929 . S
C754 C750 1.531 . S
C754 H766 0.960 . S
C754 H767 0.962 . S
C754 H768 0.960 . S
C755 C752 1.511 . S
C755 H769 0.961 . S
C755 H770 0.961 . S
C755 H771 0.961 . S
C756 C757 1.370 . S
C756 C758 1.363 . S
C756 H772 0.931 . S
C757 C756 1.370 . S
C757 C761 1.408 . S
C758 C756 1.363 . S
C758 C759 1.370 . S
C758 C762 1.524 . S
C759 C751 1.503 . S
C759 C758 1.370 . S
C759 C760 1.403 . S
C760 C759 1.403 . S
C760 C761 1.404 . S
C760 C763 1.539 . S
C761 C757 1.408 . S
C761 C760 1.404 . S
C761 H773 0.930 . S
C762 C758 1.524 . S
C762 H774 0.956 . S
C762 H775 0.961 . S
C762 H776 0.961 . S
C763 C760 1.539 . S
C763 H777 0.958 . S
C763 H778 0.961 . S
C763 H779 0.960 . S
H764 C748 0.931 . S
H765 C753 0.929 . S
H766 C754 0.960 . S
H767 C754 0.962 . S
H768 C754 0.960 . S
H769 C755 0.961 . S
H770 C755 0.961 . S
H771 C755 0.961 . S
H772 C756 0.931 . S
H773 C761 0.930 . S
H774 C762 0.956 . S
H775 C762 0.961 . S
H776 C762 0.961 . S
H777 C763 0.958 . S
H778 C763 0.961 . S
H779 C763 0.960 . S
C780 C781 1.391 . S
C780 C782 1.394 . S
C780 H796 0.931 . S
C781 C780 1.391 . S
C781 C785 1.376 . S
C782 C780 1.394 . S
C782 C783 1.369 . S
C782 C786 1.531 1_565 S
C783 C782 1.369 . S
C783 C784 1.410 . S
C783 C791 1.503 1_565 S
C784 C783 1.410 . S
C784 C785 1.392 . S
C784 C787 1.511 . S
C785 C781 1.376 . S
C785 C784 1.392 . S
C785 H797 0.929 . S
C786 C782 1.531 1_545 S
C786 H798 0.960 . S
C786 H799 0.962 . S
C786 H800 0.960 . S
C787 C784 1.511 . S
C787 H801 0.961 . S
C787 H802 0.961 . S
C787 H803 0.961 . S
C788 C789 1.370 . S
C788 C790 1.363 . S
C788 H804 0.931 . S
C789 C788 1.370 . S
C789 C793 1.408 . S
C790 C788 1.363 . S
C790 C791 1.370 . S
C790 C794 1.524 . S
C791 C783 1.503 1_545 S
C791 C790 1.370 . S
C791 C792 1.403 . S
C792 C791 1.403 . S
C792 C793 1.404 . S
C792 C795 1.539 . S
C793 C789 1.408 . S
C793 C792 1.404 . S
C793 H805 0.930 . S
C794 C790 1.524 . S
C794 H806 0.956 . S
C794 H807 0.961 . S
C794 H808 0.961 . S
C795 C792 1.539 . S
C795 H809 0.958 . S
C795 H810 0.961 . S
C795 H811 0.960 . S
H796 C780 0.931 . S
H797 C785 0.929 . S
H798 C786 0.960 . S
H799 C786 0.962 . S
H800 C786 0.960 . S
H801 C787 0.961 . S
H802 C787 0.961 . S
H803 C787 0.961 . S
H804 C788 0.931 . S
H805 C793 0.930 . S
H806 C794 0.956 . S
H807 C794 0.961 . S
H808 C794 0.961 . S
H809 C795 0.958 . S
H810 C795 0.961 . S
H811 C795 0.960 . S
C812 C813 1.391 . S
C812 C814 1.410 . S
C812 H828 0.931 . S
C813 C812 1.391 . S
C813 C817 1.376 . S
C814 C812 1.410 . S
C814 C815 1.359 1_545 S
C814 C818 1.523 1_545 S
C815 C814 1.359 1_565 S
C815 C816 1.410 . S
C815 C823 1.503 . S
C816 C815 1.410 . S
C816 C817 1.392 1_565 S
C816 C819 1.511 . S
C817 C813 1.376 . S
C817 C816 1.392 1_545 S
C817 H829 0.929 . S
C818 C814 1.523 1_565 S
C818 H830 0.960 . S
C818 H831 0.962 . S
C818 H832 0.960 . S
C819 C816 1.511 . S
C819 H833 0.961 . S
C819 H834 0.961 . S
C819 H835 0.961 . S
C820 C821 1.370 . S
C820 C822 1.363 . S
C820 H836 0.931 . S
C821 C820 1.370 . S
C821 C825 1.408 . S
C822 C820 1.363 . S
C822 C823 1.370 . S
C822 C826 1.524 . S
C823 C815 1.503 . S
C823 C822 1.370 . S
C823 C824 1.403 . S
C824 C823 1.403 . S
C824 C825 1.404 . S
C824 C827 1.539 . S
C825 C821 1.408 . S
C825 C824 1.404 . S
C825 H837 0.930 . S
C826 C822 1.524 . S
C826 H838 0.956 . S
C826 H839 0.961 . S
C826 H840 0.961 . S
C827 C824 1.539 . S
C827 H841 0.958 . S
C827 H842 0.961 . S
C827 H843 0.960 . S
H828 C812 0.931 . S
H829 C817 0.929 . S
H830 C818 0.960 . S
H831 C818 0.962 . S
H832 C818 0.960 . S
H833 C819 0.961 . S
H834 C819 0.961 . S
H835 C819 0.961 . S
H836 C820 0.931 . S
H837 C825 0.930 . S
H838 C826 0.956 . S
H839 C826 0.961 . S
H840 C826 0.961 . S
H841 C827 0.958 . S
H842 C827 0.961 . S
H843 C827 0.960 . S
C844 C845 1.391 . S
C844 C846 1.394 1_545 S
C844 H860 0.931 . S
C845 C844 1.391 . S
C845 C849 1.376 . S
C846 C844 1.394 1_565 S
C846 C847 1.369 . S
C846 C850 1.531 . S
C847 C846 1.369 . S
C847 C848 1.410 1_565 S
C847 C855 1.503 . S
C848 C847 1.410 1_545 S
C848 C849 1.392 . S
C848 C851 1.510 1_545 S
C849 C845 1.376 . S
C849 C848 1.392 . S
C849 H861 0.929 . S
C850 C846 1.531 . S
C850 H862 0.960 . S
C850 H863 0.962 . S
C850 H864 0.960 . S
C851 C848 1.510 1_565 S
C851 H865 0.958 1_565 S
C851 H866 0.965 . S
C851 H867 0.960 1_565 S
C852 C853 1.370 . S
C852 C854 1.363 . S
C852 H868 0.931 . S
C853 C852 1.370 . S
C853 C857 1.408 . S
C854 C852 1.363 . S
C854 C855 1.370 . S
C854 C858 1.524 . S
C855 C847 1.503 . S
C855 C854 1.370 . S
C855 C856 1.403 . S
C856 C855 1.403 . S
C856 C857 1.404 . S
C856 C859 1.539 . S
C857 C853 1.408 . S
C857 C856 1.404 . S
C857 H869 0.930 . S
C858 C854 1.524 . S
C858 H870 0.956 . S
C858 H871 0.961 . S
C858 H872 0.961 . S
C859 C856 1.539 . S
C859 H873 0.958 . S
C859 H874 0.961 . S
C859 H875 0.960 . S
H860 C844 0.931 . S
H861 C849 0.929 . S
H862 C850 0.960 . S
H863 C850 0.962 . S
H864 C850 0.960 . S
H865 C851 0.958 1_545 S
H866 C851 0.965 . S
H867 C851 0.960 1_545 S
H868 C852 0.931 . S
H869 C857 0.930 . S
H870 C858 0.956 . S
H871 C858 0.961 . S
H872 C858 0.961 . S
H873 C859 0.958 . S
H874 C859 0.961 . S
H875 C859 0.960 . S
C876 C877 1.391 . S
C876 C878 1.394 . S
C876 H892 0.931 . S
C877 C876 1.391 . S
C877 C881 1.376 . S
C878 C876 1.394 . S
C878 C879 1.369 1_565 S
C878 C882 1.531 . S
C879 C878 1.369 1_545 S
C879 C880 1.410 1_545 S
C879 C887 1.503 . S
C880 C879 1.410 1_565 S
C880 C881 1.392 . S
C880 C883 1.511 1_565 S
C881 C877 1.376 . S
C881 C880 1.392 . S
C881 H893 0.929 . S
C882 C878 1.531 . S
C882 H894 0.960 1_565 S
C882 H895 0.962 . S
C882 H896 0.960 . S
C883 C880 1.511 1_545 S
C883 H897 0.958 1_455 S
C883 H898 0.961 . S
C883 H899 0.961 1_455 S
C884 C885 1.370 . S
C884 C886 1.363 . S
C884 H900 0.931 . S
C885 C884 1.370 . S
C885 C889 1.408 . S
C886 C884 1.363 . S
C886 C887 1.370 . S
C886 C890 1.524 . S
C887 C879 1.503 . S
C887 C886 1.370 . S
C887 C888 1.403 . S
C888 C887 1.403 . S
C888 C889 1.404 . S
C888 C891 1.539 . S
C889 C885 1.408 . S
C889 C888 1.404 . S
C889 H901 0.930 . S
C890 C886 1.524 . S
C890 H902 0.956 . S
C890 H903 0.961 . S
C890 H904 0.961 . S
C891 C888 1.539 . S
C891 H905 0.958 . S
C891 H906 0.961 . S
C891 H907 0.960 . S
H892 C876 0.931 . S
H893 C881 0.929 . S
H894 C882 0.960 1_545 S
H895 C882 0.962 . S
H896 C882 0.960 . S
H897 C883 0.958 1_655 S
H898 C883 0.961 . S
H899 C883 0.961 1_655 S
H900 C884 0.931 . S
H901 C889 0.930 . S
H902 C890 0.956 . S
H903 C890 0.961 . S
H904 C890 0.961 . S
H905 C891 0.958 . S
H906 C891 0.961 . S
H907 C891 0.960 . S
C908 C909 1.391 . S
C908 C910 1.394 . S
C908 H924 0.931 . S
C909 C908 1.391 . S
C909 C913 1.376 . S
C910 C908 1.394 . S
C910 C911 1.369 . S
C910 C914 1.531 . S
C911 C910 1.369 . S
C911 C912 1.410 . S
C911 C919 1.503 . S
C912 C911 1.410 . S
C912 C913 1.392 . S
C912 C915 1.511 . S
C913 C909 1.376 . S
C913 C912 1.392 . S
C913 H925 0.929 . S
C914 C910 1.531 . S
C914 H926 0.960 . S
C914 H927 0.962 . S
C914 H928 0.960 . S
C915 C912 1.511 . S
C915 H929 0.961 . S
C915 H930 0.961 . S
C915 H931 0.961 . S
C916 C917 1.370 . S
C916 C918 1.363 . S
C916 H932 0.931 . S
C917 C916 1.370 . S
C917 C921 1.408 . S
C918 C916 1.363 . S
C918 C919 1.370 . S
C918 C922 1.524 . S
C919 C911 1.503 . S
C919 C918 1.370 . S
C919 C920 1.403 . S
C920 C919 1.403 . S
C920 C921 1.404 . S
C920 C923 1.539 . S
C921 C917 1.408 . S
C921 C920 1.404 . S
C921 H933 0.930 . S
C922 C918 1.524 . S
C922 H934 0.956 . S
C922 H935 0.961 . S
C922 H936 0.961 . S
C923 C920 1.539 . S
C923 H937 0.958 . S
C923 H938 0.961 . S
C923 H939 0.960 . S
H924 C908 0.931 . S
H925 C913 0.929 . S
H926 C914 0.960 . S
H927 C914 0.962 . S
H928 C914 0.960 . S
H929 C915 0.961 . S
H930 C915 0.961 . S
H931 C915 0.961 . S
H932 C916 0.931 . S
H933 C921 0.930 . S
H934 C922 0.956 . S
H935 C922 0.961 . S
H936 C922 0.961 . S
H937 C923 0.958 . S
H938 C923 0.961 . S
H939 C923 0.960 . S
C940 C941 1.391 . S
C940 C942 1.394 . S
C940 H956 0.931 . S
C941 C940 1.391 . S
C941 C945 1.376 . S
C942 C940 1.394 . S
C942 C943 1.369 . S
C942 C946 1.531 . S
C943 C942 1.369 . S
C943 C944 1.410 . S
C943 C951 1.503 . S
C944 C943 1.410 . S
C944 C945 1.392 . S
C944 C947 1.511 . S
C945 C941 1.376 . S
C945 C944 1.392 . S
C945 H957 0.929 . S
C946 C942 1.531 . S
C946 H958 0.960 . S
C946 H959 0.962 . S
C946 H960 0.960 . S
C947 C944 1.511 . S
C947 H961 0.961 . S
C947 H962 0.961 . S
C947 H963 0.961 . S
C948 C949 1.370 . S
C948 C950 1.363 . S
C948 H964 0.931 . S
C949 C948 1.370 . S
C949 C953 1.408 . S
C950 C948 1.363 . S
C950 C951 1.370 . S
C950 C954 1.524 . S
C951 C943 1.503 . S
C951 C950 1.370 . S
C951 C952 1.403 . S
C952 C951 1.403 . S
C952 C953 1.404 . S
C952 C955 1.539 . S
C953 C949 1.408 . S
C953 C952 1.404 . S
C953 H965 0.930 . S
C954 C950 1.524 . S
C954 H966 0.956 . S
C954 H967 0.961 . S
C954 H968 0.961 . S
C955 C952 1.539 . S
C955 H969 0.958 . S
C955 H970 0.961 . S
C955 H971 0.960 . S
H956 C940 0.931 . S
H957 C945 0.929 . S
H958 C946 0.960 . S
H959 C946 0.962 . S
H960 C946 0.960 . S
H961 C947 0.961 . S
H962 C947 0.961 . S
H963 C947 0.961 . S
H964 C948 0.931 . S
H965 C953 0.930 . S
H966 C954 0.956 . S
H967 C954 0.961 . S
H968 C954 0.961 . S
H969 C955 0.958 . S
H970 C955 0.961 . S
H971 C955 0.960 . S
C972 C973 1.391 . S
C972 C974 1.394 . S
C972 H988 0.931 . S
C973 C972 1.391 . S
C973 C977 1.376 . S
C974 C972 1.394 . S
C974 C975 1.369 . S
C974 C978 1.531 . S
C975 C974 1.369 . S
C975 C976 1.410 . S
C975 C983 1.503 . S
C976 C975 1.410 . S
C976 C977 1.392 . S
C976 C979 1.511 . S
C977 C973 1.376 . S
C977 C976 1.392 . S
C977 H989 0.929 . S
C978 C974 1.531 . S
C978 H990 0.960 . S
C978 H991 0.962 . S
C978 H992 0.960 . S
C979 C976 1.511 . S
C979 H993 0.961 . S
C979 H994 0.961 . S
C979 H995 0.961 . S
C980 C981 1.370 . S
C980 C982 1.363 . S
C980 H996 0.931 . S
C981 C980 1.370 . S
C981 C985 1.408 . S
C982 C980 1.363 . S
C982 C983 1.370 . S
C982 C986 1.524 . S
C983 C975 1.503 . S
C983 C982 1.370 . S
C983 C984 1.403 . S
C984 C983 1.403 . S
C984 C985 1.404 . S
C984 C987 1.539 . S
C985 C981 1.408 . S
C985 C984 1.404 . S
C985 H997 0.930 . S
C986 C982 1.524 . S
C986 H998 0.956 . S
C986 H999 0.961 . S
C986 H1000 0.961 . S
C987 C984 1.539 . S
C987 H1001 0.958 . S
C987 H1002 0.961 . S
C987 H1003 0.960 . S
H988 C972 0.931 . S
H989 C977 0.929 . S
H990 C978 0.960 . S
H991 C978 0.962 . S
H992 C978 0.960 . S
H993 C979 0.961 . S
H994 C979 0.961 . S
H995 C979 0.961 . S
H996 C980 0.931 . S
H997 C985 0.930 . S
H998 C986 0.956 . S
H999 C986 0.961 . S
H1000 C986 0.961 . S
H1001 C987 0.958 . S
H1002 C987 0.961 . S
H1003 C987 0.960 . S
C1004 C1005 1.391 . S
C1004 C1006 1.394 . S
C1004 H1020 0.931 . S
C1005 C1004 1.391 . S
C1005 C1009 1.376 . S
C1006 C1004 1.394 . S
C1006 C1007 1.369 . S
C1006 C1010 1.531 . S
C1007 C1006 1.369 . S
C1007 C1008 1.410 . S
C1007 C1015 1.503 . S
C1008 C1007 1.410 . S
C1008 C1009 1.392 . S
C1008 C1011 1.511 . S
C1009 C1005 1.376 . S
C1009 C1008 1.392 . S
C1009 H1021 0.929 . S
C1010 C1006 1.531 . S
C1010 H1022 0.960 . S
C1010 H1023 0.962 . S
C1010 H1024 0.960 . S
C1011 C1008 1.511 . S
C1011 H1025 0.961 . S
C1011 H1026 0.961 . S
C1011 H1027 0.961 . S
C1012 C1013 1.370 . S
C1012 C1014 1.363 . S
C1012 H1028 0.931 . S
C1013 C1012 1.370 . S
C1013 C1017 1.408 . S
C1014 C1012 1.363 . S
C1014 C1015 1.370 . S
C1014 C1018 1.524 . S
C1015 C1007 1.503 . S
C1015 C1014 1.370 . S
C1015 C1016 1.403 . S
C1016 C1015 1.403 . S
C1016 C1017 1.404 . S
C1016 C1019 1.539 . S
C1017 C1013 1.408 . S
C1017 C1016 1.404 . S
C1017 H1029 0.930 . S
C1018 C1014 1.524 . S
C1018 H1030 0.956 . S
C1018 H1031 0.961 . S
C1018 H1032 0.961 . S
C1019 C1016 1.539 . S
C1019 H1033 0.958 . S
C1019 H1034 0.961 . S
C1019 H1035 0.960 . S
H1020 C1004 0.931 . S
H1021 C1009 0.929 . S
H1022 C1010 0.960 . S
H1023 C1010 0.962 . S
H1024 C1010 0.960 . S
H1025 C1011 0.961 . S
H1026 C1011 0.961 . S
H1027 C1011 0.961 . S
H1028 C1012 0.931 . S
H1029 C1017 0.930 . S
H1030 C1018 0.956 . S
H1031 C1018 0.961 . S
H1032 C1018 0.961 . S
H1033 C1019 0.958 . S
H1034 C1019 0.961 . S
H1035 C1019 0.960 . S
C1036 C1037 1.391 . S
C1036 C1038 1.394 . S
C1036 H1052 0.931 . S
C1037 C1036 1.391 . S
C1037 C1041 1.376 . S
C1038 C1036 1.394 . S
C1038 C1039 1.369 . S
C1038 C1042 1.531 . S
C1039 C1038 1.369 . S
C1039 C1040 1.410 . S
C1039 C1047 1.503 . S
C1040 C1039 1.410 . S
C1040 C1041 1.392 . S
C1040 C1043 1.511 . S
C1041 C1037 1.376 . S
C1041 C1040 1.392 . S
C1041 H1053 0.956 . S
C1042 C1038 1.531 . S
C1042 H1054 0.960 . S
C1042 H1055 0.962 . S
C1042 H1056 0.960 . S
C1043 C1040 1.511 . S
C1043 H1057 0.961 1_455 S
C1043 H1058 0.961 . S
C1043 H1059 0.961 1_455 S
C1044 C1045 1.370 . S
C1044 C1046 1.363 . S
C1044 H1060 0.931 . S
C1045 C1044 1.370 . S
C1045 C1049 1.408 . S
C1046 C1044 1.363 . S
C1046 C1047 1.370 . S
C1046 C1050 1.524 . S
C1047 C1039 1.503 . S
C1047 C1046 1.370 . S
C1047 C1048 1.403 . S
C1048 C1047 1.403 . S
C1048 C1049 1.404 . S
C1048 C1051 1.539 . S
C1049 C1045 1.408 . S
C1049 C1048 1.404 . S
C1049 H1061 0.930 . S
C1050 C1046 1.524 . S
C1050 H1062 0.956 . S
C1050 H1063 0.961 . S
C1050 H1064 0.961 . S
C1051 C1048 1.539 . S
C1051 H1065 0.958 . S
C1051 H1066 0.961 . S
C1051 H1067 0.960 . S
H1052 C1036 0.931 . S
H1053 C1041 0.956 . S
H1054 C1042 0.960 . S
H1055 C1042 0.962 . S
H1056 C1042 0.960 . S
H1057 C1043 0.961 1_655 S
H1058 C1043 0.961 . S
H1059 C1043 0.961 1_655 S
H1060 C1044 0.931 . S
H1061 C1049 0.930 . S
H1062 C1050 0.956 . S
H1063 C1050 0.961 . S
H1064 C1050 0.961 . S
H1065 C1051 0.958 . S
H1066 C1051 0.961 . S
H1067 C1051 0.960 . S
C1068 C1069 1.391 . S
C1068 C1070 1.394 . S
C1068 H1084 0.931 . S
C1069 C1068 1.391 . S
C1069 C1073 1.376 . S
C1070 C1068 1.394 . S
C1070 C1071 1.369 . S
C1070 C1074 1.531 . S
C1071 C1070 1.369 . S
C1071 C1072 1.410 . S
C1071 C1079 1.503 . S
C1072 C1071 1.410 . S
C1072 C1073 1.392 . S
C1072 C1075 1.511 . S
C1073 C1069 1.376 . S
C1073 C1072 1.392 . S
C1073 H1085 0.929 . S
C1074 C1070 1.531 . S
C1074 H1086 0.960 . S
C1074 H1087 0.962 . S
C1074 H1088 0.960 . S
C1075 C1072 1.511 . S
C1075 H1089 0.961 . S
C1075 H1090 0.961 . S
C1075 H1091 0.961 . S
C1076 C1077 1.370 . S
C1076 C1078 1.363 . S
C1076 H1092 0.931 . S
C1077 C1076 1.370 . S
C1077 C1081 1.408 . S
C1078 C1076 1.363 . S
C1078 C1079 1.370 . S
C1078 C1082 1.524 . S
C1079 C1071 1.503 . S
C1079 C1078 1.370 . S
C1079 C1080 1.403 . S
C1080 C1079 1.403 . S
C1080 C1081 1.404 . S
C1080 C1083 1.539 . S
C1081 C1077 1.408 . S
C1081 C1080 1.404 . S
C1081 H1093 0.930 . S
C1082 C1078 1.524 . S
C1082 H1094 0.956 . S
C1082 H1095 0.961 . S
C1082 H1096 0.961 . S
C1083 C1080 1.539 . S
C1083 H1097 0.958 . S
C1083 H1098 0.961 . S
C1083 H1099 0.960 . S
H1084 C1068 0.931 . S
H1085 C1073 0.929 . S
H1086 C1074 0.960 . S
H1087 C1074 0.962 . S
H1088 C1074 0.960 . S
H1089 C1075 0.961 . S
H1090 C1075 0.961 . S
H1091 C1075 0.961 . S
H1092 C1076 0.931 . S
H1093 C1081 0.930 . S
H1094 C1082 0.956 . S
H1095 C1082 0.961 . S
H1096 C1082 0.961 . S
H1097 C1083 0.958 . S
H1098 C1083 0.961 . S
H1099 C1083 0.960 . S
C1100 C1101 1.391 . S
C1100 C1102 1.394 . S
C1100 H1116 0.931 . S
C1101 C1100 1.391 . S
C1101 C1105 1.376 . S
C1102 C1100 1.394 . S
C1102 C1103 1.369 . S
C1102 C1106 1.531 . S
C1103 C1102 1.369 . S
C1103 C1104 1.410 . S
C1103 C1111 1.503 . S
C1104 C1103 1.410 . S
C1104 C1105 1.392 . S
C1104 C1107 1.511 . S
C1105 C1101 1.376 . S
C1105 C1104 1.392 . S
C1105 H1117 0.929 . S
C1106 C1102 1.531 . S
C1106 H1118 0.960 . S
C1106 H1119 0.962 . S
C1106 H1120 0.960 . S
C1107 C1104 1.511 . S
C1107 H1121 0.961 . S
C1107 H1122 0.961 . S
C1107 H1123 0.961 . S
C1108 C1109 1.370 . S
C1108 C1110 1.363 . S
C1108 H1124 0.931 . S
C1109 C1108 1.370 . S
C1109 C1113 1.408 . S
C1110 C1108 1.363 . S
C1110 C1111 1.370 . S
C1110 C1114 1.524 . S
C1111 C1103 1.503 . S
C1111 C1110 1.370 . S
C1111 C1112 1.403 . S
C1112 C1111 1.403 . S
C1112 C1113 1.404 . S
C1112 C1115 1.539 . S
C1113 C1109 1.408 . S
C1113 C1112 1.404 . S
C1113 H1125 0.930 . S
C1114 C1110 1.524 . S
C1114 H1126 0.956 . S
C1114 H1127 0.961 . S
C1114 H1128 0.961 . S
C1115 C1112 1.539 . S
C1115 H1129 0.958 . S
C1115 H1130 0.961 . S
C1115 H1131 0.960 . S
H1116 C1100 0.931 . S
H1117 C1105 0.929 . S
H1118 C1106 0.960 . S
H1119 C1106 0.962 . S
H1120 C1106 0.960 . S
H1121 C1107 0.961 . S
H1122 C1107 0.961 . S
H1123 C1107 0.961 . S
H1124 C1108 0.931 . S
H1125 C1113 0.930 . S
H1126 C1114 0.956 . S
H1127 C1114 0.961 . S
H1128 C1114 0.961 . S
H1129 C1115 0.958 . S
H1130 C1115 0.961 . S
H1131 C1115 0.960 . S
C1132 C1133 1.391 . S
C1132 C1134 1.394 . S
C1132 H1148 0.931 . S
C1133 C1132 1.391 . S
C1133 C1137 1.376 . S
C1134 C1132 1.394 . S
C1134 C1135 1.369 . S
C1134 C1138 1.531 . S
C1135 C1134 1.369 . S
C1135 C1136 1.410 . S
C1135 C1143 1.503 . S
C1136 C1135 1.410 . S
C1136 C1137 1.392 . S
C1136 C1139 1.511 . S
C1137 C1133 1.376 . S
C1137 C1136 1.392 . S
C1137 H1149 0.929 . S
C1138 C1134 1.531 . S
C1138 H1150 0.960 . S
C1138 H1151 0.962 . S
C1138 H1152 0.960 . S
C1139 C1136 1.511 . S
C1139 H1153 0.961 . S
C1139 H1154 0.961 . S
C1139 H1155 0.961 . S
C1140 C1141 1.370 . S
C1140 C1142 1.363 . S
C1140 H1156 0.931 . S
C1141 C1140 1.370 . S
C1141 C1145 1.408 . S
C1142 C1140 1.363 . S
C1142 C1143 1.370 . S
C1142 C1146 1.524 . S
C1143 C1135 1.503 . S
C1143 C1142 1.370 . S
C1143 C1144 1.403 . S
C1144 C1143 1.403 . S
C1144 C1145 1.404 . S
C1144 C1147 1.539 . S
C1145 C1141 1.408 . S
C1145 C1144 1.404 . S
C1145 H1157 0.930 . S
C1146 C1142 1.524 . S
C1146 H1158 0.956 . S
C1146 H1159 0.961 . S
C1146 H1160 0.961 . S
C1147 C1144 1.539 . S
C1147 H1161 0.958 . S
C1147 H1162 0.961 . S
C1147 H1163 0.960 . S
H1148 C1132 0.931 . S
H1149 C1137 0.929 . S
H1150 C1138 0.960 . S
H1151 C1138 0.962 . S
H1152 C1138 0.960 . S
H1153 C1139 0.961 . S
H1154 C1139 0.961 . S
H1155 C1139 0.961 . S
H1156 C1140 0.931 . S
H1157 C1145 0.930 . S
H1158 C1146 0.956 . S
H1159 C1146 0.961 . S
H1160 C1146 0.961 . S
H1161 C1147 0.958 . S
H1162 C1147 0.961 . S
H1163 C1147 0.960 . S
C405 C319 1.529 . S
C397 C16 1.631 . S
C437 C337 1.332 . S
C429 C55 1.387 . S
C461 C99 1.422 . S
C469 C361 1.345 . S
C501 C391 1.301 . S
C493 C138 1.430 . S
C533 C379 1.330 . S
C525 C172 1.417 . S
C557 C216 1.410 . S
C565 C332 1.308 . S
C589 C255 1.667 . S
C597 C352 1.492 . S
C621 C289 1.448 . S
C629 C357 1.313 . S
C653 C294 1.406 . S
C661 C373 1.290 . S
C685 C211 1.476 . S
C693 C328 1.319 . S
C725 C395 1.330 . S
C717 C133 1.396 . S
C757 C340 1.305 . S
C749 C60 1.459 . S
C781 C94 1.624 . S
C789 C358 1.525 . S
C813 C21 1.410 . S
C821 C316 1.342 . S
C853 C336 1.332 . S
C845 C250 1.414 . S
C885 C382 1.497 . S
C877 C177 1.683 . S
C917 C378 1.350 . S
C909 C1 1.484 1_556 S
C949 C331 1.346 . S
C941 C40 1.445 . S
C973 C79 1.464 . S
C981 C353 1.325 . S
C1005 C118 1.473 . S
C1013 C374 1.374 . S
C1045 C315 1.305 . S
C1037 C157 1.510 1_554 S
C1069 C196 1.478 . S
C1077 C349 1.394 . S
C1109 C370 1.319 . S
C1101 C235 1.524 . S
C1141 C394 1.363 . S
C1133 C274 1.469 . S
