# Generated by pormake.
# Topology nom, (4,4)-cn, num edge types: 1
# Building blocks:
#     Node 0, Type 0, BuildingBlock: AZAVOO_clean_linker_0, # of connection points: 4
#     Node 1, Type 0, BuildingBlock: AZAVOO_clean_linker_0, # of connection points: 4
#     Node 2, Type 0, BuildingBlock: AZAVOO_clean_linker_0, # of connection points: 4
#     Node 3, Type 0, BuildingBlock: AZAVOO_clean_linker_0, # of connection points: 4
#     Node 4, Type 0, BuildingBlock: AZAVOO_clean_linker_0, # of connection points: 4
#     Node 5, Type 0, BuildingBlock: AZAVOO_clean_linker_0, # of connection points: 4
#     Node 6, Type 1, BuildingBlock: TATPOV_clean_sbu_0, # of connection points: 4
#     Node 7, Type 1, BuildingBlock: TATPOV_clean_sbu_0, # of connection points: 4
#     Node 8, Type 1, BuildingBlock: TATPOV_clean_sbu_0, # of connection points: 4
#     Node 9, Type 1, BuildingBlock: TATPOV_clean_sbu_0, # of connection points: 4
#     Node 10, Type 1, BuildingBlock: TATPOV_clean_sbu_0, # of connection points: 4
#     Node 11, Type 1, BuildingBlock: TATPOV_clean_sbu_0, # of connection points: 4
#     Edge 12, Type (0, 1), BuildingBlock: ZUJKAS_clean_linker_0, # of connection points: 2
#     Edge 13, Type (0, 1), BuildingBlock: ZUJKAS_clean_linker_0, # of connection points: 2
#     Edge 14, Type (0, 1), BuildingBlock: ZUJKAS_clean_linker_0, # of connection points: 2
#     Edge 15, Type (0, 1), BuildingBlock: ZUJKAS_clean_linker_0, # of connection points: 2
#     Edge 16, Type (0, 1), BuildingBlock: ZUJKAS_clean_linker_0, # of connection points: 2
#     Edge 17, Type (0, 1), BuildingBlock: ZUJKAS_clean_linker_0, # of connection points: 2
#     Edge 18, Type (0, 1), BuildingBlock: ZUJKAS_clean_linker_0, # of connection points: 2
#     Edge 19, Type (0, 1), BuildingBlock: ZUJKAS_clean_linker_0, # of connection points: 2
#     Edge 20, Type (0, 1), BuildingBlock: ZUJKAS_clean_linker_0, # of connection points: 2
#     Edge 21, Type (0, 1), BuildingBlock: ZUJKAS_clean_linker_0, # of connection points: 2
#     Edge 22, Type (0, 1), BuildingBlock: ZUJKAS_clean_linker_0, # of connection points: 2
#     Edge 23, Type (0, 1), BuildingBlock: ZUJKAS_clean_linker_0, # of connection points: 2
#     Edge 24, Type (0, 1), BuildingBlock: ZUJKAS_clean_linker_0, # of connection points: 2
#     Edge 25, Type (0, 1), BuildingBlock: ZUJKAS_clean_linker_0, # of connection points: 2
#     Edge 26, Type (0, 1), BuildingBlock: ZUJKAS_clean_linker_0, # of connection points: 2
#     Edge 27, Type (0, 1), BuildingBlock: ZUJKAS_clean_linker_0, # of connection points: 2
#     Edge 28, Type (0, 1), BuildingBlock: ZUJKAS_clean_linker_0, # of connection points: 2
#     Edge 29, Type (0, 1), BuildingBlock: ZUJKAS_clean_linker_0, # of connection points: 2
#     Edge 30, Type (0, 1), BuildingBlock: ZUJKAS_clean_linker_0, # of connection points: 2
#     Edge 31, Type (0, 1), BuildingBlock: ZUJKAS_clean_linker_0, # of connection points: 2
#     Edge 32, Type (0, 1), BuildingBlock: ZUJKAS_clean_linker_0, # of connection points: 2
#     Edge 33, Type (0, 1), BuildingBlock: ZUJKAS_clean_linker_0, # of connection points: 2
#     Edge 34, Type (0, 1), BuildingBlock: ZUJKAS_clean_linker_0, # of connection points: 2
#     Edge 35, Type (0, 1), BuildingBlock: ZUJKAS_clean_linker_0, # of connection points: 2
# Relax obj value: 0.151
# Max RMSD: 0.225
# Mean RMSD: 0.171
data_MOF--net-nom--node1-TATPOV_clean_sbu_0--node2-AZAVOO_clean_linker_0--edge1-ZUJKAS_clean_linker_0
_symmetry_space_group_name_H-M    P1
_symmetry_Int_Tables_number       1
_symmetry_cell_setting            triclinic
loop_
_symmetry_equiv_pos_as_xyz
'x, y, z'
_cell_length_a     59.505162
_cell_length_b     61.560234
_cell_length_c     76.342349
_cell_angle_alpha  90.387368
_cell_angle_beta   90.454503
_cell_angle_gamma 120.96814
loop_
_atom_site_label
_atom_site_type_symbol
_atom_site_fract_x
_atom_site_fract_y
_atom_site_fract_z
_atom_type_partial_charge
H0 H 0.03339 0.43306 0.19464 0.0
H1 H 0.18676 0.6151 0.34712 0.0
H2 H 0.99106 0.42831 0.28305 0.0
H3 H 0.95727 0.40471 0.26063 0.0
H4 H 0.93983 0.46469 0.25927 0.0
H5 H 0.97369 0.48816 0.28166 0.0
H6 H 0.05009 0.45634 0.26973 0.0
H7 H 0.04681 0.44263 0.23916 0.0
H8 H 0.01192 0.4869 0.22516 0.0
H9 H 0.01575 0.50079 0.2557 0.0
H10 H 0.10005 0.49681 0.29449 0.0
H11 H 0.14286 0.52249 0.28069 0.0
H12 H 0.11337 0.56391 0.2529 0.0
H13 H 0.07087 0.53811 0.26658 0.0
H14 H 0.08364 0.49849 0.33466 0.0
H15 H 0.12493 0.5273 0.34999 0.0
H16 H 0.13243 0.58967 0.31956 0.0
H17 H 0.09093 0.56073 0.30455 0.0
H18 H 0.02572 0.47236 0.34794 0.0
H19 H 0.03843 0.48777 0.37821 0.0
H20 H 0.06179 0.56342 0.36165 0.0
H21 H 0.04893 0.54784 0.3315 0.0
H22 H 0.97181 0.43856 0.32148 0.0
H23 H 0.9305 0.42839 0.33544 0.0
H24 H 0.95393 0.50747 0.3339 0.0
H25 H 0.99458 0.51726 0.31962 0.0
O26 O 0.0349 0.43904 0.20659 0.0
O27 O 0.01652 0.46167 0.20018 0.0
O28 O 0.16547 0.57064 0.35671 0.0
O29 O 0.17045 0.60327 0.34122 0.0
C30 C 0.01013 0.47715 0.29306 0.0
C31 C 0.03375 0.48657 0.28365 0.0
C32 C 0.058 0.5033 0.29188 0.0
C33 C 0.05881 0.5101 0.30966 0.0
C34 C 0.03523 0.50114 0.31897 0.0
C35 C 0.01082 0.4851 0.31057 0.0
C36 C 0.98491 0.45999 0.28388 0.0
C37 C 0.97925 0.43589 0.27837 0.0
C38 C 0.96014 0.42256 0.26547 0.0
C39 C 0.94622 0.43305 0.25801 0.0
C40 C 0.95014 0.45606 0.26483 0.0
C41 C 0.96941 0.46947 0.27767 0.0
C42 C 0.03299 0.4794 0.26493 0.0
C43 C 0.04195 0.4632 0.26 0.0
C44 C 0.03995 0.45533 0.24255 0.0
C45 C 0.02897 0.46356 0.22973 0.0
C46 C 0.02039 0.48014 0.23471 0.0
C47 C 0.02252 0.48807 0.25214 0.0
C48 C 0.08242 0.51566 0.28153 0.0
C49 C 0.10277 0.51108 0.28512 0.0
C50 C 0.12719 0.52583 0.27731 0.0
C51 C 0.13157 0.54532 0.26575 0.0
C52 C 0.11061 0.54884 0.26151 0.0
C53 C 0.08629 0.53415 0.26935 0.0
C54 C 0.08439 0.52751 0.31846 0.0
C55 C 0.09427 0.51838 0.33132 0.0
C56 C 0.11784 0.53487 0.34004 0.0
C57 C 0.13199 0.5608 0.33599 0.0
C58 C 0.12206 0.56982 0.32299 0.0
C59 C 0.09843 0.55333 0.31434 0.0
C60 C 0.03663 0.50904 0.33755 0.0
C61 C 0.03277 0.49208 0.35098 0.0
C62 C 0.04011 0.50092 0.36823 0.0
C63 C 0.05151 0.52686 0.37219 0.0
C64 C 0.05347 0.54341 0.35889 0.0
C65 C 0.04595 0.53453 0.34173 0.0
C66 C 0.98618 0.47864 0.31957 0.0
C67 C 0.96793 0.45362 0.32419 0.0
C68 C 0.94447 0.44789 0.33223 0.0
C69 C 0.93888 0.46711 0.33569 0.0
C70 C 0.95742 0.49217 0.33117 0.0
C71 C 0.98077 0.49784 0.32316 0.0
C72 C 0.02639 0.45478 0.21127 0.0
C73 C 0.15696 0.57844 0.34529 0.0
H74 H 0.53366 0.07096 0.36187 0.0
H75 H 0.51002 0.17979 0.53414 0.0
H76 H 0.51896 0.01648 0.45113 0.0
H77 H 0.51455 0.98386 0.43059 0.0
H78 H 0.43024 0.9486 0.43175 0.0
H79 H 0.43496 0.98176 0.45213 0.0
H80 H 0.53659 0.07189 0.4385 0.0
H81 H 0.54334 0.07583 0.40683 0.0
H82 H 0.45946 0.03095 0.39823 0.0
H83 H 0.45299 0.02742 0.42994 0.0
H84 H 0.54512 0.10976 0.46794 0.0
H85 H 0.56082 0.15139 0.45514 0.0
H86 H 0.48381 0.12443 0.43269 0.0
H87 H 0.46846 0.08269 0.44536 0.0
H88 H 0.53431 0.09065 0.50694 0.0
H89 H 0.54602 0.12773 0.52542 0.0
H90 H 0.47954 0.12997 0.50439 0.0
H91 H 0.46786 0.09268 0.48616 0.0
H92 H 0.51136 0.03032 0.51353 0.0
H93 H 0.51634 0.03561 0.54535 0.0
H94 H 0.45763 0.05706 0.54611 0.0
H95 H 0.45199 0.0506 0.51439 0.0
H96 H 0.49249 0.98697 0.48725 0.0
H97 H 0.46716 0.94427 0.49956 0.0
H98 H 0.40145 0.95487 0.50683 0.0
H99 H 0.42662 0.99708 0.4943 0.0
O100 O 0.53054 0.06922 0.37435 0.0
O101 O 0.48729 0.04592 0.37065 0.0
O102 O 0.5397 0.16309 0.53742 0.0
O103 O 0.50586 0.16514 0.52696 0.0
C104 C 0.48065 0.02315 0.4637 0.0
C105 C 0.49027 0.04695 0.45571 0.0
C106 C 0.49596 0.06836 0.466 0.0
C107 C 0.49285 0.06614 0.48433 0.0
C108 C 0.48273 0.04221 0.49227 0.0
C109 C 0.47577 0.02055 0.48186 0.0
C110 C 0.47729 0.00146 0.45303 0.0
C111 C 0.49954 0.00147 0.44713 0.0
C112 C 0.49696 0.98275 0.43549 0.0
C113 C 0.47205 0.96369 0.42951 0.0
C114 C 0.4497 0.9632 0.436 0.0
C115 C 0.45231 0.98197 0.4477 0.0
C116 C 0.49432 0.04941 0.43648 0.0
C117 C 0.51971 0.06304 0.42974 0.0
C118 C 0.5235 0.0652 0.41165 0.0
C119 C 0.50194 0.0537 0.39999 0.0
C120 C 0.4765 0.04003 0.40684 0.0
C121 C 0.47274 0.03794 0.42493 0.0
C122 C 0.50566 0.09329 0.45762 0.0
C123 C 0.5317 0.11288 0.46022 0.0
C124 C 0.54056 0.13666 0.45298 0.0
C125 C 0.52351 0.14131 0.44299 0.0
C126 C 0.49751 0.12143 0.44017 0.0
C127 C 0.48867 0.09762 0.44743 0.0
C128 C 0.50023 0.08899 0.49525 0.0
C129 C 0.52229 0.09917 0.50637 0.0
C130 C 0.52895 0.12036 0.51689 0.0
C131 C 0.5137 0.13182 0.51638 0.0
C132 C 0.4917 0.12162 0.50511 0.0
C133 C 0.48502 0.10038 0.49465 0.0
C134 C 0.48155 0.04038 0.51165 0.0
C135 C 0.49899 0.03538 0.52066 0.0
C136 C 0.50202 0.03868 0.5388 0.0
C137 C 0.48774 0.0472 0.54824 0.0
C138 C 0.46885 0.05035 0.53929 0.0
C139 C 0.46569 0.04683 0.52115 0.0
C140 C 0.46131 0.99503 0.48979 0.0
C141 C 0.47261 0.97998 0.49149 0.0
C142 C 0.4582 0.95571 0.49861 0.0
C143 C 0.43224 0.94613 0.50405 0.0
C144 C 0.42122 0.9615 0.50251 0.0
C145 C 0.43562 0.98569 0.49547 0.0
C146 C 0.50603 0.05599 0.38078 0.0
C147 C 0.52063 0.15428 0.52757 0.0
H148 H 0.55123 0.55565 0.75537 0.0
H149 H 0.5568 0.44404 0.56896 0.0
H150 H 0.52515 0.59255 0.65592 0.0
H151 H 0.51837 0.6154 0.67964 0.0
H152 H 0.45668 0.54407 0.69983 0.0
H153 H 0.46272 0.52174 0.67558 0.0
H154 H 0.55079 0.56855 0.67956 0.0
H155 H 0.55716 0.57043 0.71137 0.0
H156 H 0.49405 0.49241 0.71479 0.0
H157 H 0.48768 0.49093 0.68299 0.0
H158 H 0.57245 0.53085 0.6602 0.0
H159 H 0.58815 0.50363 0.67163 0.0
H160 H 0.50987 0.43852 0.66583 0.0
H161 H 0.49461 0.4657 0.65435 0.0
H162 H 0.56827 0.54194 0.61493 0.0
H163 H 0.5865 0.52492 0.59405 0.0
H164 H 0.51736 0.45052 0.59905 0.0
H165 H 0.49925 0.4679 0.61975 0.0
H166 H 0.53948 0.56965 0.6028 0.0
H167 H 0.55022 0.56681 0.57239 0.0
H168 H 0.48789 0.48827 0.57027 0.0
H169 H 0.47662 0.49171 0.6004 0.0
H170 H 0.51419 0.58833 0.62162 0.0
H171 H 0.48571 0.60313 0.61024 0.0
H172 H 0.41805 0.52856 0.61815 0.0
H173 H 0.44657 0.51432 0.62988 0.0
O174 O 0.54846 0.55444 0.74281 0.0
O175 O 0.5162 0.51416 0.74383 0.0
O176 O 0.58549 0.48977 0.57544 0.0
O177 O 0.5502 0.4512 0.57734 0.0
C178 C 0.50266 0.54161 0.6524 0.0
C179 C 0.51459 0.52889 0.65977 0.0
C180 C 0.52282 0.51589 0.64881 0.0
C181 C 0.52089 0.51706 0.6305 0.0
C182 C 0.50871 0.52952 0.62312 0.0
C183 C 0.49897 0.54122 0.63408 0.0
C184 C 0.49447 0.55552 0.6641 0.0
C185 C 0.5095 0.58202 0.6651 0.0
C186 C 0.50584 0.59499 0.67882 0.0
C187 C 0.48727 0.58159 0.69185 0.0
C188 C 0.47098 0.55512 0.68999 0.0
C189 C 0.47445 0.54224 0.67617 0.0
C190 C 0.51889 0.52957 0.679 0.0
C191 C 0.53842 0.55188 0.68722 0.0
C192 C 0.542 0.5529 0.70538 0.0
C193 C 0.52613 0.53156 0.71563 0.0
C194 C 0.50664 0.50917 0.70729 0.0
C195 C 0.50303 0.50822 0.68913 0.0
C196 C 0.53248 0.50012 0.6564 0.0
C197 C 0.5588 0.51071 0.66148 0.0
C198 C 0.56766 0.4952 0.66802 0.0
C199 C 0.55028 0.46891 0.66944 0.0
C200 C 0.52384 0.45859 0.66457 0.0
C201 C 0.51505 0.47406 0.65812 0.0
C202 C 0.53258 0.5061 0.61893 0.0
C203 C 0.55724 0.52193 0.61162 0.0
C204 C 0.56755 0.51217 0.59966 0.0
C205 C 0.55338 0.48634 0.59488 0.0
C206 C 0.5288 0.47048 0.60246 0.0
C207 C 0.51848 0.48029 0.61438 0.0
C208 C 0.5075 0.53081 0.60381 0.0
C209 C 0.52721 0.55229 0.59544 0.0
C210 C 0.53359 0.55048 0.57816 0.0
C211 C 0.52046 0.52708 0.56913 0.0
C212 C 0.49844 0.50655 0.57683 0.0
C213 C 0.49188 0.50849 0.59406 0.0
C214 C 0.48235 0.55034 0.62662 0.0
C215 C 0.49321 0.57529 0.62085 0.0
C216 C 0.47693 0.58362 0.61428 0.0
C217 C 0.44956 0.56706 0.61337 0.0
C218 C 0.43895 0.54194 0.61895 0.0
C219 C 0.4552 0.53371 0.62554 0.0
C220 C 0.52989 0.53276 0.73493 0.0
C221 C 0.56408 0.47598 0.58197 0.0
H222 H -0.00242 0.44763 0.91966 0.0
H223 H 0.16308 0.49322 0.75015 0.0
H224 H 0.96129 0.44507 0.82297 0.0
H225 H 0.92904 0.43257 0.84616 0.0
H226 H 0.92538 0.36081 0.8502 0.0
H227 H 0.957 0.37322 0.82648 0.0
H228 H 0.01379 0.46827 0.84471 0.0
H229 H 0.00881 0.46702 0.87655 0.0
H230 H -0.00118 0.39229 0.87694 0.0
H231 H 0.00382 0.39383 0.84508 0.0
H232 H 0.0708 0.49277 0.82025 0.0
H233 H 0.11257 0.5103 0.83613 0.0
H234 H 0.0939 0.43438 0.84859 0.0
H235 H 0.05278 0.41712 0.832 0.0
H236 H 0.05734 0.49129 0.78078 0.0
H237 H 0.09812 0.51264 0.76431 0.0
H238 H 0.11078 0.45089 0.77531 0.0
H239 H 0.06968 0.42952 0.79147 0.0
H240 H -0.00066 0.46533 0.76847 0.0
H241 H 0.01538 0.48285 0.7395 0.0
H242 H 0.04402 0.43161 0.73258 0.0
H243 H 0.02758 0.41394 0.76154 0.0
H244 H 0.95391 0.43949 0.7884 0.0
H245 H 0.91001 0.41581 0.77507 0.0
H246 H 0.92002 0.35179 0.76651 0.0
H247 H 0.96402 0.37585 0.77955 0.0
O248 O 0.00011 0.44798 0.90714 0.0
O249 O -0.00435 0.40982 0.90669 0.0
O250 O 0.13921 0.51624 0.75108 0.0
O251 O 0.14702 0.48532 0.75675 0.0
C252 C 0.98638 0.4208 0.81346 0.0
C253 C 0.01001 0.43124 0.82324 0.0
C254 C 0.03421 0.44305 0.81462 0.0
C255 C 0.03489 0.44516 0.79622 0.0
C256 C 0.01118 0.43459 0.78636 0.0
C257 C 0.98692 0.42212 0.79502 0.0
C258 C 0.96141 0.41003 0.82307 0.0
C259 C 0.95261 0.42621 0.82831 0.0
C260 C 0.9345 0.41917 0.84175 0.0
C261 C 0.92514 0.39594 0.8503 0.0
C262 C 0.93215 0.37879 0.84387 0.0
C263 C 0.95016 0.3858 0.83029 0.0
C264 C 0.00927 0.43119 0.84267 0.0
C265 C 0.01083 0.45179 0.85175 0.0
C266 C 0.00785 0.45096 0.86991 0.0
C267 C 0.00333 0.42952 0.87929 0.0
C268 C 0.00226 0.40908 0.87012 0.0
C269 C 0.00521 0.40994 0.85195 0.0
C270 C 0.05889 0.45371 0.82495 0.0
C271 C 0.07581 0.48 0.82643 0.0
C272 C 0.09952 0.48994 0.83564 0.0
C273 C 0.10658 0.47373 0.84363 0.0
C274 C 0.08923 0.44738 0.84239 0.0
C275 C 0.06565 0.43747 0.83306 0.0
C276 C 0.06052 0.45882 0.78723 0.0
C277 C 0.06898 0.48243 0.77962 0.0
C278 C 0.09227 0.49459 0.77024 0.0
C279 C 0.10768 0.48342 0.76844 0.0
C280 C 0.09937 0.45998 0.7764 0.0
C281 C 0.07597 0.44777 0.7857 0.0
C282 C 0.01244 0.43849 0.76715 0.0
C283 C 0.00792 0.45704 0.76036 0.0
C284 C 0.01727 0.46714 0.74384 0.0
C285 C 0.03139 0.45891 0.73394 0.0
C286 C 0.03355 0.43856 0.74006 0.0
C287 C 0.02394 0.42827 0.75649 0.0
C288 C 0.962 0.40931 0.78493 0.0
C289 C 0.94671 0.42051 0.78336 0.0
C290 C 0.92162 0.40689 0.77586 0.0
C291 C 0.91143 0.38182 0.76985 0.0
C292 C 0.92735 0.37112 0.77081 0.0
C293 C 0.95244 0.38478 0.7783 0.0
C294 C -0.00051 0.42843 0.89852 0.0
C295 C 0.13223 0.49607 0.75824 0.0
H296 H 0.44116 0.9929 0.86039 0.0
H297 H 0.44003 0.84156 0.01739 0.0
H298 H 0.46712 0.03672 0.95013 0.0
H299 H 0.48577 0.07271 0.93033 0.0
H300 H 0.56313 0.08518 0.94063 0.0
H301 H 0.54409 0.04858 0.95998 0.0
H302 H 0.43427 0.97773 0.93617 0.0
H303 H 0.4292 0.98077 0.90459 0.0
H304 H 0.5128 0.01425 0.89853 0.0
H305 H 0.51753 0.01074 0.93007 0.0
H306 H 0.41897 0.92827 0.96113 0.0
H307 H 0.40304 0.88815 0.94507 0.0
H308 H 0.47997 0.91752 0.92315 0.0
H309 H 0.49579 0.95715 0.93943 0.0
H310 H 0.42734 0.9409 2e-05 0.0
H311 H 0.41097 0.89992 0.0141 0.0
H312 H 0.47695 0.89664 -0.00596 0.0
H313 H 0.49326 0.93779 0.98022 0.0
H314 H 0.45209 0.98895 0.01614 0.0
H315 H 0.45111 0.97773 0.04704 0.0
H316 H 0.52097 0.97408 0.03976 0.0
H317 H 0.52142 0.98462 0.00873 0.0
H318 H 0.48133 0.04744 -0.00657 0.0
H319 H 0.50851 0.08767 0.00926 0.0
H320 H 0.57182 0.07248 0.01167 0.0
H321 H 0.54427 0.03221 -0.00366 0.0
O322 O 0.44359 0.99172 0.87282 0.0
O323 O 0.48671 0.00906 0.87044 0.0
O324 O 0.4127 0.86055 0.02215 0.0
O325 O 0.44609 0.85781 0.01199 0.0
C326 C 0.49236 0.01505 0.96502 0.0
C327 C 0.47922 0.99267 0.95464 0.0
C328 C 0.46923 0.9688 0.96252 0.0
C329 C 0.47152 0.96727 0.98083 0.0
C330 C 0.48447 0.98962 -0.00883 0.0
C331 C 0.49528 0.01351 0.98326 0.0
C332 C 0.50424 0.04001 0.9564 0.0
C333 C 0.48816 0.04767 0.94845 0.0
C334 C 0.4989 0.0683 0.9372 0.0
C335 C 0.52593 0.08166 0.93378 0.0
C336 C 0.5422 0.07505 0.94282 0.0
C337 C 0.53142 0.05434 0.95402 0.0
C338 C 0.47627 0.99419 0.93541 0.0
C339 C 0.45144 0.98563 0.92797 0.0
C340 C 0.44862 0.98744 0.90994 0.0
C341 C 0.47061 0.99784 0.89904 0.0
C342 C 0.49547 0.00622 0.90655 0.0
C343 C 0.49824 0.00431 0.92457 0.0
C344 C 0.45854 0.94557 0.95145 0.0
C345 C 0.43226 0.92606 0.95272 0.0
C346 C 0.42321 0.90323 0.94357 0.0
C347 C 0.44026 0.89979 0.93284 0.0
C348 C 0.46628 0.91978 0.93109 0.0
C349 C 0.47536 0.9424 0.9404 0.0
C350 C 0.46148 0.94227 -0.01084 0.0
C351 C 0.43826 0.93132 -0.00125 0.0
C352 C 0.42894 0.90791 0.00674 0.0
C353 C 0.44267 0.895 0.0052 0.0
C354 C 0.46591 0.90606 -0.0045 0.0
C355 C 0.47526 0.92952 -0.01243 0.0
C356 C 0.48686 0.98764 0.01031 0.0
C357 C 0.46749 0.98628 0.02134 0.0
C358 C 0.46688 0.97978 0.03888 0.0
C359 C 0.48595 0.97504 0.04565 0.0
C360 C 0.50622 0.97787 0.03482 0.0
C361 C 0.50652 0.98389 0.01718 0.0
C362 C 0.51083 0.03693 -0.00612 0.0
C363 C 0.50096 0.05275 -0.00237 0.0
C364 C 0.51657 0.07575 0.00656 0.0
C365 C 0.54238 0.08334 0.01176 0.0
C366 C 0.55192 0.06708 0.0082 0.0
C367 C 0.53626 0.04409 -0.00063 0.0
C368 C 0.46757 -9e-05 0.87991 0.0
C369 C 0.43284 0.8701 0.01364 0.0
H370 H 0.54454 0.52996 0.03252 0.0
H371 H 0.68544 0.5176 0.19987 0.0
H372 H 0.52506 0.55669 0.12754 0.0
H373 H 0.50408 0.56954 0.10571 0.0
H374 H 0.57732 0.64011 0.09902 0.0
H375 H 0.5977 0.62747 0.12156 0.0
H376 H 0.54868 0.52553 0.10894 0.0
H377 H 0.54087 0.52003 0.07723 0.0
H378 H 0.60667 0.59581 0.06958 0.0
H379 H 0.6143 0.60094 0.1013 0.0
H380 H 0.57899 0.50539 0.13507 0.0
H381 H 0.59777 0.48277 0.1206 0.0
H382 H 0.65986 0.5537 0.10031 0.0
H383 H 0.64078 0.57599 0.11466 0.0
H384 H 0.57774 0.51802 0.17538 0.0
H385 H 0.59848 0.4996 0.19267 0.0
H386 H 0.67374 0.55429 0.17138 0.0
H387 H 0.65278 0.57281 0.15439 0.0
H388 H 0.55442 0.54972 0.18773 0.0
H389 H 0.56143 0.54323 0.2185 0.0
H390 H 0.64479 0.59336 0.2125 0.0
H391 H 0.63763 0.60012 0.1819 0.0
H392 H 0.52967 0.57037 0.16121 0.0
H393 H 0.51444 0.59592 0.1758 0.0
H394 H 0.59481 0.65653 0.18336 0.0
H395 H 0.6098 0.63072 0.16879 0.0
O396 O 0.54813 0.53243 0.04499 0.0
O397 O 0.58216 0.57148 0.04177 0.0
O398 O 0.63762 0.49699 0.20385 0.0
O399 O 0.6767 0.52435 0.19303 0.0
C400 C 0.57662 0.58078 0.13588 0.0
C401 C 0.58599 0.56715 0.1266 0.0
C402 C 0.59838 0.55624 0.13566 0.0
C403 C 0.6013 0.55883 0.15403 0.0
C404 C 0.59232 0.57287 0.16331 0.0
C405 C 0.57991 0.58382 0.15424 0.0
C406 C 0.56282 0.59118 0.12607 0.0
C407 C 0.53624 0.57531 0.12182 0.0
C408 C 0.52443 0.58257 0.10919 0.0
C409 C 0.53918 0.60562 0.10035 0.0
C410 C 0.56535 0.62231 0.10563 0.0
C411 C 0.57706 0.61514 0.11848 0.0
C412 C 0.58199 0.56362 0.10734 0.0
C413 C 0.56144 0.54084 0.10036 0.0
C414 C 0.557 0.53779 0.08226 0.0
C415 C 0.5731 0.55751 0.07087 0.0
C416 C 0.59387 0.58027 0.07798 0.0
C417 C 0.59828 0.58326 0.09607 0.0
C418 C 0.60858 0.54228 0.1259 0.0
C419 C 0.59651 0.51593 0.12736 0.0
C420 C 0.60731 0.5031 0.11915 0.0
C421 C 0.63033 0.51645 0.10933 0.0
C422 C 0.64192 0.54281 0.10755 0.0
C423 C 0.63114 0.5556 0.11579 0.0
C424 C 0.61377 0.54675 0.16367 0.0
C425 C 0.59869 0.52595 0.17446 0.0
C426 C 0.61059 0.51548 0.18431 0.0
C427 C 0.6378 0.52552 0.18343 0.0
C428 C 0.65276 0.54612 0.17237 0.0
C429 C 0.64084 0.55666 0.16259 0.0
C430 C 0.59555 0.57521 0.18261 0.0
C431 C 0.57405 0.56016 0.19329 0.0
C432 C 0.57808 0.55637 0.21079 0.0
C433 C 0.60367 0.56747 0.21767 0.0
C434 C 0.62492 0.58438 0.20738 0.0
C435 C 0.62085 0.5884 0.18999 0.0
C436 C 0.5708 0.59881 0.16383 0.0
C437 C 0.54394 0.58917 0.16601 0.0
C438 C 0.53531 0.60381 0.1743 0.0
C439 C 0.55342 0.62832 0.18064 0.0
C440 C 0.58038 0.63766 0.17876 0.0
C441 C 0.58898 0.62302 0.1704 0.0
C442 C 0.56817 0.55433 0.05167 0.0
C443 C 0.65059 0.51468 0.19407 0.0
Zn444 Zn 0.69835 0.50049 0.41013 0.0
Zn445 Zn 0.66201 0.45119 0.40495 0.0
O446 O 0.69734 0.45263 0.40465 0.0
O447 O 0.72745 0.49273 0.40882 0.0
O448 O 0.63606 0.41367 0.40374 0.0
O449 O 0.6821 0.50107 0.43309 0.0
O450 O 0.65101 0.46174 0.42739 0.0
C451 C 0.72137 0.47001 0.40611 0.0
C452 C 0.6658 0.48921 0.3785 0.0
O453 O 0.65544 0.46616 0.38305 0.0
O454 O 0.68382 0.50676 0.38781 0.0
C455 C 0.6376 0.39931 0.39238 0.0
O456 O 0.65576 0.40941 0.38038 0.0
C457 C 0.66055 0.48157 0.43704 0.0
Zn458 Zn 0.18977 0.66342 0.56976 0.0
Zn459 Zn 0.22031 0.64289 0.56628 0.0
O460 O 0.24615 0.68134 0.56563 0.0
O461 O 0.22207 0.69872 0.56872 0.0
O462 O 0.24431 0.62882 0.56659 0.0
O463 O 0.17579 0.64549 0.59282 0.0
O464 O 0.1992 0.6276 0.58868 0.0
C465 C 0.24428 0.70101 0.56657 0.0
C466 C 0.17903 0.63149 0.53837 0.0
O467 O 0.19788 0.62909 0.54394 0.0
O468 O 0.172 0.64464 0.547 0.0
C469 C 0.26513 0.63785 0.55768 0.0
O470 O 0.27082 0.65633 0.54675 0.0
C471 C 0.18272 0.63014 0.59767 0.0
Zn472 Zn 0.53186 0.20502 0.73788 0.0
Zn473 Zn 0.58438 0.22457 0.73549 0.0
O474 O 0.5798 0.25478 0.73108 0.0
O475 O 0.53744 0.23981 0.73297 0.0
O476 O 0.62349 0.24086 0.73429 0.0
O477 O 0.53374 0.19486 0.76279 0.0
O478 O 0.5762 0.21055 0.76037 0.0
C479 C 0.56046 0.2582 0.73045 0.0
C480 C 0.54665 0.18194 0.71052 0.0
O481 O 0.56987 0.1976 0.71594 0.0
O482 O 0.52722 0.18138 0.71769 0.0
C483 C 0.63553 0.22884 0.73544 0.0
O484 O 0.62201 0.2041 0.73711 0.0
C485 C 0.55538 0.1994 0.76937 0.0
Zn486 Zn 0.42071 0.57809 0.89892 0.0
Zn487 Zn 0.42666 0.62506 0.89921 0.0
O488 O 0.38712 0.60106 0.89878 0.0
O489 O 0.38118 0.56269 0.89825 0.0
O490 O 0.4299 0.65907 0.89991 0.0
O491 O 0.44008 0.58698 0.92234 0.0
O492 O 0.44473 0.62484 0.92196 0.0
C493 C 0.37184 0.57713 0.89834 0.0
C494 C 0.44827 0.60875 0.86893 0.0
O495 O 0.44452 0.62512 0.87645 0.0
O496 O 0.44039 0.58745 0.87596 0.0
C497 C 0.41809 0.66498 0.88872 0.0
O498 O 0.40423 0.64875 0.87614 0.0
C499 C 0.44832 0.60847 0.92949 0.0
Zn500 Zn 0.84172 0.42248 0.05398 0.0
Zn501 Zn 0.80119 0.37408 0.05529 0.0
O502 O 0.78316 0.39479 0.05633 0.0
O503 O 0.81569 0.4344 0.05541 0.0
O504 O 0.77106 0.33795 0.05505 0.0
O505 O 0.85179 0.41541 0.03038 0.0
O506 O 0.8189 0.37606 0.03177 0.0
C507 C 0.79136 0.4184 0.05636 0.0
C508 C 0.84324 0.39537 0.08437 0.0
O509 O 0.82184 0.37737 0.07788 0.0
O510 O 0.85582 0.41623 0.07641 0.0
C511 C 0.74971 0.33089 0.06297 0.0
O512 O 0.74723 0.34746 0.07238 0.0
C513 C 0.83838 0.39347 0.0236 0.0
Zn514 Zn 0.39573 0.8282 0.23872 0.0
Zn515 Zn 0.42814 0.81047 0.23579 0.0
O516 O 0.39141 0.77867 0.23373 0.0
O517 O 0.36473 0.79345 0.23304 0.0
O518 O 0.45133 0.79592 0.23224 0.0
O519 O 0.41488 0.85344 0.21969 0.0
O520 O 0.43845 0.83565 0.21548 0.0
C521 C 0.36831 0.77489 0.23234 0.0
C522 C 0.42628 0.83522 0.27008 0.0
O523 O 0.43729 0.82624 0.26067 0.0
O524 O 0.40765 0.83721 0.26383 0.0
C525 C 0.45091 0.77988 0.24283 0.0
O526 O 0.436 0.77374 0.2567 0.0
C527 C 0.43215 0.85182 0.21119 0.0
H528 H 0.17748 0.5665 0.28452 0.0
H529 H 0.22017 0.60178 0.27598 0.0
H530 H 0.18884 0.60218 0.22495 0.0
H531 H 0.14619 0.56622 0.23315 0.0
H532 H 0.24226 0.61262 0.22504 0.0
H533 H 0.22578 0.67155 0.27273 0.0
H534 H 0.22412 0.64389 0.28175 0.0
H535 H 0.20004 0.64038 0.26582 0.0
C536 C 0.17982 0.57352 0.27129 0.0
C537 C 0.15834 0.5637 0.25957 0.0
C538 C 0.20418 0.59385 0.2665 0.0
C539 C 0.20745 0.60482 0.24997 0.0
C540 C 0.18662 0.59403 0.23781 0.0
H541 H 0.31733 0.76046 0.22576 0.0
H542 H 0.27884 0.71802 0.22786 0.0
C543 C 0.16224 0.57363 0.24257 0.0
C544 C 0.23163 0.62901 0.24602 0.0
H545 H 0.26639 0.69128 0.2584 0.0
C546 C 0.24764 0.62986 0.23231 0.0
C547 C 0.23826 0.65148 0.25537 0.0
C548 C 0.22108 0.65197 0.26964 0.0
C549 C 0.27038 0.65267 0.22784 0.0
C550 C 0.27724 0.675 0.23746 0.0
C551 C 0.26111 0.6741 0.25108 0.0
C552 C 0.30085 0.69979 0.23366 0.0
C553 C 0.28656 0.65282 0.21269 0.0
C554 C 0.32604 0.70351 0.23587 0.0
C555 C 0.34817 0.72781 0.23461 0.0
C556 C 0.3454 0.74879 0.23132 0.0
C557 C 0.32016 0.74476 0.22841 0.0
C558 C 0.29813 0.72051 0.22959 0.0
H559 H 0.27537 0.63587 0.20407 0.0
H560 H 0.29346 0.67009 0.20472 0.0
H561 H 0.30405 0.65281 0.21784 0.0
H562 H 0.32855 0.68786 0.23934 0.0
H563 H 0.36733 0.73029 0.23697 0.0
H564 H 0.51281 0.15344 0.41065 0.0
H565 H 0.52909 0.19584 0.39881 0.0
H566 H 0.57146 0.22931 0.44708 0.0
H567 H 0.55501 0.18717 0.45912 0.0
H568 H 0.52444 0.23729 0.41258 0.0
H569 H 0.62765 0.26089 0.40833 0.0
H570 H 0.60055 0.22883 0.41068 0.0
H571 H 0.61324 0.24975 0.42942 0.0
C572 C 0.5254 0.16983 0.41881 0.0
C573 C 0.53283 0.16691 0.43578 0.0
C574 C 0.53475 0.19401 0.41199 0.0
C575 C 0.55178 0.21564 0.42198 0.0
C576 C 0.55875 0.21281 0.43904 0.0
H577 H 0.60065 0.37251 0.41706 0.0
H578 H 0.57751 0.32691 0.42181 0.0
C579 C 0.5494 0.18871 0.44587 0.0
C580 C 0.5625 0.24128 0.41467 0.0
H581 H 0.62011 0.2951 0.40522 0.0
C582 C 0.54532 0.24989 0.41078 0.0
C583 C 0.58969 0.25748 0.41208 0.0
C584 C 0.60888 0.24875 0.41518 0.0
C585 C 0.55479 0.27475 0.40507 0.0
C586 C 0.58214 0.2914 0.40341 0.0
C587 C 0.59916 0.28239 0.40661 0.0
C588 C 0.59379 0.3186 0.39927 0.0
C589 C 0.53545 0.28296 0.40091 0.0
C590 C 0.61075 0.32916 0.38506 0.0
C591 C 0.62424 0.35532 0.38238 0.0
C592 C 0.62113 0.37142 0.39397 0.0
C593 C 0.60346 0.36067 0.40786 0.0
C594 C 0.59003 0.33454 0.41053 0.0
H595 H 0.5158 0.26648 0.39753 0.0
H596 H 0.53333 0.29255 0.41259 0.0
H597 H 0.54224 0.29645 0.38987 0.0
H598 H 0.61404 0.3172 0.37627 0.0
H599 H 0.63767 0.36296 0.37155 0.0
H600 H 0.45695 0.598 0.58553 0.0
H601 H 0.42747 0.61196 0.57491 0.0
H602 H 0.37258 0.5691 0.61542 0.0
H603 H 0.40223 0.55591 0.62651 0.0
H604 H 0.3762 0.58285 0.56254 0.0
H605 H 0.38078 0.63845 0.62124 0.0
H606 H 0.40391 0.62825 0.61763 0.0
H607 H 0.37205 0.60665 0.62632 0.0
C608 C 0.43878 0.59187 0.59234 0.0
C609 C 0.43198 0.57587 0.6069 0.0
C610 C 0.42189 0.59971 0.58617 0.0
C611 C 0.39801 0.59185 0.59453 0.0
C612 C 0.39113 0.57579 0.60898 0.0
H613 H 0.26082 0.60267 0.5812 0.0
H614 H 0.29367 0.59162 0.58869 0.0
C615 C 0.40798 0.568 0.61516 0.0
C616 C 0.37987 0.59984 0.58796 0.0
H617 H 0.34611 0.62821 0.60071 0.0
C618 C 0.36982 0.59302 0.57079 0.0
C619 C 0.37166 0.61317 0.59875 0.0
C620 C 0.38285 0.62229 0.61695 0.0
C621 C 0.351 0.59836 0.56437 0.0
C622 C 0.34225 0.61101 0.57536 0.0
C623 C 0.35273 0.61832 0.59237 0.0
C624 C 0.3218 0.61644 0.56969 0.0
C625 C 0.33998 0.58975 0.54609 0.0
C626 C 0.3267 0.63393 0.55641 0.0
C627 C 0.30795 0.64036 0.55209 0.0
C628 C 0.28403 0.62943 0.56103 0.0
C629 C 0.27901 0.61145 0.57404 0.0
C630 C 0.29777 0.60512 0.57837 0.0
H631 H 0.34509 0.57614 0.54053 0.0
H632 H 0.31831 0.58072 0.54603 0.0
H633 H 0.34805 0.60644 0.53742 0.0
H634 H 0.34529 0.64313 0.54973 0.0
H635 H 0.31248 0.65432 0.54206 0.0
H636 H 0.89149 0.34798 0.74224 0.0
H637 H 0.8453 0.32013 0.73392 0.0
H638 H 0.82267 0.35277 0.7753 0.0
H639 H 0.86855 0.37998 0.78406 0.0
H640 H 0.79484 0.29994 0.77482 0.0
H641 H 0.79578 0.33838 0.70894 0.0
H642 H 0.81975 0.32936 0.71259 0.0
H643 H 0.82184 0.35534 0.72487 0.0
C644 C 0.87666 0.34924 0.74954 0.0
C645 C 0.88372 0.36628 0.76377 0.0
C646 C 0.85032 0.33349 0.74466 0.0
C647 C 0.83062 0.3346 0.75388 0.0
C648 C 0.83761 0.35174 0.76796 0.0
H649 H 0.66877 0.27998 0.73334 0.0
H650 H 0.71639 0.30367 0.73664 0.0
C651 C 0.86387 0.36744 0.77284 0.0
C652 C 0.80257 0.31723 0.74946 0.0
H653 H 0.75599 0.30259 0.71773 0.0
C654 C 0.78633 0.30039 0.76231 0.0
C655 C 0.7916 0.31803 0.73315 0.0
C656 C 0.80803 0.33636 0.71911 0.0
C657 C 0.75927 0.28457 0.75942 0.0
C658 C 0.74827 0.28533 0.74311 0.0
C659 C 0.76457 0.30192 0.73015 0.0
C660 C 0.71961 0.27047 0.7398 0.0
C661 C 0.74257 0.2679 0.77409 0.0
C662 C 0.70567 0.24389 0.74009 0.0
C663 C 0.67834 0.23023 0.7383 0.0
C664 C 0.66455 0.24296 0.73607 0.0
C665 C 0.67873 0.26956 0.73513 0.0
C666 C 0.70598 0.28316 0.73696 0.0
H667 H 0.7532 0.27351 0.78689 0.0
H668 H 0.72438 0.26862 0.7753 0.0
H669 H 0.73686 0.248 0.77121 0.0
H670 H 0.7159 0.23373 0.74197 0.0
H671 H 0.66803 0.20976 0.73895 0.0
H672 H 0.41361 0.85351 0.94811 0.0
H673 H 0.40612 0.81327 0.93629 0.0
H674 H 0.44072 0.8494 0.88745 0.0
H675 H 0.44855 0.88987 0.8993 0.0
H676 H 0.38028 0.78282 0.90695 0.0
H677 H 0.4881 0.82364 0.90442 0.0
H678 H 0.4737 0.83949 0.91542 0.0
H679 H 0.47597 0.84019 0.89194 0.0
C680 C 0.41907 0.85275 0.93472 0.0
C681 C 0.4319 0.87483 0.92467 0.0
C682 C 0.41485 0.82978 0.928 0.0
C683 C 0.42334 0.82852 0.91114 0.0
C684 C 0.43455 0.85015 0.90064 0.0
H685 H 0.3955 0.68397 0.86706 0.0
H686 H 0.3961 0.72385 0.87062 0.0
C687 C 0.43896 0.87318 0.9074 0.0
C688 C 0.42231 0.80508 0.90521 0.0
H689 H 0.46132 0.78116 0.89543 0.0
C690 C 0.39794 0.78243 0.90426 0.0
C691 C 0.44548 0.80468 0.90195 0.0
C692 C 0.47233 0.82822 0.90361 0.0
C693 C 0.39613 0.75923 0.90042 0.0
C694 C 0.41931 0.75886 0.89721 0.0
C695 C 0.4436 0.78159 0.89779 0.0
C696 C 0.41912 0.73492 0.89463 0.0
C697 C 0.36959 0.73522 0.90059 0.0
C698 C 0.43245 0.72832 0.90668 0.0
C699 C 0.43236 0.70576 0.90462 0.0
C700 C 0.41894 0.68933 0.89042 0.0
C701 C 0.4059 0.69616 0.87819 0.0
C702 C 0.40608 0.71884 0.88025 0.0
H703 H 0.35454 0.73819 0.9068 0.0
H704 H 0.36314 0.72854 0.88692 0.0
H705 H 0.37056 0.72004 0.9077 0.0
H706 H 0.4427 0.74054 0.91784 0.0
H707 H 0.44261 0.7011 0.91427 0.0
H708 H 0.63693 0.48004 0.12458 0.0
H709 H 0.6613 0.46103 0.11324 0.0
H710 H 0.67794 0.50467 0.06612 0.0
H711 H 0.65288 0.52326 0.07712 0.0
H712 H 0.66418 0.45291 0.06063 0.0
H713 H 0.74228 0.50352 0.11125 0.0
H714 H 0.70973 0.48476 0.11969 0.0
H715 H 0.71791 0.51185 0.10648 0.0
C716 C 0.64531 0.48523 0.11165 0.0
C717 C 0.64313 0.50329 0.10179 0.0
C718 C 0.65943 0.47453 0.10527 0.0
C719 C 0.67172 0.48178 0.08899 0.0
C720 C 0.66869 0.49897 0.07877 0.0
H721 H 0.80201 0.4672 0.05614 0.0
H722 H 0.77192 0.48209 0.06227 0.0
C723 C 0.65456 0.5097 0.08513 0.0
C724 C 0.68884 0.47242 0.08301 0.0
H725 H 0.74542 0.47375 0.09331 0.0
C726 C 0.68197 0.45744 0.06773 0.0
C727 C 0.7122 0.47875 0.09219 0.0
C728 C 0.72118 0.49578 0.10823 0.0
C729 C 0.69771 0.44824 0.06152 0.0
C730 C 0.7207 0.45401 0.07098 0.0
C731 C 0.7277 0.46927 0.08613 0.0
C732 C 0.73801 0.4446 0.06549 0.0
C733 C 0.68987 0.43277 0.04477 0.0
C734 C 0.72882 0.41856 0.0651 0.0
C735 C 0.74597 0.40994 0.06156 0.0
C736 C 0.77266 0.42727 0.0585 0.0
C737 C 0.78161 0.45333 0.05848 0.0
C738 C 0.76445 0.46189 0.06197 0.0
H739 H 0.67576 0.43548 0.03686 0.0
H740 H 0.70729 0.43781 0.03669 0.0
H741 H 0.68031 0.41239 0.04802 0.0
H742 H 0.7086 0.40492 0.06811 0.0
H743 H 0.73845 0.38975 0.06174 0.0
H744 H 0.38128 0.91092 0.49625 0.0
H745 H 0.3542 0.86904 0.50895 0.0
H746 H 0.4201 0.88019 0.54018 0.0
H747 H 0.44731 0.92252 0.52775 0.0
H748 H 0.36206 0.82716 0.50884 0.0
H749 H 0.36106 0.86186 0.5762 0.0
H750 H 0.37091 0.88226 0.5574 0.0
H751 H 0.3927 0.87324 0.56666 0.0
C752 C 0.39 0.90455 0.5059 0.0
C753 C 0.41637 0.92015 0.51113 0.0
C754 C 0.37454 0.88056 0.51306 0.0
C755 C 0.38505 0.87166 0.52566 0.0
C756 C 0.41153 0.88687 0.53065 0.0
H757 H 0.29412 0.71272 0.55853 0.0
H758 H 0.33097 0.75402 0.5501 0.0
C759 C 0.42709 0.91093 0.52342 0.0
C760 C 0.36796 0.8465 0.53355 0.0
H761 H 0.33699 0.8177 0.57138 0.0
C762 C 0.35678 0.82501 0.52255 0.0
C763 C 0.36097 0.84387 0.55141 0.0
C764 C 0.37183 0.86649 0.56365 0.0
C765 C 0.33835 0.80097 0.52885 0.0
C766 C 0.33117 0.79836 0.54668 0.0
C767 C 0.34272 0.81978 0.55776 0.0
C768 C 0.3101 0.77391 0.55363 0.0
C769 C 0.32588 0.77877 0.5162 0.0
C770 C 0.28654 0.77165 0.5591 0.0
C771 C 0.26549 0.74813 0.56399 0.0
C772 C 0.26762 0.72641 0.56357 0.0
C773 C 0.29173 0.72901 0.55892 0.0
C774 C 0.31279 0.75257 0.554 0.0
H775 H 0.32988 0.78487 0.50234 0.0
H776 H 0.33384 0.76626 0.51876 0.0
H777 H 0.30433 0.76745 0.51799 0.0
H778 H 0.28412 0.78792 0.55897 0.0
H779 H 0.24728 0.74688 0.56757 0.0
H780 H 0.58258 0.47652 0.69756 0.0
H781 H 0.5943 0.44665 0.70945 0.0
H782 H 0.54927 0.39313 0.66816 0.0
H783 H 0.53824 0.42303 0.65597 0.0
H784 H 0.55972 0.39986 0.7219 0.0
H785 H 0.6158 0.39055 0.66811 0.0
H786 H 0.60953 0.41627 0.66935 0.0
H787 H 0.58517 0.38598 0.66025 0.0
C788 C 0.57572 0.45861 0.69082 0.0
C789 C 0.55939 0.45204 0.67589 0.0
C790 C 0.58232 0.44155 0.69765 0.0
C791 C 0.57295 0.41782 0.68955 0.0
C792 C 0.5572 0.41154 0.67441 0.0
H793 H 0.5236 0.27183 0.72708 0.0
H794 H 0.53053 0.31312 0.71913 0.0
C795 C 0.55061 0.42852 0.6676 0.0
C796 C 0.57733 0.39851 0.69767 0.0
H797 H 0.59485 0.3551 0.68792 0.0
C798 C 0.56789 0.39039 0.71462 0.0
C799 C 0.58838 0.38644 0.68829 0.0
C800 C 0.60055 0.39546 0.67057 0.0
C801 C 0.56759 0.36942 0.72195 0.0
C802 C 0.57651 0.356 0.71192 0.0
C803 C 0.58761 0.36516 0.69548 0.0
C804 C 0.57275 0.33143 0.71767 0.0
C805 C 0.55727 0.36157 0.74023 0.0
C806 C 0.59415 0.32787 0.71911 0.0
C807 C 0.59023 0.30416 0.72352 0.0
C808 C 0.5648 0.28356 0.72643 0.0
C809 C 0.54345 0.28728 0.72503 0.0
C810 C 0.54739 0.31095 0.72061 0.0
H811 H 0.55956 0.37791 0.74805 0.0
H812 H 0.53604 0.34713 0.73946 0.0
H813 H 0.56747 0.35325 0.74721 0.0
H814 H 0.61385 0.34339 0.71674 0.0
H815 H 0.60711 0.30194 0.72445 0.0
H816 H 0.13185 0.51591 0.86491 0.0
H817 H 0.17566 0.53447 0.87818 0.0
H818 H 0.18315 0.47377 0.85638 0.0
H819 H 0.1398 0.45543 0.84267 0.0
H820 H 0.19871 0.48904 0.89491 0.0
H821 H 0.24399 0.56689 0.84633 0.0
H822 H 0.2144 0.56094 0.85686 0.0
H823 H 0.21336 0.53783 0.84193 0.0
C824 C 0.14285 0.50655 0.86288 0.0
C825 C 0.13237 0.48424 0.85266 0.0
C826 C 0.16776 0.5171 0.87055 0.0
C827 C 0.1825 0.50546 0.86816 0.0
C828 C 0.1719 0.48289 0.8584 0.0
H829 H 0.3339 0.52789 0.89147 0.0
H830 H 0.28718 0.51101 0.88653 0.0
C831 C 0.14709 0.4724 0.85065 0.0
C832 C 0.20952 0.51735 0.87512 0.0
H833 H 0.27192 0.56512 0.86736 0.0
C834 C 0.21477 0.50579 0.88903 0.0
C835 C 0.23022 0.53922 0.86741 0.0
C836 C 0.22543 0.552 0.85224 0.0
C837 C 0.24043 0.51549 0.89536 0.0
C838 C 0.26132 0.53686 0.88722 0.0
C839 C 0.25588 0.54875 0.87359 0.0
C840 C 0.28911 0.54653 0.8919 0.0
C841 C 0.24488 0.50282 0.91074 0.0
C842 C 0.30581 0.57219 0.89632 0.0
C843 C 0.33261 0.582 0.89887 0.0
C844 C 0.34321 0.56629 0.89706 0.0
C845 C 0.32633 0.54045 0.89309 0.0
C846 C 0.29956 0.53071 0.89039 0.0
H847 H 0.22707 0.49277 0.9189 0.0
H848 H 0.2495 0.48857 0.90583 0.0
H849 H 0.26147 0.51676 0.91914 0.0
H850 H 0.29816 0.58475 0.89745 0.0
H851 H 0.34507 0.60198 0.90195 0.0
H852 H 0.57865 0.09575 0.0382 0.0
H853 H 0.61092 0.13804 0.04908 0.0
H854 H 0.57765 0.17049 0.01533 0.0
H855 H 0.54622 0.12841 0.00367 0.0
H856 H 0.62923 0.19379 0.01186 0.0
H857 H 0.60679 0.18659 0.08251 0.0
H858 H 0.61225 0.16198 0.07513 0.0
H859 H 0.58474 0.16339 0.0666 0.0
C860 C 0.57812 0.11187 0.03312 0.0
C861 C 0.55989 0.10865 0.01998 0.0
C862 C 0.59636 0.13603 0.03956 0.0
C863 C 0.59648 0.15743 0.03321 0.0
C864 C 0.57779 0.15422 0.02051 0.0
H865 H 0.69886 0.31187 0.07283 0.0
H866 H 0.66106 0.26985 0.06602 0.0
C867 C 0.55968 0.13009 0.01395 0.0
C868 C 0.61757 0.18325 0.03858 0.0
H869 H 0.64874 0.2214 0.07413 0.0
C870 C 0.63331 0.19989 0.02547 0.0
C871 C 0.62273 0.19134 0.05633 0.0
C872 C 0.60555 0.17497 0.07093 0.0
C873 C 0.65446 0.22412 0.02961 0.0
C874 C 0.6605 0.23168 0.0474 0.0
C875 C 0.64432 0.21539 0.06051 0.0
C876 C 0.68358 0.25646 0.05255 0.0
C877 C 0.66997 0.24145 0.01485 0.0
C878 C 0.70885 0.26257 0.04768 0.0
C879 C 0.73043 0.28657 0.05143 0.0
C880 C 0.72719 0.30482 0.06033 0.0
C881 C 0.70201 0.29826 0.0659 0.0
C882 C 0.68038 0.27427 0.06203 0.0
H883 H 0.65845 0.23588 0.00239 0.0
H884 H 0.67625 0.26144 0.01799 0.0
H885 H 0.68775 0.2403 0.01269 0.0
H886 H 0.71184 0.24887 0.04075 0.0
H887 H 0.74959 0.29091 0.04713 0.0
H888 H 0.5729 0.65858 0.21001 0.0
H889 H 0.55757 0.68499 0.22319 0.0
H890 H 0.49814 0.6608 0.18275 0.0
H891 H 0.5133 0.63442 0.16953 0.0
H892 H 0.55466 0.72469 0.20906 0.0
H893 H 0.45596 0.64676 0.22736 0.0
H894 H 0.48189 0.64133 0.22112 0.0
H895 H 0.46289 0.64576 0.20463 0.0
C896 C 0.5566 0.65894 0.20392 0.0
C897 C 0.54417 0.64425 0.1888 0.0
C898 C 0.54782 0.67396 0.21149 0.0
C899 C 0.52642 0.67449 0.20413 0.0
C900 C 0.51424 0.66015 0.18891 0.0
H901 H 0.47898 0.7843 0.21349 0.0
H902 H 0.49931 0.75983 0.20572 0.0
C903 C 0.52294 0.64509 0.18137 0.0
C904 C 0.51717 0.69052 0.21204 0.0
H905 H 0.46265 0.68851 0.22784 0.0
C906 C 0.53462 0.71678 0.21333 0.0
C907 C 0.49115 0.68012 0.21789 0.0
C908 C 0.47196 0.65192 0.21786 0.0
C909 C 0.52645 0.73304 0.21971 0.0
C910 C 0.50001 0.72277 0.22461 0.0
C911 C 0.48285 0.69641 0.22392 0.0
C912 C 0.48941 0.73895 0.22993 0.0
C913 C 0.54623 0.76104 0.22117 0.0
C914 C 0.47675 0.73513 0.24604 0.0
C915 C 0.46483 0.74892 0.25045 0.0
C916 C 0.46527 0.76672 0.2388 0.0
C917 C 0.47841 0.77085 0.22282 0.0
C918 C 0.49021 0.75698 0.21839 0.0
H919 H 0.56655 0.76475 0.22228 0.0
H920 H 0.54502 0.77055 0.20921 0.0
H921 H 0.54237 0.76969 0.2327 0.0
H922 H 0.47578 0.72121 0.2551 0.0
H923 H 0.45488 0.74527 0.26286 0.0
H924 H 0.91362 0.43551 0.36317 0.0
H925 H 0.8732 0.42765 0.37724 0.0
H926 H 0.86786 0.47843 0.34112 0.0
H927 H 0.90753 0.4857 0.32671 0.0
H928 H 0.8646 0.46248 0.39379 0.0
H929 H 0.79416 0.41708 0.33875 0.0
H930 H 0.82621 0.42057 0.33886 0.0
H931 H 0.82224 0.44652 0.33245 0.0
C932 C 0.90353 0.44461 0.35804 0.0
C933 C 0.9138 0.46126 0.34383 0.0
C934 C 0.88055 0.44022 0.36614 0.0
C935 C 0.86732 0.45217 0.36007 0.0
C936 C 0.87742 0.46859 0.34581 0.0
H937 H 0.77434 0.50285 0.40701 0.0
H938 H 0.80844 0.49448 0.39818 0.0
C939 C 0.90032 0.47299 0.33772 0.0
C940 C 0.84384 0.44886 0.36915 0.0
H941 H 0.78156 0.43595 0.3615 0.0
C942 C 0.84626 0.45625 0.38683 0.0
C943 C 0.81977 0.44027 0.36018 0.0
C944 C 0.81532 0.4304 0.34156 0.0
C945 C 0.82579 0.4568 0.39545 0.0
C946 C 0.80252 0.45022 0.38603 0.0
C947 C 0.79951 0.4413 0.36868 0.0
C948 C 0.78198 0.45439 0.39332 0.0
C949 C 0.82947 0.46477 0.41449 0.0
C950 C 0.75564 0.43468 0.39342 0.0
C951 C 0.73596 0.43946 0.39832 0.0
C952 C 0.74227 0.46412 0.40308 0.0
C953 C 0.76876 0.48362 0.4035 0.0
C954 C 0.78836 0.47883 0.39857 0.0
H955 H 0.84337 0.46048 0.42118 0.0
H956 H 0.83783 0.48554 0.4154 0.0
H957 H 0.81057 0.45519 0.42153 0.0
H958 H 0.75026 0.41571 0.3893 0.0
H959 H 0.71576 0.42401 0.39781 0.0
H960 H 0.09982 0.56769 0.37918 0.0
H961 H 0.12088 0.58392 0.40775 0.0
H962 H 0.05187 0.52541 0.43321 0.0
H963 H 0.03078 0.50879 0.40452 0.0
H964 H 0.10703 0.60274 0.43458 0.0
H965 H 0.10905 0.51787 0.45609 0.0
H966 H 0.10133 0.5217 0.43384 0.0
H967 H 0.07681 0.51144 0.45049 0.0
C968 C 0.08904 0.5584 0.39088 0.0
C969 C 0.0636 0.53705 0.38966 0.0
C970 C 0.10116 0.5676 0.40718 0.0
C971 C 0.08812 0.55567 0.42261 0.0
C972 C 0.06254 0.53454 0.42146 0.0
H973 H 0.13367 0.62659 0.52558 0.0
H974 H 0.11151 0.60758 0.49778 0.0
C975 C 0.05046 0.52516 0.4051 0.0
C976 C 0.10123 0.56588 0.43984 0.0
H977 H 0.12142 0.55064 0.47736 0.0
C978 C 0.11022 0.59136 0.44392 0.0
C979 C 0.10576 0.55112 0.45188 0.0
C980 C 0.09798 0.52409 0.44782 0.0
C981 C 0.12337 0.60243 0.45977 0.0
C982 C 0.12702 0.58742 0.4721 0.0
C983 C 0.11835 0.56203 0.46795 0.0
C984 C 0.13989 0.59783 0.48935 0.0
C985 C 0.1337 0.63025 0.46296 0.0
C986 C 0.16267 0.59775 0.49418 0.0
C987 C 0.17527 0.60835 0.51022 0.0
C988 C 0.16529 0.61923 0.52169 0.0
C989 C 0.1421 0.61868 0.51697 0.0
C990 C 0.12944 0.60792 0.50103 0.0
H991 H 0.1361 0.64042 0.45051 0.0
H992 H 0.11958 0.6324 0.47111 0.0
H993 H 0.15288 0.63946 0.47 0.0
H994 H 0.17096 0.58989 0.4854 0.0
H995 H 0.19305 0.6084 0.51349 0.0
H996 H 0.53654 0.07351 0.56323 0.0
H997 H 0.54832 0.09157 0.59274 0.0
H998 H 0.46654 0.05955 0.60453 0.0
H999 H 0.45446 0.0405 0.57517 0.0
H1000 H 0.53714 0.12668 0.60484 0.0
H1001 H 0.49422 0.04372 0.64863 0.0
H1002 H 0.49899 0.04121 0.62553 0.0
H1003 H 0.47126 0.0429 0.63285 0.0
C1004 C 0.52097 0.06956 0.57225 0.0
C1005 C 0.49451 0.05545 0.56684 0.0
C1006 C 0.52778 0.08009 0.58909 0.0
C1007 C 0.50833 0.0767 0.60088 0.0
C1008 C 0.48186 0.06199 0.59575 0.0
H1009 H 0.49974 0.14634 0.69589 0.0
H1010 H 0.49234 0.12006 0.66991 0.0
C1011 C 0.475 0.05137 0.5789 0.0
C1012 C 0.51584 0.09077 0.61779 0.0
H1013 H 0.50733 0.08388 0.66201 0.0
C1014 C 0.53093 0.11732 0.61736 0.0
C1015 C 0.50761 0.07848 0.63408 0.0
C1016 C 0.49233 0.05 0.63537 0.0
C1017 C 0.53729 0.132 0.63274 0.0
C1018 C 0.52865 0.11975 0.649 0.0
C1019 C 0.51394 0.09318 0.64949 0.0
C1020 C 0.53345 0.13433 0.6655 0.0
C1021 C 0.55232 0.16051 0.63138 0.0
C1022 C 0.55905 0.15067 0.67182 0.0
C1023 C 0.56341 0.16585 0.68667 0.0
C1024 C 0.5422 0.16483 0.69546 0.0
C1025 C 0.51655 0.14774 0.68939 0.0
C1026 C 0.51224 0.13262 0.67458 0.0
H1027 H 0.55272 0.1668 0.61772 0.0
H1028 H 0.54361 0.16891 0.63988 0.0
H1029 H 0.57285 0.16808 0.63583 0.0
H1030 H 0.57566 0.15195 0.66512 0.0
H1031 H 0.58339 0.17865 0.69107 0.0
H1032 H 0.44465 0.57227 0.71132 0.0
H1033 H 0.44508 0.58776 0.74083 0.0
H1034 H 0.52917 0.63631 0.73901 0.0
H1035 H 0.52912 0.61962 0.70998 0.0
H1036 H 0.51651 0.60996 0.76721 0.0
H1037 H 0.45266 0.6501 0.76247 0.0
H1038 H 0.43578 0.61848 0.75369 0.0
H1039 H 0.46509 0.64266 0.74329 0.0
C1040 C 0.46324 0.58642 0.71711 0.0
C1041 C 0.48685 0.59452 0.70826 0.0
C1042 C 0.46341 0.59561 0.73391 0.0
C1043 C 0.48713 0.61351 0.74209 0.0
C1044 C 0.5106 0.62264 0.73293 0.0
H1045 H 0.46847 0.65243 0.84994 0.0
H1046 H 0.48353 0.65871 0.81961 0.0
C1047 C 0.51049 0.61321 0.71621 0.0
C1048 C 0.48765 0.62006 0.76089 0.0
H1049 H 0.45538 0.63446 0.79124 0.0
C1050 C 0.50355 0.61587 0.7724 0.0
C1051 C 0.47123 0.62831 0.76775 0.0
C1052 C 0.45549 0.63542 0.75609 0.0
C1053 C 0.5021 0.61798 0.7906 0.0
C1054 C 0.48367 0.62363 0.79748 0.0
C1055 C 0.46917 0.62964 0.78598 0.0
C1056 C 0.47732 0.62104 0.81637 0.0
C1057 C 0.52001 0.61363 0.80222 0.0
C1058 C 0.46897 0.59785 0.82463 0.0
C1059 C 0.4606 0.59428 0.84194 0.0
C1060 C 0.45995 0.6137 0.85129 0.0
C1061 C 0.46877 0.63711 0.84311 0.0
C1062 C 0.47734 0.64072 0.82578 0.0
H1063 H 0.53871 0.61918 0.79555 0.0
H1064 H 0.52455 0.62447 0.81474 0.0
H1065 H 0.51038 0.59316 0.80521 0.0
H1066 H 0.46803 0.58213 0.8175 0.0
H1067 H 0.45376 0.57595 0.84776 0.0
H1068 H 0.93649 0.42948 0.87709 0.0
H1069 H 0.91518 0.42191 0.90536 0.0
H1070 H 0.86155 0.344 0.89052 0.0
H1071 H 0.88268 0.35152 0.86184 0.0
H1072 H 0.86015 0.40309 0.91184 0.0
H1073 H 0.89521 0.34136 0.93839 0.0
H1074 H 0.91054 0.36176 0.91993 0.0
H1075 H 0.87913 0.33338 0.91725 0.0
C1076 C 0.91984 0.41083 0.87964 0.0
C1077 C 0.91103 0.39118 0.8671 0.0
C1078 C 0.90784 0.40649 0.89588 0.0
C1079 C 0.88692 0.3824 0.90003 0.0
C1080 C 0.87788 0.36267 0.88759 0.0
H1081 H 0.81354 0.34916 0.00425 0.0
H1082 H 0.82211 0.3429 0.97377 0.0
C1083 C 0.88991 0.36701 0.87124 0.0
C1084 C 0.8749 0.37843 0.91749 0.0
H1085 H 0.87288 0.35349 0.9577 0.0
C1086 C 0.86256 0.39193 0.9218 0.0
C1087 C 0.87802 0.36378 0.9304 0.0
C1088 C 0.89154 0.34928 0.92641 0.0
C1089 C 0.85416 0.39198 0.93889 0.0
C1090 C 0.85858 0.37848 0.95203 0.0
C1091 C 0.86964 0.36387 0.94755 0.0
C1092 C 0.85412 0.38143 0.97069 0.0
C1093 C 0.84129 0.40708 0.9429 0.0
C1094 C 0.86975 0.40495 0.97908 0.0
C1095 C 0.86504 0.40858 -0.0036 0.0
C1096 C 0.84455 0.38872 0.00572 0.0
C1097 C 0.82941 0.36487 -0.00257 0.0
C1098 C 0.83425 0.36124 0.98005 0.0
H1099 H 0.83324 0.4108 0.93087 0.0
H1100 H 0.82521 0.39703 0.95242 0.0
H1101 H 0.85605 0.4256 0.94881 0.0
H1102 H 0.88543 0.42065 0.97211 0.0
H1103 H 0.87719 0.42714 0.00236 0.0
H1104 H 0.52191 0.9937 0.07251 0.0
H1105 H 0.5169 0.97596 0.10194 0.0
H1106 H 0.43938 0.91482 0.08755 0.0
H1107 H 0.44394 0.93318 0.05858 0.0
H1108 H 0.43838 0.93209 0.11828 0.0
H1109 H 0.52254 0.91703 0.11687 0.0
H1110 H 0.53198 0.94948 0.11374 0.0
H1111 H 0.51133 0.92584 0.09769 0.0
C1112 C 0.50386 0.9765 0.07575 0.0
C1113 C 0.48324 0.96482 0.06344 0.0
C1114 C 0.50108 0.96624 0.09246 0.0
C1115 C 0.47795 0.94377 0.09687 0.0
C1116 C 0.45741 0.93215 0.08447 0.0
H1117 H 0.44975 0.84073 0.18151 0.0
H1118 H 0.46289 0.86491 0.15433 0.0
C1119 C 0.45998 0.94265 0.06796 0.0
C1120 C 0.47446 0.93257 0.11452 0.0
H1121 H 0.50057 0.90974 0.14396 0.0
C1122 C 0.45199 0.92718 0.12387 0.0
C1123 C 0.49206 0.92588 0.12174 0.0
C1124 C 0.51568 0.92961 0.11193 0.0
C1125 C 0.44633 0.91497 0.14005 0.0
C1126 C 0.46433 0.90901 0.14755 0.0
C1127 C 0.48697 0.9146 0.13831 0.0
C1128 C 0.45925 0.89585 0.16457 0.0
C1129 C 0.42055 0.90768 0.1485 0.0
C1130 C 0.45385 0.90565 0.17954 0.0
C1131 C 0.44573 0.89159 0.19489 0.0
C1132 C 0.44375 0.86788 0.19573 0.0
C1133 C 0.45108 0.85895 0.18119 0.0
C1134 C 0.45859 0.87275 0.16567 0.0
H1135 H 0.40604 0.90669 0.13879 0.0
H1136 H 0.41197 0.88904 0.155 0.0
H1137 H 0.42379 0.92222 0.1585 0.0
H1138 H 0.45516 0.92385 0.17922 0.0
H1139 H 0.4406 0.8991 0.20603 0.0
H1140 H 0.63604 0.54956 0.2236 0.0
H1141 H 0.64367 0.53409 0.25104 0.0
H1142 H 0.59009 0.55069 0.27724 0.0
H1143 H 0.58176 0.56551 0.24949 0.0
H1144 H 0.66438 0.55885 0.28062 0.0
H1145 H 0.56366 0.47948 0.29318 0.0
H1146 H 0.57298 0.49561 0.27249 0.0
H1147 H 0.56551 0.50933 0.29077 0.0
C1148 C 0.62597 0.54999 0.23525 0.0
C1149 C 0.60852 0.55893 0.23455 0.0
C1150 C 0.63022 0.54103 0.25088 0.0
C1151 C 0.61721 0.54093 0.26615 0.0
C1152 C 0.59985 0.55001 0.26552 0.0
H1153 H 0.67399 0.53547 0.36968 0.0
H1154 H 0.66089 0.5472 0.34272 0.0
C1155 C 0.59529 0.55867 0.24976 0.0
C1156 C 0.62293 0.53237 0.28281 0.0
H1157 H 0.59492 0.49084 0.31641 0.0
C1158 C 0.64918 0.5439 0.2884 0.0
C1159 C 0.60313 0.51259 0.29281 0.0
C1160 C 0.57478 0.49835 0.28694 0.0
C1161 C 0.6562 0.5364 0.30376 0.0
C1162 C 0.63632 0.51741 0.31417 0.0
C1163 C 0.61008 0.5056 0.30851 0.0
C1164 C 0.64251 0.5097 0.331 0.0
C1165 C 0.68493 0.54857 0.30845 0.0
C1166 C 0.63543 0.48443 0.33371 0.0
C1167 C 0.64254 0.47752 0.3493 0.0
C1168 C 0.65696 0.49586 0.36234 0.0
C1169 C 0.66329 0.52098 0.35976 0.0
C1170 C 0.65591 0.52775 0.34433 0.0
H1171 H 0.69746 0.55659 0.29675 0.0
H1172 H 0.69047 0.56434 0.31791 0.0
H1173 H 0.68923 0.53476 0.31456 0.0
H1174 H 0.62491 0.47016 0.32362 0.0
H1175 H 0.63728 0.45801 0.35095 0.0
H1176 H 0.49897 0.93862 0.42659 0.0
H1177 H 0.4976 0.91214 0.40189 0.0
H1178 H 0.43873 0.92201 0.37625 0.0
H1179 H 0.44018 0.94869 0.4006 0.0
H1180 H 0.43922 0.86509 0.38296 0.0
H1181 H 0.51467 0.9474 0.3454 0.0
H1182 H 0.51531 0.94657 0.36907 0.0
H1183 H 0.4916 0.95148 0.35806 0.0
C1184 C 0.48566 0.93504 0.41571 0.0
C1185 C 0.46964 0.9457 0.41555 0.0
C1186 C 0.48486 0.91988 0.4017 0.0
C1187 C 0.46812 0.91529 0.38734 0.0
C1188 C 0.45172 0.92537 0.3873 0.0
H1189 H 0.39837 0.84117 0.29556 0.0
H1190 H 0.41243 0.85704 0.32531 0.0
C1191 C 0.45244 0.94044 0.40127 0.0
C1192 C 0.46805 0.90069 0.37195 0.0
H1193 H 0.48865 0.90885 0.32968 0.0
C1194 C 0.45046 0.87447 0.37141 0.0
C1195 C 0.48297 0.91305 0.35706 0.0
C1196 C 0.50236 0.94118 0.3573 0.0
C1197 C 0.44609 0.86051 0.35585 0.0
C1198 C 0.45941 0.87326 0.34052 0.0
C1199 C 0.47848 0.89914 0.34146 0.0
C1200 C 0.45068 0.86125 0.32301 0.0
C1201 C 0.42639 0.83246 0.35571 0.0
C1202 C 0.46768 0.85855 0.31177 0.0
C1203 C 0.45962 0.84932 0.29462 0.0
C1204 C 0.4347 0.84327 0.28844 0.0
C1205 C 0.41774 0.84578 0.29987 0.0
C1206 C 0.42564 0.85462 0.31695 0.0
H1207 H 0.42439 0.82431 0.36895 0.0
H1208 H 0.40694 0.82922 0.35163 0.0
H1209 H 0.43201 0.82224 0.34633 0.0
H1210 H 0.48723 0.86389 0.3162 0.0
H1211 H 0.47311 0.84764 0.28608 0.0
H1212 H 0.49565 0.49901 0.53937 0.0
H1213 H 0.51567 0.48825 0.51537 0.0
H1214 H 0.59176 0.53422 0.5397 0.0
H1215 H 0.57213 0.54457 0.56379 0.0
H1216 H 0.57763 0.53641 0.49704 0.0
H1217 H 0.55942 0.44691 0.52779 0.0
H1218 H 0.53518 0.45623 0.52863 0.0
H1219 H 0.5649 0.47353 0.54119 0.0
C1220 C 0.51666 0.50698 0.53951 0.0
C1221 C 0.53231 0.52289 0.55339 0.0
C1222 C 0.52802 0.50084 0.52582 0.0
C1223 C 0.5551 0.51049 0.52588 0.0
C1224 C 0.57082 0.52676 0.53945 0.0
H1225 H 0.67626 0.51941 0.46152 0.0
H1226 H 0.64898 0.52463 0.48284 0.0
C1227 C 0.55955 0.53285 0.5531 0.0
C1228 C 0.56733 0.50326 0.51212 0.0
H1229 H 0.58597 0.46056 0.50276 0.0
C1230 C 0.57924 0.5197 0.49811 0.0
C1231 C 0.56918 0.48139 0.51365 0.0
C1232 C 0.55652 0.46333 0.52859 0.0
C1233 C 0.5936 0.51511 0.4857 0.0
C1234 C 0.59661 0.49388 0.48769 0.0
C1235 C 0.58383 0.47693 0.50137 0.0
C1236 C 0.61355 0.48943 0.47593 0.0
C1237 C 0.60545 0.53307 0.47059 0.0
C1238 C 0.60299 0.46722 0.46571 0.0
C1239 C 0.61863 0.464 0.45364 0.0
C1240 C 0.6451 0.48297 0.45163 0.0
C1241 C 0.65591 0.50455 0.4626 0.0
C1242 C 0.64029 0.50767 0.4747 0.0
H1243 H 0.59512 0.54352 0.4681 0.0
H1244 H 0.62624 0.54722 0.47377 0.0
H1245 H 0.60483 0.52281 0.4584 0.0
H1246 H 0.58244 0.45279 0.46663 0.0
H1247 H 0.6097 0.44713 0.44542 0.0
H1248 H 0.01515 0.47666 0.70675 0.0
H1249 H 0.04219 0.5049 0.6833 0.0
H1250 H 0.10924 0.50346 0.70358 0.0
H1251 H 0.08248 0.47548 0.72708 0.0
H1252 H 0.1166 0.55344 0.69764 0.0
H1253 H 0.07429 0.48854 0.63994 0.0
H1254 H 0.05115 0.48969 0.65437 0.0
H1255 H 0.07073 0.47717 0.6621 0.0
C1256 C 0.03557 0.48213 0.70605 0.0
C1257 C 0.04663 0.47365 0.71862 0.0
C1258 C 0.05095 0.49815 0.69264 0.0
C1259 C 0.07763 0.50605 0.69165 0.0
C1260 C 0.08864 0.4974 0.70406 0.0
H1261 H 0.18641 0.58972 0.60837 0.0
H1262 H 0.16224 0.56021 0.63189 0.0
C1263 C 0.07327 0.48125 0.71737 0.0
C1264 C 0.09441 0.52439 0.67825 0.0
H1265 H 0.10468 0.53177 0.63421 0.0
C1266 C 0.11408 0.54872 0.68377 0.0
C1267 C 0.09115 0.51804 0.66022 0.0
C1268 C 0.07084 0.49189 0.65372 0.0
C1269 C 0.1303 0.56708 0.67165 0.0
C1270 C 0.12664 0.56091 0.65359 0.0
C1271 C 0.10731 0.53643 0.64809 0.0
C1272 C 0.14247 0.57971 0.64014 0.0
C1273 C 0.15133 0.59289 0.67821 0.0
C1274 C 0.13944 0.60051 0.6371 0.0
C1275 C 0.15312 0.61737 0.62363 0.0
C1276 C 0.17013 0.61373 0.61297 0.0
C1277 C 0.17357 0.59316 0.61636 0.0
C1278 C 0.15972 0.57622 0.62975 0.0
H1279 H 0.15511 0.593 0.6925 0.0
H1280 H 0.16993 0.59934 0.67114 0.0
H1281 H 0.14505 0.60674 0.67572 0.0
H1282 H 0.126 0.60336 0.64488 0.0
H1283 H 0.14997 0.63296 0.62137 0.0
H1284 H 0.56058 0.08625 0.90884 0.0
H1285 H 0.5728 0.11196 0.88253 0.0
H1286 H 0.52584 0.14317 0.89883 0.0
H1287 H 0.51413 0.11805 0.92555 0.0
H1288 H 0.53538 0.10545 0.85815 0.0
H1289 H 0.59259 0.20561 0.88089 0.0
H1290 H 0.58761 0.17953 0.8944 0.0
H1291 H 0.56214 0.18685 0.89206 0.0
C1292 C 0.55356 0.09923 0.90717 0.0
C1293 C 0.5364 0.10014 0.91931 0.0
C1294 C 0.56044 0.11378 0.89205 0.0
C1295 C 0.5504 0.1296 0.88881 0.0
C1296 C 0.53417 0.13141 0.90123 0.0
H1297 H 0.51418 0.17255 0.79121 0.0
H1298 H 0.51511 0.15697 0.82036 0.0
C1299 C 0.52728 0.11685 0.91639 0.0
C1300 C 0.55423 0.14164 0.87151 0.0
H1301 H 0.57624 0.19832 0.85133 0.0
C1302 C 0.54458 0.12578 0.85665 0.0
C1303 C 0.56634 0.16816 0.8696 0.0
C1304 C 0.578 0.18609 0.88506 0.0
C1305 C 0.54598 0.13565 0.83996 0.0
C1306 C 0.55709 0.16203 0.83813 0.0
C1307 C 0.56754 0.17805 0.85287 0.0
C1308 C 0.55708 0.17302 0.82101 0.0
C1309 C 0.53537 0.11778 0.82438 0.0
C1310 C 0.58051 0.18762 0.81194 0.0
C1311 C 0.58008 0.19652 0.79521 0.0
C1312 C 0.5562 0.19107 0.78738 0.0
C1313 C 0.53289 0.17701 0.79679 0.0
C1314 C 0.53335 0.16807 0.81345 0.0
H1315 H 0.53268 0.09896 0.82741 0.0
H1316 H 0.51604 0.11496 0.82045 0.0
H1317 H 0.54868 0.12583 0.81305 0.0
H1318 H 0.599 0.19161 0.81765 0.0
H1319 H 0.59839 0.20738 0.78834 0.0
H1320 H 0.54542 0.65097 0.08939 0.0
H1321 H 0.53003 0.65906 0.0616 0.0
H1322 H 0.49372 0.58 0.04746 0.0
H1323 H 0.50935 0.57187 0.0747 0.0
H1324 H 0.5419 0.64853 0.02712 0.0
H1325 H 0.43516 0.59612 0.03913 0.0
H1326 H 0.45926 0.60657 0.05664 0.0
H1327 H 0.45013 0.57802 0.04445 0.0
C1328 C 0.53401 0.63532 0.08039 0.0
C1329 C 0.52829 0.61071 0.08439 0.0
C1330 C 0.52519 0.63996 0.06458 0.0
C1331 C 0.51035 0.62002 0.05269 0.0
C1332 C 0.50456 0.59551 0.0567 0.0
H1333 H 0.45582 0.57668 0.95018 0.0
H1334 H 0.47247 0.58421 0.9803 0.0
C1335 C 0.51342 0.59089 0.07235 0.0
C1336 C 0.50208 0.62458 0.03549 0.0
H1337 H 0.4482 0.60218 0.00885 0.0
C1338 C 0.52141 0.63898 0.02319 0.0
C1339 C 0.47533 0.61211 0.03049 0.0
C1340 C 0.45376 0.59754 0.04343 0.0
C1341 C 0.51466 0.6397 0.00562 0.0
C1342 C 0.48802 0.62575 0.00042 0.0
C1343 C 0.46864 0.61266 0.01294 0.0
C1344 C 0.47993 0.62245 0.98183 0.0
C1345 C 0.53598 0.65404 -0.00751 0.0
C1346 C 0.47895 0.64166 0.97276 0.0
C1347 C 0.46936 0.63743 0.95552 0.0
C1348 C 0.46062 0.6139 0.94714 0.0
C1349 C 0.46236 0.59499 0.95621 0.0
C1350 C 0.47183 0.59922 0.97342 0.0
H1351 H 0.55586 0.66331 -0.00143 0.0
H1352 H 0.53468 0.64092 0.98193 0.0
H1353 H 0.53322 0.66879 -0.0137 0.0
H1354 H 0.48503 0.65966 0.97915 0.0
H1355 H 0.46829 0.65238 0.9489 0.0
H1356 H 0.96003 0.41659 0.22921 0.0
H1357 H 0.93757 0.40392 0.2008 0.0
H1358 H 0.8751 0.41249 0.22115 0.0
H1359 H 0.8977 0.42548 0.24971 0.0
H1360 H 0.88822 0.36598 0.1889 0.0
H1361 H 0.90277 0.46206 0.18057 0.0
H1362 H 0.91868 0.4549 0.19786 0.0
H1363 H 0.88479 0.4456 0.19966 0.0
C1364 C 0.94119 0.41519 0.22778 0.0
C1365 C 0.93059 0.42203 0.24169 0.0
C1366 C 0.92843 0.40804 0.21151 0.0
C1367 C 0.90487 0.40761 0.2088 0.0
C1368 C 0.89352 0.41314 0.22289 0.0
H1369 H 0.81586 0.35979 0.10939 0.0
H1370 H 0.82948 0.36017 0.13982 0.0
C1371 C 0.90639 0.42049 0.23918 0.0
C1372 C 0.89344 0.40322 0.19089 0.0
H1373 H 0.88094 0.43256 0.15772 0.0
C1374 C 0.88643 0.38043 0.18209 0.0
C1375 C 0.89152 0.42229 0.18197 0.0
C1376 C 0.90003 0.44769 0.1904 0.0
C1377 C 0.8778 0.37631 0.16452 0.0
C1378 C 0.87583 0.39538 0.15566 0.0
C1379 C 0.88243 0.41796 0.16457 0.0
C1380 C 0.86825 0.39312 0.13689 0.0
C1381 C 0.87177 0.35204 0.15542 0.0
C1382 C 0.88555 0.4114 0.12513 0.0
C1383 C 0.87776 0.41139 0.10785 0.0
C1384 C 0.85248 0.39306 0.10193 0.0
C1385 C 0.83553 0.37407 0.11351 0.0
C1386 C 0.84331 0.3742 0.1309 0.0
H1387 H 0.87998 0.34206 0.16271 0.0
H1388 H 0.85021 0.3392 0.15442 0.0
H1389 H 0.87971 0.3558 0.14194 0.0
H1390 H 0.90491 0.42613 0.12947 0.0
H1391 H 0.89135 0.42621 0.09926 0.0
loop_
_geom_bond_atom_site_label_1
_geom_bond_atom_site_label_2
_geom_bond_distance
_geom_bond_site_symmetry_2
_ccdc_geom_bond_type
H0 O26 0.856 . S
H1 O29 0.854 . S
H2 C37 0.930 1_455 S
H3 C38 0.930 . S
H4 C40 0.930 . S
H5 C41 0.930 . S
H6 C43 0.931 . S
H7 C44 0.930 . S
H8 C46 0.930 . S
H9 C47 0.929 . S
H10 C49 0.930 . S
H11 C50 0.931 . S
H12 C52 0.930 . S
H13 C53 0.929 . S
H14 C55 0.931 . S
H15 C56 0.930 . S
H16 C58 0.930 . S
H17 C59 0.932 . S
H18 C61 0.930 . S
H19 C62 0.929 . S
H20 C64 0.931 . S
H21 C65 0.930 . S
H22 C67 0.929 . S
H23 C68 0.931 . S
H24 C70 0.930 . S
H25 C71 0.923 1_455 S
O26 H0 0.856 . S
O26 C72 1.300 . S
O27 C72 1.209 . S
O28 C73 1.199 . S
O29 H1 0.854 . S
O29 C73 1.297 . S
C30 C31 1.404 . S
C30 C35 1.397 . S
C30 C36 1.492 . S
C31 C30 1.404 . S
C31 C32 1.396 . S
C31 C42 1.492 . S
C32 C31 1.396 . S
C32 C33 1.397 . S
C32 C48 1.509 . S
C33 C32 1.397 . S
C33 C34 1.412 . S
C33 C54 1.485 . S
C34 C33 1.412 . S
C34 C35 1.388 . S
C34 C60 1.490 . S
C35 C30 1.397 . S
C35 C34 1.388 . S
C35 C66 1.519 1_455 S
C36 C30 1.492 . S
C36 C37 1.363 1_455 S
C36 C41 1.390 1_455 S
C37 H2 0.930 1_655 S
C37 C36 1.363 1_655 S
C37 C38 1.372 . S
C38 H3 0.930 . S
C38 C37 1.372 . S
C38 C39 1.383 . S
C39 C38 1.383 . S
C39 C40 1.395 . S
C40 H4 0.930 . S
C40 C39 1.395 . S
C40 C41 1.362 . S
C41 H5 0.930 . S
C41 C36 1.390 1_655 S
C41 C40 1.362 . S
C42 C31 1.492 . S
C42 C43 1.377 . S
C42 C47 1.397 . S
C43 H6 0.931 . S
C43 C42 1.377 . S
C43 C44 1.376 . S
C44 H7 0.930 . S
C44 C43 1.376 . S
C44 C45 1.376 . S
C45 C44 1.376 . S
C45 C46 1.378 . S
C45 C72 1.486 . S
C46 H8 0.930 . S
C46 C45 1.378 . S
C46 C47 1.376 . S
C47 H9 0.929 . S
C47 C42 1.397 . S
C47 C46 1.376 . S
C48 C32 1.509 . S
C48 C49 1.391 . S
C48 C53 1.386 . S
C49 H10 0.930 . S
C49 C48 1.391 . S
C49 C50 1.375 . S
C50 H11 0.931 . S
C50 C49 1.375 . S
C50 C51 1.375 . S
C51 C50 1.375 . S
C51 C52 1.361 . S
C52 H12 0.930 . S
C52 C51 1.361 . S
C52 C53 1.399 . S
C53 H13 0.929 . S
C53 C48 1.386 . S
C53 C52 1.399 . S
C54 C33 1.485 . S
C54 C55 1.394 . S
C54 C59 1.360 . S
C55 H14 0.931 . S
C55 C54 1.394 . S
C55 C56 1.372 . S
C56 H15 0.930 . S
C56 C55 1.372 . S
C56 C57 1.397 . S
C57 C56 1.397 . S
C57 C58 1.390 . S
C57 C73 1.476 . S
C58 H16 0.930 . S
C58 C57 1.390 . S
C58 C59 1.366 . S
C59 H17 0.932 . S
C59 C54 1.360 . S
C59 C58 1.366 . S
C60 C34 1.490 . S
C60 C61 1.380 . S
C60 C65 1.386 . S
C61 H18 0.930 . S
C61 C60 1.380 . S
C61 C62 1.381 . S
C62 H19 0.929 . S
C62 C61 1.381 . S
C62 C63 1.371 . S
C63 C62 1.371 . S
C63 C64 1.380 . S
C64 H20 0.931 . S
C64 C63 1.380 . S
C64 C65 1.387 . S
C65 H21 0.930 . S
C65 C60 1.386 . S
C65 C64 1.387 . S
C66 C35 1.519 1_655 S
C66 C67 1.377 . S
C66 C71 1.361 . S
C67 H22 0.929 . S
C67 C66 1.377 . S
C67 C68 1.386 . S
C68 H23 0.931 . S
C68 C67 1.386 . S
C68 C69 1.363 . S
C69 C68 1.363 . S
C69 C70 1.385 . S
C70 H24 0.930 . S
C70 C69 1.385 . S
C70 C71 1.396 . S
C71 H25 0.923 1_655 S
C71 C66 1.361 . S
C71 C70 1.396 . S
C72 O26 1.300 . S
C72 O27 1.209 . S
C72 C45 1.486 . S
C73 O28 1.199 . S
C73 O29 1.297 . S
C73 C57 1.476 . S
H74 O100 0.856 . S
H75 O103 0.854 . S
H76 C111 0.930 . S
H77 C112 0.930 . S
H78 C114 0.930 . S
H79 C115 0.930 . S
H80 C117 0.931 . S
H81 C118 0.930 . S
H82 C120 0.930 . S
H83 C121 0.929 . S
H84 C123 0.930 . S
H85 C124 0.931 . S
H86 C126 0.930 . S
H87 C127 0.929 . S
H88 C129 0.931 . S
H89 C130 0.930 . S
H90 C132 0.930 . S
H91 C133 0.932 . S
H92 C135 0.930 . S
H93 C136 0.929 . S
H94 C138 0.931 . S
H95 C139 0.930 . S
H96 C141 0.929 . S
H97 C142 0.931 . S
H98 C144 0.930 . S
H99 C145 0.929 1_545 S
O100 H74 0.856 . S
O100 C146 1.300 . S
O101 C146 1.209 . S
O102 C147 1.199 . S
O103 H75 0.854 . S
O103 C147 1.297 . S
C104 C105 1.404 . S
C104 C109 1.397 . S
C104 C110 1.492 . S
C105 C104 1.404 . S
C105 C106 1.396 . S
C105 C116 1.492 . S
C106 C105 1.396 . S
C106 C107 1.397 . S
C106 C122 1.509 . S
C107 C106 1.397 . S
C107 C108 1.412 . S
C107 C128 1.485 . S
C108 C107 1.412 . S
C108 C109 1.388 . S
C108 C134 1.490 . S
C109 C104 1.397 . S
C109 C108 1.388 . S
C109 C140 1.519 . S
C110 C104 1.492 . S
C110 C111 1.363 . S
C110 C115 1.390 1_545 S
C111 H76 0.930 . S
C111 C110 1.363 . S
C111 C112 1.372 1_545 S
C112 H77 0.930 . S
C112 C111 1.372 1_565 S
C112 C113 1.383 . S
C113 C112 1.383 . S
C113 C114 1.395 . S
C114 H78 0.930 . S
C114 C113 1.395 . S
C114 C115 1.362 . S
C115 H79 0.930 . S
C115 C110 1.390 1_565 S
C115 C114 1.362 . S
C116 C105 1.492 . S
C116 C117 1.377 . S
C116 C121 1.397 . S
C117 H80 0.931 . S
C117 C116 1.377 . S
C117 C118 1.376 . S
C118 H81 0.930 . S
C118 C117 1.376 . S
C118 C119 1.376 . S
C119 C118 1.376 . S
C119 C120 1.378 . S
C119 C146 1.486 . S
C120 H82 0.930 . S
C120 C119 1.378 . S
C120 C121 1.376 . S
C121 H83 0.929 . S
C121 C116 1.397 . S
C121 C120 1.376 . S
C122 C106 1.509 . S
C122 C123 1.391 . S
C122 C127 1.386 . S
C123 H84 0.930 . S
C123 C122 1.391 . S
C123 C124 1.375 . S
C124 H85 0.931 . S
C124 C123 1.375 . S
C124 C125 1.375 . S
C125 C124 1.375 . S
C125 C126 1.361 . S
C126 H86 0.930 . S
C126 C125 1.361 . S
C126 C127 1.399 . S
C127 H87 0.929 . S
C127 C122 1.386 . S
C127 C126 1.399 . S
C128 C107 1.485 . S
C128 C129 1.394 . S
C128 C133 1.360 . S
C129 H88 0.931 . S
C129 C128 1.394 . S
C129 C130 1.372 . S
C130 H89 0.930 . S
C130 C129 1.372 . S
C130 C131 1.397 . S
C131 C130 1.397 . S
C131 C132 1.390 . S
C131 C147 1.476 . S
C132 H90 0.930 . S
C132 C131 1.390 . S
C132 C133 1.366 . S
C133 H91 0.932 . S
C133 C128 1.360 . S
C133 C132 1.366 . S
C134 C108 1.490 . S
C134 C135 1.380 . S
C134 C139 1.386 . S
C135 H92 0.930 . S
C135 C134 1.380 . S
C135 C136 1.381 . S
C136 H93 0.929 . S
C136 C135 1.381 . S
C136 C137 1.371 . S
C137 C136 1.371 . S
C137 C138 1.380 . S
C138 H94 0.931 . S
C138 C137 1.380 . S
C138 C139 1.387 . S
C139 H95 0.930 . S
C139 C134 1.386 . S
C139 C138 1.387 . S
C140 C109 1.519 . S
C140 C141 1.377 1_545 S
C140 C145 1.361 1_545 S
C141 H96 0.929 . S
C141 C140 1.377 1_565 S
C141 C142 1.386 . S
C142 H97 0.931 . S
C142 C141 1.386 . S
C142 C143 1.363 . S
C143 C142 1.363 . S
C143 C144 1.385 . S
C144 H98 0.930 . S
C144 C143 1.385 . S
C144 C145 1.396 . S
C145 H99 0.929 1_565 S
C145 C140 1.361 1_565 S
C145 C144 1.396 . S
C146 O100 1.300 . S
C146 O101 1.209 . S
C146 C119 1.486 . S
C147 O102 1.199 . S
C147 O103 1.297 . S
C147 C131 1.476 . S
H148 O174 0.856 . S
H149 O177 0.854 . S
H150 C185 0.930 . S
H151 C186 0.930 . S
H152 C188 0.930 . S
H153 C189 0.930 . S
H154 C191 0.931 . S
H155 C192 0.930 . S
H156 C194 0.930 . S
H157 C195 0.929 . S
H158 C197 0.930 . S
H159 C198 0.931 . S
H160 C200 0.930 . S
H161 C201 0.929 . S
H162 C203 0.931 . S
H163 C204 0.930 . S
H164 C206 0.930 . S
H165 C207 0.932 . S
H166 C209 0.930 . S
H167 C210 0.929 . S
H168 C212 0.931 . S
H169 C213 0.930 . S
H170 C215 0.929 . S
H171 C216 0.931 . S
H172 C218 0.930 . S
H173 C219 0.929 . S
O174 H148 0.856 . S
O174 C220 1.300 . S
O175 C220 1.209 . S
O176 C221 1.199 . S
O177 H149 0.854 . S
O177 C221 1.297 . S
C178 C179 1.404 . S
C178 C183 1.397 . S
C178 C184 1.492 . S
C179 C178 1.404 . S
C179 C180 1.396 . S
C179 C190 1.492 . S
C180 C179 1.396 . S
C180 C181 1.397 . S
C180 C196 1.509 . S
C181 C180 1.397 . S
C181 C182 1.412 . S
C181 C202 1.485 . S
C182 C181 1.412 . S
C182 C183 1.388 . S
C182 C208 1.490 . S
C183 C178 1.397 . S
C183 C182 1.388 . S
C183 C214 1.519 . S
C184 C178 1.492 . S
C184 C185 1.363 . S
C184 C189 1.390 . S
C185 H150 0.930 . S
C185 C184 1.363 . S
C185 C186 1.372 . S
C186 H151 0.930 . S
C186 C185 1.372 . S
C186 C187 1.383 . S
C187 C186 1.383 . S
C187 C188 1.395 . S
C188 H152 0.930 . S
C188 C187 1.395 . S
C188 C189 1.362 . S
C189 H153 0.930 . S
C189 C184 1.390 . S
C189 C188 1.362 . S
C190 C179 1.492 . S
C190 C191 1.377 . S
C190 C195 1.397 . S
C191 H154 0.931 . S
C191 C190 1.377 . S
C191 C192 1.376 . S
C192 H155 0.930 . S
C192 C191 1.376 . S
C192 C193 1.376 . S
C193 C192 1.376 . S
C193 C194 1.378 . S
C193 C220 1.486 . S
C194 H156 0.930 . S
C194 C193 1.378 . S
C194 C195 1.376 . S
C195 H157 0.929 . S
C195 C190 1.397 . S
C195 C194 1.376 . S
C196 C180 1.509 . S
C196 C197 1.391 . S
C196 C201 1.386 . S
C197 H158 0.930 . S
C197 C196 1.391 . S
C197 C198 1.375 . S
C198 H159 0.931 . S
C198 C197 1.375 . S
C198 C199 1.375 . S
C199 C198 1.375 . S
C199 C200 1.361 . S
C200 H160 0.930 . S
C200 C199 1.361 . S
C200 C201 1.399 . S
C201 H161 0.929 . S
C201 C196 1.386 . S
C201 C200 1.399 . S
C202 C181 1.485 . S
C202 C203 1.394 . S
C202 C207 1.360 . S
C203 H162 0.931 . S
C203 C202 1.394 . S
C203 C204 1.372 . S
C204 H163 0.930 . S
C204 C203 1.372 . S
C204 C205 1.397 . S
C205 C204 1.397 . S
C205 C206 1.390 . S
C205 C221 1.476 . S
C206 H164 0.930 . S
C206 C205 1.390 . S
C206 C207 1.366 . S
C207 H165 0.932 . S
C207 C202 1.360 . S
C207 C206 1.366 . S
C208 C182 1.490 . S
C208 C209 1.380 . S
C208 C213 1.386 . S
C209 H166 0.930 . S
C209 C208 1.380 . S
C209 C210 1.381 . S
C210 H167 0.929 . S
C210 C209 1.381 . S
C210 C211 1.371 . S
C211 C210 1.371 . S
C211 C212 1.380 . S
C212 H168 0.931 . S
C212 C211 1.380 . S
C212 C213 1.387 . S
C213 H169 0.930 . S
C213 C208 1.386 . S
C213 C212 1.387 . S
C214 C183 1.519 . S
C214 C215 1.377 . S
C214 C219 1.361 . S
C215 H170 0.929 . S
C215 C214 1.377 . S
C215 C216 1.386 . S
C216 H171 0.931 . S
C216 C215 1.386 . S
C216 C217 1.363 . S
C217 C216 1.363 . S
C217 C218 1.385 . S
C218 H172 0.930 . S
C218 C217 1.385 . S
C218 C219 1.396 . S
C219 H173 0.929 . S
C219 C214 1.361 . S
C219 C218 1.396 . S
C220 O174 1.300 . S
C220 O175 1.209 . S
C220 C193 1.486 . S
C221 O176 1.199 . S
C221 O177 1.297 . S
C221 C205 1.476 . S
H222 O248 0.856 . S
H223 O251 0.854 . S
H224 C259 0.930 1_455 S
H225 C260 0.930 . S
H226 C262 0.930 . S
H227 C263 0.930 . S
H228 C265 0.931 . S
H229 C266 0.930 . S
H230 C268 0.930 . S
H231 C269 0.929 . S
H232 C271 0.930 . S
H233 C272 0.931 . S
H234 C274 0.930 . S
H235 C275 0.929 . S
H236 C277 0.931 . S
H237 C278 0.930 . S
H238 C280 0.930 . S
H239 C281 0.932 . S
H240 C283 0.930 . S
H241 C284 0.929 . S
H242 C286 0.931 . S
H243 C287 0.930 . S
H244 C289 0.929 . S
H245 C290 0.931 . S
H246 C292 0.930 . S
H247 C293 0.976 . S
O248 H222 0.856 . S
O248 C294 1.300 . S
O249 C294 1.209 . S
O250 C295 1.199 . S
O251 H223 0.854 . S
O251 C295 1.297 . S
C252 C253 1.404 . S
C252 C257 1.397 . S
C252 C258 1.492 . S
C253 C252 1.404 . S
C253 C254 1.396 . S
C253 C264 1.492 . S
C254 C253 1.396 . S
C254 C255 1.397 . S
C254 C270 1.509 . S
C255 C254 1.397 . S
C255 C256 1.412 . S
C255 C276 1.485 . S
C256 C255 1.412 . S
C256 C257 1.388 . S
C256 C282 1.490 . S
C257 C252 1.397 . S
C257 C256 1.388 . S
C257 C288 1.519 1_455 S
C258 C252 1.492 . S
C258 C259 1.363 1_455 S
C258 C263 1.390 1_455 S
C259 H224 0.930 1_655 S
C259 C258 1.363 1_655 S
C259 C260 1.372 . S
C260 H225 0.930 . S
C260 C259 1.372 . S
C260 C261 1.383 . S
C261 C260 1.383 . S
C261 C262 1.395 . S
C262 H226 0.930 . S
C262 C261 1.395 . S
C262 C263 1.362 . S
C263 H227 0.930 . S
C263 C258 1.390 1_655 S
C263 C262 1.362 . S
C264 C253 1.492 . S
C264 C265 1.377 . S
C264 C269 1.397 . S
C265 H228 0.931 . S
C265 C264 1.377 . S
C265 C266 1.376 . S
C266 H229 0.930 . S
C266 C265 1.376 . S
C266 C267 1.376 . S
C267 C266 1.376 . S
C267 C268 1.378 . S
C267 C294 1.486 . S
C268 H230 0.930 . S
C268 C267 1.378 . S
C268 C269 1.376 . S
C269 H231 0.929 . S
C269 C264 1.397 . S
C269 C268 1.376 . S
C270 C254 1.509 . S
C270 C271 1.391 . S
C270 C275 1.386 . S
C271 H232 0.930 . S
C271 C270 1.391 . S
C271 C272 1.375 . S
C272 H233 0.931 . S
C272 C271 1.375 . S
C272 C273 1.375 . S
C273 C272 1.375 . S
C273 C274 1.361 . S
C274 H234 0.930 . S
C274 C273 1.361 . S
C274 C275 1.399 . S
C275 H235 0.929 . S
C275 C270 1.386 . S
C275 C274 1.399 . S
C276 C255 1.485 . S
C276 C277 1.394 . S
C276 C281 1.360 . S
C277 H236 0.931 . S
C277 C276 1.394 . S
C277 C278 1.372 . S
C278 H237 0.930 . S
C278 C277 1.372 . S
C278 C279 1.397 . S
C279 C278 1.397 . S
C279 C280 1.390 . S
C279 C295 1.476 . S
C280 H238 0.930 . S
C280 C279 1.390 . S
C280 C281 1.366 . S
C281 H239 0.932 . S
C281 C276 1.360 . S
C281 C280 1.366 . S
C282 C256 1.490 . S
C282 C283 1.380 . S
C282 C287 1.386 . S
C283 H240 0.930 . S
C283 C282 1.380 . S
C283 C284 1.381 . S
C284 H241 0.929 . S
C284 C283 1.381 . S
C284 C285 1.371 . S
C285 C284 1.371 . S
C285 C286 1.380 . S
C286 H242 0.931 . S
C286 C285 1.380 . S
C286 C287 1.387 . S
C287 H243 0.930 . S
C287 C282 1.386 . S
C287 C286 1.387 . S
C288 C257 1.519 1_655 S
C288 C289 1.377 . S
C288 C293 1.361 . S
C289 H244 0.929 . S
C289 C288 1.377 . S
C289 C290 1.386 . S
C290 H245 0.931 . S
C290 C289 1.386 . S
C290 C291 1.363 . S
C291 C290 1.363 . S
C291 C292 1.385 . S
C292 H246 0.930 . S
C292 C291 1.385 . S
C292 C293 1.396 . S
C293 H247 0.976 . S
C293 C288 1.361 . S
C293 C292 1.396 . S
C294 O248 1.300 . S
C294 O249 1.209 . S
C294 C267 1.486 . S
C295 O250 1.199 . S
C295 O251 1.297 . S
C295 C279 1.476 . S
H296 O322 0.856 . S
H297 O325 0.854 . S
H298 C333 0.930 . S
H299 C334 0.930 . S
H300 C336 0.930 . S
H301 C337 0.930 . S
H302 C339 0.931 . S
H303 C340 0.930 . S
H304 C342 0.930 . S
H305 C343 0.929 . S
H306 C345 0.930 . S
H307 C346 0.931 . S
H308 C348 0.930 . S
H309 C349 0.929 . S
H310 C351 0.931 . S
H311 C352 0.930 . S
H312 C354 0.930 . S
H313 C355 0.932 . S
H314 C357 0.930 . S
H315 C358 0.929 . S
H316 C360 0.931 . S
H317 C361 0.930 . S
H318 C363 0.911 1_556 S
H319 C364 0.931 . S
H320 C366 0.930 . S
H321 C367 0.929 . S
O322 H296 0.856 . S
O322 C368 1.300 . S
O323 C368 1.209 . S
O324 C369 1.199 . S
O325 H297 0.854 . S
O325 C369 1.297 . S
C326 C327 1.404 . S
C326 C331 1.397 . S
C326 C332 1.492 1_565 S
C327 C326 1.404 . S
C327 C328 1.396 . S
C327 C338 1.492 . S
C328 C327 1.396 . S
C328 C329 1.397 . S
C328 C344 1.509 . S
C329 C328 1.397 . S
C329 C330 1.412 1_556 S
C329 C350 1.485 1_556 S
C330 C329 1.412 1_554 S
C330 C331 1.388 1_554 S
C330 C356 1.490 . S
C331 C326 1.397 . S
C331 C330 1.388 1_556 S
C331 C362 1.519 1_566 S
C332 C326 1.492 1_545 S
C332 C333 1.363 . S
C332 C337 1.390 . S
C333 H298 0.930 . S
C333 C332 1.363 . S
C333 C334 1.372 . S
C334 H299 0.930 . S
C334 C333 1.372 . S
C334 C335 1.383 . S
C335 C334 1.383 . S
C335 C336 1.395 . S
C336 H300 0.930 . S
C336 C335 1.395 . S
C336 C337 1.362 . S
C337 H301 0.930 . S
C337 C332 1.390 . S
C337 C336 1.362 . S
C338 C327 1.492 . S
C338 C339 1.377 . S
C338 C343 1.397 . S
C339 H302 0.931 . S
C339 C338 1.377 . S
C339 C340 1.376 . S
C340 H303 0.930 . S
C340 C339 1.376 . S
C340 C341 1.376 . S
C341 C340 1.376 . S
C341 C342 1.378 . S
C341 C368 1.486 . S
C342 H304 0.930 . S
C342 C341 1.378 . S
C342 C343 1.376 . S
C343 H305 0.929 . S
C343 C338 1.397 . S
C343 C342 1.376 . S
C344 C328 1.509 . S
C344 C345 1.391 . S
C344 C349 1.386 . S
C345 H306 0.930 . S
C345 C344 1.391 . S
C345 C346 1.375 . S
C346 H307 0.931 . S
C346 C345 1.375 . S
C346 C347 1.375 . S
C347 C346 1.375 . S
C347 C348 1.361 . S
C348 H308 0.930 . S
C348 C347 1.361 . S
C348 C349 1.399 . S
C349 H309 0.929 . S
C349 C344 1.386 . S
C349 C348 1.399 . S
C350 C329 1.485 1_554 S
C350 C351 1.394 . S
C350 C355 1.360 . S
C351 H310 0.931 . S
C351 C350 1.394 . S
C351 C352 1.372 . S
C352 H311 0.930 . S
C352 C351 1.372 . S
C352 C353 1.397 . S
C353 C352 1.397 . S
C353 C354 1.390 . S
C353 C369 1.476 . S
C354 H312 0.930 . S
C354 C353 1.390 . S
C354 C355 1.366 . S
C355 H313 0.932 . S
C355 C350 1.360 . S
C355 C354 1.366 . S
C356 C330 1.490 . S
C356 C357 1.380 . S
C356 C361 1.386 . S
C357 H314 0.930 . S
C357 C356 1.380 . S
C357 C358 1.381 . S
C358 H315 0.929 . S
C358 C357 1.381 . S
C358 C359 1.371 . S
C359 C358 1.371 . S
C359 C360 1.380 . S
C360 H316 0.931 . S
C360 C359 1.380 . S
C360 C361 1.387 . S
C361 H317 0.930 . S
C361 C356 1.386 . S
C361 C360 1.387 . S
C362 C331 1.519 1_544 S
C362 C363 1.380 . S
C362 C367 1.361 . S
C363 H318 0.911 1_554 S
C363 C362 1.380 . S
C363 C364 1.403 . S
C364 H319 0.931 . S
C364 C363 1.403 . S
C364 C365 1.363 . S
C365 C364 1.363 . S
C365 C366 1.385 . S
C366 H320 0.930 . S
C366 C365 1.385 . S
C366 C367 1.396 . S
C367 H321 0.929 . S
C367 C362 1.361 . S
C367 C366 1.396 . S
C368 O322 1.300 . S
C368 O323 1.209 . S
C368 C341 1.486 . S
C369 O324 1.199 . S
C369 O325 1.297 . S
C369 C353 1.476 . S
H370 O396 0.856 . S
H371 O399 0.854 . S
H372 C407 0.930 . S
H373 C408 0.930 . S
H374 C410 0.930 . S
H375 C411 0.930 . S
H376 C413 0.931 . S
H377 C414 0.930 . S
H378 C416 0.930 . S
H379 C417 0.929 . S
H380 C419 0.930 . S
H381 C420 0.931 . S
H382 C422 0.930 . S
H383 C423 0.929 . S
H384 C425 0.931 . S
H385 C426 0.930 . S
H386 C428 0.930 . S
H387 C429 0.932 . S
H388 C431 0.930 . S
H389 C432 0.929 . S
H390 C434 0.931 . S
H391 C435 0.930 . S
H392 C437 0.929 . S
H393 C438 0.931 . S
H394 C440 0.930 . S
H395 C441 0.929 . S
O396 H370 0.856 . S
O396 C442 1.300 . S
O397 C442 1.209 . S
O398 C443 1.199 . S
O399 H371 0.854 . S
O399 C443 1.297 . S
C400 C401 1.404 . S
C400 C405 1.397 . S
C400 C406 1.492 . S
C401 C400 1.404 . S
C401 C402 1.396 . S
C401 C412 1.492 . S
C402 C401 1.396 . S
C402 C403 1.397 . S
C402 C418 1.509 . S
C403 C402 1.397 . S
C403 C404 1.412 . S
C403 C424 1.485 . S
C404 C403 1.412 . S
C404 C405 1.388 . S
C404 C430 1.490 . S
C405 C400 1.397 . S
C405 C404 1.388 . S
C405 C436 1.519 . S
C406 C400 1.492 . S
C406 C407 1.363 . S
C406 C411 1.390 . S
C407 H372 0.930 . S
C407 C406 1.363 . S
C407 C408 1.372 . S
C408 H373 0.930 . S
C408 C407 1.372 . S
C408 C409 1.383 . S
C409 C408 1.383 . S
C409 C410 1.395 . S
C410 H374 0.930 . S
C410 C409 1.395 . S
C410 C411 1.362 . S
C411 H375 0.930 . S
C411 C406 1.390 . S
C411 C410 1.362 . S
C412 C401 1.492 . S
C412 C413 1.377 . S
C412 C417 1.397 . S
C413 H376 0.931 . S
C413 C412 1.377 . S
C413 C414 1.376 . S
C414 H377 0.930 . S
C414 C413 1.376 . S
C414 C415 1.376 . S
C415 C414 1.376 . S
C415 C416 1.378 . S
C415 C442 1.486 . S
C416 H378 0.930 . S
C416 C415 1.378 . S
C416 C417 1.376 . S
C417 H379 0.929 . S
C417 C412 1.397 . S
C417 C416 1.376 . S
C418 C402 1.509 . S
C418 C419 1.391 . S
C418 C423 1.386 . S
C419 H380 0.930 . S
C419 C418 1.391 . S
C419 C420 1.375 . S
C420 H381 0.931 . S
C420 C419 1.375 . S
C420 C421 1.375 . S
C421 C420 1.375 . S
C421 C422 1.361 . S
C422 H382 0.930 . S
C422 C421 1.361 . S
C422 C423 1.399 . S
C423 H383 0.929 . S
C423 C418 1.386 . S
C423 C422 1.399 . S
C424 C403 1.485 . S
C424 C425 1.394 . S
C424 C429 1.360 . S
C425 H384 0.931 . S
C425 C424 1.394 . S
C425 C426 1.372 . S
C426 H385 0.930 . S
C426 C425 1.372 . S
C426 C427 1.397 . S
C427 C426 1.397 . S
C427 C428 1.390 . S
C427 C443 1.476 . S
C428 H386 0.930 . S
C428 C427 1.390 . S
C428 C429 1.366 . S
C429 H387 0.932 . S
C429 C424 1.360 . S
C429 C428 1.366 . S
C430 C404 1.490 . S
C430 C431 1.380 . S
C430 C435 1.386 . S
C431 H388 0.930 . S
C431 C430 1.380 . S
C431 C432 1.381 . S
C432 H389 0.929 . S
C432 C431 1.381 . S
C432 C433 1.371 . S
C433 C432 1.371 . S
C433 C434 1.380 . S
C434 H390 0.931 . S
C434 C433 1.380 . S
C434 C435 1.387 . S
C435 H391 0.930 . S
C435 C430 1.386 . S
C435 C434 1.387 . S
C436 C405 1.519 . S
C436 C437 1.377 . S
C436 C441 1.361 . S
C437 H392 0.929 . S
C437 C436 1.377 . S
C437 C438 1.386 . S
C438 H393 0.931 . S
C438 C437 1.386 . S
C438 C439 1.363 . S
C439 C438 1.363 . S
C439 C440 1.385 . S
C440 H394 0.930 . S
C440 C439 1.385 . S
C440 C441 1.396 . S
C441 H395 0.929 . S
C441 C436 1.361 . S
C441 C440 1.396 . S
C442 O396 1.300 . S
C442 O397 1.209 . S
C442 C415 1.486 . S
C443 O398 1.199 . S
C443 O399 1.297 . S
C443 C427 1.476 . S
Zn444 O447 2.031 . S
Zn444 O449 2.049 . S
Zn444 O454 2.067 . S
Zn445 O446 1.962 . S
Zn445 O448 1.986 . S
Zn445 O450 1.996 . S
Zn445 O453 1.943 . S
O446 Zn445 1.962 . S
O446 C451 1.254 . S
O447 Zn444 2.031 . S
O447 C451 1.269 . S
O448 Zn445 1.986 . S
O448 C455 1.262 . S
O449 Zn444 2.049 . S
O449 C457 1.260 . S
O450 Zn445 1.996 . S
O450 C457 1.257 . S
C451 O446 1.254 . S
C451 O447 1.269 . S
C452 O453 1.249 . S
C452 O454 1.270 . S
O453 Zn445 1.943 . S
O453 C452 1.249 . S
O454 Zn444 2.067 . S
O454 C452 1.270 . S
C455 O448 1.262 . S
C455 O456 1.232 . S
O456 C455 1.232 . S
C457 O449 1.260 . S
C457 O450 1.257 . S
Zn458 O461 2.031 . S
Zn458 O463 2.049 . S
Zn458 O468 2.067 . S
Zn459 O460 1.962 . S
Zn459 O462 1.986 . S
Zn459 O464 1.996 . S
Zn459 O467 1.943 . S
O460 Zn459 1.962 . S
O460 C465 1.254 . S
O461 Zn458 2.031 . S
O461 C465 1.269 . S
O462 Zn459 1.986 . S
O462 C469 1.262 . S
O463 Zn458 2.049 . S
O463 C471 1.260 . S
O464 Zn459 1.996 . S
O464 C471 1.257 . S
C465 O460 1.254 . S
C465 O461 1.269 . S
C466 O467 1.249 . S
C466 O468 1.270 . S
O467 Zn459 1.943 . S
O467 C466 1.249 . S
O468 Zn458 2.067 . S
O468 C466 1.270 . S
C469 O462 1.262 . S
C469 O470 1.232 . S
O470 C469 1.232 . S
C471 O463 1.260 . S
C471 O464 1.257 . S
Zn472 O475 2.031 . S
Zn472 O477 2.049 . S
Zn472 O482 2.067 . S
Zn473 O474 1.962 . S
Zn473 O476 1.986 . S
Zn473 O478 1.996 . S
Zn473 O481 1.943 . S
O474 Zn473 1.962 . S
O474 C479 1.254 . S
O475 Zn472 2.031 . S
O475 C479 1.269 . S
O476 Zn473 1.986 . S
O476 C483 1.262 . S
O477 Zn472 2.049 . S
O477 C485 1.260 . S
O478 Zn473 1.996 . S
O478 C485 1.257 . S
C479 O474 1.254 . S
C479 O475 1.269 . S
C480 O481 1.249 . S
C480 O482 1.270 . S
O481 Zn473 1.943 . S
O481 C480 1.249 . S
O482 Zn472 2.067 . S
O482 C480 1.270 . S
C483 O476 1.262 . S
C483 O484 1.232 . S
O484 C483 1.232 . S
C485 O477 1.260 . S
C485 O478 1.257 . S
Zn486 O489 2.031 . S
Zn486 O491 2.049 . S
Zn486 O496 2.067 . S
Zn487 O488 1.962 . S
Zn487 O490 1.986 . S
Zn487 O492 1.996 . S
Zn487 O495 1.943 . S
O488 Zn487 1.962 . S
O488 C493 1.254 . S
O489 Zn486 2.031 . S
O489 C493 1.269 . S
O490 Zn487 1.986 . S
O490 C497 1.262 . S
O491 Zn486 2.049 . S
O491 C499 1.260 . S
O492 Zn487 1.996 . S
O492 C499 1.257 . S
C493 O488 1.254 . S
C493 O489 1.269 . S
C494 O495 1.249 . S
C494 O496 1.270 . S
O495 Zn487 1.943 . S
O495 C494 1.249 . S
O496 Zn486 2.067 . S
O496 C494 1.270 . S
C497 O490 1.262 . S
C497 O498 1.232 . S
O498 C497 1.232 . S
C499 O491 1.260 . S
C499 O492 1.257 . S
Zn500 O503 2.031 . S
Zn500 O505 2.049 . S
Zn500 O510 2.067 . S
Zn501 O502 1.962 . S
Zn501 O504 1.986 . S
Zn501 O506 1.996 . S
Zn501 O509 1.943 . S
O502 Zn501 1.962 . S
O502 C507 1.254 . S
O503 Zn500 2.031 . S
O503 C507 1.269 . S
O504 Zn501 1.986 . S
O504 C511 1.262 . S
O505 Zn500 2.049 . S
O505 C513 1.260 . S
O506 Zn501 1.996 . S
O506 C513 1.257 . S
C507 O502 1.254 . S
C507 O503 1.269 . S
C508 O509 1.249 . S
C508 O510 1.270 . S
O509 Zn501 1.943 . S
O509 C508 1.249 . S
O510 Zn500 2.067 . S
O510 C508 1.270 . S
C511 O504 1.262 . S
C511 O512 1.232 . S
O512 C511 1.232 . S
C513 O505 1.260 . S
C513 O506 1.257 . S
Zn514 O517 2.031 . S
Zn514 O519 2.049 . S
Zn514 O524 2.067 . S
Zn515 O516 1.962 . S
Zn515 O518 1.986 . S
Zn515 O520 1.996 . S
Zn515 O523 1.943 . S
O516 Zn515 1.962 . S
O516 C521 1.254 . S
O517 Zn514 2.031 . S
O517 C521 1.269 . S
O518 Zn515 1.986 . S
O518 C525 1.262 . S
O519 Zn514 2.049 . S
O519 C527 1.260 . S
O520 Zn515 1.996 . S
O520 C527 1.257 . S
C521 O516 1.254 . S
C521 O517 1.269 . S
C522 O523 1.249 . S
C522 O524 1.270 . S
O523 Zn515 1.943 . S
O523 C522 1.249 . S
O524 Zn514 2.067 . S
O524 C522 1.270 . S
C525 O518 1.262 . S
C525 O526 1.232 . S
O526 C525 1.232 . S
C527 O519 1.260 . S
C527 O520 1.257 . S
H528 C536 0.929 . S
H529 C538 0.930 . S
H530 C540 0.930 . S
H531 C543 0.929 . S
H532 C546 0.930 . S
H533 C548 0.960 . S
H534 C548 0.960 . S
H535 C548 0.960 . S
C536 H528 0.929 . S
C536 C537 1.377 . S
C536 C538 1.384 . S
C537 C536 1.377 . S
C537 C543 1.390 . S
C538 H529 0.930 . S
C538 C536 1.384 . S
C538 C539 1.372 . S
C539 C538 1.372 . S
C539 C540 1.400 . S
C539 C544 1.490 . S
C540 H530 0.930 . S
C540 C539 1.400 . S
C540 C543 1.386 . S
H541 C557 0.930 . S
H542 C558 0.931 . S
C543 H531 0.929 . S
C543 C537 1.390 . S
C543 C540 1.386 . S
C544 C539 1.490 . S
C544 C546 1.395 . S
C544 C547 1.403 . S
H545 C551 0.930 . S
C546 H532 0.930 . S
C546 C544 1.395 . S
C546 C549 1.403 . S
C547 C544 1.403 . S
C547 C548 1.524 . S
C547 C551 1.400 . S
C548 H533 0.960 . S
C548 H534 0.960 . S
C548 H535 0.960 . S
C548 C547 1.524 . S
C549 C546 1.403 . S
C549 C550 1.392 . S
C549 C553 1.495 . S
C550 C549 1.392 . S
C550 C551 1.385 . S
C550 C552 1.478 . S
C551 H545 0.930 . S
C551 C547 1.400 . S
C551 C550 1.385 . S
C552 C550 1.478 . S
C552 C554 1.381 . S
C552 C558 1.383 . S
C553 C549 1.495 . S
C553 H559 0.959 . S
C553 H560 0.961 . S
C553 H561 0.960 . S
C554 C552 1.381 . S
C554 C555 1.394 . S
C554 H562 0.930 . S
C555 C554 1.394 . S
C555 C556 1.383 . S
C555 H563 0.929 . S
C556 C555 1.383 . S
C556 C557 1.377 . S
C557 H541 0.930 . S
C557 C556 1.377 . S
C557 C558 1.379 . S
C558 H542 0.931 . S
C558 C552 1.383 . S
C558 C557 1.379 . S
H559 C553 0.959 . S
H560 C553 0.961 . S
H561 C553 0.960 . S
H562 C554 0.930 . S
H563 C555 0.929 . S
H564 C572 0.929 . S
H565 C574 0.930 . S
H566 C576 0.930 . S
H567 C579 0.929 . S
H568 C582 0.930 . S
H569 C584 0.960 . S
H570 C584 0.960 . S
H571 C584 0.960 . S
C572 H564 0.929 . S
C572 C573 1.377 . S
C572 C574 1.384 . S
C573 C572 1.377 . S
C573 C579 1.390 . S
C574 H565 0.930 . S
C574 C572 1.384 . S
C574 C575 1.372 . S
C575 C574 1.372 . S
C575 C576 1.400 . S
C575 C580 1.490 . S
C576 H566 0.930 . S
C576 C575 1.400 . S
C576 C579 1.386 . S
H577 C593 0.930 . S
H578 C594 0.931 . S
C579 H567 0.929 . S
C579 C573 1.390 . S
C579 C576 1.386 . S
C580 C575 1.490 . S
C580 C582 1.395 . S
C580 C583 1.403 . S
H581 C587 0.930 . S
C582 H568 0.930 . S
C582 C580 1.395 . S
C582 C585 1.403 . S
C583 C580 1.403 . S
C583 C584 1.524 . S
C583 C587 1.400 . S
C584 H569 0.960 . S
C584 H570 0.960 . S
C584 H571 0.960 . S
C584 C583 1.524 . S
C585 C582 1.403 . S
C585 C586 1.392 . S
C585 C589 1.495 . S
C586 C585 1.392 . S
C586 C587 1.385 . S
C586 C588 1.478 . S
C587 H581 0.930 . S
C587 C583 1.400 . S
C587 C586 1.385 . S
C588 C586 1.478 . S
C588 C590 1.381 . S
C588 C594 1.383 . S
C589 C585 1.495 . S
C589 H595 0.959 . S
C589 H596 0.961 . S
C589 H597 0.960 . S
C590 C588 1.381 . S
C590 C591 1.394 . S
C590 H598 0.930 . S
C591 C590 1.394 . S
C591 C592 1.383 . S
C591 H599 0.929 . S
C592 C591 1.383 . S
C592 C593 1.377 . S
C593 H577 0.930 . S
C593 C592 1.377 . S
C593 C594 1.379 . S
C594 H578 0.931 . S
C594 C588 1.383 . S
C594 C593 1.379 . S
H595 C589 0.959 . S
H596 C589 0.961 . S
H597 C589 0.960 . S
H598 C590 0.930 . S
H599 C591 0.929 . S
H600 C608 0.929 . S
H601 C610 0.930 . S
H602 C612 0.930 . S
H603 C615 0.929 . S
H604 C618 0.930 . S
H605 C620 0.960 . S
H606 C620 0.960 . S
H607 C620 0.960 . S
C608 H600 0.929 . S
C608 C609 1.377 . S
C608 C610 1.384 . S
C609 C608 1.377 . S
C609 C615 1.390 . S
C610 H601 0.930 . S
C610 C608 1.384 . S
C610 C611 1.372 . S
C611 C610 1.372 . S
C611 C612 1.400 . S
C611 C616 1.490 . S
C612 H602 0.930 . S
C612 C611 1.400 . S
C612 C615 1.386 . S
H613 C629 0.930 . S
H614 C630 0.931 . S
C615 H603 0.929 . S
C615 C609 1.390 . S
C615 C612 1.386 . S
C616 C611 1.490 . S
C616 C618 1.395 . S
C616 C619 1.403 . S
H617 C623 0.930 . S
C618 H604 0.930 . S
C618 C616 1.395 . S
C618 C621 1.403 . S
C619 C616 1.403 . S
C619 C620 1.524 . S
C619 C623 1.400 . S
C620 H605 0.960 . S
C620 H606 0.960 . S
C620 H607 0.960 . S
C620 C619 1.524 . S
C621 C618 1.403 . S
C621 C622 1.392 . S
C621 C625 1.495 . S
C622 C621 1.392 . S
C622 C623 1.385 . S
C622 C624 1.478 . S
C623 H617 0.930 . S
C623 C619 1.400 . S
C623 C622 1.385 . S
C624 C622 1.478 . S
C624 C626 1.381 . S
C624 C630 1.383 . S
C625 C621 1.495 . S
C625 H631 0.959 . S
C625 H632 0.961 . S
C625 H633 0.960 . S
C626 C624 1.381 . S
C626 C627 1.394 . S
C626 H634 0.930 . S
C627 C626 1.394 . S
C627 C628 1.383 . S
C627 H635 0.929 . S
C628 C627 1.383 . S
C628 C629 1.377 . S
C629 H613 0.930 . S
C629 C628 1.377 . S
C629 C630 1.379 . S
C630 H614 0.931 . S
C630 C624 1.383 . S
C630 C629 1.379 . S
H631 C625 0.959 . S
H632 C625 0.961 . S
H633 C625 0.960 . S
H634 C626 0.930 . S
H635 C627 0.929 . S
H636 C644 0.929 . S
H637 C646 0.930 . S
H638 C648 0.930 . S
H639 C651 0.929 . S
H640 C654 0.930 . S
H641 C656 0.960 . S
H642 C656 0.960 . S
H643 C656 0.960 . S
C644 H636 0.929 . S
C644 C645 1.377 . S
C644 C646 1.384 . S
C645 C644 1.377 . S
C645 C651 1.390 . S
C646 H637 0.930 . S
C646 C644 1.384 . S
C646 C647 1.372 . S
C647 C646 1.372 . S
C647 C648 1.400 . S
C647 C652 1.490 . S
C648 H638 0.930 . S
C648 C647 1.400 . S
C648 C651 1.386 . S
H649 C665 0.930 . S
H650 C666 0.931 . S
C651 H639 0.929 . S
C651 C645 1.390 . S
C651 C648 1.386 . S
C652 C647 1.490 . S
C652 C654 1.395 . S
C652 C655 1.403 . S
H653 C659 0.930 . S
C654 H640 0.930 . S
C654 C652 1.395 . S
C654 C657 1.403 . S
C655 C652 1.403 . S
C655 C656 1.524 . S
C655 C659 1.400 . S
C656 H641 0.960 . S
C656 H642 0.960 . S
C656 H643 0.960 . S
C656 C655 1.524 . S
C657 C654 1.403 . S
C657 C658 1.392 . S
C657 C661 1.495 . S
C658 C657 1.392 . S
C658 C659 1.385 . S
C658 C660 1.478 . S
C659 H653 0.930 . S
C659 C655 1.400 . S
C659 C658 1.385 . S
C660 C658 1.478 . S
C660 C662 1.381 . S
C660 C666 1.383 . S
C661 C657 1.495 . S
C661 H667 0.959 . S
C661 H668 0.961 . S
C661 H669 0.960 . S
C662 C660 1.381 . S
C662 C663 1.394 . S
C662 H670 0.930 . S
C663 C662 1.394 . S
C663 C664 1.383 . S
C663 H671 0.929 . S
C664 C663 1.383 . S
C664 C665 1.377 . S
C665 H649 0.930 . S
C665 C664 1.377 . S
C665 C666 1.379 . S
C666 H650 0.931 . S
C666 C660 1.383 . S
C666 C665 1.379 . S
H667 C661 0.959 . S
H668 C661 0.961 . S
H669 C661 0.960 . S
H670 C662 0.930 . S
H671 C663 0.929 . S
H672 C680 0.929 . S
H673 C682 0.930 . S
H674 C684 0.930 . S
H675 C687 0.929 . S
H676 C690 0.930 . S
H677 C692 0.960 . S
H678 C692 0.960 . S
H679 C692 0.960 . S
C680 H672 0.929 . S
C680 C681 1.377 . S
C680 C682 1.384 . S
C681 C680 1.377 . S
C681 C687 1.390 . S
C682 H673 0.930 . S
C682 C680 1.384 . S
C682 C683 1.372 . S
C683 C682 1.372 . S
C683 C684 1.400 . S
C683 C688 1.490 . S
C684 H674 0.930 . S
C684 C683 1.400 . S
C684 C687 1.386 . S
H685 C701 0.930 . S
H686 C702 0.931 . S
C687 H675 0.929 . S
C687 C681 1.390 . S
C687 C684 1.386 . S
C688 C683 1.490 . S
C688 C690 1.395 . S
C688 C691 1.403 . S
H689 C695 0.930 . S
C690 H676 0.930 . S
C690 C688 1.395 . S
C690 C693 1.403 . S
C691 C688 1.403 . S
C691 C692 1.524 . S
C691 C695 1.400 . S
C692 H677 0.960 . S
C692 H678 0.960 . S
C692 H679 0.960 . S
C692 C691 1.524 . S
C693 C690 1.403 . S
C693 C694 1.392 . S
C693 C697 1.495 . S
C694 C693 1.392 . S
C694 C695 1.385 . S
C694 C696 1.478 . S
C695 H689 0.930 . S
C695 C691 1.400 . S
C695 C694 1.385 . S
C696 C694 1.478 . S
C696 C698 1.381 . S
C696 C702 1.383 . S
C697 C693 1.495 . S
C697 H703 0.959 . S
C697 H704 0.961 . S
C697 H705 0.960 . S
C698 C696 1.381 . S
C698 C699 1.394 . S
C698 H706 0.930 . S
C699 C698 1.394 . S
C699 C700 1.383 . S
C699 H707 0.929 . S
C700 C699 1.383 . S
C700 C701 1.377 . S
C701 H685 0.930 . S
C701 C700 1.377 . S
C701 C702 1.379 . S
C702 H686 0.931 . S
C702 C696 1.383 . S
C702 C701 1.379 . S
H703 C697 0.959 . S
H704 C697 0.961 . S
H705 C697 0.960 . S
H706 C698 0.930 . S
H707 C699 0.929 . S
H708 C716 0.929 . S
H709 C718 0.930 . S
H710 C720 0.930 . S
H711 C723 0.929 . S
H712 C726 0.930 . S
H713 C728 0.960 . S
H714 C728 0.960 . S
H715 C728 0.960 . S
C716 H708 0.929 . S
C716 C717 1.377 . S
C716 C718 1.384 . S
C717 C716 1.377 . S
C717 C723 1.390 . S
C718 H709 0.930 . S
C718 C716 1.384 . S
C718 C719 1.372 . S
C719 C718 1.372 . S
C719 C720 1.400 . S
C719 C724 1.490 . S
C720 H710 0.930 . S
C720 C719 1.400 . S
C720 C723 1.386 . S
H721 C737 0.930 . S
H722 C738 0.931 . S
C723 H711 0.929 . S
C723 C717 1.390 . S
C723 C720 1.386 . S
C724 C719 1.490 . S
C724 C726 1.395 . S
C724 C727 1.403 . S
H725 C731 0.930 . S
C726 H712 0.930 . S
C726 C724 1.395 . S
C726 C729 1.403 . S
C727 C724 1.403 . S
C727 C728 1.524 . S
C727 C731 1.400 . S
C728 H713 0.960 . S
C728 H714 0.960 . S
C728 H715 0.960 . S
C728 C727 1.524 . S
C729 C726 1.403 . S
C729 C730 1.392 . S
C729 C733 1.495 . S
C730 C729 1.392 . S
C730 C731 1.385 . S
C730 C732 1.478 . S
C731 H725 0.930 . S
C731 C727 1.400 . S
C731 C730 1.385 . S
C732 C730 1.478 . S
C732 C734 1.381 . S
C732 C738 1.383 . S
C733 C729 1.495 . S
C733 H739 0.959 . S
C733 H740 0.961 . S
C733 H741 0.960 . S
C734 C732 1.381 . S
C734 C735 1.394 . S
C734 H742 0.930 . S
C735 C734 1.394 . S
C735 C736 1.383 . S
C735 H743 0.929 . S
C736 C735 1.383 . S
C736 C737 1.377 . S
C737 H721 0.930 . S
C737 C736 1.377 . S
C737 C738 1.379 . S
C738 H722 0.931 . S
C738 C732 1.383 . S
C738 C737 1.379 . S
H739 C733 0.959 . S
H740 C733 0.961 . S
H741 C733 0.960 . S
H742 C734 0.930 . S
H743 C735 0.929 . S
H744 C752 0.929 . S
H745 C754 0.930 . S
H746 C756 0.930 . S
H747 C759 0.929 . S
H748 C762 0.930 . S
H749 C764 0.960 . S
H750 C764 0.960 . S
H751 C764 0.960 . S
C752 H744 0.929 . S
C752 C753 1.377 . S
C752 C754 1.384 . S
C753 C752 1.377 . S
C753 C759 1.390 . S
C754 H745 0.930 . S
C754 C752 1.384 . S
C754 C755 1.372 . S
C755 C754 1.372 . S
C755 C756 1.400 . S
C755 C760 1.490 . S
C756 H746 0.930 . S
C756 C755 1.400 . S
C756 C759 1.386 . S
H757 C773 0.930 . S
H758 C774 0.931 . S
C759 H747 0.929 . S
C759 C753 1.390 . S
C759 C756 1.386 . S
C760 C755 1.490 . S
C760 C762 1.395 . S
C760 C763 1.403 . S
H761 C767 0.930 . S
C762 H748 0.930 . S
C762 C760 1.395 . S
C762 C765 1.403 . S
C763 C760 1.403 . S
C763 C764 1.524 . S
C763 C767 1.400 . S
C764 H749 0.960 . S
C764 H750 0.960 . S
C764 H751 0.960 . S
C764 C763 1.524 . S
C765 C762 1.403 . S
C765 C766 1.392 . S
C765 C769 1.495 . S
C766 C765 1.392 . S
C766 C767 1.385 . S
C766 C768 1.478 . S
C767 H761 0.930 . S
C767 C763 1.400 . S
C767 C766 1.385 . S
C768 C766 1.478 . S
C768 C770 1.381 . S
C768 C774 1.383 . S
C769 C765 1.495 . S
C769 H775 0.959 . S
C769 H776 0.961 . S
C769 H777 0.960 . S
C770 C768 1.381 . S
C770 C771 1.394 . S
C770 H778 0.930 . S
C771 C770 1.394 . S
C771 C772 1.383 . S
C771 H779 0.929 . S
C772 C771 1.383 . S
C772 C773 1.377 . S
C773 H757 0.930 . S
C773 C772 1.377 . S
C773 C774 1.379 . S
C774 H758 0.931 . S
C774 C768 1.383 . S
C774 C773 1.379 . S
H775 C769 0.959 . S
H776 C769 0.961 . S
H777 C769 0.960 . S
H778 C770 0.930 . S
H779 C771 0.929 . S
H780 C788 0.929 . S
H781 C790 0.930 . S
H782 C792 0.930 . S
H783 C795 0.929 . S
H784 C798 0.930 . S
H785 C800 0.960 . S
H786 C800 0.960 . S
H787 C800 0.960 . S
C788 H780 0.929 . S
C788 C789 1.377 . S
C788 C790 1.384 . S
C789 C788 1.377 . S
C789 C795 1.390 . S
C790 H781 0.930 . S
C790 C788 1.384 . S
C790 C791 1.372 . S
C791 C790 1.372 . S
C791 C792 1.400 . S
C791 C796 1.490 . S
C792 H782 0.930 . S
C792 C791 1.400 . S
C792 C795 1.386 . S
H793 C809 0.930 . S
H794 C810 0.931 . S
C795 H783 0.929 . S
C795 C789 1.390 . S
C795 C792 1.386 . S
C796 C791 1.490 . S
C796 C798 1.395 . S
C796 C799 1.403 . S
H797 C803 0.930 . S
C798 H784 0.930 . S
C798 C796 1.395 . S
C798 C801 1.403 . S
C799 C796 1.403 . S
C799 C800 1.524 . S
C799 C803 1.400 . S
C800 H785 0.960 . S
C800 H786 0.960 . S
C800 H787 0.960 . S
C800 C799 1.524 . S
C801 C798 1.403 . S
C801 C802 1.392 . S
C801 C805 1.495 . S
C802 C801 1.392 . S
C802 C803 1.385 . S
C802 C804 1.478 . S
C803 H797 0.930 . S
C803 C799 1.400 . S
C803 C802 1.385 . S
C804 C802 1.478 . S
C804 C806 1.381 . S
C804 C810 1.383 . S
C805 C801 1.495 . S
C805 H811 0.959 . S
C805 H812 0.961 . S
C805 H813 0.960 . S
C806 C804 1.381 . S
C806 C807 1.394 . S
C806 H814 0.930 . S
C807 C806 1.394 . S
C807 C808 1.383 . S
C807 H815 0.929 . S
C808 C807 1.383 . S
C808 C809 1.377 . S
C809 H793 0.930 . S
C809 C808 1.377 . S
C809 C810 1.379 . S
C810 H794 0.931 . S
C810 C804 1.383 . S
C810 C809 1.379 . S
H811 C805 0.959 . S
H812 C805 0.961 . S
H813 C805 0.960 . S
H814 C806 0.930 . S
H815 C807 0.929 . S
H816 C824 0.929 . S
H817 C826 0.930 . S
H818 C828 0.930 . S
H819 C831 0.929 . S
H820 C834 0.930 . S
H821 C836 0.960 . S
H822 C836 0.960 . S
H823 C836 0.960 . S
C824 H816 0.929 . S
C824 C825 1.377 . S
C824 C826 1.384 . S
C825 C824 1.377 . S
C825 C831 1.390 . S
C826 H817 0.930 . S
C826 C824 1.384 . S
C826 C827 1.372 . S
C827 C826 1.372 . S
C827 C828 1.400 . S
C827 C832 1.490 . S
C828 H818 0.930 . S
C828 C827 1.400 . S
C828 C831 1.386 . S
H829 C845 0.930 . S
H830 C846 0.931 . S
C831 H819 0.929 . S
C831 C825 1.390 . S
C831 C828 1.386 . S
C832 C827 1.490 . S
C832 C834 1.395 . S
C832 C835 1.403 . S
H833 C839 0.930 . S
C834 H820 0.930 . S
C834 C832 1.395 . S
C834 C837 1.403 . S
C835 C832 1.403 . S
C835 C836 1.524 . S
C835 C839 1.400 . S
C836 H821 0.960 . S
C836 H822 0.960 . S
C836 H823 0.960 . S
C836 C835 1.524 . S
C837 C834 1.403 . S
C837 C838 1.392 . S
C837 C841 1.495 . S
C838 C837 1.392 . S
C838 C839 1.385 . S
C838 C840 1.478 . S
C839 H833 0.930 . S
C839 C835 1.400 . S
C839 C838 1.385 . S
C840 C838 1.478 . S
C840 C842 1.381 . S
C840 C846 1.383 . S
C841 C837 1.495 . S
C841 H847 0.959 . S
C841 H848 0.961 . S
C841 H849 0.960 . S
C842 C840 1.381 . S
C842 C843 1.394 . S
C842 H850 0.930 . S
C843 C842 1.394 . S
C843 C844 1.383 . S
C843 H851 0.929 . S
C844 C843 1.383 . S
C844 C845 1.377 . S
C845 H829 0.930 . S
C845 C844 1.377 . S
C845 C846 1.379 . S
C846 H830 0.931 . S
C846 C840 1.383 . S
C846 C845 1.379 . S
H847 C841 0.959 . S
H848 C841 0.961 . S
H849 C841 0.960 . S
H850 C842 0.930 . S
H851 C843 0.929 . S
H852 C860 0.929 . S
H853 C862 0.930 . S
H854 C864 0.930 . S
H855 C867 0.929 . S
H856 C870 0.930 . S
H857 C872 0.960 . S
H858 C872 0.960 . S
H859 C872 0.960 . S
C860 H852 0.929 . S
C860 C861 1.377 . S
C860 C862 1.384 . S
C861 C860 1.377 . S
C861 C867 1.390 . S
C862 H853 0.930 . S
C862 C860 1.384 . S
C862 C863 1.372 . S
C863 C862 1.372 . S
C863 C864 1.400 . S
C863 C868 1.490 . S
C864 H854 0.930 . S
C864 C863 1.400 . S
C864 C867 1.386 . S
H865 C881 0.930 . S
H866 C882 0.931 . S
C867 H855 0.929 . S
C867 C861 1.390 . S
C867 C864 1.386 . S
C868 C863 1.490 . S
C868 C870 1.395 . S
C868 C871 1.403 . S
H869 C875 0.930 . S
C870 H856 0.930 . S
C870 C868 1.395 . S
C870 C873 1.403 . S
C871 C868 1.403 . S
C871 C872 1.524 . S
C871 C875 1.400 . S
C872 H857 0.960 . S
C872 H858 0.960 . S
C872 H859 0.960 . S
C872 C871 1.524 . S
C873 C870 1.403 . S
C873 C874 1.392 . S
C873 C877 1.495 . S
C874 C873 1.392 . S
C874 C875 1.385 . S
C874 C876 1.478 . S
C875 H869 0.930 . S
C875 C871 1.400 . S
C875 C874 1.385 . S
C876 C874 1.478 . S
C876 C878 1.381 . S
C876 C882 1.383 . S
C877 C873 1.495 . S
C877 H883 0.959 . S
C877 H884 0.961 . S
C877 H885 0.960 . S
C878 C876 1.381 . S
C878 C879 1.394 . S
C878 H886 0.930 . S
C879 C878 1.394 . S
C879 C880 1.383 . S
C879 H887 0.929 . S
C880 C879 1.383 . S
C880 C881 1.377 . S
C881 H865 0.930 . S
C881 C880 1.377 . S
C881 C882 1.379 . S
C882 H866 0.931 . S
C882 C876 1.383 . S
C882 C881 1.379 . S
H883 C877 0.959 . S
H884 C877 0.961 . S
H885 C877 0.960 . S
H886 C878 0.930 . S
H887 C879 0.929 . S
H888 C896 0.929 . S
H889 C898 0.930 . S
H890 C900 0.930 . S
H891 C903 0.929 . S
H892 C906 0.930 . S
H893 C908 0.960 . S
H894 C908 0.960 . S
H895 C908 0.960 . S
C896 H888 0.929 . S
C896 C897 1.377 . S
C896 C898 1.384 . S
C897 C896 1.377 . S
C897 C903 1.390 . S
C898 H889 0.930 . S
C898 C896 1.384 . S
C898 C899 1.372 . S
C899 C898 1.372 . S
C899 C900 1.400 . S
C899 C904 1.490 . S
C900 H890 0.930 . S
C900 C899 1.400 . S
C900 C903 1.386 . S
H901 C917 0.930 . S
H902 C918 0.931 . S
C903 H891 0.929 . S
C903 C897 1.390 . S
C903 C900 1.386 . S
C904 C899 1.490 . S
C904 C906 1.395 . S
C904 C907 1.403 . S
H905 C911 0.930 . S
C906 H892 0.930 . S
C906 C904 1.395 . S
C906 C909 1.403 . S
C907 C904 1.403 . S
C907 C908 1.524 . S
C907 C911 1.400 . S
C908 H893 0.960 . S
C908 H894 0.960 . S
C908 H895 0.960 . S
C908 C907 1.524 . S
C909 C906 1.403 . S
C909 C910 1.392 . S
C909 C913 1.495 . S
C910 C909 1.392 . S
C910 C911 1.385 . S
C910 C912 1.478 . S
C911 H905 0.930 . S
C911 C907 1.400 . S
C911 C910 1.385 . S
C912 C910 1.478 . S
C912 C914 1.381 . S
C912 C918 1.383 . S
C913 C909 1.495 . S
C913 H919 0.959 . S
C913 H920 0.961 . S
C913 H921 0.960 . S
C914 C912 1.381 . S
C914 C915 1.394 . S
C914 H922 0.930 . S
C915 C914 1.394 . S
C915 C916 1.383 . S
C915 H923 0.929 . S
C916 C915 1.383 . S
C916 C917 1.377 . S
C917 H901 0.930 . S
C917 C916 1.377 . S
C917 C918 1.379 . S
C918 H902 0.931 . S
C918 C912 1.383 . S
C918 C917 1.379 . S
H919 C913 0.959 . S
H920 C913 0.961 . S
H921 C913 0.960 . S
H922 C914 0.930 . S
H923 C915 0.929 . S
H924 C932 0.929 . S
H925 C934 0.930 . S
H926 C936 0.930 . S
H927 C939 0.929 . S
H928 C942 0.930 . S
H929 C944 0.960 . S
H930 C944 0.960 . S
H931 C944 0.960 . S
C932 H924 0.929 . S
C932 C933 1.377 . S
C932 C934 1.384 . S
C933 C932 1.377 . S
C933 C939 1.390 . S
C934 H925 0.930 . S
C934 C932 1.384 . S
C934 C935 1.372 . S
C935 C934 1.372 . S
C935 C936 1.400 . S
C935 C940 1.490 . S
C936 H926 0.930 . S
C936 C935 1.400 . S
C936 C939 1.386 . S
H937 C953 0.930 . S
H938 C954 0.931 . S
C939 H927 0.929 . S
C939 C933 1.390 . S
C939 C936 1.386 . S
C940 C935 1.490 . S
C940 C942 1.395 . S
C940 C943 1.403 . S
H941 C947 0.930 . S
C942 H928 0.930 . S
C942 C940 1.395 . S
C942 C945 1.403 . S
C943 C940 1.403 . S
C943 C944 1.524 . S
C943 C947 1.400 . S
C944 H929 0.960 . S
C944 H930 0.960 . S
C944 H931 0.960 . S
C944 C943 1.524 . S
C945 C942 1.403 . S
C945 C946 1.392 . S
C945 C949 1.495 . S
C946 C945 1.392 . S
C946 C947 1.385 . S
C946 C948 1.478 . S
C947 H941 0.930 . S
C947 C943 1.400 . S
C947 C946 1.385 . S
C948 C946 1.478 . S
C948 C950 1.381 . S
C948 C954 1.383 . S
C949 C945 1.495 . S
C949 H955 0.959 . S
C949 H956 0.961 . S
C949 H957 0.960 . S
C950 C948 1.381 . S
C950 C951 1.394 . S
C950 H958 0.930 . S
C951 C950 1.394 . S
C951 C952 1.383 . S
C951 H959 0.929 . S
C952 C951 1.383 . S
C952 C953 1.377 . S
C953 H937 0.930 . S
C953 C952 1.377 . S
C953 C954 1.379 . S
C954 H938 0.931 . S
C954 C948 1.383 . S
C954 C953 1.379 . S
H955 C949 0.959 . S
H956 C949 0.961 . S
H957 C949 0.960 . S
H958 C950 0.930 . S
H959 C951 0.929 . S
H960 C968 0.929 . S
H961 C970 0.930 . S
H962 C972 0.930 . S
H963 C975 0.929 . S
H964 C978 0.930 . S
H965 C980 0.960 . S
H966 C980 0.960 . S
H967 C980 0.960 . S
C968 H960 0.929 . S
C968 C969 1.377 . S
C968 C970 1.384 . S
C969 C968 1.377 . S
C969 C975 1.390 . S
C970 H961 0.930 . S
C970 C968 1.384 . S
C970 C971 1.372 . S
C971 C970 1.372 . S
C971 C972 1.400 . S
C971 C976 1.490 . S
C972 H962 0.930 . S
C972 C971 1.400 . S
C972 C975 1.386 . S
H973 C989 0.930 . S
H974 C990 0.931 . S
C975 H963 0.929 . S
C975 C969 1.390 . S
C975 C972 1.386 . S
C976 C971 1.490 . S
C976 C978 1.395 . S
C976 C979 1.403 . S
H977 C983 0.930 . S
C978 H964 0.930 . S
C978 C976 1.395 . S
C978 C981 1.403 . S
C979 C976 1.403 . S
C979 C980 1.524 . S
C979 C983 1.400 . S
C980 H965 0.960 . S
C980 H966 0.960 . S
C980 H967 0.960 . S
C980 C979 1.524 . S
C981 C978 1.403 . S
C981 C982 1.392 . S
C981 C985 1.495 . S
C982 C981 1.392 . S
C982 C983 1.385 . S
C982 C984 1.478 . S
C983 H977 0.930 . S
C983 C979 1.400 . S
C983 C982 1.385 . S
C984 C982 1.478 . S
C984 C986 1.381 . S
C984 C990 1.383 . S
C985 C981 1.495 . S
C985 H991 0.959 . S
C985 H992 0.961 . S
C985 H993 0.960 . S
C986 C984 1.381 . S
C986 C987 1.394 . S
C986 H994 0.930 . S
C987 C986 1.394 . S
C987 C988 1.383 . S
C987 H995 0.929 . S
C988 C987 1.383 . S
C988 C989 1.377 . S
C989 H973 0.930 . S
C989 C988 1.377 . S
C989 C990 1.379 . S
C990 H974 0.931 . S
C990 C984 1.383 . S
C990 C989 1.379 . S
H991 C985 0.959 . S
H992 C985 0.961 . S
H993 C985 0.960 . S
H994 C986 0.930 . S
H995 C987 0.929 . S
H996 C1004 0.929 . S
H997 C1006 0.930 . S
H998 C1008 0.930 . S
H999 C1011 0.929 . S
H1000 C1014 0.930 . S
H1001 C1016 0.960 . S
H1002 C1016 0.960 . S
H1003 C1016 0.960 . S
C1004 H996 0.929 . S
C1004 C1005 1.377 . S
C1004 C1006 1.384 . S
C1005 C1004 1.377 . S
C1005 C1011 1.390 . S
C1006 H997 0.930 . S
C1006 C1004 1.384 . S
C1006 C1007 1.372 . S
C1007 C1006 1.372 . S
C1007 C1008 1.400 . S
C1007 C1012 1.490 . S
C1008 H998 0.930 . S
C1008 C1007 1.400 . S
C1008 C1011 1.386 . S
H1009 C1025 0.930 . S
H1010 C1026 0.931 . S
C1011 H999 0.929 . S
C1011 C1005 1.390 . S
C1011 C1008 1.386 . S
C1012 C1007 1.490 . S
C1012 C1014 1.395 . S
C1012 C1015 1.403 . S
H1013 C1019 0.930 . S
C1014 H1000 0.930 . S
C1014 C1012 1.395 . S
C1014 C1017 1.403 . S
C1015 C1012 1.403 . S
C1015 C1016 1.524 . S
C1015 C1019 1.400 . S
C1016 H1001 0.960 . S
C1016 H1002 0.960 . S
C1016 H1003 0.960 . S
C1016 C1015 1.524 . S
C1017 C1014 1.403 . S
C1017 C1018 1.392 . S
C1017 C1021 1.495 . S
C1018 C1017 1.392 . S
C1018 C1019 1.385 . S
C1018 C1020 1.478 . S
C1019 H1013 0.930 . S
C1019 C1015 1.400 . S
C1019 C1018 1.385 . S
C1020 C1018 1.478 . S
C1020 C1022 1.381 . S
C1020 C1026 1.383 . S
C1021 C1017 1.495 . S
C1021 H1027 0.959 . S
C1021 H1028 0.961 . S
C1021 H1029 0.960 . S
C1022 C1020 1.381 . S
C1022 C1023 1.394 . S
C1022 H1030 0.930 . S
C1023 C1022 1.394 . S
C1023 C1024 1.383 . S
C1023 H1031 0.929 . S
C1024 C1023 1.383 . S
C1024 C1025 1.377 . S
C1025 H1009 0.930 . S
C1025 C1024 1.377 . S
C1025 C1026 1.379 . S
C1026 H1010 0.931 . S
C1026 C1020 1.383 . S
C1026 C1025 1.379 . S
H1027 C1021 0.959 . S
H1028 C1021 0.961 . S
H1029 C1021 0.960 . S
H1030 C1022 0.930 . S
H1031 C1023 0.929 . S
H1032 C1040 0.929 . S
H1033 C1042 0.930 . S
H1034 C1044 0.930 . S
H1035 C1047 0.929 . S
H1036 C1050 0.930 . S
H1037 C1052 0.960 . S
H1038 C1052 0.960 . S
H1039 C1052 0.960 . S
C1040 H1032 0.929 . S
C1040 C1041 1.377 . S
C1040 C1042 1.384 . S
C1041 C1040 1.377 . S
C1041 C1047 1.390 . S
C1042 H1033 0.930 . S
C1042 C1040 1.384 . S
C1042 C1043 1.372 . S
C1043 C1042 1.372 . S
C1043 C1044 1.400 . S
C1043 C1048 1.490 . S
C1044 H1034 0.930 . S
C1044 C1043 1.400 . S
C1044 C1047 1.386 . S
H1045 C1061 0.930 . S
H1046 C1062 0.931 . S
C1047 H1035 0.929 . S
C1047 C1041 1.390 . S
C1047 C1044 1.386 . S
C1048 C1043 1.490 . S
C1048 C1050 1.395 . S
C1048 C1051 1.403 . S
H1049 C1055 0.930 . S
C1050 H1036 0.930 . S
C1050 C1048 1.395 . S
C1050 C1053 1.403 . S
C1051 C1048 1.403 . S
C1051 C1052 1.524 . S
C1051 C1055 1.400 . S
C1052 H1037 0.960 . S
C1052 H1038 0.960 . S
C1052 H1039 0.960 . S
C1052 C1051 1.524 . S
C1053 C1050 1.403 . S
C1053 C1054 1.392 . S
C1053 C1057 1.495 . S
C1054 C1053 1.392 . S
C1054 C1055 1.385 . S
C1054 C1056 1.478 . S
C1055 H1049 0.930 . S
C1055 C1051 1.400 . S
C1055 C1054 1.385 . S
C1056 C1054 1.478 . S
C1056 C1058 1.381 . S
C1056 C1062 1.383 . S
C1057 C1053 1.495 . S
C1057 H1063 0.959 . S
C1057 H1064 0.961 . S
C1057 H1065 0.960 . S
C1058 C1056 1.381 . S
C1058 C1059 1.394 . S
C1058 H1066 0.930 . S
C1059 C1058 1.394 . S
C1059 C1060 1.383 . S
C1059 H1067 0.929 . S
C1060 C1059 1.383 . S
C1060 C1061 1.377 . S
C1061 H1045 0.930 . S
C1061 C1060 1.377 . S
C1061 C1062 1.379 . S
C1062 H1046 0.931 . S
C1062 C1056 1.383 . S
C1062 C1061 1.379 . S
H1063 C1057 0.959 . S
H1064 C1057 0.961 . S
H1065 C1057 0.960 . S
H1066 C1058 0.930 . S
H1067 C1059 0.929 . S
H1068 C1076 0.929 . S
H1069 C1078 0.930 . S
H1070 C1080 0.930 . S
H1071 C1083 0.929 . S
H1072 C1086 0.930 . S
H1073 C1088 0.960 . S
H1074 C1088 0.960 . S
H1075 C1088 0.960 . S
C1076 H1068 0.929 . S
C1076 C1077 1.377 . S
C1076 C1078 1.384 . S
C1077 C1076 1.377 . S
C1077 C1083 1.390 . S
C1078 H1069 0.930 . S
C1078 C1076 1.384 . S
C1078 C1079 1.372 . S
C1079 C1078 1.372 . S
C1079 C1080 1.400 . S
C1079 C1084 1.490 . S
C1080 H1070 0.930 . S
C1080 C1079 1.400 . S
C1080 C1083 1.386 . S
H1081 C1097 0.930 . S
H1082 C1098 0.931 . S
C1083 H1071 0.929 . S
C1083 C1077 1.390 . S
C1083 C1080 1.386 . S
C1084 C1079 1.490 . S
C1084 C1086 1.395 . S
C1084 C1087 1.403 . S
H1085 C1091 0.930 . S
C1086 H1072 0.930 . S
C1086 C1084 1.395 . S
C1086 C1089 1.403 . S
C1087 C1084 1.403 . S
C1087 C1088 1.524 . S
C1087 C1091 1.400 . S
C1088 H1073 0.960 . S
C1088 H1074 0.960 . S
C1088 H1075 0.960 . S
C1088 C1087 1.524 . S
C1089 C1086 1.403 . S
C1089 C1090 1.392 . S
C1089 C1093 1.495 . S
C1090 C1089 1.392 . S
C1090 C1091 1.385 . S
C1090 C1092 1.478 . S
C1091 H1085 0.930 . S
C1091 C1087 1.400 . S
C1091 C1090 1.385 . S
C1092 C1090 1.478 . S
C1092 C1094 1.381 1_556 S
C1092 C1098 1.383 . S
C1093 C1089 1.495 . S
C1093 H1099 0.959 . S
C1093 H1100 0.961 . S
C1093 H1101 0.960 . S
C1094 C1092 1.381 1_554 S
C1094 C1095 1.394 . S
C1094 H1102 0.930 . S
C1095 C1094 1.394 . S
C1095 C1096 1.383 . S
C1095 H1103 0.929 . S
C1096 C1095 1.383 . S
C1096 C1097 1.377 . S
C1097 H1081 0.930 . S
C1097 C1096 1.377 . S
C1097 C1098 1.379 1_554 S
C1098 H1082 0.931 . S
C1098 C1092 1.383 . S
C1098 C1097 1.379 1_556 S
H1099 C1093 0.959 . S
H1100 C1093 0.961 . S
H1101 C1093 0.960 . S
H1102 C1094 0.930 . S
H1103 C1095 0.929 . S
H1104 C1112 0.929 1_545 S
H1105 C1114 0.930 . S
H1106 C1116 0.930 . S
H1107 C1119 0.929 . S
H1108 C1122 0.930 . S
H1109 C1124 0.960 . S
H1110 C1124 0.960 . S
H1111 C1124 0.960 . S
C1112 H1104 0.929 1_565 S
C1112 C1113 1.377 . S
C1112 C1114 1.384 . S
C1113 C1112 1.377 . S
C1113 C1119 1.390 . S
C1114 H1105 0.930 . S
C1114 C1112 1.384 . S
C1114 C1115 1.372 . S
C1115 C1114 1.372 . S
C1115 C1116 1.400 . S
C1115 C1120 1.490 . S
C1116 H1106 0.930 . S
C1116 C1115 1.400 . S
C1116 C1119 1.386 . S
H1117 C1133 0.930 . S
H1118 C1134 0.931 . S
C1119 H1107 0.929 . S
C1119 C1113 1.390 . S
C1119 C1116 1.386 . S
C1120 C1115 1.490 . S
C1120 C1122 1.395 . S
C1120 C1123 1.403 . S
H1121 C1127 0.930 . S
C1122 H1108 0.930 . S
C1122 C1120 1.395 . S
C1122 C1125 1.403 . S
C1123 C1120 1.403 . S
C1123 C1124 1.524 . S
C1123 C1127 1.400 . S
C1124 H1109 0.960 . S
C1124 H1110 0.960 . S
C1124 H1111 0.960 . S
C1124 C1123 1.524 . S
C1125 C1122 1.403 . S
C1125 C1126 1.392 . S
C1125 C1129 1.495 . S
C1126 C1125 1.392 . S
C1126 C1127 1.385 . S
C1126 C1128 1.478 . S
C1127 H1121 0.930 . S
C1127 C1123 1.400 . S
C1127 C1126 1.385 . S
C1128 C1126 1.478 . S
C1128 C1130 1.381 . S
C1128 C1134 1.383 . S
C1129 C1125 1.495 . S
C1129 H1135 0.959 . S
C1129 H1136 0.961 . S
C1129 H1137 0.960 . S
C1130 C1128 1.381 . S
C1130 C1131 1.394 . S
C1130 H1138 0.930 . S
C1131 C1130 1.394 . S
C1131 C1132 1.383 . S
C1131 H1139 0.929 . S
C1132 C1131 1.383 . S
C1132 C1133 1.377 . S
C1133 H1117 0.930 . S
C1133 C1132 1.377 . S
C1133 C1134 1.379 . S
C1134 H1118 0.931 . S
C1134 C1128 1.383 . S
C1134 C1133 1.379 . S
H1135 C1129 0.959 . S
H1136 C1129 0.961 . S
H1137 C1129 0.960 . S
H1138 C1130 0.930 . S
H1139 C1131 0.929 . S
H1140 C1148 0.929 . S
H1141 C1150 0.930 . S
H1142 C1152 0.930 . S
H1143 C1155 0.929 . S
H1144 C1158 0.930 . S
H1145 C1160 0.960 . S
H1146 C1160 0.960 . S
H1147 C1160 0.960 . S
C1148 H1140 0.929 . S
C1148 C1149 1.377 . S
C1148 C1150 1.384 . S
C1149 C1148 1.377 . S
C1149 C1155 1.390 . S
C1150 H1141 0.930 . S
C1150 C1148 1.384 . S
C1150 C1151 1.372 . S
C1151 C1150 1.372 . S
C1151 C1152 1.400 . S
C1151 C1156 1.490 . S
C1152 H1142 0.930 . S
C1152 C1151 1.400 . S
C1152 C1155 1.386 . S
H1153 C1169 0.930 . S
H1154 C1170 0.931 . S
C1155 H1143 0.929 . S
C1155 C1149 1.390 . S
C1155 C1152 1.386 . S
C1156 C1151 1.490 . S
C1156 C1158 1.395 . S
C1156 C1159 1.403 . S
H1157 C1163 0.930 . S
C1158 H1144 0.930 . S
C1158 C1156 1.395 . S
C1158 C1161 1.403 . S
C1159 C1156 1.403 . S
C1159 C1160 1.524 . S
C1159 C1163 1.400 . S
C1160 H1145 0.960 . S
C1160 H1146 0.960 . S
C1160 H1147 0.960 . S
C1160 C1159 1.524 . S
C1161 C1158 1.403 . S
C1161 C1162 1.392 . S
C1161 C1165 1.495 . S
C1162 C1161 1.392 . S
C1162 C1163 1.385 . S
C1162 C1164 1.478 . S
C1163 H1157 0.930 . S
C1163 C1159 1.400 . S
C1163 C1162 1.385 . S
C1164 C1162 1.478 . S
C1164 C1166 1.381 . S
C1164 C1170 1.383 . S
C1165 C1161 1.495 . S
C1165 H1171 0.959 . S
C1165 H1172 0.961 . S
C1165 H1173 0.960 . S
C1166 C1164 1.381 . S
C1166 C1167 1.394 . S
C1166 H1174 0.930 . S
C1167 C1166 1.394 . S
C1167 C1168 1.383 . S
C1167 H1175 0.929 . S
C1168 C1167 1.383 . S
C1168 C1169 1.377 . S
C1169 H1153 0.930 . S
C1169 C1168 1.377 . S
C1169 C1170 1.379 . S
C1170 H1154 0.931 . S
C1170 C1164 1.383 . S
C1170 C1169 1.379 . S
H1171 C1165 0.959 . S
H1172 C1165 0.961 . S
H1173 C1165 0.960 . S
H1174 C1166 0.930 . S
H1175 C1167 0.929 . S
H1176 C1184 0.929 . S
H1177 C1186 0.930 . S
H1178 C1188 0.930 . S
H1179 C1191 0.929 . S
H1180 C1194 0.930 . S
H1181 C1196 0.960 . S
H1182 C1196 0.960 . S
H1183 C1196 0.960 . S
C1184 H1176 0.929 . S
C1184 C1185 1.377 . S
C1184 C1186 1.384 . S
C1185 C1184 1.377 . S
C1185 C1191 1.390 . S
C1186 H1177 0.930 . S
C1186 C1184 1.384 . S
C1186 C1187 1.372 . S
C1187 C1186 1.372 . S
C1187 C1188 1.400 . S
C1187 C1192 1.490 . S
C1188 H1178 0.930 . S
C1188 C1187 1.400 . S
C1188 C1191 1.386 . S
H1189 C1205 0.930 . S
H1190 C1206 0.931 . S
C1191 H1179 0.929 . S
C1191 C1185 1.390 . S
C1191 C1188 1.386 . S
C1192 C1187 1.490 . S
C1192 C1194 1.395 . S
C1192 C1195 1.403 . S
H1193 C1199 0.930 . S
C1194 H1180 0.930 . S
C1194 C1192 1.395 . S
C1194 C1197 1.403 . S
C1195 C1192 1.403 . S
C1195 C1196 1.524 . S
C1195 C1199 1.400 . S
C1196 H1181 0.960 . S
C1196 H1182 0.960 . S
C1196 H1183 0.960 . S
C1196 C1195 1.524 . S
C1197 C1194 1.403 . S
C1197 C1198 1.392 . S
C1197 C1201 1.495 . S
C1198 C1197 1.392 . S
C1198 C1199 1.385 . S
C1198 C1200 1.478 . S
C1199 H1193 0.930 . S
C1199 C1195 1.400 . S
C1199 C1198 1.385 . S
C1200 C1198 1.478 . S
C1200 C1202 1.381 . S
C1200 C1206 1.383 . S
C1201 C1197 1.495 . S
C1201 H1207 0.959 . S
C1201 H1208 0.961 . S
C1201 H1209 0.960 . S
C1202 C1200 1.381 . S
C1202 C1203 1.394 . S
C1202 H1210 0.930 . S
C1203 C1202 1.394 . S
C1203 C1204 1.383 . S
C1203 H1211 0.929 . S
C1204 C1203 1.383 . S
C1204 C1205 1.377 . S
C1205 H1189 0.930 . S
C1205 C1204 1.377 . S
C1205 C1206 1.379 . S
C1206 H1190 0.931 . S
C1206 C1200 1.383 . S
C1206 C1205 1.379 . S
H1207 C1201 0.959 . S
H1208 C1201 0.961 . S
H1209 C1201 0.960 . S
H1210 C1202 0.930 . S
H1211 C1203 0.929 . S
H1212 C1220 0.929 . S
H1213 C1222 0.930 . S
H1214 C1224 0.930 . S
H1215 C1227 0.929 . S
H1216 C1230 0.930 . S
H1217 C1232 0.960 . S
H1218 C1232 0.960 . S
H1219 C1232 0.960 . S
C1220 H1212 0.929 . S
C1220 C1221 1.377 . S
C1220 C1222 1.384 . S
C1221 C1220 1.377 . S
C1221 C1227 1.390 . S
C1222 H1213 0.930 . S
C1222 C1220 1.384 . S
C1222 C1223 1.372 . S
C1223 C1222 1.372 . S
C1223 C1224 1.400 . S
C1223 C1228 1.490 . S
C1224 H1214 0.930 . S
C1224 C1223 1.400 . S
C1224 C1227 1.386 . S
H1225 C1241 0.930 . S
H1226 C1242 0.931 . S
C1227 H1215 0.929 . S
C1227 C1221 1.390 . S
C1227 C1224 1.386 . S
C1228 C1223 1.490 . S
C1228 C1230 1.395 . S
C1228 C1231 1.403 . S
H1229 C1235 0.930 . S
C1230 H1216 0.930 . S
C1230 C1228 1.395 . S
C1230 C1233 1.403 . S
C1231 C1228 1.403 . S
C1231 C1232 1.524 . S
C1231 C1235 1.400 . S
C1232 H1217 0.960 . S
C1232 H1218 0.960 . S
C1232 H1219 0.960 . S
C1232 C1231 1.524 . S
C1233 C1230 1.403 . S
C1233 C1234 1.392 . S
C1233 C1237 1.495 . S
C1234 C1233 1.392 . S
C1234 C1235 1.385 . S
C1234 C1236 1.478 . S
C1235 H1229 0.930 . S
C1235 C1231 1.400 . S
C1235 C1234 1.385 . S
C1236 C1234 1.478 . S
C1236 C1238 1.381 . S
C1236 C1242 1.383 . S
C1237 C1233 1.495 . S
C1237 H1243 0.959 . S
C1237 H1244 0.961 . S
C1237 H1245 0.960 . S
C1238 C1236 1.381 . S
C1238 C1239 1.394 . S
C1238 H1246 0.930 . S
C1239 C1238 1.394 . S
C1239 C1240 1.383 . S
C1239 H1247 0.929 . S
C1240 C1239 1.383 . S
C1240 C1241 1.377 . S
C1241 H1225 0.930 . S
C1241 C1240 1.377 . S
C1241 C1242 1.379 . S
C1242 H1226 0.931 . S
C1242 C1236 1.383 . S
C1242 C1241 1.379 . S
H1243 C1237 0.959 . S
H1244 C1237 0.961 . S
H1245 C1237 0.960 . S
H1246 C1238 0.930 . S
H1247 C1239 0.929 . S
H1248 C1256 0.929 . S
H1249 C1258 0.930 . S
H1250 C1260 0.930 . S
H1251 C1263 0.929 . S
H1252 C1266 0.930 . S
H1253 C1268 0.960 . S
H1254 C1268 0.960 . S
H1255 C1268 0.960 . S
C1256 H1248 0.929 . S
C1256 C1257 1.377 . S
C1256 C1258 1.384 . S
C1257 C1256 1.377 . S
C1257 C1263 1.390 . S
C1258 H1249 0.930 . S
C1258 C1256 1.384 . S
C1258 C1259 1.372 . S
C1259 C1258 1.372 . S
C1259 C1260 1.400 . S
C1259 C1264 1.490 . S
C1260 H1250 0.930 . S
C1260 C1259 1.400 . S
C1260 C1263 1.386 . S
H1261 C1277 0.930 . S
H1262 C1278 0.931 . S
C1263 H1251 0.929 . S
C1263 C1257 1.390 . S
C1263 C1260 1.386 . S
C1264 C1259 1.490 . S
C1264 C1266 1.395 . S
C1264 C1267 1.403 . S
H1265 C1271 0.930 . S
C1266 H1252 0.930 . S
C1266 C1264 1.395 . S
C1266 C1269 1.403 . S
C1267 C1264 1.403 . S
C1267 C1268 1.524 . S
C1267 C1271 1.400 . S
C1268 H1253 0.960 . S
C1268 H1254 0.960 . S
C1268 H1255 0.960 . S
C1268 C1267 1.524 . S
C1269 C1266 1.403 . S
C1269 C1270 1.392 . S
C1269 C1273 1.495 . S
C1270 C1269 1.392 . S
C1270 C1271 1.385 . S
C1270 C1272 1.478 . S
C1271 H1265 0.930 . S
C1271 C1267 1.400 . S
C1271 C1270 1.385 . S
C1272 C1270 1.478 . S
C1272 C1274 1.381 . S
C1272 C1278 1.383 . S
C1273 C1269 1.495 . S
C1273 H1279 0.959 . S
C1273 H1280 0.961 . S
C1273 H1281 0.960 . S
C1274 C1272 1.381 . S
C1274 C1275 1.394 . S
C1274 H1282 0.930 . S
C1275 C1274 1.394 . S
C1275 C1276 1.383 . S
C1275 H1283 0.929 . S
C1276 C1275 1.383 . S
C1276 C1277 1.377 . S
C1277 H1261 0.930 . S
C1277 C1276 1.377 . S
C1277 C1278 1.379 . S
C1278 H1262 0.931 . S
C1278 C1272 1.383 . S
C1278 C1277 1.379 . S
H1279 C1273 0.959 . S
H1280 C1273 0.961 . S
H1281 C1273 0.960 . S
H1282 C1274 0.930 . S
H1283 C1275 0.929 . S
H1284 C1292 0.929 . S
H1285 C1294 0.930 . S
H1286 C1296 0.930 . S
H1287 C1299 0.929 . S
H1288 C1302 0.930 . S
H1289 C1304 0.960 . S
H1290 C1304 0.960 . S
H1291 C1304 0.960 . S
C1292 H1284 0.929 . S
C1292 C1293 1.377 . S
C1292 C1294 1.384 . S
C1293 C1292 1.377 . S
C1293 C1299 1.390 . S
C1294 H1285 0.930 . S
C1294 C1292 1.384 . S
C1294 C1295 1.372 . S
C1295 C1294 1.372 . S
C1295 C1296 1.400 . S
C1295 C1300 1.490 . S
C1296 H1286 0.930 . S
C1296 C1295 1.400 . S
C1296 C1299 1.386 . S
H1297 C1313 0.930 . S
H1298 C1314 0.931 . S
C1299 H1287 0.929 . S
C1299 C1293 1.390 . S
C1299 C1296 1.386 . S
C1300 C1295 1.490 . S
C1300 C1302 1.395 . S
C1300 C1303 1.403 . S
H1301 C1307 0.930 . S
C1302 H1288 0.930 . S
C1302 C1300 1.395 . S
C1302 C1305 1.403 . S
C1303 C1300 1.403 . S
C1303 C1304 1.524 . S
C1303 C1307 1.400 . S
C1304 H1289 0.960 . S
C1304 H1290 0.960 . S
C1304 H1291 0.960 . S
C1304 C1303 1.524 . S
C1305 C1302 1.403 . S
C1305 C1306 1.392 . S
C1305 C1309 1.495 . S
C1306 C1305 1.392 . S
C1306 C1307 1.385 . S
C1306 C1308 1.478 . S
C1307 H1301 0.930 . S
C1307 C1303 1.400 . S
C1307 C1306 1.385 . S
C1308 C1306 1.478 . S
C1308 C1310 1.381 . S
C1308 C1314 1.383 . S
C1309 C1305 1.495 . S
C1309 H1315 0.959 . S
C1309 H1316 0.961 . S
C1309 H1317 0.960 . S
C1310 C1308 1.381 . S
C1310 C1311 1.394 . S
C1310 H1318 0.930 . S
C1311 C1310 1.394 . S
C1311 C1312 1.383 . S
C1311 H1319 0.929 . S
C1312 C1311 1.383 . S
C1312 C1313 1.377 . S
C1313 H1297 0.930 . S
C1313 C1312 1.377 . S
C1313 C1314 1.379 . S
C1314 H1298 0.931 . S
C1314 C1308 1.383 . S
C1314 C1313 1.379 . S
H1315 C1309 0.959 . S
H1316 C1309 0.961 . S
H1317 C1309 0.960 . S
H1318 C1310 0.930 . S
H1319 C1311 0.929 . S
H1320 C1328 0.929 . S
H1321 C1330 0.930 . S
H1322 C1332 0.930 . S
H1323 C1335 0.929 . S
H1324 C1338 0.930 . S
H1325 C1340 0.960 . S
H1326 C1340 0.960 . S
H1327 C1340 0.960 . S
C1328 H1320 0.929 . S
C1328 C1329 1.377 . S
C1328 C1330 1.384 . S
C1329 C1328 1.377 . S
C1329 C1335 1.390 . S
C1330 H1321 0.930 . S
C1330 C1328 1.384 . S
C1330 C1331 1.372 . S
C1331 C1330 1.372 . S
C1331 C1332 1.400 . S
C1331 C1336 1.490 . S
C1332 H1322 0.930 . S
C1332 C1331 1.400 . S
C1332 C1335 1.386 . S
H1333 C1349 0.930 . S
H1334 C1350 0.931 . S
C1335 H1323 0.929 . S
C1335 C1329 1.390 . S
C1335 C1332 1.386 . S
C1336 C1331 1.490 . S
C1336 C1338 1.395 . S
C1336 C1339 1.403 . S
H1337 C1343 0.930 . S
C1338 H1324 0.930 . S
C1338 C1336 1.395 . S
C1338 C1341 1.403 . S
C1339 C1336 1.403 . S
C1339 C1340 1.524 . S
C1339 C1343 1.400 . S
C1340 H1325 0.960 . S
C1340 H1326 0.960 . S
C1340 H1327 0.960 . S
C1340 C1339 1.524 . S
C1341 C1338 1.403 . S
C1341 C1342 1.392 . S
C1341 C1345 1.495 1_554 S
C1342 C1341 1.392 . S
C1342 C1343 1.385 . S
C1342 C1344 1.478 1_554 S
C1343 H1337 0.930 . S
C1343 C1339 1.400 . S
C1343 C1342 1.385 . S
C1344 C1342 1.478 1_556 S
C1344 C1346 1.381 . S
C1344 C1350 1.383 . S
C1345 C1341 1.495 1_556 S
C1345 H1351 0.959 . S
C1345 H1352 0.961 . S
C1345 H1353 0.960 . S
C1346 C1344 1.381 . S
C1346 C1347 1.394 . S
C1346 H1354 0.930 . S
C1347 C1346 1.394 . S
C1347 C1348 1.383 . S
C1347 H1355 0.929 . S
C1348 C1347 1.383 . S
C1348 C1349 1.377 . S
C1349 H1333 0.930 . S
C1349 C1348 1.377 . S
C1349 C1350 1.379 . S
C1350 H1334 0.931 . S
C1350 C1344 1.383 . S
C1350 C1349 1.379 . S
H1351 C1345 0.959 . S
H1352 C1345 0.961 . S
H1353 C1345 0.960 . S
H1354 C1346 0.930 . S
H1355 C1347 0.929 . S
H1356 C1364 0.929 . S
H1357 C1366 0.930 . S
H1358 C1368 0.930 . S
H1359 C1371 0.929 . S
H1360 C1374 0.930 . S
H1361 C1376 0.960 . S
H1362 C1376 0.960 . S
H1363 C1376 0.960 . S
C1364 H1356 0.929 . S
C1364 C1365 1.377 . S
C1364 C1366 1.384 . S
C1365 C1364 1.377 . S
C1365 C1371 1.390 . S
C1366 H1357 0.930 . S
C1366 C1364 1.384 . S
C1366 C1367 1.372 . S
C1367 C1366 1.372 . S
C1367 C1368 1.400 . S
C1367 C1372 1.490 . S
C1368 H1358 0.930 . S
C1368 C1367 1.400 . S
C1368 C1371 1.386 . S
H1369 C1385 0.930 . S
H1370 C1386 0.931 . S
C1371 H1359 0.929 . S
C1371 C1365 1.390 . S
C1371 C1368 1.386 . S
C1372 C1367 1.490 . S
C1372 C1374 1.395 . S
C1372 C1375 1.403 . S
H1373 C1379 0.930 . S
C1374 H1360 0.930 . S
C1374 C1372 1.395 . S
C1374 C1377 1.403 . S
C1375 C1372 1.403 . S
C1375 C1376 1.524 . S
C1375 C1379 1.400 . S
C1376 H1361 0.960 . S
C1376 H1362 0.960 . S
C1376 H1363 0.960 . S
C1376 C1375 1.524 . S
C1377 C1374 1.403 . S
C1377 C1378 1.392 . S
C1377 C1381 1.495 . S
C1378 C1377 1.392 . S
C1378 C1379 1.385 . S
C1378 C1380 1.478 . S
C1379 H1373 0.930 . S
C1379 C1375 1.400 . S
C1379 C1378 1.385 . S
C1380 C1378 1.478 . S
C1380 C1382 1.381 . S
C1380 C1386 1.383 . S
C1381 C1377 1.495 . S
C1381 H1387 0.959 . S
C1381 H1388 0.961 . S
C1381 H1389 0.960 . S
C1382 C1380 1.381 . S
C1382 C1383 1.394 . S
C1382 H1390 0.930 . S
C1383 C1382 1.394 . S
C1383 C1384 1.383 . S
C1383 H1391 0.929 . S
C1384 C1383 1.383 . S
C1384 C1385 1.377 . S
C1385 H1369 0.930 . S
C1385 C1384 1.377 . S
C1385 C1386 1.379 . S
C1386 H1370 0.931 . S
C1386 C1380 1.383 . S
C1386 C1385 1.379 . S
H1387 C1381 0.959 . S
H1388 C1381 0.961 . S
H1389 C1381 0.960 . S
H1390 C1382 0.930 . S
H1391 C1383 0.929 . S
C556 C521 1.254 . S
C537 C51 1.243 . S
C573 C125 1.324 . S
C592 C455 1.319 . S
C609 C217 2.525 . S
C628 C469 2.519 . S
C645 C291 1.372 . S
C664 C483 1.358 . S
C700 C497 0.676 . S
C681 C347 0.711 . S
C717 C421 0.632 . S
C736 C507 0.652 . S
C753 C143 2.391 . S
C772 C465 2.390 . S
C789 C199 1.575 . S
C808 C479 1.589 . S
C825 C273 0.251 . S
C844 C493 0.229 . S
C880 C511 1.577 . S
C861 C365 1.574 . S
C916 C525 1.773 . S
C897 C439 1.804 . S
C952 C451 2.492 . S
C933 C69 2.467 . S
C969 C63 1.298 . S
C988 C466 1.332 . S
C1005 C137 1.607 . S
C1024 C480 1.635 . S
C1060 C494 1.325 . S
C1041 C187 1.320 . S
C1077 C261 1.396 . S
C1096 C513 1.355 . S
C1132 C527 1.225 . S
C1113 C359 1.285 . S
C1168 C452 0.869 . S
C1149 C433 0.872 . S
C1204 C522 1.582 . S
C1185 C113 1.578 . S
C1221 C211 1.075 . S
C1240 C457 1.055 . S
C1276 C471 1.303 . S
C1257 C285 1.274 . S
C1293 C335 1.247 . S
C1312 C485 1.216 . S
C1329 C409 1.247 . S
C1348 C499 1.252 . S
C1365 C39 1.636 . S
C1384 C508 1.652 . S
