# Generated by pormake.
# Topology pyr, (3,6)-cn, num edge types: 1
# Building blocks:
#     Node 0, Type 0, BuildingBlock: BELTOD_clean_linker_0, # of connection points: 3
#     Node 1, Type 0, BuildingBlock: BELTOD_clean_linker_0, # of connection points: 3
#     Node 2, Type 0, BuildingBlock: BELTOD_clean_linker_0, # of connection points: 3
#     Node 3, Type 0, BuildingBlock: BELTOD_clean_linker_0, # of connection points: 3
#     Node 4, Type 0, BuildingBlock: BELTOD_clean_linker_0, # of connection points: 3
#     Node 5, Type 0, BuildingBlock: BELTOD_clean_linker_0, # of connection points: 3
#     Node 6, Type 0, BuildingBlock: BELTOD_clean_linker_0, # of connection points: 3
#     Node 7, Type 0, BuildingBlock: BELTOD_clean_linker_0, # of connection points: 3
#     Node 8, Type 1, BuildingBlock: BETDEL_clean_sbu_0, # of connection points: 6
#     Node 9, Type 1, BuildingBlock: BETDEL_clean_sbu_0, # of connection points: 6
#     Node 10, Type 1, BuildingBlock: BETDEL_clean_sbu_0, # of connection points: 6
#     Node 11, Type 1, BuildingBlock: BETDEL_clean_sbu_0, # of connection points: 6
#     Edge 12, Type (0, 1), BuildingBlock: UVAHIK_clean_linker_0, # of connection points: 2
#     Edge 13, Type (0, 1), BuildingBlock: UVAHIK_clean_linker_0, # of connection points: 2
#     Edge 14, Type (0, 1), BuildingBlock: UVAHIK_clean_linker_0, # of connection points: 2
#     Edge 15, Type (0, 1), BuildingBlock: UVAHIK_clean_linker_0, # of connection points: 2
#     Edge 16, Type (0, 1), BuildingBlock: UVAHIK_clean_linker_0, # of connection points: 2
#     Edge 17, Type (0, 1), BuildingBlock: UVAHIK_clean_linker_0, # of connection points: 2
#     Edge 18, Type (0, 1), BuildingBlock: UVAHIK_clean_linker_0, # of connection points: 2
#     Edge 19, Type (0, 1), BuildingBlock: UVAHIK_clean_linker_0, # of connection points: 2
#     Edge 20, Type (0, 1), BuildingBlock: UVAHIK_clean_linker_0, # of connection points: 2
#     Edge 21, Type (0, 1), BuildingBlock: UVAHIK_clean_linker_0, # of connection points: 2
#     Edge 22, Type (0, 1), BuildingBlock: UVAHIK_clean_linker_0, # of connection points: 2
#     Edge 23, Type (0, 1), BuildingBlock: UVAHIK_clean_linker_0, # of connection points: 2
#     Edge 24, Type (0, 1), BuildingBlock: UVAHIK_clean_linker_0, # of connection points: 2
#     Edge 25, Type (0, 1), BuildingBlock: UVAHIK_clean_linker_0, # of connection points: 2
#     Edge 26, Type (0, 1), BuildingBlock: UVAHIK_clean_linker_0, # of connection points: 2
#     Edge 27, Type (0, 1), BuildingBlock: UVAHIK_clean_linker_0, # of connection points: 2
#     Edge 28, Type (0, 1), BuildingBlock: UVAHIK_clean_linker_0, # of connection points: 2
#     Edge 29, Type (0, 1), BuildingBlock: UVAHIK_clean_linker_0, # of connection points: 2
#     Edge 30, Type (0, 1), BuildingBlock: UVAHIK_clean_linker_0, # of connection points: 2
#     Edge 31, Type (0, 1), BuildingBlock: UVAHIK_clean_linker_0, # of connection points: 2
#     Edge 32, Type (0, 1), BuildingBlock: UVAHIK_clean_linker_0, # of connection points: 2
#     Edge 33, Type (0, 1), BuildingBlock: UVAHIK_clean_linker_0, # of connection points: 2
#     Edge 34, Type (0, 1), BuildingBlock: UVAHIK_clean_linker_0, # of connection points: 2
#     Edge 35, Type (0, 1), BuildingBlock: UVAHIK_clean_linker_0, # of connection points: 2
# Relax obj value: 0.025
# Max RMSD: 0.090
# Mean RMSD: 0.039
data_MOF--net-pyr--node1-BETDEL_clean_sbu_0--node2-BELTOD_clean_linker_0--edge1-UVAHIK_clean_linker_0
_symmetry_space_group_name_H-M    P1
_symmetry_Int_Tables_number       1
_symmetry_cell_setting            triclinic
loop_
_symmetry_equiv_pos_as_xyz
'x, y, z'
_cell_length_a     52.746207
_cell_length_b     55.113391
_cell_length_c     49.998283
_cell_angle_alpha  91.880985
_cell_angle_beta   89.456961
_cell_angle_gamma 94.410933
loop_
_atom_site_label
_atom_site_type_symbol
_atom_site_fract_x
_atom_site_fract_y
_atom_site_fract_z
_atom_type_partial_charge
P0 P 0.23825 0.23906 0.22034 0.0
H1 H 0.29035 0.24171 0.19963 0.0
H2 H 0.3149 0.21226 0.17487 0.0
H3 H 0.25003 0.15945 0.17651 0.0
H4 H 0.22564 0.18893 0.20112 0.0
H5 H 0.24212 0.28886 0.20082 0.0
H6 H 0.21724 0.30908 0.16827 0.0
H7 H 0.17188 0.24157 0.15245 0.0
H8 H 0.19681 0.22149 0.185 0.0
H9 H 0.24374 0.19933 0.25655 0.0
H10 H 0.18551 0.24639 0.23652 0.0
O11 O 0.25762 0.25932 0.23723 0.0
H12 H 0.21341 0.17605 0.28489 0.0
H13 H 0.15516 0.22328 0.2649 0.0
C14 C 0.25647 0.21724 0.20285 0.0
C15 C 0.28152 0.22373 0.19482 0.0
C16 C 0.29543 0.20698 0.18051 0.0
C17 C 0.28441 0.18351 0.17397 0.0
C18 C 0.25913 0.17725 0.18168 0.0
C19 C 0.2452 0.19408 0.19576 0.0
C20 C 0.221 0.25381 0.19556 0.0
C21 C 0.22689 0.27841 0.19027 0.0
C22 C 0.21279 0.28989 0.17156 0.0
C23 C 0.19255 0.2769 0.15797 0.0
C24 C 0.18717 0.25207 0.16287 0.0
C25 C 0.20143 0.24059 0.18137 0.0
C26 C 0.21663 0.22398 0.24364 0.0
C27 C 0.22446 0.20472 0.25835 0.0
C28 C 0.20715 0.19153 0.27468 0.0
C29 C 0.18178 0.19761 0.27677 0.0
C30 C 0.17442 0.21782 0.26317 0.0
C31 C 0.19178 0.23104 0.24693 0.0
P32 P 0.32761 0.86089 0.62759 0.0
H33 H 0.37374 0.86603 0.65897 0.0
H34 H 0.38171 0.8695 0.70714 0.0
H35 H 0.30078 0.86466 0.72245 0.0
H36 H 0.29292 0.86086 0.67427 0.0
H37 H 0.36407 0.84325 0.58844 0.0
H38 H 0.3777 0.80273 0.57755 0.0
H39 H 0.32233 0.77169 0.63348 0.0
H40 H 0.30866 0.81246 0.64424 0.0
H41 H 0.29934 0.90326 0.63789 0.0
H42 H 0.28601 0.83282 0.59824 0.0
O43 O 0.34744 0.88144 0.61276 0.0
H44 H 0.25674 0.91338 0.62583 0.0
H45 H 0.24316 0.84258 0.58657 0.0
C46 C 0.3328 0.86383 0.66306 0.0
C47 C 0.35773 0.86581 0.67271 0.0
C48 C 0.36224 0.86758 0.7002 0.0
C49 C 0.34184 0.86744 0.7185 0.0
C50 C 0.31683 0.86512 0.70876 0.0
C51 C 0.31235 0.86304 0.68123 0.0
C52 C 0.33539 0.8308 0.61717 0.0
C53 C 0.35465 0.82774 0.59817 0.0
C54 C 0.36253 0.80457 0.59207 0.0
C55 C 0.35122 0.78406 0.60483 0.0
C56 C 0.33128 0.78713 0.62321 0.0
C57 C 0.32351 0.81037 0.62942 0.0
C58 C 0.29574 0.86724 0.61922 0.0
C59 C 0.28711 0.88988 0.62681 0.0
C60 C 0.2627 0.89557 0.62005 0.0
C61 C 0.24647 0.87872 0.60537 0.0
C62 C 0.25524 0.85601 0.59774 0.0
C63 C 0.27971 0.85034 0.60457 0.0
P64 P 0.66595 0.30122 0.81231 0.0
H65 H 0.71874 0.29237 0.82156 0.0
H66 H 0.75179 0.31258 0.84989 0.0
H67 H 0.69823 0.36223 0.88081 0.0
H68 H 0.66523 0.34206 0.85178 0.0
H69 H 0.64706 0.25183 0.79639 0.0
H70 H 0.62335 0.2193 0.81998 0.0
H71 H 0.61988 0.26658 0.8904 0.0
H72 H 0.64404 0.29909 0.86662 0.0
H73 H 0.67449 0.35241 0.79807 0.0
H74 H 0.6139 0.29533 0.79221 0.0
O75 O 0.68103 0.28814 0.78681 0.0
H76 H 0.64983 0.37847 0.77143 0.0
H77 H 0.58934 0.32122 0.76523 0.0
C78 C 0.68973 0.31609 0.83412 0.0
C79 C 0.7141 0.30766 0.83435 0.0
C80 C 0.73294 0.3191 0.8508 0.0
C81 C 0.7277 0.33909 0.8676 0.0
C82 C 0.70299 0.34713 0.86781 0.0
C83 C 0.68411 0.3356 0.8513 0.0
C84 C 0.64772 0.27772 0.8299 0.0
C85 C 0.64129 0.25522 0.81692 0.0
C86 C 0.62752 0.23667 0.83039 0.0
C87 C 0.61975 0.24031 0.85713 0.0
C88 C 0.62589 0.26309 0.86995 0.0
C89 C 0.63963 0.2817 0.85637 0.0
C90 C 0.64578 0.32213 0.7978 0.0
C91 C 0.65556 0.34575 0.79183 0.0
C92 C 0.64147 0.36063 0.77652 0.0
C93 C 0.61765 0.35188 0.7663 0.0
C94 C 0.60766 0.32842 0.77283 0.0
C95 C 0.62162 0.31368 0.78842 0.0
P96 P 0.79034 0.68685 0.29581 0.0
H97 H 0.82248 0.72722 0.27517 0.0
H98 H 0.84869 0.76066 0.29663 0.0
H99 H 0.82813 0.73226 0.37418 0.0
H100 H 0.80327 0.69829 0.35249 0.0
H101 H 0.7751 0.65308 0.25208 0.0
H102 H 0.79877 0.62718 0.22174 0.0
H103 H 0.86864 0.65272 0.26144 0.0
H104 H 0.84484 0.67839 0.29189 0.0
H105 H 0.75102 0.69896 0.33387 0.0
H106 H 0.78903 0.63506 0.30993 0.0
O107 O 0.77002 0.70047 0.27703 0.0
H108 H 0.7244 0.67482 0.36515 0.0
H109 H 0.76211 0.61079 0.34077 0.0
C110 C 0.81067 0.71046 0.31219 0.0
C111 C 0.82383 0.72815 0.29679 0.0
C112 C 0.83864 0.74737 0.30914 0.0
C113 C 0.84036 0.74941 0.33722 0.0
C114 C 0.82753 0.73124 0.35253 0.0
C115 C 0.81298 0.71185 0.34011 0.0
C116 C 0.80826 0.66796 0.27386 0.0
C117 C 0.79552 0.65313 0.25419 0.0
C118 C 0.80903 0.63824 0.23701 0.0
C119 C 0.83556 0.63805 0.23916 0.0
C120 C 0.84824 0.65277 0.25912 0.0
C121 C 0.83465 0.66744 0.27651 0.0
C122 C 0.77185 0.66882 0.31946 0.0
C123 C 0.75366 0.67976 0.3354 0.0
C124 C 0.73858 0.666 0.35333 0.0
C125 C 0.74121 0.64094 0.35531 0.0
C126 C 0.75959 0.63003 0.33946 0.0
C127 C 0.77497 0.64392 0.32182 0.0
P128 P 0.84044 0.85564 0.90456 0.0
H129 H 0.81453 0.88513 0.9443 0.0
H130 H 0.7711 0.89728 0.94773 0.0
H131 H 0.75125 0.85432 0.87606 0.0
H132 H 0.79489 0.84191 0.87298 0.0
H133 H 0.88317 0.82632 0.89547 0.0
H134 H 0.89038 0.78428 0.90509 0.0
H135 H 0.81439 0.77407 0.93798 0.0
H136 H 0.80736 0.81633 0.92843 0.0
H137 H 0.85853 0.90153 0.88142 0.0
H138 H 0.84373 0.82673 0.85428 0.0
O139 O 0.85847 0.87261 0.92637 0.0
H140 H 0.8724 0.91253 0.83626 0.0
H141 H 0.8579 0.83756 0.80915 0.0
C142 C 0.80793 0.86287 0.90821 0.0
C143 C 0.80084 0.87821 0.92939 0.0
C144 C 0.77603 0.88525 0.93125 0.0
C145 C 0.75784 0.87701 0.91196 0.0
C146 C 0.76481 0.8609 0.89125 0.0
C147 C 0.78973 0.85391 0.88939 0.0
C148 C 0.8446 0.82426 0.91073 0.0
C149 C 0.86796 0.81495 0.90447 0.0
C150 C 0.87201 0.7909 0.90989 0.0
C151 C 0.85285 0.77581 0.92205 0.0
C152 C 0.8295 0.7853 0.92862 0.0
C153 C 0.82541 0.80939 0.92301 0.0
C154 C 0.85083 0.86324 0.87132 0.0
C155 C 0.85847 0.88745 0.86578 0.0
C156 C 0.86622 0.89373 0.83997 0.0
C157 C 0.86641 0.87584 0.81929 0.0
C158 C 0.85833 0.85162 0.82483 0.0
C159 C 0.85029 0.84542 0.85061 0.0
P160 P 0.76197 0.23547 0.30064 0.0
H161 H 0.76551 0.28623 0.32001 0.0
H162 H 0.73561 0.31099 0.34383 0.0
H163 H 0.68217 0.24778 0.34933 0.0
H164 H 0.71196 0.22333 0.32479 0.0
H165 H 0.81051 0.21514 0.29098 0.0
H166 H 0.83595 0.1894 0.31709 0.0
H167 H 0.77965 0.18945 0.38049 0.0
H168 H 0.75465 0.21568 0.35448 0.0
H169 H 0.74013 0.24422 0.24895 0.0
H170 H 0.74189 0.18429 0.30206 0.0
O171 O 0.78147 0.25439 0.28317 0.0
H172 H 0.71282 0.2188 0.21828 0.0
H173 H 0.71501 0.15863 0.27131 0.0
C174 C 0.74076 0.25308 0.32025 0.0
C175 C 0.74738 0.27771 0.32638 0.0
C176 C 0.7303 0.2918 0.3402 0.0
C177 C 0.70636 0.28143 0.34835 0.0
C178 C 0.70021 0.25647 0.34289 0.0
C179 C 0.71728 0.24243 0.32897 0.0
C180 C 0.78099 0.21771 0.321 0.0
C181 C 0.80382 0.20985 0.31065 0.0
C182 C 0.81821 0.19492 0.32549 0.0
C183 C 0.80986 0.18736 0.35091 0.0
C184 C 0.78685 0.19526 0.36118 0.0
C185 C 0.77248 0.21024 0.34629 0.0
C186 C 0.74346 0.21598 0.27745 0.0
C187 C 0.73496 0.22546 0.25378 0.0
C188 C 0.71939 0.2109 0.23626 0.0
C189 C 0.71185 0.18664 0.24228 0.0
C190 C 0.72034 0.17727 0.26617 0.0
C191 C 0.73593 0.19186 0.28365 0.0
P192 P 0.36664 0.64638 0.13254 0.0
H193 H 0.3393 0.64005 0.08224 0.0
H194 H 0.29486 0.62825 0.07123 0.0
H195 H 0.27678 0.62349 0.1554 0.0
H196 H 0.32123 0.63571 0.16635 0.0
H197 H 0.41026 0.67776 0.15161 0.0
H198 H 0.42474 0.72001 0.1436 0.0
H199 H 0.35776 0.72716 0.09612 0.0
H200 H 0.34283 0.68549 0.10551 0.0
H201 H 0.38043 0.59922 0.14941 0.0
H202 H 0.36862 0.66904 0.18686 0.0
O203 O 0.38391 0.63215 0.10967 0.0
H204 H 0.3918 0.58383 0.19252 0.0
H205 H 0.3809 0.65408 0.23011 0.0
C206 C 0.33362 0.6385 0.12506 0.0
C207 C 0.32575 0.63657 0.09833 0.0
C208 C 0.30035 0.62997 0.09207 0.0
C209 C 0.28241 0.6249 0.11247 0.0
C210 C 0.29028 0.6271 0.13929 0.0
C211 C 0.31567 0.63409 0.14555 0.0
C212 C 0.37518 0.67852 0.1297 0.0
C213 C 0.39837 0.68864 0.14008 0.0
C214 C 0.40681 0.71276 0.13512 0.0
C215 C 0.39253 0.72711 0.11905 0.0
C216 C 0.36911 0.71692 0.10896 0.0
C217 C 0.36055 0.69289 0.11423 0.0
C218 C 0.37444 0.63546 0.16482 0.0
C219 C 0.38056 0.61133 0.16692 0.0
C220 C 0.38718 0.60259 0.19161 0.0
C221 C 0.38773 0.61782 0.21478 0.0
C222 C 0.38067 0.64183 0.21272 0.0
C223 C 0.3739 0.6505 0.18796 0.0
P224 P 0.19721 0.30994 0.70531 0.0
H225 H 0.21149 0.26583 0.67749 0.0
H226 H 0.18709 0.23274 0.653 0.0
H227 H 0.1183 0.26895 0.66751 0.0
H228 H 0.14284 0.30227 0.69139 0.0
H229 H 0.23782 0.34784 0.71509 0.0
H230 H 0.26479 0.37346 0.68538 0.0
H231 H 0.22574 0.33949 0.61682 0.0
H232 H 0.19813 0.31458 0.64653 0.0
H233 H 0.15978 0.29439 0.74545 0.0
H234 H 0.19053 0.36251 0.71403 0.0
O235 O 0.21737 0.29664 0.72458 0.0
H236 H 0.13364 0.31634 0.77699 0.0
H237 H 0.16623 0.38462 0.74675 0.0
C238 C 0.1789 0.28616 0.68682 0.0
C239 C 0.19116 0.26664 0.67538 0.0
C240 C 0.17725 0.24784 0.66129 0.0
C241 C 0.15079 0.24822 0.65861 0.0
C242 C 0.13862 0.26807 0.66965 0.0
C243 C 0.15264 0.28707 0.68335 0.0
C244 C 0.21597 0.32932 0.68308 0.0
C245 C 0.23486 0.34611 0.69368 0.0
C246 C 0.25017 0.36076 0.67676 0.0
C247 C 0.24724 0.35838 0.6489 0.0
C248 C 0.22833 0.34157 0.63827 0.0
C249 C 0.21259 0.32733 0.65526 0.0
C250 C 0.17711 0.32672 0.72733 0.0
C251 C 0.16097 0.3141 0.74542 0.0
C252 C 0.14624 0.32675 0.7637 0.0
C253 C 0.14784 0.35239 0.76475 0.0
C254 C 0.16404 0.36493 0.74639 0.0
C255 C 0.17833 0.35222 0.72774 0.0
Dy256 Dy 0.00211 0.0087 0.47292 0.0
C257 C 0.96073 0.97003 0.57061 0.0
C258 C 0.01813 0.03472 0.42964 0.0
Dy259 Dy 0.97798 0.99317 0.5258 0.0
O260 O 0.02478 0.01318 0.43487 0.0
O261 O 0.00238 0.04184 0.44783 0.0
O262 O 0.0272 0.97779 0.47315 0.0
O263 O 0.01649 0.9942 0.50957 0.0
C264 C 0.02767 0.97681 0.49905 0.0
C265 C 0.95352 0.02568 0.49935 0.0
O266 O 0.00474 0.02326 0.54209 0.0
O267 O 0.01536 0.03988 0.501 0.0
O268 O 0.94965 0.98706 0.55911 0.0
O269 O 0.98141 0.96555 0.55766 0.0
O270 O 0.95437 0.0254 0.52527 0.0
O271 O 0.96393 0.00774 0.48918 0.0
O272 O 0.9738 0.97959 0.45736 0.0
O273 O 0.96732 0.96097 0.49807 0.0
C274 C 0.01559 0.04093 0.52756 0.0
C275 C 0.96525 0.96077 0.47161 0.0
Dy276 Dy 0.51024 0.01222 0.03451 0.0
C277 C 0.43436 0.95559 0.96829 0.0
C278 C 0.542 0.04103 0.06684 0.0
Dy279 Dy 0.46838 0.9878 0.99381 0.0
O280 O 0.52297 0.02674 0.07508 0.0
O281 O 0.54368 0.0396 0.04089 0.0
O282 O 0.51557 0.97485 0.04921 0.0
O283 O 0.47996 0.98277 0.03488 0.0
C284 C 0.49269 0.96613 0.04309 0.0
C285 C 0.49073 0.0297 0.97503 0.0
O286 O 0.44403 0.00673 0.02351 0.0
O287 O 0.47593 0.03247 0.04413 0.0
O288 O 0.43147 0.97864 0.97248 0.0
O289 O 0.45565 0.95006 0.97857 0.0
O290 O 0.4735 0.0162 0.96182 0.0
O291 O 0.49431 0.01956 0.99659 0.0
O292 O 0.53463 0.99827 0.00185 0.0
O293 O 0.5043 0.97045 0.98188 0.0
C294 C 0.45162 0.02551 0.03962 0.0
C295 C 0.52818 0.9796 0.98524 0.0
Dy296 Dy 0.50452 0.47994 0.48771 0.0
C297 C 0.46178 0.55775 0.54752 0.0
C298 C 0.53483 0.4479 0.46307 0.0
Dy299 Dy 0.48734 0.52204 0.52255 0.0
O300 O 0.51015 0.4465 0.46176 0.0
O301 O 0.54282 0.46683 0.47762 0.0
O302 O 0.46405 0.46462 0.48304 0.0
O303 O 0.47541 0.48347 0.51861 0.0
C304 C 0.45663 0.47366 0.50589 0.0
C305 C 0.53534 0.52781 0.50435 0.0
O306 O 0.49856 0.49858 0.55553 0.0
O307 O 0.52034 0.47232 0.52804 0.0
O308 O 0.48629 0.55754 0.54565 0.0
O309 O 0.45104 0.53812 0.53609 0.0
O310 O 0.52804 0.53646 0.52736 0.0
O311 O 0.51639 0.51843 0.4916 0.0
O312 O 0.49343 0.50369 0.45527 0.0
O313 O 0.46984 0.52854 0.48246 0.0
C314 C 0.51405 0.48084 0.55216 0.0
C315 C 0.47684 0.52046 0.45836 0.0
Dy316 Dy 0.00199 0.46764 0.0183 0.0
C317 C 0.95871 0.55471 0.98632 0.0
C318 C 0.02925 0.42883 0.02783 0.0
Dy319 Dy 0.9847 0.51513 0.9963 0.0
O320 O 0.00767 0.43293 0.03919 0.0
O321 O 0.0358 0.44581 0.01118 0.0
O322 O 0.97356 0.46934 0.05199 0.0
O323 O 0.99013 0.50155 0.0359 0.0
C324 C 0.9734 0.49289 0.05177 0.0
C325 C 0.01392 0.49012 0.96318 0.0
O326 O 0.02007 0.53093 0.01663 0.0
O327 O 0.03627 0.49397 0.02574 0.0
O328 O 0.97323 0.54407 0.96922 0.0
O329 O 0.95852 0.54385 0.00898 0.0
O330 O 0.01385 0.51371 0.96342 0.0
O331 O 0.9969 0.48122 0.97865 0.0
O332 O 0.96818 0.45239 0.99504 0.0
O333 O 0.94979 0.48908 0.99145 0.0
C334 C 0.0386 0.51812 0.02495 0.0
C335 C 0.94848 0.46492 0.98955 0.0
C336 C 0.1691 0.1733 0.31697 0.0
C337 C 0.16285 0.18223 0.29208 0.0
C338 C 0.15176 0.15761 0.33055 0.0
C339 C 0.0837 0.13568 0.33413 0.0
H340 H 0.11025 0.08107 0.36862 0.0
C341 C 0.0255 0.07506 0.40859 0.0
C342 C 0.03014 0.05034 0.40904 0.0
C343 C 0.03979 0.09075 0.39184 0.0
C344 C 0.10244 0.09602 0.3588 0.0
H345 H 0.13348 0.18182 0.26196 0.0
H346 H 0.10326 0.15434 0.2856 0.0
H347 H 0.13912 0.10959 0.345 0.0
H348 H 0.05207 0.02223 0.3913 0.0
H349 H 0.07665 0.04947 0.36157 0.0
H350 H 0.04691 0.1218 0.34764 0.0
C351 C 0.1214 0.15975 0.29483 0.0
C352 C 0.11907 0.11261 0.34561 0.0
C353 C 0.13871 0.17551 0.2813 0.0
C354 C 0.04825 0.04127 0.39143 0.0
C355 C 0.06245 0.05691 0.37459 0.0
C356 C 0.06701 0.11903 0.34732 0.0
C357 C 0.12783 0.15041 0.31948 0.0
C358 C 0.10994 0.13273 0.33328 0.0
C359 C 0.0589 0.08196 0.37516 0.0
C360 C 0.07622 0.09906 0.3599 0.0
H361 H 0.18742 0.17844 0.32595 0.0
H362 H 0.15711 0.15112 0.34975 0.0
H363 H 0.07607 0.15108 0.32497 0.0
H364 H 0.01164 0.0825 0.42204 0.0
H365 H 0.03667 0.10995 0.39292 0.0
C366 C 0.3341 0.88716 0.76338 0.0
C367 C 0.34679 0.8703 0.7476 0.0
C368 C 0.34032 0.89137 0.79033 0.0
C369 C 0.39366 0.88592 0.83641 0.0
H370 H 0.34496 0.90507 0.89017 0.0
C371 C 0.42654 0.91667 0.94175 0.0
C372 C 0.41863 0.93953 0.94983 0.0
C373 C 0.41457 0.9035 0.92042 0.0
C374 C 0.35874 0.89968 0.87537 0.0
H375 H 0.37489 0.84364 0.74791 0.0
H376 H 0.3854 0.85055 0.79509 0.0
H377 H 0.33007 0.89051 0.84592 0.0
H378 H 0.39092 0.96578 0.94349 0.0
H379 H 0.36998 0.9428 0.90629 0.0
H380 H 0.42234 0.89548 0.86559 0.0
C381 C 0.37114 0.86104 0.78654 0.0
C382 C 0.35026 0.89144 0.84999 0.0
C383 C 0.3651 0.85703 0.75954 0.0
C384 C 0.39741 0.9482 0.9376 0.0
C385 C 0.38535 0.93498 0.91637 0.0
C386 C 0.40209 0.89396 0.86177 0.0
C387 C 0.35922 0.87864 0.80215 0.0
C388 C 0.36769 0.88493 0.83002 0.0
C389 C 0.39441 0.91292 0.90693 0.0
C390 C 0.3848 0.90138 0.88138 0.0
H391 H 0.32007 0.8978 0.75462 0.0
H392 H 0.33101 0.90532 0.80157 0.0
H393 H 0.40772 0.88151 0.82146 0.0
H394 H 0.44281 0.90953 0.95094 0.0
H395 H 0.42172 0.88638 0.91381 0.0
C396 C 0.59603 0.35508 0.72245 0.0
C397 C 0.60453 0.36619 0.74677 0.0
C398 C 0.58566 0.36875 0.70286 0.0
C399 C 0.55373 0.42338 0.69022 0.0
H400 H 0.58393 0.41786 0.61949 0.0
C401 C 0.52391 0.48042 0.60131 0.0
C402 C 0.52365 0.46895 0.57578 0.0
C403 C 0.53376 0.46911 0.62325 0.0
C404 C 0.57495 0.41939 0.63897 0.0
H405 H 0.60809 0.40013 0.77003 0.0
H406 H 0.58933 0.42407 0.73575 0.0
H407 H 0.60011 0.39547 0.65594 0.0
H408 H 0.53264 0.43625 0.55345 0.0
H409 H 0.54879 0.41632 0.59149 0.0
H410 H 0.52794 0.44665 0.67309 0.0
C411 C 0.59093 0.40478 0.73192 0.0
C412 C 0.58437 0.40664 0.65989 0.0
C413 C 0.60173 0.39115 0.75142 0.0
C414 C 0.5329 0.44579 0.57276 0.0
C415 C 0.54236 0.43439 0.59464 0.0
C416 C 0.54398 0.4359 0.66912 0.0
C417 C 0.58324 0.39376 0.70728 0.0
C418 C 0.57371 0.4083 0.68563 0.0
C419 C 0.54328 0.44598 0.62014 0.0
C420 C 0.55428 0.43382 0.64312 0.0
H421 H 0.59819 0.33595 0.71818 0.0
H422 H 0.57972 0.3598 0.68409 0.0
H423 H 0.54516 0.4249 0.70992 0.0
H424 H 0.51696 0.49831 0.60425 0.0
H425 H 0.53434 0.47871 0.6425 0.0
C426 C 0.84125 0.59843 0.21457 0.0
C427 C 0.84992 0.62276 0.22039 0.0
C428 C 0.8545 0.58418 0.19643 0.0
C429 C 0.8981 0.5886 0.13909 0.0
H430 H 0.9131 0.52321 0.15652 0.0
C431 C 0.96436 0.53288 0.07317 0.0
C432 C 0.95855 0.50766 0.07032 0.0
C433 C 0.95073 0.54683 0.09124 0.0
C434 C 0.90874 0.54128 0.15112 0.0
H435 H 0.87915 0.6513 0.21173 0.0
H436 H 0.90226 0.62641 0.17988 0.0
H437 H 0.89003 0.54763 0.18865 0.0
H438 H 0.93376 0.47722 0.08362 0.0
H439 H 0.90944 0.5016 0.11473 0.0
H440 H 0.91631 0.58224 0.1014 0.0
C441 C 0.88523 0.61839 0.18939 0.0
C442 C 0.89561 0.55529 0.1696 0.0
C443 C 0.87214 0.63255 0.20776 0.0
C444 C 0.9387 0.49664 0.0856 0.0
C445 C 0.9249 0.51061 0.10353 0.0
C446 C 0.911 0.57452 0.12048 0.0
C447 C 0.87652 0.59407 0.18352 0.0
C448 C 0.89026 0.57913 0.16382 0.0
C449 C 0.93084 0.53588 0.10671 0.0
C450 C 0.9166 0.55071 0.1263 0.0
H451 H 0.82427 0.59038 0.22416 0.0
H452 H 0.84728 0.56554 0.19216 0.0
H453 H 0.89391 0.60681 0.13396 0.0
H454 H 0.97973 0.54181 0.06175 0.0
H455 H 0.95614 0.56614 0.09343 0.0
C456 C 0.29892 0.14146 0.16782 0.0
C457 C 0.29927 0.16553 0.15931 0.0
C458 C 0.31338 0.12463 0.15442 0.0
C459 C 0.3454 0.11176 0.09045 0.0
H460 H 0.38786 0.07377 0.13309 0.0
C461 C 0.40684 0.03754 0.04495 0.0
C462 C 0.43226 0.03945 0.05348 0.0
C463 C 0.3889 0.05143 0.05774 0.0
C464 C 0.37605 0.08422 0.12095 0.0
H465 H 0.31451 0.19072 0.12975 0.0
H466 H 0.33985 0.16126 0.10629 0.0
H467 H 0.35948 0.10119 0.1553 0.0
H468 H 0.45864 0.05706 0.08248 0.0
H469 H 0.42734 0.081 0.1048 0.0
H470 H 0.36235 0.09504 0.05608 0.0
C471 C 0.32834 0.15544 0.12331 0.0
C472 C 0.35969 0.09976 0.13364 0.0
C473 C 0.31406 0.17234 0.13687 0.0
C474 C 0.43925 0.0552 0.07531 0.0
C475 C 0.42129 0.06881 0.08825 0.0
C476 C 0.3616 0.09601 0.07774 0.0
C477 C 0.32829 0.13147 0.13208 0.0
C478 C 0.34446 0.11392 0.11852 0.0
C479 C 0.39599 0.06718 0.07952 0.0
C480 C 0.37734 0.08237 0.09289 0.0
H481 H 0.28781 0.13576 0.18516 0.0
H482 H 0.31288 0.10623 0.1615 0.0
H483 H 0.3337 0.12233 0.07833 0.0
H484 H 0.40087 0.02561 0.02816 0.0
H485 H 0.36946 0.04976 0.05072 0.0
C486 C 0.20571 0.89809 0.61545 0.0
C487 C 0.2208 0.88519 0.59749 0.0
C488 C 0.18219 0.90539 0.60754 0.0
C489 C 0.13224 0.89446 0.55591 0.0
H490 H 0.11795 0.96101 0.57404 0.0
C491 C 0.05954 0.94574 0.49914 0.0
C492 C 0.04541 0.96251 0.51337 0.0
C493 C 0.07827 0.9339 0.51193 0.0
C494 C 0.12137 0.94223 0.5692 0.0
H495 H 0.22287 0.86966 0.55718 0.0
H496 H 0.18188 0.88239 0.54337 0.0
H497 H 0.15585 0.94482 0.59164 0.0
H498 H 0.03886 0.97928 0.55238 0.0
H499 H 0.07154 0.95842 0.5749 0.0
H500 H 0.098 0.89207 0.533 0.0
C501 C 0.18805 0.88656 0.56371 0.0
C502 C 0.14314 0.93296 0.57928 0.0
C503 C 0.21157 0.87927 0.57163 0.0
C504 C 0.0496 0.96651 0.54091 0.0
C505 C 0.0684 0.95469 0.55374 0.0
C506 C 0.11045 0.90374 0.54585 0.0
C507 C 0.17321 0.89994 0.58148 0.0
C508 C 0.14904 0.90908 0.57242 0.0
C509 C 0.08326 0.93858 0.53927 0.0
C510 C 0.10497 0.92786 0.55204 0.0
H511 H 0.21208 0.90258 0.63567 0.0
H512 H 0.17105 0.91535 0.62183 0.0
H513 H 0.13603 0.87586 0.55062 0.0
H514 H 0.05665 0.94227 0.47789 0.0
H515 H 0.08953 0.92183 0.50012 0.0
C516 C 0.75094 0.37735 0.88641 0.0
C517 C 0.74825 0.35178 0.88418 0.0
C518 C 0.77147 0.38927 0.90024 0.0
C519 C 0.83676 0.37999 0.92031 0.0
H520 H 0.83005 0.43735 0.96606 0.0
C521 C 0.922 0.42609 0.97889 0.0
C522 C 0.92467 0.45167 0.97977 0.0
C523 C 0.89978 0.41361 0.96904 0.0
C524 C 0.83229 0.42149 0.95313 0.0
H525 H 0.76433 0.3187 0.89595 0.0
H526 H 0.80018 0.3395 0.91989 0.0
H527 H 0.79223 0.41618 0.94587 0.0
H528 H 0.90588 0.4842 0.97118 0.0
H529 H 0.86739 0.46246 0.95358 0.0
H530 H 0.87678 0.38546 0.92708 0.0
C531 C 0.78666 0.35033 0.91055 0.0
C532 C 0.81061 0.40935 0.94161 0.0
C533 C 0.76612 0.33842 0.89682 0.0
C534 C 0.90447 0.46449 0.97086 0.0
C535 C 0.88229 0.452 0.96091 0.0
C536 C 0.85843 0.39217 0.93172 0.0
C537 C 0.78978 0.37589 0.91208 0.0
C538 C 0.81262 0.38849 0.92502 0.0
C539 C 0.87972 0.4264 0.95972 0.0
C540 C 0.85649 0.41312 0.94821 0.0
H541 H 0.73769 0.3882 0.87667 0.0
H542 H 0.77348 0.40899 0.90083 0.0
H543 H 0.83901 0.36422 0.90725 0.0
H544 H 0.93709 0.41562 0.98577 0.0
H545 H 0.89829 0.3939 0.96883 0.0
C546 C 0.71987 0.63427 0.3997 0.0
C547 C 0.72415 0.62619 0.37325 0.0
C548 C 0.70241 0.62127 0.41604 0.0
C549 C 0.66325 0.56209 0.42112 0.0
H550 H 0.62079 0.60099 0.46627 0.0
C551 C 0.56558 0.52728 0.46554 0.0
C552 C 0.56016 0.53488 0.49193 0.0
C553 C 0.58805 0.53609 0.45291 0.0
C554 C 0.63271 0.58984 0.45405 0.0
H555 H 0.71389 0.59805 0.3432 0.0
H556 H 0.68281 0.5757 0.37135 0.0
H557 H 0.65535 0.62094 0.44076 0.0
H558 H 0.57439 0.55664 0.52625 0.0
H559 H 0.6135 0.5722 0.50411 0.0
H560 H 0.63965 0.53105 0.43381 0.0
C561 C 0.69336 0.5917 0.37983 0.0
C562 C 0.65263 0.60126 0.43945 0.0
C563 C 0.7111 0.60455 0.36362 0.0
C564 C 0.57802 0.55062 0.50583 0.0
C565 C 0.60034 0.55959 0.49314 0.0
C566 C 0.64309 0.55067 0.43553 0.0
C567 C 0.68851 0.60009 0.40615 0.0
C568 C 0.66812 0.58758 0.42268 0.0
C569 C 0.60535 0.5528 0.46639 0.0
C570 C 0.62757 0.56447 0.45206 0.0
H571 H 0.72997 0.65074 0.40772 0.0
H572 H 0.69965 0.62799 0.43637 0.0
H573 H 0.675 0.55091 0.40875 0.0
H574 H 0.55213 0.51511 0.4544 0.0
H575 H 0.59136 0.53065 0.43223 0.0
C576 C 0.14981 0.28603 0.14152 0.0
C577 C 0.17641 0.28945 0.13962 0.0
C578 C 0.13444 0.29881 0.12532 0.0
C579 C 0.13628 0.35457 0.08622 0.0
H580 H 0.07057 0.32663 0.06151 0.0
C581 C 0.0702 0.40917 0.02471 0.0
C582 C 0.04533 0.40938 0.03493 0.0
C583 C 0.08648 0.39239 0.03364 0.0
C584 C 0.08888 0.33463 0.0683 0.0
H585 H 0.20784 0.30821 0.11865 0.0
H586 H 0.18102 0.33025 0.08988 0.0
H587 H 0.0991 0.30109 0.08393 0.0
H588 H 0.01751 0.39169 0.06146 0.0
H589 H 0.04594 0.36217 0.07697 0.0
H590 H 0.12597 0.38812 0.07068 0.0
C591 C 0.17199 0.31811 0.10433 0.0
C592 C 0.10519 0.32007 0.08122 0.0
C593 C 0.18737 0.30548 0.12074 0.0
C594 C 0.03662 0.39188 0.05331 0.0
C595 C 0.05284 0.37494 0.06207 0.0
C596 C 0.12008 0.36904 0.07309 0.0
C597 C 0.14533 0.31518 0.10667 0.0
C598 C 0.12891 0.32998 0.09077 0.0
C599 C 0.0781 0.37538 0.05275 0.0
C600 C 0.09607 0.35933 0.06439 0.0
H601 H 0.14085 0.27402 0.15616 0.0
H602 H 0.11402 0.29642 0.12806 0.0
H603 H 0.15419 0.36295 0.09368 0.0
H604 H 0.07733 0.42246 0.01045 0.0
H605 H 0.10578 0.39295 0.02595 0.0
C606 C 0.58667 0.20511 0.85825 0.0
C607 C 0.60562 0.22019 0.87146 0.0
C608 C 0.57451 0.1852 0.87095 0.0
C609 C 0.56103 0.1584 0.93688 0.0
H610 H 0.55063 0.09847 0.89425 0.0
C611 C 0.52211 0.06613 0.98089 0.0
C612 C 0.50433 0.05204 0.96507 0.0
C613 C 0.53511 0.08702 0.97071 0.0
C614 C 0.55316 0.11511 0.90639 0.0
H615 H 0.62627 0.22642 0.90866 0.0
H616 H 0.60495 0.19157 0.93092 0.0
H617 H 0.57159 0.13444 0.87437 0.0
H618 H 0.48571 0.04893 0.92653 0.0
H619 H 0.50803 0.08531 0.90891 0.0
H620 H 0.54241 0.13892 0.9689 0.0
C621 C 0.5994 0.19531 0.91075 0.0
C622 C 0.56517 0.13575 0.89497 0.0
C623 C 0.6116 0.21529 0.89801 0.0
C624 C 0.49947 0.05935 0.93912 0.0
C625 C 0.5124 0.08012 0.92896 0.0
C626 C 0.54895 0.13768 0.94834 0.0
C627 C 0.58099 0.17982 0.8972 0.0
C628 C 0.56898 0.15774 0.90994 0.0
C629 C 0.53054 0.09412 0.94451 0.0
C630 C 0.5446 0.11587 0.93309 0.0
H631 H 0.58123 0.20867 0.838 0.0
H632 H 0.56001 0.17396 0.86015 0.0
H633 H 0.56356 0.17511 0.94891 0.0
H634 H 0.52596 0.061 0.00103 0.0
H635 H 0.54903 0.09736 0.98318 0.0
C636 C 0.85475 0.79405 0.33977 0.0
C637 C 0.8548 0.77074 0.35049 0.0
C638 C 0.86766 0.81421 0.35255 0.0
C639 C 0.88977 0.8373 0.41812 0.0
H640 H 0.93362 0.88297 0.37812 0.0
C641 C 0.94945 0.91675 0.47078 0.0
C642 C 0.95277 0.93897 0.45773 0.0
C643 C 0.93809 0.89601 0.45759 0.0
C644 C 0.92115 0.87063 0.38956 0.0
H645 H 0.86912 0.7505 0.38293 0.0
H646 H 0.891 0.78589 0.4056 0.0
H647 H 0.91278 0.84722 0.35518 0.0
H648 H 0.94647 0.95696 0.42072 0.0
H649 H 0.92589 0.92106 0.398 0.0
H650 H 0.89739 0.86089 0.45234 0.0
C651 C 0.88086 0.78842 0.38727 0.0
C652 C 0.90933 0.85008 0.3764 0.0
C653 C 0.86823 0.76817 0.37431 0.0
C654 C 0.94434 0.94006 0.43127 0.0
C655 C 0.93268 0.91939 0.41818 0.0
C656 C 0.90131 0.858 0.43123 0.0
C657 C 0.88066 0.81163 0.37654 0.0
C658 C 0.89355 0.83321 0.39056 0.0
C659 C 0.92948 0.89705 0.43112 0.0
C660 C 0.91719 0.87495 0.41714 0.0
H661 H 0.84424 0.79689 0.32179 0.0
H662 H 0.86694 0.83195 0.34402 0.0
H663 H 0.87741 0.82474 0.42945 0.0
H664 H 0.95597 0.91524 0.49109 0.0
H665 H 0.93642 0.87908 0.46807 0.0
C666 C 0.38741 0.75753 0.59935 0.0
C667 C 0.36108 0.75981 0.59984 0.0
C668 C 0.39698 0.73486 0.59468 0.0
C669 C 0.37948 0.6684 0.59518 0.0
H670 H 0.44058 0.66592 0.55176 0.0
C671 C 0.42198 0.57898 0.55608 0.0
C672 C 0.44855 0.57887 0.55758 0.0
C673 C 0.41002 0.60023 0.56272 0.0
C674 C 0.42363 0.66634 0.56412 0.0
H675 H 0.32407 0.74011 0.59592 0.0
H676 H 0.3408 0.70039 0.58725 0.0
H677 H 0.42196 0.70455 0.5595 0.0
H678 H 0.48335 0.60035 0.56826 0.0
H679 H 0.46255 0.63729 0.57983 0.0
H680 H 0.38115 0.6299 0.59933 0.0
C681 C 0.35406 0.71612 0.59092 0.0
C682 C 0.41297 0.6885 0.56862 0.0
C683 C 0.34447 0.73885 0.5958 0.0
C684 C 0.46284 0.59996 0.5668 0.0
C685 C 0.45096 0.62115 0.57326 0.0
C686 C 0.39009 0.64611 0.59048 0.0
C687 C 0.38046 0.71388 0.59016 0.0
C688 C 0.39095 0.68992 0.5845 0.0
C689 C 0.4245 0.62168 0.57074 0.0
C690 C 0.41248 0.64495 0.57519 0.0
H691 H 0.40068 0.77327 0.60297 0.0
H692 H 0.41739 0.73377 0.5949 0.0
H693 H 0.36265 0.66886 0.6077 0.0
H694 H 0.41055 0.56293 0.54898 0.0
H695 H 0.3896 0.60015 0.56054 0.0
C696 C 0.89257 0.86882 0.77804 0.0
C697 C 0.87505 0.88251 0.79206 0.0
C698 C 0.9015 0.87577 0.75279 0.0
C699 C 0.88605 0.91119 0.69502 0.0
H700 H 0.95886 0.91758 0.68225 0.0
C701 C 0.92966 0.96599 0.60818 0.0
C702 C 0.95103 0.9578 0.5948 0.0
C703 C 0.92025 0.95467 0.63116 0.0
C704 C 0.93847 0.91549 0.68526 0.0
H705 H 0.8526 0.91374 0.79046 0.0
H706 H 0.86806 0.92581 0.74629 0.0
H707 H 0.94228 0.90113 0.72422 0.0
H708 H 0.97931 0.9313 0.59464 0.0
H709 H 0.96254 0.91106 0.63466 0.0
H710 H 0.88209 0.92544 0.65618 0.0
C711 C 0.87492 0.90975 0.75482 0.0
C712 C 0.92899 0.90612 0.70933 0.0
C713 C 0.86625 0.90298 0.78016 0.0
C714 C 0.96282 0.938 0.6047 0.0
C715 C 0.95329 0.92651 0.62766 0.0
C716 C 0.89548 0.92034 0.67088 0.0
C717 C 0.89279 0.89633 0.74098 0.0
C718 C 0.90272 0.9043 0.71462 0.0
C719 C 0.93186 0.93474 0.64117 0.0
C720 C 0.92183 0.92306 0.66591 0.0
H721 H 0.89977 0.85304 0.78685 0.0
H722 H 0.91516 0.86505 0.74247 0.0
H723 H 0.86568 0.90961 0.69842 0.0
H724 H 0.9203 0.98133 0.60102 0.0
H725 H 0.90407 0.96185 0.64132 0.0
C726 C 0.67471 0.15608 0.23421 0.0
C727 C 0.69482 0.17134 0.22396 0.0
C728 C 0.65847 0.14193 0.21698 0.0
C729 C 0.63594 0.13752 0.14718 0.0
H730 H 0.61384 0.07123 0.16501 0.0
C731 C 0.57949 0.07106 0.07363 0.0
C732 C 0.55937 0.05626 0.08446 0.0
C733 C 0.59618 0.08521 0.09044 0.0
C734 C 0.61963 0.08979 0.15989 0.0
H735 H 0.7139 0.18338 0.18758 0.0
H736 H 0.68556 0.15864 0.15749 0.0
H737 H 0.64284 0.09556 0.19472 0.0
H738 H 0.54067 0.04471 0.12118 0.0
H739 H 0.56965 0.06955 0.15057 0.0
H740 H 0.6127 0.13172 0.11234 0.0
C741 C 0.68212 0.15791 0.17885 0.0
C742 C 0.63624 0.10374 0.17691 0.0
C743 C 0.69836 0.17207 0.19608 0.0
C744 C 0.5561 0.05592 0.11233 0.0
C745 C 0.57278 0.07002 0.12915 0.0
C746 C 0.61933 0.12356 0.13014 0.0
C747 C 0.66196 0.1427 0.1891 0.0
C748 C 0.64454 0.12778 0.1708 0.0
C749 C 0.59306 0.08477 0.1184 0.0
C750 C 0.61092 0.09956 0.13634 0.0
H751 H 0.67122 0.1554 0.25556 0.0
H752 H 0.64288 0.13071 0.22551 0.0
H753 H 0.64168 0.1561 0.14209 0.0
H754 H 0.58243 0.0716 0.05218 0.0
H755 H 0.61176 0.09618 0.08156 0.0
C756 C 0.38406 0.615 0.265 0.0
C757 C 0.39606 0.60868 0.24077 0.0
C758 C 0.39178 0.60594 0.28923 0.0
C759 C 0.42471 0.55545 0.31612 0.0
H760 H 0.43407 0.59726 0.3797 0.0
C761 C 0.47589 0.52462 0.40865 0.0
C762 C 0.46662 0.53103 0.43416 0.0
C763 C 0.46633 0.53436 0.38572 0.0
C764 C 0.43121 0.58525 0.36224 0.0
H765 H 0.42626 0.58855 0.22332 0.0
H766 H 0.43941 0.57259 0.26535 0.0
H767 H 0.41896 0.61386 0.33855 0.0
H768 H 0.43996 0.55284 0.45549 0.0
H769 H 0.42298 0.56958 0.41535 0.0
H770 H 0.4368 0.52683 0.33963 0.0
C771 C 0.42375 0.58422 0.26558 0.0
C772 C 0.42258 0.59478 0.33865 0.0
C773 C 0.41615 0.59335 0.24145 0.0
C774 C 0.44758 0.54753 0.43617 0.0
C775 C 0.43793 0.55724 0.41315 0.0
C776 C 0.4332 0.54591 0.33967 0.0
C777 C 0.41158 0.59027 0.28974 0.0
C778 C 0.41954 0.58005 0.31523 0.0
C779 C 0.44713 0.55069 0.38762 0.0
C780 C 0.43688 0.56074 0.36296 0.0
H781 H 0.36835 0.62655 0.26521 0.0
H782 H 0.38189 0.61078 0.30749 0.0
H783 H 0.42209 0.5435 0.29857 0.0
H784 H 0.49068 0.51211 0.4063 0.0
H785 H 0.47424 0.52925 0.36646 0.0
C786 C 0.12847 0.35663 0.81086 0.0
C787 C 0.1332 0.366 0.78524 0.0
C788 C 0.11522 0.36958 0.83021 0.0
C789 C 0.10317 0.43014 0.85295 0.0
H790 H 0.04137 0.40173 0.8856 0.0
C791 C 0.04191 0.48724 0.92291 0.0
C792 C 0.02824 0.47571 0.94373 0.0
C793 C 0.05477 0.47361 0.90385 0.0
C794 C 0.05885 0.40984 0.87715 0.0
H795 H 0.12694 0.39636 0.76003 0.0
H796 H 0.10498 0.41938 0.79438 0.0
H797 H 0.06379 0.37816 0.85209 0.0
H798 H 0.01739 0.44097 0.9612 0.0
H799 H 0.04108 0.41726 0.92904 0.0
H800 H 0.09916 0.46139 0.87853 0.0
C801 C 0.1115 0.40188 0.79919 0.0
C802 C 0.07154 0.39635 0.85778 0.0
C803 C 0.12426 0.38872 0.77961 0.0
C804 C 0.02793 0.45034 0.94541 0.0
C805 C 0.04126 0.43672 0.9267 0.0
C806 C 0.09084 0.44345 0.87272 0.0
C807 C 0.10687 0.39241 0.82461 0.0
C808 C 0.09366 0.40649 0.84539 0.0
C809 C 0.05472 0.44814 0.90548 0.0
C810 C 0.06835 0.4336 0.88497 0.0
H811 H 0.13545 0.33951 0.81628 0.0
H812 H 0.11201 0.36204 0.84981 0.0
H813 H 0.1204 0.43819 0.84383 0.0
H814 H 0.04228 0.50679 0.92101 0.0
H815 H 0.06435 0.48311 0.88757 0.0
C816 C 0.72905 0.91067 0.91898 0.0
C817 C 0.73201 0.88594 0.91312 0.0
C818 C 0.70489 0.91922 0.92096 0.0
C819 C 0.63861 0.89921 0.9358 0.0
H820 H 0.62683 0.96372 0.91224 0.0
C821 C 0.54492 0.94451 0.95905 0.0
C822 C 0.54882 0.96812 0.97054 0.0
C823 C 0.56515 0.93317 0.94695 0.0
C824 C 0.62982 0.94565 0.91888 0.0
H825 H 0.71192 0.85084 0.90425 0.0
H826 H 0.66947 0.86589 0.90757 0.0
H827 H 0.66639 0.94588 0.90002 0.0
H828 H 0.57671 0.9987 0.97737 0.0
H829 H 0.61176 0.97902 0.95631 0.0
H830 H 0.60227 0.89932 0.95529 0.0
C831 C 0.68595 0.87858 0.9108 0.0
C832 C 0.65247 0.93545 0.91193 0.0
C833 C 0.71022 0.87001 0.90872 0.0
C834 C 0.57307 0.98045 0.96886 0.0
C835 C 0.59315 0.96925 0.95657 0.0
C836 C 0.61588 0.90941 0.94269 0.0
C837 C 0.68304 0.90328 0.91709 0.0
C838 C 0.65747 0.91244 0.92102 0.0
C839 C 0.58951 0.94538 0.9458 0.0
C840 C 0.61161 0.93304 0.93498 0.0
H841 H 0.74547 0.92347 0.92209 0.0
H842 H 0.70335 0.93828 0.9262 0.0
H843 H 0.64196 0.88151 0.94327 0.0
H844 H 0.52645 0.93452 0.96005 0.0
H845 H 0.5618 0.9148 0.93869 0.0
C846 C 0.82787 0.17465 0.39424 0.0
C847 C 0.82496 0.17105 0.36643 0.0
C848 C 0.84218 0.15935 0.40874 0.0
C849 C 0.89233 0.11639 0.40083 0.0
H850 H 0.86728 0.09339 0.46936 0.0
C851 C 0.93798 0.04043 0.45617 0.0
C852 C 0.93991 0.04302 0.48411 0.0
C853 C 0.92452 0.05656 0.44185 0.0
C854 C 0.87472 0.0999 0.45042 0.0
H855 H 0.83442 0.14818 0.33219 0.0
H856 H 0.85945 0.1216 0.35746 0.0
H857 H 0.84262 0.12057 0.44443 0.0
H858 H 0.9298 0.06464 0.51901 0.0
H859 H 0.90651 0.09298 0.49404 0.0
H860 H 0.92443 0.09573 0.40682 0.0
C861 C 0.85099 0.13649 0.36799 0.0
C862 C 0.86057 0.11546 0.43613 0.0
C863 C 0.83665 0.15175 0.3535 0.0
C864 C 0.92845 0.06216 0.49748 0.0
C865 C 0.915 0.07829 0.48318 0.0
C866 C 0.90651 0.10086 0.41516 0.0
C867 C 0.85395 0.14012 0.39577 0.0
C868 C 0.86917 0.12384 0.41113 0.0
C869 C 0.91274 0.0756 0.45521 0.0
C870 C 0.89785 0.09238 0.4401 0.0
H871 H 0.81942 0.18954 0.40477 0.0
H872 H 0.84436 0.16282 0.43008 0.0
H873 H 0.89967 0.12281 0.38182 0.0
H874 H 0.94663 0.02579 0.44539 0.0
H875 H 0.92292 0.05379 0.42037 0.0
C876 C 0.24386 0.59582 0.11724 0.0
C877 C 0.25578 0.61659 0.10561 0.0
C878 C 0.21936 0.58702 0.10953 0.0
C879 C 0.17307 0.59027 0.05427 0.0
H880 H 0.12686 0.55761 0.10467 0.0
C881 C 0.0691 0.5554 0.02845 0.0
C882 C 0.06247 0.53108 0.0349 0.0
C883 C 0.09191 0.56735 0.03765 0.0
C884 C 0.13961 0.56666 0.09038 0.0
H885 H 0.25113 0.64499 0.07754 0.0
H886 H 0.20805 0.63018 0.06466 0.0
H887 H 0.1677 0.57633 0.12018 0.0
H888 H 0.07441 0.50038 0.05643 0.0
H889 H 0.11389 0.52138 0.07275 0.0
H890 H 0.1446 0.58079 0.02461 0.0
C891 C 0.21783 0.62017 0.07914 0.0
C892 C 0.16309 0.57729 0.0992 0.0
C893 C 0.24247 0.62876 0.0866 0.0
C894 C 0.07896 0.51908 0.051 0.0
C895 C 0.10151 0.53114 0.06052 0.0
C896 C 0.14941 0.57993 0.04555 0.0
C897 C 0.20604 0.59897 0.09023 0.0
C898 C 0.18033 0.58895 0.0812 0.0
C899 C 0.10828 0.55534 0.05384 0.0
C900 C 0.13261 0.56773 0.06344 0.0
H901 H 0.25381 0.58591 0.1317 0.0
H902 H 0.2112 0.57041 0.11819 0.0
H903 H 0.18591 0.59869 0.03968 0.0
H904 H 0.05684 0.56511 0.01604 0.0
H905 H 0.09665 0.58605 0.0323 0.0
C906 C 0.27937 0.36077 0.61195 0.0
C907 C 0.26469 0.37268 0.63104 0.0
C908 C 0.29737 0.37403 0.59645 0.0
C909 C 0.33429 0.4345 0.59525 0.0
H910 H 0.35452 0.40965 0.52554 0.0
C911 C 0.42931 0.46765 0.54646 0.0
C912 C 0.4319 0.46658 0.51851 0.0
C913 C 0.40673 0.45872 0.55868 0.0
C914 C 0.3489 0.41724 0.54473 0.0
H915 H 0.25637 0.4077 0.64832 0.0
H916 H 0.28678 0.43114 0.62033 0.0
H917 H 0.31828 0.38984 0.54829 0.0
H918 H 0.41262 0.45668 0.48128 0.0
H919 H 0.37262 0.44223 0.50244 0.0
H920 H 0.36412 0.4626 0.59114 0.0
C921 C 0.28527 0.4115 0.6179 0.0
C922 C 0.32829 0.4055 0.5581 0.0
C923 C 0.26767 0.39814 0.63382 0.0
C924 C 0.41114 0.45746 0.50291 0.0
C925 C 0.38831 0.44899 0.51511 0.0
C926 C 0.35454 0.44655 0.58163 0.0
C927 C 0.30074 0.39961 0.5993 0.0
C928 C 0.32106 0.41357 0.58386 0.0
C929 C 0.38595 0.44899 0.54322 0.0
C930 C 0.36259 0.43775 0.55645 0.0
H931 H 0.27756 0.3411 0.60969 0.0
H932 H 0.30916 0.36405 0.58287 0.0
H933 H 0.32961 0.44126 0.61511 0.0
H934 H 0.44509 0.47451 0.55898 0.0
H935 H 0.40603 0.45869 0.58032 0.0
C936 C 0.85101 0.74128 0.95368 0.0
C937 C 0.85772 0.75052 0.92851 0.0
C938 C 0.85773 0.71825 0.96056 0.0
C939 C 0.87963 0.66043 0.93216 0.0
H940 H 0.91218 0.65676 0.00099 0.0
C941 C 0.94545 0.58552 0.95504 0.0
C942 C 0.94425 0.57571 0.98059 0.0
C943 C 0.93176 0.60541 0.94943 0.0
C944 C 0.90276 0.65733 0.98189 0.0
H945 H 0.87554 0.74246 0.89033 0.0
H946 H 0.88754 0.70246 0.9024 0.0
H947 H 0.89288 0.69383 0.98966 0.0
H948 H 0.92776 0.57869 0.02031 0.0
H949 H 0.90369 0.61354 0.0105 0.0
H950 H 0.89001 0.62411 0.92417 0.0
C951 C 0.87701 0.7129 0.91682 0.0
C952 C 0.89168 0.67857 0.97541 0.0
C953 C 0.87039 0.73592 0.91 0.0
C954 C 0.92905 0.58602 0.00046 0.0
C955 C 0.91536 0.60598 0.99486 0.0
C956 C 0.89071 0.6392 0.93865 0.0
C957 C 0.87114 0.70397 0.94233 0.0
C958 C 0.88041 0.68052 0.95027 0.0
C959 C 0.9166 0.6159 0.96928 0.0
C960 C 0.90282 0.63758 0.96338 0.0
H961 H 0.84136 0.75217 0.96841 0.0
H962 H 0.85273 0.71174 0.98027 0.0
H963 H 0.87072 0.66124 0.91282 0.0
H964 H 0.95706 0.5779 0.93938 0.0
H965 H 0.93346 0.61287 0.92966 0.0
C966 C 0.4287 0.75742 0.10708 0.0
C967 C 0.40253 0.75212 0.11179 0.0
C968 C 0.43809 0.78061 0.09954 0.0
C969 C 0.41994 0.8351 0.06699 0.0
H970 H 0.47913 0.86693 0.10245 0.0
C971 C 0.45591 0.93499 0.04736 0.0
C972 C 0.48221 0.94117 0.04848 0.0
C973 C 0.44593 0.91177 0.05435 0.0
C974 C 0.46285 0.85819 0.09198 0.0
H975 H 0.36583 0.7675 0.11256 0.0
H976 H 0.38224 0.80781 0.09868 0.0
H977 H 0.46227 0.82691 0.11637 0.0
H978 H 0.5188 0.92779 0.05658 0.0
H979 H 0.50161 0.88708 0.06785 0.0
H980 H 0.42079 0.86604 0.04215 0.0
C981 C 0.3954 0.79386 0.10082 0.0
C982 C 0.45312 0.83529 0.1001 0.0
C983 C 0.38602 0.77072 0.10871 0.0
C984 C 0.49842 0.92355 0.05582 0.0
C985 C 0.4885 0.90027 0.0625 0.0
C986 C 0.42986 0.85791 0.05862 0.0
C987 C 0.42153 0.79903 0.09617 0.0
C988 C 0.43157 0.8235 0.08771 0.0
C989 C 0.46208 0.89417 0.06231 0.0
C990 C 0.45148 0.86978 0.071 0.0
H991 H 0.44198 0.74351 0.10863 0.0
H992 H 0.45829 0.784 0.09575 0.0
H993 H 0.40346 0.8263 0.05689 0.0
H994 H 0.44299 0.94828 0.04176 0.0
H995 H 0.4255 0.9079 0.0542 0.0
C996 C 0.11406 0.2166 0.65688 0.0
C997 C 0.13591 0.22771 0.64475 0.0
C998 C 0.10056 0.19663 0.64432 0.0
C999 C 0.08723 0.16693 0.57909 0.0
H1000 H 0.07151 0.10848 0.61904 0.0
C1001 C 0.04672 0.07756 0.52718 0.0
C1002 C 0.02912 0.06228 0.54126 0.0
C1003 C 0.05948 0.09779 0.53998 0.0
C1004 C 0.07532 0.12475 0.60767 0.0
H1005 H 0.16049 0.22709 0.60982 0.0
H1006 H 0.13657 0.1924 0.58759 0.0
H1007 H 0.09361 0.14409 0.64098 0.0
H1008 H 0.01083 0.05642 0.57977 0.0
H1009 H 0.03238 0.09216 0.60191 0.0
H1010 H 0.06847 0.14805 0.54598 0.0
C1011 C 0.13003 0.19905 0.60688 0.0
C1012 C 0.0881 0.14511 0.62025 0.0
C1013 C 0.14378 0.21876 0.61964 0.0
C1014 C 0.02445 0.06773 0.56842 0.0
C1015 C 0.03694 0.08819 0.58115 0.0
C1016 C 0.07412 0.14671 0.5666 0.0
C1017 C 0.10842 0.18767 0.61921 0.0
C1018 C 0.09432 0.16632 0.60603 0.0
C1019 C 0.05467 0.10349 0.56712 0.0
C1020 C 0.06814 0.12526 0.58065 0.0
H1021 H 0.10771 0.22305 0.67633 0.0
H1022 H 0.08387 0.18827 0.65417 0.0
H1023 H 0.09155 0.18318 0.56777 0.0
H1024 H 0.05092 0.07375 0.50628 0.0
H1025 H 0.07336 0.10877 0.52861 0.0
C1026 C 0.69567 0.31527 0.38048 0.0
C1027 C 0.68766 0.29677 0.36173 0.0
C1028 C 0.67825 0.33043 0.39207 0.0
C1029 C 0.61481 0.3525 0.38101 0.0
H1030 H 0.6213 0.37473 0.45519 0.0
C1031 C 0.5413 0.41036 0.4351 0.0
C1032 C 0.55144 0.43015 0.45101 0.0
C1033 C 0.55719 0.39327 0.42433 0.0
C1034 C 0.61936 0.3688 0.43439 0.0
H1035 H 0.65489 0.27962 0.34063 0.0
H1036 H 0.62443 0.30556 0.36142 0.0
H1037 H 0.65016 0.3459 0.43672 0.0
H1038 H 0.586 0.44781 0.46804 0.0
H1039 H 0.61372 0.41804 0.44927 0.0
H1040 H 0.58393 0.37542 0.37878 0.0
C1041 C 0.64427 0.30862 0.36686 0.0
C1042 C 0.63592 0.35231 0.42378 0.0
C1043 C 0.66171 0.29352 0.35521 0.0
C1044 C 0.57769 0.43267 0.45587 0.0
C1045 C 0.59352 0.41554 0.44528 0.0
C1046 C 0.59815 0.3689 0.39167 0.0
C1047 C 0.65236 0.3274 0.38527 0.0
C1048 C 0.63401 0.34413 0.39689 0.0
C1049 C 0.58346 0.39561 0.42947 0.0
C1050 C 0.60041 0.37741 0.4184 0.0
H1051 H 0.71545 0.31811 0.38622 0.0
H1052 H 0.68521 0.34485 0.40595 0.0
H1053 H 0.61302 0.34687 0.36011 0.0
H1054 H 0.5211 0.408 0.43111 0.0
H1055 H 0.54887 0.378 0.41237 0.0
loop_
_geom_bond_atom_site_label_1
_geom_bond_atom_site_label_2
_geom_bond_distance
_geom_bond_site_symmetry_2
_ccdc_geom_bond_type
P0 O11 1.490 . S
P0 C14 1.812 . S
P0 C20 1.803 . S
P0 C26 1.819 . S
H1 C15 0.941 . S
H2 C16 0.939 . S
H3 C18 0.940 . S
H4 C19 0.940 . S
H5 C21 0.939 . S
H6 C22 0.942 . S
H7 C24 0.940 . S
H8 C25 0.939 . S
H9 C27 0.941 . S
H10 C31 0.939 . S
O11 P0 1.490 . S
H12 C28 0.939 . S
H13 C30 0.940 . S
C14 P0 1.812 . S
C14 C15 1.389 . S
C14 C19 1.391 . S
C15 H1 0.941 . S
C15 C14 1.389 . S
C15 C16 1.397 . S
C16 H2 0.939 . S
C16 C15 1.397 . S
C16 C17 1.378 . S
C17 C16 1.378 . S
C17 C18 1.378 . S
C18 H3 0.940 . S
C18 C17 1.378 . S
C18 C19 1.396 . S
C19 H4 0.940 . S
C19 C14 1.391 . S
C19 C18 1.396 . S
C20 P0 1.803 . S
C20 C21 1.378 . S
C20 C25 1.400 . S
C21 H5 0.939 . S
C21 C20 1.378 . S
C21 C22 1.361 . S
C22 H6 0.942 . S
C22 C21 1.361 . S
C22 C23 1.369 . S
C23 C22 1.369 . S
C23 C24 1.404 . S
C24 H7 0.940 . S
C24 C23 1.404 . S
C24 C25 1.389 . S
C25 H8 0.939 . S
C25 C20 1.400 . S
C25 C24 1.389 . S
C26 P0 1.819 . S
C26 C27 1.391 . S
C26 C31 1.391 . S
C27 H9 0.941 . S
C27 C26 1.391 . S
C27 C28 1.396 . S
C28 H12 0.939 . S
C28 C27 1.396 . S
C28 C29 1.397 . S
C29 C28 1.397 . S
C29 C30 1.385 . S
C30 H13 0.940 . S
C30 C29 1.385 . S
C30 C31 1.388 . S
C31 H10 0.939 . S
C31 C26 1.391 . S
C31 C30 1.388 . S
P32 O43 1.490 . S
P32 C46 1.812 . S
P32 C52 1.803 . S
P32 C58 1.819 . S
H33 C47 0.941 . S
H34 C48 0.939 . S
H35 C50 0.940 . S
H36 C51 0.940 . S
H37 C53 0.939 . S
H38 C54 0.942 . S
H39 C56 0.940 . S
H40 C57 0.939 . S
H41 C59 0.941 . S
H42 C63 0.939 . S
O43 P32 1.490 . S
H44 C60 0.939 . S
H45 C62 0.940 . S
C46 P32 1.812 . S
C46 C47 1.389 . S
C46 C51 1.391 . S
C47 H33 0.941 . S
C47 C46 1.389 . S
C47 C48 1.397 . S
C48 H34 0.939 . S
C48 C47 1.397 . S
C48 C49 1.378 . S
C49 C48 1.378 . S
C49 C50 1.378 . S
C50 H35 0.940 . S
C50 C49 1.378 . S
C50 C51 1.396 . S
C51 H36 0.940 . S
C51 C46 1.391 . S
C51 C50 1.396 . S
C52 P32 1.803 . S
C52 C53 1.378 . S
C52 C57 1.400 . S
C53 H37 0.939 . S
C53 C52 1.378 . S
C53 C54 1.361 . S
C54 H38 0.942 . S
C54 C53 1.361 . S
C54 C55 1.369 . S
C55 C54 1.369 . S
C55 C56 1.404 . S
C56 H39 0.940 . S
C56 C55 1.404 . S
C56 C57 1.389 . S
C57 H40 0.939 . S
C57 C52 1.400 . S
C57 C56 1.389 . S
C58 P32 1.819 . S
C58 C59 1.391 . S
C58 C63 1.391 . S
C59 H41 0.941 . S
C59 C58 1.391 . S
C59 C60 1.396 . S
C60 H44 0.939 . S
C60 C59 1.396 . S
C60 C61 1.397 . S
C61 C60 1.397 . S
C61 C62 1.385 . S
C62 H45 0.940 . S
C62 C61 1.385 . S
C62 C63 1.388 . S
C63 H42 0.939 . S
C63 C58 1.391 . S
C63 C62 1.388 . S
P64 O75 1.490 . S
P64 C78 1.812 . S
P64 C84 1.803 . S
P64 C90 1.819 . S
H65 C79 0.941 . S
H66 C80 0.939 . S
H67 C82 0.940 . S
H68 C83 0.940 . S
H69 C85 0.939 . S
H70 C86 0.942 . S
H71 C88 0.940 . S
H72 C89 0.939 . S
H73 C91 0.941 . S
H74 C95 0.939 . S
O75 P64 1.490 . S
H76 C92 0.939 . S
H77 C94 0.940 . S
C78 P64 1.812 . S
C78 C79 1.389 . S
C78 C83 1.391 . S
C79 H65 0.941 . S
C79 C78 1.389 . S
C79 C80 1.397 . S
C80 H66 0.939 . S
C80 C79 1.397 . S
C80 C81 1.378 . S
C81 C80 1.378 . S
C81 C82 1.378 . S
C82 H67 0.940 . S
C82 C81 1.378 . S
C82 C83 1.396 . S
C83 H68 0.940 . S
C83 C78 1.391 . S
C83 C82 1.396 . S
C84 P64 1.803 . S
C84 C85 1.378 . S
C84 C89 1.400 . S
C85 H69 0.939 . S
C85 C84 1.378 . S
C85 C86 1.361 . S
C86 H70 0.942 . S
C86 C85 1.361 . S
C86 C87 1.369 . S
C87 C86 1.369 . S
C87 C88 1.404 . S
C88 H71 0.940 . S
C88 C87 1.404 . S
C88 C89 1.389 . S
C89 H72 0.939 . S
C89 C84 1.400 . S
C89 C88 1.389 . S
C90 P64 1.819 . S
C90 C91 1.391 . S
C90 C95 1.391 . S
C91 H73 0.941 . S
C91 C90 1.391 . S
C91 C92 1.396 . S
C92 H76 0.939 . S
C92 C91 1.396 . S
C92 C93 1.397 . S
C93 C92 1.397 . S
C93 C94 1.385 . S
C94 H77 0.940 . S
C94 C93 1.385 . S
C94 C95 1.388 . S
C95 H74 0.939 . S
C95 C90 1.391 . S
C95 C94 1.388 . S
P96 O107 1.490 . S
P96 C110 1.812 . S
P96 C116 1.803 . S
P96 C122 1.819 . S
H97 C111 0.941 . S
H98 C112 0.939 . S
H99 C114 0.940 . S
H100 C115 0.940 . S
H101 C117 0.939 . S
H102 C118 0.942 . S
H103 C120 0.940 . S
H104 C121 0.939 . S
H105 C123 0.941 . S
H106 C127 0.939 . S
O107 P96 1.490 . S
H108 C124 0.939 . S
H109 C126 0.940 . S
C110 P96 1.812 . S
C110 C111 1.389 . S
C110 C115 1.391 . S
C111 H97 0.941 . S
C111 C110 1.389 . S
C111 C112 1.397 . S
C112 H98 0.939 . S
C112 C111 1.397 . S
C112 C113 1.378 . S
C113 C112 1.378 . S
C113 C114 1.378 . S
C114 H99 0.940 . S
C114 C113 1.378 . S
C114 C115 1.396 . S
C115 H100 0.940 . S
C115 C110 1.391 . S
C115 C114 1.396 . S
C116 P96 1.803 . S
C116 C117 1.378 . S
C116 C121 1.400 . S
C117 H101 0.939 . S
C117 C116 1.378 . S
C117 C118 1.361 . S
C118 H102 0.942 . S
C118 C117 1.361 . S
C118 C119 1.369 . S
C119 C118 1.369 . S
C119 C120 1.404 . S
C120 H103 0.940 . S
C120 C119 1.404 . S
C120 C121 1.389 . S
C121 H104 0.939 . S
C121 C116 1.400 . S
C121 C120 1.389 . S
C122 P96 1.819 . S
C122 C123 1.391 . S
C122 C127 1.391 . S
C123 H105 0.941 . S
C123 C122 1.391 . S
C123 C124 1.396 . S
C124 H108 0.939 . S
C124 C123 1.396 . S
C124 C125 1.397 . S
C125 C124 1.397 . S
C125 C126 1.385 . S
C126 H109 0.940 . S
C126 C125 1.385 . S
C126 C127 1.388 . S
C127 H106 0.939 . S
C127 C122 1.391 . S
C127 C126 1.388 . S
P128 O139 1.490 . S
P128 C142 1.812 . S
P128 C148 1.803 . S
P128 C154 1.819 . S
H129 C143 0.941 . S
H130 C144 0.939 . S
H131 C146 0.940 . S
H132 C147 0.940 . S
H133 C149 0.939 . S
H134 C150 0.942 . S
H135 C152 0.940 . S
H136 C153 0.939 . S
H137 C155 0.941 . S
H138 C159 0.939 . S
O139 P128 1.490 . S
H140 C156 0.939 . S
H141 C158 0.940 . S
C142 P128 1.812 . S
C142 C143 1.389 . S
C142 C147 1.391 . S
C143 H129 0.941 . S
C143 C142 1.389 . S
C143 C144 1.397 . S
C144 H130 0.939 . S
C144 C143 1.397 . S
C144 C145 1.378 . S
C145 C144 1.378 . S
C145 C146 1.378 . S
C146 H131 0.940 . S
C146 C145 1.378 . S
C146 C147 1.396 . S
C147 H132 0.940 . S
C147 C142 1.391 . S
C147 C146 1.396 . S
C148 P128 1.803 . S
C148 C149 1.378 . S
C148 C153 1.400 . S
C149 H133 0.939 . S
C149 C148 1.378 . S
C149 C150 1.361 . S
C150 H134 0.942 . S
C150 C149 1.361 . S
C150 C151 1.369 . S
C151 C150 1.369 . S
C151 C152 1.404 . S
C152 H135 0.940 . S
C152 C151 1.404 . S
C152 C153 1.389 . S
C153 H136 0.939 . S
C153 C148 1.400 . S
C153 C152 1.389 . S
C154 P128 1.819 . S
C154 C155 1.391 . S
C154 C159 1.391 . S
C155 H137 0.941 . S
C155 C154 1.391 . S
C155 C156 1.396 . S
C156 H140 0.939 . S
C156 C155 1.396 . S
C156 C157 1.397 . S
C157 C156 1.397 . S
C157 C158 1.385 . S
C158 H141 0.940 . S
C158 C157 1.385 . S
C158 C159 1.388 . S
C159 H138 0.939 . S
C159 C154 1.391 . S
C159 C158 1.388 . S
P160 O171 1.490 . S
P160 C174 1.812 . S
P160 C180 1.803 . S
P160 C186 1.819 . S
H161 C175 0.941 . S
H162 C176 0.939 . S
H163 C178 0.940 . S
H164 C179 0.940 . S
H165 C181 0.939 . S
H166 C182 0.942 . S
H167 C184 0.940 . S
H168 C185 0.939 . S
H169 C187 0.941 . S
H170 C191 0.939 . S
O171 P160 1.490 . S
H172 C188 0.939 . S
H173 C190 0.940 . S
C174 P160 1.812 . S
C174 C175 1.389 . S
C174 C179 1.391 . S
C175 H161 0.941 . S
C175 C174 1.389 . S
C175 C176 1.397 . S
C176 H162 0.939 . S
C176 C175 1.397 . S
C176 C177 1.378 . S
C177 C176 1.378 . S
C177 C178 1.378 . S
C178 H163 0.940 . S
C178 C177 1.378 . S
C178 C179 1.396 . S
C179 H164 0.940 . S
C179 C174 1.391 . S
C179 C178 1.396 . S
C180 P160 1.803 . S
C180 C181 1.378 . S
C180 C185 1.400 . S
C181 H165 0.939 . S
C181 C180 1.378 . S
C181 C182 1.361 . S
C182 H166 0.942 . S
C182 C181 1.361 . S
C182 C183 1.369 . S
C183 C182 1.369 . S
C183 C184 1.404 . S
C184 H167 0.940 . S
C184 C183 1.404 . S
C184 C185 1.389 . S
C185 H168 0.939 . S
C185 C180 1.400 . S
C185 C184 1.389 . S
C186 P160 1.819 . S
C186 C187 1.391 . S
C186 C191 1.391 . S
C187 H169 0.941 . S
C187 C186 1.391 . S
C187 C188 1.396 . S
C188 H172 0.939 . S
C188 C187 1.396 . S
C188 C189 1.397 . S
C189 C188 1.397 . S
C189 C190 1.385 . S
C190 H173 0.940 . S
C190 C189 1.385 . S
C190 C191 1.388 . S
C191 H170 0.939 . S
C191 C186 1.391 . S
C191 C190 1.388 . S
P192 O203 1.490 . S
P192 C206 1.812 . S
P192 C212 1.803 . S
P192 C218 1.819 . S
H193 C207 0.941 . S
H194 C208 0.939 . S
H195 C210 0.940 . S
H196 C211 0.940 . S
H197 C213 0.939 . S
H198 C214 0.942 . S
H199 C216 0.940 . S
H200 C217 0.939 . S
H201 C219 0.941 . S
H202 C223 0.939 . S
O203 P192 1.490 . S
H204 C220 0.939 . S
H205 C222 0.940 . S
C206 P192 1.812 . S
C206 C207 1.389 . S
C206 C211 1.391 . S
C207 H193 0.941 . S
C207 C206 1.389 . S
C207 C208 1.397 . S
C208 H194 0.939 . S
C208 C207 1.397 . S
C208 C209 1.378 . S
C209 C208 1.378 . S
C209 C210 1.378 . S
C210 H195 0.940 . S
C210 C209 1.378 . S
C210 C211 1.396 . S
C211 H196 0.940 . S
C211 C206 1.391 . S
C211 C210 1.396 . S
C212 P192 1.803 . S
C212 C213 1.378 . S
C212 C217 1.400 . S
C213 H197 0.939 . S
C213 C212 1.378 . S
C213 C214 1.361 . S
C214 H198 0.942 . S
C214 C213 1.361 . S
C214 C215 1.369 . S
C215 C214 1.369 . S
C215 C216 1.404 . S
C216 H199 0.940 . S
C216 C215 1.404 . S
C216 C217 1.389 . S
C217 H200 0.939 . S
C217 C212 1.400 . S
C217 C216 1.389 . S
C218 P192 1.819 . S
C218 C219 1.391 . S
C218 C223 1.391 . S
C219 H201 0.941 . S
C219 C218 1.391 . S
C219 C220 1.396 . S
C220 H204 0.939 . S
C220 C219 1.396 . S
C220 C221 1.397 . S
C221 C220 1.397 . S
C221 C222 1.385 . S
C222 H205 0.940 . S
C222 C221 1.385 . S
C222 C223 1.388 . S
C223 H202 0.939 . S
C223 C218 1.391 . S
C223 C222 1.388 . S
P224 O235 1.490 . S
P224 C238 1.812 . S
P224 C244 1.803 . S
P224 C250 1.819 . S
H225 C239 0.941 . S
H226 C240 0.939 . S
H227 C242 0.940 . S
H228 C243 0.940 . S
H229 C245 0.939 . S
H230 C246 0.942 . S
H231 C248 0.940 . S
H232 C249 0.939 . S
H233 C251 0.941 . S
H234 C255 0.939 . S
O235 P224 1.490 . S
H236 C252 0.939 . S
H237 C254 0.940 . S
C238 P224 1.812 . S
C238 C239 1.389 . S
C238 C243 1.391 . S
C239 H225 0.941 . S
C239 C238 1.389 . S
C239 C240 1.397 . S
C240 H226 0.939 . S
C240 C239 1.397 . S
C240 C241 1.378 . S
C241 C240 1.378 . S
C241 C242 1.378 . S
C242 H227 0.940 . S
C242 C241 1.378 . S
C242 C243 1.396 . S
C243 H228 0.940 . S
C243 C238 1.391 . S
C243 C242 1.396 . S
C244 P224 1.803 . S
C244 C245 1.378 . S
C244 C249 1.400 . S
C245 H229 0.939 . S
C245 C244 1.378 . S
C245 C246 1.361 . S
C246 H230 0.942 . S
C246 C245 1.361 . S
C246 C247 1.369 . S
C247 C246 1.369 . S
C247 C248 1.404 . S
C248 H231 0.940 . S
C248 C247 1.404 . S
C248 C249 1.389 . S
C249 H232 0.939 . S
C249 C244 1.400 . S
C249 C248 1.389 . S
C250 P224 1.819 . S
C250 C251 1.391 . S
C250 C255 1.391 . S
C251 H233 0.941 . S
C251 C250 1.391 . S
C251 C252 1.396 . S
C252 H236 0.939 . S
C252 C251 1.396 . S
C252 C253 1.397 . S
C253 C252 1.397 . S
C253 C254 1.385 . S
C254 H237 0.940 . S
C254 C253 1.385 . S
C254 C255 1.388 . S
C255 H234 0.939 . S
C255 C250 1.391 . S
C255 C254 1.388 . S
Dy256 O260 2.398 . S
Dy256 O261 2.491 . S
Dy256 O262 2.403 1_545 S
Dy256 O263 2.664 1_545 S
Dy256 O267 2.326 . S
Dy256 O271 2.310 1_455 S
Dy256 O272 2.351 1_445 S
C257 O268 1.185 . S
C257 O269 1.355 . S
C258 O260 1.185 . S
C258 O261 1.355 . S
Dy259 O263 2.325 1_655 S
Dy259 O266 2.310 1_665 S
Dy259 O268 2.422 . S
Dy259 O269 2.537 . S
Dy259 O270 2.381 1_565 S
Dy259 O271 2.642 1_565 S
Dy259 O273 2.358 . S
O260 Dy256 2.398 . S
O260 C258 1.185 . S
O261 Dy256 2.491 . S
O261 C258 1.355 . S
O262 Dy256 2.403 1_565 S
O262 C264 1.254 . S
O263 Dy256 2.664 1_565 S
O263 Dy259 2.325 1_455 S
O263 C264 1.268 . S
C264 O262 1.254 . S
C264 O263 1.268 . S
C265 O270 1.254 . S
C265 O271 1.268 . S
O266 Dy259 2.310 1_445 S
O266 C274 1.249 . S
O267 Dy256 2.326 . S
O267 C274 1.267 . S
O268 C257 1.185 . S
O268 Dy259 2.422 . S
O269 C257 1.355 . S
O269 Dy259 2.537 . S
O270 Dy259 2.381 1_545 S
O270 C265 1.254 . S
O271 Dy256 2.310 1_655 S
O271 Dy259 2.642 1_545 S
O271 C265 1.268 . S
O272 Dy256 2.351 1_665 S
O272 C275 1.249 . S
O273 Dy259 2.358 . S
O273 C275 1.267 . S
C274 O266 1.249 . S
C274 O267 1.267 . S
C275 O272 1.249 . S
C275 O273 1.267 . S
Dy276 O280 2.398 . S
Dy276 O281 2.491 . S
Dy276 O282 2.403 1_545 S
Dy276 O283 2.664 1_545 S
Dy276 O287 2.326 . S
Dy276 O291 2.310 . S
Dy276 O292 2.331 1_544 S
C277 O288 1.185 . S
C277 O289 1.355 . S
C278 O280 1.185 . S
C278 O281 1.355 . S
Dy279 O283 2.310 1_546 S
Dy279 O286 2.351 1_556 S
Dy279 O288 2.398 1_545 S
Dy279 O289 2.491 1_545 S
Dy279 O290 2.403 . S
Dy279 O291 2.664 1_556 S
Dy279 O293 2.326 1_545 S
O280 Dy276 2.398 . S
O280 C278 1.185 . S
O281 Dy276 2.491 . S
O281 C278 1.355 . S
O282 Dy276 2.403 1_565 S
O282 C284 1.254 . S
O283 Dy276 2.664 1_565 S
O283 Dy279 2.310 1_564 S
O283 C284 1.268 . S
C284 O282 1.254 . S
C284 O283 1.268 . S
C285 O290 1.254 . S
C285 O291 1.268 1_556 S
O286 Dy279 2.351 1_554 S
O286 C294 1.249 . S
O287 Dy276 2.326 . S
O287 C294 1.267 . S
O288 C277 1.185 . S
O288 Dy279 2.398 1_565 S
O289 C277 1.355 . S
O289 Dy279 2.491 1_565 S
O290 Dy279 2.403 . S
O290 C285 1.254 . S
O291 Dy276 2.310 . S
O291 Dy279 2.664 1_554 S
O291 C285 1.268 1_554 S
O292 Dy276 2.331 1_566 S
O292 C295 1.274 . S
O293 Dy279 2.326 1_565 S
O293 C295 1.267 . S
C294 O286 1.249 . S
C294 O287 1.267 . S
C295 O292 1.274 . S
C295 O293 1.267 . S
Dy296 O300 2.398 . S
Dy296 O301 2.491 . S
Dy296 O302 2.403 . S
Dy296 O303 2.664 . S
Dy296 O307 2.326 . S
Dy296 O311 2.310 . S
Dy296 O312 2.351 . S
C297 O308 1.185 . S
C297 O309 1.355 . S
C298 O300 1.185 . S
C298 O301 1.355 . S
Dy299 O303 2.310 . S
Dy299 O306 2.351 . S
Dy299 O308 2.398 . S
Dy299 O309 2.491 . S
Dy299 O310 2.403 . S
Dy299 O311 2.664 . S
Dy299 O313 2.326 . S
O300 Dy296 2.398 . S
O300 C298 1.185 . S
O301 Dy296 2.491 . S
O301 C298 1.355 . S
O302 Dy296 2.403 . S
O302 C304 1.254 . S
O303 Dy296 2.664 . S
O303 Dy299 2.310 . S
O303 C304 1.268 . S
C304 O302 1.254 . S
C304 O303 1.268 . S
C305 O310 1.254 . S
C305 O311 1.268 . S
O306 Dy299 2.351 . S
O306 C314 1.249 . S
O307 Dy296 2.326 . S
O307 C314 1.267 . S
O308 C297 1.185 . S
O308 Dy299 2.398 . S
O309 C297 1.355 . S
O309 Dy299 2.491 . S
O310 Dy299 2.403 . S
O310 C305 1.254 . S
O311 Dy296 2.310 . S
O311 Dy299 2.664 . S
O311 C305 1.268 . S
O312 Dy296 2.351 . S
O312 C315 1.249 . S
O313 Dy299 2.326 . S
O313 C315 1.267 . S
C314 O306 1.249 . S
C314 O307 1.267 . S
C315 O312 1.249 . S
C315 O313 1.267 . S
Dy316 O320 2.398 . S
Dy316 O321 2.491 . S
Dy316 O322 2.403 1_455 S
Dy316 O323 2.664 1_455 S
Dy316 O327 2.326 . S
Dy316 O331 2.310 1_554 S
Dy316 O332 2.351 1_455 S
C317 O328 1.185 . S
C317 O329 1.355 . S
C318 O320 1.185 . S
C318 O321 1.355 . S
Dy319 O323 2.310 1_556 S
Dy319 O326 2.351 1_656 S
Dy319 O328 2.398 . S
Dy319 O329 2.491 . S
Dy319 O330 2.403 1_655 S
Dy319 O331 2.664 1_655 S
Dy319 O333 2.326 . S
O320 Dy316 2.398 . S
O320 C318 1.185 . S
O321 Dy316 2.491 . S
O321 C318 1.355 . S
O322 Dy316 2.403 1_655 S
O322 C324 1.254 . S
O323 Dy316 2.664 1_655 S
O323 Dy319 2.310 1_554 S
O323 C324 1.268 . S
C324 O322 1.254 . S
C324 O323 1.268 . S
C325 O330 1.254 . S
C325 O331 1.268 . S
O326 Dy319 2.351 1_454 S
O326 C334 1.249 . S
O327 Dy316 2.326 . S
O327 C334 1.267 . S
O328 C317 1.185 . S
O328 Dy319 2.398 . S
O329 C317 1.355 . S
O329 Dy319 2.491 . S
O330 Dy319 2.403 1_455 S
O330 C325 1.254 . S
O331 Dy316 2.310 1_556 S
O331 Dy319 2.664 1_455 S
O331 C325 1.268 . S
O332 Dy316 2.351 1_655 S
O332 C335 1.249 1_554 S
O333 Dy319 2.326 . S
O333 C335 1.267 . S
C334 O326 1.249 . S
C334 O327 1.267 . S
C335 O332 1.249 1_556 S
C335 O333 1.267 . S
C336 C337 1.349 . S
C336 C338 1.327 . S
C336 H361 0.950 . S
C337 C336 1.349 . S
C337 C353 1.349 . S
C338 C336 1.327 . S
C338 C357 1.429 . S
C338 H362 0.950 . S
C339 C356 1.574 . S
C339 C358 1.368 . S
C339 H363 0.949 . S
H340 C344 0.949 . S
C341 C342 1.349 . S
C341 C343 1.327 . S
C341 H364 0.950 . S
C342 C341 1.349 . S
C342 C354 1.349 . S
C343 C341 1.327 . S
C343 C359 1.429 . S
C343 H365 0.950 . S
C344 H340 0.949 . S
C344 C352 1.574 . S
C344 C360 1.368 . S
H345 C353 0.950 . S
H346 C351 0.950 . S
H347 C352 0.949 . S
H348 C354 0.950 . S
H349 C355 0.950 . S
H350 C356 0.949 . S
C351 H346 0.950 . S
C351 C353 1.327 . S
C351 C357 1.429 . S
C352 C344 1.574 . S
C352 H347 0.949 . S
C352 C358 1.368 . S
C353 C337 1.349 . S
C353 H345 0.950 . S
C353 C351 1.327 . S
C354 C342 1.349 . S
C354 H348 0.950 . S
C354 C355 1.327 . S
C355 H349 0.950 . S
C355 C354 1.327 . S
C355 C359 1.429 . S
C356 C339 1.574 . S
C356 H350 0.949 . S
C356 C360 1.368 . S
C357 C338 1.429 . S
C357 C351 1.429 . S
C357 C358 1.523 . S
C358 C339 1.368 . S
C358 C352 1.368 . S
C358 C357 1.523 . S
C359 C343 1.429 . S
C359 C355 1.429 . S
C359 C360 1.523 . S
C360 C344 1.368 . S
C360 C356 1.368 . S
C360 C359 1.523 . S
H361 C336 0.950 . S
H362 C338 0.950 . S
H363 C339 0.949 . S
H364 C341 0.950 . S
H365 C343 0.950 . S
C366 C367 1.349 . S
C366 C368 1.327 . S
C366 H391 0.950 . S
C367 C366 1.349 . S
C367 C383 1.349 . S
C368 C366 1.327 . S
C368 C387 1.429 . S
C368 H392 0.950 . S
C369 C386 1.574 . S
C369 C388 1.368 . S
C369 H393 0.949 . S
H370 C374 0.949 . S
C371 C372 1.349 . S
C371 C373 1.327 . S
C371 H394 0.950 . S
C372 C371 1.349 . S
C372 C384 1.349 . S
C373 C371 1.327 . S
C373 C389 1.429 . S
C373 H395 0.950 . S
C374 H370 0.949 . S
C374 C382 1.574 . S
C374 C390 1.368 . S
H375 C383 0.950 . S
H376 C381 0.950 . S
H377 C382 0.949 . S
H378 C384 0.950 . S
H379 C385 0.950 . S
H380 C386 0.949 . S
C381 H376 0.950 . S
C381 C383 1.327 . S
C381 C387 1.429 . S
C382 C374 1.574 . S
C382 H377 0.949 . S
C382 C388 1.368 . S
C383 C367 1.349 . S
C383 H375 0.950 . S
C383 C381 1.327 . S
C384 C372 1.349 . S
C384 H378 0.950 . S
C384 C385 1.327 . S
C385 H379 0.950 . S
C385 C384 1.327 . S
C385 C389 1.429 . S
C386 C369 1.574 . S
C386 H380 0.949 . S
C386 C390 1.368 . S
C387 C368 1.429 . S
C387 C381 1.429 . S
C387 C388 1.523 . S
C388 C369 1.368 . S
C388 C382 1.368 . S
C388 C387 1.523 . S
C389 C373 1.429 . S
C389 C385 1.429 . S
C389 C390 1.523 . S
C390 C374 1.368 . S
C390 C386 1.368 . S
C390 C389 1.523 . S
H391 C366 0.950 . S
H392 C368 0.950 . S
H393 C369 0.949 . S
H394 C371 0.950 . S
H395 C373 0.950 . S
C396 C397 1.349 . S
C396 C398 1.327 . S
C396 H421 0.950 . S
C397 C396 1.349 . S
C397 C413 1.349 . S
C398 C396 1.327 . S
C398 C417 1.429 . S
C398 H422 0.950 . S
C399 C416 1.574 . S
C399 C418 1.368 . S
C399 H423 0.949 . S
H400 C404 0.949 . S
C401 C402 1.349 . S
C401 C403 1.327 . S
C401 H424 0.950 . S
C402 C401 1.349 . S
C402 C414 1.349 . S
C403 C401 1.327 . S
C403 C419 1.429 . S
C403 H425 0.950 . S
C404 H400 0.949 . S
C404 C412 1.574 . S
C404 C420 1.368 . S
H405 C413 0.950 . S
H406 C411 0.950 . S
H407 C412 0.949 . S
H408 C414 0.950 . S
H409 C415 0.950 . S
H410 C416 0.949 . S
C411 H406 0.950 . S
C411 C413 1.327 . S
C411 C417 1.429 . S
C412 C404 1.574 . S
C412 H407 0.949 . S
C412 C418 1.368 . S
C413 C397 1.349 . S
C413 H405 0.950 . S
C413 C411 1.327 . S
C414 C402 1.349 . S
C414 H408 0.950 . S
C414 C415 1.327 . S
C415 H409 0.950 . S
C415 C414 1.327 . S
C415 C419 1.429 . S
C416 C399 1.574 . S
C416 H410 0.949 . S
C416 C420 1.368 . S
C417 C398 1.429 . S
C417 C411 1.429 . S
C417 C418 1.523 . S
C418 C399 1.368 . S
C418 C412 1.368 . S
C418 C417 1.523 . S
C419 C403 1.429 . S
C419 C415 1.429 . S
C419 C420 1.523 . S
C420 C404 1.368 . S
C420 C416 1.368 . S
C420 C419 1.523 . S
H421 C396 0.950 . S
H422 C398 0.950 . S
H423 C399 0.949 . S
H424 C401 0.950 . S
H425 C403 0.950 . S
C426 C427 1.349 . S
C426 C428 1.327 . S
C426 H451 0.950 . S
C427 C426 1.349 . S
C427 C443 1.349 . S
C428 C426 1.327 . S
C428 C447 1.429 . S
C428 H452 0.950 . S
C429 C446 1.574 . S
C429 C448 1.368 . S
C429 H453 0.949 . S
H430 C434 0.949 . S
C431 C432 1.349 . S
C431 C433 1.327 . S
C431 H454 0.950 . S
C432 C431 1.349 . S
C432 C444 1.349 . S
C433 C431 1.327 . S
C433 C449 1.429 . S
C433 H455 0.950 . S
C434 H430 0.949 . S
C434 C442 1.574 . S
C434 C450 1.368 . S
H435 C443 0.950 . S
H436 C441 0.950 . S
H437 C442 0.949 . S
H438 C444 0.950 . S
H439 C445 0.950 . S
H440 C446 0.949 . S
C441 H436 0.950 . S
C441 C443 1.327 . S
C441 C447 1.429 . S
C442 C434 1.574 . S
C442 H437 0.949 . S
C442 C448 1.368 . S
C443 C427 1.349 . S
C443 H435 0.950 . S
C443 C441 1.327 . S
C444 C432 1.349 . S
C444 H438 0.950 . S
C444 C445 1.327 . S
C445 H439 0.950 . S
C445 C444 1.327 . S
C445 C449 1.429 . S
C446 C429 1.574 . S
C446 H440 0.949 . S
C446 C450 1.368 . S
C447 C428 1.429 . S
C447 C441 1.429 . S
C447 C448 1.523 . S
C448 C429 1.368 . S
C448 C442 1.368 . S
C448 C447 1.523 . S
C449 C433 1.429 . S
C449 C445 1.429 . S
C449 C450 1.523 . S
C450 C434 1.368 . S
C450 C446 1.368 . S
C450 C449 1.523 . S
H451 C426 0.950 . S
H452 C428 0.950 . S
H453 C429 0.949 . S
H454 C431 0.950 . S
H455 C433 0.950 . S
C456 C457 1.349 . S
C456 C458 1.327 . S
C456 H481 0.950 . S
C457 C456 1.349 . S
C457 C473 1.349 . S
C458 C456 1.327 . S
C458 C477 1.429 . S
C458 H482 0.950 . S
C459 C476 1.574 . S
C459 C478 1.368 . S
C459 H483 0.949 . S
H460 C464 0.949 . S
C461 C462 1.349 . S
C461 C463 1.327 . S
C461 H484 0.950 . S
C462 C461 1.349 . S
C462 C474 1.349 . S
C463 C461 1.327 . S
C463 C479 1.429 . S
C463 H485 0.950 . S
C464 H460 0.949 . S
C464 C472 1.574 . S
C464 C480 1.368 . S
H465 C473 0.950 . S
H466 C471 0.950 . S
H467 C472 0.949 . S
H468 C474 0.950 . S
H469 C475 0.950 . S
H470 C476 0.949 . S
C471 H466 0.950 . S
C471 C473 1.327 . S
C471 C477 1.429 . S
C472 C464 1.574 . S
C472 H467 0.949 . S
C472 C478 1.368 . S
C473 C457 1.349 . S
C473 H465 0.950 . S
C473 C471 1.327 . S
C474 C462 1.349 . S
C474 H468 0.950 . S
C474 C475 1.327 . S
C475 H469 0.950 . S
C475 C474 1.327 . S
C475 C479 1.429 . S
C476 C459 1.574 . S
C476 H470 0.949 . S
C476 C480 1.368 . S
C477 C458 1.429 . S
C477 C471 1.429 . S
C477 C478 1.523 . S
C478 C459 1.368 . S
C478 C472 1.368 . S
C478 C477 1.523 . S
C479 C463 1.429 . S
C479 C475 1.429 . S
C479 C480 1.523 . S
C480 C464 1.368 . S
C480 C476 1.368 . S
C480 C479 1.523 . S
H481 C456 0.950 . S
H482 C458 0.950 . S
H483 C459 0.949 . S
H484 C461 0.950 . S
H485 C463 0.950 . S
C486 C487 1.349 . S
C486 C488 1.327 . S
C486 H511 0.950 . S
C487 C486 1.349 . S
C487 C503 1.349 . S
C488 C486 1.327 . S
C488 C507 1.429 . S
C488 H512 0.950 . S
C489 C506 1.574 . S
C489 C508 1.368 . S
C489 H513 0.949 . S
H490 C494 0.949 . S
C491 C492 1.349 . S
C491 C493 1.327 . S
C491 H514 0.950 . S
C492 C491 1.349 . S
C492 C504 1.349 . S
C493 C491 1.327 . S
C493 C509 1.429 . S
C493 H515 0.950 . S
C494 H490 0.949 . S
C494 C502 1.574 . S
C494 C510 1.368 . S
H495 C503 0.950 . S
H496 C501 0.950 . S
H497 C502 0.949 . S
H498 C504 0.950 1_545 S
H499 C505 0.950 . S
H500 C506 0.949 . S
C501 H496 0.950 . S
C501 C503 1.327 . S
C501 C507 1.429 . S
C502 C494 1.574 . S
C502 H497 0.949 . S
C502 C508 1.368 . S
C503 C487 1.349 . S
C503 H495 0.950 . S
C503 C501 1.327 . S
C504 C492 1.349 . S
C504 H498 0.950 1_565 S
C504 C505 1.327 . S
C505 H499 0.950 . S
C505 C504 1.327 . S
C505 C509 1.429 . S
C506 C489 1.574 . S
C506 H500 0.949 . S
C506 C510 1.368 . S
C507 C488 1.429 . S
C507 C501 1.429 . S
C507 C508 1.523 . S
C508 C489 1.368 . S
C508 C502 1.368 . S
C508 C507 1.523 . S
C509 C493 1.429 . S
C509 C505 1.429 . S
C509 C510 1.523 . S
C510 C494 1.368 . S
C510 C506 1.368 . S
C510 C509 1.523 . S
H511 C486 0.950 . S
H512 C488 0.950 . S
H513 C489 0.949 . S
H514 C491 0.950 . S
H515 C493 0.950 . S
C516 C517 1.349 . S
C516 C518 1.327 . S
C516 H541 0.950 . S
C517 C516 1.349 . S
C517 C533 1.349 . S
C518 C516 1.327 . S
C518 C537 1.429 . S
C518 H542 0.950 . S
C519 C536 1.574 . S
C519 C538 1.368 . S
C519 H543 0.949 . S
H520 C524 0.949 . S
C521 C522 1.349 . S
C521 C523 1.327 . S
C521 H544 0.950 . S
C522 C521 1.349 . S
C522 C534 1.349 . S
C523 C521 1.327 . S
C523 C539 1.429 . S
C523 H545 0.950 . S
C524 H520 0.949 . S
C524 C532 1.574 . S
C524 C540 1.368 . S
H525 C533 0.950 . S
H526 C531 0.950 . S
H527 C532 0.949 . S
H528 C534 0.950 . S
H529 C535 0.950 . S
H530 C536 0.949 . S
C531 H526 0.950 . S
C531 C533 1.327 . S
C531 C537 1.429 . S
C532 C524 1.574 . S
C532 H527 0.949 . S
C532 C538 1.368 . S
C533 C517 1.349 . S
C533 H525 0.950 . S
C533 C531 1.327 . S
C534 C522 1.349 . S
C534 H528 0.950 . S
C534 C535 1.327 . S
C535 H529 0.950 . S
C535 C534 1.327 . S
C535 C539 1.429 . S
C536 C519 1.574 . S
C536 H530 0.949 . S
C536 C540 1.368 . S
C537 C518 1.429 . S
C537 C531 1.429 . S
C537 C538 1.523 . S
C538 C519 1.368 . S
C538 C532 1.368 . S
C538 C537 1.523 . S
C539 C523 1.429 . S
C539 C535 1.429 . S
C539 C540 1.523 . S
C540 C524 1.368 . S
C540 C536 1.368 . S
C540 C539 1.523 . S
H541 C516 0.950 . S
H542 C518 0.950 . S
H543 C519 0.949 . S
H544 C521 0.950 . S
H545 C523 0.950 . S
C546 C547 1.349 . S
C546 C548 1.327 . S
C546 H571 0.950 . S
C547 C546 1.349 . S
C547 C563 1.349 . S
C548 C546 1.327 . S
C548 C567 1.429 . S
C548 H572 0.950 . S
C549 C566 1.574 . S
C549 C568 1.368 . S
C549 H573 0.949 . S
H550 C554 0.949 . S
C551 C552 1.349 . S
C551 C553 1.327 . S
C551 H574 0.950 . S
C552 C551 1.349 . S
C552 C564 1.349 . S
C553 C551 1.327 . S
C553 C569 1.429 . S
C553 H575 0.950 . S
C554 H550 0.949 . S
C554 C562 1.574 . S
C554 C570 1.368 . S
H555 C563 0.950 . S
H556 C561 0.950 . S
H557 C562 0.949 . S
H558 C564 0.950 . S
H559 C565 0.950 . S
H560 C566 0.949 . S
C561 H556 0.950 . S
C561 C563 1.327 . S
C561 C567 1.429 . S
C562 C554 1.574 . S
C562 H557 0.949 . S
C562 C568 1.368 . S
C563 C547 1.349 . S
C563 H555 0.950 . S
C563 C561 1.327 . S
C564 C552 1.349 . S
C564 H558 0.950 . S
C564 C565 1.327 . S
C565 H559 0.950 . S
C565 C564 1.327 . S
C565 C569 1.429 . S
C566 C549 1.574 . S
C566 H560 0.949 . S
C566 C570 1.368 . S
C567 C548 1.429 . S
C567 C561 1.429 . S
C567 C568 1.523 . S
C568 C549 1.368 . S
C568 C562 1.368 . S
C568 C567 1.523 . S
C569 C553 1.429 . S
C569 C565 1.429 . S
C569 C570 1.523 . S
C570 C554 1.368 . S
C570 C566 1.368 . S
C570 C569 1.523 . S
H571 C546 0.950 . S
H572 C548 0.950 . S
H573 C549 0.949 . S
H574 C551 0.950 . S
H575 C553 0.950 . S
C576 C577 1.349 . S
C576 C578 1.327 . S
C576 H601 0.950 . S
C577 C576 1.349 . S
C577 C593 1.349 . S
C578 C576 1.327 . S
C578 C597 1.429 . S
C578 H602 0.950 . S
C579 C596 1.574 . S
C579 C598 1.368 . S
C579 H603 0.949 . S
H580 C584 0.949 . S
C581 C582 1.349 . S
C581 C583 1.327 . S
C581 H604 0.950 . S
C582 C581 1.349 . S
C582 C594 1.349 . S
C583 C581 1.327 . S
C583 C599 1.429 . S
C583 H605 0.950 . S
C584 H580 0.949 . S
C584 C592 1.574 . S
C584 C600 1.368 . S
H585 C593 0.950 . S
H586 C591 0.950 . S
H587 C592 0.949 . S
H588 C594 0.950 . S
H589 C595 0.950 . S
H590 C596 0.949 . S
C591 H586 0.950 . S
C591 C593 1.327 . S
C591 C597 1.429 . S
C592 C584 1.574 . S
C592 H587 0.949 . S
C592 C598 1.368 . S
C593 C577 1.349 . S
C593 H585 0.950 . S
C593 C591 1.327 . S
C594 C582 1.349 . S
C594 H588 0.950 . S
C594 C595 1.327 . S
C595 H589 0.950 . S
C595 C594 1.327 . S
C595 C599 1.429 . S
C596 C579 1.574 . S
C596 H590 0.949 . S
C596 C600 1.368 . S
C597 C578 1.429 . S
C597 C591 1.429 . S
C597 C598 1.523 . S
C598 C579 1.368 . S
C598 C592 1.368 . S
C598 C597 1.523 . S
C599 C583 1.429 . S
C599 C595 1.429 . S
C599 C600 1.523 . S
C600 C584 1.368 . S
C600 C596 1.368 . S
C600 C599 1.523 . S
H601 C576 0.950 . S
H602 C578 0.950 . S
H603 C579 0.949 . S
H604 C581 0.950 . S
H605 C583 0.950 . S
C606 C607 1.349 . S
C606 C608 1.327 . S
C606 H631 0.950 . S
C607 C606 1.349 . S
C607 C623 1.349 . S
C608 C606 1.327 . S
C608 C627 1.429 . S
C608 H632 0.950 . S
C609 C626 1.574 . S
C609 C628 1.368 . S
C609 H633 0.949 . S
H610 C614 0.949 . S
C611 C612 1.349 . S
C611 C613 1.327 . S
C611 H634 0.950 . S
C612 C611 1.349 . S
C612 C624 1.349 . S
C613 C611 1.327 . S
C613 C629 1.429 . S
C613 H635 0.950 . S
C614 H610 0.949 . S
C614 C622 1.574 . S
C614 C630 1.368 . S
H615 C623 0.950 . S
H616 C621 0.950 . S
H617 C622 0.949 . S
H618 C624 0.950 . S
H619 C625 0.950 . S
H620 C626 0.949 . S
C621 H616 0.950 . S
C621 C623 1.327 . S
C621 C627 1.429 . S
C622 C614 1.574 . S
C622 H617 0.949 . S
C622 C628 1.368 . S
C623 C607 1.349 . S
C623 H615 0.950 . S
C623 C621 1.327 . S
C624 C612 1.349 . S
C624 H618 0.950 . S
C624 C625 1.327 . S
C625 H619 0.950 . S
C625 C624 1.327 . S
C625 C629 1.429 . S
C626 C609 1.574 . S
C626 H620 0.949 . S
C626 C630 1.368 . S
C627 C608 1.429 . S
C627 C621 1.429 . S
C627 C628 1.523 . S
C628 C609 1.368 . S
C628 C622 1.368 . S
C628 C627 1.523 . S
C629 C613 1.429 . S
C629 C625 1.429 . S
C629 C630 1.523 . S
C630 C614 1.368 . S
C630 C626 1.368 . S
C630 C629 1.523 . S
H631 C606 0.950 . S
H632 C608 0.950 . S
H633 C609 0.949 . S
H634 C611 0.950 . S
H635 C613 0.950 . S
C636 C637 1.349 . S
C636 C638 1.327 . S
C636 H661 0.950 . S
C637 C636 1.349 . S
C637 C653 1.349 . S
C638 C636 1.327 . S
C638 C657 1.429 . S
C638 H662 0.950 . S
C639 C656 1.574 . S
C639 C658 1.368 . S
C639 H663 0.949 . S
H640 C644 0.949 . S
C641 C642 1.349 . S
C641 C643 1.327 . S
C641 H664 0.950 . S
C642 C641 1.349 . S
C642 C654 1.349 . S
C643 C641 1.327 . S
C643 C659 1.429 . S
C643 H665 0.950 . S
C644 H640 0.949 . S
C644 C652 1.574 . S
C644 C660 1.368 . S
H645 C653 0.950 . S
H646 C651 0.950 . S
H647 C652 0.949 . S
H648 C654 0.950 . S
H649 C655 0.950 . S
H650 C656 0.949 . S
C651 H646 0.950 . S
C651 C653 1.327 . S
C651 C657 1.429 . S
C652 C644 1.574 . S
C652 H647 0.949 . S
C652 C658 1.368 . S
C653 C637 1.349 . S
C653 H645 0.950 . S
C653 C651 1.327 . S
C654 C642 1.349 . S
C654 H648 0.950 . S
C654 C655 1.327 . S
C655 H649 0.950 . S
C655 C654 1.327 . S
C655 C659 1.429 . S
C656 C639 1.574 . S
C656 H650 0.949 . S
C656 C660 1.368 . S
C657 C638 1.429 . S
C657 C651 1.429 . S
C657 C658 1.523 . S
C658 C639 1.368 . S
C658 C652 1.368 . S
C658 C657 1.523 . S
C659 C643 1.429 . S
C659 C655 1.429 . S
C659 C660 1.523 . S
C660 C644 1.368 . S
C660 C656 1.368 . S
C660 C659 1.523 . S
H661 C636 0.950 . S
H662 C638 0.950 . S
H663 C639 0.949 . S
H664 C641 0.950 . S
H665 C643 0.950 . S
C666 C667 1.349 . S
C666 C668 1.327 . S
C666 H691 0.950 . S
C667 C666 1.349 . S
C667 C683 1.349 . S
C668 C666 1.327 . S
C668 C687 1.429 . S
C668 H692 0.950 . S
C669 C686 1.574 . S
C669 C688 1.368 . S
C669 H693 0.949 . S
H670 C674 0.949 . S
C671 C672 1.349 . S
C671 C673 1.327 . S
C671 H694 0.950 . S
C672 C671 1.349 . S
C672 C684 1.349 . S
C673 C671 1.327 . S
C673 C689 1.429 . S
C673 H695 0.950 . S
C674 H670 0.949 . S
C674 C682 1.574 . S
C674 C690 1.368 . S
H675 C683 0.950 . S
H676 C681 0.950 . S
H677 C682 0.949 . S
H678 C684 0.950 . S
H679 C685 0.950 . S
H680 C686 0.949 . S
C681 H676 0.950 . S
C681 C683 1.327 . S
C681 C687 1.429 . S
C682 C674 1.574 . S
C682 H677 0.949 . S
C682 C688 1.368 . S
C683 C667 1.349 . S
C683 H675 0.950 . S
C683 C681 1.327 . S
C684 C672 1.349 . S
C684 H678 0.950 . S
C684 C685 1.327 . S
C685 H679 0.950 . S
C685 C684 1.327 . S
C685 C689 1.429 . S
C686 C669 1.574 . S
C686 H680 0.949 . S
C686 C690 1.368 . S
C687 C668 1.429 . S
C687 C681 1.429 . S
C687 C688 1.523 . S
C688 C669 1.368 . S
C688 C682 1.368 . S
C688 C687 1.523 . S
C689 C673 1.429 . S
C689 C685 1.429 . S
C689 C690 1.523 . S
C690 C674 1.368 . S
C690 C686 1.368 . S
C690 C689 1.523 . S
H691 C666 0.950 . S
H692 C668 0.950 . S
H693 C669 0.949 . S
H694 C671 0.950 . S
H695 C673 0.950 . S
C696 C697 1.349 . S
C696 C698 1.327 . S
C696 H721 0.950 . S
C697 C696 1.349 . S
C697 C713 1.349 . S
C698 C696 1.327 . S
C698 C717 1.429 . S
C698 H722 0.950 . S
C699 C716 1.574 . S
C699 C718 1.368 . S
C699 H723 0.949 . S
H700 C704 0.949 . S
C701 C702 1.349 . S
C701 C703 1.327 . S
C701 H724 0.950 . S
C702 C701 1.349 . S
C702 C714 1.349 . S
C703 C701 1.327 . S
C703 C719 1.429 . S
C703 H725 0.950 . S
C704 H700 0.949 . S
C704 C712 1.574 . S
C704 C720 1.368 . S
H705 C713 0.950 . S
H706 C711 0.950 . S
H707 C712 0.949 . S
H708 C714 0.950 . S
H709 C715 0.950 . S
H710 C716 0.949 . S
C711 H706 0.950 . S
C711 C713 1.327 . S
C711 C717 1.429 . S
C712 C704 1.574 . S
C712 H707 0.949 . S
C712 C718 1.368 . S
C713 C697 1.349 . S
C713 H705 0.950 . S
C713 C711 1.327 . S
C714 C702 1.349 . S
C714 H708 0.950 . S
C714 C715 1.327 . S
C715 H709 0.950 . S
C715 C714 1.327 . S
C715 C719 1.429 . S
C716 C699 1.574 . S
C716 H710 0.949 . S
C716 C720 1.368 . S
C717 C698 1.429 . S
C717 C711 1.429 . S
C717 C718 1.523 . S
C718 C699 1.368 . S
C718 C712 1.368 . S
C718 C717 1.523 . S
C719 C703 1.429 . S
C719 C715 1.429 . S
C719 C720 1.523 . S
C720 C704 1.368 . S
C720 C716 1.368 . S
C720 C719 1.523 . S
H721 C696 0.950 . S
H722 C698 0.950 . S
H723 C699 0.949 . S
H724 C701 0.950 . S
H725 C703 0.950 . S
C726 C727 1.349 . S
C726 C728 1.327 . S
C726 H751 0.950 . S
C727 C726 1.349 . S
C727 C743 1.349 . S
C728 C726 1.327 . S
C728 C747 1.429 . S
C728 H752 0.950 . S
C729 C746 1.574 . S
C729 C748 1.368 . S
C729 H753 0.949 . S
H730 C734 0.949 . S
C731 C732 1.349 . S
C731 C733 1.327 . S
C731 H754 0.950 . S
C732 C731 1.349 . S
C732 C744 1.349 . S
C733 C731 1.327 . S
C733 C749 1.429 . S
C733 H755 0.950 . S
C734 H730 0.949 . S
C734 C742 1.574 . S
C734 C750 1.368 . S
H735 C743 0.950 . S
H736 C741 0.950 . S
H737 C742 0.949 . S
H738 C744 0.950 . S
H739 C745 0.950 . S
H740 C746 0.949 . S
C741 H736 0.950 . S
C741 C743 1.327 . S
C741 C747 1.429 . S
C742 C734 1.574 . S
C742 H737 0.949 . S
C742 C748 1.368 . S
C743 C727 1.349 . S
C743 H735 0.950 . S
C743 C741 1.327 . S
C744 C732 1.349 . S
C744 H738 0.950 . S
C744 C745 1.327 . S
C745 H739 0.950 . S
C745 C744 1.327 . S
C745 C749 1.429 . S
C746 C729 1.574 . S
C746 H740 0.949 . S
C746 C750 1.368 . S
C747 C728 1.429 . S
C747 C741 1.429 . S
C747 C748 1.523 . S
C748 C729 1.368 . S
C748 C742 1.368 . S
C748 C747 1.523 . S
C749 C733 1.429 . S
C749 C745 1.429 . S
C749 C750 1.523 . S
C750 C734 1.368 . S
C750 C746 1.368 . S
C750 C749 1.523 . S
H751 C726 0.950 . S
H752 C728 0.950 . S
H753 C729 0.949 . S
H754 C731 0.950 . S
H755 C733 0.950 . S
C756 C757 1.349 . S
C756 C758 1.327 . S
C756 H781 0.950 . S
C757 C756 1.349 . S
C757 C773 1.349 . S
C758 C756 1.327 . S
C758 C777 1.429 . S
C758 H782 0.950 . S
C759 C776 1.574 . S
C759 C778 1.368 . S
C759 H783 0.949 . S
H760 C764 0.949 . S
C761 C762 1.349 . S
C761 C763 1.327 . S
C761 H784 0.950 . S
C762 C761 1.349 . S
C762 C774 1.349 . S
C763 C761 1.327 . S
C763 C779 1.429 . S
C763 H785 0.950 . S
C764 H760 0.949 . S
C764 C772 1.574 . S
C764 C780 1.368 . S
H765 C773 0.950 . S
H766 C771 0.950 . S
H767 C772 0.949 . S
H768 C774 0.950 . S
H769 C775 0.950 . S
H770 C776 0.949 . S
C771 H766 0.950 . S
C771 C773 1.327 . S
C771 C777 1.429 . S
C772 C764 1.574 . S
C772 H767 0.949 . S
C772 C778 1.368 . S
C773 C757 1.349 . S
C773 H765 0.950 . S
C773 C771 1.327 . S
C774 C762 1.349 . S
C774 H768 0.950 . S
C774 C775 1.327 . S
C775 H769 0.950 . S
C775 C774 1.327 . S
C775 C779 1.429 . S
C776 C759 1.574 . S
C776 H770 0.949 . S
C776 C780 1.368 . S
C777 C758 1.429 . S
C777 C771 1.429 . S
C777 C778 1.523 . S
C778 C759 1.368 . S
C778 C772 1.368 . S
C778 C777 1.523 . S
C779 C763 1.429 . S
C779 C775 1.429 . S
C779 C780 1.523 . S
C780 C764 1.368 . S
C780 C776 1.368 . S
C780 C779 1.523 . S
H781 C756 0.950 . S
H782 C758 0.950 . S
H783 C759 0.949 . S
H784 C761 0.950 . S
H785 C763 0.950 . S
C786 C787 1.349 . S
C786 C788 1.327 . S
C786 H811 0.950 . S
C787 C786 1.349 . S
C787 C803 1.349 . S
C788 C786 1.327 . S
C788 C807 1.429 . S
C788 H812 0.950 . S
C789 C806 1.574 . S
C789 C808 1.368 . S
C789 H813 0.949 . S
H790 C794 0.949 . S
C791 C792 1.349 . S
C791 C793 1.327 . S
C791 H814 0.950 . S
C792 C791 1.349 . S
C792 C804 1.349 . S
C793 C791 1.327 . S
C793 C809 1.429 . S
C793 H815 0.950 . S
C794 H790 0.949 . S
C794 C802 1.574 . S
C794 C810 1.368 . S
H795 C803 0.950 . S
H796 C801 0.950 . S
H797 C802 0.949 . S
H798 C804 0.950 . S
H799 C805 0.950 . S
H800 C806 0.949 . S
C801 H796 0.950 . S
C801 C803 1.327 . S
C801 C807 1.429 . S
C802 C794 1.574 . S
C802 H797 0.949 . S
C802 C808 1.368 . S
C803 C787 1.349 . S
C803 H795 0.950 . S
C803 C801 1.327 . S
C804 C792 1.349 . S
C804 H798 0.950 . S
C804 C805 1.327 . S
C805 H799 0.950 . S
C805 C804 1.327 . S
C805 C809 1.429 . S
C806 C789 1.574 . S
C806 H800 0.949 . S
C806 C810 1.368 . S
C807 C788 1.429 . S
C807 C801 1.429 . S
C807 C808 1.523 . S
C808 C789 1.368 . S
C808 C802 1.368 . S
C808 C807 1.523 . S
C809 C793 1.429 . S
C809 C805 1.429 . S
C809 C810 1.523 . S
C810 C794 1.368 . S
C810 C806 1.368 . S
C810 C809 1.523 . S
H811 C786 0.950 . S
H812 C788 0.950 . S
H813 C789 0.949 . S
H814 C791 0.950 . S
H815 C793 0.950 . S
C816 C817 1.349 . S
C816 C818 1.327 . S
C816 H841 0.950 . S
C817 C816 1.349 . S
C817 C833 1.349 . S
C818 C816 1.327 . S
C818 C837 1.429 . S
C818 H842 0.950 . S
C819 C836 1.574 . S
C819 C838 1.368 . S
C819 H843 0.949 . S
H820 C824 0.949 . S
C821 C822 1.349 . S
C821 C823 1.327 . S
C821 H844 0.950 . S
C822 C821 1.349 . S
C822 C834 1.349 . S
C823 C821 1.327 . S
C823 C839 1.429 . S
C823 H845 0.950 . S
C824 H820 0.949 . S
C824 C832 1.574 . S
C824 C840 1.368 . S
H825 C833 0.950 . S
H826 C831 0.950 . S
H827 C832 0.949 . S
H828 C834 0.950 . S
H829 C835 0.950 . S
H830 C836 0.949 . S
C831 H826 0.950 . S
C831 C833 1.327 . S
C831 C837 1.429 . S
C832 C824 1.574 . S
C832 H827 0.949 . S
C832 C838 1.368 . S
C833 C817 1.349 . S
C833 H825 0.950 . S
C833 C831 1.327 . S
C834 C822 1.349 . S
C834 H828 0.950 . S
C834 C835 1.327 . S
C835 H829 0.950 . S
C835 C834 1.327 . S
C835 C839 1.429 . S
C836 C819 1.574 . S
C836 H830 0.949 . S
C836 C840 1.368 . S
C837 C818 1.429 . S
C837 C831 1.429 . S
C837 C838 1.523 . S
C838 C819 1.368 . S
C838 C832 1.368 . S
C838 C837 1.523 . S
C839 C823 1.429 . S
C839 C835 1.429 . S
C839 C840 1.523 . S
C840 C824 1.368 . S
C840 C836 1.368 . S
C840 C839 1.523 . S
H841 C816 0.950 . S
H842 C818 0.950 . S
H843 C819 0.949 . S
H844 C821 0.950 . S
H845 C823 0.950 . S
C846 C847 1.349 . S
C846 C848 1.327 . S
C846 H871 0.950 . S
C847 C846 1.349 . S
C847 C863 1.349 . S
C848 C846 1.327 . S
C848 C867 1.429 . S
C848 H872 0.950 . S
C849 C866 1.574 . S
C849 C868 1.368 . S
C849 H873 0.949 . S
H850 C854 0.949 . S
C851 C852 1.349 . S
C851 C853 1.327 . S
C851 H874 0.950 . S
C852 C851 1.349 . S
C852 C864 1.349 . S
C853 C851 1.327 . S
C853 C869 1.429 . S
C853 H875 0.950 . S
C854 H850 0.949 . S
C854 C862 1.574 . S
C854 C870 1.368 . S
H855 C863 0.950 . S
H856 C861 0.950 . S
H857 C862 0.949 . S
H858 C864 0.950 . S
H859 C865 0.950 . S
H860 C866 0.949 . S
C861 H856 0.950 . S
C861 C863 1.327 . S
C861 C867 1.429 . S
C862 C854 1.574 . S
C862 H857 0.949 . S
C862 C868 1.368 . S
C863 C847 1.349 . S
C863 H855 0.950 . S
C863 C861 1.327 . S
C864 C852 1.349 . S
C864 H858 0.950 . S
C864 C865 1.327 . S
C865 H859 0.950 . S
C865 C864 1.327 . S
C865 C869 1.429 . S
C866 C849 1.574 . S
C866 H860 0.949 . S
C866 C870 1.368 . S
C867 C848 1.429 . S
C867 C861 1.429 . S
C867 C868 1.523 . S
C868 C849 1.368 . S
C868 C862 1.368 . S
C868 C867 1.523 . S
C869 C853 1.429 . S
C869 C865 1.429 . S
C869 C870 1.523 . S
C870 C854 1.368 . S
C870 C866 1.368 . S
C870 C869 1.523 . S
H871 C846 0.950 . S
H872 C848 0.950 . S
H873 C849 0.949 . S
H874 C851 0.950 . S
H875 C853 0.950 . S
C876 C877 1.349 . S
C876 C878 1.327 . S
C876 H901 0.950 . S
C877 C876 1.349 . S
C877 C893 1.349 . S
C878 C876 1.327 . S
C878 C897 1.429 . S
C878 H902 0.950 . S
C879 C896 1.574 . S
C879 C898 1.368 . S
C879 H903 0.949 . S
H880 C884 0.949 . S
C881 C882 1.349 . S
C881 C883 1.327 . S
C881 H904 0.950 1_554 S
C882 C881 1.349 . S
C882 C894 1.349 . S
C883 C881 1.327 . S
C883 C899 1.429 . S
C883 H905 0.950 . S
C884 H880 0.949 . S
C884 C892 1.574 . S
C884 C900 1.368 . S
H885 C893 0.950 . S
H886 C891 0.950 . S
H887 C892 0.949 . S
H888 C894 0.950 . S
H889 C895 0.950 . S
H890 C896 0.949 . S
C891 H886 0.950 . S
C891 C893 1.327 . S
C891 C897 1.429 . S
C892 C884 1.574 . S
C892 H887 0.949 . S
C892 C898 1.368 . S
C893 C877 1.349 . S
C893 H885 0.950 . S
C893 C891 1.327 . S
C894 C882 1.349 . S
C894 H888 0.950 . S
C894 C895 1.327 . S
C895 H889 0.950 . S
C895 C894 1.327 . S
C895 C899 1.429 . S
C896 C879 1.574 . S
C896 H890 0.949 . S
C896 C900 1.368 . S
C897 C878 1.429 . S
C897 C891 1.429 . S
C897 C898 1.523 . S
C898 C879 1.368 . S
C898 C892 1.368 . S
C898 C897 1.523 . S
C899 C883 1.429 . S
C899 C895 1.429 . S
C899 C900 1.523 . S
C900 C884 1.368 . S
C900 C896 1.368 . S
C900 C899 1.523 . S
H901 C876 0.950 . S
H902 C878 0.950 . S
H903 C879 0.949 . S
H904 C881 0.950 1_556 S
H905 C883 0.950 . S
C906 C907 1.349 . S
C906 C908 1.327 . S
C906 H931 0.950 . S
C907 C906 1.349 . S
C907 C923 1.349 . S
C908 C906 1.327 . S
C908 C927 1.429 . S
C908 H932 0.950 . S
C909 C926 1.574 . S
C909 C928 1.368 . S
C909 H933 0.949 . S
H910 C914 0.949 . S
C911 C912 1.349 . S
C911 C913 1.327 . S
C911 H934 0.950 . S
C912 C911 1.349 . S
C912 C924 1.349 . S
C913 C911 1.327 . S
C913 C929 1.429 . S
C913 H935 0.950 . S
C914 H910 0.949 . S
C914 C922 1.574 . S
C914 C930 1.368 . S
H915 C923 0.950 . S
H916 C921 0.950 . S
H917 C922 0.949 . S
H918 C924 0.950 . S
H919 C925 0.950 . S
H920 C926 0.949 . S
C921 H916 0.950 . S
C921 C923 1.327 . S
C921 C927 1.429 . S
C922 C914 1.574 . S
C922 H917 0.949 . S
C922 C928 1.368 . S
C923 C907 1.349 . S
C923 H915 0.950 . S
C923 C921 1.327 . S
C924 C912 1.349 . S
C924 H918 0.950 . S
C924 C925 1.327 . S
C925 H919 0.950 . S
C925 C924 1.327 . S
C925 C929 1.429 . S
C926 C909 1.574 . S
C926 H920 0.949 . S
C926 C930 1.368 . S
C927 C908 1.429 . S
C927 C921 1.429 . S
C927 C928 1.523 . S
C928 C909 1.368 . S
C928 C922 1.368 . S
C928 C927 1.523 . S
C929 C913 1.429 . S
C929 C925 1.429 . S
C929 C930 1.523 . S
C930 C914 1.368 . S
C930 C926 1.368 . S
C930 C929 1.523 . S
H931 C906 0.950 . S
H932 C908 0.950 . S
H933 C909 0.949 . S
H934 C911 0.950 . S
H935 C913 0.950 . S
C936 C937 1.349 . S
C936 C938 1.327 . S
C936 H961 0.950 . S
C937 C936 1.349 . S
C937 C953 1.349 . S
C938 C936 1.327 . S
C938 C957 1.429 . S
C938 H962 0.950 . S
C939 C956 1.574 . S
C939 C958 1.368 . S
C939 H963 0.949 . S
H940 C944 0.949 . S
C941 C942 1.349 . S
C941 C943 1.327 . S
C941 H964 0.950 . S
C942 C941 1.349 . S
C942 C954 1.349 . S
C943 C941 1.327 . S
C943 C959 1.429 . S
C943 H965 0.950 . S
C944 H940 0.949 . S
C944 C952 1.574 . S
C944 C960 1.368 . S
H945 C953 0.950 . S
H946 C951 0.950 . S
H947 C952 0.949 . S
H948 C954 0.950 . S
H949 C955 0.950 . S
H950 C956 0.949 . S
C951 H946 0.950 . S
C951 C953 1.327 . S
C951 C957 1.429 . S
C952 C944 1.574 . S
C952 H947 0.949 . S
C952 C958 1.368 . S
C953 C937 1.349 . S
C953 H945 0.950 . S
C953 C951 1.327 . S
C954 C942 1.349 . S
C954 H948 0.950 . S
C954 C955 1.327 . S
C955 H949 0.950 . S
C955 C954 1.327 . S
C955 C959 1.429 . S
C956 C939 1.574 . S
C956 H950 0.949 . S
C956 C960 1.368 . S
C957 C938 1.429 . S
C957 C951 1.429 . S
C957 C958 1.523 . S
C958 C939 1.368 . S
C958 C952 1.368 . S
C958 C957 1.523 . S
C959 C943 1.429 . S
C959 C955 1.429 . S
C959 C960 1.523 . S
C960 C944 1.368 . S
C960 C956 1.368 . S
C960 C959 1.523 . S
H961 C936 0.950 . S
H962 C938 0.950 . S
H963 C939 0.949 . S
H964 C941 0.950 . S
H965 C943 0.950 . S
C966 C967 1.349 . S
C966 C968 1.327 . S
C966 H991 0.950 . S
C967 C966 1.349 . S
C967 C983 1.349 . S
C968 C966 1.327 . S
C968 C987 1.429 . S
C968 H992 0.950 . S
C969 C986 1.574 . S
C969 C988 1.368 . S
C969 H993 0.949 . S
H970 C974 0.949 . S
C971 C972 1.349 . S
C971 C973 1.327 . S
C971 H994 0.950 . S
C972 C971 1.349 . S
C972 C984 1.349 . S
C973 C971 1.327 . S
C973 C989 1.429 . S
C973 H995 0.950 . S
C974 H970 0.949 . S
C974 C982 1.574 . S
C974 C990 1.368 . S
H975 C983 0.950 . S
H976 C981 0.950 . S
H977 C982 0.949 . S
H978 C984 0.950 . S
H979 C985 0.950 . S
H980 C986 0.949 . S
C981 H976 0.950 . S
C981 C983 1.327 . S
C981 C987 1.429 . S
C982 C974 1.574 . S
C982 H977 0.949 . S
C982 C988 1.368 . S
C983 C967 1.349 . S
C983 H975 0.950 . S
C983 C981 1.327 . S
C984 C972 1.349 . S
C984 H978 0.950 . S
C984 C985 1.327 . S
C985 H979 0.950 . S
C985 C984 1.327 . S
C985 C989 1.429 . S
C986 C969 1.574 . S
C986 H980 0.949 . S
C986 C990 1.368 . S
C987 C968 1.429 . S
C987 C981 1.429 . S
C987 C988 1.523 . S
C988 C969 1.368 . S
C988 C982 1.368 . S
C988 C987 1.523 . S
C989 C973 1.429 . S
C989 C985 1.429 . S
C989 C990 1.523 . S
C990 C974 1.368 . S
C990 C986 1.368 . S
C990 C989 1.523 . S
H991 C966 0.950 . S
H992 C968 0.950 . S
H993 C969 0.949 . S
H994 C971 0.950 . S
H995 C973 0.950 . S
C996 C997 1.349 . S
C996 C998 1.327 . S
C996 H1021 0.950 . S
C997 C996 1.349 . S
C997 C1013 1.349 . S
C998 C996 1.327 . S
C998 C1017 1.429 . S
C998 H1022 0.950 . S
C999 C1016 1.574 . S
C999 C1018 1.368 . S
C999 H1023 0.949 . S
H1000 C1004 0.949 . S
C1001 C1002 1.349 . S
C1001 C1003 1.327 . S
C1001 H1024 0.950 . S
C1002 C1001 1.349 . S
C1002 C1014 1.349 . S
C1003 C1001 1.327 . S
C1003 C1019 1.429 . S
C1003 H1025 0.950 . S
C1004 H1000 0.949 . S
C1004 C1012 1.574 . S
C1004 C1020 1.368 . S
H1005 C1013 0.950 . S
H1006 C1011 0.950 . S
H1007 C1012 0.949 . S
H1008 C1014 0.950 . S
H1009 C1015 0.950 . S
H1010 C1016 0.949 . S
C1011 H1006 0.950 . S
C1011 C1013 1.327 . S
C1011 C1017 1.429 . S
C1012 C1004 1.574 . S
C1012 H1007 0.949 . S
C1012 C1018 1.368 . S
C1013 C997 1.349 . S
C1013 H1005 0.950 . S
C1013 C1011 1.327 . S
C1014 C1002 1.349 . S
C1014 H1008 0.950 . S
C1014 C1015 1.327 . S
C1015 H1009 0.950 . S
C1015 C1014 1.327 . S
C1015 C1019 1.429 . S
C1016 C999 1.574 . S
C1016 H1010 0.949 . S
C1016 C1020 1.368 . S
C1017 C998 1.429 . S
C1017 C1011 1.429 . S
C1017 C1018 1.523 . S
C1018 C999 1.368 . S
C1018 C1012 1.368 . S
C1018 C1017 1.523 . S
C1019 C1003 1.429 . S
C1019 C1015 1.429 . S
C1019 C1020 1.523 . S
C1020 C1004 1.368 . S
C1020 C1016 1.368 . S
C1020 C1019 1.523 . S
H1021 C996 0.950 . S
H1022 C998 0.950 . S
H1023 C999 0.949 . S
H1024 C1001 0.950 . S
H1025 C1003 0.950 . S
C1026 C1027 1.349 . S
C1026 C1028 1.327 . S
C1026 H1051 0.950 . S
C1027 C1026 1.349 . S
C1027 C1043 1.349 . S
C1028 C1026 1.327 . S
C1028 C1047 1.429 . S
C1028 H1052 0.950 . S
C1029 C1046 1.574 . S
C1029 C1048 1.368 . S
C1029 H1053 0.949 . S
H1030 C1034 0.949 . S
C1031 C1032 1.349 . S
C1031 C1033 1.327 . S
C1031 H1054 0.950 . S
C1032 C1031 1.349 . S
C1032 C1044 1.349 . S
C1033 C1031 1.327 . S
C1033 C1049 1.429 . S
C1033 H1055 0.950 . S
C1034 H1030 0.949 . S
C1034 C1042 1.574 . S
C1034 C1050 1.368 . S
H1035 C1043 0.950 . S
H1036 C1041 0.950 . S
H1037 C1042 0.949 . S
H1038 C1044 0.950 . S
H1039 C1045 0.950 . S
H1040 C1046 0.949 . S
C1041 H1036 0.950 . S
C1041 C1043 1.327 . S
C1041 C1047 1.429 . S
C1042 C1034 1.574 . S
C1042 H1037 0.949 . S
C1042 C1048 1.368 . S
C1043 C1027 1.349 . S
C1043 H1035 0.950 . S
C1043 C1041 1.327 . S
C1044 C1032 1.349 . S
C1044 H1038 0.950 . S
C1044 C1045 1.327 . S
C1045 H1039 0.950 . S
C1045 C1044 1.327 . S
C1045 C1049 1.429 . S
C1046 C1029 1.574 . S
C1046 H1040 0.949 . S
C1046 C1050 1.368 . S
C1047 C1028 1.429 . S
C1047 C1041 1.429 . S
C1047 C1048 1.523 . S
C1048 C1029 1.368 . S
C1048 C1042 1.368 . S
C1048 C1047 1.523 . S
C1049 C1033 1.429 . S
C1049 C1045 1.429 . S
C1049 C1050 1.523 . S
C1050 C1034 1.368 . S
C1050 C1046 1.368 . S
C1050 C1049 1.523 . S
H1051 C1026 0.950 . S
H1052 C1028 0.950 . S
H1053 C1029 0.949 . S
H1054 C1031 0.950 . S
H1055 C1033 0.950 . S
C337 C29 1.565 . S
C342 C258 1.549 . S
C367 C49 1.325 . S
C372 C277 1.310 . S
C402 C314 1.759 . S
C397 C93 1.739 . S
C427 C119 1.572 . S
C432 C324 1.576 . S
C462 C294 1.953 . S
C457 C17 1.959 . S
C492 C264 1.470 . S
C487 C61 1.530 . S
C522 C335 1.466 . S
C517 C81 1.463 . S
C552 C305 1.397 . S
C547 C125 1.376 . S
C577 C23 1.740 . S
C582 C318 1.723 . S
C612 C285 1.667 . S
C607 C87 1.683 . S
C637 C113 1.714 . S
C642 C275 1.759 . S
C667 C55 1.200 . S
C672 C297 1.204 . S
C702 C257 1.495 . S
C697 C157 1.401 . S
C727 C189 1.344 . S
C732 C278 1.363 . S
C757 C221 1.719 . S
C762 C315 1.723 . S
C787 C253 1.641 . S
C792 C325 1.655 . S
C817 C145 1.916 . S
C822 C295 2.022 . S
C852 C265 1.403 . S
C847 C183 1.413 . S
C882 C334 1.512 . S
C877 C209 1.511 . S
C912 C304 1.342 . S
C907 C247 1.327 . S
C937 C151 1.650 . S
C942 C317 1.734 . S
C972 C284 1.666 . S
C967 C215 1.691 . S
C1002 C274 1.717 . S
C997 C241 1.672 . S
C1027 C177 1.197 . S
C1032 C298 1.214 . S
