# Generated by pormake.
# Topology rtl, (3,6)-cn, num edge types: 1
# Building blocks:
#     Node 0, Type 0, BuildingBlock: BELTOD_clean_linker_0, # of connection points: 3
#     Node 1, Type 0, BuildingBlock: BELTOD_clean_linker_0, # of connection points: 3
#     Node 2, Type 0, BuildingBlock: BELTOD_clean_linker_0, # of connection points: 3
#     Node 3, Type 0, BuildingBlock: BELTOD_clean_linker_0, # of connection points: 3
#     Node 4, Type 1, BuildingBlock: LEVNOQ01_clean_sbu_1, # of connection points: 6
#     Node 5, Type 1, BuildingBlock: LEVNOQ01_clean_sbu_1, # of connection points: 6
#     Edge 6, Type (0, 1), BuildingBlock: MIFKUJ_clean_linker_0, # of connection points: 2
#     Edge 7, Type (0, 1), BuildingBlock: MIFKUJ_clean_linker_0, # of connection points: 2
#     Edge 8, Type (0, 1), BuildingBlock: MIFKUJ_clean_linker_0, # of connection points: 2
#     Edge 9, Type (0, 1), BuildingBlock: MIFKUJ_clean_linker_0, # of connection points: 2
#     Edge 10, Type (0, 1), BuildingBlock: MIFKUJ_clean_linker_0, # of connection points: 2
#     Edge 11, Type (0, 1), BuildingBlock: MIFKUJ_clean_linker_0, # of connection points: 2
#     Edge 12, Type (0, 1), BuildingBlock: MIFKUJ_clean_linker_0, # of connection points: 2
#     Edge 13, Type (0, 1), BuildingBlock: MIFKUJ_clean_linker_0, # of connection points: 2
#     Edge 14, Type (0, 1), BuildingBlock: MIFKUJ_clean_linker_0, # of connection points: 2
#     Edge 15, Type (0, 1), BuildingBlock: MIFKUJ_clean_linker_0, # of connection points: 2
#     Edge 16, Type (0, 1), BuildingBlock: MIFKUJ_clean_linker_0, # of connection points: 2
#     Edge 17, Type (0, 1), BuildingBlock: MIFKUJ_clean_linker_0, # of connection points: 2
# Relax obj value: 0.023
# Max RMSD: 0.060
# Mean RMSD: 0.042
data_MOF--net-rtl--node1-LEVNOQ01_clean_sbu_1--node2-BELTOD_clean_linker_0--edge1-MIFKUJ_clean_linker_0
_symmetry_space_group_name_H-M    P1
_symmetry_Int_Tables_number       1
_symmetry_cell_setting            triclinic
loop_
_symmetry_equiv_pos_as_xyz
'x, y, z'
_cell_length_a     44.223663
_cell_length_b     49.643046
_cell_length_c     34.500602
_cell_angle_alpha  89.341606
_cell_angle_beta   97.680777
_cell_angle_gamma 89.865771
loop_
_atom_site_label
_atom_site_type_symbol
_atom_site_fract_x
_atom_site_fract_y
_atom_site_fract_z
_atom_type_partial_charge
P0 P 0.29615 0.91272 0.09621 0.0
H1 H 0.30665 0.9585 0.14921 0.0
H2 H 0.28223 0.97296 0.20496 0.0
H3 H 0.22341 0.90334 0.19175 0.0
H4 H 0.24779 0.88919 0.13553 0.0
H5 H 0.3537 0.89332 0.13778 0.0
H6 H 0.37627 0.84849 0.1487 0.0
H7 H 0.29509 0.81368 0.08515 0.0
H8 H 0.27231 0.85863 0.07558 0.0
H9 H 0.2364 0.93933 0.07712 0.0
H10 H 0.29777 0.89251 0.01734 0.0
O11 O 0.32482 0.93356 0.09044 0.0
H12 H 0.20236 0.94542 0.01603 0.0
H13 H 0.26406 0.89907 0.95565 0.0
C14 C 0.27903 0.92274 0.13833 0.0
C15 C 0.28862 0.94625 0.15841 0.0
C16 C 0.27475 0.95444 0.19045 0.0
C17 C 0.25088 0.93931 0.20284 0.0
C18 C 0.24151 0.9156 0.18271 0.0
C19 C 0.25551 0.90739 0.15075 0.0
C20 C 0.31175 0.87933 0.10488 0.0
C21 C 0.34077 0.87601 0.12622 0.0
C22 C 0.35367 0.85035 0.13237 0.0
C23 C 0.3377 0.82744 0.11737 0.0
C24 C 0.30801 0.83082 0.0973 0.0
C25 C 0.29507 0.85655 0.09137 0.0
C26 C 0.26934 0.91493 0.05202 0.0
C27 C 0.24241 0.93002 0.05098 0.0
C28 C 0.22307 0.93377 0.01582 0.0
C29 C 0.23048 0.9228 0.98083 0.0
C30 C 0.25741 0.90747 0.98209 0.0
C31 C 0.27674 0.90374 0.01734 0.0
P32 P 0.7769 0.6137 0.58943 0.0
H33 H 0.79095 0.60029 0.51191 0.0
H34 H 0.76006 0.59828 0.44782 0.0
H35 H 0.68048 0.62201 0.49963 0.0
H36 H 0.71178 0.62428 0.56378 0.0
H37 H 0.83902 0.63503 0.6045 0.0
H38 H 0.85906 0.68069 0.61124 0.0
H39 H 0.76699 0.71231 0.5956 0.0
H40 H 0.74715 0.66641 0.58787 0.0
H41 H 0.73805 0.56778 0.6013 0.0
H42 H 0.77173 0.63795 0.66573 0.0
O43 O 0.80588 0.59205 0.5899 0.0
H44 H 0.7124 0.55305 0.65664 0.0
H45 H 0.74626 0.62344 0.72073 0.0
C46 C 0.75348 0.61177 0.54268 0.0
C47 C 0.76681 0.60485 0.50954 0.0
C48 C 0.7491 0.60369 0.47292 0.0
C49 C 0.71773 0.60973 0.46866 0.0
C50 C 0.70459 0.61734 0.50189 0.0
C51 C 0.72238 0.61842 0.53861 0.0
C52 C 0.79161 0.64739 0.59527 0.0
C53 C 0.82313 0.65176 0.60253 0.0
C54 C 0.83456 0.67792 0.60681 0.0
C55 C 0.81464 0.70021 0.6041 0.0
C56 C 0.78298 0.69564 0.59742 0.0
C57 C 0.77159 0.66944 0.59302 0.0
C58 C 0.75622 0.60423 0.629 0.0
C59 C 0.73965 0.58014 0.62715 0.0
C60 C 0.72525 0.57164 0.65887 0.0
C61 C 0.72723 0.58715 0.69297 0.0
C62 C 0.74392 0.61128 0.69464 0.0
C63 C 0.75847 0.61963 0.66308 0.0
P64 P 0.81184 0.19586 0.99052 0.0
H65 H 0.84096 0.20143 0.92 0.0
H66 H 0.84819 0.17055 0.86761 0.0
H67 H 0.79656 0.10973 0.92044 0.0
H68 H 0.78906 0.14111 0.97292 0.0
H69 H 0.77867 0.22416 0.04542 0.0
H70 H 0.73436 0.25407 0.03629 0.0
H71 H 0.72396 0.23997 0.91192 0.0
H72 H 0.76827 0.20979 0.92131 0.0
H73 H 0.86786 0.17928 0.03806 0.0
H74 H 0.77133 0.17013 0.04166 0.0
O75 O 0.83922 0.21899 0.99121 0.0
H76 H 0.87881 0.15414 0.09956 0.0
H77 H 0.78219 0.14502 0.10377 0.0
C78 C 0.81504 0.17335 0.95074 0.0
C79 C 0.8312 0.18147 0.92042 0.0
C80 C 0.83543 0.16373 0.89055 0.0
C81 C 0.82344 0.1375 0.89029 0.0
C82 C 0.80614 0.12976 0.91992 0.0
C83 C 0.80197 0.14761 0.94997 0.0
C84 C 0.77619 0.214 0.98426 0.0
C85 C 0.76632 0.22681 0.01633 0.0
C86 C 0.74103 0.244 0.01105 0.0
C87 C 0.72555 0.24923 0.97339 0.0
C88 C 0.73544 0.23632 0.94126 0.0
C89 C 0.76059 0.21886 0.94667 0.0
C90 C 0.81882 0.1772 0.03591 0.0
C91 C 0.849 0.172 0.05227 0.0
C92 C 0.85523 0.15746 0.08728 0.0
C93 C 0.83134 0.14774 0.10656 0.0
C94 C 0.80102 0.15262 0.0898 0.0
C95 C 0.79481 0.16697 0.0544 0.0
P96 P 0.27685 0.36699 0.48477 0.0
H97 H 0.26786 0.34284 0.55966 0.0
H98 H 0.27643 0.35985 0.62652 0.0
H99 H 0.29346 0.43913 0.58178 0.0
H100 H 0.2843 0.42234 0.51518 0.0
H101 H 0.27897 0.31338 0.45146 0.0
H102 H 0.24273 0.27638 0.44447 0.0
H103 H 0.17507 0.32731 0.48691 0.0
H104 H 0.21218 0.36406 0.49521 0.0
H105 H 0.32032 0.40668 0.46536 0.0
H106 H 0.2289 0.3826 0.41988 0.0
O107 O 0.31104 0.35232 0.48697 0.0
H108 H 0.32017 0.43928 0.41196 0.0
H109 H 0.22883 0.41507 0.36565 0.0
C110 C 0.27534 0.38125 0.53227 0.0
C111 C 0.27244 0.36408 0.56413 0.0
C112 C 0.27734 0.3738 0.60234 0.0
C113 C 0.28579 0.40075 0.60923 0.0
C114 C 0.28718 0.41821 0.5772 0.0
C115 C 0.28192 0.40856 0.53904 0.0
C116 C 0.24842 0.34122 0.47466 0.0
C117 C 0.25628 0.31665 0.45905 0.0
C118 C 0.23535 0.29554 0.45466 0.0
C119 C 0.20597 0.29871 0.4654 0.0
C120 C 0.19767 0.32397 0.47906 0.0
C121 C 0.21877 0.34505 0.48367 0.0
C122 C 0.27471 0.39218 0.44654 0.0
C123 C 0.30007 0.40864 0.44405 0.0
C124 C 0.29986 0.42741 0.41368 0.0
C125 C 0.27439 0.42984 0.38478 0.0
C126 C 0.24873 0.4136 0.38759 0.0
C127 C 0.24878 0.39504 0.41852 0.0
O128 O 0.95084 0.04867 0.57068 0.0
Mg129 Mg 0.99848 0.04236 0.58279 0.0
O130 O 0.96181 0.00645 0.57997 0.0
Mg131 Mg 0.00298 0.00431 0.54092 0.0
O132 O 0.02476 0.04912 0.53976 0.0
O133 O 0.01728 0.079 0.58593 0.0
O134 O 0.04428 0.99989 0.50254 0.0
O135 O 0.96904 0.01979 0.4875 0.0
Mg136 Mg 0.00093 0.96586 0.49047 0.0
O137 O 0.98158 0.96012 0.54075 0.0
O138 O 0.04678 0.95686 0.49094 0.0
O139 O 0.98014 0.99065 0.44427 0.0
O140 O 0.97662 0.93189 0.48952 0.0
C141 C 0.03575 1.00015 0.62924 0.0
C142 C 0.94297 0.02573 0.5812 0.0
C143 C 0.02939 0.07285 0.55525 0.0
C144 C 0.05852 0.9799 0.49044 0.0
C145 C 0.96651 0.01185 0.45226 0.0
C146 C 0.97137 0.93783 0.52425 0.0
O147 O 0.01905 0.02046 0.6333 0.0
O148 O 0.03617 0.99044 0.59529 0.0
O149 O 0.52816 0.50147 0.13982 0.0
Mg150 Mg 0.50082 0.47504 0.10382 0.0
O151 O 0.52112 0.53355 0.09459 0.0
Mg152 Mg 0.48931 0.5138 0.04187 0.0
O153 O 0.51296 0.47056 0.04895 0.0
O154 O 0.52184 0.43999 0.09776 0.0
O155 O 0.45777 0.49326 0.99007 0.0
O156 O 0.52772 0.52316 0.00247 0.0
Mg157 Mg 0.46432 0.5537 0.974 0.0
O158 O 0.46744 0.55625 0.03331 0.0
O159 O 0.43352 0.5241 0.95055 0.0
O160 O 0.50856 0.55349 0.95794 0.0
O161 O 0.44755 0.58894 0.99254 0.0
C162 C 0.43863 0.48879 0.10022 0.0
C163 C 0.53305 0.52515 0.12837 0.0
C164 C 0.52399 0.44729 0.06223 0.0
C165 C 0.43789 0.49978 0.96114 0.0
C166 C 0.53056 0.53887 0.97349 0.0
C167 C 0.45512 0.57998 0.02774 0.0
O168 O 0.45557 0.46913 0.11206 0.0
O169 O 0.44841 0.50696 0.07867 0.0
H170 H 0.16861 0.28577 0.51981 0.0
H171 H 0.13953 0.24461 0.52472 0.0
H172 H 0.16845 0.21593 0.41799 0.0
H173 H 0.19669 0.25783 0.41177 0.0
H174 H 0.10846 0.20191 0.4242 0.0
H175 H 0.20583 0.19421 0.50192 0.0
H176 H 0.24871 0.20888 0.55007 0.0
H177 H 0.18993 0.21005 0.63954 0.0
H178 H 0.14656 0.19579 0.59178 0.0
H179 H 0.05826 0.0699 0.48898 0.0
H180 H 0.09034 0.10479 0.46372 0.0
H181 H 0.07538 0.15647 0.55905 0.0
H182 H 0.04391 0.12237 0.58419 0.0
H183 H 0.13571 0.15246 0.54989 0.0
H184 H 0.03728 0.1666 0.46918 0.0
H185 H 0.99426 0.15233 0.42087 0.0
H186 H 0.05584 0.13797 0.33701 0.0
H187 H 0.0993 0.15184 0.38505 0.0
C188 C 0.1682 0.27113 0.49671 0.0
C189 C 0.18527 0.2751 0.46555 0.0
C190 C 0.15179 0.24743 0.49981 0.0
C191 C 0.15238 0.22696 0.47217 0.0
C192 C 0.16792 0.23137 0.43982 0.0
C193 C 0.18426 0.25523 0.43654 0.0
C194 C 0.13838 0.20048 0.47889 0.0
C195 C 0.11477 0.19079 0.45134 0.0
C196 C 0.14675 0.18588 0.51419 0.0
C197 C 0.1729 0.19405 0.54319 0.0
C198 C 0.20201 0.19773 0.53181 0.0
C199 C 0.22641 0.20597 0.55904 0.0
C200 C 0.22204 0.21042 0.59783 0.0
C201 C 0.19328 0.20658 0.60948 0.0
C202 C 0.16879 0.19839 0.58236 0.0
C203 C 0.06185 0.08874 0.50441 0.0
C204 C 0.04857 0.09328 0.53865 0.0
C205 C 0.08008 0.10863 0.48993 0.0
C206 C 0.08525 0.13318 0.50962 0.0
C207 C 0.07187 0.13763 0.54354 0.0
C208 C 0.05375 0.11802 0.55782 0.0
C209 C 0.10483 0.15458 0.49611 0.0
C210 C 0.12977 0.16325 0.52237 0.0
C211 C 0.09768 0.16807 0.45968 0.0
C212 C 0.07155 0.15991 0.43084 0.0
C213 C 0.04167 0.16017 0.44055 0.0
C214 C 0.01721 0.15221 0.4132 0.0
C215 C 0.02233 0.14416 0.37594 0.0
C216 C 0.05192 0.14415 0.36591 0.0
C217 C 0.07646 0.15207 0.39317 0.0
H218 H 0.00336 0.138 0.3548 0.0
H219 H 0.24096 0.21681 0.61886 0.0
H220 H 0.397 0.81519 0.11025 0.0
H221 H 0.42068 0.77083 0.11064 0.0
H222 H 0.336 0.73375 0.13076 0.0
H223 H 0.31224 0.77837 0.13187 0.0
H224 H 0.38699 0.70713 0.17139 0.0
H225 H 0.35141 0.73769 0.04099 0.0
H226 H 0.3456 0.76957 0.98515 0.0
H227 H 0.44247 0.76833 0.98312 0.0
H228 H 0.4489 0.73674 0.03941 0.0
H229 H 0.40687 0.58259 0.06856 0.0
H230 H 0.39131 0.62326 0.10072 0.0
H231 H 0.47731 0.66039 0.08665 0.0
H232 H 0.49282 0.61977 0.05481 0.0
H233 H 0.4264 0.68654 0.04689 0.0
H234 H 0.46054 0.65126 0.1742 0.0
H235 H 0.46412 0.61667 0.22618 0.0
H236 H 0.36818 0.62453 0.23229 0.0
H237 H 0.36377 0.65864 0.17922 0.0
C238 C 0.38351 0.79773 0.11575 0.0
C239 C 0.3526 0.80041 0.12078 0.0
C240 C 0.39708 0.77232 0.11573 0.0
C241 C 0.38002 0.74897 0.12031 0.0
C242 C 0.34958 0.75152 0.12715 0.0
C243 C 0.33594 0.77701 0.12728 0.0
C244 C 0.39323 0.72209 0.11411 0.0
C245 C 0.3954 0.70248 0.1441 0.0
C246 C 0.40444 0.71614 0.07861 0.0
C247 C 0.40067 0.73509 0.04469 0.0
C248 C 0.3715 0.7444 0.02886 0.0
C249 C 0.36809 0.76238 0.99709 0.0
C250 C 0.39366 0.77103 0.98067 0.0
C251 C 0.42269 0.76165 0.99593 0.0
C252 C 0.42623 0.7437 0.02775 0.0
C253 C 0.42303 0.59889 0.07441 0.0
C254 C 0.45116 0.59809 0.05989 0.0
C255 C 0.41407 0.62218 0.09247 0.0
C256 C 0.4331 0.64489 0.09575 0.0
C257 C 0.46234 0.64307 0.0844 0.0
C258 C 0.47131 0.61981 0.06661 0.0
C259 C 0.42071 0.67163 0.10434 0.0
C260 C 0.41837 0.6912 0.07445 0.0
C261 C 0.40913 0.67725 0.13967 0.0
C262 C 0.41177 0.65734 0.17239 0.0
C263 C 0.44012 0.64548 0.18635 0.0
C264 C 0.44231 0.62596 0.21609 0.0
C265 C 0.41641 0.61838 0.23262 0.0
C266 C 0.38823 0.63039 0.21944 0.0
C267 C 0.38586 0.64982 0.18948 0.0
H268 H 0.41817 0.60323 0.25563 0.0
H269 H 0.39098 0.78495 0.95606 0.0
H270 H 0.7938 0.74385 0.55919 0.0
H271 H 0.81765 0.78797 0.55665 0.0
H272 H 0.88804 0.76373 0.64929 0.0
H273 H 0.8637 0.71965 0.65301 0.0
H274 H 0.87058 0.81919 0.65294 0.0
H275 H 0.90253 0.75608 0.561 0.0
H276 H 0.89417 0.72259 0.50842 0.0
H277 H 0.84489 0.78142 0.43229 0.0
H278 H 0.85257 0.81514 0.48465 0.0
H279 H 0.98394 0.91228 0.59541 0.0
H280 H 0.95488 0.87459 0.61896 0.0
H281 H 0.88588 0.8851 0.51882 0.0
H282 H 0.91542 0.9216 0.49474 0.0
H283 H 0.9048 0.8356 0.52353 0.0
H284 H 0.876 0.90034 0.61423 0.0
H285 H 0.88688 0.93419 0.66575 0.0
H286 H 0.92971 0.87361 0.74458 0.0
H287 H 0.92043 0.83958 0.69285 0.0
C288 C 0.81385 0.74808 0.57983 0.0
C289 C 0.82703 0.72807 0.606 0.0
C290 C 0.82753 0.7733 0.57822 0.0
C291 C 0.8548 0.77897 0.60247 0.0
C292 C 0.86703 0.75972 0.6303 0.0
C293 C 0.8533 0.73445 0.63202 0.0
C294 C 0.87226 0.80355 0.59529 0.0
C295 C 0.87834 0.82281 0.62482 0.0
C296 C 0.88219 0.80821 0.55853 0.0
C297 C 0.87789 0.78804 0.52685 0.0
C298 C 0.88973 0.76181 0.53313 0.0
C299 C 0.88514 0.7428 0.50336 0.0
C300 C 0.86895 0.74986 0.46707 0.0
C301 C 0.8574 0.77597 0.46043 0.0
C302 C 0.86188 0.79504 0.49013 0.0
C303 C 0.96219 0.90683 0.57917 0.0
C304 C 0.95177 0.91958 0.54336 0.0
C305 C 0.94562 0.88536 0.59253 0.0
C306 C 0.91822 0.87693 0.57053 0.0
C307 C 0.90704 0.89104 0.53609 0.0
C308 C 0.9238 0.91196 0.52246 0.0
C309 C 0.90245 0.85196 0.58069 0.0
C310 C 0.89696 0.83231 0.5517 0.0
C311 C 0.89313 0.84716 0.61789 0.0
C312 C 0.89782 0.86743 0.64944 0.0
C313 C 0.88801 0.89424 0.64241 0.0
C314 C 0.89391 0.91349 0.67166 0.0
C315 C 0.9089 0.90605 0.70847 0.0
C316 C 0.91811 0.87935 0.71604 0.0
C317 C 0.91265 0.86009 0.68669 0.0
H318 H 0.91335 0.92098 0.73112 0.0
H319 H 0.86542 0.73511 0.44405 0.0
H320 H 0.71621 0.28995 0.91882 0.0
H321 H 0.67728 0.32555 0.91425 0.0
H322 H 0.63948 0.28946 0.0114 0.0
H323 H 0.67796 0.25376 0.01574 0.0
H324 H 0.59482 0.30783 0.95387 0.0
H325 H 0.69037 0.34006 0.02569 0.0
H326 H 0.74511 0.35127 0.03219 0.0
H327 H 0.728 0.40654 0.93501 0.0
H328 H 0.67316 0.39536 0.92764 0.0
H329 H 0.53753 0.39488 0.07793 0.0
H330 H 0.56752 0.36474 0.04367 0.0
H331 H 0.57735 0.42685 0.95782 0.0
H332 H 0.54705 0.45789 0.99288 0.0
H333 H 0.63254 0.40001 0.98642 0.0
H334 H 0.53265 0.37711 0.9339 0.0
H335 H 0.47864 0.36807 0.93803 0.0
H336 H 0.50271 0.29425 1.00069 0.0
H337 H 0.55721 0.30391 0.9999 0.0
C338 C 0.6992 0.28934 0.93867 0.0
C339 C 0.70022 0.26917 0.96783 0.0
C340 C 0.6771 0.30976 0.93614 0.0
C341 C 0.65564 0.31026 0.96267 0.0
C342 C 0.6558 0.28945 0.9906 0.0
C343 C 0.67794 0.26919 0.99328 0.0
C344 C 0.63431 0.33329 0.96371 0.0
C345 C 0.60294 0.32804 0.96077 0.0
C346 C 0.64491 0.35986 0.97128 0.0
C347 C 0.6778 0.3666 0.97577 0.0
C348 C 0.69834 0.35443 0.00551 0.0
C349 C 0.72936 0.36081 0.00939 0.0
C350 C 0.74004 0.37953 0.98394 0.0
C351 C 0.7197 0.39198 0.95463 0.0
C352 C 0.68866 0.38563 0.95058 0.0
C353 C 0.54581 0.4023 0.05165 0.0
C354 C 0.53994 0.42889 0.03818 0.0
C355 C 0.56292 0.3849 0.03197 0.0
C356 C 0.57441 0.39341 0.99798 0.0
C357 C 0.56852 0.41989 0.98397 0.0
C358 C 0.55112 0.4375 0.00381 0.0
C359 C 0.59317 0.37424 0.97859 0.0
C360 C 0.6241 0.38012 0.97803 0.0
C361 C 0.58214 0.34816 0.9681 0.0
C362 C 0.54924 0.34133 0.96686 0.0
C363 C 0.52655 0.35901 0.94883 0.0
C364 C 0.49577 0.35381 0.95069 0.0
C365 C 0.48715 0.3304 0.96912 0.0
C366 C 0.5094 0.31232 0.98623 0.0
C367 C 0.54032 0.31777 0.98535 0.0
H368 H 0.46325 0.32635 0.97029 0.0
H369 H 0.76407 0.38445 0.98699 0.0
H370 H 0.18973 0.93951 0.2076 0.0
H371 H 0.16387 0.95502 0.26146 0.0
H372 H 0.25046 0.97644 0.32648 0.0
H373 H 0.27669 0.96025 0.27285 0.0
H374 H 0.2144 0.95045 0.37264 0.0
H375 H 0.20413 0.02566 0.28635 0.0
H376 H 0.19314 0.05017 0.22348 0.0
H377 H 0.09969 0.02476 0.21291 0.0
H378 H 0.1102 0.99973 0.27543 0.0
H379 H 0.11544 0.00298 0.50772 0.0
H380 H 0.15536 0.00536 0.46389 0.0
H381 H 0.09359 0.9689 0.37205 0.0
H382 H 0.05455 0.96596 0.41548 0.0
H383 H 0.12648 0.01338 0.34665 0.0
H384 H 0.14194 0.93019 0.42522 0.0
H385 H 0.15298 0.90562 0.4881 0.0
H386 H 0.23772 0.94802 0.51349 0.0
H387 H 0.22693 0.97311 0.45091 0.0
C388 C 0.20334 0.9473 0.23346 0.0
C389 C 0.23528 0.94863 0.23591 0.0
C390 C 0.1885 0.95645 0.26407 0.0
C391 C 0.20519 0.9673 0.29777 0.0
C392 C 0.23712 0.96834 0.30064 0.0
C393 C 0.25203 0.95923 0.26989 0.0
C394 C 0.18897 0.97687 0.33008 0.0
C395 C 0.19568 0.96475 0.36723 0.0
C396 C 0.16457 0.99558 0.32315 0.0
C397 C 0.15802 0.0107 0.28555 0.0
C398 C 0.18128 0.02514 0.27051 0.0
C399 C 0.17513 0.03915 0.23493 0.0
C400 C 0.14575 0.039 0.21419 0.0
C401 C 0.12244 0.02487 0.22902 0.0
C402 C 0.12847 0.01079 0.26456 0.0
C403 C 0.11055 0.99577 0.47804 0.0
C404 C 0.08222 0.98406 0.46488 0.0
C405 C 0.13321 0.99711 0.45313 0.0
C406 C 0.12735 0.98728 0.41475 0.0
C407 C 0.09855 0.97668 0.40143 0.0
C408 C 0.07636 0.97487 0.42631 0.0
C409 C 0.15118 0.98613 0.38843 0.0
C410 C 0.14586 0.99979 0.35234 0.0
C411 C 0.1769 0.96899 0.39639 0.0
C412 C 0.18344 0.95377 0.43374 0.0
C413 C 0.16279 0.93443 0.44439 0.0
C414 C 0.16902 0.92038 0.47992 0.0
C415 C 0.19597 0.92534 0.50485 0.0
C416 C 0.21681 0.94427 0.49421 0.0
C417 C 0.21065 0.9584 0.45872 0.0
H418 H 0.20076 0.91445 0.53236 0.0
H419 H 0.14103 0.04986 0.18666 0.0
H420 H 0.72682 0.53667 0.72594 0.0
H421 H 0.70216 0.52257 0.78238 0.0
H422 H 0.66865 0.60358 0.79237 0.0
H423 H 0.69351 0.61776 0.73652 0.0
H424 H 0.68992 0.58415 0.86225 0.0
H425 H 0.62343 0.55135 0.74915 0.0
H426 H 0.61125 0.52471 0.6892 0.0
H427 H 0.63743 0.45208 0.75401 0.0
H428 H 0.65013 0.47837 0.81427 0.0
H429 H 0.55258 0.5822 0.93866 0.0
H430 H 0.5956 0.58402 0.90162 0.0
H431 H 0.6166 0.50074 0.93092 0.0
H432 H 0.57311 0.49883 0.96872 0.0
H433 H 0.61141 0.51243 0.85052 0.0
H434 H 0.66659 0.54647 0.96689 0.0
H435 H 0.67562 0.57445 0.02584 0.0
H436 H 0.66837 0.64613 0.95431 0.0
H437 H 0.65883 0.61862 0.89492 0.0
C438 C 0.71403 0.55139 0.7401 0.0
C439 C 0.71205 0.57831 0.72679 0.0
C440 C 0.70001 0.54333 0.77238 0.0
C441 C 0.68339 0.56197 0.79153 0.0
C442 C 0.68152 0.58886 0.77829 0.0
C443 C 0.69571 0.59695 0.74632 0.0
C444 C 0.66735 0.55375 0.82496 0.0
C445 C 0.67273 0.56848 0.85967 0.0
C446 C 0.64574 0.5326 0.82224 0.0
C447 C 0.63811 0.51684 0.78606 0.0
C448 C 0.62682 0.52972 0.75053 0.0
C449 C 0.61979 0.51469 0.71652 0.0
C450 C 0.62367 0.48673 0.71776 0.0
C451 C 0.63451 0.47374 0.75306 0.0
C452 C 0.64163 0.48869 0.78715 0.0
C453 C 0.56663 0.56435 0.93786 0.0
C454 C 0.55943 0.54033 0.95644 0.0
C455 C 0.59135 0.56548 0.91682 0.0
C456 C 0.60944 0.54258 0.91371 0.0
C457 C 0.60297 0.51867 0.93318 0.0
C458 C 0.57829 0.51763 0.95487 0.0
C459 C 0.63311 0.54363 0.88707 0.0
C460 C 0.62921 0.52757 0.85359 0.0
C461 C 0.65589 0.56374 0.89076 0.0
C462 C 0.66191 0.58043 0.9264 0.0
C463 C 0.66675 0.56821 0.96371 0.0
C464 C 0.67198 0.58399 0.99722 0.0
C465 C 0.67255 0.61205 0.99382 0.0
C466 C 0.66795 0.62438 0.95689 0.0
C467 C 0.66269 0.6087 0.92329 0.0
H468 H 0.67658 0.62423 0.01981 0.0
H469 H 0.6182 0.47513 0.6914 0.0
H470 H 0.80628 0.15437 0.17434 0.0
H471 H 0.82112 0.13135 0.23746 0.0
H472 H 0.88737 0.08435 0.18617 0.0
H473 H 0.8725 0.107 0.12325 0.0
H474 H 0.85451 0.05389 0.23354 0.0
H475 H 0.90889 0.13955 0.2382 0.0
H476 H 0.91149 0.18916 0.23561 0.0
H477 H 0.85846 0.19418 0.33088 0.0
H478 H 0.85524 0.14458 0.33367 0.0
H479 H 0.96873 0.00714 0.37447 0.0
H480 H 0.93813 0.0306 0.32079 0.0
H481 H 0.8913 0.074 0.4028 0.0
H482 H 0.92292 0.05094 0.45738 0.0
H483 H 0.90362 0.10672 0.34591 0.0
H484 H 0.856 0.02145 0.34901 0.0
H485 H 0.85279 0.97193 0.35262 0.0
H486 H 0.89005 0.9657 0.24434 0.0
H487 H 0.89392 0.01517 0.24034 0.0
C488 C 0.8237 0.13886 0.1765 0.0
C489 C 0.8384 0.13259 0.144 0.0
C490 C 0.83227 0.12587 0.21256 0.0
C491 C 0.85552 0.10632 0.21653 0.0
C492 C 0.86941 0.0994 0.18375 0.0
C493 C 0.86105 0.11247 0.14791 0.0
C494 C 0.86644 0.09353 0.2549 0.0
C495 C 0.86529 0.06539 0.25814 0.0
C496 C 0.87943 0.10865 0.28745 0.0
C497 C 0.8815 0.13841 0.28582 0.0
C498 C 0.89758 0.15125 0.25837 0.0
C499 C 0.89921 0.17936 0.25691 0.0
C500 C 0.88507 0.19482 0.28298 0.0
C501 C 0.86935 0.18219 0.31065 0.0
C502 C 0.86762 0.15409 0.31219 0.0
C503 C 0.95189 0.02161 0.38127 0.0
C504 C 0.94803 0.02697 0.42022 0.0
C505 C 0.93424 0.03492 0.35044 0.0
C506 C 0.91179 0.05353 0.35764 0.0
C507 C 0.90828 0.05949 0.39654 0.0
C508 C 0.92633 0.04633 0.42765 0.0
C509 C 0.89271 0.0669 0.32413 0.0
C510 C 0.89225 0.09515 0.32176 0.0
C511 C 0.87792 0.05187 0.29246 0.0
C512 C 0.87536 0.02206 0.29448 0.0
C513 C 0.86367 0.00952 0.32607 0.0
C514 C 0.86172 0.98145 0.32817 0.0
C515 C 0.87124 0.96568 0.29875 0.0
C516 C 0.88267 0.97795 0.2671 0.0
C517 C 0.88469 0.00601 0.26487 0.0
H518 H 0.86973 0.94395 0.30044 0.0
H519 H 0.88636 0.21658 0.28181 0.0
H520 H 0.25807 0.3945 0.67538 0.0
H521 H 0.2791 0.40653 0.74269 0.0
H522 H 0.35973 0.43785 0.7007 0.0
H523 H 0.33877 0.42644 0.63374 0.0
H524 H 0.36577 0.39518 0.76689 0.0
H525 H 0.31925 0.48182 0.72231 0.0
H526 H 0.27524 0.51039 0.6966 0.0
H527 H 0.22934 0.4874 0.79393 0.0
H528 H 0.27295 0.45837 0.81989 0.0
H529 H 0.45935 0.47082 0.90508 0.0
H530 H 0.42889 0.44651 0.8526 0.0
H531 H 0.34848 0.45864 0.90908 0.0
H532 H 0.37899 0.48443 0.96039 0.0
H533 H 0.33485 0.47343 0.84065 0.0
H534 H 0.38033 0.39167 0.89119 0.0
H535 H 0.41802 0.35678 0.91606 0.0
H536 H 0.46076 0.36441 0.81183 0.0
H537 H 0.42347 0.39943 0.78642 0.0
C538 C 0.2801 0.40424 0.68062 0.0
C539 C 0.29674 0.40973 0.64944 0.0
C540 C 0.29202 0.4111 0.71889 0.0
C541 C 0.32089 0.42304 0.72641 0.0
C542 C 0.33736 0.4287 0.69531 0.0
C543 C 0.32528 0.42234 0.65713 0.0
C544 C 0.33494 0.42864 0.76675 0.0
C545 C 0.35927 0.41234 0.78321 0.0
C546 C 0.32527 0.4502 0.78838 0.0
C547 C 0.29915 0.46765 0.77272 0.0
C548 C 0.29963 0.48262 0.73797 0.0
C549 C 0.2748 0.49895 0.72342 0.0
C550 C 0.24946 0.50063 0.74354 0.0
C551 C 0.24895 0.48603 0.77832 0.0
C552 C 0.27371 0.46965 0.79297 0.0
C553 C 0.43538 0.46739 0.90686 0.0
C554 C 0.42144 0.47908 0.93676 0.0
C555 C 0.4179 0.45338 0.87693 0.0
C556 C 0.38623 0.45041 0.87676 0.0
C557 C 0.37278 0.46063 0.90833 0.0
C558 C 0.3902 0.47514 0.93784 0.0
C559 C 0.36685 0.44034 0.84118 0.0
C560 C 0.34136 0.45586 0.82525 0.0
C561 C 0.37509 0.41759 0.82038 0.0
C562 C 0.39913 0.39825 0.83698 0.0
C563 C 0.39801 0.38618 0.87382 0.0
C564 C 0.41919 0.36625 0.88789 0.0
C565 C 0.44163 0.35828 0.8654 0.0
C566 C 0.44327 0.37051 0.82911 0.0
C567 C 0.42209 0.39036 0.81484 0.0
H568 H 0.45775 0.34259 0.87605 0.0
H569 H 0.23027 0.5133 0.73224 0.0
H570 H 0.71947 0.56994 0.41511 0.0
H571 H 0.68878 0.56594 0.35133 0.0
H572 H 0.64229 0.6402 0.37013 0.0
H573 H 0.67301 0.64426 0.43447 0.0
H574 H 0.60257 0.60334 0.34133 0.0
H575 H 0.69455 0.63774 0.30443 0.0
H576 H 0.75006 0.64133 0.30372 0.0
H577 H 0.75214 0.56155 0.25735 0.0
H578 H 0.69671 0.5573 0.25832 0.0
H579 H 0.52759 0.57902 0.14474 0.0
H580 H 0.55921 0.60412 0.19662 0.0
H581 H 0.61632 0.53393 0.22289 0.0
H582 H 0.58484 0.50899 0.17226 0.0
H583 H 0.64959 0.58167 0.22265 0.0
H584 H 0.56049 0.54501 0.27466 0.0
H585 H 0.50553 0.54051 0.27872 0.0
H586 H 0.49873 0.62555 0.29707 0.0
H587 H 0.55372 0.63062 0.29276 0.0
C588 C 0.703 0.58563 0.40553 0.0
C589 C 0.69886 0.60753 0.42977 0.0
C590 C 0.68548 0.58335 0.36896 0.0
C591 C 0.66363 0.60307 0.3555 0.0
C592 C 0.65915 0.62484 0.37977 0.0
C593 C 0.67663 0.62707 0.41657 0.0
C594 C 0.64474 0.60003 0.31678 0.0
C595 C 0.61285 0.59935 0.31512 0.0
C596 C 0.65806 0.59469 0.28253 0.0
C597 C 0.69143 0.59718 0.2816 0.0
C598 C 0.70686 0.62089 0.29429 0.0
C599 C 0.73832 0.62305 0.29382 0.0
C600 C 0.75462 0.60168 0.28053 0.0
C601 C 0.73948 0.57811 0.26762 0.0
C602 C 0.70802 0.57583 0.26806 0.0
C603 C 0.54727 0.56927 0.1612 0.0
C604 C 0.55381 0.5421 0.15472 0.0
C605 C 0.56517 0.58351 0.19085 0.0
C606 C 0.59004 0.57081 0.21366 0.0
C607 C 0.59733 0.54414 0.20562 0.0
C608 C 0.57927 0.52989 0.17677 0.0
C609 C 0.60769 0.58405 0.24776 0.0
C610 C 0.63936 0.5866 0.24857 0.0
C611 C 0.59418 0.5912 0.28115 0.0
C612 C 0.56105 0.58826 0.28272 0.0
C613 C 0.54719 0.5628 0.27904 0.0
C614 C 0.51605 0.56013 0.28149 0.0
C615 C 0.49858 0.58273 0.28791 0.0
C616 C 0.51226 0.60807 0.29199 0.0
C617 C 0.5434 0.61086 0.28951 0.0
H618 H 0.47447 0.58059 0.28982 0.0
H619 H 0.77898 0.60339 0.2802 0.0
H620 H 0.87756 0.12884 0.86302 0.0
H621 H 0.88714 0.10144 0.80771 0.0
H622 H 0.79345 0.07523 0.79234 0.0
H623 H 0.78355 0.10293 0.84796 0.0
H624 H 0.83624 0.03375 0.77917 0.0
H625 H 0.80857 0.12316 0.73617 0.0
H626 H 0.8103 0.17276 0.73861 0.0
H627 H 0.90482 0.17124 0.72209 0.0
H628 H 0.90378 0.12159 0.72021 0.0
H629 H 0.88812 0.05102 0.56702 0.0
H630 H 0.8536 0.05985 0.6151 0.0
H631 H 0.908 0.00784 0.69828 0.0
H632 H 0.94142 0.99782 0.64934 0.0
H633 H 0.87295 0.08742 0.67277 0.0
H634 H 0.87371 0.99423 0.77834 0.0
H635 H 0.86619 0.94507 0.77506 0.0
H636 H 0.81654 0.95361 0.65984 0.0
H637 H 0.82342 0.00285 0.66255 0.0
C638 C 0.85897 0.1172 0.84801 0.0
C639 C 0.82965 0.11846 0.85937 0.0
C640 C 0.86454 0.1014 0.81658 0.0
C641 C 0.84091 0.08661 0.79564 0.0
C642 C 0.81198 0.08653 0.80816 0.0
C643 C 0.80637 0.10237 0.83985 0.0
C644 C 0.84618 0.07343 0.75877 0.0
C645 C 0.84413 0.04532 0.75564 0.0
C646 C 0.85546 0.08874 0.72769 0.0
C647 C 0.85613 0.11864 0.72829 0.0
C648 C 0.82977 0.1334 0.73331 0.0
C649 C 0.83062 0.16152 0.73457 0.0
C650 C 0.85766 0.17514 0.73057 0.0
C651 C 0.88389 0.16066 0.7252 0.0
C652 C 0.88317 0.13253 0.72399 0.0
C653 C 0.89179 0.0405 0.59496 0.0
C654 C 0.91747 0.02391 0.60462 0.0
C655 C 0.87217 0.04565 0.62255 0.0
C656 C 0.87834 0.03489 0.66069 0.0
C657 C 0.90237 0.01621 0.66908 0.0
C658 C 0.92159 0.0105 0.64105 0.0
C659 C 0.86396 0.04725 0.69296 0.0
C660 C 0.86454 0.07549 0.69557 0.0
C661 C 0.85274 0.03197 0.72294 0.0
C662 C 0.84922 0.00228 0.72061 0.0
C663 C 0.8611 0.98565 0.75234 0.0
C664 C 0.85692 0.95776 0.7506 0.0
C665 C 0.84074 0.94625 0.71737 0.0
C666 C 0.82898 0.96257 0.68562 0.0
C667 C 0.83313 0.99047 0.68718 0.0
H668 H 0.83747 0.92466 0.71612 0.0
H669 H 0.85828 0.19692 0.73156 0.0
H670 H 0.29405 0.48196 0.38382 0.0
H671 H 0.30781 0.50715 0.3274 0.0
H672 H 0.27423 0.44205 0.2518 0.0
H673 H 0.25998 0.41716 0.30792 0.0
H674 H 0.35067 0.49002 0.29034 0.0
H675 H 0.26015 0.46063 0.15818 0.0
H676 H 0.20426 0.4568 0.14332 0.0
H677 H 0.19295 0.51251 0.2346 0.0
H678 H 0.24876 0.51703 0.24967 0.0
H679 H 0.40449 0.44862 0.12532 0.0
H680 H 0.36251 0.45315 0.1639 0.0
H681 H 0.36403 0.53942 0.14886 0.0
H682 H 0.40638 0.53508 0.10977 0.0
H683 H 0.29894 0.49746 0.15382 0.0
H684 H 0.39335 0.54061 0.22162 0.0
H685 H 0.44967 0.54123 0.23304 0.0
H686 H 0.45089 0.45851 0.27115 0.0
H687 H 0.39461 0.45738 0.25947 0.0
C688 C 0.28883 0.47342 0.35495 0.0
C689 C 0.27623 0.44751 0.35025 0.0
C690 C 0.29662 0.48784 0.32274 0.0
C691 C 0.29208 0.47657 0.28526 0.0
C692 C 0.27745 0.4515 0.28019 0.0
C693 C 0.2694 0.43718 0.31237 0.0
C694 C 0.30735 0.48838 0.2532 0.0
C695 C 0.33897 0.49259 0.26082 0.0
C696 C 0.29239 0.49148 0.2144 0.0
C697 C 0.25873 0.48909 0.20515 0.0
C698 C 0.24577 0.47224 0.17491 0.0
C699 C 0.21408 0.4699 0.1665 0.0
C700 C 0.19507 0.48437 0.18803 0.0
C701 C 0.20771 0.50126 0.218 0.0
C702 C 0.23938 0.50368 0.22653 0.0
C703 C 0.39534 0.46853 0.12918 0.0
C704 C 0.40898 0.49153 0.11506 0.0
C705 C 0.37118 0.47105 0.15094 0.0
C706 C 0.3603 0.49658 0.15917 0.0
C707 C 0.37202 0.51954 0.14241 0.0
C708 C 0.39623 0.51702 0.12024 0.0
C709 C 0.34172 0.49875 0.19151 0.0
C710 C 0.30991 0.49644 0.18385 0.0
C711 C 0.35624 0.49774 0.23048 0.0
C712 C 0.3899 0.4989 0.23958 0.0
C713 C 0.40569 0.52259 0.23245 0.0
C714 C 0.43758 0.52302 0.23892 0.0
C715 C 0.45384 0.49988 0.25271 0.0
C716 C 0.43826 0.47639 0.26044 0.0
C717 C 0.40639 0.47586 0.25398 0.0
H718 H 0.47852 0.50009 0.25736 0.0
H719 H 0.17054 0.48252 0.18148 0.0
H720 H 0.20227 0.97005 0.95535 0.0
H721 H 0.16891 0.97876 0.89426 0.0
H722 H 0.18087 0.89679 0.859 0.0
H723 H 0.2142 0.88777 0.92049 0.0
H724 H 0.18429 0.9333 0.79867 0.0
H725 H 0.11595 0.91439 0.89246 0.0
H726 H 0.09542 0.9194 0.95503 0.0
H727 H 0.07566 0.00279 0.92821 0.0
H728 H 0.09647 0.99838 0.86571 0.0
H729 H 0.0644 0.95073 0.63775 0.0
H730 H 0.09671 0.93302 0.69588 0.0
H731 H 0.0848 0.00731 0.75598 0.0
H732 H 0.05171 0.02446 0.69908 0.0
H733 H 0.07974 0.9684 0.80331 0.0
H734 H 0.15215 0.98952 0.71387 0.0
H735 H 0.17404 0.98625 0.65196 0.0
H736 H 0.18734 0.90114 0.67068 0.0
H737 H 0.16519 0.90387 0.7325 0.0
C738 C 0.19759 0.95374 0.93486 0.0
C739 C 0.21064 0.9281 0.9431 0.0
C740 C 0.1786 0.9588 0.89984 0.0
C741 C 0.17205 0.93832 0.8723 0.0
C742 C 0.18558 0.91287 0.87989 0.0
C743 C 0.20465 0.90777 0.91501 0.0
C744 C 0.15074 0.94361 0.83592 0.0
C745 C 0.16124 0.94057 0.79957 0.0
C746 C 0.12084 0.95346 0.83714 0.0
C747 C 0.10795 0.95608 0.87451 0.0
C748 C 0.10739 0.93383 0.90001 0.0
C749 C 0.09568 0.93656 0.93545 0.0
C750 C 0.08429 0.96141 0.94562 0.0
C751 C 0.0845 0.98356 0.92031 0.0
C752 C 0.09621 0.98094 0.88484 0.0
C753 C 0.06869 0.9632 0.66344 0.0
C754 C 0.05544 0.98896 0.66383 0.0
C755 C 0.0873 0.95314 0.69659 0.0
C756 C 0.09355 0.96893 0.73033 0.0
C757 C 0.08029 0.99463 0.73052 0.0
C758 C 0.06136 0.00446 0.69783 0.0
C759 C 0.11352 0.95898 0.76585 0.0
C760 C 0.1027 0.96096 0.80219 0.0
C761 C 0.1432 0.94846 0.76455 0.0
C762 C 0.1567 0.94685 0.72755 0.0
C763 C 0.15956 0.97008 0.70464 0.0
C764 C 0.17204 0.96833 0.66959 0.0
C765 C 0.18199 0.94348 0.65733 0.0
C766 C 0.17958 0.92036 0.68017 0.0
C767 C 0.16708 0.922 0.71522 0.0
H768 H 0.19162 0.94216 0.63017 0.0
H769 H 0.07525 0.96348 0.97308 0.0
loop_
_geom_bond_atom_site_label_1
_geom_bond_atom_site_label_2
_geom_bond_distance
_geom_bond_site_symmetry_2
_ccdc_geom_bond_type
P0 O11 1.490 . S
P0 C14 1.812 . S
P0 C20 1.803 . S
P0 C26 1.819 . S
H1 C15 0.941 . S
H2 C16 0.939 . S
H3 C18 0.940 . S
H4 C19 0.940 . S
H5 C21 0.939 . S
H6 C22 0.942 . S
H7 C24 0.940 . S
H8 C25 0.939 . S
H9 C27 0.941 . S
H10 C31 0.939 . S
O11 P0 1.490 . S
H12 C28 0.939 1_556 S
H13 C30 0.940 . S
C14 P0 1.812 . S
C14 C15 1.389 . S
C14 C19 1.391 . S
C15 H1 0.941 . S
C15 C14 1.389 . S
C15 C16 1.397 . S
C16 H2 0.939 . S
C16 C15 1.397 . S
C16 C17 1.378 . S
C17 C16 1.378 . S
C17 C18 1.378 . S
C18 H3 0.940 . S
C18 C17 1.378 . S
C18 C19 1.396 . S
C19 H4 0.940 . S
C19 C14 1.391 . S
C19 C18 1.396 . S
C20 P0 1.803 . S
C20 C21 1.378 . S
C20 C25 1.400 . S
C21 H5 0.939 . S
C21 C20 1.378 . S
C21 C22 1.361 . S
C22 H6 0.942 . S
C22 C21 1.361 . S
C22 C23 1.369 . S
C23 C22 1.369 . S
C23 C24 1.404 . S
C24 H7 0.940 . S
C24 C23 1.404 . S
C24 C25 1.389 . S
C25 H8 0.939 . S
C25 C20 1.400 . S
C25 C24 1.389 . S
C26 P0 1.819 . S
C26 C27 1.391 . S
C26 C31 1.391 . S
C27 H9 0.941 . S
C27 C26 1.391 . S
C27 C28 1.396 . S
C28 H12 0.939 1_554 S
C28 C27 1.396 . S
C28 C29 1.397 1_554 S
C29 C28 1.397 1_556 S
C29 C30 1.385 . S
C30 H13 0.940 . S
C30 C29 1.385 . S
C30 C31 1.388 1_556 S
C31 H10 0.939 . S
C31 C26 1.391 . S
C31 C30 1.388 1_554 S
P32 O43 1.490 . S
P32 C46 1.812 . S
P32 C52 1.803 . S
P32 C58 1.819 . S
H33 C47 0.941 . S
H34 C48 0.939 . S
H35 C50 0.940 . S
H36 C51 0.940 . S
H37 C53 0.939 . S
H38 C54 0.942 . S
H39 C56 0.940 . S
H40 C57 0.939 . S
H41 C59 0.941 . S
H42 C63 0.939 . S
O43 P32 1.490 . S
H44 C60 0.939 . S
H45 C62 0.940 . S
C46 P32 1.812 . S
C46 C47 1.389 . S
C46 C51 1.391 . S
C47 H33 0.941 . S
C47 C46 1.389 . S
C47 C48 1.397 . S
C48 H34 0.939 . S
C48 C47 1.397 . S
C48 C49 1.378 . S
C49 C48 1.378 . S
C49 C50 1.378 . S
C50 H35 0.940 . S
C50 C49 1.378 . S
C50 C51 1.396 . S
C51 H36 0.940 . S
C51 C46 1.391 . S
C51 C50 1.396 . S
C52 P32 1.803 . S
C52 C53 1.378 . S
C52 C57 1.400 . S
C53 H37 0.939 . S
C53 C52 1.378 . S
C53 C54 1.361 . S
C54 H38 0.942 . S
C54 C53 1.361 . S
C54 C55 1.369 . S
C55 C54 1.369 . S
C55 C56 1.404 . S
C56 H39 0.940 . S
C56 C55 1.404 . S
C56 C57 1.389 . S
C57 H40 0.939 . S
C57 C52 1.400 . S
C57 C56 1.389 . S
C58 P32 1.819 . S
C58 C59 1.391 . S
C58 C63 1.391 . S
C59 H41 0.941 . S
C59 C58 1.391 . S
C59 C60 1.396 . S
C60 H44 0.939 . S
C60 C59 1.396 . S
C60 C61 1.397 . S
C61 C60 1.397 . S
C61 C62 1.385 . S
C62 H45 0.940 . S
C62 C61 1.385 . S
C62 C63 1.388 . S
C63 H42 0.939 . S
C63 C58 1.391 . S
C63 C62 1.388 . S
P64 O75 1.490 . S
P64 C78 1.812 1_554 S
P64 C84 1.803 1_554 S
P64 C90 1.819 . S
H65 C79 0.941 . S
H66 C80 0.939 . S
H67 C82 0.940 . S
H68 C83 0.940 . S
H69 C85 0.939 . S
H70 C86 0.942 . S
H71 C88 0.940 . S
H72 C89 0.939 . S
H73 C91 0.941 . S
H74 C95 0.939 . S
O75 P64 1.490 . S
H76 C92 0.939 . S
H77 C94 0.940 . S
C78 P64 1.812 1_556 S
C78 C79 1.389 . S
C78 C83 1.391 . S
C79 H65 0.941 . S
C79 C78 1.389 . S
C79 C80 1.397 . S
C80 H66 0.939 . S
C80 C79 1.397 . S
C80 C81 1.378 . S
C81 C80 1.378 . S
C81 C82 1.378 . S
C82 H67 0.940 . S
C82 C81 1.378 . S
C82 C83 1.396 . S
C83 H68 0.940 . S
C83 C78 1.391 . S
C83 C82 1.396 . S
C84 P64 1.803 1_556 S
C84 C85 1.378 1_556 S
C84 C89 1.400 . S
C85 H69 0.939 . S
C85 C84 1.378 1_554 S
C85 C86 1.361 . S
C86 H70 0.942 . S
C86 C85 1.361 . S
C86 C87 1.369 1_554 S
C87 C86 1.369 1_556 S
C87 C88 1.404 . S
C88 H71 0.940 . S
C88 C87 1.404 . S
C88 C89 1.389 . S
C89 H72 0.939 . S
C89 C84 1.400 . S
C89 C88 1.389 . S
C90 P64 1.819 . S
C90 C91 1.391 . S
C90 C95 1.391 . S
C91 H73 0.941 . S
C91 C90 1.391 . S
C91 C92 1.396 . S
C92 H76 0.939 . S
C92 C91 1.396 . S
C92 C93 1.397 . S
C93 C92 1.397 . S
C93 C94 1.385 . S
C94 H77 0.940 . S
C94 C93 1.385 . S
C94 C95 1.388 . S
C95 H74 0.939 . S
C95 C90 1.391 . S
C95 C94 1.388 . S
P96 O107 1.490 . S
P96 C110 1.812 . S
P96 C116 1.803 . S
P96 C122 1.819 . S
H97 C111 0.941 . S
H98 C112 0.939 . S
H99 C114 0.940 . S
H100 C115 0.940 . S
H101 C117 0.939 . S
H102 C118 0.942 . S
H103 C120 0.940 . S
H104 C121 0.939 . S
H105 C123 0.941 . S
H106 C127 0.939 . S
O107 P96 1.490 . S
H108 C124 0.939 . S
H109 C126 0.940 . S
C110 P96 1.812 . S
C110 C111 1.389 . S
C110 C115 1.391 . S
C111 H97 0.941 . S
C111 C110 1.389 . S
C111 C112 1.397 . S
C112 H98 0.939 . S
C112 C111 1.397 . S
C112 C113 1.378 . S
C113 C112 1.378 . S
C113 C114 1.378 . S
C114 H99 0.940 . S
C114 C113 1.378 . S
C114 C115 1.396 . S
C115 H100 0.940 . S
C115 C110 1.391 . S
C115 C114 1.396 . S
C116 P96 1.803 . S
C116 C117 1.378 . S
C116 C121 1.400 . S
C117 H101 0.939 . S
C117 C116 1.378 . S
C117 C118 1.361 . S
C118 H102 0.942 . S
C118 C117 1.361 . S
C118 C119 1.369 . S
C119 C118 1.369 . S
C119 C120 1.404 . S
C120 H103 0.940 . S
C120 C119 1.404 . S
C120 C121 1.389 . S
C121 H104 0.939 . S
C121 C116 1.400 . S
C121 C120 1.389 . S
C122 P96 1.819 . S
C122 C123 1.391 . S
C122 C127 1.391 . S
C123 H105 0.941 . S
C123 C122 1.391 . S
C123 C124 1.396 . S
C124 H108 0.939 . S
C124 C123 1.396 . S
C124 C125 1.397 . S
C125 C124 1.397 . S
C125 C126 1.385 . S
C126 H109 0.940 . S
C126 C125 1.385 . S
C126 C127 1.388 . S
C127 H106 0.939 . S
C127 C122 1.391 . S
C127 C126 1.388 . S
O128 Mg129 1.990 1_655 S
O128 C142 1.253 . S
Mg129 O128 1.990 1_455 S
Mg129 O132 2.180 . S
Mg129 O133 2.117 . S
Mg129 O147 2.030 . S
O130 Mg131 2.072 1_655 S
O130 C142 1.260 . S
Mg131 O130 2.072 1_455 S
Mg131 O132 2.099 . S
Mg131 O134 2.079 1_545 S
Mg131 O135 2.072 1_455 S
Mg131 O137 2.099 1_445 S
Mg131 O148 2.079 1_545 S
O132 Mg129 2.180 . S
O132 Mg131 2.099 . S
O132 C143 1.279 . S
O133 Mg129 2.117 . S
O133 C143 1.250 . S
O134 Mg131 2.079 1_565 S
O134 C144 1.264 . S
O135 Mg131 2.072 1_655 S
O135 C145 1.260 . S
Mg136 O137 2.180 . S
Mg136 O138 2.030 1_655 S
Mg136 O139 1.990 1_565 S
Mg136 O140 2.117 . S
O137 Mg131 2.099 1_665 S
O137 Mg136 2.180 . S
O137 C146 1.279 . S
O138 Mg136 2.030 1_455 S
O138 C144 1.248 . S
O139 Mg136 1.990 1_545 S
O139 C145 1.253 . S
O140 Mg136 2.117 . S
O140 C146 1.250 . S
C141 O147 1.248 1_565 S
C141 O148 1.264 . S
C142 O128 1.253 . S
C142 O130 1.260 . S
C143 O132 1.279 . S
C143 O133 1.250 . S
C144 O134 1.264 . S
C144 O138 1.248 . S
C145 O135 1.260 . S
C145 O139 1.253 . S
C146 O137 1.279 . S
C146 O140 1.250 . S
O147 Mg129 2.030 . S
O147 C141 1.248 1_545 S
O148 Mg131 2.079 1_565 S
O148 C141 1.264 . S
O149 Mg150 1.990 . S
O149 C163 1.253 . S
Mg150 O149 1.990 . S
Mg150 O153 2.180 . S
Mg150 O154 2.117 . S
Mg150 O168 2.030 . S
O151 Mg152 2.072 . S
O151 C163 1.260 . S
Mg152 O151 2.072 . S
Mg152 O153 2.099 . S
Mg152 O155 2.079 1_554 S
Mg152 O156 2.072 . S
Mg152 O158 2.099 . S
Mg152 O169 2.079 . S
O153 Mg150 2.180 . S
O153 Mg152 2.099 . S
O153 C164 1.279 . S
O154 Mg150 2.117 . S
O154 C164 1.250 . S
O155 Mg152 2.079 1_556 S
O155 C165 1.264 . S
O156 Mg152 2.072 . S
O156 C166 1.260 1_554 S
Mg157 O158 2.180 1_556 S
Mg157 O159 2.030 . S
Mg157 O160 1.990 . S
Mg157 O161 2.117 1_556 S
O158 Mg152 2.099 . S
O158 Mg157 2.180 1_554 S
O158 C167 1.279 . S
O159 Mg157 2.030 . S
O159 C165 1.248 . S
O160 Mg157 1.990 . S
O160 C166 1.253 . S
O161 Mg157 2.117 1_554 S
O161 C167 1.250 . S
C162 O168 1.248 . S
C162 O169 1.264 . S
C163 O149 1.253 . S
C163 O151 1.260 . S
C164 O153 1.279 . S
C164 O154 1.250 . S
C165 O155 1.264 . S
C165 O159 1.248 . S
C166 O156 1.260 1_556 S
C166 O160 1.253 . S
C167 O158 1.279 . S
C167 O161 1.250 . S
O168 Mg150 2.030 . S
O168 C162 1.248 . S
O169 Mg152 2.079 . S
O169 C162 1.264 . S
H170 C188 0.951 . S
H171 C190 0.951 . S
H172 C192 0.950 . S
H173 C193 0.950 . S
H174 C195 0.950 . S
H175 C198 0.950 . S
H176 C199 0.950 . S
H177 C201 0.950 . S
H178 C202 0.950 . S
H179 C203 0.951 . S
H180 C205 0.951 . S
H181 C207 0.950 . S
H182 C208 0.950 . S
H183 C210 0.950 . S
H184 C213 0.950 . S
H185 C214 0.950 1_655 S
H186 C216 0.950 . S
H187 C217 0.950 . S
C188 H170 0.951 . S
C188 C189 1.366 . S
C188 C190 1.388 . S
C189 C188 1.366 . S
C189 C193 1.385 . S
C190 H171 0.951 . S
C190 C188 1.388 . S
C190 C191 1.366 . S
C191 C190 1.366 . S
C191 C192 1.414 . S
C191 C194 1.499 . S
C192 H172 0.950 . S
C192 C191 1.414 . S
C192 C193 1.374 . S
C193 H173 0.950 . S
C193 C189 1.385 . S
C193 C192 1.374 . S
C194 C191 1.499 . S
C194 C195 1.373 . S
C194 C196 1.389 . S
C195 H174 0.950 . S
C195 C194 1.373 . S
C195 C211 1.377 . S
C196 C194 1.389 . S
C196 C197 1.524 . S
C196 C210 1.377 . S
C197 C196 1.524 . S
C197 C198 1.397 . S
C197 C202 1.363 . S
C198 H175 0.950 . S
C198 C197 1.397 . S
C198 C199 1.334 . S
C199 H176 0.950 . S
C199 C198 1.334 . S
C199 C200 1.287 . S
C200 C199 1.287 . S
C200 C201 1.524 . S
C200 H219 0.913 . S
C201 H177 0.950 . S
C201 C200 1.524 . S
C201 C202 1.415 . S
C202 H178 0.950 . S
C202 C197 1.363 . S
C202 C201 1.415 . S
C203 H179 0.951 . S
C203 C204 1.366 . S
C203 C205 1.388 . S
C204 C203 1.366 . S
C204 C208 1.385 . S
C205 H180 0.951 . S
C205 C203 1.388 . S
C205 C206 1.366 . S
C206 C205 1.366 . S
C206 C207 1.414 . S
C206 C209 1.499 . S
C207 H181 0.950 . S
C207 C206 1.414 . S
C207 C208 1.374 . S
C208 H182 0.950 . S
C208 C204 1.385 . S
C208 C207 1.374 . S
C209 C206 1.499 . S
C209 C210 1.373 . S
C209 C211 1.389 . S
C210 H183 0.950 . S
C210 C196 1.377 . S
C210 C209 1.373 . S
C211 C195 1.377 . S
C211 C209 1.389 . S
C211 C212 1.524 . S
C212 C211 1.524 . S
C212 C213 1.397 . S
C212 C217 1.363 . S
C213 H184 0.950 . S
C213 C212 1.397 . S
C213 C214 1.334 . S
C214 H185 0.950 1_455 S
C214 C213 1.334 . S
C214 C215 1.287 . S
C215 C214 1.287 . S
C215 C216 1.524 . S
C215 H218 0.999 . S
C216 H186 0.950 . S
C216 C215 1.524 . S
C216 C217 1.415 . S
C217 H187 0.950 . S
C217 C212 1.363 . S
C217 C216 1.415 . S
H218 C215 0.999 . S
H219 C200 0.913 . S
H220 C238 0.951 . S
H221 C240 0.951 . S
H222 C242 0.950 . S
H223 C243 0.950 . S
H224 C245 0.950 . S
H225 C248 0.950 1_554 S
H226 C249 0.950 . S
H227 C251 0.950 . S
H228 C252 0.950 . S
H229 C253 0.951 . S
H230 C255 0.951 . S
H231 C257 0.950 . S
H232 C258 0.950 . S
H233 C260 0.950 . S
H234 C263 0.950 . S
H235 C264 0.950 . S
H236 C266 0.950 . S
H237 C267 0.950 . S
C238 H220 0.951 . S
C238 C239 1.366 . S
C238 C240 1.388 . S
C239 C238 1.366 . S
C239 C243 1.385 . S
C240 H221 0.951 . S
C240 C238 1.388 . S
C240 C241 1.366 . S
C241 C240 1.366 . S
C241 C242 1.414 . S
C241 C244 1.499 . S
C242 H222 0.950 . S
C242 C241 1.414 . S
C242 C243 1.374 . S
C243 H223 0.950 . S
C243 C239 1.385 . S
C243 C242 1.374 . S
C244 C241 1.499 . S
C244 C245 1.373 . S
C244 C246 1.389 . S
C245 H224 0.950 . S
C245 C244 1.373 . S
C245 C261 1.377 . S
C246 C244 1.389 . S
C246 C247 1.524 1_554 S
C246 C260 1.377 . S
C247 C246 1.524 1_556 S
C247 C248 1.397 . S
C247 C252 1.363 . S
C248 H225 0.950 1_556 S
C248 C247 1.397 . S
C248 C249 1.334 . S
C249 H226 0.950 . S
C249 C248 1.334 . S
C249 C250 1.287 . S
C250 C249 1.287 . S
C250 C251 1.524 . S
C250 H269 0.913 . S
C251 H227 0.950 . S
C251 C250 1.524 . S
C251 C252 1.415 . S
C252 H228 0.950 . S
C252 C247 1.363 . S
C252 C251 1.415 . S
C253 H229 0.951 . S
C253 C254 1.366 . S
C253 C255 1.388 . S
C254 C253 1.366 . S
C254 C258 1.385 . S
C255 H230 0.951 . S
C255 C253 1.388 . S
C255 C256 1.366 . S
C256 C255 1.366 . S
C256 C257 1.414 . S
C256 C259 1.499 . S
C257 H231 0.950 . S
C257 C256 1.414 . S
C257 C258 1.374 . S
C258 H232 0.950 . S
C258 C254 1.385 . S
C258 C257 1.374 . S
C259 C256 1.499 . S
C259 C260 1.373 . S
C259 C261 1.389 . S
C260 H233 0.950 . S
C260 C246 1.377 . S
C260 C259 1.373 . S
C261 C245 1.377 . S
C261 C259 1.389 . S
C261 C262 1.524 . S
C262 C261 1.524 . S
C262 C263 1.397 . S
C262 C267 1.363 . S
C263 H234 0.950 . S
C263 C262 1.397 . S
C263 C264 1.334 . S
C264 H235 0.950 . S
C264 C263 1.334 . S
C264 C265 1.287 . S
C265 C264 1.287 . S
C265 C266 1.524 . S
C265 H268 0.999 . S
C266 H236 0.950 . S
C266 C265 1.524 . S
C266 C267 1.415 . S
C267 H237 0.950 . S
C267 C262 1.363 . S
C267 C266 1.415 . S
H268 C265 0.999 . S
H269 C250 0.913 . S
H270 C288 0.951 . S
H271 C290 0.951 . S
H272 C292 0.950 . S
H273 C293 0.950 . S
H274 C295 0.950 . S
H275 C298 0.950 . S
H276 C299 0.950 . S
H277 C301 0.950 . S
H278 C302 0.950 . S
H279 C303 0.951 . S
H280 C305 0.951 . S
H281 C307 0.950 . S
H282 C308 0.950 . S
H283 C310 0.950 . S
H284 C313 0.950 . S
H285 C314 0.950 . S
H286 C316 0.950 . S
H287 C317 0.950 . S
C288 H270 0.951 . S
C288 C289 1.366 . S
C288 C290 1.388 . S
C289 C288 1.366 . S
C289 C293 1.385 . S
C290 H271 0.951 . S
C290 C288 1.388 . S
C290 C291 1.366 . S
C291 C290 1.366 . S
C291 C292 1.414 . S
C291 C294 1.499 . S
C292 H272 0.950 . S
C292 C291 1.414 . S
C292 C293 1.374 . S
C293 H273 0.950 . S
C293 C289 1.385 . S
C293 C292 1.374 . S
C294 C291 1.499 . S
C294 C295 1.373 . S
C294 C296 1.389 . S
C295 H274 0.950 . S
C295 C294 1.373 . S
C295 C311 1.377 . S
C296 C294 1.389 . S
C296 C297 1.524 . S
C296 C310 1.377 . S
C297 C296 1.524 . S
C297 C298 1.397 . S
C297 C302 1.363 . S
C298 H275 0.950 . S
C298 C297 1.397 . S
C298 C299 1.334 . S
C299 H276 0.950 . S
C299 C298 1.334 . S
C299 C300 1.287 . S
C300 C299 1.287 . S
C300 C301 1.524 . S
C300 H319 0.913 . S
C301 H277 0.950 . S
C301 C300 1.524 . S
C301 C302 1.415 . S
C302 H278 0.950 . S
C302 C297 1.363 . S
C302 C301 1.415 . S
C303 H279 0.951 . S
C303 C304 1.366 . S
C303 C305 1.388 . S
C304 C303 1.366 . S
C304 C308 1.385 . S
C305 H280 0.951 . S
C305 C303 1.388 . S
C305 C306 1.366 . S
C306 C305 1.366 . S
C306 C307 1.414 . S
C306 C309 1.499 . S
C307 H281 0.950 . S
C307 C306 1.414 . S
C307 C308 1.374 . S
C308 H282 0.950 . S
C308 C304 1.385 . S
C308 C307 1.374 . S
C309 C306 1.499 . S
C309 C310 1.373 . S
C309 C311 1.389 . S
C310 H283 0.950 . S
C310 C296 1.377 . S
C310 C309 1.373 . S
C311 C295 1.377 . S
C311 C309 1.389 . S
C311 C312 1.524 . S
C312 C311 1.524 . S
C312 C313 1.397 . S
C312 C317 1.363 . S
C313 H284 0.950 . S
C313 C312 1.397 . S
C313 C314 1.334 . S
C314 H285 0.950 . S
C314 C313 1.334 . S
C314 C315 1.287 . S
C315 C314 1.287 . S
C315 C316 1.524 . S
C315 H318 0.999 . S
C316 H286 0.950 . S
C316 C315 1.524 . S
C316 C317 1.415 . S
C317 H287 0.950 . S
C317 C312 1.363 . S
C317 C316 1.415 . S
H318 C315 0.999 . S
H319 C300 0.913 . S
H320 C338 0.951 . S
H321 C340 0.951 . S
H322 C342 0.950 . S
H323 C343 0.950 . S
H324 C345 0.950 1_556 S
H325 C348 0.950 . S
H326 C349 0.950 . S
H327 C351 0.950 . S
H328 C352 0.950 1_556 S
H329 C353 0.951 . S
H330 C355 0.951 . S
H331 C357 0.951 1_556 S
H332 C358 0.950 1_556 S
H333 C360 0.950 . S
H334 C363 0.950 . S
H335 C364 0.950 . S
H336 C366 0.950 1_554 S
H337 C367 0.950 . S
C338 H320 0.951 . S
C338 C339 1.366 . S
C338 C340 1.388 . S
C339 C338 1.366 . S
C339 C343 1.385 1_556 S
C340 H321 0.951 . S
C340 C338 1.388 . S
C340 C341 1.366 1_556 S
C341 C340 1.366 1_554 S
C341 C342 1.414 . S
C341 C344 1.499 . S
C342 H322 0.950 . S
C342 C341 1.414 . S
C342 C343 1.374 . S
C343 H323 0.950 . S
C343 C339 1.385 1_554 S
C343 C342 1.374 . S
C344 C341 1.499 . S
C344 C345 1.373 . S
C344 C346 1.389 . S
C345 H324 0.950 1_554 S
C345 C344 1.373 . S
C345 C361 1.377 . S
C346 C344 1.389 . S
C346 C347 1.524 . S
C346 C360 1.377 . S
C347 C346 1.524 . S
C347 C348 1.397 . S
C347 C352 1.363 . S
C348 H325 0.950 . S
C348 C347 1.397 . S
C348 C349 1.334 . S
C349 H326 0.950 . S
C349 C348 1.334 . S
C349 C350 1.287 . S
C350 C349 1.287 . S
C350 C351 1.524 . S
C350 H369 0.913 . S
C351 H327 0.950 . S
C351 C350 1.524 . S
C351 C352 1.415 . S
C352 H328 0.950 1_554 S
C352 C347 1.363 . S
C352 C351 1.415 . S
C353 H329 0.951 . S
C353 C354 1.366 . S
C353 C355 1.388 . S
C354 C353 1.366 . S
C354 C358 1.385 . S
C355 H330 0.951 . S
C355 C353 1.388 . S
C355 C356 1.366 . S
C356 C355 1.366 . S
C356 C357 1.414 . S
C356 C359 1.499 . S
C357 H331 0.951 1_554 S
C357 C356 1.414 . S
C357 C358 1.374 . S
C358 H332 0.950 1_554 S
C358 C354 1.385 . S
C358 C357 1.374 . S
C359 C356 1.499 . S
C359 C360 1.373 . S
C359 C361 1.389 . S
C360 H333 0.950 . S
C360 C346 1.377 . S
C360 C359 1.373 . S
C361 C345 1.377 . S
C361 C359 1.389 . S
C361 C362 1.524 1_554 S
C362 C361 1.524 1_556 S
C362 C363 1.397 . S
C362 C367 1.363 1_556 S
C363 H334 0.950 . S
C363 C362 1.397 . S
C363 C364 1.334 . S
C364 H335 0.950 . S
C364 C363 1.334 . S
C364 C365 1.287 . S
C365 C364 1.287 . S
C365 C366 1.524 . S
C365 H368 0.999 . S
C366 H336 0.950 1_556 S
C366 C365 1.524 . S
C366 C367 1.415 1_556 S
C367 H337 0.950 . S
C367 C362 1.363 1_554 S
C367 C366 1.415 1_554 S
H368 C365 0.999 . S
H369 C350 0.913 . S
H370 C388 0.951 . S
H371 C390 0.951 . S
H372 C392 0.950 . S
H373 C393 0.950 . S
H374 C395 0.950 . S
H375 C398 0.950 . S
H376 C399 0.950 . S
H377 C401 0.950 . S
H378 C402 0.950 . S
H379 C403 0.951 . S
H380 C405 0.951 . S
H381 C407 0.950 . S
H382 C408 0.950 . S
H383 C410 0.950 . S
H384 C413 0.950 . S
H385 C414 0.950 . S
H386 C416 0.950 . S
H387 C417 0.950 . S
C388 H370 0.951 . S
C388 C389 1.366 . S
C388 C390 1.388 . S
C389 C388 1.366 . S
C389 C393 1.385 . S
C390 H371 0.951 . S
C390 C388 1.388 . S
C390 C391 1.366 . S
C391 C390 1.366 . S
C391 C392 1.414 . S
C391 C394 1.499 . S
C392 H372 0.950 . S
C392 C391 1.414 . S
C392 C393 1.374 . S
C393 H373 0.950 . S
C393 C389 1.385 . S
C393 C392 1.374 . S
C394 C391 1.499 . S
C394 C395 1.373 . S
C394 C396 1.389 . S
C395 H374 0.950 . S
C395 C394 1.373 . S
C395 C411 1.377 . S
C396 C394 1.389 . S
C396 C397 1.524 . S
C396 C410 1.377 . S
C397 C396 1.524 . S
C397 C398 1.397 . S
C397 C402 1.363 . S
C398 H375 0.950 . S
C398 C397 1.397 . S
C398 C399 1.334 1_565 S
C399 H376 0.950 . S
C399 C398 1.334 1_545 S
C399 C400 1.287 . S
C400 C399 1.287 . S
C400 C401 1.524 1_545 S
C400 H419 0.913 . S
C401 H377 0.950 . S
C401 C400 1.524 1_565 S
C401 C402 1.415 . S
C402 H378 0.950 . S
C402 C397 1.363 . S
C402 C401 1.415 . S
C403 H379 0.951 . S
C403 C404 1.366 . S
C403 C405 1.388 . S
C404 C403 1.366 . S
C404 C408 1.385 . S
C405 H380 0.951 . S
C405 C403 1.388 . S
C405 C406 1.366 . S
C406 C405 1.366 . S
C406 C407 1.414 . S
C406 C409 1.499 . S
C407 H381 0.950 . S
C407 C406 1.414 . S
C407 C408 1.374 . S
C408 H382 0.950 . S
C408 C404 1.385 . S
C408 C407 1.374 . S
C409 C406 1.499 . S
C409 C410 1.373 . S
C409 C411 1.389 . S
C410 H383 0.950 . S
C410 C396 1.377 . S
C410 C409 1.373 . S
C411 C395 1.377 . S
C411 C409 1.389 . S
C411 C412 1.524 . S
C412 C411 1.524 . S
C412 C413 1.397 . S
C412 C417 1.363 . S
C413 H384 0.950 . S
C413 C412 1.397 . S
C413 C414 1.334 . S
C414 H385 0.950 . S
C414 C413 1.334 . S
C414 C415 1.287 . S
C415 C414 1.287 . S
C415 C416 1.524 . S
C415 H418 0.999 . S
C416 H386 0.950 . S
C416 C415 1.524 . S
C416 C417 1.415 . S
C417 H387 0.950 . S
C417 C412 1.363 . S
C417 C416 1.415 . S
H418 C415 0.999 . S
H419 C400 0.913 . S
H420 C438 0.951 . S
H421 C440 0.951 . S
H422 C442 0.950 . S
H423 C443 0.950 . S
H424 C445 0.950 . S
H425 C448 0.950 . S
H426 C449 0.950 . S
H427 C451 0.950 . S
H428 C452 0.950 . S
H429 C453 0.951 . S
H430 C455 0.951 . S
H431 C457 0.950 . S
H432 C458 0.950 . S
H433 C460 0.950 . S
H434 C463 0.950 . S
H435 C464 0.950 . S
H436 C466 0.950 . S
H437 C467 0.950 . S
C438 H420 0.951 . S
C438 C439 1.366 . S
C438 C440 1.388 . S
C439 C438 1.366 . S
C439 C443 1.385 . S
C440 H421 0.951 . S
C440 C438 1.388 . S
C440 C441 1.366 . S
C441 C440 1.366 . S
C441 C442 1.414 . S
C441 C444 1.499 . S
C442 H422 0.950 . S
C442 C441 1.414 . S
C442 C443 1.374 . S
C443 H423 0.950 . S
C443 C439 1.385 . S
C443 C442 1.374 . S
C444 C441 1.499 . S
C444 C445 1.373 . S
C444 C446 1.389 . S
C445 H424 0.950 . S
C445 C444 1.373 . S
C445 C461 1.377 . S
C446 C444 1.389 . S
C446 C447 1.524 . S
C446 C460 1.377 . S
C447 C446 1.524 . S
C447 C448 1.397 . S
C447 C452 1.363 . S
C448 H425 0.950 . S
C448 C447 1.397 . S
C448 C449 1.334 . S
C449 H426 0.950 . S
C449 C448 1.334 . S
C449 C450 1.287 . S
C450 C449 1.287 . S
C450 C451 1.524 . S
C450 H469 0.913 . S
C451 H427 0.950 . S
C451 C450 1.524 . S
C451 C452 1.415 . S
C452 H428 0.950 . S
C452 C447 1.363 . S
C452 C451 1.415 . S
C453 H429 0.951 . S
C453 C454 1.366 . S
C453 C455 1.388 . S
C454 C453 1.366 . S
C454 C458 1.385 . S
C455 H430 0.951 . S
C455 C453 1.388 . S
C455 C456 1.366 . S
C456 C455 1.366 . S
C456 C457 1.414 . S
C456 C459 1.499 . S
C457 H431 0.950 . S
C457 C456 1.414 . S
C457 C458 1.374 . S
C458 H432 0.950 . S
C458 C454 1.385 . S
C458 C457 1.374 . S
C459 C456 1.499 . S
C459 C460 1.373 . S
C459 C461 1.389 . S
C460 H433 0.950 . S
C460 C446 1.377 . S
C460 C459 1.373 . S
C461 C445 1.377 . S
C461 C459 1.389 . S
C461 C462 1.524 . S
C462 C461 1.524 . S
C462 C463 1.397 . S
C462 C467 1.363 . S
C463 H434 0.950 . S
C463 C462 1.397 . S
C463 C464 1.334 . S
C464 H435 0.950 . S
C464 C463 1.334 . S
C464 C465 1.287 . S
C465 C464 1.287 . S
C465 C466 1.524 . S
C465 H468 0.999 . S
C466 H436 0.950 . S
C466 C465 1.524 . S
C466 C467 1.415 . S
C467 H437 0.950 . S
C467 C462 1.363 . S
C467 C466 1.415 . S
H468 C465 0.999 . S
H469 C450 0.913 . S
H470 C488 0.951 . S
H471 C490 0.951 . S
H472 C492 0.950 . S
H473 C493 0.950 . S
H474 C495 0.950 . S
H475 C498 0.950 . S
H476 C499 0.950 . S
H477 C501 0.950 . S
H478 C502 0.950 . S
H479 C503 0.951 . S
H480 C505 0.951 . S
H481 C507 0.950 . S
H482 C508 0.950 . S
H483 C510 0.950 . S
H484 C513 0.950 . S
H485 C514 0.950 . S
H486 C516 0.950 . S
H487 C517 0.950 . S
C488 H470 0.951 . S
C488 C489 1.366 . S
C488 C490 1.388 . S
C489 C488 1.366 . S
C489 C493 1.385 . S
C490 H471 0.951 . S
C490 C488 1.388 . S
C490 C491 1.366 . S
C491 C490 1.366 . S
C491 C492 1.414 . S
C491 C494 1.499 . S
C492 H472 0.950 . S
C492 C491 1.414 . S
C492 C493 1.374 . S
C493 H473 0.950 . S
C493 C489 1.385 . S
C493 C492 1.374 . S
C494 C491 1.499 . S
C494 C495 1.373 . S
C494 C496 1.389 . S
C495 H474 0.950 . S
C495 C494 1.373 . S
C495 C511 1.377 . S
C496 C494 1.389 . S
C496 C497 1.524 . S
C496 C510 1.377 . S
C497 C496 1.524 . S
C497 C498 1.397 . S
C497 C502 1.363 . S
C498 H475 0.950 . S
C498 C497 1.397 . S
C498 C499 1.334 . S
C499 H476 0.950 . S
C499 C498 1.334 . S
C499 C500 1.287 . S
C500 C499 1.287 . S
C500 C501 1.524 . S
C500 H519 0.913 . S
C501 H477 0.950 . S
C501 C500 1.524 . S
C501 C502 1.415 . S
C502 H478 0.950 . S
C502 C497 1.363 . S
C502 C501 1.415 . S
C503 H479 0.951 . S
C503 C504 1.366 . S
C503 C505 1.388 . S
C504 C503 1.366 . S
C504 C508 1.385 . S
C505 H480 0.951 . S
C505 C503 1.388 . S
C505 C506 1.366 . S
C506 C505 1.366 . S
C506 C507 1.414 . S
C506 C509 1.499 . S
C507 H481 0.950 . S
C507 C506 1.414 . S
C507 C508 1.374 . S
C508 H482 0.950 . S
C508 C504 1.385 . S
C508 C507 1.374 . S
C509 C506 1.499 . S
C509 C510 1.373 . S
C509 C511 1.389 . S
C510 H483 0.950 . S
C510 C496 1.377 . S
C510 C509 1.373 . S
C511 C495 1.377 . S
C511 C509 1.389 . S
C511 C512 1.524 . S
C512 C511 1.524 . S
C512 C513 1.397 . S
C512 C517 1.363 . S
C513 H484 0.950 . S
C513 C512 1.397 . S
C513 C514 1.334 1_545 S
C514 H485 0.950 . S
C514 C513 1.334 1_565 S
C514 C515 1.287 . S
C515 C514 1.287 . S
C515 C516 1.524 . S
C515 H518 0.999 . S
C516 H486 0.950 . S
C516 C515 1.524 . S
C516 C517 1.415 1_565 S
C517 H487 0.950 . S
C517 C512 1.363 . S
C517 C516 1.415 1_545 S
H518 C515 0.999 . S
H519 C500 0.913 . S
H520 C538 0.951 . S
H521 C540 0.951 . S
H522 C542 0.950 . S
H523 C543 0.950 . S
H524 C545 0.950 . S
H525 C548 0.950 . S
H526 C549 0.950 . S
H527 C551 0.950 . S
H528 C552 0.950 . S
H529 C553 0.951 . S
H530 C555 0.951 . S
H531 C557 0.950 . S
H532 C558 0.950 . S
H533 C560 0.950 . S
H534 C563 0.950 . S
H535 C564 0.950 . S
H536 C566 0.950 . S
H537 C567 0.950 . S
C538 H520 0.951 . S
C538 C539 1.366 . S
C538 C540 1.388 . S
C539 C538 1.366 . S
C539 C543 1.385 . S
C540 H521 0.951 . S
C540 C538 1.388 . S
C540 C541 1.366 . S
C541 C540 1.366 . S
C541 C542 1.414 . S
C541 C544 1.499 . S
C542 H522 0.950 . S
C542 C541 1.414 . S
C542 C543 1.374 . S
C543 H523 0.950 . S
C543 C539 1.385 . S
C543 C542 1.374 . S
C544 C541 1.499 . S
C544 C545 1.373 . S
C544 C546 1.389 . S
C545 H524 0.950 . S
C545 C544 1.373 . S
C545 C561 1.377 . S
C546 C544 1.389 . S
C546 C547 1.524 . S
C546 C560 1.377 . S
C547 C546 1.524 . S
C547 C548 1.397 . S
C547 C552 1.363 . S
C548 H525 0.950 . S
C548 C547 1.397 . S
C548 C549 1.334 . S
C549 H526 0.950 . S
C549 C548 1.334 . S
C549 C550 1.287 . S
C550 C549 1.287 . S
C550 C551 1.524 . S
C550 H569 0.913 . S
C551 H527 0.950 . S
C551 C550 1.524 . S
C551 C552 1.415 . S
C552 H528 0.950 . S
C552 C547 1.363 . S
C552 C551 1.415 . S
C553 H529 0.951 . S
C553 C554 1.366 . S
C553 C555 1.388 . S
C554 C553 1.366 . S
C554 C558 1.385 . S
C555 H530 0.951 . S
C555 C553 1.388 . S
C555 C556 1.366 . S
C556 C555 1.366 . S
C556 C557 1.414 . S
C556 C559 1.499 . S
C557 H531 0.950 . S
C557 C556 1.414 . S
C557 C558 1.374 . S
C558 H532 0.950 . S
C558 C554 1.385 . S
C558 C557 1.374 . S
C559 C556 1.499 . S
C559 C560 1.373 . S
C559 C561 1.389 . S
C560 H533 0.950 . S
C560 C546 1.377 . S
C560 C559 1.373 . S
C561 C545 1.377 . S
C561 C559 1.389 . S
C561 C562 1.524 . S
C562 C561 1.524 . S
C562 C563 1.397 . S
C562 C567 1.363 . S
C563 H534 0.950 . S
C563 C562 1.397 . S
C563 C564 1.334 . S
C564 H535 0.950 . S
C564 C563 1.334 . S
C564 C565 1.287 . S
C565 C564 1.287 . S
C565 C566 1.524 . S
C565 H568 0.999 . S
C566 H536 0.950 . S
C566 C565 1.524 . S
C566 C567 1.415 . S
C567 H537 0.950 . S
C567 C562 1.363 . S
C567 C566 1.415 . S
H568 C565 0.999 . S
H569 C550 0.913 . S
H570 C588 0.951 . S
H571 C590 0.951 . S
H572 C592 0.950 . S
H573 C593 0.950 . S
H574 C595 0.950 . S
H575 C598 0.950 . S
H576 C599 0.950 . S
H577 C601 0.950 . S
H578 C602 0.950 . S
H579 C603 0.951 . S
H580 C605 0.951 . S
H581 C607 0.950 . S
H582 C608 0.950 . S
H583 C610 0.950 . S
H584 C613 0.950 . S
H585 C614 0.950 . S
H586 C616 0.950 . S
H587 C617 0.950 . S
C588 H570 0.951 . S
C588 C589 1.366 . S
C588 C590 1.388 . S
C589 C588 1.366 . S
C589 C593 1.385 . S
C590 H571 0.951 . S
C590 C588 1.388 . S
C590 C591 1.366 . S
C591 C590 1.366 . S
C591 C592 1.414 . S
C591 C594 1.499 . S
C592 H572 0.950 . S
C592 C591 1.414 . S
C592 C593 1.374 . S
C593 H573 0.950 . S
C593 C589 1.385 . S
C593 C592 1.374 . S
C594 C591 1.499 . S
C594 C595 1.373 . S
C594 C596 1.389 . S
C595 H574 0.950 . S
C595 C594 1.373 . S
C595 C611 1.377 . S
C596 C594 1.389 . S
C596 C597 1.524 . S
C596 C610 1.377 . S
C597 C596 1.524 . S
C597 C598 1.397 . S
C597 C602 1.363 . S
C598 H575 0.950 . S
C598 C597 1.397 . S
C598 C599 1.334 . S
C599 H576 0.950 . S
C599 C598 1.334 . S
C599 C600 1.287 . S
C600 C599 1.287 . S
C600 C601 1.524 . S
C600 H619 0.913 . S
C601 H577 0.950 . S
C601 C600 1.524 . S
C601 C602 1.415 . S
C602 H578 0.950 . S
C602 C597 1.363 . S
C602 C601 1.415 . S
C603 H579 0.951 . S
C603 C604 1.366 . S
C603 C605 1.388 . S
C604 C603 1.366 . S
C604 C608 1.385 . S
C605 H580 0.951 . S
C605 C603 1.388 . S
C605 C606 1.366 . S
C606 C605 1.366 . S
C606 C607 1.414 . S
C606 C609 1.499 . S
C607 H581 0.950 . S
C607 C606 1.414 . S
C607 C608 1.374 . S
C608 H582 0.950 . S
C608 C604 1.385 . S
C608 C607 1.374 . S
C609 C606 1.499 . S
C609 C610 1.373 . S
C609 C611 1.389 . S
C610 H583 0.950 . S
C610 C596 1.377 . S
C610 C609 1.373 . S
C611 C595 1.377 . S
C611 C609 1.389 . S
C611 C612 1.524 . S
C612 C611 1.524 . S
C612 C613 1.397 . S
C612 C617 1.363 . S
C613 H584 0.950 . S
C613 C612 1.397 . S
C613 C614 1.334 . S
C614 H585 0.950 . S
C614 C613 1.334 . S
C614 C615 1.287 . S
C615 C614 1.287 . S
C615 C616 1.524 . S
C615 H618 0.999 . S
C616 H586 0.950 . S
C616 C615 1.524 . S
C616 C617 1.415 . S
C617 H587 0.950 . S
C617 C612 1.363 . S
C617 C616 1.415 . S
H618 C615 0.999 . S
H619 C600 0.913 . S
H620 C638 0.951 . S
H621 C640 0.951 . S
H622 C642 0.950 . S
H623 C643 0.950 . S
H624 C645 0.950 . S
H625 C648 0.950 . S
H626 C649 0.950 . S
H627 C651 0.950 . S
H628 C652 0.950 . S
H629 C653 0.951 . S
H630 C655 0.951 . S
H631 C657 0.950 . S
H632 C658 0.950 . S
H633 C660 0.950 . S
H634 C663 0.950 . S
H635 C664 0.950 . S
H636 C666 0.950 . S
H637 C667 0.952 1_545 S
C638 H620 0.951 . S
C638 C639 1.366 . S
C638 C640 1.388 . S
C639 C638 1.366 . S
C639 C643 1.385 . S
C640 H621 0.951 . S
C640 C638 1.388 . S
C640 C641 1.366 . S
C641 C640 1.366 . S
C641 C642 1.414 . S
C641 C644 1.499 . S
C642 H622 0.950 . S
C642 C641 1.414 . S
C642 C643 1.374 . S
C643 H623 0.950 . S
C643 C639 1.385 . S
C643 C642 1.374 . S
C644 C641 1.499 . S
C644 C645 1.373 . S
C644 C646 1.389 . S
C645 H624 0.950 . S
C645 C644 1.373 . S
C645 C661 1.377 . S
C646 C644 1.389 . S
C646 C647 1.524 . S
C646 C660 1.377 . S
C647 C646 1.524 . S
C647 C648 1.397 . S
C647 C652 1.363 . S
C648 H625 0.950 . S
C648 C647 1.397 . S
C648 C649 1.334 . S
C649 H626 0.950 . S
C649 C648 1.334 . S
C649 C650 1.287 . S
C650 C649 1.287 . S
C650 C651 1.524 . S
C650 H669 0.913 . S
C651 H627 0.950 . S
C651 C650 1.524 . S
C651 C652 1.415 . S
C652 H628 0.950 . S
C652 C647 1.363 . S
C652 C651 1.415 . S
C653 H629 0.951 . S
C653 C654 1.366 . S
C653 C655 1.388 . S
C654 C653 1.366 . S
C654 C658 1.385 . S
C655 H630 0.951 . S
C655 C653 1.388 . S
C655 C656 1.366 . S
C656 C655 1.366 . S
C656 C657 1.414 . S
C656 C659 1.499 . S
C657 H631 0.950 . S
C657 C656 1.414 . S
C657 C658 1.374 . S
C658 H632 0.950 . S
C658 C654 1.385 . S
C658 C657 1.374 . S
C659 C656 1.499 . S
C659 C660 1.373 . S
C659 C661 1.389 . S
C660 H633 0.950 . S
C660 C646 1.377 . S
C660 C659 1.373 . S
C661 C645 1.377 . S
C661 C659 1.389 . S
C661 C662 1.524 . S
C662 C661 1.524 . S
C662 C663 1.397 . S
C662 C667 1.365 1_545 S
C663 H634 0.950 . S
C663 C662 1.397 . S
C663 C664 1.334 1_545 S
C664 H635 0.950 . S
C664 C663 1.334 1_565 S
C664 C665 1.287 . S
C665 C664 1.287 . S
C665 C666 1.524 . S
C665 H668 0.999 . S
C666 H636 0.950 . S
C666 C665 1.524 . S
C666 C667 1.411 . S
C667 H637 0.952 1_565 S
C667 C662 1.365 1_565 S
C667 C666 1.411 . S
H668 C665 0.999 . S
H669 C650 0.913 . S
H670 C688 0.951 . S
H671 C690 0.951 . S
H672 C692 0.950 . S
H673 C693 0.950 . S
H674 C695 0.950 . S
H675 C698 0.950 . S
H676 C699 0.950 . S
H677 C701 0.950 . S
H678 C702 0.950 . S
H679 C703 0.951 . S
H680 C705 0.951 . S
H681 C707 0.950 . S
H682 C708 0.950 . S
H683 C710 0.950 . S
H684 C713 0.950 . S
H685 C714 0.950 . S
H686 C716 0.950 . S
H687 C717 0.950 . S
C688 H670 0.951 . S
C688 C689 1.366 . S
C688 C690 1.388 . S
C689 C688 1.366 . S
C689 C693 1.385 . S
C690 H671 0.951 . S
C690 C688 1.388 . S
C690 C691 1.366 . S
C691 C690 1.366 . S
C691 C692 1.414 . S
C691 C694 1.499 . S
C692 H672 0.950 . S
C692 C691 1.414 . S
C692 C693 1.374 . S
C693 H673 0.950 . S
C693 C689 1.385 . S
C693 C692 1.374 . S
C694 C691 1.499 . S
C694 C695 1.373 . S
C694 C696 1.389 . S
C695 H674 0.950 . S
C695 C694 1.373 . S
C695 C711 1.377 . S
C696 C694 1.389 . S
C696 C697 1.524 . S
C696 C710 1.377 . S
C697 C696 1.524 . S
C697 C698 1.397 . S
C697 C702 1.363 . S
C698 H675 0.950 . S
C698 C697 1.397 . S
C698 C699 1.334 . S
C699 H676 0.950 . S
C699 C698 1.334 . S
C699 C700 1.287 . S
C700 C699 1.287 . S
C700 C701 1.524 . S
C700 H719 0.913 . S
C701 H677 0.950 . S
C701 C700 1.524 . S
C701 C702 1.415 . S
C702 H678 0.950 . S
C702 C697 1.363 . S
C702 C701 1.415 . S
C703 H679 0.951 . S
C703 C704 1.366 . S
C703 C705 1.388 . S
C704 C703 1.366 . S
C704 C708 1.385 . S
C705 H680 0.951 . S
C705 C703 1.388 . S
C705 C706 1.366 . S
C706 C705 1.366 . S
C706 C707 1.414 . S
C706 C709 1.499 . S
C707 H681 0.950 . S
C707 C706 1.414 . S
C707 C708 1.374 . S
C708 H682 0.950 . S
C708 C704 1.385 . S
C708 C707 1.374 . S
C709 C706 1.499 . S
C709 C710 1.373 . S
C709 C711 1.389 . S
C710 H683 0.950 . S
C710 C696 1.377 . S
C710 C709 1.373 . S
C711 C695 1.377 . S
C711 C709 1.389 . S
C711 C712 1.524 . S
C712 C711 1.524 . S
C712 C713 1.397 . S
C712 C717 1.363 . S
C713 H684 0.950 . S
C713 C712 1.397 . S
C713 C714 1.334 . S
C714 H685 0.950 . S
C714 C713 1.334 . S
C714 C715 1.287 . S
C715 C714 1.287 . S
C715 C716 1.524 . S
C715 H718 0.999 . S
C716 H686 0.950 . S
C716 C715 1.524 . S
C716 C717 1.415 . S
C717 H687 0.950 . S
C717 C712 1.363 . S
C717 C716 1.415 . S
H718 C715 0.999 . S
H719 C700 0.913 . S
H720 C738 0.951 . S
H721 C740 0.951 . S
H722 C742 0.950 . S
H723 C743 0.950 . S
H724 C745 0.950 . S
H725 C748 0.950 . S
H726 C749 0.950 . S
H727 C751 0.950 . S
H728 C752 0.950 . S
H729 C753 0.951 . S
H730 C755 0.951 . S
H731 C757 0.950 1_545 S
H732 C758 0.950 . S
H733 C760 0.950 . S
H734 C763 0.950 . S
H735 C764 0.950 . S
H736 C766 0.950 . S
H737 C767 0.950 . S
C738 H720 0.951 . S
C738 C739 1.366 . S
C738 C740 1.388 . S
C739 C738 1.366 . S
C739 C743 1.385 . S
C740 H721 0.951 . S
C740 C738 1.388 . S
C740 C741 1.366 . S
C741 C740 1.366 . S
C741 C742 1.414 . S
C741 C744 1.499 . S
C742 H722 0.950 . S
C742 C741 1.414 . S
C742 C743 1.374 . S
C743 H723 0.950 . S
C743 C739 1.385 . S
C743 C742 1.374 . S
C744 C741 1.499 . S
C744 C745 1.373 . S
C744 C746 1.389 . S
C745 H724 0.950 . S
C745 C744 1.373 . S
C745 C761 1.377 . S
C746 C744 1.389 . S
C746 C747 1.524 . S
C746 C760 1.377 . S
C747 C746 1.524 . S
C747 C748 1.397 . S
C747 C752 1.363 1_565 S
C748 H725 0.950 . S
C748 C747 1.397 . S
C748 C749 1.334 . S
C749 H726 0.950 . S
C749 C748 1.334 . S
C749 C750 1.287 1_565 S
C750 C749 1.287 1_545 S
C750 C751 1.524 . S
C750 H769 0.913 . S
C751 H727 0.950 . S
C751 C750 1.524 . S
C751 C752 1.415 . S
C752 H728 0.950 . S
C752 C747 1.363 1_545 S
C752 C751 1.415 . S
C753 H729 0.951 . S
C753 C754 1.366 . S
C753 C755 1.388 . S
C754 C753 1.366 . S
C754 C758 1.385 1_565 S
C755 H730 0.951 . S
C755 C753 1.388 . S
C755 C756 1.366 . S
C756 C755 1.366 . S
C756 C757 1.414 . S
C756 C759 1.499 . S
C757 H731 0.950 1_565 S
C757 C756 1.414 . S
C757 C758 1.374 1_565 S
C758 H732 0.950 . S
C758 C754 1.385 1_545 S
C758 C757 1.374 1_545 S
C759 C756 1.499 . S
C759 C760 1.373 . S
C759 C761 1.389 . S
C760 H733 0.950 . S
C760 C746 1.377 . S
C760 C759 1.373 . S
C761 C745 1.377 . S
C761 C759 1.389 . S
C761 C762 1.524 . S
C762 C761 1.524 . S
C762 C763 1.397 . S
C762 C767 1.363 . S
C763 H734 0.950 . S
C763 C762 1.397 . S
C763 C764 1.334 . S
C764 H735 0.950 . S
C764 C763 1.334 . S
C764 C765 1.287 . S
C765 C764 1.287 . S
C765 C766 1.524 . S
C765 H768 0.999 . S
C766 H736 0.950 . S
C766 C765 1.524 . S
C766 C767 1.415 . S
C767 H737 0.950 . S
C767 C762 1.363 . S
C767 C766 1.415 . S
H768 C765 0.999 . S
H769 C750 0.913 . S
C204 C143 1.284 . S
C189 C119 1.399 . S
C239 C23 1.474 . S
C254 C167 1.279 . S
C289 C55 1.646 . S
C304 C146 1.432 . S
C339 C87 1.577 . S
C354 C164 1.428 . S
C404 C144 1.531 . S
C389 C17 1.572 . S
C454 C166 1.527 . S
C439 C61 1.577 . S
C489 C93 1.488 . S
C504 C145 1.492 . S
C539 C113 1.485 . S
C554 C165 1.489 . S
C604 C163 1.493 . S
C589 C49 1.561 . S
C654 C142 1.524 . S
C639 C81 1.526 . S
C704 C162 1.536 . S
C689 C125 1.482 . S
C739 C29 1.563 . S
C754 C141 1.489 . S
