# Generated by pormake.
# Topology tsx, (6,3)-cn, num edge types: 1
# Building blocks:
#     Node 0, Type 0, BuildingBlock: VOLQOD_clean_sbu_1, # of connection points: 6
#     Node 1, Type 0, BuildingBlock: VOLQOD_clean_sbu_1, # of connection points: 6
#     Node 2, Type 1, BuildingBlock: KAKCAD_clean_linker_0, # of connection points: 3
#     Node 3, Type 1, BuildingBlock: KAKCAD_clean_linker_0, # of connection points: 3
#     Node 4, Type 1, BuildingBlock: KAKCAD_clean_linker_0, # of connection points: 3
#     Node 5, Type 1, BuildingBlock: KAKCAD_clean_linker_0, # of connection points: 3
#     Edge 6, Type (0, 1), BuildingBlock: OJICUG_clean_linker_0, # of connection points: 2
#     Edge 7, Type (0, 1), BuildingBlock: OJICUG_clean_linker_0, # of connection points: 2
#     Edge 8, Type (0, 1), BuildingBlock: OJICUG_clean_linker_0, # of connection points: 2
#     Edge 9, Type (0, 1), BuildingBlock: OJICUG_clean_linker_0, # of connection points: 2
#     Edge 10, Type (0, 1), BuildingBlock: OJICUG_clean_linker_0, # of connection points: 2
#     Edge 11, Type (0, 1), BuildingBlock: OJICUG_clean_linker_0, # of connection points: 2
#     Edge 12, Type (0, 1), BuildingBlock: OJICUG_clean_linker_0, # of connection points: 2
#     Edge 13, Type (0, 1), BuildingBlock: OJICUG_clean_linker_0, # of connection points: 2
#     Edge 14, Type (0, 1), BuildingBlock: OJICUG_clean_linker_0, # of connection points: 2
#     Edge 15, Type (0, 1), BuildingBlock: OJICUG_clean_linker_0, # of connection points: 2
#     Edge 16, Type (0, 1), BuildingBlock: OJICUG_clean_linker_0, # of connection points: 2
#     Edge 17, Type (0, 1), BuildingBlock: OJICUG_clean_linker_0, # of connection points: 2
# Relax obj value: 0.075
# Max RMSD: 0.108
# Mean RMSD: 0.083
data_MOF--net-tsx--node1-VOLQOD_clean_sbu_1--node2-KAKCAD_clean_linker_0--edge1-OJICUG_clean_linker_0
_symmetry_space_group_name_H-M    P1
_symmetry_Int_Tables_number       1
_symmetry_cell_setting            triclinic
loop_
_symmetry_equiv_pos_as_xyz
'x, y, z'
_cell_length_a     19.769861
_cell_length_b     20.480207
_cell_length_c     38.652467
_cell_angle_alpha  90.654307
_cell_angle_beta   89.939957
_cell_angle_gamma 90.045526
loop_
_atom_site_label
_atom_site_type_symbol
_atom_site_fract_x
_atom_site_fract_y
_atom_site_fract_z
_atom_type_partial_charge
O0 O 0.07814 -0.00662 0.08234 0.0
Zn1 Zn 0.09773 0.98931 0.03095 0.0
O2 O 0.01577 0.00047 0.00368 0.0
Zn3 Zn -0.00282 0.92181 0.97611 0.0
Zn4 Zn 0.94091 0.01811 0.03521 0.0
Zn5 Zn 0.02668 0.07384 0.97262 0.0
O6 O -0.00361 0.94079 0.92476 0.0
O7 O 0.0314 0.0437 0.92291 0.0
O8 O 0.14247 0.90376 0.01992 0.0
O9 O 0.07056 0.85549 0.98362 0.0
O10 O 0.90915 0.87991 0.99022 0.0
O11 O 0.876 0.94311 0.03412 0.0
O12 O 0.88798 0.09715 0.02104 0.0
O13 O 0.16387 0.06125 0.02104 0.0
O14 O 0.94588 0.13277 0.97576 0.0
O15 O 0.11065 0.12557 0.98399 0.0
C16 C 0.0268 0.01268 0.09959 0.0
C17 C 0.0146 0.99068 0.90764 0.0
C18 C 0.86799 0.89311 0.01469 0.0
C19 C 0.1251 0.85514 1.00113 0.0
C20 C 0.89543 0.13675 0.99618 0.0
C21 C 0.16157 0.1127 0.00288 0.0
O22 O 0.97184 0.028 0.08456 0.0
O23 O 0.5355 0.47425 0.58543 0.0
Zn24 Zn 0.5616 0.47684 0.53516 0.0
O25 O 0.4847 0.49581 0.50536 0.0
Zn26 Zn 0.4688 0.42205 0.47391 0.0
Zn27 Zn 0.40533 0.50959 0.53443 0.0
Zn28 Zn 0.50309 0.574 0.4782 0.0
O29 O 0.46403 0.45135 0.42443 0.0
O30 O 0.50095 0.55372 0.42685 0.0
O31 O 0.60791 0.39318 0.52105 0.0
O32 O 0.54656 0.35895 0.47629 0.0
O33 O 0.3829 0.37375 0.48597 0.0
O34 O 0.33888 0.43733 0.52706 0.0
O35 O 0.3597 0.59484 0.5237 0.0
O36 O 0.6306 0.54752 0.53143 0.0
O37 O 0.43084 0.64169 0.48696 0.0
O38 O 0.59347 0.61394 0.49062 0.0
C39 C 0.48143 0.48969 0.60143 0.0
C40 C 0.4814 0.5039 0.40949 0.0
C41 C 0.33629 0.38662 0.50778 0.0
C42 C 0.5971 0.35274 0.49641 0.0
C43 C 0.37665 0.64279 0.50485 0.0
C44 C 0.63781 0.59792 0.51286 0.0
O45 O 0.4284 0.50684 0.58522 0.0
C46 C 0.04361 0.96083 0.26765 0.0
C47 C 0.03433 0.01901 0.24935 0.0
C48 C 0.04096 0.96087 0.30383 0.0
C49 C 0.02967 0.01926 0.3225 0.0
C50 C 0.02197 0.07765 0.30405 0.0
C51 C 0.02385 0.07744 0.26793 0.0
C52 C 0.02478 0.01948 0.361 0.0
C53 C 0.06615 0.97889 0.38093 0.0
C54 C 0.06159 0.97963 0.41719 0.0
C55 C 0.01614 0.0221 0.43383 0.0
C56 C 0.97327 0.0622 0.41436 0.0
C57 C 0.97774 0.05999 0.378 0.0
C58 C 0.92188 0.10478 0.43141 0.0
C59 C 0.88529 0.08341 0.46048 0.0
C60 C 0.90615 0.16591 0.41728 0.0
C61 C 0.85269 0.20285 0.43045 0.0
C62 C 0.81469 0.18028 0.45851 0.0
C63 C 0.10278 0.9337 0.43733 0.0
C64 C 0.09681 0.86645 0.43085 0.0
C65 C 0.14996 0.95641 0.4618 0.0
C66 C 0.19294 0.91235 0.47834 0.0
C67 C 0.1879 0.84507 0.47121 0.0
C68 C 0.13858 0.82246 0.44787 0.0
C69 C 0.83235 0.12119 0.47408 0.0
H70 H 0.05108 0.91496 0.25395 0.0
H71 H 0.04615 0.91484 0.31706 0.0
H72 H 0.0147 0.12377 0.31752 0.0
H73 H 0.01748 0.12315 0.25448 0.0
H74 H 0.10274 0.9471 0.3684 0.0
H75 H 0.94293 0.08853 0.36273 0.0
H76 H 0.01351 0.0229 0.46185 0.0
H77 H 0.89565 0.03644 0.47191 0.0
H78 H 0.93441 0.18485 0.39558 0.0
H79 H 0.84044 0.24892 0.41845 0.0
H80 H 0.06043 0.84804 0.41219 0.0
H81 H 0.15515 0.00823 0.46714 0.0
H82 H 0.80353 0.10309 0.49582 0.0
H83 H 0.13422 0.77089 0.4417 0.0
H84 H 0.23066 0.93075 0.49628 0.0
C85 C -0.00063 0.03809 0.73866 0.0
C86 C 0.01503 0.98158 0.7574 0.0
C87 C -0.001 0.03686 0.7025 0.0
C88 C 0.01393 0.97902 0.68415 0.0
C89 C 0.02926 0.9224 0.70279 0.0
C90 C 0.02996 0.92369 0.73899 0.0
C91 C 0.01297 0.97775 0.64568 0.0
C92 C 0.04138 0.02926 0.62683 0.0
C93 C 0.03987 0.02852 0.59051 0.0
C94 C 0.00875 0.97665 0.57284 0.0
C95 C 0.97923 0.92548 0.59128 0.0
C96 C 0.98234 0.92571 0.6276 0.0
C97 C 0.94066 0.87417 0.57289 0.0
C98 C 0.88771 0.89141 0.55068 0.0
C99 C 0.9531 0.80809 0.57939 0.0
C100 C 0.91132 0.75998 0.56504 0.0
C101 C 0.85531 0.77721 0.54459 0.0
C102 C 0.07137 0.08204 0.57114 0.0
C103 C 0.0501 0.14649 0.57675 0.0
C104 C 0.12527 0.06931 0.54846 0.0
C105 C 0.16061 0.12089 0.53347 0.0
C106 C 0.14177 0.18606 0.54045 0.0
C107 C 0.08432 0.19796 0.56116 0.0
C108 C 0.8451 0.84346 0.53686 0.0
H109 H 0.98637 0.08322 0.75193 0.0
H110 H 0.98588 0.08103 0.6889 0.0
H111 H 0.04173 0.87726 0.68938 0.0
H112 H 0.04323 0.87951 0.75252 0.0
H113 H 0.06604 0.06938 0.64034 0.0
H114 H 0.95821 0.88672 0.64181 0.0
H115 H 0.00667 0.97659 0.54479 0.0
H116 H 0.87706 0.94226 0.54548 0.0
H117 H -0.00567 0.7938 0.59612 0.0
H118 H 0.92188 0.70939 0.57079 0.0
H119 H 0.00775 0.15705 0.59373 0.0
H120 H 0.14219 0.01968 0.54376 0.0
H121 H 0.80216 0.85885 0.52163 0.0
H122 H 0.06688 0.24725 0.56625 0.0
H123 H 0.20476 0.10954 0.51794 0.0
C124 C 0.45605 0.42127 0.76698 0.0
C125 C 0.4775 0.47842 0.75051 0.0
C126 C 0.45639 0.4177 0.80307 0.0
C127 C 0.47664 0.47177 0.82317 0.0
C128 C 0.49732 0.52919 0.80671 0.0
C129 C 0.49852 0.53222 0.7706 0.0
C130 C 0.47611 0.46827 0.86129 0.0
C131 C 0.51505 0.42132 0.87822 0.0
C132 C 0.51569 0.41811 0.91462 0.0
C133 C 0.47468 0.46135 0.93381 0.0
C134 C 0.43654 0.50914 0.91703 0.0
C135 C 0.43781 0.51272 0.88082 0.0
C136 C 0.39644 0.5568 0.93712 0.0
C137 C 0.34537 0.53592 0.9597 0.0
C138 C 0.40688 0.62379 0.93224 0.0
C139 C 0.3654 0.66937 0.94879 0.0
C140 C 0.31215 0.64865 0.97008 0.0
C141 C 0.56318 0.37319 0.93224 0.0
C142 C 0.57818 0.31174 0.91758 0.0
C143 C 0.59852 0.3937 0.96211 0.0
C144 C 0.65017 0.3552 0.97573 0.0
C145 C 0.66787 0.29617 0.95944 0.0
C146 C 0.63048 0.27396 0.93083 0.0
C147 C 0.30295 0.58161 0.97583 0.0
H148 H 0.4399 0.37918 0.75189 0.0
H149 H 0.4401 0.37305 0.81533 0.0
H150 H 0.51333 0.57134 0.8218 0.0
H151 H 0.5151 0.57678 0.75834 0.0
H152 H 0.54712 0.38933 0.86286 0.0
H153 H 0.40803 0.54947 0.8678 0.0
H154 H 0.47361 0.45912 0.96182 0.0
H155 H 0.33661 0.48434 0.9637 0.0
H156 H 0.44634 0.64076 0.91506 0.0
H157 H 0.37303 0.72076 0.94369 0.0
H158 H 0.55083 0.29357 0.89519 0.0
H159 H 0.58885 0.44094 0.97396 0.0
H160 H 0.26218 0.56464 0.99218 0.0
H161 H 0.64286 0.22795 0.91823 0.0
H162 H 0.6786 0.37311 0.99783 0.0
C163 C 0.47141 0.56729 0.24099 0.0
C164 C 0.48262 0.50945 0.25942 0.0
C165 C 0.4746 0.56736 0.20483 0.0
C166 C 0.48871 0.50952 0.18628 0.0
C167 C 0.49958 0.45168 0.20466 0.0
C168 C 0.49675 0.45166 0.24077 0.0
C169 C 0.49351 0.5094 0.14792 0.0
C170 C 0.52895 0.55888 0.13084 0.0
C171 C 0.53689 0.55686 0.09475 0.0
C172 C 0.50874 0.50512 0.07553 0.0
C173 C 0.47166 0.45596 0.09206 0.0
C174 C 0.46429 0.45867 0.12829 0.0
C175 C 0.43932 0.40241 0.07174 0.0
C176 C 0.40792 0.41478 0.03982 0.0
C177 C 0.43639 0.33901 0.08513 0.0
C178 C 0.39916 0.29034 0.06836 0.0
C179 C 0.36474 0.3034 0.03737 0.0
C180 C 0.57677 0.60797 0.07744 0.0
C181 C 0.56311 0.67409 0.08412 0.0
C182 C 0.63094 0.59093 0.05568 0.0
C183 C 0.67302 0.63926 0.04225 0.0
C184 C 0.6611 0.70559 0.04999 0.0
C185 C 0.60446 0.72245 0.07028 0.0
C186 C 0.37131 0.36568 0.02274 0.0
H187 H 0.45944 0.61247 0.25447 0.0
H188 H 0.46531 0.61255 0.19135 0.0
H189 H 0.51169 0.40656 0.19114 0.0
H190 H 0.50695 0.40649 0.25408 0.0
H191 H 0.55263 0.59781 0.14574 0.0
H192 H 0.43457 0.42191 0.14134 0.0
H193 H 0.5158 0.50333 0.04772 0.0
H194 H 0.40913 0.46305 0.02868 0.0
H195 H 0.46142 0.32727 0.10918 0.0
H196 H 0.39494 0.24333 0.0807 0.0
H197 H 0.5209 0.68829 0.10044 0.0
H198 H 0.64254 0.54011 0.05032 0.0
H199 H 0.3466 0.37711 0.99857 0.0
H200 H 0.59273 0.77305 0.07606 0.0
H201 H 0.71653 0.62433 0.02709 0.0
C202 C 0.28112 0.14074 0.01761 0.0
C203 C 0.2171 0.16057 0.00611 0.0
H204 H 0.37933 0.17002 0.0348 0.0
C205 C 0.20507 0.2272 1.00062 0.0
H206 H 0.29218 0.08954 0.0215 0.0
C207 C 0.25444 0.27355 0.00904 0.0
C208 C 0.31725 0.25408 0.02259 0.0
H209 H 0.15612 0.24389 0.99179 0.0
H210 H 0.24167 0.32472 0.0068 0.0
C211 C 0.33091 0.18694 0.0254 0.0
C212 C 0.23984 0.80516 0.0068 0.0
C213 C 0.17129 0.79883 0.9977 0.0
H214 H 0.3385 0.76191 0.00521 0.0
C215 C 0.14844 0.73969 0.98306 0.0
H216 H 0.25898 0.85006 0.0182 0.0
C217 C 0.19385 0.68906 0.97611 0.0
C218 C 0.26296 0.69705 0.98326 0.0
H219 H 0.09582 0.73318 0.97603 0.0
H220 H 0.17551 0.64506 0.96342 0.0
C221 C 0.28538 0.75487 0.99937 0.0
C222 C 0.79494 0.79691 0.99897 0.0
C223 C 0.81168 0.84781 0.02212 0.0
H224 H 0.73279 0.71313 0.98906 0.0
C225 C 0.77597 0.85357 0.05344 0.0
H226 H 0.8212 0.79145 0.97451 0.0
C227 C 0.72628 0.80827 0.062 0.0
C228 C 0.71032 0.75643 0.03928 0.0
H229 H 0.78779 0.89197 0.07197 0.0
H230 H 0.70212 0.81276 0.08707 0.0
C231 C 0.74452 0.75185 0.0074 0.0
C232 C 0.8359 0.21017 0.95525 0.0
C233 C 0.84082 0.18356 0.9885 0.0
H234 H 0.77644 0.26606 0.92008 0.0
C235 C 0.79004 0.1977 0.01301 0.0
H236 H 0.87395 0.2001 0.93572 0.0
C237 C 0.73448 0.23624 0.00404 0.0
C238 C 0.72841 0.25993 0.97029 0.0
H239 H 0.79258 0.17797 0.03885 0.0
H240 H 0.69521 0.24563 0.02301 0.0
C241 C 0.77995 0.2475 0.94617 0.0
C242 C 0.7148 0.68953 0.49556 0.0
C243 C 0.6971 0.64042 0.51899 0.0
H244 H 0.78045 0.76978 0.48451 0.0
C245 C 0.7349 0.63382 0.54949 0.0
H246 H 0.68699 0.69539 0.47167 0.0
C247 C 0.78735 0.677 0.55717 0.0
C248 C 0.80419 0.72737 0.53429 0.0
H249 H 0.72241 0.59672 0.56821 0.0
H250 H 0.81274 0.67229 0.58182 0.0
C251 C 0.76815 0.7323 0.50303 0.0
C252 C 0.64977 0.27189 0.45579 0.0
C253 C 0.64801 0.3017 0.48871 0.0
H254 H 0.70472 0.21034 0.42052 0.0
C255 C 0.69878 0.28646 0.51283 0.0
H256 H 0.61162 0.28257 0.43658 0.0
C257 C 0.75165 0.24424 0.50366 0.0
C258 C 0.75502 0.21768 0.47011 0.0
H259 H 0.69864 0.30848 0.53844 0.0
H260 H 0.79138 0.23465 0.5222 0.0
C261 C 0.7031 0.23077 0.4465 0.0
C262 C 0.24159 0.34382 0.54355 0.0
C263 C 0.28114 0.3391 0.51343 0.0
H264 H 0.16875 0.29904 0.5761 0.0
C265 C 0.27049 0.28631 0.49053 0.0
H266 H 0.24865 0.38361 0.56191 0.0
C267 C 0.22289 0.23799 0.49832 0.0
C268 C 0.18574 0.24108 0.5294 0.0
H269 H 0.29982 0.28162 0.46695 0.0
H270 H 0.21624 0.19765 0.4803 0.0
C271 C 0.19504 0.29527 0.55158 0.0
C272 C 0.26082 0.69141 0.50916 0.0
C273 C 0.32986 0.69862 0.50129 0.0
H274 H 0.16142 0.73266 0.5057 0.0
C275 C 0.35254 0.75779 0.48725 0.0
H276 H 0.24174 0.64644 0.51999 0.0
C277 C 0.30663 0.80743 0.47964 0.0
C278 C 0.23719 0.79833 0.48543 0.0
H279 H 0.40549 0.76495 0.48112 0.0
H280 H 0.32494 0.8514 0.46742 0.0
C281 C 0.21481 0.74059 0.50098 0.0
C282 C 0.9802 0.04938 0.1569 0.0
C283 C 0.03024 0.01592 0.13787 0.0
H284 H 0.94252 0.07665 0.20698 0.0
C285 C 0.08244 0.98431 0.15583 0.0
H286 H 0.93933 0.07431 0.14391 0.0
C287 C 0.08387 0.98525 0.19203 0.0
C288 C 0.03371 0.0186 0.21097 0.0
H289 H 0.12167 0.95795 0.14197 0.0
H290 H 0.12445 0.96024 0.20522 0.0
C291 C 0.98217 0.05102 0.19303 0.0
C292 C 0.9908 0.93245 0.8513 0.0
C293 C 0.01567 0.98755 0.86925 0.0
H294 H 0.96998 0.88773 0.80211 0.0
C295 C 0.04105 0.04019 0.8501 0.0
H296 H 0.97065 0.89113 0.86518 0.0
C297 C 0.04127 0.03798 0.81395 0.0
C298 C 0.01581 0.9832 0.79595 0.0
H299 H 0.06101 0.0833 0.86301 0.0
H300 H 0.06204 0.07909 0.80012 0.0
C301 C 0.99077 0.93037 0.81509 0.0
C302 C 0.41931 0.47592 0.65734 0.0
C303 C 0.48021 0.48738 0.63961 0.0
H304 H 0.3712 0.46287 0.7066 0.0
C305 C 0.54011 0.49617 0.65867 0.0
H306 H 0.37247 0.46867 0.64328 0.0
C307 C 0.539 0.49417 0.69479 0.0
C308 C 0.47833 0.48176 0.71239 0.0
H309 H 0.5877 0.50535 0.64567 0.0
H310 H 0.58568 0.50139 0.709 0.0
C311 C 0.41856 0.47233 0.69344 0.0
C312 C 0.50706 0.56023 0.35356 0.0
C313 C 0.47985 0.50651 0.37116 0.0
H314 H 0.53034 0.60287 0.30467 0.0
C315 C 0.45208 0.45461 0.35172 0.0
H316 H 0.52906 0.60097 0.36769 0.0
C317 C 0.45215 0.45605 0.31559 0.0
C318 C 0.48035 0.50923 0.29793 0.0
H319 H 0.43023 0.41266 0.36438 0.0
H320 H 0.42975 0.41548 0.3015 0.0
C321 C 0.50744 0.5615 0.31738 0.0
loop_
_geom_bond_atom_site_label_1
_geom_bond_atom_site_label_2
_geom_bond_distance
_geom_bond_site_symmetry_2
_ccdc_geom_bond_type
O0 Zn1 1.953 . S
O0 C16 1.225 1_565 S
Zn1 O0 1.953 . S
Zn1 O2 1.949 1_565 S
Zn1 O8 1.919 . S
Zn1 O13 1.924 1_565 S
O2 Zn1 1.949 1_545 S
O2 Zn3 1.923 1_444 S
O2 Zn4 1.950 1_455 S
O2 Zn5 1.945 1_554 S
Zn3 O2 1.923 1_666 S
Zn3 O6 1.933 . S
Zn3 O9 1.941 1_655 S
Zn3 O10 1.965 . S
Zn4 O2 1.950 1_655 S
Zn4 O11 1.938 1_545 S
Zn4 O12 1.906 . S
Zn4 O22 1.953 . S
Zn5 O2 1.945 1_556 S
Zn5 O7 1.932 . S
Zn5 O14 1.977 1_455 S
Zn5 O15 1.910 . S
O6 Zn3 1.933 . S
O6 C17 1.226 1_665 S
O7 Zn5 1.932 . S
O7 C17 1.307 . S
O8 Zn1 1.919 . S
O8 C19 1.253 1_554 S
O9 Zn3 1.941 1_455 S
O9 C19 1.283 . S
O10 Zn3 1.965 . S
O10 C18 1.303 1_556 S
O11 Zn4 1.938 1_565 S
O11 C18 1.247 . S
O12 Zn4 1.906 . S
O12 C20 1.304 1_554 S
O13 Zn1 1.924 1_545 S
O13 C21 1.311 . S
O14 Zn5 1.977 1_655 S
O14 C20 1.272 . S
O15 Zn5 1.910 . S
O15 C21 1.231 1_556 S
C16 O0 1.225 1_545 S
C16 O22 1.298 1_455 S
C17 O6 1.226 1_445 S
C17 O7 1.307 . S
C18 O10 1.303 1_554 S
C18 O11 1.247 . S
C19 O8 1.253 1_556 S
C19 O9 1.283 . S
C20 O12 1.304 1_556 S
C20 O14 1.272 . S
C21 O13 1.311 . S
C21 O15 1.231 1_554 S
O22 Zn4 1.953 . S
O22 C16 1.298 1_655 S
O23 Zn24 1.953 . S
O23 C39 1.225 . S
Zn24 O23 1.953 . S
Zn24 O25 1.949 . S
Zn24 O31 1.919 . S
Zn24 O36 1.924 . S
O25 Zn24 1.949 . S
O25 Zn26 1.923 . S
O25 Zn27 1.950 . S
O25 Zn28 1.945 . S
Zn26 O25 1.923 . S
Zn26 O29 1.933 . S
Zn26 O32 1.941 . S
Zn26 O33 1.965 . S
Zn27 O25 1.950 . S
Zn27 O34 1.938 . S
Zn27 O35 1.906 . S
Zn27 O45 1.953 . S
Zn28 O25 1.945 . S
Zn28 O30 1.932 . S
Zn28 O37 1.977 . S
Zn28 O38 1.910 . S
O29 Zn26 1.933 . S
O29 C40 1.226 . S
O30 Zn28 1.932 . S
O30 C40 1.307 . S
O31 Zn24 1.919 . S
O31 C42 1.253 . S
O32 Zn26 1.941 . S
O32 C42 1.283 . S
O33 Zn26 1.965 . S
O33 C41 1.303 . S
O34 Zn27 1.938 . S
O34 C41 1.247 . S
O35 Zn27 1.906 . S
O35 C43 1.304 . S
O36 Zn24 1.924 . S
O36 C44 1.311 . S
O37 Zn28 1.977 . S
O37 C43 1.272 . S
O38 Zn28 1.910 . S
O38 C44 1.231 . S
C39 O23 1.225 . S
C39 O45 1.298 . S
C40 O29 1.226 . S
C40 O30 1.307 . S
C41 O33 1.303 . S
C41 O34 1.247 . S
C42 O31 1.253 . S
C42 O32 1.283 . S
C43 O35 1.304 . S
C43 O37 1.272 . S
C44 O36 1.311 . S
C44 O38 1.231 . S
O45 Zn27 1.953 . S
O45 C39 1.298 . S
C46 C47 1.394 1_455 S
C46 C48 1.397 . S
C46 H70 0.931 . S
C47 C46 1.394 1_655 S
C47 C51 1.389 1_665 S
C48 C46 1.397 . S
C48 C49 1.384 . S
C48 H71 0.930 . S
C49 C48 1.384 . S
C49 C50 1.377 1_565 S
C49 C52 1.481 . S
C50 C49 1.377 1_545 S
C50 C51 1.389 . S
C50 H72 0.929 . S
C51 C47 1.389 1_445 S
C51 C50 1.389 . S
C51 H73 0.931 . S
C52 C49 1.481 . S
C52 C53 1.394 . S
C52 C57 1.383 1_465 S
C53 C52 1.394 . S
C53 C54 1.401 . S
C53 H74 0.930 . S
C54 C53 1.401 . S
C54 C55 1.376 1_455 S
C54 C63 1.511 . S
C55 C54 1.376 1_655 S
C55 C56 1.392 1_565 S
C55 H76 0.931 . S
C56 C55 1.392 1_545 S
C56 C57 1.361 . S
C56 C58 1.500 . S
C57 C52 1.383 1_645 S
C57 C56 1.361 . S
C57 H75 0.931 . S
C58 C56 1.500 . S
C58 C59 1.371 . S
C58 C60 1.365 . S
C59 C58 1.371 . S
C59 C69 1.386 . S
C59 H77 0.931 . S
C60 C58 1.365 . S
C60 C61 1.409 . S
C60 H78 0.929 . S
C61 C60 1.409 . S
C61 C62 1.380 . S
C61 H79 0.930 . S
C62 C61 1.380 . S
C62 C69 1.357 . S
C63 C54 1.511 . S
C63 C64 1.341 . S
C63 C65 1.371 . S
C64 C63 1.341 . S
C64 C68 1.394 . S
C64 H80 0.930 . S
C65 C63 1.371 . S
C65 C66 1.392 . S
C65 H81 0.931 . S
C66 C65 1.392 . S
C66 C67 1.331 . S
C66 H84 0.932 . S
C67 C66 1.331 . S
C67 C68 1.336 . S
C68 C64 1.394 . S
C68 C67 1.336 . S
C68 H83 0.929 . S
C69 C59 1.386 . S
C69 C62 1.357 . S
C69 H82 0.928 . S
H70 C46 0.931 . S
H71 C48 0.930 . S
H72 C50 0.929 . S
H73 C51 0.931 . S
H74 C53 0.930 . S
H75 C57 0.931 . S
H76 C55 0.931 . S
H77 C59 0.931 . S
H78 C60 0.929 . S
H79 C61 0.930 . S
H80 C64 0.930 . S
H81 C65 0.931 . S
H82 C69 0.928 . S
H83 C68 0.929 . S
H84 C66 0.932 . S
C85 C86 1.386 . S
C85 C87 1.397 . S
C85 H109 0.931 . S
C86 C85 1.386 . S
C86 C90 1.397 1_545 S
C87 C85 1.397 . S
C87 C88 1.384 . S
C87 H110 0.930 . S
C88 C87 1.384 . S
C88 C89 1.377 1_545 S
C88 C91 1.481 . S
C89 C88 1.377 1_565 S
C89 C90 1.389 . S
C89 H111 0.929 . S
C90 C86 1.397 1_565 S
C90 C89 1.389 . S
C90 H112 0.931 . S
C91 C88 1.481 . S
C91 C92 1.387 . S
C91 C96 1.390 1_445 S
C92 C91 1.387 . S
C92 C93 1.401 . S
C92 H113 0.930 . S
C93 C92 1.401 . S
C93 C94 1.376 . S
C93 C102 1.511 . S
C94 C93 1.376 . S
C94 C95 1.392 1_445 S
C94 H115 0.931 . S
C95 C94 1.392 1_665 S
C95 C96 1.361 . S
C95 C97 1.500 . S
C96 C91 1.390 1_665 S
C96 C95 1.361 . S
C96 H114 0.931 . S
C97 C95 1.500 . S
C97 C98 1.371 . S
C97 C99 1.365 . S
C98 C97 1.371 . S
C98 C108 1.386 . S
C98 H116 0.931 . S
C99 C97 1.365 . S
C99 C100 1.409 . S
C99 H117 0.929 . S
C100 C99 1.409 . S
C100 C101 1.380 . S
C100 H118 0.930 . S
C101 C100 1.380 . S
C101 C108 1.357 . S
C102 C93 1.511 . S
C102 C103 1.341 . S
C102 C104 1.371 . S
C103 C102 1.341 . S
C103 C107 1.394 . S
C103 H119 0.930 . S
C104 C102 1.371 . S
C104 C105 1.392 . S
C104 H120 0.931 . S
C105 C104 1.392 . S
C105 C106 1.331 . S
C105 H123 0.932 . S
C106 C105 1.331 . S
C106 C107 1.336 . S
C107 C103 1.394 . S
C107 C106 1.336 . S
C107 H122 0.929 . S
C108 C98 1.386 . S
C108 C101 1.357 . S
C108 H121 0.928 . S
H109 C85 0.931 . S
H110 C87 0.930 . S
H111 C89 0.929 . S
H112 C90 0.931 . S
H113 C92 0.930 . S
H114 C96 0.931 . S
H115 C94 0.931 . S
H116 C98 0.931 . S
H117 C99 0.929 . S
H118 C100 0.930 . S
H119 C103 0.930 . S
H120 C104 0.931 . S
H121 C108 0.928 . S
H122 C107 0.929 . S
H123 C105 0.932 . S
C124 C125 1.386 . S
C124 C126 1.397 . S
C124 H148 0.931 . S
C125 C124 1.386 . S
C125 C129 1.397 . S
C126 C124 1.397 . S
C126 C127 1.384 . S
C126 H149 0.930 . S
C127 C126 1.384 . S
C127 C128 1.377 . S
C127 C130 1.481 . S
C128 C127 1.377 . S
C128 C129 1.389 . S
C128 H150 0.929 . S
C129 C125 1.397 . S
C129 C128 1.389 . S
C129 H151 0.931 . S
C130 C127 1.481 . S
C130 C131 1.387 . S
C130 C135 1.390 . S
C131 C130 1.387 . S
C131 C132 1.401 . S
C131 H152 0.930 . S
C132 C131 1.401 . S
C132 C133 1.376 . S
C132 C141 1.511 . S
C133 C132 1.376 . S
C133 C134 1.392 . S
C133 H154 0.931 . S
C134 C133 1.392 . S
C134 C135 1.361 . S
C134 C136 1.500 . S
C135 C130 1.390 . S
C135 C134 1.361 . S
C135 H153 0.931 . S
C136 C134 1.500 . S
C136 C137 1.371 . S
C136 C138 1.365 . S
C137 C136 1.371 . S
C137 C147 1.386 . S
C137 H155 0.931 . S
C138 C136 1.365 . S
C138 C139 1.409 . S
C138 H156 0.929 . S
C139 C138 1.409 . S
C139 C140 1.380 . S
C139 H157 0.930 . S
C140 C139 1.380 . S
C140 C147 1.357 . S
C141 C132 1.511 . S
C141 C142 1.341 . S
C141 C143 1.371 . S
C142 C141 1.341 . S
C142 C146 1.394 . S
C142 H158 0.930 . S
C143 C141 1.371 . S
C143 C144 1.392 . S
C143 H159 0.931 . S
C144 C143 1.392 . S
C144 C145 1.331 . S
C144 H162 0.900 1_556 S
C145 C144 1.331 . S
C145 C146 1.336 . S
C146 C142 1.394 . S
C146 C145 1.336 . S
C146 H161 0.929 . S
C147 C137 1.386 . S
C147 C140 1.357 . S
C147 H160 0.928 . S
H148 C124 0.931 . S
H149 C126 0.930 . S
H150 C128 0.929 . S
H151 C129 0.931 . S
H152 C131 0.930 . S
H153 C135 0.931 . S
H154 C133 0.931 . S
H155 C137 0.931 . S
H156 C138 0.929 . S
H157 C139 0.930 . S
H158 C142 0.930 . S
H159 C143 0.931 . S
H160 C147 0.928 . S
H161 C146 0.929 . S
H162 C144 0.900 1_554 S
C163 C164 1.386 . S
C163 C165 1.397 . S
C163 H187 0.931 . S
C164 C163 1.386 . S
C164 C168 1.397 . S
C165 C163 1.397 . S
C165 C166 1.384 . S
C165 H188 0.930 . S
C166 C165 1.384 . S
C166 C167 1.377 . S
C166 C169 1.481 . S
C167 C166 1.377 . S
C167 C168 1.389 . S
C167 H189 0.929 . S
C168 C164 1.397 . S
C168 C167 1.389 . S
C168 H190 0.931 . S
C169 C166 1.481 . S
C169 C170 1.387 . S
C169 C174 1.390 . S
C170 C169 1.387 . S
C170 C171 1.401 . S
C170 H191 0.930 . S
C171 C170 1.401 . S
C171 C172 1.376 . S
C171 C180 1.511 . S
C172 C171 1.376 . S
C172 C173 1.392 . S
C172 H193 0.931 . S
C173 C172 1.392 . S
C173 C174 1.361 . S
C173 C175 1.500 . S
C174 C169 1.390 . S
C174 C173 1.361 . S
C174 H192 0.931 . S
C175 C173 1.500 . S
C175 C176 1.371 . S
C175 C177 1.365 . S
C176 C175 1.371 . S
C176 C186 1.386 . S
C176 H194 0.931 . S
C177 C175 1.365 . S
C177 C178 1.409 . S
C177 H195 0.929 . S
C178 C177 1.409 . S
C178 C179 1.380 . S
C178 H196 0.930 . S
C179 C178 1.380 . S
C179 C186 1.357 . S
C180 C171 1.511 . S
C180 C181 1.341 . S
C180 C182 1.371 . S
C181 C180 1.341 . S
C181 C185 1.394 . S
C181 H197 0.930 . S
C182 C180 1.371 . S
C182 C183 1.392 . S
C182 H198 0.931 . S
C183 C182 1.392 . S
C183 C184 1.331 . S
C183 H201 0.932 . S
C184 C183 1.331 . S
C184 C185 1.336 . S
C185 C181 1.394 . S
C185 C184 1.336 . S
C185 H200 0.929 . S
C186 C176 1.386 . S
C186 C179 1.357 . S
C186 H199 0.928 . S
H187 C163 0.931 . S
H188 C165 0.930 . S
H189 C167 0.929 . S
H190 C168 0.931 . S
H191 C170 0.930 . S
H192 C174 0.931 . S
H193 C172 0.931 . S
H194 C176 0.931 . S
H195 C177 0.929 . S
H196 C178 0.930 . S
H197 C181 0.930 . S
H198 C182 0.931 . S
H199 C186 0.928 . S
H200 C185 0.929 . S
H201 C183 0.932 . S
C202 C203 1.387 . S
C202 H206 0.950 1_554 S
C202 C211 1.390 . S
C203 C202 1.387 . S
C203 C205 1.387 . S
H204 C211 0.950 1_556 S
C205 C203 1.387 . S
C205 C207 1.390 . S
C205 H209 0.950 . S
H206 C202 0.950 1_556 S
C207 C205 1.390 . S
C207 C208 1.387 . S
C207 H210 0.950 . S
C208 C207 1.387 . S
C208 C211 1.387 . S
H209 C205 0.950 . S
H210 C207 0.950 . S
C211 C202 1.390 . S
C211 H204 0.950 1_554 S
C211 C208 1.387 . S
C212 C213 1.387 1_554 S
C212 H216 0.950 . S
C212 C221 1.390 . S
C213 C212 1.387 1_556 S
C213 C215 1.387 . S
H214 C221 0.950 . S
C215 C213 1.387 . S
C215 C217 1.390 . S
C215 H219 0.950 . S
H216 C212 0.950 . S
C217 C215 1.390 . S
C217 C218 1.387 . S
C217 H220 0.950 . S
C218 C217 1.387 . S
C218 C221 1.387 1_556 S
H219 C215 0.950 . S
H220 C217 0.950 . S
C221 C212 1.390 . S
C221 H214 0.950 . S
C221 C218 1.387 1_554 S
C222 C223 1.387 1_556 S
C222 H226 0.950 . S
C222 C231 1.394 . S
C223 C222 1.387 1_554 S
C223 C225 1.387 . S
H224 C231 0.975 . S
C225 C223 1.387 . S
C225 C227 1.390 . S
C225 H229 0.950 . S
H226 C222 0.950 . S
C227 C225 1.390 . S
C227 C228 1.387 . S
C227 H230 0.950 . S
C228 C227 1.387 . S
C228 C231 1.359 1_554 S
H229 C225 0.950 . S
H230 C227 0.950 . S
C231 C222 1.394 . S
C231 H224 0.975 . S
C231 C228 1.359 1_556 S
C232 C233 1.387 . S
C232 H236 0.950 . S
C232 C241 1.390 . S
C233 C232 1.387 . S
C233 C235 1.387 1_556 S
H234 C241 0.950 . S
C235 C233 1.387 1_554 S
C235 C237 1.390 . S
C235 H239 0.950 . S
H236 C232 0.950 . S
C237 C235 1.390 . S
C237 C238 1.387 1_554 S
C237 H240 0.950 . S
C238 C237 1.387 1_556 S
C238 C241 1.387 . S
H239 C235 0.950 . S
H240 C237 0.950 . S
C241 C232 1.390 . S
C241 H234 0.950 . S
C241 C238 1.387 . S
C242 C243 1.387 . S
C242 H246 0.950 . S
C242 C251 1.390 . S
C243 C242 1.387 . S
C243 C245 1.387 . S
H244 C251 0.950 . S
C245 C243 1.387 . S
C245 C247 1.390 . S
C245 H249 0.950 . S
H246 C242 0.950 . S
C247 C245 1.390 . S
C247 C248 1.387 . S
C247 H250 0.950 . S
C248 C247 1.387 . S
C248 C251 1.387 . S
H249 C245 0.950 . S
H250 C247 0.950 . S
C251 C242 1.390 . S
C251 H244 0.950 . S
C251 C248 1.387 . S
C252 C253 1.387 . S
C252 H256 0.950 . S
C252 C261 1.390 . S
C253 C252 1.387 . S
C253 C255 1.387 . S
H254 C261 0.950 . S
C255 C253 1.387 . S
C255 C257 1.390 . S
C255 H259 0.950 . S
H256 C252 0.950 . S
C257 C255 1.390 . S
C257 C258 1.387 . S
C257 H260 0.950 . S
C258 C257 1.387 . S
C258 C261 1.387 . S
H259 C255 0.950 . S
H260 C257 0.950 . S
C261 C252 1.390 . S
C261 H254 0.950 . S
C261 C258 1.387 . S
C262 C263 1.387 . S
C262 H266 0.950 . S
C262 C271 1.390 . S
C263 C262 1.387 . S
C263 C265 1.387 . S
H264 C271 0.950 . S
C265 C263 1.387 . S
C265 C267 1.390 . S
C265 H269 0.950 . S
H266 C262 0.950 . S
C267 C265 1.390 . S
C267 C268 1.387 . S
C267 H270 0.950 . S
C268 C267 1.387 . S
C268 C271 1.387 . S
H269 C265 0.950 . S
H270 C267 0.950 . S
C271 C262 1.390 . S
C271 H264 0.950 . S
C271 C268 1.387 . S
C272 C273 1.387 . S
C272 H276 0.950 . S
C272 C281 1.390 . S
C273 C272 1.387 . S
C273 C275 1.387 . S
H274 C281 0.950 . S
C275 C273 1.387 . S
C275 C277 1.390 . S
C275 H279 0.950 . S
H276 C272 0.950 . S
C277 C275 1.390 . S
C277 C278 1.387 . S
C277 H280 0.950 . S
C278 C277 1.387 . S
C278 C281 1.387 . S
H279 C275 0.950 . S
H280 C277 0.950 . S
C281 C272 1.390 . S
C281 H274 0.950 . S
C281 C278 1.387 . S
C282 C283 1.387 1_655 S
C282 H286 0.950 . S
C282 C291 1.390 . S
C283 C282 1.387 1_455 S
C283 C285 1.387 1_545 S
H284 C291 0.950 . S
C285 C283 1.387 1_565 S
C285 C287 1.390 . S
C285 H289 0.950 . S
H286 C282 0.950 . S
C287 C285 1.390 . S
C287 C288 1.391 1_565 S
C287 H290 0.950 . S
C288 C287 1.391 1_545 S
C288 C291 1.385 1_455 S
H289 C285 0.950 . S
H290 C287 0.950 . S
C291 C282 1.390 . S
C291 H284 0.950 . S
C291 C288 1.385 1_655 S
C292 C293 1.387 1_665 S
C292 H296 0.950 . S
C292 C301 1.390 . S
C293 C292 1.387 1_445 S
C293 C295 1.387 . S
H294 C301 0.950 . S
C295 C293 1.387 . S
C295 C297 1.390 . S
C295 H299 0.950 . S
H296 C292 0.950 . S
C297 C295 1.390 . S
C297 C298 1.387 . S
C297 H300 0.950 . S
C298 C297 1.387 . S
C298 C301 1.387 1_445 S
H299 C295 0.950 . S
H300 C297 0.950 . S
C301 C292 1.390 . S
C301 H294 0.950 . S
C301 C298 1.387 1_665 S
C302 C303 1.387 . S
C302 H306 0.950 . S
C302 C311 1.390 . S
C303 C302 1.387 . S
C303 C305 1.387 . S
H304 C311 0.950 . S
C305 C303 1.387 . S
C305 C307 1.390 . S
C305 H309 0.950 . S
H306 C302 0.950 . S
C307 C305 1.390 . S
C307 C308 1.387 . S
C307 H310 0.950 . S
C308 C307 1.387 . S
C308 C311 1.387 . S
H309 C305 0.950 . S
H310 C307 0.950 . S
C311 C302 1.390 . S
C311 H304 0.950 . S
C311 C308 1.387 . S
C312 C313 1.387 . S
C312 H316 0.950 . S
C312 C321 1.390 . S
C313 C312 1.387 . S
C313 C315 1.387 . S
H314 C321 0.950 . S
C315 C313 1.387 . S
C315 C317 1.390 . S
C315 H319 0.950 . S
H316 C312 0.950 . S
C317 C315 1.390 . S
C317 C318 1.387 . S
C317 H320 0.950 . S
C318 C317 1.387 . S
C318 C321 1.387 . S
H319 C315 0.950 . S
H320 C317 0.950 . S
C321 C312 1.390 . S
C321 H314 0.950 . S
C321 C318 1.387 . S
C208 C179 1.486 . S
C203 C21 1.491 . S
C213 C19 1.482 . S
C218 C140 1.481 . S
C223 C18 1.463 . S
C228 C184 1.464 . S
C233 C20 1.483 . S
C238 C145 1.474 . S
C243 C44 1.491 . S
C248 C101 1.486 . S
C253 C42 1.481 . S
C258 C62 1.480 . S
C268 C106 1.464 . S
C263 C41 1.465 . S
C278 C67 1.475 . S
C273 C43 1.484 . S
C283 C16 1.497 . S
C288 C47 1.496 1_445 S
C293 C17 1.465 . S
C298 C86 1.465 . S
C308 C125 1.496 . S
C303 C39 1.497 . S
C313 C40 1.465 . S
C318 C164 1.466 . S
