# Generated by pormake.
# Topology eea, (3,6)-cn, num edge types: 1
# Building blocks:
#     Node 0, Type 0, BuildingBlock: BETDAH_clean_linker_0, # of connection points: 3
#     Node 1, Type 0, BuildingBlock: BETDAH_clean_linker_0, # of connection points: 3
#     Node 2, Type 0, BuildingBlock: BETDAH_clean_linker_0, # of connection points: 3
#     Node 3, Type 0, BuildingBlock: BETDAH_clean_linker_0, # of connection points: 3
#     Node 4, Type 0, BuildingBlock: BETDAH_clean_linker_0, # of connection points: 3
#     Node 5, Type 0, BuildingBlock: BETDAH_clean_linker_0, # of connection points: 3
#     Node 6, Type 0, BuildingBlock: BETDAH_clean_linker_0, # of connection points: 3
#     Node 7, Type 0, BuildingBlock: BETDAH_clean_linker_0, # of connection points: 3
#     Node 8, Type 0, BuildingBlock: BETDAH_clean_linker_0, # of connection points: 3
#     Node 9, Type 0, BuildingBlock: BETDAH_clean_linker_0, # of connection points: 3
#     Node 10, Type 0, BuildingBlock: BETDAH_clean_linker_0, # of connection points: 3
#     Node 11, Type 0, BuildingBlock: BETDAH_clean_linker_0, # of connection points: 3
#     Node 12, Type 0, BuildingBlock: BETDAH_clean_linker_0, # of connection points: 3
#     Node 13, Type 0, BuildingBlock: BETDAH_clean_linker_0, # of connection points: 3
#     Node 14, Type 0, BuildingBlock: BETDAH_clean_linker_0, # of connection points: 3
#     Node 15, Type 0, BuildingBlock: BETDAH_clean_linker_0, # of connection points: 3
#     Node 16, Type 0, BuildingBlock: BETDAH_clean_linker_0, # of connection points: 3
#     Node 17, Type 0, BuildingBlock: BETDAH_clean_linker_0, # of connection points: 3
#     Node 18, Type 1, BuildingBlock: NUHQIS_clean_sbu_0, # of connection points: 6
#     Node 19, Type 1, BuildingBlock: NUHQIS_clean_sbu_0, # of connection points: 6
#     Node 20, Type 1, BuildingBlock: NUHQIS_clean_sbu_0, # of connection points: 6
#     Node 21, Type 1, BuildingBlock: NUHQIS_clean_sbu_0, # of connection points: 6
#     Node 22, Type 1, BuildingBlock: NUHQIS_clean_sbu_0, # of connection points: 6
#     Node 23, Type 1, BuildingBlock: NUHQIS_clean_sbu_0, # of connection points: 6
#     Node 24, Type 1, BuildingBlock: NUHQIS_clean_sbu_0, # of connection points: 6
#     Node 25, Type 1, BuildingBlock: NUHQIS_clean_sbu_0, # of connection points: 6
#     Node 26, Type 1, BuildingBlock: NUHQIS_clean_sbu_0, # of connection points: 6
#     Edge 27, Type (0, 1), BuildingBlock: XIVTED_clean_linker_0, # of connection points: 2
#     Edge 28, Type (0, 1), BuildingBlock: XIVTED_clean_linker_0, # of connection points: 2
#     Edge 29, Type (0, 1), BuildingBlock: XIVTED_clean_linker_0, # of connection points: 2
#     Edge 30, Type (0, 1), BuildingBlock: XIVTED_clean_linker_0, # of connection points: 2
#     Edge 31, Type (0, 1), BuildingBlock: XIVTED_clean_linker_0, # of connection points: 2
#     Edge 32, Type (0, 1), BuildingBlock: XIVTED_clean_linker_0, # of connection points: 2
#     Edge 33, Type (0, 1), BuildingBlock: XIVTED_clean_linker_0, # of connection points: 2
#     Edge 34, Type (0, 1), BuildingBlock: XIVTED_clean_linker_0, # of connection points: 2
#     Edge 35, Type (0, 1), BuildingBlock: XIVTED_clean_linker_0, # of connection points: 2
#     Edge 36, Type (0, 1), BuildingBlock: XIVTED_clean_linker_0, # of connection points: 2
#     Edge 37, Type (0, 1), BuildingBlock: XIVTED_clean_linker_0, # of connection points: 2
#     Edge 38, Type (0, 1), BuildingBlock: XIVTED_clean_linker_0, # of connection points: 2
#     Edge 39, Type (0, 1), BuildingBlock: XIVTED_clean_linker_0, # of connection points: 2
#     Edge 40, Type (0, 1), BuildingBlock: XIVTED_clean_linker_0, # of connection points: 2
#     Edge 41, Type (0, 1), BuildingBlock: XIVTED_clean_linker_0, # of connection points: 2
#     Edge 42, Type (0, 1), BuildingBlock: XIVTED_clean_linker_0, # of connection points: 2
#     Edge 43, Type (0, 1), BuildingBlock: XIVTED_clean_linker_0, # of connection points: 2
#     Edge 44, Type (0, 1), BuildingBlock: XIVTED_clean_linker_0, # of connection points: 2
#     Edge 45, Type (0, 1), BuildingBlock: XIVTED_clean_linker_0, # of connection points: 2
#     Edge 46, Type (0, 1), BuildingBlock: XIVTED_clean_linker_0, # of connection points: 2
#     Edge 47, Type (0, 1), BuildingBlock: XIVTED_clean_linker_0, # of connection points: 2
#     Edge 48, Type (0, 1), BuildingBlock: XIVTED_clean_linker_0, # of connection points: 2
#     Edge 49, Type (0, 1), BuildingBlock: XIVTED_clean_linker_0, # of connection points: 2
#     Edge 50, Type (0, 1), BuildingBlock: XIVTED_clean_linker_0, # of connection points: 2
#     Edge 51, Type (0, 1), BuildingBlock: XIVTED_clean_linker_0, # of connection points: 2
#     Edge 52, Type (0, 1), BuildingBlock: XIVTED_clean_linker_0, # of connection points: 2
#     Edge 53, Type (0, 1), BuildingBlock: XIVTED_clean_linker_0, # of connection points: 2
#     Edge 54, Type (0, 1), BuildingBlock: XIVTED_clean_linker_0, # of connection points: 2
#     Edge 55, Type (0, 1), BuildingBlock: XIVTED_clean_linker_0, # of connection points: 2
#     Edge 56, Type (0, 1), BuildingBlock: XIVTED_clean_linker_0, # of connection points: 2
#     Edge 57, Type (0, 1), BuildingBlock: XIVTED_clean_linker_0, # of connection points: 2
#     Edge 58, Type (0, 1), BuildingBlock: XIVTED_clean_linker_0, # of connection points: 2
#     Edge 59, Type (0, 1), BuildingBlock: XIVTED_clean_linker_0, # of connection points: 2
#     Edge 60, Type (0, 1), BuildingBlock: XIVTED_clean_linker_0, # of connection points: 2
#     Edge 61, Type (0, 1), BuildingBlock: XIVTED_clean_linker_0, # of connection points: 2
#     Edge 62, Type (0, 1), BuildingBlock: XIVTED_clean_linker_0, # of connection points: 2
#     Edge 63, Type (0, 1), BuildingBlock: XIVTED_clean_linker_0, # of connection points: 2
#     Edge 64, Type (0, 1), BuildingBlock: XIVTED_clean_linker_0, # of connection points: 2
#     Edge 65, Type (0, 1), BuildingBlock: XIVTED_clean_linker_0, # of connection points: 2
#     Edge 66, Type (0, 1), BuildingBlock: XIVTED_clean_linker_0, # of connection points: 2
#     Edge 67, Type (0, 1), BuildingBlock: XIVTED_clean_linker_0, # of connection points: 2
#     Edge 68, Type (0, 1), BuildingBlock: XIVTED_clean_linker_0, # of connection points: 2
#     Edge 69, Type (0, 1), BuildingBlock: XIVTED_clean_linker_0, # of connection points: 2
#     Edge 70, Type (0, 1), BuildingBlock: XIVTED_clean_linker_0, # of connection points: 2
#     Edge 71, Type (0, 1), BuildingBlock: XIVTED_clean_linker_0, # of connection points: 2
#     Edge 72, Type (0, 1), BuildingBlock: XIVTED_clean_linker_0, # of connection points: 2
#     Edge 73, Type (0, 1), BuildingBlock: XIVTED_clean_linker_0, # of connection points: 2
#     Edge 74, Type (0, 1), BuildingBlock: XIVTED_clean_linker_0, # of connection points: 2
#     Edge 75, Type (0, 1), BuildingBlock: XIVTED_clean_linker_0, # of connection points: 2
#     Edge 76, Type (0, 1), BuildingBlock: XIVTED_clean_linker_0, # of connection points: 2
#     Edge 77, Type (0, 1), BuildingBlock: XIVTED_clean_linker_0, # of connection points: 2
#     Edge 78, Type (0, 1), BuildingBlock: XIVTED_clean_linker_0, # of connection points: 2
#     Edge 79, Type (0, 1), BuildingBlock: XIVTED_clean_linker_0, # of connection points: 2
#     Edge 80, Type (0, 1), BuildingBlock: XIVTED_clean_linker_0, # of connection points: 2
# Relax obj value: 0.057
# Max RMSD: 0.205
# Mean RMSD: 0.145
data_MOF--net-eea--node1-NUHQIS_clean_sbu_0--node2-BETDAH_clean_linker_0--edge1-XIVTED_clean_linker_0
_symmetry_space_group_name_H-M    P1
_symmetry_Int_Tables_number       1
_symmetry_cell_setting            triclinic
loop_
_symmetry_equiv_pos_as_xyz
'x, y, z'
_cell_length_a     54.988043
_cell_length_b     55.152139
_cell_length_c     69.752871
_cell_angle_alpha  93.390001
_cell_angle_beta   93.590648
_cell_angle_gamma 119.85809
loop_
_atom_site_label
_atom_site_type_symbol
_atom_site_fract_x
_atom_site_fract_y
_atom_site_fract_z
_atom_type_partial_charge
H0 H 0.26002 0.09495 0.42855 0.0
H1 H 0.2903 0.18253 0.42202 0.0
H2 H 0.27287 0.12434 0.37241 0.0
C3 C 0.26566 0.11197 0.41956 0.0
C4 C 0.26449 0.1064 0.39955 0.0
C5 C 0.27571 0.13956 0.42801 0.0
C6 C 0.283 0.16122 0.4159 0.0
C7 C 0.28198 0.15565 0.39587 0.0
C8 C 0.27342 0.12845 0.38787 0.0
N9 N 0.29037 0.17724 0.3835 0.0
C10 C 0.2815 0.19677 0.38468 0.0
H11 H 0.94737 0.18348 0.43152 0.0
H12 H 0.87041 0.10399 0.41766 0.0
H13 H 0.93267 0.13354 0.37768 0.0
C14 C 0.93393 0.16488 0.42162 0.0
C15 C 0.94334 0.16125 0.40394 0.0
C16 C 0.90759 0.14436 0.4268 0.0
C17 C 0.89089 0.11975 0.41409 0.0
C18 C 0.90027 0.1158 0.39651 0.0
C19 C 0.92617 0.13661 0.39153 0.0
N20 N 0.8842 0.09138 0.38327 0.0
C21 C 0.85892 0.06814 0.38655 0.0
H22 H 0.83662 0.7626 0.44438 0.0
H23 H 0.90038 0.74017 0.4383 0.0
H24 H 0.87912 0.77703 0.39263 0.0
C25 C 0.85275 0.7626 0.43625 0.0
C26 C 0.85599 0.77193 0.41766 0.0
C27 C 0.86883 0.75141 0.444 0.0
C28 C 0.88821 0.74932 0.43284 0.0
C29 C 0.89208 0.75877 0.4145 0.0
C30 C 0.87625 0.77033 0.40701 0.0
N31 N 0.90868 0.7525 0.40272 0.0
C32 C 0.93386 0.77273 0.39667 0.0
H33 H 0.06341 0.23852 0.58134 0.0
H34 H 0.14374 0.24606 0.59909 0.0
H35 H 0.08124 0.22269 0.63871 0.0
C36 C 0.07743 0.23686 0.5921 0.0
C37 C 0.06835 0.22868 0.61028 0.0
C38 C 0.10477 0.24361 0.5879 0.0
C39 C 0.12272 0.2411 0.60201 0.0
C40 C 0.11396 0.23334 0.62025 0.0
C41 C 0.08719 0.22768 0.62432 0.0
N42 N 0.13226 0.23331 0.63547 0.0
C43 C 0.15143 0.2241 0.63348 0.0
H44 H 0.75183 0.82898 0.60276 0.0
H45 H 0.74011 0.89927 0.61691 0.0
H46 H 0.76544 0.86399 0.66183 0.0
C47 C 0.75264 0.84461 0.61336 0.0
C48 C 0.76 0.84425 0.63294 0.0
C49 C 0.74535 0.86429 0.60739 0.0
C50 C 0.74556 0.88392 0.62134 0.0
C51 C 0.75264 0.88356 0.64102 0.0
C52 C 0.75956 0.86366 0.64666 0.0
N53 N 0.75286 0.90271 0.65562 0.0
C54 C 0.75503 0.92826 0.65234 0.0
H55 H 0.16877 0.9177 0.58436 0.0
H56 H 0.1139 0.83015 0.59021 0.0
H57 H 0.13759 0.89104 0.63908 0.0
C58 C 0.15558 0.90142 0.59308 0.0
C59 C 0.15501 0.90834 0.61276 0.0
C60 C 0.14057 0.87338 0.58468 0.0
C61 C 0.12514 0.85195 0.59628 0.0
C62 C 0.12403 0.85848 0.61578 0.0
C63 C 0.13863 0.88652 0.62393 0.0
N64 N 0.11056 0.83655 0.62763 0.0
C65 C 0.08378 0.8281 0.63289 0.0
H66 H 0.91862 0.41614 0.75822 0.0
H67 H 0.96314 0.50679 0.76123 0.0
H68 H 0.93558 0.45744 0.70626 0.0
C69 C 0.9273 0.43537 0.75126 0.0
C70 C 0.92534 0.4337 0.731 0.0
C71 C 0.94129 0.46164 0.7625 0.0
C72 C 0.95196 0.48626 0.75303 0.0
C73 C 0.94954 0.48461 0.73282 0.0
C74 C 0.93678 0.45846 0.72189 0.0
N75 N 0.96121 0.50933 0.72337 0.0
C76 C 0.94714 0.52418 0.72129 0.0
H77 H 0.60967 0.51879 0.76468 0.0
H78 H 0.52603 0.44895 0.74789 0.0
H79 H 0.58439 0.48136 0.70559 0.0
C80 C 0.59397 0.50346 0.75357 0.0
C81 C 0.60092 0.50236 0.73456 0.0
C82 C 0.56689 0.48449 0.75849 0.0
C83 C 0.54699 0.46354 0.74433 0.0
C84 C 0.55362 0.46239 0.72532 0.0
C85 C 0.58013 0.48211 0.7205 0.0
N86 N 0.53393 0.44217 0.71049 0.0
C87 C 0.51124 0.41652 0.71374 0.0
H88 H 0.50198 0.09724 0.77774 0.0
H89 H 0.56832 0.07762 0.77645 0.0
H90 H 0.54528 0.10704 0.72675 0.0
C91 C 0.51807 0.09606 0.77019 0.0
C92 C 0.52124 0.10307 0.75105 0.0
C93 C 0.53503 0.08708 0.77962 0.0
C94 C 0.55582 0.08567 0.76976 0.0
C95 C 0.56011 0.09352 0.75099 0.0
C96 C 0.54297 0.1025 0.74164 0.0
N97 N 0.57881 0.08804 0.74099 0.0
C98 C 0.5999 0.10711 0.73081 0.0
H99 H 0.73741 0.58146 0.91369 0.0
H100 H 0.81547 0.58318 0.92957 0.0
H101 H 0.75282 0.55834 0.96909 0.0
C102 C 0.75057 0.57759 0.92379 0.0
C103 C 0.74133 0.56867 0.9418 0.0
C104 C 0.77738 0.58308 0.91917 0.0
C105 C 0.79474 0.57892 0.93275 0.0
C106 C 0.78576 0.57028 0.95078 0.0
C107 C 0.75934 0.56528 0.95514 0.0
N108 N 0.80358 0.5688 0.96564 0.0
C109 C 0.82164 0.55836 0.96313 0.0
H110 H 0.42495 0.16527 0.93676 0.0
H111 H 0.40114 0.22784 0.94811 0.0
H112 H 0.42929 0.198 0.99516 0.0
C113 C 0.42203 0.17904 0.94689 0.0
C114 C 0.42867 0.1797 0.96676 0.0
C115 C 0.41177 0.19605 0.93995 0.0
C116 C 0.40933 0.21484 0.95317 0.0
C117 C 0.41582 0.21551 0.97311 0.0
C118 C 0.42506 0.19775 0.97974 0.0
N119 N 0.412 0.23277 0.98701 0.0
C120 C 0.41505 0.25867 0.98378 0.0
H121 H 0.82753 0.24711 0.91267 0.0
H122 H 0.77173 0.15944 0.9181 0.0
H123 H 0.80375 0.2191 0.96846 0.0
C124 C 0.81554 0.23045 0.92152 0.0
C125 C 0.81758 0.23679 0.94161 0.0
C126 C 0.79914 0.20265 0.91283 0.0
C127 C 0.78412 0.18108 0.92445 0.0
C128 C 0.78524 0.18719 0.94436 0.0
C129 C 0.80194 0.21492 0.95291 0.0
N130 N 0.77238 0.16493 0.95605 0.0
C131 C 0.74626 0.15679 0.96246 0.0
H132 H 0.59474 0.75343 0.09387 0.0
H133 H 0.6293 0.84291 0.09429 0.0
H134 H 0.60545 0.791 0.0405 0.0
C135 C 0.60137 0.77195 0.08628 0.0
C136 C 0.59866 0.76898 0.066 0.0
C137 C 0.6126 0.7985 0.09679 0.0
C138 C 0.62005 0.82211 0.08661 0.0
C139 C 0.61719 0.81923 0.06636 0.0
C140 C 0.60676 0.79282 0.05613 0.0
N141 N 0.62676 0.84312 0.05611 0.0
C142 C 0.61284 0.85824 0.0555 0.0
H143 H 0.27789 0.8501 0.10131 0.0
H144 H 0.2007 0.77069 0.08826 0.0
H145 H 0.26182 0.79968 0.04741 0.0
C146 C 0.26427 0.83145 0.09148 0.0
C147 C 0.27333 0.82747 0.07373 0.0
C148 C 0.23808 0.81105 0.0969 0.0
C149 C 0.221 0.78637 0.08435 0.0
C150 C 0.22981 0.78233 0.06656 0.0
C151 C 0.25567 0.80291 0.06137 0.0
N152 N 0.21331 0.75805 0.0533 0.0
C153 C 0.18807 0.73485 0.05665 0.0
H154 H 0.17877 0.43862 0.11452 0.0
H155 H 0.24407 0.41869 0.10602 0.0
H156 H 0.20848 0.44092 0.05862 0.0
C157 C 0.19311 0.43686 0.10535 0.0
C158 C 0.19177 0.44167 0.0858 0.0
C159 C 0.21176 0.42841 0.11291 0.0
C160 C 0.22992 0.4257 0.1007 0.0
C161 C 0.22909 0.43079 0.08128 0.0
C162 C 0.21002 0.43864 0.0739 0.0
N163 N 0.24346 0.42295 0.06839 0.0
C164 C 0.27122 0.44073 0.06497 0.0
H165 H 0.40057 0.90955 0.24982 0.0
H166 H 0.48225 0.92013 0.26746 0.0
H167 H 0.42075 0.89739 0.30777 0.0
C168 C 0.41512 0.9088 0.26064 0.0
C169 C 0.40669 0.90141 0.27908 0.0
C170 C 0.44251 0.91603 0.25626 0.0
C171 C 0.46115 0.91473 0.27047 0.0
C172 C 0.45303 0.90779 0.28895 0.0
C173 C 0.42619 0.90165 0.29319 0.0
N174 N 0.47232 0.90963 0.30419 0.0
C175 C 0.48915 0.8975 0.30292 0.0
H176 H 0.07836 0.49274 0.27083 0.0
H177 H 0.06043 0.55972 0.28107 0.0
H178 H 0.0969 0.53676 0.32765 0.0
C179 C 0.07864 0.50892 0.28059 0.0
C180 C 0.08928 0.51271 0.30007 0.0
C181 C 0.06821 0.52575 0.27354 0.0
C182 C 0.06875 0.54686 0.28623 0.0
C183 C 0.0787 0.55032 0.30583 0.0
C184 C 0.08874 0.53326 0.31258 0.0
N185 N 0.07809 0.57007 0.31942 0.0
C186 C 0.08019 0.59519 0.31501 0.0
H187 H 0.50761 0.58232 0.2508 0.0
H188 H 0.44557 0.49513 0.25024 0.0
H189 H 0.46063 0.55237 0.29994 0.0
C190 C 0.49151 0.56557 0.25786 0.0
C191 C 0.48604 0.57113 0.27662 0.0
C192 C 0.47657 0.53841 0.24808 0.0
C193 C 0.45663 0.51638 0.25741 0.0
C194 C 0.45083 0.52133 0.27598 0.0
C195 C 0.46521 0.54874 0.28552 0.0
N196 N 0.43185 0.49789 0.28512 0.0
C197 C 0.41168 0.49755 0.29629 0.0
Tb198 Tb 0.498 0.9967 0.9988 0.0
Eu199 Eu 0.51713 0.02589 0.04418 0.0
C200 C 0.52394 0.97409 0.02955 0.0
C201 C 0.45659 0.97223 0.03028 0.0
C202 C 0.48834 0.9894 0.94515 0.0
C203 C 0.47858 0.98351 0.91021 0.0
C204 C 0.47436 0.97211 0.92793 0.0
C205 C 0.50636 0.01834 0.9445 0.0
C206 C 0.51073 0.02974 0.92678 0.0
C207 C 0.497 0.01243 0.9094 0.0
C208 C 0.48471 0.97697 0.9636 0.0
O209 O 0.47989 0.02347 1.00306 0.0
O210 O 0.5113 0.05642 0.02715 0.0
O211 O 0.55643 0.04468 0.02887 0.0
O212 O 0.53553 0.03752 0.99791 0.0
C213 C 0.49174 0.04861 0.01257 0.0
O214 O 0.50941 0.04479 0.06978 0.0
O215 O 0.54505 0.03815 0.07097 0.0
O216 O 0.51601 0.98454 0.0436 0.0
O217 O 0.52365 0.98108 0.01192 0.0
O218 O 0.46713 0.9659 0.01566 0.0
O219 O 0.47024 0.99698 0.04032 0.0
C220 C 0.55795 0.04969 0.01066 0.0
O221 O 0.50786 0.98216 0.97364 0.0
O222 O 0.4677 0.97986 0.97446 0.0
C223 C 0.52086 0.03091 0.09865 0.0
C224 C 0.50469 0.00447 0.13286 0.0
C225 C 0.52202 0.03388 0.13362 0.0
C226 C 0.53002 0.04695 0.11667 0.0
C227 C 0.50352 0.00162 0.09774 0.0
C228 C 0.49552 0.98852 0.11467 0.0
C229 C 0.52936 0.04468 0.08085 0.0
H230 H 0.4679 0.96955 0.8971 0.0
H231 H 0.46044 0.94972 0.92816 0.0
H232 H 0.51722 0.03206 0.95767 0.0
H233 H 0.52475 0.05213 0.92669 0.0
H234 H 0.52914 0.04689 0.14731 0.0
H235 H 0.54332 0.0696 0.11763 0.0
H236 H 0.49626 0.98887 0.08393 0.0
H237 H 0.48248 0.96584 0.1135 0.0
Tb238 Tb 0.01031 0.49136 0.99701 0.0
Eu239 Eu 0.98362 0.47863 0.03896 0.0
C240 C 0.03286 0.53846 0.03189 0.0
C241 C 0.03785 0.47425 0.03052 0.0
C242 C 0.01912 0.49588 0.94441 0.0
C243 C 0.02077 0.51253 0.91279 0.0
C244 C 0.03154 0.51711 0.93216 0.0
C245 C 0.99571 0.46983 0.93701 0.0
C246 C 0.98507 0.46513 0.91754 0.0
C247 C 0.99742 0.4865 0.90526 0.0
C248 C 0.03042 0.50184 0.96492 0.0
O249 O 0.9824 0.44595 0.99521 0.0
O250 O 0.95233 0.44242 0.01775 0.0
O251 O 0.9629 0.4983 0.02214 0.0
O252 O 0.96921 0.48763 0.99114 0.0
C253 C 0.95841 0.43178 1.00271 0.0
O254 O 0.96733 0.45193 0.06233 0.0
O255 O 0.96926 0.49222 0.06356 0.0
O256 O 0.02474 0.51951 0.04417 0.0
O257 O 0.02364 0.53149 0.01348 0.0
O258 O 0.0425 0.49124 0.01698 0.0
O259 O 0.01373 0.46231 0.03799 0.0
C260 C 0.95669 0.49566 1.00335 0.0
O261 O 0.02497 0.51858 0.97532 0.0
O262 O 0.02735 0.48068 0.97403 0.0
C263 C 0.9756 0.47653 0.09312 0.0
C264 C 0.99636 0.4887 0.13258 0.0
C265 C 0.96789 0.46884 0.12663 0.0
C266 C 0.95763 0.46285 0.10708 0.0
C267 C 0.00408 0.49624 0.09889 0.0
C268 C 0.01437 0.50233 0.11848 0.0
C269 C 0.96418 0.47047 0.07269 0.0
H270 H 0.03095 0.52927 0.90363 0.0
H271 H 0.04956 0.53736 0.93762 0.0
H272 H 0.98555 0.45322 0.94626 0.0
H273 H 0.9669 0.44496 0.91218 0.0
H274 H 0.95339 0.45822 0.13712 0.0
H275 H 0.93556 0.44767 0.10286 0.0
H276 H 0.01829 0.50695 0.08826 0.0
H277 H 0.03646 0.51747 0.12256 0.0
Tb278 Tb 0.5188 0.51918 0.02018 0.0
Eu279 Eu 0.49272 0.51945 0.97621 0.0
C280 C 0.48342 0.46358 0.99307 0.0
C281 C 0.5539 0.52517 0.98479 0.0
C282 C 0.53244 0.51935 0.07391 0.0
C283 C 0.49786 0.49904 0.09686 0.0
C284 C 0.50483 0.50063 0.07781 0.0
C285 C 0.55289 0.53632 0.08917 0.0
C286 C 0.54595 0.53495 0.10811 0.0
C287 C 0.51833 0.51636 0.11226 0.0
C288 C 0.54039 0.52311 0.05412 0.0
O289 O 0.5406 0.56081 0.01062 0.0
O290 O 0.50354 0.55975 0.99376 0.0
O291 O 0.45632 0.5053 0.99419 0.0
O292 O 0.48026 0.51991 0.02483 0.0
C293 C 0.52745 0.57375 1.0048 0.0
O294 O 0.49493 0.54231 0.9513 0.0
O295 O 0.46255 0.49851 0.95058 0.0
O296 O 0.49099 0.47805 0.97811 0.0
O297 O 0.48679 0.476 0.01048 0.0
O298 O 0.54711 0.51504 1.0015 0.0
O299 O 0.53819 0.53223 0.97427 0.0
C300 C 0.45702 0.51024 0.01297 0.0
O301 O 0.53047 0.50073 0.04182 0.0
O302 O 0.53939 0.54359 0.04646 0.0
C303 C 0.48309 0.51432 0.92182 0.0
C304 C 0.50141 0.50687 0.88623 0.0
C305 C 0.48708 0.52196 0.88797 0.0
C306 C 0.47798 0.52561 0.90563 0.0
C307 C 0.49722 0.49909 0.92016 0.0
C308 C 0.50616 0.49526 0.90249 0.0
C309 C 0.4753 0.51999 0.94064 0.0
H310 H 0.47646 0.4843 0.09951 0.0
H311 H 0.48867 0.48752 0.06615 0.0
H312 H 0.57423 0.55115 0.08638 0.0
H313 H 0.56214 0.54909 0.11942 0.0
H314 H 0.48288 0.53091 0.87567 0.0
H315 H 0.46728 0.53758 0.9067 0.0
H316 H 0.50172 0.49056 0.93261 0.0
H317 H 0.51745 0.48385 0.90167 0.0
Tb318 Tb 0.1693 0.33895 0.33296 0.0
Eu319 Eu 0.18526 0.36514 0.37911 0.0
C320 C 0.19623 0.31704 0.36321 0.0
C321 C 0.12587 0.31163 0.36306 0.0
C322 C 0.16387 0.33319 0.27919 0.0
C323 C 0.16055 0.32758 0.24415 0.0
C324 C 0.15449 0.31586 0.2617 0.0
C325 C 0.17904 0.36249 0.27894 0.0
C326 C 0.18515 0.37427 0.26138 0.0
C327 C 0.17622 0.35694 0.24375 0.0
C328 C 0.15891 0.32043 0.29754 0.0
O329 O 0.15138 0.36601 0.33634 0.0
O330 O 0.17813 0.39595 0.36343 0.0
O331 O 0.22525 0.38735 0.36464 0.0
O332 O 0.20545 0.38097 0.3334 0.0
C333 C 0.16103 0.38962 0.34755 0.0
O334 O 0.17576 0.38132 0.40519 0.0
O335 O 0.2122 0.37596 0.40624 0.0
O336 O 0.18533 0.32432 0.37703 0.0
O337 O 0.19746 0.32637 0.34625 0.0
O338 O 0.13761 0.30662 0.34863 0.0
O339 O 0.1386 0.33579 0.37382 0.0
C340 C 0.22718 0.39363 0.34669 0.0
O341 O 0.18146 0.32569 0.30839 0.0
O342 O 0.14088 0.32276 0.30763 0.0
C343 C 0.18701 0.36619 0.43354 0.0
C344 C 0.17036 0.33758 0.46687 0.0
C345 C 0.1877 0.36706 0.46844 0.0
C346 C 0.19593 0.3812 0.45192 0.0
C347 C 0.16971 0.33683 0.43183 0.0
C348 C 0.16147 0.32266 0.44833 0.0
C349 C 0.19572 0.38116 0.41622 0.0
H350 H 0.15289 0.31359 0.23088 0.0
H351 H 0.14274 0.2932 0.26161 0.0
H352 H 0.18654 0.37622 0.29234 0.0
H353 H 0.19747 0.39692 0.26166 0.0
H354 H 0.1946 0.37929 0.48243 0.0
H355 H 0.20919 0.40388 0.45351 0.0
H356 H 0.16266 0.32488 0.41772 0.0
H357 H 0.14843 0.29997 0.44655 0.0
Tb358 Tb 0.67501 0.82566 0.33218 0.0
Eu359 Eu 0.65025 0.81389 0.37498 0.0
C360 C 0.69912 0.87322 0.36674 0.0
C361 C 0.70471 0.80984 0.36583 0.0
C362 C 0.68315 0.83106 0.27948 0.0
C363 C 0.68436 0.84828 0.24811 0.0
C364 C 0.69472 0.85286 0.26756 0.0
C365 C 0.66088 0.80453 0.27171 0.0
C366 C 0.65066 0.79985 0.25217 0.0
C367 C 0.66232 0.8217 0.24018 0.0
C368 C 0.69445 0.83681 0.29995 0.0
O369 O 0.6456 0.78058 0.32947 0.0
O370 O 0.61927 0.77567 0.35503 0.0
O371 O 0.62873 0.83296 0.35825 0.0
O372 O 0.63366 0.82154 0.32707 0.0
C373 C 0.62347 0.76583 0.33871 0.0
O374 O 0.63488 0.78849 0.39904 0.0
O375 O 0.63671 0.82869 0.39948 0.0
O376 O 0.69162 0.85461 0.37924 0.0
O377 O 0.68854 0.86584 0.3486 0.0
O378 O 0.70761 0.8243 0.35094 0.0
O379 O 0.68213 0.79981 0.37508 0.0
C380 C 0.62167 0.82985 0.33954 0.0
O381 O 0.68867 0.8531 0.31057 0.0
O382 O 0.69189 0.81562 0.30882 0.0
C383 C 0.64512 0.81499 0.42923 0.0
C384 C 0.66937 0.83053 0.46795 0.0
C385 C 0.63989 0.81497 0.46349 0.0
C386 C 0.62789 0.8073 0.44429 0.0
C387 C 0.67452 0.83035 0.4335 0.0
C388 C 0.68657 0.83806 0.45271 0.0
C389 C 0.63222 0.80756 0.40915 0.0
H390 H 0.69398 0.8654 0.23918 0.0
H391 H 0.71186 0.87348 0.27331 0.0
H392 H 0.65139 0.78746 0.2807 0.0
H393 H 0.63349 0.77923 0.24647 0.0
H394 H 0.62605 0.80843 0.47485 0.0
H395 H 0.60514 0.79541 0.4412 0.0
H396 H 0.68812 0.83655 0.42198 0.0
H397 H 0.70932 0.85028 0.45561 0.0
Tb398 Tb 0.18236 0.85407 0.35608 0.0
Eu399 Eu 0.15947 0.85632 0.3117 0.0
C400 C 0.14836 0.79975 0.32772 0.0
C401 C 0.22038 0.86276 0.32221 0.0
C402 C 0.1887 0.84914 0.4093 0.0
C403 C 0.19614 0.8471 0.44371 0.0
C404 C 0.20525 0.84889 0.4253 0.0
C405 C 0.16243 0.84658 0.41177 0.0
C406 C 0.15334 0.84494 0.43019 0.0
C407 C 0.17034 0.84571 0.44643 0.0
C408 C 0.20022 0.85466 0.39055 0.0
O409 O 0.20427 0.8969 0.34836 0.0
O410 O 0.16776 0.89514 0.32999 0.0
O411 O 0.12155 0.84124 0.32825 0.0
O412 O 0.14349 0.85491 0.35945 0.0
C413 C 0.19085 0.9093 0.34185 0.0
O414 O 0.16401 0.88004 0.28691 0.0
O415 O 0.13088 0.83643 0.28526 0.0
O416 O 0.15786 0.81494 0.31329 0.0
O417 O 0.15004 0.81156 0.34502 0.0
O418 O 0.21185 0.85063 0.33808 0.0
O419 O 0.20574 0.8713 0.31199 0.0
C420 C 0.12096 0.84567 0.34692 0.0
O421 O 0.19103 0.83322 0.37754 0.0
O422 O 0.20141 0.87633 0.3832 0.0
C423 C 0.15337 0.85259 0.25725 0.0
C424 C 0.17162 0.8436 0.22198 0.0
C425 C 0.15574 0.85721 0.22291 0.0
C426 C 0.14668 0.86163 0.2404 0.0
C427 C 0.16921 0.83904 0.25644 0.0
C428 C 0.17817 0.83449 0.23895 0.0
C429 C 0.14468 0.85816 0.27573 0.0
H430 H 0.20987 0.84804 0.45591 0.0
H431 H 0.22568 0.85102 0.42366 0.0
H432 H 0.14938 0.8467 0.39954 0.0
H433 H 0.13321 0.84352 0.43176 0.0
H434 H 0.15012 0.86423 0.21007 0.0
H435 H 0.13456 0.87222 0.2408 0.0
H436 H 0.17484 0.8322 0.26938 0.0
H437 H 0.19067 0.82432 0.2388 0.0
Tb438 Tb 0.83151 0.66091 0.66269 0.0
Eu439 Eu 0.8512 0.69234 0.70773 0.0
C440 C 0.85869 0.64006 0.69359 0.0
C441 C 0.79126 0.63769 0.69565 0.0
C442 C 0.82413 0.65183 0.60918 0.0
C443 C 0.81808 0.64512 0.57413 0.0
C444 C 0.81236 0.63408 0.59192 0.0
C445 C 0.8418 0.68082 0.6085 0.0
C446 C 0.84751 0.69191 0.59071 0.0
C447 C 0.83568 0.67419 0.57328 0.0
C448 C 0.81748 0.64004 0.62779 0.0
O449 O 0.83397 0.70131 0.66176 0.0
O450 O 0.82469 0.70752 0.69259 0.0
O451 O 0.88417 0.72238 0.69011 0.0
O452 O 0.8767 0.6901 0.66456 0.0
C453 C 0.82506 0.71271 0.67448 0.0
O454 O 0.8414 0.70947 0.73316 0.0
O455 O 0.88039 0.70875 0.73417 0.0
O456 O 0.86991 0.66454 0.70392 0.0
O457 O 0.83883 0.63247 0.67923 0.0
O458 O 0.79339 0.64286 0.67748 0.0
O459 O 0.81298 0.65022 0.70882 0.0
C460 C 0.89209 0.71498 0.67446 0.0
O461 O 0.83839 0.64128 0.63856 0.0
O462 O 0.80265 0.64753 0.63783 0.0
C463 C 0.85625 0.69866 0.76202 0.0
C464 C 0.8405 0.67182 0.79609 0.0
C465 C 0.85604 0.70136 0.79691 0.0
C466 C 0.86378 0.71466 0.78 0.0
C467 C 0.84113 0.66922 0.76113 0.0
C468 C 0.83332 0.65592 0.77798 0.0
C469 C 0.86301 0.7125 0.74413 0.0
H470 H 0.8083 0.63092 0.56102 0.0
H471 H 0.79857 0.61167 0.59219 0.0
H472 H 0.85112 0.69485 0.62174 0.0
H473 H 0.86141 0.71432 0.59062 0.0
H474 H 0.86165 0.71425 0.81057 0.0
H475 H 0.8753 0.73741 0.78094 0.0
H476 H 0.83514 0.6565 0.74736 0.0
H477 H 0.82172 0.63317 0.77682 0.0
Tb478 Tb 0.34719 0.16306 0.66119 0.0
Eu479 Eu 0.32456 0.15441 0.70457 0.0
C480 C 0.37108 0.21292 0.69381 0.0
C481 C 0.37601 0.14638 0.69425 0.0
C482 C 0.35384 0.16719 0.60846 0.0
C483 C 0.36079 0.17187 0.57461 0.0
C484 C 0.37159 0.17423 0.59372 0.0
C485 C 0.32501 0.15739 0.60392 0.0
C486 C 0.31414 0.15501 0.58477 0.0
C487 C 0.33199 0.16248 0.56991 0.0
C488 C 0.36594 0.17134 0.62854 0.0
O489 O 0.3167 0.11833 0.65996 0.0
O490 O 0.29139 0.11644 0.68558 0.0
O491 O 0.30083 0.17099 0.6875 0.0
O492 O 0.30663 0.16083 0.65613 0.0
C493 C 0.29462 0.10509 0.66956 0.0
O494 O 0.30899 0.12959 0.72891 0.0
O495 O 0.3149 0.17159 0.73 0.0
O496 O 0.36572 0.19537 0.70692 0.0
O497 O 0.35944 0.20383 0.67599 0.0
O498 O 0.38008 0.16273 0.68037 0.0
O499 O 0.35292 0.13617 0.70292 0.0
C500 C 0.29409 0.16827 0.66873 0.0
O501 O 0.3644 0.19013 0.63975 0.0
O502 O 0.35931 0.14873 0.63698 0.0
C503 C 0.32076 0.15537 0.75962 0.0
C504 C 0.3426 0.16542 0.79878 0.0
C505 C 0.31459 0.14433 0.79276 0.0
C506 C 0.3038 0.13939 0.77338 0.0
C507 C 0.34877 0.17643 0.76547 0.0
C508 C 0.35958 0.1815 0.78493 0.0
C509 C 0.30861 0.14977 0.73937 0.0
H510 H 0.37501 0.1773 0.56349 0.0
H511 H 0.39389 0.18181 0.597 0.0
H512 H 0.31103 0.15196 0.61519 0.0
H513 H 0.29193 0.1479 0.58167 0.0
H514 H 0.30085 0.13183 0.80308 0.0
H515 H 0.28211 0.12312 0.76912 0.0
H516 H 0.36224 0.18892 0.75501 0.0
H517 H 0.38131 0.19769 0.78909 0.0
Tb518 Tb 0.84435 0.18691 0.68444 0.0
Eu519 Eu 0.81973 0.18479 0.63974 0.0
C520 C 0.81126 0.13051 0.65832 0.0
C521 C 0.88168 0.19373 0.65037 0.0
C522 C 0.85084 0.18511 0.73789 0.0
C523 C 0.85708 0.18213 0.77227 0.0
C524 C 0.86684 0.18441 0.75405 0.0
C525 C 0.82452 0.18266 0.74003 0.0
C526 C 0.8148 0.18057 0.75826 0.0
C527 C 0.83118 0.1807 0.77464 0.0
C528 C 0.86275 0.19049 0.71927 0.0
O529 O 0.86565 0.22865 0.67486 0.0
O530 O 0.82813 0.22485 0.65652 0.0
O531 O 0.78204 0.16983 0.65659 0.0
O532 O 0.80536 0.18772 0.68719 0.0
C533 C 0.85173 0.24018 0.66773 0.0
O534 O 0.82051 0.20661 0.61457 0.0
O535 O 0.79265 0.16152 0.61308 0.0
O536 O 0.81977 0.14448 0.64323 0.0
O537 O 0.81274 0.14349 0.6751 0.0
O538 O 0.87399 0.18308 0.66683 0.0
O539 O 0.86617 0.20072 0.63956 0.0
C540 C 0.78219 0.17644 0.67507 0.0
O541 O 0.85497 0.16869 0.70684 0.0
O542 O 0.86257 0.21105 0.71111 0.0
C543 C 0.81466 0.17969 0.58513 0.0
C544 C 0.83446 0.17131 0.55036 0.0
C545 C 0.85351 0.18933 0.56606 0.0
C546 C 0.84374 0.19333 0.58332 0.0
C547 C 0.79559 0.16172 0.56948 0.0
C548 C 0.80539 0.15747 0.55226 0.0
C549 C 0.80409 0.18341 0.60339 0.0
H550 H 0.87033 0.18259 0.78461 0.0
H551 H 0.88726 0.1864 0.75268 0.0
H552 H 0.81183 0.18307 0.72768 0.0
H553 H 0.79462 0.17916 0.75957 0.0
H554 H 0.87603 0.19997 0.56512 0.0
H555 H 0.85897 0.207 0.59526 0.0
H556 H 0.77311 0.15089 0.5706 0.0
H557 H 0.79021 0.1436 0.54036 0.0
H558 H 0.31077 0.81833 0.05475 0.0
H559 H 0.425 0.98086 0.05554 0.0
H560 H 0.29922 0.88519 0.0793 0.0
H561 H 0.4257 0.91543 0.0188 0.0
H562 H 0.38079 0.94585 0.06636 0.0
H563 H 0.35476 0.85333 0.04358 0.0
C564 C 0.31737 0.84036 0.05773 0.0
C565 C 0.30102 0.84875 0.06787 0.0
C566 C 0.39053 0.93914 0.05588 0.0
C567 C 0.3518 0.889 0.05534 0.0
C568 C 0.41584 0.95911 0.04969 0.0
C569 C 0.42914 0.95108 0.03621 0.0
C570 C 0.37844 0.91079 0.04872 0.0
C571 C 0.41616 0.92259 0.02915 0.0
C572 C 0.34258 0.86033 0.05139 0.0
C573 C 0.31116 0.87767 0.07171 0.0
N574 N 0.39159 0.90343 0.03556 0.0
N575 N 0.33587 0.89674 0.06544 0.0
H576 H 0.19648 0.47826 0.05905 0.0
H577 H 0.03525 0.43983 0.05796 0.0
H578 H 0.13655 0.41793 0.09326 0.0
H579 H 0.09239 0.49733 0.02098 0.0
H580 H 0.07273 0.4324 0.07123 0.0
H581 H 0.15934 0.48628 0.04511 0.0
C582 C 0.17556 0.4667 0.06364 0.0
C583 C 0.16977 0.44753 0.07749 0.0
C584 C 0.07715 0.44663 0.0602 0.0
C585 C 0.12717 0.45669 0.06162 0.0
C586 C 0.05568 0.4509 0.05257 0.0
C587 C 0.06058 0.46925 0.03828 0.0
C588 C 0.10391 0.46082 0.05358 0.0
C589 C 0.08759 0.48295 0.03194 0.0
C590 C 0.15438 0.47135 0.05571 0.0
C591 C 0.14226 0.43333 0.08296 0.0
N592 N 0.10825 0.47849 0.03965 0.0
N593 N 0.12209 0.43819 0.07503 0.0
H594 H 0.55917 0.74331 0.03442 0.0
H595 H 0.57669 0.60767 0.02748 0.0
H596 H 0.61591 0.73161 0.07317 0.0
H597 H 0.5059 0.60838 0.99755 0.0
H598 H 0.59498 0.65597 0.0408 0.0
H599 H 0.54274 0.69655 0.01751 0.0
C600 C 0.56823 0.73094 0.03928 0.0
C601 C 0.58873 0.74115 0.05529 0.0
C602 C 0.57548 0.64566 0.03127 0.0
C603 C 0.57027 0.68805 0.03608 0.0
C604 C 0.56503 0.61803 0.02358 0.0
C605 C 0.53957 0.60384 0.01147 0.0
C606 C 0.56047 0.65938 0.02685 0.0
C607 C 0.52554 0.6185 0.00689 0.0
C608 C 0.5588 0.7043 0.02971 0.0
C609 C 0.59975 0.72434 0.06108 0.0
N610 N 0.53613 0.64552 0.01467 0.0
N611 N 0.5904 0.69866 0.05148 0.0
H612 H 0.81025 0.26653 0.97163 0.0
H613 H 0.96341 0.40247 0.9716 0.0
H614 H 0.87092 0.27301 0.93284 0.0
H615 H 0.90594 0.39545 0.01328 0.0
H616 H 0.929 0.35536 0.95684 0.0
H617 H 0.8443 0.31391 0.9868 0.0
C618 C 0.8307 0.27787 0.96631 0.0
C619 C 0.8376 0.26577 0.95083 0.0
C620 C 0.92389 0.36407 0.96923 0.0
C621 C 0.87661 0.32006 0.96806 0.0
C622 C 0.94358 0.39104 0.9777 0.0
C623 C 0.93766 0.40301 0.99377 0.0
C624 C 0.89795 0.34883 0.97681 0.0
C625 C 0.91149 0.38709 1.00094 0.0
C626 C 0.85009 0.30496 0.97493 0.0
C627 C 0.86437 0.2816 0.94445 0.0
N628 N 0.8926 0.36084 0.99241 0.0
N629 N 0.88282 0.30783 0.95308 0.0
H630 H 0.69076 0.54529 0.91856 0.0
H631 H 0.59986 0.53032 0.00626 0.0
H632 H 0.7277 0.58001 0.97717 0.0
H633 H 0.56942 0.53155 0.94796 0.0
H634 H 0.64524 0.54129 0.99523 0.0
H635 H 0.6446 0.53431 0.92843 0.0
C636 C 0.68931 0.55081 0.93344 0.0
C637 C 0.71328 0.56331 0.94707 0.0
C638 C 0.6286 0.53912 0.98485 0.0
C639 C 0.6604 0.55012 0.95848 0.0
C640 C 0.60263 0.53266 0.99111 0.0
C641 C 0.58084 0.53011 0.97803 0.0
C642 C 0.63275 0.54263 0.96532 0.0
C643 C 0.58573 0.53353 0.95856 0.0
C644 C 0.66291 0.54437 0.93906 0.0
C645 C 0.70986 0.56965 0.9662 0.0
N646 N 0.61115 0.53951 0.95276 0.0
N647 N 0.68396 0.56277 0.97134 0.0
H648 H 0.47059 0.19219 0.99576 0.0
H649 H 0.45085 0.03812 0.98377 0.0
H650 H 0.40919 0.1245 0.95435 0.0
H651 H 0.51107 0.10347 0.0271 0.0
H652 H 0.43579 0.07004 0.973 0.0
H653 H 0.486 0.16059 0.00763 0.0
C654 C 0.46029 0.17066 0.98921 0.0
C655 C 0.4386 0.16099 0.97399 0.0
C656 C 0.45226 0.07748 0.98489 0.0
C657 C 0.45626 0.12484 0.98741 0.0
C658 C 0.46093 0.05921 0.9911 0.0
C659 C 0.48231 0.06809 0.00642 0.0
C660 C 0.46503 0.10499 0.99399 0.0
C661 C 0.49449 0.09571 0.01526 0.0
C662 C 0.46917 0.15269 0.99594 0.0
C663 C 0.42626 0.13301 0.96589 0.0
N664 N 0.4857 0.11324 0.00889 0.0
N665 N 0.43525 0.11596 0.97271 0.0
H666 H 0.69594 0.13631 0.94124 0.0
H667 H 0.60933 0.07946 0.03243 0.0
H668 H 0.73492 0.1512 0.9995 0.0
H669 H 0.57006 0.06421 0.97403 0.0
H670 H 0.65523 0.10884 0.02101 0.0
H671 H 0.64936 0.11297 0.95326 0.0
C672 C 0.69456 0.13491 0.9566 0.0
C673 C 0.71898 0.1456 0.96948 0.0
C674 C 0.63656 0.09921 0.01071 0.0
C675 C 0.66616 0.1188 0.98333 0.0
C676 C 0.61029 0.08241 0.01723 0.0
C677 C 0.58572 0.06916 1.00418 0.0
C678 C 0.63839 0.10278 0.99097 0.0
C679 C 0.58838 0.07388 0.98464 0.0
C680 C 0.66807 0.12156 0.96347 0.0
C681 C 0.71638 0.14321 0.9892 0.0
N682 N 0.61422 0.09015 0.97863 0.0
N683 N 0.6904 0.12992 0.99554 0.0
H684 H 0.86486 0.56394 0.94278 0.0
H685 H 0.91607 0.49725 0.02284 0.0
H686 H 0.81847 0.52561 0.99044 0.0
H687 H 0.94792 0.50897 0.96709 0.0
H688 H 0.88168 0.51 0.01131 0.0
H689 H 0.8969 0.54597 0.95114 0.0
C690 C 0.86129 0.55143 0.95481 0.0
C691 C 0.83919 0.54605 0.96598 0.0
C692 C 0.89604 0.50964 1.00151 0.0
C693 C 0.87554 0.52606 0.97577 0.0
C694 C 0.9158 0.50247 0.00813 0.0
C695 C 0.93496 0.50212 0.99594 0.0
C696 C 0.89558 0.51698 0.9826 0.0
C697 C 0.93345 0.50891 0.97695 0.0
C698 C 0.87949 0.54123 0.95959 0.0
C699 C 0.83535 0.53005 0.9815 0.0
N700 N 0.91425 0.51635 0.97089 0.0
N701 N 0.85347 0.5208 0.98604 0.0
H702 H 0.40509 0.28792 0.01102 0.0
H703 H 0.479 0.43067 0.96044 0.0
H704 H 0.438 0.29338 0.95602 0.0
H705 H 0.45912 0.42609 0.01951 0.0
H706 H 0.45912 0.37966 0.95675 0.0
H707 H 0.41921 0.33774 0.0124 0.0
C708 C 0.41498 0.29969 0.99912 0.0
C709 C 0.42041 0.28691 0.98337 0.0
C710 C 0.45906 0.38986 0.97049 0.0
C711 C 0.43698 0.34369 0.98488 0.0
C712 C 0.47037 0.41896 0.97261 0.0
C713 C 0.47088 0.43272 0.99036 0.0
C714 C 0.448 0.3744 0.98618 0.0
C715 C 0.45937 0.41645 1.00561 0.0
C716 C 0.42318 0.32807 0.99993 0.0
C717 C 0.43344 0.30276 0.96834 0.0
N718 N 0.44844 0.3882 1.00317 0.0
N719 N 0.44144 0.3305 0.96948 0.0
H720 H 0.1393 0.71769 0.03485 0.0
H721 H 0.06792 0.56108 0.06584 0.0
H722 H 0.17868 0.69296 0.07879 0.0
H723 H 0.04283 0.58399 0.01319 0.0
H724 H 0.10313 0.61081 0.07508 0.0
H725 H 0.09783 0.67036 0.03142 0.0
C726 C 0.13884 0.70233 0.04404 0.0
C727 C 0.1621 0.70888 0.0571 0.0
C728 C 0.08971 0.60488 0.0616 0.0
C729 C 0.11532 0.65482 0.05308 0.0
C730 C 0.06961 0.57657 0.05634 0.0
C731 C 0.05267 0.56837 0.03862 0.0
C732 C 0.09256 0.62505 0.04914 0.0
C733 C 0.0557 0.58929 0.02686 0.0
C734 C 0.11534 0.67533 0.04202 0.0
C735 C 0.16089 0.68844 0.0686 0.0
N736 N 0.0753 0.6166 0.0323 0.0
N737 N 0.1379 0.66212 0.06623 0.0
H738 H 0.32119 0.45864 0.08644 0.0
H739 H 0.40645 0.49695 0.99339 0.0
H740 H 0.28431 0.45572 0.02943 0.0
H741 H 0.44654 0.50865 0.0511 0.0
H742 H 0.36205 0.48362 0.00671 0.0
H743 H 0.36781 0.47903 0.07436 0.0
C744 C 0.32309 0.46275 0.07145 0.0
C745 C 0.29918 0.45577 0.05887 0.0
C746 C 0.38057 0.48927 0.01651 0.0
C747 C 0.35196 0.47846 0.04487 0.0
C748 C 0.406 0.49686 0.00889 0.0
C749 C 0.43035 0.50385 0.0211 0.0
C750 C 0.37925 0.48838 0.03653 0.0
C751 C 0.42836 0.50345 0.0411 0.0
C752 C 0.34959 0.47425 0.06453 0.0
C753 C 0.30243 0.46105 0.03955 0.0
N754 N 0.40323 0.49564 0.04816 0.0
N755 N 0.3283 0.47192 0.0331 0.0
H756 H 0.59814 0.8841 0.08293 0.0
H757 H 0.53656 0.94422 1.00351 0.0
H758 H 0.59455 0.86668 0.02149 0.0
H759 H 0.53558 0.95996 0.06477 0.0
H760 H 0.55645 0.91452 0.01017 0.0
H761 H 0.57409 0.91097 0.07704 0.0
C762 C 0.59215 0.88596 0.06823 0.0
C763 C 0.59822 0.87348 0.05262 0.0
C764 C 0.55182 0.92435 0.02219 0.0
C765 C 0.571 0.90382 0.04574 0.0
C766 C 0.54045 0.94138 0.01839 0.0
C767 C 0.53453 0.95477 0.03361 0.0
C768 C 0.55752 0.9207 0.04137 0.0
C769 C 0.53987 0.95008 0.05259 0.0
C770 C 0.57847 0.90118 0.06485 0.0
C771 C 0.59018 0.8762 0.03384 0.0
N772 N 0.55123 0.93354 0.05595 0.0
N773 N 0.57704 0.89116 0.03091 0.0
H774 H 0.98192 0.15397 0.38485 0.0
H775 H 0.09187 0.31803 0.38719 0.0
H776 H 0.96745 0.21872 0.40963 0.0
H777 H 0.097 0.25493 0.35084 0.0
H778 H 0.04774 0.28159 0.3971 0.0
H779 H 0.02555 0.19024 0.37395 0.0
C780 C 0.9878 0.17579 0.38795 0.0
C781 C 0.97078 0.18321 0.39813 0.0
C782 C 0.0584 0.27567 0.38689 0.0
C783 C 0.02108 0.22491 0.38589 0.0
C784 C 0.08368 0.29648 0.38122 0.0
C785 C 0.09825 0.28955 0.36815 0.0
C786 C 0.04757 0.24755 0.37963 0.0
C787 C 0.08646 0.26125 0.36089 0.0
C788 C 0.0128 0.19649 0.38176 0.0
C789 C 0.97996 0.21192 0.40207 0.0
N790 N 0.06187 0.24124 0.36681 0.0
N791 N 0.00444 0.23168 0.39595 0.0
H792 H 0.83387 0.76408 0.37958 0.0
H793 H 0.71733 0.80229 0.40267 0.0
H794 H 0.8334 0.80074 0.43596 0.0
H795 H 0.74588 0.80879 0.34598 0.0
H796 H 0.75622 0.79588 0.41488 0.0
H797 H 0.79903 0.77568 0.36656 0.0
C798 C 0.82688 0.77491 0.38923 0.0
C799 C 0.83667 0.78117 0.40904 0.0
C800 C 0.75402 0.7988 0.39978 0.0
C801 C 0.79589 0.79361 0.39417 0.0
C802 C 0.73172 0.80226 0.39276 0.0
C803 C 0.7283 0.80599 0.37325 0.0
C804 C 0.77276 0.79845 0.38715 0.0
C805 C 0.74779 0.80605 0.36113 0.0
C806 C 0.80678 0.78132 0.38175 0.0
C807 C 0.82611 0.79475 0.42074 0.0
N808 N 0.76904 0.80202 0.36822 0.0
N809 N 0.8061 0.80015 0.41319 0.0
H810 H 0.29317 0.08737 0.37894 0.0
H811 H 0.16081 0.93631 0.34528 0.0
H812 H 0.21246 0.06047 0.4 0.0
H813 H 0.24512 0.94955 0.35405 0.0
H814 H 0.17881 0.98494 0.35911 0.0
H815 H 0.2752 0.03939 0.36368 0.0
C816 C 0.27167 0.07128 0.3803 0.0
C817 C 0.25422 0.07757 0.39075 0.0
C818 C 0.1933 0.97714 0.35788 0.0
C819 C 0.23349 0.02329 0.37314 0.0
C820 C 0.18314 0.94957 0.34988 0.0
C821 C 0.20156 0.93902 0.34858 0.0
C822 C 0.22212 0.9943 0.36417 0.0
C823 C 0.23024 0.95692 0.35491 0.0
C824 C 0.26149 0.04405 0.37167 0.0
C825 C 0.22652 0.0562 0.39215 0.0
N826 N 0.2397 0.98379 0.36235 0.0
N827 N 0.21687 0.02995 0.38329 0.0
H828 H 0.50557 0.58682 0.31534 0.0
H829 H 0.61324 0.74516 0.30076 0.0
H830 H 0.50568 0.6218 0.26152 0.0
H831 H 0.58481 0.72154 0.35657 0.0
H832 H 0.57763 0.69816 0.28623 0.0
H833 H 0.53728 0.63443 0.33106 0.0
C834 C 0.51188 0.6044 0.30684 0.0
C835 C 0.50308 0.60005 0.28694 0.0
C836 C 0.57913 0.70328 0.30165 0.0
C837 C 0.54003 0.65452 0.30482 0.0
C838 C 0.59958 0.73004 0.30998 0.0
C839 C 0.60204 0.73727 0.32992 0.0
C840 C 0.5613 0.68334 0.31335 0.0
C841 C 0.58356 0.71685 0.34112 0.0
C842 C 0.53014 0.63157 0.31583 0.0
C843 C 0.51242 0.62385 0.27673 0.0
N844 N 0.56411 0.69069 0.33271 0.0
N845 N 0.53061 0.64994 0.28571 0.0
H846 H 0.37533 0.92564 0.26796 0.0
H847 H 0.25453 0.84324 0.33639 0.0
H848 H 0.37263 0.86139 0.30177 0.0
H849 H 0.2478 0.89267 0.29283 0.0
H850 H 0.29909 0.85152 0.32515 0.0
H851 H 0.3295 0.91526 0.27778 0.0
C852 C 0.36503 0.90915 0.27727 0.0
C853 C 0.37806 0.89446 0.28407 0.0
C854 C 0.28779 0.86048 0.31803 0.0
C855 C 0.32569 0.88287 0.29571 0.0
C856 C 0.26238 0.85583 0.32448 0.0
C857 C 0.24734 0.86729 0.31559 0.0
C858 C 0.29842 0.87693 0.30268 0.0
C859 C 0.25858 0.88337 0.30016 0.0
C860 C 0.33891 0.90337 0.28298 0.0
C861 C 0.36375 0.87365 0.29641 0.0
N862 N 0.28345 0.8878 0.29427 0.0
N863 N 0.33848 0.8686 0.3019 0.0
H864 H 0.12002 0.49378 0.28118 0.0
H865 H 0.15476 0.42822 0.37021 0.0
H866 H 0.0861 0.49247 0.33561 0.0
H867 H 0.14816 0.39658 0.31089 0.0
H868 H 0.1383 0.45964 0.35903 0.0
H869 H 0.13887 0.46514 0.29316 0.0
C870 C 0.11631 0.48737 0.29558 0.0
C871 C 0.10116 0.49547 0.3073 0.0
C872 C 0.14055 0.4458 0.34853 0.0
C873 C 0.12359 0.4634 0.32129 0.0
C874 C 0.15004 0.42805 0.35488 0.0
C875 C 0.15255 0.40969 0.34145 0.0
C876 C 0.13425 0.44552 0.32866 0.0
C877 C 0.14616 0.41019 0.32173 0.0
C878 C 0.12731 0.4712 0.30245 0.0
C879 C 0.0979 0.48713 0.3261 0.0
N880 N 0.13742 0.4279 0.31592 0.0
N881 N 0.10909 0.47161 0.33253 0.0
H882 H 0.40464 0.48667 0.33346 0.0
H883 H 0.23792 0.41733 0.31259 0.0
H884 H 0.36289 0.49192 0.28088 0.0
H885 H 0.27936 0.41826 0.36752 0.0
H886 H 0.2838 0.44874 0.30205 0.0
H887 H 0.35968 0.46624 0.3477 0.0
C888 C 0.38605 0.48413 0.32514 0.0
C889 C 0.3872 0.49103 0.30612 0.0
C890 C 0.2829 0.44233 0.31648 0.0
C891 C 0.33582 0.46712 0.32192 0.0
C892 C 0.25665 0.4243 0.32252 0.0
C893 C 0.25475 0.41487 0.34093 0.0
C894 C 0.30756 0.45085 0.32884 0.0
C895 C 0.2798 0.42487 0.35318 0.0
C896 C 0.3604 0.47234 0.33318 0.0
C897 C 0.36269 0.48699 0.29569 0.0
N898 N 0.30518 0.44205 0.34684 0.0
N899 N 0.33788 0.47502 0.30366 0.0
H900 H 0.48852 0.86979 0.33306 0.0
H901 H 0.61021 0.84 0.30281 0.0
H902 H 0.52783 0.89599 0.28079 0.0
H903 H 0.58408 0.83575 0.3602 0.0
H904 H 0.57606 0.85422 0.29233 0.0
H905 H 0.51899 0.85048 0.34092 0.0
C906 C 0.50351 0.8712 0.32316 0.0
C907 C 0.50587 0.88439 0.30633 0.0
C908 C 0.57779 0.85005 0.30718 0.0
C909 C 0.54095 0.86262 0.3152 0.0
C910 C 0.59717 0.84182 0.31316 0.0
C911 C 0.60012 0.8368 0.33246 0.0
C912 C 0.56105 0.85291 0.32053 0.0
C913 C 0.58273 0.83959 0.34523 0.0
C914 C 0.52096 0.8603 0.32766 0.0
C915 C 0.52553 0.88586 0.29393 0.0
N916 N 0.56401 0.84742 0.33904 0.0
N917 N 0.54248 0.87513 0.29864 0.0
H918 H 0.10655 0.63029 0.28811 0.0
H919 H 0.11901 0.7613 0.35245 0.0
H920 H 0.0659 0.62352 0.33994 0.0
H921 H 0.14781 0.76779 0.29579 0.0
H922 H 0.09867 0.71054 0.34755 0.0
H923 H 0.12064 0.68034 0.28968 0.0
C924 C 0.10019 0.63935 0.29959 0.0
C925 C 0.08503 0.62315 0.31388 0.0
C926 C 0.10929 0.723 0.33611 0.0
C927 C 0.10136 0.67992 0.31606 0.0
C928 C 0.12104 0.75205 0.33895 0.0
C929 C 0.1353 0.76886 0.32455 0.0
C930 C 0.11201 0.71057 0.31883 0.0
C931 C 0.13705 0.75563 0.30729 0.0
C932 C 0.10828 0.66782 0.30055 0.0
C933 C 0.07749 0.63555 0.32863 0.0
N934 N 0.12572 0.72725 0.30496 0.0
N935 N 0.08593 0.66331 0.32944 0.0
H936 H 0.80971 0.05111 0.36533 0.0
H937 H 0.73663 0.89624 0.39957 0.0
H938 H 0.84962 0.02672 0.40914 0.0
H939 H 0.70868 0.91833 0.34769 0.0
H940 H 0.77344 0.94575 0.40746 0.0
H941 H 0.76748 0.00442 0.36315 0.0
C942 C 0.80926 0.03595 0.37472 0.0
C943 C 0.83284 0.04241 0.3874 0.0
C944 C 0.75905 0.93971 0.39445 0.0
C945 C 0.78514 0.98907 0.38484 0.0
C946 C 0.73803 0.91152 0.38997 0.0
C947 C 0.71979 0.90313 0.37284 0.0
C948 C 0.76157 0.95956 0.38179 0.0
C949 C 0.72251 0.92378 0.36092 0.0
C950 C 0.7853 0.00932 0.37342 0.0
C951 C 0.8316 0.02226 0.39921 0.0
N952 N 0.74304 0.95096 0.36559 0.0
N953 N 0.80813 0.99628 0.39755 0.0
H954 H 0.98425 0.80208 0.41835 0.0
H955 H 0.06977 0.82618 0.32581 0.0
H956 H 0.94524 0.77978 0.35968 0.0
H957 H 0.10969 0.8504 0.38445 0.0
H958 H 0.02458 0.8128 0.33793 0.0
H959 H 0.03084 0.82387 0.40632 0.0
C960 C 0.98563 0.80235 0.40293 0.0
C961 C 0.96115 0.78947 0.38992 0.0
C962 C 0.04324 0.82118 0.34816 0.0
C963 C 0.01404 0.81362 0.37602 0.0
C964 C 0.06914 0.82885 0.34124 0.0
C965 C 0.09369 0.83923 0.35411 0.0
C966 C 0.04168 0.82377 0.36814 0.0
C967 C 0.09138 0.84229 0.37396 0.0
C968 C 0.01214 0.81459 0.39605 0.0
C969 C 0.96379 0.78981 0.37011 0.0
N970 N 0.06584 0.83442 0.38036 0.0
N971 N 0.98978 0.80152 0.36374 0.0
H972 H 0.25447 0.2101 0.41093 0.0
H973 H 0.22211 0.29993 0.33815 0.0
H974 H 0.28379 0.22552 0.35466 0.0
H975 H 0.19901 0.2935 0.39647 0.0
H976 H 0.24377 0.27165 0.34415 0.0
H977 H 0.2335 0.24006 0.40638 0.0
C978 C 0.25665 0.22009 0.39773 0.0
C979 C 0.27084 0.21573 0.38315 0.0
C980 C 0.23401 0.27639 0.35569 0.0
C981 C 0.24689 0.24934 0.37771 0.0
C982 C 0.22153 0.29253 0.35225 0.0
C983 C 0.20871 0.29916 0.36684 0.0
C984 C 0.2337 0.26661 0.37385 0.0
C985 C 0.20867 0.2889 0.38481 0.0
C986 C 0.24468 0.23703 0.39509 0.0
C987 C 0.27305 0.22866 0.36623 0.0
N988 N 0.22098 0.27309 0.38782 0.0
N989 N 0.26112 0.24484 0.36393 0.0
H990 H 0.6305 0.49222 0.70786 0.0
H991 H 0.77359 0.63637 0.73146 0.0
H992 H 0.63748 0.55772 0.74904 0.0
H993 H 0.74587 0.59381 0.67366 0.0
H994 H 0.72729 0.60353 0.74127 0.0
H995 H 0.6764 0.52532 0.69813 0.0
C996 C 0.64144 0.51355 0.7148 0.0
C997 C 0.62965 0.52212 0.72919 0.0
C998 C 0.73141 0.60146 0.72646 0.0
C999 C 0.68289 0.55978 0.71849 0.0
C1000 C 0.7578 0.62004 0.72085 0.0
C1001 C 0.76352 0.61778 0.7017 0.0
C1002 C 0.71087 0.5801 0.71293 0.0
C1003 C 0.74226 0.59634 0.68854 0.0
C1004 C 0.66777 0.53235 0.70928 0.0
C1005 C 0.64563 0.54989 0.73807 0.0
N1006 N 0.71691 0.57812 0.69445 0.0
N1007 N 0.67149 0.56769 0.73263 0.0
H1008 H 0.46425 0.07421 0.7518 0.0
H1009 H 0.43074 0.16937 0.68477 0.0
H1010 H 0.52966 0.14367 0.72646 0.0
H1011 H 0.3717 0.10833 0.71907 0.0
H1012 H 0.46668 0.15838 0.69709 0.0
H1013 H 0.42958 0.08427 0.73693 0.0
C1014 C 0.47139 0.09176 0.74317 0.0
C1015 C 0.50008 0.10848 0.74073 0.0
C1016 C 0.44582 0.14742 0.70185 0.0
C1017 C 0.46005 0.11999 0.72328 0.0
C1018 C 0.42527 0.15362 0.6948 0.0
C1019 C 0.39811 0.13984 0.70092 0.0
C1020 C 0.43906 0.12714 0.71496 0.0
C1021 C 0.3923 0.11965 0.71397 0.0
C1022 C 0.45148 0.09743 0.73458 0.0
C1023 C 0.5078 0.13033 0.72881 0.0
N1024 N 0.41251 0.11396 0.72049 0.0
N1025 N 0.48792 0.1356 0.72061 0.0
H1026 H 0.87288 0.38789 0.73155 0.0
H1027 H 0.90628 0.28196 0.67574 0.0
H1028 H 0.94963 0.41706 0.70441 0.0
H1029 H 0.82093 0.266 0.67346 0.0
H1030 H 0.92342 0.33051 0.68897 0.0
H1031 H 0.85368 0.34148 0.71324 0.0
C1032 C 0.88556 0.38448 0.72166 0.0
C1033 C 0.9128 0.40614 0.71942 0.0
C1034 C 0.90097 0.31647 0.68534 0.0
C1035 C 0.89133 0.35346 0.69881 0.0
C1036 C 0.8912 0.28883 0.67785 0.0
C1037 C 0.8622 0.27011 0.6735 0.0
C1038 C 0.88155 0.32518 0.68901 0.0
C1039 C 0.84348 0.27995 0.67651 0.0
C1040 C 0.87459 0.35818 0.71117 0.0
C1041 C 0.92847 0.40085 0.70643 0.0
N1042 N 0.85345 0.30677 0.68441 0.0
N1043 N 0.91766 0.37489 0.69678 0.0
H1044 H 0.16885 0.95742 0.59646 0.0
H1045 H 0.25851 0.0625 0.68956 0.0
H1046 H 0.18235 0.9274 0.64971 0.0
H1047 H 0.28022 0.08247 0.63192 0.0
H1048 H 0.22243 0.01462 0.67621 0.0
H1049 H 0.20186 0.00552 0.61047 0.0
C1050 C 0.17865 0.96077 0.61106 0.0
C1051 C 0.17288 0.93799 0.62176 0.0
C1052 C 0.2351 0.02958 0.66655 0.0
C1053 C 0.21004 0.99327 0.63803 0.0
C1054 C 0.25557 0.05685 0.67411 0.0
C1055 C 0.27246 0.07636 0.66182 0.0
C1056 C 0.23108 0.02208 0.64654 0.0
C1057 C 0.26783 0.06796 0.64191 0.0
C1058 C 0.19738 0.9883 0.61905 0.0
C1059 C 0.1857 0.94405 0.64088 0.0
N1060 N 0.24744 0.04149 0.63486 0.0
N1061 N 0.20364 0.97109 0.6484 0.0
H1062 H 0.03314 0.18776 0.63197 0.0
H1063 H 0.90864 0.22274 0.62051 0.0
H1064 H 0.03786 0.25406 0.59957 0.0
H1065 H 0.91632 0.17513 0.66509 0.0
H1066 H 0.95324 0.23036 0.60994 0.0
H1067 H 0.9877 0.17889 0.64146 0.0
C1068 C 0.02473 0.20055 0.62687 0.0
C1069 C 0.03967 0.22192 0.61505 0.0
C1070 C 0.94517 0.21827 0.62204 0.0
C1071 C 0.98712 0.2114 0.62567 0.0
C1072 C 0.91964 0.21382 0.62808 0.0
C1073 C 0.90867 0.19831 0.64378 0.0
C1074 C 0.95978 0.20688 0.6316 0.0
C1075 C 0.92397 0.18733 0.65298 0.0
C1076 C 0.99867 0.19536 0.63226 0.0
C1077 C 0.02714 0.23721 0.60852 0.0
N1078 N 0.94868 0.19175 0.64672 0.0
N1079 N 1.00165 0.23168 0.61394 0.0
H1080 H 0.74716 0.81525 0.66503 0.0
H1081 H 0.82892 0.73357 0.63945 0.0
H1082 H 0.79251 0.82702 0.61483 0.0
H1083 H 0.79928 0.73576 0.69507 0.0
H1084 H 0.8125 0.76497 0.62915 0.0
H1085 H 0.76296 0.7833 0.67527 0.0
C1086 C 0.76052 0.81123 0.65618 0.0
C1087 C 0.76857 0.82396 0.63905 0.0
C1088 C 0.80964 0.75862 0.64362 0.0
C1089 C 0.78641 0.78706 0.65059 0.0
C1090 C 0.81898 0.74065 0.64952 0.0
C1091 C 0.81554 0.73205 0.66819 0.0
C1092 C 0.79655 0.76793 0.65641 0.0
C1093 C 0.80248 0.74193 0.68058 0.0
C1094 C 0.76944 0.79288 0.66201 0.0
C1095 C 0.78545 0.81745 0.628 0.0
N1096 N 0.79339 0.75929 0.67445 0.0
N1097 N 0.7938 0.79947 0.63396 0.0
H1098 H 0.068 0.83704 0.66739 0.0
H1099 H 0.90924 0.71234 0.63898 0.0
H1100 H 0.03586 0.79139 0.61084 0.0
H1101 H 0.93723 0.76255 0.69423 0.0
H1102 H 0.95507 0.74285 0.62819 0.0
H1103 H 0.02004 0.8121 0.67729 0.0
C1104 C 0.05067 0.82202 0.65703 0.0
C1105 C 0.05553 0.81613 0.63833 0.0
C1106 C 0.95124 0.74736 0.64265 0.0
C1107 C 1.00107 0.78739 0.64946 0.0
C1108 C 0.92504 0.72984 0.64887 0.0
C1109 C 0.91945 0.73469 0.66764 0.0
C1110 C 0.97228 0.76988 0.6553 0.0
C1111 C 0.94066 0.75797 0.67967 0.0
C1112 C 0.02339 0.80777 0.66265 0.0
C1113 C 0.03272 0.79645 0.62539 0.0
N1114 N 0.96626 0.77457 0.67335 0.0
N1115 N 0.00647 0.78263 0.63123 0.0
H1116 H 0.15309 0.19627 0.66291 0.0
H1117 H 0.282 0.17883 0.63223 0.0
H1118 H 0.19239 0.22755 0.6114 0.0
H1119 H 0.2551 0.17122 0.68949 0.0
H1120 H 0.24582 0.19062 0.62201 0.0
H1121 H 0.18649 0.1803 0.67036 0.0
C1122 C 0.16874 0.19954 0.6531 0.0
C1123 C 0.1702 0.21317 0.63659 0.0
C1124 C 0.24788 0.18628 0.63678 0.0
C1125 C 0.20865 0.19521 0.64501 0.0
C1126 C 0.26841 0.17945 0.64261 0.0
C1127 C 0.2717 0.17416 0.66179 0.0
C1128 C 0.23032 0.18741 0.65016 0.0
C1129 C 0.25356 0.17534 0.67461 0.0
C1130 C 0.18786 0.19054 0.65737 0.0
C1131 C 0.19076 0.21704 0.62429 0.0
N1132 N 0.23371 0.18177 0.66857 0.0
N1133 N 0.20934 0.20812 0.62877 0.0
H1134 H 0.77411 0.96094 0.62307 0.0
H1135 H 0.78768 0.09437 0.68564 0.0
H1136 H 0.74642 0.95858 0.67969 0.0
H1137 H 0.80959 0.09668 0.62712 0.0
H1138 H 0.77105 0.04419 0.6831 0.0
H1139 H 0.78558 0.01017 0.62345 0.0
C1140 C 0.77016 0.97082 0.63545 0.0
C1141 C 0.75931 0.95606 0.65135 0.0
C1142 C 0.77937 0.0556 0.67076 0.0
C1143 C 0.77257 0.01195 0.65208 0.0
C1144 C 0.78894 0.08433 0.67221 0.0
C1145 C 0.80019 0.09983 0.65659 0.0
C1146 C 0.78116 0.04218 0.6536 0.0
C1147 C 0.80113 0.08558 0.63954 0.0
C1148 C 0.77674 0.99882 0.63571 0.0
C1149 C 0.7547 0.96948 0.66715 0.0
N1150 N 0.79189 0.05757 0.63853 0.0
N1151 N 0.7615 0.99676 0.66717 0.0
H1152 H 0.50838 0.37861 0.73782 0.0
H1153 H 0.37461 0.25455 0.67311 0.0
H1154 H 0.46253 0.39091 0.69071 0.0
H1155 H 0.40886 0.24109 0.72617 0.0
H1156 H 0.40603 0.30484 0.68039 0.0
H1157 H 0.47148 0.32869 0.73524 0.0
C1158 C 0.49021 0.37078 0.72719 0.0
C1159 C 0.48815 0.3885 0.71446 0.0
C1160 C 0.40665 0.29101 0.69056 0.0
C1161 C 0.4465 0.33193 0.71116 0.0
C1162 C 0.38876 0.26219 0.68636 0.0
C1163 C 0.3893 0.24354 0.69897 0.0
C1164 C 0.4256 0.30146 0.70741 0.0
C1165 C 0.40785 0.25475 0.71602 0.0
C1166 C 0.46927 0.3424 0.72568 0.0
C1167 C 0.46462 0.37769 0.70079 0.0
N1168 N 0.42554 0.28305 0.71967 0.0
N1169 N 0.44479 0.35001 0.69939 0.0
H1170 H 0.60557 0.10249 0.69273 0.0
H1171 H 0.77416 0.19077 0.71155 0.0
H1172 H 0.65134 0.14633 0.74774 0.0
H1173 H 0.72866 0.14851 0.65596 0.0
H1174 H 0.72949 0.17816 0.7243 0.0
H1175 H 0.65024 0.12302 0.67811 0.0
C1176 C 0.62504 0.11702 0.70159 0.0
C1177 C 0.62498 0.12308 0.72134 0.0
C1178 C 0.72926 0.17178 0.70928 0.0
C1179 C 0.67608 0.14599 0.705 0.0
C1180 C 0.75482 0.17892 0.70197 0.0
C1181 C 0.75528 0.17049 0.68265 0.0
C1182 C 0.7038 0.15597 0.69724 0.0
C1183 C 0.72943 0.1554 0.67095 0.0
C1184 C 0.65054 0.12856 0.69332 0.0
C1185 C 0.65065 0.14148 0.73237 0.0
N1186 N 0.70478 0.14847 0.67845 0.0
N1187 N 0.67522 0.15213 0.72409 0.0
H1188 H 0.95322 0.56843 0.74414 0.0
H1189 H 0.84612 0.59003 0.67356 0.0
H1190 H 0.90837 0.51457 0.69176 0.0
H1191 H 0.89547 0.64639 0.72431 0.0
H1192 H 0.86598 0.56018 0.681 0.0
H1193 H 0.92961 0.59548 0.73818 0.0
C1194 C 0.93825 0.56233 0.73142 0.0
C1195 C 0.9326 0.53951 0.71836 0.0
C1196 C 0.87236 0.57904 0.69053 0.0
C1197 C 0.90567 0.5701 0.71135 0.0
C1198 C 0.86099 0.59607 0.68631 0.0
C1199 C 0.86926 0.62087 0.69825 0.0
C1200 C 0.89207 0.58683 0.70683 0.0
C1201 C 0.8886 0.6276 0.71459 0.0
C1202 C 0.92481 0.57771 0.72799 0.0
C1203 C 0.91315 0.5322 0.7021 0.0
N1204 N 0.89938 0.61074 0.71835 0.0
N1205 N 0.90038 0.54753 0.69899 0.0
H1206 H 0.41303 0.89741 0.21999 0.0
H1207 H 0.53666 0.01721 0.16782 0.0
H1208 H 0.49396 0.95969 0.2495 0.0
H1209 H 0.45343 0.95977 0.13921 0.0
H1210 H 0.52217 0.99466 0.1974 0.0
H1211 H 0.42831 0.91799 0.18981 0.0
C1212 C 0.43402 0.91537 0.22015 0.0
C1213 C 0.45217 0.92681 0.23741 0.0
C1214 C 0.50707 0.98695 0.18465 0.0
C1215 C 0.4699 0.95044 0.20277 0.0
C1216 C 0.51529 0.99995 0.16775 0.0
C1217 C 0.49624 0.99053 0.15093 0.0
C1218 C 0.47956 0.96425 0.18484 0.0
C1219 C 0.46898 0.96763 0.15171 0.0
C1220 C 0.44277 0.92707 0.20287 0.0
C1221 C 0.47931 0.94985 0.23658 0.0
N1222 N 0.46146 0.95535 0.16836 0.0
N1223 N 0.48727 0.96093 0.21961 0.0
H1224 H 0.03243 0.47523 0.25265 0.0
H1225 H 0.03267 0.54011 0.15286 0.0
H1226 H 0.07676 0.5644 0.24771 0.0
H1227 H 0.98458 0.45165 0.15982 0.0
H1228 H 0.04964 0.54976 0.18731 0.0
H1229 H 0.01493 0.46655 0.21853 0.0
C1230 C 0.03855 0.49301 0.24434 0.0
C1231 C 0.0563 0.52058 0.25301 0.0
C1232 C 0.03534 0.52826 0.18129 0.0
C1233 C 0.03613 0.51079 0.21382 0.0
C1234 C 0.02579 0.52271 0.1616 0.0
C1235 C 0.00713 0.49502 0.15342 0.0
C1236 C 0.02628 0.50594 0.19288 0.0
C1237 C 0.99863 0.47335 0.16552 0.0
C1238 C 0.02843 0.48804 0.22486 0.0
C1239 C 0.06304 0.54282 0.24162 0.0
N1240 N 0.0083 0.47927 0.18458 0.0
N1241 N 0.05308 0.53744 0.22257 0.0
H1242 H 0.43773 0.51015 0.21676 0.0
H1243 H 0.55089 0.52255 0.1458 0.0
H1244 H 0.52725 0.55427 0.23412 0.0
H1245 H 0.46908 0.50945 0.12512 0.0
H1246 H 0.54036 0.52655 0.1789 0.0
H1247 H 0.44681 0.50211 0.18366 0.0
C1248 C 0.45928 0.51798 0.21359 0.0
C1249 C 0.48181 0.53297 0.22812 0.0
C1250 C 0.52471 0.52271 0.16709 0.0
C1251 C 0.49229 0.52373 0.19046 0.0
C1252 C 0.53071 0.52053 0.14815 0.0
C1253 C 0.51102 0.51603 0.13251 0.0
C1254 C 0.49866 0.52 0.17054 0.0
C1255 C 0.48488 0.51272 0.13662 0.0
C1256 C 0.46444 0.51351 0.19473 0.0
C1257 C 0.50933 0.54285 0.22327 0.0
N1258 N 0.4795 0.51484 0.15523 0.0
N1259 N 0.51381 0.53796 0.20486 0.0
H1260 H 0.95385 0.42819 0.78377 0.0
H1261 H 0.9878 0.52174 0.88409 0.0
H1262 H 0.94106 0.49931 0.79022 0.0
H1263 H 0.98178 0.44054 0.8794 0.0
H1264 H 0.97175 0.51459 0.84963 0.0
H1265 H 0.96461 0.43269 0.81864 0.0
C1266 C 0.95288 0.44453 0.79249 0.0
C1267 C 0.94643 0.46336 0.78391 0.0
C1268 C 0.97377 0.49826 0.85616 0.0
C1269 C 0.95952 0.46904 0.82402 0.0
C1270 C 0.98308 0.5024 0.87579 0.0
C1271 C 0.98627 0.48176 0.8846 0.0
C1272 C 0.96786 0.47342 0.84516 0.0
C1273 C 0.97946 0.45692 0.87322 0.0
C1274 C 0.95925 0.44719 0.81245 0.0
C1275 C 0.94629 0.48454 0.79608 0.0
N1276 N 0.9708 0.45354 0.85407 0.0
N1277 N 0.95289 0.48689 0.81548 0.0
H1278 H 0.53693 0.4428 0.78144 0.0
H1279 H 0.52827 0.54711 0.86188 0.0
H1280 H 0.57831 0.53271 0.78008 0.0
H1281 H 0.4987 0.45974 0.86836 0.0
H1282 H 0.54535 0.54177 0.83131 0.0
H1283 H 0.52161 0.44811 0.81285 0.0
C1284 C 0.54284 0.46366 0.78777 0.0
C1285 C 0.55892 0.48735 0.77811 0.0
C1286 C 0.53518 0.52376 0.83942 0.0
C1287 C 0.54143 0.49357 0.81402 0.0
C1288 C 0.52524 0.52675 0.85681 0.0
C1289 C 0.51193 0.50381 0.86765 0.0
C1290 C 0.53164 0.49756 0.83269 0.0
C1291 C 0.50901 0.47803 0.86053 0.0
C1292 C 0.53419 0.46668 0.80573 0.0
C1293 C 0.56622 0.51389 0.78709 0.0
N1294 N 0.51866 0.47557 0.84346 0.0
N1295 N 0.55728 0.51626 0.80446 0.0
H1296 H 0.57399 0.0977 0.81034 0.0
H1297 H 0.45851 0.00067 0.87816 0.0
H1298 H 0.48429 0.0543 0.79357 0.0
H1299 H 0.54734 0.05128 0.89745 0.0
H1300 H 0.46771 0.01948 0.84689 0.0
H1301 H 0.56488 0.08035 0.84213 0.0
C1302 C 0.55238 0.08452 0.81334 0.0
C1303 C 0.52988 0.07751 0.79925 0.0
C1304 C 0.4852 0.02656 0.85797 0.0
C1305 C 0.51926 0.05758 0.83565 0.0
C1306 C 0.47997 0.01569 0.87581 0.0
C1307 C 0.50218 0.02435 0.89048 0.0
C1308 C 0.51289 0.04613 0.85465 0.0
C1309 C 0.52952 0.04421 0.88666 0.0
C1310 C 0.54718 0.07472 0.83153 0.0
C1311 C 0.50229 0.06057 0.80404 0.0
N1312 N 0.53411 0.05431 0.86912 0.0
N1313 N 0.49779 0.05112 0.82177 0.0
H1314 H 0.07598 0.22675 0.55142 0.0
H1315 H 0.20178 0.34828 0.50182 0.0
H1316 H 0.15694 0.28687 0.58197 0.0
H1317 H 0.11883 0.29246 0.47221 0.0
H1318 H 0.18656 0.3242 0.53077 0.0
H1319 H 0.09221 0.24848 0.52173 0.0
C1320 C 0.09718 0.24448 0.55191 0.0
C1321 C 0.11504 0.25501 0.56932 0.0
C1322 C 0.17169 0.31716 0.51793 0.0
C1323 C 0.13386 0.27995 0.53525 0.0
C1324 C 0.18032 0.33104 0.50139 0.0
C1325 C 0.16155 0.32255 0.4845 0.0
C1326 C 0.14404 0.29454 0.51767 0.0
C1327 C 0.13416 0.29963 0.48479 0.0
C1328 C 0.10647 0.25682 0.53491 0.0
C1329 C 0.14249 0.27776 0.56891 0.0
N1330 N 0.12623 0.28652 0.50109 0.0
N1331 N 0.15097 0.28951 0.55222 0.0
H1332 H 0.7697 0.85721 0.57608 0.0
H1333 H 0.65149 0.84898 0.49849 0.0
H1334 H 0.70145 0.86947 0.59137 0.0
H1335 H 0.71623 0.83057 0.48409 0.0
H1336 H 0.67156 0.86024 0.53226 0.0
H1337 H 0.75276 0.85153 0.54201 0.0
C1338 C 0.75116 0.85877 0.57226 0.0
C1339 C 0.73681 0.86355 0.58662 0.0
C1340 C 0.68144 0.85385 0.5217 0.0
C1341 C 0.71733 0.85718 0.54757 0.0
C1342 C 0.66989 0.84724 0.50242 0.0
C1343 C 0.68206 0.83861 0.4884 0.0
C1344 C 0.70536 0.85183 0.52706 0.0
C1345 C 0.70626 0.83734 0.49432 0.0
C1346 C 0.74155 0.85561 0.55279 0.0
C1347 C 0.71325 0.86595 0.5808 0.0
N1348 N 0.71701 0.84374 0.51319 0.0
N1349 N 0.70413 0.86254 0.56173 0.0
H1350 H 0.1484 0.83156 0.56832 0.0
H1351 H 0.14776 0.87634 0.46115 0.0
H1352 H 0.13601 0.89992 0.55389 0.0
H1353 H 0.17482 0.81833 0.47699 0.0
H1354 H 0.13768 0.88091 0.49434 0.0
H1355 H 0.15271 0.82235 0.53428 0.0
C1356 C 0.14632 0.84446 0.55796 0.0
C1357 C 0.14196 0.86662 0.56397 0.0
C1358 C 0.14569 0.86707 0.49055 0.0
C1359 C 0.147 0.8563 0.52502 0.0
C1360 C 0.15123 0.86426 0.47155 0.0
C1361 C 0.16221 0.84695 0.46625 0.0
C1362 C 0.15104 0.8524 0.50444 0.0
C1363 C 0.1667 0.83216 0.48047 0.0
C1364 C 0.14895 0.8393 0.53856 0.0
C1365 C 0.13973 0.88285 0.54993 0.0
N1366 N 0.16114 0.83526 0.49891 0.0
N1367 N 0.14229 0.87738 0.53115 0.0
H1368 H 0.60685 0.83377 0.12352 0.0
H1369 H 0.65136 0.77713 0.21454 0.0
H1370 H 0.63115 0.77041 0.11905 0.0
H1371 H 0.65048 0.85506 0.2184 0.0
H1372 H 0.63726 0.77057 0.17983 0.0
H1373 H 0.61711 0.83873 0.15868 0.0
C1374 C 0.61434 0.82092 0.12987 0.0
C1375 C 0.61798 0.80154 0.11822 0.0
C1376 C 0.64007 0.78907 0.18827 0.0
C1377 C 0.62932 0.80683 0.15845 0.0
C1378 C 0.64791 0.79271 0.2081 0.0
C1379 C 0.65219 0.81672 0.21933 0.0
C1380 C 0.63626 0.80947 0.17961 0.0
C1381 C 0.64772 0.83641 0.2102 0.0
C1382 C 0.62006 0.82369 0.14995 0.0
C1383 C 0.6274 0.78521 0.12737 0.0
N1384 N 0.64 0.83236 0.19086 0.0
N1385 N 0.63268 0.78821 0.14688 0.0
H1386 H 0.21235 0.77299 0.12299 0.0
H1387 H 0.19385 0.8804 0.19464 0.0
H1388 H 0.24189 0.85943 0.11333 0.0
H1389 H 0.172 0.79662 0.20708 0.0
H1390 H 0.21007 0.8726 0.16428 0.0
H1391 H 0.19604 0.78075 0.15333 0.0
C1392 C 0.21532 0.79358 0.12721 0.0
C1393 C 0.2285 0.81558 0.11557 0.0
C1394 C 0.20175 0.85592 0.17365 0.0
C1395 C 0.21 0.82468 0.15039 0.0
C1396 C 0.19231 0.8603 0.19094 0.0
C1397 C 0.1815 0.83912 0.20344 0.0
C1398 C 0.20026 0.83011 0.16871 0.0
C1399 C 0.18044 0.81365 0.198 0.0
C1400 C 0.20614 0.79805 0.1446 0.0
C1401 C 0.23213 0.84194 0.12194 0.0
N1402 N 0.18962 0.80984 0.18104 0.0
N1403 N 0.22286 0.84572 0.13886 0.0
H1404 H 0.21452 0.38353 0.12557 0.0
H1405 H 0.17737 0.40447 0.23233 0.0
H1406 H 0.20481 0.45338 0.14592 0.0
H1407 H 0.192 0.33768 0.21239 0.0
H1408 H 0.18878 0.42366 0.20127 0.0
H1409 H 0.20818 0.36767 0.15773 0.0
C1410 C 0.21148 0.39583 0.13685 0.0
C1411 C 0.21022 0.4199 0.13293 0.0
C1412 C 0.18955 0.40484 0.20371 0.0
C1413 C 0.20227 0.40136 0.16988 0.0
C1414 C 0.18315 0.39391 0.2215 0.0
C1415 C 0.18353 0.36927 0.22502 0.0
C1416 C 0.19641 0.39107 0.18928 0.0
C1417 C 0.19088 0.3564 0.21028 0.0
C1418 C 0.2076 0.38657 0.15522 0.0
C1419 C 0.20559 0.43452 0.14815 0.0
N1420 N 0.19694 0.36739 0.1931 0.0
N1421 N 0.20167 0.42496 0.16589 0.0
H1422 H 0.83017 0.62527 0.91334 0.0
H1423 H 0.7896 0.62584 0.80103 0.0
H1424 H 0.74821 0.56792 0.88294 0.0
H1425 H 0.87046 0.68536 0.83196 0.0
H1426 H 0.77485 0.60299 0.83049 0.0
H1427 H 0.84609 0.64589 0.88331 0.0
C1428 C 0.81558 0.61677 0.90031 0.0
C1429 C 0.78776 0.59478 0.90072 0.0
C1430 C 0.79584 0.62102 0.83084 0.0
C1431 C 0.80581 0.61868 0.86624 0.0
C1432 C 0.80436 0.634 0.81397 0.0
C1433 C 0.83136 0.6576 0.81396 0.0
C1434 C 0.81442 0.63161 0.8479 0.0
C1435 C 0.84934 0.66747 0.83131 0.0
C1436 C 0.82465 0.62873 0.88318 0.0
C1437 C 0.76973 0.58504 0.8834 0.0
N1438 N 0.84057 0.65443 0.84754 0.0
N1439 N 0.77904 0.59706 0.8669 0.0
H1440 H 0.42008 0.23723 0.9162 0.0
H1441 H 0.33496 0.12607 0.82344 0.0
H1442 H 0.38124 0.14726 0.91612 0.0
H1443 H 0.37599 0.21579 0.82118 0.0
H1444 H 0.35191 0.13403 0.85761 0.0
H1445 H 0.40399 0.23047 0.88165 0.0
C1446 C 0.40814 0.21609 0.90895 0.0
C1447 C 0.40221 0.19279 0.91905 0.0
C1448 C 0.35728 0.15204 0.84969 0.0
C1449 C 0.38386 0.18492 0.87959 0.0
C1450 C 0.34747 0.14749 0.83017 0.0
C1451 C 0.3539 0.17029 0.81944 0.0
C1452 C 0.37365 0.17964 0.8587 0.0
C1453 C 0.37069 0.1976 0.82887 0.0
C1454 C 0.39909 0.21225 0.88922 0.0
C1455 C 0.38679 0.16588 0.90888 0.0
N1456 N 0.37989 0.20153 0.84799 0.0
N1457 N 0.37818 0.16272 0.88979 0.0
H1458 H 0.80491 0.16028 0.89527 0.0
H1459 H 0.80836 0.21096 0.78968 0.0
H1460 H 0.79444 0.23042 0.88274 0.0
H1461 H 0.8338 0.15135 0.80442 0.0
H1462 H 0.79681 0.21377 0.82271 0.0
H1463 H 0.80913 0.15222 0.86109 0.0
C1464 C 0.80311 0.17375 0.88528 0.0
C1465 C 0.79941 0.19613 0.89189 0.0
C1466 C 0.80477 0.19995 0.8187 0.0
C1467 C 0.80453 0.18719 0.85276 0.0
C1468 C 0.81117 0.19817 0.79979 0.0
C1469 C 0.82216 0.18095 0.79427 0.0
C1470 C 0.80924 0.18431 0.83221 0.0
C1471 C 0.82572 0.16517 0.80811 0.0
C1472 C 0.80574 0.16927 0.86579 0.0
C1473 C 0.79762 0.21314 0.87831 0.0
N1474 N 0.81935 0.16727 0.82643 0.0
N1475 N 0.80026 0.20837 0.85942 0.0
H1476 H 0.32046 0.18507 0.44924 0.0
H1477 H 0.28207 0.1211 0.55013 0.0
H1478 H 0.2434 0.10844 0.45564 0.0
H1479 H 0.35646 0.19991 0.54337 0.0
H1480 H 0.2656 0.11765 0.51613 0.0
H1481 H 0.33176 0.19269 0.48415 0.0
C1482 C 0.30561 0.17006 0.45798 0.0
C1483 C 0.28097 0.14597 0.44939 0.0
C1484 C 0.28545 0.13577 0.52212 0.0
C1485 C 0.29423 0.15426 0.48955 0.0
C1486 C 0.29481 0.13781 0.54156 0.0
C1487 C 0.32085 0.16069 0.54959 0.0
C1488 C 0.30223 0.15675 0.51061 0.0
C1489 C 0.33656 0.1816 0.53772 0.0
C1490 C 0.31224 0.17431 0.47797 0.0
C1491 C 0.26287 0.12705 0.46157 0.0
N1492 N 0.32709 0.17905 0.51884 0.0
N1493 N 0.26998 0.13147 0.481 0.0
H1494 H 0.91451 0.19364 0.44457 0.0
H1495 H 0.81794 0.12165 0.52845 0.0
H1496 H 0.87709 0.10517 0.45134 0.0
H1497 H 0.8749 0.21104 0.53072 0.0
H1498 H 0.83584 0.11499 0.49848 0.0
H1499 H 0.8972 0.20027 0.47468 0.0
C1500 C 0.90288 0.17561 0.45242 0.0
C1501 C 0.89737 0.14877 0.4453 0.0
C1502 C 0.84445 0.13606 0.50556 0.0
C1503 C 0.87688 0.15623 0.47969 0.0
C1504 C 0.83411 0.13988 0.52258 0.0
C1505 C 0.84495 0.16694 0.53209 0.0
C1506 C 0.86555 0.15949 0.49784 0.0
C1507 C 0.86613 0.18979 0.52396 0.0
C1508 C 0.89285 0.17942 0.46958 0.0
C1509 C 0.88155 0.12617 0.45601 0.0
N1510 N 0.87564 0.18556 0.50726 0.0
N1511 N 0.87181 0.1304 0.47259 0.0
H1512 H 0.86099 0.77496 0.47719 0.0
H1513 H 0.84572 0.65217 0.54039 0.0
H1514 H 0.86646 0.70329 0.45499 0.0
H1515 H 0.83889 0.72294 0.5628 0.0
H1516 H 0.85399 0.67104 0.50915 0.0
H1517 H 0.85338 0.75668 0.50873 0.0
C1518 C 0.86051 0.75534 0.47891 0.0
C1519 C 0.86444 0.7407 0.46336 0.0
C1520 C 0.85072 0.68249 0.52089 0.0
C1521 C 0.85594 0.71973 0.49954 0.0
C1522 C 0.84583 0.67163 0.53874 0.0
C1523 C 0.84149 0.6859 0.55429 0.0
C1524 C 0.85124 0.70785 0.51847 0.0
C1525 C 0.84242 0.71133 0.55132 0.0
C1526 C 0.85631 0.74498 0.49696 0.0
C1527 C 0.86396 0.71555 0.46657 0.0
N1528 N 0.84711 0.72143 0.53377 0.0
N1529 N 0.85976 0.70588 0.48425 0.0
loop_
_geom_bond_atom_site_label_1
_geom_bond_atom_site_label_2
_geom_bond_distance
_geom_bond_site_symmetry_2
_ccdc_geom_bond_type
H0 C3 0.929 . S
H1 C6 0.929 . S
H2 C8 0.930 . S
C3 H0 0.929 . S
C3 C4 1.398 . S
C3 C5 1.396 . S
C4 C3 1.398 . S
C4 C8 1.407 . S
C5 C3 1.396 . S
C5 C6 1.394 . S
C6 H1 0.929 . S
C6 C5 1.394 . S
C6 C7 1.382 . S
C7 C6 1.382 . S
C7 C8 1.392 . S
C7 N9 1.420 . S
C8 H2 0.930 . S
C8 C4 1.407 . S
C8 C7 1.392 . S
N9 C7 1.420 . S
N9 C10 1.244 . S
C10 N9 1.244 . S
H11 C14 0.929 . S
H12 C17 0.929 . S
H13 C19 0.930 . S
C14 H11 0.929 . S
C14 C15 1.398 . S
C14 C16 1.396 . S
C15 C14 1.398 . S
C15 C19 1.407 . S
C16 C14 1.396 . S
C16 C17 1.394 . S
C17 H12 0.929 . S
C17 C16 1.394 . S
C17 C18 1.382 . S
C18 C17 1.382 . S
C18 C19 1.392 . S
C18 N20 1.420 . S
C19 H13 0.930 . S
C19 C15 1.407 . S
C19 C18 1.392 . S
N20 C18 1.420 . S
N20 C21 1.244 . S
C21 N20 1.244 . S
H22 C25 0.929 . S
H23 C28 0.929 . S
H24 C30 0.930 . S
C25 H22 0.929 . S
C25 C26 1.398 . S
C25 C27 1.396 . S
C26 C25 1.398 . S
C26 C30 1.407 . S
C27 C25 1.396 . S
C27 C28 1.394 . S
C28 H23 0.929 . S
C28 C27 1.394 . S
C28 C29 1.382 . S
C29 C28 1.382 . S
C29 C30 1.392 . S
C29 N31 1.420 . S
C30 H24 0.930 . S
C30 C26 1.407 . S
C30 C29 1.392 . S
N31 C29 1.420 . S
N31 C32 1.244 . S
C32 N31 1.244 . S
H33 C36 0.929 . S
H34 C39 0.929 . S
H35 C41 0.930 . S
C36 H33 0.929 . S
C36 C37 1.398 . S
C36 C38 1.396 . S
C37 C36 1.398 . S
C37 C41 1.407 . S
C38 C36 1.396 . S
C38 C39 1.394 . S
C39 H34 0.929 . S
C39 C38 1.394 . S
C39 C40 1.382 . S
C40 C39 1.382 . S
C40 C41 1.392 . S
C40 N42 1.420 . S
C41 H35 0.930 . S
C41 C37 1.407 . S
C41 C40 1.392 . S
N42 C40 1.420 . S
N42 C43 1.244 . S
C43 N42 1.244 . S
H44 C47 0.929 . S
H45 C50 0.929 . S
H46 C52 0.930 . S
C47 H44 0.929 . S
C47 C48 1.398 . S
C47 C49 1.396 . S
C48 C47 1.398 . S
C48 C52 1.407 . S
C49 C47 1.396 . S
C49 C50 1.394 . S
C50 H45 0.929 . S
C50 C49 1.394 . S
C50 C51 1.382 . S
C51 C50 1.382 . S
C51 C52 1.392 . S
C51 N53 1.420 . S
C52 H46 0.930 . S
C52 C48 1.407 . S
C52 C51 1.392 . S
N53 C51 1.420 . S
N53 C54 1.244 . S
C54 N53 1.244 . S
H55 C58 0.929 . S
H56 C61 0.929 . S
H57 C63 0.930 . S
C58 H55 0.929 . S
C58 C59 1.398 . S
C58 C60 1.396 . S
C59 C58 1.398 . S
C59 C63 1.407 . S
C60 C58 1.396 . S
C60 C61 1.394 . S
C61 H56 0.929 . S
C61 C60 1.394 . S
C61 C62 1.382 . S
C62 C61 1.382 . S
C62 C63 1.392 . S
C62 N64 1.420 . S
C63 H57 0.930 . S
C63 C59 1.407 . S
C63 C62 1.392 . S
N64 C62 1.420 . S
N64 C65 1.244 . S
C65 N64 1.244 . S
H66 C69 0.929 . S
H67 C72 0.929 . S
H68 C74 0.930 . S
C69 H66 0.929 . S
C69 C70 1.398 . S
C69 C71 1.396 . S
C70 C69 1.398 . S
C70 C74 1.407 . S
C71 C69 1.396 . S
C71 C72 1.394 . S
C72 H67 0.929 . S
C72 C71 1.394 . S
C72 C73 1.382 . S
C73 C72 1.382 . S
C73 C74 1.392 . S
C73 N75 1.420 . S
C74 H68 0.930 . S
C74 C70 1.407 . S
C74 C73 1.392 . S
N75 C73 1.420 . S
N75 C76 1.244 . S
C76 N75 1.244 . S
H77 C80 0.929 . S
H78 C83 0.929 . S
H79 C85 0.930 . S
C80 H77 0.929 . S
C80 C81 1.398 . S
C80 C82 1.396 . S
C81 C80 1.398 . S
C81 C85 1.407 . S
C82 C80 1.396 . S
C82 C83 1.394 . S
C83 H78 0.929 . S
C83 C82 1.394 . S
C83 C84 1.382 . S
C84 C83 1.382 . S
C84 C85 1.392 . S
C84 N86 1.420 . S
C85 H79 0.930 . S
C85 C81 1.407 . S
C85 C84 1.392 . S
N86 C84 1.420 . S
N86 C87 1.244 . S
C87 N86 1.244 . S
H88 C91 0.929 . S
H89 C94 0.929 . S
H90 C96 0.930 . S
C91 H88 0.929 . S
C91 C92 1.398 . S
C91 C93 1.396 . S
C92 C91 1.398 . S
C92 C96 1.407 . S
C93 C91 1.396 . S
C93 C94 1.394 . S
C94 H89 0.929 . S
C94 C93 1.394 . S
C94 C95 1.382 . S
C95 C94 1.382 . S
C95 C96 1.392 . S
C95 N97 1.420 . S
C96 H90 0.930 . S
C96 C92 1.407 . S
C96 C95 1.392 . S
N97 C95 1.420 . S
N97 C98 1.244 . S
C98 N97 1.244 . S
H99 C102 0.929 . S
H100 C105 0.929 . S
H101 C107 0.930 . S
C102 H99 0.929 . S
C102 C103 1.398 . S
C102 C104 1.396 . S
C103 C102 1.398 . S
C103 C107 1.407 . S
C104 C102 1.396 . S
C104 C105 1.394 . S
C105 H100 0.929 . S
C105 C104 1.394 . S
C105 C106 1.382 . S
C106 C105 1.382 . S
C106 C107 1.392 . S
C106 N108 1.420 . S
C107 H101 0.930 . S
C107 C103 1.407 . S
C107 C106 1.392 . S
N108 C106 1.420 . S
N108 C109 1.244 . S
C109 N108 1.244 . S
H110 C113 0.929 . S
H111 C116 0.929 . S
H112 C118 0.930 . S
C113 H110 0.929 . S
C113 C114 1.398 . S
C113 C115 1.396 . S
C114 C113 1.398 . S
C114 C118 1.407 . S
C115 C113 1.396 . S
C115 C116 1.394 . S
C116 H111 0.929 . S
C116 C115 1.394 . S
C116 C117 1.382 . S
C117 C116 1.382 . S
C117 C118 1.392 . S
C117 N119 1.420 . S
C118 H112 0.930 . S
C118 C114 1.407 . S
C118 C117 1.392 . S
N119 C117 1.420 . S
N119 C120 1.244 . S
C120 N119 1.244 . S
H121 C124 0.929 . S
H122 C127 0.929 . S
H123 C129 0.930 . S
C124 H121 0.929 . S
C124 C125 1.398 . S
C124 C126 1.396 . S
C125 C124 1.398 . S
C125 C129 1.407 . S
C126 C124 1.396 . S
C126 C127 1.394 . S
C127 H122 0.929 . S
C127 C126 1.394 . S
C127 C128 1.382 . S
C128 C127 1.382 . S
C128 C129 1.392 . S
C128 N130 1.420 . S
C129 H123 0.930 . S
C129 C125 1.407 . S
C129 C128 1.392 . S
N130 C128 1.420 . S
N130 C131 1.244 . S
C131 N130 1.244 . S
H132 C135 0.929 . S
H133 C138 0.929 . S
H134 C140 0.930 . S
C135 H132 0.929 . S
C135 C136 1.398 . S
C135 C137 1.396 . S
C136 C135 1.398 . S
C136 C140 1.407 . S
C137 C135 1.396 . S
C137 C138 1.394 . S
C138 H133 0.929 . S
C138 C137 1.394 . S
C138 C139 1.382 . S
C139 C138 1.382 . S
C139 C140 1.392 . S
C139 N141 1.420 . S
C140 H134 0.930 . S
C140 C136 1.407 . S
C140 C139 1.392 . S
N141 C139 1.420 . S
N141 C142 1.244 . S
C142 N141 1.244 . S
H143 C146 0.929 . S
H144 C149 0.929 . S
H145 C151 0.930 . S
C146 H143 0.929 . S
C146 C147 1.398 . S
C146 C148 1.396 . S
C147 C146 1.398 . S
C147 C151 1.407 . S
C148 C146 1.396 . S
C148 C149 1.394 . S
C149 H144 0.929 . S
C149 C148 1.394 . S
C149 C150 1.382 . S
C150 C149 1.382 . S
C150 C151 1.392 . S
C150 N152 1.420 . S
C151 H145 0.930 . S
C151 C147 1.407 . S
C151 C150 1.392 . S
N152 C150 1.420 . S
N152 C153 1.244 . S
C153 N152 1.244 . S
H154 C157 0.929 . S
H155 C160 0.929 . S
H156 C162 0.930 . S
C157 H154 0.929 . S
C157 C158 1.398 . S
C157 C159 1.396 . S
C158 C157 1.398 . S
C158 C162 1.407 . S
C159 C157 1.396 . S
C159 C160 1.394 . S
C160 H155 0.929 . S
C160 C159 1.394 . S
C160 C161 1.382 . S
C161 C160 1.382 . S
C161 C162 1.392 . S
C161 N163 1.420 . S
C162 H156 0.930 . S
C162 C158 1.407 . S
C162 C161 1.392 . S
N163 C161 1.420 . S
N163 C164 1.244 . S
C164 N163 1.244 . S
H165 C168 0.929 . S
H166 C171 0.929 . S
H167 C173 0.930 . S
C168 H165 0.929 . S
C168 C169 1.398 . S
C168 C170 1.396 . S
C169 C168 1.398 . S
C169 C173 1.407 . S
C170 C168 1.396 . S
C170 C171 1.394 . S
C171 H166 0.929 . S
C171 C170 1.394 . S
C171 C172 1.382 . S
C172 C171 1.382 . S
C172 C173 1.392 . S
C172 N174 1.420 . S
C173 H167 0.930 . S
C173 C169 1.407 . S
C173 C172 1.392 . S
N174 C172 1.420 . S
N174 C175 1.244 . S
C175 N174 1.244 . S
H176 C179 0.929 . S
H177 C182 0.929 . S
H178 C184 0.930 . S
C179 H176 0.929 . S
C179 C180 1.398 . S
C179 C181 1.396 . S
C180 C179 1.398 . S
C180 C184 1.407 . S
C181 C179 1.396 . S
C181 C182 1.394 . S
C182 H177 0.929 . S
C182 C181 1.394 . S
C182 C183 1.382 . S
C183 C182 1.382 . S
C183 C184 1.392 . S
C183 N185 1.420 . S
C184 H178 0.930 . S
C184 C180 1.407 . S
C184 C183 1.392 . S
N185 C183 1.420 . S
N185 C186 1.244 . S
C186 N185 1.244 . S
H187 C190 0.929 . S
H188 C193 0.929 . S
H189 C195 0.930 . S
C190 H187 0.929 . S
C190 C191 1.398 . S
C190 C192 1.396 . S
C191 C190 1.398 . S
C191 C195 1.407 . S
C192 C190 1.396 . S
C192 C193 1.394 . S
C193 H188 0.929 . S
C193 C192 1.394 . S
C193 C194 1.382 . S
C194 C193 1.382 . S
C194 C195 1.392 . S
C194 N196 1.420 . S
C195 H189 0.930 . S
C195 C191 1.407 . S
C195 C194 1.392 . S
N196 C194 1.420 . S
N196 C197 1.244 . S
C197 N196 1.244 . S
Tb198 C208 2.825 1_565 S
Tb198 O209 2.347 1_565 S
Tb198 O212 2.366 1_565 S
Tb198 O217 2.418 . S
Tb198 O218 2.384 . S
Tb198 O221 2.479 . S
Tb198 O222 2.471 1_565 S
Eu199 O210 2.418 . S
Eu199 O211 2.384 . S
Eu199 O214 2.479 . S
Eu199 O215 2.471 1_545 S
Eu199 O216 2.347 1_545 S
Eu199 O219 2.366 1_545 S
Eu199 C229 2.825 . S
C200 O216 1.259 . S
C200 O217 1.265 1_554 S
C201 O218 1.255 1_554 S
C201 O219 1.265 . S
C202 C204 1.380 1_545 S
C202 C205 1.374 . S
C202 C208 1.507 . S
C203 C204 1.384 1_545 S
C203 C207 1.387 . S
C203 H230 0.930 1_545 S
C204 C202 1.380 1_565 S
C204 C203 1.384 1_565 S
C204 H231 0.931 . S
C205 C202 1.374 . S
C205 C206 1.390 . S
C205 H232 0.930 . S
C206 C205 1.390 . S
C206 C207 1.391 . S
C206 H233 0.930 . S
C207 C203 1.387 . S
C207 C206 1.391 . S
C208 Tb198 2.825 1_545 S
C208 C202 1.507 . S
C208 O221 1.238 1_545 S
C208 O222 1.247 . S
O209 Tb198 2.347 1_545 S
O209 C213 1.259 1_556 S
O210 Eu199 2.418 . S
O210 C213 1.265 . S
O211 Eu199 2.384 . S
O211 C220 1.255 1_554 S
O212 Tb198 2.366 1_545 S
O212 C220 1.265 . S
C213 O209 1.259 1_554 S
C213 O210 1.265 . S
O214 Eu199 2.479 . S
O214 C229 1.238 . S
O215 Eu199 2.471 1_565 S
O215 C229 1.247 1_565 S
O216 Eu199 2.347 1_565 S
O216 C200 1.259 . S
O217 Tb198 2.418 . S
O217 C200 1.265 1_556 S
O218 Tb198 2.384 . S
O218 C201 1.255 1_556 S
O219 Eu199 2.366 1_565 S
O219 C201 1.265 . S
C220 O211 1.255 1_556 S
C220 O212 1.265 . S
O221 Tb198 2.479 . S
O221 C208 1.238 1_565 S
O222 Tb198 2.471 1_545 S
O222 C208 1.247 . S
C223 C226 1.380 1_565 S
C223 C227 1.374 . S
C223 C229 1.507 1_565 S
C224 C225 1.387 1_565 S
C224 C228 1.391 . S
C225 C224 1.387 1_545 S
C225 C226 1.384 . S
C225 H234 0.930 . S
C226 C223 1.380 1_545 S
C226 C225 1.384 . S
C226 H235 0.931 . S
C227 C223 1.374 . S
C227 C228 1.390 . S
C227 H236 0.930 . S
C228 C224 1.391 . S
C228 C227 1.390 . S
C228 H237 0.930 . S
C229 Eu199 2.825 . S
C229 O214 1.238 . S
C229 O215 1.247 1_545 S
C229 C223 1.507 1_545 S
H230 C203 0.930 1_565 S
H231 C204 0.931 . S
H232 C205 0.930 . S
H233 C206 0.930 . S
H234 C225 0.930 . S
H235 C226 0.931 . S
H236 C227 0.930 . S
H237 C228 0.930 . S
Tb238 C248 2.819 1_455 S
Tb238 O249 2.347 1_455 S
Tb238 O252 2.366 1_455 S
Tb238 O257 2.418 . S
Tb238 O258 2.384 1_556 S
Tb238 O261 2.479 . S
Tb238 O262 2.471 1_455 S
Eu239 O250 2.418 . S
Eu239 O251 2.384 . S
Eu239 O254 2.479 . S
Eu239 O255 2.471 1_655 S
Eu239 O256 2.347 1_655 S
Eu239 O259 2.366 1_655 S
Eu239 C269 2.825 1_655 S
C240 O256 1.259 . S
C240 O257 1.265 1_554 S
C241 O258 1.255 . S
C241 O259 1.265 . S
C242 C244 1.380 1_655 S
C242 C245 1.374 . S
C242 C248 1.515 . S
C243 C244 1.384 1_655 S
C243 C247 1.387 . S
C243 H270 0.930 1_655 S
C244 C242 1.380 1_455 S
C244 C243 1.384 1_455 S
C244 H271 0.931 . S
C245 C242 1.374 . S
C245 C246 1.390 . S
C245 H272 0.930 . S
C246 C245 1.390 . S
C246 C247 1.391 . S
C246 H273 0.930 . S
C247 C243 1.387 . S
C247 C246 1.391 . S
C248 Tb238 2.819 1_655 S
C248 C242 1.515 . S
C248 O261 1.227 1_655 S
C248 O262 1.250 . S
O249 Tb238 2.347 1_655 S
O249 C253 1.259 1_556 S
O250 Eu239 2.418 . S
O250 C253 1.265 . S
O251 Eu239 2.384 . S
O251 C260 1.255 1_554 S
O252 Tb238 2.366 1_655 S
O252 C260 1.265 . S
C253 O249 1.259 1_554 S
C253 O250 1.265 . S
O254 Eu239 2.479 . S
O254 C269 1.238 1_655 S
O255 Eu239 2.471 1_455 S
O255 C269 1.247 . S
O256 Eu239 2.347 1_455 S
O256 C240 1.259 . S
O257 Tb238 2.418 . S
O257 C240 1.265 1_556 S
O258 Tb238 2.384 1_554 S
O258 C241 1.255 . S
O259 Eu239 2.366 1_455 S
O259 C241 1.265 . S
C260 O251 1.255 1_556 S
C260 O252 1.265 . S
O261 Tb238 2.479 . S
O261 C248 1.227 1_455 S
O262 Tb238 2.471 1_655 S
O262 C248 1.250 . S
C263 C266 1.369 1_455 S
C263 C267 1.374 . S
C263 C269 1.507 . S
C264 C265 1.387 . S
C264 C268 1.391 . S
C265 C264 1.387 . S
C265 C266 1.372 1_455 S
C265 H274 0.930 1_455 S
C266 C263 1.369 1_655 S
C266 C265 1.372 1_655 S
C266 H275 0.955 . S
C267 C263 1.374 . S
C267 C268 1.390 . S
C267 H276 0.930 . S
C268 C264 1.391 . S
C268 C267 1.390 . S
C268 H277 0.930 . S
C269 Eu239 2.825 1_455 S
C269 O254 1.238 1_455 S
C269 O255 1.247 . S
C269 C263 1.507 . S
H270 C243 0.930 1_455 S
H271 C244 0.931 . S
H272 C245 0.930 . S
H273 C246 0.930 . S
H274 C265 0.930 1_655 S
H275 C266 0.955 . S
H276 C267 0.930 . S
H277 C268 0.930 . S
Tb278 C288 2.825 . S
Tb278 O289 2.347 . S
Tb278 O292 2.366 . S
Tb278 O297 2.418 . S
Tb278 O298 2.384 . S
Tb278 O301 2.479 . S
Tb278 O302 2.471 . S
Eu279 O290 2.418 . S
Eu279 O291 2.384 1_556 S
Eu279 O294 2.479 . S
Eu279 O295 2.471 . S
Eu279 O296 2.347 . S
Eu279 O299 2.366 . S
Eu279 C309 2.825 . S
C280 O296 1.259 1_554 S
C280 O297 1.265 . S
C281 O298 1.255 1_556 S
C281 O299 1.265 . S
C282 C284 1.380 . S
C282 C285 1.374 . S
C282 C288 1.507 . S
C283 C284 1.384 . S
C283 C287 1.387 . S
C283 H310 0.930 . S
C284 C282 1.380 . S
C284 C283 1.384 . S
C284 H311 0.931 . S
C285 C282 1.374 . S
C285 C286 1.390 . S
C285 H312 0.930 . S
C286 C285 1.390 . S
C286 C287 1.391 . S
C286 H313 0.930 . S
C287 C283 1.387 . S
C287 C286 1.391 . S
C288 Tb278 2.825 . S
C288 C282 1.507 . S
C288 O301 1.238 . S
C288 O302 1.247 . S
O289 Tb278 2.347 . S
O289 C293 1.259 . S
O290 Eu279 2.418 . S
O290 C293 1.265 1_556 S
O291 Eu279 2.384 1_554 S
O291 C300 1.255 . S
O292 Tb278 2.366 . S
O292 C300 1.265 . S
C293 O289 1.259 . S
C293 O290 1.265 1_554 S
O294 Eu279 2.479 . S
O294 C309 1.238 . S
O295 Eu279 2.471 . S
O295 C309 1.247 . S
O296 Eu279 2.347 . S
O296 C280 1.259 1_556 S
O297 Tb278 2.418 . S
O297 C280 1.265 . S
O298 Tb278 2.384 . S
O298 C281 1.255 1_554 S
O299 Eu279 2.366 . S
O299 C281 1.265 . S
C300 O291 1.255 . S
C300 O292 1.265 . S
O301 Tb278 2.479 . S
O301 C288 1.238 . S
O302 Tb278 2.471 . S
O302 C288 1.247 . S
C303 C306 1.380 . S
C303 C307 1.374 . S
C303 C309 1.507 . S
C304 C305 1.387 . S
C304 C308 1.391 . S
C305 C304 1.387 . S
C305 C306 1.384 . S
C305 H314 0.930 . S
C306 C303 1.380 . S
C306 C305 1.384 . S
C306 H315 0.931 . S
C307 C303 1.374 . S
C307 C308 1.390 . S
C307 H316 0.930 . S
C308 C304 1.391 . S
C308 C307 1.390 . S
C308 H317 0.930 . S
C309 Eu279 2.825 . S
C309 O294 1.238 . S
C309 O295 1.247 . S
C309 C303 1.507 . S
H310 C283 0.930 . S
H311 C284 0.931 . S
H312 C285 0.930 . S
H313 C286 0.930 . S
H314 C305 0.930 . S
H315 C306 0.931 . S
H316 C307 0.930 . S
H317 C308 0.930 . S
Tb318 C328 2.825 . S
Tb318 O329 2.347 . S
Tb318 O332 2.366 . S
Tb318 O337 2.418 . S
Tb318 O338 2.384 . S
Tb318 O341 2.479 . S
Tb318 O342 2.471 . S
Eu319 O330 2.418 . S
Eu319 O331 2.384 . S
Eu319 O334 2.479 . S
Eu319 O335 2.471 . S
Eu319 O336 2.347 . S
Eu319 O339 2.366 . S
Eu319 C349 2.825 . S
C320 O336 1.259 . S
C320 O337 1.265 . S
C321 O338 1.255 . S
C321 O339 1.265 . S
C322 C324 1.380 . S
C322 C325 1.374 . S
C322 C328 1.507 . S
C323 C324 1.384 . S
C323 C327 1.387 . S
C323 H350 0.930 . S
C324 C322 1.380 . S
C324 C323 1.384 . S
C324 H351 0.931 . S
C325 C322 1.374 . S
C325 C326 1.390 . S
C325 H352 0.930 . S
C326 C325 1.390 . S
C326 C327 1.391 . S
C326 H353 0.930 . S
C327 C323 1.387 . S
C327 C326 1.391 . S
C328 Tb318 2.825 . S
C328 C322 1.507 . S
C328 O341 1.238 . S
C328 O342 1.247 . S
O329 Tb318 2.347 . S
O329 C333 1.259 . S
O330 Eu319 2.418 . S
O330 C333 1.265 . S
O331 Eu319 2.384 . S
O331 C340 1.255 . S
O332 Tb318 2.366 . S
O332 C340 1.265 . S
C333 O329 1.259 . S
C333 O330 1.265 . S
O334 Eu319 2.479 . S
O334 C349 1.238 . S
O335 Eu319 2.471 . S
O335 C349 1.247 . S
O336 Eu319 2.347 . S
O336 C320 1.259 . S
O337 Tb318 2.418 . S
O337 C320 1.265 . S
O338 Tb318 2.384 . S
O338 C321 1.255 . S
O339 Eu319 2.366 . S
O339 C321 1.265 . S
C340 O331 1.255 . S
C340 O332 1.265 . S
O341 Tb318 2.479 . S
O341 C328 1.238 . S
O342 Tb318 2.471 . S
O342 C328 1.247 . S
C343 C346 1.380 . S
C343 C347 1.374 . S
C343 C349 1.507 . S
C344 C345 1.387 . S
C344 C348 1.391 . S
C345 C344 1.387 . S
C345 C346 1.384 . S
C345 H354 0.930 . S
C346 C343 1.380 . S
C346 C345 1.384 . S
C346 H355 0.931 . S
C347 C343 1.374 . S
C347 C348 1.390 . S
C347 H356 0.930 . S
C348 C344 1.391 . S
C348 C347 1.390 . S
C348 H357 0.930 . S
C349 Eu319 2.825 . S
C349 O334 1.238 . S
C349 O335 1.247 . S
C349 C343 1.507 . S
H350 C323 0.930 . S
H351 C324 0.931 . S
H352 C325 0.930 . S
H353 C326 0.930 . S
H354 C345 0.930 . S
H355 C346 0.931 . S
H356 C347 0.930 . S
H357 C348 0.930 . S
Tb358 C368 2.825 . S
Tb358 O369 2.347 . S
Tb358 O372 2.366 . S
Tb358 O377 2.418 . S
Tb358 O378 2.384 . S
Tb358 O381 2.479 . S
Tb358 O382 2.471 . S
Eu359 O370 2.418 . S
Eu359 O371 2.384 . S
Eu359 O374 2.479 . S
Eu359 O375 2.471 . S
Eu359 O376 2.347 . S
Eu359 O379 2.366 . S
Eu359 C389 2.825 . S
C360 O376 1.259 . S
C360 O377 1.265 . S
C361 O378 1.255 . S
C361 O379 1.265 . S
C362 C364 1.380 . S
C362 C365 1.374 . S
C362 C368 1.507 . S
C363 C364 1.384 . S
C363 C367 1.387 . S
C363 H390 0.930 . S
C364 C362 1.380 . S
C364 C363 1.384 . S
C364 H391 0.931 . S
C365 C362 1.374 . S
C365 C366 1.390 . S
C365 H392 0.930 . S
C366 C365 1.390 . S
C366 C367 1.391 . S
C366 H393 0.930 . S
C367 C363 1.387 . S
C367 C366 1.391 . S
C368 Tb358 2.825 . S
C368 C362 1.507 . S
C368 O381 1.238 . S
C368 O382 1.247 . S
O369 Tb358 2.347 . S
O369 C373 1.259 . S
O370 Eu359 2.418 . S
O370 C373 1.265 . S
O371 Eu359 2.384 . S
O371 C380 1.255 . S
O372 Tb358 2.366 . S
O372 C380 1.265 . S
C373 O369 1.259 . S
C373 O370 1.265 . S
O374 Eu359 2.479 . S
O374 C389 1.238 . S
O375 Eu359 2.471 . S
O375 C389 1.247 . S
O376 Eu359 2.347 . S
O376 C360 1.259 . S
O377 Tb358 2.418 . S
O377 C360 1.265 . S
O378 Tb358 2.384 . S
O378 C361 1.255 . S
O379 Eu359 2.366 . S
O379 C361 1.265 . S
C380 O371 1.255 . S
C380 O372 1.265 . S
O381 Tb358 2.479 . S
O381 C368 1.238 . S
O382 Tb358 2.471 . S
O382 C368 1.247 . S
C383 C386 1.380 . S
C383 C387 1.374 . S
C383 C389 1.507 . S
C384 C385 1.387 . S
C384 C388 1.391 . S
C385 C384 1.387 . S
C385 C386 1.384 . S
C385 H394 0.930 . S
C386 C383 1.380 . S
C386 C385 1.384 . S
C386 H395 0.931 . S
C387 C383 1.374 . S
C387 C388 1.390 . S
C387 H396 0.930 . S
C388 C384 1.391 . S
C388 C387 1.390 . S
C388 H397 0.930 . S
C389 Eu359 2.825 . S
C389 O374 1.238 . S
C389 O375 1.247 . S
C389 C383 1.507 . S
H390 C363 0.930 . S
H391 C364 0.931 . S
H392 C365 0.930 . S
H393 C366 0.930 . S
H394 C385 0.930 . S
H395 C386 0.931 . S
H396 C387 0.930 . S
H397 C388 0.930 . S
Tb398 C408 2.825 . S
Tb398 O409 2.347 . S
Tb398 O412 2.366 . S
Tb398 O417 2.418 . S
Tb398 O418 2.384 . S
Tb398 O421 2.479 . S
Tb398 O422 2.471 . S
Eu399 O410 2.418 . S
Eu399 O411 2.384 . S
Eu399 O414 2.479 . S
Eu399 O415 2.471 . S
Eu399 O416 2.347 . S
Eu399 O419 2.366 . S
Eu399 C429 2.825 . S
C400 O416 1.259 . S
C400 O417 1.265 . S
C401 O418 1.255 . S
C401 O419 1.265 . S
C402 C404 1.380 . S
C402 C405 1.374 . S
C402 C408 1.507 . S
C403 C404 1.384 . S
C403 C407 1.387 . S
C403 H430 0.930 . S
C404 C402 1.380 . S
C404 C403 1.384 . S
C404 H431 0.931 . S
C405 C402 1.374 . S
C405 C406 1.390 . S
C405 H432 0.930 . S
C406 C405 1.390 . S
C406 C407 1.391 . S
C406 H433 0.930 . S
C407 C403 1.387 . S
C407 C406 1.391 . S
C408 Tb398 2.825 . S
C408 C402 1.507 . S
C408 O421 1.238 . S
C408 O422 1.247 . S
O409 Tb398 2.347 . S
O409 C413 1.259 . S
O410 Eu399 2.418 . S
O410 C413 1.265 . S
O411 Eu399 2.384 . S
O411 C420 1.255 . S
O412 Tb398 2.366 . S
O412 C420 1.265 . S
C413 O409 1.259 . S
C413 O410 1.265 . S
O414 Eu399 2.479 . S
O414 C429 1.238 . S
O415 Eu399 2.471 . S
O415 C429 1.247 . S
O416 Eu399 2.347 . S
O416 C400 1.259 . S
O417 Tb398 2.418 . S
O417 C400 1.265 . S
O418 Tb398 2.384 . S
O418 C401 1.255 . S
O419 Eu399 2.366 . S
O419 C401 1.265 . S
C420 O411 1.255 . S
C420 O412 1.265 . S
O421 Tb398 2.479 . S
O421 C408 1.238 . S
O422 Tb398 2.471 . S
O422 C408 1.247 . S
C423 C426 1.380 . S
C423 C427 1.374 . S
C423 C429 1.507 . S
C424 C425 1.387 . S
C424 C428 1.391 . S
C425 C424 1.387 . S
C425 C426 1.384 . S
C425 H434 0.930 . S
C426 C423 1.380 . S
C426 C425 1.384 . S
C426 H435 0.931 . S
C427 C423 1.374 . S
C427 C428 1.390 . S
C427 H436 0.930 . S
C428 C424 1.391 . S
C428 C427 1.390 . S
C428 H437 0.930 . S
C429 Eu399 2.825 . S
C429 O414 1.238 . S
C429 O415 1.247 . S
C429 C423 1.507 . S
H430 C403 0.930 . S
H431 C404 0.931 . S
H432 C405 0.930 . S
H433 C406 0.930 . S
H434 C425 0.930 . S
H435 C426 0.931 . S
H436 C427 0.930 . S
H437 C428 0.930 . S
Tb438 C448 2.825 . S
Tb438 O449 2.347 . S
Tb438 O452 2.366 . S
Tb438 O457 2.418 . S
Tb438 O458 2.384 . S
Tb438 O461 2.479 . S
Tb438 O462 2.471 . S
Eu439 O450 2.418 . S
Eu439 O451 2.384 . S
Eu439 O454 2.479 . S
Eu439 O455 2.471 . S
Eu439 O456 2.347 . S
Eu439 O459 2.366 . S
Eu439 C469 2.825 . S
C440 O456 1.259 . S
C440 O457 1.265 . S
C441 O458 1.255 . S
C441 O459 1.265 . S
C442 C444 1.380 . S
C442 C445 1.374 . S
C442 C448 1.507 . S
C443 C444 1.384 . S
C443 C447 1.387 . S
C443 H470 0.930 . S
C444 C442 1.380 . S
C444 C443 1.384 . S
C444 H471 0.931 . S
C445 C442 1.374 . S
C445 C446 1.390 . S
C445 H472 0.930 . S
C446 C445 1.390 . S
C446 C447 1.391 . S
C446 H473 0.930 . S
C447 C443 1.387 . S
C447 C446 1.391 . S
C448 Tb438 2.825 . S
C448 C442 1.507 . S
C448 O461 1.238 . S
C448 O462 1.247 . S
O449 Tb438 2.347 . S
O449 C453 1.259 . S
O450 Eu439 2.418 . S
O450 C453 1.265 . S
O451 Eu439 2.384 . S
O451 C460 1.255 . S
O452 Tb438 2.366 . S
O452 C460 1.265 . S
C453 O449 1.259 . S
C453 O450 1.265 . S
O454 Eu439 2.479 . S
O454 C469 1.238 . S
O455 Eu439 2.471 . S
O455 C469 1.247 . S
O456 Eu439 2.347 . S
O456 C440 1.259 . S
O457 Tb438 2.418 . S
O457 C440 1.265 . S
O458 Tb438 2.384 . S
O458 C441 1.255 . S
O459 Eu439 2.366 . S
O459 C441 1.265 . S
C460 O451 1.255 . S
C460 O452 1.265 . S
O461 Tb438 2.479 . S
O461 C448 1.238 . S
O462 Tb438 2.471 . S
O462 C448 1.247 . S
C463 C466 1.380 . S
C463 C467 1.374 . S
C463 C469 1.507 . S
C464 C465 1.387 . S
C464 C468 1.391 . S
C465 C464 1.387 . S
C465 C466 1.384 . S
C465 H474 0.930 . S
C466 C463 1.380 . S
C466 C465 1.384 . S
C466 H475 0.931 . S
C467 C463 1.374 . S
C467 C468 1.390 . S
C467 H476 0.930 . S
C468 C464 1.391 . S
C468 C467 1.390 . S
C468 H477 0.930 . S
C469 Eu439 2.825 . S
C469 O454 1.238 . S
C469 O455 1.247 . S
C469 C463 1.507 . S
H470 C443 0.930 . S
H471 C444 0.931 . S
H472 C445 0.930 . S
H473 C446 0.930 . S
H474 C465 0.930 . S
H475 C466 0.931 . S
H476 C467 0.930 . S
H477 C468 0.930 . S
Tb478 C488 2.825 . S
Tb478 O489 2.347 . S
Tb478 O492 2.366 . S
Tb478 O497 2.418 . S
Tb478 O498 2.384 . S
Tb478 O501 2.479 . S
Tb478 O502 2.471 . S
Eu479 O490 2.418 . S
Eu479 O491 2.384 . S
Eu479 O494 2.479 . S
Eu479 O495 2.471 . S
Eu479 O496 2.347 . S
Eu479 O499 2.366 . S
Eu479 C509 2.825 . S
C480 O496 1.259 . S
C480 O497 1.265 . S
C481 O498 1.255 . S
C481 O499 1.265 . S
C482 C484 1.380 . S
C482 C485 1.374 . S
C482 C488 1.507 . S
C483 C484 1.384 . S
C483 C487 1.387 . S
C483 H510 0.930 . S
C484 C482 1.380 . S
C484 C483 1.384 . S
C484 H511 0.931 . S
C485 C482 1.374 . S
C485 C486 1.390 . S
C485 H512 0.930 . S
C486 C485 1.390 . S
C486 C487 1.391 . S
C486 H513 0.930 . S
C487 C483 1.387 . S
C487 C486 1.391 . S
C488 Tb478 2.825 . S
C488 C482 1.507 . S
C488 O501 1.238 . S
C488 O502 1.247 . S
O489 Tb478 2.347 . S
O489 C493 1.259 . S
O490 Eu479 2.418 . S
O490 C493 1.265 . S
O491 Eu479 2.384 . S
O491 C500 1.255 . S
O492 Tb478 2.366 . S
O492 C500 1.265 . S
C493 O489 1.259 . S
C493 O490 1.265 . S
O494 Eu479 2.479 . S
O494 C509 1.238 . S
O495 Eu479 2.471 . S
O495 C509 1.247 . S
O496 Eu479 2.347 . S
O496 C480 1.259 . S
O497 Tb478 2.418 . S
O497 C480 1.265 . S
O498 Tb478 2.384 . S
O498 C481 1.255 . S
O499 Eu479 2.366 . S
O499 C481 1.265 . S
C500 O491 1.255 . S
C500 O492 1.265 . S
O501 Tb478 2.479 . S
O501 C488 1.238 . S
O502 Tb478 2.471 . S
O502 C488 1.247 . S
C503 C506 1.380 . S
C503 C507 1.374 . S
C503 C509 1.507 . S
C504 C505 1.387 . S
C504 C508 1.391 . S
C505 C504 1.387 . S
C505 C506 1.384 . S
C505 H514 0.930 . S
C506 C503 1.380 . S
C506 C505 1.384 . S
C506 H515 0.931 . S
C507 C503 1.374 . S
C507 C508 1.390 . S
C507 H516 0.930 . S
C508 C504 1.391 . S
C508 C507 1.390 . S
C508 H517 0.930 . S
C509 Eu479 2.825 . S
C509 O494 1.238 . S
C509 O495 1.247 . S
C509 C503 1.507 . S
H510 C483 0.930 . S
H511 C484 0.931 . S
H512 C485 0.930 . S
H513 C486 0.930 . S
H514 C505 0.930 . S
H515 C506 0.931 . S
H516 C507 0.930 . S
H517 C508 0.930 . S
Tb518 C528 2.825 . S
Tb518 O529 2.347 . S
Tb518 O532 2.366 . S
Tb518 O537 2.418 . S
Tb518 O538 2.384 . S
Tb518 O541 2.479 . S
Tb518 O542 2.471 . S
Eu519 O530 2.418 . S
Eu519 O531 2.384 . S
Eu519 O534 2.479 . S
Eu519 O535 2.471 . S
Eu519 O536 2.347 . S
Eu519 O539 2.366 . S
Eu519 C549 2.825 . S
C520 O536 1.259 . S
C520 O537 1.265 . S
C521 O538 1.255 . S
C521 O539 1.265 . S
C522 C524 1.380 . S
C522 C525 1.374 . S
C522 C528 1.507 . S
C523 C524 1.384 . S
C523 C527 1.387 . S
C523 H550 0.930 . S
C524 C522 1.380 . S
C524 C523 1.384 . S
C524 H551 0.931 . S
C525 C522 1.374 . S
C525 C526 1.390 . S
C525 H552 0.930 . S
C526 C525 1.390 . S
C526 C527 1.391 . S
C526 H553 0.930 . S
C527 C523 1.387 . S
C527 C526 1.391 . S
C528 Tb518 2.825 . S
C528 C522 1.507 . S
C528 O541 1.238 . S
C528 O542 1.247 . S
O529 Tb518 2.347 . S
O529 C533 1.259 . S
O530 Eu519 2.418 . S
O530 C533 1.265 . S
O531 Eu519 2.384 . S
O531 C540 1.255 . S
O532 Tb518 2.366 . S
O532 C540 1.265 . S
C533 O529 1.259 . S
C533 O530 1.265 . S
O534 Eu519 2.479 . S
O534 C549 1.238 . S
O535 Eu519 2.471 . S
O535 C549 1.247 . S
O536 Eu519 2.347 . S
O536 C520 1.259 . S
O537 Tb518 2.418 . S
O537 C520 1.265 . S
O538 Tb518 2.384 . S
O538 C521 1.255 . S
O539 Eu519 2.366 . S
O539 C521 1.265 . S
C540 O531 1.255 . S
C540 O532 1.265 . S
O541 Tb518 2.479 . S
O541 C528 1.238 . S
O542 Tb518 2.471 . S
O542 C528 1.247 . S
C543 C546 1.380 . S
C543 C547 1.374 . S
C543 C549 1.507 . S
C544 C545 1.387 . S
C544 C548 1.391 . S
C545 C544 1.387 . S
C545 C546 1.384 . S
C545 H554 0.930 . S
C546 C543 1.380 . S
C546 C545 1.384 . S
C546 H555 0.931 . S
C547 C543 1.374 . S
C547 C548 1.390 . S
C547 H556 0.930 . S
C548 C544 1.391 . S
C548 C547 1.390 . S
C548 H557 0.930 . S
C549 Eu519 2.825 . S
C549 O534 1.238 . S
C549 O535 1.247 . S
C549 C543 1.507 . S
H550 C523 0.930 . S
H551 C524 0.931 . S
H552 C525 0.930 . S
H553 C526 0.930 . S
H554 C545 0.930 . S
H555 C546 0.931 . S
H556 C547 0.930 . S
H557 C548 0.930 . S
H558 C564 0.930 . S
H559 C568 0.930 . S
H560 C573 0.929 . S
H561 C571 0.929 1_556 S
H562 C566 0.929 . S
H563 C572 0.929 . S
C564 H558 0.930 . S
C564 C565 1.367 . S
C564 C572 1.378 . S
C565 C564 1.367 . S
C565 C573 1.433 . S
C566 H562 0.929 . S
C566 C568 1.378 . S
C566 C570 1.350 . S
C567 C570 1.463 . S
C567 C572 1.350 . S
C567 N575 1.427 . S
C568 H559 0.930 . S
C568 C566 1.378 . S
C568 C569 1.367 . S
C569 C568 1.367 . S
C569 C571 1.433 . S
C570 C566 1.350 . S
C570 C567 1.463 . S
C570 N574 1.427 . S
C571 H561 0.929 1_554 S
C571 C569 1.433 . S
C571 N574 1.384 . S
C572 H563 0.929 . S
C572 C564 1.378 . S
C572 C567 1.350 . S
C573 H560 0.929 . S
C573 C565 1.433 . S
C573 N575 1.384 . S
N574 C570 1.427 . S
N574 C571 1.384 . S
N575 C567 1.427 . S
N575 C573 1.384 . S
H576 C582 0.930 . S
H577 C586 0.930 . S
H578 C591 0.929 . S
H579 C589 0.929 . S
H580 C584 0.929 . S
H581 C590 0.929 . S
C582 H576 0.930 . S
C582 C583 1.367 . S
C582 C590 1.378 . S
C583 C582 1.367 . S
C583 C591 1.433 . S
C584 H580 0.929 . S
C584 C586 1.378 . S
C584 C588 1.350 . S
C585 C588 1.463 . S
C585 C590 1.350 . S
C585 N593 1.427 . S
C586 H577 0.930 . S
C586 C584 1.378 . S
C586 C587 1.367 . S
C587 C586 1.367 . S
C587 C589 1.433 . S
C588 C584 1.350 . S
C588 C585 1.463 . S
C588 N592 1.427 . S
C589 H579 0.929 . S
C589 C587 1.433 . S
C589 N592 1.384 . S
C590 H581 0.929 . S
C590 C582 1.378 . S
C590 C585 1.350 . S
C591 H578 0.929 . S
C591 C583 1.433 . S
C591 N593 1.384 . S
N592 C588 1.427 . S
N592 C589 1.384 . S
N593 C585 1.427 . S
N593 C591 1.384 . S
H594 C600 0.930 . S
H595 C604 0.930 . S
H596 C609 0.929 . S
H597 C607 0.929 1_556 S
H598 C602 0.929 . S
H599 C608 0.929 . S
C600 H594 0.930 . S
C600 C601 1.367 . S
C600 C608 1.378 . S
C601 C600 1.367 . S
C601 C609 1.433 . S
C602 H598 0.929 . S
C602 C604 1.378 . S
C602 C606 1.350 . S
C603 C606 1.463 . S
C603 C608 1.350 . S
C603 N611 1.427 . S
C604 H595 0.930 . S
C604 C602 1.378 . S
C604 C605 1.367 . S
C605 C604 1.367 . S
C605 C607 1.433 . S
C606 C602 1.350 . S
C606 C603 1.463 . S
C606 N610 1.427 . S
C607 H597 0.929 1_554 S
C607 C605 1.433 . S
C607 N610 1.384 . S
C608 H599 0.929 . S
C608 C600 1.378 . S
C608 C603 1.350 . S
C609 H596 0.929 . S
C609 C601 1.433 . S
C609 N611 1.384 . S
N610 C606 1.427 . S
N610 C607 1.384 . S
N611 C603 1.427 . S
N611 C609 1.384 . S
H612 C618 0.930 . S
H613 C622 0.930 . S
H614 C627 0.929 . S
H615 C625 0.929 1_554 S
H616 C620 0.929 . S
H617 C626 0.929 . S
C618 H612 0.930 . S
C618 C619 1.367 . S
C618 C626 1.378 . S
C619 C618 1.367 . S
C619 C627 1.433 . S
C620 H616 0.929 . S
C620 C622 1.378 . S
C620 C624 1.350 . S
C621 C624 1.463 . S
C621 C626 1.350 . S
C621 N629 1.427 . S
C622 H613 0.930 . S
C622 C620 1.378 . S
C622 C623 1.367 . S
C623 C622 1.367 . S
C623 C625 1.433 . S
C624 C620 1.350 . S
C624 C621 1.463 . S
C624 N628 1.427 . S
C625 H615 0.929 1_556 S
C625 C623 1.433 . S
C625 N628 1.384 . S
C626 H617 0.929 . S
C626 C618 1.378 . S
C626 C621 1.350 . S
C627 H614 0.929 . S
C627 C619 1.433 . S
C627 N629 1.384 . S
N628 C624 1.427 . S
N628 C625 1.384 . S
N629 C621 1.427 . S
N629 C627 1.384 . S
H630 C636 0.930 . S
H631 C640 0.927 1_554 S
H632 C645 0.929 . S
H633 C643 0.929 . S
H634 C638 0.917 1_554 S
H635 C644 0.929 . S
C636 H630 0.930 . S
C636 C637 1.367 . S
C636 C644 1.378 . S
C637 C636 1.367 . S
C637 C645 1.433 . S
C638 H634 0.917 1_556 S
C638 C640 1.379 . S
C638 C642 1.350 . S
C639 C642 1.463 . S
C639 C644 1.350 . S
C639 N647 1.427 . S
C640 H631 0.927 1_556 S
C640 C638 1.379 . S
C640 C641 1.368 . S
C641 C640 1.368 . S
C641 C643 1.433 . S
C642 C638 1.350 . S
C642 C639 1.463 . S
C642 N646 1.427 . S
C643 H633 0.929 . S
C643 C641 1.433 . S
C643 N646 1.384 . S
C644 H635 0.929 . S
C644 C636 1.378 . S
C644 C639 1.350 . S
C645 H632 0.929 . S
C645 C637 1.433 . S
C645 N647 1.384 . S
N646 C642 1.427 . S
N646 C643 1.384 . S
N647 C639 1.427 . S
N647 C645 1.384 . S
H648 C654 0.930 . S
H649 C658 0.930 . S
H650 C663 0.929 . S
H651 C661 0.943 . S
H652 C656 0.929 . S
H653 C662 0.929 . S
C654 H648 0.930 . S
C654 C655 1.367 . S
C654 C662 1.378 . S
C655 C654 1.367 . S
C655 C663 1.433 . S
C656 H652 0.929 . S
C656 C658 1.378 . S
C656 C660 1.350 . S
C657 C660 1.463 . S
C657 C662 1.350 . S
C657 N665 1.427 . S
C658 H649 0.930 . S
C658 C656 1.378 . S
C658 C659 1.367 . S
C659 C658 1.367 . S
C659 C661 1.434 1_556 S
C660 C656 1.350 . S
C660 C657 1.463 . S
C660 N664 1.427 . S
C661 H651 0.943 . S
C661 C659 1.434 1_554 S
C661 N664 1.372 1_554 S
C662 H653 0.929 . S
C662 C654 1.378 . S
C662 C657 1.350 . S
C663 H650 0.929 . S
C663 C655 1.433 . S
C663 N665 1.384 . S
N664 C660 1.427 . S
N664 C661 1.372 1_556 S
N665 C657 1.427 . S
N665 C663 1.384 . S
H666 C672 0.930 . S
H667 C676 0.927 1_554 S
H668 C681 0.929 . S
H669 C679 0.929 . S
H670 C674 0.929 1_554 S
H671 C680 0.929 . S
C672 H666 0.930 . S
C672 C673 1.367 . S
C672 C680 1.378 . S
C673 C672 1.367 . S
C673 C681 1.433 . S
C674 H670 0.929 1_556 S
C674 C676 1.379 . S
C674 C678 1.350 . S
C675 C678 1.463 . S
C675 C680 1.350 . S
C675 N683 1.427 . S
C676 H667 0.927 1_556 S
C676 C674 1.379 . S
C676 C677 1.368 . S
C677 C676 1.368 . S
C677 C679 1.433 . S
C678 C674 1.350 . S
C678 C675 1.463 . S
C678 N682 1.427 . S
C679 H669 0.929 . S
C679 C677 1.433 . S
C679 N682 1.384 . S
C680 H671 0.929 . S
C680 C672 1.378 . S
C680 C675 1.350 . S
C681 H668 0.929 . S
C681 C673 1.433 . S
C681 N683 1.384 . S
N682 C678 1.427 . S
N682 C679 1.384 . S
N683 C675 1.427 . S
N683 C681 1.384 . S
H684 C690 0.930 . S
H685 C694 0.930 1_554 S
H686 C699 0.929 . S
H687 C697 0.929 . S
H688 C692 0.901 1_554 S
H689 C698 0.929 . S
C690 H684 0.930 . S
C690 C691 1.367 . S
C690 C698 1.378 . S
C691 C690 1.367 . S
C691 C699 1.433 . S
C692 H688 0.901 1_556 S
C692 C694 1.378 . S
C692 C696 1.350 . S
C693 C696 1.463 . S
C693 C698 1.350 . S
C693 N701 1.427 . S
C694 H685 0.930 1_556 S
C694 C692 1.378 . S
C694 C695 1.367 . S
C695 C694 1.367 . S
C695 C697 1.433 . S
C696 C692 1.350 . S
C696 C693 1.463 . S
C696 N700 1.427 . S
C697 H687 0.929 . S
C697 C695 1.433 . S
C697 N700 1.384 . S
C698 H689 0.929 . S
C698 C690 1.378 . S
C698 C693 1.350 . S
C699 H686 0.929 . S
C699 C691 1.433 . S
C699 N701 1.384 . S
N700 C696 1.427 . S
N700 C697 1.384 . S
N701 C693 1.427 . S
N701 C699 1.384 . S
H702 C708 0.930 . S
H703 C712 0.930 . S
H704 C717 0.929 . S
H705 C715 0.929 . S
H706 C710 0.929 . S
H707 C716 0.929 . S
C708 H702 0.930 . S
C708 C709 1.367 1_554 S
C708 C716 1.378 . S
C709 C708 1.367 1_556 S
C709 C717 1.433 . S
C710 H706 0.929 . S
C710 C712 1.378 . S
C710 C714 1.350 . S
C711 C714 1.463 . S
C711 C716 1.350 1_556 S
C711 N719 1.427 . S
C712 H703 0.930 . S
C712 C710 1.378 . S
C712 C713 1.363 1_556 S
C713 C712 1.363 1_554 S
C713 C715 1.437 . S
C714 C710 1.350 . S
C714 C711 1.463 . S
C714 N718 1.427 1_556 S
C715 H705 0.929 . S
C715 C713 1.437 . S
C715 N718 1.384 . S
C716 H707 0.929 . S
C716 C708 1.378 . S
C716 C711 1.350 1_554 S
C717 H704 0.929 . S
C717 C709 1.433 . S
C717 N719 1.384 . S
N718 C714 1.427 1_554 S
N718 C715 1.384 . S
N719 C711 1.427 . S
N719 C717 1.384 . S
H720 C726 0.930 . S
H721 C730 0.930 . S
H722 C735 0.929 . S
H723 C733 0.929 1_556 S
H724 C728 0.929 . S
H725 C734 0.954 . S
C726 H720 0.930 . S
C726 C727 1.367 . S
C726 C734 1.378 . S
C727 C726 1.367 . S
C727 C735 1.433 . S
C728 H724 0.929 . S
C728 C730 1.378 . S
C728 C732 1.350 . S
C729 C732 1.463 . S
C729 C734 1.350 . S
C729 N737 1.427 . S
C730 H721 0.930 . S
C730 C728 1.378 . S
C730 C731 1.367 . S
C731 C730 1.367 . S
C731 C733 1.433 . S
C732 C728 1.350 . S
C732 C729 1.463 . S
C732 N736 1.427 . S
C733 H723 0.929 1_554 S
C733 C731 1.433 . S
C733 N736 1.384 . S
C734 H725 0.954 . S
C734 C726 1.378 . S
C734 C729 1.350 . S
C735 H722 0.929 . S
C735 C727 1.433 . S
C735 N737 1.384 . S
N736 C732 1.427 . S
N736 C733 1.384 . S
N737 C729 1.427 . S
N737 C735 1.384 . S
H738 C744 0.930 . S
H739 C748 0.930 . S
H740 C753 0.929 . S
H741 C751 0.929 . S
H742 C746 0.929 . S
H743 C752 0.929 . S
C744 H738 0.930 . S
C744 C745 1.367 . S
C744 C752 1.378 . S
C745 C744 1.367 . S
C745 C753 1.433 . S
C746 H742 0.929 . S
C746 C748 1.378 . S
C746 C750 1.350 . S
C747 C750 1.463 . S
C747 C752 1.350 . S
C747 N755 1.427 . S
C748 H739 0.930 . S
C748 C746 1.378 . S
C748 C749 1.367 . S
C749 C748 1.367 . S
C749 C751 1.433 . S
C750 C746 1.350 . S
C750 C747 1.463 . S
C750 N754 1.427 . S
C751 H741 0.929 . S
C751 C749 1.433 . S
C751 N754 1.384 . S
C752 H743 0.929 . S
C752 C744 1.378 . S
C752 C747 1.350 . S
C753 H740 0.929 . S
C753 C745 1.433 . S
C753 N755 1.384 . S
N754 C750 1.427 . S
N754 C751 1.384 . S
N755 C747 1.427 . S
N755 C753 1.384 . S
H756 C762 0.930 . S
H757 C766 0.930 1_556 S
H758 C771 0.929 . S
H759 C769 0.929 . S
H760 C764 0.947 . S
H761 C770 0.929 . S
C762 H756 0.930 . S
C762 C763 1.367 . S
C762 C770 1.378 . S
C763 C762 1.367 . S
C763 C771 1.433 . S
C764 H760 0.947 . S
C764 C766 1.378 . S
C764 C768 1.350 . S
C765 C768 1.463 . S
C765 C770 1.350 . S
C765 N773 1.427 . S
C766 H757 0.930 1_554 S
C766 C764 1.378 . S
C766 C767 1.367 . S
C767 C766 1.367 . S
C767 C769 1.433 . S
C768 C764 1.350 . S
C768 C765 1.463 . S
C768 N772 1.427 . S
C769 H759 0.929 . S
C769 C767 1.433 . S
C769 N772 1.384 . S
C770 H761 0.929 . S
C770 C762 1.378 . S
C770 C765 1.350 . S
C771 H758 0.929 . S
C771 C763 1.433 . S
C771 N773 1.384 . S
N772 C768 1.427 . S
N772 C769 1.384 . S
N773 C765 1.427 . S
N773 C771 1.384 . S
H774 C780 0.930 . S
H775 C784 0.930 . S
H776 C789 0.929 . S
H777 C787 0.929 . S
H778 C782 0.929 . S
H779 C788 0.929 . S
C780 H774 0.930 . S
C780 C781 1.367 . S
C780 C788 1.378 . S
C781 C780 1.367 . S
C781 C789 1.433 . S
C782 H778 0.929 . S
C782 C784 1.378 . S
C782 C786 1.350 . S
C783 C786 1.463 1_655 S
C783 C788 1.350 . S
C783 N791 1.427 . S
C784 H775 0.930 . S
C784 C782 1.378 . S
C784 C785 1.367 . S
C785 C784 1.367 . S
C785 C787 1.433 . S
C786 C782 1.350 . S
C786 C783 1.463 1_455 S
C786 N790 1.427 . S
C787 H777 0.929 . S
C787 C785 1.433 . S
C787 N790 1.384 . S
C788 H779 0.929 . S
C788 C780 1.378 . S
C788 C783 1.350 . S
C789 H776 0.929 . S
C789 C781 1.433 . S
C789 N791 1.384 . S
N790 C786 1.427 . S
N790 C787 1.384 . S
N791 C783 1.427 . S
N791 C789 1.384 . S
H792 C798 0.930 . S
H793 C802 0.930 . S
H794 C807 0.929 . S
H795 C805 0.929 . S
H796 C800 0.929 . S
H797 C806 0.929 . S
C798 H792 0.930 . S
C798 C799 1.367 . S
C798 C806 1.378 . S
C799 C798 1.367 . S
C799 C807 1.433 . S
C800 H796 0.929 . S
C800 C802 1.378 . S
C800 C804 1.350 . S
C801 C804 1.463 . S
C801 C806 1.350 . S
C801 N809 1.427 . S
C802 H793 0.930 . S
C802 C800 1.378 . S
C802 C803 1.367 . S
C803 C802 1.367 . S
C803 C805 1.433 . S
C804 C800 1.350 . S
C804 C801 1.463 . S
C804 N808 1.427 . S
C805 H795 0.929 . S
C805 C803 1.433 . S
C805 N808 1.384 . S
C806 H797 0.929 . S
C806 C798 1.378 . S
C806 C801 1.350 . S
C807 H794 0.929 . S
C807 C799 1.433 . S
C807 N809 1.384 . S
N808 C804 1.427 . S
N808 C805 1.384 . S
N809 C801 1.427 . S
N809 C807 1.384 . S
H810 C816 0.930 . S
H811 C820 0.930 . S
H812 C825 0.929 . S
H813 C823 0.929 . S
H814 C818 0.929 . S
H815 C824 0.929 . S
C816 H810 0.930 . S
C816 C817 1.367 . S
C816 C824 1.378 . S
C817 C816 1.367 . S
C817 C825 1.433 . S
C818 H814 0.929 . S
C818 C820 1.378 . S
C818 C822 1.350 1_565 S
C819 C822 1.463 . S
C819 C824 1.350 . S
C819 N827 1.427 . S
C820 H811 0.930 . S
C820 C818 1.378 . S
C820 C821 1.367 . S
C821 C820 1.367 . S
C821 C823 1.433 . S
C822 C818 1.350 1_545 S
C822 C819 1.463 . S
C822 N826 1.439 . S
C823 H813 0.929 . S
C823 C821 1.433 . S
C823 N826 1.363 1_565 S
C824 H815 0.929 . S
C824 C816 1.378 . S
C824 C819 1.350 . S
C825 H812 0.929 . S
C825 C817 1.433 . S
C825 N827 1.384 . S
N826 C822 1.439 . S
N826 C823 1.363 1_545 S
N827 C819 1.427 . S
N827 C825 1.384 . S
H828 C834 0.930 . S
H829 C838 0.930 . S
H830 C843 0.929 . S
H831 C841 0.929 . S
H832 C836 0.929 . S
H833 C842 0.929 . S
C834 H828 0.930 . S
C834 C835 1.367 . S
C834 C842 1.378 . S
C835 C834 1.367 . S
C835 C843 1.433 . S
C836 H832 0.929 . S
C836 C838 1.378 . S
C836 C840 1.350 . S
C837 C840 1.463 . S
C837 C842 1.350 . S
C837 N845 1.427 . S
C838 H829 0.930 . S
C838 C836 1.378 . S
C838 C839 1.367 . S
C839 C838 1.367 . S
C839 C841 1.433 . S
C840 C836 1.350 . S
C840 C837 1.463 . S
C840 N844 1.427 . S
C841 H831 0.929 . S
C841 C839 1.433 . S
C841 N844 1.384 . S
C842 H833 0.929 . S
C842 C834 1.378 . S
C842 C837 1.350 . S
C843 H830 0.929 . S
C843 C835 1.433 . S
C843 N845 1.384 . S
N844 C840 1.427 . S
N844 C841 1.384 . S
N845 C837 1.427 . S
N845 C843 1.384 . S
H846 C852 0.930 . S
H847 C856 0.930 . S
H848 C861 0.929 . S
H849 C859 0.929 . S
H850 C854 0.929 . S
H851 C860 0.929 . S
C852 H846 0.930 . S
C852 C853 1.367 . S
C852 C860 1.378 . S
C853 C852 1.367 . S
C853 C861 1.433 . S
C854 H850 0.929 . S
C854 C856 1.378 . S
C854 C858 1.350 . S
C855 C858 1.463 . S
C855 C860 1.350 . S
C855 N863 1.427 . S
C856 H847 0.930 . S
C856 C854 1.378 . S
C856 C857 1.367 . S
C857 C856 1.367 . S
C857 C859 1.433 . S
C858 C854 1.350 . S
C858 C855 1.463 . S
C858 N862 1.427 . S
C859 H849 0.929 . S
C859 C857 1.433 . S
C859 N862 1.384 . S
C860 H851 0.929 . S
C860 C852 1.378 . S
C860 C855 1.350 . S
C861 H848 0.929 . S
C861 C853 1.433 . S
C861 N863 1.384 . S
N862 C858 1.427 . S
N862 C859 1.384 . S
N863 C855 1.427 . S
N863 C861 1.384 . S
H864 C870 0.930 . S
H865 C874 0.930 . S
H866 C879 0.929 . S
H867 C877 0.929 . S
H868 C872 0.929 . S
H869 C878 0.929 . S
C870 H864 0.930 . S
C870 C871 1.367 . S
C870 C878 1.378 . S
C871 C870 1.367 . S
C871 C879 1.433 . S
C872 H868 0.929 . S
C872 C874 1.378 . S
C872 C876 1.350 . S
C873 C876 1.463 . S
C873 C878 1.350 . S
C873 N881 1.427 . S
C874 H865 0.930 . S
C874 C872 1.378 . S
C874 C875 1.367 . S
C875 C874 1.367 . S
C875 C877 1.433 . S
C876 C872 1.350 . S
C876 C873 1.463 . S
C876 N880 1.427 . S
C877 H867 0.929 . S
C877 C875 1.433 . S
C877 N880 1.384 . S
C878 H869 0.929 . S
C878 C870 1.378 . S
C878 C873 1.350 . S
C879 H866 0.929 . S
C879 C871 1.433 . S
C879 N881 1.384 . S
N880 C876 1.427 . S
N880 C877 1.384 . S
N881 C873 1.427 . S
N881 C879 1.384 . S
H882 C888 0.930 . S
H883 C892 0.930 . S
H884 C897 0.929 . S
H885 C895 0.929 . S
H886 C890 0.929 . S
H887 C896 0.929 . S
C888 H882 0.930 . S
C888 C889 1.367 . S
C888 C896 1.378 . S
C889 C888 1.367 . S
C889 C897 1.433 . S
C890 H886 0.929 . S
C890 C892 1.378 . S
C890 C894 1.350 . S
C891 C894 1.463 . S
C891 C896 1.350 . S
C891 N899 1.427 . S
C892 H883 0.930 . S
C892 C890 1.378 . S
C892 C893 1.367 . S
C893 C892 1.367 . S
C893 C895 1.433 . S
C894 C890 1.350 . S
C894 C891 1.463 . S
C894 N898 1.427 . S
C895 H885 0.929 . S
C895 C893 1.433 . S
C895 N898 1.384 . S
C896 H887 0.929 . S
C896 C888 1.378 . S
C896 C891 1.350 . S
C897 H884 0.929 . S
C897 C889 1.433 . S
C897 N899 1.384 . S
N898 C894 1.427 . S
N898 C895 1.384 . S
N899 C891 1.427 . S
N899 C897 1.384 . S
H900 C906 0.930 . S
H901 C910 0.930 . S
H902 C915 0.929 . S
H903 C913 0.929 . S
H904 C908 0.929 . S
H905 C914 0.929 . S
C906 H900 0.930 . S
C906 C907 1.367 . S
C906 C914 1.378 . S
C907 C906 1.367 . S
C907 C915 1.433 . S
C908 H904 0.929 . S
C908 C910 1.378 . S
C908 C912 1.350 . S
C909 C912 1.463 . S
C909 C914 1.350 . S
C909 N917 1.427 . S
C910 H901 0.930 . S
C910 C908 1.378 . S
C910 C911 1.367 . S
C911 C910 1.367 . S
C911 C913 1.433 . S
C912 C908 1.350 . S
C912 C909 1.463 . S
C912 N916 1.427 . S
C913 H903 0.929 . S
C913 C911 1.433 . S
C913 N916 1.384 . S
C914 H905 0.929 . S
C914 C906 1.378 . S
C914 C909 1.350 . S
C915 H902 0.929 . S
C915 C907 1.433 . S
C915 N917 1.384 . S
N916 C912 1.427 . S
N916 C913 1.384 . S
N917 C909 1.427 . S
N917 C915 1.384 . S
H918 C924 0.930 . S
H919 C928 0.930 . S
H920 C933 0.929 . S
H921 C931 0.929 . S
H922 C926 0.929 . S
H923 C932 0.929 . S
C924 H918 0.930 . S
C924 C925 1.367 . S
C924 C932 1.378 . S
C925 C924 1.367 . S
C925 C933 1.433 . S
C926 H922 0.929 . S
C926 C928 1.378 . S
C926 C930 1.350 . S
C927 C930 1.463 . S
C927 C932 1.350 . S
C927 N935 1.427 . S
C928 H919 0.930 . S
C928 C926 1.378 . S
C928 C929 1.367 . S
C929 C928 1.367 . S
C929 C931 1.433 . S
C930 C926 1.350 . S
C930 C927 1.463 . S
C930 N934 1.427 . S
C931 H921 0.929 . S
C931 C929 1.433 . S
C931 N934 1.384 . S
C932 H923 0.929 . S
C932 C924 1.378 . S
C932 C927 1.350 . S
C933 H920 0.929 . S
C933 C925 1.433 . S
C933 N935 1.384 . S
N934 C930 1.427 . S
N934 C931 1.384 . S
N935 C927 1.427 . S
N935 C933 1.384 . S
H936 C942 0.930 . S
H937 C946 0.930 . S
H938 C951 0.929 . S
H939 C949 0.929 . S
H940 C944 0.929 . S
H941 C950 0.929 . S
C942 H936 0.930 . S
C942 C943 1.367 . S
C942 C950 1.378 1_545 S
C943 C942 1.367 . S
C943 C951 1.433 . S
C944 H940 0.929 . S
C944 C946 1.378 . S
C944 C948 1.350 . S
C945 C948 1.463 . S
C945 C950 1.350 . S
C945 N953 1.427 . S
C946 H937 0.930 . S
C946 C944 1.378 . S
C946 C947 1.367 . S
C947 C946 1.367 . S
C947 C949 1.433 . S
C948 C944 1.350 . S
C948 C945 1.463 . S
C948 N952 1.427 . S
C949 H939 0.929 . S
C949 C947 1.433 . S
C949 N952 1.384 . S
C950 H941 0.929 . S
C950 C942 1.378 1_565 S
C950 C945 1.350 . S
C951 H938 0.929 . S
C951 C943 1.433 . S
C951 N953 1.384 1_545 S
N952 C948 1.427 . S
N952 C949 1.384 . S
N953 C945 1.427 . S
N953 C951 1.384 1_565 S
H954 C960 0.930 . S
H955 C964 0.930 . S
H956 C969 0.929 . S
H957 C967 0.929 . S
H958 C962 0.929 . S
H959 C968 0.929 . S
C960 H954 0.930 . S
C960 C961 1.367 1_455 S
C960 C968 1.378 . S
C961 C960 1.367 1_655 S
C961 C969 1.433 . S
C962 H958 0.929 . S
C962 C964 1.378 . S
C962 C966 1.350 . S
C963 C966 1.463 . S
C963 C968 1.350 . S
C963 N971 1.427 . S
C964 H955 0.930 . S
C964 C962 1.378 . S
C964 C965 1.367 . S
C965 C964 1.367 . S
C965 C967 1.433 . S
C966 C962 1.350 . S
C966 C963 1.463 . S
C966 N970 1.427 . S
C967 H957 0.929 . S
C967 C965 1.433 . S
C967 N970 1.384 . S
C968 H959 0.929 . S
C968 C960 1.378 . S
C968 C963 1.350 . S
C969 H956 0.929 . S
C969 C961 1.433 . S
C969 N971 1.384 1_655 S
N970 C966 1.427 . S
N970 C967 1.384 . S
N971 C963 1.427 . S
N971 C969 1.384 1_455 S
H972 C978 0.930 . S
H973 C982 0.930 . S
H974 C987 0.929 . S
H975 C985 0.929 . S
H976 C980 0.929 . S
H977 C986 0.929 . S
C978 H972 0.930 . S
C978 C979 1.367 . S
C978 C986 1.378 . S
C979 C978 1.367 . S
C979 C987 1.433 . S
C980 H976 0.929 . S
C980 C982 1.378 . S
C980 C984 1.350 . S
C981 C984 1.463 . S
C981 C986 1.350 . S
C981 N989 1.427 . S
C982 H973 0.930 . S
C982 C980 1.378 . S
C982 C983 1.367 . S
C983 C982 1.367 . S
C983 C985 1.433 . S
C984 C980 1.350 . S
C984 C981 1.463 . S
C984 N988 1.427 . S
C985 H975 0.929 . S
C985 C983 1.433 . S
C985 N988 1.384 . S
C986 H977 0.929 . S
C986 C978 1.378 . S
C986 C981 1.350 . S
C987 H974 0.929 . S
C987 C979 1.433 . S
C987 N989 1.384 . S
N988 C984 1.427 . S
N988 C985 1.384 . S
N989 C981 1.427 . S
N989 C987 1.384 . S
H990 C996 0.930 . S
H991 C1000 0.930 . S
H992 C1005 0.929 . S
H993 C1003 0.929 . S
H994 C998 0.929 . S
H995 C1004 0.929 . S
C996 H990 0.930 . S
C996 C997 1.367 . S
C996 C1004 1.378 . S
C997 C996 1.367 . S
C997 C1005 1.433 . S
C998 H994 0.929 . S
C998 C1000 1.378 . S
C998 C1002 1.350 . S
C999 C1002 1.463 . S
C999 C1004 1.350 . S
C999 N1007 1.427 . S
C1000 H991 0.930 . S
C1000 C998 1.378 . S
C1000 C1001 1.367 . S
C1001 C1000 1.367 . S
C1001 C1003 1.433 . S
C1002 C998 1.350 . S
C1002 C999 1.463 . S
C1002 N1006 1.427 . S
C1003 H993 0.929 . S
C1003 C1001 1.433 . S
C1003 N1006 1.384 . S
C1004 H995 0.929 . S
C1004 C996 1.378 . S
C1004 C999 1.350 . S
C1005 H992 0.929 . S
C1005 C997 1.433 . S
C1005 N1007 1.384 . S
N1006 C1002 1.427 . S
N1006 C1003 1.384 . S
N1007 C999 1.427 . S
N1007 C1005 1.384 . S
H1008 C1014 0.930 . S
H1009 C1018 0.930 . S
H1010 C1023 0.929 . S
H1011 C1021 0.929 . S
H1012 C1016 0.929 . S
H1013 C1022 0.929 . S
C1014 H1008 0.930 . S
C1014 C1015 1.367 . S
C1014 C1022 1.378 . S
C1015 C1014 1.367 . S
C1015 C1023 1.433 . S
C1016 H1012 0.929 . S
C1016 C1018 1.378 . S
C1016 C1020 1.350 . S
C1017 C1020 1.463 . S
C1017 C1022 1.350 . S
C1017 N1025 1.427 . S
C1018 H1009 0.930 . S
C1018 C1016 1.378 . S
C1018 C1019 1.367 . S
C1019 C1018 1.367 . S
C1019 C1021 1.433 . S
C1020 C1016 1.350 . S
C1020 C1017 1.463 . S
C1020 N1024 1.427 . S
C1021 H1011 0.929 . S
C1021 C1019 1.433 . S
C1021 N1024 1.384 . S
C1022 H1013 0.929 . S
C1022 C1014 1.378 . S
C1022 C1017 1.350 . S
C1023 H1010 0.929 . S
C1023 C1015 1.433 . S
C1023 N1025 1.384 . S
N1024 C1020 1.427 . S
N1024 C1021 1.384 . S
N1025 C1017 1.427 . S
N1025 C1023 1.384 . S
H1026 C1032 0.930 . S
H1027 C1036 0.930 . S
H1028 C1041 0.929 . S
H1029 C1039 0.929 . S
H1030 C1034 0.929 . S
H1031 C1040 0.929 . S
C1032 H1026 0.930 . S
C1032 C1033 1.367 . S
C1032 C1040 1.378 . S
C1033 C1032 1.367 . S
C1033 C1041 1.433 . S
C1034 H1030 0.929 . S
C1034 C1036 1.378 . S
C1034 C1038 1.350 . S
C1035 C1038 1.463 . S
C1035 C1040 1.350 . S
C1035 N1043 1.427 . S
C1036 H1027 0.930 . S
C1036 C1034 1.378 . S
C1036 C1037 1.367 . S
C1037 C1036 1.367 . S
C1037 C1039 1.433 . S
C1038 C1034 1.350 . S
C1038 C1035 1.463 . S
C1038 N1042 1.427 . S
C1039 H1029 0.929 . S
C1039 C1037 1.433 . S
C1039 N1042 1.384 . S
C1040 H1031 0.929 . S
C1040 C1032 1.378 . S
C1040 C1035 1.350 . S
C1041 H1028 0.929 . S
C1041 C1033 1.433 . S
C1041 N1043 1.384 . S
N1042 C1038 1.427 . S
N1042 C1039 1.384 . S
N1043 C1035 1.427 . S
N1043 C1041 1.384 . S
H1044 C1050 0.930 . S
H1045 C1054 0.930 . S
H1046 C1059 0.929 . S
H1047 C1057 0.929 . S
H1048 C1052 0.929 1_565 S
H1049 C1058 0.929 . S
C1050 H1044 0.930 . S
C1050 C1051 1.367 . S
C1050 C1058 1.378 . S
C1051 C1050 1.367 . S
C1051 C1059 1.433 . S
C1052 H1048 0.929 1_545 S
C1052 C1054 1.378 . S
C1052 C1056 1.350 . S
C1053 C1056 1.463 1_565 S
C1053 C1058 1.350 . S
C1053 N1061 1.427 . S
C1054 H1045 0.930 . S
C1054 C1052 1.378 . S
C1054 C1055 1.367 . S
C1055 C1054 1.367 . S
C1055 C1057 1.433 . S
C1056 C1052 1.350 . S
C1056 C1053 1.463 1_545 S
C1056 N1060 1.427 . S
C1057 H1047 0.929 . S
C1057 C1055 1.433 . S
C1057 N1060 1.384 . S
C1058 H1049 0.929 . S
C1058 C1050 1.378 . S
C1058 C1053 1.350 . S
C1059 H1046 0.929 . S
C1059 C1051 1.433 . S
C1059 N1061 1.384 . S
N1060 C1056 1.427 . S
N1060 C1057 1.384 . S
N1061 C1053 1.427 . S
N1061 C1059 1.384 . S
H1062 C1068 0.930 . S
H1063 C1072 0.930 . S
H1064 C1077 0.929 . S
H1065 C1075 0.929 . S
H1066 C1070 0.929 . S
H1067 C1076 0.929 . S
C1068 H1062 0.930 . S
C1068 C1069 1.367 . S
C1068 C1076 1.378 . S
C1069 C1068 1.367 . S
C1069 C1077 1.433 . S
C1070 H1066 0.929 . S
C1070 C1072 1.378 . S
C1070 C1074 1.350 . S
C1071 C1074 1.463 1_455 S
C1071 C1076 1.350 . S
C1071 N1079 1.427 . S
C1072 H1063 0.930 . S
C1072 C1070 1.378 . S
C1072 C1073 1.367 . S
C1073 C1072 1.367 . S
C1073 C1075 1.433 . S
C1074 C1070 1.350 . S
C1074 C1071 1.463 1_655 S
C1074 N1078 1.427 . S
C1075 H1065 0.929 . S
C1075 C1073 1.433 . S
C1075 N1078 1.384 . S
C1076 H1067 0.929 . S
C1076 C1068 1.378 . S
C1076 C1071 1.350 . S
C1077 H1064 0.929 . S
C1077 C1069 1.433 . S
C1077 N1079 1.384 . S
N1078 C1074 1.427 . S
N1078 C1075 1.384 . S
N1079 C1071 1.427 . S
N1079 C1077 1.384 . S
H1080 C1086 0.930 . S
H1081 C1090 0.930 . S
H1082 C1095 0.929 . S
H1083 C1093 0.929 . S
H1084 C1088 0.929 . S
H1085 C1094 0.929 . S
C1086 H1080 0.930 . S
C1086 C1087 1.367 . S
C1086 C1094 1.378 . S
C1087 C1086 1.367 . S
C1087 C1095 1.433 . S
C1088 H1084 0.929 . S
C1088 C1090 1.378 . S
C1088 C1092 1.350 . S
C1089 C1092 1.463 . S
C1089 C1094 1.350 . S
C1089 N1097 1.427 . S
C1090 H1081 0.930 . S
C1090 C1088 1.378 . S
C1090 C1091 1.367 . S
C1091 C1090 1.367 . S
C1091 C1093 1.433 . S
C1092 C1088 1.350 . S
C1092 C1089 1.463 . S
C1092 N1096 1.427 . S
C1093 H1083 0.929 . S
C1093 C1091 1.433 . S
C1093 N1096 1.384 . S
C1094 H1085 0.929 . S
C1094 C1086 1.378 . S
C1094 C1089 1.350 . S
C1095 H1082 0.929 . S
C1095 C1087 1.433 . S
C1095 N1097 1.384 . S
N1096 C1092 1.427 . S
N1096 C1093 1.384 . S
N1097 C1089 1.427 . S
N1097 C1095 1.384 . S
H1098 C1104 0.930 . S
H1099 C1108 0.930 . S
H1100 C1113 0.929 . S
H1101 C1111 0.929 . S
H1102 C1106 0.929 . S
H1103 C1112 0.929 . S
C1104 H1098 0.930 . S
C1104 C1105 1.367 . S
C1104 C1112 1.378 1_455 S
C1105 C1104 1.367 . S
C1105 C1113 1.433 . S
C1106 H1102 0.929 . S
C1106 C1108 1.378 . S
C1106 C1110 1.350 . S
C1107 C1110 1.463 . S
C1107 C1112 1.350 . S
C1107 N1115 1.427 . S
C1108 H1099 0.930 . S
C1108 C1106 1.378 . S
C1108 C1109 1.367 . S
C1109 C1108 1.367 . S
C1109 C1111 1.433 . S
C1110 C1106 1.350 . S
C1110 C1107 1.463 . S
C1110 N1114 1.427 . S
C1111 H1101 0.929 . S
C1111 C1109 1.433 . S
C1111 N1114 1.384 . S
C1112 H1103 0.929 . S
C1112 C1104 1.378 1_655 S
C1112 C1107 1.350 . S
C1113 H1100 0.929 . S
C1113 C1105 1.433 . S
C1113 N1115 1.384 1_455 S
N1114 C1110 1.427 . S
N1114 C1111 1.384 . S
N1115 C1107 1.427 . S
N1115 C1113 1.384 1_655 S
H1116 C1122 0.930 . S
H1117 C1126 0.930 . S
H1118 C1131 0.929 . S
H1119 C1129 0.929 . S
H1120 C1124 0.929 . S
H1121 C1130 0.929 . S
C1122 H1116 0.930 . S
C1122 C1123 1.367 . S
C1122 C1130 1.378 . S
C1123 C1122 1.367 . S
C1123 C1131 1.433 . S
C1124 H1120 0.929 . S
C1124 C1126 1.378 . S
C1124 C1128 1.350 . S
C1125 C1128 1.463 . S
C1125 C1130 1.350 . S
C1125 N1133 1.427 . S
C1126 H1117 0.930 . S
C1126 C1124 1.378 . S
C1126 C1127 1.367 . S
C1127 C1126 1.367 . S
C1127 C1129 1.433 . S
C1128 C1124 1.350 . S
C1128 C1125 1.463 . S
C1128 N1132 1.427 . S
C1129 H1119 0.929 . S
C1129 C1127 1.433 . S
C1129 N1132 1.384 . S
C1130 H1121 0.929 . S
C1130 C1122 1.378 . S
C1130 C1125 1.350 . S
C1131 H1118 0.929 . S
C1131 C1123 1.433 . S
C1131 N1133 1.384 . S
N1132 C1128 1.427 . S
N1132 C1129 1.384 . S
N1133 C1125 1.427 . S
N1133 C1131 1.384 . S
H1134 C1140 0.930 . S
H1135 C1144 0.930 . S
H1136 C1149 0.929 . S
H1137 C1147 0.929 . S
H1138 C1142 0.929 . S
H1139 C1148 0.929 . S
C1140 H1134 0.930 . S
C1140 C1141 1.367 . S
C1140 C1148 1.378 1_565 S
C1141 C1140 1.367 . S
C1141 C1149 1.433 . S
C1142 H1138 0.929 . S
C1142 C1144 1.378 . S
C1142 C1146 1.350 . S
C1143 C1146 1.463 . S
C1143 C1148 1.350 . S
C1143 N1151 1.427 . S
C1144 H1135 0.930 . S
C1144 C1142 1.378 . S
C1144 C1145 1.367 . S
C1145 C1144 1.367 . S
C1145 C1147 1.433 . S
C1146 C1142 1.350 . S
C1146 C1143 1.463 . S
C1146 N1150 1.427 . S
C1147 H1137 0.929 . S
C1147 C1145 1.433 . S
C1147 N1150 1.384 . S
C1148 H1139 0.929 . S
C1148 C1140 1.378 1_545 S
C1148 C1143 1.350 . S
C1149 H1136 0.929 . S
C1149 C1141 1.433 . S
C1149 N1151 1.384 1_565 S
N1150 C1146 1.427 . S
N1150 C1147 1.384 . S
N1151 C1143 1.427 . S
N1151 C1149 1.384 1_545 S
H1152 C1158 0.930 . S
H1153 C1162 0.930 . S
H1154 C1167 0.929 . S
H1155 C1165 0.929 . S
H1156 C1160 0.929 . S
H1157 C1166 0.929 . S
C1158 H1152 0.930 . S
C1158 C1159 1.367 . S
C1158 C1166 1.378 . S
C1159 C1158 1.367 . S
C1159 C1167 1.433 . S
C1160 H1156 0.929 . S
C1160 C1162 1.378 . S
C1160 C1164 1.350 . S
C1161 C1164 1.463 . S
C1161 C1166 1.350 . S
C1161 N1169 1.427 . S
C1162 H1153 0.930 . S
C1162 C1160 1.378 . S
C1162 C1163 1.367 . S
C1163 C1162 1.367 . S
C1163 C1165 1.433 . S
C1164 C1160 1.350 . S
C1164 C1161 1.463 . S
C1164 N1168 1.427 . S
C1165 H1155 0.929 . S
C1165 C1163 1.433 . S
C1165 N1168 1.384 . S
C1166 H1157 0.929 . S
C1166 C1158 1.378 . S
C1166 C1161 1.350 . S
C1167 H1154 0.929 . S
C1167 C1159 1.433 . S
C1167 N1169 1.384 . S
N1168 C1164 1.427 . S
N1168 C1165 1.384 . S
N1169 C1161 1.427 . S
N1169 C1167 1.384 . S
H1170 C1176 0.930 . S
H1171 C1180 0.930 . S
H1172 C1185 0.929 . S
H1173 C1183 0.929 . S
H1174 C1178 0.929 . S
H1175 C1184 0.929 . S
C1176 H1170 0.930 . S
C1176 C1177 1.367 . S
C1176 C1184 1.378 . S
C1177 C1176 1.367 . S
C1177 C1185 1.433 . S
C1178 H1174 0.929 . S
C1178 C1180 1.378 . S
C1178 C1182 1.350 . S
C1179 C1182 1.463 . S
C1179 C1184 1.350 . S
C1179 N1187 1.427 . S
C1180 H1171 0.930 . S
C1180 C1178 1.378 . S
C1180 C1181 1.367 . S
C1181 C1180 1.367 . S
C1181 C1183 1.433 . S
C1182 C1178 1.350 . S
C1182 C1179 1.463 . S
C1182 N1186 1.427 . S
C1183 H1173 0.929 . S
C1183 C1181 1.433 . S
C1183 N1186 1.384 . S
C1184 H1175 0.929 . S
C1184 C1176 1.378 . S
C1184 C1179 1.350 . S
C1185 H1172 0.929 . S
C1185 C1177 1.433 . S
C1185 N1187 1.384 . S
N1186 C1182 1.427 . S
N1186 C1183 1.384 . S
N1187 C1179 1.427 . S
N1187 C1185 1.384 . S
H1188 C1194 0.930 . S
H1189 C1198 0.930 . S
H1190 C1203 0.929 . S
H1191 C1201 0.929 . S
H1192 C1196 0.929 . S
H1193 C1202 0.929 . S
C1194 H1188 0.930 . S
C1194 C1195 1.367 . S
C1194 C1202 1.378 . S
C1195 C1194 1.367 . S
C1195 C1203 1.433 . S
C1196 H1192 0.929 . S
C1196 C1198 1.378 . S
C1196 C1200 1.350 . S
C1197 C1200 1.463 . S
C1197 C1202 1.350 . S
C1197 N1205 1.427 . S
C1198 H1189 0.930 . S
C1198 C1196 1.378 . S
C1198 C1199 1.367 . S
C1199 C1198 1.367 . S
C1199 C1201 1.433 . S
C1200 C1196 1.350 . S
C1200 C1197 1.463 . S
C1200 N1204 1.427 . S
C1201 H1191 0.929 . S
C1201 C1199 1.433 . S
C1201 N1204 1.384 . S
C1202 H1193 0.929 . S
C1202 C1194 1.378 . S
C1202 C1197 1.350 . S
C1203 H1190 0.929 . S
C1203 C1195 1.433 . S
C1203 N1205 1.384 . S
N1204 C1200 1.427 . S
N1204 C1201 1.384 . S
N1205 C1197 1.427 . S
N1205 C1203 1.384 . S
H1206 C1212 0.930 . S
H1207 C1216 0.930 . S
H1208 C1221 0.929 . S
H1209 C1219 0.929 . S
H1210 C1214 0.929 . S
H1211 C1220 0.929 . S
C1212 H1206 0.930 . S
C1212 C1213 1.367 . S
C1212 C1220 1.378 . S
C1213 C1212 1.367 . S
C1213 C1221 1.433 . S
C1214 H1210 0.929 . S
C1214 C1216 1.378 . S
C1214 C1218 1.350 . S
C1215 C1218 1.463 . S
C1215 C1220 1.350 . S
C1215 N1223 1.427 . S
C1216 H1207 0.930 . S
C1216 C1214 1.378 . S
C1216 C1217 1.367 . S
C1217 C1216 1.367 . S
C1217 C1219 1.433 . S
C1218 C1214 1.350 . S
C1218 C1215 1.463 . S
C1218 N1222 1.427 . S
C1219 H1209 0.929 . S
C1219 C1217 1.433 . S
C1219 N1222 1.384 . S
C1220 H1211 0.929 . S
C1220 C1212 1.378 . S
C1220 C1215 1.350 . S
C1221 H1208 0.929 . S
C1221 C1213 1.433 . S
C1221 N1223 1.384 . S
N1222 C1218 1.427 . S
N1222 C1219 1.384 . S
N1223 C1215 1.427 . S
N1223 C1221 1.384 . S
H1224 C1230 0.930 . S
H1225 C1234 0.930 . S
H1226 C1239 0.929 . S
H1227 C1237 0.929 . S
H1228 C1232 0.929 . S
H1229 C1238 0.929 . S
C1230 H1224 0.930 . S
C1230 C1231 1.367 . S
C1230 C1238 1.378 . S
C1231 C1230 1.367 . S
C1231 C1239 1.433 . S
C1232 H1228 0.929 . S
C1232 C1234 1.378 . S
C1232 C1236 1.350 . S
C1233 C1236 1.463 . S
C1233 C1238 1.350 . S
C1233 N1241 1.427 . S
C1234 H1225 0.930 . S
C1234 C1232 1.378 . S
C1234 C1235 1.367 . S
C1235 C1234 1.367 . S
C1235 C1237 1.433 . S
C1236 C1232 1.350 . S
C1236 C1233 1.463 . S
C1236 N1240 1.427 . S
C1237 H1227 0.929 . S
C1237 C1235 1.433 . S
C1237 N1240 1.384 . S
C1238 H1229 0.929 . S
C1238 C1230 1.378 . S
C1238 C1233 1.350 . S
C1239 H1226 0.929 . S
C1239 C1231 1.433 . S
C1239 N1241 1.384 . S
N1240 C1236 1.427 . S
N1240 C1237 1.384 . S
N1241 C1233 1.427 . S
N1241 C1239 1.384 . S
H1242 C1248 0.930 . S
H1243 C1252 0.930 . S
H1244 C1257 0.929 . S
H1245 C1255 0.929 . S
H1246 C1250 0.929 . S
H1247 C1256 0.929 . S
C1248 H1242 0.930 . S
C1248 C1249 1.367 . S
C1248 C1256 1.378 . S
C1249 C1248 1.367 . S
C1249 C1257 1.433 . S
C1250 H1246 0.929 . S
C1250 C1252 1.378 . S
C1250 C1254 1.350 . S
C1251 C1254 1.463 . S
C1251 C1256 1.350 . S
C1251 N1259 1.427 . S
C1252 H1243 0.930 . S
C1252 C1250 1.378 . S
C1252 C1253 1.367 . S
C1253 C1252 1.367 . S
C1253 C1255 1.433 . S
C1254 C1250 1.350 . S
C1254 C1251 1.463 . S
C1254 N1258 1.427 . S
C1255 H1245 0.929 . S
C1255 C1253 1.433 . S
C1255 N1258 1.384 . S
C1256 H1247 0.929 . S
C1256 C1248 1.378 . S
C1256 C1251 1.350 . S
C1257 H1244 0.929 . S
C1257 C1249 1.433 . S
C1257 N1259 1.384 . S
N1258 C1254 1.427 . S
N1258 C1255 1.384 . S
N1259 C1251 1.427 . S
N1259 C1257 1.384 . S
H1260 C1266 0.930 . S
H1261 C1270 0.930 . S
H1262 C1275 0.929 . S
H1263 C1273 0.929 . S
H1264 C1268 0.929 . S
H1265 C1274 0.929 . S
C1266 H1260 0.930 . S
C1266 C1267 1.367 . S
C1266 C1274 1.378 . S
C1267 C1266 1.367 . S
C1267 C1275 1.433 . S
C1268 H1264 0.929 . S
C1268 C1270 1.378 . S
C1268 C1272 1.350 . S
C1269 C1272 1.463 . S
C1269 C1274 1.350 . S
C1269 N1277 1.427 . S
C1270 H1261 0.930 . S
C1270 C1268 1.378 . S
C1270 C1271 1.367 . S
C1271 C1270 1.367 . S
C1271 C1273 1.433 . S
C1272 C1268 1.350 . S
C1272 C1269 1.463 . S
C1272 N1276 1.427 . S
C1273 H1263 0.929 . S
C1273 C1271 1.433 . S
C1273 N1276 1.384 . S
C1274 H1265 0.929 . S
C1274 C1266 1.378 . S
C1274 C1269 1.350 . S
C1275 H1262 0.929 . S
C1275 C1267 1.433 . S
C1275 N1277 1.384 . S
N1276 C1272 1.427 . S
N1276 C1273 1.384 . S
N1277 C1269 1.427 . S
N1277 C1275 1.384 . S
H1278 C1284 0.930 . S
H1279 C1288 0.930 . S
H1280 C1293 0.929 . S
H1281 C1291 0.929 . S
H1282 C1286 0.929 . S
H1283 C1292 0.929 . S
C1284 H1278 0.930 . S
C1284 C1285 1.367 . S
C1284 C1292 1.378 . S
C1285 C1284 1.367 . S
C1285 C1293 1.433 . S
C1286 H1282 0.929 . S
C1286 C1288 1.378 . S
C1286 C1290 1.350 . S
C1287 C1290 1.463 . S
C1287 C1292 1.350 . S
C1287 N1295 1.427 . S
C1288 H1279 0.930 . S
C1288 C1286 1.378 . S
C1288 C1289 1.367 . S
C1289 C1288 1.367 . S
C1289 C1291 1.433 . S
C1290 C1286 1.350 . S
C1290 C1287 1.463 . S
C1290 N1294 1.427 . S
C1291 H1281 0.929 . S
C1291 C1289 1.433 . S
C1291 N1294 1.384 . S
C1292 H1283 0.929 . S
C1292 C1284 1.378 . S
C1292 C1287 1.350 . S
C1293 H1280 0.929 . S
C1293 C1285 1.433 . S
C1293 N1295 1.384 . S
N1294 C1290 1.427 . S
N1294 C1291 1.384 . S
N1295 C1287 1.427 . S
N1295 C1293 1.384 . S
H1296 C1302 0.930 . S
H1297 C1306 0.930 . S
H1298 C1311 0.929 . S
H1299 C1309 0.929 . S
H1300 C1304 0.929 . S
H1301 C1310 0.929 . S
C1302 H1296 0.930 . S
C1302 C1303 1.367 . S
C1302 C1310 1.378 . S
C1303 C1302 1.367 . S
C1303 C1311 1.433 . S
C1304 H1300 0.929 . S
C1304 C1306 1.378 . S
C1304 C1308 1.350 . S
C1305 C1308 1.463 . S
C1305 C1310 1.350 . S
C1305 N1313 1.427 . S
C1306 H1297 0.930 . S
C1306 C1304 1.378 . S
C1306 C1307 1.367 . S
C1307 C1306 1.367 . S
C1307 C1309 1.433 . S
C1308 C1304 1.350 . S
C1308 C1305 1.463 . S
C1308 N1312 1.427 . S
C1309 H1299 0.929 . S
C1309 C1307 1.433 . S
C1309 N1312 1.384 . S
C1310 H1301 0.929 . S
C1310 C1302 1.378 . S
C1310 C1305 1.350 . S
C1311 H1298 0.929 . S
C1311 C1303 1.433 . S
C1311 N1313 1.384 . S
N1312 C1308 1.427 . S
N1312 C1309 1.384 . S
N1313 C1305 1.427 . S
N1313 C1311 1.384 . S
H1314 C1320 0.930 . S
H1315 C1324 0.930 . S
H1316 C1329 0.929 . S
H1317 C1327 0.929 . S
H1318 C1322 0.929 . S
H1319 C1328 0.929 . S
C1320 H1314 0.930 . S
C1320 C1321 1.367 . S
C1320 C1328 1.378 . S
C1321 C1320 1.367 . S
C1321 C1329 1.433 . S
C1322 H1318 0.929 . S
C1322 C1324 1.378 . S
C1322 C1326 1.350 . S
C1323 C1326 1.463 . S
C1323 C1328 1.350 . S
C1323 N1331 1.427 . S
C1324 H1315 0.930 . S
C1324 C1322 1.378 . S
C1324 C1325 1.367 . S
C1325 C1324 1.367 . S
C1325 C1327 1.433 . S
C1326 C1322 1.350 . S
C1326 C1323 1.463 . S
C1326 N1330 1.427 . S
C1327 H1317 0.929 . S
C1327 C1325 1.433 . S
C1327 N1330 1.384 . S
C1328 H1319 0.929 . S
C1328 C1320 1.378 . S
C1328 C1323 1.350 . S
C1329 H1316 0.929 . S
C1329 C1321 1.433 . S
C1329 N1331 1.384 . S
N1330 C1326 1.427 . S
N1330 C1327 1.384 . S
N1331 C1323 1.427 . S
N1331 C1329 1.384 . S
H1332 C1338 0.930 . S
H1333 C1342 0.930 . S
H1334 C1347 0.929 . S
H1335 C1345 0.929 . S
H1336 C1340 0.929 . S
H1337 C1346 0.929 . S
C1338 H1332 0.930 . S
C1338 C1339 1.367 . S
C1338 C1346 1.378 . S
C1339 C1338 1.367 . S
C1339 C1347 1.433 . S
C1340 H1336 0.929 . S
C1340 C1342 1.378 . S
C1340 C1344 1.350 . S
C1341 C1344 1.463 . S
C1341 C1346 1.350 . S
C1341 N1349 1.427 . S
C1342 H1333 0.930 . S
C1342 C1340 1.378 . S
C1342 C1343 1.367 . S
C1343 C1342 1.367 . S
C1343 C1345 1.433 . S
C1344 C1340 1.350 . S
C1344 C1341 1.463 . S
C1344 N1348 1.427 . S
C1345 H1335 0.929 . S
C1345 C1343 1.433 . S
C1345 N1348 1.384 . S
C1346 H1337 0.929 . S
C1346 C1338 1.378 . S
C1346 C1341 1.350 . S
C1347 H1334 0.929 . S
C1347 C1339 1.433 . S
C1347 N1349 1.384 . S
N1348 C1344 1.427 . S
N1348 C1345 1.384 . S
N1349 C1341 1.427 . S
N1349 C1347 1.384 . S
H1350 C1356 0.930 . S
H1351 C1360 0.930 . S
H1352 C1365 0.929 . S
H1353 C1363 0.929 . S
H1354 C1358 0.929 . S
H1355 C1364 0.929 . S
C1356 H1350 0.930 . S
C1356 C1357 1.367 . S
C1356 C1364 1.378 . S
C1357 C1356 1.367 . S
C1357 C1365 1.433 . S
C1358 H1354 0.929 . S
C1358 C1360 1.378 . S
C1358 C1362 1.350 . S
C1359 C1362 1.463 . S
C1359 C1364 1.350 . S
C1359 N1367 1.427 . S
C1360 H1351 0.930 . S
C1360 C1358 1.378 . S
C1360 C1361 1.367 . S
C1361 C1360 1.367 . S
C1361 C1363 1.433 . S
C1362 C1358 1.350 . S
C1362 C1359 1.463 . S
C1362 N1366 1.427 . S
C1363 H1353 0.929 . S
C1363 C1361 1.433 . S
C1363 N1366 1.384 . S
C1364 H1355 0.929 . S
C1364 C1356 1.378 . S
C1364 C1359 1.350 . S
C1365 H1352 0.929 . S
C1365 C1357 1.433 . S
C1365 N1367 1.384 . S
N1366 C1362 1.427 . S
N1366 C1363 1.384 . S
N1367 C1359 1.427 . S
N1367 C1365 1.384 . S
H1368 C1374 0.930 . S
H1369 C1378 0.930 . S
H1370 C1383 0.929 . S
H1371 C1381 0.929 . S
H1372 C1376 0.929 . S
H1373 C1382 0.929 . S
C1374 H1368 0.930 . S
C1374 C1375 1.367 . S
C1374 C1382 1.378 . S
C1375 C1374 1.367 . S
C1375 C1383 1.433 . S
C1376 H1372 0.929 . S
C1376 C1378 1.378 . S
C1376 C1380 1.350 . S
C1377 C1380 1.463 . S
C1377 C1382 1.350 . S
C1377 N1385 1.427 . S
C1378 H1369 0.930 . S
C1378 C1376 1.378 . S
C1378 C1379 1.367 . S
C1379 C1378 1.367 . S
C1379 C1381 1.433 . S
C1380 C1376 1.350 . S
C1380 C1377 1.463 . S
C1380 N1384 1.427 . S
C1381 H1371 0.929 . S
C1381 C1379 1.433 . S
C1381 N1384 1.384 . S
C1382 H1373 0.929 . S
C1382 C1374 1.378 . S
C1382 C1377 1.350 . S
C1383 H1370 0.929 . S
C1383 C1375 1.433 . S
C1383 N1385 1.384 . S
N1384 C1380 1.427 . S
N1384 C1381 1.384 . S
N1385 C1377 1.427 . S
N1385 C1383 1.384 . S
H1386 C1392 0.930 . S
H1387 C1396 0.930 . S
H1388 C1401 0.929 . S
H1389 C1399 0.929 . S
H1390 C1394 0.929 . S
H1391 C1400 0.929 . S
C1392 H1386 0.930 . S
C1392 C1393 1.367 . S
C1392 C1400 1.378 . S
C1393 C1392 1.367 . S
C1393 C1401 1.433 . S
C1394 H1390 0.929 . S
C1394 C1396 1.378 . S
C1394 C1398 1.350 . S
C1395 C1398 1.463 . S
C1395 C1400 1.350 . S
C1395 N1403 1.427 . S
C1396 H1387 0.930 . S
C1396 C1394 1.378 . S
C1396 C1397 1.367 . S
C1397 C1396 1.367 . S
C1397 C1399 1.433 . S
C1398 C1394 1.350 . S
C1398 C1395 1.463 . S
C1398 N1402 1.427 . S
C1399 H1389 0.929 . S
C1399 C1397 1.433 . S
C1399 N1402 1.384 . S
C1400 H1391 0.929 . S
C1400 C1392 1.378 . S
C1400 C1395 1.350 . S
C1401 H1388 0.929 . S
C1401 C1393 1.433 . S
C1401 N1403 1.384 . S
N1402 C1398 1.427 . S
N1402 C1399 1.384 . S
N1403 C1395 1.427 . S
N1403 C1401 1.384 . S
H1404 C1410 0.930 . S
H1405 C1414 0.930 . S
H1406 C1419 0.929 . S
H1407 C1417 0.929 . S
H1408 C1412 0.929 . S
H1409 C1418 0.929 . S
C1410 H1404 0.930 . S
C1410 C1411 1.367 . S
C1410 C1418 1.378 . S
C1411 C1410 1.367 . S
C1411 C1419 1.433 . S
C1412 H1408 0.929 . S
C1412 C1414 1.378 . S
C1412 C1416 1.350 . S
C1413 C1416 1.463 . S
C1413 C1418 1.350 . S
C1413 N1421 1.427 . S
C1414 H1405 0.930 . S
C1414 C1412 1.378 . S
C1414 C1415 1.367 . S
C1415 C1414 1.367 . S
C1415 C1417 1.433 . S
C1416 C1412 1.350 . S
C1416 C1413 1.463 . S
C1416 N1420 1.427 . S
C1417 H1407 0.929 . S
C1417 C1415 1.433 . S
C1417 N1420 1.384 . S
C1418 H1409 0.929 . S
C1418 C1410 1.378 . S
C1418 C1413 1.350 . S
C1419 H1406 0.929 . S
C1419 C1411 1.433 . S
C1419 N1421 1.384 . S
N1420 C1416 1.427 . S
N1420 C1417 1.384 . S
N1421 C1413 1.427 . S
N1421 C1419 1.384 . S
H1422 C1428 0.930 . S
H1423 C1432 0.930 . S
H1424 C1437 0.929 . S
H1425 C1435 0.929 . S
H1426 C1430 0.929 . S
H1427 C1436 0.929 . S
C1428 H1422 0.930 . S
C1428 C1429 1.367 . S
C1428 C1436 1.378 . S
C1429 C1428 1.367 . S
C1429 C1437 1.433 . S
C1430 H1426 0.929 . S
C1430 C1432 1.378 . S
C1430 C1434 1.350 . S
C1431 C1434 1.463 . S
C1431 C1436 1.350 . S
C1431 N1439 1.427 . S
C1432 H1423 0.930 . S
C1432 C1430 1.378 . S
C1432 C1433 1.367 . S
C1433 C1432 1.367 . S
C1433 C1435 1.433 . S
C1434 C1430 1.350 . S
C1434 C1431 1.463 . S
C1434 N1438 1.427 . S
C1435 H1425 0.929 . S
C1435 C1433 1.433 . S
C1435 N1438 1.384 . S
C1436 H1427 0.929 . S
C1436 C1428 1.378 . S
C1436 C1431 1.350 . S
C1437 H1424 0.929 . S
C1437 C1429 1.433 . S
C1437 N1439 1.384 . S
N1438 C1434 1.427 . S
N1438 C1435 1.384 . S
N1439 C1431 1.427 . S
N1439 C1437 1.384 . S
H1440 C1446 0.930 . S
H1441 C1450 0.930 . S
H1442 C1455 0.929 . S
H1443 C1453 0.929 . S
H1444 C1448 0.929 . S
H1445 C1454 0.929 . S
C1446 H1440 0.930 . S
C1446 C1447 1.367 . S
C1446 C1454 1.378 . S
C1447 C1446 1.367 . S
C1447 C1455 1.433 . S
C1448 H1444 0.929 . S
C1448 C1450 1.378 . S
C1448 C1452 1.350 . S
C1449 C1452 1.463 . S
C1449 C1454 1.350 . S
C1449 N1457 1.427 . S
C1450 H1441 0.930 . S
C1450 C1448 1.378 . S
C1450 C1451 1.367 . S
C1451 C1450 1.367 . S
C1451 C1453 1.433 . S
C1452 C1448 1.350 . S
C1452 C1449 1.463 . S
C1452 N1456 1.427 . S
C1453 H1443 0.929 . S
C1453 C1451 1.433 . S
C1453 N1456 1.384 . S
C1454 H1445 0.929 . S
C1454 C1446 1.378 . S
C1454 C1449 1.350 . S
C1455 H1442 0.929 . S
C1455 C1447 1.433 . S
C1455 N1457 1.384 . S
N1456 C1452 1.427 . S
N1456 C1453 1.384 . S
N1457 C1449 1.427 . S
N1457 C1455 1.384 . S
H1458 C1464 0.930 . S
H1459 C1468 0.930 . S
H1460 C1473 0.929 . S
H1461 C1471 0.929 . S
H1462 C1466 0.929 . S
H1463 C1472 0.929 . S
C1464 H1458 0.930 . S
C1464 C1465 1.367 . S
C1464 C1472 1.378 . S
C1465 C1464 1.367 . S
C1465 C1473 1.433 . S
C1466 H1462 0.929 . S
C1466 C1468 1.378 . S
C1466 C1470 1.350 . S
C1467 C1470 1.463 . S
C1467 C1472 1.350 . S
C1467 N1475 1.427 . S
C1468 H1459 0.930 . S
C1468 C1466 1.378 . S
C1468 C1469 1.367 . S
C1469 C1468 1.367 . S
C1469 C1471 1.433 . S
C1470 C1466 1.350 . S
C1470 C1467 1.463 . S
C1470 N1474 1.427 . S
C1471 H1461 0.929 . S
C1471 C1469 1.433 . S
C1471 N1474 1.384 . S
C1472 H1463 0.929 . S
C1472 C1464 1.378 . S
C1472 C1467 1.350 . S
C1473 H1460 0.929 . S
C1473 C1465 1.433 . S
C1473 N1475 1.384 . S
N1474 C1470 1.427 . S
N1474 C1471 1.384 . S
N1475 C1467 1.427 . S
N1475 C1473 1.384 . S
H1476 C1482 0.930 . S
H1477 C1486 0.930 . S
H1478 C1491 0.929 . S
H1479 C1489 0.929 . S
H1480 C1484 0.929 . S
H1481 C1490 0.929 . S
C1482 H1476 0.930 . S
C1482 C1483 1.367 . S
C1482 C1490 1.378 . S
C1483 C1482 1.367 . S
C1483 C1491 1.433 . S
C1484 H1480 0.929 . S
C1484 C1486 1.378 . S
C1484 C1488 1.350 . S
C1485 C1488 1.463 . S
C1485 C1490 1.350 . S
C1485 N1493 1.427 . S
C1486 H1477 0.930 . S
C1486 C1484 1.378 . S
C1486 C1487 1.367 . S
C1487 C1486 1.367 . S
C1487 C1489 1.433 . S
C1488 C1484 1.350 . S
C1488 C1485 1.463 . S
C1488 N1492 1.427 . S
C1489 H1479 0.929 . S
C1489 C1487 1.433 . S
C1489 N1492 1.384 . S
C1490 H1481 0.929 . S
C1490 C1482 1.378 . S
C1490 C1485 1.350 . S
C1491 H1478 0.929 . S
C1491 C1483 1.433 . S
C1491 N1493 1.384 . S
N1492 C1488 1.427 . S
N1492 C1489 1.384 . S
N1493 C1485 1.427 . S
N1493 C1491 1.384 . S
H1494 C1500 0.930 . S
H1495 C1504 0.930 . S
H1496 C1509 0.929 . S
H1497 C1507 0.929 . S
H1498 C1502 0.929 . S
H1499 C1508 0.929 . S
C1500 H1494 0.930 . S
C1500 C1501 1.367 . S
C1500 C1508 1.378 . S
C1501 C1500 1.367 . S
C1501 C1509 1.433 . S
C1502 H1498 0.929 . S
C1502 C1504 1.378 . S
C1502 C1506 1.350 . S
C1503 C1506 1.463 . S
C1503 C1508 1.350 . S
C1503 N1511 1.427 . S
C1504 H1495 0.930 . S
C1504 C1502 1.378 . S
C1504 C1505 1.367 . S
C1505 C1504 1.367 . S
C1505 C1507 1.433 . S
C1506 C1502 1.350 . S
C1506 C1503 1.463 . S
C1506 N1510 1.427 . S
C1507 H1497 0.929 . S
C1507 C1505 1.433 . S
C1507 N1510 1.384 . S
C1508 H1499 0.929 . S
C1508 C1500 1.378 . S
C1508 C1503 1.350 . S
C1509 H1496 0.929 . S
C1509 C1501 1.433 . S
C1509 N1511 1.384 . S
N1510 C1506 1.427 . S
N1510 C1507 1.384 . S
N1511 C1503 1.427 . S
N1511 C1509 1.384 . S
H1512 C1518 0.930 . S
H1513 C1522 0.930 . S
H1514 C1527 0.929 . S
H1515 C1525 0.929 . S
H1516 C1520 0.929 . S
H1517 C1526 0.929 . S
C1518 H1512 0.930 . S
C1518 C1519 1.367 . S
C1518 C1526 1.378 . S
C1519 C1518 1.367 . S
C1519 C1527 1.433 . S
C1520 H1516 0.929 . S
C1520 C1522 1.378 . S
C1520 C1524 1.350 . S
C1521 C1524 1.463 . S
C1521 C1526 1.350 . S
C1521 N1529 1.427 . S
C1522 H1513 0.930 . S
C1522 C1520 1.378 . S
C1522 C1523 1.367 . S
C1523 C1522 1.367 . S
C1523 C1525 1.433 . S
C1524 C1520 1.350 . S
C1524 C1521 1.463 . S
C1524 N1528 1.427 . S
C1525 H1515 0.929 . S
C1525 C1523 1.433 . S
C1525 N1528 1.384 . S
C1526 H1517 0.929 . S
C1526 C1518 1.378 . S
C1526 C1521 1.350 . S
C1527 H1514 0.929 . S
C1527 C1519 1.433 . S
C1527 N1529 1.384 . S
N1528 C1524 1.427 . S
N1528 C1525 1.384 . S
N1529 C1521 1.427 . S
N1529 C1527 1.384 . S
C565 C147 1.673 . S
C569 C201 1.680 . S
C583 C158 1.799 . S
C587 C241 1.797 . S
C601 C136 1.601 . S
C605 C293 1.594 . S
C619 C125 1.480 . S
C623 C253 1.465 1_556 S
C641 C281 1.503 . S
C637 C103 1.505 . S
C655 C114 1.357 . S
C659 C213 1.358 1_556 S
C677 C220 1.673 . S
C673 C131 1.653 . S
C695 C260 1.675 . S
C691 C109 1.665 . S
C709 C120 1.662 . S
C713 C280 1.684 . S
C727 C153 1.509 . S
C731 C240 1.517 . S
C745 C164 1.454 . S
C749 C300 1.459 . S
C767 C200 1.471 . S
C763 C142 1.451 . S
C785 C321 1.680 . S
C781 C15 1.672 . S
C799 C26 1.799 . S
C803 C361 1.796 . S
C817 C4 1.602 . S
C821 C413 1.589 . S
C835 C191 1.483 . S
C839 C373 1.463 . S
C853 C169 1.506 . S
C857 C401 1.502 . S
C871 C180 1.354 . S
C875 C333 1.350 . S
C889 C197 1.659 . S
C893 C340 1.674 . S
C907 C175 1.670 . S
C911 C380 1.678 . S
C929 C400 1.676 . S
C925 C186 1.654 . S
C943 C21 1.509 . S
C947 C360 1.514 . S
C965 C420 1.459 . S
C961 C32 1.454 . S
C979 C10 1.447 . S
C983 C320 1.470 . S
C1001 C441 1.680 . S
C997 C81 1.671 . S
C1015 C92 1.796 . S
C1019 C481 1.793 . S
C1037 C533 1.588 . S
C1033 C70 1.594 . S
C1055 C493 1.458 . S
C1051 C59 1.475 . S
C1073 C521 1.505 . S
C1069 C37 1.506 . S
C1087 C48 1.362 . S
C1091 C453 1.359 . S
C1105 C65 1.659 . S
C1109 C460 1.674 . S
C1123 C43 1.672 . S
C1127 C500 1.680 . S
C1145 C520 1.677 . S
C1141 C54 1.651 . S
C1159 C87 1.499 . S
C1163 C480 1.507 . S
C1177 C98 1.460 . S
C1181 C540 1.463 . S
C1195 C76 1.449 . S
C1199 C440 1.469 . S
C1213 C170 1.490 . S
C1217 C224 1.464 . S
C1235 C264 1.909 . S
C1231 C181 1.943 . S
C1249 C192 1.562 . S
C1253 C287 1.574 . S
C1267 C71 1.778 . S
C1271 C247 1.782 . S
C1285 C82 1.680 . S
C1289 C304 1.662 . S
C1307 C207 1.309 . S
C1303 C93 1.304 . S
C1321 C38 1.491 . S
C1325 C344 1.465 . S
C1339 C49 1.942 . S
C1343 C384 1.908 . S
C1357 C60 1.562 . S
C1361 C407 1.575 . S
C1375 C137 1.783 . S
C1379 C367 1.780 . S
C1397 C424 1.662 . S
C1393 C148 1.680 . S
C1411 C159 1.304 . S
C1415 C327 1.311 . S
C1429 C104 1.495 . S
C1433 C464 1.473 . S
C1447 C115 1.947 . S
C1451 C504 1.914 . S
C1469 C527 1.575 . S
C1465 C126 1.562 . S
C1483 C5 1.783 . S
C1487 C487 1.781 . S
C1501 C16 1.680 . S
C1505 C544 1.662 . S
C1519 C27 1.300 . S
C1523 C447 1.310 . S
