# Generated by pormake.
# Topology tsx, (6,3)-cn, num edge types: 1
# Building blocks:
#     Node 0, Type 0, BuildingBlock: FUNLAD_clean_sbu_0, # of connection points: 6
#     Node 1, Type 0, BuildingBlock: FUNLAD_clean_sbu_0, # of connection points: 6
#     Node 2, Type 1, BuildingBlock: BETDAH_clean_linker_0, # of connection points: 3
#     Node 3, Type 1, BuildingBlock: BETDAH_clean_linker_0, # of connection points: 3
#     Node 4, Type 1, BuildingBlock: BETDAH_clean_linker_0, # of connection points: 3
#     Node 5, Type 1, BuildingBlock: BETDAH_clean_linker_0, # of connection points: 3
#     Edge 6, Type (0, 1), BuildingBlock: MIFKUJ_clean_linker_0, # of connection points: 2
#     Edge 7, Type (0, 1), BuildingBlock: MIFKUJ_clean_linker_0, # of connection points: 2
#     Edge 8, Type (0, 1), BuildingBlock: MIFKUJ_clean_linker_0, # of connection points: 2
#     Edge 9, Type (0, 1), BuildingBlock: MIFKUJ_clean_linker_0, # of connection points: 2
#     Edge 10, Type (0, 1), BuildingBlock: MIFKUJ_clean_linker_0, # of connection points: 2
#     Edge 11, Type (0, 1), BuildingBlock: MIFKUJ_clean_linker_0, # of connection points: 2
#     Edge 12, Type (0, 1), BuildingBlock: MIFKUJ_clean_linker_0, # of connection points: 2
#     Edge 13, Type (0, 1), BuildingBlock: MIFKUJ_clean_linker_0, # of connection points: 2
#     Edge 14, Type (0, 1), BuildingBlock: MIFKUJ_clean_linker_0, # of connection points: 2
#     Edge 15, Type (0, 1), BuildingBlock: MIFKUJ_clean_linker_0, # of connection points: 2
#     Edge 16, Type (0, 1), BuildingBlock: MIFKUJ_clean_linker_0, # of connection points: 2
#     Edge 17, Type (0, 1), BuildingBlock: MIFKUJ_clean_linker_0, # of connection points: 2
# Relax obj value: 0.105
# Max RMSD: 0.112
# Mean RMSD: 0.106
data_MOF--net-tsx--node1-FUNLAD_clean_sbu_0--node2-BETDAH_clean_linker_0--edge1-MIFKUJ_clean_linker_0
_symmetry_space_group_name_H-M    P1
_symmetry_Int_Tables_number       1
_symmetry_cell_setting            triclinic
loop_
_symmetry_equiv_pos_as_xyz
'x, y, z'
_cell_length_a     25.447395
_cell_length_b     28.137476
_cell_length_c     49.05948
_cell_angle_alpha  90.92833
_cell_angle_beta   101.55712
_cell_angle_gamma 90.039045
loop_
_atom_site_label
_atom_site_type_symbol
_atom_site_fract_x
_atom_site_fract_y
_atom_site_fract_z
_atom_type_partial_charge
C0 C 0.93489 0.94339 0.0064 0.0
N1 N 0.00574 0.02845 0.07507 0.0
C2 C 0.96013 0.01989 0.0847 0.0
C3 C 0.9601 0.02341 0.11308 0.0
C4 C 0.00743 0.03602 0.13189 0.0
C5 C 0.05415 0.04423 0.12145 0.0
C6 C 0.05243 0.04013 0.09281 0.0
Zn7 Zn 0.00066 0.02694 0.03284 0.0
C8 C 0.08644 0.97285 0.01446 0.0
N9 N 0.98313 0.02585 0.9443 0.0
C10 C 0.93602 0.0168 0.92625 0.0
C11 C 0.02837 0.03709 0.93492 0.0
C12 C 0.02722 0.04041 0.9065 0.0
C13 C 0.97919 0.03167 0.88738 0.0
C14 C 0.93322 0.01926 0.89751 0.0
Zn15 Zn 0.98811 0.0256 0.98651 0.0
O16 O 0.95507 0.96373 0.02944 0.0
C17 C 0.90293 0.08068 0.00434 0.0
O18 O 0.94134 0.96189 0.98378 0.0
H19 H 0.06553 0.04385 0.94954 0.0
H20 H 0.92329 0.01112 0.07026 0.0
H21 H 0.9005 0.0081 0.93414 0.0
O22 O 0.92972 0.06886 0.02798 0.0
O23 O 0.91824 0.06673 0.98246 0.0
H24 H 0.08822 0.04688 0.08473 0.0
O25 O 0.03506 0.08889 0.99017 0.0
O26 O 0.04691 0.08938 0.03567 0.0
O27 O 0.05843 0.98469 0.99114 0.0
O28 O 0.07166 0.98555 0.03677 0.0
C29 C 0.05546 0.10796 0.01355 0.0
H30 H 0.92297 0.01743 0.12012 0.0
H31 H 0.09163 0.05358 0.13525 0.0
H32 H 0.06378 0.04924 0.89953 0.0
H33 H 0.89536 0.01235 0.88341 0.0
C34 C 0.45513 0.41992 0.51451 0.0
N35 N 0.53374 0.50778 0.58015 0.0
C36 C 0.48636 0.50789 0.58899 0.0
C37 C 0.48528 0.51488 0.61706 0.0
C38 C 0.53345 0.52149 0.63652 0.0
C39 C 0.58194 0.52084 0.62687 0.0
C40 C 0.58115 0.51396 0.59845 0.0
Zn41 Zn 0.53024 0.50032 0.53815 0.0
C42 C 0.60915 0.43429 0.52295 0.0
N43 N 0.51324 0.48655 0.44991 0.0
C44 C 0.46593 0.48245 0.43131 0.0
C45 C 0.56048 0.4912 0.44121 0.0
C46 C 0.56138 0.493 0.41295 0.0
C47 C 0.5132 0.48988 0.39319 0.0
C48 C 0.46499 0.48402 0.40269 0.0
Zn49 Zn 0.51649 0.49166 0.49197 0.0
O50 O 0.4764 0.44272 0.53656 0.0
C51 C 0.43798 0.55764 0.50661 0.0
O52 O 0.46526 0.43227 0.49126 0.0
H53 H 0.59765 0.49494 0.45627 0.0
H54 H 0.44906 0.5031 0.57415 0.0
H55 H 0.4288 0.47896 0.43865 0.0
O56 O 0.46526 0.54945 0.53074 0.0
O57 O 0.44982 0.53668 0.48556 0.0
H58 H 0.61837 0.51383 0.59098 0.0
O59 O 0.56701 0.55203 0.49342 0.0
O60 O 0.58377 0.55743 0.53901 0.0
O61 O 0.58342 0.44604 0.49907 0.0
O62 O 0.59545 0.45167 0.54459 0.0
C63 C 0.59042 0.57279 0.51574 0.0
H64 H 0.44683 0.51596 0.62331 0.0
H65 H 0.62011 0.52526 0.64111 0.0
H66 H 0.59942 0.49836 0.40673 0.0
H67 H 0.42694 0.48093 0.3882 0.0
H68 H 0.06757 0.9492 0.40642 0.0
H69 H 0.9856 0.06226 0.4408 0.0
H70 H 0.06906 0.95444 0.49395 0.0
C71 C 0.05551 0.96635 0.42415 0.0
C72 C 0.07167 0.94714 0.45057 0.0
C73 C 0.02391 0.0075 0.42042 0.0
C74 C 0.00949 0.03021 0.44362 0.0
C75 C 0.02563 0.01063 0.47029 0.0
C76 C 0.05625 0.96916 0.47343 0.0
N77 N 0.01266 0.03128 0.49462 0.0
C78 C 0.98161 0.07146 0.49551 0.0
H79 H 0.9117 0.9708 0.58888 0.0
H80 H 0.07469 0.0203 0.5985 0.0
H81 H 8e-05 0.94408 0.52432 0.0
C82 C 0.94762 0.97567 0.58049 0.0
C83 C 0.94986 0.95613 0.5543 0.0
C84 C 0.99283 -0.00234 0.59702 0.0
C85 C 0.03921 0.00396 0.58593 0.0
C86 C 0.04141 0.98491 0.55951 0.0
C87 C 0.99731 0.96019 0.54419 0.0
N88 N 0.08901 0.98656 0.54886 0.0
C89 C 0.11843 0.02799 0.54886 0.0
H90 H 0.5478 0.46786 0.91161 0.0
H91 H 0.478 0.59434 0.93955 0.0
H92 H 0.5414 0.48623 0.99786 0.0
C93 C 0.53627 0.48865 0.92827 0.0
C94 C 0.54721 0.47154 0.95544 0.0
C95 C 0.51112 0.5327 0.92243 0.0
C96 C 0.49682 0.56007 0.94405 0.0
C97 C 0.50733 0.54269 0.97141 0.0
C98 C 0.53239 0.49873 0.97676 0.0
N99 N 0.49475 0.56839 0.99435 0.0
C100 C 0.46376 0.60916 0.9924 0.0
H101 H 0.45467 0.46085 0.1047 0.0
H102 H 0.6053 0.52533 0.09889 0.0
H103 H 0.52232 0.43581 0.03226 0.0
C104 C 0.48535 0.4679 0.0928 0.0
C105 C 0.48195 0.44604 0.06659 0.0
C106 C 0.52978 0.49614 0.10475 0.0
C107 C 0.57063 0.5039 0.08977 0.0
C108 C 0.56741 0.48235 0.0634 0.0
C109 C 0.52386 0.45282 0.05234 0.0
N110 N 0.6084 0.48791 0.04798 0.0
C111 C 0.63415 0.53083 0.04603 0.0
H112 H 0.08527 0.15458 0.97044 0.0
H113 H 0.15482 0.21577 0.97361 0.0
H114 H 0.17855 0.21492 0.06314 0.0
H115 H 0.10951 0.15378 0.06026 0.0
H116 H 0.17171 0.30664 0.99759 0.0
H117 H 0.31252 0.21319 0.08848 0.0
H118 H 0.32984 0.13219 0.1066 0.0
H119 H 0.27058 0.07316 0.02495 0.0
H120 H 0.25377 0.15377 0.00627 0.0
H121 H 0.37626 0.45954 0.06855 0.0
H122 H 0.30167 0.40465 0.05317 0.0
H123 H 0.40729 0.30783 0.02141 0.0
H124 H 0.48279 0.36137 0.03812 0.0
H125 H 0.35126 0.26155 0.05082 0.0
H126 H 0.30959 0.37246 0.9776 0.0
H127 H 0.29365 0.45135 0.95642 0.0
H128 H 0.15893 0.47191 0.99578 0.0
H129 H 0.17453 0.39342 0.01755 0.0
C130 C 0.10477 0.16791 0.9908 0.0
C131 C 0.09228 0.14899 0.01512 0.0
C132 C 0.14434 0.20294 0.99254 0.0
C133 C 0.1722 0.21927 0.0186 0.0
C134 C 0.15788 0.20225 0.04284 0.0
C135 C 0.11835 0.16738 0.04114 0.0
C136 C 0.21873 0.25161 0.02072 0.0
C137 C 0.21106 0.29693 0.00916 0.0
C138 C 0.27028 0.23818 0.0351 0.0
C139 C 0.28145 0.18955 0.04604 0.0
C140 C 0.30348 0.18294 0.07437 0.0
C141 C 0.31316 0.13709 0.08474 0.0
C142 C 0.30117 0.09756 0.06695 0.0
C143 C 0.27969 0.1038 0.03873 0.0
C144 C 0.27004 0.14956 0.02824 0.0
C145 C 0.38371 0.42652 0.05835 0.0
C146 C 0.43566 0.41471 0.05481 0.0
C147 C 0.34081 0.39545 0.0492 0.0
C148 C 0.34874 0.35229 0.03589 0.0
C149 C 0.40022 0.341 0.03158 0.0
C150 C 0.44328 0.37187 0.04095 0.0
C151 C 0.3042 0.31747 0.02841 0.0
C152 C 0.31218 0.27144 0.03901 0.0
C153 C 0.25333 0.33004 0.01262 0.0
C154 C 0.24348 0.37713 0.99936 0.0
C155 C 0.27677 0.39392 0.98189 0.0
C156 C 0.26777 0.43856 0.96976 0.0
C157 C 0.22536 0.46665 0.97479 0.0
C158 C 0.19178 0.45011 0.99191 0.0
C159 C 0.20064 0.40551 0.00412 0.0
H160 H 0.21847 0.50121 0.96539 0.0
H161 H 0.3086 0.0621 0.07503 0.0
H162 H 0.13125 0.94701 0.97056 0.0
H163 H 0.20465 0.89176 0.97019 0.0
H164 H 0.22533 0.87679 0.05907 0.0
H165 H 0.15089 0.93192 0.05963 0.0
H166 H 0.31067 0.88654 0.99504 0.0
H167 H 0.25023 0.75712 0.07189 0.0
H168 H 0.17219 0.74102 0.09324 0.0
H169 H 0.06598 0.78884 0.01952 0.0
H170 H 0.14323 0.80384 0.99746 0.0
H171 H 0.49252 0.68794 0.02314 0.0
H172 H 0.43506 0.75619 0.02876 0.0
H173 H 0.30326 0.68891 0.97218 0.0
H174 H 0.36123 0.62118 0.96622 0.0
H175 H 0.27795 0.72214 0.02305 0.0
H176 H 0.36241 0.77671 0.94926 0.0
H177 H 0.43817 0.79765 0.92726 0.0
H178 H 0.49347 0.90042 0.99235 0.0
H179 H 0.41845 0.87958 0.01498 0.0
C180 C 0.15161 0.93238 0.99013 0.0
C181 C 0.13464 0.94325 0.01509 0.0
C182 C 0.19392 0.90107 0.98988 0.0
C183 C 0.22004 0.87983 0.01452 0.0
C184 C 0.20526 0.89252 0.03977 0.0
C185 C 0.16274 0.92395 0.04005 0.0
C186 C 0.25891 0.84119 0.01301 0.0
C187 C 0.30391 0.8507 0.00144 0.0
C188 C 0.2496 0.79434 0.02105 0.0
C189 C 0.20255 0.78215 0.03321 0.0
C190 C 0.21017 0.76369 0.06015 0.0
C191 C 0.16608 0.75478 0.07237 0.0
C192 C 0.11419 0.76415 0.05781 0.0
C193 C 0.1062 0.78171 0.03081 0.0
C194 C 0.1501 0.79027 0.01841 0.0
C195 C 0.45156 0.68848 0.01155 0.0
C196 C 0.43112 0.65035 0.99391 0.0
C197 C 0.4188 0.72711 0.01486 0.0
C198 C 0.36505 0.72754 1.0008 0.0
C199 C 0.34468 0.68916 0.98316 0.0
C200 C 0.37768 0.6508 0.97964 0.0
C201 C 0.32959 0.76747 0.00495 0.0
C202 C 0.28521 0.75812 0.01703 0.0
C203 C 0.3394 0.81439 0.99727 0.0
C204 C 0.38509 0.82625 0.98396 0.0
C205 C 0.39103 0.80341 0.95905 0.0
C206 C 0.43372 0.8154 0.9464 0.0
C207 C 0.4705 0.85044 0.95836 0.0
C208 C 0.46485 0.87339 0.98307 0.0
C209 C 0.42227 0.86149 0.99582 0.0
H210 H 0.50349 0.85971 0.94853 0.0
H211 H 0.08017 0.75769 0.06743 0.0
H212 H 0.93868 0.88393 0.04982 0.0
H213 H 0.88784 0.8109 0.05121 0.0
H214 H 0.81229 0.82727 0.965 0.0
H215 H 0.86389 0.90072 0.96332 0.0
H216 H 0.7396 0.80938 0.99885 0.0
H217 H 0.89748 0.74041 0.97983 0.0
H218 H 0.99305 0.72136 0.98313 0.0
H219 H 0.003 0.67221 0.06638 0.0
H220 H 0.90761 0.69156 0.06376 0.0
H221 H 0.61615 0.5792 0.99839 0.0
H222 H 0.6652 0.64933 0.98773 0.0
H223 H 0.76142 0.64848 0.07091 0.0
H224 H 0.71244 0.57794 0.08138 0.0
H225 H 0.82242 0.65601 0.0322 0.0
H226 H 0.66318 0.73539 0.05103 0.0
H227 H 0.56617 0.75143 0.04462 0.0
H228 H 0.55863 0.77684 0.95786 0.0
H229 H 0.65563 0.76132 0.96381 0.0
C230 C 0.91149 0.87197 0.03106 0.0
C231 C 0.9051 0.89822 0.00647 0.0
C232 C 0.88273 0.82999 0.03185 0.0
C233 C 0.8466 0.81347 0.00817 0.0
C234 C 0.84018 0.83937 0.98348 0.0
C235 C 0.86967 0.88121 0.98254 0.0
C236 C 0.81356 0.77068 0.01007 0.0
C237 C 0.75764 0.77554 0.00563 0.0
C238 C 0.83715 0.72677 0.01928 0.0
C239 C 0.89537 0.71775 0.02164 0.0
C240 C 0.92018 0.72617 0.99899 0.0
C241 C 0.97426 0.71507 1.00068 0.0
C242 C 0.00394 0.69532 0.02488 0.0
C243 C 0.97984 0.68728 0.0476 0.0
C244 C 0.92577 0.69831 0.04602 0.0
C245 C 0.64731 0.59456 0.01443 0.0
C246 C 0.66062 0.57389 0.0407 0.0
C247 C 0.67518 0.63459 0.00838 0.0
C248 C 0.71668 0.65447 0.02861 0.0
C249 C 0.72948 0.63381 0.05502 0.0
C250 C 0.70154 0.59377 0.06104 0.0
C251 C 0.7487 0.69519 0.02188 0.0
C252 C 0.80444 0.68981 0.02532 0.0
C253 C 0.7249 0.73841 0.01148 0.0
C254 C 0.66648 0.74685 0.00782 0.0
C255 C 0.64072 0.74412 0.03056 0.0
C256 C 0.58582 0.75334 0.02704 0.0
C257 C 0.55629 0.76519 1.00086 0.0
C258 C 0.58156 0.76783 0.97814 0.0
C259 C 0.63652 0.75899 0.98159 0.0
H260 H 0.51385 0.77239 0.99818 0.0
H261 H 0.04563 0.68624 0.02602 0.0
H262 H 0.86629 0.12506 0.0469 0.0
H263 H 0.79531 0.18463 0.04312 0.0
H264 H 0.7647 0.16963 0.95368 0.0
H265 H 0.83517 0.10995 0.95722 0.0
H266 H 0.79443 0.2694 0.01856 0.0
H267 H 0.63368 0.19203 0.92728 0.0
H268 H 0.59725 0.1138 0.90942 0.0
H269 H 0.64409 0.05571 0.99106 0.0
H270 H 0.68011 0.13373 0.0095 0.0
H271 H 0.63955 0.44425 0.93996 0.0
H272 H 0.69101 0.37172 0.95279 0.0
H273 H 0.57264 0.32482 0.99839 0.0
H274 H 0.52076 0.39752 0.98553 0.0
H275 H 0.60905 0.25263 0.96338 0.0
H276 H 0.67735 0.3649 0.03615 0.0
H277 H 0.71191 0.44295 0.05533 0.0
H278 H 0.84588 0.42926 0.01476 0.0
H279 H 0.81199 0.35118 0.99519 0.0
C280 C 0.84391 0.13392 0.02644 0.0
C281 C 0.85653 0.11294 0.00234 0.0
C282 C 0.80348 0.16803 0.02434 0.0
C283 C 0.7746 0.18136 0.99815 0.0
C284 C 0.78598 0.15939 0.97412 0.0
C285 C 0.82649 0.12544 0.97618 0.0
C286 C 0.73551 0.22081 0.99568 0.0
C287 C 0.75375 0.26555 0.00673 0.0
C288 C 0.6822 0.21568 0.98056 0.0
C289 C 0.65995 0.16872 0.96972 0.0
C290 C 0.63595 0.16265 0.94146 0.0
C291 C 0.61543 0.11831 0.93123 0.0
C292 C 0.61847 0.07978 0.94908 0.0
C293 C 0.64192 0.08554 0.97723 0.0
C294 C 0.66247 0.12981 0.98758 0.0
C295 C 0.62423 0.41821 0.95245 0.0
C296 C 0.5764 0.4264 0.96187 0.0
C297 C 0.65371 0.37702 0.95987 0.0
C298 C 0.63566 0.34325 0.97665 0.0
C299 C 0.58712 0.3506 0.98545 0.0
C300 C 0.55784 0.39213 0.97827 0.0
C301 C 0.66874 0.30104 0.98552 0.0
C302 C 0.64946 0.25604 0.97559 0.0
C303 C 0.72088 0.30572 0.00197 0.0
C304 C 0.74194 0.35231 0.01406 0.0
C305 C 0.71402 0.37864 0.03119 0.0
C306 C 0.73348 0.42288 0.04214 0.0
C307 C 0.78089 0.44116 0.03616 0.0
C308 C 0.80912 0.41508 0.01935 0.0
C309 C 0.78989 0.37076 0.00838 0.0
H310 H 0.79582 0.47547 0.04462 0.0
H311 H 0.60259 0.04548 0.94111 0.0
H312 H 0.66545 0.61289 0.55727 0.0
H313 H 0.71608 0.68612 0.55546 0.0
H314 H 0.63684 0.70444 0.46987 0.0
H315 H 0.58788 0.63002 0.47121 0.0
H316 H 0.73533 0.72764 0.47459 0.0
H317 H 0.60068 0.77089 0.52391 0.0
H318 H 0.5441 0.76458 0.55904 0.0
H319 H 0.68302 0.78193 0.62446 0.0
H320 H 0.74059 0.78763 0.58974 0.0
H321 H 0.84273 0.97654 0.54369 0.0
H322 H 0.76866 0.92115 0.52649 0.0
H323 H 0.88285 0.81212 0.5163 0.0
H324 H 0.95632 0.8674 0.53273 0.0
H325 H 0.74739 0.84692 0.55118 0.0
H326 H 0.83317 0.72894 0.47053 0.0
H327 H 0.88193 0.74069 0.43249 0.0
H328 H 0.82478 0.88422 0.42331 0.0
H329 H 0.77497 0.87317 0.46097 0.0
C330 C 0.65902 0.63244 0.53805 0.0
C331 C 0.62265 0.6159 0.51443 0.0
C332 C 0.68765 0.67446 0.53708 0.0
C333 C 0.67932 0.70139 0.51271 0.0
C334 C 0.64375 0.6844 0.48892 0.0
C335 C 0.61582 0.64189 0.48973 0.0
C336 C 0.70827 0.747 0.51216 0.0
C337 C 0.73771 0.75394 0.4912 0.0
C338 C 0.7095 0.78234 0.53315 0.0
C339 C 0.675 0.77946 0.55418 0.0
C340 C 0.61922 0.77312 0.54579 0.0
C341 C 0.58696 0.76966 0.56563 0.0
C342 C 0.60996 0.77281 0.59396 0.0
C343 C 0.66526 0.77952 0.6025 0.0
C344 C 0.69772 0.78294 0.58274 0.0
C345 C 0.8517 0.94103 0.53711 0.0
C346 C 0.9051 0.92614 0.53952 0.0
C347 C 0.80949 0.90947 0.52732 0.0
C348 C 0.8201 0.86251 0.51994 0.0
C349 C 0.87345 0.84841 0.52119 0.0
C350 C 0.91553 0.88004 0.53067 0.0
C351 C 0.77662 0.82644 0.51439 0.0
C352 C 0.74428 0.82123 0.53421 0.0
C353 C 0.77134 0.79367 0.4918 0.0
C354 C 0.80051 0.80024 0.46873 0.0
C355 C 0.83064 0.7629 0.46027 0.0
C356 C 0.85857 0.76948 0.4388 0.0
C357 C 0.85655 0.8132 0.42553 0.0
C358 C 0.82645 0.85041 0.43366 0.0
C359 C 0.79841 0.84402 0.45509 0.0
H360 H 0.87825 0.81823 0.40894 0.0
H361 H 0.58493 0.77009 0.6093 0.0
H362 H 0.67428 0.39959 0.57008 0.0
H363 H 0.748 0.34249 0.57229 0.0
H364 H 0.71723 0.33409 0.48262 0.0
H365 H 0.6449 0.39109 0.48019 0.0
H366 H 0.75112 0.25156 0.55442 0.0
H367 H 0.83007 0.32523 0.45919 0.0
H368 H 0.84059 0.40279 0.43817 0.0
H369 H 0.84306 0.47306 0.51676 0.0
H370 H 0.8334 0.3959 0.53837 0.0
H371 H 0.87414 0.07515 0.4865 0.0
H372 H 0.81983 0.14156 0.49835 0.0
H373 H 0.96384 0.22308 0.52877 0.0
H374 H 0.01824 0.15664 0.51655 0.0
H375 H 0.88909 0.27635 0.49734 0.0
H376 H 0.90053 0.17779 0.57473 0.0
H377 H 0.89807 0.10263 0.5996 0.0
H378 H 0.72971 0.08814 0.56535 0.0
H379 H 0.73129 0.16288 0.5399 0.0
C380 C 0.6835 0.38568 0.55088 0.0
C381 C 0.65393 0.40013 0.52497 0.0
C382 C 0.72546 0.35299 0.55218 0.0
C383 C 0.7386 0.33459 0.52762 0.0
C384 C 0.70857 0.34853 0.50184 0.0
C385 C 0.66698 0.38107 0.50051 0.0
C386 C 0.7831 0.30029 0.52838 0.0
C387 C 0.78154 0.25709 0.54214 0.0
C388 C 0.824 0.30816 0.51315 0.0
C389 C 0.83066 0.35471 0.50036 0.0
C390 C 0.8332 0.35718 0.47204 0.0
C391 C 0.83894 0.4011 0.46001 0.0
C392 C 0.84237 0.44283 0.4761 0.0
C393 C 0.84023 0.44073 0.50429 0.0
C394 C 0.83456 0.3969 0.51644 0.0
C395 C 0.89391 0.10757 0.49541 0.0
C396 C 0.94983 0.11163 0.50037 0.0
C397 C 0.8631 0.14517 0.50242 0.0
C398 C 0.88802 0.18704 0.51468 0.0
C399 C 0.94408 0.19111 0.51928 0.0
C400 C 0.9749 0.15346 0.51226 0.0
C401 C 0.85519 0.22682 0.5221 0.0
C402 C 0.85912 0.27107 0.50994 0.0
C403 C 0.81774 0.2204 0.53953 0.0
C404 C 0.81612 0.17585 0.55523 0.0
C405 C 0.86302 0.15845 0.57235 0.0
C406 C 0.8618 0.11592 0.58656 0.0
C407 C 0.8138 0.09056 0.58399 0.0
C408 C 0.76688 0.10782 0.5673 0.0
C409 C 0.76789 0.15032 0.553 0.0
H410 H 0.81295 0.05761 0.59498 0.0
H411 H 0.84675 0.4768 0.46674 0.0
H412 H 0.43922 0.37707 0.56152 0.0
H413 H 0.38044 0.31008 0.56516 0.0
H414 H 0.33075 0.30364 0.47581 0.0
H415 H 0.39001 0.37101 0.47186 0.0
H416 H 0.24512 0.29903 0.50522 0.0
H417 H 0.41337 0.22326 0.50434 0.0
H418 H 0.51079 0.21107 0.51911 0.0
H419 H 0.4909 0.18267 0.60219 0.0
H420 H 0.39339 0.19543 0.58801 0.0
H421 H 0.11729 0.07311 0.50113 0.0
H422 H 0.17224 0.14162 0.49417 0.0
H423 H 0.24252 0.14498 0.58194 0.0
H424 H 0.18753 0.07591 0.58878 0.0
H425 H 0.31801 0.15039 0.55107 0.0
H426 H 0.15429 0.23226 0.55455 0.0
H427 H 0.05754 0.24907 0.54236 0.0
H428 H 0.06861 0.26732 0.45694 0.0
H429 H 0.16577 0.25091 0.46874 0.0
C430 C 0.41589 0.36149 0.54258 0.0
C431 C 0.41937 0.37925 0.51637 0.0
C432 C 0.38245 0.3231 0.54473 0.0
C433 C 0.35171 0.30178 0.52076 0.0
C434 C 0.35439 0.31967 0.49453 0.0
C435 C 0.38833 0.35796 0.49232 0.0
C436 C 0.3166 0.26095 0.52339 0.0
C437 C 0.261 0.26614 0.51476 0.0
C438 C 0.33749 0.21875 0.5366 0.0
C439 C 0.3961 0.21071 0.54515 0.0
C440 C 0.42981 0.2148 0.52581 0.0
C441 C 0.48504 0.20772 0.53407 0.0
C442 C 0.50704 0.19621 0.56159 0.0
C443 C 0.47381 0.19163 0.58088 0.0
C444 C 0.41854 0.19873 0.57274 0.0
C445 C 0.14405 0.08898 0.51892 0.0
C446 C 0.14844 0.06993 0.54546 0.0
C447 C 0.17526 0.12809 0.51497 0.0
C448 C 0.21114 0.14865 0.53758 0.0
C449 C 0.21503 0.12965 0.56424 0.0
C450 C 0.18369 0.09049 0.56817 0.0
C451 C 0.24633 0.18854 0.53314 0.0
C452 C 0.30204 0.18313 0.54138 0.0
C453 C 0.22553 0.23069 0.51979 0.0
C454 C 0.16711 0.23992 0.51248 0.0
C455 C 0.136 0.23952 0.53313 0.0
C456 C 0.08113 0.24915 0.52631 0.0
C457 C 0.05681 0.25905 0.49885 0.0
C458 C 0.08747 0.25959 0.47819 0.0
C459 C 0.14249 0.25032 0.48496 0.0
H460 H 0.01428 0.26643 0.49359 0.0
H461 H 0.54981 0.19074 0.56794 0.0
H462 H 0.35079 0.56235 0.46432 0.0
H463 H 0.28419 0.62575 0.45585 0.0
H464 H 0.36428 0.69869 0.53086 0.0
H465 H 0.42905 0.63392 0.5402 0.0
H466 H 0.26435 0.71184 0.52621 0.0
H467 H 0.38483 0.72811 0.4641 0.0
H468 H 0.43546 0.70256 0.42854 0.0
H469 H 0.28795 0.67644 0.37023 0.0
H470 H 0.23641 0.70121 0.4056 0.0
H471 H 0.17055 0.93729 0.43857 0.0
H472 H 0.23111 0.86943 0.44884 0.0
H473 H 0.10915 0.79338 0.48057 0.0
H474 H 0.04993 0.86244 0.47175 0.0
H475 H 0.23284 0.78398 0.43273 0.0
H476 H 0.16297 0.72166 0.53234 0.0
H477 H 0.12326 0.75671 0.56996 0.0
H478 H 0.19123 0.89257 0.5578 0.0
H479 H 0.23211 0.85816 0.52047 0.0
C480 C 0.35368 0.59166 0.47915 0.0
C481 C 0.39518 0.59353 0.50279 0.0
C482 C 0.31584 0.628 0.47423 0.0
C483 C 0.31998 0.66766 0.49233 0.0
C484 C 0.36027 0.66858 0.51654 0.0
C485 C 0.39733 0.63162 0.52184 0.0
C486 C 0.28385 0.70902 0.48543 0.0
C487 C 0.25743 0.72756 0.50576 0.0
C488 C 0.27596 0.73057 0.45902 0.0
C489 C 0.30677 0.71608 0.43758 0.0
C490 C 0.36319 0.71665 0.44374 0.0
C491 C 0.39205 0.70232 0.42362 0.0
C492 C 0.36494 0.68776 0.39716 0.0
C493 C 0.30889 0.68765 0.39075 0.0
C494 C 0.27983 0.70187 0.41082 0.0
C495 C 0.15689 0.9059 0.44766 0.0
C496 C 0.10609 0.90481 0.4546 0.0
C497 C 0.19131 0.86717 0.45346 0.0
C498 C 0.17508 0.82653 0.46593 0.0
C499 C 0.12316 0.82476 0.47166 0.0
C500 C 0.08925 0.86395 0.46647 0.0
C501 C 0.2129 0.78651 0.4734 0.0
C502 C 0.23965 0.76822 0.45316 0.0
C503 C 0.22306 0.76673 0.50031 0.0
C504 C 0.20013 0.78737 0.52341 0.0
C505 C 0.16974 0.75892 0.53782 0.0
C506 C 0.14699 0.7787 0.55908 0.0
C507 C 0.15457 0.82686 0.5662 0.0
C508 C 0.18526 0.85529 0.55222 0.0
C509 C 0.20823 0.83566 0.53101 0.0
H510 H 0.13675 0.84214 0.58258 0.0
H511 H 0.38735 0.67666 0.38162 0.0
H512 H 0.95881 0.97832 0.16377 0.0
H513 H 0.95528 0.9884 0.21286 0.0
H514 H 0.05234 0.11518 0.2177 0.0
H515 H 0.05601 0.10531 0.16838 0.0
H516 H 0.08577 0.06013 0.26184 0.0
H517 H 0.91832 0.12358 0.2165 0.0
H518 H 0.83234 0.12535 0.18278 0.0
H519 H 0.77856 0.00193 0.21985 0.0
H520 H 0.86455 -0.00104 0.25355 0.0
H521 H 0.04905 0.09288 0.40053 0.0
H522 H 0.0384 0.114 0.35124 0.0
H523 H 0.9527 0.98264 0.32727 0.0
H524 H 0.96339 0.96168 0.37624 0.0
H525 H 0.91188 0.05664 0.29299 0.0
H526 H 0.08446 0.98638 0.33231 0.0
H527 H 0.17046 0.98331 0.36598 0.0
H528 H 0.21396 0.1202 0.33973 0.0
H529 H 0.12772 0.12438 0.30619 0.0
C530 C 0.97908 0.00857 0.1752 0.0
C531 C 0.00738 0.04119 0.1621 0.0
C532 C 0.97697 0.01434 0.20327 0.0
C533 C 0.00267 0.05308 0.21885 0.0
C534 C 0.03197 0.08518 0.20604 0.0
C535 C 0.03424 0.07934 0.17791 0.0
C536 C -0.00026 0.05908 0.24865 0.0
C537 C 0.0477 0.0605 0.2686 0.0
C538 C 0.95009 0.05907 0.25755 0.0
C539 C 0.89807 0.0609 0.23746 0.0
C540 C 0.88831 0.09662 0.21735 0.0
C541 C 0.83954 0.09786 0.19826 0.0
C542 C 0.80004 0.06373 0.19915 0.0
C543 C 0.8092 0.02834 0.21919 0.0
C544 C 0.85792 0.02691 0.23832 0.0
C545 C 0.02648 0.06944 0.38468 0.0
C546 C 0.00709 0.0257 0.39196 0.0
C547 C 0.0207 0.0813 0.35661 0.0
C548 C 0.99533 0.04956 0.33562 0.0
C549 C 0.97236 0.00764 0.3431 0.0
C550 C 0.97851 0.99565 0.37103 0.0
C551 C 0.9978 0.05666 0.30601 0.0
C552 C 0.94982 0.05748 0.28612 0.0
C553 C 0.04737 0.05874 0.29714 0.0
C554 C 0.09944 0.05596 0.31702 0.0
C555 C 0.11221 0.01597 0.33387 0.0
C556 C 0.161 0.01401 0.35291 0.0
C557 C 0.19759 0.0516 0.35505 0.0
C558 C 0.18553 0.09116 0.33809 0.0
C559 C 0.1367 0.09335 0.31907 0.0
H560 H 0.23536 0.05002 0.3698 0.0
H561 H 0.76232 0.06475 0.18434 0.0
H562 H 0.93392 0.96882 0.84633 0.0
H563 H 0.93819 0.97076 0.79693 0.0
H564 H 0.02604 0.10298 0.81062 0.0
H565 H 0.02168 0.1014 0.86008 0.0
H566 H 0.94553 0.09976 0.76049 0.0
H567 H 0.09544 0.00919 0.80773 0.0
H568 H 0.13971 0.94688 0.8389 0.0
H569 H 0.04758 0.8396 0.78701 0.0
H570 H 0.00212 0.90137 0.75576 0.0
H571 H 0.03062 0.07685 0.62882 0.0
H572 H 0.03191 0.08991 0.6787 0.0
H573 H 0.95793 0.95266 0.68201 0.0
H574 H 0.9578 0.93905 0.63295 0.0
H575 H 0.04002 0.96536 0.7248 0.0
H576 H 0.88512 0.05385 0.67985 0.0
H577 H 0.83903 0.11441 0.64797 0.0
H578 H 0.93802 0.22357 0.69443 0.0
H579 H 0.98514 0.1635 0.72646 0.0
C580 C 0.95339 -0.00133 0.83873 0.0
C581 C 0.9778 0.03477 0.85708 0.0
C582 C 0.95603 -0.00036 0.81057 0.0
C583 C 0.98285 0.03683 0.80024 0.0
C584 C 0.00526 0.07397 0.81823 0.0
C585 C 0.00308 0.0728 0.84647 0.0
C586 C 0.99007 0.03526 0.77101 0.0
C587 C 0.96686 0.07081 0.75272 0.0
C588 C 0.01748 -0.00277 0.7609 0.0
C589 C 0.04504 0.95996 0.77954 0.0
C590 C 0.08431 0.97235 0.80309 0.0
C591 C 0.10966 0.93712 0.82075 0.0
C592 C 0.09638 0.88932 0.81497 0.0
C593 C 0.05779 0.87664 0.79148 0.0
C594 C 0.03225 0.91175 0.77377 0.0
C595 C 0.01478 0.04958 0.64031 0.0
C596 C 0.99343 0.00726 0.62691 0.0
C597 C 0.01528 0.05712 0.66869 0.0
C598 C 0.99465 0.02233 0.684 0.0
C599 C 0.97398 0.97999 0.67063 0.0
C600 C 0.9734 0.97252 0.64248 0.0
C601 C 0.99435 0.02917 0.714 0.0
C602 C 0.0191 0.99462 0.73255 0.0
C603 C 0.96804 0.06789 0.7242 0.0
C604 C 0.93904 0.10415 0.70536 0.0
C605 C 0.89728 0.09074 0.68317 0.0
C606 C 0.87096 0.12496 0.66508 0.0
C607 C 0.88575 0.17278 0.66909 0.0
C608 C 0.92669 0.1865 0.69131 0.0
C609 C 0.95318 0.15239 0.70947 0.0
H610 H 0.8654 0.19921 0.65502 0.0
H611 H 0.11606 0.86209 0.82867 0.0
H612 H 0.46796 0.47914 0.66709 0.0
H613 H 0.46243 0.49538 0.71539 0.0
H614 H 0.59194 0.59666 0.72291 0.0
H615 H 0.59688 0.58166 0.67414 0.0
H616 H 0.60269 0.53519 0.76795 0.0
H617 H 0.47035 0.63828 0.71775 0.0
H618 H 0.3928 0.66007 0.68141 0.0
H619 H 0.29308 0.56243 0.71464 0.0
H620 H 0.37027 0.53947 0.75095 0.0
H621 H 0.56429 0.60319 0.90194 0.0
H622 H 0.56542 0.61619 0.85261 0.0
H623 H 0.44118 0.51034 0.82899 0.0
H624 H 0.44051 0.49713 0.87817 0.0
H625 H 0.43092 0.58699 0.79207 0.0
H626 H 0.5643 0.4765 0.83749 0.0
H627 H 0.64064 0.45287 0.87405 0.0
H628 H 0.73773 0.56277 0.84937 0.0
H629 H 0.66147 0.58771 0.813 0.0
C630 C 0.49495 0.5053 0.67883 0.0
C631 C 0.5325 0.52945 0.66653 0.0
C632 C 0.49182 0.51442 0.7065 0.0
C633 C 0.52623 0.54774 0.7226 0.0
C634 C 0.56487 0.57094 0.71078 0.0
C635 C 0.56782 0.56208 0.68295 0.0
C636 C 0.52171 0.55774 0.75183 0.0
C637 C 0.56554 0.54755 0.77322 0.0
C638 C 0.47289 0.57307 0.75869 0.0
C639 C 0.42624 0.58689 0.73696 0.0
C640 C 0.43199 0.62116 0.71719 0.0
C641 C 0.38808 0.63377 0.69661 0.0
C642 C 0.33807 0.61258 0.69568 0.0
C643 C 0.33186 0.57879 0.71537 0.0
C644 C 0.37567 0.56601 0.73598 0.0
C645 C 0.53599 0.58409 0.88609 0.0
C646 C 0.50205 0.54945 0.89358 0.0
C647 C 0.53686 0.59125 0.85802 0.0
C648 C 0.50373 0.56387 0.8372 0.0
C649 C 0.46692 0.53191 0.84471 0.0
C650 C 0.46646 0.52442 0.87272 0.0
C651 C 0.51164 0.56392 0.80808 0.0
C652 C 0.4684 0.57566 0.78674 0.0
C653 C 0.56089 0.5498 0.80124 0.0
C654 C 0.60701 0.53437 0.82277 0.0
C655 C 0.60179 0.49589 0.84001 0.0
C656 C 0.64504 0.48223 0.86069 0.0
C657 C 0.69397 0.50639 0.86408 0.0
C658 C 0.69976 0.54417 0.84675 0.0
C659 C 0.65653 0.55811 0.82612 0.0
H660 H 0.72744 0.49575 0.88008 0.0
H661 H 0.30411 0.6224 0.67974 0.0
H662 H 0.44172 0.53746 0.35365 0.0
H663 H 0.44533 0.54787 0.30464 0.0
H664 H 0.59 0.46458 0.31563 0.0
H665 H 0.58616 0.4531 0.36443 0.0
H666 H 0.59767 0.54754 0.28697 0.0
H667 H 0.47395 0.4162 0.28399 0.0
H668 H 0.39317 0.37651 0.29342 0.0
H669 H 0.29369 0.48322 0.24752 0.0
H670 H 0.374 0.52391 0.23812 0.0
H671 H 0.61255 0.48101 0.14825 0.0
H672 H 0.61127 0.49145 0.19769 0.0
H673 H 0.45603 0.55819 0.17652 0.0
H674 H 0.45666 0.5463 0.12704 0.0
H675 H 0.45128 0.49103 0.2108 0.0
H676 H 0.57277 0.61959 0.21017 0.0
H677 H 0.65261 0.66079 0.20072 0.0
H678 H 0.75499 0.56347 0.25305 0.0
H679 H 0.67576 0.52123 0.26252 0.0
C680 C 0.47386 0.52072 0.34557 0.0
C681 C 0.51363 0.4944 0.36303 0.0
C682 C 0.47606 0.527 0.31759 0.0
C683 C 0.51798 0.50702 0.30651 0.0
C684 C 0.55757 0.48063 0.32382 0.0
C685 C 0.55529 0.47416 0.35173 0.0
C686 C 0.52047 0.51313 0.27681 0.0
C687 C 0.56593 0.53489 0.27024 0.0
C688 C 0.47829 0.49793 0.25508 0.0
C689 C 0.43 0.47338 0.26062 0.0
C690 C 0.43488 0.43141 0.2761 0.0
C691 C 0.38917 0.4087 0.28141 0.0
C692 C 0.33834 0.42741 0.27115 0.0
C693 C 0.3331 0.46881 0.25549 0.0
C694 C 0.37868 0.49169 0.25016 0.0
C695 C 0.57901 0.49928 0.15421 0.0
C696 C 0.53473 0.51289 0.13392 0.0
C697 C 0.57822 0.50524 0.18249 0.0
C698 C 0.53353 0.52571 0.19094 0.0
C699 C 0.49081 0.54209 0.17057 0.0
C700 C 0.49131 0.53557 0.14234 0.0
C701 C 0.5288 0.52531 0.22069 0.0
C702 C 0.4829 0.50439 0.22737 0.0
C703 C 0.57044 0.54165 0.24247 0.0
C704 C 0.61826 0.567 0.23687 0.0
C705 C 0.6123 0.60673 0.2195 0.0
C706 C 0.65746 0.63032 0.21417 0.0
C707 C 0.70883 0.6147 0.22623 0.0
C708 C 0.71516 0.57551 0.2437 0.0
C709 C 0.67014 0.55177 0.24909 0.0
H710 H 0.74374 0.63301 0.22208 0.0
H711 H 0.303 0.40977 0.27527 0.0
loop_
_geom_bond_atom_site_label_1
_geom_bond_atom_site_label_2
_geom_bond_distance
_geom_bond_site_symmetry_2
_ccdc_geom_bond_type
C0 O16 1.251 . S
C0 O18 1.254 1_554 S
N1 C2 1.333 1_455 S
N1 C6 1.307 . S
N1 Zn7 2.020 . S
C2 N1 1.333 1_655 S
C2 C3 1.379 . S
C2 H20 0.952 1_545 S
C3 C2 1.379 . S
C3 C4 1.390 1_655 S
C3 H30 0.949 1_545 S
C4 C3 1.390 1_455 S
C4 C5 1.357 . S
C5 C4 1.357 . S
C5 C6 1.370 . S
C5 H31 0.950 . S
C6 N1 1.307 . S
C6 C5 1.370 . S
C6 H24 0.948 . S
Zn7 N1 2.020 . S
Zn7 O16 2.039 1_445 S
Zn7 O22 2.034 1_455 S
Zn7 O26 2.025 . S
Zn7 O28 2.024 1_545 S
C8 O27 1.246 1_554 S
C8 O28 1.249 . S
N9 C10 1.307 1_455 S
N9 C11 1.333 . S
N9 Zn15 2.020 . S
C10 N9 1.307 1_655 S
C10 C14 1.370 . S
C10 H21 0.948 1_545 S
C11 N9 1.333 . S
C11 C12 1.379 . S
C11 H19 0.952 . S
C12 C11 1.379 . S
C12 C13 1.390 1_455 S
C12 H32 0.949 . S
C13 C12 1.390 1_655 S
C13 C14 1.357 . S
C14 C10 1.370 . S
C14 C13 1.357 . S
C14 H33 0.950 1_545 S
Zn15 N9 2.020 . S
Zn15 O18 2.025 1_445 S
Zn15 O23 2.024 1_455 S
Zn15 O25 2.039 . S
Zn15 O27 2.034 1_545 S
O16 C0 1.251 . S
O16 Zn7 2.039 1_665 S
C17 O22 1.246 . S
C17 O23 1.249 1_554 S
O18 C0 1.254 1_556 S
O18 Zn15 2.025 1_665 S
H19 C11 0.952 . S
H20 C2 0.952 1_565 S
H21 C10 0.948 1_565 S
O22 Zn7 2.034 1_655 S
O22 C17 1.246 . S
O23 Zn15 2.024 1_655 S
O23 C17 1.249 1_556 S
H24 C6 0.948 . S
O25 Zn15 2.039 . S
O25 C29 1.251 1_556 S
O26 Zn7 2.025 . S
O26 C29 1.254 . S
O27 C8 1.246 1_556 S
O27 Zn15 2.034 1_565 S
O28 Zn7 2.024 1_565 S
O28 C8 1.249 . S
C29 O25 1.251 1_554 S
C29 O26 1.254 . S
H30 C3 0.949 1_565 S
H31 C5 0.950 . S
H32 C12 0.949 . S
H33 C14 0.950 1_565 S
C34 O50 1.251 . S
C34 O52 1.254 . S
N35 C36 1.333 . S
N35 C40 1.307 . S
N35 Zn41 2.020 . S
C36 N35 1.333 . S
C36 C37 1.379 . S
C36 H54 0.952 . S
C37 C36 1.379 . S
C37 C38 1.390 . S
C37 H64 0.949 . S
C38 C37 1.390 . S
C38 C39 1.357 . S
C39 C38 1.357 . S
C39 C40 1.370 . S
C39 H65 0.950 . S
C40 N35 1.307 . S
C40 C39 1.370 . S
C40 H58 0.948 . S
Zn41 N35 2.020 . S
Zn41 O50 2.039 . S
Zn41 O56 2.034 . S
Zn41 O60 2.025 . S
Zn41 O62 2.024 . S
C42 O61 1.246 . S
C42 O62 1.249 . S
N43 C44 1.307 . S
N43 C45 1.333 . S
N43 Zn49 2.020 . S
C44 N43 1.307 . S
C44 C48 1.370 . S
C44 H55 0.948 . S
C45 N43 1.333 . S
C45 C46 1.379 . S
C45 H53 0.952 . S
C46 C45 1.379 . S
C46 C47 1.390 . S
C46 H66 0.949 . S
C47 C46 1.390 . S
C47 C48 1.357 . S
C48 C44 1.370 . S
C48 C47 1.357 . S
C48 H67 0.950 . S
Zn49 N43 2.020 . S
Zn49 O52 2.025 . S
Zn49 O57 2.024 . S
Zn49 O59 2.039 . S
Zn49 O61 2.034 . S
O50 C34 1.251 . S
O50 Zn41 2.039 . S
C51 O56 1.246 . S
C51 O57 1.249 . S
O52 C34 1.254 . S
O52 Zn49 2.025 . S
H53 C45 0.952 . S
H54 C36 0.952 . S
H55 C44 0.948 . S
O56 Zn41 2.034 . S
O56 C51 1.246 . S
O57 Zn49 2.024 . S
O57 C51 1.249 . S
H58 C40 0.948 . S
O59 Zn49 2.039 . S
O59 C63 1.251 . S
O60 Zn41 2.025 . S
O60 C63 1.254 . S
O61 C42 1.246 . S
O61 Zn49 2.034 . S
O62 Zn41 2.024 . S
O62 C42 1.249 . S
C63 O59 1.251 . S
C63 O60 1.254 . S
H64 C37 0.949 . S
H65 C39 0.950 . S
H66 C46 0.949 . S
H67 C48 0.950 . S
H68 C71 0.929 . S
H69 C74 0.929 1_655 S
H70 C76 0.930 . S
C71 H68 0.929 . S
C71 C72 1.398 . S
C71 C73 1.396 1_565 S
C72 C71 1.398 . S
C72 C76 1.407 . S
C73 C71 1.396 1_545 S
C73 C74 1.394 . S
C74 H69 0.929 1_455 S
C74 C73 1.394 . S
C74 C75 1.382 . S
C75 C74 1.382 . S
C75 C76 1.392 1_545 S
C75 N77 1.420 1_455 S
C76 H70 0.930 . S
C76 C72 1.407 . S
C76 C75 1.392 1_565 S
N77 C75 1.420 1_655 S
N77 C78 1.244 . S
C78 N77 1.244 . S
H79 C82 0.929 . S
H80 C85 0.929 . S
H81 C87 0.932 . S
C82 H79 0.929 . S
C82 C83 1.398 . S
C82 C84 1.396 1_565 S
C83 C82 1.398 . S
C83 C87 1.412 . S
C84 C82 1.396 1_545 S
C84 C85 1.394 1_655 S
C85 H80 0.929 . S
C85 C84 1.394 1_455 S
C85 C86 1.382 . S
C86 C85 1.382 . S
C86 C87 1.385 1_445 S
C86 N88 1.420 . S
C87 H81 0.932 . S
C87 C83 1.412 . S
C87 C86 1.385 1_665 S
N88 C86 1.420 . S
N88 C89 1.244 . S
C89 N88 1.244 . S
H90 C93 0.929 . S
H91 C96 0.929 . S
H92 C98 0.930 1_554 S
C93 H90 0.929 . S
C93 C94 1.398 . S
C93 C95 1.396 . S
C94 C93 1.398 . S
C94 C98 1.407 . S
C95 C93 1.396 . S
C95 C96 1.394 . S
C96 H91 0.929 . S
C96 C95 1.394 . S
C96 C97 1.382 . S
C97 C96 1.382 . S
C97 C98 1.392 . S
C97 N99 1.420 . S
C98 H92 0.930 1_556 S
C98 C94 1.407 . S
C98 C97 1.392 . S
N99 C97 1.420 . S
N99 C100 1.244 . S
C100 N99 1.244 . S
H101 C104 0.929 . S
H102 C107 0.929 . S
H103 C109 0.930 . S
C104 H101 0.929 . S
C104 C105 1.398 . S
C104 C106 1.396 . S
C105 C104 1.398 . S
C105 C109 1.407 . S
C106 C104 1.396 . S
C106 C107 1.394 . S
C107 H102 0.929 . S
C107 C106 1.394 . S
C107 C108 1.382 . S
C108 C107 1.382 . S
C108 C109 1.392 . S
C108 N110 1.420 . S
C109 H103 0.930 . S
C109 C105 1.407 . S
C109 C108 1.392 . S
N110 C108 1.420 . S
N110 C111 1.244 . S
C111 N110 1.244 . S
H112 C130 0.951 1_556 S
H113 C132 0.951 . S
H114 C134 0.950 . S
H115 C135 0.950 . S
H116 C137 0.950 . S
H117 C140 0.950 . S
H118 C141 0.950 . S
H119 C143 0.950 . S
H120 C144 0.950 . S
H121 C145 0.951 . S
H122 C147 0.951 . S
H123 C149 0.950 . S
H124 C150 0.950 . S
H125 C152 0.950 . S
H126 C155 0.950 . S
H127 C156 0.950 . S
H128 C158 0.950 . S
H129 C159 0.950 . S
C130 H112 0.951 1_554 S
C130 C131 1.366 . S
C130 C132 1.388 . S
C131 C130 1.366 . S
C131 C135 1.385 . S
C132 H113 0.951 . S
C132 C130 1.388 . S
C132 C133 1.366 . S
C133 C132 1.366 . S
C133 C134 1.414 . S
C133 C136 1.499 . S
C134 H114 0.950 . S
C134 C133 1.414 . S
C134 C135 1.374 . S
C135 H115 0.950 . S
C135 C131 1.385 . S
C135 C134 1.374 . S
C136 C133 1.499 . S
C136 C137 1.373 . S
C136 C138 1.389 . S
C137 H116 0.950 . S
C137 C136 1.373 . S
C137 C153 1.377 . S
C138 C136 1.389 . S
C138 C139 1.524 . S
C138 C152 1.377 . S
C139 C138 1.524 . S
C139 C140 1.397 . S
C139 C144 1.363 . S
C140 H117 0.950 . S
C140 C139 1.397 . S
C140 C141 1.334 . S
C141 H118 0.950 . S
C141 C140 1.334 . S
C141 C142 1.287 . S
C142 C141 1.287 . S
C142 C143 1.524 . S
C142 H161 0.913 . S
C143 H119 0.950 . S
C143 C142 1.524 . S
C143 C144 1.415 . S
C144 H120 0.950 . S
C144 C139 1.363 . S
C144 C143 1.415 . S
C145 H121 0.951 . S
C145 C146 1.366 . S
C145 C147 1.388 . S
C146 C145 1.366 . S
C146 C150 1.385 . S
C147 H122 0.951 . S
C147 C145 1.388 . S
C147 C148 1.366 . S
C148 C147 1.366 . S
C148 C149 1.414 . S
C148 C151 1.499 . S
C149 H123 0.950 . S
C149 C148 1.414 . S
C149 C150 1.374 . S
C150 H124 0.950 . S
C150 C146 1.385 . S
C150 C149 1.374 . S
C151 C148 1.499 . S
C151 C152 1.373 . S
C151 C153 1.389 . S
C152 H125 0.950 . S
C152 C138 1.377 . S
C152 C151 1.373 . S
C153 C137 1.377 . S
C153 C151 1.389 . S
C153 C154 1.524 . S
C154 C153 1.524 . S
C154 C155 1.397 1_554 S
C154 C159 1.363 . S
C155 H126 0.950 . S
C155 C154 1.397 1_556 S
C155 C156 1.334 . S
C156 H127 0.950 . S
C156 C155 1.334 . S
C156 C157 1.287 . S
C157 C156 1.287 . S
C157 C158 1.524 1_556 S
C157 H160 0.999 . S
C158 H128 0.950 . S
C158 C157 1.524 1_554 S
C158 C159 1.415 . S
C159 H129 0.950 . S
C159 C154 1.363 . S
C159 C158 1.415 . S
H160 C157 0.999 . S
H161 C142 0.913 . S
H162 C180 0.951 . S
H163 C182 0.951 . S
H164 C184 0.950 . S
H165 C185 0.950 . S
H166 C187 0.950 . S
H167 C190 0.950 . S
H168 C191 0.950 . S
H169 C193 0.950 . S
H170 C194 0.950 . S
H171 C195 0.951 . S
H172 C197 0.951 . S
H173 C199 0.950 . S
H174 C200 0.950 . S
H175 C202 0.950 . S
H176 C205 0.950 . S
H177 C206 0.950 . S
H178 C208 0.950 . S
H179 C209 0.950 . S
C180 H162 0.951 . S
C180 C181 1.366 . S
C180 C182 1.388 . S
C181 C180 1.366 . S
C181 C185 1.385 . S
C182 H163 0.951 . S
C182 C180 1.388 . S
C182 C183 1.366 . S
C183 C182 1.366 . S
C183 C184 1.414 . S
C183 C186 1.499 . S
C184 H164 0.950 . S
C184 C183 1.414 . S
C184 C185 1.374 . S
C185 H165 0.950 . S
C185 C181 1.385 . S
C185 C184 1.374 . S
C186 C183 1.499 . S
C186 C187 1.373 1_554 S
C186 C188 1.389 . S
C187 H166 0.950 . S
C187 C186 1.373 1_556 S
C187 C203 1.377 . S
C188 C186 1.389 . S
C188 C189 1.524 . S
C188 C202 1.377 . S
C189 C188 1.524 . S
C189 C190 1.397 . S
C189 C194 1.363 . S
C190 H167 0.950 . S
C190 C189 1.397 . S
C190 C191 1.334 . S
C191 H168 0.950 . S
C191 C190 1.334 . S
C191 C192 1.287 . S
C192 C191 1.287 . S
C192 C193 1.524 . S
C192 H211 0.913 . S
C193 H169 0.950 . S
C193 C192 1.524 . S
C193 C194 1.415 . S
C194 H170 0.950 . S
C194 C189 1.363 . S
C194 C193 1.415 . S
C195 H171 0.951 . S
C195 C196 1.366 . S
C195 C197 1.388 . S
C196 C195 1.366 . S
C196 C200 1.385 . S
C197 H172 0.951 . S
C197 C195 1.388 . S
C197 C198 1.366 . S
C198 C197 1.366 . S
C198 C199 1.414 . S
C198 C201 1.503 . S
C199 H173 0.950 . S
C199 C198 1.414 . S
C199 C200 1.374 . S
C200 H174 0.950 . S
C200 C196 1.385 . S
C200 C199 1.374 . S
C201 C198 1.503 . S
C201 C202 1.355 1_556 S
C201 C203 1.402 . S
C202 H175 0.950 . S
C202 C188 1.377 . S
C202 C201 1.355 1_554 S
C203 C187 1.377 . S
C203 C201 1.402 . S
C203 C204 1.524 . S
C204 C203 1.524 . S
C204 C205 1.397 . S
C204 C209 1.363 . S
C205 H176 0.950 . S
C205 C204 1.397 . S
C205 C206 1.334 . S
C206 H177 0.950 . S
C206 C205 1.334 . S
C206 C207 1.287 . S
C207 C206 1.287 . S
C207 C208 1.524 . S
C207 H210 0.999 . S
C208 H178 0.950 . S
C208 C207 1.524 . S
C208 C209 1.415 . S
C209 H179 0.950 . S
C209 C204 1.363 . S
C209 C208 1.415 . S
H210 C207 0.999 . S
H211 C192 0.913 . S
H212 C230 0.951 . S
H213 C232 0.951 . S
H214 C234 0.950 . S
H215 C235 0.950 . S
H216 C237 0.950 . S
H217 C240 0.950 . S
H218 C241 0.950 . S
H219 C243 0.950 . S
H220 C244 0.950 . S
H221 C245 0.951 1_556 S
H222 C247 0.951 1_556 S
H223 C249 0.950 . S
H224 C250 0.950 . S
H225 C252 0.950 . S
H226 C255 0.950 . S
H227 C256 0.950 . S
H228 C258 0.950 . S
H229 C259 0.950 1_556 S
C230 H212 0.951 . S
C230 C231 1.366 . S
C230 C232 1.388 . S
C231 C230 1.366 . S
C231 C235 1.385 1_554 S
C232 H213 0.951 . S
C232 C230 1.388 . S
C232 C233 1.366 . S
C233 C232 1.366 . S
C233 C234 1.414 1_554 S
C233 C236 1.499 . S
C234 H214 0.950 . S
C234 C233 1.414 1_556 S
C234 C235 1.374 . S
C235 H215 0.950 . S
C235 C231 1.385 1_556 S
C235 C234 1.374 . S
C236 C233 1.499 . S
C236 C237 1.373 . S
C236 C238 1.389 . S
C237 H216 0.950 . S
C237 C236 1.373 . S
C237 C253 1.377 . S
C238 C236 1.389 . S
C238 C239 1.524 . S
C238 C252 1.377 . S
C239 C238 1.524 . S
C239 C240 1.397 1_554 S
C239 C244 1.363 . S
C240 H217 0.950 . S
C240 C239 1.397 1_556 S
C240 C241 1.334 . S
C241 H218 0.950 . S
C241 C240 1.334 . S
C241 C242 1.287 . S
C242 C241 1.287 . S
C242 C243 1.524 1_556 S
C242 H261 0.913 . S
C243 H219 0.950 . S
C243 C242 1.524 1_554 S
C243 C244 1.415 . S
C244 H220 0.950 . S
C244 C239 1.363 . S
C244 C243 1.415 . S
C245 H221 0.951 1_554 S
C245 C246 1.366 . S
C245 C247 1.388 . S
C246 C245 1.366 . S
C246 C250 1.385 . S
C247 H222 0.951 1_554 S
C247 C245 1.388 . S
C247 C248 1.366 . S
C248 C247 1.366 . S
C248 C249 1.414 . S
C248 C251 1.499 . S
C249 H223 0.950 . S
C249 C248 1.414 . S
C249 C250 1.374 . S
C250 H224 0.950 . S
C250 C246 1.385 . S
C250 C249 1.374 . S
C251 C248 1.499 . S
C251 C252 1.373 . S
C251 C253 1.389 . S
C252 H225 0.950 . S
C252 C238 1.377 . S
C252 C251 1.373 . S
C253 C237 1.377 . S
C253 C251 1.389 . S
C253 C254 1.524 . S
C254 C253 1.524 . S
C254 C255 1.397 . S
C254 C259 1.363 . S
C255 H226 0.950 . S
C255 C254 1.397 . S
C255 C256 1.334 . S
C256 H227 0.950 . S
C256 C255 1.334 . S
C256 C257 1.287 . S
C257 C256 1.287 . S
C257 C258 1.524 . S
C257 H260 0.999 . S
C258 H228 0.950 . S
C258 C257 1.524 . S
C258 C259 1.415 . S
C259 H229 0.950 1_554 S
C259 C254 1.363 . S
C259 C258 1.415 . S
H260 C257 0.999 . S
H261 C242 0.913 . S
H262 C280 0.951 . S
H263 C282 0.951 . S
H264 C284 0.950 . S
H265 C285 0.950 . S
H266 C287 0.950 . S
H267 C290 0.950 . S
H268 C291 0.950 . S
H269 C293 0.950 . S
H270 C294 0.950 . S
H271 C295 0.951 . S
H272 C297 0.951 . S
H273 C299 0.950 . S
H274 C300 0.950 . S
H275 C302 0.950 . S
H276 C305 0.950 . S
H277 C306 0.950 . S
H278 C308 0.950 . S
H279 C309 0.950 . S
C280 H262 0.951 . S
C280 C281 1.366 . S
C280 C282 1.388 . S
C281 C280 1.366 . S
C281 C285 1.385 1_554 S
C282 H263 0.951 . S
C282 C280 1.388 . S
C282 C283 1.366 1_554 S
C283 C282 1.366 1_556 S
C283 C284 1.414 . S
C283 C286 1.499 . S
C284 H264 0.950 . S
C284 C283 1.414 . S
C284 C285 1.374 . S
C285 H265 0.950 . S
C285 C281 1.385 1_556 S
C285 C284 1.374 . S
C286 C283 1.499 . S
C286 C287 1.373 1_556 S
C286 C288 1.389 . S
C287 H266 0.950 . S
C287 C286 1.373 1_554 S
C287 C303 1.377 . S
C288 C286 1.389 . S
C288 C289 1.524 . S
C288 C302 1.377 . S
C289 C288 1.524 . S
C289 C290 1.397 . S
C289 C294 1.363 . S
C290 H267 0.950 . S
C290 C289 1.397 . S
C290 C291 1.334 . S
C291 H268 0.950 . S
C291 C290 1.334 . S
C291 C292 1.287 . S
C292 C291 1.287 . S
C292 C293 1.524 . S
C292 H311 0.913 . S
C293 H269 0.950 . S
C293 C292 1.524 . S
C293 C294 1.415 . S
C294 H270 0.950 . S
C294 C289 1.363 . S
C294 C293 1.415 . S
C295 H271 0.951 . S
C295 C296 1.366 . S
C295 C297 1.388 . S
C296 C295 1.366 . S
C296 C300 1.385 . S
C297 H272 0.951 . S
C297 C295 1.388 . S
C297 C298 1.366 . S
C298 C297 1.366 . S
C298 C299 1.414 . S
C298 C301 1.499 . S
C299 H273 0.950 . S
C299 C298 1.414 . S
C299 C300 1.374 . S
C300 H274 0.950 . S
C300 C296 1.385 . S
C300 C299 1.374 . S
C301 C298 1.499 . S
C301 C302 1.373 . S
C301 C303 1.389 1_556 S
C302 H275 0.950 . S
C302 C288 1.377 . S
C302 C301 1.373 . S
C303 C287 1.377 . S
C303 C301 1.389 1_554 S
C303 C304 1.524 . S
C304 C303 1.524 . S
C304 C305 1.397 . S
C304 C309 1.363 . S
C305 H276 0.950 . S
C305 C304 1.397 . S
C305 C306 1.334 . S
C306 H277 0.950 . S
C306 C305 1.334 . S
C306 C307 1.287 . S
C307 C306 1.287 . S
C307 C308 1.524 . S
C307 H310 0.999 . S
C308 H278 0.950 . S
C308 C307 1.524 . S
C308 C309 1.415 . S
C309 H279 0.950 . S
C309 C304 1.363 . S
C309 C308 1.415 . S
H310 C307 0.999 . S
H311 C292 0.913 . S
H312 C330 0.951 . S
H313 C332 0.951 . S
H314 C334 0.950 . S
H315 C335 0.950 . S
H316 C337 0.950 . S
H317 C340 0.950 . S
H318 C341 0.950 . S
H319 C343 0.950 . S
H320 C344 0.950 . S
H321 C345 0.951 . S
H322 C347 0.951 . S
H323 C349 0.950 . S
H324 C350 0.950 . S
H325 C352 0.950 . S
H326 C355 0.950 . S
H327 C356 0.950 . S
H328 C358 0.950 . S
H329 C359 0.950 . S
C330 H312 0.951 . S
C330 C331 1.366 . S
C330 C332 1.388 . S
C331 C330 1.366 . S
C331 C335 1.385 . S
C332 H313 0.951 . S
C332 C330 1.388 . S
C332 C333 1.366 . S
C333 C332 1.366 . S
C333 C334 1.414 . S
C333 C336 1.499 . S
C334 H314 0.950 . S
C334 C333 1.414 . S
C334 C335 1.374 . S
C335 H315 0.950 . S
C335 C331 1.385 . S
C335 C334 1.374 . S
C336 C333 1.499 . S
C336 C337 1.373 . S
C336 C338 1.389 . S
C337 H316 0.950 . S
C337 C336 1.373 . S
C337 C353 1.377 . S
C338 C336 1.389 . S
C338 C339 1.524 . S
C338 C352 1.377 . S
C339 C338 1.524 . S
C339 C340 1.397 . S
C339 C344 1.363 . S
C340 H317 0.950 . S
C340 C339 1.397 . S
C340 C341 1.334 . S
C341 H318 0.950 . S
C341 C340 1.334 . S
C341 C342 1.287 . S
C342 C341 1.287 . S
C342 C343 1.524 . S
C342 H361 0.913 . S
C343 H319 0.950 . S
C343 C342 1.524 . S
C343 C344 1.415 . S
C344 H320 0.950 . S
C344 C339 1.363 . S
C344 C343 1.415 . S
C345 H321 0.951 . S
C345 C346 1.366 . S
C345 C347 1.388 . S
C346 C345 1.366 . S
C346 C350 1.385 . S
C347 H322 0.951 . S
C347 C345 1.388 . S
C347 C348 1.366 . S
C348 C347 1.366 . S
C348 C349 1.414 . S
C348 C351 1.499 . S
C349 H323 0.950 . S
C349 C348 1.414 . S
C349 C350 1.374 . S
C350 H324 0.950 . S
C350 C346 1.385 . S
C350 C349 1.374 . S
C351 C348 1.499 . S
C351 C352 1.373 . S
C351 C353 1.389 . S
C352 H325 0.950 . S
C352 C338 1.377 . S
C352 C351 1.373 . S
C353 C337 1.377 . S
C353 C351 1.389 . S
C353 C354 1.524 . S
C354 C353 1.524 . S
C354 C355 1.397 . S
C354 C359 1.363 . S
C355 H326 0.950 . S
C355 C354 1.397 . S
C355 C356 1.334 . S
C356 H327 0.950 . S
C356 C355 1.334 . S
C356 C357 1.287 . S
C357 C356 1.287 . S
C357 C358 1.524 . S
C357 H360 0.999 . S
C358 H328 0.950 . S
C358 C357 1.524 . S
C358 C359 1.415 . S
C359 H329 0.950 . S
C359 C354 1.363 . S
C359 C358 1.415 . S
H360 C357 0.999 . S
H361 C342 0.913 . S
H362 C380 0.951 . S
H363 C382 0.951 . S
H364 C384 0.950 . S
H365 C385 0.950 . S
H366 C387 0.950 . S
H367 C390 0.950 . S
H368 C391 0.950 . S
H369 C393 0.950 . S
H370 C394 0.950 . S
H371 C395 0.951 . S
H372 C397 0.951 . S
H373 C399 0.950 . S
H374 C400 0.950 . S
H375 C402 0.950 . S
H376 C405 0.950 . S
H377 C406 0.950 . S
H378 C408 0.950 . S
H379 C409 0.950 . S
C380 H362 0.951 . S
C380 C381 1.366 . S
C380 C382 1.388 . S
C381 C380 1.366 . S
C381 C385 1.385 . S
C382 H363 0.951 . S
C382 C380 1.388 . S
C382 C383 1.366 . S
C383 C382 1.366 . S
C383 C384 1.414 . S
C383 C386 1.499 . S
C384 H364 0.950 . S
C384 C383 1.414 . S
C384 C385 1.374 . S
C385 H365 0.950 . S
C385 C381 1.385 . S
C385 C384 1.374 . S
C386 C383 1.499 . S
C386 C387 1.373 . S
C386 C388 1.389 . S
C387 H366 0.950 . S
C387 C386 1.373 . S
C387 C403 1.377 . S
C388 C386 1.389 . S
C388 C389 1.524 . S
C388 C402 1.377 . S
C389 C388 1.524 . S
C389 C390 1.397 . S
C389 C394 1.363 . S
C390 H367 0.950 . S
C390 C389 1.397 . S
C390 C391 1.334 . S
C391 H368 0.950 . S
C391 C390 1.334 . S
C391 C392 1.287 . S
C392 C391 1.287 . S
C392 C393 1.524 . S
C392 H411 0.913 . S
C393 H369 0.950 . S
C393 C392 1.524 . S
C393 C394 1.415 . S
C394 H370 0.950 . S
C394 C389 1.363 . S
C394 C393 1.415 . S
C395 H371 0.951 . S
C395 C396 1.366 . S
C395 C397 1.388 . S
C396 C395 1.366 . S
C396 C400 1.385 . S
C397 H372 0.951 . S
C397 C395 1.388 . S
C397 C398 1.366 . S
C398 C397 1.366 . S
C398 C399 1.414 . S
C398 C401 1.499 . S
C399 H373 0.950 . S
C399 C398 1.414 . S
C399 C400 1.374 . S
C400 H374 0.950 . S
C400 C396 1.385 . S
C400 C399 1.374 . S
C401 C398 1.499 . S
C401 C402 1.373 . S
C401 C403 1.389 . S
C402 H375 0.950 . S
C402 C388 1.377 . S
C402 C401 1.373 . S
C403 C387 1.377 . S
C403 C401 1.389 . S
C403 C404 1.524 . S
C404 C403 1.524 . S
C404 C405 1.397 . S
C404 C409 1.363 . S
C405 H376 0.950 . S
C405 C404 1.397 . S
C405 C406 1.334 . S
C406 H377 0.950 . S
C406 C405 1.334 . S
C406 C407 1.287 . S
C407 C406 1.287 . S
C407 C408 1.524 . S
C407 H410 0.999 . S
C408 H378 0.950 . S
C408 C407 1.524 . S
C408 C409 1.415 . S
C409 H379 0.950 . S
C409 C404 1.363 . S
C409 C408 1.415 . S
H410 C407 0.999 . S
H411 C392 0.913 . S
H412 C430 0.951 . S
H413 C432 0.951 . S
H414 C434 0.950 . S
H415 C435 0.950 . S
H416 C437 0.950 . S
H417 C440 0.950 . S
H418 C441 0.950 . S
H419 C443 0.950 . S
H420 C444 0.950 . S
H421 C445 0.951 . S
H422 C447 0.951 . S
H423 C449 0.950 . S
H424 C450 0.950 . S
H425 C452 0.950 . S
H426 C455 0.950 . S
H427 C456 0.950 . S
H428 C458 0.950 . S
H429 C459 0.950 . S
C430 H412 0.951 . S
C430 C431 1.366 . S
C430 C432 1.388 . S
C431 C430 1.366 . S
C431 C435 1.385 . S
C432 H413 0.951 . S
C432 C430 1.388 . S
C432 C433 1.366 . S
C433 C432 1.366 . S
C433 C434 1.414 . S
C433 C436 1.499 . S
C434 H414 0.950 . S
C434 C433 1.414 . S
C434 C435 1.374 . S
C435 H415 0.950 . S
C435 C431 1.385 . S
C435 C434 1.374 . S
C436 C433 1.499 . S
C436 C437 1.373 . S
C436 C438 1.389 . S
C437 H416 0.950 . S
C437 C436 1.373 . S
C437 C453 1.377 . S
C438 C436 1.389 . S
C438 C439 1.524 . S
C438 C452 1.377 . S
C439 C438 1.524 . S
C439 C440 1.397 . S
C439 C444 1.363 . S
C440 H417 0.950 . S
C440 C439 1.397 . S
C440 C441 1.334 . S
C441 H418 0.950 . S
C441 C440 1.334 . S
C441 C442 1.287 . S
C442 C441 1.287 . S
C442 C443 1.524 . S
C442 H461 0.913 . S
C443 H419 0.950 . S
C443 C442 1.524 . S
C443 C444 1.415 . S
C444 H420 0.950 . S
C444 C439 1.363 . S
C444 C443 1.415 . S
C445 H421 0.951 . S
C445 C446 1.366 . S
C445 C447 1.388 . S
C446 C445 1.366 . S
C446 C450 1.385 . S
C447 H422 0.951 . S
C447 C445 1.388 . S
C447 C448 1.366 . S
C448 C447 1.366 . S
C448 C449 1.414 . S
C448 C451 1.499 . S
C449 H423 0.950 . S
C449 C448 1.414 . S
C449 C450 1.374 . S
C450 H424 0.950 . S
C450 C446 1.385 . S
C450 C449 1.374 . S
C451 C448 1.499 . S
C451 C452 1.373 . S
C451 C453 1.389 . S
C452 H425 0.950 . S
C452 C438 1.377 . S
C452 C451 1.373 . S
C453 C437 1.377 . S
C453 C451 1.389 . S
C453 C454 1.524 . S
C454 C453 1.524 . S
C454 C455 1.397 . S
C454 C459 1.363 . S
C455 H426 0.950 . S
C455 C454 1.397 . S
C455 C456 1.334 . S
C456 H427 0.950 . S
C456 C455 1.334 . S
C456 C457 1.287 . S
C457 C456 1.287 . S
C457 C458 1.524 . S
C457 H460 0.999 . S
C458 H428 0.950 . S
C458 C457 1.524 . S
C458 C459 1.415 . S
C459 H429 0.950 . S
C459 C454 1.363 . S
C459 C458 1.415 . S
H460 C457 0.999 . S
H461 C442 0.913 . S
H462 C480 0.951 . S
H463 C482 0.951 . S
H464 C484 0.950 . S
H465 C485 0.950 . S
H466 C487 0.950 . S
H467 C490 0.950 . S
H468 C491 0.950 . S
H469 C493 0.950 . S
H470 C494 0.950 . S
H471 C495 0.951 . S
H472 C497 0.951 . S
H473 C499 0.950 . S
H474 C500 0.950 . S
H475 C502 0.950 . S
H476 C505 0.950 . S
H477 C506 0.950 . S
H478 C508 0.950 . S
H479 C509 0.950 . S
C480 H462 0.951 . S
C480 C481 1.366 . S
C480 C482 1.388 . S
C481 C480 1.366 . S
C481 C485 1.385 . S
C482 H463 0.951 . S
C482 C480 1.388 . S
C482 C483 1.366 . S
C483 C482 1.366 . S
C483 C484 1.414 . S
C483 C486 1.499 . S
C484 H464 0.950 . S
C484 C483 1.414 . S
C484 C485 1.374 . S
C485 H465 0.950 . S
C485 C481 1.385 . S
C485 C484 1.374 . S
C486 C483 1.499 . S
C486 C487 1.373 . S
C486 C488 1.389 . S
C487 H466 0.950 . S
C487 C486 1.373 . S
C487 C503 1.377 . S
C488 C486 1.389 . S
C488 C489 1.524 . S
C488 C502 1.377 . S
C489 C488 1.524 . S
C489 C490 1.397 . S
C489 C494 1.363 . S
C490 H467 0.950 . S
C490 C489 1.397 . S
C490 C491 1.334 . S
C491 H468 0.950 . S
C491 C490 1.334 . S
C491 C492 1.287 . S
C492 C491 1.287 . S
C492 C493 1.524 . S
C492 H511 0.913 . S
C493 H469 0.950 . S
C493 C492 1.524 . S
C493 C494 1.415 . S
C494 H470 0.950 . S
C494 C489 1.363 . S
C494 C493 1.415 . S
C495 H471 0.951 . S
C495 C496 1.366 . S
C495 C497 1.388 . S
C496 C495 1.366 . S
C496 C500 1.385 . S
C497 H472 0.951 . S
C497 C495 1.388 . S
C497 C498 1.366 . S
C498 C497 1.366 . S
C498 C499 1.414 . S
C498 C501 1.499 . S
C499 H473 0.950 . S
C499 C498 1.414 . S
C499 C500 1.374 . S
C500 H474 0.950 . S
C500 C496 1.385 . S
C500 C499 1.374 . S
C501 C498 1.499 . S
C501 C502 1.373 . S
C501 C503 1.389 . S
C502 H475 0.950 . S
C502 C488 1.377 . S
C502 C501 1.373 . S
C503 C487 1.377 . S
C503 C501 1.389 . S
C503 C504 1.524 . S
C504 C503 1.524 . S
C504 C505 1.397 . S
C504 C509 1.363 . S
C505 H476 0.950 . S
C505 C504 1.397 . S
C505 C506 1.334 . S
C506 H477 0.950 . S
C506 C505 1.334 . S
C506 C507 1.287 . S
C507 C506 1.287 . S
C507 C508 1.524 . S
C507 H510 0.999 . S
C508 H478 0.950 . S
C508 C507 1.524 . S
C508 C509 1.415 . S
C509 H479 0.950 . S
C509 C504 1.363 . S
C509 C508 1.415 . S
H510 C507 0.999 . S
H511 C492 0.913 . S
H512 C530 0.951 . S
H513 C532 0.951 . S
H514 C534 0.950 . S
H515 C535 0.950 . S
H516 C537 0.950 . S
H517 C540 0.950 1_545 S
H518 C541 0.962 . S
H519 C543 0.950 . S
H520 C544 0.950 . S
H521 C545 0.951 . S
H522 C547 0.951 . S
H523 C549 0.950 . S
H524 C550 0.950 . S
H525 C552 0.950 . S
H526 C555 0.950 . S
H527 C556 0.950 . S
H528 C558 0.950 . S
H529 C559 0.950 . S
C530 H512 0.951 . S
C530 C531 1.366 1_565 S
C530 C532 1.388 . S
C531 C530 1.366 1_545 S
C531 C535 1.385 . S
C532 H513 0.951 . S
C532 C530 1.388 . S
C532 C533 1.366 1_565 S
C533 C532 1.366 1_545 S
C533 C534 1.414 . S
C533 C536 1.499 . S
C534 H514 0.950 . S
C534 C533 1.414 . S
C534 C535 1.374 . S
C535 H515 0.950 . S
C535 C531 1.385 . S
C535 C534 1.374 . S
C536 C533 1.499 . S
C536 C537 1.373 . S
C536 C538 1.389 1_445 S
C537 H516 0.950 . S
C537 C536 1.373 . S
C537 C553 1.377 . S
C538 C536 1.389 1_665 S
C538 C539 1.524 . S
C538 C552 1.377 . S
C539 C538 1.524 . S
C539 C540 1.397 . S
C539 C544 1.363 . S
C540 H517 0.950 1_565 S
C540 C539 1.397 . S
C540 C541 1.334 . S
C541 H518 0.962 . S
C541 C540 1.334 . S
C541 C542 1.287 . S
C542 C541 1.287 . S
C542 C543 1.524 . S
C542 H561 0.913 . S
C543 H519 0.950 . S
C543 C542 1.524 . S
C543 C544 1.415 . S
C544 H520 0.950 . S
C544 C539 1.363 . S
C544 C543 1.415 . S
C545 H521 0.951 . S
C545 C546 1.366 . S
C545 C547 1.388 . S
C546 C545 1.366 . S
C546 C550 1.385 1_545 S
C547 H522 0.951 . S
C547 C545 1.388 . S
C547 C548 1.366 . S
C548 C547 1.366 . S
C548 C549 1.414 1_545 S
C548 C551 1.499 . S
C549 H523 0.950 . S
C549 C548 1.414 1_565 S
C549 C550 1.374 . S
C550 H524 0.950 . S
C550 C546 1.385 1_565 S
C550 C549 1.374 . S
C551 C548 1.499 . S
C551 C552 1.373 1_445 S
C551 C553 1.389 . S
C552 H525 0.950 . S
C552 C538 1.377 . S
C552 C551 1.373 1_665 S
C553 C537 1.377 . S
C553 C551 1.389 . S
C553 C554 1.524 . S
C554 C553 1.524 . S
C554 C555 1.397 . S
C554 C559 1.363 . S
C555 H526 0.950 . S
C555 C554 1.397 . S
C555 C556 1.334 . S
C556 H527 0.950 . S
C556 C555 1.334 . S
C556 C557 1.287 . S
C557 C556 1.287 . S
C557 C558 1.524 . S
C557 H560 0.999 . S
C558 H528 0.950 . S
C558 C557 1.524 . S
C558 C559 1.415 . S
C559 H529 0.950 . S
C559 C554 1.363 . S
C559 C558 1.415 . S
H560 C557 0.999 . S
H561 C542 0.913 . S
H562 C580 0.951 . S
H563 C582 0.951 . S
H564 C584 0.950 . S
H565 C585 0.950 . S
H566 C587 0.950 . S
H567 C590 0.950 . S
H568 C591 0.950 . S
H569 C593 0.950 . S
H570 C594 0.950 . S
H571 C595 0.951 . S
H572 C597 0.951 . S
H573 C599 0.950 . S
H574 C600 0.950 . S
H575 C602 0.950 . S
H576 C605 0.950 . S
H577 C606 0.950 . S
H578 C608 0.950 . S
H579 C609 0.950 . S
C580 H562 0.951 . S
C580 C581 1.366 1_565 S
C580 C582 1.388 . S
C581 C580 1.366 1_545 S
C581 C585 1.385 1_655 S
C582 H563 0.951 . S
C582 C580 1.388 . S
C582 C583 1.371 1_565 S
C583 C582 1.371 1_545 S
C583 C584 1.413 1_655 S
C583 C586 1.496 . S
C584 H564 0.950 . S
C584 C583 1.413 1_455 S
C584 C585 1.374 . S
C585 H565 0.950 . S
C585 C581 1.385 1_455 S
C585 C584 1.374 . S
C586 C583 1.496 . S
C586 C587 1.374 . S
C586 C588 1.389 1_645 S
C587 H566 0.950 . S
C587 C586 1.374 . S
C587 C603 1.377 . S
C588 C586 1.389 1_465 S
C588 C589 1.524 . S
C588 C602 1.377 . S
C589 C588 1.524 . S
C589 C590 1.397 . S
C589 C594 1.363 . S
C590 H567 0.950 . S
C590 C589 1.397 . S
C590 C591 1.334 . S
C591 H568 0.950 . S
C591 C590 1.334 . S
C591 C592 1.287 . S
C592 C591 1.287 . S
C592 C593 1.524 . S
C592 H611 0.913 . S
C593 H569 0.950 . S
C593 C592 1.524 . S
C593 C594 1.415 . S
C594 H570 0.950 . S
C594 C589 1.363 . S
C594 C593 1.415 . S
C595 H571 0.951 . S
C595 C596 1.366 1_455 S
C595 C597 1.388 . S
C596 C595 1.366 1_655 S
C596 C600 1.385 1_545 S
C597 H572 0.951 . S
C597 C595 1.388 . S
C597 C598 1.366 1_455 S
C598 C597 1.366 1_655 S
C598 C599 1.414 1_545 S
C598 C601 1.499 . S
C599 H573 0.950 . S
C599 C598 1.414 1_565 S
C599 C600 1.374 . S
C600 H574 0.950 . S
C600 C596 1.385 1_565 S
C600 C599 1.374 . S
C601 C598 1.499 . S
C601 C602 1.373 1_645 S
C601 C603 1.389 . S
C602 H575 0.950 . S
C602 C588 1.377 . S
C602 C601 1.373 1_465 S
C603 C587 1.377 . S
C603 C601 1.389 . S
C603 C604 1.524 . S
C604 C603 1.524 . S
C604 C605 1.397 . S
C604 C609 1.363 . S
C605 H576 0.950 . S
C605 C604 1.397 . S
C605 C606 1.334 . S
C606 H577 0.950 . S
C606 C605 1.334 . S
C606 C607 1.287 . S
C607 C606 1.287 . S
C607 C608 1.524 . S
C607 H610 0.999 . S
C608 H578 0.950 . S
C608 C607 1.524 . S
C608 C609 1.415 . S
C609 H579 0.950 . S
C609 C604 1.363 . S
C609 C608 1.415 . S
H610 C607 0.999 . S
H611 C592 0.913 . S
H612 C630 0.951 . S
H613 C632 0.951 . S
H614 C634 0.950 . S
H615 C635 0.950 . S
H616 C637 0.950 . S
H617 C640 0.950 . S
H618 C641 0.950 . S
H619 C643 0.950 . S
H620 C644 0.950 . S
H621 C645 0.951 . S
H622 C647 0.951 . S
H623 C649 0.950 . S
H624 C650 0.950 . S
H625 C652 0.950 . S
H626 C655 0.950 . S
H627 C656 0.950 . S
H628 C658 0.950 . S
H629 C659 0.950 . S
C630 H612 0.951 . S
C630 C631 1.366 . S
C630 C632 1.388 . S
C631 C630 1.366 . S
C631 C635 1.385 . S
C632 H613 0.951 . S
C632 C630 1.388 . S
C632 C633 1.366 . S
C633 C632 1.366 . S
C633 C634 1.414 . S
C633 C636 1.499 . S
C634 H614 0.950 . S
C634 C633 1.414 . S
C634 C635 1.374 . S
C635 H615 0.950 . S
C635 C631 1.385 . S
C635 C634 1.374 . S
C636 C633 1.499 . S
C636 C637 1.373 . S
C636 C638 1.389 . S
C637 H616 0.950 . S
C637 C636 1.373 . S
C637 C653 1.377 . S
C638 C636 1.389 . S
C638 C639 1.524 . S
C638 C652 1.377 . S
C639 C638 1.524 . S
C639 C640 1.397 . S
C639 C644 1.363 . S
C640 H617 0.950 . S
C640 C639 1.397 . S
C640 C641 1.334 . S
C641 H618 0.950 . S
C641 C640 1.334 . S
C641 C642 1.287 . S
C642 C641 1.287 . S
C642 C643 1.524 . S
C642 H661 0.913 . S
C643 H619 0.950 . S
C643 C642 1.524 . S
C643 C644 1.415 . S
C644 H620 0.950 . S
C644 C639 1.363 . S
C644 C643 1.415 . S
C645 H621 0.951 . S
C645 C646 1.366 . S
C645 C647 1.388 . S
C646 C645 1.366 . S
C646 C650 1.385 . S
C647 H622 0.951 . S
C647 C645 1.388 . S
C647 C648 1.366 . S
C648 C647 1.366 . S
C648 C649 1.414 . S
C648 C651 1.499 . S
C649 H623 0.950 . S
C649 C648 1.414 . S
C649 C650 1.374 . S
C650 H624 0.950 . S
C650 C646 1.385 . S
C650 C649 1.374 . S
C651 C648 1.499 . S
C651 C652 1.373 . S
C651 C653 1.389 . S
C652 H625 0.950 . S
C652 C638 1.377 . S
C652 C651 1.373 . S
C653 C637 1.377 . S
C653 C651 1.389 . S
C653 C654 1.524 . S
C654 C653 1.524 . S
C654 C655 1.397 . S
C654 C659 1.363 . S
C655 H626 0.950 . S
C655 C654 1.397 . S
C655 C656 1.334 . S
C656 H627 0.950 . S
C656 C655 1.334 . S
C656 C657 1.287 . S
C657 C656 1.287 . S
C657 C658 1.524 . S
C657 H660 0.999 . S
C658 H628 0.950 . S
C658 C657 1.524 . S
C658 C659 1.415 . S
C659 H629 0.950 . S
C659 C654 1.363 . S
C659 C658 1.415 . S
H660 C657 0.999 . S
H661 C642 0.913 . S
H662 C680 0.951 . S
H663 C682 0.951 . S
H664 C684 0.950 . S
H665 C685 0.950 . S
H666 C687 0.950 . S
H667 C690 0.950 . S
H668 C691 0.950 . S
H669 C693 0.950 . S
H670 C694 0.950 . S
H671 C695 0.951 . S
H672 C697 0.951 . S
H673 C699 0.950 . S
H674 C700 0.950 . S
H675 C702 0.950 . S
H676 C705 0.950 . S
H677 C706 0.950 . S
H678 C708 0.950 . S
H679 C709 0.950 . S
C680 H662 0.951 . S
C680 C681 1.366 . S
C680 C682 1.388 . S
C681 C680 1.366 . S
C681 C685 1.385 . S
C682 H663 0.951 . S
C682 C680 1.388 . S
C682 C683 1.366 . S
C683 C682 1.366 . S
C683 C684 1.414 . S
C683 C686 1.499 . S
C684 H664 0.950 . S
C684 C683 1.414 . S
C684 C685 1.374 . S
C685 H665 0.950 . S
C685 C681 1.385 . S
C685 C684 1.374 . S
C686 C683 1.499 . S
C686 C687 1.373 . S
C686 C688 1.389 . S
C687 H666 0.950 . S
C687 C686 1.373 . S
C687 C703 1.377 . S
C688 C686 1.389 . S
C688 C689 1.524 . S
C688 C702 1.377 . S
C689 C688 1.524 . S
C689 C690 1.397 . S
C689 C694 1.363 . S
C690 H667 0.950 . S
C690 C689 1.397 . S
C690 C691 1.334 . S
C691 H668 0.950 . S
C691 C690 1.334 . S
C691 C692 1.287 . S
C692 C691 1.287 . S
C692 C693 1.524 . S
C692 H711 0.913 . S
C693 H669 0.950 . S
C693 C692 1.524 . S
C693 C694 1.415 . S
C694 H670 0.950 . S
C694 C689 1.363 . S
C694 C693 1.415 . S
C695 H671 0.951 . S
C695 C696 1.366 . S
C695 C697 1.388 . S
C696 C695 1.366 . S
C696 C700 1.385 . S
C697 H672 0.951 . S
C697 C695 1.388 . S
C697 C698 1.366 . S
C698 C697 1.366 . S
C698 C699 1.414 . S
C698 C701 1.499 . S
C699 H673 0.950 . S
C699 C698 1.414 . S
C699 C700 1.374 . S
C700 H674 0.950 . S
C700 C696 1.385 . S
C700 C699 1.374 . S
C701 C698 1.499 . S
C701 C702 1.373 . S
C701 C703 1.389 . S
C702 H675 0.950 . S
C702 C688 1.377 . S
C702 C701 1.373 . S
C703 C687 1.377 . S
C703 C701 1.389 . S
C703 C704 1.524 . S
C704 C703 1.524 . S
C704 C705 1.397 . S
C704 C709 1.363 . S
C705 H676 0.950 . S
C705 C704 1.397 . S
C705 C706 1.334 . S
C706 H677 0.950 . S
C706 C705 1.334 . S
C706 C707 1.287 . S
C707 C706 1.287 . S
C707 C708 1.524 . S
C707 H710 0.999 . S
C708 H678 0.950 . S
C708 C707 1.524 . S
C708 C709 1.415 . S
C709 H679 0.950 . S
C709 C704 1.363 . S
C709 C708 1.415 . S
H710 C707 0.999 . S
H711 C692 0.913 . S
C146 C105 1.432 . S
C131 C29 1.464 . S
C181 C8 1.349 . S
C196 C100 1.314 . S
C231 C0 1.358 . S
C246 C111 1.323 . S
C281 C17 1.468 . S
C296 C94 1.440 . S
C331 C63 1.464 . S
C346 C83 1.432 . S
C381 C42 1.350 . S
C396 C78 1.313 . S
C446 C89 1.323 . S
C431 C34 1.357 . S
C496 C72 1.440 . S
C481 C51 1.468 . S
C531 C4 1.516 . S
C546 C73 1.511 . S
C581 C13 1.510 . S
C596 C84 1.503 . S
C646 C95 1.512 . S
C631 C38 1.516 . S
C681 C47 1.510 . S
C696 C106 1.503 . S
