# Generated by pormake.
# Topology anh, (6,3)-cn, num edge types: 1
# Building blocks:
#     Node 0, Type 0, BuildingBlock: VOLQOD_clean_sbu_1, # of connection points: 6
#     Node 1, Type 0, BuildingBlock: VOLQOD_clean_sbu_1, # of connection points: 6
#     Node 2, Type 0, BuildingBlock: VOLQOD_clean_sbu_1, # of connection points: 6
#     Node 3, Type 1, BuildingBlock: VETTIZ_charged_linker_0, # of connection points: 3
#     Node 4, Type 1, BuildingBlock: VETTIZ_charged_linker_0, # of connection points: 3
#     Node 5, Type 1, BuildingBlock: VETTIZ_charged_linker_0, # of connection points: 3
#     Node 6, Type 1, BuildingBlock: VETTIZ_charged_linker_0, # of connection points: 3
#     Node 7, Type 1, BuildingBlock: VETTIZ_charged_linker_0, # of connection points: 3
#     Node 8, Type 1, BuildingBlock: VETTIZ_charged_linker_0, # of connection points: 3
#     Edge 9, Type (0, 1), BuildingBlock: TEMPAE_clean_linker_10, # of connection points: 2
#     Edge 10, Type (0, 1), BuildingBlock: TEMPAE_clean_linker_10, # of connection points: 2
#     Edge 11, Type (0, 1), BuildingBlock: TEMPAE_clean_linker_10, # of connection points: 2
#     Edge 12, Type (0, 1), BuildingBlock: TEMPAE_clean_linker_10, # of connection points: 2
#     Edge 13, Type (0, 1), BuildingBlock: TEMPAE_clean_linker_10, # of connection points: 2
#     Edge 14, Type (0, 1), BuildingBlock: TEMPAE_clean_linker_10, # of connection points: 2
#     Edge 15, Type (0, 1), BuildingBlock: TEMPAE_clean_linker_10, # of connection points: 2
#     Edge 16, Type (0, 1), BuildingBlock: TEMPAE_clean_linker_10, # of connection points: 2
#     Edge 17, Type (0, 1), BuildingBlock: TEMPAE_clean_linker_10, # of connection points: 2
#     Edge 18, Type (0, 1), BuildingBlock: TEMPAE_clean_linker_10, # of connection points: 2
#     Edge 19, Type (0, 1), BuildingBlock: TEMPAE_clean_linker_10, # of connection points: 2
#     Edge 20, Type (0, 1), BuildingBlock: TEMPAE_clean_linker_10, # of connection points: 2
#     Edge 21, Type (0, 1), BuildingBlock: TEMPAE_clean_linker_10, # of connection points: 2
#     Edge 22, Type (0, 1), BuildingBlock: TEMPAE_clean_linker_10, # of connection points: 2
#     Edge 23, Type (0, 1), BuildingBlock: TEMPAE_clean_linker_10, # of connection points: 2
#     Edge 24, Type (0, 1), BuildingBlock: TEMPAE_clean_linker_10, # of connection points: 2
#     Edge 25, Type (0, 1), BuildingBlock: TEMPAE_clean_linker_10, # of connection points: 2
#     Edge 26, Type (0, 1), BuildingBlock: TEMPAE_clean_linker_10, # of connection points: 2
# Relax obj value: 0.169
# Max RMSD: 0.231
# Mean RMSD: 0.117
data_MOF--net-anh--node1-VOLQOD_clean_sbu_1--node2-VETTIZ_charged_linker_0--edge1-TEMPAE_clean_linker_10
_symmetry_space_group_name_H-M    P1
_symmetry_Int_Tables_number       1
_symmetry_cell_setting            triclinic
loop_
_symmetry_equiv_pos_as_xyz
'x, y, z'
_cell_length_a     34.699174
_cell_length_b     34.685262
_cell_length_c     75.197488
_cell_angle_alpha  90.174778
_cell_angle_beta   89.777458
_cell_angle_gamma 120.12917
loop_
_atom_site_label
_atom_site_type_symbol
_atom_site_fract_x
_atom_site_fract_y
_atom_site_fract_z
_atom_type_partial_charge
O0 O 0.01634 0.53802 0.19577 0.0
Zn1 Zn 0.01671 0.54393 0.16922 0.0
O2 O 0.0176 0.49394 0.15773 0.0
Zn3 Zn 0.96156 0.45833 0.14535 0.0
Zn4 Zn 0.025 0.45752 0.17562 0.0
Zn5 Zn 0.06675 0.51607 0.14082 0.0
O6 O 0.97117 0.45722 0.11908 0.0
O7 O 0.04414 0.50172 0.1157 0.0
O8 O 0.96304 0.54827 0.16263 0.0
O9 O 0.92184 0.48428 0.14843 0.0
O10 O 0.9279 0.39617 0.15486 0.0
O11 O 0.97032 0.39667 0.17695 0.0
O12 O 0.07671 0.44881 0.17006 0.0
O13 O 0.07134 0.60141 0.16281 0.0
O14 O 0.10401 0.48772 0.14523 0.0
O15 O 0.10713 0.5825 0.14329 0.0
C16 C 0.02611 0.51493 0.20593 0.0
C17 C 0.00548 0.47708 0.10916 0.0
C18 C 0.93489 0.37676 0.16773 0.0
C19 C 0.92706 0.52046 0.15496 0.0
C20 C 0.1047 0.46244 0.15733 0.0
C21 C 0.10434 0.61187 0.15252 0.0
O22 O 0.03353 0.48491 0.19992 0.0
O23 O 0.43244 -0.00132 0.46079 0.0
Zn24 Zn 0.42356 0.00206 0.48706 0.0
O25 O 0.46944 -0.0026 0.50037 0.0
Zn26 Zn 0.50297 0.05026 0.51497 0.0
Zn27 Zn 0.51022 0.9918 0.4841 0.0
Zn28 Zn 0.44148 0.94531 0.5156 0.0
O29 O 0.49828 0.03561 0.54095 0.0
O30 O 0.45078 0.96277 0.54126 0.0
O31 O 0.42366 0.05923 0.49246 0.0
O32 O 0.47826 0.0907 0.51218 0.0
O33 O 0.56703 0.08584 0.5074 0.0
O34 O 0.57035 0.04668 0.48469 0.0
O35 O 0.51882 0.94039 0.49056 0.0
O36 O 0.36265 0.95064 0.49268 0.0
O37 O 0.46729 0.90578 0.51144 0.0
O38 O 0.3759 0.90966 0.51155 0.0
C39 C 0.45826 0.99021 0.45162 0.0
C40 C 0.4748 -0.00062 0.5494 0.0
C41 C 0.58856 0.08073 0.49476 0.0
C42 C 0.44772 0.09106 0.50302 0.0
C43 C 0.4983 0.90848 0.5015 0.0
C44 C 0.34896 0.91619 0.5024 0.0
O45 O 0.48836 0.98494 0.45893 0.0
O46 O 0.50353 0.49335 0.79149 0.0
Zn47 Zn 0.48579 0.4804 0.81724 0.0
O48 O 0.53141 0.52534 0.83271 0.0
Zn49 Zn 0.50513 0.55405 0.84627 0.0
Zn50 Zn 0.58069 0.56982 0.81831 0.0
Zn51 Zn 0.55352 0.49752 0.84919 0.0
O52 O 0.50506 0.54334 0.87237 0.0
O53 O 0.53936 0.50418 0.87462 0.0
O54 O 0.42618 0.47587 0.82039 0.0
O55 O 0.44156 0.53066 0.83945 0.0
O56 O 0.53701 0.61938 0.84199 0.0
O57 O 0.58629 0.63025 0.82088 0.0
O58 O 0.63885 0.57563 0.82557 0.0
O59 O 0.47705 0.4203 0.82283 0.0
O60 O 0.61988 0.52506 0.84687 0.0
O61 O 0.52522 0.4318 0.8444 0.0
C62 C 0.53897 0.52248 0.7838 0.0
C63 C 0.51962 0.52293 0.88173 0.0
C64 C 0.56755 0.64502 0.83126 0.0
C65 C 0.41432 0.49919 0.82944 0.0
C66 C 0.64929 0.5556 0.83704 0.0
C67 C 0.49468 0.40576 0.83375 0.0
O68 O 0.57165 0.55294 0.79239 0.0
C69 C 0.63135 0.09293 0.21381 0.0
C70 C 0.66771 0.12367 0.22406 0.0
C71 C 0.66287 0.12459 0.24263 0.0
C72 C 0.58581 0.06597 0.24045 0.0
C73 C 0.59078 0.06463 0.22225 0.0
C74 C 0.54829 0.03105 0.21331 0.0
H75 H 0.3325 0.86903 0.2208 0.0
C76 C 0.53919 0.03338 0.24497 0.0
C77 C 0.51694 0.01288 0.22914 0.0
H78 H 0.41294 0.91405 0.17308 0.0
H79 H 0.4747 0.97073 0.19001 0.0
H80 H 0.40636 0.87046 0.24534 0.0
H81 H 0.36541 0.9674 0.23705 0.0
H82 H 0.37634 0.96792 0.25986 0.0
H83 H 0.33268 0.91762 0.24978 0.0
H84 H 0.3544 0.86305 0.25353 0.0
H85 H 0.40499 0.89241 0.26625 0.0
C86 C 0.55632 -0.00486 0.20459 0.0
C87 C 0.53425 0.05606 0.20016 0.0
C88 C 0.48897 0.01248 0.30939 0.0
C89 C 0.44797 0.98464 0.31781 0.0
C90 C 0.41072 0.95613 0.30735 0.0
C91 C 0.41442 0.95507 0.28881 0.0
C92 C 0.45584 0.98268 0.28062 0.0
C93 C 0.4921 0.01101 0.29089 0.0
C94 C 0.53339 0.03821 0.27997 0.0
C95 C 0.51603 0.02124 0.26142 0.0
C96 C 0.47071 0.98868 0.26189 0.0
C97 C 0.56891 0.02621 0.28579 0.0
C98 C 0.54766 0.08808 0.28224 0.0
C99 C 0.36346 0.89114 0.214 0.0
C100 C 0.36819 0.88687 0.19566 0.0
C101 C 0.4086 0.91681 0.18721 0.0
C102 C 0.44447 0.94939 0.1971 0.0
C103 C 0.43976 0.95198 0.21559 0.0
C104 C 0.39948 0.9236 0.22366 0.0
C105 C 0.40041 0.93074 0.24341 0.0
C106 C 0.44821 0.96762 0.24594 0.0
C107 C 0.47113 0.97986 0.22963 0.0
C108 C 0.39078 0.88699 0.25276 0.0
C109 C 0.36684 0.94645 0.24792 0.0
H110 H 0.62055 0.09843 0.26505 0.0
H111 H 0.63397 0.0919 0.19948 0.0
H112 H 0.54266 0.08931 0.20553 0.0
H113 H 0.49794 0.03872 0.19787 0.0
H114 H 0.55162 0.06147 0.18718 0.0
H115 H 0.57845 0.98819 0.213 0.0
H116 H 0.57252 0.00629 0.19137 0.0
H117 H 0.52553 0.96259 0.20311 0.0
H118 H 0.51839 0.03437 0.31704 0.0
H119 H 0.37864 0.93474 0.31351 0.0
H120 H 0.38493 0.93257 0.28159 0.0
H121 H 0.55309 0.99019 0.28915 0.0
H122 H 0.58723 0.04554 0.29773 0.0
H123 H 0.59315 0.03141 0.27518 0.0
H124 H 0.51815 0.09229 0.2841 0.0
H125 H 0.56479 0.10832 0.2704 0.0
H126 H 0.56944 0.10278 0.29404 0.0
H127 H 0.69062 0.1478 0.25078 0.0
C128 C 0.62217 0.0959 0.25088 0.0
C129 C 0.5459 0.64128 0.5412 0.0
C130 C 0.56793 0.68383 0.54912 0.0
C131 C 0.58585 0.68829 0.56634 0.0
C132 C 0.55549 0.6085 0.56803 0.0
C133 C 0.54062 0.60445 0.55076 0.0
C134 C 0.51847 0.55719 0.54416 0.0
H135 H 0.44981 0.34076 0.56011 0.0
C136 C 0.54214 0.56347 0.5746 0.0
C137 C 0.52123 0.53338 0.56057 0.0
H138 H 0.445 0.40097 0.51052 0.0
H139 H 0.47686 0.47287 0.5249 0.0
H140 H 0.54336 0.41131 0.57098 0.0
H141 H 0.41782 0.39974 0.58556 0.0
H142 H 0.45038 0.41198 0.60486 0.0
H143 H 0.43485 0.36131 0.59284 0.0
H144 H 0.50753 0.37203 0.58738 0.0
H145 H 0.54825 0.42867 0.59322 0.0
C146 C 0.54657 0.55496 0.52852 0.0
C147 C 0.46961 0.54245 0.53933 0.0
C148 C 0.55622 0.53931 0.64026 0.0
C149 C 0.54537 0.50111 0.65042 0.0
C150 C 0.53036 0.46012 0.64151 0.0
C151 C 0.52418 0.45683 0.62306 0.0
C152 C 0.53338 0.49494 0.61327 0.0
C153 C 0.55039 0.53554 0.6218 0.0
C154 C 0.56052 0.57293 0.6091 0.0
C155 C 0.5446 0.54755 0.59168 0.0
C156 C 0.52828 0.50186 0.59425 0.0
C157 C 0.61156 0.60572 0.60908 0.0
C158 C 0.53245 0.59435 0.61465 0.0
C159 C 0.45458 0.36922 0.55244 0.0
C160 C 0.44462 0.3652 0.53418 0.0
C161 C 0.45254 0.40332 0.52458 0.0
C162 C 0.47119 0.44501 0.53295 0.0
C163 C 0.48223 0.44866 0.55109 0.0
C164 C 0.47339 0.41105 0.56056 0.0
C165 C 0.48802 0.42129 0.57963 0.0
C166 C 0.50818 0.4715 0.57994 0.0
C167 C 0.50446 0.48722 0.56322 0.0
C168 C 0.52341 0.40743 0.58316 0.0
C169 C 0.44585 0.39727 0.59148 0.0
H170 H 0.59296 0.65627 0.58903 0.0
H171 H 0.53147 0.63614 0.52806 0.0
H172 H 0.45496 0.55528 0.54928 0.0
H173 H 0.44748 0.50593 0.53938 0.0
H174 H 0.46766 0.55548 0.52609 0.0
H175 H 0.58234 0.58086 0.52985 0.0
H176 H 0.5348 0.56037 0.51556 0.0
H177 H 0.54659 0.5231 0.52806 0.0
H178 H 0.56783 0.57141 0.64652 0.0
H179 H 0.52309 0.43035 0.64882 0.0
H180 H 0.51213 0.42461 0.61714 0.0
H181 H 0.6303 0.58936 0.61369 0.0
H182 H 0.6206 0.63464 0.61797 0.0
H183 H 0.62472 0.618 0.59556 0.0
H184 H 0.49731 0.56814 0.61725 0.0
H185 H 0.53106 0.61609 0.60433 0.0
H186 H 0.54579 0.61436 0.62699 0.0
H187 H 0.60421 0.72066 0.57263 0.0
C188 C 0.57953 0.65087 0.57585 0.0
C189 C 0.10392 0.46873 0.86456 0.0
C190 C 0.1216 0.44375 0.87204 0.0
C191 C 0.10687 0.42498 0.88909 0.0
C192 C 0.06313 0.46128 0.89178 0.0
C193 C 0.07447 0.47658 0.87455 0.0
C194 C 0.05239 0.50212 0.86857 0.0
H195 H 0.9161 0.58299 0.88784 0.0
C196 C 0.03509 0.47837 0.89905 0.0
C197 C 0.02796 0.50163 0.88543 0.0
H198 H 0.9719 0.57987 0.83671 0.0
H199 H 0.01279 0.5482 0.85036 0.0
H200 H 0.89064 0.48991 0.8994 0.0
H201 H 0.00954 0.6143 0.91081 0.0
H202 H -0.00528 0.58267 0.93041 0.0
H203 H 0.95688 0.59852 0.92104 0.0
H204 H 0.89125 0.52957 0.91496 0.0
H205 H 0.90424 0.48752 0.92168 0.0
C206 C 0.01989 0.4758 0.85321 0.0
C207 C 0.08908 0.54998 0.86354 0.0
C208 C 0.00078 0.46511 0.96516 0.0
C209 C 0.97837 0.48073 0.97601 0.0
C210 C 0.95717 0.50185 0.96799 0.0
C211 C 0.95955 0.50866 0.94958 0.0
C212 C 0.9833 0.49415 0.93902 0.0
C213 C 0.00278 0.4721 0.94679 0.0
C214 C 0.02628 0.45865 0.93344 0.0
C215 C 0.01887 0.47761 0.91646 0.0
C216 C -0.00612 0.49847 0.91985 0.0
C217 C 0.00267 0.40701 0.93297 0.0
C218 C 0.07618 0.48189 0.93857 0.0
C219 C 0.93818 0.5768 0.87965 0.0
C220 C 0.94096 0.58406 0.86119 0.0
C221 C 0.96915 0.57436 0.85095 0.0
C222 C 0.99251 0.55567 0.85887 0.0
C223 C 0.98729 0.54628 0.87719 0.0
C224 C 0.9612 0.55767 0.8873 0.0
C225 C 0.95819 0.5439 0.90641 0.0
C226 C 0.98522 0.52059 0.90595 0.0
C227 C 0.00242 0.52239 0.88885 0.0
C228 C 0.90859 0.51125 0.91103 0.0
C229 C 0.98063 0.58681 0.91791 0.0
H230 H 0.06903 0.41967 0.91207 0.0
H231 H 0.11408 0.48358 0.85151 0.0
H232 H 0.11639 0.56332 0.87351 0.0
H233 H 0.0769 0.57388 0.86329 0.0
H234 H 0.10384 0.55045 0.85035 0.0
H235 H 0.00864 0.43962 0.85388 0.0
H236 H 0.03589 0.48808 0.84003 0.0
H237 H 0.98874 0.47717 0.85383 0.0
H238 H 0.01766 0.44898 0.97088 0.0
H239 H 0.93889 0.51337 0.97597 0.0
H240 H 0.94306 0.52529 0.94433 0.0
H241 H 0.96763 0.39139 0.93778 0.0
H242 H 0.0201 0.39448 0.94149 0.0
H243 H -4e-05 0.39393 0.9193 0.0
H244 H 0.08899 0.51766 0.94171 0.0
H245 H 0.09767 0.48153 0.92783 0.0
H246 H 0.08115 0.46605 0.95048 0.0
H247 H 0.11851 0.40423 0.89498 0.0
C248 C 0.07797 0.43382 0.89901 0.0
C249 C 0.87191 0.38332 0.44711 0.0
C250 C 0.84205 0.34488 0.43765 0.0
C251 C 0.84324 0.34545 0.41892 0.0
C252 C 0.90397 0.42183 0.41936 0.0
C253 C 0.90236 0.4213 0.43773 0.0
C254 C 0.93599 0.46514 0.44575 0.0
H255 H 0.10961 0.67343 0.43418 0.0
C256 C 0.94005 0.46609 0.41377 0.0
C257 C 0.95888 0.49163 0.42916 0.0
H258 H 0.04555 0.60943 0.48356 0.0
H259 H 0.99229 0.54381 0.46738 0.0
H260 H 0.11214 0.59466 0.41786 0.0
H261 H 0.01641 0.63754 0.41105 0.0
H262 H 0.03017 0.62571 0.38993 0.0
H263 H 0.07312 0.66843 0.40345 0.0
H264 H 0.12165 0.63805 0.40251 0.0
H265 H 0.09253 0.58004 0.39601 0.0
C266 C 0.96799 0.45718 0.45745 0.0
C267 C 0.91063 0.4847 0.45588 0.0
C268 C 0.97726 0.49937 0.34824 0.0
C269 C 0.0126 0.53519 0.33912 0.0
C270 C 0.04468 0.5718 0.34909 0.0
C271 C 0.04133 0.57295 0.36761 0.0
C272 C 0.006 0.53681 0.37643 0.0
C273 C 0.97515 0.50052 0.36679 0.0
C274 C 0.94211 0.46352 0.37852 0.0
C275 C 0.95763 0.48418 0.39678 0.0
C276 C -0.00543 0.5273 0.39543 0.0
C277 C 0.94778 0.4223 0.37568 0.0
C278 C 0.89499 0.45538 0.37422 0.0
C279 C 0.08407 0.64523 0.4415 0.0
C280 C 0.08182 0.64625 0.46013 0.0
C281 C 0.04772 0.60931 0.46918 0.0
C282 C 0.0171 0.57123 0.45977 0.0
C283 C 0.02069 0.57025 0.44115 0.0
C284 C 0.0534 0.60712 0.43233 0.0
C285 C 0.05237 0.60037 0.41257 0.0
C286 C 0.01334 0.55332 0.41093 0.0
C287 C -0.00481 0.53577 0.42769 0.0
C288 C 0.09695 0.60369 0.40679 0.0
C289 C 0.04278 0.63485 0.40364 0.0
H290 H 0.87339 0.38214 0.39547 0.0
H291 H 0.87112 0.38406 0.46151 0.0
H292 H 0.87744 0.47359 0.44983 0.0
H293 H 0.92793 0.52151 0.45529 0.0
H294 H 0.90503 0.47398 0.47001 0.0
H295 H 0.97657 0.43378 0.45077 0.0
H296 H 0.95238 0.44239 0.47046 0.0
H297 H 0.00019 0.48774 0.45987 0.0
H298 H 0.95165 0.47074 0.3412 0.0
H299 H 0.07302 0.5994 0.34266 0.0
H300 H 0.06676 0.60174 0.37437 0.0
H301 H 0.98262 0.43241 0.37188 0.0
H302 H 0.92563 0.40043 0.36495 0.0
H303 H 0.94159 0.40238 0.3879 0.0
H304 H 0.89589 0.48756 0.37213 0.0
H305 H 0.87091 0.43877 0.38514 0.0
H306 H 0.88169 0.43523 0.36191 0.0
H307 H 0.8205 0.31608 0.41139 0.0
C308 C 0.87405 0.38372 0.40972 0.0
C309 C 0.49706 0.89947 0.79248 0.0
C310 C 0.5054 0.8688 0.78355 0.0
C311 C 0.49747 0.86216 0.76514 0.0
C312 C 0.47453 0.91737 0.76467 0.0
C313 C 0.48128 0.92308 0.78281 0.0
C314 C 0.4701 0.95667 0.79013 0.0
H315 H 0.42229 0.1192 0.77413 0.0
C316 C 0.45951 0.94784 0.75847 0.0
C317 C 0.45613 0.97051 0.77332 0.0
H318 H 0.44859 0.07851 0.82476 0.0
H319 H 0.44981 0.01642 0.81058 0.0
H320 H 0.49352 0.1112 0.75322 0.0
H321 H 0.35351 0.01698 0.759 0.0
H322 H 0.36766 0.01513 0.73667 0.0
H323 H 0.37416 0.06636 0.7457 0.0
H324 H 0.45156 0.11813 0.74224 0.0
H325 H 0.47432 0.08649 0.73234 0.0
C326 C 0.51314 -0.0045 0.79826 0.0
C327 C 0.43091 0.93273 0.80345 0.0
C328 C 0.44847 0.967 0.69235 0.0
C329 C 0.4403 -0.00376 0.68234 0.0
C330 C 0.42755 0.02402 0.69118 0.0
C331 C 0.42482 0.02391 0.70978 0.0
C332 C 0.43534 -0.00397 0.71963 0.0
C333 C 0.44605 0.96761 0.71086 0.0
C334 C 0.4568 0.94074 0.72338 0.0
C335 C 0.4515 0.95827 0.74117 0.0
C336 C 0.43916 0.99072 0.7389 0.0
C337 C 0.50567 0.95274 0.71983 0.0
C338 C 0.42172 0.89076 0.72078 0.0
C339 C 0.42784 0.09656 0.78216 0.0
C340 C 0.43603 0.10388 0.80048 0.0
C341 C 0.44232 0.07343 0.8106 0.0
C342 C 0.44349 0.03778 0.80231 0.0
C343 C 0.43862 0.03292 0.78374 0.0
C344 C 0.42952 0.0612 0.77408 0.0
C345 C 0.42615 0.05178 0.75447 0.0
C346 C 0.43544 0.01355 0.75389 0.0
C347 C 0.44317 0.00297 0.77103 0.0
C348 C 0.46295 0.09395 0.74492 0.0
C349 C 0.37804 0.03706 0.74848 0.0
H350 H 0.47686 0.87985 0.74167 0.0
H351 H 0.50214 0.90451 0.8067 0.0
H352 H 0.40873 0.89723 0.79966 0.0
H353 H 0.40884 0.94718 0.80368 0.0
H354 H 0.4432 0.93327 0.81712 0.0
H355 H 0.54242 0.0039 0.78962 0.0
H356 H 0.51987 0.98634 0.81156 0.0
H357 H 0.51233 0.02674 0.7995 0.0
H358 H 0.45743 0.9446 0.68591 0.0
H359 H 0.42111 0.04688 0.68374 0.0
H360 H 0.41585 0.04642 0.71578 0.0
H361 H 0.52705 0.98896 0.71701 0.0
H362 H 0.5078 0.93417 0.70817 0.0
H363 H 0.52151 0.94659 0.73131 0.0
H364 H 0.38926 0.88638 0.71626 0.0
H365 H 0.41374 0.87156 0.73331 0.0
H366 H 0.4329 0.87504 0.71067 0.0
H367 H 0.50377 0.83863 0.75804 0.0
C368 C 0.48197 0.88619 0.75567 0.0
C369 C 0.63348 0.53052 0.12245 0.0
C370 C 0.67465 0.55515 0.11358 0.0
C371 C 0.67517 0.57098 0.09627 0.0
C372 C 0.59468 0.53227 0.09601 0.0
C373 C 0.5941 0.51994 0.11349 0.0
C374 C 0.54752 0.49444 0.12091 0.0
H375 H 0.32691 0.40864 0.10765 0.0
C376 C 0.54824 0.51266 0.09001 0.0
C377 C 0.52037 0.49108 0.10458 0.0
H378 H 0.39505 0.42333 0.1574 0.0
H379 H 0.46487 0.45068 0.1416 0.0
H380 H 0.39307 0.4988 0.09227 0.0
H381 H 0.38486 0.37189 0.08435 0.0
H382 H 0.39964 0.39966 0.06382 0.0
H383 H 0.34693 0.38571 0.07395 0.0
H384 H 0.34979 0.45481 0.07938 0.0
H385 H 0.40243 0.49429 0.06956 0.0
C386 C 0.54299 0.52283 0.13588 0.0
C387 C 0.53843 0.44803 0.12702 0.0
C388 C 0.51687 0.51746 0.02456 0.0
C389 C 0.47742 0.49947 0.01458 0.0
C390 C 0.43608 0.47613 0.02347 0.0
C391 C 0.43419 0.47049 0.04197 0.0
C392 C 0.47404 0.48838 0.05171 0.0
C393 C 0.51443 0.51155 0.04297 0.0
C394 C 0.55343 0.52785 0.05534 0.0
C395 C 0.52977 0.50999 0.07296 0.0
C396 C 0.48338 0.48698 0.07077 0.0
C397 C 0.57974 0.57959 0.05489 0.0
C398 C 0.58091 0.50581 0.04969 0.0
C399 C 0.35658 0.41633 0.11512 0.0
C400 C 0.35555 0.41382 0.13379 0.0
C401 C 0.39515 0.42526 0.14302 0.0
C402 C 0.43562 0.4415 0.13385 0.0
C403 C 0.43649 0.44675 0.1153 0.0
C404 C 0.39723 0.4332 0.1062 0.0
C405 C 0.40465 0.44298 0.08662 0.0
C406 C 0.45504 0.46677 0.08563 0.0
C407 C 0.47346 0.46856 0.10242 0.0
C408 C 0.38638 0.47411 0.08152 0.0
C409 C 0.38274 0.39793 0.07652 0.0
H410 H 0.63809 0.57144 0.0741 0.0
H411 H 0.63159 0.51806 0.13579 0.0
H412 H 0.55059 0.43319 0.11688 0.0
H413 H 0.50262 0.42386 0.12879 0.0
H414 H 0.5558 0.45052 0.13972 0.0
H415 H 0.56793 0.55887 0.1344 0.0
H416 H 0.54797 0.51233 0.14921 0.0
H417 H 0.51039 0.52136 0.13563 0.0
H418 H 0.54918 0.53498 0.01814 0.0
H419 H 0.40518 0.46234 0.0161 0.0
H420 H 0.40177 0.45243 0.04797 0.0
H421 H 0.5584 0.59332 0.05056 0.0
H422 H 0.60844 0.59231 0.04556 0.0
H423 H 0.59188 0.59437 0.06821 0.0
H424 H 0.55851 0.46975 0.04684 0.0
H425 H 0.60393 0.50721 0.06005 0.0
H426 H 0.60055 0.52163 0.03746 0.0
H427 H 0.70633 0.59144 0.08933 0.0
C428 C 0.63546 0.55947 0.08743 0.0
C429 C 0.13931 0.41918 0.1691 0.0
C430 C 0.13881 0.44878 0.15651 0.0
C431 C 0.17178 0.40636 0.16838 0.0
C432 C 0.20445 0.4237 0.15481 0.0
C433 C 0.20398 0.4534 0.14205 0.0
C434 C 0.17117 0.4655 0.14305 0.0
C435 C 0.17129 0.37452 0.18215 0.0
C436 C 0.23838 0.47274 0.12735 0.0
C437 C 0.31909 0.43774 0.15631 0.0
C438 C 0.31516 0.40691 0.14332 0.0
C439 C 0.28191 0.44062 0.16168 0.0
C440 C 0.24002 0.41195 0.15383 0.0
C441 C 0.23497 0.37739 0.1423 0.0
C442 C 0.27275 0.3753 0.13715 0.0
C443 C 0.28863 0.47769 0.17414 0.0
C444 C 0.19069 0.34568 0.13388 0.0
H445 H 0.11434 0.406 0.17954 0.0
H446 H 0.17111 0.48836 0.13326 0.0
H447 H 0.16928 0.34494 0.17553 0.0
H448 H 0.20277 0.39086 0.18984 0.0
H449 H 0.14288 0.36312 0.19156 0.0
H450 H 0.23313 0.49518 0.11844 0.0
H451 H 0.27226 0.49191 0.13315 0.0
H452 H 0.23734 0.44551 0.1192 0.0
H453 H 0.3518 0.46238 0.16109 0.0
H454 H 0.26956 0.35095 0.12732 0.0
H455 H 0.26078 0.46598 0.1838 0.0
H456 H 0.28937 0.50516 0.16633 0.0
H457 H 0.32045 0.49134 0.18158 0.0
H458 H 0.16319 0.33457 0.14368 0.0
H459 H 0.19033 0.31589 0.1282 0.0
H460 H 0.18405 0.36304 0.12298 0.0
C461 C 0.64883 0.16032 0.49709 0.0
C462 C 0.63361 0.11744 0.49021 0.0
C463 C 0.6871 0.19718 0.49017 0.0
C464 C 0.7108 0.19078 0.47622 0.0
C465 C 0.69785 0.14719 0.47033 0.0
C466 C 0.65923 0.11098 0.47735 0.0
C467 C 0.69998 0.24324 0.49681 0.0
C468 C 0.72281 0.13904 0.45567 0.0
C469 C 0.76423 0.28288 0.44209 0.0
C470 C 0.80894 0.30472 0.44731 0.0
C471 C 0.73206 0.24564 0.4514 0.0
C472 C 0.74509 0.22975 0.46621 0.0
C473 C 0.79031 0.25133 0.47143 0.0
C474 C 0.82177 0.28881 0.46194 0.0
C475 C 0.68402 0.22364 0.44552 0.0
C476 C 0.80534 0.2349 0.48703 0.0
H477 H 0.62935 0.16559 0.50709 0.0
H478 H 0.64802 0.07783 0.47216 0.0
H479 H 0.73631 0.26302 0.49937 0.0
H480 H 0.69217 0.26101 0.48646 0.0
H481 H 0.68188 0.24214 0.50919 0.0
H482 H 0.71271 0.10324 0.45453 0.0
H483 H 0.71604 0.14999 0.44279 0.0
H484 H 0.75926 0.15872 0.45798 0.0
H485 H 0.75425 0.29554 0.43092 0.0
H486 H 0.8565 0.30555 0.46586 0.0
H487 H 0.663 0.22437 0.45653 0.0
H488 H 0.67162 0.18815 0.44218 0.0
H489 H 0.67953 0.24021 0.43374 0.0
H490 H 0.78829 0.2362 0.49933 0.0
H491 H 0.84192 0.25493 0.48913 0.0
H492 H 0.79595 0.19958 0.48492 0.0
C493 C 0.55394 0.70648 0.84001 0.0
C494 C 0.57601 0.69091 0.82902 0.0
C495 C 0.55067 0.74363 0.83515 0.0
C496 C 0.5702 0.76564 0.81899 0.0
C497 C 0.59763 0.75386 0.80917 0.0
C498 C 0.6002 0.71642 0.8143 0.0
C499 C 0.52171 0.75563 0.84615 0.0
C500 C 0.6199 0.77735 0.79208 0.0
C501 C 0.50004 0.79669 0.79094 0.0
C502 C 0.52146 0.84286 0.79331 0.0
C503 C 0.51556 0.77136 0.79941 0.0
C504 C 0.55366 0.7929 0.81044 0.0
C505 C 0.57514 0.83953 0.81312 0.0
C506 C 0.55859 0.86408 0.80452 0.0
C507 C 0.49123 0.7215 0.79643 0.0
C508 C 0.61598 0.86349 0.82468 0.0
H509 H 0.53611 0.68763 0.8517 0.0
H510 H 0.61816 0.70518 0.80593 0.0
H511 H 0.53626 0.79228 0.84692 0.0
H512 H 0.48851 0.74148 0.83979 0.0
H513 H 0.51686 0.7421 0.85987 0.0
H514 H 0.64695 0.77075 0.78813 0.0
H515 H 0.59481 0.7653 0.78127 0.0
H516 H 0.63397 0.81385 0.79335 0.0
H517 H 0.47096 0.78036 0.78244 0.0
H518 H 0.57526 0.89995 0.8062 0.0
H519 H 0.47992 0.70385 0.80934 0.0
H520 H 0.51403 0.71155 0.79026 0.0
H521 H 0.46172 0.71005 0.78768 0.0
H522 H 0.61023 0.84672 0.83775 0.0
H523 H 0.62576 0.89893 0.82691 0.0
H524 H 0.64425 0.86243 0.81824 0.0
C525 C 0.90061 0.57509 0.15181 0.0
C526 C 0.89101 0.53079 0.15286 0.0
C527 C 0.86717 0.58494 0.1475 0.0
C528 C 0.82323 0.54958 0.14452 0.0
C529 C 0.81288 0.5049 0.14682 0.0
C530 C 0.84702 0.49603 0.15079 0.0
C531 C 0.87949 0.63294 0.14496 0.0
C532 C 0.76619 0.46627 0.1441 0.0
C533 C 0.72318 0.56525 0.14004 0.0
C534 C 0.7162 0.56055 0.12158 0.0
C535 C 0.75922 0.56386 0.14777 0.0
C536 C 0.78926 0.55842 0.13674 0.0
C537 C 0.78407 0.5566 0.11806 0.0
C538 C 0.74738 0.55713 0.11074 0.0
C539 C 0.76366 0.56567 0.16776 0.0
C540 C 0.81579 0.55136 0.10581 0.0
H541 H 0.93466 0.60202 0.15342 0.0
H542 H 0.83943 0.46175 0.15189 0.0
H543 H 0.87922 0.63968 0.13056 0.0
H544 H 0.85481 0.63969 0.15154 0.0
H545 H 0.91314 0.65646 0.15029 0.0
H546 H 0.76269 0.43411 0.14849 0.0
H547 H 0.74175 0.47194 0.15151 0.0
H548 H 0.75748 0.46346 0.12979 0.0
H549 H 0.69981 0.56879 0.14851 0.0
H550 H 0.74211 0.55263 0.09652 0.0
H551 H 0.79851 0.58926 0.17175 0.0
H552 H 0.75511 0.53226 0.1728 0.0
H553 H 0.74131 0.57579 0.17428 0.0
H554 H 0.85082 0.57601 0.10918 0.0
H555 H 0.8101 0.55566 0.0916 0.0
H556 H 0.81149 0.51765 0.10749 0.0
C557 C 0.28643 0.84182 0.51175 0.0
C558 C 0.30174 0.88055 0.50148 0.0
C559 C 0.2451 0.80392 0.50828 0.0
C560 C 0.21875 0.80492 0.49419 0.0
C561 C 0.23184 0.84531 0.48509 0.0
C562 C 0.27326 0.88278 0.48887 0.0
C563 C 0.23186 0.76164 0.51849 0.0
C564 C 0.20438 0.84778 0.47008 0.0
C565 C 0.1612 0.70266 0.46515 0.0
C566 C 0.11646 0.68513 0.46993 0.0
C567 C 0.19471 0.74114 0.47326 0.0
C568 C 0.18318 0.76252 0.48658 0.0
C569 C 0.13821 0.74418 0.49195 0.0
C570 C 0.10518 0.7055 0.48351 0.0
C571 C 0.24239 0.75941 0.46725 0.0
C572 C 0.1249 0.76605 0.50619 0.0
H573 H 0.30782 0.84008 0.5218 0.0
H574 H 0.28448 0.91281 0.48107 0.0
H575 H 0.1957 0.74368 0.52158 0.0
H576 H 0.23876 0.7392 0.51024 0.0
H577 H 0.25076 0.76846 0.53111 0.0
H578 H 0.21498 0.88278 0.46649 0.0
H579 H 0.20817 0.831 0.45817 0.0
H580 H 0.16851 0.83027 0.47366 0.0
H581 H 0.16999 0.68633 0.45491 0.0
H582 H 0.0705 0.69192 0.48717 0.0
H583 H 0.26361 0.76226 0.47874 0.0
H584 H 0.2556 0.79334 0.46166 0.0
H585 H 0.24565 0.73814 0.45697 0.0
H586 H 0.14643 0.77368 0.51806 0.0
H587 H 0.08955 0.7448 0.51029 0.0
H588 H 0.12957 0.79815 0.50115 0.0
C589 C 0.44259 0.32801 0.82376 0.0
C590 C 0.48056 0.3579 0.83339 0.0
C591 C 0.43177 0.2837 0.82131 0.0
C592 C 0.45979 0.2691 0.82857 0.0
C593 C 0.49628 0.29813 0.83939 0.0
C594 C 0.50622 0.34231 0.84171 0.0
C595 C 0.39231 0.25356 0.80981 0.0
C596 C 0.52681 0.28361 0.84738 0.0
C597 C 0.42196 0.14597 0.82438 0.0
C598 C 0.44279 0.14578 0.8084 0.0
C599 C 0.42781 0.1861 0.83145 0.0
C600 C 0.4553 0.22653 0.82232 0.0
C601 C 0.47736 0.22645 0.80647 0.0
C602 C 0.47081 0.18607 0.79973 0.0
C603 C 0.40382 0.18516 0.84836 0.0
C604 C 0.50726 0.26892 0.79641 0.0
H605 H 0.42208 0.33959 0.81757 0.0
H606 H 0.53538 0.36512 0.84932 0.0
H607 H 0.40435 0.24854 0.79679 0.0
H608 H 0.37226 0.22033 0.81607 0.0
H609 H 0.37038 0.26776 0.80734 0.0
H610 H 0.5489 0.30728 0.85771 0.0
H611 H 0.50732 0.24997 0.85336 0.0
H612 H 0.54803 0.28164 0.83675 0.0
H613 H 0.40038 0.11473 0.83108 0.0
H614 H 0.48774 0.18598 0.78759 0.0
H615 H 0.3788 0.19526 0.84547 0.0
H616 H 0.42763 0.20941 0.85811 0.0
H617 H 0.38651 0.15155 0.85455 0.0
H618 H 0.48762 0.28419 0.79178 0.0
H619 H 0.5232 0.26312 0.78466 0.0
H620 H 0.53383 0.2934 0.80527 0.0
C621 C 0.48168 0.83169 0.50837 0.0
C622 C 0.51291 0.87571 0.50393 0.0
C623 C 0.49541 0.80158 0.51331 0.0
C624 C 0.54153 0.81641 0.51436 0.0
C625 C 0.57317 0.8603 0.50907 0.0
C626 C 0.55838 0.88938 0.50367 0.0
C627 C 0.46059 0.75461 0.51835 0.0
C628 C 0.62259 0.87757 0.51036 0.0
C629 C 0.5638 0.75389 0.55005 0.0
C630 C 0.56871 0.72235 0.54006 0.0
C631 C 0.5582 0.78678 0.54173 0.0
C632 C 0.55607 0.78743 0.52296 0.0
C633 C 0.56322 0.7573 0.51273 0.0
C634 C 0.57012 0.72553 0.52141 0.0
C635 C 0.55184 0.81916 0.55311 0.0
C636 C 0.56074 0.75671 0.49268 0.0
H637 H 0.44648 0.8211 0.50841 0.0
H638 H 0.58252 0.92362 0.50035 0.0
H639 H 0.4677 0.73015 0.51179 0.0
H640 H 0.4614 0.75021 0.53293 0.0
H641 H 0.42645 0.74681 0.51465 0.0
H642 H 0.64247 0.90988 0.50335 0.0
H643 H 0.63251 0.88245 0.52456 0.0
H644 H 0.63112 0.85317 0.50475 0.0
H645 H 0.56203 0.75169 0.56442 0.0
H646 H 0.57515 0.70222 0.51352 0.0
H647 H 0.51659 0.81096 0.55242 0.0
H648 H 0.57282 0.8537 0.54812 0.0
H649 H 0.56029 0.8181 0.56727 0.0
H650 H 0.52569 0.74392 0.48858 0.0
H651 H 0.57252 0.73519 0.48664 0.0
H652 H 0.5808 0.79088 0.48723 0.0
C653 C 0.72954 0.60016 0.82785 0.0
C654 C 0.69645 0.56749 0.83882 0.0
C655 C 0.77412 0.61067 0.82916 0.0
C656 C 0.7857 0.58792 0.84169 0.0
C657 C 0.75259 0.55539 0.85294 0.0
C658 C 0.70843 0.54562 0.85137 0.0
C659 C 0.80865 0.64559 0.817 0.0
C660 C 0.76369 0.5304 0.86652 0.0
C661 C 0.88284 0.56848 0.83854 0.0
C662 C 0.90918 0.59486 0.85268 0.0
C663 C 0.8443 0.56907 0.83355 0.0
C664 C 0.83202 0.59668 0.84297 0.0
C665 C 0.8611 0.62693 0.85589 0.0
C666 C 0.89947 0.62565 0.86061 0.0
C667 C 0.81435 0.53661 0.81957 0.0
C668 C 0.84951 0.65738 0.86603 0.0
H669 H 0.72061 0.61731 0.81812 0.0
H670 H 0.68319 0.52045 0.85994 0.0
H671 H 0.83664 0.67153 0.82491 0.0
H672 H 0.82273 0.63009 0.80814 0.0
H673 H 0.79463 0.66192 0.80864 0.0
H674 H 0.73413 0.50666 0.87444 0.0
H675 H 0.77749 0.51148 0.85975 0.0
H676 H 0.78955 0.55425 0.87579 0.0
H677 H 0.89008 0.54449 0.8324 0.0
H678 H 0.92027 0.64662 0.87135 0.0
H679 H 0.80105 0.55249 0.81062 0.0
H680 H 0.78552 0.50805 0.82616 0.0
H681 H 0.83203 0.5235 0.81142 0.0
H682 H 0.83571 0.67269 0.85702 0.0
H683 H 0.87893 0.68432 0.87302 0.0
H684 H 0.82358 0.63767 0.87611 0.0
C685 C 0.18374 0.66841 0.14573 0.0
C686 C 0.1423 0.65815 0.15294 0.0
C687 C 0.22204 0.70952 0.14929 0.0
C688 C 0.21861 0.7409 0.16026 0.0
C689 C 0.17624 0.73242 0.16608 0.0
C690 C 0.13857 0.6911 0.16236 0.0
C691 C 0.2666 0.7176 0.14266 0.0
C692 C 0.17111 0.76525 0.17765 0.0
C693 C 0.31073 0.80672 0.19316 0.0
C694 C 0.33174 0.84952 0.18575 0.0
C695 C 0.27465 0.77101 0.18469 0.0
C696 C 0.25921 0.77821 0.16833 0.0
C697 C 0.28114 0.82104 0.16044 0.0
C698 C 0.31734 0.85635 0.16928 0.0
C699 C 0.2524 0.72576 0.19351 0.0
C700 C 0.26557 0.82981 0.143 0.0
H701 H 0.18689 0.64336 0.13825 0.0
H702 H 0.10653 0.68379 0.1677 0.0
H703 H 0.28741 0.75233 0.13785 0.0
H704 H 0.28472 0.71276 0.15376 0.0
H705 H 0.2629 0.69432 0.13174 0.0
H706 H 0.13581 0.7569 0.17872 0.0
H707 H 0.18349 0.76504 0.19122 0.0
H708 H 0.19122 0.79957 0.17236 0.0
H709 H 0.32247 0.8012 0.20571 0.0
H710 H 0.33358 0.88949 0.16355 0.0
H711 H 0.25177 0.70045 0.18428 0.0
H712 H 0.21734 0.71543 0.19683 0.0
H713 H 0.26957 0.72554 0.20592 0.0
H714 H 0.26155 0.80459 0.13295 0.0
H715 H 0.28905 0.86355 0.13772 0.0
H716 H 0.23249 0.82691 0.14486 0.0
C717 C 0.40706 0.13183 0.4954 0.0
C718 C 0.44041 0.12939 0.505 0.0
C719 C 0.40022 0.16825 0.49755 0.0
C720 C 0.42732 0.20273 0.50957 0.0
C721 C 0.46106 0.20045 0.51921 0.0
C722 C 0.46717 0.16392 0.51679 0.0
C723 C 0.36404 0.16981 0.48706 0.0
C724 C 0.49078 0.23658 0.53218 0.0
C725 C 0.45288 0.32167 0.50949 0.0
C726 C 0.4308 0.32236 0.52504 0.0
C727 C 0.44829 0.28163 0.50304 0.0
C728 C 0.42111 0.24158 0.51243 0.0
C729 C 0.39509 0.24148 0.52699 0.0
C730 C 0.40029 0.28199 0.53314 0.0
C731 C 0.47632 0.28309 0.48737 0.0
C732 C 0.36535 0.19941 0.53725 0.0
H733 H 0.38626 0.1053 0.48625 0.0
H734 H 0.49305 0.16248 0.52428 0.0
H735 H 0.33944 0.17072 0.49627 0.0
H736 H 0.3785 0.20071 0.47899 0.0
H737 H 0.34627 0.14065 0.47806 0.0
H738 H 0.51551 0.22969 0.53857 0.0
H739 H 0.50905 0.2691 0.52523 0.0
H740 H 0.47028 0.23992 0.54277 0.0
H741 H 0.47656 0.35278 0.50317 0.0
H742 H 0.38248 0.28238 0.54496 0.0
H743 H 0.4573 0.254 0.4785 0.0
H744 H 0.50576 0.28172 0.49226 0.0
H745 H 0.48837 0.31413 0.47951 0.0
H746 H 0.34655 0.17084 0.52812 0.0
H747 H 0.34132 0.20317 0.54585 0.0
H748 H 0.3862 0.19129 0.54587 0.0
C749 C 0.35603 0.52003 0.83332 0.0
C750 C 0.36719 0.48717 0.82982 0.0
C751 C 0.31195 0.50845 0.83698 0.0
C752 C 0.2786 0.46286 0.8376 0.0
C753 C 0.28915 0.42972 0.83283 0.0
C754 C 0.33347 0.44237 0.8288 0.0
C755 C 0.30179 0.54487 0.84154 0.0
C756 C 0.25461 0.38079 0.83351 0.0
C757 C 0.19357 0.44366 0.87296 0.0
C758 C 0.15838 0.44116 0.86292 0.0
C759 C 0.23156 0.44756 0.86473 0.0
C760 C 0.23512 0.45024 0.84598 0.0
C761 C 0.19901 0.44553 0.83566 0.0
C762 C 0.1608 0.44056 0.84427 0.0
C763 C 0.26908 0.45163 0.87622 0.0
C764 C 0.20177 0.44848 0.81564 0.0
H765 H 0.38209 0.55475 0.83386 0.0
H766 H 0.34215 0.41692 0.82612 0.0
H767 H 0.27118 0.53921 0.83463 0.0
H768 H 0.29573 0.54452 0.85605 0.0
H769 H 0.32964 0.57842 0.83789 0.0
H770 H 0.26592 0.36006 0.82641 0.0
H771 H 0.24797 0.36985 0.84759 0.0
H772 H 0.22269 0.37449 0.82764 0.0
H773 H 0.19268 0.44493 0.88734 0.0
H774 H 0.13343 0.43762 0.83635 0.0
H775 H 0.29769 0.4862 0.87552 0.0
H776 H 0.2808 0.42904 0.87134 0.0
H777 H 0.25899 0.44362 0.89038 0.0
H778 H 0.22489 0.48352 0.81166 0.0
H779 H 0.16878 0.43755 0.8095 0.0
H780 H 0.2153 0.42793 0.81017 0.0
C781 C 0.90569 0.30967 0.18736 0.0
C782 C 0.89898 0.3321 0.17329 0.0
C783 C 0.86994 0.27109 0.19469 0.0
C784 C 0.82656 0.25493 0.18786 0.0
C785 C 0.82011 0.27557 0.17287 0.0
C786 C 0.85647 0.31381 0.1657 0.0
C787 C 0.87815 0.24946 0.2105 0.0
C788 C 0.77428 0.25934 0.16523 0.0
C789 C 0.72914 0.14331 0.20203 0.0
C790 C 0.70973 0.15653 0.21533 0.0
C791 C 0.76801 0.17482 0.19322 0.0
C792 C 0.78733 0.22045 0.19772 0.0
C793 C 0.76808 0.23381 0.21129 0.0
C794 C 0.72959 0.20163 0.21997 0.0
C795 C 0.78802 0.15945 0.17896 0.0
C796 C 0.78748 0.28225 0.21635 0.0
H797 H 0.93853 0.32325 0.19317 0.0
H798 H 0.85096 0.33068 0.15474 0.0
H799 H 0.86501 0.25694 0.2227 0.0
H800 H 0.86038 0.21269 0.20891 0.0
H801 H 0.9142 0.26166 0.21245 0.0
H802 H 0.77561 0.27576 0.15239 0.0
H803 H 0.7567 0.22276 0.16312 0.0
H804 H 0.75416 0.26645 0.17478 0.0
H805 H 0.71391 0.10833 0.19855 0.0
H806 H 0.71424 0.21195 0.23007 0.0
H807 H 0.82369 0.17183 0.18185 0.0
H808 H 0.7865 0.17353 0.16593 0.0
H809 H 0.77046 0.12254 0.17779 0.0
H810 H 0.8228 0.29662 0.22038 0.0
H811 H 0.76895 0.28689 0.22745 0.0
H812 H 0.78687 0.3015 0.20471 0.0
C813 C 0.95747 0.4551 0.08206 0.0
C814 C -2e-05 0.47303 0.08963 0.0
C815 C 0.95198 0.4538 0.06357 0.0
C816 C 0.98986 0.47041 0.05239 0.0
C817 C 0.03272 0.48732 0.0599 0.0
C818 C 0.0373 0.48864 0.07844 0.0
C819 C 0.9058 0.43591 0.05602 0.0
C820 C 0.07384 0.5049 0.04836 0.0
C821 C 0.97481 0.43842 0.00356 0.0
C822 C 0.97893 0.47691 0.99565 0.0
C823 C 0.97796 0.43564 0.02206 0.0
C824 C 0.98497 0.47205 0.03286 0.0
C825 C 0.98823 0.51059 0.02501 0.0
C826 C 0.98542 0.51265 0.00649 0.0
C827 C 0.97445 0.39406 0.03 0.0
C828 C -0.00453 0.55001 0.03614 0.0
H829 H 0.92845 0.4431 0.0906 0.0
H830 H 0.07022 0.50227 0.08418 0.0
H831 H 0.90394 0.46288 0.04888 0.0
H832 H 0.89847 0.40916 0.0462 0.0
H833 H 0.87961 0.42239 0.06648 0.0
H834 H 0.10439 0.5146 0.05624 0.0
H835 H 0.06976 0.47932 0.03847 0.0
H836 H 0.07859 0.53446 0.04084 0.0
H837 H 0.96919 0.41044 0.99529 0.0
H838 H 0.98942 0.5428 0.00048 0.0
H839 H 0.94697 0.37938 0.03989 0.0
H840 H 0.00567 0.40263 0.03715 0.0
H841 H 0.96837 0.36846 0.01977 0.0
H842 H 0.96905 0.53918 0.04643 0.0
H843 H -0.00458 0.57669 0.02802 0.0
H844 H 0.02784 0.56425 0.04317 0.0
C845 C 0.48497 0.98321 0.42149 0.0
C846 C 0.4537 0.98723 0.43202 0.0
C847 C 0.4819 0.98177 0.40289 0.0
C848 C 0.44659 0.98417 0.39463 0.0
C849 C 0.41451 0.9875 0.40515 0.0
C850 C 0.41849 0.9891 0.42373 0.0
C851 C 0.51686 0.97836 0.39208 0.0
C852 C 0.37626 0.98987 0.39677 0.0
C853 C 0.46627 0.02485 0.34697 0.0
C854 C 0.44466 0.98462 0.33748 0.0
C855 C 0.46636 0.02521 0.3656 0.0
C856 C 0.44406 0.98435 0.37495 0.0
C857 C 0.421 0.94369 0.36547 0.0
C858 C 0.42166 0.94431 0.34682 0.0
C859 C 0.49124 0.06925 0.37527 0.0
C860 C 0.39675 0.8995 0.37501 0.0
H861 H 0.51231 0.98178 0.42775 0.0
H862 H 0.39404 0.992 0.43175 0.0
H863 H 0.50083 0.94869 0.38327 0.0
H864 H 0.53473 0.00807 0.3834 0.0
H865 H 0.54166 0.97587 0.40056 0.0
H866 H 0.35331 0.99094 0.40685 0.0
H867 H 0.38932 0.02005 0.38832 0.0
H868 H 0.35697 0.96058 0.38801 0.0
H869 H 0.48348 0.05614 0.3398 0.0
H870 H 0.4053 0.91309 0.33955 0.0
H871 H 0.51881 0.07037 0.38311 0.0
H872 H 0.46871 0.07283 0.38478 0.0
H873 H 0.50546 0.09811 0.36604 0.0
H874 H 0.42099 0.8938 0.38246 0.0
H875 H 0.37811 0.87116 0.36572 0.0
H876 H 0.373 0.89979 0.38486 0.0
C877 C 0.51732 0.53211 0.7535 0.0
C878 C 0.54238 0.52055 0.76444 0.0
C879 C 0.51993 0.53004 0.73494 0.0
C880 C 0.54726 0.51477 0.7273 0.0
C881 C 0.57244 0.5028 0.73841 0.0
C882 C 0.57014 0.50644 0.75693 0.0
C883 C 0.49342 0.5441 0.72352 0.0
C884 C 0.60099 0.48526 0.73077 0.0
C885 C 0.51584 0.46827 0.68055 0.0
C886 C 0.54783 0.50362 0.67021 0.0
C887 C 0.51621 0.47093 0.69917 0.0
C888 C 0.54858 0.51037 0.70768 0.0
C889 C 0.5812 0.54604 0.69741 0.0
C890 C 0.58082 0.542 0.67883 0.0
C891 C 0.48137 0.43181 0.7097 0.0
C892 C 0.61584 0.58891 0.70602 0.0
H893 H 0.49602 0.54315 0.75949 0.0
H894 H 0.58923 0.49732 0.76557 0.0
H895 H 0.51582 0.57013 0.71395 0.0
H896 H 0.46852 0.51529 0.71563 0.0
H897 H 0.47565 0.55734 0.73153 0.0
H898 H 0.61853 0.47749 0.74125 0.0
H899 H 0.57995 0.45453 0.72297 0.0
H900 H 0.62616 0.51003 0.72153 0.0
H901 H 0.48965 0.43877 0.67413 0.0
H902 H 0.60629 0.56917 0.67107 0.0
H903 H 0.45898 0.44132 0.71654 0.0
H904 H 0.49749 0.42217 0.72012 0.0
H905 H 0.46079 0.40232 0.70117 0.0
H906 H 0.59919 0.60422 0.71346 0.0
H907 H 0.63906 0.61343 0.69616 0.0
H908 H 0.63554 0.58203 0.71577 0.0
C909 C 0.49309 0.0407 0.57829 0.0
C910 C 0.47326 7e-05 0.56903 0.0
C911 C 0.48906 0.04178 0.59681 0.0
C912 C 0.46485 0.00127 0.60625 0.0
C913 C 0.44561 0.96014 0.59706 0.0
C914 C 0.44999 0.96003 0.57855 0.0
C915 C 0.51002 0.08624 0.60624 0.0
C916 C 0.41989 0.91626 0.60676 0.0
C917 C 0.48431 -0.00107 0.65559 0.0
C918 C 0.44697 -0.00112 0.66284 0.0
C919 C 0.49082 0.00022 0.63718 0.0
C920 C 0.45934 0.00176 0.62577 0.0
C921 C 0.42198 0.00254 0.63299 0.0
C922 C 0.41622 0.00107 0.65149 0.0
C923 C 0.53108 -0.00059 0.62994 0.0
C924 C 0.38779 0.00422 0.62116 0.0
H925 H 0.51104 0.0718 0.57104 0.0
H926 H 0.43472 0.92847 0.57152 0.0
H927 H 0.48384 0.09033 0.61302 0.0
H928 H 0.53329 0.08767 0.61664 0.0
H929 H 0.52857 0.11467 0.59699 0.0
H930 H 0.40777 0.88718 0.59767 0.0
H931 H 0.4412 0.91356 0.61707 0.0
H932 H 0.39079 0.91459 0.61367 0.0
H933 H 0.50863 -0.00187 0.66436 0.0
H934 H 0.38719 0.00073 0.65706 0.0
H935 H 0.55102 0.02898 0.6214 0.0
H936 H 0.52023 0.96944 0.62149 0.0
H937 H 0.55284 -0.00094 0.64066 0.0
H938 H 0.40422 0.0335 0.6122 0.0
H939 H 0.3615 0.00621 0.6289 0.0
H940 H 0.3717 0.97404 0.61263 0.0
C941 C 0.48264 0.53185 0.90876 0.0
C942 C 0.5123 0.52001 0.90119 0.0
C943 C 0.47461 0.52845 0.92712 0.0
C944 C 0.49713 0.5133 0.93819 0.0
C945 C 0.52721 0.50142 0.93067 0.0
C946 C 0.53427 0.50471 0.91223 0.0
C947 C 0.44196 0.54096 0.93468 0.0
C948 C 0.55213 0.48551 0.94212 0.0
C949 C 0.51161 0.54414 0.98703 0.0
C950 C 0.47984 0.50399 0.99495 0.0
C951 C 0.51714 0.54781 0.96854 0.0
C952 C 0.48989 0.51056 0.9577 0.0
C953 C 0.4567 0.47041 0.96554 0.0
C954 C 0.45217 0.46754 0.98411 0.0
C955 C 0.55288 0.59119 0.96064 0.0
C956 C 0.4268 0.43013 0.95435 0.0
H957 H 0.46525 0.54338 0.9003 0.0
H958 H 0.55729 0.49559 0.90649 0.0
H959 H 0.41508 0.51227 0.94201 0.0
H960 H 0.45905 0.56868 0.94434 0.0
H961 H 0.42657 0.55137 0.92421 0.0
H962 H 0.5743 0.47752 0.93419 0.0
H963 H 0.57264 0.5115 0.95203 0.0
H964 H 0.5282 0.45531 0.94961 0.0
H965 H 0.53256 0.57266 0.99534 0.0
H966 H 0.42789 0.43628 0.99015 0.0
H967 H 0.5381 0.60372 0.95078 0.0
H968 H 0.57772 0.58565 0.95348 0.0
H969 H 0.57051 0.61733 0.9709 0.0
H970 H 0.41007 0.43919 0.94399 0.0
H971 H 0.40092 0.40235 0.96242 0.0
H972 H 0.44706 0.41812 0.9474 0.0
C973 C 0.06101 0.52337 0.23556 0.0
C974 C 0.02673 0.5216 0.22522 0.0
C975 C 0.06114 0.52848 0.25407 0.0
C976 C 0.02512 0.52986 0.26235 0.0
C977 C 0.99036 0.52793 0.25189 0.0
C978 C 0.99207 0.52471 0.23336 0.0
C979 C 0.09959 0.53213 0.26476 0.0
C980 C 0.95063 0.5277 0.2603 0.0
C981 C 0.0017 0.49333 0.31049 0.0
C982 C 0.01642 0.53403 0.31939 0.0
C983 C 0.00377 0.4915 0.29192 0.0
C984 C 0.02283 0.5315 0.28201 0.0
C985 C 0.03899 0.57281 0.29084 0.0
C986 C 0.03475 0.57351 0.30937 0.0
C987 C 0.9851 0.44666 0.28291 0.0
C988 C 0.06071 0.61626 0.28071 0.0
H989 H 0.08793 0.52127 0.22914 0.0
H990 H 0.9654 0.52289 0.22526 0.0
H991 H 0.11355 0.56212 0.2734 0.0
H992 H 0.08778 0.50275 0.27358 0.0
H993 H 0.12666 0.53419 0.25615 0.0
H994 H 0.92642 0.52596 0.25025 0.0
H995 H 0.93329 0.49866 0.26934 0.0
H996 H 0.96165 0.55813 0.26845 0.0
H997 H 0.98863 0.46267 0.31799 0.0
H998 H 0.04549 0.60511 0.31594 0.0
H999 H 0.01198 0.44463 0.27571 0.0
H1000 H 0.9598 0.44246 0.27292 0.0
H1001 H 0.96939 0.41856 0.29249 0.0
H1002 H 0.0881 0.61865 0.27224 0.0
H1003 H 0.07449 0.64568 0.28969 0.0
H1004 H 0.0361 0.61759 0.27176 0.0
loop_
_geom_bond_atom_site_label_1
_geom_bond_atom_site_label_2
_geom_bond_distance
_geom_bond_site_symmetry_2
_ccdc_geom_bond_type
O0 Zn1 1.953 . S
O0 C16 1.225 1_655 S
Zn1 O0 1.953 . S
Zn1 O2 1.949 1_655 S
Zn1 O8 1.919 . S
Zn1 O13 1.924 1_655 S
O2 Zn1 1.949 1_455 S
O2 Zn3 1.923 1_455 S
O2 Zn4 1.950 . S
O2 Zn5 1.945 . S
Zn3 O2 1.923 1_655 S
Zn3 O6 1.933 . S
Zn3 O9 1.941 . S
Zn3 O10 1.965 . S
Zn4 O2 1.950 . S
Zn4 O11 1.938 1_455 S
Zn4 O12 1.906 . S
Zn4 O22 1.953 . S
Zn5 O2 1.945 . S
Zn5 O7 1.932 . S
Zn5 O14 1.977 . S
Zn5 O15 1.910 . S
O6 Zn3 1.933 . S
O6 C17 1.226 1_655 S
O7 Zn5 1.932 . S
O7 C17 1.307 . S
O8 Zn1 1.919 . S
O8 C19 1.253 . S
O9 Zn3 1.941 . S
O9 C19 1.283 . S
O10 Zn3 1.965 . S
O10 C18 1.303 . S
O11 Zn4 1.938 1_655 S
O11 C18 1.247 . S
O12 Zn4 1.906 . S
O12 C20 1.304 . S
O13 Zn1 1.924 1_455 S
O13 C21 1.311 . S
O14 Zn5 1.977 . S
O14 C20 1.272 . S
O15 Zn5 1.910 . S
O15 C21 1.231 . S
C16 O0 1.225 1_455 S
C16 O22 1.298 . S
C17 O6 1.226 1_455 S
C17 O7 1.307 . S
C18 O10 1.303 . S
C18 O11 1.247 . S
C19 O8 1.253 . S
C19 O9 1.283 . S
C20 O12 1.304 . S
C20 O14 1.272 . S
C21 O13 1.311 . S
C21 O15 1.231 . S
O22 Zn4 1.953 . S
O22 C16 1.298 . S
O23 Zn24 1.953 . S
O23 C39 1.225 . S
Zn24 O23 1.953 . S
Zn24 O25 1.949 . S
Zn24 O31 1.919 . S
Zn24 O36 1.924 1_545 S
O25 Zn24 1.949 . S
O25 Zn26 1.923 . S
O25 Zn27 1.950 1_545 S
O25 Zn28 1.945 1_545 S
Zn26 O25 1.923 . S
Zn26 O29 1.933 . S
Zn26 O32 1.941 . S
Zn26 O33 1.965 . S
Zn27 O25 1.950 1_565 S
Zn27 O34 1.938 1_565 S
Zn27 O35 1.906 . S
Zn27 O45 1.953 . S
Zn28 O25 1.945 1_565 S
Zn28 O30 1.932 . S
Zn28 O37 1.977 . S
Zn28 O38 1.910 . S
O29 Zn26 1.933 . S
O29 C40 1.226 . S
O30 Zn28 1.932 . S
O30 C40 1.307 1_565 S
O31 Zn24 1.919 . S
O31 C42 1.253 . S
O32 Zn26 1.941 . S
O32 C42 1.283 . S
O33 Zn26 1.965 . S
O33 C41 1.303 . S
O34 Zn27 1.938 1_545 S
O34 C41 1.247 . S
O35 Zn27 1.906 . S
O35 C43 1.304 . S
O36 Zn24 1.924 1_565 S
O36 C44 1.311 . S
O37 Zn28 1.977 . S
O37 C43 1.272 . S
O38 Zn28 1.910 . S
O38 C44 1.231 . S
C39 O23 1.225 . S
C39 O45 1.298 1_545 S
C40 O29 1.226 . S
C40 O30 1.307 1_545 S
C41 O33 1.303 . S
C41 O34 1.247 . S
C42 O31 1.253 . S
C42 O32 1.283 . S
C43 O35 1.304 . S
C43 O37 1.272 . S
C44 O36 1.311 . S
C44 O38 1.231 . S
O45 Zn27 1.953 . S
O45 C39 1.298 1_565 S
O46 Zn47 1.953 . S
O46 C62 1.225 . S
Zn47 O46 1.953 . S
Zn47 O48 1.949 . S
Zn47 O54 1.919 . S
Zn47 O59 1.924 . S
O48 Zn47 1.949 . S
O48 Zn49 1.923 . S
O48 Zn50 1.950 . S
O48 Zn51 1.945 . S
Zn49 O48 1.923 . S
Zn49 O52 1.933 . S
Zn49 O55 1.941 . S
Zn49 O56 1.965 . S
Zn50 O48 1.950 . S
Zn50 O57 1.938 . S
Zn50 O58 1.906 . S
Zn50 O68 1.953 . S
Zn51 O48 1.945 . S
Zn51 O53 1.932 . S
Zn51 O60 1.977 . S
Zn51 O61 1.910 . S
O52 Zn49 1.933 . S
O52 C63 1.226 . S
O53 Zn51 1.932 . S
O53 C63 1.307 . S
O54 Zn47 1.919 . S
O54 C65 1.253 . S
O55 Zn49 1.941 . S
O55 C65 1.283 . S
O56 Zn49 1.965 . S
O56 C64 1.303 . S
O57 Zn50 1.938 . S
O57 C64 1.247 . S
O58 Zn50 1.906 . S
O58 C66 1.304 . S
O59 Zn47 1.924 . S
O59 C67 1.311 . S
O60 Zn51 1.977 . S
O60 C66 1.272 . S
O61 Zn51 1.910 . S
O61 C67 1.231 . S
C62 O46 1.225 . S
C62 O68 1.298 . S
C63 O52 1.226 . S
C63 O53 1.307 . S
C64 O56 1.303 . S
C64 O57 1.247 . S
C65 O54 1.253 . S
C65 O55 1.283 . S
C66 O58 1.304 . S
C66 O60 1.272 . S
C67 O59 1.311 . S
C67 O61 1.231 . S
O68 Zn50 1.953 . S
O68 C62 1.298 . S
C69 C70 1.391 . S
C69 C73 1.391 . S
C69 H111 0.948 . S
C70 C69 1.391 . S
C70 C71 1.391 . S
C71 C70 1.391 . S
C71 H127 0.947 . S
C71 C128 1.392 . S
C72 C73 1.391 . S
C72 C76 1.397 . S
C72 C128 1.419 . S
C73 C69 1.391 . S
C73 C72 1.391 . S
C73 C74 1.399 . S
C74 C73 1.399 . S
C74 C77 1.396 . S
C74 C86 1.453 . S
C74 C87 1.684 . S
H75 C99 0.948 . S
C76 C72 1.397 . S
C76 C77 1.394 . S
C76 C95 1.723 . S
C77 C74 1.396 . S
C77 C76 1.394 . S
C77 C107 1.723 1_545 S
H78 C101 0.947 . S
H79 C102 0.948 . S
H80 C108 0.982 . S
H81 C109 0.979 . S
H82 C109 0.980 . S
H83 C109 0.983 . S
H84 C108 0.979 . S
H85 C108 0.977 . S
C86 C74 1.453 . S
C86 H115 0.982 . S
C86 H116 0.979 . S
C86 H117 0.977 1_545 S
C87 C74 1.684 . S
C87 H112 0.979 . S
C87 H113 0.980 . S
C87 H114 0.983 . S
C88 C89 1.391 . S
C88 C93 1.391 . S
C88 H118 0.948 . S
C89 C88 1.391 . S
C89 C90 1.391 1_545 S
C90 C89 1.391 1_565 S
C90 C91 1.392 . S
C90 H119 0.947 . S
C91 C90 1.392 . S
C91 C92 1.419 . S
C91 H120 0.948 . S
C92 C91 1.419 . S
C92 C93 1.391 1_565 S
C92 C96 1.397 1_565 S
C93 C88 1.391 . S
C93 C92 1.391 1_545 S
C93 C94 1.399 . S
C94 C93 1.399 . S
C94 C95 1.396 . S
C94 C97 1.453 . S
C94 C98 1.684 . S
C95 C76 1.723 . S
C95 C94 1.396 . S
C95 C96 1.394 . S
C96 C92 1.397 1_545 S
C96 C95 1.394 . S
C96 C106 1.723 1_545 S
C97 C94 1.453 . S
C97 H121 0.982 . S
C97 H122 0.979 . S
C97 H123 0.977 . S
C98 C94 1.684 . S
C98 H124 0.979 . S
C98 H125 0.980 . S
C98 H126 0.983 . S
C99 H75 0.948 . S
C99 C100 1.391 . S
C99 C104 1.391 . S
C100 C99 1.391 . S
C100 C101 1.391 . S
C101 H78 0.947 . S
C101 C100 1.391 . S
C101 C102 1.392 . S
C102 H79 0.948 . S
C102 C101 1.392 . S
C102 C103 1.419 . S
C103 C102 1.419 . S
C103 C104 1.391 . S
C103 C107 1.397 . S
C104 C99 1.391 . S
C104 C103 1.391 . S
C104 C105 1.399 . S
C105 C104 1.399 . S
C105 C106 1.396 . S
C105 C108 1.453 . S
C105 C109 1.684 . S
C106 C96 1.723 1_565 S
C106 C105 1.396 . S
C106 C107 1.394 . S
C107 C77 1.723 1_565 S
C107 C103 1.397 . S
C107 C106 1.394 . S
C108 H80 0.982 . S
C108 H84 0.979 . S
C108 H85 0.977 . S
C108 C105 1.453 . S
C109 H81 0.979 . S
C109 H82 0.980 . S
C109 H83 0.983 . S
C109 C105 1.684 . S
H110 C128 0.948 . S
H111 C69 0.948 . S
H112 C87 0.979 . S
H113 C87 0.980 . S
H114 C87 0.983 . S
H115 C86 0.982 . S
H116 C86 0.979 . S
H117 C86 0.977 1_565 S
H118 C88 0.948 . S
H119 C90 0.947 . S
H120 C91 0.948 . S
H121 C97 0.982 . S
H122 C97 0.979 . S
H123 C97 0.977 . S
H124 C98 0.979 . S
H125 C98 0.980 . S
H126 C98 0.983 . S
H127 C71 0.947 . S
C128 C71 1.392 . S
C128 C72 1.419 . S
C128 H110 0.948 . S
C129 C130 1.391 . S
C129 C133 1.391 . S
C129 H171 0.948 . S
C130 C129 1.391 . S
C130 C131 1.391 . S
C131 C130 1.391 . S
C131 H187 0.947 . S
C131 C188 1.392 . S
C132 C133 1.391 . S
C132 C136 1.397 . S
C132 C188 1.419 . S
C133 C129 1.391 . S
C133 C132 1.391 . S
C133 C134 1.399 . S
C134 C133 1.399 . S
C134 C137 1.396 . S
C134 C146 1.453 . S
C134 C147 1.684 . S
H135 C159 0.948 . S
C136 C132 1.397 . S
C136 C137 1.394 . S
C136 C155 1.723 . S
C137 C134 1.396 . S
C137 C136 1.394 . S
C137 C167 1.723 . S
H138 C161 0.947 . S
H139 C162 0.948 . S
H140 C168 0.982 . S
H141 C169 0.979 . S
H142 C169 0.980 . S
H143 C169 0.983 . S
H144 C168 0.979 . S
H145 C168 0.977 . S
C146 C134 1.453 . S
C146 H175 0.982 . S
C146 H176 0.979 . S
C146 H177 0.977 . S
C147 C134 1.684 . S
C147 H172 0.979 . S
C147 H173 0.980 . S
C147 H174 0.983 . S
C148 C149 1.391 . S
C148 C153 1.391 . S
C148 H178 0.948 . S
C149 C148 1.391 . S
C149 C150 1.391 . S
C150 C149 1.391 . S
C150 C151 1.392 . S
C150 H179 0.947 . S
C151 C150 1.392 . S
C151 C152 1.419 . S
C151 H180 0.948 . S
C152 C151 1.419 . S
C152 C153 1.391 . S
C152 C156 1.397 . S
C153 C148 1.391 . S
C153 C152 1.391 . S
C153 C154 1.399 . S
C154 C153 1.399 . S
C154 C155 1.396 . S
C154 C157 1.453 . S
C154 C158 1.684 . S
C155 C136 1.723 . S
C155 C154 1.396 . S
C155 C156 1.394 . S
C156 C152 1.397 . S
C156 C155 1.394 . S
C156 C166 1.723 . S
C157 C154 1.453 . S
C157 H181 0.982 . S
C157 H182 0.979 . S
C157 H183 0.977 . S
C158 C154 1.684 . S
C158 H184 0.979 . S
C158 H185 0.980 . S
C158 H186 0.983 . S
C159 H135 0.948 . S
C159 C160 1.391 . S
C159 C164 1.391 . S
C160 C159 1.391 . S
C160 C161 1.391 . S
C161 H138 0.947 . S
C161 C160 1.391 . S
C161 C162 1.392 . S
C162 H139 0.948 . S
C162 C161 1.392 . S
C162 C163 1.419 . S
C163 C162 1.419 . S
C163 C164 1.391 . S
C163 C167 1.397 . S
C164 C159 1.391 . S
C164 C163 1.391 . S
C164 C165 1.399 . S
C165 C164 1.399 . S
C165 C166 1.396 . S
C165 C168 1.453 . S
C165 C169 1.684 . S
C166 C156 1.723 . S
C166 C165 1.396 . S
C166 C167 1.394 . S
C167 C137 1.723 . S
C167 C163 1.397 . S
C167 C166 1.394 . S
C168 H140 0.982 . S
C168 H144 0.979 . S
C168 H145 0.977 . S
C168 C165 1.453 . S
C169 H141 0.979 . S
C169 H142 0.980 . S
C169 H143 0.983 . S
C169 C165 1.684 . S
H170 C188 0.948 . S
H171 C129 0.948 . S
H172 C147 0.979 . S
H173 C147 0.980 . S
H174 C147 0.983 . S
H175 C146 0.982 . S
H176 C146 0.979 . S
H177 C146 0.977 . S
H178 C148 0.948 . S
H179 C150 0.947 . S
H180 C151 0.948 . S
H181 C157 0.982 . S
H182 C157 0.979 . S
H183 C157 0.977 . S
H184 C158 0.979 . S
H185 C158 0.980 . S
H186 C158 0.983 . S
H187 C131 0.947 . S
C188 C131 1.392 . S
C188 C132 1.419 . S
C188 H170 0.948 . S
C189 C190 1.391 . S
C189 C193 1.391 . S
C189 H231 0.948 . S
C190 C189 1.391 . S
C190 C191 1.391 . S
C191 C190 1.391 . S
C191 H247 0.947 . S
C191 C248 1.392 . S
C192 C193 1.391 . S
C192 C196 1.397 . S
C192 C248 1.419 . S
C193 C189 1.391 . S
C193 C192 1.391 . S
C193 C194 1.399 . S
C194 C193 1.399 . S
C194 C197 1.396 . S
C194 C206 1.453 . S
C194 C207 1.684 . S
H195 C219 0.948 . S
C196 C192 1.397 . S
C196 C197 1.394 . S
C196 C215 1.723 . S
C197 C194 1.396 . S
C197 C196 1.394 . S
C197 C227 1.723 1_455 S
H198 C221 0.947 . S
H199 C222 0.948 . S
H200 C228 0.982 . S
H201 C229 0.979 . S
H202 C229 0.980 . S
H203 C229 0.983 . S
H204 C228 0.979 . S
H205 C228 0.977 . S
C206 C194 1.453 . S
C206 H235 0.982 . S
C206 H236 0.979 . S
C206 H237 0.977 1_455 S
C207 C194 1.684 . S
C207 H232 0.979 . S
C207 H233 0.980 . S
C207 H234 0.983 . S
C208 C209 1.391 . S
C208 C213 1.391 . S
C208 H238 0.948 . S
C209 C208 1.391 . S
C209 C210 1.391 1_455 S
C210 C209 1.391 1_655 S
C210 C211 1.392 . S
C210 H239 0.947 . S
C211 C210 1.392 . S
C211 C212 1.419 1_655 S
C211 H240 0.948 . S
C212 C211 1.419 1_455 S
C212 C213 1.391 . S
C212 C216 1.397 . S
C213 C208 1.391 . S
C213 C212 1.391 . S
C213 C214 1.399 . S
C214 C213 1.399 . S
C214 C215 1.396 . S
C214 C217 1.453 . S
C214 C218 1.684 . S
C215 C196 1.723 . S
C215 C214 1.396 . S
C215 C216 1.394 . S
C216 C212 1.397 . S
C216 C215 1.394 . S
C216 C226 1.723 1_455 S
C217 C214 1.453 . S
C217 H241 0.982 . S
C217 H242 0.979 . S
C217 H243 0.977 . S
C218 C214 1.684 . S
C218 H244 0.979 . S
C218 H245 0.980 . S
C218 H246 0.983 . S
C219 H195 0.948 . S
C219 C220 1.391 . S
C219 C224 1.391 . S
C220 C219 1.391 . S
C220 C221 1.391 . S
C221 H198 0.947 . S
C221 C220 1.391 . S
C221 C222 1.392 . S
C222 H199 0.948 . S
C222 C221 1.392 . S
C222 C223 1.419 . S
C223 C222 1.419 . S
C223 C224 1.391 . S
C223 C227 1.397 . S
C224 C219 1.391 . S
C224 C223 1.391 . S
C224 C225 1.399 . S
C225 C224 1.399 . S
C225 C226 1.396 . S
C225 C228 1.453 . S
C225 C229 1.684 . S
C226 C216 1.723 1_655 S
C226 C225 1.396 . S
C226 C227 1.394 . S
C227 C197 1.723 1_655 S
C227 C223 1.397 . S
C227 C226 1.394 . S
C228 H200 0.982 . S
C228 H204 0.979 . S
C228 H205 0.977 . S
C228 C225 1.453 . S
C229 H201 0.979 . S
C229 H202 0.980 . S
C229 H203 0.983 . S
C229 C225 1.684 . S
H230 C248 0.948 . S
H231 C189 0.948 . S
H232 C207 0.979 . S
H233 C207 0.980 . S
H234 C207 0.983 . S
H235 C206 0.982 . S
H236 C206 0.979 . S
H237 C206 0.977 1_655 S
H238 C208 0.948 . S
H239 C210 0.947 . S
H240 C211 0.948 . S
H241 C217 0.982 . S
H242 C217 0.979 . S
H243 C217 0.977 . S
H244 C218 0.979 . S
H245 C218 0.980 . S
H246 C218 0.983 . S
H247 C191 0.947 . S
C248 C191 1.392 . S
C248 C192 1.419 . S
C248 H230 0.948 . S
C249 C250 1.391 . S
C249 C253 1.391 . S
C249 H291 0.948 . S
C250 C249 1.391 . S
C250 C251 1.391 . S
C251 C250 1.391 . S
C251 H307 0.947 . S
C251 C308 1.392 . S
C252 C253 1.391 . S
C252 C256 1.397 . S
C252 C308 1.419 . S
C253 C249 1.391 . S
C253 C252 1.391 . S
C253 C254 1.399 . S
C254 C253 1.399 . S
C254 C257 1.396 . S
C254 C266 1.453 . S
C254 C267 1.684 . S
H255 C279 0.948 . S
C256 C252 1.397 . S
C256 C257 1.394 . S
C256 C275 1.723 . S
C257 C254 1.396 . S
C257 C256 1.394 . S
C257 C287 1.723 1_655 S
H258 C281 0.947 . S
H259 C282 0.948 . S
H260 C288 0.982 . S
H261 C289 0.979 . S
H262 C289 0.980 . S
H263 C289 0.983 . S
H264 C288 0.979 . S
H265 C288 0.977 . S
C266 C254 1.453 . S
C266 H295 0.982 1_655 S
C266 H296 0.979 . S
C266 H297 0.977 1_655 S
C267 C254 1.684 . S
C267 H292 0.979 . S
C267 H293 0.980 . S
C267 H294 0.983 . S
C268 C269 1.391 1_655 S
C268 C273 1.391 . S
C268 H298 0.948 . S
C269 C268 1.391 1_455 S
C269 C270 1.391 . S
C270 C269 1.391 . S
C270 C271 1.392 . S
C270 H299 0.947 . S
C271 C270 1.392 . S
C271 C272 1.419 . S
C271 H300 0.948 . S
C272 C271 1.419 . S
C272 C273 1.391 1_455 S
C272 C276 1.397 . S
C273 C268 1.391 . S
C273 C272 1.391 1_655 S
C273 C274 1.399 . S
C274 C273 1.399 . S
C274 C275 1.396 . S
C274 C277 1.453 . S
C274 C278 1.684 . S
C275 C256 1.723 . S
C275 C274 1.396 . S
C275 C276 1.394 1_655 S
C276 C272 1.397 . S
C276 C275 1.394 1_455 S
C276 C286 1.723 . S
C277 C274 1.453 . S
C277 H301 0.982 . S
C277 H302 0.979 . S
C277 H303 0.977 . S
C278 C274 1.684 . S
C278 H304 0.979 . S
C278 H305 0.980 . S
C278 H306 0.983 . S
C279 H255 0.948 . S
C279 C280 1.391 . S
C279 C284 1.391 . S
C280 C279 1.391 . S
C280 C281 1.391 . S
C281 H258 0.947 . S
C281 C280 1.391 . S
C281 C282 1.392 . S
C282 H259 0.948 . S
C282 C281 1.392 . S
C282 C283 1.419 . S
C283 C282 1.419 . S
C283 C284 1.391 . S
C283 C287 1.397 . S
C284 C279 1.391 . S
C284 C283 1.391 . S
C284 C285 1.399 . S
C285 C284 1.399 . S
C285 C286 1.396 . S
C285 C288 1.453 . S
C285 C289 1.684 . S
C286 C276 1.723 . S
C286 C285 1.396 . S
C286 C287 1.394 . S
C287 C257 1.723 1_455 S
C287 C283 1.397 . S
C287 C286 1.394 . S
C288 H260 0.982 . S
C288 H264 0.979 . S
C288 H265 0.977 . S
C288 C285 1.453 . S
C289 H261 0.979 . S
C289 H262 0.980 . S
C289 H263 0.983 . S
C289 C285 1.684 . S
H290 C308 0.948 . S
H291 C249 0.948 . S
H292 C267 0.979 . S
H293 C267 0.980 . S
H294 C267 0.983 . S
H295 C266 0.982 1_455 S
H296 C266 0.979 . S
H297 C266 0.977 1_455 S
H298 C268 0.948 . S
H299 C270 0.947 . S
H300 C271 0.948 . S
H301 C277 0.982 . S
H302 C277 0.979 . S
H303 C277 0.977 . S
H304 C278 0.979 . S
H305 C278 0.980 . S
H306 C278 0.983 . S
H307 C251 0.947 . S
C308 C251 1.392 . S
C308 C252 1.419 . S
C308 H290 0.948 . S
C309 C310 1.391 . S
C309 C313 1.391 . S
C309 H351 0.948 . S
C310 C309 1.391 . S
C310 C311 1.391 . S
C311 C310 1.391 . S
C311 H367 0.947 . S
C311 C368 1.392 . S
C312 C313 1.391 . S
C312 C316 1.397 . S
C312 C368 1.419 . S
C313 C309 1.391 . S
C313 C312 1.391 . S
C313 C314 1.399 . S
C314 C313 1.399 . S
C314 C317 1.396 . S
C314 C326 1.453 . S
C314 C327 1.684 . S
H315 C339 0.948 . S
C316 C312 1.397 . S
C316 C317 1.394 . S
C316 C335 1.723 . S
C317 C314 1.396 . S
C317 C316 1.394 . S
C317 C347 1.723 1_565 S
H318 C341 0.947 . S
H319 C342 0.948 . S
H320 C348 0.982 . S
H321 C349 0.979 . S
H322 C349 0.980 . S
H323 C349 0.983 . S
H324 C348 0.979 . S
H325 C348 0.977 . S
C326 C314 1.453 . S
C326 H355 0.982 1_565 S
C326 H356 0.979 . S
C326 H357 0.977 1_565 S
C327 C314 1.684 . S
C327 H352 0.979 . S
C327 H353 0.980 . S
C327 H354 0.983 . S
C328 C329 1.391 1_565 S
C328 C333 1.391 . S
C328 H358 0.948 . S
C329 C328 1.391 1_545 S
C329 C330 1.391 . S
C330 C329 1.391 . S
C330 C331 1.392 . S
C330 H359 0.947 . S
C331 C330 1.392 . S
C331 C332 1.419 . S
C331 H360 0.948 . S
C332 C331 1.419 . S
C332 C333 1.391 1_545 S
C332 C336 1.397 . S
C333 C328 1.391 . S
C333 C332 1.391 1_565 S
C333 C334 1.399 . S
C334 C333 1.399 . S
C334 C335 1.396 . S
C334 C337 1.453 . S
C334 C338 1.684 . S
C335 C316 1.723 . S
C335 C334 1.396 . S
C335 C336 1.394 1_565 S
C336 C332 1.397 . S
C336 C335 1.394 1_545 S
C336 C346 1.723 . S
C337 C334 1.453 . S
C337 H361 0.982 . S
C337 H362 0.979 . S
C337 H363 0.977 . S
C338 C334 1.684 . S
C338 H364 0.979 . S
C338 H365 0.980 . S
C338 H366 0.983 . S
C339 H315 0.948 . S
C339 C340 1.391 . S
C339 C344 1.391 . S
C340 C339 1.391 . S
C340 C341 1.391 . S
C341 H318 0.947 . S
C341 C340 1.391 . S
C341 C342 1.392 . S
C342 H319 0.948 . S
C342 C341 1.392 . S
C342 C343 1.419 . S
C343 C342 1.419 . S
C343 C344 1.391 . S
C343 C347 1.397 . S
C344 C339 1.391 . S
C344 C343 1.391 . S
C344 C345 1.399 . S
C345 C344 1.399 . S
C345 C346 1.396 . S
C345 C348 1.453 . S
C345 C349 1.684 . S
C346 C336 1.723 . S
C346 C345 1.396 . S
C346 C347 1.394 . S
C347 C317 1.723 1_545 S
C347 C343 1.397 . S
C347 C346 1.394 . S
C348 H320 0.982 . S
C348 H324 0.979 . S
C348 H325 0.977 . S
C348 C345 1.453 . S
C349 H321 0.979 . S
C349 H322 0.980 . S
C349 H323 0.983 . S
C349 C345 1.684 . S
H350 C368 0.948 . S
H351 C309 0.948 . S
H352 C327 0.979 . S
H353 C327 0.980 . S
H354 C327 0.983 . S
H355 C326 0.982 1_545 S
H356 C326 0.979 . S
H357 C326 0.977 1_545 S
H358 C328 0.948 . S
H359 C330 0.947 . S
H360 C331 0.948 . S
H361 C337 0.982 . S
H362 C337 0.979 . S
H363 C337 0.977 . S
H364 C338 0.979 . S
H365 C338 0.980 . S
H366 C338 0.983 . S
H367 C311 0.947 . S
C368 C311 1.392 . S
C368 C312 1.419 . S
C368 H350 0.948 . S
C369 C370 1.391 . S
C369 C373 1.391 . S
C369 H411 0.948 . S
C370 C369 1.391 . S
C370 C371 1.391 . S
C371 C370 1.391 . S
C371 H427 0.947 . S
C371 C428 1.392 . S
C372 C373 1.391 . S
C372 C376 1.397 . S
C372 C428 1.419 . S
C373 C369 1.391 . S
C373 C372 1.391 . S
C373 C374 1.399 . S
C374 C373 1.399 . S
C374 C377 1.396 . S
C374 C386 1.453 . S
C374 C387 1.684 . S
H375 C399 0.948 . S
C376 C372 1.397 . S
C376 C377 1.394 . S
C376 C395 1.723 . S
C377 C374 1.396 . S
C377 C376 1.394 . S
C377 C407 1.723 . S
H378 C401 0.947 . S
H379 C402 0.948 . S
H380 C408 0.982 . S
H381 C409 0.979 . S
H382 C409 0.980 . S
H383 C409 0.983 . S
H384 C408 0.979 . S
H385 C408 0.977 . S
C386 C374 1.453 . S
C386 H415 0.982 . S
C386 H416 0.979 . S
C386 H417 0.977 . S
C387 C374 1.684 . S
C387 H412 0.979 . S
C387 H413 0.980 . S
C387 H414 0.983 . S
C388 C389 1.391 . S
C388 C393 1.391 . S
C388 H418 0.948 . S
C389 C388 1.391 . S
C389 C390 1.391 . S
C390 C389 1.391 . S
C390 C391 1.392 . S
C390 H419 0.947 . S
C391 C390 1.392 . S
C391 C392 1.419 . S
C391 H420 0.948 . S
C392 C391 1.419 . S
C392 C393 1.391 . S
C392 C396 1.397 . S
C393 C388 1.391 . S
C393 C392 1.391 . S
C393 C394 1.399 . S
C394 C393 1.399 . S
C394 C395 1.396 . S
C394 C397 1.453 . S
C394 C398 1.684 . S
C395 C376 1.723 . S
C395 C394 1.396 . S
C395 C396 1.394 . S
C396 C392 1.397 . S
C396 C395 1.394 . S
C396 C406 1.723 . S
C397 C394 1.453 . S
C397 H421 0.982 . S
C397 H422 0.979 . S
C397 H423 0.977 . S
C398 C394 1.684 . S
C398 H424 0.979 . S
C398 H425 0.980 . S
C398 H426 0.983 . S
C399 H375 0.948 . S
C399 C400 1.391 . S
C399 C404 1.391 . S
C400 C399 1.391 . S
C400 C401 1.391 . S
C401 H378 0.947 . S
C401 C400 1.391 . S
C401 C402 1.392 . S
C402 H379 0.948 . S
C402 C401 1.392 . S
C402 C403 1.419 . S
C403 C402 1.419 . S
C403 C404 1.391 . S
C403 C407 1.397 . S
C404 C399 1.391 . S
C404 C403 1.391 . S
C404 C405 1.399 . S
C405 C404 1.399 . S
C405 C406 1.396 . S
C405 C408 1.453 . S
C405 C409 1.684 . S
C406 C396 1.723 . S
C406 C405 1.396 . S
C406 C407 1.394 . S
C407 C377 1.723 . S
C407 C403 1.397 . S
C407 C406 1.394 . S
C408 H380 0.982 . S
C408 H384 0.979 . S
C408 H385 0.977 . S
C408 C405 1.453 . S
C409 H381 0.979 . S
C409 H382 0.980 . S
C409 H383 0.983 . S
C409 C405 1.684 . S
H410 C428 0.948 . S
H411 C369 0.948 . S
H412 C387 0.979 . S
H413 C387 0.980 . S
H414 C387 0.983 . S
H415 C386 0.982 . S
H416 C386 0.979 . S
H417 C386 0.977 . S
H418 C388 0.948 . S
H419 C390 0.947 . S
H420 C391 0.948 . S
H421 C397 0.982 . S
H422 C397 0.979 . S
H423 C397 0.977 . S
H424 C398 0.979 . S
H425 C398 0.980 . S
H426 C398 0.983 . S
H427 C371 0.947 . S
C428 C371 1.392 . S
C428 C372 1.419 . S
C428 H410 0.948 . S
C429 C430 1.391 . S
C429 C431 1.394 . S
C429 H445 0.931 . S
C430 C429 1.391 . S
C430 C434 1.376 . S
C431 C429 1.394 . S
C431 C432 1.369 . S
C431 C435 1.531 . S
C432 C431 1.369 . S
C432 C433 1.410 . S
C432 C440 1.503 . S
C433 C432 1.410 . S
C433 C434 1.392 . S
C433 C436 1.511 . S
C434 C430 1.376 . S
C434 C433 1.392 . S
C434 H446 0.929 . S
C435 C431 1.531 . S
C435 H447 0.960 . S
C435 H448 0.962 . S
C435 H449 0.960 . S
C436 C433 1.511 . S
C436 H450 0.961 . S
C436 H451 0.961 . S
C436 H452 0.961 . S
C437 C438 1.370 . S
C437 C439 1.363 . S
C437 H453 0.931 . S
C438 C437 1.370 . S
C438 C442 1.408 . S
C439 C437 1.363 . S
C439 C440 1.370 . S
C439 C443 1.524 . S
C440 C432 1.503 . S
C440 C439 1.370 . S
C440 C441 1.403 . S
C441 C440 1.403 . S
C441 C442 1.404 . S
C441 C444 1.539 . S
C442 C438 1.408 . S
C442 C441 1.404 . S
C442 H454 0.930 . S
C443 C439 1.524 . S
C443 H455 0.956 . S
C443 H456 0.961 . S
C443 H457 0.961 . S
C444 C441 1.539 . S
C444 H458 0.958 . S
C444 H459 0.961 . S
C444 H460 0.960 . S
H445 C429 0.931 . S
H446 C434 0.929 . S
H447 C435 0.960 . S
H448 C435 0.962 . S
H449 C435 0.960 . S
H450 C436 0.961 . S
H451 C436 0.961 . S
H452 C436 0.961 . S
H453 C437 0.931 . S
H454 C442 0.930 . S
H455 C443 0.956 . S
H456 C443 0.961 . S
H457 C443 0.961 . S
H458 C444 0.958 . S
H459 C444 0.961 . S
H460 C444 0.960 . S
C461 C462 1.391 . S
C461 C463 1.394 . S
C461 H477 0.931 . S
C462 C461 1.391 . S
C462 C466 1.376 . S
C463 C461 1.394 . S
C463 C464 1.369 . S
C463 C467 1.531 . S
C464 C463 1.369 . S
C464 C465 1.410 . S
C464 C472 1.503 . S
C465 C464 1.410 . S
C465 C466 1.392 . S
C465 C468 1.511 . S
C466 C462 1.376 . S
C466 C465 1.392 . S
C466 H478 0.929 . S
C467 C463 1.531 . S
C467 H479 0.960 . S
C467 H480 0.962 . S
C467 H481 0.960 . S
C468 C465 1.511 . S
C468 H482 0.961 . S
C468 H483 0.961 . S
C468 H484 0.961 . S
C469 C470 1.370 . S
C469 C471 1.363 . S
C469 H485 0.931 . S
C470 C469 1.370 . S
C470 C474 1.408 . S
C471 C469 1.363 . S
C471 C472 1.370 . S
C471 C475 1.524 . S
C472 C464 1.503 . S
C472 C471 1.370 . S
C472 C473 1.403 . S
C473 C472 1.403 . S
C473 C474 1.404 . S
C473 C476 1.539 . S
C474 C470 1.408 . S
C474 C473 1.404 . S
C474 H486 0.930 . S
C475 C471 1.524 . S
C475 H487 0.956 . S
C475 H488 0.961 . S
C475 H489 0.961 . S
C476 C473 1.539 . S
C476 H490 0.958 . S
C476 H491 0.961 . S
C476 H492 0.960 . S
H477 C461 0.931 . S
H478 C466 0.929 . S
H479 C467 0.960 . S
H480 C467 0.962 . S
H481 C467 0.960 . S
H482 C468 0.961 . S
H483 C468 0.961 . S
H484 C468 0.961 . S
H485 C469 0.931 . S
H486 C474 0.930 . S
H487 C475 0.956 . S
H488 C475 0.961 . S
H489 C475 0.961 . S
H490 C476 0.958 . S
H491 C476 0.961 . S
H492 C476 0.960 . S
C493 C494 1.391 . S
C493 C495 1.394 . S
C493 H509 0.931 . S
C494 C493 1.391 . S
C494 C498 1.376 . S
C495 C493 1.394 . S
C495 C496 1.369 . S
C495 C499 1.531 . S
C496 C495 1.369 . S
C496 C497 1.410 . S
C496 C504 1.503 . S
C497 C496 1.410 . S
C497 C498 1.392 . S
C497 C500 1.511 . S
C498 C494 1.376 . S
C498 C497 1.392 . S
C498 H510 0.929 . S
C499 C495 1.531 . S
C499 H511 0.960 . S
C499 H512 0.962 . S
C499 H513 0.960 . S
C500 C497 1.511 . S
C500 H514 0.961 . S
C500 H515 0.961 . S
C500 H516 0.961 . S
C501 C502 1.370 . S
C501 C503 1.363 . S
C501 H517 0.931 . S
C502 C501 1.370 . S
C502 C506 1.408 . S
C503 C501 1.363 . S
C503 C504 1.370 . S
C503 C507 1.524 . S
C504 C496 1.503 . S
C504 C503 1.370 . S
C504 C505 1.403 . S
C505 C504 1.403 . S
C505 C506 1.404 . S
C505 C508 1.539 . S
C506 C502 1.408 . S
C506 C505 1.404 . S
C506 H518 0.930 . S
C507 C503 1.524 . S
C507 H519 0.956 . S
C507 H520 0.961 . S
C507 H521 0.961 . S
C508 C505 1.539 . S
C508 H522 0.958 . S
C508 H523 0.961 . S
C508 H524 0.960 . S
H509 C493 0.931 . S
H510 C498 0.929 . S
H511 C499 0.960 . S
H512 C499 0.962 . S
H513 C499 0.960 . S
H514 C500 0.961 . S
H515 C500 0.961 . S
H516 C500 0.961 . S
H517 C501 0.931 . S
H518 C506 0.930 . S
H519 C507 0.956 . S
H520 C507 0.961 . S
H521 C507 0.961 . S
H522 C508 0.958 . S
H523 C508 0.961 . S
H524 C508 0.960 . S
C525 C526 1.391 . S
C525 C527 1.394 . S
C525 H541 0.931 . S
C526 C525 1.391 . S
C526 C530 1.376 . S
C527 C525 1.394 . S
C527 C528 1.369 . S
C527 C531 1.531 . S
C528 C527 1.369 . S
C528 C529 1.410 . S
C528 C536 1.503 . S
C529 C528 1.410 . S
C529 C530 1.392 . S
C529 C532 1.511 . S
C530 C526 1.376 . S
C530 C529 1.392 . S
C530 H542 0.929 . S
C531 C527 1.531 . S
C531 H543 0.960 . S
C531 H544 0.962 . S
C531 H545 0.960 . S
C532 C529 1.511 . S
C532 H546 0.961 . S
C532 H547 0.961 . S
C532 H548 0.961 . S
C533 C534 1.370 . S
C533 C535 1.363 . S
C533 H549 0.931 . S
C534 C533 1.370 . S
C534 C538 1.408 . S
C535 C533 1.363 . S
C535 C536 1.370 . S
C535 C539 1.524 . S
C536 C528 1.503 . S
C536 C535 1.370 . S
C536 C537 1.403 . S
C537 C536 1.403 . S
C537 C538 1.404 . S
C537 C540 1.539 . S
C538 C534 1.408 . S
C538 C537 1.404 . S
C538 H550 0.930 . S
C539 C535 1.524 . S
C539 H551 0.956 . S
C539 H552 0.961 . S
C539 H553 0.961 . S
C540 C537 1.539 . S
C540 H554 0.958 . S
C540 H555 0.961 . S
C540 H556 0.960 . S
H541 C525 0.931 . S
H542 C530 0.929 . S
H543 C531 0.960 . S
H544 C531 0.962 . S
H545 C531 0.960 . S
H546 C532 0.961 . S
H547 C532 0.961 . S
H548 C532 0.961 . S
H549 C533 0.931 . S
H550 C538 0.930 . S
H551 C539 0.956 . S
H552 C539 0.961 . S
H553 C539 0.961 . S
H554 C540 0.958 . S
H555 C540 0.961 . S
H556 C540 0.960 . S
C557 C558 1.391 . S
C557 C559 1.394 . S
C557 H573 0.931 . S
C558 C557 1.391 . S
C558 C562 1.376 . S
C559 C557 1.394 . S
C559 C560 1.369 . S
C559 C563 1.531 . S
C560 C559 1.369 . S
C560 C561 1.410 . S
C560 C568 1.503 . S
C561 C560 1.410 . S
C561 C562 1.392 . S
C561 C564 1.511 . S
C562 C558 1.376 . S
C562 C561 1.392 . S
C562 H574 0.929 . S
C563 C559 1.531 . S
C563 H575 0.960 . S
C563 H576 0.962 . S
C563 H577 0.960 . S
C564 C561 1.511 . S
C564 H578 0.961 . S
C564 H579 0.961 . S
C564 H580 0.961 . S
C565 C566 1.370 . S
C565 C567 1.363 . S
C565 H581 0.931 . S
C566 C565 1.370 . S
C566 C570 1.408 . S
C567 C565 1.363 . S
C567 C568 1.370 . S
C567 C571 1.524 . S
C568 C560 1.503 . S
C568 C567 1.370 . S
C568 C569 1.403 . S
C569 C568 1.403 . S
C569 C570 1.404 . S
C569 C572 1.539 . S
C570 C566 1.408 . S
C570 C569 1.404 . S
C570 H582 0.930 . S
C571 C567 1.524 . S
C571 H583 0.956 . S
C571 H584 0.961 . S
C571 H585 0.961 . S
C572 C569 1.539 . S
C572 H586 0.958 . S
C572 H587 0.961 . S
C572 H588 0.960 . S
H573 C557 0.931 . S
H574 C562 0.929 . S
H575 C563 0.960 . S
H576 C563 0.962 . S
H577 C563 0.960 . S
H578 C564 0.961 . S
H579 C564 0.961 . S
H580 C564 0.961 . S
H581 C565 0.931 . S
H582 C570 0.930 . S
H583 C571 0.956 . S
H584 C571 0.961 . S
H585 C571 0.961 . S
H586 C572 0.958 . S
H587 C572 0.961 . S
H588 C572 0.960 . S
C589 C590 1.391 . S
C589 C591 1.394 . S
C589 H605 0.931 . S
C590 C589 1.391 . S
C590 C594 1.376 . S
C591 C589 1.394 . S
C591 C592 1.369 . S
C591 C595 1.531 . S
C592 C591 1.369 . S
C592 C593 1.410 . S
C592 C600 1.503 . S
C593 C592 1.410 . S
C593 C594 1.392 . S
C593 C596 1.511 . S
C594 C590 1.376 . S
C594 C593 1.392 . S
C594 H606 0.929 . S
C595 C591 1.531 . S
C595 H607 0.960 . S
C595 H608 0.962 . S
C595 H609 0.960 . S
C596 C593 1.511 . S
C596 H610 0.961 . S
C596 H611 0.961 . S
C596 H612 0.961 . S
C597 C598 1.370 . S
C597 C599 1.363 . S
C597 H613 0.931 . S
C598 C597 1.370 . S
C598 C602 1.408 . S
C599 C597 1.363 . S
C599 C600 1.370 . S
C599 C603 1.524 . S
C600 C592 1.503 . S
C600 C599 1.370 . S
C600 C601 1.403 . S
C601 C600 1.403 . S
C601 C602 1.404 . S
C601 C604 1.539 . S
C602 C598 1.408 . S
C602 C601 1.404 . S
C602 H614 0.930 . S
C603 C599 1.524 . S
C603 H615 0.956 . S
C603 H616 0.961 . S
C603 H617 0.961 . S
C604 C601 1.539 . S
C604 H618 0.958 . S
C604 H619 0.961 . S
C604 H620 0.960 . S
H605 C589 0.931 . S
H606 C594 0.929 . S
H607 C595 0.960 . S
H608 C595 0.962 . S
H609 C595 0.960 . S
H610 C596 0.961 . S
H611 C596 0.961 . S
H612 C596 0.961 . S
H613 C597 0.931 . S
H614 C602 0.930 . S
H615 C603 0.956 . S
H616 C603 0.961 . S
H617 C603 0.961 . S
H618 C604 0.958 . S
H619 C604 0.961 . S
H620 C604 0.960 . S
C621 C622 1.391 . S
C621 C623 1.394 . S
C621 H637 0.931 . S
C622 C621 1.391 . S
C622 C626 1.376 . S
C623 C621 1.394 . S
C623 C624 1.369 . S
C623 C627 1.531 . S
C624 C623 1.369 . S
C624 C625 1.410 . S
C624 C632 1.503 . S
C625 C624 1.410 . S
C625 C626 1.392 . S
C625 C628 1.511 . S
C626 C622 1.376 . S
C626 C625 1.392 . S
C626 H638 0.929 . S
C627 C623 1.531 . S
C627 H639 0.960 . S
C627 H640 0.962 . S
C627 H641 0.960 . S
C628 C625 1.511 . S
C628 H642 0.961 . S
C628 H643 0.961 . S
C628 H644 0.961 . S
C629 C630 1.370 . S
C629 C631 1.363 . S
C629 H645 0.931 . S
C630 C629 1.370 . S
C630 C634 1.408 . S
C631 C629 1.363 . S
C631 C632 1.370 . S
C631 C635 1.524 . S
C632 C624 1.503 . S
C632 C631 1.370 . S
C632 C633 1.403 . S
C633 C632 1.403 . S
C633 C634 1.404 . S
C633 C636 1.539 . S
C634 C630 1.408 . S
C634 C633 1.404 . S
C634 H646 0.930 . S
C635 C631 1.524 . S
C635 H647 0.956 . S
C635 H648 0.961 . S
C635 H649 0.961 . S
C636 C633 1.539 . S
C636 H650 0.958 . S
C636 H651 0.961 . S
C636 H652 0.960 . S
H637 C621 0.931 . S
H638 C626 0.929 . S
H639 C627 0.960 . S
H640 C627 0.962 . S
H641 C627 0.960 . S
H642 C628 0.961 . S
H643 C628 0.961 . S
H644 C628 0.961 . S
H645 C629 0.931 . S
H646 C634 0.930 . S
H647 C635 0.956 . S
H648 C635 0.961 . S
H649 C635 0.961 . S
H650 C636 0.958 . S
H651 C636 0.961 . S
H652 C636 0.960 . S
C653 C654 1.391 . S
C653 C655 1.394 . S
C653 H669 0.931 . S
C654 C653 1.391 . S
C654 C658 1.376 . S
C655 C653 1.394 . S
C655 C656 1.369 . S
C655 C659 1.531 . S
C656 C655 1.369 . S
C656 C657 1.410 . S
C656 C664 1.503 . S
C657 C656 1.410 . S
C657 C658 1.392 . S
C657 C660 1.511 . S
C658 C654 1.376 . S
C658 C657 1.392 . S
C658 H670 0.929 . S
C659 C655 1.531 . S
C659 H671 0.960 . S
C659 H672 0.962 . S
C659 H673 0.960 . S
C660 C657 1.511 . S
C660 H674 0.961 . S
C660 H675 0.961 . S
C660 H676 0.961 . S
C661 C662 1.370 . S
C661 C663 1.363 . S
C661 H677 0.931 . S
C662 C661 1.370 . S
C662 C666 1.408 . S
C663 C661 1.363 . S
C663 C664 1.370 . S
C663 C667 1.524 . S
C664 C656 1.503 . S
C664 C663 1.370 . S
C664 C665 1.403 . S
C665 C664 1.403 . S
C665 C666 1.404 . S
C665 C668 1.539 . S
C666 C662 1.408 . S
C666 C665 1.404 . S
C666 H678 0.930 . S
C667 C663 1.524 . S
C667 H679 0.956 . S
C667 H680 0.961 . S
C667 H681 0.961 . S
C668 C665 1.539 . S
C668 H682 0.958 . S
C668 H683 0.961 . S
C668 H684 0.960 . S
H669 C653 0.931 . S
H670 C658 0.929 . S
H671 C659 0.960 . S
H672 C659 0.962 . S
H673 C659 0.960 . S
H674 C660 0.961 . S
H675 C660 0.961 . S
H676 C660 0.961 . S
H677 C661 0.931 . S
H678 C666 0.930 . S
H679 C667 0.956 . S
H680 C667 0.961 . S
H681 C667 0.961 . S
H682 C668 0.958 . S
H683 C668 0.961 . S
H684 C668 0.960 . S
C685 C686 1.391 . S
C685 C687 1.394 . S
C685 H701 0.931 . S
C686 C685 1.391 . S
C686 C690 1.376 . S
C687 C685 1.394 . S
C687 C688 1.369 . S
C687 C691 1.531 . S
C688 C687 1.369 . S
C688 C689 1.410 . S
C688 C696 1.503 . S
C689 C688 1.410 . S
C689 C690 1.392 . S
C689 C692 1.511 . S
C690 C686 1.376 . S
C690 C689 1.392 . S
C690 H702 0.929 . S
C691 C687 1.531 . S
C691 H703 0.960 . S
C691 H704 0.962 . S
C691 H705 0.960 . S
C692 C689 1.511 . S
C692 H706 0.961 . S
C692 H707 0.961 . S
C692 H708 0.961 . S
C693 C694 1.370 . S
C693 C695 1.363 . S
C693 H709 0.931 . S
C694 C693 1.370 . S
C694 C698 1.408 . S
C695 C693 1.363 . S
C695 C696 1.370 . S
C695 C699 1.524 . S
C696 C688 1.503 . S
C696 C695 1.370 . S
C696 C697 1.403 . S
C697 C696 1.403 . S
C697 C698 1.404 . S
C697 C700 1.539 . S
C698 C694 1.408 . S
C698 C697 1.404 . S
C698 H710 0.930 . S
C699 C695 1.524 . S
C699 H711 0.956 . S
C699 H712 0.961 . S
C699 H713 0.961 . S
C700 C697 1.539 . S
C700 H714 0.958 . S
C700 H715 0.961 . S
C700 H716 0.960 . S
H701 C685 0.931 . S
H702 C690 0.929 . S
H703 C691 0.960 . S
H704 C691 0.962 . S
H705 C691 0.960 . S
H706 C692 0.961 . S
H707 C692 0.961 . S
H708 C692 0.961 . S
H709 C693 0.931 . S
H710 C698 0.930 . S
H711 C699 0.956 . S
H712 C699 0.961 . S
H713 C699 0.961 . S
H714 C700 0.958 . S
H715 C700 0.961 . S
H716 C700 0.960 . S
C717 C718 1.391 . S
C717 C719 1.394 . S
C717 H733 0.931 . S
C718 C717 1.391 . S
C718 C722 1.376 . S
C719 C717 1.394 . S
C719 C720 1.369 . S
C719 C723 1.531 . S
C720 C719 1.369 . S
C720 C721 1.410 . S
C720 C728 1.503 . S
C721 C720 1.410 . S
C721 C722 1.392 . S
C721 C724 1.511 . S
C722 C718 1.376 . S
C722 C721 1.392 . S
C722 H734 0.929 . S
C723 C719 1.531 . S
C723 H735 0.960 . S
C723 H736 0.962 . S
C723 H737 0.960 . S
C724 C721 1.511 . S
C724 H738 0.961 . S
C724 H739 0.961 . S
C724 H740 0.961 . S
C725 C726 1.370 . S
C725 C727 1.363 . S
C725 H741 0.931 . S
C726 C725 1.370 . S
C726 C730 1.408 . S
C727 C725 1.363 . S
C727 C728 1.370 . S
C727 C731 1.524 . S
C728 C720 1.503 . S
C728 C727 1.370 . S
C728 C729 1.403 . S
C729 C728 1.403 . S
C729 C730 1.404 . S
C729 C732 1.539 . S
C730 C726 1.408 . S
C730 C729 1.404 . S
C730 H742 0.930 . S
C731 C727 1.524 . S
C731 H743 0.956 . S
C731 H744 0.961 . S
C731 H745 0.961 . S
C732 C729 1.539 . S
C732 H746 0.958 . S
C732 H747 0.961 . S
C732 H748 0.960 . S
H733 C717 0.931 . S
H734 C722 0.929 . S
H735 C723 0.960 . S
H736 C723 0.962 . S
H737 C723 0.960 . S
H738 C724 0.961 . S
H739 C724 0.961 . S
H740 C724 0.961 . S
H741 C725 0.931 . S
H742 C730 0.930 . S
H743 C731 0.956 . S
H744 C731 0.961 . S
H745 C731 0.961 . S
H746 C732 0.958 . S
H747 C732 0.961 . S
H748 C732 0.960 . S
C749 C750 1.391 . S
C749 C751 1.394 . S
C749 H765 0.931 . S
C750 C749 1.391 . S
C750 C754 1.376 . S
C751 C749 1.394 . S
C751 C752 1.369 . S
C751 C755 1.531 . S
C752 C751 1.369 . S
C752 C753 1.410 . S
C752 C760 1.503 . S
C753 C752 1.410 . S
C753 C754 1.392 . S
C753 C756 1.511 . S
C754 C750 1.376 . S
C754 C753 1.392 . S
C754 H766 0.929 . S
C755 C751 1.531 . S
C755 H767 0.960 . S
C755 H768 0.962 . S
C755 H769 0.960 . S
C756 C753 1.511 . S
C756 H770 0.961 . S
C756 H771 0.961 . S
C756 H772 0.961 . S
C757 C758 1.370 . S
C757 C759 1.363 . S
C757 H773 0.931 . S
C758 C757 1.370 . S
C758 C762 1.408 . S
C759 C757 1.363 . S
C759 C760 1.370 . S
C759 C763 1.524 . S
C760 C752 1.503 . S
C760 C759 1.370 . S
C760 C761 1.403 . S
C761 C760 1.403 . S
C761 C762 1.404 . S
C761 C764 1.539 . S
C762 C758 1.408 . S
C762 C761 1.404 . S
C762 H774 0.930 . S
C763 C759 1.524 . S
C763 H775 0.956 . S
C763 H776 0.961 . S
C763 H777 0.961 . S
C764 C761 1.539 . S
C764 H778 0.958 . S
C764 H779 0.961 . S
C764 H780 0.960 . S
H765 C749 0.931 . S
H766 C754 0.929 . S
H767 C755 0.960 . S
H768 C755 0.962 . S
H769 C755 0.960 . S
H770 C756 0.961 . S
H771 C756 0.961 . S
H772 C756 0.961 . S
H773 C757 0.931 . S
H774 C762 0.930 . S
H775 C763 0.956 . S
H776 C763 0.961 . S
H777 C763 0.961 . S
H778 C764 0.958 . S
H779 C764 0.961 . S
H780 C764 0.960 . S
C781 C782 1.391 . S
C781 C783 1.394 . S
C781 H797 0.931 . S
C782 C781 1.391 . S
C782 C786 1.376 . S
C783 C781 1.394 . S
C783 C784 1.369 . S
C783 C787 1.531 . S
C784 C783 1.369 . S
C784 C785 1.410 . S
C784 C792 1.503 . S
C785 C784 1.410 . S
C785 C786 1.392 . S
C785 C788 1.511 . S
C786 C782 1.376 . S
C786 C785 1.392 . S
C786 H798 0.929 . S
C787 C783 1.531 . S
C787 H799 0.960 . S
C787 H800 0.962 . S
C787 H801 0.960 . S
C788 C785 1.511 . S
C788 H802 0.961 . S
C788 H803 0.961 . S
C788 H804 0.961 . S
C789 C790 1.370 . S
C789 C791 1.363 . S
C789 H805 0.931 . S
C790 C789 1.370 . S
C790 C794 1.408 . S
C791 C789 1.363 . S
C791 C792 1.370 . S
C791 C795 1.524 . S
C792 C784 1.503 . S
C792 C791 1.370 . S
C792 C793 1.403 . S
C793 C792 1.403 . S
C793 C794 1.404 . S
C793 C796 1.539 . S
C794 C790 1.408 . S
C794 C793 1.404 . S
C794 H806 0.930 . S
C795 C791 1.524 . S
C795 H807 0.956 . S
C795 H808 0.961 . S
C795 H809 0.961 . S
C796 C793 1.539 . S
C796 H810 0.958 . S
C796 H811 0.961 . S
C796 H812 0.960 . S
H797 C781 0.931 . S
H798 C786 0.929 . S
H799 C787 0.960 . S
H800 C787 0.962 . S
H801 C787 0.960 . S
H802 C788 0.961 . S
H803 C788 0.961 . S
H804 C788 0.961 . S
H805 C789 0.931 . S
H806 C794 0.930 . S
H807 C795 0.956 . S
H808 C795 0.961 . S
H809 C795 0.961 . S
H810 C796 0.958 . S
H811 C796 0.961 . S
H812 C796 0.960 . S
C813 C814 1.391 1_655 S
C813 C815 1.394 . S
C813 H829 0.931 . S
C814 C813 1.391 1_455 S
C814 C818 1.376 . S
C815 C813 1.394 . S
C815 C816 1.369 1_655 S
C815 C819 1.531 . S
C816 C815 1.369 1_455 S
C816 C817 1.410 . S
C816 C824 1.503 . S
C817 C816 1.410 . S
C817 C818 1.392 . S
C817 C820 1.511 . S
C818 C814 1.376 . S
C818 C817 1.392 . S
C818 H830 0.929 . S
C819 C815 1.531 . S
C819 H831 0.960 . S
C819 H832 0.962 . S
C819 H833 0.960 . S
C820 C817 1.511 . S
C820 H834 0.961 . S
C820 H835 0.961 . S
C820 H836 0.961 . S
C821 C822 1.370 1_655 S
C821 C823 1.363 . S
C821 H837 0.931 . S
C822 C821 1.370 1_455 S
C822 C826 1.408 . S
C823 C821 1.363 . S
C823 C824 1.370 1_655 S
C823 C827 1.524 . S
C824 C816 1.503 . S
C824 C823 1.370 1_455 S
C824 C825 1.403 . S
C825 C824 1.403 . S
C825 C826 1.404 . S
C825 C828 1.539 . S
C826 C822 1.408 . S
C826 C825 1.404 . S
C826 H838 0.930 . S
C827 C823 1.524 . S
C827 H839 0.956 . S
C827 H840 0.961 . S
C827 H841 0.961 . S
C828 C825 1.539 . S
C828 H842 0.958 . S
C828 H843 0.961 . S
C828 H844 0.960 . S
H829 C813 0.931 . S
H830 C818 0.929 . S
H831 C819 0.960 . S
H832 C819 0.962 . S
H833 C819 0.960 . S
H834 C820 0.961 . S
H835 C820 0.961 . S
H836 C820 0.961 . S
H837 C821 0.931 . S
H838 C826 0.930 . S
H839 C827 0.956 . S
H840 C827 0.961 . S
H841 C827 0.961 . S
H842 C828 0.958 . S
H843 C828 0.961 . S
H844 C828 0.960 . S
C845 C846 1.391 . S
C845 C847 1.394 . S
C845 H861 0.931 . S
C846 C845 1.391 . S
C846 C850 1.376 1_545 S
C847 C845 1.394 . S
C847 C848 1.369 1_545 S
C847 C851 1.531 . S
C848 C847 1.369 1_565 S
C848 C849 1.410 . S
C848 C856 1.503 1_565 S
C849 C848 1.410 . S
C849 C850 1.392 . S
C849 C852 1.511 . S
C850 C846 1.376 1_565 S
C850 C849 1.392 . S
C850 H862 0.929 . S
C851 C847 1.531 . S
C851 H863 0.960 1_545 S
C851 H864 0.962 . S
C851 H865 0.960 1_545 S
C852 C849 1.511 . S
C852 H866 0.960 1_565 S
C852 H867 0.961 1_565 S
C852 H868 0.961 . S
C853 C854 1.370 . S
C853 C855 1.363 . S
C853 H869 0.931 . S
C854 C853 1.370 . S
C854 C858 1.408 1_545 S
C855 C853 1.363 . S
C855 C856 1.370 . S
C855 C859 1.524 . S
C856 C848 1.503 1_545 S
C856 C855 1.370 . S
C856 C857 1.403 1_545 S
C857 C856 1.403 1_565 S
C857 C858 1.404 . S
C857 C860 1.539 . S
C858 C854 1.408 1_565 S
C858 C857 1.404 . S
C858 H870 0.930 . S
C859 C855 1.524 . S
C859 H871 0.956 . S
C859 H872 0.961 . S
C859 H873 0.961 . S
C860 C857 1.539 . S
C860 H874 0.958 . S
C860 H875 0.961 . S
C860 H876 0.960 . S
H861 C845 0.931 . S
H862 C850 0.929 . S
H863 C851 0.960 1_565 S
H864 C851 0.962 . S
H865 C851 0.960 1_565 S
H866 C852 0.960 1_545 S
H867 C852 0.961 1_545 S
H868 C852 0.961 . S
H869 C853 0.931 . S
H870 C858 0.930 . S
H871 C859 0.956 . S
H872 C859 0.961 . S
H873 C859 0.961 . S
H874 C860 0.958 . S
H875 C860 0.961 . S
H876 C860 0.960 . S
C877 C878 1.391 . S
C877 C879 1.394 . S
C877 H893 0.931 . S
C878 C877 1.391 . S
C878 C882 1.376 . S
C879 C877 1.394 . S
C879 C880 1.369 . S
C879 C883 1.531 . S
C880 C879 1.369 . S
C880 C881 1.410 . S
C880 C888 1.503 . S
C881 C880 1.410 . S
C881 C882 1.392 . S
C881 C884 1.511 . S
C882 C878 1.376 . S
C882 C881 1.392 . S
C882 H894 0.929 . S
C883 C879 1.531 . S
C883 H895 0.960 . S
C883 H896 0.962 . S
C883 H897 0.960 . S
C884 C881 1.511 . S
C884 H898 0.961 . S
C884 H899 0.961 . S
C884 H900 0.961 . S
C885 C886 1.370 . S
C885 C887 1.363 . S
C885 H901 0.931 . S
C886 C885 1.370 . S
C886 C890 1.408 . S
C887 C885 1.363 . S
C887 C888 1.370 . S
C887 C891 1.524 . S
C888 C880 1.503 . S
C888 C887 1.370 . S
C888 C889 1.403 . S
C889 C888 1.403 . S
C889 C890 1.404 . S
C889 C892 1.539 . S
C890 C886 1.408 . S
C890 C889 1.404 . S
C890 H902 0.930 . S
C891 C887 1.524 . S
C891 H903 0.956 . S
C891 H904 0.961 . S
C891 H905 0.961 . S
C892 C889 1.539 . S
C892 H906 0.958 . S
C892 H907 0.961 . S
C892 H908 0.960 . S
H893 C877 0.931 . S
H894 C882 0.929 . S
H895 C883 0.960 . S
H896 C883 0.962 . S
H897 C883 0.960 . S
H898 C884 0.961 . S
H899 C884 0.961 . S
H900 C884 0.961 . S
H901 C885 0.931 . S
H902 C890 0.930 . S
H903 C891 0.956 . S
H904 C891 0.961 . S
H905 C891 0.961 . S
H906 C892 0.958 . S
H907 C892 0.961 . S
H908 C892 0.960 . S
C909 C910 1.391 . S
C909 C911 1.394 . S
C909 H925 0.931 . S
C910 C909 1.391 . S
C910 C914 1.376 1_545 S
C911 C909 1.394 . S
C911 C912 1.369 . S
C911 C915 1.531 . S
C912 C911 1.369 . S
C912 C913 1.410 1_545 S
C912 C920 1.503 . S
C913 C912 1.410 1_565 S
C913 C914 1.392 . S
C913 C916 1.511 . S
C914 C910 1.376 1_565 S
C914 C913 1.392 . S
C914 H926 0.929 . S
C915 C911 1.531 . S
C915 H927 0.960 . S
C915 H928 0.962 . S
C915 H929 0.960 . S
C916 C913 1.511 . S
C916 H930 0.961 . S
C916 H931 0.961 . S
C916 H932 0.961 . S
C917 C918 1.370 1_565 S
C917 C919 1.363 . S
C917 H933 0.931 . S
C918 C917 1.370 1_545 S
C918 C922 1.408 . S
C919 C917 1.363 . S
C919 C920 1.370 1_565 S
C919 C923 1.524 . S
C920 C912 1.503 . S
C920 C919 1.370 1_545 S
C920 C921 1.403 . S
C921 C920 1.403 . S
C921 C922 1.404 . S
C921 C924 1.539 . S
C922 C918 1.408 . S
C922 C921 1.404 . S
C922 H934 0.930 . S
C923 C919 1.524 . S
C923 H935 0.956 . S
C923 H936 0.961 . S
C923 H937 0.961 . S
C924 C921 1.539 . S
C924 H938 0.958 . S
C924 H939 0.961 . S
C924 H940 0.960 . S
H925 C909 0.931 . S
H926 C914 0.929 . S
H927 C915 0.960 . S
H928 C915 0.962 . S
H929 C915 0.960 . S
H930 C916 0.961 . S
H931 C916 0.961 . S
H932 C916 0.961 . S
H933 C917 0.931 . S
H934 C922 0.930 . S
H935 C923 0.956 . S
H936 C923 0.961 . S
H937 C923 0.961 . S
H938 C924 0.958 . S
H939 C924 0.961 . S
H940 C924 0.960 . S
C941 C942 1.391 . S
C941 C943 1.394 . S
C941 H957 0.931 . S
C942 C941 1.391 . S
C942 C946 1.376 . S
C943 C941 1.394 . S
C943 C944 1.369 . S
C943 C947 1.531 . S
C944 C943 1.369 . S
C944 C945 1.410 . S
C944 C952 1.503 . S
C945 C944 1.410 . S
C945 C946 1.392 . S
C945 C948 1.511 . S
C946 C942 1.376 . S
C946 C945 1.392 . S
C946 H958 0.929 . S
C947 C943 1.531 . S
C947 H959 0.960 . S
C947 H960 0.962 . S
C947 H961 0.960 . S
C948 C945 1.511 . S
C948 H962 0.961 . S
C948 H963 0.961 . S
C948 H964 0.961 . S
C949 C950 1.370 . S
C949 C951 1.363 . S
C949 H965 0.931 . S
C950 C949 1.370 . S
C950 C954 1.408 . S
C951 C949 1.363 . S
C951 C952 1.370 . S
C951 C955 1.524 . S
C952 C944 1.503 . S
C952 C951 1.370 . S
C952 C953 1.403 . S
C953 C952 1.403 . S
C953 C954 1.404 . S
C953 C956 1.539 . S
C954 C950 1.408 . S
C954 C953 1.404 . S
C954 H966 0.930 . S
C955 C951 1.524 . S
C955 H967 0.956 . S
C955 H968 0.961 . S
C955 H969 0.961 . S
C956 C953 1.539 . S
C956 H970 0.958 . S
C956 H971 0.961 . S
C956 H972 0.960 . S
H957 C941 0.931 . S
H958 C946 0.929 . S
H959 C947 0.960 . S
H960 C947 0.962 . S
H961 C947 0.960 . S
H962 C948 0.961 . S
H963 C948 0.961 . S
H964 C948 0.961 . S
H965 C949 0.931 . S
H966 C954 0.930 . S
H967 C955 0.956 . S
H968 C955 0.961 . S
H969 C955 0.961 . S
H970 C956 0.958 . S
H971 C956 0.961 . S
H972 C956 0.960 . S
C973 C974 1.391 . S
C973 C975 1.394 . S
C973 H989 0.931 . S
C974 C973 1.391 . S
C974 C978 1.376 1_455 S
C975 C973 1.394 . S
C975 C976 1.369 . S
C975 C979 1.531 . S
C976 C975 1.369 . S
C976 C977 1.410 1_455 S
C976 C984 1.503 . S
C977 C976 1.410 1_655 S
C977 C978 1.392 . S
C977 C980 1.511 . S
C978 C974 1.376 1_655 S
C978 C977 1.392 . S
C978 H990 0.929 . S
C979 C975 1.531 . S
C979 H991 0.960 . S
C979 H992 0.962 . S
C979 H993 0.960 . S
C980 C977 1.511 . S
C980 H994 0.961 . S
C980 H995 0.961 . S
C980 H996 0.961 . S
C981 C982 1.370 . S
C981 C983 1.363 . S
C981 H997 0.931 . S
C982 C981 1.370 . S
C982 C986 1.408 . S
C983 C981 1.363 . S
C983 C984 1.370 . S
C983 C987 1.524 . S
C984 C976 1.503 . S
C984 C983 1.370 . S
C984 C985 1.403 . S
C985 C984 1.403 . S
C985 C986 1.404 . S
C985 C988 1.539 . S
C986 C982 1.408 . S
C986 C985 1.404 . S
C986 H998 0.930 . S
C987 C983 1.524 . S
C987 H999 0.956 . S
C987 H1000 0.961 1_455 S
C987 H1001 0.961 1_455 S
C988 C985 1.539 . S
C988 H1002 0.958 . S
C988 H1003 0.961 1_455 S
C988 H1004 0.960 1_455 S
H989 C973 0.931 . S
H990 C978 0.929 . S
H991 C979 0.960 . S
H992 C979 0.962 . S
H993 C979 0.960 . S
H994 C980 0.961 . S
H995 C980 0.961 . S
H996 C980 0.961 . S
H997 C981 0.931 . S
H998 C986 0.930 . S
H999 C987 0.956 . S
H1000 C987 0.961 1_655 S
H1001 C987 0.961 1_655 S
H1002 C988 0.958 . S
H1003 C988 0.961 1_655 S
H1004 C988 0.960 1_655 S
C430 C20 1.199 . S
C438 C400 1.188 . S
C462 C41 1.230 . S
C470 C250 1.198 . S
C494 C64 1.253 . S
C502 C310 1.231 . S
C526 C19 1.222 . S
C534 C370 1.204 . S
C566 C280 1.215 . S
C558 C44 1.240 . S
C598 C340 1.216 . S
C590 C67 1.220 . S
C622 C43 1.175 . S
C630 C130 1.173 . S
C654 C66 1.200 . S
C662 C220 1.188 . S
C686 C21 1.219 . S
C694 C100 1.214 . S
C726 C160 1.229 . S
C718 C42 1.242 . S
C758 C190 1.236 . S
C750 C65 1.212 . S
C782 C18 1.239 . S
C790 C70 1.177 . S
C822 C209 1.441 1_554 S
C814 C17 1.457 . S
C846 C39 1.453 . S
C854 C89 1.428 . S
C878 C62 1.472 . S
C886 C149 1.457 . S
C918 C329 1.410 . S
C910 C40 1.440 . S
C950 C389 1.442 1_556 S
C942 C63 1.457 . S
C974 C16 1.449 . S
C982 C269 1.426 . S
