# Generated by pormake.
# Topology pth, (4,4)-cn, num edge types: 1
# Building blocks:
#     Node 0, Type 0, BuildingBlock: AZAVOO_clean_sbu_0, # of connection points: 4
#     Node 1, Type 0, BuildingBlock: AZAVOO_clean_sbu_0, # of connection points: 4
#     Node 2, Type 0, BuildingBlock: AZAVOO_clean_sbu_0, # of connection points: 4
#     Node 3, Type 1, BuildingBlock: MIFKUJ_clean_linker_1, # of connection points: 4
#     Node 4, Type 1, BuildingBlock: MIFKUJ_clean_linker_1, # of connection points: 4
#     Node 5, Type 1, BuildingBlock: MIFKUJ_clean_linker_1, # of connection points: 4
#     Edge 6, Type (0, 1), BuildingBlock: XIVTED_clean_linker_0, # of connection points: 2
#     Edge 7, Type (0, 1), BuildingBlock: XIVTED_clean_linker_0, # of connection points: 2
#     Edge 8, Type (0, 1), BuildingBlock: XIVTED_clean_linker_0, # of connection points: 2
#     Edge 9, Type (0, 1), BuildingBlock: XIVTED_clean_linker_0, # of connection points: 2
#     Edge 10, Type (0, 1), BuildingBlock: XIVTED_clean_linker_0, # of connection points: 2
#     Edge 11, Type (0, 1), BuildingBlock: XIVTED_clean_linker_0, # of connection points: 2
#     Edge 12, Type (0, 1), BuildingBlock: XIVTED_clean_linker_0, # of connection points: 2
#     Edge 13, Type (0, 1), BuildingBlock: XIVTED_clean_linker_0, # of connection points: 2
#     Edge 14, Type (0, 1), BuildingBlock: XIVTED_clean_linker_0, # of connection points: 2
#     Edge 15, Type (0, 1), BuildingBlock: XIVTED_clean_linker_0, # of connection points: 2
#     Edge 16, Type (0, 1), BuildingBlock: XIVTED_clean_linker_0, # of connection points: 2
#     Edge 17, Type (0, 1), BuildingBlock: XIVTED_clean_linker_0, # of connection points: 2
# Relax obj value: 0.066
# Max RMSD: 0.212
# Mean RMSD: 0.113
data_MOF--net-pth--node1-AZAVOO_clean_sbu_0--node2-MIFKUJ_clean_linker_1--edge1-XIVTED_clean_linker_0
_symmetry_space_group_name_H-M    P1
_symmetry_Int_Tables_number       1
_symmetry_cell_setting            triclinic
loop_
_symmetry_equiv_pos_as_xyz
'x, y, z'
_cell_length_a     29.452809
_cell_length_b     30.090145
_cell_length_c     63.369078
_cell_angle_alpha  90.968146
_cell_angle_beta   92.524816
_cell_angle_gamma 121.93759
loop_
_atom_site_label
_atom_site_type_symbol
_atom_site_fract_x
_atom_site_fract_y
_atom_site_fract_z
_atom_type_partial_charge
Mg0 Mg 0.07335 0.06554 0.03426 0.0
O1 O 0.00409 0.00349 0.01227 0.0
O2 O 0.98515 0.04419 0.9875 0.0
Mg3 Mg 0.04424 0.13234 0.99314 0.0
C4 C 0.97659 0.0024 -0.00409 0.0
C5 C 0.08938 0.01178 0.07263 0.0
O6 O 0.13553 0.05677 0.07387 0.0
O7 O 0.01937 0.0879 0.04965 0.0
O8 O 0.00811 0.13284 0.02445 0.0
O9 O 0.13167 0.06379 0.01347 0.0
O10 O 0.10149 0.11684 0.00983 0.0
C11 C 0.00104 0.11563 0.04308 0.0
C12 C 0.12992 0.0994 0.00291 0.0
O13 O 0.05452 0.00346 0.05801 0.0
Mg14 Mg 0.96928 0.03725 0.34765 0.0
O15 O 0.03341 0.05513 0.3738 0.0
O16 O 0.05146 0.12605 0.39306 0.0
Mg17 Mg -0.00164 0.15383 0.37907 0.0
C18 C 0.0591 0.08888 0.38905 0.0
C19 C 0.94972 0.93888 0.32227 0.0
O20 O 0.90049 0.92869 0.32231 0.0
O21 O 0.03067 0.10524 0.32896 0.0
O22 O 0.04403 0.1738 0.34886 0.0
O23 O 0.90423 0.99023 0.36979 0.0
O24 O 0.94087 0.07483 0.36526 0.0
C25 C 0.05312 0.1546 0.33262 0.0
C26 C 0.90758 0.03384 0.3748 0.0
O27 O 0.98752 0.98084 0.33159 0.0
Mg28 Mg 0.97611 0.99367 0.68865 0.0
O29 O 0.04004 0.06077 0.71066 0.0
O30 O -0.00084 0.07946 0.73494 0.0
Mg31 Mg 0.90884 0.02099 0.72938 0.0
C32 C 0.04162 0.08782 0.7267 0.0
C33 C 0.03311 0.97753 0.65199 0.0
O34 O 0.98976 0.93039 0.65205 0.0
O35 O 0.95333 0.04734 0.67306 0.0
O36 O 0.90762 0.05742 0.69795 0.0
O37 O 0.97758 0.93549 0.70961 0.0
O38 O 0.92382 0.96537 0.71277 0.0
C39 C 0.92508 0.06507 0.67942 0.0
C40 C 0.94101 0.93666 0.71979 0.0
O41 O 0.03915 0.01278 0.66517 0.0
H42 H 0.06765 0.49619 0.14322 0.0
H43 H 0.0441 0.41964 0.12049 0.0
H44 H 0.93853 0.31779 0.16666 0.0
H45 H 0.96083 0.39448 0.18914 0.0
H46 H 0.01664 0.53588 0.15517 0.0
H47 H 0.11104 0.47335 0.19035 0.0
H48 H 0.13603 0.41679 0.20806 0.0
H49 H 0.03334 0.39738 0.25816 0.0
H50 H 0.00602 0.45134 0.24003 0.0
H51 H 0.96475 0.55809 0.23586 0.0
H52 H 0.95299 0.61942 0.257 0.0
H53 H 0.08943 0.74939 0.22957 0.0
H54 H 0.10203 0.68752 0.20891 0.0
H55 H 0.05241 0.54469 0.23281 0.0
H56 H 0.95612 0.60857 0.18606 0.0
H57 H 0.96102 0.68434 0.16968 0.0
H58 H 0.10792 0.72115 0.14204 0.0
H59 H 0.1031 0.64617 0.15857 0.0
C60 C 0.01642 0.45124 0.168 0.0
C61 C 0.0392 0.45746 0.14844 0.0
C62 C 0.02567 0.41373 0.13545 0.0
C63 C 0.98936 0.36289 0.14183 0.0
C64 C 0.96692 0.35655 0.16147 0.0
C65 C 0.97988 0.40036 0.17434 0.0
C66 C 0.02902 0.49783 0.18141 0.0
C67 C 0.02497 0.53772 0.17211 0.0
C68 C 0.04207 0.50187 0.20343 0.0
C69 C 0.05616 0.46635 0.21373 0.0
C70 C 0.09293 0.45604 0.20491 0.0
C71 C 0.10754 0.42411 0.21505 0.0
C72 C 0.08683 0.40334 0.23445 0.0
C73 C 0.0502 0.41357 0.24328 0.0
C74 C 0.0347 0.44444 0.23295 0.0
C75 C 0.03382 0.61826 0.22064 0.0
C76 C 0.99259 0.59981 0.23462 0.0
C77 C 0.9856 0.6349 0.24653 0.0
C78 C 0.0198 0.68925 0.24473 0.0
C79 C 0.06251 0.70776 0.23135 0.0
C80 C 0.06955 0.6725 0.21943 0.0
C81 C 0.03676 0.58007 0.20665 0.0
C82 C 0.04403 0.54209 0.21584 0.0
C83 C 0.02968 0.57922 0.18443 0.0
C84 C 0.02946 0.62217 0.17358 0.0
C85 C 0.98916 0.63296 0.17639 0.0
C86 C 0.99195 0.67604 0.16701 0.0
C87 C 0.03517 0.70889 0.15479 0.0
C88 C 0.07468 0.69709 0.15168 0.0
C89 C 0.07171 0.65402 0.16092 0.0
H90 H 0.63216 0.15183 0.4857 0.0
H91 H 0.69554 0.14378 0.46497 0.0
H92 H 0.63675 0.9895 0.48857 0.0
H93 H 0.57584 -0.00043 0.51018 0.0
H94 H 0.51853 0.0825 0.48266 0.0
H95 H 0.66661 0.15204 0.53178 0.0
H96 H 0.74064 0.16252 0.55498 0.0
H97 H 0.62841 0.02874 0.58904 0.0
H98 H 0.55466 0.01698 0.56538 0.0
H99 H 0.40937 0.9928 0.55612 0.0
H100 H 0.33243 0.97935 0.57468 0.0
H101 H 0.35774 0.12511 0.55212 0.0
H102 H 0.43573 0.13899 0.53398 0.0
H103 H 0.51569 0.07348 0.56073 0.0
H104 H 0.37 -0.0009 0.50511 0.0
H105 H 0.29761 0.00018 0.48504 0.0
H106 H 0.41155 0.15575 0.46536 0.0
H107 H 0.48354 0.15468 0.48571 0.0
C108 C 0.59956 0.07636 0.49943 0.0
C109 C 0.63343 0.11656 0.48649 0.0
C110 C 0.6693 0.11158 0.47453 0.0
C111 C 0.67098 0.06563 0.47483 0.0
C112 C 0.63727 0.02571 0.4881 0.0
C113 C 0.60213 0.03121 0.50038 0.0
C114 C 0.55961 0.08028 0.51124 0.0
C115 C 0.51835 0.08124 0.49976 0.0
C116 C 0.55956 0.07881 0.53352 0.0
C117 C 0.60496 0.08334 0.54666 0.0
C118 C 0.65798 0.12409 0.54387 0.0
C119 C 0.70025 0.13032 0.5572 0.0
C120 C 0.69004 0.09665 0.57383 0.0
C121 C 0.63718 0.05559 0.57646 0.0
C122 C 0.59509 0.04885 0.56295 0.0
C123 C 0.42797 0.06669 0.54359 0.0
C124 C 0.39848 0.02198 0.55527 0.0
C125 C 0.35423 0.0141 0.56568 0.0
C126 C 0.33877 0.05096 0.56471 0.0
C127 C 0.36885 0.09616 0.55323 0.0
C128 C 0.41315 0.10397 0.54277 0.0
C129 C 0.47375 0.07347 0.5321 0.0
C130 C 0.51618 0.07479 0.54364 0.0
C131 C 0.47534 0.07771 0.50994 0.0
C132 C 0.43192 0.07701 0.497 0.0
C133 C 0.37927 0.03338 0.49645 0.0
C134 C 0.33808 0.03394 0.4849 0.0
C135 C 0.34892 0.07818 0.47373 0.0
C136 C 0.4019 0.12144 0.47405 0.0
C137 C 0.44308 0.12072 0.48551 0.0
H138 H 0.51986 0.39118 0.81348 0.0
H139 H 0.44102 0.33502 0.78956 0.0
H140 H 0.34522 0.36846 0.82886 0.0
H141 H 0.42436 0.42689 0.85161 0.0
H142 H 0.57106 0.4938 0.82334 0.0
H143 H 0.48435 0.33888 0.865 0.0
H144 H 0.40696 0.26633 0.88128 0.0
H145 H 0.38531 0.37816 0.91583 0.0
H146 H 0.462 0.45001 0.89958 0.0
H147 H 0.58439 0.58098 0.90317 0.0
H148 H 0.64585 0.65929 0.92538 0.0
H149 H 0.78022 0.65532 0.90308 0.0
H150 H 0.71818 0.57627 0.88089 0.0
H151 H 0.56443 0.48161 0.90125 0.0
H152 H 0.63591 0.63174 0.85833 0.0
H153 H 0.7042 0.70861 0.84114 0.0
H154 H 0.74749 0.61162 0.80729 0.0
H155 H 0.68102 0.53535 0.82555 0.0
C156 C 0.47785 0.41235 0.83462 0.0
C157 C 0.48181 0.38642 0.81684 0.0
C158 C 0.43658 0.35402 0.80328 0.0
C159 C 0.38653 0.34699 0.80725 0.0
C160 C 0.38304 0.37338 0.82504 0.0
C161 C 0.42823 0.40615 0.83836 0.0
C162 C 0.52562 0.44779 0.84891 0.0
C163 C 0.57035 0.49028 0.84036 0.0
C164 C 0.52448 0.44381 0.87111 0.0
C165 C 0.4788 0.39971 0.88112 0.0
C166 C 0.46279 0.34757 0.87608 0.0
C167 C 0.41881 0.30631 0.88538 0.0
C168 C 0.39 0.31675 0.89962 0.0
C169 C 0.40632 0.36899 0.90464 0.0
C170 C 0.45044 0.41006 0.89556 0.0
C171 C 0.64678 0.57299 0.89033 0.0
C172 C 0.62703 0.59652 0.90327 0.0
C173 C 0.66216 0.64148 0.91579 0.0
C174 C 0.71775 0.66356 0.91579 0.0
C175 C 0.7375 0.63893 0.90342 0.0
C176 C 0.70222 0.59401 0.89071 0.0
C177 C 0.60881 0.52833 0.8757 0.0
C178 C 0.56611 0.48403 0.8842 0.0
C179 C 0.6116 0.53105 0.85349 0.0
C180 C 0.65401 0.57799 0.84348 0.0
C181 C 0.66095 0.62726 0.84757 0.0
C182 C 0.69961 0.67109 0.83752 0.0
C183 C 0.73134 0.66634 0.82279 0.0
C184 C 0.72445 0.61691 0.81881 0.0
C185 C 0.6861 0.57315 0.82906 0.0
H186 H -0.00166 0.10695 0.08621 0.0
H187 H 0.96032 0.34758 0.09964 0.0
H188 H 0.95341 0.17116 0.03475 0.0
H189 H 0.98661 0.27367 0.15248 0.0
H190 H 0.94609 0.2756 0.07617 0.0
H191 H 0.98093 0.15807 0.11126 0.0
C192 C 0.98367 0.13084 0.08015 0.0
C193 C 0.97852 0.13565 0.0583 0.0
C194 C 0.95435 0.27465 0.09293 0.0
C195 C 0.9593 0.19479 0.08689 0.0
C196 C 0.96279 0.31592 0.10629 0.0
C197 C 0.9754 0.31683 0.12793 0.0
C198 C 0.95934 0.2343 0.10121 0.0
C199 C 0.97711 0.27442 0.13584 0.0
C200 C 0.97397 0.16022 0.09449 0.0
C201 C 0.95901 0.16696 0.05143 0.0
N202 N 0.96999 0.23519 0.12242 0.0
N203 N 0.95101 0.19598 0.06566 0.0
H204 H 0.88878 0.11202 0.37997 0.0
H205 H 0.72465 0.01425 0.48236 0.0
H206 H 0.85064 0.96472 0.40543 0.0
H207 H 0.69739 0.1005 0.43487 0.0
H208 H 0.78188 0.00371 0.45845 0.0
H209 H 0.83165 0.1183 0.40483 0.0
C210 C 0.86867 0.08109 0.39092 0.0
C211 C 0.87442 0.03769 0.39063 0.0
C212 C 0.76315 0.02484 0.4534 0.0
C213 C 0.80888 0.04488 0.41918 0.0
C214 C 0.73034 0.03079 0.46696 0.0
C215 C 0.70627 0.05878 0.46078 0.0
C216 C 0.77268 0.04781 0.43373 0.0
C217 C 0.71601 0.0799 0.44069 0.0
C218 C 0.8358 0.08461 0.40501 0.0
C219 C 0.84705 -0.00131 0.40512 0.0
N220 N 0.74872 0.07432 0.42801 0.0
N221 N 0.81547 0.00329 0.41897 0.0
H222 H 0.86228 0.92988 0.74326 0.0
H223 H 0.83141 0.69424 0.8106 0.0
H224 H 0.96626 0.86993 0.7383 0.0
H225 H 0.71675 0.7423 0.80699 0.0
H226 H 0.88884 0.76586 0.78812 0.0
H227 H 0.81739 0.87011 0.77113 0.0
C228 C 0.87624 0.90465 0.74821 0.0
C229 C 0.91797 0.90477 0.73833 0.0
C230 C 0.8513 0.76089 0.79243 0.0
C231 C 0.8659 0.83532 0.77013 0.0
C232 C 0.81835 0.71988 0.80517 0.0
C233 C 0.76895 0.71197 0.81064 0.0
C234 C 0.83476 0.79425 0.78516 0.0
C235 C 0.75466 0.74708 0.80345 0.0
C236 C 0.85031 0.87024 0.7641 0.0
C237 C 0.93407 0.87093 0.74543 0.0
N238 N 0.78724 0.78641 0.79102 0.0
N239 N 0.90766 0.83717 0.7608 0.0
H240 H 0.15828 0.01317 0.10344 0.0
H241 H 0.95653 0.71627 0.13347 0.0
H242 H -0.00249 0.9154 0.07505 0.0
H243 H 0.12407 0.80752 0.15442 0.0
H244 H 0.96709 0.79249 0.11559 0.0
H245 H 0.14273 0.94164 0.12577 0.0
C246 C 0.11959 0.97679 0.10199 0.0
C247 C 0.0793 0.97012 0.08722 0.0
C248 C 0.00146 0.79587 0.1242 0.0
C249 C 0.06124 0.88803 0.11272 0.0
C250 C -0.00464 0.75252 0.13449 0.0
C251 C 0.03963 0.75551 0.14524 0.0
C252 C 0.0521 0.84254 0.12479 0.0
C253 C 0.08913 0.8033 0.14598 0.0
C254 C 0.11075 0.93592 0.11472 0.0
C255 C 0.02986 0.92215 0.08611 0.0
N256 N 0.09407 0.84485 0.13582 0.0
N257 N 0.0223 0.88285 0.09862 0.0
H258 H 0.08082 0.0108 0.38804 0.0
H259 H 0.33107 0.15857 0.47273 0.0
H260 H 0.13053 0.15904 0.41998 0.0
H261 H 0.26711 0.00067 0.44787 0.0
H262 H 0.25941 0.16053 0.45267 0.0
H263 H 0.15006 0.00719 0.40914 0.0
C264 C 0.10618 0.04257 0.39951 0.0
C265 C 0.09983 0.08537 0.40219 0.0
C266 C 0.26093 0.12538 0.45164 0.0
C267 C 0.17939 0.08149 0.42636 0.0
C268 C 0.30202 0.12438 0.46297 0.0
C269 C 0.30513 0.07945 0.46189 0.0
C270 C 0.22281 0.08126 0.439 0.0
C271 C 0.26594 0.03595 0.44928 0.0
C272 C 0.14568 0.04041 0.41158 0.0
C273 C 0.13386 0.12526 0.41736 0.0
N274 N 0.22653 0.03802 0.43824 0.0
N275 N 0.17229 0.12244 0.42879 0.0
H276 H 0.13902 0.09863 0.72232 0.0
H277 H 0.30373 0.36054 0.79562 0.0
H278 H 0.06448 0.17033 0.75356 0.0
H279 H 0.35802 0.25374 0.78649 0.0
H280 H 0.22107 0.29962 0.77476 0.0
H281 H 0.22515 0.16423 0.74024 0.0
C282 C 0.14081 0.12839 0.73281 0.0
C283 C 0.0944 0.12885 0.73654 0.0
C284 C 0.25122 0.28969 0.77731 0.0
C285 C 0.19278 0.20403 0.75691 0.0
C286 C 0.29837 0.32428 0.78932 0.0
C287 C 0.33787 0.31208 0.79315 0.0
C288 C 0.24361 0.2428 0.76874 0.0
C289 C 0.32908 0.26515 0.7839 0.0
C290 C 0.18991 0.1656 0.74308 0.0
C291 C 0.09912 0.16825 0.75035 0.0
N292 N 0.28284 0.23218 0.77215 0.0
N293 N 0.14747 0.20434 0.76 0.0
H294 H 0.86725 0.11014 0.68724 0.0
H295 H 0.78687 0.11024 0.56512 0.0
H296 H 0.93674 0.07279 0.63654 0.0
H297 H 0.69269 0.10251 0.61676 0.0
H298 H 0.8558 0.11756 0.59082 0.0
H299 H 0.81864 0.13074 0.66117 0.0
C300 C 0.87305 0.10708 0.67064 0.0
C301 C 0.90528 0.08855 0.66408 0.0
C302 C 0.82026 0.11478 0.59648 0.0
C303 C 0.84918 0.1117 0.63413 0.0
C304 C 0.7811 0.11071 0.58187 0.0
C305 C 0.73389 0.10503 0.58891 0.0
C306 C 0.81221 0.11386 0.6182 0.0
C307 C 0.72816 0.10587 0.61072 0.0
C308 C 0.84506 0.11868 0.65576 0.0
C309 C 0.91179 0.08625 0.64233 0.0
N310 N 0.76675 0.10997 0.62458 0.0
N311 N 0.88328 0.09689 0.62809 0.0
H312 H 0.96154 0.90599 0.00306 0.0
H313 H 0.71428 0.7523 0.91755 0.0
H314 H 0.89871 0.9818 0.96515 0.0
H315 H 0.80525 0.68763 0.94195 0.0
H316 H 0.775 0.83394 0.93812 0.0
H317 H 0.8975 0.82265 0.98414 0.0
C318 C 0.93403 0.9051 0.99089 0.0
C319 C 0.93565 0.95107 0.98564 0.0
C320 C 0.78171 0.80192 0.93899 0.0
C321 C 0.8624 0.85581 0.96396 0.0
C322 C 0.74694 0.75526 0.92735 0.0
C323 C 0.75476 0.71319 0.92812 0.0
C324 C 0.82441 0.80646 0.95165 0.0
C325 C 0.79811 0.71932 0.94083 0.0
C326 C 0.89772 0.85755 0.98003 0.0
C327 C 0.89912 0.94747 0.96967 0.0
N328 N 0.83125 0.76508 0.95219 0.0
N329 N 0.86399 0.90067 0.95941 0.0
H330 H 0.04713 0.9491 0.31833 0.0
H331 H 0.92328 0.67944 0.24983 0.0
H332 H 0.87834 0.84571 0.30096 0.0
H333 H 0.09273 0.78327 0.26564 0.0
H334 H 0.90635 0.73965 0.26898 0.0
H335 H 0.0649 0.88875 0.29956 0.0
C336 C 0.01378 0.91369 0.3106 0.0
C337 C 0.96113 0.90247 0.31121 0.0
C338 C 0.94727 0.74934 0.26831 0.0
C339 C 0.98126 0.83326 0.28968 0.0
C340 C 0.95695 0.71478 0.25747 0.0
C341 C 0.00951 0.72614 0.25624 0.0
C342 C 0.99042 0.79578 0.27803 0.0
C343 C 0.05163 0.77312 0.26606 0.0
C344 C 0.02399 0.87928 0.29986 0.0
C345 C 0.91955 0.85601 0.3009 0.0
N346 N 0.04116 0.80617 0.27659 0.0
N347 N 0.93052 0.82316 0.29057 0.0
H348 H 0.03563 0.91024 0.62311 0.0
H349 H 0.32911 0.12247 0.58826 0.0
H350 H 0.12709 0.07091 0.64766 0.0
H351 H 0.24138 0.95966 0.56661 0.0
H352 H 0.25257 0.10604 0.60797 0.0
H353 H 0.10794 0.9292 0.6003 0.0
C354 C 0.0708 0.94956 0.62365 0.0
C355 C 0.07542 0.98896 0.63741 0.0
C356 C 0.24998 0.07394 0.59885 0.0
C357 C 0.1584 0.01094 0.61135 0.0
C358 C 0.29355 0.08338 0.5875 0.0
C359 C 0.29174 0.04229 0.57589 0.0
C360 C 0.20423 0.02307 0.59856 0.0
C361 C 0.24484 0.99228 0.57564 0.0
C362 C 0.11211 0.96036 0.61062 0.0
C363 C 0.12189 0.03925 0.63738 0.0
N364 N 0.20303 0.98405 0.58686 0.0
N365 N 0.16164 0.04874 0.6246 0.0
H366 H 0.20067 0.07767 0.9859 0.0
H367 H 0.29226 0.3041 0.90369 0.0
H368 H 0.12888 0.16975 0.97659 0.0
H369 H 0.38279 0.23243 0.91879 0.0
H370 H 0.22122 0.24129 0.92511 0.0
H371 H 0.25753 0.12106 0.95652 0.0
C372 C 0.19623 0.10635 0.97751 0.0
C373 C 0.16012 0.12029 0.98381 0.0
C374 C 0.25633 0.23884 0.9236 0.0
C375 C 0.22473 0.16979 0.95031 0.0
C376 C 0.29687 0.27473 0.9114 0.0
C377 C 0.34372 0.27391 0.90981 0.0
C378 C 0.26285 0.20209 0.93447 0.0
C379 C 0.34728 0.23441 0.91972 0.0
C380 C 0.22871 0.1311 0.96078 0.0
C381 C 0.15601 0.15764 0.97237 0.0
N382 N 0.30764 0.20043 0.93193 0.0
N383 N 0.18814 0.18126 0.9563 0.0
H384 H 0.13217 0.2575 0.33835 0.0
H385 H 0.07717 0.31189 0.22069 0.0
H386 H 0.04268 0.13546 0.28967 0.0
H387 H 0.13319 0.42234 0.27415 0.0
H388 H 0.09059 0.25237 0.24248 0.0
H389 H 0.16143 0.32278 0.31153 0.0
C390 C 0.11982 0.24438 0.32191 0.0
C391 C 0.08386 0.19119 0.31625 0.0
C392 C 0.10104 0.29013 0.24928 0.0
C393 C 0.11599 0.26569 0.28557 0.0
C394 C 0.09348 0.32398 0.23687 0.0
C395 C 0.10332 0.37139 0.24587 0.0
C396 C 0.11891 0.30433 0.27066 0.0
C397 C 0.12437 0.38561 0.26682 0.0
C398 C 0.13634 0.28167 0.30661 0.0
C399 C 0.06988 0.17621 0.29471 0.0
N400 N 0.13096 0.35198 0.27858 0.0
N401 N 0.08486 0.21346 0.28015 0.0
loop_
_geom_bond_atom_site_label_1
_geom_bond_atom_site_label_2
_geom_bond_distance
_geom_bond_site_symmetry_2
_ccdc_geom_bond_type
Mg0 O1 2.028 . S
Mg0 O7 1.986 . S
Mg0 O9 2.114 . S
Mg0 O10 2.251 . S
Mg0 O13 2.010 . S
O1 Mg0 2.028 . S
O1 C4 1.250 1_455 S
O2 Mg3 2.028 1_655 S
O2 C4 1.248 . S
Mg3 O2 2.028 1_455 S
Mg3 O8 2.032 . S
Mg3 O10 2.079 . S
C4 O1 1.250 1_655 S
C4 O2 1.248 . S
C5 O6 1.264 . S
C5 O13 1.249 1_565 S
O6 C5 1.264 . S
O7 Mg0 1.986 . S
O7 C11 1.246 . S
O8 Mg3 2.032 . S
O8 C11 1.259 . S
O9 Mg0 2.114 . S
O9 C12 1.252 . S
O10 Mg0 2.251 . S
O10 Mg3 2.079 . S
O10 C12 1.273 . S
C11 O7 1.246 . S
C11 O8 1.259 . S
C12 O9 1.252 . S
C12 O10 1.273 . S
O13 Mg0 2.010 . S
O13 C5 1.249 1_545 S
Mg14 O15 2.028 1_655 S
Mg14 O21 1.986 1_655 S
Mg14 O23 2.114 1_545 S
Mg14 O24 2.251 . S
Mg14 O27 2.010 1_545 S
O15 Mg14 2.028 1_455 S
O15 C18 1.250 . S
O16 Mg17 2.028 . S
O16 C18 1.248 . S
Mg17 O16 2.028 . S
Mg17 O22 2.032 . S
Mg17 O24 2.079 1_455 S
C18 O15 1.250 . S
C18 O16 1.248 . S
C19 O20 1.264 . S
C19 O27 1.249 . S
O20 C19 1.264 . S
O21 Mg14 1.986 1_455 S
O21 C25 1.246 . S
O22 Mg17 2.032 . S
O22 C25 1.259 . S
O23 Mg14 2.114 1_565 S
O23 C26 1.252 1_565 S
O24 Mg14 2.251 . S
O24 Mg17 2.079 1_655 S
O24 C26 1.273 . S
C25 O21 1.246 . S
C25 O22 1.259 . S
C26 O23 1.252 1_545 S
C26 O24 1.273 . S
O27 Mg14 2.010 1_565 S
O27 C19 1.249 . S
Mg28 O29 2.028 . S
Mg28 O35 1.986 1_455 S
Mg28 O37 2.114 1_545 S
Mg28 O38 2.251 1_445 S
Mg28 O41 2.010 1_545 S
O29 Mg28 2.028 . S
O29 C32 1.250 . S
O30 Mg31 2.028 1_455 S
O30 C32 1.248 . S
Mg31 O30 2.028 1_655 S
Mg31 O36 2.032 . S
Mg31 O38 2.079 1_545 S
C32 O29 1.250 . S
C32 O30 1.248 . S
C33 O34 1.264 . S
C33 O41 1.249 . S
O34 C33 1.264 . S
O35 Mg28 1.986 1_655 S
O35 C39 1.246 . S
O36 Mg31 2.032 . S
O36 C39 1.259 . S
O37 Mg28 2.114 1_565 S
O37 C40 1.252 1_455 S
O38 Mg28 2.251 1_665 S
O38 Mg31 2.079 1_565 S
O38 C40 1.273 . S
C39 O35 1.246 . S
C39 O36 1.259 . S
C40 O37 1.252 1_655 S
C40 O38 1.273 . S
O41 Mg28 2.010 1_565 S
O41 C33 1.249 . S
H42 C61 0.949 . S
H43 C62 0.950 . S
H44 C64 0.950 . S
H45 C65 0.950 . S
H46 C67 0.950 . S
H47 C70 0.950 . S
H48 C71 0.950 . S
H49 C73 0.951 . S
H50 C74 0.949 . S
H51 C76 0.949 . S
H52 C77 0.950 . S
H53 C79 0.950 . S
H54 C80 0.950 . S
H55 C82 0.950 . S
H56 C85 0.950 1_655 S
H57 C86 0.950 1_655 S
H58 C88 0.951 . S
H59 C89 0.949 . S
C60 C61 1.376 . S
C60 C65 1.386 1_455 S
C60 C66 1.483 . S
C61 H42 0.949 . S
C61 C60 1.376 . S
C61 C62 1.397 . S
C62 H43 0.950 . S
C62 C61 1.397 . S
C62 C63 1.391 . S
C63 C62 1.391 . S
C63 C64 1.405 1_455 S
C64 H44 0.950 . S
C64 C63 1.405 1_655 S
C64 C65 1.367 . S
C65 H45 0.950 . S
C65 C60 1.386 1_655 S
C65 C64 1.367 . S
C66 C60 1.483 . S
C66 C67 1.382 . S
C66 C68 1.403 . S
C67 H46 0.950 . S
C67 C66 1.382 . S
C67 C83 1.411 . S
C68 C66 1.403 . S
C68 C69 1.489 . S
C68 C82 1.411 . S
C69 C68 1.489 . S
C69 C70 1.383 . S
C69 C74 1.382 1_455 S
C70 H47 0.950 . S
C70 C69 1.383 . S
C70 C71 1.395 . S
C71 H48 0.950 . S
C71 C70 1.395 . S
C71 C72 1.288 . S
C72 C71 1.288 . S
C72 C73 1.392 1_455 S
C73 H49 0.951 . S
C73 C72 1.392 1_655 S
C73 C74 1.392 . S
C74 H50 0.949 . S
C74 C69 1.382 1_655 S
C74 C73 1.392 . S
C75 C76 1.376 1_455 S
C75 C80 1.386 . S
C75 C81 1.483 . S
C76 H51 0.949 . S
C76 C75 1.376 1_655 S
C76 C77 1.397 . S
C77 H52 0.950 . S
C77 C76 1.397 . S
C77 C78 1.391 1_655 S
C78 C77 1.391 1_455 S
C78 C79 1.405 . S
C79 H53 0.950 . S
C79 C78 1.405 . S
C79 C80 1.367 . S
C80 H54 0.950 . S
C80 C75 1.386 . S
C80 C79 1.367 . S
C81 C75 1.483 . S
C81 C82 1.382 . S
C81 C83 1.403 . S
C82 H55 0.950 . S
C82 C68 1.411 . S
C82 C81 1.382 . S
C83 C67 1.411 . S
C83 C81 1.403 . S
C83 C84 1.489 . S
C84 C83 1.489 . S
C84 C85 1.383 . S
C84 C89 1.382 . S
C85 H56 0.950 1_455 S
C85 C84 1.383 . S
C85 C86 1.395 . S
C86 H57 0.950 1_455 S
C86 C85 1.395 . S
C86 C87 1.288 . S
C87 C86 1.288 . S
C87 C88 1.392 . S
C88 H58 0.951 . S
C88 C87 1.392 . S
C88 C89 1.392 . S
C89 H59 0.949 . S
C89 C84 1.382 . S
C89 C88 1.392 . S
H90 C109 0.949 . S
H91 C110 0.950 . S
H92 C112 0.950 1_565 S
H93 C113 0.950 1_565 S
H94 C115 0.950 . S
H95 C118 0.950 . S
H96 C119 0.950 . S
H97 C121 0.951 1_565 S
H98 C122 0.949 1_565 S
H99 C124 0.949 1_565 S
H100 C125 0.950 1_565 S
H101 C127 0.950 . S
H102 C128 0.950 . S
H103 C130 0.950 . S
H104 C133 0.950 . S
H105 C134 0.950 . S
H106 C136 0.951 . S
H107 C137 0.949 . S
C108 C109 1.376 . S
C108 C113 1.386 . S
C108 C114 1.483 . S
C109 H90 0.949 . S
C109 C108 1.376 . S
C109 C110 1.397 . S
C110 H91 0.950 . S
C110 C109 1.397 . S
C110 C111 1.391 . S
C111 C110 1.391 . S
C111 C112 1.405 . S
C112 H92 0.950 1_545 S
C112 C111 1.405 . S
C112 C113 1.367 . S
C113 H93 0.950 1_545 S
C113 C108 1.386 . S
C113 C112 1.367 . S
C114 C108 1.483 . S
C114 C115 1.382 . S
C114 C116 1.403 . S
C115 H94 0.950 . S
C115 C114 1.382 . S
C115 C131 1.411 . S
C116 C114 1.403 . S
C116 C117 1.489 . S
C116 C130 1.411 . S
C117 C116 1.489 . S
C117 C118 1.383 . S
C117 C122 1.382 . S
C118 H95 0.950 . S
C118 C117 1.383 . S
C118 C119 1.395 . S
C119 H96 0.950 . S
C119 C118 1.395 . S
C119 C120 1.288 . S
C120 C119 1.288 . S
C120 C121 1.392 . S
C121 H97 0.951 1_545 S
C121 C120 1.392 . S
C121 C122 1.392 . S
C122 H98 0.949 1_545 S
C122 C117 1.382 . S
C122 C121 1.392 . S
C123 C124 1.376 . S
C123 C128 1.386 . S
C123 C129 1.483 . S
C124 H99 0.949 1_545 S
C124 C123 1.376 . S
C124 C125 1.397 . S
C125 H100 0.950 1_545 S
C125 C124 1.397 . S
C125 C126 1.391 . S
C126 C125 1.391 . S
C126 C127 1.405 . S
C127 H101 0.950 . S
C127 C126 1.405 . S
C127 C128 1.367 . S
C128 H102 0.950 . S
C128 C123 1.386 . S
C128 C127 1.367 . S
C129 C123 1.483 . S
C129 C130 1.382 . S
C129 C131 1.403 . S
C130 H103 0.950 . S
C130 C116 1.411 . S
C130 C129 1.382 . S
C131 C115 1.411 . S
C131 C129 1.403 . S
C131 C132 1.489 . S
C132 C131 1.489 . S
C132 C133 1.383 . S
C132 C137 1.382 . S
C133 H104 0.950 . S
C133 C132 1.383 . S
C133 C134 1.395 . S
C134 H105 0.950 . S
C134 C133 1.395 . S
C134 C135 1.288 . S
C135 C134 1.288 . S
C135 C136 1.392 . S
C136 H106 0.951 . S
C136 C135 1.392 . S
C136 C137 1.392 . S
C137 H107 0.949 . S
C137 C132 1.382 . S
C137 C136 1.392 . S
H138 C157 0.949 . S
H139 C158 0.950 . S
H140 C160 0.950 . S
H141 C161 0.950 . S
H142 C163 0.950 . S
H143 C166 0.950 . S
H144 C167 0.950 . S
H145 C169 0.951 . S
H146 C170 0.949 . S
H147 C172 0.949 . S
H148 C173 0.950 . S
H149 C175 0.950 . S
H150 C176 0.950 . S
H151 C178 0.950 . S
H152 C181 0.950 . S
H153 C182 0.950 . S
H154 C184 0.951 . S
H155 C185 0.949 . S
C156 C157 1.376 . S
C156 C161 1.386 . S
C156 C162 1.483 . S
C157 H138 0.949 . S
C157 C156 1.376 . S
C157 C158 1.397 . S
C158 H139 0.950 . S
C158 C157 1.397 . S
C158 C159 1.391 . S
C159 C158 1.391 . S
C159 C160 1.405 . S
C160 H140 0.950 . S
C160 C159 1.405 . S
C160 C161 1.367 . S
C161 H141 0.950 . S
C161 C156 1.386 . S
C161 C160 1.367 . S
C162 C156 1.483 . S
C162 C163 1.382 . S
C162 C164 1.403 . S
C163 H142 0.950 . S
C163 C162 1.382 . S
C163 C179 1.411 . S
C164 C162 1.403 . S
C164 C165 1.489 . S
C164 C178 1.411 . S
C165 C164 1.489 . S
C165 C166 1.383 . S
C165 C170 1.382 . S
C166 H143 0.950 . S
C166 C165 1.383 . S
C166 C167 1.395 . S
C167 H144 0.950 . S
C167 C166 1.395 . S
C167 C168 1.288 . S
C168 C167 1.288 . S
C168 C169 1.392 . S
C169 H145 0.951 . S
C169 C168 1.392 . S
C169 C170 1.392 . S
C170 H146 0.949 . S
C170 C165 1.382 . S
C170 C169 1.392 . S
C171 C172 1.376 . S
C171 C176 1.386 . S
C171 C177 1.483 . S
C172 H147 0.949 . S
C172 C171 1.376 . S
C172 C173 1.397 . S
C173 H148 0.950 . S
C173 C172 1.397 . S
C173 C174 1.391 . S
C174 C173 1.391 . S
C174 C175 1.405 . S
C175 H149 0.950 . S
C175 C174 1.405 . S
C175 C176 1.367 . S
C176 H150 0.950 . S
C176 C171 1.386 . S
C176 C175 1.367 . S
C177 C171 1.483 . S
C177 C178 1.382 . S
C177 C179 1.403 . S
C178 H151 0.950 . S
C178 C164 1.411 . S
C178 C177 1.382 . S
C179 C163 1.411 . S
C179 C177 1.403 . S
C179 C180 1.489 . S
C180 C179 1.489 . S
C180 C181 1.383 . S
C180 C185 1.382 . S
C181 H152 0.950 . S
C181 C180 1.383 . S
C181 C182 1.395 . S
C182 H153 0.950 . S
C182 C181 1.395 . S
C182 C183 1.288 . S
C183 C182 1.288 . S
C183 C184 1.392 . S
C184 H154 0.951 . S
C184 C183 1.392 . S
C184 C185 1.392 . S
C185 H155 0.949 . S
C185 C180 1.382 . S
C185 C184 1.392 . S
H186 C192 0.930 . S
H187 C196 0.930 . S
H188 C201 0.929 . S
H189 C199 0.929 . S
H190 C194 0.929 . S
H191 C200 0.929 . S
C192 H186 0.930 . S
C192 C193 1.367 . S
C192 C200 1.378 . S
C193 C192 1.367 . S
C193 C201 1.433 . S
C194 H190 0.929 . S
C194 C196 1.378 . S
C194 C198 1.350 . S
C195 C198 1.463 . S
C195 C200 1.350 . S
C195 N203 1.427 . S
C196 H187 0.930 . S
C196 C194 1.378 . S
C196 C197 1.367 . S
C197 C196 1.367 . S
C197 C199 1.433 . S
C198 C194 1.350 . S
C198 C195 1.463 . S
C198 N202 1.427 . S
C199 H189 0.929 . S
C199 C197 1.433 . S
C199 N202 1.384 . S
C200 H191 0.929 . S
C200 C192 1.378 . S
C200 C195 1.350 . S
C201 H188 0.929 . S
C201 C193 1.433 . S
C201 N203 1.384 . S
N202 C198 1.427 . S
N202 C199 1.384 . S
N203 C195 1.427 . S
N203 C201 1.384 . S
H204 C210 0.930 . S
H205 C214 0.930 1_565 S
H206 C219 0.929 . S
H207 C217 0.929 . S
H208 C212 0.929 1_565 S
H209 C218 0.929 . S
C210 H204 0.930 . S
C210 C211 1.367 . S
C210 C218 1.378 . S
C211 C210 1.367 . S
C211 C219 1.433 1_545 S
C212 H208 0.929 1_545 S
C212 C214 1.378 . S
C212 C216 1.350 . S
C213 C216 1.463 . S
C213 C218 1.350 . S
C213 N221 1.427 1_545 S
C214 H205 0.930 1_545 S
C214 C212 1.378 . S
C214 C215 1.367 . S
C215 C214 1.367 . S
C215 C217 1.433 . S
C216 C212 1.350 . S
C216 C213 1.463 . S
C216 N220 1.427 . S
C217 H207 0.929 . S
C217 C215 1.433 . S
C217 N220 1.384 . S
C218 H209 0.929 . S
C218 C210 1.378 . S
C218 C213 1.350 . S
C219 H206 0.929 . S
C219 C211 1.433 1_565 S
C219 N221 1.384 . S
N220 C216 1.427 . S
N220 C217 1.384 . S
N221 C213 1.427 1_565 S
N221 C219 1.384 . S
H222 C228 0.930 . S
H223 C232 0.930 . S
H224 C237 0.929 . S
H225 C235 0.929 . S
H226 C230 0.929 . S
H227 C236 0.929 . S
C228 H222 0.930 . S
C228 C229 1.367 . S
C228 C236 1.378 . S
C229 C228 1.367 . S
C229 C237 1.433 . S
C230 H226 0.929 . S
C230 C232 1.378 . S
C230 C234 1.350 . S
C231 C234 1.463 . S
C231 C236 1.350 . S
C231 N239 1.427 . S
C232 H223 0.930 . S
C232 C230 1.378 . S
C232 C233 1.367 . S
C233 C232 1.367 . S
C233 C235 1.433 . S
C234 C230 1.350 . S
C234 C231 1.463 . S
C234 N238 1.427 . S
C235 H225 0.929 . S
C235 C233 1.433 . S
C235 N238 1.384 . S
C236 H227 0.929 . S
C236 C228 1.378 . S
C236 C231 1.350 . S
C237 H224 0.929 . S
C237 C229 1.433 . S
C237 N239 1.384 . S
N238 C234 1.427 . S
N238 C235 1.384 . S
N239 C231 1.427 . S
N239 C237 1.384 . S
H240 C246 0.930 . S
H241 C250 0.930 . S
H242 C255 0.929 1_655 S
H243 C253 0.929 . S
H244 C248 0.929 1_655 S
H245 C254 0.929 . S
C246 H240 0.930 . S
C246 C247 1.367 . S
C246 C254 1.378 . S
C247 C246 1.367 . S
C247 C255 1.433 . S
C248 H244 0.929 1_455 S
C248 C250 1.378 1_455 S
C248 C252 1.350 . S
C249 C252 1.463 . S
C249 C254 1.350 . S
C249 N257 1.427 . S
C250 H241 0.930 . S
C250 C248 1.378 1_655 S
C250 C251 1.367 1_655 S
C251 C250 1.367 1_455 S
C251 C253 1.433 . S
C252 C248 1.350 . S
C252 C249 1.463 . S
C252 N256 1.427 . S
C253 H243 0.929 . S
C253 C251 1.433 . S
C253 N256 1.384 . S
C254 H245 0.929 . S
C254 C246 1.378 . S
C254 C249 1.350 . S
C255 H242 0.929 1_455 S
C255 C247 1.433 . S
C255 N257 1.384 . S
N256 C252 1.427 . S
N256 C253 1.384 . S
N257 C249 1.427 . S
N257 C255 1.384 . S
H258 C264 0.927 1_565 S
H259 C268 0.930 . S
H260 C273 0.929 . S
H261 C271 0.940 . S
H262 C266 0.929 . S
H263 C272 0.931 . S
C264 H258 0.927 1_545 S
C264 C265 1.367 . S
C264 C272 1.378 . S
C265 C264 1.367 . S
C265 C273 1.433 . S
C266 H262 0.929 . S
C266 C268 1.378 . S
C266 C270 1.350 . S
C267 C270 1.463 . S
C267 C272 1.350 . S
C267 N275 1.427 . S
C268 H259 0.930 . S
C268 C266 1.378 . S
C268 C269 1.367 . S
C269 C268 1.367 . S
C269 C271 1.433 . S
C270 C266 1.350 . S
C270 C267 1.463 . S
C270 N274 1.427 . S
C271 H261 0.940 . S
C271 C269 1.433 . S
C271 N274 1.384 . S
C272 H263 0.931 . S
C272 C264 1.378 . S
C272 C267 1.350 . S
C273 H260 0.929 . S
C273 C265 1.433 . S
C273 N275 1.384 . S
N274 C270 1.427 . S
N274 C271 1.384 . S
N275 C267 1.427 . S
N275 C273 1.384 . S
H276 C282 0.930 . S
H277 C286 0.930 . S
H278 C291 0.929 . S
H279 C289 0.929 . S
H280 C284 0.929 . S
H281 C290 0.929 . S
C282 H276 0.930 . S
C282 C283 1.367 . S
C282 C290 1.378 . S
C283 C282 1.367 . S
C283 C291 1.433 . S
C284 H280 0.929 . S
C284 C286 1.378 . S
C284 C288 1.350 . S
C285 C288 1.463 . S
C285 C290 1.350 . S
C285 N293 1.427 . S
C286 H277 0.930 . S
C286 C284 1.378 . S
C286 C287 1.367 . S
C287 C286 1.367 . S
C287 C289 1.433 . S
C288 C284 1.350 . S
C288 C285 1.463 . S
C288 N292 1.427 . S
C289 H279 0.929 . S
C289 C287 1.433 . S
C289 N292 1.384 . S
C290 H281 0.929 . S
C290 C282 1.378 . S
C290 C285 1.350 . S
C291 H278 0.929 . S
C291 C283 1.433 . S
C291 N293 1.384 . S
N292 C288 1.427 . S
N292 C289 1.384 . S
N293 C285 1.427 . S
N293 C291 1.384 . S
H294 C300 0.930 . S
H295 C304 0.930 . S
H296 C309 0.929 . S
H297 C307 0.929 . S
H298 C302 0.929 . S
H299 C308 0.929 . S
C300 H294 0.930 . S
C300 C301 1.367 . S
C300 C308 1.378 . S
C301 C300 1.367 . S
C301 C309 1.433 . S
C302 H298 0.929 . S
C302 C304 1.378 . S
C302 C306 1.350 . S
C303 C306 1.463 . S
C303 C308 1.350 . S
C303 N311 1.427 . S
C304 H295 0.930 . S
C304 C302 1.378 . S
C304 C305 1.367 . S
C305 C304 1.367 . S
C305 C307 1.433 . S
C306 C302 1.350 . S
C306 C303 1.463 . S
C306 N310 1.427 . S
C307 H297 0.929 . S
C307 C305 1.433 . S
C307 N310 1.384 . S
C308 H299 0.929 . S
C308 C300 1.378 . S
C308 C303 1.350 . S
C309 H296 0.929 . S
C309 C301 1.433 . S
C309 N311 1.384 . S
N310 C306 1.427 . S
N310 C307 1.384 . S
N311 C303 1.427 . S
N311 C309 1.384 . S
H312 C318 0.930 . S
H313 C322 0.930 . S
H314 C327 0.929 1_545 S
H315 C325 0.929 . S
H316 C320 0.929 . S
H317 C326 0.929 . S
C318 H312 0.930 . S
C318 C319 1.367 1_554 S
C318 C326 1.378 1_554 S
C319 C318 1.367 1_556 S
C319 C327 1.433 . S
C320 H316 0.929 . S
C320 C322 1.378 . S
C320 C324 1.350 . S
C321 C324 1.463 . S
C321 C326 1.350 . S
C321 N329 1.427 . S
C322 H313 0.930 . S
C322 C320 1.378 . S
C322 C323 1.367 . S
C323 C322 1.367 . S
C323 C325 1.433 . S
C324 C320 1.350 . S
C324 C321 1.463 . S
C324 N328 1.427 . S
C325 H315 0.929 . S
C325 C323 1.433 . S
C325 N328 1.384 . S
C326 H317 0.929 . S
C326 C318 1.378 1_556 S
C326 C321 1.350 . S
C327 H314 0.929 1_565 S
C327 C319 1.433 . S
C327 N329 1.384 . S
N328 C324 1.427 . S
N328 C325 1.384 . S
N329 C321 1.427 . S
N329 C327 1.384 . S
H330 C336 0.930 . S
H331 C340 0.930 . S
H332 C345 0.929 . S
H333 C343 0.929 . S
H334 C338 0.929 . S
H335 C344 0.929 . S
C336 H330 0.930 . S
C336 C337 1.367 1_455 S
C336 C344 1.378 . S
C337 C336 1.367 1_655 S
C337 C345 1.433 . S
C338 H334 0.929 . S
C338 C340 1.378 . S
C338 C342 1.350 1_655 S
C339 C342 1.463 . S
C339 C344 1.350 . S
C339 N347 1.427 1_455 S
C340 H331 0.930 . S
C340 C338 1.378 . S
C340 C341 1.367 1_655 S
C341 C340 1.367 1_455 S
C341 C343 1.433 . S
C342 C338 1.350 1_455 S
C342 C339 1.463 . S
C342 N346 1.427 . S
C343 H333 0.929 . S
C343 C341 1.433 . S
C343 N346 1.384 . S
C344 H335 0.929 . S
C344 C336 1.378 . S
C344 C339 1.350 . S
C345 H332 0.929 . S
C345 C337 1.433 . S
C345 N347 1.384 . S
N346 C342 1.427 . S
N346 C343 1.384 . S
N347 C339 1.427 1_655 S
N347 C345 1.384 . S
H348 C354 0.930 . S
H349 C358 0.930 . S
H350 C363 0.929 . S
H351 C361 0.929 . S
H352 C356 0.929 . S
H353 C362 0.929 . S
C354 H348 0.930 . S
C354 C355 1.367 1_565 S
C354 C362 1.378 . S
C355 C354 1.367 1_545 S
C355 C363 1.433 . S
C356 H352 0.929 . S
C356 C358 1.378 . S
C356 C360 1.350 . S
C357 C360 1.463 . S
C357 C362 1.350 1_545 S
C357 N365 1.427 . S
C358 H349 0.930 . S
C358 C356 1.378 . S
C358 C359 1.367 . S
C359 C358 1.367 . S
C359 C361 1.433 . S
C360 C356 1.350 . S
C360 C357 1.463 . S
C360 N364 1.427 . S
C361 H351 0.929 . S
C361 C359 1.433 . S
C361 N364 1.384 . S
C362 H353 0.929 . S
C362 C354 1.378 . S
C362 C357 1.350 1_565 S
C363 H350 0.929 . S
C363 C355 1.433 . S
C363 N365 1.384 . S
N364 C360 1.427 . S
N364 C361 1.384 . S
N365 C357 1.427 . S
N365 C363 1.384 . S
H366 C372 0.930 . S
H367 C376 0.930 . S
H368 C381 0.929 1_554 S
H369 C379 0.929 . S
H370 C374 0.929 . S
H371 C380 0.929 . S
C372 H366 0.930 . S
C372 C373 1.367 . S
C372 C380 1.378 . S
C373 C372 1.367 . S
C373 C381 1.433 . S
C374 H370 0.929 . S
C374 C376 1.378 . S
C374 C378 1.350 . S
C375 C378 1.463 . S
C375 C380 1.350 . S
C375 N383 1.427 . S
C376 H367 0.930 . S
C376 C374 1.378 . S
C376 C377 1.367 . S
C377 C376 1.367 . S
C377 C379 1.433 . S
C378 C374 1.350 . S
C378 C375 1.463 . S
C378 N382 1.427 . S
C379 H369 0.929 . S
C379 C377 1.433 . S
C379 N382 1.384 . S
C380 H371 0.929 . S
C380 C372 1.378 . S
C380 C375 1.350 . S
C381 H368 0.929 1_556 S
C381 C373 1.433 . S
C381 N383 1.384 . S
N382 C378 1.427 . S
N382 C379 1.384 . S
N383 C375 1.427 . S
N383 C381 1.384 . S
H384 C390 0.930 . S
H385 C394 0.930 . S
H386 C399 0.929 1_655 S
H387 C397 0.929 . S
H388 C392 0.929 . S
H389 C398 0.929 . S
C390 H384 0.930 . S
C390 C391 1.367 . S
C390 C398 1.378 . S
C391 C390 1.367 . S
C391 C399 1.433 . S
C392 H388 0.929 . S
C392 C394 1.378 . S
C392 C396 1.350 1_655 S
C393 C396 1.463 . S
C393 C398 1.350 . S
C393 N401 1.427 . S
C394 H385 0.930 . S
C394 C392 1.378 . S
C394 C395 1.367 1_655 S
C395 C394 1.367 1_455 S
C395 C397 1.433 . S
C396 C392 1.350 1_455 S
C396 C393 1.463 . S
C396 N400 1.427 . S
C397 H387 0.929 . S
C397 C395 1.433 . S
C397 N400 1.384 . S
C398 H389 0.929 . S
C398 C390 1.378 . S
C398 C393 1.350 . S
C399 H386 0.929 1_455 S
C399 C391 1.433 . S
C399 N401 1.384 . S
N400 C396 1.427 . S
N400 C397 1.384 . S
N401 C393 1.427 . S
N401 C399 1.384 . S
C197 C63 1.399 . S
C193 C11 1.378 . S
C211 C26 1.543 . S
C215 C111 1.562 . S
C229 C40 1.425 . S
C233 C183 1.423 . S
C247 C5 1.236 . S
C251 C87 1.391 . S
C269 C135 1.537 . S
C265 C18 1.533 . S
C283 C32 1.405 . S
C287 C159 1.423 . S
C305 C120 1.278 . S
C301 C39 1.262 . S
C319 C4 1.419 1_566 S
C323 C174 1.428 . S
C341 C78 1.403 . S
C337 C19 1.264 . S
C359 C126 1.319 . S
C355 C33 1.163 1_545 S
C377 C168 1.449 . S
C373 C12 1.442 1_556 S
C391 C25 1.380 . S
C395 C72 1.405 . S
