# Generated by pormake.
# Topology llj, (12,3)-cn, num edge types: 1
# Building blocks:
#     Node 0, Type 0, BuildingBlock: QEWDON_clean_sbu_0, # of connection points: 12
#     Node 1, Type 0, BuildingBlock: QEWDON_clean_sbu_0, # of connection points: 12
#     Node 2, Type 1, BuildingBlock: BELTOD_clean_linker_0, # of connection points: 3
#     Node 3, Type 1, BuildingBlock: BELTOD_clean_linker_0, # of connection points: 3
#     Node 4, Type 1, BuildingBlock: BELTOD_clean_linker_0, # of connection points: 3
#     Node 5, Type 1, BuildingBlock: BELTOD_clean_linker_0, # of connection points: 3
#     Node 6, Type 1, BuildingBlock: BELTOD_clean_linker_0, # of connection points: 3
#     Node 7, Type 1, BuildingBlock: BELTOD_clean_linker_0, # of connection points: 3
#     Node 8, Type 1, BuildingBlock: BELTOD_clean_linker_0, # of connection points: 3
#     Node 9, Type 1, BuildingBlock: BELTOD_clean_linker_0, # of connection points: 3
#     Edge 10, Type (0, 1), BuildingBlock: KIFKEQ_clean_linker_1, # of connection points: 2
#     Edge 11, Type (0, 1), BuildingBlock: KIFKEQ_clean_linker_1, # of connection points: 2
#     Edge 12, Type (0, 1), BuildingBlock: KIFKEQ_clean_linker_1, # of connection points: 2
#     Edge 13, Type (0, 1), BuildingBlock: KIFKEQ_clean_linker_1, # of connection points: 2
#     Edge 14, Type (0, 1), BuildingBlock: KIFKEQ_clean_linker_1, # of connection points: 2
#     Edge 15, Type (0, 1), BuildingBlock: KIFKEQ_clean_linker_1, # of connection points: 2
#     Edge 16, Type (0, 1), BuildingBlock: KIFKEQ_clean_linker_1, # of connection points: 2
#     Edge 17, Type (0, 1), BuildingBlock: KIFKEQ_clean_linker_1, # of connection points: 2
#     Edge 18, Type (0, 1), BuildingBlock: KIFKEQ_clean_linker_1, # of connection points: 2
#     Edge 19, Type (0, 1), BuildingBlock: KIFKEQ_clean_linker_1, # of connection points: 2
#     Edge 20, Type (0, 1), BuildingBlock: KIFKEQ_clean_linker_1, # of connection points: 2
#     Edge 21, Type (0, 1), BuildingBlock: KIFKEQ_clean_linker_1, # of connection points: 2
#     Edge 22, Type (0, 1), BuildingBlock: KIFKEQ_clean_linker_1, # of connection points: 2
#     Edge 23, Type (0, 1), BuildingBlock: KIFKEQ_clean_linker_1, # of connection points: 2
#     Edge 24, Type (0, 1), BuildingBlock: KIFKEQ_clean_linker_1, # of connection points: 2
#     Edge 25, Type (0, 1), BuildingBlock: KIFKEQ_clean_linker_1, # of connection points: 2
#     Edge 26, Type (0, 1), BuildingBlock: KIFKEQ_clean_linker_1, # of connection points: 2
#     Edge 27, Type (0, 1), BuildingBlock: KIFKEQ_clean_linker_1, # of connection points: 2
#     Edge 28, Type (0, 1), BuildingBlock: KIFKEQ_clean_linker_1, # of connection points: 2
#     Edge 29, Type (0, 1), BuildingBlock: KIFKEQ_clean_linker_1, # of connection points: 2
#     Edge 30, Type (0, 1), BuildingBlock: KIFKEQ_clean_linker_1, # of connection points: 2
#     Edge 31, Type (0, 1), BuildingBlock: KIFKEQ_clean_linker_1, # of connection points: 2
#     Edge 32, Type (0, 1), BuildingBlock: KIFKEQ_clean_linker_1, # of connection points: 2
#     Edge 33, Type (0, 1), BuildingBlock: KIFKEQ_clean_linker_1, # of connection points: 2
# Relax obj value: 0.009
# Max RMSD: 0.045
# Mean RMSD: 0.042
data_MOF--net-llj--node1-QEWDON_clean_sbu_0--node2-BELTOD_clean_linker_0--edge1-KIFKEQ_clean_linker_1
_symmetry_space_group_name_H-M    P1
_symmetry_Int_Tables_number       1
_symmetry_cell_setting            triclinic
loop_
_symmetry_equiv_pos_as_xyz
'x, y, z'
_cell_length_a     42.927431
_cell_length_b     42.941975
_cell_length_c     29.605715
_cell_angle_alpha  89.431155
_cell_angle_beta   90.086282
_cell_angle_gamma 89.863975
loop_
_atom_site_label
_atom_site_type_symbol
_atom_site_fract_x
_atom_site_fract_y
_atom_site_fract_z
_atom_type_partial_charge
Zn0 Zn 0.92986 0.05606 0.96564 0.0
Zn1 Zn 0.93179 0.05873 0.07373 0.0
O2 O 0.95716 0.04676 0.02017 0.0
H3 H 0.97277 0.03052 0.02062 0.0
C4 C 0.8955 0.97801 0.90151 0.0
O5 O 0.87142 0.97488 0.92854 0.0
Zn6 Zn 0.03179 0.95218 0.07523 0.0
Zn7 Zn 0.03495 0.94768 0.97008 0.0
O8 O 0.00465 0.95553 0.02079 0.0
H9 H 0.98636 0.96857 0.01784 0.0
Zn10 Zn 0.92195 0.94845 0.979 0.0
O11 O 0.91195 0.98084 0.02584 0.0
Zn12 Zn 0.91533 0.95359 0.08056 0.0
H13 H 0.89689 0.99726 0.02065 0.0
Zn14 Zn 0.04449 0.05799 0.95004 0.0
O15 O 0.0379 0.03196 0.00654 0.0
H16 H 0.02734 0.01215 0.00699 0.0
Zn17 Zn 0.04284 0.06119 0.05772 0.0
C18 C 0.06637 0.00583 0.89714 0.0
O19 O 0.07007 0.99411 0.93793 0.0
O20 O 0.89457 0.08728 0.9795 0.0
O21 O 0.89752 0.08917 0.05454 0.0
O22 O 0.07205 0.92022 0.98918 0.0
O23 O 0.06855 0.92245 0.064 0.0
O24 O 0.8994 0.90703 0.99356 0.0
O25 O 0.89184 0.91313 0.06738 0.0
C26 C 0.98832 0.0793 0.11643 0.0
O27 O 0.06928 0.0982 0.96211 0.0
O28 O 0.06754 0.09904 0.03719 0.0
O29 O 0.01533 0.93899 0.90806 0.0
C30 C 0.88533 0.09807 0.01717 0.0
O31 O 0.9529 0.05968 0.90413 0.0
C32 C 0.97586 0.93726 0.1262 0.0
O33 O 0.92154 0.96678 0.91398 0.0
C34 C 0.08172 0.91229 0.02835 0.0
O35 O 0.05553 0.03327 0.89261 0.0
C36 C 0.9024 0.00661 0.13278 0.0
O37 O 0.95903 0.07788 0.12189 0.0
O38 O -0.0006 0.07129 0.07845 0.0
C39 C 0.88827 0.89745 0.03118 0.0
O40 O 0.00549 0.93726 0.12726 0.0
O41 O 0.9617 0.9465 0.09073 0.0
C42 C 0.06256 0.01091 0.1153 0.0
O43 O 0.89799 0.97731 0.1344 0.0
O44 O 0.91533 0.01775 0.09757 0.0
C45 C 0.0764 0.11075 -0.00042 0.0
O46 O 0.06557 0.04 0.1089 0.0
O47 O 0.04652 0.99583 0.0868 0.0
C48 C 0.98915 0.92533 0.90891 0.0
O49 O 0.97661 0.91834 0.94817 0.0
C50 C 0.95465 0.08581 0.88376 0.0
O51 O 0.94059 0.11008 0.90122 0.0
Zn52 Zn 0.4416 0.5527 0.47214 0.0
Zn53 Zn 0.43818 0.55331 0.58049 0.0
O54 O 0.46561 0.54157 0.52896 0.0
H55 H 0.48186 0.52604 0.53065 0.0
C56 C 0.40938 0.45842 0.38004 0.0
O57 O 0.39194 0.4334 0.38333 0.0
Zn58 Zn 0.53678 0.4573 0.57677 0.0
Zn59 Zn 0.53764 0.44979 0.47105 0.0
O60 O 0.50913 0.45971 0.5229 0.0
H61 H 0.48972 0.471 0.52012 0.0
Zn62 Zn 0.42518 0.44677 0.47754 0.0
O63 O 0.4161 0.47787 0.52656 0.0
Zn64 Zn 0.42011 0.44993 0.58049 0.0
H65 H 0.40148 0.49484 0.52261 0.0
Zn66 Zn 0.54801 0.57061 0.44988 0.0
O67 O 0.54157 0.54134 0.50311 0.0
H68 H 0.53777 0.51921 0.50161 0.0
Zn69 Zn 0.54573 0.56719 0.55828 0.0
C70 C 0.56226 0.52337 0.38192 0.0
O71 O 0.5428 0.50657 0.40612 0.0
O72 O 0.40578 0.58365 0.48361 0.0
O73 O 0.40513 0.58444 0.55885 0.0
O74 O 0.57546 0.42322 0.49058 0.0
O75 O 0.57366 0.42781 0.56535 0.0
O76 O 0.40273 0.40522 0.49011 0.0
O77 O 0.39845 0.40876 0.56488 0.0
C78 C 0.4927 0.57554 0.62509 0.0
O79 O 0.56556 0.61336 0.46771 0.0
O80 O 0.56414 0.60934 0.54258 0.0
O81 O 0.5151 0.43792 0.41225 0.0
C82 C 0.39476 0.59389 0.5206 0.0
O83 O 0.46708 0.557 0.41284 0.0
C84 C 0.48157 0.43927 0.62879 0.0
O85 O 0.42546 0.46686 0.41381 0.0
C86 C 0.58613 0.41666 0.52976 0.0
O87 O 0.56787 0.55121 0.39339 0.0
C88 C 0.4051 0.5009 0.63415 0.0
O89 O 0.46382 0.57117 0.63165 0.0
O90 O 0.50319 0.57082 0.58562 0.0
C91 C 0.39344 0.39428 0.52799 0.0
O92 O 0.5111 0.4421 0.62976 0.0
O93 O 0.46682 0.44607 0.59263 0.0
C94 C 0.57131 0.51625 0.60932 0.0
O95 O 0.40014 0.47171 0.63406 0.0
O96 O 0.42017 0.51233 0.60103 0.0
C97 C 0.57071 0.62458 0.50668 0.0
O98 O 0.57375 0.54535 0.60244 0.0
O99 O 0.55156 0.50138 0.58586 0.0
C100 C 0.49121 0.42076 0.4164 0.0
O101 O 0.48255 0.41171 0.457 0.0
C102 C 0.48184 0.58204 0.40486 0.0
O103 O 0.48031 0.6047 0.43428 0.0
P104 P 0.37678 0.25798 0.01893 0.0
H105 H 0.43145 0.25614 0.07709 0.0
H106 H 0.44682 0.28649 0.14271 0.0
H107 H 0.3594 0.33653 0.13615 0.0
H108 H 0.34391 0.30548 0.07106 0.0
H109 H 0.33376 0.25523 0.94242 0.0
H110 H 0.27905 0.24076 0.93634 0.0
H111 H 0.27567 0.22485 0.08062 0.0
H112 H 0.33045 0.23991 0.08657 0.0
H113 H 0.4217 0.25031 0.94536 0.0
H114 H 0.35643 0.31986 0.99045 0.0
O115 O 0.3964 0.22442 0.01731 0.0
H116 H 0.43613 0.28383 0.88159 0.0
H117 H 0.37059 0.35345 0.92659 0.0
C118 C 0.38632 0.27815 0.06989 0.0
C119 C 0.41539 0.27329 0.09024 0.0
C120 C 0.42428 0.2909 0.12742 0.0
C121 C 0.40435 0.314 0.14452 0.0
C122 C 0.37509 0.31865 0.12413 0.0
C123 C 0.36623 0.30096 0.08692 0.0
C124 C 0.33593 0.24941 0.01513 0.0
C125 C 0.32115 0.2492 0.97289 0.0
C126 C 0.28991 0.24069 0.96938 0.0
C127 C 0.273 0.23185 0.00803 0.0
C128 C 0.28791 0.23216 0.05036 0.0
C129 C 0.31922 0.24064 0.0538 0.0
C130 C 0.38808 0.2827 0.97259 0.0
C131 C 0.41051 0.2728 0.94158 0.0
C132 C 0.41861 0.29191 0.90503 0.0
C133 C 0.40442 0.32123 0.89908 0.0
C134 C 0.38216 0.33115 0.93059 0.0
C135 C 0.37401 0.31196 0.967 0.0
P136 P 0.74754 0.40746 0.00411 0.0
H137 H 0.74996 0.39937 0.10177 0.0
H138 H 0.71543 0.41611 0.16269 0.0
H139 H 0.65107 0.45376 0.06379 0.0
H140 H 0.68571 0.43761 0.00348 0.0
H141 H 0.80403 0.37561 0.97683 0.0
H142 H 0.81985 0.32104 0.97806 0.0
H143 H 0.73074 0.2957 0.03538 0.0
H144 H 0.71536 0.35071 0.03489 0.0
H145 H 0.75082 0.46228 0.94571 0.0
H146 H 0.7057 0.37266 0.94489 0.0
O147 O 0.77928 0.42924 0.0112 0.0
H148 H 0.72297 0.4772 0.87686 0.0
H149 H 0.67736 0.38759 0.87621 0.0
C150 C 0.72043 0.41706 0.04814 0.0
C151 C 0.72825 0.41095 0.0933 0.0
C152 C 0.70843 0.42041 0.12801 0.0
C153 C 0.68053 0.43633 0.11802 0.0
C154 C 0.67257 0.4419 0.0726 0.0
C155 C 0.69236 0.43242 0.03799 0.0
C156 C 0.75884 0.36718 0.00662 0.0
C157 C 0.788 0.35833 0.99 0.0
C158 C 0.79687 0.32707 0.9903 0.0
C159 C 0.77652 0.30397 0.00674 0.0
C160 C 0.7471 0.31295 0.02305 0.0
C161 C 0.73828 0.34435 0.02277 0.0
C162 C 0.73078 0.41617 0.94982 0.0
C163 C 0.73536 0.44559 0.93021 0.0
C164 C 0.71917 0.4542 0.89114 0.0
C165 C 0.69787 0.4336 0.87126 0.0
C166 C 0.6939 0.4038 0.89045 0.0
C167 C 0.7101 0.39524 0.92965 0.0
P168 P 0.69665 0.61271 0.02023 0.0
H169 H 0.71019 0.61699 0.92394 0.0
H170 H 0.67736 0.61482 0.85637 0.0
H171 H 0.59588 0.60553 0.94116 0.0
H172 H 0.62844 0.60928 0.00783 0.0
H173 H 0.75886 0.62556 0.05519 0.0
H174 H 0.79012 0.67292 0.0591 0.0
H175 H 0.7146 0.72524 -0.00197 0.0
H176 H 0.68381 0.67748 0.99332 0.0
H177 H 0.66516 0.55837 0.05758 0.0
H178 H 0.67655 0.65496 0.09255 0.0
O179 O 0.72101 0.58257 0.01567 0.0
H180 H 0.62999 0.55109 0.12182 0.0
H181 H 0.64187 0.64768 0.15711 0.0
C182 C 0.6719 0.61309 0.97095 0.0
C183 C 0.6852 0.61478 0.92781 0.0
C184 C 0.6664 0.61327 0.88923 0.0
C185 C 0.63389 0.60982 0.89314 0.0
C186 C 0.62071 0.60862 0.93663 0.0
C187 C 0.63948 0.61044 0.97506 0.0
C188 C 0.71934 0.64791 0.02304 0.0
C189 C 0.74913 0.6472 0.04238 0.0
C190 C 0.76687 0.6744 0.04499 0.0
C191 C 0.75498 0.70296 0.02868 0.0
C192 C 0.72474 0.7036 0.01013 0.0
C193 C 0.70706 0.67633 0.00749 0.0
C194 C 0.67382 0.60707 0.07065 0.0
C195 C 0.66052 0.57785 0.07955 0.0
C196 C 0.64029 0.57376 0.11607 0.0
C197 C 0.63332 0.59876 0.14465 0.0
C198 C 0.64715 0.62788 0.13604 0.0
C199 C 0.667 0.63207 0.09909 0.0
P200 P 0.34636 0.6943 0.03073 0.0
H201 H 0.36626 0.70971 0.93882 0.0
H202 H 0.37119 0.67867 0.87047 0.0
H203 H 0.3334 0.59901 0.94204 0.0
H204 H 0.32717 0.63066 0.00929 0.0
H205 H 0.32107 0.73182 0.10392 0.0
H206 H 0.27616 0.76714 0.10815 0.0
H207 H 0.24936 0.74138 0.97297 0.0
H208 H 0.29387 0.70617 0.969 0.0
H209 H 0.40098 0.65788 0.0525 0.0
H210 H 0.30852 0.6696 0.1067 0.0
O211 O 0.37551 0.71992 0.0292 0.0
H212 H 0.41156 0.61689 0.10846 0.0
H213 H 0.31938 0.62913 0.1637 0.0
C214 C 0.34712 0.67225 0.97934 0.0
C215 C 0.35884 0.68562 0.93958 0.0
C216 C 0.36182 0.66775 0.90062 0.0
C217 C 0.35324 0.6361 0.90086 0.0
C218 C 0.34014 0.62328 0.9404 0.0
C219 C 0.33685 0.64129 0.97913 0.0
C220 C 0.31064 0.71604 0.03644 0.0
C221 C 0.3051 0.73329 0.07562 0.0
C222 C 0.27949 0.75347 0.07799 0.0
C223 C 0.25939 0.75713 0.04078 0.0
C224 C 0.26465 0.73925 0.00199 0.0
C225 C 0.29003 0.71891 -0.00016 0.0
C226 C 0.35425 0.66722 0.07608 0.0
C227 C 0.38317 0.65201 0.077 0.0
C228 C 0.38909 0.62844 0.10863 0.0
C229 C 0.36626 0.61991 0.14024 0.0
C230 C 0.33742 0.63551 0.13982 0.0
C231 C 0.33129 0.65875 0.10749 0.0
P232 P 0.86909 0.75944 0.51723 0.0
H233 H 0.91973 0.75034 0.5826 0.0
H234 H 0.93853 0.78206 0.64504 0.0
H235 H 0.86751 0.85086 0.61522 0.0
H236 H 0.84832 0.81855 0.55386 0.0
H237 H 0.82222 0.74614 0.44885 0.0
H238 H 0.76621 0.73684 0.45294 0.0
H239 H 0.7694 0.74843 0.59774 0.0
H240 H 0.82553 0.75718 0.59347 0.0
H241 H 0.92121 0.75677 0.45407 0.0
H242 H 0.83797 0.81166 0.47219 0.0
O243 O 0.88707 0.72496 0.51628 0.0
H244 H 0.93555 0.78921 0.38905 0.0
H245 H 0.85246 0.84462 0.40803 0.0
C246 C 0.88248 0.78201 0.56403 0.0
C247 C 0.9081 0.77214 0.58975 0.0
C248 C 0.91899 0.79044 0.62514 0.0
C249 C 0.90451 0.81901 0.63505 0.0
C250 C 0.8789 0.82881 0.60887 0.0
C251 C 0.86802 0.81046 0.57363 0.0
C252 C 0.82784 0.75312 0.52068 0.0
C253 C 0.81079 0.74705 0.4814 0.0
C254 C 0.77875 0.74196 0.48375 0.0
C255 C 0.76333 0.74239 0.5256 0.0
C256 C 0.78063 0.74806 0.56502 0.0
C257 C 0.81269 0.75321 0.56257 0.0
C258 C 0.87827 0.78147 0.46726 0.0
C259 C 0.90589 0.77561 0.44376 0.0
C260 C 0.91418 0.79436 0.40693 0.0
C261 C 0.8951 0.81948 0.39344 0.0
C262 C 0.86738 0.82518 0.41715 0.0
C263 C 0.85913 0.8064 0.4539 0.0
P264 P 0.23729 0.89471 0.50808 0.0
H265 H 0.25115 0.9153 0.59949 0.0
H266 H 0.21822 0.92613 0.66462 0.0
H267 H 0.13747 0.89574 0.58965 0.0
H268 H 0.17056 0.88578 0.52422 0.0
H269 H 0.29561 0.86769 0.47719 0.0
H270 H 0.3156 0.81452 0.47641 0.0
H271 H 0.22833 0.78125 0.53114 0.0
H272 H 0.20884 0.83478 0.53294 0.0
H273 H 0.22149 0.95489 0.46955 0.0
H274 H 0.20375 0.85852 0.43925 0.0
O275 O 0.26799 0.91835 0.51166 0.0
H276 H 0.18939 0.971 0.40531 0.0
H277 H 0.17106 0.87445 0.37525 0.0
C278 C 0.21317 0.90042 0.55684 0.0
C279 C 0.22637 0.91096 0.59713 0.0
C280 C 0.20752 0.91685 0.63448 0.0
C281 C 0.17514 0.91196 0.63228 0.0
C282 C 0.16221 0.90028 0.5922 0.0
C283 C 0.18111 0.89451 0.55482 0.0
C284 C 0.25103 0.8552 0.50598 0.0
C285 C 0.28081 0.84896 0.48913 0.0
C286 C 0.29209 0.81847 0.4883 0.0
C287 C 0.27359 0.79357 0.50384 0.0
C288 C 0.24336 0.79992 0.51965 0.0
C289 C 0.23216 0.8305 0.5206 0.0
C290 C 0.21547 0.90558 0.45856 0.0
C291 C 0.21086 0.9372 0.44878 0.0
C292 C 0.19222 0.94636 0.41236 0.0
C293 C 0.17758 0.92399 0.38527 0.0
C294 C 0.18232 0.89222 0.39517 0.0
C295 C 0.201 0.88308 0.43174 0.0
P296 P 0.1836 0.12373 0.51884 0.0
H297 H 0.20123 0.11166 0.42525 0.0
H298 H 0.1707 0.1056 0.35555 0.0
H299 H 0.08614 0.12213 0.43017 0.0
H300 H 0.11636 0.12931 0.49896 0.0
H301 H 0.21451 0.15463 0.59368 0.0
H302 H 0.2498 0.19923 0.5975 0.0
H303 H 0.23951 0.21381 0.45371 0.0
H304 H 0.20413 0.16958 0.45012 0.0
H305 H 0.1623 0.07038 0.57198 0.0
H306 H 0.14635 0.16953 0.5681 0.0
O307 O 0.20853 0.09387 0.52058 0.0
H308 H 0.12323 0.06472 0.63139 0.0
H309 H 0.10722 0.16409 0.62786 0.0
C310 C 0.1612 0.12089 0.46743 0.0
C311 C 0.17615 0.11432 0.42648 0.0
C312 C 0.15879 0.11087 0.3868 0.0
C313 C 0.12619 0.11325 0.38787 0.0
C314 C 0.11128 0.11999 0.42875 0.0
C315 C 0.12865 0.12412 0.4681 0.0
C316 C 0.20629 0.15894 0.52176 0.0
C317 C 0.2194 0.16777 0.56311 0.0
C318 C 0.23959 0.19323 0.56526 0.0
C319 C 0.2475 0.20994 0.52587 0.0
C320 C 0.23409 0.20118 0.48455 0.0
C321 C 0.21367 0.17592 0.48253 0.0
C322 C 0.15773 0.12045 0.56647 0.0
C323 C 0.15082 0.09102 0.58458 0.0
C324 C 0.12844 0.08781 0.61848 0.0
C325 C 0.11221 0.11398 0.63439 0.0
C326 C 0.11922 0.1435 0.61611 0.0
C327 C 0.14181 0.14668 0.5824 0.0
P328 P 0.85527 0.20394 0.53037 0.0
H329 H 0.87241 0.21839 0.43706 0.0
H330 H 0.87649 0.18662 0.36929 0.0
H331 H 0.84497 0.10634 0.44574 0.0
H332 H 0.83955 0.13857 0.51239 0.0
H333 H 0.828 0.23887 0.60452 0.0
H334 H 0.78163 0.27181 0.61034 0.0
H335 H 0.75917 0.25231 0.47106 0.0
H336 H 0.8048 0.21875 0.46612 0.0
H337 H 0.91157 0.17736 0.5699 0.0
H338 H 0.81264 0.17266 0.59361 0.0
O339 O 0.88457 0.22938 0.52821 0.0
H340 H 0.92042 0.13817 0.62902 0.0
H341 H 0.82125 0.13425 0.65371 0.0
C342 C 0.85633 0.18074 0.47998 0.0
C343 C 0.86625 0.19398 0.43906 0.0
C344 C 0.86875 0.17568 0.4004 0.0
C345 C 0.86149 0.14371 0.40203 0.0
C346 C 0.85056 0.13086 0.44294 0.0
C347 C 0.84775 0.14927 0.48139 0.0
C348 C 0.81959 0.22589 0.5352 0.0
C349 C 0.81276 0.24133 0.5755 0.0
C350 C 0.7864 0.26042 0.57862 0.0
C351 C 0.76654 0.26476 0.54119 0.0
C352 C 0.77353 0.2491 0.50086 0.0
C353 C 0.7998 0.22992 0.49789 0.0
C354 C 0.86155 0.17846 0.57818 0.0
C355 C 0.89181 0.16841 0.58862 0.0
C356 C 0.89683 0.14601 0.62244 0.0
C357 C 0.87156 0.13303 0.64618 0.0
C358 C 0.84123 0.14347 0.63579 0.0
C359 C 0.83627 0.1658 0.60185 0.0
H360 H 0.10396 0.13755 0.07281 0.0
H361 H 0.09987 0.14297 0.92698 0.0
H362 H 0.1483 0.17252 0.07256 0.0
H363 H 0.14376 0.17882 0.92692 0.0
H364 H 0.25 0.19224 0.94503 0.0
H365 H 0.19821 0.16986 0.94126 0.0
H366 H 0.17066 0.22302 0.05788 0.0
H367 H 0.22296 0.24528 0.06187 0.0
C368 C 0.11198 0.14683 0.04072 0.0
C369 C 0.09873 0.13695 -0.00017 0.0
C370 C 0.13737 0.16708 0.04062 0.0
C371 C 0.14992 0.17807 -0.00034 0.0
C372 C 0.13508 0.17018 0.95899 0.0
C373 C 0.10979 0.14977 0.95905 0.0
C374 C 0.23273 0.19966 0.96932 0.0
C375 C 0.24057 0.22044 0.00383 0.0
C376 C 0.20295 0.18691 0.96708 0.0
C377 C 0.18022 0.19469 -0.00077 0.0
C378 C 0.18775 0.21628 0.03292 0.0
C379 C 0.21766 0.22898 0.03525 0.0
H380 H 0.86833 0.13495 0.08789 0.0
H381 H 0.85002 0.1194 0.94627 0.0
H382 H 0.8369 0.1821 0.08478 0.0
H383 H 0.81768 0.16604 0.94358 0.0
H384 H 0.80806 0.27286 0.94101 0.0
H385 H 0.82903 0.22034 0.94441 0.0
H386 H 0.78692 0.20658 0.07561 0.0
H387 H 0.76718 0.25994 0.0731 0.0
C388 C 0.85703 0.14118 0.05632 0.0
C389 C 0.86211 0.12365 0.01714 0.0
C390 C 0.83881 0.16819 0.0546 0.0
C391 C 0.82507 0.17813 0.01376 0.0
C392 C 0.82852 0.15945 0.97533 0.0
C393 C 0.84692 0.13259 0.97695 0.0
C394 C 0.80331 0.25867 0.97064 0.0
C395 C 0.78632 0.27076 0.00705 0.0
C396 C 0.81494 0.22833 0.97232 0.0
C397 C 0.80973 0.20917 0.01035 0.0
C398 C 0.79168 0.22083 0.04605 0.0
C399 C 0.7801 0.2513 0.04442 0.0
H400 H 0.85759 0.87091 0.10321 0.0
H401 H 0.87731 0.8575 0.96157 0.0
H402 H 0.82515 0.82432 0.10341 0.0
H403 H 0.84562 0.81067 0.96214 0.0
H404 H 0.75988 0.74908 0.96448 0.0
H405 H 0.79183 0.79579 0.96661 0.0
H406 H 0.82695 0.76822 0.0979 0.0
H407 H 0.79386 0.72216 0.09667 0.0
C408 C 0.85523 0.85793 0.0722 0.0
C409 C 0.86994 0.86814 0.03231 0.0
C410 C 0.83673 0.83111 0.07238 0.0
C411 C 0.83255 0.81381 0.0327 0.0
C412 C 0.84779 0.82372 0.99309 0.0
C413 C 0.86619 0.85052 0.99288 0.0
C414 C 0.77407 0.75315 0.9941 0.0
C415 C 0.77425 0.73177 0.03039 0.0
C416 C 0.79275 0.77977 0.99506 0.0
C417 C 0.81218 0.78573 0.03229 0.0
C418 C 0.81213 0.76453 0.06882 0.0
C419 C 0.7934 0.7379 0.06788 0.0
H420 H 0.10717 0.87768 0.96116 0.0
H421 H 0.11608 0.89646 0.10374 0.0
H422 H 0.14969 0.84064 0.96617 0.0
H423 H 0.15979 0.85994 0.10847 0.0
H424 H 0.21622 0.76788 0.10714 0.0
H425 H 0.17358 0.80581 0.1058 0.0
H426 H 0.20408 0.83838 0.97451 0.0
H427 H 0.24578 0.79998 0.97548 0.0
C428 C 0.11844 0.87416 0.99358 0.0
C429 C 0.10822 0.89016 0.03203 0.0
C430 C 0.14305 0.85297 0.99641 0.0
C431 C 0.1585 0.84741 0.03765 0.0
C432 C 0.14827 0.86337 0.07624 0.0
C433 C 0.12332 0.88445 0.0735 0.0
C434 C 0.21374 0.78326 0.07814 0.0
C435 C 0.23403 0.7807 0.04115 0.0
C436 C 0.18942 0.8051 0.07741 0.0
C437 C 0.18511 0.82503 0.03984 0.0
C438 C 0.20608 0.82293 0.0035 0.0
C439 C 0.23007 0.80095 0.00405 0.0
H440 H 0.59905 0.65744 0.43879 0.0
H441 H 0.58506 0.65657 0.58342 0.0
H442 H 0.64085 0.69482 0.44732 0.0
H443 H 0.62641 0.69482 0.59176 0.0
H444 H 0.73475 0.70409 0.58643 0.0
H445 H 0.68151 0.6854 0.58457 0.0
H446 H 0.6625 0.74435 0.46851 0.0
H447 H 0.71625 0.76295 0.47025 0.0
C448 C 0.60415 0.66601 0.47228 0.0
C449 C 0.58932 0.65336 0.51054 0.0
C450 C 0.62808 0.68766 0.47716 0.0
C451 C 0.63745 0.69726 0.52036 0.0
C452 C 0.62024 0.68724 0.55813 0.0
C453 C 0.59644 0.66543 0.5533 0.0
C454 C 0.71902 0.71373 0.56127 0.0
C455 C 0.72976 0.73472 0.5282 0.0
C456 C 0.68837 0.70311 0.56028 0.0
C457 C 0.66773 0.7133 0.52625 0.0
C458 C 0.67796 0.73575 0.49477 0.0
C459 C 0.70871 0.74632 0.4957 0.0
H460 H 0.36165 0.61466 0.44725 0.0
H461 H 0.37459 0.63032 0.59006 0.0
H462 H 0.32747 0.65988 0.44259 0.0
H463 H 0.34129 0.67615 0.58507 0.0
H464 H 0.26638 0.74877 0.56958 0.0
H465 H 0.29023 0.69722 0.57306 0.0
H466 H 0.33481 0.71479 0.44451 0.0
H467 H 0.30965 0.76544 0.43992 0.0
C468 C 0.35707 0.62764 0.47773 0.0
C469 C 0.37114 0.61906 0.51893 0.0
C470 C 0.3376 0.65368 0.47499 0.0
C471 C 0.33194 0.67194 0.5133 0.0
C472 C 0.34487 0.6625 0.55495 0.0
C473 C 0.36414 0.63628 0.55777 0.0
C474 C 0.28073 0.74134 0.54161 0.0
C475 C 0.28627 0.76134 0.5046 0.0
C476 C 0.29471 0.71192 0.54386 0.0
C477 C 0.31462 0.70188 0.50923 0.0
C478 C 0.31936 0.72154 0.4716 0.0
C479 C 0.30528 0.75083 0.46925 0.0
H480 H 0.37115 0.36201 0.45578 0.0
H481 H 0.37319 0.36089 0.60178 0.0
H482 H 0.33698 0.31706 0.45652 0.0
H483 H 0.33974 0.31506 0.60249 0.0
H484 H 0.25009 0.25767 0.58631 0.0
H485 H 0.287 0.3008 0.58785 0.0
H486 H 0.33404 0.26296 0.47154 0.0
H487 H 0.29662 0.22044 0.46946 0.0
C488 C 0.36468 0.35191 0.4881 0.0
C489 C 0.37483 0.36522 0.52874 0.0
C490 C 0.34516 0.32594 0.48852 0.0
C491 C 0.33545 0.31237 0.52957 0.0
C492 C 0.34627 0.3252 0.57024 0.0
C493 C 0.36566 0.35136 0.56984 0.0
C494 C 0.26844 0.25856 0.56126 0.0
C495 C 0.27031 0.23584 0.52755 0.0
C496 C 0.28971 0.28318 0.56223 0.0
C497 C 0.31353 0.28549 0.52974 0.0
C498 C 0.31567 0.26235 0.49655 0.0
C499 C 0.29424 0.23793 0.49535 0.0
H500 H 0.6125 0.38237 0.46274 0.0
H501 H 0.62037 0.40126 0.60548 0.0
H502 H 0.65532 0.34545 0.46852 0.0
H503 H 0.66343 0.36389 0.61115 0.0
H504 H 0.76242 0.32116 0.58391 0.0
H505 H 0.71858 0.35747 0.58396 0.0
H506 H 0.66514 0.29362 0.50324 0.0
H507 H 0.70863 0.25705 0.50379 0.0
C508 C 0.62336 0.3787 0.49541 0.0
C509 C 0.61288 0.3948 0.53368 0.0
C510 C 0.6478 0.35731 0.49874 0.0
C511 C 0.6626 0.35154 0.54034 0.0
C512 C 0.65254 0.36793 0.57859 0.0
C513 C 0.62781 0.38923 0.57535 0.0
C514 C 0.74115 0.31457 0.56682 0.0
C515 C 0.73921 0.28619 0.54355 0.0
C516 C 0.71605 0.33545 0.56681 0.0
C517 C 0.6885 0.32854 0.54329 0.0
C518 C 0.68627 0.29987 0.521 0.0
C519 C 0.71125 0.27894 0.52123 0.0
H520 H 0.97374 0.07446 0.20562 0.0
H521 H 0.04807 0.10157 0.11586 0.0
H522 H 0.00729 0.08367 0.27022 0.0
H523 H 0.08269 0.1084 0.18005 0.0
H524 H 0.12875 0.14528 0.3081 0.0
H525 H 0.09515 0.13888 0.24214 0.0
H526 H 0.04916 0.06168 0.30915 0.0
H527 H 0.08157 0.0696 0.3757 0.0
C528 C 0.99742 0.08213 0.19961 0.0
C529 C 0.00861 0.08642 0.15542 0.0
C530 C 0.01685 0.08704 0.23671 0.0
C531 C 0.04806 0.09614 0.2306 0.0
C532 C 0.05885 0.10145 0.18633 0.0
C533 C 0.03919 0.09699 0.14928 0.0
C534 C 0.11143 0.12697 0.30837 0.0
C535 C 0.10745 0.10806 0.3468 0.0
C536 C 0.09226 0.12314 0.27059 0.0
C537 C 0.06912 0.09991 0.27025 0.0
C538 C 0.06603 0.08039 0.30848 0.0
C539 C 0.08474 0.08467 0.3465 0.0
H540 H 0.88637 0.98811 0.21838 0.0
H541 H 0.89922 0.07023 0.1354 0.0
H542 H 0.8753 0.02115 0.28331 0.0
H543 H 0.88909 0.10305 0.20011 0.0
H544 H 0.90841 0.14694 0.33941 0.0
H545 H 0.91667 0.11384 0.27419 0.0
H546 H 0.83455 0.061 0.30873 0.0
H547 H 0.82552 0.09473 0.37335 0.0
C548 C 0.88681 0.01317 0.21386 0.0
C549 C 0.89429 0.02655 0.17169 0.0
C550 C 0.88044 0.03205 0.25103 0.0
C551 C 0.88165 0.06466 0.24683 0.0
C552 C 0.88855 0.07798 0.20456 0.0
C553 C 0.89451 0.05914 0.16741 0.0
C554 C 0.89174 0.12866 0.33281 0.0
C555 C 0.86619 0.12369 0.36172 0.0
C556 C 0.8966 0.10958 0.29552 0.0
C557 C 0.87625 0.08486 0.28643 0.0
C558 C 0.8508 0.07969 0.31526 0.0
C559 C 0.84571 0.099 0.35233 0.0
H560 H 0.98721 0.95147 0.21353 0.0
H561 H 0.92799 0.89638 0.12829 0.0
H562 H 0.96435 0.92687 0.28047 0.0
H563 H 0.90499 0.87162 0.1947 0.0
H564 H 0.85826 0.84346 0.32595 0.0
H565 H 0.87402 0.8772 0.2632 0.0
H566 H 0.96898 0.87482 0.31188 0.0
H567 H 0.95303 0.8423 0.3754 0.0
C568 C 0.96875 0.93456 0.20929 0.0
C569 C 0.95874 0.92617 0.166 0.0
C570 C 0.95582 0.92036 0.24744 0.0
C571 C 0.933 0.89717 0.24285 0.0
C572 C 0.92211 0.88979 0.19944 0.0
C573 C 0.93498 0.90415 0.16134 0.0
C574 C 0.88241 0.85053 0.32353 0.0
C575 C 0.90446 0.84011 0.35546 0.0
C576 C 0.89145 0.86965 0.28744 0.0
C577 C 0.9227 0.87874 0.28266 0.0
C578 C 0.94462 0.86864 0.31497 0.0
C579 C 0.93559 0.84958 0.35099 0.0
H580 H 0.09268 0.0402 0.1834 0.0
H581 H 0.0654 0.94864 0.13937 0.0
H582 H 0.11765 0.0174 0.24931 0.0
H583 H 0.09054 0.92565 0.20574 0.0
H584 H 0.17479 0.89951 0.30023 0.0
H585 H 0.14434 0.91869 0.2359 0.0
H586 H 0.10446 0.99024 0.31968 0.0
H587 H 0.13473 0.97107 0.38387 0.0
C588 C 0.09189 0.01514 0.18769 0.0
C589 C 0.07715 0.9962 0.15562 0.0
C590 C 0.10608 0.00209 0.22578 0.0
C591 C 0.10604 0.96971 0.23279 0.0
C592 C 0.09118 0.95068 0.201 0.0
C593 C 0.07671 0.96385 0.16293 0.0
C594 C 0.15915 0.91902 0.30504 0.0
C595 C 0.15745 0.93401 0.34698 0.0
C596 C 0.1417 0.92997 0.26823 0.0
C597 C 0.12224 0.95614 0.27266 0.0
C598 C 0.11971 0.97039 0.31502 0.0
C599 C 0.13709 0.95945 0.35174 0.0
H600 H 0.07034 0.0267 0.81051 0.0
H601 H 0.08679 0.94542 0.89402 0.0
H602 H 0.09275 0.00026 0.74603 0.0
H603 H 0.10869 0.9184 0.82916 0.0
H604 H 0.18637 0.90289 0.72257 0.0
H605 H 0.15612 0.92249 0.78574 0.0
H606 H 0.08715 0.9589 0.69262 0.0
H607 H 0.1182 0.94067 0.62936 0.0
C608 C 0.07823 0.00297 0.81479 0.0
C609 C 0.07705 0.98834 0.85731 0.0
C610 C 0.09094 0.98767 0.77779 0.0
C611 C 0.10267 0.95721 0.78244 0.0
C612 C 0.10031 0.94204 0.82463 0.0
C613 C 0.08767 0.95748 0.86173 0.0
C614 C 0.16475 0.91506 0.71558 0.0
C615 C 0.15491 0.92051 0.67089 0.0
C616 C 0.14717 0.92593 0.75184 0.0
C617 C 0.11928 0.94242 0.74423 0.0
C618 C 0.10875 0.94665 0.69961 0.0
C619 C 0.12638 0.93588 0.66335 0.0
H620 H 0.98774 0.04068 0.84008 0.0
H621 H 0.96676 0.13916 0.83575 0.0
H622 H 0.02342 0.04741 0.77682 0.0
H623 H 0.00345 0.146 0.77362 0.0
H624 H 0.05423 0.14079 0.63666 0.0
H625 H 0.01374 0.13345 0.69386 0.0
H626 H 0.07509 0.07215 0.76886 0.0
H627 H 0.11512 0.07885 0.71152 0.0
C628 C 0.99071 0.06376 0.82566 0.0
C629 C 0.97459 0.08944 0.84326 0.0
C630 C 0.0114 0.06765 0.78969 0.0
C631 C 0.01677 0.09733 0.77084 0.0
C632 C -0.0002 0.12281 0.78732 0.0
C633 C 0.9789 0.11891 0.82312 0.0
C634 C 0.05903 0.12581 0.6655 0.0
C635 C 0.08781 0.11028 0.66951 0.0
C636 C 0.03585 0.12158 0.69819 0.0
C637 C 0.04103 0.10181 0.7356 0.0
C638 C 0.06998 0.08668 0.73979 0.0
C639 C 0.09301 0.09072 0.70707 0.0
H640 H 0.84284 0.00354 0.86555 0.0
H641 H 0.94214 0.99635 0.84378 0.0
H642 H 0.83854 0.03921 0.80159 0.0
H643 H 0.93765 0.03198 0.77901 0.0
H644 H 0.91822 0.12875 0.7096 0.0
H645 H 0.92538 0.08851 0.76756 0.0
H646 H 0.84369 0.04082 0.7189 0.0
H647 H 0.83669 0.08068 0.66068 0.0
C648 C 0.86372 0.00928 0.84679 0.0
C649 C 0.89284 0.9972 0.8599 0.0
C650 C 0.86123 0.02965 0.80996 0.0
C651 C 0.88778 0.0385 0.78537 0.0
C652 C 0.91686 0.02588 0.79774 0.0
C653 C 0.91936 0.00531 0.83457 0.0
C654 C 0.90201 0.10948 0.71088 0.0
C655 C 0.87665 0.10817 0.68078 0.0
C656 C 0.90616 0.08641 0.74407 0.0
C657 C 0.88498 0.06162 0.74796 0.0
C658 C 0.86009 0.05992 0.71722 0.0
C659 C 0.85601 0.08286 0.684 0.0
H660 H 0.93494 0.89306 0.90005 0.0
H661 H 0.00981 0.93417 0.82239 0.0
H662 H 0.91348 0.8708 0.83161 0.0
H663 H 0.9878 0.91247 0.75356 0.0
H664 H 0.96492 0.83094 0.65845 0.0
H665 H 0.98366 0.86045 0.72278 0.0
H666 H 0.88869 0.88174 0.75992 0.0
H667 H 0.86992 0.85098 0.69678 0.0
C668 C 0.94658 0.89771 0.86826 0.0
C669 C 0.97432 0.91497 0.86669 0.0
C670 C 0.93414 0.88513 0.82894 0.0
C671 C 0.9491 0.88964 0.7872 0.0
C672 C 0.97606 0.90812 0.78535 0.0
C673 C 0.98857 0.92068 0.82473 0.0
C674 C 0.94805 0.84177 0.68049 0.0
C675 C 0.91594 0.8384 0.67274 0.0
C676 C 0.95878 0.85908 0.71697 0.0
C677 C 0.93765 0.87345 0.74644 0.0
C678 C 0.90555 0.87069 0.73807 0.0
C679 C 0.89481 0.85331 0.70165 0.0
H680 H 0.55143 0.60068 0.62351 0.0
H681 H 0.48012 0.56798 0.71474 0.0
H682 H 0.58642 0.60905 0.68727 0.0
H683 H 0.51457 0.57776 0.77871 0.0
H684 H 0.57509 0.63342 0.87952 0.0
H685 H 0.54098 0.62592 0.81465 0.0
H686 H 0.61295 0.57304 0.74849 0.0
H687 H 0.64685 0.57932 0.81407 0.0
C688 C 0.54334 0.59495 0.65697 0.0
C689 C 0.51337 0.58279 0.66373 0.0
C690 C 0.56328 0.59997 0.69355 0.0
C691 C 0.55325 0.59382 0.73783 0.0
C692 C 0.52287 0.58274 0.74486 0.0
C693 C 0.50318 0.57717 0.7082 0.0
C694 C 0.58364 0.61989 0.85145 0.0
C695 C 0.61376 0.60685 0.85232 0.0
C696 C 0.5641 0.61574 0.81423 0.0
C697 C 0.57435 0.59889 0.77669 0.0
C698 C 0.60462 0.5864 0.77688 0.0
C699 C 0.62406 0.59017 0.81441 0.0
H700 H 0.40306 0.56442 0.63833 0.0
H701 H 0.38341 0.48157 0.71675 0.0
H702 H 0.38975 0.59659 0.70234 0.0
H703 H 0.36926 0.51406 0.78112 0.0
H704 H 0.31705 0.58876 0.86732 0.0
H705 H 0.32834 0.5552 0.80316 0.0
H706 H 0.41396 0.60516 0.77929 0.0
H707 H 0.40339 0.63802 0.84396 0.0
C708 C 0.39613 0.55301 0.6692 0.0
C709 C 0.39497 0.52041 0.67247 0.0
C710 C 0.38835 0.5715 0.70595 0.0
C711 C 0.37876 0.55781 0.74681 0.0
C712 C 0.37651 0.52521 0.74989 0.0
C713 C 0.38465 0.50666 0.71308 0.0
C714 C 0.33843 0.59243 0.84869 0.0
C715 C 0.35923 0.61626 0.86081 0.0
C716 C 0.34483 0.57322 0.81193 0.0
C717 C 0.37195 0.57768 0.78623 0.0
C718 C 0.39264 0.60151 0.79814 0.0
C719 C 0.38645 0.62046 0.83509 0.0
H720 H 0.42993 0.40302 0.6324 0.0
H721 H 0.49816 0.44759 0.71659 0.0
H722 H 0.40699 0.37803 0.69853 0.0
H723 H 0.47616 0.42159 0.783 0.0
H724 H 0.41564 0.38395 0.89787 0.0
H725 H 0.42999 0.41648 0.8329 0.0
H726 H 0.42654 0.33573 0.74713 0.0
H727 H 0.41144 0.30353 0.81157 0.0
C728 C 0.4393 0.40828 0.66518 0.0
C729 C 0.46535 0.42761 0.66936 0.0
C730 C 0.42661 0.39352 0.70304 0.0
C731 C 0.43993 0.39767 0.74592 0.0
C732 C 0.46521 0.41814 0.75046 0.0
C733 C 0.47791 0.43286 0.71245 0.0
C734 C 0.41759 0.37329 0.86499 0.0
C735 C 0.41256 0.34119 0.85977 0.0
C736 C 0.426 0.39185 0.82793 0.0
C737 C 0.42929 0.37867 0.78495 0.0
C738 C 0.42377 0.34666 0.7797 0.0
C739 C 0.41553 0.32812 0.81671 0.0
H740 H 0.56883 0.45619 0.6437 0.0
H741 H 0.61831 0.54322 0.65573 0.0
H742 H 0.59928 0.43454 0.70638 0.0
H743 H 0.64864 0.52167 0.71752 0.0
H744 H 0.66837 0.48927 0.8599 0.0
H745 H 0.63788 0.50718 0.79541 0.0
H746 H 0.65311 0.41908 0.72958 0.0
H747 H 0.68373 0.40101 0.79466 0.0
C748 C 0.58639 0.47052 0.65908 0.0
C749 C 0.591 0.50141 0.64456 0.0
C750 C 0.60387 0.45814 0.69504 0.0
C751 C 0.6261 0.47654 0.7172 0.0
C752 C 0.63126 0.50708 0.70176 0.0
C753 C 0.61394 0.51935 0.66602 0.0
C754 C 0.66547 0.4738 0.83153 0.0
C755 C 0.6788 0.4439 0.83207 0.0
C756 C 0.64796 0.48403 0.7946 0.0
C757 C 0.6434 0.46465 0.75719 0.0
C758 C 0.65609 0.43445 0.75805 0.0
C759 C 0.67364 0.42415 0.79521 0.0
H760 H 0.55436 0.46549 0.3457 0.0
H761 H 0.60456 0.55175 0.32686 0.0
H762 H 0.58043 0.44395 0.27968 0.0
H763 H 0.63046 0.53033 0.26114 0.0
H764 H 0.65162 0.49296 0.12258 0.0
H765 H 0.62013 0.5133 0.18417 0.0
H766 H 0.63362 0.42749 0.25901 0.0
H767 H 0.6642 0.40664 0.19672 0.0
C768 C 0.57089 0.47985 0.32748 0.0
C769 C 0.57744 0.51029 0.34155 0.0
C770 C 0.58587 0.46749 0.28977 0.0
C771 C 0.60753 0.48542 0.26528 0.0
C772 C 0.61366 0.51603 0.27899 0.0
C773 C 0.5989 0.52825 0.31681 0.0
C774 C 0.64744 0.47823 0.15184 0.0
C775 C 0.66044 0.44818 0.15482 0.0
C776 C 0.62969 0.49002 0.18727 0.0
C777 C 0.62455 0.47206 0.22645 0.0
C778 C 0.63697 0.44178 0.22907 0.0
C779 C 0.65477 0.42998 0.19364 0.0
H780 H 0.48955 0.54013 0.33653 0.0
H781 H 0.51962 0.63061 0.38165 0.0
H782 H 0.52584 0.54331 0.27356 0.0
H783 H 0.5549 0.63443 0.31781 0.0
H784 H 0.63979 0.61848 0.23146 0.0
H785 H 0.60235 0.61417 0.29284 0.0
H786 H 0.53839 0.56677 0.20405 0.0
H787 H 0.57646 0.57025 0.14319 0.0
C788 C 0.50357 0.56092 0.33263 0.0
C789 C 0.50189 0.585 0.36438 0.0
C790 C 0.52427 0.56286 0.29626 0.0
C791 C 0.54366 0.58901 0.29065 0.0
C792 C 0.54103 0.61355 0.32159 0.0
C793 C 0.5205 0.61152 0.35804 0.0
C794 C 0.6177 0.60717 0.22514 0.0
C795 C 0.61099 0.59487 0.18249 0.0
C796 C 0.59608 0.60488 0.26022 0.0
C797 C 0.56701 0.59053 0.25341 0.0
C798 C 0.56058 0.57772 0.21083 0.0
C799 C 0.58238 0.57974 0.17586 0.0
H800 H 0.37861 0.44839 0.30003 0.0
H801 H 0.43449 0.51609 0.37018 0.0
H802 H 0.36903 0.48659 0.2394 0.0
H803 H 0.42468 0.55403 0.3102 0.0
H804 H 0.3594 0.62187 0.23153 0.0
H805 H 0.3722 0.58098 0.28676 0.0
H806 H 0.40022 0.52021 0.17879 0.0
H807 H 0.38776 0.56134 0.12348 0.0
C808 C 0.38911 0.47123 0.3023 0.0
C809 C 0.40693 0.4794 0.34024 0.0
C810 C 0.38368 0.49301 0.26762 0.0
C811 C 0.39569 0.52334 0.27067 0.0
C812 C 0.4147 0.53097 0.30747 0.0
C813 C 0.42043 0.50917 0.34168 0.0
C814 C 0.36812 0.59972 0.21968 0.0
C815 C 0.37268 0.59471 0.17341 0.0
C816 C 0.37564 0.57646 0.25117 0.0
C817 C 0.38733 0.54758 0.2369 0.0
C818 C 0.39121 0.54227 0.19055 0.0
C819 C 0.38423 0.56578 0.15907 0.0
H820 H 0.44599 0.37633 0.41293 0.0
H821 H 0.49862 0.44 0.32886 0.0
H822 H 0.4222 0.35419 0.34587 0.0
H823 H 0.4742 0.41834 0.26177 0.0
H824 H 0.46155 0.33982 0.15811 0.0
H825 H 0.47938 0.36908 0.22307 0.0
H826 H 0.38749 0.36295 0.28188 0.0
H827 H 0.36995 0.33243 0.21748 0.0
C828 C 0.4522 0.38585 0.38015 0.0
C829 C 0.47461 0.40949 0.37608 0.0
C830 C 0.43836 0.37334 0.34172 0.0
C831 C 0.44657 0.38429 0.29847 0.0
C832 C 0.46786 0.40899 0.29459 0.0
C833 C 0.48181 0.42142 0.33301 0.0
C834 C 0.44518 0.34457 0.18499 0.0
C835 C 0.41445 0.33349 0.18292 0.0
C836 C 0.45526 0.36176 0.22192 0.0
C837 C 0.43483 0.36836 0.25763 0.0
C838 C 0.40385 0.35798 0.25507 0.0
C839 C 0.39374 0.34074 0.21804 0.0
loop_
_geom_bond_atom_site_label_1
_geom_bond_atom_site_label_2
_geom_bond_distance
_geom_bond_site_symmetry_2
_ccdc_geom_bond_type
Zn0 O2 1.933 1_556 S
Zn0 O20 1.985 . S
Zn0 O31 1.955 . S
Zn1 O2 1.911 . S
Zn1 O21 1.970 . S
Zn1 O37 1.945 . S
Zn1 O44 1.981 . S
O2 Zn0 1.933 1_554 S
O2 Zn1 1.911 . S
O2 H3 0.841 1_655 S
H3 O2 0.841 1_455 S
C4 O5 1.246 . S
C4 O33 1.276 1_545 S
O5 C4 1.246 . S
Zn6 O8 1.911 . S
Zn6 O23 1.970 . S
Zn6 O40 1.945 . S
Zn6 O47 1.981 . S
Zn7 O8 1.933 1_556 S
Zn7 O22 1.985 . S
Zn7 O29 1.955 . S
O8 Zn6 1.911 . S
O8 Zn7 1.933 1_554 S
O8 H9 0.841 1_455 S
H9 O8 0.841 1_655 S
Zn10 O11 1.933 1_556 S
Zn10 O24 1.985 . S
Zn10 O33 1.955 . S
O11 Zn10 1.933 1_554 S
O11 Zn12 1.911 . S
O11 H13 0.841 1_565 S
Zn12 O11 1.911 . S
Zn12 O25 1.970 . S
Zn12 O41 1.981 . S
Zn12 O43 1.945 . S
H13 O11 0.841 1_545 S
Zn14 O15 1.933 1_556 S
Zn14 O27 1.985 . S
Zn14 O35 1.955 . S
O15 Zn14 1.933 1_554 S
O15 H16 0.841 1_545 S
O15 Zn17 1.911 . S
H16 O15 0.841 1_565 S
Zn17 O15 1.911 . S
Zn17 O28 1.970 . S
Zn17 O38 1.981 . S
Zn17 O46 1.945 . S
C18 O19 1.246 . S
C18 O35 1.276 1_565 S
O19 C18 1.246 . S
O20 Zn0 1.985 . S
O20 C30 1.245 1_556 S
O21 Zn1 1.970 . S
O21 C30 1.263 . S
O22 Zn7 1.985 . S
O22 C34 1.245 1_556 S
O23 Zn6 1.970 . S
O23 C34 1.263 . S
O24 Zn10 1.985 . S
O24 C39 1.245 1_556 S
O25 Zn12 1.970 . S
O25 C39 1.263 . S
C26 O37 1.262 1_455 S
C26 O38 1.245 . S
O27 Zn14 1.985 . S
O27 C45 1.245 1_556 S
O28 Zn17 1.970 . S
O28 C45 1.263 . S
O29 Zn7 1.955 . S
O29 C48 1.276 1_455 S
C30 O20 1.245 1_554 S
C30 O21 1.263 . S
O31 Zn0 1.955 . S
O31 C50 1.276 1_655 S
C32 O40 1.262 1_655 S
C32 O41 1.245 . S
O33 C4 1.276 1_565 S
O33 Zn10 1.955 . S
C34 O22 1.245 1_554 S
C34 O23 1.263 . S
O35 Zn14 1.955 . S
O35 C18 1.276 1_545 S
C36 O43 1.262 1_545 S
C36 O44 1.245 . S
O37 Zn1 1.945 . S
O37 C26 1.262 1_655 S
O38 Zn17 1.981 . S
O38 C26 1.245 . S
C39 O24 1.245 1_554 S
C39 O25 1.263 . S
O40 Zn6 1.945 . S
O40 C32 1.262 1_455 S
O41 Zn12 1.981 . S
O41 C32 1.245 . S
C42 O46 1.262 1_565 S
C42 O47 1.245 . S
O43 Zn12 1.945 . S
O43 C36 1.262 1_565 S
O44 Zn1 1.981 . S
O44 C36 1.245 . S
C45 O27 1.245 1_554 S
C45 O28 1.263 . S
O46 Zn17 1.945 . S
O46 C42 1.262 1_545 S
O47 Zn6 1.981 . S
O47 C42 1.245 . S
C48 O29 1.276 1_655 S
C48 O49 1.246 . S
O49 C48 1.246 . S
C50 O31 1.276 1_455 S
C50 O51 1.246 . S
O51 C50 1.246 . S
Zn52 O54 1.933 . S
Zn52 O72 1.985 . S
Zn52 O83 1.955 . S
Zn53 O54 1.911 . S
Zn53 O73 1.970 . S
Zn53 O89 1.945 . S
Zn53 O96 1.981 . S
O54 Zn52 1.933 . S
O54 Zn53 1.911 . S
O54 H55 0.841 . S
H55 O54 0.841 . S
C56 O57 1.246 . S
C56 O85 1.276 . S
O57 C56 1.246 . S
Zn58 O60 1.911 . S
Zn58 O75 1.970 . S
Zn58 O92 1.945 . S
Zn58 O99 1.981 . S
Zn59 O60 1.933 . S
Zn59 O74 1.985 . S
Zn59 O81 1.955 . S
O60 Zn58 1.911 . S
O60 Zn59 1.933 . S
O60 H61 0.841 . S
H61 O60 0.841 . S
Zn62 O63 1.933 . S
Zn62 O76 1.985 . S
Zn62 O85 1.955 . S
O63 Zn62 1.933 . S
O63 Zn64 1.911 . S
O63 H65 0.841 . S
Zn64 O63 1.911 . S
Zn64 O77 1.970 . S
Zn64 O93 1.981 . S
Zn64 O95 1.945 . S
H65 O63 0.841 . S
Zn66 O67 1.933 . S
Zn66 O79 1.985 . S
Zn66 O87 1.955 . S
O67 Zn66 1.933 . S
O67 H68 0.841 . S
O67 Zn69 1.911 . S
H68 O67 0.841 . S
Zn69 O67 1.911 . S
Zn69 O80 1.970 . S
Zn69 O90 1.981 . S
Zn69 O98 1.945 . S
C70 O71 1.246 . S
C70 O87 1.276 . S
O71 C70 1.246 . S
O72 Zn52 1.985 . S
O72 C82 1.245 . S
O73 Zn53 1.970 . S
O73 C82 1.263 . S
O74 Zn59 1.985 . S
O74 C86 1.245 . S
O75 Zn58 1.970 . S
O75 C86 1.263 . S
O76 Zn62 1.985 . S
O76 C91 1.245 . S
O77 Zn64 1.970 . S
O77 C91 1.263 . S
C78 O89 1.262 . S
C78 O90 1.245 . S
O79 Zn66 1.985 . S
O79 C97 1.245 . S
O80 Zn69 1.970 . S
O80 C97 1.263 . S
O81 Zn59 1.955 . S
O81 C100 1.276 . S
C82 O72 1.245 . S
C82 O73 1.263 . S
O83 Zn52 1.955 . S
O83 C102 1.276 . S
C84 O92 1.262 . S
C84 O93 1.245 . S
O85 C56 1.276 . S
O85 Zn62 1.955 . S
C86 O74 1.245 . S
C86 O75 1.263 . S
O87 Zn66 1.955 . S
O87 C70 1.276 . S
C88 O95 1.262 . S
C88 O96 1.245 . S
O89 Zn53 1.945 . S
O89 C78 1.262 . S
O90 Zn69 1.981 . S
O90 C78 1.245 . S
C91 O76 1.245 . S
C91 O77 1.263 . S
O92 Zn58 1.945 . S
O92 C84 1.262 . S
O93 Zn64 1.981 . S
O93 C84 1.245 . S
C94 O98 1.262 . S
C94 O99 1.245 . S
O95 Zn64 1.945 . S
O95 C88 1.262 . S
O96 Zn53 1.981 . S
O96 C88 1.245 . S
C97 O79 1.245 . S
C97 O80 1.263 . S
O98 Zn69 1.945 . S
O98 C94 1.262 . S
O99 Zn58 1.981 . S
O99 C94 1.245 . S
C100 O81 1.276 . S
C100 O101 1.246 . S
O101 C100 1.246 . S
C102 O83 1.276 . S
C102 O103 1.246 . S
O103 C102 1.246 . S
P104 O115 1.490 . S
P104 C118 1.812 . S
P104 C124 1.803 . S
P104 C130 1.819 1_554 S
H105 C119 0.941 . S
H106 C120 0.939 . S
H107 C122 0.940 . S
H108 C123 0.940 . S
H109 C125 0.939 1_556 S
H110 C126 0.942 1_556 S
H111 C128 0.940 . S
H112 C129 0.939 . S
H113 C131 0.941 . S
H114 C135 0.939 . S
O115 P104 1.490 . S
H116 C132 0.939 . S
H117 C134 0.940 . S
C118 P104 1.812 . S
C118 C119 1.389 . S
C118 C123 1.391 . S
C119 H105 0.941 . S
C119 C118 1.389 . S
C119 C120 1.397 . S
C120 H106 0.939 . S
C120 C119 1.397 . S
C120 C121 1.378 . S
C121 C120 1.378 . S
C121 C122 1.378 . S
C122 H107 0.940 . S
C122 C121 1.378 . S
C122 C123 1.396 . S
C123 H108 0.940 . S
C123 C118 1.391 . S
C123 C122 1.396 . S
C124 P104 1.803 . S
C124 C125 1.378 . S
C124 C129 1.400 . S
C125 H109 0.939 1_554 S
C125 C124 1.378 . S
C125 C126 1.361 . S
C126 H110 0.942 1_554 S
C126 C125 1.361 . S
C126 C127 1.369 . S
C127 C126 1.369 . S
C127 C128 1.404 . S
C128 H111 0.940 . S
C128 C127 1.404 . S
C128 C129 1.389 . S
C129 H112 0.939 . S
C129 C124 1.400 . S
C129 C128 1.389 . S
C130 P104 1.819 1_556 S
C130 C131 1.391 . S
C130 C135 1.391 . S
C131 H113 0.941 . S
C131 C130 1.391 . S
C131 C132 1.396 . S
C132 H116 0.939 . S
C132 C131 1.396 . S
C132 C133 1.397 . S
C133 C132 1.397 . S
C133 C134 1.385 . S
C134 H117 0.940 . S
C134 C133 1.385 . S
C134 C135 1.388 . S
C135 H114 0.939 . S
C135 C130 1.391 . S
C135 C134 1.388 . S
P136 O147 1.490 . S
P136 C150 1.812 . S
P136 C156 1.803 . S
P136 C162 1.819 1_554 S
H137 C151 0.941 . S
H138 C152 0.939 . S
H139 C154 0.940 . S
H140 C155 0.940 . S
H141 C157 0.939 1_556 S
H142 C158 0.942 1_556 S
H143 C160 0.940 . S
H144 C161 0.939 . S
H145 C163 0.941 . S
H146 C167 0.939 . S
O147 P136 1.490 . S
H148 C164 0.939 . S
H149 C166 0.940 . S
C150 P136 1.812 . S
C150 C151 1.389 . S
C150 C155 1.391 . S
C151 H137 0.941 . S
C151 C150 1.389 . S
C151 C152 1.397 . S
C152 H138 0.939 . S
C152 C151 1.397 . S
C152 C153 1.378 . S
C153 C152 1.378 . S
C153 C154 1.378 . S
C154 H139 0.940 . S
C154 C153 1.378 . S
C154 C155 1.396 . S
C155 H140 0.940 . S
C155 C150 1.391 . S
C155 C154 1.396 . S
C156 P136 1.803 . S
C156 C157 1.378 . S
C156 C161 1.400 . S
C157 H141 0.939 1_554 S
C157 C156 1.378 . S
C157 C158 1.361 . S
C158 H142 0.942 1_554 S
C158 C157 1.361 . S
C158 C159 1.369 . S
C159 C158 1.369 . S
C159 C160 1.404 . S
C160 H143 0.940 . S
C160 C159 1.404 . S
C160 C161 1.389 . S
C161 H144 0.939 . S
C161 C156 1.400 . S
C161 C160 1.389 . S
C162 P136 1.819 1_556 S
C162 C163 1.391 . S
C162 C167 1.391 . S
C163 H145 0.941 . S
C163 C162 1.391 . S
C163 C164 1.396 . S
C164 H148 0.939 . S
C164 C163 1.396 . S
C164 C165 1.397 . S
C165 C164 1.397 . S
C165 C166 1.385 . S
C166 H149 0.940 . S
C166 C165 1.385 . S
C166 C167 1.388 . S
C167 H146 0.939 . S
C167 C162 1.391 . S
C167 C166 1.388 . S
P168 O179 1.490 . S
P168 C182 1.812 1_554 S
P168 C188 1.803 . S
P168 C194 1.819 . S
H169 C183 0.941 . S
H170 C184 0.939 . S
H171 C186 0.940 . S
H172 C187 0.940 . S
H173 C189 0.939 . S
H174 C190 0.942 . S
H175 C192 0.940 . S
H176 C193 0.939 . S
H177 C195 0.941 . S
H178 C199 0.939 . S
O179 P168 1.490 . S
H180 C196 0.939 . S
H181 C198 0.940 . S
C182 P168 1.812 1_556 S
C182 C183 1.389 . S
C182 C187 1.391 . S
C183 H169 0.941 . S
C183 C182 1.389 . S
C183 C184 1.397 . S
C184 H170 0.939 . S
C184 C183 1.397 . S
C184 C185 1.378 . S
C185 C184 1.378 . S
C185 C186 1.378 . S
C186 H171 0.940 . S
C186 C185 1.378 . S
C186 C187 1.396 . S
C187 H172 0.940 . S
C187 C182 1.391 . S
C187 C186 1.396 . S
C188 P168 1.803 . S
C188 C189 1.378 . S
C188 C193 1.400 1_554 S
C189 H173 0.939 . S
C189 C188 1.378 . S
C189 C190 1.361 . S
C190 H174 0.942 . S
C190 C189 1.361 . S
C190 C191 1.369 . S
C191 C190 1.369 . S
C191 C192 1.404 1_554 S
C192 H175 0.940 . S
C192 C191 1.404 1_556 S
C192 C193 1.389 . S
C193 H176 0.939 . S
C193 C188 1.400 1_556 S
C193 C192 1.389 . S
C194 P168 1.819 . S
C194 C195 1.391 . S
C194 C199 1.391 . S
C195 H177 0.941 . S
C195 C194 1.391 . S
C195 C196 1.396 . S
C196 H180 0.939 . S
C196 C195 1.396 . S
C196 C197 1.397 . S
C197 C196 1.397 . S
C197 C198 1.385 . S
C198 H181 0.940 . S
C198 C197 1.385 . S
C198 C199 1.388 . S
C199 H178 0.939 . S
C199 C194 1.391 . S
C199 C198 1.388 . S
P200 O211 1.490 . S
P200 C214 1.812 1_554 S
P200 C220 1.803 . S
P200 C226 1.819 . S
H201 C215 0.941 . S
H202 C216 0.939 . S
H203 C218 0.940 . S
H204 C219 0.940 . S
H205 C221 0.939 . S
H206 C222 0.942 . S
H207 C224 0.940 1_556 S
H208 C225 0.945 . S
H209 C227 0.941 . S
H210 C231 0.939 . S
O211 P200 1.490 . S
H212 C228 0.939 . S
H213 C230 0.940 . S
C214 P200 1.812 1_556 S
C214 C215 1.389 . S
C214 C219 1.391 . S
C215 H201 0.941 . S
C215 C214 1.389 . S
C215 C216 1.397 . S
C216 H202 0.939 . S
C216 C215 1.397 . S
C216 C217 1.378 . S
C217 C216 1.378 . S
C217 C218 1.378 . S
C218 H203 0.940 . S
C218 C217 1.378 . S
C218 C219 1.396 . S
C219 H204 0.940 . S
C219 C214 1.391 . S
C219 C218 1.396 . S
C220 P200 1.803 . S
C220 C221 1.378 . S
C220 C225 1.395 1_554 S
C221 H205 0.939 . S
C221 C220 1.378 . S
C221 C222 1.361 . S
C222 H206 0.942 . S
C222 C221 1.361 . S
C222 C223 1.369 . S
C223 C222 1.369 . S
C223 C224 1.404 . S
C224 H207 0.940 1_554 S
C224 C223 1.404 . S
C224 C225 1.388 1_554 S
C225 H208 0.945 . S
C225 C220 1.395 1_556 S
C225 C224 1.388 1_556 S
C226 P200 1.819 . S
C226 C227 1.391 . S
C226 C231 1.391 . S
C227 H209 0.941 . S
C227 C226 1.391 . S
C227 C228 1.396 . S
C228 H212 0.939 . S
C228 C227 1.396 . S
C228 C229 1.397 . S
C229 C228 1.397 . S
C229 C230 1.385 . S
C230 H213 0.940 . S
C230 C229 1.385 . S
C230 C231 1.388 . S
C231 H210 0.939 . S
C231 C226 1.391 . S
C231 C230 1.388 . S
P232 O243 1.490 . S
P232 C246 1.812 . S
P232 C252 1.803 . S
P232 C258 1.819 . S
H233 C247 0.941 . S
H234 C248 0.939 . S
H235 C250 0.940 . S
H236 C251 0.940 . S
H237 C253 0.939 . S
H238 C254 0.942 . S
H239 C256 0.940 . S
H240 C257 0.939 . S
H241 C259 0.941 . S
H242 C263 0.939 . S
O243 P232 1.490 . S
H244 C260 0.939 . S
H245 C262 0.940 . S
C246 P232 1.812 . S
C246 C247 1.389 . S
C246 C251 1.391 . S
C247 H233 0.941 . S
C247 C246 1.389 . S
C247 C248 1.397 . S
C248 H234 0.939 . S
C248 C247 1.397 . S
C248 C249 1.378 . S
C249 C248 1.378 . S
C249 C250 1.378 . S
C250 H235 0.940 . S
C250 C249 1.378 . S
C250 C251 1.396 . S
C251 H236 0.940 . S
C251 C246 1.391 . S
C251 C250 1.396 . S
C252 P232 1.803 . S
C252 C253 1.378 . S
C252 C257 1.400 . S
C253 H237 0.939 . S
C253 C252 1.378 . S
C253 C254 1.361 . S
C254 H238 0.942 . S
C254 C253 1.361 . S
C254 C255 1.369 . S
C255 C254 1.369 . S
C255 C256 1.404 . S
C256 H239 0.940 . S
C256 C255 1.404 . S
C256 C257 1.389 . S
C257 H240 0.939 . S
C257 C252 1.400 . S
C257 C256 1.389 . S
C258 P232 1.819 . S
C258 C259 1.391 . S
C258 C263 1.391 . S
C259 H241 0.941 . S
C259 C258 1.391 . S
C259 C260 1.396 . S
C260 H244 0.939 . S
C260 C259 1.396 . S
C260 C261 1.397 . S
C261 C260 1.397 . S
C261 C262 1.385 . S
C262 H245 0.940 . S
C262 C261 1.385 . S
C262 C263 1.388 . S
C263 H242 0.939 . S
C263 C258 1.391 . S
C263 C262 1.388 . S
P264 O275 1.490 . S
P264 C278 1.812 . S
P264 C284 1.803 . S
P264 C290 1.819 . S
H265 C279 0.941 . S
H266 C280 0.939 . S
H267 C282 0.940 . S
H268 C283 0.940 . S
H269 C285 0.939 . S
H270 C286 0.942 . S
H271 C288 0.940 . S
H272 C289 0.939 . S
H273 C291 0.941 . S
H274 C295 0.939 . S
O275 P264 1.490 . S
H276 C292 0.939 . S
H277 C294 0.940 . S
C278 P264 1.812 . S
C278 C279 1.389 . S
C278 C283 1.391 . S
C279 H265 0.941 . S
C279 C278 1.389 . S
C279 C280 1.397 . S
C280 H266 0.939 . S
C280 C279 1.397 . S
C280 C281 1.378 . S
C281 C280 1.378 . S
C281 C282 1.378 . S
C282 H267 0.940 . S
C282 C281 1.378 . S
C282 C283 1.396 . S
C283 H268 0.940 . S
C283 C278 1.391 . S
C283 C282 1.396 . S
C284 P264 1.803 . S
C284 C285 1.378 . S
C284 C289 1.400 . S
C285 H269 0.939 . S
C285 C284 1.378 . S
C285 C286 1.361 . S
C286 H270 0.942 . S
C286 C285 1.361 . S
C286 C287 1.369 . S
C287 C286 1.369 . S
C287 C288 1.404 . S
C288 H271 0.940 . S
C288 C287 1.404 . S
C288 C289 1.389 . S
C289 H272 0.939 . S
C289 C284 1.400 . S
C289 C288 1.389 . S
C290 P264 1.819 . S
C290 C291 1.391 . S
C290 C295 1.391 . S
C291 H273 0.941 . S
C291 C290 1.391 . S
C291 C292 1.396 . S
C292 H276 0.939 . S
C292 C291 1.396 . S
C292 C293 1.397 . S
C293 C292 1.397 . S
C293 C294 1.385 . S
C294 H277 0.940 . S
C294 C293 1.385 . S
C294 C295 1.388 . S
C295 H274 0.939 . S
C295 C290 1.391 . S
C295 C294 1.388 . S
P296 O307 1.490 . S
P296 C310 1.812 . S
P296 C316 1.803 . S
P296 C322 1.819 . S
H297 C311 0.941 . S
H298 C312 0.939 . S
H299 C314 0.940 . S
H300 C315 0.940 . S
H301 C317 0.939 . S
H302 C318 0.942 . S
H303 C320 0.940 . S
H304 C321 0.939 . S
H305 C323 0.941 . S
H306 C327 0.939 . S
O307 P296 1.490 . S
H308 C324 0.939 . S
H309 C326 0.940 . S
C310 P296 1.812 . S
C310 C311 1.389 . S
C310 C315 1.391 . S
C311 H297 0.941 . S
C311 C310 1.389 . S
C311 C312 1.397 . S
C312 H298 0.939 . S
C312 C311 1.397 . S
C312 C313 1.378 . S
C313 C312 1.378 . S
C313 C314 1.378 . S
C314 H299 0.940 . S
C314 C313 1.378 . S
C314 C315 1.396 . S
C315 H300 0.940 . S
C315 C310 1.391 . S
C315 C314 1.396 . S
C316 P296 1.803 . S
C316 C317 1.378 . S
C316 C321 1.400 . S
C317 H301 0.939 . S
C317 C316 1.378 . S
C317 C318 1.361 . S
C318 H302 0.942 . S
C318 C317 1.361 . S
C318 C319 1.369 . S
C319 C318 1.369 . S
C319 C320 1.404 . S
C320 H303 0.940 . S
C320 C319 1.404 . S
C320 C321 1.389 . S
C321 H304 0.939 . S
C321 C316 1.400 . S
C321 C320 1.389 . S
C322 P296 1.819 . S
C322 C323 1.391 . S
C322 C327 1.391 . S
C323 H305 0.941 . S
C323 C322 1.391 . S
C323 C324 1.396 . S
C324 H308 0.939 . S
C324 C323 1.396 . S
C324 C325 1.397 . S
C325 C324 1.397 . S
C325 C326 1.385 . S
C326 H309 0.940 . S
C326 C325 1.385 . S
C326 C327 1.388 . S
C327 H306 0.939 . S
C327 C322 1.391 . S
C327 C326 1.388 . S
P328 O339 1.490 . S
P328 C342 1.812 . S
P328 C348 1.803 . S
P328 C354 1.819 . S
H329 C343 0.941 . S
H330 C344 0.939 . S
H331 C346 0.940 . S
H332 C347 0.940 . S
H333 C349 0.939 . S
H334 C350 0.942 . S
H335 C352 0.940 . S
H336 C353 0.939 . S
H337 C355 0.941 . S
H338 C359 0.939 . S
O339 P328 1.490 . S
H340 C356 0.939 . S
H341 C358 0.940 . S
C342 P328 1.812 . S
C342 C343 1.389 . S
C342 C347 1.391 . S
C343 H329 0.941 . S
C343 C342 1.389 . S
C343 C344 1.397 . S
C344 H330 0.939 . S
C344 C343 1.397 . S
C344 C345 1.378 . S
C345 C344 1.378 . S
C345 C346 1.378 . S
C346 H331 0.940 . S
C346 C345 1.378 . S
C346 C347 1.396 . S
C347 H332 0.940 . S
C347 C342 1.391 . S
C347 C346 1.396 . S
C348 P328 1.803 . S
C348 C349 1.378 . S
C348 C353 1.400 . S
C349 H333 0.939 . S
C349 C348 1.378 . S
C349 C350 1.361 . S
C350 H334 0.942 . S
C350 C349 1.361 . S
C350 C351 1.369 . S
C351 C350 1.369 . S
C351 C352 1.404 . S
C352 H335 0.940 . S
C352 C351 1.404 . S
C352 C353 1.389 . S
C353 H336 0.939 . S
C353 C348 1.400 . S
C353 C352 1.389 . S
C354 P328 1.819 . S
C354 C355 1.391 . S
C354 C359 1.391 . S
C355 H337 0.941 . S
C355 C354 1.391 . S
C355 C356 1.396 . S
C356 H340 0.939 . S
C356 C355 1.396 . S
C356 C357 1.397 . S
C357 C356 1.397 . S
C357 C358 1.385 . S
C358 H341 0.940 . S
C358 C357 1.385 . S
C358 C359 1.388 . S
C359 H338 0.939 . S
C359 C354 1.391 . S
C359 C358 1.388 . S
H360 C368 0.950 . S
H361 C373 0.950 1_556 S
H362 C370 0.950 . S
H363 C372 0.950 1_556 S
H364 C374 0.941 1_556 S
H365 C376 0.950 1_556 S
H366 C378 0.950 . S
H367 C379 0.950 . S
C368 H360 0.950 . S
C368 C369 1.386 . S
C368 C370 1.391 . S
C369 C368 1.386 . S
C369 C373 1.393 . S
C370 H362 0.950 . S
C370 C368 1.391 . S
C370 C371 1.400 . S
C371 C370 1.400 . S
C371 C372 1.398 . S
C371 C377 1.491 . S
C372 H363 0.950 1_554 S
C372 C371 1.398 . S
C372 C373 1.391 . S
C373 H361 0.950 1_554 S
C373 C369 1.393 . S
C373 C372 1.391 . S
C374 H364 0.941 1_554 S
C374 C375 1.394 . S
C374 C376 1.392 . S
C375 C374 1.394 . S
C375 C379 1.393 . S
C376 H365 0.950 1_554 S
C376 C374 1.392 . S
C376 C377 1.400 . S
C377 C371 1.491 . S
C377 C376 1.400 . S
C377 C378 1.398 . S
C378 H366 0.950 . S
C378 C377 1.398 . S
C378 C379 1.391 . S
C379 H367 0.950 . S
C379 C375 1.393 . S
C379 C378 1.391 . S
H380 C388 0.950 . S
H381 C393 0.950 . S
H382 C390 0.950 . S
H383 C392 0.950 . S
H384 C394 0.950 . S
H385 C396 0.950 . S
H386 C398 0.950 . S
H387 C399 0.950 . S
C388 H380 0.950 . S
C388 C389 1.386 . S
C388 C390 1.391 . S
C389 C388 1.386 . S
C389 C393 1.393 1_554 S
C390 H382 0.950 . S
C390 C388 1.391 . S
C390 C391 1.400 . S
C391 C390 1.400 . S
C391 C392 1.398 1_554 S
C391 C397 1.491 . S
C392 H383 0.950 . S
C392 C391 1.398 1_556 S
C392 C393 1.391 . S
C393 H381 0.950 . S
C393 C389 1.393 1_556 S
C393 C392 1.391 . S
C394 H384 0.950 . S
C394 C395 1.386 1_556 S
C394 C396 1.391 . S
C395 C394 1.386 1_554 S
C395 C399 1.393 . S
C396 H385 0.950 . S
C396 C394 1.391 . S
C396 C397 1.400 1_556 S
C397 C391 1.491 . S
C397 C396 1.400 1_554 S
C397 C398 1.398 . S
C398 H386 0.950 . S
C398 C397 1.398 . S
C398 C399 1.391 . S
C399 H387 0.950 . S
C399 C395 1.393 . S
C399 C398 1.391 . S
H400 C408 0.950 . S
H401 C413 0.950 . S
H402 C410 0.950 . S
H403 C412 0.950 . S
H404 C414 0.954 . S
H405 C416 0.960 . S
H406 C418 0.950 . S
H407 C419 0.950 . S
C408 H400 0.950 . S
C408 C409 1.386 . S
C408 C410 1.391 . S
C409 C408 1.386 . S
C409 C413 1.393 1_554 S
C410 H402 0.950 . S
C410 C408 1.391 . S
C410 C411 1.400 . S
C411 C410 1.400 . S
C411 C412 1.398 1_554 S
C411 C417 1.491 . S
C412 H403 0.950 . S
C412 C411 1.398 1_556 S
C412 C413 1.391 . S
C413 H401 0.950 . S
C413 C409 1.393 1_556 S
C413 C412 1.391 . S
C414 H404 0.954 . S
C414 C415 1.381 1_556 S
C414 C416 1.391 . S
C415 C414 1.381 1_554 S
C415 C419 1.393 . S
C416 H405 0.960 . S
C416 C414 1.391 . S
C416 C417 1.391 1_556 S
C417 C411 1.491 . S
C417 C416 1.391 1_554 S
C417 C418 1.398 . S
C418 H406 0.950 . S
C418 C417 1.398 . S
C418 C419 1.391 . S
C419 H407 0.950 . S
C419 C415 1.393 . S
C419 C418 1.391 . S
H420 C428 0.950 . S
H421 C433 0.950 . S
H422 C430 0.950 . S
H423 C432 0.950 . S
H424 C434 0.950 . S
H425 C436 0.950 . S
H426 C438 0.950 . S
H427 C439 0.950 . S
C428 H420 0.950 . S
C428 C429 1.386 1_556 S
C428 C430 1.391 . S
C429 C428 1.386 1_554 S
C429 C433 1.393 . S
C430 H422 0.950 . S
C430 C428 1.391 . S
C430 C431 1.400 1_556 S
C431 C430 1.400 1_554 S
C431 C432 1.398 . S
C431 C437 1.491 . S
C432 H423 0.950 . S
C432 C431 1.398 . S
C432 C433 1.391 . S
C433 H421 0.950 . S
C433 C429 1.393 . S
C433 C432 1.391 . S
C434 H424 0.950 . S
C434 C435 1.386 . S
C434 C436 1.391 . S
C435 C434 1.386 . S
C435 C439 1.393 1_554 S
C436 H425 0.950 . S
C436 C434 1.391 . S
C436 C437 1.400 . S
C437 C431 1.491 . S
C437 C436 1.400 . S
C437 C438 1.398 1_554 S
C438 H426 0.950 . S
C438 C437 1.398 1_556 S
C438 C439 1.391 . S
C439 H427 0.950 . S
C439 C435 1.393 1_556 S
C439 C438 1.391 . S
H440 C448 0.950 . S
H441 C453 0.950 . S
H442 C450 0.950 . S
H443 C452 0.950 . S
H444 C454 0.950 . S
H445 C456 0.950 . S
H446 C458 0.950 . S
H447 C459 0.950 . S
C448 H440 0.950 . S
C448 C449 1.386 . S
C448 C450 1.391 . S
C449 C448 1.386 . S
C449 C453 1.393 . S
C450 H442 0.950 . S
C450 C448 1.391 . S
C450 C451 1.400 . S
C451 C450 1.400 . S
C451 C452 1.398 . S
C451 C457 1.491 . S
C452 H443 0.950 . S
C452 C451 1.398 . S
C452 C453 1.391 . S
C453 H441 0.950 . S
C453 C449 1.393 . S
C453 C452 1.391 . S
C454 H444 0.950 . S
C454 C455 1.386 . S
C454 C456 1.391 . S
C455 C454 1.386 . S
C455 C459 1.393 . S
C456 H445 0.950 . S
C456 C454 1.391 . S
C456 C457 1.400 . S
C457 C451 1.491 . S
C457 C456 1.400 . S
C457 C458 1.398 . S
C458 H446 0.950 . S
C458 C457 1.398 . S
C458 C459 1.391 . S
C459 H447 0.950 . S
C459 C455 1.393 . S
C459 C458 1.391 . S
H460 C468 0.950 . S
H461 C473 0.950 . S
H462 C470 0.950 . S
H463 C472 0.950 . S
H464 C474 0.950 . S
H465 C476 0.950 . S
H466 C478 0.950 . S
H467 C479 0.950 . S
C468 H460 0.950 . S
C468 C469 1.386 . S
C468 C470 1.391 . S
C469 C468 1.386 . S
C469 C473 1.393 . S
C470 H462 0.950 . S
C470 C468 1.391 . S
C470 C471 1.400 . S
C471 C470 1.400 . S
C471 C472 1.398 . S
C471 C477 1.491 . S
C472 H463 0.950 . S
C472 C471 1.398 . S
C472 C473 1.391 . S
C473 H461 0.950 . S
C473 C469 1.393 . S
C473 C472 1.391 . S
C474 H464 0.950 . S
C474 C475 1.386 . S
C474 C476 1.391 . S
C475 C474 1.386 . S
C475 C479 1.393 . S
C476 H465 0.950 . S
C476 C474 1.391 . S
C476 C477 1.400 . S
C477 C471 1.491 . S
C477 C476 1.400 . S
C477 C478 1.398 . S
C478 H466 0.950 . S
C478 C477 1.398 . S
C478 C479 1.391 . S
C479 H467 0.950 . S
C479 C475 1.393 . S
C479 C478 1.391 . S
H480 C488 0.950 . S
H481 C493 0.950 . S
H482 C490 0.950 . S
H483 C492 0.950 . S
H484 C494 0.950 . S
H485 C496 0.950 . S
H486 C498 0.950 . S
H487 C499 0.950 . S
C488 H480 0.950 . S
C488 C489 1.386 . S
C488 C490 1.391 . S
C489 C488 1.386 . S
C489 C493 1.393 . S
C490 H482 0.950 . S
C490 C488 1.391 . S
C490 C491 1.400 . S
C491 C490 1.400 . S
C491 C492 1.398 . S
C491 C497 1.491 . S
C492 H483 0.950 . S
C492 C491 1.398 . S
C492 C493 1.391 . S
C493 H481 0.950 . S
C493 C489 1.393 . S
C493 C492 1.391 . S
C494 H484 0.950 . S
C494 C495 1.386 . S
C494 C496 1.391 . S
C495 C494 1.386 . S
C495 C499 1.393 . S
C496 H485 0.950 . S
C496 C494 1.391 . S
C496 C497 1.400 . S
C497 C491 1.491 . S
C497 C496 1.400 . S
C497 C498 1.398 . S
C498 H486 0.950 . S
C498 C497 1.398 . S
C498 C499 1.391 . S
C499 H487 0.950 . S
C499 C495 1.393 . S
C499 C498 1.391 . S
H500 C508 0.950 . S
H501 C513 0.950 . S
H502 C510 0.950 . S
H503 C512 0.950 . S
H504 C514 0.950 . S
H505 C516 0.950 . S
H506 C518 0.950 . S
H507 C519 0.950 . S
C508 H500 0.950 . S
C508 C509 1.386 . S
C508 C510 1.391 . S
C509 C508 1.386 . S
C509 C513 1.393 . S
C510 H502 0.950 . S
C510 C508 1.391 . S
C510 C511 1.400 . S
C511 C510 1.400 . S
C511 C512 1.398 . S
C511 C517 1.491 . S
C512 H503 0.950 . S
C512 C511 1.398 . S
C512 C513 1.391 . S
C513 H501 0.950 . S
C513 C509 1.393 . S
C513 C512 1.391 . S
C514 H504 0.950 . S
C514 C515 1.386 . S
C514 C516 1.391 . S
C515 C514 1.386 . S
C515 C519 1.393 . S
C516 H505 0.950 . S
C516 C514 1.391 . S
C516 C517 1.400 . S
C517 C511 1.491 . S
C517 C516 1.400 . S
C517 C518 1.398 . S
C518 H506 0.950 . S
C518 C517 1.398 . S
C518 C519 1.391 . S
C519 H507 0.950 . S
C519 C515 1.393 . S
C519 C518 1.391 . S
H520 C528 0.950 1_655 S
H521 C533 0.950 . S
H522 C530 0.950 . S
H523 C532 0.950 . S
H524 C534 0.950 . S
H525 C536 0.950 . S
H526 C538 0.950 . S
H527 C539 0.950 . S
C528 H520 0.950 1_455 S
C528 C529 1.386 . S
C528 C530 1.391 . S
C529 C528 1.386 . S
C529 C533 1.393 . S
C530 H522 0.950 . S
C530 C528 1.391 . S
C530 C531 1.400 . S
C531 C530 1.400 . S
C531 C532 1.398 . S
C531 C537 1.491 . S
C532 H523 0.950 . S
C532 C531 1.398 . S
C532 C533 1.391 . S
C533 H521 0.950 . S
C533 C529 1.393 . S
C533 C532 1.391 . S
C534 H524 0.950 . S
C534 C535 1.386 . S
C534 C536 1.391 . S
C535 C534 1.386 . S
C535 C539 1.393 . S
C536 H525 0.950 . S
C536 C534 1.391 . S
C536 C537 1.400 . S
C537 C531 1.491 . S
C537 C536 1.400 . S
C537 C538 1.398 . S
C538 H526 0.950 . S
C538 C537 1.398 . S
C538 C539 1.391 . S
C539 H527 0.950 . S
C539 C535 1.393 . S
C539 C538 1.391 . S
H540 C548 0.950 . S
H541 C553 0.950 . S
H542 C550 0.950 . S
H543 C552 0.950 . S
H544 C554 0.950 . S
H545 C556 0.950 . S
H546 C558 0.950 . S
H547 C559 0.950 . S
C548 H540 0.950 . S
C548 C549 1.386 . S
C548 C550 1.391 . S
C549 C548 1.386 . S
C549 C553 1.393 . S
C550 H542 0.950 . S
C550 C548 1.391 . S
C550 C551 1.400 . S
C551 C550 1.400 . S
C551 C552 1.398 . S
C551 C557 1.491 . S
C552 H543 0.950 . S
C552 C551 1.398 . S
C552 C553 1.391 . S
C553 H541 0.950 . S
C553 C549 1.393 . S
C553 C552 1.391 . S
C554 H544 0.950 . S
C554 C555 1.386 . S
C554 C556 1.391 . S
C555 C554 1.386 . S
C555 C559 1.393 . S
C556 H545 0.950 . S
C556 C554 1.391 . S
C556 C557 1.400 . S
C557 C551 1.491 . S
C557 C556 1.400 . S
C557 C558 1.398 . S
C558 H546 0.950 . S
C558 C557 1.398 . S
C558 C559 1.391 . S
C559 H547 0.950 . S
C559 C555 1.393 . S
C559 C558 1.391 . S
H560 C568 0.950 1_455 S
H561 C573 0.950 . S
H562 C570 0.950 . S
H563 C572 0.950 . S
H564 C574 0.950 . S
H565 C576 0.950 . S
H566 C578 0.950 . S
H567 C579 0.950 . S
C568 H560 0.950 1_655 S
C568 C569 1.386 . S
C568 C570 1.391 . S
C569 C568 1.386 . S
C569 C573 1.393 . S
C570 H562 0.950 . S
C570 C568 1.391 . S
C570 C571 1.400 . S
C571 C570 1.400 . S
C571 C572 1.398 . S
C571 C577 1.491 . S
C572 H563 0.950 . S
C572 C571 1.398 . S
C572 C573 1.391 . S
C573 H561 0.950 . S
C573 C569 1.393 . S
C573 C572 1.391 . S
C574 H564 0.950 . S
C574 C575 1.386 . S
C574 C576 1.391 . S
C575 C574 1.386 . S
C575 C579 1.393 . S
C576 H565 0.950 . S
C576 C574 1.391 . S
C576 C577 1.400 . S
C577 C571 1.491 . S
C577 C576 1.400 . S
C577 C578 1.398 . S
C578 H566 0.950 . S
C578 C577 1.398 . S
C578 C579 1.391 . S
C579 H567 0.950 . S
C579 C575 1.393 . S
C579 C578 1.391 . S
H580 C588 0.950 . S
H581 C593 0.950 . S
H582 C590 0.950 . S
H583 C592 0.950 . S
H584 C594 0.950 . S
H585 C596 0.950 . S
H586 C598 0.950 . S
H587 C599 0.950 . S
C588 H580 0.950 . S
C588 C589 1.386 . S
C588 C590 1.391 . S
C589 C588 1.386 . S
C589 C593 1.393 . S
C590 H582 0.950 . S
C590 C588 1.391 . S
C590 C591 1.400 . S
C591 C590 1.400 . S
C591 C592 1.398 . S
C591 C597 1.491 . S
C592 H583 0.950 . S
C592 C591 1.398 . S
C592 C593 1.391 . S
C593 H581 0.950 . S
C593 C589 1.393 . S
C593 C592 1.391 . S
C594 H584 0.950 . S
C594 C595 1.386 . S
C594 C596 1.391 . S
C595 C594 1.386 . S
C595 C599 1.393 . S
C596 H585 0.950 . S
C596 C594 1.391 . S
C596 C597 1.400 . S
C597 C591 1.491 . S
C597 C596 1.400 . S
C597 C598 1.398 . S
C598 H586 0.950 . S
C598 C597 1.398 . S
C598 C599 1.391 . S
C599 H587 0.950 . S
C599 C595 1.393 . S
C599 C598 1.391 . S
H600 C608 0.950 . S
H601 C613 0.950 . S
H602 C610 0.950 . S
H603 C612 0.950 . S
H604 C614 0.950 . S
H605 C616 0.950 . S
H606 C618 0.950 . S
H607 C619 0.950 . S
C608 H600 0.950 . S
C608 C609 1.386 . S
C608 C610 1.391 . S
C609 C608 1.386 . S
C609 C613 1.393 . S
C610 H602 0.950 . S
C610 C608 1.391 . S
C610 C611 1.400 . S
C611 C610 1.400 . S
C611 C612 1.398 . S
C611 C617 1.491 . S
C612 H603 0.950 . S
C612 C611 1.398 . S
C612 C613 1.391 . S
C613 H601 0.950 . S
C613 C609 1.393 . S
C613 C612 1.391 . S
C614 H604 0.950 . S
C614 C615 1.386 . S
C614 C616 1.391 . S
C615 C614 1.386 . S
C615 C619 1.393 . S
C616 H605 0.950 . S
C616 C614 1.391 . S
C616 C617 1.400 . S
C617 C611 1.491 . S
C617 C616 1.400 . S
C617 C618 1.398 . S
C618 H606 0.950 . S
C618 C617 1.398 . S
C618 C619 1.391 . S
C619 H607 0.950 . S
C619 C615 1.393 . S
C619 C618 1.391 . S
H620 C628 0.950 . S
H621 C633 0.950 . S
H622 C630 0.950 . S
H623 C632 0.950 . S
H624 C634 0.950 . S
H625 C636 0.950 . S
H626 C638 0.950 . S
H627 C639 0.950 . S
C628 H620 0.950 . S
C628 C629 1.386 . S
C628 C630 1.391 . S
C629 C628 1.386 . S
C629 C633 1.393 . S
C630 H622 0.950 . S
C630 C628 1.391 . S
C630 C631 1.400 . S
C631 C630 1.400 . S
C631 C632 1.398 . S
C631 C637 1.491 . S
C632 H623 0.950 . S
C632 C631 1.398 . S
C632 C633 1.391 . S
C633 H621 0.950 . S
C633 C629 1.393 . S
C633 C632 1.391 . S
C634 H624 0.950 . S
C634 C635 1.386 . S
C634 C636 1.391 . S
C635 C634 1.386 . S
C635 C639 1.393 . S
C636 H625 0.950 . S
C636 C634 1.391 . S
C636 C637 1.400 . S
C637 C631 1.491 . S
C637 C636 1.400 . S
C637 C638 1.398 . S
C638 H626 0.950 . S
C638 C637 1.398 . S
C638 C639 1.391 . S
C639 H627 0.950 . S
C639 C635 1.393 . S
C639 C638 1.391 . S
H640 C648 0.950 . S
H641 C653 0.950 . S
H642 C650 0.950 . S
H643 C652 0.950 . S
H644 C654 0.950 . S
H645 C656 0.950 . S
H646 C658 0.950 . S
H647 C659 0.950 . S
C648 H640 0.950 . S
C648 C649 1.386 . S
C648 C650 1.391 . S
C649 C648 1.386 . S
C649 C653 1.393 . S
C650 H642 0.950 . S
C650 C648 1.391 . S
C650 C651 1.400 . S
C651 C650 1.400 . S
C651 C652 1.398 . S
C651 C657 1.491 . S
C652 H643 0.950 . S
C652 C651 1.398 . S
C652 C653 1.391 . S
C653 H641 0.950 . S
C653 C649 1.393 . S
C653 C652 1.391 . S
C654 H644 0.950 . S
C654 C655 1.386 . S
C654 C656 1.391 . S
C655 C654 1.386 . S
C655 C659 1.393 . S
C656 H645 0.950 . S
C656 C654 1.391 . S
C656 C657 1.400 . S
C657 C651 1.491 . S
C657 C656 1.400 . S
C657 C658 1.398 . S
C658 H646 0.950 . S
C658 C657 1.398 . S
C658 C659 1.391 . S
C659 H647 0.950 . S
C659 C655 1.393 . S
C659 C658 1.391 . S
H660 C668 0.950 . S
H661 C673 0.950 1_455 S
H662 C670 0.950 . S
H663 C672 0.939 1_455 S
H664 C674 0.950 . S
H665 C676 0.950 . S
H666 C678 0.950 . S
H667 C679 0.950 . S
C668 H660 0.950 . S
C668 C669 1.386 . S
C668 C670 1.391 . S
C669 C668 1.386 . S
C669 C673 1.393 . S
C670 H662 0.950 . S
C670 C668 1.391 . S
C670 C671 1.400 . S
C671 C670 1.400 . S
C671 C672 1.398 . S
C671 C677 1.491 . S
C672 H663 0.939 1_655 S
C672 C671 1.398 . S
C672 C673 1.391 . S
C673 H661 0.950 1_655 S
C673 C669 1.393 . S
C673 C672 1.391 . S
C674 H664 0.950 . S
C674 C675 1.386 . S
C674 C676 1.391 . S
C675 C674 1.386 . S
C675 C679 1.393 . S
C676 H665 0.950 . S
C676 C674 1.391 . S
C676 C677 1.400 . S
C677 C671 1.491 . S
C677 C676 1.400 . S
C677 C678 1.398 . S
C678 H666 0.950 . S
C678 C677 1.398 . S
C678 C679 1.391 . S
C679 H667 0.950 . S
C679 C675 1.393 . S
C679 C678 1.391 . S
H680 C688 0.950 . S
H681 C693 0.950 . S
H682 C690 0.950 . S
H683 C692 0.950 . S
H684 C694 0.950 . S
H685 C696 0.950 . S
H686 C698 0.950 . S
H687 C699 0.950 . S
C688 H680 0.950 . S
C688 C689 1.386 . S
C688 C690 1.391 . S
C689 C688 1.386 . S
C689 C693 1.393 . S
C690 H682 0.950 . S
C690 C688 1.391 . S
C690 C691 1.400 . S
C691 C690 1.400 . S
C691 C692 1.398 . S
C691 C697 1.491 . S
C692 H683 0.950 . S
C692 C691 1.398 . S
C692 C693 1.391 . S
C693 H681 0.950 . S
C693 C689 1.393 . S
C693 C692 1.391 . S
C694 H684 0.950 . S
C694 C695 1.386 . S
C694 C696 1.391 . S
C695 C694 1.386 . S
C695 C699 1.393 . S
C696 H685 0.950 . S
C696 C694 1.391 . S
C696 C697 1.400 . S
C697 C691 1.491 . S
C697 C696 1.400 . S
C697 C698 1.398 . S
C698 H686 0.950 . S
C698 C697 1.398 . S
C698 C699 1.391 . S
C699 H687 0.950 . S
C699 C695 1.393 . S
C699 C698 1.391 . S
H700 C708 0.950 . S
H701 C713 0.950 . S
H702 C710 0.950 . S
H703 C712 0.950 . S
H704 C714 0.950 . S
H705 C716 0.950 . S
H706 C718 0.950 . S
H707 C719 0.950 . S
C708 H700 0.950 . S
C708 C709 1.386 . S
C708 C710 1.391 . S
C709 C708 1.386 . S
C709 C713 1.393 . S
C710 H702 0.950 . S
C710 C708 1.391 . S
C710 C711 1.400 . S
C711 C710 1.400 . S
C711 C712 1.398 . S
C711 C717 1.491 . S
C712 H703 0.950 . S
C712 C711 1.398 . S
C712 C713 1.391 . S
C713 H701 0.950 . S
C713 C709 1.393 . S
C713 C712 1.391 . S
C714 H704 0.950 . S
C714 C715 1.386 . S
C714 C716 1.391 . S
C715 C714 1.386 . S
C715 C719 1.393 . S
C716 H705 0.950 . S
C716 C714 1.391 . S
C716 C717 1.400 . S
C717 C711 1.491 . S
C717 C716 1.400 . S
C717 C718 1.398 . S
C718 H706 0.950 . S
C718 C717 1.398 . S
C718 C719 1.391 . S
C719 H707 0.950 . S
C719 C715 1.393 . S
C719 C718 1.391 . S
H720 C728 0.950 . S
H721 C733 0.950 . S
H722 C730 0.950 . S
H723 C732 0.950 . S
H724 C734 0.950 . S
H725 C736 0.950 . S
H726 C738 0.950 . S
H727 C739 0.950 . S
C728 H720 0.950 . S
C728 C729 1.386 . S
C728 C730 1.391 . S
C729 C728 1.386 . S
C729 C733 1.393 . S
C730 H722 0.950 . S
C730 C728 1.391 . S
C730 C731 1.400 . S
C731 C730 1.400 . S
C731 C732 1.398 . S
C731 C737 1.491 . S
C732 H723 0.950 . S
C732 C731 1.398 . S
C732 C733 1.391 . S
C733 H721 0.950 . S
C733 C729 1.393 . S
C733 C732 1.391 . S
C734 H724 0.950 . S
C734 C735 1.386 . S
C734 C736 1.391 . S
C735 C734 1.386 . S
C735 C739 1.393 . S
C736 H725 0.950 . S
C736 C734 1.391 . S
C736 C737 1.400 . S
C737 C731 1.491 . S
C737 C736 1.400 . S
C737 C738 1.398 . S
C738 H726 0.950 . S
C738 C737 1.398 . S
C738 C739 1.391 . S
C739 H727 0.950 . S
C739 C735 1.393 . S
C739 C738 1.391 . S
H740 C748 0.950 . S
H741 C753 0.950 . S
H742 C750 0.950 . S
H743 C752 0.950 . S
H744 C754 0.950 . S
H745 C756 0.950 . S
H746 C758 0.950 . S
H747 C759 0.950 . S
C748 H740 0.950 . S
C748 C749 1.386 . S
C748 C750 1.391 . S
C749 C748 1.386 . S
C749 C753 1.393 . S
C750 H742 0.950 . S
C750 C748 1.391 . S
C750 C751 1.400 . S
C751 C750 1.400 . S
C751 C752 1.398 . S
C751 C757 1.491 . S
C752 H743 0.950 . S
C752 C751 1.398 . S
C752 C753 1.391 . S
C753 H741 0.950 . S
C753 C749 1.393 . S
C753 C752 1.391 . S
C754 H744 0.950 . S
C754 C755 1.386 . S
C754 C756 1.391 . S
C755 C754 1.386 . S
C755 C759 1.393 . S
C756 H745 0.950 . S
C756 C754 1.391 . S
C756 C757 1.400 . S
C757 C751 1.491 . S
C757 C756 1.400 . S
C757 C758 1.398 . S
C758 H746 0.950 . S
C758 C757 1.398 . S
C758 C759 1.391 . S
C759 H747 0.950 . S
C759 C755 1.393 . S
C759 C758 1.391 . S
H760 C768 0.950 . S
H761 C773 0.950 . S
H762 C770 0.950 . S
H763 C772 0.950 . S
H764 C774 0.950 . S
H765 C776 0.950 . S
H766 C778 0.950 . S
H767 C779 0.950 . S
C768 H760 0.950 . S
C768 C769 1.386 . S
C768 C770 1.391 . S
C769 C768 1.386 . S
C769 C773 1.393 . S
C770 H762 0.950 . S
C770 C768 1.391 . S
C770 C771 1.400 . S
C771 C770 1.400 . S
C771 C772 1.398 . S
C771 C777 1.491 . S
C772 H763 0.950 . S
C772 C771 1.398 . S
C772 C773 1.391 . S
C773 H761 0.950 . S
C773 C769 1.393 . S
C773 C772 1.391 . S
C774 H764 0.950 . S
C774 C775 1.386 . S
C774 C776 1.391 . S
C775 C774 1.386 . S
C775 C779 1.393 . S
C776 H765 0.950 . S
C776 C774 1.391 . S
C776 C777 1.400 . S
C777 C771 1.491 . S
C777 C776 1.400 . S
C777 C778 1.398 . S
C778 H766 0.950 . S
C778 C777 1.398 . S
C778 C779 1.391 . S
C779 H767 0.950 . S
C779 C775 1.393 . S
C779 C778 1.391 . S
H780 C788 0.950 . S
H781 C793 0.950 . S
H782 C790 0.950 . S
H783 C792 0.950 . S
H784 C794 0.950 . S
H785 C796 0.950 . S
H786 C798 0.950 . S
H787 C799 0.950 . S
C788 H780 0.950 . S
C788 C789 1.386 . S
C788 C790 1.391 . S
C789 C788 1.386 . S
C789 C793 1.393 . S
C790 H782 0.950 . S
C790 C788 1.391 . S
C790 C791 1.400 . S
C791 C790 1.400 . S
C791 C792 1.398 . S
C791 C797 1.491 . S
C792 H783 0.950 . S
C792 C791 1.398 . S
C792 C793 1.391 . S
C793 H781 0.950 . S
C793 C789 1.393 . S
C793 C792 1.391 . S
C794 H784 0.950 . S
C794 C795 1.386 . S
C794 C796 1.391 . S
C795 C794 1.386 . S
C795 C799 1.393 . S
C796 H785 0.950 . S
C796 C794 1.391 . S
C796 C797 1.400 . S
C797 C791 1.491 . S
C797 C796 1.400 . S
C797 C798 1.398 . S
C798 H786 0.950 . S
C798 C797 1.398 . S
C798 C799 1.391 . S
C799 H787 0.950 . S
C799 C795 1.393 . S
C799 C798 1.391 . S
H800 C808 0.950 . S
H801 C813 0.950 . S
H802 C810 0.950 . S
H803 C812 0.950 . S
H804 C814 0.950 . S
H805 C816 0.950 . S
H806 C818 0.950 . S
H807 C819 0.950 . S
C808 H800 0.950 . S
C808 C809 1.386 . S
C808 C810 1.391 . S
C809 C808 1.386 . S
C809 C813 1.393 . S
C810 H802 0.950 . S
C810 C808 1.391 . S
C810 C811 1.400 . S
C811 C810 1.400 . S
C811 C812 1.398 . S
C811 C817 1.491 . S
C812 H803 0.950 . S
C812 C811 1.398 . S
C812 C813 1.391 . S
C813 H801 0.950 . S
C813 C809 1.393 . S
C813 C812 1.391 . S
C814 H804 0.950 . S
C814 C815 1.386 . S
C814 C816 1.391 . S
C815 C814 1.386 . S
C815 C819 1.393 . S
C816 H805 0.950 . S
C816 C814 1.391 . S
C816 C817 1.400 . S
C817 C811 1.491 . S
C817 C816 1.400 . S
C817 C818 1.398 . S
C818 H806 0.950 . S
C818 C817 1.398 . S
C818 C819 1.391 . S
C819 H807 0.950 . S
C819 C815 1.393 . S
C819 C818 1.391 . S
H820 C828 0.950 . S
H821 C833 0.950 . S
H822 C830 0.950 . S
H823 C832 0.950 . S
H824 C834 0.950 . S
H825 C836 0.950 . S
H826 C838 0.950 . S
H827 C839 0.950 . S
C828 H820 0.950 . S
C828 C829 1.386 . S
C828 C830 1.391 . S
C829 C828 1.386 . S
C829 C833 1.393 . S
C830 H822 0.950 . S
C830 C828 1.391 . S
C830 C831 1.400 . S
C831 C830 1.400 . S
C831 C832 1.398 . S
C831 C837 1.491 . S
C832 H823 0.950 . S
C832 C831 1.398 . S
C832 C833 1.391 . S
C833 H821 0.950 . S
C833 C829 1.393 . S
C833 C832 1.391 . S
C834 H824 0.950 . S
C834 C835 1.386 . S
C834 C836 1.391 . S
C835 C834 1.386 . S
C835 C839 1.393 . S
C836 H825 0.950 . S
C836 C834 1.391 . S
C836 C837 1.400 . S
C837 C831 1.491 . S
C837 C836 1.400 . S
C837 C838 1.398 . S
C838 H826 0.950 . S
C838 C837 1.398 . S
C838 C839 1.391 . S
C839 H827 0.950 . S
C839 C835 1.393 . S
C839 C838 1.391 . S
C369 C45 1.595 . S
C375 C127 1.632 . S
C389 C30 1.590 . S
C395 C159 1.630 . S
C409 C39 1.595 . S
C415 C191 1.528 . S
C435 C223 1.549 . S
C429 C34 1.608 . S
C449 C97 1.606 . S
C455 C255 1.627 . S
C475 C287 1.629 . S
C469 C82 1.608 . S
C495 C319 1.549 . S
C489 C91 1.608 . S
C515 C351 1.542 . S
C509 C86 1.603 . S
C535 C313 1.463 . S
C529 C26 1.478 . S
C555 C345 1.447 . S
C549 C36 1.469 . S
C575 C261 1.539 . S
C569 C32 1.487 . S
C595 C293 1.540 . S
C589 C42 1.484 . S
C609 C18 1.520 . S
C615 C281 1.624 . S
C635 C325 1.513 . S
C629 C50 1.541 . S
C649 C4 1.546 . S
C655 C357 1.528 . S
C669 C48 1.543 . S
C675 C249 1.626 . S
C695 C185 1.441 . S
C689 C78 1.454 . S
C709 C88 1.458 . S
C715 C217 1.445 . S
C735 C133 1.543 . S
C729 C84 1.469 . S
C755 C165 1.544 . S
C749 C94 1.466 . S
C775 C153 1.624 . S
C769 C70 1.544 . S
C795 C197 1.504 . S
C789 C102 1.530 . S
C809 C56 1.540 . S
C815 C229 1.522 . S
C829 C100 1.541 . S
C835 C121 1.626 . S
