# Generated by pormake.
# Topology zzz, (3,6)-cn, num edge types: 1
# Building blocks:
#     Node 0, Type 0, BuildingBlock: ESEHIV_clean_linker_0, # of connection points: 3
#     Node 1, Type 0, BuildingBlock: ESEHIV_clean_linker_0, # of connection points: 3
#     Node 2, Type 0, BuildingBlock: ESEHIV_clean_linker_0, # of connection points: 3
#     Node 3, Type 0, BuildingBlock: ESEHIV_clean_linker_0, # of connection points: 3
#     Node 4, Type 0, BuildingBlock: ESEHIV_clean_linker_0, # of connection points: 3
#     Node 5, Type 0, BuildingBlock: ESEHIV_clean_linker_0, # of connection points: 3
#     Node 6, Type 0, BuildingBlock: ESEHIV_clean_linker_0, # of connection points: 3
#     Node 7, Type 0, BuildingBlock: ESEHIV_clean_linker_0, # of connection points: 3
#     Node 8, Type 1, BuildingBlock: INOVEN_clean_sbu_0, # of connection points: 6
#     Node 9, Type 1, BuildingBlock: INOVEN_clean_sbu_0, # of connection points: 6
#     Node 10, Type 1, BuildingBlock: INOVEN_clean_sbu_0, # of connection points: 6
#     Node 11, Type 1, BuildingBlock: INOVEN_clean_sbu_0, # of connection points: 6
#     Edge 12, Type (0, 1), BuildingBlock: AJUNOK_clean_linker_0, # of connection points: 2
#     Edge 13, Type (0, 1), BuildingBlock: AJUNOK_clean_linker_0, # of connection points: 2
#     Edge 14, Type (0, 1), BuildingBlock: AJUNOK_clean_linker_0, # of connection points: 2
#     Edge 15, Type (0, 1), BuildingBlock: AJUNOK_clean_linker_0, # of connection points: 2
#     Edge 16, Type (0, 1), BuildingBlock: AJUNOK_clean_linker_0, # of connection points: 2
#     Edge 17, Type (0, 1), BuildingBlock: AJUNOK_clean_linker_0, # of connection points: 2
#     Edge 18, Type (0, 1), BuildingBlock: AJUNOK_clean_linker_0, # of connection points: 2
#     Edge 19, Type (0, 1), BuildingBlock: AJUNOK_clean_linker_0, # of connection points: 2
#     Edge 20, Type (0, 1), BuildingBlock: AJUNOK_clean_linker_0, # of connection points: 2
#     Edge 21, Type (0, 1), BuildingBlock: AJUNOK_clean_linker_0, # of connection points: 2
#     Edge 22, Type (0, 1), BuildingBlock: AJUNOK_clean_linker_0, # of connection points: 2
#     Edge 23, Type (0, 1), BuildingBlock: AJUNOK_clean_linker_0, # of connection points: 2
#     Edge 24, Type (0, 1), BuildingBlock: AJUNOK_clean_linker_0, # of connection points: 2
#     Edge 25, Type (0, 1), BuildingBlock: AJUNOK_clean_linker_0, # of connection points: 2
#     Edge 26, Type (0, 1), BuildingBlock: AJUNOK_clean_linker_0, # of connection points: 2
#     Edge 27, Type (0, 1), BuildingBlock: AJUNOK_clean_linker_0, # of connection points: 2
#     Edge 28, Type (0, 1), BuildingBlock: AJUNOK_clean_linker_0, # of connection points: 2
#     Edge 29, Type (0, 1), BuildingBlock: AJUNOK_clean_linker_0, # of connection points: 2
#     Edge 30, Type (0, 1), BuildingBlock: AJUNOK_clean_linker_0, # of connection points: 2
#     Edge 31, Type (0, 1), BuildingBlock: AJUNOK_clean_linker_0, # of connection points: 2
#     Edge 32, Type (0, 1), BuildingBlock: AJUNOK_clean_linker_0, # of connection points: 2
#     Edge 33, Type (0, 1), BuildingBlock: AJUNOK_clean_linker_0, # of connection points: 2
#     Edge 34, Type (0, 1), BuildingBlock: AJUNOK_clean_linker_0, # of connection points: 2
#     Edge 35, Type (0, 1), BuildingBlock: AJUNOK_clean_linker_0, # of connection points: 2
# Relax obj value: 0.604
# Max RMSD: 0.265
# Mean RMSD: 0.251
data_MOF--net-zzz--node1-INOVEN_clean_sbu_0--node2-ESEHIV_clean_linker_0--edge1-AJUNOK_clean_linker_0
_symmetry_space_group_name_H-M    P1
_symmetry_Int_Tables_number       1
_symmetry_cell_setting            triclinic
loop_
_symmetry_equiv_pos_as_xyz
'x, y, z'
_cell_length_a     32.260784
_cell_length_b     32.307715
_cell_length_c     10.58169
_cell_angle_alpha  89.799207
_cell_angle_beta   89.858665
_cell_angle_gamma 90.305344
loop_
_atom_site_label
_atom_site_type_symbol
_atom_site_fract_x
_atom_site_fract_y
_atom_site_fract_z
_atom_type_partial_charge
H0 H 0.82566 0.45145 0.35161 0.0
H1 H 0.708 0.44641 0.16546 0.0
H2 H 0.74397 0.55577 0.37396 0.0
C3 C 0.79568 0.46502 0.33215 0.0
C4 C 0.78795 0.5047 0.37862 0.0
C5 C 0.76682 0.44354 0.25733 0.0
C6 C 0.7297 0.46276 0.2256 0.0
C7 C 0.72062 0.50318 0.2653 0.0
C8 C 0.75022 0.52456 0.34256 0.0
H9 H 0.09312 0.81806 0.39412 0.0
H10 H 0.09 0.70012 0.20755 0.0
H11 H 0.97987 0.74826 0.38334 0.0
C12 C 0.07727 0.78955 0.36984 0.0
C13 C 0.03607 0.78507 0.40948 0.0
C14 C 0.09667 0.76042 0.29119 0.0
C15 C 0.07492 0.72413 0.26128 0.0
C16 C 0.03259 0.71957 0.28876 0.0
C17 C 1.0127 0.75065 0.36308 0.0
H18 H 0.72698 0.10606 0.38011 0.0
H19 H 0.84741 0.10742 0.20759 0.0
H20 H 0.8023 0.99693 0.39462 0.0
C21 C 0.75626 0.09109 0.36021 0.0
C22 C 0.76173 0.05061 0.40439 0.0
C23 C 0.78628 0.11146 0.28576 0.0
C24 C 0.82357 0.09122 0.26039 0.0
C25 C 0.82993 0.04968 0.29521 0.0
C26 C 0.79823 0.02891 0.36672 0.0
H27 H 0.45098 0.72396 0.37485 0.0
H28 H 0.56036 0.8002 0.3846 0.0
H29 H 0.44893 0.84445 0.20412 0.0
C30 C 0.46586 0.75342 0.35492 0.0
C31 C 0.44511 0.78344 0.28266 0.0
C32 C 0.50668 0.75889 0.39584 0.0
C33 C 0.52822 0.79588 0.35853 0.0
C34 C 0.50708 0.82753 0.28858 0.0
C35 C 0.4654 0.82072 0.25572 0.0
H36 H 0.2344 0.60351 0.19205 0.0
H37 H 0.34892 0.59182 0.39095 0.0
H38 H 0.30273 0.48929 0.16949 0.0
C39 C 0.26203 0.58567 0.21222 0.0
C40 C 0.26518 0.54539 0.16441 0.0
C41 C 0.29173 0.60192 0.29491 0.0
C42 C 0.32667 0.57884 0.32504 0.0
C43 C 0.33184 0.53835 0.28073 0.0
C44 C 0.30013 0.52093 0.20174 0.0
H45 H 0.95546 0.21698 0.24042 0.0
H46 H 0.94903 0.33711 0.40974 0.0
H47 H 0.05592 0.3035 0.18779 0.0
C48 C 0.96851 0.24759 0.25515 0.0
C49 C 1.00647 0.25723 0.19754 0.0
C50 C 0.94802 0.27563 0.3344 0.0
C51 C 0.96552 0.31474 0.35329 0.0
C52 C 1.00479 0.32529 0.30535 0.0
C53 C 0.02564 0.2961 0.22622 0.0
H54 H 0.31418 0.95177 0.15997 0.0
H55 H 0.21321 0.95657 0.42013 0.0
H56 H 0.23553 0.05932 0.16666 0.0
C57 C 0.28614 0.96717 0.19156 0.0
C58 C 0.2785 1.0075 0.15011 0.0
C59 C 0.26532 0.95098 0.29644 0.0
C60 C 0.22917 0.9697 0.33882 0.0
C61 C 0.21602 1.00764 0.2879 0.0
C62 C 0.24266 0.0283 0.1984 0.0
H63 H 0.60421 0.31856 0.20674 0.0
H64 H 0.49624 0.24072 0.1888 0.0
H65 H 0.60567 0.19875 0.38397 0.0
C66 C 0.58955 0.28901 0.22715 0.0
C67 C 0.60975 0.2599 0.30447 0.0
C68 C 0.54959 0.28225 0.18005 0.0
C69 C 0.52798 0.24559 0.21844 0.0
C70 C 0.5483 0.215 0.29418 0.0
C71 C 0.58966 0.22224 0.33031 0.0
Gd72 Gd 0.05731 1.01313 0.85818 0.0
Gd73 Gd 0.98886 0.03242 0.73702 0.0
C74 C 1.01542 0.9418 0.68091 0.0
C75 C 0.12025 0.98184 0.97594 0.0
C76 C 0.14569 0.94481 0.95882 0.0
C77 C 0.18399 0.94121 1.01952 0.0
C78 C 0.12908 0.91055 0.89667 0.0
C79 C 0.1803 0.86642 0.99671 0.0
C80 C 0.14597 0.87166 0.91571 0.0
C81 C 0.2016 0.90213 0.03738 0.0
C82 C 0.07856 0.04385 0.62505 0.0
C83 C 0.03071 0.10462 0.90999 0.0
C84 C 0.92468 0.06212 0.62328 0.0
C85 C 0.89649 0.09628 0.65038 0.0
C86 C 0.85837 0.09896 0.58865 0.0
C87 C 0.91023 0.1295 0.72334 0.0
C88 C 0.85822 0.17308 0.62533 0.0
C89 C 0.8913 0.16775 0.71108 0.0
C90 C 0.83867 0.13725 0.57828 0.0
C91 C 0.96777 1.00289 0.97168 0.0
O92 O 0.03586 0.94858 0.78745 0.0
O93 O 0.99813 0.97387 0.62662 0.0
O94 O 0.12383 1.01028 0.88947 0.0
O95 O 0.08167 0.97494 1.00828 0.0
O96 O 0.09167 0.05818 0.7316 0.0
O97 O 0.04999 1.01771 0.64796 0.0
O98 O 1.00945 0.09735 0.80534 0.0
O99 O 0.04896 0.07295 0.96415 0.0
O100 O 0.92268 0.03071 0.70005 0.0
O101 O 0.96281 0.07295 0.59601 0.0
O102 O 0.95511 0.98764 0.86596 0.0
O103 O 0.99638 0.02878 0.94703 0.0
H104 H 0.19828 0.96797 0.06211 0.0
H105 H 0.10054 0.91297 0.84448 0.0
H106 H 0.12812 0.84578 0.88048 0.0
H107 H 0.22906 0.8995 0.09532 0.0
H108 H 0.8459 0.07245 0.5398 0.0
H109 H 0.93823 0.12725 0.7786 0.0
H110 H 0.9068 0.19354 0.75545 0.0
H111 H 0.81126 0.13974 0.52044 0.0
Gd112 Gd 0.53138 0.05711 0.86076 0.0
Gd113 Gd 0.51614 0.98789 0.73706 0.0
C114 C 0.60507 1.02119 0.67827 0.0
C115 C 0.56106 0.11827 0.99083 0.0
C116 C 0.60049 0.14102 0.98792 0.0
C117 C 0.60236 0.18324 1.01828 0.0
C118 C 0.63699 0.11991 0.95953 0.0
C119 C 0.67765 0.18056 1.01531 0.0
C120 C 0.67502 0.13941 0.97215 0.0
C121 C 0.64088 0.20292 0.03314 0.0
C122 C 0.50173 0.07856 0.62766 0.0
C123 C 0.4389 0.0274 0.89755 0.0
C124 C 0.49191 0.91968 0.6322 0.0
C125 C 0.45901 0.88985 0.66297 0.0
C126 C 0.44984 0.8587 0.57606 0.0
C127 C 0.4298 0.89947 0.75666 0.0
C128 C 0.37759 0.86601 0.62896 0.0
C129 C 0.3888 0.88627 0.74147 0.0
C130 C 0.40874 0.84616 0.55971 0.0
C131 C 0.54728 0.96893 0.96975 0.0
O132 O 0.59706 0.04107 0.78509 0.0
O133 O 0.57402 1.00156 0.62469 0.0
O134 O 0.53735 0.12329 0.89289 0.0
O135 O 0.56313 0.0796 0.02684 0.0
O136 O 0.48669 0.09078 0.73454 0.0
O137 O 0.52815 0.05033 0.64954 0.0
O138 O 0.44912 1.00458 0.79825 0.0
O139 O 0.46865 0.04846 0.95306 0.0
O140 O 0.52257 0.92157 0.71112 0.0
O141 O 0.47911 0.95632 0.59735 0.0
O142 O 0.5641 0.95874 0.86384 0.0
O143 O 0.51896 0.99497 0.94622 0.0
H144 H 0.57422 0.2003 0.03599 0.0
H145 H 0.63644 0.08743 0.9356 0.0
H146 H 0.70239 0.12056 0.9598 0.0
H147 H 0.64209 0.23466 0.06527 0.0
H148 H 0.47302 0.84893 0.50935 0.0
H149 H 0.43689 0.92206 0.82892 0.0
H150 H 0.36518 0.89995 0.80076 0.0
H151 H 0.40084 0.82853 0.47623 0.0
Gd152 Gd 0.49188 0.52687 0.83924 0.0
Gd153 Gd 0.5595 0.50824 0.7072 0.0
C154 C 0.53032 0.59925 0.65576 0.0
C155 C 0.43217 0.55719 0.97282 0.0
C156 C 0.4105 0.59668 0.97255 0.0
C157 C 0.3689 0.59896 1.00994 0.0
C158 C 0.4322 0.63281 0.9413 0.0
C159 C 0.37382 0.67395 1.0102 0.0
C160 C 0.41411 0.67101 0.95961 0.0
C161 C 0.35058 0.63757 0.02896 0.0
C162 C 0.46777 0.49478 0.61144 0.0
C163 C 0.52088 0.43582 0.89235 0.0
C164 C 0.62158 0.4775 0.58453 0.0
C165 C 0.64961 0.44252 0.60623 0.0
C166 C 0.68856 0.44136 0.54789 0.0
C167 C 0.63557 0.40781 0.67298 0.0
C168 C 0.69118 0.36686 0.58253 0.0
C169 C 0.65606 0.37031 0.66165 0.0
C170 C 0.70955 0.40372 0.53719 0.0
C171 C 0.58239 0.53986 0.9365 0.0
O172 O 0.51053 0.59177 0.76355 0.0
O173 O 0.54841 0.56777 0.60019 0.0
O174 O 0.426 0.534 0.87443 0.0
O175 O 0.47109 0.55876 1.00646 0.0
O176 O 0.45629 0.48101 0.72105 0.0
O177 O 0.49647 0.52135 0.62798 0.0
O178 O 0.54212 0.44339 0.78721 0.0
O179 O 0.5008 0.46677 0.94325 0.0
O180 O 0.62525 0.50856 0.66152 0.0
O181 O 0.58288 0.46782 0.56177 0.0
O182 O 0.5946 0.55402 0.82832 0.0
O183 O 0.55441 0.513 0.91676 0.0
H184 H 0.35142 0.57105 0.03039 0.0
H185 H 0.46423 0.63179 0.91163 0.0
H186 H 0.43359 0.69808 0.94604 0.0
H187 H 0.31941 0.6389 0.06547 0.0
H188 H 0.70099 0.46865 0.5019 0.0
H189 H 0.60658 0.40848 0.72366 0.0
H190 H 0.64054 0.34351 0.70129 0.0
H191 H 0.73749 0.40276 0.48109 0.0
Gd192 Gd 1.01415 0.49478 0.84922 0.0
Gd193 Gd 0.03475 0.5585 0.70469 0.0
C194 C 0.94216 0.53092 0.66256 0.0
C195 C 0.98304 0.4345 0.9814 0.0
C196 C 0.9491 0.40474 0.96107 0.0
C197 C 0.94905 0.36606 1.02128 0.0
C198 C 0.91429 0.4166 0.89217 0.0
C199 C 0.8744 0.36113 0.99105 0.0
C200 C 0.87729 0.39488 0.90601 0.0
C201 C 0.91182 0.34398 0.03531 0.0
C202 C 0.04356 0.46684 0.62089 0.0
C203 C 0.10571 0.52424 0.89807 0.0
C204 C 0.06764 0.61235 0.55331 0.0
C205 C 0.10343 0.64009 0.54731 0.0
C206 C 0.11888 0.65044 0.42843 0.0
C207 C 0.12461 0.65297 0.65603 0.0
C208 C 0.17984 0.68176 0.52418 0.0
C209 C 0.16272 0.67365 0.6444 0.0
C210 C 0.15602 0.67174 0.41659 0.0
C211 C 1.00191 0.58898 0.92393 0.0
O212 O 0.94922 0.51262 0.77277 0.0
O213 O 0.9742 0.54729 0.60342 0.0
O214 O 1.01533 0.43037 0.9091 0.0
O215 O 0.97216 0.47319 0.99517 0.0
O216 O 0.05819 0.45654 0.72987 0.0
O217 O 1.01777 0.49557 0.63822 0.0
O218 O 0.09898 0.54276 0.78818 0.0
O219 O 0.07374 0.50693 0.95494 0.0
O220 O 0.03876 0.62139 0.63465 0.0
O221 O 0.07581 0.57285 0.54856 0.0
O222 O 0.99052 0.59879 0.81093 0.0
O223 O 0.02785 0.5594 0.91698 0.0
H224 H 0.97683 0.35471 0.06633 0.0
H225 H 0.91451 0.44479 0.83721 0.0
H226 H 0.85027 0.40832 0.86236 0.0
H227 H 0.91198 0.31567 0.09008 0.0
H228 H 0.10375 0.63957 0.3436 0.0
H229 H 0.11311 0.64476 0.74915 0.0
H230 H 0.18043 0.68004 0.72886 0.0
H231 H 0.16776 0.67586 0.32153 0.0
C232 C 0.17659 0.05918 0.42258 0.0
C233 C 0.17625 0.0245 0.34228 0.0
C234 C 0.14335 0.06703 0.50699 0.0
C235 C 0.10819 0.04068 0.5148 0.0
H236 H 0.20407 0.07849 0.4276 0.0
H237 H 0.14643 0.09264 0.57214 0.0
S238 S 0.09049 0.94753 0.31736 0.0
N239 N 0.13631 0.96503 0.2715 0.0
N240 N 0.07411 0.98035 0.42551 0.0
C241 C 0.10618 1.00778 0.42813 0.0
C242 C 0.14006 0.99958 0.34351 0.0
C243 C 0.54849 0.13824 0.34657 0.0
C244 C 0.52765 0.17674 0.34932 0.0
C245 C 0.53793 0.10534 0.42947 0.0
C246 C 0.50591 0.10916 0.51962 0.0
H247 H 0.57522 0.13451 0.28558 0.0
H248 H 0.55685 0.07774 0.4282 0.0
S249 S 0.43762 0.2009 0.55422 0.0
N250 N 0.47057 0.21465 0.4418 0.0
N251 N 0.45011 0.15315 0.59477 0.0
C252 C 0.48248 0.14608 0.51554 0.0
C253 C 0.49339 0.17962 0.43128 0.0
C254 C 0.40885 0.53538 0.32191 0.0
C255 C 0.36941 0.51609 0.33189 0.0
C256 C 0.44166 0.52608 0.40569 0.0
C257 C 0.4368 0.49695 0.50419 0.0
H258 H 0.41326 0.5606 0.25543 0.0
H259 H 0.47005 0.544 0.39843 0.0
S260 S 0.34214 0.43308 0.5604 0.0
N261 N 0.32934 0.46325 0.4405 0.0
N262 N 0.39065 0.4449 0.59529 0.0
C263 C 0.39886 0.47466 0.5076 0.0
C264 C 0.3654 0.48435 0.42237 0.0
C265 C 0.05707 0.36596 0.43384 0.0
C266 C 1.0227 0.36581 0.35179 0.0
C267 C 0.06546 0.39998 0.51434 0.0
C268 C 0.04004 0.43554 0.51594 0.0
H269 H 0.07555 0.33825 0.44387 0.0
H270 H 0.09067 0.39731 0.58121 0.0
S271 S 0.94829 0.45249 0.31154 0.0
N272 N 0.9647 0.40595 0.27284 0.0
N273 N 0.98118 0.46955 0.41878 0.0
C274 C 1.00768 0.43709 0.4271 0.0
C275 C 0.99888 0.40244 0.34665 0.0
C276 C 0.86618 0.99585 0.16099 0.0
C277 C 0.86886 0.02962 0.24451 0.0
C278 C 0.89959 0.98528 0.08032 0.0
C279 C 0.93729 1.00796 0.07911 0.0
H280 H 0.83698 0.97957 0.15035 0.0
H281 H 0.89478 0.9607 1.01251 0.0
S282 S 0.96238 0.09568 0.29159 0.0
N283 N 0.91436 0.08281 0.32994 0.0
N284 N 0.97642 0.06294 0.1802 0.0
C285 C 0.94157 0.03942 0.16988 0.0
C286 C 0.90766 0.05019 0.25175 0.0
C287 C 0.55918 0.86625 0.15097 0.0
C288 C 0.52636 0.86732 0.23907 0.0
C289 C 0.56809 0.90051 0.07097 0.0
C290 C 0.54455 0.93739 0.07502 0.0
H291 H 0.57585 0.83767 0.13631 0.0
H292 H 0.59192 0.89694 0.99957 0.0
S293 S 0.45871 0.95813 0.29727 0.0
N294 N 0.47303 0.91055 0.33241 0.0
N295 N 0.48999 0.97397 0.1837 0.0
C296 C 0.51417 0.94005 0.16958 0.0
C297 C 0.50511 0.90539 0.25081 0.0
C298 C 0.68183 0.55481 0.12978 0.0
C299 C 0.68082 0.52116 0.21479 0.0
C300 C 0.64838 0.5628 0.04679 0.0
C301 C 0.61237 0.53757 0.04526 0.0
H302 H 0.71001 0.5729 0.1195 0.0
H303 H 0.65198 0.58733 0.97758 0.0
S304 S 0.5922 0.44821 0.25814 0.0
N305 N 0.63885 0.46461 0.29844 0.0
N306 N 0.57647 0.48009 0.14622 0.0
C307 C 0.60955 0.50618 0.13735 0.0
C308 C 0.64353 0.49791 0.2209 0.0
C309 C 1.01976 0.64363 0.24313 0.0
C310 C 1.01082 0.68558 0.2169 0.0
C311 C 1.01527 0.61213 0.15104 0.0
C312 C 1.00081 0.62098 0.02834 0.0
H313 H 0.0327 0.63549 0.33348 0.0
H314 H 0.02477 0.58096 0.17475 0.0
S315 S 0.96897 0.72539 0.91453 0.0
N316 N 0.98437 0.73348 0.06104 0.0
N317 N 0.97389 0.67519 0.89055 0.0
C318 C 0.98856 0.66239 1.00439 0.0
C319 C 0.9939 0.69432 0.09767 0.0
C320 C 0.88251 0.234 0.34718 0.0
C321 C 0.91026 0.26185 0.4048 0.0
C322 C 0.85562 0.20974 0.42016 0.0
C323 C 0.85578 0.21274 0.55309 0.0
H324 H 0.88438 0.22788 0.24673 0.0
H325 H 0.84022 0.18439 0.37297 0.0
S326 S 0.90229 0.29777 0.73788 0.0
N327 N 0.92413 0.30149 0.59712 0.0
N328 N 0.8684 0.25952 0.72775 0.0
C329 C 0.8735 0.2486 0.60477 0.0
C330 C 0.90322 0.2716 0.53324 0.0
C331 C 0.28258 0.88748 0.42654 0.0
C332 C 0.29086 0.92841 0.38797 0.0
C333 C 0.3101 0.86679 0.50823 0.0
C334 C 0.34608 0.88691 0.5519 0.0
H335 H 0.25545 0.87136 0.3919 0.0
H336 H 0.30371 0.83506 0.53557 0.0
S337 S 0.38034 0.9944 0.47708 0.0
N338 N 0.33555 0.98884 0.4051 0.0
N339 N 0.38897 0.94926 0.54497 0.0
C340 C 0.35436 0.92769 0.5118 0.0
C341 C 0.32606 0.94878 0.43426 0.0
C342 C 0.67588 0.30109 0.31011 0.0
C343 C 0.64925 0.27214 0.36915 0.0
C344 C 0.69979 0.32837 0.3823 0.0
C345 C 0.69805 0.32682 0.51537 0.0
H346 H 0.67419 0.3064 0.20912 0.0
H347 H 0.71346 0.3546 0.33359 0.0
S348 S 0.65715 0.23965 0.70637 0.0
N349 N 0.63807 0.23218 0.56357 0.0
N350 N 0.68727 0.28096 0.69472 0.0
C351 C 0.68319 0.28987 0.56971 0.0
C352 C 0.65683 0.2633 0.49802 0.0
C353 C 0.2774 0.63348 0.50289 0.0
C354 C 0.28116 0.63852 0.37124 0.0
C355 C 0.25021 0.6584 0.57159 0.0
C356 C 0.22541 0.6875 0.50783 0.0
H357 H 0.29047 0.60667 0.54963 0.0
H358 H 0.24279 0.6487 0.66707 0.0
S359 S 0.24283 0.72769 0.18537 0.0
N360 N 0.26983 0.68452 0.19242 0.0
N361 N 0.22356 0.7344 0.32856 0.0
C362 C 0.23983 0.70126 0.38951 0.0
C363 C 0.26509 0.67457 0.31636 0.0
C364 C 0.16233 0.80222 0.27733 0.0
C365 C 0.13565 0.7726 0.22264 0.0
C366 C 0.18554 0.82934 0.20168 0.0
C367 C 0.18369 0.82683 0.06894 0.0
H368 H 0.16166 0.80781 0.37817 0.0
H369 H 0.19941 0.85584 0.24761 0.0
S370 S 0.13833 0.74121 0.88429 0.0
N371 N 0.1212 0.73365 0.02942 0.0
N372 N 0.16986 0.78142 0.89207 0.0
C373 C 0.1675 0.79022 1.01743 0.0
C374 C 0.14159 0.76401 0.09275 0.0
C375 C 0.7463 0.17762 0.27812 0.0
C376 C 0.77518 0.15101 0.22057 0.0
C377 C 0.71711 0.19853 0.20438 0.0
C378 C 0.71735 0.19413 0.07234 0.0
H379 H 0.74172 0.17684 0.37959 0.0
H380 H 0.69006 0.21047 0.25177 0.0
S381 S 0.80052 0.14978 0.87813 0.0
N382 N 0.81187 0.13586 1.02391 0.0
N383 N 0.75947 0.17971 0.88894 0.0
C384 C 0.75401 0.18011 1.01629 0.0
C385 C 0.78228 0.15637 0.08975 0.0
C386 C 0.37948 0.74232 0.27858 0.0
C387 C 0.4052 0.77211 0.21994 0.0
C388 C 0.36016 0.71186 0.20587 0.0
C389 C 0.36271 0.71313 0.07331 0.0
H390 H 0.38076 0.73768 0.37997 0.0
H391 H 0.35032 0.68386 0.25388 0.0
S392 S 0.40534 0.7972 0.87688 0.0
N393 N 0.41946 0.80895 1.0221 0.0
N394 N 0.37575 0.75569 0.88948 0.0
C395 C 0.37588 0.75018 1.01685 0.0
C396 C 0.39941 0.77901 0.08919 0.0
C397 C 0.77142 0.39586 0.07046 0.0
C398 C 0.77846 0.40326 0.19975 0.0
C399 C 0.79763 0.36945 1.00269 0.0
C400 C 0.83414 0.35436 0.05953 0.0
H401 H 0.74928 0.41404 1.01766 0.0
H402 H 0.79389 0.36806 0.90107 0.0
S403 S 0.84933 0.34534 0.40662 0.0
N404 N 0.80923 0.37606 0.39088 0.0
N405 N 0.86308 0.33225 0.26188 0.0
C406 C 0.83414 0.35249 0.19291 0.0
C407 C 0.80544 0.37658 0.26307 0.0
C408 C 0.03976 0.18744 0.17001 0.0
C409 C 1.02422 0.22386 0.11393 0.0
C410 C 0.04351 0.15004 0.1018 0.0
C411 C 0.03106 0.14661 0.97414 0.0
H412 H 0.04667 0.18715 0.27015 0.0
H413 H 0.05431 0.12295 0.15223 0.0
S414 S 0.99214 0.23382 0.7787 0.0
N415 N 0.99894 0.2546 0.91969 0.0
N416 N 1.00605 0.18485 0.79171 0.0
C417 C 1.01742 0.18336 0.91506 0.0
C418 C 1.01393 0.22161 0.98463 0.0
C419 C 0.34728 0.04476 0.12925 0.0
C420 C 0.31285 0.02591 0.07006 0.0
C421 C 0.387 0.04643 0.07103 0.0
C422 C 0.39483 0.02867 0.95104 0.0
H423 H 0.34428 0.05566 0.22549 0.0
H424 H 0.41229 0.06001 0.12401 0.0
S425 S 0.31399 0.97849 0.75295 0.0
N426 N 0.28872 0.99168 0.88188 0.0
N427 N 0.36241 0.99412 0.77306 0.0
C428 C 0.35998 1.01158 0.88889 0.0
C429 C 0.31953 1.01047 0.94779 0.0
C430 C 0.548 0.3221 0.97362 0.0
C431 C 0.53229 0.31629 0.09734 0.0
C432 C 0.54275 0.35974 0.9061 0.0
C433 C 0.52215 0.39403 0.95951 0.0
H434 H 0.56643 0.29793 0.93085 0.0
H435 H 0.55621 0.3623 0.81267 0.0
S436 S 0.47516 0.39511 0.28174 0.0
N437 N 0.49499 0.34825 0.26973 0.0
N438 N 0.48487 0.41834 0.14549 0.0
C439 C 0.50518 0.38803 0.08213 0.0
C440 C 0.51041 0.3496 0.15018 0.0
C441 C 0.22078 0.5504 0.96753 0.0
C442 C 0.22898 0.53079 0.08457 0.0
C443 C 0.18181 0.54701 0.90633 0.0
C444 C 0.1484 0.52444 0.95983 0.0
H445 H 0.24423 0.57031 0.92562 0.0
H446 H 0.17743 0.56367 0.81839 0.0
S447 S 0.15325 0.4671 0.26554 0.0
N448 N 0.20001 0.48766 0.25064 0.0
N449 N 0.1274 0.48112 0.13793 0.0
C450 C 0.1566 0.50378 0.07555 0.0
C451 C 0.19647 0.50703 0.13706 0.0
C452 C 0.03456 0.8259 0.61263 0.0
C453 C 1.01946 0.8202 0.48847 0.0
C454 C 0.03171 0.86441 0.6759 0.0
C455 C 1.01419 0.8996 0.61767 0.0
H456 H 0.05094 0.80088 0.65879 0.0
H457 H 0.04479 0.86687 0.76968 0.0
S458 S 0.96971 0.90136 0.29301 0.0
N459 N 0.98588 0.85328 0.31078 0.0
N460 N 0.98009 0.925 0.42749 0.0
C461 C 0.9976 0.89381 0.49495 0.0
C462 C 1.00042 0.85451 0.4311 0.0
C463 C 0.71945 0.0497 0.60594 0.0
C464 C 0.72675 0.03322 0.48431 0.0
C465 C 0.681 0.04451 0.66954 0.0
C466 C 0.64738 1.02306 0.61422 0.0
H467 H 0.74309 0.06876 0.64982 0.0
H468 H 0.67725 0.0588 0.7611 0.0
S469 S 0.65005 0.97392 0.29617 0.0
N470 N 0.6968 0.99438 0.3116 0.0
N471 N 0.6252 0.98428 0.4289 0.0
C472 C 0.65479 1.00539 0.49375 0.0
C473 C 0.69405 1.0106 0.42957 0.0
C474 C 0.50996 0.71592 0.59601 0.0
C475 C 0.52426 0.72308 0.4713 0.0
C476 C 0.5133 0.67671 0.65612 0.0
C477 C 0.53062 0.64208 0.59433 0.0
H478 H 0.49373 0.74035 0.64523 0.0
H479 H 0.50076 0.67326 0.75049 0.0
S480 S 0.5727 0.64384 0.26612 0.0
N481 N 0.55658 0.69171 0.28869 0.0
N482 N 0.5633 0.61879 0.39957 0.0
C483 C 0.54625 0.64925 0.47074 0.0
C484 C 0.54289 0.68925 0.40999 0.0
C485 C 0.85849 0.53802 0.40259 0.0
C486 C 0.8219 0.52292 0.46019 0.0
C487 C 0.89619 0.54207 0.47006 0.0
C488 C 0.89983 0.53047 0.59877 0.0
H489 H 0.85866 0.54437 0.302 0.0
H490 H 0.9233 0.55257 0.41837 0.0
S491 S 0.81241 0.49171 0.79706 0.0
N492 N 0.79148 0.49803 0.656 0.0
N493 N 0.86145 0.50614 0.78296 0.0
C494 C 0.86292 0.51708 0.65905 0.0
C495 C 0.82444 0.51311 0.59001 0.0
loop_
_geom_bond_atom_site_label_1
_geom_bond_atom_site_label_2
_geom_bond_distance
_geom_bond_site_symmetry_2
_ccdc_geom_bond_type
H0 C3 0.931 . S
H1 C6 0.928 . S
H2 C8 0.930 . S
C3 H0 0.931 . S
C3 C4 1.413 . S
C3 C5 1.360 . S
C4 C3 1.413 . S
C4 C8 1.429 . S
C5 C3 1.360 . S
C5 C6 1.372 . S
C6 H1 0.928 . S
C6 C5 1.372 . S
C6 C7 1.404 . S
C7 C6 1.404 . S
C7 C8 1.391 . S
C8 H2 0.930 . S
C8 C4 1.429 . S
C8 C7 1.391 . S
H9 C12 0.931 . S
H10 C15 0.928 . S
H11 C17 0.930 . S
C12 H9 0.931 . S
C12 C13 1.413 . S
C12 C14 1.360 . S
C13 C12 1.413 . S
C13 C17 1.429 1_655 S
C14 C12 1.360 . S
C14 C15 1.372 . S
C15 H10 0.928 . S
C15 C14 1.372 . S
C15 C16 1.404 . S
C16 C15 1.404 . S
C16 C17 1.390 1_655 S
C17 H11 0.930 . S
C17 C13 1.429 1_455 S
C17 C16 1.390 1_455 S
H18 C21 0.931 . S
H19 C24 0.928 . S
H20 C26 0.930 . S
C21 H18 0.931 . S
C21 C22 1.413 . S
C21 C23 1.360 . S
C22 C21 1.413 . S
C22 C26 1.429 1_565 S
C23 C21 1.360 . S
C23 C24 1.372 . S
C24 H19 0.928 . S
C24 C23 1.372 . S
C24 C25 1.404 . S
C25 C24 1.404 . S
C25 C26 1.390 1_565 S
C26 H20 0.930 . S
C26 C22 1.429 1_545 S
C26 C25 1.390 1_545 S
H27 C30 0.931 . S
H28 C33 0.928 . S
H29 C35 0.930 . S
C30 H27 0.931 . S
C30 C31 1.413 . S
C30 C32 1.360 . S
C31 C30 1.413 . S
C31 C35 1.429 . S
C32 C30 1.360 . S
C32 C33 1.372 . S
C33 H28 0.928 . S
C33 C32 1.372 . S
C33 C34 1.404 . S
C34 C33 1.404 . S
C34 C35 1.391 . S
C35 H29 0.930 . S
C35 C31 1.429 . S
C35 C34 1.391 . S
H36 C39 0.931 1_556 S
H37 C42 0.928 . S
H38 C44 0.930 . S
C39 H36 0.931 1_554 S
C39 C40 1.413 1_554 S
C39 C41 1.360 . S
C40 C39 1.413 1_556 S
C40 C44 1.429 . S
C41 C39 1.360 . S
C41 C42 1.372 . S
C42 H37 0.928 . S
C42 C41 1.372 . S
C42 C43 1.404 . S
C43 C42 1.404 . S
C43 C44 1.391 1_554 S
C44 H38 0.930 . S
C44 C40 1.429 . S
C44 C43 1.391 1_556 S
H45 C48 0.931 1_556 S
H46 C51 0.928 . S
H47 C53 0.930 . S
C48 H45 0.931 1_554 S
C48 C49 1.413 1_554 S
C48 C50 1.360 . S
C49 C48 1.413 1_556 S
C49 C53 1.429 1_655 S
C50 C48 1.360 . S
C50 C51 1.372 . S
C51 H46 0.928 . S
C51 C50 1.372 . S
C51 C52 1.404 . S
C52 C51 1.404 . S
C52 C53 1.391 1_654 S
C53 H47 0.930 . S
C53 C49 1.429 1_455 S
C53 C52 1.391 1_456 S
H54 C57 0.931 1_556 S
H55 C60 0.928 . S
H56 C62 0.930 . S
C57 H54 0.931 1_554 S
C57 C58 1.413 1_554 S
C57 C59 1.360 . S
C58 C57 1.413 1_556 S
C58 C62 1.429 1_565 S
C59 C57 1.360 . S
C59 C60 1.372 . S
C60 H55 0.928 . S
C60 C59 1.372 . S
C60 C61 1.404 . S
C61 C60 1.404 . S
C61 C62 1.391 1_564 S
C62 H56 0.930 . S
C62 C58 1.429 1_545 S
C62 C61 1.391 1_546 S
H63 C66 0.931 . S
H64 C69 0.928 . S
H65 C71 0.930 . S
C66 H63 0.931 . S
C66 C67 1.413 1_556 S
C66 C68 1.360 . S
C67 C66 1.413 1_554 S
C67 C71 1.429 . S
C68 C66 1.360 . S
C68 C69 1.372 . S
C69 H64 0.928 . S
C69 C68 1.372 . S
C69 C70 1.404 1_556 S
C70 C69 1.404 1_554 S
C70 C71 1.391 . S
C71 H65 0.930 . S
C71 C67 1.429 . S
C71 C70 1.391 . S
Gd72 C75 2.818 1_556 S
Gd72 O92 2.377 . S
Gd72 O94 2.448 . S
Gd72 O95 2.506 1_556 S
Gd72 O96 2.435 . S
Gd72 O97 2.717 1_565 S
Gd72 O99 2.395 1_565 S
Gd72 O103 2.327 1_455 S
Gd73 C84 2.818 . S
Gd73 O93 2.395 1_545 S
Gd73 O97 2.327 1_655 S
Gd73 O98 2.377 . S
Gd73 O100 2.448 . S
Gd73 O101 2.506 . S
Gd73 O102 2.435 . S
Gd73 O103 2.717 1_545 S
C74 O92 1.240 1_655 S
C74 O93 1.240 . S
C75 Gd72 2.818 1_554 S
C75 C76 1.510 . S
C75 O94 1.249 1_554 S
C75 O95 1.252 . S
C76 C75 1.510 . S
C76 C77 1.404 . S
C76 C78 1.352 . S
C77 C76 1.404 . S
C77 C81 1.389 . S
C77 H104 0.930 . S
C78 C76 1.352 . S
C78 C80 1.374 . S
C78 H105 0.931 . S
C79 C80 1.359 . S
C79 C81 1.364 . S
C80 C78 1.374 . S
C80 C79 1.359 . S
C80 H106 0.931 . S
C81 C77 1.389 . S
C81 C79 1.364 . S
C81 H107 0.931 . S
C82 O96 1.256 . S
C82 O97 1.257 1_565 S
C83 O98 1.240 1_455 S
C83 O99 1.240 . S
C84 Gd73 2.818 . S
C84 C85 1.510 . S
C84 O100 1.249 . S
C84 O101 1.252 . S
C85 C84 1.510 . S
C85 C86 1.404 . S
C85 C87 1.352 . S
C86 C85 1.404 . S
C86 C90 1.389 . S
C86 H108 0.930 . S
C87 C85 1.352 . S
C87 C89 1.374 . S
C87 H109 0.931 . S
C88 C89 1.359 . S
C88 C90 1.364 . S
C89 C87 1.374 . S
C89 C88 1.359 . S
C89 H110 0.931 . S
C90 C86 1.389 . S
C90 C88 1.364 . S
C90 H111 0.931 . S
C91 O102 1.256 . S
C91 O103 1.257 1_545 S
O92 Gd72 2.377 . S
O92 C74 1.240 1_455 S
O93 Gd73 2.395 1_565 S
O93 C74 1.240 . S
O94 Gd72 2.448 . S
O94 C75 1.249 1_556 S
O95 Gd72 2.506 1_554 S
O95 C75 1.252 . S
O96 Gd72 2.435 . S
O96 C82 1.256 . S
O97 Gd72 2.717 1_545 S
O97 Gd73 2.327 1_455 S
O97 C82 1.257 1_545 S
O98 Gd73 2.377 . S
O98 C83 1.240 1_655 S
O99 Gd72 2.395 1_545 S
O99 C83 1.240 . S
O100 Gd73 2.448 . S
O100 C84 1.249 . S
O101 Gd73 2.506 . S
O101 C84 1.252 . S
O102 Gd73 2.435 . S
O102 C91 1.256 . S
O103 Gd72 2.327 1_655 S
O103 Gd73 2.717 1_565 S
O103 C91 1.257 1_565 S
H104 C77 0.930 . S
H105 C78 0.931 . S
H106 C80 0.931 . S
H107 C81 0.931 . S
H108 C86 0.930 . S
H109 C87 0.931 . S
H110 C89 0.931 . S
H111 C90 0.931 . S
Gd112 C115 2.818 1_556 S
Gd112 O132 2.377 . S
Gd112 O134 2.448 . S
Gd112 O135 2.506 1_556 S
Gd112 O136 2.435 . S
Gd112 O137 2.717 . S
Gd112 O139 2.395 . S
Gd112 O143 2.327 1_545 S
Gd113 C124 2.818 . S
Gd113 O133 2.395 . S
Gd113 O137 2.327 1_565 S
Gd113 O138 2.377 . S
Gd113 O140 2.448 . S
Gd113 O141 2.506 . S
Gd113 O142 2.435 . S
Gd113 O143 2.717 . S
C114 O132 1.240 1_565 S
C114 O133 1.240 . S
C115 Gd112 2.818 1_554 S
C115 C116 1.510 . S
C115 O134 1.249 1_554 S
C115 O135 1.252 . S
C116 C115 1.510 . S
C116 C117 1.404 . S
C116 C118 1.352 . S
C117 C116 1.404 . S
C117 C121 1.389 . S
C117 H144 0.930 . S
C118 C116 1.352 . S
C118 C120 1.374 . S
C118 H145 0.920 1_545 S
C119 C120 1.359 . S
C119 C121 1.364 . S
C120 C118 1.374 . S
C120 C119 1.359 . S
C120 H146 0.931 . S
C121 C117 1.389 . S
C121 C119 1.364 . S
C121 H147 0.931 . S
C122 O136 1.256 . S
C122 O137 1.257 . S
C123 O138 1.240 1_545 S
C123 O139 1.240 . S
C124 Gd113 2.818 . S
C124 C125 1.510 . S
C124 O140 1.249 . S
C124 O141 1.252 . S
C125 C124 1.510 . S
C125 C126 1.404 . S
C125 C127 1.352 . S
C126 C125 1.404 . S
C126 C130 1.389 . S
C126 H148 0.930 . S
C127 C125 1.352 . S
C127 C129 1.374 . S
C127 H149 0.914 1_565 S
C128 C129 1.359 . S
C128 C130 1.364 . S
C129 C127 1.374 . S
C129 C128 1.359 . S
C129 H150 0.931 . S
C130 C126 1.389 . S
C130 C128 1.364 . S
C130 H151 0.931 . S
C131 O142 1.256 . S
C131 O143 1.257 . S
O132 Gd112 2.377 . S
O132 C114 1.240 1_545 S
O133 Gd113 2.395 . S
O133 C114 1.240 . S
O134 Gd112 2.448 . S
O134 C115 1.249 1_556 S
O135 Gd112 2.506 1_554 S
O135 C115 1.252 . S
O136 Gd112 2.435 . S
O136 C122 1.256 . S
O137 Gd112 2.717 . S
O137 Gd113 2.327 1_545 S
O137 C122 1.257 . S
O138 Gd113 2.377 . S
O138 C123 1.240 1_565 S
O139 Gd112 2.395 . S
O139 C123 1.240 . S
O140 Gd113 2.448 . S
O140 C124 1.249 . S
O141 Gd113 2.506 . S
O141 C124 1.252 . S
O142 Gd113 2.435 . S
O142 C131 1.256 . S
O143 Gd112 2.327 1_565 S
O143 Gd113 2.717 . S
O143 C131 1.257 . S
H144 C117 0.930 . S
H145 C118 0.920 1_565 S
H146 C120 0.931 . S
H147 C121 0.931 . S
H148 C126 0.930 . S
H149 C127 0.914 1_545 S
H150 C129 0.931 . S
H151 C130 0.931 . S
Gd152 C155 2.818 1_556 S
Gd152 O172 2.377 . S
Gd152 O174 2.448 . S
Gd152 O175 2.506 1_556 S
Gd152 O176 2.435 . S
Gd152 O177 2.717 . S
Gd152 O179 2.395 . S
Gd152 O183 2.327 . S
Gd153 C164 2.818 . S
Gd153 O173 2.395 . S
Gd153 O177 2.327 . S
Gd153 O178 2.377 . S
Gd153 O180 2.448 . S
Gd153 O181 2.506 . S
Gd153 O182 2.435 . S
Gd153 O183 2.717 . S
C154 O172 1.240 . S
C154 O173 1.240 . S
C155 Gd152 2.818 1_554 S
C155 C156 1.510 . S
C155 O174 1.249 1_554 S
C155 O175 1.252 . S
C156 C155 1.510 . S
C156 C157 1.404 . S
C156 C158 1.352 . S
C157 C156 1.404 . S
C157 C161 1.389 . S
C157 H184 0.930 . S
C158 C156 1.352 . S
C158 C160 1.374 . S
C158 H185 0.931 . S
C159 C160 1.359 . S
C159 C161 1.364 . S
C160 C158 1.374 . S
C160 C159 1.359 . S
C160 H186 0.931 . S
C161 C157 1.389 . S
C161 C159 1.364 . S
C161 H187 0.931 . S
C162 O176 1.256 . S
C162 O177 1.257 . S
C163 O178 1.240 . S
C163 O179 1.240 . S
C164 Gd153 2.818 . S
C164 C165 1.510 . S
C164 O180 1.249 . S
C164 O181 1.252 . S
C165 C164 1.510 . S
C165 C166 1.404 . S
C165 C167 1.352 . S
C166 C165 1.404 . S
C166 C170 1.389 . S
C166 H188 0.930 . S
C167 C165 1.352 . S
C167 C169 1.374 . S
C167 H189 0.931 . S
C168 C169 1.359 . S
C168 C170 1.364 . S
C169 C167 1.374 . S
C169 C168 1.359 . S
C169 H190 0.931 . S
C170 C166 1.389 . S
C170 C168 1.364 . S
C170 H191 0.931 . S
C171 O182 1.256 . S
C171 O183 1.257 . S
O172 Gd152 2.377 . S
O172 C154 1.240 . S
O173 Gd153 2.395 . S
O173 C154 1.240 . S
O174 Gd152 2.448 . S
O174 C155 1.249 1_556 S
O175 Gd152 2.506 1_554 S
O175 C155 1.252 . S
O176 Gd152 2.435 . S
O176 C162 1.256 . S
O177 Gd152 2.717 . S
O177 Gd153 2.327 . S
O177 C162 1.257 . S
O178 Gd153 2.377 . S
O178 C163 1.240 . S
O179 Gd152 2.395 . S
O179 C163 1.240 . S
O180 Gd153 2.448 . S
O180 C164 1.249 . S
O181 Gd153 2.506 . S
O181 C164 1.252 . S
O182 Gd153 2.435 . S
O182 C171 1.256 . S
O183 Gd152 2.327 . S
O183 Gd153 2.717 . S
O183 C171 1.257 . S
H184 C157 0.930 . S
H185 C158 0.931 . S
H186 C160 0.931 . S
H187 C161 0.931 . S
H188 C166 0.930 . S
H189 C167 0.931 . S
H190 C169 0.931 . S
H191 C170 0.931 . S
Gd192 C195 2.818 1_556 S
Gd192 O212 2.377 . S
Gd192 O214 2.448 . S
Gd192 O215 2.506 1_556 S
Gd192 O216 2.435 . S
Gd192 O217 2.717 1_655 S
Gd192 O219 2.395 1_655 S
Gd192 O223 2.327 . S
Gd193 C204 2.818 . S
Gd193 O213 2.395 1_455 S
Gd193 O217 2.327 . S
Gd193 O218 2.377 . S
Gd193 O220 2.448 . S
Gd193 O221 2.506 . S
Gd193 O222 2.435 . S
Gd193 O223 2.717 1_455 S
C194 O212 1.240 . S
C194 O213 1.240 . S
C195 Gd192 2.818 1_554 S
C195 C196 1.510 . S
C195 O214 1.249 1_554 S
C195 O215 1.252 . S
C196 C195 1.510 . S
C196 C197 1.404 . S
C196 C198 1.352 . S
C197 C196 1.404 . S
C197 C201 1.389 . S
C197 H224 0.930 . S
C198 C196 1.352 . S
C198 C200 1.374 . S
C198 H225 0.931 . S
C199 C200 1.359 . S
C199 C201 1.364 . S
C200 C198 1.374 . S
C200 C199 1.359 . S
C200 H226 0.931 . S
C201 C197 1.389 . S
C201 C199 1.364 . S
C201 H227 0.931 . S
C202 O216 1.262 . S
C202 O217 1.254 1_655 S
C203 O218 1.240 . S
C203 O219 1.240 . S
C204 Gd193 2.818 . S
C204 C205 1.510 . S
C204 O220 1.249 . S
C204 O221 1.252 . S
C205 C204 1.510 . S
C205 C206 1.404 . S
C205 C207 1.352 . S
C206 C205 1.404 . S
C206 C210 1.389 . S
C206 H228 0.930 . S
C207 C205 1.352 . S
C207 C209 1.374 . S
C207 H229 0.931 . S
C208 C209 1.359 . S
C208 C210 1.364 . S
C209 C207 1.374 . S
C209 C208 1.359 . S
C209 H230 0.931 . S
C210 C206 1.389 . S
C210 C208 1.364 . S
C210 H231 0.931 . S
C211 O222 1.265 . S
C211 O223 1.253 1_455 S
O212 Gd192 2.377 . S
O212 C194 1.240 . S
O213 Gd193 2.395 1_655 S
O213 C194 1.240 . S
O214 Gd192 2.448 . S
O214 C195 1.249 1_556 S
O215 Gd192 2.506 1_554 S
O215 C195 1.252 . S
O216 Gd192 2.435 . S
O216 C202 1.262 . S
O217 Gd192 2.717 1_455 S
O217 Gd193 2.327 . S
O217 C202 1.254 1_455 S
O218 Gd193 2.377 . S
O218 C203 1.240 . S
O219 Gd192 2.395 1_455 S
O219 C203 1.240 . S
O220 Gd193 2.448 . S
O220 C204 1.249 . S
O221 Gd193 2.506 . S
O221 C204 1.252 . S
O222 Gd193 2.435 . S
O222 C211 1.265 . S
O223 Gd192 2.327 . S
O223 Gd193 2.717 1_655 S
O223 C211 1.253 1_655 S
H224 C197 0.930 . S
H225 C198 0.931 . S
H226 C200 0.931 . S
H227 C201 0.931 . S
H228 C206 0.930 . S
H229 C207 0.931 . S
H230 C209 0.931 . S
H231 C210 0.931 . S
C232 C233 1.370 . S
C232 C234 1.419 . S
C232 H236 0.930 . S
C233 C232 1.370 . S
C233 C242 1.427 1_545 S
C234 C232 1.419 . S
C234 C235 1.363 . S
C234 H237 0.929 . S
C235 C234 1.363 . S
C235 C241 1.428 1_545 S
H236 C232 0.930 . S
H237 C234 0.929 . S
S238 N239 1.613 . S
S238 N240 1.610 . S
N239 S238 1.613 . S
N239 C242 1.350 . S
N240 S238 1.610 . S
N240 C241 1.351 . S
C241 C235 1.428 1_565 S
C241 N240 1.351 . S
C241 C242 1.434 . S
C242 C233 1.427 1_565 S
C242 N239 1.350 . S
C242 C241 1.434 . S
C243 C244 1.369 . S
C243 C245 1.419 . S
C243 H247 0.930 . S
C244 C243 1.369 . S
C244 C253 1.429 . S
C245 C243 1.419 . S
C245 C246 1.363 . S
C245 H248 0.929 . S
C246 C245 1.363 . S
C246 C252 1.428 . S
H247 C243 0.930 . S
H248 C245 0.929 . S
S249 N250 1.613 . S
S249 N251 1.610 . S
N250 S249 1.613 . S
N250 C253 1.350 . S
N251 S249 1.610 . S
N251 C252 1.351 . S
C252 C246 1.428 . S
C252 N251 1.351 . S
C252 C253 1.434 . S
C253 C244 1.429 . S
C253 N250 1.350 . S
C253 C252 1.434 . S
C254 C255 1.369 . S
C254 C256 1.419 . S
C254 H258 0.930 . S
C255 C254 1.369 . S
C255 C264 1.429 . S
C256 C254 1.419 . S
C256 C257 1.363 . S
C256 H259 0.929 . S
C257 C256 1.363 . S
C257 C263 1.428 . S
H258 C254 0.930 . S
H259 C256 0.929 . S
S260 N261 1.613 . S
S260 N262 1.610 . S
N261 S260 1.613 . S
N261 C264 1.350 . S
N262 S260 1.610 . S
N262 C263 1.351 . S
C263 C257 1.428 . S
C263 N262 1.351 . S
C263 C264 1.434 . S
C264 C255 1.429 . S
C264 N261 1.350 . S
C264 C263 1.434 . S
C265 C266 1.379 . S
C265 C267 1.419 . S
C265 H269 0.930 . S
C266 C265 1.379 . S
C266 C275 1.419 1_455 S
C267 C265 1.419 . S
C267 C268 1.363 . S
C267 H270 0.929 . S
C268 C267 1.363 . S
C268 C274 1.428 1_455 S
H269 C265 0.930 . S
H270 C267 0.929 . S
S271 N272 1.613 . S
S271 N273 1.610 . S
N272 S271 1.613 . S
N272 C275 1.350 . S
N273 S271 1.610 . S
N273 C274 1.351 . S
C274 C268 1.428 1_655 S
C274 N273 1.351 . S
C274 C275 1.434 . S
C275 C266 1.419 1_655 S
C275 N272 1.350 . S
C275 C274 1.434 . S
C276 C277 1.369 . S
C276 C278 1.419 . S
C276 H280 0.930 . S
C277 C276 1.369 . S
C277 C286 1.429 1_565 S
C278 C276 1.419 . S
C278 C279 1.363 . S
C278 H281 0.929 . S
C279 C278 1.363 . S
C279 C285 1.428 1_565 S
H280 C276 0.930 . S
H281 C278 0.929 . S
S282 N283 1.613 . S
S282 N284 1.610 . S
N283 S282 1.613 . S
N283 C286 1.350 . S
N284 S282 1.610 . S
N284 C285 1.351 . S
C285 C279 1.428 1_545 S
C285 N284 1.351 . S
C285 C286 1.434 . S
C286 C277 1.429 1_545 S
C286 N283 1.350 . S
C286 C285 1.434 . S
C287 C288 1.369 . S
C287 C289 1.419 . S
C287 H291 0.930 . S
C288 C287 1.369 . S
C288 C297 1.429 . S
C289 C287 1.419 . S
C289 C290 1.363 . S
C289 H292 0.929 . S
C290 C289 1.363 . S
C290 C296 1.428 . S
H291 C287 0.930 . S
H292 C289 0.929 . S
S293 N294 1.613 . S
S293 N295 1.610 . S
N294 S293 1.613 . S
N294 C297 1.350 . S
N295 S293 1.610 . S
N295 C296 1.351 . S
C296 C290 1.428 . S
C296 N295 1.351 . S
C296 C297 1.434 . S
C297 C288 1.429 . S
C297 N294 1.350 . S
C297 C296 1.434 . S
C298 C299 1.369 . S
C298 C300 1.419 . S
C298 H302 0.930 . S
C299 C298 1.369 . S
C299 C308 1.429 . S
C300 C298 1.419 . S
C300 C301 1.363 . S
C300 H303 0.929 . S
C301 C300 1.363 . S
C301 C307 1.428 . S
H302 C298 0.930 . S
H303 C300 0.929 . S
S304 N305 1.613 . S
S304 N306 1.610 . S
N305 S304 1.613 . S
N305 C308 1.350 . S
N306 S304 1.610 . S
N306 C307 1.351 . S
C307 C301 1.428 . S
C307 N306 1.351 . S
C307 C308 1.434 . S
C308 C299 1.429 . S
C308 N305 1.350 . S
C308 C307 1.434 . S
C309 C310 1.369 1_455 S
C309 C311 1.419 . S
C309 H313 0.930 . S
C310 C309 1.369 1_655 S
C310 C319 1.429 . S
C311 C309 1.419 . S
C311 C312 1.363 1_455 S
C311 H314 0.929 . S
C312 C311 1.363 1_655 S
C312 C318 1.428 . S
H313 C309 0.930 . S
H314 C311 0.929 . S
S315 N316 1.613 . S
S315 N317 1.610 . S
N316 S315 1.613 . S
N316 C319 1.350 . S
N317 S315 1.610 . S
N317 C318 1.351 . S
C318 C312 1.428 . S
C318 N317 1.351 . S
C318 C319 1.434 . S
C319 C310 1.429 . S
C319 N316 1.350 . S
C319 C318 1.434 . S
C320 C321 1.369 . S
C320 C322 1.419 . S
C320 H324 0.930 1_655 S
C321 C320 1.369 . S
C321 C330 1.429 . S
C322 C320 1.419 . S
C322 C323 1.363 . S
C322 H325 0.929 . S
C323 C322 1.363 . S
C323 C329 1.428 . S
H324 C320 0.930 1_455 S
H325 C322 0.929 . S
S326 N327 1.613 . S
S326 N328 1.610 . S
N327 S326 1.613 . S
N327 C330 1.350 . S
N328 S326 1.610 . S
N328 C329 1.351 . S
C329 C323 1.428 . S
C329 N328 1.351 . S
C329 C330 1.434 . S
C330 C321 1.429 . S
C330 N327 1.350 . S
C330 C329 1.434 . S
C331 C332 1.369 . S
C331 C333 1.419 . S
C331 H335 0.930 . S
C332 C331 1.369 . S
C332 C341 1.429 . S
C333 C331 1.419 . S
C333 C334 1.363 . S
C333 H336 0.929 . S
C334 C333 1.363 . S
C334 C340 1.428 . S
H335 C331 0.930 . S
H336 C333 0.929 . S
S337 N338 1.613 . S
S337 N339 1.610 1_545 S
N338 S337 1.613 . S
N338 C341 1.350 1_545 S
N339 S337 1.610 1_565 S
N339 C340 1.351 . S
C340 C334 1.428 . S
C340 N339 1.351 . S
C340 C341 1.434 . S
C341 C332 1.429 . S
C341 N338 1.350 1_565 S
C341 C340 1.434 . S
C342 C343 1.369 . S
C342 C344 1.419 . S
C342 H346 0.930 . S
C343 C342 1.369 . S
C343 C352 1.429 . S
C344 C342 1.419 . S
C344 C345 1.363 . S
C344 H347 0.929 . S
C345 C344 1.363 . S
C345 C351 1.428 . S
H346 C342 0.930 . S
H347 C344 0.929 . S
S348 N349 1.613 . S
S348 N350 1.610 . S
N349 S348 1.613 . S
N349 C352 1.350 . S
N350 S348 1.610 . S
N350 C351 1.351 . S
C351 C345 1.428 . S
C351 N350 1.351 . S
C351 C352 1.434 . S
C352 C343 1.429 . S
C352 N349 1.350 . S
C352 C351 1.434 . S
C353 C354 1.369 . S
C353 C355 1.419 . S
C353 H357 0.930 . S
C354 C353 1.369 . S
C354 C363 1.429 . S
C355 C353 1.419 . S
C355 C356 1.363 . S
C355 H358 0.929 . S
C356 C355 1.363 . S
C356 C362 1.428 . S
H357 C353 0.930 . S
H358 C355 0.929 . S
S359 N360 1.613 . S
S359 N361 1.610 . S
N360 S359 1.613 . S
N360 C363 1.350 . S
N361 S359 1.610 . S
N361 C362 1.351 . S
C362 C356 1.428 . S
C362 N361 1.351 . S
C362 C363 1.434 . S
C363 C354 1.429 . S
C363 N360 1.350 . S
C363 C362 1.434 . S
C364 C365 1.369 . S
C364 C366 1.419 . S
C364 H368 0.930 . S
C365 C364 1.369 . S
C365 C374 1.426 1_455 S
C366 C364 1.419 . S
C366 C367 1.363 . S
C366 H369 0.929 . S
C367 C366 1.363 . S
C367 C373 1.428 . S
H368 C364 0.930 . S
H369 C366 0.929 . S
S370 N371 1.613 . S
S370 N372 1.610 1_655 S
N371 S370 1.613 . S
N371 C374 1.366 . S
N372 S370 1.610 1_455 S
N372 C373 1.351 . S
C373 C367 1.428 . S
C373 N372 1.351 . S
C373 C374 1.420 1_455 S
C374 C365 1.426 1_655 S
C374 N371 1.366 . S
C374 C373 1.420 1_655 S
C375 C376 1.369 . S
C375 C377 1.419 . S
C375 H379 0.930 . S
C376 C375 1.369 . S
C376 C385 1.429 . S
C377 C375 1.419 . S
C377 C378 1.363 . S
C377 H380 0.929 . S
C378 C377 1.363 . S
C378 C384 1.428 . S
H379 C375 0.930 . S
H380 C377 0.929 . S
S381 N382 1.613 . S
S381 N383 1.610 1_565 S
N382 S381 1.613 . S
N382 C385 1.350 1_565 S
N383 S381 1.610 1_545 S
N383 C384 1.351 . S
C384 C378 1.428 . S
C384 N383 1.351 . S
C384 C385 1.434 . S
C385 C376 1.429 . S
C385 N382 1.350 1_545 S
C385 C384 1.434 . S
C386 C387 1.369 . S
C386 C388 1.419 . S
C386 H390 0.930 . S
C387 C386 1.369 . S
C387 C396 1.429 . S
C388 C386 1.419 . S
C388 C389 1.363 . S
C388 H391 0.929 . S
C389 C388 1.363 . S
C389 C395 1.428 . S
H390 C386 0.930 . S
H391 C388 0.929 . S
S392 N393 1.613 . S
S392 N394 1.610 . S
N393 S392 1.613 . S
N393 C396 1.350 . S
N394 S392 1.610 . S
N394 C395 1.351 . S
C395 C389 1.428 . S
C395 N394 1.351 . S
C395 C396 1.434 . S
C396 C387 1.429 . S
C396 N393 1.350 . S
C396 C395 1.434 . S
C397 C398 1.369 . S
C397 C399 1.419 . S
C397 H401 0.930 . S
C398 C397 1.369 . S
C398 C407 1.429 . S
C399 C397 1.419 . S
C399 C400 1.363 . S
C399 H402 0.929 . S
C400 C399 1.363 . S
C400 C406 1.428 . S
H401 C397 0.930 . S
H402 C399 0.929 . S
S403 N404 1.613 . S
S403 N405 1.610 . S
N404 S403 1.613 . S
N404 C407 1.350 . S
N405 S403 1.610 . S
N405 C406 1.351 . S
C406 C400 1.428 . S
C406 N405 1.351 . S
C406 C407 1.434 . S
C407 C398 1.429 . S
C407 N404 1.350 . S
C407 C406 1.434 . S
C408 C409 1.369 . S
C408 C410 1.419 . S
C408 H412 0.930 1_556 S
C409 C408 1.369 . S
C409 C418 1.426 1_455 S
C410 C408 1.419 . S
C410 C411 1.363 . S
C410 H413 0.929 1_556 S
C411 C410 1.363 . S
C411 C417 1.428 . S
H412 C408 0.930 1_554 S
H413 C410 0.929 1_554 S
S414 N415 1.613 . S
S414 N416 1.610 . S
N415 S414 1.613 . S
N415 C418 1.356 . S
N416 S414 1.610 . S
N416 C417 1.351 1_655 S
C417 C411 1.428 . S
C417 N416 1.351 1_455 S
C417 C418 1.432 1_455 S
C418 C409 1.426 1_655 S
C418 N415 1.356 . S
C418 C417 1.432 1_655 S
C419 C420 1.369 . S
C419 C421 1.419 . S
C419 H423 0.930 . S
C420 C419 1.369 . S
C420 C429 1.429 1_545 S
C421 C419 1.419 . S
C421 C422 1.363 . S
C421 H424 0.929 . S
C422 C421 1.363 . S
C422 C428 1.428 1_545 S
H423 C419 0.930 . S
H424 C421 0.929 . S
S425 N426 1.613 . S
S425 N427 1.610 . S
N426 S425 1.613 . S
N426 C429 1.350 . S
N427 S425 1.610 . S
N427 C428 1.351 . S
C428 C422 1.428 1_565 S
C428 N427 1.351 . S
C428 C429 1.434 . S
C429 C420 1.429 1_565 S
C429 N426 1.350 . S
C429 C428 1.434 . S
C430 C431 1.369 . S
C430 C432 1.419 . S
C430 H434 0.930 . S
C431 C430 1.369 . S
C431 C440 1.429 . S
C432 C430 1.419 . S
C432 C433 1.363 . S
C432 H435 0.929 . S
C433 C432 1.363 . S
C433 C439 1.428 . S
H434 C430 0.930 . S
H435 C432 0.929 . S
S436 N437 1.613 1_554 S
S436 N438 1.610 1_554 S
N437 S436 1.613 1_556 S
N437 C440 1.350 . S
N438 S436 1.610 1_556 S
N438 C439 1.351 . S
C439 C433 1.428 . S
C439 N438 1.351 . S
C439 C440 1.434 . S
C440 C431 1.429 . S
C440 N437 1.350 . S
C440 C439 1.434 . S
C441 C442 1.369 . S
C441 C443 1.419 . S
C441 H445 0.930 . S
C442 C441 1.369 . S
C442 C451 1.429 . S
C443 C441 1.419 . S
C443 C444 1.363 . S
C443 H446 0.929 . S
C444 C443 1.363 . S
C444 C450 1.428 . S
H445 C441 0.930 . S
H446 C443 0.929 . S
S447 N448 1.613 . S
S447 N449 1.610 . S
N448 S447 1.613 . S
N448 C451 1.350 1_554 S
N449 S447 1.610 . S
N449 C450 1.351 1_554 S
C450 C444 1.428 . S
C450 N449 1.351 1_556 S
C450 C451 1.434 . S
C451 C442 1.429 . S
C451 N448 1.350 1_556 S
C451 C450 1.434 . S
C452 C453 1.369 1_455 S
C452 C454 1.419 . S
C452 H456 0.930 . S
C453 C452 1.369 1_655 S
C453 C462 1.429 . S
C454 C452 1.419 . S
C454 C455 1.363 1_455 S
C454 H457 0.929 . S
C455 C454 1.363 1_655 S
C455 C461 1.428 . S
H456 C452 0.930 . S
H457 C454 0.929 . S
S458 N459 1.613 . S
S458 N460 1.610 . S
N459 S458 1.613 . S
N459 C462 1.350 . S
N460 S458 1.610 . S
N460 C461 1.351 . S
C461 C455 1.428 . S
C461 N460 1.351 . S
C461 C462 1.434 . S
C462 C453 1.429 . S
C462 N459 1.350 . S
C462 C461 1.434 . S
C463 C464 1.369 1_545 S
C463 C465 1.419 . S
C463 H467 0.930 . S
C464 C463 1.369 1_565 S
C464 C473 1.429 . S
C465 C463 1.419 . S
C465 C466 1.363 1_545 S
C465 H468 0.929 . S
C466 C465 1.363 1_565 S
C466 C472 1.428 . S
H467 C463 0.930 . S
H468 C465 0.929 . S
S469 N470 1.613 . S
S469 N471 1.610 . S
N470 S469 1.613 . S
N470 C473 1.350 . S
N471 S469 1.610 . S
N471 C472 1.351 . S
C472 C466 1.428 . S
C472 N471 1.351 . S
C472 C473 1.434 . S
C473 C464 1.429 . S
C473 N470 1.350 . S
C473 C472 1.434 . S
C474 C475 1.369 . S
C474 C476 1.419 . S
C474 H478 0.930 . S
C475 C474 1.369 . S
C475 C484 1.429 . S
C476 C474 1.419 . S
C476 C477 1.363 . S
C476 H479 0.929 . S
C477 C476 1.363 . S
C477 C483 1.428 . S
H478 C474 0.930 . S
H479 C476 0.929 . S
S480 N481 1.613 . S
S480 N482 1.610 . S
N481 S480 1.613 . S
N481 C484 1.350 . S
N482 S480 1.610 . S
N482 C483 1.351 . S
C483 C477 1.428 . S
C483 N482 1.351 . S
C483 C484 1.434 . S
C484 C475 1.429 . S
C484 N481 1.350 . S
C484 C483 1.434 . S
C485 C486 1.369 . S
C485 C487 1.419 . S
C485 H489 0.930 . S
C486 C485 1.369 . S
C486 C495 1.429 . S
C487 C485 1.419 . S
C487 C488 1.363 . S
C487 H490 0.929 . S
C488 C487 1.363 . S
C488 C494 1.428 . S
H489 C485 0.930 . S
H490 C487 0.929 . S
S491 N492 1.613 . S
S491 N493 1.610 . S
N492 S491 1.613 . S
N492 C495 1.350 . S
N493 S491 1.610 . S
N493 C494 1.351 . S
C494 C488 1.428 . S
C494 N493 1.351 . S
C494 C495 1.434 . S
C495 C486 1.429 . S
C495 N492 1.350 . S
C495 C494 1.434 . S
C233 C61 1.987 1_545 S
C235 C82 2.249 1_545 S
C246 C122 2.266 . S
C244 C70 2.020 . S
C257 C162 2.272 . S
C255 C43 2.024 . S
C268 C202 2.260 1_455 S
C266 C52 2.002 1_455 S
C279 C91 2.249 1_564 S
C277 C25 1.998 . S
C288 C34 2.024 . S
C290 C131 2.267 1_554 S
C299 C7 2.015 . S
C301 C171 2.271 1_554 S
C310 C16 2.003 . S
C312 C211 2.261 1_654 S
C323 C88 0.884 . S
C321 C50 0.917 . S
C334 C128 0.862 . S
C332 C59 0.914 . S
C345 C168 0.848 . S
C343 C67 0.910 . S
C354 C41 0.905 . S
C356 C208 0.870 . S
C365 C14 0.935 1_455 S
C367 C79 0.872 . S
C378 C119 0.867 . S
C376 C23 0.918 1_545 S
C389 C159 0.860 . S
C387 C31 0.900 . S
C398 C5 0.906 . S
C400 C199 0.878 . S
C409 C49 2.273 1_455 S
C411 C83 2.582 . S
C420 C58 2.234 1_545 S
C422 C123 2.546 . S
C433 C163 2.540 . S
C431 C68 2.218 . S
C444 C203 2.574 . S
C442 C40 2.250 . S
C453 C13 2.264 . S
C455 C74 2.591 . S
C466 C114 2.549 . S
C464 C22 2.233 . S
C477 C154 2.538 . S
C475 C32 2.222 . S
C486 C4 2.251 . S
C488 C194 2.576 . S
