# Generated by pormake.
# Topology hwx, (6,3)-cn, num edge types: 1
# Building blocks:
#     Node 0, Type 0, BuildingBlock: IZENUY_clean_sbu_0, # of connection points: 6
#     Node 1, Type 0, BuildingBlock: IZENUY_clean_sbu_0, # of connection points: 6
#     Node 2, Type 0, BuildingBlock: IZENUY_clean_sbu_0, # of connection points: 6
#     Node 3, Type 0, BuildingBlock: IZENUY_clean_sbu_0, # of connection points: 6
#     Node 4, Type 1, BuildingBlock: ESEHIV_clean_linker_0, # of connection points: 3
#     Node 5, Type 1, BuildingBlock: ESEHIV_clean_linker_0, # of connection points: 3
#     Node 6, Type 1, BuildingBlock: ESEHIV_clean_linker_0, # of connection points: 3
#     Node 7, Type 1, BuildingBlock: ESEHIV_clean_linker_0, # of connection points: 3
#     Node 8, Type 1, BuildingBlock: ESEHIV_clean_linker_0, # of connection points: 3
#     Node 9, Type 1, BuildingBlock: ESEHIV_clean_linker_0, # of connection points: 3
#     Node 10, Type 1, BuildingBlock: ESEHIV_clean_linker_0, # of connection points: 3
#     Node 11, Type 1, BuildingBlock: ESEHIV_clean_linker_0, # of connection points: 3
#     Edge 12, Type (0, 1), BuildingBlock: OJICUG_clean_linker_0, # of connection points: 2
#     Edge 13, Type (0, 1), BuildingBlock: OJICUG_clean_linker_0, # of connection points: 2
#     Edge 14, Type (0, 1), BuildingBlock: OJICUG_clean_linker_0, # of connection points: 2
#     Edge 15, Type (0, 1), BuildingBlock: OJICUG_clean_linker_0, # of connection points: 2
#     Edge 16, Type (0, 1), BuildingBlock: OJICUG_clean_linker_0, # of connection points: 2
#     Edge 17, Type (0, 1), BuildingBlock: OJICUG_clean_linker_0, # of connection points: 2
#     Edge 18, Type (0, 1), BuildingBlock: OJICUG_clean_linker_0, # of connection points: 2
#     Edge 19, Type (0, 1), BuildingBlock: OJICUG_clean_linker_0, # of connection points: 2
#     Edge 20, Type (0, 1), BuildingBlock: OJICUG_clean_linker_0, # of connection points: 2
#     Edge 21, Type (0, 1), BuildingBlock: OJICUG_clean_linker_0, # of connection points: 2
#     Edge 22, Type (0, 1), BuildingBlock: OJICUG_clean_linker_0, # of connection points: 2
#     Edge 23, Type (0, 1), BuildingBlock: OJICUG_clean_linker_0, # of connection points: 2
#     Edge 24, Type (0, 1), BuildingBlock: OJICUG_clean_linker_0, # of connection points: 2
#     Edge 25, Type (0, 1), BuildingBlock: OJICUG_clean_linker_0, # of connection points: 2
#     Edge 26, Type (0, 1), BuildingBlock: OJICUG_clean_linker_0, # of connection points: 2
#     Edge 27, Type (0, 1), BuildingBlock: OJICUG_clean_linker_0, # of connection points: 2
#     Edge 28, Type (0, 1), BuildingBlock: OJICUG_clean_linker_0, # of connection points: 2
#     Edge 29, Type (0, 1), BuildingBlock: OJICUG_clean_linker_0, # of connection points: 2
#     Edge 30, Type (0, 1), BuildingBlock: OJICUG_clean_linker_0, # of connection points: 2
#     Edge 31, Type (0, 1), BuildingBlock: OJICUG_clean_linker_0, # of connection points: 2
#     Edge 32, Type (0, 1), BuildingBlock: OJICUG_clean_linker_0, # of connection points: 2
#     Edge 33, Type (0, 1), BuildingBlock: OJICUG_clean_linker_0, # of connection points: 2
#     Edge 34, Type (0, 1), BuildingBlock: OJICUG_clean_linker_0, # of connection points: 2
#     Edge 35, Type (0, 1), BuildingBlock: OJICUG_clean_linker_0, # of connection points: 2
# Relax obj value: 0.051
# Max RMSD: 0.076
# Mean RMSD: 0.067
data_MOF--net-hwx--node1-IZENUY_clean_sbu_0--node2-ESEHIV_clean_linker_0--edge1-OJICUG_clean_linker_0
_symmetry_space_group_name_H-M    P1
_symmetry_Int_Tables_number       1
_symmetry_cell_setting            triclinic
loop_
_symmetry_equiv_pos_as_xyz
'x, y, z'
_cell_length_a     32.319571
_cell_length_b     32.149028
_cell_length_c     15.55397
_cell_angle_alpha  89.980386
_cell_angle_beta   90.316349
_cell_angle_gamma 89.96415
loop_
_atom_site_label
_atom_site_type_symbol
_atom_site_fract_x
_atom_site_fract_y
_atom_site_fract_z
_atom_type_partial_charge
Fe0 Fe 0.24382 0.23067 0.06781 0.0
Fe1 Fe 0.2424 0.23924 0.87239 0.0
O2 O 0.22662 0.2128 0.96631 0.0
Fe3 Fe 0.1937 0.16867 0.96004 0.0
O4 O 0.15419 0.19403 0.0252 0.0
O5 O 0.1981 0.21355 0.12512 0.0
O6 O 0.21811 0.28013 0.05285 0.0
C7 C 0.22475 0.30407 0.99028 0.0
C8 C 0.25165 0.14746 0.09185 0.0
O9 O 0.24242 0.29092 0.92291 0.0
C10 C 0.24635 0.15413 0.82562 0.0
O11 O 0.29293 0.25172 0.03014 0.0
O12 O 0.29681 0.23087 0.89658 0.0
O13 O 0.21687 0.14265 0.05457 0.0
O14 O 0.27018 0.18198 0.08843 0.0
C15 C 0.162 0.22213 0.82912 0.0
O16 O 0.24487 0.19234 0.80629 0.0
O17 O 0.23061 0.14059 0.89434 0.0
C18 C 0.31408 0.24346 0.96443 0.0
O19 O 0.18944 0.24947 0.84045 0.0
O20 O 0.16514 0.18669 0.8643 0.0
C21 C 0.16147 0.20929 0.09847 0.0
Fe22 Fe 0.23955 0.73961 0.62294 0.0
Fe23 Fe 0.2878 0.66861 0.53693 0.0
O24 O 0.25494 0.71261 0.52945 0.0
Fe25 Fe 0.23726 0.72974 0.42768 0.0
O26 O 0.26276 0.77949 0.44095 0.0
O27 O 0.23839 0.79079 0.5706 0.0
O28 O 0.2926 0.75067 0.65256 0.0
C29 C 0.32015 0.72348 0.66435 0.0
C30 C 0.16724 0.74206 0.533 0.0
O31 O 0.31668 0.68756 0.63142 0.0
C32 C 0.22964 0.64635 0.40622 0.0
O33 O 0.23811 0.69333 0.69122 0.0
O34 O 0.2511 0.64112 0.6039 0.0
O35 O 0.18784 0.75057 0.46636 0.0
O36 O 0.18528 0.73027 0.60061 0.0
C37 C 0.31972 0.70574 0.39497 0.0
O38 O 0.26438 0.6417 0.44373 0.0
O39 O 0.21108 0.68088 0.4088 0.0
C40 C 0.23602 0.65507 0.6728 0.0
O41 O 0.32698 0.69322 0.47035 0.0
O42 O 0.2831 0.7122 0.36945 0.0
C43 C 0.25589 0.80374 0.50292 0.0
Fe44 Fe 0.73764 0.79022 0.92757 0.0
Fe45 Fe 0.74384 0.78089 0.1233 0.0
O46 O 0.75494 0.80904 0.02857 0.0
Fe47 Fe 0.78337 0.85607 0.0348 0.0
O48 O 0.75734 0.88054 0.94228 0.0
O49 O 0.70763 0.83699 0.90809 0.0
O50 O 0.69029 0.76637 0.96917 0.0
C51 C 0.67031 0.77314 0.0375 0.0
C52 C 0.81795 0.82047 0.8932 0.0
O53 O 0.68854 0.78541 0.10475 0.0
C54 C 0.82261 0.80477 0.15985 0.0
O55 O 0.76634 0.74207 0.93988 0.0
O56 O 0.74616 0.72955 0.07222 0.0
O57 O 0.82415 0.83495 0.96747 0.0
O58 O 0.78198 0.8107 0.86786 0.0
C59 C 0.73433 0.86527 0.17505 0.0
O60 O 0.79833 0.77463 0.1481 0.0
O61 O 0.81448 0.84023 0.12846 0.0
C62 C 0.76293 0.71774 0.00305 0.0
O63 O 0.73999 0.82712 0.19181 0.0
O64 O 0.7446 0.88019 0.10318 0.0
C65 C 0.72298 0.87303 0.90576 0.0
Fe66 Fe 0.69734 0.35583 0.48311 0.0
Fe67 Fe 0.74712 0.28984 0.58222 0.0
O68 O 0.72692 0.30927 0.48403 0.0
Fe69 Fe 0.73617 0.28209 0.38722 0.0
O70 O 0.738 0.32895 0.32049 0.0
O71 O 0.73373 0.38137 0.41108 0.0
O72 O 0.72543 0.37982 0.57342 0.0
C73 C 0.76079 0.37266 0.60598 0.0
C74 C 0.65618 0.30527 0.35918 0.0
O75 O 0.77688 0.33697 0.60021 0.0
C76 C 0.72068 0.21771 0.50708 0.0
O77 O 0.6588 0.33324 0.55474 0.0
O78 O 0.7045 0.30905 0.64706 0.0
O79 O 0.68128 0.27549 0.36728 0.0
O80 O 0.66407 0.3404 0.39232 0.0
C81 C 0.8116 0.27386 0.46532 0.0
O82 O 0.71875 0.24148 0.57141 0.0
O83 O 0.73542 0.23024 0.43644 0.0
C84 C 0.66748 0.31717 0.62679 0.0
O85 O 0.7933 0.26675 0.53525 0.0
O86 O 0.79191 0.28683 0.40037 0.0
C87 C 0.7431 0.36707 0.33805 0.0
H88 H 0.19637 0.60106 0.0439 0.0
H89 H 0.19131 0.49045 0.88955 0.0
H90 H 0.19916 0.48123 0.16527 0.0
C91 C 0.19415 0.56752 0.03865 0.0
C92 C 0.19493 0.54339 0.11396 0.0
C93 C 0.19399 0.54871 0.95719 0.0
C94 C 0.19291 0.50523 0.95207 0.0
C95 C 0.1958 0.48052 0.02633 0.0
C96 C 0.19631 0.49984 0.10744 0.0
H97 H 0.87556 0.8099 0.52737 0.0
H98 H 0.98552 0.77154 0.3985 0.0
H99 H 0.98768 0.79075 0.67331 0.0
C100 C 0.90816 0.80204 0.53078 0.0
C101 C 0.9289 0.80128 0.6104 0.0
C102 C 0.92867 0.79172 0.45493 0.0
C103 C 0.97021 0.77999 0.45783 0.0
C104 C 0.99209 0.77984 0.53631 0.0
C105 C 0.97105 0.79017 0.61267 0.0
H106 H 0.79335 0.41935 0.96583 0.0
H107 H 0.77509 0.531 0.11171 0.0
H108 H 0.80354 0.53767 0.84127 0.0
C109 C 0.79317 0.45299 0.96967 0.0
C110 C 0.79848 0.47627 0.8943 0.0
C111 C 0.78475 0.47239 0.04861 0.0
C112 C 0.7837 0.51606 0.05207 0.0
C113 C 0.79077 0.54032 0.97789 0.0
C114 C 0.7984 0.51987 0.89934 0.0
H115 H 0.1068 0.22879 0.46043 0.0
H116 H 0.99297 0.2435 0.59726 0.0
H117 H 0.99228 0.2354 0.31989 0.0
C118 C 0.07338 0.23197 0.45982 0.0
C119 C 0.05189 0.23192 0.38123 0.0
C120 C 0.05225 0.2355 0.53776 0.0
C121 C 0.00906 0.23942 0.5369 0.0
C122 C 0.98703 0.24007 0.45831 0.0
C123 C 0.00875 0.23544 0.38078 0.0
H124 H 0.68622 0.91962 0.54833 0.0
H125 H 0.68087 0.03861 0.67094 0.0
H126 H 0.70599 0.03009 0.39925 0.0
C127 C 0.68736 0.95322 0.54371 0.0
C128 C 0.69549 0.97199 0.46402 0.0
C129 C 0.6837 0.97696 0.61881 0.0
C130 C 0.68484 0.02048 0.61292 0.0
C131 C 0.69206 0.04037 0.5336 0.0
C132 C 0.69767 0.01562 0.45956 0.0
H133 H 0.60557 0.30865 0.99645 0.0
H134 H 0.4904 0.27939 0.11645 0.0
H135 H 0.49746 0.28807 0.83962 0.0
C136 C 0.57283 0.30167 0.99062 0.0
C137 C 0.55436 0.29844 0.90901 0.0
C138 C 0.54974 0.29506 0.06499 0.0
C139 C 0.5077 0.28553 0.05832 0.0
C140 C 0.48823 0.28342 0.97715 0.0
C141 C 0.51186 0.29007 0.90257 0.0
H142 H 0.2856 0.10093 0.45538 0.0
H143 H 0.28218 0.98192 0.33068 0.0
H144 H 0.28939 0.98926 0.60667 0.0
C145 C 0.28757 0.06735 0.45963 0.0
C146 C 0.28753 0.04799 0.5406 0.0
C147 C 0.28663 0.04374 0.38362 0.0
C148 C 0.28502 0.00015 0.38899 0.0
C149 C 0.28522 0.98029 0.46955 0.0
C150 C 0.28811 0.00447 0.54454 0.0
H151 H 0.37491 0.7251 0.02835 0.0
H152 H 0.48871 0.74881 0.89799 0.0
H153 H 0.48888 0.7283 0.17243 0.0
C154 C 0.40824 0.72876 0.03095 0.0
C155 C 0.4293 0.72534 0.10986 0.0
C156 C 0.42962 0.73649 0.95468 0.0
C157 C 0.47255 0.74196 0.9572 0.0
C158 C 0.49427 0.74 0.03594 0.0
C159 C 0.47235 0.73136 0.11197 0.0
C160 C 0.0925 0.19464 0.1663 0.0
C161 C 0.12831 0.21908 0.15949 0.0
H162 H 0.03972 0.17945 0.24386 0.0
C163 C 0.13552 0.25087 0.21962 0.0
H164 H 0.08641 0.16994 0.12063 0.0
C165 C 0.10932 0.25617 0.28913 0.0
C166 C 0.0753 0.2298 0.30014 0.0
H167 H 0.16258 0.27062 0.21489 0.0
H168 H 0.11653 0.27999 0.33617 0.0
C169 C 0.06602 0.2 0.23662 0.0
C170 C 0.2358 0.58513 0.74258 0.0
C171 C 0.22089 0.62605 0.73886 0.0
H172 H 0.24009 0.52914 0.81537 0.0
C173 C 0.19378 0.64013 0.80291 0.0
H174 H 0.25692 0.57355 0.69432 0.0
C175 C 0.18318 0.61431 0.87153 0.0
C176 C 0.20004 0.57412 0.87827 0.0
H177 H 0.1814 0.67144 0.80088 0.0
H178 H 0.16257 0.62625 0.92033 0.0
C179 C 0.22583 0.55958 0.81194 0.0
C180 C 0.86923 0.83717 0.26905 0.0
C181 C 0.85495 0.8012 0.22687 0.0
H182 H 0.90357 0.86194 0.37557 0.0
C183 C 0.86847 0.762 0.25587 0.0
H184 H 0.85922 0.86782 0.24874 0.0
C185 C 0.89435 0.75884 0.32796 0.0
C186 C 0.90646 0.79477 0.37244 0.0
H187 H 0.858 0.73378 0.22453 0.0
H188 H 0.90339 0.72837 0.35122 0.0
C189 C 0.89442 0.83392 0.34174 0.0
C190 C 0.76033 0.44288 0.67541 0.0
C191 C 0.77824 0.40317 0.66784 0.0
H192 H 0.75306 0.49731 0.75278 0.0
C193 C 0.80885 0.39121 0.72757 0.0
H194 H 0.737 0.4533 0.62999 0.0
C195 C 0.81821 0.41665 0.79802 0.0
C196 C 0.79736 0.45463 0.80981 0.0
H197 H 0.82359 0.36102 0.72329 0.0
H198 H 0.84004 0.40553 0.84589 0.0
C199 C 0.76981 0.46834 0.74556 0.0
C200 C 0.60472 0.33804 0.25923 0.0
C201 C 0.62272 0.30186 0.29422 0.0
H202 H 0.5674 0.36397 0.15796 0.0
C203 C 0.61219 0.26298 0.25883 0.0
H204 H 0.61227 0.36849 0.2846 0.0
C205 C 0.58621 0.26058 0.18685 0.0
C206 C 0.57054 0.29696 0.14919 0.0
H207 H 0.62544 0.23456 0.2844 0.0
H208 H 0.58001 0.23053 0.15803 0.0
C209 C 0.57911 0.33559 0.1868 0.0
C210 C 0.24603 0.08413 0.75579 0.0
C211 C 0.26164 0.12476 0.76029 0.0
H212 H 0.24096 0.0285 0.68191 0.0
C213 C 0.28928 0.13847 0.69691 0.0
H214 H 0.22448 0.07283 0.8035 0.0
C215 C 0.29958 0.11276 0.62796 0.0
C216 C 0.28191 0.07299 0.62021 0.0
H217 H 0.30222 0.16954 0.69951 0.0
H218 H 0.32051 0.12449 0.57956 0.0
C219 C 0.25575 0.05865 0.68609 0.0
C220 C 0.34604 0.68257 0.25445 0.0
C221 C 0.35244 0.70537 0.33008 0.0
H222 H 0.36642 0.66959 0.12711 0.0
C223 C 0.38712 0.73135 0.33731 0.0
H224 H 0.31955 0.6621 0.24804 0.0
C225 C 0.41354 0.73662 0.26693 0.0
C226 C 0.40567 0.71561 0.18905 0.0
H227 H 0.39228 0.74941 0.39517 0.0
H228 H 0.43868 0.75875 0.27198 0.0
C229 C 0.37264 0.68721 0.18509 0.0
C230 C 0.7248 0.94296 0.83487 0.0
C231 C 0.7058 0.9039 0.84431 0.0
H232 H 0.7323 0.99695 0.75622 0.0
C233 C 0.67372 0.89284 0.78723 0.0
H234 H 0.74928 0.95271 0.87822 0.0
C235 C 0.6638 0.91845 0.71741 0.0
C236 C 0.68559 0.95566 0.70352 0.0
H237 H 0.65803 0.86324 0.79319 0.0
H238 H 0.64073 0.90798 0.67149 0.0
C239 C 0.71479 0.96858 0.76523 0.0
C240 C 0.88394 0.79225 0.83486 0.0
C241 C 0.85127 0.82087 0.82969 0.0
H242 H 0.9342 0.76312 0.7685 0.0
C243 C 0.84741 0.84639 0.75716 0.0
H244 H 0.88705 0.77204 0.8903 0.0
C245 C 0.87466 0.84204 0.6886 0.0
C246 C 0.90558 0.81117 0.69011 0.0
H247 H 0.82239 0.86875 0.75235 0.0
H248 H 0.8704 0.8618 0.63284 0.0
C249 C 0.91088 0.78728 0.7653 0.0
C250 C 0.74026 0.38499 0.18303 0.0
C251 C 0.75318 0.39551 0.26653 0.0
H252 H 0.73826 0.40152 0.05066 0.0
C253 C 0.77542 0.43254 0.27934 0.0
H254 H 0.72219 0.35716 0.1713 0.0
C255 C 0.78579 0.45778 0.20893 0.0
C256 C 0.77347 0.44668 0.12489 0.0
H257 H 0.78561 0.44138 0.34322 0.0
H258 H 0.80404 0.4855 0.22012 0.0
C259 C 0.7498 0.41039 0.11351 0.0
C260 C 0.13466 0.26142 0.70196 0.0
C261 C 0.12993 0.22908 0.76206 0.0
H262 H 0.11369 0.28851 0.58358 0.0
C263 C 0.0965 0.20139 0.75226 0.0
H264 H 0.16 0.28333 0.70737 0.0
C265 C 0.06958 0.20488 0.68169 0.0
C266 C 0.07608 0.23566 0.61922 0.0
H267 H 0.09191 0.17626 0.7976 0.0
H268 H 0.045 0.18229 0.67366 0.0
C269 C 0.10825 0.26441 0.63092 0.0
C270 C 0.23948 0.57919 0.3266 0.0
C271 C 0.21574 0.61507 0.34234 0.0
H272 H 0.25131 0.5281 0.24165 0.0
C273 C 0.18142 0.62341 0.28901 0.0
H274 H 0.26599 0.57171 0.36661 0.0
C275 C 0.17318 0.5985 0.21748 0.0
C276 C 0.19876 0.5645 0.19824 0.0
H277 H 0.16217 0.6505 0.29961 0.0
H278 H 0.14782 0.60688 0.175 0.0
C279 C 0.231 0.55408 0.25522 0.0
C280 C 0.38638 0.70385 0.73917 0.0
C281 C 0.35247 0.73102 0.73039 0.0
H282 H 0.43819 0.68502 0.8171 0.0
C283 C 0.34739 0.7631 0.79096 0.0
H284 H 0.39122 0.67896 0.69339 0.0
C285 C 0.37386 0.76609 0.8619 0.0
C286 C 0.40641 0.7377 0.8727 0.0
H287 H 0.32163 0.78456 0.78628 0.0
H288 H 0.36803 0.78969 0.91009 0.0
C289 C 0.41335 0.70738 0.80953 0.0
C290 C 0.73652 0.88257 0.33037 0.0
C291 C 0.7239 0.89338 0.24685 0.0
H292 H 0.73951 0.89942 0.46237 0.0
C293 C 0.70263 0.931 0.23386 0.0
H294 H 0.75394 0.8543 0.34224 0.0
C295 C 0.69312 0.95671 0.30404 0.0
C296 C 0.70543 0.94552 0.38803 0.0
H297 H 0.69276 0.94012 0.16991 0.0
H298 H 0.67572 0.98499 0.29264 0.0
C299 C 0.72793 0.90845 0.39963 0.0
C300 C 0.64498 0.28342 0.76171 0.0
C301 C 0.63564 0.31032 0.69302 0.0
H302 H 0.62637 0.25831 0.88227 0.0
C303 C 0.59736 0.33111 0.69199 0.0
H304 H 0.67379 0.26618 0.76368 0.0
C305 C 0.56993 0.32654 0.76107 0.0
C306 C 0.5806 0.30118 0.83157 0.0
H307 H 0.5893 0.35185 0.63963 0.0
H308 H 0.54119 0.34389 0.76086 0.0
C309 C 0.61786 0.27891 0.82991 0.0
C310 C 0.24251 0.07998 0.17067 0.0
C311 C 0.26565 0.11634 0.15609 0.0
H312 H 0.23112 0.02833 0.25433 0.0
C313 C 0.29946 0.12509 0.21051 0.0
H314 H 0.21643 0.07215 0.12973 0.0
C315 C 0.30777 0.09999 0.28181 0.0
C316 C 0.28274 0.06542 0.29982 0.0
H317 H 0.31824 0.15256 0.20083 0.0
H318 H 0.33276 0.10859 0.32498 0.0
C319 C 0.25102 0.05472 0.24183 0.0
C320 C 0.19088 0.36396 0.0656 0.0
C321 C 0.21643 0.34893 0.99961 0.0
H322 H 0.16353 0.41743 0.12502 0.0
C323 C 0.23481 0.3773 0.94295 0.0
H324 H 0.17618 0.34273 0.11012 0.0
C325 C 0.22811 0.41979 0.95231 0.0
C326 C 0.20228 0.43503 0.01763 0.0
H327 H 0.25504 0.3668 0.89212 0.0
H328 H 0.24385 0.44076 0.90888 0.0
C329 C 0.18375 0.40667 0.07439 0.0
C330 C 0.10445 0.77517 0.46877 0.0
C331 C 0.12242 0.7512 0.53457 0.0
H332 H 0.04993 0.80416 0.41944 0.0
C333 C 0.09734 0.73698 0.60208 0.0
H334 H 0.12294 0.78708 0.41638 0.0
C335 C 0.05503 0.74628 0.60316 0.0
C336 C 0.03708 0.77022 0.53706 0.0
H337 H 0.11032 0.71836 0.65368 0.0
H338 H 0.03631 0.73422 0.65503 0.0
C339 C 0.06243 0.78482 0.47035 0.0
C340 C 0.79027 0.65132 0.06328 0.0
C341 C 0.77366 0.67345 0.99343 0.0
H342 H 0.81085 0.59271 0.1119 0.0
C343 C 0.76498 0.65231 0.91662 0.0
H344 H 0.79758 0.66712 0.12299 0.0
C345 C 0.771 0.60932 0.91107 0.0
C346 C 0.78698 0.58666 0.98153 0.0
H347 H 0.75173 0.66869 0.86214 0.0
H348 H 0.76162 0.59384 0.85237 0.0
C349 C 0.79747 0.60857 0.05699 0.0
C350 C 0.88083 0.28089 0.39506 0.0
C351 C 0.85599 0.26371 0.45962 0.0
H352 H 0.94197 0.2878 0.34529 0.0
C353 C 0.8742 0.23749 0.52158 0.0
H354 H 0.86765 0.30139 0.34686 0.0
C355 C 0.91648 0.22914 0.52 0.0
C356 C 0.94167 0.24717 0.45698 0.0
H357 H 0.85577 0.22335 0.57168 0.0
H358 H 0.92941 0.20856 0.56831 0.0
C359 C 0.92334 0.2729 0.39406 0.0
C360 C 0.69306 0.15128 0.44736 0.0
C361 C 0.71048 0.17328 0.5165 0.0
H362 H 0.67157 0.09282 0.39979 0.0
C363 C 0.72007 0.15201 0.59272 0.0
H364 H 0.68506 0.16718 0.38811 0.0
C365 C 0.71389 0.10908 0.59853 0.0
C366 C 0.6968 0.08659 0.52903 0.0
H367 H 0.73398 0.16826 0.64661 0.0
H368 H 0.72385 0.09353 0.65677 0.0
C369 C 0.68572 0.10856 0.45397 0.0
C370 C 0.37416 0.28059 0.02895 0.0
C371 C 0.35851 0.25387 0.96517 0.0
H372 H 0.42679 0.31191 0.08079 0.0
C373 C 0.38558 0.23768 0.9033 0.0
H374 H 0.354 0.29412 0.07689 0.0
C375 C 0.42775 0.24741 0.9065 0.0
C376 C 0.44341 0.27386 0.97105 0.0
H377 H 0.37433 0.21695 0.85353 0.0
H378 H 0.44816 0.23354 0.85953 0.0
C379 C 0.41599 0.2907 0.03147 0.0
C380 C 0.28967 0.86384 0.42778 0.0
C381 C 0.26388 0.84866 0.4932 0.0
H382 H 0.31743 0.91747 0.36976 0.0
C383 C 0.24526 0.87692 0.5498 0.0
H384 H 0.30453 0.8427 0.38335 0.0
C385 C 0.25212 0.91941 0.54129 0.0
C386 C 0.27835 0.93479 0.47686 0.0
H387 H 0.22481 0.86632 0.60023 0.0
H388 H 0.2363 0.94027 0.58481 0.0
C389 C 0.29695 0.90659 0.41982 0.0
C390 C 0.6005 0.778 0.10657 0.0
C391 C 0.62558 0.76359 0.03937 0.0
H392 H 0.53926 0.78261 0.15739 0.0
C393 C 0.6074 0.74039 0.97256 0.0
H394 H 0.61356 0.79612 0.15873 0.0
C395 C 0.56505 0.7321 0.97241 0.0
C396 C 0.53969 0.74721 0.03854 0.0
H397 H 0.62591 0.72845 0.9202 0.0
H398 H 0.55222 0.7137 0.92042 0.0
C399 C 0.55796 0.77004 0.10597 0.0
loop_
_geom_bond_atom_site_label_1
_geom_bond_atom_site_label_2
_geom_bond_distance
_geom_bond_site_symmetry_2
_ccdc_geom_bond_type
Fe0 O2 1.918 . S
Fe0 O5 1.997 . S
Fe0 O6 2.002 . S
Fe0 O11 1.976 . S
Fe0 O14 1.996 . S
Fe1 O2 1.918 1_556 S
Fe1 O9 1.997 . S
Fe1 O12 1.996 . S
Fe1 O16 1.976 . S
Fe1 O19 2.002 . S
O2 Fe0 1.918 . S
O2 Fe1 1.918 1_554 S
O2 Fe3 1.918 . S
Fe3 O2 1.918 . S
Fe3 O4 2.002 . S
Fe3 O13 1.976 . S
Fe3 O17 1.996 1_554 S
Fe3 O20 1.997 1_554 S
O4 Fe3 2.002 . S
O4 C21 1.295 . S
O5 Fe0 1.997 . S
O5 C21 1.235 . S
O6 Fe0 2.002 . S
O6 C7 1.295 . S
C7 O6 1.295 . S
C7 O9 1.235 1_554 S
C8 O13 1.287 . S
C8 O14 1.255 . S
O9 Fe1 1.997 . S
O9 C7 1.235 1_556 S
C10 O16 1.287 . S
C10 O17 1.255 . S
O11 Fe0 1.976 . S
O11 C18 1.283 1_554 S
O12 Fe1 1.996 . S
O12 C18 1.258 . S
O13 Fe3 1.976 . S
O13 C8 1.287 . S
O14 Fe0 1.996 . S
O14 C8 1.255 . S
C15 O19 1.295 . S
C15 O20 1.235 . S
O16 Fe1 1.976 . S
O16 C10 1.287 . S
O17 Fe3 1.996 1_556 S
O17 C10 1.255 . S
C18 O11 1.283 1_556 S
C18 O12 1.258 . S
O19 Fe1 2.002 . S
O19 C15 1.295 . S
O20 Fe3 1.997 1_556 S
O20 C15 1.235 . S
C21 O4 1.295 . S
C21 O5 1.235 . S
Fe22 O24 1.918 . S
Fe22 O27 1.997 . S
Fe22 O28 2.002 . S
Fe22 O33 1.976 . S
Fe22 O36 1.996 . S
Fe23 O24 1.918 . S
Fe23 O31 1.997 . S
Fe23 O34 1.996 . S
Fe23 O38 1.976 . S
Fe23 O41 2.002 . S
O24 Fe22 1.918 . S
O24 Fe23 1.918 . S
O24 Fe25 1.918 . S
Fe25 O24 1.918 . S
Fe25 O26 2.002 . S
Fe25 O35 1.976 . S
Fe25 O39 1.996 . S
Fe25 O42 1.997 . S
O26 Fe25 2.002 . S
O26 C43 1.295 . S
O27 Fe22 1.997 . S
O27 C43 1.235 . S
O28 Fe22 2.002 . S
O28 C29 1.295 . S
C29 O28 1.295 . S
C29 O31 1.235 . S
C30 O35 1.287 . S
C30 O36 1.255 . S
O31 Fe23 1.997 . S
O31 C29 1.235 . S
C32 O38 1.287 . S
C32 O39 1.255 . S
O33 Fe22 1.976 . S
O33 C40 1.287 . S
O34 Fe23 1.996 . S
O34 C40 1.255 . S
O35 Fe25 1.976 . S
O35 C30 1.287 . S
O36 Fe22 1.996 . S
O36 C30 1.255 . S
C37 O41 1.295 . S
C37 O42 1.235 . S
O38 Fe23 1.976 . S
O38 C32 1.287 . S
O39 Fe25 1.996 . S
O39 C32 1.255 . S
C40 O33 1.287 . S
C40 O34 1.255 . S
O41 Fe23 2.002 . S
O41 C37 1.295 . S
O42 Fe25 1.997 . S
O42 C37 1.235 . S
C43 O26 1.295 . S
C43 O27 1.235 . S
Fe44 O46 1.918 1_556 S
Fe44 O49 1.997 . S
Fe44 O50 2.002 . S
Fe44 O55 1.976 . S
Fe44 O58 1.996 . S
Fe45 O46 1.918 . S
Fe45 O53 1.997 . S
Fe45 O56 1.996 . S
Fe45 O60 1.976 . S
Fe45 O63 2.002 . S
O46 Fe44 1.918 1_554 S
O46 Fe45 1.918 . S
O46 Fe47 1.918 . S
Fe47 O46 1.918 . S
Fe47 O48 2.002 1_554 S
Fe47 O57 1.976 1_554 S
Fe47 O61 1.996 . S
Fe47 O64 1.997 . S
O48 Fe47 2.002 1_556 S
O48 C65 1.295 . S
O49 Fe44 1.997 . S
O49 C65 1.235 . S
O50 Fe44 2.002 . S
O50 C51 1.299 . S
C51 O50 1.299 . S
C51 O53 1.232 1_556 S
C52 O57 1.287 . S
C52 O58 1.255 . S
O53 Fe45 1.997 . S
O53 C51 1.232 1_554 S
C54 O60 1.287 . S
C54 O61 1.255 . S
O55 Fe44 1.976 . S
O55 C62 1.287 1_556 S
O56 Fe45 1.996 . S
O56 C62 1.255 . S
O57 Fe47 1.976 1_556 S
O57 C52 1.287 . S
O58 Fe44 1.996 . S
O58 C52 1.255 . S
C59 O63 1.295 . S
C59 O64 1.235 . S
O60 Fe45 1.976 . S
O60 C54 1.287 . S
O61 Fe47 1.996 . S
O61 C54 1.255 . S
C62 O55 1.287 1_554 S
C62 O56 1.255 . S
O63 Fe45 2.002 . S
O63 C59 1.295 . S
O64 Fe47 1.997 . S
O64 C59 1.235 . S
C65 O48 1.295 . S
C65 O49 1.235 . S
Fe66 O68 1.918 . S
Fe66 O71 1.997 . S
Fe66 O72 2.002 . S
Fe66 O77 1.976 . S
Fe66 O80 1.996 . S
Fe67 O68 1.918 . S
Fe67 O75 1.997 . S
Fe67 O78 1.996 . S
Fe67 O82 1.976 . S
Fe67 O85 2.002 . S
O68 Fe66 1.918 . S
O68 Fe67 1.918 . S
O68 Fe69 1.918 . S
Fe69 O68 1.918 . S
Fe69 O70 2.002 . S
Fe69 O79 1.976 . S
Fe69 O83 1.996 . S
Fe69 O86 1.997 . S
O70 Fe69 2.002 . S
O70 C87 1.295 . S
O71 Fe66 1.997 . S
O71 C87 1.235 . S
O72 Fe66 2.002 . S
O72 C73 1.295 . S
C73 O72 1.295 . S
C73 O75 1.235 . S
C74 O79 1.287 . S
C74 O80 1.255 . S
O75 Fe67 1.997 . S
O75 C73 1.235 . S
C76 O82 1.287 . S
C76 O83 1.255 . S
O77 Fe66 1.976 . S
O77 C84 1.287 . S
O78 Fe67 1.996 . S
O78 C84 1.255 . S
O79 Fe69 1.976 . S
O79 C74 1.287 . S
O80 Fe66 1.996 . S
O80 C74 1.255 . S
C81 O85 1.295 . S
C81 O86 1.235 . S
O82 Fe67 1.976 . S
O82 C76 1.287 . S
O83 Fe69 1.996 . S
O83 C76 1.255 . S
C84 O77 1.287 . S
C84 O78 1.255 . S
O85 Fe67 2.002 . S
O85 C81 1.295 . S
O86 Fe69 1.997 . S
O86 C81 1.235 . S
C87 O70 1.295 . S
C87 O71 1.235 . S
H88 C91 0.931 1_556 S
H89 C94 0.928 . S
H90 C96 0.930 . S
C91 H88 0.931 1_554 S
C91 C92 1.413 . S
C91 C93 1.360 1_554 S
C92 C91 1.413 . S
C92 C96 1.429 . S
C93 C91 1.360 1_556 S
C93 C94 1.372 . S
C94 H89 0.928 . S
C94 C93 1.372 . S
C94 C95 1.404 1_556 S
C95 C94 1.404 1_554 S
C95 C96 1.391 . S
C96 H90 0.930 . S
C96 C92 1.429 . S
C96 C95 1.391 . S
H97 C100 0.931 . S
H98 C103 0.928 1_455 S
H99 C105 0.930 1_455 S
C100 H97 0.931 . S
C100 C101 1.413 . S
C100 C102 1.360 . S
C101 C100 1.413 . S
C101 C105 1.429 . S
C102 C100 1.360 . S
C102 C103 1.372 . S
C103 H98 0.928 1_655 S
C103 C102 1.372 . S
C103 C104 1.404 1_655 S
C104 C103 1.404 1_455 S
C104 C105 1.391 1_455 S
C105 H99 0.930 1_655 S
C105 C101 1.429 . S
C105 C104 1.391 1_655 S
H106 C109 0.931 . S
H107 C112 0.928 . S
H108 C114 0.930 . S
C109 H106 0.931 . S
C109 C110 1.413 1_554 S
C109 C111 1.360 . S
C110 C109 1.413 1_556 S
C110 C114 1.429 . S
C111 C109 1.360 . S
C111 C112 1.372 . S
C112 H107 0.928 . S
C112 C111 1.372 . S
C112 C113 1.404 . S
C113 C112 1.404 . S
C113 C114 1.391 1_554 S
C114 H108 0.930 . S
C114 C110 1.429 . S
C114 C113 1.391 1_556 S
H115 C118 0.931 . S
H116 C121 0.928 . S
H117 C123 0.930 . S
C118 H115 0.931 . S
C118 C119 1.413 . S
C118 C120 1.360 . S
C119 C118 1.413 . S
C119 C123 1.429 1_455 S
C120 C118 1.360 . S
C120 C121 1.372 1_455 S
C121 H116 0.928 . S
C121 C120 1.372 1_655 S
C121 C122 1.404 . S
C122 C121 1.404 . S
C122 C123 1.391 . S
C123 H117 0.930 . S
C123 C119 1.429 1_655 S
C123 C122 1.391 . S
H124 C127 0.931 . S
H125 C130 0.928 . S
H126 C132 0.930 . S
C127 H124 0.931 . S
C127 C128 1.413 . S
C127 C129 1.360 . S
C128 C127 1.413 . S
C128 C132 1.429 1_565 S
C129 C127 1.360 . S
C129 C130 1.372 1_565 S
C130 H125 0.928 . S
C130 C129 1.372 1_545 S
C130 C131 1.404 . S
C131 C130 1.404 . S
C131 C132 1.391 . S
C132 H126 0.930 . S
C132 C128 1.429 1_545 S
C132 C131 1.391 . S
H133 C136 0.931 . S
H134 C139 0.928 . S
H135 C141 0.930 . S
C136 H133 0.931 . S
C136 C137 1.413 1_554 S
C136 C138 1.360 . S
C137 C136 1.413 1_556 S
C137 C141 1.429 . S
C138 C136 1.360 . S
C138 C139 1.372 . S
C139 H134 0.928 . S
C139 C138 1.372 . S
C139 C140 1.404 . S
C140 C139 1.404 . S
C140 C141 1.391 1_554 S
C141 H135 0.930 . S
C141 C137 1.429 . S
C141 C140 1.391 1_556 S
H142 C145 0.931 . S
H143 C148 0.928 . S
H144 C150 0.930 . S
C145 H142 0.931 . S
C145 C146 1.413 . S
C145 C147 1.360 . S
C146 C145 1.413 . S
C146 C150 1.429 1_545 S
C147 C145 1.360 . S
C147 C148 1.372 1_545 S
C148 H143 0.928 . S
C148 C147 1.372 1_565 S
C148 C149 1.404 . S
C149 C148 1.404 . S
C149 C150 1.391 . S
C150 H144 0.930 . S
C150 C146 1.429 1_565 S
C150 C149 1.391 . S
H151 C154 0.931 1_556 S
H152 C157 0.928 . S
H153 C159 0.930 . S
C154 H151 0.931 1_554 S
C154 C155 1.418 . S
C154 C156 1.355 1_554 S
C155 C154 1.418 . S
C155 C159 1.429 . S
C156 C154 1.355 1_556 S
C156 C157 1.372 . S
C157 H152 0.928 . S
C157 C156 1.372 . S
C157 C158 1.404 1_556 S
C158 C157 1.404 1_554 S
C158 C159 1.391 . S
C159 H153 0.930 . S
C159 C155 1.429 . S
C159 C158 1.391 . S
C160 C161 1.387 . S
C160 H164 0.950 . S
C160 C169 1.390 . S
C161 C160 1.387 . S
C161 C163 1.387 . S
H162 C169 0.950 . S
C163 C161 1.387 . S
C163 C165 1.390 . S
C163 H167 0.950 . S
H164 C160 0.950 . S
C165 C163 1.390 . S
C165 C166 1.387 . S
C165 H168 0.950 . S
C166 C165 1.387 . S
C166 C169 1.387 . S
H167 C163 0.950 . S
H168 C165 0.950 . S
C169 C160 1.390 . S
C169 H162 0.950 . S
C169 C166 1.387 . S
C170 C171 1.387 . S
C170 H174 0.950 . S
C170 C179 1.390 . S
C171 C170 1.387 . S
C171 C173 1.387 . S
H172 C179 0.950 . S
C173 C171 1.387 . S
C173 C175 1.390 . S
C173 H177 0.950 . S
H174 C170 0.950 . S
C175 C173 1.390 . S
C175 C176 1.387 . S
C175 H178 0.950 . S
C176 C175 1.387 . S
C176 C179 1.387 . S
H177 C173 0.950 . S
H178 C175 0.950 . S
C179 C170 1.390 . S
C179 H172 0.950 . S
C179 C176 1.387 . S
C180 C181 1.387 . S
C180 H184 0.950 . S
C180 C189 1.390 . S
C181 C180 1.387 . S
C181 C183 1.387 . S
H182 C189 0.950 . S
C183 C181 1.387 . S
C183 C185 1.390 . S
C183 H187 0.950 . S
H184 C180 0.950 . S
C185 C183 1.390 . S
C185 C186 1.387 . S
C185 H188 0.950 . S
C186 C185 1.387 . S
C186 C189 1.387 . S
H187 C183 0.950 . S
H188 C185 0.950 . S
C189 C180 1.390 . S
C189 H182 0.950 . S
C189 C186 1.387 . S
C190 C191 1.387 . S
C190 H194 0.950 . S
C190 C199 1.390 . S
C191 C190 1.387 . S
C191 C193 1.387 . S
H192 C199 0.950 . S
C193 C191 1.387 . S
C193 C195 1.390 . S
C193 H197 0.950 . S
H194 C190 0.950 . S
C195 C193 1.390 . S
C195 C196 1.387 . S
C195 H198 0.950 . S
C196 C195 1.387 . S
C196 C199 1.387 . S
H197 C193 0.950 . S
H198 C195 0.950 . S
C199 C190 1.390 . S
C199 H192 0.950 . S
C199 C196 1.387 . S
C200 C201 1.387 . S
C200 H204 0.950 . S
C200 C209 1.390 . S
C201 C200 1.387 . S
C201 C203 1.387 . S
H202 C209 0.950 . S
C203 C201 1.387 . S
C203 C205 1.390 . S
C203 H207 0.950 . S
H204 C200 0.950 . S
C205 C203 1.390 . S
C205 C206 1.387 . S
C205 H208 0.950 . S
C206 C205 1.387 . S
C206 C209 1.387 . S
H207 C203 0.950 . S
H208 C205 0.950 . S
C209 C200 1.390 . S
C209 H202 0.950 . S
C209 C206 1.387 . S
C210 C211 1.387 . S
C210 H214 0.950 . S
C210 C219 1.390 . S
C211 C210 1.387 . S
C211 C213 1.387 . S
H212 C219 0.950 . S
C213 C211 1.387 . S
C213 C215 1.390 . S
C213 H217 0.950 . S
H214 C210 0.950 . S
C215 C213 1.390 . S
C215 C216 1.387 . S
C215 H218 0.950 . S
C216 C215 1.387 . S
C216 C219 1.387 . S
H217 C213 0.950 . S
H218 C215 0.950 . S
C219 C210 1.390 . S
C219 H212 0.950 . S
C219 C216 1.387 . S
C220 C221 1.387 . S
C220 H224 0.950 . S
C220 C229 1.390 . S
C221 C220 1.387 . S
C221 C223 1.387 . S
H222 C229 0.950 . S
C223 C221 1.387 . S
C223 C225 1.390 . S
C223 H227 0.950 . S
H224 C220 0.950 . S
C225 C223 1.390 . S
C225 C226 1.387 . S
C225 H228 0.950 . S
C226 C225 1.387 . S
C226 C229 1.387 . S
H227 C223 0.950 . S
H228 C225 0.950 . S
C229 C220 1.390 . S
C229 H222 0.950 . S
C229 C226 1.387 . S
C230 C231 1.387 . S
C230 H234 0.950 . S
C230 C239 1.390 . S
C231 C230 1.387 . S
C231 C233 1.387 . S
H232 C239 0.950 1_545 S
C233 C231 1.387 . S
C233 C235 1.390 . S
C233 H237 0.950 . S
H234 C230 0.950 . S
C235 C233 1.390 . S
C235 C236 1.387 . S
C235 H238 0.950 . S
C236 C235 1.387 . S
C236 C239 1.387 . S
H237 C233 0.950 . S
H238 C235 0.950 . S
C239 C230 1.390 . S
C239 H232 0.950 1_565 S
C239 C236 1.387 . S
C240 C241 1.387 . S
C240 H244 0.950 . S
C240 C249 1.390 . S
C241 C240 1.387 . S
C241 C243 1.387 . S
H242 C249 0.950 . S
C243 C241 1.387 . S
C243 C245 1.390 . S
C243 H247 0.950 . S
H244 C240 0.950 . S
C245 C243 1.390 . S
C245 C246 1.387 . S
C245 H248 0.950 . S
C246 C245 1.387 . S
C246 C249 1.387 . S
H247 C243 0.950 . S
H248 C245 0.950 . S
C249 C240 1.390 . S
C249 H242 0.950 . S
C249 C246 1.387 . S
C250 C251 1.387 . S
C250 H254 0.950 . S
C250 C259 1.390 . S
C251 C250 1.387 . S
C251 C253 1.387 . S
H252 C259 0.950 . S
C253 C251 1.387 . S
C253 C255 1.390 . S
C253 H257 0.950 . S
H254 C250 0.950 . S
C255 C253 1.390 . S
C255 C256 1.387 . S
C255 H258 0.950 . S
C256 C255 1.387 . S
C256 C259 1.387 . S
H257 C253 0.950 . S
H258 C255 0.950 . S
C259 C250 1.390 . S
C259 H252 0.950 . S
C259 C256 1.387 . S
C260 C261 1.387 . S
C260 H264 0.950 . S
C260 C269 1.390 . S
C261 C260 1.387 . S
C261 C263 1.387 . S
H262 C269 0.950 . S
C263 C261 1.387 . S
C263 C265 1.390 . S
C263 H267 0.950 . S
H264 C260 0.950 . S
C265 C263 1.390 . S
C265 C266 1.387 . S
C265 H268 0.950 . S
C266 C265 1.387 . S
C266 C269 1.387 . S
H267 C263 0.950 . S
H268 C265 0.950 . S
C269 C260 1.390 . S
C269 H262 0.950 . S
C269 C266 1.387 . S
C270 C271 1.387 . S
C270 H274 0.950 . S
C270 C279 1.390 . S
C271 C270 1.387 . S
C271 C273 1.387 . S
H272 C279 0.950 . S
C273 C271 1.387 . S
C273 C275 1.390 . S
C273 H277 0.950 . S
H274 C270 0.950 . S
C275 C273 1.390 . S
C275 C276 1.387 . S
C275 H278 0.950 . S
C276 C275 1.387 . S
C276 C279 1.387 . S
H277 C273 0.950 . S
H278 C275 0.950 . S
C279 C270 1.390 . S
C279 H272 0.950 . S
C279 C276 1.387 . S
C280 C281 1.387 . S
C280 H284 0.950 . S
C280 C289 1.390 . S
C281 C280 1.387 . S
C281 C283 1.387 . S
H282 C289 0.950 . S
C283 C281 1.387 . S
C283 C285 1.390 . S
C283 H287 0.950 . S
H284 C280 0.950 . S
C285 C283 1.390 . S
C285 C286 1.387 . S
C285 H288 0.950 . S
C286 C285 1.387 . S
C286 C289 1.387 . S
H287 C283 0.950 . S
H288 C285 0.950 . S
C289 C280 1.390 . S
C289 H282 0.950 . S
C289 C286 1.387 . S
C290 C291 1.387 . S
C290 H294 0.950 . S
C290 C299 1.390 . S
C291 C290 1.387 . S
C291 C293 1.387 . S
H292 C299 0.950 . S
C293 C291 1.387 . S
C293 C295 1.390 . S
C293 H297 0.950 . S
H294 C290 0.950 . S
C295 C293 1.390 . S
C295 C296 1.387 . S
C295 H298 0.950 . S
C296 C295 1.387 . S
C296 C299 1.387 . S
H297 C293 0.950 . S
H298 C295 0.950 . S
C299 C290 1.390 . S
C299 H292 0.950 . S
C299 C296 1.387 . S
C300 C301 1.387 . S
C300 H304 0.950 . S
C300 C309 1.390 . S
C301 C300 1.387 . S
C301 C303 1.387 . S
H302 C309 0.950 . S
C303 C301 1.387 . S
C303 C305 1.390 . S
C303 H307 0.950 . S
H304 C300 0.950 . S
C305 C303 1.390 . S
C305 C306 1.387 . S
C305 H308 0.950 . S
C306 C305 1.387 . S
C306 C309 1.387 . S
H307 C303 0.950 . S
H308 C305 0.950 . S
C309 C300 1.390 . S
C309 H302 0.950 . S
C309 C306 1.387 . S
C310 C311 1.387 . S
C310 H314 0.950 . S
C310 C319 1.390 . S
C311 C310 1.387 . S
C311 C313 1.387 . S
H312 C319 0.950 . S
C313 C311 1.387 . S
C313 C315 1.390 . S
C313 H317 0.950 . S
H314 C310 0.950 . S
C315 C313 1.390 . S
C315 C316 1.387 . S
C315 H318 0.950 . S
C316 C315 1.387 . S
C316 C319 1.387 . S
H317 C313 0.950 . S
H318 C315 0.950 . S
C319 C310 1.390 . S
C319 H312 0.950 . S
C319 C316 1.387 . S
C320 C321 1.387 . S
C320 H324 0.950 . S
C320 C329 1.390 . S
C321 C320 1.387 . S
C321 C323 1.387 1_554 S
H322 C329 0.950 . S
C323 C321 1.387 1_556 S
C323 C325 1.390 . S
C323 H327 0.950 . S
H324 C320 0.950 . S
C325 C323 1.390 . S
C325 C326 1.387 1_556 S
C325 H328 0.950 . S
C326 C325 1.387 1_554 S
C326 C329 1.387 . S
H327 C323 0.950 . S
H328 C325 0.950 . S
C329 C320 1.390 . S
C329 H322 0.950 . S
C329 C326 1.387 . S
C330 C331 1.387 . S
C330 H334 0.950 . S
C330 C339 1.390 . S
C331 C330 1.387 . S
C331 C333 1.387 . S
H332 C339 0.950 . S
C333 C331 1.387 . S
C333 C335 1.390 . S
C333 H337 0.950 . S
H334 C330 0.950 . S
C335 C333 1.390 . S
C335 C336 1.387 . S
C335 H338 0.950 . S
C336 C335 1.387 . S
C336 C339 1.387 . S
H337 C333 0.950 . S
H338 C335 0.950 . S
C339 C330 1.390 . S
C339 H332 0.950 . S
C339 C336 1.387 . S
C340 C341 1.387 . S
C340 H344 0.950 . S
C340 C349 1.390 . S
C341 C340 1.387 . S
C341 C343 1.387 1_554 S
H342 C349 0.950 . S
C343 C341 1.387 1_556 S
C343 C345 1.390 . S
C343 H347 0.950 . S
H344 C340 0.950 . S
C345 C343 1.390 . S
C345 C346 1.387 1_556 S
C345 H348 0.950 . S
C346 C345 1.387 1_554 S
C346 C349 1.387 . S
H347 C343 0.950 . S
H348 C345 0.950 . S
C349 C340 1.390 . S
C349 H342 0.950 . S
C349 C346 1.387 . S
C350 C351 1.387 . S
C350 H354 0.950 . S
C350 C359 1.390 . S
C351 C350 1.387 . S
C351 C353 1.387 . S
H352 C359 0.950 . S
C353 C351 1.387 . S
C353 C355 1.390 . S
C353 H357 0.950 . S
H354 C350 0.950 . S
C355 C353 1.390 . S
C355 C356 1.387 . S
C355 H358 0.950 . S
C356 C355 1.387 . S
C356 C359 1.387 . S
H357 C353 0.950 . S
H358 C355 0.950 . S
C359 C350 1.390 . S
C359 H352 0.950 . S
C359 C356 1.387 . S
C360 C361 1.387 . S
C360 H364 0.950 . S
C360 C369 1.390 . S
C361 C360 1.387 . S
C361 C363 1.387 . S
H362 C369 0.950 . S
C363 C361 1.387 . S
C363 C365 1.390 . S
C363 H367 0.950 . S
H364 C360 0.950 . S
C365 C363 1.390 . S
C365 C366 1.387 . S
C365 H368 0.950 . S
C366 C365 1.387 . S
C366 C369 1.387 . S
H367 C363 0.950 . S
H368 C365 0.950 . S
C369 C360 1.390 . S
C369 H362 0.950 . S
C369 C366 1.387 . S
C370 C371 1.387 . S
C370 H374 0.950 . S
C370 C379 1.390 . S
C371 C370 1.387 . S
C371 C373 1.387 1_554 S
H372 C379 0.950 . S
C373 C371 1.387 1_556 S
C373 C375 1.390 . S
C373 H377 0.950 . S
H374 C370 0.950 . S
C375 C373 1.390 . S
C375 C376 1.387 1_556 S
C375 H378 0.950 . S
C376 C375 1.387 1_554 S
C376 C379 1.387 . S
H377 C373 0.950 . S
H378 C375 0.950 . S
C379 C370 1.390 . S
C379 H372 0.950 . S
C379 C376 1.387 . S
C380 C381 1.387 . S
C380 H384 0.950 . S
C380 C389 1.390 . S
C381 C380 1.387 . S
C381 C383 1.387 . S
H382 C389 0.950 . S
C383 C381 1.387 . S
C383 C385 1.390 . S
C383 H387 0.950 . S
H384 C380 0.950 . S
C385 C383 1.390 . S
C385 C386 1.387 . S
C385 H388 0.950 . S
C386 C385 1.387 . S
C386 C389 1.387 . S
H387 C383 0.950 . S
H388 C385 0.950 . S
C389 C380 1.390 . S
C389 H382 0.950 . S
C389 C386 1.387 . S
C390 C391 1.387 . S
C390 H394 0.950 . S
C390 C399 1.390 . S
C391 C390 1.387 . S
C391 C393 1.387 1_554 S
H392 C399 0.950 . S
C393 C391 1.387 1_556 S
C393 C395 1.390 . S
C393 H397 0.950 . S
H394 C390 0.950 . S
C395 C393 1.390 . S
C395 C396 1.387 1_556 S
C395 H398 0.950 . S
C396 C395 1.387 1_554 S
C396 C399 1.387 . S
H397 C393 0.950 . S
H398 C395 0.950 . S
C399 C390 1.390 . S
C399 H392 0.950 . S
C399 C396 1.387 . S
C161 C21 1.517 . S
C166 C119 1.525 . S
C171 C40 1.554 . S
C176 C93 1.522 . S
C186 C102 1.474 . S
C181 C54 1.492 . S
C191 C73 1.579 . S
C196 C110 1.552 . S
C206 C138 1.474 . S
C201 C74 1.492 . S
C216 C146 1.516 . S
C211 C10 1.554 . S
C226 C155 1.525 . S
C221 C37 1.517 . S
C236 C129 1.559 . S
C231 C65 1.579 . S
C241 C52 1.492 . S
C246 C101 1.474 . S
C251 C87 1.574 . S
C256 C111 1.549 . S
C261 C15 1.517 . S
C266 C120 1.526 . S
C276 C92 1.520 . S
C271 C32 1.548 . S
C281 C29 1.515 . S
C286 C156 1.526 . S
C296 C128 1.555 . S
C291 C59 1.573 . S
C306 C137 1.475 . S
C301 C84 1.492 . S
C311 C8 1.548 . S
C316 C147 1.514 . S
C326 C95 1.596 . S
C321 C7 1.628 . S
C336 C104 1.540 . S
C331 C30 1.557 . S
C341 C62 1.638 . S
C346 C113 1.593 . S
C351 C81 1.550 . S
C356 C122 1.555 . S
C366 C131 1.600 . S
C361 C76 1.639 . S
C371 C18 1.557 1_554 S
C376 C140 1.540 . S
C381 C43 1.628 . S
C386 C149 1.589 . S
C391 C51 1.550 1_554 S
C396 C158 1.555 . S
