# Generated by pormake.
# Topology apo, (3,6)-cn, num edge types: 1
# Building blocks:
#     Node 0, Type 0, BuildingBlock: PAMTOO_clean_linker_0, # of connection points: 3
#     Node 1, Type 0, BuildingBlock: PAMTOO_clean_linker_0, # of connection points: 3
#     Node 2, Type 0, BuildingBlock: PAMTOO_clean_linker_0, # of connection points: 3
#     Node 3, Type 0, BuildingBlock: PAMTOO_clean_linker_0, # of connection points: 3
#     Node 4, Type 0, BuildingBlock: PAMTOO_clean_linker_0, # of connection points: 3
#     Node 5, Type 0, BuildingBlock: PAMTOO_clean_linker_0, # of connection points: 3
#     Node 6, Type 0, BuildingBlock: PAMTOO_clean_linker_0, # of connection points: 3
#     Node 7, Type 0, BuildingBlock: PAMTOO_clean_linker_0, # of connection points: 3
#     Node 8, Type 1, BuildingBlock: KUMBOL_clean_sbu_1, # of connection points: 6
#     Node 9, Type 1, BuildingBlock: KUMBOL_clean_sbu_1, # of connection points: 6
#     Node 10, Type 1, BuildingBlock: KUMBOL_clean_sbu_1, # of connection points: 6
#     Node 11, Type 1, BuildingBlock: KUMBOL_clean_sbu_1, # of connection points: 6
#     Edge 12, Type (0, 1), BuildingBlock: UVAHIK_clean_linker_0, # of connection points: 2
#     Edge 13, Type (0, 1), BuildingBlock: UVAHIK_clean_linker_0, # of connection points: 2
#     Edge 14, Type (0, 1), BuildingBlock: UVAHIK_clean_linker_0, # of connection points: 2
#     Edge 15, Type (0, 1), BuildingBlock: UVAHIK_clean_linker_0, # of connection points: 2
#     Edge 16, Type (0, 1), BuildingBlock: UVAHIK_clean_linker_0, # of connection points: 2
#     Edge 17, Type (0, 1), BuildingBlock: UVAHIK_clean_linker_0, # of connection points: 2
#     Edge 18, Type (0, 1), BuildingBlock: UVAHIK_clean_linker_0, # of connection points: 2
#     Edge 19, Type (0, 1), BuildingBlock: UVAHIK_clean_linker_0, # of connection points: 2
#     Edge 20, Type (0, 1), BuildingBlock: UVAHIK_clean_linker_0, # of connection points: 2
#     Edge 21, Type (0, 1), BuildingBlock: UVAHIK_clean_linker_0, # of connection points: 2
#     Edge 22, Type (0, 1), BuildingBlock: UVAHIK_clean_linker_0, # of connection points: 2
#     Edge 23, Type (0, 1), BuildingBlock: UVAHIK_clean_linker_0, # of connection points: 2
#     Edge 24, Type (0, 1), BuildingBlock: UVAHIK_clean_linker_0, # of connection points: 2
#     Edge 25, Type (0, 1), BuildingBlock: UVAHIK_clean_linker_0, # of connection points: 2
#     Edge 26, Type (0, 1), BuildingBlock: UVAHIK_clean_linker_0, # of connection points: 2
#     Edge 27, Type (0, 1), BuildingBlock: UVAHIK_clean_linker_0, # of connection points: 2
#     Edge 28, Type (0, 1), BuildingBlock: UVAHIK_clean_linker_0, # of connection points: 2
#     Edge 29, Type (0, 1), BuildingBlock: UVAHIK_clean_linker_0, # of connection points: 2
#     Edge 30, Type (0, 1), BuildingBlock: UVAHIK_clean_linker_0, # of connection points: 2
#     Edge 31, Type (0, 1), BuildingBlock: UVAHIK_clean_linker_0, # of connection points: 2
#     Edge 32, Type (0, 1), BuildingBlock: UVAHIK_clean_linker_0, # of connection points: 2
#     Edge 33, Type (0, 1), BuildingBlock: UVAHIK_clean_linker_0, # of connection points: 2
#     Edge 34, Type (0, 1), BuildingBlock: UVAHIK_clean_linker_0, # of connection points: 2
#     Edge 35, Type (0, 1), BuildingBlock: UVAHIK_clean_linker_0, # of connection points: 2
# Relax obj value: 0.041
# Max RMSD: 0.212
# Mean RMSD: 0.155
data_MOF--net-apo--node1-KUMBOL_clean_sbu_1--node2-PAMTOO_clean_linker_0--edge1-UVAHIK_clean_linker_0
_symmetry_space_group_name_H-M    P1
_symmetry_Int_Tables_number       1
_symmetry_cell_setting            triclinic
loop_
_symmetry_equiv_pos_as_xyz
'x, y, z'
_cell_length_a     35.17718
_cell_length_b     55.333871
_cell_length_c     64.22949
_cell_angle_alpha  90.07156
_cell_angle_beta   89.952324
_cell_angle_gamma 90.210064
loop_
_atom_site_label
_atom_site_type_symbol
_atom_site_fract_x
_atom_site_fract_y
_atom_site_fract_z
_atom_type_partial_charge
H0 H 0.35357 0.41242 0.42643 0.0
H1 H 0.29749 0.38043 0.37357 0.0
H2 H 0.29344 0.3448 0.43274 0.0
H3 H 0.30654 0.31338 0.39628 0.0
C4 C 0.2894 0.32318 0.38444 0.0
O5 O 0.27212 0.34276 0.39378 0.0
H6 H 0.30879 0.32946 0.37185 0.0
C7 C 0.33712 0.3978 0.41967 0.0
C8 C 0.32502 0.37851 0.43234 0.0
C9 C 0.32758 0.39872 0.39844 0.0
C10 C 0.30487 0.38026 0.38994 0.0
C11 C 0.29273 0.3609 0.40233 0.0
C12 C 0.30262 0.36008 0.42346 0.0
H13 H 0.1474 0.09575 0.92589 0.0
H14 H 0.21608 0.15961 0.93497 0.0
H15 H 0.20506 0.12873 0.87401 0.0
H16 H 0.28257 0.14318 0.88951 0.0
C17 C 0.27461 0.1613 0.89567 0.0
O18 O 0.23556 0.1637 0.89583 0.0
H19 H 0.2856 0.16269 0.91186 0.0
C20 C 0.16547 0.10994 0.91972 0.0
C21 C 0.1742 0.11005 0.89836 0.0
C22 C 0.18058 0.12756 0.93324 0.0
C23 C 0.20373 0.14596 0.92491 0.0
C24 C 0.21255 0.14627 0.90361 0.0
C25 C 0.19795 0.12832 0.89043 0.0
H26 H 0.86045 0.09758 0.58248 0.0
H27 H 0.80145 0.12595 0.63593 0.0
H28 H 0.80069 0.16539 0.57863 0.0
H29 H 0.81515 0.19428 0.61672 0.0
C30 C 0.79686 0.18416 0.62789 0.0
O31 O 0.77899 0.16544 0.61749 0.0
H32 H 0.81518 0.17681 0.64047 0.0
C33 C 0.84302 0.11146 0.58956 0.0
C34 C 0.83178 0.13162 0.57775 0.0
C35 C 0.83208 0.10916 0.61054 0.0
C36 C 0.8097 0.12724 0.61971 0.0
C37 C 0.79907 0.14761 0.60826 0.0
C38 C 0.80979 0.14969 0.58735 0.0
H39 H 0.66232 0.40742 0.08593 0.0
H40 H 0.72866 0.34274 0.07796 0.0
H41 H 0.72288 0.3765 0.13782 0.0
H42 H 0.79929 0.36024 0.12375 0.0
C43 C 0.79054 0.34298 0.11618 0.0
O44 O 0.75148 0.34075 0.11653 0.0
H45 H 0.80071 0.34344 0.09977 0.0
C46 C 0.68073 0.39364 0.09232 0.0
C47 C 0.69091 0.39451 0.11353 0.0
C48 C 0.69387 0.37495 0.0793 0.0
C49 C 0.7178 0.35716 0.0877 0.0
C50 C 0.72852 0.35801 0.10865 0.0
C51 C 0.71497 0.3765 0.12152 0.0
H52 H 0.66277 0.59002 0.58326 0.0
H53 H 0.72502 0.65684 0.57702 0.0
H54 H 0.72233 0.62067 0.63576 0.0
H55 H 0.71046 0.67166 0.63829 0.0
C56 C 0.7295 0.67812 0.62561 0.0
O57 O 0.74648 0.65864 0.61591 0.0
H58 H 0.71203 0.68807 0.61401 0.0
C59 C 0.68049 0.60403 0.58997 0.0
C60 C 0.69039 0.60283 0.61122 0.0
C61 C 0.69319 0.62321 0.57727 0.0
C62 C 0.71563 0.64157 0.58624 0.0
C63 C 0.72557 0.64065 0.60732 0.0
C64 C 0.71356 0.62121 0.61961 0.0
H65 H 0.85386 0.91231 0.08349 0.0
H66 H 0.78861 0.88064 0.1332 0.0
H67 H 0.7885 0.84741 0.07277 0.0
H68 H 0.7153 0.84177 0.0936 0.0
C69 C 0.72439 0.84483 0.10997 0.0
O70 O 0.76354 0.84416 0.11111 0.0
H71 H 0.71404 0.86293 0.11499 0.0
C72 C 0.83518 0.89811 0.08912 0.0
C73 C 0.82265 0.87992 0.07542 0.0
C74 C 0.82292 0.89864 0.10992 0.0
C75 C 0.79795 0.88066 0.11712 0.0
C76 C 0.78581 0.86217 0.10373 0.0
C77 C 0.79795 0.86188 0.08293 0.0
H78 H 0.15747 0.90466 0.42508 0.0
H79 H 0.21941 0.83822 0.43215 0.0
H80 H 0.21083 0.87109 0.37203 0.0
H81 H 0.19505 0.81698 0.37585 0.0
C82 C 0.21921 0.81275 0.38642 0.0
O83 O 0.2364 0.83401 0.39273 0.0
H84 H 0.20798 0.80296 0.40024 0.0
C85 C 0.17477 0.89043 0.41845 0.0
C86 C 0.18301 0.89067 0.39701 0.0
C87 C 0.18781 0.87174 0.43139 0.0
C88 C 0.20871 0.85273 0.42251 0.0
C89 C 0.21632 0.8524 0.40111 0.0
C90 C 0.20376 0.87136 0.38845 0.0
H91 H 0.35863 0.59862 0.92416 0.0
H92 H 0.28829 0.62491 0.87414 0.0
H93 H 0.28941 0.66189 0.93277 0.0
H94 H 0.21411 0.65989 0.91306 0.0
C95 C 0.22295 0.65878 0.89645 0.0
O96 O 0.2618 0.66167 0.89496 0.0
H97 H 0.21441 0.64067 0.89044 0.0
C98 C 0.33836 0.61153 0.91811 0.0
C99 C 0.32555 0.63038 0.93101 0.0
C100 C 0.32504 0.60922 0.89754 0.0
C101 C 0.29913 0.62634 0.88988 0.0
C102 C 0.28631 0.64517 0.90261 0.0
C103 C 0.29935 0.64712 0.92312 0.0
C104 C 0.88884 0.09785 0.2609 0.0
C105 C 0.89089 0.0584 0.27731 0.0
C106 C 0.90746 0.08127 0.27356 0.0
C107 C 0.85658 0.05211 0.26749 0.0
C108 C 0.85385 0.09182 0.25148 0.0
C109 C 0.83809 0.06877 0.25465 0.0
N110 N 0.90528 0.11979 0.25753 0.0
C111 C 0.88757 0.1369 0.24576 0.0
C112 C 0.8359 0.10909 0.239 0.0
C113 C 0.85275 0.13177 0.23622 0.0
Gd114 Gd 0.05711 0.12319 0.23742 0.0
Gd115 Gd 0.96317 0.12686 0.27447 0.0
N116 N 0.9407 0.08784 0.28292 0.0
C117 C 0.90862 0.0428 0.29136 0.0
C118 C 0.9557 0.07363 0.29822 0.0
C119 C 0.94072 0.05066 0.30218 0.0
H120 H 0.97854 0.08004 0.30794 0.0
H121 H 0.95343 0.03926 0.31393 0.0
H122 H 0.03836 0.1735 0.2084 0.0
H123 H 0.90026 0.15453 0.24389 0.0
H124 H 0.05925 0.21573 0.2069 0.0
H125 H 0.89679 0.0251 0.29465 0.0
H126 H 0.84369 0.03455 0.27007 0.0
H127 H 0.11993 0.09468 0.26738 0.0
H128 H 0.80901 0.10513 0.2315 0.0
H129 H 0.8389 0.14531 0.22677 0.0
H130 H 0.16588 0.21919 0.25314 0.0
H131 H 0.81143 0.06373 0.24738 0.0
H132 H 0.20525 0.14579 0.28605 0.0
H133 H 0.17909 0.10421 0.28667 0.0
N134 N 0.11323 0.13046 0.25604 0.0
C135 C 0.12769 0.15326 0.25494 0.0
C136 C 0.13147 0.11281 0.26696 0.0
C137 C 0.1796 0.14164 0.27741 0.0
C138 C 0.16486 0.11816 0.27785 0.0
C139 C 0.16103 0.15954 0.26588 0.0
H140 H 0.1997 0.1887 0.27378 0.0
N141 N 0.07594 0.1639 0.23304 0.0
C142 C 0.10809 0.17054 0.24349 0.0
C143 C 0.10338 0.21105 0.22972 0.0
C144 C 0.12216 0.19443 0.24242 0.0
C145 C 0.06001 0.17945 0.21906 0.0
C146 C 0.07268 0.20337 0.21765 0.0
O147 O 0.95646 0.10926 0.2426 0.0
O148 O 0.01487 0.09267 0.2347 0.0
O149 O 0.07214 0.12332 0.20402 0.0
O150 O 0.10126 0.09975 0.22604 0.0
O151 O 0.01455 0.10604 0.28635 0.0
O152 O 0.04425 0.09038 0.257 0.0
O153 O 0.06116 0.13669 0.27061 0.0
O154 O 0.00595 0.15743 0.27553 0.0
O155 O 0.95375 0.13071 0.30831 0.0
O156 O 0.91966 0.15079 0.28577 0.0
O157 O 0.00427 0.14098 0.22405 0.0
O158 O 0.97718 0.15794 0.25323 0.0
C159 C 0.97757 0.09272 0.23355 0.0
C160 C 0.03531 0.08943 0.27691 0.0
C161 C 0.12317 0.09713 0.19048 0.0
C162 C 0.14164 0.0926 0.15395 0.0
C163 C 0.17594 0.07107 0.18101 0.0
C164 C 0.15239 0.08113 0.1961 0.0
C165 C 0.17063 0.07669 0.1601 0.0
C166 C 0.11809 0.10303 0.1693 0.0
C167 C 0.09834 0.1071 0.20696 0.0
C168 C 0.15496 0.20086 0.25363 0.0
C169 C 0.17436 0.18347 0.2653 0.0
H170 H 0.1133 0.22955 0.22846 0.0
C171 C 0.04249 0.15487 0.27863 0.0
C172 C 0.9811 0.15663 0.23293 0.0
C173 C 0.90436 0.15814 0.32188 0.0
C174 C 0.88919 0.16489 0.35858 0.0
C175 C 0.85806 0.18861 0.33178 0.0
C176 C 0.87833 0.17632 0.31647 0.0
C177 C 0.86351 0.18304 0.35269 0.0
C178 C 0.90944 0.15227 0.34306 0.0
C179 C 0.92645 0.14617 0.30522 0.0
H180 H 0.1984 0.05884 0.18553 0.0
H181 H 0.15716 0.07633 0.21223 0.0
H182 H 0.18956 0.06873 0.1487 0.0
H183 H 0.09557 0.11524 0.16474 0.0
H184 H 0.83814 0.20258 0.32742 0.0
H185 H 0.87375 0.18125 0.30035 0.0
H186 H 0.8473 0.1928 0.3643 0.0
H187 H 0.92945 0.13835 0.34748 0.0
C188 C 0.60664 0.42339 0.77274 0.0
C189 C 0.58506 0.45888 0.79129 0.0
C190 C 0.58032 0.43446 0.78553 0.0
C191 C 0.6154 0.4723 0.78289 0.0
C192 C 0.63855 0.43625 0.76538 0.0
C193 C 0.64218 0.46097 0.76999 0.0
N194 N 0.60211 0.39955 0.7685 0.0
C195 C 0.63007 0.38682 0.7587 0.0
C196 C 0.66639 0.42365 0.7542 0.0
C197 C 0.66247 0.39872 0.75119 0.0
Gd198 Gd 0.46329 0.37308 0.73746 0.0
Gd199 Gd 0.54658 0.38099 0.78092 0.0
N200 N 0.55205 0.42074 0.7938 0.0
C201 C 0.56023 0.46871 0.80606 0.0
C202 C 0.53039 0.42954 0.80971 0.0
C203 C 0.53329 0.45381 0.81565 0.0
H204 H 0.51086 0.41782 0.81789 0.0
H205 H 0.51513 0.4609 0.8278 0.0
H206 H 0.47649 0.31772 0.71917 0.0
H207 H 0.6268 0.36759 0.75628 0.0
H208 H 0.44618 0.27726 0.72165 0.0
H209 H 0.5628 0.48742 0.81088 0.0
H210 H 0.61925 0.49117 0.78691 0.0
H211 H 0.39646 0.41271 0.75475 0.0
H212 H 0.69142 0.43285 0.74832 0.0
H213 H 0.68423 0.38872 0.74299 0.0
H214 H 0.33723 0.29041 0.76542 0.0
H215 H 0.66619 0.4713 0.76421 0.0
H216 H 0.30826 0.37208 0.78436 0.0
H217 H 0.33728 0.41141 0.77509 0.0
N218 N 0.40399 0.37448 0.75473 0.0
C219 C 0.38687 0.35278 0.75819 0.0
C220 C 0.38543 0.3954 0.75962 0.0
C221 C 0.33493 0.37252 0.77592 0.0
C222 C 0.35128 0.39475 0.77077 0.0
C223 C 0.35212 0.35118 0.76909 0.0
H224 H 0.30854 0.32686 0.7807 0.0
N225 N 0.43597 0.33449 0.73891 0.0
C226 C 0.4029 0.33223 0.74962 0.0
C227 C 0.40092 0.28956 0.74165 0.0
C228 C 0.38482 0.30958 0.75165 0.0
C229 C 0.45093 0.31535 0.72831 0.0
C230 C 0.43386 0.29254 0.7297 0.0
O231 O 0.55545 0.39506 0.74797 0.0
O232 O 0.49638 0.40808 0.73809 0.0
O233 O 0.47293 0.36942 0.70423 0.0
O234 O 0.41902 0.38252 0.71535 0.0
O235 O 0.48689 0.39405 0.78823 0.0
O236 O 0.46374 0.40747 0.75681 0.0
O237 O 0.47941 0.34356 0.7603 0.0
O238 O 0.49052 0.36439 0.79022 0.0
O239 O 0.57456 0.38114 0.81151 0.0
O240 O 0.57333 0.34844 0.7923 0.0
O241 O 0.5203 0.35781 0.728 0.0
O242 O 0.5543 0.34979 0.75841 0.0
C243 C 0.53357 0.41019 0.73781 0.0
C244 C 0.46689 0.40943 0.77718 0.0
C245 C 0.44098 0.39727 0.68312 0.0
C246 C 0.4326 0.40925 0.64687 0.0
C247 C 0.45587 0.43824 0.67243 0.0
C248 C 0.45348 0.42069 0.68797 0.0
C249 C 0.44564 0.43259 0.65197 0.0
C250 C 0.43035 0.39164 0.66263 0.0
C251 C 0.44014 0.37838 0.69914 0.0
C252 C 0.35123 0.30772 0.76337 0.0
C253 C 0.33497 0.32847 0.77213 0.0
H254 H 0.38789 0.27184 0.74282 0.0
C255 C 0.47603 0.34566 0.78054 0.0
C256 C 0.54734 0.34653 0.73838 0.0
C257 C 0.6063 0.34515 0.82527 0.0
C258 C 0.62707 0.33885 0.86119 0.0
C259 C 0.64682 0.31115 0.83382 0.0
C260 C 0.62639 0.32441 0.81921 0.0
C261 C 0.64714 0.31823 0.85465 0.0
C262 C 0.60701 0.35248 0.84629 0.0
C263 C 0.58428 0.3586 0.80957 0.0
H264 H 0.46568 0.45627 0.67625 0.0
H265 H 0.46143 0.42531 0.70374 0.0
H266 H 0.44743 0.44654 0.6402 0.0
H267 H 0.42102 0.37345 0.65889 0.0
H268 H 0.66238 0.29526 0.82899 0.0
H269 H 0.62645 0.31847 0.80313 0.0
H270 H 0.66337 0.30764 0.86566 0.0
H271 H 0.59114 0.36828 0.85111 0.0
C272 C 0.89082 0.84176 0.76647 0.0
C273 C 0.90274 0.80385 0.784 0.0
C274 C 0.91317 0.82791 0.77949 0.0
C275 C 0.87081 0.7936 0.7742 0.0
C276 C 0.85765 0.83202 0.75743 0.0
C277 C 0.84827 0.80767 0.76094 0.0
N278 N 0.90106 0.86508 0.7631 0.0
C279 C 0.87789 0.88034 0.75233 0.0
C280 C 0.83463 0.84722 0.74544 0.0
C281 C 0.84451 0.87158 0.74315 0.0
Gd282 Gd 0.04673 0.87759 0.73682 0.0
Gd283 Gd 0.95856 0.87806 0.77782 0.0
N284 N 0.94357 0.83851 0.78885 0.0
C285 C 0.92387 0.79116 0.79883 0.0
C286 C 0.96188 0.82699 0.80471 0.0
C287 C 0.95306 0.80298 0.80955 0.0
H288 H 0.98309 0.83633 0.81382 0.0
H289 H 0.96844 0.79371 0.82174 0.0
H290 H 0.04277 0.93207 0.71527 0.0
H291 H 0.88581 0.89911 0.75043 0.0
H292 H 0.07684 0.97132 0.71743 0.0
H293 H 0.91682 0.77264 0.80275 0.0
H294 H 0.86264 0.77504 0.77726 0.0
H295 H 0.10652 0.83665 0.75816 0.0
H296 H 0.80888 0.84044 0.73822 0.0
H297 H 0.82657 0.88355 0.73421 0.0
H298 H 0.17751 0.95663 0.76636 0.0
H299 H 0.82319 0.79973 0.7539 0.0
H300 H 0.19496 0.87516 0.78967 0.0
H301 H 0.16295 0.8366 0.78082 0.0
N302 N 0.10316 0.87498 0.75657 0.0
C303 C 0.12215 0.89611 0.75981 0.0
C304 C 0.11874 0.85367 0.76292 0.0
C305 C 0.16942 0.87533 0.78025 0.0
C306 C 0.15137 0.85354 0.77535 0.0
C307 C 0.15553 0.89692 0.77194 0.0
H308 H 0.20016 0.92003 0.78417 0.0
N309 N 0.07807 0.91508 0.73768 0.0
C310 C 0.10964 0.91672 0.74975 0.0
C311 C 0.11736 0.95861 0.74005 0.0
C312 C 0.12976 0.93867 0.75159 0.0
C313 C 0.06696 0.93402 0.72552 0.0
C314 C 0.08616 0.95616 0.72672 0.0
O315 O 0.95088 0.86421 0.74492 0.0
O316 O 0.00684 0.84537 0.73692 0.0
O317 O 0.04432 0.88022 0.70296 0.0
O318 O 0.09062 0.86146 0.71767 0.0
O319 O 0.01443 0.86099 0.78749 0.0
O320 O 0.03872 0.84459 0.75731 0.0
O321 O 0.03442 0.90938 0.75811 0.0
O322 O 0.01633 0.89093 0.78805 0.0
O323 O 0.92956 0.87932 0.80778 0.0
O324 O 0.9339 0.91149 0.78899 0.0
O325 O 0.99316 0.89576 0.72532 0.0
O326 O 0.96048 0.90932 0.75481 0.0
C327 C 0.96957 0.8464 0.73623 0.0
C328 C 0.03356 0.84407 0.77761 0.0
C329 C 0.10462 0.88285 0.68692 0.0
C330 C 0.12874 0.89248 0.6522 0.0
C331 C 0.15894 0.90966 0.68293 0.0
C332 C 0.13322 0.89742 0.69567 0.0
C333 C 0.1568 0.90724 0.66136 0.0
C334 C 0.10254 0.88037 0.66517 0.0
C335 C 0.07723 0.87001 0.70035 0.0
C336 C 0.16189 0.93985 0.76452 0.0
C337 C 0.17472 0.91902 0.7747 0.0
H338 H 0.1321 0.9758 0.741 0.0
C339 C 0.03351 0.9087 0.77848 0.0
C340 C 0.96944 0.91067 0.73479 0.0
C341 C 0.93846 0.91632 0.82563 0.0
C342 C 0.94009 0.92154 0.86348 0.0
C343 C 0.9761 0.94865 0.84101 0.0
C344 C 0.96309 0.93626 0.82348 0.0
C345 C 0.96478 0.94138 0.86087 0.0
C346 C 0.92691 0.90916 0.84569 0.0
C347 C 0.92526 0.90264 0.80717 0.0
H348 H 0.18089 0.92084 0.68983 0.0
H349 H 0.136 0.89918 0.71234 0.0
H350 H 0.1777 0.91651 0.65186 0.0
H351 H 0.0805 0.86911 0.65839 0.0
H352 H 0.99503 0.96397 0.8392 0.0
H353 H 0.97245 0.94229 0.80829 0.0
H354 H 0.97498 0.95153 0.87418 0.0
H355 H 0.90822 0.89367 0.84743 0.0
C356 C 0.61759 0.67173 0.25899 0.0
C357 C 0.59597 0.71042 0.27196 0.0
C358 C 0.59154 0.68513 0.2703 0.0
C359 C 0.6255 0.72204 0.26109 0.0
C360 C 0.64822 0.68317 0.24875 0.0
C361 C 0.65158 0.70844 0.24952 0.0
N362 N 0.61294 0.64743 0.25795 0.0
C363 C 0.63905 0.63322 0.24813 0.0
C364 C 0.6745 0.66883 0.23803 0.0
C365 C 0.67009 0.64371 0.23789 0.0
Gd366 Gd 0.46779 0.62916 0.23396 0.0
Gd367 Gd 0.55961 0.6311 0.27467 0.0
N368 N 0.56319 0.67332 0.28059 0.0
C369 C 0.57145 0.72317 0.28509 0.0
C370 C 0.54226 0.68539 0.2952 0.0
C371 C 0.54511 0.7105 0.29716 0.0
H372 H 0.52379 0.67582 0.30578 0.0
H373 H 0.5275 0.72 0.30828 0.0
H374 H 0.44227 0.57203 0.22509 0.0
H375 H 0.63534 0.61381 0.24785 0.0
H376 H 0.38569 0.54573 0.22993 0.0
H377 H 0.57388 0.7426 0.2868 0.0
H378 H 0.62897 0.74148 0.26196 0.0
H379 H 0.43583 0.68575 0.2351 0.0
H380 H 0.69837 0.67694 0.22993 0.0
H381 H 0.69041 0.63246 0.2298 0.0
H382 H 0.29012 0.59975 0.25622 0.0
H383 H 0.67456 0.71761 0.24148 0.0
H384 H 0.32022 0.68444 0.25637 0.0
H385 H 0.37727 0.70751 0.24542 0.0
N386 N 0.4125 0.65108 0.24134 0.0
C387 C 0.38103 0.63809 0.24625 0.0
C388 C 0.41109 0.67565 0.24011 0.0
C389 C 0.3459 0.67488 0.2521 0.0
C390 C 0.378 0.68797 0.24585 0.0
C391 C 0.34683 0.64958 0.25184 0.0
H392 H 0.28795 0.64396 0.26066 0.0
N393 N 0.41519 0.60325 0.23724 0.0
C394 C 0.38232 0.6133 0.24395 0.0
C395 C 0.35095 0.57445 0.24223 0.0
C396 C 0.34936 0.59917 0.24689 0.0
C397 C 0.41632 0.57954 0.23133 0.0
C398 C 0.38442 0.56468 0.23407 0.0
O399 O 0.56169 0.64003 0.2401 0.0
O400 O 0.50702 0.661 0.23635 0.0
O401 O 0.4953 0.62552 0.20383 0.0
O402 O 0.43604 0.6356 0.20553 0.0
O403 O 0.50145 0.64143 0.28702 0.0
O404 O 0.48027 0.65846 0.25719 0.0
O405 O 0.46529 0.60026 0.25877 0.0
O406 O 0.51319 0.60489 0.28401 0.0
O407 O 0.58431 0.636 0.30558 0.0
O408 O 0.60167 0.60609 0.2865 0.0
O409 O 0.50865 0.59783 0.23142 0.0
O410 O 0.56203 0.59874 0.25348 0.0
C411 C 0.54311 0.65834 0.23218 0.0
C412 C 0.47615 0.65443 0.2771 0.0
C413 C 0.47109 0.6501 0.17691 0.0
C414 C 0.46493 0.66157 0.14041 0.0
C415 C 0.49498 0.68893 0.16512 0.0
C416 C 0.48835 0.67242 0.18116 0.0
C417 C 0.48356 0.68351 0.14481 0.0
C418 C 0.45896 0.64485 0.15658 0.0
C419 C 0.46525 0.63218 0.19347 0.0
C420 C 0.31566 0.61032 0.2536 0.0
C421 C 0.31443 0.6355 0.25612 0.0
H422 H 0.32624 0.56294 0.24427 0.0
C423 C 0.48222 0.59448 0.27641 0.0
C424 C 0.54114 0.58908 0.2385 0.0
C425 C 0.59956 0.59956 0.323 0.0
C426 C 0.6018 0.59293 0.36069 0.0
C427 C 0.58509 0.55993 0.33735 0.0
C428 C 0.58962 0.57513 0.32022 0.0
C429 C 0.59098 0.56873 0.35744 0.0
C430 C 0.60612 0.60829 0.34333 0.0
C431 C 0.60327 0.61592 0.30486 0.0
H432 H 0.50868 0.70604 0.16849 0.0
H433 H 0.49642 0.67709 0.19685 0.0
H434 H 0.48841 0.6967 0.13263 0.0
H435 H 0.44511 0.62772 0.15333 0.0
H436 H 0.57713 0.54121 0.33503 0.0
H437 H 0.58511 0.56771 0.30481 0.0
H438 H 0.58781 0.55644 0.37044 0.0
H439 H 0.61416 0.62704 0.34563 0.0
C440 C 0.15683 0.90728 0.3634 0.0
C441 C 0.16998 0.91118 0.3838 0.0
C442 C 0.14352 0.92655 0.35137 0.0
C443 C 0.14347 0.99394 0.34852 0.0
H444 H 0.05651 0.98337 0.31254 0.0
C445 C 0.05853 0.0718 0.31049 0.0
C446 C 0.05073 0.06914 0.28917 0.0
C447 C 0.07371 0.05256 0.32186 0.0
C448 C 0.08097 0.98654 0.32242 0.0
H449 H 0.18052 0.93873 0.40722 0.0
H450 H 0.15585 0.97193 0.38673 0.0
H451 H 0.08221 0.94975 0.3325 0.0
H452 H 0.05239 0.04433 0.26303 0.0
H453 H 0.07844 0.01066 0.28296 0.0
H454 H 0.14141 0.03094 0.33874 0.0
C455 C 0.15634 0.95409 0.3798 0.0
C456 C 0.09588 0.96724 0.3338 0.0
C457 C 0.16997 0.9349 0.39173 0.0
C458 C 0.05821 0.0469 0.27945 0.0
C459 C 0.07288 0.02759 0.29086 0.0
C460 C 0.12825 0.01328 0.33734 0.0
C461 C 0.14277 0.9502 0.35948 0.0
C462 C 0.12735 0.97067 0.34701 0.0
C463 C 0.08092 0.03025 0.31216 0.0
C464 C 0.09688 0.00977 0.32417 0.0
H465 H 0.15612 0.88926 0.35681 0.0
H466 H 0.13388 0.92287 0.33567 0.0
H467 H 0.16815 0.99723 0.35819 0.0
H468 H 0.05324 0.0888 0.31833 0.0
H469 H 0.07943 0.05505 0.33829 0.0
C470 C 0.3469 0.59252 0.86312 0.0
C471 C 0.33776 0.5888 0.88419 0.0
C472 C 0.35868 0.57325 0.85059 0.0
C473 C 0.35659 0.50649 0.8472 0.0
H474 H 0.44156 0.51532 0.80943 0.0
C475 C 0.43475 0.42664 0.80853 0.0
C476 C 0.44735 0.42944 0.78793 0.0
C477 C 0.41883 0.4461 0.81928 0.0
C478 C 0.41742 0.51264 0.81967 0.0
H479 H 0.33334 0.5618 0.90853 0.0
H480 H 0.35449 0.52829 0.88681 0.0
H481 H 0.41913 0.54937 0.83016 0.0
H482 H 0.45193 0.45438 0.76209 0.0
H483 H 0.42366 0.48842 0.78078 0.0
H484 H 0.35511 0.46971 0.83684 0.0
C485 C 0.35224 0.54608 0.8799 0.0
C486 C 0.40459 0.53216 0.83157 0.0
C487 C 0.34057 0.56534 0.89243 0.0
C488 C 0.44251 0.45179 0.778 0.0
C489 C 0.42667 0.4713 0.78876 0.0
C490 C 0.36941 0.48699 0.83529 0.0
C491 C 0.36145 0.54979 0.85883 0.0
C492 C 0.37422 0.52927 0.84561 0.0
C493 C 0.41506 0.46876 0.80961 0.0
C494 C 0.40017 0.48978 0.8215 0.0
H495 H 0.34533 0.6104 0.85634 0.0
H496 H 0.36525 0.57669 0.83439 0.0
H497 H 0.33271 0.50376 0.85759 0.0
H498 H 0.43783 0.40949 0.81647 0.0
H499 H 0.41049 0.44355 0.83536 0.0
C500 C 0.66657 0.58696 0.64569 0.0
C501 C 0.67605 0.58273 0.6247 0.0
C502 C 0.65275 0.5683 0.65828 0.0
C503 C 0.64295 0.50097 0.66081 0.0
H504 H 0.56903 0.51651 0.70348 0.0
C505 C 0.5887 0.42855 0.71861 0.0
C506 C 0.55088 0.42996 0.72544 0.0
C507 C 0.60495 0.44729 0.70697 0.0
C508 C 0.58928 0.5117 0.69148 0.0
H509 H 0.67872 0.55503 0.60076 0.0
H510 H 0.65257 0.523 0.62226 0.0
H511 H 0.59413 0.54837 0.68153 0.0
H512 H 0.50024 0.45215 0.72527 0.0
H513 H 0.52747 0.484 0.7039 0.0
H514 H 0.63643 0.46408 0.66998 0.0
C515 C 0.65677 0.54063 0.62922 0.0
C516 C 0.6043 0.53016 0.67907 0.0
C517 C 0.67121 0.55922 0.61671 0.0
C518 C 0.52943 0.4504 0.72013 0.0
C519 C 0.54534 0.46891 0.70813 0.0
C520 C 0.62745 0.48245 0.673 0.0
C521 C 0.6473 0.54488 0.65021 0.0
C522 C 0.63142 0.52511 0.66354 0.0
C523 C 0.58343 0.46771 0.70142 0.0
C524 C 0.60037 0.48752 0.68854 0.0
H525 H 0.66928 0.60483 0.65242 0.0
H526 H 0.64651 0.57232 0.67442 0.0
H527 H 0.66418 0.49629 0.64929 0.0
H528 H 0.60567 0.4128 0.72202 0.0
H529 H 0.63447 0.44573 0.70243 0.0
C530 C 0.876 0.9221 0.12606 0.0
C531 C 0.83684 0.9179 0.12403 0.0
C532 C 0.88945 0.94097 0.13851 0.0
C533 C 0.86011 0.98526 0.1795 0.0
H534 H 0.95249 0.01762 0.16161 0.0
C535 C 0.92136 0.0751 0.21452 0.0
C536 C 0.95917 0.07317 0.22136 0.0
C537 C 0.90433 0.05634 0.20317 0.0
C538 C 0.92669 0.0087 0.16678 0.0
H539 H 0.78093 0.9299 0.13342 0.0
H540 H 0.8042 0.96361 0.15457 0.0
H541 H 0.92647 0.98485 0.14069 0.0
H542 H 0.00903 0.05012 0.22122 0.0
H543 H 0.97982 0.01799 0.20068 0.0
H544 H 0.86012 0.01003 0.2053 0.0
C545 C 0.82473 0.95196 0.14706 0.0
C546 C 0.91187 0.98974 0.15491 0.0
C547 C 0.8113 0.93273 0.13488 0.0
C548 C 0.97985 0.05228 0.21621 0.0
C549 C 0.96316 0.03383 0.2045 0.0
C550 C 0.87462 0.0046 0.19117 0.0
C551 C 0.86404 0.95649 0.1489 0.0
C552 C 0.8787 0.97744 0.16125 0.0
C553 C 0.92527 0.03566 0.19791 0.0
C554 C 0.90833 0.01622 0.18504 0.0
H555 H 0.89625 0.91069 0.11803 0.0
H556 H 0.9199 0.94331 0.13997 0.0
H557 H 0.83481 0.97613 0.18507 0.0
H558 H 0.90519 0.0913 0.21751 0.0
H559 H 0.87519 0.05828 0.19801 0.0
C560 C 0.88338 0.08157 0.62313 0.0
C561 C 0.84493 0.08823 0.62305 0.0
C562 C 0.89577 0.06222 0.6353 0.0
C563 C 0.86675 0.0232 0.67988 0.0
H564 H 0.94899 0.98315 0.65957 0.0
C565 C 0.93904 0.95139 0.73177 0.0
C566 C 0.95243 0.93022 0.72223 0.0
C567 C 0.92485 0.97037 0.71973 0.0
C568 C 0.92564 0.9939 0.66542 0.0
H569 H 0.78913 0.07974 0.63533 0.0
H570 H 0.81036 0.0454 0.65604 0.0
H571 H 0.92567 0.01596 0.63817 0.0
H572 H 0.96029 0.91196 0.69266 0.0
H573 H 0.93425 0.94453 0.67175 0.0
H574 H 0.86564 1.00042 0.70675 0.0
C575 C 0.83128 0.05548 0.64721 0.0
C576 C 0.91265 0.01306 0.65324 0.0
C577 C 0.81901 0.07507 0.63526 0.0
C578 C 0.95054 0.92817 0.70047 0.0
C579 C 0.93583 0.94696 0.68846 0.0
C580 C 0.87942 0.00381 0.69195 0.0
C581 C 0.86989 0.04883 0.64746 0.0
C582 C 0.88317 0.02809 0.66034 0.0
C583 C 0.92322 0.96847 0.69788 0.0
C584 C 0.90916 0.98894 0.68493 0.0
H585 H 0.90404 0.09165 0.61409 0.0
H586 H 0.92581 0.05805 0.63539 0.0
H587 H 0.84434 0.03451 0.68604 0.0
H588 H 0.94046 0.95359 0.74852 0.0
H589 H 0.91601 0.98675 0.72757 0.0
C590 C 0.63814 0.42173 0.12565 0.0
C591 C 0.676 0.41392 0.1274 0.0
C592 C 0.62397 0.43973 0.13881 0.0
C593 C 0.65452 0.48969 0.17356 0.0
H594 H 0.55114 0.48481 0.19417 0.0
C595 C 0.59255 0.55823 0.23261 0.0
C596 C 0.55594 0.567 0.22811 0.0
C597 C 0.60741 0.53851 0.22166 0.0
C598 C 0.57999 0.48652 0.18844 0.0
H599 H 0.72874 0.41922 0.1443 0.0
H600 H 0.7038 0.45018 0.16757 0.0
H601 H 0.57683 0.45268 0.17237 0.0
H602 H 0.50604 0.56128 0.20877 0.0
H603 H 0.53192 0.52705 0.18984 0.0
H604 H 0.65758 0.52358 0.18963 0.0
C605 C 0.68514 0.44258 0.15585 0.0
C606 C 0.59471 0.46812 0.17589 0.0
C607 C 0.69933 0.4246 0.14265 0.0
C608 C 0.53428 0.55511 0.21276 0.0
C609 C 0.54906 0.53535 0.20192 0.0
C610 C 0.63983 0.50805 0.18618 0.0
C611 C 0.64725 0.45036 0.15412 0.0
C612 C 0.63205 0.46957 0.16811 0.0
C613 C 0.58595 0.52697 0.20605 0.0
C614 C 0.60227 0.50679 0.19362 0.0
H615 H 0.61919 0.41372 0.11427 0.0
H616 H 0.59481 0.44547 0.13683 0.0
H617 H 0.68321 0.49159 0.16763 0.0
H618 H 0.61011 0.56685 0.24432 0.0
H619 H 0.63577 0.53232 0.22538 0.0
C620 C 0.3187 0.43033 0.37073 0.0
C621 C 0.34229 0.41869 0.38521 0.0
C622 C 0.33261 0.44957 0.35877 0.0
C623 C 0.40992 0.49525 0.35788 0.0
H624 H 0.38304 0.50168 0.29963 0.0
C625 C 0.487 0.56179 0.30319 0.0
C626 C 0.4649 0.57483 0.28893 0.0
C627 C 0.47102 0.54309 0.31491 0.0
C628 C 0.39046 0.50028 0.31594 0.0
H629 H 0.39935 0.41747 0.3979 0.0
H630 H 0.42365 0.45076 0.377 0.0
H631 H 0.35705 0.46817 0.31991 0.0
H632 H 0.4081 0.57908 0.27655 0.0
H633 H 0.38016 0.54618 0.29668 0.0
H634 H 0.44358 0.52719 0.35389 0.0
C635 C 0.39414 0.44551 0.37522 0.0
C636 C 0.37555 0.48109 0.32757 0.0
C637 C 0.38023 0.42639 0.38719 0.0
C638 C 0.42621 0.56891 0.28686 0.0
C639 C 0.41016 0.55013 0.29851 0.0
C640 C 0.42489 0.51436 0.34626 0.0
C641 C 0.37046 0.45749 0.36098 0.0
C642 C 0.38532 0.47824 0.34866 0.0
C643 C 0.43241 0.53699 0.31267 0.0
C644 C 0.41554 0.51702 0.32512 0.0
H645 H 0.28925 0.42492 0.36897 0.0
H646 H 0.31349 0.45854 0.3481 0.0
H647 H 0.41743 0.49391 0.37419 0.0
H648 H 0.51683 0.56582 0.30511 0.0
H649 H 0.48909 0.53317 0.32551 0.0
C650 C 0.12106 0.08344 0.88577 0.0
C651 C 0.15941 0.09054 0.88465 0.0
C652 C 0.10752 0.06421 0.87371 0.0
C653 C 0.08331 0.03178 0.83744 0.0
H654 H 0.14164 0.97242 0.83614 0.0
C655 C 0.04882 0.95261 0.78176 0.0
C656 C 0.04811 0.92942 0.79058 0.0
C657 C 0.06252 0.97233 0.79313 0.0
C658 C 0.12502 0.98886 0.83643 0.0
H659 H 0.21362 0.08313 0.86997 0.0
H660 H 0.18996 0.04939 0.8489 0.0
H661 H 0.1654 0.0072 0.85587 0.0
H662 H 0.06105 0.90854 0.81816 0.0
H663 H 0.0854 0.94309 0.83808 0.0
H664 H 0.04293 0.01344 0.81801 0.0
C665 C 0.17042 0.05874 0.85914 0.0
C666 C 0.13876 0.00881 0.84755 0.0
C667 C 0.18386 0.07817 0.87103 0.0
C668 C 0.06134 0.92626 0.81101 0.0
C669 C 0.07548 0.94596 0.82232 0.0
C670 C 0.0698 0.01193 0.82613 0.0
C671 C 0.13214 0.05148 0.86042 0.0
C672 C 0.11799 0.03046 0.84823 0.0
C673 C 0.07605 0.96921 0.81352 0.0
C674 C 0.09046 0.99024 0.82556 0.0
H675 H 0.10152 0.09274 0.89605 0.0
H676 H 0.07795 0.05894 0.87513 0.0
H677 H 0.06679 0.04826 0.83758 0.0
H678 H 0.03833 0.9556 0.76613 0.0
H679 H 0.06286 0.99 0.78589 0.0
C680 C 0.16693 0.14656 0.96824 0.0
C681 C 0.17375 0.12584 0.95609 0.0
C682 C 0.16115 0.14464 0.98978 0.0
C683 C 0.1799 0.10316 0.03375 0.0
H684 H 0.10242 0.13985 0.06277 0.0
C685 C 0.13828 0.07901 0.1169 0.0
C686 C 0.13682 0.09796 0.13146 0.0
C687 C 0.13967 0.08384 0.09562 0.0
C688 C 0.12436 0.12965 0.05488 0.0
H689 H 0.18025 0.08687 0.95722 0.0
H690 H 0.16922 0.08347 0.99438 0.0
H691 H 0.11196 0.14581 0.0253 0.0
H692 H 0.13332 0.13682 0.13507 0.0
H693 H 0.13568 0.14535 0.09757 0.0
H694 H 0.19218 0.08684 0.06309 0.0
C695 C 0.16872 0.10128 0.9874 0.0
C696 C 0.1299 0.13308 0.03345 0.0
C697 C 0.17453 0.1032 0.96598 0.0
C698 C 0.13437 0.12186 0.12419 0.0
C699 C 0.13578 0.12673 0.10276 0.0
C700 C 0.17427 0.09967 0.05502 0.0
C701 C 0.16226 0.12195 0.99963 0.0
C702 C 0.1574 0.11959 0.02258 0.0
C703 C 0.13966 0.10776 0.08831 0.0
C704 C 0.1461 0.11258 0.0658 0.0
H705 H 0.16587 0.16426 0.96109 0.0
H706 H 0.15649 0.16094 0.99875 0.0
H707 H 0.20201 0.09293 0.02603 0.0
H708 H 0.13942 0.06038 0.12203 0.0
H709 H 0.14166 0.0688 0.08487 0.0
C710 C 0.37277 0.38522 0.46085 0.0
C711 C 0.33619 0.37777 0.4547 0.0
C712 C 0.38282 0.38592 0.48186 0.0
C713 C 0.34039 0.38907 0.53455 0.0
H714 H 0.44359 0.37525 0.55194 0.0
C715 C 0.3877 0.39058 0.621 0.0
C716 C 0.42153 0.4033 0.62514 0.0
C717 C 0.37689 0.38549 0.6005 0.0
C718 C 0.41471 0.37927 0.54729 0.0
H719 H 0.28178 0.36463 0.46595 0.0
H720 H 0.29971 0.36515 0.50265 0.0
H721 H 0.42532 0.36902 0.51572 0.0
H722 H 0.47097 0.42017 0.61109 0.0
H723 H 0.45216 0.41122 0.57529 0.0
H724 H 0.32989 0.39923 0.56624 0.0
C725 C 0.3204 0.37094 0.49118 0.0
C726 C 0.40421 0.37576 0.52652 0.0
C727 C 0.31025 0.37035 0.47011 0.0
C728 C 0.44458 0.41052 0.60837 0.0
C729 C 0.43399 0.4052 0.5879 0.0
C730 C 0.35082 0.39237 0.55538 0.0
C731 C 0.3567 0.37899 0.49735 0.0
C732 C 0.36707 0.38096 0.51979 0.0
C733 C 0.39993 0.39275 0.58373 0.0
C734 C 0.38823 0.38783 0.5619 0.0
H735 H 0.39372 0.39066 0.44939 0.0
H736 H 0.41087 0.39249 0.48596 0.0
H737 H 0.3117 0.39361 0.52992 0.0
H738 H 0.36925 0.38493 0.63361 0.0
H739 H 0.3506 0.37574 0.59776 0.0
C740 C 0.67177 0.35165 0.04798 0.0
C741 C 0.68243 0.37381 0.05702 0.0
C742 C 0.66159 0.35036 0.02699 0.0
C743 C 0.67403 0.38163 0.97688 0.0
H744 H 0.59129 0.33976 0.95949 0.0
C745 C 0.63282 0.36966 0.88998 0.0
C746 C 0.62697 0.34562 0.88361 0.0
C747 C 0.63555 0.37544 0.91119 0.0
C748 C 0.6146 0.35145 0.96407 0.0
H749 H 0.69075 0.41202 0.05102 0.0
H750 H 0.67269 0.40978 0.0143 0.0
H751 H 0.60405 0.34542 0.99648 0.0
H752 H 0.6176 0.30901 0.89452 0.0
H753 H 0.62282 0.31895 0.93128 0.0
H754 H 0.6851 0.38723 0.94444 0.0
C755 C 0.67239 0.39339 0.02349 0.0
C756 C 0.62193 0.35467 0.98528 0.0
C757 C 0.6824 0.3947 0.04456 0.0
C758 C 0.62263 0.32766 0.8989 0.0
C759 C 0.62518 0.33342 0.92001 0.0
C760 C 0.66674 0.37836 0.95564 0.0
C761 C 0.6619 0.37118 0.01445 0.0
C762 C 0.65217 0.36944 0.99194 0.0
C763 C 0.63213 0.35732 0.92645 0.0
C764 C 0.63738 0.36286 0.94897 0.0
H765 H 0.67112 0.33527 0.05719 0.0
H766 H 0.65412 0.33291 0.02048 0.0
H767 H 0.69775 0.39297 0.98148 0.0
H768 H 0.6364 0.38389 0.87857 0.0
H769 H 0.64055 0.39407 0.91563 0.0
C770 C 0.84165 0.11376 0.54208 0.0
C771 C 0.84305 0.13387 0.55549 0.0
C772 C 0.85101 0.11613 0.52099 0.0
C773 C 0.85624 0.16208 0.47961 0.0
H774 H 0.91367 0.11362 0.44944 0.0
C775 C 0.89993 0.17855 0.39514 0.0
C776 C 0.89404 0.15952 0.38102 0.0
C777 C 0.89848 0.17446 0.41655 0.0
C778 C 0.89736 0.12722 0.45762 0.0
H779 H 0.85689 0.17203 0.55737 0.0
H780 H 0.87311 0.17619 0.52066 0.0
H781 H 0.90143 0.10834 0.48669 0.0
H782 H 0.88401 0.12104 0.37815 0.0
H783 H 0.88094 0.1138 0.41577 0.0
H784 H 0.85157 0.18083 0.45071 0.0
C785 C 0.8641 0.15866 0.52635 0.0
C786 C 0.89034 0.12419 0.47895 0.0
C787 C 0.85476 0.15629 0.5474 0.0
C788 C 0.88881 0.136 0.38874 0.0
C789 C 0.88706 0.1319 0.41026 0.0
C790 C 0.86318 0.16508 0.45838 0.0
C791 C 0.86195 0.13868 0.51283 0.0
C792 C 0.86979 0.14166 0.4902 0.0
C793 C 0.89073 0.15125 0.4244 0.0
C794 C 0.88398 0.14778 0.4471 0.0
H795 H 0.83236 0.09629 0.54776 0.0
H796 H 0.84863 0.10045 0.51097 0.0
H797 H 0.83958 0.17562 0.48766 0.0
H798 H 0.90456 0.19681 0.38958 0.0
H799 H 0.90249 0.18966 0.42697 0.0
C800 C 0.87332 0.88527 0.0483 0.0
C801 C 0.83525 0.88016 0.05332 0.0
C802 C 0.88476 0.88747 0.02756 0.0
C803 C 0.85628 0.87444 0.97299 0.0
H804 H 0.92573 0.92713 0.96077 0.0
C805 C 0.89039 0.90732 0.88901 0.0
C806 C 0.92825 0.91396 0.88477 0.0
C807 C 0.87904 0.9015 0.90931 0.0
C808 C 0.9067 0.91214 0.96392 0.0
H809 H 0.77948 0.87275 0.04045 0.0
H810 H 0.79936 0.87681 1.00414 0.0
H811 H 0.90604 0.91988 0.99651 0.0
H812 H 0.98421 0.91854 0.8984 0.0
H813 H 0.96445 0.9085 0.9337 0.0
H814 H 0.85672 0.86698 0.9402 0.0
C815 C 0.82051 0.87883 0.01627 0.0
C816 C 0.89541 0.90795 0.98445 0.0
C817 C 0.80908 0.87652 0.03707 0.0
C818 C 0.95466 0.91402 0.90119 0.0
C819 C 0.94333 0.90824 0.92144 0.0
C820 C 0.86753 0.87869 0.95238 0.0
C821 C 0.85838 0.88475 0.01128 0.0
C822 C 0.8702 0.88898 0.98929 0.0
C823 C 0.90529 0.90223 0.92581 0.0
C824 C 0.89301 0.89754 0.94763 0.0
H825 H 0.89431 0.88773 0.06047 0.0
H826 H 0.91433 0.89146 0.0243 0.0
H827 H 0.83711 0.85953 0.97617 0.0
H828 H 0.86925 0.90731 0.87677 0.0
H829 H 0.84946 0.89715 0.91218 0.0
C830 C 0.70993 0.63157 0.53977 0.0
C831 C 0.68313 0.62397 0.55469 0.0
C832 C 0.70091 0.63156 0.51855 0.0
C833 C 0.61906 0.62849 0.4817 0.0
H834 H 0.69564 0.6066 0.4426 0.0
C835 C 0.58407 0.5956 0.39847 0.0
C836 C 0.60919 0.60165 0.38224 0.0
C837 C 0.59264 0.60164 0.41908 0.0
C838 C 0.67409 0.6131 0.45326 0.0
H839 H 0.62529 0.61108 0.55883 0.0
H840 H 0.61004 0.61027 0.52191 0.0
H841 H 0.71156 0.61046 0.47936 0.0
H842 H 0.66253 0.61936 0.37485 0.0
H843 H 0.6776 0.62993 0.41097 0.0
H844 H 0.58131 0.6304 0.45558 0.0
C845 C 0.63793 0.61658 0.52659 0.0
C846 C 0.68322 0.61535 0.47438 0.0
C847 C 0.64689 0.61669 0.54781 0.0
C848 C 0.64254 0.61457 0.38702 0.0
C849 C 0.65132 0.62041 0.4077 0.0
C850 C 0.60988 0.62608 0.46059 0.0
C851 C 0.66487 0.62388 0.51164 0.0
C852 C 0.65571 0.62282 0.48895 0.0
C853 C 0.62669 0.61372 0.424 0.0
C854 C 0.63717 0.61812 0.44616 0.0
H855 H 0.73823 0.6371 0.54444 0.0
H856 H 0.72225 0.63761 0.50755 0.0
H857 H 0.59733 0.63476 0.49234 0.0
H858 H 0.55799 0.58582 0.39525 0.0
H859 H 0.57318 0.59605 0.43125 0.0
C860 C 0.37878 0.63208 0.95687 0.0
C861 C 0.33964 0.63259 0.95268 0.0
C862 C 0.39212 0.63442 0.97728 0.0
C863 C 0.36161 0.65422 0.03032 0.0
H864 H 0.45348 0.62103 0.04718 0.0
C865 C 0.41305 0.64926 0.11586 0.0
C866 C 0.45095 0.65644 0.11908 0.0
C867 C 0.39927 0.64552 0.09569 0.0
C868 C 0.42786 0.63045 0.04263 0.0
H869 H 0.28368 0.63539 0.96648 0.0
H870 H 0.30666 0.63854 1.00219 0.0
H871 H 0.42927 0.61565 0.0119 0.0
H872 H 0.50441 0.66474 0.10389 0.0
H873 H 0.4805 0.65764 0.06856 0.0
H874 H 0.35988 0.66841 0.06139 0.0
C875 C 0.32732 0.63716 0.98975 0.0
C876 C 0.41404 0.62753 0.02237 0.0
C877 C 0.31404 0.63522 0.96929 0.0
C878 C 0.47503 0.65931 0.1018 0.0
C879 C 0.46144 0.65513 0.08164 0.0
C880 C 0.37511 0.65679 0.05068 0.0
C881 C 0.36659 0.63693 0.99405 0.0
C882 C 0.38085 0.63952 0.01585 0.0
C883 C 0.42333 0.64845 0.07839 0.0
C884 C 0.40849 0.64508 0.05698 0.0
H885 H 0.39913 0.63031 0.94429 0.0
H886 H 0.42254 0.63466 0.97981 0.0
H887 H 0.33646 0.66416 0.02588 0.0
H888 H 0.39385 0.64707 0.12892 0.0
H889 H 0.36983 0.64026 0.09359 0.0
C890 C 0.16919 0.85126 0.46494 0.0
C891 C 0.17964 0.87236 0.45413 0.0
C892 C 0.16043 0.85219 0.48619 0.0
C893 C 0.13034 0.89478 0.52734 0.0
H894 H 0.17037 0.84682 0.56533 0.0
C895 C 0.13402 0.90928 0.61605 0.0
C896 C 0.1278 0.88938 0.62921 0.0
C897 C 0.13632 0.90619 0.59451 0.0
C898 C 0.15842 0.86013 0.5549 0.0
H899 H 0.19034 0.91082 0.45741 0.0
H900 H 0.17491 0.91245 0.49431 0.0
H901 H 0.18282 0.8431 0.52808 0.0
H902 H 0.11821 0.85066 0.62999 0.0
H903 H 0.12156 0.8453 0.59226 0.0
H904 H 0.10623 0.91195 0.5541 0.0
C905 C 0.17276 0.89526 0.4863 0.0
C906 C 0.16563 0.85802 0.53355 0.0
C907 C 0.18163 0.89432 0.46513 0.0
C908 C 0.12278 0.86639 0.62026 0.0
C909 C 0.12514 0.86328 0.59867 0.0
C910 C 0.12305 0.89686 0.54865 0.0
C911 C 0.16182 0.87426 0.49706 0.0
C912 C 0.15217 0.87553 0.51957 0.0
C913 C 0.13241 0.88311 0.58556 0.0
C914 C 0.13749 0.87977 0.56273 0.0
H915 H 0.167 0.8341 0.45689 0.0
H916 H 0.15185 0.83573 0.49402 0.0
H917 H 0.11893 0.90831 0.51692 0.0
H918 H 0.13756 0.92728 0.62243 0.0
H919 H 0.1423 0.92184 0.58492 0.0
C920 C 0.23039 0.31571 0.36274 0.0
C921 C 0.26018 0.30651 0.37492 0.0
C922 C 0.20501 0.30003 0.35268 0.0
C923 C 0.19853 0.238 0.3323 0.0
H924 H 0.08957 0.2484 0.33316 0.0
C925 C 0.09489 0.16535 0.30302 0.0
C926 C 0.06364 0.17277 0.29112 0.0
C927 C 0.11749 0.18229 0.31335 0.0
C928 C 0.11996 0.24541 0.33254 0.0
H929 H 0.28747 0.2738 0.38564 0.0
H930 H 0.2432 0.24641 0.36817 0.0
H931 H 0.13176 0.27696 0.3509 0.0
H932 H 0.03071 0.20357 0.28105 0.0
H933 H 0.07045 0.23344 0.29906 0.0
H934 H 0.18703 0.20666 0.31383 0.0
C935 C 0.23925 0.26572 0.36648 0.0
C936 C 0.1441 0.26175 0.34274 0.0
C937 C 0.2644 0.28137 0.37663 0.0
C938 C 0.05454 0.19742 0.29028 0.0
C939 C 0.07732 0.21447 0.30057 0.0
C940 C 0.17448 0.22177 0.32204 0.0
C941 C 0.2094 0.27485 0.35428 0.0
C942 C 0.18363 0.25806 0.34292 0.0
C943 C 0.10941 0.20711 0.31199 0.0
C944 C 0.13486 0.22508 0.32224 0.0
H945 H 0.22706 0.33503 0.36079 0.0
H946 H 0.1826 0.30761 0.34318 0.0
H947 H 0.22891 0.23492 0.33178 0.0
H948 H 0.10219 0.14638 0.30411 0.0
H949 H 0.14144 0.1759 0.32235 0.0
C950 C 0.29276 0.20495 0.88978 0.0
C951 C 0.29239 0.18096 0.88264 0.0
C952 C 0.31094 0.22307 0.87823 0.0
C953 C 0.38621 0.23127 0.83892 0.0
H954 H 0.34328 0.29526 0.83248 0.0
C955 C 0.45525 0.30286 0.78556 0.0
C956 C 0.45548 0.32692 0.79246 0.0
C957 C 0.43445 0.28525 0.79626 0.0
C958 C 0.35589 0.27757 0.83434 0.0
H959 H 0.30934 0.15717 0.85753 0.0
H960 H 0.34111 0.18876 0.83732 0.0
H961 H 0.30786 0.26429 0.85149 0.0
H962 H 0.43487 0.35147 0.81616 0.0
H963 H 0.39915 0.32061 0.83523 0.0
H964 H 0.43441 0.2445 0.82207 0.0
C965 C 0.3279 0.19356 0.85198 0.0
C966 C 0.33553 0.25981 0.84521 0.0
C967 C 0.30957 0.1755 0.86347 0.0
C968 C 0.43517 0.33301 0.81053 0.0
C969 C 0.41436 0.31538 0.82128 0.0
C970 C 0.40662 0.24902 0.82817 0.0
C971 C 0.32919 0.21752 0.85933 0.0
C972 C 0.35044 0.23643 0.8476 0.0
C973 C 0.41367 0.29127 0.81425 0.0
C974 C 0.39175 0.27241 0.82572 0.0
H975 H 0.27954 0.20956 0.90449 0.0
H976 H 0.31162 0.24129 0.8844 0.0
H977 H 0.39883 0.21358 0.84079 0.0
H978 H 0.47104 0.29766 0.7718 0.0
H979 H 0.43424 0.26697 0.79023 0.0
C980 C 0.77489 0.22589 0.63796 0.0
C981 C 0.76814 0.20086 0.63767 0.0
C982 C 0.75007 0.24141 0.6484 0.0
C983 C 0.65272 0.24634 0.66907 0.0
H984 H 0.69639 0.29641 0.70407 0.0
C985 C 0.56388 0.32343 0.7059 0.0
C986 C 0.57167 0.32923 0.72681 0.0
C987 C 0.58708 0.30732 0.69497 0.0
C988 C 0.68376 0.28245 0.69444 0.0
H989 H 0.73089 0.17233 0.64865 0.0
H990 H 0.68704 0.19954 0.66669 0.0
H991 H 0.73814 0.2691 0.68496 0.0
H992 H 0.60996 0.3223 0.75263 0.0
H993 H 0.65045 0.29443 0.73348 0.0
H994 H 0.5983 0.25968 0.67866 0.0
C995 C 0.71118 0.20718 0.65851 0.0
C996 C 0.70767 0.26696 0.68334 0.0
C997 C 0.73621 0.19162 0.64819 0.0
C998 C 0.60313 0.31841 0.73653 0.0
C999 C 0.62649 0.30248 0.72554 0.0
C1000 C 0.62878 0.26199 0.68005 0.0
C1001 C 0.71802 0.23224 0.65886 0.0
C1002 C 0.69243 0.24872 0.67054 0.0
C1003 C 0.61878 0.29679 0.70463 0.0
C1004 C 0.64406 0.28017 0.69289 0.0
H1005 H 0.79967 0.23343 0.63029 0.0
H1006 H 0.75598 0.26064 0.64828 0.0
H1007 H 0.64016 0.23255 0.65924 0.0
H1008 H 0.53989 0.33136 0.69789 0.0
H1009 H 0.58061 0.30344 0.67882 0.0
C1010 C 0.81097 0.32254 0.14937 0.0
C1011 C 0.80821 0.3221 0.12759 0.0
C1012 C 0.82789 0.30339 0.16005 0.0
C1013 C 0.89471 0.25275 0.15261 0.0
H1014 H 0.85383 0.23108 0.20549 0.0
C1015 C 0.95761 0.17161 0.19828 0.0
C1016 C 0.9609 0.17461 0.21994 0.0
C1017 C 0.93783 0.18855 0.18628 0.0
C1018 C 0.86581 0.23705 0.19082 0.0
H1019 H 0.81918 0.30094 0.09988 0.0
H1020 H 0.84873 0.2673 0.1185 0.0
H1021 H 0.82087 0.2624 0.186 0.0
H1022 H 0.94641 0.19797 0.24592 0.0
H1023 H 0.91237 0.2274 0.22508 0.0
H1024 H 0.93988 0.22754 0.15757 0.0
C1025 C 0.83861 0.28267 0.12733 0.0
C1026 C 0.8469 0.25502 0.17965 0.0
C1027 C 0.82159 0.30184 0.11668 0.0
C1028 C 0.94421 0.19497 0.22929 0.0
C1029 C 0.92446 0.21181 0.21735 0.0
C1030 C 0.91366 0.23477 0.16381 0.0
C1031 C 0.8422 0.28328 0.14915 0.0
C1032 C 0.86132 0.26329 0.16051 0.0
C1033 C 0.92085 0.20879 0.19571 0.0
C1034 C 0.89967 0.22691 0.18317 0.0
H1035 H 0.80043 0.33789 0.1581 0.0
H1036 H 0.83046 0.30456 0.17682 0.0
H1037 H 0.90684 0.25889 0.13804 0.0
H1038 H 0.97 0.15607 0.19062 0.0
H1039 H 0.93533 0.18558 0.16967 0.0
C1040 C 0.75355 0.71986 0.63446 0.0
C1041 C 0.7589 0.69475 0.63507 0.0
C1042 C 0.77889 0.73544 0.64456 0.0
C1043 C 0.85134 0.73701 0.68652 0.0
H1044 H 0.8756 0.79927 0.66214 0.0
C1045 C 0.96052 0.80433 0.72258 0.0
C1046 C 0.94831 0.82842 0.72382 0.0
C1047 C 0.93929 0.78723 0.71139 0.0
C1048 C 0.86893 0.78199 0.6692 0.0
H1049 H 0.79422 0.66616 0.64737 0.0
H1050 H 0.83934 0.69338 0.66454 0.0
H1051 H 0.83592 0.77077 0.64296 0.0
H1052 H 0.90513 0.85372 0.71394 0.0
H1053 H 0.86811 0.824 0.69446 0.0
H1054 H 0.88469 0.74838 0.71274 0.0
C1055 C 0.81546 0.70109 0.65629 0.0
C1056 C 0.84608 0.76565 0.65823 0.0
C1057 C 0.78991 0.68549 0.64626 0.0
C1058 C 0.91495 0.83521 0.71342 0.0
C1059 C 0.89396 0.81823 0.70211 0.0
C1060 C 0.87448 0.75332 0.69742 0.0
C1061 C 0.8102 0.7263 0.65564 0.0
C1062 C 0.83651 0.74306 0.66685 0.0
C1063 C 0.90582 0.79404 0.70099 0.0
C1064 C 0.88311 0.77611 0.68899 0.0
H1065 H 0.72933 0.72745 0.62641 0.0
H1066 H 0.77331 0.75467 0.6441 0.0
H1067 H 0.8442 0.71995 0.6938 0.0
H1068 H 0.9861 0.79865 0.73055 0.0
H1069 H 0.94924 0.76875 0.7107 0.0
C1070 C 0.67853 0.83069 0.13779 0.0
C1071 C 0.70744 0.82527 0.12346 0.0
C1072 C 0.66175 0.81239 0.14968 0.0
C1073 C 0.67664 0.75045 0.16921 0.0
H1074 H 0.56696 0.75028 0.17532 0.0
C1075 C 0.59377 0.67094 0.20699 0.0
C1076 C 0.56313 0.67701 0.21995 0.0
C1077 C 0.61226 0.68878 0.19529 0.0
C1078 C 0.59766 0.75021 0.17401 0.0
H1079 H 0.74107 0.79651 0.11003 0.0
H1080 H 0.71193 0.7644 0.13097 0.0
H1081 H 0.59769 0.78195 0.15501 0.0
H1082 H 0.52803 0.70634 0.23118 0.0
H1083 H 0.5604 0.73751 0.21099 0.0
H1084 H 0.67658 0.71879 0.18841 0.0
C1085 C 0.70258 0.78286 0.1332 0.0
C1086 C 0.61527 0.76837 0.16233 0.0
C1087 C 0.71919 0.80117 0.1212 0.0
C1088 C 0.55137 0.70117 0.22111 0.0
C1089 C 0.56985 0.71899 0.2095 0.0
C1090 C 0.65902 0.73233 0.18101 0.0
C1091 C 0.67351 0.78825 0.1475 0.0
C1092 C 0.65496 0.76876 0.15984 0.0
C1093 C 0.60038 0.71302 0.19633 0.0
C1094 C 0.61931 0.73204 0.1836 0.0
H1095 H 0.66874 0.8491 0.13972 0.0
H1096 H 0.63968 0.81717 0.16069 0.0
H1097 H 0.70732 0.7504 0.16775 0.0
H1098 H 0.60317 0.65237 0.20576 0.0
H1099 H 0.63543 0.68351 0.18517 0.0
C1100 C 0.28502 0.79467 0.38239 0.0
C1101 C 0.24729 0.79659 0.37541 0.0
C1102 C 0.31035 0.77885 0.3726 0.0
C1103 C 0.3139 0.72384 0.34019 0.0
H1104 H 0.41507 0.74632 0.32576 0.0
C1105 C 0.4307 0.66084 0.30655 0.0
C1106 C 0.45044 0.66999 0.28928 0.0
C1107 C 0.40614 0.67577 0.31791 0.0
C1108 C 0.38689 0.73979 0.32967 0.0
H1109 H 0.20596 0.78256 0.35351 0.0
H1110 H 0.25016 0.75494 0.33636 0.0
H1111 H 0.37142 0.7734 0.34386 0.0
H1112 H 0.46148 0.70195 0.27076 0.0
H1113 H 0.41868 0.72797 0.29047 0.0
H1114 H 0.32928 0.6903 0.32575 0.0
C1115 C 0.26029 0.76584 0.34924 0.0
C1116 C 0.36202 0.75523 0.34019 0.0
C1117 C 0.23509 0.7818 0.35891 0.0
C1118 C 0.44599 0.69437 0.28381 0.0
C1119 C 0.42184 0.70931 0.29524 0.0
C1120 C 0.33891 0.70831 0.32983 0.0
C1121 C 0.29825 0.76425 0.35591 0.0
C1122 C 0.32512 0.74751 0.34541 0.0
C1123 C 0.40153 0.70019 0.31237 0.0
C1124 C 0.37555 0.71621 0.32428 0.0
H1125 H 0.29492 0.80535 0.39547 0.0
H1126 H 0.33925 0.77775 0.37831 0.0
H1127 H 0.28577 0.71728 0.34419 0.0
H1128 H 0.43393 0.64211 0.3111 0.0
H1129 H 0.39112 0.6683 0.33116 0.0
C1130 C 0.19505 0.67451 0.86293 0.0
C1131 C 0.20359 0.67821 0.88404 0.0
C1132 C 0.17723 0.6926 0.85136 0.0
C1133 C 0.11891 0.74764 0.85749 0.0
H1134 H 0.14849 0.75966 0.80025 0.0
C1135 C 0.06261 0.82911 0.81072 0.0
C1136 C 0.05261 0.825 0.78985 0.0
C1137 C 0.08121 0.81127 0.82219 0.0
C1138 C 0.13961 0.75634 0.81614 0.0
H1139 H 0.20211 0.70396 0.90939 0.0
H1140 H 0.17113 0.73576 0.88919 0.0
H1141 H 0.18119 0.72861 0.82026 0.0
H1142 H 0.054 0.799 0.76461 0.0
H1143 H 0.0864 0.76774 0.78465 0.0
H1144 H 0.07734 0.77538 0.85337 0.0
C1145 C 0.17724 0.71867 0.88168 0.0
C1146 C 0.15836 0.73855 0.82762 0.0
C1147 C 0.19507 0.70056 0.89323 0.0
C1148 C 0.06156 0.8027 0.78066 0.0
C1149 C 0.08025 0.78485 0.79211 0.0
C1150 C 0.10019 0.76544 0.84602 0.0
C1151 C 0.16788 0.71486 0.86063 0.0
C1152 C 0.14822 0.73396 0.84844 0.0
C1153 C 0.09032 0.78893 0.81301 0.0
C1154 C 0.11028 0.77 0.8252 0.0
H1155 H 0.2019 0.65751 0.85546 0.0
H1156 H 0.17021 0.68899 0.83524 0.0
H1157 H 0.10995 0.74432 0.87337 0.0
H1158 H 0.05647 0.84625 0.81814 0.0
H1159 H 0.08904 0.81513 0.83816 0.0
loop_
_geom_bond_atom_site_label_1
_geom_bond_atom_site_label_2
_geom_bond_distance
_geom_bond_site_symmetry_2
_ccdc_geom_bond_type
H0 C7 0.929 . S
H1 C10 0.930 . S
H2 C12 0.929 . S
H3 C4 0.969 . S
C4 H3 0.969 . S
C4 O5 1.550 . S
C4 H6 0.973 . S
O5 C4 1.550 . S
O5 C11 1.412 . S
H6 C4 0.973 . S
C7 H0 0.929 . S
C7 C8 1.400 . S
C7 C9 1.364 . S
C8 C7 1.400 . S
C8 C12 1.377 . S
C9 C7 1.364 . S
C9 C10 1.374 . S
C10 H1 0.930 . S
C10 C9 1.374 . S
C10 C11 1.383 . S
C11 O5 1.412 . S
C11 C10 1.383 . S
C11 C12 1.394 . S
C12 H2 0.929 . S
C12 C8 1.377 . S
C12 C11 1.394 . S
H13 C20 0.929 . S
H14 C23 0.930 . S
H15 C25 0.929 . S
H16 C17 0.969 . S
C17 H16 0.969 . S
C17 O18 1.550 . S
C17 H19 0.973 . S
O18 C17 1.550 . S
O18 C24 1.412 . S
H19 C17 0.973 . S
C20 H13 0.929 . S
C20 C21 1.400 . S
C20 C22 1.364 . S
C21 C20 1.400 . S
C21 C25 1.377 . S
C22 C20 1.364 . S
C22 C23 1.374 . S
C23 H14 0.930 . S
C23 C22 1.374 . S
C23 C24 1.383 . S
C24 O18 1.412 . S
C24 C23 1.383 . S
C24 C25 1.394 . S
C25 H15 0.929 . S
C25 C21 1.377 . S
C25 C24 1.394 . S
H26 C33 0.929 . S
H27 C36 0.930 . S
H28 C38 0.929 . S
H29 C30 0.969 . S
C30 H29 0.969 . S
C30 O31 1.550 . S
C30 H32 0.973 . S
O31 C30 1.550 . S
O31 C37 1.412 . S
H32 C30 0.973 . S
C33 H26 0.929 . S
C33 C34 1.400 . S
C33 C35 1.364 . S
C34 C33 1.400 . S
C34 C38 1.377 . S
C35 C33 1.364 . S
C35 C36 1.374 . S
C36 H27 0.930 . S
C36 C35 1.374 . S
C36 C37 1.383 . S
C37 O31 1.412 . S
C37 C36 1.383 . S
C37 C38 1.394 . S
C38 H28 0.929 . S
C38 C34 1.377 . S
C38 C37 1.394 . S
H39 C46 0.929 . S
H40 C49 0.930 . S
H41 C51 0.929 . S
H42 C43 0.969 . S
C43 H42 0.969 . S
C43 O44 1.550 . S
C43 H45 0.973 . S
O44 C43 1.550 . S
O44 C50 1.412 . S
H45 C43 0.973 . S
C46 H39 0.929 . S
C46 C47 1.400 . S
C46 C48 1.364 . S
C47 C46 1.400 . S
C47 C51 1.377 . S
C48 C46 1.364 . S
C48 C49 1.374 . S
C49 H40 0.930 . S
C49 C48 1.374 . S
C49 C50 1.383 . S
C50 O44 1.412 . S
C50 C49 1.383 . S
C50 C51 1.394 . S
C51 H41 0.929 . S
C51 C47 1.377 . S
C51 C50 1.394 . S
H52 C59 0.929 . S
H53 C62 0.930 . S
H54 C64 0.929 . S
H55 C56 0.969 . S
C56 H55 0.969 . S
C56 O57 1.550 . S
C56 H58 0.973 . S
O57 C56 1.550 . S
O57 C63 1.412 . S
H58 C56 0.973 . S
C59 H52 0.929 . S
C59 C60 1.400 . S
C59 C61 1.364 . S
C60 C59 1.400 . S
C60 C64 1.377 . S
C61 C59 1.364 . S
C61 C62 1.374 . S
C62 H53 0.930 . S
C62 C61 1.374 . S
C62 C63 1.383 . S
C63 O57 1.412 . S
C63 C62 1.383 . S
C63 C64 1.394 . S
C64 H54 0.929 . S
C64 C60 1.377 . S
C64 C63 1.394 . S
H65 C72 0.929 . S
H66 C75 0.930 . S
H67 C77 0.929 . S
H68 C69 0.969 . S
C69 H68 0.969 . S
C69 O70 1.550 . S
C69 H71 0.973 . S
O70 C69 1.550 . S
O70 C76 1.412 . S
H71 C69 0.973 . S
C72 H65 0.929 . S
C72 C73 1.400 . S
C72 C74 1.364 . S
C73 C72 1.400 . S
C73 C77 1.377 . S
C74 C72 1.364 . S
C74 C75 1.374 . S
C75 H66 0.930 . S
C75 C74 1.374 . S
C75 C76 1.383 . S
C76 O70 1.412 . S
C76 C75 1.383 . S
C76 C77 1.394 . S
C77 H67 0.929 . S
C77 C73 1.377 . S
C77 C76 1.394 . S
H78 C85 0.929 . S
H79 C88 0.930 . S
H80 C90 0.929 . S
H81 C82 0.969 . S
C82 H81 0.969 . S
C82 O83 1.550 . S
C82 H84 0.973 . S
O83 C82 1.550 . S
O83 C89 1.412 . S
H84 C82 0.973 . S
C85 H78 0.929 . S
C85 C86 1.400 . S
C85 C87 1.364 . S
C86 C85 1.400 . S
C86 C90 1.377 . S
C87 C85 1.364 . S
C87 C88 1.374 . S
C88 H79 0.930 . S
C88 C87 1.374 . S
C88 C89 1.383 . S
C89 O83 1.412 . S
C89 C88 1.383 . S
C89 C90 1.394 . S
C90 H80 0.929 . S
C90 C86 1.377 . S
C90 C89 1.394 . S
H91 C98 0.929 . S
H92 C101 0.930 . S
H93 C103 0.929 . S
H94 C95 0.969 . S
C95 H94 0.969 . S
C95 O96 1.550 . S
C95 H97 0.973 . S
O96 C95 1.550 . S
O96 C102 1.412 . S
H97 C95 0.973 . S
C98 H91 0.929 . S
C98 C99 1.400 . S
C98 C100 1.364 . S
C99 C98 1.400 . S
C99 C103 1.377 . S
C100 C98 1.364 . S
C100 C101 1.374 . S
C101 H92 0.930 . S
C101 C100 1.374 . S
C101 C102 1.383 . S
C102 O96 1.412 . S
C102 C101 1.383 . S
C102 C103 1.394 . S
C103 H93 0.929 . S
C103 C99 1.377 . S
C103 C102 1.394 . S
C104 C106 1.422 . S
C104 C108 1.415 . S
C104 N110 1.369 . S
C105 C106 1.421 . S
C105 C107 1.417 . S
C105 C117 1.422 . S
C106 C104 1.422 . S
C106 C105 1.421 . S
C106 N116 1.359 . S
C107 C105 1.417 . S
C107 C109 1.329 . S
C107 H126 0.930 . S
C108 C104 1.415 . S
C108 C109 1.437 . S
C108 C112 1.413 . S
C109 C107 1.329 . S
C109 C108 1.437 . S
C109 H131 0.929 . S
N110 C104 1.369 . S
N110 C111 1.338 . S
N110 Gd115 2.622 . S
C111 N110 1.338 . S
C111 C113 1.378 . S
C111 H123 0.929 . S
C112 C108 1.413 . S
C112 C113 1.348 . S
C112 H128 0.931 . S
C113 C111 1.378 . S
C113 C112 1.348 . S
C113 H129 0.930 . S
Gd114 N134 2.622 . S
Gd114 N141 2.570 . S
Gd114 O148 2.353 . S
Gd114 O149 2.468 . S
Gd114 O150 2.427 . S
Gd114 O152 2.388 . S
Gd114 O153 2.386 . S
Gd114 O157 2.307 . S
Gd114 C167 2.805 . S
Gd115 N110 2.622 . S
Gd115 N116 2.570 . S
Gd115 O147 2.386 . S
Gd115 O151 2.307 1_655 S
Gd115 O154 2.353 1_655 S
Gd115 O155 2.468 . S
Gd115 O156 2.427 . S
Gd115 O158 2.388 . S
Gd115 C179 2.805 . S
N116 C106 1.359 . S
N116 Gd115 2.570 . S
N116 C118 1.343 . S
C117 C105 1.422 . S
C117 C119 1.321 . S
C117 H125 0.931 . S
C118 N116 1.343 . S
C118 C119 1.390 . S
C118 H120 0.931 . S
C119 C117 1.321 . S
C119 C118 1.390 . S
C119 H121 0.930 . S
H120 C118 0.931 . S
H121 C119 0.930 . S
H122 C145 0.931 . S
H123 C111 0.929 . S
H124 C146 0.930 . S
H125 C117 0.931 . S
H126 C107 0.930 . S
H127 C136 0.929 . S
H128 C112 0.931 . S
H129 C113 0.930 . S
H130 C168 0.930 . S
H131 C109 0.929 . S
H132 C137 0.931 . S
H133 C138 0.930 . S
N134 Gd114 2.622 . S
N134 C135 1.369 . S
N134 C136 1.338 . S
C135 N134 1.369 . S
C135 C139 1.415 . S
C135 C142 1.422 . S
C136 H127 0.929 . S
C136 N134 1.338 . S
C136 C138 1.378 . S
C137 H132 0.931 . S
C137 C138 1.348 . S
C137 C139 1.413 . S
C138 H133 0.930 . S
C138 C136 1.378 . S
C138 C137 1.348 . S
C139 C135 1.415 . S
C139 C137 1.413 . S
C139 C169 1.437 . S
H140 C169 0.929 . S
N141 Gd114 2.570 . S
N141 C142 1.359 . S
N141 C145 1.343 . S
C142 C135 1.422 . S
C142 N141 1.359 . S
C142 C144 1.421 . S
C143 C144 1.422 . S
C143 C146 1.321 . S
C143 H170 0.931 . S
C144 C142 1.421 . S
C144 C143 1.422 . S
C144 C168 1.417 . S
C145 H122 0.931 . S
C145 N141 1.343 . S
C145 C146 1.390 . S
C146 H124 0.930 . S
C146 C143 1.321 . S
C146 C145 1.390 . S
O147 Gd115 2.386 . S
O147 C159 1.265 . S
O148 Gd114 2.353 . S
O148 C159 1.242 1_455 S
O149 Gd114 2.468 . S
O149 C167 1.263 . S
O150 Gd114 2.427 . S
O150 C167 1.252 . S
O151 Gd115 2.307 1_455 S
O151 C160 1.261 . S
O152 Gd114 2.388 . S
O152 C160 1.252 . S
O153 Gd114 2.386 . S
O153 C171 1.265 . S
O154 Gd115 2.353 1_455 S
O154 C171 1.242 . S
O155 Gd115 2.468 . S
O155 C179 1.263 . S
O156 Gd115 2.427 . S
O156 C179 1.252 . S
O157 Gd114 2.307 . S
O157 C172 1.261 1_455 S
O158 Gd115 2.388 . S
O158 C172 1.252 . S
C159 O147 1.265 . S
C159 O148 1.242 1_655 S
C160 O151 1.261 . S
C160 O152 1.252 . S
C161 C164 1.394 . S
C161 C166 1.370 . S
C161 C167 1.500 . S
C162 C165 1.383 . S
C162 C166 1.395 . S
C163 C164 1.396 . S
C163 C165 1.365 . S
C163 H180 0.929 . S
C164 C161 1.394 . S
C164 C163 1.396 . S
C164 H181 0.930 . S
C165 C162 1.383 . S
C165 C163 1.365 . S
C165 H182 0.931 . S
C166 C161 1.370 . S
C166 C162 1.395 . S
C166 H183 0.930 . S
C167 Gd114 2.805 . S
C167 O149 1.263 . S
C167 O150 1.252 . S
C167 C161 1.500 . S
C168 H130 0.930 . S
C168 C144 1.417 . S
C168 C169 1.329 . S
C169 C139 1.437 . S
C169 H140 0.929 . S
C169 C168 1.329 . S
H170 C143 0.931 . S
C171 O153 1.265 . S
C171 O154 1.242 . S
C172 O157 1.261 1_655 S
C172 O158 1.252 . S
C173 C176 1.394 . S
C173 C178 1.370 . S
C173 C179 1.500 . S
C174 C177 1.383 . S
C174 C178 1.395 . S
C175 C176 1.396 . S
C175 C177 1.365 . S
C175 H184 0.929 . S
C176 C173 1.394 . S
C176 C175 1.396 . S
C176 H185 0.930 . S
C177 C174 1.383 . S
C177 C175 1.365 . S
C177 H186 0.931 . S
C178 C173 1.370 . S
C178 C174 1.395 . S
C178 H187 0.930 . S
C179 Gd115 2.805 . S
C179 O155 1.263 . S
C179 O156 1.252 . S
C179 C173 1.500 . S
H180 C163 0.929 . S
H181 C164 0.930 . S
H182 C165 0.931 . S
H183 C166 0.930 . S
H184 C175 0.929 . S
H185 C176 0.930 . S
H186 C177 0.931 . S
H187 C178 0.930 . S
C188 C190 1.422 . S
C188 C192 1.415 . S
C188 N194 1.369 . S
C189 C190 1.421 . S
C189 C191 1.417 . S
C189 C201 1.422 . S
C190 C188 1.422 . S
C190 C189 1.421 . S
C190 N200 1.359 . S
C191 C189 1.417 . S
C191 C193 1.329 . S
C191 H210 0.930 . S
C192 C188 1.415 . S
C192 C193 1.437 . S
C192 C196 1.413 . S
C193 C191 1.329 . S
C193 C192 1.437 . S
C193 H215 0.929 . S
N194 C188 1.369 . S
N194 C195 1.338 . S
N194 Gd199 2.622 . S
C195 N194 1.338 . S
C195 C197 1.378 . S
C195 H207 0.929 . S
C196 C192 1.413 . S
C196 C197 1.348 . S
C196 H212 0.931 . S
C197 C195 1.378 . S
C197 C196 1.348 . S
C197 H213 0.930 . S
Gd198 N218 2.622 . S
Gd198 N225 2.570 . S
Gd198 O232 2.353 . S
Gd198 O233 2.468 . S
Gd198 O234 2.427 . S
Gd198 O236 2.388 . S
Gd198 O237 2.386 . S
Gd198 O241 2.307 . S
Gd198 C251 2.805 . S
Gd199 N194 2.622 . S
Gd199 N200 2.570 . S
Gd199 O231 2.386 . S
Gd199 O235 2.307 . S
Gd199 O238 2.353 . S
Gd199 O239 2.468 . S
Gd199 O240 2.427 . S
Gd199 O242 2.388 . S
Gd199 C263 2.805 . S
N200 C190 1.359 . S
N200 Gd199 2.570 . S
N200 C202 1.343 . S
C201 C189 1.422 . S
C201 C203 1.321 . S
C201 H209 0.931 . S
C202 N200 1.343 . S
C202 C203 1.390 . S
C202 H204 0.931 . S
C203 C201 1.321 . S
C203 C202 1.390 . S
C203 H205 0.930 . S
H204 C202 0.931 . S
H205 C203 0.930 . S
H206 C229 0.931 . S
H207 C195 0.929 . S
H208 C230 0.930 . S
H209 C201 0.931 . S
H210 C191 0.930 . S
H211 C220 0.929 . S
H212 C196 0.931 . S
H213 C197 0.930 . S
H214 C252 0.930 . S
H215 C193 0.929 . S
H216 C221 0.931 . S
H217 C222 0.930 . S
N218 Gd198 2.622 . S
N218 C219 1.369 . S
N218 C220 1.338 . S
C219 N218 1.369 . S
C219 C223 1.415 . S
C219 C226 1.422 . S
C220 H211 0.929 . S
C220 N218 1.338 . S
C220 C222 1.378 . S
C221 H216 0.931 . S
C221 C222 1.348 . S
C221 C223 1.413 . S
C222 H217 0.930 . S
C222 C220 1.378 . S
C222 C221 1.348 . S
C223 C219 1.415 . S
C223 C221 1.413 . S
C223 C253 1.437 . S
H224 C253 0.929 . S
N225 Gd198 2.570 . S
N225 C226 1.359 . S
N225 C229 1.343 . S
C226 C219 1.422 . S
C226 N225 1.359 . S
C226 C228 1.421 . S
C227 C228 1.422 . S
C227 C230 1.321 . S
C227 H254 0.931 . S
C228 C226 1.421 . S
C228 C227 1.422 . S
C228 C252 1.417 . S
C229 H206 0.931 . S
C229 N225 1.343 . S
C229 C230 1.390 . S
C230 H208 0.930 . S
C230 C227 1.321 . S
C230 C229 1.390 . S
O231 Gd199 2.386 . S
O231 C243 1.265 . S
O232 Gd198 2.353 . S
O232 C243 1.242 . S
O233 Gd198 2.468 . S
O233 C251 1.263 . S
O234 Gd198 2.427 . S
O234 C251 1.252 . S
O235 Gd199 2.307 . S
O235 C244 1.261 . S
O236 Gd198 2.388 . S
O236 C244 1.252 . S
O237 Gd198 2.386 . S
O237 C255 1.265 . S
O238 Gd199 2.353 . S
O238 C255 1.242 . S
O239 Gd199 2.468 . S
O239 C263 1.263 . S
O240 Gd199 2.427 . S
O240 C263 1.252 . S
O241 Gd198 2.307 . S
O241 C256 1.261 . S
O242 Gd199 2.388 . S
O242 C256 1.252 . S
C243 O231 1.265 . S
C243 O232 1.242 . S
C244 O235 1.261 . S
C244 O236 1.252 . S
C245 C248 1.394 . S
C245 C250 1.370 . S
C245 C251 1.500 . S
C246 C249 1.383 . S
C246 C250 1.395 . S
C247 C248 1.396 . S
C247 C249 1.365 . S
C247 H264 0.929 . S
C248 C245 1.394 . S
C248 C247 1.396 . S
C248 H265 0.930 . S
C249 C246 1.383 . S
C249 C247 1.365 . S
C249 H266 0.931 . S
C250 C245 1.370 . S
C250 C246 1.395 . S
C250 H267 0.930 . S
C251 Gd198 2.805 . S
C251 O233 1.263 . S
C251 O234 1.252 . S
C251 C245 1.500 . S
C252 H214 0.930 . S
C252 C228 1.417 . S
C252 C253 1.329 . S
C253 C223 1.437 . S
C253 H224 0.929 . S
C253 C252 1.329 . S
H254 C227 0.931 . S
C255 O237 1.265 . S
C255 O238 1.242 . S
C256 O241 1.261 . S
C256 O242 1.252 . S
C257 C260 1.394 . S
C257 C262 1.370 . S
C257 C263 1.500 . S
C258 C261 1.383 . S
C258 C262 1.395 . S
C259 C260 1.396 . S
C259 C261 1.365 . S
C259 H268 0.929 . S
C260 C257 1.394 . S
C260 C259 1.396 . S
C260 H269 0.930 . S
C261 C258 1.383 . S
C261 C259 1.365 . S
C261 H270 0.931 . S
C262 C257 1.370 . S
C262 C258 1.395 . S
C262 H271 0.930 . S
C263 Gd199 2.805 . S
C263 O239 1.263 . S
C263 O240 1.252 . S
C263 C257 1.500 . S
H264 C247 0.929 . S
H265 C248 0.930 . S
H266 C249 0.931 . S
H267 C250 0.930 . S
H268 C259 0.929 . S
H269 C260 0.930 . S
H270 C261 0.931 . S
H271 C262 0.930 . S
C272 C274 1.422 . S
C272 C276 1.415 . S
C272 N278 1.369 . S
C273 C274 1.421 . S
C273 C275 1.417 . S
C273 C285 1.422 . S
C274 C272 1.422 . S
C274 C273 1.421 . S
C274 N284 1.359 . S
C275 C273 1.417 . S
C275 C277 1.329 . S
C275 H294 0.930 . S
C276 C272 1.415 . S
C276 C277 1.437 . S
C276 C280 1.413 . S
C277 C275 1.329 . S
C277 C276 1.437 . S
C277 H299 0.929 . S
N278 C272 1.369 . S
N278 C279 1.338 . S
N278 Gd283 2.622 . S
C279 N278 1.338 . S
C279 C281 1.378 . S
C279 H291 0.929 . S
C280 C276 1.413 . S
C280 C281 1.348 . S
C280 H296 0.931 . S
C281 C279 1.378 . S
C281 C280 1.348 . S
C281 H297 0.930 . S
Gd282 N302 2.622 . S
Gd282 N309 2.570 . S
Gd282 O316 2.353 . S
Gd282 O317 2.468 . S
Gd282 O318 2.427 . S
Gd282 O320 2.388 . S
Gd282 O321 2.386 . S
Gd282 O325 2.307 . S
Gd282 C335 2.805 . S
Gd283 N278 2.622 . S
Gd283 N284 2.570 . S
Gd283 O315 2.386 . S
Gd283 O319 2.307 1_655 S
Gd283 O322 2.353 1_655 S
Gd283 O323 2.468 . S
Gd283 O324 2.427 . S
Gd283 O326 2.388 . S
Gd283 C347 2.805 . S
N284 C274 1.359 . S
N284 Gd283 2.570 . S
N284 C286 1.343 . S
C285 C273 1.422 . S
C285 C287 1.321 . S
C285 H293 0.931 . S
C286 N284 1.343 . S
C286 C287 1.390 . S
C286 H288 0.931 . S
C287 C285 1.321 . S
C287 C286 1.390 . S
C287 H289 0.930 . S
H288 C286 0.931 . S
H289 C287 0.930 . S
H290 C313 0.931 . S
H291 C279 0.929 . S
H292 C314 0.930 . S
H293 C285 0.931 . S
H294 C275 0.930 . S
H295 C304 0.929 . S
H296 C280 0.931 . S
H297 C281 0.930 . S
H298 C336 0.930 . S
H299 C277 0.929 . S
H300 C305 0.931 . S
H301 C306 0.930 . S
N302 Gd282 2.622 . S
N302 C303 1.369 . S
N302 C304 1.338 . S
C303 N302 1.369 . S
C303 C307 1.415 . S
C303 C310 1.422 . S
C304 H295 0.929 . S
C304 N302 1.338 . S
C304 C306 1.378 . S
C305 H300 0.931 . S
C305 C306 1.348 . S
C305 C307 1.413 . S
C306 H301 0.930 . S
C306 C304 1.378 . S
C306 C305 1.348 . S
C307 C303 1.415 . S
C307 C305 1.413 . S
C307 C337 1.437 . S
H308 C337 0.929 . S
N309 Gd282 2.570 . S
N309 C310 1.359 . S
N309 C313 1.343 . S
C310 C303 1.422 . S
C310 N309 1.359 . S
C310 C312 1.421 . S
C311 C312 1.422 . S
C311 C314 1.321 . S
C311 H338 0.931 . S
C312 C310 1.421 . S
C312 C311 1.422 . S
C312 C336 1.417 . S
C313 H290 0.931 . S
C313 N309 1.343 . S
C313 C314 1.390 . S
C314 H292 0.930 . S
C314 C311 1.321 . S
C314 C313 1.390 . S
O315 Gd283 2.386 . S
O315 C327 1.265 . S
O316 Gd282 2.353 . S
O316 C327 1.242 1_455 S
O317 Gd282 2.468 . S
O317 C335 1.263 . S
O318 Gd282 2.427 . S
O318 C335 1.252 . S
O319 Gd283 2.307 1_455 S
O319 C328 1.261 . S
O320 Gd282 2.388 . S
O320 C328 1.252 . S
O321 Gd282 2.386 . S
O321 C339 1.265 . S
O322 Gd283 2.353 1_455 S
O322 C339 1.242 . S
O323 Gd283 2.468 . S
O323 C347 1.263 . S
O324 Gd283 2.427 . S
O324 C347 1.252 . S
O325 Gd282 2.307 . S
O325 C340 1.261 1_455 S
O326 Gd283 2.388 . S
O326 C340 1.252 . S
C327 O315 1.265 . S
C327 O316 1.242 1_655 S
C328 O319 1.261 . S
C328 O320 1.252 . S
C329 C332 1.394 . S
C329 C334 1.370 . S
C329 C335 1.500 . S
C330 C333 1.383 . S
C330 C334 1.395 . S
C331 C332 1.396 . S
C331 C333 1.365 . S
C331 H348 0.929 . S
C332 C329 1.394 . S
C332 C331 1.396 . S
C332 H349 0.930 . S
C333 C330 1.383 . S
C333 C331 1.365 . S
C333 H350 0.931 . S
C334 C329 1.370 . S
C334 C330 1.395 . S
C334 H351 0.930 . S
C335 Gd282 2.805 . S
C335 O317 1.263 . S
C335 O318 1.252 . S
C335 C329 1.500 . S
C336 H298 0.930 . S
C336 C312 1.417 . S
C336 C337 1.329 . S
C337 C307 1.437 . S
C337 H308 0.929 . S
C337 C336 1.329 . S
H338 C311 0.931 . S
C339 O321 1.265 . S
C339 O322 1.242 . S
C340 O325 1.261 1_655 S
C340 O326 1.252 . S
C341 C344 1.394 . S
C341 C346 1.370 . S
C341 C347 1.500 . S
C342 C345 1.383 . S
C342 C346 1.395 . S
C343 C344 1.396 . S
C343 C345 1.365 . S
C343 H352 0.929 . S
C344 C341 1.394 . S
C344 C343 1.396 . S
C344 H353 0.930 . S
C345 C342 1.383 . S
C345 C343 1.365 . S
C345 H354 0.931 . S
C346 C341 1.370 . S
C346 C342 1.395 . S
C346 H355 0.930 . S
C347 Gd283 2.805 . S
C347 O323 1.263 . S
C347 O324 1.252 . S
C347 C341 1.500 . S
H348 C331 0.929 . S
H349 C332 0.930 . S
H350 C333 0.931 . S
H351 C334 0.930 . S
H352 C343 0.929 . S
H353 C344 0.930 . S
H354 C345 0.931 . S
H355 C346 0.930 . S
C356 C358 1.422 . S
C356 C360 1.415 . S
C356 N362 1.369 . S
C357 C358 1.421 . S
C357 C359 1.417 . S
C357 C369 1.422 . S
C358 C356 1.422 . S
C358 C357 1.421 . S
C358 N368 1.359 . S
C359 C357 1.417 . S
C359 C361 1.329 . S
C359 H378 0.930 . S
C360 C356 1.415 . S
C360 C361 1.437 . S
C360 C364 1.413 . S
C361 C359 1.329 . S
C361 C360 1.437 . S
C361 H383 0.929 . S
N362 C356 1.369 . S
N362 C363 1.338 . S
N362 Gd367 2.622 . S
C363 N362 1.338 . S
C363 C365 1.378 . S
C363 H375 0.929 . S
C364 C360 1.413 . S
C364 C365 1.348 . S
C364 H380 0.931 . S
C365 C363 1.378 . S
C365 C364 1.348 . S
C365 H381 0.930 . S
Gd366 N386 2.622 . S
Gd366 N393 2.570 . S
Gd366 O400 2.353 . S
Gd366 O401 2.468 . S
Gd366 O402 2.427 . S
Gd366 O404 2.388 . S
Gd366 O405 2.386 . S
Gd366 O409 2.307 . S
Gd366 C419 2.805 . S
Gd367 N362 2.622 . S
Gd367 N368 2.570 . S
Gd367 O399 2.386 . S
Gd367 O403 2.307 . S
Gd367 O406 2.353 . S
Gd367 O407 2.468 . S
Gd367 O408 2.427 . S
Gd367 O410 2.388 . S
Gd367 C431 2.805 . S
N368 C358 1.359 . S
N368 Gd367 2.570 . S
N368 C370 1.343 . S
C369 C357 1.422 . S
C369 C371 1.321 . S
C369 H377 0.931 . S
C370 N368 1.343 . S
C370 C371 1.390 . S
C370 H372 0.931 . S
C371 C369 1.321 . S
C371 C370 1.390 . S
C371 H373 0.930 . S
H372 C370 0.931 . S
H373 C371 0.930 . S
H374 C397 0.931 . S
H375 C363 0.929 . S
H376 C398 0.930 . S
H377 C369 0.931 . S
H378 C359 0.930 . S
H379 C388 0.929 . S
H380 C364 0.931 . S
H381 C365 0.930 . S
H382 C420 0.930 . S
H383 C361 0.929 . S
H384 C389 0.931 . S
H385 C390 0.930 . S
N386 Gd366 2.622 . S
N386 C387 1.369 . S
N386 C388 1.338 . S
C387 N386 1.369 . S
C387 C391 1.415 . S
C387 C394 1.422 . S
C388 H379 0.929 . S
C388 N386 1.338 . S
C388 C390 1.378 . S
C389 H384 0.931 . S
C389 C390 1.348 . S
C389 C391 1.413 . S
C390 H385 0.930 . S
C390 C388 1.378 . S
C390 C389 1.348 . S
C391 C387 1.415 . S
C391 C389 1.413 . S
C391 C421 1.437 . S
H392 C421 0.929 . S
N393 Gd366 2.570 . S
N393 C394 1.359 . S
N393 C397 1.343 . S
C394 C387 1.422 . S
C394 N393 1.359 . S
C394 C396 1.421 . S
C395 C396 1.422 . S
C395 C398 1.321 . S
C395 H422 0.931 . S
C396 C394 1.421 . S
C396 C395 1.422 . S
C396 C420 1.417 . S
C397 H374 0.931 . S
C397 N393 1.343 . S
C397 C398 1.390 . S
C398 H376 0.930 . S
C398 C395 1.321 . S
C398 C397 1.390 . S
O399 Gd367 2.386 . S
O399 C411 1.265 . S
O400 Gd366 2.353 . S
O400 C411 1.242 . S
O401 Gd366 2.468 . S
O401 C419 1.263 . S
O402 Gd366 2.427 . S
O402 C419 1.252 . S
O403 Gd367 2.307 . S
O403 C412 1.261 . S
O404 Gd366 2.388 . S
O404 C412 1.252 . S
O405 Gd366 2.386 . S
O405 C423 1.265 . S
O406 Gd367 2.353 . S
O406 C423 1.242 . S
O407 Gd367 2.468 . S
O407 C431 1.263 . S
O408 Gd367 2.427 . S
O408 C431 1.252 . S
O409 Gd366 2.307 . S
O409 C424 1.261 . S
O410 Gd367 2.388 . S
O410 C424 1.252 . S
C411 O399 1.265 . S
C411 O400 1.242 . S
C412 O403 1.261 . S
C412 O404 1.252 . S
C413 C416 1.394 . S
C413 C418 1.370 . S
C413 C419 1.500 . S
C414 C417 1.383 . S
C414 C418 1.395 . S
C415 C416 1.396 . S
C415 C417 1.365 . S
C415 H432 0.929 . S
C416 C413 1.394 . S
C416 C415 1.396 . S
C416 H433 0.930 . S
C417 C414 1.383 . S
C417 C415 1.365 . S
C417 H434 0.931 . S
C418 C413 1.370 . S
C418 C414 1.395 . S
C418 H435 0.930 . S
C419 Gd366 2.805 . S
C419 O401 1.263 . S
C419 O402 1.252 . S
C419 C413 1.500 . S
C420 H382 0.930 . S
C420 C396 1.417 . S
C420 C421 1.329 . S
C421 C391 1.437 . S
C421 H392 0.929 . S
C421 C420 1.329 . S
H422 C395 0.931 . S
C423 O405 1.265 . S
C423 O406 1.242 . S
C424 O409 1.261 . S
C424 O410 1.252 . S
C425 C428 1.394 . S
C425 C430 1.370 . S
C425 C431 1.500 . S
C426 C429 1.383 . S
C426 C430 1.395 . S
C427 C428 1.396 . S
C427 C429 1.365 . S
C427 H436 0.929 . S
C428 C425 1.394 . S
C428 C427 1.396 . S
C428 H437 0.930 . S
C429 C426 1.383 . S
C429 C427 1.365 . S
C429 H438 0.931 . S
C430 C425 1.370 . S
C430 C426 1.395 . S
C430 H439 0.930 . S
C431 Gd367 2.805 . S
C431 O407 1.263 . S
C431 O408 1.252 . S
C431 C425 1.500 . S
H432 C415 0.929 . S
H433 C416 0.930 . S
H434 C417 0.931 . S
H435 C418 0.930 . S
H436 C427 0.929 . S
H437 C428 0.930 . S
H438 C429 0.931 . S
H439 C430 0.930 . S
C440 C441 1.349 . S
C440 C442 1.327 . S
C440 H465 0.950 . S
C441 C440 1.349 . S
C441 C457 1.349 . S
C442 C440 1.327 . S
C442 C461 1.429 . S
C442 H466 0.950 . S
C443 C460 1.574 1_565 S
C443 C462 1.368 . S
C443 H467 0.949 . S
H444 C448 0.949 . S
C445 C446 1.349 . S
C445 C447 1.327 . S
C445 H468 0.950 . S
C446 C445 1.349 . S
C446 C458 1.349 . S
C447 C445 1.327 . S
C447 C463 1.429 . S
C447 H469 0.950 . S
C448 H444 0.949 . S
C448 C456 1.574 . S
C448 C464 1.401 . S
H449 C457 0.950 . S
H450 C455 0.950 . S
H451 C456 0.949 . S
H452 C458 0.950 . S
H453 C459 0.950 1_565 S
H454 C460 0.949 . S
C455 H450 0.950 . S
C455 C457 1.327 . S
C455 C461 1.429 . S
C456 C448 1.574 . S
C456 H451 0.949 . S
C456 C462 1.368 . S
C457 C441 1.349 . S
C457 H449 0.950 . S
C457 C455 1.327 . S
C458 C446 1.349 . S
C458 H452 0.950 . S
C458 C459 1.327 . S
C459 H453 0.950 1_545 S
C459 C458 1.327 . S
C459 C463 1.429 . S
C460 C443 1.574 1_545 S
C460 H454 0.949 . S
C460 C464 1.355 1_545 S
C461 C442 1.429 . S
C461 C455 1.429 . S
C461 C462 1.523 . S
C462 C443 1.368 . S
C462 C456 1.368 . S
C462 C461 1.523 . S
C463 C447 1.429 . S
C463 C459 1.429 . S
C463 C464 1.499 1_545 S
C464 C448 1.401 . S
C464 C460 1.355 1_565 S
C464 C463 1.499 1_565 S
H465 C440 0.950 . S
H466 C442 0.950 . S
H467 C443 0.949 . S
H468 C445 0.950 . S
H469 C447 0.950 . S
C470 C471 1.349 . S
C470 C472 1.327 . S
C470 H495 0.950 . S
C471 C470 1.349 . S
C471 C487 1.349 . S
C472 C470 1.327 . S
C472 C491 1.429 . S
C472 H496 0.950 . S
C473 C490 1.574 . S
C473 C492 1.368 . S
C473 H497 0.949 . S
H474 C478 0.949 . S
C475 C476 1.349 . S
C475 C477 1.327 . S
C475 H498 0.950 . S
C476 C475 1.349 . S
C476 C488 1.349 . S
C477 C475 1.327 . S
C477 C493 1.429 . S
C477 H499 0.950 . S
C478 H474 0.949 . S
C478 C486 1.574 . S
C478 C494 1.368 . S
H479 C487 0.950 . S
H480 C485 0.950 . S
H481 C486 0.949 . S
H482 C488 0.950 . S
H483 C489 0.950 . S
H484 C490 0.949 . S
C485 H480 0.950 . S
C485 C487 1.327 . S
C485 C491 1.429 . S
C486 C478 1.574 . S
C486 H481 0.949 . S
C486 C492 1.368 . S
C487 C471 1.349 . S
C487 H479 0.950 . S
C487 C485 1.327 . S
C488 C476 1.349 . S
C488 H482 0.950 . S
C488 C489 1.327 . S
C489 H483 0.950 . S
C489 C488 1.327 . S
C489 C493 1.429 . S
C490 C473 1.574 . S
C490 H484 0.949 . S
C490 C494 1.368 . S
C491 C472 1.429 . S
C491 C485 1.429 . S
C491 C492 1.523 . S
C492 C473 1.368 . S
C492 C486 1.368 . S
C492 C491 1.523 . S
C493 C477 1.429 . S
C493 C489 1.429 . S
C493 C494 1.523 . S
C494 C478 1.368 . S
C494 C490 1.368 . S
C494 C493 1.523 . S
H495 C470 0.950 . S
H496 C472 0.950 . S
H497 C473 0.949 . S
H498 C475 0.950 . S
H499 C477 0.950 . S
C500 C501 1.349 . S
C500 C502 1.327 . S
C500 H525 0.950 . S
C501 C500 1.349 . S
C501 C517 1.349 . S
C502 C500 1.327 . S
C502 C521 1.429 . S
C502 H526 0.950 . S
C503 C520 1.574 . S
C503 C522 1.368 . S
C503 H527 0.949 . S
H504 C508 0.949 . S
C505 C506 1.349 . S
C505 C507 1.327 . S
C505 H528 0.950 . S
C506 C505 1.349 . S
C506 C518 1.349 . S
C507 C505 1.327 . S
C507 C523 1.429 . S
C507 H529 0.950 . S
C508 H504 0.949 . S
C508 C516 1.574 . S
C508 C524 1.368 . S
H509 C517 0.950 . S
H510 C515 0.950 . S
H511 C516 0.949 . S
H512 C518 0.950 . S
H513 C519 0.950 . S
H514 C520 0.949 . S
C515 H510 0.950 . S
C515 C517 1.327 . S
C515 C521 1.429 . S
C516 C508 1.574 . S
C516 H511 0.949 . S
C516 C522 1.368 . S
C517 C501 1.349 . S
C517 H509 0.950 . S
C517 C515 1.327 . S
C518 C506 1.349 . S
C518 H512 0.950 . S
C518 C519 1.327 . S
C519 H513 0.950 . S
C519 C518 1.327 . S
C519 C523 1.429 . S
C520 C503 1.574 . S
C520 H514 0.949 . S
C520 C524 1.368 . S
C521 C502 1.429 . S
C521 C515 1.429 . S
C521 C522 1.523 . S
C522 C503 1.368 . S
C522 C516 1.368 . S
C522 C521 1.523 . S
C523 C507 1.429 . S
C523 C519 1.429 . S
C523 C524 1.523 . S
C524 C508 1.368 . S
C524 C520 1.368 . S
C524 C523 1.523 . S
H525 C500 0.950 . S
H526 C502 0.950 . S
H527 C503 0.949 . S
H528 C505 0.950 . S
H529 C507 0.950 . S
C530 C531 1.349 . S
C530 C532 1.327 . S
C530 H555 0.950 . S
C531 C530 1.349 . S
C531 C547 1.349 . S
C532 C530 1.327 . S
C532 C551 1.429 . S
C532 H556 0.950 . S
C533 C550 1.574 . S
C533 C552 1.368 . S
C533 H557 0.949 . S
H534 C538 0.949 1_545 S
C535 C536 1.349 . S
C535 C537 1.327 . S
C535 H558 0.950 . S
C536 C535 1.349 . S
C536 C548 1.349 . S
C537 C535 1.327 . S
C537 C553 1.429 . S
C537 H559 0.950 . S
C538 H534 0.949 1_565 S
C538 C546 1.574 . S
C538 C554 1.368 . S
H539 C547 0.950 . S
H540 C545 0.950 . S
H541 C546 0.949 . S
H542 C548 0.950 . S
H543 C549 0.950 . S
H544 C550 0.949 . S
C545 H540 0.950 . S
C545 C547 1.327 . S
C545 C551 1.429 . S
C546 C538 1.574 . S
C546 H541 0.949 . S
C546 C552 1.368 . S
C547 C531 1.349 . S
C547 H539 0.950 . S
C547 C545 1.327 . S
C548 C536 1.349 . S
C548 H542 0.950 . S
C548 C549 1.327 . S
C549 H543 0.950 . S
C549 C548 1.327 . S
C549 C553 1.429 . S
C550 C533 1.574 . S
C550 H544 0.949 . S
C550 C554 1.368 . S
C551 C532 1.429 . S
C551 C545 1.429 . S
C551 C552 1.523 . S
C552 C533 1.368 . S
C552 C546 1.368 . S
C552 C551 1.523 . S
C553 C537 1.429 . S
C553 C549 1.429 . S
C553 C554 1.523 1_545 S
C554 C538 1.368 . S
C554 C550 1.368 . S
C554 C553 1.523 1_565 S
H555 C530 0.950 . S
H556 C532 0.950 . S
H557 C533 0.949 . S
H558 C535 0.950 . S
H559 C537 0.950 . S
C560 C561 1.349 . S
C560 C562 1.327 . S
C560 H585 0.950 . S
C561 C560 1.349 . S
C561 C577 1.349 . S
C562 C560 1.327 . S
C562 C581 1.429 . S
C562 H586 0.950 . S
C563 C580 1.574 . S
C563 C582 1.368 . S
C563 H587 0.949 . S
H564 C568 0.949 . S
C565 C566 1.349 . S
C565 C567 1.327 . S
C565 H588 0.950 . S
C566 C565 1.349 . S
C566 C578 1.349 . S
C567 C565 1.327 . S
C567 C583 1.429 . S
C567 H589 0.950 . S
C568 H564 0.949 . S
C568 C576 1.574 . S
C568 C584 1.368 . S
H569 C577 0.950 . S
H570 C575 0.950 . S
H571 C576 0.949 . S
H572 C578 0.950 . S
H573 C579 0.950 . S
H574 C580 0.949 . S
C575 H570 0.950 . S
C575 C577 1.327 . S
C575 C581 1.429 . S
C576 C568 1.574 . S
C576 H571 0.949 . S
C576 C582 1.368 . S
C577 C561 1.349 . S
C577 H569 0.950 . S
C577 C575 1.327 . S
C578 C566 1.349 . S
C578 H572 0.950 . S
C578 C579 1.327 . S
C579 H573 0.950 . S
C579 C578 1.327 . S
C579 C583 1.429 . S
C580 C563 1.574 . S
C580 H574 0.949 . S
C580 C584 1.368 . S
C581 C562 1.429 . S
C581 C575 1.429 . S
C581 C582 1.523 . S
C582 C563 1.368 . S
C582 C576 1.368 . S
C582 C581 1.523 . S
C583 C567 1.429 . S
C583 C579 1.429 . S
C583 C584 1.523 1_565 S
C584 C568 1.368 . S
C584 C580 1.368 . S
C584 C583 1.523 1_545 S
H585 C560 0.950 . S
H586 C562 0.950 . S
H587 C563 0.949 . S
H588 C565 0.950 . S
H589 C567 0.950 . S
C590 C591 1.349 . S
C590 C592 1.327 . S
C590 H615 0.950 . S
C591 C590 1.349 . S
C591 C607 1.349 . S
C592 C590 1.327 . S
C592 C611 1.429 . S
C592 H616 0.950 . S
C593 C610 1.574 . S
C593 C612 1.368 . S
C593 H617 0.949 . S
H594 C598 0.949 . S
C595 C596 1.349 . S
C595 C597 1.327 . S
C595 H618 0.950 . S
C596 C595 1.349 . S
C596 C608 1.349 . S
C597 C595 1.327 . S
C597 C613 1.429 . S
C597 H619 0.950 . S
C598 H594 0.949 . S
C598 C606 1.574 . S
C598 C614 1.368 . S
H599 C607 0.950 . S
H600 C605 0.950 . S
H601 C606 0.949 . S
H602 C608 0.950 . S
H603 C609 0.950 . S
H604 C610 0.949 . S
C605 H600 0.950 . S
C605 C607 1.327 . S
C605 C611 1.429 . S
C606 C598 1.574 . S
C606 H601 0.949 . S
C606 C612 1.368 . S
C607 C591 1.349 . S
C607 H599 0.950 . S
C607 C605 1.327 . S
C608 C596 1.349 . S
C608 H602 0.950 . S
C608 C609 1.327 . S
C609 H603 0.950 . S
C609 C608 1.327 . S
C609 C613 1.429 . S
C610 C593 1.574 . S
C610 H604 0.949 . S
C610 C614 1.368 . S
C611 C592 1.429 . S
C611 C605 1.429 . S
C611 C612 1.523 . S
C612 C593 1.368 . S
C612 C606 1.368 . S
C612 C611 1.523 . S
C613 C597 1.429 . S
C613 C609 1.429 . S
C613 C614 1.523 . S
C614 C598 1.368 . S
C614 C610 1.368 . S
C614 C613 1.523 . S
H615 C590 0.950 . S
H616 C592 0.950 . S
H617 C593 0.949 . S
H618 C595 0.950 . S
H619 C597 0.950 . S
C620 C621 1.349 . S
C620 C622 1.327 . S
C620 H645 0.950 . S
C621 C620 1.349 . S
C621 C637 1.349 . S
C622 C620 1.327 . S
C622 C641 1.429 . S
C622 H646 0.950 . S
C623 C640 1.574 . S
C623 C642 1.368 . S
C623 H647 0.949 . S
H624 C628 0.949 . S
C625 C626 1.349 . S
C625 C627 1.327 . S
C625 H648 0.950 . S
C626 C625 1.349 . S
C626 C638 1.349 . S
C627 C625 1.327 . S
C627 C643 1.429 . S
C627 H649 0.950 . S
C628 H624 0.949 . S
C628 C636 1.574 . S
C628 C644 1.368 . S
H629 C637 0.950 . S
H630 C635 0.950 . S
H631 C636 0.949 . S
H632 C638 0.950 . S
H633 C639 0.950 . S
H634 C640 0.949 . S
C635 H630 0.950 . S
C635 C637 1.327 . S
C635 C641 1.429 . S
C636 C628 1.574 . S
C636 H631 0.949 . S
C636 C642 1.368 . S
C637 C621 1.349 . S
C637 H629 0.950 . S
C637 C635 1.327 . S
C638 C626 1.349 . S
C638 H632 0.950 . S
C638 C639 1.327 . S
C639 H633 0.950 . S
C639 C638 1.327 . S
C639 C643 1.429 . S
C640 C623 1.574 . S
C640 H634 0.949 . S
C640 C644 1.368 . S
C641 C622 1.429 . S
C641 C635 1.429 . S
C641 C642 1.523 . S
C642 C623 1.368 . S
C642 C636 1.368 . S
C642 C641 1.523 . S
C643 C627 1.429 . S
C643 C639 1.429 . S
C643 C644 1.523 . S
C644 C628 1.368 . S
C644 C640 1.368 . S
C644 C643 1.523 . S
H645 C620 0.950 . S
H646 C622 0.950 . S
H647 C623 0.949 . S
H648 C625 0.950 . S
H649 C627 0.950 . S
C650 C651 1.349 . S
C650 C652 1.327 . S
C650 H675 0.950 . S
C651 C650 1.349 . S
C651 C667 1.349 . S
C652 C650 1.327 . S
C652 C671 1.429 . S
C652 H676 0.950 . S
C653 C670 1.574 . S
C653 C672 1.368 . S
C653 H677 0.949 . S
H654 C658 0.949 . S
C655 C656 1.349 . S
C655 C657 1.327 . S
C655 H678 0.950 . S
C656 C655 1.349 . S
C656 C668 1.349 . S
C657 C655 1.327 . S
C657 C673 1.429 . S
C657 H679 0.950 . S
C658 H654 0.949 . S
C658 C666 1.574 1_565 S
C658 C674 1.368 1_565 S
H659 C667 0.950 . S
H660 C665 0.950 . S
H661 C666 0.949 . S
H662 C668 0.950 . S
H663 C669 0.950 . S
H664 C670 0.949 . S
C665 H660 0.950 . S
C665 C667 1.327 . S
C665 C671 1.429 . S
C666 C658 1.574 1_545 S
C666 H661 0.949 . S
C666 C672 1.368 . S
C667 C651 1.349 . S
C667 H659 0.950 . S
C667 C665 1.327 . S
C668 C656 1.349 . S
C668 H662 0.950 . S
C668 C669 1.327 . S
C669 H663 0.950 . S
C669 C668 1.327 . S
C669 C673 1.429 . S
C670 C653 1.574 . S
C670 H664 0.949 . S
C670 C674 1.370 . S
C671 C652 1.429 . S
C671 C665 1.429 . S
C671 C672 1.523 . S
C672 C653 1.368 . S
C672 C666 1.368 . S
C672 C671 1.523 . S
C673 C657 1.429 . S
C673 C669 1.429 . S
C673 C674 1.521 1_565 S
C674 C658 1.368 1_545 S
C674 C670 1.370 . S
C674 C673 1.521 1_545 S
H675 C650 0.950 . S
H676 C652 0.950 . S
H677 C653 0.949 . S
H678 C655 0.950 . S
H679 C657 0.950 . S
C680 C681 1.349 . S
C680 C682 1.327 . S
C680 H705 0.950 . S
C681 C680 1.349 . S
C681 C697 1.349 . S
C682 C680 1.327 . S
C682 C701 1.429 . S
C682 H706 0.950 . S
C683 C700 1.574 . S
C683 C702 1.368 . S
C683 H707 0.949 . S
H684 C688 0.949 . S
C685 C686 1.349 . S
C685 C687 1.327 . S
C685 H708 0.950 . S
C686 C685 1.349 . S
C686 C698 1.349 . S
C687 C685 1.327 . S
C687 C703 1.429 . S
C687 H709 0.950 . S
C688 H684 0.949 . S
C688 C696 1.574 . S
C688 C704 1.368 . S
H689 C697 0.950 . S
H690 C695 0.950 . S
H691 C696 0.949 . S
H692 C698 0.950 . S
H693 C699 0.950 . S
H694 C700 0.949 . S
C695 H690 0.950 . S
C695 C697 1.327 . S
C695 C701 1.429 . S
C696 C688 1.574 . S
C696 H691 0.949 . S
C696 C702 1.368 . S
C697 C681 1.349 . S
C697 H689 0.950 . S
C697 C695 1.327 . S
C698 C686 1.349 . S
C698 H692 0.950 . S
C698 C699 1.327 . S
C699 H693 0.950 . S
C699 C698 1.327 . S
C699 C703 1.429 . S
C700 C683 1.574 . S
C700 H694 0.949 . S
C700 C704 1.368 . S
C701 C682 1.429 . S
C701 C695 1.429 . S
C701 C702 1.523 1_556 S
C702 C683 1.368 . S
C702 C696 1.368 . S
C702 C701 1.523 1_554 S
C703 C687 1.429 . S
C703 C699 1.429 . S
C703 C704 1.523 . S
C704 C688 1.368 . S
C704 C700 1.368 . S
C704 C703 1.523 . S
H705 C680 0.950 . S
H706 C682 0.950 . S
H707 C683 0.949 . S
H708 C685 0.950 . S
H709 C687 0.950 . S
C710 C711 1.349 . S
C710 C712 1.327 . S
C710 H735 0.950 . S
C711 C710 1.349 . S
C711 C727 1.349 . S
C712 C710 1.327 . S
C712 C731 1.429 . S
C712 H736 0.950 . S
C713 C730 1.574 . S
C713 C732 1.368 . S
C713 H737 0.949 . S
H714 C718 0.949 . S
C715 C716 1.349 . S
C715 C717 1.327 . S
C715 H738 0.950 . S
C716 C715 1.349 . S
C716 C728 1.349 . S
C717 C715 1.327 . S
C717 C733 1.429 . S
C717 H739 0.950 . S
C718 H714 0.949 . S
C718 C726 1.574 . S
C718 C734 1.368 . S
H719 C727 0.950 . S
H720 C725 0.950 . S
H721 C726 0.949 . S
H722 C728 0.950 . S
H723 C729 0.950 . S
H724 C730 0.949 . S
C725 H720 0.950 . S
C725 C727 1.327 . S
C725 C731 1.429 . S
C726 C718 1.574 . S
C726 H721 0.949 . S
C726 C732 1.368 . S
C727 C711 1.349 . S
C727 H719 0.950 . S
C727 C725 1.327 . S
C728 C716 1.349 . S
C728 H722 0.950 . S
C728 C729 1.327 . S
C729 H723 0.950 . S
C729 C728 1.327 . S
C729 C733 1.429 . S
C730 C713 1.574 . S
C730 H724 0.949 . S
C730 C734 1.368 . S
C731 C712 1.429 . S
C731 C725 1.429 . S
C731 C732 1.523 . S
C732 C713 1.368 . S
C732 C726 1.368 . S
C732 C731 1.523 . S
C733 C717 1.429 . S
C733 C729 1.429 . S
C733 C734 1.523 . S
C734 C718 1.368 . S
C734 C730 1.368 . S
C734 C733 1.523 . S
H735 C710 0.950 . S
H736 C712 0.950 . S
H737 C713 0.949 . S
H738 C715 0.950 . S
H739 C717 0.950 . S
C740 C741 1.349 . S
C740 C742 1.327 . S
C740 H765 0.950 . S
C741 C740 1.349 . S
C741 C757 1.349 . S
C742 C740 1.327 . S
C742 C761 1.429 . S
C742 H766 0.950 . S
C743 C760 1.574 . S
C743 C762 1.368 . S
C743 H767 0.949 . S
H744 C748 0.949 . S
C745 C746 1.349 . S
C745 C747 1.327 . S
C745 H768 0.950 . S
C746 C745 1.349 . S
C746 C758 1.349 . S
C747 C745 1.327 . S
C747 C763 1.429 . S
C747 H769 0.950 . S
C748 H744 0.949 . S
C748 C756 1.574 . S
C748 C764 1.368 . S
H749 C757 0.950 . S
H750 C755 0.950 . S
H751 C756 0.949 . S
H752 C758 0.950 . S
H753 C759 0.950 . S
H754 C760 0.949 . S
C755 H750 0.950 . S
C755 C757 1.327 . S
C755 C761 1.429 . S
C756 C748 1.574 . S
C756 H751 0.949 . S
C756 C762 1.368 . S
C757 C741 1.349 . S
C757 H749 0.950 . S
C757 C755 1.327 . S
C758 C746 1.349 . S
C758 H752 0.950 . S
C758 C759 1.327 . S
C759 H753 0.950 . S
C759 C758 1.327 . S
C759 C763 1.429 . S
C760 C743 1.574 . S
C760 H754 0.949 . S
C760 C764 1.368 . S
C761 C742 1.429 . S
C761 C755 1.429 . S
C761 C762 1.523 1_554 S
C762 C743 1.368 . S
C762 C756 1.368 . S
C762 C761 1.523 1_556 S
C763 C747 1.429 . S
C763 C759 1.429 . S
C763 C764 1.523 . S
C764 C748 1.368 . S
C764 C760 1.368 . S
C764 C763 1.523 . S
H765 C740 0.950 . S
H766 C742 0.950 . S
H767 C743 0.949 . S
H768 C745 0.950 . S
H769 C747 0.950 . S
C770 C771 1.349 . S
C770 C772 1.327 . S
C770 H795 0.950 . S
C771 C770 1.349 . S
C771 C787 1.349 . S
C772 C770 1.327 . S
C772 C791 1.429 . S
C772 H796 0.950 . S
C773 C790 1.574 . S
C773 C792 1.368 . S
C773 H797 0.949 . S
H774 C778 0.949 . S
C775 C776 1.349 . S
C775 C777 1.327 . S
C775 H798 0.950 . S
C776 C775 1.349 . S
C776 C788 1.349 . S
C777 C775 1.327 . S
C777 C793 1.429 . S
C777 H799 0.950 . S
C778 H774 0.949 . S
C778 C786 1.574 . S
C778 C794 1.368 . S
H779 C787 0.950 . S
H780 C785 0.950 . S
H781 C786 0.949 . S
H782 C788 0.950 . S
H783 C789 0.950 . S
H784 C790 0.949 . S
C785 H780 0.950 . S
C785 C787 1.327 . S
C785 C791 1.429 . S
C786 C778 1.574 . S
C786 H781 0.949 . S
C786 C792 1.368 . S
C787 C771 1.349 . S
C787 H779 0.950 . S
C787 C785 1.327 . S
C788 C776 1.349 . S
C788 H782 0.950 . S
C788 C789 1.327 . S
C789 H783 0.950 . S
C789 C788 1.327 . S
C789 C793 1.429 . S
C790 C773 1.574 . S
C790 H784 0.949 . S
C790 C794 1.368 . S
C791 C772 1.429 . S
C791 C785 1.429 . S
C791 C792 1.523 . S
C792 C773 1.368 . S
C792 C786 1.368 . S
C792 C791 1.523 . S
C793 C777 1.429 . S
C793 C789 1.429 . S
C793 C794 1.523 . S
C794 C778 1.368 . S
C794 C790 1.368 . S
C794 C793 1.523 . S
H795 C770 0.950 . S
H796 C772 0.950 . S
H797 C773 0.949 . S
H798 C775 0.950 . S
H799 C777 0.950 . S
C800 C801 1.349 . S
C800 C802 1.327 . S
C800 H825 0.950 . S
C801 C800 1.349 . S
C801 C817 1.349 . S
C802 C800 1.327 . S
C802 C821 1.429 . S
C802 H826 0.950 . S
C803 C820 1.574 . S
C803 C822 1.368 . S
C803 H827 0.949 . S
H804 C808 0.949 . S
C805 C806 1.349 . S
C805 C807 1.327 . S
C805 H828 0.950 . S
C806 C805 1.349 . S
C806 C818 1.349 . S
C807 C805 1.327 . S
C807 C823 1.429 . S
C807 H829 0.950 . S
C808 H804 0.949 . S
C808 C816 1.574 . S
C808 C824 1.368 . S
H809 C817 0.950 . S
H810 C815 0.950 1_556 S
H811 C816 0.949 . S
H812 C818 0.950 . S
H813 C819 0.950 . S
H814 C820 0.949 . S
C815 H810 0.950 1_554 S
C815 C817 1.327 . S
C815 C821 1.429 . S
C816 C808 1.574 . S
C816 H811 0.949 . S
C816 C822 1.368 . S
C817 C801 1.349 . S
C817 H809 0.950 . S
C817 C815 1.327 . S
C818 C806 1.349 . S
C818 H812 0.950 . S
C818 C819 1.327 . S
C819 H813 0.950 . S
C819 C818 1.327 . S
C819 C823 1.429 . S
C820 C803 1.574 . S
C820 H814 0.949 . S
C820 C824 1.368 . S
C821 C802 1.429 . S
C821 C815 1.429 . S
C821 C822 1.523 1_554 S
C822 C803 1.368 . S
C822 C816 1.368 . S
C822 C821 1.523 1_556 S
C823 C807 1.429 . S
C823 C819 1.429 . S
C823 C824 1.523 . S
C824 C808 1.368 . S
C824 C820 1.368 . S
C824 C823 1.523 . S
H825 C800 0.950 . S
H826 C802 0.950 . S
H827 C803 0.949 . S
H828 C805 0.950 . S
H829 C807 0.950 . S
C830 C831 1.349 . S
C830 C832 1.327 . S
C830 H855 0.950 . S
C831 C830 1.349 . S
C831 C847 1.349 . S
C832 C830 1.327 . S
C832 C851 1.429 . S
C832 H856 0.950 . S
C833 C850 1.574 . S
C833 C852 1.368 . S
C833 H857 0.949 . S
H834 C838 0.949 . S
C835 C836 1.349 . S
C835 C837 1.327 . S
C835 H858 0.950 . S
C836 C835 1.349 . S
C836 C848 1.349 . S
C837 C835 1.327 . S
C837 C853 1.429 . S
C837 H859 0.950 . S
C838 H834 0.949 . S
C838 C846 1.574 . S
C838 C854 1.368 . S
H839 C847 0.950 . S
H840 C845 0.950 . S
H841 C846 0.949 . S
H842 C848 0.950 . S
H843 C849 0.950 . S
H844 C850 0.949 . S
C845 H840 0.950 . S
C845 C847 1.327 . S
C845 C851 1.429 . S
C846 C838 1.574 . S
C846 H841 0.949 . S
C846 C852 1.368 . S
C847 C831 1.349 . S
C847 H839 0.950 . S
C847 C845 1.327 . S
C848 C836 1.349 . S
C848 H842 0.950 . S
C848 C849 1.327 . S
C849 H843 0.950 . S
C849 C848 1.327 . S
C849 C853 1.429 . S
C850 C833 1.574 . S
C850 H844 0.949 . S
C850 C854 1.368 . S
C851 C832 1.429 . S
C851 C845 1.429 . S
C851 C852 1.523 . S
C852 C833 1.368 . S
C852 C846 1.368 . S
C852 C851 1.523 . S
C853 C837 1.429 . S
C853 C849 1.429 . S
C853 C854 1.523 . S
C854 C838 1.368 . S
C854 C850 1.368 . S
C854 C853 1.523 . S
H855 C830 0.950 . S
H856 C832 0.950 . S
H857 C833 0.949 . S
H858 C835 0.950 . S
H859 C837 0.950 . S
C860 C861 1.349 . S
C860 C862 1.327 . S
C860 H885 0.950 . S
C861 C860 1.349 . S
C861 C877 1.349 . S
C862 C860 1.327 . S
C862 C881 1.429 . S
C862 H886 0.950 . S
C863 C880 1.574 . S
C863 C882 1.368 . S
C863 H887 0.949 . S
H864 C868 0.949 . S
C865 C866 1.349 . S
C865 C867 1.327 . S
C865 H888 0.950 . S
C866 C865 1.349 . S
C866 C878 1.349 . S
C867 C865 1.327 . S
C867 C883 1.429 . S
C867 H889 0.950 . S
C868 H864 0.949 . S
C868 C876 1.574 . S
C868 C884 1.368 . S
H869 C877 0.950 . S
H870 C875 0.950 1_554 S
H871 C876 0.949 . S
H872 C878 0.950 . S
H873 C879 0.950 . S
H874 C880 0.949 . S
C875 H870 0.950 1_556 S
C875 C877 1.327 . S
C875 C881 1.429 . S
C876 C868 1.574 . S
C876 H871 0.949 . S
C876 C882 1.368 . S
C877 C861 1.349 . S
C877 H869 0.950 . S
C877 C875 1.327 . S
C878 C866 1.349 . S
C878 H872 0.950 . S
C878 C879 1.327 . S
C879 H873 0.950 . S
C879 C878 1.327 . S
C879 C883 1.429 . S
C880 C863 1.574 . S
C880 H874 0.949 . S
C880 C884 1.368 . S
C881 C862 1.429 . S
C881 C875 1.429 . S
C881 C882 1.523 1_556 S
C882 C863 1.368 . S
C882 C876 1.368 . S
C882 C881 1.523 1_554 S
C883 C867 1.429 . S
C883 C879 1.429 . S
C883 C884 1.523 . S
C884 C868 1.368 . S
C884 C880 1.368 . S
C884 C883 1.523 . S
H885 C860 0.950 . S
H886 C862 0.950 . S
H887 C863 0.949 . S
H888 C865 0.950 . S
H889 C867 0.950 . S
C890 C891 1.349 . S
C890 C892 1.327 . S
C890 H915 0.950 . S
C891 C890 1.349 . S
C891 C907 1.349 . S
C892 C890 1.327 . S
C892 C911 1.429 . S
C892 H916 0.950 . S
C893 C910 1.574 . S
C893 C912 1.368 . S
C893 H917 0.949 . S
H894 C898 0.949 . S
C895 C896 1.349 . S
C895 C897 1.327 . S
C895 H918 0.950 . S
C896 C895 1.349 . S
C896 C908 1.349 . S
C897 C895 1.327 . S
C897 C913 1.429 . S
C897 H919 0.950 . S
C898 H894 0.949 . S
C898 C906 1.574 . S
C898 C914 1.368 . S
H899 C907 0.950 . S
H900 C905 0.950 . S
H901 C906 0.949 . S
H902 C908 0.950 . S
H903 C909 0.950 . S
H904 C910 0.949 . S
C905 H900 0.950 . S
C905 C907 1.327 . S
C905 C911 1.429 . S
C906 C898 1.574 . S
C906 H901 0.949 . S
C906 C912 1.368 . S
C907 C891 1.349 . S
C907 H899 0.950 . S
C907 C905 1.327 . S
C908 C896 1.349 . S
C908 H902 0.950 . S
C908 C909 1.327 . S
C909 H903 0.950 . S
C909 C908 1.327 . S
C909 C913 1.429 . S
C910 C893 1.574 . S
C910 H904 0.949 . S
C910 C914 1.368 . S
C911 C892 1.429 . S
C911 C905 1.429 . S
C911 C912 1.523 . S
C912 C893 1.368 . S
C912 C906 1.368 . S
C912 C911 1.523 . S
C913 C897 1.429 . S
C913 C909 1.429 . S
C913 C914 1.523 . S
C914 C898 1.368 . S
C914 C910 1.368 . S
C914 C913 1.523 . S
H915 C890 0.950 . S
H916 C892 0.950 . S
H917 C893 0.949 . S
H918 C895 0.950 . S
H919 C897 0.950 . S
C920 C921 1.349 . S
C920 C922 1.327 . S
C920 H945 0.950 . S
C921 C920 1.349 . S
C921 C937 1.349 . S
C922 C920 1.327 . S
C922 C941 1.429 . S
C922 H946 0.950 . S
C923 C940 1.574 . S
C923 C942 1.368 . S
C923 H947 0.949 . S
H924 C928 0.949 . S
C925 C926 1.349 . S
C925 C927 1.327 . S
C925 H948 0.950 . S
C926 C925 1.349 . S
C926 C938 1.349 . S
C927 C925 1.327 . S
C927 C943 1.429 . S
C927 H949 0.950 . S
C928 H924 0.949 . S
C928 C936 1.574 . S
C928 C944 1.368 . S
H929 C937 0.950 . S
H930 C935 0.950 . S
H931 C936 0.949 . S
H932 C938 0.950 . S
H933 C939 0.950 . S
H934 C940 0.949 . S
C935 H930 0.950 . S
C935 C937 1.327 . S
C935 C941 1.429 . S
C936 C928 1.574 . S
C936 H931 0.949 . S
C936 C942 1.368 . S
C937 C921 1.349 . S
C937 H929 0.950 . S
C937 C935 1.327 . S
C938 C926 1.349 . S
C938 H932 0.950 . S
C938 C939 1.327 . S
C939 H933 0.950 . S
C939 C938 1.327 . S
C939 C943 1.429 . S
C940 C923 1.574 . S
C940 H934 0.949 . S
C940 C944 1.368 . S
C941 C922 1.429 . S
C941 C935 1.429 . S
C941 C942 1.523 . S
C942 C923 1.368 . S
C942 C936 1.368 . S
C942 C941 1.523 . S
C943 C927 1.429 . S
C943 C939 1.429 . S
C943 C944 1.523 . S
C944 C928 1.368 . S
C944 C940 1.368 . S
C944 C943 1.523 . S
H945 C920 0.950 . S
H946 C922 0.950 . S
H947 C923 0.949 . S
H948 C925 0.950 . S
H949 C927 0.950 . S
C950 C951 1.349 . S
C950 C952 1.327 . S
C950 H975 0.950 . S
C951 C950 1.349 . S
C951 C967 1.349 . S
C952 C950 1.327 . S
C952 C971 1.429 . S
C952 H976 0.950 . S
C953 C970 1.574 . S
C953 C972 1.368 . S
C953 H977 0.949 . S
H954 C958 0.949 . S
C955 C956 1.349 . S
C955 C957 1.327 . S
C955 H978 0.950 . S
C956 C955 1.349 . S
C956 C968 1.349 . S
C957 C955 1.327 . S
C957 C973 1.429 . S
C957 H979 0.950 . S
C958 H954 0.949 . S
C958 C966 1.574 . S
C958 C974 1.368 . S
H959 C967 0.950 . S
H960 C965 0.950 . S
H961 C966 0.949 . S
H962 C968 0.950 . S
H963 C969 0.950 . S
H964 C970 0.949 . S
C965 H960 0.950 . S
C965 C967 1.327 . S
C965 C971 1.429 . S
C966 C958 1.574 . S
C966 H961 0.949 . S
C966 C972 1.368 . S
C967 C951 1.349 . S
C967 H959 0.950 . S
C967 C965 1.327 . S
C968 C956 1.349 . S
C968 H962 0.950 . S
C968 C969 1.327 . S
C969 H963 0.950 . S
C969 C968 1.327 . S
C969 C973 1.429 . S
C970 C953 1.574 . S
C970 H964 0.949 . S
C970 C974 1.368 . S
C971 C952 1.429 . S
C971 C965 1.429 . S
C971 C972 1.523 . S
C972 C953 1.368 . S
C972 C966 1.368 . S
C972 C971 1.523 . S
C973 C957 1.429 . S
C973 C969 1.429 . S
C973 C974 1.523 . S
C974 C958 1.368 . S
C974 C970 1.368 . S
C974 C973 1.523 . S
H975 C950 0.950 . S
H976 C952 0.950 . S
H977 C953 0.949 . S
H978 C955 0.950 . S
H979 C957 0.950 . S
C980 C981 1.349 . S
C980 C982 1.327 . S
C980 H1005 0.950 . S
C981 C980 1.349 . S
C981 C997 1.349 . S
C982 C980 1.327 . S
C982 C1001 1.429 . S
C982 H1006 0.950 . S
C983 C1000 1.574 . S
C983 C1002 1.368 . S
C983 H1007 0.949 . S
H984 C988 0.949 . S
C985 C986 1.349 . S
C985 C987 1.327 . S
C985 H1008 0.950 . S
C986 C985 1.349 . S
C986 C998 1.349 . S
C987 C985 1.327 . S
C987 C1003 1.429 . S
C987 H1009 0.950 . S
C988 H984 0.949 . S
C988 C996 1.574 . S
C988 C1004 1.368 . S
H989 C997 0.950 . S
H990 C995 0.950 . S
H991 C996 0.949 . S
H992 C998 0.950 . S
H993 C999 0.950 . S
H994 C1000 0.949 . S
C995 H990 0.950 . S
C995 C997 1.327 . S
C995 C1001 1.429 . S
C996 C988 1.574 . S
C996 H991 0.949 . S
C996 C1002 1.368 . S
C997 C981 1.349 . S
C997 H989 0.950 . S
C997 C995 1.327 . S
C998 C986 1.349 . S
C998 H992 0.950 . S
C998 C999 1.327 . S
C999 H993 0.950 . S
C999 C998 1.327 . S
C999 C1003 1.429 . S
C1000 C983 1.574 . S
C1000 H994 0.949 . S
C1000 C1004 1.368 . S
C1001 C982 1.429 . S
C1001 C995 1.429 . S
C1001 C1002 1.523 . S
C1002 C983 1.368 . S
C1002 C996 1.368 . S
C1002 C1001 1.523 . S
C1003 C987 1.429 . S
C1003 C999 1.429 . S
C1003 C1004 1.523 . S
C1004 C988 1.368 . S
C1004 C1000 1.368 . S
C1004 C1003 1.523 . S
H1005 C980 0.950 . S
H1006 C982 0.950 . S
H1007 C983 0.949 . S
H1008 C985 0.950 . S
H1009 C987 0.950 . S
C1010 C1011 1.349 . S
C1010 C1012 1.327 . S
C1010 H1035 0.950 . S
C1011 C1010 1.349 . S
C1011 C1027 1.349 . S
C1012 C1010 1.327 . S
C1012 C1031 1.429 . S
C1012 H1036 0.950 . S
C1013 C1030 1.574 . S
C1013 C1032 1.368 . S
C1013 H1037 0.949 . S
H1014 C1018 0.949 . S
C1015 C1016 1.349 . S
C1015 C1017 1.327 . S
C1015 H1038 0.950 . S
C1016 C1015 1.349 . S
C1016 C1028 1.349 . S
C1017 C1015 1.327 . S
C1017 C1033 1.429 . S
C1017 H1039 0.950 . S
C1018 H1014 0.949 . S
C1018 C1026 1.574 . S
C1018 C1034 1.368 . S
H1019 C1027 0.950 . S
H1020 C1025 0.950 . S
H1021 C1026 0.949 . S
H1022 C1028 0.950 . S
H1023 C1029 0.950 . S
H1024 C1030 0.949 . S
C1025 H1020 0.950 . S
C1025 C1027 1.327 . S
C1025 C1031 1.429 . S
C1026 C1018 1.574 . S
C1026 H1021 0.949 . S
C1026 C1032 1.368 . S
C1027 C1011 1.349 . S
C1027 H1019 0.950 . S
C1027 C1025 1.327 . S
C1028 C1016 1.349 . S
C1028 H1022 0.950 . S
C1028 C1029 1.327 . S
C1029 H1023 0.950 . S
C1029 C1028 1.327 . S
C1029 C1033 1.429 . S
C1030 C1013 1.574 . S
C1030 H1024 0.949 . S
C1030 C1034 1.368 . S
C1031 C1012 1.429 . S
C1031 C1025 1.429 . S
C1031 C1032 1.523 . S
C1032 C1013 1.368 . S
C1032 C1026 1.368 . S
C1032 C1031 1.523 . S
C1033 C1017 1.429 . S
C1033 C1029 1.429 . S
C1033 C1034 1.523 . S
C1034 C1018 1.368 . S
C1034 C1030 1.368 . S
C1034 C1033 1.523 . S
H1035 C1010 0.950 . S
H1036 C1012 0.950 . S
H1037 C1013 0.949 . S
H1038 C1015 0.950 . S
H1039 C1017 0.950 . S
C1040 C1041 1.349 . S
C1040 C1042 1.327 . S
C1040 H1065 0.950 . S
C1041 C1040 1.349 . S
C1041 C1057 1.349 . S
C1042 C1040 1.327 . S
C1042 C1061 1.429 . S
C1042 H1066 0.950 . S
C1043 C1060 1.574 . S
C1043 C1062 1.368 . S
C1043 H1067 0.949 . S
H1044 C1048 0.949 . S
C1045 C1046 1.349 . S
C1045 C1047 1.327 . S
C1045 H1068 0.950 1_655 S
C1046 C1045 1.349 . S
C1046 C1058 1.349 . S
C1047 C1045 1.327 . S
C1047 C1063 1.429 . S
C1047 H1069 0.950 . S
C1048 H1044 0.949 . S
C1048 C1056 1.574 . S
C1048 C1064 1.368 . S
H1049 C1057 0.950 . S
H1050 C1055 0.950 . S
H1051 C1056 0.949 . S
H1052 C1058 0.950 . S
H1053 C1059 0.950 . S
H1054 C1060 0.949 . S
C1055 H1050 0.950 . S
C1055 C1057 1.327 . S
C1055 C1061 1.429 . S
C1056 C1048 1.574 . S
C1056 H1051 0.949 . S
C1056 C1062 1.368 . S
C1057 C1041 1.349 . S
C1057 H1049 0.950 . S
C1057 C1055 1.327 . S
C1058 C1046 1.349 . S
C1058 H1052 0.950 . S
C1058 C1059 1.327 . S
C1059 H1053 0.950 . S
C1059 C1058 1.327 . S
C1059 C1063 1.429 . S
C1060 C1043 1.574 . S
C1060 H1054 0.949 . S
C1060 C1064 1.368 . S
C1061 C1042 1.429 . S
C1061 C1055 1.429 . S
C1061 C1062 1.523 . S
C1062 C1043 1.368 . S
C1062 C1056 1.368 . S
C1062 C1061 1.523 . S
C1063 C1047 1.429 . S
C1063 C1059 1.429 . S
C1063 C1064 1.523 . S
C1064 C1048 1.368 . S
C1064 C1060 1.368 . S
C1064 C1063 1.523 . S
H1065 C1040 0.950 . S
H1066 C1042 0.950 . S
H1067 C1043 0.949 . S
H1068 C1045 0.950 1_455 S
H1069 C1047 0.950 . S
C1070 C1071 1.349 . S
C1070 C1072 1.327 . S
C1070 H1095 0.950 . S
C1071 C1070 1.349 . S
C1071 C1087 1.349 . S
C1072 C1070 1.327 . S
C1072 C1091 1.429 . S
C1072 H1096 0.950 . S
C1073 C1090 1.574 . S
C1073 C1092 1.368 . S
C1073 H1097 0.949 . S
H1074 C1078 0.949 . S
C1075 C1076 1.349 . S
C1075 C1077 1.327 . S
C1075 H1098 0.950 . S
C1076 C1075 1.349 . S
C1076 C1088 1.349 . S
C1077 C1075 1.327 . S
C1077 C1093 1.429 . S
C1077 H1099 0.950 . S
C1078 H1074 0.949 . S
C1078 C1086 1.574 . S
C1078 C1094 1.368 . S
H1079 C1087 0.950 . S
H1080 C1085 0.950 . S
H1081 C1086 0.949 . S
H1082 C1088 0.950 . S
H1083 C1089 0.950 . S
H1084 C1090 0.949 . S
C1085 H1080 0.950 . S
C1085 C1087 1.327 . S
C1085 C1091 1.429 . S
C1086 C1078 1.574 . S
C1086 H1081 0.949 . S
C1086 C1092 1.368 . S
C1087 C1071 1.349 . S
C1087 H1079 0.950 . S
C1087 C1085 1.327 . S
C1088 C1076 1.349 . S
C1088 H1082 0.950 . S
C1088 C1089 1.327 . S
C1089 H1083 0.950 . S
C1089 C1088 1.327 . S
C1089 C1093 1.429 . S
C1090 C1073 1.574 . S
C1090 H1084 0.949 . S
C1090 C1094 1.368 . S
C1091 C1072 1.429 . S
C1091 C1085 1.429 . S
C1091 C1092 1.523 . S
C1092 C1073 1.368 . S
C1092 C1086 1.368 . S
C1092 C1091 1.523 . S
C1093 C1077 1.429 . S
C1093 C1089 1.429 . S
C1093 C1094 1.523 . S
C1094 C1078 1.368 . S
C1094 C1090 1.368 . S
C1094 C1093 1.523 . S
H1095 C1070 0.950 . S
H1096 C1072 0.950 . S
H1097 C1073 0.949 . S
H1098 C1075 0.950 . S
H1099 C1077 0.950 . S
C1100 C1101 1.349 . S
C1100 C1102 1.327 . S
C1100 H1125 0.950 . S
C1101 C1100 1.349 . S
C1101 C1117 1.349 . S
C1102 C1100 1.327 . S
C1102 C1121 1.429 . S
C1102 H1126 0.950 . S
C1103 C1120 1.574 . S
C1103 C1122 1.368 . S
C1103 H1127 0.949 . S
H1104 C1108 0.949 . S
C1105 C1106 1.349 . S
C1105 C1107 1.327 . S
C1105 H1128 0.950 . S
C1106 C1105 1.349 . S
C1106 C1118 1.349 . S
C1107 C1105 1.327 . S
C1107 C1123 1.429 . S
C1107 H1129 0.950 . S
C1108 H1104 0.949 . S
C1108 C1116 1.574 . S
C1108 C1124 1.368 . S
H1109 C1117 0.950 . S
H1110 C1115 0.950 . S
H1111 C1116 0.949 . S
H1112 C1118 0.950 . S
H1113 C1119 0.950 . S
H1114 C1120 0.949 . S
C1115 H1110 0.950 . S
C1115 C1117 1.327 . S
C1115 C1121 1.429 . S
C1116 C1108 1.574 . S
C1116 H1111 0.949 . S
C1116 C1122 1.368 . S
C1117 C1101 1.349 . S
C1117 H1109 0.950 . S
C1117 C1115 1.327 . S
C1118 C1106 1.349 . S
C1118 H1112 0.950 . S
C1118 C1119 1.327 . S
C1119 H1113 0.950 . S
C1119 C1118 1.327 . S
C1119 C1123 1.429 . S
C1120 C1103 1.574 . S
C1120 H1114 0.949 . S
C1120 C1124 1.368 . S
C1121 C1102 1.429 . S
C1121 C1115 1.429 . S
C1121 C1122 1.523 . S
C1122 C1103 1.368 . S
C1122 C1116 1.368 . S
C1122 C1121 1.523 . S
C1123 C1107 1.429 . S
C1123 C1119 1.429 . S
C1123 C1124 1.523 . S
C1124 C1108 1.368 . S
C1124 C1120 1.368 . S
C1124 C1123 1.523 . S
H1125 C1100 0.950 . S
H1126 C1102 0.950 . S
H1127 C1103 0.949 . S
H1128 C1105 0.950 . S
H1129 C1107 0.950 . S
C1130 C1131 1.349 . S
C1130 C1132 1.327 . S
C1130 H1155 0.950 . S
C1131 C1130 1.349 . S
C1131 C1147 1.349 . S
C1132 C1130 1.327 . S
C1132 C1151 1.429 . S
C1132 H1156 0.950 . S
C1133 C1150 1.574 . S
C1133 C1152 1.368 . S
C1133 H1157 0.949 . S
H1134 C1138 0.949 . S
C1135 C1136 1.349 . S
C1135 C1137 1.327 . S
C1135 H1158 0.950 . S
C1136 C1135 1.349 . S
C1136 C1148 1.349 . S
C1137 C1135 1.327 . S
C1137 C1153 1.429 . S
C1137 H1159 0.950 . S
C1138 H1134 0.949 . S
C1138 C1146 1.574 . S
C1138 C1154 1.368 . S
H1139 C1147 0.950 . S
H1140 C1145 0.950 . S
H1141 C1146 0.949 . S
H1142 C1148 0.950 . S
H1143 C1149 0.950 . S
H1144 C1150 0.949 . S
C1145 H1140 0.950 . S
C1145 C1147 1.327 . S
C1145 C1151 1.429 . S
C1146 C1138 1.574 . S
C1146 H1141 0.949 . S
C1146 C1152 1.368 . S
C1147 C1131 1.349 . S
C1147 H1139 0.950 . S
C1147 C1145 1.327 . S
C1148 C1136 1.349 . S
C1148 H1142 0.950 . S
C1148 C1149 1.327 . S
C1149 H1143 0.950 . S
C1149 C1148 1.327 . S
C1149 C1153 1.429 . S
C1150 C1133 1.574 . S
C1150 H1144 0.949 . S
C1150 C1154 1.368 . S
C1151 C1132 1.429 . S
C1151 C1145 1.429 . S
C1151 C1152 1.523 . S
C1152 C1133 1.368 . S
C1152 C1146 1.368 . S
C1152 C1151 1.523 . S
C1153 C1137 1.429 . S
C1153 C1149 1.429 . S
C1153 C1154 1.523 . S
C1154 C1138 1.368 . S
C1154 C1150 1.368 . S
C1154 C1153 1.523 . S
H1155 C1130 0.950 . S
H1156 C1132 0.950 . S
H1157 C1133 0.949 . S
H1158 C1135 0.950 . S
H1159 C1137 0.950 . S
C441 C86 1.639 . S
C446 C160 1.621 . S
C476 C244 1.699 . S
C471 C100 1.721 . S
C506 C243 1.629 . S
C501 C60 1.630 . S
C531 C74 1.710 . S
C536 C159 1.713 . S
C566 C340 1.699 . S
C561 C35 1.720 . S
C596 C424 1.621 . S
C591 C47 1.641 . S
C621 C9 1.709 . S
C626 C423 1.713 . S
C651 C21 1.633 . S
C656 C339 1.629 . S
C686 C162 1.445 . S
C681 C22 1.599 . S
C716 C246 1.450 . S
C711 C8 1.613 . S
C746 C258 1.413 . S
C741 C48 1.611 . S
C776 C174 1.421 . S
C771 C34 1.625 . S
C806 C342 1.450 . S
C801 C73 1.616 . S
C831 C61 1.597 . S
C836 C426 1.445 . S
C866 C414 1.422 . S
C861 C99 1.628 . S
C891 C87 1.610 . S
C896 C330 1.414 . S
C926 C171 1.640 . S
C921 C4 1.550 . S
C956 C255 1.513 . S
C951 C17 1.494 . S
C981 C30 1.549 . S
C986 C256 1.609 . S
C1016 C172 1.479 . S
C1011 C43 1.483 . S
C1046 C327 1.512 . S
C1041 C56 1.468 . S
C1071 C69 1.578 . S
C1076 C411 1.640 . S
C1101 C82 1.461 . S
C1106 C412 1.479 . S
C1131 C95 1.573 . S
C1136 C328 1.610 . S
