# Generated by pormake.
# Topology the, (3,8)-cn, num edge types: 1
# Building blocks:
#     Node 0, Type 0, BuildingBlock: MIDCAF_clean_linker_0, # of connection points: 3
#     Node 1, Type 0, BuildingBlock: MIDCAF_clean_linker_0, # of connection points: 3
#     Node 2, Type 0, BuildingBlock: MIDCAF_clean_linker_0, # of connection points: 3
#     Node 3, Type 0, BuildingBlock: MIDCAF_clean_linker_0, # of connection points: 3
#     Node 4, Type 0, BuildingBlock: MIDCAF_clean_linker_0, # of connection points: 3
#     Node 5, Type 0, BuildingBlock: MIDCAF_clean_linker_0, # of connection points: 3
#     Node 6, Type 0, BuildingBlock: MIDCAF_clean_linker_0, # of connection points: 3
#     Node 7, Type 0, BuildingBlock: MIDCAF_clean_linker_0, # of connection points: 3
#     Node 8, Type 1, BuildingBlock: GIZVER_clean_sbu_0, # of connection points: 8
#     Node 9, Type 1, BuildingBlock: GIZVER_clean_sbu_0, # of connection points: 8
#     Node 10, Type 1, BuildingBlock: GIZVER_clean_sbu_0, # of connection points: 8
#     Edge 11, Type (0, 1), BuildingBlock: KIFKEQ_clean_linker_1, # of connection points: 2
#     Edge 12, Type (0, 1), BuildingBlock: KIFKEQ_clean_linker_1, # of connection points: 2
#     Edge 13, Type (0, 1), BuildingBlock: KIFKEQ_clean_linker_1, # of connection points: 2
#     Edge 14, Type (0, 1), BuildingBlock: KIFKEQ_clean_linker_1, # of connection points: 2
#     Edge 15, Type (0, 1), BuildingBlock: KIFKEQ_clean_linker_1, # of connection points: 2
#     Edge 16, Type (0, 1), BuildingBlock: KIFKEQ_clean_linker_1, # of connection points: 2
#     Edge 17, Type (0, 1), BuildingBlock: KIFKEQ_clean_linker_1, # of connection points: 2
#     Edge 18, Type (0, 1), BuildingBlock: KIFKEQ_clean_linker_1, # of connection points: 2
#     Edge 19, Type (0, 1), BuildingBlock: KIFKEQ_clean_linker_1, # of connection points: 2
#     Edge 20, Type (0, 1), BuildingBlock: KIFKEQ_clean_linker_1, # of connection points: 2
#     Edge 21, Type (0, 1), BuildingBlock: KIFKEQ_clean_linker_1, # of connection points: 2
#     Edge 22, Type (0, 1), BuildingBlock: KIFKEQ_clean_linker_1, # of connection points: 2
#     Edge 23, Type (0, 1), BuildingBlock: KIFKEQ_clean_linker_1, # of connection points: 2
#     Edge 24, Type (0, 1), BuildingBlock: KIFKEQ_clean_linker_1, # of connection points: 2
#     Edge 25, Type (0, 1), BuildingBlock: KIFKEQ_clean_linker_1, # of connection points: 2
#     Edge 26, Type (0, 1), BuildingBlock: KIFKEQ_clean_linker_1, # of connection points: 2
#     Edge 27, Type (0, 1), BuildingBlock: KIFKEQ_clean_linker_1, # of connection points: 2
#     Edge 28, Type (0, 1), BuildingBlock: KIFKEQ_clean_linker_1, # of connection points: 2
#     Edge 29, Type (0, 1), BuildingBlock: KIFKEQ_clean_linker_1, # of connection points: 2
#     Edge 30, Type (0, 1), BuildingBlock: KIFKEQ_clean_linker_1, # of connection points: 2
#     Edge 31, Type (0, 1), BuildingBlock: KIFKEQ_clean_linker_1, # of connection points: 2
#     Edge 32, Type (0, 1), BuildingBlock: KIFKEQ_clean_linker_1, # of connection points: 2
#     Edge 33, Type (0, 1), BuildingBlock: KIFKEQ_clean_linker_1, # of connection points: 2
#     Edge 34, Type (0, 1), BuildingBlock: KIFKEQ_clean_linker_1, # of connection points: 2
# Relax obj value: 0.045
# Max RMSD: 0.138
# Mean RMSD: 0.067
data_MOF--net-the--node1-GIZVER_clean_sbu_0--node2-MIDCAF_clean_linker_0--edge1-KIFKEQ_clean_linker_1
_symmetry_space_group_name_H-M    P1
_symmetry_Int_Tables_number       1
_symmetry_cell_setting            triclinic
loop_
_symmetry_equiv_pos_as_xyz
'x, y, z'
_cell_length_a     50.660488
_cell_length_b     47.837991
_cell_length_c     44.236664
_cell_angle_alpha  86.578145
_cell_angle_beta   94.446371
_cell_angle_gamma 101.64043
loop_
_atom_site_label
_atom_site_type_symbol
_atom_site_fract_x
_atom_site_fract_y
_atom_site_fract_z
_atom_type_partial_charge
C0 C 0.24235 0.38664 0.42219 0.0
C1 C 0.23267 0.37258 0.44912 0.0
C2 C 0.24423 0.34997 0.46206 0.0
C3 C 0.26506 0.34156 0.44824 0.0
H4 H 0.3162 0.28451 0.45698 0.0
H5 H 0.33117 0.24067 0.47502 0.0
H6 H 0.37028 0.24026 0.39177 0.0
H7 H 0.35535 0.28388 0.37354 0.0
H8 H 0.3653 0.34145 0.33272 0.0
H9 H 0.38268 0.36744 0.28722 0.0
H10 H 0.3272 0.42465 0.29108 0.0
H11 H 0.30938 0.39846 0.33645 0.0
H12 H 0.26989 0.38951 0.38756 0.0
H13 H 0.23348 0.40378 0.41133 0.0
H14 H 0.23729 0.33891 0.48293 0.0
H15 H 0.27353 0.32401 0.45875 0.0
N16 N 0.30567 0.32283 0.41673 0.0
N17 N 0.33458 0.32837 0.377 0.0
N18 N 0.30606 0.36074 0.38061 0.0
C19 C 0.32487 0.31373 0.40236 0.0
C20 C 0.32532 0.35198 0.36603 0.0
C21 C 0.29615 0.3463 0.40597 0.0
C22 C 0.33452 0.28767 0.41376 0.0
C23 C 0.32799 0.27509 0.4425 0.0
C24 C 0.33662 0.25008 0.45292 0.0
C25 C 0.35166 0.23706 0.43467 0.0
C26 C 0.35835 0.24969 0.40609 0.0
C27 C 0.34996 0.2748 0.39577 0.0
C28 C 0.33595 0.36785 0.33835 0.0
C29 C 0.35674 0.35956 0.32396 0.0
C30 C 0.36685 0.37456 0.29796 0.0
C31 C 0.35639 0.39817 0.28571 0.0
C32 C 0.3355 0.40641 0.29991 0.0
C33 C 0.32542 0.39145 0.326 0.0
C34 C 0.27467 0.3556 0.42121 0.0
C35 C 0.26315 0.37831 0.40844 0.0
C36 C 0.66352 0.22712 0.36804 0.0
C37 C 0.63777 0.21493 0.35517 0.0
C38 C 0.62698 0.2293 0.32998 0.0
C39 C 0.64136 0.25522 0.31818 0.0
H40 H 0.65123 0.31002 0.2376 0.0
H41 H 0.62728 0.33257 0.19601 0.0
H42 H 0.66154 0.4155 0.23046 0.0
H43 H 0.68621 0.39296 0.2719 0.0
H44 H 0.74872 0.38912 0.31238 0.0
H45 H 0.79119 0.4114 0.33876 0.0
H46 H 0.7913 0.33376 0.3938 0.0
H47 H 0.74874 0.31177 0.36812 0.0
H48 H 0.69758 0.26187 0.36693 0.0
H49 H 0.67266 0.21651 0.38719 0.0
H50 H 0.60708 0.22087 0.31971 0.0
H51 H 0.63213 0.2657 0.29899 0.0
N52 N 0.67085 0.30931 0.295 0.0
N53 N 0.70724 0.3484 0.2986 0.0
N54 N 0.70561 0.30877 0.333 0.0
C55 C 0.68339 0.33552 0.28447 0.0
C56 C 0.71865 0.33498 0.32279 0.0
C57 C 0.68166 0.29581 0.31934 0.0
C58 C 0.67059 0.34971 0.25811 0.0
C59 C 0.65392 0.3331 0.23617 0.0
C60 C 0.6403 0.34599 0.21224 0.0
C61 C 0.64254 0.37576 0.21001 0.0
C62 C 0.65944 0.39248 0.23169 0.0
C63 C 0.67362 0.3796 0.25529 0.0
C64 C 0.74502 0.34863 0.33815 0.0
C65 C 0.7578 0.37675 0.33007 0.0
C66 C 0.78232 0.3895 0.3451 0.0
C67 C 0.79477 0.37449 0.36859 0.0
C68 C 0.78218 0.34623 0.37626 0.0
C69 C 0.7577 0.33353 0.36134 0.0
C70 C 0.66695 0.26763 0.33128 0.0
C71 C 0.67791 0.25312 0.35627 0.0
C72 C 0.68041 0.66097 0.22899 0.0
C73 C 0.65464 0.66499 0.21776 0.0
C74 C 0.64334 0.68559 0.23085 0.0
C75 C 0.6571 0.70109 0.2552 0.0
H76 H 0.65814 0.77168 0.30986 0.0
H77 H 0.63895 0.8066 0.33464 0.0
H78 H 0.69307 0.79986 0.41385 0.0
H79 H 0.71222 0.76504 0.38936 0.0
H80 H 0.75646 0.72845 0.38942 0.0
H81 H 0.79498 0.71103 0.41454 0.0
H82 H 0.80066 0.66416 0.33566 0.0
H83 H 0.76229 0.68162 0.31035 0.0
H84 H 0.71376 0.67231 0.26146 0.0
H85 H 0.68996 0.64569 0.21912 0.0
H86 H 0.62344 0.68908 0.22296 0.0
H87 H 0.64748 0.71627 0.26516 0.0
N88 N 0.68603 0.73131 0.30723 0.0
N89 N 0.72098 0.73564 0.34579 0.0
N90 N 0.7193 0.70352 0.30745 0.0
C91 C 0.69826 0.74375 0.33298 0.0
C92 C 0.73171 0.71565 0.33315 0.0
C93 C 0.69645 0.71112 0.29432 0.0
C94 C 0.68672 0.76541 0.34757 0.0
C95 C 0.666 0.77766 0.33253 0.0
C96 C 0.65512 0.79783 0.34664 0.0
C97 C 0.66448 0.80598 0.37622 0.0
C98 C 0.68525 0.79385 0.39117 0.0
C99 C 0.69631 0.77395 0.377 0.0
C100 C 0.75609 0.70635 0.34786 0.0
C101 C 0.76601 0.71463 0.37727 0.0
C102 C 0.78805 0.70456 0.39176 0.0
C103 C 0.80086 0.6862 0.37711 0.0
C104 C 0.79143 0.67853 0.34743 0.0
C105 C 0.76926 0.68839 0.33302 0.0
C106 C 0.68251 0.69637 0.26705 0.0
C107 C 0.69413 0.67641 0.25327 0.0
C108 C 0.20834 0.66972 0.35784 0.0
C109 C 0.20193 0.63963 0.36095 0.0
C110 C 0.22138 0.62426 0.35356 0.0
C111 C 0.24613 0.63841 0.34306 0.0
H112 H 0.30008 0.63 0.27865 0.0
H113 H 0.32191 0.60717 0.24273 0.0
H114 H 0.38274 0.68414 0.23325 0.0
H115 H 0.36135 0.70677 0.2699 0.0
H116 H 0.36583 0.75436 0.31949 0.0
H117 H 0.39004 0.79725 0.344 0.0
H118 H 0.3221 0.79589 0.39767 0.0
H119 H 0.298 0.75277 0.37362 0.0
H120 H 0.23771 0.70701 0.34606 0.0
H121 H 0.19392 0.68251 0.36256 0.0
H122 H 0.21783 0.60121 0.35634 0.0
H123 H 0.26056 0.62586 0.33764 0.0
N124 N 0.29141 0.67081 0.30966 0.0
N125 N 0.32791 0.70978 0.31087 0.0
N126 N 0.29126 0.70899 0.34052 0.0
C127 C 0.31577 0.68403 0.2998 0.0
C128 C 0.31587 0.72239 0.33134 0.0
C129 C 0.27897 0.6832 0.32982 0.0
C130 C 0.32896 0.67028 0.27739 0.0
C131 C 0.31809 0.64216 0.26892 0.0
C132 C 0.33053 0.62906 0.24807 0.0
C133 C 0.35413 0.64373 0.23495 0.0
C134 C 0.36484 0.67197 0.24319 0.0
C135 C 0.35248 0.68503 0.26417 0.0
C136 C 0.32994 0.74981 0.34464 0.0
C137 C 0.3559 0.76325 0.33636 0.0
C138 C 0.36978 0.78803 0.35031 0.0
C139 C 0.35811 0.80003 0.37296 0.0
C140 C 0.33189 0.78703 0.38066 0.0
C141 C 0.31799 0.7623 0.3667 0.0
C142 C 0.25251 0.66836 0.34046 0.0
C143 C 0.23344 0.68389 0.34813 0.0
C144 C 0.23852 0.62589 0.68569 0.0
C145 C 0.2278 0.63794 0.65884 0.0
C146 C 0.24226 0.66391 0.64678 0.0
C147 C 0.26661 0.67755 0.66122 0.0
H148 H 0.33961 0.74175 0.64881 0.0
H149 H 0.36493 0.78689 0.62881 0.0
H150 H 0.3897 0.81275 0.72049 0.0
H151 H 0.36593 0.76675 0.74009 0.0
H152 H 0.36486 0.7119 0.79229 0.0
H153 H 0.38918 0.69228 0.83522 0.0
H154 H 0.36303 0.60773 0.80064 0.0
H155 H 0.33729 0.62745 0.75861 0.0
H156 H 0.27051 0.62962 0.7208 0.0
H157 H 0.22813 0.60574 0.69543 0.0
H158 H 0.23452 0.67404 0.62638 0.0
H159 H 0.27691 0.69763 0.65125 0.0
N160 N 0.31493 0.7073 0.69325 0.0
N161 N 0.34784 0.71047 0.73383 0.0
N162 N 0.31385 0.6692 0.72956 0.0
C163 C 0.3374 0.72219 0.70808 0.0
C164 C 0.3364 0.68394 0.7446 0.0
C165 C 0.30277 0.68094 0.70398 0.0
C166 C 0.35094 0.75061 0.696 0.0
C167 C 0.35041 0.75719 0.66463 0.0
C168 C 0.36485 0.78328 0.65319 0.0
C169 C 0.3797 0.8038 0.67288 0.0
C170 C 0.37928 0.79743 0.70439 0.0
C171 C 0.36541 0.77107 0.71575 0.0
C172 C 0.34925 0.67125 0.77195 0.0
C173 C 0.36409 0.68906 0.79405 0.0
C174 C 0.37829 0.67776 0.81859 0.0
C175 C 0.37866 0.64835 0.82143 0.0
C176 C 0.36313 0.63041 0.79965 0.0
C177 C 0.3484 0.64171 0.77538 0.0
C178 C 0.27731 0.66564 0.68818 0.0
C179 C 0.26298 0.63951 0.70013 0.0
C180 C 0.24196 0.35758 0.67412 0.0
C181 C 0.22418 0.34317 0.65158 0.0
C182 C 0.22787 0.31636 0.64334 0.0
C183 C 0.24932 0.30455 0.65692 0.0
H184 H 0.30442 0.25427 0.6369 0.0
H185 H 0.32137 0.21816 0.61171 0.0
H186 H 0.37511 0.20793 0.69039 0.0
H187 H 0.35818 0.244 0.71578 0.0
H188 H 0.37328 0.29802 0.76067 0.0
H189 H 0.39916 0.32216 0.80379 0.0
H190 H 0.33892 0.37378 0.80822 0.0
H191 H 0.31286 0.34952 0.76555 0.0
H192 H 0.27645 0.35756 0.70511 0.0
H193 H 0.23945 0.37814 0.68118 0.0
H194 H 0.21451 0.30484 0.62594 0.0
H195 H 0.25184 0.28402 0.64982 0.0
N196 N 0.29872 0.28554 0.68078 0.0
N197 N 0.33389 0.28679 0.71887 0.0
N198 N 0.30412 0.31845 0.71906 0.0
C199 C 0.32044 0.27519 0.69327 0.0
C200 C 0.32581 0.30842 0.73197 0.0
C201 C 0.29041 0.30715 0.69356 0.0
C202 C 0.32996 0.25223 0.67842 0.0
C203 C 0.31972 0.24425 0.649 0.0
C204 C 0.32953 0.22361 0.63444 0.0
C205 C 0.34962 0.21018 0.649 0.0
C206 C 0.35944 0.21766 0.67865 0.0
C207 C 0.34984 0.23852 0.69312 0.0
C208 C 0.34099 0.32186 0.75936 0.0
C209 C 0.3654 0.31434 0.77095 0.0
C210 C 0.38033 0.32829 0.79563 0.0
C211 C 0.37119 0.35001 0.80946 0.0
C212 C 0.34644 0.35696 0.7984 0.0
C213 C 0.33158 0.34313 0.77368 0.0
C214 C 0.26725 0.31912 0.67937 0.0
C215 C 0.26311 0.34567 0.68796 0.0
C216 C 0.67703 0.2363 0.64325 0.0
C217 C 0.65028 0.22556 0.65068 0.0
C218 C 0.63938 0.2395 0.67239 0.0
C219 C 0.65475 0.26363 0.6862 0.0
H220 H 0.65719 0.31599 0.75999 0.0
H221 H 0.63778 0.34063 0.79696 0.0
H222 H 0.70214 0.41422 0.787 0.0
H223 H 0.72164 0.38978 0.75022 0.0
H224 H 0.78187 0.36081 0.73203 0.0
H225 H 0.82621 0.38334 0.71576 0.0
H226 H 0.79868 0.36376 0.62287 0.0
H227 H 0.75511 0.33926 0.63989 0.0
H228 H 0.71285 0.26824 0.65044 0.0
H229 H 0.68598 0.22629 0.6264 0.0
H230 H 0.61895 0.23161 0.67894 0.0
H231 H 0.64559 0.27373 0.70278 0.0
N232 N 0.68766 0.31287 0.71533 0.0
N233 N 0.72756 0.34757 0.71949 0.0
N234 N 0.72282 0.31209 0.68394 0.0
C235 C 0.70242 0.33652 0.7286 0.0
C236 C 0.73788 0.33552 0.69723 0.0
C237 C 0.69773 0.30045 0.69303 0.0
C238 C 0.69098 0.35086 0.75199 0.0
C239 C 0.66729 0.33737 0.76575 0.0
C240 C 0.65624 0.35141 0.78708 0.0
C241 C 0.6684 0.37939 0.79483 0.0
C242 C 0.69217 0.39277 0.7813 0.0
C243 C 0.70341 0.37864 0.76031 0.0
C244 C 0.76506 0.34834 0.68722 0.0
C245 C 0.78548 0.36115 0.70818 0.0
C246 C 0.81089 0.37434 0.69869 0.0
C247 C 0.81633 0.37588 0.66779 0.0
C248 C 0.79576 0.3627 0.64691 0.0
C249 C 0.77059 0.34878 0.65659 0.0
C250 C 0.68145 0.27458 0.67858 0.0
C251 C 0.69239 0.26053 0.65694 0.0
C252 C 0.65435 0.64458 0.73446 0.0
C253 C 0.66396 0.62015 0.74572 0.0
C254 C 0.68123 0.609 0.72851 0.0
C255 C 0.68921 0.62241 0.70083 0.0
H256 H 0.75488 0.63809 0.6481 0.0
H257 H 0.79604 0.63044 0.62796 0.0
H258 H 0.77891 0.67849 0.54557 0.0
H259 H 0.73749 0.68638 0.56566 0.0
H260 H 0.69476 0.72735 0.56804 0.0
H261 H 0.67922 0.7709 0.55001 0.0
H262 H 0.63835 0.76955 0.63234 0.0
H263 H 0.6538 0.7262 0.65053 0.0
H264 H 0.65448 0.67677 0.69889 0.0
H265 H 0.64068 0.65338 0.74707 0.0
H266 H 0.68899 0.59025 0.73675 0.0
H267 H 0.70283 0.61349 0.68828 0.0
N268 N 0.70978 0.65492 0.64745 0.0
N269 N 0.70742 0.69092 0.6096 0.0
N270 N 0.67778 0.6839 0.64869 0.0
C271 C 0.71904 0.66926 0.62174 0.0
C272 C 0.68677 0.69837 0.62293 0.0
C273 C 0.68904 0.662 0.66097 0.0
C274 C 0.74294 0.66293 0.60853 0.0
C275 C 0.75969 0.64691 0.62561 0.0
C276 C 0.78339 0.64273 0.61423 0.0
C277 C 0.7907 0.65422 0.58543 0.0
C278 C 0.77366 0.66952 0.56789 0.0
C279 C 0.75004 0.67403 0.57943 0.0
C280 C 0.67566 0.72337 0.61083 0.0
C281 C 0.68234 0.73623 0.58224 0.0
C282 C 0.67339 0.76108 0.57184 0.0
C283 C 0.65787 0.77365 0.58995 0.0
C284 C 0.65066 0.76047 0.61815 0.0
C285 C 0.65935 0.73552 0.62844 0.0
C286 C 0.67984 0.64708 0.6897 0.0
C287 C 0.66212 0.65784 0.70672 0.0
Co288 Co 0.0601 0.47779 0.54031 0.0
Co289 Co 0.0356 0.46596 0.48599 0.0
Co290 Co 0.00796 0.51015 0.51643 0.0
O291 O 0.02365 0.47497 0.52278 0.0
H292 H 0.01117 0.45893 0.53119 0.0
O293 O 0.99275 0.54551 0.50974 0.0
Co294 Co 0.95597 0.54356 0.49471 0.0
Co295 Co 0.98348 0.55523 0.54729 0.0
H296 H 1.00508 0.56124 0.50056 0.0
O297 O 0.04514 0.43068 0.48011 0.0
O298 O 0.0713 0.46911 0.50098 0.0
O299 O 0.03669 0.49433 0.45274 0.0
O300 O 0.03328 0.52788 0.48406 0.0
O301 O 0.98046 0.48986 0.48534 0.0
O302 O 0.92275 0.54489 0.48 0.0
O303 O 0.95929 0.58062 0.48095 0.0
O304 O 0.94766 0.50443 0.50582 0.0
O305 O 0.98291 0.49254 0.54916 0.0
O306 O 0.98277 0.52712 0.58042 0.0
O307 O 0.94748 0.55337 0.535 0.0
O308 O 0.97649 0.59123 0.55373 0.0
C309 C 0.0819 0.45053 0.56337 0.0
C310 C 0.05999 0.53361 0.54548 0.0
C311 C 0.04063 0.52038 0.45924 0.0
C312 C 0.06857 0.44363 0.49118 0.0
C313 C 0.93358 0.57144 0.4738 0.0
C314 C 0.95522 0.48766 0.48859 0.0
C315 C 0.9771 0.50093 0.57431 0.0
C316 C 0.95214 0.57917 0.54453 0.0
O317 O 0.09251 0.47724 0.55778 0.0
O318 O 0.05689 0.44055 0.55375 0.0
O319 O 0.03469 0.53053 0.54789 0.0
O320 O 0.06872 0.51698 0.52932 0.0
Co321 Co 0.5384 0.95494 0.49523 0.0
Co322 Co 0.5527 0.97831 0.54804 0.0
Co323 Co 0.50863 0.00872 0.51349 0.0
O324 O 0.54154 0.9925 0.51002 0.0
H325 H 0.55615 1.00622 0.50162 0.0
O326 O 0.47564 0.02488 0.51674 0.0
Co327 Co 0.47771 0.06229 0.53171 0.0
Co328 Co 0.46527 0.03927 0.47829 0.0
H329 H 0.4609 0.01094 0.52458 0.0
O330 O 0.58728 0.97066 0.55647 0.0
O331 O 0.55073 0.94156 0.53588 0.0
O332 O 0.52787 0.97396 0.57951 0.0
O333 O 0.49361 0.98041 0.54708 0.0
O334 O 0.52968 0.03564 0.54388 0.0
O335 O 0.47671 0.09581 0.54606 0.0
O336 O 0.44329 0.05692 0.5436 0.0
O337 O 0.51427 0.07273 0.52279 0.0
O338 O 0.52391 0.03716 0.48032 0.0
O339 O 0.49072 0.0448 0.4471 0.0
O340 O 0.46591 0.07559 0.49072 0.0
O341 O 0.43048 0.04557 0.46906 0.0
C342 C 0.56301 0.93332 0.47497 0.0
C343 C 0.48494 0.95478 0.48765 0.0
C344 C 0.50271 0.97075 0.57255 0.0
C345 C 0.57572 0.94581 0.5467 0.0
C346 C 0.45208 0.08338 0.55113 0.0
C347 C 0.53144 0.06261 0.54033 0.0
C348 C 0.5157 0.04749 0.45482 0.0
C349 C 0.44107 0.0705 0.4793 0.0
O350 O 0.53843 0.92125 0.48073 0.0
O351 O 0.57237 0.95973 0.48236 0.0
O352 O 0.48741 0.98177 0.48304 0.0
O353 O 0.50217 0.94499 0.5054 0.0
Co354 Co 0.47865 0.52444 0.07521 0.0
Co355 Co 0.46465 0.47267 0.05577 0.0
Co356 Co 0.50976 0.5091 0.01472 0.0
O357 O 0.47616 0.50807 0.03618 0.0
H358 H 0.4617 0.51314 0.02278 0.0
O359 O 0.54348 0.51017 0.99359 0.0
Co360 Co 0.54186 0.49475 0.95439 0.0
Co361 Co 0.55507 0.54599 0.97514 0.0
H362 H 0.55783 0.50501 1.00709 0.0
O363 O 0.42941 0.46073 0.06753 0.0
O364 O 0.46472 0.48648 0.094 0.0
O365 O 0.4899 0.44746 0.06083 0.0
O366 O 0.52404 0.4799 0.0436 0.0
O367 O 0.489 0.47818 0.9881 0.0
O368 O 0.54305 0.47981 0.91888 0.0
O369 O 0.57542 0.4864 0.9571 0.0
O370 O 0.50626 0.50028 0.94697 0.0
O371 O 0.49551 0.53829 0.98591 0.0
O372 O 0.52996 0.57143 0.9707 0.0
O373 O 0.55587 0.53327 0.93661 0.0
O374 O 0.59052 0.55837 0.96475 0.0
C375 C 0.45425 0.54293 0.09961 0.0
C376 C 0.53217 0.53671 0.06982 0.0
C377 C 0.51499 0.45644 0.05825 0.0
C378 C 0.43983 0.47266 0.09246 0.0
C379 C 0.56701 0.47729 0.93007 0.0
C380 C 0.4884 0.4814 0.95917 0.0
C381 C 0.50479 0.56229 0.97238 0.0
C382 C 0.58074 0.54719 0.93922 0.0
O383 O 0.47831 0.54027 0.11026 0.0
O384 O 0.44516 0.53324 0.07295 0.0
O385 O 0.53069 0.54012 0.04095 0.0
O386 O 0.51418 0.51851 0.08261 0.0
H387 H 0.18861 0.33816 0.47323 0.0
H388 H 0.2258 0.42667 0.45613 0.0
H389 H 0.14917 0.35292 0.49081 0.0
H390 H 0.18611 0.4413 0.47182 0.0
H391 H 0.11974 0.46551 0.51337 0.0
H392 H 0.15967 0.44529 0.5121 0.0
H393 H 0.11213 0.37232 0.4668 0.0
H394 H 0.0715 0.39162 0.47031 0.0
C395 C 0.1885 0.36075 0.47361 0.0
C396 C 0.21011 0.38128 0.46297 0.0
C397 C 0.16581 0.36918 0.48334 0.0
C398 C 0.16438 0.39825 0.48252 0.0
C399 C 0.18659 0.41873 0.47316 0.0
C400 C 0.20924 0.41035 0.4637 0.0
C401 C 0.11757 0.44481 0.50381 0.0
C402 C 0.0924 0.4302 0.49184 0.0
C403 C 0.14059 0.43333 0.50284 0.0
C404 C 0.13921 0.40745 0.48886 0.0
C405 C 0.11387 0.39221 0.47797 0.0
C406 C 0.09063 0.40342 0.47962 0.0
H407 H 0.60551 0.17044 0.3251 0.0
H408 H 0.63371 0.19791 0.41528 0.0
H409 H 0.57772 0.12739 0.34688 0.0
H410 H 0.60616 0.15483 0.43695 0.0
H411 H 0.50628 0.07602 0.40053 0.0
H412 H 0.53724 0.11443 0.37538 0.0
H413 H 0.60107 0.10302 0.4427 0.0
H414 H 0.57008 0.0649 0.46816 0.0
C415 C 0.60578 0.16737 0.34956 0.0
C416 C 0.62187 0.18781 0.36838 0.0
C417 C 0.58986 0.14262 0.36205 0.0
C418 C 0.58968 0.13757 0.39368 0.0
C419 C 0.60613 0.15773 0.41248 0.0
C420 C 0.62198 0.1825 0.40002 0.0
C421 C 0.52702 0.08132 0.40972 0.0
C422 C 0.53554 0.06737 0.43654 0.0
C423 C 0.54484 0.10336 0.39522 0.0
C424 C 0.57161 0.11208 0.40719 0.0
C425 C 0.58047 0.09722 0.43316 0.0
C426 C 0.56271 0.07512 0.4476 0.0
H427 H 0.84855 0.68009 0.35536 0.0
H428 H 0.80296 0.66385 0.43529 0.0
H429 H 0.88263 0.65529 0.38053 0.0
H430 H 0.83709 0.63944 0.46042 0.0
H431 H 0.87879 0.56142 0.47056 0.0
H432 H 0.84902 0.59255 0.44947 0.0
H433 H 0.91806 0.65706 0.42626 0.0
H434 H 0.94831 0.62575 0.44803 0.0
C435 C 0.84595 0.67147 0.37838 0.0
C436 C 0.82297 0.67376 0.39326 0.0
C437 C 0.86558 0.65754 0.39287 0.0
C438 C 0.86244 0.64533 0.42238 0.0
C439 C 0.83994 0.64848 0.4376 0.0
C440 C 0.82049 0.66263 0.42326 0.0
C441 C 0.88777 0.58222 0.46101 0.0
C442 C 0.91598 0.59102 0.46079 0.0
C443 C 0.87064 0.60017 0.44916 0.0
C444 C 0.88119 0.62726 0.43629 0.0
C445 C 0.9094 0.63621 0.43597 0.0
C446 C 0.92668 0.61834 0.44843 0.0
H447 H 0.39136 0.84799 0.34976 0.0
H448 H 0.36042 0.80887 0.43376 0.0
H449 H 0.41942 0.88709 0.37774 0.0
H450 H 0.38777 0.84824 0.46147 0.0
H451 H 0.46878 0.8982 0.50195 0.0
H452 H 0.43617 0.86297 0.47419 0.0
H453 H 0.41889 0.92891 0.40909 0.0
H454 H 0.45203 0.96456 0.43706 0.0
C455 C 0.39038 0.84781 0.37414 0.0
C456 C 0.3737 0.82513 0.38948 0.0
C457 C 0.40624 0.8704 0.39013 0.0
C458 C 0.40595 0.87076 0.42188 0.0
C459 C 0.38871 0.8485 0.43707 0.0
C460 C 0.3728 0.82603 0.42111 0.0
C461 C 0.45793 0.90536 0.48186 0.0
C462 C 0.46312 0.93425 0.47169 0.0
C463 C 0.43904 0.88511 0.46601 0.0
C464 C 0.42485 0.89306 0.4394 0.0
C465 C 0.42964 0.92206 0.4294 0.0
C466 C 0.44846 0.9425 0.44552 0.0
H467 H 0.21507 0.63247 0.59781 0.0
H468 H 0.18121 0.61103 0.6848 0.0
H469 H 0.17252 0.60968 0.57244 0.0
H470 H 0.13843 0.58831 0.65937 0.0
H471 H 0.07866 0.52085 0.60255 0.0
H472 H 0.11831 0.5471 0.6311 0.0
H473 H 0.12666 0.61401 0.56031 0.0
H474 H 0.08739 0.58712 0.53164 0.0
C475 C 0.19844 0.62317 0.61155 0.0
C476 C 0.20166 0.62367 0.6434 0.0
C477 C 0.17392 0.61014 0.59696 0.0
C478 C 0.15182 0.59725 0.61376 0.0
C479 C 0.15503 0.59772 0.64565 0.0
C480 C 0.17962 0.61072 0.66026 0.0
C481 C 0.08861 0.54158 0.59364 0.0
C482 C 0.07981 0.55231 0.56526 0.0
C483 C 0.11138 0.55662 0.6099 0.0
C484 C 0.12593 0.58267 0.59799 0.0
C485 C 0.1163 0.59384 0.57001 0.0
C486 C 0.09359 0.5787 0.55374 0.0
H487 H 0.36468 0.21471 0.59061 0.0
H488 H 0.3607 0.15861 0.67102 0.0
H489 H 0.38627 0.18225 0.56514 0.0
H490 H 0.38257 0.1262 0.64551 0.0
H491 H 0.40388 0.06409 0.57781 0.0
H492 H 0.3761 0.09313 0.6001 0.0
H493 H 0.43235 0.16974 0.57442 0.0
H494 H 0.46004 0.14111 0.55284 0.0
C495 C 0.36807 0.19525 0.60272 0.0
C496 C 0.36108 0.18933 0.63292 0.0
C497 C 0.38059 0.17675 0.58818 0.0
C498 C 0.38619 0.15171 0.60336 0.0
C499 C 0.37834 0.14522 0.63317 0.0
C500 C 0.36608 0.16392 0.64786 0.0
C501 C 0.41019 0.08712 0.57689 0.0
C502 C 0.43426 0.10024 0.56376 0.0
C503 C 0.39436 0.10372 0.5897 0.0
C504 C 0.40204 0.13372 0.58895 0.0
C505 C 0.42574 0.14673 0.57514 0.0
C506 C 0.44173 0.13023 0.56296 0.0
H507 H 0.84977 0.42295 0.6926 0.0
H508 H 0.84363 0.36588 0.61898 0.0
H509 H 0.89185 0.44975 0.67518 0.0
H510 H 0.88417 0.39482 0.5995 0.0
H511 H 0.96616 0.44226 0.57613 0.0
H512 H 0.93034 0.41022 0.60211 0.0
H513 H 0.90774 0.4832 0.63893 0.0
H514 H 0.94437 0.51456 0.6148 0.0
C515 C 0.8573 0.41589 0.67275 0.0
C516 C 0.84284 0.39203 0.65731 0.0
C517 C 0.8814 0.4318 0.6623 0.0
C518 C 0.89153 0.42497 0.63552 0.0
C519 C 0.8774 0.40079 0.62036 0.0
C520 C 0.85362 0.38441 0.63127 0.0
C521 C 0.95388 0.45128 0.59041 0.0
C522 C 0.95825 0.48096 0.59346 0.0
C523 C 0.93305 0.43295 0.60504 0.0
C524 C 0.91569 0.44391 0.62256 0.0
C525 C 0.92078 0.4736 0.62629 0.0
C526 C 0.94189 0.49178 0.61224 0.0
H527 H 0.63479 0.78757 0.53466 0.0
H528 H 0.66236 0.82076 0.62275 0.0
H529 H 0.618 0.83135 0.51983 0.0
H530 H 0.6454 0.86417 0.60814 0.0
H531 H 0.55609 0.8905 0.53237 0.0
H532 H 0.57951 0.85068 0.53831 0.0
H533 H 0.65201 0.90724 0.57197 0.0
H534 H 0.62867 0.9474 0.56568 0.0
C535 C 0.63753 0.80438 0.55065 0.0
C536 C 0.64955 0.80077 0.57994 0.0
C537 C 0.62786 0.82928 0.54224 0.0
C538 C 0.63039 0.85104 0.56289 0.0
C539 C 0.64342 0.84785 0.5917 0.0
C540 C 0.65283 0.82291 0.60017 0.0
C541 C 0.57714 0.89461 0.5406 0.0
C542 C 0.5905 0.92209 0.54869 0.0
C543 C 0.59058 0.87179 0.54383 0.0
C544 C 0.61752 0.87592 0.55563 0.0
C545 C 0.63115 0.90351 0.56299 0.0
C546 C 0.61778 0.92644 0.55944 0.0
H547 H 0.34766 0.1892 0.40316 0.0
H548 H 0.3758 0.22501 0.48995 0.0
H549 H 0.36644 0.14704 0.41836 0.0
H550 H 0.3943 0.18245 0.50544 0.0
H551 H 0.45867 0.12628 0.49306 0.0
H552 H 0.43332 0.16458 0.48705 0.0
H553 H 0.36236 0.1048 0.455 0.0
H554 H 0.38766 0.06626 0.46121 0.0
C555 C 0.35764 0.18786 0.42561 0.0
C556 C 0.36059 0.21041 0.44526 0.0
C557 C 0.3681 0.16363 0.43444 0.0
C558 C 0.38184 0.16157 0.46304 0.0
C559 C 0.38393 0.18365 0.48319 0.0
C560 C 0.37325 0.20786 0.47441 0.0
C561 C 0.43757 0.12118 0.48513 0.0
C562 C 0.42521 0.09329 0.47739 0.0
C563 C 0.42301 0.1431 0.48189 0.0
C564 C 0.39593 0.13762 0.47049 0.0
C565 C 0.38331 0.10959 0.46361 0.0
C566 C 0.39781 0.08759 0.46711 0.0
H567 H 0.83907 0.41144 0.34676 0.0
H568 H 0.8083 0.36925 0.42959 0.0
H569 H 0.8794 0.43585 0.37571 0.0
H570 H 0.84886 0.39264 0.45811 0.0
H571 H 0.90318 0.46964 0.50241 0.0
H572 H 0.86639 0.44073 0.47316 0.0
H573 H 0.92138 0.43008 0.40682 0.0
H574 H 0.95871 0.45978 0.43636 0.0
C575 C 0.84091 0.40723 0.37108 0.0
C576 C 0.82022 0.38841 0.38576 0.0
C577 C 0.86424 0.42096 0.38762 0.0
C578 C 0.86741 0.41634 0.4193 0.0
C579 C 0.84702 0.397 0.43381 0.0
C580 C 0.8238 0.38331 0.41734 0.0
C581 C 0.90764 0.46098 0.48173 0.0
C582 C 0.93398 0.46713 0.47174 0.0
C583 C 0.88645 0.44418 0.46499 0.0
C584 C 0.89081 0.43297 0.43758 0.0
C585 C 0.91727 0.43857 0.42773 0.0
C586 C 0.93871 0.45534 0.44476 0.0
H587 H 0.65206 0.85669 0.35339 0.0
H588 H 0.64897 0.80137 0.43437 0.0
H589 H 0.63 0.8891 0.37871 0.0
H590 H 0.62716 0.83379 0.45963 0.0
H591 H 0.55415 0.87554 0.47305 0.0
H592 H 0.58099 0.84646 0.45071 0.0
H593 H 0.63755 0.9225 0.42411 0.0
H594 H 0.61066 0.95199 0.44714 0.0
C595 C 0.64675 0.85152 0.3766 0.0
C596 C 0.65215 0.82641 0.39183 0.0
C597 C 0.6344 0.87021 0.39117 0.0
C598 C 0.62684 0.86395 0.42112 0.0
C599 C 0.63263 0.83909 0.43648 0.0
C600 C 0.64525 0.82061 0.42207 0.0
C601 C 0.57233 0.8862 0.46253 0.0
C602 C 0.58018 0.91615 0.46173 0.0
C603 C 0.58782 0.86945 0.44992 0.0
C604 C 0.61136 0.88218 0.43566 0.0
C605 C 0.61938 0.91214 0.43484 0.0
C606 C 0.60407 0.92898 0.44807 0.0
H607 H 0.17275 0.58611 0.3471 0.0
H608 H 0.17026 0.65817 0.40067 0.0
H609 H 0.13235 0.5598 0.36892 0.0
H610 H 0.12805 0.63313 0.41964 0.0
H611 H 0.07369 0.56878 0.4791 0.0
H612 H 0.11055 0.59859 0.45373 0.0
H613 H 0.08687 0.55068 0.3727 0.0
H614 H 0.0511 0.51936 0.39938 0.0
C615 C 0.16361 0.59656 0.36337 0.0
C616 C 0.17543 0.62434 0.37231 0.0
C617 C 0.13983 0.58155 0.37547 0.0
C618 C 0.12658 0.59404 0.39635 0.0
C619 C 0.13776 0.62229 0.40426 0.0
C620 C 0.16193 0.63702 0.39278 0.0
C621 C 0.07607 0.56487 0.4557 0.0
C622 C 0.05949 0.54159 0.44132 0.0
C623 C 0.0973 0.58216 0.44093 0.0
C624 C 0.1022 0.57718 0.41098 0.0
C625 C 0.08445 0.55486 0.39599 0.0
C626 C 0.06362 0.53706 0.41112 0.0
H627 H 0.42751 0.8349 0.6976 0.0
H628 H 0.3699 0.8353 0.6202 0.0
H629 H 0.45482 0.87836 0.67756 0.0
H630 H 0.3988 0.87714 0.59855 0.0
H631 H 0.44739 0.96304 0.5714 0.0
H632 H 0.41658 0.92565 0.59825 0.0
H633 H 0.48497 0.89392 0.64152 0.0
H634 H 0.51538 0.93206 0.61629 0.0
C635 C 0.42046 0.84419 0.67635 0.0
C636 C 0.39626 0.83116 0.66066 0.0
C637 C 0.43656 0.86904 0.66446 0.0
C638 C 0.42944 0.88138 0.63608 0.0
C639 C 0.40502 0.86867 0.62059 0.0
C640 C 0.38858 0.84413 0.63282 0.0
C641 C 0.45577 0.9484 0.58718 0.0
C642 C 0.48389 0.95068 0.59173 0.0
C643 C 0.43808 0.92667 0.60235 0.0
C644 C 0.44806 0.90633 0.62204 0.0
C645 C 0.47626 0.90928 0.62714 0.0
C646 C 0.49386 0.93125 0.61247 0.0
H647 H 0.22863 0.3975 0.62785 0.0
H648 H 0.17044 0.3192 0.6411 0.0
H649 H 0.19285 0.42116 0.60627 0.0
H650 H 0.13413 0.34317 0.62021 0.0
H651 H 0.08002 0.39341 0.55599 0.0
H652 H 0.11395 0.36562 0.57571 0.0
H653 H 0.15689 0.43843 0.62476 0.0
H654 H 0.12389 0.46609 0.60425 0.0
C655 C 0.20808 0.38539 0.62627 0.0
C656 C 0.20229 0.35662 0.63653 0.0
C657 C 0.1875 0.39897 0.61402 0.0
C658 C 0.16043 0.38428 0.61206 0.0
C659 C 0.15471 0.35514 0.6213 0.0
C660 C 0.17548 0.34141 0.63332 0.0
C661 C 0.09652 0.40317 0.5714 0.0
C662 C 0.0994 0.4319 0.57854 0.0
C663 C 0.116 0.38733 0.58263 0.0
C664 C 0.13848 0.39992 0.60142 0.0
C665 C 0.14038 0.42824 0.60964 0.0
C666 C 0.12127 0.44405 0.59815 0.0
H667 H 0.59742 0.21809 0.62905 0.0
H668 H 0.66546 0.17579 0.63771 0.0
H669 H 0.56999 0.17705 0.60427 0.0
H670 H 0.63782 0.13431 0.61317 0.0
H671 H 0.58608 0.07916 0.53783 0.0
H672 H 0.61576 0.11782 0.56539 0.0
H673 H 0.54824 0.12906 0.61431 0.0
H674 H 0.51886 0.09121 0.58612 0.0
C675 C 0.60645 0.19985 0.626 0.0
C676 C 0.63362 0.20023 0.63554 0.0
C677 C 0.59067 0.17621 0.61181 0.0
C678 C 0.60154 0.15211 0.6069 0.0
C679 C 0.62881 0.15254 0.61628 0.0
C680 C 0.64466 0.17632 0.63038 0.0
C681 C 0.57789 0.08969 0.55489 0.0
C682 C 0.55032 0.08239 0.55996 0.0
C683 C 0.5948 0.11181 0.57068 0.0
C684 C 0.58437 0.12692 0.59185 0.0
C685 C 0.5569 0.11849 0.59768 0.0
C686 C 0.54007 0.09664 0.58176 0.0
H687 H 0.8405 0.66379 0.61479 0.0
H688 H 0.79787 0.63474 0.53053 0.0
H689 H 0.88115 0.65022 0.59936 0.0
H690 H 0.83877 0.62127 0.51488 0.0
H691 H 0.89862 0.5578 0.53242 0.0
H692 H 0.86107 0.58163 0.53619 0.0
H693 H 0.91684 0.65865 0.56195 0.0
H694 H 0.95473 0.6348 0.55796 0.0
C695 C 0.84004 0.65492 0.59273 0.0
C696 C 0.81608 0.6499 0.57399 0.0
C697 C 0.86334 0.64745 0.58376 0.0
C698 C 0.86302 0.63463 0.55597 0.0
C699 C 0.83944 0.63103 0.53647 0.0
C700 C 0.81615 0.63879 0.54535 0.0
C701 C 0.90297 0.57995 0.53846 0.0
C702 C 0.92963 0.59437 0.54512 0.0
C703 C 0.88144 0.59366 0.54037 0.0
C704 C 0.88609 0.62197 0.54934 0.0
C705 C 0.91276 0.63674 0.55513 0.0
C706 C 0.93438 0.62307 0.55294 0.0
H707 H 0.40918 0.41459 0.27305 0.0
H708 H 0.32823 0.41738 0.23612 0.0
H709 H 0.4272 0.4371 0.22624 0.0
H710 H 0.34639 0.44092 0.18942 0.0
H711 H 0.38966 0.43974 0.09954 0.0
H712 H 0.36792 0.42614 0.14693 0.0
H713 H 0.43375 0.48128 0.19527 0.0
H714 H 0.45592 0.49414 0.14819 0.0
C715 C 0.39526 0.42023 0.25497 0.0
C716 C 0.3673 0.41397 0.25811 0.0
C717 C 0.4056 0.43349 0.22829 0.0
C718 C 0.38821 0.44084 0.20414 0.0
C719 C 0.36026 0.43531 0.20757 0.0
C720 C 0.3499 0.42206 0.23436 0.0
C721 C 0.39932 0.44926 0.12021 0.0
C722 C 0.4247 0.46769 0.12016 0.0
C723 C 0.38676 0.44161 0.14735 0.0
C724 C 0.39931 0.45236 0.17489 0.0
C725 C 0.42386 0.4722 0.17449 0.0
C726 C 0.43647 0.4797 0.14744 0.0
H727 H 0.42778 0.67494 0.84735 0.0
H728 H 0.36953 0.5954 0.8519 0.0
H729 H 0.45623 0.65665 0.88688 0.0
H730 H 0.39935 0.57611 0.88968 0.0
H731 H 0.44949 0.55374 0.97356 0.0
H732 H 0.4183 0.5757 0.93969 0.0
H733 H 0.48595 0.6259 0.89439 0.0
H734 H 0.51685 0.60513 0.92899 0.0
C735 C 0.42084 0.65356 0.8568 0.0
C736 C 0.39606 0.63682 0.84618 0.0
C737 C 0.43756 0.6428 0.87927 0.0
C738 C 0.43044 0.61468 0.89153 0.0
C739 C 0.40555 0.59797 0.88118 0.0
C740 C 0.38856 0.60892 0.85899 0.0
C741 C 0.45767 0.56983 0.95667 0.0
C742 C 0.48575 0.5777 0.95418 0.0
C743 C 0.43975 0.58224 0.93696 0.0
C744 C 0.4494 0.6026 0.91398 0.0
C745 C 0.47755 0.6108 0.91202 0.0
C746 C 0.49541 0.59873 0.93192 0.0
H747 H 0.42585 0.36961 0.81313 0.0
H748 H 0.3547 0.36809 0.86155 0.0
H749 H 0.45314 0.39955 0.8512 0.0
H750 H 0.38209 0.39879 0.89941 0.0
H751 H 0.44893 0.43499 0.97504 0.0
H752 H 0.42011 0.40123 0.94071 0.0
H753 H 0.45635 0.44964 0.86375 0.0
H754 H 0.48481 0.48292 0.89746 0.0
C755 C 0.41605 0.37534 0.8321 0.0
C756 C 0.38803 0.36649 0.83415 0.0
C757 C 0.43167 0.39278 0.85379 0.0
C758 C 0.41975 0.40182 0.87819 0.0
C759 C 0.3919 0.39215 0.88095 0.0
C760 C 0.37619 0.37479 0.85909 0.0
C761 C 0.45059 0.43844 0.95078 0.0
C762 C 0.46937 0.46159 0.93911 0.0
C763 C 0.43408 0.41915 0.93113 0.0
C764 C 0.43623 0.42252 0.89951 0.0
C765 C 0.45457 0.44603 0.88798 0.0
C766 C 0.47081 0.46527 0.90743 0.0
H767 H 0.64872 0.36002 0.8499 0.0
H768 H 0.65974 0.43398 0.78787 0.0
H769 H 0.62664 0.38536 0.88393 0.0
H770 H 0.63776 0.45923 0.82182 0.0
H771 H 0.56289 0.474 0.86876 0.0
H772 H 0.58952 0.45171 0.83744 0.0
H773 H 0.63699 0.42973 0.91731 0.0
H774 H 0.61038 0.45259 0.94894 0.0
C775 C 0.64649 0.38169 0.8436 0.0
C776 C 0.6559 0.39498 0.81618 0.0
C777 C 0.6341 0.39627 0.86319 0.0
C778 C 0.63049 0.42426 0.85552 0.0
C779 C 0.64016 0.43763 0.82826 0.0
C780 C 0.65287 0.42323 0.80892 0.0
C781 C 0.5791 0.46458 0.87972 0.0
C782 C 0.58446 0.46495 0.91137 0.0
C783 C 0.59445 0.45194 0.86171 0.0
C784 C 0.6153 0.43893 0.87491 0.0
C785 C 0.6209 0.43946 0.90656 0.0
C786 C 0.6058 0.45265 0.92461 0.0
H787 H 0.66346 0.6465 0.79841 0.0
H788 H 0.64646 0.56333 0.76002 0.0
H789 H 0.64685 0.62505 0.84637 0.0
H790 H 0.63024 0.54165 0.80842 0.0
H791 H 0.56569 0.52912 0.88185 0.0
H792 H 0.58977 0.54352 0.83619 0.0
H793 H 0.65618 0.59252 0.88967 0.0
H794 H 0.63208 0.5782 0.93549 0.0
C795 C 0.65635 0.62357 0.80036 0.0
C796 C 0.65597 0.6066 0.77545 0.0
C797 C 0.64715 0.61124 0.82791 0.0
C798 C 0.63727 0.58166 0.83113 0.0
C799 C 0.63761 0.56453 0.80649 0.0
C800 C 0.64702 0.57688 0.77891 0.0
C801 C 0.58562 0.54256 0.884 0.0
C802 C 0.59682 0.55283 0.91225 0.0
C803 C 0.59948 0.55068 0.85782 0.0
C804 C 0.62472 0.56939 0.85935 0.0
C805 C 0.63656 0.57841 0.8878 0.0
C806 C 0.62277 0.57015 0.91402 0.0
H807 H 0.623 0.68071 0.16876 0.0
H808 H 0.65104 0.60773 0.21208 0.0
H809 H 0.59569 0.64978 0.13109 0.0
H810 H 0.62452 0.57717 0.17408 0.0
H811 H 0.54511 0.52802 0.12991 0.0
H812 H 0.57627 0.55935 0.16343 0.0
H813 H 0.59789 0.6188 0.08781 0.0
H814 H 0.56618 0.58722 0.0539 0.0
C815 C 0.62348 0.65814 0.17016 0.0
C816 C 0.63918 0.64674 0.19356 0.0
C817 C 0.60807 0.64048 0.14836 0.0
C818 C 0.60785 0.61098 0.14962 0.0
C819 C 0.62401 0.59974 0.17261 0.0
C820 C 0.63945 0.61736 0.19426 0.0
C821 C 0.5566 0.54766 0.12026 0.0
C822 C 0.55308 0.55512 0.08918 0.0
C823 C 0.57464 0.56558 0.13952 0.0
C824 C 0.58963 0.59159 0.12834 0.0
C825 C 0.58647 0.59898 0.09716 0.0
C826 C 0.56849 0.58082 0.07771 0.0
H827 H 0.3311 0.60661 0.19055 0.0
H828 H 0.40852 0.64815 0.23063 0.0
H829 H 0.35388 0.58136 0.15749 0.0
H830 H 0.43116 0.62417 0.19666 0.0
H831 H 0.46375 0.55362 0.15947 0.0
H832 H 0.43869 0.57732 0.19085 0.0
H833 H 0.38207 0.58674 0.11452 0.0
H834 H 0.40706 0.56204 0.08298 0.0
C835 C 0.35296 0.61045 0.1923 0.0
C836 C 0.36791 0.62937 0.21348 0.0
C837 C 0.36603 0.59621 0.17304 0.0
C838 C 0.39439 0.60051 0.17448 0.0
C839 C 0.40929 0.61989 0.19521 0.0
C840 C 0.39626 0.63402 0.21448 0.0
C841 C 0.44596 0.5607 0.14924 0.0
C842 C 0.43761 0.55621 0.11855 0.0
C843 C 0.43163 0.57449 0.16728 0.0
C844 C 0.40859 0.58447 0.15517 0.0
C845 C 0.3997 0.57929 0.12465 0.0
C846 C 0.41405 0.56523 0.10652 0.0
H847 H 0.63901 0.36891 0.1487 0.0
H848 H 0.60842 0.4118 0.21744 0.0
H849 H 0.60913 0.38795 0.10983 0.0
H850 H 0.57816 0.43019 0.17877 0.0
H851 H 0.50445 0.41987 0.10756 0.0
H852 H 0.53675 0.40139 0.14304 0.0
H853 H 0.60179 0.44167 0.08812 0.0
H854 H 0.56948 0.46103 0.05266 0.0
C855 C 0.62601 0.38253 0.15542 0.0
C856 C 0.62606 0.38895 0.18606 0.0
C857 C 0.60902 0.39345 0.13321 0.0
C858 C 0.59128 0.41039 0.14136 0.0
C859 C 0.59156 0.41706 0.17193 0.0
C860 C 0.60897 0.40671 0.19399 0.0
C861 C 0.52555 0.42452 0.10266 0.0
C862 C 0.53432 0.44194 0.07713 0.0
C863 C 0.54406 0.4141 0.12319 0.0
C864 C 0.57175 0.42029 0.11843 0.0
C865 C 0.58052 0.4366 0.09228 0.0
C866 C 0.56203 0.44762 0.072 0.0
loop_
_geom_bond_atom_site_label_1
_geom_bond_atom_site_label_2
_geom_bond_distance
_geom_bond_site_symmetry_2
_ccdc_geom_bond_type
C0 C1 1.384 . S
C0 H13 0.947 . S
C0 C35 1.382 . S
C1 C0 1.384 . S
C1 C2 1.378 . S
C2 C1 1.378 . S
C2 C3 1.378 . S
C2 H14 0.952 . S
C3 C2 1.378 . S
C3 H15 0.950 . S
C3 C34 1.383 . S
H4 C23 0.947 . S
H5 C24 0.946 . S
H6 C26 0.953 . S
H7 C27 0.945 . S
H8 C29 0.952 . S
H9 C30 0.949 . S
H10 C32 0.950 . S
H11 C33 0.948 . S
H12 C35 0.951 . S
H13 C0 0.947 . S
H14 C2 0.952 . S
H15 C3 0.950 . S
N16 C19 1.382 . S
N16 C21 1.363 . S
N17 C19 1.371 . S
N17 C20 1.372 . S
N18 C20 1.361 . S
N18 C21 1.377 . S
C19 N16 1.382 . S
C19 N17 1.371 . S
C19 C22 1.480 . S
C20 N17 1.372 . S
C20 N18 1.361 . S
C20 C28 1.457 . S
C21 N16 1.363 . S
C21 N18 1.377 . S
C21 C34 1.479 . S
C22 C19 1.480 . S
C22 C23 1.383 . S
C22 C27 1.385 . S
C23 H4 0.947 . S
C23 C22 1.383 . S
C23 C24 1.388 . S
C24 H5 0.946 . S
C24 C23 1.388 . S
C24 C25 1.384 . S
C25 C24 1.384 . S
C25 C26 1.377 . S
C26 H6 0.953 . S
C26 C25 1.377 . S
C26 C27 1.369 . S
C27 H7 0.945 . S
C27 C22 1.385 . S
C27 C26 1.369 . S
C28 C20 1.457 . S
C28 C29 1.372 . S
C28 C33 1.364 . S
C29 H8 0.952 . S
C29 C28 1.372 . S
C29 C30 1.389 . S
C30 H9 0.949 . S
C30 C29 1.389 . S
C30 C31 1.387 . S
C31 C30 1.387 . S
C31 C32 1.372 . S
C32 H10 0.950 . S
C32 C31 1.372 . S
C32 C33 1.379 . S
C33 H11 0.948 . S
C33 C28 1.364 . S
C33 C32 1.379 . S
C34 C3 1.383 . S
C34 C21 1.479 . S
C34 C35 1.398 . S
C35 C0 1.382 . S
C35 H12 0.951 . S
C35 C34 1.398 . S
C36 C37 1.384 . S
C36 H49 0.947 . S
C36 C71 1.382 . S
C37 C36 1.384 . S
C37 C38 1.378 . S
C38 C37 1.378 . S
C38 C39 1.378 . S
C38 H50 0.952 . S
C39 C38 1.378 . S
C39 H51 0.950 . S
C39 C70 1.383 . S
H40 C59 0.947 . S
H41 C60 0.946 . S
H42 C62 0.953 . S
H43 C63 0.945 . S
H44 C65 0.952 . S
H45 C66 0.949 . S
H46 C68 0.950 . S
H47 C69 0.948 . S
H48 C71 0.951 . S
H49 C36 0.947 . S
H50 C38 0.952 . S
H51 C39 0.950 . S
N52 C55 1.382 . S
N52 C57 1.363 . S
N53 C55 1.371 . S
N53 C56 1.372 . S
N54 C56 1.361 . S
N54 C57 1.377 . S
C55 N52 1.382 . S
C55 N53 1.371 . S
C55 C58 1.480 . S
C56 N53 1.372 . S
C56 N54 1.361 . S
C56 C64 1.457 . S
C57 N52 1.363 . S
C57 N54 1.377 . S
C57 C70 1.479 . S
C58 C55 1.480 . S
C58 C59 1.383 . S
C58 C63 1.385 . S
C59 H40 0.947 . S
C59 C58 1.383 . S
C59 C60 1.388 . S
C60 H41 0.946 . S
C60 C59 1.388 . S
C60 C61 1.384 . S
C61 C60 1.384 . S
C61 C62 1.377 . S
C62 H42 0.953 . S
C62 C61 1.377 . S
C62 C63 1.369 . S
C63 H43 0.945 . S
C63 C58 1.385 . S
C63 C62 1.369 . S
C64 C56 1.457 . S
C64 C65 1.372 . S
C64 C69 1.364 . S
C65 H44 0.952 . S
C65 C64 1.372 . S
C65 C66 1.389 . S
C66 H45 0.949 . S
C66 C65 1.389 . S
C66 C67 1.387 . S
C67 C66 1.387 . S
C67 C68 1.372 . S
C68 H46 0.950 . S
C68 C67 1.372 . S
C68 C69 1.379 . S
C69 H47 0.948 . S
C69 C64 1.364 . S
C69 C68 1.379 . S
C70 C39 1.383 . S
C70 C57 1.479 . S
C70 C71 1.398 . S
C71 C36 1.382 . S
C71 H48 0.951 . S
C71 C70 1.398 . S
C72 C73 1.384 . S
C72 H85 0.947 . S
C72 C107 1.382 . S
C73 C72 1.384 . S
C73 C74 1.378 . S
C74 C73 1.378 . S
C74 C75 1.378 . S
C74 H86 0.952 . S
C75 C74 1.378 . S
C75 H87 0.950 . S
C75 C106 1.383 . S
H76 C95 0.947 . S
H77 C96 0.946 . S
H78 C98 0.953 . S
H79 C99 0.945 . S
H80 C101 0.952 . S
H81 C102 0.949 . S
H82 C104 0.950 . S
H83 C105 0.948 . S
H84 C107 0.951 . S
H85 C72 0.947 . S
H86 C74 0.952 . S
H87 C75 0.950 . S
N88 C91 1.382 . S
N88 C93 1.363 . S
N89 C91 1.371 . S
N89 C92 1.372 . S
N90 C92 1.361 . S
N90 C93 1.377 . S
C91 N88 1.382 . S
C91 N89 1.371 . S
C91 C94 1.480 . S
C92 N89 1.372 . S
C92 N90 1.361 . S
C92 C100 1.457 . S
C93 N88 1.363 . S
C93 N90 1.377 . S
C93 C106 1.479 . S
C94 C91 1.480 . S
C94 C95 1.383 . S
C94 C99 1.385 . S
C95 H76 0.947 . S
C95 C94 1.383 . S
C95 C96 1.388 . S
C96 H77 0.946 . S
C96 C95 1.388 . S
C96 C97 1.384 . S
C97 C96 1.384 . S
C97 C98 1.377 . S
C98 H78 0.953 . S
C98 C97 1.377 . S
C98 C99 1.369 . S
C99 H79 0.945 . S
C99 C94 1.385 . S
C99 C98 1.369 . S
C100 C92 1.457 . S
C100 C101 1.372 . S
C100 C105 1.364 . S
C101 H80 0.952 . S
C101 C100 1.372 . S
C101 C102 1.389 . S
C102 H81 0.949 . S
C102 C101 1.389 . S
C102 C103 1.387 . S
C103 C102 1.387 . S
C103 C104 1.372 . S
C104 H82 0.950 . S
C104 C103 1.372 . S
C104 C105 1.379 . S
C105 H83 0.948 . S
C105 C100 1.364 . S
C105 C104 1.379 . S
C106 C75 1.383 . S
C106 C93 1.479 . S
C106 C107 1.398 . S
C107 C72 1.382 . S
C107 H84 0.951 . S
C107 C106 1.398 . S
C108 C109 1.384 . S
C108 H121 0.947 . S
C108 C143 1.382 . S
C109 C108 1.384 . S
C109 C110 1.378 . S
C110 C109 1.378 . S
C110 C111 1.378 . S
C110 H122 0.952 . S
C111 C110 1.378 . S
C111 H123 0.950 . S
C111 C142 1.383 . S
H112 C131 0.947 . S
H113 C132 0.946 . S
H114 C134 0.953 . S
H115 C135 0.945 . S
H116 C137 0.952 . S
H117 C138 0.949 . S
H118 C140 0.950 . S
H119 C141 0.948 . S
H120 C143 0.951 . S
H121 C108 0.947 . S
H122 C110 0.952 . S
H123 C111 0.950 . S
N124 C127 1.382 . S
N124 C129 1.363 . S
N125 C127 1.371 . S
N125 C128 1.372 . S
N126 C128 1.361 . S
N126 C129 1.377 . S
C127 N124 1.382 . S
C127 N125 1.371 . S
C127 C130 1.480 . S
C128 N125 1.372 . S
C128 N126 1.361 . S
C128 C136 1.457 . S
C129 N124 1.363 . S
C129 N126 1.377 . S
C129 C142 1.479 . S
C130 C127 1.480 . S
C130 C131 1.383 . S
C130 C135 1.385 . S
C131 H112 0.947 . S
C131 C130 1.383 . S
C131 C132 1.388 . S
C132 H113 0.946 . S
C132 C131 1.388 . S
C132 C133 1.384 . S
C133 C132 1.384 . S
C133 C134 1.377 . S
C134 H114 0.953 . S
C134 C133 1.377 . S
C134 C135 1.369 . S
C135 H115 0.945 . S
C135 C130 1.385 . S
C135 C134 1.369 . S
C136 C128 1.457 . S
C136 C137 1.372 . S
C136 C141 1.364 . S
C137 H116 0.952 . S
C137 C136 1.372 . S
C137 C138 1.389 . S
C138 H117 0.949 . S
C138 C137 1.389 . S
C138 C139 1.387 . S
C139 C138 1.387 . S
C139 C140 1.372 . S
C140 H118 0.950 . S
C140 C139 1.372 . S
C140 C141 1.379 . S
C141 H119 0.948 . S
C141 C136 1.364 . S
C141 C140 1.379 . S
C142 C111 1.383 . S
C142 C129 1.479 . S
C142 C143 1.398 . S
C143 C108 1.382 . S
C143 H120 0.951 . S
C143 C142 1.398 . S
C144 C145 1.384 . S
C144 H157 0.947 . S
C144 C179 1.382 . S
C145 C144 1.384 . S
C145 C146 1.378 . S
C146 C145 1.378 . S
C146 C147 1.378 . S
C146 H158 0.952 . S
C147 C146 1.378 . S
C147 H159 0.950 . S
C147 C178 1.383 . S
H148 C167 0.947 . S
H149 C168 0.946 . S
H150 C170 0.953 . S
H151 C171 0.945 . S
H152 C173 0.952 . S
H153 C174 0.949 . S
H154 C176 0.950 . S
H155 C177 0.948 . S
H156 C179 0.951 . S
H157 C144 0.947 . S
H158 C146 0.952 . S
H159 C147 0.950 . S
N160 C163 1.382 . S
N160 C165 1.363 . S
N161 C163 1.371 . S
N161 C164 1.372 . S
N162 C164 1.361 . S
N162 C165 1.377 . S
C163 N160 1.382 . S
C163 N161 1.371 . S
C163 C166 1.480 . S
C164 N161 1.372 . S
C164 N162 1.361 . S
C164 C172 1.457 . S
C165 N160 1.363 . S
C165 N162 1.377 . S
C165 C178 1.479 . S
C166 C163 1.480 . S
C166 C167 1.383 . S
C166 C171 1.385 . S
C167 H148 0.947 . S
C167 C166 1.383 . S
C167 C168 1.388 . S
C168 H149 0.946 . S
C168 C167 1.388 . S
C168 C169 1.384 . S
C169 C168 1.384 . S
C169 C170 1.377 . S
C170 H150 0.953 . S
C170 C169 1.377 . S
C170 C171 1.369 . S
C171 H151 0.945 . S
C171 C166 1.385 . S
C171 C170 1.369 . S
C172 C164 1.457 . S
C172 C173 1.372 . S
C172 C177 1.364 . S
C173 H152 0.952 . S
C173 C172 1.372 . S
C173 C174 1.389 . S
C174 H153 0.949 . S
C174 C173 1.389 . S
C174 C175 1.387 . S
C175 C174 1.387 . S
C175 C176 1.372 . S
C176 H154 0.950 . S
C176 C175 1.372 . S
C176 C177 1.379 . S
C177 H155 0.948 . S
C177 C172 1.364 . S
C177 C176 1.379 . S
C178 C147 1.383 . S
C178 C165 1.479 . S
C178 C179 1.398 . S
C179 C144 1.382 . S
C179 H156 0.951 . S
C179 C178 1.398 . S
C180 C181 1.384 . S
C180 H193 0.947 . S
C180 C215 1.382 . S
C181 C180 1.384 . S
C181 C182 1.378 . S
C182 C181 1.378 . S
C182 C183 1.378 . S
C182 H194 0.952 . S
C183 C182 1.378 . S
C183 H195 0.950 . S
C183 C214 1.383 . S
H184 C203 0.947 . S
H185 C204 0.946 . S
H186 C206 0.953 . S
H187 C207 0.945 . S
H188 C209 0.952 . S
H189 C210 0.949 . S
H190 C212 0.950 . S
H191 C213 0.948 . S
H192 C215 0.951 . S
H193 C180 0.947 . S
H194 C182 0.952 . S
H195 C183 0.950 . S
N196 C199 1.382 . S
N196 C201 1.363 . S
N197 C199 1.371 . S
N197 C200 1.372 . S
N198 C200 1.361 . S
N198 C201 1.377 . S
C199 N196 1.382 . S
C199 N197 1.371 . S
C199 C202 1.480 . S
C200 N197 1.372 . S
C200 N198 1.361 . S
C200 C208 1.457 . S
C201 N196 1.363 . S
C201 N198 1.377 . S
C201 C214 1.479 . S
C202 C199 1.480 . S
C202 C203 1.383 . S
C202 C207 1.385 . S
C203 H184 0.947 . S
C203 C202 1.383 . S
C203 C204 1.388 . S
C204 H185 0.946 . S
C204 C203 1.388 . S
C204 C205 1.384 . S
C205 C204 1.384 . S
C205 C206 1.377 . S
C206 H186 0.953 . S
C206 C205 1.377 . S
C206 C207 1.369 . S
C207 H187 0.945 . S
C207 C202 1.385 . S
C207 C206 1.369 . S
C208 C200 1.457 . S
C208 C209 1.372 . S
C208 C213 1.364 . S
C209 H188 0.952 . S
C209 C208 1.372 . S
C209 C210 1.389 . S
C210 H189 0.949 . S
C210 C209 1.389 . S
C210 C211 1.387 . S
C211 C210 1.387 . S
C211 C212 1.372 . S
C212 H190 0.950 . S
C212 C211 1.372 . S
C212 C213 1.379 . S
C213 H191 0.948 . S
C213 C208 1.364 . S
C213 C212 1.379 . S
C214 C183 1.383 . S
C214 C201 1.479 . S
C214 C215 1.398 . S
C215 C180 1.382 . S
C215 H192 0.951 . S
C215 C214 1.398 . S
C216 C217 1.384 . S
C216 H229 0.947 . S
C216 C251 1.382 . S
C217 C216 1.384 . S
C217 C218 1.378 . S
C218 C217 1.378 . S
C218 C219 1.378 . S
C218 H230 0.952 . S
C219 C218 1.378 . S
C219 H231 0.950 . S
C219 C250 1.383 . S
H220 C239 0.947 . S
H221 C240 0.946 . S
H222 C242 0.953 . S
H223 C243 0.945 . S
H224 C245 0.952 . S
H225 C246 0.949 . S
H226 C248 0.950 . S
H227 C249 0.948 . S
H228 C251 0.951 . S
H229 C216 0.947 . S
H230 C218 0.952 . S
H231 C219 0.950 . S
N232 C235 1.382 . S
N232 C237 1.363 . S
N233 C235 1.371 . S
N233 C236 1.372 . S
N234 C236 1.361 . S
N234 C237 1.377 . S
C235 N232 1.382 . S
C235 N233 1.371 . S
C235 C238 1.480 . S
C236 N233 1.372 . S
C236 N234 1.361 . S
C236 C244 1.457 . S
C237 N232 1.363 . S
C237 N234 1.377 . S
C237 C250 1.479 . S
C238 C235 1.480 . S
C238 C239 1.383 . S
C238 C243 1.385 . S
C239 H220 0.947 . S
C239 C238 1.383 . S
C239 C240 1.388 . S
C240 H221 0.946 . S
C240 C239 1.388 . S
C240 C241 1.384 . S
C241 C240 1.384 . S
C241 C242 1.377 . S
C242 H222 0.953 . S
C242 C241 1.377 . S
C242 C243 1.369 . S
C243 H223 0.945 . S
C243 C238 1.385 . S
C243 C242 1.369 . S
C244 C236 1.457 . S
C244 C245 1.372 . S
C244 C249 1.364 . S
C245 H224 0.952 . S
C245 C244 1.372 . S
C245 C246 1.389 . S
C246 H225 0.949 . S
C246 C245 1.389 . S
C246 C247 1.387 . S
C247 C246 1.387 . S
C247 C248 1.372 . S
C248 H226 0.950 . S
C248 C247 1.372 . S
C248 C249 1.379 . S
C249 H227 0.948 . S
C249 C244 1.364 . S
C249 C248 1.379 . S
C250 C219 1.383 . S
C250 C237 1.479 . S
C250 C251 1.398 . S
C251 C216 1.382 . S
C251 H228 0.951 . S
C251 C250 1.398 . S
C252 C253 1.384 . S
C252 H265 0.947 . S
C252 C287 1.382 . S
C253 C252 1.384 . S
C253 C254 1.378 . S
C254 C253 1.378 . S
C254 C255 1.378 . S
C254 H266 0.952 . S
C255 C254 1.378 . S
C255 H267 0.950 . S
C255 C286 1.383 . S
H256 C275 0.947 . S
H257 C276 0.946 . S
H258 C278 0.953 . S
H259 C279 0.945 . S
H260 C281 0.952 . S
H261 C282 0.949 . S
H262 C284 0.950 . S
H263 C285 0.948 . S
H264 C287 0.951 . S
H265 C252 0.947 . S
H266 C254 0.952 . S
H267 C255 0.950 . S
N268 C271 1.382 . S
N268 C273 1.363 . S
N269 C271 1.371 . S
N269 C272 1.372 . S
N270 C272 1.361 . S
N270 C273 1.377 . S
C271 N268 1.382 . S
C271 N269 1.371 . S
C271 C274 1.480 . S
C272 N269 1.372 . S
C272 N270 1.361 . S
C272 C280 1.457 . S
C273 N268 1.363 . S
C273 N270 1.377 . S
C273 C286 1.479 . S
C274 C271 1.480 . S
C274 C275 1.383 . S
C274 C279 1.385 . S
C275 H256 0.947 . S
C275 C274 1.383 . S
C275 C276 1.388 . S
C276 H257 0.946 . S
C276 C275 1.388 . S
C276 C277 1.384 . S
C277 C276 1.384 . S
C277 C278 1.377 . S
C278 H258 0.953 . S
C278 C277 1.377 . S
C278 C279 1.369 . S
C279 H259 0.945 . S
C279 C274 1.385 . S
C279 C278 1.369 . S
C280 C272 1.457 . S
C280 C281 1.372 . S
C280 C285 1.364 . S
C281 H260 0.952 . S
C281 C280 1.372 . S
C281 C282 1.389 . S
C282 H261 0.949 . S
C282 C281 1.389 . S
C282 C283 1.387 . S
C283 C282 1.387 . S
C283 C284 1.372 . S
C284 H262 0.950 . S
C284 C283 1.372 . S
C284 C285 1.379 . S
C285 H263 0.948 . S
C285 C280 1.364 . S
C285 C284 1.379 . S
C286 C255 1.383 . S
C286 C273 1.479 . S
C286 C287 1.398 . S
C287 C252 1.382 . S
C287 H264 0.951 . S
C287 C286 1.398 . S
Co288 O291 2.042 . S
Co288 O298 2.264 . S
Co288 O317 2.286 . S
Co288 O318 2.069 . S
Co288 O320 2.015 . S
Co289 O291 2.122 . S
Co289 O297 2.073 . S
Co289 O298 2.327 . S
Co289 O299 1.976 . S
Co290 O291 2.087 . S
Co290 O293 2.087 1_455 S
Co290 O300 2.111 . S
Co290 O301 2.143 1_455 S
Co290 O305 2.111 1_455 S
Co290 O319 2.143 . S
O291 Co288 2.042 . S
O291 Co289 2.122 . S
O291 Co290 2.087 . S
O291 H292 0.980 . S
H292 O291 0.980 . S
O293 Co290 2.087 1_655 S
O293 Co294 2.042 . S
O293 Co295 2.122 . S
O293 H296 0.980 . S
Co294 O293 2.042 . S
Co294 O302 2.286 . S
Co294 O303 2.069 . S
Co294 O304 2.015 . S
Co294 O307 2.264 . S
Co295 O293 2.122 . S
Co295 O306 1.976 . S
Co295 O307 2.327 . S
Co295 O308 2.073 . S
H296 O293 0.980 . S
O297 Co289 2.073 . S
O297 C312 1.245 . S
O298 Co288 2.264 . S
O298 Co289 2.327 . S
O298 C312 1.257 . S
O299 Co289 1.976 . S
O299 C311 1.251 . S
O300 Co290 2.111 . S
O300 C311 1.274 . S
O301 Co290 2.143 1_655 S
O301 C314 1.246 . S
O302 Co294 2.286 . S
O302 C313 1.259 . S
O303 Co294 2.069 . S
O303 C313 1.289 . S
O304 Co294 2.015 . S
O304 C314 1.257 . S
O305 Co290 2.111 1_655 S
O305 C315 1.274 . S
O306 Co295 1.976 . S
O306 C315 1.251 . S
O307 Co294 2.264 . S
O307 Co295 2.327 . S
O307 C316 1.257 . S
O308 Co295 2.073 . S
O308 C316 1.245 . S
C309 O317 1.259 . S
C309 O318 1.289 . S
C310 O319 1.246 . S
C310 O320 1.257 . S
C311 O299 1.251 . S
C311 O300 1.274 . S
C312 O297 1.245 . S
C312 O298 1.257 . S
C313 O302 1.259 . S
C313 O303 1.289 . S
C314 O301 1.246 . S
C314 O304 1.257 . S
C315 O305 1.274 . S
C315 O306 1.251 . S
C316 O307 1.257 . S
C316 O308 1.245 . S
O317 Co288 2.286 . S
O317 C309 1.259 . S
O318 Co288 2.069 . S
O318 C309 1.289 . S
O319 Co290 2.143 . S
O319 C310 1.246 . S
O320 Co288 2.015 . S
O320 C310 1.257 . S
Co321 O324 2.042 . S
Co321 O331 2.264 . S
Co321 O350 2.286 . S
Co321 O351 2.069 . S
Co321 O353 2.015 . S
Co322 O324 2.122 . S
Co322 O330 2.073 . S
Co322 O331 2.327 . S
Co322 O332 1.976 . S
Co323 O324 2.087 1_545 S
Co323 O326 2.087 . S
Co323 O333 2.111 1_545 S
Co323 O334 2.143 . S
Co323 O338 2.111 . S
Co323 O352 2.143 1_545 S
O324 Co321 2.042 . S
O324 Co322 2.122 . S
O324 Co323 2.087 1_565 S
O324 H325 0.980 . S
H325 O324 0.980 . S
O326 Co323 2.087 . S
O326 Co327 2.042 . S
O326 Co328 2.122 . S
O326 H329 0.980 . S
Co327 O326 2.042 . S
Co327 O335 2.286 . S
Co327 O336 2.069 . S
Co327 O337 2.015 . S
Co327 O340 2.264 . S
Co328 O326 2.122 . S
Co328 O339 1.976 . S
Co328 O340 2.327 . S
Co328 O341 2.073 . S
H329 O326 0.980 . S
O330 Co322 2.073 . S
O330 C345 1.245 . S
O331 Co321 2.264 . S
O331 Co322 2.327 . S
O331 C345 1.257 . S
O332 Co322 1.976 . S
O332 C344 1.251 . S
O333 Co323 2.111 1_565 S
O333 C344 1.274 . S
O334 Co323 2.143 . S
O334 C347 1.246 . S
O335 Co327 2.286 . S
O335 C346 1.259 . S
O336 Co327 2.069 . S
O336 C346 1.289 . S
O337 Co327 2.015 . S
O337 C347 1.257 . S
O338 Co323 2.111 . S
O338 C348 1.274 . S
O339 Co328 1.976 . S
O339 C348 1.251 . S
O340 Co327 2.264 . S
O340 Co328 2.327 . S
O340 C349 1.257 . S
O341 Co328 2.073 . S
O341 C349 1.245 . S
C342 O350 1.259 . S
C342 O351 1.289 . S
C343 O352 1.246 . S
C343 O353 1.257 . S
C344 O332 1.251 . S
C344 O333 1.274 . S
C345 O330 1.245 . S
C345 O331 1.257 . S
C346 O335 1.259 . S
C346 O336 1.289 . S
C347 O334 1.246 . S
C347 O337 1.257 . S
C348 O338 1.274 . S
C348 O339 1.251 . S
C349 O340 1.257 . S
C349 O341 1.245 . S
O350 Co321 2.286 . S
O350 C342 1.259 . S
O351 Co321 2.069 . S
O351 C342 1.289 . S
O352 Co323 2.143 1_565 S
O352 C343 1.246 . S
O353 Co321 2.015 . S
O353 C343 1.257 . S
Co354 O357 2.042 . S
Co354 O364 2.264 . S
Co354 O383 2.286 . S
Co354 O384 2.069 . S
Co354 O386 2.015 . S
Co355 O357 2.122 . S
Co355 O363 2.073 . S
Co355 O364 2.327 . S
Co355 O365 1.976 . S
Co356 O357 2.087 . S
Co356 O359 2.087 1_554 S
Co356 O366 2.111 . S
Co356 O367 2.143 1_554 S
Co356 O371 2.111 1_554 S
Co356 O385 2.143 . S
O357 Co354 2.042 . S
O357 Co355 2.122 . S
O357 Co356 2.087 . S
O357 H358 0.980 . S
H358 O357 0.980 . S
O359 Co356 2.087 1_556 S
O359 Co360 2.042 . S
O359 Co361 2.122 . S
O359 H362 0.980 . S
Co360 O359 2.042 . S
Co360 O368 2.286 . S
Co360 O369 2.069 . S
Co360 O370 2.015 . S
Co360 O373 2.264 . S
Co361 O359 2.122 . S
Co361 O372 1.976 . S
Co361 O373 2.327 . S
Co361 O374 2.073 . S
H362 O359 0.980 . S
O363 Co355 2.073 . S
O363 C378 1.245 . S
O364 Co354 2.264 . S
O364 Co355 2.327 . S
O364 C378 1.257 . S
O365 Co355 1.976 . S
O365 C377 1.251 . S
O366 Co356 2.111 . S
O366 C377 1.274 . S
O367 Co356 2.143 1_556 S
O367 C380 1.246 . S
O368 Co360 2.286 . S
O368 C379 1.259 . S
O369 Co360 2.069 . S
O369 C379 1.289 . S
O370 Co360 2.015 . S
O370 C380 1.257 . S
O371 Co356 2.111 1_556 S
O371 C381 1.274 . S
O372 Co361 1.976 . S
O372 C381 1.251 . S
O373 Co360 2.264 . S
O373 Co361 2.327 . S
O373 C382 1.257 . S
O374 Co361 2.073 . S
O374 C382 1.245 . S
C375 O383 1.259 . S
C375 O384 1.289 . S
C376 O385 1.246 . S
C376 O386 1.257 . S
C377 O365 1.251 . S
C377 O366 1.274 . S
C378 O363 1.245 . S
C378 O364 1.257 . S
C379 O368 1.259 . S
C379 O369 1.289 . S
C380 O367 1.246 . S
C380 O370 1.257 . S
C381 O371 1.274 . S
C381 O372 1.251 . S
C382 O373 1.257 . S
C382 O374 1.245 . S
O383 Co354 2.286 . S
O383 C375 1.259 . S
O384 Co354 2.069 . S
O384 C375 1.289 . S
O385 Co356 2.143 . S
O385 C376 1.246 . S
O386 Co354 2.015 . S
O386 C376 1.257 . S
H387 C395 0.950 . S
H388 C400 0.950 . S
H389 C397 0.950 . S
H390 C399 0.950 . S
H391 C401 0.950 . S
H392 C403 0.950 . S
H393 C405 0.950 . S
H394 C406 0.950 . S
C395 H387 0.950 . S
C395 C396 1.386 . S
C395 C397 1.391 . S
C396 C395 1.386 . S
C396 C400 1.393 . S
C397 H389 0.950 . S
C397 C395 1.391 . S
C397 C398 1.400 . S
C398 C397 1.400 . S
C398 C399 1.398 . S
C398 C404 1.491 . S
C399 H390 0.950 . S
C399 C398 1.398 . S
C399 C400 1.391 . S
C400 H388 0.950 . S
C400 C396 1.393 . S
C400 C399 1.391 . S
C401 H391 0.950 . S
C401 C402 1.386 . S
C401 C403 1.391 . S
C402 C401 1.386 . S
C402 C406 1.393 . S
C403 H392 0.950 . S
C403 C401 1.391 . S
C403 C404 1.400 . S
C404 C398 1.491 . S
C404 C403 1.400 . S
C404 C405 1.398 . S
C405 H393 0.950 . S
C405 C404 1.398 . S
C405 C406 1.391 . S
C406 H394 0.950 . S
C406 C402 1.393 . S
C406 C405 1.391 . S
H407 C415 0.950 . S
H408 C420 0.950 . S
H409 C417 0.950 . S
H410 C419 0.950 . S
H411 C421 0.950 . S
H412 C423 0.950 . S
H413 C425 0.950 . S
H414 C426 0.950 . S
C415 H407 0.950 . S
C415 C416 1.386 . S
C415 C417 1.391 . S
C416 C415 1.386 . S
C416 C420 1.393 . S
C417 H409 0.950 . S
C417 C415 1.391 . S
C417 C418 1.400 . S
C418 C417 1.400 . S
C418 C419 1.398 . S
C418 C424 1.491 . S
C419 H410 0.950 . S
C419 C418 1.398 . S
C419 C420 1.391 . S
C420 H408 0.950 . S
C420 C416 1.393 . S
C420 C419 1.391 . S
C421 H411 0.950 . S
C421 C422 1.386 . S
C421 C423 1.391 . S
C422 C421 1.386 . S
C422 C426 1.393 . S
C423 H412 0.950 . S
C423 C421 1.391 . S
C423 C424 1.400 . S
C424 C418 1.491 . S
C424 C423 1.400 . S
C424 C425 1.398 . S
C425 H413 0.950 . S
C425 C424 1.398 . S
C425 C426 1.391 . S
C426 H414 0.950 . S
C426 C422 1.393 . S
C426 C425 1.391 . S
H427 C435 0.950 . S
H428 C440 0.950 . S
H429 C437 0.950 . S
H430 C439 0.950 . S
H431 C441 0.950 . S
H432 C443 0.950 . S
H433 C445 0.950 . S
H434 C446 0.950 . S
C435 H427 0.950 . S
C435 C436 1.386 . S
C435 C437 1.391 . S
C436 C435 1.386 . S
C436 C440 1.393 . S
C437 H429 0.950 . S
C437 C435 1.391 . S
C437 C438 1.400 . S
C438 C437 1.400 . S
C438 C439 1.398 . S
C438 C444 1.491 . S
C439 H430 0.950 . S
C439 C438 1.398 . S
C439 C440 1.391 . S
C440 H428 0.950 . S
C440 C436 1.393 . S
C440 C439 1.391 . S
C441 H431 0.950 . S
C441 C442 1.386 . S
C441 C443 1.391 . S
C442 C441 1.386 . S
C442 C446 1.393 . S
C443 H432 0.950 . S
C443 C441 1.391 . S
C443 C444 1.400 . S
C444 C438 1.491 . S
C444 C443 1.400 . S
C444 C445 1.398 . S
C445 H433 0.950 . S
C445 C444 1.398 . S
C445 C446 1.391 . S
C446 H434 0.950 . S
C446 C442 1.393 . S
C446 C445 1.391 . S
H447 C455 0.950 . S
H448 C460 0.950 . S
H449 C457 0.950 . S
H450 C459 0.950 . S
H451 C461 0.950 . S
H452 C463 0.950 . S
H453 C465 0.950 . S
H454 C466 0.950 . S
C455 H447 0.950 . S
C455 C456 1.386 . S
C455 C457 1.391 . S
C456 C455 1.386 . S
C456 C460 1.393 . S
C457 H449 0.950 . S
C457 C455 1.391 . S
C457 C458 1.400 . S
C458 C457 1.400 . S
C458 C459 1.398 . S
C458 C464 1.491 . S
C459 H450 0.950 . S
C459 C458 1.398 . S
C459 C460 1.391 . S
C460 H448 0.950 . S
C460 C456 1.393 . S
C460 C459 1.391 . S
C461 H451 0.950 . S
C461 C462 1.386 . S
C461 C463 1.391 . S
C462 C461 1.386 . S
C462 C466 1.393 . S
C463 H452 0.950 . S
C463 C461 1.391 . S
C463 C464 1.400 . S
C464 C458 1.491 . S
C464 C463 1.400 . S
C464 C465 1.398 . S
C465 H453 0.950 . S
C465 C464 1.398 . S
C465 C466 1.391 . S
C466 H454 0.950 . S
C466 C462 1.393 . S
C466 C465 1.391 . S
H467 C475 0.950 . S
H468 C480 0.950 . S
H469 C477 0.950 . S
H470 C479 0.950 . S
H471 C481 0.950 . S
H472 C483 0.950 . S
H473 C485 0.950 . S
H474 C486 0.950 . S
C475 H467 0.950 . S
C475 C476 1.386 . S
C475 C477 1.391 . S
C476 C475 1.386 . S
C476 C480 1.393 . S
C477 H469 0.950 . S
C477 C475 1.391 . S
C477 C478 1.400 . S
C478 C477 1.400 . S
C478 C479 1.398 . S
C478 C484 1.491 . S
C479 H470 0.950 . S
C479 C478 1.398 . S
C479 C480 1.391 . S
C480 H468 0.950 . S
C480 C476 1.393 . S
C480 C479 1.391 . S
C481 H471 0.950 . S
C481 C482 1.386 . S
C481 C483 1.391 . S
C482 C481 1.386 . S
C482 C486 1.393 . S
C483 H472 0.950 . S
C483 C481 1.391 . S
C483 C484 1.400 . S
C484 C478 1.491 . S
C484 C483 1.400 . S
C484 C485 1.398 . S
C485 H473 0.950 . S
C485 C484 1.398 . S
C485 C486 1.391 . S
C486 H474 0.950 . S
C486 C482 1.393 . S
C486 C485 1.391 . S
H487 C495 0.950 . S
H488 C500 0.950 . S
H489 C497 0.950 . S
H490 C499 0.950 . S
H491 C501 0.950 . S
H492 C503 0.950 . S
H493 C505 0.950 . S
H494 C506 0.950 . S
C495 H487 0.950 . S
C495 C496 1.386 . S
C495 C497 1.391 . S
C496 C495 1.386 . S
C496 C500 1.393 . S
C497 H489 0.950 . S
C497 C495 1.391 . S
C497 C498 1.400 . S
C498 C497 1.400 . S
C498 C499 1.398 . S
C498 C504 1.491 . S
C499 H490 0.950 . S
C499 C498 1.398 . S
C499 C500 1.391 . S
C500 H488 0.950 . S
C500 C496 1.393 . S
C500 C499 1.391 . S
C501 H491 0.950 . S
C501 C502 1.386 . S
C501 C503 1.391 . S
C502 C501 1.386 . S
C502 C506 1.393 . S
C503 H492 0.950 . S
C503 C501 1.391 . S
C503 C504 1.400 . S
C504 C498 1.491 . S
C504 C503 1.400 . S
C504 C505 1.398 . S
C505 H493 0.950 . S
C505 C504 1.398 . S
C505 C506 1.391 . S
C506 H494 0.950 . S
C506 C502 1.393 . S
C506 C505 1.391 . S
H507 C515 0.950 . S
H508 C520 0.950 . S
H509 C517 0.950 . S
H510 C519 0.950 . S
H511 C521 0.950 . S
H512 C523 0.950 . S
H513 C525 0.950 . S
H514 C526 0.950 . S
C515 H507 0.950 . S
C515 C516 1.386 . S
C515 C517 1.391 . S
C516 C515 1.386 . S
C516 C520 1.393 . S
C517 H509 0.950 . S
C517 C515 1.391 . S
C517 C518 1.400 . S
C518 C517 1.400 . S
C518 C519 1.398 . S
C518 C524 1.491 . S
C519 H510 0.950 . S
C519 C518 1.398 . S
C519 C520 1.391 . S
C520 H508 0.950 . S
C520 C516 1.393 . S
C520 C519 1.391 . S
C521 H511 0.950 . S
C521 C522 1.386 . S
C521 C523 1.391 . S
C522 C521 1.386 . S
C522 C526 1.393 . S
C523 H512 0.950 . S
C523 C521 1.391 . S
C523 C524 1.400 . S
C524 C518 1.491 . S
C524 C523 1.400 . S
C524 C525 1.398 . S
C525 H513 0.950 . S
C525 C524 1.398 . S
C525 C526 1.391 . S
C526 H514 0.950 . S
C526 C522 1.393 . S
C526 C525 1.391 . S
H527 C535 0.950 . S
H528 C540 0.950 . S
H529 C537 0.950 . S
H530 C539 0.950 . S
H531 C541 0.950 . S
H532 C543 0.950 . S
H533 C545 0.950 . S
H534 C546 0.950 . S
C535 H527 0.950 . S
C535 C536 1.386 . S
C535 C537 1.391 . S
C536 C535 1.386 . S
C536 C540 1.393 . S
C537 H529 0.950 . S
C537 C535 1.391 . S
C537 C538 1.400 . S
C538 C537 1.400 . S
C538 C539 1.398 . S
C538 C544 1.491 . S
C539 H530 0.950 . S
C539 C538 1.398 . S
C539 C540 1.391 . S
C540 H528 0.950 . S
C540 C536 1.393 . S
C540 C539 1.391 . S
C541 H531 0.950 . S
C541 C542 1.386 . S
C541 C543 1.391 . S
C542 C541 1.386 . S
C542 C546 1.393 . S
C543 H532 0.950 . S
C543 C541 1.391 . S
C543 C544 1.400 . S
C544 C538 1.491 . S
C544 C543 1.400 . S
C544 C545 1.398 . S
C545 H533 0.950 . S
C545 C544 1.398 . S
C545 C546 1.391 . S
C546 H534 0.950 . S
C546 C542 1.393 . S
C546 C545 1.391 . S
H547 C555 0.950 . S
H548 C560 0.950 . S
H549 C557 0.950 . S
H550 C559 0.950 . S
H551 C561 0.950 . S
H552 C563 0.950 . S
H553 C565 0.950 . S
H554 C566 0.950 . S
C555 H547 0.950 . S
C555 C556 1.386 . S
C555 C557 1.391 . S
C556 C555 1.386 . S
C556 C560 1.393 . S
C557 H549 0.950 . S
C557 C555 1.391 . S
C557 C558 1.400 . S
C558 C557 1.400 . S
C558 C559 1.398 . S
C558 C564 1.491 . S
C559 H550 0.950 . S
C559 C558 1.398 . S
C559 C560 1.391 . S
C560 H548 0.950 . S
C560 C556 1.393 . S
C560 C559 1.391 . S
C561 H551 0.950 . S
C561 C562 1.386 . S
C561 C563 1.391 . S
C562 C561 1.386 . S
C562 C566 1.393 . S
C563 H552 0.950 . S
C563 C561 1.391 . S
C563 C564 1.400 . S
C564 C558 1.491 . S
C564 C563 1.400 . S
C564 C565 1.398 . S
C565 H553 0.950 . S
C565 C564 1.398 . S
C565 C566 1.391 . S
C566 H554 0.950 . S
C566 C562 1.393 . S
C566 C565 1.391 . S
H567 C575 0.950 . S
H568 C580 0.950 . S
H569 C577 0.950 . S
H570 C579 0.950 . S
H571 C581 0.950 . S
H572 C583 0.950 . S
H573 C585 0.950 . S
H574 C586 0.950 . S
C575 H567 0.950 . S
C575 C576 1.386 . S
C575 C577 1.391 . S
C576 C575 1.386 . S
C576 C580 1.393 . S
C577 H569 0.950 . S
C577 C575 1.391 . S
C577 C578 1.400 . S
C578 C577 1.400 . S
C578 C579 1.398 . S
C578 C584 1.491 . S
C579 H570 0.950 . S
C579 C578 1.398 . S
C579 C580 1.391 . S
C580 H568 0.950 . S
C580 C576 1.393 . S
C580 C579 1.391 . S
C581 H571 0.950 . S
C581 C582 1.386 . S
C581 C583 1.391 . S
C582 C581 1.386 . S
C582 C586 1.393 . S
C583 H572 0.950 . S
C583 C581 1.391 . S
C583 C584 1.400 . S
C584 C578 1.491 . S
C584 C583 1.400 . S
C584 C585 1.398 . S
C585 H573 0.950 . S
C585 C584 1.398 . S
C585 C586 1.391 . S
C586 H574 0.950 . S
C586 C582 1.393 . S
C586 C585 1.391 . S
H587 C595 0.950 . S
H588 C600 0.950 . S
H589 C597 0.950 . S
H590 C599 0.950 . S
H591 C601 0.950 . S
H592 C603 0.950 . S
H593 C605 0.950 . S
H594 C606 0.950 . S
C595 H587 0.950 . S
C595 C596 1.386 . S
C595 C597 1.391 . S
C596 C595 1.386 . S
C596 C600 1.393 . S
C597 H589 0.950 . S
C597 C595 1.391 . S
C597 C598 1.400 . S
C598 C597 1.400 . S
C598 C599 1.398 . S
C598 C604 1.491 . S
C599 H590 0.950 . S
C599 C598 1.398 . S
C599 C600 1.391 . S
C600 H588 0.950 . S
C600 C596 1.393 . S
C600 C599 1.391 . S
C601 H591 0.950 . S
C601 C602 1.386 . S
C601 C603 1.391 . S
C602 C601 1.386 . S
C602 C606 1.393 . S
C603 H592 0.950 . S
C603 C601 1.391 . S
C603 C604 1.400 . S
C604 C598 1.491 . S
C604 C603 1.400 . S
C604 C605 1.398 . S
C605 H593 0.950 . S
C605 C604 1.398 . S
C605 C606 1.391 . S
C606 H594 0.950 . S
C606 C602 1.393 . S
C606 C605 1.391 . S
H607 C615 0.950 . S
H608 C620 0.950 . S
H609 C617 0.950 . S
H610 C619 0.950 . S
H611 C621 0.950 . S
H612 C623 0.950 . S
H613 C625 0.950 . S
H614 C626 0.950 . S
C615 H607 0.950 . S
C615 C616 1.386 . S
C615 C617 1.391 . S
C616 C615 1.386 . S
C616 C620 1.393 . S
C617 H609 0.950 . S
C617 C615 1.391 . S
C617 C618 1.400 . S
C618 C617 1.400 . S
C618 C619 1.398 . S
C618 C624 1.491 . S
C619 H610 0.950 . S
C619 C618 1.398 . S
C619 C620 1.391 . S
C620 H608 0.950 . S
C620 C616 1.393 . S
C620 C619 1.391 . S
C621 H611 0.950 . S
C621 C622 1.386 . S
C621 C623 1.391 . S
C622 C621 1.386 . S
C622 C626 1.393 . S
C623 H612 0.950 . S
C623 C621 1.391 . S
C623 C624 1.400 . S
C624 C618 1.491 . S
C624 C623 1.400 . S
C624 C625 1.398 . S
C625 H613 0.950 . S
C625 C624 1.398 . S
C625 C626 1.391 . S
C626 H614 0.950 . S
C626 C622 1.393 . S
C626 C625 1.391 . S
H627 C635 0.950 . S
H628 C640 0.950 . S
H629 C637 0.950 . S
H630 C639 0.950 . S
H631 C641 0.950 . S
H632 C643 0.950 . S
H633 C645 0.950 . S
H634 C646 0.950 . S
C635 H627 0.950 . S
C635 C636 1.386 . S
C635 C637 1.391 . S
C636 C635 1.386 . S
C636 C640 1.393 . S
C637 H629 0.950 . S
C637 C635 1.391 . S
C637 C638 1.400 . S
C638 C637 1.400 . S
C638 C639 1.398 . S
C638 C644 1.491 . S
C639 H630 0.950 . S
C639 C638 1.398 . S
C639 C640 1.391 . S
C640 H628 0.950 . S
C640 C636 1.393 . S
C640 C639 1.391 . S
C641 H631 0.950 . S
C641 C642 1.386 . S
C641 C643 1.391 . S
C642 C641 1.386 . S
C642 C646 1.393 . S
C643 H632 0.950 . S
C643 C641 1.391 . S
C643 C644 1.400 . S
C644 C638 1.491 . S
C644 C643 1.400 . S
C644 C645 1.398 . S
C645 H633 0.950 . S
C645 C644 1.398 . S
C645 C646 1.391 . S
C646 H634 0.950 . S
C646 C642 1.393 . S
C646 C645 1.391 . S
H647 C655 0.950 . S
H648 C660 0.950 . S
H649 C657 0.950 . S
H650 C659 0.950 . S
H651 C661 0.950 . S
H652 C663 0.950 . S
H653 C665 0.950 . S
H654 C666 0.950 . S
C655 H647 0.950 . S
C655 C656 1.386 . S
C655 C657 1.391 . S
C656 C655 1.386 . S
C656 C660 1.393 . S
C657 H649 0.950 . S
C657 C655 1.391 . S
C657 C658 1.400 . S
C658 C657 1.400 . S
C658 C659 1.398 . S
C658 C664 1.491 . S
C659 H650 0.950 . S
C659 C658 1.398 . S
C659 C660 1.391 . S
C660 H648 0.950 . S
C660 C656 1.393 . S
C660 C659 1.391 . S
C661 H651 0.950 . S
C661 C662 1.386 . S
C661 C663 1.391 . S
C662 C661 1.386 . S
C662 C666 1.393 . S
C663 H652 0.950 . S
C663 C661 1.391 . S
C663 C664 1.400 . S
C664 C658 1.491 . S
C664 C663 1.400 . S
C664 C665 1.398 . S
C665 H653 0.950 . S
C665 C664 1.398 . S
C665 C666 1.391 . S
C666 H654 0.950 . S
C666 C662 1.393 . S
C666 C665 1.391 . S
H667 C675 0.950 . S
H668 C680 0.950 . S
H669 C677 0.950 . S
H670 C679 0.950 . S
H671 C681 0.950 . S
H672 C683 0.950 . S
H673 C685 0.950 . S
H674 C686 0.950 . S
C675 H667 0.950 . S
C675 C676 1.386 . S
C675 C677 1.391 . S
C676 C675 1.386 . S
C676 C680 1.393 . S
C677 H669 0.950 . S
C677 C675 1.391 . S
C677 C678 1.400 . S
C678 C677 1.400 . S
C678 C679 1.398 . S
C678 C684 1.491 . S
C679 H670 0.950 . S
C679 C678 1.398 . S
C679 C680 1.391 . S
C680 H668 0.950 . S
C680 C676 1.393 . S
C680 C679 1.391 . S
C681 H671 0.950 . S
C681 C682 1.386 . S
C681 C683 1.391 . S
C682 C681 1.386 . S
C682 C686 1.393 . S
C683 H672 0.950 . S
C683 C681 1.391 . S
C683 C684 1.400 . S
C684 C678 1.491 . S
C684 C683 1.400 . S
C684 C685 1.398 . S
C685 H673 0.950 . S
C685 C684 1.398 . S
C685 C686 1.391 . S
C686 H674 0.950 . S
C686 C682 1.393 . S
C686 C685 1.391 . S
H687 C695 0.950 . S
H688 C700 0.950 . S
H689 C697 0.950 . S
H690 C699 0.950 . S
H691 C701 0.950 . S
H692 C703 0.950 . S
H693 C705 0.950 . S
H694 C706 0.950 . S
C695 H687 0.950 . S
C695 C696 1.386 . S
C695 C697 1.391 . S
C696 C695 1.386 . S
C696 C700 1.393 . S
C697 H689 0.950 . S
C697 C695 1.391 . S
C697 C698 1.400 . S
C698 C697 1.400 . S
C698 C699 1.398 . S
C698 C704 1.491 . S
C699 H690 0.950 . S
C699 C698 1.398 . S
C699 C700 1.391 . S
C700 H688 0.950 . S
C700 C696 1.393 . S
C700 C699 1.391 . S
C701 H691 0.950 . S
C701 C702 1.386 . S
C701 C703 1.391 . S
C702 C701 1.386 . S
C702 C706 1.393 . S
C703 H692 0.950 . S
C703 C701 1.391 . S
C703 C704 1.400 . S
C704 C698 1.491 . S
C704 C703 1.400 . S
C704 C705 1.398 . S
C705 H693 0.950 . S
C705 C704 1.398 . S
C705 C706 1.391 . S
C706 H694 0.950 . S
C706 C702 1.393 . S
C706 C705 1.391 . S
H707 C715 0.950 . S
H708 C720 0.950 . S
H709 C717 0.950 . S
H710 C719 0.950 . S
H711 C721 0.950 . S
H712 C723 0.950 . S
H713 C725 0.950 . S
H714 C726 0.950 . S
C715 H707 0.950 . S
C715 C716 1.386 . S
C715 C717 1.391 . S
C716 C715 1.386 . S
C716 C720 1.393 . S
C717 H709 0.950 . S
C717 C715 1.391 . S
C717 C718 1.400 . S
C718 C717 1.400 . S
C718 C719 1.398 . S
C718 C724 1.491 . S
C719 H710 0.950 . S
C719 C718 1.398 . S
C719 C720 1.391 . S
C720 H708 0.950 . S
C720 C716 1.393 . S
C720 C719 1.391 . S
C721 H711 0.950 . S
C721 C722 1.386 . S
C721 C723 1.391 . S
C722 C721 1.386 . S
C722 C726 1.393 . S
C723 H712 0.950 . S
C723 C721 1.391 . S
C723 C724 1.400 . S
C724 C718 1.491 . S
C724 C723 1.400 . S
C724 C725 1.398 . S
C725 H713 0.950 . S
C725 C724 1.398 . S
C725 C726 1.391 . S
C726 H714 0.950 . S
C726 C722 1.393 . S
C726 C725 1.391 . S
H727 C735 0.950 . S
H728 C740 0.950 . S
H729 C737 0.950 . S
H730 C739 0.950 . S
H731 C741 0.950 . S
H732 C743 0.950 . S
H733 C745 0.950 . S
H734 C746 0.950 . S
C735 H727 0.950 . S
C735 C736 1.386 . S
C735 C737 1.391 . S
C736 C735 1.386 . S
C736 C740 1.393 . S
C737 H729 0.950 . S
C737 C735 1.391 . S
C737 C738 1.400 . S
C738 C737 1.400 . S
C738 C739 1.398 . S
C738 C744 1.491 . S
C739 H730 0.950 . S
C739 C738 1.398 . S
C739 C740 1.391 . S
C740 H728 0.950 . S
C740 C736 1.393 . S
C740 C739 1.391 . S
C741 H731 0.950 . S
C741 C742 1.386 . S
C741 C743 1.391 . S
C742 C741 1.386 . S
C742 C746 1.393 . S
C743 H732 0.950 . S
C743 C741 1.391 . S
C743 C744 1.400 . S
C744 C738 1.491 . S
C744 C743 1.400 . S
C744 C745 1.398 . S
C745 H733 0.950 . S
C745 C744 1.398 . S
C745 C746 1.391 . S
C746 H734 0.950 . S
C746 C742 1.393 . S
C746 C745 1.391 . S
H747 C755 0.950 . S
H748 C760 0.950 . S
H749 C757 0.950 . S
H750 C759 0.950 . S
H751 C761 0.950 . S
H752 C763 0.950 . S
H753 C765 0.950 . S
H754 C766 0.950 . S
C755 H747 0.950 . S
C755 C756 1.386 . S
C755 C757 1.391 . S
C756 C755 1.386 . S
C756 C760 1.393 . S
C757 H749 0.950 . S
C757 C755 1.391 . S
C757 C758 1.400 . S
C758 C757 1.400 . S
C758 C759 1.398 . S
C758 C764 1.491 . S
C759 H750 0.950 . S
C759 C758 1.398 . S
C759 C760 1.391 . S
C760 H748 0.950 . S
C760 C756 1.393 . S
C760 C759 1.391 . S
C761 H751 0.950 . S
C761 C762 1.386 . S
C761 C763 1.391 . S
C762 C761 1.386 . S
C762 C766 1.393 . S
C763 H752 0.950 . S
C763 C761 1.391 . S
C763 C764 1.400 . S
C764 C758 1.491 . S
C764 C763 1.400 . S
C764 C765 1.398 . S
C765 H753 0.950 . S
C765 C764 1.398 . S
C765 C766 1.391 . S
C766 H754 0.950 . S
C766 C762 1.393 . S
C766 C765 1.391 . S
H767 C775 0.950 . S
H768 C780 0.950 . S
H769 C777 0.950 . S
H770 C779 0.950 . S
H771 C781 0.950 . S
H772 C783 0.950 . S
H773 C785 0.950 . S
H774 C786 0.950 . S
C775 H767 0.950 . S
C775 C776 1.386 . S
C775 C777 1.391 . S
C776 C775 1.386 . S
C776 C780 1.393 . S
C777 H769 0.950 . S
C777 C775 1.391 . S
C777 C778 1.400 . S
C778 C777 1.400 . S
C778 C779 1.398 . S
C778 C784 1.491 . S
C779 H770 0.950 . S
C779 C778 1.398 . S
C779 C780 1.391 . S
C780 H768 0.950 . S
C780 C776 1.393 . S
C780 C779 1.391 . S
C781 H771 0.950 . S
C781 C782 1.386 . S
C781 C783 1.391 . S
C782 C781 1.386 . S
C782 C786 1.393 . S
C783 H772 0.950 . S
C783 C781 1.391 . S
C783 C784 1.400 . S
C784 C778 1.491 . S
C784 C783 1.400 . S
C784 C785 1.398 . S
C785 H773 0.950 . S
C785 C784 1.398 . S
C785 C786 1.391 . S
C786 H774 0.950 . S
C786 C782 1.393 . S
C786 C785 1.391 . S
H787 C795 0.950 . S
H788 C800 0.950 . S
H789 C797 0.950 . S
H790 C799 0.950 . S
H791 C801 0.950 . S
H792 C803 0.950 . S
H793 C805 0.950 . S
H794 C806 0.950 . S
C795 H787 0.950 . S
C795 C796 1.386 . S
C795 C797 1.391 . S
C796 C795 1.386 . S
C796 C800 1.393 . S
C797 H789 0.950 . S
C797 C795 1.391 . S
C797 C798 1.400 . S
C798 C797 1.400 . S
C798 C799 1.398 . S
C798 C804 1.491 . S
C799 H790 0.950 . S
C799 C798 1.398 . S
C799 C800 1.391 . S
C800 H788 0.950 . S
C800 C796 1.393 . S
C800 C799 1.391 . S
C801 H791 0.950 . S
C801 C802 1.386 . S
C801 C803 1.391 . S
C802 C801 1.386 . S
C802 C806 1.393 . S
C803 H792 0.950 . S
C803 C801 1.391 . S
C803 C804 1.400 . S
C804 C798 1.491 . S
C804 C803 1.400 . S
C804 C805 1.398 . S
C805 H793 0.950 . S
C805 C804 1.398 . S
C805 C806 1.391 . S
C806 H794 0.950 . S
C806 C802 1.393 . S
C806 C805 1.391 . S
H807 C815 0.950 . S
H808 C820 0.950 . S
H809 C817 0.950 . S
H810 C819 0.950 . S
H811 C821 0.950 . S
H812 C823 0.950 . S
H813 C825 0.950 . S
H814 C826 0.950 . S
C815 H807 0.950 . S
C815 C816 1.386 . S
C815 C817 1.391 . S
C816 C815 1.386 . S
C816 C820 1.393 . S
C817 H809 0.950 . S
C817 C815 1.391 . S
C817 C818 1.400 . S
C818 C817 1.400 . S
C818 C819 1.398 . S
C818 C824 1.491 . S
C819 H810 0.950 . S
C819 C818 1.398 . S
C819 C820 1.391 . S
C820 H808 0.950 . S
C820 C816 1.393 . S
C820 C819 1.391 . S
C821 H811 0.950 . S
C821 C822 1.386 . S
C821 C823 1.391 . S
C822 C821 1.386 . S
C822 C826 1.393 . S
C823 H812 0.950 . S
C823 C821 1.391 . S
C823 C824 1.400 . S
C824 C818 1.491 . S
C824 C823 1.400 . S
C824 C825 1.398 . S
C825 H813 0.950 . S
C825 C824 1.398 . S
C825 C826 1.391 . S
C826 H814 0.950 . S
C826 C822 1.393 . S
C826 C825 1.391 . S
H827 C835 0.950 . S
H828 C840 0.950 . S
H829 C837 0.950 . S
H830 C839 0.950 . S
H831 C841 0.950 . S
H832 C843 0.950 . S
H833 C845 0.950 . S
H834 C846 0.950 . S
C835 H827 0.950 . S
C835 C836 1.386 . S
C835 C837 1.391 . S
C836 C835 1.386 . S
C836 C840 1.393 . S
C837 H829 0.950 . S
C837 C835 1.391 . S
C837 C838 1.400 . S
C838 C837 1.400 . S
C838 C839 1.398 . S
C838 C844 1.491 . S
C839 H830 0.950 . S
C839 C838 1.398 . S
C839 C840 1.391 . S
C840 H828 0.950 . S
C840 C836 1.393 . S
C840 C839 1.391 . S
C841 H831 0.950 . S
C841 C842 1.386 . S
C841 C843 1.391 . S
C842 C841 1.386 . S
C842 C846 1.393 . S
C843 H832 0.950 . S
C843 C841 1.391 . S
C843 C844 1.400 . S
C844 C838 1.491 . S
C844 C843 1.400 . S
C844 C845 1.398 . S
C845 H833 0.950 . S
C845 C844 1.398 . S
C845 C846 1.391 . S
C846 H834 0.950 . S
C846 C842 1.393 . S
C846 C845 1.391 . S
H847 C855 0.950 . S
H848 C860 0.950 . S
H849 C857 0.950 . S
H850 C859 0.950 . S
H851 C861 0.950 . S
H852 C863 0.950 . S
H853 C865 0.950 . S
H854 C866 0.950 . S
C855 H847 0.950 . S
C855 C856 1.386 . S
C855 C857 1.391 . S
C856 C855 1.386 . S
C856 C860 1.393 . S
C857 H849 0.950 . S
C857 C855 1.391 . S
C857 C858 1.400 . S
C858 C857 1.400 . S
C858 C859 1.398 . S
C858 C864 1.491 . S
C859 H850 0.950 . S
C859 C858 1.398 . S
C859 C860 1.391 . S
C860 H848 0.950 . S
C860 C856 1.393 . S
C860 C859 1.391 . S
C861 H851 0.950 . S
C861 C862 1.386 . S
C861 C863 1.391 . S
C862 C861 1.386 . S
C862 C866 1.393 . S
C863 H852 0.950 . S
C863 C861 1.391 . S
C863 C864 1.400 . S
C864 C858 1.491 . S
C864 C863 1.400 . S
C864 C865 1.398 . S
C865 H853 0.950 . S
C865 C864 1.398 . S
C865 C866 1.391 . S
C866 H854 0.950 . S
C866 C862 1.393 . S
C866 C865 1.391 . S
C402 C312 1.063 . S
C396 C1 1.114 . S
C422 C348 1.641 . S
C416 C37 1.765 . S
C442 C313 1.404 . S
C436 C103 1.420 . S
C462 C343 1.547 . S
C456 C139 1.585 . S
C482 C310 1.492 . S
C476 C145 1.507 . S
C496 C205 1.701 . S
C502 C346 1.712 . S
C516 C247 1.210 . S
C522 C315 1.143 . S
C542 C345 1.445 . S
C536 C283 1.450 . S
C562 C349 1.456 . S
C556 C25 1.431 . S
C582 C314 1.500 . S
C576 C67 1.549 . S
C602 C342 1.701 . S
C596 C97 1.697 . S
C622 C311 1.138 . S
C616 C109 1.195 . S
C642 C344 1.632 . S
C636 C169 1.722 . S
C656 C181 1.410 . S
C662 C309 1.405 . S
C676 C217 1.547 . S
C682 C347 1.528 . S
C702 C316 1.078 . S
C696 C277 1.106 . S
C722 C378 1.690 . S
C716 C31 1.772 . S
C736 C175 1.999 . S
C742 C381 1.906 . S
C762 C380 1.687 . S
C756 C211 1.755 . S
C776 C241 2.059 . S
C782 C379 2.072 . S
C802 C382 1.658 . S
C796 C253 1.760 . S
C816 C73 1.744 . S
C822 C376 1.671 . S
C842 C375 2.077 . S
C836 C133 2.052 . S
C856 C61 2.025 . S
C862 C377 1.907 . S
