# Generated by pormake.
# Topology zzz, (3,6)-cn, num edge types: 1
# Building blocks:
#     Node 0, Type 0, BuildingBlock: KAKCAD_clean_linker_0, # of connection points: 3
#     Node 1, Type 0, BuildingBlock: KAKCAD_clean_linker_0, # of connection points: 3
#     Node 2, Type 0, BuildingBlock: KAKCAD_clean_linker_0, # of connection points: 3
#     Node 3, Type 0, BuildingBlock: KAKCAD_clean_linker_0, # of connection points: 3
#     Node 4, Type 0, BuildingBlock: KAKCAD_clean_linker_0, # of connection points: 3
#     Node 5, Type 0, BuildingBlock: KAKCAD_clean_linker_0, # of connection points: 3
#     Node 6, Type 0, BuildingBlock: KAKCAD_clean_linker_0, # of connection points: 3
#     Node 7, Type 0, BuildingBlock: KAKCAD_clean_linker_0, # of connection points: 3
#     Node 8, Type 1, BuildingBlock: CUKXOW_clean_sbu_0, # of connection points: 6
#     Node 9, Type 1, BuildingBlock: CUKXOW_clean_sbu_0, # of connection points: 6
#     Node 10, Type 1, BuildingBlock: CUKXOW_clean_sbu_0, # of connection points: 6
#     Node 11, Type 1, BuildingBlock: CUKXOW_clean_sbu_0, # of connection points: 6
#     Edge 12, Type (0, 1), BuildingBlock: TEMPAE_clean_linker_10, # of connection points: 2
#     Edge 13, Type (0, 1), BuildingBlock: TEMPAE_clean_linker_10, # of connection points: 2
#     Edge 14, Type (0, 1), BuildingBlock: TEMPAE_clean_linker_10, # of connection points: 2
#     Edge 15, Type (0, 1), BuildingBlock: TEMPAE_clean_linker_10, # of connection points: 2
#     Edge 16, Type (0, 1), BuildingBlock: TEMPAE_clean_linker_10, # of connection points: 2
#     Edge 17, Type (0, 1), BuildingBlock: TEMPAE_clean_linker_10, # of connection points: 2
#     Edge 18, Type (0, 1), BuildingBlock: TEMPAE_clean_linker_10, # of connection points: 2
#     Edge 19, Type (0, 1), BuildingBlock: TEMPAE_clean_linker_10, # of connection points: 2
#     Edge 20, Type (0, 1), BuildingBlock: TEMPAE_clean_linker_10, # of connection points: 2
#     Edge 21, Type (0, 1), BuildingBlock: TEMPAE_clean_linker_10, # of connection points: 2
#     Edge 22, Type (0, 1), BuildingBlock: TEMPAE_clean_linker_10, # of connection points: 2
#     Edge 23, Type (0, 1), BuildingBlock: TEMPAE_clean_linker_10, # of connection points: 2
#     Edge 24, Type (0, 1), BuildingBlock: TEMPAE_clean_linker_10, # of connection points: 2
#     Edge 25, Type (0, 1), BuildingBlock: TEMPAE_clean_linker_10, # of connection points: 2
#     Edge 26, Type (0, 1), BuildingBlock: TEMPAE_clean_linker_10, # of connection points: 2
#     Edge 27, Type (0, 1), BuildingBlock: TEMPAE_clean_linker_10, # of connection points: 2
#     Edge 28, Type (0, 1), BuildingBlock: TEMPAE_clean_linker_10, # of connection points: 2
#     Edge 29, Type (0, 1), BuildingBlock: TEMPAE_clean_linker_10, # of connection points: 2
#     Edge 30, Type (0, 1), BuildingBlock: TEMPAE_clean_linker_10, # of connection points: 2
#     Edge 31, Type (0, 1), BuildingBlock: TEMPAE_clean_linker_10, # of connection points: 2
#     Edge 32, Type (0, 1), BuildingBlock: TEMPAE_clean_linker_10, # of connection points: 2
#     Edge 33, Type (0, 1), BuildingBlock: TEMPAE_clean_linker_10, # of connection points: 2
#     Edge 34, Type (0, 1), BuildingBlock: TEMPAE_clean_linker_10, # of connection points: 2
#     Edge 35, Type (0, 1), BuildingBlock: TEMPAE_clean_linker_10, # of connection points: 2
# Relax obj value: 0.213
# Max RMSD: 0.230
# Mean RMSD: 0.186
data_MOF--net-zzz--node1-CUKXOW_clean_sbu_0--node2-KAKCAD_clean_linker_0--edge1-TEMPAE_clean_linker_10
_symmetry_space_group_name_H-M    P1
_symmetry_Int_Tables_number       1
_symmetry_cell_setting            triclinic
loop_
_symmetry_equiv_pos_as_xyz
'x, y, z'
_cell_length_a     59.285674
_cell_length_b     57.858678
_cell_length_c     20.722228
_cell_angle_alpha  92.55582
_cell_angle_beta   88.278296
_cell_angle_gamma 95.495358
loop_
_atom_site_label
_atom_site_type_symbol
_atom_site_fract_x
_atom_site_fract_y
_atom_site_fract_z
_atom_type_partial_charge
C0 C 0.81392 0.45874 0.95537 0.0
C1 C 0.83122 0.444 0.96014 0.0
C2 C 0.79366 0.45474 0.99088 0.0
C3 C 0.7905 0.43609 0.03236 0.0
C4 C 0.80727 0.42054 0.03413 0.0
C5 C 0.82744 0.42438 0.99789 0.0
C6 C 0.77151 0.43514 0.08037 0.0
C7 C 0.74946 0.43813 0.0623 0.0
C8 C 0.73232 0.4413 0.10933 0.0
C9 C 0.73749 0.44182 0.17532 0.0
C10 C 0.75942 0.43798 0.19367 0.0
C11 C 0.77616 0.43445 0.14596 0.0
C12 C 0.76647 0.44001 0.26159 0.0
C13 C 0.76767 0.46174 0.29489 0.0
C14 C 0.77747 0.42202 0.28633 0.0
C15 C 0.79153 0.42639 0.33913 0.0
C16 C 0.79488 0.44886 0.3679 0.0
C17 C 0.70956 0.44534 0.08769 0.0
C18 C 0.70011 0.46614 0.10495 0.0
C19 C 0.69855 0.42962 0.04275 0.0
C20 C 0.67907 0.43508 0.01302 0.0
C21 C 0.67034 0.45657 0.02684 0.0
C22 C 0.68069 0.47176 0.07458 0.0
C23 C 0.78181 0.46615 0.34788 0.0
H24 H 0.81645 0.47389 0.92617 0.0
H25 H 0.78111 0.46712 0.98913 0.0
H26 H 0.80518 0.40603 0.06574 0.0
H27 H 0.84059 0.41283 0.0024 0.0
H28 H 0.74582 0.43883 0.01147 0.0
H29 H 0.79339 0.43285 0.16022 0.0
H30 H 0.72459 0.44505 0.21192 0.0
H31 H 0.75954 0.47594 0.27612 0.0
H32 H 0.77681 0.40514 0.2612 0.0
H33 H 0.80115 0.41267 0.35426 0.0
H34 H 0.70848 0.47861 0.13907 0.0
H35 H 0.7055 0.41339 0.02906 0.0
H36 H 0.78412 0.48364 0.36912 0.0
H37 H 0.67448 0.4885 0.08616 0.0
H38 H 0.67119 0.42271 0.97781 0.0
C39 C 0.90716 0.81844 0.91135 0.0
C40 C 0.92365 0.83552 0.93504 0.0
C41 C 0.89698 0.80155 0.95234 0.0
C42 C 0.90288 0.8019 0.01769 0.0
C43 C 0.91889 0.8195 0.04123 0.0
C44 C 0.92912 0.83607 0.00046 0.0
C45 C 0.89426 0.78312 0.061 0.0
C46 C 0.89575 0.75979 0.04149 0.0
C47 C 0.89392 0.74243 0.08723 0.0
C48 C 0.89022 0.74852 0.15291 0.0
C49 C 0.88744 0.77165 0.17225 0.0
C50 C 0.88892 0.78867 0.12587 0.0
C51 C 0.88757 0.77953 0.24098 0.0
C52 C 0.87062 0.79291 0.26635 0.0
C53 C 0.90726 0.7784 0.27609 0.0
C54 C 0.91101 0.79238 0.3322 0.0
C55 C 0.89498 0.80754 0.35463 0.0
C56 C 0.89939 0.71879 0.06672 0.0
C57 C 0.88796 0.70664 0.01534 0.0
C58 C 0.91799 0.70957 0.09301 0.0
C59 C 0.9258 0.68916 0.06599 0.0
C60 C 0.91482 0.67748 0.01327 0.0
C61 C 0.8955 0.68597 0.98919 0.0
C62 C 0.87415 0.80654 0.32318 0.0
H63 H 0.90267 0.81776 0.86097 0.0
H64 H 0.88475 0.78812 0.93296 0.0
H65 H 0.92419 0.82003 0.0909 0.0
H66 H 0.94161 0.84923 0.02002 0.0
H67 H 0.9005 0.75538 0.99183 0.0
H68 H 0.88801 0.80672 0.14141 0.0
H69 H 0.89015 0.73549 0.18892 0.0
H70 H 0.85531 0.79404 0.23983 0.0
H71 H 0.9207 0.76845 0.25684 0.0
H72 H 0.92732 0.79271 0.35449 0.0
H73 H 0.87367 0.71356 0.99414 0.0
H74 H 0.92725 0.71883 0.13203 0.0
H75 H 0.86114 0.81746 0.34002 0.0
H76 H 0.88696 0.67724 0.94812 0.0
H77 H 0.94084 0.68289 0.08481 0.0
C78 C 0.68115 0.97667 0.96454 0.0
C79 C 0.66654 0.99352 0.9848 0.0
C80 C 0.69838 0.97131 0.00465 0.0
C81 C 0.70109 0.98256 0.06584 0.0
C82 C 0.68652 0.99945 0.08563 0.0
C83 C 0.66944 0.00478 0.04581 0.0
C84 C 0.7188 0.97689 0.11007 0.0
C85 C 0.74128 0.9754 0.08838 0.0
C86 C 0.75845 0.97317 0.13264 0.0
C87 C 0.75288 0.9721 0.19911 0.0
C88 C 0.7303 0.97286 0.22053 0.0
C89 C 0.71346 0.97497 0.17596 0.0
C90 C 0.72349 0.97328 0.28938 0.0
C91 C 0.71538 0.95252 0.31806 0.0
C92 C 0.71888 0.99456 0.31946 0.0
C93 C 0.70447 0.99506 0.37394 0.0
C94 C 0.6944 0.97425 0.39919 0.0
C95 C 0.78232 0.97394 0.10909 0.0
C96 C 0.78838 0.95945 0.05649 0.0
C97 C 0.79871 0.99061 0.13517 0.0
C98 C 0.8205 0.99349 0.10709 0.0
C99 C 0.82635 0.97947 0.05322 0.0
C100 C 0.81027 0.96206 0.02915 0.0
C101 C 0.70108 0.953 0.37295 0.0
H102 H 0.67939 0.96781 0.91755 0.0
H103 H 0.70935 0.95818 0.98828 0.0
H104 H 0.68838 0.0087 0.13207 0.0
H105 H 0.65829 0.01761 0.06324 0.0
H106 H 0.74567 0.97736 0.03762 0.0
H107 H 0.69608 0.9758 0.19325 0.0
H108 H 0.766 0.97094 0.23383 0.0
H109 H 0.71849 0.93593 0.29486 0.0
H110 H 0.72463 0.01074 0.29716 0.0
H111 H 0.69963 0.01175 0.3923 0.0
H112 H 0.77601 0.94647 0.03561 0.0
H113 H 0.79438 0.00212 0.17536 0.0
H114 H 0.69398 0.93667 0.392 0.0
H115 H 0.81431 0.95115 0.98736 0.0
H116 H 0.83264 0.007 0.12657 0.0
C117 C 0.59347 0.72492 0.36845 0.0
C118 C 0.60771 0.70722 0.37635 0.0
C119 C 0.59756 0.74014 0.31796 0.0
C120 C 0.61579 0.73769 0.27423 0.0
C121 C 0.63119 0.72141 0.28576 0.0
C122 C 0.62726 0.70638 0.3367 0.0
C123 C 0.61547 0.74769 0.20986 0.0
C124 C 0.61396 0.77152 0.20238 0.0
C125 C 0.61045 0.77982 0.14089 0.0
C126 C 0.60758 0.7639 0.08774 0.0
C127 C 0.60848 0.74007 0.09521 0.0
C128 C 0.61312 0.73224 0.1559 0.0
C129 C 0.60107 0.72281 0.04338 0.0
C130 C 0.58013 0.72399 0.01433 0.0
C131 C 0.61303 0.70329 0.02989 0.0
C132 C 0.60354 0.68462 0.99151 0.0
C133 C 0.58178 0.685 0.96648 0.0
C134 C 0.60747 0.80464 0.13191 0.0
C135 C 0.59247 0.81637 0.17233 0.0
C136 C 0.61753 0.81584 0.07799 0.0
C137 C 0.61152 0.83759 0.06218 0.0
C138 C 0.59525 0.84862 0.09987 0.0
C139 C 0.58637 0.83814 0.15636 0.0
C140 C 0.57054 0.70524 0.97641 0.0
H141 H 0.57837 0.72601 0.39877 0.0
H142 H 0.58531 0.75237 0.30966 0.0
H143 H 0.6453 0.71914 0.25234 0.0
H144 H 0.63846 0.69285 0.34155 0.0
H145 H 0.61521 0.78344 0.24425 0.0
H146 H 0.61287 0.71372 0.16246 0.0
H147 H 0.60354 0.7699 0.041 0.0
H148 H 0.57041 0.73872 0.02461 0.0
H149 H 0.62929 0.70206 0.05134 0.0
H150 H 0.61288 0.66951 0.98346 0.0
H151 H 0.58438 0.80812 0.21405 0.0
H152 H 0.62932 0.80727 0.04633 0.0
H153 H 0.5537 0.70607 0.95831 0.0
H154 H 0.57397 0.84634 0.18673 0.0
H155 H 0.61857 0.84505 0.01809 0.0
C156 C 0.19216 0.55246 0.40375 0.0
C157 C 0.17299 0.53831 0.38238 0.0
C158 C 0.21233 0.55372 0.36686 0.0
C159 C 0.21364 0.54092 0.30787 0.0
C160 C 0.19476 0.52608 0.28792 0.0
C161 C 0.17465 0.52481 0.3247 0.0
C162 C 0.23396 0.5443 0.26475 0.0
C163 C 0.25585 0.54516 0.28879 0.0
C164 C 0.27508 0.54897 0.2476 0.0
C165 C 0.2721 0.55169 0.18108 0.0
C166 C 0.25013 0.55096 0.15709 0.0
C167 C 0.23132 0.54729 0.19899 0.0
C168 C 0.24551 0.55424 0.08886 0.0
C169 C 0.23803 0.57547 0.0726 0.0
C170 C 0.24073 0.53452 0.04792 0.0
C171 C 0.22638 0.53537 0.99585 0.0
C172 C 0.2165 0.55592 0.98468 0.0
C173 C 0.29799 0.54977 0.2753 0.0
C174 C 0.30218 0.561 0.3359 0.0
C175 C 0.31518 0.53791 0.24443 0.0
C176 C 0.33569 0.53636 0.27513 0.0
C177 C 0.33938 0.54661 0.33731 0.0
C178 C 0.32251 0.55932 0.36666 0.0
C179 C 0.22362 0.57631 0.02084 0.0
H180 H 0.19145 0.56283 0.44845 0.0
H181 H 0.2266 0.56538 0.38325 0.0
H182 H 0.19539 0.5158 0.24301 0.0
H183 H 0.16014 0.51388 0.30667 0.0
H184 H 0.25786 0.54237 0.33959 0.0
H185 H 0.21443 0.54717 0.18009 0.0
H186 H 0.28663 0.55475 0.1486 0.0
H187 H 0.2412 0.59077 0.10428 0.0
H188 H 0.24593 0.51788 0.0605 0.0
H189 H 0.2211 0.51938 0.96897 0.0
H190 H 0.28944 0.57064 0.36051 0.0
H191 H 0.31246 0.52905 0.19778 0.0
H192 H 0.21638 0.59241 0.01283 0.0
H193 H 0.32457 0.56727 0.41468 0.0
H194 H 0.34847 0.52677 0.25062 0.0
C195 C 0.06004 0.19778 0.43803 0.0
C196 C 0.07303 0.17891 0.44391 0.0
C197 C 0.0685 0.21693 0.40326 0.0
C198 C 0.09002 0.21758 0.37287 0.0
C199 C 0.10346 0.19928 0.38083 0.0
C200 C 0.09514 0.18022 0.41656 0.0
C201 C 0.09684 0.23584 0.32655 0.0
C202 C 0.09366 0.25904 0.34259 0.0
C203 C 0.09502 0.27567 0.29496 0.0
C204 C 0.10004 0.26895 0.23042 0.0
C205 C 0.10366 0.24568 0.21401 0.0
C206 C 0.10256 0.22944 0.26269 0.0
C207 C 0.10382 0.2366 0.14611 0.0
C208 C 0.08488 0.23859 0.10838 0.0
C209 C 0.11969 0.22115 0.12496 0.0
C210 C 0.11549 0.20627 0.07074 0.0
C211 C 0.09523 0.20645 0.03743 0.0
C212 C 0.08854 0.2992 0.3131 0.0
C213 C 0.06805 0.30142 0.34745 0.0
C214 C 0.10331 0.31917 0.30203 0.0
C215 C 0.09822 0.34086 0.32863 0.0
C216 C 0.07831 0.34273 0.36646 0.0
C217 C 0.06298 0.32291 0.37372 0.0
C218 C 0.08054 0.22352 0.05466 0.0
H219 H 0.04284 0.19729 0.45731 0.0
H220 H 0.05761 0.23063 0.39691 0.0
H221 H 0.12015 0.19945 0.35795 0.0
H222 H 0.10581 0.16624 0.42129 0.0
H223 H 0.08905 0.26396 0.39203 0.0
H224 H 0.1038 0.21123 0.24963 0.0
H225 H 0.09988 0.28137 0.19285 0.0
H226 H 0.07226 0.25015 0.12402 0.0
H227 H 0.13435 0.21924 0.15355 0.0
H228 H 0.12704 0.19323 0.05858 0.0
H229 H 0.05621 0.28631 0.35566 0.0
H230 H 0.11921 0.31782 0.27563 0.0
H231 H 0.06488 0.22407 0.02937 0.0
H232 H 0.04723 0.32393 0.40117 0.0
H233 H 0.11029 0.3559 0.32212 0.0
C234 C 0.32111 0.96888 0.39334 0.0
C235 C 0.34253 0.98078 0.38229 0.0
C236 C 0.30325 0.97168 0.35265 0.0
C237 C 0.30647 0.98669 0.30085 0.0
C238 C 0.32781 0.99916 0.29161 0.0
C239 C 0.34568 0.99606 0.33151 0.0
C240 C 0.28797 0.98899 0.25533 0.0
C241 C 0.26536 0.98892 0.27711 0.0
C242 C 0.24798 0.99141 0.23389 0.0
C243 C 0.25343 0.99462 0.16804 0.0
C244 C 0.276 0.99417 0.14568 0.0
C245 C 0.29298 0.99123 0.18931 0.0
C246 C 0.28293 0.99673 0.07722 0.0
C247 C 0.29275 0.97835 0.04425 0.0
C248 C 0.28553 0.01885 0.05141 0.0
C249 C 0.29963 0.02299 0.99685 0.0
C250 C 0.31145 0.00508 0.96772 0.0
C251 C 0.2243 0.99025 0.25919 0.0
C252 C 0.21607 0.97183 0.2979 0.0
C253 C 0.21068 0.00839 0.25079 0.0
C254 C 0.18974 0.00877 0.28395 0.0
C255 C 0.1821 0.99093 0.32568 0.0
C256 C 0.19519 0.97211 0.33052 0.0
C257 C 0.30684 0.98245 0.99004 0.0
H258 H 0.31838 0.95696 0.43228 0.0
H259 H 0.28714 0.96162 0.36082 0.0
H260 H 0.33076 0.01135 0.25339 0.0
H261 H 0.362 0.00569 0.32283 0.0
H262 H 0.26122 0.98737 0.32813 0.0
H263 H 0.31029 0.99063 0.17126 0.0
H264 H 0.24021 0.99671 0.13435 0.0
H265 H 0.29119 0.96122 0.06399 0.0
H266 H 0.27832 0.03333 0.07665 0.0
H267 H 0.30247 0.04053 0.9802 0.0
H268 H 0.22615 0.95748 0.30442 0.0
H269 H 0.21674 0.02283 0.22139 0.0
H270 H 0.31571 0.96823 0.96956 0.0
H271 H 0.18954 0.95782 0.36091 0.0
H272 H 0.18007 0.02354 0.27931 0.0
C273 C 0.39291 0.30398 0.02619 0.0
C274 C 0.41382 0.31036 0.99455 0.0
C275 C 0.3918 0.28967 0.07911 0.0
C276 C 0.4114 0.28084 0.10012 0.0
C277 C 0.43187 0.28545 0.06545 0.0
C278 C 0.43313 0.30017 0.01354 0.0
C279 C 0.41177 0.27129 0.16491 0.0
C280 C 0.41652 0.24827 0.17318 0.0
C281 C 0.42019 0.24085 0.23536 0.0
C282 C 0.41883 0.25649 0.28883 0.0
C283 C 0.41519 0.27978 0.28095 0.0
C284 C 0.41103 0.28682 0.21877 0.0
C285 C 0.41942 0.29741 0.33496 0.0
C286 C 0.43727 0.29559 0.37717 0.0
C287 C 0.40763 0.31743 0.3404 0.0
C288 C 0.41466 0.33586 0.38346 0.0
C289 C 0.43352 0.33456 0.42227 0.0
C290 C 0.42832 0.2179 0.24531 0.0
C291 C 0.41557 0.1971 0.22671 0.0
C292 C 0.44845 0.21695 0.27865 0.0
C293 C 0.45524 0.19573 0.29573 0.0
C294 C 0.44208 0.17485 0.27996 0.0
C295 C 0.42232 0.1757 0.24433 0.0
C296 C 0.44408 0.31383 0.42057 0.0
H297 H 0.37754 0.31091 0.01216 0.0
H298 H 0.37586 0.28643 0.10565 0.0
H299 H 0.44728 0.27915 0.08171 0.0
H300 H 0.44964 0.3048 0.99157 0.0
H301 H 0.41841 0.23662 0.13136 0.0
H302 H 0.4091 0.30493 0.21104 0.0
H303 H 0.42176 0.25065 0.3366 0.0
H304 H 0.44701 0.28066 0.37428 0.0
H305 H 0.39355 0.31928 0.30952 0.0
H306 H 0.40614 0.35161 0.38358 0.0
H307 H 0.39997 0.19746 0.20102 0.0
H308 H 0.45864 0.23277 0.29318 0.0
H309 H 0.45838 0.3121 0.45077 0.0
H310 H 0.4119 0.15988 0.23119 0.0
H311 H 0.47034 0.19581 0.32393 0.0
Tb312 Tb 0.99159 0.986 0.64204 0.0
C313 C 0.04371 0.99796 0.61993 0.0
Tb314 Tb 0.01807 0.02051 0.74086 0.0
O315 O 0.99043 0.0124 0.56898 0.0
O316 O 0.99528 0.02182 0.66532 0.0
O317 O 0.02664 0.98141 0.6139 0.0
C318 C 0.038 0.0594 0.7959 0.0
O319 O 0.04316 0.01572 0.66271 0.0
C320 C 0.01138 0.97706 0.77283 0.0
C321 C 0.96632 0.00512 0.76919 0.0
O322 O 0.0457 0.03908 0.79631 0.0
O323 O 0.01905 0.05767 0.76561 0.0
O324 O 0.01497 0.99441 0.81472 0.0
O325 O 0.0146 0.98456 0.71695 0.0
O326 O 0.98412 0.01991 0.78451 0.0
O327 O 0.96591 0.99043 0.718 0.0
C328 C 0.96858 0.94807 0.59037 0.0
O329 O 0.96511 0.95701 0.64781 0.0
O330 O 0.98486 0.96062 0.56163 0.0
C331 C 0.99622 0.02956 0.60953 0.0
Tb332 Tb 0.50395 0.02509 0.64726 0.0
C333 C 0.54571 0.99595 0.6295 0.0
Tb334 Tb 0.50873 0.98553 0.74204 0.0
O335 O 0.5343 0.04499 0.6854 0.0
O336 O 0.51466 0.02211 0.74254 0.0
O337 O 0.53205 0.00878 0.59989 0.0
C338 C 0.52433 0.95914 0.82962 0.0
O339 O 0.54075 0.9874 0.68712 0.0
C340 C 0.47988 0.9746 0.65003 0.0
C341 C 0.46575 0.01272 0.7565 0.0
O342 O 0.52075 0.95294 0.76957 0.0
O343 O 0.51866 0.9801 0.84088 0.0
O344 O 0.47952 0.96377 0.70376 0.0
O345 O 0.49767 0.98846 0.64715 0.0
O346 O 0.47949 1.00024 0.78703 0.0
O347 O 0.47123 0.02211 0.69999 0.0
C348 C 0.49163 0.05391 0.56037 0.0
O349 O 0.49205 0.05813 0.62241 0.0
O350 O 0.49837 0.0335 0.54696 0.0
C351 C 0.53306 0.03485 0.74019 0.0
Tb352 Tb 0.52247 0.52676 0.64669 0.0
C353 C 0.46994 0.51984 0.61807 0.0
Tb354 Tb 0.48986 0.49485 0.73525 0.0
O355 O 0.51715 0.50171 0.56479 0.0
O356 O 0.51405 0.49101 0.65984 0.0
O357 O 0.48985 0.53186 0.60704 0.0
C358 C 0.46447 0.45853 0.78264 0.0
O359 O 0.46624 0.50437 0.66391 0.0
C360 C 0.4996 0.53762 0.78064 0.0
C361 C 0.54241 0.49917 0.75765 0.0
O362 O 0.46452 0.46476 0.7232 0.0
O363 O 0.47817 0.47311 0.81533 0.0
O364 O 0.49092 0.52101 0.81645 0.0
O365 O 0.49873 0.53031 0.72279 0.0
O366 O 0.52318 0.48532 0.75942 0.0
O367 O 0.54526 0.5176 0.72107 0.0
C368 C 0.54717 0.56395 0.60248 0.0
O369 O 0.55173 0.54254 0.59118 0.0
O370 O 0.52878 0.56425 0.63778 0.0
C371 C 0.51104 0.48446 0.60185 0.0
Tb372 Tb 0.98104 0.51081 0.64114 0.0
C373 C 0.02087 0.47913 0.6142 0.0
Tb374 Tb 0.02325 0.51673 0.73161 0.0
O375 O 0.00062 0.52354 0.55677 0.0
O376 O 0.01165 0.53251 0.64981 0.0
O377 O 0.99894 0.48127 0.60749 0.0
C378 C 0.06399 0.52615 0.78337 0.0
O379 O 0.03381 0.49251 0.65499 0.0
C380 C 0.98672 0.49382 0.77964 0.0
C381 C 0.98421 0.54949 0.75598 0.0
O382 O 0.05336 0.50555 0.77556 0.0
O383 O 0.05159 0.54146 0.76276 0.0
O384 O 0.00314 0.50314 0.81507 0.0
O385 O 0.993 0.4949 0.72129 0.0
O386 O 0.00582 0.54655 0.76516 0.0
O387 O 0.97121 0.53655 0.71447 0.0
C388 C 0.94008 0.4992 0.59291 0.0
O389 O 0.95095 0.5198 0.5923 0.0
O390 O 0.95235 0.48515 0.62001 0.0
C391 C 0.01744 0.53306 0.5906 0.0
C392 C 0.16156 0.98658 0.43226 0.0
C393 C 0.16137 0.99246 0.36729 0.0
C394 C 0.14229 0.98765 0.4727 0.0
C395 C 0.12228 0.99491 0.44781 0.0
C396 C 0.12198 0.00113 0.38249 0.0
C397 C 0.14156 0.99985 0.34296 0.0
C398 C 0.14335 0.98102 0.54216 0.0
C399 C 0.10095 0.00901 0.35435 0.0
C400 C 0.06717 0.97685 0.53837 0.0
C401 C 0.06393 0.99696 0.57648 0.0
C402 C 0.08593 0.97605 0.49559 0.0
C403 C 0.10173 0.99589 0.49047 0.0
C404 C 0.0984 0.01634 0.52822 0.0
C405 C 0.0796 0.0166 0.57092 0.0
C406 C 0.08897 0.9539 0.45631 0.0
C407 C 0.11476 0.03792 0.52379 0.0
H408 H 0.17695 0.98135 0.45186 0.0
H409 H 0.14127 0.00431 0.29276 0.0
H410 H 0.13962 0.99591 0.57506 0.0
H411 H 0.13028 0.96649 0.55211 0.0
H412 H 0.1602 0.97564 0.55391 0.0
H413 H 0.10358 0.01355 0.30297 0.0
H414 H 0.0868 0.99507 0.35766 0.0
H415 H 0.09564 0.02441 0.38257 0.0
H416 H 0.0551 0.96164 0.54214 0.0
H417 H 0.07706 0.03236 0.59942 0.0
H418 H 0.10506 0.94708 0.46896 0.0
H419 H 0.09016 0.95744 0.40408 0.0
H420 H 0.07482 0.94023 0.46448 0.0
H421 H 0.10922 0.0527 0.55441 0.0
H422 H 0.11658 0.04328 0.47302 0.0
H423 H 0.13177 0.0342 0.53912 0.0
C424 C 0.4318 0.13762 0.33615 0.0
C425 C 0.44829 0.15279 0.30581 0.0
C426 C 0.43802 0.11914 0.37141 0.0
C427 C 0.46126 0.11589 0.37674 0.0
C428 C 0.47782 0.13015 0.3425 0.0
C429 C 0.47112 0.14833 0.3072 0.0
C430 C 0.41983 0.10409 0.40648 0.0
C431 C 0.50277 0.12724 0.34671 0.0
C432 C 0.47991 0.0923 0.5325 0.0
C433 C 0.4838 0.06951 0.51315 0.0
C434 C 0.47245 0.10746 0.48853 0.0
C435 C 0.46848 0.09952 0.42381 0.0
C436 C 0.47204 0.07635 0.40428 0.0
C437 C 0.47984 0.06164 0.44918 0.0
C438 C 0.46904 0.13209 0.51123 0.0
C439 C 0.46765 0.06716 0.33605 0.0
H440 H 0.41414 0.14099 0.33563 0.0
H441 H 0.4839 0.15972 0.2828 0.0
H442 H 0.42269 0.08546 0.3995 0.0
H443 H 0.42047 0.10853 0.45908 0.0
H444 H 0.4026 0.10655 0.38989 0.0
H445 H 0.51325 0.13811 0.31211 0.0
H446 H 0.50846 0.13226 0.39634 0.0
H447 H 0.50593 0.1088 0.33708 0.0
H448 H 0.48293 0.09837 0.58202 0.0
H449 H 0.48262 0.0439 0.43441 0.0
H450 H 0.45129 0.13568 0.5036 0.0
H451 H 0.48019 0.14451 0.48248 0.0
H452 H 0.4728 0.13549 0.56318 0.0
H453 H 0.44996 0.06943 0.32339 0.0
H454 H 0.47041 0.04848 0.32926 0.0
H455 H 0.47899 0.0772 0.30167 0.0
C456 C 0.37016 0.56101 0.414 0.0
C457 C 0.36007 0.54311 0.3734 0.0
C458 C 0.38823 0.55726 0.45324 0.0
C459 C 0.39675 0.53521 0.45101 0.0
C460 C 0.38723 0.5173 0.40855 0.0
C461 C 0.3689 0.5214 0.37062 0.0
C462 C 0.39789 0.57678 0.49808 0.0
C463 C 0.39612 0.49366 0.40411 0.0
C464 C 0.45581 0.53248 0.51431 0.0
C465 C 0.4511 0.52368 0.57579 0.0
C466 C 0.4383 0.53595 0.47281 0.0
C467 C 0.4155 0.53087 0.49369 0.0
C468 C 0.41061 0.52199 0.55571 0.0
C469 C 0.42849 0.51828 0.59582 0.0
C470 C 0.44421 0.54499 0.40655 0.0
C471 C 0.38648 0.51668 0.57998 0.0
H472 H 0.36378 0.57796 0.41564 0.0
H473 H 0.36107 0.50735 0.3402 0.0
H474 H 0.39613 0.57137 0.54884 0.0
H475 H 0.41625 0.58078 0.48731 0.0
H476 H 0.38933 0.5929 0.49405 0.0
H477 H 0.38771 0.48204 0.36606 0.0
H478 H 0.41465 0.49544 0.39358 0.0
H479 H 0.39337 0.48524 0.45113 0.0
H480 H 0.47326 0.53637 0.49809 0.0
H481 H 0.42476 0.51149 0.64328 0.0
H482 H 0.43712 0.56186 0.40156 0.0
H483 H 0.4365 0.53271 0.36891 0.0
H484 H 0.4628 0.54745 0.397 0.0
H485 H 0.37746 0.53263 0.58043 0.0
H486 H 0.38555 0.50994 0.62946 0.0
H487 H 0.37734 0.50362 0.54698 0.0
C488 C 0.07578 0.38593 0.37045 0.0
C489 C 0.07373 0.36478 0.40154 0.0
C490 C 0.06938 0.40632 0.4026 0.0
C491 C 0.06082 0.4054 0.46712 0.0
C492 C 0.05979 0.3843 0.49952 0.0
C493 C 0.06629 0.3643 0.46639 0.0
C494 C 0.07086 0.42858 0.36676 0.0
C495 C 0.05097 0.3826 0.5685 0.0
C496 C 0.05487 0.45914 0.57598 0.0
C497 C 0.03148 0.46116 0.57368 0.0
C498 C 0.0649 0.44163 0.5395 0.0
C499 C 0.05125 0.42583 0.49969 0.0
C500 C 0.02782 0.42829 0.49541 0.0
C501 C 0.01823 0.4459 0.53244 0.0
C502 C 0.08994 0.43953 0.54527 0.0
C503 C 0.01269 0.41179 0.45343 0.0
H504 H 0.08156 0.38636 0.32036 0.0
H505 H 0.06519 0.34807 0.49105 0.0
H506 H 0.05353 0.43324 0.35792 0.0
H507 H 0.07951 0.44309 0.39623 0.0
H508 H 0.08009 0.42704 0.31954 0.0
H509 H 0.05268 0.36529 0.58801 0.0
H510 H 0.06021 0.39609 0.60004 0.0
H511 H 0.0328 0.38578 0.57113 0.0
H512 H 0.06535 0.47104 0.60697 0.0
H513 H 0.0002 0.4474 0.52977 0.0
H514 H 0.09249 0.42308 0.56843 0.0
H515 H 0.09852 0.45421 0.57437 0.0
H516 H 0.09827 0.43882 0.49665 0.0
H517 H 0.01981 0.41084 0.40337 0.0
H518 H 0.99518 0.41705 0.4519 0.0
H519 H 0.01182 0.39405 0.47218 0.0
C520 C 0.85534 0.0066 0.99869 0.0
C521 C 0.84847 0.98415 0.01883 0.0
C522 C 0.87512 0.01104 0.96061 0.0
C523 C 0.88853 0.99265 0.94328 0.0
C524 C 0.88212 0.97011 0.96563 0.0
C525 C 0.86199 0.96607 0.00256 0.0
C526 C 0.88115 0.03519 0.93675 0.0
C527 C 0.89624 0.95016 0.9492 0.0
C528 C 0.92484 0.99606 0.78945 0.0
C529 C 0.94627 0.00367 0.8133 0.0
C530 C 0.90587 0.99279 0.8312 0.0
C531 C 0.90849 0.99669 0.89862 0.0
C532 C 0.93011 0.00436 0.92302 0.0
C533 C 0.94873 0.00801 0.87992 0.0
C534 C 0.88303 0.98496 0.80316 0.0
C535 C 0.93368 0.00812 0.99469 0.0
H536 H 0.84474 0.02053 0.01061 0.0
H537 H 0.8567 0.94873 0.01844 0.0
H538 H 0.8987 0.0416 0.95007 0.0
H539 H 0.88055 0.03474 0.88322 0.0
H540 H 0.86945 0.04776 0.95669 0.0
H541 H 0.89007 0.93428 0.97512 0.0
H542 H 0.89584 0.94592 0.8965 0.0
H543 H 0.91419 0.95514 0.96143 0.0
H544 H 0.92291 0.99264 0.73794 0.0
H545 H 0.96538 0.01344 0.89861 0.0
H546 H 0.87052 0.99726 0.81914 0.0
H547 H 0.87675 0.96768 0.82107 0.0
H548 H 0.8837 0.98374 0.74949 0.0
H549 H 0.92239 0.02091 0.01546 0.0
H550 H 0.95149 0.01442 0.00578 0.0
H551 H 0.92915 0.99158 0.01918 0.0
C552 C 0.59955 0.88685 0.04545 0.0
C553 C 0.58559 0.86925 0.07541 0.0
C554 C 0.5902 0.90412 0.01208 0.0
C555 C 0.56635 0.90361 0.00822 0.0
C556 C 0.55221 0.88683 0.04196 0.0
C557 C 0.562 0.86988 0.07517 0.0
C558 C 0.60586 0.92193 0.97746 0.0
C559 C 0.5267 0.8857 0.03906 0.0
C560 C 0.53837 0.95339 0.93973 0.0
C561 C 0.53485 0.94512 0.87592 0.0
C562 C 0.54914 0.94038 0.98325 0.0
C563 C 0.55618 0.91849 0.96244 0.0
C564 C 0.55268 0.91017 0.89784 0.0
C565 C 0.5421 0.92362 0.85537 0.0
C566 C 0.55288 0.94996 0.05141 0.0
C567 C 0.55995 0.88693 0.87366 0.0
H568 H 0.61781 0.88664 0.04618 0.0
H569 H 0.55107 0.85623 0.09751 0.0
H570 H 0.60597 0.91744 0.92484 0.0
H571 H 0.59988 0.93949 0.98432 0.0
H572 H 0.62353 0.92261 0.99436 0.0
H573 H 0.51814 0.87341 0.07376 0.0
H574 H 0.52079 0.90313 0.04949 0.0
H575 H 0.52134 0.87994 0.98959 0.0
H576 H 0.53275 0.97004 0.95557 0.0
H577 H 0.53951 0.91728 0.80587 0.0
H578 H 0.57108 0.95043 0.06294 0.0
H579 H 0.54328 0.93841 0.08604 0.0
H580 H 0.54745 0.96775 0.05897 0.0
H581 H 0.57841 0.88649 0.88013 0.0
H582 H 0.55625 0.88314 0.82181 0.0
H583 H 0.55109 0.87287 0.90227 0.0
C584 C 0.65104 0.45845 0.92163 0.0
C585 C 0.65148 0.46357 0.98849 0.0
C586 C 0.63349 0.46478 0.88423 0.0
C587 C 0.61601 0.47676 0.91416 0.0
C588 C 0.61647 0.48233 0.9814 0.0
C589 C 0.63418 0.47561 0.01783 0.0
C590 C 0.63359 0.45849 0.81268 0.0
C591 C 0.59813 0.49518 0.0149 0.0
C592 C 0.58072 0.50924 0.80484 0.0
C593 C 0.5614 0.49347 0.79708 0.0
C594 C 0.5985 0.5042 0.84363 0.0
C595 C 0.59696 0.48286 0.87511 0.0
C596 C 0.57749 0.46691 0.86758 0.0
C597 C 0.55994 0.47243 0.82882 0.0
C598 C 0.61897 0.52169 0.8508 0.0
C599 C 0.57527 0.44391 0.90005 0.0
H600 H 0.6646 0.44966 0.89819 0.0
H601 H 0.6343 0.47951 0.06947 0.0
H602 H 0.61799 0.44718 0.80046 0.0
H603 H 0.6336 0.47441 0.78476 0.0
H604 H 0.64853 0.44928 0.79676 0.0
H605 H 0.60139 0.49894 0.067 0.0
H606 H 0.59674 0.51182 0.9914 0.0
H607 H 0.58152 0.48472 0.01039 0.0
H608 H 0.58191 0.52563 0.78105 0.0
H609 H 0.54508 0.46012 0.82326 0.0
H610 H 0.63437 0.51391 0.83191 0.0
H611 H 0.62163 0.52647 0.90264 0.0
H612 H 0.61726 0.53776 0.82469 0.0
H613 H 0.58919 0.43347 0.88287 0.0
H614 H 0.55882 0.43364 0.89033 0.0
H615 H 0.57684 0.44682 0.95306 0.0
C616 C 0.91408 0.63543 0.9797 0.0
C617 C 0.92492 0.65798 0.979 0.0
C618 C 0.92352 0.61699 0.94559 0.0
C619 C 0.94387 0.62151 0.90872 0.0
C620 C 0.95474 0.64438 0.90778 0.0
C621 C 0.94524 0.66231 0.94363 0.0
C622 C 0.91175 0.59273 0.94892 0.0
C623 C 0.97616 0.65 0.86794 0.0
C624 C 0.9808 0.57338 0.85829 0.0
C625 C 0.97385 0.56781 0.79501 0.0
C626 C 0.97068 0.59035 0.89662 0.0
C627 C 0.95371 0.60246 0.87022 0.0
C628 C 0.94672 0.59695 0.80615 0.0
C629 C 0.95666 0.57941 0.76962 0.0
C630 C 0.97813 0.5953 0.96531 0.0
C631 C 0.9291 0.60989 0.77576 0.0
H632 H 0.89833 0.63225 0.00726 0.0
H633 H 0.95341 0.6799 0.94294 0.0
H634 H 0.90627 0.58627 0.90013 0.0
H635 H 0.92369 0.58072 0.96549 0.0
H636 H 0.89666 0.59199 0.98214 0.0
H637 H 0.98227 0.66876 0.87172 0.0
H638 H 0.98977 0.63983 0.88383 0.0
H639 H 0.97312 0.64499 0.81639 0.0
H640 H 0.99387 0.56415 0.87829 0.0
H641 H 0.95132 0.57513 0.72059 0.0
H642 H 0.96322 0.59354 0.99902 0.0
H643 H 0.98593 0.61345 0.97103 0.0
H644 H 0.99058 0.58343 0.97966 0.0
H645 H 0.91302 0.60809 0.80461 0.0
H646 H 0.9256 0.60352 0.72535 0.0
H647 H 0.93491 0.6287 0.77551 0.0
C648 C 0.0474 0.15848 0.52653 0.0
C649 C 0.06278 0.15733 0.47384 0.0
C650 C 0.03588 0.13826 0.55082 0.0
C651 C 0.04015 0.11636 0.52254 0.0
C652 C 0.05625 0.11497 0.47108 0.0
C653 C 0.06717 0.13547 0.44687 0.0
C654 C 0.01875 0.14037 0.60571 0.0
C655 C 0.06176 0.09183 0.44105 0.0
C656 C 0.02609 0.06286 0.61962 0.0
C657 C 0.00641 0.05259 0.59051 0.0
C658 C 0.03714 0.0837 0.59847 0.0
C659 C 0.02802 0.0948 0.54724 0.0
C660 C 0.00784 0.08481 0.51817 0.0
C661 C 0.99745 0.06356 0.53957 0.0
C662 C 0.05898 0.0934 0.62959 0.0
C663 C 0.99743 0.0964 0.464 0.0
H664 H 0.04417 0.17522 0.54851 0.0
H665 H 0.07871 0.13432 0.40555 0.0
H666 H 0.00161 0.13398 0.5887 0.0
H667 H 0.02254 0.12938 0.64578 0.0
H668 H 0.01837 0.15857 0.62488 0.0
H669 H 0.07544 0.09373 0.40329 0.0
H670 H 0.06714 0.08063 0.47878 0.0
H671 H 0.04642 0.08265 0.41892 0.0
H672 H 0.03358 0.0542 0.65703 0.0
H673 H 0.9823 0.05552 0.51656 0.0
H674 H 0.05734 0.11124 0.64992 0.0
H675 H 0.07296 0.09459 0.59273 0.0
H676 H 0.0638 0.08254 0.66891 0.0
H677 H 0.99468 0.11459 0.47902 0.0
H678 H 0.981 0.08712 0.44929 0.0
H679 H 0.0092 0.09707 0.42135 0.0
C680 C 0.3605 0.98091 0.48973 0.0
C681 C 0.36184 0.97708 0.4226 0.0
C682 C 0.37946 0.97925 0.52763 0.0
C683 C 0.39995 0.97312 0.49748 0.0
C684 C 0.40105 0.9684 0.42994 0.0
C685 C 0.38201 0.97065 0.39319 0.0
C686 C 0.37787 0.98492 0.59938 0.0
C687 C 0.42251 0.96155 0.39629 0.0
C688 C 0.45539 0.99353 0.57667 0.0
C689 C 0.46025 0.97376 0.60778 0.0
C690 C 0.43569 0.99367 0.54129 0.0
C691 C 0.42068 0.9732 0.53575 0.0
C692 C 0.42561 0.95294 0.56635 0.0
C693 C 0.44525 0.95357 0.60284 0.0
C694 C 0.43081 0.01583 0.51068 0.0
C695 C 0.41014 0.9307 0.56067 0.0
H696 H 0.34488 0.98603 0.51217 0.0
H697 H 0.38288 0.96752 0.34122 0.0
H698 H 0.38271 0.97019 0.62671 0.0
H699 H 0.38995 1.00019 0.61204 0.0
H700 H 0.36056 0.98883 0.61558 0.0
H701 H 0.41998 0.9566 0.34441 0.0
H702 H 0.43593 0.97626 0.39976 0.0
H703 H 0.42879 0.94672 0.42027 0.0
H704 H 0.46641 0.00924 0.58245 0.0
H705 H 0.44892 0.93826 0.62744 0.0
H706 H 0.41356 0.02037 0.52518 0.0
H707 H 0.43134 0.01332 0.4573 0.0
H708 H 0.4432 0.03073 0.52445 0.0
H709 H 0.39312 0.93355 0.58148 0.0
H710 H 0.41676 0.9163 0.58583 0.0
H711 H 0.40793 0.92531 0.509 0.0
C712 C 0.4674 0.36076 0.45581 0.0
C713 C 0.4438 0.35549 0.45854 0.0
C714 C 0.47759 0.38134 0.48456 0.0
C715 C 0.46386 0.39718 0.51658 0.0
C716 C 0.44009 0.39169 0.52153 0.0
C717 C 0.4303 0.3709 0.49219 0.0
C718 C 0.50301 0.38652 0.47837 0.0
C719 C 0.42496 0.40811 0.55591 0.0
C720 C 0.49542 0.44389 0.62266 0.0
C721 C 0.49871 0.46229 0.58061 0.0
C722 C 0.4832 0.42285 0.60362 0.0
C723 C 0.47446 0.42012 0.54063 0.0
C724 C 0.47751 0.43881 0.49834 0.0
C725 C 0.48966 0.45969 0.51886 0.0
C726 C 0.48015 0.40339 0.65026 0.0
C727 C 0.46833 0.43659 0.43091 0.0
H728 H 0.47794 0.3492 0.42892 0.0
H729 H 0.41208 0.36681 0.49496 0.0
H730 H 0.50714 0.40191 0.44861 0.0
H731 H 0.5103 0.39078 0.52662 0.0
H732 H 0.51137 0.37171 0.4556 0.0
H733 H 0.40727 0.40013 0.56209 0.0
H734 H 0.43162 0.41368 0.60415 0.0
H735 H 0.42475 0.42396 0.5278 0.0
H736 H 0.50251 0.44592 0.67043 0.0
H737 H 0.49203 0.47401 0.48658 0.0
H738 H 0.49024 0.38908 0.63273 0.0
H739 H 0.46214 0.39617 0.65307 0.0
H740 H 0.48562 0.40921 0.69966 0.0
H741 H 0.47674 0.42309 0.4021 0.0
H742 H 0.47104 0.45317 0.40546 0.0
H743 H 0.44991 0.43098 0.43277 0.0
C744 C 0.137 0.51778 0.42578 0.0
C745 C 0.15092 0.53852 0.4179 0.0
C746 C 0.11542 0.51794 0.45516 0.0
C747 C 0.10762 0.53936 0.47716 0.0
C748 C 0.12176 0.56028 0.47075 0.0
C749 C 0.14326 0.55962 0.44104 0.0
C750 C 0.10096 0.49522 0.46284 0.0
C751 C 0.11404 0.58335 0.4945 0.0
C752 C 0.0439 0.54003 0.49657 0.0
C753 C 0.04064 0.53738 0.56316 0.0
C754 C 0.06573 0.54142 0.46809 0.0
C755 C 0.08464 0.53974 0.50717 0.0
C756 C 0.08144 0.53738 0.5745 0.0
C757 C 0.05947 0.53655 0.60151 0.0
C758 C 0.06851 0.544 0.39604 0.0
C759 C 0.10106 0.53532 0.61816 0.0
H760 H 0.143 0.5014 0.40888 0.0
H761 H 0.15384 0.57572 0.43439 0.0
H762 H 0.09631 0.49296 0.51459 0.0
H763 H 0.08495 0.49538 0.43654 0.0
H764 H 0.10973 0.48003 0.44442 0.0
H765 H 0.12705 0.59807 0.48554 0.0
H766 H 0.09827 0.58651 0.47017 0.0
H767 H 0.11006 0.58305 0.54713 0.0
H768 H 0.02932 0.5406 0.46652 0.0
H769 H 0.05696 0.53394 0.65205 0.0
H770 H 0.07537 0.52831 0.37337 0.0
H771 H 0.08087 0.55909 0.38557 0.0
H772 H 0.05224 0.5464 0.37312 0.0
H773 H 0.11367 0.52439 0.59506 0.0
H774 H 0.09529 0.5277 0.66471 0.0
H775 H 0.10976 0.55287 0.62868 0.0
C776 C 0.95955 0.85595 0.89368 0.0
C777 C 0.93584 0.85272 0.89268 0.0
C778 C 0.97152 0.87488 0.8644 0.0
C779 C 0.95945 0.89097 0.83338 0.0
C780 C 0.93562 0.8868 0.82782 0.0
C781 C 0.92403 0.86761 0.85765 0.0
C782 C 0.99693 0.87858 0.87108 0.0
C783 C 0.92222 0.90348 0.79452 0.0
C784 C 0.98712 0.95259 0.84776 0.0
C785 C 0.99827 0.95494 0.78761 0.0
C786 C 0.97368 0.93214 0.8621 0.0
C787 C 0.97151 0.91353 0.81524 0.0
C788 C 0.98239 0.91598 0.75384 0.0
C789 C 0.99582 0.93668 0.74089 0.0
C790 C 0.96221 0.93031 0.92803 0.0
C791 C 0.98015 0.89665 0.70238 0.0
H792 H 0.96867 0.84418 0.92009 0.0
H793 H 0.90568 0.86507 0.85693 0.0
H794 H 0.00536 0.88241 0.82374 0.0
H795 H 0.00124 0.89378 0.90449 0.0
H796 H 0.00396 0.86322 0.89029 0.0
H797 H 0.90469 0.89585 0.78458 0.0
H798 H 0.92125 0.91947 0.82564 0.0
H799 H 0.93075 0.90869 0.74839 0.0
H800 H 0.98874 0.96684 0.88361 0.0
H801 H 0.00439 0.93861 0.69421 0.0
H802 H 0.96958 0.91685 0.95509 0.0
H803 H 0.94386 0.92486 0.92325 0.0
H804 H 0.96413 0.947 0.9569 0.0
H805 H 0.9877 0.90219 0.65517 0.0
H806 H 0.96204 0.89045 0.69571 0.0
H807 H 0.98875 0.88168 0.71772 0.0
C808 C 0.64399 0.02285 0.93872 0.0
C809 C 0.64819 0.99954 0.94328 0.0
C810 C 0.62557 0.02893 0.9046 0.0
C811 C 0.61112 0.01128 0.87346 0.0
C812 C 0.61566 0.98773 0.87592 0.0
C813 C 0.63413 0.98212 0.91111 0.0
C814 C 0.62128 0.05422 0.90308 0.0
C815 C 0.60061 0.96842 0.84326 0.0
C816 C 0.55116 0.02459 0.8406 0.0
C817 C 0.55322 0.03061 0.77596 0.0
C818 C 0.56993 0.01828 0.8731 0.0
C819 C 0.59104 0.01758 0.83949 0.0
C820 C 0.59315 0.02371 0.7741 0.0
C821 C 0.5743 0.03065 0.74353 0.0
C822 C 0.56725 0.01253 0.94344 0.0
C823 C 0.61516 0.02249 0.73606 0.0
H824 H 0.65505 0.03641 0.96255 0.0
H825 H 0.63715 0.96406 0.91501 0.0
H826 H 0.62133 0.05964 0.85239 0.0
H827 H 0.6043 0.05675 0.92471 0.0
H828 H 0.63417 0.06582 0.92979 0.0
H829 H 0.6085 0.95173 0.84042 0.0
H830 H 0.58435 0.96579 0.87102 0.0
H831 H 0.59662 0.97299 0.79372 0.0
H832 H 0.53486 0.02484 0.86564 0.0
H833 H 0.57586 0.03518 0.69329 0.0
H834 H 0.57823 0.02526 0.97294 0.0
H835 H 0.57285 0.99511 0.95073 0.0
H836 H 0.54947 0.01285 0.96171 0.0
H837 H 0.6286 0.03473 0.75809 0.0
H838 H 0.61362 0.02675 0.68472 0.0
H839 H 0.62078 0.00477 0.73755 0.0
C840 C 0.57162 0.64201 0.96205 0.0
C841 C 0.57 0.66369 0.93561 0.0
C842 C 0.55967 0.6218 0.93627 0.0
C843 C 0.54555 0.6233 0.8831 0.0
C844 C 0.5439 0.64505 0.85579 0.0
C845 C 0.55616 0.66501 0.88238 0.0
C846 C 0.56211 0.59885 0.96616 0.0
C847 C 0.52898 0.64727 0.79905 0.0
C848 C 0.53237 0.568 0.78145 0.0
C849 C 0.51083 0.55999 0.80508 0.0
C850 C 0.54365 0.58881 0.80541 0.0
C851 C 0.53314 0.60189 0.85492 0.0
C852 C 0.51132 0.59391 0.87931 0.0
C853 C 0.50049 0.57285 0.85445 0.0
C854 C 0.56706 0.59648 0.7788 0.0
C855 C 0.49957 0.60749 0.93201 0.0
H856 H 0.58188 0.64087 0.00401 0.0
H857 H 0.55492 0.68166 0.86144 0.0
H858 H 0.54533 0.59117 0.98396 0.0
H859 H 0.56845 0.5864 0.92924 0.0
H860 H 0.57392 0.60065 0.00709 0.0
H861 H 0.53133 0.66491 0.77933 0.0
H862 H 0.5325 0.63433 0.75983 0.0
H863 H 0.51095 0.6436 0.81441 0.0
H864 H 0.54088 0.5577 0.74572 0.0
H865 H 0.4839 0.56649 0.8733 0.0
H866 H 0.57959 0.59669 0.81756 0.0
H867 H 0.5676 0.61442 0.76167 0.0
H868 H 0.57235 0.58487 0.73811 0.0
H869 H 0.50968 0.6087 0.97644 0.0
H870 H 0.48227 0.5994 0.94382 0.0
H871 H 0.49831 0.62549 0.91708 0.0
C872 C 0.86479 0.47263 0.94551 0.0
C873 C 0.85393 0.45047 0.93149 0.0
C874 C 0.88671 0.47902 0.92142 0.0
C875 C 0.89786 0.46293 0.88156 0.0
C876 C 0.8869 0.44057 0.86677 0.0
C877 C 0.86508 0.43449 0.89259 0.0
C878 C 0.8979 0.50299 0.93856 0.0
C879 C 0.89815 0.42319 0.8233 0.0
C880 C 0.94472 0.48909 0.77165 0.0
C881 C 0.96412 0.48516 0.80454 0.0
C882 C 0.92305 0.48144 0.79529 0.0
C883 C 0.92079 0.46987 0.85414 0.0
C884 C 0.94036 0.46611 0.8883 0.0
C885 C 0.96187 0.47392 0.8631 0.0
C886 C 0.9026 0.48603 0.75769 0.0
C887 C 0.93855 0.45422 0.95188 0.0
H888 H 0.85625 0.48485 0.97646 0.0
H889 H 0.8566 0.41737 0.88182 0.0
H890 H 0.91425 0.5016 0.96212 0.0
H891 H 0.90174 0.51275 0.89404 0.0
H892 H 0.88711 0.51318 0.97153 0.0
H893 H 0.88748 0.40642 0.81734 0.0
H894 H 0.90175 0.43041 0.77494 0.0
H895 H 0.91463 0.41983 0.84326 0.0
H896 H 0.94637 0.49905 0.72893 0.0
H897 H 0.97693 0.47121 0.88911 0.0
H898 H 0.89038 0.49496 0.78916 0.0
H899 H 0.89375 0.46927 0.74005 0.0
H900 H 0.90724 0.49688 0.71557 0.0
H901 H 0.92898 0.46449 0.98786 0.0
H902 H 0.95543 0.45207 0.97148 0.0
H903 H 0.929 0.43685 0.94587 0.0
C904 C 0.10178 0.17883 0.94307 0.0
C905 C 0.08764 0.18655 0.99333 0.0
C906 C 0.09516 0.15865 0.90528 0.0
C907 C 0.07425 0.14564 0.91951 0.0
C908 C 0.05993 0.1535 0.97007 0.0
C909 C 0.0667 0.17395 0.00589 0.0
C910 C 0.1106 0.1511 0.85074 0.0
C911 C 0.03769 0.13994 0.98763 0.0
C912 C 0.04341 0.10253 0.80184 0.0
C913 C 0.04897 0.08131 0.82394 0.0
C914 C 0.05268 0.12369 0.82989 0.0
C915 C 0.06727 0.12357 0.88269 0.0
C916 C 0.07338 0.10213 0.90409 0.0
C917 C 0.06438 0.08121 0.87373 0.0
C918 C 0.04625 0.14615 0.80442 0.0
C919 C 0.08852 0.10125 0.96106 0.0
H920 H 0.118 0.18855 0.93358 0.0
H921 H 0.05596 0.17964 0.04562 0.0
H922 H 0.11669 0.13413 0.86105 0.0
H923 H 0.10116 0.14861 0.80513 0.0
H924 H 0.12555 0.16391 0.84329 0.0
H925 H 0.02864 0.14834 0.0287 0.0
H926 H 0.02647 0.13816 0.94547 0.0
H927 H 0.04075 0.12215 0.00086 0.0
H928 H 0.03169 0.10258 0.76266 0.0
H929 H 0.06865 0.06475 0.8907 0.0
H930 H 0.06162 0.15829 0.79618 0.0
H931 H 0.03529 0.1547 0.84066 0.0
H932 H 0.037 0.14333 0.7585 0.0
H933 H 0.10449 0.11256 0.95384 0.0
H934 H 0.09276 0.08333 0.96914 0.0
H935 H 0.07992 0.10795 0.00539 0.0
C936 C 0.33634 0.99416 0.87287 0.0
C937 C 0.33108 0.01032 0.9223 0.0
C938 C 0.3574 0.99631 0.83969 0.0
C939 C 0.37349 0.01522 0.85578 0.0
C940 C 0.36754 0.03264 0.90154 0.0
C941 C 0.34649 0.02992 0.93451 0.0
C942 C 0.36302 0.97739 0.79096 0.0
C943 C 0.38405 0.0533 0.91923 0.0
C944 C 0.43566 0.00444 0.84203 0.0
C945 C 0.44251 0.01466 0.78365 0.0
C946 C 0.41327 0.0046 0.86587 0.0
C947 C 0.3973 0.01534 0.83072 0.0
C948 C 0.40412 0.02595 0.77218 0.0
C949 C 0.42663 0.02546 0.74929 0.0
C950 C 0.40662 0.99292 0.92832 0.0
C951 C 0.38761 0.03763 0.73351 0.0
H952 H 0.3244 0.9792 0.86216 0.0
H953 H 0.34282 0.04243 0.97293 0.0
H954 H 0.3714 0.98491 0.74713 0.0
H955 H 0.37505 0.96649 0.81228 0.0
H956 H 0.3477 0.96599 0.77642 0.0
H957 H 0.37578 0.06686 0.94837 0.0
H958 H 0.39786 0.04753 0.94778 0.0
H959 H 0.39194 0.06115 0.87515 0.0
H960 H 0.4477 0.99597 0.86886 0.0
H961 H 0.43165 0.03328 0.70386 0.0
H962 H 0.39277 0.97891 0.91974 0.0
H963 H 0.4001 0.00566 0.96409 0.0
H964 H 0.42103 0.98527 0.94965 0.0
H965 H 0.37299 0.02506 0.72033 0.0
H966 H 0.39553 0.04484 0.68851 0.0
H967 H 0.38082 0.05195 0.76321 0.0
C968 C 0.43299 0.33026 0.8987 0.0
C969 C 0.41622 0.32963 0.9482 0.0
C970 C 0.43856 0.35039 0.86381 0.0
C971 C 0.42666 0.37019 0.87738 0.0
C972 C 0.40826 0.36891 0.92256 0.0
C973 C 0.40347 0.34883 0.95802 0.0
C974 C 0.45841 0.35105 0.81633 0.0
C975 C 0.39469 0.3894 0.93707 0.0
C976 C 0.4598 0.42934 0.86724 0.0
C977 C 0.45355 0.43657 0.80731 0.0
C978 C 0.45124 0.40772 0.89002 0.0
C979 C 0.43563 0.39313 0.85253 0.0
C980 C 0.42885 0.40058 0.79242 0.0
C981 C 0.43812 0.42218 0.77014 0.0
C982 C 0.45923 0.40036 0.95389 0.0
C983 C 0.41205 0.3857 0.75142 0.0
H984 H 0.44252 0.31536 0.88904 0.0
H985 H 0.39059 0.3489 0.99617 0.0
H986 H 0.45414 0.35876 0.77074 0.0
H987 H 0.4729 0.36222 0.83715 0.0
H988 H 0.46394 0.33349 0.80488 0.0
H989 H 0.37871 0.3844 0.9645 0.0
H990 H 0.40492 0.40288 0.96628 0.0
H991 H 0.39048 0.39734 0.89171 0.0
H992 H 0.47189 0.44036 0.8958 0.0
H993 H 0.43338 0.42775 0.72359 0.0
H994 H 0.46688 0.38362 0.94703 0.0
H995 H 0.44462 0.39757 0.98829 0.0
H996 H 0.47195 0.41345 0.97608 0.0
H997 H 0.41983 0.37006 0.73207 0.0
H998 H 0.40652 0.39515 0.71005 0.0
H999 H 0.39689 0.37964 0.78102 0.0
C1000 C 0.19459 0.54364 0.88477 0.0
C1001 C 0.19572 0.55485 0.94612 0.0
C1002 C 0.17393 0.53999 0.85249 0.0
C1003 C 0.15392 0.54716 0.88321 0.0
C1004 C 0.15514 0.55898 0.94444 0.0
C1005 C 0.17603 0.56283 0.97484 0.0
C1006 C 0.17337 0.52785 0.7865 0.0
C1007 C 0.13417 0.56653 0.97945 0.0
C1008 C 0.09966 0.55235 0.7942 0.0
C1009 C 0.08713 0.53125 0.80753 0.0
C1010 C 0.12186 0.55735 0.81599 0.0
C1011 C 0.13142 0.54114 0.85367 0.0
C1012 C 0.11881 0.51973 0.86694 0.0
C1013 C 0.0969 0.51491 0.84289 0.0
C1014 C 0.13497 0.58007 0.79936 0.0
C1015 C 0.1282 0.5022 0.9081 0.0
H1016 H 0.20979 0.53741 0.86261 0.0
H1017 H 0.17672 0.57107 0.02287 0.0
H1018 H 0.16397 0.51039 0.7896 0.0
H1019 H 0.16428 0.53772 0.75248 0.0
H1020 H 0.19066 0.52573 0.76629 0.0
H1021 H 0.13815 0.57624 0.02581 0.0
H1022 H 0.12524 0.57772 0.94866 0.0
H1023 H 0.12229 0.55105 0.98977 0.0
H1024 H 0.0922 0.56484 0.76594 0.0
H1025 H 0.08719 0.49857 0.85301 0.0
H1026 H 0.15187 0.57689 0.77823 0.0
H1027 H 0.13782 0.59119 0.8439 0.0
H1028 H 0.12595 0.58974 0.76461 0.0
H1029 H 0.14456 0.49724 0.88704 0.0
H1030 H 0.11641 0.48621 0.91285 0.0
H1031 H 0.1316 0.51003 0.95712 0.0
C1032 C 0.89519 0.84907 0.39465 0.0
C1033 C 0.90147 0.82662 0.40329 0.0
C1034 C 0.90429 0.86821 0.43243 0.0
C1035 C 0.92039 0.86498 0.47941 0.0
C1036 C 0.92581 0.84228 0.49126 0.0
C1037 C 0.91616 0.82334 0.45335 0.0
C1038 C 0.8978 0.89211 0.41893 0.0
C1039 C 0.94293 0.83814 0.54096 0.0
C1040 C 0.96435 0.91636 0.50537 0.0
C1041 C 0.95649 0.9266 0.5631 0.0
C1042 C 0.95307 0.89589 0.47875 0.0
C1043 C 0.93333 0.88561 0.5104 0.0
C1044 C 0.92548 0.8958 0.56922 0.0
C1045 C 0.93723 0.91619 0.59502 0.0
C1046 C 0.96212 0.88546 0.41621 0.0
C1047 C 0.90447 0.88541 0.6042 0.0
H1048 H 0.88418 0.85206 0.3557 0.0
H1049 H 0.92081 0.80605 0.46135 0.0
H1050 H 0.89366 0.90169 0.46468 0.0
H1051 H 0.91233 0.90224 0.39519 0.0
H1052 H 0.88302 0.89137 0.38691 0.0
H1053 H 0.94304 0.8194 0.55037 0.0
H1054 H 0.96011 0.84479 0.5235 0.0
H1055 H 0.93944 0.84773 0.58717 0.0
H1056 H 0.97936 0.92434 0.48098 0.0
H1057 H 0.93118 0.92418 0.63972 0.0
H1058 H 0.9495 0.88582 0.37789 0.0
H1059 H 0.96495 0.86701 0.42218 0.0
H1060 H 0.9783 0.89491 0.39958 0.0
H1061 H 0.8897 0.88472 0.5723 0.0
H1062 H 0.90061 0.8955 0.6494 0.0
H1063 H 0.90662 0.8673 0.61647 0.0
C1064 C 0.65519 0.95916 0.43427 0.0
C1065 C 0.67448 0.9748 0.4446 0.0
C1066 C 0.63483 0.96169 0.46888 0.0
C1067 C 0.63359 0.98047 0.51455 0.0
C1068 C 0.65323 0.99569 0.52754 0.0
C1069 C 0.67349 0.99257 0.4927 0.0
C1070 C 0.61432 0.94494 0.4541 0.0
C1071 C 0.65265 0.01573 0.57659 0.0
C1072 C 0.57537 0.00206 0.54141 0.0
C1073 C 0.56809 0.99189 0.59948 0.0
C1074 C 0.59684 0.99882 0.51398 0.0
C1075 C 0.61134 0.98499 0.54521 0.0
C1076 C 0.60418 0.97483 0.60405 0.0
C1077 C 0.58269 0.97843 0.63053 0.0
C1078 C 0.604 0.01013 0.45139 0.0
C1079 C 0.61913 0.95998 0.63881 0.0
H1080 H 0.65555 0.9456 0.39657 0.0
H1081 H 0.6884 0.00451 0.50173 0.0
H1082 H 0.60646 0.938 0.49941 0.0
H1083 H 0.60143 0.95419 0.43061 0.0
H1084 H 0.61858 0.93011 0.42157 0.0
H1085 H 0.66907 0.02671 0.57857 0.0
H1086 H 0.63915 0.02682 0.56506 0.0
H1087 H 0.64854 0.00899 0.62522 0.0
H1088 H 0.56435 0.01267 0.5174 0.0
H1089 H 0.57738 0.97065 0.67579 0.0
H1090 H 0.60708 0.99661 0.41334 0.0
H1091 H 0.62015 0.02128 0.45766 0.0
H1092 H 0.59105 0.02094 0.43427 0.0
H1093 H 0.62353 0.94515 0.60662 0.0
H1094 H 0.6109 0.95306 0.68375 0.0
H1095 H 0.63523 0.97029 0.65156 0.0
C1096 C 0.61535 0.67913 0.46041 0.0
C1097 C 0.60036 0.6876 0.41813 0.0
C1098 C 0.60882 0.65924 0.49564 0.0
C1099 C 0.58704 0.64732 0.48698 0.0
C1100 C 0.57186 0.65592 0.4445 0.0
C1101 C 0.57865 0.67604 0.41106 0.0
C1102 C 0.62521 0.65089 0.54173 0.0
C1103 C 0.5486 0.64357 0.43314 0.0
C1104 C 0.57388 0.58347 0.52188 0.0
C1105 C 0.55991 0.58489 0.57726 0.0
C1106 C 0.58369 0.60373 0.49322 0.0
C1107 C 0.57985 0.62579 0.5218 0.0
C1108 C 0.56696 0.62715 0.58023 0.0
C1109 C 0.55682 0.60668 0.60664 0.0
C1110 C 0.59701 0.60155 0.43037 0.0
C1111 C 0.56291 0.65024 0.61321 0.0
H1112 H 0.63216 0.68804 0.46575 0.0
H1113 H 0.5672 0.68227 0.37738 0.0
H1114 H 0.61721 0.64954 0.59068 0.0
H1115 H 0.62957 0.63327 0.52582 0.0
H1116 H 0.64112 0.66266 0.54501 0.0
H1117 H 0.53901 0.65232 0.39763 0.0
H1118 H 0.55016 0.62543 0.41513 0.0
H1119 H 0.53862 0.64275 0.47925 0.0
H1120 H 0.5762 0.56659 0.49917 0.0
H1121 H 0.54611 0.60777 0.6498 0.0
H1122 H 0.61357 0.61217 0.43319 0.0
H1123 H 0.58755 0.60828 0.39091 0.0
H1124 H 0.60009 0.58326 0.41738 0.0
H1125 H 0.57879 0.66207 0.61418 0.0
H1126 H 0.55629 0.64824 0.66354 0.0
H1127 H 0.55038 0.65867 0.58586 0.0
C1128 C 0.83599 0.44895 0.38841 0.0
C1129 C 0.81462 0.45514 0.40962 0.0
C1130 C 0.85549 0.45637 0.42289 0.0
C1131 C 0.8536 0.47013 0.48062 0.0
C1132 C 0.832 0.47596 0.50339 0.0
C1133 C 0.81273 0.46861 0.4671 0.0
C1134 C 0.87823 0.45006 0.39634 0.0
C1135 C 0.82931 0.4902 0.56545 0.0
C1136 C 0.90524 0.47171 0.5849 0.0
C1137 C 0.91726 0.49268 0.56787 0.0
C1138 C 0.88379 0.4648 0.55994 0.0
C1139 C 0.87451 0.47891 0.51541 0.0
C1140 C 0.8864 0.50038 0.49924 0.0
C1141 C 0.90757 0.50714 0.52633 0.0
C1142 C 0.87144 0.44206 0.57961 0.0
C1143 C 0.87727 0.51572 0.45109 0.0
H1144 H 0.8376 0.43896 0.34326 0.0
H1145 H 0.79622 0.47343 0.48347 0.0
H1146 H 0.88938 0.4661 0.38647 0.0
H1147 H 0.8867 0.44053 0.43247 0.0
H1148 H 0.87673 0.43911 0.35098 0.0
H1149 H 0.81124 0.49188 0.5788 0.0
H1150 H 0.83733 0.48218 0.60553 0.0
H1151 H 0.8381 0.50786 0.56046 0.0
H1152 H 0.91265 0.46064 0.61772 0.0
H1153 H 0.91688 0.52339 0.51332 0.0
H1154 H 0.8714 0.42921 0.53824 0.0
H1155 H 0.85351 0.44438 0.59297 0.0
H1156 H 0.87945 0.43478 0.62103 0.0
H1157 H 0.87657 0.50659 0.40285 0.0
H1158 H 0.88789 0.5325 0.44678 0.0
H1159 H 0.85973 0.51938 0.46522 0.0
loop_
_geom_bond_atom_site_label_1
_geom_bond_atom_site_label_2
_geom_bond_distance
_geom_bond_site_symmetry_2
_ccdc_geom_bond_type
C0 C1 1.386 . S
C0 C2 1.397 . S
C0 H24 0.931 . S
C1 C0 1.386 . S
C1 C5 1.397 . S
C2 C0 1.397 . S
C2 C3 1.384 . S
C2 H25 0.930 . S
C3 C2 1.384 . S
C3 C4 1.377 . S
C3 C6 1.481 1_556 S
C4 C3 1.377 . S
C4 C5 1.389 . S
C4 H26 0.929 . S
C5 C1 1.397 . S
C5 C4 1.389 . S
C5 H27 0.931 . S
C6 C3 1.481 1_554 S
C6 C7 1.387 1_554 S
C6 C11 1.390 . S
C7 C6 1.387 1_556 S
C7 C8 1.401 1_556 S
C7 H28 0.930 . S
C8 C7 1.401 1_554 S
C8 C9 1.376 . S
C8 C17 1.511 . S
C9 C8 1.376 . S
C9 C10 1.392 . S
C9 H30 0.931 . S
C10 C9 1.392 . S
C10 C11 1.361 . S
C10 C12 1.500 . S
C11 C6 1.390 . S
C11 C10 1.361 . S
C11 H29 0.931 . S
C12 C10 1.500 . S
C12 C13 1.371 . S
C12 C14 1.365 . S
C13 C12 1.371 . S
C13 C23 1.386 . S
C13 H31 0.931 . S
C14 C12 1.365 . S
C14 C15 1.409 . S
C14 H32 0.929 . S
C15 C14 1.409 . S
C15 C16 1.380 . S
C15 H33 0.930 . S
C16 C15 1.380 . S
C16 C23 1.357 . S
C17 C8 1.511 . S
C17 C18 1.341 1_554 S
C17 C19 1.371 . S
C18 C17 1.341 1_556 S
C18 C22 1.394 . S
C18 H34 0.930 . S
C19 C17 1.371 . S
C19 C20 1.392 . S
C19 H35 0.931 . S
C20 C19 1.392 . S
C20 C21 1.331 . S
C20 H38 0.932 . S
C21 C20 1.331 . S
C21 C22 1.336 1_554 S
C22 C18 1.394 . S
C22 C21 1.336 1_556 S
C22 H37 0.929 . S
C23 C13 1.386 . S
C23 C16 1.357 . S
C23 H36 0.928 . S
H24 C0 0.931 . S
H25 C2 0.930 . S
H26 C4 0.929 . S
H27 C5 0.931 . S
H28 C7 0.930 . S
H29 C11 0.931 . S
H30 C9 0.931 . S
H31 C13 0.931 . S
H32 C14 0.929 . S
H33 C15 0.930 . S
H34 C18 0.930 . S
H35 C19 0.931 . S
H36 C23 0.928 . S
H37 C22 0.929 . S
H38 C20 0.932 . S
C39 C40 1.386 . S
C39 C41 1.397 . S
C39 H63 0.931 . S
C40 C39 1.386 . S
C40 C44 1.397 . S
C41 C39 1.397 . S
C41 C42 1.384 . S
C41 H64 0.930 . S
C42 C41 1.384 . S
C42 C43 1.377 . S
C42 C45 1.481 . S
C43 C42 1.377 . S
C43 C44 1.389 . S
C43 H65 0.929 . S
C44 C40 1.397 . S
C44 C43 1.389 . S
C44 H66 0.931 . S
C45 C42 1.481 . S
C45 C46 1.387 . S
C45 C50 1.390 1_556 S
C46 C45 1.387 . S
C46 C47 1.401 1_556 S
C46 H67 0.930 . S
C47 C46 1.401 1_554 S
C47 C48 1.376 . S
C47 C56 1.511 1_554 S
C48 C47 1.376 . S
C48 C49 1.392 . S
C48 H69 0.931 . S
C49 C48 1.392 . S
C49 C50 1.361 . S
C49 C51 1.500 . S
C50 C45 1.390 1_554 S
C50 C49 1.361 . S
C50 H68 0.931 . S
C51 C49 1.500 . S
C51 C52 1.371 . S
C51 C53 1.365 . S
C52 C51 1.371 . S
C52 C62 1.386 . S
C52 H70 0.931 . S
C53 C51 1.365 . S
C53 C54 1.409 . S
C53 H71 0.929 . S
C54 C53 1.409 . S
C54 C55 1.380 . S
C54 H72 0.930 . S
C55 C54 1.380 . S
C55 C62 1.357 . S
C56 C47 1.511 1_556 S
C56 C57 1.341 . S
C56 C58 1.371 1_556 S
C57 C56 1.341 . S
C57 C61 1.394 . S
C57 H73 0.930 . S
C58 C56 1.371 1_554 S
C58 C59 1.392 . S
C58 H74 0.931 . S
C59 C58 1.392 . S
C59 C60 1.331 1_554 S
C59 H77 0.932 . S
C60 C59 1.331 1_556 S
C60 C61 1.336 . S
C61 C57 1.394 . S
C61 C60 1.336 . S
C61 H76 0.929 . S
C62 C52 1.386 . S
C62 C55 1.357 . S
C62 H75 0.928 . S
H63 C39 0.931 . S
H64 C41 0.930 . S
H65 C43 0.929 . S
H66 C44 0.931 . S
H67 C46 0.930 . S
H68 C50 0.931 . S
H69 C48 0.931 . S
H70 C52 0.931 . S
H71 C53 0.929 . S
H72 C54 0.930 . S
H73 C57 0.930 . S
H74 C58 0.931 . S
H75 C62 0.928 . S
H76 C61 0.929 . S
H77 C59 0.932 . S
C78 C79 1.395 . S
C78 C80 1.397 . S
C78 H102 0.931 . S
C79 C78 1.395 . S
C79 C83 1.389 1_565 S
C80 C78 1.397 . S
C80 C81 1.388 . S
C80 H103 0.930 . S
C81 C80 1.388 . S
C81 C82 1.372 1_566 S
C81 C84 1.478 1_556 S
C82 C81 1.372 1_544 S
C82 C83 1.389 1_554 S
C82 H104 0.929 . S
C83 C79 1.389 1_545 S
C83 C82 1.389 1_556 S
C83 H105 0.931 . S
C84 C81 1.478 1_554 S
C84 C85 1.391 . S
C84 C89 1.391 . S
C85 C84 1.391 . S
C85 C86 1.399 . S
C85 H106 0.930 1_554 S
C86 C85 1.399 . S
C86 C87 1.376 . S
C86 C95 1.515 . S
C87 C86 1.376 . S
C87 C88 1.388 . S
C87 H108 0.939 . S
C88 C87 1.388 . S
C88 C89 1.362 . S
C88 C90 1.499 1_565 S
C89 C84 1.391 . S
C89 C88 1.362 . S
C89 H107 0.930 . S
C90 C88 1.499 1_545 S
C90 C91 1.360 1_545 S
C90 C92 1.376 . S
C91 C90 1.360 1_565 S
C91 C101 1.386 . S
C91 H109 0.931 . S
C92 C90 1.376 . S
C92 C93 1.409 . S
C92 H110 0.929 . S
C93 C92 1.409 . S
C93 C94 1.379 . S
C93 H111 0.930 . S
C94 C93 1.379 . S
C94 C101 1.358 1_545 S
C95 C86 1.515 . S
C95 C96 1.341 . S
C95 C97 1.371 1_565 S
C96 C95 1.341 . S
C96 C100 1.394 1_554 S
C96 H112 0.930 1_554 S
C97 C95 1.371 1_545 S
C97 C98 1.392 . S
C97 H113 0.931 . S
C98 C97 1.392 . S
C98 C99 1.323 1_545 S
C98 H116 0.932 . S
C99 C98 1.323 1_565 S
C99 C100 1.342 1_554 S
C100 C96 1.394 1_556 S
C100 C99 1.342 1_556 S
C100 H115 0.929 . S
C101 C91 1.386 . S
C101 C94 1.358 1_565 S
C101 H114 0.928 . S
H102 C78 0.931 . S
H103 C80 0.930 . S
H104 C82 0.929 . S
H105 C83 0.931 . S
H106 C85 0.930 1_556 S
H107 C89 0.930 . S
H108 C87 0.939 . S
H109 C91 0.931 . S
H110 C92 0.929 . S
H111 C93 0.930 . S
H112 C96 0.930 1_556 S
H113 C97 0.931 . S
H114 C101 0.928 . S
H115 C100 0.929 . S
H116 C98 0.932 . S
C117 C118 1.386 . S
C117 C119 1.397 . S
C117 H141 0.931 . S
C118 C117 1.386 . S
C118 C122 1.397 . S
C119 C117 1.397 . S
C119 C120 1.384 . S
C119 H142 0.930 . S
C120 C119 1.384 . S
C120 C121 1.377 . S
C120 C123 1.481 . S
C121 C120 1.377 . S
C121 C122 1.389 . S
C121 H143 0.929 . S
C122 C118 1.397 . S
C122 C121 1.389 . S
C122 H144 0.931 . S
C123 C120 1.481 . S
C123 C124 1.387 . S
C123 C128 1.390 . S
C124 C123 1.387 . S
C124 C125 1.401 . S
C124 H145 0.930 . S
C125 C124 1.401 . S
C125 C126 1.376 . S
C125 C134 1.511 . S
C126 C125 1.376 . S
C126 C127 1.392 . S
C126 H147 0.931 1_554 S
C127 C126 1.392 . S
C127 C128 1.361 . S
C127 C129 1.500 1_554 S
C128 C123 1.390 . S
C128 C127 1.361 . S
C128 H146 0.931 . S
C129 C127 1.500 1_556 S
C129 C130 1.371 . S
C129 C131 1.365 . S
C130 C129 1.371 . S
C130 C140 1.386 . S
C130 H148 0.931 . S
C131 C129 1.365 . S
C131 C132 1.409 . S
C131 H149 0.929 1_556 S
C132 C131 1.409 . S
C132 C133 1.380 . S
C132 H150 0.930 . S
C133 C132 1.380 . S
C133 C140 1.357 . S
C134 C125 1.511 . S
C134 C135 1.341 . S
C134 C136 1.371 1_554 S
C135 C134 1.341 . S
C135 C139 1.394 . S
C135 H151 0.930 . S
C136 C134 1.371 1_556 S
C136 C137 1.392 . S
C136 H152 0.931 . S
C137 C136 1.392 . S
C137 C138 1.331 1_556 S
C137 H155 0.932 . S
C138 C137 1.331 1_554 S
C138 C139 1.336 . S
C139 C135 1.394 . S
C139 C138 1.336 . S
C139 H154 0.929 . S
C140 C130 1.386 . S
C140 C133 1.357 . S
C140 H153 0.928 . S
H141 C117 0.931 . S
H142 C119 0.930 . S
H143 C121 0.929 . S
H144 C122 0.931 . S
H145 C124 0.930 . S
H146 C128 0.931 . S
H147 C126 0.931 1_556 S
H148 C130 0.931 . S
H149 C131 0.929 1_554 S
H150 C132 0.930 . S
H151 C135 0.930 . S
H152 C136 0.931 . S
H153 C140 0.928 . S
H154 C139 0.929 . S
H155 C137 0.932 . S
C156 C157 1.386 . S
C156 C158 1.397 . S
C156 H180 0.931 . S
C157 C156 1.386 . S
C157 C161 1.397 . S
C158 C156 1.397 . S
C158 C159 1.384 . S
C158 H181 0.930 . S
C159 C158 1.384 . S
C159 C160 1.377 . S
C159 C162 1.481 . S
C160 C159 1.377 . S
C160 C161 1.389 . S
C160 H182 0.929 . S
C161 C157 1.397 . S
C161 C160 1.389 . S
C161 H183 0.931 . S
C162 C159 1.481 . S
C162 C163 1.387 . S
C162 C167 1.390 . S
C163 C162 1.387 . S
C163 C164 1.401 . S
C163 H184 0.930 . S
C164 C163 1.401 . S
C164 C165 1.376 . S
C164 C173 1.511 . S
C165 C164 1.376 . S
C165 C166 1.392 . S
C165 H186 0.931 . S
C166 C165 1.392 . S
C166 C167 1.361 . S
C166 C168 1.500 . S
C167 C162 1.390 . S
C167 C166 1.361 . S
C167 H185 0.931 . S
C168 C166 1.500 . S
C168 C169 1.371 . S
C168 C170 1.365 . S
C169 C168 1.371 . S
C169 C179 1.386 . S
C169 H187 0.931 . S
C170 C168 1.365 . S
C170 C171 1.409 . S
C170 H188 0.929 . S
C171 C170 1.409 . S
C171 C172 1.380 . S
C171 H189 0.930 . S
C172 C171 1.380 . S
C172 C179 1.357 . S
C173 C164 1.511 . S
C173 C174 1.341 . S
C173 C175 1.371 . S
C174 C173 1.341 . S
C174 C178 1.394 . S
C174 H190 0.930 . S
C175 C173 1.371 . S
C175 C176 1.392 . S
C175 H191 0.931 . S
C176 C175 1.392 . S
C176 C177 1.331 . S
C176 H194 0.932 . S
C177 C176 1.331 . S
C177 C178 1.336 . S
C178 C174 1.394 . S
C178 C177 1.336 . S
C178 H193 0.929 . S
C179 C169 1.386 . S
C179 C172 1.357 . S
C179 H192 0.928 . S
H180 C156 0.931 . S
H181 C158 0.930 . S
H182 C160 0.929 . S
H183 C161 0.931 . S
H184 C163 0.930 . S
H185 C167 0.931 . S
H186 C165 0.931 . S
H187 C169 0.931 . S
H188 C170 0.929 . S
H189 C171 0.930 . S
H190 C174 0.930 . S
H191 C175 0.931 . S
H192 C179 0.928 . S
H193 C178 0.929 . S
H194 C176 0.932 . S
C195 C196 1.386 . S
C195 C197 1.397 . S
C195 H219 0.931 . S
C196 C195 1.386 . S
C196 C200 1.397 . S
C197 C195 1.397 . S
C197 C198 1.384 . S
C197 H220 0.930 . S
C198 C197 1.384 . S
C198 C199 1.377 . S
C198 C201 1.481 . S
C199 C198 1.377 . S
C199 C200 1.389 . S
C199 H221 0.929 . S
C200 C196 1.397 . S
C200 C199 1.389 . S
C200 H222 0.931 . S
C201 C198 1.481 . S
C201 C202 1.387 . S
C201 C206 1.390 . S
C202 C201 1.387 . S
C202 C203 1.401 . S
C202 H223 0.930 . S
C203 C202 1.401 . S
C203 C204 1.376 . S
C203 C212 1.511 . S
C204 C203 1.376 . S
C204 C205 1.392 . S
C204 H225 0.931 . S
C205 C204 1.392 . S
C205 C206 1.361 . S
C205 C207 1.500 . S
C206 C201 1.390 . S
C206 C205 1.361 . S
C206 H224 0.931 . S
C207 C205 1.500 . S
C207 C208 1.371 . S
C207 C209 1.365 . S
C208 C207 1.371 . S
C208 C218 1.386 . S
C208 H226 0.931 . S
C209 C207 1.365 . S
C209 C210 1.409 . S
C209 H227 0.929 . S
C210 C209 1.409 . S
C210 C211 1.380 . S
C210 H228 0.930 . S
C211 C210 1.380 . S
C211 C218 1.357 . S
C212 C203 1.511 . S
C212 C213 1.341 . S
C212 C214 1.371 . S
C213 C212 1.341 . S
C213 C217 1.394 . S
C213 H229 0.930 . S
C214 C212 1.371 . S
C214 C215 1.392 . S
C214 H230 0.931 . S
C215 C214 1.392 . S
C215 C216 1.331 . S
C215 H233 0.932 . S
C216 C215 1.331 . S
C216 C217 1.336 . S
C217 C213 1.394 . S
C217 C216 1.336 . S
C217 H232 0.929 . S
C218 C208 1.386 . S
C218 C211 1.357 . S
C218 H231 0.928 . S
H219 C195 0.931 . S
H220 C197 0.930 . S
H221 C199 0.929 . S
H222 C200 0.931 . S
H223 C202 0.930 . S
H224 C206 0.931 . S
H225 C204 0.931 . S
H226 C208 0.931 . S
H227 C209 0.929 . S
H228 C210 0.930 . S
H229 C213 0.930 . S
H230 C214 0.931 . S
H231 C218 0.928 . S
H232 C217 0.929 . S
H233 C215 0.932 . S
C234 C235 1.386 1_565 S
C234 C236 1.397 . S
C234 H258 0.931 . S
C235 C234 1.386 1_545 S
C235 C239 1.397 . S
C236 C234 1.397 . S
C236 C237 1.384 1_565 S
C236 H259 0.930 . S
C237 C236 1.384 1_545 S
C237 C238 1.377 . S
C237 C240 1.481 . S
C238 C237 1.377 . S
C238 C239 1.389 . S
C238 H260 0.929 . S
C239 C235 1.397 . S
C239 C238 1.389 . S
C239 H261 0.931 . S
C240 C237 1.481 . S
C240 C241 1.387 . S
C240 C245 1.390 . S
C241 C240 1.387 . S
C241 C242 1.401 . S
C241 H262 0.930 . S
C242 C241 1.401 . S
C242 C243 1.376 . S
C242 C251 1.511 . S
C243 C242 1.376 . S
C243 C244 1.392 . S
C243 H264 0.931 . S
C244 C243 1.392 . S
C244 C245 1.361 . S
C244 C246 1.500 . S
C245 C240 1.390 . S
C245 C244 1.361 . S
C245 H263 0.931 . S
C246 C244 1.500 . S
C246 C247 1.371 1_545 S
C246 C248 1.365 . S
C247 C246 1.371 1_565 S
C247 C257 1.386 . S
C247 H265 0.931 . S
C248 C246 1.365 . S
C248 C249 1.409 . S
C248 H266 0.929 . S
C249 C248 1.409 . S
C249 C250 1.380 . S
C249 H267 0.930 . S
C250 C249 1.380 . S
C250 C257 1.357 1_545 S
C251 C242 1.511 . S
C251 C252 1.341 1_545 S
C251 C253 1.371 . S
C252 C251 1.341 1_565 S
C252 C256 1.399 . S
C252 H268 0.930 . S
C253 C251 1.371 . S
C253 C254 1.392 . S
C253 H269 0.931 . S
C254 C253 1.392 . S
C254 C255 1.331 . S
C254 H272 0.932 . S
C255 C254 1.331 . S
C255 C256 1.320 1_545 S
C256 C252 1.399 . S
C256 C255 1.320 1_565 S
C256 H271 0.942 . S
C257 C247 1.386 . S
C257 C250 1.357 1_565 S
C257 H270 0.919 1_554 S
H258 C234 0.931 . S
H259 C236 0.930 . S
H260 C238 0.929 . S
H261 C239 0.931 . S
H262 C241 0.930 . S
H263 C245 0.931 . S
H264 C243 0.931 . S
H265 C247 0.931 . S
H266 C248 0.929 . S
H267 C249 0.930 . S
H268 C252 0.930 . S
H269 C253 0.931 . S
H270 C257 0.919 1_556 S
H271 C256 0.942 . S
H272 C254 0.932 . S
C273 C274 1.386 . S
C273 C275 1.397 . S
C273 H297 0.931 . S
C274 C273 1.386 . S
C274 C278 1.397 . S
C275 C273 1.397 . S
C275 C276 1.384 . S
C275 H298 0.930 . S
C276 C275 1.384 . S
C276 C277 1.377 . S
C276 C279 1.481 . S
C277 C276 1.377 . S
C277 C278 1.389 . S
C277 H299 0.929 . S
C278 C274 1.397 . S
C278 C277 1.389 . S
C278 H300 0.931 . S
C279 C276 1.481 . S
C279 C280 1.387 . S
C279 C284 1.390 . S
C280 C279 1.387 . S
C280 C281 1.401 . S
C280 H301 0.930 . S
C281 C280 1.401 . S
C281 C282 1.376 . S
C281 C290 1.511 . S
C282 C281 1.376 . S
C282 C283 1.392 . S
C282 H303 0.931 . S
C283 C282 1.392 . S
C283 C284 1.361 . S
C283 C285 1.500 . S
C284 C279 1.390 . S
C284 C283 1.361 . S
C284 H302 0.931 . S
C285 C283 1.500 . S
C285 C286 1.371 . S
C285 C287 1.365 . S
C286 C285 1.371 . S
C286 C296 1.386 . S
C286 H304 0.931 . S
C287 C285 1.365 . S
C287 C288 1.409 . S
C287 H305 0.929 . S
C288 C287 1.409 . S
C288 C289 1.380 . S
C288 H306 0.930 . S
C289 C288 1.380 . S
C289 C296 1.357 . S
C290 C281 1.511 . S
C290 C291 1.341 . S
C290 C292 1.371 . S
C291 C290 1.341 . S
C291 C295 1.394 . S
C291 H307 0.930 . S
C292 C290 1.371 . S
C292 C293 1.392 . S
C292 H308 0.931 . S
C293 C292 1.392 . S
C293 C294 1.331 . S
C293 H311 0.932 . S
C294 C293 1.331 . S
C294 C295 1.336 . S
C295 C291 1.394 . S
C295 C294 1.336 . S
C295 H310 0.929 . S
C296 C286 1.386 . S
C296 C289 1.357 . S
C296 H309 0.928 . S
H297 C273 0.931 . S
H298 C275 0.930 . S
H299 C277 0.929 . S
H300 C278 0.931 . S
H301 C280 0.930 . S
H302 C284 0.931 . S
H303 C282 0.931 . S
H304 C286 0.931 . S
H305 C287 0.929 . S
H306 C288 0.930 . S
H307 C291 0.930 . S
H308 C292 0.931 . S
H309 C296 0.928 . S
H310 C295 0.929 . S
H311 C293 0.932 . S
Tb312 O315 2.453 1_665 S
Tb312 O316 2.596 1_665 S
Tb312 O317 2.374 1_655 S
Tb312 O325 2.343 . S
Tb312 O327 2.353 1_565 S
Tb312 O329 2.427 . S
Tb312 O330 2.513 . S
C313 O317 1.251 . S
C313 O319 1.263 . S
Tb314 O316 2.343 . S
Tb314 O319 2.353 1_545 S
Tb314 O322 2.427 . S
Tb314 O323 2.513 . S
Tb314 O324 2.453 1_545 S
Tb314 O325 2.596 1_445 S
Tb314 O326 2.374 1_455 S
O315 Tb312 2.453 1_445 S
O315 C331 1.245 . S
O316 Tb312 2.596 1_445 S
O316 Tb314 2.343 . S
O316 C331 1.259 . S
O317 Tb312 2.374 1_455 S
O317 C313 1.251 . S
C318 O322 1.275 . S
C318 O323 1.246 . S
O319 C313 1.263 . S
O319 Tb314 2.353 1_565 S
C320 O324 1.245 1_655 S
C320 O325 1.259 . S
C321 O326 1.250 . S
C321 O327 1.263 . S
O322 Tb314 2.427 . S
O322 C318 1.275 . S
O323 Tb314 2.513 . S
O323 C318 1.246 . S
O324 Tb314 2.453 1_565 S
O324 C320 1.245 1_455 S
O325 Tb312 2.343 . S
O325 Tb314 2.596 1_665 S
O325 C320 1.259 . S
O326 Tb314 2.374 1_655 S
O326 C321 1.250 . S
O327 Tb312 2.353 1_545 S
O327 C321 1.263 . S
C328 O329 1.275 . S
C328 O330 1.246 . S
O329 Tb312 2.427 . S
O329 C328 1.275 . S
O330 Tb312 2.513 . S
O330 C328 1.246 . S
C331 O315 1.245 . S
C331 O316 1.259 . S
Tb332 O335 2.453 . S
Tb332 O336 2.573 1_545 S
Tb332 O337 2.374 . S
Tb332 O345 2.343 . S
Tb332 O347 2.353 . S
Tb332 O349 2.427 . S
Tb332 O350 2.513 . S
C333 O337 1.251 . S
C333 O339 1.263 1_545 S
Tb334 O336 2.360 . S
Tb334 O339 2.353 . S
Tb334 O342 2.427 . S
Tb334 O343 2.513 . S
Tb334 O344 2.453 . S
Tb334 O345 2.596 1_565 S
Tb334 O346 2.374 . S
O335 Tb332 2.453 . S
O335 C351 1.245 . S
O336 Tb332 2.573 1_565 S
O336 Tb334 2.360 . S
O336 C351 1.248 1_565 S
O337 Tb332 2.374 . S
O337 C333 1.251 . S
C338 O342 1.275 . S
C338 O343 1.246 . S
O339 C333 1.263 1_565 S
O339 Tb334 2.353 . S
C340 O344 1.245 . S
C340 O345 1.259 1_565 S
C341 O346 1.250 1_545 S
C341 O347 1.263 . S
O342 Tb334 2.427 . S
O342 C338 1.275 . S
O343 Tb334 2.513 . S
O343 C338 1.246 . S
O344 Tb334 2.453 . S
O344 C340 1.245 . S
O345 Tb332 2.343 . S
O345 Tb334 2.596 1_545 S
O345 C340 1.259 1_545 S
O346 Tb334 2.374 . S
O346 C341 1.250 1_565 S
O347 Tb332 2.353 . S
O347 C341 1.263 . S
C348 O349 1.275 . S
C348 O350 1.246 . S
O349 Tb332 2.427 . S
O349 C348 1.275 . S
O350 Tb332 2.513 . S
O350 C348 1.246 . S
C351 O335 1.245 . S
C351 O336 1.248 1_545 S
Tb352 O355 2.453 . S
Tb352 O356 2.596 . S
Tb352 O357 2.374 . S
Tb352 O365 2.343 . S
Tb352 O367 2.353 . S
Tb352 O369 2.427 . S
Tb352 O370 2.513 . S
C353 O357 1.251 . S
C353 O359 1.263 . S
Tb354 O356 2.343 . S
Tb354 O359 2.353 . S
Tb354 O362 2.427 . S
Tb354 O363 2.513 . S
Tb354 O364 2.453 . S
Tb354 O365 2.596 . S
Tb354 O366 2.374 . S
O355 Tb352 2.453 . S
O355 C371 1.245 . S
O356 Tb352 2.596 . S
O356 Tb354 2.343 . S
O356 C371 1.259 . S
O357 Tb352 2.374 . S
O357 C353 1.251 . S
C358 O362 1.275 . S
C358 O363 1.246 . S
O359 C353 1.263 . S
O359 Tb354 2.353 . S
C360 O364 1.245 . S
C360 O365 1.259 . S
C361 O366 1.250 . S
C361 O367 1.263 . S
O362 Tb354 2.427 . S
O362 C358 1.275 . S
O363 Tb354 2.513 . S
O363 C358 1.246 . S
O364 Tb354 2.453 . S
O364 C360 1.245 . S
O365 Tb352 2.343 . S
O365 Tb354 2.596 . S
O365 C360 1.259 . S
O366 Tb354 2.374 . S
O366 C361 1.250 . S
O367 Tb352 2.353 . S
O367 C361 1.263 . S
C368 O369 1.275 . S
C368 O370 1.246 . S
O369 Tb352 2.427 . S
O369 C368 1.275 . S
O370 Tb352 2.513 . S
O370 C368 1.246 . S
C371 O355 1.245 . S
C371 O356 1.259 . S
Tb372 O375 2.453 1_655 S
Tb372 O376 2.596 1_655 S
Tb372 O377 2.374 1_655 S
Tb372 O385 2.343 . S
Tb372 O387 2.353 . S
Tb372 O389 2.427 . S
Tb372 O390 2.513 . S
C373 O377 1.251 . S
C373 O379 1.263 . S
Tb374 O376 2.343 . S
Tb374 O379 2.353 . S
Tb374 O382 2.427 . S
Tb374 O383 2.513 . S
Tb374 O384 2.453 1_455 S
Tb374 O385 2.596 1_455 S
Tb374 O386 2.374 . S
O375 Tb372 2.453 1_455 S
O375 C391 1.245 . S
O376 Tb372 2.596 1_455 S
O376 Tb374 2.343 . S
O376 C391 1.259 . S
O377 Tb372 2.374 1_455 S
O377 C373 1.251 . S
C378 O382 1.275 . S
C378 O383 1.246 . S
O379 C373 1.263 . S
O379 Tb374 2.353 . S
C380 O384 1.245 . S
C380 O385 1.259 . S
C381 O386 1.250 1_655 S
C381 O387 1.263 . S
O382 Tb374 2.427 . S
O382 C378 1.275 . S
O383 Tb374 2.513 . S
O383 C378 1.246 . S
O384 Tb374 2.453 1_655 S
O384 C380 1.245 . S
O385 Tb372 2.343 . S
O385 Tb374 2.596 1_655 S
O385 C380 1.259 . S
O386 Tb374 2.374 . S
O386 C381 1.250 1_455 S
O387 Tb372 2.353 . S
O387 C381 1.263 . S
C388 O389 1.275 . S
C388 O390 1.246 . S
O389 Tb372 2.427 . S
O389 C388 1.275 . S
O390 Tb372 2.513 . S
O390 C388 1.246 . S
C391 O375 1.245 . S
C391 O376 1.259 . S
C392 C393 1.391 . S
C392 C394 1.394 . S
C392 H408 0.931 . S
C393 C392 1.391 . S
C393 C397 1.377 . S
C394 C392 1.394 . S
C394 C395 1.369 . S
C394 C398 1.531 . S
C395 C394 1.369 . S
C395 C396 1.416 . S
C395 C403 1.503 . S
C396 C395 1.416 . S
C396 C397 1.391 . S
C396 C399 1.506 1_545 S
C397 C393 1.377 . S
C397 C396 1.391 . S
C397 H409 0.928 1_545 S
C398 C394 1.531 . S
C398 H410 0.960 . S
C398 H411 0.962 . S
C398 H412 0.960 . S
C399 C396 1.506 1_565 S
C399 H413 0.961 . S
C399 H414 0.961 . S
C399 H415 0.961 1_565 S
C400 C401 1.355 1_565 S
C400 C402 1.363 . S
C400 H416 0.931 . S
C401 C400 1.355 1_545 S
C401 C405 1.426 . S
C402 C400 1.363 . S
C402 C403 1.370 1_565 S
C402 C406 1.524 . S
C403 C395 1.503 . S
C403 C402 1.370 1_545 S
C403 C404 1.403 . S
C404 C403 1.403 . S
C404 C405 1.404 . S
C404 C407 1.539 . S
C405 C401 1.426 . S
C405 C404 1.404 . S
C405 H417 0.930 . S
C406 C402 1.524 . S
C406 H418 0.956 . S
C406 H419 0.961 . S
C406 H420 0.961 . S
C407 C404 1.539 . S
C407 H421 0.958 . S
C407 H422 0.961 . S
C407 H423 0.960 . S
H408 C392 0.931 . S
H409 C397 0.928 1_565 S
H410 C398 0.960 . S
H411 C398 0.962 . S
H412 C398 0.960 . S
H413 C399 0.961 . S
H414 C399 0.961 . S
H415 C399 0.961 1_545 S
H416 C400 0.931 . S
H417 C405 0.930 . S
H418 C406 0.956 . S
H419 C406 0.961 . S
H420 C406 0.961 . S
H421 C407 0.958 . S
H422 C407 0.961 . S
H423 C407 0.960 . S
C424 C425 1.391 . S
C424 C426 1.394 . S
C424 H440 0.931 . S
C425 C424 1.391 . S
C425 C429 1.376 . S
C426 C424 1.394 . S
C426 C427 1.369 . S
C426 C430 1.531 . S
C427 C426 1.369 . S
C427 C428 1.410 . S
C427 C435 1.503 . S
C428 C427 1.410 . S
C428 C429 1.392 . S
C428 C431 1.511 . S
C429 C425 1.376 . S
C429 C428 1.392 . S
C429 H441 0.929 . S
C430 C426 1.531 . S
C430 H442 0.960 . S
C430 H443 0.962 . S
C430 H444 0.960 . S
C431 C428 1.511 . S
C431 H445 0.961 . S
C431 H446 0.961 . S
C431 H447 0.961 . S
C432 C433 1.370 . S
C432 C434 1.363 . S
C432 H448 0.931 . S
C433 C432 1.370 . S
C433 C437 1.408 . S
C434 C432 1.363 . S
C434 C435 1.370 . S
C434 C438 1.524 . S
C435 C427 1.503 . S
C435 C434 1.370 . S
C435 C436 1.403 . S
C436 C435 1.403 . S
C436 C437 1.404 . S
C436 C439 1.539 . S
C437 C433 1.408 . S
C437 C436 1.404 . S
C437 H449 0.930 . S
C438 C434 1.524 . S
C438 H450 0.956 . S
C438 H451 0.961 . S
C438 H452 0.961 . S
C439 C436 1.539 . S
C439 H453 0.958 . S
C439 H454 0.961 . S
C439 H455 0.960 . S
H440 C424 0.931 . S
H441 C429 0.929 . S
H442 C430 0.960 . S
H443 C430 0.962 . S
H444 C430 0.960 . S
H445 C431 0.961 . S
H446 C431 0.961 . S
H447 C431 0.961 . S
H448 C432 0.931 . S
H449 C437 0.930 . S
H450 C438 0.956 . S
H451 C438 0.961 . S
H452 C438 0.961 . S
H453 C439 0.958 . S
H454 C439 0.961 . S
H455 C439 0.960 . S
C456 C457 1.391 . S
C456 C458 1.394 . S
C456 H472 0.931 . S
C457 C456 1.391 . S
C457 C461 1.376 . S
C458 C456 1.394 . S
C458 C459 1.369 . S
C458 C462 1.531 . S
C459 C458 1.369 . S
C459 C460 1.410 . S
C459 C467 1.503 . S
C460 C459 1.410 . S
C460 C461 1.392 . S
C460 C463 1.511 . S
C461 C457 1.376 . S
C461 C460 1.392 . S
C461 H473 0.929 . S
C462 C458 1.531 . S
C462 H474 0.960 . S
C462 H475 0.962 . S
C462 H476 0.960 . S
C463 C460 1.511 . S
C463 H477 0.961 . S
C463 H478 0.961 . S
C463 H479 0.961 . S
C464 C465 1.370 . S
C464 C466 1.363 . S
C464 H480 0.931 . S
C465 C464 1.370 . S
C465 C469 1.408 . S
C466 C464 1.363 . S
C466 C467 1.370 . S
C466 C470 1.524 . S
C467 C459 1.503 . S
C467 C466 1.370 . S
C467 C468 1.403 . S
C468 C467 1.403 . S
C468 C469 1.404 . S
C468 C471 1.539 . S
C469 C465 1.408 . S
C469 C468 1.404 . S
C469 H481 0.930 . S
C470 C466 1.524 . S
C470 H482 0.956 . S
C470 H483 0.961 . S
C470 H484 0.961 . S
C471 C468 1.539 . S
C471 H485 0.958 . S
C471 H486 0.961 . S
C471 H487 0.960 . S
H472 C456 0.931 . S
H473 C461 0.929 . S
H474 C462 0.960 . S
H475 C462 0.962 . S
H476 C462 0.960 . S
H477 C463 0.961 . S
H478 C463 0.961 . S
H479 C463 0.961 . S
H480 C464 0.931 . S
H481 C469 0.930 . S
H482 C470 0.956 . S
H483 C470 0.961 . S
H484 C470 0.961 . S
H485 C471 0.958 . S
H486 C471 0.961 . S
H487 C471 0.960 . S
C488 C489 1.391 . S
C488 C490 1.394 . S
C488 H504 0.931 . S
C489 C488 1.391 . S
C489 C493 1.376 . S
C490 C488 1.394 . S
C490 C491 1.369 . S
C490 C494 1.531 . S
C491 C490 1.369 . S
C491 C492 1.410 . S
C491 C499 1.503 . S
C492 C491 1.410 . S
C492 C493 1.392 . S
C492 C495 1.511 . S
C493 C489 1.376 . S
C493 C492 1.392 . S
C493 H505 0.929 . S
C494 C490 1.531 . S
C494 H506 0.960 . S
C494 H507 0.962 . S
C494 H508 0.960 . S
C495 C492 1.511 . S
C495 H509 0.961 . S
C495 H510 0.961 . S
C495 H511 0.961 . S
C496 C497 1.370 . S
C496 C498 1.363 . S
C496 H512 0.931 . S
C497 C496 1.370 . S
C497 C501 1.408 . S
C498 C496 1.363 . S
C498 C499 1.370 . S
C498 C502 1.524 . S
C499 C491 1.503 . S
C499 C498 1.370 . S
C499 C500 1.403 . S
C500 C499 1.403 . S
C500 C501 1.404 . S
C500 C503 1.539 . S
C501 C497 1.408 . S
C501 C500 1.404 . S
C501 H513 0.930 . S
C502 C498 1.524 . S
C502 H514 0.956 . S
C502 H515 0.961 . S
C502 H516 0.961 . S
C503 C500 1.539 . S
C503 H517 0.958 . S
C503 H518 0.961 . S
C503 H519 0.960 . S
H504 C488 0.931 . S
H505 C493 0.929 . S
H506 C494 0.960 . S
H507 C494 0.962 . S
H508 C494 0.960 . S
H509 C495 0.961 . S
H510 C495 0.961 . S
H511 C495 0.961 . S
H512 C496 0.931 . S
H513 C501 0.930 . S
H514 C502 0.956 . S
H515 C502 0.961 . S
H516 C502 0.961 . S
H517 C503 0.958 . S
H518 C503 0.961 . S
H519 C503 0.960 . S
C520 C521 1.387 1_556 S
C520 C522 1.394 . S
C520 H536 0.931 . S
C521 C520 1.387 1_554 S
C521 C525 1.377 1_545 S
C522 C520 1.394 . S
C522 C523 1.369 . S
C522 C526 1.531 . S
C523 C522 1.369 . S
C523 C524 1.410 1_545 S
C523 C531 1.503 . S
C524 C523 1.410 1_565 S
C524 C525 1.392 1_556 S
C524 C527 1.511 . S
C525 C521 1.377 1_565 S
C525 C524 1.392 1_554 S
C525 H537 0.929 . S
C526 C522 1.531 . S
C526 H538 0.960 . S
C526 H539 0.962 . S
C526 H540 0.960 . S
C527 C524 1.511 . S
C527 H541 0.960 1_556 S
C527 H542 0.962 . S
C527 H543 0.960 1_566 S
C528 C529 1.370 1_565 S
C528 C530 1.363 . S
C528 H544 0.931 . S
C529 C528 1.370 1_545 S
C529 C533 1.408 . S
C530 C528 1.363 . S
C530 C531 1.370 1_565 S
C530 C534 1.524 . S
C531 C523 1.503 . S
C531 C530 1.370 1_545 S
C531 C532 1.403 . S
C532 C531 1.403 . S
C532 C533 1.404 . S
C532 C535 1.539 . S
C533 C529 1.408 . S
C533 C532 1.404 . S
C533 H545 0.930 . S
C534 C530 1.524 . S
C534 H546 0.956 . S
C534 H547 0.961 . S
C534 H548 0.961 . S
C535 C532 1.539 . S
C535 H549 0.958 . S
C535 H550 0.961 . S
C535 H551 0.960 . S
H536 C520 0.931 . S
H537 C525 0.929 . S
H538 C526 0.960 . S
H539 C526 0.962 . S
H540 C526 0.960 . S
H541 C527 0.960 1_554 S
H542 C527 0.962 . S
H543 C527 0.960 1_544 S
H544 C528 0.931 . S
H545 C533 0.930 . S
H546 C534 0.956 . S
H547 C534 0.961 . S
H548 C534 0.961 . S
H549 C535 0.958 . S
H550 C535 0.961 . S
H551 C535 0.960 . S
C552 C553 1.391 . S
C552 C554 1.394 . S
C552 H568 0.931 . S
C553 C552 1.391 . S
C553 C557 1.376 1_556 S
C554 C552 1.394 . S
C554 C555 1.369 . S
C554 C558 1.531 . S
C555 C554 1.369 . S
C555 C556 1.410 . S
C555 C563 1.503 . S
C556 C555 1.410 . S
C556 C557 1.392 1_556 S
C556 C559 1.509 1_556 S
C557 C553 1.376 1_554 S
C557 C556 1.392 1_554 S
C557 H569 0.929 . S
C558 C554 1.531 . S
C558 H570 0.960 . S
C558 H571 0.962 . S
C558 H572 0.960 . S
C559 C556 1.509 1_554 S
C559 H573 0.967 . S
C559 H574 0.959 1_554 S
C559 H575 0.959 1_554 S
C560 C561 1.370 . S
C560 C562 1.363 . S
C560 H576 0.931 . S
C561 C560 1.370 . S
C561 C565 1.408 . S
C562 C560 1.363 . S
C562 C563 1.370 . S
C562 C566 1.524 . S
C563 C555 1.503 . S
C563 C562 1.370 . S
C563 C564 1.403 . S
C564 C563 1.403 . S
C564 C565 1.404 . S
C564 C567 1.539 . S
C565 C561 1.408 . S
C565 C564 1.404 . S
C565 H577 0.930 . S
C566 C562 1.524 . S
C566 H578 0.956 . S
C566 H579 0.961 . S
C566 H580 0.961 . S
C567 C564 1.539 . S
C567 H581 0.958 . S
C567 H582 0.961 . S
C567 H583 0.960 . S
H568 C552 0.931 . S
H569 C557 0.929 . S
H570 C558 0.960 . S
H571 C558 0.962 . S
H572 C558 0.960 . S
H573 C559 0.967 . S
H574 C559 0.959 1_556 S
H575 C559 0.959 1_556 S
H576 C560 0.931 . S
H577 C565 0.930 . S
H578 C566 0.956 . S
H579 C566 0.961 . S
H580 C566 0.961 . S
H581 C567 0.958 . S
H582 C567 0.961 . S
H583 C567 0.960 . S
C584 C585 1.391 . S
C584 C586 1.394 . S
C584 H600 0.931 . S
C585 C584 1.391 . S
C585 C589 1.376 . S
C586 C584 1.394 . S
C586 C587 1.369 . S
C586 C590 1.531 . S
C587 C586 1.369 . S
C587 C588 1.410 . S
C587 C595 1.503 . S
C588 C587 1.410 . S
C588 C589 1.392 . S
C588 C591 1.511 . S
C589 C585 1.376 . S
C589 C588 1.392 . S
C589 H601 0.929 . S
C590 C586 1.531 . S
C590 H602 0.960 . S
C590 H603 0.962 . S
C590 H604 0.960 . S
C591 C588 1.511 . S
C591 H605 0.961 . S
C591 H606 0.961 . S
C591 H607 0.961 . S
C592 C593 1.370 . S
C592 C594 1.363 . S
C592 H608 0.931 . S
C593 C592 1.370 . S
C593 C597 1.408 . S
C594 C592 1.363 . S
C594 C595 1.370 . S
C594 C598 1.524 . S
C595 C587 1.503 . S
C595 C594 1.370 . S
C595 C596 1.403 . S
C596 C595 1.403 . S
C596 C597 1.404 . S
C596 C599 1.539 . S
C597 C593 1.408 . S
C597 C596 1.404 . S
C597 H609 0.930 . S
C598 C594 1.524 . S
C598 H610 0.956 . S
C598 H611 0.961 . S
C598 H612 0.961 . S
C599 C596 1.539 . S
C599 H613 0.958 . S
C599 H614 0.961 . S
C599 H615 0.960 . S
H600 C584 0.931 . S
H601 C589 0.929 . S
H602 C590 0.960 . S
H603 C590 0.962 . S
H604 C590 0.960 . S
H605 C591 0.961 . S
H606 C591 0.961 . S
H607 C591 0.961 . S
H608 C592 0.931 . S
H609 C597 0.930 . S
H610 C598 0.956 . S
H611 C598 0.961 . S
H612 C598 0.961 . S
H613 C599 0.958 . S
H614 C599 0.961 . S
H615 C599 0.960 . S
C616 C617 1.391 . S
C616 C618 1.394 . S
C616 H632 0.931 . S
C617 C616 1.391 . S
C617 C621 1.376 . S
C618 C616 1.394 . S
C618 C619 1.369 . S
C618 C622 1.531 . S
C619 C618 1.369 . S
C619 C620 1.410 . S
C619 C627 1.503 . S
C620 C619 1.410 . S
C620 C621 1.392 . S
C620 C623 1.511 . S
C621 C617 1.376 . S
C621 C620 1.392 . S
C621 H633 0.929 . S
C622 C618 1.531 . S
C622 H634 0.960 . S
C622 H635 0.962 . S
C622 H636 0.960 . S
C623 C620 1.511 . S
C623 H637 0.961 . S
C623 H638 0.961 . S
C623 H639 0.961 . S
C624 C625 1.370 . S
C624 C626 1.363 . S
C624 H640 0.931 . S
C625 C624 1.370 . S
C625 C629 1.408 . S
C626 C624 1.363 . S
C626 C627 1.370 . S
C626 C630 1.524 . S
C627 C619 1.503 . S
C627 C626 1.370 . S
C627 C628 1.403 . S
C628 C627 1.403 . S
C628 C629 1.404 . S
C628 C631 1.539 . S
C629 C625 1.408 . S
C629 C628 1.404 . S
C629 H641 0.930 . S
C630 C626 1.524 . S
C630 H642 0.956 . S
C630 H643 0.961 . S
C630 H644 0.961 . S
C631 C628 1.539 . S
C631 H645 0.958 . S
C631 H646 0.961 . S
C631 H647 0.960 . S
H632 C616 0.931 . S
H633 C621 0.929 . S
H634 C622 0.960 . S
H635 C622 0.962 . S
H636 C622 0.960 . S
H637 C623 0.961 . S
H638 C623 0.961 . S
H639 C623 0.961 . S
H640 C624 0.931 . S
H641 C629 0.930 . S
H642 C630 0.956 . S
H643 C630 0.961 . S
H644 C630 0.961 . S
H645 C631 0.958 . S
H646 C631 0.961 . S
H647 C631 0.960 . S
C648 C649 1.391 . S
C648 C650 1.394 . S
C648 H664 0.931 . S
C649 C648 1.391 . S
C649 C653 1.376 . S
C650 C648 1.394 . S
C650 C651 1.369 . S
C650 C654 1.531 . S
C651 C650 1.369 . S
C651 C652 1.410 . S
C651 C659 1.503 . S
C652 C651 1.410 . S
C652 C653 1.392 . S
C652 C655 1.511 . S
C653 C649 1.376 . S
C653 C652 1.392 . S
C653 H665 0.929 . S
C654 C650 1.531 . S
C654 H666 0.960 . S
C654 H667 0.962 . S
C654 H668 0.960 . S
C655 C652 1.511 . S
C655 H669 0.961 . S
C655 H670 0.961 . S
C655 H671 0.961 . S
C656 C657 1.370 . S
C656 C658 1.363 . S
C656 H672 0.931 . S
C657 C656 1.370 . S
C657 C661 1.408 . S
C658 C656 1.363 . S
C658 C659 1.370 . S
C658 C662 1.524 . S
C659 C651 1.503 . S
C659 C658 1.370 . S
C659 C660 1.403 . S
C660 C659 1.403 . S
C660 C661 1.404 . S
C660 C663 1.539 . S
C661 C657 1.408 . S
C661 C660 1.404 . S
C661 H673 0.930 . S
C662 C658 1.524 . S
C662 H674 0.956 . S
C662 H675 0.961 . S
C662 H676 0.961 . S
C663 C660 1.539 . S
C663 H677 0.958 . S
C663 H678 0.961 . S
C663 H679 0.960 . S
H664 C648 0.931 . S
H665 C653 0.929 . S
H666 C654 0.960 . S
H667 C654 0.962 . S
H668 C654 0.960 . S
H669 C655 0.961 . S
H670 C655 0.961 . S
H671 C655 0.961 . S
H672 C656 0.931 . S
H673 C661 0.930 . S
H674 C662 0.956 . S
H675 C662 0.961 . S
H676 C662 0.961 . S
H677 C663 0.958 . S
H678 C663 0.961 . S
H679 C663 0.960 . S
C680 C681 1.396 . S
C680 C682 1.389 1_545 S
C680 H696 0.931 1_545 S
C681 C680 1.396 . S
C681 C685 1.376 . S
C682 C680 1.389 1_565 S
C682 C683 1.369 . S
C682 C686 1.531 . S
C683 C682 1.369 . S
C683 C684 1.410 1_565 S
C683 C691 1.501 . S
C684 C683 1.410 1_545 S
C684 C685 1.392 . S
C684 C687 1.511 . S
C685 C681 1.376 . S
C685 C684 1.392 . S
C685 H697 0.929 . S
C686 C682 1.531 . S
C686 H698 0.960 . S
C686 H699 0.962 1_565 S
C686 H700 0.960 . S
C687 C684 1.511 . S
C687 H701 0.961 . S
C687 H702 0.961 . S
C687 H703 0.961 1_545 S
C688 C689 1.379 . S
C688 C690 1.363 . S
C688 H704 0.931 . S
C689 C688 1.379 . S
C689 C693 1.400 1_545 S
C690 C688 1.363 . S
C690 C691 1.343 1_545 S
C690 C694 1.524 . S
C691 C683 1.501 . S
C691 C690 1.343 1_565 S
C691 C692 1.434 . S
C692 C691 1.434 . S
C692 C693 1.404 . S
C692 C695 1.539 . S
C693 C689 1.400 1_565 S
C693 C692 1.404 . S
C693 H705 0.930 . S
C694 C690 1.524 . S
C694 H706 0.956 . S
C694 H707 0.961 . S
C694 H708 0.961 . S
C695 C692 1.539 . S
C695 H709 0.958 . S
C695 H710 0.961 . S
C695 H711 0.960 . S
H696 C680 0.931 1_565 S
H697 C685 0.929 . S
H698 C686 0.960 . S
H699 C686 0.962 1_545 S
H700 C686 0.960 . S
H701 C687 0.961 . S
H702 C687 0.961 . S
H703 C687 0.961 1_565 S
H704 C688 0.931 . S
H705 C693 0.930 . S
H706 C694 0.956 . S
H707 C694 0.961 . S
H708 C694 0.961 . S
H709 C695 0.958 . S
H710 C695 0.961 . S
H711 C695 0.960 . S
C712 C713 1.391 . S
C712 C714 1.394 . S
C712 H728 0.931 . S
C713 C712 1.391 . S
C713 C717 1.376 . S
C714 C712 1.394 . S
C714 C715 1.369 . S
C714 C718 1.531 . S
C715 C714 1.369 . S
C715 C716 1.410 . S
C715 C723 1.503 . S
C716 C715 1.410 . S
C716 C717 1.392 . S
C716 C719 1.511 . S
C717 C713 1.376 . S
C717 C716 1.392 . S
C717 H729 0.929 . S
C718 C714 1.531 . S
C718 H730 0.960 . S
C718 H731 0.962 . S
C718 H732 0.960 . S
C719 C716 1.511 . S
C719 H733 0.961 . S
C719 H734 0.961 . S
C719 H735 0.961 . S
C720 C721 1.370 . S
C720 C722 1.363 . S
C720 H736 0.931 . S
C721 C720 1.370 . S
C721 C725 1.408 . S
C722 C720 1.363 . S
C722 C723 1.370 . S
C722 C726 1.524 . S
C723 C715 1.503 . S
C723 C722 1.370 . S
C723 C724 1.403 . S
C724 C723 1.403 . S
C724 C725 1.404 . S
C724 C727 1.539 . S
C725 C721 1.408 . S
C725 C724 1.404 . S
C725 H737 0.930 . S
C726 C722 1.524 . S
C726 H738 0.956 . S
C726 H739 0.961 . S
C726 H740 0.961 . S
C727 C724 1.539 . S
C727 H741 0.958 . S
C727 H742 0.961 . S
C727 H743 0.960 . S
H728 C712 0.931 . S
H729 C717 0.929 . S
H730 C718 0.960 . S
H731 C718 0.962 . S
H732 C718 0.960 . S
H733 C719 0.961 . S
H734 C719 0.961 . S
H735 C719 0.961 . S
H736 C720 0.931 . S
H737 C725 0.930 . S
H738 C726 0.956 . S
H739 C726 0.961 . S
H740 C726 0.961 . S
H741 C727 0.958 . S
H742 C727 0.961 . S
H743 C727 0.960 . S
C744 C745 1.391 . S
C744 C746 1.394 . S
C744 H760 0.931 . S
C745 C744 1.391 . S
C745 C749 1.376 . S
C746 C744 1.394 . S
C746 C747 1.369 . S
C746 C750 1.531 . S
C747 C746 1.369 . S
C747 C748 1.410 . S
C747 C755 1.503 . S
C748 C747 1.410 . S
C748 C749 1.392 . S
C748 C751 1.511 . S
C749 C745 1.376 . S
C749 C748 1.392 . S
C749 H761 0.929 . S
C750 C746 1.531 . S
C750 H762 0.960 . S
C750 H763 0.962 . S
C750 H764 0.960 . S
C751 C748 1.511 . S
C751 H765 0.961 . S
C751 H766 0.961 . S
C751 H767 0.961 . S
C752 C753 1.370 . S
C752 C754 1.363 . S
C752 H768 0.931 . S
C753 C752 1.370 . S
C753 C757 1.408 . S
C754 C752 1.363 . S
C754 C755 1.370 . S
C754 C758 1.524 . S
C755 C747 1.503 . S
C755 C754 1.370 . S
C755 C756 1.403 . S
C756 C755 1.403 . S
C756 C757 1.404 . S
C756 C759 1.539 . S
C757 C753 1.408 . S
C757 C756 1.404 . S
C757 H769 0.930 . S
C758 C754 1.524 . S
C758 H770 0.956 . S
C758 H771 0.961 . S
C758 H772 0.961 . S
C759 C756 1.539 . S
C759 H773 0.958 . S
C759 H774 0.961 . S
C759 H775 0.960 . S
H760 C744 0.931 . S
H761 C749 0.929 . S
H762 C750 0.960 . S
H763 C750 0.962 . S
H764 C750 0.960 . S
H765 C751 0.961 . S
H766 C751 0.961 . S
H767 C751 0.961 . S
H768 C752 0.931 . S
H769 C757 0.930 . S
H770 C758 0.956 . S
H771 C758 0.961 . S
H772 C758 0.961 . S
H773 C759 0.958 . S
H774 C759 0.961 . S
H775 C759 0.960 . S
C776 C777 1.391 . S
C776 C778 1.394 . S
C776 H792 0.931 . S
C777 C776 1.391 . S
C777 C781 1.376 . S
C778 C776 1.394 . S
C778 C779 1.369 . S
C778 C782 1.531 . S
C779 C778 1.369 . S
C779 C780 1.410 . S
C779 C787 1.503 . S
C780 C779 1.410 . S
C780 C781 1.392 . S
C780 C783 1.511 . S
C781 C777 1.376 . S
C781 C780 1.392 . S
C781 H793 0.929 . S
C782 C778 1.531 . S
C782 H794 0.960 . S
C782 H795 0.962 . S
C782 H796 0.960 . S
C783 C780 1.511 . S
C783 H797 0.961 . S
C783 H798 0.961 . S
C783 H799 0.961 . S
C784 C785 1.370 . S
C784 C786 1.363 . S
C784 H800 0.931 . S
C785 C784 1.370 . S
C785 C789 1.408 . S
C786 C784 1.363 . S
C786 C787 1.370 . S
C786 C790 1.524 . S
C787 C779 1.503 . S
C787 C786 1.370 . S
C787 C788 1.403 . S
C788 C787 1.403 . S
C788 C789 1.404 . S
C788 C791 1.539 . S
C789 C785 1.408 . S
C789 C788 1.404 . S
C789 H801 0.930 . S
C790 C786 1.524 . S
C790 H802 0.956 . S
C790 H803 0.961 . S
C790 H804 0.961 . S
C791 C788 1.539 . S
C791 H805 0.958 . S
C791 H806 0.961 . S
C791 H807 0.960 . S
H792 C776 0.931 . S
H793 C781 0.929 . S
H794 C782 0.960 . S
H795 C782 0.962 . S
H796 C782 0.960 . S
H797 C783 0.961 . S
H798 C783 0.961 . S
H799 C783 0.961 . S
H800 C784 0.931 . S
H801 C789 0.930 . S
H802 C790 0.956 . S
H803 C790 0.961 . S
H804 C790 0.961 . S
H805 C791 0.958 . S
H806 C791 0.961 . S
H807 C791 0.960 . S
C808 C809 1.389 1_545 S
C808 C810 1.394 . S
C808 H824 0.931 . S
C809 C808 1.389 1_565 S
C809 C813 1.378 . S
C810 C808 1.394 . S
C810 C811 1.369 . S
C810 C814 1.531 . S
C811 C810 1.369 . S
C811 C812 1.410 1_545 S
C811 C819 1.503 . S
C812 C811 1.410 1_565 S
C812 C813 1.392 . S
C812 C815 1.511 . S
C813 C809 1.378 . S
C813 C812 1.392 . S
C813 H825 0.929 . S
C814 C810 1.531 . S
C814 H826 0.960 . S
C814 H827 0.962 . S
C814 H828 0.960 . S
C815 C812 1.511 . S
C815 H829 0.961 . S
C815 H830 0.961 . S
C815 H831 0.961 . S
C816 C817 1.370 . S
C816 C818 1.363 . S
C816 H832 0.931 . S
C817 C816 1.370 . S
C817 C821 1.408 . S
C818 C816 1.363 . S
C818 C819 1.370 . S
C818 C822 1.524 . S
C819 C811 1.503 . S
C819 C818 1.370 . S
C819 C820 1.403 . S
C820 C819 1.403 . S
C820 C821 1.404 . S
C820 C823 1.539 . S
C821 C817 1.408 . S
C821 C820 1.404 . S
C821 H833 0.930 . S
C822 C818 1.524 . S
C822 H834 0.956 . S
C822 H835 0.961 1_545 S
C822 H836 0.961 . S
C823 C820 1.539 . S
C823 H837 0.958 . S
C823 H838 0.961 1_545 S
C823 H839 0.960 1_545 S
H824 C808 0.931 . S
H825 C813 0.929 . S
H826 C814 0.960 . S
H827 C814 0.962 . S
H828 C814 0.960 . S
H829 C815 0.961 . S
H830 C815 0.961 . S
H831 C815 0.961 . S
H832 C816 0.931 . S
H833 C821 0.930 . S
H834 C822 0.956 . S
H835 C822 0.961 1_565 S
H836 C822 0.961 . S
H837 C823 0.958 . S
H838 C823 0.961 1_565 S
H839 C823 0.960 1_565 S
C840 C841 1.391 . S
C840 C842 1.394 . S
C840 H856 0.931 . S
C841 C840 1.391 . S
C841 C845 1.376 . S
C842 C840 1.394 . S
C842 C843 1.369 . S
C842 C846 1.531 . S
C843 C842 1.369 . S
C843 C844 1.410 . S
C843 C851 1.503 . S
C844 C843 1.410 . S
C844 C845 1.392 . S
C844 C847 1.511 . S
C845 C841 1.376 . S
C845 C844 1.392 . S
C845 H857 0.929 . S
C846 C842 1.531 . S
C846 H858 0.960 . S
C846 H859 0.962 . S
C846 H860 0.960 . S
C847 C844 1.511 . S
C847 H861 0.961 . S
C847 H862 0.961 . S
C847 H863 0.961 . S
C848 C849 1.370 . S
C848 C850 1.363 . S
C848 H864 0.931 . S
C849 C848 1.370 . S
C849 C853 1.408 . S
C850 C848 1.363 . S
C850 C851 1.370 . S
C850 C854 1.524 . S
C851 C843 1.503 . S
C851 C850 1.370 . S
C851 C852 1.403 . S
C852 C851 1.403 . S
C852 C853 1.404 . S
C852 C855 1.539 . S
C853 C849 1.408 . S
C853 C852 1.404 . S
C853 H865 0.930 . S
C854 C850 1.524 . S
C854 H866 0.956 . S
C854 H867 0.961 . S
C854 H868 0.961 . S
C855 C852 1.539 . S
C855 H869 0.958 . S
C855 H870 0.961 . S
C855 H871 0.960 . S
H856 C840 0.931 . S
H857 C845 0.929 . S
H858 C846 0.960 . S
H859 C846 0.962 . S
H860 C846 0.960 . S
H861 C847 0.961 . S
H862 C847 0.961 . S
H863 C847 0.961 . S
H864 C848 0.931 . S
H865 C853 0.930 . S
H866 C854 0.956 . S
H867 C854 0.961 . S
H868 C854 0.961 . S
H869 C855 0.958 . S
H870 C855 0.961 . S
H871 C855 0.960 . S
C872 C873 1.391 . S
C872 C874 1.394 . S
C872 H888 0.931 . S
C873 C872 1.391 . S
C873 C877 1.376 . S
C874 C872 1.394 . S
C874 C875 1.369 . S
C874 C878 1.531 . S
C875 C874 1.369 . S
C875 C876 1.410 . S
C875 C883 1.503 . S
C876 C875 1.410 . S
C876 C877 1.392 . S
C876 C879 1.511 . S
C877 C873 1.376 . S
C877 C876 1.392 . S
C877 H889 0.929 . S
C878 C874 1.531 . S
C878 H890 0.960 . S
C878 H891 0.962 . S
C878 H892 0.960 . S
C879 C876 1.511 . S
C879 H893 0.961 . S
C879 H894 0.961 . S
C879 H895 0.961 . S
C880 C881 1.370 . S
C880 C882 1.363 . S
C880 H896 0.931 . S
C881 C880 1.370 . S
C881 C885 1.408 . S
C882 C880 1.363 . S
C882 C883 1.370 . S
C882 C886 1.524 . S
C883 C875 1.503 . S
C883 C882 1.370 . S
C883 C884 1.403 . S
C884 C883 1.403 . S
C884 C885 1.404 . S
C884 C887 1.539 . S
C885 C881 1.408 . S
C885 C884 1.404 . S
C885 H897 0.930 . S
C886 C882 1.524 . S
C886 H898 0.956 . S
C886 H899 0.961 . S
C886 H900 0.961 . S
C887 C884 1.539 . S
C887 H901 0.958 . S
C887 H902 0.961 . S
C887 H903 0.960 . S
H888 C872 0.931 . S
H889 C877 0.929 . S
H890 C878 0.960 . S
H891 C878 0.962 . S
H892 C878 0.960 . S
H893 C879 0.961 . S
H894 C879 0.961 . S
H895 C879 0.961 . S
H896 C880 0.931 . S
H897 C885 0.930 . S
H898 C886 0.956 . S
H899 C886 0.961 . S
H900 C886 0.961 . S
H901 C887 0.958 . S
H902 C887 0.961 . S
H903 C887 0.960 . S
C904 C905 1.391 . S
C904 C906 1.394 1_554 S
C904 H920 0.931 . S
C905 C904 1.391 . S
C905 C909 1.376 . S
C906 C904 1.394 1_556 S
C906 C907 1.369 . S
C906 C910 1.531 . S
C907 C906 1.369 . S
C907 C908 1.410 . S
C907 C915 1.503 . S
C908 C907 1.410 . S
C908 C909 1.392 1_556 S
C908 C911 1.511 . S
C909 C905 1.376 . S
C909 C908 1.392 1_554 S
C909 H921 0.929 . S
C910 C906 1.531 . S
C910 H922 0.960 . S
C910 H923 0.962 . S
C910 H924 0.960 . S
C911 C908 1.511 . S
C911 H925 0.961 . S
C911 H926 0.961 . S
C911 H927 0.961 1_556 S
C912 C913 1.370 . S
C912 C914 1.363 . S
C912 H928 0.931 . S
C913 C912 1.370 . S
C913 C917 1.408 . S
C914 C912 1.363 . S
C914 C915 1.370 . S
C914 C918 1.524 . S
C915 C907 1.503 . S
C915 C914 1.370 . S
C915 C916 1.403 . S
C916 C915 1.403 . S
C916 C917 1.404 . S
C916 C919 1.539 1_556 S
C917 C913 1.408 . S
C917 C916 1.404 . S
C917 H929 0.930 . S
C918 C914 1.524 . S
C918 H930 0.956 . S
C918 H931 0.961 . S
C918 H932 0.961 . S
C919 C916 1.539 1_554 S
C919 H933 0.958 . S
C919 H934 0.961 . S
C919 H935 0.960 . S
H920 C904 0.931 . S
H921 C909 0.929 . S
H922 C910 0.960 . S
H923 C910 0.962 . S
H924 C910 0.960 . S
H925 C911 0.961 . S
H926 C911 0.961 . S
H927 C911 0.961 1_554 S
H928 C912 0.931 . S
H929 C917 0.930 . S
H930 C918 0.956 . S
H931 C918 0.961 . S
H932 C918 0.961 . S
H933 C919 0.958 . S
H934 C919 0.961 . S
H935 C919 0.960 . S
C936 C937 1.391 . S
C936 C938 1.394 . S
C936 H952 0.931 . S
C937 C936 1.391 . S
C937 C941 1.376 . S
C938 C936 1.394 . S
C938 C939 1.369 . S
C938 C942 1.531 . S
C939 C938 1.369 . S
C939 C940 1.410 . S
C939 C947 1.503 . S
C940 C939 1.410 . S
C940 C941 1.392 . S
C940 C943 1.511 1_556 S
C941 C937 1.376 . S
C941 C940 1.392 . S
C941 H953 0.929 1_556 S
C942 C938 1.531 . S
C942 H954 0.960 . S
C942 H955 0.962 1_545 S
C942 H956 0.960 . S
C943 C940 1.511 1_554 S
C943 H957 0.961 . S
C943 H958 0.961 1_554 S
C943 H959 0.961 . S
C944 C945 1.370 1_565 S
C944 C946 1.363 . S
C944 H960 0.931 . S
C945 C944 1.370 1_545 S
C945 C949 1.408 . S
C946 C944 1.363 . S
C946 C947 1.370 1_565 S
C946 C950 1.524 . S
C947 C939 1.503 . S
C947 C946 1.370 1_545 S
C947 C948 1.403 . S
C948 C947 1.403 . S
C948 C949 1.404 . S
C948 C951 1.539 . S
C949 C945 1.408 . S
C949 C948 1.404 . S
C949 H961 0.930 . S
C950 C946 1.524 . S
C950 H962 0.956 . S
C950 H963 0.961 . S
C950 H964 0.961 . S
C951 C948 1.539 . S
C951 H965 0.958 . S
C951 H966 0.961 . S
C951 H967 0.960 . S
H952 C936 0.931 . S
H953 C941 0.929 1_554 S
H954 C942 0.960 . S
H955 C942 0.962 1_565 S
H956 C942 0.960 . S
H957 C943 0.961 . S
H958 C943 0.961 1_556 S
H959 C943 0.961 . S
H960 C944 0.931 . S
H961 C949 0.930 . S
H962 C950 0.956 . S
H963 C950 0.961 . S
H964 C950 0.961 . S
H965 C951 0.958 . S
H966 C951 0.961 . S
H967 C951 0.960 . S
C968 C969 1.391 . S
C968 C970 1.394 . S
C968 H984 0.931 . S
C969 C968 1.391 . S
C969 C973 1.376 . S
C970 C968 1.394 . S
C970 C971 1.369 . S
C970 C974 1.531 . S
C971 C970 1.369 . S
C971 C972 1.410 . S
C971 C979 1.503 . S
C972 C971 1.410 . S
C972 C973 1.392 . S
C972 C975 1.511 . S
C973 C969 1.376 . S
C973 C972 1.392 . S
C973 H985 0.929 1_556 S
C974 C970 1.531 . S
C974 H986 0.960 . S
C974 H987 0.962 . S
C974 H988 0.960 . S
C975 C972 1.511 . S
C975 H989 0.961 1_556 S
C975 H990 0.961 . S
C975 H991 0.961 . S
C976 C977 1.370 . S
C976 C978 1.363 . S
C976 H992 0.931 . S
C977 C976 1.370 . S
C977 C981 1.408 . S
C978 C976 1.363 . S
C978 C979 1.370 . S
C978 C982 1.524 . S
C979 C971 1.503 . S
C979 C978 1.370 . S
C979 C980 1.403 . S
C980 C979 1.403 . S
C980 C981 1.404 . S
C980 C983 1.539 . S
C981 C977 1.408 . S
C981 C980 1.404 . S
C981 H993 0.930 . S
C982 C978 1.524 . S
C982 H994 0.956 . S
C982 H995 0.961 1_556 S
C982 H996 0.961 . S
C983 C980 1.539 . S
C983 H997 0.958 . S
C983 H998 0.961 . S
C983 H999 0.960 . S
H984 C968 0.931 . S
H985 C973 0.929 1_554 S
H986 C974 0.960 . S
H987 C974 0.962 . S
H988 C974 0.960 . S
H989 C975 0.961 1_554 S
H990 C975 0.961 . S
H991 C975 0.961 . S
H992 C976 0.931 . S
H993 C981 0.930 . S
H994 C982 0.956 . S
H995 C982 0.961 1_554 S
H996 C982 0.961 . S
H997 C983 0.958 . S
H998 C983 0.961 . S
H999 C983 0.960 . S
C1000 C1001 1.391 . S
C1000 C1002 1.394 . S
C1000 H1016 0.931 . S
C1001 C1000 1.391 . S
C1001 C1005 1.376 . S
C1002 C1000 1.394 . S
C1002 C1003 1.369 . S
C1002 C1006 1.531 . S
C1003 C1002 1.369 . S
C1003 C1004 1.410 . S
C1003 C1011 1.503 . S
C1004 C1003 1.410 . S
C1004 C1005 1.392 . S
C1004 C1007 1.511 . S
C1005 C1001 1.376 . S
C1005 C1004 1.392 . S
C1005 H1017 0.929 1_556 S
C1006 C1002 1.531 . S
C1006 H1018 0.960 . S
C1006 H1019 0.962 . S
C1006 H1020 0.960 . S
C1007 C1004 1.511 . S
C1007 H1021 0.961 . S
C1007 H1022 0.961 . S
C1007 H1023 0.961 1_556 S
C1008 C1009 1.370 . S
C1008 C1010 1.363 . S
C1008 H1024 0.931 . S
C1009 C1008 1.370 . S
C1009 C1013 1.408 . S
C1010 C1008 1.363 . S
C1010 C1011 1.370 . S
C1010 C1014 1.524 . S
C1011 C1003 1.503 . S
C1011 C1010 1.370 . S
C1011 C1012 1.403 . S
C1012 C1011 1.403 . S
C1012 C1013 1.404 . S
C1012 C1015 1.539 1_556 S
C1013 C1009 1.408 . S
C1013 C1012 1.404 . S
C1013 H1025 0.930 . S
C1014 C1010 1.524 . S
C1014 H1026 0.956 . S
C1014 H1027 0.961 . S
C1014 H1028 0.961 . S
C1015 C1012 1.539 1_554 S
C1015 H1029 0.958 . S
C1015 H1030 0.961 . S
C1015 H1031 0.960 . S
H1016 C1000 0.931 . S
H1017 C1005 0.929 1_554 S
H1018 C1006 0.960 . S
H1019 C1006 0.962 . S
H1020 C1006 0.960 . S
H1021 C1007 0.961 . S
H1022 C1007 0.961 . S
H1023 C1007 0.961 1_554 S
H1024 C1008 0.931 . S
H1025 C1013 0.930 . S
H1026 C1014 0.956 . S
H1027 C1014 0.961 . S
H1028 C1014 0.961 . S
H1029 C1015 0.958 . S
H1030 C1015 0.961 . S
H1031 C1015 0.960 . S
C1032 C1033 1.391 . S
C1032 C1034 1.394 . S
C1032 H1048 0.931 . S
C1033 C1032 1.391 . S
C1033 C1037 1.376 . S
C1034 C1032 1.394 . S
C1034 C1035 1.369 . S
C1034 C1038 1.531 . S
C1035 C1034 1.369 . S
C1035 C1036 1.410 . S
C1035 C1043 1.503 . S
C1036 C1035 1.410 . S
C1036 C1037 1.392 . S
C1036 C1039 1.511 . S
C1037 C1033 1.376 . S
C1037 C1036 1.392 . S
C1037 H1049 0.929 . S
C1038 C1034 1.531 . S
C1038 H1050 0.960 . S
C1038 H1051 0.962 . S
C1038 H1052 0.960 . S
C1039 C1036 1.511 . S
C1039 H1053 0.961 . S
C1039 H1054 0.961 . S
C1039 H1055 0.961 . S
C1040 C1041 1.370 . S
C1040 C1042 1.363 . S
C1040 H1056 0.931 . S
C1041 C1040 1.370 . S
C1041 C1045 1.408 . S
C1042 C1040 1.363 . S
C1042 C1043 1.370 . S
C1042 C1046 1.524 . S
C1043 C1035 1.503 . S
C1043 C1042 1.370 . S
C1043 C1044 1.403 . S
C1044 C1043 1.403 . S
C1044 C1045 1.404 . S
C1044 C1047 1.539 . S
C1045 C1041 1.408 . S
C1045 C1044 1.404 . S
C1045 H1057 0.930 . S
C1046 C1042 1.524 . S
C1046 H1058 0.956 . S
C1046 H1059 0.961 . S
C1046 H1060 0.961 . S
C1047 C1044 1.539 . S
C1047 H1061 0.958 . S
C1047 H1062 0.961 . S
C1047 H1063 0.960 . S
H1048 C1032 0.931 . S
H1049 C1037 0.929 . S
H1050 C1038 0.960 . S
H1051 C1038 0.962 . S
H1052 C1038 0.960 . S
H1053 C1039 0.961 . S
H1054 C1039 0.961 . S
H1055 C1039 0.961 . S
H1056 C1040 0.931 . S
H1057 C1045 0.930 . S
H1058 C1046 0.956 . S
H1059 C1046 0.961 . S
H1060 C1046 0.961 . S
H1061 C1047 0.958 . S
H1062 C1047 0.961 . S
H1063 C1047 0.960 . S
C1064 C1065 1.391 1_545 S
C1064 C1066 1.394 . S
C1064 H1080 0.931 . S
C1065 C1064 1.391 1_565 S
C1065 C1069 1.376 . S
C1066 C1064 1.394 . S
C1066 C1067 1.369 1_545 S
C1066 C1070 1.531 . S
C1067 C1066 1.369 1_565 S
C1067 C1068 1.410 . S
C1067 C1075 1.503 . S
C1068 C1067 1.410 . S
C1068 C1069 1.392 . S
C1068 C1071 1.511 . S
C1069 C1065 1.376 . S
C1069 C1068 1.392 . S
C1069 H1081 0.929 . S
C1070 C1066 1.531 . S
C1070 H1082 0.960 1_545 S
C1070 H1083 0.962 . S
C1070 H1084 0.960 . S
C1071 C1068 1.511 . S
C1071 H1085 0.961 . S
C1071 H1086 0.961 . S
C1071 H1087 0.961 . S
C1072 C1073 1.378 . S
C1072 C1074 1.363 . S
C1072 H1088 0.931 . S
C1073 C1072 1.378 . S
C1073 C1077 1.398 1_545 S
C1074 C1072 1.363 . S
C1074 C1075 1.370 1_545 S
C1074 C1078 1.524 . S
C1075 C1067 1.503 . S
C1075 C1074 1.370 1_565 S
C1075 C1076 1.403 . S
C1076 C1075 1.403 . S
C1076 C1077 1.404 . S
C1076 C1079 1.539 . S
C1077 C1073 1.398 1_565 S
C1077 C1076 1.404 . S
C1077 H1089 0.930 . S
C1078 C1074 1.524 . S
C1078 H1090 0.956 . S
C1078 H1091 0.961 . S
C1078 H1092 0.961 . S
C1079 C1076 1.539 . S
C1079 H1093 0.958 . S
C1079 H1094 0.961 . S
C1079 H1095 0.960 . S
H1080 C1064 0.931 . S
H1081 C1069 0.929 . S
H1082 C1070 0.960 1_565 S
H1083 C1070 0.962 . S
H1084 C1070 0.960 . S
H1085 C1071 0.961 . S
H1086 C1071 0.961 . S
H1087 C1071 0.961 . S
H1088 C1072 0.931 . S
H1089 C1077 0.930 . S
H1090 C1078 0.956 . S
H1091 C1078 0.961 . S
H1092 C1078 0.961 . S
H1093 C1079 0.958 . S
H1094 C1079 0.961 . S
H1095 C1079 0.960 . S
C1096 C1097 1.391 . S
C1096 C1098 1.394 . S
C1096 H1112 0.931 . S
C1097 C1096 1.391 . S
C1097 C1101 1.376 . S
C1098 C1096 1.394 . S
C1098 C1099 1.369 . S
C1098 C1102 1.531 . S
C1099 C1098 1.369 . S
C1099 C1100 1.410 . S
C1099 C1107 1.503 . S
C1100 C1099 1.410 . S
C1100 C1101 1.392 . S
C1100 C1103 1.511 . S
C1101 C1097 1.376 . S
C1101 C1100 1.392 . S
C1101 H1113 0.929 . S
C1102 C1098 1.531 . S
C1102 H1114 0.960 . S
C1102 H1115 0.962 . S
C1102 H1116 0.960 . S
C1103 C1100 1.511 . S
C1103 H1117 0.961 . S
C1103 H1118 0.961 . S
C1103 H1119 0.961 . S
C1104 C1105 1.370 . S
C1104 C1106 1.363 . S
C1104 H1120 0.931 . S
C1105 C1104 1.370 . S
C1105 C1109 1.408 . S
C1106 C1104 1.363 . S
C1106 C1107 1.370 . S
C1106 C1110 1.524 . S
C1107 C1099 1.503 . S
C1107 C1106 1.370 . S
C1107 C1108 1.403 . S
C1108 C1107 1.403 . S
C1108 C1109 1.404 . S
C1108 C1111 1.539 . S
C1109 C1105 1.408 . S
C1109 C1108 1.404 . S
C1109 H1121 0.930 . S
C1110 C1106 1.524 . S
C1110 H1122 0.956 . S
C1110 H1123 0.961 . S
C1110 H1124 0.961 . S
C1111 C1108 1.539 . S
C1111 H1125 0.958 . S
C1111 H1126 0.961 . S
C1111 H1127 0.960 . S
H1112 C1096 0.931 . S
H1113 C1101 0.929 . S
H1114 C1102 0.960 . S
H1115 C1102 0.962 . S
H1116 C1102 0.960 . S
H1117 C1103 0.961 . S
H1118 C1103 0.961 . S
H1119 C1103 0.961 . S
H1120 C1104 0.931 . S
H1121 C1109 0.930 . S
H1122 C1110 0.956 . S
H1123 C1110 0.961 . S
H1124 C1110 0.961 . S
H1125 C1111 0.958 . S
H1126 C1111 0.961 . S
H1127 C1111 0.960 . S
C1128 C1129 1.391 . S
C1128 C1130 1.394 . S
C1128 H1144 0.931 . S
C1129 C1128 1.391 . S
C1129 C1133 1.376 . S
C1130 C1128 1.394 . S
C1130 C1131 1.369 . S
C1130 C1134 1.531 . S
C1131 C1130 1.369 . S
C1131 C1132 1.410 . S
C1131 C1139 1.503 . S
C1132 C1131 1.410 . S
C1132 C1133 1.392 . S
C1132 C1135 1.511 . S
C1133 C1129 1.376 . S
C1133 C1132 1.392 . S
C1133 H1145 0.929 . S
C1134 C1130 1.531 . S
C1134 H1146 0.960 . S
C1134 H1147 0.962 . S
C1134 H1148 0.960 . S
C1135 C1132 1.511 . S
C1135 H1149 0.961 . S
C1135 H1150 0.961 . S
C1135 H1151 0.961 . S
C1136 C1137 1.370 . S
C1136 C1138 1.363 . S
C1136 H1152 0.931 . S
C1137 C1136 1.370 . S
C1137 C1141 1.408 . S
C1138 C1136 1.363 . S
C1138 C1139 1.370 . S
C1138 C1142 1.524 . S
C1139 C1131 1.503 . S
C1139 C1138 1.370 . S
C1139 C1140 1.403 . S
C1140 C1139 1.403 . S
C1140 C1141 1.404 . S
C1140 C1143 1.539 . S
C1141 C1137 1.408 . S
C1141 C1140 1.404 . S
C1141 H1153 0.930 . S
C1142 C1138 1.524 . S
C1142 H1154 0.956 . S
C1142 H1155 0.961 . S
C1142 H1156 0.961 . S
C1143 C1140 1.539 . S
C1143 H1157 0.958 . S
C1143 H1158 0.961 . S
C1143 H1159 0.960 . S
H1144 C1128 0.931 . S
H1145 C1133 0.929 . S
H1146 C1134 0.960 . S
H1147 C1134 0.962 . S
H1148 C1134 0.960 . S
H1149 C1135 0.961 . S
H1150 C1135 0.961 . S
H1151 C1135 0.961 . S
H1152 C1136 0.931 . S
H1153 C1141 0.930 . S
H1154 C1142 0.956 . S
H1155 C1142 0.961 . S
H1156 C1142 0.961 . S
H1157 C1143 0.958 . S
H1158 C1143 0.961 . S
H1159 C1143 0.960 . S
C393 C255 1.538 . S
C401 C313 1.543 1_545 S
C433 C348 2.254 . S
C425 C294 2.116 . S
C465 C353 1.417 . S
C457 C177 1.410 . S
C497 C373 1.951 . S
C489 C216 1.789 . S
C529 C321 1.541 . S
C521 C99 1.536 1_545 S
C553 C138 2.043 1_556 S
C561 C338 2.254 . S
C585 C21 1.432 1_556 S
C593 C361 1.410 . S
C617 C60 1.817 . S
C625 C381 1.951 . S
C657 C331 1.492 . S
C649 C196 1.299 . S
C689 C340 0.636 1_545 S
C681 C235 0.652 . S
C721 C371 1.639 . S
C713 C289 1.502 . S
C745 C157 0.915 . S
C753 C391 0.903 . S
C777 C40 1.409 . S
C785 C320 1.501 . S
C817 C351 0.667 . S
C809 C79 0.722 . S
C849 C360 1.642 . S
C841 C133 1.452 . S
C873 C1 0.855 . S
C881 C380 0.867 . S
C905 C211 2.037 . S
C913 C318 2.223 . S
C937 C250 1.728 1_556 S
C945 C341 1.894 . S
C977 C358 2.388 . S
C969 C274 2.211 1_556 S
C1009 C378 2.088 . S
C1001 C172 1.903 1_556 S
C1033 C55 2.089 . S
C1041 C328 2.228 . S
C1073 C333 1.896 . S
C1065 C94 1.720 1_565 S
C1105 C368 2.387 . S
C1097 C118 2.187 . S
C1129 C16 1.916 . S
C1137 C388 2.091 . S
