# Generated by pormake.
# Topology zzz, (3,6)-cn, num edge types: 1
# Building blocks:
#     Node 0, Type 0, BuildingBlock: BELTOD_clean_linker_0, # of connection points: 3
#     Node 1, Type 0, BuildingBlock: BELTOD_clean_linker_0, # of connection points: 3
#     Node 2, Type 0, BuildingBlock: BELTOD_clean_linker_0, # of connection points: 3
#     Node 3, Type 0, BuildingBlock: BELTOD_clean_linker_0, # of connection points: 3
#     Node 4, Type 0, BuildingBlock: BELTOD_clean_linker_0, # of connection points: 3
#     Node 5, Type 0, BuildingBlock: BELTOD_clean_linker_0, # of connection points: 3
#     Node 6, Type 0, BuildingBlock: BELTOD_clean_linker_0, # of connection points: 3
#     Node 7, Type 0, BuildingBlock: BELTOD_clean_linker_0, # of connection points: 3
#     Node 8, Type 1, BuildingBlock: KUMJIN_clean_sbu_0, # of connection points: 6
#     Node 9, Type 1, BuildingBlock: KUMJIN_clean_sbu_0, # of connection points: 6
#     Node 10, Type 1, BuildingBlock: KUMJIN_clean_sbu_0, # of connection points: 6
#     Node 11, Type 1, BuildingBlock: KUMJIN_clean_sbu_0, # of connection points: 6
#     Edge 12, Type (0, 1), BuildingBlock: XUDNAN_clean_linker_2, # of connection points: 2
#     Edge 13, Type (0, 1), BuildingBlock: XUDNAN_clean_linker_2, # of connection points: 2
#     Edge 14, Type (0, 1), BuildingBlock: XUDNAN_clean_linker_2, # of connection points: 2
#     Edge 15, Type (0, 1), BuildingBlock: XUDNAN_clean_linker_2, # of connection points: 2
#     Edge 16, Type (0, 1), BuildingBlock: XUDNAN_clean_linker_2, # of connection points: 2
#     Edge 17, Type (0, 1), BuildingBlock: XUDNAN_clean_linker_2, # of connection points: 2
#     Edge 18, Type (0, 1), BuildingBlock: XUDNAN_clean_linker_2, # of connection points: 2
#     Edge 19, Type (0, 1), BuildingBlock: XUDNAN_clean_linker_2, # of connection points: 2
#     Edge 20, Type (0, 1), BuildingBlock: XUDNAN_clean_linker_2, # of connection points: 2
#     Edge 21, Type (0, 1), BuildingBlock: XUDNAN_clean_linker_2, # of connection points: 2
#     Edge 22, Type (0, 1), BuildingBlock: XUDNAN_clean_linker_2, # of connection points: 2
#     Edge 23, Type (0, 1), BuildingBlock: XUDNAN_clean_linker_2, # of connection points: 2
#     Edge 24, Type (0, 1), BuildingBlock: XUDNAN_clean_linker_2, # of connection points: 2
#     Edge 25, Type (0, 1), BuildingBlock: XUDNAN_clean_linker_2, # of connection points: 2
#     Edge 26, Type (0, 1), BuildingBlock: XUDNAN_clean_linker_2, # of connection points: 2
#     Edge 27, Type (0, 1), BuildingBlock: XUDNAN_clean_linker_2, # of connection points: 2
#     Edge 28, Type (0, 1), BuildingBlock: XUDNAN_clean_linker_2, # of connection points: 2
#     Edge 29, Type (0, 1), BuildingBlock: XUDNAN_clean_linker_2, # of connection points: 2
#     Edge 30, Type (0, 1), BuildingBlock: XUDNAN_clean_linker_2, # of connection points: 2
#     Edge 31, Type (0, 1), BuildingBlock: XUDNAN_clean_linker_2, # of connection points: 2
#     Edge 32, Type (0, 1), BuildingBlock: XUDNAN_clean_linker_2, # of connection points: 2
#     Edge 33, Type (0, 1), BuildingBlock: XUDNAN_clean_linker_2, # of connection points: 2
#     Edge 34, Type (0, 1), BuildingBlock: XUDNAN_clean_linker_2, # of connection points: 2
#     Edge 35, Type (0, 1), BuildingBlock: XUDNAN_clean_linker_2, # of connection points: 2
# Relax obj value: 0.288
# Max RMSD: 0.211
# Mean RMSD: 0.202
data_MOF--net-zzz--node1-KUMJIN_clean_sbu_0--node2-BELTOD_clean_linker_0--edge1-XUDNAN_clean_linker_2
_symmetry_space_group_name_H-M    P1
_symmetry_Int_Tables_number       1
_symmetry_cell_setting            triclinic
loop_
_symmetry_equiv_pos_as_xyz
'x, y, z'
_cell_length_a     53.673143
_cell_length_b     53.640678
_cell_length_c     18.598248
_cell_angle_alpha  90.397719
_cell_angle_beta   90.256943
_cell_angle_gamma 89.914329
loop_
_atom_site_label
_atom_site_type_symbol
_atom_site_fract_x
_atom_site_fract_y
_atom_site_fract_z
_atom_type_partial_charge
P0 P 0.73 0.54381 0.23596 0.0
H1 H 0.73982 0.5229 0.37976 0.0
H2 H 0.77895 0.525 0.4476 0.0
H3 H 0.7998 0.59055 0.33006 0.0
H4 H 0.76041 0.58904 0.26413 0.0
H5 H 0.68732 0.51033 0.2514 0.0
H6 H 0.65136 0.50468 0.17523 0.0
H7 H 0.66291 0.57758 0.08417 0.0
H8 H 0.6959 0.5849 0.17269 0.0
H9 H 0.77596 0.52217 0.18672 0.0
H10 H 0.73136 0.58624 0.13003 0.0
O11 O 0.73359 0.51293 0.24194 0.0
H12 H 0.8063 0.53421 0.09673 0.0
H13 H 0.76052 0.59681 0.03652 0.0
C14 C 0.74706 0.55541 0.31482 0.0
C15 C 0.75197 0.5387 0.37137 0.0
C16 C 0.77461 0.53974 0.41005 0.0
C17 C 0.79273 0.55765 0.39332 0.0
C18 C 0.7863 0.57641 0.34399 0.0
C19 C 0.7635 0.57562 0.30642 0.0
C20 C 0.69683 0.54696 0.21198 0.0
C21 C 0.68199 0.52552 0.2165 0.0
C22 C 0.66152 0.52199 0.1707 0.0
C23 C 0.6555 0.53948 0.11691 0.0
C24 C 0.66769 0.56277 0.12092 0.0
C25 C 0.68751 0.56671 0.17003 0.0
C26 C 0.74999 0.55198 0.16214 0.0
C27 C 0.77192 0.53812 0.1532 0.0
C28 C 0.7894 0.54513 0.10249 0.0
C29 C 0.78518 0.56608 0.05953 0.0
C30 C 0.76364 0.58027 0.06847 0.0
C31 C 0.74647 0.57364 0.12096 0.0
P32 P 0.9868 0.73857 0.24164 0.0
H33 H 0.01036 0.74861 0.38265 0.0
H34 H 0.00818 0.78785 0.44995 0.0
H35 H 0.93844 0.80507 0.3466 0.0
H36 H 0.94001 0.76537 0.28136 0.0
H37 H 0.02457 0.70131 0.20644 0.0
H38 H 0.02481 0.66478 0.13115 0.0
H39 H 0.94461 0.66628 0.11889 0.0
H40 H 0.94422 0.70343 0.19857 0.0
H41 H 1.00106 0.78882 0.21325 0.0
H42 H 0.94675 0.73688 0.12802 0.0
O43 O 0.01749 0.74375 0.24458 0.0
H44 H 0.98379 0.82128 0.13763 0.0
H45 H 0.93015 0.7693 0.05044 0.0
C46 C 0.97578 0.75389 0.3244 0.0
C47 C 0.9937 0.75987 0.37746 0.0
C48 C 0.99263 0.78264 0.41572 0.0
C49 C 0.97336 0.79984 0.40283 0.0
C50 C 0.95358 0.79228 0.35781 0.0
C51 C 0.95441 0.76924 0.32082 0.0
C52 C 0.9844 0.70622 0.20772 0.0
C53 C 0.00673 0.69397 0.1895 0.0
C54 C 0.00694 0.67277 0.14539 0.0
C55 C 0.98481 0.66263 0.11726 0.0
C56 C 0.96212 0.67389 0.13809 0.0
C57 C 0.96191 0.69515 0.18408 0.0
C58 C 0.9759 0.76003 0.17494 0.0
C59 C 0.98571 0.78419 0.17756 0.0
C60 C 0.97538 0.80292 0.13603 0.0
C61 C 0.95522 0.79776 0.09027 0.0
C62 C 0.94533 0.77365 0.087 0.0
C63 C 0.95532 0.75495 0.13023 0.0
P64 P 0.77386 0.97439 0.23997 0.0
H65 H 0.76776 0.01457 0.34483 0.0
H66 H 0.73269 0.02101 0.42484 0.0
H67 H 0.71615 0.94234 0.41535 0.0
H68 H 0.75312 0.93576 0.34036 0.0
H69 H 0.80578 0.01743 0.22422 0.0
H70 H 0.84169 0.02386 0.15213 0.0
H71 H 0.85327 0.94401 0.13718 0.0
H72 H 0.81475 0.93793 0.2054 0.0
H73 H 0.72524 0.94863 0.24714 0.0
H74 H 0.78624 0.9548 0.09722 0.0
O75 O 0.76187 1.00066 0.20655 0.0
H76 H 0.69838 0.93593 0.1523 0.0
H77 H 0.75801 0.94404 1.00078 0.0
C78 C 0.76211 0.97492 0.33209 0.0
C79 C 0.75754 0.9984 0.36291 0.0
C80 C 0.73693 1.00215 0.40764 0.0
C81 C 0.72031 0.98251 0.42224 0.0
C82 C 0.72792 0.95815 0.40344 0.0
C83 C 0.74927 0.95435 0.36053 0.0
C84 C 0.80699 0.97723 0.21967 0.0
C85 C 0.81624 1.00116 0.20727 0.0
C86 C 0.83743 1.00479 0.16538 0.0
C87 C 0.8512 0.98453 0.13683 0.0
C88 C 0.84326 0.9603 0.15589 0.0
C89 C 0.82142 0.95671 0.19685 0.0
C90 C 0.75874 0.95182 0.1821 0.0
C91 C 0.73395 0.94502 0.19624 0.0
C92 C 0.71808 0.9378 0.14076 0.0
C93 C 0.72618 0.93914 0.06963 0.0
C94 C 0.75155 0.9424 0.05566 0.0
C95 C 0.76776 0.94876 0.11167 0.0
P96 P 0.53785 0.79182 0.27277 0.0
H97 H 0.52132 0.77978 0.41889 0.0
H98 H 0.52409 0.73961 0.47984 0.0
H99 H 0.58406 0.71779 0.33983 0.0
H100 H 0.58209 0.75824 0.28084 0.0
H101 H 0.50652 0.83474 0.24087 0.0
H102 H 0.51295 0.86815 0.15612 0.0
H103 H 0.59164 0.85226 0.15407 0.0
H104 H 0.58549 0.81982 0.24546 0.0
H105 H 0.50848 0.75264 0.20559 0.0
H106 H 0.57898 0.78889 0.16634 0.0
O107 O 0.50721 0.79175 0.28821 0.0
H108 H 0.51744 0.72341 0.10789 0.0
H109 H 0.58715 0.76048 0.06789 0.0
C110 C 0.55098 0.77215 0.34335 0.0
C111 C 0.53613 0.76709 0.40377 0.0
C112 C 0.53757 0.74391 0.43857 0.0
C113 C 0.554 0.72537 0.41385 0.0
C114 C 0.57111 0.73167 0.35988 0.0
C115 C 0.56998 0.75501 0.32609 0.0
C116 C 0.5454 0.8238 0.24821 0.0
C117 C 0.52547 0.83904 0.22586 0.0
C118 C 0.52907 0.85821 0.17646 0.0
C119 C 0.55266 0.86239 0.14701 0.0
C120 C 0.57314 0.84917 0.17523 0.0
C121 C 0.56961 0.8306 0.22746 0.0
C122 C 0.54241 0.77387 0.19197 0.0
C123 C 0.52529 0.75512 0.17454 0.0
C124 C 0.53042 0.73843 0.11906 0.0
C125 C 0.55274 0.74034 0.08057 0.0
C126 C 0.5696 0.75931 0.09623 0.0
C127 C 0.5646 0.77583 0.15226 0.0
P128 P 0.29531 0.43772 0.01586 0.0
H129 H 0.27819 0.43141 0.86617 0.0
H130 H 0.2383 0.44186 0.80958 0.0
H131 H 0.22037 0.48932 0.98978 0.0
H132 H 0.26031 0.47895 0.04646 0.0
H133 H 0.34176 0.41824 0.07224 0.0
H134 H 0.37298 0.43475 0.15568 0.0
H135 H 0.33644 0.50647 0.15046 0.0
H136 H 0.30502 0.48967 0.06711 0.0
H137 H 0.24865 0.41035 0.01049 0.0
H138 H 0.29915 0.43695 0.17571 0.0
O139 O 0.30667 0.41401 0.96757 0.0
H140 H 0.21542 0.40848 0.0987 0.0
H141 H 0.26649 0.43374 0.26378 0.0
C142 C 0.27285 0.45474 0.96042 0.0
C143 C 0.26643 0.44518 0.89202 0.0
C144 C 0.24343 0.45105 0.85953 0.0
C145 C 0.22622 0.46656 0.89487 0.0
C146 C 0.23338 0.47757 0.96075 0.0
C147 C 0.25646 0.47188 0.9929 0.0
C148 C 0.32143 0.4529 0.06092 0.0
C149 C 0.34085 0.43777 0.08716 0.0
C150 C 0.35846 0.44707 0.13632 0.0
C151 C 0.3573 0.47193 0.16017 0.0
C152 C 0.33809 0.48727 0.13275 0.0
C153 C 0.32019 0.47778 0.08431 0.0
C154 C 0.27609 0.42489 0.08532 0.0
C155 C 0.25298 0.41461 0.06615 0.0
C156 C 0.23401 0.41328 0.11689 0.0
C157 C 0.23831 0.4217 0.1875 0.0
C158 C 0.26265 0.42772 0.20909 0.0
C159 C 0.28139 0.42966 0.15812 0.0
P160 P 0.0755 0.28659 0.02096 0.0
H161 H 0.09147 0.26516 0.88392 0.0
H162 H 0.07905 0.2278 0.81846 0.0
H163 H 0.01414 0.22125 0.95207 0.0
H164 H 0.02725 0.25859 0.0211 0.0
H165 H 0.10558 0.32081 0.0975 0.0
H166 H 0.09865 0.35282 0.18236 0.0
H167 H 0.01942 0.3505 0.13625 0.0
H168 H 0.027 0.31503 0.05418 0.0
H169 H 0.11196 0.24703 0.0457 0.0
H170 H 0.0497 0.28037 0.15713 0.0
O171 O 0.10321 0.29281 0.98483 0.0
H172 H 0.1172 0.21726 0.14479 0.0
H173 H 0.0556 0.25179 0.25607 0.0
C174 C 0.06 0.26559 0.957 0.0
C175 C 0.07415 0.25636 0.89881 0.0
C176 C 0.06732 0.23456 0.86169 0.0
C177 C 0.04588 0.22135 0.88073 0.0
C178 C 0.03094 0.23098 0.93664 0.0
C179 C 0.0381 0.25268 0.97509 0.0
C180 C 0.06708 0.31583 0.06622 0.0
C181 C 0.08664 0.32752 0.10328 0.0
C182 C 0.08247 0.34655 0.15292 0.0
C183 C 0.05838 0.35595 0.16664 0.0
C184 C 0.03841 0.34444 0.12823 0.0
C185 C 0.04268 0.32429 0.07956 0.0
C186 C 0.08102 0.2664 0.09533 0.0
C187 C 0.09998 0.24844 0.09224 0.0
C188 C 0.10304 0.23162 0.14858 0.0
C189 C 0.08737 0.23301 0.20857 0.0
C190 C 0.06852 0.25109 0.21145 0.0
C191 C 0.06512 0.2674 0.15475 0.0
P192 P 0.23369 0.07873 1.00375 0.0
H193 H 0.25181 0.09659 0.86594 0.0
H194 H 0.28915 0.08778 0.80077 0.0
H195 H 0.29967 0.02039 0.92405 0.0
H196 H 0.2627 0.03087 0.99417 0.0
H197 H 0.19092 0.1079 0.04728 0.0
H198 H 0.1584 0.1002 0.13317 0.0
H199 H 0.17638 0.02184 0.13156 0.0
H200 H 0.2091 0.02957 0.04148 0.0
H201 H 0.26662 0.11625 0.06988 0.0
H202 H 0.2435 0.0406 0.11097 0.0
O203 O 0.23038 0.10844 0.97901 0.0
H204 H 0.29203 0.11556 0.18019 0.0
H205 H 0.26753 0.04038 0.22089 0.0
C206 C 0.25396 0.06456 0.93589 0.0
C207 C 0.26162 0.07951 0.87841 0.0
C208 C 0.28345 0.07427 0.84019 0.0
C209 C 0.29833 0.05329 0.85617 0.0
C210 C 0.28952 0.03714 0.91038 0.0
C211 C 0.26779 0.0428 0.94998 0.0
C212 C 0.20304 0.06944 0.03728 0.0
C213 C 0.1875 0.08876 0.06221 0.0
C214 C 0.16892 0.08441 0.11293 0.0
C215 C 0.16517 0.06054 0.14138 0.0
C216 C 0.17888 0.04055 0.11138 0.0
C217 C 0.19761 0.04497 0.05954 0.0
C218 C 0.25234 0.07882 0.08365 0.0
C219 C 0.26649 0.09978 0.10313 0.0
C220 C 0.28085 0.09946 0.16595 0.0
C221 C 0.28076 0.0783 0.2098 0.0
C222 C 0.26697 0.05729 0.18931 0.0
C223 C 0.25316 0.05744 0.12629 0.0
P224 P 0.42588 0.22981 0.01442 0.0
H225 H 0.42375 0.24137 0.86053 0.0
H226 H 0.43639 0.27837 0.79397 0.0
H227 H 0.47581 0.30579 0.98088 0.0
H228 H 0.46389 0.26826 0.04686 0.0
H229 H 0.40779 0.18057 0.05091 0.0
H230 H 0.42394 0.14887 0.13244 0.0
H231 H 0.49343 0.18871 0.14827 0.0
H232 H 0.47744 0.22027 0.06454 0.0
H233 H 0.39119 0.27104 0.02103 0.0
H234 H 0.43984 0.2326 0.16883 0.0
O235 O 0.40056 0.2204 0.96949 0.0
H236 H 0.39671 0.30939 0.09001 0.0
H237 H 0.44602 0.27077 0.23582 0.0
C238 C 0.4429 0.25172 0.95884 0.0
C239 C 0.43584 0.25481 0.88671 0.0
C240 C 0.4428 0.2762 0.84888 0.0
C241 C 0.45667 0.29523 0.88266 0.0
C242 C 0.46476 0.29165 0.95382 0.0
C243 C 0.45827 0.26994 0.99114 0.0
C244 C 0.44151 0.20267 0.05048 0.0
C245 C 0.42699 0.18188 0.06861 0.0
C246 C 0.4362 0.16371 0.11538 0.0
C247 C 0.45997 0.16624 0.14597 0.0
C248 C 0.47516 0.18617 0.12433 0.0
C249 C 0.46608 0.20415 0.0763 0.0
C250 C 0.41591 0.24924 0.08782 0.0
C251 C 0.40178 0.27038 0.07069 0.0
C252 C 0.40515 0.29239 0.10974 0.0
C253 C 0.42256 0.2932 0.16623 0.0
C254 C 0.43271 0.2708 0.19182 0.0
C255 C 0.42931 0.24882 0.15275 0.0
Eu256 Eu 0.03265 1.00007 0.68658 0.0
C257 C 0.94373 0.98607 0.51668 0.0
C258 C 0.95938 0.96805 0.40573 0.0
C259 C 0.91823 0.95683 0.44778 0.0
C260 C 0.96277 0.98335 0.46719 0.0
C261 C 0.92089 0.97347 0.50581 0.0
C262 C 0.93743 0.95416 0.39775 0.0
C263 C 0.90307 0.99846 0.6007 0.0
N264 N 0.94638 1.0032 0.57027 0.0
C265 C 0.92576 0.01087 0.60803 0.0
C266 C 0.90076 0.97926 0.5504 0.0
Eu267 Eu 0.98545 0.02445 0.57614 0.0
N268 N 0.98366 0.99733 0.47537 0.0
C269 C 1.00052 0.99878 0.42069 0.0
C270 C 0.97759 0.96814 0.35214 0.0
C271 C 0.99804 0.98394 0.35909 0.0
H272 H 0.92679 0.02662 0.64461 0.0
H273 H 0.01176 0.98495 0.31674 0.0
H274 H 0.93467 0.94212 0.35138 0.0
H275 H 0.88721 1.00414 0.63265 0.0
H276 H 0.01567 0.01172 0.42322 0.0
H277 H 1.00478 0.04973 0.93527 0.0
H278 H 0.97557 0.95678 0.30409 0.0
H279 H 0.08953 1.0006 0.60442 0.0
H280 H 0.99755 0.0311 0.81853 0.0
H281 H 0.13148 0.01536 0.6286 0.0
H282 H 0.90091 0.94689 0.43907 0.0
H283 H 0.0477 0.05861 0.97555 0.0
H284 H 0.09273 0.06107 0.94567 0.0
H285 H 0.88294 0.97007 0.54349 0.0
H286 H 0.12656 0.05416 0.8596 0.0
N287 N 0.03566 0.02641 0.79132 0.0
C288 C 0.01632 0.03332 0.83487 0.0
C289 C 0.04458 0.04968 0.92385 0.0
C290 C 0.06431 0.04476 0.87717 0.0
C291 C 0.02039 0.04467 0.9015 0.0
C292 C 0.05927 0.03304 0.81019 0.0
H293 H 0.14096 0.03803 0.74118 0.0
N294 N 0.07313 0.01815 0.69697 0.0
C295 C 0.11663 0.01998 0.66561 0.0
C296 C 0.07832 0.02952 0.76094 0.0
C297 C 0.09228 0.01234 0.65105 0.0
C298 C 0.12194 0.03258 0.72938 0.0
C299 C 0.10285 0.03711 0.77854 0.0
O300 O 0.05744 0.96891 0.65976 0.0
O301 O 0.00845 0.98982 0.59114 0.0
O302 O 0.96712 0.01207 0.68036 0.0
O303 O 0.99736 0.99404 0.75324 0.0
O304 O 0.00704 0.96661 0.67975 0.0
O305 O 0.05138 0.97941 0.77092 0.0
O306 O 0.95695 0.05315 0.56023 0.0
O307 O 0.01754 0.03731 0.6474 0.0
O308 O 0.04849 0.00709 0.57437 0.0
O309 O 0.02263 0.03791 0.53133 0.0
O310 O 0.98256 0.0507 0.67065 0.0
O311 O 0.98398 0.04607 0.47763 0.0
C312 C 1.00004 0.96906 0.61382 0.0
C313 C 0.06063 0.93755 0.74752 0.0
C314 C 0.03804 0.90309 0.80055 0.0
C315 C 0.03868 0.92772 0.77623 0.0
C316 C 0.05969 0.88834 0.79571 0.0
C317 C 0.082 0.92267 0.7426 0.0
C318 C 0.0815 0.89811 0.76666 0.0
C319 C 0.97395 1.00054 0.73968 0.0
C320 C 0.06196 0.96372 0.72689 0.0
C321 C 0.10785 0.04835 0.84536 0.0
C322 C 0.08864 0.05209 0.89461 0.0
C323 C 0.00596 0.05364 0.68487 0.0
C324 C 0.96568 0.08598 0.48121 0.0
C325 C 0.98832 0.09826 0.46965 0.0
C326 C 0.98834 0.12356 0.45278 0.0
C327 C 0.9658 0.13666 0.44689 0.0
C328 C 0.94316 0.09911 0.4751 0.0
C329 C 0.94325 0.12439 0.45791 0.0
C330 C 0.0439 0.0255 0.52965 0.0
C331 C 0.96498 0.05939 0.49727 0.0
H332 H 0.02223 0.93932 0.78063 0.0
H333 H 0.05998 0.86944 0.81574 0.0
H334 H 0.09915 0.93018 0.72127 0.0
H335 H 0.09812 0.88672 0.76369 0.0
H336 H 0.00585 0.08828 0.47393 0.0
H337 H 0.96568 0.15622 0.43282 0.0
H338 H 0.92553 0.08975 0.48318 0.0
H339 H 0.92584 0.13443 0.45274 0.0
Eu340 Eu 0.5187 0.03591 0.70259 0.0
C341 C 0.53471 0.94404 0.52516 0.0
C342 C 0.55969 0.96017 0.42748 0.0
C343 C 0.56286 0.91651 0.45974 0.0
C344 C 0.5419 0.96383 0.48227 0.0
C345 C 0.54463 0.92 0.51273 0.0
C346 C 0.57041 0.93655 0.41739 0.0
C347 C 0.51533 0.90375 0.59861 0.0
N348 N 0.51661 0.94774 0.5749 0.0
C349 C 0.50589 0.92777 0.60844 0.0
C350 C 0.53505 0.89989 0.55129 0.0
Eu351 Eu 0.49887 0.9882 0.57905 0.0
N352 N 0.53056 0.98628 0.49119 0.0
C353 C 0.53559 1.00552 0.44567 0.0
C354 C 0.56553 0.9801 0.38252 0.0
C355 C 0.55324 1.00281 0.39125 0.0
H356 H 0.49021 0.93058 0.64404 0.0
H357 H 0.55741 0.01828 0.35629 0.0
H358 H 0.58407 0.93343 0.37555 0.0
H359 H 0.50719 0.88821 0.62684 0.0
H360 H 0.5266 0.02332 0.45172 0.0
H361 H 0.46866 0.99311 0.93208 0.0
H362 H 0.57912 0.97801 0.33998 0.0
H363 H 0.51673 0.09535 0.64822 0.0
H364 H 0.48911 0.99222 0.81682 0.0
H365 H 0.4987 0.13523 0.68522 0.0
H366 H 0.57071 0.89821 0.44964 0.0
H367 H 0.45434 0.03301 0.98394 0.0
H368 H 0.44726 0.07842 0.96844 0.0
H369 H 0.5421 0.88117 0.54288 0.0
H370 H 0.45341 0.11651 0.89848 0.0
N371 N 0.49153 0.03196 0.80545 0.0
C372 C 0.4855 0.01021 0.83988 0.0
C373 C 0.46441 0.0329 0.93358 0.0
C374 C 0.46787 0.05476 0.89482 0.0
C375 C 0.47273 0.01043 0.90504 0.0
C376 C 0.48161 0.05378 0.83008 0.0
H377 H 0.47197 0.13769 0.79273 0.0
N378 N 0.49841 0.07413 0.72917 0.0
C379 C 0.49432 0.11851 0.71484 0.0
C380 C 0.48481 0.07528 0.79033 0.0
C381 C 0.50419 0.0956 0.69345 0.0
C382 C 0.47933 0.11981 0.77552 0.0
C383 C 0.47477 0.09819 0.81485 0.0
O384 O 0.54737 0.06213 0.66921 0.0
O385 O 0.53052 0.01369 0.60544 0.0
O386 O 0.51673 0.96921 0.67704 0.0
O387 O 0.52677 0.99999 0.76242 0.0
O388 O 0.55437 0.01351 0.69312 0.0
O389 O 0.54041 0.05621 0.7828 0.0
O390 O 0.46862 0.96223 0.55799 0.0
O391 O 0.48534 0.01908 0.65048 0.0
O392 O 0.504 0.05475 0.60089 0.0
O393 O 0.48944 0.02434 0.52122 0.0
O394 O 0.46758 0.98554 0.6615 0.0
O395 O 0.48174 0.98598 0.47242 0.0
C396 C 0.55169 0.00614 0.62752 0.0
C397 C 0.58101 0.06768 0.74849 0.0
C398 C 0.61886 0.04795 0.79133 0.0
C399 C 0.59324 0.04697 0.77762 0.0
C400 C 0.63221 0.06975 0.77576 0.0
C401 C 0.59448 0.08928 0.73255 0.0
C402 C 0.62003 0.09029 0.74627 0.0
C403 C 0.52497 0.97632 0.74141 0.0
C404 C 0.5542 0.06728 0.73498 0.0
C405 C 0.46116 0.09908 0.87893 0.0
C406 C 0.45779 0.07744 0.91892 0.0
C407 C 0.46765 0.00847 0.68242 0.0
C408 C 0.44174 0.96784 0.4601 0.0
C409 C 0.42635 0.98893 0.46181 0.0
C410 C 0.40205 0.98719 0.43461 0.0
C411 C 0.39338 0.96461 0.40524 0.0
C412 C 0.43299 0.94535 0.43073 0.0
C413 C 0.40888 0.94378 0.40319 0.0
C414 C 0.49391 0.04787 0.53865 0.0
C415 C 0.4667 0.96809 0.49057 0.0
H416 H 0.58284 0.03043 0.7917 0.0
H417 H 0.65204 0.07086 0.78641 0.0
H418 H 0.58519 0.10539 0.70998 0.0
H419 H 0.63038 0.10705 0.73437 0.0
H420 H 0.43304 0.00633 0.48482 0.0
H421 H 0.37467 0.9632 0.38348 0.0
H422 H 0.44481 0.92895 0.42954 0.0
H423 H 0.40219 0.92639 0.38048 0.0
Eu424 Eu 0.52982 0.49794 0.58359 0.0
C425 C 0.42066 0.50378 0.6592 0.0
C426 C 0.40364 0.52952 0.56391 0.0
C427 C 0.37781 0.4979 0.61852 0.0
C428 C 0.42376 0.52258 0.60891 0.0
C429 C 0.39725 0.49196 0.66601 0.0
C430 C 0.38101 0.51662 0.5676 0.0
C431 C 0.41203 0.47264 0.77476 0.0
N432 N 0.43939 0.49901 0.70654 0.0
C433 C 0.43461 0.48508 0.76678 0.0
C434 C 0.39341 0.47569 0.72331 0.0
Eu435 Eu 0.47677 0.52245 0.69027 0.0
N436 N 0.44545 0.53563 0.60833 0.0
C437 C 0.44723 0.55704 0.56881 0.0
C438 C 0.40626 0.5502 0.51929 0.0
C439 C 0.42793 0.56433 0.52302 0.0
H440 H 0.44843 0.48344 0.80905 0.0
H441 H 0.42983 0.58089 0.49058 0.0
H442 H 0.36549 0.52166 0.53317 0.0
H443 H 0.40883 0.46115 0.82142 0.0
H444 H 0.46346 0.56872 0.571 0.0
H445 H 0.58786 0.4371 0.75041 0.0
H446 H 0.39126 0.55602 0.48403 0.0
H447 H 0.5481 0.53593 0.45306 0.0
H448 H 0.54942 0.45186 0.69518 0.0
H449 H 0.58669 0.55497 0.40754 0.0
H450 H 0.35984 0.48887 0.6228 0.0
H451 H 0.62773 0.45822 0.72548 0.0
H452 H 0.65105 0.48998 0.65439 0.0
H453 H 0.37567 0.46644 0.73044 0.0
H454 H 0.65086 0.52176 0.55973 0.0
N455 N 0.56627 0.48274 0.642 0.0
C456 C 0.56627 0.46188 0.68398 0.0
C457 C 0.61067 0.46517 0.70153 0.0
C458 C 0.61098 0.48516 0.65372 0.0
C459 C 0.58826 0.45316 0.71551 0.0
C460 C 0.58821 0.4935 0.62401 0.0
H461 H 0.62704 0.54575 0.46652 0.0
N462 N 0.56616 0.51731 0.53943 0.0
C463 C 0.58737 0.5429 0.4539 0.0
C464 C 0.58815 0.5113 0.5708 0.0
C465 C 0.56554 0.53217 0.48002 0.0
C466 C 0.61008 0.53769 0.48743 0.0
C467 C 0.61075 0.52139 0.54585 0.0
O468 O 0.52908 0.48682 0.47076 0.0
O469 O 0.48806 0.50487 0.58523 0.0
O470 O 0.47843 0.48061 0.71183 0.0
O471 O 0.51267 0.46658 0.64671 0.0
O472 O 0.50802 0.51737 0.49706 0.0
O473 O 0.53229 0.45874 0.55421 0.0
O474 O 0.4594 0.52995 0.79302 0.0
O475 O 0.51642 0.51095 0.68934 0.0
O476 O 0.5377 0.53901 0.60295 0.0
O477 O 0.49766 0.55332 0.62977 0.0
O478 O 0.50419 0.52523 0.78483 0.0
O479 O 0.46726 0.56058 0.72042 0.0
C480 C 0.48609 0.51464 0.5235 0.0
C481 C 0.54418 0.44726 0.43709 0.0
C482 C 0.5417 0.41398 0.34932 0.0
C483 C 0.53053 0.42896 0.40149 0.0
C484 C 0.56705 0.4172 0.33352 0.0
C485 C 0.56955 0.45044 0.42257 0.0
C486 C 0.58098 0.43523 0.37083 0.0
C487 C 0.49344 0.46273 0.68908 0.0
C488 C 0.53042 0.46321 0.48579 0.0
C489 C 0.63332 0.51413 0.5779 0.0
C490 C 0.63343 0.49606 0.63185 0.0
C491 C 0.52352 0.51702 0.75192 0.0
C492 C 0.46629 0.56874 0.84575 0.0
C493 C 0.48748 0.58388 0.84438 0.0
C494 C 0.49393 0.598 0.90507 0.0
C495 C 0.47924 0.59652 0.96749 0.0
C496 C 0.45187 0.56728 0.90822 0.0
C497 C 0.45842 0.58108 0.96901 0.0
C498 C 0.52091 0.55704 0.60806 0.0
C499 C 0.45887 0.55395 0.78341 0.0
H500 H 0.51075 0.42706 0.4124 0.0
H501 H 0.57593 0.40586 0.29257 0.0
H502 H 0.58023 0.46473 0.45022 0.0
H503 H 0.60053 0.43768 0.35883 0.0
H504 H 0.49886 0.58475 0.7964 0.0
H505 H 0.48348 0.60773 0.01461 0.0
H506 H 0.43553 0.55547 0.90984 0.0
H507 H 0.44717 0.58006 0.01704 0.0
Eu508 Eu 0.02328 0.52922 0.58962 0.0
C509 C 1.00043 0.42503 0.65682 0.0
C510 C 0.96957 0.41282 0.56795 0.0
C511 C 0.99693 0.38154 0.61878 0.0
C512 C 0.98122 0.43156 0.61031 0.0
C513 C 0.00802 0.39979 0.66241 0.0
C514 C 0.97768 0.38801 0.57201 0.0
C515 C 0.03404 0.41124 0.76283 0.0
N516 N 0.01038 0.44273 0.70074 0.0
C517 C 0.02563 0.4357 0.7563 0.0
C518 C 0.02556 0.39324 0.71471 0.0
Eu519 Eu 0.99304 0.48342 0.69491 0.0
N520 N 0.97331 0.45576 0.60802 0.0
C521 C 0.95447 0.46196 0.56093 0.0
C522 C 0.94977 0.4193 0.52309 0.0
C523 C 0.94244 0.444 0.51892 0.0
H524 H 0.03039 0.44851 0.79861 0.0
H525 H 0.92755 0.44936 0.48269 0.0
H526 H 0.96891 0.37357 0.53973 0.0
H527 H 0.04634 0.40615 0.80665 0.0
H528 H 0.94809 0.48047 0.5527 0.0
H529 H 0.06905 0.57682 0.81447 0.0
H530 H 0.94024 0.40542 0.49056 0.0
H531 H 0.99356 0.55426 0.44838 0.0
H532 H 0.05876 0.54151 0.73532 0.0
H533 H 0.9772 0.59513 0.40988 0.0
H534 H 1.00257 0.36219 0.62247 0.0
H535 H 0.05039 0.61823 0.79214 0.0
H536 H 0.02424 0.64554 0.71311 0.0
H537 H 0.03162 0.37409 0.72089 0.0
H538 H 0.99901 0.65049 0.60346 0.0
N539 N 0.03367 0.56215 0.66964 0.0
C540 C 0.05034 0.55931 0.72473 0.0
C541 C 0.04563 0.60267 0.7573 0.0
C542 C 0.02964 0.6058 0.69846 0.0
C543 C 0.05627 0.57937 0.76992 0.0
C544 C 0.02388 0.5849 0.65504 0.0
H545 H 0.98158 0.63191 0.48989 0.0
N546 N 0.00539 0.56739 0.55132 0.0
C547 C 0.98593 0.59325 0.46214 0.0
C548 C 0.00937 0.58762 0.59392 0.0
C549 C 0.99514 0.57016 0.48421 0.0
C550 C 0.98841 0.61393 0.5075 0.0
C551 C 1.00071 0.61141 0.57357 0.0
O552 O 0.03576 0.53124 0.47811 0.0
O553 O 0.01741 0.48784 0.59911 0.0
O554 O 0.03429 0.48523 0.72875 0.0
O555 O 0.05532 0.50822 0.64317 0.0
O556 O 0.00753 0.50367 0.50306 0.0
O557 O 0.0613 0.54115 0.56655 0.0
O558 O 0.99656 0.47929 0.81093 0.0
O559 O 0.01011 0.5215 0.70117 0.0
O560 O 0.98159 0.53479 0.57294 0.0
O561 O 0.96097 0.50516 0.64244 0.0
O562 O 0.97416 0.51824 0.73828 0.0
O563 O 0.96557 0.46221 0.75448 0.0
C564 C 0.01058 0.48272 0.53539 0.0
C565 C 0.0765 0.54545 0.44612 0.0
C566 C 0.10887 0.53047 0.36747 0.0
C567 C 0.09221 0.52641 0.42348 0.0
C568 C 0.11019 0.55411 0.33548 0.0
C569 C 0.07737 0.56891 0.41376 0.0
C570 C 0.09442 0.57327 0.35873 0.0
C571 C 0.05526 0.49362 0.70012 0.0
C572 C 0.0574 0.53962 0.49762 0.0
C573 C 0.00563 0.6321 0.61799 0.0
C574 C 0.02003 0.62929 0.68036 0.0
C575 C 0.99261 0.53343 0.73221 0.0
C576 C 0.95956 0.4746 0.87415 0.0
C577 C 0.94157 0.49293 0.86157 0.0
C578 C 0.92689 0.50173 0.91797 0.0
C579 C 0.92978 0.49147 0.98697 0.0
C580 C 0.96248 0.46451 0.94289 0.0
C581 C 0.94746 0.47285 0.99913 0.0
C582 C 0.96106 0.52382 0.59562 0.0
C583 C 0.97604 0.46661 0.81665 0.0
H584 H 0.09115 0.50827 0.44888 0.0
H585 H 0.12303 0.55757 0.29192 0.0
H586 H 0.06469 0.58359 0.43027 0.0
H587 H 0.09513 0.59135 0.33338 0.0
H588 H 0.93913 0.50055 0.80825 0.0
H589 H 0.91817 0.49762 0.03119 0.0
H590 H 0.97641 0.4503 0.95299 0.0
H591 H 0.94958 0.46496 0.05221 0.0
H592 H 0.12868 0.02479 0.17172 0.0
H593 H 0.16545 0.0901 0.26092 0.0
H594 H 0.1388 0.08806 0.36798 0.0
H595 H 0.06684 0.04117 0.23772 0.0
H596 H 0.05808 0.00951 0.25702 0.0
H597 H 0.08002 0.01581 0.18636 0.0
H598 H 0.11216 0.98643 0.24676 0.0
H599 H 0.09028 0.98005 0.31748 0.0
H600 H 0.12089 0.99175 0.33935 0.0
H601 H 0.10762 0.07992 0.4653 0.0
H602 H 0.07444 0.0652 0.54696 0.0
H603 H 0.05848 1.00407 0.40043 0.0
C604 C 0.13123 0.0385 0.21407 0.0
C605 C 0.14916 0.05777 0.20707 0.0
C606 C 0.15167 0.07542 0.26392 0.0
C607 C 0.13665 0.07438 0.32539 0.0
C608 C 0.119 0.05549 0.33023 0.0
C609 C 0.11617 0.03781 0.2763 0.0
C610 C 0.09538 0.01973 0.29525 0.0
C611 C 0.07381 0.02167 0.24083 0.0
C612 C 0.10528 0.99289 0.3 0.0
C613 C 0.08754 0.02962 0.36875 0.0
C614 C 0.10121 0.05051 0.38731 0.0
C615 C 0.09686 0.06353 0.45135 0.0
C616 C 0.07798 0.05509 0.4974 0.0
C617 C 0.06384 0.03367 0.47991 0.0
C618 C 0.06891 0.02061 0.41504 0.0
H619 H 0.46964 0.11545 0.15747 0.0
H620 H 0.46395 0.18417 0.28062 0.0
H621 H 0.47076 0.16085 0.39286 0.0
H622 H 0.44061 0.07422 0.28326 0.0
H623 H 0.46186 0.04874 0.26959 0.0
H624 H 0.45602 0.07059 0.19814 0.0
H625 H 0.50337 0.07936 0.19056 0.0
H626 H 0.50913 0.05774 0.26255 0.0
H627 H 0.52002 0.08943 0.26998 0.0
H628 H 0.47439 0.13067 0.49093 0.0
H629 H 0.48072 0.09546 0.57178 0.0
H630 H 0.48959 0.0456 0.38933 0.0
C631 C 0.47011 0.12546 0.20822 0.0
C632 C 0.46645 0.15163 0.21079 0.0
C633 C 0.46703 0.16421 0.27779 0.0
C634 C 0.4707 0.15111 0.34171 0.0
C635 C 0.47415 0.12541 0.33776 0.0
C636 C 0.47442 0.11264 0.27297 0.0
C637 C 0.47978 0.08505 0.28499 0.0
C638 C 0.45829 0.06868 0.25726 0.0
C639 C 0.50456 0.07745 0.24995 0.0
C640 C 0.48163 0.08436 0.36665 0.0
C641 C 0.47815 0.10792 0.39539 0.0
C642 C 0.47789 0.11225 0.46907 0.0
C643 C 0.48193 0.09212 0.51485 0.0
C644 C 0.48696 0.06795 0.48756 0.0
C645 C 0.48622 0.06392 0.4121 0.0
H646 H 0.37766 0.45001 0.28332 0.0
H647 H 0.38079 0.51677 0.15281 0.0
H648 H 0.41201 0.53463 0.23535 0.0
H649 H 0.38367 0.48049 0.45449 0.0
H650 H 0.404 0.45789 0.49583 0.0
H651 H 0.38233 0.44833 0.4266 0.0
H652 H 0.41753 0.42982 0.34939 0.0
H653 H 0.43957 0.43801 0.41895 0.0
H654 H 0.44426 0.44867 0.32835 0.0
H655 H 0.44395 0.54477 0.32479 0.0
H656 H 0.47481 0.54782 0.42207 0.0
H657 H 0.45095 0.4764 0.50477 0.0
C658 C 0.38499 0.46836 0.27211 0.0
C659 C 0.37643 0.48212 0.2115 0.0
C660 C 0.38653 0.50606 0.19917 0.0
C661 C 0.40443 0.51632 0.24564 0.0
C662 C 0.41218 0.50255 0.30491 0.0
C663 C 0.40293 0.47909 0.3187 0.0
C664 C 0.41483 0.46857 0.38695 0.0
C665 C 0.39504 0.46352 0.44443 0.0
C666 C 0.42994 0.44486 0.36987 0.0
C667 C 0.43192 0.49001 0.40931 0.0
C668 C 0.43015 0.50915 0.3601 0.0
C669 C 0.44517 0.53017 0.36451 0.0
C670 C 0.46266 0.53177 0.42018 0.0
C671 C 0.46463 0.51297 0.47284 0.0
C672 C 0.44903 0.49166 0.46731 0.0
H673 H 0.01456 0.37315 0.23663 0.0
H674 H 0.09404 0.38901 0.22323 0.0
H675 H 0.0905 0.41764 0.3236 0.0
H676 H 0.99888 0.43894 0.26519 0.0
H677 H 0.97305 0.43211 0.32341 0.0
H678 H 0.98186 0.41019 0.2542 0.0
H679 H 0.98759 0.37503 0.34976 0.0
H680 H 0.97717 0.39719 0.4156 0.0
H681 H 0.00651 0.38137 0.42817 0.0
H682 H 0.07948 0.44447 0.43029 0.0
H683 H 0.05978 0.47285 0.51884 0.0
H684 H 0.98702 0.4479 0.44769 0.0
C685 C 0.03136 0.3826 0.25357 0.0
C686 C 0.05492 0.37672 0.22248 0.0
C687 C 0.0759 0.39076 0.24741 0.0
C688 C 0.07414 0.40787 0.30451 0.0
C689 C 0.05103 0.41234 0.33503 0.0
C690 C 0.02984 0.40091 0.30864 0.0
C691 C 0.00696 0.41093 0.34736 0.0
C692 C 0.98914 0.42381 0.29436 0.0
C693 C 0.99382 0.38986 0.38771 0.0
C694 C 0.01872 0.42967 0.39944 0.0
C695 C 0.0443 0.4296 0.39263 0.0
C696 C 0.05942 0.44469 0.436 0.0
C697 C 0.04809 0.46061 0.4867 0.0
C698 C 0.02182 0.46198 0.49254 0.0
C699 C 0.00705 0.44645 0.44739 0.0
H700 H 0.87334 0.95251 0.0324 0.0
H701 H 0.88005 0.02719 0.12436 0.0
H702 H 0.90851 0.03847 0.0291 0.0
H703 H 0.94155 0.94894 0.99259 0.0
H704 H 0.93656 0.93058 0.91216 0.0
H705 H 0.91521 0.92818 0.98624 0.0
H706 H 0.87917 0.93864 0.89801 0.0
H707 H 0.90099 0.94178 0.82524 0.0
H708 H 0.88032 0.96717 0.84741 0.0
H709 H 0.93035 0.04445 0.91406 0.0
H710 H 0.95668 0.04143 0.80675 0.0
H711 H 0.94787 0.96106 0.80406 0.0
C712 C 0.88093 0.97116 0.03379 0.0
C713 C 0.87254 0.98927 0.08513 0.0
C714 C 0.88398 0.0132 0.08396 0.0
C715 C 0.90074 0.01987 0.03012 0.0
C716 C 0.90743 1.00215 0.97905 0.0
C717 C 0.89898 0.97793 0.98207 0.0
C718 C 0.91135 0.96228 0.92305 0.0
C719 C 0.92712 0.94125 0.95558 0.0
C720 C 0.89178 0.95185 0.87032 0.0
C721 C 0.92776 0.98172 0.88668 0.0
C722 C 0.92422 1.00473 0.91882 0.0
C723 C 0.93435 0.02637 0.89056 0.0
C724 C 0.9494 0.02444 0.82967 0.0
C725 C 0.95572 1.00093 0.79988 0.0
C726 C 0.94432 0.97918 0.82789 0.0
H727 H 0.53941 0.91159 0.12648 0.0
H728 H 0.56902 0.84667 0.01623 0.0
H729 H 0.56627 0.86894 0.90029 0.0
H730 H 0.4963 0.93049 0.99526 0.0
H731 H 0.50182 0.96348 1.00502 0.0
H732 H 0.50724 0.94304 0.07986 0.0
H733 H 0.55279 0.95889 0.0904 0.0
H734 H 0.54729 0.97958 0.016 0.0
H735 H 0.5727 0.95761 0.01262 0.0
H736 H 0.55647 0.89706 0.79472 0.0
H737 H 0.54469 0.93037 0.70993 0.0
H738 H 0.52431 0.97809 0.88948 0.0
C739 C 0.54582 0.90233 0.07805 0.0
C740 C 0.55472 0.8775 0.08036 0.0
C741 C 0.56262 0.86583 0.0158 0.0
C742 C 0.56093 0.87827 0.94966 0.0
C743 C 0.55174 0.9026 0.94899 0.0
C744 C 0.54484 0.91473 0.0117 0.0
C745 C 0.53579 0.94098 0.99609 0.0
C746 C 0.50868 0.9447 0.02051 0.0
C747 C 0.55318 0.96042 0.03086 0.0
C748 C 0.53783 0.9414 0.91479 0.0
C749 C 0.54698 0.91906 0.88856 0.0
C750 C 0.54947 0.91469 0.81488 0.0
C751 C 0.54246 0.93363 0.76697 0.0
C752 C 0.53311 0.95673 0.79265 0.0
C753 C 0.53123 0.96067 0.86777 0.0
H754 H 0.62543 0.56978 0.0266 0.0
H755 H 0.64677 0.49247 0.0623 0.0
H756 H 0.6178 0.47911 0.9687 0.0
H757 H 0.56143 0.55905 0.98575 0.0
H758 H 0.55936 0.58084 0.91269 0.0
H759 H 0.5816 0.58589 0.98409 0.0
H760 H 0.61716 0.58806 0.89236 0.0
H761 H 0.59501 0.58352 0.82033 0.0
H762 H 0.62138 0.56286 0.82883 0.0
H763 H 0.58155 0.47305 0.88667 0.0
H764 H 0.545 0.47573 0.80624 0.0
H765 H 0.55282 0.55561 0.79764 0.0
C766 C 0.62432 0.55005 0.01466 0.0
C767 C 0.63807 0.53229 0.05571 0.0
C768 C 0.63577 0.50669 0.03613 0.0
C769 C 0.61953 0.49875 0.98152 0.0
C770 C 0.60604 0.5165 0.94378 0.0
C771 C 0.60858 0.54166 0.95811 0.0
C772 C 0.59185 0.55658 0.90764 0.0
C773 C 0.57239 0.57147 0.95028 0.0
C774 C 0.60729 0.57377 0.85942 0.0
C775 C 0.57948 0.53582 0.86393 0.0
C776 C 0.5877 0.51283 0.88695 0.0
C777 C 0.57614 0.49084 0.86438 0.0
C778 C 0.5558 0.49237 0.81683 0.0
C779 C 0.5482 0.51539 0.78772 0.0
C780 C 0.55992 0.5375 0.81315 0.0
H781 H 0.96149 0.65323 0.98382 0.0
H782 H 0.0124 0.62082 0.13933 0.0
H783 H 0.02081 0.58603 0.05614 0.0
H784 H 0.93627 0.5928 0.91597 0.0
H785 H 0.93402 0.60355 0.82466 0.0
H786 H 0.93108 0.62542 0.89816 0.0
H787 H 0.96675 0.65147 0.84224 0.0
H788 H 0.97048 0.62896 0.77066 0.0
H789 H 0.99664 0.63706 0.82726 0.0
H790 H 0.0256 0.5554 0.95582 0.0
H791 H 0.02327 0.52863 0.8473 0.0
H792 H 0.96879 0.5787 0.75403 0.0
C793 C 0.97402 0.63855 1.00082 0.0
C794 C 0.98641 0.64004 0.06863 0.0
C795 C 1.00288 0.62045 0.08787 0.0
C796 C 0.00781 0.60051 0.04081 0.0
C797 C 0.99604 0.59997 0.97397 0.0
C798 C 0.97917 0.61819 0.95402 0.0
C799 C 0.96927 0.61275 0.87832 0.0
C800 C 0.94098 0.60838 0.87937 0.0
C801 C 0.97619 0.63382 0.82654 0.0
C802 C 0.98324 0.58878 0.85947 0.0
C803 C 0.99872 0.58195 0.91549 0.0
C804 C 0.01358 0.56061 0.91155 0.0
C805 C 0.01231 0.54559 0.84944 0.0
C806 C 0.99643 0.55191 0.79144 0.0
C807 C 0.98157 0.57376 0.79686 0.0
H808 H 0.07924 0.18425 0.18608 0.0
H809 H 0.09245 0.23931 0.35274 0.0
H810 H 0.07668 0.21021 0.44368 0.0
H811 H 0.02418 0.17027 0.23468 0.0
H812 H 0.02394 0.13723 0.21633 0.0
H813 H 0.04504 0.15697 0.16898 0.0
H814 H 0.08277 0.13078 0.21205 0.0
H815 H 0.06168 0.11026 0.25816 0.0
H816 H 0.087 0.1248 0.30658 0.0
H817 H 0.04821 0.18295 0.50606 0.0
H818 H 0.01178 0.15728 0.53812 0.0
H819 H 0.01618 0.11903 0.33303 0.0
C820 C 0.08044 0.1893 0.24248 0.0
C821 C 0.08747 0.21355 0.26334 0.0
C822 C 0.08761 0.22047 0.33669 0.0
C823 C 0.07867 0.20406 0.38848 0.0
C824 C 0.06986 0.18087 0.36572 0.0
C825 C 0.07116 0.1732 0.2945 0.0
C826 C 0.05588 0.1499 0.28131 0.0
C827 C 0.0361 0.15387 0.22191 0.0
C828 C 0.07285 0.12761 0.26351 0.0
C829 C 0.04407 0.14702 0.35441 0.0
C830 C 0.05291 0.16465 0.40287 0.0
C831 C 0.04188 0.16837 0.46989 0.0
C832 C 0.02116 0.15394 0.48753 0.0
C833 C 0.01186 0.13616 0.43826 0.0
C834 C 0.02373 0.13214 0.37194 0.0
H835 H 0.33061 0.08342 0.21124 0.0
H836 H 0.26743 0.06602 0.34542 0.0
H837 H 0.29568 0.0493 0.43815 0.0
H838 H 0.36003 0.03125 0.22925 0.0
H839 H 0.3916 0.0427 0.23298 0.0
H840 H 0.36793 0.06076 0.18951 0.0
H841 H 0.3787 0.09804 0.2711 0.0
H842 H 0.40169 0.08043 0.32033 0.0
H843 H 0.37662 0.09529 0.36749 0.0
H844 H 0.32751 0.02417 0.49562 0.0
H845 H 0.36116 0.99365 0.51649 0.0
H846 H 0.40481 0.02728 0.3481 0.0
C847 C 0.32302 0.07753 0.26224 0.0
C848 C 0.29713 0.07635 0.27257 0.0
C849 C 0.28738 0.06744 0.33792 0.0
C850 C 0.30328 0.05794 0.39068 0.0
C851 C 0.32879 0.05781 0.37721 0.0
C852 C 0.33867 0.06772 0.31499 0.0
C853 C 0.36601 0.06153 0.30773 0.0
C854 C 0.37168 0.04826 0.23568 0.0
C855 C 0.38168 0.08524 0.31712 0.0
C856 C 0.36928 0.04432 0.37118 0.0
C857 C 0.3478 0.04317 0.41205 0.0
C858 C 0.34479 0.02563 0.46625 0.0
C859 C 0.36386 0.00835 0.47764 0.0
C860 C 0.38548 0.00881 0.43489 0.0
C861 C 0.38868 0.02744 0.38295 0.0
H862 H 0.437 0.31085 0.29896 0.0
H863 H 0.43932 0.32714 0.0707 0.0
H864 H 0.46966 0.36048 0.09365 0.0
H865 H 0.44527 0.37671 0.36173 0.0
H866 H 0.46435 0.36724 0.43676 0.0
H867 H 0.44022 0.34688 0.40325 0.0
H868 H 0.47289 0.31166 0.38658 0.0
H869 H 0.49715 0.33205 0.41875 0.0
H870 H 0.49994 0.31723 0.33186 0.0
H871 H 0.50371 0.38758 0.13768 0.0
H872 H 0.53555 0.41185 0.20452 0.0
H873 H 0.51107 0.3785 0.40387 0.0
C874 C 0.44328 0.32204 0.25434 0.0
C875 C 0.43548 0.31674 0.18339 0.0
C876 C 0.44446 0.33137 0.12583 0.0
C877 C 0.46195 0.35016 0.13812 0.0
C878 C 0.47005 0.35421 0.20825 0.0
C879 C 0.46067 0.341 0.26569 0.0
C880 C 0.47339 0.34838 0.3353 0.0
C881 C 0.4547 0.36054 0.38732 0.0
C882 C 0.48662 0.32599 0.37011 0.0
C883 C 0.49194 0.36712 0.30733 0.0
C884 C 0.48971 0.37016 0.23392 0.0
C885 C 0.50553 0.38564 0.19534 0.0
C886 C 0.52374 0.39899 0.2333 0.0
C887 C 0.52578 0.39668 0.30866 0.0
C888 C 0.50986 0.38038 0.34598 0.0
H889 H 0.23477 0.46676 0.25155 0.0
H890 H 0.19359 0.39833 0.21346 0.0
H891 H 0.15565 0.41841 0.26275 0.0
H892 H 0.20234 0.48673 0.41809 0.0
H893 H 0.20357 0.519 0.39193 0.0
H894 H 0.22795 0.49785 0.36477 0.0
H895 H 0.22025 0.51002 0.23168 0.0
H896 H 0.1955 0.53072 0.25811 0.0
H897 H 0.18955 0.50627 0.19337 0.0
H898 H 0.12188 0.44746 0.30282 0.0
H899 H 0.09454 0.48273 0.33695 0.0
H900 H 0.15874 0.53174 0.34557 0.0
C901 C 0.21814 0.45551 0.25669 0.0
C902 C 0.21717 0.43079 0.2305 0.0
C903 C 0.19468 0.41718 0.23447 0.0
C904 C 0.17314 0.42842 0.26217 0.0
C905 C 0.17464 0.45316 0.28527 0.0
C906 C 0.19664 0.46644 0.2834 0.0
C907 C 0.19302 0.49338 0.30483 0.0
C908 C 0.20758 0.4996 0.37404 0.0
C909 C 0.19999 0.51112 0.24332 0.0
C910 C 0.16538 0.49337 0.3177 0.0
C911 C 0.15511 0.47001 0.30676 0.0
C912 C 0.12968 0.46572 0.31281 0.0
C913 C 0.1144 0.48582 0.33176 0.0
C914 C 0.12474 0.5098 0.34354 0.0
C915 C 0.15046 0.5136 0.33614 0.0
H916 H 0.9628 0.79289 0.95043 0.0
H917 H 0.93705 0.84465 0.11271 0.0
H918 H 0.94612 0.87986 0.03246 0.0
H919 H 0.01368 0.82096 0.92861 0.0
H920 H 0.01851 0.81575 0.83387 0.0
H921 H 0.99946 0.7947 0.8834 0.0
H922 H 0.96104 0.80251 0.79952 0.0
H923 H 0.98153 0.82133 0.74642 0.0
H924 H 0.95243 0.83413 0.77803 0.0
H925 H 0.97148 0.90772 0.96018 0.0
H926 H 0.00624 0.92665 0.89442 0.0
H927 H 0.019 0.85649 0.78336 0.0
C928 C 0.95727 0.81157 0.96622 0.0
C929 C 0.9488 0.81633 0.03619 0.0
C930 C 0.94297 0.84089 0.05807 0.0
C931 C 0.94825 0.86093 0.01292 0.0
C932 C 0.95948 0.85587 0.94686 0.0
C933 C 0.96356 0.83165 0.92302 0.0
C934 C 0.9815 0.8308 0.86074 0.0
C935 C 1.00461 0.81463 0.8778 0.0
C936 C 0.9683 0.82171 0.79206 0.0
C937 C 0.98821 0.85801 0.85632 0.0
C938 C 0.97488 0.87231 0.90494 0.0
C939 C 0.98095 0.89714 0.91884 0.0
C940 C 1.00096 0.90764 0.88179 0.0
C941 C 0.01513 0.89304 0.83311 0.0
C942 C 0.00831 0.86812 0.8197 0.0
H943 H 0.71049 0.98592 0.0696 0.0
H944 H 0.70251 0.91575 0.95526 0.0
H945 H 0.67169 0.93557 0.87247 0.0
H946 H 0.64614 1.00475 0.05855 0.0
H947 H 0.65369 0.03725 0.04811 0.0
H948 H 0.67425 0.01718 0.09818 0.0
H949 H 0.7111 0.02941 0.01588 0.0
H950 H 0.69078 0.04969 0.96597 0.0
H951 H 0.70803 0.02562 0.91983 0.0
H952 H 0.64157 0.96394 0.80439 0.0
H953 H 0.6179 0.99888 0.74919 0.0
H954 H 0.64749 0.04946 0.91085 0.0
C955 C 0.70212 0.97473 0.02713 0.0
C956 C 0.7084 0.94945 0.01811 0.0
C957 C 0.69757 0.93519 0.96228 0.0
C958 C 0.68011 0.94626 0.91571 0.0
C959 C 0.67405 0.97136 0.9267 0.0
C960 C 0.6849 0.98536 0.981 0.0
C961 C 0.67604 0.01201 0.98127 0.0
C962 C 0.66168 0.01814 0.05063 0.0
C963 C 0.69779 0.03024 0.97002 0.0
C964 C 0.65893 0.01119 0.91711 0.0
C965 C 0.65756 0.98757 0.88692 0.0
C966 C 0.64266 0.98254 0.82707 0.0
C967 C 0.62933 1.00235 0.79636 0.0
C968 C 0.63147 0.02674 0.82532 0.0
C969 C 0.64605 0.03103 0.88702 0.0
H970 H 0.56548 0.69427 0.11632 0.0
H971 H 0.55221 0.74223 0.9347 0.0
H972 H 0.54949 0.70542 0.85459 0.0
H973 H 0.5938 0.63592 0.01028 0.0
H974 H 0.57699 0.61697 0.07355 0.0
H975 H 0.59027 0.64618 0.10226 0.0
H976 H 0.54579 0.65761 0.14949 0.0
H977 H 0.53295 0.62944 0.11387 0.0
H978 H 0.52029 0.65901 0.08608 0.0
H979 H 0.53256 0.66707 0.80855 0.0
H980 H 0.50506 0.63056 0.79745 0.0
H981 H 0.52849 0.60601 0.00848 0.0
C982 C 0.56361 0.69675 0.05877 0.0
C983 C 0.55933 0.72052 0.03046 0.0
C984 C 0.55595 0.72386 0.95611 0.0
C985 C 0.55447 0.70306 0.91057 0.0
C986 C 0.55652 0.67938 0.94092 0.0
C987 C 0.56151 0.67615 0.01352 0.0
C988 C 0.55647 0.64978 0.03716 0.0
C989 C 0.58085 0.63641 0.0568 0.0
C990 C 0.53776 0.64897 0.10019 0.0
C991 C 0.54538 0.63937 0.96871 0.0
C992 C 0.54643 0.65634 0.91299 0.0
C993 C 0.53278 0.65296 0.84977 0.0
C994 C 0.51705 0.63227 0.84423 0.0
C995 C 0.51484 0.61563 0.90244 0.0
C996 C 0.5301 0.61855 0.96339 0.0
H997 H 0.83031 0.58483 0.086 0.0
H998 H 0.78184 0.55848 0.91629 0.0
H999 H 0.81807 0.55152 0.83797 0.0
H1000 H 0.88665 0.60678 0.95884 0.0
H1001 H 0.90787 0.59532 0.02643 0.0
H1002 H 0.87913 0.61017 0.05279 0.0
H1003 H 0.86847 0.57108 0.12792 0.0
H1004 H 0.8964 0.55593 0.0998 0.0
H1005 H 0.86677 0.54107 0.08364 0.0
H1006 H 0.8562 0.53145 0.80257 0.0
H1007 H 0.89277 0.50378 0.80849 0.0
H1008 H 0.91865 0.54279 0.99906 0.0
C1009 C 0.82754 0.57944 0.03031 0.0
C1010 C 0.80376 0.57251 1.00589 0.0
C1011 C 0.80012 0.5644 0.93449 0.0
C1012 C 0.82064 0.56039 0.8899 0.0
C1013 C 0.84443 0.56483 0.91788 0.0
C1014 C 0.84797 0.57498 0.98606 0.0
C1015 C 0.87471 0.57225 0.01087 0.0
C1016 C 0.88787 0.59765 0.01225 0.0
C1017 C 0.87665 0.55929 0.08475 0.0
C1018 C 0.88468 0.55604 0.95101 0.0
C1019 C 0.86736 0.55286 0.89627 0.0
C1020 C 0.87043 0.53472 0.84289 0.0
C1021 C 0.89114 0.51893 0.847 0.0
C1022 C 0.90822 0.52126 0.90474 0.0
C1023 C 0.90567 0.54084 0.95464 0.0
H1024 H 0.0652 0.17342 0.89175 0.0
H1025 H 0.01082 0.21752 0.77581 0.0
H1026 H 0.9989 0.18033 0.704 0.0
H1027 H 0.08321 0.13199 0.7394 0.0
H1028 H 0.08574 0.10463 0.79468 0.0
H1029 H 0.092 0.135 0.83276 0.0
H1030 H 0.05837 0.12836 0.93166 0.0
H1031 H 0.05422 0.09769 0.895 0.0
H1032 H 0.0277 0.11803 0.90472 0.0
H1033 H 0.99106 0.13831 0.64957 0.0
H1034 H 0.98522 0.09402 0.62215 0.0
H1035 H 0.04435 0.07552 0.77162 0.0
C1036 C 0.05086 0.17515 0.85093 0.0
C1037 C 0.03873 0.19837 0.83951 0.0
C1038 C 0.02011 0.19993 0.7858 0.0
C1039 C 0.01338 0.17892 0.74443 0.0
C1040 C 0.02542 0.15627 0.75722 0.0
C1041 C 0.04373 0.15415 0.80926 0.0
C1042 C 0.05241 0.12712 0.81501 0.0
C1043 C 0.07999 0.12455 0.79422 0.0
C1044 C 0.04784 0.11723 0.89114 0.0
C1045 C 0.03561 0.1143 0.75952 0.0
C1046 C 0.02059 0.13169 0.72614 0.0
C1047 C 1.00292 0.12461 0.67508 0.0
C1048 C 0.99984 0.09916 0.65949 0.0
C1049 C 0.01422 0.08047 0.69428 0.0
C1050 C 0.03291 0.08855 0.74363 0.0
H1051 H 0.3404 0.02638 0.90211 0.0
H1052 H 0.31349 0.0702 0.72158 0.0
H1053 H 0.35456 0.06711 0.66566 0.0
H1054 H 0.40515 0.04786 0.90347 0.0
H1055 H 0.41565 0.01684 0.92564 0.0
H1056 H 0.38521 0.02704 0.95251 0.0
H1057 H 0.36842 0.98696 0.88661 0.0
H1058 H 0.3993 0.97913 0.85651 0.0
H1059 H 0.37448 0.98298 0.79189 0.0
H1060 H 0.40027 0.06084 0.63048 0.0
H1061 H 0.44302 0.04502 0.60901 0.0
H1062 H 0.43721 0.99861 0.79783 0.0
C1063 C 0.34271 0.03518 0.85049 0.0
C1064 C 0.32313 0.04925 0.81849 0.0
C1065 C 0.32789 0.06027 0.75036 0.0
C1066 C 0.35136 0.05846 0.71721 0.0
C1067 C 0.37016 0.04498 0.75118 0.0
C1068 C 0.36585 0.03294 0.81531 0.0
C1069 C 0.3886 0.01797 0.83787 0.0
C1070 C 0.39929 0.02809 0.90905 0.0
C1071 C 0.38231 0.9901 0.84349 0.0
C1072 C 0.40617 0.02303 0.77572 0.0
C1073 C 0.39553 0.03945 0.72759 0.0
C1074 C 0.40867 0.04786 0.66776 0.0
C1075 C 0.43305 0.03891 0.65622 0.0
C1076 C 0.44382 0.02102 0.70268 0.0
C1077 C 0.42995 0.01288 0.76272 0.0
H1078 H 0.44918 0.34451 0.92398 0.0
H1079 H 0.47798 0.29832 0.75084 0.0
H1080 H 0.48891 0.33607 0.68284 0.0
H1081 H 0.4225 0.39248 0.80301 0.0
H1082 H 0.42953 0.4179 0.86355 0.0
H1083 H 0.42324 0.38731 0.89868 0.0
H1084 H 0.46557 0.38797 0.96611 0.0
H1085 H 0.47196 0.41849 0.93096 0.0
H1086 H 0.49379 0.39341 0.9164 0.0
H1087 H 0.4988 0.37789 0.63629 0.0
H1088 H 0.50564 0.42199 0.60964 0.0
H1089 H 0.46938 0.44301 0.80947 0.0
C1090 C 0.45784 0.34245 0.87178 0.0
C1091 C 0.46295 0.31842 0.84278 0.0
C1092 C 0.47391 0.31646 0.77394 0.0
C1093 C 0.48018 0.3378 0.73497 0.0
C1094 C 0.47501 0.36113 0.76488 0.0
C1095 C 0.46381 0.36371 0.83121 0.0
C1096 C 0.46008 0.39121 0.84975 0.0
C1097 C 0.43218 0.39759 0.85401 0.0
C1098 C 0.47367 0.39817 0.91997 0.0
C1099 C 0.47201 0.40356 0.78497 0.0
C1100 C 0.48024 0.38569 0.73667 0.0
C1101 C 0.49235 0.39206 0.67353 0.0
C1102 C 0.4963 0.4173 0.65917 0.0
C1103 C 0.4882 0.43621 0.70743 0.0
C1104 C 0.47562 0.42915 0.77106 0.0
H1105 H 0.20503 0.48765 0.77121 0.0
H1106 H 0.18714 0.44702 0.96497 0.0
H1107 H 0.14254 0.44825 0.93263 0.0
H1108 H 0.15167 0.52854 0.77782 0.0
H1109 H 0.14632 0.52906 0.6821 0.0
H1110 H 0.1773 0.52391 0.7168 0.0
H1111 H 0.18033 0.48272 0.64415 0.0
H1112 H 0.14941 0.48785 0.60893 0.0
H1113 H 0.15665 0.45924 0.65487 0.0
H1114 H 0.10023 0.45733 0.88846 0.0
H1115 H 0.06185 0.47097 0.83022 0.0
H1116 H 0.10443 0.50333 0.65651 0.0
C1117 C 0.19163 0.47892 0.80631 0.0
C1118 C 0.19954 0.4674 0.87121 0.0
C1119 C 0.18149 0.45619 0.91576 0.0
C1120 C 0.15612 0.45673 0.89764 0.0
C1121 C 0.1488 0.46864 0.8346 0.0
C1122 C 0.16589 0.47946 0.78912 0.0
C1123 C 0.15243 0.49173 0.72589 0.0
C1124 C 0.15722 0.51999 0.72564 0.0
C1125 C 0.16017 0.47966 0.6542 0.0
C1126 C 0.12523 0.48608 0.74335 0.0
C1127 C 0.12384 0.47286 0.80666 0.0
C1128 C 0.10109 0.46694 0.83755 0.0
C1129 C 0.07914 0.47441 0.80291 0.0
C1130 C 0.07955 0.48692 0.73601 0.0
C1131 C 0.10318 0.49312 0.70638 0.0
H1132 H 0.96767 0.82369 0.53657 0.0
H1133 H 0.98686 0.83701 0.31406 0.0
H1134 H 0.99564 0.88123 0.34315 0.0
H1135 H 0.93578 0.88264 0.56856 0.0
H1136 H 0.94768 0.88661 0.65875 0.0
H1137 H 0.94374 0.85574 0.62174 0.0
H1138 H 0.99029 0.8461 0.64767 0.0
H1139 H 0.99379 0.87715 0.68451 0.0
H1140 H 0.01392 0.86656 0.61348 0.0
H1141 H 0.01017 0.92168 0.40241 0.0
H1142 H 0.01787 0.95869 0.47875 0.0
H1143 H 0.97944 0.92405 0.65475 0.0
C1144 C 0.97348 0.83603 0.49401 0.0
C1145 C 0.97666 0.82683 0.42279 0.0
C1146 C 0.98434 0.8436 0.36876 0.0
C1147 C 0.98948 0.86874 0.38489 0.0
C1148 C 0.98645 0.87723 0.45538 0.0
C1149 C 0.97803 0.8616 0.5088 0.0
C1150 C 0.97587 0.87595 0.57961 0.0
C1151 C 0.94916 0.87519 0.60885 0.0
C1152 C 0.99459 0.86577 0.63465 0.0
C1153 C 0.9833 0.90217 0.55692 0.0
C1154 C 0.99059 0.90207 0.48586 0.0
C1155 C 1.0027 0.92255 0.45631 0.0
C1156 C 0.00633 0.94397 0.49923 0.0
C1157 C 0.99615 0.94592 0.56901 0.0
C1158 C 0.98537 0.92414 0.59917 0.0
H1159 H 0.68823 0.95632 0.51516 0.0
H1160 H 0.69181 0.02158 0.37832 0.0
H1161 H 0.64931 0.03289 0.41234 0.0
H1162 H 0.62242 0.94232 0.47593 0.0
H1163 H 0.61501 0.93284 0.56611 0.0
H1164 H 0.64614 0.92859 0.53202 0.0
H1165 H 0.66423 0.95377 0.63864 0.0
H1166 H 0.63331 0.95794 0.67394 0.0
H1167 H 0.65268 0.98472 0.65681 0.0
H1168 H 0.60757 0.03919 0.4636 0.0
H1169 H 0.56776 0.03928 0.52947 0.0
H1170 H 0.58812 0.9697 0.63112 0.0
C1171 C 0.68005 0.97294 0.49227 0.0
C1172 C 0.69403 0.98837 0.44531 0.0
C1173 C 0.68224 0.00983 0.41636 0.0
C1174 C 0.65781 0.01634 0.43463 0.0
C1175 C 0.64482 1.00114 0.48153 0.0
C1176 C 0.65531 0.9798 0.50993 0.0
C1177 C 0.63684 0.9672 0.5602 0.0
C1178 C 0.62968 0.94119 0.53187 0.0
C1179 C 0.6474 0.96584 0.63699 0.0
C1180 C 0.61474 0.98508 0.55606 0.0
C1181 C 0.61987 1.00441 0.50983 0.0
C1182 C 0.60309 0.02389 0.49884 0.0
C1183 C 0.58043 0.02371 0.53598 0.0
C1184 C 0.57434 1.00393 0.58244 0.0
C1185 C 0.59192 0.98452 0.59349 0.0
H1186 H 0.56021 0.70086 0.54512 0.0
H1187 H 0.53724 0.68967 0.32345 0.0
H1188 H 0.5271 0.64578 0.34939 0.0
H1189 H 0.58906 0.63831 0.56267 0.0
H1190 H 0.57983 0.63467 0.65506 0.0
H1191 H 0.58567 0.66535 0.61991 0.0
H1192 H 0.54179 0.67905 0.66044 0.0
H1193 H 0.53522 0.64817 0.69294 0.0
H1194 H 0.51483 0.6623 0.62781 0.0
H1195 H 0.51773 0.60385 0.39903 0.0
H1196 H 0.51134 0.56552 0.46869 0.0
H1197 H 0.54164 0.60153 0.65882 0.0
C1198 C 0.55323 0.68903 0.50217 0.0
C1199 C 0.54963 0.69864 0.43196 0.0
C1200 C 0.54039 0.68263 0.37721 0.0
C1201 C 0.53451 0.65769 0.39154 0.0
C1202 C 0.53828 0.64871 0.46087 0.0
C1203 C 0.54771 0.66369 0.51527 0.0
C1204 C 0.55033 0.64885 0.58456 0.0
C1205 C 0.57786 0.64668 0.60688 0.0
C1206 C 0.53459 0.66035 0.64501 0.0
C1207 C 0.54004 0.6236 0.56128 0.0
C1208 C 0.53338 0.62403 0.4894 0.0
C1209 C 0.52305 0.60329 0.45519 0.0
C1210 C 0.51942 0.58156 0.49524 0.0
C1211 C 0.52602 0.58049 0.56883 0.0
C1212 C 0.53655 0.60181 0.60242 0.0
H1213 H 0.81511 0.55742 0.53022 0.0
H1214 H 0.83079 0.54843 0.30295 0.0
H1215 H 0.8749 0.5399 0.33116 0.0
H1216 H 0.87604 0.58862 0.56986 0.0
H1217 H 0.879 0.57493 0.65769 0.0
H1218 H 0.84854 0.58117 0.62057 0.0
H1219 H 0.83665 0.5351 0.63947 0.0
H1220 H 0.86725 0.5283 0.67448 0.0
H1221 H 0.85529 0.51081 0.59888 0.0
H1222 H 0.91701 0.53223 0.38165 0.0
H1223 H 0.95506 0.52442 0.45252 0.0
H1224 H 0.91406 0.53712 0.64983 0.0
C1225 C 0.82794 0.55378 0.48664 0.0
C1226 C 0.81948 0.55377 0.41406 0.0
C1227 C 0.83685 0.54889 0.35861 0.0
C1228 C 0.86197 0.54395 0.37416 0.0
C1229 C 0.86979 0.54423 0.4457 0.0
C1230 C 0.85346 0.54919 0.50128 0.0
C1231 C 0.86732 0.54871 0.57324 0.0
C1232 C 0.86774 0.57491 0.60739 0.0
C1233 C 0.85592 0.52957 0.62453 0.0
C1234 C 0.89343 0.54101 0.54956 0.0
C1235 C 0.89442 0.53932 0.47541 0.0
C1236 C 0.91645 0.53352 0.43971 0.0
C1237 C 0.93803 0.52923 0.48048 0.0
C1238 C 0.9376 0.53018 0.55656 0.0
C1239 C 0.9149 0.5361 0.59172 0.0
loop_
_geom_bond_atom_site_label_1
_geom_bond_atom_site_label_2
_geom_bond_distance
_geom_bond_site_symmetry_2
_ccdc_geom_bond_type
P0 O11 1.490 . S
P0 C14 1.812 . S
P0 C20 1.803 . S
P0 C26 1.819 . S
H1 C15 0.941 . S
H2 C16 0.939 . S
H3 C18 0.940 . S
H4 C19 0.940 . S
H5 C21 0.939 . S
H6 C22 0.942 . S
H7 C24 0.940 . S
H8 C25 0.939 . S
H9 C27 0.941 . S
H10 C31 0.939 . S
O11 P0 1.490 . S
H12 C28 0.939 . S
H13 C30 0.940 . S
C14 P0 1.812 . S
C14 C15 1.389 . S
C14 C19 1.391 . S
C15 H1 0.941 . S
C15 C14 1.389 . S
C15 C16 1.397 . S
C16 H2 0.939 . S
C16 C15 1.397 . S
C16 C17 1.378 . S
C17 C16 1.378 . S
C17 C18 1.378 . S
C18 H3 0.940 . S
C18 C17 1.378 . S
C18 C19 1.396 . S
C19 H4 0.940 . S
C19 C14 1.391 . S
C19 C18 1.396 . S
C20 P0 1.803 . S
C20 C21 1.378 . S
C20 C25 1.400 . S
C21 H5 0.939 . S
C21 C20 1.378 . S
C21 C22 1.361 . S
C22 H6 0.942 . S
C22 C21 1.361 . S
C22 C23 1.369 . S
C23 C22 1.369 . S
C23 C24 1.404 . S
C24 H7 0.940 . S
C24 C23 1.404 . S
C24 C25 1.389 . S
C25 H8 0.939 . S
C25 C20 1.400 . S
C25 C24 1.389 . S
C26 P0 1.819 . S
C26 C27 1.391 . S
C26 C31 1.391 . S
C27 H9 0.941 . S
C27 C26 1.391 . S
C27 C28 1.396 . S
C28 H12 0.939 . S
C28 C27 1.396 . S
C28 C29 1.397 . S
C29 C28 1.397 . S
C29 C30 1.385 . S
C30 H13 0.940 . S
C30 C29 1.385 . S
C30 C31 1.388 . S
C31 H10 0.939 . S
C31 C26 1.391 . S
C31 C30 1.388 . S
P32 O43 1.447 1_655 S
P32 C46 1.812 . S
P32 C52 1.803 . S
P32 C58 1.819 . S
H33 C47 0.941 . S
H34 C48 0.939 . S
H35 C50 0.940 . S
H36 C51 0.940 . S
H37 C53 0.939 . S
H38 C54 0.942 . S
H39 C56 0.940 . S
H40 C57 0.939 . S
H41 C59 0.941 . S
H42 C63 0.939 . S
O43 P32 1.447 1_455 S
H44 C60 0.939 . S
H45 C62 0.940 . S
C46 P32 1.812 . S
C46 C47 1.389 . S
C46 C51 1.391 . S
C47 H33 0.941 . S
C47 C46 1.389 . S
C47 C48 1.397 . S
C48 H34 0.939 . S
C48 C47 1.397 . S
C48 C49 1.378 . S
C49 C48 1.378 . S
C49 C50 1.378 . S
C50 H35 0.940 . S
C50 C49 1.378 . S
C50 C51 1.396 . S
C51 H36 0.940 . S
C51 C46 1.391 . S
C51 C50 1.396 . S
C52 P32 1.803 . S
C52 C53 1.378 . S
C52 C57 1.400 . S
C53 H37 0.939 . S
C53 C52 1.378 . S
C53 C54 1.361 . S
C54 H38 0.942 . S
C54 C53 1.361 . S
C54 C55 1.369 . S
C55 C54 1.369 . S
C55 C56 1.404 . S
C56 H39 0.940 . S
C56 C55 1.404 . S
C56 C57 1.389 . S
C57 H40 0.939 . S
C57 C52 1.400 . S
C57 C56 1.389 . S
C58 P32 1.819 . S
C58 C59 1.391 . S
C58 C63 1.391 . S
C59 H41 0.941 . S
C59 C58 1.391 . S
C59 C60 1.396 . S
C60 H44 0.939 . S
C60 C59 1.396 . S
C60 C61 1.397 . S
C61 C60 1.397 . S
C61 C62 1.385 . S
C62 H45 0.940 . S
C62 C61 1.385 . S
C62 C63 1.388 . S
C63 H42 0.939 . S
C63 C58 1.391 . S
C63 C62 1.388 . S
P64 O75 1.490 1_565 S
P64 C78 1.812 . S
P64 C84 1.803 . S
P64 C90 1.819 . S
H65 C79 0.941 . S
H66 C80 0.939 . S
H67 C82 0.940 . S
H68 C83 0.940 . S
H69 C85 0.939 . S
H70 C86 0.942 . S
H71 C88 0.940 . S
H72 C89 0.939 . S
H73 C91 0.941 . S
H74 C95 0.939 . S
O75 P64 1.490 1_545 S
H76 C92 0.939 . S
H77 C94 0.940 . S
C78 P64 1.812 . S
C78 C79 1.389 . S
C78 C83 1.391 . S
C79 H65 0.941 . S
C79 C78 1.389 . S
C79 C80 1.397 . S
C80 H66 0.939 . S
C80 C79 1.397 . S
C80 C81 1.378 . S
C81 C80 1.378 . S
C81 C82 1.378 . S
C82 H67 0.940 . S
C82 C81 1.378 . S
C82 C83 1.396 . S
C83 H68 0.940 . S
C83 C78 1.391 . S
C83 C82 1.396 . S
C84 P64 1.803 . S
C84 C85 1.378 . S
C84 C89 1.400 . S
C85 H69 0.939 . S
C85 C84 1.378 . S
C85 C86 1.361 . S
C86 H70 0.942 . S
C86 C85 1.361 . S
C86 C87 1.369 . S
C87 C86 1.369 . S
C87 C88 1.404 . S
C88 H71 0.940 . S
C88 C87 1.404 . S
C88 C89 1.389 . S
C89 H72 0.939 . S
C89 C84 1.400 . S
C89 C88 1.389 . S
C90 P64 1.819 . S
C90 C91 1.391 . S
C90 C95 1.391 . S
C91 H73 0.941 . S
C91 C90 1.391 . S
C91 C92 1.396 . S
C92 H76 0.939 . S
C92 C91 1.396 . S
C92 C93 1.397 . S
C93 C92 1.397 . S
C93 C94 1.385 . S
C94 H77 0.940 . S
C94 C93 1.385 . S
C94 C95 1.388 . S
C95 H74 0.939 . S
C95 C90 1.391 . S
C95 C94 1.388 . S
P96 O107 1.490 . S
P96 C110 1.812 . S
P96 C116 1.803 . S
P96 C122 1.819 . S
H97 C111 0.941 . S
H98 C112 0.939 . S
H99 C114 0.940 . S
H100 C115 0.940 . S
H101 C117 0.939 . S
H102 C118 0.942 . S
H103 C120 0.940 . S
H104 C121 0.939 . S
H105 C123 0.941 . S
H106 C127 0.939 . S
O107 P96 1.490 . S
H108 C124 0.939 . S
H109 C126 0.940 . S
C110 P96 1.812 . S
C110 C111 1.389 . S
C110 C115 1.391 . S
C111 H97 0.941 . S
C111 C110 1.389 . S
C111 C112 1.397 . S
C112 H98 0.939 . S
C112 C111 1.397 . S
C112 C113 1.378 . S
C113 C112 1.378 . S
C113 C114 1.378 . S
C114 H99 0.940 . S
C114 C113 1.378 . S
C114 C115 1.396 . S
C115 H100 0.940 . S
C115 C110 1.391 . S
C115 C114 1.396 . S
C116 P96 1.803 . S
C116 C117 1.378 . S
C116 C121 1.400 . S
C117 H101 0.939 . S
C117 C116 1.378 . S
C117 C118 1.361 . S
C118 H102 0.942 . S
C118 C117 1.361 . S
C118 C119 1.369 . S
C119 C118 1.369 . S
C119 C120 1.404 . S
C120 H103 0.940 . S
C120 C119 1.404 . S
C120 C121 1.389 . S
C121 H104 0.939 . S
C121 C116 1.400 . S
C121 C120 1.389 . S
C122 P96 1.819 . S
C122 C123 1.391 . S
C122 C127 1.391 . S
C123 H105 0.941 . S
C123 C122 1.391 . S
C123 C124 1.396 . S
C124 H108 0.939 . S
C124 C123 1.396 . S
C124 C125 1.397 . S
C125 C124 1.397 . S
C125 C126 1.385 . S
C126 H109 0.940 . S
C126 C125 1.385 . S
C126 C127 1.388 . S
C127 H106 0.939 . S
C127 C122 1.391 . S
C127 C126 1.388 . S
P128 O139 1.490 . S
P128 C142 1.812 1_554 S
P128 C148 1.803 . S
P128 C154 1.819 . S
H129 C143 0.941 . S
H130 C144 0.939 . S
H131 C146 0.940 . S
H132 C147 0.940 . S
H133 C149 0.939 . S
H134 C150 0.942 . S
H135 C152 0.940 . S
H136 C153 0.939 1_556 S
H137 C155 0.941 . S
H138 C159 0.939 . S
O139 P128 1.490 . S
H140 C156 0.939 . S
H141 C158 0.940 . S
C142 P128 1.812 1_556 S
C142 C143 1.389 . S
C142 C147 1.391 . S
C143 H129 0.941 . S
C143 C142 1.389 . S
C143 C144 1.397 . S
C144 H130 0.939 . S
C144 C143 1.397 . S
C144 C145 1.378 . S
C145 C144 1.378 . S
C145 C146 1.378 . S
C146 H131 0.940 . S
C146 C145 1.378 . S
C146 C147 1.396 . S
C147 H132 0.940 . S
C147 C142 1.391 . S
C147 C146 1.396 . S
C148 P128 1.803 . S
C148 C149 1.378 . S
C148 C153 1.400 . S
C149 H133 0.939 . S
C149 C148 1.378 . S
C149 C150 1.361 . S
C150 H134 0.942 . S
C150 C149 1.361 . S
C150 C151 1.369 . S
C151 C150 1.369 . S
C151 C152 1.404 . S
C152 H135 0.940 . S
C152 C151 1.404 . S
C152 C153 1.389 . S
C153 H136 0.939 1_554 S
C153 C148 1.400 . S
C153 C152 1.389 . S
C154 P128 1.819 . S
C154 C155 1.391 . S
C154 C159 1.391 . S
C155 H137 0.941 . S
C155 C154 1.391 . S
C155 C156 1.396 . S
C156 H140 0.939 . S
C156 C155 1.396 . S
C156 C157 1.397 . S
C157 C156 1.397 . S
C157 C158 1.385 . S
C158 H141 0.940 . S
C158 C157 1.385 . S
C158 C159 1.388 . S
C159 H138 0.939 . S
C159 C154 1.391 . S
C159 C158 1.388 . S
P160 O171 1.490 . S
P160 C174 1.812 1_554 S
P160 C180 1.803 . S
P160 C186 1.819 . S
H161 C175 0.941 . S
H162 C176 0.939 . S
H163 C178 0.940 . S
H164 C179 0.940 . S
H165 C181 0.939 . S
H166 C182 0.942 . S
H167 C184 0.940 . S
H168 C185 0.939 1_556 S
H169 C187 0.941 . S
H170 C191 0.939 . S
O171 P160 1.490 . S
H172 C188 0.939 . S
H173 C190 0.940 . S
C174 P160 1.812 1_556 S
C174 C175 1.389 . S
C174 C179 1.391 . S
C175 H161 0.941 . S
C175 C174 1.389 . S
C175 C176 1.397 . S
C176 H162 0.939 . S
C176 C175 1.397 . S
C176 C177 1.378 . S
C177 C176 1.378 . S
C177 C178 1.378 . S
C178 H163 0.940 . S
C178 C177 1.378 . S
C178 C179 1.396 . S
C179 H164 0.940 . S
C179 C174 1.391 . S
C179 C178 1.396 . S
C180 P160 1.803 . S
C180 C181 1.378 . S
C180 C185 1.400 . S
C181 H165 0.939 . S
C181 C180 1.378 . S
C181 C182 1.361 . S
C182 H166 0.942 . S
C182 C181 1.361 . S
C182 C183 1.369 . S
C183 C182 1.369 . S
C183 C184 1.404 . S
C184 H167 0.940 . S
C184 C183 1.404 . S
C184 C185 1.389 . S
C185 H168 0.939 1_554 S
C185 C180 1.400 . S
C185 C184 1.389 . S
C186 P160 1.819 . S
C186 C187 1.391 . S
C186 C191 1.391 . S
C187 H169 0.941 . S
C187 C186 1.391 . S
C187 C188 1.396 . S
C188 H172 0.939 . S
C188 C187 1.396 . S
C188 C189 1.397 . S
C189 C188 1.397 . S
C189 C190 1.385 . S
C190 H173 0.940 . S
C190 C189 1.385 . S
C190 C191 1.388 . S
C191 H170 0.939 . S
C191 C186 1.391 . S
C191 C190 1.388 . S
P192 O203 1.490 . S
P192 C206 1.812 1_554 S
P192 C212 1.803 . S
P192 C218 1.819 . S
H193 C207 0.941 . S
H194 C208 0.939 . S
H195 C210 0.940 . S
H196 C211 0.940 . S
H197 C213 0.939 . S
H198 C214 0.942 . S
H199 C216 0.940 . S
H200 C217 0.939 1_556 S
H201 C219 0.941 . S
H202 C223 0.939 . S
O203 P192 1.490 . S
H204 C220 0.939 . S
H205 C222 0.940 . S
C206 P192 1.812 1_556 S
C206 C207 1.389 . S
C206 C211 1.391 . S
C207 H193 0.941 . S
C207 C206 1.389 . S
C207 C208 1.397 . S
C208 H194 0.939 . S
C208 C207 1.397 . S
C208 C209 1.378 . S
C209 C208 1.378 . S
C209 C210 1.378 . S
C210 H195 0.940 . S
C210 C209 1.378 . S
C210 C211 1.396 . S
C211 H196 0.940 . S
C211 C206 1.391 . S
C211 C210 1.396 . S
C212 P192 1.803 . S
C212 C213 1.378 . S
C212 C217 1.400 . S
C213 H197 0.939 . S
C213 C212 1.378 . S
C213 C214 1.361 . S
C214 H198 0.942 . S
C214 C213 1.361 . S
C214 C215 1.369 . S
C215 C214 1.369 . S
C215 C216 1.404 . S
C216 H199 0.940 . S
C216 C215 1.404 . S
C216 C217 1.389 . S
C217 H200 0.939 1_554 S
C217 C212 1.400 . S
C217 C216 1.389 . S
C218 P192 1.819 . S
C218 C219 1.391 . S
C218 C223 1.391 . S
C219 H201 0.941 . S
C219 C218 1.391 . S
C219 C220 1.396 . S
C220 H204 0.939 . S
C220 C219 1.396 . S
C220 C221 1.397 . S
C221 C220 1.397 . S
C221 C222 1.385 . S
C222 H205 0.940 . S
C222 C221 1.385 . S
C222 C223 1.388 . S
C223 H202 0.939 . S
C223 C218 1.391 . S
C223 C222 1.388 . S
P224 O235 1.490 . S
P224 C238 1.812 1_554 S
P224 C244 1.803 . S
P224 C250 1.819 . S
H225 C239 0.941 . S
H226 C240 0.939 . S
H227 C242 0.940 . S
H228 C243 0.940 . S
H229 C245 0.939 . S
H230 C246 0.942 . S
H231 C248 0.940 . S
H232 C249 0.939 1_556 S
H233 C251 0.941 . S
H234 C255 0.939 . S
O235 P224 1.490 . S
H236 C252 0.939 . S
H237 C254 0.940 . S
C238 P224 1.812 1_556 S
C238 C239 1.389 . S
C238 C243 1.391 . S
C239 H225 0.941 . S
C239 C238 1.389 . S
C239 C240 1.397 . S
C240 H226 0.939 . S
C240 C239 1.397 . S
C240 C241 1.378 . S
C241 C240 1.378 . S
C241 C242 1.378 . S
C242 H227 0.940 . S
C242 C241 1.378 . S
C242 C243 1.396 . S
C243 H228 0.940 . S
C243 C238 1.391 . S
C243 C242 1.396 . S
C244 P224 1.803 . S
C244 C245 1.378 . S
C244 C249 1.400 . S
C245 H229 0.939 . S
C245 C244 1.378 . S
C245 C246 1.361 . S
C246 H230 0.942 . S
C246 C245 1.361 . S
C246 C247 1.369 . S
C247 C246 1.369 . S
C247 C248 1.404 . S
C248 H231 0.940 . S
C248 C247 1.404 . S
C248 C249 1.389 . S
C249 H232 0.939 1_554 S
C249 C244 1.400 . S
C249 C248 1.389 . S
C250 P224 1.819 . S
C250 C251 1.391 . S
C250 C255 1.391 . S
C251 H233 0.941 . S
C251 C250 1.391 . S
C251 C252 1.396 . S
C252 H236 0.939 . S
C252 C251 1.396 . S
C252 C253 1.397 . S
C253 C252 1.397 . S
C253 C254 1.385 . S
C254 H237 0.940 . S
C254 C253 1.385 . S
C254 C255 1.388 . S
C255 H234 0.939 . S
C255 C250 1.391 . S
C255 C254 1.388 . S
Eu256 N287 2.657 1_565 S
Eu256 N294 2.609 . S
Eu256 O300 2.558 . S
Eu256 O301 2.612 1_455 S
Eu256 O303 2.339 1_455 S
Eu256 O304 2.563 . S
Eu256 O305 2.419 . S
Eu256 O307 2.380 1_565 S
Eu256 O308 2.432 . S
Eu256 C320 2.848 . S
C257 C260 1.429 1_545 S
C257 C261 1.418 . S
C257 N264 1.377 . S
C258 C260 1.420 . S
C258 C262 1.423 . S
C258 C270 1.392 . S
C259 C261 1.395 1_565 S
C259 C262 1.351 . S
C259 H282 0.931 . S
C260 C257 1.429 1_565 S
C260 C258 1.420 . S
C260 N268 1.362 . S
C261 C257 1.418 . S
C261 C259 1.395 1_545 S
C261 C266 1.414 . S
C262 C258 1.423 . S
C262 C259 1.351 . S
C262 H274 0.930 . S
C263 C265 1.400 . S
C263 C266 1.386 . S
C263 H275 0.930 . S
N264 C257 1.377 . S
N264 C265 1.321 . S
N264 Eu267 2.609 . S
C265 C263 1.400 . S
C265 N264 1.321 . S
C265 H272 0.930 . S
C266 C261 1.414 . S
C266 C263 1.386 . S
C266 H285 0.930 . S
Eu267 N264 2.609 . S
Eu267 N268 2.657 1_545 S
Eu267 O301 2.380 1_545 S
Eu267 O302 2.432 . S
Eu267 O306 2.558 . S
Eu267 O307 2.612 1_655 S
Eu267 O309 2.339 1_655 S
Eu267 O310 2.563 1_655 S
Eu267 O311 2.419 . S
Eu267 C331 2.848 . S
N268 C260 1.362 . S
N268 Eu267 2.657 1_565 S
N268 C269 1.300 1_655 S
C269 N268 1.300 1_455 S
C269 C271 1.411 1_455 S
C269 H276 0.968 . S
C270 C258 1.392 . S
C270 C271 1.403 . S
C270 H278 0.930 . S
C271 C269 1.411 1_655 S
C271 C270 1.403 . S
C271 H273 0.898 1_655 S
H272 C265 0.930 . S
H273 C271 0.898 1_455 S
H274 C262 0.930 . S
H275 C263 0.930 . S
H276 C269 0.968 . S
H277 C291 0.930 1_655 S
H278 C270 0.930 . S
H279 C297 0.930 . S
H280 C288 0.929 1_655 S
H281 C295 0.930 . S
H282 C259 0.931 . S
H283 C289 0.930 . S
H284 C322 0.930 . S
H285 C266 0.930 . S
H286 C321 0.931 . S
N287 Eu256 2.657 1_545 S
N287 C288 1.334 . S
N287 C292 1.362 . S
C288 H280 0.929 1_455 S
C288 N287 1.334 . S
C288 C291 1.413 . S
C289 H283 0.930 . S
C289 C290 1.392 . S
C289 C291 1.367 . S
C290 C289 1.392 . S
C290 C292 1.420 . S
C290 C322 1.423 . S
C291 H277 0.930 1_455 S
C291 C288 1.413 . S
C291 C289 1.367 . S
C292 N287 1.362 . S
C292 C290 1.420 . S
C292 C296 1.429 . S
H293 C298 0.930 . S
N294 Eu256 2.609 . S
N294 C296 1.377 1_565 S
N294 C297 1.321 . S
C295 H281 0.930 . S
C295 C297 1.400 . S
C295 C298 1.381 1_565 S
C296 C292 1.429 . S
C296 N294 1.377 1_545 S
C296 C299 1.411 . S
C297 H279 0.930 . S
C297 N294 1.321 . S
C297 C295 1.400 . S
C298 H293 0.930 . S
C298 C295 1.381 1_545 S
C298 C299 1.400 . S
C299 C296 1.411 . S
C299 C298 1.400 . S
C299 C321 1.420 . S
O300 Eu256 2.558 . S
O300 C320 1.257 . S
O301 Eu256 2.612 1_655 S
O301 Eu267 2.380 1_565 S
O301 C312 1.276 . S
O302 Eu267 2.432 . S
O302 C319 1.264 . S
O303 Eu256 2.339 1_655 S
O303 C319 1.254 1_565 S
O304 Eu256 2.563 . S
O304 C312 1.235 1_455 S
O305 Eu256 2.419 . S
O305 C320 1.249 . S
O306 Eu267 2.558 . S
O306 C331 1.257 . S
O307 Eu256 2.380 1_545 S
O307 Eu267 2.612 1_455 S
O307 C323 1.276 . S
O308 Eu256 2.432 . S
O308 C330 1.264 1_565 S
O309 Eu267 2.339 1_455 S
O309 C330 1.254 . S
O310 Eu267 2.563 1_455 S
O310 C323 1.235 . S
O311 Eu267 2.419 . S
O311 C331 1.249 . S
C312 O301 1.276 . S
C312 O304 1.235 1_655 S
C313 C315 1.393 . S
C313 C317 1.395 . S
C313 C320 1.492 . S
C314 C315 1.392 . S
C314 C316 1.386 . S
C315 C313 1.393 . S
C315 C314 1.392 . S
C315 H332 0.939 . S
C316 C314 1.386 . S
C316 C318 1.395 . S
C316 H333 0.930 . S
C317 C313 1.395 . S
C317 C318 1.379 . S
C317 H334 0.930 . S
C318 C316 1.395 . S
C318 C317 1.379 . S
C318 H335 0.930 . S
C319 O302 1.264 . S
C319 O303 1.254 1_545 S
C320 Eu256 2.848 . S
C320 O300 1.257 . S
C320 O305 1.249 . S
C320 C313 1.492 . S
C321 H286 0.931 . S
C321 C299 1.420 . S
C321 C322 1.351 . S
C322 H284 0.930 . S
C322 C290 1.423 . S
C322 C321 1.351 . S
C323 O307 1.276 . S
C323 O310 1.235 . S
C324 C325 1.393 . S
C324 C328 1.395 . S
C324 C331 1.492 . S
C325 C324 1.393 . S
C325 C326 1.392 . S
C325 H336 0.930 1_655 S
C326 C325 1.392 . S
C326 C327 1.386 . S
C327 C326 1.386 . S
C327 C329 1.395 . S
C327 H337 0.930 . S
C328 C324 1.395 . S
C328 C329 1.379 . S
C328 H338 0.930 . S
C329 C327 1.395 . S
C329 C328 1.379 . S
C329 H339 0.930 . S
C330 O308 1.264 1_545 S
C330 O309 1.254 . S
C331 Eu267 2.848 . S
C331 O306 1.257 . S
C331 O311 1.249 . S
C331 C324 1.492 . S
H332 C315 0.939 . S
H333 C316 0.930 . S
H334 C317 0.930 . S
H335 C318 0.930 . S
H336 C325 0.930 1_455 S
H337 C327 0.930 . S
H338 C328 0.930 . S
H339 C329 0.930 . S
Eu340 N371 2.657 . S
Eu340 N378 2.609 . S
Eu340 O384 2.558 . S
Eu340 O385 2.612 1_545 S
Eu340 O387 2.339 1_545 S
Eu340 O388 2.563 . S
Eu340 O389 2.419 . S
Eu340 O391 2.380 . S
Eu340 O392 2.432 . S
Eu340 C404 2.848 . S
C341 C344 1.429 . S
C341 C345 1.411 . S
C341 N348 1.377 . S
C342 C344 1.420 . S
C342 C346 1.423 . S
C342 C354 1.392 . S
C343 C345 1.420 . S
C343 C346 1.351 . S
C343 H366 0.931 . S
C344 C341 1.429 . S
C344 C342 1.420 . S
C344 N352 1.362 . S
C345 C341 1.411 . S
C345 C343 1.420 . S
C345 C350 1.395 . S
C346 C342 1.423 . S
C346 C343 1.351 . S
C346 H358 0.930 . S
C347 C349 1.400 . S
C347 C350 1.386 . S
C347 H359 0.930 . S
N348 C341 1.377 . S
N348 C349 1.321 . S
N348 Eu351 2.609 . S
C349 C347 1.400 . S
C349 N348 1.321 . S
C349 H356 0.930 . S
C350 C345 1.395 . S
C350 C347 1.386 . S
C350 H369 0.930 . S
Eu351 N348 2.609 . S
Eu351 N352 2.657 . S
Eu351 O385 2.380 . S
Eu351 O386 2.432 . S
Eu351 O390 2.558 . S
Eu351 O391 2.612 1_565 S
Eu351 O393 2.339 1_565 S
Eu351 O394 2.563 1_565 S
Eu351 O395 2.419 . S
Eu351 C415 2.848 . S
N352 C344 1.362 . S
N352 Eu351 2.657 . S
N352 C353 1.334 1_565 S
C353 N352 1.334 1_545 S
C353 C355 1.413 . S
C353 H360 0.929 . S
C354 C342 1.392 . S
C354 C355 1.367 1_565 S
C354 H362 0.930 . S
C355 C353 1.413 . S
C355 C354 1.367 1_545 S
C355 H357 0.930 . S
H356 C349 0.930 . S
H357 C355 0.930 . S
H358 C346 0.930 . S
H359 C347 0.930 . S
H360 C353 0.929 . S
H361 C375 0.930 1_565 S
H362 C354 0.930 . S
H363 C381 0.930 . S
H364 C372 0.929 1_565 S
H365 C379 0.930 . S
H366 C343 0.931 . S
H367 C373 0.930 . S
H368 C406 0.930 . S
H369 C350 0.930 . S
H370 C405 0.931 . S
N371 Eu340 2.657 . S
N371 C372 1.334 . S
N371 C376 1.362 . S
C372 H364 0.929 1_545 S
C372 N371 1.334 . S
C372 C375 1.413 . S
C373 H367 0.930 . S
C373 C374 1.392 . S
C373 C375 1.367 . S
C374 C373 1.392 . S
C374 C376 1.420 . S
C374 C406 1.423 . S
C375 H361 0.930 1_545 S
C375 C372 1.413 . S
C375 C373 1.367 . S
C376 N371 1.362 . S
C376 C374 1.420 . S
C376 C380 1.429 . S
H377 C382 0.930 . S
N378 Eu340 2.609 . S
N378 C380 1.377 . S
N378 C381 1.321 . S
C379 H365 0.930 . S
C379 C381 1.400 . S
C379 C382 1.386 . S
C380 C376 1.429 . S
C380 N378 1.377 . S
C380 C383 1.411 . S
C381 H363 0.930 . S
C381 N378 1.321 . S
C381 C379 1.400 . S
C382 H377 0.930 . S
C382 C379 1.386 . S
C382 C383 1.395 . S
C383 C380 1.411 . S
C383 C382 1.395 . S
C383 C405 1.420 . S
O384 Eu340 2.558 . S
O384 C404 1.257 . S
O385 Eu340 2.612 1_565 S
O385 Eu351 2.380 . S
O385 C396 1.276 . S
O386 Eu351 2.432 . S
O386 C403 1.264 . S
O387 Eu340 2.339 1_565 S
O387 C403 1.254 . S
O388 Eu340 2.563 . S
O388 C396 1.235 1_545 S
O389 Eu340 2.419 . S
O389 C404 1.249 . S
O390 Eu351 2.558 . S
O390 C415 1.257 . S
O391 Eu340 2.380 . S
O391 Eu351 2.612 1_545 S
O391 C407 1.276 . S
O392 Eu340 2.432 . S
O392 C414 1.264 . S
O393 Eu351 2.339 1_545 S
O393 C414 1.254 . S
O394 Eu351 2.563 1_545 S
O394 C407 1.235 . S
O395 Eu351 2.419 . S
O395 C415 1.249 . S
C396 O385 1.276 . S
C396 O388 1.235 1_565 S
C397 C399 1.393 . S
C397 C401 1.395 . S
C397 C404 1.492 . S
C398 C399 1.392 . S
C398 C400 1.386 . S
C399 C397 1.393 . S
C399 C398 1.392 . S
C399 H416 0.930 . S
C400 C398 1.386 . S
C400 C402 1.395 . S
C400 H417 0.930 . S
C401 C397 1.395 . S
C401 C402 1.379 . S
C401 H418 0.930 . S
C402 C400 1.395 . S
C402 C401 1.379 . S
C402 H419 0.930 . S
C403 O386 1.264 . S
C403 O387 1.254 . S
C404 Eu340 2.848 . S
C404 O384 1.257 . S
C404 O389 1.249 . S
C404 C397 1.492 . S
C405 H370 0.931 . S
C405 C383 1.420 . S
C405 C406 1.351 . S
C406 H368 0.930 . S
C406 C374 1.423 . S
C406 C405 1.351 . S
C407 O391 1.276 . S
C407 O394 1.235 . S
C408 C409 1.393 . S
C408 C412 1.395 . S
C408 C415 1.492 . S
C409 C408 1.393 . S
C409 C410 1.392 . S
C409 H420 0.930 1_565 S
C410 C409 1.392 . S
C410 C411 1.386 . S
C411 C410 1.386 . S
C411 C413 1.395 . S
C411 H421 0.930 . S
C412 C408 1.395 . S
C412 C413 1.379 . S
C412 H422 0.930 . S
C413 C411 1.395 . S
C413 C412 1.379 . S
C413 H423 0.930 . S
C414 O392 1.264 . S
C414 O393 1.254 . S
C415 Eu351 2.848 . S
C415 O390 1.257 . S
C415 O395 1.249 . S
C415 C408 1.492 . S
H416 C399 0.930 . S
H417 C400 0.930 . S
H418 C401 0.930 . S
H419 C402 0.930 . S
H420 C409 0.930 1_545 S
H421 C411 0.930 . S
H422 C412 0.930 . S
H423 C413 0.930 . S
Eu424 N455 2.657 . S
Eu424 N462 2.609 . S
Eu424 O468 2.558 . S
Eu424 O469 2.612 . S
Eu424 O471 2.339 . S
Eu424 O472 2.563 . S
Eu424 O473 2.419 . S
Eu424 O475 2.380 . S
Eu424 O476 2.432 . S
Eu424 C488 2.848 . S
C425 C428 1.429 . S
C425 C429 1.411 . S
C425 N432 1.377 . S
C426 C428 1.420 . S
C426 C430 1.423 . S
C426 C438 1.392 . S
C427 C429 1.420 . S
C427 C430 1.351 . S
C427 H450 0.931 . S
C428 C425 1.429 . S
C428 C426 1.420 . S
C428 N436 1.362 . S
C429 C425 1.411 . S
C429 C427 1.420 . S
C429 C434 1.395 . S
C430 C426 1.423 . S
C430 C427 1.351 . S
C430 H442 0.930 . S
C431 C433 1.400 . S
C431 C434 1.386 . S
C431 H443 0.930 . S
N432 C425 1.377 . S
N432 C433 1.321 . S
N432 Eu435 2.609 . S
C433 C431 1.400 . S
C433 N432 1.321 . S
C433 H440 0.930 . S
C434 C429 1.395 . S
C434 C431 1.386 . S
C434 H453 0.930 . S
Eu435 N432 2.609 . S
Eu435 N436 2.657 . S
Eu435 O469 2.380 . S
Eu435 O470 2.432 . S
Eu435 O474 2.558 . S
Eu435 O475 2.612 . S
Eu435 O477 2.339 . S
Eu435 O478 2.563 . S
Eu435 O479 2.419 . S
Eu435 C499 2.848 . S
N436 C428 1.362 . S
N436 Eu435 2.657 . S
N436 C437 1.334 . S
C437 N436 1.334 . S
C437 C439 1.413 . S
C437 H444 0.929 . S
C438 C426 1.392 . S
C438 C439 1.367 . S
C438 H446 0.930 . S
C439 C437 1.413 . S
C439 C438 1.367 . S
C439 H441 0.930 . S
H440 C433 0.930 . S
H441 C439 0.930 . S
H442 C430 0.930 . S
H443 C431 0.930 . S
H444 C437 0.929 . S
H445 C459 0.930 . S
H446 C438 0.930 . S
H447 C465 0.930 . S
H448 C456 0.929 . S
H449 C463 0.930 . S
H450 C427 0.931 . S
H451 C457 0.930 . S
H452 C490 0.930 . S
H453 C434 0.930 . S
H454 C489 0.931 . S
N455 Eu424 2.657 . S
N455 C456 1.334 . S
N455 C460 1.362 . S
C456 H448 0.929 . S
C456 N455 1.334 . S
C456 C459 1.413 . S
C457 H451 0.930 . S
C457 C458 1.392 . S
C457 C459 1.367 . S
C458 C457 1.392 . S
C458 C460 1.420 . S
C458 C490 1.423 . S
C459 H445 0.930 . S
C459 C456 1.413 . S
C459 C457 1.367 . S
C460 N455 1.362 . S
C460 C458 1.420 . S
C460 C464 1.429 . S
H461 C466 0.930 . S
N462 Eu424 2.609 . S
N462 C464 1.377 . S
N462 C465 1.321 . S
C463 H449 0.930 . S
C463 C465 1.400 . S
C463 C466 1.386 . S
C464 C460 1.429 . S
C464 N462 1.377 . S
C464 C467 1.411 . S
C465 H447 0.930 . S
C465 N462 1.321 . S
C465 C463 1.400 . S
C466 H461 0.930 . S
C466 C463 1.386 . S
C466 C467 1.395 . S
C467 C464 1.411 . S
C467 C466 1.395 . S
C467 C489 1.420 . S
O468 Eu424 2.558 . S
O468 C488 1.257 . S
O469 Eu424 2.612 . S
O469 Eu435 2.380 . S
O469 C480 1.276 . S
O470 Eu435 2.432 . S
O470 C487 1.264 . S
O471 Eu424 2.339 . S
O471 C487 1.254 . S
O472 Eu424 2.563 . S
O472 C480 1.235 . S
O473 Eu424 2.419 . S
O473 C488 1.249 . S
O474 Eu435 2.558 . S
O474 C499 1.257 . S
O475 Eu424 2.380 . S
O475 Eu435 2.612 . S
O475 C491 1.276 . S
O476 Eu424 2.432 . S
O476 C498 1.264 . S
O477 Eu435 2.339 . S
O477 C498 1.254 . S
O478 Eu435 2.563 . S
O478 C491 1.235 . S
O479 Eu435 2.419 . S
O479 C499 1.249 . S
C480 O469 1.276 . S
C480 O472 1.235 . S
C481 C483 1.393 . S
C481 C485 1.395 . S
C481 C488 1.492 . S
C482 C483 1.392 . S
C482 C484 1.386 . S
C483 C481 1.393 . S
C483 C482 1.392 . S
C483 H500 0.930 . S
C484 C482 1.386 . S
C484 C486 1.395 . S
C484 H501 0.930 . S
C485 C481 1.395 . S
C485 C486 1.379 . S
C485 H502 0.930 . S
C486 C484 1.395 . S
C486 C485 1.379 . S
C486 H503 0.930 . S
C487 O470 1.264 . S
C487 O471 1.254 . S
C488 Eu424 2.848 . S
C488 O468 1.257 . S
C488 O473 1.249 . S
C488 C481 1.492 . S
C489 H454 0.931 . S
C489 C467 1.420 . S
C489 C490 1.351 . S
C490 H452 0.930 . S
C490 C458 1.423 . S
C490 C489 1.351 . S
C491 O475 1.276 . S
C491 O478 1.235 . S
C492 C493 1.393 . S
C492 C496 1.395 . S
C492 C499 1.492 . S
C493 C492 1.393 . S
C493 C494 1.392 . S
C493 H504 0.930 . S
C494 C493 1.392 . S
C494 C495 1.386 . S
C495 C494 1.386 . S
C495 C497 1.395 . S
C495 H505 0.930 1_556 S
C496 C492 1.395 . S
C496 C497 1.379 . S
C496 H506 0.930 . S
C497 C495 1.395 . S
C497 C496 1.379 . S
C497 H507 0.930 1_556 S
C498 O476 1.264 . S
C498 O477 1.254 . S
C499 Eu435 2.848 . S
C499 O474 1.257 . S
C499 O479 1.249 . S
C499 C492 1.492 . S
H500 C483 0.930 . S
H501 C484 0.930 . S
H502 C485 0.930 . S
H503 C486 0.930 . S
H504 C493 0.930 . S
H505 C495 0.930 1_554 S
H506 C496 0.930 . S
H507 C497 0.930 1_554 S
Eu508 N539 2.657 . S
Eu508 N546 2.609 . S
Eu508 O552 2.558 . S
Eu508 O553 2.612 . S
Eu508 O555 2.339 . S
Eu508 O556 2.563 . S
Eu508 O557 2.419 . S
Eu508 O559 2.376 1_455 S
Eu508 O560 2.432 1_455 S
Eu508 C572 2.848 . S
C509 C512 1.429 . S
C509 C513 1.411 . S
C509 N516 1.377 . S
C510 C512 1.420 . S
C510 C514 1.423 . S
C510 C522 1.392 . S
C511 C513 1.420 . S
C511 C514 1.351 . S
C511 H534 0.931 . S
C512 C509 1.429 . S
C512 C510 1.420 . S
C512 N520 1.362 . S
C513 C509 1.411 . S
C513 C511 1.420 . S
C513 C518 1.395 . S
C514 C510 1.423 . S
C514 C511 1.351 . S
C514 H526 0.930 . S
C515 C517 1.400 . S
C515 C518 1.386 1_455 S
C515 H527 0.930 . S
N516 C509 1.377 . S
N516 C517 1.321 1_655 S
N516 Eu519 2.609 . S
C517 C515 1.400 . S
C517 N516 1.321 1_455 S
C517 H524 0.930 . S
C518 C513 1.395 . S
C518 C515 1.386 1_655 S
C518 H537 0.930 . S
Eu519 N516 2.609 . S
Eu519 N520 2.657 . S
Eu519 O553 2.380 1_655 S
Eu519 O554 2.432 1_655 S
Eu519 O558 2.558 . S
Eu519 O559 2.615 . S
Eu519 O561 2.339 . S
Eu519 O562 2.563 . S
Eu519 O563 2.419 . S
Eu519 C583 2.848 . S
N520 C512 1.362 . S
N520 Eu519 2.657 . S
N520 C521 1.334 . S
C521 N520 1.334 . S
C521 C523 1.413 . S
C521 H528 0.929 . S
C522 C510 1.392 . S
C522 C523 1.367 . S
C522 H530 0.930 . S
C523 C521 1.413 . S
C523 C522 1.367 . S
C523 H525 0.930 . S
H524 C517 0.930 . S
H525 C523 0.930 . S
H526 C514 0.930 . S
H527 C515 0.930 . S
H528 C521 0.929 . S
H529 C543 0.930 . S
H530 C522 0.930 . S
H531 C549 0.930 1_655 S
H532 C540 0.929 . S
H533 C547 0.930 . S
H534 C511 0.931 . S
H535 C541 0.930 . S
H536 C574 0.930 . S
H537 C518 0.930 . S
H538 C573 0.931 . S
N539 Eu508 2.657 . S
N539 C540 1.334 . S
N539 C544 1.362 . S
C540 H532 0.929 . S
C540 N539 1.334 . S
C540 C543 1.413 . S
C541 H535 0.930 . S
C541 C542 1.392 . S
C541 C543 1.367 . S
C542 C541 1.392 . S
C542 C544 1.420 . S
C542 C574 1.423 . S
C543 H529 0.930 . S
C543 C540 1.413 . S
C543 C541 1.367 . S
C544 N539 1.362 . S
C544 C542 1.420 . S
C544 C548 1.429 . S
H545 C550 0.930 . S
N546 Eu508 2.609 . S
N546 C548 1.377 . S
N546 C549 1.321 . S
C547 H533 0.930 . S
C547 C549 1.400 1_655 S
C547 C550 1.386 1_655 S
C548 C544 1.429 . S
C548 N546 1.377 . S
C548 C551 1.411 . S
C549 H531 0.930 1_455 S
C549 N546 1.321 . S
C549 C547 1.400 1_455 S
C550 H545 0.930 . S
C550 C547 1.386 1_455 S
C550 C551 1.395 . S
C551 C548 1.411 . S
C551 C550 1.395 . S
C551 C573 1.420 . S
O552 Eu508 2.558 . S
O552 C572 1.257 . S
O553 Eu508 2.612 . S
O553 Eu519 2.380 1_455 S
O553 C564 1.276 . S
O554 Eu519 2.432 1_455 S
O554 C571 1.264 . S
O555 Eu508 2.339 . S
O555 C571 1.254 . S
O556 Eu508 2.563 . S
O556 C564 1.235 . S
O557 Eu508 2.419 . S
O557 C572 1.249 . S
O558 Eu519 2.558 . S
O558 C583 1.257 . S
O559 Eu508 2.376 1_655 S
O559 Eu519 2.615 . S
O559 C575 1.279 . S
O560 Eu508 2.432 1_655 S
O560 C582 1.264 . S
O561 Eu519 2.339 . S
O561 C582 1.254 . S
O562 Eu519 2.563 . S
O562 C575 1.235 . S
O563 Eu519 2.419 . S
O563 C583 1.249 . S
C564 O553 1.276 . S
C564 O556 1.235 . S
C565 C567 1.393 . S
C565 C569 1.395 . S
C565 C572 1.492 . S
C566 C567 1.392 . S
C566 C568 1.386 . S
C567 C565 1.393 . S
C567 C566 1.392 . S
C567 H584 0.930 . S
C568 C566 1.386 . S
C568 C570 1.395 . S
C568 H585 0.930 . S
C569 C565 1.395 . S
C569 C570 1.379 . S
C569 H586 0.930 . S
C570 C568 1.395 . S
C570 C569 1.379 . S
C570 H587 0.930 . S
C571 O554 1.264 . S
C571 O555 1.254 . S
C572 Eu508 2.848 . S
C572 O552 1.257 . S
C572 O557 1.249 . S
C572 C565 1.492 . S
C573 H538 0.931 . S
C573 C551 1.420 . S
C573 C574 1.351 . S
C574 H536 0.930 . S
C574 C542 1.423 . S
C574 C573 1.351 . S
C575 O559 1.279 . S
C575 O562 1.235 . S
C576 C577 1.393 . S
C576 C580 1.395 . S
C576 C583 1.492 . S
C577 C576 1.393 . S
C577 C578 1.392 . S
C577 H588 0.930 . S
C578 C577 1.392 . S
C578 C579 1.386 . S
C579 C578 1.386 . S
C579 C581 1.395 . S
C579 H589 0.930 1_556 S
C580 C576 1.395 . S
C580 C581 1.379 . S
C580 H590 0.930 . S
C581 C579 1.395 . S
C581 C580 1.379 . S
C581 H591 0.930 1_556 S
C582 O560 1.264 . S
C582 O561 1.254 . S
C583 Eu519 2.848 . S
C583 O558 1.257 . S
C583 O563 1.249 . S
C583 C576 1.492 . S
H584 C567 0.930 . S
H585 C568 0.930 . S
H586 C569 0.930 . S
H587 C570 0.930 . S
H588 C577 0.930 . S
H589 C579 0.930 1_554 S
H590 C580 0.930 . S
H591 C581 0.930 1_554 S
H592 C604 0.930 . S
H593 C606 0.930 . S
H594 C607 0.930 . S
H595 C611 0.959 . S
H596 C611 0.969 . S
H597 C611 0.961 . S
H598 C612 0.960 . S
H599 C612 0.961 . S
H600 C612 0.959 . S
H601 C615 0.929 . S
H602 C616 0.931 . S
H603 C618 0.930 . S
C604 H592 0.930 . S
C604 C605 1.399 . S
C604 C609 1.399 . S
C605 C604 1.399 . S
C605 C606 1.376 . S
C606 H593 0.930 . S
C606 C605 1.376 . S
C606 C607 1.388 . S
C607 H594 0.930 . S
C607 C606 1.388 . S
C607 C608 1.390 . S
C608 C607 1.390 . S
C608 C609 1.394 . S
C608 C614 1.465 . S
C609 C604 1.399 . S
C609 C608 1.394 . S
C609 C610 1.516 . S
C610 C609 1.516 . S
C610 C611 1.502 . S
C610 C612 1.561 1_545 S
C610 C613 1.526 . S
C611 H595 0.959 . S
C611 H596 0.969 . S
C611 H597 0.961 . S
C611 C610 1.502 . S
C612 H598 0.960 . S
C612 H599 0.961 . S
C612 H600 0.959 . S
C612 C610 1.561 1_565 S
C613 C610 1.526 . S
C613 C614 1.396 . S
C613 C618 1.390 . S
C614 C608 1.465 . S
C614 C613 1.396 . S
C614 C615 1.399 . S
C615 H601 0.929 . S
C615 C614 1.399 . S
C615 C616 1.385 . S
C616 H602 0.931 . S
C616 C615 1.385 . S
C616 C617 1.389 . S
C617 C616 1.389 . S
C617 C618 1.387 . S
C618 H603 0.930 . S
C618 C613 1.390 . S
C618 C617 1.387 . S
H619 C631 0.930 . S
H620 C633 0.930 . S
H621 C634 0.930 . S
H622 C638 0.959 . S
H623 C638 0.959 . S
H624 C638 0.961 . S
H625 C639 0.960 . S
H626 C639 0.961 . S
H627 C639 0.959 . S
H628 C642 0.929 . S
H629 C643 0.931 . S
H630 C645 0.930 . S
C631 H619 0.930 . S
C631 C632 1.399 . S
C631 C636 1.399 . S
C632 C631 1.399 . S
C632 C633 1.376 . S
C633 H620 0.930 . S
C633 C632 1.376 . S
C633 C634 1.388 . S
C634 H621 0.930 . S
C634 C633 1.388 . S
C634 C635 1.390 . S
C635 C634 1.390 . S
C635 C636 1.394 . S
C635 C641 1.465 . S
C636 C631 1.399 . S
C636 C635 1.394 . S
C636 C637 1.516 . S
C637 C636 1.516 . S
C637 C638 1.502 . S
C637 C639 1.561 . S
C637 C640 1.526 . S
C638 H622 0.959 . S
C638 H623 0.959 . S
C638 H624 0.961 . S
C638 C637 1.502 . S
C639 H625 0.960 . S
C639 H626 0.961 . S
C639 H627 0.959 . S
C639 C637 1.561 . S
C640 C637 1.526 . S
C640 C641 1.396 . S
C640 C645 1.390 . S
C641 C635 1.465 . S
C641 C640 1.396 . S
C641 C642 1.399 . S
C642 H628 0.929 . S
C642 C641 1.399 . S
C642 C643 1.385 . S
C643 H629 0.931 . S
C643 C642 1.385 . S
C643 C644 1.389 . S
C644 C643 1.389 . S
C644 C645 1.387 . S
C645 H630 0.930 . S
C645 C640 1.390 . S
C645 C644 1.387 . S
H646 C658 0.930 . S
H647 C660 0.930 . S
H648 C661 0.930 . S
H649 C665 0.959 . S
H650 C665 0.959 . S
H651 C665 0.961 . S
H652 C666 0.960 . S
H653 C666 0.961 . S
H654 C666 0.959 . S
H655 C669 0.929 . S
H656 C670 0.931 . S
H657 C672 0.930 . S
C658 H646 0.930 . S
C658 C659 1.399 . S
C658 C663 1.399 . S
C659 C658 1.399 . S
C659 C660 1.376 . S
C660 H647 0.930 . S
C660 C659 1.376 . S
C660 C661 1.388 . S
C661 H648 0.930 . S
C661 C660 1.388 . S
C661 C662 1.390 . S
C662 C661 1.390 . S
C662 C663 1.394 . S
C662 C668 1.465 . S
C663 C658 1.399 . S
C663 C662 1.394 . S
C663 C664 1.516 . S
C664 C663 1.516 . S
C664 C665 1.502 . S
C664 C666 1.561 . S
C664 C667 1.526 . S
C665 H649 0.959 . S
C665 H650 0.959 . S
C665 H651 0.961 . S
C665 C664 1.502 . S
C666 H652 0.960 . S
C666 H653 0.961 . S
C666 H654 0.959 . S
C666 C664 1.561 . S
C667 C664 1.526 . S
C667 C668 1.396 . S
C667 C672 1.390 . S
C668 C662 1.465 . S
C668 C667 1.396 . S
C668 C669 1.399 . S
C669 H655 0.929 . S
C669 C668 1.399 . S
C669 C670 1.385 . S
C670 H656 0.931 . S
C670 C669 1.385 . S
C670 C671 1.389 . S
C671 C670 1.389 . S
C671 C672 1.387 . S
C672 H657 0.930 . S
C672 C667 1.390 . S
C672 C671 1.387 . S
H673 C685 0.930 . S
H674 C687 0.930 . S
H675 C688 0.930 . S
H676 C692 0.959 . S
H677 C692 0.959 . S
H678 C692 0.961 . S
H679 C693 0.960 . S
H680 C693 0.961 . S
H681 C693 0.959 . S
H682 C696 0.929 . S
H683 C697 0.931 . S
H684 C699 0.905 1_655 S
C685 H673 0.930 . S
C685 C686 1.399 . S
C685 C690 1.399 . S
C686 C685 1.399 . S
C686 C687 1.376 . S
C687 H674 0.930 . S
C687 C686 1.376 . S
C687 C688 1.388 . S
C688 H675 0.930 . S
C688 C687 1.388 . S
C688 C689 1.390 . S
C689 C688 1.390 . S
C689 C690 1.394 . S
C689 C695 1.465 . S
C690 C685 1.399 . S
C690 C689 1.394 . S
C690 C691 1.516 . S
C691 C690 1.516 . S
C691 C692 1.502 1_455 S
C691 C693 1.561 . S
C691 C694 1.526 . S
C692 H676 0.959 . S
C692 H677 0.959 . S
C692 H678 0.961 . S
C692 C691 1.502 1_655 S
C693 H679 0.960 . S
C693 H680 0.961 . S
C693 H681 0.959 . S
C693 C691 1.561 . S
C694 C691 1.526 . S
C694 C695 1.396 . S
C694 C699 1.390 . S
C695 C689 1.465 . S
C695 C694 1.396 . S
C695 C696 1.399 . S
C696 H682 0.929 . S
C696 C695 1.399 . S
C696 C697 1.385 . S
C697 H683 0.931 . S
C697 C696 1.385 . S
C697 C698 1.389 . S
C698 C697 1.389 . S
C698 C699 1.387 . S
C699 H684 0.905 1_455 S
C699 C694 1.390 . S
C699 C698 1.387 . S
H700 C712 0.930 . S
H701 C714 0.930 . S
H702 C715 0.930 1_545 S
H703 C719 0.959 . S
H704 C719 0.959 . S
H705 C719 0.961 . S
H706 C720 0.960 . S
H707 C720 0.961 . S
H708 C720 0.959 . S
H709 C723 0.929 . S
H710 C724 0.931 . S
H711 C726 0.930 . S
C712 H700 0.930 . S
C712 C713 1.399 . S
C712 C717 1.399 1_554 S
C713 C712 1.399 . S
C713 C714 1.376 . S
C714 H701 0.930 . S
C714 C713 1.376 . S
C714 C715 1.388 . S
C715 H702 0.930 1_565 S
C715 C714 1.388 . S
C715 C716 1.390 1_554 S
C716 C715 1.390 1_556 S
C716 C717 1.394 . S
C716 C722 1.465 . S
C717 C712 1.399 1_556 S
C717 C716 1.394 . S
C717 C718 1.516 . S
C718 C717 1.516 . S
C718 C719 1.502 . S
C718 C720 1.561 . S
C718 C721 1.526 . S
C719 H703 0.959 . S
C719 H704 0.959 . S
C719 H705 0.961 . S
C719 C718 1.502 . S
C720 H706 0.960 . S
C720 H707 0.961 . S
C720 H708 0.959 . S
C720 C718 1.561 . S
C721 C718 1.526 . S
C721 C722 1.396 . S
C721 C726 1.390 . S
C722 C716 1.465 . S
C722 C721 1.396 . S
C722 C723 1.399 1_565 S
C723 H709 0.929 . S
C723 C722 1.399 1_545 S
C723 C724 1.385 . S
C724 H710 0.931 . S
C724 C723 1.385 . S
C724 C725 1.389 1_545 S
C725 C724 1.389 1_565 S
C725 C726 1.387 . S
C726 H711 0.930 . S
C726 C721 1.390 . S
C726 C725 1.387 . S
H727 C739 0.930 . S
H728 C741 0.930 . S
H729 C742 0.930 . S
H730 C746 0.959 . S
H731 C746 0.959 . S
H732 C746 0.961 . S
H733 C747 0.960 . S
H734 C747 0.961 1_556 S
H735 C747 0.959 1_556 S
H736 C750 0.929 . S
H737 C751 0.931 . S
H738 C753 0.930 . S
C739 H727 0.930 . S
C739 C740 1.399 . S
C739 C744 1.399 . S
C740 C739 1.399 . S
C740 C741 1.376 . S
C741 H728 0.930 . S
C741 C740 1.376 . S
C741 C742 1.388 1_554 S
C742 H729 0.930 . S
C742 C741 1.388 1_556 S
C742 C743 1.390 . S
C743 C742 1.390 . S
C743 C744 1.394 1_556 S
C743 C749 1.465 . S
C744 C739 1.399 . S
C744 C743 1.394 1_554 S
C744 C745 1.516 1_554 S
C745 C744 1.516 1_556 S
C745 C746 1.502 1_556 S
C745 C747 1.561 1_556 S
C745 C748 1.526 . S
C746 H730 0.959 . S
C746 H731 0.959 . S
C746 H732 0.961 . S
C746 C745 1.502 1_554 S
C747 H733 0.960 . S
C747 H734 0.961 1_554 S
C747 H735 0.959 1_554 S
C747 C745 1.561 1_554 S
C748 C745 1.526 . S
C748 C749 1.396 . S
C748 C753 1.390 . S
C749 C743 1.465 . S
C749 C748 1.396 . S
C749 C750 1.399 . S
C750 H736 0.929 . S
C750 C749 1.399 . S
C750 C751 1.385 . S
C751 H737 0.931 . S
C751 C750 1.385 . S
C751 C752 1.389 . S
C752 C751 1.389 . S
C752 C753 1.387 . S
C753 H738 0.930 . S
C753 C748 1.390 . S
C753 C752 1.387 . S
H754 C766 0.930 . S
H755 C768 0.930 . S
H756 C769 0.930 . S
H757 C773 0.959 . S
H758 C773 0.959 . S
H759 C773 0.961 . S
H760 C774 0.960 . S
H761 C774 0.961 . S
H762 C774 0.959 . S
H763 C777 0.929 . S
H764 C778 0.931 . S
H765 C780 0.930 . S
C766 H754 0.930 . S
C766 C767 1.399 . S
C766 C771 1.399 1_554 S
C767 C766 1.399 . S
C767 C768 1.376 . S
C768 H755 0.930 . S
C768 C767 1.376 . S
C768 C769 1.388 . S
C769 H756 0.930 . S
C769 C768 1.388 . S
C769 C770 1.390 1_554 S
C770 C769 1.390 1_556 S
C770 C771 1.394 . S
C770 C776 1.465 . S
C771 C766 1.399 1_556 S
C771 C770 1.394 . S
C771 C772 1.516 . S
C772 C771 1.516 . S
C772 C773 1.502 . S
C772 C774 1.561 . S
C772 C775 1.526 . S
C773 H757 0.959 . S
C773 H758 0.959 . S
C773 H759 0.961 . S
C773 C772 1.502 . S
C774 H760 0.960 . S
C774 H761 0.961 . S
C774 H762 0.959 . S
C774 C772 1.561 . S
C775 C772 1.526 . S
C775 C776 1.396 . S
C775 C780 1.390 . S
C776 C770 1.465 . S
C776 C775 1.396 . S
C776 C777 1.399 . S
C777 H763 0.929 . S
C777 C776 1.399 . S
C777 C778 1.385 . S
C778 H764 0.931 . S
C778 C777 1.385 . S
C778 C779 1.389 . S
C779 C778 1.389 . S
C779 C780 1.387 . S
C780 H765 0.930 . S
C780 C775 1.390 . S
C780 C779 1.387 . S
H781 C793 0.930 . S
H782 C795 0.930 . S
H783 C796 0.930 . S
H784 C800 0.959 . S
H785 C800 0.959 . S
H786 C800 0.961 . S
H787 C801 0.960 . S
H788 C801 0.961 . S
H789 C801 0.959 . S
H790 C804 0.951 . S
H791 C805 0.931 1_455 S
H792 C807 0.930 . S
C793 H781 0.930 . S
C793 C794 1.399 . S
C793 C798 1.399 1_554 S
C794 C793 1.399 . S
C794 C795 1.376 . S
C795 H782 0.930 . S
C795 C794 1.376 . S
C795 C796 1.388 . S
C796 H783 0.930 . S
C796 C795 1.388 . S
C796 C797 1.390 1_554 S
C797 C796 1.390 1_556 S
C797 C798 1.394 . S
C797 C803 1.465 . S
C798 C793 1.399 1_556 S
C798 C797 1.394 . S
C798 C799 1.516 . S
C799 C798 1.516 . S
C799 C800 1.502 . S
C799 C801 1.561 . S
C799 C802 1.526 . S
C800 H784 0.959 . S
C800 H785 0.959 . S
C800 H786 0.961 . S
C800 C799 1.502 . S
C801 H787 0.960 . S
C801 H788 0.961 . S
C801 H789 0.959 . S
C801 C799 1.561 . S
C802 C799 1.526 . S
C802 C803 1.396 . S
C802 C807 1.390 . S
C803 C797 1.465 . S
C803 C802 1.396 . S
C803 C804 1.399 . S
C804 H790 0.951 . S
C804 C803 1.399 . S
C804 C805 1.385 . S
C805 H791 0.931 1_655 S
C805 C804 1.385 . S
C805 C806 1.389 . S
C806 C805 1.389 . S
C806 C807 1.387 . S
C807 H792 0.930 . S
C807 C802 1.390 . S
C807 C806 1.387 . S
H808 C820 0.930 . S
H809 C822 0.930 . S
H810 C823 0.930 . S
H811 C827 0.959 . S
H812 C827 0.959 . S
H813 C827 0.961 . S
H814 C828 0.960 . S
H815 C828 0.961 . S
H816 C828 0.959 . S
H817 C831 0.929 . S
H818 C832 0.912 1_655 S
H819 C834 0.930 . S
C820 H808 0.930 . S
C820 C821 1.399 . S
C820 C825 1.399 . S
C821 C820 1.399 . S
C821 C822 1.376 . S
C822 H809 0.930 . S
C822 C821 1.376 . S
C822 C823 1.388 . S
C823 H810 0.930 . S
C823 C822 1.388 . S
C823 C824 1.390 . S
C824 C823 1.390 . S
C824 C825 1.394 . S
C824 C830 1.465 . S
C825 C820 1.399 . S
C825 C824 1.394 . S
C825 C826 1.516 . S
C826 C825 1.516 . S
C826 C827 1.502 . S
C826 C828 1.561 . S
C826 C829 1.526 . S
C827 H811 0.959 . S
C827 H812 0.959 . S
C827 H813 0.961 . S
C827 C826 1.502 . S
C828 H814 0.960 . S
C828 H815 0.961 . S
C828 H816 0.959 . S
C828 C826 1.561 . S
C829 C826 1.526 . S
C829 C830 1.396 . S
C829 C834 1.390 . S
C830 C824 1.465 . S
C830 C829 1.396 . S
C830 C831 1.399 . S
C831 H817 0.929 . S
C831 C830 1.399 . S
C831 C832 1.406 . S
C832 H818 0.912 1_455 S
C832 C831 1.406 . S
C832 C833 1.388 1_455 S
C833 C832 1.388 1_655 S
C833 C834 1.381 1_655 S
C834 H819 0.930 . S
C834 C829 1.390 . S
C834 C833 1.381 1_455 S
H835 C847 0.930 . S
H836 C849 0.930 . S
H837 C850 0.930 . S
H838 C854 0.959 . S
H839 C854 0.959 . S
H840 C854 0.961 . S
H841 C855 0.960 . S
H842 C855 0.961 . S
H843 C855 0.959 . S
H844 C858 0.940 . S
H845 C859 0.931 . S
H846 C861 0.930 . S
C847 H835 0.930 . S
C847 C848 1.399 . S
C847 C852 1.399 . S
C848 C847 1.399 . S
C848 C849 1.376 . S
C849 H836 0.930 . S
C849 C848 1.376 . S
C849 C850 1.388 . S
C850 H837 0.930 . S
C850 C849 1.388 . S
C850 C851 1.390 . S
C851 C850 1.390 . S
C851 C852 1.394 . S
C851 C857 1.465 . S
C852 C847 1.399 . S
C852 C851 1.394 . S
C852 C853 1.516 . S
C853 C852 1.516 . S
C853 C854 1.502 . S
C853 C855 1.561 . S
C853 C856 1.526 . S
C854 H838 0.959 . S
C854 H839 0.959 . S
C854 H840 0.961 . S
C854 C853 1.502 . S
C855 H841 0.960 . S
C855 H842 0.961 . S
C855 H843 0.959 . S
C855 C853 1.561 . S
C856 C853 1.526 . S
C856 C857 1.396 . S
C856 C861 1.390 . S
C857 C851 1.465 . S
C857 C856 1.396 . S
C857 C858 1.376 1_545 S
C858 H844 0.940 . S
C858 C857 1.376 1_565 S
C858 C859 1.397 . S
C859 H845 0.931 . S
C859 C858 1.397 . S
C859 C860 1.389 . S
C860 C859 1.389 . S
C860 C861 1.387 1_565 S
C861 H846 0.930 . S
C861 C856 1.390 . S
C861 C860 1.387 1_545 S
H862 C874 0.930 . S
H863 C876 0.930 . S
H864 C877 0.930 . S
H865 C881 0.959 . S
H866 C881 0.959 . S
H867 C881 0.961 . S
H868 C882 0.960 . S
H869 C882 0.961 . S
H870 C882 0.959 . S
H871 C885 0.929 . S
H872 C886 0.931 . S
H873 C888 0.930 . S
C874 H862 0.930 . S
C874 C875 1.399 . S
C874 C879 1.399 . S
C875 C874 1.399 . S
C875 C876 1.376 . S
C876 H863 0.930 . S
C876 C875 1.376 . S
C876 C877 1.388 . S
C877 H864 0.930 . S
C877 C876 1.388 . S
C877 C878 1.390 . S
C878 C877 1.390 . S
C878 C879 1.394 . S
C878 C884 1.465 . S
C879 C874 1.399 . S
C879 C878 1.394 . S
C879 C880 1.516 . S
C880 C879 1.516 . S
C880 C881 1.502 . S
C880 C882 1.561 . S
C880 C883 1.526 . S
C881 H865 0.959 . S
C881 H866 0.959 . S
C881 H867 0.961 . S
C881 C880 1.502 . S
C882 H868 0.960 . S
C882 H869 0.961 . S
C882 H870 0.959 . S
C882 C880 1.561 . S
C883 C880 1.526 . S
C883 C884 1.396 . S
C883 C888 1.390 . S
C884 C878 1.465 . S
C884 C883 1.396 . S
C884 C885 1.399 . S
C885 H871 0.929 . S
C885 C884 1.399 . S
C885 C886 1.385 . S
C886 H872 0.931 . S
C886 C885 1.385 . S
C886 C887 1.389 . S
C887 C886 1.389 . S
C887 C888 1.387 . S
C888 H873 0.930 . S
C888 C883 1.390 . S
C888 C887 1.387 . S
H889 C901 0.930 . S
H890 C903 0.930 . S
H891 C904 0.930 . S
H892 C908 0.959 . S
H893 C908 0.959 . S
H894 C908 0.961 . S
H895 C909 0.960 . S
H896 C909 0.961 . S
H897 C909 0.959 . S
H898 C912 0.929 . S
H899 C913 0.931 . S
H900 C915 0.930 . S
C901 H889 0.930 . S
C901 C902 1.399 . S
C901 C906 1.399 . S
C902 C901 1.399 . S
C902 C903 1.376 . S
C903 H890 0.930 . S
C903 C902 1.376 . S
C903 C904 1.388 . S
C904 H891 0.930 . S
C904 C903 1.388 . S
C904 C905 1.390 . S
C905 C904 1.390 . S
C905 C906 1.394 . S
C905 C911 1.465 . S
C906 C901 1.399 . S
C906 C905 1.394 . S
C906 C907 1.516 . S
C907 C906 1.516 . S
C907 C908 1.502 . S
C907 C909 1.561 . S
C907 C910 1.526 . S
C908 H892 0.959 . S
C908 H893 0.959 . S
C908 H894 0.961 . S
C908 C907 1.502 . S
C909 H895 0.960 . S
C909 H896 0.961 . S
C909 H897 0.959 . S
C909 C907 1.561 . S
C910 C907 1.526 . S
C910 C911 1.396 . S
C910 C915 1.390 . S
C911 C905 1.465 . S
C911 C910 1.396 . S
C911 C912 1.399 . S
C912 H898 0.929 . S
C912 C911 1.399 . S
C912 C913 1.385 . S
C913 H899 0.931 . S
C913 C912 1.385 . S
C913 C914 1.389 . S
C914 C913 1.389 . S
C914 C915 1.387 . S
C915 H900 0.930 . S
C915 C910 1.390 . S
C915 C914 1.387 . S
H916 C928 0.924 1_556 S
H917 C930 0.930 . S
H918 C931 0.930 . S
H919 C935 0.959 . S
H920 C935 0.959 . S
H921 C935 0.961 1_655 S
H922 C936 0.960 . S
H923 C936 0.961 . S
H924 C936 0.959 . S
H925 C939 0.929 1_554 S
H926 C940 0.931 . S
H927 C942 0.930 . S
C928 H916 0.924 1_554 S
C928 C929 1.410 . S
C928 C933 1.394 1_554 S
C929 C928 1.410 . S
C929 C930 1.376 . S
C930 H917 0.930 . S
C930 C929 1.376 . S
C930 C931 1.388 . S
C931 H918 0.930 . S
C931 C930 1.388 . S
C931 C932 1.390 . S
C932 C931 1.390 . S
C932 C933 1.394 1_554 S
C932 C938 1.465 1_554 S
C933 C928 1.394 1_556 S
C933 C932 1.394 1_556 S
C933 C934 1.516 . S
C934 C933 1.516 . S
C934 C935 1.502 1_655 S
C934 C936 1.561 . S
C934 C937 1.526 . S
C935 H919 0.959 . S
C935 H920 0.959 . S
C935 H921 0.961 1_455 S
C935 C934 1.502 1_455 S
C936 H922 0.960 . S
C936 H923 0.961 . S
C936 H924 0.959 . S
C936 C934 1.561 . S
C937 C934 1.526 . S
C937 C938 1.396 . S
C937 C942 1.390 1_655 S
C938 C932 1.465 1_556 S
C938 C937 1.396 . S
C938 C939 1.399 . S
C939 H925 0.929 1_556 S
C939 C938 1.399 . S
C939 C940 1.385 . S
C940 H926 0.931 . S
C940 C939 1.385 . S
C940 C941 1.389 1_655 S
C941 C940 1.389 1_455 S
C941 C942 1.387 . S
C942 H927 0.930 . S
C942 C937 1.390 1_455 S
C942 C941 1.387 . S
H943 C955 0.930 . S
H944 C957 0.930 . S
H945 C958 0.930 . S
H946 C962 0.959 1_565 S
H947 C962 0.959 . S
H948 C962 0.961 . S
H949 C963 0.960 . S
H950 C963 0.961 . S
H951 C963 0.959 1_556 S
H952 C966 0.929 . S
H953 C967 0.931 . S
H954 C969 0.930 . S
C955 H943 0.930 . S
C955 C956 1.399 . S
C955 C960 1.399 . S
C956 C955 1.399 . S
C956 C957 1.376 1_554 S
C957 H944 0.930 . S
C957 C956 1.376 1_556 S
C957 C958 1.388 . S
C958 H945 0.930 . S
C958 C957 1.388 . S
C958 C959 1.390 . S
C959 C958 1.390 . S
C959 C960 1.394 1_556 S
C959 C965 1.465 . S
C960 C955 1.399 . S
C960 C959 1.394 1_554 S
C960 C961 1.516 1_565 S
C961 C960 1.516 1_545 S
C961 C962 1.502 . S
C961 C963 1.561 . S
C961 C964 1.524 1_544 S
C962 H946 0.959 1_545 S
C962 H947 0.959 . S
C962 H948 0.961 . S
C962 C961 1.502 . S
C963 H949 0.960 . S
C963 H950 0.961 . S
C963 H951 0.959 1_554 S
C963 C961 1.561 . S
C964 C961 1.524 1_566 S
C964 C965 1.419 . S
C964 C969 1.372 1_565 S
C965 C959 1.465 . S
C965 C964 1.419 . S
C965 C966 1.399 . S
C966 H952 0.929 . S
C966 C965 1.399 . S
C966 C967 1.385 . S
C967 H953 0.931 . S
C967 C966 1.385 . S
C967 C968 1.389 1_565 S
C968 C967 1.389 1_545 S
C968 C969 1.387 . S
C969 H954 0.930 . S
C969 C964 1.372 1_545 S
C969 C968 1.387 . S
H970 C982 0.930 . S
H971 C984 0.930 . S
H972 C985 0.930 . S
H973 C989 0.959 . S
H974 C989 0.959 . S
H975 C989 0.961 . S
H976 C990 0.960 . S
H977 C990 0.961 . S
H978 C990 0.959 . S
H979 C993 0.929 . S
H980 C994 0.931 . S
H981 C996 0.930 . S
C982 H970 0.930 . S
C982 C983 1.399 . S
C982 C987 1.399 . S
C983 C982 1.399 . S
C983 C984 1.376 1_554 S
C984 H971 0.930 . S
C984 C983 1.376 1_556 S
C984 C985 1.388 . S
C985 H972 0.930 . S
C985 C984 1.388 . S
C985 C986 1.390 . S
C986 C985 1.390 . S
C986 C987 1.394 1_556 S
C986 C992 1.465 . S
C987 C982 1.399 . S
C987 C986 1.394 1_554 S
C987 C988 1.516 . S
C988 C987 1.516 . S
C988 C989 1.502 . S
C988 C990 1.561 . S
C988 C991 1.526 1_554 S
C989 H973 0.959 . S
C989 H974 0.959 . S
C989 H975 0.961 . S
C989 C988 1.502 . S
C990 H976 0.960 . S
C990 H977 0.961 . S
C990 H978 0.959 . S
C990 C988 1.561 . S
C991 C988 1.526 1_556 S
C991 C992 1.396 . S
C991 C996 1.390 . S
C992 C986 1.465 . S
C992 C991 1.396 . S
C992 C993 1.399 . S
C993 H979 0.929 . S
C993 C992 1.399 . S
C993 C994 1.385 . S
C994 H980 0.931 . S
C994 C993 1.385 . S
C994 C995 1.389 . S
C995 C994 1.389 . S
C995 C996 1.387 . S
C996 H981 0.930 . S
C996 C991 1.390 . S
C996 C995 1.387 . S
H997 C1009 0.930 . S
H998 C1011 0.932 . S
H999 C1012 0.930 . S
H1000 C1016 0.959 1_556 S
H1001 C1016 0.959 . S
H1002 C1016 0.961 . S
H1003 C1017 0.960 . S
H1004 C1017 0.961 . S
H1005 C1017 0.959 . S
H1006 C1020 0.929 . S
H1007 C1021 0.931 . S
H1008 C1023 0.930 . S
C1009 H997 0.930 . S
C1009 C1010 1.399 . S
C1009 C1014 1.399 . S
C1010 C1009 1.399 . S
C1010 C1011 1.369 1_554 S
C1011 H998 0.932 . S
C1011 C1010 1.369 1_556 S
C1011 C1012 1.394 . S
C1012 H999 0.930 . S
C1012 C1011 1.394 . S
C1012 C1013 1.390 . S
C1013 C1012 1.390 . S
C1013 C1014 1.394 1_556 S
C1013 C1019 1.465 . S
C1014 C1009 1.399 . S
C1014 C1013 1.394 1_554 S
C1014 C1015 1.516 . S
C1015 C1014 1.516 . S
C1015 C1016 1.502 . S
C1015 C1017 1.561 . S
C1015 C1018 1.526 1_554 S
C1016 H1000 0.959 1_554 S
C1016 H1001 0.959 . S
C1016 H1002 0.961 . S
C1016 C1015 1.502 . S
C1017 H1003 0.960 . S
C1017 H1004 0.961 . S
C1017 H1005 0.959 . S
C1017 C1015 1.561 . S
C1018 C1015 1.526 1_556 S
C1018 C1019 1.396 . S
C1018 C1023 1.390 . S
C1019 C1013 1.465 . S
C1019 C1018 1.396 . S
C1019 C1020 1.399 . S
C1020 H1006 0.929 . S
C1020 C1019 1.399 . S
C1020 C1021 1.385 . S
C1021 H1007 0.931 . S
C1021 C1020 1.385 . S
C1021 C1022 1.389 . S
C1022 C1021 1.389 . S
C1022 C1023 1.387 . S
C1023 H1008 0.930 . S
C1023 C1018 1.390 . S
C1023 C1022 1.387 . S
H1024 C1036 0.930 . S
H1025 C1038 0.930 . S
H1026 C1039 0.930 . S
H1027 C1043 0.959 . S
H1028 C1043 0.959 . S
H1029 C1043 0.961 . S
H1030 C1044 0.960 . S
H1031 C1044 0.961 . S
H1032 C1044 0.959 . S
H1033 C1047 0.929 . S
H1034 C1048 0.931 . S
H1035 C1050 0.930 . S
C1036 H1024 0.930 . S
C1036 C1037 1.399 . S
C1036 C1041 1.399 . S
C1037 C1036 1.399 . S
C1037 C1038 1.376 . S
C1038 H1025 0.930 . S
C1038 C1037 1.376 . S
C1038 C1039 1.388 . S
C1039 H1026 0.930 . S
C1039 C1038 1.388 . S
C1039 C1040 1.390 . S
C1040 C1039 1.390 . S
C1040 C1041 1.394 . S
C1040 C1046 1.465 . S
C1041 C1036 1.399 . S
C1041 C1040 1.394 . S
C1041 C1042 1.516 . S
C1042 C1041 1.516 . S
C1042 C1043 1.502 . S
C1042 C1044 1.561 . S
C1042 C1045 1.526 . S
C1043 H1027 0.959 . S
C1043 H1028 0.959 . S
C1043 H1029 0.961 . S
C1043 C1042 1.502 . S
C1044 H1030 0.960 . S
C1044 H1031 0.961 . S
C1044 H1032 0.959 . S
C1044 C1042 1.561 . S
C1045 C1042 1.526 . S
C1045 C1046 1.396 . S
C1045 C1050 1.390 . S
C1046 C1040 1.465 . S
C1046 C1045 1.396 . S
C1046 C1047 1.399 . S
C1047 H1033 0.929 . S
C1047 C1046 1.399 . S
C1047 C1048 1.385 . S
C1048 H1034 0.931 . S
C1048 C1047 1.385 . S
C1048 C1049 1.389 . S
C1049 C1048 1.389 . S
C1049 C1050 1.387 . S
C1050 H1035 0.930 . S
C1050 C1045 1.390 . S
C1050 C1049 1.387 . S
H1051 C1063 0.930 . S
H1052 C1065 0.930 . S
H1053 C1066 0.930 . S
H1054 C1070 0.959 . S
H1055 C1070 0.959 . S
H1056 C1070 0.961 . S
H1057 C1071 0.960 . S
H1058 C1071 0.961 . S
H1059 C1071 0.959 1_565 S
H1060 C1074 0.929 . S
H1061 C1075 0.931 . S
H1062 C1077 0.930 . S
C1063 H1051 0.930 . S
C1063 C1064 1.399 . S
C1063 C1068 1.399 . S
C1064 C1063 1.399 . S
C1064 C1065 1.376 . S
C1065 H1052 0.930 . S
C1065 C1064 1.376 . S
C1065 C1066 1.388 . S
C1066 H1053 0.930 . S
C1066 C1065 1.388 . S
C1066 C1067 1.390 . S
C1067 C1066 1.390 . S
C1067 C1068 1.394 . S
C1067 C1073 1.465 . S
C1068 C1063 1.399 . S
C1068 C1067 1.394 . S
C1068 C1069 1.516 . S
C1069 C1068 1.516 . S
C1069 C1070 1.502 . S
C1069 C1071 1.561 . S
C1069 C1072 1.526 . S
C1070 H1054 0.959 . S
C1070 H1055 0.959 . S
C1070 H1056 0.961 . S
C1070 C1069 1.502 . S
C1071 H1057 0.960 . S
C1071 H1058 0.961 . S
C1071 H1059 0.959 1_545 S
C1071 C1069 1.561 . S
C1072 C1069 1.526 . S
C1072 C1073 1.396 . S
C1072 C1077 1.390 . S
C1073 C1067 1.465 . S
C1073 C1072 1.396 . S
C1073 C1074 1.399 . S
C1074 H1060 0.929 . S
C1074 C1073 1.399 . S
C1074 C1075 1.385 . S
C1075 H1061 0.931 . S
C1075 C1074 1.385 . S
C1075 C1076 1.389 . S
C1076 C1075 1.389 . S
C1076 C1077 1.387 . S
C1077 H1062 0.930 . S
C1077 C1072 1.390 . S
C1077 C1076 1.387 . S
H1078 C1090 0.930 . S
H1079 C1092 0.930 . S
H1080 C1093 0.930 . S
H1081 C1097 0.959 . S
H1082 C1097 0.959 . S
H1083 C1097 0.961 . S
H1084 C1098 0.960 . S
H1085 C1098 0.961 . S
H1086 C1098 0.959 . S
H1087 C1101 0.929 . S
H1088 C1102 0.931 . S
H1089 C1104 0.930 . S
C1090 H1078 0.930 . S
C1090 C1091 1.399 . S
C1090 C1095 1.399 . S
C1091 C1090 1.399 . S
C1091 C1092 1.376 . S
C1092 H1079 0.930 . S
C1092 C1091 1.376 . S
C1092 C1093 1.388 . S
C1093 H1080 0.930 . S
C1093 C1092 1.388 . S
C1093 C1094 1.390 . S
C1094 C1093 1.390 . S
C1094 C1095 1.394 . S
C1094 C1100 1.465 . S
C1095 C1090 1.399 . S
C1095 C1094 1.394 . S
C1095 C1096 1.516 . S
C1096 C1095 1.516 . S
C1096 C1097 1.502 . S
C1096 C1098 1.561 . S
C1096 C1099 1.526 . S
C1097 H1081 0.959 . S
C1097 H1082 0.959 . S
C1097 H1083 0.961 . S
C1097 C1096 1.502 . S
C1098 H1084 0.960 . S
C1098 H1085 0.961 . S
C1098 H1086 0.959 . S
C1098 C1096 1.561 . S
C1099 C1096 1.526 . S
C1099 C1100 1.396 . S
C1099 C1104 1.390 . S
C1100 C1094 1.465 . S
C1100 C1099 1.396 . S
C1100 C1101 1.399 . S
C1101 H1087 0.929 . S
C1101 C1100 1.399 . S
C1101 C1102 1.385 . S
C1102 H1088 0.931 . S
C1102 C1101 1.385 . S
C1102 C1103 1.389 . S
C1103 C1102 1.389 . S
C1103 C1104 1.387 . S
C1104 H1089 0.930 . S
C1104 C1099 1.390 . S
C1104 C1103 1.387 . S
H1105 C1117 0.930 . S
H1106 C1119 0.930 . S
H1107 C1120 0.930 . S
H1108 C1124 0.959 . S
H1109 C1124 0.959 . S
H1110 C1124 0.961 . S
H1111 C1125 0.960 . S
H1112 C1125 0.961 . S
H1113 C1125 0.959 . S
H1114 C1128 0.929 . S
H1115 C1129 0.931 . S
H1116 C1131 0.930 . S
C1117 H1105 0.930 . S
C1117 C1118 1.399 . S
C1117 C1122 1.399 . S
C1118 C1117 1.399 . S
C1118 C1119 1.376 . S
C1119 H1106 0.930 . S
C1119 C1118 1.376 . S
C1119 C1120 1.388 . S
C1120 H1107 0.930 . S
C1120 C1119 1.388 . S
C1120 C1121 1.390 . S
C1121 C1120 1.390 . S
C1121 C1122 1.394 . S
C1121 C1127 1.465 . S
C1122 C1117 1.399 . S
C1122 C1121 1.394 . S
C1122 C1123 1.516 . S
C1123 C1122 1.516 . S
C1123 C1124 1.502 . S
C1123 C1125 1.561 . S
C1123 C1126 1.526 . S
C1124 H1108 0.959 . S
C1124 H1109 0.959 . S
C1124 H1110 0.961 . S
C1124 C1123 1.502 . S
C1125 H1111 0.960 . S
C1125 H1112 0.961 . S
C1125 H1113 0.959 . S
C1125 C1123 1.561 . S
C1126 C1123 1.526 . S
C1126 C1127 1.396 . S
C1126 C1131 1.390 . S
C1127 C1121 1.465 . S
C1127 C1126 1.396 . S
C1127 C1128 1.399 . S
C1128 H1114 0.929 . S
C1128 C1127 1.399 . S
C1128 C1129 1.385 . S
C1129 H1115 0.931 . S
C1129 C1128 1.385 . S
C1129 C1130 1.389 . S
C1130 C1129 1.389 . S
C1130 C1131 1.387 . S
C1131 H1116 0.930 . S
C1131 C1126 1.390 . S
C1131 C1130 1.387 . S
H1132 C1144 0.930 . S
H1133 C1146 0.930 . S
H1134 C1147 0.930 . S
H1135 C1151 0.959 . S
H1136 C1151 0.959 . S
H1137 C1151 0.961 . S
H1138 C1152 0.960 . S
H1139 C1152 0.961 . S
H1140 C1152 0.959 . S
H1141 C1155 0.929 . S
H1142 C1156 0.931 . S
H1143 C1158 0.930 . S
C1144 H1132 0.930 . S
C1144 C1145 1.399 . S
C1144 C1149 1.399 . S
C1145 C1144 1.399 . S
C1145 C1146 1.376 . S
C1146 H1133 0.930 . S
C1146 C1145 1.376 . S
C1146 C1147 1.388 . S
C1147 H1134 0.930 . S
C1147 C1146 1.388 . S
C1147 C1148 1.390 . S
C1148 C1147 1.390 . S
C1148 C1149 1.394 . S
C1148 C1154 1.465 . S
C1149 C1144 1.399 . S
C1149 C1148 1.394 . S
C1149 C1150 1.516 . S
C1150 C1149 1.516 . S
C1150 C1151 1.502 . S
C1150 C1152 1.561 . S
C1150 C1153 1.526 . S
C1151 H1135 0.959 . S
C1151 H1136 0.959 . S
C1151 H1137 0.961 . S
C1151 C1150 1.502 . S
C1152 H1138 0.960 . S
C1152 H1139 0.961 . S
C1152 H1140 0.959 . S
C1152 C1150 1.561 . S
C1153 C1150 1.526 . S
C1153 C1154 1.396 . S
C1153 C1158 1.390 . S
C1154 C1148 1.465 . S
C1154 C1153 1.396 . S
C1154 C1155 1.399 . S
C1155 H1141 0.929 . S
C1155 C1154 1.399 . S
C1155 C1156 1.385 . S
C1156 H1142 0.931 . S
C1156 C1155 1.385 . S
C1156 C1157 1.389 . S
C1157 C1156 1.389 . S
C1157 C1158 1.387 . S
C1158 H1143 0.930 . S
C1158 C1153 1.390 . S
C1158 C1157 1.387 . S
H1159 C1171 0.930 . S
H1160 C1173 0.930 . S
H1161 C1174 0.930 1_545 S
H1162 C1178 0.959 . S
H1163 C1178 0.959 . S
H1164 C1178 0.961 . S
H1165 C1179 0.960 . S
H1166 C1179 0.961 . S
H1167 C1179 0.959 . S
H1168 C1182 0.948 . S
H1169 C1183 0.938 . S
H1170 C1185 0.930 . S
C1171 H1159 0.930 . S
C1171 C1172 1.399 . S
C1171 C1176 1.399 . S
C1172 C1171 1.399 . S
C1172 C1173 1.376 . S
C1173 H1160 0.930 . S
C1173 C1172 1.376 . S
C1173 C1174 1.388 . S
C1174 H1161 0.930 1_565 S
C1174 C1173 1.388 . S
C1174 C1175 1.390 . S
C1175 C1174 1.390 . S
C1175 C1176 1.394 . S
C1175 C1181 1.465 . S
C1176 C1171 1.399 . S
C1176 C1175 1.394 . S
C1176 C1177 1.516 . S
C1177 C1176 1.516 . S
C1177 C1178 1.502 . S
C1177 C1179 1.561 . S
C1177 C1180 1.526 . S
C1178 H1162 0.959 . S
C1178 H1163 0.959 . S
C1178 H1164 0.961 . S
C1178 C1177 1.502 . S
C1179 H1165 0.960 . S
C1179 H1166 0.961 . S
C1179 H1167 0.959 . S
C1179 C1177 1.561 . S
C1180 C1177 1.526 . S
C1180 C1181 1.396 . S
C1180 C1185 1.390 . S
C1181 C1175 1.465 . S
C1181 C1180 1.396 . S
C1181 C1182 1.380 1_565 S
C1182 H1168 0.948 . S
C1182 C1181 1.380 1_545 S
C1182 C1183 1.385 . S
C1183 H1169 0.938 . S
C1183 C1182 1.385 . S
C1183 C1184 1.382 1_545 S
C1184 C1183 1.382 1_565 S
C1184 C1185 1.387 . S
C1185 H1170 0.930 . S
C1185 C1180 1.390 . S
C1185 C1184 1.387 . S
H1186 C1198 0.930 . S
H1187 C1200 0.930 . S
H1188 C1201 0.930 . S
H1189 C1205 0.959 . S
H1190 C1205 0.959 . S
H1191 C1205 0.961 . S
H1192 C1206 0.960 . S
H1193 C1206 0.961 . S
H1194 C1206 0.959 . S
H1195 C1209 0.929 . S
H1196 C1210 0.931 . S
H1197 C1212 0.930 . S
C1198 H1186 0.930 . S
C1198 C1199 1.399 . S
C1198 C1203 1.399 . S
C1199 C1198 1.399 . S
C1199 C1200 1.376 . S
C1200 H1187 0.930 . S
C1200 C1199 1.376 . S
C1200 C1201 1.388 . S
C1201 H1188 0.930 . S
C1201 C1200 1.388 . S
C1201 C1202 1.390 . S
C1202 C1201 1.390 . S
C1202 C1203 1.394 . S
C1202 C1208 1.465 . S
C1203 C1198 1.399 . S
C1203 C1202 1.394 . S
C1203 C1204 1.516 . S
C1204 C1203 1.516 . S
C1204 C1205 1.502 . S
C1204 C1206 1.561 . S
C1204 C1207 1.526 . S
C1205 H1189 0.959 . S
C1205 H1190 0.959 . S
C1205 H1191 0.961 . S
C1205 C1204 1.502 . S
C1206 H1192 0.960 . S
C1206 H1193 0.961 . S
C1206 H1194 0.959 . S
C1206 C1204 1.561 . S
C1207 C1204 1.526 . S
C1207 C1208 1.396 . S
C1207 C1212 1.390 . S
C1208 C1202 1.465 . S
C1208 C1207 1.396 . S
C1208 C1209 1.399 . S
C1209 H1195 0.929 . S
C1209 C1208 1.399 . S
C1209 C1210 1.385 . S
C1210 H1196 0.931 . S
C1210 C1209 1.385 . S
C1210 C1211 1.389 . S
C1211 C1210 1.389 . S
C1211 C1212 1.387 . S
C1212 H1197 0.930 . S
C1212 C1207 1.390 . S
C1212 C1211 1.387 . S
H1213 C1225 0.930 . S
H1214 C1227 0.930 . S
H1215 C1228 0.930 . S
H1216 C1232 0.959 . S
H1217 C1232 0.959 . S
H1218 C1232 0.961 . S
H1219 C1233 0.960 . S
H1220 C1233 0.961 . S
H1221 C1233 0.959 . S
H1222 C1236 0.929 . S
H1223 C1237 0.931 . S
H1224 C1239 0.930 . S
C1225 H1213 0.930 . S
C1225 C1226 1.399 . S
C1225 C1230 1.399 . S
C1226 C1225 1.399 . S
C1226 C1227 1.376 . S
C1227 H1214 0.930 . S
C1227 C1226 1.376 . S
C1227 C1228 1.388 . S
C1228 H1215 0.930 . S
C1228 C1227 1.388 . S
C1228 C1229 1.390 . S
C1229 C1228 1.390 . S
C1229 C1230 1.394 . S
C1229 C1235 1.465 . S
C1230 C1225 1.399 . S
C1230 C1229 1.394 . S
C1230 C1231 1.516 . S
C1231 C1230 1.516 . S
C1231 C1232 1.502 . S
C1231 C1233 1.561 . S
C1231 C1234 1.526 . S
C1232 H1216 0.959 . S
C1232 H1217 0.959 . S
C1232 H1218 0.961 . S
C1232 C1231 1.502 . S
C1233 H1219 0.960 . S
C1233 H1220 0.961 . S
C1233 H1221 0.959 . S
C1233 C1231 1.561 . S
C1234 C1231 1.526 . S
C1234 C1235 1.396 . S
C1234 C1239 1.390 . S
C1235 C1229 1.465 . S
C1235 C1234 1.396 . S
C1235 C1236 1.399 . S
C1236 H1222 0.929 . S
C1236 C1235 1.399 . S
C1236 C1237 1.385 . S
C1237 H1223 0.931 . S
C1237 C1236 1.385 . S
C1237 C1238 1.389 . S
C1238 C1237 1.389 . S
C1238 C1239 1.387 . S
C1239 H1224 0.930 . S
C1239 C1234 1.390 . S
C1239 C1238 1.387 . S
C605 C215 2.103 . S
C617 C330 2.187 . S
C644 C414 2.203 . S
C632 C247 2.129 . S
C671 C480 2.087 . S
C659 C151 2.294 . S
C698 C564 2.075 . S
C686 C183 2.239 . S
C725 C319 2.140 1_565 S
C713 C87 1.994 . S
C740 C119 2.040 . S
C752 C403 2.207 . S
C767 C23 2.098 . S
C779 C491 2.129 . S
C794 C55 2.128 . S
C806 C575 2.064 . S
C833 C326 0.648 . S
C821 C189 0.659 . S
C860 C410 0.556 . S
C848 C221 0.590 . S
C887 C482 0.475 . S
C875 C253 0.485 . S
C902 C157 0.573 . S
C914 C566 0.570 . S
C929 C61 0.789 . S
C941 C314 0.667 . S
C968 C398 0.647 . S
C956 C93 0.763 . S
C995 C494 0.643 . S
C983 C125 0.606 . S
C1010 C29 0.585 . S
C1022 C578 0.656 . S
C1037 C177 2.523 . S
C1049 C323 2.531 . S
C1064 C209 2.502 . S
C1076 C407 2.509 . S
C1103 C487 2.558 . S
C1091 C241 2.388 . S
C1130 C571 2.610 . S
C1118 C145 2.372 . S
C1145 C49 2.371 . S
C1157 C312 2.575 . S
C1184 C396 2.515 . S
C1172 C81 2.360 . S
C1211 C498 2.557 . S
C1199 C113 2.230 . S
C1226 C17 2.255 . S
C1238 C582 2.588 . S
