# Generated by pormake.
# Topology pyr, (3,6)-cn, num edge types: 1
# Building blocks:
#     Node 0, Type 0, BuildingBlock: CUQRIR_clean_linker_1, # of connection points: 3
#     Node 1, Type 0, BuildingBlock: CUQRIR_clean_linker_1, # of connection points: 3
#     Node 2, Type 0, BuildingBlock: CUQRIR_clean_linker_1, # of connection points: 3
#     Node 3, Type 0, BuildingBlock: CUQRIR_clean_linker_1, # of connection points: 3
#     Node 4, Type 0, BuildingBlock: CUQRIR_clean_linker_1, # of connection points: 3
#     Node 5, Type 0, BuildingBlock: CUQRIR_clean_linker_1, # of connection points: 3
#     Node 6, Type 0, BuildingBlock: CUQRIR_clean_linker_1, # of connection points: 3
#     Node 7, Type 0, BuildingBlock: CUQRIR_clean_linker_1, # of connection points: 3
#     Node 8, Type 1, BuildingBlock: LEVNOQ01_clean_sbu_1, # of connection points: 6
#     Node 9, Type 1, BuildingBlock: LEVNOQ01_clean_sbu_1, # of connection points: 6
#     Node 10, Type 1, BuildingBlock: LEVNOQ01_clean_sbu_1, # of connection points: 6
#     Node 11, Type 1, BuildingBlock: LEVNOQ01_clean_sbu_1, # of connection points: 6
#     Edge 12, Type (0, 1), BuildingBlock: TEMPAE_clean_linker_10, # of connection points: 2
#     Edge 13, Type (0, 1), BuildingBlock: TEMPAE_clean_linker_10, # of connection points: 2
#     Edge 14, Type (0, 1), BuildingBlock: TEMPAE_clean_linker_10, # of connection points: 2
#     Edge 15, Type (0, 1), BuildingBlock: TEMPAE_clean_linker_10, # of connection points: 2
#     Edge 16, Type (0, 1), BuildingBlock: TEMPAE_clean_linker_10, # of connection points: 2
#     Edge 17, Type (0, 1), BuildingBlock: TEMPAE_clean_linker_10, # of connection points: 2
#     Edge 18, Type (0, 1), BuildingBlock: TEMPAE_clean_linker_10, # of connection points: 2
#     Edge 19, Type (0, 1), BuildingBlock: TEMPAE_clean_linker_10, # of connection points: 2
#     Edge 20, Type (0, 1), BuildingBlock: TEMPAE_clean_linker_10, # of connection points: 2
#     Edge 21, Type (0, 1), BuildingBlock: TEMPAE_clean_linker_10, # of connection points: 2
#     Edge 22, Type (0, 1), BuildingBlock: TEMPAE_clean_linker_10, # of connection points: 2
#     Edge 23, Type (0, 1), BuildingBlock: TEMPAE_clean_linker_10, # of connection points: 2
#     Edge 24, Type (0, 1), BuildingBlock: TEMPAE_clean_linker_10, # of connection points: 2
#     Edge 25, Type (0, 1), BuildingBlock: TEMPAE_clean_linker_10, # of connection points: 2
#     Edge 26, Type (0, 1), BuildingBlock: TEMPAE_clean_linker_10, # of connection points: 2
#     Edge 27, Type (0, 1), BuildingBlock: TEMPAE_clean_linker_10, # of connection points: 2
#     Edge 28, Type (0, 1), BuildingBlock: TEMPAE_clean_linker_10, # of connection points: 2
#     Edge 29, Type (0, 1), BuildingBlock: TEMPAE_clean_linker_10, # of connection points: 2
#     Edge 30, Type (0, 1), BuildingBlock: TEMPAE_clean_linker_10, # of connection points: 2
#     Edge 31, Type (0, 1), BuildingBlock: TEMPAE_clean_linker_10, # of connection points: 2
#     Edge 32, Type (0, 1), BuildingBlock: TEMPAE_clean_linker_10, # of connection points: 2
#     Edge 33, Type (0, 1), BuildingBlock: TEMPAE_clean_linker_10, # of connection points: 2
#     Edge 34, Type (0, 1), BuildingBlock: TEMPAE_clean_linker_10, # of connection points: 2
#     Edge 35, Type (0, 1), BuildingBlock: TEMPAE_clean_linker_10, # of connection points: 2
# Relax obj value: 0.104
# Max RMSD: 0.218
# Mean RMSD: 0.159
data_MOF--net-pry--node1-LEVNOQ01_clean_sbu_1--node2-CUQRIR_clean_linker_1--edge1-TEMPAE_clean_linker_10
_symmetry_space_group_name_H-M    P1
_symmetry_Int_Tables_number       1
_symmetry_cell_setting            triclinic
loop_
_symmetry_equiv_pos_as_xyz
'x, y, z'
_cell_length_a     35.190106
_cell_length_b     33.856335
_cell_length_c     32.962824
_cell_angle_alpha  90.639425
_cell_angle_beta   92.482875
_cell_angle_gamma 96.008271
loop_
_atom_site_label
_atom_site_type_symbol
_atom_site_fract_x
_atom_site_fract_y
_atom_site_fract_z
_atom_type_partial_charge
C0 C 0.14318 0.19334 0.16025 0.0
N1 N 0.16752 0.16614 0.17037 0.0
N2 N 0.15125 0.20947 0.12386 0.0
C3 C 0.11178 0.20467 0.1862 0.0
C4 C 0.18142 0.19114 0.11205 0.0
N5 N 0.19123 0.16451 0.14013 0.0
C6 C 0.20194 0.19999 0.07365 0.0
H7 H 0.08869 0.2165 0.1675 0.0
H8 H 0.12386 0.22815 0.20826 0.0
H9 H 0.09958 0.17876 0.20348 0.0
H10 H 0.22768 0.22114 0.08083 0.0
H11 H 0.18338 0.21361 0.05087 0.0
H12 H 0.21151 0.17246 0.06074 0.0
C13 C 0.36116 0.86598 0.6129 0.0
N14 N 0.35373 0.89464 0.63947 0.0
N15 N 0.39644 0.85483 0.62061 0.0
C16 C 0.33412 0.84901 0.57895 0.0
C17 C 0.41038 0.87776 0.65294 0.0
N18 N 0.38461 0.90259 0.66417 0.0
C19 C 0.44731 0.87282 0.67621 0.0
H20 H 0.31383 0.82524 0.59114 0.0
H21 H 0.34985 0.836 0.55451 0.0
H22 H 0.31737 0.87225 0.56599 0.0
H23 H 0.46903 0.89748 0.66865 0.0
H24 H 0.45834 0.84428 0.66853 0.0
H25 H 0.44329 0.87425 0.70938 0.0
C26 C 0.6429 0.34747 0.81184 0.0
N27 N 0.65564 0.34077 0.85017 0.0
N28 N 0.65353 0.38528 0.80172 0.0
C29 C 0.61823 0.31815 0.78478 0.0
C30 C 0.67198 0.40197 0.83533 0.0
N31 N 0.67307 0.37487 0.86519 0.0
C32 C 0.69325 0.44291 0.83678 0.0
H33 H 0.63683 0.3008 0.76682 0.0
H34 H 0.6001 0.33377 0.7632 0.0
H35 H 0.59956 0.29739 0.80296 0.0
H36 H 0.69117 0.45737 0.86679 0.0
H37 H 0.68208 0.46203 0.81293 0.0
H38 H 0.72377 0.44036 0.83148 0.0
C39 C 0.86253 0.59834 0.38304 0.0
N40 N 0.89401 0.62192 0.37307 0.0
N41 N 0.85619 0.6024 0.42294 0.0
C42 C 0.83592 0.57404 0.35317 0.0
C43 C 0.88505 0.62933 0.43687 0.0
N44 N 0.90855 0.64074 0.4067 0.0
C45 C 0.88711 0.64876 0.47828 0.0
H46 H 0.81487 0.59312 0.34004 0.0
H47 H 0.82003 0.54874 0.36836 0.0
H48 H 0.85197 0.56269 0.32804 0.0
H49 H 0.86621 0.63334 0.49857 0.0
H50 H 0.88126 0.6802 0.4752 0.0
H51 H 0.91633 0.64865 0.49228 0.0
C52 C 0.84562 0.88307 0.90067 0.0
N53 N 0.86935 0.86766 0.87468 0.0
N54 N 0.82495 0.9095 0.88165 0.0
C55 C 0.83997 0.86972 0.94363 0.0
C56 C 0.83631 0.9092 0.843 0.0
N57 N 0.86307 0.8836 0.83853 0.0
C58 C 0.82228 0.93506 0.80994 0.0
H59 H 0.84234 0.8374 0.94619 0.0
H60 H 0.8117 0.8761 0.95418 0.0
H61 H 0.86254 0.88583 0.96391 0.0
H62 H 0.80816 0.95998 0.8226 0.0
H63 H 0.80136 0.91679 0.78949 0.0
H64 H 0.84638 0.94716 0.79154 0.0
C65 C 0.6881 0.17688 0.43497 0.0
N66 N 0.69586 0.14629 0.41081 0.0
N67 N 0.65179 0.18551 0.42765 0.0
C68 C 0.7156 0.19792 0.46622 0.0
C69 C 0.63773 0.15932 0.39811 0.0
N70 N 0.66426 0.135 0.38818 0.0
C71 C 0.59962 0.16038 0.3757 0.0
H72 H 0.70027 0.21374 0.48906 0.0
H73 H 0.73538 0.21999 0.45081 0.0
H74 H 0.73291 0.1765 0.48172 0.0
H75 H 0.6039 0.16233 0.34263 0.0
H76 H 0.58458 0.18584 0.38537 0.0
H77 H 0.58126 0.13241 0.38103 0.0
C78 C 0.33415 0.65823 0.15744 0.0
N79 N 0.36051 0.67944 0.18242 0.0
N80 N 0.32552 0.67969 0.1246 0.0
C81 C 0.31369 0.61828 0.16699 0.0
C82 C 0.34656 0.71498 0.13083 0.0
N83 N 0.36781 0.71491 0.16596 0.0
C84 C 0.34643 0.74953 0.10261 0.0
H85 H 0.32714 0.59477 0.15087 0.0
H86 H 0.28323 0.61643 0.1563 0.0
H87 H 0.31511 0.61259 0.20007 0.0
H88 H 0.33383 0.77404 0.118 0.0
H89 H 0.32986 0.74146 0.0738 0.0
H90 H 0.37616 0.76036 0.0954 0.0
C91 C 0.09938 0.37942 0.6307 0.0
N92 N 0.11977 0.37381 0.59765 0.0
N93 N 0.11447 0.41225 0.65175 0.0
C94 C 0.06791 0.35015 0.64526 0.0
C95 C 0.1447 0.42648 0.63027 0.0
N96 N 0.14776 0.40321 0.59717 0.0
C97 C 0.17352 0.4605 0.64387 0.0
H98 H 0.04553 0.36578 0.6593 0.0
H99 H 0.0801 0.33125 0.66873 0.0
H100 H 0.05464 0.33079 0.61999 0.0
H101 H 0.199 0.44847 0.65802 0.0
H102 H 0.16154 0.47989 0.66635 0.0
H103 H 0.18299 0.47839 0.61747 0.0
O104 O 0.986 0.01969 0.60333 0.0
Mg105 Mg 0.03684 0.04333 0.58003 0.0
O106 O 0.9919 0.9732 0.55788 0.0
Mg107 Mg 0.02654 0.00604 0.50256 0.0
O108 O 0.0353 0.07236 0.52658 0.0
O109 O 0.04338 0.10244 0.58805 0.0
O110 O 0.06306 0.03701 0.44888 0.0
O111 O 0.96521 0.02596 0.47866 0.0
Mg112 Mg -0.00024 0.9769 0.43054 0.0
O113 O 0.02004 0.93959 0.47445 0.0
O114 O 0.03298 0.01342 0.3928 0.0
O115 O 0.94269 0.98638 0.42834 0.0
O116 O 0.00401 0.92261 0.40908 0.0
C117 C 0.1026 -0.00334 0.56651 0.0
C118 C 0.97724 0.98468 0.59046 0.0
C119 C 0.04034 0.10454 0.54902 0.0
C120 C 0.05945 0.03612 0.41009 0.0
C121 C 0.93814 0.01426 0.45261 0.0
C122 C 0.01498 0.91306 0.44504 0.0
O123 O 0.08709 0.01655 0.59273 0.0
O124 O 0.08628 0.98995 0.53119 0.0
O125 O 0.44357 0.10088 0.05359 0.0
Mg126 Mg 0.5026 0.10835 0.05434 0.0
O127 O 0.44808 0.03634 0.05251 0.0
Mg128 Mg 0.51169 0.02507 0.03175 0.0
O129 O 0.52824 0.08751 0.005 0.0
O130 O 0.52266 0.15204 0.01794 0.0
O131 O 0.57433 0.01259 0.01112 0.0
O132 O 0.48302 0.00605 0.96557 0.0
Mg133 Mg 0.51927 0.93567 0.01311 0.0
O134 O 0.49716 0.96403 0.0594 0.0
O135 O 0.57818 0.94775 0.01337 0.0
O136 O 0.48854 0.94175 0.95805 0.0
O137 O 0.49738 0.89808 0.05585 0.0
C138 C 0.54646 0.07266 0.12035 0.0
C139 C 0.42819 0.06579 0.05637 0.0
C140 C 0.53433 0.12473 0.99544 0.0
C141 C 0.59381 0.98267 0.00887 0.0
C142 C 0.47755 0.97369 0.94431 0.0
C143 C 0.48903 0.92935 0.07485 0.0
O144 O 0.53312 0.10452 0.10997 0.0
O145 O 0.54153 0.04208 0.09677 0.0
O146 O 0.48848 0.58402 0.58695 0.0
Mg147 Mg 0.47954 0.52388 0.60198 0.0
O148 O 0.48853 0.57742 0.5194 0.0
Mg149 Mg 0.49817 0.51052 0.50346 0.0
O150 O 0.51544 0.49945 0.56653 0.0
O151 O 0.52198 0.49476 0.63265 0.0
O152 O 0.51127 0.44303 0.49431 0.0
O153 O 0.56209 0.53126 0.49321 0.0
Mg154 Mg 0.50977 0.48095 0.42855 0.0
O155 O 0.47871 0.52756 0.43755 0.0
O156 O 0.48609 0.42222 0.43539 0.0
O157 O 0.56938 0.49466 0.43888 0.0
O158 O 0.49224 0.50387 0.37614 0.0
C159 C 0.41272 0.48532 0.54609 0.0
C160 C 0.48839 0.59896 0.55175 0.0
C161 C 0.53384 0.48721 0.59728 0.0
C162 C 0.50197 0.41449 0.46892 0.0
C163 C 0.58349 0.51849 0.46681 0.0
C164 C 0.47605 0.52844 0.39812 0.0
O165 O 0.42572 0.49559 0.5817 0.0
O166 O 0.43372 0.48877 0.5152 0.0
O167 O 0.99042 0.45148 0.07412 0.0
Mg168 Mg 0.00924 0.51212 0.07127 0.0
O169 O 0.01849 0.46646 0.01831 0.0
Mg170 Mg 0.99374 0.5306 0.00441 0.0
O171 O 0.97106 0.55335 0.06871 0.0
O172 O -0.00024 0.53315 0.12616 0.0
O173 O 0.971 0.59565 0.98778 0.0
O174 O 0.93376 0.49566 0.99583 0.0
Mg175 Mg 0.97624 0.54505 0.93472 0.0
O176 O 0.01755 0.50803 0.94179 0.0
O177 O -0.00384 0.60441 0.92908 0.0
O178 O 0.9175 0.52791 0.94193 0.0
O179 O 0.98764 0.52 0.88207 0.0
C180 C 0.07813 0.55425 0.03876 0.0
C181 C 0.00955 0.44077 0.04541 0.0
C182 C 0.97587 0.55408 0.10819 0.0
C183 C 0.98093 0.61892 0.95869 0.0
C184 C 0.90842 0.50345 0.96941 0.0
C185 C 0.01375 0.50391 0.90249 0.0
O186 O 0.06838 0.52858 0.0649 0.0
O187 O 0.05319 0.56456 0.01325 0.0
C188 C 0.15469 0.10524 0.20974 0.0
C189 C 0.16851 0.14544 0.20834 0.0
C190 C 0.14442 0.08756 0.24673 0.0
C191 C 0.14746 0.11091 0.28302 0.0
C192 C 0.16443 0.1507 0.28206 0.0
C193 C 0.17487 0.16737 0.24475 0.0
C194 C 0.12705 0.04488 0.24626 0.0
C195 C 0.16808 0.17691 0.31964 0.0
C196 C 0.06683 0.08361 0.35388 0.0
C197 C 0.08434 0.06175 0.38385 0.0
C198 C 0.08753 0.10111 0.32212 0.0
C199 C 0.12684 0.09608 0.31962 0.0
C200 C 0.14519 0.07546 0.35085 0.0
C201 C 0.12369 0.05862 0.38281 0.0
C202 C 0.06673 0.12337 0.29009 0.0
C203 C 0.18689 0.06919 0.34923 0.0
H204 H 0.14906 0.08853 0.18153 0.0
H205 H 0.18523 0.19861 0.24344 0.0
H206 H 0.13857 0.02878 0.27241 0.0
H207 H 0.09565 0.04391 0.24903 0.0
H208 H 0.13254 0.02908 0.21772 0.0
H209 H 0.18749 0.20449 0.31551 0.0
H210 H 0.13946 0.18543 0.32672 0.0
H211 H 0.17887 0.16087 0.34619 0.0
H212 H 0.0363 0.08569 0.35444 0.0
H213 H 0.13711 0.04097 0.40546 0.0
H214 H 0.06579 0.10709 0.2606 0.0
H215 H 0.08217 0.1532 0.28576 0.0
H216 H 0.03693 0.12705 0.29802 0.0
H217 H 0.19064 0.04806 0.3241 0.0
H218 H 0.19806 0.05704 0.37801 0.0
H219 H 0.20431 0.09748 0.34282 0.0
C220 C 0.42004 0.95512 0.70712 0.0
C221 C 0.38803 0.92717 0.70054 0.0
C222 C 0.43075 0.97065 0.7462 0.0
C223 C 0.40879 0.95798 0.77962 0.0
C224 C 0.37418 0.93288 0.77226 0.0
C225 C 0.36427 0.91768 0.73277 0.0
C226 C 0.46784 -0.00284 0.75219 0.0
C227 C 0.34963 0.91874 0.80669 0.0
C228 C 0.4653 0.9392 0.87702 0.0
C229 C 0.45997 0.97191 0.90207 0.0
C230 C 0.44891 0.93473 0.83754 0.0
C231 C 0.42606 0.96357 0.82201 0.0
C232 C 0.42065 -0.00299 0.84674 0.0
C233 C 0.43786 0.00095 0.88646 0.0
C234 C 0.45625 0.89888 0.81238 0.0
C235 C 0.39644 0.02832 0.83131 0.0
H236 H 0.43835 0.96242 0.68208 0.0
H237 H 0.33972 0.89577 0.72777 0.0
H238 H 0.46492 0.02158 0.77415 0.0
H239 H 0.49031 0.97949 0.76479 0.0
H240 H 0.47761 0.01018 0.72315 0.0
H241 H 0.32062 0.90602 0.79554 0.0
H242 H 0.36336 0.89539 0.82349 0.0
H243 H 0.34683 0.94341 0.82842 0.0
H244 H 0.48269 0.91671 0.88822 0.0
H245 H 0.43352 0.0263 0.90542 0.0
H246 H 0.47027 0.90858 0.78413 0.0
H247 H 0.42878 0.88124 0.80333 0.0
H248 H 0.47475 0.8792 0.82894 0.0
H249 H 0.40801 0.04123 0.80302 0.0
H250 H 0.39516 0.05266 0.85393 0.0
H251 H 0.36692 0.01465 0.82361 0.0
C252 C 0.62451 0.4292 0.75471 0.0
C253 C 0.65055 0.40177 0.76229 0.0
C254 C 0.61695 0.44138 0.71517 0.0
C255 C 0.63631 0.42555 0.68266 0.0
C256 C 0.66469 0.39976 0.69081 0.0
C257 C 0.67135 0.38794 0.73086 0.0
C258 C 0.58622 0.46893 0.70823 0.0
C259 C 0.68736 0.38413 0.65745 0.0
C260 C 0.56108 0.42473 0.60325 0.0
C261 C 0.56666 0.46494 0.59395 0.0
C262 C 0.58889 0.4075 0.62648 0.0
C263 C 0.62206 0.43184 0.64067 0.0
C264 C 0.63138 0.46919 0.62289 0.0
C265 C 0.60297 0.48578 0.59969 0.0
C266 C 0.57893 0.36638 0.64267 0.0
C267 C 0.66785 0.49472 0.63496 0.0
H268 H 0.60879 0.43947 0.77964 0.0
H269 H 0.69193 0.367 0.73768 0.0
H270 H 0.59712 0.49492 0.69036 0.0
H271 H 0.56145 0.45296 0.6909 0.0
H272 H 0.57585 0.48009 0.73713 0.0
H273 H 0.70293 0.35887 0.6677 0.0
H274 H 0.66872 0.37447 0.63039 0.0
H275 H 0.70866 0.40829 0.64778 0.0
H276 H 0.53294 0.40862 0.59802 0.0
H277 H 0.60718 0.51693 0.59196 0.0
H278 H 0.56648 0.36878 0.67288 0.0
H279 H 0.6047 0.35032 0.64644 0.0
H280 H 0.55756 0.34862 0.62219 0.0
H281 H 0.66347 0.51212 0.66281 0.0
H282 H 0.67611 0.51598 0.61065 0.0
H283 H 0.69157 0.47629 0.64158 0.0
C284 C 0.94094 0.61037 0.32288 0.0
C285 C 0.9079 0.62702 0.33294 0.0
C286 C 0.95002 0.60617 0.28212 0.0
C287 C 0.92558 0.61952 0.25095 0.0
C288 C 0.89384 0.63936 0.26138 0.0
C289 C 0.88517 0.64256 0.30239 0.0
C290 C 0.98404 0.58459 0.2724 0.0
C291 C 0.86756 0.65469 0.22922 0.0
C292 C 0.96796 0.61504 0.14739 0.0
C293 C 0.95327 0.57677 0.1344 0.0
C294 C 0.95663 0.63117 0.18389 0.0
C295 C 0.93069 0.60797 0.20797 0.0
C296 C 0.91336 0.57069 0.19296 0.0
C297 C 0.9249 0.55558 0.15624 0.0
C298 C 0.97511 0.67134 0.1984 0.0
C299 C 0.88565 0.54484 0.2176 0.0
H300 H 0.95806 0.59815 0.3468 0.0
H301 H 0.85956 0.65537 0.31061 0.0
H302 H 0.97396 0.55557 0.25753 0.0
H303 H 0.00225 0.6019 0.25083 0.0
H304 H 0.00183 0.57907 0.30001 0.0
H305 H 0.84853 0.67529 0.24221 0.0
H306 H 0.88428 0.67027 0.20529 0.0
H307 H 0.84942 0.62933 0.21444 0.0
H308 H 0.99063 0.63094 0.13089 0.0
H309 H 0.91434 0.52556 0.14652 0.0
H310 H -0.00225 0.66739 0.22204 0.0
H311 H 0.9539 0.68878 0.21228 0.0
H312 H 0.98841 0.68861 0.17326 0.0
H313 H 0.90116 0.53387 0.24455 0.0
H314 H 0.87177 0.51878 0.19981 0.0
H315 H 0.86308 0.56215 0.22882 0.0
C316 C 0.26044 0.15996 0.14183 0.0
C317 C 0.22311 0.14111 0.13822 0.0
C318 C 0.29182 0.14014 0.13107 0.0
C319 C 0.28572 0.1004 0.11609 0.0
C320 C 0.2481 0.08059 0.11447 0.0
C321 C 0.21721 0.10132 0.1253 0.0
C322 C 0.33123 0.16267 0.13331 0.0
C323 C 0.24014 0.03839 0.09881 0.0
C324 C 0.36117 0.07899 0.04215 0.0
C325 C 0.38759 0.06128 0.06714 0.0
C326 C 0.32648 0.08902 0.05689 0.0
C327 C 0.31811 0.08176 0.09799 0.0
C328 C 0.34338 0.06106 0.1225 0.0
C329 C 0.37788 0.05103 0.10675 0.0
C330 C 0.30044 0.11061 0.02936 0.0
C331 C 0.33566 0.0526 0.16637 0.0
H332 H 0.26472 0.19097 0.1511 0.0
H333 H 0.18818 0.08718 0.12146 0.0
H334 H 0.35185 0.14511 0.14955 0.0
H335 H 0.34127 0.1677 0.10215 0.0
H336 H 0.33166 0.19195 0.14897 0.0
H337 H 0.21072 0.02536 0.10509 0.0
H338 H 0.24344 0.0377 0.0655 0.0
H339 H 0.26095 0.01949 0.11271 0.0
H340 H 0.36898 0.0877 0.0118 0.0
H341 H 0.39867 0.03833 0.12653 0.0
H342 H 0.30183 0.14216 0.03938 0.0
H343 H 0.27033 0.09751 0.03112 0.0
H344 H 0.30855 0.10972 0.99719 0.0
H345 H 0.34103 0.08063 0.18445 0.0
H346 H 0.35429 0.03092 0.1793 0.0
H347 H 0.3053 0.04095 0.16966 0.0
C348 C 0.28419 0.88987 0.6436 0.0
C349 C 0.31889 0.91334 0.63919 0.0
C350 C 0.24921 0.90385 0.63213 0.0
C351 C 0.24895 0.94247 0.61611 0.0
C352 C 0.28395 0.96712 0.61372 0.0
C353 C 0.31859 0.95216 0.62528 0.0
C354 C 0.21269 0.8766 0.63545 0.0
C355 C 0.28494 0.00859 0.59723 0.0
C356 C 0.16129 0.96309 0.5502 0.0
C357 C 0.14014 0.98226 0.57812 0.0
C358 C 0.19707 0.95043 0.56191 0.0
C359 C 0.21195 0.95703 0.60244 0.0
C360 C 0.19076 0.97639 0.63057 0.0
C361 C 0.15533 0.98869 0.61814 0.0
C362 C 0.2189 0.92981 0.53104 0.0
C363 C 0.20539 0.98385 0.67406 0.0
H364 H 0.28479 0.85963 0.65385 0.0
H365 H 0.34562 0.9698 0.62114 0.0
H366 H 0.19211 0.89122 0.65352 0.0
H367 H 0.19908 0.87023 0.60476 0.0
H368 H 0.21773 0.84798 0.64983 0.0
H369 H 0.31415 0.02467 0.59947 0.0
H370 H 0.27472 0.00715 0.56488 0.0
H371 H 0.26541 0.02595 0.61394 0.0
H372 H 0.14999 0.95809 0.51925 0.0
H373 H 0.13943 0.00341 0.64018 0.0
H374 H 0.22316 0.89942 0.54132 0.0
H375 H 0.24768 0.9461 0.5282 0.0
H376 H 0.20389 0.9276 0.50061 0.0
H377 H 0.20878 0.95517 0.68905 0.0
H378 H 0.18591 0.00025 0.69196 0.0
H379 H 0.23399 0.00116 0.67491 0.0
C380 C 0.69526 0.4076 0.92991 0.0
C381 C 0.69915 0.37888 0.89999 0.0
C382 C 0.7269 0.42268 0.95483 0.0
C383 C 0.76284 0.40877 0.94889 0.0
C384 C 0.76497 0.37518 0.92338 0.0
C385 C 0.73285 0.3606 0.89906 0.0
C386 C 0.72305 0.45725 0.98303 0.0
C387 C 0.80245 0.35869 0.91676 0.0
C388 C 0.84494 0.48742 0.9344 0.0
C389 C 0.86961 0.48193 0.96784 0.0
C390 C 0.80976 0.46455 0.92889 0.0
C391 C 0.7983 0.43574 0.95801 0.0
C392 C 0.82207 0.43135 0.99309 0.0
C393 C 0.85772 0.45446 0.99754 0.0
C394 C 0.78577 0.47012 0.89066 0.0
C395 C 0.81002 0.40224 0.02562 0.0
H396 H 0.66868 0.42106 0.93082 0.0
H397 H 0.73537 0.33808 0.87598 0.0
H398 H 0.74178 0.45595 0.01083 0.0
H399 H 0.73193 0.48541 0.96748 0.0
H400 H 0.69301 0.45792 0.99187 0.0
H401 H 0.79799 0.32833 0.90305 0.0
H402 H 0.81934 0.3783 0.89584 0.0
H403 H 0.81954 0.35769 0.94572 0.0
H404 H 0.8537 0.50872 0.91141 0.0
H405 H 0.8765 0.45053 0.0238 0.0
H406 H 0.75708 0.4777 0.89855 0.0
H407 H 0.78201 0.44204 0.87259 0.0
H408 H 0.79884 0.49401 0.87126 0.0
H409 H 0.78643 0.41337 0.04222 0.0
H410 H 0.83389 0.39818 0.04783 0.0
H411 H 0.79896 0.3729 0.01212 0.0
C412 C 0.81021 0.55516 0.45599 0.0
C413 C 0.82009 0.59302 0.44087 0.0
C414 C 0.77283 0.54386 0.46779 0.0
C415 C 0.74494 0.57104 0.4635 0.0
C416 C 0.75569 0.61016 0.4504 0.0
C417 C 0.7933 0.62068 0.43928 0.0
C418 C 0.76257 0.50208 0.48211 0.0
C419 C 0.72683 0.6399 0.44499 0.0
C420 C 0.64463 0.52794 0.43158 0.0
C421 C 0.62482 0.532 0.46714 0.0
C422 C 0.68368 0.54038 0.4303 0.0
C423 C 0.70375 0.55679 0.4657 0.0
C424 C 0.68416 0.56062 0.50195 0.0
C425 C 0.64469 0.54846 0.50216 0.0
C426 C 0.70332 0.53642 0.39076 0.0
C427 C 0.70492 0.57718 0.54045 0.0
H428 H 0.83134 0.53404 0.45692 0.0
H429 H 0.80147 0.64986 0.42725 0.0
H430 H 0.74474 0.5022 0.50904 0.0
H431 H 0.74551 0.48452 0.45776 0.0
H432 H 0.78839 0.48696 0.48995 0.0
H433 H 0.74066 0.67023 0.43925 0.0
H434 H 0.70685 0.63058 0.41884 0.0
H435 H 0.70957 0.64105 0.47226 0.0
H436 H 0.62942 0.51552 0.40428 0.0
H437 H 0.62952 0.55143 0.52975 0.0
H438 H 0.72701 0.51746 0.39492 0.0
H439 H 0.716 0.56603 0.38108 0.0
H440 H 0.68342 0.52326 0.36595 0.0
H441 H 0.72604 0.5569 0.55084 0.0
H442 H 0.6851 0.58083 0.56524 0.0
H443 H 0.72106 0.60637 0.53477 0.0
C444 C 0.10021 0.23304 0.07991 0.0
C445 C 0.1336 0.24127 0.10444 0.0
C446 C 0.08017 0.26394 0.06453 0.0
C447 C 0.09373 0.304 0.07435 0.0
C448 C 0.12838 0.31228 0.09803 0.0
C449 C 0.14787 0.28075 0.11278 0.0
C450 C 0.04357 0.25364 0.03935 0.0
C451 C 0.14383 0.35435 0.1096 0.0
C452 C 0.05389 0.39201 0.0211 0.0
C453 C 0.02754 0.40282 0.04894 0.0
C454 C 0.07476 0.35909 0.02809 0.0
C455 C 0.06964 0.33682 0.06404 0.0
C456 C 0.04223 0.34691 0.0915 0.0
C457 C 0.02139 0.37932 0.08344 0.0
C458 C 0.10314 0.34888 0.99765 0.0
C459 C 0.03597 0.32444 0.13042 0.0
H460 H 0.08928 0.20233 0.07384 0.0
H461 H 0.17362 0.28677 0.13205 0.0
H462 H 0.01888 0.26053 0.05699 0.0
H463 H 0.04351 0.2718 0.01154 0.0
H464 H 0.03935 0.2217 0.03036 0.0
H465 H 0.17259 0.35597 0.1252 0.0
H466 H 0.14568 0.37311 0.08224 0.0
H467 H 0.12403 0.36716 0.13017 0.0
H468 H 0.05898 0.40989 0.99441 0.0
H469 H 0.00119 0.38719 0.10529 0.0
H470 H 0.09842 0.31681 0.98945 0.0
H471 H 0.13259 0.35471 0.01131 0.0
H472 H 0.10119 0.36645 0.96951 0.0
H473 H 0.02838 0.29235 0.12367 0.0
H474 H 0.01297 0.3354 0.14816 0.0
H475 H 0.06282 0.32734 0.14967 0.0
C476 C 0.63482 0.30296 0.90953 0.0
C477 C 0.65041 0.30392 0.8713 0.0
C478 C 0.62225 0.26667 0.92695 0.0
C479 C 0.62483 0.23082 0.90503 0.0
C480 C 0.64342 0.23165 0.86788 0.0
C481 C 0.65666 0.26837 0.85178 0.0
C482 C 0.60359 0.26693 0.96735 0.0
C483 C 0.64647 0.1942 0.84352 0.0
C484 C 0.59766 0.14103 0.96815 0.0
C485 C 0.55788 0.13774 0.96188 0.0
C486 C 0.6209 0.16908 0.94685 0.0
C487 C 0.60356 0.19366 0.91867 0.0
C488 C 0.56385 0.18661 0.90866 0.0
C489 C 0.54135 0.15887 0.93085 0.0
C490 C 0.66309 0.17562 0.95827 0.0
C491 C 0.54438 0.21158 0.87808 0.0
H492 H 0.6303 0.33062 0.92453 0.0
H493 H 0.66991 0.26945 0.82272 0.0
H494 H 0.57233 0.25869 0.96267 0.0
H495 H 0.61492 0.24471 0.98782 0.0
H496 H 0.60824 0.29657 0.98263 0.0
H497 H 0.66692 0.19923 0.81889 0.0
H498 H 0.65556 0.17032 0.86332 0.0
H499 H 0.61795 0.18349 0.82954 0.0
H500 H 0.61016 0.125 0.9928 0.0
H501 H 0.51044 0.15646 0.92663 0.0
H502 H 0.66835 0.20067 0.98049 0.0
H503 H 0.68014 0.18352 0.93146 0.0
H504 H 0.67341 0.14887 0.97246 0.0
H505 H 0.54214 0.24139 0.89155 0.0
H506 H 0.51508 0.19803 0.86894 0.0
H507 H 0.56126 0.21576 0.85052 0.0
C508 C 0.92493 0.71049 0.39071 0.0
C509 C 0.93542 0.67571 0.40834 0.0
C510 C 0.94582 0.74723 0.40005 0.0
C511 C 0.97817 0.749 0.4275 0.0
C512 C 0.99034 0.71343 0.44321 0.0
C513 C 0.96854 0.6771 0.43361 0.0
C514 C 0.93186 0.78437 0.3824 0.0
C515 C 0.025 0.71391 0.47186 0.0
C516 C 0.03506 0.84924 0.42238 0.0
C517 C 0.01761 0.87059 0.45173 0.0
C518 C 0.02551 0.80827 0.41686 0.0
C519 C -0.00252 0.78845 0.44101 0.0
C520 C 0.98315 0.80907 0.47381 0.0
C521 C 0.99358 0.85013 0.47892 0.0
C522 C 0.04215 0.78734 0.38219 0.0
C523 C 0.95349 0.78886 0.50053 0.0
H524 H 0.89887 0.70911 0.37175 0.0
H525 H 0.9762 0.64993 0.44735 0.0
H526 H 0.92275 0.80325 0.40717 0.0
H527 H 0.95531 0.80196 0.36709 0.0
H528 H 0.90736 0.77764 0.36013 0.0
H529 H 0.03445 0.68381 0.47551 0.0
H530 H 0.04912 0.73421 0.46098 0.0
H531 H 0.01801 0.72507 0.50212 0.0
H532 H 0.0536 0.86525 0.40128 0.0
H533 H 0.97974 0.86676 0.50128 0.0
H534 H 0.02086 0.78376 0.35622 0.0
H535 H 0.04888 0.75726 0.39109 0.0
H536 H 0.06855 0.8044 0.37175 0.0
H537 H 0.92562 0.78397 0.48316 0.0
H538 H 0.9497 0.80695 0.52812 0.0
H539 H 0.96144 0.75938 0.50999 0.0
C540 C 0.39368 0.78301 0.60887 0.0
C541 C 0.41195 0.82113 0.60343 0.0
C542 C 0.40876 0.74949 0.59348 0.0
C543 C 0.44273 0.75437 0.57162 0.0
C544 C 0.46048 0.79311 0.56477 0.0
C545 C 0.44503 0.82614 0.58121 0.0
C546 C 0.38921 0.70879 0.60218 0.0
C547 C 0.49626 0.79956 0.54106 0.0
C548 C 0.49877 0.66593 0.58366 0.0
C549 C 0.48487 0.64208 0.55005 0.0
C550 C 0.48731 0.70382 0.58953 0.0
C551 C 0.46172 0.71866 0.56068 0.0
C552 C 0.45063 0.69644 0.52455 0.0
C553 C 0.46227 0.65812 0.51967 0.0
C554 C 0.49975 0.72619 0.62862 0.0
C555 C 0.42415 0.71174 0.49261 0.0
H556 H 0.36807 0.77958 0.62615 0.0
H557 H 0.45872 0.85589 0.57692 0.0
H558 H 0.38283 0.69145 0.57351 0.0
H559 H 0.40854 0.69232 0.62157 0.0
H560 H 0.36209 0.71027 0.61791 0.0
H561 H 0.50366 0.83138 0.53398 0.0
H562 H 0.52063 0.78905 0.55884 0.0
H563 H 0.4927 0.78206 0.51224 0.0
H564 H 0.51673 0.65383 0.60696 0.0
H565 H 0.45145 0.63982 0.49364 0.0
H566 H 0.47484 0.72672 0.6481 0.0
H567 H 0.51035 0.75743 0.62242 0.0
H568 H 0.52258 0.71237 0.64591 0.0
H569 H 0.39449 0.70834 0.50317 0.0
H570 H 0.42446 0.69519 0.46334 0.0
H571 H 0.43211 0.7438 0.48737 0.0
C572 C 0.92084 0.89967 0.80031 0.0
C573 C 0.88414 0.87967 0.80237 0.0
C574 C 0.93677 0.90855 0.76256 0.0
C575 C 0.91546 0.89695 0.726 0.0
C576 C 0.87996 0.87326 0.72826 0.0
C577 C 0.86465 0.86516 0.76641 0.0
C578 C 0.97468 0.93381 0.7619 0.0
C579 C 0.85637 0.85971 0.69041 0.0
C580 C 0.92834 0.97291 0.64227 0.0
C581 C 0.95505 0.95728 0.61788 0.0
C582 C 0.91416 0.95272 0.67631 0.0
C583 C 0.92686 0.9156 0.6866 0.0
C584 C 0.95187 0.89827 0.66056 0.0
C585 C 0.96573 0.91933 0.62644 0.0
C586 C 0.88733 0.97244 0.70271 0.0
C587 C 0.96582 0.85864 0.67009 0.0
H588 H 0.93552 0.91147 0.82813 0.0
H589 H 0.83603 0.85013 0.76812 0.0
H590 H 0.99323 0.92182 0.73943 0.0
H591 H 0.96983 0.96434 0.75257 0.0
H592 H 0.99002 0.93562 0.79215 0.0
H593 H 0.83347 0.83574 0.69685 0.0
H594 H 0.84272 0.88516 0.67752 0.0
H595 H 0.87466 0.84887 0.66699 0.0
H596 H 0.92004 0.00226 0.63591 0.0
H597 H 0.98682 0.9073 0.6082 0.0
H598 H 0.9015 0.97972 0.733 0.0
H599 H 0.86124 0.95197 0.70746 0.0
H600 H 0.87858 0.00026 0.68934 0.0
H601 H 0.98687 0.86222 0.69626 0.0
H602 H 0.97981 0.84625 0.64392 0.0
H603 H 0.94182 0.83698 0.67886 0.0
C604 C 0.68015 0.12241 0.31788 0.0
C605 C 0.66112 0.10963 0.35254 0.0
C606 C 0.66674 0.10814 0.27903 0.0
C607 C 0.63347 0.08058 0.27499 0.0
C608 C 0.61732 0.06396 0.31042 0.0
C609 C 0.63143 0.07871 0.3488 0.0
C610 C 0.68534 0.12629 0.24229 0.0
C611 C 0.58216 0.03429 0.30788 0.0
C612 C 0.56317 0.10168 0.18937 0.0
C613 C 0.56777 0.07213 0.16034 0.0
C614 C 0.58409 0.1042 0.22659 0.0
C615 C 0.61078 0.0766 0.23541 0.0
C616 C 0.61525 0.04613 0.20663 0.0
C617 C 0.59354 0.04412 0.16941 0.0
C618 C 0.57754 0.13673 0.25646 0.0
C619 C 0.64349 0.01628 0.21477 0.0
H620 H 0.70292 0.14656 0.32085 0.0
H621 H 0.61676 0.06898 0.37575 0.0
H622 H 0.68685 0.10352 0.21813 0.0
H623 H 0.6679 0.1492 0.22983 0.0
H624 H 0.71465 0.14067 0.24998 0.0
H625 H 0.578 0.01836 0.3369 0.0
H626 H 0.55661 0.05011 0.30106 0.0
H627 H 0.58389 0.0122 0.28311 0.0
H628 H 0.54305 0.1232 0.18299 0.0
H629 H 0.5974 0.02128 0.14711 0.0
H630 H 0.60473 0.15564 0.26367 0.0
H631 H 0.56748 0.12343 0.2852 0.0
H632 H 0.55601 0.15604 0.24474 0.0
H633 H 0.673 0.03152 0.21526 0.0
H634 H 0.64096 0.99221 0.19132 0.0
H635 H 0.63932 0.00283 0.245 0.0
C636 C 0.39386 0.62758 0.21497 0.0
C637 C 0.37987 0.66467 0.21745 0.0
C638 C 0.40831 0.60978 0.2495 0.0
C639 C 0.41097 0.63075 0.28706 0.0
C640 C 0.39882 0.66919 0.28944 0.0
C641 C 0.38246 0.68535 0.25464 0.0
C642 C 0.42012 0.56825 0.2458 0.0
C643 C 0.40276 0.69293 0.3287 0.0
C644 C 0.41966 0.56167 0.37513 0.0
C645 C 0.45923 0.56075 0.3777 0.0
C646 C 0.40321 0.58708 0.34773 0.0
C647 C 0.42729 0.6121 0.32323 0.0
C648 C 0.46748 0.61371 0.32883 0.0
C649 C 0.483 0.58749 0.35573 0.0
C650 C 0.36022 0.58415 0.34215 0.0
C651 C 0.49407 0.6405 0.30386 0.0
H652 H 0.39235 0.61198 0.18597 0.0
H653 H 0.37082 0.71351 0.25686 0.0
H654 H 0.45125 0.56867 0.2529 0.0
H655 H 0.40507 0.54852 0.26799 0.0
H656 H 0.41368 0.55517 0.21489 0.0
H657 H 0.39431 0.72341 0.32473 0.0
H658 H 0.38467 0.67765 0.3517 0.0
H659 H 0.43279 0.69513 0.34097 0.0
H660 H 0.40159 0.54059 0.39222 0.0
H661 H 0.51374 0.58649 0.35814 0.0
H662 H 0.3512 0.56739 0.31362 0.0
H663 H 0.35024 0.61404 0.33939 0.0
H664 H 0.34585 0.56858 0.36771 0.0
H665 H 0.49435 0.6279 0.27267 0.0
H666 H 0.52385 0.6436 0.31704 0.0
H667 H 0.48411 0.67044 0.30136 0.0
C668 C 0.13132 0.41929 0.72478 0.0
C669 C 0.10555 0.4236 0.69197 0.0
C670 C 0.12233 0.4292 0.76445 0.0
C671 C 0.08679 0.44371 0.77103 0.0
C672 C 0.06069 0.44794 0.73774 0.0
C673 C 0.07049 0.43779 0.69854 0.0
C674 C 0.15072 0.42429 0.79919 0.0
C675 C 0.02257 0.46356 0.74343 0.0
C676 C 0.03643 0.44513 0.86981 0.0
C677 C 0.04188 0.48568 0.87929 0.0
C678 C 0.05416 0.42995 0.83652 0.0
C679 C 0.07707 0.45633 0.81221 0.0
C680 C 0.08533 0.49668 0.82421 0.0
C681 C 0.06755 0.51087 0.85776 0.0
C682 C 0.04523 0.38661 0.82505 0.0
C683 C 0.10941 0.52585 0.79912 0.0
H684 H 0.15829 0.40787 0.71925 0.0
H685 H 0.05087 0.44095 0.6728 0.0
H686 H 0.15969 0.45348 0.81417 0.0
H687 H 0.13717 0.40467 0.82241 0.0
H688 H 0.17661 0.41151 0.78905 0.0
H689 H 0.00539 0.46436 0.71442 0.0
H690 H 0.00578 0.44468 0.765 0.0
H691 H 0.02711 0.49406 0.75667 0.0
H692 H 0.01599 0.42597 0.88628 0.0
H693 H 0.07109 0.54242 0.86501 0.0
H694 H 0.07119 0.37395 0.81512 0.0
H695 H 0.02377 0.38356 0.79923 0.0
H696 H 0.0334 0.36896 0.85069 0.0
H697 H 0.13565 0.51326 0.78996 0.0
H698 H 0.11781 0.55436 0.81576 0.0
H699 H 0.09285 0.5322 0.77094 0.0
C700 C 0.80339 0.95832 0.92921 0.0
C701 C 0.79504 0.93001 0.89796 0.0
C702 C 0.77398 0.97601 0.94777 0.0
C703 C 0.73534 0.96419 0.9354 0.0
C704 C 0.72706 0.93655 0.90272 0.0
C705 C 0.7571 0.92006 0.8842 0.0
C706 C 0.78417 0.00594 0.98176 0.0
C707 C 0.68638 0.9225 0.88891 0.0
C708 C 0.65724 0.95718 0.01101 0.0
C709 C 0.63431 0.98632 0.99742 0.0
C710 C 0.69139 0.95137 0.99264 0.0
C711 C 0.70349 0.97575 0.96007 0.0
C712 C 0.68245 0.0078 0.94875 0.0
C713 C 0.64786 0.01266 0.96751 0.0
C714 C 0.71265 0.91681 0.00588 0.0
C715 C 0.69497 0.03517 0.91496 0.0
H716 H 0.83294 0.96595 0.93953 0.0
H717 H 0.75097 0.898 0.86008 0.0
H718 H 0.76737 0.03174 0.97804 0.0
H719 H 0.77698 0.99216 0.0112 0.0
H720 H 0.81512 0.01677 0.98316 0.0
H721 H 0.68487 0.90307 0.86138 0.0
H722 H 0.67194 0.90562 0.91359 0.0
H723 H 0.6702 0.94825 0.88227 0.0
H724 H 0.64708 0.93698 0.03445 0.0
H725 H 0.63024 0.03516 0.95677 0.0
H726 H 0.74344 0.92664 0.01191 0.0
H727 H 0.71044 0.89405 0.98115 0.0
H728 H 0.70111 0.90263 0.03365 0.0
H729 H 0.7264 0.04315 0.91708 0.0
H730 H 0.68056 0.06284 0.91544 0.0
H731 H 0.68774 0.01981 0.8853 0.0
C732 C 0.72887 0.08737 0.42595 0.0
C733 C 0.73025 0.12662 0.41291 0.0
C734 C 0.76267 0.06948 0.43412 0.0
C735 C 0.79867 0.09125 0.42838 0.0
C736 C 0.8 0.1307 0.41407 0.0
C737 C 0.76575 0.14798 0.40681 0.0
C738 C 0.75986 0.02754 0.4496 0.0
C739 C 0.83759 0.15469 0.40656 0.0
C740 C 0.88952 0.05719 0.47892 0.0
C741 C 0.90275 0.03463 0.44757 0.0
C742 C 0.85548 0.07558 0.47336 0.0
C743 C 0.83479 0.07207 0.43529 0.0
C744 C 0.84856 0.05 0.40343 0.0
C745 C 0.88197 0.03132 0.41008 0.0
C746 C 0.8414 0.09838 0.50828 0.0
C747 C 0.82807 0.04623 0.3621 0.0
H748 H 0.7013 0.07128 0.4312 0.0
H749 H 0.76656 0.17842 0.39682 0.0
H750 H 0.77294 0.00804 0.42813 0.0
H751 H 0.77606 0.0268 0.47918 0.0
H752 H 0.72979 0.01511 0.4536 0.0
H753 H 0.83367 0.18478 0.39506 0.0
H754 H 0.85564 0.1579 0.43508 0.0
H755 H 0.85347 0.13898 0.38413 0.0
H756 H 0.90536 0.05989 0.50794 0.0
H757 H 0.89215 0.01443 0.3854 0.0
H758 H 0.81216 0.08559 0.51542 0.0
H759 H 0.83956 0.12973 0.49969 0.0
H760 H 0.86035 0.09789 0.53608 0.0
H761 H 0.79867 0.03142 0.36476 0.0
H762 H 0.84311 0.02893 0.34017 0.0
H763 H 0.82545 0.07614 0.34955 0.0
C764 C 0.26348 0.69043 0.09348 0.0
C765 C 0.29559 0.66947 0.0945 0.0
C766 C 0.22984 0.67496 0.07238 0.0
C767 C 0.22879 0.63769 0.05224 0.0
C768 C 0.26281 0.61931 0.04866 0.0
C769 C 0.29597 0.63528 0.07047 0.0
C770 C 0.19427 0.69574 0.0765 0.0
C771 C 0.26303 0.5804 0.02598 0.0
C772 C 0.14102 0.56989 0.0748 0.0
C773 C 0.11761 0.57338 0.03991 0.0
C774 C 0.17765 0.58997 0.07846 0.0
C775 C 0.19157 0.61352 0.04596 0.0
C776 C 0.16888 0.61566 0.00973 0.0
C777 C 0.13172 0.59592 0.00733 0.0
C778 C 0.20087 0.58697 0.11783 0.0
C779 C 0.18316 0.63959 0.97408 0.0
H780 H 0.26373 0.71699 0.1122 0.0
H781 H 0.32136 0.61968 0.07114 0.0
H782 H 0.17752 0.6952 0.04721 0.0
H783 H 0.17591 0.68 0.09905 0.0
H784 H 0.20118 0.72711 0.08688 0.0
H785 H 0.29242 0.57513 0.01786 0.0
H786 H 0.25176 0.5557 0.04542 0.0
H787 H 0.2444 0.57964 0.99788 0.0
H788 H 0.13023 0.55246 0.10003 0.0
H789 H 0.11373 0.59832 0.98012 0.0
H790 H 0.20812 0.61692 0.13182 0.0
H791 H 0.22811 0.57464 0.11187 0.0
H792 H 0.18544 0.56772 0.14019 0.0
H793 H 0.17837 0.67113 0.9789 0.0
H794 H 0.16764 0.62898 0.94529 0.0
H795 H 0.21426 0.63832 0.97077 0.0
C796 C 0.20955 0.38042 0.58326 0.0
C797 C 0.18068 0.40429 0.57294 0.0
C798 C 0.24615 0.38855 0.56821 0.0
C799 C 0.25374 0.42152 0.54259 0.0
C800 C 0.22325 0.44271 0.52848 0.0
C801 C 0.18697 0.43398 0.5442 0.0
C802 C 0.27765 0.365 0.58387 0.0
C803 C 0.22988 0.47758 0.50065 0.0
C804 C 0.34728 0.4821 0.57138 0.0
C805 C 0.37153 0.47086 0.54163 0.0
C806 C 0.30882 0.46705 0.57104 0.0
C807 C 0.29382 0.43987 0.54001 0.0
C808 C 0.31756 0.4295 0.50876 0.0
C809 C 0.35636 0.44523 0.50987 0.0
C810 C 0.28454 0.47951 0.60478 0.0
C811 C 0.30243 0.40084 0.47508 0.0
H812 H 0.20434 0.35767 0.60581 0.0
H813 H 0.16427 0.45226 0.53652 0.0
H814 H 0.29678 0.35877 0.55924 0.0
H815 H 0.29521 0.3826 0.60786 0.0
H816 H 0.2661 0.33641 0.5971 0.0
H817 H 0.20272 0.4849 0.48551 0.0
H818 H 0.24257 0.50399 0.51862 0.0
H819 H 0.25019 0.47152 0.4771 0.0
H820 H 0.35853 0.50257 0.59558 0.0
H821 H 0.37496 0.43652 0.48675 0.0
H822 H 0.27396 0.45319 0.62241 0.0
H823 H 0.2592 0.49269 0.59187 0.0
H824 H 0.30055 0.50158 0.62608 0.0
H825 H 0.29944 0.37021 0.48701 0.0
H826 H 0.32187 0.40173 0.44936 0.0
H827 H 0.27369 0.40736 0.46357 0.0
C828 C 0.88459 0.79906 0.86337 0.0
C829 C 0.89236 0.83568 0.88376 0.0
C830 C 0.90066 0.76513 0.87768 0.0
C831 C 0.92499 0.7679 0.91336 0.0
C832 C 0.93411 0.80534 0.93298 0.0
C833 C 0.91787 0.83873 0.9178 0.0
C834 C 0.89059 0.72601 0.85539 0.0
C835 C 0.95995 0.80987 0.97087 0.0
C836 C 0.93582 0.67101 0.96977 0.0
C837 C 0.96977 0.65994 0.95442 0.0
C838 C 0.92137 0.70667 0.95762 0.0
C839 C 0.94139 0.7318 0.92962 0.0
C840 C 0.9767 0.72168 0.91592 0.0
C841 C 0.99038 0.68609 0.92847 0.0
C842 C 0.88378 0.71655 0.97327 0.0
C843 C -0.00078 0.74749 0.88635 0.0
H844 H 0.86441 0.79662 0.83746 0.0
H845 H 0.92375 0.86712 0.93354 0.0
H846 H 0.91703 0.71338 0.84685 0.0
H847 H 0.87515 0.70444 0.87559 0.0
H848 H 0.87236 0.72904 0.82746 0.0
H849 H 0.96509 0.8412 0.98184 0.0
H850 H 0.94695 0.79151 0.99536 0.0
H851 H 0.9879 0.79897 0.96507 0.0
H852 H 0.9195 0.65083 0.9894 0.0
H853 H 0.01673 0.67784 0.91652 0.0
H854 H 0.86199 0.7153 0.9478 0.0
H855 H 0.88678 0.74725 0.98601 0.0
H856 H 0.87315 0.69571 0.99704 0.0
H857 H 0.98251 0.7481 0.85707 0.0
H858 H 0.02723 0.73668 0.88044 0.0
H859 H 0.00437 0.77851 0.89809 0.0
C860 C 0.42812 0.75567 0.16037 0.0
C861 C 0.39439 0.74731 0.18073 0.0
C862 C 0.44551 0.79469 0.15864 0.0
C863 C 0.42962 0.82539 0.17982 0.0
C864 C 0.40004 0.81538 0.20672 0.0
C865 C 0.3816 0.77656 0.20555 0.0
C866 C 0.47737 0.80352 0.12971 0.0
C867 C 0.38468 0.84642 0.23275 0.0
C868 C 0.48857 0.91653 0.14798 0.0
C869 C 0.46812 0.92346 0.11186 0.0
C870 C 0.473 0.8889 0.17579 0.0
C871 C 0.4374 0.86683 0.16561 0.0
C872 C 0.41422 0.87928 0.13278 0.0
C873 C 0.42988 0.9082 0.10665 0.0
C874 C 0.49692 0.87978 0.21286 0.0
C875 C 0.37594 0.85742 0.11989 0.0
H876 H 0.43756 0.73271 0.14118 0.0
H877 H 0.35514 0.77008 0.22097 0.0
H878 H 0.46768 0.82216 0.10458 0.0
H879 H 0.50247 0.82028 0.14563 0.0
H880 H 0.48672 0.77608 0.1163 0.0
H881 H 0.373 0.83306 0.26084 0.0
H882 H 0.4072 0.87093 0.2412 0.0
H883 H 0.36103 0.85918 0.21585 0.0
H884 H 0.51821 0.92888 0.15217 0.0
H885 H 0.41425 0.91389 0.07856 0.0
H886 H 0.51877 0.86028 0.20416 0.0
H887 H 0.47926 0.86472 0.2364 0.0
H888 H 0.5124 0.90757 0.22604 0.0
H889 H 0.38079 0.83268 0.09906 0.0
H890 H 0.35771 0.87717 0.10304 0.0
H891 H 0.36005 0.84501 0.14584 0.0
C892 C 0.12836 0.30364 0.59176 0.0
C893 C 0.11724 0.33796 0.57381 0.0
C894 C 0.11712 0.2663 0.57408 0.0
C895 C 0.0942 0.26353 0.53747 0.0
C896 C 0.08638 0.2986 0.5171 0.0
C897 C 0.09781 0.33568 0.53586 0.0
C898 C 0.12638 0.22982 0.59693 0.0
C899 C 0.06311 0.29706 0.47753 0.0
C900 C 0.07616 0.15532 0.50748 0.0
C901 C 0.04501 0.1442 0.53141 0.0
C902 C 0.09022 0.19559 0.50448 0.0
C903 C 0.07263 0.22462 0.52613 0.0
C904 C 0.038 0.21359 0.54544 0.0
C905 C 0.02472 0.17337 0.54795 0.0
C906 C 0.12632 0.20639 0.48228 0.0
C907 C 0.01783 0.24349 0.56844 0.0
H908 H 0.14336 0.30603 0.62125 0.0
H909 H 0.08935 0.36263 0.52232 0.0
H910 H 0.09985 0.21479 0.60922 0.0
H911 H 0.13802 0.20843 0.57633 0.0
H912 H 0.14747 0.23719 0.62267 0.0
H913 H 0.06921 0.32481 0.46023 0.0
H914 H 0.06882 0.27137 0.45836 0.0
H915 H 0.03224 0.29374 0.48385 0.0
H916 H 0.09186 0.13258 0.49474 0.0
H917 H 0.00051 0.16448 0.5663 0.0
H918 H 0.15131 0.20775 0.50416 0.0
H919 H 0.12618 0.23596 0.46811 0.0
H920 H 0.13013 0.18388 0.45843 0.0
H921 H 0.03466 0.25249 0.59692 0.0
H922 H 0.98869 0.23115 0.57656 0.0
H923 H 0.01543 0.27057 0.55032 0.0
C924 C 0.64325 0.25644 0.42907 0.0
C925 C 0.63351 0.21814 0.44322 0.0
C926 C 0.62149 0.28751 0.43859 0.0
C927 C 0.58955 0.27997 0.46327 0.0
C928 C 0.58099 0.24159 0.47936 0.0
C929 C 0.60288 0.21096 0.46871 0.0
C930 C 0.63143 0.32781 0.42039 0.0
C931 C 0.54768 0.23243 0.50626 0.0
C932 C 0.54868 0.37231 0.50209 0.0
C933 C 0.51908 0.37629 0.47294 0.0
C934 C 0.5708 0.34007 0.5006 0.0
C935 C 0.56334 0.31127 0.469 0.0
C936 C 0.53224 0.314 0.44078 0.0
C937 C 0.51036 0.34624 0.44329 0.0
C938 C 0.60326 0.33779 0.53168 0.0
C939 C 0.52354 0.28421 0.40629 0.0
H940 H 0.66676 0.26146 0.40894 0.0
H941 H 0.59546 0.18103 0.47919 0.0
H942 H 0.60797 0.33454 0.3988 0.0
H943 H 0.63436 0.35123 0.44444 0.0
H944 H 0.65843 0.3294 0.40394 0.0
H945 H 0.54785 0.2028 0.52038 0.0
H946 H 0.54816 0.25534 0.53066 0.0
H947 H 0.52047 0.23294 0.48809 0.0
H948 H 0.55605 0.39556 0.52467 0.0
H949 H 0.48761 0.34898 0.42058 0.0
H950 H 0.63081 0.33863 0.51641 0.0
H951 H 0.59928 0.30921 0.54789 0.0
H952 H 0.6054 0.36253 0.5543 0.0
H953 H 0.54781 0.28614 0.38574 0.0
H954 H 0.49714 0.28927 0.38823 0.0
H955 H 0.52016 0.25357 0.41813 0.0
loop_
_geom_bond_atom_site_label_1
_geom_bond_atom_site_label_2
_geom_bond_distance
_geom_bond_site_symmetry_2
_ccdc_geom_bond_type
C0 N1 1.317 . S
C0 N2 1.348 . S
C0 C3 1.485 . S
N1 C0 1.317 . S
N1 N5 1.370 . S
N2 C0 1.348 . S
N2 C4 1.346 . S
C3 C0 1.485 . S
C3 H7 0.960 . S
C3 H8 0.961 . S
C3 H9 0.960 . S
C4 N2 1.346 . S
C4 N5 1.307 . S
C4 C6 1.486 . S
N5 N1 1.370 . S
N5 C4 1.307 . S
C6 C4 1.486 . S
C6 H10 0.960 . S
C6 H11 0.960 . S
C6 H12 0.959 . S
H7 C3 0.960 . S
H8 C3 0.961 . S
H9 C3 0.960 . S
H10 C6 0.960 . S
H11 C6 0.960 . S
H12 C6 0.959 . S
C13 N14 1.317 . S
C13 N15 1.348 . S
C13 C16 1.485 . S
N14 C13 1.317 . S
N14 N18 1.370 . S
N15 C13 1.348 . S
N15 C17 1.346 . S
C16 C13 1.485 . S
C16 H20 0.960 . S
C16 H21 0.961 . S
C16 H22 0.960 . S
C17 N15 1.346 . S
C17 N18 1.307 . S
C17 C19 1.486 . S
N18 N14 1.370 . S
N18 C17 1.307 . S
C19 C17 1.486 . S
C19 H23 0.960 . S
C19 H24 0.960 . S
C19 H25 0.959 . S
H20 C16 0.960 . S
H21 C16 0.961 . S
H22 C16 0.960 . S
H23 C19 0.960 . S
H24 C19 0.960 . S
H25 C19 0.959 . S
C26 N27 1.317 . S
C26 N28 1.348 . S
C26 C29 1.485 . S
N27 C26 1.317 . S
N27 N31 1.370 . S
N28 C26 1.348 . S
N28 C30 1.346 . S
C29 C26 1.485 . S
C29 H33 0.960 . S
C29 H34 0.961 . S
C29 H35 0.960 . S
C30 N28 1.346 . S
C30 N31 1.307 . S
C30 C32 1.486 . S
N31 N27 1.370 . S
N31 C30 1.307 . S
C32 C30 1.486 . S
C32 H36 0.960 . S
C32 H37 0.960 . S
C32 H38 0.959 . S
H33 C29 0.960 . S
H34 C29 0.961 . S
H35 C29 0.960 . S
H36 C32 0.960 . S
H37 C32 0.960 . S
H38 C32 0.959 . S
C39 N40 1.317 . S
C39 N41 1.348 . S
C39 C42 1.485 . S
N40 C39 1.317 . S
N40 N44 1.370 . S
N41 C39 1.348 . S
N41 C43 1.346 . S
C42 C39 1.485 . S
C42 H46 0.960 . S
C42 H47 0.961 . S
C42 H48 0.960 . S
C43 N41 1.346 . S
C43 N44 1.307 . S
C43 C45 1.486 . S
N44 N40 1.370 . S
N44 C43 1.307 . S
C45 C43 1.486 . S
C45 H49 0.960 . S
C45 H50 0.960 . S
C45 H51 0.959 . S
H46 C42 0.960 . S
H47 C42 0.961 . S
H48 C42 0.960 . S
H49 C45 0.960 . S
H50 C45 0.960 . S
H51 C45 0.959 . S
C52 N53 1.317 . S
C52 N54 1.348 . S
C52 C55 1.485 . S
N53 C52 1.317 . S
N53 N57 1.370 . S
N54 C52 1.348 . S
N54 C56 1.346 . S
C55 C52 1.485 . S
C55 H59 0.960 . S
C55 H60 0.961 . S
C55 H61 0.960 . S
C56 N54 1.346 . S
C56 N57 1.307 . S
C56 C58 1.486 . S
N57 N53 1.370 . S
N57 C56 1.307 . S
C58 C56 1.486 . S
C58 H62 0.960 . S
C58 H63 0.960 . S
C58 H64 0.959 . S
H59 C55 0.960 . S
H60 C55 0.961 . S
H61 C55 0.960 . S
H62 C58 0.960 . S
H63 C58 0.960 . S
H64 C58 0.959 . S
C65 N66 1.317 . S
C65 N67 1.348 . S
C65 C68 1.485 . S
N66 C65 1.317 . S
N66 N70 1.370 . S
N67 C65 1.348 . S
N67 C69 1.346 . S
C68 C65 1.485 . S
C68 H72 0.960 . S
C68 H73 0.961 . S
C68 H74 0.960 . S
C69 N67 1.346 . S
C69 N70 1.307 . S
C69 C71 1.486 . S
N70 N66 1.370 . S
N70 C69 1.307 . S
C71 C69 1.486 . S
C71 H75 0.960 . S
C71 H76 0.960 . S
C71 H77 0.959 . S
H72 C68 0.960 . S
H73 C68 0.961 . S
H74 C68 0.960 . S
H75 C71 0.960 . S
H76 C71 0.960 . S
H77 C71 0.959 . S
C78 N79 1.317 . S
C78 N80 1.348 . S
C78 C81 1.485 . S
N79 C78 1.317 . S
N79 N83 1.370 . S
N80 C78 1.348 . S
N80 C82 1.346 . S
C81 C78 1.485 . S
C81 H85 0.960 . S
C81 H86 0.961 . S
C81 H87 0.960 . S
C82 N80 1.346 . S
C82 N83 1.307 . S
C82 C84 1.486 . S
N83 N79 1.370 . S
N83 C82 1.307 . S
C84 C82 1.486 . S
C84 H88 0.960 . S
C84 H89 0.960 . S
C84 H90 0.959 . S
H85 C81 0.960 . S
H86 C81 0.961 . S
H87 C81 0.960 . S
H88 C84 0.960 . S
H89 C84 0.960 . S
H90 C84 0.959 . S
C91 N92 1.317 . S
C91 N93 1.348 . S
C91 C94 1.485 . S
N92 C91 1.317 . S
N92 N96 1.370 . S
N93 C91 1.348 . S
N93 C95 1.346 . S
C94 C91 1.485 . S
C94 H98 0.960 . S
C94 H99 0.961 . S
C94 H100 0.960 . S
C95 N93 1.346 . S
C95 N96 1.307 . S
C95 C97 1.486 . S
N96 N92 1.370 . S
N96 C95 1.307 . S
C97 C95 1.486 . S
C97 H101 0.960 . S
C97 H102 0.960 . S
C97 H103 0.959 . S
H98 C94 0.960 . S
H99 C94 0.961 . S
H100 C94 0.960 . S
H101 C97 0.960 . S
H102 C97 0.960 . S
H103 C97 0.959 . S
O104 Mg105 1.990 . S
O104 C118 1.253 1_545 S
Mg105 O104 1.990 . S
Mg105 O108 2.180 . S
Mg105 O109 2.117 . S
Mg105 O123 2.017 1_545 S
O106 Mg107 2.072 1_565 S
O106 C118 1.260 . S
Mg107 O106 2.072 1_545 S
Mg107 O108 2.099 . S
Mg107 O110 2.079 . S
Mg107 O111 2.072 . S
Mg107 O113 2.099 1_545 S
Mg107 O124 2.079 1_545 S
O108 Mg105 2.180 . S
O108 Mg107 2.099 . S
O108 C119 1.279 . S
O109 Mg105 2.117 . S
O109 C119 1.250 . S
O110 Mg107 2.079 . S
O110 C120 1.264 . S
O111 Mg107 2.072 . S
O111 C121 1.260 1_455 S
Mg112 O113 2.180 1_655 S
Mg112 O114 2.030 1_665 S
Mg112 O115 1.990 1_565 S
Mg112 O116 2.117 . S
O113 Mg107 2.099 1_565 S
O113 Mg112 2.180 1_455 S
O113 C122 1.279 . S
O114 Mg112 2.030 1_445 S
O114 C120 1.248 . S
O115 Mg112 1.990 1_545 S
O115 C121 1.253 . S
O116 Mg112 2.117 . S
O116 C122 1.250 1_655 S
C117 O123 1.254 . S
C117 O124 1.264 . S
C118 O104 1.253 1_565 S
C118 O106 1.260 . S
C119 O108 1.279 . S
C119 O109 1.250 . S
C120 O110 1.264 . S
C120 O114 1.248 . S
C121 O111 1.260 1_655 S
C121 O115 1.253 . S
C122 O113 1.279 . S
C122 O116 1.250 1_455 S
O123 Mg105 2.017 1_565 S
O123 C117 1.254 . S
O124 Mg107 2.079 1_565 S
O124 C117 1.264 . S
O125 Mg126 1.990 . S
O125 C139 1.253 . S
Mg126 O125 1.990 . S
Mg126 O129 2.180 . S
Mg126 O130 2.117 . S
Mg126 O144 2.030 . S
O127 Mg128 2.072 . S
O127 C139 1.260 . S
Mg128 O127 2.072 . S
Mg128 O129 2.099 . S
Mg128 O131 2.079 . S
Mg128 O132 2.072 1_554 S
Mg128 O134 2.099 1_545 S
Mg128 O145 2.079 . S
O129 Mg126 2.180 . S
O129 Mg128 2.099 . S
O129 C140 1.279 . S
O130 Mg126 2.117 . S
O130 C140 1.250 . S
O131 Mg128 2.079 . S
O131 C141 1.264 1_545 S
O132 Mg128 2.072 1_556 S
O132 C142 1.260 1_545 S
Mg133 O134 2.178 . S
Mg133 O135 2.030 1_554 S
Mg133 O136 1.992 1_554 S
Mg133 O137 2.115 . S
O134 Mg128 2.099 1_565 S
O134 Mg133 2.178 . S
O134 C143 1.279 . S
O135 Mg133 2.030 1_556 S
O135 C141 1.248 1_556 S
O136 Mg133 1.992 1_556 S
O136 C142 1.253 . S
O137 Mg133 2.115 . S
O137 C143 1.250 . S
C138 O144 1.248 . S
C138 O145 1.264 . S
C139 O125 1.253 . S
C139 O127 1.260 . S
C140 O129 1.279 . S
C140 O130 1.250 . S
C141 O131 1.264 1_565 S
C141 O135 1.248 1_554 S
C142 O132 1.260 1_565 S
C142 O136 1.253 . S
C143 O134 1.279 . S
C143 O137 1.250 . S
O144 Mg126 2.030 . S
O144 C138 1.248 . S
O145 Mg128 2.079 . S
O145 C138 1.264 . S
O146 Mg147 1.990 . S
O146 C160 1.253 . S
Mg147 O146 1.990 . S
Mg147 O150 2.180 . S
Mg147 O151 2.117 . S
Mg147 O165 2.030 . S
O148 Mg149 2.072 . S
O148 C160 1.260 . S
Mg149 O148 2.072 . S
Mg149 O150 2.099 . S
Mg149 O152 2.079 . S
Mg149 O153 2.072 . S
Mg149 O155 2.099 . S
Mg149 O166 2.079 . S
O150 Mg147 2.180 . S
O150 Mg149 2.099 . S
O150 C161 1.279 . S
O151 Mg147 2.117 . S
O151 C161 1.250 . S
O152 Mg149 2.079 . S
O152 C162 1.264 . S
O153 Mg149 2.072 . S
O153 C163 1.260 . S
Mg154 O155 2.180 . S
Mg154 O156 2.030 . S
Mg154 O157 1.990 . S
Mg154 O158 2.117 . S
O155 Mg149 2.099 . S
O155 Mg154 2.180 . S
O155 C164 1.279 . S
O156 Mg154 2.030 . S
O156 C162 1.248 . S
O157 Mg154 1.990 . S
O157 C163 1.253 . S
O158 Mg154 2.117 . S
O158 C164 1.250 . S
C159 O165 1.248 . S
C159 O166 1.264 . S
C160 O146 1.253 . S
C160 O148 1.260 . S
C161 O150 1.279 . S
C161 O151 1.250 . S
C162 O152 1.264 . S
C162 O156 1.248 . S
C163 O153 1.260 . S
C163 O157 1.253 . S
C164 O155 1.279 . S
C164 O158 1.250 . S
O165 Mg147 2.030 . S
O165 C159 1.248 . S
O166 Mg149 2.079 . S
O166 C159 1.264 . S
O167 Mg168 1.990 . S
O167 C181 1.253 . S
Mg168 O167 1.990 . S
Mg168 O171 2.161 1_455 S
Mg168 O172 2.117 1_455 S
Mg168 O186 2.030 . S
O169 Mg170 2.072 . S
O169 C181 1.260 . S
Mg170 O169 2.072 . S
Mg170 O171 2.094 1_455 S
Mg170 O173 2.079 1_454 S
Mg170 O174 2.072 1_454 S
Mg170 O176 2.099 1_554 S
Mg170 O187 2.079 . S
O171 Mg168 2.161 1_655 S
O171 Mg170 2.094 1_655 S
O171 C182 1.297 . S
O172 Mg168 2.117 1_655 S
O172 C182 1.250 . S
O173 Mg170 2.079 1_656 S
O173 C183 1.264 . S
O174 Mg170 2.072 1_656 S
O174 C184 1.260 . S
Mg175 O176 2.180 1_655 S
Mg175 O177 2.030 . S
Mg175 O178 1.990 . S
Mg175 O179 2.117 . S
O176 Mg170 2.099 1_556 S
O176 Mg175 2.180 1_455 S
O176 C185 1.279 . S
O177 Mg175 2.030 . S
O177 C183 1.248 . S
O178 Mg175 1.990 . S
O178 C184 1.253 . S
O179 Mg175 2.117 . S
O179 C185 1.250 1_655 S
C180 O186 1.248 . S
C180 O187 1.264 . S
C181 O167 1.253 . S
C181 O169 1.260 . S
C182 O171 1.297 . S
C182 O172 1.250 . S
C183 O173 1.264 . S
C183 O177 1.248 . S
C184 O174 1.260 . S
C184 O178 1.253 . S
C185 O176 1.279 . S
C185 O179 1.250 1_455 S
O186 Mg168 2.030 . S
O186 C180 1.248 . S
O187 Mg170 2.079 . S
O187 C180 1.264 . S
C188 C189 1.391 . S
C188 C190 1.394 . S
C188 H204 0.931 . S
C189 C188 1.391 . S
C189 C193 1.376 . S
C190 C188 1.394 . S
C190 C191 1.369 . S
C190 C194 1.531 . S
C191 C190 1.369 . S
C191 C192 1.410 . S
C191 C199 1.503 . S
C192 C191 1.410 . S
C192 C193 1.392 . S
C192 C195 1.511 . S
C193 C189 1.376 . S
C193 C192 1.392 . S
C193 H205 0.929 . S
C194 C190 1.531 . S
C194 H206 0.960 . S
C194 H207 0.962 . S
C194 H208 0.960 . S
C195 C192 1.511 . S
C195 H209 0.961 . S
C195 H210 0.961 . S
C195 H211 0.961 . S
C196 C197 1.370 . S
C196 C198 1.363 . S
C196 H212 0.931 . S
C197 C196 1.370 . S
C197 C201 1.408 . S
C198 C196 1.363 . S
C198 C199 1.370 . S
C198 C202 1.524 . S
C199 C191 1.503 . S
C199 C198 1.370 . S
C199 C200 1.403 . S
C200 C199 1.403 . S
C200 C201 1.404 . S
C200 C203 1.539 . S
C201 C197 1.408 . S
C201 C200 1.404 . S
C201 H213 0.930 . S
C202 C198 1.524 . S
C202 H214 0.956 . S
C202 H215 0.961 . S
C202 H216 0.961 . S
C203 C200 1.539 . S
C203 H217 0.958 . S
C203 H218 0.961 . S
C203 H219 0.960 . S
H204 C188 0.931 . S
H205 C193 0.929 . S
H206 C194 0.960 . S
H207 C194 0.962 . S
H208 C194 0.960 . S
H209 C195 0.961 . S
H210 C195 0.961 . S
H211 C195 0.961 . S
H212 C196 0.931 . S
H213 C201 0.930 . S
H214 C202 0.956 . S
H215 C202 0.961 . S
H216 C202 0.961 . S
H217 C203 0.958 . S
H218 C203 0.961 . S
H219 C203 0.960 . S
C220 C221 1.391 . S
C220 C222 1.394 . S
C220 H236 0.931 . S
C221 C220 1.391 . S
C221 C225 1.376 . S
C222 C220 1.394 . S
C222 C223 1.369 . S
C222 C226 1.531 . S
C223 C222 1.369 . S
C223 C224 1.410 . S
C223 C231 1.503 . S
C224 C223 1.410 . S
C224 C225 1.392 . S
C224 C227 1.511 . S
C225 C221 1.376 . S
C225 C224 1.392 . S
C225 H237 0.929 . S
C226 C222 1.531 . S
C226 H238 0.960 1_565 S
C226 H239 0.962 . S
C226 H240 0.960 . S
C227 C224 1.511 . S
C227 H241 0.961 . S
C227 H242 0.961 . S
C227 H243 0.961 . S
C228 C229 1.370 . S
C228 C230 1.363 . S
C228 H244 0.931 . S
C229 C228 1.370 . S
C229 C233 1.408 1_565 S
C230 C228 1.363 . S
C230 C231 1.370 . S
C230 C234 1.524 . S
C231 C223 1.503 . S
C231 C230 1.370 . S
C231 C232 1.403 1_565 S
C232 C231 1.403 1_545 S
C232 C233 1.404 . S
C232 C235 1.539 . S
C233 C229 1.408 1_545 S
C233 C232 1.404 . S
C233 H245 0.930 . S
C234 C230 1.524 . S
C234 H246 0.956 . S
C234 H247 0.961 . S
C234 H248 0.961 . S
C235 C232 1.539 . S
C235 H249 0.958 . S
C235 H250 0.961 . S
C235 H251 0.960 . S
H236 C220 0.931 . S
H237 C225 0.929 . S
H238 C226 0.960 1_545 S
H239 C226 0.962 . S
H240 C226 0.960 . S
H241 C227 0.961 . S
H242 C227 0.961 . S
H243 C227 0.961 . S
H244 C228 0.931 . S
H245 C233 0.930 . S
H246 C234 0.956 . S
H247 C234 0.961 . S
H248 C234 0.961 . S
H249 C235 0.958 . S
H250 C235 0.961 . S
H251 C235 0.960 . S
C252 C253 1.391 . S
C252 C254 1.394 . S
C252 H268 0.931 . S
C253 C252 1.391 . S
C253 C257 1.376 . S
C254 C252 1.394 . S
C254 C255 1.369 . S
C254 C258 1.531 . S
C255 C254 1.369 . S
C255 C256 1.410 . S
C255 C263 1.503 . S
C256 C255 1.410 . S
C256 C257 1.392 . S
C256 C259 1.511 . S
C257 C253 1.376 . S
C257 C256 1.392 . S
C257 H269 0.929 . S
C258 C254 1.531 . S
C258 H270 0.960 . S
C258 H271 0.962 . S
C258 H272 0.960 . S
C259 C256 1.511 . S
C259 H273 0.961 . S
C259 H274 0.961 . S
C259 H275 0.961 . S
C260 C261 1.370 . S
C260 C262 1.363 . S
C260 H276 0.931 . S
C261 C260 1.370 . S
C261 C265 1.408 . S
C262 C260 1.363 . S
C262 C263 1.370 . S
C262 C266 1.524 . S
C263 C255 1.503 . S
C263 C262 1.370 . S
C263 C264 1.403 . S
C264 C263 1.403 . S
C264 C265 1.404 . S
C264 C267 1.539 . S
C265 C261 1.408 . S
C265 C264 1.404 . S
C265 H277 0.930 . S
C266 C262 1.524 . S
C266 H278 0.956 . S
C266 H279 0.961 . S
C266 H280 0.961 . S
C267 C264 1.539 . S
C267 H281 0.958 . S
C267 H282 0.961 . S
C267 H283 0.960 . S
H268 C252 0.931 . S
H269 C257 0.929 . S
H270 C258 0.960 . S
H271 C258 0.962 . S
H272 C258 0.960 . S
H273 C259 0.961 . S
H274 C259 0.961 . S
H275 C259 0.961 . S
H276 C260 0.931 . S
H277 C265 0.930 . S
H278 C266 0.956 . S
H279 C266 0.961 . S
H280 C266 0.961 . S
H281 C267 0.958 . S
H282 C267 0.961 . S
H283 C267 0.960 . S
C284 C285 1.391 . S
C284 C286 1.394 . S
C284 H300 0.931 . S
C285 C284 1.391 . S
C285 C289 1.376 . S
C286 C284 1.394 . S
C286 C287 1.369 . S
C286 C290 1.531 . S
C287 C286 1.369 . S
C287 C288 1.410 . S
C287 C295 1.503 . S
C288 C287 1.410 . S
C288 C289 1.392 . S
C288 C291 1.511 . S
C289 C285 1.376 . S
C289 C288 1.392 . S
C289 H301 0.929 . S
C290 C286 1.531 . S
C290 H302 0.960 . S
C290 H303 0.962 . S
C290 H304 0.960 . S
C291 C288 1.511 . S
C291 H305 0.961 . S
C291 H306 0.961 . S
C291 H307 0.961 . S
C292 C293 1.370 . S
C292 C294 1.363 . S
C292 H308 0.931 . S
C293 C292 1.370 . S
C293 C297 1.408 . S
C294 C292 1.363 . S
C294 C295 1.370 . S
C294 C298 1.524 . S
C295 C287 1.503 . S
C295 C294 1.370 . S
C295 C296 1.403 . S
C296 C295 1.403 . S
C296 C297 1.404 . S
C296 C299 1.539 . S
C297 C293 1.408 . S
C297 C296 1.404 . S
C297 H309 0.930 . S
C298 C294 1.524 . S
C298 H310 0.956 . S
C298 H311 0.961 . S
C298 H312 0.961 . S
C299 C296 1.539 . S
C299 H313 0.958 . S
C299 H314 0.961 . S
C299 H315 0.960 . S
H300 C284 0.931 . S
H301 C289 0.929 . S
H302 C290 0.960 . S
H303 C290 0.962 . S
H304 C290 0.960 . S
H305 C291 0.961 . S
H306 C291 0.961 . S
H307 C291 0.961 . S
H308 C292 0.931 . S
H309 C297 0.930 . S
H310 C298 0.956 . S
H311 C298 0.961 . S
H312 C298 0.961 . S
H313 C299 0.958 . S
H314 C299 0.961 . S
H315 C299 0.960 . S
C316 C317 1.391 . S
C316 C318 1.394 . S
C316 H332 0.931 . S
C317 C316 1.391 . S
C317 C321 1.376 . S
C318 C316 1.394 . S
C318 C319 1.369 . S
C318 C322 1.531 . S
C319 C318 1.369 . S
C319 C320 1.410 . S
C319 C327 1.503 . S
C320 C319 1.410 . S
C320 C321 1.392 . S
C320 C323 1.511 . S
C321 C317 1.376 . S
C321 C320 1.392 . S
C321 H333 0.929 . S
C322 C318 1.531 . S
C322 H334 0.960 . S
C322 H335 0.962 . S
C322 H336 0.960 . S
C323 C320 1.511 . S
C323 H337 0.961 . S
C323 H338 0.961 . S
C323 H339 0.961 . S
C324 C325 1.370 . S
C324 C326 1.363 . S
C324 H340 0.931 . S
C325 C324 1.370 . S
C325 C329 1.408 . S
C326 C324 1.363 . S
C326 C327 1.370 . S
C326 C330 1.524 . S
C327 C319 1.503 . S
C327 C326 1.370 . S
C327 C328 1.403 . S
C328 C327 1.403 . S
C328 C329 1.404 . S
C328 C331 1.539 . S
C329 C325 1.408 . S
C329 C328 1.404 . S
C329 H341 0.930 . S
C330 C326 1.524 . S
C330 H342 0.956 . S
C330 H343 0.961 . S
C330 H344 0.961 . S
C331 C328 1.539 . S
C331 H345 0.958 . S
C331 H346 0.961 . S
C331 H347 0.960 . S
H332 C316 0.931 . S
H333 C321 0.929 . S
H334 C322 0.960 . S
H335 C322 0.962 . S
H336 C322 0.960 . S
H337 C323 0.961 . S
H338 C323 0.961 . S
H339 C323 0.961 . S
H340 C324 0.931 . S
H341 C329 0.930 . S
H342 C330 0.956 . S
H343 C330 0.961 . S
H344 C330 0.961 . S
H345 C331 0.958 . S
H346 C331 0.961 . S
H347 C331 0.960 . S
C348 C349 1.391 . S
C348 C350 1.394 . S
C348 H364 0.931 . S
C349 C348 1.391 . S
C349 C353 1.376 . S
C350 C348 1.394 . S
C350 C351 1.369 . S
C350 C354 1.531 . S
C351 C350 1.369 . S
C351 C352 1.410 . S
C351 C359 1.503 . S
C352 C351 1.410 . S
C352 C353 1.392 . S
C352 C355 1.511 . S
C353 C349 1.376 . S
C353 C352 1.392 . S
C353 H365 0.929 . S
C354 C350 1.531 . S
C354 H366 0.960 . S
C354 H367 0.962 . S
C354 H368 0.960 . S
C355 C352 1.511 . S
C355 H369 0.961 1_565 S
C355 H370 0.961 1_565 S
C355 H371 0.961 . S
C356 C357 1.370 . S
C356 C358 1.363 . S
C356 H372 0.931 . S
C357 C356 1.370 . S
C357 C361 1.408 . S
C358 C356 1.363 . S
C358 C359 1.370 . S
C358 C362 1.524 . S
C359 C351 1.503 . S
C359 C358 1.370 . S
C359 C360 1.403 . S
C360 C359 1.403 . S
C360 C361 1.404 . S
C360 C363 1.539 . S
C361 C357 1.408 . S
C361 C360 1.404 . S
C361 H373 0.930 . S
C362 C358 1.524 . S
C362 H374 0.956 . S
C362 H375 0.961 . S
C362 H376 0.961 . S
C363 C360 1.539 . S
C363 H377 0.958 . S
C363 H378 0.961 . S
C363 H379 0.960 . S
H364 C348 0.931 . S
H365 C353 0.929 . S
H366 C354 0.960 . S
H367 C354 0.962 . S
H368 C354 0.960 . S
H369 C355 0.961 1_545 S
H370 C355 0.961 1_545 S
H371 C355 0.961 . S
H372 C356 0.931 . S
H373 C361 0.930 . S
H374 C362 0.956 . S
H375 C362 0.961 . S
H376 C362 0.961 . S
H377 C363 0.958 . S
H378 C363 0.961 . S
H379 C363 0.960 . S
C380 C381 1.391 . S
C380 C382 1.394 . S
C380 H396 0.931 . S
C381 C380 1.391 . S
C381 C385 1.376 . S
C382 C380 1.394 . S
C382 C383 1.369 . S
C382 C386 1.531 . S
C383 C382 1.369 . S
C383 C384 1.410 . S
C383 C391 1.503 . S
C384 C383 1.410 . S
C384 C385 1.392 . S
C384 C387 1.511 . S
C385 C381 1.376 . S
C385 C384 1.392 . S
C385 H397 0.929 . S
C386 C382 1.531 . S
C386 H398 0.960 . S
C386 H399 0.962 . S
C386 H400 0.960 . S
C387 C384 1.511 . S
C387 H401 0.961 . S
C387 H402 0.961 . S
C387 H403 0.961 . S
C388 C389 1.370 . S
C388 C390 1.363 . S
C388 H404 0.931 . S
C389 C388 1.370 . S
C389 C393 1.408 . S
C390 C388 1.363 . S
C390 C391 1.370 . S
C390 C394 1.524 . S
C391 C383 1.503 . S
C391 C390 1.370 . S
C391 C392 1.403 . S
C392 C391 1.403 . S
C392 C393 1.404 . S
C392 C395 1.539 1_556 S
C393 C389 1.408 . S
C393 C392 1.404 . S
C393 H405 0.930 1_556 S
C394 C390 1.524 . S
C394 H406 0.956 . S
C394 H407 0.961 . S
C394 H408 0.961 . S
C395 C392 1.539 1_554 S
C395 H409 0.958 . S
C395 H410 0.961 . S
C395 H411 0.960 . S
H396 C380 0.931 . S
H397 C385 0.929 . S
H398 C386 0.960 . S
H399 C386 0.962 . S
H400 C386 0.960 . S
H401 C387 0.961 . S
H402 C387 0.961 . S
H403 C387 0.961 . S
H404 C388 0.931 . S
H405 C393 0.930 1_554 S
H406 C394 0.956 . S
H407 C394 0.961 . S
H408 C394 0.961 . S
H409 C395 0.958 . S
H410 C395 0.961 . S
H411 C395 0.960 . S
C412 C413 1.391 . S
C412 C414 1.394 . S
C412 H428 0.931 . S
C413 C412 1.391 . S
C413 C417 1.376 . S
C414 C412 1.394 . S
C414 C415 1.369 . S
C414 C418 1.531 . S
C415 C414 1.369 . S
C415 C416 1.410 . S
C415 C423 1.503 . S
C416 C415 1.410 . S
C416 C417 1.392 . S
C416 C419 1.511 . S
C417 C413 1.376 . S
C417 C416 1.392 . S
C417 H429 0.929 . S
C418 C414 1.531 . S
C418 H430 0.960 . S
C418 H431 0.962 . S
C418 H432 0.960 . S
C419 C416 1.511 . S
C419 H433 0.961 . S
C419 H434 0.961 . S
C419 H435 0.961 . S
C420 C421 1.370 . S
C420 C422 1.363 . S
C420 H436 0.931 . S
C421 C420 1.370 . S
C421 C425 1.408 . S
C422 C420 1.363 . S
C422 C423 1.370 . S
C422 C426 1.524 . S
C423 C415 1.503 . S
C423 C422 1.370 . S
C423 C424 1.403 . S
C424 C423 1.403 . S
C424 C425 1.404 . S
C424 C427 1.539 . S
C425 C421 1.408 . S
C425 C424 1.404 . S
C425 H437 0.930 . S
C426 C422 1.524 . S
C426 H438 0.956 . S
C426 H439 0.961 . S
C426 H440 0.961 . S
C427 C424 1.539 . S
C427 H441 0.958 . S
C427 H442 0.961 . S
C427 H443 0.960 . S
H428 C412 0.931 . S
H429 C417 0.929 . S
H430 C418 0.960 . S
H431 C418 0.962 . S
H432 C418 0.960 . S
H433 C419 0.961 . S
H434 C419 0.961 . S
H435 C419 0.961 . S
H436 C420 0.931 . S
H437 C425 0.930 . S
H438 C426 0.956 . S
H439 C426 0.961 . S
H440 C426 0.961 . S
H441 C427 0.958 . S
H442 C427 0.961 . S
H443 C427 0.960 . S
C444 C445 1.391 . S
C444 C446 1.394 . S
C444 H460 0.931 . S
C445 C444 1.391 . S
C445 C449 1.376 . S
C446 C444 1.394 . S
C446 C447 1.369 . S
C446 C450 1.531 . S
C447 C446 1.369 . S
C447 C448 1.410 . S
C447 C455 1.503 . S
C448 C447 1.410 . S
C448 C449 1.392 . S
C448 C451 1.511 . S
C449 C445 1.376 . S
C449 C448 1.392 . S
C449 H461 0.929 . S
C450 C446 1.531 . S
C450 H462 0.960 . S
C450 H463 0.962 . S
C450 H464 0.960 . S
C451 C448 1.511 . S
C451 H465 0.961 . S
C451 H466 0.961 . S
C451 H467 0.961 . S
C452 C453 1.370 . S
C452 C454 1.363 . S
C452 H468 0.931 1_554 S
C453 C452 1.370 . S
C453 C457 1.408 . S
C454 C452 1.363 . S
C454 C455 1.370 . S
C454 C458 1.524 1_554 S
C455 C447 1.503 . S
C455 C454 1.370 . S
C455 C456 1.403 . S
C456 C455 1.403 . S
C456 C457 1.404 . S
C456 C459 1.539 . S
C457 C453 1.408 . S
C457 C456 1.404 . S
C457 H469 0.930 . S
C458 C454 1.524 1_556 S
C458 H470 0.956 1_556 S
C458 H471 0.961 . S
C458 H472 0.961 . S
C459 C456 1.539 . S
C459 H473 0.958 . S
C459 H474 0.961 . S
C459 H475 0.960 . S
H460 C444 0.931 . S
H461 C449 0.929 . S
H462 C450 0.960 . S
H463 C450 0.962 . S
H464 C450 0.960 . S
H465 C451 0.961 . S
H466 C451 0.961 . S
H467 C451 0.961 . S
H468 C452 0.931 1_556 S
H469 C457 0.930 . S
H470 C458 0.956 1_554 S
H471 C458 0.961 . S
H472 C458 0.961 . S
H473 C459 0.958 . S
H474 C459 0.961 . S
H475 C459 0.960 . S
C476 C477 1.391 . S
C476 C478 1.394 . S
C476 H492 0.931 . S
C477 C476 1.391 . S
C477 C481 1.376 . S
C478 C476 1.394 . S
C478 C479 1.369 . S
C478 C482 1.531 . S
C479 C478 1.369 . S
C479 C480 1.410 . S
C479 C487 1.503 . S
C480 C479 1.410 . S
C480 C481 1.392 . S
C480 C483 1.511 . S
C481 C477 1.376 . S
C481 C480 1.392 . S
C481 H493 0.929 . S
C482 C478 1.531 . S
C482 H494 0.951 1_556 S
C482 H495 0.962 . S
C482 H496 0.963 . S
C483 C480 1.511 . S
C483 H497 0.961 . S
C483 H498 0.961 . S
C483 H499 0.961 . S
C484 C485 1.370 . S
C484 C486 1.363 . S
C484 H500 0.931 . S
C485 C484 1.370 . S
C485 C489 1.408 . S
C486 C484 1.363 . S
C486 C487 1.370 . S
C486 C490 1.524 . S
C487 C479 1.503 . S
C487 C486 1.370 . S
C487 C488 1.403 . S
C488 C487 1.403 . S
C488 C489 1.404 . S
C488 C491 1.539 . S
C489 C485 1.408 . S
C489 C488 1.404 . S
C489 H501 0.930 1_556 S
C490 C486 1.524 . S
C490 H502 0.956 . S
C490 H503 0.961 . S
C490 H504 0.961 . S
C491 C488 1.539 . S
C491 H505 0.958 1_556 S
C491 H506 0.961 1_556 S
C491 H507 0.960 . S
H492 C476 0.931 . S
H493 C481 0.929 . S
H494 C482 0.951 1_554 S
H495 C482 0.962 . S
H496 C482 0.963 . S
H497 C483 0.961 . S
H498 C483 0.961 . S
H499 C483 0.961 . S
H500 C484 0.931 . S
H501 C489 0.930 1_554 S
H502 C490 0.956 . S
H503 C490 0.961 . S
H504 C490 0.961 . S
H505 C491 0.958 1_554 S
H506 C491 0.961 1_554 S
H507 C491 0.960 . S
C508 C509 1.391 . S
C508 C510 1.394 . S
C508 H524 0.931 . S
C509 C508 1.391 . S
C509 C513 1.376 . S
C510 C508 1.394 . S
C510 C511 1.369 . S
C510 C514 1.531 . S
C511 C510 1.369 . S
C511 C512 1.410 . S
C511 C519 1.503 . S
C512 C511 1.410 . S
C512 C513 1.392 . S
C512 C515 1.511 1_655 S
C513 C509 1.376 . S
C513 C512 1.392 . S
C513 H525 0.929 . S
C514 C510 1.531 . S
C514 H526 0.960 . S
C514 H527 0.962 . S
C514 H528 0.960 . S
C515 C512 1.511 1_455 S
C515 H529 0.961 . S
C515 H530 0.961 . S
C515 H531 0.961 . S
C516 C517 1.370 . S
C516 C518 1.363 . S
C516 H532 0.931 . S
C517 C516 1.370 . S
C517 C521 1.408 . S
C518 C516 1.363 . S
C518 C519 1.370 . S
C518 C522 1.524 . S
C519 C511 1.503 . S
C519 C518 1.370 . S
C519 C520 1.403 . S
C520 C519 1.403 . S
C520 C521 1.404 . S
C520 C523 1.539 . S
C521 C517 1.408 . S
C521 C520 1.404 . S
C521 H533 0.930 1_655 S
C522 C518 1.524 . S
C522 H534 0.956 . S
C522 H535 0.961 . S
C522 H536 0.961 . S
C523 C520 1.539 . S
C523 H537 0.958 . S
C523 H538 0.961 1_655 S
C523 H539 0.960 . S
H524 C508 0.931 . S
H525 C513 0.929 . S
H526 C514 0.960 . S
H527 C514 0.962 . S
H528 C514 0.960 . S
H529 C515 0.961 . S
H530 C515 0.961 . S
H531 C515 0.961 . S
H532 C516 0.931 . S
H533 C521 0.930 1_455 S
H534 C522 0.956 . S
H535 C522 0.961 . S
H536 C522 0.961 . S
H537 C523 0.958 . S
H538 C523 0.961 1_455 S
H539 C523 0.960 . S
C540 C541 1.391 . S
C540 C542 1.394 . S
C540 H556 0.931 . S
C541 C540 1.391 . S
C541 C545 1.376 . S
C542 C540 1.394 . S
C542 C543 1.369 . S
C542 C546 1.531 . S
C543 C542 1.369 . S
C543 C544 1.410 . S
C543 C551 1.503 . S
C544 C543 1.410 . S
C544 C545 1.392 . S
C544 C547 1.511 . S
C545 C541 1.376 . S
C545 C544 1.392 . S
C545 H557 0.929 . S
C546 C542 1.531 . S
C546 H558 0.960 . S
C546 H559 0.962 . S
C546 H560 0.960 . S
C547 C544 1.511 . S
C547 H561 0.961 . S
C547 H562 0.961 . S
C547 H563 0.961 . S
C548 C549 1.370 . S
C548 C550 1.363 . S
C548 H564 0.931 . S
C549 C548 1.370 . S
C549 C553 1.408 . S
C550 C548 1.363 . S
C550 C551 1.370 . S
C550 C554 1.524 . S
C551 C543 1.503 . S
C551 C550 1.370 . S
C551 C552 1.403 . S
C552 C551 1.403 . S
C552 C553 1.404 . S
C552 C555 1.539 . S
C553 C549 1.408 . S
C553 C552 1.404 . S
C553 H565 0.930 . S
C554 C550 1.524 . S
C554 H566 0.956 . S
C554 H567 0.961 . S
C554 H568 0.961 . S
C555 C552 1.539 . S
C555 H569 0.958 . S
C555 H570 0.961 . S
C555 H571 0.960 . S
H556 C540 0.931 . S
H557 C545 0.929 . S
H558 C546 0.960 . S
H559 C546 0.962 . S
H560 C546 0.960 . S
H561 C547 0.961 . S
H562 C547 0.961 . S
H563 C547 0.961 . S
H564 C548 0.931 . S
H565 C553 0.930 . S
H566 C554 0.956 . S
H567 C554 0.961 . S
H568 C554 0.961 . S
H569 C555 0.958 . S
H570 C555 0.961 . S
H571 C555 0.960 . S
C572 C573 1.391 . S
C572 C574 1.394 . S
C572 H588 0.931 . S
C573 C572 1.391 . S
C573 C577 1.376 . S
C574 C572 1.394 . S
C574 C575 1.369 . S
C574 C578 1.531 1_655 S
C575 C574 1.369 . S
C575 C576 1.410 . S
C575 C583 1.503 . S
C576 C575 1.410 . S
C576 C577 1.392 . S
C576 C579 1.511 . S
C577 C573 1.376 . S
C577 C576 1.392 . S
C577 H589 0.929 . S
C578 C574 1.531 1_455 S
C578 H590 0.960 . S
C578 H591 0.962 1_565 S
C578 H592 0.960 . S
C579 C576 1.511 . S
C579 H593 0.961 . S
C579 H594 0.961 . S
C579 H595 0.961 . S
C580 C581 1.370 1_655 S
C580 C582 1.363 . S
C580 H596 0.931 1_565 S
C581 C580 1.370 1_455 S
C581 C585 1.408 . S
C582 C580 1.363 . S
C582 C583 1.370 . S
C582 C586 1.538 . S
C583 C575 1.503 . S
C583 C582 1.370 . S
C583 C584 1.403 1_655 S
C584 C583 1.403 1_455 S
C584 C585 1.404 . S
C584 C587 1.539 . S
C585 C581 1.408 . S
C585 C584 1.404 . S
C585 H597 0.930 . S
C586 C582 1.538 . S
C586 H598 0.947 1_565 S
C586 H599 0.971 . S
C586 H600 0.946 1_565 S
C587 C584 1.539 . S
C587 H601 0.958 . S
C587 H602 0.961 . S
C587 H603 0.960 1_455 S
H588 C572 0.931 . S
H589 C577 0.929 . S
H590 C578 0.960 . S
H591 C578 0.962 1_545 S
H592 C578 0.960 . S
H593 C579 0.961 . S
H594 C579 0.961 . S
H595 C579 0.961 . S
H596 C580 0.931 1_545 S
H597 C585 0.930 . S
H598 C586 0.947 1_545 S
H599 C586 0.971 . S
H600 C586 0.946 1_545 S
H601 C587 0.958 . S
H602 C587 0.961 . S
H603 C587 0.960 1_655 S
C604 C605 1.391 . S
C604 C606 1.394 . S
C604 H620 0.931 . S
C605 C604 1.391 . S
C605 C609 1.376 . S
C606 C604 1.394 . S
C606 C607 1.369 . S
C606 C610 1.531 . S
C607 C606 1.369 . S
C607 C608 1.410 . S
C607 C615 1.503 . S
C608 C607 1.410 . S
C608 C609 1.392 . S
C608 C611 1.511 . S
C609 C605 1.376 . S
C609 C608 1.392 . S
C609 H621 0.929 . S
C610 C606 1.531 . S
C610 H622 0.960 . S
C610 H623 0.962 . S
C610 H624 0.960 . S
C611 C608 1.511 . S
C611 H625 0.961 . S
C611 H626 0.961 . S
C611 H627 0.961 . S
C612 C613 1.370 . S
C612 C614 1.363 . S
C612 H628 0.931 . S
C613 C612 1.370 . S
C613 C617 1.408 . S
C614 C612 1.363 . S
C614 C615 1.370 . S
C614 C618 1.524 . S
C615 C607 1.503 . S
C615 C614 1.370 . S
C615 C616 1.403 . S
C616 C615 1.403 . S
C616 C617 1.404 . S
C616 C619 1.539 . S
C617 C613 1.408 . S
C617 C616 1.404 . S
C617 H629 0.930 . S
C618 C614 1.524 . S
C618 H630 0.956 . S
C618 H631 0.961 . S
C618 H632 0.961 . S
C619 C616 1.539 . S
C619 H633 0.958 . S
C619 H634 0.961 1_545 S
C619 H635 0.960 . S
H620 C604 0.931 . S
H621 C609 0.929 . S
H622 C610 0.960 . S
H623 C610 0.962 . S
H624 C610 0.960 . S
H625 C611 0.961 . S
H626 C611 0.961 . S
H627 C611 0.961 . S
H628 C612 0.931 . S
H629 C617 0.930 . S
H630 C618 0.956 . S
H631 C618 0.961 . S
H632 C618 0.961 . S
H633 C619 0.958 . S
H634 C619 0.961 1_565 S
H635 C619 0.960 . S
C636 C637 1.391 . S
C636 C638 1.394 . S
C636 H652 0.931 . S
C637 C636 1.391 . S
C637 C641 1.376 . S
C638 C636 1.394 . S
C638 C639 1.369 . S
C638 C642 1.531 . S
C639 C638 1.369 . S
C639 C640 1.410 . S
C639 C647 1.503 . S
C640 C639 1.410 . S
C640 C641 1.392 . S
C640 C643 1.511 . S
C641 C637 1.376 . S
C641 C640 1.392 . S
C641 H653 0.929 . S
C642 C638 1.531 . S
C642 H654 0.960 . S
C642 H655 0.962 . S
C642 H656 0.960 . S
C643 C640 1.511 . S
C643 H657 0.961 . S
C643 H658 0.961 . S
C643 H659 0.961 . S
C644 C645 1.370 . S
C644 C646 1.363 . S
C644 H660 0.931 . S
C645 C644 1.370 . S
C645 C649 1.408 . S
C646 C644 1.363 . S
C646 C647 1.370 . S
C646 C650 1.524 . S
C647 C639 1.503 . S
C647 C646 1.370 . S
C647 C648 1.403 . S
C648 C647 1.403 . S
C648 C649 1.404 . S
C648 C651 1.539 . S
C649 C645 1.408 . S
C649 C648 1.404 . S
C649 H661 0.930 . S
C650 C646 1.524 . S
C650 H662 0.956 . S
C650 H663 0.961 . S
C650 H664 0.961 . S
C651 C648 1.539 . S
C651 H665 0.958 . S
C651 H666 0.961 . S
C651 H667 0.960 . S
H652 C636 0.931 . S
H653 C641 0.929 . S
H654 C642 0.960 . S
H655 C642 0.962 . S
H656 C642 0.960 . S
H657 C643 0.961 . S
H658 C643 0.961 . S
H659 C643 0.961 . S
H660 C644 0.931 . S
H661 C649 0.930 . S
H662 C650 0.956 . S
H663 C650 0.961 . S
H664 C650 0.961 . S
H665 C651 0.958 . S
H666 C651 0.961 . S
H667 C651 0.960 . S
C668 C669 1.391 . S
C668 C670 1.394 . S
C668 H684 0.931 . S
C669 C668 1.391 . S
C669 C673 1.376 . S
C670 C668 1.394 . S
C670 C671 1.369 . S
C670 C674 1.531 . S
C671 C670 1.369 . S
C671 C672 1.410 . S
C671 C679 1.503 . S
C672 C671 1.410 . S
C672 C673 1.392 . S
C672 C675 1.511 . S
C673 C669 1.376 . S
C673 C672 1.392 . S
C673 H685 0.929 . S
C674 C670 1.531 . S
C674 H686 0.960 . S
C674 H687 0.962 . S
C674 H688 0.960 . S
C675 C672 1.511 . S
C675 H689 0.961 1_455 S
C675 H690 0.961 . S
C675 H691 0.961 1_455 S
C676 C677 1.370 . S
C676 C678 1.363 . S
C676 H692 0.931 . S
C677 C676 1.370 . S
C677 C681 1.408 . S
C678 C676 1.363 . S
C678 C679 1.370 . S
C678 C682 1.524 . S
C679 C671 1.503 . S
C679 C678 1.370 . S
C679 C680 1.403 . S
C680 C679 1.403 . S
C680 C681 1.404 . S
C680 C683 1.539 . S
C681 C677 1.408 . S
C681 C680 1.404 . S
C681 H693 0.930 . S
C682 C678 1.524 . S
C682 H694 0.956 . S
C682 H695 0.961 . S
C682 H696 0.961 . S
C683 C680 1.539 . S
C683 H697 0.958 . S
C683 H698 0.961 . S
C683 H699 0.960 . S
H684 C668 0.931 . S
H685 C673 0.929 . S
H686 C674 0.960 . S
H687 C674 0.962 . S
H688 C674 0.960 . S
H689 C675 0.961 1_655 S
H690 C675 0.961 . S
H691 C675 0.961 1_655 S
H692 C676 0.931 . S
H693 C681 0.930 . S
H694 C682 0.956 . S
H695 C682 0.961 . S
H696 C682 0.961 . S
H697 C683 0.958 . S
H698 C683 0.961 . S
H699 C683 0.960 . S
C700 C701 1.391 . S
C700 C702 1.394 . S
C700 H716 0.931 . S
C701 C700 1.391 . S
C701 C705 1.376 . S
C702 C700 1.394 . S
C702 C703 1.369 . S
C702 C706 1.531 1_565 S
C703 C702 1.369 . S
C703 C704 1.410 . S
C703 C711 1.503 . S
C704 C703 1.410 . S
C704 C705 1.392 . S
C704 C707 1.511 . S
C705 C701 1.376 . S
C705 C704 1.392 . S
C705 H717 0.929 . S
C706 C702 1.531 1_545 S
C706 H718 0.960 . S
C706 H719 0.958 1_546 S
C706 H720 0.960 . S
C707 C704 1.511 . S
C707 H721 0.961 . S
C707 H722 0.961 . S
C707 H723 0.961 . S
C708 C709 1.370 1_554 S
C708 C710 1.363 1_554 S
C708 H724 0.931 . S
C709 C708 1.370 1_556 S
C709 C713 1.408 1_565 S
C710 C708 1.363 1_556 S
C710 C711 1.370 . S
C710 C714 1.524 1_556 S
C711 C703 1.503 . S
C711 C710 1.370 . S
C711 C712 1.403 1_565 S
C712 C711 1.403 1_545 S
C712 C713 1.404 . S
C712 C715 1.539 . S
C713 C709 1.408 1_545 S
C713 C712 1.404 . S
C713 H725 0.930 . S
C714 C710 1.524 1_554 S
C714 H726 0.956 . S
C714 H727 0.961 1_554 S
C714 H728 0.961 . S
C715 C712 1.539 . S
C715 H729 0.958 . S
C715 H730 0.961 . S
C715 H731 0.960 . S
H716 C700 0.931 . S
H717 C705 0.929 . S
H718 C706 0.960 . S
H719 C706 0.958 1_564 S
H720 C706 0.960 . S
H721 C707 0.961 . S
H722 C707 0.961 . S
H723 C707 0.961 . S
H724 C708 0.931 . S
H725 C713 0.930 . S
H726 C714 0.956 . S
H727 C714 0.961 1_556 S
H728 C714 0.961 . S
H729 C715 0.958 . S
H730 C715 0.961 . S
H731 C715 0.960 . S
C732 C733 1.391 . S
C732 C734 1.394 . S
C732 H748 0.931 . S
C733 C732 1.391 . S
C733 C737 1.376 . S
C734 C732 1.394 . S
C734 C735 1.369 . S
C734 C738 1.531 . S
C735 C734 1.369 . S
C735 C736 1.410 . S
C735 C743 1.503 . S
C736 C735 1.410 . S
C736 C737 1.392 . S
C736 C739 1.511 . S
C737 C733 1.376 . S
C737 C736 1.392 . S
C737 H749 0.929 . S
C738 C734 1.531 . S
C738 H750 0.960 . S
C738 H751 0.962 . S
C738 H752 0.960 . S
C739 C736 1.511 . S
C739 H753 0.961 . S
C739 H754 0.961 . S
C739 H755 0.961 . S
C740 C741 1.370 . S
C740 C742 1.363 . S
C740 H756 0.931 . S
C741 C740 1.370 . S
C741 C745 1.408 . S
C742 C740 1.363 . S
C742 C743 1.370 . S
C742 C746 1.524 . S
C743 C735 1.503 . S
C743 C742 1.370 . S
C743 C744 1.403 . S
C744 C743 1.403 . S
C744 C745 1.404 . S
C744 C747 1.539 . S
C745 C741 1.408 . S
C745 C744 1.404 . S
C745 H757 0.930 . S
C746 C742 1.524 . S
C746 H758 0.956 . S
C746 H759 0.961 . S
C746 H760 0.961 . S
C747 C744 1.539 . S
C747 H761 0.958 . S
C747 H762 0.961 . S
C747 H763 0.960 . S
H748 C732 0.931 . S
H749 C737 0.929 . S
H750 C738 0.960 . S
H751 C738 0.962 . S
H752 C738 0.960 . S
H753 C739 0.961 . S
H754 C739 0.961 . S
H755 C739 0.961 . S
H756 C740 0.931 . S
H757 C745 0.930 . S
H758 C746 0.956 . S
H759 C746 0.961 . S
H760 C746 0.961 . S
H761 C747 0.958 . S
H762 C747 0.961 . S
H763 C747 0.960 . S
C764 C765 1.391 . S
C764 C766 1.394 . S
C764 H780 0.931 . S
C765 C764 1.391 . S
C765 C769 1.376 . S
C766 C764 1.394 . S
C766 C767 1.369 . S
C766 C770 1.531 . S
C767 C766 1.369 . S
C767 C768 1.410 . S
C767 C775 1.503 . S
C768 C767 1.410 . S
C768 C769 1.392 . S
C768 C771 1.511 . S
C769 C765 1.376 . S
C769 C768 1.392 . S
C769 H781 0.929 . S
C770 C766 1.531 . S
C770 H782 0.960 . S
C770 H783 0.962 . S
C770 H784 0.960 . S
C771 C768 1.511 . S
C771 H785 0.961 . S
C771 H786 0.961 . S
C771 H787 0.961 . S
C772 C773 1.370 . S
C772 C774 1.363 . S
C772 H788 0.931 . S
C773 C772 1.370 . S
C773 C777 1.408 . S
C774 C772 1.363 . S
C774 C775 1.370 . S
C774 C778 1.524 . S
C775 C767 1.503 . S
C775 C774 1.370 . S
C775 C776 1.403 . S
C776 C775 1.403 . S
C776 C777 1.404 . S
C776 C779 1.539 . S
C777 C773 1.408 . S
C777 C776 1.404 . S
C777 H789 0.930 1_554 S
C778 C774 1.524 . S
C778 H790 0.956 . S
C778 H791 0.961 . S
C778 H792 0.961 . S
C779 C776 1.539 . S
C779 H793 0.958 . S
C779 H794 0.961 1_554 S
C779 H795 0.960 . S
H780 C764 0.931 . S
H781 C769 0.929 . S
H782 C770 0.960 . S
H783 C770 0.962 . S
H784 C770 0.960 . S
H785 C771 0.961 . S
H786 C771 0.961 . S
H787 C771 0.961 . S
H788 C772 0.931 . S
H789 C777 0.930 1_556 S
H790 C778 0.956 . S
H791 C778 0.961 . S
H792 C778 0.961 . S
H793 C779 0.958 . S
H794 C779 0.961 1_556 S
H795 C779 0.960 . S
C796 C797 1.391 . S
C796 C798 1.394 . S
C796 H812 0.931 . S
C797 C796 1.391 . S
C797 C801 1.376 . S
C798 C796 1.394 . S
C798 C799 1.369 . S
C798 C802 1.531 . S
C799 C798 1.369 . S
C799 C800 1.410 . S
C799 C807 1.503 . S
C800 C799 1.410 . S
C800 C801 1.392 . S
C800 C803 1.511 . S
C801 C797 1.376 . S
C801 C800 1.392 . S
C801 H813 0.929 . S
C802 C798 1.531 . S
C802 H814 0.960 . S
C802 H815 0.962 . S
C802 H816 0.960 . S
C803 C800 1.511 . S
C803 H817 0.961 . S
C803 H818 0.961 . S
C803 H819 0.961 . S
C804 C805 1.370 . S
C804 C806 1.363 . S
C804 H820 0.931 . S
C805 C804 1.370 . S
C805 C809 1.408 . S
C806 C804 1.363 . S
C806 C807 1.370 . S
C806 C810 1.524 . S
C807 C799 1.503 . S
C807 C806 1.370 . S
C807 C808 1.403 . S
C808 C807 1.403 . S
C808 C809 1.404 . S
C808 C811 1.539 . S
C809 C805 1.408 . S
C809 C808 1.404 . S
C809 H821 0.930 . S
C810 C806 1.524 . S
C810 H822 0.956 . S
C810 H823 0.961 . S
C810 H824 0.961 . S
C811 C808 1.539 . S
C811 H825 0.958 . S
C811 H826 0.961 . S
C811 H827 0.960 . S
H812 C796 0.931 . S
H813 C801 0.929 . S
H814 C802 0.960 . S
H815 C802 0.962 . S
H816 C802 0.960 . S
H817 C803 0.961 . S
H818 C803 0.961 . S
H819 C803 0.961 . S
H820 C804 0.931 . S
H821 C809 0.930 . S
H822 C810 0.956 . S
H823 C810 0.961 . S
H824 C810 0.961 . S
H825 C811 0.958 . S
H826 C811 0.961 . S
H827 C811 0.960 . S
C828 C829 1.391 . S
C828 C830 1.394 . S
C828 H844 0.931 . S
C829 C828 1.391 . S
C829 C833 1.376 . S
C830 C828 1.394 . S
C830 C831 1.369 . S
C830 C834 1.531 . S
C831 C830 1.369 . S
C831 C832 1.410 . S
C831 C839 1.503 . S
C832 C831 1.410 . S
C832 C833 1.392 . S
C832 C835 1.511 . S
C833 C829 1.376 . S
C833 C832 1.392 . S
C833 H845 0.929 . S
C834 C830 1.531 . S
C834 H846 0.960 . S
C834 H847 0.962 . S
C834 H848 0.960 . S
C835 C832 1.511 . S
C835 H849 0.961 1_556 S
C835 H850 0.961 . S
C835 H851 0.961 1_655 S
C836 C837 1.370 . S
C836 C838 1.363 . S
C836 H852 0.931 . S
C837 C836 1.370 . S
C837 C841 1.408 . S
C838 C836 1.363 . S
C838 C839 1.370 . S
C838 C842 1.524 . S
C839 C831 1.503 . S
C839 C838 1.370 . S
C839 C840 1.403 . S
C840 C839 1.403 . S
C840 C841 1.404 . S
C840 C843 1.539 1_655 S
C841 C837 1.408 . S
C841 C840 1.404 . S
C841 H853 0.930 1_655 S
C842 C838 1.524 . S
C842 H854 0.956 . S
C842 H855 0.961 . S
C842 H856 0.961 . S
C843 C840 1.539 1_455 S
C843 H857 0.958 . S
C843 H858 0.961 . S
C843 H859 0.960 . S
H844 C828 0.931 . S
H845 C833 0.929 . S
H846 C834 0.960 . S
H847 C834 0.962 . S
H848 C834 0.960 . S
H849 C835 0.961 1_554 S
H850 C835 0.961 . S
H851 C835 0.961 1_455 S
H852 C836 0.931 . S
H853 C841 0.930 1_455 S
H854 C842 0.956 . S
H855 C842 0.961 . S
H856 C842 0.961 . S
H857 C843 0.958 . S
H858 C843 0.961 . S
H859 C843 0.960 . S
C860 C861 1.391 . S
C860 C862 1.394 . S
C860 H876 0.931 . S
C861 C860 1.391 . S
C861 C865 1.376 . S
C862 C860 1.394 . S
C862 C863 1.369 . S
C862 C866 1.531 . S
C863 C862 1.369 . S
C863 C864 1.410 . S
C863 C871 1.503 . S
C864 C863 1.410 . S
C864 C865 1.392 . S
C864 C867 1.511 . S
C865 C861 1.376 . S
C865 C864 1.392 . S
C865 H877 0.929 . S
C866 C862 1.531 . S
C866 H878 0.960 . S
C866 H879 0.962 . S
C866 H880 0.960 . S
C867 C864 1.511 . S
C867 H881 0.961 . S
C867 H882 0.961 . S
C867 H883 0.961 . S
C868 C869 1.370 . S
C868 C870 1.363 . S
C868 H884 0.931 . S
C869 C868 1.370 . S
C869 C873 1.408 . S
C870 C868 1.363 . S
C870 C871 1.370 . S
C870 C874 1.524 . S
C871 C863 1.503 . S
C871 C870 1.370 . S
C871 C872 1.403 . S
C872 C871 1.403 . S
C872 C873 1.404 . S
C872 C875 1.539 . S
C873 C869 1.408 . S
C873 C872 1.404 . S
C873 H885 0.930 . S
C874 C870 1.524 . S
C874 H886 0.956 . S
C874 H887 0.961 . S
C874 H888 0.961 . S
C875 C872 1.539 . S
C875 H889 0.958 . S
C875 H890 0.961 . S
C875 H891 0.960 . S
H876 C860 0.931 . S
H877 C865 0.929 . S
H878 C866 0.960 . S
H879 C866 0.962 . S
H880 C866 0.960 . S
H881 C867 0.961 . S
H882 C867 0.961 . S
H883 C867 0.961 . S
H884 C868 0.931 . S
H885 C873 0.930 . S
H886 C874 0.956 . S
H887 C874 0.961 . S
H888 C874 0.961 . S
H889 C875 0.958 . S
H890 C875 0.961 . S
H891 C875 0.960 . S
C892 C893 1.391 . S
C892 C894 1.394 . S
C892 H908 0.931 . S
C893 C892 1.391 . S
C893 C897 1.376 . S
C894 C892 1.394 . S
C894 C895 1.369 . S
C894 C898 1.531 . S
C895 C894 1.369 . S
C895 C896 1.410 . S
C895 C903 1.503 . S
C896 C895 1.410 . S
C896 C897 1.392 . S
C896 C899 1.511 . S
C897 C893 1.376 . S
C897 C896 1.392 . S
C897 H909 0.929 . S
C898 C894 1.531 . S
C898 H910 0.960 . S
C898 H911 0.962 . S
C898 H912 0.960 . S
C899 C896 1.511 . S
C899 H913 0.961 . S
C899 H914 0.961 . S
C899 H915 0.961 . S
C900 C901 1.370 . S
C900 C902 1.363 . S
C900 H916 0.931 . S
C901 C900 1.370 . S
C901 C905 1.408 . S
C902 C900 1.363 . S
C902 C903 1.370 . S
C902 C906 1.524 . S
C903 C895 1.503 . S
C903 C902 1.370 . S
C903 C904 1.403 . S
C904 C903 1.403 . S
C904 C905 1.404 . S
C904 C907 1.539 . S
C905 C901 1.408 . S
C905 C904 1.404 . S
C905 H917 0.930 . S
C906 C902 1.524 . S
C906 H918 0.956 . S
C906 H919 0.961 . S
C906 H920 0.961 . S
C907 C904 1.539 . S
C907 H921 0.958 . S
C907 H922 0.961 1_455 S
C907 H923 0.960 . S
H908 C892 0.931 . S
H909 C897 0.929 . S
H910 C898 0.960 . S
H911 C898 0.962 . S
H912 C898 0.960 . S
H913 C899 0.961 . S
H914 C899 0.961 . S
H915 C899 0.961 . S
H916 C900 0.931 . S
H917 C905 0.930 . S
H918 C906 0.956 . S
H919 C906 0.961 . S
H920 C906 0.961 . S
H921 C907 0.958 . S
H922 C907 0.961 1_655 S
H923 C907 0.960 . S
C924 C925 1.391 . S
C924 C926 1.394 . S
C924 H940 0.931 . S
C925 C924 1.391 . S
C925 C929 1.376 . S
C926 C924 1.394 . S
C926 C927 1.369 . S
C926 C930 1.531 . S
C927 C926 1.369 . S
C927 C928 1.410 . S
C927 C935 1.503 . S
C928 C927 1.410 . S
C928 C929 1.392 . S
C928 C931 1.511 . S
C929 C925 1.376 . S
C929 C928 1.392 . S
C929 H941 0.929 . S
C930 C926 1.531 . S
C930 H942 0.960 . S
C930 H943 0.962 . S
C930 H944 0.960 . S
C931 C928 1.511 . S
C931 H945 0.961 . S
C931 H946 0.961 . S
C931 H947 0.961 . S
C932 C933 1.370 . S
C932 C934 1.363 . S
C932 H948 0.931 . S
C933 C932 1.370 . S
C933 C937 1.408 . S
C934 C932 1.363 . S
C934 C935 1.370 . S
C934 C938 1.524 . S
C935 C927 1.503 . S
C935 C934 1.370 . S
C935 C936 1.403 . S
C936 C935 1.403 . S
C936 C937 1.404 . S
C936 C939 1.539 . S
C937 C933 1.408 . S
C937 C936 1.404 . S
C937 H949 0.930 . S
C938 C934 1.524 . S
C938 H950 0.956 . S
C938 H951 0.961 . S
C938 H952 0.961 . S
C939 C936 1.539 . S
C939 H953 0.958 . S
C939 H954 0.961 . S
C939 H955 0.960 . S
H940 C924 0.931 . S
H941 C929 0.929 . S
H942 C930 0.960 . S
H943 C930 0.962 . S
H944 C930 0.960 . S
H945 C931 0.961 . S
H946 C931 0.961 . S
H947 C931 0.961 . S
H948 C932 0.931 . S
H949 C937 0.930 . S
H950 C938 0.956 . S
H951 C938 0.961 . S
H952 C938 0.961 . S
H953 C939 0.958 . S
H954 C939 0.961 . S
H955 C939 0.960 . S
C189 N1 1.501 . S
C197 C120 1.524 . S
C221 N18 1.784 . S
C229 C142 1.734 . S
C261 C161 0.947 . S
C253 N28 1.042 . S
C285 N40 1.826 . S
C293 C182 1.566 . S
C325 C139 2.029 . S
C317 N5 2.089 . S
C357 C117 1.621 . S
C349 N14 1.660 . S
C389 C184 1.302 . S
C381 N31 1.343 . S
C421 C163 1.116 . S
C413 N41 1.145 . S
C445 N2 1.554 . S
C453 C181 1.521 . S
C485 C140 1.354 1_556 S
C477 N27 1.623 . S
C509 N44 1.706 . S
C517 C122 1.529 1_655 S
C541 N15 1.352 . S
C549 C160 1.323 . S
C581 C118 1.827 . S
C573 N57 1.895 . S
C605 N70 1.227 . S
C613 C138 1.204 . S
C637 N79 1.390 . S
C645 C164 1.204 . S
C669 N93 1.479 . S
C677 C185 1.219 . S
C701 N54 1.589 . S
C709 C141 1.546 1_556 S
C741 C121 2.079 . S
C733 N66 2.125 . S
C773 C180 0.834 . S
C765 N80 0.818 . S
C805 C159 1.458 . S
C797 N96 1.513 . S
C829 N53 1.529 . S
C837 C183 1.490 . S
C869 C143 1.182 . S
C861 N83 1.380 . S
C901 C119 1.424 . S
C893 N92 1.562 . S
C925 N67 1.368 . S
C933 C162 1.366 . S
