# Generated by pormake.
# Topology nom, (4,4)-cn, num edge types: 1
# Building blocks:
#     Node 0, Type 0, BuildingBlock: MUDLON_clean_linker_0, # of connection points: 4
#     Node 1, Type 0, BuildingBlock: MUDLON_clean_linker_0, # of connection points: 4
#     Node 2, Type 0, BuildingBlock: MUDLON_clean_linker_0, # of connection points: 4
#     Node 3, Type 0, BuildingBlock: MUDLON_clean_linker_0, # of connection points: 4
#     Node 4, Type 0, BuildingBlock: MUDLON_clean_linker_0, # of connection points: 4
#     Node 5, Type 0, BuildingBlock: MUDLON_clean_linker_0, # of connection points: 4
#     Node 6, Type 1, BuildingBlock: GALJAG_clean_sbu_0, # of connection points: 4
#     Node 7, Type 1, BuildingBlock: GALJAG_clean_sbu_0, # of connection points: 4
#     Node 8, Type 1, BuildingBlock: GALJAG_clean_sbu_0, # of connection points: 4
#     Node 9, Type 1, BuildingBlock: GALJAG_clean_sbu_0, # of connection points: 4
#     Node 10, Type 1, BuildingBlock: GALJAG_clean_sbu_0, # of connection points: 4
#     Node 11, Type 1, BuildingBlock: GALJAG_clean_sbu_0, # of connection points: 4
#     Edge 12, Type (0, 1), BuildingBlock: ZUJKAS_clean_linker_0, # of connection points: 2
#     Edge 13, Type (0, 1), BuildingBlock: ZUJKAS_clean_linker_0, # of connection points: 2
#     Edge 14, Type (0, 1), BuildingBlock: ZUJKAS_clean_linker_0, # of connection points: 2
#     Edge 15, Type (0, 1), BuildingBlock: ZUJKAS_clean_linker_0, # of connection points: 2
#     Edge 16, Type (0, 1), BuildingBlock: ZUJKAS_clean_linker_0, # of connection points: 2
#     Edge 17, Type (0, 1), BuildingBlock: ZUJKAS_clean_linker_0, # of connection points: 2
#     Edge 18, Type (0, 1), BuildingBlock: ZUJKAS_clean_linker_0, # of connection points: 2
#     Edge 19, Type (0, 1), BuildingBlock: ZUJKAS_clean_linker_0, # of connection points: 2
#     Edge 20, Type (0, 1), BuildingBlock: ZUJKAS_clean_linker_0, # of connection points: 2
#     Edge 21, Type (0, 1), BuildingBlock: ZUJKAS_clean_linker_0, # of connection points: 2
#     Edge 22, Type (0, 1), BuildingBlock: ZUJKAS_clean_linker_0, # of connection points: 2
#     Edge 23, Type (0, 1), BuildingBlock: ZUJKAS_clean_linker_0, # of connection points: 2
#     Edge 24, Type (0, 1), BuildingBlock: ZUJKAS_clean_linker_0, # of connection points: 2
#     Edge 25, Type (0, 1), BuildingBlock: ZUJKAS_clean_linker_0, # of connection points: 2
#     Edge 26, Type (0, 1), BuildingBlock: ZUJKAS_clean_linker_0, # of connection points: 2
#     Edge 27, Type (0, 1), BuildingBlock: ZUJKAS_clean_linker_0, # of connection points: 2
#     Edge 28, Type (0, 1), BuildingBlock: ZUJKAS_clean_linker_0, # of connection points: 2
#     Edge 29, Type (0, 1), BuildingBlock: ZUJKAS_clean_linker_0, # of connection points: 2
#     Edge 30, Type (0, 1), BuildingBlock: ZUJKAS_clean_linker_0, # of connection points: 2
#     Edge 31, Type (0, 1), BuildingBlock: ZUJKAS_clean_linker_0, # of connection points: 2
#     Edge 32, Type (0, 1), BuildingBlock: ZUJKAS_clean_linker_0, # of connection points: 2
#     Edge 33, Type (0, 1), BuildingBlock: ZUJKAS_clean_linker_0, # of connection points: 2
#     Edge 34, Type (0, 1), BuildingBlock: ZUJKAS_clean_linker_0, # of connection points: 2
#     Edge 35, Type (0, 1), BuildingBlock: ZUJKAS_clean_linker_0, # of connection points: 2
# Relax obj value: 0.014
# Max RMSD: 0.119
# Mean RMSD: 0.084
data_MOF--net-nom--node1-GALJAG_clean_sbu_0--node2-MUDLON_clean_linker_0--edge1-ZUJKAS_clean_linker_0
_symmetry_space_group_name_H-M    P1
_symmetry_Int_Tables_number       1
_symmetry_cell_setting            triclinic
loop_
_symmetry_equiv_pos_as_xyz
'x, y, z'
_cell_length_a     73.4241
_cell_length_b     74.369045
_cell_length_c     76.548072
_cell_angle_alpha  90.366677
_cell_angle_beta   89.839919
_cell_angle_gamma 120.5387
loop_
_atom_site_label
_atom_site_type_symbol
_atom_site_fract_x
_atom_site_fract_y
_atom_site_fract_z
_atom_type_partial_charge
H0 H 0.10515 0.59069 0.33156 0.0
N1 N 0.08517 0.61125 0.34293 0.0
H2 H 0.13652 0.6052 0.31315 0.0
H3 H 0.10168 0.64633 0.32475 0.0
H4 H 0.13259 0.6607 0.30555 0.0
H5 H 0.10283 0.63959 0.36807 0.0
H6 H 0.11655 0.63595 0.39609 0.0
H7 H 0.08071 0.57505 0.35601 0.0
H8 H 0.09428 0.57117 0.38406 0.0
H9 H 0.06674 0.57351 0.32581 0.0
H10 H 0.05484 0.61987 0.34817 0.0
H11 H 0.02954 0.55259 0.31696 0.0
H12 H 0.01782 0.59933 0.33924 0.0
H13 H 0.92995 0.50031 0.29205 0.0
H14 H 0.91472 0.48236 0.2644 0.0
H15 H 0.91334 0.53655 0.24612 0.0
H16 H 0.92764 0.55392 0.27418 0.0
H17 H 0.90886 0.55139 0.30986 0.0
H18 H 0.87685 0.53392 0.3278 0.0
H19 H 0.88997 0.48478 0.33912 0.0
H20 H 0.92221 0.50261 0.32139 0.0
H21 H 0.96933 0.53961 0.28507 0.0
H22 H 0.00518 0.55502 0.29591 0.0
H23 H 0.98558 0.56692 0.34573 0.0
N24 N 0.93538 0.53813 0.30224 0.0
H25 H 0.94976 0.552 0.33494 0.0
C26 C 0.10127 0.61764 0.32973 0.0
C27 C 0.11085 0.60585 0.32578 0.0
C28 C 0.12877 0.61415 0.31511 0.0
C29 C 0.13733 0.6343 0.30805 0.0
C30 C 0.12677 0.64537 0.3111 0.0
C31 C 0.10899 0.63713 0.3219 0.0
C32 C 0.09083 0.60769 0.36 0.0
C33 C 0.10064 0.62454 0.37165 0.0
C34 C 0.10838 0.62239 0.38765 0.0
C35 C 0.10653 0.60327 0.39228 0.0
C36 C 0.09613 0.58615 0.38077 0.0
C37 C 0.08828 0.58832 0.36478 0.0
C38 C 0.06349 0.5983 0.33761 0.0
C39 C 0.05613 0.57918 0.32882 0.0
C40 C 0.03488 0.56727 0.32373 0.0
C41 C 0.02068 0.57423 0.32748 0.0
C42 C 0.0282 0.5933 0.33642 0.0
C43 C 0.04935 0.60515 0.34141 0.0
C44 C 0.92965 0.52839 0.28521 0.0
C45 C 0.92641 0.50831 0.28207 0.0
C46 C 0.9179 0.49816 0.26616 0.0
C47 C 0.91253 0.5079 0.2531 0.0
C48 C 0.91684 0.5284 0.25602 0.0
C49 C 0.92521 0.53846 0.27194 0.0
C50 C 0.91775 0.52825 0.31417 0.0
C51 C 0.90494 0.53701 0.31643 0.0
C52 C 0.88675 0.52705 0.3267 0.0
C53 C 0.8809 0.50796 0.3348 0.0
C54 C 0.894 0.49936 0.33286 0.0
C55 C 0.91237 0.50949 0.32272 0.0
C56 C 0.95601 0.54365 0.30928 0.0
C57 C 0.97226 0.5448 0.29854 0.0
C58 C 0.99302 0.55374 0.30473 0.0
C59 C 0.99826 0.56221 0.32167 0.0
C60 C 0.98211 0.56066 0.33255 0.0
C61 C 0.96142 0.55178 0.3264 0.0
H62 H 0.43521 0.91937 0.47684 0.0
N63 N 0.41653 0.94124 0.46572 0.0
H64 H 0.41943 0.88901 0.49584 0.0
H65 H 0.38021 0.92548 0.48296 0.0
H66 H 0.36411 0.89473 0.50196 0.0
H67 H 0.38768 0.92462 0.44068 0.0
H68 H 0.39041 0.91011 0.41269 0.0
H69 H 0.45236 0.94343 0.45239 0.0
H70 H 0.45538 0.92931 0.42437 0.0
H71 H 0.45388 0.95465 0.48353 0.0
H72 H 0.41409 0.97514 0.46037 0.0
H73 H 0.47952 0.99045 0.49167 0.0
H74 H 0.43977 0.01126 0.46868 0.0
H75 H 0.56275 0.09969 0.51533 0.0
H76 H 0.57087 0.11354 0.54526 0.0
H77 H 0.50835 0.1051 0.54976 0.0
H78 H 0.50018 0.09076 0.52004 0.0
H79 H 0.49945 0.10141 0.49172 0.0
H80 H 0.50662 0.133 0.47622 0.0
H81 H 0.56911 0.14495 0.46323 0.0
H82 H 0.56175 0.11329 0.47879 0.0
H83 H 0.51169 0.0538 0.51813 0.0
H84 H 0.48394 0.01846 0.51133 0.0
H85 H 0.47608 0.03842 0.46054 0.0
N86 N 0.52757 0.08802 0.49727 0.0
H87 H 0.50362 0.07382 0.46719 0.0
C88 C 0.40893 0.9249 0.47859 0.0
C89 C 0.41997 0.91455 0.4826 0.0
C90 C 0.4109 0.89711 0.49348 0.0
C91 C 0.39052 0.88948 0.50036 0.0
C92 C 0.37978 0.90019 0.49674 0.0
C93 C 0.38897 0.91779 0.48602 0.0
C94 C 0.41971 0.93511 0.44861 0.0
C95 C 0.40258 0.92595 0.43703 0.0
C96 C 0.40422 0.91774 0.42104 0.0
C97 C 0.42312 0.9185 0.4163 0.0
C98 C 0.44053 0.92824 0.42772 0.0
C99 C 0.43886 0.93647 0.44373 0.0
C100 C 0.43185 0.96212 0.47138 0.0
C101 C 0.45047 0.96675 0.48032 0.0
C102 C 0.46517 0.98733 0.48506 0.0
C103 C 0.46166 0.00372 0.48088 0.0
C104 C 0.44302 0.99902 0.47197 0.0
C105 C 0.4283 0.97843 0.4673 0.0
C106 C 0.53104 0.09442 0.5154 0.0
C107 C 0.55075 0.10058 0.52289 0.0
C108 C 0.55531 0.10843 0.53995 0.0
C109 C 0.54026 0.11048 0.54976 0.0
C110 C 0.52031 0.10389 0.54239 0.0
C111 C 0.51565 0.09577 0.5254 0.0
C112 C 0.53018 0.10505 0.48646 0.0
C113 C 0.51465 0.11077 0.48548 0.0
C114 C 0.51878 0.12885 0.47662 0.0
C115 C 0.53848 0.14155 0.46856 0.0
C116 C 0.55369 0.1354 0.4691 0.0
C117 C 0.54956 0.11736 0.478 0.0
C118 C 0.50932 0.06738 0.49375 0.0
C119 C 0.50366 0.05097 0.50571 0.0
C120 C 0.48792 0.03053 0.50172 0.0
C121 C 0.47762 0.02566 0.48548 0.0
C122 C 0.48332 0.04176 0.47337 0.0
C123 C 0.49914 0.06223 0.47731 0.0
H124 H 0.42978 0.52814 0.66739 0.0
N125 N 0.40791 0.48744 0.67797 0.0
H126 H 0.41669 0.5448 0.64781 0.0
H127 H 0.37397 0.46843 0.65763 0.0
H128 H 0.36109 0.48475 0.6373 0.0
H129 H 0.37759 0.47936 0.70078 0.0
H130 H 0.38056 0.49786 0.72815 0.0
H131 H 0.44482 0.51764 0.69292 0.0
H132 H 0.44799 0.53634 0.72035 0.0
H133 H 0.44562 0.50562 0.6603 0.0
H134 H 0.39928 0.44939 0.68602 0.0
H135 H 0.46503 0.48837 0.65124 0.0
H136 H 0.41893 0.43224 0.67772 0.0
H137 H 0.52296 0.44476 0.62978 0.0
H138 H 0.54061 0.44907 0.60167 0.0
H139 H 0.48233 0.39916 0.57989 0.0
H140 H 0.46506 0.39463 0.60824 0.0
H141 H 0.46676 0.37349 0.64271 0.0
H142 H 0.48183 0.35651 0.65988 0.0
H143 H 0.53225 0.417 0.67693 0.0
H144 H 0.51679 0.43375 0.65998 0.0
H145 H 0.50308 0.4546 0.64933 0.0
H146 H 0.48613 0.47351 0.66046 0.0
H147 H 0.4248 0.41862 0.65154 0.0
N148 N 0.48289 0.41403 0.63795 0.0
H149 H 0.44198 0.39982 0.64109 0.0
C150 C 0.40261 0.49705 0.66416 0.0
C151 C 0.41492 0.51853 0.6607 0.0
C152 C 0.40745 0.52802 0.64937 0.0
C153 C 0.38764 0.51618 0.64115 0.0
C154 C 0.37615 0.49444 0.64372 0.0
C155 C 0.38354 0.48503 0.65518 0.0
C156 C 0.4109 0.49707 0.69491 0.0
C157 C 0.39303 0.49158 0.70514 0.0
C158 C 0.39475 0.50226 0.72065 0.0
C159 C 0.41448 0.51868 0.72627 0.0
C160 C 0.4326 0.52369 0.71635 0.0
C161 C 0.43082 0.51303 0.70071 0.0
C162 C 0.42077 0.47856 0.67358 0.0
C163 C 0.43974 0.48962 0.66414 0.0
C164 C 0.45091 0.47977 0.65909 0.0
C165 C 0.44339 0.45879 0.66354 0.0
C166 C 0.42491 0.44821 0.67368 0.0
C167 C 0.41373 0.45799 0.67856 0.0
C168 C 0.49272 0.41923 0.62105 0.0
C169 C 0.51392 0.435 0.61888 0.0
C170 C 0.52397 0.43749 0.60277 0.0
C171 C 0.51294 0.42427 0.58859 0.0
C172 C 0.49138 0.40932 0.59063 0.0
C173 C 0.48143 0.40682 0.60672 0.0
C174 C 0.49063 0.40478 0.65005 0.0
C175 C 0.48083 0.383 0.65045 0.0
C176 C 0.48957 0.37339 0.66012 0.0
C177 C 0.50839 0.38543 0.66959 0.0
C178 C 0.51768 0.40729 0.66985 0.0
C179 C 0.5089 0.4169 0.66011 0.0
C180 C 0.47367 0.42572 0.64458 0.0
C181 C 0.48602 0.44664 0.64996 0.0
C182 C 0.47628 0.45747 0.65618 0.0
C183 C 0.45408 0.44756 0.65705 0.0
C184 C 0.44191 0.42665 0.65146 0.0
C185 C 0.45164 0.41588 0.64537 0.0
H186 H 0.11569 0.57229 0.81718 0.0
N187 N 0.0857 0.53534 0.80554 0.0
H188 H 0.14662 0.5801 0.83471 0.0
H189 H 0.09308 0.50646 0.82128 0.0
H190 H 0.12345 0.51402 0.83934 0.0
H191 H 0.10306 0.51484 0.78882 0.0
H192 H 0.11751 0.52149 0.75929 0.0
H193 H 0.0832 0.5598 0.78169 0.0
H194 H 0.09783 0.56669 0.75203 0.0
H195 H 0.05733 0.5399 0.82342 0.0
H196 H 0.0663 0.49363 0.79698 0.0
H197 H 0.02123 0.51296 0.83115 0.0
H198 H 0.03052 0.46664 0.80485 0.0
H199 H 0.92838 0.44951 0.84959 0.0
H200 H 0.91112 0.44936 0.87689 0.0
H201 H 0.91663 0.39734 0.89491 0.0
H202 H 0.93315 0.39711 0.86713 0.0
H203 H 0.91605 0.38137 0.83085 0.0
H204 H 0.88444 0.36553 0.81237 0.0
H205 H 0.89461 0.42682 0.80109 0.0
H206 H 0.92629 0.44252 0.81949 0.0
H207 H 0.9692 0.45529 0.85927 0.0
H208 H 0.00373 0.48267 0.85023 0.0
H209 H 0.99352 0.45478 0.79893 0.0
N210 N 0.94012 0.42138 0.83957 0.0
H211 H 0.95877 0.42692 0.80794 0.0
C212 C 0.102 0.53889 0.81794 0.0
C213 C 0.11715 0.55952 0.82225 0.0
C214 C 0.13478 0.56391 0.83234 0.0
C215 C 0.1376 0.54768 0.83844 0.0
C216 C 0.12195 0.52692 0.83466 0.0
C217 C 0.10438 0.52255 0.82445 0.0
C218 C 0.09211 0.53697 0.78751 0.0
C219 C 0.10154 0.52595 0.78084 0.0
C220 C 0.10994 0.52986 0.76397 0.0
C221 C 0.10898 0.54475 0.75339 0.0
C222 C 0.09868 0.55502 0.75981 0.0
C223 C 0.09037 0.55116 0.77673 0.0
C224 C 0.06452 0.5189 0.80962 0.0
C225 C 0.05149 0.52393 0.8193 0.0
C226 C 0.03094 0.5085 0.82376 0.0
C227 C 0.02297 0.48763 0.81861 0.0
C228 C 0.03604 0.4826 0.80881 0.0
C229 C 0.05661 0.49806 0.80436 0.0
C230 C 0.93191 0.42315 0.85628 0.0
C231 C 0.92583 0.43805 0.85938 0.0
C232 C 0.91617 0.43808 0.87511 0.0
C233 C 0.91237 0.42326 0.88809 0.0
C234 C 0.91899 0.40876 0.8851 0.0
C235 C 0.9286 0.4087 0.86933 0.0
C236 C 0.92343 0.41302 0.82666 0.0
C237 C 0.91166 0.39137 0.8241 0.0
C238 C 0.89365 0.38238 0.81352 0.0
C239 C 0.88697 0.39493 0.80537 0.0
C240 C 0.89922 0.41674 0.8074 0.0
C241 C 0.91734 0.42573 0.81789 0.0
C242 C 0.96022 0.43919 0.83404 0.0
C243 C 0.97373 0.45509 0.84586 0.0
C244 C 0.9938 0.47092 0.84072 0.0
C245 C 0.0013 0.47112 0.82379 0.0
C246 C 0.98821 0.45513 0.81207 0.0
C247 C 0.9681 0.4393 0.81719 0.0
H248 H 0.58552 0.11146 0.97497 0.0
N249 N 0.60182 0.08671 0.9657 0.0
H250 H 0.60242 0.14232 0.99353 0.0
H251 H 0.63597 0.09939 0.98547 0.0
H252 H 0.65274 0.13 0.00479 0.0
H253 H 0.6312 0.10334 0.94108 0.0
H254 H 0.629 0.11778 0.91306 0.0
H255 H 0.56634 0.08465 0.95196 0.0
H256 H 0.56387 0.09877 0.92389 0.0
H257 H 0.56633 0.07545 0.98561 0.0
H258 H 0.6006 0.05141 0.95773 0.0
H259 H 0.53976 0.0402 0.99411 0.0
H260 H 0.57347 0.01585 0.96541 0.0
H261 H 0.45208 0.92312 0.01346 0.0
H262 H 0.44323 0.90962 0.04324 0.0
H263 H 0.50959 0.93485 0.05416 0.0
H264 H 0.51821 0.94783 0.0244 0.0
H265 H 0.51096 0.92005 0.00214 0.0
H266 H 0.50409 0.88879 0.98627 0.0
H267 H 0.45828 0.89336 0.95415 0.0
H268 H 0.46485 0.92446 0.97062 0.0
H269 H 0.48448 0.97317 0.99093 0.0
H270 H 0.51149 0.00874 0.98303 0.0
H271 H 0.55963 0.992 0.98863 0.0
N272 N 0.48975 0.94133 0.99828 0.0
H273 H 0.53244 0.9564 0.99559 0.0
C274 C 0.60965 0.10318 0.97866 0.0
C275 C 0.60005 0.11519 0.98154 0.0
C276 C 0.6097 0.13284 0.99233 0.0
C277 C 0.62909 0.13882 0.00058 0.0
C278 C 0.63804 0.12611 0.99839 0.0
C279 C 0.62841 0.10851 0.9875 0.0
C280 C 0.59903 0.09292 0.94857 0.0
C281 C 0.61638 0.10204 0.93724 0.0
C282 C 0.61505 0.1102 0.92123 0.0
C283 C 0.59625 0.10945 0.91625 0.0
C284 C 0.57863 0.09979 0.92744 0.0
C285 C 0.57998 0.09157 0.94344 0.0
C286 C 0.58573 0.06613 0.97119 0.0
C287 C 0.56821 0.06262 0.98131 0.0
C288 C 0.55282 0.04232 0.98602 0.0
C289 C 0.5544 0.02506 0.98049 0.0
C290 C 0.57187 0.0287 0.97023 0.0
C291 C 0.58735 0.049 0.96571 0.0
C292 C 0.48571 0.93649 0.01662 0.0
C293 C 0.46471 0.92606 0.02242 0.0
C294 C 0.45971 0.91842 0.03945 0.0
C295 C 0.47571 0.92105 0.05106 0.0
C296 C 0.49688 0.9323 0.04546 0.0
C297 C 0.50185 0.93992 0.02842 0.0
C298 C 0.48825 0.92456 0.98763 0.0
C299 C 0.49966 0.91458 0.99155 0.0
C300 C 0.49577 0.89667 0.98236 0.0
C301 C 0.48048 0.88841 0.96899 0.0
C302 C 0.46987 0.89905 0.96457 0.0
C303 C 0.47372 0.91691 0.97383 0.0
C304 C 0.50634 0.96213 0.99391 0.0
C305 C 0.50088 0.97726 0.9904 0.0
C306 C 0.51639 0.99761 0.98603 0.0
C307 C 0.53784 0.00336 0.98524 0.0
C308 C 0.54328 0.98813 0.98885 0.0
C309 C 0.52771 0.96771 0.99301 0.0
H310 H 0.58547 0.49123 0.16588 0.0
N311 N 0.60311 0.5324 0.1755 0.0
H312 H 0.60176 0.4765 0.14757 0.0
H313 H 0.63774 0.5532 0.15614 0.0
H314 H 0.65397 0.53857 0.13715 0.0
H315 H 0.63257 0.54574 0.20011 0.0
H316 H 0.63059 0.52949 0.22829 0.0
H317 H 0.56781 0.49891 0.18945 0.0
H318 H 0.56583 0.48214 0.21728 0.0
H319 H 0.56667 0.50827 0.15656 0.0
H320 H 0.60362 0.56749 0.18283 0.0
H321 H 0.54066 0.51777 0.14836 0.0
H322 H 0.57713 0.57681 0.1754 0.0
H323 H 0.4556 0.54869 0.12953 0.0
H324 H 0.44565 0.55263 0.09993 0.0
H325 H 0.51142 0.59521 0.08788 0.0
H326 H 0.52114 0.5914 0.11743 0.0
H327 H 0.51705 0.61197 0.1406 0.0
H328 H 0.51125 0.63733 0.15605 0.0
H329 H 0.46123 0.58755 0.18594 0.0
H330 H 0.46757 0.56221 0.17064 0.0
H331 H 0.48718 0.53207 0.15245 0.0
H332 H 0.51355 0.52259 0.16004 0.0
H333 H 0.56317 0.58657 0.15199 0.0
N334 N 0.49362 0.56936 0.14404 0.0
H335 H 0.53673 0.59596 0.1453 0.0
C336 C 0.61051 0.52343 0.16252 0.0
C337 C 0.60024 0.50176 0.15949 0.0
C338 C 0.60957 0.49332 0.14887 0.0
C339 C 0.62931 0.50632 0.14098 0.0
C340 C 0.63895 0.52807 0.14327 0.0
C341 C 0.62964 0.53648 0.15397 0.0
C342 C 0.60045 0.52358 0.19269 0.0
C343 C 0.61788 0.53205 0.20396 0.0
C344 C 0.61675 0.52262 0.21995 0.0
C345 C 0.59812 0.50435 0.22496 0.0
C346 C 0.58037 0.49627 0.21391 0.0
C347 C 0.5815 0.5058 0.19792 0.0
C348 C 0.58735 0.53736 0.17016 0.0
C349 C 0.56926 0.52335 0.16057 0.0
C350 C 0.5542 0.52874 0.15603 0.0
C351 C 0.55674 0.54811 0.16117 0.0
C352 C 0.5748 0.56196 0.17088 0.0
C353 C 0.58991 0.55663 0.17526 0.0
C354 C 0.48901 0.56967 0.12578 0.0
C355 C 0.46786 0.55851 0.12035 0.0
C356 C 0.46224 0.56077 0.10344 0.0
C357 C 0.47775 0.57436 0.09159 0.0
C358 C 0.49908 0.58485 0.09679 0.0
C359 C 0.50468 0.58255 0.11371 0.0
C360 C 0.49272 0.58507 0.15452 0.0
C361 C 0.50519 0.60648 0.15075 0.0
C362 C 0.5017 0.621 0.15949 0.0
C363 C 0.48563 0.61446 0.17211 0.0
C364 C 0.47387 0.59316 0.17642 0.0
C365 C 0.47741 0.57865 0.16768 0.0
C366 C 0.50985 0.56462 0.14826 0.0
C367 C 0.50377 0.544 0.15238 0.0
C368 C 0.5189 0.53861 0.15657 0.0
C369 C 0.54058 0.55379 0.15659 0.0
C370 C 0.54664 0.5745 0.15237 0.0
C371 C 0.53146 0.5799 0.14835 0.0
In372 In 0.62785 0.39262 0.40742 0.0
O373 O 0.66295 0.41573 0.4119 0.0
O374 O 0.65473 0.39165 0.39315 0.0
C375 C 0.61246 0.40379 0.4349 0.0
C376 C 0.61737 0.40795 0.37972 0.0
C377 C 0.61285 0.35182 0.41425 0.0
O378 O 0.63157 0.40866 0.4338 0.0
O379 O 0.60111 0.39331 0.42214 0.0
O380 O 0.60832 0.35788 0.40044 0.0
O381 O 0.62497 0.36631 0.42453 0.0
C382 C 0.66928 0.40752 0.4008 0.0
O383 O 0.60828 0.38866 0.38289 0.0
O384 O 0.63156 0.41938 0.39053 0.0
In385 In 0.26006 0.63852 0.5698 0.0
O386 O 0.26948 0.61382 0.56552 0.0
O387 O 0.289 0.63954 0.58195 0.0
C388 C 0.23387 0.6289 0.5422 0.0
C389 C 0.23403 0.62306 0.59774 0.0
C390 C 0.28494 0.67972 0.56328 0.0
O391 O 0.24801 0.62402 0.54285 0.0
O392 O 0.23298 0.63861 0.55546 0.0
O393 O 0.27341 0.67292 0.5767 0.0
O394 O 0.28412 0.66576 0.55329 0.0
C395 C 0.28558 0.6226 0.57521 0.0
O396 O 0.24969 0.64142 0.59741 0.0
O397 O 0.23154 0.61258 0.58404 0.0
In398 In 0.632 0.25677 0.73592 0.0
O399 O 0.66668 0.26656 0.73185 0.0
O400 O 0.66003 0.28513 0.74885 0.0
C401 C 0.61658 0.23138 0.70764 0.0
C402 C 0.62247 0.23188 0.76409 0.0
C403 C 0.6142 0.28039 0.73044 0.0
O404 O 0.63388 0.24848 0.70743 0.0
O405 O 0.60707 0.22703 0.7221 0.0
O406 O 0.60802 0.26687 0.74234 0.0
O407 O 0.62943 0.28211 0.72148 0.0
C408 C 0.6739 0.28216 0.74193 0.0
O409 O 0.6168 0.24525 0.76273 0.0
O410 O 0.63285 0.23107 0.75125 0.0
In411 In 0.38929 0.63616 0.90861 0.0
O412 O 0.35397 0.61227 0.91171 0.0
O413 O 0.36273 0.6376 0.8945 0.0
C414 C 0.40326 0.62535 0.93695 0.0
C415 C 0.40004 0.62072 0.8809 0.0
C416 C 0.40628 0.67719 0.91601 0.0
O417 O 0.38419 0.62045 0.93513 0.0
O418 O 0.41526 0.63574 0.92451 0.0
O419 O 0.41325 0.67068 0.90394 0.0
O420 O 0.39079 0.66303 0.92429 0.0
C421 C 0.34796 0.62115 0.90114 0.0
O422 O 0.40313 0.63903 0.8812 0.0
O423 O 0.39172 0.61035 0.89455 0.0
In424 In 0.76621 0.39108 0.07111 0.0
O425 O 0.77733 0.38779 0.09817 0.0
O426 O 0.79341 0.4176 0.08623 0.0
C427 C 0.74106 0.34981 0.06459 0.0
C428 C 0.74086 0.4069 0.0777 0.0
C429 C 0.79158 0.40087 0.04281 0.0
O430 O 0.75587 0.35687 0.07562 0.0
O431 O 0.73872 0.36353 0.05704 0.0
O432 O 0.77685 0.40487 0.04379 0.0
O433 O 0.79358 0.39211 0.0561 0.0
C434 C 0.79183 0.40667 0.0993 0.0
O435 O 0.75609 0.41518 0.06708 0.0
O436 O 0.73826 0.39052 0.08484 0.0
In437 In 0.39056 0.77171 0.23477 0.0
O438 O 0.41433 0.76098 0.23951 0.0
O439 O 0.39177 0.7461 0.21921 0.0
C440 C 0.40088 0.79755 0.26271 0.0
C441 C 0.40467 0.7969 0.20659 0.0
C442 C 0.34928 0.74513 0.24205 0.0
O443 O 0.40639 0.78405 0.26139 0.0
O444 O 0.39033 0.79804 0.24995 0.0
O445 O 0.35535 0.76008 0.23152 0.0
O446 O 0.364 0.7435 0.24882 0.0
C447 C 0.40723 0.74741 0.22749 0.0
O448 O 0.38584 0.78206 0.20799 0.0
O449 O 0.41641 0.79902 0.21938 0.0
H450 H 0.15269 0.61648 0.28509 0.0
H451 H 0.18824 0.63268 0.27245 0.0
H452 H 0.20418 0.69119 0.29709 0.0
H453 H 0.16926 0.67502 0.3104 0.0
H454 H 0.2104 0.66651 0.2505 0.0
H455 H 0.25055 0.68127 0.31456 0.0
H456 H 0.22234 0.66444 0.31208 0.0
H457 H 0.23384 0.69233 0.31321 0.0
C458 C 0.1638 0.63276 0.2879 0.0
C459 C 0.15809 0.64438 0.29887 0.0
C460 C 0.18405 0.64203 0.28057 0.0
C461 C 0.19897 0.66302 0.28412 0.0
C462 C 0.19306 0.67484 0.29447 0.0
H463 H 0.31555 0.74884 0.23252 0.0
H464 H 0.27874 0.72704 0.2417 0.0
C465 C 0.17292 0.66561 0.30187 0.0
C466 C 0.22084 0.67263 0.27727 0.0
H467 H 0.27251 0.69902 0.29011 0.0
C468 C 0.22401 0.67347 0.25914 0.0
C469 C 0.23855 0.68131 0.28857 0.0
C470 C 0.23619 0.67962 0.30819 0.0
C471 C 0.24447 0.68348 0.25198 0.0
C472 C 0.26217 0.69327 0.26329 0.0
C473 C 0.25895 0.69174 0.28143 0.0
C474 C 0.28419 0.70562 0.2567 0.0
C475 C 0.24689 0.68334 0.23241 0.0
C476 C 0.29962 0.70111 0.26234 0.0
C477 C 0.32073 0.71375 0.25734 0.0
C478 C 0.3268 0.73114 0.24658 0.0
C479 C 0.31131 0.73546 0.24072 0.0
C480 C 0.29023 0.7229 0.24584 0.0
H481 H 0.23279 0.66995 0.22626 0.0
H482 H 0.24856 0.69789 0.22695 0.0
H483 H 0.26111 0.68254 0.22877 0.0
H484 H 0.29535 0.68793 0.27081 0.0
H485 H 0.33232 0.71004 0.26205 0.0
H486 H 0.52968 0.17075 0.48122 0.0
H487 H 0.54057 0.20509 0.46916 0.0
H488 H 0.57028 0.19265 0.4258 0.0
H489 H 0.55944 0.1582 0.43782 0.0
H490 H 0.59636 0.23029 0.44115 0.0
H491 H 0.51854 0.22248 0.42789 0.0
H492 H 0.52095 0.21584 0.44992 0.0
H493 H 0.52154 0.20026 0.43209 0.0
C494 C 0.53813 0.17512 0.46892 0.0
C495 C 0.54364 0.16171 0.46045 0.0
C496 C 0.54433 0.19477 0.46202 0.0
C497 C 0.55598 0.20133 0.44644 0.0
C498 C 0.56123 0.18787 0.43781 0.0
H499 H 0.58705 0.31786 0.39396 0.0
H500 H 0.57356 0.28099 0.40063 0.0
C501 C 0.5551 0.16823 0.44472 0.0
C502 C 0.56393 0.22279 0.43985 0.0
H503 H 0.54843 0.25728 0.42827 0.0
C504 C 0.58586 0.23612 0.43817 0.0
C505 C 0.55023 0.23032 0.43575 0.0
C506 C 0.5265 0.21642 0.43632 0.0
C507 C 0.5945 0.25699 0.43305 0.0
C508 C 0.58085 0.26483 0.42985 0.0
C509 C 0.55888 0.25131 0.43094 0.0
C510 C 0.5891 0.28712 0.42576 0.0
C511 C 0.61817 0.27042 0.43108 0.0
C512 C 0.60207 0.30275 0.43777 0.0
C513 C 0.60983 0.32376 0.43399 0.0
C514 C 0.60461 0.32955 0.41817 0.0
C515 C 0.5914 0.31387 0.40623 0.0
C516 C 0.58366 0.29283 0.41003 0.0
H517 H 0.62565 0.26081 0.42899 0.0
H518 H 0.62238 0.28136 0.41996 0.0
H519 H 0.62493 0.27975 0.44319 0.0
H520 H 0.60608 0.29867 0.45016 0.0
H521 H 0.61984 0.33547 0.4435 0.0
H522 H 0.3464 0.50645 0.64129 0.0
H523 H 0.33108 0.52494 0.62715 0.0
H524 H 0.39202 0.56908 0.60569 0.0
H525 H 0.40739 0.55003 0.61917 0.0
H526 H 0.34211 0.56506 0.63392 0.0
H527 H 0.3533 0.55519 0.56346 0.0
H528 H 0.35584 0.53962 0.58022 0.0
H529 H 0.37699 0.56585 0.57636 0.0
C530 C 0.3565 0.51972 0.63316 0.0
C531 C 0.37815 0.52664 0.63131 0.0
C532 C 0.34772 0.5304 0.62522 0.0
C533 C 0.36034 0.54828 0.61524 0.0
C534 C 0.38189 0.55511 0.61308 0.0
H535 H 0.32177 0.6395 0.5946 0.0
H536 H 0.3416 0.62269 0.60332 0.0
C537 C 0.3907 0.54433 0.62098 0.0
C538 C 0.35109 0.56044 0.60822 0.0
H539 H 0.34073 0.57811 0.5706 0.0
C540 C 0.34183 0.56792 0.62007 0.0
C541 C 0.3506 0.56401 0.59014 0.0
C542 C 0.35953 0.55561 0.57676 0.0
C543 C 0.33198 0.57878 0.61437 0.0
C544 C 0.33182 0.58271 0.59633 0.0
C545 C 0.34109 0.57525 0.58444 0.0
C546 C 0.32125 0.59375 0.58958 0.0
C547 C 0.3213 0.58541 0.62769 0.0
C548 C 0.30379 0.58338 0.57835 0.0
C549 C 0.29255 0.59301 0.57322 0.0
C550 C 0.29861 0.61319 0.57923 0.0
C551 C 0.31662 0.62387 0.58989 0.0
C552 C 0.32791 0.61426 0.59494 0.0
H553 H 0.31834 0.57678 0.64016 0.0
H554 H 0.33164 0.6023 0.63058 0.0
H555 H 0.30599 0.58287 0.62265 0.0
H556 H 0.29845 0.56757 0.57401 0.0
H557 H 0.27878 0.58443 0.56495 0.0
H558 H 0.85611 0.40505 0.80747 0.0
H559 H 0.82103 0.38681 0.79402 0.0
H560 H 0.83644 0.34447 0.76829 0.0
H561 H 0.87152 0.36253 0.78187 0.0
H562 H 0.8072 0.3788 0.75989 0.0
H563 H 0.78314 0.30491 0.79502 0.0
H564 H 0.80672 0.32916 0.80059 0.0
H565 H 0.80662 0.31409 0.78208 0.0
C566 C 0.85214 0.39204 0.79875 0.0
C567 C 0.86653 0.38513 0.79582 0.0
C568 C 0.83206 0.38158 0.79113 0.0
C569 C 0.82597 0.36403 0.78044 0.0
C570 C 0.84062 0.35765 0.77686 0.0
H571 H 0.70602 0.27644 0.73098 0.0
H572 H 0.74348 0.29715 0.73897 0.0
C573 C 0.86066 0.36801 0.78458 0.0
C574 C 0.80409 0.35211 0.77348 0.0
H575 H 0.75906 0.30417 0.77419 0.0
C576 C 0.79667 0.36248 0.763 0.0
C577 C 0.79035 0.33083 0.77763 0.0
C578 C 0.79699 0.31911 0.78957 0.0
C579 C 0.77591 0.35209 0.75646 0.0
C580 C 0.76221 0.33086 0.76064 0.0
C581 C 0.76967 0.32044 0.77095 0.0
C582 C 0.73985 0.31926 0.7549 0.0
C583 C 0.76882 0.36383 0.745 0.0
C584 C 0.72544 0.32483 0.76126 0.0
C585 C 0.70403 0.31299 0.75679 0.0
C586 C 0.69669 0.29535 0.7459 0.0
C587 C 0.71122 0.28998 0.73936 0.0
C588 C 0.7326 0.30177 0.74391 0.0
H589 H 0.78245 0.3783 0.73968 0.0
H590 H 0.75904 0.35388 0.73396 0.0
H591 H 0.75899 0.36832 0.75283 0.0
H592 H 0.73067 0.33807 0.77001 0.0
H593 H 0.6932 0.31746 0.76208 0.0
H594 H 0.50673 0.87377 0.9593 0.0
H595 H 0.49651 0.83905 0.9479 0.0
H596 H 0.43103 0.8223 0.94832 0.0
H597 H 0.44096 0.85668 0.96004 0.0
H598 H 0.46876 0.8008 0.96487 0.0
H599 H 0.43933 0.80444 0.89906 0.0
H600 H 0.45621 0.8275 0.91187 0.0
H601 H 0.42842 0.81222 0.91657 0.0
C602 C 0.49015 0.86273 0.95693 0.0
C603 C 0.47468 0.86808 0.96058 0.0
C604 C 0.48437 0.84295 0.95033 0.0
C605 C 0.46305 0.82822 0.94707 0.0
C606 C 0.44761 0.83359 0.95039 0.0
H607 H 0.39566 0.6943 0.94291 0.0
H608 H 0.41091 0.73135 0.94996 0.0
C609 C 0.45335 0.85331 0.95705 0.0
C610 C 0.45671 0.80675 0.94135 0.0
H611 H 0.43053 0.77065 0.90918 0.0
C612 C 0.46059 0.79425 0.95262 0.0
C613 C 0.44621 0.79834 0.92531 0.0
C614 C 0.44244 0.81135 0.9124 0.0
C615 C 0.45358 0.77331 0.94853 0.0
C616 C 0.44227 0.76464 0.93285 0.0
C617 C 0.43905 0.77732 0.92128 0.0
C618 C 0.43315 0.74225 0.92849 0.0
C619 C 0.45823 0.76056 0.96106 0.0
C620 C 0.44036 0.73616 0.9139 0.0
C621 C 0.4317 0.71498 0.90984 0.0
C622 C 0.41551 0.69959 0.92022 0.0
C623 C 0.40816 0.70579 0.9347 0.0
C624 C 0.41691 0.72693 0.93879 0.0
H625 H 0.47125 0.77063 0.97021 0.0
H626 H 0.44387 0.75054 0.96891 0.0
H627 H 0.46256 0.75025 0.95389 0.0
H628 H 0.45282 0.74779 0.90574 0.0
H629 H 0.43763 0.71067 0.89857 0.0
H630 H 0.61244 0.47219 0.11901 0.0
H631 H 0.63034 0.45482 0.10663 0.0
H632 H 0.68934 0.50241 0.12891 0.0
H633 H 0.67151 0.51935 0.14195 0.0
H634 H 0.66438 0.46779 0.08388 0.0
H635 H 0.68268 0.44873 0.14904 0.0
H636 H 0.66442 0.45795 0.14608 0.0
H637 H 0.69246 0.47607 0.14611 0.0
C638 C 0.62922 0.47894 0.12132 0.0
C639 C 0.64047 0.49707 0.13164 0.0
C640 C 0.63944 0.46906 0.11413 0.0
C641 C 0.66107 0.4771 0.11715 0.0
C642 C 0.67255 0.49571 0.12672 0.0
H643 H 0.74618 0.44414 0.06669 0.0
H644 H 0.7257 0.46036 0.07536 0.0
C645 C 0.66235 0.50554 0.13397 0.0
C646 C 0.67153 0.4657 0.11078 0.0
H647 H 0.69895 0.44268 0.12465 0.0
C648 C 0.67187 0.46221 0.09277 0.0
C649 C 0.68095 0.4581 0.12245 0.0
C650 C 0.67997 0.46019 0.14201 0.0
C651 C 0.68185 0.45175 0.08608 0.0
C652 C 0.69205 0.44495 0.0977 0.0
C653 C 0.69129 0.44805 0.11573 0.0
C654 C 0.70371 0.43463 0.09156 0.0
C655 C 0.68108 0.44782 0.06666 0.0
C656 C 0.69842 0.41492 0.09802 0.0
C657 C 0.71026 0.40574 0.09326 0.0
C658 C 0.72765 0.41611 0.08197 0.0
C659 C 0.73277 0.43571 0.07532 0.0
C660 C 0.72099 0.44494 0.08017 0.0
H661 H 0.66771 0.44832 0.0604 0.0
H662 H 0.69595 0.46013 0.06062 0.0
H663 H 0.67951 0.43243 0.0638 0.0
H664 H 0.68522 0.40673 0.1069 0.0
H665 H 0.70594 0.39063 0.0986 0.0
H666 H 0.35058 0.85658 0.49569 0.0
H667 H 0.33409 0.8226 0.50993 0.0
H668 H 0.39009 0.84318 0.54127 0.0
H669 H 0.40689 0.87716 0.52669 0.0
H670 H 0.37766 0.80607 0.52765 0.0
H671 H 0.30794 0.80411 0.55712 0.0
H672 H 0.30921 0.80894 0.53412 0.0
H673 H 0.32977 0.82769 0.54828 0.0
C674 C 0.35922 0.85401 0.50586 0.0
C675 C 0.37997 0.86956 0.51017 0.0
C676 C 0.34975 0.83459 0.51405 0.0
C677 C 0.36066 0.83043 0.52694 0.0
C678 C 0.38131 0.84606 0.53143 0.0
H679 H 0.29326 0.71273 0.5845 0.0
H680 H 0.31354 0.74992 0.57731 0.0
C681 C 0.39089 0.86543 0.5231 0.0
C682 C 0.35105 0.80932 0.53479 0.0
H683 H 0.30586 0.7709 0.55367 0.0
C684 C 0.36207 0.79849 0.53356 0.0
C685 C 0.33088 0.79951 0.5428 0.0
C686 C 0.31889 0.81077 0.54584 0.0
C687 C 0.35313 0.77787 0.53944 0.0
C688 C 0.33233 0.76755 0.54627 0.0
C689 C 0.32167 0.77867 0.54819 0.0
C690 C 0.32105 0.74507 0.55096 0.0
C691 C 0.36616 0.76743 0.53834 0.0
C692 C 0.31843 0.72995 0.53855 0.0
C693 C 0.30709 0.70874 0.5427 0.0
C694 C 0.29778 0.70221 0.55924 0.0
C695 C 0.3003 0.71732 0.57165 0.0
C696 C 0.31185 0.73856 0.56755 0.0
H697 H 0.38336 0.7791 0.53868 0.0
H698 H 0.36242 0.75626 0.5492 0.0
H699 H 0.36277 0.75877 0.52578 0.0
H700 H 0.3248 0.73451 0.52549 0.0
H701 H 0.30522 0.69745 0.5328 0.0
H702 H 0.527 0.39357 0.70203 0.0
H703 H 0.54488 0.37686 0.71556 0.0
H704 H 0.5317 0.33792 0.66985 0.0
H705 H 0.51381 0.35438 0.65636 0.0
H706 H 0.52283 0.31578 0.70022 0.0
H707 H 0.60311 0.38641 0.70281 0.0
H708 H 0.58275 0.38899 0.71353 0.0
H709 H 0.58183 0.38538 0.69025 0.0
C710 C 0.52802 0.38151 0.69486 0.0
C711 C 0.51893 0.37525 0.67815 0.0
C712 C 0.53827 0.37201 0.70258 0.0
C713 C 0.53983 0.35631 0.69362 0.0
C714 C 0.53065 0.34997 0.67701 0.0
H715 H 0.62272 0.30759 0.70373 0.0
H716 H 0.60441 0.32635 0.69659 0.0
C717 C 0.52034 0.35934 0.66935 0.0
C718 C 0.55087 0.34622 0.7014 0.0
H719 H 0.59927 0.35548 0.7147 0.0
C720 C 0.53952 0.32446 0.70351 0.0
C721 C 0.57269 0.35758 0.70549 0.0
C722 C 0.58591 0.38085 0.70279 0.0
C723 C 0.54944 0.31368 0.70928 0.0
C724 C 0.57124 0.32504 0.71345 0.0
C725 C 0.58253 0.34684 0.71163 0.0
C726 C 0.58292 0.31444 0.71855 0.0
C727 C 0.53667 0.29015 0.71016 0.0
C728 C 0.57719 0.30181 0.73346 0.0
C729 C 0.58753 0.29092 0.73751 0.0
C730 C 0.60394 0.29268 0.7268 0.0
C731 C 0.6101 0.30587 0.71221 0.0
C732 C 0.59968 0.31664 0.70813 0.0
H733 H 0.52168 0.28364 0.70265 0.0
H734 H 0.54586 0.28316 0.70502 0.0
H735 H 0.53257 0.28532 0.72398 0.0
H736 H 0.56459 0.30024 0.7419 0.0
H737 H 0.58256 0.281 0.74891 0.0
H738 H 0.16038 0.52796 0.83488 0.0
H739 H 0.19434 0.53759 0.84815 0.0
H740 H 0.19467 0.5889 0.87503 0.0
H741 H 0.16016 0.57873 0.86255 0.0
H742 H 0.2306 0.57322 0.84308 0.0
H743 H 0.21234 0.56457 0.9138 0.0
H744 H 0.19198 0.55391 0.89726 0.0
H745 H 0.20455 0.58109 0.90325 0.0
C746 C 0.16733 0.54093 0.84401 0.0
C747 C 0.15744 0.55253 0.84766 0.0
C748 C 0.18687 0.54653 0.85147 0.0
C749 C 0.19698 0.56383 0.86274 0.0
C750 C 0.18701 0.57523 0.86667 0.0
H751 H 0.33158 0.63903 0.8803 0.0
H752 H 0.29472 0.62453 0.87152 0.0
C753 C 0.16738 0.56956 0.85931 0.0
C754 C 0.21866 0.57093 0.86921 0.0
H755 H 0.24904 0.58413 0.90606 0.0
C756 C 0.23458 0.57542 0.85686 0.0
C757 C 0.22381 0.57358 0.8872 0.0
C758 C 0.20722 0.56783 0.90115 0.0
C759 C 0.25558 0.58297 0.86197 0.0
C760 C 0.26094 0.58663 0.8799 0.0
C761 C 0.24495 0.58159 0.8923 0.0
C762 C 0.28309 0.59581 0.88596 0.0
C763 C 0.27178 0.58676 0.8481 0.0
C764 C 0.28868 0.58482 0.89753 0.0
C765 C 0.30974 0.59318 0.90271 0.0
C766 C 0.32554 0.61269 0.89644 0.0
C767 C 0.3198 0.62388 0.88523 0.0
C768 C 0.29876 0.61557 0.88012 0.0
H769 H 0.26425 0.57762 0.83603 0.0
H770 H 0.28042 0.60355 0.8446 0.0
H771 H 0.28345 0.58261 0.85285 0.0
H772 H 0.27681 0.5696 0.90227 0.0
H773 H 0.31369 0.58423 0.91141 0.0
H774 H 0.67163 0.1669 0.00059 0.0
H775 H 0.69027 0.20133 0.0143 0.0
H776 H 0.63136 0.19183 0.03505 0.0
H777 H 0.61268 0.15687 0.02209 0.0
H778 H 0.68447 0.23329 0.00675 0.0
H779 H 0.66962 0.21515 0.07729 0.0
H780 H 0.66485 0.19554 0.06103 0.0
H781 H 0.64589 0.20374 0.06442 0.0
C782 C 0.66267 0.17182 0.00849 0.0
C783 C 0.64061 0.15901 0.01026 0.0
C784 C 0.67335 0.19163 0.01619 0.0
C785 C 0.66227 0.19911 0.02584 0.0
C786 C 0.64033 0.18625 0.02795 0.0
H787 H 0.70718 0.3309 0.04255 0.0
H788 H 0.68736 0.2941 0.03384 0.0
C789 C 0.62962 0.16636 0.02033 0.0
C790 C 0.67347 0.22092 0.03249 0.0
H791 H 0.68391 0.25081 0.06931 0.0
C792 C 0.68442 0.23711 0.02045 0.0
C793 C 0.67357 0.22588 0.05038 0.0
C794 C 0.66303 0.20916 0.06407 0.0
C795 C 0.69527 0.2581 0.02575 0.0
C796 C 0.69475 0.2631 0.04354 0.0
C797 C 0.68406 0.24694 0.05565 0.0
C798 C 0.70563 0.28505 0.04982 0.0
C799 C 0.70755 0.27469 0.01228 0.0
C800 C 0.7219 0.29199 0.06223 0.0
C801 C 0.7331 0.31297 0.06737 0.0
C802 C 0.72819 0.32736 0.06018 0.0
C803 C 0.71143 0.32022 0.0482 0.0
C804 C 0.70017 0.29922 0.04314 0.0
H805 H 0.71104 0.26813 0.00051 0.0
H806 H 0.69804 0.28166 0.00805 0.0
H807 H 0.72271 0.28735 0.01775 0.0
H808 H 0.72629 0.28128 0.06762 0.0
H809 H 0.7459 0.31801 0.07668 0.0
H810 H 0.47503 0.61726 0.20608 0.0
H811 H 0.4634 0.64053 0.21783 0.0
H812 H 0.47183 0.6687 0.16716 0.0
H813 H 0.48331 0.64553 0.1553 0.0
H814 H 0.4875 0.69778 0.1946 0.0
H815 H 0.40529 0.63354 0.20726 0.0
H816 H 0.4257 0.63065 0.2174 0.0
H817 H 0.4236 0.62998 0.194 0.0
C818 C 0.47439 0.62841 0.19744 0.0
C819 C 0.48007 0.6295 0.17974 0.0
C820 C 0.46773 0.64167 0.20417 0.0
C821 C 0.46648 0.65613 0.1933 0.0
C822 C 0.47269 0.65766 0.17577 0.0
H823 H 0.39472 0.7178 0.2019 0.0
H824 H 0.40994 0.6961 0.19465 0.0
C825 C 0.47936 0.64446 0.16905 0.0
C826 C 0.45824 0.66941 0.19993 0.0
H827 H 0.41367 0.66752 0.21548 0.0
C828 C 0.4714 0.6912 0.19927 0.0
C829 C 0.43714 0.66074 0.2058 0.0
C830 C 0.422 0.63746 0.20606 0.0
C831 C 0.46399 0.70457 0.20422 0.0
C832 C 0.44295 0.69589 0.21022 0.0
C833 C 0.42984 0.67411 0.211 0.0
C834 C 0.43384 0.70909 0.21488 0.0
C835 C 0.47851 0.72784 0.20243 0.0
C836 C 0.44211 0.72345 0.22877 0.0
C837 C 0.43346 0.73593 0.23292 0.0
C838 C 0.41633 0.73414 0.2233 0.0
C839 C 0.40794 0.71957 0.20954 0.0
C840 C 0.41659 0.70714 0.20539 0.0
H841 H 0.49237 0.73171 0.19401 0.0
H842 H 0.46994 0.73521 0.19685 0.0
H843 H 0.48448 0.73479 0.21554 0.0
H844 H 0.45517 0.72494 0.23646 0.0
H845 H 0.44018 0.74695 0.24366 0.0
H846 H 0.8507 0.46667 0.33229 0.0
H847 H 0.81562 0.44893 0.34584 0.0
H848 H 0.83036 0.5059 0.37277 0.0
H849 H 0.8653 0.5238 0.35901 0.0
H850 H 0.80142 0.44187 0.37973 0.0
H851 H 0.7772 0.49244 0.34631 0.0
H852 H 0.80092 0.49224 0.34054 0.0
H853 H 0.80061 0.50673 0.35934 0.0
C854 C 0.84654 0.47533 0.34128 0.0
C855 C 0.86063 0.49667 0.34447 0.0
C856 C 0.82649 0.4652 0.34897 0.0
C857 C 0.82021 0.47622 0.36 0.0
C858 C 0.83467 0.49725 0.36391 0.0
H859 H 0.70273 0.44401 0.41275 0.0
H860 H 0.73985 0.45996 0.40399 0.0
C861 C 0.85463 0.50743 0.3561 0.0
C862 C 0.79833 0.4659 0.36694 0.0
H863 H 0.75356 0.46914 0.36751 0.0
C864 C 0.79094 0.4478 0.37704 0.0
C865 C 0.78462 0.47358 0.3633 0.0
C866 C 0.79113 0.49219 0.35164 0.0
C867 C 0.77029 0.43737 0.38383 0.0
C868 C 0.75674 0.44522 0.38033 0.0
C869 C 0.76411 0.46329 0.37027 0.0
C870 C 0.73464 0.43472 0.38663 0.0
C871 C 0.76315 0.41819 0.39485 0.0
C872 C 0.71949 0.41525 0.37975 0.0
C873 C 0.69826 0.40617 0.38463 0.0
C874 C 0.69188 0.41642 0.39648 0.0
C875 C 0.70719 0.43572 0.40362 0.0
C876 C 0.72837 0.44485 0.39864 0.0
H877 H 0.77666 0.41657 0.39922 0.0
H878 H 0.75438 0.41866 0.40652 0.0
H879 H 0.75229 0.40412 0.38708 0.0
H880 H 0.724 0.40735 0.37026 0.0
H881 H 0.68681 0.3913 0.37889 0.0
H882 H 0.13001 0.58453 0.39659 0.0
H883 H 0.14938 0.58492 0.4227 0.0
H884 H 0.126 0.61966 0.45056 0.0
H885 H 0.10619 0.61893 0.42466 0.0
H886 H 0.18096 0.62162 0.43882 0.0
H887 H 0.11622 0.57364 0.48523 0.0
H888 H 0.11206 0.57299 0.46193 0.0
H889 H 0.11389 0.59404 0.47497 0.0
C890 C 0.12857 0.59181 0.4084 0.0
C891 C 0.11655 0.60169 0.40857 0.0
C892 C 0.13976 0.59213 0.42326 0.0
C893 C 0.13895 0.60213 0.4386 0.0
C894 C 0.12655 0.61155 0.43895 0.0
H895 H 0.2037 0.63947 0.53747 0.0
H896 H 0.18071 0.63195 0.51207 0.0
C897 C 0.11541 0.6113 0.42409 0.0
C898 C 0.15238 0.6042 0.45376 0.0
H899 H 0.15085 0.5938 0.49728 0.0
C900 C 0.17441 0.61535 0.45157 0.0
C901 C 0.14374 0.59609 0.47037 0.0
C902 C 0.12018 0.58335 0.4733 0.0
C903 C 0.18809 0.61918 0.46568 0.0
C904 C 0.17946 0.61127 0.48235 0.0
C905 C 0.15741 0.59985 0.48449 0.0
C906 C 0.19308 0.61523 0.49784 0.0
C907 C 0.21164 0.6323 0.46275 0.0
C908 C 0.20744 0.60805 0.49836 0.0
C909 C 0.22068 0.61242 0.51281 0.0
C910 C 0.21963 0.62388 0.52706 0.0
C911 C 0.20491 0.63066 0.52666 0.0
C912 C 0.19174 0.62634 0.51219 0.0
H913 H 0.21546 0.64135 0.45044 0.0
H914 H 0.21948 0.64336 0.47378 0.0
H915 H 0.21839 0.62195 0.46184 0.0
H916 H 0.20842 0.59909 0.48757 0.0
H917 H 0.23175 0.60686 0.51281 0.0
H918 H 0.55887 0.10188 0.57675 0.0
H919 H 0.5697 0.11962 0.60514 0.0
H920 H 0.54597 0.15982 0.59024 0.0
H921 H 0.53454 0.14169 0.56213 0.0
H922 H 0.59785 0.15857 0.61207 0.0
H923 H 0.52099 0.14348 0.63791 0.0
H924 H 0.52295 0.13003 0.61895 0.0
H925 H 0.52642 0.15572 0.61694 0.0
C926 C 0.55577 0.11435 0.57966 0.0
C927 C 0.54575 0.12033 0.56732 0.0
C928 C 0.56194 0.12446 0.59586 0.0
C929 C 0.55834 0.14084 0.59998 0.0
C930 C 0.54834 0.14682 0.58763 0.0
H931 H 0.6303 0.24051 0.67397 0.0
H932 H 0.616 0.21781 0.64831 0.0
C933 C 0.5419 0.13652 0.57153 0.0
C934 C 0.56627 0.15253 0.6167 0.0
H935 H 0.55195 0.17112 0.65182 0.0
C936 C 0.58774 0.16111 0.62085 0.0
C937 C 0.55305 0.15561 0.62833 0.0
C938 C 0.52954 0.14552 0.6254 0.0
C939 C 0.59649 0.17314 0.63603 0.0
C940 C 0.58356 0.1773 0.64708 0.0
C941 C 0.56195 0.16821 0.64322 0.0
C942 C 0.59215 0.19115 0.66265 0.0
C943 C 0.61943 0.18099 0.64013 0.0
C944 C 0.58301 0.18401 0.67917 0.0
C945 C 0.5909 0.19712 0.6938 0.0
C946 C 0.60813 0.21756 0.69218 0.0
C947 C 0.61716 0.22474 0.67563 0.0
C948 C 0.6091 0.21173 0.66098 0.0
H949 H 0.62492 0.17105 0.6339 0.0
H950 H 0.62927 0.19703 0.63493 0.0
H951 H 0.62214 0.18144 0.65443 0.0
H952 H 0.56984 0.16825 0.68076 0.0
H953 H 0.58361 0.19118 0.70639 0.0
H954 H 0.38924 0.53442 0.7345 0.0
H955 H 0.39004 0.55344 0.76087 0.0
H956 H 0.44314 0.54964 0.78012 0.0
H957 H 0.4426 0.53079 0.75349 0.0
H958 H 0.3839 0.53944 0.79388 0.0
H959 H 0.46297 0.61091 0.78803 0.0
H960 H 0.45045 0.59288 0.7701 0.0
H961 H 0.4634 0.58699 0.78713 0.0
C962 C 0.40112 0.53768 0.74433 0.0
C963 C 0.41579 0.53102 0.742 0.0
C964 C 0.40162 0.54862 0.75936 0.0
C965 C 0.41676 0.55314 0.7724 0.0
C966 C 0.4316 0.54672 0.77006 0.0
H967 H 0.39865 0.58346 0.87881 0.0
H968 H 0.40431 0.56743 0.85295 0.0
C969 C 0.43123 0.53588 0.7549 0.0
C970 C 0.41605 0.56352 0.78879 0.0
H971 H 0.44448 0.60657 0.81464 0.0
C972 C 0.39716 0.55413 0.79841 0.0
C973 C 0.43328 0.58278 0.79459 0.0
C974 C 0.45362 0.59412 0.78436 0.0
C975 C 0.39496 0.56345 0.81363 0.0
C976 C 0.41235 0.58244 0.81968 0.0
C977 C 0.43126 0.5919 0.81007 0.0
C978 C 0.41088 0.59297 0.83569 0.0
C979 C 0.37381 0.55312 0.82278 0.0
C980 C 0.41363 0.61305 0.83473 0.0
C981 C 0.41067 0.62237 0.84955 0.0
C982 C 0.40486 0.61172 0.86555 0.0
C983 C 0.40289 0.59194 0.86661 0.0
C984 C 0.40602 0.58272 0.85184 0.0
H985 H 0.36084 0.54202 0.81403 0.0
H986 H 0.37435 0.5442 0.83413 0.0
H987 H 0.36996 0.5649 0.82763 0.0
H988 H 0.41749 0.62126 0.82241 0.0
H989 H 0.41237 0.63765 0.84837 0.0
H990 H 0.88222 0.38861 0.90524 0.0
H991 H 0.86276 0.38723 0.93158 0.0
H992 H 0.89616 0.4545 0.93381 0.0
H993 H 0.91641 0.45606 0.90782 0.0
H994 H 0.89335 0.43702 0.96586 0.0
H995 H 0.81469 0.39927 0.93402 0.0
H996 H 0.82806 0.3849 0.93098 0.0
H997 H 0.83903 0.41054 0.92174 0.0
C998 C 0.88566 0.40314 0.91143 0.0
C999 C 0.90087 0.42246 0.90437 0.0
C1000 C 0.87428 0.40231 0.92636 0.0
C1001 C 0.87769 0.42076 0.93443 0.0
C1002 C 0.89313 0.44007 0.92766 0.0
H1003 H 0.79143 0.42109 0.01316 0.0
H1004 H 0.81336 0.42795 0.98705 0.0
C1005 C 0.90459 0.44093 0.91275 0.0
C1006 C 0.86535 0.41983 0.95011 0.0
H1007 H 0.81494 0.39991 0.96521 0.0
C1008 C 0.87621 0.42905 0.9657 0.0
C1009 C 0.84301 0.40976 0.9498 0.0
C1010 C 0.83051 0.40074 0.93319 0.0
C1011 C 0.8653 0.42786 0.98115 0.0
C1012 C 0.84292 0.4168 0.98105 0.0
C1013 C 0.83209 0.40818 0.96532 0.0
C1014 C 0.83038 0.41353 0.99716 0.0
C1015 C 0.87786 0.43859 0.99738 0.0
C1016 C 0.83257 0.40305 0.01145 0.0
C1017 C 0.82017 0.39921 0.02637 0.0
C1018 C 0.80514 0.40558 0.02721 0.0
C1019 C 0.80291 0.41604 0.01289 0.0
C1020 C 0.81541 0.41995 0.99798 0.0
H1021 H 0.89406 0.45138 0.99411 0.0
H1022 H 0.86991 0.44516 0.00533 0.0
H1023 H 0.87938 0.42708 0.00546 0.0
H1024 H 0.84363 0.39748 0.01094 0.0
H1025 H 0.82213 0.39098 0.03715 0.0
H1026 H 0.4457 0.91813 0.07421 0.0
H1027 H 0.43469 0.89853 0.10157 0.0
H1028 H 0.4822 0.88135 0.09461 0.0
H1029 H 0.49285 0.90031 0.06703 0.0
H1030 H 0.44236 0.84772 0.10175 0.0
H1031 H 0.46418 0.9122 0.14933 0.0
H1032 H 0.44797 0.91156 0.13153 0.0
H1033 H 0.47425 0.91666 0.12726 0.0
C1034 C 0.45386 0.91025 0.07854 0.0
C1035 C 0.47019 0.91083 0.06845 0.0
C1036 C 0.44769 0.89924 0.09427 0.0
C1037 C 0.45781 0.8887 0.10021 0.0
C1038 C 0.4743 0.88951 0.0903 0.0
H1039 H 0.44453 0.82962 0.20072 0.0
H1040 H 0.45741 0.85193 0.17487 0.0
C1041 C 0.48048 0.9005 0.07461 0.0
C1042 C 0.45038 0.87575 0.11617 0.0
H1043 H 0.44349 0.87761 0.16014 0.0
C1044 C 0.44266 0.85426 0.11454 0.0
C1045 C 0.45098 0.88437 0.13283 0.0
C1046 C 0.45996 0.90749 0.13545 0.0
C1047 C 0.43527 0.84107 0.12909 0.0
C1048 C 0.4353 0.84958 0.14567 0.0
C1049 C 0.44331 0.87112 0.14737 0.0
C1050 C 0.4273 0.83634 0.16144 0.0
C1051 C 0.4278 0.81819 0.12663 0.0
C1052 C 0.40604 0.82039 0.16252 0.0
C1053 C 0.39866 0.8076 0.17724 0.0
C1054 C 0.4124 0.81063 0.19116 0.0
C1055 C 0.4336 0.82686 0.19016 0.0
C1056 C 0.44096 0.83964 0.17544 0.0
H1057 H 0.43368 0.8152 0.1142 0.0
H1058 H 0.43307 0.81225 0.13762 0.0
H1059 H 0.41026 0.80919 0.12627 0.0
H1060 H 0.39516 0.81784 0.15198 0.0
H1061 H 0.38221 0.79531 0.17768 0.0
H1062 H 0.62919 0.49817 0.23786 0.0
H1063 H 0.62848 0.47985 0.26437 0.0
H1064 H 0.56503 0.4662 0.27514 0.0
H1065 H 0.56589 0.4853 0.24887 0.0
H1066 H 0.59057 0.48006 0.30422 0.0
H1067 H 0.59707 0.41705 0.27136 0.0
H1068 H 0.6178 0.44254 0.26507 0.0
H1069 H 0.59079 0.43422 0.25968 0.0
C1070 C 0.61514 0.49149 0.24593 0.0
C1071 C 0.5976 0.49325 0.24123 0.0
C1072 C 0.61465 0.48074 0.26097 0.0
C1073 C 0.59655 0.4713 0.27154 0.0
C1074 C 0.57909 0.4732 0.26705 0.0
H1075 H 0.58658 0.38674 0.35519 0.0
H1076 H 0.57885 0.40121 0.32945 0.0
C1077 C 0.57956 0.48402 0.252 0.0
C1078 C 0.59623 0.45998 0.28752 0.0
H1079 H 0.60453 0.42144 0.30207 0.0
C1080 C 0.59338 0.46708 0.30376 0.0
C1081 C 0.59949 0.44281 0.28688 0.0
C1082 C 0.60124 0.43355 0.26979 0.0
C1083 C 0.59466 0.45806 0.31942 0.0
C1084 C 0.59933 0.4418 0.31881 0.0
C1085 C 0.60122 0.43408 0.30254 0.0
C1086 C 0.60321 0.43315 0.33485 0.0
C1087 C 0.59103 0.46608 0.33646 0.0
C1088 C 0.61956 0.44627 0.34633 0.0
C1089 C 0.62393 0.43807 0.36103 0.0
C1090 C 0.61219 0.41655 0.36443 0.0
C1091 C 0.59585 0.4034 0.35292 0.0
C1092 C 0.59142 0.41163 0.33823 0.0
H1093 H 0.58118 0.47334 0.33456 0.0
H1094 H 0.58318 0.45336 0.34618 0.0
H1095 H 0.60649 0.4782 0.34188 0.0
H1096 H 0.62922 0.46282 0.34375 0.0
H1097 H 0.63672 0.44858 0.36958 0.0
H1098 H 0.40706 0.9188 0.38409 0.0
H1099 H 0.40624 0.89929 0.35793 0.0
H1100 H 0.44115 0.87581 0.38516 0.0
H1101 H 0.44149 0.89472 0.41153 0.0
H1102 H 0.43955 0.90039 0.33815 0.0
H1103 H 0.38775 0.82265 0.36808 0.0
H1104 H 0.39148 0.84652 0.37768 0.0
H1105 H 0.41149 0.8396 0.38004 0.0
C1106 C 0.41451 0.90943 0.38453 0.0
C1107 C 0.42419 0.90819 0.39995 0.0
C1108 C 0.41413 0.8984 0.36955 0.0
C1109 C 0.42334 0.88586 0.36972 0.0
C1110 C 0.43365 0.88514 0.38486 0.0
H1111 H 0.4226 0.79889 0.29213 0.0
H1112 H 0.42995 0.82132 0.3179 0.0
C1113 C 0.43404 0.89615 0.39986 0.0
C1114 C 0.42171 0.8732 0.35414 0.0
H1115 H 0.40028 0.82296 0.33959 0.0
C1116 C 0.431 0.88346 0.33845 0.0
C1117 C 0.41056 0.85112 0.3546 0.0
C1118 C 0.39958 0.83925 0.37094 0.0
C1119 C 0.4295 0.87222 0.32318 0.0
C1120 C 0.41809 0.85014 0.32359 0.0
C1121 C 0.40906 0.83989 0.33934 0.0
C1122 C 0.41457 0.83731 0.30767 0.0
C1123 C 0.4403 0.88407 0.3068 0.0
C1124 C 0.40337 0.83878 0.29347 0.0
C1125 C 0.39916 0.82602 0.27878 0.0
C1126 C 0.40596 0.81144 0.27807 0.0
C1127 C 0.41721 0.81001 0.29229 0.0
C1128 C 0.42141 0.82279 0.307 0.0
H1129 H 0.45313 0.90025 0.30982 0.0
H1130 H 0.4471 0.87604 0.29928 0.0
H1131 H 0.42855 0.88504 0.29839 0.0
H1132 H 0.39752 0.84953 0.29387 0.0
H1133 H 0.39035 0.8274 0.26806 0.0
H1134 H 0.50851 0.3912 0.56947 0.0
H1135 H 0.52771 0.39183 0.54323 0.0
H1136 H 0.5627 0.45913 0.54464 0.0
H1137 H 0.54302 0.45869 0.57078 0.0
H1138 H 0.54746 0.44152 0.51085 0.0
H1139 H 0.58996 0.40687 0.54298 0.0
H1140 H 0.56182 0.39191 0.54601 0.0
H1141 H 0.57669 0.41777 0.55515 0.0
C1142 C 0.52006 0.40618 0.5641 0.0
C1143 C 0.5242 0.42491 0.57222 0.0
C1144 C 0.53121 0.40649 0.54921 0.0
C1145 C 0.54685 0.42551 0.54219 0.0
C1146 C 0.55078 0.44429 0.54998 0.0
H1147 H 0.63405 0.42677 0.46353 0.0
H1148 H 0.61959 0.43493 0.48924 0.0
C1149 C 0.53962 0.444 0.56494 0.0
C1150 C 0.55899 0.42557 0.52669 0.0
H1151 H 0.59026 0.40709 0.51178 0.0
C1152 C 0.55702 0.43421 0.51106 0.0
C1153 C 0.57171 0.41633 0.52709 0.0
C1154 C 0.57538 0.40787 0.54375 0.0
C1155 C 0.56673 0.43302 0.49561 0.0
C1156 C 0.57842 0.42265 0.4958 0.0
C1157 C 0.58112 0.41483 0.51161 0.0
C1158 C 0.58738 0.41903 0.47968 0.0
C1159 C 0.56437 0.44284 0.47924 0.0
C1160 C 0.57405 0.40733 0.46581 0.0
C1161 C 0.58227 0.40268 0.45111 0.0
C1162 C 0.60394 0.40948 0.4501 0.0
C1163 C 0.61729 0.42132 0.46394 0.0
C1164 C 0.60906 0.42601 0.47862 0.0
H1165 H 0.56078 0.45534 0.48235 0.0
H1166 H 0.57893 0.44958 0.47116 0.0
H1167 H 0.55106 0.43073 0.47137 0.0
H1168 H 0.5572 0.40135 0.46653 0.0
H1169 H 0.57158 0.39343 0.44069 0.0
H1170 H 0.09446 0.55125 0.72248 0.0
H1171 H 0.11343 0.56251 0.69462 0.0
H1172 H 0.16724 0.56324 0.71791 0.0
H1173 H 0.14835 0.55183 0.74563 0.0
H1174 H 0.14993 0.59817 0.68746 0.0
H1175 H 0.15989 0.53053 0.67359 0.0
H1176 H 0.14197 0.52988 0.6901 0.0
H1177 H 0.16976 0.54168 0.69476 0.0
C1178 C 0.11028 0.55369 0.7216 0.0
C1179 C 0.11985 0.55049 0.73621 0.0
C1180 C 0.12108 0.56007 0.70569 0.0
C1181 C 0.14161 0.56337 0.7041 0.0
C1182 C 0.15119 0.56022 0.71867 0.0
H1183 H 0.23837 0.6412 0.62978 0.0
H1184 H 0.21499 0.62649 0.65507 0.0
C1185 C 0.14038 0.55372 0.73453 0.0
C1186 C 0.15351 0.57116 0.6875 0.0
H1187 H 0.1818 0.56156 0.65723 0.0
C1188 C 0.15673 0.59007 0.68075 0.0
C1189 C 0.16212 0.56044 0.67861 0.0
C1190 C 0.15808 0.5394 0.68453 0.0
C1191 C 0.16887 0.59887 0.66564 0.0
C1192 C 0.17846 0.58872 0.65731 0.0
C1193 C 0.17469 0.56948 0.66376 0.0
C1194 C 0.19253 0.59778 0.64195 0.0
C1195 C 0.17113 0.61884 0.65868 0.0
C1196 C 0.18801 0.58631 0.62633 0.0
C1197 C 0.20149 0.59456 0.61195 0.0
C1198 C 0.21976 0.61445 0.61294 0.0
C1199 C 0.22431 0.6259 0.6286 0.0
C1200 C 0.21089 0.61757 0.64301 0.0
H1201 H 0.15799 0.62105 0.66317 0.0
H1202 H 0.18615 0.63228 0.66356 0.0
H1203 H 0.17149 0.61905 0.64418 0.0
H1204 H 0.174 0.57096 0.62524 0.0
H1205 H 0.19759 0.58535 0.60006 0.0
H1206 H 0.57857 0.13375 0.91139 0.0
H1207 H 0.57951 0.15264 0.88503 0.0
H1208 H 0.614 0.12815 0.85808 0.0
H1209 H 0.61262 0.10874 0.88422 0.0
H1210 H 0.61622 0.18309 0.86864 0.0
H1211 H 0.56751 0.11774 0.82307 0.0
H1212 H 0.56714 0.1143 0.84643 0.0
H1213 H 0.58835 0.11583 0.83348 0.0
C1214 C 0.58594 0.132 0.89974 0.0
C1215 C 0.59548 0.11969 0.89989 0.0
C1216 C 0.58659 0.14292 0.88473 0.0
C1217 C 0.59661 0.1416 0.86955 0.0
C1218 C 0.60585 0.12909 0.86956 0.0
H1219 H 0.63392 0.20284 0.76988 0.0
H1220 H 0.62666 0.18103 0.79572 0.0
C1221 C 0.60525 0.11819 0.88456 0.0
C1222 C 0.59866 0.15441 0.8541 0.0
H1223 H 0.58782 0.15155 0.81049 0.0
C1224 C 0.60983 0.17622 0.85596 0.0
C1225 C 0.59036 0.14537 0.83759 0.0
C1226 C 0.5775 0.12202 0.83499 0.0
C1227 C 0.6135 0.18928 0.8416 0.0
C1228 C 0.60543 0.18025 0.82503 0.0
C1229 C 0.594 0.15842 0.82322 0.0
C1230 C 0.60927 0.1932 0.80929 0.0
C1231 C 0.62659 0.21263 0.84419 0.0
C1232 C 0.60164 0.20706 0.80826 0.0
C1233 C 0.60583 0.2196 0.79352 0.0
C1234 C 0.6176 0.21837 0.77953 0.0
C1235 C 0.62486 0.20418 0.78047 0.0
C1236 C 0.6207 0.19169 0.79521 0.0
H1237 H 0.63571 0.21686 0.85659 0.0
H1238 H 0.63782 0.22009 0.83319 0.0
H1239 H 0.61597 0.21917 0.84466 0.0
H1240 H 0.59244 0.20818 0.81885 0.0
H1241 H 0.59991 0.23029 0.79311 0.0
H1242 H 0.44786 0.54652 0.06868 0.0
H1243 H 0.43571 0.55444 0.04158 0.0
H1244 H 0.48124 0.61988 0.0486 0.0
H1245 H 0.49313 0.6122 0.07585 0.0
H1246 H 0.43974 0.61101 0.04202 0.0
H1247 H 0.46553 0.57243 0.99363 0.0
H1248 H 0.45024 0.55634 0.0116 0.0
H1249 H 0.47593 0.5787 0.01559 0.0
C1250 C 0.45535 0.56258 0.0644 0.0
C1251 C 0.47151 0.57872 0.07439 0.0
C1252 C 0.44851 0.56705 0.04885 0.0
C1253 C 0.45774 0.58772 0.04302 0.0
C1254 C 0.47403 0.60381 0.05283 0.0
H1255 H 0.44358 0.63454 0.94371 0.0
H1256 H 0.45644 0.62513 0.96955 0.0
C1257 C 0.48091 0.59936 0.06833 0.0
C1258 C 0.44968 0.59278 0.02721 0.0
H1259 H 0.44397 0.58528 0.98305 0.0
C1260 C 0.44067 0.60541 0.02911 0.0
C1261 C 0.4511 0.58559 0.01041 0.0
C1262 C 0.46137 0.57265 0.00757 0.0
C1263 C 0.43288 0.61093 0.01465 0.0
C1264 C 0.43388 0.60337 0.99789 0.0
C1265 C 0.44308 0.5909 0.99595 0.0
C1266 C 0.42587 0.60863 0.98216 0.0
C1267 C 0.42401 0.62513 0.0174 0.0
C1268 C 0.40437 0.60224 0.98061 0.0
C1269 C 0.39699 0.60764 0.9659 0.0
C1270 C 0.41098 0.61942 0.95243 0.0
C1271 C 0.43244 0.62552 0.9539 0.0
C1272 C 0.4398 0.62012 0.96862 0.0
H1273 H 0.42902 0.63352 0.03013 0.0
H1274 H 0.42907 0.63681 0.00678 0.0
H1275 H 0.40648 0.61566 0.01729 0.0
H1276 H 0.3933 0.59305 0.99078 0.0
H1277 H 0.38034 0.60261 0.96508 0.0
H1278 H 0.88005 0.50858 0.23638 0.0
H1279 H 0.86109 0.48927 0.21029 0.0
H1280 H 0.89968 0.4609 0.2075 0.0
H1281 H 0.91948 0.48095 0.23329 0.0
H1282 H 0.89443 0.47414 0.17547 0.0
H1283 H 0.81701 0.42759 0.20824 0.0
H1284 H 0.82804 0.45512 0.21148 0.0
H1285 H 0.84141 0.44248 0.22023 0.0
C1286 C 0.88476 0.49847 0.23012 0.0
C1287 C 0.90135 0.49636 0.23695 0.0
C1288 C 0.87366 0.48719 0.21534 0.0
C1289 C 0.87867 0.47331 0.20718 0.0
C1290 C 0.89543 0.47138 0.21373 0.0
H1291 H 0.79324 0.38577 0.12802 0.0
H1292 H 0.81566 0.40059 0.15393 0.0
C1293 C 0.90663 0.48275 0.22852 0.0
C1294 C 0.86657 0.46119 0.19162 0.0
H1295 H 0.81639 0.4283 0.17697 0.0
C1296 C 0.87739 0.46393 0.17582 0.0
C1297 C 0.8444 0.44756 0.19217 0.0
C1298 C 0.83206 0.44282 0.20899 0.0
C1299 C 0.8665 0.45409 0.16037 0.0
C1300 C 0.84417 0.44156 0.1607 0.0
C1301 C 0.83348 0.43812 0.17666 0.0
C1302 C 0.83149 0.43242 0.14459 0.0
C1303 C 0.87904 0.45721 0.14387 0.0
C1304 C 0.83283 0.4454 0.1308 0.0
C1305 C 0.82015 0.43696 0.11598 0.0
C1306 C 0.80566 0.41541 0.11477 0.0
C1307 C 0.80428 0.40243 0.12859 0.0
C1308 C 0.81708 0.41087 0.14338 0.0
H1309 H 0.8955 0.46124 0.14684 0.0
H1310 H 0.87154 0.44301 0.13549 0.0
H1311 H 0.87987 0.47033 0.13638 0.0
H1312 H 0.8434 0.46213 0.13164 0.0
H1313 H 0.82146 0.44738 0.1056 0.0
loop_
_geom_bond_atom_site_label_1
_geom_bond_atom_site_label_2
_geom_bond_distance
_geom_bond_site_symmetry_2
_ccdc_geom_bond_type
H0 C27 0.929 . S
N1 C26 1.433 . S
N1 C32 1.435 . S
N1 C38 1.423 . S
H2 C28 0.930 . S
H3 C31 0.931 . S
H4 C30 0.929 . S
H5 C33 0.930 . S
H6 C34 0.932 . S
H7 C37 0.929 . S
H8 C36 0.931 . S
H9 C39 0.929 . S
H10 C43 0.932 . S
H11 C40 0.931 . S
H12 C42 0.929 . S
H13 C45 0.929 . S
H14 C46 0.930 . S
H15 C48 0.929 . S
H16 C49 0.931 . S
H17 C51 0.930 . S
H18 C52 0.932 . S
H19 C54 0.931 . S
H20 C55 0.929 . S
H21 C57 0.929 . S
H22 C58 0.931 . S
H23 C60 0.929 . S
N24 C44 1.433 . S
N24 C50 1.435 . S
N24 C56 1.423 . S
H25 C61 0.932 . S
C26 N1 1.433 . S
C26 C27 1.363 . S
C26 C31 1.370 . S
C27 H0 0.929 . S
C27 C26 1.363 . S
C27 C28 1.385 . S
C28 H2 0.930 . S
C28 C27 1.385 . S
C28 C29 1.357 . S
C29 C28 1.357 . S
C29 C30 1.406 . S
C30 H4 0.929 . S
C30 C29 1.406 . S
C30 C31 1.391 . S
C31 H3 0.931 . S
C31 C26 1.370 . S
C31 C30 1.391 . S
C32 N1 1.435 . S
C32 C33 1.358 . S
C32 C37 1.371 . S
C33 H5 0.930 . S
C33 C32 1.358 . S
C33 C34 1.405 . S
C34 H6 0.932 . S
C34 C33 1.405 . S
C34 C35 1.383 . S
C35 C34 1.383 . S
C35 C36 1.393 . S
C36 H8 0.931 . S
C36 C35 1.393 . S
C36 C37 1.382 . S
C37 H7 0.929 . S
C37 C32 1.371 . S
C37 C36 1.382 . S
C38 N1 1.423 . S
C38 C39 1.362 . S
C38 C43 1.388 . S
C39 H9 0.929 . S
C39 C38 1.362 . S
C39 C40 1.376 . S
C40 H11 0.931 . S
C40 C39 1.376 . S
C40 C41 1.396 . S
C41 C40 1.396 . S
C41 C42 1.348 . S
C41 C59 1.472 1_455 S
C42 H12 0.929 . S
C42 C41 1.348 . S
C42 C43 1.443 . S
C43 H10 0.932 . S
C43 C38 1.388 . S
C43 C42 1.443 . S
C44 N24 1.433 . S
C44 C45 1.363 . S
C44 C49 1.370 . S
C45 H13 0.929 . S
C45 C44 1.363 . S
C45 C46 1.385 . S
C46 H14 0.930 . S
C46 C45 1.385 . S
C46 C47 1.357 . S
C47 C46 1.357 . S
C47 C48 1.406 . S
C48 H15 0.929 . S
C48 C47 1.406 . S
C48 C49 1.391 . S
C49 H16 0.931 . S
C49 C44 1.370 . S
C49 C48 1.391 . S
C50 N24 1.435 . S
C50 C51 1.358 . S
C50 C55 1.371 . S
C51 H17 0.930 . S
C51 C50 1.358 . S
C51 C52 1.405 . S
C52 H18 0.932 . S
C52 C51 1.405 . S
C52 C53 1.383 . S
C53 C52 1.383 . S
C53 C54 1.393 . S
C54 H19 0.931 . S
C54 C53 1.393 . S
C54 C55 1.382 . S
C55 H20 0.929 . S
C55 C50 1.371 . S
C55 C54 1.382 . S
C56 N24 1.423 . S
C56 C57 1.362 . S
C56 C61 1.388 . S
C57 H21 0.929 . S
C57 C56 1.362 . S
C57 C58 1.376 . S
C58 H22 0.931 . S
C58 C57 1.376 . S
C58 C59 1.396 . S
C59 C41 1.472 1_655 S
C59 C58 1.396 . S
C59 C60 1.348 . S
C60 H23 0.929 . S
C60 C59 1.348 . S
C60 C61 1.443 . S
C61 H25 0.932 . S
C61 C56 1.388 . S
C61 C60 1.443 . S
H62 C89 0.929 . S
N63 C88 1.433 . S
N63 C94 1.435 . S
N63 C100 1.423 . S
H64 C90 0.930 . S
H65 C93 0.931 . S
H66 C92 0.929 . S
H67 C95 0.930 . S
H68 C96 0.932 . S
H69 C99 0.929 . S
H70 C98 0.931 . S
H71 C101 0.929 . S
H72 C105 0.932 . S
H73 C102 0.931 . S
H74 C104 0.929 1_545 S
H75 C107 0.929 . S
H76 C108 0.930 . S
H77 C110 0.929 . S
H78 C111 0.931 . S
H79 C113 0.930 . S
H80 C114 0.932 . S
H81 C116 0.931 . S
H82 C117 0.929 . S
H83 C119 0.929 . S
H84 C120 0.931 . S
H85 C122 0.929 . S
N86 C106 1.433 . S
N86 C112 1.435 . S
N86 C118 1.423 . S
H87 C123 0.932 . S
C88 N63 1.433 . S
C88 C89 1.363 . S
C88 C93 1.370 . S
C89 H62 0.929 . S
C89 C88 1.363 . S
C89 C90 1.385 . S
C90 H64 0.930 . S
C90 C89 1.385 . S
C90 C91 1.357 . S
C91 C90 1.357 . S
C91 C92 1.406 . S
C92 H66 0.929 . S
C92 C91 1.406 . S
C92 C93 1.391 . S
C93 H65 0.931 . S
C93 C88 1.370 . S
C93 C92 1.391 . S
C94 N63 1.435 . S
C94 C95 1.358 . S
C94 C99 1.371 . S
C95 H67 0.930 . S
C95 C94 1.358 . S
C95 C96 1.405 . S
C96 H68 0.932 . S
C96 C95 1.405 . S
C96 C97 1.383 . S
C97 C96 1.383 . S
C97 C98 1.393 . S
C98 H70 0.931 . S
C98 C97 1.393 . S
C98 C99 1.382 . S
C99 H69 0.929 . S
C99 C94 1.371 . S
C99 C98 1.382 . S
C100 N63 1.423 . S
C100 C101 1.362 . S
C100 C105 1.388 . S
C101 H71 0.929 . S
C101 C100 1.362 . S
C101 C102 1.376 . S
C102 H73 0.931 . S
C102 C101 1.376 . S
C102 C103 1.396 1_565 S
C103 C102 1.396 1_545 S
C103 C104 1.348 1_545 S
C103 C121 1.472 . S
C104 H74 0.929 1_565 S
C104 C103 1.348 1_565 S
C104 C105 1.443 . S
C105 H72 0.932 . S
C105 C100 1.388 . S
C105 C104 1.443 . S
C106 N86 1.433 . S
C106 C107 1.363 . S
C106 C111 1.370 . S
C107 H75 0.929 . S
C107 C106 1.363 . S
C107 C108 1.385 . S
C108 H76 0.930 . S
C108 C107 1.385 . S
C108 C109 1.357 . S
C109 C108 1.357 . S
C109 C110 1.406 . S
C110 H77 0.929 . S
C110 C109 1.406 . S
C110 C111 1.391 . S
C111 H78 0.931 . S
C111 C106 1.370 . S
C111 C110 1.391 . S
C112 N86 1.435 . S
C112 C113 1.358 . S
C112 C117 1.371 . S
C113 H79 0.930 . S
C113 C112 1.358 . S
C113 C114 1.405 . S
C114 H80 0.932 . S
C114 C113 1.405 . S
C114 C115 1.383 . S
C115 C114 1.383 . S
C115 C116 1.393 . S
C116 H81 0.931 . S
C116 C115 1.393 . S
C116 C117 1.382 . S
C117 H82 0.929 . S
C117 C112 1.371 . S
C117 C116 1.382 . S
C118 N86 1.423 . S
C118 C119 1.362 . S
C118 C123 1.388 . S
C119 H83 0.929 . S
C119 C118 1.362 . S
C119 C120 1.376 . S
C120 H84 0.931 . S
C120 C119 1.376 . S
C120 C121 1.396 . S
C121 C103 1.472 . S
C121 C120 1.396 . S
C121 C122 1.348 . S
C122 H85 0.929 . S
C122 C121 1.348 . S
C122 C123 1.443 . S
C123 H87 0.932 . S
C123 C118 1.388 . S
C123 C122 1.443 . S
H124 C151 0.929 . S
N125 C150 1.433 . S
N125 C156 1.435 . S
N125 C162 1.423 . S
H126 C152 0.930 . S
H127 C155 0.931 . S
H128 C154 0.929 . S
H129 C157 0.930 . S
H130 C158 0.932 . S
H131 C161 0.929 . S
H132 C160 0.931 . S
H133 C163 0.929 . S
H134 C167 0.932 . S
H135 C164 0.931 . S
H136 C166 0.929 . S
H137 C169 0.929 . S
H138 C170 0.930 . S
H139 C172 0.929 . S
H140 C173 0.931 . S
H141 C175 0.930 . S
H142 C176 0.932 . S
H143 C178 0.931 . S
H144 C179 0.929 . S
H145 C181 0.929 . S
H146 C182 0.931 . S
H147 C184 0.929 . S
N148 C168 1.433 . S
N148 C174 1.435 . S
N148 C180 1.423 . S
H149 C185 0.932 . S
C150 N125 1.433 . S
C150 C151 1.363 . S
C150 C155 1.370 . S
C151 H124 0.929 . S
C151 C150 1.363 . S
C151 C152 1.385 . S
C152 H126 0.930 . S
C152 C151 1.385 . S
C152 C153 1.357 . S
C153 C152 1.357 . S
C153 C154 1.406 . S
C154 H128 0.929 . S
C154 C153 1.406 . S
C154 C155 1.391 . S
C155 H127 0.931 . S
C155 C150 1.370 . S
C155 C154 1.391 . S
C156 N125 1.435 . S
C156 C157 1.358 . S
C156 C161 1.371 . S
C157 H129 0.930 . S
C157 C156 1.358 . S
C157 C158 1.405 . S
C158 H130 0.932 . S
C158 C157 1.405 . S
C158 C159 1.383 . S
C159 C158 1.383 . S
C159 C160 1.393 . S
C160 H132 0.931 . S
C160 C159 1.393 . S
C160 C161 1.382 . S
C161 H131 0.929 . S
C161 C156 1.371 . S
C161 C160 1.382 . S
C162 N125 1.423 . S
C162 C163 1.362 . S
C162 C167 1.388 . S
C163 H133 0.929 . S
C163 C162 1.362 . S
C163 C164 1.376 . S
C164 H135 0.931 . S
C164 C163 1.376 . S
C164 C165 1.396 . S
C165 C164 1.396 . S
C165 C166 1.348 . S
C165 C183 1.472 . S
C166 H136 0.929 . S
C166 C165 1.348 . S
C166 C167 1.443 . S
C167 H134 0.932 . S
C167 C162 1.388 . S
C167 C166 1.443 . S
C168 N148 1.433 . S
C168 C169 1.363 . S
C168 C173 1.370 . S
C169 H137 0.929 . S
C169 C168 1.363 . S
C169 C170 1.385 . S
C170 H138 0.930 . S
C170 C169 1.385 . S
C170 C171 1.357 . S
C171 C170 1.357 . S
C171 C172 1.406 . S
C172 H139 0.929 . S
C172 C171 1.406 . S
C172 C173 1.391 . S
C173 H140 0.931 . S
C173 C168 1.370 . S
C173 C172 1.391 . S
C174 N148 1.435 . S
C174 C175 1.358 . S
C174 C179 1.371 . S
C175 H141 0.930 . S
C175 C174 1.358 . S
C175 C176 1.405 . S
C176 H142 0.932 . S
C176 C175 1.405 . S
C176 C177 1.383 . S
C177 C176 1.383 . S
C177 C178 1.393 . S
C178 H143 0.931 . S
C178 C177 1.393 . S
C178 C179 1.382 . S
C179 H144 0.929 . S
C179 C174 1.371 . S
C179 C178 1.382 . S
C180 N148 1.423 . S
C180 C181 1.362 . S
C180 C185 1.388 . S
C181 H145 0.929 . S
C181 C180 1.362 . S
C181 C182 1.376 . S
C182 H146 0.931 . S
C182 C181 1.376 . S
C182 C183 1.396 . S
C183 C165 1.472 . S
C183 C182 1.396 . S
C183 C184 1.348 . S
C184 H147 0.929 . S
C184 C183 1.348 . S
C184 C185 1.443 . S
C185 H149 0.932 . S
C185 C180 1.388 . S
C185 C184 1.443 . S
H186 C213 0.929 . S
N187 C212 1.433 . S
N187 C218 1.435 . S
N187 C224 1.423 . S
H188 C214 0.930 . S
H189 C217 0.931 . S
H190 C216 0.929 . S
H191 C219 0.930 . S
H192 C220 0.932 . S
H193 C223 0.929 . S
H194 C222 0.931 . S
H195 C225 0.929 . S
H196 C229 0.932 . S
H197 C226 0.931 . S
H198 C228 0.929 . S
H199 C231 0.929 . S
H200 C232 0.930 . S
H201 C234 0.929 . S
H202 C235 0.931 . S
H203 C237 0.930 . S
H204 C238 0.932 . S
H205 C240 0.931 . S
H206 C241 0.929 . S
H207 C243 0.929 . S
H208 C244 0.931 . S
H209 C246 0.929 . S
N210 C230 1.433 . S
N210 C236 1.435 . S
N210 C242 1.423 . S
H211 C247 0.932 . S
C212 N187 1.433 . S
C212 C213 1.363 . S
C212 C217 1.370 . S
C213 H186 0.929 . S
C213 C212 1.363 . S
C213 C214 1.385 . S
C214 H188 0.930 . S
C214 C213 1.385 . S
C214 C215 1.357 . S
C215 C214 1.357 . S
C215 C216 1.406 . S
C216 H190 0.929 . S
C216 C215 1.406 . S
C216 C217 1.391 . S
C217 H189 0.931 . S
C217 C212 1.370 . S
C217 C216 1.391 . S
C218 N187 1.435 . S
C218 C219 1.358 . S
C218 C223 1.371 . S
C219 H191 0.930 . S
C219 C218 1.358 . S
C219 C220 1.405 . S
C220 H192 0.932 . S
C220 C219 1.405 . S
C220 C221 1.383 . S
C221 C220 1.383 . S
C221 C222 1.393 . S
C222 H194 0.931 . S
C222 C221 1.393 . S
C222 C223 1.382 . S
C223 H193 0.929 . S
C223 C218 1.371 . S
C223 C222 1.382 . S
C224 N187 1.423 . S
C224 C225 1.362 . S
C224 C229 1.388 . S
C225 H195 0.929 . S
C225 C224 1.362 . S
C225 C226 1.376 . S
C226 H197 0.931 . S
C226 C225 1.376 . S
C226 C227 1.396 . S
C227 C226 1.396 . S
C227 C228 1.348 . S
C227 C245 1.472 1_455 S
C228 H198 0.929 . S
C228 C227 1.348 . S
C228 C229 1.443 . S
C229 H196 0.932 . S
C229 C224 1.388 . S
C229 C228 1.443 . S
C230 N210 1.433 . S
C230 C231 1.363 . S
C230 C235 1.370 . S
C231 H199 0.929 . S
C231 C230 1.363 . S
C231 C232 1.385 . S
C232 H200 0.930 . S
C232 C231 1.385 . S
C232 C233 1.357 . S
C233 C232 1.357 . S
C233 C234 1.406 . S
C234 H201 0.929 . S
C234 C233 1.406 . S
C234 C235 1.391 . S
C235 H202 0.931 . S
C235 C230 1.370 . S
C235 C234 1.391 . S
C236 N210 1.435 . S
C236 C237 1.358 . S
C236 C241 1.371 . S
C237 H203 0.930 . S
C237 C236 1.358 . S
C237 C238 1.405 . S
C238 H204 0.932 . S
C238 C237 1.405 . S
C238 C239 1.383 . S
C239 C238 1.383 . S
C239 C240 1.393 . S
C240 H205 0.931 . S
C240 C239 1.393 . S
C240 C241 1.382 . S
C241 H206 0.929 . S
C241 C236 1.371 . S
C241 C240 1.382 . S
C242 N210 1.423 . S
C242 C243 1.362 . S
C242 C247 1.388 . S
C243 H207 0.929 . S
C243 C242 1.362 . S
C243 C244 1.376 . S
C244 H208 0.931 . S
C244 C243 1.376 . S
C244 C245 1.396 . S
C245 C227 1.472 1_655 S
C245 C244 1.396 . S
C245 C246 1.348 . S
C246 H209 0.929 . S
C246 C245 1.348 . S
C246 C247 1.443 . S
C247 H211 0.932 . S
C247 C242 1.388 . S
C247 C246 1.443 . S
H248 C275 0.929 . S
N249 C274 1.433 . S
N249 C280 1.435 . S
N249 C286 1.423 . S
H250 C276 0.930 . S
H251 C279 0.931 . S
H252 C278 0.929 . S
H253 C281 0.930 . S
H254 C282 0.932 . S
H255 C285 0.929 . S
H256 C284 0.931 . S
H257 C287 0.929 . S
H258 C291 0.932 . S
H259 C288 0.931 . S
H260 C290 0.929 . S
H261 C293 0.929 . S
H262 C294 0.930 . S
H263 C296 0.929 . S
H264 C297 0.931 . S
H265 C299 0.930 . S
H266 C300 0.932 . S
H267 C302 0.931 . S
H268 C303 0.929 . S
H269 C305 0.929 . S
H270 C306 0.925 1_544 S
H271 C308 0.929 . S
N272 C292 1.433 . S
N272 C298 1.435 1_554 S
N272 C304 1.407 1_554 S
H273 C309 0.932 . S
C274 N249 1.433 . S
C274 C275 1.363 . S
C274 C279 1.370 . S
C275 H248 0.929 . S
C275 C274 1.363 . S
C275 C276 1.385 . S
C276 H250 0.930 . S
C276 C275 1.385 . S
C276 C277 1.357 1_556 S
C277 C276 1.357 1_554 S
C277 C278 1.406 . S
C278 H252 0.929 . S
C278 C277 1.406 . S
C278 C279 1.391 1_554 S
C279 H251 0.931 . S
C279 C274 1.370 . S
C279 C278 1.391 1_556 S
C280 N249 1.435 . S
C280 C281 1.358 . S
C280 C285 1.371 . S
C281 H253 0.930 . S
C281 C280 1.358 . S
C281 C282 1.405 . S
C282 H254 0.932 . S
C282 C281 1.405 . S
C282 C283 1.383 . S
C283 C282 1.383 . S
C283 C284 1.393 . S
C284 H256 0.931 . S
C284 C283 1.393 . S
C284 C285 1.382 . S
C285 H255 0.929 . S
C285 C280 1.371 . S
C285 C284 1.382 . S
C286 N249 1.423 . S
C286 C287 1.362 . S
C286 C291 1.388 . S
C287 H257 0.929 . S
C287 C286 1.362 . S
C287 C288 1.376 . S
C288 H259 0.931 . S
C288 C287 1.376 . S
C288 C289 1.396 . S
C289 C288 1.396 . S
C289 C290 1.348 . S
C289 C307 1.472 1_545 S
C290 H260 0.929 . S
C290 C289 1.348 . S
C290 C291 1.443 . S
C291 H258 0.932 . S
C291 C286 1.388 . S
C291 C290 1.443 . S
C292 N272 1.433 . S
C292 C293 1.363 . S
C292 C297 1.370 . S
C293 H261 0.929 . S
C293 C292 1.363 . S
C293 C294 1.385 . S
C294 H262 0.930 . S
C294 C293 1.385 . S
C294 C295 1.357 . S
C295 C294 1.357 . S
C295 C296 1.406 . S
C296 H263 0.929 . S
C296 C295 1.406 . S
C296 C297 1.391 . S
C297 H264 0.931 . S
C297 C292 1.370 . S
C297 C296 1.391 . S
C298 N272 1.435 1_556 S
C298 C299 1.358 1_556 S
C298 C303 1.371 . S
C299 H265 0.930 . S
C299 C298 1.358 1_554 S
C299 C300 1.405 1_554 S
C300 H266 0.932 . S
C300 C299 1.405 1_556 S
C300 C301 1.383 . S
C301 C300 1.383 . S
C301 C302 1.393 . S
C302 H267 0.931 . S
C302 C301 1.393 . S
C302 C303 1.382 . S
C303 H268 0.929 . S
C303 C298 1.371 . S
C303 C302 1.382 . S
C304 N272 1.407 1_556 S
C304 C305 1.347 1_556 S
C304 C309 1.421 . S
C305 H269 0.929 . S
C305 C304 1.347 1_554 S
C305 C306 1.370 1_554 S
C306 H270 0.925 1_566 S
C306 C305 1.370 1_556 S
C306 C307 1.408 . S
C307 C289 1.472 1_565 S
C307 C306 1.408 . S
C307 C308 1.348 . S
C308 H271 0.929 . S
C308 C307 1.348 . S
C308 C309 1.443 . S
C309 H273 0.932 . S
C309 C304 1.421 . S
C309 C308 1.443 . S
H310 C337 0.929 . S
N311 C336 1.433 . S
N311 C342 1.435 . S
N311 C348 1.423 . S
H312 C338 0.930 . S
H313 C341 0.931 . S
H314 C340 0.929 . S
H315 C343 0.930 . S
H316 C344 0.932 . S
H317 C347 0.929 . S
H318 C346 0.931 . S
H319 C349 0.929 . S
H320 C353 0.932 . S
H321 C350 0.931 . S
H322 C352 0.929 . S
H323 C355 0.929 . S
H324 C356 0.930 . S
H325 C358 0.929 . S
H326 C359 0.931 . S
H327 C361 0.930 . S
H328 C362 0.932 . S
H329 C364 0.931 . S
H330 C365 0.929 . S
H331 C367 0.929 . S
H332 C368 0.931 . S
H333 C370 0.929 . S
N334 C354 1.433 . S
N334 C360 1.435 . S
N334 C366 1.423 . S
H335 C371 0.932 . S
C336 N311 1.433 . S
C336 C337 1.363 . S
C336 C341 1.370 . S
C337 H310 0.929 . S
C337 C336 1.363 . S
C337 C338 1.385 . S
C338 H312 0.930 . S
C338 C337 1.385 . S
C338 C339 1.357 . S
C339 C338 1.357 . S
C339 C340 1.406 . S
C340 H314 0.929 . S
C340 C339 1.406 . S
C340 C341 1.391 . S
C341 H313 0.931 . S
C341 C336 1.370 . S
C341 C340 1.391 . S
C342 N311 1.435 . S
C342 C343 1.358 . S
C342 C347 1.371 . S
C343 H315 0.930 . S
C343 C342 1.358 . S
C343 C344 1.405 . S
C344 H316 0.932 . S
C344 C343 1.405 . S
C344 C345 1.383 . S
C345 C344 1.383 . S
C345 C346 1.393 . S
C346 H318 0.931 . S
C346 C345 1.393 . S
C346 C347 1.382 . S
C347 H317 0.929 . S
C347 C342 1.371 . S
C347 C346 1.382 . S
C348 N311 1.423 . S
C348 C349 1.362 . S
C348 C353 1.388 . S
C349 H319 0.929 . S
C349 C348 1.362 . S
C349 C350 1.376 . S
C350 H321 0.931 . S
C350 C349 1.376 . S
C350 C351 1.396 . S
C351 C350 1.396 . S
C351 C352 1.348 . S
C351 C369 1.472 . S
C352 H322 0.929 . S
C352 C351 1.348 . S
C352 C353 1.443 . S
C353 H320 0.932 . S
C353 C348 1.388 . S
C353 C352 1.443 . S
C354 N334 1.433 . S
C354 C355 1.363 . S
C354 C359 1.370 . S
C355 H323 0.929 . S
C355 C354 1.363 . S
C355 C356 1.385 . S
C356 H324 0.930 . S
C356 C355 1.385 . S
C356 C357 1.357 . S
C357 C356 1.357 . S
C357 C358 1.406 . S
C358 H325 0.929 . S
C358 C357 1.406 . S
C358 C359 1.391 . S
C359 H326 0.931 . S
C359 C354 1.370 . S
C359 C358 1.391 . S
C360 N334 1.435 . S
C360 C361 1.358 . S
C360 C365 1.371 . S
C361 H327 0.930 . S
C361 C360 1.358 . S
C361 C362 1.405 . S
C362 H328 0.932 . S
C362 C361 1.405 . S
C362 C363 1.383 . S
C363 C362 1.383 . S
C363 C364 1.393 . S
C364 H329 0.931 . S
C364 C363 1.393 . S
C364 C365 1.382 . S
C365 H330 0.929 . S
C365 C360 1.371 . S
C365 C364 1.382 . S
C366 N334 1.423 . S
C366 C367 1.362 . S
C366 C371 1.388 . S
C367 H331 0.929 . S
C367 C366 1.362 . S
C367 C368 1.376 . S
C368 H332 0.931 . S
C368 C367 1.376 . S
C368 C369 1.396 . S
C369 C351 1.472 . S
C369 C368 1.396 . S
C369 C370 1.348 . S
C370 H333 0.929 . S
C370 C369 1.348 . S
C370 C371 1.443 . S
C371 H335 0.932 . S
C371 C366 1.388 . S
C371 C370 1.443 . S
In372 O373 2.294 . S
In372 O374 2.326 . S
In372 O378 2.266 . S
In372 O379 2.326 . S
In372 O380 2.266 . S
In372 O381 2.326 . S
In372 O383 2.294 . S
In372 O384 2.326 . S
O373 In372 2.294 . S
O373 C382 1.240 . S
O374 In372 2.326 . S
O374 C382 1.252 . S
C375 O378 1.252 . S
C375 O379 1.260 . S
C376 O383 1.240 . S
C376 O384 1.252 . S
C377 O380 1.252 . S
C377 O381 1.260 . S
O378 In372 2.266 . S
O378 C375 1.252 . S
O379 In372 2.326 . S
O379 C375 1.260 . S
O380 In372 2.266 . S
O380 C377 1.252 . S
O381 In372 2.326 . S
O381 C377 1.260 . S
C382 O373 1.240 . S
C382 O374 1.252 . S
O383 In372 2.294 . S
O383 C376 1.240 . S
O384 In372 2.326 . S
O384 C376 1.252 . S
In385 O386 2.294 . S
In385 O387 2.326 . S
In385 O391 2.266 . S
In385 O392 2.326 . S
In385 O393 2.266 . S
In385 O394 2.326 . S
In385 O396 2.294 . S
In385 O397 2.326 . S
O386 In385 2.294 . S
O386 C395 1.240 . S
O387 In385 2.326 . S
O387 C395 1.252 . S
C388 O391 1.252 . S
C388 O392 1.260 . S
C389 O396 1.240 . S
C389 O397 1.252 . S
C390 O393 1.252 . S
C390 O394 1.260 . S
O391 In385 2.266 . S
O391 C388 1.252 . S
O392 In385 2.326 . S
O392 C388 1.260 . S
O393 In385 2.266 . S
O393 C390 1.252 . S
O394 In385 2.326 . S
O394 C390 1.260 . S
C395 O386 1.240 . S
C395 O387 1.252 . S
O396 In385 2.294 . S
O396 C389 1.240 . S
O397 In385 2.326 . S
O397 C389 1.252 . S
In398 O399 2.294 . S
In398 O400 2.326 . S
In398 O404 2.266 . S
In398 O405 2.326 . S
In398 O406 2.266 . S
In398 O407 2.326 . S
In398 O409 2.294 . S
In398 O410 2.326 . S
O399 In398 2.294 . S
O399 C408 1.240 . S
O400 In398 2.326 . S
O400 C408 1.252 . S
C401 O404 1.252 . S
C401 O405 1.260 . S
C402 O409 1.240 . S
C402 O410 1.252 . S
C403 O406 1.252 . S
C403 O407 1.260 . S
O404 In398 2.266 . S
O404 C401 1.252 . S
O405 In398 2.326 . S
O405 C401 1.260 . S
O406 In398 2.266 . S
O406 C403 1.252 . S
O407 In398 2.326 . S
O407 C403 1.260 . S
C408 O399 1.240 . S
C408 O400 1.252 . S
O409 In398 2.294 . S
O409 C402 1.240 . S
O410 In398 2.326 . S
O410 C402 1.252 . S
In411 O412 2.294 . S
In411 O413 2.326 . S
In411 O417 2.266 . S
In411 O418 2.326 . S
In411 O419 2.266 . S
In411 O420 2.326 . S
In411 O422 2.294 . S
In411 O423 2.326 . S
O412 In411 2.294 . S
O412 C421 1.240 . S
O413 In411 2.326 . S
O413 C421 1.252 . S
C414 O417 1.252 . S
C414 O418 1.260 . S
C415 O422 1.240 . S
C415 O423 1.252 . S
C416 O419 1.252 . S
C416 O420 1.260 . S
O417 In411 2.266 . S
O417 C414 1.252 . S
O418 In411 2.326 . S
O418 C414 1.260 . S
O419 In411 2.266 . S
O419 C416 1.252 . S
O420 In411 2.326 . S
O420 C416 1.260 . S
C421 O412 1.240 . S
C421 O413 1.252 . S
O422 In411 2.294 . S
O422 C415 1.240 . S
O423 In411 2.326 . S
O423 C415 1.252 . S
In424 O425 2.294 . S
In424 O426 2.326 . S
In424 O430 2.266 . S
In424 O431 2.326 . S
In424 O432 2.266 . S
In424 O433 2.326 . S
In424 O435 2.294 . S
In424 O436 2.326 . S
O425 In424 2.294 . S
O425 C434 1.240 . S
O426 In424 2.326 . S
O426 C434 1.252 . S
C427 O430 1.252 . S
C427 O431 1.260 . S
C428 O435 1.240 . S
C428 O436 1.252 . S
C429 O432 1.252 . S
C429 O433 1.260 . S
O430 In424 2.266 . S
O430 C427 1.252 . S
O431 In424 2.326 . S
O431 C427 1.260 . S
O432 In424 2.266 . S
O432 C429 1.252 . S
O433 In424 2.326 . S
O433 C429 1.260 . S
C434 O425 1.240 . S
C434 O426 1.252 . S
O435 In424 2.294 . S
O435 C428 1.240 . S
O436 In424 2.326 . S
O436 C428 1.252 . S
In437 O438 2.294 . S
In437 O439 2.326 . S
In437 O443 2.266 . S
In437 O444 2.326 . S
In437 O445 2.266 . S
In437 O446 2.326 . S
In437 O448 2.294 . S
In437 O449 2.326 . S
O438 In437 2.294 . S
O438 C447 1.240 . S
O439 In437 2.326 . S
O439 C447 1.252 . S
C440 O443 1.252 . S
C440 O444 1.260 . S
C441 O448 1.240 . S
C441 O449 1.252 . S
C442 O445 1.252 . S
C442 O446 1.260 . S
O443 In437 2.266 . S
O443 C440 1.252 . S
O444 In437 2.326 . S
O444 C440 1.260 . S
O445 In437 2.266 . S
O445 C442 1.252 . S
O446 In437 2.326 . S
O446 C442 1.260 . S
C447 O438 1.240 . S
C447 O439 1.252 . S
O448 In437 2.294 . S
O448 C441 1.240 . S
O449 In437 2.326 . S
O449 C441 1.252 . S
H450 C458 0.929 . S
H451 C460 0.930 . S
H452 C462 0.930 . S
H453 C465 0.929 . S
H454 C468 0.930 . S
H455 C470 0.960 . S
H456 C470 0.960 . S
H457 C470 0.960 . S
C458 H450 0.929 . S
C458 C459 1.377 . S
C458 C460 1.384 . S
C459 C458 1.377 . S
C459 C465 1.390 . S
C460 H451 0.930 . S
C460 C458 1.384 . S
C460 C461 1.372 . S
C461 C460 1.372 . S
C461 C462 1.400 . S
C461 C466 1.490 . S
C462 H452 0.930 . S
C462 C461 1.400 . S
C462 C465 1.386 . S
H463 C479 0.930 . S
H464 C480 0.931 . S
C465 H453 0.929 . S
C465 C459 1.390 . S
C465 C462 1.386 . S
C466 C461 1.490 . S
C466 C468 1.395 . S
C466 C469 1.403 . S
H467 C473 0.930 . S
C468 H454 0.930 . S
C468 C466 1.395 . S
C468 C471 1.403 . S
C469 C466 1.403 . S
C469 C470 1.524 . S
C469 C473 1.400 . S
C470 H455 0.960 . S
C470 H456 0.960 . S
C470 H457 0.960 . S
C470 C469 1.524 . S
C471 C468 1.403 . S
C471 C472 1.392 . S
C471 C475 1.495 . S
C472 C471 1.392 . S
C472 C473 1.385 . S
C472 C474 1.478 . S
C473 H467 0.930 . S
C473 C469 1.400 . S
C473 C472 1.385 . S
C474 C472 1.478 . S
C474 C476 1.381 . S
C474 C480 1.383 . S
C475 C471 1.495 . S
C475 H481 0.959 . S
C475 H482 0.961 . S
C475 H483 0.960 . S
C476 C474 1.381 . S
C476 C477 1.394 . S
C476 H484 0.930 . S
C477 C476 1.394 . S
C477 C478 1.383 . S
C477 H485 0.929 . S
C478 C477 1.383 . S
C478 C479 1.377 . S
C479 H463 0.930 . S
C479 C478 1.377 . S
C479 C480 1.379 . S
C480 H464 0.931 . S
C480 C474 1.383 . S
C480 C479 1.379 . S
H481 C475 0.959 . S
H482 C475 0.961 . S
H483 C475 0.960 . S
H484 C476 0.930 . S
H485 C477 0.929 . S
H486 C494 0.929 . S
H487 C496 0.930 . S
H488 C498 0.930 . S
H489 C501 0.929 . S
H490 C504 0.930 . S
H491 C506 0.960 . S
H492 C506 0.960 . S
H493 C506 0.960 . S
C494 H486 0.929 . S
C494 C495 1.377 . S
C494 C496 1.384 . S
C495 C494 1.377 . S
C495 C501 1.390 . S
C496 H487 0.930 . S
C496 C494 1.384 . S
C496 C497 1.372 . S
C497 C496 1.372 . S
C497 C498 1.400 . S
C497 C502 1.490 . S
C498 H488 0.930 . S
C498 C497 1.400 . S
C498 C501 1.386 . S
H499 C515 0.930 . S
H500 C516 0.931 . S
C501 H489 0.929 . S
C501 C495 1.390 . S
C501 C498 1.386 . S
C502 C497 1.490 . S
C502 C504 1.395 . S
C502 C505 1.403 . S
H503 C509 0.930 . S
C504 H490 0.930 . S
C504 C502 1.395 . S
C504 C507 1.403 . S
C505 C502 1.403 . S
C505 C506 1.524 . S
C505 C509 1.400 . S
C506 H491 0.960 . S
C506 H492 0.960 . S
C506 H493 0.960 . S
C506 C505 1.524 . S
C507 C504 1.403 . S
C507 C508 1.392 . S
C507 C511 1.495 . S
C508 C507 1.392 . S
C508 C509 1.385 . S
C508 C510 1.478 . S
C509 H503 0.930 . S
C509 C505 1.400 . S
C509 C508 1.385 . S
C510 C508 1.478 . S
C510 C512 1.381 . S
C510 C516 1.383 . S
C511 C507 1.495 . S
C511 H517 0.959 . S
C511 H518 0.961 . S
C511 H519 0.960 . S
C512 C510 1.381 . S
C512 C513 1.394 . S
C512 H520 0.930 . S
C513 C512 1.394 . S
C513 C514 1.383 . S
C513 H521 0.929 . S
C514 C513 1.383 . S
C514 C515 1.377 . S
C515 H499 0.930 . S
C515 C514 1.377 . S
C515 C516 1.379 . S
C516 H500 0.931 . S
C516 C510 1.383 . S
C516 C515 1.379 . S
H517 C511 0.959 . S
H518 C511 0.961 . S
H519 C511 0.960 . S
H520 C512 0.930 . S
H521 C513 0.929 . S
H522 C530 0.929 . S
H523 C532 0.930 . S
H524 C534 0.930 . S
H525 C537 0.929 . S
H526 C540 0.930 . S
H527 C542 0.960 . S
H528 C542 0.960 . S
H529 C542 0.960 . S
C530 H522 0.929 . S
C530 C531 1.377 . S
C530 C532 1.384 . S
C531 C530 1.377 . S
C531 C537 1.390 . S
C532 H523 0.930 . S
C532 C530 1.384 . S
C532 C533 1.372 . S
C533 C532 1.372 . S
C533 C534 1.400 . S
C533 C538 1.490 . S
C534 H524 0.930 . S
C534 C533 1.400 . S
C534 C537 1.386 . S
H535 C551 0.930 . S
H536 C552 0.931 . S
C537 H525 0.929 . S
C537 C531 1.390 . S
C537 C534 1.386 . S
C538 C533 1.490 . S
C538 C540 1.395 . S
C538 C541 1.403 . S
H539 C545 0.930 . S
C540 H526 0.930 . S
C540 C538 1.395 . S
C540 C543 1.403 . S
C541 C538 1.403 . S
C541 C542 1.524 . S
C541 C545 1.400 . S
C542 H527 0.960 . S
C542 H528 0.960 . S
C542 H529 0.960 . S
C542 C541 1.524 . S
C543 C540 1.403 . S
C543 C544 1.392 . S
C543 C547 1.495 . S
C544 C543 1.392 . S
C544 C545 1.385 . S
C544 C546 1.478 . S
C545 H539 0.930 . S
C545 C541 1.400 . S
C545 C544 1.385 . S
C546 C544 1.478 . S
C546 C548 1.381 . S
C546 C552 1.383 . S
C547 C543 1.495 . S
C547 H553 0.959 . S
C547 H554 0.961 . S
C547 H555 0.960 . S
C548 C546 1.381 . S
C548 C549 1.394 . S
C548 H556 0.930 . S
C549 C548 1.394 . S
C549 C550 1.383 . S
C549 H557 0.929 . S
C550 C549 1.383 . S
C550 C551 1.377 . S
C551 H535 0.930 . S
C551 C550 1.377 . S
C551 C552 1.379 . S
C552 H536 0.931 . S
C552 C546 1.383 . S
C552 C551 1.379 . S
H553 C547 0.959 . S
H554 C547 0.961 . S
H555 C547 0.960 . S
H556 C548 0.930 . S
H557 C549 0.929 . S
H558 C566 0.929 . S
H559 C568 0.930 . S
H560 C570 0.930 . S
H561 C573 0.929 . S
H562 C576 0.930 . S
H563 C578 0.960 . S
H564 C578 0.960 . S
H565 C578 0.960 . S
C566 H558 0.929 . S
C566 C567 1.377 . S
C566 C568 1.384 . S
C567 C566 1.377 . S
C567 C573 1.390 . S
C568 H559 0.930 . S
C568 C566 1.384 . S
C568 C569 1.372 . S
C569 C568 1.372 . S
C569 C570 1.400 . S
C569 C574 1.490 . S
C570 H560 0.930 . S
C570 C569 1.400 . S
C570 C573 1.386 . S
H571 C587 0.930 . S
H572 C588 0.931 . S
C573 H561 0.929 . S
C573 C567 1.390 . S
C573 C570 1.386 . S
C574 C569 1.490 . S
C574 C576 1.395 . S
C574 C577 1.403 . S
H575 C581 0.930 . S
C576 H562 0.930 . S
C576 C574 1.395 . S
C576 C579 1.403 . S
C577 C574 1.403 . S
C577 C578 1.524 . S
C577 C581 1.400 . S
C578 H563 0.960 . S
C578 H564 0.960 . S
C578 H565 0.960 . S
C578 C577 1.524 . S
C579 C576 1.403 . S
C579 C580 1.392 . S
C579 C583 1.495 . S
C580 C579 1.392 . S
C580 C581 1.385 . S
C580 C582 1.478 . S
C581 H575 0.930 . S
C581 C577 1.400 . S
C581 C580 1.385 . S
C582 C580 1.478 . S
C582 C584 1.381 . S
C582 C588 1.383 . S
C583 C579 1.495 . S
C583 H589 0.959 . S
C583 H590 0.961 . S
C583 H591 0.960 . S
C584 C582 1.381 . S
C584 C585 1.394 . S
C584 H592 0.930 . S
C585 C584 1.394 . S
C585 C586 1.383 . S
C585 H593 0.929 . S
C586 C585 1.383 . S
C586 C587 1.377 . S
C587 H571 0.930 . S
C587 C586 1.377 . S
C587 C588 1.379 . S
C588 H572 0.931 . S
C588 C582 1.383 . S
C588 C587 1.379 . S
H589 C583 0.959 . S
H590 C583 0.961 . S
H591 C583 0.960 . S
H592 C584 0.930 . S
H593 C585 0.929 . S
H594 C602 0.929 . S
H595 C604 0.930 . S
H596 C606 0.930 . S
H597 C609 0.929 . S
H598 C612 0.930 . S
H599 C614 0.960 . S
H600 C614 0.960 . S
H601 C614 0.960 . S
C602 H594 0.929 . S
C602 C603 1.377 . S
C602 C604 1.384 . S
C603 C602 1.377 . S
C603 C609 1.390 . S
C604 H595 0.930 . S
C604 C602 1.384 . S
C604 C605 1.372 . S
C605 C604 1.372 . S
C605 C606 1.400 . S
C605 C610 1.490 . S
C606 H596 0.930 . S
C606 C605 1.400 . S
C606 C609 1.386 . S
H607 C623 0.930 . S
H608 C624 0.931 . S
C609 H597 0.929 . S
C609 C603 1.390 . S
C609 C606 1.386 . S
C610 C605 1.490 . S
C610 C612 1.395 . S
C610 C613 1.403 . S
H611 C617 0.930 . S
C612 H598 0.930 . S
C612 C610 1.395 . S
C612 C615 1.403 . S
C613 C610 1.403 . S
C613 C614 1.524 . S
C613 C617 1.400 . S
C614 H599 0.960 . S
C614 H600 0.960 . S
C614 H601 0.960 . S
C614 C613 1.524 . S
C615 C612 1.403 . S
C615 C616 1.392 . S
C615 C619 1.495 . S
C616 C615 1.392 . S
C616 C617 1.385 . S
C616 C618 1.478 . S
C617 H611 0.930 . S
C617 C613 1.400 . S
C617 C616 1.385 . S
C618 C616 1.478 . S
C618 C620 1.381 . S
C618 C624 1.383 . S
C619 C615 1.495 . S
C619 H625 0.959 . S
C619 H626 0.961 . S
C619 H627 0.960 . S
C620 C618 1.381 . S
C620 C621 1.394 . S
C620 H628 0.930 . S
C621 C620 1.394 . S
C621 C622 1.383 . S
C621 H629 0.929 . S
C622 C621 1.383 . S
C622 C623 1.377 . S
C623 H607 0.930 . S
C623 C622 1.377 . S
C623 C624 1.379 . S
C624 H608 0.931 . S
C624 C618 1.383 . S
C624 C623 1.379 . S
H625 C619 0.959 . S
H626 C619 0.961 . S
H627 C619 0.960 . S
H628 C620 0.930 . S
H629 C621 0.929 . S
H630 C638 0.929 . S
H631 C640 0.930 . S
H632 C642 0.930 . S
H633 C645 0.929 . S
H634 C648 0.930 . S
H635 C650 0.960 . S
H636 C650 0.960 . S
H637 C650 0.960 . S
C638 H630 0.929 . S
C638 C639 1.377 . S
C638 C640 1.384 . S
C639 C638 1.377 . S
C639 C645 1.390 . S
C640 H631 0.930 . S
C640 C638 1.384 . S
C640 C641 1.372 . S
C641 C640 1.372 . S
C641 C642 1.400 . S
C641 C646 1.490 . S
C642 H632 0.930 . S
C642 C641 1.400 . S
C642 C645 1.386 . S
H643 C659 0.930 . S
H644 C660 0.931 . S
C645 H633 0.929 . S
C645 C639 1.390 . S
C645 C642 1.386 . S
C646 C641 1.490 . S
C646 C648 1.395 . S
C646 C649 1.403 . S
H647 C653 0.930 . S
C648 H634 0.930 . S
C648 C646 1.395 . S
C648 C651 1.403 . S
C649 C646 1.403 . S
C649 C650 1.524 . S
C649 C653 1.400 . S
C650 H635 0.960 . S
C650 H636 0.960 . S
C650 H637 0.960 . S
C650 C649 1.524 . S
C651 C648 1.403 . S
C651 C652 1.392 . S
C651 C655 1.495 . S
C652 C651 1.392 . S
C652 C653 1.385 . S
C652 C654 1.478 . S
C653 H647 0.930 . S
C653 C649 1.400 . S
C653 C652 1.385 . S
C654 C652 1.478 . S
C654 C656 1.381 . S
C654 C660 1.383 . S
C655 C651 1.495 . S
C655 H661 0.959 . S
C655 H662 0.961 . S
C655 H663 0.960 . S
C656 C654 1.381 . S
C656 C657 1.394 . S
C656 H664 0.930 . S
C657 C656 1.394 . S
C657 C658 1.383 . S
C657 H665 0.929 . S
C658 C657 1.383 . S
C658 C659 1.377 . S
C659 H643 0.930 . S
C659 C658 1.377 . S
C659 C660 1.379 . S
C660 H644 0.931 . S
C660 C654 1.383 . S
C660 C659 1.379 . S
H661 C655 0.959 . S
H662 C655 0.961 . S
H663 C655 0.960 . S
H664 C656 0.930 . S
H665 C657 0.929 . S
H666 C674 0.929 . S
H667 C676 0.930 . S
H668 C678 0.930 . S
H669 C681 0.929 . S
H670 C684 0.930 . S
H671 C686 0.960 . S
H672 C686 0.960 . S
H673 C686 0.960 . S
C674 H666 0.929 . S
C674 C675 1.377 . S
C674 C676 1.384 . S
C675 C674 1.377 . S
C675 C681 1.390 . S
C676 H667 0.930 . S
C676 C674 1.384 . S
C676 C677 1.372 . S
C677 C676 1.372 . S
C677 C678 1.400 . S
C677 C682 1.490 . S
C678 H668 0.930 . S
C678 C677 1.400 . S
C678 C681 1.386 . S
H679 C695 0.930 . S
H680 C696 0.931 . S
C681 H669 0.929 . S
C681 C675 1.390 . S
C681 C678 1.386 . S
C682 C677 1.490 . S
C682 C684 1.395 . S
C682 C685 1.403 . S
H683 C689 0.930 . S
C684 H670 0.930 . S
C684 C682 1.395 . S
C684 C687 1.403 . S
C685 C682 1.403 . S
C685 C686 1.524 . S
C685 C689 1.400 . S
C686 H671 0.960 . S
C686 H672 0.960 . S
C686 H673 0.960 . S
C686 C685 1.524 . S
C687 C684 1.403 . S
C687 C688 1.392 . S
C687 C691 1.495 . S
C688 C687 1.392 . S
C688 C689 1.385 . S
C688 C690 1.478 . S
C689 H683 0.930 . S
C689 C685 1.400 . S
C689 C688 1.385 . S
C690 C688 1.478 . S
C690 C692 1.381 . S
C690 C696 1.383 . S
C691 C687 1.495 . S
C691 H697 0.959 . S
C691 H698 0.961 . S
C691 H699 0.960 . S
C692 C690 1.381 . S
C692 C693 1.394 . S
C692 H700 0.930 . S
C693 C692 1.394 . S
C693 C694 1.383 . S
C693 H701 0.929 . S
C694 C693 1.383 . S
C694 C695 1.377 . S
C695 H679 0.930 . S
C695 C694 1.377 . S
C695 C696 1.379 . S
C696 H680 0.931 . S
C696 C690 1.383 . S
C696 C695 1.379 . S
H697 C691 0.959 . S
H698 C691 0.961 . S
H699 C691 0.960 . S
H700 C692 0.930 . S
H701 C693 0.929 . S
H702 C710 0.929 . S
H703 C712 0.930 . S
H704 C714 0.930 . S
H705 C717 0.929 . S
H706 C720 0.930 . S
H707 C722 0.960 . S
H708 C722 0.960 . S
H709 C722 0.960 . S
C710 H702 0.929 . S
C710 C711 1.377 . S
C710 C712 1.384 . S
C711 C710 1.377 . S
C711 C717 1.390 . S
C712 H703 0.930 . S
C712 C710 1.384 . S
C712 C713 1.372 . S
C713 C712 1.372 . S
C713 C714 1.400 . S
C713 C718 1.490 . S
C714 H704 0.930 . S
C714 C713 1.400 . S
C714 C717 1.386 . S
H715 C731 0.930 . S
H716 C732 0.931 . S
C717 H705 0.929 . S
C717 C711 1.390 . S
C717 C714 1.386 . S
C718 C713 1.490 . S
C718 C720 1.395 . S
C718 C721 1.403 . S
H719 C725 0.930 . S
C720 H706 0.930 . S
C720 C718 1.395 . S
C720 C723 1.403 . S
C721 C718 1.403 . S
C721 C722 1.524 . S
C721 C725 1.400 . S
C722 H707 0.960 . S
C722 H708 0.960 . S
C722 H709 0.960 . S
C722 C721 1.524 . S
C723 C720 1.403 . S
C723 C724 1.392 . S
C723 C727 1.495 . S
C724 C723 1.392 . S
C724 C725 1.385 . S
C724 C726 1.478 . S
C725 H719 0.930 . S
C725 C721 1.400 . S
C725 C724 1.385 . S
C726 C724 1.478 . S
C726 C728 1.381 . S
C726 C732 1.383 . S
C727 C723 1.495 . S
C727 H733 0.959 . S
C727 H734 0.961 . S
C727 H735 0.960 . S
C728 C726 1.381 . S
C728 C729 1.394 . S
C728 H736 0.930 . S
C729 C728 1.394 . S
C729 C730 1.383 . S
C729 H737 0.929 . S
C730 C729 1.383 . S
C730 C731 1.377 . S
C731 H715 0.930 . S
C731 C730 1.377 . S
C731 C732 1.379 . S
C732 H716 0.931 . S
C732 C726 1.383 . S
C732 C731 1.379 . S
H733 C727 0.959 . S
H734 C727 0.961 . S
H735 C727 0.960 . S
H736 C728 0.930 . S
H737 C729 0.929 . S
H738 C746 0.929 . S
H739 C748 0.930 . S
H740 C750 0.930 . S
H741 C753 0.929 . S
H742 C756 0.930 . S
H743 C758 0.960 . S
H744 C758 0.960 . S
H745 C758 0.960 . S
C746 H738 0.929 . S
C746 C747 1.377 . S
C746 C748 1.384 . S
C747 C746 1.377 . S
C747 C753 1.390 . S
C748 H739 0.930 . S
C748 C746 1.384 . S
C748 C749 1.372 . S
C749 C748 1.372 . S
C749 C750 1.400 . S
C749 C754 1.490 . S
C750 H740 0.930 . S
C750 C749 1.400 . S
C750 C753 1.386 . S
H751 C767 0.930 . S
H752 C768 0.931 . S
C753 H741 0.929 . S
C753 C747 1.390 . S
C753 C750 1.386 . S
C754 C749 1.490 . S
C754 C756 1.395 . S
C754 C757 1.403 . S
H755 C761 0.930 . S
C756 H742 0.930 . S
C756 C754 1.395 . S
C756 C759 1.403 . S
C757 C754 1.403 . S
C757 C758 1.524 . S
C757 C761 1.400 . S
C758 H743 0.960 . S
C758 H744 0.960 . S
C758 H745 0.960 . S
C758 C757 1.524 . S
C759 C756 1.403 . S
C759 C760 1.392 . S
C759 C763 1.495 . S
C760 C759 1.392 . S
C760 C761 1.385 . S
C760 C762 1.478 . S
C761 H755 0.930 . S
C761 C757 1.400 . S
C761 C760 1.385 . S
C762 C760 1.478 . S
C762 C764 1.381 . S
C762 C768 1.383 . S
C763 C759 1.495 . S
C763 H769 0.959 . S
C763 H770 0.961 . S
C763 H771 0.960 . S
C764 C762 1.381 . S
C764 C765 1.394 . S
C764 H772 0.930 . S
C765 C764 1.394 . S
C765 C766 1.383 . S
C765 H773 0.929 . S
C766 C765 1.383 . S
C766 C767 1.377 . S
C767 H751 0.930 . S
C767 C766 1.377 . S
C767 C768 1.379 . S
C768 H752 0.931 . S
C768 C762 1.383 . S
C768 C767 1.379 . S
H769 C763 0.959 . S
H770 C763 0.961 . S
H771 C763 0.960 . S
H772 C764 0.930 . S
H773 C765 0.929 . S
H774 C782 0.929 . S
H775 C784 0.930 . S
H776 C786 0.930 . S
H777 C789 0.929 . S
H778 C792 0.930 . S
H779 C794 0.960 . S
H780 C794 0.960 . S
H781 C794 0.960 . S
C782 H774 0.929 . S
C782 C783 1.377 . S
C782 C784 1.384 . S
C783 C782 1.377 . S
C783 C789 1.390 . S
C784 H775 0.930 . S
C784 C782 1.384 . S
C784 C785 1.372 . S
C785 C784 1.372 . S
C785 C786 1.400 . S
C785 C790 1.490 . S
C786 H776 0.930 . S
C786 C785 1.400 . S
C786 C789 1.386 . S
H787 C803 0.930 . S
H788 C804 0.931 . S
C789 H777 0.929 . S
C789 C783 1.390 . S
C789 C786 1.386 . S
C790 C785 1.490 . S
C790 C792 1.395 . S
C790 C793 1.403 . S
H791 C797 0.930 . S
C792 H778 0.930 . S
C792 C790 1.395 . S
C792 C795 1.403 . S
C793 C790 1.403 . S
C793 C794 1.524 . S
C793 C797 1.400 . S
C794 H779 0.960 . S
C794 H780 0.960 . S
C794 H781 0.960 . S
C794 C793 1.524 . S
C795 C792 1.403 . S
C795 C796 1.392 . S
C795 C799 1.495 . S
C796 C795 1.392 . S
C796 C797 1.385 . S
C796 C798 1.478 . S
C797 H791 0.930 . S
C797 C793 1.400 . S
C797 C796 1.385 . S
C798 C796 1.478 . S
C798 C800 1.381 . S
C798 C804 1.383 . S
C799 C795 1.495 . S
C799 H805 0.959 . S
C799 H806 0.961 . S
C799 H807 0.960 . S
C800 C798 1.381 . S
C800 C801 1.394 . S
C800 H808 0.930 . S
C801 C800 1.394 . S
C801 C802 1.383 . S
C801 H809 0.929 . S
C802 C801 1.383 . S
C802 C803 1.377 . S
C803 H787 0.930 . S
C803 C802 1.377 . S
C803 C804 1.379 . S
C804 H788 0.931 . S
C804 C798 1.383 . S
C804 C803 1.379 . S
H805 C799 0.959 . S
H806 C799 0.961 . S
H807 C799 0.960 . S
H808 C800 0.930 . S
H809 C801 0.929 . S
H810 C818 0.929 . S
H811 C820 0.930 . S
H812 C822 0.930 . S
H813 C825 0.929 . S
H814 C828 0.930 . S
H815 C830 0.960 . S
H816 C830 0.960 . S
H817 C830 0.960 . S
C818 H810 0.929 . S
C818 C819 1.377 . S
C818 C820 1.384 . S
C819 C818 1.377 . S
C819 C825 1.390 . S
C820 H811 0.930 . S
C820 C818 1.384 . S
C820 C821 1.372 . S
C821 C820 1.372 . S
C821 C822 1.400 . S
C821 C826 1.490 . S
C822 H812 0.930 . S
C822 C821 1.400 . S
C822 C825 1.386 . S
H823 C839 0.930 . S
H824 C840 0.931 . S
C825 H813 0.929 . S
C825 C819 1.390 . S
C825 C822 1.386 . S
C826 C821 1.490 . S
C826 C828 1.395 . S
C826 C829 1.403 . S
H827 C833 0.930 . S
C828 H814 0.930 . S
C828 C826 1.395 . S
C828 C831 1.403 . S
C829 C826 1.403 . S
C829 C830 1.524 . S
C829 C833 1.400 . S
C830 H815 0.960 . S
C830 H816 0.960 . S
C830 H817 0.960 . S
C830 C829 1.524 . S
C831 C828 1.403 . S
C831 C832 1.392 . S
C831 C835 1.495 . S
C832 C831 1.392 . S
C832 C833 1.385 . S
C832 C834 1.478 . S
C833 H827 0.930 . S
C833 C829 1.400 . S
C833 C832 1.385 . S
C834 C832 1.478 . S
C834 C836 1.381 . S
C834 C840 1.383 . S
C835 C831 1.495 . S
C835 H841 0.959 . S
C835 H842 0.961 . S
C835 H843 0.960 . S
C836 C834 1.381 . S
C836 C837 1.394 . S
C836 H844 0.930 . S
C837 C836 1.394 . S
C837 C838 1.383 . S
C837 H845 0.929 . S
C838 C837 1.383 . S
C838 C839 1.377 . S
C839 H823 0.930 . S
C839 C838 1.377 . S
C839 C840 1.379 . S
C840 H824 0.931 . S
C840 C834 1.383 . S
C840 C839 1.379 . S
H841 C835 0.959 . S
H842 C835 0.961 . S
H843 C835 0.960 . S
H844 C836 0.930 . S
H845 C837 0.929 . S
H846 C854 0.929 . S
H847 C856 0.930 . S
H848 C858 0.930 . S
H849 C861 0.929 . S
H850 C864 0.930 . S
H851 C866 0.960 . S
H852 C866 0.960 . S
H853 C866 0.960 . S
C854 H846 0.929 . S
C854 C855 1.377 . S
C854 C856 1.384 . S
C855 C854 1.377 . S
C855 C861 1.390 . S
C856 H847 0.930 . S
C856 C854 1.384 . S
C856 C857 1.372 . S
C857 C856 1.372 . S
C857 C858 1.400 . S
C857 C862 1.490 . S
C858 H848 0.930 . S
C858 C857 1.400 . S
C858 C861 1.386 . S
H859 C875 0.930 . S
H860 C876 0.931 . S
C861 H849 0.929 . S
C861 C855 1.390 . S
C861 C858 1.386 . S
C862 C857 1.490 . S
C862 C864 1.395 . S
C862 C865 1.403 . S
H863 C869 0.930 . S
C864 H850 0.930 . S
C864 C862 1.395 . S
C864 C867 1.403 . S
C865 C862 1.403 . S
C865 C866 1.524 . S
C865 C869 1.400 . S
C866 H851 0.960 . S
C866 H852 0.960 . S
C866 H853 0.960 . S
C866 C865 1.524 . S
C867 C864 1.403 . S
C867 C868 1.392 . S
C867 C871 1.495 . S
C868 C867 1.392 . S
C868 C869 1.385 . S
C868 C870 1.478 . S
C869 H863 0.930 . S
C869 C865 1.400 . S
C869 C868 1.385 . S
C870 C868 1.478 . S
C870 C872 1.381 . S
C870 C876 1.383 . S
C871 C867 1.495 . S
C871 H877 0.959 . S
C871 H878 0.961 . S
C871 H879 0.960 . S
C872 C870 1.381 . S
C872 C873 1.394 . S
C872 H880 0.930 . S
C873 C872 1.394 . S
C873 C874 1.383 . S
C873 H881 0.929 . S
C874 C873 1.383 . S
C874 C875 1.377 . S
C875 H859 0.930 . S
C875 C874 1.377 . S
C875 C876 1.379 . S
C876 H860 0.931 . S
C876 C870 1.383 . S
C876 C875 1.379 . S
H877 C871 0.959 . S
H878 C871 0.961 . S
H879 C871 0.960 . S
H880 C872 0.930 . S
H881 C873 0.929 . S
H882 C890 0.929 . S
H883 C892 0.930 . S
H884 C894 0.930 . S
H885 C897 0.929 . S
H886 C900 0.930 . S
H887 C902 0.960 . S
H888 C902 0.960 . S
H889 C902 0.960 . S
C890 H882 0.929 . S
C890 C891 1.377 . S
C890 C892 1.384 . S
C891 C890 1.377 . S
C891 C897 1.390 . S
C892 H883 0.930 . S
C892 C890 1.384 . S
C892 C893 1.372 . S
C893 C892 1.372 . S
C893 C894 1.400 . S
C893 C898 1.490 . S
C894 H884 0.930 . S
C894 C893 1.400 . S
C894 C897 1.386 . S
H895 C911 0.930 . S
H896 C912 0.931 . S
C897 H885 0.929 . S
C897 C891 1.390 . S
C897 C894 1.386 . S
C898 C893 1.490 . S
C898 C900 1.395 . S
C898 C901 1.403 . S
H899 C905 0.930 . S
C900 H886 0.930 . S
C900 C898 1.395 . S
C900 C903 1.403 . S
C901 C898 1.403 . S
C901 C902 1.524 . S
C901 C905 1.400 . S
C902 H887 0.960 . S
C902 H888 0.960 . S
C902 H889 0.960 . S
C902 C901 1.524 . S
C903 C900 1.403 . S
C903 C904 1.392 . S
C903 C907 1.495 . S
C904 C903 1.392 . S
C904 C905 1.385 . S
C904 C906 1.478 . S
C905 H899 0.930 . S
C905 C901 1.400 . S
C905 C904 1.385 . S
C906 C904 1.478 . S
C906 C908 1.381 . S
C906 C912 1.383 . S
C907 C903 1.495 . S
C907 H913 0.959 . S
C907 H914 0.961 . S
C907 H915 0.960 . S
C908 C906 1.381 . S
C908 C909 1.394 . S
C908 H916 0.930 . S
C909 C908 1.394 . S
C909 C910 1.383 . S
C909 H917 0.929 . S
C910 C909 1.383 . S
C910 C911 1.377 . S
C911 H895 0.930 . S
C911 C910 1.377 . S
C911 C912 1.379 . S
C912 H896 0.931 . S
C912 C906 1.383 . S
C912 C911 1.379 . S
H913 C907 0.959 . S
H914 C907 0.961 . S
H915 C907 0.960 . S
H916 C908 0.930 . S
H917 C909 0.929 . S
H918 C926 0.929 . S
H919 C928 0.930 . S
H920 C930 0.930 . S
H921 C933 0.929 . S
H922 C936 0.930 . S
H923 C938 0.960 . S
H924 C938 0.960 . S
H925 C938 0.960 . S
C926 H918 0.929 . S
C926 C927 1.377 . S
C926 C928 1.384 . S
C927 C926 1.377 . S
C927 C933 1.390 . S
C928 H919 0.930 . S
C928 C926 1.384 . S
C928 C929 1.372 . S
C929 C928 1.372 . S
C929 C930 1.400 . S
C929 C934 1.490 . S
C930 H920 0.930 . S
C930 C929 1.400 . S
C930 C933 1.386 . S
H931 C947 0.930 . S
H932 C948 0.931 . S
C933 H921 0.929 . S
C933 C927 1.390 . S
C933 C930 1.386 . S
C934 C929 1.490 . S
C934 C936 1.395 . S
C934 C937 1.403 . S
H935 C941 0.930 . S
C936 H922 0.930 . S
C936 C934 1.395 . S
C936 C939 1.403 . S
C937 C934 1.403 . S
C937 C938 1.524 . S
C937 C941 1.400 . S
C938 H923 0.960 . S
C938 H924 0.960 . S
C938 H925 0.960 . S
C938 C937 1.524 . S
C939 C936 1.403 . S
C939 C940 1.392 . S
C939 C943 1.495 . S
C940 C939 1.392 . S
C940 C941 1.385 . S
C940 C942 1.478 . S
C941 H935 0.930 . S
C941 C937 1.400 . S
C941 C940 1.385 . S
C942 C940 1.478 . S
C942 C944 1.381 . S
C942 C948 1.383 . S
C943 C939 1.495 . S
C943 H949 0.959 . S
C943 H950 0.961 . S
C943 H951 0.960 . S
C944 C942 1.381 . S
C944 C945 1.394 . S
C944 H952 0.930 . S
C945 C944 1.394 . S
C945 C946 1.383 . S
C945 H953 0.929 . S
C946 C945 1.383 . S
C946 C947 1.377 . S
C947 H931 0.930 . S
C947 C946 1.377 . S
C947 C948 1.379 . S
C948 H932 0.931 . S
C948 C942 1.383 . S
C948 C947 1.379 . S
H949 C943 0.959 . S
H950 C943 0.961 . S
H951 C943 0.960 . S
H952 C944 0.930 . S
H953 C945 0.929 . S
H954 C962 0.929 . S
H955 C964 0.930 . S
H956 C966 0.930 . S
H957 C969 0.929 . S
H958 C972 0.930 . S
H959 C974 0.960 . S
H960 C974 0.960 . S
H961 C974 0.960 . S
C962 H954 0.929 . S
C962 C963 1.377 . S
C962 C964 1.384 . S
C963 C962 1.377 . S
C963 C969 1.390 . S
C964 H955 0.930 . S
C964 C962 1.384 . S
C964 C965 1.372 . S
C965 C964 1.372 . S
C965 C966 1.400 . S
C965 C970 1.490 . S
C966 H956 0.930 . S
C966 C965 1.400 . S
C966 C969 1.386 . S
H967 C983 0.930 . S
H968 C984 0.931 . S
C969 H957 0.929 . S
C969 C963 1.390 . S
C969 C966 1.386 . S
C970 C965 1.490 . S
C970 C972 1.395 . S
C970 C973 1.403 . S
H971 C977 0.930 . S
C972 H958 0.930 . S
C972 C970 1.395 . S
C972 C975 1.403 . S
C973 C970 1.403 . S
C973 C974 1.524 . S
C973 C977 1.400 . S
C974 H959 0.960 . S
C974 H960 0.960 . S
C974 H961 0.960 . S
C974 C973 1.524 . S
C975 C972 1.403 . S
C975 C976 1.392 . S
C975 C979 1.495 . S
C976 C975 1.392 . S
C976 C977 1.385 . S
C976 C978 1.478 . S
C977 H971 0.930 . S
C977 C973 1.400 . S
C977 C976 1.385 . S
C978 C976 1.478 . S
C978 C980 1.381 . S
C978 C984 1.383 . S
C979 C975 1.495 . S
C979 H985 0.959 . S
C979 H986 0.961 . S
C979 H987 0.960 . S
C980 C978 1.381 . S
C980 C981 1.394 . S
C980 H988 0.930 . S
C981 C980 1.394 . S
C981 C982 1.383 . S
C981 H989 0.929 . S
C982 C981 1.383 . S
C982 C983 1.377 . S
C983 H967 0.930 . S
C983 C982 1.377 . S
C983 C984 1.379 . S
C984 H968 0.931 . S
C984 C978 1.383 . S
C984 C983 1.379 . S
H985 C979 0.959 . S
H986 C979 0.961 . S
H987 C979 0.960 . S
H988 C980 0.930 . S
H989 C981 0.929 . S
H990 C998 0.929 . S
H991 C1000 0.930 . S
H992 C1002 0.930 . S
H993 C1005 0.929 . S
H994 C1008 0.930 . S
H995 C1010 0.960 . S
H996 C1010 0.960 . S
H997 C1010 0.960 . S
C998 H990 0.929 . S
C998 C999 1.377 . S
C998 C1000 1.384 . S
C999 C998 1.377 . S
C999 C1005 1.390 . S
C1000 H991 0.930 . S
C1000 C998 1.384 . S
C1000 C1001 1.372 . S
C1001 C1000 1.372 . S
C1001 C1002 1.400 . S
C1001 C1006 1.490 . S
C1002 H992 0.930 . S
C1002 C1001 1.400 . S
C1002 C1005 1.386 . S
H1003 C1019 0.930 . S
H1004 C1020 0.931 1_556 S
C1005 H993 0.929 . S
C1005 C999 1.390 . S
C1005 C1002 1.386 . S
C1006 C1001 1.490 . S
C1006 C1008 1.395 . S
C1006 C1009 1.403 . S
H1007 C1013 0.930 . S
C1008 H994 0.930 . S
C1008 C1006 1.395 . S
C1008 C1011 1.403 . S
C1009 C1006 1.403 . S
C1009 C1010 1.524 . S
C1009 C1013 1.400 . S
C1010 H995 0.960 . S
C1010 H996 0.960 . S
C1010 H997 0.960 . S
C1010 C1009 1.524 . S
C1011 C1008 1.403 . S
C1011 C1012 1.392 . S
C1011 C1015 1.495 1_556 S
C1012 C1011 1.392 . S
C1012 C1013 1.385 . S
C1012 C1014 1.458 1_556 S
C1013 H1007 0.930 . S
C1013 C1009 1.400 . S
C1013 C1012 1.385 . S
C1014 C1012 1.458 1_554 S
C1014 C1016 1.396 . S
C1014 C1020 1.387 . S
C1015 C1011 1.495 1_554 S
C1015 H1021 0.959 . S
C1015 H1022 0.961 . S
C1015 H1023 0.960 . S
C1016 C1014 1.396 . S
C1016 C1017 1.394 . S
C1016 H1024 0.930 . S
C1017 C1016 1.394 . S
C1017 C1018 1.383 . S
C1017 H1025 0.929 . S
C1018 C1017 1.383 . S
C1018 C1019 1.377 . S
C1019 H1003 0.930 . S
C1019 C1018 1.377 . S
C1019 C1020 1.379 . S
C1020 H1004 0.931 1_554 S
C1020 C1014 1.387 . S
C1020 C1019 1.379 . S
H1021 C1015 0.959 . S
H1022 C1015 0.961 . S
H1023 C1015 0.960 . S
H1024 C1016 0.930 . S
H1025 C1017 0.929 . S
H1026 C1034 0.929 . S
H1027 C1036 0.930 . S
H1028 C1038 0.930 . S
H1029 C1041 0.929 . S
H1030 C1044 0.930 . S
H1031 C1046 0.960 . S
H1032 C1046 0.960 . S
H1033 C1046 0.960 . S
C1034 H1026 0.929 . S
C1034 C1035 1.377 . S
C1034 C1036 1.384 . S
C1035 C1034 1.377 . S
C1035 C1041 1.390 . S
C1036 H1027 0.930 . S
C1036 C1034 1.384 . S
C1036 C1037 1.372 . S
C1037 C1036 1.372 . S
C1037 C1038 1.400 . S
C1037 C1042 1.490 . S
C1038 H1028 0.930 . S
C1038 C1037 1.400 . S
C1038 C1041 1.386 . S
H1039 C1055 0.930 . S
H1040 C1056 0.931 . S
C1041 H1029 0.929 . S
C1041 C1035 1.390 . S
C1041 C1038 1.386 . S
C1042 C1037 1.490 . S
C1042 C1044 1.395 . S
C1042 C1045 1.403 . S
H1043 C1049 0.930 . S
C1044 H1030 0.930 . S
C1044 C1042 1.395 . S
C1044 C1047 1.403 . S
C1045 C1042 1.403 . S
C1045 C1046 1.524 . S
C1045 C1049 1.400 . S
C1046 H1031 0.960 . S
C1046 H1032 0.960 . S
C1046 H1033 0.960 . S
C1046 C1045 1.524 . S
C1047 C1044 1.403 . S
C1047 C1048 1.392 . S
C1047 C1051 1.495 . S
C1048 C1047 1.392 . S
C1048 C1049 1.385 . S
C1048 C1050 1.478 . S
C1049 H1043 0.930 . S
C1049 C1045 1.400 . S
C1049 C1048 1.385 . S
C1050 C1048 1.478 . S
C1050 C1052 1.381 . S
C1050 C1056 1.383 . S
C1051 C1047 1.495 . S
C1051 H1057 0.959 . S
C1051 H1058 0.961 . S
C1051 H1059 0.960 . S
C1052 C1050 1.381 . S
C1052 C1053 1.394 . S
C1052 H1060 0.930 . S
C1053 C1052 1.394 . S
C1053 C1054 1.383 . S
C1053 H1061 0.929 . S
C1054 C1053 1.383 . S
C1054 C1055 1.377 . S
C1055 H1039 0.930 . S
C1055 C1054 1.377 . S
C1055 C1056 1.379 . S
C1056 H1040 0.931 . S
C1056 C1050 1.383 . S
C1056 C1055 1.379 . S
H1057 C1051 0.959 . S
H1058 C1051 0.961 . S
H1059 C1051 0.960 . S
H1060 C1052 0.930 . S
H1061 C1053 0.929 . S
H1062 C1070 0.929 . S
H1063 C1072 0.930 . S
H1064 C1074 0.930 . S
H1065 C1077 0.929 . S
H1066 C1080 0.930 . S
H1067 C1082 0.960 . S
H1068 C1082 0.960 . S
H1069 C1082 0.960 . S
C1070 H1062 0.929 . S
C1070 C1071 1.377 . S
C1070 C1072 1.384 . S
C1071 C1070 1.377 . S
C1071 C1077 1.390 . S
C1072 H1063 0.930 . S
C1072 C1070 1.384 . S
C1072 C1073 1.372 . S
C1073 C1072 1.372 . S
C1073 C1074 1.400 . S
C1073 C1078 1.490 . S
C1074 H1064 0.930 . S
C1074 C1073 1.400 . S
C1074 C1077 1.386 . S
H1075 C1091 0.930 . S
H1076 C1092 0.931 . S
C1077 H1065 0.929 . S
C1077 C1071 1.390 . S
C1077 C1074 1.386 . S
C1078 C1073 1.490 . S
C1078 C1080 1.395 . S
C1078 C1081 1.403 . S
H1079 C1085 0.930 . S
C1080 H1066 0.930 . S
C1080 C1078 1.395 . S
C1080 C1083 1.403 . S
C1081 C1078 1.403 . S
C1081 C1082 1.524 . S
C1081 C1085 1.400 . S
C1082 H1067 0.960 . S
C1082 H1068 0.960 . S
C1082 H1069 0.960 . S
C1082 C1081 1.524 . S
C1083 C1080 1.403 . S
C1083 C1084 1.392 . S
C1083 C1087 1.495 . S
C1084 C1083 1.392 . S
C1084 C1085 1.385 . S
C1084 C1086 1.478 . S
C1085 H1079 0.930 . S
C1085 C1081 1.400 . S
C1085 C1084 1.385 . S
C1086 C1084 1.478 . S
C1086 C1088 1.381 . S
C1086 C1092 1.383 . S
C1087 C1083 1.495 . S
C1087 H1093 0.959 . S
C1087 H1094 0.961 . S
C1087 H1095 0.960 . S
C1088 C1086 1.381 . S
C1088 C1089 1.394 . S
C1088 H1096 0.930 . S
C1089 C1088 1.394 . S
C1089 C1090 1.383 . S
C1089 H1097 0.929 . S
C1090 C1089 1.383 . S
C1090 C1091 1.377 . S
C1091 H1075 0.930 . S
C1091 C1090 1.377 . S
C1091 C1092 1.379 . S
C1092 H1076 0.931 . S
C1092 C1086 1.383 . S
C1092 C1091 1.379 . S
H1093 C1087 0.959 . S
H1094 C1087 0.961 . S
H1095 C1087 0.960 . S
H1096 C1088 0.930 . S
H1097 C1089 0.929 . S
H1098 C1106 0.929 . S
H1099 C1108 0.930 . S
H1100 C1110 0.930 . S
H1101 C1113 0.929 . S
H1102 C1116 0.930 . S
H1103 C1118 0.960 . S
H1104 C1118 0.960 . S
H1105 C1118 0.960 . S
C1106 H1098 0.929 . S
C1106 C1107 1.377 . S
C1106 C1108 1.384 . S
C1107 C1106 1.377 . S
C1107 C1113 1.390 . S
C1108 H1099 0.930 . S
C1108 C1106 1.384 . S
C1108 C1109 1.372 . S
C1109 C1108 1.372 . S
C1109 C1110 1.400 . S
C1109 C1114 1.490 . S
C1110 H1100 0.930 . S
C1110 C1109 1.400 . S
C1110 C1113 1.386 . S
H1111 C1127 0.930 . S
H1112 C1128 0.931 . S
C1113 H1101 0.929 . S
C1113 C1107 1.390 . S
C1113 C1110 1.386 . S
C1114 C1109 1.490 . S
C1114 C1116 1.395 . S
C1114 C1117 1.403 . S
H1115 C1121 0.930 . S
C1116 H1102 0.930 . S
C1116 C1114 1.395 . S
C1116 C1119 1.403 . S
C1117 C1114 1.403 . S
C1117 C1118 1.524 . S
C1117 C1121 1.400 . S
C1118 H1103 0.960 . S
C1118 H1104 0.960 . S
C1118 H1105 0.960 . S
C1118 C1117 1.524 . S
C1119 C1116 1.403 . S
C1119 C1120 1.392 . S
C1119 C1123 1.495 . S
C1120 C1119 1.392 . S
C1120 C1121 1.385 . S
C1120 C1122 1.478 . S
C1121 H1115 0.930 . S
C1121 C1117 1.400 . S
C1121 C1120 1.385 . S
C1122 C1120 1.478 . S
C1122 C1124 1.381 . S
C1122 C1128 1.383 . S
C1123 C1119 1.495 . S
C1123 H1129 0.959 . S
C1123 H1130 0.961 . S
C1123 H1131 0.960 . S
C1124 C1122 1.381 . S
C1124 C1125 1.394 . S
C1124 H1132 0.930 . S
C1125 C1124 1.394 . S
C1125 C1126 1.383 . S
C1125 H1133 0.929 . S
C1126 C1125 1.383 . S
C1126 C1127 1.377 . S
C1127 H1111 0.930 . S
C1127 C1126 1.377 . S
C1127 C1128 1.379 . S
C1128 H1112 0.931 . S
C1128 C1122 1.383 . S
C1128 C1127 1.379 . S
H1129 C1123 0.959 . S
H1130 C1123 0.961 . S
H1131 C1123 0.960 . S
H1132 C1124 0.930 . S
H1133 C1125 0.929 . S
H1134 C1142 0.929 . S
H1135 C1144 0.930 . S
H1136 C1146 0.930 . S
H1137 C1149 0.929 . S
H1138 C1152 0.930 . S
H1139 C1154 0.960 . S
H1140 C1154 0.960 . S
H1141 C1154 0.960 . S
C1142 H1134 0.929 . S
C1142 C1143 1.377 . S
C1142 C1144 1.384 . S
C1143 C1142 1.377 . S
C1143 C1149 1.390 . S
C1144 H1135 0.930 . S
C1144 C1142 1.384 . S
C1144 C1145 1.372 . S
C1145 C1144 1.372 . S
C1145 C1146 1.400 . S
C1145 C1150 1.490 . S
C1146 H1136 0.930 . S
C1146 C1145 1.400 . S
C1146 C1149 1.386 . S
H1147 C1163 0.930 . S
H1148 C1164 0.931 . S
C1149 H1137 0.929 . S
C1149 C1143 1.390 . S
C1149 C1146 1.386 . S
C1150 C1145 1.490 . S
C1150 C1152 1.395 . S
C1150 C1153 1.403 . S
H1151 C1157 0.930 . S
C1152 H1138 0.930 . S
C1152 C1150 1.395 . S
C1152 C1155 1.403 . S
C1153 C1150 1.403 . S
C1153 C1154 1.524 . S
C1153 C1157 1.400 . S
C1154 H1139 0.960 . S
C1154 H1140 0.960 . S
C1154 H1141 0.960 . S
C1154 C1153 1.524 . S
C1155 C1152 1.403 . S
C1155 C1156 1.392 . S
C1155 C1159 1.495 . S
C1156 C1155 1.392 . S
C1156 C1157 1.385 . S
C1156 C1158 1.478 . S
C1157 H1151 0.930 . S
C1157 C1153 1.400 . S
C1157 C1156 1.385 . S
C1158 C1156 1.478 . S
C1158 C1160 1.381 . S
C1158 C1164 1.383 . S
C1159 C1155 1.495 . S
C1159 H1165 0.959 . S
C1159 H1166 0.961 . S
C1159 H1167 0.960 . S
C1160 C1158 1.381 . S
C1160 C1161 1.394 . S
C1160 H1168 0.930 . S
C1161 C1160 1.394 . S
C1161 C1162 1.383 . S
C1161 H1169 0.929 . S
C1162 C1161 1.383 . S
C1162 C1163 1.377 . S
C1163 H1147 0.930 . S
C1163 C1162 1.377 . S
C1163 C1164 1.379 . S
C1164 H1148 0.931 . S
C1164 C1158 1.383 . S
C1164 C1163 1.379 . S
H1165 C1159 0.959 . S
H1166 C1159 0.961 . S
H1167 C1159 0.960 . S
H1168 C1160 0.930 . S
H1169 C1161 0.929 . S
H1170 C1178 0.929 . S
H1171 C1180 0.930 . S
H1172 C1182 0.930 . S
H1173 C1185 0.929 . S
H1174 C1188 0.930 . S
H1175 C1190 0.960 . S
H1176 C1190 0.960 . S
H1177 C1190 0.960 . S
C1178 H1170 0.929 . S
C1178 C1179 1.377 . S
C1178 C1180 1.384 . S
C1179 C1178 1.377 . S
C1179 C1185 1.390 . S
C1180 H1171 0.930 . S
C1180 C1178 1.384 . S
C1180 C1181 1.372 . S
C1181 C1180 1.372 . S
C1181 C1182 1.400 . S
C1181 C1186 1.490 . S
C1182 H1172 0.930 . S
C1182 C1181 1.400 . S
C1182 C1185 1.386 . S
H1183 C1199 0.930 . S
H1184 C1200 0.931 . S
C1185 H1173 0.929 . S
C1185 C1179 1.390 . S
C1185 C1182 1.386 . S
C1186 C1181 1.490 . S
C1186 C1188 1.395 . S
C1186 C1189 1.403 . S
H1187 C1193 0.930 . S
C1188 H1174 0.930 . S
C1188 C1186 1.395 . S
C1188 C1191 1.403 . S
C1189 C1186 1.403 . S
C1189 C1190 1.524 . S
C1189 C1193 1.400 . S
C1190 H1175 0.960 . S
C1190 H1176 0.960 . S
C1190 H1177 0.960 . S
C1190 C1189 1.524 . S
C1191 C1188 1.403 . S
C1191 C1192 1.392 . S
C1191 C1195 1.495 . S
C1192 C1191 1.392 . S
C1192 C1193 1.385 . S
C1192 C1194 1.478 . S
C1193 H1187 0.930 . S
C1193 C1189 1.400 . S
C1193 C1192 1.385 . S
C1194 C1192 1.478 . S
C1194 C1196 1.381 . S
C1194 C1200 1.383 . S
C1195 C1191 1.495 . S
C1195 H1201 0.959 . S
C1195 H1202 0.961 . S
C1195 H1203 0.960 . S
C1196 C1194 1.381 . S
C1196 C1197 1.394 . S
C1196 H1204 0.930 . S
C1197 C1196 1.394 . S
C1197 C1198 1.383 . S
C1197 H1205 0.929 . S
C1198 C1197 1.383 . S
C1198 C1199 1.377 . S
C1199 H1183 0.930 . S
C1199 C1198 1.377 . S
C1199 C1200 1.379 . S
C1200 H1184 0.931 . S
C1200 C1194 1.383 . S
C1200 C1199 1.379 . S
H1201 C1195 0.959 . S
H1202 C1195 0.961 . S
H1203 C1195 0.960 . S
H1204 C1196 0.930 . S
H1205 C1197 0.929 . S
H1206 C1214 0.929 . S
H1207 C1216 0.930 . S
H1208 C1218 0.930 . S
H1209 C1221 0.929 . S
H1210 C1224 0.930 . S
H1211 C1226 0.960 . S
H1212 C1226 0.960 . S
H1213 C1226 0.960 . S
C1214 H1206 0.929 . S
C1214 C1215 1.377 . S
C1214 C1216 1.384 . S
C1215 C1214 1.377 . S
C1215 C1221 1.390 . S
C1216 H1207 0.930 . S
C1216 C1214 1.384 . S
C1216 C1217 1.372 . S
C1217 C1216 1.372 . S
C1217 C1218 1.400 . S
C1217 C1222 1.490 . S
C1218 H1208 0.930 . S
C1218 C1217 1.400 . S
C1218 C1221 1.386 . S
H1219 C1235 0.930 . S
H1220 C1236 0.931 . S
C1221 H1209 0.929 . S
C1221 C1215 1.390 . S
C1221 C1218 1.386 . S
C1222 C1217 1.490 . S
C1222 C1224 1.395 . S
C1222 C1225 1.403 . S
H1223 C1229 0.930 . S
C1224 H1210 0.930 . S
C1224 C1222 1.395 . S
C1224 C1227 1.403 . S
C1225 C1222 1.403 . S
C1225 C1226 1.524 . S
C1225 C1229 1.400 . S
C1226 H1211 0.960 . S
C1226 H1212 0.960 . S
C1226 H1213 0.960 . S
C1226 C1225 1.524 . S
C1227 C1224 1.403 . S
C1227 C1228 1.392 . S
C1227 C1231 1.495 . S
C1228 C1227 1.392 . S
C1228 C1229 1.385 . S
C1228 C1230 1.478 . S
C1229 H1223 0.930 . S
C1229 C1225 1.400 . S
C1229 C1228 1.385 . S
C1230 C1228 1.478 . S
C1230 C1232 1.381 . S
C1230 C1236 1.383 . S
C1231 C1227 1.495 . S
C1231 H1237 0.959 . S
C1231 H1238 0.961 . S
C1231 H1239 0.960 . S
C1232 C1230 1.381 . S
C1232 C1233 1.394 . S
C1232 H1240 0.930 . S
C1233 C1232 1.394 . S
C1233 C1234 1.383 . S
C1233 H1241 0.929 . S
C1234 C1233 1.383 . S
C1234 C1235 1.377 . S
C1235 H1219 0.930 . S
C1235 C1234 1.377 . S
C1235 C1236 1.379 . S
C1236 H1220 0.931 . S
C1236 C1230 1.383 . S
C1236 C1235 1.379 . S
H1237 C1231 0.959 . S
H1238 C1231 0.961 . S
H1239 C1231 0.960 . S
H1240 C1232 0.930 . S
H1241 C1233 0.929 . S
H1242 C1250 0.929 . S
H1243 C1252 0.930 . S
H1244 C1254 0.930 . S
H1245 C1257 0.929 . S
H1246 C1260 0.930 . S
H1247 C1262 0.960 1_556 S
H1248 C1262 0.960 . S
H1249 C1262 0.960 . S
C1250 H1242 0.929 . S
C1250 C1251 1.377 . S
C1250 C1252 1.384 . S
C1251 C1250 1.377 . S
C1251 C1257 1.390 . S
C1252 H1243 0.930 . S
C1252 C1250 1.384 . S
C1252 C1253 1.372 . S
C1253 C1252 1.372 . S
C1253 C1254 1.400 . S
C1253 C1258 1.490 . S
C1254 H1244 0.930 . S
C1254 C1253 1.400 . S
C1254 C1257 1.386 . S
H1255 C1271 0.930 . S
H1256 C1272 0.931 . S
C1257 H1245 0.929 . S
C1257 C1251 1.390 . S
C1257 C1254 1.386 . S
C1258 C1253 1.490 . S
C1258 C1260 1.395 . S
C1258 C1261 1.403 . S
H1259 C1265 0.930 . S
C1260 H1246 0.930 . S
C1260 C1258 1.395 . S
C1260 C1263 1.403 . S
C1261 C1258 1.403 . S
C1261 C1262 1.524 . S
C1261 C1265 1.400 1_554 S
C1262 H1247 0.960 1_554 S
C1262 H1248 0.960 . S
C1262 H1249 0.960 . S
C1262 C1261 1.524 . S
C1263 C1260 1.403 . S
C1263 C1264 1.392 1_554 S
C1263 C1267 1.495 . S
C1264 C1263 1.392 1_556 S
C1264 C1265 1.385 . S
C1264 C1266 1.478 . S
C1265 H1259 0.930 . S
C1265 C1261 1.400 1_556 S
C1265 C1264 1.385 . S
C1266 C1264 1.478 . S
C1266 C1268 1.381 . S
C1266 C1272 1.383 . S
C1267 C1263 1.495 . S
C1267 H1273 0.959 . S
C1267 H1274 0.961 . S
C1267 H1275 0.960 . S
C1268 C1266 1.381 . S
C1268 C1269 1.394 . S
C1268 H1276 0.930 . S
C1269 C1268 1.394 . S
C1269 C1270 1.383 . S
C1269 H1277 0.929 . S
C1270 C1269 1.383 . S
C1270 C1271 1.377 . S
C1271 H1255 0.930 . S
C1271 C1270 1.377 . S
C1271 C1272 1.379 . S
C1272 H1256 0.931 . S
C1272 C1266 1.383 . S
C1272 C1271 1.379 . S
H1273 C1267 0.959 . S
H1274 C1267 0.961 . S
H1275 C1267 0.960 . S
H1276 C1268 0.930 . S
H1277 C1269 0.929 . S
H1278 C1286 0.929 . S
H1279 C1288 0.930 . S
H1280 C1290 0.930 . S
H1281 C1293 0.929 . S
H1282 C1296 0.930 . S
H1283 C1298 0.960 . S
H1284 C1298 0.960 . S
H1285 C1298 0.960 . S
C1286 H1278 0.929 . S
C1286 C1287 1.377 . S
C1286 C1288 1.384 . S
C1287 C1286 1.377 . S
C1287 C1293 1.390 . S
C1288 H1279 0.930 . S
C1288 C1286 1.384 . S
C1288 C1289 1.372 . S
C1289 C1288 1.372 . S
C1289 C1290 1.400 . S
C1289 C1294 1.490 . S
C1290 H1280 0.930 . S
C1290 C1289 1.400 . S
C1290 C1293 1.386 . S
H1291 C1307 0.930 . S
H1292 C1308 0.931 . S
C1293 H1281 0.929 . S
C1293 C1287 1.390 . S
C1293 C1290 1.386 . S
C1294 C1289 1.490 . S
C1294 C1296 1.395 . S
C1294 C1297 1.403 . S
H1295 C1301 0.930 . S
C1296 H1282 0.930 . S
C1296 C1294 1.395 . S
C1296 C1299 1.403 . S
C1297 C1294 1.403 . S
C1297 C1298 1.524 . S
C1297 C1301 1.400 . S
C1298 H1283 0.960 . S
C1298 H1284 0.960 . S
C1298 H1285 0.960 . S
C1298 C1297 1.524 . S
C1299 C1296 1.403 . S
C1299 C1300 1.392 . S
C1299 C1303 1.495 . S
C1300 C1299 1.392 . S
C1300 C1301 1.385 . S
C1300 C1302 1.478 . S
C1301 H1295 0.930 . S
C1301 C1297 1.400 . S
C1301 C1300 1.385 . S
C1302 C1300 1.478 . S
C1302 C1304 1.381 . S
C1302 C1308 1.383 . S
C1303 C1299 1.495 . S
C1303 H1309 0.959 . S
C1303 H1310 0.961 . S
C1303 H1311 0.960 . S
C1304 C1302 1.381 . S
C1304 C1305 1.394 . S
C1304 H1312 0.930 . S
C1305 C1304 1.394 . S
C1305 C1306 1.383 . S
C1305 H1313 0.929 . S
C1306 C1305 1.383 . S
C1306 C1307 1.377 . S
C1307 H1291 0.930 . S
C1307 C1306 1.377 . S
C1307 C1308 1.379 . S
C1308 H1292 0.931 . S
C1308 C1302 1.383 . S
C1308 C1307 1.379 . S
H1309 C1303 0.959 . S
H1310 C1303 0.961 . S
H1311 C1303 0.960 . S
H1312 C1304 0.930 . S
H1313 C1305 0.929 . S
C478 C442 1.662 . S
C459 C29 1.562 . S
C495 C115 1.550 . S
C514 C377 1.567 . S
C531 C153 1.604 . S
C550 C395 1.683 . S
C567 C239 1.535 . S
C586 C408 1.556 . S
C622 C416 1.612 . S
C603 C301 1.597 . S
C639 C339 1.821 . S
C658 C428 1.938 . S
C675 C91 1.605 . S
C694 C390 1.700 . S
C711 C177 1.549 . S
C730 C403 1.562 . S
C747 C215 1.571 . S
C766 C421 1.653 . S
C802 C427 1.942 . S
C783 C277 1.837 . S
C838 C447 1.593 . S
C819 C363 1.580 . S
C874 C382 1.566 . S
C855 C53 1.543 . S
C891 C35 1.693 . S
C910 C388 1.735 . S
C927 C109 1.547 . S
C946 C401 1.667 . S
C982 C415 1.585 . S
C963 C159 1.552 . S
C999 C233 1.741 . S
C1018 C429 1.873 . S
C1054 C441 1.692 . S
C1035 C295 1.552 . S
C1090 C376 1.558 . S
C1071 C345 1.526 . S
C1126 C440 1.596 . S
C1107 C97 1.564 . S
C1143 C171 1.537 . S
C1162 C375 1.656 . S
C1198 C389 1.735 . S
C1179 C221 1.696 . S
C1215 C283 1.528 . S
C1234 C402 1.556 . S
C1251 C357 1.565 . S
C1270 C414 1.706 . S
C1287 C47 1.738 . S
C1306 C434 1.869 . S
