# Generated by pormake.
# Topology pyr, (3,6)-cn, num edge types: 1
# Building blocks:
#     Node 0, Type 0, BuildingBlock: BELTOD_clean_linker_0, # of connection points: 3
#     Node 1, Type 0, BuildingBlock: BELTOD_clean_linker_0, # of connection points: 3
#     Node 2, Type 0, BuildingBlock: BELTOD_clean_linker_0, # of connection points: 3
#     Node 3, Type 0, BuildingBlock: BELTOD_clean_linker_0, # of connection points: 3
#     Node 4, Type 0, BuildingBlock: BELTOD_clean_linker_0, # of connection points: 3
#     Node 5, Type 0, BuildingBlock: BELTOD_clean_linker_0, # of connection points: 3
#     Node 6, Type 0, BuildingBlock: BELTOD_clean_linker_0, # of connection points: 3
#     Node 7, Type 0, BuildingBlock: BELTOD_clean_linker_0, # of connection points: 3
#     Node 8, Type 1, BuildingBlock: BETDEL_clean_sbu_0, # of connection points: 6
#     Node 9, Type 1, BuildingBlock: BETDEL_clean_sbu_0, # of connection points: 6
#     Node 10, Type 1, BuildingBlock: BETDEL_clean_sbu_0, # of connection points: 6
#     Node 11, Type 1, BuildingBlock: BETDEL_clean_sbu_0, # of connection points: 6
#     Edge 12, Type (0, 1), BuildingBlock: ZUJKAS_clean_linker_0, # of connection points: 2
#     Edge 13, Type (0, 1), BuildingBlock: ZUJKAS_clean_linker_0, # of connection points: 2
#     Edge 14, Type (0, 1), BuildingBlock: ZUJKAS_clean_linker_0, # of connection points: 2
#     Edge 15, Type (0, 1), BuildingBlock: ZUJKAS_clean_linker_0, # of connection points: 2
#     Edge 16, Type (0, 1), BuildingBlock: ZUJKAS_clean_linker_0, # of connection points: 2
#     Edge 17, Type (0, 1), BuildingBlock: ZUJKAS_clean_linker_0, # of connection points: 2
#     Edge 18, Type (0, 1), BuildingBlock: ZUJKAS_clean_linker_0, # of connection points: 2
#     Edge 19, Type (0, 1), BuildingBlock: ZUJKAS_clean_linker_0, # of connection points: 2
#     Edge 20, Type (0, 1), BuildingBlock: ZUJKAS_clean_linker_0, # of connection points: 2
#     Edge 21, Type (0, 1), BuildingBlock: ZUJKAS_clean_linker_0, # of connection points: 2
#     Edge 22, Type (0, 1), BuildingBlock: ZUJKAS_clean_linker_0, # of connection points: 2
#     Edge 23, Type (0, 1), BuildingBlock: ZUJKAS_clean_linker_0, # of connection points: 2
#     Edge 24, Type (0, 1), BuildingBlock: ZUJKAS_clean_linker_0, # of connection points: 2
#     Edge 25, Type (0, 1), BuildingBlock: ZUJKAS_clean_linker_0, # of connection points: 2
#     Edge 26, Type (0, 1), BuildingBlock: ZUJKAS_clean_linker_0, # of connection points: 2
#     Edge 27, Type (0, 1), BuildingBlock: ZUJKAS_clean_linker_0, # of connection points: 2
#     Edge 28, Type (0, 1), BuildingBlock: ZUJKAS_clean_linker_0, # of connection points: 2
#     Edge 29, Type (0, 1), BuildingBlock: ZUJKAS_clean_linker_0, # of connection points: 2
#     Edge 30, Type (0, 1), BuildingBlock: ZUJKAS_clean_linker_0, # of connection points: 2
#     Edge 31, Type (0, 1), BuildingBlock: ZUJKAS_clean_linker_0, # of connection points: 2
#     Edge 32, Type (0, 1), BuildingBlock: ZUJKAS_clean_linker_0, # of connection points: 2
#     Edge 33, Type (0, 1), BuildingBlock: ZUJKAS_clean_linker_0, # of connection points: 2
#     Edge 34, Type (0, 1), BuildingBlock: ZUJKAS_clean_linker_0, # of connection points: 2
#     Edge 35, Type (0, 1), BuildingBlock: ZUJKAS_clean_linker_0, # of connection points: 2
# Relax obj value: 0.025
# Max RMSD: 0.090
# Mean RMSD: 0.039
data_MOF--net-pyr--node1-BETDEL_clean_sbu_0--node2-BELTOD_clean_linker_0--edge1-ZUJKAS_clean_linker_0
_symmetry_space_group_name_H-M    P1
_symmetry_Int_Tables_number       1
_symmetry_cell_setting            triclinic
loop_
_symmetry_equiv_pos_as_xyz
'x, y, z'
_cell_length_a     52.994494
_cell_length_b     55.347069
_cell_length_c     50.229466
_cell_angle_alpha  91.837048
_cell_angle_beta   89.459948
_cell_angle_gamma 94.505113
loop_
_atom_site_label
_atom_site_type_symbol
_atom_site_fract_x
_atom_site_fract_y
_atom_site_fract_z
_atom_type_partial_charge
P0 P 0.23494 0.23697 0.2176 0.0
H1 H 0.28622 0.24231 0.19617 0.0
H2 H 0.31173 0.21493 0.17022 0.0
H3 H 0.24997 0.15912 0.17237 0.0
H4 H 0.22447 0.18674 0.19762 0.0
H5 H 0.2154 0.28412 0.22666 0.0
H6 H 0.19226 0.30978 0.19834 0.0
H7 H 0.19981 0.25893 0.13216 0.0
H8 H 0.22321 0.23359 0.16049 0.0
H9 H 0.23328 0.21358 0.26883 0.0
H10 H 0.18183 0.2228 0.20456 0.0
O11 O 0.25338 0.25318 0.23946 0.0
H12 H 0.20004 0.18905 0.29198 0.0
H13 H 0.14842 0.19888 0.22779 0.0
C14 C 0.25371 0.21638 0.19929 0.0
C15 C 0.27828 0.22412 0.19116 0.0
C16 C 0.29284 0.20844 0.17639 0.0
C17 C 0.28294 0.18478 0.16937 0.0
C18 C 0.25809 0.17727 0.17726 0.0
C19 C 0.24357 0.19299 0.19197 0.0
C20 C 0.2214 0.25725 0.19554 0.0
C21 C 0.21251 0.27879 0.20591 0.0
C22 C 0.19909 0.29328 0.18978 0.0
C23 C 0.19416 0.28632 0.16304 0.0
C24 C 0.20361 0.26494 0.15257 0.0
C25 C 0.21701 0.25044 0.16876 0.0
C26 C 0.20988 0.22042 0.2353 0.0
C27 C 0.21471 0.21065 0.25993 0.0
C28 C 0.19567 0.19671 0.27315 0.0
C29 C 0.17152 0.19215 0.26179 0.0
C30 C 0.16684 0.20193 0.23699 0.0
C31 C 0.18589 0.21584 0.22381 0.0
P32 P 0.33997 0.86591 0.61216 0.0
H33 H 0.38596 0.88298 0.64071 0.0
H34 H 0.39501 0.89082 0.688 0.0
H35 H 0.31661 0.87076 0.70717 0.0
H36 H 0.30788 0.86251 0.65993 0.0
H37 H 0.36823 0.84204 0.56986 0.0
H38 H 0.3782 0.80002 0.56208 0.0
H39 H 0.33389 0.77905 0.63145 0.0
H40 H 0.3242 0.82119 0.63923 0.0
H41 H 0.31199 0.90821 0.62237 0.0
H42 H 0.29794 0.83732 0.58479 0.0
O43 O 0.35951 0.88389 0.59388 0.0
H44 H 0.26885 0.9175 0.61229 0.0
H45 H 0.25462 0.84633 0.57499 0.0
C46 C 0.34616 0.87272 0.64682 0.0
C47 C 0.3707 0.88049 0.6551 0.0
C48 C 0.37582 0.885 0.68211 0.0
C49 C 0.35648 0.88157 0.70133 0.0
C50 C 0.33195 0.87344 0.6929 0.0
C51 C 0.32688 0.86896 0.66588 0.0
C52 C 0.34586 0.83475 0.60538 0.0
C53 C 0.3606 0.8284 0.58335 0.0
C54 C 0.36615 0.80433 0.57882 0.0
C55 C 0.35696 0.78624 0.59626 0.0
C56 C 0.34158 0.79264 0.61792 0.0
C57 C 0.33599 0.8167 0.62235 0.0
C58 C 0.30804 0.87203 0.60461 0.0
C59 C 0.29952 0.89459 0.61211 0.0
C60 C 0.27482 0.8998 0.60648 0.0
C61 C 0.25824 0.88256 0.59304 0.0
C62 C 0.26698 0.86002 0.58527 0.0
C63 C 0.29171 0.8548 0.591 0.0
P64 P 0.66514 0.30744 0.81921 0.0
H65 H 0.71692 0.29663 0.82994 0.0
H66 H 0.75107 0.31771 0.85581 0.0
H67 H 0.70105 0.37236 0.88072 0.0
H68 H 0.66702 0.35128 0.85412 0.0
H69 H 0.63428 0.26393 0.80264 0.0
H70 H 0.61161 0.23146 0.82709 0.0
H71 H 0.63265 0.26885 0.90142 0.0
H72 H 0.65468 0.30165 0.8767 0.0
H73 H 0.67916 0.3534 0.79452 0.0
H74 H 0.61063 0.30786 0.80752 0.0
O75 O 0.67935 0.29264 0.79456 0.0
H76 H 0.656 0.3796 0.76707 0.0
H77 H 0.58724 0.33412 0.78018 0.0
C78 C 0.68965 0.3227 0.83965 0.0
C79 C 0.7133 0.31317 0.84092 0.0
C80 C 0.73277 0.32516 0.85596 0.0
C81 C 0.72889 0.34683 0.8703 0.0
C82 C 0.70484 0.35595 0.86956 0.0
C83 C 0.68534 0.3439 0.85445 0.0
C84 C 0.64644 0.28504 0.83781 0.0
C85 C 0.63385 0.26522 0.8242 0.0
C86 C 0.62105 0.24656 0.83824 0.0
C87 C 0.62063 0.24729 0.86628 0.0
C88 C 0.63251 0.2677 0.87986 0.0
C89 C 0.64525 0.28645 0.86572 0.0
C90 C 0.6466 0.32888 0.80348 0.0
C91 C 0.65897 0.34939 0.79206 0.0
C92 C 0.64567 0.36439 0.77634 0.0
C93 C 0.61973 0.35899 0.77138 0.0
C94 C 0.60724 0.33869 0.7834 0.0
C95 C 0.62058 0.32374 0.79924 0.0
P96 P 0.80309 0.68195 0.30988 0.0
H97 H 0.81574 0.73168 0.29419 0.0
H98 H 0.84078 0.76591 0.31493 0.0
H99 H 0.85977 0.72048 0.3791 0.0
H100 H 0.83392 0.6864 0.35842 0.0
H101 H 0.78815 0.64903 0.26567 0.0
H102 H 0.81191 0.62524 0.23377 0.0
H103 H 0.88164 0.65133 0.27261 0.0
H104 H 0.8577 0.67512 0.30453 0.0
H105 H 0.77325 0.69501 0.35617 0.0
H106 H 0.7955 0.62911 0.31772 0.0
O107 O 0.781 0.69382 0.29204 0.0
H108 H 0.74562 0.67119 0.3864 0.0
H109 H 0.76807 0.6052 0.34796 0.0
C110 C 0.82257 0.70669 0.32507 0.0
C111 C 0.82522 0.7291 0.31277 0.0
C112 C 0.83979 0.74863 0.32456 0.0
C113 C 0.85228 0.74604 0.34879 0.0
C114 C 0.85006 0.72326 0.3607 0.0
C115 C 0.83538 0.70373 0.34888 0.0
C116 C 0.82116 0.66405 0.28725 0.0
C117 C 0.80855 0.64961 0.26733 0.0
C118 C 0.82214 0.6359 0.24923 0.0
C119 C 0.84866 0.63646 0.25064 0.0
C120 C 0.86124 0.65076 0.27085 0.0
C121 C 0.84757 0.66432 0.28914 0.0
C122 C 0.78653 0.66391 0.33475 0.0
C123 C 0.7726 0.6754 0.3546 0.0
C124 C 0.75684 0.66174 0.37192 0.0
C125 C 0.75455 0.63627 0.36953 0.0
C126 C 0.76918 0.62479 0.35011 0.0
C127 C 0.78501 0.63849 0.33287 0.0
P128 P 0.82534 0.84637 0.88301 0.0
H129 H 0.79359 0.84618 0.93017 0.0
H130 H 0.7501 0.85656 0.93814 0.0
H131 H 0.74084 0.86538 0.85371 0.0
H132 H 0.78419 0.85452 0.84583 0.0
H133 H 0.87362 0.82932 0.89627 0.0
H134 H 0.88679 0.7898 0.90808 0.0
H135 H 0.80928 0.75952 0.90232 0.0
H136 H 0.79619 0.79934 0.89047 0.0
H137 H 0.83402 0.89039 0.85325 0.0
H138 H 0.83932 0.81371 0.83867 0.0
O139 O 0.84086 0.86733 0.90263 0.0
H140 H 0.85215 0.89851 0.80919 0.0
H141 H 0.85753 0.82171 0.79462 0.0
C142 C 0.79216 0.84989 0.88752 0.0
C143 C 0.78203 0.84995 0.91335 0.0
C144 C 0.75725 0.856 0.91787 0.0
C145 C 0.7422 0.86212 0.89658 0.0
C146 C 0.75195 0.86066 0.87049 0.0
C147 C 0.77681 0.85461 0.86599 0.0
C148 C 0.83393 0.81729 0.89302 0.0
C149 C 0.85943 0.81422 0.89776 0.0
C150 C 0.86695 0.79159 0.90426 0.0
C151 C 0.84905 0.77157 0.90605 0.0
C152 C 0.82341 0.7747 0.90131 0.0
C153 C 0.81593 0.79742 0.89458 0.0
C154 C 0.83582 0.85156 0.84939 0.0
C155 C 0.83888 0.87531 0.84045 0.0
C156 C 0.84909 0.87989 0.81523 0.0
C157 C 0.85644 0.86074 0.79857 0.0
C158 C 0.85237 0.83683 0.80721 0.0
C159 C 0.84195 0.83226 0.83238 0.0
P160 P 0.74723 0.21865 0.3197 0.0
H161 H 0.75519 0.26833 0.34091 0.0
H162 H 0.72757 0.29503 0.36467 0.0
H163 H 0.66897 0.23622 0.36775 0.0
H164 H 0.69663 0.20977 0.3433 0.0
H165 H 0.79101 0.19239 0.3066 0.0
H166 H 0.81543 0.16521 0.33146 0.0
H167 H 0.76618 0.17378 0.39963 0.0
H168 H 0.74209 0.20139 0.37468 0.0
H169 H 0.7271 0.22961 0.26816 0.0
H170 H 0.72337 0.16893 0.32019 0.0
O171 O 0.76777 0.23672 0.30263 0.0
H172 H 0.7 0.20597 0.23613 0.0
H173 H 0.69666 0.14498 0.28805 0.0
C174 C 0.72775 0.23726 0.33988 0.0
C175 C 0.73645 0.26115 0.3468 0.0
C176 C 0.72066 0.27636 0.36061 0.0
C177 C 0.69593 0.26784 0.36796 0.0
C178 C 0.68771 0.24349 0.36194 0.0
C179 C 0.70353 0.22832 0.34806 0.0
C180 C 0.76508 0.19922 0.33895 0.0
C181 C 0.78559 0.18854 0.32697 0.0
C182 C 0.79937 0.17281 0.34113 0.0
C183 C 0.79275 0.1673 0.36754 0.0
C184 C 0.77197 0.17791 0.37945 0.0
C185 C 0.75815 0.19367 0.36519 0.0
C186 C 0.72768 0.20082 0.2962 0.0
C187 C 0.72066 0.21109 0.27253 0.0
C188 C 0.70523 0.19754 0.25423 0.0
C189 C 0.69637 0.17351 0.25943 0.0
C190 C 0.70308 0.16346 0.2835 0.0
C191 C 0.71854 0.17706 0.30178 0.0
P192 P 0.36565 0.653 0.14176 0.0
H193 H 0.34213 0.63986 0.0907 0.0
H194 H 0.29891 0.62663 0.07764 0.0
H195 H 0.27471 0.63286 0.15983 0.0
H196 H 0.31835 0.64575 0.1728 0.0
H197 H 0.41156 0.68499 0.14883 0.0
H198 H 0.42268 0.72716 0.1374 0.0
H199 H 0.34543 0.73387 0.11379 0.0
H200 H 0.33448 0.69179 0.12515 0.0
H201 H 0.36902 0.60483 0.16146 0.0
H202 H 0.37784 0.6781 0.19369 0.0
O203 O 0.38463 0.63948 0.12024 0.0
H204 H 0.38152 0.58959 0.20405 0.0
H205 H 0.39106 0.66305 0.23632 0.0
C206 C 0.33351 0.64328 0.13276 0.0
C207 C 0.32756 0.63824 0.10594 0.0
C208 C 0.30275 0.63091 0.09847 0.0
C209 C 0.28329 0.62864 0.11769 0.0
C210 C 0.2893 0.63408 0.14458 0.0
C211 C 0.31421 0.64149 0.15203 0.0
C212 C 0.37221 0.68522 0.138 0.0
C213 C 0.39692 0.69571 0.14171 0.0
C214 C 0.40324 0.71983 0.13517 0.0
C215 C 0.38497 0.73385 0.12451 0.0
C216 C 0.36001 0.72347 0.12163 0.0
C217 C 0.35369 0.69939 0.12832 0.0
C218 C 0.37287 0.64258 0.17428 0.0
C219 C 0.37367 0.61765 0.17776 0.0
C220 C 0.381 0.60898 0.2021 0.0
C221 C 0.3877 0.6251 0.22355 0.0
C222 C 0.38599 0.65011 0.22027 0.0
C223 C 0.37858 0.65877 0.19582 0.0
P224 P 0.19504 0.31651 0.70131 0.0
H225 H 0.19685 0.26382 0.70057 0.0
H226 H 0.17188 0.23077 0.67771 0.0
H227 H 0.12704 0.28257 0.6414 0.0
H228 H 0.15265 0.31578 0.66411 0.0
H229 H 0.21567 0.36694 0.70726 0.0
H230 H 0.24317 0.39282 0.67901 0.0
H231 H 0.24138 0.3355 0.61836 0.0
H232 H 0.21316 0.3101 0.6464 0.0
H233 H 0.18148 0.3093 0.75695 0.0
H234 H 0.16315 0.35716 0.69516 0.0
O235 O 0.2171 0.3047 0.71927 0.0
H236 H 0.1555 0.33093 0.78863 0.0
H237 H 0.13684 0.37891 0.7268 0.0
C238 C 0.17659 0.29226 0.68403 0.0
C239 C 0.18169 0.26814 0.68768 0.0
C240 C 0.16724 0.24919 0.67471 0.0
C241 C 0.14732 0.25397 0.65783 0.0
C242 C 0.14237 0.27825 0.65408 0.0
C243 C 0.15688 0.29724 0.66713 0.0
C244 C 0.21174 0.33683 0.67866 0.0
C245 C 0.22059 0.3602 0.68757 0.0
C246 C 0.23663 0.37488 0.6715 0.0
C247 C 0.2446 0.36628 0.64637 0.0
C248 C 0.23531 0.34294 0.63735 0.0
C249 C 0.21915 0.32833 0.65341 0.0
C250 C 0.17475 0.33204 0.72392 0.0
C251 C 0.17183 0.32448 0.7502 0.0
C252 C 0.15678 0.33676 0.76825 0.0
C253 C 0.14424 0.35677 0.7603 0.0
C254 C 0.1466 0.36382 0.73365 0.0
C255 C 0.16157 0.3514 0.71555 0.0
Dy256 Dy 0.00995 0.01034 0.47477 0.0
C257 C 0.98147 0.96627 0.57589 0.0
C258 C 0.02789 0.03546 0.432 0.0
Dy259 Dy 0.98791 0.99146 0.53047 0.0
O260 O 0.04153 0.02877 0.45136 0.0
O261 O 0.00417 0.02834 0.43583 0.0
O262 O 0.03452 0.97914 0.47332 0.0
O263 O 0.02459 0.99448 0.51029 0.0
C264 C 0.03558 0.97751 0.49903 0.0
C265 C 0.95444 0.01695 0.50531 0.0
O266 O 0.01249 0.02429 0.54374 0.0
O267 O 0.01675 0.04279 0.50263 0.0
O268 O 0.97821 0.9892 0.57393 0.0
O269 O 0.9886 0.95719 0.55309 0.0
O270 O 0.94964 0.00736 0.52829 0.0
O271 O 0.97616 0.01188 0.4982 0.0
O272 O 0.98283 0.97985 0.46054 0.0
O273 O 0.97734 0.96072 0.50128 0.0
C274 C 0.01921 0.04328 0.52898 0.0
C275 C 0.97458 0.96109 0.47498 0.0
Dy276 Dy 0.50677 0.01193 0.03275 0.0
C277 C 0.43294 0.96314 0.9591 0.0
C278 C 0.53729 0.0378 0.06845 0.0
Dy279 Dy 0.46675 0.99195 0.98863 0.0
O280 O 0.5172 0.02404 0.07455 0.0
O281 O 0.54078 0.03742 0.04278 0.0
O282 O 0.50854 0.97384 0.04619 0.0
O283 O 0.47483 0.98428 0.02996 0.0
C284 C 0.48583 0.96661 0.03828 0.0
C285 C 0.49266 0.03341 0.97353 0.0
O286 O 0.44187 0.01075 0.01745 0.0
O287 O 0.47367 0.03394 0.04077 0.0
O288 O 0.43182 0.9863 0.96361 0.0
O289 O 0.45228 0.95561 0.97129 0.0
O290 O 0.47557 0.02155 0.95877 0.0
O291 O 0.49438 0.02197 0.99448 0.0
O292 O 0.53224 0.997 0.00192 0.0
O293 O 0.50155 0.97283 0.9781 0.0
C294 C 0.44951 0.02855 0.0346 0.0
C295 C 0.52553 0.97969 0.98389 0.0
Dy296 Dy 0.50734 0.48237 0.49113 0.0
C297 C 0.46292 0.55885 0.54917 0.0
C298 C 0.53663 0.44936 0.46726 0.0
Dy299 Dy 0.48997 0.52409 0.52521 0.0
O300 O 0.51208 0.44835 0.46631 0.0
O301 O 0.54513 0.46853 0.48093 0.0
O302 O 0.46715 0.46701 0.48601 0.0
O303 O 0.47793 0.4857 0.52159 0.0
C304 C 0.45941 0.47586 0.50865 0.0
C305 C 0.53793 0.53037 0.50751 0.0
O306 O 0.50013 0.50045 0.55817 0.0
O307 O 0.52346 0.47543 0.5314 0.0
O308 O 0.48728 0.55807 0.55046 0.0
O309 O 0.45323 0.54034 0.53516 0.0
O310 O 0.53033 0.53904 0.53025 0.0
O311 O 0.51926 0.52076 0.49467 0.0
O312 O 0.49648 0.50572 0.45824 0.0
O313 O 0.4734 0.53092 0.48507 0.0
C314 C 0.51636 0.48347 0.55531 0.0
C315 C 0.4803 0.52273 0.46116 0.0
Dy316 Dy 0.00445 0.47315 0.01725 0.0
C317 C 0.96536 0.56035 0.9835 0.0
C318 C 0.02922 0.43372 0.02973 0.0
Dy319 Dy 0.98965 0.52029 0.99463 0.0
O320 O 0.01034 0.44172 0.04307 0.0
O321 O 0.03437 0.44707 0.00931 0.0
O322 O 0.97484 0.47585 0.04924 0.0
O323 O 0.99366 0.50756 0.03463 0.0
C324 C 0.97611 0.49939 0.04971 0.0
C325 C 0.01804 0.49417 0.96207 0.0
O326 O 0.02371 0.53516 0.01756 0.0
O327 O 0.0399 0.49799 0.02337 0.0
O328 O 0.98473 0.55301 0.97044 0.0
O329 O 0.95933 0.5459 0.0028 0.0
O330 O 0.01895 0.5177 0.9623 0.0
O331 O 0.00057 0.48598 0.97724 0.0
O332 O 0.9705 0.45807 0.99449 0.0
O333 O 0.95441 0.4952 0.98767 0.0
C334 C 0.04241 0.52205 0.02433 0.0
C335 C 0.95194 0.47109 0.98713 0.0
H336 H 0.13824 0.15697 0.23966 0.0
H337 H 0.10645 0.13056 0.2626 0.0
H338 H 0.12856 0.16537 0.33776 0.0
H339 H 0.15974 0.19238 0.31493 0.0
H340 H 0.11597 0.0982 0.30006 0.0
H341 H 0.05187 0.16398 0.34214 0.0
H342 H 0.07448 0.17153 0.31597 0.0
H343 H 0.08433 0.17248 0.35023 0.0
C344 C 0.13595 0.15936 0.26101 0.0
C345 C 0.1515 0.1768 0.27549 0.0
C346 C 0.11786 0.14418 0.27407 0.0
C347 C 0.11486 0.14628 0.30181 0.0
C348 C 0.13015 0.16382 0.31627 0.0
H349 H 0.07723 0.04784 0.42144 0.0
H350 H 0.09499 0.07315 0.38596 0.0
C351 C 0.14822 0.179 0.30324 0.0
C352 C 0.09738 0.12882 0.31601 0.0
H353 H 0.05085 0.12537 0.36349 0.0
C354 C 0.1014 0.10409 0.31355 0.0
C355 C 0.07808 0.13645 0.33325 0.0
C356 C 0.07173 0.16254 0.33535 0.0
C357 C 0.08779 0.08699 0.32921 0.0
C358 C 0.07 0.09493 0.34804 0.0
C359 C 0.06473 0.11939 0.34923 0.0
C360 C 0.05878 0.07867 0.36852 0.0
C361 C 0.09307 0.06066 0.32599 0.0
C362 C 0.03246 0.07373 0.37071 0.0
C363 C 0.0222 0.05921 0.39109 0.0
C364 C 0.03819 0.04978 0.40964 0.0
C365 C 0.06448 0.05478 0.40733 0.0
C366 C 0.07467 0.06912 0.38698 0.0
H367 H 0.10068 0.05651 0.30581 0.0
H368 H 0.10746 0.05658 0.34076 0.0
H369 H 0.0757 0.04856 0.32942 0.0
H370 H 0.01991 0.08118 0.35676 0.0
H371 H 0.00185 0.05569 0.3926 0.0
H372 H 0.38549 0.91966 0.72389 0.0
H373 H 0.3949 0.92746 0.77105 0.0
H374 H 0.34894 0.86269 0.79095 0.0
H375 H 0.33954 0.85461 0.74369 0.0
H376 H 0.33992 0.90327 0.82376 0.0
H377 H 0.44233 0.89024 0.81578 0.0
H378 H 0.43228 0.91155 0.79265 0.0
H379 H 0.42017 0.88029 0.78984 0.0
C380 C 0.37761 0.90692 0.73825 0.0
C381 C 0.36192 0.88642 0.73003 0.0
C382 C 0.38298 0.91141 0.76518 0.0
C383 C 0.37294 0.89543 0.7844 0.0
C384 C 0.35695 0.87517 0.77638 0.0
H385 H 0.4363 0.91572 0.94407 0.0
H386 H 0.41777 0.89483 0.90429 0.0
C387 C 0.35153 0.87066 0.7494 0.0
C388 C 0.37898 0.90019 0.81288 0.0
H389 H 0.42865 0.91062 0.85543 0.0
C390 C 0.35927 0.90457 0.83083 0.0
C391 C 0.40417 0.90139 0.82214 0.0
C392 C 0.42593 0.89537 0.80416 0.0
C393 C 0.36427 0.91139 0.85755 0.0
C394 C 0.38965 0.91422 0.86634 0.0
C395 C 0.40919 0.90861 0.84868 0.0
C396 C 0.39677 0.92484 0.89294 0.0
C397 C 0.34235 0.9157 0.87601 0.0
C398 C 0.39056 0.94838 0.90014 0.0
C399 C 0.40098 0.96025 0.9229 0.0
C400 C 0.41803 0.94889 0.93863 0.0
C401 C 0.42316 0.92486 0.93228 0.0
C402 C 0.41264 0.91294 0.90955 0.0
H403 H 0.32483 0.90494 0.86938 0.0
H404 H 0.3465 0.91101 0.89677 0.0
H405 H 0.33862 0.93515 0.87589 0.0
H406 H 0.37885 0.95815 0.88735 0.0
H407 H 0.39683 0.97882 0.92727 0.0
H408 H 0.58598 0.34243 0.73275 0.0
H409 H 0.56696 0.36585 0.69884 0.0
H410 H 0.6042 0.43173 0.73251 0.0
H411 H 0.62333 0.40842 0.76657 0.0
H412 H 0.53572 0.40408 0.70157 0.0
H413 H 0.62852 0.43201 0.65503 0.0
H414 H 0.62484 0.40861 0.67926 0.0
H415 H 0.62609 0.44001 0.68984 0.0
C416 C 0.58983 0.36195 0.73325 0.0
C417 C 0.60633 0.37352 0.75231 0.0
C418 C 0.57901 0.3753 0.71375 0.0
C419 C 0.58451 0.40049 0.71284 0.0
C420 C 0.60015 0.41225 0.73245 0.0
H421 H 0.50662 0.4944 0.608 0.0
H422 H 0.52263 0.47538 0.64715 0.0
C423 C 0.61105 0.3989 0.75192 0.0
C424 C 0.57444 0.41421 0.69085 0.0
H425 H 0.59255 0.44813 0.6373 0.0
C426 C 0.54812 0.4138 0.68757 0.0
C427 C 0.59067 0.42662 0.67239 0.0
C428 C 0.6191 0.42673 0.67406 0.0
C429 C 0.53758 0.42543 0.6663 0.0
C430 C 0.55382 0.43811 0.64806 0.0
C431 C 0.58013 0.43858 0.65142 0.0
C432 C 0.54404 0.44994 0.62452 0.0
C433 C 0.50921 0.42339 0.66308 0.0
C434 C 0.55121 0.4424 0.5988 0.0
C435 C 0.54228 0.45334 0.57643 0.0
C436 C 0.52598 0.47217 0.57924 0.0
C437 C 0.519 0.47988 0.60507 0.0
C438 C 0.52802 0.46892 0.62749 0.0
H439 H 0.49994 0.40846 0.67483 0.0
H440 H 0.50161 0.44059 0.67017 0.0
H441 H 0.50397 0.42022 0.64183 0.0
H442 H 0.56362 0.42786 0.59602 0.0
H443 H 0.54813 0.44693 0.5569 0.0
H444 H 0.83775 0.58976 0.23239 0.0
H445 H 0.86034 0.56732 0.19818 0.0
H446 H 0.91413 0.62921 0.18915 0.0
H447 H 0.89179 0.65164 0.22361 0.0
H448 H 0.86826 0.57775 0.14632 0.0
H449 H 0.96064 0.57552 0.19688 0.0
H450 H 0.93258 0.58422 0.21414 0.0
H451 H 0.95071 0.60556 0.19385 0.0
C452 C 0.85445 0.59855 0.22317 0.0
C453 C 0.86304 0.62244 0.23075 0.0
C454 C 0.86737 0.58569 0.20367 0.0
C455 C 0.88914 0.59644 0.19133 0.0
C456 C 0.89776 0.6203 0.19885 0.0
H457 H 0.9835 0.54822 0.05972 0.0
H458 H 0.96188 0.57251 0.0933 0.0
C459 C 0.88496 0.63312 0.21851 0.0
C460 C 0.90213 0.58294 0.16989 0.0
H461 H 0.95894 0.56205 0.15147 0.0
C462 C 0.88806 0.57424 0.14752 0.0
C463 C 0.928 0.5784 0.17142 0.0
C464 C 0.94383 0.5862 0.19547 0.0
C465 C 0.89918 0.56129 0.1266 0.0
C466 C 0.92499 0.55682 0.12816 0.0
C467 C 0.93916 0.56565 0.15034 0.0
C468 C 0.93744 0.54234 0.1073 0.0
C469 C 0.88337 0.55265 0.10283 0.0
C470 C 0.93083 0.51737 0.10414 0.0
C471 C 0.94321 0.50346 0.08514 0.0
C472 C 0.96238 0.51432 0.06897 0.0
C473 C 0.96876 0.53939 0.07192 0.0
C474 C 0.95649 0.55327 0.09108 0.0
H475 H 0.86535 0.56161 0.1022 0.0
H476 H 0.89404 0.55612 0.08403 0.0
H477 H 0.87871 0.5328 0.10385 0.0
H478 H 0.91634 0.50859 0.11666 0.0
H479 H 0.93793 0.48418 0.08328 0.0
H480 H 0.33304 0.17819 0.17603 0.0
H481 H 0.35868 0.1502 0.15124 0.0
H482 H 0.29368 0.1244 0.10443 0.0
H483 H 0.26807 0.15298 0.12849 0.0
H484 H 0.35086 0.09973 0.14747 0.0
H485 H 0.34804 0.1403 0.04778 0.0
H486 H 0.33904 0.15617 0.07793 0.0
H487 H 0.3177 0.1329 0.06296 0.0
C488 C 0.32428 0.16685 0.16018 0.0
C489 C 0.29854 0.16791 0.15414 0.0
C490 C 0.33891 0.15074 0.14618 0.0
C491 C 0.32813 0.13546 0.12582 0.0
C492 C 0.30244 0.13634 0.11978 0.0
H493 H 0.39848 0.02701 0.02481 0.0
H494 H 0.3673 0.05144 0.04694 0.0
C495 C 0.28779 0.15249 0.13376 0.0
C496 C 0.34376 0.11816 0.1115 0.0
H497 H 0.36855 0.10406 0.05048 0.0
C498 C 0.35469 0.10063 0.12626 0.0
C499 C 0.34855 0.11932 0.0838 0.0
C500 C 0.33792 0.13829 0.06715 0.0
C501 C 0.37054 0.08435 0.11409 0.0
C502 C 0.37581 0.08589 0.08654 0.0
C503 C 0.36438 0.10297 0.07161 0.0
C504 C 0.39442 0.07093 0.07326 0.0
C505 C 0.38158 0.06567 0.13081 0.0
C506 C 0.41994 0.0741 0.08056 0.0
C507 C 0.43775 0.06031 0.06799 0.0
C508 C 0.4304 0.04307 0.04778 0.0
C509 C 0.40477 0.04004 0.04037 0.0
C510 C 0.38694 0.05397 0.05294 0.0
H511 H 0.37063 0.06265 0.14954 0.0
H512 H 0.38209 0.04809 0.11959 0.0
H513 H 0.40128 0.07209 0.13624 0.0
H514 H 0.42612 0.08741 0.0959 0.0
H515 H 0.4573 0.06322 0.0742 0.0
H516 H 0.22512 0.90557 0.62524 0.0
H517 H 0.18317 0.91751 0.61378 0.0
H518 H 0.19053 0.88499 0.53519 0.0
H519 H 0.23248 0.87304 0.54645 0.0
H520 H 0.17314 0.94799 0.57379 0.0
H521 H 0.11969 0.85871 0.55739 0.0
H522 H 0.14961 0.86218 0.57455 0.0
H523 H 0.14876 0.86181 0.53874 0.0
C524 C 0.21775 0.90087 0.60555 0.0
C525 C 0.23212 0.88838 0.58673 0.0
C526 C 0.19374 0.90758 0.5991 0.0
C527 C 0.18358 0.90181 0.57379 0.0
C528 C 0.19772 0.88907 0.55507 0.0
H529 H 0.0654 0.94479 0.47612 0.0
H530 H 0.09928 0.92488 0.49721 0.0
C531 C 0.22172 0.8823 0.56152 0.0
C532 C 0.15916 0.91086 0.5662 0.0
H533 H 0.10085 0.89314 0.54075 0.0
C534 C 0.15718 0.936 0.56694 0.0
C535 C 0.13843 0.89515 0.55722 0.0
C536 C 0.13908 0.86794 0.55714 0.0
C537 C 0.1354 0.94594 0.55791 0.0
C538 C 0.11488 0.93026 0.54834 0.0
C539 C 0.11661 0.90508 0.54817 0.0
C540 C 0.0923 0.93985 0.53667 0.0
C541 C 0.13497 0.97318 0.5576 0.0
C542 C 0.07659 0.95415 0.5521 0.0
C543 C 0.05726 0.96561 0.54007 0.0
C544 C 0.05336 0.96284 0.51248 0.0
C545 C 0.06812 0.94736 0.4974 0.0
C546 C 0.08744 0.93595 0.50942 0.0
H547 H 0.1541 0.98255 0.56056 0.0
H548 H 0.12733 0.97887 0.53847 0.0
H549 H 0.12248 0.9793 0.57391 0.0
H550 H 0.07979 0.95701 0.57327 0.0
H551 H 0.04598 0.9773 0.55218 0.0
H552 H 0.76505 0.32774 0.90027 0.0
H553 H 0.8017 0.34931 0.92199 0.0
H554 H 0.77762 0.41733 0.89619 0.0
H555 H 0.74112 0.39592 0.87399 0.0
H556 H 0.83979 0.37937 0.89585 0.0
H557 H 0.79186 0.4298 0.97656 0.0
H558 H 0.77652 0.40384 0.95886 0.0
H559 H 0.77971 0.43286 0.94365 0.0
C560 C 0.76751 0.3473 0.89918 0.0
C561 C 0.75012 0.36007 0.88529 0.0
C562 C 0.78841 0.35959 0.91174 0.0
C563 C 0.79224 0.38492 0.91092 0.0
C564 C 0.77475 0.39781 0.89749 0.0
H565 H 0.91137 0.49116 0.96562 0.0
H566 H 0.87285 0.47002 0.94724 0.0
C567 C 0.75387 0.38552 0.88485 0.0
C568 C 0.81531 0.39767 0.92283 0.0
H569 H 0.83584 0.43973 0.97064 0.0
C570 C 0.83897 0.39248 0.9123 0.0
C571 C 0.81412 0.41487 0.94414 0.0
C572 C 0.78923 0.42061 0.95668 0.0
C573 C 0.86151 0.40431 0.92223 0.0
C574 C 0.86038 0.42139 0.94371 0.0
C575 C 0.83668 0.42661 0.95422 0.0
C576 C 0.88358 0.43411 0.95545 0.0
C577 C 0.88626 0.39884 0.90913 0.0
C578 C 0.90224 0.42097 0.96661 0.0
C579 C 0.92437 0.43296 0.97701 0.0
C580 C 0.92818 0.4584 0.97672 0.0
C581 C 0.90915 0.47155 0.96611 0.0
C582 C 0.88707 0.45951 0.9556 0.0
H583 H 0.88339 0.39076 0.88874 0.0
H584 H 0.89929 0.4155 0.90786 0.0
H585 H 0.89553 0.38561 0.92114 0.0
H586 H 0.89969 0.40138 0.96729 0.0
H587 H 0.93847 0.42226 0.98525 0.0
H588 H 0.74393 0.64263 0.42275 0.0
H589 H 0.71025 0.62128 0.44865 0.0
H590 H 0.68848 0.5767 0.3794 0.0
H591 H 0.72205 0.59787 0.35346 0.0
H592 H 0.65977 0.62029 0.43857 0.0
H593 H 0.68925 0.52638 0.43621 0.0
H594 H 0.71046 0.55207 0.42742 0.0
H595 H 0.68774 0.53878 0.40375 0.0
C596 C 0.7321 0.62813 0.41311 0.0
C597 C 0.73572 0.62193 0.38604 0.0
C598 C 0.71294 0.61589 0.42796 0.0
C599 C 0.69705 0.59715 0.41609 0.0
C600 C 0.7009 0.59064 0.38921 0.0
H601 H 0.55435 0.51986 0.45703 0.0
H602 H 0.59416 0.53516 0.43594 0.0
C603 C 0.72011 0.60281 0.37437 0.0
C604 C 0.67518 0.58583 0.43114 0.0
H605 H 0.64668 0.5315 0.45023 0.0
C606 C 0.65707 0.60091 0.44138 0.0
C607 C 0.67159 0.56051 0.43465 0.0
C608 C 0.69091 0.54351 0.42515 0.0
C609 C 0.63517 0.59133 0.45444 0.0
C610 C 0.63145 0.566 0.4577 0.0
C611 C 0.64961 0.5509 0.44766 0.0
C612 C 0.60852 0.55498 0.47115 0.0
C613 C 0.61583 0.60833 0.46398 0.0
C614 C 0.6038 0.5605 0.49811 0.0
C615 C 0.58113 0.55182 0.51016 0.0
C616 C 0.56284 0.53744 0.49545 0.0
C617 C 0.56807 0.53104 0.46878 0.0
C618 C 0.59078 0.53972 0.45674 0.0
H619 H 0.61877 0.62631 0.45472 0.0
H620 H 0.59634 0.60052 0.45948 0.0
H621 H 0.6174 0.61118 0.48588 0.0
H622 H 0.61745 0.57192 0.50969 0.0
H623 H 0.57769 0.55686 0.53081 0.0
H624 H 0.15036 0.30585 0.17791 0.0
H625 H 0.12348 0.32916 0.15099 0.0
H626 H 0.17432 0.3223 0.08409 0.0
H627 H 0.20145 0.2989 0.11101 0.0
H628 H 0.13703 0.37277 0.12646 0.0
H629 H 0.10475 0.30028 0.05236 0.0
H630 H 0.11954 0.29385 0.08332 0.0
H631 H 0.13844 0.30562 0.05611 0.0
C632 C 0.15594 0.30944 0.15753 0.0
C633 C 0.17807 0.30063 0.14659 0.0
C634 C 0.14048 0.32261 0.14213 0.0
C635 C 0.14676 0.32717 0.11549 0.0
C636 C 0.16889 0.31853 0.10447 0.0
H637 H 0.07162 0.41777 0.00596 0.0
H638 H 0.10081 0.39059 0.02481 0.0
C639 C 0.18437 0.30525 0.11987 0.0
C640 C 0.13044 0.34175 0.09975 0.0
H641 H 0.09078 0.3393 0.04632 0.0
C642 C 0.12698 0.36547 0.1089 0.0
C643 C 0.11747 0.33216 0.07679 0.0
C644 C 0.12 0.30652 0.06659 0.0
C645 C 0.11063 0.37982 0.0959 0.0
C646 C 0.09721 0.37006 0.07335 0.0
C647 C 0.10112 0.34659 0.0637 0.0
C648 C 0.07834 0.38386 0.06035 0.0
C649 C 0.10766 0.4053 0.10642 0.0
C650 C 0.05578 0.38831 0.07379 0.0
C651 C 0.03915 0.40369 0.06312 0.0
C652 C 0.04486 0.41483 0.03885 0.0
C653 C 0.06684 0.40939 0.02474 0.0
C654 C 0.08348 0.39392 0.03543 0.0
H655 H 0.12308 0.41178 0.12035 0.0
H656 H 0.10744 0.41804 0.08981 0.0
H657 H 0.08937 0.40572 0.1173 0.0
H658 H 0.05148 0.38049 0.09297 0.0
H659 H 0.0223 0.40754 0.07434 0.0
H660 H 0.62219 0.19886 0.85422 0.0
H661 H 0.6012 0.16468 0.87736 0.0
H662 H 0.57168 0.21394 0.93587 0.0
H663 H 0.59187 0.24844 0.9122 0.0
H664 H 0.60615 0.1496 0.92892 0.0
H665 H 0.5081 0.17375 0.91036 0.0
H666 H 0.53524 0.18782 0.89328 0.0
H667 H 0.52829 0.19694 0.92704 0.0
C668 C 0.61097 0.20252 0.87181 0.0
C669 C 0.60845 0.22649 0.8811 0.0
C670 C 0.59919 0.1829 0.88519 0.0
C671 C 0.58459 0.18673 0.90815 0.0
C672 C 0.58251 0.21056 0.91793 0.0
H673 H 0.52537 0.06322 0.00431 0.0
H674 H 0.54843 0.10138 0.9913 0.0
C675 C 0.59427 0.23026 0.9045 0.0
C676 C 0.57131 0.16565 0.92138 0.0
H677 H 0.51251 0.13902 0.93524 0.0
C678 C 0.58568 0.14735 0.93052 0.0
C679 C 0.54459 0.16266 0.92323 0.0
C680 C 0.52806 0.18119 0.91278 0.0
C681 C 0.57405 0.12594 0.94098 0.0
C682 C 0.54734 0.12292 0.94269 0.0
C683 C 0.533 0.14145 0.93407 0.0
C684 C 0.53374 0.09988 0.95114 0.0
C685 C 0.59041 0.10632 0.94905 0.0
C686 C 0.51754 0.0866 0.93312 0.0
C687 C 0.50441 0.06499 0.94055 0.0
C688 C 0.50715 0.05616 0.96618 0.0
C689 C 0.52324 0.06945 0.98433 0.0
C690 C 0.53641 0.09121 0.97689 0.0
H691 H 0.61013 0.10943 0.9415 0.0
H692 H 0.59104 0.10597 0.97111 0.0
H693 H 0.58243 0.08826 0.94153 0.0
H694 H 0.51515 0.09293 0.91318 0.0
H695 H 0.49208 0.05516 0.92615 0.0
H696 H 0.88292 0.78149 0.3249 0.0
H697 H 0.90483 0.8176 0.34594 0.0
H698 H 0.87732 0.79471 0.42286 0.0
H699 H 0.85484 0.75881 0.402 0.0
H700 H 0.88113 0.85387 0.37814 0.0
H701 H 0.95489 0.81005 0.43305 0.0
H702 H 0.93771 0.79513 0.40546 0.0
H703 H 0.92297 0.79725 0.4377 0.0
C704 C 0.88143 0.78413 0.34629 0.0
C705 C 0.86703 0.76721 0.36173 0.0
C706 C 0.89409 0.80472 0.35828 0.0
C707 C 0.89287 0.8087 0.38595 0.0
C708 C 0.87885 0.79175 0.4015 0.0
H709 H 0.95048 0.92125 0.49772 0.0
H710 H 0.93056 0.88498 0.47536 0.0
C711 C 0.86607 0.7712 0.38953 0.0
C712 C 0.90535 0.83112 0.39842 0.0
H713 H 0.95141 0.85189 0.44238 0.0
C714 C 0.8966 0.8535 0.39208 0.0
C715 C 0.92542 0.83051 0.41665 0.0
C716 C 0.93601 0.80699 0.42354 0.0
C717 C 0.90701 0.87531 0.40398 0.0
C718 C 0.92714 0.87474 0.42221 0.0
C719 C 0.93599 0.85232 0.4284 0.0
C720 C 0.93902 0.89711 0.43551 0.0
C721 C 0.89581 0.89865 0.3975 0.0
C722 C 0.95059 0.916 0.42055 0.0
C723 C 0.96188 0.93692 0.4333 0.0
C724 C 0.96211 0.93923 0.46127 0.0
C725 C 0.95069 0.92016 0.47616 0.0
C726 C 0.93929 0.89935 0.4634 0.0
H727 H 0.87644 0.89528 0.38921 0.0
H728 H 0.89493 0.9108 0.41546 0.0
H729 H 0.90786 0.9082 0.38234 0.0
H730 H 0.95114 0.91445 0.39902 0.0
H731 H 0.9707 0.95112 0.42119 0.0
H732 H 0.35884 0.7595 0.54957 0.0
H733 H 0.37313 0.71872 0.54304 0.0
H734 H 0.38609 0.71536 0.62744 0.0
H735 H 0.3718 0.75605 0.63412 0.0
H736 H 0.41995 0.70471 0.55431 0.0
H737 H 0.34678 0.65047 0.61123 0.0
H738 H 0.34286 0.6811 0.60157 0.0
H739 H 0.36159 0.67568 0.63014 0.0
C740 C 0.36462 0.75001 0.56674 0.0
C741 C 0.36415 0.76097 0.59237 0.0
C742 C 0.37267 0.72669 0.563 0.0
C743 C 0.38031 0.71387 0.5848 0.0
C744 C 0.37966 0.72466 0.61043 0.0
H745 H 0.48167 0.5988 0.57752 0.0
H746 H 0.46048 0.6358 0.58754 0.0
C747 C 0.37153 0.74794 0.6142 0.0
C748 C 0.39066 0.68994 0.58048 0.0
H749 H 0.38379 0.63077 0.59853 0.0
C750 C 0.41195 0.68852 0.56385 0.0
C751 C 0.38003 0.66879 0.59275 0.0
C752 C 0.35641 0.66895 0.60972 0.0
C753 C 0.42322 0.66664 0.55955 0.0
C754 C 0.41324 0.64572 0.57268 0.0
C755 C 0.3916 0.64695 0.58882 0.0
C756 C 0.42498 0.62239 0.56949 0.0
C757 C 0.44558 0.66607 0.54075 0.0
C758 C 0.4116 0.60222 0.55721 0.0
C759 C 0.4236 0.58098 0.55168 0.0
C760 C 0.44911 0.57966 0.55842 0.0
C761 C 0.46203 0.59941 0.57198 0.0
C762 C 0.45001 0.62058 0.57757 0.0
H763 H 0.44675 0.68167 0.52729 0.0
H764 H 0.46329 0.66702 0.55248 0.0
H765 H 0.44453 0.64901 0.52842 0.0
H766 H 0.39221 0.60323 0.55098 0.0
H767 H 0.41323 0.56597 0.54122 0.0
H768 H 0.84406 0.89206 0.7607 0.0
H769 H 0.86862 0.9038 0.72101 0.0
H770 H 0.9234 0.85322 0.73926 0.0
H771 H 0.89911 0.84161 0.77922 0.0
H772 H 0.94398 0.90145 0.73057 0.0
H773 H 0.87945 0.86667 0.64936 0.0
H774 H 0.86442 0.88397 0.67498 0.0
H775 H 0.87674 0.85572 0.68286 0.0
C776 C 0.86121 0.88328 0.7561 0.0
C777 C 0.86969 0.86594 0.77304 0.0
C778 C 0.87508 0.88984 0.73333 0.0
C779 C 0.89765 0.87917 0.72712 0.0
C780 C 0.90591 0.86149 0.74365 0.0
H781 H 0.97949 0.91718 0.57991 0.0
H782 H 0.96263 0.89334 0.61736 0.0
C783 C 0.89195 0.8548 0.76635 0.0
C784 C 0.91357 0.88801 0.70459 0.0
H785 H 0.9125 0.89658 0.63769 0.0
C786 C 0.9373 0.90009 0.71019 0.0
C787 C 0.90489 0.88594 0.67805 0.0
C788 C 0.88008 0.87217 0.67083 0.0
C789 C 0.95204 0.91127 0.69004 0.0
C790 C 0.94266 0.91046 0.66377 0.0
C791 C 0.91954 0.8973 0.65793 0.0
C792 C 0.95552 0.92462 0.64243 0.0
C793 C 0.97731 0.92423 0.69707 0.0
C794 C 0.95728 0.95004 0.64434 0.0
C795 C 0.96676 0.96364 0.62301 0.0
C796 C 0.97459 0.95201 0.59947 0.0
C797 C 0.97366 0.92657 0.59792 0.0
C798 C 0.96401 0.91295 0.61921 0.0
H799 H 0.98485 0.91759 0.71583 0.0
H800 H 0.99137 0.92188 0.68084 0.0
H801 H 0.97505 0.94391 0.69996 0.0
H802 H 0.95043 0.95936 0.66193 0.0
H803 H 0.96719 0.98324 0.62465 0.0
H804 H 0.65416 0.14317 0.26911 0.0
H805 H 0.62768 0.11938 0.23651 0.0
H806 H 0.67507 0.14797 0.17281 0.0
H807 H 0.70203 0.17125 0.20525 0.0
H808 H 0.60084 0.13695 0.19388 0.0
H809 H 0.67165 0.07436 0.15802 0.0
H810 H 0.67553 0.09236 0.18854 0.0
H811 H 0.68223 0.10596 0.15698 0.0
C812 C 0.65914 0.14413 0.24819 0.0
C813 C 0.68025 0.15903 0.23977 0.0
C814 C 0.64391 0.13066 0.2296 0.0
C815 C 0.64964 0.13169 0.20232 0.0
C816 C 0.67059 0.14662 0.19382 0.0
H817 H 0.57955 0.06759 0.05847 0.0
H818 H 0.60651 0.09092 0.09114 0.0
C819 C 0.6858 0.16011 0.21237 0.0
C820 C 0.63326 0.1177 0.18265 0.0
H821 H 0.63332 0.07337 0.13381 0.0
C822 C 0.60787 0.12295 0.18083 0.0
C823 C 0.64256 0.09953 0.16563 0.0
C824 C 0.66942 0.09251 0.16746 0.0
C825 C 0.5916 0.11078 0.16207 0.0
C826 C 0.60091 0.09262 0.14503 0.0
C827 C 0.62629 0.08736 0.14687 0.0
C828 C 0.58452 0.07867 0.12535 0.0
C829 C 0.56474 0.11782 0.16025 0.0
C830 C 0.56345 0.06388 0.13384 0.0
C831 C 0.54807 0.05061 0.11527 0.0
C832 C 0.55362 0.0518 0.08793 0.0
C833 C 0.57485 0.06641 0.07945 0.0
C834 C 0.59024 0.0797 0.09805 0.0
H835 H 0.56253 0.13599 0.16965 0.0
H836 H 0.55859 0.11793 0.13918 0.0
H837 H 0.55194 0.10441 0.1708 0.0
H838 H 0.55901 0.06246 0.15485 0.0
H839 H 0.53188 0.03937 0.12233 0.0
H840 H 0.41994 0.5894 0.22944 0.0
H841 H 0.43473 0.57331 0.27071 0.0
H842 H 0.39265 0.62404 0.31635 0.0
H843 H 0.37707 0.63981 0.27505 0.0
H844 H 0.46271 0.59734 0.3117 0.0
H845 H 0.36941 0.55893 0.34886 0.0
H846 H 0.37439 0.56809 0.31492 0.0
H847 H 0.37083 0.59047 0.3411 0.0
C848 C 0.41351 0.59695 0.24824 0.0
C849 C 0.39706 0.61575 0.24888 0.0
C850 C 0.42216 0.58784 0.27183 0.0
C851 C 0.41452 0.5972 0.29664 0.0
C852 C 0.39843 0.61623 0.29744 0.0
H853 H 0.44814 0.55909 0.45907 0.0
H854 H 0.43278 0.5778 0.41952 0.0
C855 C 0.38976 0.6254 0.27379 0.0
C856 C 0.42378 0.58719 0.32154 0.0
H857 H 0.40439 0.55708 0.3774 0.0
C858 C 0.44997 0.58853 0.32606 0.0
C859 C 0.40713 0.57574 0.3403 0.0
C860 C 0.37888 0.57298 0.33605 0.0
C861 C 0.45995 0.57888 0.3489 0.0
C862 C 0.44333 0.56713 0.36748 0.0
C863 C 0.41711 0.56604 0.36312 0.0
C864 C 0.45276 0.55565 0.39144 0.0
C865 C 0.4882 0.58171 0.35311 0.0
C866 C 0.46883 0.5367 0.38884 0.0
C867 C 0.47772 0.52595 0.41143 0.0
C868 C 0.47057 0.53383 0.43713 0.0
C869 C 0.45414 0.55258 0.43963 0.0
C870 C 0.44529 0.56332 0.41703 0.0
H871 H 0.49737 0.59668 0.34135 0.0
H872 H 0.49277 0.58532 0.37447 0.0
H873 H 0.49649 0.56469 0.34657 0.0
H874 H 0.4744 0.53009 0.3693 0.0
H875 H 0.49019 0.51147 0.4087 0.0
H876 H 0.11157 0.33872 0.79873 0.0
H877 H 0.08904 0.36152 0.83271 0.0
H878 H 0.12119 0.42865 0.80088 0.0
H879 H 0.14369 0.40599 0.76681 0.0
H880 H 0.10913 0.39316 0.87154 0.0
H881 H 0.04664 0.44029 0.80595 0.0
H882 H 0.06367 0.41498 0.79428 0.0
H883 H 0.07955 0.44488 0.79725 0.0
C884 C 0.11378 0.35835 0.79892 0.0
C885 C 0.12937 0.37055 0.78 0.0
C886 C 0.10084 0.37134 0.8183 0.0
C887 C 0.10315 0.39679 0.81913 0.0
C888 C 0.11862 0.40903 0.80024 0.0
H889 H 0.05228 0.51003 0.92457 0.0
H890 H 0.07322 0.48565 0.89068 0.0
C891 C 0.13149 0.39605 0.78077 0.0
C892 C 0.09023 0.41049 0.84044 0.0
H893 H 0.04886 0.45416 0.8513 0.0
C894 C 0.0958 0.40636 0.86713 0.0
C895 C 0.07284 0.42772 0.83466 0.0
C896 C 0.0651 0.43211 0.8065 0.0
C897 C 0.08493 0.41941 0.88816 0.0
C898 C 0.06781 0.43683 0.88233 0.0
C899 C 0.06209 0.44084 0.85569 0.0
C900 C 0.05577 0.4513 0.90357 0.0
C901 C 0.09231 0.41489 0.91641 0.0
C902 C 0.03899 0.44004 0.92202 0.0
C903 C 0.02698 0.45394 0.94137 0.0
C904 C 0.03151 0.47931 0.9425 0.0
C905 C 0.04846 0.4905 0.92416 0.0
C906 C 0.0604 0.47662 0.90479 0.0
H907 H 0.10981 0.40513 0.91718 0.0
H908 H 0.09532 0.43223 0.92811 0.0
H909 H 0.07681 0.40363 0.9261 0.0
H910 H 0.03485 0.42056 0.92116 0.0
H911 H 0.01389 0.44485 0.95518 0.0
H912 H 0.69733 0.85152 0.87006 0.0
H913 H 0.65705 0.86989 0.87826 0.0
H914 H 0.69119 0.91355 0.94293 0.0
H915 H 0.73126 0.89561 0.93482 0.0
H916 H 0.62877 0.87233 0.93156 0.0
H917 H 0.66024 0.96152 0.8899 0.0
H918 H 0.67489 0.93397 0.88085 0.0
H919 H 0.68229 0.94957 0.91204 0.0
C920 C 0.69618 0.86504 0.886 0.0
C921 C 0.7174 0.87206 0.90188 0.0
C922 C 0.67322 0.87543 0.89068 0.0
C923 C 0.67136 0.89318 0.91101 0.0
C924 C 0.69239 0.89999 0.92701 0.0
H925 H 0.5765 0.98609 0.99241 0.0
H926 H 0.60967 0.96396 0.97126 0.0
C927 C 0.71518 0.88956 0.9225 0.0
C928 C 0.64755 0.90479 0.91599 0.0
H929 H 0.62345 0.96016 0.91769 0.0
C930 C 0.62728 0.89141 0.92811 0.0
C931 C 0.64587 0.92965 0.9114 0.0
C932 C 0.66688 0.94454 0.89762 0.0
C933 C 0.60586 0.90268 0.9373 0.0
C934 C 0.60468 0.92785 0.93377 0.0
C935 C 0.62447 0.9409 0.92045 0.0
C936 C 0.58421 0.94143 0.94575 0.0
C937 C 0.58539 0.88791 0.95204 0.0
C938 C 0.55891 0.93632 0.93813 0.0
C939 C 0.5398 0.9489 0.95031 0.0
C940 C 0.54572 0.96693 0.97017 0.0
C941 C 0.5712 0.97233 0.97726 0.0
C942 C 0.59022 0.9597 0.96516 0.0
H943 H 0.59152 0.86999 0.95754 0.0
H944 H 0.5797 0.89777 0.97045 0.0
H945 H 0.5685 0.88471 0.93915 0.0
H946 H 0.55394 0.9226 0.92282 0.0
H947 H 0.52039 0.94439 0.94422 0.0
H948 H 0.80799 0.17202 0.41958 0.0
H949 H 0.83434 0.14557 0.44344 0.0
H950 H 0.83828 0.09911 0.37319 0.0
H951 H 0.8113 0.12498 0.34946 0.0
H952 H 0.82952 0.07369 0.41982 0.0
H953 H 0.91069 0.14303 0.4307 0.0
H954 H 0.88118 0.15252 0.44356 0.0
H955 H 0.88472 0.14632 0.40844 0.0
C956 C 0.8142 0.15602 0.40931 0.0
C957 C 0.80773 0.15072 0.38254 0.0
C958 C 0.82948 0.14108 0.42287 0.0
C959 C 0.83864 0.12066 0.4099 0.0
C960 C 0.83159 0.11492 0.38347 0.0
H961 H 0.9637 0.04019 0.45875 0.0
H962 H 0.93508 0.06457 0.43494 0.0
C963 C 0.81632 0.12981 0.3699 0.0
C964 C 0.85573 0.10533 0.42373 0.0
H965 H 0.91367 0.10632 0.45309 0.0
C966 C 0.84793 0.08079 0.4271 0.0
C967 C 0.87988 0.11459 0.43281 0.0
C968 C 0.88979 0.14049 0.42852 0.0
C969 C 0.86352 0.0653 0.43966 0.0
C970 C 0.88736 0.07474 0.44943 0.0
C971 C 0.89529 0.0992 0.44574 0.0
C972 C 0.90442 0.05954 0.46351 0.0
C973 C 0.85453 0.03889 0.44193 0.0
C974 C 0.89676 0.04885 0.48752 0.0
C975 C 0.91306 0.03487 0.50099 0.0
C976 C 0.93732 0.03148 0.49075 0.0
C977 C 0.94504 0.04234 0.46686 0.0
C978 C 0.92874 0.05631 0.45335 0.0
H979 H 0.83927 0.03329 0.42747 0.0
H980 H 0.87036 0.02711 0.43855 0.0
H981 H 0.84685 0.0358 0.46227 0.0
H982 H 0.87829 0.05155 0.49601 0.0
H983 H 0.9067 0.02683 0.51951 0.0
H984 H 0.25755 0.64151 0.07391 0.0
H985 H 0.2155 0.62572 0.05894 0.0
H986 H 0.20738 0.58111 0.12778 0.0
H987 H 0.24955 0.59665 0.14281 0.0
H988 H 0.20013 0.57764 0.04647 0.0
H989 H 0.14056 0.61385 0.12755 0.0
H990 H 0.17303 0.62518 0.12208 0.0
H991 H 0.16598 0.59726 0.13893 0.0
C992 C 0.24683 0.62835 0.08591 0.0
C993 C 0.25698 0.6203 0.10955 0.0
C994 C 0.22274 0.61944 0.07738 0.0
C995 C 0.20818 0.60243 0.09237 0.0
C996 C 0.21806 0.5946 0.11617 0.0
H997 H 0.08537 0.50126 0.03822 0.0
H998 H 0.12515 0.5215 0.05436 0.0
C999 C 0.24218 0.60351 0.12474 0.0
C1000 C 0.18332 0.59189 0.08227 0.0
H1001 H 0.12027 0.58441 0.09756 0.0
C1002 C 0.18265 0.57922 0.05759 0.0
C1003 C 0.1605 0.5942 0.09664 0.0
C1004 C 0.1599 0.60854 0.12266 0.0
C1005 C 0.15987 0.56835 0.04716 0.0
C1006 C 0.13719 0.56991 0.06197 0.0
C1007 C 0.13773 0.58306 0.08636 0.0
C1008 C 0.1128 0.55774 0.05255 0.0
C1009 C 0.16024 0.55542 0.02026 0.0
C1010 C 0.09242 0.57137 0.04672 0.0
C1011 C 0.06953 0.55985 0.0375 0.0
C1012 C 0.06656 0.53444 0.03416 0.0
C1013 C 0.08696 0.52086 0.04041 0.0
C1014 C 0.1098 0.53239 0.04955 0.0
H1015 H 0.17752 0.5611 0.00864 0.0
H1016 H 0.15999 0.5356 0.02307 0.0
H1017 H 0.14334 0.5589 0.00848 0.0
H1018 H 0.09431 0.59096 0.04903 0.0
H1019 H 0.05422 0.57087 0.033 0.0
H1020 H 0.24673 0.37113 0.59204 0.0
H1021 H 0.28014 0.39271 0.56596 0.0
H1022 H 0.31907 0.41624 0.63831 0.0
H1023 H 0.28618 0.39438 0.66451 0.0
H1024 H 0.31534 0.45344 0.59832 0.0
H1025 H 0.35266 0.36826 0.55812 0.0
H1026 H 0.31931 0.37099 0.55418 0.0
H1027 H 0.33206 0.36887 0.58693 0.0
C1028 C 0.26242 0.38083 0.60242 0.0
C1029 C 0.26376 0.38089 0.63041 0.0
C1030 C 0.28145 0.39321 0.58748 0.0
C1031 C 0.30216 0.40587 0.60023 0.0
C1032 C 0.30319 0.40661 0.62812 0.0
H1033 H 0.44406 0.4839 0.55996 0.0
H1034 H 0.4043 0.46866 0.5808 0.0
C1035 C 0.28426 0.39419 0.64306 0.0
C1036 C 0.32332 0.41759 0.58458 0.0
H1037 H 0.37292 0.40498 0.544 0.0
C1038 C 0.3279 0.44291 0.58632 0.0
C1039 C 0.33958 0.40377 0.56892 0.0
C1040 C 0.33589 0.37645 0.56696 0.0
C1041 C 0.34836 0.45481 0.57276 0.0
C1042 C 0.36503 0.44093 0.55761 0.0
C1043 C 0.36014 0.41563 0.55556 0.0
C1044 C 0.38822 0.45201 0.54453 0.0
C1045 C 0.35173 0.48214 0.57456 0.0
C1046 C 0.39263 0.44751 0.51727 0.0
C1047 C 0.41551 0.4559 0.50541 0.0
C1048 C 0.43443 0.46891 0.52062 0.0
C1049 C 0.42976 0.47399 0.54772 0.0
C1050 C 0.40695 0.46545 0.55962 0.0
H1051 H 0.33354 0.49011 0.57925 0.0
H1052 H 0.36516 0.48782 0.59082 0.0
H1053 H 0.35945 0.48971 0.55569 0.0
H1054 H 0.37852 0.4371 0.50524 0.0
H1055 H 0.4186 0.45177 0.48446 0.0
H1056 H 0.88946 0.7495 0.88571 0.0
H1057 H 0.90582 0.71196 0.89995 0.0
H1058 H 0.84425 0.7022 0.95634 0.0
H1059 H 0.82768 0.73983 0.94207 0.0
H1060 H 0.92121 0.70469 0.9518 0.0
H1061 H 0.84549 0.63486 0.91958 0.0
H1062 H 0.84822 0.66506 0.90673 0.0
H1063 H 0.83514 0.65991 0.93935 0.0
C1064 C 0.87931 0.73926 0.90101 0.0
C1065 C 0.8574 0.74764 0.91292 0.0
C1066 C 0.88861 0.71781 0.90905 0.0
C1067 C 0.87617 0.70427 0.92907 0.0
C1068 C 0.85388 0.71218 0.94052 0.0
H1069 H 0.92316 0.5763 0.00763 0.0
H1070 H 0.90059 0.61155 0.99596 0.0
C1071 C 0.84447 0.73367 0.93239 0.0
C1072 C 0.88774 0.68291 0.93914 0.0
H1073 H 0.87917 0.62146 0.94445 0.0
C1074 C 0.91201 0.68649 0.95021 0.0
C1075 C 0.87556 0.65926 0.93724 0.0
C1076 C 0.84974 0.65438 0.92491 0.0
C1077 C 0.9246 0.66701 0.95917 0.0
C1078 C 0.91271 0.6433 0.95667 0.0
C1079 C 0.88818 0.63972 0.94626 0.0
C1080 C 0.92604 0.62194 0.96365 0.0
C1081 C 0.95053 0.67192 0.97127 0.0
C1082 C 0.94758 0.6161 0.94913 0.0
C1083 C 0.96042 0.59608 0.9557 0.0
C1084 C 0.95186 0.58157 0.97687 0.0
C1085 C 0.93017 0.5873 0.99129 0.0
C1086 C 0.91726 0.60733 0.98463 0.0
H1087 H 0.95418 0.69121 0.97793 0.0
H1088 H 0.95278 0.66026 0.98854 0.0
H1089 H 0.96509 0.66779 0.95614 0.0
H1090 H 0.9544 0.627 0.93262 0.0
H1091 H 0.97701 0.59195 0.94419 0.0
H1092 H 0.4158 0.76986 0.14905 0.0
H1093 H 0.42957 0.8098 0.13205 0.0
H1094 H 0.38464 0.79392 0.06163 0.0
H1095 H 0.37108 0.75384 0.07827 0.0
H1096 H 0.43579 0.81202 0.05171 0.0
H1097 H 0.38775 0.86976 0.12566 0.0
H1098 H 0.4061 0.84746 0.1398 0.0
H1099 H 0.37863 0.83784 0.12036 0.0
C1100 C 0.40879 0.7749 0.12998 0.0
C1101 C 0.39226 0.75869 0.11507 0.0
C1102 C 0.41651 0.7978 0.1204 0.0
C1103 C 0.40789 0.80493 0.09572 0.0
C1104 C 0.39135 0.78885 0.08082 0.0
H1105 H 0.43562 0.95125 0.03339 0.0
H1106 H 0.41515 0.91151 0.04498 0.0
C1107 C 0.3835 0.76601 0.09045 0.0
C1108 C 0.41705 0.82871 0.08492 0.0
H1109 H 0.41857 0.88984 0.0975 0.0
C1110 C 0.43187 0.82904 0.06159 0.0
C1111 C 0.41166 0.8509 0.09767 0.0
C1112 C 0.39498 0.85162 0.12213 0.0
C1113 C 0.44218 0.85097 0.05121 0.0
C1114 C 0.43764 0.8731 0.06458 0.0
C1115 C 0.42211 0.87283 0.08737 0.0
C1116 C 0.44996 0.8966 0.05604 0.0
C1117 C 0.45799 0.85035 0.0261 0.0
C1118 C 0.47626 0.9013 0.05837 0.0
C1119 C 0.4879 0.92392 0.05198 0.0
C1120 C 0.47347 0.94226 0.04308 0.0
C1121 C 0.44719 0.93741 0.04018 0.0
C1122 C 0.43549 0.91478 0.04682 0.0
H1123 H 0.45475 0.83277 0.01488 0.0
H1124 H 0.45377 0.86523 0.01292 0.0
H1125 H 0.47832 0.85289 0.03142 0.0
H1126 H 0.48772 0.88762 0.06574 0.0
H1127 H 0.50819 0.92716 0.0544 0.0
H1128 H 0.12967 0.21068 0.67862 0.0
H1129 H 0.10647 0.17628 0.65576 0.0
H1130 H 0.10605 0.21678 0.58388 0.0
H1131 H 0.12998 0.25108 0.60638 0.0
H1132 H 0.05915 0.17329 0.63042 0.0
H1133 H 0.13652 0.15374 0.55937 0.0
H1134 H 0.14169 0.1733 0.58857 0.0
H1135 H 0.12732 0.1843 0.55954 0.0
C1136 C 0.12485 0.21223 0.65787 0.0
C1137 C 0.13195 0.23358 0.64426 0.0
C1138 C 0.11142 0.19261 0.6449 0.0
C1139 C 0.10488 0.19383 0.61801 0.0
C1140 C 0.1113 0.2153 0.60451 0.0
H1141 H 0.03277 0.08686 0.50638 0.0
H1142 H 0.05207 0.1238 0.52809 0.0
C1143 C 0.12475 0.23498 0.61749 0.0
C1144 C 0.09146 0.17251 0.6042 0.0
H1145 H 0.0976 0.13034 0.55388 0.0
C1146 C 0.06753 0.16388 0.61368 0.0
C1147 C 0.10244 0.16029 0.58235 0.0
C1148 C 0.12849 0.16819 0.57193 0.0
C1149 C 0.05417 0.14347 0.60176 0.0
C1150 C 0.06527 0.13108 0.5801 0.0
C1151 C 0.0891 0.13986 0.57047 0.0
C1152 C 0.05269 0.10879 0.56729 0.0
C1153 C 0.02811 0.13562 0.61219 0.0
C1154 C 0.04676 0.08797 0.58207 0.0
C1155 C 0.03563 0.06678 0.56975 0.0
C1156 C 0.03042 0.06591 0.54229 0.0
C1157 C 0.03647 0.08681 0.52755 0.0
C1158 C 0.04753 0.10799 0.53992 0.0
H1159 H 0.01955 0.15064 0.62333 0.0
H1160 H 0.01526 0.12906 0.59572 0.0
H1161 H 0.02953 0.12058 0.62604 0.0
H1162 H 0.05112 0.08796 0.6031 0.0
H1163 H 0.03142 0.05101 0.5817 0.0
H1164 H 0.64548 0.27051 0.35809 0.0
H1165 H 0.6177 0.30036 0.3762 0.0
H1166 H 0.67903 0.33359 0.42373 0.0
H1167 H 0.70688 0.30351 0.40624 0.0
H1168 H 0.60575 0.31348 0.43251 0.0
H1169 H 0.65489 0.38844 0.37606 0.0
H1170 H 0.65785 0.35688 0.36732 0.0
H1171 H 0.67475 0.37082 0.39533 0.0
C1172 C 0.65298 0.28386 0.37278 0.0
C1173 C 0.67849 0.2847 0.38058 0.0
C1174 C 0.63709 0.30098 0.38297 0.0
C1175 C 0.64646 0.31932 0.40096 0.0
C1176 C 0.67161 0.31977 0.40951 0.0
H1177 H 0.58745 0.44765 0.47256 0.0
H1178 H 0.61348 0.41546 0.45665 0.0
C1179 C 0.68749 0.30262 0.39943 0.0
C1180 C 0.63014 0.33844 0.4102 0.0
H1181 H 0.62282 0.39892 0.40623 0.0
C1182 C 0.60937 0.33217 0.42676 0.0
C1183 C 0.63503 0.36274 0.4026 0.0
C1184 C 0.65671 0.37023 0.38419 0.0
C1185 C 0.59357 0.34974 0.43644 0.0
C1186 C 0.5984 0.37408 0.42876 0.0
C1187 C 0.61915 0.38027 0.41208 0.0
C1188 C 0.58244 0.39354 0.43812 0.0
C1189 C 0.57233 0.3422 0.45537 0.0
C1190 C 0.55643 0.39213 0.43255 0.0
C1191 C 0.54151 0.41046 0.44175 0.0
C1192 C 0.55244 0.4306 0.45636 0.0
C1193 C 0.57856 0.4323 0.46134 0.0
C1194 C 0.59343 0.41392 0.45229 0.0
H1195 H 0.57546 0.32482 0.46485 0.0
H1196 H 0.5702 0.35631 0.47128 0.0
H1197 H 0.55432 0.3396 0.44418 0.0
H1198 H 0.54768 0.37688 0.42107 0.0
H1199 H 0.52143 0.4088 0.43753 0.0
loop_
_geom_bond_atom_site_label_1
_geom_bond_atom_site_label_2
_geom_bond_distance
_geom_bond_site_symmetry_2
_ccdc_geom_bond_type
P0 O11 1.490 . S
P0 C14 1.812 . S
P0 C20 1.803 . S
P0 C26 1.819 . S
H1 C15 0.941 . S
H2 C16 0.939 . S
H3 C18 0.940 . S
H4 C19 0.940 . S
H5 C21 0.939 . S
H6 C22 0.942 . S
H7 C24 0.940 . S
H8 C25 0.939 . S
H9 C27 0.941 . S
H10 C31 0.939 . S
O11 P0 1.490 . S
H12 C28 0.939 . S
H13 C30 0.940 . S
C14 P0 1.812 . S
C14 C15 1.389 . S
C14 C19 1.391 . S
C15 H1 0.941 . S
C15 C14 1.389 . S
C15 C16 1.397 . S
C16 H2 0.939 . S
C16 C15 1.397 . S
C16 C17 1.378 . S
C17 C16 1.378 . S
C17 C18 1.378 . S
C18 H3 0.940 . S
C18 C17 1.378 . S
C18 C19 1.396 . S
C19 H4 0.940 . S
C19 C14 1.391 . S
C19 C18 1.396 . S
C20 P0 1.803 . S
C20 C21 1.378 . S
C20 C25 1.400 . S
C21 H5 0.939 . S
C21 C20 1.378 . S
C21 C22 1.361 . S
C22 H6 0.942 . S
C22 C21 1.361 . S
C22 C23 1.369 . S
C23 C22 1.369 . S
C23 C24 1.404 . S
C24 H7 0.940 . S
C24 C23 1.404 . S
C24 C25 1.389 . S
C25 H8 0.939 . S
C25 C20 1.400 . S
C25 C24 1.389 . S
C26 P0 1.819 . S
C26 C27 1.391 . S
C26 C31 1.391 . S
C27 H9 0.941 . S
C27 C26 1.391 . S
C27 C28 1.396 . S
C28 H12 0.939 . S
C28 C27 1.396 . S
C28 C29 1.397 . S
C29 C28 1.397 . S
C29 C30 1.385 . S
C30 H13 0.940 . S
C30 C29 1.385 . S
C30 C31 1.388 . S
C31 H10 0.939 . S
C31 C26 1.391 . S
C31 C30 1.388 . S
P32 O43 1.490 . S
P32 C46 1.812 . S
P32 C52 1.803 . S
P32 C58 1.819 . S
H33 C47 0.941 . S
H34 C48 0.939 . S
H35 C50 0.940 . S
H36 C51 0.940 . S
H37 C53 0.939 . S
H38 C54 0.942 . S
H39 C56 0.940 . S
H40 C57 0.939 . S
H41 C59 0.941 . S
H42 C63 0.939 . S
O43 P32 1.490 . S
H44 C60 0.939 . S
H45 C62 0.940 . S
C46 P32 1.812 . S
C46 C47 1.389 . S
C46 C51 1.391 . S
C47 H33 0.941 . S
C47 C46 1.389 . S
C47 C48 1.397 . S
C48 H34 0.939 . S
C48 C47 1.397 . S
C48 C49 1.378 . S
C49 C48 1.378 . S
C49 C50 1.378 . S
C50 H35 0.940 . S
C50 C49 1.378 . S
C50 C51 1.396 . S
C51 H36 0.940 . S
C51 C46 1.391 . S
C51 C50 1.396 . S
C52 P32 1.803 . S
C52 C53 1.378 . S
C52 C57 1.400 . S
C53 H37 0.939 . S
C53 C52 1.378 . S
C53 C54 1.361 . S
C54 H38 0.942 . S
C54 C53 1.361 . S
C54 C55 1.369 . S
C55 C54 1.369 . S
C55 C56 1.404 . S
C56 H39 0.940 . S
C56 C55 1.404 . S
C56 C57 1.389 . S
C57 H40 0.939 . S
C57 C52 1.400 . S
C57 C56 1.389 . S
C58 P32 1.819 . S
C58 C59 1.391 . S
C58 C63 1.391 . S
C59 H41 0.941 . S
C59 C58 1.391 . S
C59 C60 1.396 . S
C60 H44 0.939 . S
C60 C59 1.396 . S
C60 C61 1.397 . S
C61 C60 1.397 . S
C61 C62 1.385 . S
C62 H45 0.940 . S
C62 C61 1.385 . S
C62 C63 1.388 . S
C63 H42 0.939 . S
C63 C58 1.391 . S
C63 C62 1.388 . S
P64 O75 1.490 . S
P64 C78 1.812 . S
P64 C84 1.803 . S
P64 C90 1.819 . S
H65 C79 0.941 . S
H66 C80 0.939 . S
H67 C82 0.940 . S
H68 C83 0.940 . S
H69 C85 0.939 . S
H70 C86 0.942 . S
H71 C88 0.940 . S
H72 C89 0.939 . S
H73 C91 0.941 . S
H74 C95 0.939 . S
O75 P64 1.490 . S
H76 C92 0.939 . S
H77 C94 0.940 . S
C78 P64 1.812 . S
C78 C79 1.389 . S
C78 C83 1.391 . S
C79 H65 0.941 . S
C79 C78 1.389 . S
C79 C80 1.397 . S
C80 H66 0.939 . S
C80 C79 1.397 . S
C80 C81 1.378 . S
C81 C80 1.378 . S
C81 C82 1.378 . S
C82 H67 0.940 . S
C82 C81 1.378 . S
C82 C83 1.396 . S
C83 H68 0.940 . S
C83 C78 1.391 . S
C83 C82 1.396 . S
C84 P64 1.803 . S
C84 C85 1.378 . S
C84 C89 1.400 . S
C85 H69 0.939 . S
C85 C84 1.378 . S
C85 C86 1.361 . S
C86 H70 0.942 . S
C86 C85 1.361 . S
C86 C87 1.369 . S
C87 C86 1.369 . S
C87 C88 1.404 . S
C88 H71 0.940 . S
C88 C87 1.404 . S
C88 C89 1.389 . S
C89 H72 0.939 . S
C89 C84 1.400 . S
C89 C88 1.389 . S
C90 P64 1.819 . S
C90 C91 1.391 . S
C90 C95 1.391 . S
C91 H73 0.941 . S
C91 C90 1.391 . S
C91 C92 1.396 . S
C92 H76 0.939 . S
C92 C91 1.396 . S
C92 C93 1.397 . S
C93 C92 1.397 . S
C93 C94 1.385 . S
C94 H77 0.940 . S
C94 C93 1.385 . S
C94 C95 1.388 . S
C95 H74 0.939 . S
C95 C90 1.391 . S
C95 C94 1.388 . S
P96 O107 1.490 . S
P96 C110 1.812 . S
P96 C116 1.803 . S
P96 C122 1.819 . S
H97 C111 0.941 . S
H98 C112 0.939 . S
H99 C114 0.940 . S
H100 C115 0.940 . S
H101 C117 0.939 . S
H102 C118 0.942 . S
H103 C120 0.940 . S
H104 C121 0.939 . S
H105 C123 0.941 . S
H106 C127 0.939 . S
O107 P96 1.490 . S
H108 C124 0.939 . S
H109 C126 0.940 . S
C110 P96 1.812 . S
C110 C111 1.389 . S
C110 C115 1.391 . S
C111 H97 0.941 . S
C111 C110 1.389 . S
C111 C112 1.397 . S
C112 H98 0.939 . S
C112 C111 1.397 . S
C112 C113 1.378 . S
C113 C112 1.378 . S
C113 C114 1.378 . S
C114 H99 0.940 . S
C114 C113 1.378 . S
C114 C115 1.396 . S
C115 H100 0.940 . S
C115 C110 1.391 . S
C115 C114 1.396 . S
C116 P96 1.803 . S
C116 C117 1.378 . S
C116 C121 1.400 . S
C117 H101 0.939 . S
C117 C116 1.378 . S
C117 C118 1.361 . S
C118 H102 0.942 . S
C118 C117 1.361 . S
C118 C119 1.369 . S
C119 C118 1.369 . S
C119 C120 1.404 . S
C120 H103 0.940 . S
C120 C119 1.404 . S
C120 C121 1.389 . S
C121 H104 0.939 . S
C121 C116 1.400 . S
C121 C120 1.389 . S
C122 P96 1.819 . S
C122 C123 1.391 . S
C122 C127 1.391 . S
C123 H105 0.941 . S
C123 C122 1.391 . S
C123 C124 1.396 . S
C124 H108 0.939 . S
C124 C123 1.396 . S
C124 C125 1.397 . S
C125 C124 1.397 . S
C125 C126 1.385 . S
C126 H109 0.940 . S
C126 C125 1.385 . S
C126 C127 1.388 . S
C127 H106 0.939 . S
C127 C122 1.391 . S
C127 C126 1.388 . S
P128 O139 1.490 . S
P128 C142 1.812 . S
P128 C148 1.803 . S
P128 C154 1.819 . S
H129 C143 0.941 . S
H130 C144 0.939 . S
H131 C146 0.940 . S
H132 C147 0.940 . S
H133 C149 0.939 . S
H134 C150 0.942 . S
H135 C152 0.940 . S
H136 C153 0.939 . S
H137 C155 0.941 . S
H138 C159 0.939 . S
O139 P128 1.490 . S
H140 C156 0.939 . S
H141 C158 0.940 . S
C142 P128 1.812 . S
C142 C143 1.389 . S
C142 C147 1.391 . S
C143 H129 0.941 . S
C143 C142 1.389 . S
C143 C144 1.397 . S
C144 H130 0.939 . S
C144 C143 1.397 . S
C144 C145 1.378 . S
C145 C144 1.378 . S
C145 C146 1.378 . S
C146 H131 0.940 . S
C146 C145 1.378 . S
C146 C147 1.396 . S
C147 H132 0.940 . S
C147 C142 1.391 . S
C147 C146 1.396 . S
C148 P128 1.803 . S
C148 C149 1.378 . S
C148 C153 1.400 . S
C149 H133 0.939 . S
C149 C148 1.378 . S
C149 C150 1.361 . S
C150 H134 0.942 . S
C150 C149 1.361 . S
C150 C151 1.369 . S
C151 C150 1.369 . S
C151 C152 1.404 . S
C152 H135 0.940 . S
C152 C151 1.404 . S
C152 C153 1.389 . S
C153 H136 0.939 . S
C153 C148 1.400 . S
C153 C152 1.389 . S
C154 P128 1.819 . S
C154 C155 1.391 . S
C154 C159 1.391 . S
C155 H137 0.941 . S
C155 C154 1.391 . S
C155 C156 1.396 . S
C156 H140 0.939 . S
C156 C155 1.396 . S
C156 C157 1.397 . S
C157 C156 1.397 . S
C157 C158 1.385 . S
C158 H141 0.940 . S
C158 C157 1.385 . S
C158 C159 1.388 . S
C159 H138 0.939 . S
C159 C154 1.391 . S
C159 C158 1.388 . S
P160 O171 1.490 . S
P160 C174 1.812 . S
P160 C180 1.803 . S
P160 C186 1.819 . S
H161 C175 0.941 . S
H162 C176 0.939 . S
H163 C178 0.940 . S
H164 C179 0.940 . S
H165 C181 0.939 . S
H166 C182 0.942 . S
H167 C184 0.940 . S
H168 C185 0.939 . S
H169 C187 0.941 . S
H170 C191 0.939 . S
O171 P160 1.490 . S
H172 C188 0.939 . S
H173 C190 0.940 . S
C174 P160 1.812 . S
C174 C175 1.389 . S
C174 C179 1.391 . S
C175 H161 0.941 . S
C175 C174 1.389 . S
C175 C176 1.397 . S
C176 H162 0.939 . S
C176 C175 1.397 . S
C176 C177 1.378 . S
C177 C176 1.378 . S
C177 C178 1.378 . S
C178 H163 0.940 . S
C178 C177 1.378 . S
C178 C179 1.396 . S
C179 H164 0.940 . S
C179 C174 1.391 . S
C179 C178 1.396 . S
C180 P160 1.803 . S
C180 C181 1.378 . S
C180 C185 1.400 . S
C181 H165 0.939 . S
C181 C180 1.378 . S
C181 C182 1.361 . S
C182 H166 0.942 . S
C182 C181 1.361 . S
C182 C183 1.369 . S
C183 C182 1.369 . S
C183 C184 1.404 . S
C184 H167 0.940 . S
C184 C183 1.404 . S
C184 C185 1.389 . S
C185 H168 0.939 . S
C185 C180 1.400 . S
C185 C184 1.389 . S
C186 P160 1.819 . S
C186 C187 1.391 . S
C186 C191 1.391 . S
C187 H169 0.941 . S
C187 C186 1.391 . S
C187 C188 1.396 . S
C188 H172 0.939 . S
C188 C187 1.396 . S
C188 C189 1.397 . S
C189 C188 1.397 . S
C189 C190 1.385 . S
C190 H173 0.940 . S
C190 C189 1.385 . S
C190 C191 1.388 . S
C191 H170 0.939 . S
C191 C186 1.391 . S
C191 C190 1.388 . S
P192 O203 1.490 . S
P192 C206 1.812 . S
P192 C212 1.803 . S
P192 C218 1.819 . S
H193 C207 0.941 . S
H194 C208 0.939 . S
H195 C210 0.940 . S
H196 C211 0.940 . S
H197 C213 0.939 . S
H198 C214 0.942 . S
H199 C216 0.940 . S
H200 C217 0.939 . S
H201 C219 0.941 . S
H202 C223 0.939 . S
O203 P192 1.490 . S
H204 C220 0.939 . S
H205 C222 0.940 . S
C206 P192 1.812 . S
C206 C207 1.389 . S
C206 C211 1.391 . S
C207 H193 0.941 . S
C207 C206 1.389 . S
C207 C208 1.397 . S
C208 H194 0.939 . S
C208 C207 1.397 . S
C208 C209 1.378 . S
C209 C208 1.378 . S
C209 C210 1.378 . S
C210 H195 0.940 . S
C210 C209 1.378 . S
C210 C211 1.396 . S
C211 H196 0.940 . S
C211 C206 1.391 . S
C211 C210 1.396 . S
C212 P192 1.803 . S
C212 C213 1.378 . S
C212 C217 1.400 . S
C213 H197 0.939 . S
C213 C212 1.378 . S
C213 C214 1.361 . S
C214 H198 0.942 . S
C214 C213 1.361 . S
C214 C215 1.369 . S
C215 C214 1.369 . S
C215 C216 1.404 . S
C216 H199 0.940 . S
C216 C215 1.404 . S
C216 C217 1.389 . S
C217 H200 0.939 . S
C217 C212 1.400 . S
C217 C216 1.389 . S
C218 P192 1.819 . S
C218 C219 1.391 . S
C218 C223 1.391 . S
C219 H201 0.941 . S
C219 C218 1.391 . S
C219 C220 1.396 . S
C220 H204 0.939 . S
C220 C219 1.396 . S
C220 C221 1.397 . S
C221 C220 1.397 . S
C221 C222 1.385 . S
C222 H205 0.940 . S
C222 C221 1.385 . S
C222 C223 1.388 . S
C223 H202 0.939 . S
C223 C218 1.391 . S
C223 C222 1.388 . S
P224 O235 1.490 . S
P224 C238 1.812 . S
P224 C244 1.803 . S
P224 C250 1.819 . S
H225 C239 0.941 . S
H226 C240 0.939 . S
H227 C242 0.940 . S
H228 C243 0.940 . S
H229 C245 0.939 . S
H230 C246 0.942 . S
H231 C248 0.940 . S
H232 C249 0.939 . S
H233 C251 0.941 . S
H234 C255 0.939 . S
O235 P224 1.490 . S
H236 C252 0.939 . S
H237 C254 0.940 . S
C238 P224 1.812 . S
C238 C239 1.389 . S
C238 C243 1.391 . S
C239 H225 0.941 . S
C239 C238 1.389 . S
C239 C240 1.397 . S
C240 H226 0.939 . S
C240 C239 1.397 . S
C240 C241 1.378 . S
C241 C240 1.378 . S
C241 C242 1.378 . S
C242 H227 0.940 . S
C242 C241 1.378 . S
C242 C243 1.396 . S
C243 H228 0.940 . S
C243 C238 1.391 . S
C243 C242 1.396 . S
C244 P224 1.803 . S
C244 C245 1.378 . S
C244 C249 1.400 . S
C245 H229 0.939 . S
C245 C244 1.378 . S
C245 C246 1.361 . S
C246 H230 0.942 . S
C246 C245 1.361 . S
C246 C247 1.369 . S
C247 C246 1.369 . S
C247 C248 1.404 . S
C248 H231 0.940 . S
C248 C247 1.404 . S
C248 C249 1.389 . S
C249 H232 0.939 . S
C249 C244 1.400 . S
C249 C248 1.389 . S
C250 P224 1.819 . S
C250 C251 1.391 . S
C250 C255 1.391 . S
C251 H233 0.941 . S
C251 C250 1.391 . S
C251 C252 1.396 . S
C252 H236 0.939 . S
C252 C251 1.396 . S
C252 C253 1.397 . S
C253 C252 1.397 . S
C253 C254 1.385 . S
C254 H237 0.940 . S
C254 C253 1.385 . S
C254 C255 1.388 . S
C255 H234 0.939 . S
C255 C250 1.391 . S
C255 C254 1.388 . S
Dy256 O260 2.398 . S
Dy256 O261 2.491 . S
Dy256 O262 2.403 1_545 S
Dy256 O263 2.664 1_545 S
Dy256 O267 2.326 . S
Dy256 O271 2.310 1_455 S
Dy256 O272 2.351 1_445 S
C257 O268 1.185 . S
C257 O269 1.355 . S
C258 O260 1.185 . S
C258 O261 1.355 . S
Dy259 O263 2.325 1_655 S
Dy259 O266 2.311 1_665 S
Dy259 O268 2.421 . S
Dy259 O269 2.536 . S
Dy259 O270 2.382 1_565 S
Dy259 O271 2.643 1_565 S
Dy259 O273 2.357 . S
O260 Dy256 2.398 . S
O260 C258 1.185 . S
O261 Dy256 2.491 . S
O261 C258 1.355 . S
O262 Dy256 2.403 1_565 S
O262 C264 1.254 . S
O263 Dy256 2.664 1_565 S
O263 Dy259 2.325 1_455 S
O263 C264 1.268 . S
C264 O262 1.254 . S
C264 O263 1.268 . S
C265 O270 1.254 . S
C265 O271 1.268 . S
O266 Dy259 2.311 1_445 S
O266 C274 1.249 . S
O267 Dy256 2.326 . S
O267 C274 1.267 . S
O268 C257 1.185 . S
O268 Dy259 2.421 . S
O269 C257 1.355 . S
O269 Dy259 2.536 . S
O270 Dy259 2.382 1_545 S
O270 C265 1.254 . S
O271 Dy256 2.310 1_655 S
O271 Dy259 2.643 1_545 S
O271 C265 1.268 . S
O272 Dy256 2.351 1_665 S
O272 C275 1.249 . S
O273 Dy259 2.357 . S
O273 C275 1.267 . S
C274 O266 1.249 . S
C274 O267 1.267 . S
C275 O272 1.249 . S
C275 O273 1.267 . S
Dy276 O280 2.398 . S
Dy276 O281 2.491 . S
Dy276 O282 2.403 1_545 S
Dy276 O283 2.664 1_545 S
Dy276 O287 2.326 . S
Dy276 O291 2.310 . S
Dy276 O292 2.331 1_544 S
C277 O288 1.185 . S
C277 O289 1.355 . S
C278 O280 1.185 . S
C278 O281 1.355 . S
Dy279 O283 2.310 1_546 S
Dy279 O286 2.351 1_556 S
Dy279 O288 2.398 1_545 S
Dy279 O289 2.491 1_545 S
Dy279 O290 2.403 . S
Dy279 O291 2.664 1_556 S
Dy279 O293 2.326 1_545 S
O280 Dy276 2.398 . S
O280 C278 1.185 . S
O281 Dy276 2.491 . S
O281 C278 1.355 . S
O282 Dy276 2.403 1_565 S
O282 C284 1.254 . S
O283 Dy276 2.664 1_565 S
O283 Dy279 2.310 1_564 S
O283 C284 1.268 . S
C284 O282 1.254 . S
C284 O283 1.268 . S
C285 O290 1.254 . S
C285 O291 1.268 1_556 S
O286 Dy279 2.351 1_554 S
O286 C294 1.249 . S
O287 Dy276 2.326 . S
O287 C294 1.267 . S
O288 C277 1.185 . S
O288 Dy279 2.398 1_565 S
O289 C277 1.355 . S
O289 Dy279 2.491 1_565 S
O290 Dy279 2.403 . S
O290 C285 1.254 . S
O291 Dy276 2.310 . S
O291 Dy279 2.664 1_554 S
O291 C285 1.268 1_554 S
O292 Dy276 2.331 1_566 S
O292 C295 1.274 . S
O293 Dy279 2.326 1_565 S
O293 C295 1.267 . S
C294 O286 1.249 . S
C294 O287 1.267 . S
C295 O292 1.274 . S
C295 O293 1.267 . S
Dy296 O300 2.398 . S
Dy296 O301 2.491 . S
Dy296 O302 2.403 . S
Dy296 O303 2.664 . S
Dy296 O307 2.326 . S
Dy296 O311 2.310 . S
Dy296 O312 2.351 . S
C297 O308 1.185 . S
C297 O309 1.355 . S
C298 O300 1.185 . S
C298 O301 1.355 . S
Dy299 O303 2.310 . S
Dy299 O306 2.351 . S
Dy299 O308 2.398 . S
Dy299 O309 2.491 . S
Dy299 O310 2.403 . S
Dy299 O311 2.664 . S
Dy299 O313 2.326 . S
O300 Dy296 2.398 . S
O300 C298 1.185 . S
O301 Dy296 2.491 . S
O301 C298 1.355 . S
O302 Dy296 2.403 . S
O302 C304 1.254 . S
O303 Dy296 2.664 . S
O303 Dy299 2.310 . S
O303 C304 1.268 . S
C304 O302 1.254 . S
C304 O303 1.268 . S
C305 O310 1.254 . S
C305 O311 1.268 . S
O306 Dy299 2.351 . S
O306 C314 1.249 . S
O307 Dy296 2.326 . S
O307 C314 1.267 . S
O308 C297 1.185 . S
O308 Dy299 2.398 . S
O309 C297 1.355 . S
O309 Dy299 2.491 . S
O310 Dy299 2.403 . S
O310 C305 1.254 . S
O311 Dy296 2.310 . S
O311 Dy299 2.664 . S
O311 C305 1.268 . S
O312 Dy296 2.351 . S
O312 C315 1.249 . S
O313 Dy299 2.326 . S
O313 C315 1.267 . S
C314 O306 1.249 . S
C314 O307 1.267 . S
C315 O312 1.249 . S
C315 O313 1.267 . S
Dy316 O320 2.398 . S
Dy316 O321 2.491 . S
Dy316 O322 2.403 1_455 S
Dy316 O323 2.664 1_455 S
Dy316 O327 2.326 . S
Dy316 O331 2.310 1_554 S
Dy316 O332 2.351 1_455 S
C317 O328 1.185 . S
C317 O329 1.355 . S
C318 O320 1.185 . S
C318 O321 1.355 . S
Dy319 O323 2.310 1_556 S
Dy319 O326 2.351 1_656 S
Dy319 O328 2.398 . S
Dy319 O329 2.491 . S
Dy319 O330 2.403 1_655 S
Dy319 O331 2.664 1_655 S
Dy319 O333 2.326 . S
O320 Dy316 2.398 . S
O320 C318 1.185 . S
O321 Dy316 2.491 . S
O321 C318 1.355 . S
O322 Dy316 2.403 1_655 S
O322 C324 1.254 . S
O323 Dy316 2.664 1_655 S
O323 Dy319 2.310 1_554 S
O323 C324 1.268 . S
C324 O322 1.254 . S
C324 O323 1.268 . S
C325 O330 1.254 . S
C325 O331 1.268 . S
O326 Dy319 2.351 1_454 S
O326 C334 1.249 . S
O327 Dy316 2.326 . S
O327 C334 1.267 . S
O328 C317 1.185 . S
O328 Dy319 2.398 . S
O329 C317 1.355 . S
O329 Dy319 2.491 . S
O330 Dy319 2.403 1_455 S
O330 C325 1.254 . S
O331 Dy316 2.310 1_556 S
O331 Dy319 2.664 1_455 S
O331 C325 1.268 . S
O332 Dy316 2.351 1_655 S
O332 C335 1.249 1_554 S
O333 Dy319 2.326 . S
O333 C335 1.267 . S
C334 O326 1.249 . S
C334 O327 1.267 . S
C335 O332 1.249 1_556 S
C335 O333 1.267 . S
H336 C344 0.929 . S
H337 C346 0.930 . S
H338 C348 0.930 . S
H339 C351 0.929 . S
H340 C354 0.930 . S
H341 C356 0.960 . S
H342 C356 0.960 . S
H343 C356 0.960 . S
C344 H336 0.929 . S
C344 C345 1.377 . S
C344 C346 1.384 . S
C345 C344 1.377 . S
C345 C351 1.390 . S
C346 H337 0.930 . S
C346 C344 1.384 . S
C346 C347 1.372 . S
C347 C346 1.372 . S
C347 C348 1.400 . S
C347 C352 1.490 . S
C348 H338 0.930 . S
C348 C347 1.400 . S
C348 C351 1.386 . S
H349 C365 0.930 . S
H350 C366 0.931 . S
C351 H339 0.929 . S
C351 C345 1.390 . S
C351 C348 1.386 . S
C352 C347 1.490 . S
C352 C354 1.395 . S
C352 C355 1.403 . S
H353 C359 0.930 . S
C354 H340 0.930 . S
C354 C352 1.395 . S
C354 C357 1.403 . S
C355 C352 1.403 . S
C355 C356 1.524 . S
C355 C359 1.400 . S
C356 H341 0.960 . S
C356 H342 0.960 . S
C356 H343 0.960 . S
C356 C355 1.524 . S
C357 C354 1.403 . S
C357 C358 1.392 . S
C357 C361 1.495 . S
C358 C357 1.392 . S
C358 C359 1.385 . S
C358 C360 1.478 . S
C359 H353 0.930 . S
C359 C355 1.400 . S
C359 C358 1.385 . S
C360 C358 1.478 . S
C360 C362 1.381 . S
C360 C366 1.383 . S
C361 C357 1.495 . S
C361 H367 0.959 . S
C361 H368 0.961 . S
C361 H369 0.960 . S
C362 C360 1.381 . S
C362 C363 1.394 . S
C362 H370 0.930 . S
C363 C362 1.394 . S
C363 C364 1.383 . S
C363 H371 0.929 . S
C364 C363 1.383 . S
C364 C365 1.377 . S
C365 H349 0.930 . S
C365 C364 1.377 . S
C365 C366 1.379 . S
C366 H350 0.931 . S
C366 C360 1.383 . S
C366 C365 1.379 . S
H367 C361 0.959 . S
H368 C361 0.961 . S
H369 C361 0.960 . S
H370 C362 0.930 . S
H371 C363 0.929 . S
H372 C380 0.929 . S
H373 C382 0.930 . S
H374 C384 0.930 . S
H375 C387 0.929 . S
H376 C390 0.930 . S
H377 C392 0.960 . S
H378 C392 0.960 . S
H379 C392 0.960 . S
C380 H372 0.929 . S
C380 C381 1.377 . S
C380 C382 1.384 . S
C381 C380 1.377 . S
C381 C387 1.390 . S
C382 H373 0.930 . S
C382 C380 1.384 . S
C382 C383 1.372 . S
C383 C382 1.372 . S
C383 C384 1.400 . S
C383 C388 1.490 . S
C384 H374 0.930 . S
C384 C383 1.400 . S
C384 C387 1.386 . S
H385 C401 0.930 . S
H386 C402 0.931 . S
C387 H375 0.929 . S
C387 C381 1.390 . S
C387 C384 1.386 . S
C388 C383 1.490 . S
C388 C390 1.395 . S
C388 C391 1.403 . S
H389 C395 0.930 . S
C390 H376 0.930 . S
C390 C388 1.395 . S
C390 C393 1.403 . S
C391 C388 1.403 . S
C391 C392 1.524 . S
C391 C395 1.400 . S
C392 H377 0.960 . S
C392 H378 0.960 . S
C392 H379 0.960 . S
C392 C391 1.524 . S
C393 C390 1.403 . S
C393 C394 1.392 . S
C393 C397 1.495 . S
C394 C393 1.392 . S
C394 C395 1.385 . S
C394 C396 1.478 . S
C395 H389 0.930 . S
C395 C391 1.400 . S
C395 C394 1.385 . S
C396 C394 1.478 . S
C396 C398 1.381 . S
C396 C402 1.383 . S
C397 C393 1.495 . S
C397 H403 0.959 . S
C397 H404 0.961 . S
C397 H405 0.960 . S
C398 C396 1.381 . S
C398 C399 1.394 . S
C398 H406 0.930 . S
C399 C398 1.394 . S
C399 C400 1.383 . S
C399 H407 0.929 . S
C400 C399 1.383 . S
C400 C401 1.377 . S
C401 H385 0.930 . S
C401 C400 1.377 . S
C401 C402 1.379 . S
C402 H386 0.931 . S
C402 C396 1.383 . S
C402 C401 1.379 . S
H403 C397 0.959 . S
H404 C397 0.961 . S
H405 C397 0.960 . S
H406 C398 0.930 . S
H407 C399 0.929 . S
H408 C416 0.929 . S
H409 C418 0.930 . S
H410 C420 0.930 . S
H411 C423 0.929 . S
H412 C426 0.930 . S
H413 C428 0.960 . S
H414 C428 0.960 . S
H415 C428 0.960 . S
C416 H408 0.929 . S
C416 C417 1.377 . S
C416 C418 1.384 . S
C417 C416 1.377 . S
C417 C423 1.390 . S
C418 H409 0.930 . S
C418 C416 1.384 . S
C418 C419 1.372 . S
C419 C418 1.372 . S
C419 C420 1.400 . S
C419 C424 1.490 . S
C420 H410 0.930 . S
C420 C419 1.400 . S
C420 C423 1.386 . S
H421 C437 0.930 . S
H422 C438 0.931 . S
C423 H411 0.929 . S
C423 C417 1.390 . S
C423 C420 1.386 . S
C424 C419 1.490 . S
C424 C426 1.395 . S
C424 C427 1.403 . S
H425 C431 0.930 . S
C426 H412 0.930 . S
C426 C424 1.395 . S
C426 C429 1.403 . S
C427 C424 1.403 . S
C427 C428 1.524 . S
C427 C431 1.400 . S
C428 H413 0.960 . S
C428 H414 0.960 . S
C428 H415 0.960 . S
C428 C427 1.524 . S
C429 C426 1.403 . S
C429 C430 1.392 . S
C429 C433 1.495 . S
C430 C429 1.392 . S
C430 C431 1.385 . S
C430 C432 1.478 . S
C431 H425 0.930 . S
C431 C427 1.400 . S
C431 C430 1.385 . S
C432 C430 1.478 . S
C432 C434 1.381 . S
C432 C438 1.383 . S
C433 C429 1.495 . S
C433 H439 0.959 . S
C433 H440 0.961 . S
C433 H441 0.960 . S
C434 C432 1.381 . S
C434 C435 1.394 . S
C434 H442 0.930 . S
C435 C434 1.394 . S
C435 C436 1.383 . S
C435 H443 0.929 . S
C436 C435 1.383 . S
C436 C437 1.377 . S
C437 H421 0.930 . S
C437 C436 1.377 . S
C437 C438 1.379 . S
C438 H422 0.931 . S
C438 C432 1.383 . S
C438 C437 1.379 . S
H439 C433 0.959 . S
H440 C433 0.961 . S
H441 C433 0.960 . S
H442 C434 0.930 . S
H443 C435 0.929 . S
H444 C452 0.929 . S
H445 C454 0.930 . S
H446 C456 0.930 . S
H447 C459 0.929 . S
H448 C462 0.930 . S
H449 C464 0.960 . S
H450 C464 0.960 . S
H451 C464 0.960 . S
C452 H444 0.929 . S
C452 C453 1.377 . S
C452 C454 1.384 . S
C453 C452 1.377 . S
C453 C459 1.390 . S
C454 H445 0.930 . S
C454 C452 1.384 . S
C454 C455 1.372 . S
C455 C454 1.372 . S
C455 C456 1.400 . S
C455 C460 1.490 . S
C456 H446 0.930 . S
C456 C455 1.400 . S
C456 C459 1.386 . S
H457 C473 0.930 . S
H458 C474 0.931 . S
C459 H447 0.929 . S
C459 C453 1.390 . S
C459 C456 1.386 . S
C460 C455 1.490 . S
C460 C462 1.395 . S
C460 C463 1.403 . S
H461 C467 0.930 . S
C462 H448 0.930 . S
C462 C460 1.395 . S
C462 C465 1.403 . S
C463 C460 1.403 . S
C463 C464 1.524 . S
C463 C467 1.400 . S
C464 H449 0.960 . S
C464 H450 0.960 . S
C464 H451 0.960 . S
C464 C463 1.524 . S
C465 C462 1.403 . S
C465 C466 1.392 . S
C465 C469 1.495 . S
C466 C465 1.392 . S
C466 C467 1.385 . S
C466 C468 1.478 . S
C467 H461 0.930 . S
C467 C463 1.400 . S
C467 C466 1.385 . S
C468 C466 1.478 . S
C468 C470 1.381 . S
C468 C474 1.383 . S
C469 C465 1.495 . S
C469 H475 0.959 . S
C469 H476 0.961 . S
C469 H477 0.960 . S
C470 C468 1.381 . S
C470 C471 1.394 . S
C470 H478 0.930 . S
C471 C470 1.394 . S
C471 C472 1.383 . S
C471 H479 0.929 . S
C472 C471 1.383 . S
C472 C473 1.377 . S
C473 H457 0.930 . S
C473 C472 1.377 . S
C473 C474 1.379 . S
C474 H458 0.931 . S
C474 C468 1.383 . S
C474 C473 1.379 . S
H475 C469 0.959 . S
H476 C469 0.961 . S
H477 C469 0.960 . S
H478 C470 0.930 . S
H479 C471 0.929 . S
H480 C488 0.929 . S
H481 C490 0.930 . S
H482 C492 0.930 . S
H483 C495 0.929 . S
H484 C498 0.930 . S
H485 C500 0.960 . S
H486 C500 0.960 . S
H487 C500 0.960 . S
C488 H480 0.929 . S
C488 C489 1.377 . S
C488 C490 1.384 . S
C489 C488 1.377 . S
C489 C495 1.390 . S
C490 H481 0.930 . S
C490 C488 1.384 . S
C490 C491 1.372 . S
C491 C490 1.372 . S
C491 C492 1.400 . S
C491 C496 1.490 . S
C492 H482 0.930 . S
C492 C491 1.400 . S
C492 C495 1.386 . S
H493 C509 0.930 . S
H494 C510 0.931 . S
C495 H483 0.929 . S
C495 C489 1.390 . S
C495 C492 1.386 . S
C496 C491 1.490 . S
C496 C498 1.395 . S
C496 C499 1.403 . S
H497 C503 0.930 . S
C498 H484 0.930 . S
C498 C496 1.395 . S
C498 C501 1.403 . S
C499 C496 1.403 . S
C499 C500 1.524 . S
C499 C503 1.400 . S
C500 H485 0.960 . S
C500 H486 0.960 . S
C500 H487 0.960 . S
C500 C499 1.524 . S
C501 C498 1.403 . S
C501 C502 1.392 . S
C501 C505 1.495 . S
C502 C501 1.392 . S
C502 C503 1.385 . S
C502 C504 1.478 . S
C503 H497 0.930 . S
C503 C499 1.400 . S
C503 C502 1.385 . S
C504 C502 1.478 . S
C504 C506 1.381 . S
C504 C510 1.383 . S
C505 C501 1.495 . S
C505 H511 0.959 . S
C505 H512 0.961 . S
C505 H513 0.960 . S
C506 C504 1.381 . S
C506 C507 1.394 . S
C506 H514 0.930 . S
C507 C506 1.394 . S
C507 C508 1.383 . S
C507 H515 0.929 . S
C508 C507 1.383 . S
C508 C509 1.377 . S
C509 H493 0.930 . S
C509 C508 1.377 . S
C509 C510 1.379 . S
C510 H494 0.931 . S
C510 C504 1.383 . S
C510 C509 1.379 . S
H511 C505 0.959 . S
H512 C505 0.961 . S
H513 C505 0.960 . S
H514 C506 0.930 . S
H515 C507 0.929 . S
H516 C524 0.929 . S
H517 C526 0.930 . S
H518 C528 0.930 . S
H519 C531 0.929 . S
H520 C534 0.930 . S
H521 C536 0.960 . S
H522 C536 0.960 . S
H523 C536 0.960 . S
C524 H516 0.929 . S
C524 C525 1.377 . S
C524 C526 1.384 . S
C525 C524 1.377 . S
C525 C531 1.390 . S
C526 H517 0.930 . S
C526 C524 1.384 . S
C526 C527 1.372 . S
C527 C526 1.372 . S
C527 C528 1.400 . S
C527 C532 1.490 . S
C528 H518 0.930 . S
C528 C527 1.400 . S
C528 C531 1.386 . S
H529 C545 0.930 . S
H530 C546 0.931 . S
C531 H519 0.929 . S
C531 C525 1.390 . S
C531 C528 1.386 . S
C532 C527 1.490 . S
C532 C534 1.395 . S
C532 C535 1.403 . S
H533 C539 0.930 . S
C534 H520 0.930 . S
C534 C532 1.395 . S
C534 C537 1.403 . S
C535 C532 1.403 . S
C535 C536 1.524 . S
C535 C539 1.400 . S
C536 H521 0.960 . S
C536 H522 0.960 . S
C536 H523 0.960 . S
C536 C535 1.524 . S
C537 C534 1.403 . S
C537 C538 1.392 . S
C537 C541 1.495 . S
C538 C537 1.392 . S
C538 C539 1.385 . S
C538 C540 1.478 . S
C539 H533 0.930 . S
C539 C535 1.400 . S
C539 C538 1.385 . S
C540 C538 1.478 . S
C540 C542 1.381 . S
C540 C546 1.383 . S
C541 C537 1.495 . S
C541 H547 0.959 . S
C541 H548 0.961 . S
C541 H549 0.960 . S
C542 C540 1.381 . S
C542 C543 1.394 . S
C542 H550 0.930 . S
C543 C542 1.394 . S
C543 C544 1.383 . S
C543 H551 0.929 1_565 S
C544 C543 1.383 . S
C544 C545 1.377 . S
C545 H529 0.930 . S
C545 C544 1.377 . S
C545 C546 1.379 . S
C546 H530 0.931 . S
C546 C540 1.383 . S
C546 C545 1.379 . S
H547 C541 0.959 . S
H548 C541 0.961 . S
H549 C541 0.960 . S
H550 C542 0.930 . S
H551 C543 0.929 1_545 S
H552 C560 0.929 . S
H553 C562 0.930 . S
H554 C564 0.930 . S
H555 C567 0.929 . S
H556 C570 0.930 . S
H557 C572 0.960 . S
H558 C572 0.960 . S
H559 C572 0.960 . S
C560 H552 0.929 . S
C560 C561 1.377 . S
C560 C562 1.384 . S
C561 C560 1.377 . S
C561 C567 1.390 . S
C562 H553 0.930 . S
C562 C560 1.384 . S
C562 C563 1.372 . S
C563 C562 1.372 . S
C563 C564 1.400 . S
C563 C568 1.490 . S
C564 H554 0.930 . S
C564 C563 1.400 . S
C564 C567 1.386 . S
H565 C581 0.930 . S
H566 C582 0.931 . S
C567 H555 0.929 . S
C567 C561 1.390 . S
C567 C564 1.386 . S
C568 C563 1.490 . S
C568 C570 1.395 . S
C568 C571 1.403 . S
H569 C575 0.930 . S
C570 H556 0.930 . S
C570 C568 1.395 . S
C570 C573 1.403 . S
C571 C568 1.403 . S
C571 C572 1.524 . S
C571 C575 1.400 . S
C572 H557 0.960 . S
C572 H558 0.960 . S
C572 H559 0.960 . S
C572 C571 1.524 . S
C573 C570 1.403 . S
C573 C574 1.392 . S
C573 C577 1.495 . S
C574 C573 1.392 . S
C574 C575 1.385 . S
C574 C576 1.478 . S
C575 H569 0.930 . S
C575 C571 1.400 . S
C575 C574 1.385 . S
C576 C574 1.478 . S
C576 C578 1.381 . S
C576 C582 1.383 . S
C577 C573 1.495 . S
C577 H583 0.959 . S
C577 H584 0.961 . S
C577 H585 0.960 . S
C578 C576 1.381 . S
C578 C579 1.394 . S
C578 H586 0.930 . S
C579 C578 1.394 . S
C579 C580 1.383 . S
C579 H587 0.929 . S
C580 C579 1.383 . S
C580 C581 1.377 . S
C581 H565 0.930 . S
C581 C580 1.377 . S
C581 C582 1.379 . S
C582 H566 0.931 . S
C582 C576 1.383 . S
C582 C581 1.379 . S
H583 C577 0.959 . S
H584 C577 0.961 . S
H585 C577 0.960 . S
H586 C578 0.930 . S
H587 C579 0.929 . S
H588 C596 0.929 . S
H589 C598 0.930 . S
H590 C600 0.930 . S
H591 C603 0.929 . S
H592 C606 0.930 . S
H593 C608 0.960 . S
H594 C608 0.960 . S
H595 C608 0.960 . S
C596 H588 0.929 . S
C596 C597 1.377 . S
C596 C598 1.384 . S
C597 C596 1.377 . S
C597 C603 1.390 . S
C598 H589 0.930 . S
C598 C596 1.384 . S
C598 C599 1.372 . S
C599 C598 1.372 . S
C599 C600 1.400 . S
C599 C604 1.490 . S
C600 H590 0.930 . S
C600 C599 1.400 . S
C600 C603 1.386 . S
H601 C617 0.930 . S
H602 C618 0.931 . S
C603 H591 0.929 . S
C603 C597 1.390 . S
C603 C600 1.386 . S
C604 C599 1.490 . S
C604 C606 1.395 . S
C604 C607 1.403 . S
H605 C611 0.930 . S
C606 H592 0.930 . S
C606 C604 1.395 . S
C606 C609 1.403 . S
C607 C604 1.403 . S
C607 C608 1.524 . S
C607 C611 1.400 . S
C608 H593 0.960 . S
C608 H594 0.960 . S
C608 H595 0.960 . S
C608 C607 1.524 . S
C609 C606 1.403 . S
C609 C610 1.392 . S
C609 C613 1.495 . S
C610 C609 1.392 . S
C610 C611 1.385 . S
C610 C612 1.478 . S
C611 H605 0.930 . S
C611 C607 1.400 . S
C611 C610 1.385 . S
C612 C610 1.478 . S
C612 C614 1.381 . S
C612 C618 1.383 . S
C613 C609 1.495 . S
C613 H619 0.959 . S
C613 H620 0.961 . S
C613 H621 0.960 . S
C614 C612 1.381 . S
C614 C615 1.394 . S
C614 H622 0.930 . S
C615 C614 1.394 . S
C615 C616 1.383 . S
C615 H623 0.929 . S
C616 C615 1.383 . S
C616 C617 1.377 . S
C617 H601 0.930 . S
C617 C616 1.377 . S
C617 C618 1.379 . S
C618 H602 0.931 . S
C618 C612 1.383 . S
C618 C617 1.379 . S
H619 C613 0.959 . S
H620 C613 0.961 . S
H621 C613 0.960 . S
H622 C614 0.930 . S
H623 C615 0.929 . S
H624 C632 0.929 . S
H625 C634 0.930 . S
H626 C636 0.930 . S
H627 C639 0.929 . S
H628 C642 0.930 . S
H629 C644 0.960 . S
H630 C644 0.960 . S
H631 C644 0.960 . S
C632 H624 0.929 . S
C632 C633 1.377 . S
C632 C634 1.384 . S
C633 C632 1.377 . S
C633 C639 1.390 . S
C634 H625 0.930 . S
C634 C632 1.384 . S
C634 C635 1.372 . S
C635 C634 1.372 . S
C635 C636 1.400 . S
C635 C640 1.490 . S
C636 H626 0.930 . S
C636 C635 1.400 . S
C636 C639 1.386 . S
H637 C653 0.930 . S
H638 C654 0.931 . S
C639 H627 0.929 . S
C639 C633 1.390 . S
C639 C636 1.386 . S
C640 C635 1.490 . S
C640 C642 1.395 . S
C640 C643 1.403 . S
H641 C647 0.930 . S
C642 H628 0.930 . S
C642 C640 1.395 . S
C642 C645 1.403 . S
C643 C640 1.403 . S
C643 C644 1.524 . S
C643 C647 1.400 . S
C644 H629 0.960 . S
C644 H630 0.960 . S
C644 H631 0.960 . S
C644 C643 1.524 . S
C645 C642 1.403 . S
C645 C646 1.392 . S
C645 C649 1.495 . S
C646 C645 1.392 . S
C646 C647 1.385 . S
C646 C648 1.478 . S
C647 H641 0.930 . S
C647 C643 1.400 . S
C647 C646 1.385 . S
C648 C646 1.478 . S
C648 C650 1.381 . S
C648 C654 1.383 . S
C649 C645 1.495 . S
C649 H655 0.959 . S
C649 H656 0.961 . S
C649 H657 0.960 . S
C650 C648 1.381 . S
C650 C651 1.394 . S
C650 H658 0.930 . S
C651 C650 1.394 . S
C651 C652 1.383 . S
C651 H659 0.929 . S
C652 C651 1.383 . S
C652 C653 1.377 . S
C653 H637 0.930 . S
C653 C652 1.377 . S
C653 C654 1.379 . S
C654 H638 0.931 . S
C654 C648 1.383 . S
C654 C653 1.379 . S
H655 C649 0.959 . S
H656 C649 0.961 . S
H657 C649 0.960 . S
H658 C650 0.930 . S
H659 C651 0.929 . S
H660 C668 0.929 . S
H661 C670 0.930 . S
H662 C672 0.930 . S
H663 C675 0.929 . S
H664 C678 0.930 . S
H665 C680 0.960 . S
H666 C680 0.960 . S
H667 C680 0.960 . S
C668 H660 0.929 . S
C668 C669 1.377 . S
C668 C670 1.384 . S
C669 C668 1.377 . S
C669 C675 1.390 . S
C670 H661 0.930 . S
C670 C668 1.384 . S
C670 C671 1.372 . S
C671 C670 1.372 . S
C671 C672 1.400 . S
C671 C676 1.490 . S
C672 H662 0.930 . S
C672 C671 1.400 . S
C672 C675 1.386 . S
H673 C689 0.930 1_554 S
H674 C690 0.931 . S
C675 H663 0.929 . S
C675 C669 1.390 . S
C675 C672 1.386 . S
C676 C671 1.490 . S
C676 C678 1.395 . S
C676 C679 1.403 . S
H677 C683 0.930 . S
C678 H664 0.930 . S
C678 C676 1.395 . S
C678 C681 1.403 . S
C679 C676 1.403 . S
C679 C680 1.524 . S
C679 C683 1.400 . S
C680 H665 0.960 . S
C680 H666 0.960 . S
C680 H667 0.960 . S
C680 C679 1.524 . S
C681 C678 1.403 . S
C681 C682 1.392 . S
C681 C685 1.495 . S
C682 C681 1.392 . S
C682 C683 1.385 . S
C682 C684 1.478 . S
C683 H677 0.930 . S
C683 C679 1.400 . S
C683 C682 1.385 . S
C684 C682 1.478 . S
C684 C686 1.381 . S
C684 C690 1.383 . S
C685 C681 1.495 . S
C685 H691 0.959 . S
C685 H692 0.961 . S
C685 H693 0.960 . S
C686 C684 1.381 . S
C686 C687 1.394 . S
C686 H694 0.930 . S
C687 C686 1.394 . S
C687 C688 1.383 . S
C687 H695 0.929 . S
C688 C687 1.383 . S
C688 C689 1.377 . S
C689 H673 0.930 1_556 S
C689 C688 1.377 . S
C689 C690 1.379 . S
C690 H674 0.931 . S
C690 C684 1.383 . S
C690 C689 1.379 . S
H691 C685 0.959 . S
H692 C685 0.961 . S
H693 C685 0.960 . S
H694 C686 0.930 . S
H695 C687 0.929 . S
H696 C704 0.929 . S
H697 C706 0.930 . S
H698 C708 0.930 . S
H699 C711 0.929 . S
H700 C714 0.930 . S
H701 C716 0.960 . S
H702 C716 0.960 . S
H703 C716 0.960 . S
C704 H696 0.929 . S
C704 C705 1.377 . S
C704 C706 1.384 . S
C705 C704 1.377 . S
C705 C711 1.390 . S
C706 H697 0.930 . S
C706 C704 1.384 . S
C706 C707 1.372 . S
C707 C706 1.372 . S
C707 C708 1.400 . S
C707 C712 1.490 . S
C708 H698 0.930 . S
C708 C707 1.400 . S
C708 C711 1.386 . S
H709 C725 0.930 . S
H710 C726 0.931 . S
C711 H699 0.929 . S
C711 C705 1.390 . S
C711 C708 1.386 . S
C712 C707 1.490 . S
C712 C714 1.395 . S
C712 C715 1.403 . S
H713 C719 0.930 . S
C714 H700 0.930 . S
C714 C712 1.395 . S
C714 C717 1.403 . S
C715 C712 1.403 . S
C715 C716 1.524 . S
C715 C719 1.400 . S
C716 H701 0.960 . S
C716 H702 0.960 . S
C716 H703 0.960 . S
C716 C715 1.524 . S
C717 C714 1.403 . S
C717 C718 1.392 . S
C717 C721 1.495 . S
C718 C717 1.392 . S
C718 C719 1.385 . S
C718 C720 1.478 . S
C719 H713 0.930 . S
C719 C715 1.400 . S
C719 C718 1.385 . S
C720 C718 1.478 . S
C720 C722 1.381 . S
C720 C726 1.383 . S
C721 C717 1.495 . S
C721 H727 0.959 . S
C721 H728 0.961 . S
C721 H729 0.960 . S
C722 C720 1.381 . S
C722 C723 1.394 . S
C722 H730 0.930 . S
C723 C722 1.394 . S
C723 C724 1.383 . S
C723 H731 0.929 1_655 S
C724 C723 1.383 . S
C724 C725 1.377 . S
C725 H709 0.930 . S
C725 C724 1.377 . S
C725 C726 1.379 . S
C726 H710 0.931 . S
C726 C720 1.383 . S
C726 C725 1.379 . S
H727 C721 0.959 . S
H728 C721 0.961 . S
H729 C721 0.960 . S
H730 C722 0.930 . S
H731 C723 0.929 1_455 S
H732 C740 0.929 . S
H733 C742 0.930 . S
H734 C744 0.930 . S
H735 C747 0.929 . S
H736 C750 0.930 . S
H737 C752 0.960 . S
H738 C752 0.960 . S
H739 C752 0.960 . S
C740 H732 0.929 . S
C740 C741 1.377 . S
C740 C742 1.384 . S
C741 C740 1.377 . S
C741 C747 1.390 . S
C742 H733 0.930 . S
C742 C740 1.384 . S
C742 C743 1.372 . S
C743 C742 1.372 . S
C743 C744 1.400 . S
C743 C748 1.490 . S
C744 H734 0.930 . S
C744 C743 1.400 . S
C744 C747 1.386 . S
H745 C761 0.930 . S
H746 C762 0.931 . S
C747 H735 0.929 . S
C747 C741 1.390 . S
C747 C744 1.386 . S
C748 C743 1.490 . S
C748 C750 1.395 . S
C748 C751 1.403 . S
H749 C755 0.930 . S
C750 H736 0.930 . S
C750 C748 1.395 . S
C750 C753 1.403 . S
C751 C748 1.403 . S
C751 C752 1.524 . S
C751 C755 1.400 . S
C752 H737 0.960 . S
C752 H738 0.960 . S
C752 H739 0.960 . S
C752 C751 1.524 . S
C753 C750 1.403 . S
C753 C754 1.392 . S
C753 C757 1.495 . S
C754 C753 1.392 . S
C754 C755 1.385 . S
C754 C756 1.478 . S
C755 H749 0.930 . S
C755 C751 1.400 . S
C755 C754 1.385 . S
C756 C754 1.478 . S
C756 C758 1.381 . S
C756 C762 1.383 . S
C757 C753 1.495 . S
C757 H763 0.959 . S
C757 H764 0.961 . S
C757 H765 0.960 . S
C758 C756 1.381 . S
C758 C759 1.394 . S
C758 H766 0.930 . S
C759 C758 1.394 . S
C759 C760 1.383 . S
C759 H767 0.929 . S
C760 C759 1.383 . S
C760 C761 1.377 . S
C761 H745 0.930 . S
C761 C760 1.377 . S
C761 C762 1.379 . S
C762 H746 0.931 . S
C762 C756 1.383 . S
C762 C761 1.379 . S
H763 C757 0.959 . S
H764 C757 0.961 . S
H765 C757 0.960 . S
H766 C758 0.930 . S
H767 C759 0.929 . S
H768 C776 0.929 . S
H769 C778 0.930 . S
H770 C780 0.930 . S
H771 C783 0.929 . S
H772 C786 0.930 . S
H773 C788 0.960 . S
H774 C788 0.960 . S
H775 C788 0.960 . S
C776 H768 0.929 . S
C776 C777 1.377 . S
C776 C778 1.384 . S
C777 C776 1.377 . S
C777 C783 1.390 . S
C778 H769 0.930 . S
C778 C776 1.384 . S
C778 C779 1.372 . S
C779 C778 1.372 . S
C779 C780 1.400 . S
C779 C784 1.490 . S
C780 H770 0.930 . S
C780 C779 1.400 . S
C780 C783 1.386 . S
H781 C797 0.930 . S
H782 C798 0.931 . S
C783 H771 0.929 . S
C783 C777 1.390 . S
C783 C780 1.386 . S
C784 C779 1.490 . S
C784 C786 1.395 . S
C784 C787 1.403 . S
H785 C791 0.930 . S
C786 H772 0.930 . S
C786 C784 1.395 . S
C786 C789 1.403 . S
C787 C784 1.403 . S
C787 C788 1.524 . S
C787 C791 1.400 . S
C788 H773 0.960 . S
C788 H774 0.960 . S
C788 H775 0.960 . S
C788 C787 1.524 . S
C789 C786 1.403 . S
C789 C790 1.392 . S
C789 C793 1.495 . S
C790 C789 1.392 . S
C790 C791 1.385 . S
C790 C792 1.478 . S
C791 H785 0.930 . S
C791 C787 1.400 . S
C791 C790 1.385 . S
C792 C790 1.478 . S
C792 C794 1.381 . S
C792 C798 1.383 . S
C793 C789 1.495 . S
C793 H799 0.959 . S
C793 H800 0.961 . S
C793 H801 0.960 . S
C794 C792 1.381 . S
C794 C795 1.394 . S
C794 H802 0.930 . S
C795 C794 1.394 . S
C795 C796 1.383 . S
C795 H803 0.929 . S
C796 C795 1.383 . S
C796 C797 1.377 . S
C797 H781 0.930 . S
C797 C796 1.377 . S
C797 C798 1.379 . S
C798 H782 0.931 . S
C798 C792 1.383 . S
C798 C797 1.379 . S
H799 C793 0.959 . S
H800 C793 0.961 . S
H801 C793 0.960 . S
H802 C794 0.930 . S
H803 C795 0.929 . S
H804 C812 0.929 . S
H805 C814 0.930 . S
H806 C816 0.930 . S
H807 C819 0.929 . S
H808 C822 0.930 . S
H809 C824 0.960 . S
H810 C824 0.960 . S
H811 C824 0.960 . S
C812 H804 0.929 . S
C812 C813 1.377 . S
C812 C814 1.384 . S
C813 C812 1.377 . S
C813 C819 1.390 . S
C814 H805 0.930 . S
C814 C812 1.384 . S
C814 C815 1.372 . S
C815 C814 1.372 . S
C815 C816 1.400 . S
C815 C820 1.490 . S
C816 H806 0.930 . S
C816 C815 1.400 . S
C816 C819 1.386 . S
H817 C833 0.930 . S
H818 C834 0.931 . S
C819 H807 0.929 . S
C819 C813 1.390 . S
C819 C816 1.386 . S
C820 C815 1.490 . S
C820 C822 1.395 . S
C820 C823 1.403 . S
H821 C827 0.930 . S
C822 H808 0.930 . S
C822 C820 1.395 . S
C822 C825 1.403 . S
C823 C820 1.403 . S
C823 C824 1.524 . S
C823 C827 1.400 . S
C824 H809 0.960 . S
C824 H810 0.960 . S
C824 H811 0.960 . S
C824 C823 1.524 . S
C825 C822 1.403 . S
C825 C826 1.392 . S
C825 C829 1.495 . S
C826 C825 1.392 . S
C826 C827 1.385 . S
C826 C828 1.478 . S
C827 H821 0.930 . S
C827 C823 1.400 . S
C827 C826 1.385 . S
C828 C826 1.478 . S
C828 C830 1.381 . S
C828 C834 1.383 . S
C829 C825 1.495 . S
C829 H835 0.959 . S
C829 H836 0.961 . S
C829 H837 0.960 . S
C830 C828 1.381 . S
C830 C831 1.394 . S
C830 H838 0.930 . S
C831 C830 1.394 . S
C831 C832 1.383 . S
C831 H839 0.929 . S
C832 C831 1.383 . S
C832 C833 1.377 . S
C833 H817 0.930 . S
C833 C832 1.377 . S
C833 C834 1.379 . S
C834 H818 0.931 . S
C834 C828 1.383 . S
C834 C833 1.379 . S
H835 C829 0.959 . S
H836 C829 0.961 . S
H837 C829 0.960 . S
H838 C830 0.930 . S
H839 C831 0.929 . S
H840 C848 0.929 . S
H841 C850 0.930 . S
H842 C852 0.930 . S
H843 C855 0.929 . S
H844 C858 0.930 . S
H845 C860 0.960 . S
H846 C860 0.960 . S
H847 C860 0.960 . S
C848 H840 0.929 . S
C848 C849 1.377 . S
C848 C850 1.384 . S
C849 C848 1.377 . S
C849 C855 1.390 . S
C850 H841 0.930 . S
C850 C848 1.384 . S
C850 C851 1.372 . S
C851 C850 1.372 . S
C851 C852 1.400 . S
C851 C856 1.490 . S
C852 H842 0.930 . S
C852 C851 1.400 . S
C852 C855 1.386 . S
H853 C869 0.930 . S
H854 C870 0.931 . S
C855 H843 0.929 . S
C855 C849 1.390 . S
C855 C852 1.386 . S
C856 C851 1.490 . S
C856 C858 1.395 . S
C856 C859 1.403 . S
H857 C863 0.930 . S
C858 H844 0.930 . S
C858 C856 1.395 . S
C858 C861 1.403 . S
C859 C856 1.403 . S
C859 C860 1.524 . S
C859 C863 1.400 . S
C860 H845 0.960 . S
C860 H846 0.960 . S
C860 H847 0.960 . S
C860 C859 1.524 . S
C861 C858 1.403 . S
C861 C862 1.392 . S
C861 C865 1.495 . S
C862 C861 1.392 . S
C862 C863 1.385 . S
C862 C864 1.478 . S
C863 H857 0.930 . S
C863 C859 1.400 . S
C863 C862 1.385 . S
C864 C862 1.478 . S
C864 C866 1.381 . S
C864 C870 1.383 . S
C865 C861 1.495 . S
C865 H871 0.959 . S
C865 H872 0.961 . S
C865 H873 0.960 . S
C866 C864 1.381 . S
C866 C867 1.394 . S
C866 H874 0.930 . S
C867 C866 1.394 . S
C867 C868 1.383 . S
C867 H875 0.929 . S
C868 C867 1.383 . S
C868 C869 1.377 . S
C869 H853 0.930 . S
C869 C868 1.377 . S
C869 C870 1.379 . S
C870 H854 0.931 . S
C870 C864 1.383 . S
C870 C869 1.379 . S
H871 C865 0.959 . S
H872 C865 0.961 . S
H873 C865 0.960 . S
H874 C866 0.930 . S
H875 C867 0.929 . S
H876 C884 0.929 . S
H877 C886 0.930 . S
H878 C888 0.930 . S
H879 C891 0.929 . S
H880 C894 0.930 . S
H881 C896 0.960 . S
H882 C896 0.960 . S
H883 C896 0.960 . S
C884 H876 0.929 . S
C884 C885 1.377 . S
C884 C886 1.384 . S
C885 C884 1.377 . S
C885 C891 1.390 . S
C886 H877 0.930 . S
C886 C884 1.384 . S
C886 C887 1.372 . S
C887 C886 1.372 . S
C887 C888 1.400 . S
C887 C892 1.490 . S
C888 H878 0.930 . S
C888 C887 1.400 . S
C888 C891 1.386 . S
H889 C905 0.930 . S
H890 C906 0.931 . S
C891 H879 0.929 . S
C891 C885 1.390 . S
C891 C888 1.386 . S
C892 C887 1.490 . S
C892 C894 1.395 . S
C892 C895 1.403 . S
H893 C899 0.930 . S
C894 H880 0.930 . S
C894 C892 1.395 . S
C894 C897 1.403 . S
C895 C892 1.403 . S
C895 C896 1.524 . S
C895 C899 1.400 . S
C896 H881 0.960 . S
C896 H882 0.960 . S
C896 H883 0.960 . S
C896 C895 1.524 . S
C897 C894 1.403 . S
C897 C898 1.392 . S
C897 C901 1.495 . S
C898 C897 1.392 . S
C898 C899 1.385 . S
C898 C900 1.478 . S
C899 H893 0.930 . S
C899 C895 1.400 . S
C899 C898 1.385 . S
C900 C898 1.478 . S
C900 C902 1.381 . S
C900 C906 1.383 . S
C901 C897 1.495 . S
C901 H907 0.959 . S
C901 H908 0.961 . S
C901 H909 0.960 . S
C902 C900 1.381 . S
C902 C903 1.394 . S
C902 H910 0.930 . S
C903 C902 1.394 . S
C903 C904 1.383 . S
C903 H911 0.954 . S
C904 C903 1.383 . S
C904 C905 1.377 . S
C905 H889 0.930 . S
C905 C904 1.377 . S
C905 C906 1.379 . S
C906 H890 0.931 . S
C906 C900 1.383 . S
C906 C905 1.379 . S
H907 C901 0.959 . S
H908 C901 0.961 . S
H909 C901 0.960 . S
H910 C902 0.930 . S
H911 C903 0.954 . S
H912 C920 0.929 . S
H913 C922 0.930 . S
H914 C924 0.930 . S
H915 C927 0.929 . S
H916 C930 0.930 . S
H917 C932 0.960 . S
H918 C932 0.960 . S
H919 C932 0.960 . S
C920 H912 0.929 . S
C920 C921 1.377 . S
C920 C922 1.384 . S
C921 C920 1.377 . S
C921 C927 1.390 . S
C922 H913 0.930 . S
C922 C920 1.384 . S
C922 C923 1.372 . S
C923 C922 1.372 . S
C923 C924 1.400 . S
C923 C928 1.490 . S
C924 H914 0.930 . S
C924 C923 1.400 . S
C924 C927 1.386 . S
H925 C941 0.930 . S
H926 C942 0.931 . S
C927 H915 0.929 . S
C927 C921 1.390 . S
C927 C924 1.386 . S
C928 C923 1.490 . S
C928 C930 1.395 . S
C928 C931 1.403 . S
H929 C935 0.930 . S
C930 H916 0.930 . S
C930 C928 1.395 . S
C930 C933 1.403 . S
C931 C928 1.403 . S
C931 C932 1.524 . S
C931 C935 1.400 . S
C932 H917 0.960 . S
C932 H918 0.960 . S
C932 H919 0.960 . S
C932 C931 1.524 . S
C933 C930 1.403 . S
C933 C934 1.392 . S
C933 C937 1.495 . S
C934 C933 1.392 . S
C934 C935 1.385 . S
C934 C936 1.478 . S
C935 H929 0.930 . S
C935 C931 1.400 . S
C935 C934 1.385 . S
C936 C934 1.478 . S
C936 C938 1.381 . S
C936 C942 1.383 . S
C937 C933 1.495 . S
C937 H943 0.959 . S
C937 H944 0.961 . S
C937 H945 0.960 . S
C938 C936 1.381 . S
C938 C939 1.394 . S
C938 H946 0.930 . S
C939 C938 1.394 . S
C939 C940 1.383 . S
C939 H947 0.929 . S
C940 C939 1.383 . S
C940 C941 1.377 . S
C941 H925 0.930 . S
C941 C940 1.377 . S
C941 C942 1.379 . S
C942 H926 0.931 . S
C942 C936 1.383 . S
C942 C941 1.379 . S
H943 C937 0.959 . S
H944 C937 0.961 . S
H945 C937 0.960 . S
H946 C938 0.930 . S
H947 C939 0.929 . S
H948 C956 0.929 . S
H949 C958 0.930 . S
H950 C960 0.930 . S
H951 C963 0.929 . S
H952 C966 0.930 . S
H953 C968 0.960 . S
H954 C968 0.960 . S
H955 C968 0.960 . S
C956 H948 0.929 . S
C956 C957 1.377 . S
C956 C958 1.384 . S
C957 C956 1.377 . S
C957 C963 1.390 . S
C958 H949 0.930 . S
C958 C956 1.384 . S
C958 C959 1.372 . S
C959 C958 1.372 . S
C959 C960 1.400 . S
C959 C964 1.490 . S
C960 H950 0.930 . S
C960 C959 1.400 . S
C960 C963 1.386 . S
H961 C977 0.930 . S
H962 C978 0.931 . S
C963 H951 0.929 . S
C963 C957 1.390 . S
C963 C960 1.386 . S
C964 C959 1.490 . S
C964 C966 1.395 . S
C964 C967 1.403 . S
H965 C971 0.930 . S
C966 H952 0.930 . S
C966 C964 1.395 . S
C966 C969 1.403 . S
C967 C964 1.403 . S
C967 C968 1.524 . S
C967 C971 1.400 . S
C968 H953 0.960 . S
C968 H954 0.960 . S
C968 H955 0.960 . S
C968 C967 1.524 . S
C969 C966 1.403 . S
C969 C970 1.392 . S
C969 C973 1.495 . S
C970 C969 1.392 . S
C970 C971 1.385 . S
C970 C972 1.478 . S
C971 H965 0.930 . S
C971 C967 1.400 . S
C971 C970 1.385 . S
C972 C970 1.478 . S
C972 C974 1.381 . S
C972 C978 1.383 . S
C973 C969 1.495 . S
C973 H979 0.959 . S
C973 H980 0.961 . S
C973 H981 0.960 . S
C974 C972 1.381 . S
C974 C975 1.394 . S
C974 H982 0.930 . S
C975 C974 1.394 . S
C975 C976 1.383 . S
C975 H983 0.929 . S
C976 C975 1.383 . S
C976 C977 1.377 . S
C977 H961 0.930 . S
C977 C976 1.377 . S
C977 C978 1.379 . S
C978 H962 0.931 . S
C978 C972 1.383 . S
C978 C977 1.379 . S
H979 C973 0.959 . S
H980 C973 0.961 . S
H981 C973 0.960 . S
H982 C974 0.930 . S
H983 C975 0.929 . S
H984 C992 0.929 . S
H985 C994 0.930 . S
H986 C996 0.930 . S
H987 C999 0.929 . S
H988 C1002 0.930 . S
H989 C1004 0.960 . S
H990 C1004 0.960 . S
H991 C1004 0.960 . S
C992 H984 0.929 . S
C992 C993 1.377 . S
C992 C994 1.384 . S
C993 C992 1.377 . S
C993 C999 1.390 . S
C994 H985 0.930 . S
C994 C992 1.384 . S
C994 C995 1.372 . S
C995 C994 1.372 . S
C995 C996 1.400 . S
C995 C1000 1.490 . S
C996 H986 0.930 . S
C996 C995 1.400 . S
C996 C999 1.386 . S
H997 C1013 0.930 . S
H998 C1014 0.931 . S
C999 H987 0.929 . S
C999 C993 1.390 . S
C999 C996 1.386 . S
C1000 C995 1.490 . S
C1000 C1002 1.395 . S
C1000 C1003 1.403 . S
H1001 C1007 0.930 . S
C1002 H988 0.930 . S
C1002 C1000 1.395 . S
C1002 C1005 1.403 . S
C1003 C1000 1.403 . S
C1003 C1004 1.524 . S
C1003 C1007 1.400 . S
C1004 H989 0.960 . S
C1004 H990 0.960 . S
C1004 H991 0.960 . S
C1004 C1003 1.524 . S
C1005 C1002 1.403 . S
C1005 C1006 1.392 . S
C1005 C1009 1.495 . S
C1006 C1005 1.392 . S
C1006 C1007 1.385 . S
C1006 C1008 1.478 . S
C1007 H1001 0.930 . S
C1007 C1003 1.400 . S
C1007 C1006 1.385 . S
C1008 C1006 1.478 . S
C1008 C1010 1.381 . S
C1008 C1014 1.383 . S
C1009 C1005 1.495 . S
C1009 H1015 0.959 . S
C1009 H1016 0.961 . S
C1009 H1017 0.960 . S
C1010 C1008 1.381 . S
C1010 C1011 1.394 . S
C1010 H1018 0.930 . S
C1011 C1010 1.394 . S
C1011 C1012 1.383 . S
C1011 H1019 0.929 . S
C1012 C1011 1.383 . S
C1012 C1013 1.377 . S
C1013 H997 0.930 . S
C1013 C1012 1.377 . S
C1013 C1014 1.379 . S
C1014 H998 0.931 . S
C1014 C1008 1.383 . S
C1014 C1013 1.379 . S
H1015 C1009 0.959 . S
H1016 C1009 0.961 . S
H1017 C1009 0.960 . S
H1018 C1010 0.930 . S
H1019 C1011 0.929 . S
H1020 C1028 0.929 . S
H1021 C1030 0.930 . S
H1022 C1032 0.930 . S
H1023 C1035 0.929 . S
H1024 C1038 0.930 . S
H1025 C1040 0.960 . S
H1026 C1040 0.960 . S
H1027 C1040 0.960 . S
C1028 H1020 0.929 . S
C1028 C1029 1.377 . S
C1028 C1030 1.384 . S
C1029 C1028 1.377 . S
C1029 C1035 1.390 . S
C1030 H1021 0.930 . S
C1030 C1028 1.384 . S
C1030 C1031 1.372 . S
C1031 C1030 1.372 . S
C1031 C1032 1.400 . S
C1031 C1036 1.490 . S
C1032 H1022 0.930 . S
C1032 C1031 1.400 . S
C1032 C1035 1.386 . S
H1033 C1049 0.930 . S
H1034 C1050 0.931 . S
C1035 H1023 0.929 . S
C1035 C1029 1.390 . S
C1035 C1032 1.386 . S
C1036 C1031 1.490 . S
C1036 C1038 1.395 . S
C1036 C1039 1.403 . S
H1037 C1043 0.930 . S
C1038 H1024 0.930 . S
C1038 C1036 1.395 . S
C1038 C1041 1.403 . S
C1039 C1036 1.403 . S
C1039 C1040 1.524 . S
C1039 C1043 1.400 . S
C1040 H1025 0.960 . S
C1040 H1026 0.960 . S
C1040 H1027 0.960 . S
C1040 C1039 1.524 . S
C1041 C1038 1.403 . S
C1041 C1042 1.392 . S
C1041 C1045 1.495 . S
C1042 C1041 1.392 . S
C1042 C1043 1.385 . S
C1042 C1044 1.478 . S
C1043 H1037 0.930 . S
C1043 C1039 1.400 . S
C1043 C1042 1.385 . S
C1044 C1042 1.478 . S
C1044 C1046 1.381 . S
C1044 C1050 1.383 . S
C1045 C1041 1.495 . S
C1045 H1051 0.959 . S
C1045 H1052 0.961 . S
C1045 H1053 0.960 . S
C1046 C1044 1.381 . S
C1046 C1047 1.394 . S
C1046 H1054 0.930 . S
C1047 C1046 1.394 . S
C1047 C1048 1.383 . S
C1047 H1055 0.929 . S
C1048 C1047 1.383 . S
C1048 C1049 1.377 . S
C1049 H1033 0.930 . S
C1049 C1048 1.377 . S
C1049 C1050 1.379 . S
C1050 H1034 0.931 . S
C1050 C1044 1.383 . S
C1050 C1049 1.379 . S
H1051 C1045 0.959 . S
H1052 C1045 0.961 . S
H1053 C1045 0.960 . S
H1054 C1046 0.930 . S
H1055 C1047 0.929 . S
H1056 C1064 0.929 . S
H1057 C1066 0.930 . S
H1058 C1068 0.930 . S
H1059 C1071 0.929 . S
H1060 C1074 0.930 . S
H1061 C1076 0.960 . S
H1062 C1076 0.960 . S
H1063 C1076 0.960 . S
C1064 H1056 0.929 . S
C1064 C1065 1.377 . S
C1064 C1066 1.384 . S
C1065 C1064 1.377 . S
C1065 C1071 1.390 . S
C1066 H1057 0.930 . S
C1066 C1064 1.384 . S
C1066 C1067 1.372 . S
C1067 C1066 1.372 . S
C1067 C1068 1.400 . S
C1067 C1072 1.490 . S
C1068 H1058 0.930 . S
C1068 C1067 1.400 . S
C1068 C1071 1.386 . S
H1069 C1085 0.930 . S
H1070 C1086 0.931 . S
C1071 H1059 0.929 . S
C1071 C1065 1.390 . S
C1071 C1068 1.386 . S
C1072 C1067 1.490 . S
C1072 C1074 1.395 . S
C1072 C1075 1.403 . S
H1073 C1079 0.930 . S
C1074 H1060 0.930 . S
C1074 C1072 1.395 . S
C1074 C1077 1.403 . S
C1075 C1072 1.403 . S
C1075 C1076 1.524 . S
C1075 C1079 1.400 . S
C1076 H1061 0.960 . S
C1076 H1062 0.960 . S
C1076 H1063 0.960 . S
C1076 C1075 1.524 . S
C1077 C1074 1.403 . S
C1077 C1078 1.392 . S
C1077 C1081 1.495 . S
C1078 C1077 1.392 . S
C1078 C1079 1.385 . S
C1078 C1080 1.478 . S
C1079 H1073 0.930 . S
C1079 C1075 1.400 . S
C1079 C1078 1.385 . S
C1080 C1078 1.478 . S
C1080 C1082 1.381 . S
C1080 C1086 1.383 . S
C1081 C1077 1.495 . S
C1081 H1087 0.959 . S
C1081 H1088 0.961 . S
C1081 H1089 0.960 . S
C1082 C1080 1.381 . S
C1082 C1083 1.394 . S
C1082 H1090 0.930 . S
C1083 C1082 1.394 . S
C1083 C1084 1.383 . S
C1083 H1091 0.929 . S
C1084 C1083 1.383 . S
C1084 C1085 1.377 . S
C1085 H1069 0.930 . S
C1085 C1084 1.377 . S
C1085 C1086 1.379 . S
C1086 H1070 0.931 . S
C1086 C1080 1.383 . S
C1086 C1085 1.379 . S
H1087 C1081 0.959 . S
H1088 C1081 0.961 . S
H1089 C1081 0.960 . S
H1090 C1082 0.930 . S
H1091 C1083 0.929 . S
H1092 C1100 0.929 . S
H1093 C1102 0.930 . S
H1094 C1104 0.930 . S
H1095 C1107 0.929 . S
H1096 C1110 0.930 . S
H1097 C1112 0.960 . S
H1098 C1112 0.960 . S
H1099 C1112 0.960 . S
C1100 H1092 0.929 . S
C1100 C1101 1.377 . S
C1100 C1102 1.384 . S
C1101 C1100 1.377 . S
C1101 C1107 1.390 . S
C1102 H1093 0.930 . S
C1102 C1100 1.384 . S
C1102 C1103 1.372 . S
C1103 C1102 1.372 . S
C1103 C1104 1.400 . S
C1103 C1108 1.490 . S
C1104 H1094 0.930 . S
C1104 C1103 1.400 . S
C1104 C1107 1.386 . S
H1105 C1121 0.930 . S
H1106 C1122 0.931 . S
C1107 H1095 0.929 . S
C1107 C1101 1.390 . S
C1107 C1104 1.386 . S
C1108 C1103 1.490 . S
C1108 C1110 1.395 . S
C1108 C1111 1.403 . S
H1109 C1115 0.930 . S
C1110 H1096 0.930 . S
C1110 C1108 1.395 . S
C1110 C1113 1.403 . S
C1111 C1108 1.403 . S
C1111 C1112 1.524 . S
C1111 C1115 1.400 . S
C1112 H1097 0.960 . S
C1112 H1098 0.960 . S
C1112 H1099 0.960 . S
C1112 C1111 1.524 . S
C1113 C1110 1.403 . S
C1113 C1114 1.392 . S
C1113 C1117 1.495 . S
C1114 C1113 1.392 . S
C1114 C1115 1.385 . S
C1114 C1116 1.478 . S
C1115 H1109 0.930 . S
C1115 C1111 1.400 . S
C1115 C1114 1.385 . S
C1116 C1114 1.478 . S
C1116 C1118 1.381 . S
C1116 C1122 1.383 . S
C1117 C1113 1.495 . S
C1117 H1123 0.959 . S
C1117 H1124 0.961 . S
C1117 H1125 0.960 . S
C1118 C1116 1.381 . S
C1118 C1119 1.394 . S
C1118 H1126 0.930 . S
C1119 C1118 1.394 . S
C1119 C1120 1.383 . S
C1119 H1127 0.929 . S
C1120 C1119 1.383 . S
C1120 C1121 1.377 . S
C1121 H1105 0.930 . S
C1121 C1120 1.377 . S
C1121 C1122 1.379 . S
C1122 H1106 0.931 . S
C1122 C1116 1.383 . S
C1122 C1121 1.379 . S
H1123 C1117 0.959 . S
H1124 C1117 0.961 . S
H1125 C1117 0.960 . S
H1126 C1118 0.930 . S
H1127 C1119 0.929 . S
H1128 C1136 0.929 . S
H1129 C1138 0.930 . S
H1130 C1140 0.930 . S
H1131 C1143 0.929 . S
H1132 C1146 0.930 . S
H1133 C1148 0.960 . S
H1134 C1148 0.960 . S
H1135 C1148 0.960 . S
C1136 H1128 0.929 . S
C1136 C1137 1.377 . S
C1136 C1138 1.384 . S
C1137 C1136 1.377 . S
C1137 C1143 1.390 . S
C1138 H1129 0.930 . S
C1138 C1136 1.384 . S
C1138 C1139 1.372 . S
C1139 C1138 1.372 . S
C1139 C1140 1.400 . S
C1139 C1144 1.490 . S
C1140 H1130 0.930 . S
C1140 C1139 1.400 . S
C1140 C1143 1.386 . S
H1141 C1157 0.932 . S
H1142 C1158 0.931 . S
C1143 H1131 0.929 . S
C1143 C1137 1.390 . S
C1143 C1140 1.386 . S
C1144 C1139 1.490 . S
C1144 C1146 1.395 . S
C1144 C1147 1.403 . S
H1145 C1151 0.930 . S
C1146 H1132 0.930 . S
C1146 C1144 1.395 . S
C1146 C1149 1.403 . S
C1147 C1144 1.403 . S
C1147 C1148 1.524 . S
C1147 C1151 1.400 . S
C1148 H1133 0.960 . S
C1148 H1134 0.960 . S
C1148 H1135 0.960 . S
C1148 C1147 1.524 . S
C1149 C1146 1.403 . S
C1149 C1150 1.392 . S
C1149 C1153 1.495 . S
C1150 C1149 1.392 . S
C1150 C1151 1.385 . S
C1150 C1152 1.478 . S
C1151 H1145 0.930 . S
C1151 C1147 1.400 . S
C1151 C1150 1.385 . S
C1152 C1150 1.478 . S
C1152 C1154 1.381 . S
C1152 C1158 1.383 . S
C1153 C1149 1.495 . S
C1153 H1159 0.959 . S
C1153 H1160 0.961 . S
C1153 H1161 0.960 . S
C1154 C1152 1.381 . S
C1154 C1155 1.394 . S
C1154 H1162 0.930 . S
C1155 C1154 1.394 . S
C1155 C1156 1.383 . S
C1155 H1163 0.929 . S
C1156 C1155 1.383 . S
C1156 C1157 1.377 . S
C1157 H1141 0.932 . S
C1157 C1156 1.377 . S
C1157 C1158 1.379 . S
C1158 H1142 0.931 . S
C1158 C1152 1.383 . S
C1158 C1157 1.379 . S
H1159 C1153 0.959 . S
H1160 C1153 0.961 . S
H1161 C1153 0.960 . S
H1162 C1154 0.930 . S
H1163 C1155 0.929 . S
H1164 C1172 0.929 . S
H1165 C1174 0.930 . S
H1166 C1176 0.930 . S
H1167 C1179 0.929 . S
H1168 C1182 0.930 . S
H1169 C1184 0.960 . S
H1170 C1184 0.960 . S
H1171 C1184 0.960 . S
C1172 H1164 0.929 . S
C1172 C1173 1.377 . S
C1172 C1174 1.384 . S
C1173 C1172 1.377 . S
C1173 C1179 1.390 . S
C1174 H1165 0.930 . S
C1174 C1172 1.384 . S
C1174 C1175 1.372 . S
C1175 C1174 1.372 . S
C1175 C1176 1.400 . S
C1175 C1180 1.490 . S
C1176 H1166 0.930 . S
C1176 C1175 1.400 . S
C1176 C1179 1.386 . S
H1177 C1193 0.930 . S
H1178 C1194 0.931 . S
C1179 H1167 0.929 . S
C1179 C1173 1.390 . S
C1179 C1176 1.386 . S
C1180 C1175 1.490 . S
C1180 C1182 1.395 . S
C1180 C1183 1.403 . S
H1181 C1187 0.930 . S
C1182 H1168 0.930 . S
C1182 C1180 1.395 . S
C1182 C1185 1.403 . S
C1183 C1180 1.403 . S
C1183 C1184 1.524 . S
C1183 C1187 1.400 . S
C1184 H1169 0.960 . S
C1184 H1170 0.960 . S
C1184 H1171 0.960 . S
C1184 C1183 1.524 . S
C1185 C1182 1.403 . S
C1185 C1186 1.392 . S
C1185 C1189 1.495 . S
C1186 C1185 1.392 . S
C1186 C1187 1.385 . S
C1186 C1188 1.478 . S
C1187 H1181 0.930 . S
C1187 C1183 1.400 . S
C1187 C1186 1.385 . S
C1188 C1186 1.478 . S
C1188 C1190 1.381 . S
C1188 C1194 1.383 . S
C1189 C1185 1.495 . S
C1189 H1195 0.959 . S
C1189 H1196 0.961 . S
C1189 H1197 0.960 . S
C1190 C1188 1.381 . S
C1190 C1191 1.394 . S
C1190 H1198 0.930 . S
C1191 C1190 1.394 . S
C1191 C1192 1.383 . S
C1191 H1199 0.929 . S
C1192 C1191 1.383 . S
C1192 C1193 1.377 . S
C1193 H1177 0.930 . S
C1193 C1192 1.377 . S
C1193 C1194 1.379 . S
C1194 H1178 0.931 . S
C1194 C1188 1.383 . S
C1194 C1193 1.379 . S
H1195 C1189 0.959 . S
H1196 C1189 0.961 . S
H1197 C1189 0.960 . S
H1198 C1190 0.930 . S
H1199 C1191 0.929 . S
C345 C29 1.565 . S
C364 C258 1.531 . S
C381 C49 1.322 . S
C400 C277 1.284 . S
C436 C314 1.739 . S
C417 C93 1.734 . S
C453 C119 1.575 . S
C472 C324 1.586 . S
C508 C294 1.947 . S
C489 C17 1.960 . S
C544 C264 1.444 . S
C525 C61 1.531 . S
C580 C335 1.444 . S
C561 C81 1.463 . S
C616 C305 1.369 . S
C597 C125 1.380 . S
C633 C23 1.741 . S
C652 C318 1.731 . S
C688 C285 1.682 . S
C669 C87 1.681 . S
C705 C113 1.717 . S
C724 C275 1.748 . S
C741 C55 1.204 . S
C760 C297 1.206 . S
C796 C257 1.490 . S
C777 C157 1.405 . S
C813 C189 1.346 . S
C832 C278 1.378 . S
C849 C221 1.718 . S
C868 C315 1.704 . S
C885 C253 1.644 . S
C904 C325 1.665 . S
C921 C145 1.923 . S
C940 C295 2.022 . S
C976 C265 1.381 . S
C957 C183 1.414 . S
C1012 C334 1.523 . S
C993 C209 1.512 . S
C1048 C304 1.356 . S
C1029 C247 1.327 . S
C1065 C151 1.655 . S
C1084 C317 1.722 . S
C1120 C284 1.674 . S
C1101 C215 1.690 . S
C1156 C274 1.706 . S
C1137 C241 1.670 . S
C1173 C177 1.190 . S
C1192 C298 1.203 . S
