# Generated by pormake.
# Topology anh, (6,3)-cn, num edge types: 1
# Building blocks:
#     Node 0, Type 0, BuildingBlock: CUKXOW_clean_sbu_0, # of connection points: 6
#     Node 1, Type 0, BuildingBlock: CUKXOW_clean_sbu_0, # of connection points: 6
#     Node 2, Type 0, BuildingBlock: CUKXOW_clean_sbu_0, # of connection points: 6
#     Node 3, Type 1, BuildingBlock: BELTOD_clean_linker_0, # of connection points: 3
#     Node 4, Type 1, BuildingBlock: BELTOD_clean_linker_0, # of connection points: 3
#     Node 5, Type 1, BuildingBlock: BELTOD_clean_linker_0, # of connection points: 3
#     Node 6, Type 1, BuildingBlock: BELTOD_clean_linker_0, # of connection points: 3
#     Node 7, Type 1, BuildingBlock: BELTOD_clean_linker_0, # of connection points: 3
#     Node 8, Type 1, BuildingBlock: BELTOD_clean_linker_0, # of connection points: 3
#     Edge 9, Type (0, 1), BuildingBlock: XUDNAN_clean_linker_2, # of connection points: 2
#     Edge 10, Type (0, 1), BuildingBlock: XUDNAN_clean_linker_2, # of connection points: 2
#     Edge 11, Type (0, 1), BuildingBlock: XUDNAN_clean_linker_2, # of connection points: 2
#     Edge 12, Type (0, 1), BuildingBlock: XUDNAN_clean_linker_2, # of connection points: 2
#     Edge 13, Type (0, 1), BuildingBlock: XUDNAN_clean_linker_2, # of connection points: 2
#     Edge 14, Type (0, 1), BuildingBlock: XUDNAN_clean_linker_2, # of connection points: 2
#     Edge 15, Type (0, 1), BuildingBlock: XUDNAN_clean_linker_2, # of connection points: 2
#     Edge 16, Type (0, 1), BuildingBlock: XUDNAN_clean_linker_2, # of connection points: 2
#     Edge 17, Type (0, 1), BuildingBlock: XUDNAN_clean_linker_2, # of connection points: 2
#     Edge 18, Type (0, 1), BuildingBlock: XUDNAN_clean_linker_2, # of connection points: 2
#     Edge 19, Type (0, 1), BuildingBlock: XUDNAN_clean_linker_2, # of connection points: 2
#     Edge 20, Type (0, 1), BuildingBlock: XUDNAN_clean_linker_2, # of connection points: 2
#     Edge 21, Type (0, 1), BuildingBlock: XUDNAN_clean_linker_2, # of connection points: 2
#     Edge 22, Type (0, 1), BuildingBlock: XUDNAN_clean_linker_2, # of connection points: 2
#     Edge 23, Type (0, 1), BuildingBlock: XUDNAN_clean_linker_2, # of connection points: 2
#     Edge 24, Type (0, 1), BuildingBlock: XUDNAN_clean_linker_2, # of connection points: 2
#     Edge 25, Type (0, 1), BuildingBlock: XUDNAN_clean_linker_2, # of connection points: 2
#     Edge 26, Type (0, 1), BuildingBlock: XUDNAN_clean_linker_2, # of connection points: 2
# Relax obj value: 0.123
# Max RMSD: 0.188
# Mean RMSD: 0.130
data_MOF--net-anh--node1-CUKXOW_clean_sbu_0--node2-BELTOD_clean_linker_0--edge1-XUDNAN_clean_linker_2
_symmetry_space_group_name_H-M    P1
_symmetry_Int_Tables_number       1
_symmetry_cell_setting            triclinic
loop_
_symmetry_equiv_pos_as_xyz
'x, y, z'
_cell_length_a     32.853162
_cell_length_b     31.817451
_cell_length_c     59.417977
_cell_angle_alpha  95.597244
_cell_angle_beta   90.256168
_cell_angle_gamma 115.21776
loop_
_atom_site_label
_atom_site_type_symbol
_atom_site_fract_x
_atom_site_fract_y
_atom_site_fract_z
_atom_type_partial_charge
Tb0 Tb 0.09776 0.59833 0.16825 0.0
C1 C 0.05705 0.51944 0.19949 0.0
Tb2 Tb 0.03715 0.50402 0.14555 0.0
O3 O 0.04135 0.6078 0.18315 0.0
O4 O 0.03145 0.56824 0.15183 0.0
O5 O 0.08985 0.56138 0.19783 0.0
C6 C 0.96152 0.42487 0.13707 0.0
O7 O 0.03147 0.49271 0.1816 0.0
C8 C 0.12345 0.52111 0.14715 0.0
C9 C 0.08018 0.58418 0.11472 0.0
O10 O 1.00042 0.43208 0.12906 0.0
O11 O 0.96532 0.46236 0.14935 0.0
O12 O 0.09416 0.49295 0.13147 0.0
O13 O 0.10248 0.53389 0.16209 0.0
O14 O 0.04662 0.5422 0.11583 0.0
O15 O 0.10562 0.6096 0.13278 0.0
C16 C 0.17222 0.67758 0.17895 0.0
O17 O 0.1706 0.63952 0.1682 0.0
O18 O 0.13169 0.6712 0.18391 0.0
C19 C 1.01141 0.58075 0.16748 0.0
Tb20 Tb 0.47758 0.99695 0.49932 0.0
C21 C 0.53006 0.02767 0.45615 0.0
Tb22 Tb 0.57548 0.06813 0.50542 0.0
O23 O 0.45548 0.04712 0.48718 0.0
O24 O 0.5121 0.06977 0.50921 0.0
O25 O 0.49829 0.99202 0.46491 0.0
C26 C 0.65387 0.14297 0.50423 0.0
O27 O 0.56056 0.06403 0.46904 0.0
C28 C 0.56082 0.98116 0.5087 0.0
C29 C 0.52239 0.04012 0.54928 0.0
O30 O 0.64619 0.10033 0.49702 0.0
O31 O 0.61745 0.14355 0.51231 0.0
O32 O 0.59403 0.01707 0.51938 0.0
O33 O 0.54062 0.99521 0.49533 0.0
O34 O 0.56012 0.06945 0.54094 0.0
O35 O 0.48717 0.00944 0.5363 0.0
C36 C 0.4048 0.91674 0.50165 0.0
O37 O 0.44216 0.93094 0.51366 0.0
O38 O 0.40813 0.94778 0.48821 0.0
C39 C 0.49026 0.0833 0.49657 0.0
Tb40 Tb 0.45368 0.4794 0.82649 0.0
C41 C 0.48947 0.48915 0.8756 0.0
Tb42 Tb 0.55056 0.49885 0.83388 0.0
O43 O 0.42878 0.40824 0.83592 0.0
O44 O 0.49131 0.43922 0.82178 0.0
O45 O 0.46189 0.49863 0.86288 0.0
C46 C 0.62689 0.49912 0.84893 0.0
O47 O 0.52196 0.4798 0.86663 0.0
C48 C 0.53703 0.57295 0.82859 0.0
C49 C 0.51396 0.48426 0.78377 0.0
O50 O 0.60707 0.52305 0.85854 0.0
O51 O 0.60445 0.47552 0.83037 0.0
O52 O 0.57353 0.56892 0.82322 0.0
O53 O 0.51274 0.53869 0.83883 0.0
O54 O 0.54852 0.48876 0.79702 0.0
O55 O 0.47507 0.48062 0.79175 0.0
C56 C 0.38277 0.49245 0.81341 0.0
O57 O 0.42376 0.51579 0.80784 0.0
O58 O 0.38148 0.46163 0.82654 0.0
C59 C 0.46587 0.40454 0.83145 0.0
P60 P 0.62721 0.0257 0.22143 0.0
H61 H 0.57422 0.92563 0.22106 0.0
H62 H 0.49471 0.87486 0.21204 0.0
H63 H 0.47659 0.99075 0.18896 0.0
H64 H 0.55646 0.04158 0.19832 0.0
H65 H 0.63186 0.03427 0.17301 0.0
H66 H 0.6799 0.09705 0.15127 0.0
H67 H 0.73617 0.18683 0.21361 0.0
H68 H 0.68751 0.12417 0.23514 0.0
H69 H 0.57056 0.06713 0.24238 0.0
H70 H 0.66765 0.01985 0.26452 0.0
O71 O 0.65836 0.99569 0.22065 0.0
H72 H 0.54872 0.07366 0.28144 0.0
H73 H 0.64649 0.02717 0.30364 0.0
C74 C 0.57146 0.9871 0.2099 0.0
C75 C 0.55346 0.93982 0.21345 0.0
C76 C 0.50789 0.91081 0.20831 0.0
C77 C 0.47924 0.92872 0.19977 0.0
C78 C 0.4977 0.97596 0.19567 0.0
C79 C 0.54343 1.00493 0.20076 0.0
C80 C 0.65543 0.07486 0.20566 0.0
C81 C 0.65366 0.06792 0.18195 0.0
C82 C 0.6815 0.10369 0.16955 0.0
C83 C 0.71203 0.14699 0.18068 0.0
C84 C 0.7126 0.15424 0.20446 0.0
C85 C 0.68476 0.11837 0.21683 0.0
C86 C 0.62017 0.04227 0.2505 0.0
C87 C 0.58786 0.05912 0.25568 0.0
C88 C 0.57535 0.06276 0.27798 0.0
C89 C 0.59558 0.0504 0.29548 0.0
C90 C 0.63046 0.03706 0.29048 0.0
C91 C 0.64248 0.03276 0.2681 0.0
P92 P 0.61505 0.5711 0.55279 0.0
H93 H 0.60888 0.52791 0.50614 0.0
H94 H 0.58246 0.44591 0.49005 0.0
H95 H 0.53348 0.40108 0.55485 0.0
H96 H 0.55895 0.48179 0.57065 0.0
H97 H 0.66757 0.66896 0.54683 0.0
H98 H 0.64814 0.72964 0.53531 0.0
H99 H 0.50893 0.62895 0.52402 0.0
H100 H 0.52945 0.56762 0.53471 0.0
H101 H 0.66266 0.55811 0.59124 0.0
H102 H 0.5447 0.58164 0.5797 0.0
O103 O 0.66997 0.58732 0.54961 0.0
H104 H 0.6411 0.54183 0.6299 0.0
H105 H 0.52347 0.56633 0.61833 0.0
C106 C 0.58609 0.51147 0.53961 0.0
C107 C 0.59146 0.50037 0.51671 0.0
C108 C 0.57654 0.45352 0.50757 0.0
C109 C 0.55659 0.41709 0.52132 0.0
C110 C 0.5495 0.42836 0.54394 0.0
C111 C 0.56391 0.4749 0.55296 0.0
C112 C 0.60013 0.61353 0.54128 0.0
C113 C 0.63298 0.65962 0.54145 0.0
C114 C 0.62161 0.69461 0.53516 0.0
C115 C 0.57677 0.68463 0.52894 0.0
C116 C 0.54389 0.63803 0.52845 0.0
C117 C 0.55551 0.60283 0.53457 0.0
C118 C 0.60567 0.57179 0.58265 0.0
C119 C 0.63298 0.56139 0.59725 0.0
C120 C 0.62059 0.55201 0.61936 0.0
C121 C 0.58036 0.55236 0.62709 0.0
C122 C 0.55435 0.56516 0.61276 0.0
C123 C 0.56675 0.57449 0.5907 0.0
P124 P 0.09664 0.6853 0.88608 0.0
H125 H 0.18111 0.72315 0.86338 0.0
H126 H 0.21946 0.68625 0.83918 0.0
H127 H 0.10759 0.55143 0.84243 0.0
H128 H 0.06992 0.58831 0.86687 0.0
H129 H 0.02552 0.68475 0.8562 0.0
H130 H 0.9436 0.63834 0.85357 0.0
H131 H 0.95511 0.56222 0.90777 0.0
H132 H 0.03619 0.60844 0.91042 0.0
H133 H 0.13041 0.62785 0.90905 0.0
H134 H 0.10041 0.74607 0.92651 0.0
O135 O 0.10873 0.73918 0.87974 0.0
H136 H 0.13985 0.62149 0.94927 0.0
H137 H 0.11008 0.74009 0.96667 0.0
C138 C 0.12253 0.65858 0.86666 0.0
C139 C 0.1646 0.68577 0.85857 0.0
C140 C 0.18628 0.66468 0.84463 0.0
C141 C 0.16629 0.61599 0.83878 0.0
C142 C 0.12377 0.58899 0.84668 0.0
C143 C 0.10214 0.61012 0.86059 0.0
C144 C 0.03673 0.65113 0.88396 0.0
C145 C 1.01028 0.65818 0.86754 0.0
C146 C 0.96366 0.63134 0.8659 0.0
C147 C 0.94312 0.59698 0.88061 0.0
C148 C 0.97003 0.58901 0.8965 0.0
C149 C 0.01645 0.61569 0.89807 0.0
C150 C 0.11553 0.68804 0.91482 0.0
C151 C 0.12725 0.65335 0.92149 0.0
C152 C 0.13206 0.64933 0.94446 0.0
C153 C 0.12554 0.68019 0.96105 0.0
C154 C 0.1158 0.71615 0.95425 0.0
C155 C 0.11048 0.71977 0.93132 0.0
P156 P 0.08526 0.44982 0.4338 0.0
H157 H 0.15938 0.48607 0.46798 0.0
H158 H 0.20627 0.56445 0.48606 0.0
H159 H 0.12831 0.61872 0.44953 0.0
H160 H 0.08237 0.54002 0.43091 0.0
H161 H 0.04734 0.36359 0.45561 0.0
H162 H 0.97576 0.32288 0.47281 0.0
H163 H 0.93771 0.43308 0.4599 0.0
H164 H 1.01025 0.47434 0.44327 0.0
H165 H 0.14346 0.49853 0.39913 0.0
H166 H 1.00302 0.40614 0.40362 0.0
O167 O 0.11526 0.41878 0.43455 0.0
H168 H 0.13058 0.50036 0.35881 0.0
H169 H 0.9894 0.40943 0.36366 0.0
C170 C 0.11798 0.50746 0.44785 0.0
C171 C 0.1524 0.51483 0.46384 0.0
C172 C 0.17892 0.55969 0.47435 0.0
C173 C 0.17112 0.59801 0.46926 0.0
C174 C 0.13566 0.59015 0.4536 0.0
C175 C 0.10924 0.54518 0.44303 0.0
C176 C 0.03402 0.42193 0.44814 0.0
C177 C 0.02385 0.37928 0.45668 0.0
C178 C 0.9827 0.35584 0.46638 0.0
C179 C 0.95076 0.37448 0.46756 0.0
C180 C 0.96168 0.41796 0.45949 0.0
C181 C 1.00305 0.44152 0.4499 0.0
C182 C 0.07414 0.45296 0.40448 0.0
C183 C 0.1097 0.47926 0.3915 0.0
C184 C 0.10219 0.48044 0.36846 0.0
C185 C 0.05886 0.45523 0.35795 0.0
C186 C 0.02328 0.42887 0.3711 0.0
C187 C 0.03095 0.42744 0.39411 0.0
P188 P 0.59913 0.03393 0.78726 0.0
H189 H 0.64405 0.1286 0.8105 0.0
H190 H 0.61604 0.18547 0.82447 0.0
H191 H 0.47935 0.08071 0.80988 0.0
H192 H 0.50786 0.02361 0.7963 0.0
H193 H 0.60275 0.95154 0.76396 0.0
H194 H 0.58082 0.8723 0.7734 0.0
H195 H 0.53242 0.90704 0.83681 0.0
H196 H 0.55355 0.98657 0.82679 0.0
H197 H 0.64198 0.09762 0.75342 0.0
H198 H 0.5218 0.97054 0.75733 0.0
O199 O 0.65519 0.05796 0.79069 0.0
H200 H 0.61953 0.09988 0.71443 0.0
H201 H 0.50007 0.97117 0.71815 0.0
C202 C 0.57802 0.0715 0.80276 0.0
C203 C 0.60801 0.11738 0.8109 0.0
C204 C 0.59194 0.15018 0.8186 0.0
C205 C 0.54542 0.13792 0.81815 0.0
C206 C 0.51537 0.09132 0.81074 0.0
C207 C 0.53157 0.05851 0.80303 0.0
C208 C 0.57896 0.97471 0.79444 0.0
C209 C 0.58682 0.94198 0.77977 0.0
C210 C 0.57471 0.8967 0.78534 0.0
C211 C 0.55503 0.88312 0.80596 0.0
C212 C 0.54699 0.91605 0.82067 0.0
C213 C 0.55911 0.96159 0.815 0.0
C214 C 0.58422 0.03321 0.75801 0.0
C215 C 0.6112 0.06968 0.7457 0.0
C216 C 0.59834 0.07085 0.72339 0.0
C217 C 0.55806 0.03558 0.71303 0.0
C218 C 0.53103 0.99922 0.72559 0.0
C219 C 0.54374 0.9984 0.74794 0.0
P220 P 0.54182 0.47977 0.11571 0.0
H221 H 0.592 0.52021 0.16012 0.0
H222 H 0.67009 0.54156 0.17262 0.0
H223 H 0.70179 0.51877 0.1033 0.0
H224 H 0.62366 0.49517 0.09136 0.0
H225 H 0.44849 0.42299 0.12459 0.0
H226 H 0.38488 0.44045 0.13376 0.0
H227 H 0.47358 0.58774 0.14261 0.0
H228 H 0.53796 0.56985 0.13283 0.0
H229 H 0.47611 0.41433 0.08145 0.0
H230 H 0.58567 0.5522 0.08499 0.0
O231 O 0.52686 0.42369 0.11904 0.0
H232 H 0.45929 0.41858 0.04182 0.0
H233 H 0.56989 0.55576 0.04487 0.0
C234 C 0.60176 0.50818 0.1246 0.0
C235 C 0.61605 0.52114 0.14755 0.0
C236 C 0.66109 0.53319 0.15467 0.0
C237 C 0.69329 0.53231 0.13905 0.0
C238 C 0.67865 0.51963 0.11605 0.0
C239 C 0.63368 0.50719 0.10905 0.0
C240 C 0.49879 0.49493 0.12869 0.0
C241 C 0.45491 0.45915 0.12906 0.0
C242 C 0.41808 0.46919 0.13397 0.0
C243 C 0.42371 0.51552 0.13879 0.0
C244 C 0.46791 0.55158 0.13911 0.0
C245 C 0.50494 0.54142 0.13375 0.0
C246 C 0.5331 0.4823 0.08597 0.0
C247 C 0.49714 0.44516 0.07358 0.0
C248 C 0.48734 0.44768 0.051 0.0
C249 C 0.51356 0.48731 0.04034 0.0
C250 C 0.54961 0.5246 0.0527 0.0
C251 C 0.55874 0.52248 0.07553 0.0
H252 H 0.16803 0.48217 0.11908 0.0
H253 H 0.18716 0.57311 0.1813 0.0
H254 H 0.26662 0.58533 0.1849 0.0
H255 H 0.23372 0.42541 0.13877 0.0
H256 H 0.25605 0.41961 0.11158 0.0
H257 H 0.20182 0.42082 0.11314 0.0
H258 H 0.2288 0.49017 0.08885 0.0
H259 H 0.28317 0.48925 0.08727 0.0
H260 H 0.27908 0.54228 0.09789 0.0
H261 H 0.34586 0.58815 0.18126 0.0
H262 H 0.41388 0.57546 0.1728 0.0
H263 H 0.34147 0.47781 0.11464 0.0
C264 C 0.18899 0.50489 0.13341 0.0
C265 C 0.17137 0.52771 0.1496 0.0
C266 C 0.19993 0.55632 0.16831 0.0
C267 C 0.2452 0.56324 0.17057 0.0
C268 C 0.26159 0.54052 0.15423 0.0
C269 C 0.23406 0.51137 0.13616 0.0
C270 C 0.2591 0.48904 0.12158 0.0
C271 C 0.23631 0.43555 0.12126 0.0
C272 C 0.26275 0.50356 0.09747 0.0
C273 C 0.305 0.51009 0.13419 0.0
C274 C 0.30602 0.54021 0.15282 0.0
C275 C 0.34517 0.5644 0.16677 0.0
C276 C 0.38385 0.55718 0.16177 0.0
C277 C 0.3833 0.52545 0.14314 0.0
C278 C 0.3431 0.50192 0.12917 0.0
H279 H 0.72694 0.14553 0.48203 0.0
H280 H 0.67656 0.23326 0.52176 0.0
H281 H 0.7478 0.30275 0.51739 0.0
H282 H 0.84275 0.20552 0.50302 0.0
H283 H 0.86479 0.19843 0.47591 0.0
H284 H 0.81042 0.15594 0.4828 0.0
H285 H 0.77423 0.16836 0.44666 0.0
H286 H 0.82848 0.21084 0.43965 0.0
H287 H 0.78187 0.22644 0.44219 0.0
H288 H 0.82492 0.36259 0.50818 0.0
H289 H 0.90075 0.40787 0.4946 0.0
H290 H 0.89834 0.28016 0.45994 0.0
C291 C 0.73106 0.17934 0.48995 0.0
C292 C 0.69654 0.18426 0.50231 0.0
C293 C 0.7028 0.22898 0.51224 0.0
C294 C 0.7431 0.26852 0.50986 0.0
C295 C 0.77653 0.26253 0.49744 0.0
C296 C 0.77081 0.21903 0.48761 0.0
C297 C 0.81122 0.22197 0.47462 0.0
C298 C 0.83361 0.1938 0.4847 0.0
C299 C 0.79816 0.20597 0.44928 0.0
C300 C 0.84074 0.27391 0.47871 0.0
C301 C 0.82029 0.29679 0.49193 0.0
C302 C 0.84122 0.34502 0.49779 0.0
C303 C 0.88417 0.37046 0.4899 0.0
C304 C 0.90564 0.34761 0.47627 0.0
C305 C 0.88334 0.29867 0.47066 0.0
H306 H 0.59262 0.65173 0.81045 0.0
H307 H 0.46625 0.5908 0.84346 0.0
H308 H 0.45649 0.6635 0.84146 0.0
H309 H 0.62998 0.76781 0.83835 0.0
H310 H 0.65537 0.79565 0.81376 0.0
H311 H 0.65146 0.73856 0.81744 0.0
H312 H 0.60912 0.70621 0.77818 0.0
H313 H 0.61297 0.76322 0.77436 0.0
H314 H 0.55878 0.71348 0.77223 0.0
H315 H 0.46183 0.74457 0.83611 0.0
H316 H 0.48057 0.82492 0.82713 0.0
H317 H 0.60445 0.83218 0.79855 0.0
C318 C 0.56283 0.65362 0.81722 0.0
C319 C 0.53015 0.61568 0.8271 0.0
C320 C 0.49164 0.61949 0.83578 0.0
C321 C 0.48589 0.66066 0.83475 0.0
C322 C 0.51902 0.69768 0.82503 0.0
C323 C 0.5567 0.69439 0.8164 0.0
C324 C 0.58759 0.739 0.80696 0.0
C325 C 0.63383 0.76158 0.81991 0.0
C326 C 0.59237 0.72992 0.78142 0.0
C327 C 0.56154 0.76808 0.8116 0.0
C328 C 0.52209 0.74379 0.82204 0.0
C329 C 0.49269 0.76384 0.82796 0.0
C330 C 0.50377 0.80967 0.82292 0.0
C331 C 0.54391 0.83505 0.81203 0.0
C332 C 0.57312 0.81371 0.80652 0.0
H333 H 0.93928 0.52757 0.13575 0.0
H334 H 0.97651 0.62643 0.19638 0.0
H335 H 0.90096 0.62459 0.19552 0.0
H336 H 0.86867 0.57003 0.10789 0.0
H337 H 0.82626 0.51303 0.09718 0.0
H338 H 0.88364 0.52184 0.10212 0.0
H339 H 0.85705 0.45562 0.12829 0.0
H340 H 0.79952 0.44644 0.12338 0.0
H341 H 0.82369 0.45841 0.15188 0.0
H342 H 0.82231 0.61494 0.18782 0.0
H343 H 0.74456 0.59515 0.17482 0.0
H344 H 0.75319 0.49773 0.12052 0.0
C345 C 0.93143 0.54866 0.14886 0.0
C346 C 0.9644 0.57737 0.16612 0.0
C347 C 0.95235 0.60427 0.18293 0.0
C348 C 0.90929 0.6035 0.18261 0.0
C349 C 0.8777 0.57512 0.1655 0.0
C350 C 0.88786 0.54775 0.14902 0.0
C351 C 0.84674 0.51955 0.13294 0.0
C352 C 0.85695 0.53186 0.10859 0.0
C353 C 0.83081 0.46688 0.13419 0.0
C354 C 0.8125 0.53624 0.1427 0.0
C355 C 0.83131 0.5683 0.16149 0.0
C356 C 0.80705 0.58943 0.17326 0.0
C357 C 0.76241 0.57755 0.16578 0.0
C358 C 0.74153 0.54436 0.14667 0.0
C359 C 0.76752 0.52356 0.13505 0.0
H360 H 0.33917 0.86731 0.46842 0.0
H361 H 0.38513 0.86283 0.53626 0.0
H362 H 0.32433 0.78328 0.53683 0.0
H363 H 0.21699 0.79661 0.4743 0.0
H364 H 0.20919 0.7668 0.44611 0.0
H365 H 0.25203 0.82583 0.45222 0.0
H366 H 0.31236 0.79957 0.43707 0.0
H367 H 0.26979 0.74059 0.43094 0.0
H368 H 0.31868 0.75248 0.44889 0.0
H369 H 0.26243 0.7029 0.52916 0.0
H370 H 0.20651 0.62503 0.51301 0.0
H371 H 0.204 0.6796 0.44906 0.0
C372 C 0.33558 0.8499 0.48356 0.0
C373 C 0.36618 0.87115 0.50244 0.0
C374 C 0.36161 0.84704 0.52173 0.0
C375 C 0.32714 0.80201 0.52223 0.0
C376 C 0.29785 0.78153 0.5032 0.0
C377 C 0.30181 0.80451 0.48416 0.0
C378 C 0.26894 0.7728 0.46517 0.0
C379 C 0.23476 0.79164 0.4591 0.0
C380 C 0.29395 0.76596 0.44429 0.0
C381 C 0.24659 0.7282 0.47636 0.0
C382 C 0.26323 0.73428 0.49842 0.0
C383 C 0.24902 0.69771 0.51193 0.0
C384 C 0.21751 0.65351 0.50253 0.0
C385 C 0.20097 0.646 0.47971 0.0
C386 C 0.21533 0.68422 0.46665 0.0
H387 H 0.53492 0.38463 0.8154 0.0
H388 H 0.41207 0.32824 0.85166 0.0
H389 H 0.42094 0.25541 0.85385 0.0
H390 H 0.51699 0.27898 0.78191 0.0
H391 H 0.57534 0.28914 0.78298 0.0
H392 H 0.56083 0.33789 0.78546 0.0
H393 H 0.60763 0.36988 0.82357 0.0
H394 H 0.62235 0.3212 0.82119 0.0
H395 H 0.59595 0.33281 0.84605 0.0
H396 H 0.44115 0.18733 0.8506 0.0
H397 H 0.47139 0.12882 0.84221 0.0
H398 H 0.58068 0.22882 0.80761 0.0
C399 C 0.5102 0.35711 0.824 0.0
C400 C 0.47279 0.362 0.83339 0.0
C401 C 0.44093 0.32513 0.84434 0.0
C402 C 0.44574 0.28369 0.84571 0.0
C403 C 0.4827 0.27967 0.83609 0.0
C404 C 0.51447 0.31539 0.8255 0.0
C405 C 0.55021 0.30145 0.8159 0.0
C406 C 0.55085 0.30188 0.79003 0.0
C407 C 0.59679 0.33322 0.82736 0.0
C408 C 0.53314 0.25207 0.82244 0.0
C409 C 0.49432 0.24032 0.8342 0.0
C410 C 0.47164 0.19619 0.84148 0.0
C411 C 0.48893 0.16305 0.8365 0.0
C412 C 0.52848 0.17405 0.82429 0.0
C413 C 0.55086 0.21942 0.81733 0.0
H414 H 0.60379 0.94788 0.53659 0.0
H415 H 0.50079 0.90344 0.48228 0.0
H416 H 0.49109 0.82181 0.48232 0.0
H417 H 0.65516 0.8743 0.5172 0.0
H418 H 0.66616 0.86222 0.54503 0.0
H419 H 0.66313 0.91634 0.54142 0.0
H420 H 0.60115 0.89857 0.57061 0.0
H421 H 0.60416 0.84446 0.57441 0.0
H422 H 0.55103 0.84421 0.56648 0.0
H423 H 0.49628 0.74528 0.48706 0.0
H424 H 0.51432 0.681 0.49659 0.0
H425 H 0.61197 0.77585 0.5488 0.0
C426 C 0.57897 0.92089 0.52481 0.0
C427 C 0.55312 0.93192 0.50938 0.0
C428 C 0.52095 0.89569 0.49424 0.0
C429 C 0.51524 0.84926 0.49415 0.0
C430 C 0.54175 0.83961 0.50941 0.0
C431 C 0.57274 0.87445 0.52457 0.0
C432 C 0.59762 0.85525 0.53898 0.0
C433 C 0.64853 0.87841 0.53543 0.0
C434 C 0.58789 0.86096 0.56411 0.0
C435 C 0.57648 0.80431 0.52931 0.0
C436 C 0.54423 0.79584 0.51232 0.0
C437 C 0.52118 0.75152 0.50051 0.0
C438 C 0.53151 0.71508 0.50613 0.0
C439 C 0.56467 0.723 0.52345 0.0
C440 C 0.58694 0.76838 0.53524 0.0
H441 H 0.69571 0.49474 0.82497 0.0
H442 H 0.65265 0.50885 0.89298 0.0
H443 H 0.72739 0.5224 0.90872 0.0
H444 H 0.77778 0.44435 0.83857 0.0
H445 H 0.81733 0.47864 0.81923 0.0
H446 H 0.75768 0.45858 0.81344 0.0
H447 H 0.77005 0.54392 0.81058 0.0
H448 H 0.82946 0.56426 0.81657 0.0
H449 H 0.79778 0.58789 0.83403 0.0
H450 H 0.80791 0.54576 0.91686 0.0
H451 H 0.89079 0.58133 0.91703 0.0
H452 H 0.88399 0.55666 0.84369 0.0
C453 C 0.70177 0.49889 0.84316 0.0
C454 C 0.66877 0.5001 0.8579 0.0
C455 C 0.67779 0.50746 0.88157 0.0
C456 C 0.71993 0.51487 0.89062 0.0
C457 C 0.75259 0.51522 0.87569 0.0
C458 C 0.74414 0.5075 0.85245 0.0
C459 C 0.78696 0.51703 0.84016 0.0
C460 C 0.7848 0.47196 0.82708 0.0
C461 C 0.79661 0.55557 0.82442 0.0
C462 C 0.82094 0.53346 0.86008 0.0
C463 C 0.80017 0.53082 0.88041 0.0
C464 C 0.82459 0.5471 0.9011 0.0
C465 C 0.8716 0.56722 0.90103 0.0
C466 C 0.89361 0.57143 0.88038 0.0
C467 C 0.86789 0.55369 0.8597 0.0
H468 H 0.25789 0.69029 0.17097 0.0
H469 H 0.17985 0.76295 0.19766 0.0
H470 H 0.24991 0.83639 0.20465 0.0
H471 H 0.3527 0.74879 0.21049 0.0
H472 H 0.3934 0.75021 0.18998 0.0
H473 H 0.33706 0.70412 0.18677 0.0
H474 H 0.32835 0.72507 0.14654 0.0
H475 H 0.3846 0.77139 0.14962 0.0
H476 H 0.33776 0.78398 0.14271 0.0
H477 H 0.3289 0.90166 0.20865 0.0
H478 H 0.41061 0.95278 0.21125 0.0
H479 H 0.43638 0.83673 0.18173 0.0
C480 C 0.25557 0.7217 0.17828 0.0
C481 C 0.21363 0.72123 0.18377 0.0
C482 C 0.21179 0.76279 0.19338 0.0
C483 C 0.25133 0.80457 0.19733 0.0
C484 C 0.29223 0.80394 0.19159 0.0
C485 C 0.29459 0.76349 0.18238 0.0
C486 C 0.34267 0.77176 0.17812 0.0
C487 C 0.35731 0.74196 0.19218 0.0
C488 C 0.34868 0.76251 0.15274 0.0
C489 C 0.36717 0.82322 0.18647 0.0
C490 C 0.3375 0.84125 0.19403 0.0
C491 C 0.3524 0.88796 0.20269 0.0
C492 C 0.39887 0.91681 0.20393 0.0
C493 C 0.42995 0.89885 0.19662 0.0
C494 C 0.41358 0.85147 0.18759 0.0
H495 H 0.53922 0.15964 0.52699 0.0
H496 H 0.45818 0.11732 0.46398 0.0
H497 H 0.46907 0.19888 0.46234 0.0
H498 H 0.49501 0.23874 0.54994 0.0
H499 H 0.54765 0.28044 0.56381 0.0
H500 H 0.53607 0.21955 0.55913 0.0
H501 H 0.60961 0.2409 0.53809 0.0
H502 H 0.6216 0.30196 0.54232 0.0
H503 H 0.61903 0.27401 0.51411 0.0
H504 H 0.4884 0.28547 0.46787 0.0
H505 H 0.5106 0.36884 0.4814 0.0
H506 H 0.57591 0.35354 0.54163 0.0
C507 C 0.52426 0.16775 0.51273 0.0
C508 C 0.49817 0.1324 0.49549 0.0
C509 C 0.47836 0.14403 0.47732 0.0
C510 C 0.48446 0.19024 0.47622 0.0
C511 C 0.51009 0.22434 0.49357 0.0
C512 C 0.52938 0.21357 0.51158 0.0
C513 C 0.5532 0.2561 0.52867 0.0
C514 C 0.53168 0.24822 0.55175 0.0
C515 C 0.60388 0.26902 0.53091 0.0
C516 C 0.54432 0.29244 0.51749 0.0
C517 C 0.5198 0.2736 0.49714 0.0
C518 C 0.50759 0.30057 0.48379 0.0
C519 C 0.52045 0.34788 0.49155 0.0
C520 C 0.5447 0.36758 0.5126 0.0
C521 C 0.55692 0.33934 0.52558 0.0
H522 H 0.30243 0.46408 0.83336 0.0
H523 H 0.38077 0.54939 0.78266 0.0
H524 H 0.32397 0.58004 0.77844 0.0
H525 H 0.18663 0.44304 0.80969 0.0
H526 H 0.16776 0.44822 0.83783 0.0
H527 H 0.20824 0.42437 0.83279 0.0
H528 H 0.26284 0.48621 0.86369 0.0
H529 H 0.22286 0.51031 0.86872 0.0
H530 H 0.27922 0.54736 0.86147 0.0
H531 H 0.26764 0.61203 0.78482 0.0
H532 H 0.21608 0.64331 0.80154 0.0
H533 H 0.1755 0.53873 0.8488 0.0
C534 C 0.30653 0.48776 0.82074 0.0
C535 C 0.34542 0.50411 0.80815 0.0
C536 C 0.35079 0.53624 0.7923 0.0
C537 C 0.31863 0.55363 0.78971 0.0
C538 C 0.28136 0.5383 0.80305 0.0
C539 C 0.27495 0.50578 0.81815 0.0
C540 C 0.23592 0.50031 0.83285 0.0
C541 C 0.19735 0.45105 0.82799 0.0
C542 C 0.25115 0.51177 0.85816 0.0
C543 C 0.22307 0.53668 0.82456 0.0
C544 C 0.24892 0.55742 0.80699 0.0
C545 C 0.24643 0.59535 0.79819 0.0
C546 C 0.21739 0.61312 0.8079 0.0
C547 C 0.19163 0.59316 0.82631 0.0
C548 C 0.1938 0.55379 0.8343 0.0
H549 H 0.88579 0.40484 0.16053 0.0
H550 H 0.9486 0.34227 0.11256 0.0
H551 H 0.88607 0.26433 0.11536 0.0
H552 H 0.85499 0.31898 0.19672 0.0
H553 H 0.80237 0.32045 0.20401 0.0
H554 H 0.84763 0.37173 0.19544 0.0
H555 H 0.79537 0.3752 0.16371 0.0
H556 H 0.74964 0.32387 0.17209 0.0
H557 H 0.76666 0.32493 0.14327 0.0
H558 H 0.82122 0.19275 0.12659 0.0
H559 H 0.7605 0.13309 0.14568 0.0
H560 H 0.74085 0.24251 0.18703 0.0
C561 C 0.88574 0.37488 0.15015 0.0
C562 C 0.92168 0.37943 0.13614 0.0
C563 C 0.92107 0.33942 0.12321 0.0
C564 C 0.88571 0.29511 0.1247 0.0
C565 C 0.85134 0.29159 0.1392 0.0
C566 C 0.85102 0.33048 0.15164 0.0
C567 C 0.81267 0.31693 0.16757 0.0
C568 C 0.8305 0.33297 0.1924 0.0
C569 C 0.77909 0.33638 0.16127 0.0
C570 C 0.7922 0.26421 0.16268 0.0
C571 C 0.8145 0.25031 0.146 0.0
C572 C 0.80308 0.20326 0.13941 0.0
C573 C 0.76834 0.16958 0.1503 0.0
C574 C 0.7456 0.18301 0.16778 0.0
C575 C 0.75752 0.23106 0.17376 0.0
H576 H 0.0533 0.54183 0.07068 0.0
H577 H 0.12946 0.67602 0.11025 0.0
H578 H 0.1506 0.71366 0.07541 0.0
H579 H 0.13098 0.56 0.02603 0.0
H580 H 0.08796 0.53183 0.00359 0.0
H581 H 0.07738 0.51425 0.03171 0.0
H582 H 1.00646 0.53043 0.03221 0.0
H583 H 0.01659 0.54762 0.00401 0.0
H584 H 1.01148 0.58705 0.02655 0.0
H585 H 0.16446 0.73781 0.03704 0.0
H586 H 0.16797 0.74717 0.99624 0.0
H587 H 0.08387 0.59855 0.98059 0.0
C588 C 0.07409 0.57913 0.07195 0.0
C589 C 0.08978 0.60579 0.09325 0.0
C590 C 0.1172 0.65457 0.0942 0.0
C591 C 0.12948 0.67648 0.07448 0.0
C592 C 0.11422 0.6493 0.05381 0.0
C593 C 0.087 0.6018 0.05228 0.0
C594 C 0.07558 0.58118 0.02771 0.0
C595 C 0.09409 0.54465 0.02193 0.0
C596 C 0.02449 0.56035 0.02231 0.0
C597 C 0.10054 0.6246 0.01587 0.0
C598 C 0.1226 0.66341 0.03133 0.0
C599 C 0.14735 0.70773 0.02469 0.0
C600 C 0.14911 0.71274 0.00154 0.0
C601 C 0.12634 0.67364 0.98533 0.0
C602 C 0.10216 0.62893 0.99263 0.0
H603 H 0.60306 0.07177 0.43094 0.0
H604 H 0.45949 0.98199 0.42528 0.0
H605 H 0.46032 0.9819 0.38372 0.0
H606 H 0.60662 0.14062 0.38532 0.0
H607 H 0.65931 0.14295 0.37552 0.0
H608 H 0.64729 0.13803 0.40495 0.0
H609 H 0.66106 0.06347 0.40301 0.0
H610 H 0.67333 0.06823 0.37361 0.0
H611 H 0.62999 0.0151 0.38194 0.0
H612 H 0.47629 0.99217 0.34304 0.0
H613 H 0.5077 0.00548 0.30534 0.0
H614 H 0.64175 0.08489 0.33693 0.0
C615 C 0.57179 0.05233 0.42093 0.0
C616 C 0.53113 0.02706 0.43128 0.0
C617 C 0.49101 1.00145 0.41765 0.0
C618 C 0.4911 1.00141 0.39407 0.0
C619 C 0.53169 0.0267 0.38437 0.0
C620 C 0.57142 0.0512 0.3973 0.0
C621 C 0.61083 0.07334 0.3825 0.0
C622 C 0.63227 0.12692 0.38737 0.0
C623 C 0.64586 0.05385 0.38544 0.0
C624 C 0.587 0.05736 0.35923 0.0
C625 C 0.54126 0.0311 0.36075 0.0
C626 C 0.51205 0.01266 0.34161 0.0
C627 C 0.53014 0.02065 0.3203 0.0
C628 C 0.57705 0.04636 0.31828 0.0
C629 C 0.60576 0.06509 0.33803 0.0
H630 H 0.58966 0.52846 0.76003 0.0
H631 H 0.44615 0.43909 0.75177 0.0
H632 H 0.4489 0.44418 0.71069 0.0
H633 H 0.59052 0.60506 0.721 0.0
H634 H 0.64412 0.61389 0.70979 0.0
H635 H 0.63269 0.59936 0.73833 0.0
H636 H 0.65064 0.52788 0.72944 0.0
H637 H 0.6626 0.54245 0.7009 0.0
H638 H 0.62134 0.48512 0.70579 0.0
H639 H 0.46509 0.46304 0.67145 0.0
H640 H 0.49457 0.49296 0.63542 0.0
H641 H 0.62761 0.57217 0.66835 0.0
C642 C 0.55916 0.50904 0.74944 0.0
C643 C 0.51774 0.48309 0.75901 0.0
C644 C 0.47822 0.45912 0.74475 0.0
C645 C 0.47943 0.46173 0.7214 0.0
C646 C 0.52041 0.48858 0.71253 0.0
C647 C 0.55967 0.51168 0.72599 0.0
C648 C 0.59853 0.54052 0.71217 0.0
C649 C 0.61757 0.5928 0.72085 0.0
C650 C 0.63546 0.52293 0.71207 0.0
C651 C 0.57472 0.53039 0.68898 0.0
C652 C 0.52973 0.50017 0.68965 0.0
C653 C 0.50031 0.48658 0.67064 0.0
C654 C 0.51729 0.50416 0.65031 0.0
C655 C 0.56329 0.53523 0.64909 0.0
C656 C 0.59237 0.54827 0.66873 0.0
H657 H 0.59129 0.06879 0.58162 0.0
H658 H 0.44576 0.01228 0.5728 0.0
H659 H 0.43946 0.00912 0.61406 0.0
H660 H 0.59173 0.99645 0.62305 0.0
H661 H 0.64046 0.04033 0.63916 0.0
H662 H 0.63396 0.04241 0.60925 0.0
H663 H 0.64106 0.12691 0.61695 0.0
H664 H 0.6477 0.12516 0.64692 0.0
H665 H 0.6039 0.13879 0.63611 0.0
H666 H 0.44871 0.00977 0.65595 0.0
H667 H 0.4725 0.01126 0.69552 0.0
H668 H 0.61177 0.06271 0.67676 0.0
C669 C 0.55818 0.0566 0.58844 0.0
C670 C 0.51902 0.04122 0.57408 0.0
C671 C 0.4762 0.02435 0.58353 0.0
C672 C 0.47228 0.02256 0.60694 0.0
C673 C 0.51149 0.0374 0.62061 0.0
C674 C 0.55362 0.05392 0.61173 0.0
C675 C 0.59015 0.06474 0.62996 0.0
C676 C 0.61555 0.03415 0.62506 0.0
C677 C 0.62261 0.11701 0.63264 0.0
C678 C 0.56192 0.05141 0.65043 0.0
C679 C 0.51671 0.03619 0.64469 0.0
C680 C 0.48403 0.02151 0.66065 0.0
C681 C 0.49788 0.0221 0.68307 0.0
C682 C 0.54402 0.03676 0.68933 0.0
C683 C 0.57633 0.05186 0.67269 0.0
H684 H 0.55284 0.49808 0.90814 0.0
H685 H 0.41557 0.48191 0.89902 0.0
H686 H 0.40741 0.48162 0.94037 0.0
H687 H 0.5344 0.42506 0.95245 0.0
H688 H 0.58721 0.46175 0.96771 0.0
H689 H 0.58226 0.46101 0.93747 0.0
H690 H 0.60934 0.55077 0.94206 0.0
H691 H 0.61436 0.55189 0.97234 0.0
H692 H 0.58004 0.57633 0.96016 0.0
H693 H 0.41299 0.47878 0.98244 0.0
H694 H 0.43334 0.47808 0.02254 0.0
H695 H 0.56825 0.50074 0.00449 0.0
C696 C 0.52102 0.49442 0.91482 0.0
C697 C 0.48469 0.48973 0.90036 0.0
C698 C 0.44382 0.48559 0.90979 0.0
C699 C 0.43887 0.48533 0.93324 0.0
C700 C 0.47532 0.48991 0.94702 0.0
C701 C 0.51575 0.49484 0.93819 0.0
C702 C 0.54986 0.49969 0.9567 0.0
C703 C 0.56426 0.45948 0.95338 0.0
C704 C 0.59082 0.54752 0.95788 0.0
C705 C 0.52211 0.49606 0.97733 0.0
C706 C 0.47912 0.49018 0.97135 0.0
C707 C 0.44668 0.48387 0.98734 0.0
C708 C 0.45845 0.48342 0.01001 0.0
C709 C 0.50238 0.48978 0.01649 0.0
C710 C 0.53466 0.49656 -4e-05 0.0
H711 H 0.097 0.56619 0.24067 0.0
H712 H 1.00097 0.43084 0.20875 0.0
H713 H 0.99007 0.3999 0.24587 0.0
H714 H 0.14857 0.52383 0.2802 0.0
H715 H 0.15503 0.56875 0.30275 0.0
H716 H 0.15482 0.58039 0.2737 0.0
H717 H 0.08926 0.60417 0.28071 0.0
H718 H 0.08933 0.5927 0.30979 0.0
H719 H 0.03828 0.56395 0.29206 0.0
H720 H 0.99148 0.38314 0.28635 0.0
H721 H 1.00383 0.38222 0.32725 0.0
H722 H 0.09655 0.52948 0.33275 0.0
C723 C 0.07366 0.53002 0.24143 0.0
C724 C 0.04999 0.50091 0.22175 0.0
C725 C 0.01955 0.45386 0.22357 0.0
C726 C 1.01312 0.43593 0.24458 0.0
C727 C 0.03715 0.46556 0.26361 0.0
C728 C 0.06664 0.51165 0.26225 0.0
C729 C 0.08828 0.53622 0.28523 0.0
C730 C 0.13972 0.55328 0.28547 0.0
C731 C 0.0755 0.57664 0.29236 0.0
C732 C 0.0667 0.4966 0.29972 0.0
C733 C 0.03732 0.45615 0.28695 0.0
C734 C 1.01409 0.41473 0.29657 0.0
C735 C 0.02112 0.41466 0.31986 0.0
C736 C 0.05102 0.45582 0.33333 0.0
C737 C 0.07385 0.49727 0.32298 0.0
loop_
_geom_bond_atom_site_label_1
_geom_bond_atom_site_label_2
_geom_bond_distance
_geom_bond_site_symmetry_2
_ccdc_geom_bond_type
Tb0 O3 2.453 1_455 S
Tb0 O4 2.596 1_455 S
Tb0 O5 2.374 . S
Tb0 O13 2.343 . S
Tb0 O15 2.353 . S
Tb0 O17 2.427 . S
Tb0 O18 2.513 . S
C1 O5 1.251 . S
C1 O7 1.263 . S
Tb2 O4 2.343 1_455 S
Tb2 O7 2.353 . S
Tb2 O10 2.427 1_455 S
Tb2 O11 2.513 1_455 S
Tb2 O12 2.453 . S
Tb2 O13 2.596 . S
Tb2 O14 2.374 . S
O3 Tb0 2.453 1_655 S
O3 C19 1.245 . S
O4 Tb0 2.596 1_655 S
O4 Tb2 2.343 1_655 S
O4 C19 1.259 . S
O5 Tb0 2.374 . S
O5 C1 1.251 . S
C6 O10 1.275 . S
C6 O11 1.246 . S
O7 C1 1.263 . S
O7 Tb2 2.353 . S
C8 O12 1.245 . S
C8 O13 1.259 . S
C9 O14 1.250 . S
C9 O15 1.263 . S
O10 Tb2 2.427 1_655 S
O10 C6 1.275 . S
O11 Tb2 2.513 1_655 S
O11 C6 1.246 . S
O12 Tb2 2.453 . S
O12 C8 1.245 . S
O13 Tb0 2.343 . S
O13 Tb2 2.596 . S
O13 C8 1.259 . S
O14 Tb2 2.374 . S
O14 C9 1.250 . S
O15 Tb0 2.353 . S
O15 C9 1.263 . S
C16 O17 1.275 . S
C16 O18 1.246 . S
O17 Tb0 2.427 . S
O17 C16 1.275 . S
O18 Tb0 2.513 . S
O18 C16 1.246 . S
C19 O3 1.245 . S
C19 O4 1.259 . S
Tb20 O23 2.453 . S
Tb20 O24 2.596 . S
Tb20 O25 2.374 . S
Tb20 O33 2.343 1_545 S
Tb20 O35 2.353 . S
Tb20 O37 2.427 1_545 S
Tb20 O38 2.513 1_545 S
C21 O25 1.251 . S
C21 O27 1.263 . S
Tb22 O24 2.343 . S
Tb22 O27 2.353 . S
Tb22 O30 2.427 . S
Tb22 O31 2.513 . S
Tb22 O32 2.453 1_545 S
Tb22 O33 2.596 1_545 S
Tb22 O34 2.374 . S
O23 Tb20 2.453 . S
O23 C39 1.245 . S
O24 Tb20 2.596 . S
O24 Tb22 2.343 . S
O24 C39 1.259 . S
O25 Tb20 2.374 . S
O25 C21 1.251 . S
C26 O30 1.275 . S
C26 O31 1.246 . S
O27 C21 1.263 . S
O27 Tb22 2.353 . S
C28 O32 1.245 . S
C28 O33 1.259 . S
C29 O34 1.250 . S
C29 O35 1.263 . S
O30 Tb22 2.427 . S
O30 C26 1.275 . S
O31 Tb22 2.513 . S
O31 C26 1.246 . S
O32 Tb22 2.453 1_565 S
O32 C28 1.245 . S
O33 Tb20 2.343 1_565 S
O33 Tb22 2.596 1_565 S
O33 C28 1.259 . S
O34 Tb22 2.374 . S
O34 C29 1.250 . S
O35 Tb20 2.353 . S
O35 C29 1.263 . S
C36 O37 1.275 . S
C36 O38 1.246 . S
O37 Tb20 2.427 1_565 S
O37 C36 1.275 . S
O38 Tb20 2.513 1_565 S
O38 C36 1.246 . S
C39 O23 1.245 . S
C39 O24 1.259 . S
Tb40 O43 2.453 . S
Tb40 O44 2.596 . S
Tb40 O45 2.374 . S
Tb40 O53 2.343 . S
Tb40 O55 2.353 . S
Tb40 O57 2.427 . S
Tb40 O58 2.513 . S
C41 O45 1.251 . S
C41 O47 1.263 . S
Tb42 O44 2.343 . S
Tb42 O47 2.353 . S
Tb42 O50 2.427 . S
Tb42 O51 2.513 . S
Tb42 O52 2.453 . S
Tb42 O53 2.596 . S
Tb42 O54 2.374 . S
O43 Tb40 2.453 . S
O43 C59 1.245 . S
O44 Tb40 2.596 . S
O44 Tb42 2.343 . S
O44 C59 1.259 . S
O45 Tb40 2.374 . S
O45 C41 1.251 . S
C46 O50 1.275 . S
C46 O51 1.246 . S
O47 C41 1.263 . S
O47 Tb42 2.353 . S
C48 O52 1.245 . S
C48 O53 1.259 . S
C49 O54 1.250 . S
C49 O55 1.263 . S
O50 Tb42 2.427 . S
O50 C46 1.275 . S
O51 Tb42 2.513 . S
O51 C46 1.246 . S
O52 Tb42 2.453 . S
O52 C48 1.245 . S
O53 Tb40 2.343 . S
O53 Tb42 2.596 . S
O53 C48 1.259 . S
O54 Tb42 2.374 . S
O54 C49 1.250 . S
O55 Tb40 2.353 . S
O55 C49 1.263 . S
C56 O57 1.275 . S
C56 O58 1.246 . S
O57 Tb40 2.427 . S
O57 C56 1.275 . S
O58 Tb40 2.513 . S
O58 C56 1.246 . S
C59 O43 1.245 . S
C59 O44 1.259 . S
P60 O71 1.490 1_545 S
P60 C74 1.812 1_545 S
P60 C80 1.803 . S
P60 C86 1.819 . S
H61 C75 0.941 . S
H62 C76 0.939 . S
H63 C78 0.940 . S
H64 C79 0.940 1_545 S
H65 C81 0.939 . S
H66 C82 0.942 . S
H67 C84 0.940 . S
H68 C85 0.939 . S
H69 C87 0.941 . S
H70 C91 0.939 . S
O71 P60 1.490 1_565 S
H72 C88 0.939 1_565 S
H73 C90 0.940 . S
C74 P60 1.812 1_565 S
C74 C75 1.389 . S
C74 C79 1.391 . S
C75 H61 0.941 . S
C75 C74 1.389 . S
C75 C76 1.397 . S
C76 H62 0.939 . S
C76 C75 1.397 . S
C76 C77 1.378 . S
C77 C76 1.378 . S
C77 C78 1.378 . S
C78 H63 0.940 . S
C78 C77 1.378 . S
C78 C79 1.396 . S
C79 H64 0.940 1_565 S
C79 C74 1.391 . S
C79 C78 1.396 . S
C80 P60 1.803 . S
C80 C81 1.378 . S
C80 C85 1.400 . S
C81 H65 0.939 . S
C81 C80 1.378 . S
C81 C82 1.361 . S
C82 H66 0.942 . S
C82 C81 1.361 . S
C82 C83 1.369 . S
C83 C82 1.369 . S
C83 C84 1.404 . S
C84 H67 0.940 . S
C84 C83 1.404 . S
C84 C85 1.389 . S
C85 H68 0.939 . S
C85 C80 1.400 . S
C85 C84 1.389 . S
C86 P60 1.819 . S
C86 C87 1.391 1_545 S
C86 C91 1.391 . S
C87 H69 0.941 . S
C87 C86 1.391 1_565 S
C87 C88 1.396 1_565 S
C88 H72 0.939 1_545 S
C88 C87 1.396 1_545 S
C88 C89 1.397 . S
C89 C88 1.397 . S
C89 C90 1.385 . S
C90 H73 0.940 . S
C90 C89 1.385 . S
C90 C91 1.388 . S
C91 H70 0.939 . S
C91 C86 1.391 . S
C91 C90 1.388 . S
P92 O103 1.490 . S
P92 C106 1.812 . S
P92 C112 1.803 . S
P92 C118 1.819 . S
H93 C107 0.941 . S
H94 C108 0.939 . S
H95 C110 0.940 . S
H96 C111 0.940 . S
H97 C113 0.939 . S
H98 C114 0.942 . S
H99 C116 0.940 . S
H100 C117 0.939 . S
H101 C119 0.941 . S
H102 C123 0.939 . S
O103 P92 1.490 . S
H104 C120 0.939 . S
H105 C122 0.940 . S
C106 P92 1.812 . S
C106 C107 1.389 . S
C106 C111 1.391 . S
C107 H93 0.941 . S
C107 C106 1.389 . S
C107 C108 1.397 . S
C108 H94 0.939 . S
C108 C107 1.397 . S
C108 C109 1.378 . S
C109 C108 1.378 . S
C109 C110 1.378 . S
C110 H95 0.940 . S
C110 C109 1.378 . S
C110 C111 1.396 . S
C111 H96 0.940 . S
C111 C106 1.391 . S
C111 C110 1.396 . S
C112 P92 1.803 . S
C112 C113 1.378 . S
C112 C117 1.400 . S
C113 H97 0.939 . S
C113 C112 1.378 . S
C113 C114 1.361 . S
C114 H98 0.942 . S
C114 C113 1.361 . S
C114 C115 1.369 . S
C115 C114 1.369 . S
C115 C116 1.404 . S
C116 H99 0.940 . S
C116 C115 1.404 . S
C116 C117 1.389 . S
C117 H100 0.939 . S
C117 C112 1.400 . S
C117 C116 1.389 . S
C118 P92 1.819 . S
C118 C119 1.391 . S
C118 C123 1.391 . S
C119 H101 0.941 . S
C119 C118 1.391 . S
C119 C120 1.396 . S
C120 H104 0.939 . S
C120 C119 1.396 . S
C120 C121 1.397 . S
C121 C120 1.397 . S
C121 C122 1.385 . S
C122 H105 0.940 . S
C122 C121 1.385 . S
C122 C123 1.388 . S
C123 H102 0.939 . S
C123 C118 1.391 . S
C123 C122 1.388 . S
P124 O135 1.490 . S
P124 C138 1.812 . S
P124 C144 1.803 . S
P124 C150 1.819 . S
H125 C139 0.941 . S
H126 C140 0.939 . S
H127 C142 0.940 . S
H128 C143 0.940 . S
H129 C145 0.939 . S
H130 C146 0.942 . S
H131 C148 0.940 . S
H132 C149 0.939 . S
H133 C151 0.941 . S
H134 C155 0.939 . S
O135 P124 1.490 . S
H136 C152 0.939 . S
H137 C154 0.940 . S
C138 P124 1.812 . S
C138 C139 1.389 . S
C138 C143 1.391 . S
C139 H125 0.941 . S
C139 C138 1.389 . S
C139 C140 1.397 . S
C140 H126 0.939 . S
C140 C139 1.397 . S
C140 C141 1.378 . S
C141 C140 1.378 . S
C141 C142 1.378 . S
C142 H127 0.940 . S
C142 C141 1.378 . S
C142 C143 1.396 . S
C143 H128 0.940 . S
C143 C138 1.391 . S
C143 C142 1.396 . S
C144 P124 1.803 . S
C144 C145 1.378 . S
C144 C149 1.400 . S
C145 H129 0.939 . S
C145 C144 1.378 . S
C145 C146 1.361 1_455 S
C146 H130 0.942 . S
C146 C145 1.361 1_655 S
C146 C147 1.369 . S
C147 C146 1.369 . S
C147 C148 1.404 . S
C148 H131 0.940 . S
C148 C147 1.404 . S
C148 C149 1.389 1_655 S
C149 H132 0.939 . S
C149 C144 1.400 . S
C149 C148 1.389 1_455 S
C150 P124 1.819 . S
C150 C151 1.391 . S
C150 C155 1.391 . S
C151 H133 0.941 . S
C151 C150 1.391 . S
C151 C152 1.396 . S
C152 H136 0.939 . S
C152 C151 1.396 . S
C152 C153 1.397 . S
C153 C152 1.397 . S
C153 C154 1.385 . S
C154 H137 0.940 . S
C154 C153 1.385 . S
C154 C155 1.388 . S
C155 H134 0.939 . S
C155 C150 1.391 . S
C155 C154 1.388 . S
P156 O167 1.490 . S
P156 C170 1.812 . S
P156 C176 1.803 1_455 S
P156 C182 1.819 . S
H157 C171 0.941 . S
H158 C172 0.939 . S
H159 C174 0.940 . S
H160 C175 0.940 . S
H161 C177 0.939 . S
H162 C178 0.942 . S
H163 C180 0.940 . S
H164 C181 0.939 . S
H165 C183 0.941 . S
H166 C187 0.939 . S
O167 P156 1.490 . S
H168 C184 0.939 . S
H169 C186 0.940 . S
C170 P156 1.812 . S
C170 C171 1.389 . S
C170 C175 1.391 . S
C171 H157 0.941 . S
C171 C170 1.389 . S
C171 C172 1.397 . S
C172 H158 0.939 . S
C172 C171 1.397 . S
C172 C173 1.378 . S
C173 C172 1.378 . S
C173 C174 1.378 . S
C174 H159 0.940 . S
C174 C173 1.378 . S
C174 C175 1.396 . S
C175 H160 0.940 . S
C175 C170 1.391 . S
C175 C174 1.396 . S
C176 P156 1.803 1_655 S
C176 C177 1.378 . S
C176 C181 1.400 . S
C177 H161 0.939 . S
C177 C176 1.378 . S
C177 C178 1.361 . S
C178 H162 0.942 . S
C178 C177 1.361 . S
C178 C179 1.369 . S
C179 C178 1.369 . S
C179 C180 1.404 . S
C180 H163 0.940 . S
C180 C179 1.404 . S
C180 C181 1.389 . S
C181 H164 0.939 . S
C181 C176 1.400 . S
C181 C180 1.389 . S
C182 P156 1.819 . S
C182 C183 1.391 . S
C182 C187 1.391 1_455 S
C183 H165 0.941 . S
C183 C182 1.391 . S
C183 C184 1.396 . S
C184 H168 0.939 . S
C184 C183 1.396 . S
C184 C185 1.397 . S
C185 C184 1.397 . S
C185 C186 1.385 1_455 S
C186 H169 0.940 . S
C186 C185 1.385 1_655 S
C186 C187 1.388 . S
C187 H166 0.939 . S
C187 C182 1.391 1_655 S
C187 C186 1.388 . S
P188 O199 1.490 . S
P188 C202 1.812 . S
P188 C208 1.803 1_545 S
P188 C214 1.819 . S
H189 C203 0.941 . S
H190 C204 0.939 . S
H191 C206 0.940 . S
H192 C207 0.940 . S
H193 C209 0.939 . S
H194 C210 0.942 . S
H195 C212 0.940 . S
H196 C213 0.939 . S
H197 C215 0.941 . S
H198 C219 0.939 . S
O199 P188 1.490 . S
H200 C216 0.939 . S
H201 C218 0.940 . S
C202 P188 1.812 . S
C202 C203 1.389 . S
C202 C207 1.391 . S
C203 H189 0.941 . S
C203 C202 1.389 . S
C203 C204 1.397 . S
C204 H190 0.939 . S
C204 C203 1.397 . S
C204 C205 1.378 . S
C205 C204 1.378 . S
C205 C206 1.378 . S
C206 H191 0.940 . S
C206 C205 1.378 . S
C206 C207 1.396 . S
C207 H192 0.940 . S
C207 C202 1.391 . S
C207 C206 1.396 . S
C208 P188 1.803 1_565 S
C208 C209 1.378 . S
C208 C213 1.400 . S
C209 H193 0.939 . S
C209 C208 1.378 . S
C209 C210 1.361 . S
C210 H194 0.942 . S
C210 C209 1.361 . S
C210 C211 1.369 . S
C211 C210 1.369 . S
C211 C212 1.404 . S
C212 H195 0.940 . S
C212 C211 1.404 . S
C212 C213 1.389 . S
C213 H196 0.939 . S
C213 C208 1.400 . S
C213 C212 1.389 . S
C214 P188 1.819 . S
C214 C215 1.391 . S
C214 C219 1.391 1_545 S
C215 H197 0.941 . S
C215 C214 1.391 . S
C215 C216 1.396 . S
C216 H200 0.939 . S
C216 C215 1.396 . S
C216 C217 1.397 . S
C217 C216 1.397 . S
C217 C218 1.385 1_545 S
C218 H201 0.940 . S
C218 C217 1.385 1_565 S
C218 C219 1.388 . S
C219 H198 0.939 . S
C219 C214 1.391 1_565 S
C219 C218 1.388 . S
P220 O231 1.490 . S
P220 C234 1.812 . S
P220 C240 1.803 . S
P220 C246 1.819 . S
H221 C235 0.941 . S
H222 C236 0.939 . S
H223 C238 0.940 . S
H224 C239 0.940 . S
H225 C241 0.939 . S
H226 C242 0.942 . S
H227 C244 0.940 . S
H228 C245 0.939 . S
H229 C247 0.941 . S
H230 C251 0.939 . S
O231 P220 1.490 . S
H232 C248 0.939 . S
H233 C250 0.940 . S
C234 P220 1.812 . S
C234 C235 1.389 . S
C234 C239 1.391 . S
C235 H221 0.941 . S
C235 C234 1.389 . S
C235 C236 1.397 . S
C236 H222 0.939 . S
C236 C235 1.397 . S
C236 C237 1.378 . S
C237 C236 1.378 . S
C237 C238 1.378 . S
C238 H223 0.940 . S
C238 C237 1.378 . S
C238 C239 1.396 . S
C239 H224 0.940 . S
C239 C234 1.391 . S
C239 C238 1.396 . S
C240 P220 1.803 . S
C240 C241 1.378 . S
C240 C245 1.400 . S
C241 H225 0.939 . S
C241 C240 1.378 . S
C241 C242 1.361 . S
C242 H226 0.942 . S
C242 C241 1.361 . S
C242 C243 1.369 . S
C243 C242 1.369 . S
C243 C244 1.404 . S
C244 H227 0.940 . S
C244 C243 1.404 . S
C244 C245 1.389 . S
C245 H228 0.939 . S
C245 C240 1.400 . S
C245 C244 1.389 . S
C246 P220 1.819 . S
C246 C247 1.391 . S
C246 C251 1.391 . S
C247 H229 0.941 . S
C247 C246 1.391 . S
C247 C248 1.396 . S
C248 H232 0.939 . S
C248 C247 1.396 . S
C248 C249 1.397 . S
C249 C248 1.397 . S
C249 C250 1.385 . S
C250 H233 0.940 . S
C250 C249 1.385 . S
C250 C251 1.388 . S
C251 H230 0.939 . S
C251 C246 1.391 . S
C251 C250 1.388 . S
H252 C264 0.930 . S
H253 C266 0.930 . S
H254 C267 0.930 . S
H255 C271 0.959 . S
H256 C271 0.959 . S
H257 C271 0.961 . S
H258 C272 0.960 . S
H259 C272 0.961 . S
H260 C272 0.959 . S
H261 C275 0.929 . S
H262 C276 0.931 . S
H263 C278 0.930 . S
C264 H252 0.930 . S
C264 C265 1.399 . S
C264 C269 1.399 . S
C265 C264 1.399 . S
C265 C266 1.376 . S
C266 H253 0.930 . S
C266 C265 1.376 . S
C266 C267 1.388 . S
C267 H254 0.930 . S
C267 C266 1.388 . S
C267 C268 1.390 . S
C268 C267 1.390 . S
C268 C269 1.394 . S
C268 C274 1.465 . S
C269 C264 1.399 . S
C269 C268 1.394 . S
C269 C270 1.516 . S
C270 C269 1.516 . S
C270 C271 1.502 . S
C270 C272 1.561 . S
C270 C273 1.526 . S
C271 H255 0.959 . S
C271 H256 0.959 . S
C271 H257 0.961 . S
C271 C270 1.502 . S
C272 H258 0.960 . S
C272 H259 0.961 . S
C272 H260 0.959 . S
C272 C270 1.561 . S
C273 C270 1.526 . S
C273 C274 1.396 . S
C273 C278 1.390 . S
C274 C268 1.465 . S
C274 C273 1.396 . S
C274 C275 1.399 . S
C275 H261 0.929 . S
C275 C274 1.399 . S
C275 C276 1.385 . S
C276 H262 0.931 . S
C276 C275 1.385 . S
C276 C277 1.389 . S
C277 C276 1.389 . S
C277 C278 1.387 . S
C278 H263 0.930 . S
C278 C273 1.390 . S
C278 C277 1.387 . S
H279 C291 0.930 . S
H280 C293 0.930 . S
H281 C294 0.930 . S
H282 C298 0.959 . S
H283 C298 0.959 . S
H284 C298 0.961 . S
H285 C299 0.960 . S
H286 C299 0.961 . S
H287 C299 0.959 . S
H288 C302 0.929 . S
H289 C303 0.931 . S
H290 C305 0.930 . S
C291 H279 0.930 . S
C291 C292 1.399 . S
C291 C296 1.399 . S
C292 C291 1.399 . S
C292 C293 1.376 . S
C293 H280 0.930 . S
C293 C292 1.376 . S
C293 C294 1.388 . S
C294 H281 0.930 . S
C294 C293 1.388 . S
C294 C295 1.390 . S
C295 C294 1.390 . S
C295 C296 1.394 . S
C295 C301 1.465 . S
C296 C291 1.399 . S
C296 C295 1.394 . S
C296 C297 1.516 . S
C297 C296 1.516 . S
C297 C298 1.502 . S
C297 C299 1.561 . S
C297 C300 1.526 . S
C298 H282 0.959 . S
C298 H283 0.959 . S
C298 H284 0.961 . S
C298 C297 1.502 . S
C299 H285 0.960 . S
C299 H286 0.961 . S
C299 H287 0.959 . S
C299 C297 1.561 . S
C300 C297 1.526 . S
C300 C301 1.396 . S
C300 C305 1.390 . S
C301 C295 1.465 . S
C301 C300 1.396 . S
C301 C302 1.399 . S
C302 H288 0.929 . S
C302 C301 1.399 . S
C302 C303 1.385 . S
C303 H289 0.931 . S
C303 C302 1.385 . S
C303 C304 1.389 . S
C304 C303 1.389 . S
C304 C305 1.387 . S
C305 H290 0.930 . S
C305 C300 1.390 . S
C305 C304 1.387 . S
H306 C318 0.930 . S
H307 C320 0.930 . S
H308 C321 0.930 . S
H309 C325 0.959 . S
H310 C325 0.959 . S
H311 C325 0.961 . S
H312 C326 0.960 . S
H313 C326 0.961 . S
H314 C326 0.959 . S
H315 C329 0.929 . S
H316 C330 0.931 . S
H317 C332 0.930 . S
C318 H306 0.930 . S
C318 C319 1.399 . S
C318 C323 1.399 . S
C319 C318 1.399 . S
C319 C320 1.376 . S
C320 H307 0.930 . S
C320 C319 1.376 . S
C320 C321 1.388 . S
C321 H308 0.930 . S
C321 C320 1.388 . S
C321 C322 1.390 . S
C322 C321 1.390 . S
C322 C323 1.394 . S
C322 C328 1.465 . S
C323 C318 1.399 . S
C323 C322 1.394 . S
C323 C324 1.516 . S
C324 C323 1.516 . S
C324 C325 1.502 . S
C324 C326 1.561 . S
C324 C327 1.526 . S
C325 H309 0.959 . S
C325 H310 0.959 . S
C325 H311 0.961 . S
C325 C324 1.502 . S
C326 H312 0.960 . S
C326 H313 0.961 . S
C326 H314 0.959 . S
C326 C324 1.561 . S
C327 C324 1.526 . S
C327 C328 1.396 . S
C327 C332 1.390 . S
C328 C322 1.465 . S
C328 C327 1.396 . S
C328 C329 1.399 . S
C329 H315 0.929 . S
C329 C328 1.399 . S
C329 C330 1.385 . S
C330 H316 0.931 . S
C330 C329 1.385 . S
C330 C331 1.389 . S
C331 C330 1.389 . S
C331 C332 1.387 . S
C332 H317 0.930 . S
C332 C327 1.390 . S
C332 C331 1.387 . S
H333 C345 0.930 . S
H334 C347 0.930 . S
H335 C348 0.930 . S
H336 C352 0.959 . S
H337 C352 0.959 . S
H338 C352 0.961 . S
H339 C353 0.960 . S
H340 C353 0.961 . S
H341 C353 0.959 . S
H342 C356 0.929 . S
H343 C357 0.931 . S
H344 C359 0.930 . S
C345 H333 0.930 . S
C345 C346 1.399 . S
C345 C350 1.399 . S
C346 C345 1.399 . S
C346 C347 1.376 . S
C347 H334 0.930 . S
C347 C346 1.376 . S
C347 C348 1.388 . S
C348 H335 0.930 . S
C348 C347 1.388 . S
C348 C349 1.390 . S
C349 C348 1.390 . S
C349 C350 1.394 . S
C349 C355 1.465 . S
C350 C345 1.399 . S
C350 C349 1.394 . S
C350 C351 1.516 . S
C351 C350 1.516 . S
C351 C352 1.502 . S
C351 C353 1.561 . S
C351 C354 1.526 . S
C352 H336 0.959 . S
C352 H337 0.959 . S
C352 H338 0.961 . S
C352 C351 1.502 . S
C353 H339 0.960 . S
C353 H340 0.961 . S
C353 H341 0.959 . S
C353 C351 1.561 . S
C354 C351 1.526 . S
C354 C355 1.396 . S
C354 C359 1.390 . S
C355 C349 1.465 . S
C355 C354 1.396 . S
C355 C356 1.399 . S
C356 H342 0.929 . S
C356 C355 1.399 . S
C356 C357 1.385 . S
C357 H343 0.931 . S
C357 C356 1.385 . S
C357 C358 1.389 . S
C358 C357 1.389 . S
C358 C359 1.387 . S
C359 H344 0.930 . S
C359 C354 1.390 . S
C359 C358 1.387 . S
H360 C372 0.930 . S
H361 C374 0.930 . S
H362 C375 0.930 . S
H363 C379 0.959 . S
H364 C379 0.959 . S
H365 C379 0.961 . S
H366 C380 0.960 . S
H367 C380 0.961 . S
H368 C380 0.959 . S
H369 C383 0.929 . S
H370 C384 0.931 . S
H371 C386 0.930 . S
C372 H360 0.930 . S
C372 C373 1.399 . S
C372 C377 1.399 . S
C373 C372 1.399 . S
C373 C374 1.376 . S
C374 H361 0.930 . S
C374 C373 1.376 . S
C374 C375 1.388 . S
C375 H362 0.930 . S
C375 C374 1.388 . S
C375 C376 1.390 . S
C376 C375 1.390 . S
C376 C377 1.394 . S
C376 C382 1.465 . S
C377 C372 1.399 . S
C377 C376 1.394 . S
C377 C378 1.516 . S
C378 C377 1.516 . S
C378 C379 1.502 . S
C378 C380 1.561 . S
C378 C381 1.526 . S
C379 H363 0.959 . S
C379 H364 0.959 . S
C379 H365 0.961 . S
C379 C378 1.502 . S
C380 H366 0.960 . S
C380 H367 0.961 . S
C380 H368 0.959 . S
C380 C378 1.561 . S
C381 C378 1.526 . S
C381 C382 1.396 . S
C381 C386 1.390 . S
C382 C376 1.465 . S
C382 C381 1.396 . S
C382 C383 1.399 . S
C383 H369 0.929 . S
C383 C382 1.399 . S
C383 C384 1.385 . S
C384 H370 0.931 . S
C384 C383 1.385 . S
C384 C385 1.389 . S
C385 C384 1.389 . S
C385 C386 1.387 . S
C386 H371 0.930 . S
C386 C381 1.390 . S
C386 C385 1.387 . S
H387 C399 0.930 . S
H388 C401 0.930 . S
H389 C402 0.930 . S
H390 C406 0.959 . S
H391 C406 0.959 . S
H392 C406 0.961 . S
H393 C407 0.960 . S
H394 C407 0.961 . S
H395 C407 0.959 . S
H396 C410 0.929 . S
H397 C411 0.931 . S
H398 C413 0.930 . S
C399 H387 0.930 . S
C399 C400 1.399 . S
C399 C404 1.399 . S
C400 C399 1.399 . S
C400 C401 1.376 . S
C401 H388 0.930 . S
C401 C400 1.376 . S
C401 C402 1.388 . S
C402 H389 0.930 . S
C402 C401 1.388 . S
C402 C403 1.390 . S
C403 C402 1.390 . S
C403 C404 1.394 . S
C403 C409 1.465 . S
C404 C399 1.399 . S
C404 C403 1.394 . S
C404 C405 1.516 . S
C405 C404 1.516 . S
C405 C406 1.502 . S
C405 C407 1.561 . S
C405 C408 1.526 . S
C406 H390 0.959 . S
C406 H391 0.959 . S
C406 H392 0.961 . S
C406 C405 1.502 . S
C407 H393 0.960 . S
C407 H394 0.961 . S
C407 H395 0.959 . S
C407 C405 1.561 . S
C408 C405 1.526 . S
C408 C409 1.396 . S
C408 C413 1.390 . S
C409 C403 1.465 . S
C409 C408 1.396 . S
C409 C410 1.399 . S
C410 H396 0.929 . S
C410 C409 1.399 . S
C410 C411 1.385 . S
C411 H397 0.931 . S
C411 C410 1.385 . S
C411 C412 1.389 . S
C412 C411 1.389 . S
C412 C413 1.387 . S
C413 H398 0.930 . S
C413 C408 1.390 . S
C413 C412 1.387 . S
H414 C426 0.930 . S
H415 C428 0.930 . S
H416 C429 0.930 . S
H417 C433 0.959 . S
H418 C433 0.959 . S
H419 C433 0.961 . S
H420 C434 0.960 . S
H421 C434 0.961 . S
H422 C434 0.959 . S
H423 C437 0.929 . S
H424 C438 0.931 . S
H425 C440 0.930 . S
C426 H414 0.930 . S
C426 C427 1.399 . S
C426 C431 1.399 . S
C427 C426 1.399 . S
C427 C428 1.376 . S
C428 H415 0.930 . S
C428 C427 1.376 . S
C428 C429 1.388 . S
C429 H416 0.930 . S
C429 C428 1.388 . S
C429 C430 1.390 . S
C430 C429 1.390 . S
C430 C431 1.394 . S
C430 C436 1.465 . S
C431 C426 1.399 . S
C431 C430 1.394 . S
C431 C432 1.516 . S
C432 C431 1.516 . S
C432 C433 1.502 . S
C432 C434 1.561 . S
C432 C435 1.526 . S
C433 H417 0.959 . S
C433 H418 0.959 . S
C433 H419 0.961 . S
C433 C432 1.502 . S
C434 H420 0.960 . S
C434 H421 0.961 . S
C434 H422 0.959 . S
C434 C432 1.561 . S
C435 C432 1.526 . S
C435 C436 1.396 . S
C435 C440 1.390 . S
C436 C430 1.465 . S
C436 C435 1.396 . S
C436 C437 1.399 . S
C437 H423 0.929 . S
C437 C436 1.399 . S
C437 C438 1.385 . S
C438 H424 0.931 . S
C438 C437 1.385 . S
C438 C439 1.389 . S
C439 C438 1.389 . S
C439 C440 1.387 . S
C440 H425 0.930 . S
C440 C435 1.390 . S
C440 C439 1.387 . S
H441 C453 0.930 . S
H442 C455 0.930 . S
H443 C456 0.930 . S
H444 C460 0.959 . S
H445 C460 0.959 . S
H446 C460 0.961 . S
H447 C461 0.960 . S
H448 C461 0.961 . S
H449 C461 0.959 . S
H450 C464 0.929 . S
H451 C465 0.931 . S
H452 C467 0.930 . S
C453 H441 0.930 . S
C453 C454 1.399 . S
C453 C458 1.399 . S
C454 C453 1.399 . S
C454 C455 1.376 . S
C455 H442 0.930 . S
C455 C454 1.376 . S
C455 C456 1.388 . S
C456 H443 0.930 . S
C456 C455 1.388 . S
C456 C457 1.390 . S
C457 C456 1.390 . S
C457 C458 1.394 . S
C457 C463 1.465 . S
C458 C453 1.399 . S
C458 C457 1.394 . S
C458 C459 1.516 . S
C459 C458 1.516 . S
C459 C460 1.502 . S
C459 C461 1.561 . S
C459 C462 1.526 . S
C460 H444 0.959 . S
C460 H445 0.959 . S
C460 H446 0.961 . S
C460 C459 1.502 . S
C461 H447 0.960 . S
C461 H448 0.961 . S
C461 H449 0.959 . S
C461 C459 1.561 . S
C462 C459 1.526 . S
C462 C463 1.396 . S
C462 C467 1.390 . S
C463 C457 1.465 . S
C463 C462 1.396 . S
C463 C464 1.399 . S
C464 H450 0.929 . S
C464 C463 1.399 . S
C464 C465 1.385 . S
C465 H451 0.931 . S
C465 C464 1.385 . S
C465 C466 1.389 . S
C466 C465 1.389 . S
C466 C467 1.387 . S
C467 H452 0.930 . S
C467 C462 1.390 . S
C467 C466 1.387 . S
H468 C480 0.930 . S
H469 C482 0.930 . S
H470 C483 0.930 . S
H471 C487 0.959 . S
H472 C487 0.959 . S
H473 C487 0.961 . S
H474 C488 0.960 . S
H475 C488 0.961 . S
H476 C488 0.959 . S
H477 C491 0.929 . S
H478 C492 0.931 . S
H479 C494 0.930 . S
C480 H468 0.930 . S
C480 C481 1.399 . S
C480 C485 1.399 . S
C481 C480 1.399 . S
C481 C482 1.376 . S
C482 H469 0.930 . S
C482 C481 1.376 . S
C482 C483 1.388 . S
C483 H470 0.930 . S
C483 C482 1.388 . S
C483 C484 1.390 . S
C484 C483 1.390 . S
C484 C485 1.394 . S
C484 C490 1.465 . S
C485 C480 1.399 . S
C485 C484 1.394 . S
C485 C486 1.516 . S
C486 C485 1.516 . S
C486 C487 1.502 . S
C486 C488 1.561 . S
C486 C489 1.526 . S
C487 H471 0.959 . S
C487 H472 0.959 . S
C487 H473 0.961 . S
C487 C486 1.502 . S
C488 H474 0.960 . S
C488 H475 0.961 . S
C488 H476 0.959 . S
C488 C486 1.561 . S
C489 C486 1.526 . S
C489 C490 1.396 . S
C489 C494 1.390 . S
C490 C484 1.465 . S
C490 C489 1.396 . S
C490 C491 1.399 . S
C491 H477 0.929 . S
C491 C490 1.399 . S
C491 C492 1.385 . S
C492 H478 0.931 . S
C492 C491 1.385 . S
C492 C493 1.389 . S
C493 C492 1.389 . S
C493 C494 1.387 . S
C494 H479 0.930 . S
C494 C489 1.390 . S
C494 C493 1.387 . S
H495 C507 0.930 . S
H496 C509 0.930 . S
H497 C510 0.930 . S
H498 C514 0.959 . S
H499 C514 0.959 . S
H500 C514 0.961 . S
H501 C515 0.960 . S
H502 C515 0.961 . S
H503 C515 0.959 . S
H504 C518 0.929 . S
H505 C519 0.931 . S
H506 C521 0.930 . S
C507 H495 0.930 . S
C507 C508 1.399 . S
C507 C512 1.399 . S
C508 C507 1.399 . S
C508 C509 1.376 . S
C509 H496 0.930 . S
C509 C508 1.376 . S
C509 C510 1.388 . S
C510 H497 0.930 . S
C510 C509 1.388 . S
C510 C511 1.390 . S
C511 C510 1.390 . S
C511 C512 1.394 . S
C511 C517 1.465 . S
C512 C507 1.399 . S
C512 C511 1.394 . S
C512 C513 1.516 . S
C513 C512 1.516 . S
C513 C514 1.502 . S
C513 C515 1.561 . S
C513 C516 1.526 . S
C514 H498 0.959 . S
C514 H499 0.959 . S
C514 H500 0.961 . S
C514 C513 1.502 . S
C515 H501 0.960 . S
C515 H502 0.961 . S
C515 H503 0.959 . S
C515 C513 1.561 . S
C516 C513 1.526 . S
C516 C517 1.396 . S
C516 C521 1.390 . S
C517 C511 1.465 . S
C517 C516 1.396 . S
C517 C518 1.399 . S
C518 H504 0.929 . S
C518 C517 1.399 . S
C518 C519 1.385 . S
C519 H505 0.931 . S
C519 C518 1.385 . S
C519 C520 1.389 . S
C520 C519 1.389 . S
C520 C521 1.387 . S
C521 H506 0.930 . S
C521 C516 1.390 . S
C521 C520 1.387 . S
H522 C534 0.930 . S
H523 C536 0.930 . S
H524 C537 0.930 . S
H525 C541 0.959 . S
H526 C541 0.959 . S
H527 C541 0.961 . S
H528 C542 0.960 . S
H529 C542 0.961 . S
H530 C542 0.959 . S
H531 C545 0.929 . S
H532 C546 0.931 . S
H533 C548 0.930 . S
C534 H522 0.930 . S
C534 C535 1.399 . S
C534 C539 1.399 . S
C535 C534 1.399 . S
C535 C536 1.376 . S
C536 H523 0.930 . S
C536 C535 1.376 . S
C536 C537 1.388 . S
C537 H524 0.930 . S
C537 C536 1.388 . S
C537 C538 1.390 . S
C538 C537 1.390 . S
C538 C539 1.394 . S
C538 C544 1.465 . S
C539 C534 1.399 . S
C539 C538 1.394 . S
C539 C540 1.516 . S
C540 C539 1.516 . S
C540 C541 1.502 . S
C540 C542 1.561 . S
C540 C543 1.526 . S
C541 H525 0.959 . S
C541 H526 0.959 . S
C541 H527 0.961 . S
C541 C540 1.502 . S
C542 H528 0.960 . S
C542 H529 0.961 . S
C542 H530 0.959 . S
C542 C540 1.561 . S
C543 C540 1.526 . S
C543 C544 1.396 . S
C543 C548 1.390 . S
C544 C538 1.465 . S
C544 C543 1.396 . S
C544 C545 1.399 . S
C545 H531 0.929 . S
C545 C544 1.399 . S
C545 C546 1.385 . S
C546 H532 0.931 . S
C546 C545 1.385 . S
C546 C547 1.389 . S
C547 C546 1.389 . S
C547 C548 1.387 . S
C548 H533 0.930 . S
C548 C543 1.390 . S
C548 C547 1.387 . S
H549 C561 0.930 . S
H550 C563 0.930 . S
H551 C564 0.930 . S
H552 C568 0.959 . S
H553 C568 0.959 . S
H554 C568 0.961 . S
H555 C569 0.960 . S
H556 C569 0.961 . S
H557 C569 0.959 . S
H558 C572 0.929 . S
H559 C573 0.931 . S
H560 C575 0.930 . S
C561 H549 0.930 . S
C561 C562 1.399 . S
C561 C566 1.399 . S
C562 C561 1.399 . S
C562 C563 1.376 . S
C563 H550 0.930 . S
C563 C562 1.376 . S
C563 C564 1.388 . S
C564 H551 0.930 . S
C564 C563 1.388 . S
C564 C565 1.390 . S
C565 C564 1.390 . S
C565 C566 1.394 . S
C565 C571 1.465 . S
C566 C561 1.399 . S
C566 C565 1.394 . S
C566 C567 1.516 . S
C567 C566 1.516 . S
C567 C568 1.502 . S
C567 C569 1.561 . S
C567 C570 1.526 . S
C568 H552 0.959 . S
C568 H553 0.959 . S
C568 H554 0.961 . S
C568 C567 1.502 . S
C569 H555 0.960 . S
C569 H556 0.961 . S
C569 H557 0.959 . S
C569 C567 1.561 . S
C570 C567 1.526 . S
C570 C571 1.396 . S
C570 C575 1.390 . S
C571 C565 1.465 . S
C571 C570 1.396 . S
C571 C572 1.399 . S
C572 H558 0.929 . S
C572 C571 1.399 . S
C572 C573 1.385 . S
C573 H559 0.931 . S
C573 C572 1.385 . S
C573 C574 1.389 . S
C574 C573 1.389 . S
C574 C575 1.387 . S
C575 H560 0.930 . S
C575 C570 1.390 . S
C575 C574 1.387 . S
H576 C588 0.930 . S
H577 C590 0.930 . S
H578 C591 0.930 . S
H579 C595 0.959 . S
H580 C595 0.959 . S
H581 C595 0.961 . S
H582 C596 0.960 . S
H583 C596 0.961 . S
H584 C596 0.959 . S
H585 C599 0.929 . S
H586 C600 0.931 . S
H587 C602 0.930 . S
C588 H576 0.930 . S
C588 C589 1.399 . S
C588 C593 1.399 . S
C589 C588 1.399 . S
C589 C590 1.376 . S
C590 H577 0.930 . S
C590 C589 1.376 . S
C590 C591 1.388 . S
C591 H578 0.930 . S
C591 C590 1.388 . S
C591 C592 1.390 . S
C592 C591 1.390 . S
C592 C593 1.394 . S
C592 C598 1.465 . S
C593 C588 1.399 . S
C593 C592 1.394 . S
C593 C594 1.516 . S
C594 C593 1.516 . S
C594 C595 1.502 . S
C594 C596 1.561 1_455 S
C594 C597 1.526 . S
C595 H579 0.959 . S
C595 H580 0.959 . S
C595 H581 0.961 . S
C595 C594 1.502 . S
C596 H582 0.960 . S
C596 H583 0.961 . S
C596 H584 0.959 . S
C596 C594 1.561 1_655 S
C597 C594 1.526 . S
C597 C598 1.396 . S
C597 C602 1.390 1_554 S
C598 C592 1.465 . S
C598 C597 1.396 . S
C598 C599 1.399 . S
C599 H585 0.929 . S
C599 C598 1.399 . S
C599 C600 1.385 1_554 S
C600 H586 0.931 . S
C600 C599 1.385 1_556 S
C600 C601 1.389 . S
C601 C600 1.389 . S
C601 C602 1.387 . S
C602 H587 0.930 . S
C602 C597 1.390 1_556 S
C602 C601 1.387 . S
H603 C615 0.930 . S
H604 C617 0.930 1_565 S
H605 C618 0.930 . S
H606 C622 0.959 . S
H607 C622 0.959 . S
H608 C622 0.961 . S
H609 C623 0.960 . S
H610 C623 0.961 . S
H611 C623 0.959 . S
H612 C626 0.929 . S
H613 C627 0.931 1_565 S
H614 C629 0.930 . S
C615 H603 0.930 . S
C615 C616 1.399 . S
C615 C620 1.399 . S
C616 C615 1.399 . S
C616 C617 1.376 . S
C617 H604 0.930 1_545 S
C617 C616 1.376 . S
C617 C618 1.388 1_545 S
C618 H605 0.930 . S
C618 C617 1.388 1_565 S
C618 C619 1.390 1_565 S
C619 C618 1.390 1_545 S
C619 C620 1.394 . S
C619 C625 1.465 . S
C620 C615 1.399 . S
C620 C619 1.394 . S
C620 C621 1.516 . S
C621 C620 1.516 . S
C621 C622 1.502 . S
C621 C623 1.561 . S
C621 C624 1.526 . S
C622 H606 0.959 . S
C622 H607 0.959 . S
C622 H608 0.961 . S
C622 C621 1.502 . S
C623 H609 0.960 . S
C623 H610 0.961 . S
C623 H611 0.959 . S
C623 C621 1.561 . S
C624 C621 1.526 . S
C624 C625 1.396 . S
C624 C629 1.390 . S
C625 C619 1.465 . S
C625 C624 1.396 . S
C625 C626 1.399 1_545 S
C626 H612 0.929 . S
C626 C625 1.399 1_565 S
C626 C627 1.385 1_565 S
C627 H613 0.931 1_545 S
C627 C626 1.385 1_545 S
C627 C628 1.389 . S
C628 C627 1.389 . S
C628 C629 1.387 . S
C629 H614 0.930 . S
C629 C624 1.390 . S
C629 C628 1.387 . S
H630 C642 0.930 . S
H631 C644 0.930 . S
H632 C645 0.930 . S
H633 C649 0.959 . S
H634 C649 0.959 . S
H635 C649 0.961 . S
H636 C650 0.960 . S
H637 C650 0.961 . S
H638 C650 0.959 . S
H639 C653 0.929 . S
H640 C654 0.931 . S
H641 C656 0.930 . S
C642 H630 0.930 . S
C642 C643 1.399 . S
C642 C647 1.399 . S
C643 C642 1.399 . S
C643 C644 1.376 . S
C644 H631 0.930 . S
C644 C643 1.376 . S
C644 C645 1.388 . S
C645 H632 0.930 . S
C645 C644 1.388 . S
C645 C646 1.390 . S
C646 C645 1.390 . S
C646 C647 1.394 . S
C646 C652 1.465 . S
C647 C642 1.399 . S
C647 C646 1.394 . S
C647 C648 1.516 . S
C648 C647 1.516 . S
C648 C649 1.502 . S
C648 C650 1.561 . S
C648 C651 1.526 . S
C649 H633 0.959 . S
C649 H634 0.959 . S
C649 H635 0.961 . S
C649 C648 1.502 . S
C650 H636 0.960 . S
C650 H637 0.961 . S
C650 H638 0.959 . S
C650 C648 1.561 . S
C651 C648 1.526 . S
C651 C652 1.396 . S
C651 C656 1.390 . S
C652 C646 1.465 . S
C652 C651 1.396 . S
C652 C653 1.399 . S
C653 H639 0.929 . S
C653 C652 1.399 . S
C653 C654 1.385 . S
C654 H640 0.931 . S
C654 C653 1.385 . S
C654 C655 1.389 . S
C655 C654 1.389 . S
C655 C656 1.387 . S
C656 H641 0.930 . S
C656 C651 1.390 . S
C656 C655 1.387 . S
H657 C669 0.930 . S
H658 C671 0.930 . S
H659 C672 0.930 . S
H660 C676 0.959 . S
H661 C676 0.959 . S
H662 C676 0.961 . S
H663 C677 0.960 . S
H664 C677 0.961 . S
H665 C677 0.959 . S
H666 C680 0.929 . S
H667 C681 0.931 . S
H668 C683 0.930 . S
C669 H657 0.930 . S
C669 C670 1.399 . S
C669 C674 1.399 . S
C670 C669 1.399 . S
C670 C671 1.376 1_545 S
C671 H658 0.930 . S
C671 C670 1.376 1_565 S
C671 C672 1.388 . S
C672 H659 0.930 . S
C672 C671 1.388 . S
C672 C673 1.390 1_565 S
C673 C672 1.390 1_545 S
C673 C674 1.394 . S
C673 C679 1.465 . S
C674 C669 1.399 . S
C674 C673 1.394 . S
C674 C675 1.516 . S
C675 C674 1.516 . S
C675 C676 1.502 . S
C675 C677 1.561 . S
C675 C678 1.526 . S
C676 H660 0.959 . S
C676 H661 0.959 . S
C676 H662 0.961 . S
C676 C675 1.502 . S
C677 H663 0.960 . S
C677 H664 0.961 . S
C677 H665 0.959 . S
C677 C675 1.561 . S
C678 C675 1.526 . S
C678 C679 1.396 . S
C678 C683 1.390 . S
C679 C673 1.465 . S
C679 C678 1.396 . S
C679 C680 1.399 1_545 S
C680 H666 0.929 . S
C680 C679 1.399 1_565 S
C680 C681 1.385 . S
C681 H667 0.931 . S
C681 C680 1.385 . S
C681 C682 1.389 1_565 S
C682 C681 1.389 1_545 S
C682 C683 1.387 . S
C683 H668 0.930 . S
C683 C678 1.390 . S
C683 C682 1.387 . S
H684 C696 0.930 . S
H685 C698 0.930 . S
H686 C699 0.930 . S
H687 C703 0.959 . S
H688 C703 0.959 . S
H689 C703 0.961 . S
H690 C704 0.960 . S
H691 C704 0.961 . S
H692 C704 0.959 . S
H693 C707 0.929 . S
H694 C708 0.931 . S
H695 C710 0.930 . S
C696 H684 0.930 . S
C696 C697 1.399 . S
C696 C701 1.399 . S
C697 C696 1.399 . S
C697 C698 1.376 . S
C698 H685 0.930 . S
C698 C697 1.376 . S
C698 C699 1.388 . S
C699 H686 0.930 . S
C699 C698 1.388 . S
C699 C700 1.390 . S
C700 C699 1.390 . S
C700 C701 1.394 . S
C700 C706 1.465 . S
C701 C696 1.399 . S
C701 C700 1.394 . S
C701 C702 1.516 . S
C702 C701 1.516 . S
C702 C703 1.502 . S
C702 C704 1.561 . S
C702 C705 1.526 . S
C703 H687 0.959 . S
C703 H688 0.959 . S
C703 H689 0.961 . S
C703 C702 1.502 . S
C704 H690 0.960 . S
C704 H691 0.961 . S
C704 H692 0.959 . S
C704 C702 1.561 . S
C705 C702 1.526 . S
C705 C706 1.396 . S
C705 C710 1.390 1_556 S
C706 C700 1.465 . S
C706 C705 1.396 . S
C706 C707 1.399 . S
C707 H693 0.929 . S
C707 C706 1.399 . S
C707 C708 1.385 1_556 S
C708 H694 0.931 . S
C708 C707 1.385 1_554 S
C708 C709 1.389 . S
C709 C708 1.389 . S
C709 C710 1.387 . S
C710 H695 0.930 . S
C710 C705 1.390 1_554 S
C710 C709 1.387 . S
H711 C723 0.930 . S
H712 C725 0.930 . S
H713 C726 0.930 . S
H714 C730 0.959 . S
H715 C730 0.959 . S
H716 C730 0.961 . S
H717 C731 0.960 . S
H718 C731 0.961 . S
H719 C731 0.959 . S
H720 C734 0.929 . S
H721 C735 0.931 . S
H722 C737 0.930 . S
C723 H711 0.930 . S
C723 C724 1.399 . S
C723 C728 1.399 . S
C724 C723 1.399 . S
C724 C725 1.376 1_455 S
C725 H712 0.930 . S
C725 C724 1.376 1_655 S
C725 C726 1.388 . S
C726 H713 0.930 . S
C726 C725 1.388 . S
C726 C727 1.390 . S
C727 C726 1.390 . S
C727 C728 1.394 1_655 S
C727 C733 1.465 . S
C728 C723 1.399 . S
C728 C727 1.394 1_455 S
C728 C729 1.516 . S
C729 C728 1.516 . S
C729 C730 1.502 . S
C729 C731 1.561 . S
C729 C732 1.526 . S
C730 H714 0.959 . S
C730 H715 0.959 . S
C730 H716 0.961 . S
C730 C729 1.502 . S
C731 H717 0.960 . S
C731 H718 0.961 . S
C731 H719 0.959 . S
C731 C729 1.561 . S
C732 C729 1.526 . S
C732 C733 1.396 1_455 S
C732 C737 1.390 . S
C733 C727 1.465 . S
C733 C732 1.396 1_655 S
C733 C734 1.399 . S
C734 H720 0.929 . S
C734 C733 1.399 . S
C734 C735 1.385 . S
C735 H721 0.931 . S
C735 C734 1.385 . S
C735 C736 1.389 . S
C736 C735 1.389 . S
C736 C737 1.387 1_655 S
C737 H722 0.930 . S
C737 C732 1.390 . S
C737 C736 1.387 1_455 S
C265 C8 1.952 . S
C277 C243 2.018 . S
C292 C26 1.346 . S
C304 C179 1.325 . S
C319 C48 1.473 . S
C331 C211 1.473 . S
C346 C19 1.824 . S
C358 C237 1.860 . S
C385 C173 1.420 . S
C373 C36 1.482 . S
C412 C205 1.677 . S
C400 C59 1.670 . S
C427 C28 1.519 . S
C439 C115 1.558 . S
C454 C46 1.152 . S
C466 C147 1.139 . S
C481 C16 1.476 . S
C493 C77 1.477 . S
C520 C109 1.655 . S
C508 C39 1.646 . S
C547 C141 0.999 . S
C535 C56 1.062 . S
C562 C6 1.350 . S
C574 C83 1.286 . S
C601 C153 1.385 . S
C589 C9 1.378 . S
C616 C21 1.466 . S
C628 C89 1.427 . S
C643 C49 1.462 . S
C655 C121 1.477 . S
C682 C217 1.462 . S
C670 C29 1.460 . S
C709 C249 1.534 . S
C697 C41 1.550 . S
C724 C1 1.507 . S
C736 C185 1.461 1_655 S
