# Generated by pormake.
# Topology pto, (3,4)-cn, num edge types: 1
# Building blocks:
#     Node 0, Type 0, BuildingBlock: WUSLED_clean_sbu_0, # of connection points: 3
#     Node 1, Type 0, BuildingBlock: WUSLED_clean_sbu_0, # of connection points: 3
#     Node 2, Type 0, BuildingBlock: WUSLED_clean_sbu_0, # of connection points: 3
#     Node 3, Type 0, BuildingBlock: WUSLED_clean_sbu_0, # of connection points: 3
#     Node 4, Type 0, BuildingBlock: WUSLED_clean_sbu_0, # of connection points: 3
#     Node 5, Type 0, BuildingBlock: WUSLED_clean_sbu_0, # of connection points: 3
#     Node 6, Type 0, BuildingBlock: WUSLED_clean_sbu_0, # of connection points: 3
#     Node 7, Type 0, BuildingBlock: WUSLED_clean_sbu_0, # of connection points: 3
#     Node 8, Type 1, BuildingBlock: MUDLON_clean_linker_0, # of connection points: 4
#     Node 9, Type 1, BuildingBlock: MUDLON_clean_linker_0, # of connection points: 4
#     Node 10, Type 1, BuildingBlock: MUDLON_clean_linker_0, # of connection points: 4
#     Node 11, Type 1, BuildingBlock: MUDLON_clean_linker_0, # of connection points: 4
#     Node 12, Type 1, BuildingBlock: MUDLON_clean_linker_0, # of connection points: 4
#     Node 13, Type 1, BuildingBlock: MUDLON_clean_linker_0, # of connection points: 4
#     Edge 14, Type (0, 1), BuildingBlock: TEMPAE_clean_linker_10, # of connection points: 2
#     Edge 15, Type (0, 1), BuildingBlock: TEMPAE_clean_linker_10, # of connection points: 2
#     Edge 16, Type (0, 1), BuildingBlock: TEMPAE_clean_linker_10, # of connection points: 2
#     Edge 17, Type (0, 1), BuildingBlock: TEMPAE_clean_linker_10, # of connection points: 2
#     Edge 18, Type (0, 1), BuildingBlock: TEMPAE_clean_linker_10, # of connection points: 2
#     Edge 19, Type (0, 1), BuildingBlock: TEMPAE_clean_linker_10, # of connection points: 2
#     Edge 20, Type (0, 1), BuildingBlock: TEMPAE_clean_linker_10, # of connection points: 2
#     Edge 21, Type (0, 1), BuildingBlock: TEMPAE_clean_linker_10, # of connection points: 2
#     Edge 22, Type (0, 1), BuildingBlock: TEMPAE_clean_linker_10, # of connection points: 2
#     Edge 23, Type (0, 1), BuildingBlock: TEMPAE_clean_linker_10, # of connection points: 2
#     Edge 24, Type (0, 1), BuildingBlock: TEMPAE_clean_linker_10, # of connection points: 2
#     Edge 25, Type (0, 1), BuildingBlock: TEMPAE_clean_linker_10, # of connection points: 2
#     Edge 26, Type (0, 1), BuildingBlock: TEMPAE_clean_linker_10, # of connection points: 2
#     Edge 27, Type (0, 1), BuildingBlock: TEMPAE_clean_linker_10, # of connection points: 2
#     Edge 28, Type (0, 1), BuildingBlock: TEMPAE_clean_linker_10, # of connection points: 2
#     Edge 29, Type (0, 1), BuildingBlock: TEMPAE_clean_linker_10, # of connection points: 2
#     Edge 30, Type (0, 1), BuildingBlock: TEMPAE_clean_linker_10, # of connection points: 2
#     Edge 31, Type (0, 1), BuildingBlock: TEMPAE_clean_linker_10, # of connection points: 2
#     Edge 32, Type (0, 1), BuildingBlock: TEMPAE_clean_linker_10, # of connection points: 2
#     Edge 33, Type (0, 1), BuildingBlock: TEMPAE_clean_linker_10, # of connection points: 2
#     Edge 34, Type (0, 1), BuildingBlock: TEMPAE_clean_linker_10, # of connection points: 2
#     Edge 35, Type (0, 1), BuildingBlock: TEMPAE_clean_linker_10, # of connection points: 2
#     Edge 36, Type (0, 1), BuildingBlock: TEMPAE_clean_linker_10, # of connection points: 2
#     Edge 37, Type (0, 1), BuildingBlock: TEMPAE_clean_linker_10, # of connection points: 2
# Relax obj value: 0.005
# Max RMSD: 0.037
# Mean RMSD: 0.021
data_MOF--net-pto--node1-WUSLED_clean_sbu_0--node2-MUDLON_clean_linker_0--edge1-TEMPAE_clean_linker_10
_symmetry_space_group_name_H-M    P1
_symmetry_Int_Tables_number       1
_symmetry_cell_setting            triclinic
loop_
_symmetry_equiv_pos_as_xyz
'x, y, z'
_cell_length_a     49.720464
_cell_length_b     83.391539
_cell_length_c     67.224283
_cell_angle_alpha  89.55052
_cell_angle_beta   90.636118
_cell_angle_gamma 90.584762
loop_
_atom_site_label
_atom_site_type_symbol
_atom_site_fract_x
_atom_site_fract_y
_atom_site_fract_z
_atom_type_partial_charge
C0 C 0.23906 0.23345 0.36237 0.0
C1 C 0.24395 0.21944 0.35159 0.0
C2 C 0.23873 0.20329 0.38169 0.0
C3 C 0.24366 0.20447 0.36115 0.0
C4 C 0.23435 0.21741 0.39245 0.0
C5 C 0.23446 0.23234 0.38285 0.0
U6 U 0.25852 0.26192 0.32003 0.0
O7 O 0.234 0.27953 0.30355 0.0
O8 O 0.26961 0.28749 0.32054 0.0
C9 C 0.24809 0.29178 0.31035 0.0
C10 C 0.23824 0.24925 0.35248 0.0
C11 C 0.23229 0.30497 0.31863 0.0
C12 C 0.21628 0.3204 0.34661 0.0
C13 C 0.23131 0.3077 0.33922 0.0
C14 C 0.20267 0.32759 0.31302 0.0
C15 C 0.20174 0.33045 0.33359 0.0
C16 C 0.21787 0.315 0.30563 0.0
C17 C 0.30398 0.24724 0.27842 0.0
C18 C 0.30624 0.25631 0.24397 0.0
C19 C 0.34533 0.24448 0.25985 0.0
C20 C 0.33083 0.24236 0.27738 0.0
C21 C 0.33317 0.25142 0.24293 0.0
C22 C 0.2918 0.25433 0.26158 0.0
C23 C 0.28919 0.24472 0.29713 0.0
O24 O 0.26107 0.25733 0.35232 0.0
O25 O 0.22521 0.24975 0.33537 0.0
O26 O 0.26277 0.24461 0.2958 0.0
O27 O 0.2985 0.2527 0.31257 0.0
H28 H 0.24776 0.22007 0.33576 0.0
H29 H 0.24736 0.19383 0.35251 0.0
H30 H 0.23018 0.21689 0.40822 0.0
H31 H 0.23066 0.24303 0.3914 0.0
H32 H 0.2157 0.32222 0.36254 0.0
H33 H 0.2421 0.30003 0.34957 0.0
H34 H 0.19189 0.33522 0.30262 0.0
H35 H 0.21837 0.31309 0.28972 0.0
H36 H 0.29645 0.26184 0.23121 0.0
H37 H 0.36596 0.24045 0.25943 0.0
H38 H 0.3406 0.23685 0.29017 0.0
H39 H 0.27116 0.25832 0.262 0.0
C40 C 0.22631 0.79073 0.66453 0.0
C41 C 0.22402 0.80513 0.6751 0.0
C42 C 0.2244 0.82041 0.64406 0.0
C43 C 0.22291 0.81983 0.66493 0.0
C44 C 0.22712 0.80599 0.63359 0.0
C45 C 0.22797 0.79131 0.64373 0.0
U46 U 0.24931 0.76345 0.70725 0.0
O47 O 0.22704 0.74509 0.72425 0.0
O48 O 0.26229 0.73832 0.70697 0.0
C49 C 0.24182 0.73333 0.71766 0.0
C50 C 0.22683 0.77504 0.6748 0.0
C51 C 0.22674 0.71947 0.70981 0.0
C52 C 0.20223 0.70608 0.68311 0.0
C53 C 0.21696 0.71931 0.69015 0.0
C54 C 0.20685 0.69312 0.71535 0.0
C55 C 0.19688 0.69288 0.69569 0.0
C56 C 0.22166 0.7063 0.72232 0.0
C57 C 0.29501 0.7799 0.74816 0.0
C58 C 0.31118 0.76282 0.77508 0.0
C59 C 0.32435 0.79088 0.77385 0.0
C60 C 0.30916 0.79289 0.7564 0.0
C61 C 0.32564 0.7758 0.78336 0.0
C62 C 0.296 0.76486 0.75762 0.0
C63 C 0.27957 0.78212 0.72962 0.0
O64 O 0.2501 0.7677 0.67487 0.0
O65 O 0.2145 0.77417 0.69199 0.0
O66 O 0.25331 0.78105 0.73134 0.0
O67 O 0.28871 0.77437 0.71419 0.0
H68 H 0.22297 0.80503 0.69118 0.0
H69 H 0.22106 0.83075 0.6734 0.0
H70 H 0.22801 0.80604 0.61749 0.0
H71 H 0.22975 0.78035 0.6353 0.0
H72 H 0.19456 0.70632 0.66797 0.0
H73 H 0.22056 0.72944 0.68031 0.0
H74 H 0.20331 0.68308 0.72532 0.0
H75 H 0.22908 0.70623 0.73754 0.0
H76 H 0.31201 0.75102 0.78189 0.0
H77 H 0.33495 0.80115 0.77997 0.0
H78 H 0.30853 0.80459 0.74929 0.0
H79 H 0.2852 0.75469 0.75139 0.0
C80 C 0.73627 0.78017 0.28109 0.0
C81 C 0.74601 0.77181 0.26462 0.0
C82 C 0.70496 0.77763 0.24596 0.0
C83 C 0.73055 0.77064 0.24716 0.0
C84 C 0.69514 0.78577 0.26257 0.0
C85 C 0.7107 0.78707 0.27994 0.0
U86 U 0.78308 0.76335 0.32147 0.0
O87 O 0.81863 0.77435 0.33593 0.0
O88 O 0.78373 0.76721 0.35378 0.0
C89 C 0.80708 0.77475 0.3534 0.0
C90 C 0.75241 0.78196 0.29949 0.0
C91 C 0.80829 0.79035 0.36351 0.0
C92 C 0.78826 0.81578 0.37232 0.0
C93 C 0.78681 0.80113 0.36232 0.0
C94 C 0.83292 0.8092 0.38439 0.0
C95 C 0.8113 0.81997 0.38357 0.0
C96 C 0.83137 0.79453 0.3745 0.0
C97 C 0.8045 0.7195 0.31911 0.0
C98 C 0.82922 0.70617 0.34576 0.0
C99 C 0.82198 0.69276 0.31428 0.0
C100 C 0.80797 0.70608 0.30707 0.0
C101 C 0.83276 0.69262 0.33373 0.0
C102 C 0.81525 0.71951 0.3385 0.0
C103 C 0.78967 0.73335 0.3112 0.0
O104 O 0.7435 0.77401 0.31508 0.0
O105 O 0.77867 0.78126 0.29756 0.0
O106 O 0.80458 0.74521 0.30432 0.0
O107 O 0.76954 0.73819 0.32208 0.0
H108 H 0.7656 0.76624 0.26518 0.0
H109 H 0.73849 0.76417 0.23466 0.0
H110 H 0.6756 0.7914 0.26201 0.0
H111 H 0.70282 0.79355 0.29246 0.0
H112 H 0.77114 0.82368 0.37151 0.0
H113 H 0.76884 0.79817 0.35379 0.0
H114 H 0.85116 0.81213 0.39259 0.0
H115 H 0.84824 0.78642 0.37544 0.0
H116 H 0.83702 0.7064 0.36086 0.0
H117 H 0.82472 0.68267 0.30448 0.0
H118 H 0.7999 0.70591 0.29203 0.0
H119 H 0.81276 0.72982 0.348 0.0
C120 C 0.77743 0.21248 0.69357 0.0
C121 C 0.78689 0.21588 0.67439 0.0
C122 C 0.78869 0.18731 0.66722 0.0
C123 C 0.79238 0.2034 0.66129 0.0
C124 C 0.77946 0.18399 0.68654 0.0
C125 C 0.77384 0.19648 0.69957 0.0
U126 U 0.78398 0.25596 0.71051 0.0
O127 O 0.75363 0.27211 0.7226 0.0
O128 O 0.78903 0.26572 0.74064 0.0
C129 C 0.7656 0.27287 0.74011 0.0
C130 C 0.77128 0.22543 0.70748 0.0
C131 C 0.74823 0.26966 0.75724 0.0
C132 C 0.72004 0.2516 0.77663 0.0
C133 C 0.73667 0.25444 0.76029 0.0
C134 C 0.72654 0.27915 0.78703 0.0
C135 C 0.71476 0.26393 0.79018 0.0
C136 C 0.74312 0.28197 0.77069 0.0
C137 C 0.82683 0.2859 0.68123 0.0
C138 C 0.82453 0.31487 0.68464 0.0
C139 C 0.86342 0.30288 0.66953 0.0
C140 C 0.85199 0.28765 0.67227 0.0
C141 C 0.84981 0.3167 0.67561 0.0
C142 C 0.8132 0.2996 0.6875 0.0
C143 C 0.81546 0.2697 0.68421 0.0
O144 O 0.79172 0.2307 0.71823 0.0
O145 O 0.7562 0.23701 0.70026 0.0
O146 O 0.78927 0.26824 0.68175 0.0
O147 O 0.82464 0.2619 0.6999 0.0
H148 H 0.78999 0.22818 0.66955 0.0
H149 H 0.79977 0.20634 0.6466 0.0
H150 H 0.77617 0.17174 0.69147 0.0
H151 H 0.76658 0.19364 0.71434 0.0
H152 H 0.71153 0.23971 0.77875 0.0
H153 H 0.74051 0.24479 0.75004 0.0
H154 H 0.7226 0.28895 0.79703 0.0
H155 H 0.75187 0.2938 0.7685 0.0
H156 H 0.81337 0.32523 0.68933 0.0
H157 H 0.88313 0.30378 0.66289 0.0
H158 H 0.86292 0.27721 0.6675 0.0
H159 H 0.7938 0.2985 0.69459 0.0
C160 C 0.80195 0.71725 0.71045 0.0
C161 C 0.80171 0.71406 0.68995 0.0
C162 C 0.8311 0.69121 0.69542 0.0
C163 C 0.81605 0.70109 0.68252 0.0
C164 C 0.83137 0.69451 0.7159 0.0
C165 C 0.81686 0.70737 0.72333 0.0
U166 U 0.77758 0.76075 0.70923 0.0
O167 O 0.73843 0.77072 0.71715 0.0
O168 O 0.77472 0.77791 0.73383 0.0
C169 C 0.74835 0.7784 0.73263 0.0
C170 C 0.78694 0.73073 0.71881 0.0
C171 C 0.73415 0.77559 0.75142 0.0
C172 C 0.71419 0.75748 0.77573 0.0
C173 C 0.72838 0.75996 0.7581 0.0
C174 C 0.71201 0.78622 0.78041 0.0
C175 C 0.70573 0.77059 0.78704 0.0
C176 C 0.72606 0.78869 0.76273 0.0
C177 C 0.79696 0.78885 0.6665 0.0
C178 C 0.79039 0.81769 0.66715 0.0
C179 C 0.80299 0.8048 0.63649 0.0
C180 C 0.80313 0.78995 0.64626 0.0
C181 C 0.79673 0.81886 0.64684 0.0
C182 C 0.7904 0.80279 0.67689 0.0
C183 C 0.79759 0.7731 0.6765 0.0
O184 O 0.80173 0.74277 0.72537 0.0
O185 O 0.76538 0.73534 0.70888 0.0
O186 O 0.77453 0.76528 0.67697 0.0
O187 O 0.81092 0.77257 0.69349 0.0
H188 H 0.79052 0.7216 0.67967 0.0
H189 H 0.81571 0.69893 0.66665 0.0
H190 H 0.84257 0.68701 0.72622 0.0
H191 H 0.81729 0.70961 0.73919 0.0
H192 H 0.70991 0.74531 0.78056 0.0
H193 H 0.73467 0.74969 0.7496 0.0
H194 H 0.70551 0.79657 0.78866 0.0
H195 H 0.73039 0.80083 0.75778 0.0
H196 H 0.78525 0.82828 0.67547 0.0
H197 H 0.8083 0.80532 0.62092 0.0
H198 H 0.80824 0.77931 0.63801 0.0
H199 H 0.78539 0.80214 0.69252 0.0
C200 C 0.7328 0.24012 0.27949 0.0
C201 C 0.7346 0.25411 0.26784 0.0
C202 C 0.70292 0.24275 0.24374 0.0
C203 C 0.71982 0.25541 0.25007 0.0
C204 C 0.70135 0.22873 0.25547 0.0
C205 C 0.71619 0.22744 0.27318 0.0
U206 U 0.77733 0.25806 0.32031 0.0
O207 O 0.7755 0.25468 0.35282 0.0
O208 O 0.81167 0.24778 0.33663 0.0
C209 C 0.79878 0.24736 0.35361 0.0
C210 C 0.74777 0.23868 0.29836 0.0
C211 C 0.79893 0.23189 0.36438 0.0
C212 C 0.80023 0.20273 0.36473 0.0
C213 C 0.79944 0.21726 0.35418 0.0
C214 C 0.7992 0.21725 0.39577 0.0
C215 C 0.80027 0.20254 0.38567 0.0
C216 C 0.79863 0.23176 0.38521 0.0
C217 C 0.80027 0.30186 0.31645 0.0
C218 C 0.82418 0.31568 0.3431 0.0
C219 C 0.82073 0.32799 0.31041 0.0
C220 C 0.80592 0.31475 0.30361 0.0
C221 C 0.83011 0.32859 0.33021 0.0
C222 C 0.80946 0.30239 0.33625 0.0
C223 C 0.7853 0.28788 0.30881 0.0
O224 O 0.77408 0.23975 0.29701 0.0
O225 O 0.73812 0.24696 0.31317 0.0
O226 O 0.76444 0.2832 0.3193 0.0
O227 O 0.80019 0.27592 0.30293 0.0
H228 H 0.74727 0.26405 0.27257 0.0
H229 H 0.72121 0.26643 0.2415 0.0
H230 H 0.68877 0.21871 0.25089 0.0
H231 H 0.71461 0.21655 0.28201 0.0
H232 H 0.80133 0.19167 0.35645 0.0
H233 H 0.79949 0.21705 0.33807 0.0
H234 H 0.79868 0.21757 0.41186 0.0
H235 H 0.798 0.24291 0.39335 0.0
H236 H 0.83139 0.3157 0.35836 0.0
H237 H 0.82473 0.33781 0.30018 0.0
H238 H 0.79898 0.31453 0.28828 0.0
H239 H 0.80543 0.29248 0.34634 0.0
C240 C 0.22425 0.23056 0.66133 0.0
C241 C 0.24721 0.22112 0.65874 0.0
C242 C 0.22003 0.20048 0.64248 0.0
C243 C 0.24512 0.20627 0.64929 0.0
C244 C 0.19706 0.20984 0.6454 0.0
C245 C 0.19919 0.22476 0.65467 0.0
U246 U 0.24975 0.2583 0.70255 0.0
O247 O 0.26469 0.2832 0.70112 0.0
O248 O 0.229 0.27727 0.71873 0.0
C249 C 0.24461 0.28869 0.71156 0.0
C250 C 0.22597 0.24646 0.67081 0.0
C251 C 0.23052 0.30252 0.70289 0.0
C252 C 0.20271 0.31448 0.67691 0.0
C253 C 0.21659 0.30129 0.68469 0.0
C254 C 0.21672 0.33026 0.70539 0.0
C255 C 0.20251 0.32912 0.68722 0.0
C256 C 0.23059 0.31708 0.71313 0.0
C257 C 0.2941 0.24088 0.7442 0.0
C258 C 0.32153 0.2565 0.76727 0.0
C259 C 0.31195 0.22849 0.7743 0.0
C260 C 0.29691 0.22745 0.75667 0.0
C261 C 0.32455 0.243 0.77975 0.0
C262 C 0.3063 0.25548 0.74967 0.0
C263 C 0.27837 0.23935 0.72563 0.0
O264 O 0.21393 0.24763 0.68804 0.0
O265 O 0.24958 0.25372 0.67041 0.0
O266 O 0.2882 0.24679 0.70994 0.0
O267 O 0.25226 0.241 0.72739 0.0
H268 H 0.26678 0.22523 0.66392 0.0
H269 H 0.26311 0.19925 0.64741 0.0
H270 H 0.17751 0.20576 0.64013 0.0
H271 H 0.18124 0.23183 0.65652 0.0
H272 H 0.19221 0.31324 0.6628 0.0
H273 H 0.21636 0.2901 0.67659 0.0
H274 H 0.21666 0.34125 0.71387 0.0
H275 H 0.24116 0.3182 0.72724 0.0
H276 H 0.3308 0.26788 0.77118 0.0
H277 H 0.31416 0.21784 0.78347 0.0
H278 H 0.2876 0.2161 0.75268 0.0
H279 H 0.30415 0.26604 0.74032 0.0
C280 C 0.20998 0.73249 0.34808 0.0
C281 C 0.20255 0.72299 0.33171 0.0
C282 C 0.18713 0.70173 0.35401 0.0
C283 C 0.19108 0.70778 0.33466 0.0
C284 C 0.1952 0.71114 0.37033 0.0
C285 C 0.20645 0.7264 0.36738 0.0
U286 U 0.25137 0.76284 0.31843 0.0
O287 O 0.24342 0.78812 0.31104 0.0
O288 O 0.27946 0.78175 0.32839 0.0
C289 C 0.26424 0.79335 0.32141 0.0
C290 C 0.22118 0.74877 0.34529 0.0
C291 C 0.25864 0.80638 0.33534 0.0
C292 C 0.24354 0.81572 0.36745 0.0
C293 C 0.24872 0.80314 0.35442 0.0
C294 C 0.25784 0.83489 0.34234 0.0
C295 C 0.24807 0.83177 0.36157 0.0
C296 C 0.26309 0.8223 0.32937 0.0
C297 C 0.28542 0.74941 0.27086 0.0
C298 C 0.31105 0.76788 0.25016 0.0
C299 C 0.3091 0.73961 0.24209 0.0
C300 C 0.29267 0.73676 0.2585 0.0
C301 C 0.31856 0.7552 0.23775 0.0
C302 C 0.29464 0.765 0.26661 0.0
C303 C 0.26863 0.74612 0.28829 0.0
O304 O 0.24745 0.75008 0.34712 0.0
O305 O 0.21136 0.75696 0.33012 0.0
O306 O 0.24518 0.75326 0.28831 0.0
O307 O 0.28126 0.7468 0.30554 0.0
H308 H 0.20539 0.72737 0.31666 0.0
H309 H 0.18532 0.70073 0.3218 0.0
H310 H 0.19219 0.70685 0.38541 0.0
H311 H 0.21213 0.73354 0.38018 0.0
H312 H 0.23632 0.81287 0.38221 0.0
H313 H 0.24509 0.79089 0.35926 0.0
H314 H 0.26115 0.84708 0.3372 0.0
H315 H 0.27057 0.82502 0.31463 0.0
H316 H 0.31826 0.77998 0.24736 0.0
H317 H 0.31427 0.72963 0.23271 0.0
H318 H 0.28568 0.72466 0.26159 0.0
H319 H 0.2893 0.7749 0.27609 0.0
H320 H 0.99339 0.42726 0.41737 0.0
N321 N 0.017 0.44914 0.39448 0.0
H322 H 0.95717 0.40861 0.40802 0.0
H323 H 0.98708 0.45054 0.36012 0.0
H324 H 0.95116 0.43169 0.35039 0.0
H325 H 0.03369 0.44179 0.35699 0.0
H326 H 0.07061 0.4241 0.34869 0.0
H327 H 0.05419 0.43752 0.41924 0.0
H328 H 0.09141 0.41971 0.41102 0.0
H329 H 0.98791 0.46841 0.41666 0.0
H330 H 0.04283 0.46918 0.3674 0.0
H331 H 0.98549 0.49758 0.41527 0.0
H332 H 0.04185 0.49821 0.36673 0.0
H333 H 0.98711 0.58869 0.41692 0.0
H334 H 0.95133 0.60725 0.40754 0.0
H335 H 0.95068 0.58808 0.34798 0.0
H336 H 0.98695 0.57004 0.35733 0.0
H337 H 0.03521 0.5771 0.35684 0.0
H338 H 0.07121 0.5966 0.35071 0.0
H339 H 0.08331 0.60182 0.41407 0.0
H340 H 0.04701 0.58233 0.42004 0.0
H341 H 0.00998 0.54953 0.42367 0.0
H342 H 0.01052 0.52028 0.42335 0.0
H343 H 0.01789 0.52148 0.35928 0.0
N344 N 0.014 0.56955 0.39314 0.0
H345 H 0.01913 0.55067 0.36005 0.0
C346 C 0.99293 0.44019 0.38947 0.0
C347 C 0.98381 0.42848 0.4029 0.0
C348 C 0.96334 0.41776 0.39744 0.0
C349 C 0.95156 0.41853 0.37835 0.0
C350 C 0.95975 0.43083 0.36523 0.0
C351 C 0.98031 0.44158 0.37073 0.0
C352 C 0.04131 0.44111 0.38881 0.0
C353 C 0.04655 0.43737 0.36885 0.0
C354 C 0.06772 0.42725 0.36411 0.0
C355 C 0.08385 0.42047 0.37921 0.0
C356 C 0.0792 0.42467 0.39909 0.0
C357 C 0.05815 0.43494 0.4038 0.0
C358 C 0.01558 0.4664 0.39234 0.0
C359 C 0.99952 0.47486 0.40558 0.0
C360 C 0.99841 0.49159 0.40488 0.0
C361 C 0.01378 0.50041 0.39106 0.0
C362 C 0.02949 0.49191 0.37747 0.0
C363 C 0.03023 0.47513 0.37796 0.0
C364 C 0.98968 0.57792 0.38796 0.0
C365 C 0.97875 0.58827 0.40198 0.0
C366 C 0.95827 0.59885 0.39657 0.0
C367 C 0.94823 0.59927 0.37693 0.0
C368 C 0.95826 0.58827 0.36314 0.0
C369 C 0.97888 0.57777 0.36855 0.0
C370 C 0.03849 0.57823 0.38897 0.0
C371 C 0.04612 0.58203 0.36941 0.0
C372 C 0.06672 0.59323 0.36592 0.0
C373 C 0.07989 0.60088 0.38191 0.0
C374 C 0.07328 0.59629 0.40144 0.0
C375 C 0.05278 0.58507 0.40489 0.0
C376 C 0.01415 0.55232 0.39197 0.0
C377 C 0.01173 0.54342 0.40959 0.0
C378 C 0.01178 0.52667 0.40931 0.0
C379 C 0.0139 0.51835 0.39124 0.0
C380 C 0.01644 0.52737 0.37351 0.0
C381 C 0.0168 0.54417 0.37389 0.0
H382 H 0.00531 0.44172 0.67276 0.0
N383 N 0.01585 0.45074 0.63436 0.0
H384 H 0.97072 0.42252 0.68319 0.0
H385 H 0.97469 0.44001 0.6126 0.0
H386 H 0.93995 0.42073 0.62291 0.0
H387 H 0.03621 0.42907 0.61032 0.0
H388 H 0.07328 0.41081 0.61747 0.0
H389 H 0.05137 0.45314 0.66588 0.0
H390 H 0.08883 0.4353 0.6729 0.0
H391 H 0.01372 0.46965 0.66763 0.0
H392 H 0.01734 0.47073 0.60366 0.0
H393 H 0.01473 0.49889 0.66829 0.0
H394 H 0.01656 0.49996 0.60395 0.0
H395 H 0.99618 0.57866 0.67057 0.0
H396 H 0.95955 0.59638 0.67937 0.0
H397 H 0.93625 0.60003 0.61743 0.0
H398 H 0.97323 0.58221 0.6087 0.0
H399 H 0.03389 0.59323 0.60957 0.0
H400 H 0.06993 0.61219 0.61834 0.0
H401 H 0.07855 0.58898 0.67571 0.0
H402 H 0.04279 0.56984 0.66657 0.0
H403 H 0.98845 0.55108 0.66117 0.0
H404 H 0.98989 0.52204 0.66193 0.0
H405 H 0.04187 0.52279 0.61076 0.0
N406 N 0.0116 0.57112 0.63284 0.0
H407 H 0.03888 0.55194 0.60936 0.0
C408 C 0.99262 0.44226 0.6418 0.0
C409 C 0.99071 0.43757 0.66189 0.0
C410 C 0.97103 0.42649 0.66781 0.0
C411 C 0.9528 0.41999 0.65383 0.0
C412 C 0.95357 0.4256 0.63406 0.0
C413 C 0.97337 0.4366 0.62813 0.0
C414 C 0.04095 0.4425 0.63743 0.0
C415 C 0.04809 0.43072 0.62377 0.0
C416 C 0.0693 0.42031 0.6279 0.0
C417 C 0.08392 0.42148 0.64587 0.0
C418 C 0.07769 0.43389 0.65908 0.0
C419 C 0.05636 0.44425 0.65496 0.0
C420 C 0.01592 0.46799 0.63552 0.0
C421 C 0.01477 0.47617 0.6537 0.0
C422 C 0.015 0.49297 0.65402 0.0
C423 C 0.01591 0.50195 0.63617 0.0
C424 C 0.01658 0.4936 0.61805 0.0
C425 C 0.01678 0.47686 0.6178 0.0
C426 C 0.98732 0.57899 0.6389 0.0
C427 C 0.98281 0.58289 0.65891 0.0
C428 C 0.9618 0.59304 0.66394 0.0
C429 C 0.94509 0.59966 0.64908 0.0
C430 C 0.94894 0.59521 0.62918 0.0
C431 C 0.96984 0.58494 0.62419 0.0
C432 C 0.03567 0.58021 0.63738 0.0
C433 C 0.04402 0.59204 0.62384 0.0
C434 C 0.06439 0.60293 0.62896 0.0
C435 C 0.07683 0.60222 0.64783 0.0
C436 C 0.06943 0.5898 0.66104 0.0
C437 C 0.04897 0.57888 0.65587 0.0
C438 C 0.01332 0.55387 0.63492 0.0
C439 C 1.00013 0.54514 0.65003 0.0
C440 C 1.00117 0.52836 0.65058 0.0
C441 C 0.01578 0.51989 0.63629 0.0
C442 C 0.02978 0.52875 0.62171 0.0
C443 C 0.02835 0.54546 0.62098 0.0
H444 H 0.15214 0.08315 0.52832 0.0
N445 N 0.19286 0.06994 0.5094 0.0
H446 H 0.15514 0.10259 0.55545 0.0
H447 H 0.23797 0.07695 0.53113 0.0
H448 H 0.24127 0.09641 0.55807 0.0
H449 H 0.24227 0.07792 0.49532 0.0
H450 H 0.25155 0.09809 0.46952 0.0
H451 H 0.1573 0.08233 0.48403 0.0
H452 H 0.16622 0.10193 0.45758 0.0
H453 H 0.15256 0.0503 0.50013 0.0
H454 H 0.23597 0.05097 0.51787 0.0
H455 H 0.15273 0.02106 0.49958 0.0
H456 H 0.23617 0.02159 0.51859 0.0
H457 H 0.15051 0.93178 0.52371 0.0
H458 H 0.15564 0.91252 0.55105 0.0
H459 H 0.23892 0.92709 0.55803 0.0
H460 H 0.23294 0.94699 0.53137 0.0
H461 H 0.23946 0.94061 0.49753 0.0
H462 H 0.25137 0.92295 0.47035 0.0
H463 H 0.16851 0.92227 0.45031 0.0
H464 H 0.15682 0.94018 0.47755 0.0
H465 H 0.15084 0.96964 0.51893 0.0
H466 H 0.153 0.99881 0.52061 0.0
H467 H 0.23483 0.99793 0.49949 0.0
N468 N 0.18858 0.94977 0.5073 0.0
H469 H 0.23287 0.96867 0.49907 0.0
C470 C 0.19472 0.07857 0.5278 0.0
C471 C 0.17151 0.08567 0.53519 0.0
C472 C 0.17333 0.09686 0.55052 0.0
C473 C 0.19849 0.10115 0.55874 0.0
C474 C 0.22158 0.09327 0.55214 0.0
C475 C 0.21973 0.0821 0.53674 0.0
C476 C 0.19907 0.07884 0.49164 0.0
C477 C 0.22568 0.08294 0.48689 0.0
C478 C 0.23092 0.09442 0.47207 0.0
C479 C 0.20959 0.10186 0.46171 0.0
C480 C 0.18309 0.09674 0.46558 0.0
C481 C 0.17792 0.08542 0.48048 0.0
C482 C 0.19404 0.05274 0.50929 0.0
C483 C 0.17085 0.04405 0.50413 0.0
C484 C 0.17099 0.02731 0.50402 0.0
C485 C 0.19436 0.01882 0.50937 0.0
C486 C 0.21783 0.02765 0.51429 0.0
C487 C 0.21771 0.04447 0.51411 0.0
C488 C 0.19136 0.94059 0.52539 0.0
C489 C 0.16965 0.93103 0.5315 0.0
C490 C 0.17276 0.91992 0.54695 0.0
C491 C 0.19789 0.91795 0.55646 0.0
C492 C 0.21928 0.92826 0.55107 0.0
C493 C 0.21599 0.93956 0.53572 0.0
C494 C 0.19714 0.94177 0.48955 0.0
C495 C 0.22393 0.937 0.48708 0.0
C496 C 0.23069 0.92676 0.4716 0.0
C497 C 0.21084 0.92106 0.45829 0.0
C498 C 0.18433 0.92653 0.4602 0.0
C499 C 0.17759 0.93676 0.47572 0.0
C500 C 0.19141 0.96695 0.50859 0.0
C501 C 0.16928 0.97578 0.5148 0.0
C502 C 0.17052 0.99249 0.51554 0.0
C503 C 0.19394 1.00088 0.5098 0.0
C504 C 0.21648 0.99195 0.5041 0.0
C505 C 0.21531 0.97514 0.50366 0.0
H506 H 0.52961 0.75748 0.10774 0.0
N507 N 0.51436 0.78442 0.08705 0.0
H508 H 0.5671 0.75552 0.13112 0.0
H509 H 0.55421 0.80558 0.092 0.0
H510 H 0.5928 0.80349 0.11481 0.0
H511 H 0.49039 0.80621 0.10899 0.0
H512 H 0.45347 0.80196 0.13229 0.0
H513 H 0.48458 0.7568 0.09109 0.0
H514 H 0.44799 0.7523 0.11467 0.0
H515 H 0.53407 0.75665 0.07097 0.0
H516 H 0.49221 0.80038 0.05695 0.0
H517 H 0.53418 0.74968 0.03589 0.0
H518 H 0.49059 0.79303 0.02189 0.0
H519 H 0.54428 0.7314 0.92842 0.0
H520 H 0.58147 0.73381 0.90493 0.0
H521 H 0.57697 0.78543 0.90827 0.0
H522 H 0.53966 0.78293 0.93101 0.0
H523 H 0.49278 0.78317 0.92932 0.0
H524 H 0.45636 0.78601 0.90515 0.0
H525 H 0.44468 0.73458 0.90527 0.0
H526 H 0.48205 0.73184 0.92907 0.0
H527 H 0.51047 0.7347 0.97304 0.0
H528 H 0.5089 0.74105 0.00846 0.0
H529 H 0.51723 0.79147 0.99391 0.0
N530 N 0.51448 0.75486 0.94253 0.0
H531 H 0.51692 0.78506 0.95887 0.0
C532 C 0.5389 0.78182 0.09825 0.0
C533 C 0.54343 0.76752 0.10897 0.0
C534 C 0.5651 0.76637 0.1223 0.0
C535 C 0.58288 0.77943 0.12507 0.0
C536 C 0.57921 0.79333 0.11338 0.0
C537 C 0.55736 0.79451 0.10018 0.0
C538 C 0.49021 0.78189 0.09837 0.0
C539 C 0.48081 0.79451 0.10991 0.0
C540 C 0.45993 0.79201 0.12332 0.0
C541 C 0.44803 0.77674 0.12551 0.0
C542 C 0.45663 0.76422 0.11325 0.0
C543 C 0.47757 0.76676 0.09979 0.0
C544 C 0.51355 0.77928 0.06659 0.0
C545 C 0.52473 0.76474 0.06039 0.0
C546 C 0.52451 0.76066 0.04022 0.0
C547 C 0.51262 0.77084 0.02585 0.0
C548 C 0.50061 0.78507 0.03232 0.0
C549 C 0.50126 0.78925 0.0524 0.0
C550 C 0.53915 0.75689 0.93167 0.0
C551 C 0.55178 0.74321 0.9244 0.0
C552 C 0.57303 0.74463 0.911 0.0
C553 C 0.58203 0.75983 0.90458 0.0
C554 C 0.57024 0.77354 0.91267 0.0
C555 C 0.54895 0.7721 0.92597 0.0
C556 C 0.49027 0.75722 0.93096 0.0
C557 C 0.48223 0.77251 0.92445 0.0
C558 C 0.4612 0.77413 0.91062 0.0
C559 C 0.44772 0.76051 0.90309 0.0
C560 C 0.45494 0.7453 0.91047 0.0
C561 C 0.47606 0.7437 0.92421 0.0
C562 C 0.51417 0.75928 0.96321 0.0
C563 C 0.5119 0.74711 0.97759 0.0
C564 C 0.51121 0.75079 0.99785 0.0
C565 C 0.51304 0.76681 0.00422 0.0
C566 C 0.51534 0.779 0.98969 0.0
C567 C 0.5156 0.77531 0.96944 0.0
H568 H 0.79014 0.08077 0.53085 0.0
N569 N 0.83913 0.07109 0.5175 0.0
H570 H 0.78235 0.09821 0.55905 0.0
H571 H 0.87472 0.07966 0.54534 0.0
H572 H 0.86703 0.09677 0.57416 0.0
H573 H 0.87385 0.09003 0.49882 0.0
H574 H 0.86431 0.10908 0.47183 0.0
H575 H 0.79175 0.07316 0.49672 0.0
H576 H 0.78176 0.09246 0.46987 0.0
H577 H 0.79784 0.05192 0.53136 0.0
H578 H 0.87323 0.05148 0.50041 0.0
H579 H 0.79616 0.02266 0.53095 0.0
H580 H 0.87097 0.02231 0.49871 0.0
H581 H 0.78705 0.94106 0.52916 0.0
H582 H 0.77875 0.92143 0.5557 0.0
H583 H 0.86359 0.92187 0.57054 0.0
H584 H 0.87166 0.94096 0.54338 0.0
H585 H 0.87448 0.93444 0.49866 0.0
H586 H 0.86886 0.91527 0.47159 0.0
H587 H 0.78512 0.92822 0.46598 0.0
H588 H 0.7909 0.94697 0.49348 0.0
H589 H 0.79137 0.96951 0.51382 0.0
H590 H 0.79041 0.99887 0.51265 0.0
H591 H 0.87709 1.00016 0.51919 0.0
N592 N 0.83626 0.95091 0.51627 0.0
H593 H 0.87769 0.97093 0.51902 0.0
C594 C 0.83313 0.07895 0.53594 0.0
C595 C 0.80698 0.08397 0.54037 0.0
C596 C 0.80253 0.09393 0.55662 0.0
C597 C 0.82411 0.09905 0.5688 0.0
C598 C 0.85002 0.0933 0.56489 0.0
C599 C 0.85444 0.08339 0.54859 0.0
C600 C 0.83353 0.08034 0.49981 0.0
C601 C 0.85388 0.09028 0.49223 0.0
C602 C 0.84839 0.10111 0.47682 0.0
C603 C 0.82225 0.10231 0.46881 0.0
C604 C 0.80202 0.09188 0.4759 0.0
C605 C 0.80768 0.08086 0.49119 0.0
C606 C 0.83607 0.05391 0.51626 0.0
C607 C 0.81394 0.04556 0.52431 0.0
C608 C 0.81289 0.02875 0.52388 0.0
C609 C 0.83365 0.01997 0.51507 0.0
C610 C 0.85501 0.02852 0.5062 0.0
C611 C 0.85625 0.04523 0.50695 0.0
C612 C 0.83005 0.94228 0.53424 0.0
C613 C 0.80372 0.93714 0.53838 0.0
C614 C 0.79902 0.92595 0.55363 0.0
C615 C 0.82058 0.91984 0.56505 0.0
C616 C 0.84661 0.92602 0.56174 0.0
C617 C 0.85127 0.93706 0.54642 0.0
C618 C 0.83325 0.94216 0.49802 0.0
C619 C 0.85512 0.93339 0.49122 0.0
C620 C 0.85182 0.92246 0.47572 0.0
C621 C 0.82647 0.92011 0.46663 0.0
C622 C 0.80483 0.92955 0.47283 0.0
C623 C 0.80816 0.94044 0.48843 0.0
C624 C 0.83473 0.96811 0.51608 0.0
C625 C 0.81012 0.97617 0.51465 0.0
C626 C 0.80963 0.99299 0.51425 0.0
C627 C 0.83371 1.00203 0.51558 0.0
C628 C 0.85817 0.99375 0.51752 0.0
C629 C 0.85861 0.97702 0.51762 0.0
H630 H 0.52979 0.23631 0.1016 0.0
N631 N 0.51731 0.26471 0.08314 0.0
H632 H 0.56627 0.2321 0.12557 0.0
H633 H 0.55758 0.28476 0.09144 0.0
H634 H 0.59452 0.28059 0.11532 0.0
H635 H 0.49655 0.2881 0.10431 0.0
H636 H 0.45982 0.28612 0.12806 0.0
H637 H 0.48286 0.23888 0.08758 0.0
H638 H 0.44565 0.23693 0.11069 0.0
H639 H 0.5193 0.23437 0.06754 0.0
H640 H 0.51544 0.28454 0.05221 0.0
H641 H 0.51796 0.22743 0.03251 0.0
H642 H 0.51612 0.27786 0.01691 0.0
H643 H 0.54322 0.21394 0.91689 0.0
H644 H 0.58097 0.21942 0.89476 0.0
H645 H 0.58247 0.26882 0.91378 0.0
H646 H 0.54439 0.2632 0.93571 0.0
H647 H 0.4994 0.26224 0.91989 0.0
H648 H 0.46248 0.26425 0.89587 0.0
H649 H 0.4427 0.2143 0.90591 0.0
H650 H 0.48009 0.21234 0.9299 0.0
H651 H 0.54132 0.21983 0.96843 0.0
H652 H 0.54254 0.22705 1.00352 0.0
H653 H 0.49151 0.26759 0.99044 0.0
N654 N 0.51661 0.23478 0.93858 0.0
H655 H 0.492 0.26092 0.95543 0.0
C656 C 0.54101 0.26091 0.09468 0.0
C657 C 0.54418 0.24591 0.10408 0.0
C658 C 0.5651 0.24351 0.11783 0.0
C659 C 0.58316 0.25606 0.12249 0.0
C660 C 0.58071 0.27077 0.11227 0.0
C661 C 0.55982 0.27314 0.09852 0.0
C662 C 0.49253 0.26375 0.09407 0.0
C663 C 0.48508 0.27702 0.10534 0.0
C664 C 0.46403 0.27585 0.11888 0.0
C665 C 0.44983 0.26131 0.12141 0.0
C666 C 0.45643 0.24823 0.10937 0.0
C667 C 0.47764 0.24939 0.09591 0.0
C668 C 0.51694 0.26004 0.06254 0.0
C669 C 0.51812 0.24393 0.05665 0.0
C670 C 0.51778 0.23999 0.03645 0.0
C671 C 0.51691 0.25205 0.02165 0.0
C672 C 0.51617 0.26817 0.02772 0.0
C673 C 0.516 0.27206 0.04791 0.0
C674 C 0.54105 0.2381 0.9279 0.0
C675 C 0.55207 0.22586 0.91651 0.0
C676 C 0.57366 0.22903 0.90394 0.0
C677 C 0.58469 0.24458 0.90245 0.0
C678 C 0.57421 0.25676 0.91442 0.0
C679 C 0.55258 0.25355 0.92705 0.0
C680 C 0.4925 0.23707 0.92677 0.0
C681 C 0.48686 0.25178 0.91727 0.0
C682 C 0.46565 0.25294 0.90353 0.0
C683 C 0.44977 0.23941 0.89889 0.0
C684 C 0.45477 0.22489 0.90901 0.0
C685 C 0.47592 0.22377 0.92282 0.0
C686 C 0.51643 0.23962 0.95919 0.0
C687 C 0.53051 0.23031 0.97319 0.0
C688 C 0.53094 0.2344 0.99332 0.0
C689 C 0.51691 0.24786 1.00005 0.0
C690 C 0.50289 0.25727 0.98592 0.0
C691 C 0.5029 0.25332 0.96572 0.0
C692 C 0.19625 0.35428 0.35571 0.0
C693 C 0.1855 0.34384 0.34135 0.0
C694 C 0.18123 0.36719 0.36278 0.0
C695 C 0.15475 0.3696 0.35545 0.0
C696 C 0.14371 0.35898 0.34112 0.0
C697 C 0.15926 0.34628 0.33418 0.0
C698 C 0.19376 0.37834 0.37794 0.0
C699 C 0.11544 0.36102 0.33311 0.0
C700 C 0.10467 0.39362 0.38502 0.0
C701 C 0.10396 0.4081 0.37428 0.0
C702 C 0.12163 0.38113 0.37938 0.0
C703 C 0.13845 0.38322 0.36268 0.0
C704 C 0.13853 0.39803 0.35222 0.0
C705 C 0.12117 0.41026 0.35808 0.0
C706 C 0.12077 0.36548 0.39082 0.0
C707 C 0.15642 0.4008 0.33449 0.0
H708 H 0.21662 0.35252 0.36115 0.0
H709 H 0.15075 0.33812 0.32327 0.0
H710 H 0.19435 0.39076 0.3719 0.0
H711 H 0.18134 0.37851 0.39154 0.0
H712 H 0.21453 0.37479 0.38218 0.0
H713 H 0.10972 0.35159 0.32223 0.0
H714 H 0.10091 0.36064 0.34552 0.0
H715 H 0.11352 0.37291 0.32573 0.0
H716 H 0.09115 0.3918 0.3974 0.0
H717 H 0.12084 0.42149 0.34985 0.0
H718 H 0.14133 0.36205 0.39568 0.0
H719 H 0.11296 0.35581 0.38103 0.0
H720 H 0.10779 0.3661 0.40413 0.0
H721 H 0.17759 0.39802 0.33846 0.0
H722 H 0.1555 0.41334 0.32885 0.0
H723 H 0.15026 0.39262 0.32229 0.0
C724 C 0.16023 0.67241 0.70045 0.0
C725 C 0.18051 0.67902 0.6885 0.0
C726 C 0.14424 0.65952 0.6938 0.0
C727 C 0.14871 0.65301 0.67474 0.0
C728 C 0.16937 0.6595 0.66268 0.0
C729 C 0.18497 0.67247 0.66967 0.0
C730 C 0.12224 0.65305 0.70703 0.0
C731 C 0.17483 0.65284 0.64232 0.0
C732 C 0.11974 0.6114 0.66455 0.0
C733 C 0.09598 0.61507 0.65412 0.0
C734 C 0.13739 0.62361 0.67105 0.0
C735 C 0.13098 0.63986 0.66716 0.0
C736 C 0.10712 0.64361 0.65652 0.0
C737 C 0.08996 0.63119 0.65012 0.0
C738 C 0.16275 0.61914 0.68223 0.0
C739 C 0.09943 0.66078 0.65221 0.0
H740 H 0.15646 0.67755 0.71491 0.0
H741 H 0.20082 0.67742 0.66046 0.0
H742 H 0.1024 0.65461 0.69959 0.0
H743 H 0.12494 0.64001 0.70963 0.0
H744 H 0.12186 0.65915 0.72166 0.0
H745 H 0.19226 0.65883 0.63509 0.0
H746 H 0.17882 0.63979 0.64344 0.0
H747 H 0.15685 0.65433 0.63259 0.0
H748 H 0.12459 0.59896 0.66755 0.0
H749 H 0.0714 0.63414 0.64237 0.0
H750 H 0.16236 0.62419 0.69744 0.0
H751 H 0.18056 0.62437 0.67468 0.0
H752 H 0.16529 0.60594 0.68345 0.0
H753 H 0.09675 0.66728 0.66638 0.0
H754 H 0.08053 0.66166 0.64331 0.0
H755 H 0.11576 0.66701 0.64398 0.0
C756 C 0.83922 0.66284 0.33671 0.0
C757 C 0.84798 0.67847 0.34123 0.0
C758 C 0.85407 0.64942 0.34286 0.0
C759 C 0.87822 0.65165 0.35389 0.0
C760 C 0.88685 0.66735 0.35892 0.0
C761 C 0.87168 0.68056 0.35249 0.0
C762 C 0.8442 0.63287 0.33722 0.0
C763 C 0.91246 0.67022 0.3707 0.0
C764 C 0.90827 0.61678 0.38313 0.0
C765 C 0.92897 0.61193 0.37054 0.0
C766 C 0.89135 0.62955 0.37782 0.0
C767 C 0.89511 0.63762 0.35943 0.0
C768 C 0.91553 0.63256 0.34647 0.0
C769 C 0.93225 0.61984 0.3522 0.0
C770 C 0.86979 0.63461 0.39204 0.0
C771 C 0.92015 0.64082 0.3267 0.0
H772 H 0.82071 0.66109 0.32832 0.0
H773 H 0.87879 0.69258 0.35586 0.0
H774 H 0.85912 0.62708 0.32752 0.0
H775 H 0.84213 0.62524 0.35071 0.0
H776 H 0.82452 0.63314 0.32924 0.0
H777 H 0.91565 0.68309 0.37427 0.0
H778 H 0.91201 0.66324 0.38482 0.0
H779 H 0.92994 0.66601 0.36214 0.0
H780 H 0.90537 0.61063 0.39722 0.0
H781 H 0.94847 0.61642 0.34252 0.0
H782 H 0.84983 0.63432 0.3845 0.0
H783 H 0.87359 0.64715 0.3968 0.0
H784 H 0.86895 0.62681 0.40549 0.0
H785 H 0.90128 0.6408 0.31773 0.0
H786 H 0.93612 0.63499 0.31797 0.0
H787 H 0.92602 0.65352 0.32916 0.0
C788 C 0.86028 0.34468 0.68742 0.0
C789 C 0.86219 0.3329 0.6727 0.0
C790 C 0.87295 0.35972 0.68519 0.0
C791 C 0.88813 0.36302 0.66791 0.0
C792 C 0.88967 0.35133 0.65282 0.0
C793 C 0.87657 0.33648 0.65534 0.0
C794 C 0.87065 0.37193 0.70153 0.0
C795 C 0.90573 0.35435 0.63419 0.0
C796 C 0.90828 0.40545 0.6526 0.0
C797 C 0.93511 0.4062 0.65923 0.0
C798 C 0.89234 0.3917 0.65599 0.0
C799 C 0.90365 0.37832 0.66599 0.0
C800 C 0.9305 0.37919 0.67318 0.0
C801 C 0.94584 0.39313 0.66978 0.0
C802 C 0.86367 0.39131 0.64837 0.0
C803 C 0.94343 0.36513 0.68372 0.0
H804 H 0.84947 0.34201 0.70098 0.0
H805 H 0.87771 0.32762 0.64369 0.0
H806 H 0.89068 0.37403 0.70852 0.0
H807 H 0.86383 0.38357 0.69528 0.0
H808 H 0.85642 0.36801 0.71327 0.0
H809 H 0.90431 0.34419 0.62363 0.0
H810 H 0.89857 0.36536 0.62651 0.0
H811 H 0.92721 0.35636 0.63818 0.0
H812 H 0.89985 0.41558 0.64456 0.0
H813 H 0.96669 0.39352 0.67466 0.0
H814 H 0.84984 0.38764 0.66046 0.0
H815 H 0.86158 0.38229 0.6364 0.0
H816 H 0.85723 0.40313 0.64236 0.0
H817 H 0.93099 0.36118 0.69648 0.0
H818 H 0.96402 0.36803 0.68928 0.0
H819 H 0.94465 0.35486 0.67338 0.0
C820 C 0.24951 0.18511 0.41052 0.0
C821 C 0.23728 0.1874 0.39182 0.0
C822 C 0.24663 0.17055 0.42093 0.0
C823 C 0.23101 0.15798 0.4125 0.0
C824 C 0.21932 0.16003 0.39336 0.0
C825 C 0.22265 0.1747 0.38322 0.0
C826 C 0.2596 0.1688 0.44124 0.0
C827 C 0.20237 0.14697 0.38392 0.0
C828 C 0.23672 0.11619 0.43541 0.0
C829 C 0.21465 0.11583 0.44825 0.0
C830 C 0.24218 0.12975 0.42347 0.0
C831 C 0.22516 0.14323 0.4244 0.0
C832 C 0.20269 0.14285 0.43714 0.0
C833 C 0.1978 0.12922 0.44893 0.0
C834 C 0.26633 0.12973 0.41006 0.0
C835 C 0.18404 0.15697 0.4386 0.0
H836 H 0.26116 0.19481 0.4171 0.0
H837 H 0.21295 0.17644 0.36886 0.0
H838 H 0.24379 0.16762 0.4527 0.0
H839 H 0.27181 0.15775 0.44197 0.0
H840 H 0.27271 0.17922 0.44505 0.0
H841 H 0.19649 0.14994 0.36834 0.0
H842 H 0.21343 0.13548 0.38403 0.0
H843 H 0.18382 0.14505 0.39269 0.0
H844 H 0.24973 0.10587 0.43467 0.0
H845 H 0.18104 0.12923 0.45911 0.0
H846 H 0.28046 0.13951 0.4144 0.0
H847 H 0.25998 0.13208 0.39445 0.0
H848 H 0.27723 0.11817 0.41071 0.0
H849 H 0.19534 0.16759 0.44418 0.0
H850 H 0.16691 0.15454 0.44869 0.0
H851 H 0.17591 0.16014 0.42366 0.0
C852 C 0.36807 0.78063 0.80303 0.0
C853 C 0.34238 0.77357 0.80164 0.0
C854 C 0.38429 0.77848 0.82003 0.0
C855 C 0.37464 0.76902 0.83607 0.0
C856 C 0.34869 0.76193 0.83484 0.0
C857 C 0.33287 0.76429 0.81764 0.0
C858 C 0.4119 0.78619 0.82074 0.0
C859 C 0.33771 0.75177 0.85163 0.0
C860 C 0.42762 0.75134 0.87069 0.0
C861 C 0.42758 0.76211 0.88664 0.0
C862 C 0.41004 0.75323 0.85439 0.0
C863 C 0.39206 0.76627 0.85391 0.0
C864 C 0.3915 0.77702 0.8701 0.0
C865 C 0.40923 0.77479 0.88629 0.0
C866 C 0.41124 0.7415 0.83742 0.0
C867 C 0.37258 0.79106 0.87013 0.0
H868 H 0.37573 0.78761 0.79062 0.0
H869 H 0.31291 0.75897 0.81678 0.0
H870 H 0.41381 0.79401 0.83397 0.0
H871 H 0.42747 0.77681 0.82222 0.0
H872 H 0.41615 0.7935 0.80723 0.0
H873 H 0.31698 0.74731 0.84848 0.0
H874 H 0.35094 0.74132 0.85433 0.0
H875 H 0.33753 0.75882 0.86556 0.0
H876 H 0.442 0.74166 0.87063 0.0
H877 H 0.40883 0.78305 0.89864 0.0
H878 H 0.41778 0.74783 0.82369 0.0
H879 H 0.39097 0.73634 0.83436 0.0
H880 H 0.42536 0.73153 0.84054 0.0
H881 H 0.37735 0.79928 0.85756 0.0
H882 H 0.37388 0.79795 0.8842 0.0
H883 H 0.35154 0.78683 0.86794 0.0
C884 C 0.80238 0.84954 0.38629 0.0
C885 C 0.81271 0.83537 0.39467 0.0
C886 C 0.80356 0.86409 0.39671 0.0
C887 C 0.81551 0.86451 0.41592 0.0
C888 C 0.82603 0.85028 0.42443 0.0
C889 C 0.82438 0.8359 0.41376 0.0
C890 C 0.79201 0.879 0.38719 0.0
C891 C 0.83896 0.85022 0.44487 0.0
C892 C 0.84216 0.90344 0.43805 0.0
C893 C 0.8223 0.90695 0.452 0.0
C894 C 0.83981 0.88995 0.42574 0.0
C895 C 0.81696 0.87976 0.4273 0.0
C896 C 0.7963 0.88361 0.44071 0.0
C897 C 0.79926 0.8971 0.45295 0.0
C898 C 0.86228 0.88626 0.41162 0.0
C899 C 0.77153 0.87312 0.44274 0.0
H900 H 0.79362 0.84932 0.37146 0.0
H901 H 0.83198 0.82499 0.42053 0.0
H902 H 0.77616 0.88397 0.39679 0.0
H903 H 0.80793 0.88834 0.38574 0.0
H904 H 0.78318 0.87664 0.37223 0.0
H905 H 0.84658 0.8382 0.44922 0.0
H906 H 0.85599 0.85892 0.44531 0.0
H907 H 0.82421 0.85405 0.45609 0.0
H908 H 0.85982 0.91111 0.43698 0.0
H909 H 0.78396 0.89954 0.46384 0.0
H910 H 0.85417 0.88455 0.39633 0.0
H911 H 0.87203 0.87488 0.41619 0.0
H912 H 0.87786 0.8959 0.41126 0.0
H913 H 0.76219 0.87095 0.42792 0.0
H914 H 0.75629 0.8785 0.45256 0.0
H915 H 0.77726 0.86128 0.44902 0.0
C916 C 0.70342 0.26721 0.82623 0.0
C917 C 0.69679 0.26103 0.80742 0.0
C918 C 0.68635 0.26484 0.84252 0.0
C919 C 0.66205 0.25607 0.83995 0.0
C920 C 0.65533 0.2497 0.82105 0.0
C921 C 0.67277 0.25225 0.80503 0.0
C922 C 0.69426 0.27177 0.86245 0.0
C923 C 0.62956 0.24032 0.8177 0.0
C924 C 0.62685 0.23737 0.88449 0.0
C925 C 0.60588 0.24818 0.88757 0.0
C926 C 0.64563 0.23996 0.86932 0.0
C927 C 0.64342 0.2537 0.85693 0.0
C928 C 0.62275 0.26488 0.86031 0.0
C929 C 0.60424 0.26199 0.87557 0.0
C930 C 0.66747 0.2278 0.86626 0.0
C931 C 0.61971 0.27968 0.84741 0.0
H932 H 0.72212 0.27383 0.82825 0.0
H933 H 0.66733 0.24762 0.79049 0.0
H934 H 0.67873 0.2803 0.86735 0.0
H935 H 0.69536 0.26207 0.87382 0.0
H936 H 0.71398 0.27814 0.86203 0.0
H937 H 0.62749 0.23595 0.80218 0.0
H938 H 0.62877 0.22984 0.82796 0.0
H939 H 0.61203 0.24794 0.82102 0.0
H940 H 0.62844 0.22678 0.89386 0.0
H941 H 0.58789 0.27029 0.87766 0.0
H942 H 0.6875 0.23377 0.86661 0.0
H943 H 0.66498 0.22225 0.8514 0.0
H944 H 0.66718 0.21814 0.87773 0.0
H945 H 0.63883 0.28665 0.84723 0.0
H946 H 0.60341 0.28759 0.85259 0.0
H947 H 0.61515 0.27611 0.83185 0.0
C948 C 0.20225 0.84687 0.63778 0.0
C949 C 0.22241 0.83591 0.63313 0.0
C950 C 0.19885 0.86101 0.62657 0.0
C951 C 0.21618 0.86433 0.61044 0.0
C952 C 0.2372 0.85359 0.60616 0.0
C953 C 0.23997 0.83948 0.61749 0.0
C954 C 0.17604 0.87206 0.63149 0.0
C955 C 0.25628 0.85678 0.58923 0.0
C956 C 0.19013 0.88944 0.56719 0.0
C957 C 0.20208 0.90448 0.57085 0.0
C958 C 0.19425 0.87641 0.58013 0.0
C959 C 0.21106 0.87833 0.59708 0.0
C960 C 0.22322 0.89343 0.60094 0.0
C961 C 0.21852 0.90635 0.58781 0.0
C962 C 0.18084 0.86052 0.57548 0.0
C963 C 0.24137 0.8959 0.61882 0.0
H964 H 0.18848 0.84409 0.64974 0.0
H965 H 0.25581 0.83115 0.61402 0.0
H966 H 0.18361 0.88453 0.6332 0.0
H967 H 0.16115 0.8721 0.61907 0.0
H968 H 0.1656 0.86839 0.64535 0.0
H969 H 0.27278 0.84791 0.58881 0.0
H970 H 0.24509 0.85633 0.57487 0.0
H971 H 0.26524 0.86898 0.59051 0.0
H972 H 0.17792 0.88772 0.55392 0.0
H973 H 0.22766 0.91794 0.59088 0.0
H974 H 0.16863 0.85641 0.5883 0.0
H975 H 0.19634 0.8513 0.57295 0.0
H976 H 0.16757 0.86118 0.5621 0.0
H977 H 0.23036 0.89293 0.63265 0.0
H978 H 0.24911 0.90841 0.61983 0.0
H979 H 0.25874 0.88768 0.6181 0.0
C980 C 0.6612 0.77273 0.22812 0.0
C981 C 0.68864 0.77669 0.22736 0.0
C982 C 0.64522 0.77251 0.21078 0.0
C983 C 0.65691 0.7765 0.19225 0.0
C984 C 0.68471 0.78022 0.19133 0.0
C985 C 0.70028 0.78021 0.2089 0.0
C986 C 0.61571 0.76827 0.21236 0.0
C987 C 0.69784 0.78469 0.17189 0.0
C988 C 0.61765 0.76478 0.1456 0.0
C989 C 0.60373 0.77897 0.14117 0.0
C990 C 0.63546 0.76387 0.16194 0.0
C991 C 0.63966 0.7775 0.17404 0.0
C992 C 0.62641 0.792 0.16927 0.0
C993 C 0.60852 0.79252 0.153 0.0
C994 C 0.64919 0.74819 0.16658 0.0
C995 C 0.63047 0.80683 0.18174 0.0
H996 H 0.65221 0.7698 0.24233 0.0
H997 H 0.72145 0.78341 0.20828 0.0
H998 H 0.60339 0.77872 0.20778 0.0
H999 H 0.61052 0.7583 0.20213 0.0
H1000 H 0.61004 0.76467 0.22771 0.0
H1001 H 0.71992 0.78648 0.17354 0.0
H1002 H 0.69398 0.77522 0.16069 0.0
H1003 H 0.68896 0.79593 0.16596 0.0
H1004 H 0.6144 0.75431 0.13641 0.0
H1005 H 0.59757 0.80346 0.14998 0.0
H1006 H 0.64253 0.7436 0.18128 0.0
H1007 H 0.67129 0.75004 0.16755 0.0
H1008 H 0.64472 0.73891 0.15522 0.0
H1009 H 0.62267 0.80463 0.19693 0.0
H1010 H 0.62007 0.81743 0.17528 0.0
H1011 H 0.65223 0.80971 0.18325 0.0
C1012 C 0.80827 0.16041 0.65981 0.0
C1013 C 0.79427 0.17402 0.65326 0.0
C1014 C 0.8136 0.14776 0.6468 0.0
C1015 C 0.80457 0.1487 0.62677 0.0
C1016 C 0.79035 0.16239 0.62009 0.0
C1017 C 0.78544 0.1749 0.6334 0.0
C1018 C 0.82904 0.13343 0.65443 0.0
C1019 C 0.78025 0.16381 0.59889 0.0
C1020 C 0.83832 0.12384 0.58721 0.0
C1021 C 0.81985 0.11116 0.58461 0.0
C1022 C 0.83385 0.13595 0.60114 0.0
C1023 C 0.81024 0.13547 0.61271 0.0
C1024 C 0.79171 0.12259 0.61041 0.0
C1025 C 0.79676 0.11058 0.59643 0.0
C1026 C 0.85412 0.14947 0.60316 0.0
C1027 C 0.76631 0.12164 0.62248 0.0
H1028 H 0.81542 0.15974 0.67509 0.0
H1029 H 0.77432 0.18529 0.62832 0.0
H1030 H 0.81691 0.12232 0.65231 0.0
H1031 H 0.84777 0.13208 0.6458 0.0
H1032 H 0.83447 0.13448 0.67044 0.0
H1033 H 0.76935 0.17518 0.59609 0.0
H1034 H 0.79738 0.16322 0.58849 0.0
H1035 H 0.76654 0.15361 0.59539 0.0
H1036 H 0.85598 0.12458 0.57793 0.0
H1037 H 0.78255 0.10074 0.5947 0.0
H1038 H 0.86083 0.15059 0.61888 0.0
H1039 H 0.84466 0.16098 0.59879 0.0
H1040 H 0.87208 0.14769 0.59376 0.0
H1041 H 0.77134 0.12184 0.6386 0.0
H1042 H 0.75429 0.11064 0.61929 0.0
H1043 H 0.75368 0.13226 0.61925 0.0
C1044 C 0.33725 0.24887 0.20594 0.0
C1045 C 0.34858 0.25345 0.22426 0.0
C1046 C 0.35206 0.25013 0.1883 0.0
C1047 C 0.37872 0.25625 0.18901 0.0
C1048 C 0.39005 0.26118 0.20742 0.0
C1049 C 0.37488 0.25965 0.22482 0.0
C1050 C 0.33939 0.2446 0.16899 0.0
C1051 C 0.41831 0.26793 0.20877 0.0
C1052 C 0.42903 0.2455 0.1493 0.0
C1053 C 0.42974 0.25951 0.13759 0.0
C1054 C 0.41189 0.24409 0.16568 0.0
C1055 C 0.39518 0.25707 0.17064 0.0
C1056 C 0.39524 0.27109 0.15863 0.0
C1057 C 0.41244 0.27212 0.14221 0.0
C1058 C 0.41232 0.2289 0.17806 0.0
C1059 C 0.37773 0.28519 0.16346 0.0
H1060 H 0.31701 0.24393 0.20547 0.0
H1061 H 0.38358 0.26339 0.23892 0.0
H1062 H 0.34004 0.25441 0.15777 0.0
H1063 H 0.35099 0.23447 0.16297 0.0
H1064 H 0.31816 0.24065 0.17085 0.0
H1065 H 0.4238 0.27173 0.2241 0.0
H1066 H 0.43287 0.25879 0.20395 0.0
H1067 H 0.42045 0.27841 0.19862 0.0
H1068 H 0.4426 0.23578 0.1461 0.0
H1069 H 0.41254 0.2829 0.13311 0.0
H1070 H 0.39161 0.22405 0.17977 0.0
H1071 H 0.42024 0.23158 0.19318 0.0
H1072 H 0.42501 0.2195 0.17141 0.0
H1073 H 0.3564 0.28128 0.16458 0.0
H1074 H 0.37917 0.29491 0.15211 0.0
H1075 H 0.38377 0.29015 0.17813 0.0
C1076 C 0.87321 0.67508 0.69408 0.0
C1077 C 0.84666 0.67755 0.68762 0.0
C1078 C 0.88813 0.66213 0.6871 0.0
C1079 C 0.87614 0.65129 0.67344 0.0
C1080 C 0.84934 0.65372 0.66683 0.0
C1081 C 0.83495 0.66688 0.67393 0.0
C1082 C 0.91677 0.66007 0.69432 0.0
C1083 C 0.8358 0.64235 0.6524 0.0
C1084 C 0.92422 0.62648 0.6431 0.0
C1085 C 0.92534 0.61219 0.65421 0.0
C1086 C 0.90772 0.63915 0.64887 0.0
C1087 C 0.89181 0.63745 0.66611 0.0
C1088 C 0.89211 0.62283 0.67698 0.0
C1089 C 0.90897 0.6104 0.67095 0.0
C1090 C 0.90815 0.65458 0.63697 0.0
C1091 C 0.8752 0.62049 0.69531 0.0
H1092 H 0.88245 0.68341 0.70447 0.0
H1093 H 0.81434 0.66867 0.66904 0.0
H1094 H 0.91892 0.6483 0.70196 0.0
H1095 H 0.9306 0.66015 0.68148 0.0
H1096 H 0.92322 0.66966 0.70477 0.0
H1097 H 0.81486 0.64593 0.64871 0.0
H1098 H 0.84742 0.64186 0.63843 0.0
H1099 H 0.8354 0.63005 0.65882 0.0
H1100 H 0.9371 0.62802 0.6303 0.0
H1101 H 0.9096 0.59932 0.67948 0.0
H1102 H 0.91666 0.66439 0.64624 0.0
H1103 H 0.8874 0.65805 0.63266 0.0
H1104 H 0.92034 0.65364 0.62329 0.0
H1105 H 0.88216 0.62884 0.70709 0.0
H1106 H 0.87625 0.60804 0.70126 0.0
H1107 H 0.85388 0.62332 0.69191 0.0
C1108 C 0.84174 0.3494 0.3558 0.0
C1109 C 0.84654 0.34248 0.33723 0.0
C1110 C 0.85752 0.36232 0.36272 0.0
C1111 C 0.87872 0.36839 0.35084 0.0
C1112 C 0.88349 0.36155 0.33201 0.0
C1113 C 0.86732 0.34872 0.32542 0.0
C1114 C 0.85172 0.36936 0.38283 0.0
C1115 C 0.90605 0.36757 0.31898 0.0
C1116 C 0.90895 0.40974 0.36087 0.0
C1117 C 0.93222 0.40585 0.37179 0.0
C1118 C 0.89108 0.3977 0.35422 0.0
C1119 C 0.89675 0.3814 0.35845 0.0
C1120 C 0.92013 0.37743 0.36956 0.0
C1121 C 0.93753 0.38969 0.37609 0.0
C1122 C 0.86625 0.40239 0.34252 0.0
C1123 C 0.92703 0.36021 0.37426 0.0
H1124 H 0.82552 0.34476 0.36489 0.0
H1125 H 0.87135 0.3433 0.31117 0.0
H1126 H 0.86931 0.3677 0.3929 0.0
H1127 H 0.84835 0.38245 0.38138 0.0
H1128 H 0.8338 0.36373 0.38985 0.0
H1129 H 0.90653 0.36132 0.30446 0.0
H1130 H 0.90394 0.38063 0.31615 0.0
H1131 H 0.92564 0.3658 0.32671 0.0
H1132 H 0.90464 0.42221 0.35764 0.0
H1133 H 0.95572 0.38657 0.38422 0.0
H1134 H 0.84801 0.39754 0.34989 0.0
H1135 H 0.86686 0.39711 0.32744 0.0
H1136 H 0.86431 0.4156 0.34099 0.0
H1137 H 0.91027 0.35431 0.38237 0.0
H1138 H 0.94567 0.35917 0.38343 0.0
H1139 H 0.9298 0.35351 0.36025 0.0
C1140 C 0.16108 0.34073 0.67128 0.0
C1141 C 0.18692 0.34303 0.67944 0.0
C1142 C 0.14552 0.35381 0.66494 0.0
C1143 C 0.15598 0.36958 0.66684 0.0
C1144 C 0.18229 0.37197 0.6746 0.0
C1145 C 0.19744 0.35867 0.68079 0.0
C1146 C 0.11756 0.35075 0.65671 0.0
C1147 C 0.19418 0.3886 0.67681 0.0
C1148 C 0.12126 0.40268 0.63724 0.0
C1149 C 0.10397 0.40904 0.65147 0.0
C1150 C 0.13867 0.39002 0.64208 0.0
C1151 C 0.13884 0.38359 0.66164 0.0
C1152 C 0.12193 0.3902 0.67619 0.0
C1153 C 0.10468 0.40279 0.67092 0.0
C1154 C 0.15643 0.3833 0.62617 0.0
C1155 C 0.12153 0.3837 0.69722 0.0
H1156 H 0.15265 0.32872 0.67039 0.0
H1157 H 0.21755 0.36054 0.68677 0.0
H1158 H 0.10248 0.35609 0.66668 0.0
H1159 H 0.11522 0.3566 0.64192 0.0
H1160 H 0.11295 0.33775 0.65519 0.0
H1161 H 0.21538 0.38838 0.6822 0.0
H1162 H 0.19341 0.3951 0.66236 0.0
H1163 H 0.18214 0.39554 0.68748 0.0
H1164 H 0.12107 0.40754 0.62224 0.0
H1165 H 0.09108 0.4074 0.68195 0.0
H1166 H 0.15092 0.37057 0.62344 0.0
H1167 H 0.17776 0.38356 0.6312 0.0
H1168 H 0.15471 0.39005 0.61191 0.0
H1169 H 0.11457 0.37102 0.69716 0.0
H1170 H 0.1081 0.39064 0.70698 0.0
H1171 H 0.14212 0.38392 0.70374 0.0
C1172 C 0.18406 0.67493 0.37114 0.0
C1173 C 0.17374 0.68592 0.35719 0.0
C1174 C 0.17078 0.66029 0.37494 0.0
C1175 C 0.14643 0.65666 0.36473 0.0
C1176 C 0.1362 0.66759 0.35037 0.0
C1177 C 0.15004 0.68205 0.34672 0.0
C1178 C 0.1825 0.64886 0.39017 0.0
C1179 C 0.11014 0.66426 0.33934 0.0
C1180 C 0.1179 0.61412 0.36338 0.0
C1181 C 0.09844 0.61467 0.3783 0.0
C1182 C 0.13422 0.62756 0.35912 0.0
C1183 C 0.13074 0.64192 0.36988 0.0
C1184 C 0.11139 0.64245 0.38514 0.0
C1185 C 0.09556 0.62882 0.38919 0.0
C1186 C 0.15486 0.62649 0.3429 0.0
C1187 C 0.10682 0.65756 0.39682 0.0
H1188 H 0.20254 0.67781 0.3791 0.0
H1189 H 0.14183 0.69058 0.33608 0.0
H1190 H 0.1687 0.64767 0.40297 0.0
H1191 H 0.18458 0.63676 0.38366 0.0
H1192 H 0.2025 0.65295 0.39579 0.0
H1193 H 0.10552 0.67366 0.32804 0.0
H1194 H 0.11102 0.6525 0.33179 0.0
H1195 H 0.09332 0.66359 0.35004 0.0
H1196 H 0.12029 0.60319 0.355 0.0
H1197 H 0.08024 0.62942 0.40051 0.0
H1198 H 0.17498 0.63008 0.34873 0.0
H1199 H 0.1497 0.63494 0.33064 0.0
H1200 H 0.15612 0.61422 0.33671 0.0
H1201 H 0.12592 0.66167 0.40389 0.0
H1202 H 0.09155 0.65584 0.40861 0.0
H1203 H 0.10001 0.66728 0.38664 0.0
C1204 C 0.78646 0.83634 0.61725 0.0
C1205 C 0.79744 0.83468 0.63646 0.0
C1206 C 0.78869 0.85086 0.60667 0.0
C1207 C 0.80232 0.86405 0.61547 0.0
C1208 C 0.81269 0.86262 0.6351 0.0
C1209 C 0.81008 0.84796 0.64538 0.0
C1210 C 0.7772 0.85191 0.58582 0.0
C1211 C 0.82746 0.87638 0.64496 0.0
C1212 C 0.83493 0.89349 0.57956 0.0
C1213 C 0.81643 0.9061 0.57903 0.0
C1214 C 0.83082 0.87995 0.59168 0.0
C1215 C 0.80751 0.87886 0.60352 0.0
C1216 C 0.7889 0.89161 0.60332 0.0
C1217 C 0.79358 0.90509 0.59107 0.0
C1218 C 0.85116 0.86661 0.59143 0.0
C1219 C 0.76384 0.89088 0.61577 0.0
H1220 H 0.7763 0.82619 0.6104 0.0
H1221 H 0.81881 0.84672 0.66016 0.0
H1222 H 0.76383 0.86243 0.58436 0.0
H1223 H 0.79375 0.85363 0.57504 0.0
H1224 H 0.7656 0.84096 0.58164 0.0
H1225 H 0.83236 0.87379 0.66082 0.0
H1226 H 0.84649 0.87889 0.63699 0.0
H1227 H 0.81524 0.88743 0.64411 0.0
H1228 H 0.85235 0.89396 0.57002 0.0
H1229 H 0.7793 0.91482 0.59089 0.0
H1230 H 0.84158 0.85551 0.58559 0.0
H1231 H 0.85835 0.86395 0.60677 0.0
H1232 H 0.86882 0.86963 0.58208 0.0
H1233 H 0.75099 0.88061 0.61102 0.0
H1234 H 0.75188 0.90203 0.61452 0.0
H1235 H 0.76926 0.88884 0.63163 0.0
C1236 C 0.69777 0.25091 0.20786 0.0
C1237 C 0.68656 0.24428 0.22518 0.0
C1238 C 0.68233 0.25265 0.19037 0.0
C1239 C 0.65499 0.24772 0.19021 0.0
C1240 C 0.64363 0.2409 0.20759 0.0
C1241 C 0.65955 0.23925 0.22484 0.0
C1242 C 0.69518 0.25991 0.1721 0.0
C1243 C 0.61451 0.23559 0.20807 0.0
C1244 C 0.60629 0.26647 0.1531 0.0
C1245 C 0.60303 0.25424 0.13903 0.0
C1246 C 0.62352 0.26461 0.1696 0.0
C1247 C 0.63793 0.25017 0.17212 0.0
C1248 C 0.6352 0.2379 0.15776 0.0
C1249 C 0.61772 0.24006 0.14141 0.0
C1250 C 0.62574 0.27794 0.18463 0.0
C1251 C 0.65037 0.22238 0.15988 0.0
H1252 H 0.71872 0.25464 0.20796 0.0
H1253 H 0.65066 0.23431 0.23823 0.0
H1254 H 0.69306 0.25156 0.15939 0.0
H1255 H 0.68474 0.27114 0.16784 0.0
H1256 H 0.71687 0.26268 0.17448 0.0
H1257 H 0.60895 0.23013 0.2226 0.0
H1258 H 0.6013 0.24601 0.20514 0.0
H1259 H 0.61041 0.22671 0.19618 0.0
H1260 H 0.59467 0.27734 0.15155 0.0
H1261 H 0.61546 0.23062 0.1305 0.0
H1262 H 0.64709 0.28158 0.18675 0.0
H1263 H 0.61831 0.27362 0.19925 0.0
H1264 H 0.61401 0.28866 0.18009 0.0
H1265 H 0.67225 0.22487 0.16144 0.0
H1266 H 0.647 0.21434 0.14697 0.0
H1267 H 0.64396 0.21596 0.17358 0.0
C1268 C 0.23578 0.1814 0.61659 0.0
C1269 C 0.21786 0.18495 0.63186 0.0
C1270 C 0.23307 0.1672 0.60564 0.0
C1271 C 0.21209 0.1562 0.6102 0.0
C1272 C 0.19441 0.15951 0.62598 0.0
C1273 C 0.19741 0.1739 0.63655 0.0
C1274 C 0.25215 0.16421 0.58877 0.0
C1275 C 0.172 0.148 0.63145 0.0
C1276 C 0.18736 0.12915 0.56853 0.0
C1277 C 0.20091 0.11483 0.57273 0.0
C1278 C 0.19061 0.14261 0.58073 0.0
C1279 C 0.20771 0.14173 0.59767 0.0
C1280 C 0.22108 0.12722 0.60223 0.0
C1281 C 0.21765 0.11395 0.58963 0.0
C1282 C 0.17621 0.15791 0.57521 0.0
C1283 C 0.23925 0.12577 0.62028 0.0
H1284 H 0.25145 0.18999 0.61279 0.0
H1285 H 0.18372 0.17652 0.64851 0.0
H1286 H 0.26187 0.15238 0.59073 0.0
H1287 H 0.24079 0.16389 0.57448 0.0
H1288 H 0.2681 0.17359 0.58769 0.0
H1289 H 0.16111 0.15183 0.64492 0.0
H1290 H 0.15737 0.14708 0.61891 0.0
H1291 H 0.18016 0.13584 0.63415 0.0
H1292 H 0.17478 0.13 0.55529 0.0
H1293 H 0.22804 0.10288 0.593 0.0
H1294 H 0.19113 0.16762 0.57234 0.0
H1295 H 0.16355 0.16181 0.58772 0.0
H1296 H 0.16322 0.15651 0.56177 0.0
H1297 H 0.25645 0.13428 0.61893 0.0
H1298 H 0.24726 0.11346 0.62223 0.0
H1299 H 0.22816 0.12903 0.63387 0.0
C1300 C 0.35774 0.74767 0.21671 0.0
C1301 C 0.33655 0.75815 0.22055 0.0
C1302 C 0.37523 0.75044 0.20078 0.0
C1303 C 0.37146 0.76403 0.18834 0.0
C1304 C 0.34994 0.77457 0.19198 0.0
C1305 C 0.33277 0.77152 0.20806 0.0
C1306 C 0.39805 0.73899 0.19748 0.0
C1307 C 0.34522 0.78916 0.17901 0.0
C1308 C 0.43217 0.78002 0.16044 0.0
C1309 C 0.42791 0.77372 0.14135 0.0
C1310 C 0.41386 0.77706 0.17578 0.0
C1311 C 0.39067 0.76754 0.172 0.0
C1312 C 0.38613 0.76119 0.15275 0.0
C1313 C 0.40485 0.76433 0.13766 0.0
C1314 C 0.41952 0.78396 0.19613 0.0
C1315 C 0.36158 0.75103 0.14815 0.0
H1316 H 0.36099 0.73743 0.22645 0.0
H1317 H 0.31624 0.77955 0.21078 0.0
H1318 H 0.39706 0.73426 0.1821 0.0
H1319 H 0.41758 0.74542 0.19915 0.0
H1320 H 0.39771 0.72871 0.20809 0.0
H1321 H 0.3271 0.79588 0.18345 0.0
H1322 H 0.36293 0.79734 0.17988 0.0
H1323 H 0.34281 0.78554 0.16324 0.0
H1324 H 0.45018 0.78705 0.16351 0.0
H1325 H 0.40135 0.75953 0.12291 0.0
H1326 H 0.42144 0.77412 0.20725 0.0
H1327 H 0.4025 0.79153 0.20076 0.0
H1328 H 0.43825 0.79134 0.19653 0.0
H1329 H 0.36147 0.74017 0.15779 0.0
H1330 H 0.36077 0.74721 0.13236 0.0
H1331 H 0.34308 0.75781 0.15142 0.0
C1332 C 0.81773 0.18608 0.41437 0.0
C1333 C 0.80194 0.18711 0.39698 0.0
C1334 C 0.81963 0.17168 0.42521 0.0
C1335 C 0.80566 0.15786 0.41841 0.0
C1336 C 0.78978 0.15875 0.40084 0.0
C1337 C 0.78801 0.17337 0.39038 0.0
C1338 C 0.83672 0.17125 0.44393 0.0
C1339 C 0.77471 0.14425 0.39307 0.0
C1340 C 0.83322 0.11851 0.43835 0.0
C1341 C 0.81596 0.11528 0.45428 0.0
C1342 C 0.82937 0.13195 0.42597 0.0
C1343 C 0.80792 0.14251 0.42976 0.0
C1344 C 0.78981 0.13895 0.44534 0.0
C1345 C 0.79399 0.12533 0.45736 0.0
C1346 C 0.84888 0.13519 0.40933 0.0
C1347 C 0.76683 0.14997 0.44996 0.0
H1348 H 0.82898 0.1965 0.41941 0.0
H1349 H 0.77547 0.17408 0.37712 0.0
H1350 H 0.82438 0.16725 0.45672 0.0
H1351 H 0.85314 0.16247 0.44229 0.0
H1352 H 0.8458 0.18314 0.44745 0.0
H1353 H 0.7635 0.14687 0.37906 0.0
H1354 H 0.78897 0.13438 0.39032 0.0
H1355 H 0.76025 0.13985 0.40437 0.0
H1356 H 0.85008 0.11067 0.43582 0.0
H1357 H 0.78078 0.12298 0.46979 0.0
H1358 H 0.8608 0.14619 0.41261 0.0
H1359 H 0.83782 0.13733 0.39515 0.0
H1360 H 0.86299 0.12511 0.40724 0.0
H1361 H 0.77494 0.16163 0.45532 0.0
H1362 H 0.75335 0.14487 0.46152 0.0
H1363 H 0.75475 0.15244 0.43634 0.0
C1364 C 0.33234 0.2367 0.81589 0.0
C1365 C 0.34132 0.24384 0.79817 0.0
C1366 C 0.34866 0.23654 0.83307 0.0
C1367 C 0.37466 0.24359 0.83247 0.0
C1368 C 0.38359 0.25116 0.81477 0.0
C1369 C 0.36678 0.25123 0.79784 0.0
C1370 C 0.33832 0.22849 0.85171 0.0
C1371 C 0.41124 0.25873 0.8135 0.0
C1372 C 0.41218 0.25332 0.88062 0.0
C1373 C 0.42941 0.24017 0.88255 0.0
C1374 C 0.39395 0.25451 0.86455 0.0
C1375 C 0.39309 0.24231 0.85002 0.0
C1376 C 0.41024 0.22893 0.85202 0.0
C1377 C 0.42813 0.22801 0.86826 0.0
C1378 C 0.37583 0.26889 0.86301 0.0
C1379 C 0.41007 0.21572 0.83677 0.0
H1380 H 0.31253 0.23116 0.81629 0.0
H1381 H 0.37392 0.25663 0.78414 0.0
H1382 H 0.35088 0.21794 0.85544 0.0
H1383 H 0.33986 0.23685 0.86445 0.0
H1384 H 0.31707 0.22443 0.85009 0.0
H1385 H 0.41464 0.26481 0.79896 0.0
H1386 H 0.41415 0.26763 0.82553 0.0
H1387 H 0.42678 0.2494 0.81564 0.0
H1388 H 0.41296 0.26269 0.8917 0.0
H1389 H 0.44169 0.21794 0.86947 0.0
H1390 H 0.35449 0.26493 0.86214 0.0
H1391 H 0.38017 0.27571 0.84916 0.0
H1392 H 0.37838 0.27708 0.87587 0.0
H1393 H 0.38958 0.21044 0.8353 0.0
H1394 H 0.42432 0.20599 0.84068 0.0
H1395 H 0.41555 0.22071 0.822 0.0
C1396 C 0.21987 0.84489 0.38753 0.0
C1397 C 0.2427 0.84521 0.37542 0.0
C1398 C 0.21466 0.85745 0.4007 0.0
C1399 C 0.23263 0.87071 0.40176 0.0
C1400 C 0.2556 0.87117 0.38951 0.0
C1401 C 0.26039 0.85841 0.37655 0.0
C1402 C 0.18997 0.85649 0.41355 0.0
C1403 C 0.27525 0.88508 0.39022 0.0
C1404 C 0.20688 0.90941 0.42398 0.0
C1405 C 0.21733 0.90859 0.44342 0.0
C1406 C 0.21194 0.89726 0.41018 0.0
C1407 C 0.22768 0.88393 0.416 0.0
C1408 C 0.23845 0.8831 0.43556 0.0
C1409 C 0.23318 0.89544 0.449 0.0
C1410 C 0.20027 0.89863 0.38941 0.0
C1411 C 0.25518 0.86904 0.4424 0.0
H1412 H 0.20588 0.83487 0.38656 0.0
H1413 H 0.27828 0.85867 0.36748 0.0
H1414 H 0.19595 0.85684 0.42949 0.0
H1415 H 0.177 0.86701 0.41061 0.0
H1416 H 0.17795 0.8454 0.41089 0.0
H1417 H 0.29173 0.88385 0.37933 0.0
H1418 H 0.26462 0.89648 0.38711 0.0
H1419 H 0.28426 0.88602 0.40535 0.0
H1420 H 0.1948 0.9196 0.41953 0.0
H1421 H 0.24093 0.89457 0.4641 0.0
H1422 H 0.18656 0.88832 0.38644 0.0
H1423 H 0.2166 0.89819 0.37832 0.0
H1424 H 0.18891 0.90991 0.38711 0.0
H1425 H 0.2431 0.85781 0.44135 0.0
H1426 H 0.26253 0.87037 0.45797 0.0
H1427 H 0.27278 0.86769 0.43258 0.0
C1428 C 0.66822 0.75702 0.80546 0.0
C1429 C 0.6897 0.76805 0.80535 0.0
C1430 C 0.65188 0.75516 0.82223 0.0
C1431 C 0.6572 0.76451 0.83935 0.0
C1432 C 0.67931 0.77535 0.83953 0.0
C1433 C 0.69524 0.77702 0.82251 0.0
C1434 C 0.6284 0.74354 0.8214 0.0
C1435 C 0.68573 0.78545 0.85754 0.0
C1436 C 0.5982 0.77262 0.87303 0.0
C1437 C 0.60216 0.76141 0.88844 0.0
C1438 C 0.61616 0.77387 0.85715 0.0
C1439 C 0.63866 0.76364 0.85657 0.0
C1440 C 0.64299 0.7524 0.87216 0.0
C1441 C 0.62466 0.7514 0.88791 0.0
C1442 C 0.61076 0.78597 0.84078 0.0
C1443 C 0.66682 0.74133 0.87208 0.0
H1444 H 0.66366 0.75017 0.79218 0.0
H1445 H 0.71204 0.78541 0.82259 0.0
H1446 H 0.62936 0.73505 0.83417 0.0
H1447 H 0.60928 0.7502 0.82258 0.0
H1448 H 0.62785 0.73655 0.8074 0.0
H1449 H 0.70455 0.79259 0.85573 0.0
H1450 H 0.66897 0.79381 0.86025 0.0
H1451 H 0.68781 0.77772 0.87095 0.0
H1452 H 0.58061 0.78019 0.87311 0.0
H1453 H 0.62796 0.7428 0.89983 0.0
H1454 H 0.60769 0.7797 0.82642 0.0
H1455 H 0.62836 0.79412 0.83904 0.0
H1456 H 0.59273 0.79332 0.84371 0.0
H1457 H 0.66576 0.73354 0.85879 0.0
H1458 H 0.66775 0.73358 0.88559 0.0
H1459 H 0.68577 0.74842 0.87113 0.0
loop_
_geom_bond_atom_site_label_1
_geom_bond_atom_site_label_2
_geom_bond_distance
_geom_bond_site_symmetry_2
_ccdc_geom_bond_type
C0 C1 1.264 . S
C0 C5 1.479 . S
C0 C10 1.465 . S
C1 C0 1.264 . S
C1 C3 1.339 . S
C1 H28 0.931 . S
C2 C3 1.395 . S
C2 C4 1.320 . S
C3 C1 1.339 . S
C3 C2 1.395 . S
C3 H29 0.929 . S
C4 C2 1.320 . S
C4 C5 1.405 . S
C4 H30 0.930 . S
C5 C0 1.479 . S
C5 C4 1.405 . S
C5 H31 0.931 . S
U6 O7 2.454 . S
U6 O8 2.458 . S
U6 C9 2.984 . S
U6 C10 2.847 . S
U6 C23 2.882 . S
U6 O24 2.441 . S
U6 O25 2.420 . S
U6 O26 2.455 . S
U6 O27 2.449 . S
O7 U6 2.454 . S
O7 C9 1.353 . S
O8 U6 2.458 . S
O8 C9 1.286 . S
C9 U6 2.984 . S
C9 O7 1.353 . S
C9 O8 1.286 . S
C9 C11 1.363 . S
C10 C0 1.465 . S
C10 U6 2.847 . S
C10 O24 1.249 . S
C10 O25 1.202 . S
C11 C9 1.363 . S
C11 C13 1.408 . S
C11 C16 1.342 . S
C12 C13 1.310 . S
C12 C15 1.461 . S
C12 H32 0.932 . S
C13 C11 1.408 . S
C13 C12 1.310 . S
C13 H33 0.930 . S
C14 C15 1.474 . S
C14 C16 1.285 . S
C14 H34 0.929 . S
C15 C12 1.461 . S
C15 C14 1.474 . S
C16 C11 1.342 . S
C16 C14 1.285 . S
C16 H35 0.930 . S
C17 C20 1.424 . S
C17 C22 1.245 . S
C17 C23 1.428 . S
C18 C21 1.260 . S
C18 C22 1.477 . S
C18 H36 0.932 . S
C19 C20 1.384 . S
C19 C21 1.479 . S
C19 H37 0.929 . S
C20 C17 1.424 . S
C20 C19 1.384 . S
C20 H38 0.928 . S
C21 C18 1.260 . S
C21 C19 1.479 . S
C22 C17 1.245 . S
C22 C18 1.477 . S
C22 H39 0.932 . S
C23 U6 2.882 . S
C23 C17 1.428 . S
C23 O26 1.301 . S
C23 O27 1.282 . S
O24 U6 2.441 . S
O24 C10 1.249 . S
O25 U6 2.420 . S
O25 C10 1.202 . S
O26 U6 2.455 . S
O26 C23 1.301 . S
O27 U6 2.449 . S
O27 C23 1.282 . S
H28 C1 0.931 . S
H29 C3 0.929 . S
H30 C4 0.930 . S
H31 C5 0.931 . S
H32 C12 0.932 . S
H33 C13 0.930 . S
H34 C14 0.929 . S
H35 C16 0.930 . S
H36 C18 0.932 . S
H37 C19 0.929 . S
H38 C20 0.928 . S
H39 C22 0.932 . S
C40 C41 1.264 . S
C40 C45 1.479 . S
C40 C50 1.465 . S
C41 C40 1.264 . S
C41 C43 1.339 . S
C41 H68 0.931 . S
C42 C43 1.395 . S
C42 C44 1.320 . S
C43 C41 1.339 . S
C43 C42 1.395 . S
C43 H69 0.929 . S
C44 C42 1.320 . S
C44 C45 1.405 . S
C44 H70 0.930 . S
C45 C40 1.479 . S
C45 C44 1.405 . S
C45 H71 0.931 . S
U46 O47 2.454 . S
U46 O48 2.458 . S
U46 C49 2.984 . S
U46 C50 2.847 . S
U46 C63 2.882 . S
U46 O64 2.441 . S
U46 O65 2.420 . S
U46 O66 2.455 . S
U46 O67 2.449 . S
O47 U46 2.454 . S
O47 C49 1.353 . S
O48 U46 2.458 . S
O48 C49 1.286 . S
C49 U46 2.984 . S
C49 O47 1.353 . S
C49 O48 1.286 . S
C49 C51 1.363 . S
C50 C40 1.465 . S
C50 U46 2.847 . S
C50 O64 1.249 . S
C50 O65 1.202 . S
C51 C49 1.363 . S
C51 C53 1.408 . S
C51 C56 1.342 . S
C52 C53 1.310 . S
C52 C55 1.461 . S
C52 H72 0.932 . S
C53 C51 1.408 . S
C53 C52 1.310 . S
C53 H73 0.930 . S
C54 C55 1.474 . S
C54 C56 1.285 . S
C54 H74 0.929 . S
C55 C52 1.461 . S
C55 C54 1.474 . S
C56 C51 1.342 . S
C56 C54 1.285 . S
C56 H75 0.930 . S
C57 C60 1.424 . S
C57 C62 1.245 . S
C57 C63 1.428 . S
C58 C61 1.260 . S
C58 C62 1.477 . S
C58 H76 0.932 . S
C59 C60 1.384 . S
C59 C61 1.479 . S
C59 H77 0.929 . S
C60 C57 1.424 . S
C60 C59 1.384 . S
C60 H78 0.928 . S
C61 C58 1.260 . S
C61 C59 1.479 . S
C62 C57 1.245 . S
C62 C58 1.477 . S
C62 H79 0.932 . S
C63 U46 2.882 . S
C63 C57 1.428 . S
C63 O66 1.301 . S
C63 O67 1.282 . S
O64 U46 2.441 . S
O64 C50 1.249 . S
O65 U46 2.420 . S
O65 C50 1.202 . S
O66 U46 2.455 . S
O66 C63 1.301 . S
O67 U46 2.449 . S
O67 C63 1.282 . S
H68 C41 0.931 . S
H69 C43 0.929 . S
H70 C44 0.930 . S
H71 C45 0.931 . S
H72 C52 0.932 . S
H73 C53 0.930 . S
H74 C54 0.929 . S
H75 C56 0.930 . S
H76 C58 0.932 . S
H77 C59 0.929 . S
H78 C60 0.928 . S
H79 C62 0.932 . S
C80 C81 1.264 . S
C80 C85 1.479 . S
C80 C90 1.465 . S
C81 C80 1.264 . S
C81 C83 1.339 . S
C81 H108 0.931 . S
C82 C83 1.395 . S
C82 C84 1.320 . S
C83 C81 1.339 . S
C83 C82 1.395 . S
C83 H109 0.929 . S
C84 C82 1.320 . S
C84 C85 1.405 . S
C84 H110 0.930 . S
C85 C80 1.479 . S
C85 C84 1.405 . S
C85 H111 0.931 . S
U86 O87 2.454 . S
U86 O88 2.458 . S
U86 C89 2.984 . S
U86 C90 2.847 . S
U86 C103 2.882 . S
U86 O104 2.441 . S
U86 O105 2.420 . S
U86 O106 2.455 . S
U86 O107 2.449 . S
O87 U86 2.454 . S
O87 C89 1.353 . S
O88 U86 2.458 . S
O88 C89 1.286 . S
C89 U86 2.984 . S
C89 O87 1.353 . S
C89 O88 1.286 . S
C89 C91 1.363 . S
C90 C80 1.465 . S
C90 U86 2.847 . S
C90 O104 1.249 . S
C90 O105 1.202 . S
C91 C89 1.363 . S
C91 C93 1.408 . S
C91 C96 1.342 . S
C92 C93 1.310 . S
C92 C95 1.461 . S
C92 H112 0.932 . S
C93 C91 1.408 . S
C93 C92 1.310 . S
C93 H113 0.930 . S
C94 C95 1.474 . S
C94 C96 1.285 . S
C94 H114 0.929 . S
C95 C92 1.461 . S
C95 C94 1.474 . S
C96 C91 1.342 . S
C96 C94 1.285 . S
C96 H115 0.930 . S
C97 C100 1.424 . S
C97 C102 1.245 . S
C97 C103 1.428 . S
C98 C101 1.260 . S
C98 C102 1.477 . S
C98 H116 0.932 . S
C99 C100 1.384 . S
C99 C101 1.479 . S
C99 H117 0.929 . S
C100 C97 1.424 . S
C100 C99 1.384 . S
C100 H118 0.928 . S
C101 C98 1.260 . S
C101 C99 1.479 . S
C102 C97 1.245 . S
C102 C98 1.477 . S
C102 H119 0.932 . S
C103 U86 2.882 . S
C103 C97 1.428 . S
C103 O106 1.301 . S
C103 O107 1.282 . S
O104 U86 2.441 . S
O104 C90 1.249 . S
O105 U86 2.420 . S
O105 C90 1.202 . S
O106 U86 2.455 . S
O106 C103 1.301 . S
O107 U86 2.449 . S
O107 C103 1.282 . S
H108 C81 0.931 . S
H109 C83 0.929 . S
H110 C84 0.930 . S
H111 C85 0.931 . S
H112 C92 0.932 . S
H113 C93 0.930 . S
H114 C94 0.929 . S
H115 C96 0.930 . S
H116 C98 0.932 . S
H117 C99 0.929 . S
H118 C100 0.928 . S
H119 C102 0.932 . S
C120 C121 1.264 . S
C120 C125 1.479 . S
C120 C130 1.465 . S
C121 C120 1.264 . S
C121 C123 1.339 . S
C121 H148 0.931 . S
C122 C123 1.395 . S
C122 C124 1.320 . S
C123 C121 1.339 . S
C123 C122 1.395 . S
C123 H149 0.929 . S
C124 C122 1.320 . S
C124 C125 1.405 . S
C124 H150 0.930 . S
C125 C120 1.479 . S
C125 C124 1.405 . S
C125 H151 0.931 . S
U126 O127 2.454 . S
U126 O128 2.458 . S
U126 C129 2.984 . S
U126 C130 2.847 . S
U126 C143 2.882 . S
U126 O144 2.441 . S
U126 O145 2.420 . S
U126 O146 2.455 . S
U126 O147 2.449 . S
O127 U126 2.454 . S
O127 C129 1.353 . S
O128 U126 2.458 . S
O128 C129 1.286 . S
C129 U126 2.984 . S
C129 O127 1.353 . S
C129 O128 1.286 . S
C129 C131 1.363 . S
C130 C120 1.465 . S
C130 U126 2.847 . S
C130 O144 1.249 . S
C130 O145 1.202 . S
C131 C129 1.363 . S
C131 C133 1.408 . S
C131 C136 1.342 . S
C132 C133 1.310 . S
C132 C135 1.461 . S
C132 H152 0.932 . S
C133 C131 1.408 . S
C133 C132 1.310 . S
C133 H153 0.930 . S
C134 C135 1.474 . S
C134 C136 1.285 . S
C134 H154 0.929 . S
C135 C132 1.461 . S
C135 C134 1.474 . S
C136 C131 1.342 . S
C136 C134 1.285 . S
C136 H155 0.930 . S
C137 C140 1.424 . S
C137 C142 1.245 . S
C137 C143 1.428 . S
C138 C141 1.260 . S
C138 C142 1.477 . S
C138 H156 0.932 . S
C139 C140 1.384 . S
C139 C141 1.479 . S
C139 H157 0.929 . S
C140 C137 1.424 . S
C140 C139 1.384 . S
C140 H158 0.928 . S
C141 C138 1.260 . S
C141 C139 1.479 . S
C142 C137 1.245 . S
C142 C138 1.477 . S
C142 H159 0.932 . S
C143 U126 2.882 . S
C143 C137 1.428 . S
C143 O146 1.301 . S
C143 O147 1.282 . S
O144 U126 2.441 . S
O144 C130 1.249 . S
O145 U126 2.420 . S
O145 C130 1.202 . S
O146 U126 2.455 . S
O146 C143 1.301 . S
O147 U126 2.449 . S
O147 C143 1.282 . S
H148 C121 0.931 . S
H149 C123 0.929 . S
H150 C124 0.930 . S
H151 C125 0.931 . S
H152 C132 0.932 . S
H153 C133 0.930 . S
H154 C134 0.929 . S
H155 C136 0.930 . S
H156 C138 0.932 . S
H157 C139 0.929 . S
H158 C140 0.928 . S
H159 C142 0.932 . S
C160 C161 1.264 . S
C160 C165 1.479 . S
C160 C170 1.465 . S
C161 C160 1.264 . S
C161 C163 1.339 . S
C161 H188 0.931 . S
C162 C163 1.395 . S
C162 C164 1.320 . S
C163 C161 1.339 . S
C163 C162 1.395 . S
C163 H189 0.929 . S
C164 C162 1.320 . S
C164 C165 1.405 . S
C164 H190 0.930 . S
C165 C160 1.479 . S
C165 C164 1.405 . S
C165 H191 0.931 . S
U166 O167 2.454 . S
U166 O168 2.458 . S
U166 C169 2.984 . S
U166 C170 2.847 . S
U166 C183 2.882 . S
U166 O184 2.441 . S
U166 O185 2.420 . S
U166 O186 2.455 . S
U166 O187 2.449 . S
O167 U166 2.454 . S
O167 C169 1.353 . S
O168 U166 2.458 . S
O168 C169 1.286 . S
C169 U166 2.984 . S
C169 O167 1.353 . S
C169 O168 1.286 . S
C169 C171 1.363 . S
C170 C160 1.465 . S
C170 U166 2.847 . S
C170 O184 1.249 . S
C170 O185 1.202 . S
C171 C169 1.363 . S
C171 C173 1.408 . S
C171 C176 1.342 . S
C172 C173 1.310 . S
C172 C175 1.461 . S
C172 H192 0.932 . S
C173 C171 1.408 . S
C173 C172 1.310 . S
C173 H193 0.930 . S
C174 C175 1.474 . S
C174 C176 1.285 . S
C174 H194 0.929 . S
C175 C172 1.461 . S
C175 C174 1.474 . S
C176 C171 1.342 . S
C176 C174 1.285 . S
C176 H195 0.930 . S
C177 C180 1.424 . S
C177 C182 1.245 . S
C177 C183 1.428 . S
C178 C181 1.260 . S
C178 C182 1.477 . S
C178 H196 0.932 . S
C179 C180 1.384 . S
C179 C181 1.479 . S
C179 H197 0.929 . S
C180 C177 1.424 . S
C180 C179 1.384 . S
C180 H198 0.928 . S
C181 C178 1.260 . S
C181 C179 1.479 . S
C182 C177 1.245 . S
C182 C178 1.477 . S
C182 H199 0.932 . S
C183 U166 2.882 . S
C183 C177 1.428 . S
C183 O186 1.301 . S
C183 O187 1.282 . S
O184 U166 2.441 . S
O184 C170 1.249 . S
O185 U166 2.420 . S
O185 C170 1.202 . S
O186 U166 2.455 . S
O186 C183 1.301 . S
O187 U166 2.449 . S
O187 C183 1.282 . S
H188 C161 0.931 . S
H189 C163 0.929 . S
H190 C164 0.930 . S
H191 C165 0.931 . S
H192 C172 0.932 . S
H193 C173 0.930 . S
H194 C174 0.929 . S
H195 C176 0.930 . S
H196 C178 0.932 . S
H197 C179 0.929 . S
H198 C180 0.928 . S
H199 C182 0.932 . S
C200 C201 1.264 . S
C200 C205 1.479 . S
C200 C210 1.465 . S
C201 C200 1.264 . S
C201 C203 1.339 . S
C201 H228 0.931 . S
C202 C203 1.395 . S
C202 C204 1.320 . S
C203 C201 1.339 . S
C203 C202 1.395 . S
C203 H229 0.929 . S
C204 C202 1.320 . S
C204 C205 1.405 . S
C204 H230 0.930 . S
C205 C200 1.479 . S
C205 C204 1.405 . S
C205 H231 0.931 . S
U206 O207 2.454 . S
U206 O208 2.458 . S
U206 C209 2.984 . S
U206 C210 2.847 . S
U206 C223 2.882 . S
U206 O224 2.441 . S
U206 O225 2.420 . S
U206 O226 2.455 . S
U206 O227 2.449 . S
O207 U206 2.454 . S
O207 C209 1.353 . S
O208 U206 2.458 . S
O208 C209 1.286 . S
C209 U206 2.984 . S
C209 O207 1.353 . S
C209 O208 1.286 . S
C209 C211 1.363 . S
C210 C200 1.465 . S
C210 U206 2.847 . S
C210 O224 1.249 . S
C210 O225 1.202 . S
C211 C209 1.363 . S
C211 C213 1.408 . S
C211 C216 1.342 . S
C212 C213 1.310 . S
C212 C215 1.461 . S
C212 H232 0.932 . S
C213 C211 1.408 . S
C213 C212 1.310 . S
C213 H233 0.930 . S
C214 C215 1.474 . S
C214 C216 1.285 . S
C214 H234 0.929 . S
C215 C212 1.461 . S
C215 C214 1.474 . S
C216 C211 1.342 . S
C216 C214 1.285 . S
C216 H235 0.930 . S
C217 C220 1.424 . S
C217 C222 1.245 . S
C217 C223 1.428 . S
C218 C221 1.260 . S
C218 C222 1.477 . S
C218 H236 0.932 . S
C219 C220 1.384 . S
C219 C221 1.479 . S
C219 H237 0.929 . S
C220 C217 1.424 . S
C220 C219 1.384 . S
C220 H238 0.928 . S
C221 C218 1.260 . S
C221 C219 1.479 . S
C222 C217 1.245 . S
C222 C218 1.477 . S
C222 H239 0.932 . S
C223 U206 2.882 . S
C223 C217 1.428 . S
C223 O226 1.301 . S
C223 O227 1.282 . S
O224 U206 2.441 . S
O224 C210 1.249 . S
O225 U206 2.420 . S
O225 C210 1.202 . S
O226 U206 2.455 . S
O226 C223 1.301 . S
O227 U206 2.449 . S
O227 C223 1.282 . S
H228 C201 0.931 . S
H229 C203 0.929 . S
H230 C204 0.930 . S
H231 C205 0.931 . S
H232 C212 0.932 . S
H233 C213 0.930 . S
H234 C214 0.929 . S
H235 C216 0.930 . S
H236 C218 0.932 . S
H237 C219 0.929 . S
H238 C220 0.928 . S
H239 C222 0.932 . S
C240 C241 1.264 . S
C240 C245 1.479 . S
C240 C250 1.465 . S
C241 C240 1.264 . S
C241 C243 1.339 . S
C241 H268 0.931 . S
C242 C243 1.395 . S
C242 C244 1.320 . S
C243 C241 1.339 . S
C243 C242 1.395 . S
C243 H269 0.929 . S
C244 C242 1.320 . S
C244 C245 1.405 . S
C244 H270 0.930 . S
C245 C240 1.479 . S
C245 C244 1.405 . S
C245 H271 0.931 . S
U246 O247 2.454 . S
U246 O248 2.458 . S
U246 C249 2.984 . S
U246 C250 2.847 . S
U246 C263 2.882 . S
U246 O264 2.441 . S
U246 O265 2.420 . S
U246 O266 2.455 . S
U246 O267 2.449 . S
O247 U246 2.454 . S
O247 C249 1.353 . S
O248 U246 2.458 . S
O248 C249 1.286 . S
C249 U246 2.984 . S
C249 O247 1.353 . S
C249 O248 1.286 . S
C249 C251 1.363 . S
C250 C240 1.465 . S
C250 U246 2.847 . S
C250 O264 1.249 . S
C250 O265 1.202 . S
C251 C249 1.363 . S
C251 C253 1.408 . S
C251 C256 1.342 . S
C252 C253 1.310 . S
C252 C255 1.461 . S
C252 H272 0.932 . S
C253 C251 1.408 . S
C253 C252 1.310 . S
C253 H273 0.930 . S
C254 C255 1.474 . S
C254 C256 1.285 . S
C254 H274 0.929 . S
C255 C252 1.461 . S
C255 C254 1.474 . S
C256 C251 1.342 . S
C256 C254 1.285 . S
C256 H275 0.930 . S
C257 C260 1.424 . S
C257 C262 1.245 . S
C257 C263 1.428 . S
C258 C261 1.260 . S
C258 C262 1.477 . S
C258 H276 0.932 . S
C259 C260 1.384 . S
C259 C261 1.479 . S
C259 H277 0.929 . S
C260 C257 1.424 . S
C260 C259 1.384 . S
C260 H278 0.928 . S
C261 C258 1.260 . S
C261 C259 1.479 . S
C262 C257 1.245 . S
C262 C258 1.477 . S
C262 H279 0.932 . S
C263 U246 2.882 . S
C263 C257 1.428 . S
C263 O266 1.301 . S
C263 O267 1.282 . S
O264 U246 2.441 . S
O264 C250 1.249 . S
O265 U246 2.420 . S
O265 C250 1.202 . S
O266 U246 2.455 . S
O266 C263 1.301 . S
O267 U246 2.449 . S
O267 C263 1.282 . S
H268 C241 0.931 . S
H269 C243 0.929 . S
H270 C244 0.930 . S
H271 C245 0.931 . S
H272 C252 0.932 . S
H273 C253 0.930 . S
H274 C254 0.929 . S
H275 C256 0.930 . S
H276 C258 0.932 . S
H277 C259 0.929 . S
H278 C260 0.928 . S
H279 C262 0.932 . S
C280 C281 1.264 . S
C280 C285 1.479 . S
C280 C290 1.465 . S
C281 C280 1.264 . S
C281 C283 1.339 . S
C281 H308 0.931 . S
C282 C283 1.395 . S
C282 C284 1.320 . S
C283 C281 1.339 . S
C283 C282 1.395 . S
C283 H309 0.929 . S
C284 C282 1.320 . S
C284 C285 1.405 . S
C284 H310 0.930 . S
C285 C280 1.479 . S
C285 C284 1.405 . S
C285 H311 0.931 . S
U286 O287 2.454 . S
U286 O288 2.458 . S
U286 C289 2.984 . S
U286 C290 2.847 . S
U286 C303 2.882 . S
U286 O304 2.441 . S
U286 O305 2.420 . S
U286 O306 2.455 . S
U286 O307 2.449 . S
O287 U286 2.454 . S
O287 C289 1.353 . S
O288 U286 2.458 . S
O288 C289 1.286 . S
C289 U286 2.984 . S
C289 O287 1.353 . S
C289 O288 1.286 . S
C289 C291 1.363 . S
C290 C280 1.465 . S
C290 U286 2.847 . S
C290 O304 1.249 . S
C290 O305 1.202 . S
C291 C289 1.363 . S
C291 C293 1.408 . S
C291 C296 1.342 . S
C292 C293 1.310 . S
C292 C295 1.461 . S
C292 H312 0.932 . S
C293 C291 1.408 . S
C293 C292 1.310 . S
C293 H313 0.930 . S
C294 C295 1.474 . S
C294 C296 1.285 . S
C294 H314 0.929 . S
C295 C292 1.461 . S
C295 C294 1.474 . S
C296 C291 1.342 . S
C296 C294 1.285 . S
C296 H315 0.930 . S
C297 C300 1.424 . S
C297 C302 1.245 . S
C297 C303 1.428 . S
C298 C301 1.260 . S
C298 C302 1.477 . S
C298 H316 0.932 . S
C299 C300 1.384 . S
C299 C301 1.479 . S
C299 H317 0.929 . S
C300 C297 1.424 . S
C300 C299 1.384 . S
C300 H318 0.928 . S
C301 C298 1.260 . S
C301 C299 1.479 . S
C302 C297 1.245 . S
C302 C298 1.477 . S
C302 H319 0.932 . S
C303 U286 2.882 . S
C303 C297 1.428 . S
C303 O306 1.301 . S
C303 O307 1.282 . S
O304 U286 2.441 . S
O304 C290 1.249 . S
O305 U286 2.420 . S
O305 C290 1.202 . S
O306 U286 2.455 . S
O306 C303 1.301 . S
O307 U286 2.449 . S
O307 C303 1.282 . S
H308 C281 0.931 . S
H309 C283 0.929 . S
H310 C284 0.930 . S
H311 C285 0.931 . S
H312 C292 0.932 . S
H313 C293 0.930 . S
H314 C294 0.929 . S
H315 C296 0.930 . S
H316 C298 0.932 . S
H317 C299 0.929 . S
H318 C300 0.928 . S
H319 C302 0.932 . S
H320 C347 0.929 . S
N321 C346 1.433 1_455 S
N321 C352 1.435 . S
N321 C358 1.423 . S
H322 C348 0.930 . S
H323 C351 0.931 . S
H324 C350 0.929 . S
H325 C353 0.930 . S
H326 C354 0.932 . S
H327 C357 0.929 . S
H328 C356 0.931 . S
H329 C359 0.928 1_655 S
H330 C363 0.932 . S
H331 C360 0.931 1_655 S
H332 C362 0.929 . S
H333 C365 0.929 . S
H334 C366 0.930 . S
H335 C368 0.929 . S
H336 C369 0.931 . S
H337 C371 0.930 . S
H338 C372 0.932 . S
H339 C374 0.931 . S
H340 C375 0.929 . S
H341 C377 0.927 1_655 S
H342 C378 0.931 1_655 S
H343 C380 0.929 . S
N344 C364 1.433 1_455 S
N344 C370 1.435 . S
N344 C376 1.423 . S
H345 C381 0.932 . S
C346 N321 1.433 1_655 S
C346 C347 1.363 . S
C346 C351 1.370 . S
C347 H320 0.929 . S
C347 C346 1.363 . S
C347 C348 1.385 . S
C348 H322 0.930 . S
C348 C347 1.385 . S
C348 C349 1.357 . S
C349 C348 1.357 . S
C349 C350 1.406 . S
C350 H324 0.929 . S
C350 C349 1.406 . S
C350 C351 1.391 . S
C351 H323 0.931 . S
C351 C346 1.370 . S
C351 C350 1.391 . S
C352 N321 1.435 . S
C352 C353 1.358 . S
C352 C357 1.371 . S
C353 H325 0.930 . S
C353 C352 1.358 . S
C353 C354 1.405 . S
C354 H326 0.932 . S
C354 C353 1.405 . S
C354 C355 1.383 . S
C355 C354 1.383 . S
C355 C356 1.393 . S
C356 H328 0.931 . S
C356 C355 1.393 . S
C356 C357 1.382 . S
C357 H327 0.929 . S
C357 C352 1.371 . S
C357 C356 1.382 . S
C358 N321 1.423 . S
C358 C359 1.363 . S
C358 C363 1.388 . S
C359 H329 0.928 1_455 S
C359 C358 1.363 . S
C359 C360 1.376 . S
C360 H331 0.931 1_455 S
C360 C359 1.376 . S
C360 C361 1.396 . S
C361 C360 1.396 . S
C361 C362 1.348 . S
C361 C379 1.472 . S
C362 H332 0.929 . S
C362 C361 1.348 . S
C362 C363 1.443 . S
C363 H330 0.932 . S
C363 C358 1.388 . S
C363 C362 1.443 . S
C364 N344 1.433 1_655 S
C364 C365 1.363 . S
C364 C369 1.370 . S
C365 H333 0.929 . S
C365 C364 1.363 . S
C365 C366 1.385 . S
C366 H334 0.930 . S
C366 C365 1.385 . S
C366 C367 1.357 . S
C367 C366 1.357 . S
C367 C368 1.406 . S
C368 H335 0.929 . S
C368 C367 1.406 . S
C368 C369 1.391 . S
C369 H336 0.931 . S
C369 C364 1.370 . S
C369 C368 1.391 . S
C370 N344 1.435 . S
C370 C371 1.358 . S
C370 C375 1.371 . S
C371 H337 0.930 . S
C371 C370 1.358 . S
C371 C372 1.405 . S
C372 H338 0.932 . S
C372 C371 1.405 . S
C372 C373 1.383 . S
C373 C372 1.383 . S
C373 C374 1.393 . S
C374 H339 0.931 . S
C374 C373 1.393 . S
C374 C375 1.382 . S
C375 H340 0.929 . S
C375 C370 1.371 . S
C375 C374 1.382 . S
C376 N344 1.423 . S
C376 C377 1.364 . S
C376 C381 1.388 . S
C377 H341 0.927 1_455 S
C377 C376 1.364 . S
C377 C378 1.377 . S
C378 H342 0.931 1_455 S
C378 C377 1.377 . S
C378 C379 1.396 . S
C379 C361 1.472 . S
C379 C378 1.396 . S
C379 C380 1.348 . S
C380 H343 0.929 . S
C380 C379 1.348 . S
C380 C381 1.443 . S
C381 H345 0.932 . S
C381 C376 1.388 . S
C381 C380 1.443 . S
H382 C409 0.929 . S
N383 C408 1.433 1_455 S
N383 C414 1.435 . S
N383 C420 1.423 . S
H384 C410 0.930 . S
H385 C413 0.931 . S
H386 C412 0.929 . S
H387 C415 0.930 . S
H388 C416 0.932 . S
H389 C419 0.929 . S
H390 C418 0.931 . S
H391 C421 0.937 . S
H392 C425 0.932 . S
H393 C422 0.931 1_655 S
H394 C424 0.929 . S
H395 C427 0.929 . S
H396 C428 0.930 . S
H397 C430 0.929 . S
H398 C431 0.931 . S
H399 C433 0.930 . S
H400 C434 0.932 . S
H401 C436 0.931 . S
H402 C437 0.929 . S
H403 C439 0.934 . S
H404 C440 0.931 1_655 S
H405 C442 0.929 . S
N406 C426 1.433 1_455 S
N406 C432 1.435 . S
N406 C438 1.423 . S
H407 C443 0.932 . S
C408 N383 1.433 1_655 S
C408 C409 1.363 . S
C408 C413 1.370 . S
C409 H382 0.929 . S
C409 C408 1.363 . S
C409 C410 1.385 . S
C410 H384 0.930 . S
C410 C409 1.385 . S
C410 C411 1.357 . S
C411 C410 1.357 . S
C411 C412 1.406 . S
C412 H386 0.929 . S
C412 C411 1.406 . S
C412 C413 1.391 . S
C413 H385 0.931 . S
C413 C408 1.370 . S
C413 C412 1.391 . S
C414 N383 1.435 . S
C414 C415 1.358 . S
C414 C419 1.371 . S
C415 H387 0.930 . S
C415 C414 1.358 . S
C415 C416 1.405 . S
C416 H388 0.932 . S
C416 C415 1.405 . S
C416 C417 1.383 . S
C417 C416 1.383 . S
C417 C418 1.393 . S
C418 H390 0.931 . S
C418 C417 1.393 . S
C418 C419 1.382 . S
C419 H389 0.929 . S
C419 C414 1.371 . S
C419 C418 1.382 . S
C420 N383 1.423 . S
C420 C421 1.355 1_455 S
C420 C425 1.388 . S
C421 H391 0.937 . S
C421 C420 1.355 1_655 S
C421 C422 1.375 1_655 S
C422 H393 0.931 1_455 S
C422 C421 1.375 1_455 S
C422 C423 1.396 . S
C423 C422 1.396 . S
C423 C424 1.348 . S
C423 C441 1.472 . S
C424 H394 0.929 . S
C424 C423 1.348 . S
C424 C425 1.443 . S
C425 H392 0.932 . S
C425 C420 1.388 . S
C425 C424 1.443 . S
C426 N406 1.433 1_655 S
C426 C427 1.363 . S
C426 C431 1.370 . S
C427 H395 0.929 . S
C427 C426 1.363 . S
C427 C428 1.385 . S
C428 H396 0.930 . S
C428 C427 1.385 . S
C428 C429 1.357 . S
C429 C428 1.357 . S
C429 C430 1.406 . S
C430 H397 0.929 . S
C430 C429 1.406 . S
C430 C431 1.391 . S
C431 H398 0.931 . S
C431 C426 1.370 . S
C431 C430 1.391 . S
C432 N406 1.435 . S
C432 C433 1.358 . S
C432 C437 1.371 . S
C433 H399 0.930 . S
C433 C432 1.358 . S
C433 C434 1.405 . S
C434 H400 0.932 . S
C434 C433 1.405 . S
C434 C435 1.383 . S
C435 C434 1.383 . S
C435 C436 1.393 . S
C436 H401 0.931 . S
C436 C435 1.393 . S
C436 C437 1.382 . S
C437 H402 0.929 . S
C437 C432 1.371 . S
C437 C436 1.382 . S
C438 N406 1.423 . S
C438 C439 1.358 1_455 S
C438 C443 1.388 . S
C439 H403 0.934 . S
C439 C438 1.358 1_655 S
C439 C440 1.376 1_655 S
C440 H404 0.931 1_455 S
C440 C439 1.376 1_455 S
C440 C441 1.396 . S
C441 C423 1.472 . S
C441 C440 1.396 . S
C441 C442 1.348 . S
C442 H405 0.929 . S
C442 C441 1.348 . S
C442 C443 1.443 . S
C443 H407 0.932 . S
C443 C438 1.388 . S
C443 C442 1.443 . S
H444 C471 0.929 . S
N445 C470 1.433 . S
N445 C476 1.435 . S
N445 C482 1.423 . S
H446 C472 0.930 . S
H447 C475 0.931 . S
H448 C474 0.929 . S
H449 C477 0.930 . S
H450 C478 0.932 . S
H451 C481 0.929 . S
H452 C480 0.931 . S
H453 C483 0.929 . S
H454 C487 0.932 . S
H455 C484 0.931 . S
H456 C486 0.929 . S
H457 C489 0.929 . S
H458 C490 0.930 . S
H459 C492 0.929 . S
H460 C493 0.931 . S
H461 C495 0.930 . S
H462 C496 0.932 . S
H463 C498 0.931 . S
H464 C499 0.929 . S
H465 C501 0.929 . S
H466 C502 0.931 . S
H467 C504 0.929 . S
N468 C488 1.433 . S
N468 C494 1.435 . S
N468 C500 1.423 . S
H469 C505 0.932 . S
C470 N445 1.433 . S
C470 C471 1.363 . S
C470 C475 1.370 . S
C471 H444 0.929 . S
C471 C470 1.363 . S
C471 C472 1.385 . S
C472 H446 0.930 . S
C472 C471 1.385 . S
C472 C473 1.357 . S
C473 C472 1.357 . S
C473 C474 1.406 . S
C474 H448 0.929 . S
C474 C473 1.406 . S
C474 C475 1.391 . S
C475 H447 0.931 . S
C475 C470 1.370 . S
C475 C474 1.391 . S
C476 N445 1.435 . S
C476 C477 1.358 . S
C476 C481 1.371 . S
C477 H449 0.930 . S
C477 C476 1.358 . S
C477 C478 1.405 . S
C478 H450 0.932 . S
C478 C477 1.405 . S
C478 C479 1.383 . S
C479 C478 1.383 . S
C479 C480 1.393 . S
C480 H452 0.931 . S
C480 C479 1.393 . S
C480 C481 1.382 . S
C481 H451 0.929 . S
C481 C476 1.371 . S
C481 C480 1.382 . S
C482 N445 1.423 . S
C482 C483 1.362 . S
C482 C487 1.388 . S
C483 H453 0.929 . S
C483 C482 1.362 . S
C483 C484 1.376 . S
C484 H455 0.931 . S
C484 C483 1.376 . S
C484 C485 1.396 . S
C485 C484 1.396 . S
C485 C486 1.348 . S
C485 C503 1.472 1_545 S
C486 H456 0.929 . S
C486 C485 1.348 . S
C486 C487 1.443 . S
C487 H454 0.932 . S
C487 C482 1.388 . S
C487 C486 1.443 . S
C488 N468 1.433 . S
C488 C489 1.363 . S
C488 C493 1.370 . S
C489 H457 0.929 . S
C489 C488 1.363 . S
C489 C490 1.385 . S
C490 H458 0.930 . S
C490 C489 1.385 . S
C490 C491 1.357 . S
C491 C490 1.357 . S
C491 C492 1.406 . S
C492 H459 0.929 . S
C492 C491 1.406 . S
C492 C493 1.391 . S
C493 H460 0.931 . S
C493 C488 1.370 . S
C493 C492 1.391 . S
C494 N468 1.435 . S
C494 C495 1.358 . S
C494 C499 1.371 . S
C495 H461 0.930 . S
C495 C494 1.358 . S
C495 C496 1.405 . S
C496 H462 0.932 . S
C496 C495 1.405 . S
C496 C497 1.383 . S
C497 C496 1.383 . S
C497 C498 1.393 . S
C498 H463 0.931 . S
C498 C497 1.393 . S
C498 C499 1.382 . S
C499 H464 0.929 . S
C499 C494 1.371 . S
C499 C498 1.382 . S
C500 N468 1.423 . S
C500 C501 1.362 . S
C500 C505 1.388 . S
C501 H465 0.929 . S
C501 C500 1.362 . S
C501 C502 1.376 . S
C502 H466 0.931 . S
C502 C501 1.376 . S
C502 C503 1.396 . S
C503 C485 1.472 1_565 S
C503 C502 1.396 . S
C503 C504 1.348 . S
C504 H467 0.929 . S
C504 C503 1.348 . S
C504 C505 1.443 . S
C505 H469 0.932 . S
C505 C500 1.388 . S
C505 C504 1.443 . S
H506 C533 0.929 . S
N507 C532 1.433 . S
N507 C538 1.435 . S
N507 C544 1.423 . S
H508 C534 0.930 . S
H509 C537 0.931 . S
H510 C536 0.929 . S
H511 C539 0.930 . S
H512 C540 0.932 . S
H513 C543 0.929 . S
H514 C542 0.931 . S
H515 C545 0.929 . S
H516 C549 0.932 . S
H517 C546 0.931 . S
H518 C548 0.929 . S
H519 C551 0.929 . S
H520 C552 0.930 . S
H521 C554 0.929 . S
H522 C555 0.931 . S
H523 C557 0.930 . S
H524 C558 0.932 . S
H525 C560 0.931 . S
H526 C561 0.929 . S
H527 C563 0.929 . S
H528 C564 0.931 . S
H529 C566 0.929 . S
N530 C550 1.433 . S
N530 C556 1.435 . S
N530 C562 1.423 . S
H531 C567 0.932 . S
C532 N507 1.433 . S
C532 C533 1.363 . S
C532 C537 1.370 . S
C533 H506 0.929 . S
C533 C532 1.363 . S
C533 C534 1.385 . S
C534 H508 0.930 . S
C534 C533 1.385 . S
C534 C535 1.357 . S
C535 C534 1.357 . S
C535 C536 1.406 . S
C536 H510 0.929 . S
C536 C535 1.406 . S
C536 C537 1.391 . S
C537 H509 0.931 . S
C537 C532 1.370 . S
C537 C536 1.391 . S
C538 N507 1.435 . S
C538 C539 1.358 . S
C538 C543 1.371 . S
C539 H511 0.930 . S
C539 C538 1.358 . S
C539 C540 1.405 . S
C540 H512 0.932 . S
C540 C539 1.405 . S
C540 C541 1.383 . S
C541 C540 1.383 . S
C541 C542 1.393 . S
C542 H514 0.931 . S
C542 C541 1.393 . S
C542 C543 1.382 . S
C543 H513 0.929 . S
C543 C538 1.371 . S
C543 C542 1.382 . S
C544 N507 1.423 . S
C544 C545 1.362 . S
C544 C549 1.388 . S
C545 H515 0.929 . S
C545 C544 1.362 . S
C545 C546 1.376 . S
C546 H517 0.931 . S
C546 C545 1.376 . S
C546 C547 1.396 . S
C547 C546 1.396 . S
C547 C548 1.348 . S
C547 C565 1.472 1_554 S
C548 H518 0.929 . S
C548 C547 1.348 . S
C548 C549 1.443 . S
C549 H516 0.932 . S
C549 C544 1.388 . S
C549 C548 1.443 . S
C550 N530 1.433 . S
C550 C551 1.363 . S
C550 C555 1.370 . S
C551 H519 0.929 . S
C551 C550 1.363 . S
C551 C552 1.385 . S
C552 H520 0.930 . S
C552 C551 1.385 . S
C552 C553 1.357 . S
C553 C552 1.357 . S
C553 C554 1.406 . S
C554 H521 0.929 . S
C554 C553 1.406 . S
C554 C555 1.391 . S
C555 H522 0.931 . S
C555 C550 1.370 . S
C555 C554 1.391 . S
C556 N530 1.435 . S
C556 C557 1.358 . S
C556 C561 1.371 . S
C557 H523 0.930 . S
C557 C556 1.358 . S
C557 C558 1.405 . S
C558 H524 0.932 . S
C558 C557 1.405 . S
C558 C559 1.383 . S
C559 C558 1.383 . S
C559 C560 1.393 . S
C560 H525 0.931 . S
C560 C559 1.393 . S
C560 C561 1.382 . S
C561 H526 0.929 . S
C561 C556 1.371 . S
C561 C560 1.382 . S
C562 N530 1.423 . S
C562 C563 1.362 . S
C562 C567 1.388 . S
C563 H527 0.929 . S
C563 C562 1.362 . S
C563 C564 1.376 . S
C564 H528 0.931 . S
C564 C563 1.376 . S
C564 C565 1.396 . S
C565 C547 1.472 1_556 S
C565 C564 1.396 . S
C565 C566 1.348 . S
C566 H529 0.929 . S
C566 C565 1.348 . S
C566 C567 1.443 . S
C567 H531 0.932 . S
C567 C562 1.388 . S
C567 C566 1.443 . S
H568 C595 0.929 . S
N569 C594 1.433 . S
N569 C600 1.435 . S
N569 C606 1.423 . S
H570 C596 0.930 . S
H571 C599 0.931 . S
H572 C598 0.929 . S
H573 C601 0.930 . S
H574 C602 0.932 . S
H575 C605 0.929 . S
H576 C604 0.931 . S
H577 C607 0.929 . S
H578 C611 0.932 . S
H579 C608 0.931 . S
H580 C610 0.929 . S
H581 C613 0.929 . S
H582 C614 0.930 . S
H583 C616 0.929 . S
H584 C617 0.931 . S
H585 C619 0.930 . S
H586 C620 0.932 . S
H587 C622 0.931 . S
H588 C623 0.929 . S
H589 C625 0.929 . S
H590 C626 0.931 . S
H591 C628 0.929 . S
N592 C612 1.433 . S
N592 C618 1.435 . S
N592 C624 1.423 . S
H593 C629 0.932 . S
C594 N569 1.433 . S
C594 C595 1.363 . S
C594 C599 1.370 . S
C595 H568 0.929 . S
C595 C594 1.363 . S
C595 C596 1.385 . S
C596 H570 0.930 . S
C596 C595 1.385 . S
C596 C597 1.357 . S
C597 C596 1.357 . S
C597 C598 1.406 . S
C598 H572 0.929 . S
C598 C597 1.406 . S
C598 C599 1.391 . S
C599 H571 0.931 . S
C599 C594 1.370 . S
C599 C598 1.391 . S
C600 N569 1.435 . S
C600 C601 1.358 . S
C600 C605 1.371 . S
C601 H573 0.930 . S
C601 C600 1.358 . S
C601 C602 1.405 . S
C602 H574 0.932 . S
C602 C601 1.405 . S
C602 C603 1.383 . S
C603 C602 1.383 . S
C603 C604 1.393 . S
C604 H576 0.931 . S
C604 C603 1.393 . S
C604 C605 1.382 . S
C605 H575 0.929 . S
C605 C600 1.371 . S
C605 C604 1.382 . S
C606 N569 1.423 . S
C606 C607 1.362 . S
C606 C611 1.388 . S
C607 H577 0.929 . S
C607 C606 1.362 . S
C607 C608 1.376 . S
C608 H579 0.931 . S
C608 C607 1.376 . S
C608 C609 1.396 . S
C609 C608 1.396 . S
C609 C610 1.348 . S
C609 C627 1.472 1_545 S
C610 H580 0.929 . S
C610 C609 1.348 . S
C610 C611 1.443 . S
C611 H578 0.932 . S
C611 C606 1.388 . S
C611 C610 1.443 . S
C612 N592 1.433 . S
C612 C613 1.363 . S
C612 C617 1.370 . S
C613 H581 0.929 . S
C613 C612 1.363 . S
C613 C614 1.385 . S
C614 H582 0.930 . S
C614 C613 1.385 . S
C614 C615 1.357 . S
C615 C614 1.357 . S
C615 C616 1.406 . S
C616 H583 0.929 . S
C616 C615 1.406 . S
C616 C617 1.391 . S
C617 H584 0.931 . S
C617 C612 1.370 . S
C617 C616 1.391 . S
C618 N592 1.435 . S
C618 C619 1.358 . S
C618 C623 1.371 . S
C619 H585 0.930 . S
C619 C618 1.358 . S
C619 C620 1.405 . S
C620 H586 0.932 . S
C620 C619 1.405 . S
C620 C621 1.383 . S
C621 C620 1.383 . S
C621 C622 1.393 . S
C622 H587 0.931 . S
C622 C621 1.393 . S
C622 C623 1.382 . S
C623 H588 0.929 . S
C623 C618 1.371 . S
C623 C622 1.382 . S
C624 N592 1.423 . S
C624 C625 1.362 . S
C624 C629 1.388 . S
C625 H589 0.929 . S
C625 C624 1.362 . S
C625 C626 1.376 . S
C626 H590 0.931 . S
C626 C625 1.376 . S
C626 C627 1.396 . S
C627 C609 1.472 1_565 S
C627 C626 1.396 . S
C627 C628 1.348 . S
C628 H591 0.929 . S
C628 C627 1.348 . S
C628 C629 1.443 . S
C629 H593 0.932 . S
C629 C624 1.388 . S
C629 C628 1.443 . S
H630 C657 0.929 . S
N631 C656 1.433 . S
N631 C662 1.435 . S
N631 C668 1.423 . S
H632 C658 0.930 . S
H633 C661 0.931 . S
H634 C660 0.929 . S
H635 C663 0.930 . S
H636 C664 0.932 . S
H637 C667 0.929 . S
H638 C666 0.931 . S
H639 C669 0.929 . S
H640 C673 0.932 . S
H641 C670 0.931 . S
H642 C672 0.929 . S
H643 C675 0.929 . S
H644 C676 0.930 . S
H645 C678 0.929 . S
H646 C679 0.931 . S
H647 C681 0.930 . S
H648 C682 0.932 . S
H649 C684 0.931 . S
H650 C685 0.929 . S
H651 C687 0.929 . S
H652 C688 0.931 . S
H653 C690 0.929 . S
N654 C674 1.433 . S
N654 C680 1.435 . S
N654 C686 1.423 . S
H655 C691 0.932 . S
C656 N631 1.433 . S
C656 C657 1.363 . S
C656 C661 1.370 . S
C657 H630 0.929 . S
C657 C656 1.363 . S
C657 C658 1.385 . S
C658 H632 0.930 . S
C658 C657 1.385 . S
C658 C659 1.357 . S
C659 C658 1.357 . S
C659 C660 1.406 . S
C660 H634 0.929 . S
C660 C659 1.406 . S
C660 C661 1.391 . S
C661 H633 0.931 . S
C661 C656 1.370 . S
C661 C660 1.391 . S
C662 N631 1.435 . S
C662 C663 1.358 . S
C662 C667 1.371 . S
C663 H635 0.930 . S
C663 C662 1.358 . S
C663 C664 1.405 . S
C664 H636 0.932 . S
C664 C663 1.405 . S
C664 C665 1.383 . S
C665 C664 1.383 . S
C665 C666 1.393 . S
C666 H638 0.931 . S
C666 C665 1.393 . S
C666 C667 1.382 . S
C667 H637 0.929 . S
C667 C662 1.371 . S
C667 C666 1.382 . S
C668 N631 1.423 . S
C668 C669 1.362 . S
C668 C673 1.388 . S
C669 H639 0.929 . S
C669 C668 1.362 . S
C669 C670 1.376 . S
C670 H641 0.931 . S
C670 C669 1.376 . S
C670 C671 1.396 . S
C671 C670 1.396 . S
C671 C672 1.348 . S
C671 C689 1.472 1_554 S
C672 H642 0.929 . S
C672 C671 1.348 . S
C672 C673 1.443 . S
C673 H640 0.932 . S
C673 C668 1.388 . S
C673 C672 1.443 . S
C674 N654 1.433 . S
C674 C675 1.363 . S
C674 C679 1.370 . S
C675 H643 0.929 . S
C675 C674 1.363 . S
C675 C676 1.385 . S
C676 H644 0.930 . S
C676 C675 1.385 . S
C676 C677 1.357 . S
C677 C676 1.357 . S
C677 C678 1.406 . S
C678 H645 0.929 . S
C678 C677 1.406 . S
C678 C679 1.391 . S
C679 H646 0.931 . S
C679 C674 1.370 . S
C679 C678 1.391 . S
C680 N654 1.435 . S
C680 C681 1.358 . S
C680 C685 1.371 . S
C681 H647 0.930 . S
C681 C680 1.358 . S
C681 C682 1.405 . S
C682 H648 0.932 . S
C682 C681 1.405 . S
C682 C683 1.383 . S
C683 C682 1.383 . S
C683 C684 1.393 . S
C684 H649 0.931 . S
C684 C683 1.393 . S
C684 C685 1.382 . S
C685 H650 0.929 . S
C685 C680 1.371 . S
C685 C684 1.382 . S
C686 N654 1.423 . S
C686 C687 1.362 . S
C686 C691 1.388 . S
C687 H651 0.929 . S
C687 C686 1.362 . S
C687 C688 1.376 . S
C688 H652 0.931 . S
C688 C687 1.376 . S
C688 C689 1.396 . S
C689 C671 1.472 1_556 S
C689 C688 1.396 . S
C689 C690 1.348 . S
C690 H653 0.929 . S
C690 C689 1.348 . S
C690 C691 1.443 . S
C691 H655 0.932 . S
C691 C686 1.388 . S
C691 C690 1.443 . S
C692 C693 1.391 . S
C692 C694 1.394 . S
C692 H708 0.931 . S
C693 C692 1.391 . S
C693 C697 1.376 . S
C694 C692 1.394 . S
C694 C695 1.369 . S
C694 C698 1.531 . S
C695 C694 1.369 . S
C695 C696 1.410 . S
C695 C703 1.503 . S
C696 C695 1.410 . S
C696 C697 1.392 . S
C696 C699 1.511 . S
C697 C693 1.376 . S
C697 C696 1.392 . S
C697 H709 0.929 . S
C698 C694 1.531 . S
C698 H710 0.960 . S
C698 H711 0.962 . S
C698 H712 0.960 . S
C699 C696 1.511 . S
C699 H713 0.961 . S
C699 H714 0.961 . S
C699 H715 0.961 . S
C700 C701 1.370 . S
C700 C702 1.363 . S
C700 H716 0.931 . S
C701 C700 1.370 . S
C701 C705 1.408 . S
C702 C700 1.363 . S
C702 C703 1.370 . S
C702 C706 1.524 . S
C703 C695 1.503 . S
C703 C702 1.370 . S
C703 C704 1.403 . S
C704 C703 1.403 . S
C704 C705 1.404 . S
C704 C707 1.539 . S
C705 C701 1.408 . S
C705 C704 1.404 . S
C705 H717 0.930 . S
C706 C702 1.524 . S
C706 H718 0.956 . S
C706 H719 0.961 . S
C706 H720 0.961 . S
C707 C704 1.539 . S
C707 H721 0.958 . S
C707 H722 0.961 . S
C707 H723 0.960 . S
H708 C692 0.931 . S
H709 C697 0.929 . S
H710 C698 0.960 . S
H711 C698 0.962 . S
H712 C698 0.960 . S
H713 C699 0.961 . S
H714 C699 0.961 . S
H715 C699 0.961 . S
H716 C700 0.931 . S
H717 C705 0.930 . S
H718 C706 0.956 . S
H719 C706 0.961 . S
H720 C706 0.961 . S
H721 C707 0.958 . S
H722 C707 0.961 . S
H723 C707 0.960 . S
C724 C725 1.391 . S
C724 C726 1.394 . S
C724 H740 0.931 . S
C725 C724 1.391 . S
C725 C729 1.376 . S
C726 C724 1.394 . S
C726 C727 1.369 . S
C726 C730 1.531 . S
C727 C726 1.369 . S
C727 C728 1.410 . S
C727 C735 1.503 . S
C728 C727 1.410 . S
C728 C729 1.392 . S
C728 C731 1.511 . S
C729 C725 1.376 . S
C729 C728 1.392 . S
C729 H741 0.929 . S
C730 C726 1.531 . S
C730 H742 0.960 . S
C730 H743 0.962 . S
C730 H744 0.960 . S
C731 C728 1.511 . S
C731 H745 0.961 . S
C731 H746 0.961 . S
C731 H747 0.961 . S
C732 C733 1.370 . S
C732 C734 1.363 . S
C732 H748 0.931 . S
C733 C732 1.370 . S
C733 C737 1.408 . S
C734 C732 1.363 . S
C734 C735 1.370 . S
C734 C738 1.524 . S
C735 C727 1.503 . S
C735 C734 1.370 . S
C735 C736 1.403 . S
C736 C735 1.403 . S
C736 C737 1.404 . S
C736 C739 1.539 . S
C737 C733 1.408 . S
C737 C736 1.404 . S
C737 H749 0.930 . S
C738 C734 1.524 . S
C738 H750 0.956 . S
C738 H751 0.961 . S
C738 H752 0.961 . S
C739 C736 1.539 . S
C739 H753 0.958 . S
C739 H754 0.961 . S
C739 H755 0.960 . S
H740 C724 0.931 . S
H741 C729 0.929 . S
H742 C730 0.960 . S
H743 C730 0.962 . S
H744 C730 0.960 . S
H745 C731 0.961 . S
H746 C731 0.961 . S
H747 C731 0.961 . S
H748 C732 0.931 . S
H749 C737 0.930 . S
H750 C738 0.956 . S
H751 C738 0.961 . S
H752 C738 0.961 . S
H753 C739 0.958 . S
H754 C739 0.961 . S
H755 C739 0.960 . S
C756 C757 1.391 . S
C756 C758 1.394 . S
C756 H772 0.931 . S
C757 C756 1.391 . S
C757 C761 1.376 . S
C758 C756 1.394 . S
C758 C759 1.369 . S
C758 C762 1.531 . S
C759 C758 1.369 . S
C759 C760 1.410 . S
C759 C767 1.503 . S
C760 C759 1.410 . S
C760 C761 1.392 . S
C760 C763 1.511 . S
C761 C757 1.376 . S
C761 C760 1.392 . S
C761 H773 0.929 . S
C762 C758 1.531 . S
C762 H774 0.960 . S
C762 H775 0.962 . S
C762 H776 0.960 . S
C763 C760 1.511 . S
C763 H777 0.961 . S
C763 H778 0.961 . S
C763 H779 0.961 . S
C764 C765 1.370 . S
C764 C766 1.363 . S
C764 H780 0.931 . S
C765 C764 1.370 . S
C765 C769 1.408 . S
C766 C764 1.363 . S
C766 C767 1.370 . S
C766 C770 1.524 . S
C767 C759 1.503 . S
C767 C766 1.370 . S
C767 C768 1.403 . S
C768 C767 1.403 . S
C768 C769 1.404 . S
C768 C771 1.539 . S
C769 C765 1.408 . S
C769 C768 1.404 . S
C769 H781 0.930 . S
C770 C766 1.524 . S
C770 H782 0.956 . S
C770 H783 0.961 . S
C770 H784 0.961 . S
C771 C768 1.539 . S
C771 H785 0.958 . S
C771 H786 0.961 . S
C771 H787 0.960 . S
H772 C756 0.931 . S
H773 C761 0.929 . S
H774 C762 0.960 . S
H775 C762 0.962 . S
H776 C762 0.960 . S
H777 C763 0.961 . S
H778 C763 0.961 . S
H779 C763 0.961 . S
H780 C764 0.931 . S
H781 C769 0.930 . S
H782 C770 0.956 . S
H783 C770 0.961 . S
H784 C770 0.961 . S
H785 C771 0.958 . S
H786 C771 0.961 . S
H787 C771 0.960 . S
C788 C789 1.391 . S
C788 C790 1.394 . S
C788 H804 0.931 . S
C789 C788 1.391 . S
C789 C793 1.376 . S
C790 C788 1.394 . S
C790 C791 1.369 . S
C790 C794 1.531 . S
C791 C790 1.369 . S
C791 C792 1.410 . S
C791 C799 1.503 . S
C792 C791 1.410 . S
C792 C793 1.392 . S
C792 C795 1.511 . S
C793 C789 1.376 . S
C793 C792 1.392 . S
C793 H805 0.929 . S
C794 C790 1.531 . S
C794 H806 0.960 . S
C794 H807 0.962 . S
C794 H808 0.960 . S
C795 C792 1.511 . S
C795 H809 0.961 . S
C795 H810 0.961 . S
C795 H811 0.961 . S
C796 C797 1.370 . S
C796 C798 1.363 . S
C796 H812 0.931 . S
C797 C796 1.370 . S
C797 C801 1.408 . S
C798 C796 1.363 . S
C798 C799 1.370 . S
C798 C802 1.524 . S
C799 C791 1.503 . S
C799 C798 1.370 . S
C799 C800 1.403 . S
C800 C799 1.403 . S
C800 C801 1.404 . S
C800 C803 1.539 . S
C801 C797 1.408 . S
C801 C800 1.404 . S
C801 H813 0.930 . S
C802 C798 1.524 . S
C802 H814 0.956 . S
C802 H815 0.961 . S
C802 H816 0.961 . S
C803 C800 1.539 . S
C803 H817 0.958 . S
C803 H818 0.961 . S
C803 H819 0.960 . S
H804 C788 0.931 . S
H805 C793 0.929 . S
H806 C794 0.960 . S
H807 C794 0.962 . S
H808 C794 0.960 . S
H809 C795 0.961 . S
H810 C795 0.961 . S
H811 C795 0.961 . S
H812 C796 0.931 . S
H813 C801 0.930 . S
H814 C802 0.956 . S
H815 C802 0.961 . S
H816 C802 0.961 . S
H817 C803 0.958 . S
H818 C803 0.961 . S
H819 C803 0.960 . S
C820 C821 1.391 . S
C820 C822 1.394 . S
C820 H836 0.931 . S
C821 C820 1.391 . S
C821 C825 1.376 . S
C822 C820 1.394 . S
C822 C823 1.369 . S
C822 C826 1.531 . S
C823 C822 1.369 . S
C823 C824 1.410 . S
C823 C831 1.503 . S
C824 C823 1.410 . S
C824 C825 1.392 . S
C824 C827 1.511 . S
C825 C821 1.376 . S
C825 C824 1.392 . S
C825 H837 0.929 . S
C826 C822 1.531 . S
C826 H838 0.960 . S
C826 H839 0.962 . S
C826 H840 0.960 . S
C827 C824 1.511 . S
C827 H841 0.961 . S
C827 H842 0.961 . S
C827 H843 0.961 . S
C828 C829 1.370 . S
C828 C830 1.363 . S
C828 H844 0.931 . S
C829 C828 1.370 . S
C829 C833 1.408 . S
C830 C828 1.363 . S
C830 C831 1.370 . S
C830 C834 1.524 . S
C831 C823 1.503 . S
C831 C830 1.370 . S
C831 C832 1.403 . S
C832 C831 1.403 . S
C832 C833 1.404 . S
C832 C835 1.539 . S
C833 C829 1.408 . S
C833 C832 1.404 . S
C833 H845 0.930 . S
C834 C830 1.524 . S
C834 H846 0.956 . S
C834 H847 0.961 . S
C834 H848 0.961 . S
C835 C832 1.539 . S
C835 H849 0.958 . S
C835 H850 0.961 . S
C835 H851 0.960 . S
H836 C820 0.931 . S
H837 C825 0.929 . S
H838 C826 0.960 . S
H839 C826 0.962 . S
H840 C826 0.960 . S
H841 C827 0.961 . S
H842 C827 0.961 . S
H843 C827 0.961 . S
H844 C828 0.931 . S
H845 C833 0.930 . S
H846 C834 0.956 . S
H847 C834 0.961 . S
H848 C834 0.961 . S
H849 C835 0.958 . S
H850 C835 0.961 . S
H851 C835 0.960 . S
C852 C853 1.391 . S
C852 C854 1.394 . S
C852 H868 0.931 . S
C853 C852 1.391 . S
C853 C857 1.376 . S
C854 C852 1.394 . S
C854 C855 1.369 . S
C854 C858 1.531 . S
C855 C854 1.369 . S
C855 C856 1.410 . S
C855 C863 1.503 . S
C856 C855 1.410 . S
C856 C857 1.392 . S
C856 C859 1.511 . S
C857 C853 1.376 . S
C857 C856 1.392 . S
C857 H869 0.929 . S
C858 C854 1.531 . S
C858 H870 0.960 . S
C858 H871 0.962 . S
C858 H872 0.960 . S
C859 C856 1.511 . S
C859 H873 0.961 . S
C859 H874 0.961 . S
C859 H875 0.961 . S
C860 C861 1.370 . S
C860 C862 1.363 . S
C860 H876 0.931 . S
C861 C860 1.370 . S
C861 C865 1.408 . S
C862 C860 1.363 . S
C862 C863 1.370 . S
C862 C866 1.524 . S
C863 C855 1.503 . S
C863 C862 1.370 . S
C863 C864 1.403 . S
C864 C863 1.403 . S
C864 C865 1.404 . S
C864 C867 1.539 . S
C865 C861 1.408 . S
C865 C864 1.404 . S
C865 H877 0.930 . S
C866 C862 1.524 . S
C866 H878 0.956 . S
C866 H879 0.961 . S
C866 H880 0.961 . S
C867 C864 1.539 . S
C867 H881 0.958 . S
C867 H882 0.961 . S
C867 H883 0.960 . S
H868 C852 0.931 . S
H869 C857 0.929 . S
H870 C858 0.960 . S
H871 C858 0.962 . S
H872 C858 0.960 . S
H873 C859 0.961 . S
H874 C859 0.961 . S
H875 C859 0.961 . S
H876 C860 0.931 . S
H877 C865 0.930 . S
H878 C866 0.956 . S
H879 C866 0.961 . S
H880 C866 0.961 . S
H881 C867 0.958 . S
H882 C867 0.961 . S
H883 C867 0.960 . S
C884 C885 1.391 . S
C884 C886 1.394 . S
C884 H900 0.931 . S
C885 C884 1.391 . S
C885 C889 1.376 . S
C886 C884 1.394 . S
C886 C887 1.369 . S
C886 C890 1.531 . S
C887 C886 1.369 . S
C887 C888 1.410 . S
C887 C895 1.503 . S
C888 C887 1.410 . S
C888 C889 1.392 . S
C888 C891 1.511 . S
C889 C885 1.376 . S
C889 C888 1.392 . S
C889 H901 0.929 . S
C890 C886 1.531 . S
C890 H902 0.960 . S
C890 H903 0.962 . S
C890 H904 0.960 . S
C891 C888 1.511 . S
C891 H905 0.961 . S
C891 H906 0.961 . S
C891 H907 0.961 . S
C892 C893 1.370 . S
C892 C894 1.363 . S
C892 H908 0.931 . S
C893 C892 1.370 . S
C893 C897 1.408 . S
C894 C892 1.363 . S
C894 C895 1.370 . S
C894 C898 1.524 . S
C895 C887 1.503 . S
C895 C894 1.370 . S
C895 C896 1.403 . S
C896 C895 1.403 . S
C896 C897 1.404 . S
C896 C899 1.539 . S
C897 C893 1.408 . S
C897 C896 1.404 . S
C897 H909 0.930 . S
C898 C894 1.524 . S
C898 H910 0.956 . S
C898 H911 0.961 . S
C898 H912 0.961 . S
C899 C896 1.539 . S
C899 H913 0.958 . S
C899 H914 0.961 . S
C899 H915 0.960 . S
H900 C884 0.931 . S
H901 C889 0.929 . S
H902 C890 0.960 . S
H903 C890 0.962 . S
H904 C890 0.960 . S
H905 C891 0.961 . S
H906 C891 0.961 . S
H907 C891 0.961 . S
H908 C892 0.931 . S
H909 C897 0.930 . S
H910 C898 0.956 . S
H911 C898 0.961 . S
H912 C898 0.961 . S
H913 C899 0.958 . S
H914 C899 0.961 . S
H915 C899 0.960 . S
C916 C917 1.391 . S
C916 C918 1.394 . S
C916 H932 0.931 . S
C917 C916 1.391 . S
C917 C921 1.376 . S
C918 C916 1.394 . S
C918 C919 1.369 . S
C918 C922 1.531 . S
C919 C918 1.369 . S
C919 C920 1.410 . S
C919 C927 1.503 . S
C920 C919 1.410 . S
C920 C921 1.392 . S
C920 C923 1.511 . S
C921 C917 1.376 . S
C921 C920 1.392 . S
C921 H933 0.929 . S
C922 C918 1.531 . S
C922 H934 0.960 . S
C922 H935 0.962 . S
C922 H936 0.960 . S
C923 C920 1.511 . S
C923 H937 0.961 . S
C923 H938 0.961 . S
C923 H939 0.961 . S
C924 C925 1.370 . S
C924 C926 1.363 . S
C924 H940 0.931 . S
C925 C924 1.370 . S
C925 C929 1.408 . S
C926 C924 1.363 . S
C926 C927 1.370 . S
C926 C930 1.524 . S
C927 C919 1.503 . S
C927 C926 1.370 . S
C927 C928 1.403 . S
C928 C927 1.403 . S
C928 C929 1.404 . S
C928 C931 1.539 . S
C929 C925 1.408 . S
C929 C928 1.404 . S
C929 H941 0.930 . S
C930 C926 1.524 . S
C930 H942 0.956 . S
C930 H943 0.961 . S
C930 H944 0.961 . S
C931 C928 1.539 . S
C931 H945 0.958 . S
C931 H946 0.961 . S
C931 H947 0.960 . S
H932 C916 0.931 . S
H933 C921 0.929 . S
H934 C922 0.960 . S
H935 C922 0.962 . S
H936 C922 0.960 . S
H937 C923 0.961 . S
H938 C923 0.961 . S
H939 C923 0.961 . S
H940 C924 0.931 . S
H941 C929 0.930 . S
H942 C930 0.956 . S
H943 C930 0.961 . S
H944 C930 0.961 . S
H945 C931 0.958 . S
H946 C931 0.961 . S
H947 C931 0.960 . S
C948 C949 1.391 . S
C948 C950 1.394 . S
C948 H964 0.931 . S
C949 C948 1.391 . S
C949 C953 1.376 . S
C950 C948 1.394 . S
C950 C951 1.369 . S
C950 C954 1.531 . S
C951 C950 1.369 . S
C951 C952 1.410 . S
C951 C959 1.503 . S
C952 C951 1.410 . S
C952 C953 1.392 . S
C952 C955 1.511 . S
C953 C949 1.376 . S
C953 C952 1.392 . S
C953 H965 0.929 . S
C954 C950 1.531 . S
C954 H966 0.960 . S
C954 H967 0.962 . S
C954 H968 0.960 . S
C955 C952 1.511 . S
C955 H969 0.961 . S
C955 H970 0.961 . S
C955 H971 0.961 . S
C956 C957 1.370 . S
C956 C958 1.363 . S
C956 H972 0.931 . S
C957 C956 1.370 . S
C957 C961 1.408 . S
C958 C956 1.363 . S
C958 C959 1.370 . S
C958 C962 1.524 . S
C959 C951 1.503 . S
C959 C958 1.370 . S
C959 C960 1.403 . S
C960 C959 1.403 . S
C960 C961 1.404 . S
C960 C963 1.539 . S
C961 C957 1.408 . S
C961 C960 1.404 . S
C961 H973 0.930 . S
C962 C958 1.524 . S
C962 H974 0.956 . S
C962 H975 0.961 . S
C962 H976 0.961 . S
C963 C960 1.539 . S
C963 H977 0.958 . S
C963 H978 0.961 . S
C963 H979 0.960 . S
H964 C948 0.931 . S
H965 C953 0.929 . S
H966 C954 0.960 . S
H967 C954 0.962 . S
H968 C954 0.960 . S
H969 C955 0.961 . S
H970 C955 0.961 . S
H971 C955 0.961 . S
H972 C956 0.931 . S
H973 C961 0.930 . S
H974 C962 0.956 . S
H975 C962 0.961 . S
H976 C962 0.961 . S
H977 C963 0.958 . S
H978 C963 0.961 . S
H979 C963 0.960 . S
C980 C981 1.391 . S
C980 C982 1.394 . S
C980 H996 0.931 . S
C981 C980 1.391 . S
C981 C985 1.376 . S
C982 C980 1.394 . S
C982 C983 1.369 . S
C982 C986 1.531 . S
C983 C982 1.369 . S
C983 C984 1.410 . S
C983 C991 1.503 . S
C984 C983 1.410 . S
C984 C985 1.392 . S
C984 C987 1.511 . S
C985 C981 1.376 . S
C985 C984 1.392 . S
C985 H997 0.929 . S
C986 C982 1.531 . S
C986 H998 0.960 . S
C986 H999 0.962 . S
C986 H1000 0.960 . S
C987 C984 1.511 . S
C987 H1001 0.961 . S
C987 H1002 0.961 . S
C987 H1003 0.961 . S
C988 C989 1.370 . S
C988 C990 1.363 . S
C988 H1004 0.931 . S
C989 C988 1.370 . S
C989 C993 1.408 . S
C990 C988 1.363 . S
C990 C991 1.370 . S
C990 C994 1.524 . S
C991 C983 1.503 . S
C991 C990 1.370 . S
C991 C992 1.403 . S
C992 C991 1.403 . S
C992 C993 1.404 . S
C992 C995 1.539 . S
C993 C989 1.408 . S
C993 C992 1.404 . S
C993 H1005 0.930 . S
C994 C990 1.524 . S
C994 H1006 0.956 . S
C994 H1007 0.961 . S
C994 H1008 0.961 . S
C995 C992 1.539 . S
C995 H1009 0.958 . S
C995 H1010 0.961 . S
C995 H1011 0.960 . S
H996 C980 0.931 . S
H997 C985 0.929 . S
H998 C986 0.960 . S
H999 C986 0.962 . S
H1000 C986 0.960 . S
H1001 C987 0.961 . S
H1002 C987 0.961 . S
H1003 C987 0.961 . S
H1004 C988 0.931 . S
H1005 C993 0.930 . S
H1006 C994 0.956 . S
H1007 C994 0.961 . S
H1008 C994 0.961 . S
H1009 C995 0.958 . S
H1010 C995 0.961 . S
H1011 C995 0.960 . S
C1012 C1013 1.391 . S
C1012 C1014 1.394 . S
C1012 H1028 0.931 . S
C1013 C1012 1.391 . S
C1013 C1017 1.376 . S
C1014 C1012 1.394 . S
C1014 C1015 1.369 . S
C1014 C1018 1.531 . S
C1015 C1014 1.369 . S
C1015 C1016 1.410 . S
C1015 C1023 1.503 . S
C1016 C1015 1.410 . S
C1016 C1017 1.392 . S
C1016 C1019 1.511 . S
C1017 C1013 1.376 . S
C1017 C1016 1.392 . S
C1017 H1029 0.929 . S
C1018 C1014 1.531 . S
C1018 H1030 0.960 . S
C1018 H1031 0.962 . S
C1018 H1032 0.960 . S
C1019 C1016 1.511 . S
C1019 H1033 0.961 . S
C1019 H1034 0.961 . S
C1019 H1035 0.961 . S
C1020 C1021 1.370 . S
C1020 C1022 1.363 . S
C1020 H1036 0.931 . S
C1021 C1020 1.370 . S
C1021 C1025 1.408 . S
C1022 C1020 1.363 . S
C1022 C1023 1.370 . S
C1022 C1026 1.524 . S
C1023 C1015 1.503 . S
C1023 C1022 1.370 . S
C1023 C1024 1.403 . S
C1024 C1023 1.403 . S
C1024 C1025 1.404 . S
C1024 C1027 1.539 . S
C1025 C1021 1.408 . S
C1025 C1024 1.404 . S
C1025 H1037 0.930 . S
C1026 C1022 1.524 . S
C1026 H1038 0.956 . S
C1026 H1039 0.961 . S
C1026 H1040 0.961 . S
C1027 C1024 1.539 . S
C1027 H1041 0.958 . S
C1027 H1042 0.961 . S
C1027 H1043 0.960 . S
H1028 C1012 0.931 . S
H1029 C1017 0.929 . S
H1030 C1018 0.960 . S
H1031 C1018 0.962 . S
H1032 C1018 0.960 . S
H1033 C1019 0.961 . S
H1034 C1019 0.961 . S
H1035 C1019 0.961 . S
H1036 C1020 0.931 . S
H1037 C1025 0.930 . S
H1038 C1026 0.956 . S
H1039 C1026 0.961 . S
H1040 C1026 0.961 . S
H1041 C1027 0.958 . S
H1042 C1027 0.961 . S
H1043 C1027 0.960 . S
C1044 C1045 1.391 . S
C1044 C1046 1.394 . S
C1044 H1060 0.931 . S
C1045 C1044 1.391 . S
C1045 C1049 1.376 . S
C1046 C1044 1.394 . S
C1046 C1047 1.369 . S
C1046 C1050 1.531 . S
C1047 C1046 1.369 . S
C1047 C1048 1.410 . S
C1047 C1055 1.503 . S
C1048 C1047 1.410 . S
C1048 C1049 1.392 . S
C1048 C1051 1.511 . S
C1049 C1045 1.376 . S
C1049 C1048 1.392 . S
C1049 H1061 0.929 . S
C1050 C1046 1.531 . S
C1050 H1062 0.960 . S
C1050 H1063 0.962 . S
C1050 H1064 0.960 . S
C1051 C1048 1.511 . S
C1051 H1065 0.961 . S
C1051 H1066 0.961 . S
C1051 H1067 0.961 . S
C1052 C1053 1.370 . S
C1052 C1054 1.363 . S
C1052 H1068 0.931 . S
C1053 C1052 1.370 . S
C1053 C1057 1.408 . S
C1054 C1052 1.363 . S
C1054 C1055 1.370 . S
C1054 C1058 1.524 . S
C1055 C1047 1.503 . S
C1055 C1054 1.370 . S
C1055 C1056 1.403 . S
C1056 C1055 1.403 . S
C1056 C1057 1.404 . S
C1056 C1059 1.539 . S
C1057 C1053 1.408 . S
C1057 C1056 1.404 . S
C1057 H1069 0.930 . S
C1058 C1054 1.524 . S
C1058 H1070 0.956 . S
C1058 H1071 0.961 . S
C1058 H1072 0.961 . S
C1059 C1056 1.539 . S
C1059 H1073 0.958 . S
C1059 H1074 0.961 . S
C1059 H1075 0.960 . S
H1060 C1044 0.931 . S
H1061 C1049 0.929 . S
H1062 C1050 0.960 . S
H1063 C1050 0.962 . S
H1064 C1050 0.960 . S
H1065 C1051 0.961 . S
H1066 C1051 0.961 . S
H1067 C1051 0.961 . S
H1068 C1052 0.931 . S
H1069 C1057 0.930 . S
H1070 C1058 0.956 . S
H1071 C1058 0.961 . S
H1072 C1058 0.961 . S
H1073 C1059 0.958 . S
H1074 C1059 0.961 . S
H1075 C1059 0.960 . S
C1076 C1077 1.391 . S
C1076 C1078 1.394 . S
C1076 H1092 0.931 . S
C1077 C1076 1.391 . S
C1077 C1081 1.376 . S
C1078 C1076 1.394 . S
C1078 C1079 1.369 . S
C1078 C1082 1.531 . S
C1079 C1078 1.369 . S
C1079 C1080 1.410 . S
C1079 C1087 1.503 . S
C1080 C1079 1.410 . S
C1080 C1081 1.392 . S
C1080 C1083 1.511 . S
C1081 C1077 1.376 . S
C1081 C1080 1.392 . S
C1081 H1093 0.929 . S
C1082 C1078 1.531 . S
C1082 H1094 0.960 . S
C1082 H1095 0.962 . S
C1082 H1096 0.960 . S
C1083 C1080 1.511 . S
C1083 H1097 0.961 . S
C1083 H1098 0.961 . S
C1083 H1099 0.961 . S
C1084 C1085 1.370 . S
C1084 C1086 1.363 . S
C1084 H1100 0.931 . S
C1085 C1084 1.370 . S
C1085 C1089 1.408 . S
C1086 C1084 1.363 . S
C1086 C1087 1.370 . S
C1086 C1090 1.524 . S
C1087 C1079 1.503 . S
C1087 C1086 1.370 . S
C1087 C1088 1.403 . S
C1088 C1087 1.403 . S
C1088 C1089 1.404 . S
C1088 C1091 1.539 . S
C1089 C1085 1.408 . S
C1089 C1088 1.404 . S
C1089 H1101 0.930 . S
C1090 C1086 1.524 . S
C1090 H1102 0.956 . S
C1090 H1103 0.961 . S
C1090 H1104 0.961 . S
C1091 C1088 1.539 . S
C1091 H1105 0.958 . S
C1091 H1106 0.961 . S
C1091 H1107 0.960 . S
H1092 C1076 0.931 . S
H1093 C1081 0.929 . S
H1094 C1082 0.960 . S
H1095 C1082 0.962 . S
H1096 C1082 0.960 . S
H1097 C1083 0.961 . S
H1098 C1083 0.961 . S
H1099 C1083 0.961 . S
H1100 C1084 0.931 . S
H1101 C1089 0.930 . S
H1102 C1090 0.956 . S
H1103 C1090 0.961 . S
H1104 C1090 0.961 . S
H1105 C1091 0.958 . S
H1106 C1091 0.961 . S
H1107 C1091 0.960 . S
C1108 C1109 1.391 . S
C1108 C1110 1.394 . S
C1108 H1124 0.931 . S
C1109 C1108 1.391 . S
C1109 C1113 1.376 . S
C1110 C1108 1.394 . S
C1110 C1111 1.369 . S
C1110 C1114 1.531 . S
C1111 C1110 1.369 . S
C1111 C1112 1.410 . S
C1111 C1119 1.503 . S
C1112 C1111 1.410 . S
C1112 C1113 1.392 . S
C1112 C1115 1.511 . S
C1113 C1109 1.376 . S
C1113 C1112 1.392 . S
C1113 H1125 0.929 . S
C1114 C1110 1.531 . S
C1114 H1126 0.960 . S
C1114 H1127 0.962 . S
C1114 H1128 0.960 . S
C1115 C1112 1.511 . S
C1115 H1129 0.961 . S
C1115 H1130 0.961 . S
C1115 H1131 0.961 . S
C1116 C1117 1.370 . S
C1116 C1118 1.363 . S
C1116 H1132 0.931 . S
C1117 C1116 1.370 . S
C1117 C1121 1.408 . S
C1118 C1116 1.363 . S
C1118 C1119 1.370 . S
C1118 C1122 1.524 . S
C1119 C1111 1.503 . S
C1119 C1118 1.370 . S
C1119 C1120 1.403 . S
C1120 C1119 1.403 . S
C1120 C1121 1.404 . S
C1120 C1123 1.539 . S
C1121 C1117 1.408 . S
C1121 C1120 1.404 . S
C1121 H1133 0.930 . S
C1122 C1118 1.524 . S
C1122 H1134 0.956 . S
C1122 H1135 0.961 . S
C1122 H1136 0.961 . S
C1123 C1120 1.539 . S
C1123 H1137 0.958 . S
C1123 H1138 0.961 . S
C1123 H1139 0.960 . S
H1124 C1108 0.931 . S
H1125 C1113 0.929 . S
H1126 C1114 0.960 . S
H1127 C1114 0.962 . S
H1128 C1114 0.960 . S
H1129 C1115 0.961 . S
H1130 C1115 0.961 . S
H1131 C1115 0.961 . S
H1132 C1116 0.931 . S
H1133 C1121 0.930 . S
H1134 C1122 0.956 . S
H1135 C1122 0.961 . S
H1136 C1122 0.961 . S
H1137 C1123 0.958 . S
H1138 C1123 0.961 . S
H1139 C1123 0.960 . S
C1140 C1141 1.391 . S
C1140 C1142 1.394 . S
C1140 H1156 0.931 . S
C1141 C1140 1.391 . S
C1141 C1145 1.376 . S
C1142 C1140 1.394 . S
C1142 C1143 1.369 . S
C1142 C1146 1.531 . S
C1143 C1142 1.369 . S
C1143 C1144 1.410 . S
C1143 C1151 1.503 . S
C1144 C1143 1.410 . S
C1144 C1145 1.392 . S
C1144 C1147 1.511 . S
C1145 C1141 1.376 . S
C1145 C1144 1.392 . S
C1145 H1157 0.929 . S
C1146 C1142 1.531 . S
C1146 H1158 0.960 . S
C1146 H1159 0.962 . S
C1146 H1160 0.960 . S
C1147 C1144 1.511 . S
C1147 H1161 0.961 . S
C1147 H1162 0.961 . S
C1147 H1163 0.961 . S
C1148 C1149 1.370 . S
C1148 C1150 1.363 . S
C1148 H1164 0.931 . S
C1149 C1148 1.370 . S
C1149 C1153 1.408 . S
C1150 C1148 1.363 . S
C1150 C1151 1.370 . S
C1150 C1154 1.524 . S
C1151 C1143 1.503 . S
C1151 C1150 1.370 . S
C1151 C1152 1.403 . S
C1152 C1151 1.403 . S
C1152 C1153 1.404 . S
C1152 C1155 1.539 . S
C1153 C1149 1.408 . S
C1153 C1152 1.404 . S
C1153 H1165 0.930 . S
C1154 C1150 1.524 . S
C1154 H1166 0.956 . S
C1154 H1167 0.961 . S
C1154 H1168 0.961 . S
C1155 C1152 1.539 . S
C1155 H1169 0.958 . S
C1155 H1170 0.961 . S
C1155 H1171 0.960 . S
H1156 C1140 0.931 . S
H1157 C1145 0.929 . S
H1158 C1146 0.960 . S
H1159 C1146 0.962 . S
H1160 C1146 0.960 . S
H1161 C1147 0.961 . S
H1162 C1147 0.961 . S
H1163 C1147 0.961 . S
H1164 C1148 0.931 . S
H1165 C1153 0.930 . S
H1166 C1154 0.956 . S
H1167 C1154 0.961 . S
H1168 C1154 0.961 . S
H1169 C1155 0.958 . S
H1170 C1155 0.961 . S
H1171 C1155 0.960 . S
C1172 C1173 1.391 . S
C1172 C1174 1.394 . S
C1172 H1188 0.931 . S
C1173 C1172 1.391 . S
C1173 C1177 1.376 . S
C1174 C1172 1.394 . S
C1174 C1175 1.369 . S
C1174 C1178 1.531 . S
C1175 C1174 1.369 . S
C1175 C1176 1.410 . S
C1175 C1183 1.503 . S
C1176 C1175 1.410 . S
C1176 C1177 1.392 . S
C1176 C1179 1.511 . S
C1177 C1173 1.376 . S
C1177 C1176 1.392 . S
C1177 H1189 0.929 . S
C1178 C1174 1.531 . S
C1178 H1190 0.960 . S
C1178 H1191 0.962 . S
C1178 H1192 0.960 . S
C1179 C1176 1.511 . S
C1179 H1193 0.961 . S
C1179 H1194 0.961 . S
C1179 H1195 0.961 . S
C1180 C1181 1.370 . S
C1180 C1182 1.363 . S
C1180 H1196 0.931 . S
C1181 C1180 1.370 . S
C1181 C1185 1.408 . S
C1182 C1180 1.363 . S
C1182 C1183 1.370 . S
C1182 C1186 1.524 . S
C1183 C1175 1.503 . S
C1183 C1182 1.370 . S
C1183 C1184 1.403 . S
C1184 C1183 1.403 . S
C1184 C1185 1.404 . S
C1184 C1187 1.539 . S
C1185 C1181 1.408 . S
C1185 C1184 1.404 . S
C1185 H1197 0.930 . S
C1186 C1182 1.524 . S
C1186 H1198 0.956 . S
C1186 H1199 0.961 . S
C1186 H1200 0.961 . S
C1187 C1184 1.539 . S
C1187 H1201 0.958 . S
C1187 H1202 0.961 . S
C1187 H1203 0.960 . S
H1188 C1172 0.931 . S
H1189 C1177 0.929 . S
H1190 C1178 0.960 . S
H1191 C1178 0.962 . S
H1192 C1178 0.960 . S
H1193 C1179 0.961 . S
H1194 C1179 0.961 . S
H1195 C1179 0.961 . S
H1196 C1180 0.931 . S
H1197 C1185 0.930 . S
H1198 C1186 0.956 . S
H1199 C1186 0.961 . S
H1200 C1186 0.961 . S
H1201 C1187 0.958 . S
H1202 C1187 0.961 . S
H1203 C1187 0.960 . S
C1204 C1205 1.391 . S
C1204 C1206 1.394 . S
C1204 H1220 0.931 . S
C1205 C1204 1.391 . S
C1205 C1209 1.376 . S
C1206 C1204 1.394 . S
C1206 C1207 1.369 . S
C1206 C1210 1.531 . S
C1207 C1206 1.369 . S
C1207 C1208 1.410 . S
C1207 C1215 1.503 . S
C1208 C1207 1.410 . S
C1208 C1209 1.392 . S
C1208 C1211 1.511 . S
C1209 C1205 1.376 . S
C1209 C1208 1.392 . S
C1209 H1221 0.929 . S
C1210 C1206 1.531 . S
C1210 H1222 0.960 . S
C1210 H1223 0.962 . S
C1210 H1224 0.960 . S
C1211 C1208 1.511 . S
C1211 H1225 0.961 . S
C1211 H1226 0.961 . S
C1211 H1227 0.961 . S
C1212 C1213 1.370 . S
C1212 C1214 1.363 . S
C1212 H1228 0.931 . S
C1213 C1212 1.370 . S
C1213 C1217 1.408 . S
C1214 C1212 1.363 . S
C1214 C1215 1.370 . S
C1214 C1218 1.524 . S
C1215 C1207 1.503 . S
C1215 C1214 1.370 . S
C1215 C1216 1.403 . S
C1216 C1215 1.403 . S
C1216 C1217 1.404 . S
C1216 C1219 1.539 . S
C1217 C1213 1.408 . S
C1217 C1216 1.404 . S
C1217 H1229 0.930 . S
C1218 C1214 1.524 . S
C1218 H1230 0.956 . S
C1218 H1231 0.961 . S
C1218 H1232 0.961 . S
C1219 C1216 1.539 . S
C1219 H1233 0.958 . S
C1219 H1234 0.961 . S
C1219 H1235 0.960 . S
H1220 C1204 0.931 . S
H1221 C1209 0.929 . S
H1222 C1210 0.960 . S
H1223 C1210 0.962 . S
H1224 C1210 0.960 . S
H1225 C1211 0.961 . S
H1226 C1211 0.961 . S
H1227 C1211 0.961 . S
H1228 C1212 0.931 . S
H1229 C1217 0.930 . S
H1230 C1218 0.956 . S
H1231 C1218 0.961 . S
H1232 C1218 0.961 . S
H1233 C1219 0.958 . S
H1234 C1219 0.961 . S
H1235 C1219 0.960 . S
C1236 C1237 1.391 . S
C1236 C1238 1.394 . S
C1236 H1252 0.931 . S
C1237 C1236 1.391 . S
C1237 C1241 1.376 . S
C1238 C1236 1.394 . S
C1238 C1239 1.369 . S
C1238 C1242 1.531 . S
C1239 C1238 1.369 . S
C1239 C1240 1.410 . S
C1239 C1247 1.503 . S
C1240 C1239 1.410 . S
C1240 C1241 1.392 . S
C1240 C1243 1.511 . S
C1241 C1237 1.376 . S
C1241 C1240 1.392 . S
C1241 H1253 0.929 . S
C1242 C1238 1.531 . S
C1242 H1254 0.960 . S
C1242 H1255 0.962 . S
C1242 H1256 0.960 . S
C1243 C1240 1.511 . S
C1243 H1257 0.961 . S
C1243 H1258 0.961 . S
C1243 H1259 0.961 . S
C1244 C1245 1.370 . S
C1244 C1246 1.363 . S
C1244 H1260 0.931 . S
C1245 C1244 1.370 . S
C1245 C1249 1.408 . S
C1246 C1244 1.363 . S
C1246 C1247 1.370 . S
C1246 C1250 1.524 . S
C1247 C1239 1.503 . S
C1247 C1246 1.370 . S
C1247 C1248 1.403 . S
C1248 C1247 1.403 . S
C1248 C1249 1.404 . S
C1248 C1251 1.539 . S
C1249 C1245 1.408 . S
C1249 C1248 1.404 . S
C1249 H1261 0.930 . S
C1250 C1246 1.524 . S
C1250 H1262 0.956 . S
C1250 H1263 0.961 . S
C1250 H1264 0.961 . S
C1251 C1248 1.539 . S
C1251 H1265 0.958 . S
C1251 H1266 0.961 . S
C1251 H1267 0.960 . S
H1252 C1236 0.931 . S
H1253 C1241 0.929 . S
H1254 C1242 0.960 . S
H1255 C1242 0.962 . S
H1256 C1242 0.960 . S
H1257 C1243 0.961 . S
H1258 C1243 0.961 . S
H1259 C1243 0.961 . S
H1260 C1244 0.931 . S
H1261 C1249 0.930 . S
H1262 C1250 0.956 . S
H1263 C1250 0.961 . S
H1264 C1250 0.961 . S
H1265 C1251 0.958 . S
H1266 C1251 0.961 . S
H1267 C1251 0.960 . S
C1268 C1269 1.391 . S
C1268 C1270 1.394 . S
C1268 H1284 0.931 . S
C1269 C1268 1.391 . S
C1269 C1273 1.376 . S
C1270 C1268 1.394 . S
C1270 C1271 1.369 . S
C1270 C1274 1.531 . S
C1271 C1270 1.369 . S
C1271 C1272 1.410 . S
C1271 C1279 1.503 . S
C1272 C1271 1.410 . S
C1272 C1273 1.392 . S
C1272 C1275 1.511 . S
C1273 C1269 1.376 . S
C1273 C1272 1.392 . S
C1273 H1285 0.929 . S
C1274 C1270 1.531 . S
C1274 H1286 0.960 . S
C1274 H1287 0.962 . S
C1274 H1288 0.960 . S
C1275 C1272 1.511 . S
C1275 H1289 0.961 . S
C1275 H1290 0.961 . S
C1275 H1291 0.961 . S
C1276 C1277 1.370 . S
C1276 C1278 1.363 . S
C1276 H1292 0.931 . S
C1277 C1276 1.370 . S
C1277 C1281 1.408 . S
C1278 C1276 1.363 . S
C1278 C1279 1.370 . S
C1278 C1282 1.524 . S
C1279 C1271 1.503 . S
C1279 C1278 1.370 . S
C1279 C1280 1.403 . S
C1280 C1279 1.403 . S
C1280 C1281 1.404 . S
C1280 C1283 1.539 . S
C1281 C1277 1.408 . S
C1281 C1280 1.404 . S
C1281 H1293 0.930 . S
C1282 C1278 1.524 . S
C1282 H1294 0.956 . S
C1282 H1295 0.961 . S
C1282 H1296 0.961 . S
C1283 C1280 1.539 . S
C1283 H1297 0.958 . S
C1283 H1298 0.961 . S
C1283 H1299 0.960 . S
H1284 C1268 0.931 . S
H1285 C1273 0.929 . S
H1286 C1274 0.960 . S
H1287 C1274 0.962 . S
H1288 C1274 0.960 . S
H1289 C1275 0.961 . S
H1290 C1275 0.961 . S
H1291 C1275 0.961 . S
H1292 C1276 0.931 . S
H1293 C1281 0.930 . S
H1294 C1282 0.956 . S
H1295 C1282 0.961 . S
H1296 C1282 0.961 . S
H1297 C1283 0.958 . S
H1298 C1283 0.961 . S
H1299 C1283 0.960 . S
C1300 C1301 1.391 . S
C1300 C1302 1.394 . S
C1300 H1316 0.931 . S
C1301 C1300 1.391 . S
C1301 C1305 1.376 . S
C1302 C1300 1.394 . S
C1302 C1303 1.369 . S
C1302 C1306 1.531 . S
C1303 C1302 1.369 . S
C1303 C1304 1.410 . S
C1303 C1311 1.503 . S
C1304 C1303 1.410 . S
C1304 C1305 1.392 . S
C1304 C1307 1.511 . S
C1305 C1301 1.376 . S
C1305 C1304 1.392 . S
C1305 H1317 0.929 . S
C1306 C1302 1.531 . S
C1306 H1318 0.960 . S
C1306 H1319 0.962 . S
C1306 H1320 0.960 . S
C1307 C1304 1.511 . S
C1307 H1321 0.961 . S
C1307 H1322 0.961 . S
C1307 H1323 0.961 . S
C1308 C1309 1.370 . S
C1308 C1310 1.363 . S
C1308 H1324 0.931 . S
C1309 C1308 1.370 . S
C1309 C1313 1.408 . S
C1310 C1308 1.363 . S
C1310 C1311 1.370 . S
C1310 C1314 1.524 . S
C1311 C1303 1.503 . S
C1311 C1310 1.370 . S
C1311 C1312 1.403 . S
C1312 C1311 1.403 . S
C1312 C1313 1.404 . S
C1312 C1315 1.539 . S
C1313 C1309 1.408 . S
C1313 C1312 1.404 . S
C1313 H1325 0.930 . S
C1314 C1310 1.524 . S
C1314 H1326 0.956 . S
C1314 H1327 0.961 . S
C1314 H1328 0.961 . S
C1315 C1312 1.539 . S
C1315 H1329 0.958 . S
C1315 H1330 0.961 . S
C1315 H1331 0.960 . S
H1316 C1300 0.931 . S
H1317 C1305 0.929 . S
H1318 C1306 0.960 . S
H1319 C1306 0.962 . S
H1320 C1306 0.960 . S
H1321 C1307 0.961 . S
H1322 C1307 0.961 . S
H1323 C1307 0.961 . S
H1324 C1308 0.931 . S
H1325 C1313 0.930 . S
H1326 C1314 0.956 . S
H1327 C1314 0.961 . S
H1328 C1314 0.961 . S
H1329 C1315 0.958 . S
H1330 C1315 0.961 . S
H1331 C1315 0.960 . S
C1332 C1333 1.391 . S
C1332 C1334 1.394 . S
C1332 H1348 0.931 . S
C1333 C1332 1.391 . S
C1333 C1337 1.376 . S
C1334 C1332 1.394 . S
C1334 C1335 1.369 . S
C1334 C1338 1.531 . S
C1335 C1334 1.369 . S
C1335 C1336 1.410 . S
C1335 C1343 1.503 . S
C1336 C1335 1.410 . S
C1336 C1337 1.392 . S
C1336 C1339 1.511 . S
C1337 C1333 1.376 . S
C1337 C1336 1.392 . S
C1337 H1349 0.929 . S
C1338 C1334 1.531 . S
C1338 H1350 0.960 . S
C1338 H1351 0.962 . S
C1338 H1352 0.960 . S
C1339 C1336 1.511 . S
C1339 H1353 0.961 . S
C1339 H1354 0.961 . S
C1339 H1355 0.961 . S
C1340 C1341 1.370 . S
C1340 C1342 1.363 . S
C1340 H1356 0.931 . S
C1341 C1340 1.370 . S
C1341 C1345 1.408 . S
C1342 C1340 1.363 . S
C1342 C1343 1.370 . S
C1342 C1346 1.524 . S
C1343 C1335 1.503 . S
C1343 C1342 1.370 . S
C1343 C1344 1.403 . S
C1344 C1343 1.403 . S
C1344 C1345 1.404 . S
C1344 C1347 1.539 . S
C1345 C1341 1.408 . S
C1345 C1344 1.404 . S
C1345 H1357 0.930 . S
C1346 C1342 1.524 . S
C1346 H1358 0.956 . S
C1346 H1359 0.961 . S
C1346 H1360 0.961 . S
C1347 C1344 1.539 . S
C1347 H1361 0.958 . S
C1347 H1362 0.961 . S
C1347 H1363 0.960 . S
H1348 C1332 0.931 . S
H1349 C1337 0.929 . S
H1350 C1338 0.960 . S
H1351 C1338 0.962 . S
H1352 C1338 0.960 . S
H1353 C1339 0.961 . S
H1354 C1339 0.961 . S
H1355 C1339 0.961 . S
H1356 C1340 0.931 . S
H1357 C1345 0.930 . S
H1358 C1346 0.956 . S
H1359 C1346 0.961 . S
H1360 C1346 0.961 . S
H1361 C1347 0.958 . S
H1362 C1347 0.961 . S
H1363 C1347 0.960 . S
C1364 C1365 1.391 . S
C1364 C1366 1.394 . S
C1364 H1380 0.931 . S
C1365 C1364 1.391 . S
C1365 C1369 1.376 . S
C1366 C1364 1.394 . S
C1366 C1367 1.369 . S
C1366 C1370 1.531 . S
C1367 C1366 1.369 . S
C1367 C1368 1.410 . S
C1367 C1375 1.503 . S
C1368 C1367 1.410 . S
C1368 C1369 1.392 . S
C1368 C1371 1.511 . S
C1369 C1365 1.376 . S
C1369 C1368 1.392 . S
C1369 H1381 0.929 . S
C1370 C1366 1.531 . S
C1370 H1382 0.960 . S
C1370 H1383 0.962 . S
C1370 H1384 0.960 . S
C1371 C1368 1.511 . S
C1371 H1385 0.961 . S
C1371 H1386 0.961 . S
C1371 H1387 0.961 . S
C1372 C1373 1.370 . S
C1372 C1374 1.363 . S
C1372 H1388 0.931 . S
C1373 C1372 1.370 . S
C1373 C1377 1.408 . S
C1374 C1372 1.363 . S
C1374 C1375 1.370 . S
C1374 C1378 1.524 . S
C1375 C1367 1.503 . S
C1375 C1374 1.370 . S
C1375 C1376 1.403 . S
C1376 C1375 1.403 . S
C1376 C1377 1.404 . S
C1376 C1379 1.539 . S
C1377 C1373 1.408 . S
C1377 C1376 1.404 . S
C1377 H1389 0.930 . S
C1378 C1374 1.524 . S
C1378 H1390 0.956 . S
C1378 H1391 0.961 . S
C1378 H1392 0.961 . S
C1379 C1376 1.539 . S
C1379 H1393 0.958 . S
C1379 H1394 0.961 . S
C1379 H1395 0.960 . S
H1380 C1364 0.931 . S
H1381 C1369 0.929 . S
H1382 C1370 0.960 . S
H1383 C1370 0.962 . S
H1384 C1370 0.960 . S
H1385 C1371 0.961 . S
H1386 C1371 0.961 . S
H1387 C1371 0.961 . S
H1388 C1372 0.931 . S
H1389 C1377 0.930 . S
H1390 C1378 0.956 . S
H1391 C1378 0.961 . S
H1392 C1378 0.961 . S
H1393 C1379 0.958 . S
H1394 C1379 0.961 . S
H1395 C1379 0.960 . S
C1396 C1397 1.391 . S
C1396 C1398 1.394 . S
C1396 H1412 0.931 . S
C1397 C1396 1.391 . S
C1397 C1401 1.376 . S
C1398 C1396 1.394 . S
C1398 C1399 1.369 . S
C1398 C1402 1.531 . S
C1399 C1398 1.369 . S
C1399 C1400 1.410 . S
C1399 C1407 1.503 . S
C1400 C1399 1.410 . S
C1400 C1401 1.392 . S
C1400 C1403 1.511 . S
C1401 C1397 1.376 . S
C1401 C1400 1.392 . S
C1401 H1413 0.929 . S
C1402 C1398 1.531 . S
C1402 H1414 0.960 . S
C1402 H1415 0.962 . S
C1402 H1416 0.960 . S
C1403 C1400 1.511 . S
C1403 H1417 0.961 . S
C1403 H1418 0.961 . S
C1403 H1419 0.961 . S
C1404 C1405 1.370 . S
C1404 C1406 1.363 . S
C1404 H1420 0.931 . S
C1405 C1404 1.370 . S
C1405 C1409 1.408 . S
C1406 C1404 1.363 . S
C1406 C1407 1.370 . S
C1406 C1410 1.524 . S
C1407 C1399 1.503 . S
C1407 C1406 1.370 . S
C1407 C1408 1.403 . S
C1408 C1407 1.403 . S
C1408 C1409 1.404 . S
C1408 C1411 1.539 . S
C1409 C1405 1.408 . S
C1409 C1408 1.404 . S
C1409 H1421 0.930 . S
C1410 C1406 1.524 . S
C1410 H1422 0.956 . S
C1410 H1423 0.961 . S
C1410 H1424 0.961 . S
C1411 C1408 1.539 . S
C1411 H1425 0.958 . S
C1411 H1426 0.961 . S
C1411 H1427 0.960 . S
H1412 C1396 0.931 . S
H1413 C1401 0.929 . S
H1414 C1402 0.960 . S
H1415 C1402 0.962 . S
H1416 C1402 0.960 . S
H1417 C1403 0.961 . S
H1418 C1403 0.961 . S
H1419 C1403 0.961 . S
H1420 C1404 0.931 . S
H1421 C1409 0.930 . S
H1422 C1410 0.956 . S
H1423 C1410 0.961 . S
H1424 C1410 0.961 . S
H1425 C1411 0.958 . S
H1426 C1411 0.961 . S
H1427 C1411 0.960 . S
C1428 C1429 1.391 . S
C1428 C1430 1.394 . S
C1428 H1444 0.931 . S
C1429 C1428 1.391 . S
C1429 C1433 1.376 . S
C1430 C1428 1.394 . S
C1430 C1431 1.369 . S
C1430 C1434 1.531 . S
C1431 C1430 1.369 . S
C1431 C1432 1.410 . S
C1431 C1439 1.503 . S
C1432 C1431 1.410 . S
C1432 C1433 1.392 . S
C1432 C1435 1.511 . S
C1433 C1429 1.376 . S
C1433 C1432 1.392 . S
C1433 H1445 0.929 . S
C1434 C1430 1.531 . S
C1434 H1446 0.960 . S
C1434 H1447 0.962 . S
C1434 H1448 0.960 . S
C1435 C1432 1.511 . S
C1435 H1449 0.961 . S
C1435 H1450 0.961 . S
C1435 H1451 0.961 . S
C1436 C1437 1.370 . S
C1436 C1438 1.363 . S
C1436 H1452 0.931 . S
C1437 C1436 1.370 . S
C1437 C1441 1.408 . S
C1438 C1436 1.363 . S
C1438 C1439 1.370 . S
C1438 C1442 1.524 . S
C1439 C1431 1.503 . S
C1439 C1438 1.370 . S
C1439 C1440 1.403 . S
C1440 C1439 1.403 . S
C1440 C1441 1.404 . S
C1440 C1443 1.539 . S
C1441 C1437 1.408 . S
C1441 C1440 1.404 . S
C1441 H1453 0.930 . S
C1442 C1438 1.524 . S
C1442 H1454 0.956 . S
C1442 H1455 0.961 . S
C1442 H1456 0.961 . S
C1443 C1440 1.539 . S
C1443 H1457 0.958 . S
C1443 H1458 0.961 . S
C1443 H1459 0.960 . S
H1444 C1428 0.931 . S
H1445 C1433 0.929 . S
H1446 C1434 0.960 . S
H1447 C1434 0.962 . S
H1448 C1434 0.960 . S
H1449 C1435 0.961 . S
H1450 C1435 0.961 . S
H1451 C1435 0.961 . S
H1452 C1436 0.931 . S
H1453 C1441 0.930 . S
H1454 C1442 0.956 . S
H1455 C1442 0.961 . S
H1456 C1442 0.961 . S
H1457 C1443 0.958 . S
H1458 C1443 0.961 . S
H1459 C1443 0.960 . S
C701 C355 1.503 . S
C693 C15 1.519 . S
C733 C435 1.666 . S
C725 C55 1.708 . S
C765 C367 1.625 . S
C757 C101 1.707 . S
C797 C411 1.790 . S
C789 C141 1.983 . S
C829 C479 1.446 . S
C821 C2 1.429 . S
C861 C559 1.485 . S
C853 C61 1.474 . S
C885 C95 1.832 . S
C893 C621 1.748 . S
C925 C677 1.495 . S
C917 C135 1.622 . S
C957 C491 1.537 . S
C949 C42 1.615 . S
C981 C82 1.578 . S
C989 C535 1.510 . S
C1021 C597 1.836 . S
C1013 C122 2.030 . S
C1053 C665 1.476 . S
C1045 C21 1.505 . S
C1077 C162 1.967 . S
C1085 C429 1.801 . S
C1117 C349 1.610 . S
C1109 C221 1.712 . S
C1141 C255 1.726 . S
C1149 C417 1.664 . S
C1173 C282 1.454 . S
C1181 C373 1.496 . S
C1213 C615 1.847 . S
C1205 C181 2.050 . S
C1245 C659 1.510 . S
C1237 C202 1.620 . S
C1277 C473 1.545 . S
C1269 C242 1.668 . S
C1301 C301 1.477 . S
C1309 C541 1.477 . S
C1341 C603 1.743 . S
C1333 C215 1.828 . S
C1373 C683 1.476 . S
C1365 C261 1.510 . S
C1405 C497 1.430 . S
C1397 C295 1.472 . S
C1429 C175 1.619 . S
C1437 C553 1.489 . S
