# Generated by pormake.
# Topology sit, (3,6)-cn, num edge types: 1
# Building blocks:
#     Node 0, Type 0, BuildingBlock: VETTIZ_charged_linker_0, # of connection points: 3
#     Node 1, Type 0, BuildingBlock: VETTIZ_charged_linker_0, # of connection points: 3
#     Node 2, Type 0, BuildingBlock: VETTIZ_charged_linker_0, # of connection points: 3
#     Node 3, Type 0, BuildingBlock: VETTIZ_charged_linker_0, # of connection points: 3
#     Node 4, Type 1, BuildingBlock: MIDCAF_clean_sbu_0, # of connection points: 6
#     Node 5, Type 1, BuildingBlock: MIDCAF_clean_sbu_0, # of connection points: 6
#     Edge 6, Type (0, 1), BuildingBlock: UVAHIK_clean_linker_0, # of connection points: 2
#     Edge 7, Type (0, 1), BuildingBlock: UVAHIK_clean_linker_0, # of connection points: 2
#     Edge 8, Type (0, 1), BuildingBlock: UVAHIK_clean_linker_0, # of connection points: 2
#     Edge 9, Type (0, 1), BuildingBlock: UVAHIK_clean_linker_0, # of connection points: 2
#     Edge 10, Type (0, 1), BuildingBlock: UVAHIK_clean_linker_0, # of connection points: 2
#     Edge 11, Type (0, 1), BuildingBlock: UVAHIK_clean_linker_0, # of connection points: 2
#     Edge 12, Type (0, 1), BuildingBlock: UVAHIK_clean_linker_0, # of connection points: 2
#     Edge 13, Type (0, 1), BuildingBlock: UVAHIK_clean_linker_0, # of connection points: 2
#     Edge 14, Type (0, 1), BuildingBlock: UVAHIK_clean_linker_0, # of connection points: 2
#     Edge 15, Type (0, 1), BuildingBlock: UVAHIK_clean_linker_0, # of connection points: 2
#     Edge 16, Type (0, 1), BuildingBlock: UVAHIK_clean_linker_0, # of connection points: 2
#     Edge 17, Type (0, 1), BuildingBlock: UVAHIK_clean_linker_0, # of connection points: 2
# Relax obj value: 0.113
# Max RMSD: 0.194
# Mean RMSD: 0.109
data_MOF--net-sit--node1-MIDCAF_clean_sbu_0--node2-VETTIZ_charged_linker_0--edge1-UVAHIK_clean_linker_0
_symmetry_space_group_name_H-M    P1
_symmetry_Int_Tables_number       1
_symmetry_cell_setting            triclinic
loop_
_symmetry_equiv_pos_as_xyz
'x, y, z'
_cell_length_a     36.110712
_cell_length_b     47.880792
_cell_length_c     54.778151
_cell_angle_alpha  89.868613
_cell_angle_beta   89.408767
_cell_angle_gamma 81.411768
loop_
_atom_site_label
_atom_site_type_symbol
_atom_site_fract_x
_atom_site_fract_y
_atom_site_fract_z
_atom_type_partial_charge
C0 C 0.05972 0.22719 0.06297 0.0
C1 C 0.09089 0.21021 0.07321 0.0
C2 C 0.12714 0.2144 0.06567 0.0
C3 C 0.10078 0.25254 0.0389 0.0
C4 C 0.06527 0.24808 0.04597 0.0
C5 C 0.03506 0.26828 0.03387 0.0
H6 H -0.01285 0.37699 0.95557 0.0
C7 C 0.09677 0.27618 0.02123 0.0
C8 C 0.05824 0.28533 0.01809 0.0
H9 H 0.91312 0.33448 -3e-05 0.0
H10 H 0.96642 0.30365 0.01634 0.0
H11 H 0.04697 0.38061 -0.00252 0.0
H12 H 0.04042 0.3232 0.93817 0.0
H13 H 0.08821 0.32549 0.94107 0.0
H14 H 0.05575 0.35678 0.93362 0.0
H15 H 0.05323 0.38973 0.96607 0.0
H16 H 0.09189 0.37371 -0.01567 0.0
C17 C 0.01276 0.28659 0.05397 0.0
C18 C 0.01113 0.25092 0.01832 0.0
C19 C 0.21185 0.31374 -0.01298 0.0
C20 C 0.21573 0.3346 0.96947 0.0
C21 C 0.1839 0.34841 0.95753 0.0
C22 C 0.1483 0.3422 0.9634 0.0
C23 C 0.14444 0.32187 -0.0186 0.0
C24 C 0.17588 0.30745 -0.00752 0.0
C25 C 0.16605 0.28528 0.01001 0.0
C26 C 0.1235 0.28976 0.00833 0.0
C27 C 0.11121 0.31148 -0.00823 0.0
C28 C 0.17929 0.29229 0.03576 0.0
C29 C 0.18378 0.25589 0.00029 0.0
C30 C -0.01763 0.36086 0.96866 0.0
C31 C 0.94595 0.35803 0.9764 0.0
C32 C 0.94099 0.33716 -0.00616 0.0
C33 C 0.97195 0.31923 0.00323 0.0
C34 C 0.00827 0.32239 -0.00475 0.0
C35 C 0.01288 0.34305 0.97832 0.0
C36 C 0.0533 0.34414 0.97241 0.0
C37 C 0.07238 0.32066 -0.01143 0.0
C38 C 0.04599 0.30786 0.0018 0.0
C39 C 0.06208 0.37355 -0.01975 0.0
C40 C 0.06 0.33727 0.9449 0.0
H41 H 0.16049 0.23785 0.04388 0.0
H42 H 0.03148 0.22438 0.06815 0.0
H43 H 0.02926 0.23341 0.00872 0.0
H44 H -0.00439 0.26346 0.00376 0.0
H45 H -0.00909 0.24141 0.02995 0.0
H46 H 0.03113 0.29017 0.06949 0.0
H47 H -0.01049 0.27619 0.06137 0.0
H48 H 0.00136 0.308 0.04754 0.0
H49 H 0.23617 0.3026 -0.00386 0.0
H50 H 0.1866 0.36445 0.9439 0.0
H51 H 0.12514 0.35375 0.95386 0.0
H52 H 0.17208 0.31529 0.03952 0.0
H53 H 0.21014 0.28657 0.03732 0.0
H54 H 0.16576 0.28162 0.0505 0.0
H55 H 0.18578 0.25581 -0.02 0.0
H56 H 0.16673 0.23917 0.00471 0.0
H57 H 0.21252 0.24969 0.00743 0.0
H58 H 0.15166 0.2019 0.07347 0.0
C59 C 0.13224 0.23544 0.0486 0.0
C60 C 0.12522 0.6658 -0.00194 0.0
C61 C 0.12699 0.64162 -0.01677 0.0
C62 C 0.0937 0.63105 0.97777 0.0
C63 C 0.0574 0.66967 -0.00021 0.0
C64 C 0.09007 0.67951 0.00607 0.0
C65 C 0.08236 0.70606 0.0212 0.0
H66 H 0.95713 0.80576 0.07746 0.0
C67 C 0.02551 0.68947 0.0096 0.0
C68 C 0.03969 0.71079 0.0223 0.0
H69 H 0.07822 0.79617 0.07753 0.0
H70 H 0.08163 0.75607 0.05103 0.0
H71 H 0.95233 0.79212 0.01732 0.0
H72 H 0.94904 0.73847 0.08084 0.0
H73 H 0.9123 0.73442 0.06069 0.0
H74 H 0.91325 0.76802 0.07506 0.0
H75 H 0.91355 0.79681 0.03847 0.0
H76 H 0.91658 0.7711 0.01426 0.0
C77 C 0.09777 0.73003 0.00709 0.0
C78 C 0.09986 0.69952 0.04668 0.0
C79 C 0.89534 0.67285 -0.01209 0.0
C80 C 0.85932 0.68789 -0.00852 0.0
C81 C 0.85512 0.71248 0.00609 0.0
C82 C 0.88668 0.72229 0.01614 0.0
C83 C 0.92274 0.70732 0.01152 0.0
C84 C 0.92622 0.68296 -0.00232 0.0
C85 C 0.96601 0.66982 -0.00634 0.0
C86 C -0.01363 0.69028 0.00721 0.0
C87 C 0.96123 0.71225 0.01787 0.0
C88 C 0.97425 0.66985 0.96575 0.0
C89 C 0.97152 0.64016 0.0058 0.0
C90 C -0.01568 0.79512 0.07158 0.0
C91 C 0.01748 0.80395 0.08009 0.0
C92 C 0.05227 0.78947 0.07188 0.0
C93 C 0.05424 0.76617 0.05635 0.0
C94 C 0.02111 0.75705 0.04865 0.0
C95 C -0.0132 0.77162 0.0559 0.0
C96 C 0.95468 0.75884 0.04529 0.0
C97 C 0.97551 0.73368 0.03137 0.0
C98 C 0.01451 0.73291 0.03343 0.0
C99 C 0.93279 0.78079 0.028 0.0
C100 C 0.93075 0.7495 0.06649 0.0
H101 H 0.03488 0.63584 -0.01923 0.0
H102 H 0.15039 0.6744 0.00256 0.0
H103 H 0.09876 0.67723 0.05207 0.0
H104 H 0.08454 0.71223 0.06141 0.0
H105 H 0.1297 0.7027 0.0468 0.0
H106 H 0.09334 0.72817 -0.01288 0.0
H107 H 0.12831 0.72918 0.01002 0.0
H108 H 0.08334 0.75129 0.01198 0.0
H109 H 0.89969 0.65349 0.97736 0.0
H110 H 0.82761 0.72446 0.00925 0.0
H111 H 0.88191 0.74123 0.02688 0.0
H112 H 0.95759 0.68835 0.95668 0.0
H113 H 0.9671 0.65051 0.95692 0.0
H114 H 0.00361 0.67189 0.96126 0.0
H115 H 0.95285 0.63967 0.02204 0.0
H116 H 9e-05 0.63394 0.01297 0.0
H117 H 0.96505 0.62373 -0.00709 0.0
H118 H 0.09443 0.61218 0.96678 0.0
C119 C 0.05906 0.64484 -0.01402 0.0
C120 C 0.57251 0.72253 0.56551 0.0
C121 C 0.60445 0.70906 0.57761 0.0
C122 C 0.63978 0.71615 0.57099 0.0
C123 C 0.61048 0.75082 0.54193 0.0
C124 C 0.57607 0.74329 0.54804 0.0
C125 C 0.54428 0.76076 0.535 0.0
H126 H 0.48489 0.86725 0.45715 0.0
C127 C 0.60407 0.77389 0.52369 0.0
C128 C 0.56523 0.77962 0.51956 0.0
H129 H 0.41695 0.81916 0.50128 0.0
H130 H 0.47286 0.79026 0.51617 0.0
H131 H 0.54164 0.87476 0.49908 0.0
H132 H 0.54352 0.8172 0.43915 0.0
H133 H 0.59049 0.82164 0.4429 0.0
H134 H 0.55612 0.85176 0.43523 0.0
H135 H 0.54715 0.88462 0.46778 0.0
H136 H 0.58677 0.87151 0.48634 0.0
C137 C 0.51845 0.77773 0.55434 0.0
C138 C 0.52456 0.74083 0.51909 0.0
C139 C 0.71135 0.8234 0.49215 0.0
C140 C 0.71204 0.8455 0.47512 0.0
C141 C 0.67941 0.85516 0.46184 0.0
C142 C 0.64618 0.84449 0.46635 0.0
C143 C 0.64514 0.82386 0.48441 0.0
C144 C 0.6775 0.81283 0.49643 0.0
C145 C 0.67071 0.78968 0.51399 0.0
C146 C 0.62869 0.78984 0.5112 0.0
C147 C 0.61409 0.81027 0.49408 0.0
C148 C 0.68075 0.79844 0.53997 0.0
C149 C 0.69368 0.76164 0.50501 0.0
C150 C 0.48189 0.85071 0.47022 0.0
C151 C 0.44636 0.84583 0.47827 0.0
C152 C 0.44394 0.82341 0.49472 0.0
C153 C 0.47648 0.80679 0.5035 0.0
C154 C 0.51183 0.81274 0.4959 0.0
C155 C 0.51392 0.83427 0.47938 0.0
C156 C 0.55346 0.8385 0.47387 0.0
C157 C 0.57498 0.81617 0.49009 0.0
C158 C 0.5506 0.80103 0.50283 0.0
C159 C 0.55778 0.86891 0.48196 0.0
C160 C 0.56149 0.83219 0.44637 0.0
H161 H 0.67046 0.74176 0.54926 0.0
H162 H 0.54497 0.71739 0.56982 0.0
H163 H 0.54555 0.72482 0.50985 0.0
H164 H 0.50791 0.75198 0.50427 0.0
H165 H 0.50604 0.72934 0.53041 0.0
H166 H 0.53445 0.78221 0.57077 0.0
H167 H 0.49583 0.76589 0.56049 0.0
H168 H 0.50581 0.79879 0.54773 0.0
H169 H 0.73615 0.81511 0.50231 0.0
H170 H 0.67945 0.87127 0.44792 0.0
H171 H 0.62236 0.85322 0.45586 0.0
H172 H 0.66977 0.8211 0.54329 0.0
H173 H 0.71159 0.79551 0.54242 0.0
H174 H 0.66829 0.78669 0.55447 0.0
H175 H 0.69446 0.7607 0.48471 0.0
H176 H 0.68132 0.74291 0.51077 0.0
H177 H 0.72305 0.75946 0.51143 0.0
H178 H 0.66485 0.7063 0.58012 0.0
C179 C 0.64296 0.73691 0.55319 0.0
C180 C 0.63012 0.17564 0.49228 0.0
C181 C 0.63325 0.15315 0.47552 0.0
C182 C 0.60084 0.14223 0.46862 0.0
C183 C 0.56265 0.17683 0.49388 0.0
C184 C 0.59448 0.18727 0.50108 0.0
C185 C 0.58533 0.21211 0.51808 0.0
H186 H 0.45593 0.30205 0.58113 0.0
C187 C 0.52993 0.19418 0.50539 0.0
C188 C 0.54278 0.21493 0.51959 0.0
H189 H 0.57641 0.29837 0.579 0.0
H190 H 0.58185 0.25998 0.55058 0.0
H191 H 0.44856 0.29213 0.52073 0.0
H192 H 0.45468 0.23334 0.58128 0.0
H193 H 0.41774 0.22844 0.5616 0.0
H194 H 0.41596 0.26131 0.57771 0.0
H195 H 0.41155 0.29343 0.54306 0.0
H196 H 0.41469 0.26947 0.51755 0.0
C197 C 0.59847 0.23817 0.50575 0.0
C198 C 0.60383 0.20377 0.54297 0.0
C199 C 0.40169 0.17175 0.4855 0.0
C200 C 0.36497 0.18429 0.49097 0.0
C201 C 0.35948 0.20748 0.50721 0.0
C202 C 0.39036 0.21842 0.51705 0.0
C203 C 0.42703 0.20602 0.51057 0.0
C204 C 0.43185 0.18298 0.49509 0.0
C205 C 0.47205 0.17258 0.48925 0.0
C206 C 0.49109 0.19307 0.50373 0.0
C207 C 0.46494 0.21268 0.51638 0.0
C208 C 0.47796 0.17581 0.46128 0.0
C209 C 0.48149 0.14194 0.49909 0.0
C210 C 0.4834 0.29305 0.57437 0.0
C211 C 0.51586 0.30305 0.58276 0.0
C212 C 0.55104 0.29071 0.57342 0.0
C213 C 0.55419 0.26842 0.55676 0.0
C214 C 0.52183 0.25815 0.54907 0.0
C215 C 0.48706 0.27056 0.55756 0.0
C216 C 0.45589 0.25678 0.54682 0.0
C217 C 0.47789 0.23374 0.53107 0.0
C218 C 0.51658 0.2348 0.53254 0.0
C219 C 0.43104 0.27903 0.53129 0.0
C220 C 0.43463 0.24437 0.56787 0.0
H221 H 0.54224 0.14454 0.47158 0.0
H222 H 0.65464 0.18452 0.49776 0.0
H223 H 0.60295 0.18111 0.54714 0.0
H224 H 0.58916 0.21537 0.55851 0.0
H225 H 0.63367 0.20697 0.5429 0.0
H226 H 0.5954 0.23742 0.48558 0.0
H227 H 0.62841 0.23907 0.50959 0.0
H228 H 0.58151 0.25834 0.51127 0.0
H229 H 0.40713 0.15351 0.47361 0.0
H230 H 0.33141 0.21754 0.51182 0.0
H231 H 0.38457 0.23625 0.52906 0.0
H232 H 0.45802 0.19362 0.4537 0.0
H233 H 0.47363 0.15638 0.45135 0.0
H234 H 0.50588 0.18113 0.45646 0.0
H235 H 0.4655 0.13914 0.51618 0.0
H236 H 0.51118 0.13628 0.50424 0.0
H237 H 0.47433 0.12637 0.48559 0.0
H238 H 0.60273 0.1247 0.45595 0.0
C239 C 0.5657 0.15382 0.47776 0.0
Zn240 Zn 0.0343 0.05977 0.33627 0.0
Zn241 Zn 0.07181 0.95676 0.33125 0.0
Zn242 Zn 0.05135 0.00903 0.33382 0.0
C243 C 0.04809 0.97232 0.28491 0.0
C244 C 0.01126 0.96442 0.36336 0.0
O245 O 0.0946 0.02679 0.35534 0.0
O246 O 0.06167 0.06747 0.36621 0.0
C247 C 0.05815 0.05002 0.28912 0.0
O248 O 0.04958 0.99682 0.29432 0.0
O249 O 0.05428 0.95045 0.29798 0.0
O250 O 0.03951 0.94636 0.35838 0.0
O251 O 0.00853 0.98945 0.35417 0.0
O252 O 0.05649 0.06943 0.30478 0.0
O253 O 0.05203 0.02522 0.29567 0.0
O254 O -0.00374 0.01916 0.35277 0.0
O255 O -0.02071 0.06252 0.33908 0.0
C256 C 0.9714 0.04129 0.35055 0.0
O257 O 0.10645 0.9977 0.35154 0.0
O258 O 0.12617 0.95481 0.33745 0.0
C259 C 0.09088 0.04959 0.3682 0.0
C260 C 0.1322 0.97607 0.3495 0.0
Zn261 Zn 0.51713 0.56378 0.83784 0.0
Zn262 Zn 0.57315 0.45922 0.83487 0.0
Zn263 Zn 0.54557 0.511 0.83657 0.0
C264 C 0.54745 0.47253 0.78836 0.0
C265 C 0.51279 0.46231 0.86653 0.0
O266 O 0.58545 0.53328 0.85683 0.0
O267 O 0.55246 0.57567 0.862 0.0
C268 C 0.53488 0.55195 0.78925 0.0
O269 O 0.54553 0.49754 0.79745 0.0
O270 O 0.55677 0.45114 0.80163 0.0
O271 O 0.54307 0.44618 0.86211 0.0
O272 O 0.50701 0.48725 0.85704 0.0
O273 O 0.52361 0.57258 0.80306 0.0
O274 O 0.54287 0.52683 0.79818 0.0
O275 O 0.4908 0.51597 0.85651 0.0
O276 O 0.46643 0.56043 0.84939 0.0
C277 C 0.46356 0.53661 0.85838 0.0
O278 O 0.60125 0.50468 0.85423 0.0
O279 O 0.62635 0.46245 0.84097 0.0
C280 C 0.58161 0.55828 0.8661 0.0
C281 C 0.62944 0.48479 0.85244 0.0
C282 C 0.10809 0.16261 0.09322 0.0
C283 C 0.08563 0.18928 0.09258 0.0
C284 C 0.10432 0.14373 0.11234 0.0
C285 C 0.07525 0.14475 0.17644 0.0
H286 H 0.0773 0.06388 0.16951 0.0
C287 C 0.09459 0.07446 0.25979 0.0
C288 C 0.06742 0.0568 0.26375 0.0
C289 C 0.09886 0.08638 0.23694 0.0
C290 C 0.07659 0.08644 0.17163 0.0
H291 H 0.04117 0.21675 0.11136 0.0
H292 H 0.03442 0.18384 0.14443 0.0
H293 H 0.07849 0.09366 0.13291 0.0
H294 H 0.02477 0.03636 0.24674 0.0
H295 H 0.03221 0.05745 0.20626 0.0
H296 H 0.07337 0.13789 0.21491 0.0
C297 C 0.05506 0.17755 0.13023 0.0
C298 C 0.0775 0.10342 0.15077 0.0
C299 C 0.05871 0.19632 0.11114 0.0
C300 C 0.04622 0.04967 0.24399 0.0
C301 C 0.0504 0.06179 0.22093 0.0
C302 C 0.07468 0.12787 0.19714 0.0
C303 C 0.07822 0.15124 0.13129 0.0
C304 C 0.07678 0.13279 0.15302 0.0
C305 C 0.07573 0.08119 0.21753 0.0
C306 C 0.07561 0.09853 0.19503 0.0
H307 H 0.1288 0.15643 0.07904 0.0
H308 H 0.1227 0.12367 0.11274 0.0
H309 H 0.07511 0.16722 0.17884 0.0
H310 H 0.11147 0.08009 0.27473 0.0
H311 H 0.11916 0.10075 0.23473 0.0
C312 C 0.04278 0.82518 0.11704 0.0
C313 C 0.01663 0.82746 0.09802 0.0
C314 C 0.04364 0.84736 0.1334 0.0
C315 C -0.01356 0.91013 0.15982 0.0
H316 H 0.08293 0.92424 0.1833 0.0
C317 C 0.00793 0.95304 0.25504 0.0
C318 C 0.03699 0.96876 0.25943 0.0
C319 C 0.00176 0.94351 0.23162 0.0
C320 C 0.0557 0.92111 0.17666 0.0
H321 H 0.9703 0.85492 0.08165 0.0
H322 H 0.97154 0.8938 0.11057 0.0
H323 H 0.08012 0.89202 0.14929 0.0
H324 H 0.08157 0.98792 0.24278 0.0
H325 H 0.07074 0.97136 0.20135 0.0
H326 H 0.96206 0.93885 0.18754 0.0
C327 C -0.00852 0.87469 0.11267 0.0
C328 C 0.0541 0.90227 0.15735 0.0
C329 C -0.00932 0.8524 0.09616 0.0
C330 C 0.05863 0.97618 0.23972 0.0
C331 C 0.05264 0.96641 0.21612 0.0
C332 C -0.01196 0.929 0.17916 0.0
C333 C 0.01828 0.87253 0.13134 0.0
C334 C 0.01952 0.89578 0.14926 0.0
C335 C 0.02486 0.94918 0.21196 0.0
C336 C 0.02274 0.93399 0.18837 0.0
H337 H 0.06255 0.80605 0.11947 0.0
H338 H 0.06394 0.84458 0.14795 0.0
H339 H 0.95933 0.90568 0.15404 0.0
H340 H -0.00887 0.94684 0.27006 0.0
H341 H -0.01949 0.93002 0.22931 0.0
C342 C 0.62596 0.66427 0.60134 0.0
C343 C 0.60024 0.6891 0.59798 0.0
C344 C 0.62134 0.64582 0.62071 0.0
C345 C 0.57367 0.64527 0.68087 0.0
H346 H 0.58696 0.56381 0.67335 0.0
C347 C 0.51413 0.57848 0.75183 0.0
C348 C 0.54014 0.55794 0.76316 0.0
C349 C 0.52273 0.59023 0.72959 0.0
C350 C 0.58343 0.58652 0.67566 0.0
H351 H 0.54991 0.71412 0.61272 0.0
H352 H 0.5413 0.68187 0.64563 0.0
H353 H 0.60104 0.59365 0.63887 0.0
H354 H 0.59464 0.53239 0.75962 0.0
H355 H 0.60966 0.55283 0.72012 0.0
H356 H 0.55527 0.6384 0.71727 0.0
C357 C 0.56531 0.67667 0.6336 0.0
C358 C 0.5916 0.60359 0.65602 0.0
C359 C 0.56997 0.69502 0.61443 0.0
C360 C 0.57384 0.54777 0.75095 0.0
C361 C 0.58251 0.5596 0.7285 0.0
C362 C 0.56523 0.62836 0.70024 0.0
C363 C 0.59105 0.65196 0.63716 0.0
C364 C 0.586 0.63323 0.6583 0.0
C365 C 0.55764 0.58183 0.71825 0.0
C366 C 0.56925 0.59889 0.69771 0.0
H367 H 0.64944 0.65898 0.58889 0.0
H368 H 0.64176 0.62703 0.62302 0.0
H369 H 0.57011 0.66793 0.68355 0.0
H370 H 0.48796 0.58666 0.76091 0.0
H371 H 0.50284 0.60704 0.72188 0.0
C372 C 0.48652 0.34988 0.60082 0.0
C373 C 0.51396 0.32571 0.60156 0.0
C374 C 0.48672 0.3717 0.61789 0.0
C375 C 0.54995 0.40027 0.6614 0.0
H376 H 0.45853 0.43385 0.69417 0.0
C377 C 0.55562 0.47519 0.74288 0.0
C378 C 0.53551 0.46769 0.76328 0.0
C379 C 0.54884 0.46471 0.71968 0.0
C380 C 0.48431 0.42481 0.68509 0.0
H381 H 0.56183 0.30498 0.62167 0.0
H382 H 0.56216 0.3427 0.65113 0.0
H383 H 0.4555 0.40071 0.66066 0.0
H384 H 0.49167 0.44461 0.77558 0.0
H385 H 0.47975 0.42642 0.73549 0.0
H386 H 0.57902 0.42306 0.68655 0.0
C387 C 0.54112 0.34529 0.63703 0.0
C388 C 0.48253 0.40597 0.66575 0.0
C389 C 0.54086 0.32358 0.62012 0.0
C390 C 0.50724 0.45093 0.76001 0.0
C391 C 0.50032 0.44061 0.73696 0.0
C392 C 0.55174 0.41908 0.68069 0.0
C393 C 0.5144 0.3698 0.63599 0.0
C394 C 0.51546 0.39277 0.65419 0.0
C395 C 0.52185 0.44655 0.7166 0.0
C396 C 0.51907 0.43094 0.6933 0.0
H397 H 0.46552 0.35225 0.5867 0.0
H398 H 0.46572 0.3903 0.61659 0.0
H399 H 0.57581 0.39092 0.65258 0.0
H400 H 0.57818 0.48748 0.74508 0.0
H401 H 0.56577 0.46987 0.70436 0.0
C402 C 0.26825 0.36066 0.97965 0.0
C403 C 0.25239 0.34301 0.96366 0.0
C404 C 0.29934 0.37296 0.97227 0.0
C405 C 0.37759 0.36744 0.92849 0.0
H406 H 0.36627 0.4492 0.93276 0.0
C407 C 0.4458 0.46126 0.87874 0.0
C408 C 0.4841 0.45157 0.88191 0.0
C409 C 0.41884 0.44905 0.89184 0.0
C410 C 0.36981 0.42637 0.93156 0.0
H411 H 0.2566 0.32356 0.92796 0.0
H412 H 0.31181 0.3443 0.91525 0.0
H413 H 0.31801 0.42402 0.9504 0.0
H414 H 0.52425 0.42163 0.90144 0.0
H415 H 0.47721 0.39991 0.92386 0.0
H416 H 0.42911 0.36973 0.90944 0.0
C417 C 0.30028 0.3487 0.93341 0.0
C418 C 0.34243 0.41197 0.94179 0.0
C419 C 0.26885 0.33682 0.94064 0.0
C420 C 0.49492 0.4296 0.89862 0.0
C421 C 0.46804 0.41714 0.91143 0.0
C422 C 0.40521 0.38177 0.91861 0.0
C423 C 0.31525 0.36743 0.94892 0.0
C424 C 0.34584 0.3824 0.94005 0.0
C425 C 0.42974 0.42647 0.90794 0.0
C426 C 0.40137 0.41139 0.91978 0.0
H427 H 0.25552 0.36596 -0.00264 0.0
H428 H 0.31049 0.38722 -0.01542 0.0
H429 H 0.38088 0.34465 0.92694 0.0
H430 H 0.43662 0.47725 0.86526 0.0
H431 H 0.38946 0.45636 0.88853 0.0
C432 C 0.83173 0.66638 0.95563 0.0
C433 C 0.82716 0.67755 0.97941 0.0
C434 C 0.80411 0.65297 0.94513 0.0
C435 C 0.70517 0.64717 0.9452 0.0
H436 H 0.73797 0.57234 0.91872 0.0
C437 C 0.59928 0.58329 0.90288 0.0
C438 C 0.61043 0.56728 0.88193 0.0
C439 C 0.62549 0.59475 0.91677 0.0
C440 C 0.72832 0.59333 0.92571 0.0
H441 H 0.78871 0.68492 0.01016 0.0
H442 H 0.73948 0.66213 -0.00873 0.0
H443 H 0.78295 0.59781 0.93864 0.0
H444 H 0.65761 0.55039 0.85908 0.0
H445 H 0.70362 0.57109 0.88285 0.0
H446 H 0.65103 0.6435 0.93142 0.0
C447 C 0.76505 0.66341 -0.0189 0.0
C448 C 0.75409 0.60784 0.93726 0.0
C449 C 0.79309 0.67657 -0.00817 0.0
C450 C 0.64846 0.56236 0.87537 0.0
C451 C 0.67475 0.57423 0.88907 0.0
C452 C 0.67949 0.63287 0.9333 0.0
C453 C 0.77083 0.65082 0.95791 0.0
C454 C 0.74283 0.63496 0.94697 0.0
C455 C 0.66349 0.59106 0.90974 0.0
C456 C 0.69071 0.60577 0.92326 0.0
H457 H 0.85714 0.66747 0.94522 0.0
H458 H 0.80891 0.64406 0.927 0.0
H459 H 0.69586 0.66816 0.95231 0.0
H460 H 0.57005 0.58724 0.90838 0.0
H461 H 0.61575 0.60683 0.93288 0.0
C462 C 0.88466 0.39022 -0.01866 0.0
C463 C 0.91353 0.37689 0.96613 0.0
C464 C 0.85507 0.40899 0.97154 0.0
C465 C 0.82789 0.45143 0.91564 0.0
H466 H 0.72656 0.44646 0.93729 0.0
C467 C 0.69858 0.47382 0.85549 0.0
C468 C 0.66428 0.48602 0.86581 0.0
C469 C 0.73066 0.4689 0.86975 0.0
C470 C 0.75473 0.44861 0.93141 0.0
H471 H 0.93353 0.37204 0.92872 0.0
H472 H 0.88176 0.4041 0.91157 0.0
H473 H 0.77922 0.41991 0.95877 0.0
H474 H 0.63666 0.50393 0.8987 0.0
H475 H 0.69299 0.49498 0.92389 0.0
H476 H 0.80309 0.47887 0.88737 0.0
C477 C 0.88239 0.40091 0.93114 0.0
C478 C 0.78495 0.43334 0.94369 0.0
C479 C 0.91197 0.38236 0.94094 0.0
C480 C 0.66296 0.49478 0.89029 0.0
C481 C 0.69503 0.48947 0.90471 0.0
C482 C 0.79766 0.46649 0.90324 0.0
C483 C 0.85368 0.41464 0.9463 0.0
C484 C 0.82187 0.43387 0.93548 0.0
C485 C 0.72887 0.47562 0.89473 0.0
C486 C 0.76077 0.46458 0.91057 0.0
H487 H 0.88537 0.38661 0.00087 0.0
H488 H 0.83357 0.41933 -0.01624 0.0
H489 H 0.856 0.45291 0.90921 0.0
H490 H 0.70016 0.46675 0.83668 0.0
H491 H 0.75623 0.45796 0.86161 0.0
C492 C 0.19539 0.62146 -0.0141 0.0
C493 C 0.16271 0.62815 0.97204 0.0
C494 C 0.22846 0.6078 0.97497 0.0
C495 C 0.27489 0.5979 0.91521 0.0
H496 H 0.33436 0.53166 0.9433 0.0
C497 C 0.39485 0.53978 0.85987 0.0
C498 C 0.42911 0.53395 0.87194 0.0
C499 C 0.36155 0.54584 0.87319 0.0
C500 C 0.31812 0.55022 0.93532 0.0
H501 H 0.13919 0.62651 0.9359 0.0
H502 H 0.19654 0.60288 0.91695 0.0
H503 H 0.27873 0.55517 0.96525 0.0
H504 H 0.45588 0.52786 0.90707 0.0
H505 H 0.3975 0.53923 0.93064 0.0
H506 H 0.31403 0.59366 0.88562 0.0
C507 C 0.19674 0.60799 0.9362 0.0
C508 C 0.28642 0.5637 0.94791 0.0
C509 C 0.16383 0.62134 0.94709 0.0
C510 C 0.42953 0.53205 0.89749 0.0
C511 C 0.39614 0.53859 0.91091 0.0
C512 C 0.30643 0.58461 0.90277 0.0
C513 C 0.22941 0.60107 0.94997 0.0
C514 C 0.2643 0.58749 0.93778 0.0
C515 C 0.36204 0.54699 0.89884 0.0
C516 C 0.3282 0.56039 0.91245 0.0
H517 H 0.19517 0.6264 0.00519 0.0
H518 H 0.25337 0.60287 -0.01406 0.0
H519 H 0.25881 0.61653 0.90719 0.0
H520 H 0.39407 0.54139 0.84014 0.0
H521 H 0.33562 0.55137 0.86334 0.0
C522 C 0.74185 0.88854 0.46732 0.0
C523 C 0.74589 0.85912 0.47083 0.0
C524 C 0.772 0.90134 0.45937 0.0
C525 C 0.87255 0.89682 0.45412 0.0
H526 H 0.85237 0.93483 0.39201 0.0
C527 C -0.01005 0.93235 0.39478 0.0
C528 C -0.01843 0.95581 0.37926 0.0
C529 C 0.96178 0.92234 0.40837 0.0
C530 C 0.85842 0.92495 0.40959 0.0
H531 H 0.78561 0.8204 0.47066 0.0
H532 H 0.83903 0.84317 0.45728 0.0
H533 H 0.80328 0.91386 0.41255 0.0
H534 H 0.93689 0.98665 0.36545 0.0
H535 H 0.88804 0.97093 0.39065 0.0
H536 H 0.92732 0.90855 0.45169 0.0
C537 C 0.8121 0.85606 0.46041 0.0
C538 C 0.8303 0.91268 0.42123 0.0
C539 C 0.78162 0.84308 0.4681 0.0
C540 C 0.94446 0.96935 0.37798 0.0
C541 C 0.91629 0.95975 0.39199 0.0
C542 C 0.90057 0.90962 0.44272 0.0
C543 C 0.80709 0.88514 0.45521 0.0
C544 C 0.83718 0.89835 0.44347 0.0
C545 C 0.92444 0.93572 0.40705 0.0
C546 C 0.89401 0.92364 0.42014 0.0
H547 H 0.71493 0.90163 0.46994 0.0
H548 H 0.76766 0.92387 0.45584 0.0
H549 H 0.87832 0.88605 0.47139 0.0
H550 H 0.0183 0.92126 0.39606 0.0
H551 H 0.96927 0.9035 0.41927 0.0
C552 C 0.33702 0.16434 0.45451 0.0
C553 C 0.33337 0.17303 0.47904 0.0
C554 C 0.31025 0.15034 0.44372 0.0
C555 C 0.23277 0.10984 0.45919 0.0
H556 H 0.21547 0.11677 0.38952 0.0
C557 C 0.11136 0.07076 0.40627 0.0
C558 C 0.12087 0.05642 0.38421 0.0
C559 C 0.13846 0.08195 0.4196 0.0
C560 C 0.2204 0.11437 0.40895 0.0
H561 H 0.29732 0.17522 0.51103 0.0
H562 H 0.24926 0.15187 0.49178 0.0
H563 H 0.25668 0.14566 0.40891 0.0
H564 H 0.16624 0.04164 0.35913 0.0
H565 H 0.21378 0.0619 0.38224 0.0
H566 H 0.19466 0.07939 0.45906 0.0
C567 C 0.27375 0.15499 0.48115 0.0
C568 C 0.24409 0.13092 0.42014 0.0
C569 C 0.30099 0.16879 0.49212 0.0
C570 C 0.15833 0.05239 0.3762 0.0
C571 C 0.18537 0.06411 0.3893 0.0
C572 C 0.20842 0.09367 0.44802 0.0
C573 C 0.27839 0.1451 0.4569 0.0
C574 C 0.25103 0.1287 0.44539 0.0
C575 C 0.17543 0.07958 0.41081 0.0
C576 C 0.20234 0.0956 0.42275 0.0
H577 H 0.36121 0.16777 0.44368 0.0
H578 H 0.31536 0.14285 0.42519 0.0
H579 H 0.23774 0.10713 0.47857 0.0
H580 H 0.0826 0.07419 0.41277 0.0
H581 H 0.13004 0.09388 0.43603 0.0
C582 C 0.41298 0.89355 0.46631 0.0
C583 C 0.41237 0.86445 0.46962 0.0
C584 C 0.38248 0.91083 0.45616 0.0
C585 C 0.28211 0.91687 0.44358 0.0
H586 H 0.30501 0.96019 0.38686 0.0
C587 C 0.20037 0.95937 0.35359 0.0
C588 C 0.1671 0.97415 0.36341 0.0
C589 C 0.23173 0.95236 0.36827 0.0
C590 C 0.29829 0.94848 0.40284 0.0
H591 H 0.37841 0.83101 0.46576 0.0
H592 H 0.32467 0.86145 0.44846 0.0
H593 H 0.35602 0.93426 0.41059 0.0
H594 H 0.14062 0.99402 0.39592 0.0
H595 H 0.19558 0.98142 0.4218 0.0
H596 H 0.22434 0.93052 0.43542 0.0
C597 C 0.349 0.87074 0.4537 0.0
C598 C 0.32739 0.93373 0.41644 0.0
C599 C 0.37974 0.85333 0.46363 0.0
C600 C 0.16619 0.98301 0.38785 0.0
C601 C 0.19742 0.97558 0.40268 0.0
C602 C 0.25301 0.93197 0.43018 0.0
C603 C 0.35043 0.89952 0.44942 0.0
C604 C 0.31955 0.91729 0.43661 0.0
C605 C 0.23009 0.95952 0.39314 0.0
C606 C 0.26085 0.94739 0.40938 0.0
H607 H 0.43725 0.903 0.47134 0.0
H608 H 0.38406 0.93303 0.45337 0.0
H609 H 0.27538 0.9045 0.45914 0.0
H610 H 0.20159 0.95218 0.33482 0.0
H611 H 0.25646 0.93977 0.36052 0.0
C612 C 0.70112 0.13221 0.47842 0.0
C613 C 0.6696 0.14161 0.46415 0.0
C614 C 0.73456 0.11953 0.46732 0.0
C615 C 0.78576 0.11611 0.40914 0.0
H616 H 0.83565 0.04302 0.43088 0.0
C617 C 0.90279 0.05629 0.35121 0.0
C618 C 0.93514 0.04407 0.36337 0.0
C619 C 0.86974 0.06502 0.36423 0.0
C620 C 0.82225 0.06355 0.42475 0.0
H621 H 0.6484 0.14606 0.42727 0.0
H622 H 0.70671 0.12441 0.40791 0.0
H623 H 0.78059 0.0665 0.45327 0.0
H624 H 0.95843 0.03029 0.39838 0.0
H625 H 0.90066 0.0461 0.42144 0.0
H626 H 0.82725 0.11372 0.38096 0.0
C627 C 0.70566 0.12657 0.4276 0.0
C628 C 0.79083 0.07698 0.43759 0.0
C629 C 0.67228 0.13882 0.43867 0.0
C630 C 0.93354 0.03935 0.38863 0.0
C631 C 0.90049 0.04844 0.40178 0.0
C632 C 0.81718 0.10288 0.39648 0.0
C633 C 0.73705 0.1166 0.44179 0.0
C634 C 0.77203 0.1032 0.42965 0.0
C635 C 0.86864 0.06236 0.3898 0.0
C636 C 0.83549 0.07623 0.40385 0.0
H637 H 0.6996 0.13404 0.49812 0.0
H638 H 0.75849 0.11217 0.47862 0.0
H639 H 0.77215 0.13653 0.40287 0.0
H640 H 0.90351 0.06015 0.33172 0.0
H641 H 0.84544 0.0749 0.35433 0.0
loop_
_geom_bond_atom_site_label_1
_geom_bond_atom_site_label_2
_geom_bond_distance
_geom_bond_site_symmetry_2
_ccdc_geom_bond_type
C0 C1 1.391 . S
C0 C4 1.391 . S
C0 H42 0.948 . S
C1 C0 1.391 . S
C1 C2 1.391 . S
C2 C1 1.391 . S
C2 H58 0.947 . S
C2 C59 1.392 . S
C3 C4 1.391 . S
C3 C7 1.397 . S
C3 C59 1.419 . S
C4 C0 1.391 . S
C4 C3 1.391 . S
C4 C5 1.399 . S
C5 C4 1.399 . S
C5 C8 1.396 . S
C5 C17 1.453 . S
C5 C18 1.684 . S
H6 C30 0.948 . S
C7 C3 1.397 . S
C7 C8 1.394 . S
C7 C26 1.723 . S
C8 C5 1.396 . S
C8 C7 1.394 . S
C8 C38 1.723 . S
H9 C32 0.947 . S
H10 C33 0.948 . S
H11 C39 0.954 1_554 S
H12 C40 0.979 . S
H13 C40 0.980 . S
H14 C40 0.983 . S
H15 C39 0.979 . S
H16 C39 0.977 . S
C17 C5 1.453 . S
C17 H46 0.982 . S
C17 H47 0.979 . S
C17 H48 0.977 . S
C18 C5 1.684 . S
C18 H43 0.979 . S
C18 H44 0.980 . S
C18 H45 0.983 . S
C19 C20 1.392 . S
C19 C24 1.391 1_556 S
C19 H49 0.948 1_556 S
C20 C19 1.392 . S
C20 C21 1.391 . S
C21 C20 1.391 . S
C21 C22 1.392 . S
C21 H50 0.947 . S
C22 C21 1.392 . S
C22 C23 1.419 . S
C22 H51 0.948 . S
C23 C22 1.419 . S
C23 C24 1.391 1_556 S
C23 C27 1.397 1_556 S
C24 C19 1.391 1_554 S
C24 C23 1.391 1_554 S
C24 C25 1.399 . S
C25 C24 1.399 . S
C25 C26 1.396 . S
C25 C28 1.453 . S
C25 C29 1.684 . S
C26 C7 1.723 . S
C26 C25 1.396 . S
C26 C27 1.394 . S
C27 C23 1.397 1_554 S
C27 C26 1.394 . S
C27 C37 1.723 . S
C28 C25 1.453 . S
C28 H52 0.982 . S
C28 H53 0.979 . S
C28 H54 0.977 . S
C29 C25 1.684 . S
C29 H55 0.979 . S
C29 H56 0.980 . S
C29 H57 0.983 . S
C30 H6 0.948 . S
C30 C31 1.391 1_455 S
C30 C35 1.391 . S
C31 C30 1.391 1_655 S
C31 C32 1.391 1_556 S
C32 H9 0.947 . S
C32 C31 1.391 1_554 S
C32 C33 1.392 1_655 S
C33 H10 0.948 . S
C33 C32 1.392 1_455 S
C33 C34 1.419 . S
C34 C33 1.419 . S
C34 C35 1.391 1_554 S
C34 C38 1.397 . S
C35 C30 1.391 . S
C35 C34 1.391 1_556 S
C35 C36 1.399 . S
C36 C35 1.399 . S
C36 C37 1.396 1_556 S
C36 C39 1.453 . S
C36 C40 1.684 . S
C37 C27 1.723 . S
C37 C36 1.396 1_554 S
C37 C38 1.394 . S
C38 C8 1.723 . S
C38 C34 1.397 . S
C38 C37 1.394 . S
C39 H11 0.954 1_556 S
C39 H15 0.979 . S
C39 H16 0.977 . S
C39 C36 1.453 . S
C40 H12 0.979 . S
C40 H13 0.980 . S
C40 H14 0.983 . S
C40 C36 1.684 . S
H41 C59 0.948 . S
H42 C0 0.948 . S
H43 C18 0.979 . S
H44 C18 0.980 . S
H45 C18 0.983 . S
H46 C17 0.982 . S
H47 C17 0.979 . S
H48 C17 0.977 . S
H49 C19 0.948 1_554 S
H50 C21 0.947 . S
H51 C22 0.948 . S
H52 C28 0.982 . S
H53 C28 0.979 . S
H54 C28 0.977 . S
H55 C29 0.979 . S
H56 C29 0.980 . S
H57 C29 0.983 . S
H58 C2 0.947 . S
C59 C2 1.392 . S
C59 C3 1.419 . S
C59 H41 0.948 . S
C60 C61 1.391 1_554 S
C60 C64 1.391 . S
C60 H102 0.948 . S
C61 C60 1.391 1_556 S
C61 C62 1.391 . S
C62 C61 1.391 . S
C62 H118 0.947 . S
C62 C119 1.392 . S
C63 C64 1.378 1_556 S
C63 C67 1.385 1_556 S
C63 C119 1.438 . S
C64 C60 1.391 . S
C64 C63 1.378 1_554 S
C64 C65 1.399 . S
C65 C64 1.399 . S
C65 C68 1.396 . S
C65 C77 1.453 . S
C65 C78 1.684 . S
H66 C90 0.948 . S
C67 C63 1.385 1_554 S
C67 C68 1.394 . S
C67 C86 1.723 1_455 S
C68 C65 1.396 . S
C68 C67 1.394 . S
C68 C98 1.723 . S
H69 C92 0.947 . S
H70 C93 0.948 . S
H71 C99 0.982 . S
H72 C100 0.979 . S
H73 C100 0.980 . S
H74 C100 0.983 . S
H75 C99 0.979 . S
H76 C99 0.977 . S
C77 C65 1.453 . S
C77 H106 0.982 . S
C77 H107 0.979 . S
C77 H108 0.977 . S
C78 C65 1.684 . S
C78 H103 0.979 . S
C78 H104 0.980 . S
C78 H105 0.983 . S
C79 C80 1.391 . S
C79 C84 1.391 . S
C79 H109 0.948 . S
C80 C79 1.391 . S
C80 C81 1.391 1_556 S
C81 C80 1.391 1_554 S
C81 C82 1.392 . S
C81 H110 0.947 . S
C82 C81 1.392 . S
C82 C83 1.419 . S
C82 H111 0.948 . S
C83 C82 1.419 . S
C83 C84 1.391 1_554 S
C83 C87 1.397 . S
C84 C79 1.391 . S
C84 C83 1.391 1_556 S
C84 C85 1.399 . S
C85 C84 1.399 . S
C85 C86 1.396 1_556 S
C85 C88 1.453 . S
C85 C89 1.684 . S
C86 C67 1.723 1_655 S
C86 C85 1.396 1_554 S
C86 C87 1.394 . S
C87 C83 1.397 . S
C87 C86 1.394 . S
C87 C97 1.723 . S
C88 C85 1.453 . S
C88 H112 0.982 . S
C88 H113 0.979 . S
C88 H114 0.977 1_655 S
C89 C85 1.684 . S
C89 H115 0.981 1_556 S
C89 H116 0.980 1_655 S
C89 H117 0.983 . S
C90 H66 0.948 . S
C90 C91 1.391 1_655 S
C90 C95 1.391 . S
C91 C90 1.391 1_455 S
C91 C92 1.391 . S
C92 H69 0.947 . S
C92 C91 1.391 . S
C92 C93 1.392 . S
C93 H70 0.948 . S
C93 C92 1.392 . S
C93 C94 1.419 . S
C94 C93 1.419 . S
C94 C95 1.391 1_455 S
C94 C98 1.397 . S
C95 C90 1.391 . S
C95 C94 1.391 1_655 S
C95 C96 1.399 . S
C96 C95 1.399 . S
C96 C97 1.396 . S
C96 C99 1.453 . S
C96 C100 1.684 . S
C97 C87 1.723 . S
C97 C96 1.396 . S
C97 C98 1.394 1_655 S
C98 C68 1.723 . S
C98 C94 1.397 . S
C98 C97 1.394 1_455 S
C99 H71 0.982 . S
C99 H75 0.979 . S
C99 H76 0.977 . S
C99 C96 1.453 . S
C100 H72 0.979 . S
C100 H73 0.980 . S
C100 H74 0.983 . S
C100 C96 1.684 . S
H101 C119 0.948 . S
H102 C60 0.948 . S
H103 C78 0.979 . S
H104 C78 0.980 . S
H105 C78 0.983 . S
H106 C77 0.982 . S
H107 C77 0.979 . S
H108 C77 0.977 . S
H109 C79 0.948 . S
H110 C81 0.947 . S
H111 C82 0.948 . S
H112 C88 0.982 . S
H113 C88 0.979 . S
H114 C88 0.977 1_455 S
H115 C89 0.981 1_554 S
H116 C89 0.980 1_455 S
H117 C89 0.983 . S
H118 C62 0.947 . S
C119 C62 1.392 . S
C119 C63 1.438 . S
C119 H101 0.948 . S
C120 C121 1.391 . S
C120 C124 1.391 . S
C120 H162 0.948 . S
C121 C120 1.391 . S
C121 C122 1.391 . S
C122 C121 1.391 . S
C122 H178 0.947 . S
C122 C179 1.392 . S
C123 C124 1.391 . S
C123 C127 1.397 . S
C123 C179 1.419 . S
C124 C120 1.391 . S
C124 C123 1.391 . S
C124 C125 1.399 . S
C125 C124 1.399 . S
C125 C128 1.396 . S
C125 C137 1.453 . S
C125 C138 1.684 . S
H126 C150 0.948 . S
C127 C123 1.397 . S
C127 C128 1.394 . S
C127 C146 1.723 . S
C128 C125 1.396 . S
C128 C127 1.394 . S
C128 C158 1.723 . S
H129 C152 0.947 . S
H130 C153 0.948 . S
H131 C159 0.982 . S
H132 C160 0.979 . S
H133 C160 0.980 . S
H134 C160 0.983 . S
H135 C159 0.979 . S
H136 C159 0.977 . S
C137 C125 1.453 . S
C137 H166 0.982 . S
C137 H167 0.979 . S
C137 H168 0.977 . S
C138 C125 1.684 . S
C138 H163 0.979 . S
C138 H164 0.980 . S
C138 H165 0.983 . S
C139 C140 1.391 . S
C139 C144 1.391 . S
C139 H169 0.948 . S
C140 C139 1.391 . S
C140 C141 1.391 . S
C141 C140 1.391 . S
C141 C142 1.392 . S
C141 H170 0.947 . S
C142 C141 1.392 . S
C142 C143 1.419 . S
C142 H171 0.948 . S
C143 C142 1.419 . S
C143 C144 1.391 . S
C143 C147 1.397 . S
C144 C139 1.391 . S
C144 C143 1.391 . S
C144 C145 1.399 . S
C145 C144 1.399 . S
C145 C146 1.396 . S
C145 C148 1.453 . S
C145 C149 1.684 . S
C146 C127 1.723 . S
C146 C145 1.396 . S
C146 C147 1.394 . S
C147 C143 1.397 . S
C147 C146 1.394 . S
C147 C157 1.723 . S
C148 C145 1.453 . S
C148 H172 0.982 . S
C148 H173 0.979 . S
C148 H174 0.977 . S
C149 C145 1.684 . S
C149 H175 0.979 . S
C149 H176 0.980 . S
C149 H177 0.983 . S
C150 H126 0.948 . S
C150 C151 1.391 . S
C150 C155 1.391 . S
C151 C150 1.391 . S
C151 C152 1.391 . S
C152 H129 0.947 . S
C152 C151 1.391 . S
C152 C153 1.392 . S
C153 H130 0.948 . S
C153 C152 1.392 . S
C153 C154 1.419 . S
C154 C153 1.419 . S
C154 C155 1.391 . S
C154 C158 1.397 . S
C155 C150 1.391 . S
C155 C154 1.391 . S
C155 C156 1.399 . S
C156 C155 1.399 . S
C156 C157 1.396 . S
C156 C159 1.453 . S
C156 C160 1.684 . S
C157 C147 1.723 . S
C157 C156 1.396 . S
C157 C158 1.394 . S
C158 C128 1.723 . S
C158 C154 1.397 . S
C158 C157 1.394 . S
C159 H131 0.982 . S
C159 H135 0.979 . S
C159 H136 0.977 . S
C159 C156 1.453 . S
C160 H132 0.979 . S
C160 H133 0.980 . S
C160 H134 0.983 . S
C160 C156 1.684 . S
H161 C179 0.948 . S
H162 C120 0.948 . S
H163 C138 0.979 . S
H164 C138 0.980 . S
H165 C138 0.983 . S
H166 C137 0.982 . S
H167 C137 0.979 . S
H168 C137 0.977 . S
H169 C139 0.948 . S
H170 C141 0.947 . S
H171 C142 0.948 . S
H172 C148 0.982 . S
H173 C148 0.979 . S
H174 C148 0.977 . S
H175 C149 0.979 . S
H176 C149 0.980 . S
H177 C149 0.983 . S
H178 C122 0.947 . S
C179 C122 1.392 . S
C179 C123 1.419 . S
C179 H161 0.948 . S
C180 C181 1.391 . S
C180 C184 1.391 . S
C180 H222 0.948 . S
C181 C180 1.391 . S
C181 C182 1.391 . S
C182 C181 1.391 . S
C182 H238 0.947 . S
C182 C239 1.392 . S
C183 C184 1.391 . S
C183 C187 1.397 . S
C183 C239 1.419 . S
C184 C180 1.391 . S
C184 C183 1.391 . S
C184 C185 1.399 . S
C185 C184 1.399 . S
C185 C188 1.396 . S
C185 C197 1.453 . S
C185 C198 1.684 . S
H186 C210 0.948 . S
C187 C183 1.397 . S
C187 C188 1.394 . S
C187 C206 1.723 . S
C188 C185 1.396 . S
C188 C187 1.394 . S
C188 C218 1.723 . S
H189 C212 0.947 . S
H190 C213 0.948 . S
H191 C219 0.982 . S
H192 C220 0.979 . S
H193 C220 0.980 . S
H194 C220 0.983 . S
H195 C219 0.979 . S
H196 C219 0.977 . S
C197 C185 1.453 . S
C197 H226 0.982 . S
C197 H227 0.979 . S
C197 H228 0.977 . S
C198 C185 1.684 . S
C198 H223 0.979 . S
C198 H224 0.980 . S
C198 H225 0.983 . S
C199 C200 1.391 . S
C199 C204 1.391 . S
C199 H229 0.948 . S
C200 C199 1.391 . S
C200 C201 1.391 . S
C201 C200 1.391 . S
C201 C202 1.392 . S
C201 H230 0.947 . S
C202 C201 1.392 . S
C202 C203 1.419 . S
C202 H231 0.948 . S
C203 C202 1.419 . S
C203 C204 1.391 . S
C203 C207 1.397 . S
C204 C199 1.391 . S
C204 C203 1.391 . S
C204 C205 1.399 . S
C205 C204 1.399 . S
C205 C206 1.396 . S
C205 C208 1.453 . S
C205 C209 1.684 . S
C206 C187 1.723 . S
C206 C205 1.396 . S
C206 C207 1.394 . S
C207 C203 1.397 . S
C207 C206 1.394 . S
C207 C217 1.723 . S
C208 C205 1.453 . S
C208 H232 0.982 . S
C208 H233 0.979 . S
C208 H234 0.977 . S
C209 C205 1.684 . S
C209 H235 0.979 . S
C209 H236 0.980 . S
C209 H237 0.983 . S
C210 H186 0.948 . S
C210 C211 1.391 . S
C210 C215 1.391 . S
C211 C210 1.391 . S
C211 C212 1.391 . S
C212 H189 0.947 . S
C212 C211 1.391 . S
C212 C213 1.392 . S
C213 H190 0.948 . S
C213 C212 1.392 . S
C213 C214 1.419 . S
C214 C213 1.419 . S
C214 C215 1.391 . S
C214 C218 1.397 . S
C215 C210 1.391 . S
C215 C214 1.391 . S
C215 C216 1.399 . S
C216 C215 1.399 . S
C216 C217 1.396 . S
C216 C219 1.453 . S
C216 C220 1.684 . S
C217 C207 1.723 . S
C217 C216 1.396 . S
C217 C218 1.394 . S
C218 C188 1.723 . S
C218 C214 1.397 . S
C218 C217 1.394 . S
C219 H191 0.982 . S
C219 H195 0.979 . S
C219 H196 0.977 . S
C219 C216 1.453 . S
C220 H192 0.979 . S
C220 H193 0.980 . S
C220 H194 0.983 . S
C220 C216 1.684 . S
H221 C239 0.948 . S
H222 C180 0.948 . S
H223 C198 0.979 . S
H224 C198 0.980 . S
H225 C198 0.983 . S
H226 C197 0.982 . S
H227 C197 0.979 . S
H228 C197 0.977 . S
H229 C199 0.948 . S
H230 C201 0.947 . S
H231 C202 0.948 . S
H232 C208 0.982 . S
H233 C208 0.979 . S
H234 C208 0.977 . S
H235 C209 0.979 . S
H236 C209 0.980 . S
H237 C209 0.983 . S
H238 C182 0.947 . S
C239 C182 1.392 . S
C239 C183 1.419 . S
C239 H221 0.948 . S
Zn240 O246 1.920 . S
Zn240 O252 1.898 . S
Zn240 O255 1.905 . S
Zn241 O249 1.905 . S
Zn241 O250 1.898 . S
Zn241 O258 1.920 . S
Zn242 O245 2.080 . S
Zn242 O248 2.114 1_545 S
Zn242 O251 2.120 1_545 S
Zn242 O253 2.120 . S
Zn242 O254 2.114 . S
Zn242 O257 2.080 1_545 S
C243 O248 1.166 . S
C243 O249 1.182 . S
C244 O250 1.167 . S
C244 O251 1.299 . S
O245 Zn242 2.080 . S
O245 C259 1.305 . S
O246 Zn240 1.920 . S
O246 C259 1.234 . S
C247 O252 1.167 . S
C247 O253 1.299 . S
O248 Zn242 2.114 1_565 S
O248 C243 1.166 . S
O249 Zn241 1.905 . S
O249 C243 1.182 . S
O250 Zn241 1.898 . S
O250 C244 1.167 . S
O251 Zn242 2.120 1_565 S
O251 C244 1.299 . S
O252 Zn240 1.898 . S
O252 C247 1.167 . S
O253 Zn242 2.120 . S
O253 C247 1.299 . S
O254 Zn242 2.114 . S
O254 C256 1.160 1_455 S
O255 Zn240 1.905 . S
O255 C256 1.176 1_455 S
C256 O254 1.160 1_655 S
C256 O255 1.176 1_655 S
O257 Zn242 2.080 1_565 S
O257 C260 1.305 . S
O258 Zn241 1.920 . S
O258 C260 1.234 . S
C259 O245 1.305 . S
C259 O246 1.234 . S
C260 O257 1.305 . S
C260 O258 1.234 . S
Zn261 O267 1.920 . S
Zn261 O273 1.898 . S
Zn261 O276 1.905 . S
Zn262 O270 1.905 . S
Zn262 O271 1.898 . S
Zn262 O279 1.920 . S
Zn263 O266 2.080 . S
Zn263 O269 2.114 . S
Zn263 O272 2.120 . S
Zn263 O274 2.120 . S
Zn263 O275 2.114 . S
Zn263 O278 2.080 . S
C264 O269 1.166 . S
C264 O270 1.182 . S
C265 O271 1.167 . S
C265 O272 1.299 . S
O266 Zn263 2.080 . S
O266 C280 1.305 . S
O267 Zn261 1.920 . S
O267 C280 1.234 . S
C268 O273 1.167 . S
C268 O274 1.299 . S
O269 Zn263 2.114 . S
O269 C264 1.166 . S
O270 Zn262 1.905 . S
O270 C264 1.182 . S
O271 Zn262 1.898 . S
O271 C265 1.167 . S
O272 Zn263 2.120 . S
O272 C265 1.299 . S
O273 Zn261 1.898 . S
O273 C268 1.167 . S
O274 Zn263 2.120 . S
O274 C268 1.299 . S
O275 Zn263 2.114 . S
O275 C277 1.166 . S
O276 Zn261 1.905 . S
O276 C277 1.182 . S
C277 O275 1.166 . S
C277 O276 1.182 . S
O278 Zn263 2.080 . S
O278 C281 1.305 . S
O279 Zn262 1.920 . S
O279 C281 1.234 . S
C280 O266 1.305 . S
C280 O267 1.234 . S
C281 O278 1.305 . S
C281 O279 1.234 . S
C282 C283 1.349 . S
C282 C284 1.327 . S
C282 H307 0.950 . S
C283 C282 1.349 . S
C283 C299 1.349 . S
C284 C282 1.327 . S
C284 C303 1.429 . S
C284 H308 0.950 . S
C285 C302 1.574 . S
C285 C304 1.368 . S
C285 H309 0.949 . S
H286 C290 0.949 . S
C287 C288 1.349 . S
C287 C289 1.327 . S
C287 H310 0.950 . S
C288 C287 1.349 . S
C288 C300 1.349 . S
C289 C287 1.327 . S
C289 C305 1.429 . S
C289 H311 0.950 . S
C290 H286 0.949 . S
C290 C298 1.574 . S
C290 C306 1.368 . S
H291 C299 0.950 . S
H292 C297 0.950 . S
H293 C298 0.949 . S
H294 C300 0.950 . S
H295 C301 0.950 . S
H296 C302 0.949 . S
C297 H292 0.950 . S
C297 C299 1.327 . S
C297 C303 1.429 . S
C298 C290 1.574 . S
C298 H293 0.949 . S
C298 C304 1.368 . S
C299 C283 1.349 . S
C299 H291 0.950 . S
C299 C297 1.327 . S
C300 C288 1.349 . S
C300 H294 0.950 . S
C300 C301 1.327 . S
C301 H295 0.950 . S
C301 C300 1.327 . S
C301 C305 1.429 . S
C302 C285 1.574 . S
C302 H296 0.949 . S
C302 C306 1.368 . S
C303 C284 1.429 . S
C303 C297 1.429 . S
C303 C304 1.523 . S
C304 C285 1.368 . S
C304 C298 1.368 . S
C304 C303 1.523 . S
C305 C289 1.429 . S
C305 C301 1.429 . S
C305 C306 1.523 . S
C306 C290 1.368 . S
C306 C302 1.368 . S
C306 C305 1.523 . S
H307 C282 0.950 . S
H308 C284 0.950 . S
H309 C285 0.949 . S
H310 C287 0.950 . S
H311 C289 0.950 . S
C312 C313 1.349 . S
C312 C314 1.327 . S
C312 H337 0.950 . S
C313 C312 1.349 . S
C313 C329 1.349 1_455 S
C314 C312 1.327 . S
C314 C333 1.429 . S
C314 H338 0.950 . S
C315 C332 1.574 . S
C315 C334 1.368 1_655 S
C315 H339 0.949 . S
H316 C320 0.949 . S
C317 C318 1.349 . S
C317 C319 1.327 . S
C317 H340 0.950 1_455 S
C318 C317 1.349 . S
C318 C330 1.349 . S
C319 C317 1.327 . S
C319 C335 1.429 . S
C319 H341 0.950 1_455 S
C320 H316 0.949 . S
C320 C328 1.574 . S
C320 C336 1.368 . S
H321 C329 0.950 . S
H322 C327 0.950 . S
H323 C328 0.949 . S
H324 C330 0.950 . S
H325 C331 0.950 . S
H326 C332 0.949 . S
C327 H322 0.950 . S
C327 C329 1.327 . S
C327 C333 1.429 1_655 S
C328 C320 1.574 . S
C328 H323 0.949 . S
C328 C334 1.368 . S
C329 C313 1.349 1_655 S
C329 H321 0.950 . S
C329 C327 1.327 . S
C330 C318 1.349 . S
C330 H324 0.950 . S
C330 C331 1.327 . S
C331 H325 0.950 . S
C331 C330 1.327 . S
C331 C335 1.429 . S
C332 C315 1.574 . S
C332 H326 0.949 . S
C332 C336 1.368 1_655 S
C333 C314 1.429 . S
C333 C327 1.429 1_455 S
C333 C334 1.523 . S
C334 C315 1.368 1_455 S
C334 C328 1.368 . S
C334 C333 1.523 . S
C335 C319 1.429 . S
C335 C331 1.429 . S
C335 C336 1.523 . S
C336 C320 1.368 . S
C336 C332 1.368 1_455 S
C336 C335 1.523 . S
H337 C312 0.950 . S
H338 C314 0.950 . S
H339 C315 0.949 . S
H340 C317 0.950 1_655 S
H341 C319 0.950 1_655 S
C342 C343 1.349 . S
C342 C344 1.327 . S
C342 H367 0.950 . S
C343 C342 1.349 . S
C343 C359 1.349 . S
C344 C342 1.327 . S
C344 C363 1.429 . S
C344 H368 0.950 . S
C345 C362 1.574 . S
C345 C364 1.368 . S
C345 H369 0.949 . S
H346 C350 0.949 . S
C347 C348 1.349 . S
C347 C349 1.327 . S
C347 H370 0.950 . S
C348 C347 1.349 . S
C348 C360 1.349 . S
C349 C347 1.327 . S
C349 C365 1.429 . S
C349 H371 0.950 . S
C350 H346 0.949 . S
C350 C358 1.574 . S
C350 C366 1.368 . S
H351 C359 0.950 . S
H352 C357 0.950 . S
H353 C358 0.949 . S
H354 C360 0.950 . S
H355 C361 0.950 . S
H356 C362 0.949 . S
C357 H352 0.950 . S
C357 C359 1.327 . S
C357 C363 1.429 . S
C358 C350 1.574 . S
C358 H353 0.949 . S
C358 C364 1.368 . S
C359 C343 1.349 . S
C359 H351 0.950 . S
C359 C357 1.327 . S
C360 C348 1.349 . S
C360 H354 0.950 . S
C360 C361 1.327 . S
C361 H355 0.950 . S
C361 C360 1.327 . S
C361 C365 1.429 . S
C362 C345 1.574 . S
C362 H356 0.949 . S
C362 C366 1.368 . S
C363 C344 1.429 . S
C363 C357 1.429 . S
C363 C364 1.523 . S
C364 C345 1.368 . S
C364 C358 1.368 . S
C364 C363 1.523 . S
C365 C349 1.429 . S
C365 C361 1.429 . S
C365 C366 1.523 . S
C366 C350 1.368 . S
C366 C362 1.368 . S
C366 C365 1.523 . S
H367 C342 0.950 . S
H368 C344 0.950 . S
H369 C345 0.949 . S
H370 C347 0.950 . S
H371 C349 0.950 . S
C372 C373 1.349 . S
C372 C374 1.327 . S
C372 H397 0.950 . S
C373 C372 1.349 . S
C373 C389 1.349 . S
C374 C372 1.327 . S
C374 C393 1.429 . S
C374 H398 0.950 . S
C375 C392 1.574 . S
C375 C394 1.368 . S
C375 H399 0.949 . S
H376 C380 0.949 . S
C377 C378 1.349 . S
C377 C379 1.327 . S
C377 H400 0.950 . S
C378 C377 1.349 . S
C378 C390 1.349 . S
C379 C377 1.327 . S
C379 C395 1.429 . S
C379 H401 0.950 . S
C380 H376 0.949 . S
C380 C388 1.574 . S
C380 C396 1.368 . S
H381 C389 0.950 . S
H382 C387 0.950 . S
H383 C388 0.949 . S
H384 C390 0.950 . S
H385 C391 0.950 . S
H386 C392 0.949 . S
C387 H382 0.950 . S
C387 C389 1.327 . S
C387 C393 1.429 . S
C388 C380 1.574 . S
C388 H383 0.949 . S
C388 C394 1.368 . S
C389 C373 1.349 . S
C389 H381 0.950 . S
C389 C387 1.327 . S
C390 C378 1.349 . S
C390 H384 0.950 . S
C390 C391 1.327 . S
C391 H385 0.950 . S
C391 C390 1.327 . S
C391 C395 1.429 . S
C392 C375 1.574 . S
C392 H386 0.949 . S
C392 C396 1.368 . S
C393 C374 1.429 . S
C393 C387 1.429 . S
C393 C394 1.523 . S
C394 C375 1.368 . S
C394 C388 1.368 . S
C394 C393 1.523 . S
C395 C379 1.429 . S
C395 C391 1.429 . S
C395 C396 1.523 . S
C396 C380 1.368 . S
C396 C392 1.368 . S
C396 C395 1.523 . S
H397 C372 0.950 . S
H398 C374 0.950 . S
H399 C375 0.949 . S
H400 C377 0.950 . S
H401 C379 0.950 . S
C402 C403 1.349 . S
C402 C404 1.327 . S
C402 H427 0.950 1_556 S
C403 C402 1.349 . S
C403 C419 1.349 . S
C404 C402 1.327 . S
C404 C423 1.429 . S
C404 H428 0.950 1_556 S
C405 C422 1.574 . S
C405 C424 1.368 . S
C405 H429 0.949 . S
H406 C410 0.949 . S
C407 C408 1.349 . S
C407 C409 1.327 . S
C407 H430 0.950 . S
C408 C407 1.349 . S
C408 C420 1.349 . S
C409 C407 1.327 . S
C409 C425 1.429 . S
C409 H431 0.950 . S
C410 H406 0.949 . S
C410 C418 1.574 . S
C410 C426 1.368 . S
H411 C419 0.950 . S
H412 C417 0.950 . S
H413 C418 0.949 . S
H414 C420 0.950 . S
H415 C421 0.950 . S
H416 C422 0.949 . S
C417 H412 0.950 . S
C417 C419 1.327 . S
C417 C423 1.429 . S
C418 C410 1.574 . S
C418 H413 0.949 . S
C418 C424 1.368 . S
C419 C403 1.349 . S
C419 H411 0.950 . S
C419 C417 1.327 . S
C420 C408 1.349 . S
C420 H414 0.950 . S
C420 C421 1.327 . S
C421 H415 0.950 . S
C421 C420 1.327 . S
C421 C425 1.429 . S
C422 C405 1.574 . S
C422 H416 0.949 . S
C422 C426 1.368 . S
C423 C404 1.429 . S
C423 C417 1.429 . S
C423 C424 1.523 . S
C424 C405 1.368 . S
C424 C418 1.368 . S
C424 C423 1.523 . S
C425 C409 1.429 . S
C425 C421 1.429 . S
C425 C426 1.523 . S
C426 C410 1.368 . S
C426 C422 1.368 . S
C426 C425 1.523 . S
H427 C402 0.950 1_554 S
H428 C404 0.950 1_554 S
H429 C405 0.949 . S
H430 C407 0.950 . S
H431 C409 0.950 . S
C432 C433 1.349 . S
C432 C434 1.327 . S
C432 H457 0.950 . S
C433 C432 1.349 . S
C433 C449 1.349 . S
C434 C432 1.327 . S
C434 C453 1.429 . S
C434 H458 0.950 . S
C435 C452 1.574 . S
C435 C454 1.368 . S
C435 H459 0.949 . S
H436 C440 0.949 . S
C437 C438 1.349 . S
C437 C439 1.327 . S
C437 H460 0.950 . S
C438 C437 1.349 . S
C438 C450 1.349 . S
C439 C437 1.327 . S
C439 C455 1.429 . S
C439 H461 0.950 . S
C440 H436 0.949 . S
C440 C448 1.574 . S
C440 C456 1.368 . S
H441 C449 0.950 1_554 S
H442 C447 0.950 . S
H443 C448 0.949 . S
H444 C450 0.950 . S
H445 C451 0.950 . S
H446 C452 0.949 . S
C447 H442 0.950 . S
C447 C449 1.327 . S
C447 C453 1.429 . S
C448 C440 1.574 . S
C448 H443 0.949 . S
C448 C454 1.368 . S
C449 C433 1.349 . S
C449 H441 0.950 1_556 S
C449 C447 1.327 . S
C450 C438 1.349 . S
C450 H444 0.950 . S
C450 C451 1.327 . S
C451 H445 0.950 . S
C451 C450 1.327 . S
C451 C455 1.429 . S
C452 C435 1.574 . S
C452 H446 0.949 . S
C452 C456 1.368 . S
C453 C434 1.429 . S
C453 C447 1.429 . S
C453 C454 1.523 . S
C454 C435 1.368 . S
C454 C448 1.368 . S
C454 C453 1.523 . S
C455 C439 1.429 . S
C455 C451 1.429 . S
C455 C456 1.523 . S
C456 C440 1.368 . S
C456 C452 1.368 . S
C456 C455 1.523 . S
H457 C432 0.950 . S
H458 C434 0.950 . S
H459 C435 0.949 . S
H460 C437 0.950 . S
H461 C439 0.950 . S
C462 C463 1.349 . S
C462 C464 1.327 . S
C462 H487 0.950 1_556 S
C463 C462 1.349 . S
C463 C479 1.349 . S
C464 C462 1.327 . S
C464 C483 1.429 . S
C464 H488 0.950 . S
C465 C482 1.574 . S
C465 C484 1.368 . S
C465 H489 0.949 . S
H466 C470 0.949 . S
C467 C468 1.349 . S
C467 C469 1.327 . S
C467 H490 0.950 . S
C468 C467 1.349 . S
C468 C480 1.349 . S
C469 C467 1.327 . S
C469 C485 1.429 . S
C469 H491 0.950 . S
C470 H466 0.949 . S
C470 C478 1.574 . S
C470 C486 1.368 . S
H471 C479 0.950 . S
H472 C477 0.950 . S
H473 C478 0.949 . S
H474 C480 0.950 . S
H475 C481 0.950 . S
H476 C482 0.949 . S
C477 H472 0.950 . S
C477 C479 1.327 . S
C477 C483 1.429 . S
C478 C470 1.574 . S
C478 H473 0.949 . S
C478 C484 1.368 . S
C479 C463 1.349 . S
C479 H471 0.950 . S
C479 C477 1.327 . S
C480 C468 1.349 . S
C480 H474 0.950 . S
C480 C481 1.327 . S
C481 H475 0.950 . S
C481 C480 1.327 . S
C481 C485 1.429 . S
C482 C465 1.574 . S
C482 H476 0.949 . S
C482 C486 1.368 . S
C483 C464 1.429 . S
C483 C477 1.429 . S
C483 C484 1.523 . S
C484 C465 1.368 . S
C484 C478 1.368 . S
C484 C483 1.523 . S
C485 C469 1.429 . S
C485 C481 1.429 . S
C485 C486 1.523 . S
C486 C470 1.368 . S
C486 C482 1.368 . S
C486 C485 1.523 . S
H487 C462 0.950 1_554 S
H488 C464 0.950 . S
H489 C465 0.949 . S
H490 C467 0.950 . S
H491 C469 0.950 . S
C492 C493 1.349 . S
C492 C494 1.327 . S
C492 H517 0.950 . S
C493 C492 1.349 . S
C493 C509 1.349 . S
C494 C492 1.327 . S
C494 C513 1.429 . S
C494 H518 0.950 . S
C495 C512 1.574 . S
C495 C514 1.368 . S
C495 H519 0.949 . S
H496 C500 0.949 . S
C497 C498 1.349 . S
C497 C499 1.327 . S
C497 H520 0.950 . S
C498 C497 1.349 . S
C498 C510 1.349 . S
C499 C497 1.327 . S
C499 C515 1.429 . S
C499 H521 0.950 . S
C500 H496 0.949 . S
C500 C508 1.574 . S
C500 C516 1.368 . S
H501 C509 0.950 . S
H502 C507 0.950 . S
H503 C508 0.949 . S
H504 C510 0.950 . S
H505 C511 0.950 . S
H506 C512 0.949 . S
C507 H502 0.950 . S
C507 C509 1.327 . S
C507 C513 1.429 . S
C508 C500 1.574 . S
C508 H503 0.949 . S
C508 C514 1.368 . S
C509 C493 1.349 . S
C509 H501 0.950 . S
C509 C507 1.327 . S
C510 C498 1.349 . S
C510 H504 0.950 . S
C510 C511 1.327 . S
C511 H505 0.950 . S
C511 C510 1.327 . S
C511 C515 1.429 . S
C512 C495 1.574 . S
C512 H506 0.949 . S
C512 C516 1.368 . S
C513 C494 1.429 . S
C513 C507 1.429 . S
C513 C514 1.523 . S
C514 C495 1.368 . S
C514 C508 1.368 . S
C514 C513 1.523 . S
C515 C499 1.429 . S
C515 C511 1.429 . S
C515 C516 1.523 . S
C516 C500 1.368 . S
C516 C512 1.368 . S
C516 C515 1.523 . S
H517 C492 0.950 . S
H518 C494 0.950 . S
H519 C495 0.949 . S
H520 C497 0.950 . S
H521 C499 0.950 . S
C522 C523 1.349 . S
C522 C524 1.327 . S
C522 H547 0.950 . S
C523 C522 1.349 . S
C523 C539 1.349 . S
C524 C522 1.327 . S
C524 C543 1.429 . S
C524 H548 0.950 . S
C525 C542 1.574 . S
C525 C544 1.368 . S
C525 H549 0.949 . S
H526 C530 0.949 . S
C527 C528 1.349 . S
C527 C529 1.327 1_455 S
C527 H550 0.950 . S
C528 C527 1.349 . S
C528 C540 1.349 1_455 S
C529 C527 1.327 1_655 S
C529 C545 1.429 . S
C529 H551 0.948 1_655 S
C530 H526 0.949 . S
C530 C538 1.574 . S
C530 C546 1.368 . S
H531 C539 0.950 . S
H532 C537 0.950 . S
H533 C538 0.949 . S
H534 C540 0.950 . S
H535 C541 0.950 . S
H536 C542 0.949 . S
C537 H532 0.950 . S
C537 C539 1.327 . S
C537 C543 1.429 . S
C538 C530 1.574 . S
C538 H533 0.949 . S
C538 C544 1.368 . S
C539 C523 1.349 . S
C539 H531 0.950 . S
C539 C537 1.327 . S
C540 C528 1.349 1_655 S
C540 H534 0.950 . S
C540 C541 1.327 . S
C541 H535 0.950 . S
C541 C540 1.327 . S
C541 C545 1.429 . S
C542 C525 1.574 . S
C542 H536 0.949 . S
C542 C546 1.368 . S
C543 C524 1.429 . S
C543 C537 1.429 . S
C543 C544 1.523 . S
C544 C525 1.368 . S
C544 C538 1.368 . S
C544 C543 1.523 . S
C545 C529 1.429 . S
C545 C541 1.429 . S
C545 C546 1.523 . S
C546 C530 1.368 . S
C546 C542 1.368 . S
C546 C545 1.523 . S
H547 C522 0.950 . S
H548 C524 0.950 . S
H549 C525 0.949 . S
H550 C527 0.950 . S
H551 C529 0.948 1_455 S
C552 C553 1.349 . S
C552 C554 1.327 . S
C552 H577 0.950 . S
C553 C552 1.349 . S
C553 C569 1.349 . S
C554 C552 1.327 . S
C554 C573 1.429 . S
C554 H578 0.950 . S
C555 C572 1.574 . S
C555 C574 1.368 . S
C555 H579 0.949 . S
H556 C560 0.949 . S
C557 C558 1.349 . S
C557 C559 1.327 . S
C557 H580 0.950 . S
C558 C557 1.349 . S
C558 C570 1.349 . S
C559 C557 1.327 . S
C559 C575 1.429 . S
C559 H581 0.950 . S
C560 H556 0.949 . S
C560 C568 1.574 . S
C560 C576 1.368 . S
H561 C569 0.950 . S
H562 C567 0.950 . S
H563 C568 0.949 . S
H564 C570 0.950 . S
H565 C571 0.950 . S
H566 C572 0.949 . S
C567 H562 0.950 . S
C567 C569 1.327 . S
C567 C573 1.429 . S
C568 C560 1.574 . S
C568 H563 0.949 . S
C568 C574 1.368 . S
C569 C553 1.349 . S
C569 H561 0.950 . S
C569 C567 1.327 . S
C570 C558 1.349 . S
C570 H564 0.950 . S
C570 C571 1.327 . S
C571 H565 0.950 . S
C571 C570 1.327 . S
C571 C575 1.429 . S
C572 C555 1.574 . S
C572 H566 0.949 . S
C572 C576 1.368 . S
C573 C554 1.429 . S
C573 C567 1.429 . S
C573 C574 1.523 . S
C574 C555 1.368 . S
C574 C568 1.368 . S
C574 C573 1.523 . S
C575 C559 1.429 . S
C575 C571 1.429 . S
C575 C576 1.523 . S
C576 C560 1.368 . S
C576 C572 1.368 . S
C576 C575 1.523 . S
H577 C552 0.950 . S
H578 C554 0.950 . S
H579 C555 0.949 . S
H580 C557 0.950 . S
H581 C559 0.950 . S
C582 C583 1.349 . S
C582 C584 1.327 . S
C582 H607 0.950 . S
C583 C582 1.349 . S
C583 C599 1.349 . S
C584 C582 1.327 . S
C584 C603 1.429 . S
C584 H608 0.950 . S
C585 C602 1.574 . S
C585 C604 1.368 . S
C585 H609 0.949 . S
H586 C590 0.949 . S
C587 C588 1.349 . S
C587 C589 1.327 . S
C587 H610 0.950 . S
C588 C587 1.349 . S
C588 C600 1.349 . S
C589 C587 1.327 . S
C589 C605 1.429 . S
C589 H611 0.950 . S
C590 H586 0.949 . S
C590 C598 1.574 . S
C590 C606 1.368 . S
H591 C599 0.950 . S
H592 C597 0.950 . S
H593 C598 0.949 . S
H594 C600 0.950 . S
H595 C601 0.950 . S
H596 C602 0.949 . S
C597 H592 0.950 . S
C597 C599 1.327 . S
C597 C603 1.429 . S
C598 C590 1.574 . S
C598 H593 0.949 . S
C598 C604 1.368 . S
C599 C583 1.349 . S
C599 H591 0.950 . S
C599 C597 1.327 . S
C600 C588 1.349 . S
C600 H594 0.950 . S
C600 C601 1.327 . S
C601 H595 0.950 . S
C601 C600 1.327 . S
C601 C605 1.429 . S
C602 C585 1.574 . S
C602 H596 0.949 . S
C602 C606 1.368 . S
C603 C584 1.429 . S
C603 C597 1.429 . S
C603 C604 1.523 . S
C604 C585 1.368 . S
C604 C598 1.368 . S
C604 C603 1.523 . S
C605 C589 1.429 . S
C605 C601 1.429 . S
C605 C606 1.523 . S
C606 C590 1.368 . S
C606 C602 1.368 . S
C606 C605 1.523 . S
H607 C582 0.950 . S
H608 C584 0.950 . S
H609 C585 0.949 . S
H610 C587 0.950 . S
H611 C589 0.950 . S
C612 C613 1.349 . S
C612 C614 1.327 . S
C612 H637 0.950 . S
C613 C612 1.349 . S
C613 C629 1.349 . S
C614 C612 1.327 . S
C614 C633 1.429 . S
C614 H638 0.950 . S
C615 C632 1.574 . S
C615 C634 1.368 . S
C615 H639 0.949 . S
H616 C620 0.949 . S
C617 C618 1.349 . S
C617 C619 1.327 . S
C617 H640 0.950 . S
C618 C617 1.349 . S
C618 C630 1.349 . S
C619 C617 1.327 . S
C619 C635 1.429 . S
C619 H641 0.950 . S
C620 H616 0.949 . S
C620 C628 1.574 . S
C620 C636 1.368 . S
H621 C629 0.950 . S
H622 C627 0.950 . S
H623 C628 0.949 . S
H624 C630 0.950 . S
H625 C631 0.950 . S
H626 C632 0.949 . S
C627 H622 0.950 . S
C627 C629 1.327 . S
C627 C633 1.429 . S
C628 C620 1.574 . S
C628 H623 0.949 . S
C628 C634 1.368 . S
C629 C613 1.349 . S
C629 H621 0.950 . S
C629 C627 1.327 . S
C630 C618 1.349 . S
C630 H624 0.950 . S
C630 C631 1.327 . S
C631 H625 0.950 . S
C631 C630 1.327 . S
C631 C635 1.429 . S
C632 C615 1.574 . S
C632 H626 0.949 . S
C632 C636 1.368 . S
C633 C614 1.429 . S
C633 C627 1.429 . S
C633 C634 1.523 . S
C634 C615 1.368 . S
C634 C628 1.368 . S
C634 C633 1.523 . S
C635 C619 1.429 . S
C635 C631 1.429 . S
C635 C636 1.523 . S
C636 C620 1.368 . S
C636 C632 1.368 . S
C636 C635 1.523 . S
H637 C612 0.950 . S
H638 C614 0.950 . S
H639 C615 0.949 . S
H640 C617 0.950 . S
H641 C619 0.950 . S
C288 C247 1.407 . S
C283 C1 1.517 . S
C318 C243 1.414 . S
C313 C91 1.454 . S
C348 C268 1.407 . S
C343 C121 1.517 . S
C373 C211 1.454 . S
C378 C264 1.414 . S
C403 C20 1.069 . S
C408 C265 0.984 . S
C438 C280 1.007 . S
C433 C80 1.103 . S
C463 C31 1.732 . S
C468 C281 1.594 . S
C498 C277 1.612 . S
C493 C61 1.684 . S
C528 C244 0.984 . S
C523 C140 1.069 . S
C553 C200 1.103 . S
C558 C259 1.007 . S
C588 C260 1.594 . S
C583 C151 1.732 . S
C618 C256 1.630 . S
C613 C181 1.684 . S
