# Generated by pormake.
# Topology rtl, (3,6)-cn, num edge types: 1
# Building blocks:
#     Node 0, Type 0, BuildingBlock: PAMTOO_clean_linker_0, # of connection points: 3
#     Node 1, Type 0, BuildingBlock: PAMTOO_clean_linker_0, # of connection points: 3
#     Node 2, Type 0, BuildingBlock: PAMTOO_clean_linker_0, # of connection points: 3
#     Node 3, Type 0, BuildingBlock: PAMTOO_clean_linker_0, # of connection points: 3
#     Node 4, Type 1, BuildingBlock: VOLQOD_clean_sbu_1, # of connection points: 6
#     Node 5, Type 1, BuildingBlock: VOLQOD_clean_sbu_1, # of connection points: 6
#     Edge 6, Type (0, 1), BuildingBlock: UVAHIK_clean_linker_0, # of connection points: 2
#     Edge 7, Type (0, 1), BuildingBlock: UVAHIK_clean_linker_0, # of connection points: 2
#     Edge 8, Type (0, 1), BuildingBlock: UVAHIK_clean_linker_0, # of connection points: 2
#     Edge 9, Type (0, 1), BuildingBlock: UVAHIK_clean_linker_0, # of connection points: 2
#     Edge 10, Type (0, 1), BuildingBlock: UVAHIK_clean_linker_0, # of connection points: 2
#     Edge 11, Type (0, 1), BuildingBlock: UVAHIK_clean_linker_0, # of connection points: 2
#     Edge 12, Type (0, 1), BuildingBlock: UVAHIK_clean_linker_0, # of connection points: 2
#     Edge 13, Type (0, 1), BuildingBlock: UVAHIK_clean_linker_0, # of connection points: 2
#     Edge 14, Type (0, 1), BuildingBlock: UVAHIK_clean_linker_0, # of connection points: 2
#     Edge 15, Type (0, 1), BuildingBlock: UVAHIK_clean_linker_0, # of connection points: 2
#     Edge 16, Type (0, 1), BuildingBlock: UVAHIK_clean_linker_0, # of connection points: 2
#     Edge 17, Type (0, 1), BuildingBlock: UVAHIK_clean_linker_0, # of connection points: 2
# Relax obj value: 0.041
# Max RMSD: 0.144
# Mean RMSD: 0.097
data_MOF--net-rtl--node1-VOLQOD_clean_sbu_1--node2-PAMTOO_clean_linker_0--edge1-UVAHIK_clean_linker_0
_symmetry_space_group_name_H-M    P1
_symmetry_Int_Tables_number       1
_symmetry_cell_setting            triclinic
loop_
_symmetry_equiv_pos_as_xyz
'x, y, z'
_cell_length_a     48.574484
_cell_length_b     48.567694
_cell_length_c     28.204679
_cell_angle_alpha  92.24705
_cell_angle_beta   90.343731
_cell_angle_gamma 90.008222
loop_
_atom_site_label
_atom_site_type_symbol
_atom_site_fract_x
_atom_site_fract_y
_atom_site_fract_z
_atom_type_partial_charge
H0 H 0.16142 0.84506 0.00129 0.0
H1 H 0.20573 0.77838 0.06279 0.0
H2 H 0.20052 0.78309 0.9115 0.0
H3 H 0.19522 0.72684 0.94488 0.0
C4 C 0.20734 0.72919 0.97841 0.0
O5 O 0.21944 0.75486 0.98149 0.0
H6 H 0.19304 0.72665 0.00864 0.0
C7 C 0.17413 0.82678 -0.00286 0.0
C8 C 0.18013 0.81608 0.9514 0.0
C9 C 0.18321 0.81343 0.03763 0.0
C10 C 0.19846 0.789 0.03204 0.0
C11 C 0.20453 0.77817 0.98658 0.0
C12 C 0.19548 0.79167 0.94642 0.0
H13 H 0.62809 0.67894 0.52951 0.0
H14 H 0.67989 0.72889 0.44415 0.0
H15 H 0.68918 0.73215 0.59563 0.0
H16 H 0.69364 0.78481 0.5555 0.0
C17 C 0.70198 0.7792 0.51977 0.0
O18 O 0.70699 0.75125 0.51607 0.0
H19 H 0.68654 0.78477 0.49241 0.0
C20 C 0.64405 0.69438 0.52672 0.0
C21 C 0.65722 0.70483 0.56806 0.0
C22 C 0.65209 0.70271 0.48176 0.0
C23 C 0.67347 0.72198 0.47845 0.0
C24 C 0.68661 0.73261 0.51952 0.0
C25 C 0.67878 0.7238 0.56415 0.0
H26 H 0.87501 0.18119 -0.00592 0.0
H27 H 0.8116 0.23073 0.93284 0.0
H28 H 0.81943 0.22793 0.08415 0.0
H29 H 0.76344 0.22876 0.05601 0.0
C30 C 0.76502 0.23766 0.0204 0.0
O31 O 0.79121 0.24788 0.01431 0.0
H32 H 0.76073 0.22111 0.99287 0.0
C33 C 0.85828 0.19584 -0.00168 0.0
C34 C 0.84924 0.20361 0.04409 0.0
C35 C 0.84501 0.20553 0.95788 0.0
C36 C 0.82227 0.22314 0.96355 0.0
C37 C 0.8132 0.23114 0.00907 0.0
C38 C 0.82674 0.22159 0.04918 0.0
H39 H 0.33521 0.35543 0.46474 0.0
H40 H 0.28731 0.30455 0.5549 0.0
H41 H 0.27465 0.29964 0.40404 0.0
H42 H 0.22462 0.30122 0.46181 0.0
C43 C 0.23181 0.28897 0.49206 0.0
O44 O 0.25885 0.28125 0.48553 0.0
H45 H 0.22988 0.3021 0.52513 0.0
C46 C 0.31918 0.34022 0.46923 0.0
C47 C 0.30553 0.32888 0.42908 0.0
C48 C 0.31296 0.33159 0.51483 0.0
C49 C 0.29275 0.31128 0.51999 0.0
C50 C 0.27889 0.30003 0.48009 0.0
C51 C 0.28551 0.3085 0.43465 0.0
O52 O 0.93872 0.97502 0.48954 0.0
Zn53 Zn 0.96283 0.00858 0.49203 0.0
O54 O 0.00166 -0.00139 0.49664 0.0
Zn55 Zn 0.01764 0.01546 0.55467 0.0
Zn56 Zn 0.00495 0.95852 0.49794 0.0
Zn57 Zn 0.02116 0.01193 0.44169 0.0
O58 O 0.04765 0.04228 0.53991 0.0
O59 O 0.04998 0.03973 0.46137 0.0
O60 O 0.9512 0.03276 0.54783 0.0
O61 O 0.98916 0.03713 0.5917 0.0
O62 O 0.03404 0.98681 0.59618 0.0
O63 O 0.02436 0.94738 0.55719 0.0
O64 O 0.0278 0.94359 0.44343 0.0
O65 O 0.95518 0.02969 0.43365 0.0
O66 O 0.04008 0.98093 0.40582 0.0
O67 O 0.99554 0.03113 0.39746 0.0
C68 C 0.94338 0.9493 0.49157 0.0
C69 C 0.05817 0.04983 0.5013 0.0
C70 C 0.03503 0.96061 0.59256 0.0
C71 C 0.96384 0.04245 0.58447 0.0
C72 C 0.04081 0.95496 0.41034 0.0
C73 C 0.97003 0.03702 0.39933 0.0
O74 O 0.96778 0.94 0.4953 0.0
O75 O 0.56234 0.47344 0.00643 0.0
Zn76 Zn 0.53917 0.50792 0.00664 0.0
O77 O 0.50002 0.49922 -0.00126 0.0
Zn78 Zn 0.48583 0.5161 0.94191 0.0
Zn79 Zn 0.49529 0.45931 0.99216 0.0
Zn80 Zn 0.47964 0.51353 0.05395 0.0
O81 O 0.45376 0.54094 0.95692 0.0
O82 O 0.44998 0.53992 0.03512 0.0
O83 O 0.55248 0.53217 0.95505 0.0
O84 O 0.51481 0.53901 0.91215 0.0
O85 O 0.47235 0.48759 0.89371 0.0
O86 O 0.47798 0.44813 0.92956 0.0
O87 O 0.47047 0.44534 0.0427 0.0
O88 O 0.54593 0.52918 0.06814 0.0
O89 O 0.46036 0.48296 0.08633 0.0
O90 O 0.50463 0.53365 0.10081 0.0
C91 C 0.55638 0.44792 0.00183 0.0
C92 C 0.44192 0.54856 -0.00466 0.0
C93 C 0.47011 0.46148 0.894 0.0
C94 C 0.54024 0.54334 0.92067 0.0
C95 C 0.45814 0.45713 0.07763 0.0
C96 C 0.53047 0.53817 0.10158 0.0
O97 O 0.5316 0.43984 -0.00383 0.0
C98 C 0.20624 0.24902 0.45344 0.0
C99 C 0.21448 0.26357 0.49505 0.0
C100 C 0.19104 0.22474 0.45596 0.0
C101 C 0.14569 0.18735 0.53497 0.0
H102 H 0.16206 0.12491 0.44985 0.0
C103 C 0.08819 0.08403 0.54606 0.0
C104 C 0.07932 0.07179 0.5026 0.0
C105 C 0.10669 0.10607 0.54698 0.0
C106 C 0.15712 0.14224 0.47363 0.0
H107 H 0.21443 0.26389 0.57182 0.0
H108 H 0.18768 0.22137 0.57643 0.0
H109 H 0.19025 0.16641 0.44779 0.0
H110 H 0.08354 0.07271 0.42606 0.0
H111 H 0.11548 0.11128 0.42777 0.0
H112 H 0.1123 0.16339 0.56032 0.0
C113 C 0.19248 0.22899 0.54186 0.0
C114 C 0.17324 0.16599 0.47242 0.0
C115 C 0.20777 0.25324 0.53929 0.0
C116 C 0.08993 0.08162 0.46019 0.0
C117 C 0.10839 0.10365 0.46114 0.0
C118 C 0.12952 0.16362 0.53612 0.0
C119 C 0.18396 0.21449 0.50021 0.0
C120 C 0.16754 0.18888 0.50279 0.0
C121 C 0.11672 0.11634 0.50451 0.0
C122 C 0.13491 0.14089 0.50517 0.0
H123 H 0.21161 0.25648 0.41899 0.0
H124 H 0.18456 0.21415 0.42326 0.0
H125 H 0.14059 0.20478 0.55841 0.0
H126 H 0.08053 0.07689 0.5794 0.0
H127 H 0.11303 0.11517 0.58099 0.0
C128 C 0.23941 0.69863 0.02289 0.0
C129 C 0.2296 0.70783 0.9794 0.0
C130 C 0.26173 0.68053 0.02417 0.0
C131 C 0.32224 0.65836 0.95498 0.0
H132 H 0.3232 0.59724 0.03942 0.0
C133 C 0.40802 0.57625 0.94981 0.0
C134 C 0.41788 0.56723 0.99353 0.0
C135 C 0.38489 0.59323 0.94792 0.0
C136 C 0.32336 0.61441 0.01604 0.0
H137 H 0.23552 0.70613 0.90337 0.0
H138 H 0.27437 0.67412 0.90534 0.0
H139 H 0.28259 0.62667 0.03604 0.0
H140 H 0.41126 0.56928 0.06965 0.0
H141 H 0.37108 0.59918 0.06631 0.0
H142 H 0.36304 0.64623 0.93514 0.0
C143 C 0.26485 0.68081 0.93846 0.0
C144 C 0.30009 0.63122 0.01405 0.0
C145 C 0.24251 0.69887 0.93722 0.0
C146 C 0.40419 0.57578 0.03536 0.0
C147 C 0.38104 0.59277 0.03344 0.0
C148 C 0.34551 0.64157 0.95698 0.0
C149 C 0.27482 0.6716 0.98199 0.0
C150 C 0.29929 0.65339 0.98353 0.0
C151 C 0.37109 0.6016 0.98969 0.0
C152 C 0.34634 0.61943 0.98757 0.0
H153 H 0.23009 0.70582 0.05591 0.0
H154 H 0.26921 0.67417 0.0583 0.0
H155 H 0.32244 0.67557 0.93169 0.0
H156 H 0.418 0.57 0.91688 0.0
H157 H 0.37753 0.59942 0.91361 0.0
C158 C 0.75313 0.78579 0.5328 0.0
C159 C 0.72826 0.79496 0.51328 0.0
C160 C 0.7773 0.80098 0.52798 0.0
C161 C 0.80782 0.85693 0.45898 0.0
H162 H 0.85929 0.86235 0.5646 0.0
C163 C 0.89361 0.93887 0.47621 0.0
C164 C 0.91983 0.92997 0.49039 0.0
C165 C 0.87113 0.92099 0.47643 0.0
C166 C 0.84525 0.86075 0.53463 0.0
H167 H 0.70873 0.82786 0.4759 0.0
H168 H 0.75074 0.85485 0.46845 0.0
H169 H 0.81805 0.83416 0.57067 0.0
H170 H 0.94306 0.89522 0.51557 0.0
H171 H 0.90356 0.86406 0.51652 0.0
H172 H 0.83476 0.8843 0.42367 0.0
C173 C 0.75191 0.83537 0.48576 0.0
C174 C 0.82164 0.84455 0.538 0.0
C175 C 0.72781 0.82003 0.4902 0.0
C176 C 0.92313 0.9027 0.5044 0.0
C177 C 0.90054 0.8849 0.50517 0.0
C178 C 0.83129 0.87335 0.45584 0.0
C179 C 0.77699 0.826 0.50447 0.0
C180 C 0.80254 0.84256 0.50031 0.0
C181 C 0.87433 0.89393 0.49134 0.0
C182 C 0.85014 0.87552 0.49373 0.0
H183 H 0.75392 0.76682 0.55171 0.0
H184 H 0.79624 0.79302 0.54251 0.0
H185 H 0.79386 0.85545 0.42891 0.0
H186 H 0.89039 0.95973 0.46506 0.0
H187 H 0.85109 0.92853 0.46599 0.0
C188 C 0.74928 0.28649 0.03865 0.0
C189 C 0.7442 0.26042 0.01705 0.0
C190 C 0.72966 0.30741 0.03631 0.0
C191 C 0.66709 0.32738 0.96974 0.0
H192 H 0.65596 0.37748 0.07843 0.0
C193 C 0.57336 0.39966 0.98805 0.0
C194 C 0.57861 0.42714 0.00293 0.0
C195 C 0.59423 0.37995 0.98901 0.0
C196 C 0.65905 0.36379 0.04767 0.0
H197 H 0.71413 0.23522 0.97859 0.0
H198 H 0.6795 0.27149 0.97537 0.0
H199 H 0.69086 0.34151 0.08218 0.0
H200 H 0.60989 0.45543 0.0307 0.0
H201 H 0.64631 0.42077 0.03285 0.0
H202 H 0.63474 0.34935 0.93579 0.0
C203 C 0.69904 0.27619 0.9925 0.0
C204 C 0.67908 0.34322 0.04971 0.0
C205 C 0.71878 0.25536 -0.0055 0.0
C206 C 0.60519 0.43445 0.01893 0.0
C207 C 0.626 0.41462 0.0204 0.0
C208 C 0.6469 0.34777 0.96791 0.0
C209 C 0.70429 0.30253 0.01314 0.0
C210 C 0.68329 0.3247 0.01081 0.0
C211 C 0.62071 0.38721 0.00532 0.0
C212 C 0.64264 0.3661 0.00689 0.0
H213 H 0.76852 0.29073 0.05714 0.0
H214 H 0.7345 0.32748 0.05229 0.0
H215 H 0.67012 0.31385 0.93878 0.0
H216 H 0.55314 0.39334 0.97543 0.0
H217 H 0.58955 0.3589 0.97761 0.0
C218 C 0.17727 0.85317 0.09563 0.0
C219 C 0.1756 0.8247 0.0853 0.0
C220 C 0.1668 0.86444 0.138 0.0
C221 C 0.1137 0.85076 0.22508 0.0
H222 H 0.145 0.91521 0.29062 0.0
C223 C 0.0585 0.90897 0.38036 0.0
C224 C 0.05793 0.93782 0.37752 0.0
C225 C 0.07524 0.89297 0.35002 0.0
C226 C 0.136 0.89724 0.27259 0.0
H227 H 0.16291 0.78549 0.11218 0.0
H228 H 0.14483 0.80521 0.18681 0.0
H229 H 0.17168 0.89044 0.22957 0.0
H230 H 0.07459 0.97243 0.34053 0.0
H231 H 0.10352 0.94452 0.28754 0.0
H232 H 0.07776 0.85798 0.26729 0.0
C233 C 0.15397 0.81882 0.16177 0.0
C234 C 0.15127 0.88305 0.23772 0.0
C235 C 0.16454 0.80751 0.11931 0.0
C236 C 0.07449 0.95028 0.34372 0.0
C237 C 0.09129 0.93431 0.31361 0.0
C238 C 0.09845 0.86492 0.26006 0.0
C239 C 0.15442 0.84748 0.17104 0.0
C240 C 0.14002 0.86007 0.21275 0.0
C241 C 0.09187 0.9055 0.31645 0.0
C242 C 0.10918 0.8887 0.2833 0.0
H243 H 0.18599 0.86685 0.07026 0.0
H244 H 0.16726 0.88661 0.1438 0.0
H245 H 0.10429 0.83333 0.20609 0.0
H246 H 0.04606 0.89871 0.40608 0.0
H247 H 0.07538 0.87081 0.35313 0.0
C248 C 0.66805 0.68611 0.64771 0.0
C249 C 0.64855 0.69521 0.61482 0.0
C250 C 0.65946 0.67393 0.68926 0.0
C251 C 0.59839 0.66354 0.76523 0.0
H252 H 0.63181 0.59272 0.78811 0.0
C253 C 0.54123 0.57816 0.85779 0.0
C254 C 0.55545 0.56265 0.8911 0.0
C255 C 0.55517 0.59708 0.83082 0.0
C256 C 0.62258 0.61267 0.78277 0.0
H257 H 0.60499 0.70034 0.60079 0.0
H258 H 0.59 0.67892 0.67272 0.0
H259 H 0.65205 0.62248 0.72993 0.0
H260 H 0.59561 0.55478 0.92195 0.0
H261 H 0.62005 0.58778 0.87416 0.0
H262 H 0.56828 0.65321 0.81666 0.0
C263 C 0.61188 0.68121 0.6668 0.0
C264 C 0.63421 0.62976 0.74955 0.0
C265 C 0.62043 0.69322 0.62532 0.0
C266 C 0.58404 0.56638 0.89656 0.0
C267 C 0.59805 0.58522 0.86921 0.0
C268 C 0.58674 0.64644 0.79827 0.0
C269 C 0.63126 0.67088 0.69875 0.0
C270 C 0.62175 0.65501 0.73943 0.0
C271 C 0.58369 0.60086 0.83629 0.0
C272 C 0.59825 0.62049 0.80633 0.0
H273 H 0.68986 0.68733 0.64035 0.0
H274 H 0.67486 0.66637 0.71345 0.0
H275 H 0.58864 0.68312 0.75885 0.0
H276 H 0.51922 0.57586 0.85264 0.0
H277 H 0.54364 0.60849 0.80511 0.0
C278 C 0.84619 0.18072 0.12202 0.0
C279 C 0.86238 0.19136 0.08589 0.0
C280 C 0.85839 0.166 0.15818 0.0
C281 C 0.9194 0.12391 0.17989 0.0
H282 H 0.89657 0.12982 0.31137 0.0
C283 C 0.9742 0.06516 0.32711 0.0
C284 C 0.95766 0.05396 0.36226 0.0
C285 C 0.9628 0.08251 0.2939 0.0
C286 C 0.90294 0.12772 0.27467 0.0
H287 H 0.90415 0.1965 0.06098 0.0
H288 H 0.92543 0.17082 0.12412 0.0
H289 H 0.87654 0.16054 0.25402 0.0
H290 H 0.916 0.05173 0.38935 0.0
H291 H 0.89609 0.08159 0.33088 0.0
H292 H 0.9455 0.09089 0.20021 0.0
C293 C 0.90328 0.17338 0.12396 0.0
C294 C 0.89153 0.14536 0.24191 0.0
C295 C 0.89111 0.18812 0.0879 0.0
C296 C 0.92937 0.0601 0.36289 0.0
C297 C 0.91798 0.07739 0.3296 0.0
C298 C 0.93073 0.10622 0.21257 0.0
C299 C 0.88699 0.16163 0.15885 0.0
C300 C 0.89963 0.14362 0.19418 0.0
C301 C 0.9346 0.08898 0.29499 0.0
C302 C 0.9226 0.10788 0.26031 0.0
H303 H 0.82398 0.18264 0.12113 0.0
H304 H 0.84529 0.15701 0.18439 0.0
H305 H 0.92568 0.12172 0.14315 0.0
H306 H -0.00391 0.06097 0.32571 0.0
H307 H 0.97623 0.09133 0.268 0.0
C308 C 0.33819 0.32719 0.59211 0.0
C309 C 0.32786 0.34386 0.55649 0.0
C310 C 0.35419 0.3387 0.62922 0.0
C311 C 0.39838 0.39867 0.65771 0.0
H312 H 0.3885 0.37896 0.7884 0.0
C313 C 0.44657 0.46097 0.81475 0.0
C314 C 0.45676 0.44653 0.85333 0.0
C315 C 0.43229 0.44715 0.77792 0.0
C316 C 0.39178 0.38437 0.75197 0.0
H317 H 0.32486 0.38578 0.53315 0.0
H318 H 0.35268 0.40581 0.59779 0.0
H319 H 0.35981 0.35723 0.72617 0.0
H320 H 0.4606 0.40603 0.88274 0.0
H321 H 0.43592 0.38191 0.8181 0.0
H322 H 0.43021 0.42589 0.68336 0.0
C323 C 0.34899 0.3838 0.59651 0.0
C324 C 0.37532 0.37196 0.71639 0.0
C325 C 0.33303 0.37234 0.55957 0.0
C326 C 0.45293 0.41783 0.85366 0.0
C327 C 0.43864 0.40401 0.81679 0.0
C328 C 0.41484 0.41102 0.6932 0.0
C329 C 0.36011 0.36705 0.6313 0.0
C330 C 0.37824 0.37924 0.66898 0.0
C331 C 0.42792 0.41857 0.77878 0.0
C332 C 0.41152 0.40424 0.74078 0.0
H333 H 0.3347 0.30515 0.59043 0.0
H334 H 0.3626 0.32528 0.65544 0.0
H335 H 0.40148 0.40428 0.62133 0.0
H336 H 0.44909 0.48309 0.81337 0.0
H337 H 0.42402 0.45901 0.74939 0.0
C338 C 0.65462 0.68042 0.40022 0.0
C339 C 0.63871 0.69026 0.4387 0.0
C340 C 0.64224 0.66587 0.36203 0.0
C341 C 0.58104 0.62357 0.33433 0.0
H342 H 0.60354 0.63098 0.20379 0.0
C343 C 0.52594 0.56663 0.17728 0.0
C344 C 0.54264 0.55524 0.14099 0.0
C345 C 0.53727 0.58382 0.21317 0.0
C346 C 0.59724 0.6285 0.24015 0.0
H347 H 0.59722 0.69411 0.4661 0.0
H348 H 0.57558 0.6689 0.39932 0.0
H349 H 0.62377 0.661 0.2661 0.0
H350 H 0.58448 0.5527 0.11448 0.0
H351 H 0.60422 0.58238 0.17739 0.0
H352 H 0.55469 0.59096 0.30853 0.0
C353 C 0.59768 0.67185 0.39913 0.0
C354 C 0.60879 0.64572 0.27579 0.0
C355 C 0.61005 0.68633 0.43728 0.0
C356 C 0.57098 0.56116 0.14178 0.0
C357 C 0.58229 0.57835 0.17764 0.0
C358 C 0.5695 0.60637 0.29873 0.0
C359 C 0.6137 0.66095 0.36157 0.0
C360 C 0.60087 0.64339 0.32329 0.0
C361 C 0.56554 0.59001 0.21356 0.0
C362 C 0.57754 0.60857 0.25127 0.0
H363 H 0.67678 0.68291 0.40057 0.0
H364 H 0.65518 0.65753 0.33382 0.0
H365 H 0.57487 0.62091 0.3707 0.0
H366 H 0.50401 0.56259 0.1777 0.0
H367 H 0.52378 0.59269 0.24011 0.0
C368 C 0.88274 0.19448 0.90045 0.0
C369 C 0.85445 0.19594 0.9102 0.0
C370 C 0.89206 0.18191 0.85828 0.0
C371 C 0.87113 0.12867 0.76997 0.0
H372 H 0.93804 0.15103 0.70775 0.0
C373 C 0.92062 0.06553 0.61384 0.0
C374 C 0.94917 0.06129 0.61818 0.0
C375 C 0.90704 0.08414 0.64468 0.0
C376 C 0.91935 0.14454 0.72485 0.0
H377 H 0.81365 0.18669 0.88242 0.0
H378 H 0.82997 0.16504 0.80803 0.0
H379 H 0.91725 0.18161 0.76816 0.0
H380 H 0.98577 0.07326 0.65847 0.0
H381 H 0.96205 0.10561 0.71217 0.0
H382 H 0.87357 0.09137 0.72711 0.0
C383 C 0.84493 0.17329 0.83343 0.0
C384 C 0.90744 0.16202 0.75939 0.0
C385 C 0.83557 0.18593 0.87575 0.0
C386 C 0.96378 0.07598 0.65413 0.0
C387 C 0.95025 0.09472 0.68464 0.0
C388 C 0.88298 0.11124 0.73519 0.0
C389 C 0.87331 0.17056 0.82478 0.0
C390 C 0.88359 0.15398 0.78324 0.0
C391 C 0.92178 0.09906 0.68014 0.0
C392 C 0.90759 0.11871 0.71319 0.0
H393 H 0.89773 0.20232 0.92617 0.0
H394 H 0.91406 0.17995 0.85306 0.0
H395 H 0.85297 0.12167 0.78805 0.0
H396 H 0.90875 0.05456 0.58651 0.0
H397 H 0.88509 0.08715 0.64036 0.0
C398 C 0.32068 0.31987 0.34516 0.0
C399 C 0.31272 0.33857 0.38174 0.0
C400 C 0.33155 0.3295 0.30306 0.0
C401 C 0.34036 0.3924 0.23392 0.0
H402 H 0.41168 0.36113 0.2021 0.0
C403 C 0.42373 0.45397 0.1428 0.0
C404 C 0.43968 0.44081 0.10723 0.0
C405 C 0.40532 0.43893 0.16932 0.0
C406 C 0.39158 0.36978 0.20988 0.0
H407 H 0.30795 0.38174 0.40218 0.0
H408 H 0.32685 0.39859 0.32906 0.0
H409 H 0.38253 0.3387 0.2592 0.0
H410 H 0.44892 0.40137 0.07195 0.0
H411 H 0.41678 0.37506 0.11872 0.0
H412 H 0.34987 0.42407 0.18601 0.0
C413 C 0.32475 0.37655 0.33249 0.0
C414 C 0.37484 0.35689 0.24247 0.0
C415 C 0.31416 0.36695 0.37453 0.0
C416 C 0.43699 0.41215 0.09915 0.0
C417 C 0.41861 0.39706 0.12592 0.0
C418 C 0.35709 0.40529 0.20143 0.0
C419 C 0.33427 0.35797 0.29683 0.0
C420 C 0.34944 0.36857 0.25593 0.0
C421 C 0.40246 0.41035 0.16103 0.0
C422 C 0.38323 0.39459 0.19023 0.0
H423 H 0.3198 0.29787 0.35006 0.0
H424 H 0.33854 0.31474 0.27599 0.0
H425 H 0.32068 0.40161 0.24305 0.0
H426 H 0.42526 0.47599 0.15003 0.0
H427 H 0.39354 0.44966 0.19679 0.0
C428 C 0.16969 0.85891 0.90802 0.0
C429 C 0.16925 0.83002 0.90936 0.0
C430 C 0.15698 0.87227 0.87087 0.0
C431 C 0.10194 0.86186 0.78222 0.0
H432 H 0.13208 0.92801 0.7299 0.0
C433 C 0.05101 0.91625 0.62587 0.0
C434 C 0.04992 0.9452 0.62901 0.0
C435 C 0.06614 0.90171 0.65887 0.0
C436 C 0.12331 0.9097 0.7445 0.0
H437 H 0.15596 0.79243 0.87198 0.0
H438 H 0.1342 0.81579 0.80645 0.0
H439 H 0.15887 0.90304 0.78771 0.0
H440 H 0.06363 0.98153 0.66982 0.0
H441 H 0.08984 0.95608 0.72764 0.0
H442 H 0.06632 0.86862 0.73922 0.0
C443 C 0.14403 0.8281 0.83458 0.0
C444 C 0.13866 0.89538 0.77753 0.0
C445 C 0.15677 0.81471 0.87179 0.0
C446 C 0.06405 0.95925 0.66629 0.0
C447 C 0.07924 0.94469 0.69922 0.0
C448 C 0.08662 0.87616 0.74914 0.0
C449 C 0.14358 0.85704 0.83417 0.0
C450 C 0.12806 0.8714 0.797 0.0
C451 C 0.08058 0.91578 0.69569 0.0
C452 C 0.09706 0.90033 0.73018 0.0
H453 H 0.17946 0.87123 0.93621 0.0
H454 H 0.15685 0.89459 0.87183 0.0
H455 H 0.09299 0.84373 0.79716 0.0
H456 H 0.04043 0.90475 0.59757 0.0
H457 H 0.06697 0.87945 0.65497 0.0
loop_
_geom_bond_atom_site_label_1
_geom_bond_atom_site_label_2
_geom_bond_distance
_geom_bond_site_symmetry_2
_ccdc_geom_bond_type
H0 C7 0.929 . S
H1 C10 0.930 . S
H2 C12 0.929 . S
H3 C4 0.969 . S
C4 H3 0.969 . S
C4 O5 1.550 1_554 S
C4 H6 0.973 . S
O5 C4 1.550 1_556 S
O5 C11 1.412 . S
H6 C4 0.973 . S
C7 H0 0.929 . S
C7 C8 1.400 1_554 S
C7 C9 1.364 . S
C8 C7 1.400 1_556 S
C8 C12 1.377 . S
C9 C7 1.364 . S
C9 C10 1.374 . S
C10 H1 0.930 . S
C10 C9 1.374 . S
C10 C11 1.383 1_554 S
C11 O5 1.412 . S
C11 C10 1.383 1_556 S
C11 C12 1.394 . S
C12 H2 0.929 . S
C12 C8 1.377 . S
C12 C11 1.394 . S
H13 C20 0.929 . S
H14 C23 0.930 . S
H15 C25 0.929 . S
H16 C17 0.969 . S
C17 H16 0.969 . S
C17 O18 1.550 . S
C17 H19 0.973 . S
O18 C17 1.550 . S
O18 C24 1.412 . S
H19 C17 0.973 . S
C20 H13 0.929 . S
C20 C21 1.400 . S
C20 C22 1.364 . S
C21 C20 1.400 . S
C21 C25 1.377 . S
C22 C20 1.364 . S
C22 C23 1.374 . S
C23 H14 0.930 . S
C23 C22 1.374 . S
C23 C24 1.383 . S
C24 O18 1.412 . S
C24 C23 1.383 . S
C24 C25 1.394 . S
C25 H15 0.929 . S
C25 C21 1.377 . S
C25 C24 1.394 . S
H26 C33 0.929 . S
H27 C36 0.930 . S
H28 C38 0.929 . S
H29 C30 0.969 . S
C30 H29 0.969 . S
C30 O31 1.550 1_556 S
C30 H32 0.973 . S
O31 C30 1.550 1_554 S
O31 C37 1.412 . S
H32 C30 0.973 . S
C33 H26 0.929 . S
C33 C34 1.400 . S
C33 C35 1.364 1_554 S
C34 C33 1.400 . S
C34 C38 1.377 . S
C35 C33 1.364 1_556 S
C35 C36 1.374 . S
C36 H27 0.930 . S
C36 C35 1.374 . S
C36 C37 1.383 1_556 S
C37 O31 1.412 . S
C37 C36 1.383 1_554 S
C37 C38 1.394 . S
C38 H28 0.929 . S
C38 C34 1.377 . S
C38 C37 1.394 . S
H39 C46 0.929 . S
H40 C49 0.930 . S
H41 C51 0.929 . S
H42 C43 0.969 . S
C43 H42 0.969 . S
C43 O44 1.550 . S
C43 H45 0.973 . S
O44 C43 1.550 . S
O44 C50 1.412 . S
H45 C43 0.973 . S
C46 H39 0.929 . S
C46 C47 1.400 . S
C46 C48 1.364 . S
C47 C46 1.400 . S
C47 C51 1.377 . S
C48 C46 1.364 . S
C48 C49 1.374 . S
C49 H40 0.930 . S
C49 C48 1.374 . S
C49 C50 1.383 . S
C50 O44 1.412 . S
C50 C49 1.383 . S
C50 C51 1.394 . S
C51 H41 0.929 . S
C51 C47 1.377 . S
C51 C50 1.394 . S
O52 Zn53 1.953 1_565 S
O52 C68 1.225 . S
Zn53 O52 1.953 1_545 S
Zn53 O54 1.949 1_655 S
Zn53 O60 1.919 . S
Zn53 O65 1.924 . S
O54 Zn53 1.949 1_455 S
O54 Zn55 1.923 . S
O54 Zn56 1.950 1_545 S
O54 Zn57 1.945 . S
Zn55 O54 1.923 . S
Zn55 O58 1.933 . S
Zn55 O61 1.941 1_455 S
Zn55 O62 1.965 1_545 S
Zn56 O54 1.950 1_565 S
Zn56 O63 1.938 . S
Zn56 O64 1.906 . S
Zn56 O74 1.953 1_455 S
Zn57 O54 1.945 . S
Zn57 O59 1.932 . S
Zn57 O66 1.977 . S
Zn57 O67 1.910 1_455 S
O58 Zn55 1.933 . S
O58 C69 1.226 . S
O59 Zn57 1.932 . S
O59 C69 1.307 . S
O60 Zn53 1.919 . S
O60 C71 1.253 . S
O61 Zn55 1.941 1_655 S
O61 C71 1.283 . S
O62 Zn55 1.965 1_565 S
O62 C70 1.303 . S
O63 Zn56 1.938 . S
O63 C70 1.247 . S
O64 Zn56 1.906 . S
O64 C72 1.304 . S
O65 Zn53 1.924 . S
O65 C73 1.311 . S
O66 Zn57 1.977 . S
O66 C72 1.272 1_545 S
O67 Zn57 1.910 1_655 S
O67 C73 1.231 . S
C68 O52 1.225 . S
C68 O74 1.298 . S
C69 O58 1.226 . S
C69 O59 1.307 . S
C70 O62 1.303 . S
C70 O63 1.247 . S
C71 O60 1.253 . S
C71 O61 1.283 . S
C72 O64 1.304 . S
C72 O66 1.272 1_565 S
C73 O65 1.311 . S
C73 O67 1.231 . S
O74 Zn56 1.953 1_655 S
O74 C68 1.298 . S
O75 Zn76 1.953 . S
O75 C91 1.225 1_556 S
Zn76 O75 1.953 . S
Zn76 O77 1.949 1_556 S
Zn76 O83 1.919 . S
Zn76 O88 1.924 1_556 S
O77 Zn76 1.949 1_554 S
O77 Zn78 1.923 1_554 S
O77 Zn79 1.950 . S
O77 Zn80 1.945 . S
Zn78 O77 1.923 1_556 S
Zn78 O81 1.933 . S
Zn78 O84 1.941 . S
Zn78 O85 1.965 . S
Zn79 O77 1.950 . S
Zn79 O86 1.938 1_554 S
Zn79 O87 1.906 . S
Zn79 O97 1.953 . S
Zn80 O77 1.945 . S
Zn80 O82 1.932 . S
Zn80 O89 1.977 . S
Zn80 O90 1.910 . S
O81 Zn78 1.933 . S
O81 C92 1.226 1_556 S
O82 Zn80 1.932 . S
O82 C92 1.307 . S
O83 Zn76 1.919 . S
O83 C94 1.253 . S
O84 Zn78 1.941 . S
O84 C94 1.283 . S
O85 Zn78 1.965 . S
O85 C93 1.303 . S
O86 Zn79 1.938 1_556 S
O86 C93 1.247 . S
O87 Zn79 1.906 . S
O87 C95 1.304 . S
O88 Zn76 1.924 1_554 S
O88 C96 1.311 . S
O89 Zn80 1.977 . S
O89 C95 1.272 . S
O90 Zn80 1.910 . S
O90 C96 1.231 . S
C91 O75 1.225 1_554 S
C91 O97 1.298 . S
C92 O81 1.226 1_554 S
C92 O82 1.307 . S
C93 O85 1.303 . S
C93 O86 1.247 . S
C94 O83 1.253 . S
C94 O84 1.283 . S
C95 O87 1.304 . S
C95 O89 1.272 . S
C96 O88 1.311 . S
C96 O90 1.231 . S
O97 Zn79 1.953 . S
O97 C91 1.298 . S
C98 C99 1.349 . S
C98 C100 1.327 . S
C98 H123 0.950 . S
C99 C98 1.349 . S
C99 C115 1.349 . S
C100 C98 1.327 . S
C100 C119 1.429 . S
C100 H124 0.950 . S
C101 C118 1.574 . S
C101 C120 1.368 . S
C101 H125 0.949 . S
H102 C106 0.949 . S
C103 C104 1.349 . S
C103 C105 1.327 . S
C103 H126 0.950 . S
C104 C103 1.349 . S
C104 C116 1.349 . S
C105 C103 1.327 . S
C105 C121 1.429 . S
C105 H127 0.950 . S
C106 H102 0.949 . S
C106 C114 1.574 . S
C106 C122 1.368 . S
H107 C115 0.950 . S
H108 C113 0.950 . S
H109 C114 0.949 . S
H110 C116 0.950 . S
H111 C117 0.950 . S
H112 C118 0.949 . S
C113 H108 0.950 . S
C113 C115 1.327 . S
C113 C119 1.429 . S
C114 C106 1.574 . S
C114 H109 0.949 . S
C114 C120 1.368 . S
C115 C99 1.349 . S
C115 H107 0.950 . S
C115 C113 1.327 . S
C116 C104 1.349 . S
C116 H110 0.950 . S
C116 C117 1.327 . S
C117 H111 0.950 . S
C117 C116 1.327 . S
C117 C121 1.429 . S
C118 C101 1.574 . S
C118 H112 0.949 . S
C118 C122 1.368 . S
C119 C100 1.429 . S
C119 C113 1.429 . S
C119 C120 1.523 . S
C120 C101 1.368 . S
C120 C114 1.368 . S
C120 C119 1.523 . S
C121 C105 1.429 . S
C121 C117 1.429 . S
C121 C122 1.523 . S
C122 C106 1.368 . S
C122 C118 1.368 . S
C122 C121 1.523 . S
H123 C98 0.950 . S
H124 C100 0.950 . S
H125 C101 0.949 . S
H126 C103 0.950 . S
H127 C105 0.950 . S
C128 C129 1.349 . S
C128 C130 1.327 . S
C128 H153 0.950 . S
C129 C128 1.349 . S
C129 C145 1.349 1_554 S
C130 C128 1.327 . S
C130 C149 1.429 . S
C130 H154 0.950 . S
C131 C148 1.574 . S
C131 C150 1.368 1_556 S
C131 H155 0.949 . S
H132 C136 0.949 . S
C133 C134 1.349 1_556 S
C133 C135 1.327 . S
C133 H156 0.950 . S
C134 C133 1.349 1_554 S
C134 C146 1.349 . S
C135 C133 1.327 . S
C135 C151 1.429 1_556 S
C135 H157 0.950 . S
C136 H132 0.949 . S
C136 C144 1.574 . S
C136 C152 1.368 . S
H137 C145 0.950 . S
H138 C143 0.950 . S
H139 C144 0.949 . S
H140 C146 0.950 . S
H141 C147 0.950 . S
H142 C148 0.949 . S
C143 H138 0.950 . S
C143 C145 1.327 . S
C143 C149 1.429 1_556 S
C144 C136 1.574 . S
C144 H139 0.949 . S
C144 C150 1.368 . S
C145 C129 1.349 1_556 S
C145 H137 0.950 . S
C145 C143 1.327 . S
C146 C134 1.349 . S
C146 H140 0.950 . S
C146 C147 1.327 . S
C147 H141 0.950 . S
C147 C146 1.327 . S
C147 C151 1.429 . S
C148 C131 1.574 . S
C148 H142 0.949 . S
C148 C152 1.368 1_556 S
C149 C130 1.429 . S
C149 C143 1.429 1_554 S
C149 C150 1.523 . S
C150 C131 1.368 1_554 S
C150 C144 1.368 . S
C150 C149 1.523 . S
C151 C135 1.429 1_554 S
C151 C147 1.429 . S
C151 C152 1.523 . S
C152 C136 1.368 . S
C152 C148 1.368 1_554 S
C152 C151 1.523 . S
H153 C128 0.950 . S
H154 C130 0.950 . S
H155 C131 0.949 . S
H156 C133 0.950 . S
H157 C135 0.950 . S
C158 C159 1.349 . S
C158 C160 1.327 . S
C158 H183 0.950 . S
C159 C158 1.349 . S
C159 C175 1.349 . S
C160 C158 1.327 . S
C160 C179 1.429 . S
C160 H184 0.950 . S
C161 C178 1.574 . S
C161 C180 1.368 . S
C161 H185 0.949 . S
H162 C166 0.949 . S
C163 C164 1.349 . S
C163 C165 1.327 . S
C163 H186 0.950 . S
C164 C163 1.349 . S
C164 C176 1.349 . S
C165 C163 1.327 . S
C165 C181 1.429 . S
C165 H187 0.950 . S
C166 H162 0.949 . S
C166 C174 1.574 . S
C166 C182 1.368 . S
H167 C175 0.950 . S
H168 C173 0.950 . S
H169 C174 0.949 . S
H170 C176 0.950 . S
H171 C177 0.950 . S
H172 C178 0.949 . S
C173 H168 0.950 . S
C173 C175 1.327 . S
C173 C179 1.429 . S
C174 C166 1.574 . S
C174 H169 0.949 . S
C174 C180 1.368 . S
C175 C159 1.349 . S
C175 H167 0.950 . S
C175 C173 1.327 . S
C176 C164 1.349 . S
C176 H170 0.950 . S
C176 C177 1.327 . S
C177 H171 0.950 . S
C177 C176 1.327 . S
C177 C181 1.429 . S
C178 C161 1.574 . S
C178 H172 0.949 . S
C178 C182 1.368 . S
C179 C160 1.429 . S
C179 C173 1.429 . S
C179 C180 1.523 . S
C180 C161 1.368 . S
C180 C174 1.368 . S
C180 C179 1.523 . S
C181 C165 1.429 . S
C181 C177 1.429 . S
C181 C182 1.523 . S
C182 C166 1.368 . S
C182 C178 1.368 . S
C182 C181 1.523 . S
H183 C158 0.950 . S
H184 C160 0.950 . S
H185 C161 0.949 . S
H186 C163 0.950 . S
H187 C165 0.950 . S
C188 C189 1.357 . S
C188 C190 1.327 . S
C188 H213 0.950 . S
C189 C188 1.357 . S
C189 C205 1.340 1_554 S
C190 C188 1.327 . S
C190 C209 1.442 . S
C190 H214 0.950 . S
C191 C208 1.574 . S
C191 C210 1.351 1_556 S
C191 H215 0.949 . S
H192 C196 0.949 . S
C193 C194 1.349 1_556 S
C193 C195 1.327 . S
C193 H216 0.950 . S
C194 C193 1.349 1_554 S
C194 C206 1.349 . S
C195 C193 1.327 . S
C195 C211 1.429 1_556 S
C195 H217 0.950 . S
C196 H192 0.949 . S
C196 C204 1.574 . S
C196 C212 1.368 . S
H197 C205 0.950 . S
H198 C203 0.950 . S
H199 C204 0.949 . S
H200 C206 0.950 . S
H201 C207 0.950 . S
H202 C208 0.949 . S
C203 H198 0.950 . S
C203 C205 1.327 . S
C203 C209 1.416 1_556 S
C204 C196 1.574 . S
C204 H199 0.949 . S
C204 C210 1.386 . S
C205 C189 1.340 1_556 S
C205 H197 0.950 . S
C205 C203 1.327 . S
C206 C194 1.349 . S
C206 H200 0.950 . S
C206 C207 1.327 . S
C207 H201 0.950 . S
C207 C206 1.327 . S
C207 C211 1.429 . S
C208 C191 1.574 . S
C208 H202 0.949 . S
C208 C212 1.368 1_556 S
C209 C190 1.442 . S
C209 C203 1.416 1_554 S
C209 C210 1.523 . S
C210 C191 1.351 1_554 S
C210 C204 1.386 . S
C210 C209 1.523 . S
C211 C195 1.429 1_554 S
C211 C207 1.429 . S
C211 C212 1.523 . S
C212 C196 1.368 . S
C212 C208 1.368 1_554 S
C212 C211 1.523 . S
H213 C188 0.950 . S
H214 C190 0.950 . S
H215 C191 0.949 . S
H216 C193 0.950 . S
H217 C195 0.950 . S
C218 C219 1.349 . S
C218 C220 1.327 . S
C218 H243 0.950 . S
C219 C218 1.349 . S
C219 C235 1.349 . S
C220 C218 1.327 . S
C220 C239 1.429 . S
C220 H244 0.950 . S
C221 C238 1.574 . S
C221 C240 1.368 . S
C221 H245 0.949 . S
H222 C226 0.949 . S
C223 C224 1.349 . S
C223 C225 1.327 . S
C223 H246 0.950 . S
C224 C223 1.349 . S
C224 C236 1.349 . S
C225 C223 1.327 . S
C225 C241 1.429 . S
C225 H247 0.950 . S
C226 H222 0.949 . S
C226 C234 1.574 . S
C226 C242 1.368 . S
H227 C235 0.950 . S
H228 C233 0.950 . S
H229 C234 0.949 . S
H230 C236 0.950 . S
H231 C237 0.950 . S
H232 C238 0.949 . S
C233 H228 0.950 . S
C233 C235 1.327 . S
C233 C239 1.429 . S
C234 C226 1.574 . S
C234 H229 0.949 . S
C234 C240 1.368 . S
C235 C219 1.349 . S
C235 H227 0.950 . S
C235 C233 1.327 . S
C236 C224 1.349 . S
C236 H230 0.950 . S
C236 C237 1.327 . S
C237 H231 0.950 . S
C237 C236 1.327 . S
C237 C241 1.429 . S
C238 C221 1.574 . S
C238 H232 0.949 . S
C238 C242 1.368 . S
C239 C220 1.429 . S
C239 C233 1.429 . S
C239 C240 1.523 . S
C240 C221 1.368 . S
C240 C234 1.368 . S
C240 C239 1.523 . S
C241 C225 1.429 . S
C241 C237 1.429 . S
C241 C242 1.523 . S
C242 C226 1.368 . S
C242 C238 1.368 . S
C242 C241 1.523 . S
H243 C218 0.950 . S
H244 C220 0.950 . S
H245 C221 0.949 . S
H246 C223 0.950 . S
H247 C225 0.950 . S
C248 C249 1.349 . S
C248 C250 1.327 . S
C248 H273 0.950 . S
C249 C248 1.349 . S
C249 C265 1.349 . S
C250 C248 1.327 . S
C250 C269 1.429 . S
C250 H274 0.950 . S
C251 C268 1.574 . S
C251 C270 1.368 . S
C251 H275 0.949 . S
H252 C256 0.949 . S
C253 C254 1.349 . S
C253 C255 1.327 . S
C253 H276 0.950 . S
C254 C253 1.349 . S
C254 C266 1.349 . S
C255 C253 1.327 . S
C255 C271 1.429 . S
C255 H277 0.950 . S
C256 H252 0.949 . S
C256 C264 1.574 . S
C256 C272 1.368 . S
H257 C265 0.950 . S
H258 C263 0.950 . S
H259 C264 0.949 . S
H260 C266 0.950 . S
H261 C267 0.950 . S
H262 C268 0.949 . S
C263 H258 0.950 . S
C263 C265 1.327 . S
C263 C269 1.429 . S
C264 C256 1.574 . S
C264 H259 0.949 . S
C264 C270 1.368 . S
C265 C249 1.349 . S
C265 H257 0.950 . S
C265 C263 1.327 . S
C266 C254 1.349 . S
C266 H260 0.950 . S
C266 C267 1.327 . S
C267 H261 0.950 . S
C267 C266 1.327 . S
C267 C271 1.429 . S
C268 C251 1.574 . S
C268 H262 0.949 . S
C268 C272 1.368 . S
C269 C250 1.429 . S
C269 C263 1.429 . S
C269 C270 1.523 . S
C270 C251 1.368 . S
C270 C264 1.368 . S
C270 C269 1.523 . S
C271 C255 1.429 . S
C271 C267 1.429 . S
C271 C272 1.523 . S
C272 C256 1.368 . S
C272 C268 1.368 . S
C272 C271 1.523 . S
H273 C248 0.950 . S
H274 C250 0.950 . S
H275 C251 0.949 . S
H276 C253 0.950 . S
H277 C255 0.950 . S
C278 C279 1.349 . S
C278 C280 1.327 . S
C278 H303 0.950 . S
C279 C278 1.349 . S
C279 C295 1.349 . S
C280 C278 1.327 . S
C280 C299 1.429 . S
C280 H304 0.950 . S
C281 C298 1.574 . S
C281 C300 1.368 . S
C281 H305 0.949 . S
H282 C286 0.949 . S
C283 C284 1.349 . S
C283 C285 1.327 . S
C283 H306 0.950 . S
C284 C283 1.349 . S
C284 C296 1.349 . S
C285 C283 1.327 . S
C285 C301 1.429 . S
C285 H307 0.950 . S
C286 H282 0.949 . S
C286 C294 1.574 . S
C286 C302 1.368 . S
H287 C295 0.950 . S
H288 C293 0.950 . S
H289 C294 0.949 . S
H290 C296 0.950 . S
H291 C297 0.950 . S
H292 C298 0.949 . S
C293 H288 0.950 . S
C293 C295 1.327 . S
C293 C299 1.429 . S
C294 C286 1.574 . S
C294 H289 0.949 . S
C294 C300 1.368 . S
C295 C279 1.349 . S
C295 H287 0.950 . S
C295 C293 1.327 . S
C296 C284 1.349 . S
C296 H290 0.950 . S
C296 C297 1.327 . S
C297 H291 0.950 . S
C297 C296 1.327 . S
C297 C301 1.429 . S
C298 C281 1.574 . S
C298 H292 0.949 . S
C298 C302 1.368 . S
C299 C280 1.429 . S
C299 C293 1.429 . S
C299 C300 1.523 . S
C300 C281 1.368 . S
C300 C294 1.368 . S
C300 C299 1.523 . S
C301 C285 1.429 . S
C301 C297 1.429 . S
C301 C302 1.523 . S
C302 C286 1.368 . S
C302 C298 1.368 . S
C302 C301 1.523 . S
H303 C278 0.950 . S
H304 C280 0.950 . S
H305 C281 0.949 . S
H306 C283 0.950 . S
H307 C285 0.950 . S
C308 C309 1.349 . S
C308 C310 1.327 . S
C308 H333 0.950 . S
C309 C308 1.349 . S
C309 C325 1.349 . S
C310 C308 1.327 . S
C310 C329 1.429 . S
C310 H334 0.950 . S
C311 C328 1.574 . S
C311 C330 1.368 . S
C311 H335 0.949 . S
H312 C316 0.949 . S
C313 C314 1.349 . S
C313 C315 1.327 . S
C313 H336 0.950 . S
C314 C313 1.349 . S
C314 C326 1.349 . S
C315 C313 1.327 . S
C315 C331 1.429 . S
C315 H337 0.950 . S
C316 H312 0.949 . S
C316 C324 1.574 . S
C316 C332 1.368 . S
H317 C325 0.950 . S
H318 C323 0.950 . S
H319 C324 0.949 . S
H320 C326 0.950 . S
H321 C327 0.950 . S
H322 C328 0.949 . S
C323 H318 0.950 . S
C323 C325 1.327 . S
C323 C329 1.429 . S
C324 C316 1.574 . S
C324 H319 0.949 . S
C324 C330 1.368 . S
C325 C309 1.349 . S
C325 H317 0.950 . S
C325 C323 1.327 . S
C326 C314 1.349 . S
C326 H320 0.950 . S
C326 C327 1.327 . S
C327 H321 0.950 . S
C327 C326 1.327 . S
C327 C331 1.429 . S
C328 C311 1.574 . S
C328 H322 0.949 . S
C328 C332 1.368 . S
C329 C310 1.429 . S
C329 C323 1.429 . S
C329 C330 1.523 . S
C330 C311 1.368 . S
C330 C324 1.368 . S
C330 C329 1.523 . S
C331 C315 1.429 . S
C331 C327 1.429 . S
C331 C332 1.523 . S
C332 C316 1.368 . S
C332 C328 1.368 . S
C332 C331 1.523 . S
H333 C308 0.950 . S
H334 C310 0.950 . S
H335 C311 0.949 . S
H336 C313 0.950 . S
H337 C315 0.950 . S
C338 C339 1.349 . S
C338 C340 1.327 . S
C338 H363 0.950 . S
C339 C338 1.349 . S
C339 C355 1.349 . S
C340 C338 1.327 . S
C340 C359 1.429 . S
C340 H364 0.950 . S
C341 C358 1.574 . S
C341 C360 1.368 . S
C341 H365 0.949 . S
H342 C346 0.949 . S
C343 C344 1.349 . S
C343 C345 1.327 . S
C343 H366 0.950 . S
C344 C343 1.349 . S
C344 C356 1.349 . S
C345 C343 1.327 . S
C345 C361 1.429 . S
C345 H367 0.950 . S
C346 H342 0.949 . S
C346 C354 1.574 . S
C346 C362 1.368 . S
H347 C355 0.950 . S
H348 C353 0.950 . S
H349 C354 0.949 . S
H350 C356 0.950 . S
H351 C357 0.950 . S
H352 C358 0.949 . S
C353 H348 0.950 . S
C353 C355 1.327 . S
C353 C359 1.429 . S
C354 C346 1.574 . S
C354 H349 0.949 . S
C354 C360 1.368 . S
C355 C339 1.349 . S
C355 H347 0.950 . S
C355 C353 1.327 . S
C356 C344 1.349 . S
C356 H350 0.950 . S
C356 C357 1.327 . S
C357 H351 0.950 . S
C357 C356 1.327 . S
C357 C361 1.429 . S
C358 C341 1.574 . S
C358 H352 0.949 . S
C358 C362 1.368 . S
C359 C340 1.429 . S
C359 C353 1.429 . S
C359 C360 1.523 . S
C360 C341 1.368 . S
C360 C354 1.368 . S
C360 C359 1.523 . S
C361 C345 1.429 . S
C361 C357 1.429 . S
C361 C362 1.523 . S
C362 C346 1.368 . S
C362 C358 1.368 . S
C362 C361 1.523 . S
H363 C338 0.950 . S
H364 C340 0.950 . S
H365 C341 0.949 . S
H366 C343 0.950 . S
H367 C345 0.950 . S
C368 C369 1.349 . S
C368 C370 1.327 . S
C368 H393 0.950 . S
C369 C368 1.349 . S
C369 C385 1.349 . S
C370 C368 1.327 . S
C370 C389 1.429 . S
C370 H394 0.950 . S
C371 C388 1.574 . S
C371 C390 1.368 . S
C371 H395 0.949 . S
H372 C376 0.949 . S
C373 C374 1.349 . S
C373 C375 1.327 . S
C373 H396 0.950 . S
C374 C373 1.349 . S
C374 C386 1.349 . S
C375 C373 1.327 . S
C375 C391 1.429 . S
C375 H397 0.950 . S
C376 H372 0.949 . S
C376 C384 1.574 . S
C376 C392 1.368 . S
H377 C385 0.950 . S
H378 C383 0.950 . S
H379 C384 0.949 . S
H380 C386 0.950 . S
H381 C387 0.950 . S
H382 C388 0.949 . S
C383 H378 0.950 . S
C383 C385 1.327 . S
C383 C389 1.429 . S
C384 C376 1.574 . S
C384 H379 0.949 . S
C384 C390 1.368 . S
C385 C369 1.349 . S
C385 H377 0.950 . S
C385 C383 1.327 . S
C386 C374 1.349 . S
C386 H380 0.950 . S
C386 C387 1.327 . S
C387 H381 0.950 . S
C387 C386 1.327 . S
C387 C391 1.429 . S
C388 C371 1.574 . S
C388 H382 0.949 . S
C388 C392 1.368 . S
C389 C370 1.429 . S
C389 C383 1.429 . S
C389 C390 1.523 . S
C390 C371 1.368 . S
C390 C384 1.368 . S
C390 C389 1.523 . S
C391 C375 1.429 . S
C391 C387 1.429 . S
C391 C392 1.523 . S
C392 C376 1.368 . S
C392 C388 1.368 . S
C392 C391 1.523 . S
H393 C368 0.950 . S
H394 C370 0.950 . S
H395 C371 0.949 . S
H396 C373 0.950 . S
H397 C375 0.950 . S
C398 C399 1.349 . S
C398 C400 1.327 . S
C398 H423 0.950 . S
C399 C398 1.349 . S
C399 C415 1.349 . S
C400 C398 1.327 . S
C400 C419 1.429 . S
C400 H424 0.950 . S
C401 C418 1.574 . S
C401 C420 1.368 . S
C401 H425 0.949 . S
H402 C406 0.949 . S
C403 C404 1.349 . S
C403 C405 1.327 . S
C403 H426 0.950 . S
C404 C403 1.349 . S
C404 C416 1.349 . S
C405 C403 1.327 . S
C405 C421 1.429 . S
C405 H427 0.950 . S
C406 H402 0.949 . S
C406 C414 1.574 . S
C406 C422 1.368 . S
H407 C415 0.950 . S
H408 C413 0.950 . S
H409 C414 0.949 . S
H410 C416 0.950 . S
H411 C417 0.950 . S
H412 C418 0.949 . S
C413 H408 0.950 . S
C413 C415 1.327 . S
C413 C419 1.429 . S
C414 C406 1.574 . S
C414 H409 0.949 . S
C414 C420 1.368 . S
C415 C399 1.349 . S
C415 H407 0.950 . S
C415 C413 1.327 . S
C416 C404 1.349 . S
C416 H410 0.950 . S
C416 C417 1.327 . S
C417 H411 0.950 . S
C417 C416 1.327 . S
C417 C421 1.429 . S
C418 C401 1.574 . S
C418 H412 0.949 . S
C418 C422 1.368 . S
C419 C400 1.429 . S
C419 C413 1.429 . S
C419 C420 1.523 . S
C420 C401 1.368 . S
C420 C414 1.368 . S
C420 C419 1.523 . S
C421 C405 1.429 . S
C421 C417 1.429 . S
C421 C422 1.523 . S
C422 C406 1.368 . S
C422 C418 1.368 . S
C422 C421 1.523 . S
H423 C398 0.950 . S
H424 C400 0.950 . S
H425 C401 0.949 . S
H426 C403 0.950 . S
H427 C405 0.950 . S
C428 C429 1.349 . S
C428 C430 1.327 . S
C428 H453 0.950 . S
C429 C428 1.349 . S
C429 C445 1.349 . S
C430 C428 1.327 . S
C430 C449 1.429 . S
C430 H454 0.950 . S
C431 C448 1.574 . S
C431 C450 1.368 . S
C431 H455 0.949 . S
H432 C436 0.949 . S
C433 C434 1.349 . S
C433 C435 1.327 . S
C433 H456 0.950 . S
C434 C433 1.349 . S
C434 C446 1.349 . S
C435 C433 1.327 . S
C435 C451 1.429 . S
C435 H457 0.950 . S
C436 H432 0.949 . S
C436 C444 1.574 . S
C436 C452 1.368 . S
H437 C445 0.950 . S
H438 C443 0.950 . S
H439 C444 0.949 . S
H440 C446 0.950 . S
H441 C447 0.950 . S
H442 C448 0.949 . S
C443 H438 0.950 . S
C443 C445 1.327 . S
C443 C449 1.429 . S
C444 C436 1.574 . S
C444 H439 0.949 . S
C444 C450 1.368 . S
C445 C429 1.349 . S
C445 H437 0.950 . S
C445 C443 1.327 . S
C446 C434 1.349 . S
C446 H440 0.950 . S
C446 C447 1.327 . S
C447 H441 0.950 . S
C447 C446 1.327 . S
C447 C451 1.429 . S
C448 C431 1.574 . S
C448 H442 0.949 . S
C448 C452 1.368 . S
C449 C430 1.429 . S
C449 C443 1.429 . S
C449 C450 1.523 . S
C450 C431 1.368 . S
C450 C444 1.368 . S
C450 C449 1.523 . S
C451 C435 1.429 . S
C451 C447 1.429 . S
C451 C452 1.523 . S
C452 C436 1.368 . S
C452 C448 1.368 . S
C452 C451 1.523 . S
H453 C428 0.950 . S
H454 C430 0.950 . S
H455 C431 0.949 . S
H456 C433 0.950 . S
H457 C435 0.950 . S
C104 C69 1.479 . S
C99 C43 1.429 . S
C129 C4 1.439 . S
C134 C92 1.484 . S
C159 C17 1.477 . S
C164 C68 1.525 . S
C189 C30 1.469 1_554 S
C194 C91 1.522 . S
C224 C72 1.415 . S
C219 C9 1.432 . S
C254 C94 1.460 . S
C249 C21 1.503 . S
C279 C34 1.465 . S
C284 C73 1.421 . S
C309 C48 1.488 . S
C314 C93 1.453 . S
C344 C96 1.418 . S
C339 C22 1.442 . S
C374 C71 1.465 . S
C369 C35 1.498 . S
C404 C95 1.417 . S
C399 C47 1.454 . S
C429 C8 1.492 . S
C434 C70 1.447 . S
