# Generated by pormake.
# Topology eea, (3,6)-cn, num edge types: 1
# Building blocks:
#     Node 0, Type 0, BuildingBlock: KAKCAD_clean_linker_0, # of connection points: 3
#     Node 1, Type 0, BuildingBlock: KAKCAD_clean_linker_0, # of connection points: 3
#     Node 2, Type 0, BuildingBlock: KAKCAD_clean_linker_0, # of connection points: 3
#     Node 3, Type 0, BuildingBlock: KAKCAD_clean_linker_0, # of connection points: 3
#     Node 4, Type 0, BuildingBlock: KAKCAD_clean_linker_0, # of connection points: 3
#     Node 5, Type 0, BuildingBlock: KAKCAD_clean_linker_0, # of connection points: 3
#     Node 6, Type 0, BuildingBlock: KAKCAD_clean_linker_0, # of connection points: 3
#     Node 7, Type 0, BuildingBlock: KAKCAD_clean_linker_0, # of connection points: 3
#     Node 8, Type 0, BuildingBlock: KAKCAD_clean_linker_0, # of connection points: 3
#     Node 9, Type 0, BuildingBlock: KAKCAD_clean_linker_0, # of connection points: 3
#     Node 10, Type 0, BuildingBlock: KAKCAD_clean_linker_0, # of connection points: 3
#     Node 11, Type 0, BuildingBlock: KAKCAD_clean_linker_0, # of connection points: 3
#     Node 12, Type 0, BuildingBlock: KAKCAD_clean_linker_0, # of connection points: 3
#     Node 13, Type 0, BuildingBlock: KAKCAD_clean_linker_0, # of connection points: 3
#     Node 14, Type 0, BuildingBlock: KAKCAD_clean_linker_0, # of connection points: 3
#     Node 15, Type 0, BuildingBlock: KAKCAD_clean_linker_0, # of connection points: 3
#     Node 16, Type 0, BuildingBlock: KAKCAD_clean_linker_0, # of connection points: 3
#     Node 17, Type 0, BuildingBlock: KAKCAD_clean_linker_0, # of connection points: 3
#     Node 18, Type 1, BuildingBlock: CUKXOW_clean_sbu_0, # of connection points: 6
#     Node 19, Type 1, BuildingBlock: CUKXOW_clean_sbu_0, # of connection points: 6
#     Node 20, Type 1, BuildingBlock: CUKXOW_clean_sbu_0, # of connection points: 6
#     Node 21, Type 1, BuildingBlock: CUKXOW_clean_sbu_0, # of connection points: 6
#     Node 22, Type 1, BuildingBlock: CUKXOW_clean_sbu_0, # of connection points: 6
#     Node 23, Type 1, BuildingBlock: CUKXOW_clean_sbu_0, # of connection points: 6
#     Node 24, Type 1, BuildingBlock: CUKXOW_clean_sbu_0, # of connection points: 6
#     Node 25, Type 1, BuildingBlock: CUKXOW_clean_sbu_0, # of connection points: 6
#     Node 26, Type 1, BuildingBlock: CUKXOW_clean_sbu_0, # of connection points: 6
#     Edge 27, Type (0, 1), BuildingBlock: XIVTED_clean_linker_0, # of connection points: 2
#     Edge 28, Type (0, 1), BuildingBlock: XIVTED_clean_linker_0, # of connection points: 2
#     Edge 29, Type (0, 1), BuildingBlock: XIVTED_clean_linker_0, # of connection points: 2
#     Edge 30, Type (0, 1), BuildingBlock: XIVTED_clean_linker_0, # of connection points: 2
#     Edge 31, Type (0, 1), BuildingBlock: XIVTED_clean_linker_0, # of connection points: 2
#     Edge 32, Type (0, 1), BuildingBlock: XIVTED_clean_linker_0, # of connection points: 2
#     Edge 33, Type (0, 1), BuildingBlock: XIVTED_clean_linker_0, # of connection points: 2
#     Edge 34, Type (0, 1), BuildingBlock: XIVTED_clean_linker_0, # of connection points: 2
#     Edge 35, Type (0, 1), BuildingBlock: XIVTED_clean_linker_0, # of connection points: 2
#     Edge 36, Type (0, 1), BuildingBlock: XIVTED_clean_linker_0, # of connection points: 2
#     Edge 37, Type (0, 1), BuildingBlock: XIVTED_clean_linker_0, # of connection points: 2
#     Edge 38, Type (0, 1), BuildingBlock: XIVTED_clean_linker_0, # of connection points: 2
#     Edge 39, Type (0, 1), BuildingBlock: XIVTED_clean_linker_0, # of connection points: 2
#     Edge 40, Type (0, 1), BuildingBlock: XIVTED_clean_linker_0, # of connection points: 2
#     Edge 41, Type (0, 1), BuildingBlock: XIVTED_clean_linker_0, # of connection points: 2
#     Edge 42, Type (0, 1), BuildingBlock: XIVTED_clean_linker_0, # of connection points: 2
#     Edge 43, Type (0, 1), BuildingBlock: XIVTED_clean_linker_0, # of connection points: 2
#     Edge 44, Type (0, 1), BuildingBlock: XIVTED_clean_linker_0, # of connection points: 2
#     Edge 45, Type (0, 1), BuildingBlock: XIVTED_clean_linker_0, # of connection points: 2
#     Edge 46, Type (0, 1), BuildingBlock: XIVTED_clean_linker_0, # of connection points: 2
#     Edge 47, Type (0, 1), BuildingBlock: XIVTED_clean_linker_0, # of connection points: 2
#     Edge 48, Type (0, 1), BuildingBlock: XIVTED_clean_linker_0, # of connection points: 2
#     Edge 49, Type (0, 1), BuildingBlock: XIVTED_clean_linker_0, # of connection points: 2
#     Edge 50, Type (0, 1), BuildingBlock: XIVTED_clean_linker_0, # of connection points: 2
#     Edge 51, Type (0, 1), BuildingBlock: XIVTED_clean_linker_0, # of connection points: 2
#     Edge 52, Type (0, 1), BuildingBlock: XIVTED_clean_linker_0, # of connection points: 2
#     Edge 53, Type (0, 1), BuildingBlock: XIVTED_clean_linker_0, # of connection points: 2
#     Edge 54, Type (0, 1), BuildingBlock: XIVTED_clean_linker_0, # of connection points: 2
#     Edge 55, Type (0, 1), BuildingBlock: XIVTED_clean_linker_0, # of connection points: 2
#     Edge 56, Type (0, 1), BuildingBlock: XIVTED_clean_linker_0, # of connection points: 2
#     Edge 57, Type (0, 1), BuildingBlock: XIVTED_clean_linker_0, # of connection points: 2
#     Edge 58, Type (0, 1), BuildingBlock: XIVTED_clean_linker_0, # of connection points: 2
#     Edge 59, Type (0, 1), BuildingBlock: XIVTED_clean_linker_0, # of connection points: 2
#     Edge 60, Type (0, 1), BuildingBlock: XIVTED_clean_linker_0, # of connection points: 2
#     Edge 61, Type (0, 1), BuildingBlock: XIVTED_clean_linker_0, # of connection points: 2
#     Edge 62, Type (0, 1), BuildingBlock: XIVTED_clean_linker_0, # of connection points: 2
#     Edge 63, Type (0, 1), BuildingBlock: XIVTED_clean_linker_0, # of connection points: 2
#     Edge 64, Type (0, 1), BuildingBlock: XIVTED_clean_linker_0, # of connection points: 2
#     Edge 65, Type (0, 1), BuildingBlock: XIVTED_clean_linker_0, # of connection points: 2
#     Edge 66, Type (0, 1), BuildingBlock: XIVTED_clean_linker_0, # of connection points: 2
#     Edge 67, Type (0, 1), BuildingBlock: XIVTED_clean_linker_0, # of connection points: 2
#     Edge 68, Type (0, 1), BuildingBlock: XIVTED_clean_linker_0, # of connection points: 2
#     Edge 69, Type (0, 1), BuildingBlock: XIVTED_clean_linker_0, # of connection points: 2
#     Edge 70, Type (0, 1), BuildingBlock: XIVTED_clean_linker_0, # of connection points: 2
#     Edge 71, Type (0, 1), BuildingBlock: XIVTED_clean_linker_0, # of connection points: 2
#     Edge 72, Type (0, 1), BuildingBlock: XIVTED_clean_linker_0, # of connection points: 2
#     Edge 73, Type (0, 1), BuildingBlock: XIVTED_clean_linker_0, # of connection points: 2
#     Edge 74, Type (0, 1), BuildingBlock: XIVTED_clean_linker_0, # of connection points: 2
#     Edge 75, Type (0, 1), BuildingBlock: XIVTED_clean_linker_0, # of connection points: 2
#     Edge 76, Type (0, 1), BuildingBlock: XIVTED_clean_linker_0, # of connection points: 2
#     Edge 77, Type (0, 1), BuildingBlock: XIVTED_clean_linker_0, # of connection points: 2
#     Edge 78, Type (0, 1), BuildingBlock: XIVTED_clean_linker_0, # of connection points: 2
#     Edge 79, Type (0, 1), BuildingBlock: XIVTED_clean_linker_0, # of connection points: 2
#     Edge 80, Type (0, 1), BuildingBlock: XIVTED_clean_linker_0, # of connection points: 2
# Relax obj value: 0.017
# Max RMSD: 0.127
# Mean RMSD: 0.054
data_MOF--net-eea--node1-CUKXOW_clean_sbu_0--node2-KAKCAD_clean_linker_0--edge1-XIVTED_clean_linker_0
_symmetry_space_group_name_H-M    P1
_symmetry_Int_Tables_number       1
_symmetry_cell_setting            triclinic
loop_
_symmetry_equiv_pos_as_xyz
'x, y, z'
_cell_length_a     67.813449
_cell_length_b     64.657269
_cell_length_c     73.97369
_cell_angle_alpha  93.313624
_cell_angle_beta   93.098236
_cell_angle_gamma 119.95803
loop_
_atom_site_label
_atom_site_type_symbol
_atom_site_fract_x
_atom_site_fract_y
_atom_site_fract_z
_atom_type_partial_charge
C0 C 0.29045 0.17197 0.50258 0.0
C1 C 0.30686 0.16546 0.50727 0.0
C2 C 0.28152 0.16877 0.48448 0.0
C3 C 0.28875 0.1589 0.47073 0.0
C4 C 0.30596 0.15351 0.47527 0.0
C5 C 0.31496 0.15683 0.49332 0.0
C6 C 0.27708 0.15234 0.45202 0.0
C7 C 0.27221 0.1682 0.44323 0.0
C8 C 0.25991 0.16128 0.4259 0.0
C9 C 0.25246 0.13815 0.41755 0.0
C10 C 0.25738 0.12221 0.42607 0.0
C11 C 0.26977 0.12948 0.44326 0.0
C12 C 0.24905 0.09774 0.41719 0.0
C13 C 0.2267 0.08412 0.40859 0.0
C14 C 0.26337 0.08783 0.41723 0.0
C15 C 0.25553 0.06482 0.40879 0.0
C16 C 0.23317 0.05121 0.40019 0.0
C17 C 0.25416 0.17771 0.41661 0.0
C18 C 0.24849 0.1929 0.42659 0.0
C19 C 0.25329 0.17752 0.39753 0.0
C20 C 0.24598 0.1913 0.38862 0.0
C21 C 0.23994 0.20604 0.39861 0.0
C22 C 0.24164 0.2071 0.41767 0.0
C23 C 0.21885 0.06112 0.40018 0.0
H24 H 0.28369 0.17848 0.51299 0.0
H25 H 0.26815 0.17291 0.48139 0.0
H26 H 0.31212 0.14625 0.4649 0.0
H27 H 0.32798 0.15217 0.49639 0.0
H28 H 0.27826 0.186 0.44984 0.0
H29 H 0.27293 0.11694 0.45018 0.0
H30 H 0.24259 0.13235 0.4044 0.0
H31 H 0.21517 0.09115 0.4085 0.0
H32 H 0.28074 0.09797 0.42364 0.0
H33 H 0.2669 0.05759 0.40921 0.0
H34 H 0.24863 0.19333 0.44125 0.0
H35 H 0.25812 0.1666 0.38938 0.0
H36 H 0.20162 0.05119 0.39352 0.0
H37 H 0.23696 0.21831 0.42562 0.0
H38 H 0.24508 0.1905 0.37391 0.0
C39 C 0.86802 0.17508 0.50034 0.0
C40 C 0.85892 0.15686 0.51212 0.0
C41 C 0.87212 0.17014 0.48269 0.0
C42 C 0.86721 0.14691 0.47655 0.0
C43 C 0.85893 0.12901 0.48861 0.0
C44 C 0.85481 0.13392 0.50615 0.0
C45 C 0.87001 0.1409 0.45754 0.0
C46 C 0.88963 0.15614 0.44916 0.0
C47 C 0.89272 0.14946 0.43156 0.0
C48 C 0.87576 0.12757 0.42227 0.0
C49 C 0.85604 0.11223 0.43041 0.0
C50 C 0.85321 0.11916 0.44795 0.0
C51 C 0.83899 0.08841 0.421 0.0
C52 C 0.8323 0.08572 0.40229 0.0
C53 C 0.82983 0.068 0.43065 0.0
C54 C 0.81454 0.04539 0.42177 0.0
C55 C 0.80809 0.04261 0.40302 0.0
C56 C 0.91404 0.16468 0.42308 0.0
C57 C 0.92339 0.18964 0.42372 0.0
C58 C 0.92503 0.15416 0.41403 0.0
C59 C 0.94472 0.16818 0.40555 0.0
C60 C 0.95392 0.19309 0.40591 0.0
C61 C 0.94313 0.20371 0.4152 0.0
C62 C 0.81698 0.06305 0.39339 0.0
H63 H 0.87128 0.19292 0.50456 0.0
H64 H 0.87846 0.18428 0.47369 0.0
H65 H 0.85553 0.1111 0.48446 0.0
H66 H 0.84832 0.11965 0.51504 0.0
H67 H 0.90293 0.17266 0.45662 0.0
H68 H 0.8378 0.10757 0.45416 0.0
H69 H 0.87815 0.12223 0.40878 0.0
H70 H 0.83893 0.10115 0.39453 0.0
H71 H 0.83482 0.06942 0.44503 0.0
H72 H 0.80776 0.03005 0.42963 0.0
H73 H 0.91518 0.19821 0.43048 0.0
H74 H 0.91851 0.13504 0.41362 0.0
H75 H 0.81245 0.06148 0.37891 0.0
H76 H 0.94967 0.22283 0.41559 0.0
H77 H 0.95289 0.1595 0.39889 0.0
C78 C 0.8783 0.6969 0.50408 0.0
C79 C 0.85611 0.68126 0.50863 0.0
C80 C 0.88176 0.70539 0.48697 0.0
C81 C 0.86313 0.69831 0.47393 0.0
C82 C 0.84103 0.68177 0.47817 0.0
C83 C 0.83755 0.67333 0.49535 0.0
C84 C 0.86674 0.70926 0.45642 0.0
C85 C 0.88597 0.7139 0.44735 0.0
C86 C 0.89078 0.72636 0.43177 0.0
C87 C 0.87544 0.73319 0.42477 0.0
C88 C 0.85593 0.72857 0.43353 0.0
C89 C 0.85185 0.7167 0.44944 0.0
C90 C 0.84036 0.73695 0.42651 0.0
C91 C 0.84903 0.75863 0.41844 0.0
C92 C 0.81668 0.72343 0.42791 0.0
C93 C 0.80213 0.73141 0.42149 0.0
C94 C 0.81077 0.75291 0.41314 0.0
C95 C 0.91256 0.73362 0.42355 0.0
C96 C 0.933 0.74183 0.43473 0.0
C97 C 0.91335 0.73349 0.4046 0.0
C98 C 0.93414 0.74184 0.39705 0.0
C99 C 0.95462 0.75033 0.40826 0.0
C100 C 0.95374 0.74995 0.42719 0.0
C101 C 0.83444 0.76635 0.41166 0.0
H102 H 0.89298 0.70309 0.51394 0.0
H103 H 0.899 0.71826 0.48423 0.0
H104 H 0.82636 0.67571 0.46832 0.0
H105 H 0.82023 0.6614 0.49847 0.0
H106 H 0.89736 0.70794 0.45253 0.0
H107 H 0.83761 0.71416 0.45689 0.0
H108 H 0.87899 0.74262 0.41266 0.0
H109 H 0.86718 0.76986 0.41743 0.0
H110 H 0.80927 0.70651 0.43384 0.0
H111 H 0.78411 0.72071 0.4232 0.0
H112 H 0.93311 0.74253 0.4494 0.0
H113 H 0.89791 0.72705 0.39556 0.0
H114 H 0.84181 0.78277 0.40508 0.0
H115 H 0.96909 0.75598 0.43623 0.0
H116 H 0.93418 0.7421 0.38243 0.0
C117 C 0.14663 0.2914 0.49633 0.0
C118 C 0.14266 0.31005 0.49228 0.0
C119 C 0.1446 0.28394 0.51377 0.0
C120 C 0.13842 0.29486 0.52753 0.0
C121 C 0.13461 0.31367 0.52358 0.0
C122 C 0.1369 0.32134 0.5061 0.0
C123 C 0.13539 0.28604 0.54578 0.0
C124 C 0.1516 0.28135 0.5542 0.0
C125 C 0.14805 0.2711 0.57078 0.0
C126 C 0.12824 0.26608 0.57916 0.0
C127 C 0.11165 0.2704 0.57086 0.0
C128 C 0.11551 0.28058 0.55418 0.0
C129 C 0.08974 0.26297 0.57901 0.0
C130 C 0.07928 0.24189 0.58788 0.0
C131 C 0.07878 0.27649 0.57762 0.0
C132 C 0.05779 0.26894 0.58467 0.0
C133 C 0.04737 0.24789 0.5936 0.0
C134 C 0.16419 0.26406 0.57869 0.0
C135 C 0.17303 0.25303 0.5674 0.0
C136 C 0.17005 0.26725 0.59757 0.0
C137 C 0.18408 0.25917 0.60501 0.0
C138 C 0.1926 0.24782 0.59372 0.0
C139 C 0.18711 0.24505 0.57482 0.0
C140 C 0.05853 0.2346 0.59523 0.0
H141 H 0.15133 0.28256 0.48596 0.0
H142 H 0.14742 0.26926 0.51638 0.0
H143 H 0.12991 0.32243 0.534 0.0
H144 H 0.13369 0.33572 0.5033 0.0
H145 H 0.16698 0.28559 0.54773 0.0
H146 H 0.10255 0.28316 0.54721 0.0
H147 H 0.12546 0.25815 0.59195 0.0
H148 H 0.08689 0.23069 0.58895 0.0
H149 H 0.08639 0.29296 0.57108 0.0
H150 H 0.04963 0.27952 0.58288 0.0
H151 H 0.16851 0.24988 0.55283 0.0
H152 H 0.16378 0.27597 0.60661 0.0
H153 H 0.05134 0.21854 0.60227 0.0
H154 H 0.19314 0.23607 0.56579 0.0
H155 H 0.1883 0.26186 0.61961 0.0
C156 C 0.70454 0.82675 0.50479 0.0
C157 C 0.7124 0.84555 0.49345 0.0
C158 C 0.71042 0.83156 0.52362 0.0
C159 C 0.72456 0.85526 0.53155 0.0
C160 C 0.73297 0.87391 0.52012 0.0
C161 C 0.72673 0.86918 0.50145 0.0
C162 C 0.73047 0.8608 0.55162 0.0
C163 C 0.73445 0.84555 0.56213 0.0
C164 C 0.74137 0.85166 0.58089 0.0
C165 C 0.74422 0.87325 0.58913 0.0
C166 C 0.74073 0.8888 0.57878 0.0
C167 C 0.73333 0.88221 0.56023 0.0
C168 C 0.74703 0.91303 0.58681 0.0
C169 C 0.73887 0.91637 0.60311 0.0
C170 C 0.76202 0.93314 0.57826 0.0
C171 C 0.76886 0.9562 0.58589 0.0
C172 C 0.7606 0.95976 0.60213 0.0
C173 C 0.74743 0.83651 0.59155 0.0
C174 C 0.73408 0.81135 0.58905 0.0
C175 C 0.7672 0.84721 0.60388 0.0
C176 C 0.77368 0.83311 0.61326 0.0
C177 C 0.76064 0.80796 0.61048 0.0
C178 C 0.7406 0.79722 0.59844 0.0
C179 C 0.74544 0.93952 0.61063 0.0
H180 H 0.69379 0.80827 0.49919 0.0
H181 H 0.70352 0.81671 0.53196 0.0
H182 H 0.74441 0.89234 0.52556 0.0
H183 H 0.73285 0.8843 0.49341 0.0
H184 H 0.73329 0.82951 0.55556 0.0
H185 H 0.7301 0.89412 0.5525 0.0
H186 H 0.74997 0.87842 0.60348 0.0
H187 H 0.72725 0.90108 0.60991 0.0
H188 H 0.76889 0.93103 0.56585 0.0
H189 H 0.78101 0.97124 0.57917 0.0
H190 H 0.71866 0.80258 0.57974 0.0
H191 H 0.77805 0.86652 0.60597 0.0
H192 H 0.73848 0.9415 0.62301 0.0
H193 H 0.73028 0.77788 0.59588 0.0
H194 H 0.78906 0.84196 0.62261 0.0
C195 C 0.12143 0.83147 0.49451 0.0
C196 C 0.14354 0.83657 0.49104 0.0
C197 C 0.11656 0.83486 0.51221 0.0
C198 C 0.13372 0.8435 0.52679 0.0
C199 C 0.15552 0.8476 0.52344 0.0
C200 C 0.16036 0.84412 0.50579 0.0
C201 C 0.12948 0.8499 0.5452 0.0
C202 C 0.1093 0.83461 0.55294 0.0
C203 C 0.10517 0.84122 0.57016 0.0
C204 C 0.12134 0.86349 0.57946 0.0
C205 C 0.14144 0.87905 0.57184 0.0
C206 C 0.14545 0.87202 0.55478 0.0
C207 C 0.15781 0.90305 0.58134 0.0
C208 C 0.14983 0.91734 0.58944 0.0
C209 C 0.18151 0.91209 0.58202 0.0
C210 C 0.19688 0.935 0.59048 0.0
C211 C 0.18889 0.9494 0.59838 0.0
C212 C 0.08375 0.82541 0.57838 0.0
C213 C 0.06252 0.81406 0.56785 0.0
C214 C 0.0843 0.82257 0.59707 0.0
C215 C 0.06406 0.80936 0.60516 0.0
C216 C 0.04278 0.7986 0.59476 0.0
C217 C 0.04224 0.80079 0.57596 0.0
C218 C 0.16519 0.94025 0.59785 0.0
H219 H 0.10812 0.82583 0.48346 0.0
H220 H 0.09965 0.83174 0.51437 0.0
H221 H 0.16898 0.85388 0.53446 0.0
H222 H 0.17741 0.84768 0.50367 0.0
H223 H 0.097 0.81744 0.54568 0.0
H224 H 0.16064 0.88426 0.54859 0.0
H225 H 0.11813 0.8689 0.59261 0.0
H226 H 0.13168 0.91099 0.58897 0.0
H227 H 0.18816 0.90143 0.57602 0.0
H228 H 0.21504 0.94162 0.59053 0.0
H229 H 0.0615 0.81612 0.55346 0.0
H230 H 0.10041 0.83071 0.60549 0.0
H231 H 0.15849 0.95079 0.60398 0.0
H232 H 0.02611 0.79291 0.56759 0.0
H233 H 0.06508 0.80761 0.61961 0.0
C234 C 0.95352 0.50338 0.83375 0.0
C235 C 0.97047 0.4978 0.83887 0.0
C236 C 0.94607 0.50143 0.81541 0.0
C237 C 0.95538 0.49381 0.80181 0.0
C238 C 0.97286 0.48903 0.80689 0.0
C239 C 0.98035 0.49105 0.8252 0.0
C240 C 0.9461 0.4896 0.78249 0.0
C241 C 0.94103 0.50591 0.77471 0.0
C242 C 0.93167 0.50143 0.75657 0.0
C243 C 0.92709 0.48041 0.74621 0.0
C244 C 0.93138 0.46355 0.75394 0.0
C245 C 0.94121 0.46847 0.772 0.0
C246 C 0.92389 0.43998 0.74374 0.0
C247 C 0.90224 0.42721 0.73386 0.0
C248 C 0.93768 0.42946 0.74466 0.0
C249 C 0.92975 0.40643 0.73622 0.0
C250 C 0.90784 0.39341 0.72675 0.0
C251 C 0.92501 0.51773 0.74872 0.0
C252 C 0.9082 0.52112 0.75623 0.0
C253 C 0.93434 0.52879 0.73313 0.0
C254 C 0.9269 0.54305 0.7251 0.0
C255 C 0.90955 0.54605 0.73227 0.0
C256 C 0.90036 0.53489 0.74799 0.0
C257 C 0.8943 0.40418 0.72547 0.0
H258 H 0.94538 0.50838 0.84394 0.0
H259 H 0.9324 0.50499 0.81192 0.0
H260 H 0.98062 0.4835 0.79668 0.0
H261 H 0.99378 0.4871 0.82865 0.0
H262 H 0.94443 0.52215 0.78269 0.0
H263 H 0.94398 0.45525 0.77822 0.0
H264 H 0.9195 0.47685 0.73229 0.0
H265 H 0.89109 0.43469 0.73307 0.0
H266 H 0.9545 0.43894 0.75207 0.0
H267 H 0.94052 0.39855 0.73757 0.0
H268 H 0.90056 0.51242 0.76812 0.0
H269 H 0.94739 0.52636 0.72717 0.0
H270 H 0.87746 0.39473 0.71808 0.0
H271 H 0.88662 0.53618 0.75374 0.0
H272 H 0.93478 0.55169 0.71328 0.0
C273 C 0.53501 0.5085 0.83553 0.0
C274 C 0.52567 0.49022 0.84722 0.0
C275 C 0.53909 0.50355 0.81788 0.0
C276 C 0.53395 0.48026 0.81168 0.0
C277 C 0.52554 0.46232 0.8237 0.0
C278 C 0.52139 0.46722 0.84123 0.0
C279 C 0.53639 0.47421 0.79256 0.0
C280 C 0.55573 0.48951 0.78392 0.0
C281 C 0.55819 0.48329 0.76595 0.0
C282 C 0.54083 0.46151 0.75668 0.0
C283 C 0.52166 0.44584 0.76526 0.0
C284 C 0.51942 0.45254 0.78305 0.0
C285 C 0.50463 0.42182 0.75612 0.0
C286 C 0.49675 0.41885 0.73766 0.0
C287 C 0.49661 0.40151 0.76583 0.0
C288 C 0.48121 0.37873 0.75728 0.0
C289 C 0.47346 0.37567 0.73879 0.0
C290 C 0.57928 0.49887 0.75713 0.0
C291 C 0.59048 0.52402 0.76031 0.0
C292 C 0.58854 0.4886 0.74554 0.0
C293 C 0.60823 0.50301 0.7372 0.0
C294 C 0.61962 0.52815 0.74051 0.0
C295 C 0.61047 0.53847 0.7522 0.0
C296 C 0.48127 0.396 0.72909 0.0
H297 H 0.53841 0.52638 0.8398 0.0
H298 H 0.54551 0.51772 0.80891 0.0
H299 H 0.52197 0.44435 0.81951 0.0
H300 H 0.51467 0.45291 0.85008 0.0
H301 H 0.56925 0.50578 0.79148 0.0
H302 H 0.50428 0.44079 0.78951 0.0
H303 H 0.54244 0.45641 0.74288 0.0
H304 H 0.50251 0.43418 0.72985 0.0
H305 H 0.50256 0.40315 0.78002 0.0
H306 H 0.4753 0.36349 0.76521 0.0
H307 H 0.58376 0.53262 0.76899 0.0
H308 H 0.58075 0.46933 0.743 0.0
H309 H 0.47573 0.39421 0.71479 0.0
H310 H 0.61886 0.55772 0.7553 0.0
H311 H 0.6144 0.49431 0.72804 0.0
C312 C 0.54635 0.03071 0.83782 0.0
C313 C 0.52403 0.015 0.84205 0.0
C314 C 0.55017 0.03967 0.82087 0.0
C315 C 0.53177 0.03299 0.80768 0.0
C316 C 0.50953 0.01637 0.8116 0.0
C317 C 0.50569 0.00747 0.82862 0.0
C318 C 0.53579 0.04447 0.7904 0.0
C319 C 0.55527 0.04941 0.78156 0.0
C320 C 0.56052 0.06245 0.76628 0.0
C321 C 0.54544 0.06968 0.75937 0.0
C322 C 0.52568 0.06467 0.76786 0.0
C323 C 0.52107 0.05212 0.78343 0.0
C324 C 0.51033 0.07326 0.76083 0.0
C325 C 0.51938 0.09568 0.75382 0.0
C326 C 0.48649 0.05911 0.761 0.0
C327 C 0.47209 0.06711 0.75425 0.0
C328 C 0.48113 0.08933 0.74694 0.0
C329 C 0.5824 0.06982 0.75822 0.0
C330 C 0.60268 0.07758 0.76951 0.0
C331 C 0.58345 0.07027 0.73932 0.0
C332 C 0.60435 0.07883 0.73192 0.0
C333 C 0.62467 0.08692 0.74324 0.0
C334 C 0.62353 0.0859 0.7621 0.0
C335 C 0.50498 0.10352 0.74685 0.0
H336 H 0.56086 0.03659 0.84779 0.0
H337 H 0.5675 0.05259 0.8184 0.0
H338 H 0.49504 0.01062 0.80163 0.0
H339 H 0.48828 0.9955 0.8315 0.0
H340 H 0.5665 0.04323 0.78669 0.0
H341 H 0.50653 0.04923 0.79061 0.0
H342 H 0.54935 0.07966 0.74754 0.0
H343 H 0.53766 0.10732 0.75378 0.0
H344 H 0.47888 0.04167 0.76615 0.0
H345 H 0.45385 0.05584 0.75486 0.0
H346 H 0.60257 0.07779 0.78415 0.0
H347 H 0.56814 0.06416 0.7302 0.0
H348 H 0.5126 0.12059 0.74113 0.0
H349 H 0.63876 0.09161 0.77121 0.0
H350 H 0.60458 0.07959 0.71735 0.0
C351 C 0.81313 0.62792 0.82731 0.0
C352 C 0.80991 0.64735 0.8245 0.0
C353 C 0.81003 0.61856 0.84408 0.0
C354 C 0.80343 0.62831 0.85838 0.0
C355 C 0.80078 0.6482 0.85575 0.0
C356 C 0.80421 0.65781 0.83894 0.0
C357 C 0.79791 0.61649 0.87543 0.0
C358 C 0.81231 0.60914 0.88352 0.0
C359 C 0.80583 0.59504 0.89824 0.0
C360 C 0.78469 0.5886 0.90492 0.0
C361 C 0.77036 0.5963 0.89724 0.0
C362 C 0.77717 0.61043 0.8826 0.0
C363 C 0.74787 0.58876 0.90408 0.0
C364 C 0.73311 0.56461 0.90673 0.0
C365 C 0.74108 0.60565 0.90813 0.0
C366 C 0.72013 0.59859 0.9151 0.0
C367 C 0.70546 0.57446 0.91791 0.0
C368 C 0.82075 0.58647 0.90625 0.0
C369 C 0.83312 0.57963 0.89514 0.0
C370 C 0.82255 0.58479 0.92507 0.0
C371 C 0.83619 0.5763 0.93255 0.0
C372 C 0.84869 0.56961 0.92146 0.0
C373 C 0.84703 0.57146 0.90265 0.0
C374 C 0.71205 0.55751 0.91348 0.0
H375 H 0.81769 0.61968 0.81638 0.0
H376 H 0.81195 0.60308 0.84565 0.0
H377 H 0.79578 0.65607 0.8666 0.0
H378 H 0.80161 0.67279 0.83703 0.0
H379 H 0.82858 0.61437 0.87822 0.0
H380 H 0.76573 0.61559 0.87618 0.0
H381 H 0.77917 0.57732 0.916 0.0
H382 H 0.73785 0.55121 0.90352 0.0
H383 H 0.75219 0.62438 0.90624 0.0
H384 H 0.71538 0.61198 0.9183 0.0
H385 H 0.8319 0.58029 0.88055 0.0
H386 H 0.81352 0.59016 0.9341 0.0
H387 H 0.70115 0.53883 0.91565 0.0
H388 H 0.85661 0.5668 0.89369 0.0
H389 H 0.8367 0.57478 0.94704 0.0
C390 C 0.35634 0.15749 0.84117 0.0
C391 C 0.36877 0.17331 0.82846 0.0
C392 C 0.36471 0.16245 0.85957 0.0
C393 C 0.38534 0.18357 0.86553 0.0
C394 C 0.39771 0.19934 0.85282 0.0
C395 C 0.38961 0.19416 0.83444 0.0
C396 C 0.39401 0.18967 0.88499 0.0
C397 C 0.39878 0.1743 0.89452 0.0
C398 C 0.40925 0.18134 0.91246 0.0
C399 C 0.41438 0.20377 0.92086 0.0
C400 C 0.40941 0.21925 0.91159 0.0
C401 C 0.39905 0.21187 0.89364 0.0
C402 C 0.41598 0.24349 0.92032 0.0
C403 C 0.41535 0.2473 0.93918 0.0
C404 C 0.42353 0.26322 0.90992 0.0
C405 C 0.43018 0.28603 0.91812 0.0
C406 C 0.42996 0.28974 0.93693 0.0
C407 C 0.41611 0.16603 0.92212 0.0
C408 C 0.40163 0.14101 0.92101 0.0
C409 C 0.43742 0.17646 0.93246 0.0
C410 C 0.44411 0.16228 0.94149 0.0
C411 C 0.42975 0.13726 0.94031 0.0
C412 C 0.40837 0.12678 0.93003 0.0
C413 C 0.42254 0.27026 0.94743 0.0
H414 H 0.34025 0.14127 0.83683 0.0
H415 H 0.35491 0.15008 0.86919 0.0
H416 H 0.41371 0.21569 0.85712 0.0
H417 H 0.39941 0.20671 0.82492 0.0
H418 H 0.3954 0.15743 0.88763 0.0
H419 H 0.39485 0.22336 0.88625 0.0
H420 H 0.42273 0.20936 0.93458 0.0
H421 H 0.40923 0.23257 0.94762 0.0
H422 H 0.42482 0.26125 0.89547 0.0
H423 H 0.43606 0.30092 0.90982 0.0
H424 H 0.38504 0.13245 0.91325 0.0
H425 H 0.44916 0.19562 0.93339 0.0
H426 H 0.4221 0.27278 0.96198 0.0
H427 H 0.39699 0.10753 0.92869 0.0
H428 H 0.46057 0.171 0.94946 0.0
C429 C 0.79035 0.16557 0.82924 0.0
C430 C 0.81274 0.17177 0.82573 0.0
C431 C 0.78518 0.16805 0.84702 0.0
C432 C 0.80231 0.17688 0.86163 0.0
C433 C 0.82448 0.18227 0.8582 0.0
C434 C 0.82962 0.17969 0.84048 0.0
C435 C 0.7975 0.18188 0.88023 0.0
C436 C 0.77743 0.16541 0.88756 0.0
C437 C 0.77277 0.17062 0.90501 0.0
C438 C 0.78825 0.19263 0.91495 0.0
C439 C 0.80816 0.2094 0.90774 0.0
C440 C 0.81277 0.20378 0.89045 0.0
C441 C 0.82356 0.23321 0.91793 0.0
C442 C 0.81441 0.24596 0.92668 0.0
C443 C 0.84744 0.24356 0.91874 0.0
C444 C 0.86184 0.26625 0.92799 0.0
C445 C 0.85265 0.27909 0.93656 0.0
C446 C 0.7514 0.15374 0.91277 0.0
C447 C 0.73022 0.14286 0.9022 0.0
C448 C 0.75187 0.14975 0.93123 0.0
C449 C 0.73159 0.13606 0.93914 0.0
C450 C 0.71035 0.12598 0.92876 0.0
C451 C 0.70989 0.12911 0.91012 0.0
C452 C 0.82878 0.26862 0.93588 0.0
H453 H 0.77698 0.15964 0.8182 0.0
H454 H 0.76799 0.16397 0.84922 0.0
H455 H 0.83794 0.18873 0.86924 0.0
H456 H 0.84691 0.18411 0.83833 0.0
H457 H 0.76563 0.14843 0.87981 0.0
H458 H 0.82781 0.21693 0.8846 0.0
H459 H 0.78458 0.19694 0.92828 0.0
H460 H 0.79609 0.23861 0.92613 0.0
H461 H 0.85499 0.23409 0.91224 0.0
H462 H 0.88016 0.27393 0.92812 0.0
H463 H 0.72929 0.14579 0.88798 0.0
H464 H 0.76796 0.15753 0.93965 0.0
H465 H 0.82117 0.27794 0.94251 0.0
H466 H 0.69379 0.12174 0.90178 0.0
H467 H 0.73255 0.13355 0.95344 0.0
C468 C 0.61938 0.83551 0.16902 0.0
C469 C 0.63691 0.83075 0.1741 0.0
C470 C 0.61136 0.83273 0.1507 0.0
C471 C 0.62068 0.82506 0.13714 0.0
C472 C 0.63889 0.8214 0.14215 0.0
C473 C 0.64695 0.82426 0.1604 0.0
C474 C 0.61051 0.81923 0.11797 0.0
C475 C 0.60492 0.83465 0.10932 0.0
C476 C 0.59508 0.82874 0.0912 0.0
C477 C 0.59088 0.8072 0.08179 0.0
C478 C 0.59579 0.79124 0.09038 0.0
C479 C 0.60568 0.79753 0.10847 0.0
C480 C 0.58954 0.76749 0.0809 0.0
C481 C 0.56937 0.75456 0.06902 0.0
C482 C 0.60314 0.75704 0.08424 0.0
C483 C 0.59631 0.73398 0.07647 0.0
C484 C 0.57604 0.7211 0.06487 0.0
C485 C 0.58805 0.84432 0.08227 0.0
C486 C 0.57598 0.85339 0.0915 0.0
C487 C 0.59214 0.84905 0.06411 0.0
C488 C 0.58383 0.86206 0.05524 0.0
C489 C 0.57116 0.8705 0.0643 0.0
C490 C 0.56758 0.86629 0.0826 0.0
C491 C 0.56283 0.73171 0.06096 0.0
H492 H 0.61118 0.84038 0.17924 0.0
H493 H 0.59721 0.83554 0.14722 0.0
H494 H 0.64666 0.81589 0.13194 0.0
H495 H 0.66084 0.82101 0.1638 0.0
H496 H 0.60848 0.85136 0.11661 0.0
H497 H 0.60885 0.78509 0.11552 0.0
H498 H 0.58327 0.80263 0.06785 0.0
H499 H 0.55819 0.76171 0.06636 0.0
H500 H 0.61902 0.7666 0.09296 0.0
H501 H 0.60687 0.72618 0.07952 0.0
H502 H 0.57241 0.84987 0.10544 0.0
H503 H 0.60157 0.84247 0.05671 0.0
H504 H 0.547 0.72197 0.05217 0.0
H505 H 0.55816 0.87286 0.09003 0.0
H506 H 0.58678 0.8649 0.04112 0.0
C507 C 0.19717 0.83855 0.16476 0.0
C508 C 0.18658 0.82001 0.1761 0.0
C509 C 0.20155 0.83365 0.1472 0.0
C510 C 0.19547 0.81015 0.14071 0.0
C511 C 0.18543 0.79181 0.15227 0.0
C512 C 0.18102 0.79667 0.16971 0.0
C513 C 0.19941 0.80442 0.12196 0.0
C514 C 0.22 0.81939 0.11463 0.0
C515 C 0.22428 0.8129 0.09745 0.0
C516 C 0.20773 0.79122 0.08763 0.0
C517 C 0.18686 0.77618 0.09457 0.0
C518 C 0.18278 0.78322 0.11164 0.0
C519 C 0.16968 0.75283 0.08432 0.0
C520 C 0.16683 0.7502 0.06515 0.0
C521 C 0.15626 0.73273 0.09367 0.0
C522 C 0.14038 0.71076 0.08415 0.0
C523 C 0.13794 0.70821 0.06509 0.0
C524 C 0.24615 0.82847 0.08977 0.0
C525 C 0.25519 0.85339 0.09047 0.0
C526 C 0.25779 0.81836 0.08119 0.0
C527 C 0.27773 0.83275 0.07311 0.0
C528 C 0.28652 0.8576 0.07342 0.0
C529 C 0.27517 0.86781 0.08236 0.0
C530 C 0.1513 0.72802 0.05564 0.0
H531 H 0.20154 0.85669 0.16928 0.0
H532 H 0.20923 0.84814 0.13858 0.0
H533 H 0.18108 0.77363 0.14788 0.0
H534 H 0.17334 0.7821 0.17826 0.0
H535 H 0.23306 0.83562 0.12257 0.0
H536 H 0.16652 0.77221 0.11697 0.0
H537 H 0.21127 0.78602 0.07457 0.0
H538 H 0.17645 0.76528 0.05743 0.0
H539 H 0.15826 0.73375 0.10837 0.0
H540 H 0.13033 0.69557 0.09167 0.0
H541 H 0.24648 0.86165 0.09686 0.0
H542 H 0.2515 0.79928 0.08074 0.0
H543 H 0.14951 0.72639 0.0409 0.0
H544 H 0.28139 0.88687 0.0827 0.0
H545 H 0.28633 0.8244 0.06668 0.0
C546 C 0.2162 0.37425 0.17317 0.0
C547 C 0.19432 0.35669 0.17707 0.0
C548 C 0.2195 0.3837 0.15639 0.0
C549 C 0.20104 0.37565 0.14299 0.0
C550 C 0.17933 0.35732 0.14658 0.0
C551 C 0.176 0.34796 0.16345 0.0
C552 C 0.20435 0.38716 0.12571 0.0
C553 C 0.22459 0.39447 0.11727 0.0
C554 C 0.22845 0.40671 0.10164 0.0
C555 C 0.21192 0.41161 0.09429 0.0
C556 C 0.19168 0.4046 0.10258 0.0
C557 C 0.18789 0.39219 0.11817 0.0
C558 C 0.17502 0.41128 0.09544 0.0
C559 C 0.18249 0.43498 0.09164 0.0
C560 C 0.15163 0.39412 0.09242 0.0
C561 C 0.13605 0.40047 0.08538 0.0
C562 C 0.14355 0.42417 0.08153 0.0
C563 C 0.25019 0.41521 0.09339 0.0
C564 C 0.27105 0.43034 0.10387 0.0
C565 C 0.25021 0.40846 0.07502 0.0
C566 C 0.27087 0.41645 0.0673 0.0
C567 C 0.29172 0.43174 0.07775 0.0
C568 C 0.29167 0.43875 0.09605 0.0
C569 C 0.16689 0.44139 0.08485 0.0
H570 H 0.23077 0.38111 0.18325 0.0
H571 H 0.23642 0.39794 0.15421 0.0
H572 H 0.16481 0.35044 0.13645 0.0
H573 H 0.15889 0.33456 0.16603 0.0
H574 H 0.23739 0.39057 0.12277 0.0
H575 H 0.17257 0.38748 0.12487 0.0
H576 H 0.21503 0.42128 0.08228 0.0
H577 H 0.20042 0.44859 0.09403 0.0
H578 H 0.14547 0.37572 0.09522 0.0
H579 H 0.11811 0.38688 0.08303 0.0
H580 H 0.27135 0.43584 0.11804 0.0
H581 H 0.23428 0.39678 0.06673 0.0
H582 H 0.17315 0.45974 0.08186 0.0
H583 H 0.30759 0.45042 0.10436 0.0
H584 H 0.27057 0.4109 0.05314 0.0
C585 C 0.4817 0.96029 0.16353 0.0
C586 C 0.47726 0.97858 0.15935 0.0
C587 C 0.47899 0.95237 0.18082 0.0
C588 C 0.47169 0.96247 0.19432 0.0
C589 C 0.4675 0.98099 0.19026 0.0
C590 C 0.47045 0.98913 0.17292 0.0
C591 C 0.46791 0.95301 0.21236 0.0
C592 C 0.48399 0.94839 0.22109 0.0
C593 C 0.47965 0.93703 0.2372 0.0
C594 C 0.45921 0.93111 0.24492 0.0
C595 C 0.44286 0.93568 0.23644 0.0
C596 C 0.44746 0.94673 0.22013 0.0
C597 C 0.42056 0.92779 0.24409 0.0
C598 C 0.40979 0.90637 0.25252 0.0
C599 C 0.40965 0.94138 0.24281 0.0
C600 C 0.38851 0.93367 0.24964 0.0
C601 C 0.37786 0.91236 0.25824 0.0
C602 C 0.49577 0.93 0.24529 0.0
C603 C 0.5066 0.92129 0.234 0.0
C604 C 0.49984 0.93106 0.26425 0.0
C605 C 0.51403 0.9232 0.27171 0.0
C606 C 0.52473 0.91433 0.2604 0.0
C607 C 0.521 0.91372 0.24145 0.0
C608 C 0.38889 0.89891 0.25967 0.0
H609 H 0.4872 0.95202 0.15336 0.0
H610 H 0.48213 0.93791 0.18349 0.0
H611 H 0.46195 0.98914 0.20048 0.0
H612 H 0.46687 0.00322 0.17 0.0
H613 H 0.49988 0.9535 0.21517 0.0
H614 H 0.43468 0.9494 0.21295 0.0
H615 H 0.45578 0.92239 0.25736 0.0
H616 H 0.41733 0.8951 0.25347 0.0
H617 H 0.41748 0.9581 0.23659 0.0
H618 H 0.38046 0.94437 0.24799 0.0
H619 H 0.50363 0.91984 0.21933 0.0
H620 H 0.49201 0.93791 0.27337 0.0
H621 H 0.38153 0.88263 0.26644 0.0
H622 H 0.52922 0.9074 0.23229 0.0
H623 H 0.51625 0.92369 0.28636 0.0
C624 C 0.02693 0.4898 0.17208 0.0
C625 C 0.03649 0.50843 0.16069 0.0
C626 C 0.0349 0.49396 0.19055 0.0
C627 C 0.05258 0.51678 0.19787 0.0
C628 C 0.06279 0.53497 0.18621 0.0
C629 C 0.05482 0.53086 0.16788 0.0
C630 C 0.06009 0.5222 0.21764 0.0
C631 C 0.06424 0.50652 0.22738 0.0
C632 C 0.07323 0.51287 0.24575 0.0
C633 C 0.07761 0.53492 0.25436 0.0
C634 C 0.07367 0.5508 0.24477 0.0
C635 C 0.06449 0.54406 0.22655 0.0
C636 C 0.08092 0.57522 0.25326 0.0
C637 C 0.07741 0.57897 0.27143 0.0
C638 C 0.09233 0.59516 0.24333 0.0
C639 C 0.10025 0.6183 0.25138 0.0
C640 C 0.09707 0.62213 0.26962 0.0
C641 C 0.0799 0.49754 0.25554 0.0
C642 C 0.06602 0.47241 0.25359 0.0
C643 C 0.1007 0.50809 0.26663 0.0
C644 C 0.10754 0.49392 0.27545 0.0
C645 C 0.0939 0.4688 0.27329 0.0
C646 C 0.07293 0.45817 0.26241 0.0
C647 C 0.08538 0.6022 0.27952 0.0
H648 H 0.01275 0.47234 0.16686 0.0
H649 H 0.02673 0.4796 0.19922 0.0
H650 H 0.07688 0.55254 0.19132 0.0
H651 H 0.06287 0.54539 0.15933 0.0
H652 H 0.06164 0.49002 0.2204 0.0
H653 H 0.06098 0.55606 0.21918 0.0
H654 H 0.08487 0.54012 0.2684 0.0
H655 H 0.06855 0.56396 0.2794 0.0
H656 H 0.09562 0.59296 0.22938 0.0
H657 H 0.10887 0.63323 0.24329 0.0
H658 H 0.04983 0.46376 0.24524 0.0
H659 H 0.112 0.52736 0.26822 0.0
H660 H 0.08278 0.60456 0.29364 0.0
H661 H 0.06211 0.43885 0.26036 0.0
H662 H 0.12364 0.50271 0.28393 0.0
C663 C 0.45765 0.50158 0.1626 0.0
C664 C 0.47987 0.50663 0.15961 0.0
C665 C 0.45221 0.50463 0.18015 0.0
C666 C 0.46889 0.51284 0.19506 0.0
C667 C 0.49086 0.5171 0.19214 0.0
C668 C 0.49628 0.514 0.17463 0.0
C669 C 0.46383 0.51814 0.21346 0.0
C670 C 0.44312 0.50239 0.22034 0.0
C671 C 0.43854 0.5077 0.23773 0.0
C672 C 0.45454 0.52902 0.24815 0.0
C673 C 0.47496 0.54528 0.24127 0.0
C674 C 0.4796 0.53956 0.22401 0.0
C675 C 0.49084 0.5688 0.25165 0.0
C676 C 0.48227 0.58225 0.26021 0.0
C677 C 0.51461 0.57833 0.25256 0.0
C678 C 0.5295 0.60097 0.26167 0.0
C679 C 0.52093 0.61457 0.26998 0.0
C680 C 0.41666 0.49163 0.24496 0.0
C681 C 0.39591 0.48643 0.23559 0.0
C682 C 0.41655 0.48293 0.26193 0.0
C683 C 0.39599 0.46953 0.26957 0.0
C684 C 0.3753 0.46507 0.26053 0.0
C685 C 0.37538 0.47344 0.24341 0.0
C686 C 0.49715 0.60488 0.26927 0.0
H687 H 0.44468 0.49611 0.1513 0.0
H688 H 0.43519 0.50141 0.18196 0.0
H689 H 0.50395 0.52304 0.20342 0.0
H690 H 0.51341 0.51756 0.17285 0.0
H691 H 0.43074 0.48586 0.21233 0.0
H692 H 0.49511 0.55229 0.21843 0.0
H693 H 0.45083 0.53316 0.26151 0.0
H694 H 0.46405 0.57552 0.25957 0.0
H695 H 0.5217 0.5683 0.24621 0.0
H696 H 0.54775 0.60803 0.26184 0.0
H697 H 0.39568 0.49315 0.22255 0.0
H698 H 0.43241 0.48681 0.26936 0.0
H699 H 0.49001 0.61481 0.27571 0.0
H700 H 0.35958 0.47008 0.23617 0.0
H701 H 0.39633 0.46334 0.28282 0.0
Tb702 Tb 0.5219 0.01882 -0.00099 0.0
C703 C 0.50928 0.96568 0.00717 0.0
Tb704 Tb 0.47142 0.9803 0.00216 0.0
O705 O 0.52524 0.03546 0.02675 0.0
O706 O 0.50201 -0.00059 0.0193 0.0
O707 O 0.52434 0.98641 0.00133 0.0
C708 C 0.43087 0.95662 0.01525 0.0
O709 O 0.48835 0.96072 0.01057 0.0
C710 C 0.48533 0.9828 0.96964 0.0
C711 C 0.48422 0.03362 0.99406 0.0
O712 O 0.43684 0.94918 0.001 0.0
O713 O 0.44763 0.97741 0.02198 0.0
O714 O 0.46832 0.96343 0.97462 0.0
O715 O 0.49127 -0.00038 0.98184 0.0
O716 O 0.46892 0.01274 -0.00038 0.0
O717 O 0.50524 0.03866 0.99092 0.0
C718 C 0.56215 0.0411 0.98523 0.0
O719 O 0.55696 0.04916 -0.00035 0.0
O720 O 0.54479 0.02061 0.97876 0.0
C721 C 0.50806 0.0161 0.03164 0.0
Tb722 Tb 0.97767 0.50239 0.99537 0.0
C723 C 0.02792 0.54209 0.00922 0.0
Tb724 Tb 0.01193 0.48633 0.00536 0.0
O725 O 0.97729 0.51239 0.02393 0.0
O726 O 0.9832 0.48443 0.01655 0.0
O727 O 0.00865 0.53736 -0.00023 0.0
C728 C 0.04086 0.47556 0.02241 0.0
O729 O 0.03234 0.52502 0.01358 0.0
C730 C 0.00729 0.49206 0.97097 0.0
C731 C 0.9617 0.44693 0.99152 0.0
O732 O 0.03254 0.48782 0.02987 0.0
O733 O 0.0331 0.46963 0.00541 0.0
O734 O 0.01349 0.47741 0.9767 0.0
O735 O 0.00658 0.50446 0.98437 0.0
O736 O 0.98031 0.45177 0.00203 0.0
O737 O 0.95801 0.46407 0.98617 0.0
C738 C 0.94804 0.51287 0.97917 0.0
O739 O 0.95182 0.51306 0.99654 0.0
O740 O 0.96082 0.50656 0.97079 0.0
C741 C 0.98293 0.49738 0.02981 0.0
Tb742 Tb 0.47723 0.49794 0.0071 0.0
C743 C 0.48551 0.45765 0.98959 0.0
Tb744 Tb 0.5255 0.51234 0.99684 0.0
O745 O 0.46391 0.49097 0.97847 0.0
O746 O 0.49805 0.51627 0.98649 0.0
O747 O 0.47144 0.46257 0.9982 0.0
C748 C 0.56278 0.52343 0.97989 0.0
O749 O 0.50687 0.4741 0.98721 0.0
C750 C 0.51876 0.50444 0.03096 0.0
C751 C 0.517 0.5516 0.0141 0.0
O752 O 0.5419 0.51051 0.97249 0.0
O753 O 0.56259 0.52984 0.99677 0.0
O754 O 0.53865 0.51852 0.02559 0.0
O755 O 0.50462 0.49383 0.01726 0.0
O756 O 0.5275 0.54691 0.00123 0.0
O757 O 0.49871 0.5343 0.02062 0.0
C758 C 0.44019 0.48755 0.0241 0.0
O759 O 0.44924 0.50422 0.01317 0.0
O760 O 0.45202 0.47692 0.02549 0.0
C761 C 0.48373 0.50508 0.97293 0.0
Tb762 Tb 0.18993 0.35516 0.33337 0.0
C763 C 0.1802 0.30308 0.34223 0.0
Tb764 Tb 0.14012 0.31413 0.33567 0.0
O765 O 0.19194 0.37145 0.36093 0.0
O766 O 0.17002 0.33516 0.35339 0.0
O767 O 0.19468 0.32443 0.33694 0.0
C768 C 0.09964 0.28962 0.34871 0.0
O769 O 0.1585 0.29618 0.34453 0.0
C770 C 0.15547 0.31753 0.30359 0.0
C771 C 0.14982 0.36602 0.3264 0.0
O772 O 0.10593 0.28228 0.33459 0.0
O773 O 0.11604 0.31066 0.35532 0.0
O774 O 0.13868 0.2977 0.30827 0.0
O775 O 0.16014 0.3341 0.31569 0.0
O776 O 0.13532 0.345 0.3322 0.0
O777 O 0.17121 0.37221 0.32358 0.0
C778 C 0.23047 0.37891 0.32035 0.0
O779 O 0.22242 0.38836 0.33162 0.0
O780 O 0.2158 0.35627 0.31655 0.0
C781 C 0.17501 0.35172 0.3656 0.0
Tb782 Tb 0.64893 0.83858 0.33017 0.0
C783 C 0.69812 0.87571 0.3465 0.0
Tb784 Tb 0.68182 0.82049 0.34005 0.0
O785 O 0.6482 0.84754 0.35907 0.0
O786 O 0.65325 0.81944 0.35078 0.0
O787 O 0.68128 0.87219 0.3344 0.0
C788 C 0.7096 0.80851 0.35734 0.0
O789 O 0.69968 0.85758 0.35254 0.0
C790 C 0.67777 0.82688 0.30578 0.0
C791 C 0.63184 0.78257 0.32379 0.0
O792 O 0.71538 0.82365 0.34513 0.0
O793 O 0.68824 0.80012 0.35979 0.0
O794 O 0.68311 0.81146 0.31138 0.0
O795 O 0.67746 0.83949 0.31926 0.0
O796 O 0.65102 0.78614 0.33263 0.0
O797 O 0.62784 0.80031 0.32073 0.0
C798 C 0.62121 0.85185 0.3144 0.0
O799 O 0.62723 0.85456 0.33167 0.0
O800 O 0.63064 0.84143 0.30589 0.0
C801 C 0.6529 0.83164 0.36444 0.0
Tb802 Tb 0.14223 0.82918 0.33768 0.0
C803 C 0.15302 0.79093 0.32181 0.0
Tb804 Tb 0.19105 0.84562 0.32815 0.0
O805 O 0.12903 0.8209 0.309 0.0
O806 O 0.16273 0.84738 0.31681 0.0
O807 O 0.14144 0.79522 0.33392 0.0
C808 C 0.22886 0.85706 0.31186 0.0
O809 O 0.17134 0.80857 0.31555 0.0
C810 C 0.18424 0.83938 0.36242 0.0
C811 C 0.18011 0.88464 0.34409 0.0
O812 O 0.22008 0.84068 0.32304 0.0
O813 O 0.21636 0.86688 0.30986 0.0
O814 O 0.20388 0.85432 0.35701 0.0
O815 O 0.17046 0.82719 0.34881 0.0
O816 O 0.19463 0.88048 0.33544 0.0
O817 O 0.15932 0.86738 0.347 0.0
C818 C 0.10386 0.81645 0.35346 0.0
O819 O 0.12433 0.82812 0.3618 0.0
O820 O 0.10509 0.81226 0.33636 0.0
C821 C 0.1486 0.83534 0.30331 0.0
Tb822 Tb 0.85491 0.69001 0.66572 0.0
C823 C 0.84356 0.63841 0.67639 0.0
Tb824 Tb 0.80464 0.65107 0.66934 0.0
O825 O 0.85823 0.70786 0.693 0.0
O826 O 0.83508 0.67165 0.68643 0.0
O827 O 0.85805 0.65816 0.66912 0.0
C828 C 0.76364 0.62574 0.68146 0.0
O829 O 0.82296 0.63402 0.68025 0.0
C830 C 0.81853 0.65266 0.63678 0.0
C831 C 0.81653 0.70371 0.66048 0.0
O832 O 0.77268 0.61727 0.67038 0.0
O833 O 0.77758 0.64852 0.68559 0.0
O834 O 0.80159 0.63351 0.64204 0.0
O835 O 0.82428 0.66973 0.64866 0.0
O836 O 0.80163 0.68309 0.66661 0.0
O837 O 0.83745 0.7088 0.65695 0.0
C838 C 0.89504 0.71263 0.65178 0.0
O839 O 0.88959 0.7209 0.66592 0.0
O840 O 0.87801 0.69173 0.64567 0.0
C841 C 0.84095 0.68889 0.69822 0.0
Tb842 Tb 0.31562 0.17065 0.66282 0.0
C843 C 0.36328 0.20835 0.68261 0.0
Tb844 Tb 0.34987 0.15404 0.67329 0.0
O845 O 0.31206 0.17812 0.69136 0.0
O846 O 0.32083 0.15237 0.68379 0.0
O847 O 0.34603 0.2051 0.67111 0.0
C848 C 0.37755 0.14112 0.68964 0.0
O849 O 0.36613 0.19035 0.68722 0.0
C850 C 0.34701 0.1615 0.63907 0.0
C851 C 0.30137 0.11604 0.65458 0.0
O852 O 0.38421 0.161 0.68223 0.0
O853 O 0.35542 0.12863 0.68786 0.0
O854 O 0.35361 0.14711 0.64471 0.0
O855 O 0.3451 0.17281 0.65261 0.0
O856 O 0.31903 0.11963 0.66571 0.0
O857 O 0.29814 0.13379 0.65005 0.0
C858 C 0.28809 0.18326 0.64588 0.0
O859 O 0.28315 0.17025 0.65947 0.0
O860 O 0.30844 0.18902 0.64176 0.0
C861 C 0.31884 0.16393 0.6972 0.0
Tb862 Tb 0.81215 0.16775 0.67262 0.0
C863 C 0.82131 0.12867 0.65605 0.0
Tb864 Tb 0.86056 0.18268 0.66277 0.0
O865 O 0.79888 0.1597 0.64392 0.0
O866 O 0.83276 0.18554 0.65175 0.0
O867 O 0.81041 0.13329 0.6686 0.0
C868 C 0.89804 0.1932 0.64634 0.0
O869 O 0.8397 0.14601 0.64966 0.0
C870 C 0.85376 0.17643 0.69707 0.0
C871 C 0.85111 0.22287 0.67859 0.0
O872 O 0.88897 0.17676 0.65745 0.0
O873 O 0.886 0.20355 0.64449 0.0
O874 O 0.8735 0.19102 0.69163 0.0
O875 O 0.83982 0.16459 0.68346 0.0
O876 O 0.86511 0.21796 0.66985 0.0
O877 O 0.83023 0.20611 0.68182 0.0
C878 C 0.77403 0.15577 0.68854 0.0
O879 O 0.77518 0.15217 0.67133 0.0
O880 O 0.79448 0.16648 0.69692 0.0
C881 C 0.81853 0.17388 0.63824 0.0
H882 H 0.29774 0.84715 0.04047 0.0
H883 H 0.41806 0.96954 0.0462 0.0
H884 H 0.32256 0.90243 0.08532 0.0
H885 H 0.39441 0.91286 0.00262 0.0
H886 H 0.38242 0.94606 0.06009 0.0
H887 H 0.33237 0.87165 0.02584 0.0
C888 C 0.31053 0.86441 0.04729 0.0
C889 C 0.30729 0.87267 0.06422 0.0
C890 C 0.38496 0.93877 0.04746 0.0
C891 C 0.34693 0.90098 0.04741 0.0
C892 C 0.40527 0.95218 0.03952 0.0
C893 C 0.40909 0.94306 0.02327 0.0
C894 C 0.36839 0.91608 0.03907 0.0
C895 C 0.39207 0.92049 0.01518 0.0
C896 C 0.33026 0.87846 0.03887 0.0
C897 C 0.32425 0.89541 0.07222 0.0
N898 N 0.37245 0.90773 0.02318 0.0
N899 N 0.34336 0.90874 0.06377 0.0
H900 H 0.1109 0.40054 0.05296 0.0
H901 H 0.06204 0.49027 0.05705 0.0
H902 H 0.1393 0.463 0.09191 0.0
H903 H 0.05334 0.44422 0.00907 0.0
H904 H 0.08656 0.47728 0.07227 0.0
H905 H 0.08525 0.41277 0.03902 0.0
C906 C 0.11157 0.41672 0.05866 0.0
C907 C 0.12724 0.43083 0.07356 0.0
C908 C 0.07929 0.47008 0.0584 0.0
C909 C 0.09807 0.44494 0.05769 0.0
C910 C 0.06533 0.47746 0.04975 0.0
C911 C 0.05582 0.46834 0.0318 0.0
C912 C 0.08339 0.45325 0.04908 0.0
C913 C 0.06047 0.45174 0.02291 0.0
C914 C 0.09707 0.42378 0.05064 0.0
C915 C 0.12759 0.45176 0.08032 0.0
N916 N 0.07386 0.44463 0.03167 0.0
N917 N 0.11316 0.45818 0.07236 0.0
H918 H 0.56956 0.68354 0.08363 0.0
H919 H 0.54138 0.59188 0.99686 0.0
H920 H 0.5645 0.70239 0.0293 0.0
H921 H 0.51278 0.56835 0.04753 0.0
H922 H 0.55623 0.63358 0.00914 0.0
H923 H 0.5551 0.64193 0.07119 0.0
C924 C 0.56555 0.67888 0.06907 0.0
C925 C 0.56817 0.69625 0.05742 0.0
C926 C 0.54665 0.61924 0.01751 0.0
C927 C 0.55189 0.64907 0.04318 0.0
C928 C 0.53826 0.59551 0.01057 0.0
C929 C 0.52577 0.57671 0.0212 0.0
C930 C 0.54295 0.62415 0.03532 0.0
C931 C 0.52216 0.58235 0.03885 0.0
C932 C 0.55719 0.65521 0.06202 0.0
C933 C 0.56259 0.6894 0.03868 0.0
N934 N 0.53089 0.60562 0.04544 0.0
N935 N 0.55484 0.66631 0.03209 0.0
H936 H 0.84749 0.31837 0.9354 0.0
H937 H 0.96392 0.40662 0.99754 0.0
H938 H 0.89249 0.29563 0.95864 0.0
H939 H 0.92062 0.42955 0.97126 0.0
H940 H 0.9367 0.36536 0.98528 0.0
H941 H 0.87287 0.35868 0.95026 0.0
C942 C 0.86263 0.32181 0.94376 0.0
C943 C 0.86786 0.30358 0.94578 0.0
C944 C 0.93312 0.37942 0.98228 0.0
C945 C 0.89719 0.34984 0.9627 0.0
C946 C 0.94862 0.40299 0.98932 0.0
C947 C 0.94461 0.42164 0.98538 0.0
C948 C 0.91346 0.37443 0.97123 0.0
C949 C 0.92449 0.41581 0.97463 0.0
C950 C 0.87719 0.34488 0.95217 0.0
C951 C 0.88793 0.30921 0.95654 0.0
N952 N 0.90973 0.39275 0.96788 0.0
N953 N 0.90187 0.33185 0.96459 0.0
H954 H 0.66304 0.53585 0.90687 0.0
H955 H 0.60656 0.55478 0.99341 0.0
H956 H 0.69865 0.59623 0.94767 0.0
H957 H 0.56611 0.50889 0.94526 0.0
H958 H 0.64108 0.56759 0.97781 0.0
H959 H 0.62774 0.5232 0.9216 0.0
C960 C 0.66339 0.54644 0.91891 0.0
C961 C 0.68374 0.56711 0.92608 0.0
C962 C 0.62467 0.55475 0.97063 0.0
C963 C 0.64363 0.55273 0.94299 0.0
C964 C 0.60499 0.54736 0.97954 0.0
C965 C 0.58355 0.53076 0.97057 0.0
C966 C 0.62291 0.54527 0.95267 0.0
C967 C 0.5824 0.52173 0.95261 0.0
C968 C 0.64326 0.53928 0.92724 0.0
C969 C 0.68327 0.5803 0.94161 0.0
N970 N 0.60188 0.52904 0.94423 0.0
N971 N 0.66357 0.57279 0.94962 0.0
H972 H 0.40447 0.09764 0.95855 0.0
H973 H 0.51011 0.07773 0.98199 0.0
H974 H 0.47251 0.14258 0.94294 0.0
H975 H 0.44121 0.02805 0.99365 0.0
H976 H 0.49693 0.10352 0.97017 0.0
H977 H 0.41774 0.07328 0.97335 0.0
C978 C 0.42216 0.10236 0.95818 0.0
C979 C 0.43739 0.12224 0.94949 0.0
C980 C 0.48468 0.08704 0.97539 0.0
C981 C 0.45274 0.09463 0.9666 0.0
C982 C 0.49222 0.07229 0.98221 0.0
C983 C 0.47673 0.05054 0.98871 0.0
C984 C 0.46144 0.08007 0.975 0.0
C985 C 0.45376 0.0446 0.98871 0.0
C986 C 0.42976 0.08853 0.96674 0.0
C987 C 0.46021 0.12768 0.94969 0.0
N988 N 0.44678 0.05921 0.98184 0.0
N989 N 0.46715 0.11396 0.95807 0.0
H990 H 0.70066 0.13844 0.96171 0.0
H991 H 0.57291 0.02655 0.95397 0.0
H992 H 0.6708 0.08447 0.91582 0.0
H993 H 0.60093 0.08316 0.99795 0.0
H994 H 0.60912 0.0468 0.94032 0.0
H995 H 0.66488 0.11762 0.97581 0.0
C996 C 0.68663 0.12208 0.95466 0.0
C997 C 0.68877 0.11314 0.93757 0.0
C998 C 0.6074 0.05482 0.95296 0.0
C999 C 0.64761 0.08936 0.95357 0.0
C1000 C 0.58675 0.04325 0.96076 0.0
C1001 C 0.58402 0.05324 0.9771 0.0
C1002 C 0.62548 0.07652 0.96159 0.0
C1003 C 0.60241 0.07491 0.98533 0.0
C1004 C 0.66615 0.1103 0.96267 0.0
C1005 C 0.66986 0.09212 0.92893 0.0
N1006 N 0.6224 0.08584 0.97748 0.0
N1007 N 0.65009 0.08094 0.93703 0.0
H1008 H 0.8568 0.53472 0.90669 0.0
H1009 H 0.92694 0.53377 0.99601 0.0
H1010 H 0.87425 0.58425 0.95463 0.0
H1011 H 0.93461 0.50883 0.94294 0.0
H1012 H 0.90263 0.54739 0.98175 0.0
H1013 H 0.88102 0.5206 0.92034 0.0
C1014 C 0.86579 0.54278 0.92 0.0
C1015 C 0.86337 0.56075 0.92949 0.0
C1016 C 0.90962 0.53894 0.97322 0.0
C1017 C 0.89063 0.54413 0.94532 0.0
C1018 C 0.92338 0.53107 0.98134 0.0
C1019 C 0.93275 0.52023 0.97059 0.0
C1020 C 0.90495 0.53563 0.95423 0.0
C1021 C 0.92769 0.51717 0.95166 0.0
C1022 C 0.87951 0.53458 0.9278 0.0
C1023 C 0.87514 0.57006 0.9469 0.0
N1024 N 0.91401 0.52477 0.94404 0.0
N1025 N 0.88813 0.56156 0.95426 0.0
H1026 H 0.46513 0.31561 0.96325 0.0
H1027 H 0.44154 0.42348 0.97819 0.0
H1028 H 0.41267 0.31881 0.93005 0.0
H1029 H 0.51001 0.43494 0.98464 0.0
H1030 H 0.42758 0.38206 0.96575 0.0
H1031 H 0.4789 0.35679 0.97664 0.0
C1032 C 0.45647 0.32499 0.95892 0.0
C1033 C 0.43783 0.31404 0.94558 0.0
C1034 C 0.44564 0.39368 0.96992 0.0
C1035 C 0.45315 0.36057 0.96085 0.0
C1036 C 0.45359 0.41721 0.9771 0.0
C1037 C 0.47695 0.43259 0.98242 0.0
C1038 C 0.46108 0.38535 0.96847 0.0
C1039 C 0.49189 0.42365 0.98059 0.0
C1040 C 0.46436 0.3484 0.96645 0.0
C1041 C 0.42716 0.32681 0.94028 0.0
N1042 N 0.48366 0.4005 0.97389 0.0
N1043 N 0.43488 0.34941 0.94804 0.0
H1044 H 0.09184 0.6828 0.06616 0.0
H1045 H 0.07406 0.56204 0.01771 0.0
H1046 H 0.14716 0.68047 0.04192 0.0
H1047 H 0.0203 0.57941 0.01501 0.0
H1048 H 0.10131 0.60362 0.0298 0.0
H1049 H 0.06504 0.6428 0.05076 0.0
C1050 C 0.09824 0.67382 0.05751 0.0
C1051 C 0.12158 0.68475 0.05519 0.0
C1052 C 0.08357 0.5983 0.02638 0.0
C1053 C 0.09135 0.63916 0.03793 0.0
C1054 C 0.06803 0.57462 0.01957 0.0
C1055 C 0.04492 0.56732 0.01534 0.0
C1056 C 0.07578 0.61453 0.0294 0.0
C1057 C 0.038 0.58434 0.01798 0.0
C1058 C 0.08302 0.65114 0.04872 0.0
C1059 C 0.12919 0.67253 0.0439 0.0
N1060 N 0.05331 0.6071 0.02507 0.0
N1061 N 0.11413 0.65018 0.03583 0.0
H1062 H 0.30661 0.40446 0.06055 0.0
H1063 H 0.41781 0.51266 0.02791 0.0
H1064 H 0.32622 0.47786 0.07672 0.0
H1065 H 0.41425 0.44628 0.03935 0.0
H1066 H 0.38144 0.49944 0.0413 0.0
H1067 H 0.34335 0.41858 0.04775 0.0
C1068 C 0.31866 0.42355 0.06129 0.0
C1069 C 0.31356 0.44008 0.06967 0.0
C1070 C 0.38874 0.48787 0.04091 0.0
C1071 C 0.35524 0.45627 0.05501 0.0
C1072 C 0.40937 0.49535 0.03327 0.0
C1073 C 0.41891 0.48049 0.03259 0.0
C1074 C 0.37747 0.46521 0.04746 0.0
C1075 C 0.40741 0.45825 0.03969 0.0
C1076 C 0.33958 0.43156 0.05411 0.0
C1077 C 0.32969 0.46462 0.07042 0.0
N1078 N 0.38714 0.45115 0.04668 0.0
N1079 N 0.34982 0.47204 0.06304 0.0
H1080 H 0.52838 0.86451 0.06562 0.0
H1081 H 0.55061 0.96901 0.00256 0.0
H1082 H 0.59112 0.90501 0.04073 0.0
H1083 H 0.48646 0.92518 0.02478 0.0
H1084 H 0.56511 0.94452 0.01507 0.0
H1085 H 0.51236 0.88575 0.0499 0.0
C1086 C 0.53883 0.87797 0.05691 0.0
C1087 C 0.5612 0.88312 0.0546 0.0
C1088 C 0.5478 0.94015 0.01709 0.0
C1089 C 0.54285 0.90736 0.03637 0.0
C1090 C 0.53947 0.95411 0.00991 0.0
C1091 C 0.51731 0.94929 0.01273 0.0
C1092 C 0.53394 0.92129 0.02724 0.0
C1093 C 0.50367 0.92965 0.02231 0.0
C1094 C 0.5296 0.88996 0.04782 0.0
C1095 C 0.57377 0.90038 0.04283 0.0
N1096 N 0.51227 0.91652 0.02934 0.0
N1097 N 0.56447 0.91197 0.03424 0.0
H1098 H 0.96476 0.18228 0.37286 0.0
H1099 H 0.08649 0.30298 0.37916 0.0
H1100 H 0.99055 0.23748 0.41785 0.0
H1101 H 0.06321 0.2456 0.33621 0.0
H1102 H 0.05051 0.28011 0.39268 0.0
H1103 H -0.0002 0.20599 0.35843 0.0
C1104 C 0.97783 0.19936 0.37974 0.0
C1105 C 0.97475 0.20782 0.39666 0.0
C1106 C 0.05321 0.27251 0.38028 0.0
C1107 C 0.01484 0.2352 0.3801 0.0
C1108 C 0.07371 0.28556 0.37255 0.0
C1109 C 0.07774 0.27609 0.35657 0.0
C1110 C 0.03658 0.24981 0.37195 0.0
C1111 C 0.06072 0.25348 0.34856 0.0
C1112 C 0.99779 0.21294 0.37144 0.0
C1113 C 0.99208 0.23032 0.40474 0.0
N1114 N 0.04085 0.24106 0.35635 0.0
N1115 N 0.0114 0.24318 0.39641 0.0
H1116 H 0.76623 0.72546 0.39777 0.0
H1117 H 0.75616 0.83164 0.35991 0.0
H1118 H 0.81959 0.79928 0.41159 0.0
H1119 H 0.69712 0.76892 0.37539 0.0
H1120 H 0.78085 0.81851 0.3746 0.0
H1121 H 0.74135 0.73947 0.38549 0.0
C1122 C 0.77274 0.74458 0.39844 0.0
C1123 C 0.79521 0.76115 0.40581 0.0
C1124 C 0.76249 0.80773 0.37482 0.0
C1125 C 0.76688 0.77718 0.39113 0.0
C1126 C 0.74845 0.81513 0.36642 0.0
C1127 C 0.72467 0.80128 0.36649 0.0
C1128 C 0.75257 0.78608 0.38291 0.0
C1129 C 0.71543 0.78008 0.37511 0.0
C1130 C 0.75851 0.75252 0.39129 0.0
C1131 C 0.80267 0.78574 0.40574 0.0
N1132 N 0.7294 0.77295 0.38283 0.0
N1133 N 0.78862 0.793 0.39836 0.0
H1134 H 0.19114 0.01112 0.4011 0.0
H1135 H 0.22105 0.9253 0.34098 0.0
H1136 H 0.256 0.03546 0.37908 0.0
H1137 H 0.15629 0.90099 0.36327 0.0
H1138 H 0.23369 0.966 0.35395 0.0
H1139 H 0.17763 0.97092 0.38647 0.0
C1140 C 0.2025 0.00805 0.39309 0.0
C1141 C 0.22475 0.0267 0.39132 0.0
C1142 C 0.21668 0.95178 0.35595 0.0
C1143 C 0.20946 0.98061 0.37466 0.0
C1144 C 0.20942 0.92849 0.34852 0.0
C1145 C 0.18756 0.90962 0.35105 0.0
C1146 C 0.20202 0.95626 0.36602 0.0
C1147 C 0.17328 0.91492 0.36096 0.0
C1148 C 0.19481 0.98505 0.38481 0.0
C1149 C 0.23883 0.02156 0.38101 0.0
N1150 N 0.18079 0.93773 0.36812 0.0
N1151 N 0.23095 0.999 0.37307 0.0
H1152 H 0.56037 0.62994 0.29216 0.0
H1153 H 0.59061 0.76688 0.30397 0.0
H1154 H 0.5175 0.65489 0.26828 0.0
H1155 H 0.63311 0.74144 0.32792 0.0
H1156 H 0.56288 0.72577 0.2917 0.0
H1157 H 0.5867 0.67061 0.30612 0.0
C1158 C 0.55653 0.64399 0.28982 0.0
C1159 C 0.53673 0.63901 0.279 0.0
C1160 C 0.57824 0.7292 0.29971 0.0
C1161 C 0.5667 0.68559 0.29504 0.0
C1162 C 0.59409 0.75268 0.30675 0.0
C1163 C 0.61429 0.75769 0.31697 0.0
C1164 C 0.58264 0.7106 0.30289 0.0
C1165 C 0.61783 0.73851 0.32009 0.0
C1166 C 0.57149 0.66719 0.29787 0.0
C1167 C 0.53243 0.65785 0.27668 0.0
N1168 N 0.60221 0.71586 0.31303 0.0
N1169 N 0.54733 0.68032 0.28458 0.0
H1170 H 0.36158 0.93995 0.27384 0.0
H1171 H 0.25212 0.8328 0.30899 0.0
H1172 H 0.34268 0.86606 0.25994 0.0
H1173 H 0.25402 0.89781 0.29567 0.0
H1174 H 0.28826 0.84596 0.2953 0.0
H1175 H 0.32477 0.9261 0.28604 0.0
C1176 C 0.34973 0.92085 0.27318 0.0
C1177 C 0.35543 0.90421 0.26575 0.0
C1178 C 0.28067 0.85726 0.29534 0.0
C1179 C 0.3135 0.88834 0.2803 0.0
C1180 C 0.26017 0.84982 0.30317 0.0
C1181 C 0.25021 0.86429 0.3034 0.0
C1182 C 0.29141 0.87951 0.28811 0.0
C1183 C 0.2612 0.88615 0.2957 0.0
C1184 C 0.32876 0.91299 0.28027 0.0
C1185 C 0.3394 0.87964 0.26581 0.0
N1186 N 0.28137 0.89323 0.2885 0.0
N1187 N 0.31925 0.87246 0.27308 0.0
H1188 H 0.13723 0.47594 0.27597 0.0
H1189 H 0.10594 0.35814 0.32569 0.0
H1190 H 0.0692 0.42763 0.29009 0.0
H1191 H 0.17405 0.40994 0.31375 0.0
H1192 H 0.09196 0.38342 0.31359 0.0
H1193 H 0.15078 0.45191 0.29041 0.0
C1194 C 0.12514 0.46036 0.28226 0.0
C1195 C 0.10205 0.45391 0.28192 0.0
C1196 C 0.10997 0.38927 0.31373 0.0
C1197 C 0.11745 0.42596 0.29831 0.0
C1198 C 0.11799 0.37488 0.32067 0.0
C1199 C 0.1412 0.38182 0.32063 0.0
C1200 C 0.12528 0.41071 0.3067 0.0
C1201 C 0.156 0.40372 0.31397 0.0
C1202 C 0.13288 0.44655 0.29043 0.0
C1203 C 0.0871 0.43317 0.28991 0.0
N1204 N 0.14776 0.41727 0.30721 0.0
N1205 N 0.09506 0.41991 0.29779 0.0
H1206 H 0.34475 0.4799 0.26636 0.0
H1207 H 0.25248 0.35937 0.30311 0.0
H1208 H 0.35738 0.42191 0.27471 0.0
H1209 H 0.2578 0.42729 0.31921 0.0
H1210 H 0.28816 0.38049 0.28872 0.0
H1211 H 0.30965 0.45925 0.28171 0.0
C1212 C 0.34 0.46274 0.27134 0.0
C1213 C 0.35383 0.45248 0.26928 0.0
C1214 C 0.28157 0.39076 0.29549 0.0
C1215 C 0.31393 0.42888 0.28667 0.0
C1216 C 0.26125 0.37876 0.30364 0.0
C1217 C 0.25235 0.39169 0.31236 0.0
C1218 C 0.29277 0.41581 0.29574 0.0
C1219 C 0.26425 0.41674 0.31268 0.0
C1220 C 0.32015 0.4511 0.28018 0.0
C1221 C 0.34715 0.43038 0.27611 0.0
N1222 N 0.28382 0.42804 0.30431 0.0
N1223 N 0.32754 0.41918 0.28439 0.0
H1224 H 0.55412 0.93206 0.29171 0.0
H1225 H 0.60339 0.84358 0.2789 0.0
H1226 H 0.52905 0.87626 0.24713 0.0
H1227 H 0.60671 0.87985 0.33076 0.0
H1228 H 0.57991 0.8589 0.26534 0.0
H1229 H 0.5774 0.91657 0.30472 0.0
C1230 C 0.55336 0.91649 0.28468 0.0
C1231 C 0.53945 0.90544 0.26829 0.0
C1232 C 0.58575 0.86342 0.2797 0.0
C1233 C 0.56654 0.88796 0.28298 0.0
C1234 C 0.59913 0.85473 0.2874 0.0
C1235 C 0.60685 0.86044 0.30594 0.0
C1236 C 0.58045 0.87817 0.29061 0.0
C1237 C 0.60099 0.87498 0.31641 0.0
C1238 C 0.56678 0.90774 0.29209 0.0
C1239 C 0.53972 0.88564 0.25963 0.0
N1240 N 0.58822 0.88346 0.30857 0.0
N1241 N 0.55308 0.87757 0.26705 0.0
H1242 H 0.13819 0.66208 0.26585 0.0
H1243 H 0.11535 0.75017 0.33025 0.0
H1244 H 0.07677 0.63865 0.29304 0.0
H1245 H 0.17288 0.77438 0.29809 0.0
H1246 H 0.10222 0.7089 0.31841 0.0
H1247 H 0.15231 0.703 0.27911 0.0
C1248 C 0.12761 0.66555 0.27456 0.0
C1249 C 0.10616 0.64691 0.27821 0.0
C1250 C 0.11774 0.72323 0.31397 0.0
C1251 C 0.1224 0.69375 0.29365 0.0
C1252 C 0.12529 0.74683 0.32075 0.0
C1253 C 0.14526 0.76581 0.31514 0.0
C1254 C 0.13025 0.71853 0.30152 0.0
C1255 C 0.15738 0.76035 0.30279 0.0
C1256 C 0.13575 0.68892 0.2822 0.0
C1257 C 0.09347 0.65241 0.28994 0.0
N1258 N 0.14967 0.73721 0.29638 0.0
N1259 N 0.10175 0.67536 0.2972 0.0
H1260 H 0.77254 0.0291 0.37674 0.0
H1261 H 0.73498 0.89008 0.37137 0.0
H1262 H 0.80804 0.00092 0.40772 0.0
H1263 H 0.70051 0.91778 0.33848 0.0
H1264 H 0.76236 0.93082 0.38428 0.0
H1265 H 0.74654 0.98874 0.36191 0.0
C1266 C 0.77496 0.01447 0.38034 0.0
C1267 C 0.79242 0.01838 0.39357 0.0
C1268 C 0.74887 0.92803 0.37418 0.0
C1269 C 0.76262 0.97215 0.37679 0.0
C1270 C 0.73321 0.90473 0.36678 0.0
C1271 C 0.71538 0.90046 0.35381 0.0
C1272 C 0.7467 0.94727 0.36865 0.0
C1273 C 0.71397 0.92021 0.34844 0.0
C1274 C 0.76005 0.99142 0.37193 0.0
C1275 C 0.79458 0.99869 0.39784 0.0
N1276 N 0.72939 0.94275 0.35593 0.0
N1277 N 0.77985 0.97645 0.38951 0.0
H1278 H 0.96362 0.73388 0.37649 0.0
H1279 H 0.09819 0.8256 0.38883 0.0
H1280 H 0.99642 0.78859 0.42182 0.0
H1281 H 0.06085 0.78731 0.33743 0.0
H1282 H 0.0618 0.8095 0.40261 0.0
H1283 H 5e-05 0.7505 0.36328 0.0
C1284 C 0.97841 0.74946 0.38364 0.0
C1285 C 0.97685 0.75987 0.40029 0.0
C1286 C 0.06163 0.80473 0.3883 0.0
C1287 C 0.01876 0.77872 0.38535 0.0
C1288 C 0.08232 0.81388 0.38047 0.0
C1289 C 0.08239 0.80777 0.362 0.0
C1290 C 0.04103 0.78918 0.37758 0.0
C1291 C 0.06148 0.79249 0.35172 0.0
C1292 C -0.00075 0.75887 0.37612 0.0
C1293 C 0.99682 0.77972 0.4091 0.0
N1294 N 0.04163 0.78362 0.35967 0.0
N1295 N 0.01696 0.78848 0.40154 0.0
H1296 H 0.20396 0.18896 0.37265 0.0
H1297 H 0.22478 0.31734 0.35236 0.0
H1298 H 0.25641 0.25426 0.40309 0.0
H1299 H 0.15702 0.25493 0.34633 0.0
H1300 H 0.23971 0.29335 0.3652 0.0
H1301 H 0.1894 0.2121 0.35736 0.0
C1302 C 0.21245 0.2082 0.37599 0.0
C1303 C 0.23133 0.21983 0.38911 0.0
C1304 C 0.22161 0.28493 0.36096 0.0
C1305 C 0.2151 0.24622 0.37163 0.0
C1306 C 0.21307 0.29851 0.3535 0.0
C1307 C 0.18957 0.2881 0.34832 0.0
C1308 C 0.20665 0.26067 0.36294 0.0
C1309 C 0.17521 0.26367 0.35025 0.0
C1310 C 0.20411 0.22131 0.36736 0.0
C1311 C 0.24172 0.24471 0.39311 0.0
N1312 N 0.184 0.25071 0.35738 0.0
N1313 N 0.23355 0.25715 0.38429 0.0
H1314 H 0.63465 0.57283 0.72848 0.0
H1315 H 0.73849 0.57714 0.68052 0.0
H1316 H 0.65355 0.51843 0.73266 0.0
H1317 H 0.73948 0.6418 0.70016 0.0
H1318 H 0.70319 0.55352 0.6949 0.0
H1319 H 0.6696 0.59703 0.71397 0.0
C1320 C 0.64611 0.56596 0.7265 0.0
C1321 C 0.64093 0.54338 0.73182 0.0
C1322 C 0.71113 0.57288 0.69602 0.0
C1323 C 0.68059 0.57079 0.7147 0.0
C1324 C 0.73115 0.58632 0.68775 0.0
C1325 C 0.74182 0.61138 0.68923 0.0
C1326 C 0.70155 0.5846 0.70553 0.0
C1327 C 0.73172 0.62247 0.69879 0.0
C1328 C 0.66598 0.57977 0.7181 0.0
C1329 C 0.65638 0.53538 0.72847 0.0
N1330 N 0.71203 0.60898 0.70654 0.0
N1331 N 0.67538 0.54898 0.72003 0.0
H1332 H 0.4884 0.13532 0.74804 0.0
H1333 H 0.36546 0.09713 0.70023 0.0
H1334 H 0.4387 0.06211 0.72799 0.0
H1335 H 0.42355 0.16815 0.69936 0.0
H1336 H 0.39057 0.08459 0.71474 0.0
H1337 H 0.46335 0.14831 0.73424 0.0
C1338 C 0.47232 0.12195 0.74069 0.0
C1339 C 0.46577 0.09753 0.73917 0.0
C1340 C 0.39782 0.1029 0.71136 0.0
C1341 C 0.43682 0.11234 0.72375 0.0
C1342 C 0.38352 0.11007 0.70314 0.0
C1343 C 0.39255 0.13364 0.69856 0.0
C1344 C 0.42123 0.11954 0.71525 0.0
C1345 C 0.41601 0.14977 0.70263 0.0
C1346 C 0.458 0.12942 0.73291 0.0
C1347 C 0.4444 0.08106 0.72983 0.0
N1348 N 0.42959 0.14244 0.71083 0.0
N1349 N 0.43069 0.08876 0.72253 0.0
H1350 H 0.86486 0.35485 0.72761 0.0
H1351 H 0.89258 0.26228 0.67472 0.0
H1352 H 0.93025 0.3749 0.70796 0.0
H1353 H 0.82819 0.24141 0.69669 0.0
H1354 H 0.90604 0.30385 0.68567 0.0
H1355 H 0.85049 0.31353 0.7151 0.0
C1356 C 0.87614 0.3506 0.72051 0.0
C1357 C 0.8988 0.36838 0.71881 0.0
C1358 C 0.88895 0.29019 0.68807 0.0
C1359 C 0.88253 0.32101 0.70465 0.0
C1360 C 0.88121 0.2664 0.6818 0.0
C1361 C 0.85919 0.24824 0.68479 0.0
C1362 C 0.8746 0.29596 0.69742 0.0
C1363 C 0.84529 0.25476 0.69407 0.0
C1364 C 0.86797 0.32697 0.71349 0.0
C1365 C 0.91276 0.36173 0.70977 0.0
N1366 N 0.85325 0.27809 0.70007 0.0
N1367 N 0.9044 0.33858 0.70303 0.0
H1368 H 0.18648 0.99014 0.59557 0.0
H1369 H 0.30249 0.07487 0.65931 0.0
H1370 H 0.22845 0.96478 0.62048 0.0
H1371 H 0.2622 0.10065 0.63202 0.0
H1372 H 0.27506 0.03428 0.64592 0.0
H1373 H 0.21346 0.03055 0.60962 0.0
C1374 C 0.2013 0.99304 0.6041 0.0
C1375 C 0.20518 0.97402 0.60688 0.0
C1376 C 0.27221 0.04882 0.64288 0.0
C1377 C 0.23631 0.02034 0.62287 0.0
C1378 C 0.28786 0.07203 0.65055 0.0
C1379 C 0.28467 0.09127 0.64681 0.0
C1380 C 0.25319 0.04474 0.6314 0.0
C1381 C 0.26539 0.08642 0.6353 0.0
C1382 C 0.21678 0.01616 0.61203 0.0
C1383 C 0.2249 0.97894 0.61781 0.0
N1384 N 0.2504 0.06366 0.62802 0.0
N1385 N 0.23971 0.00161 0.62542 0.0
H1386 H 0.03104 0.27555 0.60893 0.0
H1387 H 0.92098 0.16856 0.64367 0.0
H1388 H 0.01237 0.20163 0.59559 0.0
H1389 H 0.92353 0.23382 0.63018 0.0
H1390 H 0.95729 0.18154 0.63029 0.0
H1391 H 0.99415 0.26176 0.62095 0.0
C1392 C 0.01922 0.25645 0.60836 0.0
C1393 C 0.02498 0.23979 0.60113 0.0
C1394 C 0.9498 0.19292 0.63022 0.0
C1395 C 0.98295 0.22398 0.61544 0.0
C1396 C 0.9292 0.18558 0.63787 0.0
C1397 C 0.91939 0.20018 0.63797 0.0
C1398 C 0.96076 0.2152 0.62304 0.0
C1399 C 0.93059 0.22205 0.6303 0.0
C1400 C -0.0018 0.24862 0.61535 0.0
C1401 C 0.00901 0.21522 0.6013 0.0
N1402 N 0.95083 0.22903 0.62328 0.0
N1403 N 0.98879 0.20806 0.60844 0.0
H1404 H 0.73503 0.76588 0.62588 0.0
H1405 H 0.84204 0.74823 0.64897 0.0
H1406 H 0.80428 0.81612 0.6155 0.0
H1407 H 0.77333 0.69746 0.66033 0.0
H1408 H 0.82855 0.7743 0.63828 0.0
H1409 H 0.74866 0.74125 0.63976 0.0
C1410 C 0.75308 0.77173 0.62651 0.0
C1411 C 0.76853 0.79311 0.61951 0.0
C1412 C 0.81641 0.75752 0.64319 0.0
C1413 C 0.78425 0.76514 0.63547 0.0
C1414 C 0.82412 0.74259 0.64932 0.0
C1415 C 0.80878 0.7205 0.65544 0.0
C1416 C 0.79314 0.75033 0.64308 0.0
C1417 C 0.78577 0.71429 0.65567 0.0
C1418 C 0.76087 0.75774 0.63453 0.0
C1419 C 0.79178 0.79997 0.62092 0.0
N1420 N 0.77861 0.72906 0.64945 0.0
N1421 N 0.79889 0.786 0.62867 0.0
H1422 H 0.03261 0.8119 0.6272 0.0
H1423 H 0.90632 0.69763 0.621 0.0
H1424 H 0.00379 0.75624 0.58245 0.0
H1425 H 0.93314 0.75564 0.66382 0.0
H1426 H 0.94239 0.71825 0.6072 0.0
H1427 H 0.99694 0.79088 0.64143 0.0
C1428 C 0.01884 0.79515 0.62043 0.0
C1429 C 0.02123 0.78579 0.60361 0.0
C1430 C 0.94045 0.7265 0.61962 0.0
C1431 C 0.98019 0.76175 0.61976 0.0
C1432 C 0.91988 0.71472 0.62751 0.0
C1433 C 0.91685 0.72499 0.64356 0.0
C1434 C 0.95815 0.7487 0.62788 0.0
C1435 C 0.93486 0.74715 0.65142 0.0
C1436 C -0.00159 0.78325 0.62851 0.0
C1437 C 0.00263 0.76424 0.59532 0.0
N1438 N 0.95478 0.75829 0.6435 0.0
N1439 N 0.98293 0.75294 0.60349 0.0
H1440 H 0.18576 0.22301 0.62372 0.0
H1441 H 0.29644 0.20975 0.61693 0.0
H1442 H 0.23129 0.25069 0.58157 0.0
H1443 H 0.24709 0.17606 0.65561 0.0
H1444 H 0.27311 0.22538 0.60396 0.0
H1445 H 0.20863 0.20663 0.63611 0.0
C1446 C 0.20067 0.22579 0.61715 0.0
C1447 C 0.20666 0.23828 0.60161 0.0
C1448 C 0.26732 0.2145 0.61524 0.0
C1449 C 0.23278 0.21934 0.6156 0.0
C1450 C 0.28062 0.20558 0.62262 0.0
C1451 C 0.27363 0.19167 0.63734 0.0
C1452 C 0.24698 0.20956 0.62273 0.0
C1453 C 0.25303 0.18674 0.64424 0.0
C1454 C 0.21362 0.21628 0.62415 0.0
C1455 C 0.22594 0.24099 0.59347 0.0
N1456 N 0.24046 0.19577 0.63691 0.0
N1457 N 0.23834 0.23164 0.60059 0.0
H1458 H 0.76964 -0.00071 0.58431 0.0
H1459 H 0.79535 0.08799 0.67249 0.0
H1460 H 0.76888 0.97697 0.63836 0.0
H1461 H 0.82668 0.11243 0.62289 0.0
H1462 H 0.77972 0.0464 0.65955 0.0
H1463 H 0.78468 0.04033 0.59766 0.0
C1464 C 0.7727 0.00294 0.59897 0.0
C1465 C 0.76821 0.98453 0.61018 0.0
C1466 C 0.79009 0.06091 0.65157 0.0
C1467 C 0.78486 0.03151 0.62551 0.0
C1468 C 0.79895 0.08458 0.65889 0.0
C1469 C 0.81241 0.10361 0.64875 0.0
C1470 C 0.79433 0.05631 0.63386 0.0
C1471 C 0.81658 0.09826 0.63122 0.0
C1472 C 0.7812 0.02639 0.60656 0.0
C1473 C 0.77184 0.99041 0.62914 0.0
N1474 N 0.8074 0.07507 0.62426 0.0
N1475 N 0.77993 0.0134 0.63621 0.0
H1476 H 0.43602 0.36143 0.71434 0.0
H1477 H 0.40121 0.22299 0.7065 0.0
H1478 H 0.47447 0.33433 0.74258 0.0
H1479 H 0.3633 0.24996 0.67718 0.0
H1480 H 0.42833 0.26376 0.71969 0.0
H1481 H 0.40947 0.32085 0.70019 0.0
C1482 C 0.43897 0.34698 0.71747 0.0
C1483 C 0.45745 0.35128 0.72973 0.0
C1484 C 0.41409 0.26077 0.71036 0.0
C1485 C 0.42702 0.30476 0.71373 0.0
C1486 C 0.39856 0.23746 0.70282 0.0
C1487 C 0.37991 0.23299 0.6907 0.0
C1488 C 0.41097 0.2798 0.70579 0.0
C1489 C 0.37741 0.25251 0.68645 0.0
C1490 C 0.42374 0.32379 0.70947 0.0
C1491 C 0.46026 0.3318 0.73345 0.0
N1492 N 0.39275 0.27505 0.694 0.0
N1493 N 0.44521 0.30941 0.7255 0.0
H1494 H 0.63401 0.0716 0.71115 0.0
H1495 H 0.76846 0.1632 0.72428 0.0
H1496 H 0.66638 0.1248 0.75745 0.0
H1497 H 0.73099 0.12802 0.67223 0.0
H1498 H 0.73206 0.1464 0.73814 0.0
H1499 H 0.67051 0.08903 0.69802 0.0
C1500 C 0.64873 0.08701 0.71854 0.0
C1501 C 0.64701 0.09679 0.73541 0.0
C1502 C 0.73187 0.1425 0.72367 0.0
C1503 C 0.689 0.11656 0.72056 0.0
C1504 C 0.75256 0.15205 0.7158 0.0
C1505 C 0.75259 0.14698 0.69713 0.0
C1506 C 0.71126 0.12756 0.71278 0.0
C1507 C 0.73165 0.13239 0.68669 0.0
C1508 C 0.6696 0.09689 0.71105 0.0
C1509 C 0.66689 0.11643 0.74453 0.0
N1510 N 0.71182 0.12307 0.69467 0.0
N1511 N 0.68709 0.12566 0.737 0.0
H1512 H 0.90542 0.55115 0.69565 0.0
H1513 H 0.82977 0.61161 0.70508 0.0
H1514 H 0.89309 0.57332 0.7481 0.0
H1515 H 0.87702 0.63092 0.66384 0.0
H1516 H 0.84627 0.58918 0.71829 0.0
H1517 H 0.88954 0.57346 0.68126 0.0
C1518 C 0.89963 0.5608 0.70422 0.0
C1519 C 0.90061 0.56015 0.72323 0.0
C1520 C 0.85291 0.59824 0.70629 0.0
C1521 C 0.88162 0.58486 0.70662 0.0
C1522 C 0.8434 0.61085 0.69865 0.0
C1523 C 0.85208 0.62312 0.68334 0.0
C1524 C 0.87086 0.59747 0.69836 0.0
C1525 C 0.86993 0.62175 0.67569 0.0
C1526 C 0.89041 0.57336 0.69592 0.0
C1527 C 0.89224 0.57266 0.73342 0.0
N1528 N 0.87871 0.609 0.68323 0.0
N1529 N 0.8829 0.58427 0.72498 0.0
H1530 H 0.49918 0.02411 0.14838 0.0
H1531 H 0.47792 0.97386 0.04359 0.0
H1532 H 0.45957 0.94944 0.1278 0.0
H1533 H 0.52235 0.0488 0.06189 0.0
H1534 H 0.46758 0.96598 0.07431 0.0
H1535 H 0.5046 0.03484 0.11692 0.0
C1536 C 0.49143 0.01004 0.13723 0.0
C1537 C 0.47917 0.98585 0.14063 0.0
C1538 C 0.47948 0.98423 0.07171 0.0
C1539 C 0.48526 0.99788 0.10485 0.0
C1540 C 0.4853 0.98877 0.05408 0.0
C1541 C 0.50094 0.01205 0.05018 0.0
C1542 C 0.4896 0.00302 0.08574 0.0
C1543 C 0.51022 0.03059 0.06439 0.0
C1544 C 0.4946 0.01614 0.11933 0.0
C1545 C 0.4695 0.96828 0.12577 0.0
N1546 N 0.50453 0.02566 0.08165 0.0
N1547 N 0.47284 0.97464 0.10859 0.0
H1548 H 0.02645 0.53857 0.14362 0.0
H1549 H 0.99154 0.46469 0.04536 0.0
H1550 H 0.02445 0.47102 0.13444 0.0
H1551 H 0.98863 0.52903 0.05796 0.0
H1552 H 0.00349 0.46594 0.0776 0.0
H1553 H 0.01238 0.53468 0.11197 0.0
C1554 C 0.02309 0.52291 0.13487 0.0
C1555 C 0.02686 0.50522 0.1416 0.0
C1556 C 0.00013 0.4797 0.07328 0.0
C1557 C 0.01052 0.5005 0.1052 0.0
C1558 C 0.99342 0.47904 0.05492 0.0
C1559 C 0.98931 0.49691 0.04905 0.0
C1560 C 0.00267 0.49835 0.08572 0.0
C1561 C 0.99169 0.51494 0.06192 0.0
C1562 C 0.01493 0.52062 0.11679 0.0
C1563 C 0.02174 0.48505 0.12976 0.0
N1564 N -0.00172 0.51524 0.0796 0.0
N1565 N 0.01397 0.4833 0.11205 0.0
H1566 H 0.51944 0.53782 0.14557 0.0
H1567 H 0.48082 0.47011 0.04491 0.0
H1568 H 0.45481 0.47275 0.13081 0.0
H1569 H 0.54454 0.53577 0.06019 0.0
H1570 H 0.47126 0.46981 0.07643 0.0
H1571 H 0.52944 0.53626 0.11458 0.0
C1572 C 0.50742 0.52304 0.13586 0.0
C1573 C 0.48626 0.50534 0.14085 0.0
C1574 C 0.48733 0.48429 0.0729 0.0
C1575 C 0.49749 0.50365 0.10514 0.0
C1576 C 0.49268 0.48454 0.05491 0.0
C1577 C 0.51327 0.5032 0.04998 0.0
C1578 C 0.50279 0.50281 0.08601 0.0
C1579 C 0.52844 0.52109 0.06348 0.0
C1580 C 0.51309 0.52225 0.1181 0.0
C1581 C 0.47121 0.48691 0.12753 0.0
N1582 N 0.52286 0.52051 0.08087 0.0
N1583 N 0.47711 0.48656 0.11028 0.0
H1584 H 0.97858 0.46515 0.85451 0.0
H1585 H 0.00147 0.5269 0.95636 0.0
H1586 H 0.97686 0.53012 0.86771 0.0
H1587 H 0.00284 0.46209 0.94187 0.0
H1588 H 0.99292 0.52904 0.92408 0.0
H1589 H 0.98838 0.46458 0.88654 0.0
C1590 C 0.9805 0.47947 0.86413 0.0
C1591 C 0.97699 0.49778 0.85836 0.0
C1592 C 0.99509 0.51436 0.92798 0.0
C1593 C 0.98787 0.497 0.89527 0.0
C1594 C -0.00014 0.51309 0.94637 0.0
C1595 C 0.00261 0.49416 0.95171 0.0
C1596 C 0.99319 0.49662 0.91492 0.0
C1597 C 0.00078 0.47695 0.93829 0.0
C1598 C 0.98594 0.47903 0.88247 0.0
C1599 C 0.97921 0.51553 0.87156 0.0
N1600 N 0.99615 0.47857 0.92052 0.0
N1601 N 0.98451 0.5147 0.8894 0.0
H1602 H 0.55073 0.52831 0.87323 0.0
H1603 H 0.45649 0.4736 0.94434 0.0
H1604 H 0.48627 0.46209 0.86241 0.0
H1605 H 0.52309 0.53614 0.95842 0.0
H1606 H 0.46619 0.47155 0.91328 0.0
H1607 H 0.54013 0.53384 0.90361 0.0
C1608 C 0.53431 0.51505 0.87721 0.0
C1609 C 0.51945 0.49459 0.86538 0.0
C1610 C 0.47873 0.48578 0.92311 0.0
C1611 C 0.50723 0.50076 0.89995 0.0
C1612 C 0.47314 0.487 0.94083 0.0
C1613 C 0.48913 0.50491 0.95394 0.0
C1614 C 0.50046 0.50264 0.91843 0.0
C1615 C 0.51042 0.52186 0.9487 0.0
C1616 C 0.52831 0.51815 0.89454 0.0
C1617 C 0.49842 0.4779 0.87122 0.0
N1618 N 0.51556 0.52026 0.93133 0.0
N1619 N 0.49298 0.48134 0.88807 0.0
H1620 H 0.49382 0.97112 0.85336 0.0
H1621 H 0.5149 0.02481 0.95693 0.0
H1622 H 0.54429 0.04386 0.87366 0.0
H1623 H 0.47188 0.94918 0.94026 0.0
H1624 H 0.52609 0.03141 0.92623 0.0
H1625 H 0.4855 0.96194 0.88474 0.0
C1626 C 0.50322 0.98509 0.8644 0.0
C1627 C 0.51979 0.00829 0.86088 0.0
C1628 C 0.51434 0.0133 0.92923 0.0
C1629 C 0.51039 0.99794 0.89666 0.0
C1630 C 0.50801 0.00951 0.94681 0.0
C1631 C 0.49263 0.98638 0.95115 0.0
C1632 C 0.50492 0.99388 0.9157 0.0
C1633 C 0.48386 0.96729 0.93742 0.0
C1634 C 0.49855 0.97981 0.88228 0.0
C1635 C 0.53161 0.02565 0.8757 0.0
N1636 N 0.49003 0.97147 0.9202 0.0
N1637 N 0.52658 0.02015 0.89287 0.0
H1638 H 0.12363 0.28074 0.46086 0.0
H1639 H 0.18706 0.38447 0.39546 0.0
H1640 H 0.16506 0.3554 0.48111 0.0
H1641 H 0.14686 0.30884 0.3778 0.0
H1642 H 0.17655 0.37544 0.42656 0.0
H1643 H 0.12892 0.29189 0.42988 0.0
C1644 C 0.13383 0.29954 0.45873 0.0
C1645 C 0.14419 0.31715 0.47352 0.0
C1646 C 0.16985 0.36091 0.41579 0.0
C1647 C 0.15045 0.33016 0.43803 0.0
C1648 C 0.17583 0.36605 0.3981 0.0
C1649 C 0.16774 0.34738 0.38408 0.0
C1650 C 0.15576 0.33694 0.41935 0.0
C1651 C 0.15332 0.32382 0.38815 0.0
C1652 C 0.13681 0.30593 0.44104 0.0
C1653 C 0.15684 0.34129 0.47003 0.0
N1654 N 0.14788 0.3193 0.40538 0.0
N1655 N 0.15985 0.3471 0.4526 0.0
H1656 H 0.73668 0.87045 0.46572 0.0
H1657 H 0.64879 0.79366 0.38162 0.0
H1658 H 0.67151 0.80998 0.47529 0.0
H1659 H 0.67792 0.87038 0.38899 0.0
H1660 H 0.66421 0.79497 0.41294 0.0
H1661 H 0.72251 0.86603 0.4339 0.0
C1662 C 0.71943 0.85624 0.46126 0.0
C1663 C 0.70513 0.84095 0.47352 0.0
C1664 C 0.66717 0.81143 0.40758 0.0
C1665 C 0.68941 0.83524 0.43683 0.0
C1666 C 0.65847 0.81072 0.38985 0.0
C1667 C 0.66195 0.83192 0.38298 0.0
C1668 C 0.68002 0.83359 0.41808 0.0
C1669 C 0.67466 0.85364 0.39398 0.0
C1670 C 0.71151 0.85367 0.44305 0.0
C1671 C 0.68328 0.82219 0.4665 0.0
N1672 N 0.68347 0.85397 0.41098 0.0
N1673 N 0.67607 0.81987 0.44859 0.0
H1674 H 0.11779 0.80299 0.46216 0.0
H1675 H 0.21041 0.87004 0.39181 0.0
H1676 H 0.18271 0.86784 0.47657 0.0
H1677 H 0.14573 0.8055 0.37627 0.0
H1678 H 0.20079 0.86852 0.42323 0.0
H1679 H 0.12771 0.80278 0.43082 0.0
C1680 C 0.13412 0.81717 0.45876 0.0
C1681 C 0.14946 0.83542 0.47207 0.0
C1682 C 0.18866 0.85465 0.41299 0.0
C1683 C 0.16097 0.8352 0.43627 0.0
C1684 C 0.19418 0.8555 0.39506 0.0
C1685 C 0.17874 0.83798 0.38147 0.0
C1686 C 0.16753 0.83611 0.41738 0.0
C1687 C 0.15797 0.81951 0.38637 0.0
C1688 C 0.13981 0.81698 0.44088 0.0
C1689 C 0.17048 0.85318 0.46689 0.0
N1690 N 0.15291 0.81908 0.40394 0.0
N1691 N 0.17557 0.85264 0.44943 0.0
H1692 H 0.64611 0.79881 0.18962 0.0
H1693 H 0.67148 0.86155 0.29138 0.0
H1694 H 0.64295 0.8629 0.20303 0.0
H1695 H 0.67236 0.79654 0.27659 0.0
H1696 H 0.66173 0.86323 0.25924 0.0
H1697 H 0.65681 0.79872 0.2215 0.0
C1698 C 0.6479 0.81304 0.19925 0.0
C1699 C 0.64378 0.831 0.19357 0.0
C1700 C 0.66407 0.84861 0.26304 0.0
C1701 C 0.6557 0.83077 0.23036 0.0
C1702 C 0.66954 0.84762 0.28136 0.0
C1703 C 0.67251 0.82877 0.28658 0.0
C1704 C 0.6617 0.83068 0.24994 0.0
C1705 C 0.67018 0.81136 0.27311 0.0
C1706 C 0.65385 0.81288 0.21753 0.0
C1707 C 0.64582 0.84862 0.20681 0.0
N1708 N 0.66489 0.81272 0.25543 0.0
N1709 N 0.65166 0.84808 0.2246 0.0
H1710 H 0.21292 0.85759 0.20225 0.0
H1711 H 0.12207 0.80182 0.27566 0.0
H1712 H 0.14713 0.79288 0.19166 0.0
H1713 H 0.18639 0.86783 0.2876 0.0
H1714 H 0.1308 0.79958 0.24436 0.0
H1715 H 0.20345 0.86309 0.23307 0.0
C1716 C 0.19643 0.84467 0.20635 0.0
C1717 C 0.18088 0.82461 0.19444 0.0
C1718 C 0.14309 0.81459 0.25376 0.0
C1719 C 0.17003 0.83069 0.2296 0.0
C1720 C 0.13808 0.81589 0.27164 0.0
C1721 C 0.15374 0.83483 0.28426 0.0
C1722 C 0.16396 0.83241 0.24839 0.0
C1723 C 0.17418 0.85261 0.27835 0.0
C1724 C 0.19109 0.84775 0.22395 0.0
C1725 C 0.15982 0.80835 0.20049 0.0
N1726 N 0.17879 0.85094 0.26081 0.0
N1727 N 0.15508 0.81171 0.21762 0.0
H1728 H 0.16631 0.31142 0.18738 0.0
H1729 H 0.18689 0.35978 0.29243 0.0
H1730 H 0.21308 0.38459 0.20931 0.0
H1731 H 0.14185 0.28527 0.2732 0.0
H1732 H 0.19844 0.36801 0.26198 0.0
H1733 H 0.15841 0.30038 0.21845 0.0
C1734 C 0.17499 0.32512 0.1987 0.0
C1735 C 0.19039 0.34898 0.1957 0.0
C1736 C 0.18615 0.34978 0.26434 0.0
C1737 C 0.18153 0.33646 0.23119 0.0
C1738 C 0.17962 0.34505 0.28179 0.0
C1739 C 0.16345 0.32179 0.28533 0.0
C1740 C 0.17621 0.33119 0.25014 0.0
C1741 C 0.15439 0.30346 0.27097 0.0
C1742 C 0.17056 0.31878 0.21641 0.0
C1743 C 0.20135 0.36592 0.2109 0.0
N1744 N 0.16076 0.30858 0.2539 0.0
N1745 N 0.19661 0.35935 0.2279 0.0
H1746 H 0.78708 0.62003 0.79313 0.0
H1747 H 0.85798 0.72184 0.72846 0.0
H1748 H 0.83567 0.6929 0.81425 0.0
H1749 H 0.80778 0.64835 0.71013 0.0
H1750 H 0.84777 0.71368 0.75976 0.0
H1751 H 0.79178 0.63205 0.76238 0.0
C1752 C 0.7987 0.63865 0.79121 0.0
C1753 C 0.81125 0.65546 0.80612 0.0
C1754 C 0.83881 0.69949 0.7488 0.0
C1755 C 0.81698 0.66945 0.77092 0.0
C1756 C 0.84461 0.70414 0.73099 0.0
C1757 C 0.83374 0.6857 0.71676 0.0
C1758 C 0.82207 0.67627 0.75221 0.0
C1759 C 0.81657 0.6631 0.72067 0.0
C1760 C 0.80138 0.64556 0.77367 0.0
C1761 C 0.82579 0.67944 0.803 0.0
N1762 N 0.81139 0.65902 0.738 0.0
N1763 N 0.82853 0.68572 0.78566 0.0
H1764 H 0.39113 0.17277 0.79907 0.0
H1765 H 0.30124 0.17375 0.72653 0.0
H1766 H 0.32681 0.16366 0.81383 0.0
H1767 H 0.34929 0.1522 0.71176 0.0
H1768 H 0.31181 0.17338 0.75875 0.0
H1769 H 0.37761 0.16821 0.76691 0.0
C1770 C 0.37409 0.16965 0.79548 0.0
C1771 C 0.36003 0.16858 0.80903 0.0
C1772 C 0.31983 0.16843 0.74842 0.0
C1773 C 0.3446 0.16371 0.77241 0.0
C1774 C 0.31388 0.16872 0.73009 0.0
C1775 C 0.32424 0.16262 0.71651 0.0
C1776 C 0.33666 0.16257 0.75314 0.0
C1777 C 0.34058 0.1564 0.72178 0.0
C1778 C 0.36637 0.16698 0.77717 0.0
C1779 C 0.33808 0.16444 0.80373 0.0
N1780 N 0.34649 0.15675 0.73968 0.0
N1781 N 0.3311 0.16244 0.7858 0.0
H1782 H 0.78765 0.13812 0.79675 0.0
H1783 H 0.88009 0.2067 0.72663 0.0
H1784 H 0.85152 0.20414 0.81129 0.0
H1785 H 0.81517 0.1426 0.71078 0.0
H1786 H 0.87044 0.20488 0.75807 0.0
H1787 H 0.79769 0.13848 0.76544 0.0
C1788 C 0.80376 0.1527 0.79338 0.0
C1789 C 0.81877 0.1711 0.80674 0.0
C1790 C 0.85827 0.19118 0.74775 0.0
C1791 C 0.83046 0.1715 0.77094 0.0
C1792 C 0.86381 0.1922 0.72981 0.0
C1793 C 0.84831 0.1749 0.71613 0.0
C1794 C 0.83707 0.17265 0.75205 0.0
C1795 C 0.82747 0.15646 0.72095 0.0
C1796 C 0.80953 0.15282 0.77552 0.0
C1797 C 0.83956 0.18936 0.80159 0.0
N1798 N 0.8224 0.15584 0.73852 0.0
N1799 N 0.84474 0.1891 0.78413 0.0
H1800 H 0.31389 0.13222 0.52309 0.0
H1801 H 0.34341 0.19757 0.62429 0.0
H1802 H 0.31631 0.19952 0.53577 0.0
H1803 H 0.34009 0.13022 0.61015 0.0
H1804 H 0.33413 0.1994 0.59207 0.0
H1805 H 0.32469 0.13222 0.55496 0.0
C1806 C 0.31697 0.14719 0.53253 0.0
C1807 C 0.3143 0.16599 0.52666 0.0
C1808 C 0.33539 0.18421 0.59603 0.0
C1809 C 0.32629 0.16584 0.56346 0.0
C1810 C 0.34047 0.18307 0.6144 0.0
C1811 C 0.34208 0.16351 0.61983 0.0
C1812 C 0.33207 0.16569 0.58308 0.0
C1813 C 0.33892 0.14558 0.6065 0.0
C1814 C 0.32296 0.14707 0.55081 0.0
C1815 C 0.31798 0.18457 0.53969 0.0
N1816 N 0.334 0.14706 0.58876 0.0
N1817 N 0.32378 0.18402 0.55749 0.0
H1818 H 0.8837 0.1957 0.53763 0.0
H1819 H 0.79268 0.13928 0.61093 0.0
H1820 H 0.82036 0.12808 0.52813 0.0
H1821 H 0.85627 0.20615 0.62252 0.0
H1822 H 0.80208 0.13628 0.57992 0.0
H1823 H 0.87361 0.20132 0.56818 0.0
C1824 C 0.86763 0.18213 0.54193 0.0
C1825 C 0.85295 0.16128 0.53039 0.0
C1826 C 0.81405 0.15165 0.58919 0.0
C1827 C 0.84136 0.16752 0.56523 0.0
C1828 C 0.80864 0.15339 0.60689 0.0
C1829 C 0.8239 0.17283 0.61931 0.0
C1830 C 0.83489 0.16955 0.58381 0.0
C1831 C 0.84433 0.19062 0.61341 0.0
C1832 C 0.86193 0.18529 0.55937 0.0
C1833 C 0.8324 0.14422 0.53667 0.0
N1834 N 0.8493 0.18854 0.59605 0.0
N1835 N 0.82726 0.1477 0.55364 0.0
H1836 H 0.82631 0.63773 0.52065 0.0
H1837 H 0.84768 0.69428 0.62337 0.0
H1838 H 0.87676 0.71091 0.53984 0.0
H1839 H 0.80532 0.61824 0.60801 0.0
H1840 H 0.85877 0.7 0.5926 0.0
H1841 H 0.81837 0.62942 0.55222 0.0
C1842 C 0.8358 0.65198 0.53149 0.0
C1843 C 0.85223 0.67505 0.5276 0.0
C1844 C 0.8472 0.68199 0.5959 0.0
C1845 C 0.84326 0.6657 0.56359 0.0
C1846 C 0.84093 0.6787 0.61353 0.0
C1847 C 0.82576 0.65572 0.61826 0.0
C1848 C 0.83792 0.66219 0.58271 0.0
C1849 C 0.81713 0.63625 0.60486 0.0
C1850 C 0.83134 0.6472 0.54948 0.0
C1851 C 0.86418 0.69278 0.54217 0.0
N1852 N 0.82323 0.63994 0.58759 0.0
N1853 N 0.85934 0.68777 0.55946 0.0
loop_
_geom_bond_atom_site_label_1
_geom_bond_atom_site_label_2
_geom_bond_distance
_geom_bond_site_symmetry_2
_ccdc_geom_bond_type
C0 C1 1.386 . S
C0 C2 1.397 . S
C0 H24 0.931 . S
C1 C0 1.386 . S
C1 C5 1.397 . S
C2 C0 1.397 . S
C2 C3 1.384 . S
C2 H25 0.930 . S
C3 C2 1.384 . S
C3 C4 1.377 . S
C3 C6 1.481 . S
C4 C3 1.377 . S
C4 C5 1.389 . S
C4 H26 0.929 . S
C5 C1 1.397 . S
C5 C4 1.389 . S
C5 H27 0.931 . S
C6 C3 1.481 . S
C6 C7 1.387 . S
C6 C11 1.390 . S
C7 C6 1.387 . S
C7 C8 1.401 . S
C7 H28 0.930 . S
C8 C7 1.401 . S
C8 C9 1.376 . S
C8 C17 1.511 . S
C9 C8 1.376 . S
C9 C10 1.392 . S
C9 H30 0.931 . S
C10 C9 1.392 . S
C10 C11 1.361 . S
C10 C12 1.500 . S
C11 C6 1.390 . S
C11 C10 1.361 . S
C11 H29 0.931 . S
C12 C10 1.500 . S
C12 C13 1.371 . S
C12 C14 1.365 . S
C13 C12 1.371 . S
C13 C23 1.386 . S
C13 H31 0.931 . S
C14 C12 1.365 . S
C14 C15 1.409 . S
C14 H32 0.929 . S
C15 C14 1.409 . S
C15 C16 1.380 . S
C15 H33 0.930 . S
C16 C15 1.380 . S
C16 C23 1.357 . S
C17 C8 1.511 . S
C17 C18 1.341 . S
C17 C19 1.371 . S
C18 C17 1.341 . S
C18 C22 1.394 . S
C18 H34 0.930 . S
C19 C17 1.371 . S
C19 C20 1.392 . S
C19 H35 0.931 . S
C20 C19 1.392 . S
C20 C21 1.331 . S
C20 H38 0.932 . S
C21 C20 1.331 . S
C21 C22 1.336 . S
C22 C18 1.394 . S
C22 C21 1.336 . S
C22 H37 0.929 . S
C23 C13 1.386 . S
C23 C16 1.357 . S
C23 H36 0.928 . S
H24 C0 0.931 . S
H25 C2 0.930 . S
H26 C4 0.929 . S
H27 C5 0.931 . S
H28 C7 0.930 . S
H29 C11 0.931 . S
H30 C9 0.931 . S
H31 C13 0.931 . S
H32 C14 0.929 . S
H33 C15 0.930 . S
H34 C18 0.930 . S
H35 C19 0.931 . S
H36 C23 0.928 . S
H37 C22 0.929 . S
H38 C20 0.932 . S
C39 C40 1.386 . S
C39 C41 1.397 . S
C39 H63 0.931 . S
C40 C39 1.386 . S
C40 C44 1.397 . S
C41 C39 1.397 . S
C41 C42 1.384 . S
C41 H64 0.930 . S
C42 C41 1.384 . S
C42 C43 1.377 . S
C42 C45 1.481 . S
C43 C42 1.377 . S
C43 C44 1.389 . S
C43 H65 0.929 . S
C44 C40 1.397 . S
C44 C43 1.389 . S
C44 H66 0.931 . S
C45 C42 1.481 . S
C45 C46 1.387 . S
C45 C50 1.390 . S
C46 C45 1.387 . S
C46 C47 1.401 . S
C46 H67 0.930 . S
C47 C46 1.401 . S
C47 C48 1.376 . S
C47 C56 1.511 . S
C48 C47 1.376 . S
C48 C49 1.392 . S
C48 H69 0.931 . S
C49 C48 1.392 . S
C49 C50 1.361 . S
C49 C51 1.500 . S
C50 C45 1.390 . S
C50 C49 1.361 . S
C50 H68 0.931 . S
C51 C49 1.500 . S
C51 C52 1.371 . S
C51 C53 1.365 . S
C52 C51 1.371 . S
C52 C62 1.386 . S
C52 H70 0.931 . S
C53 C51 1.365 . S
C53 C54 1.409 . S
C53 H71 0.929 . S
C54 C53 1.409 . S
C54 C55 1.380 . S
C54 H72 0.930 . S
C55 C54 1.380 . S
C55 C62 1.357 . S
C56 C47 1.511 . S
C56 C57 1.341 . S
C56 C58 1.371 . S
C57 C56 1.341 . S
C57 C61 1.394 . S
C57 H73 0.930 . S
C58 C56 1.371 . S
C58 C59 1.392 . S
C58 H74 0.931 . S
C59 C58 1.392 . S
C59 C60 1.331 . S
C59 H77 0.932 . S
C60 C59 1.331 . S
C60 C61 1.336 . S
C61 C57 1.394 . S
C61 C60 1.336 . S
C61 H76 0.929 . S
C62 C52 1.386 . S
C62 C55 1.357 . S
C62 H75 0.928 . S
H63 C39 0.931 . S
H64 C41 0.930 . S
H65 C43 0.929 . S
H66 C44 0.931 . S
H67 C46 0.930 . S
H68 C50 0.931 . S
H69 C48 0.931 . S
H70 C52 0.931 . S
H71 C53 0.929 . S
H72 C54 0.930 . S
H73 C57 0.930 . S
H74 C58 0.931 . S
H75 C62 0.928 . S
H76 C61 0.929 . S
H77 C59 0.932 . S
C78 C79 1.386 . S
C78 C80 1.397 . S
C78 H102 0.931 . S
C79 C78 1.386 . S
C79 C83 1.397 . S
C80 C78 1.397 . S
C80 C81 1.384 . S
C80 H103 0.930 . S
C81 C80 1.384 . S
C81 C82 1.377 . S
C81 C84 1.481 . S
C82 C81 1.377 . S
C82 C83 1.389 . S
C82 H104 0.929 . S
C83 C79 1.397 . S
C83 C82 1.389 . S
C83 H105 0.931 . S
C84 C81 1.481 . S
C84 C85 1.387 . S
C84 C89 1.390 . S
C85 C84 1.387 . S
C85 C86 1.401 . S
C85 H106 0.930 . S
C86 C85 1.401 . S
C86 C87 1.376 . S
C86 C95 1.511 . S
C87 C86 1.376 . S
C87 C88 1.392 . S
C87 H108 0.931 . S
C88 C87 1.392 . S
C88 C89 1.361 . S
C88 C90 1.500 . S
C89 C84 1.390 . S
C89 C88 1.361 . S
C89 H107 0.931 . S
C90 C88 1.500 . S
C90 C91 1.371 . S
C90 C92 1.365 . S
C91 C90 1.371 . S
C91 C101 1.386 . S
C91 H109 0.931 . S
C92 C90 1.365 . S
C92 C93 1.409 . S
C92 H110 0.929 . S
C93 C92 1.409 . S
C93 C94 1.380 . S
C93 H111 0.930 . S
C94 C93 1.380 . S
C94 C101 1.357 . S
C95 C86 1.511 . S
C95 C96 1.341 . S
C95 C97 1.371 . S
C96 C95 1.341 . S
C96 C100 1.394 . S
C96 H112 0.930 . S
C97 C95 1.371 . S
C97 C98 1.392 . S
C97 H113 0.931 . S
C98 C97 1.392 . S
C98 C99 1.331 . S
C98 H116 0.932 . S
C99 C98 1.331 . S
C99 C100 1.336 . S
C100 C96 1.394 . S
C100 C99 1.336 . S
C100 H115 0.929 . S
C101 C91 1.386 . S
C101 C94 1.357 . S
C101 H114 0.928 . S
H102 C78 0.931 . S
H103 C80 0.930 . S
H104 C82 0.929 . S
H105 C83 0.931 . S
H106 C85 0.930 . S
H107 C89 0.931 . S
H108 C87 0.931 . S
H109 C91 0.931 . S
H110 C92 0.929 . S
H111 C93 0.930 . S
H112 C96 0.930 . S
H113 C97 0.931 . S
H114 C101 0.928 . S
H115 C100 0.929 . S
H116 C98 0.932 . S
C117 C118 1.386 . S
C117 C119 1.397 . S
C117 H141 0.931 . S
C118 C117 1.386 . S
C118 C122 1.397 . S
C119 C117 1.397 . S
C119 C120 1.384 . S
C119 H142 0.930 . S
C120 C119 1.384 . S
C120 C121 1.377 . S
C120 C123 1.481 . S
C121 C120 1.377 . S
C121 C122 1.389 . S
C121 H143 0.929 . S
C122 C118 1.397 . S
C122 C121 1.389 . S
C122 H144 0.931 . S
C123 C120 1.481 . S
C123 C124 1.387 . S
C123 C128 1.390 . S
C124 C123 1.387 . S
C124 C125 1.401 . S
C124 H145 0.930 . S
C125 C124 1.401 . S
C125 C126 1.376 . S
C125 C134 1.511 . S
C126 C125 1.376 . S
C126 C127 1.392 . S
C126 H147 0.931 . S
C127 C126 1.392 . S
C127 C128 1.361 . S
C127 C129 1.500 . S
C128 C123 1.390 . S
C128 C127 1.361 . S
C128 H146 0.931 . S
C129 C127 1.500 . S
C129 C130 1.371 . S
C129 C131 1.365 . S
C130 C129 1.371 . S
C130 C140 1.386 . S
C130 H148 0.931 . S
C131 C129 1.365 . S
C131 C132 1.409 . S
C131 H149 0.929 . S
C132 C131 1.409 . S
C132 C133 1.380 . S
C132 H150 0.930 . S
C133 C132 1.380 . S
C133 C140 1.357 . S
C134 C125 1.511 . S
C134 C135 1.341 . S
C134 C136 1.371 . S
C135 C134 1.341 . S
C135 C139 1.394 . S
C135 H151 0.930 . S
C136 C134 1.371 . S
C136 C137 1.392 . S
C136 H152 0.931 . S
C137 C136 1.392 . S
C137 C138 1.331 . S
C137 H155 0.932 . S
C138 C137 1.331 . S
C138 C139 1.336 . S
C139 C135 1.394 . S
C139 C138 1.336 . S
C139 H154 0.929 . S
C140 C130 1.386 . S
C140 C133 1.357 . S
C140 H153 0.928 . S
H141 C117 0.931 . S
H142 C119 0.930 . S
H143 C121 0.929 . S
H144 C122 0.931 . S
H145 C124 0.930 . S
H146 C128 0.931 . S
H147 C126 0.931 . S
H148 C130 0.931 . S
H149 C131 0.929 . S
H150 C132 0.930 . S
H151 C135 0.930 . S
H152 C136 0.931 . S
H153 C140 0.928 . S
H154 C139 0.929 . S
H155 C137 0.932 . S
C156 C157 1.386 . S
C156 C158 1.397 . S
C156 H180 0.931 . S
C157 C156 1.386 . S
C157 C161 1.397 . S
C158 C156 1.397 . S
C158 C159 1.384 . S
C158 H181 0.930 . S
C159 C158 1.384 . S
C159 C160 1.377 . S
C159 C162 1.481 . S
C160 C159 1.377 . S
C160 C161 1.389 . S
C160 H182 0.929 . S
C161 C157 1.397 . S
C161 C160 1.389 . S
C161 H183 0.931 . S
C162 C159 1.481 . S
C162 C163 1.387 . S
C162 C167 1.390 . S
C163 C162 1.387 . S
C163 C164 1.401 . S
C163 H184 0.930 . S
C164 C163 1.401 . S
C164 C165 1.376 . S
C164 C173 1.511 . S
C165 C164 1.376 . S
C165 C166 1.392 . S
C165 H186 0.931 . S
C166 C165 1.392 . S
C166 C167 1.361 . S
C166 C168 1.500 . S
C167 C162 1.390 . S
C167 C166 1.361 . S
C167 H185 0.931 . S
C168 C166 1.500 . S
C168 C169 1.371 . S
C168 C170 1.365 . S
C169 C168 1.371 . S
C169 C179 1.386 . S
C169 H187 0.931 . S
C170 C168 1.365 . S
C170 C171 1.409 . S
C170 H188 0.929 . S
C171 C170 1.409 . S
C171 C172 1.380 . S
C171 H189 0.930 . S
C172 C171 1.380 . S
C172 C179 1.357 . S
C173 C164 1.511 . S
C173 C174 1.341 . S
C173 C175 1.371 . S
C174 C173 1.341 . S
C174 C178 1.394 . S
C174 H190 0.930 . S
C175 C173 1.371 . S
C175 C176 1.392 . S
C175 H191 0.931 . S
C176 C175 1.392 . S
C176 C177 1.331 . S
C176 H194 0.932 . S
C177 C176 1.331 . S
C177 C178 1.336 . S
C178 C174 1.394 . S
C178 C177 1.336 . S
C178 H193 0.929 . S
C179 C169 1.386 . S
C179 C172 1.357 . S
C179 H192 0.928 . S
H180 C156 0.931 . S
H181 C158 0.930 . S
H182 C160 0.929 . S
H183 C161 0.931 . S
H184 C163 0.930 . S
H185 C167 0.931 . S
H186 C165 0.931 . S
H187 C169 0.931 . S
H188 C170 0.929 . S
H189 C171 0.930 . S
H190 C174 0.930 . S
H191 C175 0.931 . S
H192 C179 0.928 . S
H193 C178 0.929 . S
H194 C176 0.932 . S
C195 C196 1.386 . S
C195 C197 1.397 . S
C195 H219 0.931 . S
C196 C195 1.386 . S
C196 C200 1.397 . S
C197 C195 1.397 . S
C197 C198 1.384 . S
C197 H220 0.930 . S
C198 C197 1.384 . S
C198 C199 1.377 . S
C198 C201 1.481 . S
C199 C198 1.377 . S
C199 C200 1.389 . S
C199 H221 0.929 . S
C200 C196 1.397 . S
C200 C199 1.389 . S
C200 H222 0.931 . S
C201 C198 1.481 . S
C201 C202 1.387 . S
C201 C206 1.390 . S
C202 C201 1.387 . S
C202 C203 1.401 . S
C202 H223 0.930 . S
C203 C202 1.401 . S
C203 C204 1.376 . S
C203 C212 1.511 . S
C204 C203 1.376 . S
C204 C205 1.392 . S
C204 H225 0.931 . S
C205 C204 1.392 . S
C205 C206 1.361 . S
C205 C207 1.500 . S
C206 C201 1.390 . S
C206 C205 1.361 . S
C206 H224 0.931 . S
C207 C205 1.500 . S
C207 C208 1.371 . S
C207 C209 1.365 . S
C208 C207 1.371 . S
C208 C218 1.386 . S
C208 H226 0.931 . S
C209 C207 1.365 . S
C209 C210 1.409 . S
C209 H227 0.929 . S
C210 C209 1.409 . S
C210 C211 1.380 . S
C210 H228 0.930 . S
C211 C210 1.380 . S
C211 C218 1.357 . S
C212 C203 1.511 . S
C212 C213 1.341 . S
C212 C214 1.371 . S
C213 C212 1.341 . S
C213 C217 1.394 . S
C213 H229 0.930 . S
C214 C212 1.371 . S
C214 C215 1.392 . S
C214 H230 0.931 . S
C215 C214 1.392 . S
C215 C216 1.331 . S
C215 H233 0.932 . S
C216 C215 1.331 . S
C216 C217 1.336 . S
C217 C213 1.394 . S
C217 C216 1.336 . S
C217 H232 0.929 . S
C218 C208 1.386 . S
C218 C211 1.357 . S
C218 H231 0.928 . S
H219 C195 0.931 . S
H220 C197 0.930 . S
H221 C199 0.929 . S
H222 C200 0.931 . S
H223 C202 0.930 . S
H224 C206 0.931 . S
H225 C204 0.931 . S
H226 C208 0.931 . S
H227 C209 0.929 . S
H228 C210 0.930 . S
H229 C213 0.930 . S
H230 C214 0.931 . S
H231 C218 0.928 . S
H232 C217 0.929 . S
H233 C215 0.932 . S
C234 C235 1.386 . S
C234 C236 1.397 . S
C234 H258 0.931 . S
C235 C234 1.386 . S
C235 C239 1.397 . S
C236 C234 1.397 . S
C236 C237 1.384 . S
C236 H259 0.930 . S
C237 C236 1.384 . S
C237 C238 1.377 . S
C237 C240 1.481 . S
C238 C237 1.377 . S
C238 C239 1.389 . S
C238 H260 0.929 . S
C239 C235 1.397 . S
C239 C238 1.389 . S
C239 H261 0.931 . S
C240 C237 1.481 . S
C240 C241 1.387 . S
C240 C245 1.390 . S
C241 C240 1.387 . S
C241 C242 1.401 . S
C241 H262 0.930 . S
C242 C241 1.401 . S
C242 C243 1.376 . S
C242 C251 1.511 . S
C243 C242 1.376 . S
C243 C244 1.392 . S
C243 H264 0.931 . S
C244 C243 1.392 . S
C244 C245 1.361 . S
C244 C246 1.500 . S
C245 C240 1.390 . S
C245 C244 1.361 . S
C245 H263 0.931 . S
C246 C244 1.500 . S
C246 C247 1.371 . S
C246 C248 1.365 . S
C247 C246 1.371 . S
C247 C257 1.386 . S
C247 H265 0.931 . S
C248 C246 1.365 . S
C248 C249 1.409 . S
C248 H266 0.929 . S
C249 C248 1.409 . S
C249 C250 1.380 . S
C249 H267 0.930 . S
C250 C249 1.380 . S
C250 C257 1.357 . S
C251 C242 1.511 . S
C251 C252 1.341 . S
C251 C253 1.371 . S
C252 C251 1.341 . S
C252 C256 1.394 . S
C252 H268 0.930 . S
C253 C251 1.371 . S
C253 C254 1.392 . S
C253 H269 0.931 . S
C254 C253 1.392 . S
C254 C255 1.331 . S
C254 H272 0.932 . S
C255 C254 1.331 . S
C255 C256 1.336 . S
C256 C252 1.394 . S
C256 C255 1.336 . S
C256 H271 0.929 . S
C257 C247 1.386 . S
C257 C250 1.357 . S
C257 H270 0.928 . S
H258 C234 0.931 . S
H259 C236 0.930 . S
H260 C238 0.929 . S
H261 C239 0.931 . S
H262 C241 0.930 . S
H263 C245 0.931 . S
H264 C243 0.931 . S
H265 C247 0.931 . S
H266 C248 0.929 . S
H267 C249 0.930 . S
H268 C252 0.930 . S
H269 C253 0.931 . S
H270 C257 0.928 . S
H271 C256 0.929 . S
H272 C254 0.932 . S
C273 C274 1.386 . S
C273 C275 1.397 . S
C273 H297 0.931 . S
C274 C273 1.386 . S
C274 C278 1.397 . S
C275 C273 1.397 . S
C275 C276 1.384 . S
C275 H298 0.930 . S
C276 C275 1.384 . S
C276 C277 1.377 . S
C276 C279 1.481 . S
C277 C276 1.377 . S
C277 C278 1.389 . S
C277 H299 0.929 . S
C278 C274 1.397 . S
C278 C277 1.389 . S
C278 H300 0.931 . S
C279 C276 1.481 . S
C279 C280 1.387 . S
C279 C284 1.390 . S
C280 C279 1.387 . S
C280 C281 1.401 . S
C280 H301 0.930 . S
C281 C280 1.401 . S
C281 C282 1.376 . S
C281 C290 1.511 . S
C282 C281 1.376 . S
C282 C283 1.392 . S
C282 H303 0.931 . S
C283 C282 1.392 . S
C283 C284 1.361 . S
C283 C285 1.500 . S
C284 C279 1.390 . S
C284 C283 1.361 . S
C284 H302 0.931 . S
C285 C283 1.500 . S
C285 C286 1.371 . S
C285 C287 1.365 . S
C286 C285 1.371 . S
C286 C296 1.386 . S
C286 H304 0.931 . S
C287 C285 1.365 . S
C287 C288 1.409 . S
C287 H305 0.929 . S
C288 C287 1.409 . S
C288 C289 1.380 . S
C288 H306 0.930 . S
C289 C288 1.380 . S
C289 C296 1.357 . S
C290 C281 1.511 . S
C290 C291 1.341 . S
C290 C292 1.371 . S
C291 C290 1.341 . S
C291 C295 1.394 . S
C291 H307 0.930 . S
C292 C290 1.371 . S
C292 C293 1.392 . S
C292 H308 0.931 . S
C293 C292 1.392 . S
C293 C294 1.331 . S
C293 H311 0.932 . S
C294 C293 1.331 . S
C294 C295 1.336 . S
C295 C291 1.394 . S
C295 C294 1.336 . S
C295 H310 0.929 . S
C296 C286 1.386 . S
C296 C289 1.357 . S
C296 H309 0.928 . S
H297 C273 0.931 . S
H298 C275 0.930 . S
H299 C277 0.929 . S
H300 C278 0.931 . S
H301 C280 0.930 . S
H302 C284 0.931 . S
H303 C282 0.931 . S
H304 C286 0.931 . S
H305 C287 0.929 . S
H306 C288 0.930 . S
H307 C291 0.930 . S
H308 C292 0.931 . S
H309 C296 0.928 . S
H310 C295 0.929 . S
H311 C293 0.932 . S
C312 C313 1.386 . S
C312 C314 1.397 . S
C312 H336 0.931 . S
C313 C312 1.386 . S
C313 C317 1.397 . S
C314 C312 1.397 . S
C314 C315 1.384 . S
C314 H337 0.930 . S
C315 C314 1.384 . S
C315 C316 1.377 . S
C315 C318 1.481 . S
C316 C315 1.377 . S
C316 C317 1.389 . S
C316 H338 0.929 . S
C317 C313 1.397 . S
C317 C316 1.389 . S
C317 H339 0.931 . S
C318 C315 1.481 . S
C318 C319 1.387 . S
C318 C323 1.390 . S
C319 C318 1.387 . S
C319 C320 1.401 . S
C319 H340 0.930 . S
C320 C319 1.401 . S
C320 C321 1.376 . S
C320 C329 1.511 . S
C321 C320 1.376 . S
C321 C322 1.392 . S
C321 H342 0.931 . S
C322 C321 1.392 . S
C322 C323 1.361 . S
C322 C324 1.500 . S
C323 C318 1.390 . S
C323 C322 1.361 . S
C323 H341 0.931 . S
C324 C322 1.500 . S
C324 C325 1.371 . S
C324 C326 1.365 . S
C325 C324 1.371 . S
C325 C335 1.386 . S
C325 H343 0.931 . S
C326 C324 1.365 . S
C326 C327 1.409 . S
C326 H344 0.929 . S
C327 C326 1.409 . S
C327 C328 1.380 . S
C327 H345 0.930 . S
C328 C327 1.380 . S
C328 C335 1.357 . S
C329 C320 1.511 . S
C329 C330 1.341 . S
C329 C331 1.371 . S
C330 C329 1.341 . S
C330 C334 1.394 . S
C330 H346 0.930 . S
C331 C329 1.371 . S
C331 C332 1.392 . S
C331 H347 0.931 . S
C332 C331 1.392 . S
C332 C333 1.331 . S
C332 H350 0.932 . S
C333 C332 1.331 . S
C333 C334 1.336 . S
C334 C330 1.394 . S
C334 C333 1.336 . S
C334 H349 0.929 . S
C335 C325 1.386 . S
C335 C328 1.357 . S
C335 H348 0.928 . S
H336 C312 0.931 . S
H337 C314 0.930 . S
H338 C316 0.929 . S
H339 C317 0.931 . S
H340 C319 0.930 . S
H341 C323 0.931 . S
H342 C321 0.931 . S
H343 C325 0.931 . S
H344 C326 0.929 . S
H345 C327 0.930 . S
H346 C330 0.930 . S
H347 C331 0.931 . S
H348 C335 0.928 . S
H349 C334 0.929 . S
H350 C332 0.932 . S
C351 C352 1.386 . S
C351 C353 1.397 . S
C351 H375 0.931 . S
C352 C351 1.386 . S
C352 C356 1.397 . S
C353 C351 1.397 . S
C353 C354 1.384 . S
C353 H376 0.930 . S
C354 C353 1.384 . S
C354 C355 1.377 . S
C354 C357 1.481 . S
C355 C354 1.377 . S
C355 C356 1.389 . S
C355 H377 0.929 . S
C356 C352 1.397 . S
C356 C355 1.389 . S
C356 H378 0.931 . S
C357 C354 1.481 . S
C357 C358 1.387 . S
C357 C362 1.390 . S
C358 C357 1.387 . S
C358 C359 1.401 . S
C358 H379 0.930 . S
C359 C358 1.401 . S
C359 C360 1.376 . S
C359 C368 1.511 . S
C360 C359 1.376 . S
C360 C361 1.392 . S
C360 H381 0.931 . S
C361 C360 1.392 . S
C361 C362 1.361 . S
C361 C363 1.500 . S
C362 C357 1.390 . S
C362 C361 1.361 . S
C362 H380 0.931 . S
C363 C361 1.500 . S
C363 C364 1.371 . S
C363 C365 1.365 . S
C364 C363 1.371 . S
C364 C374 1.386 . S
C364 H382 0.931 . S
C365 C363 1.365 . S
C365 C366 1.409 . S
C365 H383 0.929 . S
C366 C365 1.409 . S
C366 C367 1.380 . S
C366 H384 0.930 . S
C367 C366 1.380 . S
C367 C374 1.357 . S
C368 C359 1.511 . S
C368 C369 1.341 . S
C368 C370 1.371 . S
C369 C368 1.341 . S
C369 C373 1.394 . S
C369 H385 0.930 . S
C370 C368 1.371 . S
C370 C371 1.392 . S
C370 H386 0.931 . S
C371 C370 1.392 . S
C371 C372 1.331 . S
C371 H389 0.932 . S
C372 C371 1.331 . S
C372 C373 1.336 . S
C373 C369 1.394 . S
C373 C372 1.336 . S
C373 H388 0.929 . S
C374 C364 1.386 . S
C374 C367 1.357 . S
C374 H387 0.928 . S
H375 C351 0.931 . S
H376 C353 0.930 . S
H377 C355 0.929 . S
H378 C356 0.931 . S
H379 C358 0.930 . S
H380 C362 0.931 . S
H381 C360 0.931 . S
H382 C364 0.931 . S
H383 C365 0.929 . S
H384 C366 0.930 . S
H385 C369 0.930 . S
H386 C370 0.931 . S
H387 C374 0.928 . S
H388 C373 0.929 . S
H389 C371 0.932 . S
C390 C391 1.386 . S
C390 C392 1.397 . S
C390 H414 0.931 . S
C391 C390 1.386 . S
C391 C395 1.397 . S
C392 C390 1.397 . S
C392 C393 1.384 . S
C392 H415 0.930 . S
C393 C392 1.384 . S
C393 C394 1.377 . S
C393 C396 1.481 . S
C394 C393 1.377 . S
C394 C395 1.389 . S
C394 H416 0.929 . S
C395 C391 1.397 . S
C395 C394 1.389 . S
C395 H417 0.931 . S
C396 C393 1.481 . S
C396 C397 1.387 . S
C396 C401 1.390 . S
C397 C396 1.387 . S
C397 C398 1.401 . S
C397 H418 0.930 . S
C398 C397 1.401 . S
C398 C399 1.376 . S
C398 C407 1.511 . S
C399 C398 1.376 . S
C399 C400 1.392 . S
C399 H420 0.931 . S
C400 C399 1.392 . S
C400 C401 1.361 . S
C400 C402 1.500 . S
C401 C396 1.390 . S
C401 C400 1.361 . S
C401 H419 0.931 . S
C402 C400 1.500 . S
C402 C403 1.371 . S
C402 C404 1.365 . S
C403 C402 1.371 . S
C403 C413 1.386 . S
C403 H421 0.931 . S
C404 C402 1.365 . S
C404 C405 1.409 . S
C404 H422 0.929 . S
C405 C404 1.409 . S
C405 C406 1.380 . S
C405 H423 0.930 . S
C406 C405 1.380 . S
C406 C413 1.357 . S
C407 C398 1.511 . S
C407 C408 1.341 . S
C407 C409 1.371 . S
C408 C407 1.341 . S
C408 C412 1.394 . S
C408 H424 0.930 . S
C409 C407 1.371 . S
C409 C410 1.392 . S
C409 H425 0.931 . S
C410 C409 1.392 . S
C410 C411 1.331 . S
C410 H428 0.932 . S
C411 C410 1.331 . S
C411 C412 1.336 . S
C412 C408 1.394 . S
C412 C411 1.336 . S
C412 H427 0.929 . S
C413 C403 1.386 . S
C413 C406 1.357 . S
C413 H426 0.928 . S
H414 C390 0.931 . S
H415 C392 0.930 . S
H416 C394 0.929 . S
H417 C395 0.931 . S
H418 C397 0.930 . S
H419 C401 0.931 . S
H420 C399 0.931 . S
H421 C403 0.931 . S
H422 C404 0.929 . S
H423 C405 0.930 . S
H424 C408 0.930 . S
H425 C409 0.931 . S
H426 C413 0.928 . S
H427 C412 0.929 . S
H428 C410 0.932 . S
C429 C430 1.386 . S
C429 C431 1.397 . S
C429 H453 0.931 . S
C430 C429 1.386 . S
C430 C434 1.397 . S
C431 C429 1.397 . S
C431 C432 1.384 . S
C431 H454 0.930 . S
C432 C431 1.384 . S
C432 C433 1.377 . S
C432 C435 1.481 . S
C433 C432 1.377 . S
C433 C434 1.389 . S
C433 H455 0.929 . S
C434 C430 1.397 . S
C434 C433 1.389 . S
C434 H456 0.931 . S
C435 C432 1.481 . S
C435 C436 1.387 . S
C435 C440 1.390 . S
C436 C435 1.387 . S
C436 C437 1.401 . S
C436 H457 0.930 . S
C437 C436 1.401 . S
C437 C438 1.376 . S
C437 C446 1.511 . S
C438 C437 1.376 . S
C438 C439 1.392 . S
C438 H459 0.931 . S
C439 C438 1.392 . S
C439 C440 1.361 . S
C439 C441 1.500 . S
C440 C435 1.390 . S
C440 C439 1.361 . S
C440 H458 0.931 . S
C441 C439 1.500 . S
C441 C442 1.371 . S
C441 C443 1.365 . S
C442 C441 1.371 . S
C442 C452 1.386 . S
C442 H460 0.931 . S
C443 C441 1.365 . S
C443 C444 1.409 . S
C443 H461 0.929 . S
C444 C443 1.409 . S
C444 C445 1.380 . S
C444 H462 0.930 . S
C445 C444 1.380 . S
C445 C452 1.357 . S
C446 C437 1.511 . S
C446 C447 1.341 . S
C446 C448 1.371 . S
C447 C446 1.341 . S
C447 C451 1.394 . S
C447 H463 0.930 . S
C448 C446 1.371 . S
C448 C449 1.392 . S
C448 H464 0.931 . S
C449 C448 1.392 . S
C449 C450 1.331 . S
C449 H467 0.932 . S
C450 C449 1.331 . S
C450 C451 1.336 . S
C451 C447 1.394 . S
C451 C450 1.336 . S
C451 H466 0.929 . S
C452 C442 1.386 . S
C452 C445 1.357 . S
C452 H465 0.928 . S
H453 C429 0.931 . S
H454 C431 0.930 . S
H455 C433 0.929 . S
H456 C434 0.931 . S
H457 C436 0.930 . S
H458 C440 0.931 . S
H459 C438 0.931 . S
H460 C442 0.931 . S
H461 C443 0.929 . S
H462 C444 0.930 . S
H463 C447 0.930 . S
H464 C448 0.931 . S
H465 C452 0.928 . S
H466 C451 0.929 . S
H467 C449 0.932 . S
C468 C469 1.386 . S
C468 C470 1.397 . S
C468 H492 0.931 . S
C469 C468 1.386 . S
C469 C473 1.397 . S
C470 C468 1.397 . S
C470 C471 1.384 . S
C470 H493 0.930 . S
C471 C470 1.384 . S
C471 C472 1.377 . S
C471 C474 1.481 . S
C472 C471 1.377 . S
C472 C473 1.389 . S
C472 H494 0.929 . S
C473 C469 1.397 . S
C473 C472 1.389 . S
C473 H495 0.931 . S
C474 C471 1.481 . S
C474 C475 1.387 . S
C474 C479 1.390 . S
C475 C474 1.387 . S
C475 C476 1.401 . S
C475 H496 0.930 . S
C476 C475 1.401 . S
C476 C477 1.376 . S
C476 C485 1.511 . S
C477 C476 1.376 . S
C477 C478 1.392 . S
C477 H498 0.931 . S
C478 C477 1.392 . S
C478 C479 1.361 . S
C478 C480 1.500 . S
C479 C474 1.390 . S
C479 C478 1.361 . S
C479 H497 0.931 . S
C480 C478 1.500 . S
C480 C481 1.371 . S
C480 C482 1.365 . S
C481 C480 1.371 . S
C481 C491 1.386 . S
C481 H499 0.931 . S
C482 C480 1.365 . S
C482 C483 1.409 . S
C482 H500 0.929 . S
C483 C482 1.409 . S
C483 C484 1.380 . S
C483 H501 0.930 . S
C484 C483 1.380 . S
C484 C491 1.357 . S
C485 C476 1.511 . S
C485 C486 1.341 . S
C485 C487 1.371 . S
C486 C485 1.341 . S
C486 C490 1.394 . S
C486 H502 0.930 . S
C487 C485 1.371 . S
C487 C488 1.392 . S
C487 H503 0.931 . S
C488 C487 1.392 . S
C488 C489 1.331 . S
C488 H506 0.932 . S
C489 C488 1.331 . S
C489 C490 1.336 . S
C490 C486 1.394 . S
C490 C489 1.336 . S
C490 H505 0.929 . S
C491 C481 1.386 . S
C491 C484 1.357 . S
C491 H504 0.928 . S
H492 C468 0.931 . S
H493 C470 0.930 . S
H494 C472 0.929 . S
H495 C473 0.931 . S
H496 C475 0.930 . S
H497 C479 0.931 . S
H498 C477 0.931 . S
H499 C481 0.931 . S
H500 C482 0.929 . S
H501 C483 0.930 . S
H502 C486 0.930 . S
H503 C487 0.931 . S
H504 C491 0.928 . S
H505 C490 0.929 . S
H506 C488 0.932 . S
C507 C508 1.386 . S
C507 C509 1.397 . S
C507 H531 0.931 . S
C508 C507 1.386 . S
C508 C512 1.397 . S
C509 C507 1.397 . S
C509 C510 1.384 . S
C509 H532 0.930 . S
C510 C509 1.384 . S
C510 C511 1.377 . S
C510 C513 1.481 . S
C511 C510 1.377 . S
C511 C512 1.389 . S
C511 H533 0.929 . S
C512 C508 1.397 . S
C512 C511 1.389 . S
C512 H534 0.931 . S
C513 C510 1.481 . S
C513 C514 1.387 . S
C513 C518 1.390 . S
C514 C513 1.387 . S
C514 C515 1.401 . S
C514 H535 0.930 . S
C515 C514 1.401 . S
C515 C516 1.376 . S
C515 C524 1.511 . S
C516 C515 1.376 . S
C516 C517 1.392 . S
C516 H537 0.931 . S
C517 C516 1.392 . S
C517 C518 1.361 . S
C517 C519 1.500 . S
C518 C513 1.390 . S
C518 C517 1.361 . S
C518 H536 0.931 . S
C519 C517 1.500 . S
C519 C520 1.371 . S
C519 C521 1.365 . S
C520 C519 1.371 . S
C520 C530 1.386 . S
C520 H538 0.931 . S
C521 C519 1.365 . S
C521 C522 1.409 . S
C521 H539 0.929 . S
C522 C521 1.409 . S
C522 C523 1.380 . S
C522 H540 0.930 . S
C523 C522 1.380 . S
C523 C530 1.357 . S
C524 C515 1.511 . S
C524 C525 1.341 . S
C524 C526 1.371 . S
C525 C524 1.341 . S
C525 C529 1.394 . S
C525 H541 0.930 . S
C526 C524 1.371 . S
C526 C527 1.392 . S
C526 H542 0.931 . S
C527 C526 1.392 . S
C527 C528 1.331 . S
C527 H545 0.932 . S
C528 C527 1.331 . S
C528 C529 1.336 . S
C529 C525 1.394 . S
C529 C528 1.336 . S
C529 H544 0.929 . S
C530 C520 1.386 . S
C530 C523 1.357 . S
C530 H543 0.928 . S
H531 C507 0.931 . S
H532 C509 0.930 . S
H533 C511 0.929 . S
H534 C512 0.931 . S
H535 C514 0.930 . S
H536 C518 0.931 . S
H537 C516 0.931 . S
H538 C520 0.931 . S
H539 C521 0.929 . S
H540 C522 0.930 . S
H541 C525 0.930 . S
H542 C526 0.931 . S
H543 C530 0.928 . S
H544 C529 0.929 . S
H545 C527 0.932 . S
C546 C547 1.386 . S
C546 C548 1.397 . S
C546 H570 0.931 . S
C547 C546 1.386 . S
C547 C551 1.397 . S
C548 C546 1.397 . S
C548 C549 1.384 . S
C548 H571 0.930 . S
C549 C548 1.384 . S
C549 C550 1.377 . S
C549 C552 1.481 . S
C550 C549 1.377 . S
C550 C551 1.389 . S
C550 H572 0.929 . S
C551 C547 1.397 . S
C551 C550 1.389 . S
C551 H573 0.931 . S
C552 C549 1.481 . S
C552 C553 1.387 . S
C552 C557 1.390 . S
C553 C552 1.387 . S
C553 C554 1.401 . S
C553 H574 0.930 . S
C554 C553 1.401 . S
C554 C555 1.376 . S
C554 C563 1.511 . S
C555 C554 1.376 . S
C555 C556 1.392 . S
C555 H576 0.931 . S
C556 C555 1.392 . S
C556 C557 1.361 . S
C556 C558 1.500 . S
C557 C552 1.390 . S
C557 C556 1.361 . S
C557 H575 0.931 . S
C558 C556 1.500 . S
C558 C559 1.371 . S
C558 C560 1.365 . S
C559 C558 1.371 . S
C559 C569 1.386 . S
C559 H577 0.931 . S
C560 C558 1.365 . S
C560 C561 1.409 . S
C560 H578 0.929 . S
C561 C560 1.409 . S
C561 C562 1.380 . S
C561 H579 0.930 . S
C562 C561 1.380 . S
C562 C569 1.357 . S
C563 C554 1.511 . S
C563 C564 1.341 . S
C563 C565 1.371 . S
C564 C563 1.341 . S
C564 C568 1.394 . S
C564 H580 0.930 . S
C565 C563 1.371 . S
C565 C566 1.392 . S
C565 H581 0.931 . S
C566 C565 1.392 . S
C566 C567 1.331 . S
C566 H584 0.932 . S
C567 C566 1.331 . S
C567 C568 1.336 . S
C568 C564 1.394 . S
C568 C567 1.336 . S
C568 H583 0.929 . S
C569 C559 1.386 . S
C569 C562 1.357 . S
C569 H582 0.928 . S
H570 C546 0.931 . S
H571 C548 0.930 . S
H572 C550 0.929 . S
H573 C551 0.931 . S
H574 C553 0.930 . S
H575 C557 0.931 . S
H576 C555 0.931 . S
H577 C559 0.931 . S
H578 C560 0.929 . S
H579 C561 0.930 . S
H580 C564 0.930 . S
H581 C565 0.931 . S
H582 C569 0.928 . S
H583 C568 0.929 . S
H584 C566 0.932 . S
C585 C586 1.386 . S
C585 C587 1.397 . S
C585 H609 0.931 . S
C586 C585 1.386 . S
C586 C590 1.397 . S
C587 C585 1.397 . S
C587 C588 1.384 . S
C587 H610 0.930 . S
C588 C587 1.384 . S
C588 C589 1.377 . S
C588 C591 1.481 . S
C589 C588 1.377 . S
C589 C590 1.389 . S
C589 H611 0.929 . S
C590 C586 1.397 . S
C590 C589 1.389 . S
C590 H612 0.931 . S
C591 C588 1.481 . S
C591 C592 1.387 . S
C591 C596 1.390 . S
C592 C591 1.387 . S
C592 C593 1.401 . S
C592 H613 0.930 . S
C593 C592 1.401 . S
C593 C594 1.376 . S
C593 C602 1.511 . S
C594 C593 1.376 . S
C594 C595 1.392 . S
C594 H615 0.931 . S
C595 C594 1.392 . S
C595 C596 1.361 . S
C595 C597 1.500 . S
C596 C591 1.390 . S
C596 C595 1.361 . S
C596 H614 0.931 . S
C597 C595 1.500 . S
C597 C598 1.371 . S
C597 C599 1.365 . S
C598 C597 1.371 . S
C598 C608 1.386 . S
C598 H616 0.931 . S
C599 C597 1.365 . S
C599 C600 1.409 . S
C599 H617 0.929 . S
C600 C599 1.409 . S
C600 C601 1.380 . S
C600 H618 0.930 . S
C601 C600 1.380 . S
C601 C608 1.357 . S
C602 C593 1.511 . S
C602 C603 1.341 . S
C602 C604 1.371 . S
C603 C602 1.341 . S
C603 C607 1.394 . S
C603 H619 0.930 . S
C604 C602 1.371 . S
C604 C605 1.392 . S
C604 H620 0.931 . S
C605 C604 1.392 . S
C605 C606 1.331 . S
C605 H623 0.932 . S
C606 C605 1.331 . S
C606 C607 1.336 . S
C607 C603 1.394 . S
C607 C606 1.336 . S
C607 H622 0.929 . S
C608 C598 1.386 . S
C608 C601 1.357 . S
C608 H621 0.928 . S
H609 C585 0.931 . S
H610 C587 0.930 . S
H611 C589 0.929 . S
H612 C590 0.931 . S
H613 C592 0.930 . S
H614 C596 0.931 . S
H615 C594 0.931 . S
H616 C598 0.931 . S
H617 C599 0.929 . S
H618 C600 0.930 . S
H619 C603 0.930 . S
H620 C604 0.931 . S
H621 C608 0.928 . S
H622 C607 0.929 . S
H623 C605 0.932 . S
C624 C625 1.386 . S
C624 C626 1.397 . S
C624 H648 0.931 . S
C625 C624 1.386 . S
C625 C629 1.397 . S
C626 C624 1.397 . S
C626 C627 1.384 . S
C626 H649 0.930 . S
C627 C626 1.384 . S
C627 C628 1.377 . S
C627 C630 1.481 . S
C628 C627 1.377 . S
C628 C629 1.389 . S
C628 H650 0.929 . S
C629 C625 1.397 . S
C629 C628 1.389 . S
C629 H651 0.931 . S
C630 C627 1.481 . S
C630 C631 1.387 . S
C630 C635 1.390 . S
C631 C630 1.387 . S
C631 C632 1.401 . S
C631 H652 0.930 . S
C632 C631 1.401 . S
C632 C633 1.376 . S
C632 C641 1.511 . S
C633 C632 1.376 . S
C633 C634 1.392 . S
C633 H654 0.931 . S
C634 C633 1.392 . S
C634 C635 1.361 . S
C634 C636 1.500 . S
C635 C630 1.390 . S
C635 C634 1.361 . S
C635 H653 0.931 . S
C636 C634 1.500 . S
C636 C637 1.371 . S
C636 C638 1.365 . S
C637 C636 1.371 . S
C637 C647 1.386 . S
C637 H655 0.931 . S
C638 C636 1.365 . S
C638 C639 1.409 . S
C638 H656 0.929 . S
C639 C638 1.409 . S
C639 C640 1.380 . S
C639 H657 0.930 . S
C640 C639 1.380 . S
C640 C647 1.357 . S
C641 C632 1.511 . S
C641 C642 1.341 . S
C641 C643 1.371 . S
C642 C641 1.341 . S
C642 C646 1.394 . S
C642 H658 0.930 . S
C643 C641 1.371 . S
C643 C644 1.392 . S
C643 H659 0.931 . S
C644 C643 1.392 . S
C644 C645 1.331 . S
C644 H662 0.932 . S
C645 C644 1.331 . S
C645 C646 1.336 . S
C646 C642 1.394 . S
C646 C645 1.336 . S
C646 H661 0.929 . S
C647 C637 1.386 . S
C647 C640 1.357 . S
C647 H660 0.928 . S
H648 C624 0.931 . S
H649 C626 0.930 . S
H650 C628 0.929 . S
H651 C629 0.931 . S
H652 C631 0.930 . S
H653 C635 0.931 . S
H654 C633 0.931 . S
H655 C637 0.931 . S
H656 C638 0.929 . S
H657 C639 0.930 . S
H658 C642 0.930 . S
H659 C643 0.931 . S
H660 C647 0.928 . S
H661 C646 0.929 . S
H662 C644 0.932 . S
C663 C664 1.386 . S
C663 C665 1.397 . S
C663 H687 0.931 . S
C664 C663 1.386 . S
C664 C668 1.397 . S
C665 C663 1.397 . S
C665 C666 1.384 . S
C665 H688 0.930 . S
C666 C665 1.384 . S
C666 C667 1.377 . S
C666 C669 1.481 . S
C667 C666 1.377 . S
C667 C668 1.389 . S
C667 H689 0.929 . S
C668 C664 1.397 . S
C668 C667 1.389 . S
C668 H690 0.931 . S
C669 C666 1.481 . S
C669 C670 1.387 . S
C669 C674 1.390 . S
C670 C669 1.387 . S
C670 C671 1.401 . S
C670 H691 0.930 . S
C671 C670 1.401 . S
C671 C672 1.376 . S
C671 C680 1.511 . S
C672 C671 1.376 . S
C672 C673 1.392 . S
C672 H693 0.931 . S
C673 C672 1.392 . S
C673 C674 1.361 . S
C673 C675 1.500 . S
C674 C669 1.390 . S
C674 C673 1.361 . S
C674 H692 0.931 . S
C675 C673 1.500 . S
C675 C676 1.371 . S
C675 C677 1.365 . S
C676 C675 1.371 . S
C676 C686 1.386 . S
C676 H694 0.931 . S
C677 C675 1.365 . S
C677 C678 1.409 . S
C677 H695 0.929 . S
C678 C677 1.409 . S
C678 C679 1.380 . S
C678 H696 0.930 . S
C679 C678 1.380 . S
C679 C686 1.357 . S
C680 C671 1.511 . S
C680 C681 1.341 . S
C680 C682 1.371 . S
C681 C680 1.341 . S
C681 C685 1.394 . S
C681 H697 0.930 . S
C682 C680 1.371 . S
C682 C683 1.392 . S
C682 H698 0.931 . S
C683 C682 1.392 . S
C683 C684 1.331 . S
C683 H701 0.932 . S
C684 C683 1.331 . S
C684 C685 1.336 . S
C685 C681 1.394 . S
C685 C684 1.336 . S
C685 H700 0.929 . S
C686 C676 1.386 . S
C686 C679 1.357 . S
C686 H699 0.928 . S
H687 C663 0.931 . S
H688 C665 0.930 . S
H689 C667 0.929 . S
H690 C668 0.931 . S
H691 C670 0.930 . S
H692 C674 0.931 . S
H693 C672 0.931 . S
H694 C676 0.931 . S
H695 C677 0.929 . S
H696 C678 0.930 . S
H697 C681 0.930 . S
H698 C682 0.931 . S
H699 C686 0.928 . S
H700 C685 0.929 . S
H701 C683 0.932 . S
Tb702 O705 2.453 . S
Tb702 O706 2.596 1_545 S
Tb702 O707 2.374 1_545 S
Tb702 O715 2.343 1_554 S
Tb702 O717 2.353 . S
Tb702 O719 2.427 1_554 S
Tb702 O720 2.513 1_554 S
C703 O707 1.251 . S
C703 O709 1.259 1_554 S
Tb704 O706 2.343 1_556 S
Tb704 O709 2.355 . S
Tb704 O712 2.427 1_556 S
Tb704 O713 2.513 1_556 S
Tb704 O714 2.453 . S
Tb704 O715 2.596 1_565 S
Tb704 O716 2.374 1_565 S
O705 Tb702 2.453 . S
O705 C721 1.245 . S
O706 Tb702 2.596 1_565 S
O706 Tb704 2.343 1_554 S
O706 C721 1.259 1_565 S
O707 Tb702 2.374 1_565 S
O707 C703 1.251 . S
C708 O712 1.275 . S
C708 O713 1.246 . S
O709 C703 1.259 1_556 S
O709 Tb704 2.355 . S
C710 O714 1.247 . S
C710 O715 1.259 1_565 S
C711 O716 1.250 . S
C711 O717 1.263 1_556 S
O712 Tb704 2.427 1_554 S
O712 C708 1.275 . S
O713 Tb704 2.513 1_554 S
O713 C708 1.246 . S
O714 Tb704 2.453 . S
O714 C710 1.247 . S
O715 Tb702 2.343 1_556 S
O715 Tb704 2.596 1_545 S
O715 C710 1.259 1_545 S
O716 Tb704 2.374 1_545 S
O716 C711 1.250 . S
O717 Tb702 2.353 . S
O717 C711 1.263 1_554 S
C718 O719 1.275 . S
C718 O720 1.246 . S
O719 Tb702 2.427 1_556 S
O719 C718 1.275 . S
O720 Tb702 2.513 1_556 S
O720 C718 1.246 . S
C721 O705 1.245 . S
C721 O706 1.259 1_545 S
Tb722 O725 2.453 . S
Tb722 O726 2.596 1_655 S
Tb722 O727 2.374 1_655 S
Tb722 O735 2.343 1_554 S
Tb722 O737 2.353 . S
Tb722 O739 2.427 1_554 S
Tb722 O740 2.513 1_554 S
C723 O727 1.251 . S
C723 O729 1.263 . S
Tb724 O726 2.343 1_556 S
Tb724 O729 2.353 1_556 S
Tb724 O732 2.427 1_556 S
Tb724 O733 2.513 1_556 S
Tb724 O734 2.453 . S
Tb724 O735 2.596 1_455 S
Tb724 O736 2.374 1_455 S
O725 Tb722 2.453 . S
O725 C741 1.245 1_655 S
O726 Tb722 2.596 1_455 S
O726 Tb724 2.343 1_554 S
O726 C741 1.259 . S
O727 Tb722 2.374 1_455 S
O727 C723 1.251 . S
C728 O732 1.275 . S
C728 O733 1.246 . S
O729 C723 1.263 . S
O729 Tb724 2.353 1_554 S
C730 O734 1.277 . S
C730 O735 1.247 1_455 S
C731 O736 1.250 . S
C731 O737 1.263 1_556 S
O732 Tb724 2.427 1_554 S
O732 C728 1.275 . S
O733 Tb724 2.513 1_554 S
O733 C728 1.246 . S
O734 Tb724 2.453 . S
O734 C730 1.277 . S
O735 Tb722 2.343 1_556 S
O735 Tb724 2.596 1_655 S
O735 C730 1.247 1_655 S
O736 Tb724 2.374 1_655 S
O736 C731 1.250 . S
O737 Tb722 2.353 . S
O737 C731 1.263 1_554 S
C738 O739 1.275 . S
C738 O740 1.246 . S
O739 Tb722 2.427 1_556 S
O739 C738 1.275 . S
O740 Tb722 2.513 1_556 S
O740 C738 1.246 . S
C741 O725 1.245 1_455 S
C741 O726 1.259 . S
Tb742 O745 2.453 . S
Tb742 O746 2.596 . S
Tb742 O747 2.374 . S
Tb742 O755 2.343 1_556 S
Tb742 O757 2.353 1_556 S
Tb742 O759 2.427 1_556 S
Tb742 O760 2.513 1_556 S
C743 O747 1.251 . S
C743 O749 1.263 1_556 S
Tb744 O746 2.343 1_554 S
Tb744 O749 2.353 . S
Tb744 O752 2.427 1_554 S
Tb744 O753 2.513 1_554 S
Tb744 O754 2.453 . S
Tb744 O755 2.596 . S
Tb744 O756 2.374 . S
O745 Tb742 2.453 . S
O745 C761 1.245 . S
O746 Tb742 2.596 . S
O746 Tb744 2.343 1_556 S
O746 C761 1.259 . S
O747 Tb742 2.374 . S
O747 C743 1.251 . S
C748 O752 1.275 . S
C748 O753 1.246 . S
O749 C743 1.263 1_554 S
O749 Tb744 2.353 . S
C750 O754 1.245 . S
C750 O755 1.259 . S
C751 O756 1.250 . S
C751 O757 1.263 . S
O752 Tb744 2.427 1_556 S
O752 C748 1.275 . S
O753 Tb744 2.513 1_556 S
O753 C748 1.246 . S
O754 Tb744 2.453 . S
O754 C750 1.245 . S
O755 Tb742 2.343 1_554 S
O755 Tb744 2.596 . S
O755 C750 1.259 . S
O756 Tb744 2.374 . S
O756 C751 1.250 . S
O757 Tb742 2.353 1_554 S
O757 C751 1.263 . S
C758 O759 1.275 . S
C758 O760 1.246 . S
O759 Tb742 2.427 1_554 S
O759 C758 1.275 . S
O760 Tb742 2.513 1_554 S
O760 C758 1.246 . S
C761 O745 1.245 . S
C761 O746 1.259 . S
Tb762 O765 2.453 . S
Tb762 O766 2.596 . S
Tb762 O767 2.374 . S
Tb762 O775 2.343 . S
Tb762 O777 2.353 . S
Tb762 O779 2.427 . S
Tb762 O780 2.513 . S
C763 O767 1.251 . S
C763 O769 1.263 . S
Tb764 O766 2.343 . S
Tb764 O769 2.353 . S
Tb764 O772 2.427 . S
Tb764 O773 2.513 . S
Tb764 O774 2.453 . S
Tb764 O775 2.596 . S
Tb764 O776 2.374 . S
O765 Tb762 2.453 . S
O765 C781 1.245 . S
O766 Tb762 2.596 . S
O766 Tb764 2.343 . S
O766 C781 1.259 . S
O767 Tb762 2.374 . S
O767 C763 1.251 . S
C768 O772 1.275 . S
C768 O773 1.246 . S
O769 C763 1.263 . S
O769 Tb764 2.353 . S
C770 O774 1.245 . S
C770 O775 1.259 . S
C771 O776 1.250 . S
C771 O777 1.263 . S
O772 Tb764 2.427 . S
O772 C768 1.275 . S
O773 Tb764 2.513 . S
O773 C768 1.246 . S
O774 Tb764 2.453 . S
O774 C770 1.245 . S
O775 Tb762 2.343 . S
O775 Tb764 2.596 . S
O775 C770 1.259 . S
O776 Tb764 2.374 . S
O776 C771 1.250 . S
O777 Tb762 2.353 . S
O777 C771 1.263 . S
C778 O779 1.275 . S
C778 O780 1.246 . S
O779 Tb762 2.427 . S
O779 C778 1.275 . S
O780 Tb762 2.513 . S
O780 C778 1.246 . S
C781 O765 1.245 . S
C781 O766 1.259 . S
Tb782 O785 2.453 . S
Tb782 O786 2.596 . S
Tb782 O787 2.374 . S
Tb782 O795 2.343 . S
Tb782 O797 2.353 . S
Tb782 O799 2.427 . S
Tb782 O800 2.513 . S
C783 O787 1.251 . S
C783 O789 1.263 . S
Tb784 O786 2.343 . S
Tb784 O789 2.353 . S
Tb784 O792 2.427 . S
Tb784 O793 2.513 . S
Tb784 O794 2.453 . S
Tb784 O795 2.596 . S
Tb784 O796 2.374 . S
O785 Tb782 2.453 . S
O785 C801 1.245 . S
O786 Tb782 2.596 . S
O786 Tb784 2.343 . S
O786 C801 1.259 . S
O787 Tb782 2.374 . S
O787 C783 1.251 . S
C788 O792 1.275 . S
C788 O793 1.246 . S
O789 C783 1.263 . S
O789 Tb784 2.353 . S
C790 O794 1.245 . S
C790 O795 1.259 . S
C791 O796 1.250 . S
C791 O797 1.263 . S
O792 Tb784 2.427 . S
O792 C788 1.275 . S
O793 Tb784 2.513 . S
O793 C788 1.246 . S
O794 Tb784 2.453 . S
O794 C790 1.245 . S
O795 Tb782 2.343 . S
O795 Tb784 2.596 . S
O795 C790 1.259 . S
O796 Tb784 2.374 . S
O796 C791 1.250 . S
O797 Tb782 2.353 . S
O797 C791 1.263 . S
C798 O799 1.275 . S
C798 O800 1.246 . S
O799 Tb782 2.427 . S
O799 C798 1.275 . S
O800 Tb782 2.513 . S
O800 C798 1.246 . S
C801 O785 1.245 . S
C801 O786 1.259 . S
Tb802 O805 2.453 . S
Tb802 O806 2.596 . S
Tb802 O807 2.374 . S
Tb802 O815 2.343 . S
Tb802 O817 2.353 . S
Tb802 O819 2.427 . S
Tb802 O820 2.513 . S
C803 O807 1.251 . S
C803 O809 1.263 . S
Tb804 O806 2.343 . S
Tb804 O809 2.353 . S
Tb804 O812 2.427 . S
Tb804 O813 2.513 . S
Tb804 O814 2.453 . S
Tb804 O815 2.596 . S
Tb804 O816 2.374 . S
O805 Tb802 2.453 . S
O805 C821 1.245 . S
O806 Tb802 2.596 . S
O806 Tb804 2.343 . S
O806 C821 1.259 . S
O807 Tb802 2.374 . S
O807 C803 1.251 . S
C808 O812 1.275 . S
C808 O813 1.246 . S
O809 C803 1.263 . S
O809 Tb804 2.353 . S
C810 O814 1.245 . S
C810 O815 1.259 . S
C811 O816 1.250 . S
C811 O817 1.263 . S
O812 Tb804 2.427 . S
O812 C808 1.275 . S
O813 Tb804 2.513 . S
O813 C808 1.246 . S
O814 Tb804 2.453 . S
O814 C810 1.245 . S
O815 Tb802 2.343 . S
O815 Tb804 2.596 . S
O815 C810 1.259 . S
O816 Tb804 2.374 . S
O816 C811 1.250 . S
O817 Tb802 2.353 . S
O817 C811 1.263 . S
C818 O819 1.275 . S
C818 O820 1.246 . S
O819 Tb802 2.427 . S
O819 C818 1.275 . S
O820 Tb802 2.513 . S
O820 C818 1.246 . S
C821 O805 1.245 . S
C821 O806 1.259 . S
Tb822 O825 2.453 . S
Tb822 O826 2.596 . S
Tb822 O827 2.374 . S
Tb822 O835 2.343 . S
Tb822 O837 2.353 . S
Tb822 O839 2.427 . S
Tb822 O840 2.513 . S
C823 O827 1.251 . S
C823 O829 1.263 . S
Tb824 O826 2.343 . S
Tb824 O829 2.353 . S
Tb824 O832 2.427 . S
Tb824 O833 2.513 . S
Tb824 O834 2.453 . S
Tb824 O835 2.596 . S
Tb824 O836 2.374 . S
O825 Tb822 2.453 . S
O825 C841 1.245 . S
O826 Tb822 2.596 . S
O826 Tb824 2.343 . S
O826 C841 1.259 . S
O827 Tb822 2.374 . S
O827 C823 1.251 . S
C828 O832 1.275 . S
C828 O833 1.246 . S
O829 C823 1.263 . S
O829 Tb824 2.353 . S
C830 O834 1.245 . S
C830 O835 1.259 . S
C831 O836 1.250 . S
C831 O837 1.263 . S
O832 Tb824 2.427 . S
O832 C828 1.275 . S
O833 Tb824 2.513 . S
O833 C828 1.246 . S
O834 Tb824 2.453 . S
O834 C830 1.245 . S
O835 Tb822 2.343 . S
O835 Tb824 2.596 . S
O835 C830 1.259 . S
O836 Tb824 2.374 . S
O836 C831 1.250 . S
O837 Tb822 2.353 . S
O837 C831 1.263 . S
C838 O839 1.275 . S
C838 O840 1.246 . S
O839 Tb822 2.427 . S
O839 C838 1.275 . S
O840 Tb822 2.513 . S
O840 C838 1.246 . S
C841 O825 1.245 . S
C841 O826 1.259 . S
Tb842 O845 2.453 . S
Tb842 O846 2.596 . S
Tb842 O847 2.374 . S
Tb842 O855 2.343 . S
Tb842 O857 2.353 . S
Tb842 O859 2.427 . S
Tb842 O860 2.513 . S
C843 O847 1.251 . S
C843 O849 1.263 . S
Tb844 O846 2.343 . S
Tb844 O849 2.353 . S
Tb844 O852 2.427 . S
Tb844 O853 2.513 . S
Tb844 O854 2.453 . S
Tb844 O855 2.596 . S
Tb844 O856 2.374 . S
O845 Tb842 2.453 . S
O845 C861 1.245 . S
O846 Tb842 2.596 . S
O846 Tb844 2.343 . S
O846 C861 1.259 . S
O847 Tb842 2.374 . S
O847 C843 1.251 . S
C848 O852 1.275 . S
C848 O853 1.246 . S
O849 C843 1.263 . S
O849 Tb844 2.353 . S
C850 O854 1.245 . S
C850 O855 1.259 . S
C851 O856 1.250 . S
C851 O857 1.263 . S
O852 Tb844 2.427 . S
O852 C848 1.275 . S
O853 Tb844 2.513 . S
O853 C848 1.246 . S
O854 Tb844 2.453 . S
O854 C850 1.245 . S
O855 Tb842 2.343 . S
O855 Tb844 2.596 . S
O855 C850 1.259 . S
O856 Tb844 2.374 . S
O856 C851 1.250 . S
O857 Tb842 2.353 . S
O857 C851 1.263 . S
C858 O859 1.275 . S
C858 O860 1.246 . S
O859 Tb842 2.427 . S
O859 C858 1.275 . S
O860 Tb842 2.513 . S
O860 C858 1.246 . S
C861 O845 1.245 . S
C861 O846 1.259 . S
Tb862 O865 2.453 . S
Tb862 O866 2.596 . S
Tb862 O867 2.374 . S
Tb862 O875 2.343 . S
Tb862 O877 2.353 . S
Tb862 O879 2.427 . S
Tb862 O880 2.513 . S
C863 O867 1.251 . S
C863 O869 1.263 . S
Tb864 O866 2.343 . S
Tb864 O869 2.353 . S
Tb864 O872 2.427 . S
Tb864 O873 2.513 . S
Tb864 O874 2.453 . S
Tb864 O875 2.596 . S
Tb864 O876 2.374 . S
O865 Tb862 2.453 . S
O865 C881 1.245 . S
O866 Tb862 2.596 . S
O866 Tb864 2.343 . S
O866 C881 1.259 . S
O867 Tb862 2.374 . S
O867 C863 1.251 . S
C868 O872 1.275 . S
C868 O873 1.246 . S
O869 C863 1.263 . S
O869 Tb864 2.353 . S
C870 O874 1.245 . S
C870 O875 1.259 . S
C871 O876 1.250 . S
C871 O877 1.263 . S
O872 Tb864 2.427 . S
O872 C868 1.275 . S
O873 Tb864 2.513 . S
O873 C868 1.246 . S
O874 Tb864 2.453 . S
O874 C870 1.245 . S
O875 Tb862 2.343 . S
O875 Tb864 2.596 . S
O875 C870 1.259 . S
O876 Tb864 2.374 . S
O876 C871 1.250 . S
O877 Tb862 2.353 . S
O877 C871 1.263 . S
C878 O879 1.275 . S
C878 O880 1.246 . S
O879 Tb862 2.427 . S
O879 C878 1.275 . S
O880 Tb862 2.513 . S
O880 C878 1.246 . S
C881 O865 1.245 . S
C881 O866 1.259 . S
H882 C888 0.930 . S
H883 C892 0.930 . S
H884 C897 0.929 . S
H885 C895 0.929 . S
H886 C890 0.929 . S
H887 C896 0.929 . S
C888 H882 0.930 . S
C888 C889 1.367 . S
C888 C896 1.378 . S
C889 C888 1.367 . S
C889 C897 1.433 . S
C890 H886 0.929 . S
C890 C892 1.378 . S
C890 C894 1.350 . S
C891 C894 1.463 . S
C891 C896 1.350 . S
C891 N899 1.427 . S
C892 H883 0.930 . S
C892 C890 1.378 . S
C892 C893 1.367 . S
C893 C892 1.367 . S
C893 C895 1.433 . S
C894 C890 1.350 . S
C894 C891 1.463 . S
C894 N898 1.427 . S
C895 H885 0.929 . S
C895 C893 1.433 . S
C895 N898 1.384 . S
C896 H887 0.929 . S
C896 C888 1.378 . S
C896 C891 1.350 . S
C897 H884 0.929 . S
C897 C889 1.433 . S
C897 N899 1.384 . S
N898 C894 1.427 . S
N898 C895 1.384 . S
N899 C891 1.427 . S
N899 C897 1.384 . S
H900 C906 0.930 . S
H901 C910 0.930 . S
H902 C915 0.929 . S
H903 C913 0.929 . S
H904 C908 0.929 . S
H905 C914 0.929 . S
C906 H900 0.930 . S
C906 C907 1.367 . S
C906 C914 1.378 . S
C907 C906 1.367 . S
C907 C915 1.433 . S
C908 H904 0.929 . S
C908 C910 1.378 . S
C908 C912 1.350 . S
C909 C912 1.463 . S
C909 C914 1.350 . S
C909 N917 1.427 . S
C910 H901 0.930 . S
C910 C908 1.378 . S
C910 C911 1.367 . S
C911 C910 1.367 . S
C911 C913 1.433 . S
C912 C908 1.350 . S
C912 C909 1.463 . S
C912 N916 1.427 . S
C913 H903 0.929 . S
C913 C911 1.433 . S
C913 N916 1.384 . S
C914 H905 0.929 . S
C914 C906 1.378 . S
C914 C909 1.350 . S
C915 H902 0.929 . S
C915 C907 1.433 . S
C915 N917 1.384 . S
N916 C912 1.427 . S
N916 C913 1.384 . S
N917 C909 1.427 . S
N917 C915 1.384 . S
H918 C924 0.930 . S
H919 C928 0.930 1_556 S
H920 C933 0.929 . S
H921 C931 0.929 . S
H922 C926 0.929 . S
H923 C932 0.929 . S
C924 H918 0.930 . S
C924 C925 1.367 . S
C924 C932 1.378 . S
C925 C924 1.367 . S
C925 C933 1.433 . S
C926 H922 0.929 . S
C926 C928 1.378 . S
C926 C930 1.350 . S
C927 C930 1.463 . S
C927 C932 1.350 . S
C927 N935 1.427 . S
C928 H919 0.930 1_554 S
C928 C926 1.378 . S
C928 C929 1.367 . S
C929 C928 1.367 . S
C929 C931 1.433 . S
C930 C926 1.350 . S
C930 C927 1.463 . S
C930 N934 1.427 . S
C931 H921 0.929 . S
C931 C929 1.433 . S
C931 N934 1.384 . S
C932 H923 0.929 . S
C932 C924 1.378 . S
C932 C927 1.350 . S
C933 H920 0.929 . S
C933 C925 1.433 . S
C933 N935 1.384 . S
N934 C930 1.427 . S
N934 C931 1.384 . S
N935 C927 1.427 . S
N935 C933 1.384 . S
H936 C942 0.930 . S
H937 C946 0.930 . S
H938 C951 0.929 . S
H939 C949 0.929 . S
H940 C944 0.929 . S
H941 C950 0.929 . S
C942 H936 0.930 . S
C942 C943 1.367 . S
C942 C950 1.378 . S
C943 C942 1.367 . S
C943 C951 1.433 . S
C944 H940 0.929 . S
C944 C946 1.378 . S
C944 C948 1.350 . S
C945 C948 1.463 . S
C945 C950 1.350 . S
C945 N953 1.427 . S
C946 H937 0.930 . S
C946 C944 1.378 . S
C946 C947 1.367 . S
C947 C946 1.367 . S
C947 C949 1.433 . S
C948 C944 1.350 . S
C948 C945 1.463 . S
C948 N952 1.427 . S
C949 H939 0.929 . S
C949 C947 1.433 . S
C949 N952 1.384 . S
C950 H941 0.929 . S
C950 C942 1.378 . S
C950 C945 1.350 . S
C951 H938 0.929 . S
C951 C943 1.433 . S
C951 N953 1.384 . S
N952 C948 1.427 . S
N952 C949 1.384 . S
N953 C945 1.427 . S
N953 C951 1.384 . S
H954 C960 0.930 . S
H955 C964 0.930 . S
H956 C969 0.929 . S
H957 C967 0.929 . S
H958 C962 0.929 . S
H959 C968 0.929 . S
C960 H954 0.930 . S
C960 C961 1.367 . S
C960 C968 1.378 . S
C961 C960 1.367 . S
C961 C969 1.433 . S
C962 H958 0.929 . S
C962 C964 1.378 . S
C962 C966 1.350 . S
C963 C966 1.463 . S
C963 C968 1.350 . S
C963 N971 1.427 . S
C964 H955 0.930 . S
C964 C962 1.378 . S
C964 C965 1.367 . S
C965 C964 1.367 . S
C965 C967 1.433 . S
C966 C962 1.350 . S
C966 C963 1.463 . S
C966 N970 1.427 . S
C967 H957 0.929 . S
C967 C965 1.433 . S
C967 N970 1.384 . S
C968 H959 0.929 . S
C968 C960 1.378 . S
C968 C963 1.350 . S
C969 H956 0.929 . S
C969 C961 1.433 . S
C969 N971 1.384 . S
N970 C966 1.427 . S
N970 C967 1.384 . S
N971 C963 1.427 . S
N971 C969 1.384 . S
H972 C978 0.930 . S
H973 C982 0.930 . S
H974 C987 0.929 . S
H975 C985 0.929 . S
H976 C980 0.929 . S
H977 C986 0.929 . S
C978 H972 0.930 . S
C978 C979 1.367 . S
C978 C986 1.378 . S
C979 C978 1.367 . S
C979 C987 1.433 . S
C980 H976 0.929 . S
C980 C982 1.378 . S
C980 C984 1.350 . S
C981 C984 1.463 . S
C981 C986 1.350 . S
C981 N989 1.427 . S
C982 H973 0.930 . S
C982 C980 1.378 . S
C982 C983 1.367 . S
C983 C982 1.367 . S
C983 C985 1.433 . S
C984 C980 1.350 . S
C984 C981 1.463 . S
C984 N988 1.427 . S
C985 H975 0.929 . S
C985 C983 1.433 . S
C985 N988 1.384 . S
C986 H977 0.929 . S
C986 C978 1.378 . S
C986 C981 1.350 . S
C987 H974 0.929 . S
C987 C979 1.433 . S
C987 N989 1.384 . S
N988 C984 1.427 . S
N988 C985 1.384 . S
N989 C981 1.427 . S
N989 C987 1.384 . S
H990 C996 0.930 . S
H991 C1000 0.930 . S
H992 C1005 0.929 . S
H993 C1003 0.929 . S
H994 C998 0.929 . S
H995 C1004 0.929 . S
C996 H990 0.930 . S
C996 C997 1.367 . S
C996 C1004 1.378 . S
C997 C996 1.367 . S
C997 C1005 1.433 . S
C998 H994 0.929 . S
C998 C1000 1.378 . S
C998 C1002 1.350 . S
C999 C1002 1.463 . S
C999 C1004 1.350 . S
C999 N1007 1.427 . S
C1000 H991 0.930 . S
C1000 C998 1.378 . S
C1000 C1001 1.367 . S
C1001 C1000 1.367 . S
C1001 C1003 1.433 . S
C1002 C998 1.350 . S
C1002 C999 1.463 . S
C1002 N1006 1.427 . S
C1003 H993 0.929 . S
C1003 C1001 1.433 . S
C1003 N1006 1.384 . S
C1004 H995 0.929 . S
C1004 C996 1.378 . S
C1004 C999 1.350 . S
C1005 H992 0.929 . S
C1005 C997 1.433 . S
C1005 N1007 1.384 . S
N1006 C1002 1.427 . S
N1006 C1003 1.384 . S
N1007 C999 1.427 . S
N1007 C1005 1.384 . S
H1008 C1014 0.930 . S
H1009 C1018 0.930 . S
H1010 C1023 0.929 . S
H1011 C1021 0.929 . S
H1012 C1016 0.929 . S
H1013 C1022 0.929 . S
C1014 H1008 0.930 . S
C1014 C1015 1.367 . S
C1014 C1022 1.378 . S
C1015 C1014 1.367 . S
C1015 C1023 1.433 . S
C1016 H1012 0.929 . S
C1016 C1018 1.378 . S
C1016 C1020 1.350 . S
C1017 C1020 1.463 . S
C1017 C1022 1.350 . S
C1017 N1025 1.427 . S
C1018 H1009 0.930 . S
C1018 C1016 1.378 . S
C1018 C1019 1.367 . S
C1019 C1018 1.367 . S
C1019 C1021 1.433 . S
C1020 C1016 1.350 . S
C1020 C1017 1.463 . S
C1020 N1024 1.427 . S
C1021 H1011 0.929 . S
C1021 C1019 1.433 . S
C1021 N1024 1.384 . S
C1022 H1013 0.929 . S
C1022 C1014 1.378 . S
C1022 C1017 1.350 . S
C1023 H1010 0.929 . S
C1023 C1015 1.433 . S
C1023 N1025 1.384 . S
N1024 C1020 1.427 . S
N1024 C1021 1.384 . S
N1025 C1017 1.427 . S
N1025 C1023 1.384 . S
H1026 C1032 0.930 . S
H1027 C1036 0.930 . S
H1028 C1041 0.929 . S
H1029 C1039 0.929 1_554 S
H1030 C1034 0.929 . S
H1031 C1040 0.929 . S
C1032 H1026 0.930 . S
C1032 C1033 1.367 . S
C1032 C1040 1.378 . S
C1033 C1032 1.367 . S
C1033 C1041 1.433 . S
C1034 H1030 0.929 . S
C1034 C1036 1.378 . S
C1034 C1038 1.350 . S
C1035 C1038 1.463 . S
C1035 C1040 1.350 . S
C1035 N1043 1.427 . S
C1036 H1027 0.930 . S
C1036 C1034 1.378 . S
C1036 C1037 1.367 . S
C1037 C1036 1.367 . S
C1037 C1039 1.433 . S
C1038 C1034 1.350 . S
C1038 C1035 1.463 . S
C1038 N1042 1.427 . S
C1039 H1029 0.929 1_556 S
C1039 C1037 1.433 . S
C1039 N1042 1.384 . S
C1040 H1031 0.929 . S
C1040 C1032 1.378 . S
C1040 C1035 1.350 . S
C1041 H1028 0.929 . S
C1041 C1033 1.433 . S
C1041 N1043 1.384 . S
N1042 C1038 1.427 . S
N1042 C1039 1.384 . S
N1043 C1035 1.427 . S
N1043 C1041 1.384 . S
H1044 C1050 0.930 . S
H1045 C1054 0.972 . S
H1046 C1059 0.929 . S
H1047 C1057 0.929 . S
H1048 C1052 0.929 . S
H1049 C1058 0.929 . S
C1050 H1044 0.930 . S
C1050 C1051 1.367 . S
C1050 C1058 1.378 . S
C1051 C1050 1.367 . S
C1051 C1059 1.433 . S
C1052 H1048 0.929 . S
C1052 C1054 1.378 . S
C1052 C1056 1.350 . S
C1053 C1056 1.463 . S
C1053 C1058 1.350 . S
C1053 N1061 1.427 . S
C1054 H1045 0.972 . S
C1054 C1052 1.378 . S
C1054 C1055 1.367 . S
C1055 C1054 1.367 . S
C1055 C1057 1.433 . S
C1056 C1052 1.350 . S
C1056 C1053 1.463 . S
C1056 N1060 1.427 . S
C1057 H1047 0.929 . S
C1057 C1055 1.433 . S
C1057 N1060 1.384 . S
C1058 H1049 0.929 . S
C1058 C1050 1.378 . S
C1058 C1053 1.350 . S
C1059 H1046 0.929 . S
C1059 C1051 1.433 . S
C1059 N1061 1.384 . S
N1060 C1056 1.427 . S
N1060 C1057 1.384 . S
N1061 C1053 1.427 . S
N1061 C1059 1.384 . S
H1062 C1068 0.930 . S
H1063 C1072 0.930 . S
H1064 C1077 0.929 . S
H1065 C1075 0.929 . S
H1066 C1070 0.929 . S
H1067 C1076 0.929 . S
C1068 H1062 0.930 . S
C1068 C1069 1.367 . S
C1068 C1076 1.378 . S
C1069 C1068 1.367 . S
C1069 C1077 1.433 . S
C1070 H1066 0.929 . S
C1070 C1072 1.378 . S
C1070 C1074 1.350 . S
C1071 C1074 1.463 . S
C1071 C1076 1.350 . S
C1071 N1079 1.427 . S
C1072 H1063 0.930 . S
C1072 C1070 1.378 . S
C1072 C1073 1.367 . S
C1073 C1072 1.367 . S
C1073 C1075 1.433 . S
C1074 C1070 1.350 . S
C1074 C1071 1.463 . S
C1074 N1078 1.427 . S
C1075 H1065 0.929 . S
C1075 C1073 1.433 . S
C1075 N1078 1.384 . S
C1076 H1067 0.929 . S
C1076 C1068 1.378 . S
C1076 C1071 1.350 . S
C1077 H1064 0.929 . S
C1077 C1069 1.433 . S
C1077 N1079 1.384 . S
N1078 C1074 1.427 . S
N1078 C1075 1.384 . S
N1079 C1071 1.427 . S
N1079 C1077 1.384 . S
H1080 C1086 0.930 . S
H1081 C1090 0.930 1_556 S
H1082 C1095 0.929 . S
H1083 C1093 0.929 . S
H1084 C1088 0.929 . S
H1085 C1094 0.929 . S
C1086 H1080 0.930 . S
C1086 C1087 1.367 . S
C1086 C1094 1.378 . S
C1087 C1086 1.367 . S
C1087 C1095 1.433 . S
C1088 H1084 0.929 . S
C1088 C1090 1.378 . S
C1088 C1092 1.350 . S
C1089 C1092 1.463 . S
C1089 C1094 1.350 . S
C1089 N1097 1.427 . S
C1090 H1081 0.930 1_554 S
C1090 C1088 1.378 . S
C1090 C1091 1.367 . S
C1091 C1090 1.367 . S
C1091 C1093 1.433 . S
C1092 C1088 1.350 . S
C1092 C1089 1.463 . S
C1092 N1096 1.427 . S
C1093 H1083 0.929 . S
C1093 C1091 1.433 . S
C1093 N1096 1.384 . S
C1094 H1085 0.929 . S
C1094 C1086 1.378 . S
C1094 C1089 1.350 . S
C1095 H1082 0.929 . S
C1095 C1087 1.433 . S
C1095 N1097 1.384 . S
N1096 C1092 1.427 . S
N1096 C1093 1.384 . S
N1097 C1089 1.427 . S
N1097 C1095 1.384 . S
H1098 C1104 0.930 . S
H1099 C1108 0.930 . S
H1100 C1113 0.929 . S
H1101 C1111 0.929 . S
H1102 C1106 0.929 . S
H1103 C1112 0.916 1_455 S
C1104 H1098 0.930 . S
C1104 C1105 1.367 . S
C1104 C1112 1.378 . S
C1105 C1104 1.367 . S
C1105 C1113 1.433 . S
C1106 H1102 0.929 . S
C1106 C1108 1.378 . S
C1106 C1110 1.350 . S
C1107 C1110 1.463 . S
C1107 C1112 1.350 1_455 S
C1107 N1115 1.427 . S
C1108 H1099 0.930 . S
C1108 C1106 1.378 . S
C1108 C1109 1.367 . S
C1109 C1108 1.367 . S
C1109 C1111 1.433 . S
C1110 C1106 1.350 . S
C1110 C1107 1.463 . S
C1110 N1114 1.427 . S
C1111 H1101 0.929 . S
C1111 C1109 1.433 . S
C1111 N1114 1.384 . S
C1112 H1103 0.916 1_655 S
C1112 C1104 1.378 . S
C1112 C1107 1.350 1_655 S
C1113 H1100 0.929 . S
C1113 C1105 1.433 . S
C1113 N1115 1.384 1_655 S
N1114 C1110 1.427 . S
N1114 C1111 1.384 . S
N1115 C1107 1.427 . S
N1115 C1113 1.384 1_455 S
H1116 C1122 0.930 . S
H1117 C1126 0.930 . S
H1118 C1131 0.929 . S
H1119 C1129 0.929 . S
H1120 C1124 0.929 . S
H1121 C1130 0.929 . S
C1122 H1116 0.930 . S
C1122 C1123 1.367 . S
C1122 C1130 1.378 . S
C1123 C1122 1.367 . S
C1123 C1131 1.433 . S
C1124 H1120 0.929 . S
C1124 C1126 1.378 . S
C1124 C1128 1.350 . S
C1125 C1128 1.463 . S
C1125 C1130 1.350 . S
C1125 N1133 1.427 . S
C1126 H1117 0.930 . S
C1126 C1124 1.378 . S
C1126 C1127 1.367 . S
C1127 C1126 1.367 . S
C1127 C1129 1.433 . S
C1128 C1124 1.350 . S
C1128 C1125 1.463 . S
C1128 N1132 1.427 . S
C1129 H1119 0.929 . S
C1129 C1127 1.433 . S
C1129 N1132 1.384 . S
C1130 H1121 0.929 . S
C1130 C1122 1.378 . S
C1130 C1125 1.350 . S
C1131 H1118 0.929 . S
C1131 C1123 1.433 . S
C1131 N1133 1.384 . S
N1132 C1128 1.427 . S
N1132 C1129 1.384 . S
N1133 C1125 1.427 . S
N1133 C1131 1.384 . S
H1134 C1140 0.930 . S
H1135 C1144 0.930 . S
H1136 C1149 0.929 . S
H1137 C1147 0.929 . S
H1138 C1142 0.929 . S
H1139 C1148 0.929 . S
C1140 H1134 0.930 . S
C1140 C1141 1.367 . S
C1140 C1148 1.378 1_545 S
C1141 C1140 1.367 . S
C1141 C1149 1.433 . S
C1142 H1138 0.929 . S
C1142 C1144 1.378 . S
C1142 C1146 1.350 . S
C1143 C1146 1.463 . S
C1143 C1148 1.350 . S
C1143 N1151 1.427 . S
C1144 H1135 0.930 . S
C1144 C1142 1.378 . S
C1144 C1145 1.367 . S
C1145 C1144 1.367 . S
C1145 C1147 1.433 . S
C1146 C1142 1.350 . S
C1146 C1143 1.463 . S
C1146 N1150 1.427 . S
C1147 H1137 0.929 . S
C1147 C1145 1.433 . S
C1147 N1150 1.384 . S
C1148 H1139 0.929 . S
C1148 C1140 1.378 1_565 S
C1148 C1143 1.350 . S
C1149 H1136 0.929 . S
C1149 C1141 1.433 . S
C1149 N1151 1.384 1_545 S
N1150 C1146 1.427 . S
N1150 C1147 1.384 . S
N1151 C1143 1.427 . S
N1151 C1149 1.384 1_565 S
H1152 C1158 0.930 . S
H1153 C1162 0.930 . S
H1154 C1167 0.929 . S
H1155 C1165 0.929 . S
H1156 C1160 0.929 . S
H1157 C1166 0.929 . S
C1158 H1152 0.930 . S
C1158 C1159 1.367 . S
C1158 C1166 1.378 . S
C1159 C1158 1.367 . S
C1159 C1167 1.433 . S
C1160 H1156 0.929 . S
C1160 C1162 1.378 . S
C1160 C1164 1.350 . S
C1161 C1164 1.463 . S
C1161 C1166 1.350 . S
C1161 N1169 1.427 . S
C1162 H1153 0.930 . S
C1162 C1160 1.378 . S
C1162 C1163 1.367 . S
C1163 C1162 1.367 . S
C1163 C1165 1.433 . S
C1164 C1160 1.350 . S
C1164 C1161 1.463 . S
C1164 N1168 1.427 . S
C1165 H1155 0.929 . S
C1165 C1163 1.433 . S
C1165 N1168 1.384 . S
C1166 H1157 0.929 . S
C1166 C1158 1.378 . S
C1166 C1161 1.350 . S
C1167 H1154 0.929 . S
C1167 C1159 1.433 . S
C1167 N1169 1.384 . S
N1168 C1164 1.427 . S
N1168 C1165 1.384 . S
N1169 C1161 1.427 . S
N1169 C1167 1.384 . S
H1170 C1176 0.930 . S
H1171 C1180 0.930 . S
H1172 C1185 0.929 . S
H1173 C1183 0.929 . S
H1174 C1178 0.929 . S
H1175 C1184 0.929 . S
C1176 H1170 0.930 . S
C1176 C1177 1.367 . S
C1176 C1184 1.378 . S
C1177 C1176 1.367 . S
C1177 C1185 1.433 . S
C1178 H1174 0.929 . S
C1178 C1180 1.378 . S
C1178 C1182 1.350 . S
C1179 C1182 1.463 . S
C1179 C1184 1.350 . S
C1179 N1187 1.427 . S
C1180 H1171 0.930 . S
C1180 C1178 1.378 . S
C1180 C1181 1.367 . S
C1181 C1180 1.367 . S
C1181 C1183 1.433 . S
C1182 C1178 1.350 . S
C1182 C1179 1.463 . S
C1182 N1186 1.427 . S
C1183 H1173 0.929 . S
C1183 C1181 1.433 . S
C1183 N1186 1.384 . S
C1184 H1175 0.929 . S
C1184 C1176 1.378 . S
C1184 C1179 1.350 . S
C1185 H1172 0.929 . S
C1185 C1177 1.433 . S
C1185 N1187 1.384 . S
N1186 C1182 1.427 . S
N1186 C1183 1.384 . S
N1187 C1179 1.427 . S
N1187 C1185 1.384 . S
H1188 C1194 0.930 . S
H1189 C1198 0.930 . S
H1190 C1203 0.929 . S
H1191 C1201 0.929 . S
H1192 C1196 0.929 . S
H1193 C1202 0.929 . S
C1194 H1188 0.930 . S
C1194 C1195 1.367 . S
C1194 C1202 1.378 . S
C1195 C1194 1.367 . S
C1195 C1203 1.433 . S
C1196 H1192 0.929 . S
C1196 C1198 1.378 . S
C1196 C1200 1.350 . S
C1197 C1200 1.463 . S
C1197 C1202 1.350 . S
C1197 N1205 1.427 . S
C1198 H1189 0.930 . S
C1198 C1196 1.378 . S
C1198 C1199 1.367 . S
C1199 C1198 1.367 . S
C1199 C1201 1.433 . S
C1200 C1196 1.350 . S
C1200 C1197 1.463 . S
C1200 N1204 1.427 . S
C1201 H1191 0.929 . S
C1201 C1199 1.433 . S
C1201 N1204 1.384 . S
C1202 H1193 0.929 . S
C1202 C1194 1.378 . S
C1202 C1197 1.350 . S
C1203 H1190 0.929 . S
C1203 C1195 1.433 . S
C1203 N1205 1.384 . S
N1204 C1200 1.427 . S
N1204 C1201 1.384 . S
N1205 C1197 1.427 . S
N1205 C1203 1.384 . S
H1206 C1212 0.930 . S
H1207 C1216 0.930 . S
H1208 C1221 0.929 . S
H1209 C1219 0.929 . S
H1210 C1214 0.929 . S
H1211 C1220 0.929 . S
C1212 H1206 0.930 . S
C1212 C1213 1.367 . S
C1212 C1220 1.378 . S
C1213 C1212 1.367 . S
C1213 C1221 1.433 . S
C1214 H1210 0.929 . S
C1214 C1216 1.378 . S
C1214 C1218 1.350 . S
C1215 C1218 1.463 . S
C1215 C1220 1.350 . S
C1215 N1223 1.427 . S
C1216 H1207 0.930 . S
C1216 C1214 1.378 . S
C1216 C1217 1.367 . S
C1217 C1216 1.367 . S
C1217 C1219 1.433 . S
C1218 C1214 1.350 . S
C1218 C1215 1.463 . S
C1218 N1222 1.427 . S
C1219 H1209 0.929 . S
C1219 C1217 1.433 . S
C1219 N1222 1.384 . S
C1220 H1211 0.929 . S
C1220 C1212 1.378 . S
C1220 C1215 1.350 . S
C1221 H1208 0.929 . S
C1221 C1213 1.433 . S
C1221 N1223 1.384 . S
N1222 C1218 1.427 . S
N1222 C1219 1.384 . S
N1223 C1215 1.427 . S
N1223 C1221 1.384 . S
H1224 C1230 0.930 . S
H1225 C1234 0.930 . S
H1226 C1239 0.929 . S
H1227 C1237 0.929 . S
H1228 C1232 0.929 . S
H1229 C1238 0.929 . S
C1230 H1224 0.930 . S
C1230 C1231 1.367 . S
C1230 C1238 1.378 . S
C1231 C1230 1.367 . S
C1231 C1239 1.433 . S
C1232 H1228 0.929 . S
C1232 C1234 1.378 . S
C1232 C1236 1.350 . S
C1233 C1236 1.463 . S
C1233 C1238 1.350 . S
C1233 N1241 1.427 . S
C1234 H1225 0.930 . S
C1234 C1232 1.378 . S
C1234 C1235 1.367 . S
C1235 C1234 1.367 . S
C1235 C1237 1.433 . S
C1236 C1232 1.350 . S
C1236 C1233 1.463 . S
C1236 N1240 1.427 . S
C1237 H1227 0.929 . S
C1237 C1235 1.433 . S
C1237 N1240 1.384 . S
C1238 H1229 0.929 . S
C1238 C1230 1.378 . S
C1238 C1233 1.350 . S
C1239 H1226 0.929 . S
C1239 C1231 1.433 . S
C1239 N1241 1.384 . S
N1240 C1236 1.427 . S
N1240 C1237 1.384 . S
N1241 C1233 1.427 . S
N1241 C1239 1.384 . S
H1242 C1248 0.930 . S
H1243 C1252 0.930 . S
H1244 C1257 0.929 . S
H1245 C1255 0.929 . S
H1246 C1250 0.929 . S
H1247 C1256 0.929 . S
C1248 H1242 0.930 . S
C1248 C1249 1.367 . S
C1248 C1256 1.378 . S
C1249 C1248 1.367 . S
C1249 C1257 1.433 . S
C1250 H1246 0.929 . S
C1250 C1252 1.378 . S
C1250 C1254 1.350 . S
C1251 C1254 1.463 . S
C1251 C1256 1.350 . S
C1251 N1259 1.427 . S
C1252 H1243 0.930 . S
C1252 C1250 1.378 . S
C1252 C1253 1.367 . S
C1253 C1252 1.367 . S
C1253 C1255 1.433 . S
C1254 C1250 1.350 . S
C1254 C1251 1.463 . S
C1254 N1258 1.427 . S
C1255 H1245 0.929 . S
C1255 C1253 1.433 . S
C1255 N1258 1.384 . S
C1256 H1247 0.929 . S
C1256 C1248 1.378 . S
C1256 C1251 1.350 . S
C1257 H1244 0.929 . S
C1257 C1249 1.433 . S
C1257 N1259 1.384 . S
N1258 C1254 1.427 . S
N1258 C1255 1.384 . S
N1259 C1251 1.427 . S
N1259 C1257 1.384 . S
H1260 C1266 0.930 . S
H1261 C1270 0.930 . S
H1262 C1275 0.929 . S
H1263 C1273 0.929 . S
H1264 C1268 0.929 . S
H1265 C1274 0.929 . S
C1266 H1260 0.930 . S
C1266 C1267 1.367 . S
C1266 C1274 1.378 1_545 S
C1267 C1266 1.367 . S
C1267 C1275 1.433 . S
C1268 H1264 0.929 . S
C1268 C1270 1.378 . S
C1268 C1272 1.350 . S
C1269 C1272 1.463 . S
C1269 C1274 1.350 . S
C1269 N1277 1.427 . S
C1270 H1261 0.930 . S
C1270 C1268 1.378 . S
C1270 C1271 1.367 . S
C1271 C1270 1.367 . S
C1271 C1273 1.433 . S
C1272 C1268 1.350 . S
C1272 C1269 1.463 . S
C1272 N1276 1.427 . S
C1273 H1263 0.929 . S
C1273 C1271 1.433 . S
C1273 N1276 1.384 . S
C1274 H1265 0.929 . S
C1274 C1266 1.378 1_565 S
C1274 C1269 1.350 . S
C1275 H1262 0.929 . S
C1275 C1267 1.433 . S
C1275 N1277 1.384 1_545 S
N1276 C1272 1.427 . S
N1276 C1273 1.384 . S
N1277 C1269 1.427 . S
N1277 C1275 1.384 1_565 S
H1278 C1284 0.930 . S
H1279 C1288 0.930 . S
H1280 C1293 0.929 1_655 S
H1281 C1291 0.929 . S
H1282 C1286 0.929 . S
H1283 C1292 0.929 . S
C1284 H1278 0.930 . S
C1284 C1285 1.367 . S
C1284 C1292 1.378 1_655 S
C1285 C1284 1.367 . S
C1285 C1293 1.433 1_655 S
C1286 H1282 0.929 . S
C1286 C1288 1.378 . S
C1286 C1290 1.350 . S
C1287 C1290 1.463 . S
C1287 C1292 1.350 . S
C1287 N1295 1.427 . S
C1288 H1279 0.930 . S
C1288 C1286 1.378 . S
C1288 C1289 1.367 . S
C1289 C1288 1.367 . S
C1289 C1291 1.433 . S
C1290 C1286 1.350 . S
C1290 C1287 1.463 . S
C1290 N1294 1.427 . S
C1291 H1281 0.929 . S
C1291 C1289 1.433 . S
C1291 N1294 1.384 . S
C1292 H1283 0.929 . S
C1292 C1284 1.378 1_455 S
C1292 C1287 1.350 . S
C1293 H1280 0.929 1_455 S
C1293 C1285 1.433 1_455 S
C1293 N1295 1.384 . S
N1294 C1290 1.427 . S
N1294 C1291 1.384 . S
N1295 C1287 1.427 . S
N1295 C1293 1.384 . S
H1296 C1302 0.930 . S
H1297 C1306 0.930 . S
H1298 C1311 0.929 . S
H1299 C1309 0.929 . S
H1300 C1304 0.929 . S
H1301 C1310 0.929 . S
C1302 H1296 0.930 . S
C1302 C1303 1.367 . S
C1302 C1310 1.378 . S
C1303 C1302 1.367 . S
C1303 C1311 1.433 . S
C1304 H1300 0.929 . S
C1304 C1306 1.378 . S
C1304 C1308 1.350 . S
C1305 C1308 1.463 . S
C1305 C1310 1.350 . S
C1305 N1313 1.427 . S
C1306 H1297 0.930 . S
C1306 C1304 1.378 . S
C1306 C1307 1.367 . S
C1307 C1306 1.367 . S
C1307 C1309 1.433 . S
C1308 C1304 1.350 . S
C1308 C1305 1.463 . S
C1308 N1312 1.427 . S
C1309 H1299 0.929 . S
C1309 C1307 1.433 . S
C1309 N1312 1.384 . S
C1310 H1301 0.929 . S
C1310 C1302 1.378 . S
C1310 C1305 1.350 . S
C1311 H1298 0.929 . S
C1311 C1303 1.433 . S
C1311 N1313 1.384 . S
N1312 C1308 1.427 . S
N1312 C1309 1.384 . S
N1313 C1305 1.427 . S
N1313 C1311 1.384 . S
H1314 C1320 0.930 . S
H1315 C1324 0.930 . S
H1316 C1329 0.929 . S
H1317 C1327 0.929 . S
H1318 C1322 0.929 . S
H1319 C1328 0.929 . S
C1320 H1314 0.930 . S
C1320 C1321 1.367 . S
C1320 C1328 1.378 . S
C1321 C1320 1.367 . S
C1321 C1329 1.433 . S
C1322 H1318 0.929 . S
C1322 C1324 1.378 . S
C1322 C1326 1.350 . S
C1323 C1326 1.463 . S
C1323 C1328 1.350 . S
C1323 N1331 1.427 . S
C1324 H1315 0.930 . S
C1324 C1322 1.378 . S
C1324 C1325 1.367 . S
C1325 C1324 1.367 . S
C1325 C1327 1.433 . S
C1326 C1322 1.350 . S
C1326 C1323 1.463 . S
C1326 N1330 1.427 . S
C1327 H1317 0.929 . S
C1327 C1325 1.433 . S
C1327 N1330 1.384 . S
C1328 H1319 0.929 . S
C1328 C1320 1.378 . S
C1328 C1323 1.350 . S
C1329 H1316 0.929 . S
C1329 C1321 1.433 . S
C1329 N1331 1.384 . S
N1330 C1326 1.427 . S
N1330 C1327 1.384 . S
N1331 C1323 1.427 . S
N1331 C1329 1.384 . S
H1332 C1338 0.930 . S
H1333 C1342 0.930 . S
H1334 C1347 0.929 . S
H1335 C1345 0.929 . S
H1336 C1340 0.929 . S
H1337 C1346 0.929 . S
C1338 H1332 0.930 . S
C1338 C1339 1.367 . S
C1338 C1346 1.378 . S
C1339 C1338 1.367 . S
C1339 C1347 1.433 . S
C1340 H1336 0.929 . S
C1340 C1342 1.378 . S
C1340 C1344 1.350 . S
C1341 C1344 1.463 . S
C1341 C1346 1.350 . S
C1341 N1349 1.427 . S
C1342 H1333 0.930 . S
C1342 C1340 1.378 . S
C1342 C1343 1.367 . S
C1343 C1342 1.367 . S
C1343 C1345 1.433 . S
C1344 C1340 1.350 . S
C1344 C1341 1.463 . S
C1344 N1348 1.427 . S
C1345 H1335 0.929 . S
C1345 C1343 1.433 . S
C1345 N1348 1.384 . S
C1346 H1337 0.929 . S
C1346 C1338 1.378 . S
C1346 C1341 1.350 . S
C1347 H1334 0.929 . S
C1347 C1339 1.433 . S
C1347 N1349 1.384 . S
N1348 C1344 1.427 . S
N1348 C1345 1.384 . S
N1349 C1341 1.427 . S
N1349 C1347 1.384 . S
H1350 C1356 0.930 . S
H1351 C1360 0.930 . S
H1352 C1365 0.929 . S
H1353 C1363 0.929 . S
H1354 C1358 0.929 . S
H1355 C1364 0.929 . S
C1356 H1350 0.930 . S
C1356 C1357 1.367 . S
C1356 C1364 1.378 . S
C1357 C1356 1.367 . S
C1357 C1365 1.433 . S
C1358 H1354 0.929 . S
C1358 C1360 1.378 . S
C1358 C1362 1.350 . S
C1359 C1362 1.463 . S
C1359 C1364 1.350 . S
C1359 N1367 1.427 . S
C1360 H1351 0.930 . S
C1360 C1358 1.378 . S
C1360 C1361 1.367 . S
C1361 C1360 1.367 . S
C1361 C1363 1.433 . S
C1362 C1358 1.350 . S
C1362 C1359 1.463 . S
C1362 N1366 1.427 . S
C1363 H1353 0.929 . S
C1363 C1361 1.433 . S
C1363 N1366 1.384 . S
C1364 H1355 0.929 . S
C1364 C1356 1.378 . S
C1364 C1359 1.350 . S
C1365 H1352 0.929 . S
C1365 C1357 1.433 . S
C1365 N1367 1.384 . S
N1366 C1362 1.427 . S
N1366 C1363 1.384 . S
N1367 C1359 1.427 . S
N1367 C1365 1.384 . S
H1368 C1374 0.930 . S
H1369 C1378 0.930 . S
H1370 C1383 0.929 . S
H1371 C1381 0.929 . S
H1372 C1376 0.929 . S
H1373 C1382 0.929 . S
C1374 H1368 0.930 . S
C1374 C1375 1.367 . S
C1374 C1382 1.378 1_565 S
C1375 C1374 1.367 . S
C1375 C1383 1.433 . S
C1376 H1372 0.929 . S
C1376 C1378 1.378 . S
C1376 C1380 1.350 . S
C1377 C1380 1.463 . S
C1377 C1382 1.350 . S
C1377 N1385 1.427 . S
C1378 H1369 0.930 . S
C1378 C1376 1.378 . S
C1378 C1379 1.367 . S
C1379 C1378 1.367 . S
C1379 C1381 1.433 . S
C1380 C1376 1.350 . S
C1380 C1377 1.463 . S
C1380 N1384 1.427 . S
C1381 H1371 0.929 . S
C1381 C1379 1.433 . S
C1381 N1384 1.384 . S
C1382 H1373 0.929 . S
C1382 C1374 1.378 1_545 S
C1382 C1377 1.350 . S
C1383 H1370 0.929 . S
C1383 C1375 1.433 . S
C1383 N1385 1.384 1_565 S
N1384 C1380 1.427 . S
N1384 C1381 1.384 . S
N1385 C1377 1.427 . S
N1385 C1383 1.384 1_545 S
H1386 C1392 0.930 . S
H1387 C1396 0.930 . S
H1388 C1401 0.929 . S
H1389 C1399 0.929 . S
H1390 C1394 0.929 . S
H1391 C1400 0.929 . S
C1392 H1386 0.930 . S
C1392 C1393 1.367 . S
C1392 C1400 1.378 1_455 S
C1393 C1392 1.367 . S
C1393 C1401 1.433 . S
C1394 H1390 0.929 . S
C1394 C1396 1.378 . S
C1394 C1398 1.350 . S
C1395 C1398 1.463 . S
C1395 C1400 1.350 . S
C1395 N1403 1.427 . S
C1396 H1387 0.930 . S
C1396 C1394 1.378 . S
C1396 C1397 1.367 . S
C1397 C1396 1.367 . S
C1397 C1399 1.433 . S
C1398 C1394 1.350 . S
C1398 C1395 1.463 . S
C1398 N1402 1.427 . S
C1399 H1389 0.929 . S
C1399 C1397 1.433 . S
C1399 N1402 1.384 . S
C1400 H1391 0.929 . S
C1400 C1392 1.378 1_655 S
C1400 C1395 1.350 . S
C1401 H1388 0.929 . S
C1401 C1393 1.433 . S
C1401 N1403 1.384 1_455 S
N1402 C1398 1.427 . S
N1402 C1399 1.384 . S
N1403 C1395 1.427 . S
N1403 C1401 1.384 1_655 S
H1404 C1410 0.930 . S
H1405 C1414 0.930 . S
H1406 C1419 0.929 . S
H1407 C1417 0.929 . S
H1408 C1412 0.929 . S
H1409 C1418 0.929 . S
C1410 H1404 0.930 . S
C1410 C1411 1.367 . S
C1410 C1418 1.378 . S
C1411 C1410 1.367 . S
C1411 C1419 1.433 . S
C1412 H1408 0.929 . S
C1412 C1414 1.378 . S
C1412 C1416 1.350 . S
C1413 C1416 1.463 . S
C1413 C1418 1.350 . S
C1413 N1421 1.427 . S
C1414 H1405 0.930 . S
C1414 C1412 1.378 . S
C1414 C1415 1.367 . S
C1415 C1414 1.367 . S
C1415 C1417 1.433 . S
C1416 C1412 1.350 . S
C1416 C1413 1.463 . S
C1416 N1420 1.427 . S
C1417 H1407 0.929 . S
C1417 C1415 1.433 . S
C1417 N1420 1.384 . S
C1418 H1409 0.929 . S
C1418 C1410 1.378 . S
C1418 C1413 1.350 . S
C1419 H1406 0.929 . S
C1419 C1411 1.433 . S
C1419 N1421 1.384 . S
N1420 C1416 1.427 . S
N1420 C1417 1.384 . S
N1421 C1413 1.427 . S
N1421 C1419 1.384 . S
H1422 C1428 0.930 . S
H1423 C1432 0.930 . S
H1424 C1437 0.929 . S
H1425 C1435 0.929 . S
H1426 C1430 0.929 . S
H1427 C1436 0.929 . S
C1428 H1422 0.930 . S
C1428 C1429 1.367 . S
C1428 C1436 1.378 1_455 S
C1429 C1428 1.367 . S
C1429 C1437 1.433 . S
C1430 H1426 0.929 . S
C1430 C1432 1.378 . S
C1430 C1434 1.350 . S
C1431 C1434 1.463 . S
C1431 C1436 1.350 . S
C1431 N1439 1.427 . S
C1432 H1423 0.930 . S
C1432 C1430 1.378 . S
C1432 C1433 1.367 . S
C1433 C1432 1.367 . S
C1433 C1435 1.433 . S
C1434 C1430 1.350 . S
C1434 C1431 1.463 . S
C1434 N1438 1.427 . S
C1435 H1425 0.929 . S
C1435 C1433 1.433 . S
C1435 N1438 1.384 . S
C1436 H1427 0.929 . S
C1436 C1428 1.378 1_655 S
C1436 C1431 1.350 . S
C1437 H1424 0.929 . S
C1437 C1429 1.433 . S
C1437 N1439 1.384 1_455 S
N1438 C1434 1.427 . S
N1438 C1435 1.384 . S
N1439 C1431 1.427 . S
N1439 C1437 1.384 1_655 S
H1440 C1446 0.930 . S
H1441 C1450 0.930 . S
H1442 C1455 0.929 . S
H1443 C1453 0.929 . S
H1444 C1448 0.929 . S
H1445 C1454 0.929 . S
C1446 H1440 0.930 . S
C1446 C1447 1.367 . S
C1446 C1454 1.378 . S
C1447 C1446 1.367 . S
C1447 C1455 1.433 . S
C1448 H1444 0.929 . S
C1448 C1450 1.378 . S
C1448 C1452 1.350 . S
C1449 C1452 1.463 . S
C1449 C1454 1.350 . S
C1449 N1457 1.427 . S
C1450 H1441 0.930 . S
C1450 C1448 1.378 . S
C1450 C1451 1.367 . S
C1451 C1450 1.367 . S
C1451 C1453 1.433 . S
C1452 C1448 1.350 . S
C1452 C1449 1.463 . S
C1452 N1456 1.427 . S
C1453 H1443 0.929 . S
C1453 C1451 1.433 . S
C1453 N1456 1.384 . S
C1454 H1445 0.929 . S
C1454 C1446 1.378 . S
C1454 C1449 1.350 . S
C1455 H1442 0.929 . S
C1455 C1447 1.433 . S
C1455 N1457 1.384 . S
N1456 C1452 1.427 . S
N1456 C1453 1.384 . S
N1457 C1449 1.427 . S
N1457 C1455 1.384 . S
H1458 C1464 0.930 . S
H1459 C1468 0.930 . S
H1460 C1473 0.929 . S
H1461 C1471 0.929 . S
H1462 C1466 0.929 . S
H1463 C1472 0.929 . S
C1464 H1458 0.930 . S
C1464 C1465 1.367 . S
C1464 C1472 1.378 1_565 S
C1465 C1464 1.367 . S
C1465 C1473 1.433 . S
C1466 H1462 0.929 . S
C1466 C1468 1.378 . S
C1466 C1470 1.350 . S
C1467 C1470 1.463 . S
C1467 C1472 1.350 . S
C1467 N1475 1.427 . S
C1468 H1459 0.930 . S
C1468 C1466 1.378 . S
C1468 C1469 1.367 . S
C1469 C1468 1.367 . S
C1469 C1471 1.433 . S
C1470 C1466 1.350 . S
C1470 C1467 1.463 . S
C1470 N1474 1.427 . S
C1471 H1461 0.929 . S
C1471 C1469 1.433 . S
C1471 N1474 1.384 . S
C1472 H1463 0.929 . S
C1472 C1464 1.378 1_545 S
C1472 C1467 1.350 . S
C1473 H1460 0.929 . S
C1473 C1465 1.433 . S
C1473 N1475 1.384 1_565 S
N1474 C1470 1.427 . S
N1474 C1471 1.384 . S
N1475 C1467 1.427 . S
N1475 C1473 1.384 1_545 S
H1476 C1482 0.930 . S
H1477 C1486 0.930 . S
H1478 C1491 0.929 . S
H1479 C1489 0.929 . S
H1480 C1484 0.929 . S
H1481 C1490 0.929 . S
C1482 H1476 0.930 . S
C1482 C1483 1.367 . S
C1482 C1490 1.378 . S
C1483 C1482 1.367 . S
C1483 C1491 1.433 . S
C1484 H1480 0.929 . S
C1484 C1486 1.378 . S
C1484 C1488 1.350 . S
C1485 C1488 1.463 . S
C1485 C1490 1.350 . S
C1485 N1493 1.427 . S
C1486 H1477 0.930 . S
C1486 C1484 1.378 . S
C1486 C1487 1.367 . S
C1487 C1486 1.367 . S
C1487 C1489 1.433 . S
C1488 C1484 1.350 . S
C1488 C1485 1.463 . S
C1488 N1492 1.427 . S
C1489 H1479 0.929 . S
C1489 C1487 1.433 . S
C1489 N1492 1.384 . S
C1490 H1481 0.929 . S
C1490 C1482 1.378 . S
C1490 C1485 1.350 . S
C1491 H1478 0.929 . S
C1491 C1483 1.433 . S
C1491 N1493 1.384 . S
N1492 C1488 1.427 . S
N1492 C1489 1.384 . S
N1493 C1485 1.427 . S
N1493 C1491 1.384 . S
H1494 C1500 0.930 . S
H1495 C1504 0.930 . S
H1496 C1509 0.929 . S
H1497 C1507 0.929 . S
H1498 C1502 0.929 . S
H1499 C1508 0.929 . S
C1500 H1494 0.930 . S
C1500 C1501 1.367 . S
C1500 C1508 1.378 . S
C1501 C1500 1.367 . S
C1501 C1509 1.433 . S
C1502 H1498 0.929 . S
C1502 C1504 1.378 . S
C1502 C1506 1.350 . S
C1503 C1506 1.463 . S
C1503 C1508 1.350 . S
C1503 N1511 1.427 . S
C1504 H1495 0.930 . S
C1504 C1502 1.378 . S
C1504 C1505 1.367 . S
C1505 C1504 1.367 . S
C1505 C1507 1.433 . S
C1506 C1502 1.350 . S
C1506 C1503 1.463 . S
C1506 N1510 1.427 . S
C1507 H1497 0.929 . S
C1507 C1505 1.433 . S
C1507 N1510 1.384 . S
C1508 H1499 0.929 . S
C1508 C1500 1.378 . S
C1508 C1503 1.350 . S
C1509 H1496 0.929 . S
C1509 C1501 1.433 . S
C1509 N1511 1.384 . S
N1510 C1506 1.427 . S
N1510 C1507 1.384 . S
N1511 C1503 1.427 . S
N1511 C1509 1.384 . S
H1512 C1518 0.930 . S
H1513 C1522 0.930 . S
H1514 C1527 0.929 . S
H1515 C1525 0.929 . S
H1516 C1520 0.929 . S
H1517 C1526 0.929 . S
C1518 H1512 0.930 . S
C1518 C1519 1.367 . S
C1518 C1526 1.378 . S
C1519 C1518 1.367 . S
C1519 C1527 1.433 . S
C1520 H1516 0.929 . S
C1520 C1522 1.378 . S
C1520 C1524 1.350 . S
C1521 C1524 1.463 . S
C1521 C1526 1.350 . S
C1521 N1529 1.427 . S
C1522 H1513 0.930 . S
C1522 C1520 1.378 . S
C1522 C1523 1.367 . S
C1523 C1522 1.367 . S
C1523 C1525 1.433 . S
C1524 C1520 1.350 . S
C1524 C1521 1.463 . S
C1524 N1528 1.427 . S
C1525 H1515 0.929 . S
C1525 C1523 1.433 . S
C1525 N1528 1.384 . S
C1526 H1517 0.929 . S
C1526 C1518 1.378 . S
C1526 C1521 1.350 . S
C1527 H1514 0.929 . S
C1527 C1519 1.433 . S
C1527 N1529 1.384 . S
N1528 C1524 1.427 . S
N1528 C1525 1.384 . S
N1529 C1521 1.427 . S
N1529 C1527 1.384 . S
H1530 C1536 0.930 . S
H1531 C1540 0.930 . S
H1532 C1545 0.929 . S
H1533 C1543 0.929 . S
H1534 C1538 0.929 . S
H1535 C1544 0.929 1_545 S
C1536 H1530 0.930 . S
C1536 C1537 1.367 . S
C1536 C1544 1.378 . S
C1537 C1536 1.367 . S
C1537 C1545 1.433 . S
C1538 H1534 0.929 . S
C1538 C1540 1.378 . S
C1538 C1542 1.350 . S
C1539 C1542 1.463 . S
C1539 C1544 1.350 . S
C1539 N1547 1.427 . S
C1540 H1531 0.930 . S
C1540 C1538 1.378 . S
C1540 C1541 1.367 . S
C1541 C1540 1.367 . S
C1541 C1543 1.433 1_565 S
C1542 C1538 1.350 . S
C1542 C1539 1.463 . S
C1542 N1546 1.427 1_565 S
C1543 H1533 0.929 . S
C1543 C1541 1.433 1_545 S
C1543 N1546 1.384 . S
C1544 H1535 0.929 1_565 S
C1544 C1536 1.378 . S
C1544 C1539 1.350 . S
C1545 H1532 0.929 . S
C1545 C1537 1.433 . S
C1545 N1547 1.384 . S
N1546 C1542 1.427 1_545 S
N1546 C1543 1.384 . S
N1547 C1539 1.427 . S
N1547 C1545 1.384 . S
H1548 C1554 0.930 . S
H1549 C1558 0.930 1_655 S
H1550 C1563 0.929 . S
H1551 C1561 0.929 . S
H1552 C1556 0.929 1_655 S
H1553 C1562 0.929 . S
C1554 H1548 0.930 . S
C1554 C1555 1.367 . S
C1554 C1562 1.378 . S
C1555 C1554 1.367 . S
C1555 C1563 1.433 . S
C1556 H1552 0.929 1_455 S
C1556 C1558 1.378 . S
C1556 C1560 1.350 . S
C1557 C1560 1.463 . S
C1557 C1562 1.350 . S
C1557 N1565 1.427 . S
C1558 H1549 0.930 1_455 S
C1558 C1556 1.378 . S
C1558 C1559 1.367 . S
C1559 C1558 1.367 . S
C1559 C1561 1.433 . S
C1560 C1556 1.350 . S
C1560 C1557 1.463 . S
C1560 N1564 1.427 . S
C1561 H1551 0.929 . S
C1561 C1559 1.433 . S
C1561 N1564 1.384 . S
C1562 H1553 0.929 . S
C1562 C1554 1.378 . S
C1562 C1557 1.350 . S
C1563 H1550 0.929 . S
C1563 C1555 1.433 . S
C1563 N1565 1.384 . S
N1564 C1560 1.427 . S
N1564 C1561 1.384 . S
N1565 C1557 1.427 . S
N1565 C1563 1.384 . S
H1566 C1572 0.930 . S
H1567 C1576 0.930 . S
H1568 C1581 0.929 . S
H1569 C1579 0.929 . S
H1570 C1574 0.929 . S
H1571 C1580 0.929 . S
C1572 H1566 0.930 . S
C1572 C1573 1.367 . S
C1572 C1580 1.378 . S
C1573 C1572 1.367 . S
C1573 C1581 1.433 . S
C1574 H1570 0.929 . S
C1574 C1576 1.378 . S
C1574 C1578 1.350 . S
C1575 C1578 1.463 . S
C1575 C1580 1.350 . S
C1575 N1583 1.427 . S
C1576 H1567 0.930 . S
C1576 C1574 1.378 . S
C1576 C1577 1.367 . S
C1577 C1576 1.367 . S
C1577 C1579 1.433 . S
C1578 C1574 1.350 . S
C1578 C1575 1.463 . S
C1578 N1582 1.427 . S
C1579 H1569 0.929 . S
C1579 C1577 1.433 . S
C1579 N1582 1.384 . S
C1580 H1571 0.929 . S
C1580 C1572 1.378 . S
C1580 C1575 1.350 . S
C1581 H1568 0.929 . S
C1581 C1573 1.433 . S
C1581 N1583 1.384 . S
N1582 C1578 1.427 . S
N1582 C1579 1.384 . S
N1583 C1575 1.427 . S
N1583 C1581 1.384 . S
H1584 C1590 0.930 . S
H1585 C1594 0.930 . S
H1586 C1599 0.929 . S
H1587 C1597 0.929 . S
H1588 C1592 0.929 . S
H1589 C1598 0.929 . S
C1590 H1584 0.930 . S
C1590 C1591 1.367 . S
C1590 C1598 1.378 . S
C1591 C1590 1.367 . S
C1591 C1599 1.433 . S
C1592 H1588 0.929 . S
C1592 C1594 1.378 . S
C1592 C1596 1.350 . S
C1593 C1596 1.463 . S
C1593 C1598 1.350 . S
C1593 N1601 1.427 . S
C1594 H1585 0.930 . S
C1594 C1592 1.378 . S
C1594 C1595 1.367 . S
C1595 C1594 1.367 . S
C1595 C1597 1.433 . S
C1596 C1592 1.350 . S
C1596 C1593 1.463 . S
C1596 N1600 1.427 . S
C1597 H1587 0.929 . S
C1597 C1595 1.433 . S
C1597 N1600 1.384 . S
C1598 H1589 0.929 . S
C1598 C1590 1.378 . S
C1598 C1593 1.350 . S
C1599 H1586 0.929 . S
C1599 C1591 1.433 . S
C1599 N1601 1.384 . S
N1600 C1596 1.427 . S
N1600 C1597 1.384 . S
N1601 C1593 1.427 . S
N1601 C1599 1.384 . S
H1602 C1608 0.930 . S
H1603 C1612 0.930 . S
H1604 C1617 0.929 . S
H1605 C1615 0.929 . S
H1606 C1610 0.929 . S
H1607 C1616 0.929 . S
C1608 H1602 0.930 . S
C1608 C1609 1.367 . S
C1608 C1616 1.378 . S
C1609 C1608 1.367 . S
C1609 C1617 1.433 . S
C1610 H1606 0.929 . S
C1610 C1612 1.378 . S
C1610 C1614 1.350 . S
C1611 C1614 1.463 . S
C1611 C1616 1.350 . S
C1611 N1619 1.427 . S
C1612 H1603 0.930 . S
C1612 C1610 1.378 . S
C1612 C1613 1.367 . S
C1613 C1612 1.367 . S
C1613 C1615 1.433 . S
C1614 C1610 1.350 . S
C1614 C1611 1.463 . S
C1614 N1618 1.427 . S
C1615 H1605 0.929 . S
C1615 C1613 1.433 . S
C1615 N1618 1.384 . S
C1616 H1607 0.929 . S
C1616 C1608 1.378 . S
C1616 C1611 1.350 . S
C1617 H1604 0.929 . S
C1617 C1609 1.433 . S
C1617 N1619 1.384 . S
N1618 C1614 1.427 . S
N1618 C1615 1.384 . S
N1619 C1611 1.427 . S
N1619 C1617 1.384 . S
H1620 C1626 0.930 . S
H1621 C1630 0.930 . S
H1622 C1635 0.929 . S
H1623 C1633 0.929 . S
H1624 C1628 0.929 . S
H1625 C1634 0.929 1_565 S
C1626 H1620 0.930 . S
C1626 C1627 1.367 . S
C1626 C1634 1.378 . S
C1627 C1626 1.367 . S
C1627 C1635 1.433 . S
C1628 H1624 0.929 . S
C1628 C1630 1.378 . S
C1628 C1632 1.350 . S
C1629 C1632 1.463 . S
C1629 C1634 1.350 . S
C1629 N1637 1.427 . S
C1630 H1621 0.930 . S
C1630 C1628 1.378 . S
C1630 C1631 1.367 . S
C1631 C1630 1.367 . S
C1631 C1633 1.433 1_545 S
C1632 C1628 1.350 . S
C1632 C1629 1.463 . S
C1632 N1636 1.427 1_545 S
C1633 H1623 0.929 . S
C1633 C1631 1.433 1_565 S
C1633 N1636 1.384 . S
C1634 H1625 0.929 1_545 S
C1634 C1626 1.378 . S
C1634 C1629 1.350 . S
C1635 H1622 0.929 . S
C1635 C1627 1.433 . S
C1635 N1637 1.384 . S
N1636 C1632 1.427 1_565 S
N1636 C1633 1.384 . S
N1637 C1629 1.427 . S
N1637 C1635 1.384 . S
H1638 C1644 0.930 . S
H1639 C1648 0.930 . S
H1640 C1653 0.929 . S
H1641 C1651 0.929 . S
H1642 C1646 0.929 . S
H1643 C1652 0.929 . S
C1644 H1638 0.930 . S
C1644 C1645 1.367 . S
C1644 C1652 1.378 . S
C1645 C1644 1.367 . S
C1645 C1653 1.433 . S
C1646 H1642 0.929 . S
C1646 C1648 1.378 . S
C1646 C1650 1.350 . S
C1647 C1650 1.463 . S
C1647 C1652 1.350 . S
C1647 N1655 1.427 . S
C1648 H1639 0.930 . S
C1648 C1646 1.378 . S
C1648 C1649 1.367 . S
C1649 C1648 1.367 . S
C1649 C1651 1.433 . S
C1650 C1646 1.350 . S
C1650 C1647 1.463 . S
C1650 N1654 1.427 . S
C1651 H1641 0.929 . S
C1651 C1649 1.433 . S
C1651 N1654 1.384 . S
C1652 H1643 0.929 . S
C1652 C1644 1.378 . S
C1652 C1647 1.350 . S
C1653 H1640 0.929 . S
C1653 C1645 1.433 . S
C1653 N1655 1.384 . S
N1654 C1650 1.427 . S
N1654 C1651 1.384 . S
N1655 C1647 1.427 . S
N1655 C1653 1.384 . S
H1656 C1662 0.930 . S
H1657 C1666 0.930 . S
H1658 C1671 0.929 . S
H1659 C1669 0.929 . S
H1660 C1664 0.929 . S
H1661 C1670 0.929 . S
C1662 H1656 0.930 . S
C1662 C1663 1.367 . S
C1662 C1670 1.378 . S
C1663 C1662 1.367 . S
C1663 C1671 1.433 . S
C1664 H1660 0.929 . S
C1664 C1666 1.378 . S
C1664 C1668 1.350 . S
C1665 C1668 1.463 . S
C1665 C1670 1.350 . S
C1665 N1673 1.427 . S
C1666 H1657 0.930 . S
C1666 C1664 1.378 . S
C1666 C1667 1.367 . S
C1667 C1666 1.367 . S
C1667 C1669 1.433 . S
C1668 C1664 1.350 . S
C1668 C1665 1.463 . S
C1668 N1672 1.427 . S
C1669 H1659 0.929 . S
C1669 C1667 1.433 . S
C1669 N1672 1.384 . S
C1670 H1661 0.929 . S
C1670 C1662 1.378 . S
C1670 C1665 1.350 . S
C1671 H1658 0.929 . S
C1671 C1663 1.433 . S
C1671 N1673 1.384 . S
N1672 C1668 1.427 . S
N1672 C1669 1.384 . S
N1673 C1665 1.427 . S
N1673 C1671 1.384 . S
H1674 C1680 0.930 . S
H1675 C1684 0.930 . S
H1676 C1689 0.929 . S
H1677 C1687 0.929 . S
H1678 C1682 0.929 . S
H1679 C1688 0.929 . S
C1680 H1674 0.930 . S
C1680 C1681 1.367 . S
C1680 C1688 1.378 . S
C1681 C1680 1.367 . S
C1681 C1689 1.433 . S
C1682 H1678 0.929 . S
C1682 C1684 1.378 . S
C1682 C1686 1.350 . S
C1683 C1686 1.463 . S
C1683 C1688 1.350 . S
C1683 N1691 1.427 . S
C1684 H1675 0.930 . S
C1684 C1682 1.378 . S
C1684 C1685 1.367 . S
C1685 C1684 1.367 . S
C1685 C1687 1.433 . S
C1686 C1682 1.350 . S
C1686 C1683 1.463 . S
C1686 N1690 1.427 . S
C1687 H1677 0.929 . S
C1687 C1685 1.433 . S
C1687 N1690 1.384 . S
C1688 H1679 0.929 . S
C1688 C1680 1.378 . S
C1688 C1683 1.350 . S
C1689 H1676 0.929 . S
C1689 C1681 1.433 . S
C1689 N1691 1.384 . S
N1690 C1686 1.427 . S
N1690 C1687 1.384 . S
N1691 C1683 1.427 . S
N1691 C1689 1.384 . S
H1692 C1698 0.930 . S
H1693 C1702 0.930 . S
H1694 C1707 0.929 . S
H1695 C1705 0.929 . S
H1696 C1700 0.929 . S
H1697 C1706 0.929 . S
C1698 H1692 0.930 . S
C1698 C1699 1.367 . S
C1698 C1706 1.378 . S
C1699 C1698 1.367 . S
C1699 C1707 1.433 . S
C1700 H1696 0.929 . S
C1700 C1702 1.378 . S
C1700 C1704 1.350 . S
C1701 C1704 1.463 . S
C1701 C1706 1.350 . S
C1701 N1709 1.427 . S
C1702 H1693 0.930 . S
C1702 C1700 1.378 . S
C1702 C1703 1.367 . S
C1703 C1702 1.367 . S
C1703 C1705 1.433 . S
C1704 C1700 1.350 . S
C1704 C1701 1.463 . S
C1704 N1708 1.427 . S
C1705 H1695 0.929 . S
C1705 C1703 1.433 . S
C1705 N1708 1.384 . S
C1706 H1697 0.929 . S
C1706 C1698 1.378 . S
C1706 C1701 1.350 . S
C1707 H1694 0.929 . S
C1707 C1699 1.433 . S
C1707 N1709 1.384 . S
N1708 C1704 1.427 . S
N1708 C1705 1.384 . S
N1709 C1701 1.427 . S
N1709 C1707 1.384 . S
H1710 C1716 0.930 . S
H1711 C1720 0.930 . S
H1712 C1725 0.929 . S
H1713 C1723 0.929 . S
H1714 C1718 0.929 . S
H1715 C1724 0.929 . S
C1716 H1710 0.930 . S
C1716 C1717 1.367 . S
C1716 C1724 1.378 . S
C1717 C1716 1.367 . S
C1717 C1725 1.433 . S
C1718 H1714 0.929 . S
C1718 C1720 1.378 . S
C1718 C1722 1.350 . S
C1719 C1722 1.463 . S
C1719 C1724 1.350 . S
C1719 N1727 1.427 . S
C1720 H1711 0.930 . S
C1720 C1718 1.378 . S
C1720 C1721 1.367 . S
C1721 C1720 1.367 . S
C1721 C1723 1.433 . S
C1722 C1718 1.350 . S
C1722 C1719 1.463 . S
C1722 N1726 1.427 . S
C1723 H1713 0.929 . S
C1723 C1721 1.433 . S
C1723 N1726 1.384 . S
C1724 H1715 0.929 . S
C1724 C1716 1.378 . S
C1724 C1719 1.350 . S
C1725 H1712 0.929 . S
C1725 C1717 1.433 . S
C1725 N1727 1.384 . S
N1726 C1722 1.427 . S
N1726 C1723 1.384 . S
N1727 C1719 1.427 . S
N1727 C1725 1.384 . S
H1728 C1734 0.930 . S
H1729 C1738 0.930 . S
H1730 C1743 0.929 . S
H1731 C1741 0.929 . S
H1732 C1736 0.929 . S
H1733 C1742 0.929 . S
C1734 H1728 0.930 . S
C1734 C1735 1.367 . S
C1734 C1742 1.378 . S
C1735 C1734 1.367 . S
C1735 C1743 1.433 . S
C1736 H1732 0.929 . S
C1736 C1738 1.378 . S
C1736 C1740 1.350 . S
C1737 C1740 1.463 . S
C1737 C1742 1.350 . S
C1737 N1745 1.427 . S
C1738 H1729 0.930 . S
C1738 C1736 1.378 . S
C1738 C1739 1.367 . S
C1739 C1738 1.367 . S
C1739 C1741 1.433 . S
C1740 C1736 1.350 . S
C1740 C1737 1.463 . S
C1740 N1744 1.427 . S
C1741 H1731 0.929 . S
C1741 C1739 1.433 . S
C1741 N1744 1.384 . S
C1742 H1733 0.929 . S
C1742 C1734 1.378 . S
C1742 C1737 1.350 . S
C1743 H1730 0.929 . S
C1743 C1735 1.433 . S
C1743 N1745 1.384 . S
N1744 C1740 1.427 . S
N1744 C1741 1.384 . S
N1745 C1737 1.427 . S
N1745 C1743 1.384 . S
H1746 C1752 0.930 . S
H1747 C1756 0.930 . S
H1748 C1761 0.929 . S
H1749 C1759 0.929 . S
H1750 C1754 0.929 . S
H1751 C1760 0.929 . S
C1752 H1746 0.930 . S
C1752 C1753 1.367 . S
C1752 C1760 1.378 . S
C1753 C1752 1.367 . S
C1753 C1761 1.433 . S
C1754 H1750 0.929 . S
C1754 C1756 1.378 . S
C1754 C1758 1.350 . S
C1755 C1758 1.463 . S
C1755 C1760 1.350 . S
C1755 N1763 1.427 . S
C1756 H1747 0.930 . S
C1756 C1754 1.378 . S
C1756 C1757 1.367 . S
C1757 C1756 1.367 . S
C1757 C1759 1.433 . S
C1758 C1754 1.350 . S
C1758 C1755 1.463 . S
C1758 N1762 1.427 . S
C1759 H1749 0.929 . S
C1759 C1757 1.433 . S
C1759 N1762 1.384 . S
C1760 H1751 0.929 . S
C1760 C1752 1.378 . S
C1760 C1755 1.350 . S
C1761 H1748 0.929 . S
C1761 C1753 1.433 . S
C1761 N1763 1.384 . S
N1762 C1758 1.427 . S
N1762 C1759 1.384 . S
N1763 C1755 1.427 . S
N1763 C1761 1.384 . S
H1764 C1770 0.930 . S
H1765 C1774 0.930 . S
H1766 C1779 0.929 . S
H1767 C1777 0.929 . S
H1768 C1772 0.929 . S
H1769 C1778 0.929 . S
C1770 H1764 0.930 . S
C1770 C1771 1.367 . S
C1770 C1778 1.378 . S
C1771 C1770 1.367 . S
C1771 C1779 1.433 . S
C1772 H1768 0.929 . S
C1772 C1774 1.378 . S
C1772 C1776 1.350 . S
C1773 C1776 1.463 . S
C1773 C1778 1.350 . S
C1773 N1781 1.427 . S
C1774 H1765 0.930 . S
C1774 C1772 1.378 . S
C1774 C1775 1.367 . S
C1775 C1774 1.367 . S
C1775 C1777 1.433 . S
C1776 C1772 1.350 . S
C1776 C1773 1.463 . S
C1776 N1780 1.427 . S
C1777 H1767 0.929 . S
C1777 C1775 1.433 . S
C1777 N1780 1.384 . S
C1778 H1769 0.929 . S
C1778 C1770 1.378 . S
C1778 C1773 1.350 . S
C1779 H1766 0.929 . S
C1779 C1771 1.433 . S
C1779 N1781 1.384 . S
N1780 C1776 1.427 . S
N1780 C1777 1.384 . S
N1781 C1773 1.427 . S
N1781 C1779 1.384 . S
H1782 C1788 0.930 . S
H1783 C1792 0.930 . S
H1784 C1797 0.929 . S
H1785 C1795 0.929 . S
H1786 C1790 0.929 . S
H1787 C1796 0.929 . S
C1788 H1782 0.930 . S
C1788 C1789 1.367 . S
C1788 C1796 1.378 . S
C1789 C1788 1.367 . S
C1789 C1797 1.433 . S
C1790 H1786 0.929 . S
C1790 C1792 1.378 . S
C1790 C1794 1.350 . S
C1791 C1794 1.463 . S
C1791 C1796 1.350 . S
C1791 N1799 1.427 . S
C1792 H1783 0.930 . S
C1792 C1790 1.378 . S
C1792 C1793 1.367 . S
C1793 C1792 1.367 . S
C1793 C1795 1.433 . S
C1794 C1790 1.350 . S
C1794 C1791 1.463 . S
C1794 N1798 1.427 . S
C1795 H1785 0.929 . S
C1795 C1793 1.433 . S
C1795 N1798 1.384 . S
C1796 H1787 0.929 . S
C1796 C1788 1.378 . S
C1796 C1791 1.350 . S
C1797 H1784 0.929 . S
C1797 C1789 1.433 . S
C1797 N1799 1.384 . S
N1798 C1794 1.427 . S
N1798 C1795 1.384 . S
N1799 C1791 1.427 . S
N1799 C1797 1.384 . S
H1800 C1806 0.930 . S
H1801 C1810 0.930 . S
H1802 C1815 0.929 . S
H1803 C1813 0.929 . S
H1804 C1808 0.929 . S
H1805 C1814 0.929 . S
C1806 H1800 0.930 . S
C1806 C1807 1.367 . S
C1806 C1814 1.378 . S
C1807 C1806 1.367 . S
C1807 C1815 1.433 . S
C1808 H1804 0.929 . S
C1808 C1810 1.378 . S
C1808 C1812 1.350 . S
C1809 C1812 1.463 . S
C1809 C1814 1.350 . S
C1809 N1817 1.427 . S
C1810 H1801 0.930 . S
C1810 C1808 1.378 . S
C1810 C1811 1.367 . S
C1811 C1810 1.367 . S
C1811 C1813 1.433 . S
C1812 C1808 1.350 . S
C1812 C1809 1.463 . S
C1812 N1816 1.427 . S
C1813 H1803 0.929 . S
C1813 C1811 1.433 . S
C1813 N1816 1.384 . S
C1814 H1805 0.929 . S
C1814 C1806 1.378 . S
C1814 C1809 1.350 . S
C1815 H1802 0.929 . S
C1815 C1807 1.433 . S
C1815 N1817 1.384 . S
N1816 C1812 1.427 . S
N1816 C1813 1.384 . S
N1817 C1809 1.427 . S
N1817 C1815 1.384 . S
H1818 C1824 0.930 . S
H1819 C1828 0.930 . S
H1820 C1833 0.929 . S
H1821 C1831 0.929 . S
H1822 C1826 0.929 . S
H1823 C1832 0.929 . S
C1824 H1818 0.930 . S
C1824 C1825 1.367 . S
C1824 C1832 1.378 . S
C1825 C1824 1.367 . S
C1825 C1833 1.433 . S
C1826 H1822 0.929 . S
C1826 C1828 1.378 . S
C1826 C1830 1.350 . S
C1827 C1830 1.463 . S
C1827 C1832 1.350 . S
C1827 N1835 1.427 . S
C1828 H1819 0.930 . S
C1828 C1826 1.378 . S
C1828 C1829 1.367 . S
C1829 C1828 1.367 . S
C1829 C1831 1.433 . S
C1830 C1826 1.350 . S
C1830 C1827 1.463 . S
C1830 N1834 1.427 . S
C1831 H1821 0.929 . S
C1831 C1829 1.433 . S
C1831 N1834 1.384 . S
C1832 H1823 0.929 . S
C1832 C1824 1.378 . S
C1832 C1827 1.350 . S
C1833 H1820 0.929 . S
C1833 C1825 1.433 . S
C1833 N1835 1.384 . S
N1834 C1830 1.427 . S
N1834 C1831 1.384 . S
N1835 C1827 1.427 . S
N1835 C1833 1.384 . S
H1836 C1842 0.930 . S
H1837 C1846 0.930 . S
H1838 C1851 0.929 . S
H1839 C1849 0.929 . S
H1840 C1844 0.929 . S
H1841 C1850 0.929 . S
C1842 H1836 0.930 . S
C1842 C1843 1.367 . S
C1842 C1850 1.378 . S
C1843 C1842 1.367 . S
C1843 C1851 1.433 . S
C1844 H1840 0.929 . S
C1844 C1846 1.378 . S
C1844 C1848 1.350 . S
C1845 C1848 1.463 . S
C1845 C1850 1.350 . S
C1845 N1853 1.427 . S
C1846 H1837 0.930 . S
C1846 C1844 1.378 . S
C1846 C1847 1.367 . S
C1847 C1846 1.367 . S
C1847 C1849 1.433 . S
C1848 C1844 1.350 . S
C1848 C1845 1.463 . S
C1848 N1852 1.427 . S
C1849 H1839 0.929 . S
C1849 C1847 1.433 . S
C1849 N1852 1.384 . S
C1850 H1841 0.929 . S
C1850 C1842 1.378 . S
C1850 C1845 1.350 . S
C1851 H1838 0.929 . S
C1851 C1843 1.433 . S
C1851 N1853 1.384 . S
N1852 C1848 1.427 . S
N1852 C1849 1.384 . S
N1853 C1845 1.427 . S
N1853 C1851 1.384 . S
C889 C528 1.552 . S
C893 C708 1.533 . S
C907 C562 1.543 . S
C911 C728 1.515 . S
C925 C484 1.565 . S
C929 C751 1.560 . S
C943 C445 1.466 . S
C947 C731 1.460 . S
C965 C748 1.439 . S
C961 C367 1.459 . S
C979 C411 1.467 . S
C983 C711 1.460 . S
C1001 C718 1.549 . S
C997 C450 1.559 . S
C1019 C738 1.488 . S
C1015 C372 1.519 . S
C1033 C406 1.568 . S
C1037 C743 1.566 . S
C1051 C523 1.466 . S
C1055 C723 1.461 . S
C1069 C567 1.442 . S
C1073 C758 1.429 . S
C1091 C703 1.470 . S
C1087 C489 1.469 . S
C1109 C768 1.534 . S
C1105 C60 1.553 . S
C1123 C94 1.542 . S
C1127 C788 1.512 . S
C1141 C16 1.565 . S
C1145 C811 1.560 . S
C1159 C679 1.473 . S
C1163 C791 1.468 . S
C1177 C601 1.463 . S
C1181 C808 1.447 . S
C1195 C645 1.460 . S
C1199 C771 1.452 . S
C1213 C684 1.556 . S
C1217 C778 1.543 . S
C1231 C606 1.524 . S
C1235 C798 1.501 . S
C1253 C803 1.566 . S
C1249 C640 1.568 . S
C1267 C55 1.465 . S
C1271 C783 1.461 . S
C1289 C818 1.431 . S
C1285 C99 1.442 . S
C1303 C21 1.468 . S
C1307 C763 1.470 . S
C1325 C828 1.533 . S
C1321 C294 1.556 . S
C1339 C328 1.538 . S
C1343 C848 1.505 . S
C1361 C871 1.560 . S
C1357 C250 1.565 . S
C1379 C851 1.460 . S
C1375 C211 1.466 . S
C1397 C868 1.446 . S
C1393 C133 1.462 . S
C1411 C177 1.467 . S
C1415 C831 1.461 . S
C1429 C216 1.557 . S
C1433 C838 1.544 . S
C1447 C138 1.519 . S
C1451 C858 1.495 . S
C1469 C863 1.561 . S
C1465 C172 1.564 . S
C1483 C289 1.468 . S
C1487 C843 1.464 . S
C1501 C333 1.439 . S
C1505 C878 1.432 . S
C1519 C255 1.473 . S
C1523 C823 1.475 . S
C1537 C586 1.289 . S
C1541 C721 1.263 1_565 S
C1559 C741 1.606 . S
C1555 C625 1.669 . S
C1573 C664 1.500 . S
C1577 C750 1.460 . S
C1591 C235 1.682 . S
C1595 C730 1.615 1_655 S
C1609 C274 1.491 . S
C1613 C761 1.445 . S
C1631 C710 1.259 1_545 S
C1627 C313 1.285 . S
C1645 C118 1.285 . S
C1649 C781 1.251 . S
C1663 C157 1.668 . S
C1667 C801 1.602 . S
C1681 C196 1.503 . S
C1685 C810 1.458 . S
C1699 C469 1.683 . S
C1703 C790 1.627 . S
C1721 C821 1.437 . S
C1717 C508 1.488 . S
C1735 C547 1.286 . S
C1739 C770 1.260 . S
C1753 C352 1.285 . S
C1757 C841 1.251 . S
C1771 C391 1.668 . S
C1775 C861 1.600 . S
C1793 C870 1.457 . S
C1789 C430 1.503 . S
C1807 C1 1.684 . S
C1811 C850 1.628 . S
C1825 C40 1.491 . S
C1829 C881 1.445 . S
C1843 C79 1.286 . S
C1847 C830 1.258 . S
