# Generated by pormake.
# Topology apo, (3,6)-cn, num edge types: 1
# Building blocks:
#     Node 0, Type 0, BuildingBlock: MIDCAF_clean_linker_0, # of connection points: 3
#     Node 1, Type 0, BuildingBlock: MIDCAF_clean_linker_0, # of connection points: 3
#     Node 2, Type 0, BuildingBlock: MIDCAF_clean_linker_0, # of connection points: 3
#     Node 3, Type 0, BuildingBlock: MIDCAF_clean_linker_0, # of connection points: 3
#     Node 4, Type 0, BuildingBlock: MIDCAF_clean_linker_0, # of connection points: 3
#     Node 5, Type 0, BuildingBlock: MIDCAF_clean_linker_0, # of connection points: 3
#     Node 6, Type 0, BuildingBlock: MIDCAF_clean_linker_0, # of connection points: 3
#     Node 7, Type 0, BuildingBlock: MIDCAF_clean_linker_0, # of connection points: 3
#     Node 8, Type 1, BuildingBlock: KUMBOL_clean_sbu_1, # of connection points: 6
#     Node 9, Type 1, BuildingBlock: KUMBOL_clean_sbu_1, # of connection points: 6
#     Node 10, Type 1, BuildingBlock: KUMBOL_clean_sbu_1, # of connection points: 6
#     Node 11, Type 1, BuildingBlock: KUMBOL_clean_sbu_1, # of connection points: 6
#     Edge 12, Type (0, 1), BuildingBlock: ZUJKAS_clean_linker_0, # of connection points: 2
#     Edge 13, Type (0, 1), BuildingBlock: ZUJKAS_clean_linker_0, # of connection points: 2
#     Edge 14, Type (0, 1), BuildingBlock: ZUJKAS_clean_linker_0, # of connection points: 2
#     Edge 15, Type (0, 1), BuildingBlock: ZUJKAS_clean_linker_0, # of connection points: 2
#     Edge 16, Type (0, 1), BuildingBlock: ZUJKAS_clean_linker_0, # of connection points: 2
#     Edge 17, Type (0, 1), BuildingBlock: ZUJKAS_clean_linker_0, # of connection points: 2
#     Edge 18, Type (0, 1), BuildingBlock: ZUJKAS_clean_linker_0, # of connection points: 2
#     Edge 19, Type (0, 1), BuildingBlock: ZUJKAS_clean_linker_0, # of connection points: 2
#     Edge 20, Type (0, 1), BuildingBlock: ZUJKAS_clean_linker_0, # of connection points: 2
#     Edge 21, Type (0, 1), BuildingBlock: ZUJKAS_clean_linker_0, # of connection points: 2
#     Edge 22, Type (0, 1), BuildingBlock: ZUJKAS_clean_linker_0, # of connection points: 2
#     Edge 23, Type (0, 1), BuildingBlock: ZUJKAS_clean_linker_0, # of connection points: 2
#     Edge 24, Type (0, 1), BuildingBlock: ZUJKAS_clean_linker_0, # of connection points: 2
#     Edge 25, Type (0, 1), BuildingBlock: ZUJKAS_clean_linker_0, # of connection points: 2
#     Edge 26, Type (0, 1), BuildingBlock: ZUJKAS_clean_linker_0, # of connection points: 2
#     Edge 27, Type (0, 1), BuildingBlock: ZUJKAS_clean_linker_0, # of connection points: 2
#     Edge 28, Type (0, 1), BuildingBlock: ZUJKAS_clean_linker_0, # of connection points: 2
#     Edge 29, Type (0, 1), BuildingBlock: ZUJKAS_clean_linker_0, # of connection points: 2
#     Edge 30, Type (0, 1), BuildingBlock: ZUJKAS_clean_linker_0, # of connection points: 2
#     Edge 31, Type (0, 1), BuildingBlock: ZUJKAS_clean_linker_0, # of connection points: 2
#     Edge 32, Type (0, 1), BuildingBlock: ZUJKAS_clean_linker_0, # of connection points: 2
#     Edge 33, Type (0, 1), BuildingBlock: ZUJKAS_clean_linker_0, # of connection points: 2
#     Edge 34, Type (0, 1), BuildingBlock: ZUJKAS_clean_linker_0, # of connection points: 2
#     Edge 35, Type (0, 1), BuildingBlock: ZUJKAS_clean_linker_0, # of connection points: 2
# Relax obj value: 0.010
# Max RMSD: 0.084
# Mean RMSD: 0.068
data_MOF--net-apo--node1-KUMBOL_clean_sbu_1--node2-MIDCAF_clean_linker_0--edge1-ZUJKAS_clean_linker_0
_symmetry_space_group_name_H-M    P1
_symmetry_Int_Tables_number       1
_symmetry_cell_setting            triclinic
loop_
_symmetry_equiv_pos_as_xyz
'x, y, z'
_cell_length_a     36.018598
_cell_length_b     65.081193
_cell_length_c     77.617756
_cell_angle_alpha  90.011915
_cell_angle_beta   90.00444
_cell_angle_gamma 90.4811
loop_
_atom_site_label
_atom_site_type_symbol
_atom_site_fract_x
_atom_site_fract_y
_atom_site_fract_z
_atom_type_partial_charge
C0 C 0.32743 0.39065 0.47728 0.0
C1 C 0.31855 0.37256 0.48633 0.0
C2 C 0.2996 0.35669 0.47763 0.0
C3 C 0.28941 0.35896 0.46032 0.0
H4 H 0.24039 0.32805 0.41843 0.0
H5 H 0.20853 0.30117 0.40204 0.0
H6 H 0.18968 0.34416 0.36061 0.0
H7 H 0.22214 0.37075 0.37667 0.0
H8 H 0.26195 0.41296 0.37622 0.0
H9 H 0.2832 0.44243 0.35964 0.0
H10 H 0.36159 0.45783 0.39987 0.0
H11 H 0.33948 0.42863 0.41676 0.0
H12 H 0.3247 0.4071 0.45352 0.0
H13 H 0.34245 0.40306 0.48353 0.0
H14 H 0.29204 0.34264 0.48428 0.0
H15 H 0.27459 0.34647 0.45408 0.0
N16 N 0.26639 0.36509 0.42477 0.0
N17 N 0.26634 0.38504 0.39963 0.0
N18 N 0.29729 0.39702 0.42422 0.0
C19 C 0.2559 0.36766 0.40807 0.0
C20 C 0.28705 0.39977 0.40754 0.0
C21 C 0.28697 0.37977 0.43298 0.0
C22 C 0.23426 0.35155 0.39883 0.0
C23 C 0.22928 0.3318 0.40587 0.0
C24 C 0.21085 0.31639 0.39649 0.0
C25 C 0.19686 0.32042 0.3799 0.0
C26 C 0.20083 0.34035 0.37316 0.0
C27 C 0.21934 0.35567 0.38245 0.0
C28 C 0.29912 0.4183 0.39782 0.0
C29 C 0.28365 0.42264 0.3816 0.0
C30 C 0.29601 0.43951 0.37201 0.0
C31 C 0.3244 0.45245 0.3783 0.0
C32 C 0.33942 0.44835 0.39468 0.0
C33 C 0.32684 0.43151 0.40435 0.0
C34 C 0.29809 0.37713 0.45129 0.0
C35 C 0.31739 0.39289 0.46 0.0
C36 C 0.18109 0.10409 0.97586 0.0
C37 C 0.18716 0.12216 0.98538 0.0
C38 C 0.20508 0.13889 0.97738 0.0
C39 C 0.21691 0.13752 0.96026 0.0
H40 H 0.26109 0.17183 0.91858 0.0
H41 H 0.29287 0.19984 0.90341 0.0
H42 H 0.32717 0.15737 0.86386 0.0
H43 H 0.29572 0.12946 0.8789 0.0
H44 H 0.24604 0.08961 0.87347 0.0
H45 H 0.22619 0.06034 0.85619 0.0
H46 H 0.16142 0.03737 0.89901 0.0
H47 H 0.18185 0.06638 0.91647 0.0
H48 H 0.18755 0.08853 0.95186 0.0
H49 H 0.16697 0.09102 0.98159 0.0
H50 H 0.21053 0.15295 0.98445 0.0
H51 H 0.23078 0.15067 0.95453 0.0
N52 N 0.24317 0.13323 0.92501 0.0
N53 N 0.24604 0.11429 0.89934 0.0
N54 N 0.21493 0.10067 0.92326 0.0
C55 C 0.25471 0.13153 0.90839 0.0
C56 C 0.22609 0.09881 0.90664 0.0
C57 C 0.2234 0.11776 0.93257 0.0
C58 C 0.27569 0.14841 0.89992 0.0
C59 C 0.27569 0.16844 0.90673 0.0
C60 C 0.29369 0.1845 0.89801 0.0
C61 C 0.31247 0.18078 0.88246 0.0
C62 C 0.31325 0.16068 0.87591 0.0
C63 C 0.29496 0.14471 0.88449 0.0
C64 C 0.21543 0.08046 0.89638 0.0
C65 C 0.22773 0.07829 0.87928 0.0
C66 C 0.21618 0.06155 0.86931 0.0
C67 C 0.19204 0.04658 0.87618 0.0
C68 C 0.18035 0.04851 0.89338 0.0
C69 C 0.19194 0.06523 0.90337 0.0
C70 C 0.2109 0.11941 0.95073 0.0
C71 C 0.19275 0.10274 0.95875 0.0
C72 C 0.81989 0.10422 0.52912 0.0
C73 C 0.81498 0.12265 0.52002 0.0
C74 C 0.80063 0.13974 0.52881 0.0
C75 C 0.79157 0.13845 0.54632 0.0
H76 H 0.72728 0.16634 0.58593 0.0
H77 H 0.69427 0.19325 0.60146 0.0
H78 H 0.72366 0.16475 0.6498 0.0
H79 H 0.75543 0.13773 0.63442 0.0
H80 H 0.78274 0.09297 0.63494 0.0
H81 H 0.80488 0.06389 0.65155 0.0
H82 H 0.85297 0.03789 0.60556 0.0
H83 H 0.83143 0.06719 0.58889 0.0
H84 H 0.81554 0.08851 0.55321 0.0
H85 H 0.83124 0.09083 0.52279 0.0
H86 H 0.79615 0.1541 0.52211 0.0
H87 H 0.78073 0.15194 0.55268 0.0
N88 N 0.77044 0.13419 0.58245 0.0
N89 N 0.77473 0.11617 0.60853 0.0
N90 N 0.79951 0.10203 0.58336 0.0
C91 C 0.76342 0.13298 0.59965 0.0
C92 C 0.79273 0.10063 0.60053 0.0
C93 C 0.78852 0.11872 0.5742 0.0
C94 C 0.74391 0.14975 0.60887 0.0
C95 C 0.72666 0.16582 0.59987 0.0
C96 C 0.70785 0.18131 0.60879 0.0
C97 C 0.70602 0.18114 0.62691 0.0
C98 C 0.72369 0.16519 0.63586 0.0
C99 C 0.74221 0.1497 0.62698 0.0
C100 C 0.80535 0.08253 0.61054 0.0
C101 C 0.79796 0.08108 0.6283 0.0
C102 C 0.81047 0.0643 0.63785 0.0
C103 C 0.8307 0.04855 0.6299 0.0
C104 C 0.83785 0.04989 0.61212 0.0
C105 C 0.8253 0.06666 0.60255 0.0
C106 C 0.79691 0.12006 0.55548 0.0
C107 C 0.81108 0.10295 0.54663 0.0
C108 C 0.68139 0.39145 0.03008 0.0
C109 C 0.69242 0.37463 0.02002 0.0
C110 C 0.71369 0.35913 0.02778 0.0
C111 C 0.72356 0.3604 0.04519 0.0
H112 H 0.76978 0.32651 0.0868 0.0
H113 H 0.8024 0.29952 0.10255 0.0
H114 H 0.81213 0.3397 0.14666 0.0
H115 H 0.78067 0.36655 0.13103 0.0
H116 H 0.73616 0.40518 0.13392 0.0
H117 H 0.7151 0.43388 0.15119 0.0
H118 H 0.65897 0.45905 0.10687 0.0
H119 H 0.6794 0.43 0.08953 0.0
H120 H 0.68223 0.406 0.05472 0.0
H121 H 0.66542 0.40379 0.02447 0.0
H122 H 0.72227 0.34583 0.02044 0.0
H123 H 0.73982 0.34813 0.05074 0.0
N124 N 0.7423 0.36355 0.08166 0.0
N125 N 0.74089 0.38198 0.1076 0.0
N126 N 0.71229 0.39545 0.0831 0.0
C127 C 0.75154 0.36514 0.09862 0.0
C128 C 0.72129 0.39717 0.10001 0.0
C129 C 0.7227 0.37874 0.07378 0.0
C130 C 0.77246 0.34874 0.10761 0.0
C131 C 0.77918 0.32962 0.09981 0.0
C132 C 0.79765 0.3141 0.10887 0.0
C133 C 0.80999 0.31746 0.12586 0.0
C134 C 0.80361 0.33666 0.13351 0.0
C135 C 0.78518 0.35206 0.12454 0.0
C136 C 0.70941 0.41518 0.11029 0.0
C137 C 0.7194 0.41681 0.12777 0.0
C138 C 0.70754 0.43338 0.13769 0.0
C139 C 0.6854 0.44878 0.13041 0.0
C140 C 0.67565 0.44731 0.11291 0.0
C141 C 0.68755 0.4307 0.10294 0.0
C142 C 0.71245 0.37723 0.05527 0.0
C143 C 0.69128 0.39275 0.04745 0.0
C144 C 0.68435 0.60638 0.52862 0.0
C145 C 0.70028 0.6217 0.51816 0.0
C146 C 0.72707 0.63502 0.52528 0.0
C147 C 0.73743 0.63318 0.54258 0.0
H148 H 0.78165 0.66723 0.58383 0.0
H149 H 0.81356 0.69486 0.59934 0.0
H150 H 0.82091 0.65613 0.64437 0.0
H151 H 0.78971 0.62853 0.62897 0.0
H152 H 0.74318 0.58928 0.63161 0.0
H153 H 0.72113 0.56034 0.64857 0.0
H154 H 0.66538 0.53546 0.60382 0.0
H155 H 0.6881 0.56428 0.58662 0.0
H156 H 0.68195 0.59244 0.55349 0.0
H157 H 0.66399 0.59572 0.52342 0.0
H158 H 0.73966 0.64705 0.51754 0.0
H159 H 0.75804 0.64375 0.54769 0.0
N160 N 0.75254 0.63081 0.57932 0.0
N161 N 0.75054 0.61227 0.60518 0.0
N162 N 0.72101 0.59912 0.58065 0.0
C163 C 0.76185 0.6291 0.59623 0.0
C164 C 0.73018 0.5972 0.59753 0.0
C165 C 0.73215 0.61584 0.57143 0.0
C166 C 0.78292 0.64565 0.60514 0.0
C167 C 0.79033 0.66455 0.59699 0.0
C168 C 0.80842 0.68042 0.6059 0.0
C169 C 0.81971 0.67767 0.62308 0.0
C170 C 0.81298 0.65866 0.63108 0.0
C171 C 0.79481 0.64286 0.62224 0.0
C172 C 0.71736 0.57921 0.60771 0.0
C173 C 0.72633 0.57765 0.6253 0.0
C174 C 0.71348 0.56109 0.63509 0.0
C175 C 0.69129 0.54566 0.62759 0.0
C176 C 0.6827 0.54701 0.60996 0.0
C177 C 0.69558 0.56361 0.60012 0.0
C178 C 0.72146 0.61785 0.55306 0.0
C179 C 0.69489 0.60443 0.54584 0.0
C180 C 0.80914 0.89742 0.02709 0.0
C181 C 0.80571 0.87862 0.01833 0.0
C182 C 0.79291 0.86126 0.02738 0.0
C183 C 0.78347 0.86273 0.04483 0.0
H184 H 0.73792 0.82965 0.08693 0.0
H185 H 0.70728 0.80215 0.1031 0.0
H186 H 0.6827 0.84501 0.144 0.0
H187 H 0.71415 0.87215 0.12821 0.0
H188 H 0.7671 0.90994 0.13234 0.0
H189 H 0.78963 0.93879 0.1493 0.0
H190 H 0.84372 0.96406 0.10429 0.0
H191 H 0.82061 0.93529 0.08709 0.0
H192 H 0.80318 0.91362 0.05084 0.0
H193 H 0.81935 0.91101 0.0205 0.0
H194 H 0.7898 0.84659 0.02092 0.0
H195 H 0.77363 0.84907 0.05143 0.0
N196 N 0.75846 0.86791 0.08029 0.0
N197 N 0.76022 0.8867 0.10605 0.0
N198 N 0.78804 0.90021 0.08125 0.0
C199 C 0.74951 0.86963 0.09725 0.0
C200 C 0.77955 0.90203 0.09822 0.0
C201 C 0.77757 0.88324 0.07217 0.0
C202 C 0.72888 0.85307 0.10634 0.0
C203 C 0.72583 0.83319 0.09934 0.0
C204 C 0.70812 0.81744 0.1086 0.0
C205 C 0.69286 0.82128 0.12497 0.0
C206 C 0.69494 0.84133 0.13165 0.0
C207 C 0.71285 0.85697 0.12251 0.0
C208 C 0.79215 0.92016 0.10831 0.0
C209 C 0.78366 0.92164 0.12596 0.0
C210 C 0.79678 0.93815 0.13575 0.0
C211 C 0.81874 0.95363 0.12819 0.0
C212 C 0.82664 0.95245 0.11047 0.0
C213 C 0.81352 0.93588 0.10064 0.0
C214 C 0.78708 0.88155 0.05363 0.0
C215 C 0.80008 0.89886 0.04453 0.0
C216 C 0.18161 0.88914 0.47853 0.0
C217 C 0.19618 0.87352 0.48895 0.0
C218 C 0.22088 0.85937 0.48155 0.0
C219 C 0.23089 0.86091 0.46415 0.0
H220 H 0.27665 0.82775 0.42131 0.0
H221 H 0.3094 0.80144 0.40483 0.0
H222 H 0.31639 0.84275 0.36138 0.0
H223 H 0.28477 0.86894 0.37772 0.0
H224 H 0.23646 0.90699 0.37555 0.0
H225 H 0.21329 0.93614 0.35937 0.0
H226 H 0.16266 0.96013 0.40557 0.0
H227 H 0.18504 0.93071 0.42176 0.0
H228 H 0.17974 0.90302 0.45369 0.0
H229 H 0.16197 0.90005 0.48367 0.0
H230 H 0.23295 0.84727 0.48925 0.0
H231 H 0.25014 0.84986 0.45889 0.0
N232 N 0.2474 0.86414 0.42721 0.0
N233 N 0.24542 0.88346 0.4017 0.0
N234 N 0.2163 0.89571 0.42649 0.0
C235 C 0.25664 0.86642 0.41028 0.0
C236 C 0.2253 0.89816 0.40967 0.0
C237 C 0.22719 0.87883 0.4354 0.0
C238 C 0.27791 0.85049 0.40088 0.0
C239 C 0.28548 0.83125 0.4083 0.0
C240 C 0.30404 0.81613 0.39882 0.0
C241 C 0.31559 0.81999 0.38179 0.0
C242 C 0.30846 0.83932 0.37453 0.0
C243 C 0.28995 0.85434 0.38393 0.0
C244 C 0.21251 0.9164 0.39997 0.0
C245 C 0.22049 0.91848 0.38232 0.0
C246 C 0.2074 0.93529 0.37303 0.0
C247 C 0.1861 0.95046 0.38117 0.0
C248 C 0.17856 0.94856 0.39886 0.0
C249 C 0.1916 0.93172 0.40816 0.0
C250 C 0.21652 0.87669 0.4538 0.0
C251 C 0.1917 0.89074 0.46123 0.0
C252 C 0.32848 0.6078 0.97916 0.0
C253 C 0.31203 0.62294 0.98951 0.0
C254 C 0.28609 0.63624 0.98191 0.0
C255 C 0.27713 0.63455 0.96442 0.0
H256 H 0.2121 0.66086 0.92301 0.0
H257 H 0.18165 0.68859 0.90702 0.0
H258 H 0.23328 0.66781 0.86007 0.0
H259 H 0.26299 0.64 0.87577 0.0
H260 H 0.26498 0.58648 0.87749 0.0
H261 H 0.28694 0.55725 0.8608 0.0
H262 H 0.36244 0.54155 0.90184 0.0
H263 H 0.34047 0.57076 0.91867 0.0
H264 H 0.33283 0.59422 0.95419 0.0
H265 H 0.34903 0.5975 0.98443 0.0
H266 H 0.27235 0.64787 0.98951 0.0
H267 H 0.25706 0.64505 0.95903 0.0
N268 N 0.26574 0.63278 0.9272 0.0
N269 N 0.27001 0.6145 0.90122 0.0
N270 N 0.29594 0.60094 0.92639 0.0
C271 C 0.25858 0.63134 0.91003 0.0
C272 C 0.28851 0.59919 0.90929 0.0
C273 C 0.28457 0.61762 0.93547 0.0
C274 C 0.23991 0.6482 0.90066 0.0
C275 C 0.21689 0.66221 0.90928 0.0
C276 C 0.19938 0.678 0.90016 0.0
C277 C 0.20532 0.68031 0.88237 0.0
C278 C 0.22848 0.66642 0.87381 0.0
C279 C 0.2453 0.65044 0.88281 0.0
C280 C 0.30106 0.58103 0.89941 0.0
C281 C 0.2862 0.5768 0.88301 0.0
C282 C 0.29857 0.55998 0.87348 0.0
C283 C 0.32641 0.54718 0.88002 0.0
C284 C 0.34113 0.55128 0.89644 0.0
C285 C 0.3284 0.56795 0.9061 0.0
C286 C 0.29363 0.6194 0.9541 0.0
C287 C 0.3193 0.60599 0.96172 0.0
C288 C 0.87521 0.1295 0.25813 0.0
C289 C 0.86439 0.09312 0.26315 0.0
C290 C 0.88748 0.11068 0.26438 0.0
C291 C 0.82889 0.09476 0.25581 0.0
C292 C 0.8394 0.13122 0.25093 0.0
C293 C 0.81639 0.11377 0.24979 0.0
N294 N 0.89846 0.14605 0.25883 0.0
C295 C 0.88679 0.16499 0.25376 0.0
C296 C 0.82778 0.15047 0.24506 0.0
C297 C 0.85148 0.16746 0.24663 0.0
Gd298 Gd 0.04531 0.13634 0.23758 0.0
Gd299 Gd 0.9568 0.14043 0.27108 0.0
N300 N 0.92233 0.10944 0.27117 0.0
C301 C 0.87774 0.07433 0.26918 0.0
C302 C 0.93512 0.09118 0.27735 0.0
C303 C 0.91318 0.07339 0.27636 0.0
H304 H 0.96212 0.08999 0.28308 0.0
H305 H 0.92365 0.05894 0.28116 0.0
H306 H 0.03421 0.18227 0.21927 0.0
H307 H 0.90446 0.17833 0.25537 0.0
H308 H 0.06814 0.21528 0.21661 0.0
H309 H 0.86091 0.06049 0.26839 0.0
H310 H 0.81086 0.08141 0.25474 0.0
H311 H 0.10988 0.10205 0.24817 0.0
H312 H 0.80045 0.15242 0.23949 0.0
H313 H 0.84249 0.18248 0.24244 0.0
H314 H 0.18445 0.20294 0.24494 0.0
H315 H 0.78887 0.11479 0.24423 0.0
H316 H 0.20905 0.13399 0.26295 0.0
H317 H 0.1737 0.10143 0.25983 0.0
N318 N 0.10691 0.13448 0.24761 0.0
C319 C 0.12679 0.1523 0.24788 0.0
C320 C 0.12398 0.1163 0.25095 0.0
C321 C 0.18046 0.13433 0.25862 0.0
C322 C 0.16057 0.11593 0.25696 0.0
C323 C 0.16403 0.15276 0.25351 0.0
H324 H 0.21276 0.172 0.25735 0.0
N325 N 0.07607 0.16815 0.23435 0.0
C326 C 0.11115 0.16961 0.24068 0.0
C327 C 0.1158 0.20473 0.23078 0.0
C328 C 0.13187 0.188 0.23922 0.0
C329 C 0.0611 0.18399 0.22522 0.0
C330 C 0.08042 0.20262 0.22356 0.0
O331 O 0.94825 0.1253 0.24516 0.0
O332 O 0.00481 0.1104 0.24214 0.0
O333 O 0.03949 0.1388 0.20964 0.0
O334 O 0.07614 0.11636 0.22054 0.0
O335 O 0.00163 0.11891 0.2804 0.0
O336 O 0.04678 0.11233 0.25919 0.0
O337 O 0.0428 0.1635 0.25582 0.0
O338 O 0.01542 0.14808 0.27891 0.0
O339 O 0.93294 0.13687 0.29693 0.0
O340 O 0.93984 0.16739 0.28523 0.0
O341 O 0.99176 0.15097 0.22891 0.0
O342 O 0.96989 0.16711 0.25333 0.0
C343 C 0.96957 0.11136 0.23819 0.0
C344 C 0.03083 0.10888 0.27441 0.0
C345 C 0.09558 0.13232 0.19486 0.0
C346 C 0.11906 0.1386 0.1658 0.0
C347 C 0.15846 0.14515 0.19067 0.0
C348 C 0.12997 0.13878 0.20158 0.0
C349 C 0.15314 0.14507 0.17292 0.0
C350 C 0.09024 0.13216 0.1769 0.0
C351 C 0.0656 0.12562 0.20658 0.0
C352 C 0.16818 0.1889 0.24579 0.0
C353 C 0.18425 0.1713 0.25292 0.0
H354 H 0.1308 0.21913 0.22938 0.0
C355 C 0.03506 0.16311 0.27233 0.0
C356 C 0.97328 0.16578 0.2365 0.0
C357 C 0.91248 0.16663 0.31379 0.0
C358 C 0.89712 0.1669 0.3445 0.0
C359 C 0.88561 0.19701 0.32681 0.0
C360 C 0.89968 0.18689 0.31244 0.0
C361 C 0.88447 0.18717 0.34274 0.0
C362 C 0.91068 0.15652 0.32986 0.0
C363 C 0.92877 0.15667 0.29848 0.0
H364 H 0.18489 0.14999 0.196 0.0
H365 H 0.13512 0.13867 0.21525 0.0
H366 H 0.17606 0.1497 0.16471 0.0
H367 H 0.0638 0.12716 0.17163 0.0
H368 H 0.87574 0.21261 0.32562 0.0
H369 H 0.90056 0.19498 0.30025 0.0
H370 H 0.87342 0.19539 0.35371 0.0
H371 H 0.92081 0.14095 0.33111 0.0
C372 C 0.62836 0.37515 0.75646 0.0
C373 C 0.63143 0.4113 0.76406 0.0
C374 C 0.6121 0.39236 0.76386 0.0
C375 C 0.66682 0.41277 0.75652 0.0
C376 C 0.66387 0.37657 0.74889 0.0
C377 C 0.68298 0.39546 0.74897 0.0
N378 N 0.60875 0.35722 0.75607 0.0
C379 C 0.6233 0.34 0.74879 0.0
C380 C 0.67889 0.359 0.74125 0.0
C381 C 0.65854 0.34063 0.74125 0.0
Gd382 Gd 0.45961 0.3637 0.73771 0.0
Gd383 Gd 0.54982 0.35768 0.76874 0.0
N384 N 0.57731 0.39061 0.77066 0.0
C385 C 0.61473 0.42821 0.77193 0.0
C386 C 0.56208 0.40673 0.77932 0.0
C387 C 0.58014 0.42582 0.7798 0.0
H388 H 0.53664 0.40494 0.78637 0.0
H389 H 0.56759 0.43861 0.78647 0.0
H390 H 0.4734 0.31742 0.7183 0.0
H391 H 0.60792 0.32571 0.74902 0.0
H392 H 0.44314 0.28361 0.71719 0.0
H393 H 0.62867 0.44302 0.77236 0.0
H394 H 0.68196 0.42723 0.7565 0.0
H395 H 0.40158 0.39418 0.75908 0.0
H396 H 0.7061 0.35946 0.73531 0.0
H397 H 0.66998 0.32694 0.73545 0.0
H398 H 0.32941 0.29268 0.74821 0.0
H399 H 0.71025 0.39686 0.74317 0.0
H400 H 0.30432 0.35912 0.77192 0.0
H401 H 0.33979 0.39183 0.77284 0.0
N402 N 0.40113 0.36308 0.7508 0.0
C403 C 0.38191 0.34504 0.74985 0.0
C404 C 0.38643 0.3798 0.7588 0.0
C405 C 0.33139 0.36007 0.76587 0.0
C406 C 0.35138 0.37855 0.76648 0.0
C407 C 0.34659 0.34301 0.75753 0.0
H408 H 0.30077 0.32215 0.76274 0.0
N409 N 0.43298 0.33066 0.73485 0.0
C410 C 0.39843 0.32832 0.74181 0.0
C411 C 0.39627 0.29293 0.73243 0.0
C412 C 0.37946 0.30929 0.74101 0.0
C413 C 0.44825 0.31511 0.72548 0.0
C414 C 0.43057 0.29595 0.72443 0.0
O415 O 0.55796 0.37341 0.74292 0.0
O416 O 0.50207 0.38919 0.73933 0.0
O417 O 0.45376 0.36359 0.70939 0.0
O418 O 0.42187 0.38466 0.72549 0.0
O419 O 0.49955 0.37429 0.77959 0.0
O420 O 0.47298 0.38976 0.75584 0.0
O421 O 0.45151 0.34804 0.76359 0.0
O422 O 0.50735 0.33222 0.76705 0.0
O423 O 0.55505 0.3591 0.79697 0.0
O424 O 0.5867 0.33688 0.78186 0.0
O425 O 0.50993 0.34719 0.72686 0.0
O426 O 0.53688 0.33159 0.75048 0.0
C427 C 0.53739 0.38751 0.73568 0.0
C428 C 0.4774 0.38801 0.77259 0.0
C429 C 0.41177 0.38783 0.69485 0.0
C430 C 0.39878 0.3892 0.66397 0.0
C431 C 0.37765 0.41653 0.68278 0.0
C432 C 0.39312 0.40658 0.69691 0.0
C433 C 0.3806 0.40799 0.6664 0.0
C434 C 0.41422 0.37902 0.67828 0.0
C435 C 0.42958 0.37836 0.71003 0.0
C436 C 0.34427 0.30722 0.74865 0.0
C437 C 0.32789 0.32402 0.75688 0.0
H438 H 0.38261 0.27807 0.73152 0.0
C439 C 0.47218 0.33405 0.77094 0.0
C440 C 0.53209 0.33336 0.73372 0.0
C441 C 0.5961 0.3356 0.81272 0.0
C442 C 0.60944 0.33675 0.84355 0.0
C443 C 0.62952 0.3077 0.82641 0.0
C444 C 0.61418 0.31657 0.81174 0.0
C445 C 0.62705 0.31766 0.84224 0.0
C446 C 0.59399 0.3458 0.82874 0.0
C447 C 0.57894 0.34416 0.79701 0.0
H448 H 0.36349 0.43098 0.68452 0.0
H449 H 0.39087 0.41376 0.70945 0.0
H450 H 0.36833 0.41598 0.65559 0.0
H451 H 0.42848 0.36458 0.67645 0.0
H452 H 0.64324 0.29301 0.82552 0.0
H453 H 0.61615 0.30837 0.79963 0.0
H454 H 0.6391 0.31052 0.85352 0.0
H455 H 0.5802 0.36049 0.82974 0.0
C456 C 0.88078 0.84397 0.75377 0.0
C457 C 0.87794 0.80687 0.75695 0.0
C458 C 0.89687 0.82573 0.75926 0.0
C459 C 0.84291 0.80658 0.749 0.0
C460 C 0.84564 0.84373 0.74577 0.0
C461 C 0.8268 0.82495 0.74344 0.0
N462 N 0.90008 0.86186 0.75574 0.0
C463 C 0.88559 0.88008 0.75043 0.0
C464 C 0.83068 0.86236 0.74016 0.0
C465 C 0.85071 0.88062 0.74255 0.0
Gd466 Gd 0.05108 0.85674 0.7392 0.0
Gd467 Gd 0.95854 0.85935 0.76866 0.0
N468 N 0.93146 0.82639 0.76638 0.0
C469 C 0.89484 0.78883 0.76267 0.0
C470 C 0.94712 0.80898 0.77277 0.0
C471 C 0.92937 0.78994 0.77079 0.0
H472 H 0.97283 0.80961 0.77973 0.0
H473 H 0.94221 0.77613 0.77568 0.0
H474 H 0.03757 0.90317 0.72007 0.0
H475 H 0.90073 0.89425 0.75251 0.0
H476 H 0.06474 0.93781 0.72113 0.0
H477 H 0.88121 0.77404 0.76113 0.0
H478 H 0.82804 0.79222 0.74707 0.0
H479 H 0.10968 0.82641 0.76043 0.0
H480 H 0.80374 0.86281 0.73397 0.0
H481 H 0.83929 0.8951 0.73834 0.0
H482 H 0.17391 0.93017 0.75579 0.0
H483 H 0.79981 0.82446 0.73728 0.0
H484 H 0.20166 0.86314 0.77762 0.0
H485 H 0.16925 0.82951 0.77605 0.0
N486 N 0.10823 0.85798 0.75356 0.0
C487 C 0.12597 0.8765 0.75388 0.0
C488 C 0.12346 0.84118 0.76121 0.0
C489 C 0.17556 0.86186 0.77074 0.0
C490 C 0.1573 0.84286 0.76994 0.0
C491 C 0.15996 0.87899 0.76267 0.0
H492 H 0.20298 0.90071 0.77014 0.0
N493 N 0.07605 0.89034 0.73778 0.0
C494 C 0.10923 0.89319 0.74592 0.0
C495 C 0.10971 0.92902 0.73778 0.0
C496 C 0.12658 0.9127 0.74639 0.0
C497 C 0.06113 0.90585 0.72827 0.0
C498 C 0.07718 0.92549 0.72844 0.0
O499 O 0.95394 0.84539 0.74194 0.0
O500 O 0.01053 0.83033 0.73878 0.0
O501 O 0.05799 0.8582 0.711 0.0
O502 O 0.09189 0.83777 0.72681 0.0
O503 O 0.00897 0.84313 0.77959 0.0
O504 O 0.03872 0.82925 0.75599 0.0
O505 O 0.05513 0.87084 0.76583 0.0
O506 O 0.99861 0.88616 0.76976 0.0
O507 O 0.95201 0.8527 0.7959 0.0
O508 O 0.91956 0.87669 0.78418 0.0
O509 O 0.00071 0.87357 0.72862 0.0
O510 O 0.97062 0.88722 0.75235 0.0
C511 C 0.97547 0.8318 0.73465 0.0
C512 C 0.03246 0.83012 0.77266 0.0
C513 C 0.10345 0.83627 0.69619 0.0
C514 C 0.11683 0.83646 0.66535 0.0
C515 C 0.14199 0.80969 0.68361 0.0
C516 C 0.12491 0.81843 0.69791 0.0
C517 C 0.13785 0.81855 0.66742 0.0
C518 C 0.09978 0.84544 0.67982 0.0
C519 C 0.08392 0.84435 0.71147 0.0
C520 C 0.16033 0.91526 0.75523 0.0
C521 C 0.17696 0.89846 0.76335 0.0
H522 H 0.12213 0.94425 0.73785 0.0
C523 C 0.03459 0.88543 0.77234 0.0
C524 C 0.97809 0.88703 0.73574 0.0
C525 C 0.93847 0.88136 0.81302 0.0
C526 C 0.93607 0.88894 0.84379 0.0
C527 C 0.97225 0.91073 0.8245 0.0
C528 C 0.96163 0.89853 0.81055 0.0
C529 C 0.95967 0.90597 0.84104 0.0
C530 C 0.92555 0.87666 0.82964 0.0
C531 C 0.92912 0.86777 0.79849 0.0
H532 H 0.15833 0.79592 0.68508 0.0
H533 H 0.12814 0.811 0.7103 0.0
H534 H 0.15143 0.81152 0.65647 0.0
H535 H 0.08333 0.85918 0.67827 0.0
H536 H 0.99022 0.92393 0.82249 0.0
H537 H 0.9715 0.90246 0.79783 0.0
H538 H 0.96791 0.91581 0.85166 0.0
H539 H 0.90787 0.8633 0.83158 0.0
C540 C 0.62503 0.65577 0.252 0.0
C541 C 0.63175 0.69195 0.25916 0.0
C542 C 0.61157 0.67333 0.25988 0.0
C543 C 0.66501 0.69289 0.24975 0.0
C544 C 0.65922 0.65647 0.24314 0.0
C545 C 0.67865 0.67521 0.24171 0.0
N546 N 0.60589 0.63779 0.2539 0.0
C547 C 0.62139 0.61971 0.24876 0.0
C548 C 0.67352 0.63818 0.23651 0.0
C549 C 0.65483 0.61967 0.23961 0.0
Gd550 Gd 0.46092 0.63849 0.23602 0.0
Gd551 Gd 0.54904 0.64004 0.26883 0.0
N552 N 0.5789 0.67208 0.26856 0.0
C553 C 0.61813 0.70898 0.26814 0.0
C554 C 0.5663 0.68828 0.27801 0.0
C555 C 0.58549 0.70706 0.27778 0.0
H556 H 0.5412 0.6867 0.28554 0.0
H557 H 0.57511 0.72001 0.28502 0.0
H558 H 0.47965 0.59705 0.21113 0.0
H559 H 0.6087 0.60519 0.25204 0.0
H560 H 0.45603 0.56182 0.2072 0.0
H561 H 0.63288 0.72356 0.26794 0.0
H562 H 0.68073 0.70712 0.24887 0.0
H563 H 0.39703 0.66304 0.25906 0.0
H564 H 0.69968 0.63806 0.22962 0.0
H565 H 0.66653 0.60531 0.23525 0.0
H566 H 0.34649 0.5589 0.2423 0.0
H567 H 0.70479 0.67606 0.23483 0.0
H568 H 0.31032 0.62031 0.2718 0.0
H569 H 0.33759 0.65528 0.27362 0.0
N570 N 0.40406 0.63259 0.24982 0.0
C571 C 0.38875 0.61359 0.24793 0.0
C572 C 0.38569 0.64767 0.25846 0.0
C573 C 0.33653 0.62361 0.26549 0.0
C574 C 0.35187 0.64336 0.26659 0.0
C575 C 0.35479 0.60847 0.25594 0.0
H576 H 0.31404 0.58431 0.26016 0.0
N577 N 0.43951 0.60493 0.23006 0.0
C578 C 0.40719 0.59929 0.23789 0.0
C579 C 0.41026 0.56571 0.22472 0.0
C580 C 0.39186 0.57947 0.23554 0.0
C581 C 0.45619 0.592 0.21865 0.0
C582 C 0.4423 0.5721 0.21606 0.0
O583 O 0.53873 0.6662 0.25013 0.0
O584 O 0.51764 0.64816 0.22709 0.0
O585 O 0.43443 0.63686 0.21075 0.0
O586 O 0.43825 0.6662 0.22455 0.0
O587 O 0.49528 0.65373 0.27785 0.0
O588 O 0.46577 0.66637 0.25357 0.0
O589 O 0.45514 0.62524 0.26292 0.0
O590 O 0.51256 0.6117 0.26877 0.0
O591 O 0.54339 0.64338 0.29652 0.0
O592 O 0.5921 0.62897 0.28597 0.0
O593 O 0.51366 0.62259 0.22738 0.0
O594 O 0.54351 0.61145 0.25213 0.0
C595 C 0.53461 0.66425 0.23344 0.0
C596 C 0.47357 0.66709 0.2702 0.0
C597 C 0.40874 0.66682 0.19626 0.0
C598 C 0.39097 0.66834 0.16585 0.0
C599 C 0.37877 0.69721 0.18486 0.0
C600 C 0.39465 0.68667 0.19861 0.0
C601 C 0.3771 0.6882 0.16858 0.0
C602 C 0.40638 0.65756 0.17984 0.0
C603 C 0.42773 0.65647 0.21068 0.0
C604 C 0.35849 0.57411 0.24385 0.0
C605 C 0.33999 0.58858 0.25402 0.0
H606 H 0.39944 0.55033 0.2226 0.0
C607 C 0.47624 0.61129 0.27006 0.0
C608 C 0.53568 0.60974 0.23557 0.0
C609 C 0.57114 0.61759 0.31307 0.0
C610 C 0.57965 0.60694 0.34293 0.0
C611 C 0.55457 0.58297 0.32175 0.0
C612 C 0.55719 0.59801 0.309 0.0
C613 C 0.56558 0.58736 0.33863 0.0
C614 C 0.58226 0.62202 0.32999 0.0
C615 C 0.5739 0.63364 0.29988 0.0
H616 H 0.36797 0.71251 0.1868 0.0
H617 H 0.39612 0.69413 0.21107 0.0
H618 H 0.36469 0.69674 0.1581 0.0
H619 H 0.41761 0.64235 0.17781 0.0
H620 H 0.54433 0.5678 0.31851 0.0
H621 H 0.54853 0.59435 0.29599 0.0
H622 H 0.56374 0.5753 0.34822 0.0
H623 H 0.59261 0.63728 0.33308 0.0
H624 H 0.11713 0.96758 0.38359 0.0
H625 H 0.09163 0.99546 0.3662 0.0
H626 H 0.19486 0.00037 0.33836 0.0
H627 H 0.22099 0.97281 0.35592 0.0
H628 H 0.12417 0.03778 0.3606 0.0
H629 H 0.1104 0.99002 0.3014 0.0
H630 H 0.11478 0.97884 0.3226 0.0
H631 H 0.15465 0.98986 0.31214 0.0
C632 C 0.13463 0.97478 0.37395 0.0
C633 C 0.17107 0.96791 0.3711 0.0
C634 C 0.11994 0.99062 0.36398 0.0
C635 C 0.1413 -0.00026 0.35094 0.0
C636 C 0.17786 0.99327 0.34825 0.0
H637 H 0.08894 0.08263 0.26809 0.0
H638 H 0.11721 0.05839 0.28758 0.0
C639 C 0.19265 0.97749 0.35824 0.0
C640 C 0.12508 0.01581 0.33992 0.0
H641 H 0.09451 0.02486 0.29912 0.0
C642 C 0.11765 0.03507 0.34714 0.0
C643 C 0.11692 0.01211 0.3224 0.0
C644 C 0.12431 0.99157 0.31411 0.0
C645 C 0.10292 0.05103 0.33715 0.0
C646 C 0.09401 0.04728 0.31961 0.0
C647 C 0.1013 0.02784 0.31251 0.0
C648 C 0.07777 0.06322 0.30822 0.0
C649 C 0.09833 0.07185 0.34543 0.0
C650 C 0.04606 0.07416 0.31314 0.0
C651 C 0.03122 0.08913 0.30228 0.0
C652 C 0.04673 0.09289 0.2859 0.0
C653 C 0.07728 0.08112 0.28074 0.0
C654 C 0.09308 0.06681 0.29186 0.0
H655 H 0.11748 0.0739 0.35654 0.0
H656 H 0.10355 0.08447 0.3361 0.0
H657 H 0.06958 0.0732 0.35042 0.0
H658 H 0.03253 0.07109 0.32532 0.0
H659 H 0.00728 0.09757 0.30673 0.0
H660 H 0.39867 0.53761 0.87369 0.0
H661 H 0.42241 0.51004 0.85543 0.0
H662 H 0.31023 0.48983 0.84495 0.0
H663 H 0.2864 0.51787 0.86272 0.0
H664 H 0.41837 0.4701 0.85744 0.0
H665 H 0.34928 0.49388 0.79703 0.0
H666 H 0.34984 0.50983 0.81602 0.0
H667 H 0.31666 0.48909 0.81404 0.0
C668 C 0.37911 0.52725 0.86749 0.0
C669 C 0.34071 0.52993 0.86952 0.0
C670 C 0.39268 0.51153 0.85704 0.0
C671 C 0.36813 0.49807 0.84851 0.0
C672 C 0.32973 0.50038 0.85093 0.0
H673 H 0.44725 0.38229 0.8044 0.0
H674 H 0.41869 0.40825 0.82293 0.0
C675 C 0.31613 0.51631 0.86118 0.0
C676 C 0.38292 0.4815 0.83731 0.0
H677 H 0.37781 0.46108 0.79685 0.0
C678 C 0.40963 0.46819 0.84416 0.0
C679 C 0.37197 0.47917 0.81989 0.0
C680 C 0.34567 0.49389 0.81125 0.0
C681 C 0.42573 0.45267 0.83412 0.0
C682 C 0.41362 0.44978 0.81691 0.0
C683 C 0.38685 0.46309 0.81008 0.0
C684 C 0.42939 0.43366 0.80551 0.0
C685 C 0.45646 0.44011 0.84197 0.0
C686 C 0.44318 0.439 0.78916 0.0
C687 C 0.45822 0.42406 0.77836 0.0
C688 C 0.46042 0.40356 0.78383 0.0
C689 C 0.44639 0.3981 0.80007 0.0
C690 C 0.43036 0.41296 0.81069 0.0
H691 H 0.47014 0.44839 0.8528 0.0
H692 H 0.44461 0.42561 0.8472 0.0
H693 H 0.47796 0.43625 0.83227 0.0
H694 H 0.4427 0.45481 0.7848 0.0
H695 H 0.46896 0.42864 0.76588 0.0
H696 H 0.66337 0.54747 0.6603 0.0
H697 H 0.64049 0.51909 0.67807 0.0
H698 H 0.66242 0.47655 0.63679 0.0
H699 H 0.68606 0.50484 0.61895 0.0
H700 H 0.59008 0.47292 0.65248 0.0
H701 H 0.70435 0.47326 0.70054 0.0
H702 H 0.68411 0.49794 0.69645 0.0
H703 H 0.70878 0.48505 0.67955 0.0
C704 C 0.66384 0.53205 0.65506 0.0
C705 C 0.67683 0.5284 0.63825 0.0
C706 C 0.6507 0.51587 0.66523 0.0
C707 C 0.65033 0.49574 0.65881 0.0
C708 C 0.66269 0.49201 0.64197 0.0
H709 H 0.60658 0.38649 0.72109 0.0
H710 H 0.63494 0.41215 0.70204 0.0
C711 C 0.67597 0.5082 0.63178 0.0
C712 C 0.63603 0.47869 0.66959 0.0
H713 H 0.65076 0.4533 0.70742 0.0
C714 C 0.60344 0.4685 0.66443 0.0
C715 C 0.65385 0.47285 0.68504 0.0
C716 C 0.6899 0.48269 0.69071 0.0
C717 C 0.5875 0.45295 0.67462 0.0
C718 C 0.60441 0.44773 0.69047 0.0
C719 C 0.63767 0.45749 0.69535 0.0
C720 C 0.58762 0.43242 0.7023 0.0
C721 C 0.5528 0.44222 0.66826 0.0
C722 C 0.552 0.43556 0.70905 0.0
C723 C 0.53577 0.42098 0.71993 0.0
C724 C 0.55506 0.40307 0.72443 0.0
C725 C 0.5911 0.40017 0.71796 0.0
C726 C 0.60729 0.41477 0.70703 0.0
H727 H 0.5497 0.44368 0.65407 0.0
H728 H 0.55289 0.42566 0.67168 0.0
H729 H 0.52819 0.44936 0.67435 0.0
H730 H 0.53673 0.44933 0.70592 0.0
H731 H 0.50812 0.4238 0.72483 0.0
H732 H 0.82323 0.99465 0.12017 0.0
H733 H 0.84783 0.02257 0.13816 0.0
H734 H 0.87278 0.97909 0.17835 0.0
H735 H 0.84858 0.95114 0.16047 0.0
H736 H 0.83582 0.01422 0.19008 0.0
H737 H 0.95778 0.03422 0.14934 0.0
H738 H 0.91385 0.03405 0.13836 0.0
H739 H 0.93203 0.0105 0.14681 0.0
C740 C 0.83432 0.99102 0.13276 0.0
C741 C 0.83391 0.97068 0.13889 0.0
C742 C 0.84833 0.00698 0.14302 0.0
C743 C 0.8624 0.00285 0.15951 0.0
C744 C 0.86196 0.98259 0.16567 0.0
H745 H 0.00252 0.07708 0.2251 0.0
H746 H 0.97497 0.05124 0.20605 0.0
C747 C 0.84798 0.96666 0.15545 0.0
C748 C 0.87722 0.01958 0.17055 0.0
H749 H 0.94656 0.05548 0.17346 0.0
C750 C 0.85998 0.02329 0.18645 0.0
C751 C 0.90896 0.0312 0.16583 0.0
C752 C 0.92952 0.02725 0.14923 0.0
C753 C 0.87369 0.03833 0.19782 0.0
C754 C 0.90512 0.05017 0.19298 0.0
C755 C 0.92232 0.04646 0.17706 0.0
C756 C 0.92144 0.06598 0.20452 0.0
C757 C 0.85501 0.04099 0.21508 0.0
C758 C 0.90059 0.08297 0.20983 0.0
C759 C 0.9162 0.09773 0.22078 0.0
C760 C 0.95306 0.09583 0.22652 0.0
C761 C 0.97404 0.07897 0.22096 0.0
C762 C 0.95836 0.06419 0.21006 0.0
H763 H 0.83768 0.02741 0.21854 0.0
H764 H 0.87579 0.0436 0.22544 0.0
H765 H 0.83661 0.05457 0.21457 0.0
H766 H 0.87232 0.08489 0.2054 0.0
H767 H 0.89945 0.11068 0.22462 0.0
H768 H 0.89876 0.03031 0.62779 0.0
H769 H 0.9224 0.00192 0.64517 0.0
H770 H 0.81906 0.9993 0.67316 0.0
H771 H 0.79476 0.02726 0.65549 0.0
H772 H 0.93148 0.00096 0.68086 0.0
H773 H 0.83494 0.93934 0.65893 0.0
H774 H 0.84067 0.96328 0.64745 0.0
H775 H 0.8125 0.96215 0.66654 0.0
C776 C 0.88082 0.02347 0.63745 0.0
C777 C 0.8448 0.031 0.6402 0.0
C778 C 0.89447 0.00736 0.64745 0.0
C779 C 0.87233 0.99835 0.66031 0.0
C780 C 0.83639 0.0058 0.66311 0.0
H781 H 0.94782 0.92348 0.7459 0.0
H782 H 0.92174 0.95034 0.72762 0.0
C783 C 0.8227 0.02193 0.65312 0.0
C784 C 0.88737 0.98164 0.67118 0.0
H785 H 0.87371 0.93152 0.68278 0.0
C786 C 0.91893 0.98576 0.68125 0.0
C787 C 0.87111 0.96178 0.67153 0.0
C788 C 0.83813 0.95624 0.66043 0.0
C789 C 0.93442 0.97062 0.69186 0.0
C790 C 0.91758 0.95092 0.69256 0.0
C791 C 0.88633 0.9467 0.68231 0.0
C792 C 0.93238 0.9344 0.70367 0.0
C793 C 0.96899 0.97571 0.70204 0.0
C794 C 0.94615 0.91633 0.69629 0.0
C795 C 0.96084 0.90088 0.7067 0.0
C796 C 0.96174 0.90317 0.72471 0.0
C797 C 0.94739 0.92119 0.73208 0.0
C798 C 0.93275 0.93663 0.72165 0.0
H799 H 0.98336 0.98963 0.69697 0.0
H800 H 0.96127 0.97871 0.71564 0.0
H801 H 0.98871 0.96269 0.70185 0.0
H802 H 0.94596 0.9143 0.68243 0.0
H803 H 0.97153 0.88715 0.70065 0.0
H804 H 0.724 0.47052 0.15486 0.0
H805 H 0.70065 0.49751 0.17382 0.0
H806 H 0.59367 0.49358 0.14904 0.0
H807 H 0.61634 0.46607 0.13045 0.0
H808 H 0.67192 0.53549 0.16609 0.0
H809 H 0.56752 0.48713 0.19992 0.0
H810 H 0.60365 0.4764 0.18664 0.0
H811 H 0.56254 0.48678 0.17691 0.0
C812 C 0.69539 0.47526 0.15355 0.0
C813 C 0.67193 0.46602 0.14123 0.0
C814 C 0.68218 0.49077 0.16432 0.0
C815 C 0.64526 0.49727 0.16304 0.0
C816 C 0.62204 0.48848 0.15047 0.0
H817 H 0.54752 0.60883 0.2009 0.0
H818 H 0.57587 0.58148 0.18403 0.0
C819 C 0.6352 0.47295 0.13971 0.0
C820 C 0.63114 0.5134 0.17473 0.0
H821 H 0.56387 0.52326 0.20451 0.0
C822 C 0.64843 0.5328 0.17457 0.0
C823 C 0.60097 0.50972 0.18602 0.0
C824 C 0.5828 0.48882 0.18756 0.0
C825 C 0.63563 0.54884 0.18504 0.0
C826 C 0.60426 0.54545 0.19567 0.0
C827 C 0.58768 0.52588 0.19621 0.0
C828 C 0.58761 0.56213 0.20602 0.0
C829 C 0.65601 0.56919 0.18471 0.0
C830 C 0.58385 0.56009 0.22394 0.0
C831 C 0.56709 0.57558 0.23361 0.0
C832 C 0.55376 0.59336 0.22549 0.0
C833 C 0.5575 0.59531 0.20754 0.0
C834 C 0.57405 0.57979 0.19789 0.0
H835 H 0.68507 0.56743 0.18016 0.0
H836 H 0.64172 0.57973 0.1757 0.0
H837 H 0.65648 0.57643 0.19767 0.0
H838 H 0.59388 0.54649 0.23044 0.0
H839 H 0.56429 0.57358 0.2474 0.0
H840 H 0.34597 0.49108 0.38894 0.0
H841 H 0.37021 0.51926 0.37118 0.0
H842 H 0.35924 0.48148 0.32582 0.0
H843 H 0.33592 0.45311 0.34341 0.0
H844 H 0.43436 0.51834 0.34875 0.0
H845 H 0.30422 0.53535 0.31331 0.0
H846 H 0.30474 0.52099 0.33323 0.0
H847 H 0.3174 0.50877 0.31335 0.0
C848 C 0.34892 0.48869 0.3752 0.0
C849 C 0.33873 0.46981 0.36762 0.0
C850 C 0.36255 0.50487 0.36507 0.0
C851 C 0.36592 0.50255 0.34717 0.0
C852 C 0.35607 0.48373 0.33957 0.0
H853 H 0.44992 0.57361 0.26137 0.0
H854 H 0.42225 0.54774 0.28064 0.0
C855 C 0.34264 0.46754 0.34967 0.0
C856 C 0.38091 0.51952 0.33643 0.0
H857 H 0.3594 0.55142 0.303 0.0
C858 C 0.41791 0.52575 0.33887 0.0
C859 C 0.35939 0.52901 0.32348 0.0
C860 C 0.31912 0.52336 0.32072 0.0
C861 C 0.43431 0.54087 0.32836 0.0
C862 C 0.41289 0.55027 0.31532 0.0
C863 C 0.37575 0.54419 0.31301 0.0
C864 C 0.42878 0.56614 0.3037 0.0
C865 C 0.47486 0.54605 0.33077 0.0
C866 C 0.44108 0.58514 0.31024 0.0
C867 C 0.4563 0.59997 0.29921 0.0
C868 C 0.45931 0.59598 0.28152 0.0
C869 C 0.44707 0.57706 0.27495 0.0
C870 C 0.43155 0.56229 0.28594 0.0
H871 H 0.48913 0.53474 0.33914 0.0
H872 H 0.48912 0.54655 0.3181 0.0
H873 H 0.47764 0.56143 0.33683 0.0
H874 H 0.43878 0.58852 0.32386 0.0
H875 H 0.46591 0.6145 0.30448 0.0
H876 H 0.16984 0.04815 0.84251 0.0
H877 H 0.14533 0.0201 0.8248 0.0
H878 H 0.15771 0.97819 0.86738 0.0
H879 H 0.18275 0.00612 0.88518 0.0
H880 H 0.17811 0.98182 0.81596 0.0
H881 H 0.04734 0.97228 0.85329 0.0
H882 H 0.07691 0.99468 0.85533 0.0
H883 H 0.08929 0.97108 0.86577 0.0
C884 C 0.1678 0.03292 0.84806 0.0
C885 C 0.17818 0.02938 0.86528 0.0
C886 C 0.15362 0.01695 0.83794 0.0
C887 C 0.14932 0.99717 0.84486 0.0
C888 C 0.16023 0.99345 0.86192 0.0
H889 H 0.10022 0.88366 0.78981 0.0
H890 H 0.12974 0.91096 0.80681 0.0
C891 C 0.17446 0.00942 0.87206 0.0
C892 C 0.13312 0.98052 0.83421 0.0
H893 H 0.05823 0.94825 0.83102 0.0
C894 C 0.15195 0.97443 0.81924 0.0
C895 C 0.09876 0.97114 0.83846 0.0
C896 C 0.07664 0.97769 0.854 0.0
C897 C 0.13743 0.95902 0.80846 0.0
C898 C 0.10342 0.94942 0.81289 0.0
C899 C 0.08445 0.9556 0.82777 0.0
C900 C 0.08656 0.93318 0.80206 0.0
C901 C 0.15806 0.95339 0.79223 0.0
C902 C 0.05252 0.93666 0.79384 0.0
C903 C 0.03583 0.9212 0.784 0.0
C904 C 0.05267 0.9019 0.78243 0.0
C905 C 0.08684 0.89847 0.79064 0.0
C906 C 0.10369 0.91401 0.80036 0.0
H907 H 0.17986 0.96491 0.78895 0.0
H908 H 0.17162 0.93829 0.79404 0.0
H909 H 0.13856 0.95196 0.7812 0.0
H910 H 0.03892 0.95138 0.79504 0.0
H911 H 0.00973 0.92436 0.77764 0.0
H912 H 0.15287 0.15415 1.00167 0.0
H913 H 0.13484 0.15635 0.03207 0.0
H914 H 0.17565 0.09511 0.04063 0.0
H915 H 0.1944 0.0929 0.01039 0.0
H916 H 0.08619 0.12823 0.05237 0.0
H917 H 0.2322 0.1332 0.0756 0.0
H918 H 0.21957 0.13824 0.0535 0.0
H919 H 0.22156 0.11228 0.06124 0.0
C920 C 0.15816 0.14119 0.01005 0.0
C921 C 0.17523 0.12339 0.00366 0.0
C922 C 0.14755 0.14241 0.02735 0.0
C923 C 0.15411 0.12592 0.03854 0.0
C924 C 0.17055 0.10802 0.03217 0.0
H925 H 0.0895 0.10775 0.14583 0.0
H926 H 0.09283 0.10483 0.11432 0.0
C927 C 0.18104 0.10675 0.01488 0.0
C928 C 0.14511 0.12776 0.05705 0.0
H929 H 0.18526 0.13146 0.09673 0.0
C930 C 0.10775 0.12891 0.06212 0.0
C931 C 0.17341 0.12877 0.06963 0.0
C932 C 0.21399 0.12822 0.0648 0.0
C933 C 0.09798 0.13096 0.07957 0.0
C934 C 0.12633 0.13184 0.09212 0.0
C935 C 0.16362 0.1307 0.08702 0.0
C936 C 0.11843 0.1347 0.11066 0.0
C937 C 0.05762 0.13255 0.08447 0.0
C938 C 0.13094 0.15262 0.1189 0.0
C939 C 0.12899 0.15434 0.13678 0.0
C940 C 0.11482 0.13807 0.14679 0.0
C941 C 0.10033 0.12057 0.13844 0.0
C942 C 0.10225 0.11888 0.12047 0.0
H943 H 0.03952 0.13494 0.07307 0.0
H944 H 0.0487 0.11815 0.09098 0.0
H945 H 0.05351 0.14541 0.09366 0.0
H946 H 0.14345 0.165 0.11152 0.0
H947 H 0.13983 0.16814 0.14283 0.0
H948 H 0.34742 0.33896 0.50282 0.0
H949 H 0.36399 0.3358 0.53337 0.0
H950 H 0.32992 0.39829 0.54206 0.0
H951 H 0.31266 0.40147 0.51174 0.0
H952 H 0.41587 0.36073 0.55277 0.0
H953 H 0.27274 0.36455 0.5789 0.0
H954 H 0.2823 0.35881 0.55657 0.0
H955 H 0.28417 0.3849 0.56415 0.0
C956 C 0.3431 0.35196 0.51129 0.0
C957 C 0.32863 0.37046 0.50485 0.0
C958 C 0.35279 0.35016 0.52869 0.0
C959 C 0.34777 0.36673 0.54 0.0
C960 C 0.33353 0.38522 0.5336 0.0
H961 H 0.43111 0.40676 0.63606 0.0
H962 H 0.42262 0.39692 0.60588 0.0
C963 C 0.32401 0.38707 0.51622 0.0
C964 C 0.35792 0.36498 0.55846 0.0
H965 H 0.32221 0.36956 0.59899 0.0
C966 C 0.39537 0.36237 0.5629 0.0
C967 C 0.33107 0.36684 0.57164 0.0
C968 C 0.29026 0.36874 0.56763 0.0
C969 C 0.4069 0.36264 0.58021 0.0
C970 C 0.38029 0.3657 0.59334 0.0
C971 C 0.34262 0.36726 0.58891 0.0
C972 C 0.39099 0.36932 0.61156 0.0
C973 C 0.4475 0.35998 0.58429 0.0
C974 C 0.37659 0.35689 0.62482 0.0
C975 C 0.3817 0.36244 0.64212 0.0
C976 C 0.40074 0.38068 0.64633 0.0
C977 C 0.4166 0.39254 0.63309 0.0
C978 C 0.41186 0.38689 0.61587 0.0
H979 H 0.46217 0.35181 0.57376 0.0
H980 H 0.4607 0.37534 0.58582 0.0
H981 H 0.45127 0.35133 0.59649 0.0
H982 H 0.36012 0.34337 0.62176 0.0
H983 H 0.3688 0.35323 0.65212 0.0
H984 H 0.62531 0.38403 0.00545 0.0
H985 H 0.60716 0.38102 0.97517 0.0
H986 H 0.71649 0.35919 0.96249 0.0
H987 H 0.73496 0.36223 0.99272 0.0
H988 H 0.63676 0.39881 0.94493 0.0
H989 H 0.64739 0.3138 0.94426 0.0
H990 H 0.64735 0.32852 0.96396 0.0
H991 H 0.68897 0.32672 0.95127 0.0
C992 C 0.64563 0.37877 0.9962 0.0
C993 C 0.68154 0.37322 1.00155 0.0
C994 C 0.63516 0.37702 0.97891 0.0
C995 C 0.6603 0.36962 0.96663 0.0
C996 C 0.69642 0.36455 0.97182 0.0
H997 H 0.64998 0.3695 0.85496 0.0
H998 H 0.65851 0.37997 0.8851 0.0
C999 C 0.7069 0.36624 0.98911 0.0
C1000 C 0.64849 0.36669 0.94847 0.0
H1001 H 0.63847 0.33011 0.91731 0.0
C1002 C 0.63693 0.38379 0.93887 0.0
C1003 C 0.64819 0.34705 0.94069 0.0
C1004 C 0.65829 0.32793 0.9506 0.0
C1005 C 0.62583 0.3818 0.92156 0.0
C1006 C 0.6268 0.36223 0.91362 0.0
C1007 C 0.63779 0.34513 0.92336 0.0
C1008 C 0.61709 0.35886 0.89521 0.0
C1009 C 0.61274 0.40059 0.91204 0.0
C1010 C 0.59064 0.34377 0.89079 0.0
C1011 C 0.58613 0.33767 0.87366 0.0
C1012 C 0.60772 0.34669 0.86062 0.0
C1013 C 0.63255 0.36265 0.86481 0.0
C1014 C 0.63736 0.36863 0.88202 0.0
H1015 H 0.60316 0.4127 0.92106 0.0
H1016 H 0.63612 0.40706 0.90442 0.0
H1017 H 0.58974 0.39671 0.90304 0.0
H1018 H 0.57476 0.33598 0.90073 0.0
H1019 H 0.56717 0.32515 0.8707 0.0
H1020 H 0.85205 0.15391 0.50366 0.0
H1021 H 0.86888 0.15622 0.47316 0.0
H1022 H 0.81906 0.09675 0.46403 0.0
H1023 H 0.80148 0.09447 0.49447 0.0
H1024 H 0.9135 0.12772 0.4532 0.0
H1025 H 0.76934 0.13536 0.42824 0.0
H1026 H 0.781 0.13987 0.45055 0.0
H1027 H 0.77795 0.11409 0.44244 0.0
C1028 C 0.84432 0.14141 0.49513 0.0
C1029 C 0.82521 0.12406 0.50148 0.0
C1030 C 0.85423 0.14268 0.47774 0.0
C1031 C 0.84495 0.12674 0.46632 0.0
C1032 C 0.82614 0.10932 0.4726 0.0
H1033 H 0.86827 0.12921 0.35343 0.0
H1034 H 0.85905 0.1157 0.38275 0.0
C1035 C 0.81637 0.10798 0.49001 0.0
C1036 C 0.85489 0.12849 0.44784 0.0
H1037 H 0.81759 0.13552 0.40784 0.0
C1038 C 0.89256 0.12928 0.44325 0.0
C1039 C 0.8275 0.13032 0.43488 0.0
C1040 C 0.78664 0.13002 0.43918 0.0
C1041 C 0.9036 0.13226 0.42606 0.0
C1042 C 0.87623 0.13494 0.41319 0.0
C1043 C 0.83855 0.1334 0.4177 0.0
C1044 C 0.88585 0.14149 0.3954 0.0
C1045 C 0.94449 0.13262 0.42186 0.0
C1046 C 0.90431 0.1603 0.39279 0.0
C1047 C 0.90948 0.16799 0.37617 0.0
C1048 C 0.89616 0.15709 0.36177 0.0
C1049 C 0.87903 0.13784 0.3643 0.0
C1050 C 0.87362 0.13018 0.38101 0.0
H1051 H 0.96067 0.12372 0.43145 0.0
H1052 H 0.94985 0.12627 0.40883 0.0
H1053 H 0.95478 0.14874 0.4222 0.0
H1054 H 0.91338 0.1695 0.40366 0.0
H1055 H 0.92297 0.18281 0.37459 0.0
H1056 H 0.787 0.90501 0.9925 0.0
H1057 H 0.80649 0.90391 0.96234 0.0
H1058 H 0.86763 0.84844 0.97231 0.0
H1059 H 0.84764 0.84929 1.00246 0.0
H1060 H 0.87544 0.90666 0.9502 0.0
H1061 H 0.81285 0.83286 0.92882 0.0
H1062 H 0.80031 0.84505 0.94886 0.0
H1063 H 0.84215 0.83024 0.94738 0.0
C1064 C 0.8044 0.8925 0.98823 0.0
C1065 C 0.81581 0.87723 0.99983 0.0
C1066 C 0.81542 0.89185 0.97099 0.0
C1067 C 0.83813 0.87595 0.96499 0.0
C1068 C 0.84933 0.86057 0.97652 0.0
H1069 H 0.97596 0.88794 0.87367 0.0
H1070 H 0.95237 0.88333 0.90299 0.0
C1071 C 0.83802 0.86111 0.99376 0.0
C1072 C 0.85198 0.87635 0.94698 0.0
H1073 H 0.85668 0.84849 0.90973 0.0
C1074 C 0.87117 0.89396 0.94134 0.0
C1075 C 0.84608 0.85987 0.93536 0.0
C1076 C 0.8239 0.84102 0.94033 0.0
C1077 C 0.8849 0.89552 0.92448 0.0
C1078 C 0.88026 0.87874 0.91305 0.0
C1079 C 0.86064 0.86121 0.91858 0.0
C1080 C 0.89503 0.8794 0.89522 0.0
C1081 C 0.90356 0.91532 0.919 0.0
C1082 C 0.8709 0.87769 0.88108 0.0
C1083 C 0.8844 0.8801 0.86429 0.0
C1084 C 0.92223 0.88433 0.86139 0.0
C1085 C 0.94655 0.88512 0.87555 0.0
C1086 C 0.93311 0.88252 0.89229 0.0
H1087 H 0.89565 0.92835 0.92746 0.0
H1088 H 0.93411 0.91355 0.91984 0.0
H1089 H 0.89633 0.91929 0.9055 0.0
H1090 H 0.84144 0.87516 0.88306 0.0
H1091 H 0.86501 0.87945 0.85363 0.0
H1092 H 0.74503 0.62716 0.49001 0.0
H1093 H 0.72625 0.62863 0.45967 0.0
H1094 H 0.61158 0.62143 0.47465 0.0
H1095 H 0.63004 0.62029 0.50496 0.0
H1096 H 0.6871 0.59713 0.44198 0.0
H1097 H 0.60999 0.6706 0.44109 0.0
H1098 H 0.64233 0.66407 0.45797 0.0
H1099 H 0.59619 0.65334 0.45803 0.0
C1100 C 0.71578 0.62624 0.48684 0.0
C1101 C 0.68899 0.6236 0.49985 0.0
C1102 C 0.70513 0.627 0.46953 0.0
C1103 C 0.66752 0.6254 0.46497 0.0
C1104 C 0.6407 0.62304 0.47793 0.0
H1105 H 0.54585 0.59593 0.37318 0.0
H1106 H 0.56847 0.60182 0.40256 0.0
C1107 C 0.65132 0.62217 0.49521 0.0
C1108 C 0.65637 0.62483 0.44662 0.0
H1109 H 0.60171 0.64849 0.41675 0.0
C1110 C 0.66879 0.60849 0.4364 0.0
C1111 C 0.63251 0.6397 0.43941 0.0
C1112 C 0.6197 0.65804 0.44962 0.0
C1113 C 0.65699 0.60626 0.41928 0.0
C1114 C 0.63231 0.62075 0.41226 0.0
C1115 C 0.62052 0.63737 0.42229 0.0
C1116 C 0.61779 0.6184 0.3946 0.0
C1117 C 0.67015 0.58819 0.40883 0.0
C1118 C 0.63803 0.62598 0.38052 0.0
C1119 C 0.62534 0.62256 0.36373 0.0
C1120 C 0.59223 0.61145 0.36078 0.0
C1121 C 0.5717 0.60427 0.37501 0.0
C1122 C 0.58439 0.60774 0.39178 0.0
H1123 H 0.68935 0.57821 0.41619 0.0
H1124 H 0.6459 0.57882 0.40459 0.0
H1125 H 0.68459 0.59376 0.39707 0.0
H1126 H 0.66397 0.63418 0.38253 0.0
H1127 H 0.64198 0.62812 0.35306 0.0
H1128 H 0.32049 0.65831 0.00848 0.0
H1129 H 0.33668 0.66152 0.03896 0.0
H1130 H 0.34425 0.59569 0.04313 0.0
H1131 H 0.32673 0.59215 0.01278 0.0
H1132 H 0.29457 0.63594 0.06884 0.0
H1133 H 0.44749 0.62658 0.06148 0.0
H1134 H 0.4195 0.63713 0.04435 0.0
H1135 H 0.41602 0.61034 0.04941 0.0
C1136 C 0.32509 0.64445 0.01587 0.0
C1137 C 0.32216 0.62495 0.00809 0.0
C1138 C 0.33464 0.64635 0.03326 0.0
C1139 C 0.34182 0.62885 0.04319 0.0
C1140 C 0.33907 0.60938 0.03558 0.0
H1141 H 0.36478 0.63032 0.15624 0.0
H1142 H 0.35488 0.61762 0.12672 0.0
C1143 C 0.32925 0.60742 0.01821 0.0
C1144 C 0.35145 0.63108 0.06163 0.0
H1145 H 0.42502 0.63387 0.08933 0.0
C1146 C 0.32299 0.63524 0.07341 0.0
C1147 C 0.38858 0.63021 0.06742 0.0
C1148 C 0.4199 0.62587 0.05509 0.0
C1149 C 0.33082 0.63901 0.09086 0.0
C1150 C 0.36806 0.63854 0.09663 0.0
C1151 C 0.39649 0.63403 0.08488 0.0
C1152 C 0.37805 0.64469 0.11444 0.0
C1153 C 0.29941 0.64427 0.1029 0.0
C1154 C 0.39538 0.66375 0.11726 0.0
C1155 C 0.40084 0.67103 0.134 0.0
C1156 C 0.38936 0.6593 0.14828 0.0
C1157 C 0.37389 0.63967 0.14548 0.0
C1158 C 0.36809 0.63246 0.12865 0.0
H1159 H 0.2728 0.64653 0.09594 0.0
H1160 H 0.2955 0.63162 0.11233 0.0
H1161 H 0.30614 0.65847 0.11023 0.0
H1162 H 0.40337 0.67338 0.10647 0.0
H1163 H 0.41327 0.6861 0.1358 0.0
H1164 H 0.18169 0.83878 0.5079 0.0
H1165 H 0.16346 0.83661 0.53821 0.0
H1166 H 0.16726 0.90266 0.54213 0.0
H1167 H 0.18633 0.90503 0.51196 0.0
H1168 H 0.20421 0.85304 0.56721 0.0
H1169 H 0.06276 0.8861 0.56123 0.0
H1170 H 0.08791 0.87609 0.54297 0.0
H1171 H 0.10022 0.9007 0.55181 0.0
C1172 C 0.17899 0.85286 0.51522 0.0
C1173 C 0.1854 0.87208 0.50744 0.0
C1174 C 0.16828 0.85159 0.5325 0.0
C1175 C 0.16348 0.86949 0.5423 0.0
C1176 C 0.17007 0.88869 0.53467 0.0
H1177 H 0.13936 0.87454 0.65464 0.0
H1178 H 0.14756 0.88576 0.62456 0.0
C1179 C 0.18094 0.88998 0.51741 0.0
C1180 C 0.15298 0.86794 0.5607 0.0
H1181 H 0.08303 0.87753 0.58932 0.0
C1182 C 0.17783 0.8585 0.57207 0.0
C1183 C 0.11852 0.87511 0.56696 0.0
C1184 C 0.09058 0.88496 0.55514 0.0
C1185 C 0.169 0.85586 0.58952 0.0
C1186 C 0.13441 0.86277 0.59573 0.0
C1187 C 0.10965 0.87244 0.58447 0.0
C1188 C 0.12284 0.85832 0.6136 0.0
C1189 C 0.19628 0.84529 0.60123 0.0
C1190 C 0.10517 0.83956 0.61725 0.0
C1191 C 0.10076 0.83312 0.63428 0.0
C1192 C 0.11367 0.84543 0.64792 0.0
C1193 C 0.12888 0.86491 0.64431 0.0
C1194 C 0.13364 0.87128 0.6272 0.0
H1195 H 0.22241 0.84123 0.59448 0.0
H1196 H 0.20314 0.85542 0.61231 0.0
H1197 H 0.18351 0.83102 0.60648 0.0
H1198 H 0.09683 0.82935 0.60689 0.0
H1199 H 0.089 0.81804 0.63679 0.0
H1200 H 0.14916 0.28971 0.39057 0.0
H1201 H 0.12129 0.26231 0.37304 0.0
H1202 H 0.17552 0.28677 0.32787 0.0
H1203 H 0.20463 0.31356 0.34531 0.0
H1204 H 0.07424 0.26483 0.34495 0.0
H1205 H 0.20549 0.22692 0.32632 0.0
H1206 H 0.20321 0.24569 0.3434 0.0
H1207 H 0.20508 0.25381 0.32126 0.0
C1208 C 0.15555 0.28909 0.37695 0.0
C1209 C 0.17926 0.30384 0.36938 0.0
C1210 C 0.13938 0.27351 0.36693 0.0
C1211 C 0.14679 0.2723 0.3492 0.0
C1212 C 0.16998 0.28714 0.34159 0.0
H1213 H 0.07337 0.19799 0.26328 0.0
H1214 H 0.09966 0.22419 0.28234 0.0
C1215 C 0.18623 0.30264 0.35157 0.0
C1216 C 0.12991 0.25574 0.33854 0.0
H1217 H 0.1512 0.21677 0.31083 0.0
C1218 C 0.09104 0.2542 0.33761 0.0
C1219 C 0.15189 0.24186 0.32898 0.0
C1220 C 0.19372 0.24198 0.33014 0.0
C1221 C 0.07359 0.2395 0.32701 0.0
C1222 C 0.09562 0.22592 0.31724 0.0
C1223 C 0.13443 0.22731 0.31829 0.0
C1224 C 0.07899 0.21017 0.30575 0.0
C1225 C 0.03177 0.23891 0.32599 0.0
C1226 C 0.05885 0.19355 0.31261 0.0
C1227 C 0.04435 0.17833 0.30175 0.0
C1228 C 0.04977 0.17946 0.28381 0.0
C1229 C 0.06945 0.19635 0.27701 0.0
C1230 C 0.08425 0.21144 0.28788 0.0
H1231 H 0.01913 0.25293 0.33157 0.0
H1232 H 0.02247 0.23729 0.31241 0.0
H1233 H 0.02119 0.2254 0.33326 0.0
H1234 H 0.05482 0.19219 0.3264 0.0
H1235 H 0.02915 0.1656 0.30744 0.0
H1236 H 0.28346 0.21848 0.8752 0.0
H1237 H 0.31023 0.24531 0.85674 0.0
H1238 H 0.4079 0.20847 0.84923 0.0
H1239 H 0.38107 0.1815 0.86745 0.0
H1240 H 0.37436 0.26816 0.85857 0.0
H1241 H 0.3755 0.21913 0.80013 0.0
H1242 H 0.35124 0.21178 0.81954 0.0
H1243 H 0.40062 0.20827 0.81784 0.0
C1244 C 0.31081 0.21622 0.86975 0.0
C1245 C 0.33004 0.19782 0.87262 0.0
C1246 C 0.32599 0.23151 0.85916 0.0
C1247 C 0.36066 0.22867 0.85129 0.0
C1248 C 0.38063 0.21071 0.85477 0.0
H1249 H 0.50285 0.29898 0.78369 0.0
H1250 H 0.47465 0.27413 0.80341 0.0
C1251 C 0.36535 0.19536 0.86522 0.0
C1252 C 0.37577 0.24439 0.83929 0.0
H1253 H 0.40718 0.25125 0.79815 0.0
C1254 C 0.38132 0.26452 0.84533 0.0
C1255 C 0.38464 0.2396 0.82198 0.0
C1256 C 0.37737 0.21858 0.81441 0.0
C1257 C 0.39645 0.27987 0.83465 0.0
C1258 C 0.40587 0.27496 0.81746 0.0
C1259 C 0.40001 0.25491 0.81137 0.0
C1260 C 0.42264 0.29028 0.80565 0.0
C1261 C 0.40313 0.30107 0.84193 0.0
C1262 C 0.40255 0.30751 0.80027 0.0
C1263 C 0.4186 0.3218 0.789 0.0
C1264 C 0.45491 0.31899 0.78281 0.0
C1265 C 0.47484 0.30164 0.7882 0.0
C1266 C 0.45877 0.28739 0.79945 0.0
H1267 H 0.40158 0.30122 0.85623 0.0
H1268 H 0.43074 0.3071 0.83792 0.0
H1269 H 0.3817 0.31165 0.8369 0.0
H1270 H 0.37441 0.30986 0.80473 0.0
H1271 H 0.40267 0.3351 0.78527 0.0
H1272 H 0.66323 0.17679 0.65593 0.0
H1273 H 0.63392 0.2038 0.67292 0.0
H1274 H 0.67282 0.24938 0.63681 0.0
H1275 H 0.70345 0.22256 0.61993 0.0
H1276 H 0.68016 0.24446 0.68473 0.0
H1277 H 0.55123 0.25429 0.64596 0.0
H1278 H 0.57494 0.22994 0.64688 0.0
H1279 H 0.59518 0.25095 0.63519 0.0
C1280 C 0.66588 0.19256 0.65161 0.0
C1281 C 0.68605 0.19747 0.6366 0.0
C1282 C 0.64886 0.20793 0.6613 0.0
C1283 C 0.65125 0.2285 0.65608 0.0
C1284 C 0.67058 0.23353 0.64095 0.0
H1285 H 0.5477 0.33756 0.69946 0.0
H1286 H 0.57814 0.31271 0.68054 0.0
C1287 C 0.68786 0.21815 0.63129 0.0
C1288 C 0.63456 0.24473 0.66685 0.0
H1289 H 0.55781 0.27474 0.6708 0.0
C1290 C 0.65347 0.25117 0.68171 0.0
C1291 C 0.59997 0.25347 0.66272 0.0
C1292 C 0.57885 0.24689 0.64685 0.0
C1293 C 0.6386 0.26621 0.69263 0.0
C1294 C 0.60334 0.27457 0.68882 0.0
C1295 C 0.58472 0.26828 0.67377 0.0
C1296 C 0.58509 0.28966 0.70036 0.0
C1297 C 0.66119 0.27324 0.70795 0.0
C1298 C 0.57835 0.28488 0.71773 0.0
C1299 C 0.56132 0.29911 0.72858 0.0
C1300 C 0.5501 0.31829 0.72221 0.0
C1301 C 0.55607 0.3229 0.70473 0.0
C1302 C 0.57347 0.30873 0.69392 0.0
H1303 H 0.69127 0.27041 0.70599 0.0
H1304 H 0.65725 0.28986 0.71054 0.0
H1305 H 0.65229 0.26447 0.71951 0.0
H1306 H 0.58601 0.27005 0.72289 0.0
H1307 H 0.55658 0.29499 0.74193 0.0
H1308 H 0.79247 0.27634 0.12703 0.0
H1309 H 0.8202 0.25 0.14547 0.0
H1310 H 0.89636 0.29506 0.16618 0.0
H1311 H 0.86957 0.32135 0.14756 0.0
H1312 H 0.90206 0.23892 0.14859 0.0
H1313 H 0.83764 0.26906 0.20856 0.0
H1314 H 0.81956 0.27481 0.1874 0.0
H1315 H 0.86108 0.28734 0.19488 0.0
C1316 C 0.81553 0.28058 0.13529 0.0
C1317 C 0.82858 0.30101 0.13592 0.0
C1318 C 0.83115 0.26554 0.14589 0.0
C1319 C 0.85987 0.27071 0.15734 0.0
C1320 C 0.87377 0.29088 0.15762 0.0
H1321 H 0.97362 0.20734 0.24016 0.0
H1322 H 0.94624 0.23262 0.22055 0.0
C1323 C 0.85834 0.30588 0.147 0.0
C1324 C 0.87517 0.25511 0.16918 0.0
H1325 H 0.87941 0.24161 0.2116 0.0
C1326 C 0.89708 0.23939 0.16236 0.0
C1327 C 0.86886 0.256 0.18712 0.0
C1328 C 0.84533 0.27261 0.19501 0.0
C1329 C 0.91359 0.22469 0.1731 0.0
C1330 C 0.90675 0.22529 0.1911 0.0
C1331 C 0.88462 0.24105 0.19785 0.0
C1332 C 0.92259 0.20992 0.20319 0.0
C1333 C 0.93923 0.20918 0.16502 0.0
C1334 C 0.91774 0.18876 0.20025 0.0
C1335 C 0.93428 0.17441 0.21113 0.0
C1336 C 0.95467 0.18096 0.22555 0.0
C1337 C 0.95795 0.20202 0.22908 0.0
C1338 C 0.94234 0.21641 0.21789 0.0
H1339 H 0.95089 0.21491 0.15265 0.0
H1340 H 0.96262 0.20536 0.17373 0.0
H1341 H 0.92336 0.19489 0.16218 0.0
H1342 H 0.90134 0.1833 0.18947 0.0
H1343 H 0.93086 0.15818 0.2084 0.0
H1344 H 0.8794 0.67566 0.64476 0.0
H1345 H 0.90514 0.70315 0.6628 0.0
H1346 H 0.82598 0.74561 0.64168 0.0
H1347 H 0.79958 0.71811 0.62379 0.0
H1348 H 0.93415 0.74368 0.6519 0.0
H1349 H 0.81145 0.74772 0.69536 0.0
H1350 H 0.82026 0.72574 0.68178 0.0
H1351 H 0.80261 0.74898 0.67257 0.0
C1352 C 0.86743 0.69085 0.64397 0.0
C1353 C 0.83729 0.6947 0.63294 0.0
C1354 C 0.88227 0.70653 0.65421 0.0
C1355 C 0.86709 0.72628 0.6537 0.0
C1356 C 0.83772 0.73037 0.64238 0.0
H1357 H 0.91038 0.83454 0.7168 0.0
H1358 H 0.88415 0.8094 0.69663 0.0
C1359 C 0.82294 0.7147 0.63206 0.0
C1360 C 0.88181 0.74249 0.66521 0.0
H1361 H 0.8604 0.77109 0.70064 0.0
C1362 C 0.9181 0.74975 0.66255 0.0
C1363 C 0.86058 0.75037 0.67898 0.0
C1364 C 0.82162 0.74277 0.68251 0.0
C1365 C 0.93377 0.76486 0.67327 0.0
C1366 C 0.9129 0.77239 0.68736 0.0
C1367 C 0.8764 0.76526 0.68988 0.0
C1368 C 0.92855 0.78748 0.69977 0.0
C1369 C 0.97223 0.77283 0.66914 0.0
C1370 C 0.96171 0.7833 0.70855 0.0
C1371 C 0.97698 0.79774 0.71986 0.0
C1372 C 0.9589 0.81643 0.72292 0.0
C1373 C 0.92499 0.82029 0.71463 0.0
C1374 C 0.90999 0.80595 0.70312 0.0
H1375 H 0.9791 0.77064 0.65531 0.0
H1376 H 0.97511 0.78941 0.67228 0.0
H1377 H 0.99288 0.76419 0.6768 0.0
H1378 H 0.97582 0.76885 0.70668 0.0
H1379 H 0.00279 0.79417 0.72632 0.0
H1380 H 0.64884 0.7892 0.11371 0.0
H1381 H 0.62026 0.76191 0.13114 0.0
H1382 H 0.66844 0.78826 0.177 0.0
H1383 H 0.69808 0.81512 0.15976 0.0
H1384 H 0.66178 0.73398 0.15674 0.0
H1385 H 0.55115 0.78263 0.18514 0.0
H1386 H 0.57372 0.7889 0.16499 0.0
H1387 H 0.59756 0.79312 0.18499 0.0
C1388 C 0.65369 0.78909 0.12747 0.0
C1389 C 0.67556 0.80449 0.13533 0.0
C1390 C 0.63716 0.77356 0.1374 0.0
C1391 C 0.64195 0.77329 0.15533 0.0
C1392 C 0.66402 0.78843 0.16319 0.0
H1393 H 0.56084 0.70259 0.24162 0.0
H1394 H 0.58791 0.72816 0.22224 0.0
C1395 C 0.68075 0.80383 0.1533 0.0
C1396 C 0.62435 0.75708 0.16595 0.0
H1397 H 0.55759 0.74915 0.19645 0.0
C1398 C 0.6388 0.73717 0.16534 0.0
C1399 C 0.5947 0.76147 0.17723 0.0
C1400 C 0.57806 0.78264 0.17814 0.0
C1401 C 0.62494 0.72155 0.17611 0.0
C1402 C 0.59509 0.72589 0.18739 0.0
C1403 C 0.58041 0.74582 0.18781 0.0
C1404 C 0.57909 0.71013 0.19912 0.0
C1405 C 0.64338 0.70081 0.17574 0.0
C1406 C 0.56466 0.69159 0.1926 0.0
C1407 C 0.55016 0.6767 0.20376 0.0
C1408 C 0.54926 0.68021 0.22163 0.0
C1409 C 0.56237 0.69911 0.22804 0.0
C1410 C 0.57742 0.71385 0.21692 0.0
H1411 H 0.6719 0.7018 0.17033 0.0
H1412 H 0.64496 0.69403 0.18884 0.0
H1413 H 0.62696 0.69025 0.16743 0.0
H1414 H 0.56451 0.68863 0.17888 0.0
H1415 H 0.53976 0.66243 0.19836 0.0
H1416 H 0.37429 0.82472 0.35971 0.0
H1417 H 0.40048 0.79914 0.34026 0.0
H1418 H 0.32604 0.75313 0.36093 0.0
H1419 H 0.2986 0.77886 0.37998 0.0
H1420 H 0.43557 0.76314 0.34636 0.0
H1421 H 0.30598 0.74895 0.30947 0.0
H1422 H 0.3113 0.77025 0.32417 0.0
H1423 H 0.30094 0.74493 0.33223 0.0
C1424 C 0.36327 0.80919 0.36005 0.0
C1425 C 0.33399 0.80391 0.37125 0.0
C1426 C 0.37843 0.79456 0.34898 0.0
C1427 C 0.36467 0.77434 0.34886 0.0
C1428 C 0.33648 0.76877 0.36051 0.0
H1429 H 0.47174 0.66848 0.30527 0.0
H1430 H 0.44539 0.69495 0.32358 0.0
C1431 C 0.32118 0.78343 0.37156 0.0
C1432 C 0.38003 0.75914 0.33658 0.0
H1433 H 0.35628 0.72642 0.30387 0.0
C1434 C 0.41825 0.75516 0.33703 0.0
C1435 C 0.35754 0.74905 0.32417 0.0
C1436 C 0.31673 0.75363 0.32231 0.0
C1437 C 0.43446 0.74102 0.32571 0.0
C1438 C 0.41168 0.73023 0.31384 0.0
C1439 C 0.37362 0.73457 0.31308 0.0
C1440 C 0.42673 0.71397 0.30249 0.0
C1441 C 0.47592 0.73795 0.32644 0.0
C1442 C 0.42378 0.71546 0.28448 0.0
C1443 C 0.43859 0.70015 0.27387 0.0
C1444 C 0.4565 0.6831 0.28113 0.0
C1445 C 0.4586 0.68151 0.29919 0.0
C1446 C 0.44369 0.69671 0.30973 0.0
H1447 H 0.49035 0.75142 0.33225 0.0
H1448 H 0.482 0.72434 0.33454 0.0
H1449 H 0.48758 0.73525 0.31339 0.0
H1450 H 0.41049 0.7286 0.27864 0.0
H1451 H 0.43645 0.70181 0.26002 0.0
H1452 H 0.23932 0.7087 0.86195 0.0
H1453 H 0.21027 0.73546 0.84453 0.0
H1454 H 0.10225 0.71545 0.86226 0.0
H1455 H 0.1316 0.6894 0.88042 0.0
H1456 H 0.16731 0.73276 0.81862 0.0
H1457 H 0.09051 0.77521 0.86871 0.0
H1458 H 0.12406 0.75582 0.874 0.0
H1459 H 0.07712 0.74864 0.86841 0.0
C1460 C 0.2094 0.71027 0.86229 0.0
C1461 C 0.18765 0.69714 0.87258 0.0
C1462 C 0.19279 0.72551 0.85231 0.0
C1463 C 0.15401 0.72777 0.85222 0.0
C1464 C 0.13224 0.71453 0.86248 0.0
H1465 H 0.04155 0.78924 0.76706 0.0
H1466 H 0.07036 0.76425 0.78636 0.0
C1467 C 0.14896 0.69955 0.87277 0.0
C1468 C 0.13654 0.74325 0.84071 0.0
H1469 H 0.07321 0.78197 0.83954 0.0
C1470 C 0.14699 0.74366 0.82326 0.0
C1471 C 0.11042 0.75773 0.84672 0.0
C1472 C 0.1002 0.75949 0.86552 0.0
C1473 C 0.13204 0.75796 0.81169 0.0
C1474 C 0.10432 0.77166 0.81749 0.0
C1475 C 0.09408 0.77136 0.83497 0.0
C1476 C 0.08602 0.78666 0.80579 0.0
C1477 C 0.14714 0.75855 0.79355 0.0
C1478 C 0.08342 0.80745 0.81057 0.0
C1479 C 0.06557 0.82153 0.79986 0.0
C1480 C 0.05074 0.81518 0.78401 0.0
C1481 C 0.05335 0.79449 0.77914 0.0
C1482 C 0.07012 0.78027 0.7901 0.0
H1483 H 0.17591 0.75255 0.793 0.0
H1484 H 0.12965 0.74862 0.78516 0.0
H1485 H 0.14729 0.7744 0.78825 0.0
H1486 H 0.09534 0.81283 0.82258 0.0
H1487 H 0.06398 0.83747 0.80381 0.0
loop_
_geom_bond_atom_site_label_1
_geom_bond_atom_site_label_2
_geom_bond_distance
_geom_bond_site_symmetry_2
_ccdc_geom_bond_type
C0 C1 1.384 . S
C0 H13 0.947 . S
C0 C35 1.382 . S
C1 C0 1.384 . S
C1 C2 1.378 . S
C2 C1 1.378 . S
C2 C3 1.378 . S
C2 H14 0.952 . S
C3 C2 1.378 . S
C3 H15 0.950 . S
C3 C34 1.383 . S
H4 C23 0.947 . S
H5 C24 0.946 . S
H6 C26 0.953 . S
H7 C27 0.945 . S
H8 C29 0.952 . S
H9 C30 0.949 . S
H10 C32 0.950 . S
H11 C33 0.948 . S
H12 C35 0.951 . S
H13 C0 0.947 . S
H14 C2 0.952 . S
H15 C3 0.950 . S
N16 C19 1.382 . S
N16 C21 1.363 . S
N17 C19 1.371 . S
N17 C20 1.372 . S
N18 C20 1.361 . S
N18 C21 1.377 . S
C19 N16 1.382 . S
C19 N17 1.371 . S
C19 C22 1.480 . S
C20 N17 1.372 . S
C20 N18 1.361 . S
C20 C28 1.457 . S
C21 N16 1.363 . S
C21 N18 1.377 . S
C21 C34 1.479 . S
C22 C19 1.480 . S
C22 C23 1.383 . S
C22 C27 1.385 . S
C23 H4 0.947 . S
C23 C22 1.383 . S
C23 C24 1.388 . S
C24 H5 0.946 . S
C24 C23 1.388 . S
C24 C25 1.384 . S
C25 C24 1.384 . S
C25 C26 1.377 . S
C26 H6 0.953 . S
C26 C25 1.377 . S
C26 C27 1.369 . S
C27 H7 0.945 . S
C27 C22 1.385 . S
C27 C26 1.369 . S
C28 C20 1.457 . S
C28 C29 1.372 . S
C28 C33 1.364 . S
C29 H8 0.952 . S
C29 C28 1.372 . S
C29 C30 1.389 . S
C30 H9 0.949 . S
C30 C29 1.389 . S
C30 C31 1.387 . S
C31 C30 1.387 . S
C31 C32 1.372 . S
C32 H10 0.950 . S
C32 C31 1.372 . S
C32 C33 1.379 . S
C33 H11 0.948 . S
C33 C28 1.364 . S
C33 C32 1.379 . S
C34 C3 1.383 . S
C34 C21 1.479 . S
C34 C35 1.398 . S
C35 C0 1.382 . S
C35 H12 0.951 . S
C35 C34 1.398 . S
C36 C37 1.384 . S
C36 H49 0.947 . S
C36 C71 1.382 . S
C37 C36 1.384 . S
C37 C38 1.378 . S
C38 C37 1.378 . S
C38 C39 1.378 . S
C38 H50 0.952 . S
C39 C38 1.378 . S
C39 H51 0.950 . S
C39 C70 1.383 . S
H40 C59 0.947 . S
H41 C60 0.946 . S
H42 C62 0.953 . S
H43 C63 0.945 . S
H44 C65 0.952 . S
H45 C66 0.949 . S
H46 C68 0.950 . S
H47 C69 0.948 . S
H48 C71 0.951 . S
H49 C36 0.947 . S
H50 C38 0.952 . S
H51 C39 0.950 . S
N52 C55 1.382 . S
N52 C57 1.363 . S
N53 C55 1.371 . S
N53 C56 1.372 . S
N54 C56 1.361 . S
N54 C57 1.377 . S
C55 N52 1.382 . S
C55 N53 1.371 . S
C55 C58 1.480 . S
C56 N53 1.372 . S
C56 N54 1.361 . S
C56 C64 1.457 . S
C57 N52 1.363 . S
C57 N54 1.377 . S
C57 C70 1.479 . S
C58 C55 1.480 . S
C58 C59 1.383 . S
C58 C63 1.385 . S
C59 H40 0.947 . S
C59 C58 1.383 . S
C59 C60 1.388 . S
C60 H41 0.946 . S
C60 C59 1.388 . S
C60 C61 1.384 . S
C61 C60 1.384 . S
C61 C62 1.377 . S
C62 H42 0.953 . S
C62 C61 1.377 . S
C62 C63 1.369 . S
C63 H43 0.945 . S
C63 C58 1.385 . S
C63 C62 1.369 . S
C64 C56 1.457 . S
C64 C65 1.372 . S
C64 C69 1.364 . S
C65 H44 0.952 . S
C65 C64 1.372 . S
C65 C66 1.389 . S
C66 H45 0.949 . S
C66 C65 1.389 . S
C66 C67 1.387 . S
C67 C66 1.387 . S
C67 C68 1.372 . S
C68 H46 0.950 . S
C68 C67 1.372 . S
C68 C69 1.379 . S
C69 H47 0.948 . S
C69 C64 1.364 . S
C69 C68 1.379 . S
C70 C39 1.383 . S
C70 C57 1.479 . S
C70 C71 1.398 . S
C71 C36 1.382 . S
C71 H48 0.951 . S
C71 C70 1.398 . S
C72 C73 1.384 . S
C72 H85 0.947 . S
C72 C107 1.382 . S
C73 C72 1.384 . S
C73 C74 1.378 . S
C74 C73 1.378 . S
C74 C75 1.378 . S
C74 H86 0.952 . S
C75 C74 1.378 . S
C75 H87 0.950 . S
C75 C106 1.383 . S
H76 C95 0.947 . S
H77 C96 0.946 . S
H78 C98 0.953 . S
H79 C99 0.945 . S
H80 C101 0.952 . S
H81 C102 0.949 . S
H82 C104 0.950 . S
H83 C105 0.948 . S
H84 C107 0.951 . S
H85 C72 0.947 . S
H86 C74 0.952 . S
H87 C75 0.950 . S
N88 C91 1.382 . S
N88 C93 1.363 . S
N89 C91 1.371 . S
N89 C92 1.372 . S
N90 C92 1.361 . S
N90 C93 1.377 . S
C91 N88 1.382 . S
C91 N89 1.371 . S
C91 C94 1.480 . S
C92 N89 1.372 . S
C92 N90 1.361 . S
C92 C100 1.457 . S
C93 N88 1.363 . S
C93 N90 1.377 . S
C93 C106 1.479 . S
C94 C91 1.480 . S
C94 C95 1.383 . S
C94 C99 1.385 . S
C95 H76 0.947 . S
C95 C94 1.383 . S
C95 C96 1.388 . S
C96 H77 0.946 . S
C96 C95 1.388 . S
C96 C97 1.384 . S
C97 C96 1.384 . S
C97 C98 1.377 . S
C98 H78 0.953 . S
C98 C97 1.377 . S
C98 C99 1.369 . S
C99 H79 0.945 . S
C99 C94 1.385 . S
C99 C98 1.369 . S
C100 C92 1.457 . S
C100 C101 1.372 . S
C100 C105 1.364 . S
C101 H80 0.952 . S
C101 C100 1.372 . S
C101 C102 1.389 . S
C102 H81 0.949 . S
C102 C101 1.389 . S
C102 C103 1.387 . S
C103 C102 1.387 . S
C103 C104 1.372 . S
C104 H82 0.950 . S
C104 C103 1.372 . S
C104 C105 1.379 . S
C105 H83 0.948 . S
C105 C100 1.364 . S
C105 C104 1.379 . S
C106 C75 1.383 . S
C106 C93 1.479 . S
C106 C107 1.398 . S
C107 C72 1.382 . S
C107 H84 0.951 . S
C107 C106 1.398 . S
C108 C109 1.384 . S
C108 H121 0.947 . S
C108 C143 1.382 . S
C109 C108 1.384 . S
C109 C110 1.378 . S
C110 C109 1.378 . S
C110 C111 1.378 . S
C110 H122 0.952 . S
C111 C110 1.378 . S
C111 H123 0.950 . S
C111 C142 1.383 . S
H112 C131 0.947 . S
H113 C132 0.946 . S
H114 C134 0.953 . S
H115 C135 0.945 . S
H116 C137 0.952 . S
H117 C138 0.949 . S
H118 C140 0.950 . S
H119 C141 0.948 . S
H120 C143 0.951 . S
H121 C108 0.947 . S
H122 C110 0.952 . S
H123 C111 0.950 . S
N124 C127 1.382 . S
N124 C129 1.363 . S
N125 C127 1.371 . S
N125 C128 1.372 . S
N126 C128 1.361 . S
N126 C129 1.377 . S
C127 N124 1.382 . S
C127 N125 1.371 . S
C127 C130 1.480 . S
C128 N125 1.372 . S
C128 N126 1.361 . S
C128 C136 1.457 . S
C129 N124 1.363 . S
C129 N126 1.377 . S
C129 C142 1.479 . S
C130 C127 1.480 . S
C130 C131 1.383 . S
C130 C135 1.385 . S
C131 H112 0.947 . S
C131 C130 1.383 . S
C131 C132 1.388 . S
C132 H113 0.946 . S
C132 C131 1.388 . S
C132 C133 1.384 . S
C133 C132 1.384 . S
C133 C134 1.377 . S
C134 H114 0.953 . S
C134 C133 1.377 . S
C134 C135 1.369 . S
C135 H115 0.945 . S
C135 C130 1.385 . S
C135 C134 1.369 . S
C136 C128 1.457 . S
C136 C137 1.372 . S
C136 C141 1.364 . S
C137 H116 0.952 . S
C137 C136 1.372 . S
C137 C138 1.389 . S
C138 H117 0.949 . S
C138 C137 1.389 . S
C138 C139 1.387 . S
C139 C138 1.387 . S
C139 C140 1.372 . S
C140 H118 0.950 . S
C140 C139 1.372 . S
C140 C141 1.379 . S
C141 H119 0.948 . S
C141 C136 1.364 . S
C141 C140 1.379 . S
C142 C111 1.383 . S
C142 C129 1.479 . S
C142 C143 1.398 . S
C143 C108 1.382 . S
C143 H120 0.951 . S
C143 C142 1.398 . S
C144 C145 1.384 . S
C144 H157 0.947 . S
C144 C179 1.382 . S
C145 C144 1.384 . S
C145 C146 1.378 . S
C146 C145 1.378 . S
C146 C147 1.378 . S
C146 H158 0.952 . S
C147 C146 1.378 . S
C147 H159 0.950 . S
C147 C178 1.383 . S
H148 C167 0.947 . S
H149 C168 0.946 . S
H150 C170 0.953 . S
H151 C171 0.945 . S
H152 C173 0.952 . S
H153 C174 0.949 . S
H154 C176 0.950 . S
H155 C177 0.948 . S
H156 C179 0.951 . S
H157 C144 0.947 . S
H158 C146 0.952 . S
H159 C147 0.950 . S
N160 C163 1.382 . S
N160 C165 1.363 . S
N161 C163 1.371 . S
N161 C164 1.372 . S
N162 C164 1.361 . S
N162 C165 1.377 . S
C163 N160 1.382 . S
C163 N161 1.371 . S
C163 C166 1.480 . S
C164 N161 1.372 . S
C164 N162 1.361 . S
C164 C172 1.457 . S
C165 N160 1.363 . S
C165 N162 1.377 . S
C165 C178 1.479 . S
C166 C163 1.480 . S
C166 C167 1.383 . S
C166 C171 1.385 . S
C167 H148 0.947 . S
C167 C166 1.383 . S
C167 C168 1.388 . S
C168 H149 0.946 . S
C168 C167 1.388 . S
C168 C169 1.384 . S
C169 C168 1.384 . S
C169 C170 1.377 . S
C170 H150 0.953 . S
C170 C169 1.377 . S
C170 C171 1.369 . S
C171 H151 0.945 . S
C171 C166 1.385 . S
C171 C170 1.369 . S
C172 C164 1.457 . S
C172 C173 1.372 . S
C172 C177 1.364 . S
C173 H152 0.952 . S
C173 C172 1.372 . S
C173 C174 1.389 . S
C174 H153 0.949 . S
C174 C173 1.389 . S
C174 C175 1.387 . S
C175 C174 1.387 . S
C175 C176 1.372 . S
C176 H154 0.950 . S
C176 C175 1.372 . S
C176 C177 1.379 . S
C177 H155 0.948 . S
C177 C172 1.364 . S
C177 C176 1.379 . S
C178 C147 1.383 . S
C178 C165 1.479 . S
C178 C179 1.398 . S
C179 C144 1.382 . S
C179 H156 0.951 . S
C179 C178 1.398 . S
C180 C181 1.384 . S
C180 H193 0.947 . S
C180 C215 1.382 . S
C181 C180 1.384 . S
C181 C182 1.378 . S
C182 C181 1.378 . S
C182 C183 1.378 . S
C182 H194 0.952 . S
C183 C182 1.378 . S
C183 H195 0.950 . S
C183 C214 1.383 . S
H184 C203 0.947 . S
H185 C204 0.946 . S
H186 C206 0.953 . S
H187 C207 0.945 . S
H188 C209 0.952 . S
H189 C210 0.949 . S
H190 C212 0.950 . S
H191 C213 0.948 . S
H192 C215 0.951 . S
H193 C180 0.947 . S
H194 C182 0.952 . S
H195 C183 0.950 . S
N196 C199 1.382 . S
N196 C201 1.363 . S
N197 C199 1.371 . S
N197 C200 1.372 . S
N198 C200 1.361 . S
N198 C201 1.377 . S
C199 N196 1.382 . S
C199 N197 1.371 . S
C199 C202 1.480 . S
C200 N197 1.372 . S
C200 N198 1.361 . S
C200 C208 1.457 . S
C201 N196 1.363 . S
C201 N198 1.377 . S
C201 C214 1.479 . S
C202 C199 1.480 . S
C202 C203 1.383 . S
C202 C207 1.385 . S
C203 H184 0.947 . S
C203 C202 1.383 . S
C203 C204 1.388 . S
C204 H185 0.946 . S
C204 C203 1.388 . S
C204 C205 1.384 . S
C205 C204 1.384 . S
C205 C206 1.377 . S
C206 H186 0.953 . S
C206 C205 1.377 . S
C206 C207 1.369 . S
C207 H187 0.945 . S
C207 C202 1.385 . S
C207 C206 1.369 . S
C208 C200 1.457 . S
C208 C209 1.372 . S
C208 C213 1.364 . S
C209 H188 0.952 . S
C209 C208 1.372 . S
C209 C210 1.389 . S
C210 H189 0.949 . S
C210 C209 1.389 . S
C210 C211 1.387 . S
C211 C210 1.387 . S
C211 C212 1.372 . S
C212 H190 0.950 . S
C212 C211 1.372 . S
C212 C213 1.379 . S
C213 H191 0.948 . S
C213 C208 1.364 . S
C213 C212 1.379 . S
C214 C183 1.383 . S
C214 C201 1.479 . S
C214 C215 1.398 . S
C215 C180 1.382 . S
C215 H192 0.951 . S
C215 C214 1.398 . S
C216 C217 1.384 . S
C216 H229 0.947 . S
C216 C251 1.382 . S
C217 C216 1.384 . S
C217 C218 1.378 . S
C218 C217 1.378 . S
C218 C219 1.378 . S
C218 H230 0.952 . S
C219 C218 1.378 . S
C219 H231 0.950 . S
C219 C250 1.383 . S
H220 C239 0.947 . S
H221 C240 0.946 . S
H222 C242 0.953 . S
H223 C243 0.945 . S
H224 C245 0.952 . S
H225 C246 0.949 . S
H226 C248 0.950 . S
H227 C249 0.948 . S
H228 C251 0.951 . S
H229 C216 0.947 . S
H230 C218 0.952 . S
H231 C219 0.950 . S
N232 C235 1.382 . S
N232 C237 1.363 . S
N233 C235 1.371 . S
N233 C236 1.372 . S
N234 C236 1.361 . S
N234 C237 1.377 . S
C235 N232 1.382 . S
C235 N233 1.371 . S
C235 C238 1.480 . S
C236 N233 1.372 . S
C236 N234 1.361 . S
C236 C244 1.457 . S
C237 N232 1.363 . S
C237 N234 1.377 . S
C237 C250 1.479 . S
C238 C235 1.480 . S
C238 C239 1.383 . S
C238 C243 1.385 . S
C239 H220 0.947 . S
C239 C238 1.383 . S
C239 C240 1.388 . S
C240 H221 0.946 . S
C240 C239 1.388 . S
C240 C241 1.384 . S
C241 C240 1.384 . S
C241 C242 1.377 . S
C242 H222 0.953 . S
C242 C241 1.377 . S
C242 C243 1.369 . S
C243 H223 0.945 . S
C243 C238 1.385 . S
C243 C242 1.369 . S
C244 C236 1.457 . S
C244 C245 1.372 . S
C244 C249 1.364 . S
C245 H224 0.952 . S
C245 C244 1.372 . S
C245 C246 1.389 . S
C246 H225 0.949 . S
C246 C245 1.389 . S
C246 C247 1.387 . S
C247 C246 1.387 . S
C247 C248 1.372 . S
C248 H226 0.950 . S
C248 C247 1.372 . S
C248 C249 1.379 . S
C249 H227 0.948 . S
C249 C244 1.364 . S
C249 C248 1.379 . S
C250 C219 1.383 . S
C250 C237 1.479 . S
C250 C251 1.398 . S
C251 C216 1.382 . S
C251 H228 0.951 . S
C251 C250 1.398 . S
C252 C253 1.384 . S
C252 H265 0.947 . S
C252 C287 1.382 . S
C253 C252 1.384 . S
C253 C254 1.378 . S
C254 C253 1.378 . S
C254 C255 1.378 . S
C254 H266 0.952 . S
C255 C254 1.378 . S
C255 H267 0.950 . S
C255 C286 1.383 . S
H256 C275 0.947 . S
H257 C276 0.946 . S
H258 C278 0.953 . S
H259 C279 0.945 . S
H260 C281 0.952 . S
H261 C282 0.949 . S
H262 C284 0.950 . S
H263 C285 0.948 . S
H264 C287 0.951 . S
H265 C252 0.947 . S
H266 C254 0.952 . S
H267 C255 0.950 . S
N268 C271 1.382 . S
N268 C273 1.363 . S
N269 C271 1.371 . S
N269 C272 1.372 . S
N270 C272 1.361 . S
N270 C273 1.377 . S
C271 N268 1.382 . S
C271 N269 1.371 . S
C271 C274 1.480 . S
C272 N269 1.372 . S
C272 N270 1.361 . S
C272 C280 1.457 . S
C273 N268 1.363 . S
C273 N270 1.377 . S
C273 C286 1.479 . S
C274 C271 1.480 . S
C274 C275 1.383 . S
C274 C279 1.385 . S
C275 H256 0.947 . S
C275 C274 1.383 . S
C275 C276 1.388 . S
C276 H257 0.946 . S
C276 C275 1.388 . S
C276 C277 1.384 . S
C277 C276 1.384 . S
C277 C278 1.377 . S
C278 H258 0.953 . S
C278 C277 1.377 . S
C278 C279 1.369 . S
C279 H259 0.945 . S
C279 C274 1.385 . S
C279 C278 1.369 . S
C280 C272 1.457 . S
C280 C281 1.372 . S
C280 C285 1.364 . S
C281 H260 0.952 . S
C281 C280 1.372 . S
C281 C282 1.389 . S
C282 H261 0.949 . S
C282 C281 1.389 . S
C282 C283 1.387 . S
C283 C282 1.387 . S
C283 C284 1.372 . S
C284 H262 0.950 . S
C284 C283 1.372 . S
C284 C285 1.379 . S
C285 H263 0.948 . S
C285 C280 1.364 . S
C285 C284 1.379 . S
C286 C255 1.383 . S
C286 C273 1.479 . S
C286 C287 1.398 . S
C287 C252 1.382 . S
C287 H264 0.951 . S
C287 C286 1.398 . S
C288 C290 1.422 . S
C288 C292 1.415 . S
C288 N294 1.369 . S
C289 C290 1.421 . S
C289 C291 1.417 . S
C289 C301 1.422 . S
C290 C288 1.422 . S
C290 C289 1.421 . S
C290 N300 1.359 . S
C291 C289 1.417 . S
C291 C293 1.329 . S
C291 H310 0.930 . S
C292 C288 1.415 . S
C292 C293 1.437 . S
C292 C296 1.413 . S
C293 C291 1.329 . S
C293 C292 1.437 . S
C293 H315 0.929 . S
N294 C288 1.369 . S
N294 C295 1.338 . S
N294 Gd299 2.622 . S
C295 N294 1.338 . S
C295 C297 1.378 . S
C295 H307 0.929 . S
C296 C292 1.413 . S
C296 C297 1.348 . S
C296 H312 0.931 . S
C297 C295 1.378 . S
C297 C296 1.348 . S
C297 H313 0.930 . S
Gd298 N318 2.622 . S
Gd298 N325 2.570 . S
Gd298 O332 2.353 . S
Gd298 O333 2.468 . S
Gd298 O334 2.427 . S
Gd298 O336 2.388 . S
Gd298 O337 2.386 . S
Gd298 O341 2.307 . S
Gd298 C351 2.805 . S
Gd299 N294 2.622 . S
Gd299 N300 2.570 . S
Gd299 O331 2.386 . S
Gd299 O335 2.307 1_655 S
Gd299 O338 2.353 1_655 S
Gd299 O339 2.468 . S
Gd299 O340 2.427 . S
Gd299 O342 2.388 . S
Gd299 C363 2.805 . S
N300 C290 1.359 . S
N300 Gd299 2.570 . S
N300 C302 1.343 . S
C301 C289 1.422 . S
C301 C303 1.321 . S
C301 H309 0.931 . S
C302 N300 1.343 . S
C302 C303 1.390 . S
C302 H304 0.931 . S
C303 C301 1.321 . S
C303 C302 1.390 . S
C303 H305 0.930 . S
H304 C302 0.931 . S
H305 C303 0.930 . S
H306 C329 0.931 . S
H307 C295 0.929 . S
H308 C330 0.930 . S
H309 C301 0.931 . S
H310 C291 0.930 . S
H311 C320 0.929 . S
H312 C296 0.931 . S
H313 C297 0.930 . S
H314 C352 0.930 . S
H315 C293 0.929 . S
H316 C321 0.931 . S
H317 C322 0.930 . S
N318 Gd298 2.622 . S
N318 C319 1.369 . S
N318 C320 1.338 . S
C319 N318 1.369 . S
C319 C323 1.415 . S
C319 C326 1.422 . S
C320 H311 0.929 . S
C320 N318 1.338 . S
C320 C322 1.378 . S
C321 H316 0.931 . S
C321 C322 1.348 . S
C321 C323 1.413 . S
C322 H317 0.930 . S
C322 C320 1.378 . S
C322 C321 1.348 . S
C323 C319 1.415 . S
C323 C321 1.413 . S
C323 C353 1.437 . S
H324 C353 0.929 . S
N325 Gd298 2.570 . S
N325 C326 1.359 . S
N325 C329 1.343 . S
C326 C319 1.422 . S
C326 N325 1.359 . S
C326 C328 1.421 . S
C327 C328 1.422 . S
C327 C330 1.321 . S
C327 H354 0.931 . S
C328 C326 1.421 . S
C328 C327 1.422 . S
C328 C352 1.417 . S
C329 H306 0.931 . S
C329 N325 1.343 . S
C329 C330 1.390 . S
C330 H308 0.930 . S
C330 C327 1.321 . S
C330 C329 1.390 . S
O331 Gd299 2.386 . S
O331 C343 1.265 . S
O332 Gd298 2.353 . S
O332 C343 1.242 1_455 S
O333 Gd298 2.468 . S
O333 C351 1.263 . S
O334 Gd298 2.427 . S
O334 C351 1.252 . S
O335 Gd299 2.307 1_455 S
O335 C344 1.261 . S
O336 Gd298 2.388 . S
O336 C344 1.252 . S
O337 Gd298 2.386 . S
O337 C355 1.265 . S
O338 Gd299 2.353 1_455 S
O338 C355 1.242 . S
O339 Gd299 2.468 . S
O339 C363 1.263 . S
O340 Gd299 2.427 . S
O340 C363 1.252 . S
O341 Gd298 2.307 . S
O341 C356 1.261 1_455 S
O342 Gd299 2.388 . S
O342 C356 1.252 . S
C343 O331 1.265 . S
C343 O332 1.242 1_655 S
C344 O335 1.261 . S
C344 O336 1.252 . S
C345 C348 1.394 . S
C345 C350 1.370 . S
C345 C351 1.500 . S
C346 C349 1.383 . S
C346 C350 1.395 . S
C347 C348 1.396 . S
C347 C349 1.365 . S
C347 H364 0.929 . S
C348 C345 1.394 . S
C348 C347 1.396 . S
C348 H365 0.930 . S
C349 C346 1.383 . S
C349 C347 1.365 . S
C349 H366 0.931 . S
C350 C345 1.370 . S
C350 C346 1.395 . S
C350 H367 0.930 . S
C351 Gd298 2.805 . S
C351 O333 1.263 . S
C351 O334 1.252 . S
C351 C345 1.500 . S
C352 H314 0.930 . S
C352 C328 1.417 . S
C352 C353 1.329 . S
C353 C323 1.437 . S
C353 H324 0.929 . S
C353 C352 1.329 . S
H354 C327 0.931 . S
C355 O337 1.265 . S
C355 O338 1.242 . S
C356 O341 1.261 1_655 S
C356 O342 1.252 . S
C357 C360 1.394 . S
C357 C362 1.370 . S
C357 C363 1.500 . S
C358 C361 1.383 . S
C358 C362 1.395 . S
C359 C360 1.396 . S
C359 C361 1.365 . S
C359 H368 0.929 . S
C360 C357 1.394 . S
C360 C359 1.396 . S
C360 H369 0.930 . S
C361 C358 1.383 . S
C361 C359 1.365 . S
C361 H370 0.931 . S
C362 C357 1.370 . S
C362 C358 1.395 . S
C362 H371 0.930 . S
C363 Gd299 2.805 . S
C363 O339 1.263 . S
C363 O340 1.252 . S
C363 C357 1.500 . S
H364 C347 0.929 . S
H365 C348 0.930 . S
H366 C349 0.931 . S
H367 C350 0.930 . S
H368 C359 0.929 . S
H369 C360 0.930 . S
H370 C361 0.931 . S
H371 C362 0.930 . S
C372 C374 1.422 . S
C372 C376 1.415 . S
C372 N378 1.369 . S
C373 C374 1.421 . S
C373 C375 1.417 . S
C373 C385 1.422 . S
C374 C372 1.422 . S
C374 C373 1.421 . S
C374 N384 1.359 . S
C375 C373 1.417 . S
C375 C377 1.329 . S
C375 H394 0.930 . S
C376 C372 1.415 . S
C376 C377 1.437 . S
C376 C380 1.413 . S
C377 C375 1.329 . S
C377 C376 1.437 . S
C377 H399 0.929 . S
N378 C372 1.369 . S
N378 C379 1.338 . S
N378 Gd383 2.622 . S
C379 N378 1.338 . S
C379 C381 1.378 . S
C379 H391 0.929 . S
C380 C376 1.413 . S
C380 C381 1.348 . S
C380 H396 0.931 . S
C381 C379 1.378 . S
C381 C380 1.348 . S
C381 H397 0.930 . S
Gd382 N402 2.622 . S
Gd382 N409 2.570 . S
Gd382 O416 2.353 . S
Gd382 O417 2.468 . S
Gd382 O418 2.427 . S
Gd382 O420 2.388 . S
Gd382 O421 2.386 . S
Gd382 O425 2.307 . S
Gd382 C435 2.805 . S
Gd383 N378 2.622 . S
Gd383 N384 2.570 . S
Gd383 O415 2.386 . S
Gd383 O419 2.307 . S
Gd383 O422 2.353 . S
Gd383 O423 2.468 . S
Gd383 O424 2.427 . S
Gd383 O426 2.388 . S
Gd383 C447 2.805 . S
N384 C374 1.359 . S
N384 Gd383 2.570 . S
N384 C386 1.343 . S
C385 C373 1.422 . S
C385 C387 1.321 . S
C385 H393 0.931 . S
C386 N384 1.343 . S
C386 C387 1.390 . S
C386 H388 0.931 . S
C387 C385 1.321 . S
C387 C386 1.390 . S
C387 H389 0.930 . S
H388 C386 0.931 . S
H389 C387 0.930 . S
H390 C413 0.931 . S
H391 C379 0.929 . S
H392 C414 0.930 . S
H393 C385 0.931 . S
H394 C375 0.930 . S
H395 C404 0.929 . S
H396 C380 0.931 . S
H397 C381 0.930 . S
H398 C436 0.930 . S
H399 C377 0.929 . S
H400 C405 0.931 . S
H401 C406 0.930 . S
N402 Gd382 2.622 . S
N402 C403 1.369 . S
N402 C404 1.338 . S
C403 N402 1.369 . S
C403 C407 1.415 . S
C403 C410 1.422 . S
C404 H395 0.929 . S
C404 N402 1.338 . S
C404 C406 1.378 . S
C405 H400 0.931 . S
C405 C406 1.348 . S
C405 C407 1.413 . S
C406 H401 0.930 . S
C406 C404 1.378 . S
C406 C405 1.348 . S
C407 C403 1.415 . S
C407 C405 1.413 . S
C407 C437 1.437 . S
H408 C437 0.929 . S
N409 Gd382 2.570 . S
N409 C410 1.359 . S
N409 C413 1.343 . S
C410 C403 1.422 . S
C410 N409 1.359 . S
C410 C412 1.421 . S
C411 C412 1.422 . S
C411 C414 1.321 . S
C411 H438 0.931 . S
C412 C410 1.421 . S
C412 C411 1.422 . S
C412 C436 1.417 . S
C413 H390 0.931 . S
C413 N409 1.343 . S
C413 C414 1.390 . S
C414 H392 0.930 . S
C414 C411 1.321 . S
C414 C413 1.390 . S
O415 Gd383 2.386 . S
O415 C427 1.265 . S
O416 Gd382 2.353 . S
O416 C427 1.242 . S
O417 Gd382 2.468 . S
O417 C435 1.263 . S
O418 Gd382 2.427 . S
O418 C435 1.252 . S
O419 Gd383 2.307 . S
O419 C428 1.261 . S
O420 Gd382 2.388 . S
O420 C428 1.252 . S
O421 Gd382 2.386 . S
O421 C439 1.265 . S
O422 Gd383 2.353 . S
O422 C439 1.242 . S
O423 Gd383 2.468 . S
O423 C447 1.263 . S
O424 Gd383 2.427 . S
O424 C447 1.252 . S
O425 Gd382 2.307 . S
O425 C440 1.261 . S
O426 Gd383 2.388 . S
O426 C440 1.252 . S
C427 O415 1.265 . S
C427 O416 1.242 . S
C428 O419 1.261 . S
C428 O420 1.252 . S
C429 C432 1.394 . S
C429 C434 1.370 . S
C429 C435 1.500 . S
C430 C433 1.383 . S
C430 C434 1.395 . S
C431 C432 1.396 . S
C431 C433 1.365 . S
C431 H448 0.929 . S
C432 C429 1.394 . S
C432 C431 1.396 . S
C432 H449 0.930 . S
C433 C430 1.383 . S
C433 C431 1.365 . S
C433 H450 0.931 . S
C434 C429 1.370 . S
C434 C430 1.395 . S
C434 H451 0.930 . S
C435 Gd382 2.805 . S
C435 O417 1.263 . S
C435 O418 1.252 . S
C435 C429 1.500 . S
C436 H398 0.930 . S
C436 C412 1.417 . S
C436 C437 1.329 . S
C437 C407 1.437 . S
C437 H408 0.929 . S
C437 C436 1.329 . S
H438 C411 0.931 . S
C439 O421 1.265 . S
C439 O422 1.242 . S
C440 O425 1.261 . S
C440 O426 1.252 . S
C441 C444 1.394 . S
C441 C446 1.370 . S
C441 C447 1.500 . S
C442 C445 1.383 . S
C442 C446 1.395 . S
C443 C444 1.396 . S
C443 C445 1.365 . S
C443 H452 0.929 . S
C444 C441 1.394 . S
C444 C443 1.396 . S
C444 H453 0.930 . S
C445 C442 1.383 . S
C445 C443 1.365 . S
C445 H454 0.931 . S
C446 C441 1.370 . S
C446 C442 1.395 . S
C446 H455 0.930 . S
C447 Gd383 2.805 . S
C447 O423 1.263 . S
C447 O424 1.252 . S
C447 C441 1.500 . S
H448 C431 0.929 . S
H449 C432 0.930 . S
H450 C433 0.931 . S
H451 C434 0.930 . S
H452 C443 0.929 . S
H453 C444 0.930 . S
H454 C445 0.931 . S
H455 C446 0.930 . S
C456 C458 1.422 . S
C456 C460 1.415 . S
C456 N462 1.369 . S
C457 C458 1.421 . S
C457 C459 1.417 . S
C457 C469 1.422 . S
C458 C456 1.422 . S
C458 C457 1.421 . S
C458 N468 1.359 . S
C459 C457 1.417 . S
C459 C461 1.329 . S
C459 H478 0.930 . S
C460 C456 1.415 . S
C460 C461 1.437 . S
C460 C464 1.413 . S
C461 C459 1.329 . S
C461 C460 1.437 . S
C461 H483 0.929 . S
N462 C456 1.369 . S
N462 C463 1.338 . S
N462 Gd467 2.622 . S
C463 N462 1.338 . S
C463 C465 1.378 . S
C463 H475 0.929 . S
C464 C460 1.413 . S
C464 C465 1.348 . S
C464 H480 0.931 . S
C465 C463 1.378 . S
C465 C464 1.348 . S
C465 H481 0.930 . S
Gd466 N486 2.622 . S
Gd466 N493 2.570 . S
Gd466 O500 2.353 . S
Gd466 O501 2.468 . S
Gd466 O502 2.427 . S
Gd466 O504 2.388 . S
Gd466 O505 2.386 . S
Gd466 O509 2.307 . S
Gd466 C519 2.805 . S
Gd467 N462 2.622 . S
Gd467 N468 2.570 . S
Gd467 O499 2.386 . S
Gd467 O503 2.307 1_655 S
Gd467 O506 2.353 1_655 S
Gd467 O507 2.468 . S
Gd467 O508 2.427 . S
Gd467 O510 2.388 . S
Gd467 C531 2.805 . S
N468 C458 1.359 . S
N468 Gd467 2.570 . S
N468 C470 1.343 . S
C469 C457 1.422 . S
C469 C471 1.321 . S
C469 H477 0.931 . S
C470 N468 1.343 . S
C470 C471 1.390 . S
C470 H472 0.931 . S
C471 C469 1.321 . S
C471 C470 1.390 . S
C471 H473 0.930 . S
H472 C470 0.931 . S
H473 C471 0.930 . S
H474 C497 0.931 . S
H475 C463 0.929 . S
H476 C498 0.930 . S
H477 C469 0.931 . S
H478 C459 0.930 . S
H479 C488 0.929 . S
H480 C464 0.931 . S
H481 C465 0.930 . S
H482 C520 0.930 . S
H483 C461 0.929 . S
H484 C489 0.931 . S
H485 C490 0.930 . S
N486 Gd466 2.622 . S
N486 C487 1.369 . S
N486 C488 1.338 . S
C487 N486 1.369 . S
C487 C491 1.415 . S
C487 C494 1.422 . S
C488 H479 0.929 . S
C488 N486 1.338 . S
C488 C490 1.378 . S
C489 H484 0.931 . S
C489 C490 1.348 . S
C489 C491 1.413 . S
C490 H485 0.930 . S
C490 C488 1.378 . S
C490 C489 1.348 . S
C491 C487 1.415 . S
C491 C489 1.413 . S
C491 C521 1.437 . S
H492 C521 0.929 . S
N493 Gd466 2.570 . S
N493 C494 1.359 . S
N493 C497 1.343 . S
C494 C487 1.422 . S
C494 N493 1.359 . S
C494 C496 1.421 . S
C495 C496 1.422 . S
C495 C498 1.321 . S
C495 H522 0.931 . S
C496 C494 1.421 . S
C496 C495 1.422 . S
C496 C520 1.417 . S
C497 H474 0.931 . S
C497 N493 1.343 . S
C497 C498 1.390 . S
C498 H476 0.930 . S
C498 C495 1.321 . S
C498 C497 1.390 . S
O499 Gd467 2.386 . S
O499 C511 1.265 . S
O500 Gd466 2.353 . S
O500 C511 1.242 1_455 S
O501 Gd466 2.468 . S
O501 C519 1.263 . S
O502 Gd466 2.427 . S
O502 C519 1.252 . S
O503 Gd467 2.307 1_455 S
O503 C512 1.261 . S
O504 Gd466 2.388 . S
O504 C512 1.252 . S
O505 Gd466 2.386 . S
O505 C523 1.265 . S
O506 Gd467 2.353 1_455 S
O506 C523 1.242 . S
O507 Gd467 2.468 . S
O507 C531 1.263 . S
O508 Gd467 2.427 . S
O508 C531 1.252 . S
O509 Gd466 2.307 . S
O509 C524 1.261 1_455 S
O510 Gd467 2.388 . S
O510 C524 1.252 . S
C511 O499 1.265 . S
C511 O500 1.242 1_655 S
C512 O503 1.261 . S
C512 O504 1.252 . S
C513 C516 1.394 . S
C513 C518 1.370 . S
C513 C519 1.500 . S
C514 C517 1.383 . S
C514 C518 1.395 . S
C515 C516 1.396 . S
C515 C517 1.365 . S
C515 H532 0.929 . S
C516 C513 1.394 . S
C516 C515 1.396 . S
C516 H533 0.930 . S
C517 C514 1.383 . S
C517 C515 1.365 . S
C517 H534 0.931 . S
C518 C513 1.370 . S
C518 C514 1.395 . S
C518 H535 0.930 . S
C519 Gd466 2.805 . S
C519 O501 1.263 . S
C519 O502 1.252 . S
C519 C513 1.500 . S
C520 H482 0.930 . S
C520 C496 1.417 . S
C520 C521 1.329 . S
C521 C491 1.437 . S
C521 H492 0.929 . S
C521 C520 1.329 . S
H522 C495 0.931 . S
C523 O505 1.265 . S
C523 O506 1.242 . S
C524 O509 1.261 1_655 S
C524 O510 1.252 . S
C525 C528 1.394 . S
C525 C530 1.370 . S
C525 C531 1.500 . S
C526 C529 1.383 . S
C526 C530 1.395 . S
C527 C528 1.396 . S
C527 C529 1.365 . S
C527 H536 0.929 . S
C528 C525 1.394 . S
C528 C527 1.396 . S
C528 H537 0.930 . S
C529 C526 1.383 . S
C529 C527 1.365 . S
C529 H538 0.931 . S
C530 C525 1.370 . S
C530 C526 1.395 . S
C530 H539 0.930 . S
C531 Gd467 2.805 . S
C531 O507 1.263 . S
C531 O508 1.252 . S
C531 C525 1.500 . S
H532 C515 0.929 . S
H533 C516 0.930 . S
H534 C517 0.931 . S
H535 C518 0.930 . S
H536 C527 0.929 . S
H537 C528 0.930 . S
H538 C529 0.931 . S
H539 C530 0.930 . S
C540 C542 1.422 . S
C540 C544 1.415 . S
C540 N546 1.369 . S
C541 C542 1.421 . S
C541 C543 1.417 . S
C541 C553 1.422 . S
C542 C540 1.422 . S
C542 C541 1.421 . S
C542 N552 1.359 . S
C543 C541 1.417 . S
C543 C545 1.329 . S
C543 H562 0.930 . S
C544 C540 1.415 . S
C544 C545 1.437 . S
C544 C548 1.413 . S
C545 C543 1.329 . S
C545 C544 1.437 . S
C545 H567 0.929 . S
N546 C540 1.369 . S
N546 C547 1.338 . S
N546 Gd551 2.622 . S
C547 N546 1.338 . S
C547 C549 1.378 . S
C547 H559 0.929 . S
C548 C544 1.413 . S
C548 C549 1.348 . S
C548 H564 0.931 . S
C549 C547 1.378 . S
C549 C548 1.348 . S
C549 H565 0.930 . S
Gd550 N570 2.622 . S
Gd550 N577 2.570 . S
Gd550 O584 2.353 . S
Gd550 O585 2.468 . S
Gd550 O586 2.427 . S
Gd550 O588 2.388 . S
Gd550 O589 2.386 . S
Gd550 O593 2.307 . S
Gd550 C603 2.805 . S
Gd551 N546 2.622 . S
Gd551 N552 2.570 . S
Gd551 O583 2.386 . S
Gd551 O587 2.307 . S
Gd551 O590 2.353 . S
Gd551 O591 2.468 . S
Gd551 O592 2.427 . S
Gd551 O594 2.388 . S
Gd551 C615 2.805 . S
N552 C542 1.359 . S
N552 Gd551 2.570 . S
N552 C554 1.343 . S
C553 C541 1.422 . S
C553 C555 1.321 . S
C553 H561 0.931 . S
C554 N552 1.343 . S
C554 C555 1.390 . S
C554 H556 0.931 . S
C555 C553 1.321 . S
C555 C554 1.390 . S
C555 H557 0.930 . S
H556 C554 0.931 . S
H557 C555 0.930 . S
H558 C581 0.931 . S
H559 C547 0.929 . S
H560 C582 0.930 . S
H561 C553 0.931 . S
H562 C543 0.930 . S
H563 C572 0.929 . S
H564 C548 0.931 . S
H565 C549 0.930 . S
H566 C604 0.930 . S
H567 C545 0.929 . S
H568 C573 0.931 . S
H569 C574 0.930 . S
N570 Gd550 2.622 . S
N570 C571 1.369 . S
N570 C572 1.338 . S
C571 N570 1.369 . S
C571 C575 1.415 . S
C571 C578 1.422 . S
C572 H563 0.929 . S
C572 N570 1.338 . S
C572 C574 1.378 . S
C573 H568 0.931 . S
C573 C574 1.348 . S
C573 C575 1.413 . S
C574 H569 0.930 . S
C574 C572 1.378 . S
C574 C573 1.348 . S
C575 C571 1.415 . S
C575 C573 1.413 . S
C575 C605 1.437 . S
H576 C605 0.929 . S
N577 Gd550 2.570 . S
N577 C578 1.359 . S
N577 C581 1.343 . S
C578 C571 1.422 . S
C578 N577 1.359 . S
C578 C580 1.421 . S
C579 C580 1.422 . S
C579 C582 1.321 . S
C579 H606 0.931 . S
C580 C578 1.421 . S
C580 C579 1.422 . S
C580 C604 1.417 . S
C581 H558 0.931 . S
C581 N577 1.343 . S
C581 C582 1.390 . S
C582 H560 0.930 . S
C582 C579 1.321 . S
C582 C581 1.390 . S
O583 Gd551 2.386 . S
O583 C595 1.265 . S
O584 Gd550 2.353 . S
O584 C595 1.242 . S
O585 Gd550 2.468 . S
O585 C603 1.263 . S
O586 Gd550 2.427 . S
O586 C603 1.252 . S
O587 Gd551 2.307 . S
O587 C596 1.261 . S
O588 Gd550 2.388 . S
O588 C596 1.252 . S
O589 Gd550 2.386 . S
O589 C607 1.265 . S
O590 Gd551 2.353 . S
O590 C607 1.242 . S
O591 Gd551 2.468 . S
O591 C615 1.263 . S
O592 Gd551 2.427 . S
O592 C615 1.252 . S
O593 Gd550 2.307 . S
O593 C608 1.261 . S
O594 Gd551 2.388 . S
O594 C608 1.252 . S
C595 O583 1.265 . S
C595 O584 1.242 . S
C596 O587 1.261 . S
C596 O588 1.252 . S
C597 C600 1.394 . S
C597 C602 1.370 . S
C597 C603 1.500 . S
C598 C601 1.383 . S
C598 C602 1.395 . S
C599 C600 1.396 . S
C599 C601 1.365 . S
C599 H616 0.929 . S
C600 C597 1.394 . S
C600 C599 1.396 . S
C600 H617 0.930 . S
C601 C598 1.383 . S
C601 C599 1.365 . S
C601 H618 0.931 . S
C602 C597 1.370 . S
C602 C598 1.395 . S
C602 H619 0.930 . S
C603 Gd550 2.805 . S
C603 O585 1.263 . S
C603 O586 1.252 . S
C603 C597 1.500 . S
C604 H566 0.930 . S
C604 C580 1.417 . S
C604 C605 1.329 . S
C605 C575 1.437 . S
C605 H576 0.929 . S
C605 C604 1.329 . S
H606 C579 0.931 . S
C607 O589 1.265 . S
C607 O590 1.242 . S
C608 O593 1.261 . S
C608 O594 1.252 . S
C609 C612 1.394 . S
C609 C614 1.370 . S
C609 C615 1.500 . S
C610 C613 1.383 . S
C610 C614 1.395 . S
C611 C612 1.396 . S
C611 C613 1.365 . S
C611 H620 0.929 . S
C612 C609 1.394 . S
C612 C611 1.396 . S
C612 H621 0.930 . S
C613 C610 1.383 . S
C613 C611 1.365 . S
C613 H622 0.931 . S
C614 C609 1.370 . S
C614 C610 1.395 . S
C614 H623 0.930 . S
C615 Gd551 2.805 . S
C615 O591 1.263 . S
C615 O592 1.252 . S
C615 C609 1.500 . S
H616 C599 0.929 . S
H617 C600 0.930 . S
H618 C601 0.931 . S
H619 C602 0.930 . S
H620 C611 0.929 . S
H621 C612 0.930 . S
H622 C613 0.931 . S
H623 C614 0.930 . S
H624 C632 0.929 . S
H625 C634 0.930 . S
H626 C636 0.930 1_545 S
H627 C639 0.929 . S
H628 C642 0.930 . S
H629 C644 0.967 . S
H630 C644 0.960 . S
H631 C644 0.960 . S
C632 H624 0.929 . S
C632 C633 1.377 . S
C632 C634 1.384 . S
C633 C632 1.377 . S
C633 C639 1.390 . S
C634 H625 0.930 . S
C634 C632 1.384 . S
C634 C635 1.372 . S
C635 C634 1.372 . S
C635 C636 1.400 . S
C635 C640 1.490 1_565 S
C636 H626 0.930 1_565 S
C636 C635 1.400 . S
C636 C639 1.386 . S
H637 C653 0.930 . S
H638 C654 0.931 . S
C639 H627 0.929 . S
C639 C633 1.390 . S
C639 C636 1.386 . S
C640 C635 1.490 1_545 S
C640 C642 1.395 . S
C640 C643 1.403 . S
H641 C647 0.930 . S
C642 H628 0.930 . S
C642 C640 1.395 . S
C642 C645 1.403 . S
C643 C640 1.403 . S
C643 C644 1.524 1_545 S
C643 C647 1.400 . S
C644 H629 0.967 . S
C644 H630 0.960 . S
C644 H631 0.960 . S
C644 C643 1.524 1_565 S
C645 C642 1.403 . S
C645 C646 1.392 . S
C645 C649 1.495 . S
C646 C645 1.392 . S
C646 C647 1.385 . S
C646 C648 1.478 . S
C647 H641 0.930 . S
C647 C643 1.400 . S
C647 C646 1.385 . S
C648 C646 1.478 . S
C648 C650 1.381 . S
C648 C654 1.383 . S
C649 C645 1.495 . S
C649 H655 0.959 . S
C649 H656 0.961 . S
C649 H657 0.960 . S
C650 C648 1.381 . S
C650 C651 1.394 . S
C650 H658 0.930 . S
C651 C650 1.394 . S
C651 C652 1.383 . S
C651 H659 0.926 1_455 S
C652 C651 1.383 . S
C652 C653 1.377 . S
C653 H637 0.930 . S
C653 C652 1.377 . S
C653 C654 1.379 . S
C654 H638 0.931 . S
C654 C648 1.383 . S
C654 C653 1.379 . S
H655 C649 0.959 . S
H656 C649 0.961 . S
H657 C649 0.960 . S
H658 C650 0.930 . S
H659 C651 0.926 1_655 S
H660 C668 0.929 . S
H661 C670 0.930 . S
H662 C672 0.930 . S
H663 C675 0.929 . S
H664 C678 0.930 . S
H665 C680 0.960 . S
H666 C680 0.960 . S
H667 C680 0.960 . S
C668 H660 0.929 . S
C668 C669 1.377 . S
C668 C670 1.384 . S
C669 C668 1.377 . S
C669 C675 1.390 . S
C670 H661 0.930 . S
C670 C668 1.384 . S
C670 C671 1.372 . S
C671 C670 1.372 . S
C671 C672 1.400 . S
C671 C676 1.490 . S
C672 H662 0.930 . S
C672 C671 1.400 . S
C672 C675 1.386 . S
H673 C689 0.930 . S
H674 C690 0.931 . S
C675 H663 0.929 . S
C675 C669 1.390 . S
C675 C672 1.386 . S
C676 C671 1.490 . S
C676 C678 1.395 . S
C676 C679 1.403 . S
H677 C683 0.930 . S
C678 H664 0.930 . S
C678 C676 1.395 . S
C678 C681 1.403 . S
C679 C676 1.403 . S
C679 C680 1.524 . S
C679 C683 1.400 . S
C680 H665 0.960 . S
C680 H666 0.960 . S
C680 H667 0.960 . S
C680 C679 1.524 . S
C681 C678 1.403 . S
C681 C682 1.392 . S
C681 C685 1.495 . S
C682 C681 1.392 . S
C682 C683 1.385 . S
C682 C684 1.478 . S
C683 H677 0.930 . S
C683 C679 1.400 . S
C683 C682 1.385 . S
C684 C682 1.478 . S
C684 C686 1.381 . S
C684 C690 1.383 . S
C685 C681 1.495 . S
C685 H691 0.959 . S
C685 H692 0.961 . S
C685 H693 0.960 . S
C686 C684 1.381 . S
C686 C687 1.394 . S
C686 H694 0.930 . S
C687 C686 1.394 . S
C687 C688 1.383 . S
C687 H695 0.929 . S
C688 C687 1.383 . S
C688 C689 1.377 . S
C689 H673 0.930 . S
C689 C688 1.377 . S
C689 C690 1.379 . S
C690 H674 0.931 . S
C690 C684 1.383 . S
C690 C689 1.379 . S
H691 C685 0.959 . S
H692 C685 0.961 . S
H693 C685 0.960 . S
H694 C686 0.930 . S
H695 C687 0.929 . S
H696 C704 0.929 . S
H697 C706 0.930 . S
H698 C708 0.930 . S
H699 C711 0.929 . S
H700 C714 0.930 . S
H701 C716 0.960 . S
H702 C716 0.960 . S
H703 C716 0.960 . S
C704 H696 0.929 . S
C704 C705 1.377 . S
C704 C706 1.384 . S
C705 C704 1.377 . S
C705 C711 1.390 . S
C706 H697 0.930 . S
C706 C704 1.384 . S
C706 C707 1.372 . S
C707 C706 1.372 . S
C707 C708 1.400 . S
C707 C712 1.490 . S
C708 H698 0.930 . S
C708 C707 1.400 . S
C708 C711 1.386 . S
H709 C725 0.930 . S
H710 C726 0.931 . S
C711 H699 0.929 . S
C711 C705 1.390 . S
C711 C708 1.386 . S
C712 C707 1.490 . S
C712 C714 1.395 . S
C712 C715 1.403 . S
H713 C719 0.930 . S
C714 H700 0.930 . S
C714 C712 1.395 . S
C714 C717 1.403 . S
C715 C712 1.403 . S
C715 C716 1.524 . S
C715 C719 1.400 . S
C716 H701 0.960 . S
C716 H702 0.960 . S
C716 H703 0.960 . S
C716 C715 1.524 . S
C717 C714 1.403 . S
C717 C718 1.392 . S
C717 C721 1.495 . S
C718 C717 1.392 . S
C718 C719 1.385 . S
C718 C720 1.478 . S
C719 H713 0.930 . S
C719 C715 1.400 . S
C719 C718 1.385 . S
C720 C718 1.478 . S
C720 C722 1.381 . S
C720 C726 1.383 . S
C721 C717 1.495 . S
C721 H727 0.959 . S
C721 H728 0.961 . S
C721 H729 0.960 . S
C722 C720 1.381 . S
C722 C723 1.394 . S
C722 H730 0.930 . S
C723 C722 1.394 . S
C723 C724 1.383 . S
C723 H731 0.929 . S
C724 C723 1.383 . S
C724 C725 1.377 . S
C725 H709 0.930 . S
C725 C724 1.377 . S
C725 C726 1.379 . S
C726 H710 0.931 . S
C726 C720 1.383 . S
C726 C725 1.379 . S
H727 C721 0.959 . S
H728 C721 0.961 . S
H729 C721 0.960 . S
H730 C722 0.930 . S
H731 C723 0.929 . S
H732 C740 0.929 . S
H733 C742 0.930 . S
H734 C744 0.930 . S
H735 C747 0.929 . S
H736 C750 0.930 . S
H737 C752 0.960 . S
H738 C752 0.960 . S
H739 C752 0.960 . S
C740 H732 0.929 . S
C740 C741 1.377 . S
C740 C742 1.384 1_565 S
C741 C740 1.377 . S
C741 C747 1.390 . S
C742 H733 0.930 . S
C742 C740 1.384 1_545 S
C742 C743 1.372 . S
C743 C742 1.372 . S
C743 C744 1.400 1_545 S
C743 C748 1.490 . S
C744 H734 0.930 . S
C744 C743 1.400 1_565 S
C744 C747 1.386 . S
H745 C761 0.930 . S
H746 C762 0.931 . S
C747 H735 0.929 . S
C747 C741 1.390 . S
C747 C744 1.386 . S
C748 C743 1.490 . S
C748 C750 1.395 . S
C748 C751 1.403 . S
H749 C755 0.930 . S
C750 H736 0.930 . S
C750 C748 1.395 . S
C750 C753 1.403 . S
C751 C748 1.403 . S
C751 C752 1.524 . S
C751 C755 1.400 . S
C752 H737 0.960 . S
C752 H738 0.960 . S
C752 H739 0.960 . S
C752 C751 1.524 . S
C753 C750 1.403 . S
C753 C754 1.392 . S
C753 C757 1.495 . S
C754 C753 1.392 . S
C754 C755 1.385 . S
C754 C756 1.478 . S
C755 H749 0.930 . S
C755 C751 1.400 . S
C755 C754 1.385 . S
C756 C754 1.478 . S
C756 C758 1.381 . S
C756 C762 1.383 . S
C757 C753 1.495 . S
C757 H763 0.959 . S
C757 H764 0.961 . S
C757 H765 0.960 . S
C758 C756 1.381 . S
C758 C759 1.394 . S
C758 H766 0.930 . S
C759 C758 1.394 . S
C759 C760 1.383 . S
C759 H767 0.929 . S
C760 C759 1.383 . S
C760 C761 1.377 . S
C761 H745 0.930 . S
C761 C760 1.377 . S
C761 C762 1.379 . S
C762 H746 0.931 . S
C762 C756 1.383 . S
C762 C761 1.379 . S
H763 C757 0.959 . S
H764 C757 0.961 . S
H765 C757 0.960 . S
H766 C758 0.930 . S
H767 C759 0.929 . S
H768 C776 0.929 . S
H769 C778 0.930 . S
H770 C780 0.930 . S
H771 C783 0.929 . S
H772 C786 0.930 1_545 S
H773 C788 0.960 . S
H774 C788 0.960 . S
H775 C788 0.960 . S
C776 H768 0.929 . S
C776 C777 1.377 . S
C776 C778 1.384 . S
C777 C776 1.377 . S
C777 C783 1.390 . S
C778 H769 0.930 . S
C778 C776 1.384 . S
C778 C779 1.389 . S
C779 C778 1.389 . S
C779 C780 1.414 . S
C779 C784 1.461 1_545 S
C780 H770 0.930 . S
C780 C779 1.414 . S
C780 C783 1.386 . S
H781 C797 0.930 . S
H782 C798 0.931 . S
C783 H771 0.929 . S
C783 C777 1.390 . S
C783 C780 1.386 . S
C784 C779 1.461 1_565 S
C784 C786 1.395 . S
C784 C787 1.403 . S
H785 C791 0.930 . S
C786 H772 0.930 1_565 S
C786 C784 1.395 . S
C786 C789 1.403 . S
C787 C784 1.403 . S
C787 C788 1.524 . S
C787 C791 1.400 . S
C788 H773 0.960 . S
C788 H774 0.960 . S
C788 H775 0.960 . S
C788 C787 1.524 . S
C789 C786 1.403 . S
C789 C790 1.392 . S
C789 C793 1.495 . S
C790 C789 1.392 . S
C790 C791 1.385 . S
C790 C792 1.478 . S
C791 H785 0.930 . S
C791 C787 1.400 . S
C791 C790 1.385 . S
C792 C790 1.478 . S
C792 C794 1.381 . S
C792 C798 1.383 . S
C793 C789 1.495 . S
C793 H799 0.959 . S
C793 H800 0.961 . S
C793 H801 0.960 . S
C794 C792 1.381 . S
C794 C795 1.394 . S
C794 H802 0.930 . S
C795 C794 1.394 . S
C795 C796 1.383 . S
C795 H803 0.929 1_655 S
C796 C795 1.383 . S
C796 C797 1.377 . S
C797 H781 0.930 . S
C797 C796 1.377 . S
C797 C798 1.379 . S
C798 H782 0.931 . S
C798 C792 1.383 . S
C798 C797 1.379 . S
H799 C793 0.959 . S
H800 C793 0.961 . S
H801 C793 0.960 . S
H802 C794 0.930 . S
H803 C795 0.929 1_455 S
H804 C812 0.929 . S
H805 C814 0.930 . S
H806 C816 0.930 . S
H807 C819 0.929 . S
H808 C822 0.930 . S
H809 C824 0.960 . S
H810 C824 0.960 . S
H811 C824 0.960 . S
C812 H804 0.929 . S
C812 C813 1.377 . S
C812 C814 1.384 . S
C813 C812 1.377 . S
C813 C819 1.390 . S
C814 H805 0.930 . S
C814 C812 1.384 . S
C814 C815 1.372 . S
C815 C814 1.372 . S
C815 C816 1.400 . S
C815 C820 1.490 . S
C816 H806 0.930 . S
C816 C815 1.400 . S
C816 C819 1.386 . S
H817 C833 0.930 . S
H818 C834 0.931 . S
C819 H807 0.929 . S
C819 C813 1.390 . S
C819 C816 1.386 . S
C820 C815 1.490 . S
C820 C822 1.395 . S
C820 C823 1.403 . S
H821 C827 0.930 . S
C822 H808 0.930 . S
C822 C820 1.395 . S
C822 C825 1.403 . S
C823 C820 1.403 . S
C823 C824 1.524 . S
C823 C827 1.400 . S
C824 H809 0.960 . S
C824 H810 0.960 . S
C824 H811 0.960 . S
C824 C823 1.524 . S
C825 C822 1.403 . S
C825 C826 1.392 . S
C825 C829 1.495 . S
C826 C825 1.392 . S
C826 C827 1.385 . S
C826 C828 1.478 . S
C827 H821 0.930 . S
C827 C823 1.400 . S
C827 C826 1.385 . S
C828 C826 1.478 . S
C828 C830 1.381 . S
C828 C834 1.383 . S
C829 C825 1.495 . S
C829 H835 0.959 . S
C829 H836 0.961 . S
C829 H837 0.960 . S
C830 C828 1.381 . S
C830 C831 1.394 . S
C830 H838 0.930 . S
C831 C830 1.394 . S
C831 C832 1.383 . S
C831 H839 0.929 . S
C832 C831 1.383 . S
C832 C833 1.377 . S
C833 H817 0.930 . S
C833 C832 1.377 . S
C833 C834 1.379 . S
C834 H818 0.931 . S
C834 C828 1.383 . S
C834 C833 1.379 . S
H835 C829 0.959 . S
H836 C829 0.961 . S
H837 C829 0.960 . S
H838 C830 0.930 . S
H839 C831 0.929 . S
H840 C848 0.929 . S
H841 C850 0.930 . S
H842 C852 0.930 . S
H843 C855 0.929 . S
H844 C858 0.930 . S
H845 C860 0.960 . S
H846 C860 0.960 . S
H847 C860 0.960 . S
C848 H840 0.929 . S
C848 C849 1.377 . S
C848 C850 1.384 . S
C849 C848 1.377 . S
C849 C855 1.390 . S
C850 H841 0.930 . S
C850 C848 1.384 . S
C850 C851 1.372 . S
C851 C850 1.372 . S
C851 C852 1.400 . S
C851 C856 1.490 . S
C852 H842 0.930 . S
C852 C851 1.400 . S
C852 C855 1.386 . S
H853 C869 0.930 . S
H854 C870 0.931 . S
C855 H843 0.929 . S
C855 C849 1.390 . S
C855 C852 1.386 . S
C856 C851 1.490 . S
C856 C858 1.395 . S
C856 C859 1.403 . S
H857 C863 0.930 . S
C858 H844 0.930 . S
C858 C856 1.395 . S
C858 C861 1.403 . S
C859 C856 1.403 . S
C859 C860 1.524 . S
C859 C863 1.400 . S
C860 H845 0.960 . S
C860 H846 0.960 . S
C860 H847 0.960 . S
C860 C859 1.524 . S
C861 C858 1.403 . S
C861 C862 1.392 . S
C861 C865 1.495 . S
C862 C861 1.392 . S
C862 C863 1.385 . S
C862 C864 1.478 . S
C863 H857 0.930 . S
C863 C859 1.400 . S
C863 C862 1.385 . S
C864 C862 1.478 . S
C864 C866 1.381 . S
C864 C870 1.383 . S
C865 C861 1.495 . S
C865 H871 0.959 . S
C865 H872 0.961 . S
C865 H873 0.960 . S
C866 C864 1.381 . S
C866 C867 1.394 . S
C866 H874 0.930 . S
C867 C866 1.394 . S
C867 C868 1.383 . S
C867 H875 0.929 . S
C868 C867 1.383 . S
C868 C869 1.377 . S
C869 H853 0.930 . S
C869 C868 1.377 . S
C869 C870 1.379 . S
C870 H854 0.931 . S
C870 C864 1.383 . S
C870 C869 1.379 . S
H871 C865 0.959 . S
H872 C865 0.961 . S
H873 C865 0.960 . S
H874 C866 0.930 . S
H875 C867 0.929 . S
H876 C884 0.929 . S
H877 C886 0.930 . S
H878 C888 0.930 . S
H879 C891 0.929 . S
H880 C894 0.930 . S
H881 C896 0.960 . S
H882 C896 0.960 . S
H883 C896 0.960 . S
C884 H876 0.929 . S
C884 C885 1.377 . S
C884 C886 1.384 . S
C885 C884 1.377 . S
C885 C891 1.390 . S
C886 H877 0.930 . S
C886 C884 1.384 . S
C886 C887 1.367 1_545 S
C887 C886 1.367 1_565 S
C887 C888 1.401 . S
C887 C892 1.493 . S
C888 H878 0.930 . S
C888 C887 1.401 . S
C888 C891 1.386 1_565 S
H889 C905 0.930 . S
H890 C906 0.931 . S
C891 H879 0.929 . S
C891 C885 1.390 . S
C891 C888 1.386 1_545 S
C892 C887 1.493 . S
C892 C894 1.395 . S
C892 C895 1.403 . S
H893 C899 0.930 . S
C894 H880 0.930 . S
C894 C892 1.395 . S
C894 C897 1.403 . S
C895 C892 1.403 . S
C895 C896 1.524 . S
C895 C899 1.400 . S
C896 H881 0.960 . S
C896 H882 0.960 . S
C896 H883 0.960 . S
C896 C895 1.524 . S
C897 C894 1.403 . S
C897 C898 1.392 . S
C897 C901 1.495 . S
C898 C897 1.392 . S
C898 C899 1.385 . S
C898 C900 1.478 . S
C899 H893 0.930 . S
C899 C895 1.400 . S
C899 C898 1.385 . S
C900 C898 1.478 . S
C900 C902 1.381 . S
C900 C906 1.383 . S
C901 C897 1.495 . S
C901 H907 0.959 . S
C901 H908 0.961 . S
C901 H909 0.960 . S
C902 C900 1.381 . S
C902 C903 1.394 . S
C902 H910 0.930 . S
C903 C902 1.394 . S
C903 C904 1.383 . S
C903 H911 0.929 . S
C904 C903 1.383 . S
C904 C905 1.377 . S
C905 H889 0.930 . S
C905 C904 1.377 . S
C905 C906 1.379 . S
C906 H890 0.931 . S
C906 C900 1.383 . S
C906 C905 1.379 . S
H907 C901 0.959 . S
H908 C901 0.961 . S
H909 C901 0.960 . S
H910 C902 0.930 . S
H911 C903 0.929 . S
H912 C920 0.929 1_556 S
H913 C922 0.930 . S
H914 C924 0.930 . S
H915 C927 0.929 . S
H916 C930 0.930 . S
H917 C932 0.960 . S
H918 C932 0.960 . S
H919 C932 0.960 . S
C920 H912 0.929 1_554 S
C920 C921 1.377 . S
C920 C922 1.384 . S
C921 C920 1.377 . S
C921 C927 1.390 . S
C922 H913 0.930 . S
C922 C920 1.384 . S
C922 C923 1.372 . S
C923 C922 1.372 . S
C923 C924 1.400 . S
C923 C928 1.490 . S
C924 H914 0.930 . S
C924 C923 1.400 . S
C924 C927 1.386 . S
H925 C941 0.930 . S
H926 C942 0.931 . S
C927 H915 0.929 . S
C927 C921 1.390 . S
C927 C924 1.386 . S
C928 C923 1.490 . S
C928 C930 1.395 . S
C928 C931 1.403 . S
H929 C935 0.930 . S
C930 H916 0.930 . S
C930 C928 1.395 . S
C930 C933 1.403 . S
C931 C928 1.403 . S
C931 C932 1.524 . S
C931 C935 1.400 . S
C932 H917 0.960 . S
C932 H918 0.960 . S
C932 H919 0.960 . S
C932 C931 1.524 . S
C933 C930 1.403 . S
C933 C934 1.392 . S
C933 C937 1.495 . S
C934 C933 1.392 . S
C934 C935 1.385 . S
C934 C936 1.478 . S
C935 H929 0.930 . S
C935 C931 1.400 . S
C935 C934 1.385 . S
C936 C934 1.478 . S
C936 C938 1.381 . S
C936 C942 1.383 . S
C937 C933 1.495 . S
C937 H943 0.959 . S
C937 H944 0.961 . S
C937 H945 0.960 . S
C938 C936 1.381 . S
C938 C939 1.394 . S
C938 H946 0.930 . S
C939 C938 1.394 . S
C939 C940 1.383 . S
C939 H947 0.929 . S
C940 C939 1.383 . S
C940 C941 1.377 . S
C941 H925 0.930 . S
C941 C940 1.377 . S
C941 C942 1.379 . S
C942 H926 0.931 . S
C942 C936 1.383 . S
C942 C941 1.379 . S
H943 C937 0.959 . S
H944 C937 0.961 . S
H945 C937 0.960 . S
H946 C938 0.930 . S
H947 C939 0.929 . S
H948 C956 0.929 . S
H949 C958 0.930 . S
H950 C960 0.930 . S
H951 C963 0.929 . S
H952 C966 0.930 . S
H953 C968 0.960 . S
H954 C968 0.960 . S
H955 C968 0.960 . S
C956 H948 0.929 . S
C956 C957 1.377 . S
C956 C958 1.384 . S
C957 C956 1.377 . S
C957 C963 1.390 . S
C958 H949 0.930 . S
C958 C956 1.384 . S
C958 C959 1.372 . S
C959 C958 1.372 . S
C959 C960 1.400 . S
C959 C964 1.490 . S
C960 H950 0.930 . S
C960 C959 1.400 . S
C960 C963 1.386 . S
H961 C977 0.930 . S
H962 C978 0.931 . S
C963 H951 0.929 . S
C963 C957 1.390 . S
C963 C960 1.386 . S
C964 C959 1.490 . S
C964 C966 1.395 . S
C964 C967 1.403 . S
H965 C971 0.930 . S
C966 H952 0.930 . S
C966 C964 1.395 . S
C966 C969 1.403 . S
C967 C964 1.403 . S
C967 C968 1.524 . S
C967 C971 1.400 . S
C968 H953 0.960 . S
C968 H954 0.960 . S
C968 H955 0.960 . S
C968 C967 1.524 . S
C969 C966 1.403 . S
C969 C970 1.392 . S
C969 C973 1.495 . S
C970 C969 1.392 . S
C970 C971 1.385 . S
C970 C972 1.478 . S
C971 H965 0.930 . S
C971 C967 1.400 . S
C971 C970 1.385 . S
C972 C970 1.478 . S
C972 C974 1.381 . S
C972 C978 1.383 . S
C973 C969 1.495 . S
C973 H979 0.959 . S
C973 H980 0.961 . S
C973 H981 0.960 . S
C974 C972 1.381 . S
C974 C975 1.394 . S
C974 H982 0.930 . S
C975 C974 1.394 . S
C975 C976 1.383 . S
C975 H983 0.929 . S
C976 C975 1.383 . S
C976 C977 1.377 . S
C977 H961 0.930 . S
C977 C976 1.377 . S
C977 C978 1.379 . S
C978 H962 0.931 . S
C978 C972 1.383 . S
C978 C977 1.379 . S
H979 C973 0.959 . S
H980 C973 0.961 . S
H981 C973 0.960 . S
H982 C974 0.930 . S
H983 C975 0.929 . S
H984 C992 0.929 1_554 S
H985 C994 0.930 . S
H986 C996 0.930 . S
H987 C999 0.929 . S
H988 C1002 0.930 . S
H989 C1004 0.960 . S
H990 C1004 0.960 . S
H991 C1004 0.960 . S
C992 H984 0.929 1_556 S
C992 C993 1.377 1_556 S
C992 C994 1.384 . S
C993 C992 1.377 1_554 S
C993 C999 1.390 1_554 S
C994 H985 0.930 . S
C994 C992 1.384 . S
C994 C995 1.372 . S
C995 C994 1.372 . S
C995 C996 1.400 . S
C995 C1000 1.490 . S
C996 H986 0.930 . S
C996 C995 1.400 . S
C996 C999 1.386 . S
H997 C1013 0.930 . S
H998 C1014 0.931 . S
C999 H987 0.929 . S
C999 C993 1.390 1_556 S
C999 C996 1.386 . S
C1000 C995 1.490 . S
C1000 C1002 1.395 . S
C1000 C1003 1.403 . S
H1001 C1007 0.930 . S
C1002 H988 0.930 . S
C1002 C1000 1.395 . S
C1002 C1005 1.403 . S
C1003 C1000 1.403 . S
C1003 C1004 1.524 . S
C1003 C1007 1.400 . S
C1004 H989 0.960 . S
C1004 H990 0.960 . S
C1004 H991 0.960 . S
C1004 C1003 1.524 . S
C1005 C1002 1.403 . S
C1005 C1006 1.392 . S
C1005 C1009 1.495 . S
C1006 C1005 1.392 . S
C1006 C1007 1.385 . S
C1006 C1008 1.478 . S
C1007 H1001 0.930 . S
C1007 C1003 1.400 . S
C1007 C1006 1.385 . S
C1008 C1006 1.478 . S
C1008 C1010 1.381 . S
C1008 C1014 1.383 . S
C1009 C1005 1.495 . S
C1009 H1015 0.959 . S
C1009 H1016 0.961 . S
C1009 H1017 0.960 . S
C1010 C1008 1.381 . S
C1010 C1011 1.394 . S
C1010 H1018 0.930 . S
C1011 C1010 1.394 . S
C1011 C1012 1.383 . S
C1011 H1019 0.929 . S
C1012 C1011 1.383 . S
C1012 C1013 1.377 . S
C1013 H997 0.930 . S
C1013 C1012 1.377 . S
C1013 C1014 1.379 . S
C1014 H998 0.931 . S
C1014 C1008 1.383 . S
C1014 C1013 1.379 . S
H1015 C1009 0.959 . S
H1016 C1009 0.961 . S
H1017 C1009 0.960 . S
H1018 C1010 0.930 . S
H1019 C1011 0.929 . S
H1020 C1028 0.929 . S
H1021 C1030 0.930 . S
H1022 C1032 0.930 . S
H1023 C1035 0.929 . S
H1024 C1038 0.930 . S
H1025 C1040 0.960 . S
H1026 C1040 0.960 . S
H1027 C1040 0.960 . S
C1028 H1020 0.929 . S
C1028 C1029 1.377 . S
C1028 C1030 1.384 . S
C1029 C1028 1.377 . S
C1029 C1035 1.390 . S
C1030 H1021 0.930 . S
C1030 C1028 1.384 . S
C1030 C1031 1.372 . S
C1031 C1030 1.372 . S
C1031 C1032 1.400 . S
C1031 C1036 1.490 . S
C1032 H1022 0.930 . S
C1032 C1031 1.400 . S
C1032 C1035 1.386 . S
H1033 C1049 0.930 . S
H1034 C1050 0.931 . S
C1035 H1023 0.929 . S
C1035 C1029 1.390 . S
C1035 C1032 1.386 . S
C1036 C1031 1.490 . S
C1036 C1038 1.395 . S
C1036 C1039 1.403 . S
H1037 C1043 0.930 . S
C1038 H1024 0.930 . S
C1038 C1036 1.395 . S
C1038 C1041 1.403 . S
C1039 C1036 1.403 . S
C1039 C1040 1.524 . S
C1039 C1043 1.400 . S
C1040 H1025 0.960 . S
C1040 H1026 0.960 . S
C1040 H1027 0.960 . S
C1040 C1039 1.524 . S
C1041 C1038 1.403 . S
C1041 C1042 1.392 . S
C1041 C1045 1.495 . S
C1042 C1041 1.392 . S
C1042 C1043 1.385 . S
C1042 C1044 1.478 . S
C1043 H1037 0.930 . S
C1043 C1039 1.400 . S
C1043 C1042 1.385 . S
C1044 C1042 1.478 . S
C1044 C1046 1.381 . S
C1044 C1050 1.383 . S
C1045 C1041 1.495 . S
C1045 H1051 0.959 . S
C1045 H1052 0.961 . S
C1045 H1053 0.960 . S
C1046 C1044 1.381 . S
C1046 C1047 1.394 . S
C1046 H1054 0.930 . S
C1047 C1046 1.394 . S
C1047 C1048 1.383 . S
C1047 H1055 0.929 . S
C1048 C1047 1.383 . S
C1048 C1049 1.377 . S
C1049 H1033 0.930 . S
C1049 C1048 1.377 . S
C1049 C1050 1.379 . S
C1050 H1034 0.931 . S
C1050 C1044 1.383 . S
C1050 C1049 1.379 . S
H1051 C1045 0.959 . S
H1052 C1045 0.961 . S
H1053 C1045 0.960 . S
H1054 C1046 0.930 . S
H1055 C1047 0.929 . S
H1056 C1064 0.929 . S
H1057 C1066 0.930 . S
H1058 C1068 0.930 . S
H1059 C1071 0.929 1_554 S
H1060 C1074 0.930 . S
H1061 C1076 0.960 . S
H1062 C1076 0.960 . S
H1063 C1076 0.960 . S
C1064 H1056 0.929 . S
C1064 C1065 1.377 . S
C1064 C1066 1.384 . S
C1065 C1064 1.377 . S
C1065 C1071 1.390 . S
C1066 H1057 0.930 . S
C1066 C1064 1.384 . S
C1066 C1067 1.372 . S
C1067 C1066 1.372 . S
C1067 C1068 1.400 . S
C1067 C1072 1.490 . S
C1068 H1058 0.930 . S
C1068 C1067 1.400 . S
C1068 C1071 1.386 . S
H1069 C1085 0.930 . S
H1070 C1086 0.931 . S
C1071 H1059 0.929 1_556 S
C1071 C1065 1.390 . S
C1071 C1068 1.386 . S
C1072 C1067 1.490 . S
C1072 C1074 1.395 . S
C1072 C1075 1.403 . S
H1073 C1079 0.930 . S
C1074 H1060 0.930 . S
C1074 C1072 1.395 . S
C1074 C1077 1.403 . S
C1075 C1072 1.403 . S
C1075 C1076 1.524 . S
C1075 C1079 1.400 . S
C1076 H1061 0.960 . S
C1076 H1062 0.960 . S
C1076 H1063 0.960 . S
C1076 C1075 1.524 . S
C1077 C1074 1.403 . S
C1077 C1078 1.392 . S
C1077 C1081 1.495 . S
C1078 C1077 1.392 . S
C1078 C1079 1.385 . S
C1078 C1080 1.478 . S
C1079 H1073 0.930 . S
C1079 C1075 1.400 . S
C1079 C1078 1.385 . S
C1080 C1078 1.478 . S
C1080 C1082 1.381 . S
C1080 C1086 1.383 . S
C1081 C1077 1.495 . S
C1081 H1087 0.959 . S
C1081 H1088 0.961 . S
C1081 H1089 0.960 . S
C1082 C1080 1.381 . S
C1082 C1083 1.394 . S
C1082 H1090 0.930 . S
C1083 C1082 1.394 . S
C1083 C1084 1.383 . S
C1083 H1091 0.929 . S
C1084 C1083 1.383 . S
C1084 C1085 1.377 . S
C1085 H1069 0.930 . S
C1085 C1084 1.377 . S
C1085 C1086 1.379 . S
C1086 H1070 0.931 . S
C1086 C1080 1.383 . S
C1086 C1085 1.379 . S
H1087 C1081 0.959 . S
H1088 C1081 0.961 . S
H1089 C1081 0.960 . S
H1090 C1082 0.930 . S
H1091 C1083 0.929 . S
H1092 C1100 0.929 . S
H1093 C1102 0.930 . S
H1094 C1104 0.930 . S
H1095 C1107 0.929 . S
H1096 C1110 0.930 . S
H1097 C1112 0.960 . S
H1098 C1112 0.960 . S
H1099 C1112 0.960 . S
C1100 H1092 0.929 . S
C1100 C1101 1.377 . S
C1100 C1102 1.384 . S
C1101 C1100 1.377 . S
C1101 C1107 1.390 . S
C1102 H1093 0.930 . S
C1102 C1100 1.384 . S
C1102 C1103 1.372 . S
C1103 C1102 1.372 . S
C1103 C1104 1.400 . S
C1103 C1108 1.490 . S
C1104 H1094 0.930 . S
C1104 C1103 1.400 . S
C1104 C1107 1.386 . S
H1105 C1121 0.930 . S
H1106 C1122 0.931 . S
C1107 H1095 0.929 . S
C1107 C1101 1.390 . S
C1107 C1104 1.386 . S
C1108 C1103 1.490 . S
C1108 C1110 1.395 . S
C1108 C1111 1.403 . S
H1109 C1115 0.930 . S
C1110 H1096 0.930 . S
C1110 C1108 1.395 . S
C1110 C1113 1.403 . S
C1111 C1108 1.403 . S
C1111 C1112 1.524 . S
C1111 C1115 1.400 . S
C1112 H1097 0.960 . S
C1112 H1098 0.960 . S
C1112 H1099 0.960 . S
C1112 C1111 1.524 . S
C1113 C1110 1.403 . S
C1113 C1114 1.392 . S
C1113 C1117 1.495 . S
C1114 C1113 1.392 . S
C1114 C1115 1.385 . S
C1114 C1116 1.478 . S
C1115 H1109 0.930 . S
C1115 C1111 1.400 . S
C1115 C1114 1.385 . S
C1116 C1114 1.478 . S
C1116 C1118 1.381 . S
C1116 C1122 1.383 . S
C1117 C1113 1.495 . S
C1117 H1123 0.959 . S
C1117 H1124 0.961 . S
C1117 H1125 0.960 . S
C1118 C1116 1.381 . S
C1118 C1119 1.394 . S
C1118 H1126 0.930 . S
C1119 C1118 1.394 . S
C1119 C1120 1.383 . S
C1119 H1127 0.929 . S
C1120 C1119 1.383 . S
C1120 C1121 1.377 . S
C1121 H1105 0.930 . S
C1121 C1120 1.377 . S
C1121 C1122 1.379 . S
C1122 H1106 0.931 . S
C1122 C1116 1.383 . S
C1122 C1121 1.379 . S
H1123 C1117 0.959 . S
H1124 C1117 0.961 . S
H1125 C1117 0.960 . S
H1126 C1118 0.930 . S
H1127 C1119 0.929 . S
H1128 C1136 0.929 . S
H1129 C1138 0.930 . S
H1130 C1140 0.930 . S
H1131 C1143 0.929 . S
H1132 C1146 0.930 . S
H1133 C1148 0.960 . S
H1134 C1148 0.960 . S
H1135 C1148 0.960 . S
C1136 H1128 0.929 . S
C1136 C1137 1.377 1_554 S
C1136 C1138 1.384 . S
C1137 C1136 1.377 1_556 S
C1137 C1143 1.390 1_556 S
C1138 H1129 0.930 . S
C1138 C1136 1.384 . S
C1138 C1139 1.372 . S
C1139 C1138 1.372 . S
C1139 C1140 1.400 . S
C1139 C1144 1.490 . S
C1140 H1130 0.930 . S
C1140 C1139 1.400 . S
C1140 C1143 1.386 . S
H1141 C1157 0.930 . S
H1142 C1158 0.931 . S
C1143 H1131 0.929 . S
C1143 C1137 1.390 1_554 S
C1143 C1140 1.386 . S
C1144 C1139 1.490 . S
C1144 C1146 1.395 . S
C1144 C1147 1.403 . S
H1145 C1151 0.930 . S
C1146 H1132 0.930 . S
C1146 C1144 1.395 . S
C1146 C1149 1.403 . S
C1147 C1144 1.403 . S
C1147 C1148 1.524 . S
C1147 C1151 1.400 . S
C1148 H1133 0.960 . S
C1148 H1134 0.960 . S
C1148 H1135 0.960 . S
C1148 C1147 1.524 . S
C1149 C1146 1.403 . S
C1149 C1150 1.392 . S
C1149 C1153 1.495 . S
C1150 C1149 1.392 . S
C1150 C1151 1.385 . S
C1150 C1152 1.478 . S
C1151 H1145 0.930 . S
C1151 C1147 1.400 . S
C1151 C1150 1.385 . S
C1152 C1150 1.478 . S
C1152 C1154 1.381 . S
C1152 C1158 1.383 . S
C1153 C1149 1.495 . S
C1153 H1159 0.959 . S
C1153 H1160 0.961 . S
C1153 H1161 0.960 . S
C1154 C1152 1.381 . S
C1154 C1155 1.394 . S
C1154 H1162 0.930 . S
C1155 C1154 1.394 . S
C1155 C1156 1.383 . S
C1155 H1163 0.929 . S
C1156 C1155 1.383 . S
C1156 C1157 1.377 . S
C1157 H1141 0.930 . S
C1157 C1156 1.377 . S
C1157 C1158 1.379 . S
C1158 H1142 0.931 . S
C1158 C1152 1.383 . S
C1158 C1157 1.379 . S
H1159 C1153 0.959 . S
H1160 C1153 0.961 . S
H1161 C1153 0.960 . S
H1162 C1154 0.930 . S
H1163 C1155 0.929 . S
H1164 C1172 0.929 . S
H1165 C1174 0.930 . S
H1166 C1176 0.930 . S
H1167 C1179 0.929 . S
H1168 C1182 0.930 . S
H1169 C1184 0.960 . S
H1170 C1184 0.960 . S
H1171 C1184 0.960 . S
C1172 H1164 0.929 . S
C1172 C1173 1.377 . S
C1172 C1174 1.384 . S
C1173 C1172 1.377 . S
C1173 C1179 1.390 . S
C1174 H1165 0.930 . S
C1174 C1172 1.384 . S
C1174 C1175 1.372 . S
C1175 C1174 1.372 . S
C1175 C1176 1.400 . S
C1175 C1180 1.490 . S
C1176 H1166 0.930 . S
C1176 C1175 1.400 . S
C1176 C1179 1.386 . S
H1177 C1193 0.930 . S
H1178 C1194 0.931 . S
C1179 H1167 0.929 . S
C1179 C1173 1.390 . S
C1179 C1176 1.386 . S
C1180 C1175 1.490 . S
C1180 C1182 1.395 . S
C1180 C1183 1.403 . S
H1181 C1187 0.930 . S
C1182 H1168 0.930 . S
C1182 C1180 1.395 . S
C1182 C1185 1.403 . S
C1183 C1180 1.403 . S
C1183 C1184 1.524 . S
C1183 C1187 1.400 . S
C1184 H1169 0.960 . S
C1184 H1170 0.960 . S
C1184 H1171 0.960 . S
C1184 C1183 1.524 . S
C1185 C1182 1.403 . S
C1185 C1186 1.392 . S
C1185 C1189 1.495 . S
C1186 C1185 1.392 . S
C1186 C1187 1.385 . S
C1186 C1188 1.478 . S
C1187 H1181 0.930 . S
C1187 C1183 1.400 . S
C1187 C1186 1.385 . S
C1188 C1186 1.478 . S
C1188 C1190 1.381 . S
C1188 C1194 1.383 . S
C1189 C1185 1.495 . S
C1189 H1195 0.959 . S
C1189 H1196 0.961 . S
C1189 H1197 0.960 . S
C1190 C1188 1.381 . S
C1190 C1191 1.394 . S
C1190 H1198 0.930 . S
C1191 C1190 1.394 . S
C1191 C1192 1.383 . S
C1191 H1199 0.929 . S
C1192 C1191 1.383 . S
C1192 C1193 1.377 . S
C1193 H1177 0.930 . S
C1193 C1192 1.377 . S
C1193 C1194 1.379 . S
C1194 H1178 0.931 . S
C1194 C1188 1.383 . S
C1194 C1193 1.379 . S
H1195 C1189 0.959 . S
H1196 C1189 0.961 . S
H1197 C1189 0.960 . S
H1198 C1190 0.930 . S
H1199 C1191 0.929 . S
H1200 C1208 0.929 . S
H1201 C1210 0.930 . S
H1202 C1212 0.930 . S
H1203 C1215 0.929 . S
H1204 C1218 0.930 . S
H1205 C1220 0.960 . S
H1206 C1220 0.960 . S
H1207 C1220 0.960 . S
C1208 H1200 0.929 . S
C1208 C1209 1.377 . S
C1208 C1210 1.384 . S
C1209 C1208 1.377 . S
C1209 C1215 1.390 . S
C1210 H1201 0.930 . S
C1210 C1208 1.384 . S
C1210 C1211 1.372 . S
C1211 C1210 1.372 . S
C1211 C1212 1.400 . S
C1211 C1216 1.490 . S
C1212 H1202 0.930 . S
C1212 C1211 1.400 . S
C1212 C1215 1.386 . S
H1213 C1229 0.930 . S
H1214 C1230 0.931 . S
C1215 H1203 0.929 . S
C1215 C1209 1.390 . S
C1215 C1212 1.386 . S
C1216 C1211 1.490 . S
C1216 C1218 1.395 . S
C1216 C1219 1.403 . S
H1217 C1223 0.930 . S
C1218 H1204 0.930 . S
C1218 C1216 1.395 . S
C1218 C1221 1.403 . S
C1219 C1216 1.403 . S
C1219 C1220 1.524 . S
C1219 C1223 1.400 . S
C1220 H1205 0.960 . S
C1220 H1206 0.960 . S
C1220 H1207 0.960 . S
C1220 C1219 1.524 . S
C1221 C1218 1.403 . S
C1221 C1222 1.392 . S
C1221 C1225 1.495 . S
C1222 C1221 1.392 . S
C1222 C1223 1.385 . S
C1222 C1224 1.478 . S
C1223 H1217 0.930 . S
C1223 C1219 1.400 . S
C1223 C1222 1.385 . S
C1224 C1222 1.478 . S
C1224 C1226 1.381 . S
C1224 C1230 1.383 . S
C1225 C1221 1.495 . S
C1225 H1231 0.959 . S
C1225 H1232 0.961 . S
C1225 H1233 0.960 . S
C1226 C1224 1.381 . S
C1226 C1227 1.394 . S
C1226 H1234 0.930 . S
C1227 C1226 1.394 . S
C1227 C1228 1.383 . S
C1227 H1235 0.929 . S
C1228 C1227 1.383 . S
C1228 C1229 1.377 . S
C1229 H1213 0.930 . S
C1229 C1228 1.377 . S
C1229 C1230 1.379 . S
C1230 H1214 0.931 . S
C1230 C1224 1.383 . S
C1230 C1229 1.379 . S
H1231 C1225 0.959 . S
H1232 C1225 0.961 . S
H1233 C1225 0.960 . S
H1234 C1226 0.930 . S
H1235 C1227 0.929 . S
H1236 C1244 0.929 . S
H1237 C1246 0.930 . S
H1238 C1248 0.930 . S
H1239 C1251 0.929 . S
H1240 C1254 0.930 . S
H1241 C1256 0.960 . S
H1242 C1256 0.960 . S
H1243 C1256 0.960 . S
C1244 H1236 0.929 . S
C1244 C1245 1.377 . S
C1244 C1246 1.384 . S
C1245 C1244 1.377 . S
C1245 C1251 1.390 . S
C1246 H1237 0.930 . S
C1246 C1244 1.384 . S
C1246 C1247 1.372 . S
C1247 C1246 1.372 . S
C1247 C1248 1.400 . S
C1247 C1252 1.490 . S
C1248 H1238 0.930 . S
C1248 C1247 1.400 . S
C1248 C1251 1.386 . S
H1249 C1265 0.930 . S
H1250 C1266 0.931 . S
C1251 H1239 0.929 . S
C1251 C1245 1.390 . S
C1251 C1248 1.386 . S
C1252 C1247 1.490 . S
C1252 C1254 1.395 . S
C1252 C1255 1.403 . S
H1253 C1259 0.930 . S
C1254 H1240 0.930 . S
C1254 C1252 1.395 . S
C1254 C1257 1.403 . S
C1255 C1252 1.403 . S
C1255 C1256 1.524 . S
C1255 C1259 1.400 . S
C1256 H1241 0.960 . S
C1256 H1242 0.960 . S
C1256 H1243 0.960 . S
C1256 C1255 1.524 . S
C1257 C1254 1.403 . S
C1257 C1258 1.392 . S
C1257 C1261 1.495 . S
C1258 C1257 1.392 . S
C1258 C1259 1.385 . S
C1258 C1260 1.478 . S
C1259 H1253 0.930 . S
C1259 C1255 1.400 . S
C1259 C1258 1.385 . S
C1260 C1258 1.478 . S
C1260 C1262 1.381 . S
C1260 C1266 1.383 . S
C1261 C1257 1.495 . S
C1261 H1267 0.959 . S
C1261 H1268 0.961 . S
C1261 H1269 0.960 . S
C1262 C1260 1.381 . S
C1262 C1263 1.394 . S
C1262 H1270 0.930 . S
C1263 C1262 1.394 . S
C1263 C1264 1.383 . S
C1263 H1271 0.929 . S
C1264 C1263 1.383 . S
C1264 C1265 1.377 . S
C1265 H1249 0.930 . S
C1265 C1264 1.377 . S
C1265 C1266 1.379 . S
C1266 H1250 0.931 . S
C1266 C1260 1.383 . S
C1266 C1265 1.379 . S
H1267 C1261 0.959 . S
H1268 C1261 0.961 . S
H1269 C1261 0.960 . S
H1270 C1262 0.930 . S
H1271 C1263 0.929 . S
H1272 C1280 0.929 . S
H1273 C1282 0.930 . S
H1274 C1284 0.930 . S
H1275 C1287 0.929 . S
H1276 C1290 0.930 . S
H1277 C1292 0.960 . S
H1278 C1292 0.960 . S
H1279 C1292 0.960 . S
C1280 H1272 0.929 . S
C1280 C1281 1.377 . S
C1280 C1282 1.384 . S
C1281 C1280 1.377 . S
C1281 C1287 1.390 . S
C1282 H1273 0.930 . S
C1282 C1280 1.384 . S
C1282 C1283 1.372 . S
C1283 C1282 1.372 . S
C1283 C1284 1.400 . S
C1283 C1288 1.490 . S
C1284 H1274 0.930 . S
C1284 C1283 1.400 . S
C1284 C1287 1.386 . S
H1285 C1301 0.930 . S
H1286 C1302 0.931 . S
C1287 H1275 0.929 . S
C1287 C1281 1.390 . S
C1287 C1284 1.386 . S
C1288 C1283 1.490 . S
C1288 C1290 1.395 . S
C1288 C1291 1.403 . S
H1289 C1295 0.930 . S
C1290 H1276 0.930 . S
C1290 C1288 1.395 . S
C1290 C1293 1.403 . S
C1291 C1288 1.403 . S
C1291 C1292 1.524 . S
C1291 C1295 1.400 . S
C1292 H1277 0.960 . S
C1292 H1278 0.960 . S
C1292 H1279 0.960 . S
C1292 C1291 1.524 . S
C1293 C1290 1.403 . S
C1293 C1294 1.392 . S
C1293 C1297 1.495 . S
C1294 C1293 1.392 . S
C1294 C1295 1.385 . S
C1294 C1296 1.478 . S
C1295 H1289 0.930 . S
C1295 C1291 1.400 . S
C1295 C1294 1.385 . S
C1296 C1294 1.478 . S
C1296 C1298 1.381 . S
C1296 C1302 1.383 . S
C1297 C1293 1.495 . S
C1297 H1303 0.959 . S
C1297 H1304 0.961 . S
C1297 H1305 0.960 . S
C1298 C1296 1.381 . S
C1298 C1299 1.394 . S
C1298 H1306 0.930 . S
C1299 C1298 1.394 . S
C1299 C1300 1.383 . S
C1299 H1307 0.929 . S
C1300 C1299 1.383 . S
C1300 C1301 1.377 . S
C1301 H1285 0.930 . S
C1301 C1300 1.377 . S
C1301 C1302 1.379 . S
C1302 H1286 0.931 . S
C1302 C1296 1.383 . S
C1302 C1301 1.379 . S
H1303 C1297 0.959 . S
H1304 C1297 0.961 . S
H1305 C1297 0.960 . S
H1306 C1298 0.930 . S
H1307 C1299 0.929 . S
H1308 C1316 0.929 . S
H1309 C1318 0.930 . S
H1310 C1320 0.930 . S
H1311 C1323 0.929 . S
H1312 C1326 0.930 . S
H1313 C1328 0.960 . S
H1314 C1328 0.960 . S
H1315 C1328 0.960 . S
C1316 H1308 0.929 . S
C1316 C1317 1.377 . S
C1316 C1318 1.384 . S
C1317 C1316 1.377 . S
C1317 C1323 1.390 . S
C1318 H1309 0.930 . S
C1318 C1316 1.384 . S
C1318 C1319 1.372 . S
C1319 C1318 1.372 . S
C1319 C1320 1.400 . S
C1319 C1324 1.490 . S
C1320 H1310 0.930 . S
C1320 C1319 1.400 . S
C1320 C1323 1.386 . S
H1321 C1337 0.930 1_455 S
H1322 C1338 0.931 . S
C1323 H1311 0.929 . S
C1323 C1317 1.390 . S
C1323 C1320 1.386 . S
C1324 C1319 1.490 . S
C1324 C1326 1.395 . S
C1324 C1327 1.403 . S
H1325 C1331 0.930 . S
C1326 H1312 0.930 . S
C1326 C1324 1.395 . S
C1326 C1329 1.403 . S
C1327 C1324 1.403 . S
C1327 C1328 1.524 . S
C1327 C1331 1.400 . S
C1328 H1313 0.960 . S
C1328 H1314 0.960 . S
C1328 H1315 0.960 . S
C1328 C1327 1.524 . S
C1329 C1326 1.403 . S
C1329 C1330 1.392 . S
C1329 C1333 1.495 . S
C1330 C1329 1.392 . S
C1330 C1331 1.385 . S
C1330 C1332 1.478 . S
C1331 H1325 0.930 . S
C1331 C1327 1.400 . S
C1331 C1330 1.385 . S
C1332 C1330 1.478 . S
C1332 C1334 1.381 . S
C1332 C1338 1.383 . S
C1333 C1329 1.495 . S
C1333 H1339 0.959 . S
C1333 H1340 0.961 . S
C1333 H1341 0.960 . S
C1334 C1332 1.381 . S
C1334 C1335 1.394 . S
C1334 H1342 0.930 . S
C1335 C1334 1.394 . S
C1335 C1336 1.383 . S
C1335 H1343 0.929 . S
C1336 C1335 1.383 . S
C1336 C1337 1.377 . S
C1337 H1321 0.930 1_655 S
C1337 C1336 1.377 . S
C1337 C1338 1.379 . S
C1338 H1322 0.931 . S
C1338 C1332 1.383 . S
C1338 C1337 1.379 . S
H1339 C1333 0.959 . S
H1340 C1333 0.961 . S
H1341 C1333 0.960 . S
H1342 C1334 0.930 . S
H1343 C1335 0.929 . S
H1344 C1352 0.929 . S
H1345 C1354 0.930 . S
H1346 C1356 0.930 . S
H1347 C1359 0.929 . S
H1348 C1362 0.930 . S
H1349 C1364 0.960 . S
H1350 C1364 0.960 . S
H1351 C1364 0.960 . S
C1352 H1344 0.929 . S
C1352 C1353 1.377 . S
C1352 C1354 1.384 . S
C1353 C1352 1.377 . S
C1353 C1359 1.390 . S
C1354 H1345 0.930 . S
C1354 C1352 1.384 . S
C1354 C1355 1.372 . S
C1355 C1354 1.372 . S
C1355 C1356 1.400 . S
C1355 C1360 1.490 . S
C1356 H1346 0.930 . S
C1356 C1355 1.400 . S
C1356 C1359 1.386 . S
H1357 C1373 0.930 . S
H1358 C1374 0.931 . S
C1359 H1347 0.929 . S
C1359 C1353 1.390 . S
C1359 C1356 1.386 . S
C1360 C1355 1.490 . S
C1360 C1362 1.395 . S
C1360 C1363 1.403 . S
H1361 C1367 0.930 . S
C1362 H1348 0.930 . S
C1362 C1360 1.395 . S
C1362 C1365 1.403 . S
C1363 C1360 1.403 . S
C1363 C1364 1.524 . S
C1363 C1367 1.400 . S
C1364 H1349 0.960 . S
C1364 H1350 0.960 . S
C1364 H1351 0.960 . S
C1364 C1363 1.524 . S
C1365 C1362 1.403 . S
C1365 C1366 1.392 . S
C1365 C1369 1.495 . S
C1366 C1365 1.392 . S
C1366 C1367 1.385 . S
C1366 C1368 1.478 . S
C1367 H1361 0.930 . S
C1367 C1363 1.400 . S
C1367 C1366 1.385 . S
C1368 C1366 1.478 . S
C1368 C1370 1.381 . S
C1368 C1374 1.383 . S
C1369 C1365 1.495 . S
C1369 H1375 0.959 . S
C1369 H1376 0.961 . S
C1369 H1377 0.960 . S
C1370 C1368 1.381 . S
C1370 C1371 1.394 . S
C1370 H1378 0.930 . S
C1371 C1370 1.394 . S
C1371 C1372 1.383 . S
C1371 H1379 0.929 . S
C1372 C1371 1.383 . S
C1372 C1373 1.377 . S
C1373 H1357 0.930 . S
C1373 C1372 1.377 . S
C1373 C1374 1.379 . S
C1374 H1358 0.931 . S
C1374 C1368 1.383 . S
C1374 C1373 1.379 . S
H1375 C1369 0.959 . S
H1376 C1369 0.961 . S
H1377 C1369 0.960 . S
H1378 C1370 0.930 . S
H1379 C1371 0.929 . S
H1380 C1388 0.929 . S
H1381 C1390 0.930 . S
H1382 C1392 0.930 . S
H1383 C1395 0.929 . S
H1384 C1398 0.930 . S
H1385 C1400 0.960 . S
H1386 C1400 0.960 . S
H1387 C1400 0.960 . S
C1388 H1380 0.929 . S
C1388 C1389 1.377 . S
C1388 C1390 1.384 . S
C1389 C1388 1.377 . S
C1389 C1395 1.390 . S
C1390 H1381 0.930 . S
C1390 C1388 1.384 . S
C1390 C1391 1.372 . S
C1391 C1390 1.372 . S
C1391 C1392 1.400 . S
C1391 C1396 1.490 . S
C1392 H1382 0.930 . S
C1392 C1391 1.400 . S
C1392 C1395 1.386 . S
H1393 C1409 0.930 . S
H1394 C1410 0.931 . S
C1395 H1383 0.929 . S
C1395 C1389 1.390 . S
C1395 C1392 1.386 . S
C1396 C1391 1.490 . S
C1396 C1398 1.395 . S
C1396 C1399 1.403 . S
H1397 C1403 0.930 . S
C1398 H1384 0.930 . S
C1398 C1396 1.395 . S
C1398 C1401 1.403 . S
C1399 C1396 1.403 . S
C1399 C1400 1.524 . S
C1399 C1403 1.400 . S
C1400 H1385 0.960 . S
C1400 H1386 0.960 . S
C1400 H1387 0.960 . S
C1400 C1399 1.524 . S
C1401 C1398 1.403 . S
C1401 C1402 1.392 . S
C1401 C1405 1.495 . S
C1402 C1401 1.392 . S
C1402 C1403 1.385 . S
C1402 C1404 1.478 . S
C1403 H1397 0.930 . S
C1403 C1399 1.400 . S
C1403 C1402 1.385 . S
C1404 C1402 1.478 . S
C1404 C1406 1.381 . S
C1404 C1410 1.383 . S
C1405 C1401 1.495 . S
C1405 H1411 0.959 . S
C1405 H1412 0.961 . S
C1405 H1413 0.960 . S
C1406 C1404 1.381 . S
C1406 C1407 1.394 . S
C1406 H1414 0.930 . S
C1407 C1406 1.394 . S
C1407 C1408 1.383 . S
C1407 H1415 0.929 . S
C1408 C1407 1.383 . S
C1408 C1409 1.377 . S
C1409 H1393 0.930 . S
C1409 C1408 1.377 . S
C1409 C1410 1.379 . S
C1410 H1394 0.931 . S
C1410 C1404 1.383 . S
C1410 C1409 1.379 . S
H1411 C1405 0.959 . S
H1412 C1405 0.961 . S
H1413 C1405 0.960 . S
H1414 C1406 0.930 . S
H1415 C1407 0.929 . S
H1416 C1424 0.929 . S
H1417 C1426 0.930 . S
H1418 C1428 0.930 . S
H1419 C1431 0.929 . S
H1420 C1434 0.930 . S
H1421 C1436 0.960 . S
H1422 C1436 0.960 . S
H1423 C1436 0.960 . S
C1424 H1416 0.929 . S
C1424 C1425 1.377 . S
C1424 C1426 1.384 . S
C1425 C1424 1.377 . S
C1425 C1431 1.390 . S
C1426 H1417 0.930 . S
C1426 C1424 1.384 . S
C1426 C1427 1.372 . S
C1427 C1426 1.372 . S
C1427 C1428 1.400 . S
C1427 C1432 1.490 . S
C1428 H1418 0.930 . S
C1428 C1427 1.400 . S
C1428 C1431 1.386 . S
H1429 C1445 0.930 . S
H1430 C1446 0.931 . S
C1431 H1419 0.929 . S
C1431 C1425 1.390 . S
C1431 C1428 1.386 . S
C1432 C1427 1.490 . S
C1432 C1434 1.395 . S
C1432 C1435 1.403 . S
H1433 C1439 0.930 . S
C1434 H1420 0.930 . S
C1434 C1432 1.395 . S
C1434 C1437 1.403 . S
C1435 C1432 1.403 . S
C1435 C1436 1.524 . S
C1435 C1439 1.400 . S
C1436 H1421 0.960 . S
C1436 H1422 0.960 . S
C1436 H1423 0.960 . S
C1436 C1435 1.524 . S
C1437 C1434 1.403 . S
C1437 C1438 1.392 . S
C1437 C1441 1.495 . S
C1438 C1437 1.392 . S
C1438 C1439 1.385 . S
C1438 C1440 1.478 . S
C1439 H1433 0.930 . S
C1439 C1435 1.400 . S
C1439 C1438 1.385 . S
C1440 C1438 1.478 . S
C1440 C1442 1.381 . S
C1440 C1446 1.383 . S
C1441 C1437 1.495 . S
C1441 H1447 0.959 . S
C1441 H1448 0.961 . S
C1441 H1449 0.960 . S
C1442 C1440 1.381 . S
C1442 C1443 1.394 . S
C1442 H1450 0.930 . S
C1443 C1442 1.394 . S
C1443 C1444 1.383 . S
C1443 H1451 0.929 . S
C1444 C1443 1.383 . S
C1444 C1445 1.377 . S
C1445 H1429 0.930 . S
C1445 C1444 1.377 . S
C1445 C1446 1.379 . S
C1446 H1430 0.931 . S
C1446 C1440 1.383 . S
C1446 C1445 1.379 . S
H1447 C1441 0.959 . S
H1448 C1441 0.961 . S
H1449 C1441 0.960 . S
H1450 C1442 0.930 . S
H1451 C1443 0.929 . S
H1452 C1460 0.929 . S
H1453 C1462 0.930 . S
H1454 C1464 0.930 . S
H1455 C1467 0.929 . S
H1456 C1470 0.930 . S
H1457 C1472 0.960 . S
H1458 C1472 0.960 . S
H1459 C1472 0.960 . S
C1460 H1452 0.929 . S
C1460 C1461 1.377 . S
C1460 C1462 1.384 . S
C1461 C1460 1.377 . S
C1461 C1467 1.390 . S
C1462 H1453 0.930 . S
C1462 C1460 1.384 . S
C1462 C1463 1.372 . S
C1463 C1462 1.372 . S
C1463 C1464 1.400 . S
C1463 C1468 1.490 . S
C1464 H1454 0.930 . S
C1464 C1463 1.400 . S
C1464 C1467 1.386 . S
H1465 C1481 0.930 . S
H1466 C1482 0.931 . S
C1467 H1455 0.929 . S
C1467 C1461 1.390 . S
C1467 C1464 1.386 . S
C1468 C1463 1.490 . S
C1468 C1470 1.395 . S
C1468 C1471 1.403 . S
H1469 C1475 0.930 . S
C1470 H1456 0.930 . S
C1470 C1468 1.395 . S
C1470 C1473 1.403 . S
C1471 C1468 1.403 . S
C1471 C1472 1.524 . S
C1471 C1475 1.400 . S
C1472 H1457 0.960 . S
C1472 H1458 0.960 . S
C1472 H1459 0.960 . S
C1472 C1471 1.524 . S
C1473 C1470 1.403 . S
C1473 C1474 1.392 . S
C1473 C1477 1.495 . S
C1474 C1473 1.392 . S
C1474 C1475 1.385 . S
C1474 C1476 1.478 . S
C1475 H1469 0.930 . S
C1475 C1471 1.400 . S
C1475 C1474 1.385 . S
C1476 C1474 1.478 . S
C1476 C1478 1.381 . S
C1476 C1482 1.383 . S
C1477 C1473 1.495 . S
C1477 H1483 0.959 . S
C1477 H1484 0.961 . S
C1477 H1485 0.960 . S
C1478 C1476 1.381 . S
C1478 C1479 1.394 . S
C1478 H1486 0.930 . S
C1479 C1478 1.394 . S
C1479 C1480 1.383 . S
C1479 H1487 0.929 . S
C1480 C1479 1.383 . S
C1480 C1481 1.377 . S
C1481 H1465 0.930 . S
C1481 C1480 1.377 . S
C1481 C1482 1.379 . S
C1482 H1466 0.931 . S
C1482 C1476 1.383 . S
C1482 C1481 1.379 . S
H1483 C1477 0.959 . S
H1484 C1477 0.961 . S
H1485 C1477 0.960 . S
H1486 C1478 0.930 . S
H1487 C1479 0.929 . S
C633 C247 1.473 . S
C652 C344 1.467 . S
C688 C428 1.467 . S
C669 C283 1.473 . S
C724 C427 1.456 . S
C705 C175 1.463 . S
C741 C211 1.462 . S
C760 C343 1.456 . S
C796 C524 1.442 . S
C777 C103 1.462 . S
C832 C608 1.460 . S
C813 C139 1.461 . S
C849 C31 1.451 . S
C868 C607 1.457 . S
C885 C67 1.445 . S
C904 C523 1.456 . S
C940 C346 1.375 . S
C921 C37 1.508 1_554 S
C976 C430 1.381 . S
C957 C1 1.509 . S
C1012 C442 1.436 . S
C993 C109 1.534 . S
C1048 C358 1.444 . S
C1029 C73 1.536 . S
C1084 C526 1.322 . S
C1065 C181 1.520 1_556 S
C1101 C145 1.520 . S
C1120 C610 1.299 . S
C1156 C598 1.369 . S
C1137 C253 1.547 . S
C1173 C217 1.547 . S
C1192 C514 1.365 . S
C1228 C355 1.590 . S
C1209 C25 1.570 . S
C1264 C439 1.582 . S
C1245 C61 1.566 . S
C1281 C97 1.560 . S
C1300 C440 1.550 . S
C1336 C356 1.574 . S
C1317 C133 1.555 . S
C1372 C511 1.590 . S
C1353 C169 1.585 . S
C1389 C205 1.588 . S
C1408 C595 1.583 . S
C1425 C241 1.571 . S
C1444 C596 1.567 . S
C1461 C277 1.574 . S
C1480 C512 1.546 . S
