# Generated by pormake.
# Topology zzz, (3,6)-cn, num edge types: 1
# Building blocks:
#     Node 0, Type 0, BuildingBlock: BETDAH_clean_linker_0, # of connection points: 3
#     Node 1, Type 0, BuildingBlock: BETDAH_clean_linker_0, # of connection points: 3
#     Node 2, Type 0, BuildingBlock: BETDAH_clean_linker_0, # of connection points: 3
#     Node 3, Type 0, BuildingBlock: BETDAH_clean_linker_0, # of connection points: 3
#     Node 4, Type 0, BuildingBlock: BETDAH_clean_linker_0, # of connection points: 3
#     Node 5, Type 0, BuildingBlock: BETDAH_clean_linker_0, # of connection points: 3
#     Node 6, Type 0, BuildingBlock: BETDAH_clean_linker_0, # of connection points: 3
#     Node 7, Type 0, BuildingBlock: BETDAH_clean_linker_0, # of connection points: 3
#     Node 8, Type 1, BuildingBlock: LEVNOQ01_clean_sbu_1, # of connection points: 6
#     Node 9, Type 1, BuildingBlock: LEVNOQ01_clean_sbu_1, # of connection points: 6
#     Node 10, Type 1, BuildingBlock: LEVNOQ01_clean_sbu_1, # of connection points: 6
#     Node 11, Type 1, BuildingBlock: LEVNOQ01_clean_sbu_1, # of connection points: 6
#     Edge 12, Type (0, 1), BuildingBlock: MIFKUJ_clean_linker_0, # of connection points: 2
#     Edge 13, Type (0, 1), BuildingBlock: MIFKUJ_clean_linker_0, # of connection points: 2
#     Edge 14, Type (0, 1), BuildingBlock: MIFKUJ_clean_linker_0, # of connection points: 2
#     Edge 15, Type (0, 1), BuildingBlock: MIFKUJ_clean_linker_0, # of connection points: 2
#     Edge 16, Type (0, 1), BuildingBlock: MIFKUJ_clean_linker_0, # of connection points: 2
#     Edge 17, Type (0, 1), BuildingBlock: MIFKUJ_clean_linker_0, # of connection points: 2
#     Edge 18, Type (0, 1), BuildingBlock: MIFKUJ_clean_linker_0, # of connection points: 2
#     Edge 19, Type (0, 1), BuildingBlock: MIFKUJ_clean_linker_0, # of connection points: 2
#     Edge 20, Type (0, 1), BuildingBlock: MIFKUJ_clean_linker_0, # of connection points: 2
#     Edge 21, Type (0, 1), BuildingBlock: MIFKUJ_clean_linker_0, # of connection points: 2
#     Edge 22, Type (0, 1), BuildingBlock: MIFKUJ_clean_linker_0, # of connection points: 2
#     Edge 23, Type (0, 1), BuildingBlock: MIFKUJ_clean_linker_0, # of connection points: 2
#     Edge 24, Type (0, 1), BuildingBlock: MIFKUJ_clean_linker_0, # of connection points: 2
#     Edge 25, Type (0, 1), BuildingBlock: MIFKUJ_clean_linker_0, # of connection points: 2
#     Edge 26, Type (0, 1), BuildingBlock: MIFKUJ_clean_linker_0, # of connection points: 2
#     Edge 27, Type (0, 1), BuildingBlock: MIFKUJ_clean_linker_0, # of connection points: 2
#     Edge 28, Type (0, 1), BuildingBlock: MIFKUJ_clean_linker_0, # of connection points: 2
#     Edge 29, Type (0, 1), BuildingBlock: MIFKUJ_clean_linker_0, # of connection points: 2
#     Edge 30, Type (0, 1), BuildingBlock: MIFKUJ_clean_linker_0, # of connection points: 2
#     Edge 31, Type (0, 1), BuildingBlock: MIFKUJ_clean_linker_0, # of connection points: 2
#     Edge 32, Type (0, 1), BuildingBlock: MIFKUJ_clean_linker_0, # of connection points: 2
#     Edge 33, Type (0, 1), BuildingBlock: MIFKUJ_clean_linker_0, # of connection points: 2
#     Edge 34, Type (0, 1), BuildingBlock: MIFKUJ_clean_linker_0, # of connection points: 2
#     Edge 35, Type (0, 1), BuildingBlock: MIFKUJ_clean_linker_0, # of connection points: 2
# Relax obj value: 0.141
# Max RMSD: 0.184
# Mean RMSD: 0.107
data_MOF--net-zzz--node1-LEVNOQ01_clean_sbu_1--node2-BETDAH_clean_linker_0--edge1-MIFKUJ_clean_linker_0
_symmetry_space_group_name_H-M    P1
_symmetry_Int_Tables_number       1
_symmetry_cell_setting            triclinic
loop_
_symmetry_equiv_pos_as_xyz
'x, y, z'
_cell_length_a     64.605505
_cell_length_b     64.574873
_cell_length_c     20.489199
_cell_angle_alpha  90.03786
_cell_angle_beta   89.926191
_cell_angle_gamma 90.018544
loop_
_atom_site_label
_atom_site_type_symbol
_atom_site_fract_x
_atom_site_fract_y
_atom_site_fract_z
_atom_type_partial_charge
H0 H 0.82324 0.57899 0.18322 0.0
H1 H 0.76447 0.57134 0.08897 0.0
H2 H 0.76757 0.57993 0.29788 0.0
C3 C 0.80645 0.57892 0.18614 0.0
C4 C 0.79686 0.58026 0.24715 0.0
C5 C 0.79495 0.57555 0.12936 0.0
C6 C 0.77329 0.57427 0.13295 0.0
C7 C 0.76325 0.57646 0.1939 0.0
C8 C 0.77519 0.57904 0.25079 0.0
N9 N 0.74135 0.57561 0.20039 0.0
C10 C 0.72748 0.57312 0.149 0.0
H11 H 0.9504 0.82796 0.19371 0.0
H12 H 0.95794 0.76872 0.10157 0.0
H13 H 0.95413 0.7732 0.31164 0.0
C14 C 0.95116 0.81121 0.19758 0.0
C15 C 0.95157 0.80208 0.25933 0.0
C16 C 0.95361 0.79938 0.14086 0.0
C17 C 0.95573 0.77778 0.14551 0.0
C18 C 0.95532 0.76815 0.20737 0.0
C19 C 0.95367 0.78047 0.26401 0.0
N20 N 0.95704 0.74631 0.21498 0.0
C21 C 0.95856 0.73191 0.16442 0.0
H22 H 0.69857 0.94561 0.21035 0.0
H23 H 0.75279 0.95255 0.09094 0.0
H24 H 0.7563 0.96198 0.2993 0.0
C25 C 0.71512 0.94805 0.20637 0.0
C26 C 0.72629 0.95339 0.26218 0.0
C27 C 0.72436 0.94801 0.14456 0.0
C28 C 0.74566 0.95222 0.13881 0.0
C29 C 0.75744 0.95657 0.19527 0.0
C30 C 0.7475 0.95767 0.25639 0.0
N31 N 0.77905 0.96075 0.19279 0.0
C32 C 0.79174 0.9586 0.13819 0.0
H33 H 0.58626 0.69428 0.15608 0.0
H34 H 0.57079 0.75173 0.06493 0.0
H35 H 0.55887 0.74341 0.26924 0.0
C36 C 0.58011 0.70974 0.16037 0.0
C37 C 0.57177 0.71646 0.2202 0.0
C38 C 0.57855 0.72174 0.10347 0.0
C39 C 0.57195 0.74237 0.10862 0.0
C40 C 0.56605 0.75049 0.16968 0.0
C41 C 0.56527 0.73731 0.2244 0.0
N42 N 0.55961 0.77144 0.17716 0.0
C43 C 0.55965 0.78615 0.12738 0.0
H44 H 0.19526 0.44131 0.22294 0.0
H45 H 0.25009 0.45026 0.33816 0.0
H46 H 0.25294 0.45426 0.12811 0.0
C47 C 0.21192 0.4433 0.2258 0.0
C48 C 0.22298 0.44705 0.1685 0.0
C49 C 0.2214 0.44465 0.28709 0.0
C50 C 0.24278 0.44878 0.29085 0.0
C51 C 0.25438 0.45155 0.23298 0.0
C52 C 0.24427 0.45104 0.17229 0.0
N53 N 0.27597 0.45576 0.23324 0.0
C54 C 0.28852 0.45725 0.28822 0.0
H55 H 0.07992 0.20327 0.25785 0.0
H56 H 0.07561 0.26351 0.34429 0.0
H57 H 0.09102 0.25711 0.13974 0.0
C58 C 0.08161 0.21992 0.25313 0.0
C59 C 0.08639 0.2285 0.19239 0.0
C60 C 0.07766 0.23236 0.3074 0.0
C61 C 0.07887 0.25398 0.30201 0.0
C62 C 0.08407 0.26305 0.24141 0.0
C63 C 0.08751 0.25019 0.18663 0.0
N64 N 0.08567 0.28489 0.23333 0.0
C65 C 0.08231 0.29954 0.28232 0.0
H66 H 0.32889 0.08936 0.24392 0.0
H67 H 0.27313 0.08575 0.35748 0.0
H68 H 0.27049 0.08192 0.14731 0.0
C69 C 0.31213 0.08872 0.24591 0.0
C70 C 0.30098 0.08591 0.18821 0.0
C71 C 0.30234 0.08848 0.30687 0.0
C72 C 0.28068 0.08634 0.31029 0.0
C73 C 0.26903 0.08466 0.25222 0.0
C74 C 0.27935 0.08412 0.19167 0.0
N75 N 0.24707 0.08292 0.25211 0.0
C76 C 0.23436 0.08125 0.30686 0.0
H77 H 0.48406 0.31324 0.27655 0.0
H78 H 0.46157 0.25897 0.3747 0.0
H79 H 0.45005 0.26756 0.16881 0.0
C80 C 0.47643 0.29827 0.27469 0.0
C81 C 0.46767 0.29171 0.21595 0.0
C82 C 0.4741 0.28673 0.33207 0.0
C83 C 0.46356 0.26774 0.33008 0.0
C84 C 0.45527 0.26045 0.27062 0.0
C85 C 0.45689 0.27281 0.21415 0.0
N86 N 0.4449 0.24105 0.26627 0.0
C87 C 0.4458 0.22575 0.31416 0.0
O88 O 0.04586 0.97959 0.84334 0.0
Mg89 Mg 0.04873 0.98682 0.74382 0.0
O90 O 0.01484 0.99062 0.81985 0.0
Mg91 Mg 0.01539 0.01553 0.73656 0.0
O92 O 0.05139 0.01665 0.71084 0.0
O93 O 0.07786 0.99421 0.71763 0.0
O94 O 0.01425 0.04101 0.65449 0.0
O95 O 0.02612 0.04076 0.81347 0.0
Mg96 Mg 0.9863 0.04441 0.77703 0.0
O97 O 0.97888 0.01404 0.76055 0.0
O98 O 0.99301 0.06376 0.69821 0.0
O99 O 0.99937 0.05279 0.86688 0.0
O100 O 0.95592 0.03924 0.78373 0.0
C101 C 0.01629 0.97194 0.64882 0.0
C102 C 0.02677 0.97997 0.85613 0.0
C103 C 0.07099 0.01234 0.7025 0.0
C104 C 0.00531 0.05865 0.65303 0.0
C105 C 0.01872 0.05173 0.85978 0.0
C106 C 0.95992 0.01993 0.77362 0.0
O107 O 0.03296 0.96728 0.678 0.0
O108 O 0.00746 0.98938 0.65968 0.0
O109 O 0.45891 0.99343 0.74727 0.0
Mg110 Mg 0.4817 0.98076 0.68441 0.0
O111 O 0.48139 0.01508 0.7911 0.0
Mg112 Mg 0.51062 0.01101 0.72506 0.0
O113 O 0.50944 0.97388 0.72794 0.0
O114 O 0.48604 0.95022 0.69578 0.0
O115 O 0.54028 0.00846 0.65988 0.0
O116 O 0.53137 0.00522 0.81687 0.0
Mg117 Mg 0.54196 0.04764 0.76524 0.0
O118 O 0.51284 0.04666 0.72844 0.0
O119 O 0.56094 0.03433 0.69084 0.0
O120 O 0.54456 0.03385 0.85844 0.0
O121 O 0.52841 0.07644 0.75211 0.0
C122 C 0.48114 0.00856 0.58479 0.0
C123 C 0.46314 0.00754 0.78819 0.0
C124 C 0.50362 0.95453 0.72241 0.0
C125 C 0.55727 0.01861 0.65509 0.0
C126 C 0.54173 0.01446 0.86131 0.0
C127 C 0.51277 0.06675 0.72784 0.0
O128 O 0.48012 0.98909 0.58613 0.0
O129 O 0.49001 0.01801 0.6319 0.0
O130 O 0.52285 0.45722 0.74841 0.0
Mg131 Mg 0.54003 0.47919 0.69221 0.0
O132 O 0.50352 0.4808 0.79809 0.0
Mg133 Mg 0.50936 0.5083 0.72668 0.0
O134 O 0.54558 0.50629 0.74085 0.0
O135 O 0.5702 0.4831 0.71603 0.0
O136 O 0.51532 0.5361 0.65606 0.0
O137 O 0.5146 0.53112 0.81452 0.0
Mg138 Mg 0.47868 0.53698 0.7612 0.0
O139 O 0.47297 0.51006 0.7117 0.0
O140 O 0.49533 0.55928 0.70478 0.0
O141 O 0.48483 0.53594 0.86178 0.0
O142 O 0.44837 0.53303 0.73929 0.0
C143 C 0.51464 0.47775 0.59188 0.0
C144 C 0.50946 0.46206 0.79118 0.0
C145 C 0.56495 0.5006 0.74165 0.0
C146 C 0.50912 0.5548 0.6628 0.0
C147 C 0.5042 0.53829 0.86226 0.0
C148 C 0.45361 0.51581 0.71187 0.0
O149 O 0.53396 0.48047 0.59154 0.0
O150 O 0.50429 0.48515 0.63947 0.0
O151 O 0.97777 0.48827 0.82959 0.0
Mg152 Mg 0.98175 0.48201 0.72997 0.0
O153 O 0.98806 0.51865 0.79549 0.0
Mg154 Mg 0.01089 0.51542 0.70645 0.0
O155 O 0.01082 0.47889 0.69145 0.0
O156 O 0.98913 0.45238 0.70913 0.0
O157 O 0.03333 0.51275 0.61691 0.0
O158 O 0.03895 0.51037 0.77596 0.0
Mg159 Mg 0.0417 0.55178 0.68572 0.0
O160 O 0.01221 0.55131 0.72092 0.0
O161 O 0.04609 0.54294 0.58792 0.0
O162 O 0.06053 0.53647 0.75591 0.0
O163 O 0.03003 0.5806 0.70584 0.0
C164 C 0.96503 0.5125 0.63192 0.0
C165 C 0.97821 0.50766 0.83688 0.0
C166 C 0.0068 0.45908 0.68852 0.0
C167 C 0.04401 0.52374 0.57761 0.0
C168 C 0.05607 0.51983 0.78602 0.0
C169 C 0.01372 0.57132 0.72744 0.0
O170 O 0.96073 0.49657 0.66551 0.0
O171 O 0.98281 0.5211 0.63655 0.0
H172 H 0.21334 0.04628 0.33147 0.0
H173 H 0.18327 0.04221 0.40341 0.0
H174 H 0.18832 0.10632 0.46086 0.0
H175 H 0.21863 0.1103 0.38883 0.0
H176 H 0.17905 0.08249 0.56476 0.0
H177 H 0.15141 0.09267 0.35425 0.0
H178 H 0.14734 0.08777 0.23563 0.0
H179 H 0.12921 0.02456 0.26654 0.0
H180 H 0.13346 0.02898 0.38536 0.0
H181 H 0.06271 0.0463 0.62521 0.0
H182 H 0.08806 0.06691 0.56279 0.0
H183 H 0.13775 0.03225 0.65111 0.0
H184 H 0.1128 0.01187 0.71225 0.0
H185 H 0.11514 0.05176 0.47159 0.0
H186 H 0.17979 0.06141 0.66979 0.0
H187 H 0.18189 0.06947 0.78724 0.0
H188 H 0.12266 0.09949 0.77889 0.0
H189 H 0.12033 0.09193 0.66123 0.0
C190 C 0.20817 0.05939 0.36024 0.0
C191 C 0.21825 0.07854 0.35527 0.0
C192 C 0.19089 0.05714 0.40084 0.0
C193 C 0.18327 0.07406 0.43683 0.0
C194 C 0.19384 0.09308 0.43345 0.0
C195 C 0.21115 0.09533 0.39256 0.0
C196 C 0.16416 0.0717 0.47714 0.0
C197 C 0.16504 0.0759 0.54435 0.0
C198 C 0.1455 0.06393 0.45022 0.0
C199 C 0.14289 0.06113 0.37876 0.0
C200 C 0.1467 0.07768 0.33575 0.0
C201 C 0.14434 0.07499 0.26846 0.0
C202 C 0.13805 0.05586 0.24356 0.0
C203 C 0.13408 0.03937 0.28591 0.0
C204 C 0.13644 0.04197 0.35326 0.0
C205 C 0.07905 0.04341 0.63188 0.0
C206 C 0.0857 0.02731 0.67292 0.0
C207 C 0.09352 0.05511 0.59616 0.0
C208 C 0.11486 0.05115 0.6023 0.0
C209 C 0.12144 0.0358 0.64594 0.0
C210 C 0.10708 0.02404 0.6807 0.0
C211 C 0.13048 0.06143 0.55967 0.0
C212 C 0.129 0.0587 0.4919 0.0
C213 C 0.14834 0.07106 0.58589 0.0
C214 C 0.14986 0.076 0.65657 0.0
C215 C 0.16728 0.06987 0.69283 0.0
C216 C 0.16849 0.07432 0.75952 0.0
C217 C 0.15241 0.08496 0.79052 0.0
C218 C 0.13509 0.09121 0.75487 0.0
C219 C 0.13381 0.08682 0.68818 0.0
H220 H 0.15338 0.08836 0.84216 0.0
H221 H 0.13622 0.05381 0.19145 0.0
H222 H 0.45641 0.18631 0.28869 0.0
H223 H 0.45985 0.15791 0.36724 0.0
H224 H 0.4412 0.19902 0.52283 0.0
H225 H 0.43815 0.22755 0.44392 0.0
H226 H 0.47337 0.17862 0.55955 0.0
H227 H 0.40993 0.15943 0.46655 0.0
H228 H 0.38373 0.15127 0.38322 0.0
H229 H 0.41938 0.0988 0.32062 0.0
H230 H 0.44614 0.10693 0.40233 0.0
H231 H 0.4836 0.09309 0.77653 0.0
H232 H 0.4642 0.11919 0.714 0.0
H233 H 0.48978 0.09484 0.5352 0.0
H234 H 0.50946 0.06926 0.59781 0.0
H235 H 0.44748 0.1072 0.52387 0.0
H236 H 0.5136 0.13329 0.6073 0.0
H237 H 0.53785 0.14131 0.69673 0.0
H238 H 0.49231 0.18064 0.78604 0.0
H239 H 0.46769 0.17261 0.69747 0.0
C240 C 0.45292 0.18916 0.33966 0.0
C241 C 0.44704 0.20896 0.36067 0.0
C242 C 0.4547 0.17291 0.38446 0.0
C243 C 0.4505 0.17616 0.45108 0.0
C244 C 0.44444 0.19605 0.47179 0.0
C245 C 0.4427 0.21232 0.42687 0.0
C246 C 0.45403 0.15922 0.49933 0.0
C247 C 0.46724 0.16314 0.55235 0.0
C248 C 0.44615 0.13888 0.49034 0.0
C249 C 0.43028 0.13404 0.44007 0.0
C250 C 0.41239 0.14633 0.4344 0.0
C251 C 0.3974 0.14169 0.38748 0.0
C252 C 0.39999 0.12466 0.34627 0.0
C253 C 0.41749 0.1121 0.35226 0.0
C254 C 0.43259 0.11674 0.39886 0.0
C255 C 0.48443 0.09294 0.72372 0.0
C256 C 0.49733 0.07876 0.69143 0.0
C257 C 0.47348 0.10787 0.68812 0.0
C258 C 0.47549 0.1089 0.61985 0.0
C259 C 0.48776 0.09416 0.58766 0.0
C260 C 0.49886 0.07947 0.62332 0.0
C261 C 0.46706 0.12665 0.58225 0.0
C262 C 0.45309 0.12284 0.53134 0.0
C263 C 0.47386 0.14715 0.59369 0.0
C264 C 0.48876 0.15219 0.64625 0.0
C265 C 0.50873 0.14354 0.64625 0.0
C266 C 0.52254 0.1481 0.69673 0.0
C267 C 0.51661 0.16143 0.74714 0.0
C268 C 0.49687 0.17029 0.74703 0.0
C269 C 0.48299 0.16575 0.69671 0.0
H270 H 0.52731 0.16494 0.7862 0.0
H271 H 0.38838 0.12118 0.30988 0.0
H272 H 0.28401 0.47031 0.41349 0.0
H273 H 0.31202 0.47665 0.49237 0.0
H274 H 0.35689 0.4565 0.34949 0.0
H275 H 0.3289 0.44983 0.27164 0.0
H276 H 0.36717 0.44207 0.46535 0.0
H277 H 0.3476 0.5083 0.37913 0.0
H278 H 0.32367 0.53678 0.35222 0.0
H279 H 0.30906 0.54437 0.55535 0.0
H280 H 0.33272 0.51573 0.58338 0.0
H281 H 0.45753 0.49211 0.60122 0.0
H282 H 0.42932 0.47779 0.53479 0.0
H283 H 0.38492 0.49893 0.67758 0.0
H284 H 0.41291 0.51346 0.74292 0.0
H285 H 0.37408 0.51194 0.56317 0.0
H286 H 0.39662 0.44597 0.64807 0.0
H287 H 0.4203 0.41681 0.66969 0.0
H288 H 0.43022 0.40909 0.46379 0.0
H289 H 0.40702 0.43834 0.44112 0.0
C290 C 0.29987 0.46705 0.3996 0.0
C291 C 0.30447 0.45959 0.33701 0.0
C292 C 0.31586 0.47077 0.44434 0.0
C293 C 0.33665 0.4673 0.42666 0.0
C294 C 0.34104 0.45928 0.36441 0.0
C295 C 0.32508 0.45551 0.31996 0.0
C296 C 0.35393 0.47258 0.47186 0.0
C297 C 0.3688 0.45741 0.48638 0.0
C298 C 0.35596 0.4925 0.49999 0.0
C299 C 0.34175 0.50973 0.48327 0.0
C300 C 0.33916 0.51593 0.418 0.0
C301 C 0.32566 0.53212 0.40256 0.0
C302 C 0.3148 0.54234 0.45203 0.0
C303 C 0.31746 0.53642 0.51707 0.0
C304 C 0.33091 0.52022 0.53277 0.0
C305 C 0.4418 0.49309 0.6192 0.0
C306 C 0.43742 0.50384 0.67728 0.0
C307 C 0.42565 0.48497 0.58114 0.0
C308 C 0.40489 0.48726 0.60103 0.0
C309 C 0.40073 0.49706 0.66081 0.0
C310 C 0.41676 0.50532 0.69828 0.0
C311 C 0.38735 0.48135 0.55748 0.0
C312 C 0.37244 0.49652 0.54281 0.0
C313 C 0.38546 0.46149 0.52875 0.0
C314 C 0.40018 0.44446 0.54292 0.0
C315 C 0.40407 0.43821 0.60748 0.0
C316 C 0.41737 0.42159 0.61993 0.0
C317 C 0.42671 0.41101 0.56819 0.0
C318 C 0.42298 0.41719 0.50396 0.0
C319 C 0.40977 0.4338 0.49127 0.0
H320 H 0.43692 0.39808 0.57787 0.0
H321 H 0.30437 0.55487 0.43997 0.0
H322 H 0.05183 0.32788 0.27828 0.0
H323 H 0.04658 0.35716 0.35276 0.0
H324 H 0.10036 0.33858 0.46291 0.0
H325 H 0.10537 0.30904 0.38857 0.0
H326 H 0.07096 0.34863 0.54366 0.0
H327 H 0.10174 0.38162 0.36339 0.0
H328 H 0.10775 0.39093 0.24827 0.0
H329 H 0.04737 0.41849 0.23814 0.0
H330 H 0.04082 0.40901 0.35289 0.0
H331 H 0.04562 0.46577 0.63415 0.0
H332 H 0.06669 0.4405 0.57273 0.0
H333 H 0.021 0.39333 0.61034 0.0
H334 H 1.00031 0.41791 0.67112 0.0
H335 H 0.05706 0.41959 0.46181 0.0
H336 H 0.0418 0.34717 0.62727 0.0
H337 H 0.03968 0.33919 0.74475 0.0
H338 H 0.07656 0.39273 0.78866 0.0
H339 H 0.07917 0.40088 0.67144 0.0
C340 C 0.06246 0.33008 0.31858 0.0
C341 C 0.07893 0.3163 0.32816 0.0
C342 C 0.0596 0.34691 0.36076 0.0
C343 C 0.07328 0.35038 0.41304 0.0
C344 C 0.08965 0.33635 0.4229 0.0
C345 C 0.09249 0.31948 0.3806 0.0
C346 C 0.06987 0.36815 0.45857 0.0
C347 C 0.06806 0.36415 0.5257 0.0
C348 C 0.06692 0.3887 0.43586 0.0
C349 C 0.07073 0.39444 0.36671 0.0
C350 C 0.08966 0.3895 0.33648 0.0
C351 C 0.09316 0.39481 0.27127 0.0
C352 C 0.07792 0.40523 0.23586 0.0
C353 C 0.05915 0.41039 0.26563 0.0
C354 C 0.05554 0.40506 0.33078 0.0
C355 C 0.04019 0.44998 0.62948 0.0
C356 C 0.02112 0.44401 0.65695 0.0
C357 C 0.05222 0.43558 0.59436 0.0
C358 C 0.04548 0.41498 0.58696 0.0
C359 C 0.02676 0.40899 0.61601 0.0
C360 C 0.01484 0.42322 0.6507 0.0
C361 C 0.05695 0.39969 0.54601 0.0
C362 C 0.0603 0.40413 0.47978 0.0
C363 C 0.06189 0.37969 0.56978 0.0
C364 C 0.06059 0.37469 0.64043 0.0
C365 C 0.04958 0.35717 0.66191 0.0
C366 C 0.04826 0.35264 0.7285 0.0
C367 C 0.05794 0.36547 0.77414 0.0
C368 C 0.06901 0.38284 0.75328 0.0
C369 C 0.07039 0.38744 0.68676 0.0
H370 H 0.05689 0.36193 0.82567 0.0
H371 H 0.08067 0.40935 0.18539 0.0
H372 H 0.79318 0.97877 0.02243 0.0
H373 H 0.82257 0.97982 0.94626 0.0
H374 H 0.85598 0.93697 0.06863 0.0
H375 H 0.82665 0.93614 0.14491 0.0
H376 H 0.87939 0.96965 0.03982 0.0
H377 H 0.83816 0.92223 0.91665 0.0
H378 H 0.80657 0.9094 0.86265 0.0
H379 H 0.80668 0.96218 0.73533 0.0
H380 H 0.8381 0.9755 0.78917 0.0
H381 H 0.96221 0.97815 0.80226 0.0
H382 H 0.93414 0.95704 0.84921 0.0
H383 H 0.89123 0.00715 0.81816 0.0
H384 H 0.91878 0.02801 0.77111 0.0
H385 H 0.87575 0.96206 0.79908 0.0
H386 H 0.89854 0.01115 0.00105 0.0
H387 H 0.92915 0.02751 0.05165 0.0
H388 H 0.96448 0.9722 0.01882 0.0
H389 H 0.93389 0.95535 0.96957 0.0
C390 C 0.80666 0.96928 0.03208 0.0
C391 C 0.80772 0.95724 0.08885 0.0
C392 C 0.82342 0.96983 0.98859 0.0
C393 C 0.84149 0.95831 0.00126 0.0
C394 C 0.84224 0.94591 0.05756 0.0
C395 C 0.82548 0.94537 0.10092 0.0
C396 C 0.86012 0.96055 0.95877 0.0
C397 C 0.87868 0.96733 0.98741 0.0
C398 C 0.85928 0.95793 0.8901 0.0
C399 C 0.84045 0.94992 0.85722 0.0
C400 C 0.83138 0.93117 0.87741 0.0
C401 C 0.81351 0.9238 0.84678 0.0
C402 C 0.80461 0.93498 0.79565 0.0
C403 C 0.81359 0.95354 0.77494 0.0
C404 C 0.83145 0.96099 0.80543 0.0
C405 C 0.94669 0.98441 0.804 0.0
C406 C 0.94286 0.00495 0.7847 0.0
C407 C 0.93068 0.97239 0.831 0.0
C408 C 0.91072 0.98078 0.83856 0.0
C409 C 0.90652 1.00044 0.81324 0.0
C410 C 0.92238 0.01238 0.78654 0.0
C411 C 0.89481 0.97085 0.88048 0.0
C412 C 0.87661 0.96326 0.85182 0.0
C413 C 0.89592 0.97257 0.94913 0.0
C414 C 0.91407 0.9821 0.98128 0.0
C415 C 0.91282 1.00246 0.00512 0.0
C416 C 0.93014 0.01179 0.03356 0.0
C417 C 0.94876 1.00089 0.03829 0.0
C418 C 0.95006 0.98061 0.01493 0.0
C419 C 0.93273 0.97114 0.98699 0.0
H420 H 0.96218 0.00815 0.06012 0.0
H421 H 0.79077 0.92925 0.77202 0.0
H422 H 0.52965 0.79225 0.03835 0.0
H423 H 0.52682 0.82116 0.96133 0.0
H424 H 0.58491 0.84568 0.03101 0.0
H425 H 0.58748 0.81683 0.10898 0.0
H426 H 0.55711 0.87573 0.02181 0.0
H427 H 0.5812 0.82294 0.8788 0.0
H428 H 0.58208 0.78837 0.82766 0.0
H429 H 0.52078 0.79761 0.75246 0.0
H430 H 0.51939 0.83211 0.80394 0.0
H431 H 0.54419 0.9536 0.76594 0.0
H432 H 0.56082 0.92574 0.82988 0.0
H433 H 0.50588 0.88839 0.8086 0.0
H434 H 0.48926 0.91595 0.74824 0.0
H435 H 0.54048 0.86591 0.7877 0.0
H436 H 0.51581 0.91787 0.94008 0.0
H437 H 0.51486 0.95161 0.9961 0.0
H438 H 0.57757 0.94314 0.05945 0.0
H439 H 0.57937 0.90995 0.00059 0.0
C440 C 0.54189 0.80373 0.03652 0.0
C441 C 0.55883 0.80239 0.07886 0.0
C442 C 0.54034 0.82019 0.99241 0.0
C443 C 0.5558 0.83553 0.98957 0.0
C444 C 0.57283 0.83405 0.03199 0.0
C445 C 0.57435 0.81756 0.07624 0.0
C446 C 0.55361 0.85349 0.94431 0.0
C447 C 0.55395 0.87364 0.97023 0.0
C448 C 0.54935 0.85079 0.87709 0.0
C449 C 0.55016 0.83009 0.84557 0.0
C450 C 0.56785 0.81755 0.8517 0.0
C451 C 0.56845 0.79797 0.8226 0.0
C452 C 0.55149 0.79079 0.78691 0.0
C453 C 0.53391 0.8032 0.78012 0.0
C454 C 0.53322 0.82278 0.80917 0.0
C455 C 0.53568 0.93955 0.7761 0.0
C456 C 0.51523 0.93732 0.75377 0.0
C457 C 0.54522 0.92357 0.81187 0.0
C458 C 0.53449 0.90502 0.82468 0.0
C459 C 0.5145 0.9025 0.7995 0.0
C460 C 0.50499 0.91839 0.76476 0.0
C461 C 0.54328 0.88812 0.86563 0.0
C462 C 0.54417 0.86809 0.83889 0.0
C463 C 0.54871 0.891 0.93205 0.0
C464 C 0.54787 0.91156 0.96455 0.0
C465 C 0.5296 0.92342 0.96445 0.0
C466 C 0.5289 0.94248 0.99683 0.0
C467 C 0.54621 0.94962 0.03089 0.0
C468 C 0.56427 0.93774 0.03245 0.0
C469 C 0.56518 0.91887 -0.00085 0.0
H470 H 0.54562 0.96432 0.05623 0.0
H471 H 0.55198 0.77562 0.76444 0.0
H472 H 0.72568 0.54349 0.05622 0.0
H473 H 0.69702 0.53707 0.98031 0.0
H474 H 0.66443 0.58997 0.05827 0.0
H475 H 0.69303 0.59612 0.13488 0.0
H476 H 0.63895 0.55815 0.0485 0.0
H477 H 0.68595 0.59142 0.90462 0.0
H478 H 0.71931 0.59841 0.85035 0.0
H479 H 0.71903 0.53729 0.76774 0.0
H480 H 0.68581 0.52981 0.82227 0.0
H481 H 0.56034 0.53751 0.80736 0.0
H482 H 0.58643 0.55546 0.8734 0.0
H483 H 0.63186 0.50979 0.81747 0.0
H484 H 0.60595 0.49168 0.75358 0.0
H485 H 0.64896 0.54569 0.81176 0.0
H486 H 0.60377 0.51161 0.97127 0.0
H487 H 0.5701 0.50569 0.02515 0.0
H488 H 0.56685 0.56999 0.07772 0.0
H489 H 0.60029 0.57637 0.02292 0.0
C490 C 0.71248 0.55384 0.05635 0.0
C491 C 0.71147 0.57034 0.10062 0.0
C492 C 0.69615 0.55025 0.01294 0.0
C493 C 0.6786 0.56318 0.01294 0.0
C494 C 0.67778 0.57982 0.05713 0.0
C495 C 0.69412 0.58338 0.10058 0.0
C496 C 0.6608 0.55866 0.96896 0.0
C497 C 0.64108 0.55577 0.99651 0.0
C498 C 0.66347 0.55557 0.90108 0.0
C499 C 0.68344 0.56001 0.86795 0.0
C500 C 0.69307 0.57941 0.87526 0.0
C501 C 0.71195 0.58347 0.84438 0.0
C502 C 0.7213 0.56829 0.80571 0.0
C503 C 0.71177 0.54903 0.79773 0.0
C504 C 0.6929 0.54488 0.82855 0.0
C505 C 0.57588 0.53131 0.80954 0.0
C506 C 0.58091 0.51298 0.77616 0.0
C507 C 0.59084 0.54163 0.84702 0.0
C508 C 0.61122 0.53403 0.85069 0.0
C509 C 0.61634 0.51612 0.81538 0.0
C510 C 0.60142 0.50571 0.77881 0.0
C511 C 0.62738 0.54411 0.89187 0.0
C512 C 0.64679 0.54827 0.86365 0.0
C513 C 0.62438 0.54844 0.95904 0.0
C514 C 0.60441 0.5445 0.9925 0.0
C515 C 0.5958 0.5245 0.994 0.0
C516 C 0.57676 0.52107 0.02466 0.0
C517 C 0.56633 0.53746 0.05474 0.0
C518 C 0.57496 0.5573 0.05447 0.0
C519 C 0.59393 0.56085 0.0235 0.0
H520 H 0.55157 0.53478 0.07832 0.0
H521 H 0.73592 0.57146 0.78185 0.0
H522 H 0.96462 0.69221 0.19682 0.0
H523 H 0.96894 0.66263 0.12301 0.0
H524 H 0.9613 0.7031 0.95729 0.0
H525 H 0.95676 0.73279 0.0317 0.0
H526 H 0.94058 0.66556 0.94084 0.0
H527 H 0.0089 0.68831 0.0022 0.0
H528 H 0.03659 0.69789 0.07926 0.0
H529 H 0.03415 0.63718 0.16432 0.0
H530 H 0.00623 0.62733 0.08828 0.0
H531 H 0.99492 0.60755 0.69681 0.0
H532 H 0.97984 0.63238 0.77383 0.0
H533 H 0.98759 0.58833 0.93002 0.0
H534 H 0.00263 0.56344 0.85266 0.0
H535 H 0.00618 0.62589 0.95526 0.0
H536 H 0.94092 0.60157 0.88575 0.0
H537 H 0.91452 0.59119 0.8056 0.0
H538 H 0.91064 0.65383 0.73646 0.0
H539 H 0.93771 0.66444 0.81446 0.0
C540 C 0.96379 0.69473 0.1446 0.0
C541 C 0.96051 0.71466 0.11962 0.0
C542 C 0.96626 0.67785 0.10248 0.0
C543 C 0.96564 0.68062 0.03447 0.0
C544 C 0.96182 0.70056 0.00951 0.0
C545 C 0.95935 0.7175 0.05186 0.0
C546 C 0.96993 0.66287 0.98984 0.0
C547 C 0.955 0.65702 0.94344 0.0
C548 C 0.9885 0.65129 0.99441 0.0
C549 C 0.00533 0.65716 0.04002 0.0
C550 C 0.01416 0.67706 0.03768 0.0
C551 C 0.02991 0.68253 0.08111 0.0
C552 C 0.03709 0.66817 0.12678 0.0
C553 C 0.02856 0.64829 0.12899 0.0
C554 C 0.01278 0.64276 0.08571 0.0
C555 C 0.99259 0.6029 0.74708 0.0
C556 C 0.9994 0.58341 0.76857 0.0
C557 C 0.98408 0.61712 0.79115 0.0
C558 C 0.98257 0.61224 0.85779 0.0
C559 C 0.98854 0.59241 0.87883 0.0
C560 C 0.99684 0.57809 0.83451 0.0
C561 C 0.97691 0.62861 0.9059 0.0
C562 C 0.99164 0.63427 0.95291 0.0
C563 C 0.95817 0.63991 0.90179 0.0
C564 C 0.94154 0.63376 0.85561 0.0
C565 C 0.93462 0.6131 0.853 0.0
C566 C 0.91953 0.60717 0.80792 0.0
C567 C 0.91088 0.62185 0.766 0.0
C568 C 0.91736 0.64248 0.76898 0.0
C569 C 0.93264 0.64845 0.81352 0.0
H570 H 0.89914 0.61724 0.73125 0.0
H571 H 0.04929 0.67243 0.16036 0.0
H572 H 0.10146 0.21417 0.39968 0.0
H573 H 0.0906 0.18412 0.46448 0.0
H574 H 0.02738 0.19413 0.40508 0.0
H575 H 0.0382 0.2243 0.34119 0.0
H576 H 0.06029 0.17385 0.56209 0.0
H577 H 0.01214 0.14782 0.33839 0.0
H578 H 0.01214 0.15231 0.21865 0.0
H579 H 0.07771 0.16303 0.22157 0.0
H580 H 0.07809 0.15866 0.34091 0.0
H581 H 0.98945 0.09747 0.64312 0.0
H582 H 0.00451 0.12684 0.58665 0.0
H583 H 0.05048 0.08703 0.49979 0.0
H584 H 0.03537 0.05707 0.55684 0.0
H585 H 0.03216 0.11963 0.41454 0.0
H586 H 0.06772 0.11107 0.61656 0.0
H587 H 0.07239 0.10593 0.73483 0.0
H588 H 0.03825 0.16163 0.77379 0.0
H589 H 0.03315 0.167 0.65568 0.0
C590 C 0.08511 0.21065 0.40385 0.0
C591 C 0.07057 0.22166 0.36663 0.0
C592 C 0.07896 0.19335 0.44001 0.0
C593 C 0.05828 0.18674 0.43828 0.0
C594 C 0.04345 0.19894 0.40641 0.0
C595 C 0.04956 0.21635 0.37091 0.0
C596 C 0.05258 0.166 0.46306 0.0
C597 C 0.05414 0.16199 0.52998 0.0
C598 C 0.04528 0.15031 0.42054 0.0
C599 C 0.04509 0.15312 0.34866 0.0
C600 C 0.02654 0.15116 0.31339 0.0
C601 C 0.02647 0.15373 0.24558 0.0
C602 C 0.04489 0.15811 0.21249 0.0
C603 C 0.06342 0.15986 0.24715 0.0
C604 C 0.06356 0.15741 0.31492 0.0
C605 C 0.00255 0.09471 0.61124 0.0
C606 C 0.01156 0.07491 0.60592 0.0
C607 C 0.01118 0.11162 0.57921 0.0
C608 C 0.02885 0.10915 0.54052 0.0
C609 C 0.03694 0.08921 0.5303 0.0
C610 C 0.02834 0.07215 0.56292 0.0
C611 C 0.03913 0.12778 0.51399 0.0
C612 C 0.03841 0.13144 0.44667 0.0
C613 C 0.04762 0.14298 0.55603 0.0
C614 C 0.04994 0.13937 0.62721 0.0
C615 C 0.06098 0.12209 0.65032 0.0
C616 C 0.06377 0.11917 0.71736 0.0
C617 C 0.05566 0.13349 0.76173 0.0
C618 C 0.04456 0.15061 0.73927 0.0
C619 C 0.04174 0.1536 0.67231 0.0
H620 H 0.05807 0.13144 0.81352 0.0
H621 H 0.04484 0.16005 0.16002 0.0
H622 H 0.32985 0.11715 0.35111 0.0
H623 H 0.36181 0.10864 0.40955 0.0
H624 H 0.33898 0.04688 0.44358 0.0
H625 H 0.30689 0.05543 0.3863 0.0
H626 H 0.37491 0.08344 0.53958 0.0
H627 H 0.37067 0.02078 0.35087 0.0
H628 H 0.35538 0.01402 0.24237 0.0
H629 H 0.36443 0.07773 0.18966 0.0
H630 H 0.37932 0.08484 0.29804 0.0
H631 H 0.45037 0.99267 0.50788 0.0
H632 H 0.42091 0.01162 0.46446 0.0
H633 H 0.44955 0.06937 0.51969 0.0
H634 H 0.47887 0.05016 0.56473 0.0
H635 H 0.41206 0.03968 0.37799 0.0
H636 H 0.41104 0.10252 0.57852 0.0
H637 H 0.42476 0.10846 0.68929 0.0
H638 H 0.42565 0.0429 0.72415 0.0
H639 H 0.41167 0.03659 0.614 0.0
C640 C 0.33115 0.10219 0.37468 0.0
C641 C 0.31591 0.08695 0.36461 0.0
C642 C 0.34948 0.0973 0.4075 0.0
C643 C 0.3528 0.07708 0.42991 0.0
C644 C 0.33662 0.0626 0.42665 0.0
C645 C 0.31821 0.06754 0.39449 0.0
C646 C 0.37406 0.06986 0.4438 0.0
C647 C 0.38325 0.07414 0.50417 0.0
C648 C 0.38476 0.05763 0.39764 0.0
C649 C 0.37599 0.05335 0.33236 0.0
C650 C 0.36936 0.0333 0.31597 0.0
C651 C 0.36067 0.02944 0.25466 0.0
C652 C 0.35878 0.04548 0.20928 0.0
C653 C 0.3657 0.06536 0.22493 0.0
C654 C 0.37416 0.06934 0.28638 0.0
C655 C 0.45073 0.00943 0.50935 0.0
C656 C 0.46684 0.02002 0.54127 0.0
C657 C 0.43377 0.02028 0.4846 0.0
C658 C 0.43267 0.04191 0.49071 0.0
C659 C 0.44973 0.05265 0.51619 0.0
C660 C 0.46659 0.04174 0.54152 0.0
C661 C 0.41304 0.05277 0.4748 0.0
C662 C 0.40404 0.04921 0.41357 0.0
C663 C 0.40255 0.06552 0.52073 0.0
C664 C 0.41063 0.06909 0.58757 0.0
C665 C 0.41415 0.08938 0.60988 0.0
C666 C 0.42196 0.0928 0.67258 0.0
C667 C 0.42621 0.07606 0.71362 0.0
C668 C 0.42249 0.05585 0.69221 0.0
C669 C 0.41462 0.05235 0.62962 0.0
H670 H 0.43231 0.07874 0.76208 0.0
H671 H 0.35194 0.0425 0.16208 0.0
H672 H 0.44952 0.29608 0.43558 0.0
H673 H 0.45523 0.32599 0.50665 0.0
H674 H 0.51772 0.33131 0.43416 0.0
H675 H 0.51221 0.30114 0.36471 0.0
H676 H 0.5138 0.34954 0.55464 0.0
H677 H 0.47889 0.3504 0.34301 0.0
H678 H 0.45161 0.33839 0.26769 0.0
H679 H 0.40487 0.35922 0.4016 0.0
H680 H 0.4319 0.37076 0.47853 0.0
H681 H 0.53397 0.45422 0.49879 0.0
H682 H 0.52481 0.41875 0.46905 0.0
H683 H 0.46773 0.42422 0.57643 0.0
H684 H 0.47663 0.45957 0.60677 0.0
H685 H 0.46609 0.40026 0.45201 0.0
H686 H 0.503 0.40444 0.65708 0.0
H687 H 0.53173 0.41669 0.72648 0.0
H688 H 0.57553 0.38643 0.601 0.0
H689 H 0.54709 0.37421 0.53046 0.0
C690 C 0.46486 0.30281 0.43808 0.0
C691 C 0.48032 0.29667 0.3939 0.0
C692 C 0.46806 0.32003 0.47823 0.0
C693 C 0.48663 0.33129 0.47369 0.0
C694 C 0.50318 0.32301 0.43784 0.0
C695 C 0.50005 0.30573 0.39819 0.0
C696 C 0.48733 0.35347 0.49213 0.0
C697 C 0.50325 0.3606 0.53279 0.0
C698 C 0.4736 0.36795 0.46326 0.0
C699 C 0.45737 0.36148 0.4164 0.0
C700 C 0.46278 0.35231 0.35648 0.0
C701 C 0.44738 0.34545 0.31373 0.0
C702 C 0.42653 0.34797 0.32994 0.0
C703 C 0.42103 0.35729 0.38906 0.0
C704 C 0.43638 0.36399 0.43228 0.0
C705 C 0.5191 0.44819 0.5142 0.0
C706 C 0.50615 0.45975 0.55582 0.0
C707 C 0.51397 0.42785 0.49749 0.0
C708 C 0.49575 0.41882 0.52154 0.0
C709 C 0.4818 0.43095 0.5573 0.0
C710 C 0.48693 0.45126 0.57433 0.0
C711 C 0.49237 0.39626 0.51499 0.0
C712 C 0.47614 0.38914 0.47578 0.0
C713 C 0.50586 0.38183 0.54488 0.0
C714 C 0.52295 0.38863 0.58818 0.0
C715 C 0.51878 0.40058 0.64403 0.0
C716 C 0.535 0.40757 0.68341 0.0
C717 C 0.55544 0.40253 0.66778 0.0
C718 C 0.55969 0.39039 0.61291 0.0
C719 C 0.54353 0.38341 0.57325 0.0
H720 H 0.56796 0.4079 0.6985 0.0
H721 H 0.41463 0.34278 0.29658 0.0
H722 H 0.19256 0.41614 0.32318 0.0
H723 H 0.16058 0.42444 0.38163 0.0
H724 H 0.18588 0.48385 0.43525 0.0
H725 H 0.21776 0.47573 0.37587 0.0
H726 H 0.1584 0.46709 0.52981 0.0
H727 H 0.16207 0.48086 0.29845 0.0
H728 H 0.16667 0.4727 0.1817 0.0
H729 H 0.11682 0.42888 0.19158 0.0
H730 H 0.11212 0.43651 0.30885 0.0
H731 H 0.07948 0.5398 0.52695 0.0
H732 H 0.10845 0.52033 0.48232 0.0
H733 H 0.07153 0.46476 0.48134 0.0
H734 H 0.04227 0.48413 0.52822 0.0
H735 H 0.1024 0.47429 0.36543 0.0
H736 H 0.09694 0.46403 0.59763 0.0
H737 H 0.092 0.47507 0.71182 0.0
H738 H 0.14536 0.51448 0.69777 0.0
H739 H 0.15035 0.504 0.58299 0.0
C740 C 0.19166 0.43054 0.3502 0.0
C741 C 0.2075 0.4454 0.34451 0.0
C742 C 0.17332 0.43534 0.38294 0.0
C743 C 0.17071 0.45496 0.4111 0.0
C744 C 0.18758 0.46868 0.4133 0.0
C745 C 0.20589 0.46394 0.37999 0.0
C746 C 0.14979 0.46233 0.4295 0.0
C747 C 0.14615 0.46859 0.49396 0.0
C748 C 0.13372 0.46408 0.38266 0.0
C749 C 0.13695 0.45901 0.3127 0.0
C750 C 0.15227 0.46926 0.27601 0.0
C751 C 0.15484 0.4648 0.20968 0.0
C752 C 0.14205 0.45025 0.17936 0.0
C753 C 0.12672 0.44009 0.2153 0.0
C754 C 0.12411 0.44446 0.28166 0.0
C755 C 0.07719 0.52357 0.51571 0.0
C756 C 0.05866 0.5134 0.5325 0.0
C757 C 0.09386 0.51245 0.49053 0.0
C758 C 0.09222 0.49107 0.48035 0.0
C759 C 0.07312 0.48122 0.4902 0.0
C760 C 0.05645 0.4923 0.51674 0.0
C761 C 0.11112 0.47908 0.46551 0.0
C762 C 0.11446 0.47218 0.40161 0.0
C763 C 0.12695 0.47687 0.51266 0.0
C764 C 0.12389 0.48336 0.58149 0.0
C765 C 0.10746 0.47524 0.61861 0.0
C766 C 0.10468 0.48136 0.68349 0.0
C767 C 0.11836 0.49547 0.71194 0.0
C768 C 0.13479 0.50355 0.67558 0.0
C769 C 0.13759 0.49753 0.61062 0.0
H770 H 0.11632 0.50008 0.76219 0.0
H771 H 0.1439 0.44694 0.12795 0.0
H772 H 0.92566 0.82318 0.07685 0.0
H773 H 0.93471 0.85325 0.01013 0.0
H774 H 0.99845 0.83325 0.00729 0.0
H775 H 0.98923 0.803 0.07254 0.0
H776 H 0.95828 0.88096 0.06535 0.0
H777 H 0.0259 0.85765 0.89187 0.0
H778 H 0.0346 0.82963 0.81473 0.0
H779 H 0.97001 0.81677 0.7869 0.0
H780 H 0.96089 0.84482 0.86343 0.0
H781 H 0.04705 0.94815 0.91651 0.0
H782 H 0.03141 0.91647 0.95857 0.0
H783 H 0.9706 0.94256 0.93177 0.0
H784 H 0.98614 0.97461 0.89089 0.0
H785 H 0.00604 0.89252 0.8795 0.0
H786 H 0.93774 0.91603 0.04756 0.0
H787 H 0.92819 0.94297 0.12741 0.0
H788 H 0.99242 0.95516 0.16462 0.0
H789 H 0.00239 0.92798 0.08606 0.0
C790 C 0.94133 0.8246 0.05848 0.0
C791 C 0.95677 0.81082 0.07942 0.0
C792 C 0.94656 0.84191 0.02111 0.0
C793 C 0.9673 0.84569 0.00439 0.0
C794 C 0.9823 0.83061 0.0189 0.0
C795 C 0.97702 0.8132 0.0559 0.0
C796 C 0.97384 0.86675 0.98361 0.0
C797 C 0.9683 0.88357 0.02361 0.0
C798 C 0.98739 0.87006 0.93043 0.0
C799 C 0.99273 0.85324 0.88392 0.0
C800 C 0.01354 0.8489 0.86913 0.0
C801 C 0.01855 0.83299 0.82558 0.0
C802 C 0.00287 0.82136 0.79622 0.0
C803 C 0.98214 0.8257 0.81002 0.0
C804 C 0.97705 0.84157 0.85363 0.0
C805 C 0.03037 0.94748 0.92145 0.0
C806 C 0.01782 0.96379 0.89903 0.0
C807 C 0.02145 0.92926 0.94499 0.0
C808 C 0.99987 0.92708 0.94738 0.0
C809 C 0.98731 0.94394 0.93034 0.0
C810 C 0.99622 0.96222 0.90681 0.0
C811 C 0.99064 0.90657 0.96173 0.0
C812 C 0.99573 0.8899 0.92053 0.0
C813 C 0.97652 0.90343 0.01353 0.0
C814 C 0.97081 0.92017 0.05997 0.0
C815 C 0.94984 0.92442 0.07284 0.0
C816 C 0.94435 0.93967 0.11813 0.0
C817 C 0.95969 0.95081 0.15088 0.0
C818 C 0.98056 0.9466 0.13885 0.0
C819 C 0.98614 0.9313 0.09382 0.0
H820 H 0.95538 0.96276 0.18533 0.0
H821 H 0.00679 0.809 0.76275 0.0
H822 H 0.71814 0.97772 0.05326 0.0
H823 H 0.68541 0.98309 0.99574 0.0
H824 H 0.66472 0.92251 0.05561 0.0
H825 H 0.69743 0.91715 0.11333 0.0
H826 H 0.65861 0.964 0.90445 0.0
H827 H 0.61574 0.92943 0.11808 0.0
H828 H 0.62173 0.91795 0.23135 0.0
H829 H 0.66739 0.96563 0.25625 0.0
H830 H 0.66172 0.97733 0.14299 0.0
H831 H 0.55006 0.97312 0.8552 0.0
H832 H 0.58095 0.95611 0.89803 0.0
H833 H 0.59517 0.01068 0.01056 0.0
H834 H 0.56489 0.02819 0.96491 0.0
H835 H 0.60363 0.96956 0.07319 0.0
H836 H 0.61578 0.00999 0.87551 0.0
H837 H 0.60957 0.01924 0.76036 0.0
H838 H 0.62403 0.95708 0.70163 0.0
H839 H 0.62987 0.94732 0.81664 0.0
C840 C 0.70711 0.96511 0.05097 0.0
C841 C 0.71023 0.94708 0.08789 0.0
C842 C 0.6883 0.96826 0.01872 0.0
C843 C 0.67245 0.95342 0.02308 0.0
C844 C 0.67663 0.93429 0.05262 0.0
C845 C 0.69541 0.93113 0.08483 0.0
C846 C 0.65096 0.95925 0.00561 0.0
C847 C 0.64651 0.96489 0.94112 0.0
C848 C 0.63513 0.96049 0.05347 0.0
C849 C 0.63849 0.95405 0.12198 0.0
C850 C 0.62705 0.93746 0.14782 0.0
C851 C 0.63042 0.93088 0.21187 0.0
C852 C 0.6451 0.94089 0.25066 0.0
C853 C 0.65619 0.95774 0.22587 0.0
C854 C 0.65295 0.96432 0.16168 0.0
C855 C 0.55949 0.98135 0.88993 0.0
C856 C 0.55535 1.00219 0.90487 0.0
C857 C 0.57716 0.97162 0.91434 0.0
C858 C 0.59052 0.98234 0.95627 0.0
C859 C 0.58508 1.00223 0.97775 0.0
C860 C 0.56772 0.01218 0.95181 0.0
C861 C 0.61119 0.97385 0.97186 0.0
C862 C 0.61554 0.96803 0.03613 0.0
C863 C 0.62676 0.97202 0.92354 0.0
C864 C 0.62303 0.97787 0.85467 0.0
C865 C 0.61737 0.99823 0.83815 0.0
C866 C 0.61396 0.00358 0.77295 0.0
C867 C 0.6164 0.98874 0.72393 0.0
C868 C 0.62214 0.96852 0.73982 0.0
C869 C 0.62548 0.96307 0.80495 0.0
H870 H 0.61398 0.99292 0.67361 0.0
H871 H 0.64781 0.93557 0.29994 0.0
H872 H 0.54997 0.72402 0.0059 0.0
H873 H 0.54034 0.69436 0.93907 0.0
H874 H 0.59656 0.66319 0.99505 0.0
H875 H 0.60697 0.69341 0.05838 0.0
H876 H 0.58059 0.64669 0.8824 0.0
H877 H 0.55375 0.66676 0.10071 0.0
H878 H 0.53476 0.69088 0.17322 0.0
H879 H 0.48122 0.68646 0.05074 0.0
H880 H 0.49989 0.66275 0.97684 0.0
H881 H 0.54369 0.54356 0.90879 0.0
H882 H 0.55977 0.57691 0.93624 0.0
H883 H 0.5004 0.60692 0.91698 0.0
H884 H 0.48441 0.57392 0.89211 0.0
H885 H 0.51836 0.6245 0.00617 0.0
H886 H 0.54055 0.6042 0.79169 0.0
H887 H 0.55698 0.5814 0.71009 0.0
H888 H 0.61536 0.58757 0.808 0.0
H889 H 0.59916 0.60985 0.89151 0.0
C890 C 0.561 0.7115 0.0005 0.0
C891 C 0.5788 0.71062 0.03987 0.0
C892 C 0.55531 0.69436 0.96283 0.0
C893 C 0.56717 0.67615 0.96532 0.0
C894 C 0.58687 0.67687 0.99391 0.0
C895 C 0.59281 0.6942 0.03021 0.0
C896 C 0.55747 0.65569 0.95261 0.0
C897 C 0.56698 0.64177 0.9093 0.0
C898 C 0.53953 0.64935 0.98718 0.0
C899 C 0.52829 0.66318 0.03296 0.0
C900 C 0.53795 0.671 0.08925 0.0
C901 C 0.52729 0.68462 0.13043 0.0
C902 C 0.50691 0.69024 0.11643 0.0
C903 C 0.49705 0.68218 0.06138 0.0
C904 C 0.50766 0.66868 0.01979 0.0
C905 C 0.53411 0.55727 0.91192 0.0
C906 C 0.51288 0.55618 0.89766 0.0
C907 C 0.5433 0.57633 0.927 0.0
C908 C 0.53146 0.5946 0.92672 0.0
C909 C 0.50999 0.59316 0.91724 0.0
C910 C 0.50078 0.57416 0.90353 0.0
C911 C 0.54113 0.61538 0.93476 0.0
C912 C 0.5318 0.62933 0.97822 0.0
C913 C 0.55879 0.62184 0.89875 0.0
C914 C 0.56858 0.60853 0.8483 0.0
C915 C 0.55685 0.60054 0.79622 0.0
C916 C 0.5661 0.58767 0.7497 0.0
C917 C 0.58716 0.58299 0.75403 0.0
C918 C 0.59905 0.59122 0.80475 0.0
C919 C 0.58981 0.60387 0.85189 0.0
H920 H 0.5943 0.57303 0.71795 0.0
H921 H 0.49872 0.70077 0.14844 0.0
H922 H 0.81793 0.60186 0.05579 0.0
H923 H 0.84846 0.59152 0.99267 0.0
H924 H 0.83093 0.52742 0.01326 0.0
H925 H 0.80022 0.5378 0.07543 0.0
H926 H 0.86908 0.5399 0.07564 0.0
H927 H 0.83618 0.54357 0.86136 0.0
H928 H 0.81611 0.56108 0.77504 0.0
H929 H 0.85979 0.61121 0.77361 0.0
H930 H 0.87987 0.59413 0.8607 0.0
H931 H 0.95255 0.48873 0.92471 0.0
H932 H 0.92058 0.50271 0.96907 0.0
H933 H 0.93551 0.56277 0.8895 0.0
H934 H 0.96679 0.5484 0.8409 0.0
H935 H 0.89874 0.55466 0.85729 0.0
H936 H 0.93344 0.55183 0.06063 0.0
H937 H 0.95457 0.53694 0.149 0.0
H938 H 0.90865 0.48994 0.1811 0.0
H939 H 0.88738 0.50434 0.09214 0.0
C940 C 0.81996 0.58569 0.04324 0.0
C941 C 0.80671 0.57061 0.0697 0.0
C942 C 0.83748 0.57977 0.00774 0.0
C943 C 0.84201 0.55871 0.99895 0.0
C944 C 0.82764 0.54375 0.01954 0.0
C945 C 0.80999 0.54969 0.0543 0.0
C946 C 0.86318 0.55232 0.97998 0.0
C947 C 0.87552 0.54274 0.02752 0.0
C948 C 0.87183 0.55719 0.91867 0.0
C949 C 0.85956 0.56756 0.86719 0.0
C950 C 0.84143 0.55837 0.84278 0.0
C951 C 0.83006 0.56821 0.79373 0.0
C952 C 0.8367 0.58722 0.76875 0.0
C953 C 0.85471 0.59645 0.7928 0.0
C954 C 0.86611 0.58668 0.84185 0.0
C955 C 0.94937 0.50506 0.91811 0.0
C956 C 0.96242 0.51747 0.87949 0.0
C957 C 0.93102 0.5131 0.9438 0.0
C958 C 0.92556 0.53389 0.93305 0.0
C959 C 0.9393 0.54668 0.89846 0.0
C960 C 0.95747 0.53853 0.87168 0.0
C961 C 0.90473 0.54163 0.95255 0.0
C962 C 0.89245 0.55169 0.9055 0.0
C963 C 0.89627 0.53767 0.01513 0.0
C964 C 0.90891 0.52906 0.06919 0.0
C965 C 0.92791 0.53823 0.08619 0.0
C966 C 0.9399 0.52989 0.13645 0.0
C967 C 0.93299 0.51245 0.17044 0.0
C968 C 0.914 0.50342 0.15459 0.0
C969 C 0.90196 0.51168 0.10429 0.0
H970 H 0.94235 0.50594 0.20905 0.0
H971 H 0.82787 0.59485 0.73092 0.0
H972 H 0.10917 0.19317 0.1852 0.0
H973 H 0.10295 0.16416 0.1126 0.0
H974 H 0.06162 0.20195 0.99773 0.0
H975 H 0.06677 0.23073 0.074 0.0
H976 H 0.04248 0.17021 0.02355 0.0
H977 H 0.10956 0.17814 0.93701 0.0
H978 H 0.14735 0.18346 0.93501 0.0
H979 H 0.15623 0.12655 0.03951 0.0
H980 H 0.11849 0.12101 0.043 0.0
H981 H 0.05499 0.06901 0.81822 0.0
H982 H 0.07179 0.09975 0.86292 0.0
H983 H 0.02948 0.09899 0.02616 0.0
H984 H 0.01204 0.06882 0.97985 0.0
H985 H 0.09103 0.11477 0.95555 0.0
H986 H 0.01509 0.14517 0.07527 0.0
H987 H 0.97735 0.14209 0.06007 0.0
H988 H 0.98647 0.12711 0.85784 0.0
H989 H 0.02421 0.13033 0.87165 0.0
C990 C 0.09923 0.1955 0.14329 0.0
C991 C 0.08822 0.21414 0.13587 0.0
C992 C 0.09578 0.17886 0.10119 0.0
C993 C 0.08172 0.18063 0.04927 0.0
C994 C 0.07238 0.20001 0.03777 0.0
C995 C 0.07554 0.21661 0.08083 0.0
C996 C 0.0746 0.16164 0.01391 0.0
C997 C 0.05321 0.15826 0.00801 0.0
C998 C 0.0884 0.14597 0.99228 0.0
C999 C 0.11115 0.14923 0.99057 0.0
C1000 C 0.11956 0.16683 0.95999 0.0
C1001 C 0.14098 0.16987 0.95852 0.0
C1002 C 0.15418 0.15537 0.98719 0.0
C1003 C 0.14599 0.13777 0.01731 0.0
C1004 C 0.12458 0.13466 0.01895 0.0
C1005 C 0.04952 0.07516 0.86432 0.0
C1006 C 0.03196 0.06672 0.89501 0.0
C1007 C 0.05906 0.09289 0.88969 0.0
C1008 C 0.05127 0.10245 0.9463 0.0
C1009 C 0.03518 0.0926 0.9807 0.0
C1010 C 0.02536 0.07516 0.95468 0.0
C1011 C 0.05899 0.12325 0.96714 0.0
C1012 C 0.08041 0.12691 0.97029 0.0
C1013 C 0.04525 0.13958 0.98363 0.0
C1014 C 0.02251 0.13786 0.97464 0.0
C1015 C 0.00904 0.14133 0.02748 0.0
C1016 C 0.98764 0.13953 0.01913 0.0
C1017 C 0.97952 0.13436 0.95807 0.0
C1018 C 0.99278 0.13106 0.90515 0.0
C1019 C 0.01418 0.13287 0.91322 0.0
H1020 H 0.96295 0.13295 0.95174 0.0
H1021 H 0.17076 0.15776 0.98599 0.0
H1022 H 0.33287 0.10867 0.13803 0.0
H1023 H 0.35824 0.09705 0.05767 0.0
H1024 H 0.32151 0.04247 0.02068 0.0
H1025 H 0.29639 0.0538 0.10281 0.0
H1026 H 0.35906 0.03178 0.05114 0.0
H1027 H 0.33071 0.08078 0.90184 0.0
H1028 H 0.31832 0.11473 0.86332 0.0
H1029 H 0.37878 0.14068 0.89311 0.0
H1030 H 0.39147 0.10694 0.93273 0.0
H1031 H 0.42467 0.99126 0.80715 0.0
H1032 H 0.39568 0.00653 0.86616 0.0
H1033 H 0.43367 0.05884 0.91893 0.0
H1034 H 0.46292 0.04367 0.85914 0.0
H1035 H 0.39499 0.07067 0.87581 0.0
H1036 H 0.4228 0.02287 0.03119 0.0
H1037 H 0.43551 0.98918 0.07106 0.0
H1038 H 0.37623 0.96174 0.03231 0.0
H1039 H 0.36325 0.99522 0.99134 0.0
C1040 C 0.32989 0.09451 0.11123 0.0
C1041 C 0.3127 0.08209 0.12692 0.0
C1042 C 0.34438 0.0879 0.06501 0.0
C1043 C 0.34188 0.06883 0.033 0.0
C1044 C 0.32384 0.05721 0.04486 0.0
C1045 C 0.30935 0.0638 0.0913 0.0
C1046 C 0.3592 0.05984 0.9942 0.0
C1047 C 0.36664 0.04022 0.01213 0.0
C1048 C 0.3696 0.07101 0.94445 0.0
C1049 C 0.36199 0.09135 0.92084 0.0
C1050 C 0.34132 0.09376 0.90074 0.0
C1051 C 0.33425 0.11297 0.87859 0.0
C1052 C 0.34774 0.12986 0.87592 0.0
C1053 C 0.36834 0.12758 0.89527 0.0
C1054 C 0.37549 0.10841 0.91751 0.0
C1055 C 0.42699 0.00593 0.83174 0.0
C1056 C 0.44621 0.01614 0.82893 0.0
C1057 C 0.41036 0.01464 0.86549 0.0
C1058 C 0.41254 0.03374 0.89742 0.0
C1059 C 0.43167 0.04405 0.89475 0.0
C1060 C 0.44842 0.03527 0.86113 0.0
C1061 C 0.39473 0.04281 0.93339 0.0
C1062 C 0.38729 0.06237 0.91494 0.0
C1063 C 0.38435 0.03168 0.98306 0.0
C1064 C 0.39212 0.0115 0.00754 0.0
C1065 C 0.41253 0.00961 0.03062 0.0
C1066 C 0.41977 0.99056 0.05353 0.0
C1067 C 0.4067 0.97331 0.05404 0.0
C1068 C 0.38634 0.9751 0.03179 0.0
C1069 C 0.37903 0.99411 0.00876 0.0
H1070 H 0.41233 0.95858 0.07182 0.0
H1071 H 0.34224 0.14472 0.85873 0.0
H1072 H 0.50286 0.30608 0.15988 0.0
H1073 H 0.50616 0.33429 0.08095 0.0
H1074 H 0.43965 0.33815 0.0671 0.0
H1075 H 0.43634 0.30981 0.14671 0.0
H1076 H 0.49459 0.33999 0.95683 0.0
H1077 H 0.42587 0.38334 0.05617 0.0
H1078 H 0.40745 0.39119 0.15911 0.0
H1079 H 0.46465 0.38691 0.26482 0.0
H1080 H 0.48317 0.37824 0.16293 0.0
H1081 H 0.49181 0.42679 0.74768 0.0
H1082 H 0.48045 0.39698 0.81206 0.0
H1083 H 0.49671 0.42951 0.989 0.0
H1084 H 0.50708 0.45976 0.92413 0.0
H1085 H 0.46447 0.40839 0.01298 0.0
H1086 H 0.52973 0.39069 0.91048 0.0
H1087 H 0.55405 0.38515 0.81909 0.0
H1088 H 0.51214 0.34134 0.73314 0.0
H1089 H 0.48761 0.34658 0.82415 0.0
C1090 C 0.48896 0.31264 0.13877 0.0
C1091 C 0.46936 0.30565 0.1587 0.0
C1092 C 0.49085 0.32882 0.09395 0.0
C1093 C 0.47317 0.33854 0.06865 0.0
C1094 C 0.45351 0.33106 0.08657 0.0
C1095 C 0.45162 0.31468 0.13119 0.0
C1096 C 0.47557 0.3568 0.02497 0.0
C1097 C 0.48781 0.3549 0.96866 0.0
C1098 C 0.46711 0.37636 0.04078 0.0
C1099 C 0.45579 0.37999 0.10237 0.0
C1100 C 0.43441 0.38382 0.10162 0.0
C1101 C 0.42396 0.38833 0.15975 0.0
C1102 C 0.43485 0.38942 0.21856 0.0
C1103 C 0.45618 0.38583 0.21941 0.0
C1104 C 0.46662 0.38091 0.16166 0.0
C1105 C 0.49274 0.42755 0.8004 0.0
C1106 C 0.50048 0.44536 0.83116 0.0
C1107 C 0.48638 0.41049 0.83719 0.0
C1108 C 0.48825 0.41065 0.90553 0.0
C1109 C 0.49518 0.42888 0.9364 0.0
C1110 C 0.5011 0.44617 0.89949 0.0
C1111 C 0.48366 0.3917 0.94468 0.0
C1112 C 0.47097 0.39344 0.00014 0.0
C1113 C 0.49221 0.37208 0.92892 0.0
C1114 C 0.5068 0.36913 0.87381 0.0
C1115 C 0.52569 0.37994 0.87193 0.0
C1116 C 0.53953 0.37678 0.82038 0.0
C1117 C 0.53466 0.36285 0.77048 0.0
C1118 C 0.51592 0.35207 0.77194 0.0
C1119 C 0.50207 0.35508 0.82357 0.0
H1120 H 0.54539 0.36042 0.7306 0.0
H1121 H 0.42678 0.39309 0.26343 0.0
H1122 H 0.1956 0.42054 0.11122 0.0
H1123 H 0.16799 0.43034 0.03551 0.0
H1124 H 0.19457 0.49137 0.01804 0.0
H1125 H 0.22227 0.48155 0.09326 0.0
H1126 H 0.15457 0.49117 0.06695 0.0
H1127 H 0.19189 0.46023 0.88725 0.0
H1128 H 0.20995 0.43197 0.82963 0.0
H1129 H 0.15502 0.39461 0.83825 0.0
H1130 H 0.13671 0.42254 0.89676 0.0
H1131 H 0.08881 0.53957 0.84163 0.0
H1132 H 0.11705 0.52431 0.90363 0.0
H1133 H 0.08766 0.46442 0.8917 0.0
H1134 H 0.05925 0.47966 0.82855 0.0
H1135 H 0.1276 0.46154 0.8605 0.0
H1136 H 0.08985 0.49058 0.03717 0.0
H1137 H 0.07072 0.51711 0.0993 0.0
H1138 H 0.12487 0.55566 0.10357 0.0
H1139 H 0.14425 0.52948 0.04067 0.0
C1140 C 0.19602 0.43573 0.08882 0.0
C1141 C 0.21105 0.45029 0.1078 0.0
C1142 C 0.18022 0.44134 0.04579 0.0
C1143 C 0.17914 0.46164 0.02171 0.0
C1144 C 0.19513 0.47563 0.03629 0.0
C1145 C 0.21106 0.46995 0.07866 0.0
C1146 C 0.16 0.46916 0.98979 0.0
C1147 C 0.14885 0.48494 0.0212 0.0
C1148 C 0.15198 0.46021 0.93213 0.0
C1149 C 0.163 0.44341 0.89701 0.0
C1150 C 0.18372 0.44592 0.87743 0.0
C1151 C 0.19399 0.42997 0.84447 0.0
C1152 C 0.18366 0.41149 0.83045 0.0
C1153 C 0.16301 0.40893 0.84922 0.0
C1154 C 0.15268 0.42482 0.88222 0.0
C1155 C 0.08817 0.52319 0.85288 0.0
C1156 C 0.07177 0.51082 0.83019 0.0
C1157 C 0.1043 0.5145 0.88873 0.0
C1158 C 0.10442 0.49324 0.90283 0.0
C1159 C 0.08786 0.48087 0.88146 0.0
C1160 C 0.07157 0.48962 0.84582 0.0
C1161 C 0.12246 0.48397 0.93681 0.0
C1162 C 0.13331 0.46777 0.90626 0.0
C1163 C 0.13007 0.49227 0.99603 0.0
C1164 C 0.11845 0.50812 0.03367 0.0
C1165 C 0.09763 0.50479 0.05086 0.0
C1166 C 0.08675 0.51975 0.08633 0.0
C1167 C 0.09656 0.53808 0.10523 0.0
C1168 C 0.11728 0.54147 0.08883 0.0
C1169 C 0.12823 0.52655 0.05334 0.0
H1170 H 0.08811 0.54965 0.1327 0.0
H1171 H 0.19163 0.39916 0.80492 0.0
H1172 H 0.98083 0.80385 0.35498 0.0
H1173 H 0.98662 0.83256 0.43083 0.0
H1174 H 0.92963 0.861 0.36766 0.0
H1175 H 0.92412 0.83251 0.29078 0.0
H1176 H 0.95934 0.88775 0.35841 0.0
H1177 H 0.93687 0.84248 0.52869 0.0
H1178 H 0.93548 0.81064 0.595 0.0
H1179 H 0.99967 0.81782 0.64416 0.0
H1180 H 1.00148 0.84962 0.578 0.0
H1181 H 0.97768 0.97182 0.58991 0.0
H1182 H 0.96166 0.94302 0.52933 0.0
H1183 H 0.01741 0.90708 0.55211 0.0
H1184 H 0.03342 0.93539 0.61129 0.0
H1185 H 0.98288 0.88532 0.58841 0.0
H1186 H 0.00614 0.92778 0.40826 0.0
H1187 H 0.00804 0.95946 0.34136 0.0
H1188 H 0.94235 0.95719 0.31058 0.0
H1189 H 0.94004 0.92559 0.37794 0.0
C1190 C 0.96917 0.81583 0.35916 0.0
C1191 C 0.95201 0.81594 0.3172 0.0
C1192 C 0.9725 0.83232 0.40243 0.0
C1193 C 0.95857 0.84906 0.40515 0.0
C1194 C 0.94067 0.84838 0.36637 0.0
C1195 C 0.93744 0.83202 0.32283 0.0
C1196 C 0.96381 0.86819 0.44257 0.0
C1197 C 0.96401 0.88724 0.40923 0.0
C1198 C 0.97033 0.86761 0.50848 0.0
C1199 C 0.96933 0.84838 0.54798 0.0
C1200 C 0.95072 0.83719 0.5533 0.0
C1201 C 0.94985 0.81918 0.59106 0.0
C1202 C 0.96747 0.81222 0.62386 0.0
C1203 C 0.986 0.82326 0.61899 0.0
C1204 C 0.98696 0.8413 0.58146 0.0
C1205 C 0.98659 0.95789 0.58112 0.0
C1206 C 0.00682 0.95596 0.60584 0.0
C1207 C 0.9774 0.94143 0.5467 0.0
C1208 C 0.9883 0.92282 0.53672 0.0
C1209 C 0.00862 0.92117 0.55979 0.0
C1210 C 0.01778 0.9375 0.59353 0.0
C1211 C 0.97873 0.90464 0.50383 0.0
C1212 C 0.97777 0.8858 0.53801 0.0
C1213 C 0.97153 0.9054 0.43876 0.0
C1214 C 0.97287 0.92452 0.39899 0.0
C1215 C 0.99207 0.93418 0.38786 0.0
C1216 C 0.99323 0.95208 0.34969 0.0
C1217 C 0.97532 0.9604 0.32205 0.0
C1218 C 0.95621 0.95078 0.33227 0.0
C1219 C 0.95496 0.93287 0.37039 0.0
H1220 H 0.97625 0.97425 0.29247 0.0
H1221 H 0.96676 0.79828 0.6531 0.0
H1222 H 0.72505 0.9885 0.3361 0.0
H1223 H 0.69783 0.99781 0.41429 0.0
H1224 H 0.67288 0.936 0.40115 0.0
H1225 H 0.69993 0.92673 0.32278 0.0
H1226 H 0.64489 0.96557 0.36733 0.0
H1227 H 0.69214 0.95356 0.54346 0.0
H1228 H 0.72458 0.95753 0.60545 0.0
H1229 H 0.71335 0.02278 0.62484 0.0
H1230 H 0.68097 0.01926 0.56212 0.0
H1231 H 0.5616 0.98055 0.59627 0.0
H1232 H 0.59148 0.96804 0.53369 0.0
H1233 H 0.62019 0.02814 0.55017 0.0
H1234 H 0.59071 0.0406 0.61316 0.0
H1235 H 0.64651 0.99845 0.58551 0.0
H1236 H 0.59982 0.0105 0.40776 0.0
H1237 H 0.56822 0.00711 0.34135 0.0
H1238 H 0.57915 0.94187 0.32025 0.0
H1239 H 0.61058 0.94476 0.38773 0.0
C1240 C 0.71429 0.97668 0.35215 0.0
C1241 C 0.71456 0.95691 0.32344 0.0
C1242 C 0.69867 0.98203 0.39653 0.0
C1243 C 0.6832 0.96764 0.41307 0.0
C1244 C 0.68457 0.94737 0.38874 0.0
C1245 C 0.7001 0.94205 0.34439 0.0
C1246 C 0.6642 0.97437 0.44806 0.0
C1247 C 0.64518 0.97226 0.41571 0.0
C1248 C 0.66471 0.984 0.50998 0.0
C1249 C 0.68422 0.98617 0.54749 0.0
C1250 C 0.69668 0.96879 0.56037 0.0
C1251 C 0.71504 0.97096 0.59578 0.0
C1252 C 0.72105 0.9904 0.61892 0.0
C1253 C 0.70869 0.00773 0.60681 0.0
C1254 C 0.69032 0.00565 0.57139 0.0
C1255 C 0.57412 0.99118 0.58556 0.0
C1256 C 0.57381 0.01153 0.61007 0.0
C1257 C 0.59119 0.98402 0.54976 0.0
C1258 C 0.60812 0.99715 0.53737 0.0
C1259 C 0.6074 0.01769 0.5595 0.0
C1260 C 0.59048 0.0248 0.59546 0.0
C1261 C 0.62713 0.98931 0.50484 0.0
C1262 C 0.64617 0.99138 0.53748 0.0
C1263 C 0.62666 0.97963 0.44292 0.0
C1264 C 0.60739 0.9778 0.40387 0.0
C1265 C 0.59532 0.99536 0.38988 0.0
C1266 C 0.57746 0.99354 0.35183 0.0
C1267 C 0.57162 0.97427 0.32688 0.0
C1268 C 0.58363 0.95677 0.33987 0.0
C1269 C 0.60146 0.95849 0.3781 0.0
H1270 H 0.55783 0.97291 0.29725 0.0
H1271 H 0.73526 0.99204 0.64635 0.0
H1272 H 0.56844 0.6735 0.21107 0.0
H1273 H 0.56047 0.64893 0.29348 0.0
H1274 H 0.55465 0.69769 0.43584 0.0
H1275 H 0.56534 0.72306 0.35412 0.0
H1276 H 0.57034 0.66506 0.49238 0.0
H1277 H 0.51072 0.67451 0.36002 0.0
H1278 H 0.49101 0.67786 0.25763 0.0
H1279 H 0.50761 0.61576 0.20406 0.0
H1280 H 0.52751 0.61205 0.30609 0.0
H1281 H 0.50898 0.59601 0.69104 0.0
H1282 H 0.52196 0.62452 0.62445 0.0
H1283 H 0.54267 0.58102 0.47864 0.0
H1284 H 0.52985 0.55219 0.54569 0.0
H1285 H 0.51701 0.61331 0.43057 0.0
H1286 H 0.58414 0.61014 0.55197 0.0
H1287 H 0.60541 0.60945 0.65199 0.0
H1288 H 0.57091 0.66067 0.72994 0.0
H1289 H 0.55 0.66214 0.62907 0.0
C1290 C 0.56639 0.67956 0.25966 0.0
C1291 C 0.56778 0.70096 0.27411 0.0
C1292 C 0.56115 0.66513 0.30713 0.0
C1293 C 0.55609 0.6714 0.37047 0.0
C1294 C 0.5581 0.69246 0.38679 0.0
C1295 C 0.56401 0.70705 0.33933 0.0
C1296 C 0.54858 0.6557 0.41831 0.0
C1297 C 0.55838 0.65403 0.47919 0.0
C1298 C 0.53306 0.64108 0.4014 0.0
C1299 C 0.52068 0.64304 0.34065 0.0
C1300 C 0.5102 0.66158 0.32637 0.0
C1301 C 0.49898 0.66353 0.26841 0.0
C1302 C 0.49808 0.64704 0.22433 0.0
C1303 C 0.5083 0.62851 0.2383 0.0
C1304 C 0.51949 0.62644 0.29631 0.0
C1305 C 0.51639 0.59244 0.64492 0.0
C1306 C 0.51815 0.5718 0.62322 0.0
C1307 C 0.52401 0.60879 0.60726 0.0
C1308 C 0.53338 0.60492 0.54676 0.0
C1309 C 0.53555 0.58433 0.52539 0.0
C1310 C 0.5282 0.56788 0.56363 0.0
C1311 C 0.53917 0.62243 0.50342 0.0
C1312 C 0.52885 0.62448 0.44363 0.0
C1313 C 0.5538 0.63762 0.52188 0.0
C1314 C 0.56549 0.63614 0.58355 0.0
C1315 C 0.58107 0.62117 0.59065 0.0
C1316 C 0.59316 0.62077 0.64716 0.0
C1317 C 0.58948 0.63498 0.69736 0.0
C1318 C 0.57376 0.6497 0.69099 0.0
C1319 C 0.56191 0.65044 0.63397 0.0
H1320 H 0.59881 0.63461 0.74115 0.0
H1321 H 0.48945 0.64862 0.17935 0.0
H1322 H 0.79614 0.55334 0.34951 0.0
H1323 H 0.82427 0.54731 0.42711 0.0
H1324 H 0.85654 0.60082 0.35247 0.0
H1325 H 0.82854 0.60668 0.27438 0.0
H1326 H 0.88017 0.56778 0.34462 0.0
H1327 H 0.839 0.59848 0.51192 0.0
H1328 H 0.80814 0.60439 0.58029 0.0
H1329 H 0.81106 0.54172 0.64943 0.0
H1330 H 0.84174 0.5353 0.58067 0.0
H1331 H 0.96588 0.54904 0.56237 0.0
H1332 H 0.93688 0.5655 0.50505 0.0
H1333 H 0.89759 0.51385 0.55475 0.0
H1334 H 0.92619 0.4974 0.61167 0.0
H1335 H 0.87875 0.55058 0.58034 0.0
H1336 H 0.91697 0.51892 0.40446 0.0
H1337 H 0.94782 0.51246 0.33654 0.0
H1338 H 0.94985 0.57669 0.28291 0.0
H1339 H 0.91927 0.58365 0.35184 0.0
C1340 C 0.80883 0.56429 0.35161 0.0
C1341 C 0.81021 0.58044 0.30595 0.0
C1342 C 0.82497 0.5608 0.39582 0.0
C1343 C 0.84263 0.57356 0.39545 0.0
C1344 C 0.84316 0.59071 0.35344 0.0
C1345 C 0.82711 0.59413 0.30915 0.0
C1346 C 0.86153 0.56743 0.43205 0.0
C1347 C 0.87994 0.56449 0.39654 0.0
C1348 C 0.86116 0.5626 0.49941 0.0
C1349 C 0.84258 0.56636 0.54051 0.0
C1350 C 0.83295 0.58589 0.54114 0.0
C1351 C 0.81549 0.58934 0.58004 0.0
C1352 C 0.80757 0.57341 0.61887 0.0
C1353 C 0.81715 0.55402 0.6191 0.0
C1354 C 0.8346 0.55048 0.58022 0.0
C1355 C 0.95113 0.5411 0.56042 0.0
C1356 C 0.94842 0.52188 0.59163 0.0
C1357 C 0.93456 0.55055 0.52785 0.0
C1358 C 0.91504 0.54093 0.5259 0.0
C1359 C 0.91244 0.52164 0.5561 0.0
C1360 C 0.92892 0.51219 0.58832 0.0
C1361 C 0.89715 0.55073 0.49264 0.0
C1362 C 0.87897 0.55426 0.52868 0.0
C1363 C 0.89767 0.55604 0.42572 0.0
C1364 C 0.91603 0.55187 0.38416 0.0
C1365 C 0.92414 0.53172 0.37882 0.0
C1366 C 0.94157 0.52797 0.3401 0.0
C1367 C 0.95086 0.54418 0.30574 0.0
C1368 C 0.94269 0.56417 0.30981 0.0
C1369 C 0.92533 0.56803 0.34878 0.0
H1370 H 0.96434 0.54123 0.27572 0.0
H1371 H 0.7941 0.57613 0.64911 0.0
loop_
_geom_bond_atom_site_label_1
_geom_bond_atom_site_label_2
_geom_bond_distance
_geom_bond_site_symmetry_2
_ccdc_geom_bond_type
H0 C3 0.929 . S
H1 C6 0.929 . S
H2 C8 0.930 . S
C3 H0 0.929 . S
C3 C4 1.398 . S
C3 C5 1.396 . S
C4 C3 1.398 . S
C4 C8 1.407 . S
C5 C3 1.396 . S
C5 C6 1.394 . S
C6 H1 0.929 . S
C6 C5 1.394 . S
C6 C7 1.382 . S
C7 C6 1.382 . S
C7 C8 1.392 . S
C7 N9 1.420 . S
C8 H2 0.930 . S
C8 C4 1.407 . S
C8 C7 1.392 . S
N9 C7 1.420 . S
N9 C10 1.244 . S
C10 N9 1.244 . S
H11 C14 0.929 . S
H12 C17 0.929 . S
H13 C19 0.930 . S
C14 H11 0.929 . S
C14 C15 1.398 . S
C14 C16 1.396 . S
C15 C14 1.398 . S
C15 C19 1.407 . S
C16 C14 1.396 . S
C16 C17 1.394 . S
C17 H12 0.929 . S
C17 C16 1.394 . S
C17 C18 1.382 . S
C18 C17 1.382 . S
C18 C19 1.392 . S
C18 N20 1.420 . S
C19 H13 0.930 . S
C19 C15 1.407 . S
C19 C18 1.392 . S
N20 C18 1.420 . S
N20 C21 1.244 . S
C21 N20 1.244 . S
H22 C25 0.929 . S
H23 C28 0.929 . S
H24 C30 0.930 . S
C25 H22 0.929 . S
C25 C26 1.398 . S
C25 C27 1.396 . S
C26 C25 1.398 . S
C26 C30 1.407 . S
C27 C25 1.396 . S
C27 C28 1.394 . S
C28 H23 0.929 . S
C28 C27 1.394 . S
C28 C29 1.382 . S
C29 C28 1.382 . S
C29 C30 1.392 . S
C29 N31 1.420 . S
C30 H24 0.930 . S
C30 C26 1.407 . S
C30 C29 1.392 . S
N31 C29 1.420 . S
N31 C32 1.244 . S
C32 N31 1.244 . S
H33 C36 0.929 . S
H34 C39 0.929 . S
H35 C41 0.930 . S
C36 H33 0.929 . S
C36 C37 1.398 . S
C36 C38 1.396 . S
C37 C36 1.398 . S
C37 C41 1.407 . S
C38 C36 1.396 . S
C38 C39 1.394 . S
C39 H34 0.929 . S
C39 C38 1.394 . S
C39 C40 1.382 . S
C40 C39 1.382 . S
C40 C41 1.392 . S
C40 N42 1.420 . S
C41 H35 0.930 . S
C41 C37 1.407 . S
C41 C40 1.392 . S
N42 C40 1.420 . S
N42 C43 1.244 . S
C43 N42 1.244 . S
H44 C47 0.929 . S
H45 C50 0.929 . S
H46 C52 0.930 . S
C47 H44 0.929 . S
C47 C48 1.398 . S
C47 C49 1.396 . S
C48 C47 1.398 . S
C48 C52 1.407 . S
C49 C47 1.396 . S
C49 C50 1.394 . S
C50 H45 0.929 . S
C50 C49 1.394 . S
C50 C51 1.382 . S
C51 C50 1.382 . S
C51 C52 1.392 . S
C51 N53 1.420 . S
C52 H46 0.930 . S
C52 C48 1.407 . S
C52 C51 1.392 . S
N53 C51 1.420 . S
N53 C54 1.244 . S
C54 N53 1.244 . S
H55 C58 0.929 . S
H56 C61 0.929 . S
H57 C63 0.930 . S
C58 H55 0.929 . S
C58 C59 1.398 . S
C58 C60 1.396 . S
C59 C58 1.398 . S
C59 C63 1.407 . S
C60 C58 1.396 . S
C60 C61 1.394 . S
C61 H56 0.929 . S
C61 C60 1.394 . S
C61 C62 1.382 . S
C62 C61 1.382 . S
C62 C63 1.392 . S
C62 N64 1.420 . S
C63 H57 0.930 . S
C63 C59 1.407 . S
C63 C62 1.392 . S
N64 C62 1.420 . S
N64 C65 1.244 . S
C65 N64 1.244 . S
H66 C69 0.929 . S
H67 C72 0.929 . S
H68 C74 0.930 . S
C69 H66 0.929 . S
C69 C70 1.398 . S
C69 C71 1.396 . S
C70 C69 1.398 . S
C70 C74 1.407 . S
C71 C69 1.396 . S
C71 C72 1.394 . S
C72 H67 0.929 . S
C72 C71 1.394 . S
C72 C73 1.382 . S
C73 C72 1.382 . S
C73 C74 1.392 . S
C73 N75 1.420 . S
C74 H68 0.930 . S
C74 C70 1.407 . S
C74 C73 1.392 . S
N75 C73 1.420 . S
N75 C76 1.244 . S
C76 N75 1.244 . S
H77 C80 0.929 . S
H78 C83 0.929 . S
H79 C85 0.930 . S
C80 H77 0.929 . S
C80 C81 1.398 . S
C80 C82 1.396 . S
C81 C80 1.398 . S
C81 C85 1.407 . S
C82 C80 1.396 . S
C82 C83 1.394 . S
C83 H78 0.929 . S
C83 C82 1.394 . S
C83 C84 1.382 . S
C84 C83 1.382 . S
C84 C85 1.392 . S
C84 N86 1.420 . S
C85 H79 0.930 . S
C85 C81 1.407 . S
C85 C84 1.392 . S
N86 C84 1.420 . S
N86 C87 1.244 . S
C87 N86 1.244 . S
O88 Mg89 1.990 . S
O88 C102 1.253 . S
Mg89 O88 1.990 . S
Mg89 O92 2.180 1_565 S
Mg89 O93 2.117 . S
Mg89 O107 2.030 . S
O90 Mg91 2.072 1_565 S
O90 C102 1.260 . S
Mg91 O90 2.072 1_545 S
Mg91 O92 2.099 . S
Mg91 O94 2.079 . S
Mg91 O95 2.072 . S
Mg91 O97 2.099 1_455 S
Mg91 O108 2.064 1_445 S
O92 Mg89 2.180 1_545 S
O92 Mg91 2.099 . S
O92 C103 1.279 . S
O93 Mg89 2.117 . S
O93 C103 1.250 1_565 S
O94 Mg91 2.079 . S
O94 C104 1.264 . S
O95 Mg91 2.072 . S
O95 C105 1.260 . S
Mg96 O97 2.180 . S
Mg96 O98 2.030 . S
Mg96 O99 2.033 . S
Mg96 O100 2.117 . S
O97 Mg91 2.099 1_655 S
O97 Mg96 2.180 . S
O97 C106 1.279 . S
O98 Mg96 2.030 . S
O98 C104 1.248 1_655 S
O99 Mg96 2.033 . S
O99 C105 1.200 1_655 S
O100 Mg96 2.117 . S
O100 C106 1.250 . S
C101 O107 1.248 . S
C101 O108 1.257 1_455 S
C102 O88 1.253 . S
C102 O90 1.260 . S
C103 O92 1.279 . S
C103 O93 1.250 1_545 S
C104 O94 1.264 . S
C104 O98 1.248 1_455 S
C105 O95 1.260 . S
C105 O99 1.200 1_455 S
C106 O97 1.279 . S
C106 O100 1.250 . S
O107 Mg89 2.030 . S
O107 C101 1.248 . S
O108 Mg91 2.064 1_665 S
O108 C101 1.257 1_655 S
O109 Mg110 2.029 . S
O109 C123 1.205 1_565 S
Mg110 O109 2.029 . S
Mg110 O113 2.180 . S
Mg110 O114 2.117 . S
Mg110 O128 2.030 . S
O111 Mg112 2.072 . S
O111 C123 1.260 . S
Mg112 O111 2.072 . S
Mg112 O113 2.099 1_545 S
Mg112 O115 2.065 1_545 S
Mg112 O116 2.072 . S
Mg112 O118 2.099 . S
Mg112 O129 2.079 . S
O113 Mg110 2.180 . S
O113 Mg112 2.099 1_565 S
O113 C124 1.279 . S
O114 Mg110 2.117 . S
O114 C124 1.250 . S
O115 Mg112 2.065 1_565 S
O115 C125 1.257 1_565 S
O116 Mg112 2.072 . S
O116 C126 1.260 . S
Mg117 O118 2.180 . S
Mg117 O119 2.030 . S
Mg117 O120 1.990 . S
Mg117 O121 2.117 . S
O118 Mg112 2.099 . S
O118 Mg117 2.180 . S
O118 C127 1.279 . S
O119 Mg117 2.030 . S
O119 C125 1.248 . S
O120 Mg117 1.990 . S
O120 C126 1.253 . S
O121 Mg117 2.117 . S
O121 C127 1.250 . S
C122 O128 1.248 1_545 S
C122 O129 1.264 . S
C123 O109 1.205 1_545 S
C123 O111 1.260 . S
C124 O113 1.279 . S
C124 O114 1.250 . S
C125 O115 1.257 1_545 S
C125 O119 1.248 . S
C126 O116 1.260 . S
C126 O120 1.253 . S
C127 O118 1.279 . S
C127 O121 1.250 . S
O128 Mg110 2.030 . S
O128 C122 1.248 1_565 S
O129 Mg112 2.079 . S
O129 C122 1.264 . S
O130 Mg131 1.990 . S
O130 C144 1.253 . S
Mg131 O130 1.990 . S
Mg131 O134 2.180 . S
Mg131 O135 2.117 . S
Mg131 O149 2.030 . S
O132 Mg133 2.072 . S
O132 C144 1.260 . S
Mg133 O132 2.072 . S
Mg133 O134 2.099 . S
Mg133 O136 2.079 . S
Mg133 O137 2.072 . S
Mg133 O139 2.099 . S
Mg133 O150 2.079 . S
O134 Mg131 2.180 . S
O134 Mg133 2.099 . S
O134 C145 1.279 . S
O135 Mg131 2.117 . S
O135 C145 1.250 . S
O136 Mg133 2.079 . S
O136 C146 1.264 . S
O137 Mg133 2.072 . S
O137 C147 1.260 . S
Mg138 O139 2.180 . S
Mg138 O140 2.030 . S
Mg138 O141 1.990 . S
Mg138 O142 2.117 . S
O139 Mg133 2.099 . S
O139 Mg138 2.180 . S
O139 C148 1.279 . S
O140 Mg138 2.030 . S
O140 C146 1.248 . S
O141 Mg138 1.990 . S
O141 C147 1.253 . S
O142 Mg138 2.117 . S
O142 C148 1.250 . S
C143 O149 1.248 . S
C143 O150 1.264 . S
C144 O130 1.253 . S
C144 O132 1.260 . S
C145 O134 1.279 . S
C145 O135 1.250 . S
C146 O136 1.264 . S
C146 O140 1.248 . S
C147 O137 1.260 . S
C147 O141 1.253 . S
C148 O139 1.279 . S
C148 O142 1.250 . S
O149 Mg131 2.030 . S
O149 C143 1.248 . S
O150 Mg133 2.079 . S
O150 C143 1.264 . S
O151 Mg152 1.990 . S
O151 C165 1.253 . S
Mg152 O151 1.990 . S
Mg152 O155 2.180 1_655 S
Mg152 O156 2.117 . S
Mg152 O170 2.030 . S
O153 Mg154 2.072 1_655 S
O153 C165 1.260 . S
Mg154 O153 2.072 1_455 S
Mg154 O155 2.099 . S
Mg154 O157 2.079 . S
Mg154 O158 2.072 . S
Mg154 O160 2.099 . S
Mg154 O171 2.079 1_455 S
O155 Mg152 2.180 1_455 S
O155 Mg154 2.099 . S
O155 C166 1.279 . S
O156 Mg152 2.117 . S
O156 C166 1.250 1_655 S
O157 Mg154 2.079 . S
O157 C167 1.264 . S
O158 Mg154 2.072 . S
O158 C168 1.260 . S
Mg159 O160 2.180 . S
Mg159 O161 2.030 . S
Mg159 O162 1.990 . S
Mg159 O163 2.117 . S
O160 Mg154 2.099 . S
O160 Mg159 2.180 . S
O160 C169 1.279 . S
O161 Mg159 2.030 . S
O161 C167 1.248 . S
O162 Mg159 1.990 . S
O162 C168 1.253 . S
O163 Mg159 2.117 . S
O163 C169 1.250 . S
C164 O170 1.248 . S
C164 O171 1.264 . S
C165 O151 1.253 . S
C165 O153 1.260 . S
C166 O155 1.279 . S
C166 O156 1.250 1_455 S
C167 O157 1.264 . S
C167 O161 1.248 . S
C168 O158 1.260 . S
C168 O162 1.253 . S
C169 O160 1.279 . S
C169 O163 1.250 . S
O170 Mg152 2.030 . S
O170 C164 1.248 . S
O171 Mg154 2.079 1_655 S
O171 C164 1.264 . S
H172 C190 0.951 . S
H173 C192 0.951 . S
H174 C194 0.950 . S
H175 C195 0.950 . S
H176 C197 0.950 . S
H177 C200 0.950 . S
H178 C201 0.950 . S
H179 C203 0.950 1_565 S
H180 C204 0.911 1_565 S
H181 C205 0.951 . S
H182 C207 0.951 . S
H183 C209 0.950 1_565 S
H184 C210 0.950 1_565 S
H185 C212 0.950 . S
H186 C215 0.950 . S
H187 C216 0.950 . S
H188 C218 0.950 . S
H189 C219 0.950 . S
C190 H172 0.951 . S
C190 C191 1.366 . S
C190 C192 1.388 . S
C191 C190 1.366 . S
C191 C195 1.385 . S
C192 H173 0.951 . S
C192 C190 1.388 . S
C192 C193 1.366 . S
C193 C192 1.366 . S
C193 C194 1.414 . S
C193 C196 1.499 . S
C194 H174 0.950 . S
C194 C193 1.414 . S
C194 C195 1.374 . S
C195 H175 0.950 . S
C195 C191 1.385 . S
C195 C194 1.374 . S
C196 C193 1.499 . S
C196 C197 1.373 . S
C196 C198 1.389 . S
C197 H176 0.950 . S
C197 C196 1.373 . S
C197 C213 1.377 . S
C198 C196 1.389 . S
C198 C199 1.524 . S
C198 C212 1.377 . S
C199 C198 1.524 . S
C199 C200 1.397 . S
C199 C204 1.363 . S
C200 H177 0.950 . S
C200 C199 1.397 . S
C200 C201 1.334 . S
C201 H178 0.950 . S
C201 C200 1.334 . S
C201 C202 1.287 . S
C202 C201 1.287 . S
C202 C203 1.524 . S
C202 H221 0.913 . S
C203 H179 0.950 1_545 S
C203 C202 1.524 . S
C203 C204 1.415 . S
C204 H180 0.911 1_545 S
C204 C199 1.363 . S
C204 C203 1.415 . S
C205 H181 0.951 . S
C205 C206 1.366 . S
C205 C207 1.388 . S
C206 C205 1.366 . S
C206 C210 1.385 . S
C207 H182 0.951 . S
C207 C205 1.388 . S
C207 C208 1.366 . S
C208 C207 1.366 . S
C208 C209 1.414 . S
C208 C211 1.499 . S
C209 H183 0.950 1_545 S
C209 C208 1.414 . S
C209 C210 1.374 . S
C210 H184 0.950 1_545 S
C210 C206 1.385 . S
C210 C209 1.374 . S
C211 C208 1.499 . S
C211 C212 1.373 . S
C211 C213 1.389 . S
C212 H185 0.950 . S
C212 C198 1.377 . S
C212 C211 1.373 . S
C213 C197 1.377 . S
C213 C211 1.389 . S
C213 C214 1.524 . S
C214 C213 1.524 . S
C214 C215 1.397 . S
C214 C219 1.363 . S
C215 H186 0.950 . S
C215 C214 1.397 . S
C215 C216 1.334 . S
C216 H187 0.950 . S
C216 C215 1.334 . S
C216 C217 1.287 . S
C217 C216 1.287 . S
C217 C218 1.524 . S
C217 H220 0.999 . S
C218 H188 0.950 . S
C218 C217 1.524 . S
C218 C219 1.415 . S
C219 H189 0.950 . S
C219 C214 1.363 . S
C219 C218 1.415 . S
H220 C217 0.999 . S
H221 C202 0.913 . S
H222 C240 0.951 . S
H223 C242 0.951 . S
H224 C244 0.950 . S
H225 C245 0.950 . S
H226 C247 0.950 . S
H227 C250 0.950 . S
H228 C251 0.950 . S
H229 C253 0.950 . S
H230 C254 0.950 . S
H231 C255 0.951 . S
H232 C257 0.951 . S
H233 C259 0.950 . S
H234 C260 0.950 . S
H235 C262 0.950 . S
H236 C265 0.950 . S
H237 C266 0.950 . S
H238 C268 0.950 . S
H239 C269 0.950 . S
C240 H222 0.951 . S
C240 C241 1.366 . S
C240 C242 1.388 . S
C241 C240 1.366 . S
C241 C245 1.385 . S
C242 H223 0.951 . S
C242 C240 1.388 . S
C242 C243 1.366 . S
C243 C242 1.366 . S
C243 C244 1.414 . S
C243 C246 1.499 . S
C244 H224 0.950 . S
C244 C243 1.414 . S
C244 C245 1.374 . S
C245 H225 0.950 . S
C245 C241 1.385 . S
C245 C244 1.374 . S
C246 C243 1.499 . S
C246 C247 1.373 . S
C246 C248 1.389 . S
C247 H226 0.950 . S
C247 C246 1.373 . S
C247 C263 1.377 . S
C248 C246 1.389 . S
C248 C249 1.524 . S
C248 C262 1.377 . S
C249 C248 1.524 . S
C249 C250 1.397 . S
C249 C254 1.363 . S
C250 H227 0.950 . S
C250 C249 1.397 . S
C250 C251 1.334 . S
C251 H228 0.950 . S
C251 C250 1.334 . S
C251 C252 1.287 . S
C252 C251 1.287 . S
C252 C253 1.524 . S
C252 H271 0.913 . S
C253 H229 0.950 . S
C253 C252 1.524 . S
C253 C254 1.415 . S
C254 H230 0.950 . S
C254 C249 1.363 . S
C254 C253 1.415 . S
C255 H231 0.951 . S
C255 C256 1.366 . S
C255 C257 1.388 . S
C256 C255 1.366 . S
C256 C260 1.385 . S
C257 H232 0.951 . S
C257 C255 1.388 . S
C257 C258 1.366 . S
C258 C257 1.366 . S
C258 C259 1.414 . S
C258 C261 1.499 . S
C259 H233 0.950 . S
C259 C258 1.414 . S
C259 C260 1.374 . S
C260 H234 0.950 . S
C260 C256 1.385 . S
C260 C259 1.374 . S
C261 C258 1.499 . S
C261 C262 1.373 . S
C261 C263 1.389 . S
C262 H235 0.950 . S
C262 C248 1.377 . S
C262 C261 1.373 . S
C263 C247 1.377 . S
C263 C261 1.389 . S
C263 C264 1.524 . S
C264 C263 1.524 . S
C264 C265 1.397 . S
C264 C269 1.363 . S
C265 H236 0.950 . S
C265 C264 1.397 . S
C265 C266 1.334 . S
C266 H237 0.950 . S
C266 C265 1.334 . S
C266 C267 1.287 . S
C267 C266 1.287 . S
C267 C268 1.524 . S
C267 H270 0.999 . S
C268 H238 0.950 . S
C268 C267 1.524 . S
C268 C269 1.415 . S
C269 H239 0.950 . S
C269 C264 1.363 . S
C269 C268 1.415 . S
H270 C267 0.999 . S
H271 C252 0.913 . S
H272 C290 0.951 . S
H273 C292 0.951 . S
H274 C294 0.950 . S
H275 C295 0.950 . S
H276 C297 0.950 . S
H277 C300 0.950 . S
H278 C301 0.950 . S
H279 C303 0.950 . S
H280 C304 0.950 . S
H281 C305 0.951 . S
H282 C307 0.951 . S
H283 C309 0.950 . S
H284 C310 0.950 . S
H285 C312 0.950 . S
H286 C315 0.950 . S
H287 C316 0.950 . S
H288 C318 0.950 . S
H289 C319 0.950 . S
C290 H272 0.951 . S
C290 C291 1.366 . S
C290 C292 1.388 . S
C291 C290 1.366 . S
C291 C295 1.385 . S
C292 H273 0.951 . S
C292 C290 1.388 . S
C292 C293 1.366 . S
C293 C292 1.366 . S
C293 C294 1.414 . S
C293 C296 1.499 . S
C294 H274 0.950 . S
C294 C293 1.414 . S
C294 C295 1.374 . S
C295 H275 0.950 . S
C295 C291 1.385 . S
C295 C294 1.374 . S
C296 C293 1.499 . S
C296 C297 1.373 . S
C296 C298 1.389 . S
C297 H276 0.950 . S
C297 C296 1.373 . S
C297 C313 1.377 . S
C298 C296 1.389 . S
C298 C299 1.524 . S
C298 C312 1.377 . S
C299 C298 1.524 . S
C299 C300 1.397 . S
C299 C304 1.363 . S
C300 H277 0.950 . S
C300 C299 1.397 . S
C300 C301 1.334 . S
C301 H278 0.950 . S
C301 C300 1.334 . S
C301 C302 1.287 . S
C302 C301 1.287 . S
C302 C303 1.524 . S
C302 H321 0.913 . S
C303 H279 0.950 . S
C303 C302 1.524 . S
C303 C304 1.415 . S
C304 H280 0.950 . S
C304 C299 1.363 . S
C304 C303 1.415 . S
C305 H281 0.951 . S
C305 C306 1.366 . S
C305 C307 1.388 . S
C306 C305 1.366 . S
C306 C310 1.385 . S
C307 H282 0.951 . S
C307 C305 1.388 . S
C307 C308 1.366 . S
C308 C307 1.366 . S
C308 C309 1.414 . S
C308 C311 1.499 . S
C309 H283 0.950 . S
C309 C308 1.414 . S
C309 C310 1.374 . S
C310 H284 0.950 . S
C310 C306 1.385 . S
C310 C309 1.374 . S
C311 C308 1.499 . S
C311 C312 1.373 . S
C311 C313 1.389 . S
C312 H285 0.950 . S
C312 C298 1.377 . S
C312 C311 1.373 . S
C313 C297 1.377 . S
C313 C311 1.389 . S
C313 C314 1.524 . S
C314 C313 1.524 . S
C314 C315 1.397 . S
C314 C319 1.363 . S
C315 H286 0.950 . S
C315 C314 1.397 . S
C315 C316 1.334 . S
C316 H287 0.950 . S
C316 C315 1.334 . S
C316 C317 1.287 . S
C317 C316 1.287 . S
C317 C318 1.524 . S
C317 H320 0.999 . S
C318 H288 0.950 . S
C318 C317 1.524 . S
C318 C319 1.415 . S
C319 H289 0.950 . S
C319 C314 1.363 . S
C319 C318 1.415 . S
H320 C317 0.999 . S
H321 C302 0.913 . S
H322 C340 0.951 . S
H323 C342 0.951 . S
H324 C344 0.950 . S
H325 C345 0.950 . S
H326 C347 0.950 . S
H327 C350 0.950 . S
H328 C351 0.950 . S
H329 C353 0.950 1_655 S
H330 C354 0.950 1_655 S
H331 C355 0.951 . S
H332 C357 0.951 . S
H333 C359 0.950 1_655 S
H334 C360 0.950 1_655 S
H335 C362 0.950 . S
H336 C365 0.950 . S
H337 C366 0.950 . S
H338 C368 0.950 . S
H339 C369 0.950 . S
C340 H322 0.951 . S
C340 C341 1.366 . S
C340 C342 1.388 . S
C341 C340 1.366 . S
C341 C345 1.385 . S
C342 H323 0.951 . S
C342 C340 1.388 . S
C342 C343 1.366 . S
C343 C342 1.366 . S
C343 C344 1.414 . S
C343 C346 1.499 . S
C344 H324 0.950 . S
C344 C343 1.414 . S
C344 C345 1.374 . S
C345 H325 0.950 . S
C345 C341 1.385 . S
C345 C344 1.374 . S
C346 C343 1.499 . S
C346 C347 1.373 . S
C346 C348 1.389 . S
C347 H326 0.950 . S
C347 C346 1.373 . S
C347 C363 1.377 . S
C348 C346 1.389 . S
C348 C349 1.524 . S
C348 C362 1.377 . S
C349 C348 1.524 . S
C349 C350 1.397 . S
C349 C354 1.363 . S
C350 H327 0.950 . S
C350 C349 1.397 . S
C350 C351 1.334 . S
C351 H328 0.950 . S
C351 C350 1.334 . S
C351 C352 1.287 . S
C352 C351 1.287 . S
C352 C353 1.524 . S
C352 H371 0.913 . S
C353 H329 0.950 1_455 S
C353 C352 1.524 . S
C353 C354 1.415 . S
C354 H330 0.950 1_455 S
C354 C349 1.363 . S
C354 C353 1.415 . S
C355 H331 0.951 . S
C355 C356 1.366 . S
C355 C357 1.388 . S
C356 C355 1.366 . S
C356 C360 1.385 . S
C357 H332 0.951 . S
C357 C355 1.388 . S
C357 C358 1.366 . S
C358 C357 1.366 . S
C358 C359 1.414 . S
C358 C361 1.499 . S
C359 H333 0.950 1_455 S
C359 C358 1.414 . S
C359 C360 1.374 . S
C360 H334 0.950 1_455 S
C360 C356 1.385 . S
C360 C359 1.374 . S
C361 C358 1.499 . S
C361 C362 1.373 . S
C361 C363 1.389 . S
C362 H335 0.950 . S
C362 C348 1.377 . S
C362 C361 1.373 . S
C363 C347 1.377 . S
C363 C361 1.389 . S
C363 C364 1.524 . S
C364 C363 1.524 . S
C364 C365 1.397 . S
C364 C369 1.363 . S
C365 H336 0.950 . S
C365 C364 1.397 . S
C365 C366 1.334 . S
C366 H337 0.950 . S
C366 C365 1.334 . S
C366 C367 1.287 . S
C367 C366 1.287 . S
C367 C368 1.524 . S
C367 H370 0.999 . S
C368 H338 0.950 . S
C368 C367 1.524 . S
C368 C369 1.415 . S
C369 H339 0.950 . S
C369 C364 1.363 . S
C369 C368 1.415 . S
H370 C367 0.999 . S
H371 C352 0.913 . S
H372 C390 0.949 1_556 S
H373 C392 0.951 1_545 S
H374 C394 0.950 . S
H375 C395 0.950 . S
H376 C397 0.950 1_554 S
H377 C400 0.950 . S
H378 C401 0.950 . S
H379 C403 0.950 . S
H380 C404 0.950 . S
H381 C405 0.951 . S
H382 C407 0.951 . S
H383 C409 0.950 . S
H384 C410 0.950 . S
H385 C412 0.950 . S
H386 C415 0.950 1_556 S
H387 C416 0.950 . S
H388 C418 0.950 . S
H389 C419 0.950 . S
C390 H372 0.949 1_554 S
C390 C391 1.366 . S
C390 C392 1.388 1_554 S
C391 C390 1.366 . S
C391 C395 1.385 . S
C392 H373 0.951 1_565 S
C392 C390 1.388 1_556 S
C392 C393 1.366 . S
C393 C392 1.366 . S
C393 C394 1.414 1_556 S
C393 C396 1.499 . S
C394 H374 0.950 . S
C394 C393 1.414 1_554 S
C394 C395 1.374 . S
C395 H375 0.950 . S
C395 C391 1.385 . S
C395 C394 1.374 . S
C396 C393 1.499 . S
C396 C397 1.373 . S
C396 C398 1.389 . S
C397 H376 0.950 1_556 S
C397 C396 1.373 . S
C397 C413 1.377 . S
C398 C396 1.389 . S
C398 C399 1.524 . S
C398 C412 1.377 . S
C399 C398 1.524 . S
C399 C400 1.397 . S
C399 C404 1.363 1_565 S
C400 H377 0.950 . S
C400 C399 1.397 . S
C400 C401 1.334 . S
C401 H378 0.950 . S
C401 C400 1.334 . S
C401 C402 1.287 . S
C402 C401 1.287 . S
C402 C403 1.524 1_565 S
C402 H421 0.913 . S
C403 H379 0.950 . S
C403 C402 1.524 1_545 S
C403 C404 1.415 . S
C404 H380 0.950 . S
C404 C399 1.363 1_545 S
C404 C403 1.415 . S
C405 H381 0.951 . S
C405 C406 1.366 1_565 S
C405 C407 1.388 . S
C406 C405 1.366 1_545 S
C406 C410 1.385 . S
C407 H382 0.951 . S
C407 C405 1.388 . S
C407 C408 1.366 . S
C408 C407 1.366 . S
C408 C409 1.414 1_565 S
C408 C411 1.499 . S
C409 H383 0.950 . S
C409 C408 1.414 1_545 S
C409 C410 1.374 . S
C410 H384 0.950 . S
C410 C406 1.385 . S
C410 C409 1.374 . S
C411 C408 1.499 . S
C411 C412 1.373 . S
C411 C413 1.389 . S
C412 H385 0.950 . S
C412 C398 1.377 . S
C412 C411 1.373 . S
C413 C397 1.377 . S
C413 C411 1.389 . S
C413 C414 1.532 . S
C414 C413 1.532 . S
C414 C415 1.396 1_566 S
C414 C419 1.355 1_556 S
C415 H386 0.950 1_554 S
C415 C414 1.396 1_544 S
C415 C416 1.334 . S
C416 H387 0.950 . S
C416 C415 1.334 . S
C416 C417 1.287 1_545 S
C417 C416 1.287 1_565 S
C417 C418 1.524 . S
C417 H420 0.999 . S
C418 H388 0.950 . S
C418 C417 1.524 . S
C418 C419 1.415 . S
C419 H389 0.950 . S
C419 C414 1.355 1_554 S
C419 C418 1.415 . S
H420 C417 0.999 . S
H421 C402 0.913 . S
H422 C440 0.951 . S
H423 C442 0.951 . S
H424 C444 0.950 . S
H425 C445 0.950 . S
H426 C447 0.950 1_554 S
H427 C450 0.950 . S
H428 C451 0.950 . S
H429 C453 0.950 . S
H430 C454 0.950 . S
H431 C455 0.951 . S
H432 C457 0.951 . S
H433 C459 0.950 . S
H434 C460 0.950 . S
H435 C462 0.950 . S
H436 C465 0.950 . S
H437 C466 0.950 . S
H438 C468 0.950 . S
H439 C469 0.950 . S
C440 H422 0.951 . S
C440 C441 1.366 . S
C440 C442 1.388 1_554 S
C441 C440 1.366 . S
C441 C445 1.385 . S
C442 H423 0.951 . S
C442 C440 1.388 1_556 S
C442 C443 1.366 . S
C443 C442 1.366 . S
C443 C444 1.414 . S
C443 C446 1.499 . S
C444 H424 0.950 . S
C444 C443 1.414 . S
C444 C445 1.374 1_556 S
C445 H425 0.950 . S
C445 C441 1.385 . S
C445 C444 1.374 1_554 S
C446 C443 1.499 . S
C446 C447 1.373 . S
C446 C448 1.389 . S
C447 H426 0.950 1_556 S
C447 C446 1.373 . S
C447 C463 1.377 . S
C448 C446 1.389 . S
C448 C449 1.524 . S
C448 C462 1.377 . S
C449 C448 1.524 . S
C449 C450 1.397 . S
C449 C454 1.363 . S
C450 H427 0.950 . S
C450 C449 1.397 . S
C450 C451 1.334 . S
C451 H428 0.950 . S
C451 C450 1.334 . S
C451 C452 1.287 . S
C452 C451 1.287 . S
C452 C453 1.524 . S
C452 H471 0.913 . S
C453 H429 0.950 . S
C453 C452 1.524 . S
C453 C454 1.415 . S
C454 H430 0.950 . S
C454 C449 1.363 . S
C454 C453 1.415 . S
C455 H431 0.951 . S
C455 C456 1.366 . S
C455 C457 1.388 . S
C456 C455 1.366 . S
C456 C460 1.385 . S
C457 H432 0.951 . S
C457 C455 1.388 . S
C457 C458 1.366 . S
C458 C457 1.366 . S
C458 C459 1.414 . S
C458 C461 1.499 . S
C459 H433 0.950 . S
C459 C458 1.414 . S
C459 C460 1.374 . S
C460 H434 0.950 . S
C460 C456 1.385 . S
C460 C459 1.374 . S
C461 C458 1.499 . S
C461 C462 1.373 . S
C461 C463 1.389 . S
C462 H435 0.950 . S
C462 C448 1.377 . S
C462 C461 1.373 . S
C463 C447 1.377 . S
C463 C461 1.389 . S
C463 C464 1.524 . S
C464 C463 1.524 . S
C464 C465 1.397 . S
C464 C469 1.363 . S
C465 H436 0.950 . S
C465 C464 1.397 . S
C465 C466 1.334 1_556 S
C466 H437 0.950 . S
C466 C465 1.334 1_554 S
C466 C467 1.287 . S
C467 C466 1.287 . S
C467 C468 1.524 . S
C467 H470 0.999 . S
C468 H438 0.950 . S
C468 C467 1.524 . S
C468 C469 1.415 1_554 S
C469 H439 0.950 . S
C469 C464 1.363 . S
C469 C468 1.415 1_556 S
H470 C467 0.999 . S
H471 C452 0.913 . S
H472 C490 0.949 1_556 S
H473 C492 0.951 . S
H474 C494 0.950 . S
H475 C495 0.950 . S
H476 C497 0.950 1_554 S
H477 C500 0.950 . S
H478 C501 0.950 . S
H479 C503 0.950 . S
H480 C504 0.950 . S
H481 C505 0.951 . S
H482 C507 0.951 . S
H483 C509 0.950 . S
H484 C510 0.950 . S
H485 C512 0.950 . S
H486 C515 0.957 . S
H487 C516 0.950 . S
H488 C518 0.950 . S
H489 C519 0.950 . S
C490 H472 0.949 1_554 S
C490 C491 1.372 . S
C490 C492 1.383 1_554 S
C491 C490 1.372 . S
C491 C495 1.385 . S
C492 H473 0.951 . S
C492 C490 1.383 1_556 S
C492 C493 1.366 . S
C493 C492 1.366 . S
C493 C494 1.414 1_556 S
C493 C496 1.499 . S
C494 H474 0.950 . S
C494 C493 1.414 1_554 S
C494 C495 1.374 . S
C495 H475 0.950 . S
C495 C491 1.385 . S
C495 C494 1.374 . S
C496 C493 1.499 . S
C496 C497 1.373 . S
C496 C498 1.389 . S
C497 H476 0.950 1_556 S
C497 C496 1.373 . S
C497 C513 1.377 . S
C498 C496 1.389 . S
C498 C499 1.524 . S
C498 C512 1.377 . S
C499 C498 1.524 . S
C499 C500 1.397 . S
C499 C504 1.363 . S
C500 H477 0.950 . S
C500 C499 1.397 . S
C500 C501 1.334 . S
C501 H478 0.950 . S
C501 C500 1.334 . S
C501 C502 1.287 . S
C502 C501 1.287 . S
C502 C503 1.524 . S
C502 H521 0.913 . S
C503 H479 0.950 . S
C503 C502 1.524 . S
C503 C504 1.415 . S
C504 H480 0.950 . S
C504 C499 1.363 . S
C504 C503 1.415 . S
C505 H481 0.951 . S
C505 C506 1.366 . S
C505 C507 1.388 . S
C506 C505 1.366 . S
C506 C510 1.385 . S
C507 H482 0.951 . S
C507 C505 1.388 . S
C507 C508 1.366 . S
C508 C507 1.366 . S
C508 C509 1.414 . S
C508 C511 1.499 . S
C509 H483 0.950 . S
C509 C508 1.414 . S
C509 C510 1.374 . S
C510 H484 0.950 . S
C510 C506 1.385 . S
C510 C509 1.374 . S
C511 C508 1.499 . S
C511 C512 1.373 . S
C511 C513 1.389 . S
C512 H485 0.950 . S
C512 C498 1.377 . S
C512 C511 1.373 . S
C513 C497 1.377 . S
C513 C511 1.389 . S
C513 C514 1.521 1_556 S
C514 C513 1.521 1_554 S
C514 C515 1.397 1_554 S
C514 C519 1.366 . S
C515 H486 0.957 . S
C515 C514 1.397 1_556 S
C515 C516 1.327 1_556 S
C516 H487 0.950 . S
C516 C515 1.327 1_554 S
C516 C517 1.287 . S
C517 C516 1.287 . S
C517 C518 1.524 . S
C517 H520 0.999 . S
C518 H488 0.950 . S
C518 C517 1.524 . S
C518 C519 1.415 . S
C519 H489 0.950 . S
C519 C514 1.366 . S
C519 C518 1.415 . S
H520 C517 0.999 . S
H521 C502 0.913 . S
H522 C540 0.951 . S
H523 C542 0.951 . S
H524 C544 0.950 . S
H525 C545 0.950 . S
H526 C547 0.950 . S
H527 C550 0.950 . S
H528 C551 0.950 . S
H529 C553 0.950 . S
H530 C554 0.950 . S
H531 C555 0.951 . S
H532 C557 0.951 . S
H533 C559 0.950 . S
H534 C560 0.950 . S
H535 C562 0.950 . S
H536 C565 0.950 . S
H537 C566 0.950 . S
H538 C568 0.950 . S
H539 C569 0.950 . S
C540 H522 0.951 . S
C540 C541 1.366 . S
C540 C542 1.388 . S
C541 C540 1.366 . S
C541 C545 1.385 1_554 S
C542 H523 0.951 . S
C542 C540 1.388 . S
C542 C543 1.366 1_554 S
C543 C542 1.366 1_556 S
C543 C544 1.414 . S
C543 C546 1.499 . S
C544 H524 0.950 . S
C544 C543 1.414 . S
C544 C545 1.374 . S
C545 H525 0.950 . S
C545 C541 1.385 1_556 S
C545 C544 1.374 . S
C546 C543 1.499 . S
C546 C547 1.373 . S
C546 C548 1.389 1_655 S
C547 H526 0.950 . S
C547 C546 1.373 . S
C547 C563 1.377 . S
C548 C546 1.389 1_455 S
C548 C549 1.524 . S
C548 C562 1.377 . S
C549 C548 1.524 . S
C549 C550 1.397 . S
C549 C554 1.363 1_556 S
C550 H527 0.950 . S
C550 C549 1.397 . S
C550 C551 1.334 . S
C551 H528 0.950 . S
C551 C550 1.334 . S
C551 C552 1.287 1_556 S
C552 C551 1.287 1_554 S
C552 C553 1.524 . S
C552 H571 0.913 . S
C553 H529 0.950 . S
C553 C552 1.524 . S
C553 C554 1.415 . S
C554 H530 0.950 . S
C554 C549 1.363 1_554 S
C554 C553 1.415 . S
C555 H531 0.951 . S
C555 C556 1.366 1_655 S
C555 C557 1.388 . S
C556 C555 1.366 1_455 S
C556 C560 1.385 . S
C557 H532 0.951 . S
C557 C555 1.388 . S
C557 C558 1.366 . S
C558 C557 1.366 . S
C558 C559 1.414 1_655 S
C558 C561 1.499 . S
C559 H533 0.950 . S
C559 C558 1.414 1_455 S
C559 C560 1.374 . S
C560 H534 0.950 . S
C560 C556 1.385 . S
C560 C559 1.374 . S
C561 C558 1.499 . S
C561 C562 1.373 1_655 S
C561 C563 1.389 . S
C562 H535 0.950 . S
C562 C548 1.377 . S
C562 C561 1.373 1_455 S
C563 C547 1.377 . S
C563 C561 1.389 . S
C563 C564 1.524 . S
C564 C563 1.524 . S
C564 C565 1.397 . S
C564 C569 1.363 . S
C565 H536 0.950 . S
C565 C564 1.397 . S
C565 C566 1.334 . S
C566 H537 0.950 . S
C566 C565 1.334 . S
C566 C567 1.287 . S
C567 C566 1.287 . S
C567 C568 1.524 . S
C567 H570 0.999 . S
C568 H538 0.950 . S
C568 C567 1.524 . S
C568 C569 1.415 . S
C569 H539 0.950 . S
C569 C564 1.363 . S
C569 C568 1.415 . S
H570 C567 0.999 . S
H571 C552 0.913 . S
H572 C590 0.951 . S
H573 C592 0.951 . S
H574 C594 0.950 . S
H575 C595 0.950 . S
H576 C597 0.950 . S
H577 C600 0.950 . S
H578 C601 0.950 1_655 S
H579 C603 0.950 . S
H580 C604 0.950 . S
H581 C605 0.951 . S
H582 C607 0.938 1_655 S
H583 C609 0.950 . S
H584 C610 0.950 . S
H585 C612 0.950 . S
H586 C615 0.950 . S
H587 C616 0.950 . S
H588 C618 0.950 . S
H589 C619 0.950 . S
C590 H572 0.951 . S
C590 C591 1.366 . S
C590 C592 1.388 . S
C591 C590 1.366 . S
C591 C595 1.385 . S
C592 H573 0.951 . S
C592 C590 1.388 . S
C592 C593 1.366 . S
C593 C592 1.366 . S
C593 C594 1.414 . S
C593 C596 1.499 . S
C594 H574 0.950 . S
C594 C593 1.414 . S
C594 C595 1.374 . S
C595 H575 0.950 . S
C595 C591 1.385 . S
C595 C594 1.374 . S
C596 C593 1.499 . S
C596 C597 1.373 . S
C596 C598 1.389 . S
C597 H576 0.950 . S
C597 C596 1.373 . S
C597 C613 1.377 . S
C598 C596 1.389 . S
C598 C599 1.524 . S
C598 C612 1.377 . S
C599 C598 1.524 . S
C599 C600 1.397 . S
C599 C604 1.363 . S
C600 H577 0.950 . S
C600 C599 1.397 . S
C600 C601 1.334 . S
C601 H578 0.950 1_455 S
C601 C600 1.334 . S
C601 C602 1.287 . S
C602 C601 1.287 . S
C602 C603 1.524 . S
C602 H621 0.913 . S
C603 H579 0.950 . S
C603 C602 1.524 . S
C603 C604 1.415 . S
C604 H580 0.950 . S
C604 C599 1.363 . S
C604 C603 1.415 . S
C605 H581 0.951 . S
C605 C606 1.366 1_655 S
C605 C607 1.388 1_655 S
C606 C605 1.366 1_455 S
C606 C610 1.385 . S
C607 H582 0.938 1_455 S
C607 C605 1.388 1_455 S
C607 C608 1.366 . S
C608 C607 1.366 . S
C608 C609 1.414 . S
C608 C611 1.499 . S
C609 H583 0.950 . S
C609 C608 1.414 . S
C609 C610 1.374 . S
C610 H584 0.950 . S
C610 C606 1.385 . S
C610 C609 1.374 . S
C611 C608 1.499 . S
C611 C612 1.373 . S
C611 C613 1.389 . S
C612 H585 0.950 . S
C612 C598 1.377 . S
C612 C611 1.373 . S
C613 C597 1.377 . S
C613 C611 1.389 . S
C613 C614 1.524 . S
C614 C613 1.524 . S
C614 C615 1.397 . S
C614 C619 1.363 . S
C615 H586 0.950 . S
C615 C614 1.397 . S
C615 C616 1.334 . S
C616 H587 0.950 . S
C616 C615 1.334 . S
C616 C617 1.287 . S
C617 C616 1.287 . S
C617 C618 1.524 . S
C617 H620 0.999 . S
C618 H588 0.950 . S
C618 C617 1.524 . S
C618 C619 1.415 . S
C619 H589 0.950 . S
C619 C614 1.363 . S
C619 C618 1.415 . S
H620 C617 0.999 . S
H621 C602 0.913 . S
H622 C640 0.951 . S
H623 C642 0.951 . S
H624 C644 0.950 . S
H625 C645 0.950 . S
H626 C647 0.950 . S
H627 C650 0.939 1_565 S
H628 C651 0.950 . S
H629 C653 0.950 . S
H630 C654 0.950 . S
H631 C655 0.926 1_565 S
H632 C657 0.951 . S
H633 C659 0.950 . S
H634 C660 0.950 . S
H635 C662 0.950 . S
H636 C665 0.950 . S
H637 C666 0.950 . S
H638 C668 0.950 . S
H639 C669 0.950 . S
C640 H622 0.951 . S
C640 C641 1.366 . S
C640 C642 1.388 . S
C641 C640 1.366 . S
C641 C645 1.385 . S
C642 H623 0.951 . S
C642 C640 1.388 . S
C642 C643 1.366 . S
C643 C642 1.366 . S
C643 C644 1.414 . S
C643 C646 1.499 . S
C644 H624 0.950 . S
C644 C643 1.414 . S
C644 C645 1.374 . S
C645 H625 0.950 . S
C645 C641 1.385 . S
C645 C644 1.374 . S
C646 C643 1.499 . S
C646 C647 1.373 . S
C646 C648 1.389 . S
C647 H626 0.950 . S
C647 C646 1.373 . S
C647 C663 1.377 . S
C648 C646 1.389 . S
C648 C649 1.524 . S
C648 C662 1.377 . S
C649 C648 1.524 . S
C649 C650 1.397 . S
C649 C654 1.363 . S
C650 H627 0.939 1_545 S
C650 C649 1.397 . S
C650 C651 1.334 1_545 S
C651 H628 0.950 . S
C651 C650 1.334 1_565 S
C651 C652 1.287 . S
C652 C651 1.287 . S
C652 C653 1.524 1_565 S
C652 H671 0.913 . S
C653 H629 0.950 . S
C653 C652 1.524 1_545 S
C653 C654 1.415 . S
C654 H630 0.950 . S
C654 C649 1.363 . S
C654 C653 1.415 . S
C655 H631 0.926 1_545 S
C655 C656 1.378 . S
C655 C657 1.403 . S
C656 C655 1.378 . S
C656 C660 1.385 . S
C657 H632 0.951 . S
C657 C655 1.403 . S
C657 C658 1.366 . S
C658 C657 1.366 . S
C658 C659 1.414 . S
C658 C661 1.499 . S
C659 H633 0.950 . S
C659 C658 1.414 . S
C659 C660 1.374 . S
C660 H634 0.950 . S
C660 C656 1.385 . S
C660 C659 1.374 . S
C661 C658 1.499 . S
C661 C662 1.373 . S
C661 C663 1.389 . S
C662 H635 0.950 . S
C662 C648 1.377 . S
C662 C661 1.373 . S
C663 C647 1.377 . S
C663 C661 1.389 . S
C663 C664 1.524 . S
C664 C663 1.524 . S
C664 C665 1.397 . S
C664 C669 1.363 . S
C665 H636 0.950 . S
C665 C664 1.397 . S
C665 C666 1.334 . S
C666 H637 0.950 . S
C666 C665 1.334 . S
C666 C667 1.287 . S
C667 C666 1.287 . S
C667 C668 1.524 . S
C667 H670 0.999 . S
C668 H638 0.950 . S
C668 C667 1.524 . S
C668 C669 1.415 . S
C669 H639 0.950 . S
C669 C664 1.363 . S
C669 C668 1.415 . S
H670 C667 0.999 . S
H671 C652 0.913 . S
H672 C690 0.951 . S
H673 C692 0.951 . S
H674 C694 0.950 . S
H675 C695 0.950 . S
H676 C697 0.950 . S
H677 C700 0.950 . S
H678 C701 0.950 . S
H679 C703 0.950 . S
H680 C704 0.950 . S
H681 C705 0.951 . S
H682 C707 0.951 . S
H683 C709 0.950 . S
H684 C710 0.950 . S
H685 C712 0.950 . S
H686 C715 0.950 . S
H687 C716 0.950 . S
H688 C718 0.950 . S
H689 C719 0.950 . S
C690 H672 0.951 . S
C690 C691 1.366 . S
C690 C692 1.388 . S
C691 C690 1.366 . S
C691 C695 1.385 . S
C692 H673 0.951 . S
C692 C690 1.388 . S
C692 C693 1.366 . S
C693 C692 1.366 . S
C693 C694 1.414 . S
C693 C696 1.499 . S
C694 H674 0.950 . S
C694 C693 1.414 . S
C694 C695 1.374 . S
C695 H675 0.950 . S
C695 C691 1.385 . S
C695 C694 1.374 . S
C696 C693 1.499 . S
C696 C697 1.373 . S
C696 C698 1.389 . S
C697 H676 0.950 . S
C697 C696 1.373 . S
C697 C713 1.377 . S
C698 C696 1.389 . S
C698 C699 1.524 . S
C698 C712 1.377 . S
C699 C698 1.524 . S
C699 C700 1.397 . S
C699 C704 1.363 . S
C700 H677 0.950 . S
C700 C699 1.397 . S
C700 C701 1.334 . S
C701 H678 0.950 . S
C701 C700 1.334 . S
C701 C702 1.287 . S
C702 C701 1.287 . S
C702 C703 1.524 . S
C702 H721 0.913 . S
C703 H679 0.950 . S
C703 C702 1.524 . S
C703 C704 1.415 . S
C704 H680 0.950 . S
C704 C699 1.363 . S
C704 C703 1.415 . S
C705 H681 0.951 . S
C705 C706 1.366 . S
C705 C707 1.388 . S
C706 C705 1.366 . S
C706 C710 1.385 . S
C707 H682 0.951 . S
C707 C705 1.388 . S
C707 C708 1.366 . S
C708 C707 1.366 . S
C708 C709 1.414 . S
C708 C711 1.499 . S
C709 H683 0.950 . S
C709 C708 1.414 . S
C709 C710 1.374 . S
C710 H684 0.950 . S
C710 C706 1.385 . S
C710 C709 1.374 . S
C711 C708 1.499 . S
C711 C712 1.373 . S
C711 C713 1.389 . S
C712 H685 0.950 . S
C712 C698 1.377 . S
C712 C711 1.373 . S
C713 C697 1.377 . S
C713 C711 1.389 . S
C713 C714 1.524 . S
C714 C713 1.524 . S
C714 C715 1.397 . S
C714 C719 1.363 . S
C715 H686 0.950 . S
C715 C714 1.397 . S
C715 C716 1.334 . S
C716 H687 0.950 . S
C716 C715 1.334 . S
C716 C717 1.287 . S
C717 C716 1.287 . S
C717 C718 1.524 . S
C717 H720 0.999 . S
C718 H688 0.950 . S
C718 C717 1.524 . S
C718 C719 1.415 . S
C719 H689 0.950 . S
C719 C714 1.363 . S
C719 C718 1.415 . S
H720 C717 0.999 . S
H721 C702 0.913 . S
H722 C740 0.951 . S
H723 C742 0.951 . S
H724 C744 0.950 . S
H725 C745 0.950 . S
H726 C747 0.950 . S
H727 C750 0.950 . S
H728 C751 0.950 . S
H729 C753 0.950 . S
H730 C754 0.950 . S
H731 C755 0.951 . S
H732 C757 0.951 . S
H733 C759 0.950 . S
H734 C760 0.950 . S
H735 C762 0.950 . S
H736 C765 0.950 . S
H737 C766 0.950 . S
H738 C768 0.950 . S
H739 C769 0.950 . S
C740 H722 0.951 . S
C740 C741 1.366 . S
C740 C742 1.388 . S
C741 C740 1.366 . S
C741 C745 1.385 . S
C742 H723 0.951 . S
C742 C740 1.388 . S
C742 C743 1.366 . S
C743 C742 1.366 . S
C743 C744 1.414 . S
C743 C746 1.499 . S
C744 H724 0.950 . S
C744 C743 1.414 . S
C744 C745 1.374 . S
C745 H725 0.950 . S
C745 C741 1.385 . S
C745 C744 1.374 . S
C746 C743 1.499 . S
C746 C747 1.373 . S
C746 C748 1.389 . S
C747 H726 0.950 . S
C747 C746 1.373 . S
C747 C763 1.377 . S
C748 C746 1.389 . S
C748 C749 1.524 . S
C748 C762 1.377 . S
C749 C748 1.524 . S
C749 C750 1.397 . S
C749 C754 1.363 . S
C750 H727 0.950 . S
C750 C749 1.397 . S
C750 C751 1.334 . S
C751 H728 0.950 . S
C751 C750 1.334 . S
C751 C752 1.287 . S
C752 C751 1.287 . S
C752 C753 1.524 . S
C752 H771 0.913 . S
C753 H729 0.950 . S
C753 C752 1.524 . S
C753 C754 1.415 . S
C754 H730 0.950 . S
C754 C749 1.363 . S
C754 C753 1.415 . S
C755 H731 0.951 . S
C755 C756 1.366 . S
C755 C757 1.388 . S
C756 C755 1.366 . S
C756 C760 1.385 . S
C757 H732 0.951 . S
C757 C755 1.388 . S
C757 C758 1.366 . S
C758 C757 1.366 . S
C758 C759 1.414 . S
C758 C761 1.499 . S
C759 H733 0.950 . S
C759 C758 1.414 . S
C759 C760 1.374 . S
C760 H734 0.950 . S
C760 C756 1.385 . S
C760 C759 1.374 . S
C761 C758 1.499 . S
C761 C762 1.373 . S
C761 C763 1.389 . S
C762 H735 0.950 . S
C762 C748 1.377 . S
C762 C761 1.373 . S
C763 C747 1.377 . S
C763 C761 1.389 . S
C763 C764 1.524 . S
C764 C763 1.524 . S
C764 C765 1.397 . S
C764 C769 1.363 . S
C765 H736 0.950 . S
C765 C764 1.397 . S
C765 C766 1.334 . S
C766 H737 0.950 . S
C766 C765 1.334 . S
C766 C767 1.287 . S
C767 C766 1.287 . S
C767 C768 1.524 . S
C767 H770 0.999 . S
C768 H738 0.950 . S
C768 C767 1.524 . S
C768 C769 1.415 . S
C769 H739 0.950 . S
C769 C764 1.363 . S
C769 C768 1.415 . S
H770 C767 0.999 . S
H771 C752 0.913 . S
H772 C790 0.951 . S
H773 C792 0.951 . S
H774 C794 0.950 . S
H775 C795 0.950 . S
H776 C797 0.950 1_554 S
H777 C800 0.950 . S
H778 C801 0.950 . S
H779 C803 0.950 . S
H780 C804 0.950 1_655 S
H781 C805 0.951 . S
H782 C807 0.951 . S
H783 C809 0.950 . S
H784 C810 0.957 . S
H785 C812 0.950 . S
H786 C815 0.950 . S
H787 C816 0.950 . S
H788 C818 0.950 . S
H789 C819 0.950 . S
C790 H772 0.951 . S
C790 C791 1.366 1_556 S
C790 C792 1.388 . S
C791 C790 1.366 1_554 S
C791 C795 1.385 . S
C792 H773 0.951 . S
C792 C790 1.388 . S
C792 C793 1.366 . S
C793 C792 1.366 . S
C793 C794 1.414 1_556 S
C793 C796 1.499 . S
C794 H774 0.950 . S
C794 C793 1.414 1_554 S
C794 C795 1.374 . S
C795 H775 0.950 . S
C795 C791 1.385 . S
C795 C794 1.374 . S
C796 C793 1.499 . S
C796 C797 1.373 . S
C796 C798 1.389 . S
C797 H776 0.950 1_556 S
C797 C796 1.373 . S
C797 C813 1.377 . S
C798 C796 1.389 . S
C798 C799 1.524 1_655 S
C798 C812 1.377 1_655 S
C799 C798 1.524 1_455 S
C799 C800 1.397 . S
C799 C804 1.363 . S
C800 H777 0.950 . S
C800 C799 1.397 . S
C800 C801 1.334 . S
C801 H778 0.950 . S
C801 C800 1.334 . S
C801 C802 1.287 . S
C802 C801 1.287 . S
C802 C803 1.524 . S
C802 H821 0.913 . S
C803 H779 0.950 . S
C803 C802 1.524 . S
C803 C804 1.415 . S
C804 H780 0.950 1_455 S
C804 C799 1.363 . S
C804 C803 1.415 . S
C805 H781 0.951 . S
C805 C806 1.366 . S
C805 C807 1.388 . S
C806 C805 1.366 . S
C806 C810 1.385 . S
C807 H782 0.951 . S
C807 C805 1.388 . S
C807 C808 1.378 . S
C808 C807 1.378 . S
C808 C809 1.410 1_455 S
C808 C811 1.492 1_455 S
C809 H783 0.950 . S
C809 C808 1.410 1_655 S
C809 C810 1.374 1_655 S
C810 H784 0.957 . S
C810 C806 1.385 . S
C810 C809 1.374 1_455 S
C811 C808 1.492 1_655 S
C811 C812 1.373 1_655 S
C811 C813 1.389 . S
C812 H785 0.950 . S
C812 C798 1.377 1_455 S
C812 C811 1.373 1_455 S
C813 C797 1.377 . S
C813 C811 1.389 . S
C813 C814 1.524 . S
C814 C813 1.524 . S
C814 C815 1.397 . S
C814 C819 1.363 1_556 S
C815 H786 0.950 . S
C815 C814 1.397 . S
C815 C816 1.334 . S
C816 H787 0.950 . S
C816 C815 1.334 . S
C816 C817 1.287 1_556 S
C817 C816 1.287 1_554 S
C817 C818 1.524 . S
C817 H820 0.999 . S
C818 H788 0.950 . S
C818 C817 1.524 . S
C818 C819 1.415 . S
C819 H789 0.950 . S
C819 C814 1.363 1_554 S
C819 C818 1.415 . S
H820 C817 0.999 . S
H821 C802 0.913 . S
H822 C840 0.951 . S
H823 C842 0.951 . S
H824 C844 0.950 . S
H825 C845 0.950 . S
H826 C847 0.950 . S
H827 C850 0.950 . S
H828 C851 0.950 . S
H829 C853 0.950 . S
H830 C854 0.913 1_545 S
H831 C855 0.951 . S
H832 C857 0.951 . S
H833 C859 0.950 . S
H834 C860 0.950 . S
H835 C862 0.950 . S
H836 C865 0.950 . S
H837 C866 0.950 . S
H838 C868 0.950 1_565 S
H839 C869 0.950 . S
C840 H822 0.951 . S
C840 C841 1.366 . S
C840 C842 1.388 . S
C841 C840 1.366 . S
C841 C845 1.385 1_554 S
C842 H823 0.951 . S
C842 C840 1.388 . S
C842 C843 1.366 1_554 S
C843 C842 1.366 1_556 S
C843 C844 1.414 . S
C843 C846 1.499 . S
C844 H824 0.950 . S
C844 C843 1.414 . S
C844 C845 1.374 . S
C845 H825 0.950 . S
C845 C841 1.385 1_556 S
C845 C844 1.374 . S
C846 C843 1.499 . S
C846 C847 1.373 . S
C846 C848 1.389 . S
C847 H826 0.950 . S
C847 C846 1.373 . S
C847 C863 1.377 . S
C848 C846 1.389 . S
C848 C849 1.524 1_556 S
C848 C862 1.377 . S
C849 C848 1.524 1_554 S
C849 C850 1.397 . S
C849 C854 1.363 . S
C850 H827 0.950 . S
C850 C849 1.397 . S
C850 C851 1.334 . S
C851 H828 0.950 . S
C851 C850 1.334 . S
C851 C852 1.287 . S
C852 C851 1.287 . S
C852 C853 1.524 . S
C852 H871 0.913 . S
C853 H829 0.950 . S
C853 C852 1.524 . S
C853 C854 1.415 . S
C854 H830 0.913 1_565 S
C854 C849 1.363 . S
C854 C853 1.415 . S
C855 H831 0.951 . S
C855 C856 1.366 1_565 S
C855 C857 1.388 . S
C856 C855 1.366 1_545 S
C856 C860 1.385 . S
C857 H832 0.951 . S
C857 C855 1.388 . S
C857 C858 1.366 1_565 S
C858 C857 1.366 1_545 S
C858 C859 1.414 . S
C858 C861 1.499 1_545 S
C859 H833 0.950 . S
C859 C858 1.414 . S
C859 C860 1.374 . S
C860 H834 0.950 . S
C860 C856 1.385 . S
C860 C859 1.374 . S
C861 C858 1.499 1_565 S
C861 C862 1.373 . S
C861 C863 1.389 . S
C862 H835 0.950 . S
C862 C848 1.377 . S
C862 C861 1.373 . S
C863 C847 1.377 . S
C863 C861 1.389 . S
C863 C864 1.524 1_565 S
C864 C863 1.524 1_545 S
C864 C865 1.397 . S
C864 C869 1.363 1_545 S
C865 H836 0.950 . S
C865 C864 1.397 . S
C865 C866 1.334 . S
C866 H837 0.950 . S
C866 C865 1.334 . S
C866 C867 1.287 . S
C867 C866 1.287 . S
C867 C868 1.524 . S
C867 H870 0.999 . S
C868 H838 0.950 1_545 S
C868 C867 1.524 . S
C868 C869 1.415 1_545 S
C869 H839 0.950 . S
C869 C864 1.363 1_565 S
C869 C868 1.415 1_565 S
H870 C867 0.999 . S
H871 C852 0.913 . S
H872 C890 0.949 1_556 S
H873 C892 0.951 . S
H874 C894 0.950 . S
H875 C895 0.950 . S
H876 C897 0.950 . S
H877 C900 0.950 . S
H878 C901 0.950 . S
H879 C903 0.950 . S
H880 C904 0.950 . S
H881 C905 0.951 . S
H882 C907 0.951 . S
H883 C909 0.950 . S
H884 C910 0.950 . S
H885 C912 0.950 . S
H886 C915 0.950 . S
H887 C916 0.950 . S
H888 C918 0.950 . S
H889 C919 0.950 . S
C890 H872 0.949 1_554 S
C890 C891 1.372 . S
C890 C892 1.384 1_554 S
C891 C890 1.372 . S
C891 C895 1.385 . S
C892 H873 0.951 . S
C892 C890 1.384 1_556 S
C892 C893 1.366 . S
C893 C892 1.366 . S
C893 C894 1.414 1_556 S
C893 C896 1.499 . S
C894 H874 0.950 . S
C894 C893 1.414 1_554 S
C894 C895 1.374 . S
C895 H875 0.950 . S
C895 C891 1.385 . S
C895 C894 1.374 . S
C896 C893 1.499 . S
C896 C897 1.373 . S
C896 C898 1.389 . S
C897 H876 0.950 . S
C897 C896 1.373 . S
C897 C913 1.377 . S
C898 C896 1.389 . S
C898 C899 1.524 . S
C898 C912 1.377 . S
C899 C898 1.524 . S
C899 C900 1.397 1_556 S
C899 C904 1.363 . S
C900 H877 0.950 . S
C900 C899 1.397 1_554 S
C900 C901 1.334 . S
C901 H878 0.950 . S
C901 C900 1.334 . S
C901 C902 1.287 . S
C902 C901 1.287 . S
C902 C903 1.524 1_554 S
C902 H921 0.913 . S
C903 H879 0.950 . S
C903 C902 1.524 1_556 S
C903 C904 1.415 . S
C904 H880 0.950 . S
C904 C899 1.363 . S
C904 C903 1.415 . S
C905 H881 0.951 . S
C905 C906 1.366 . S
C905 C907 1.388 . S
C906 C905 1.366 . S
C906 C910 1.385 . S
C907 H882 0.951 . S
C907 C905 1.388 . S
C907 C908 1.366 . S
C908 C907 1.366 . S
C908 C909 1.414 . S
C908 C911 1.499 . S
C909 H883 0.950 . S
C909 C908 1.414 . S
C909 C910 1.374 . S
C910 H884 0.950 . S
C910 C906 1.385 . S
C910 C909 1.374 . S
C911 C908 1.499 . S
C911 C912 1.373 . S
C911 C913 1.389 . S
C912 H885 0.950 . S
C912 C898 1.377 . S
C912 C911 1.373 . S
C913 C897 1.377 . S
C913 C911 1.389 . S
C913 C914 1.524 . S
C914 C913 1.524 . S
C914 C915 1.397 . S
C914 C919 1.363 . S
C915 H886 0.950 . S
C915 C914 1.397 . S
C915 C916 1.334 . S
C916 H887 0.950 . S
C916 C915 1.334 . S
C916 C917 1.287 . S
C917 C916 1.287 . S
C917 C918 1.524 . S
C917 H920 0.999 . S
C918 H888 0.950 . S
C918 C917 1.524 . S
C918 C919 1.415 . S
C919 H889 0.950 . S
C919 C914 1.363 . S
C919 C918 1.415 . S
H920 C917 0.999 . S
H921 C902 0.913 . S
H922 C940 0.951 . S
H923 C942 0.951 . S
H924 C944 0.950 . S
H925 C945 0.950 . S
H926 C947 0.950 . S
H927 C950 0.950 . S
H928 C951 0.950 . S
H929 C953 0.950 . S
H930 C954 0.950 . S
H931 C955 0.951 . S
H932 C957 0.951 . S
H933 C959 0.950 . S
H934 C960 0.950 . S
H935 C962 0.950 . S
H936 C965 0.950 . S
H937 C966 0.950 . S
H938 C968 0.950 . S
H939 C969 0.950 . S
C940 H922 0.951 . S
C940 C941 1.366 . S
C940 C942 1.388 . S
C941 C940 1.366 . S
C941 C945 1.385 . S
C942 H923 0.951 . S
C942 C940 1.388 . S
C942 C943 1.366 1_554 S
C943 C942 1.366 1_556 S
C943 C944 1.414 . S
C943 C946 1.499 . S
C944 H924 0.950 . S
C944 C943 1.414 . S
C944 C945 1.374 1_556 S
C945 H925 0.950 . S
C945 C941 1.385 . S
C945 C944 1.374 1_554 S
C946 C943 1.499 . S
C946 C947 1.373 . S
C946 C948 1.389 . S
C947 H926 0.950 . S
C947 C946 1.373 . S
C947 C963 1.377 . S
C948 C946 1.389 . S
C948 C949 1.524 . S
C948 C962 1.377 . S
C949 C948 1.524 . S
C949 C950 1.397 . S
C949 C954 1.363 . S
C950 H927 0.950 . S
C950 C949 1.397 . S
C950 C951 1.334 . S
C951 H928 0.950 . S
C951 C950 1.334 . S
C951 C952 1.287 . S
C952 C951 1.287 . S
C952 C953 1.524 . S
C952 H971 0.913 . S
C953 H929 0.950 . S
C953 C952 1.524 . S
C953 C954 1.415 . S
C954 H930 0.950 . S
C954 C949 1.363 . S
C954 C953 1.415 . S
C955 H931 0.951 . S
C955 C956 1.366 . S
C955 C957 1.388 . S
C956 C955 1.366 . S
C956 C960 1.385 . S
C957 H932 0.951 . S
C957 C955 1.388 . S
C957 C958 1.366 . S
C958 C957 1.366 . S
C958 C959 1.414 . S
C958 C961 1.499 . S
C959 H933 0.950 . S
C959 C958 1.414 . S
C959 C960 1.374 . S
C960 H934 0.950 . S
C960 C956 1.385 . S
C960 C959 1.374 . S
C961 C958 1.499 . S
C961 C962 1.373 . S
C961 C963 1.389 . S
C962 H935 0.950 . S
C962 C948 1.377 . S
C962 C961 1.373 . S
C963 C947 1.377 . S
C963 C961 1.389 . S
C963 C964 1.524 . S
C964 C963 1.524 . S
C964 C965 1.397 . S
C964 C969 1.363 . S
C965 H936 0.950 . S
C965 C964 1.397 . S
C965 C966 1.334 1_556 S
C966 H937 0.950 . S
C966 C965 1.334 1_554 S
C966 C967 1.287 . S
C967 C966 1.287 . S
C967 C968 1.524 1_554 S
C967 H970 0.999 . S
C968 H938 0.950 . S
C968 C967 1.524 1_556 S
C968 C969 1.415 . S
C969 H939 0.950 . S
C969 C964 1.363 . S
C969 C968 1.415 . S
H970 C967 0.999 . S
H971 C952 0.913 . S
H972 C990 0.951 . S
H973 C992 0.951 . S
H974 C994 0.950 . S
H975 C995 0.950 . S
H976 C997 0.950 . S
H977 C1000 0.950 . S
H978 C1001 0.950 . S
H979 C1003 0.950 . S
H980 C1004 0.950 . S
H981 C1005 0.951 . S
H982 C1007 0.951 . S
H983 C1009 0.950 1_554 S
H984 C1010 0.950 . S
H985 C1012 0.950 . S
H986 C1015 0.950 1_554 S
H987 C1016 0.950 . S
H988 C1018 0.950 . S
H989 C1019 0.923 1_455 S
C990 H972 0.951 . S
C990 C991 1.366 . S
C990 C992 1.388 . S
C991 C990 1.366 . S
C991 C995 1.385 . S
C992 H973 0.951 . S
C992 C990 1.388 . S
C992 C993 1.366 . S
C993 C992 1.366 . S
C993 C994 1.414 . S
C993 C996 1.499 . S
C994 H974 0.950 . S
C994 C993 1.414 . S
C994 C995 1.374 . S
C995 H975 0.950 . S
C995 C991 1.385 . S
C995 C994 1.374 . S
C996 C993 1.499 . S
C996 C997 1.373 . S
C996 C998 1.389 . S
C997 H976 0.950 . S
C997 C996 1.373 . S
C997 C1013 1.377 1_554 S
C998 C996 1.389 . S
C998 C999 1.524 . S
C998 C1012 1.377 . S
C999 C998 1.524 . S
C999 C1000 1.397 . S
C999 C1004 1.363 . S
C1000 H977 0.950 . S
C1000 C999 1.397 . S
C1000 C1001 1.334 . S
C1001 H978 0.950 . S
C1001 C1000 1.334 . S
C1001 C1002 1.287 . S
C1002 C1001 1.287 . S
C1002 C1003 1.524 . S
C1002 H1021 0.913 . S
C1003 H979 0.950 . S
C1003 C1002 1.524 . S
C1003 C1004 1.415 . S
C1004 H980 0.950 . S
C1004 C999 1.363 . S
C1004 C1003 1.415 . S
C1005 H981 0.951 . S
C1005 C1006 1.366 . S
C1005 C1007 1.388 . S
C1006 C1005 1.366 . S
C1006 C1010 1.385 . S
C1007 H982 0.951 . S
C1007 C1005 1.388 . S
C1007 C1008 1.366 . S
C1008 C1007 1.366 . S
C1008 C1009 1.414 . S
C1008 C1011 1.499 . S
C1009 H983 0.950 1_556 S
C1009 C1008 1.414 . S
C1009 C1010 1.374 . S
C1010 H984 0.950 . S
C1010 C1006 1.385 . S
C1010 C1009 1.374 . S
C1011 C1008 1.499 . S
C1011 C1012 1.373 1_556 S
C1011 C1013 1.389 . S
C1012 H985 0.950 . S
C1012 C998 1.377 . S
C1012 C1011 1.373 1_554 S
C1013 C997 1.377 1_556 S
C1013 C1011 1.389 . S
C1013 C1014 1.524 1_455 S
C1014 C1013 1.524 1_655 S
C1014 C1015 1.397 . S
C1014 C1019 1.363 . S
C1015 H986 0.950 1_556 S
C1015 C1014 1.397 . S
C1015 C1016 1.334 . S
C1016 H987 0.950 . S
C1016 C1015 1.334 . S
C1016 C1017 1.287 . S
C1017 C1016 1.287 . S
C1017 C1018 1.524 . S
C1017 H1020 0.999 . S
C1018 H988 0.950 . S
C1018 C1017 1.524 . S
C1018 C1019 1.415 . S
C1019 H989 0.923 1_655 S
C1019 C1014 1.363 . S
C1019 C1018 1.415 . S
H1020 C1017 0.999 . S
H1021 C1002 0.913 . S
H1022 C1040 0.951 . S
H1023 C1042 0.951 . S
H1024 C1044 0.950 . S
H1025 C1045 0.950 . S
H1026 C1047 0.950 . S
H1027 C1050 0.950 . S
H1028 C1051 0.950 . S
H1029 C1053 0.950 . S
H1030 C1054 0.950 . S
H1031 C1055 0.951 . S
H1032 C1057 0.951 . S
H1033 C1059 0.950 1_554 S
H1034 C1060 0.950 . S
H1035 C1062 0.950 . S
H1036 C1065 0.958 . S
H1037 C1066 0.950 . S
H1038 C1068 0.950 . S
H1039 C1069 0.950 1_545 S
C1040 H1022 0.951 . S
C1040 C1041 1.366 . S
C1040 C1042 1.388 . S
C1041 C1040 1.366 . S
C1041 C1045 1.385 . S
C1042 H1023 0.951 . S
C1042 C1040 1.388 . S
C1042 C1043 1.366 . S
C1043 C1042 1.366 . S
C1043 C1044 1.414 . S
C1043 C1046 1.499 . S
C1044 H1024 0.950 . S
C1044 C1043 1.414 . S
C1044 C1045 1.374 . S
C1045 H1025 0.950 . S
C1045 C1041 1.385 . S
C1045 C1044 1.374 . S
C1046 C1043 1.499 . S
C1046 C1047 1.373 . S
C1046 C1048 1.389 . S
C1047 H1026 0.950 . S
C1047 C1046 1.373 . S
C1047 C1063 1.377 1_554 S
C1048 C1046 1.389 . S
C1048 C1049 1.524 . S
C1048 C1062 1.377 . S
C1049 C1048 1.524 . S
C1049 C1050 1.397 . S
C1049 C1054 1.363 . S
C1050 H1027 0.950 . S
C1050 C1049 1.397 . S
C1050 C1051 1.334 . S
C1051 H1028 0.950 . S
C1051 C1050 1.334 . S
C1051 C1052 1.287 . S
C1052 C1051 1.287 . S
C1052 C1053 1.524 . S
C1052 H1071 0.913 . S
C1053 H1029 0.950 . S
C1053 C1052 1.524 . S
C1053 C1054 1.415 . S
C1054 H1030 0.950 . S
C1054 C1049 1.363 . S
C1054 C1053 1.415 . S
C1055 H1031 0.951 . S
C1055 C1056 1.366 . S
C1055 C1057 1.388 . S
C1056 C1055 1.366 . S
C1056 C1060 1.385 . S
C1057 H1032 0.951 . S
C1057 C1055 1.388 . S
C1057 C1058 1.366 . S
C1058 C1057 1.366 . S
C1058 C1059 1.414 . S
C1058 C1061 1.499 . S
C1059 H1033 0.950 1_556 S
C1059 C1058 1.414 . S
C1059 C1060 1.374 . S
C1060 H1034 0.950 . S
C1060 C1056 1.385 . S
C1060 C1059 1.374 . S
C1061 C1058 1.499 . S
C1061 C1062 1.373 1_556 S
C1061 C1063 1.389 . S
C1062 H1035 0.950 . S
C1062 C1048 1.377 . S
C1062 C1061 1.373 1_554 S
C1063 C1047 1.377 1_556 S
C1063 C1061 1.389 . S
C1063 C1064 1.518 1_545 S
C1064 C1063 1.518 1_565 S
C1064 C1065 1.401 . S
C1064 C1069 1.365 . S
C1065 H1036 0.958 . S
C1065 C1064 1.401 . S
C1065 C1066 1.334 . S
C1066 H1037 0.950 . S
C1066 C1065 1.334 . S
C1066 C1067 1.287 . S
C1067 C1066 1.287 . S
C1067 C1068 1.524 . S
C1067 H1070 0.999 . S
C1068 H1038 0.950 . S
C1068 C1067 1.524 . S
C1068 C1069 1.415 . S
C1069 H1039 0.950 1_565 S
C1069 C1064 1.365 . S
C1069 C1068 1.415 . S
H1070 C1067 0.999 . S
H1071 C1052 0.913 . S
H1072 C1090 0.951 . S
H1073 C1092 0.951 . S
H1074 C1094 0.950 . S
H1075 C1095 0.950 . S
H1076 C1097 0.950 . S
H1077 C1100 0.950 . S
H1078 C1101 0.950 . S
H1079 C1103 0.950 . S
H1080 C1104 0.950 . S
H1081 C1105 0.951 . S
H1082 C1107 0.951 . S
H1083 C1109 0.950 1_554 S
H1084 C1110 0.950 . S
H1085 C1112 0.950 . S
H1086 C1115 0.950 . S
H1087 C1116 0.950 . S
H1088 C1118 0.950 . S
H1089 C1119 0.950 . S
C1090 H1072 0.951 . S
C1090 C1091 1.366 . S
C1090 C1092 1.388 . S
C1091 C1090 1.366 . S
C1091 C1095 1.385 . S
C1092 H1073 0.951 . S
C1092 C1090 1.388 . S
C1092 C1093 1.366 . S
C1093 C1092 1.366 . S
C1093 C1094 1.414 . S
C1093 C1096 1.499 . S
C1094 H1074 0.950 . S
C1094 C1093 1.414 . S
C1094 C1095 1.374 . S
C1095 H1075 0.950 . S
C1095 C1091 1.385 . S
C1095 C1094 1.374 . S
C1096 C1093 1.499 . S
C1096 C1097 1.373 . S
C1096 C1098 1.389 . S
C1097 H1076 0.950 . S
C1097 C1096 1.373 . S
C1097 C1113 1.377 1_554 S
C1098 C1096 1.389 . S
C1098 C1099 1.524 . S
C1098 C1112 1.377 . S
C1099 C1098 1.524 . S
C1099 C1100 1.397 . S
C1099 C1104 1.363 . S
C1100 H1077 0.950 . S
C1100 C1099 1.397 . S
C1100 C1101 1.334 . S
C1101 H1078 0.950 . S
C1101 C1100 1.334 . S
C1101 C1102 1.287 . S
C1102 C1101 1.287 . S
C1102 C1103 1.524 . S
C1102 H1121 0.913 . S
C1103 H1079 0.950 . S
C1103 C1102 1.524 . S
C1103 C1104 1.415 . S
C1104 H1080 0.950 . S
C1104 C1099 1.363 . S
C1104 C1103 1.415 . S
C1105 H1081 0.951 . S
C1105 C1106 1.366 . S
C1105 C1107 1.388 . S
C1106 C1105 1.366 . S
C1106 C1110 1.385 . S
C1107 H1082 0.951 . S
C1107 C1105 1.388 . S
C1107 C1108 1.366 . S
C1108 C1107 1.366 . S
C1108 C1109 1.414 . S
C1108 C1111 1.499 . S
C1109 H1083 0.950 1_556 S
C1109 C1108 1.414 . S
C1109 C1110 1.374 . S
C1110 H1084 0.950 . S
C1110 C1106 1.385 . S
C1110 C1109 1.374 . S
C1111 C1108 1.499 . S
C1111 C1112 1.373 1_556 S
C1111 C1113 1.389 . S
C1112 H1085 0.950 . S
C1112 C1098 1.377 . S
C1112 C1111 1.373 1_554 S
C1113 C1097 1.377 1_556 S
C1113 C1111 1.389 . S
C1113 C1114 1.524 . S
C1114 C1113 1.524 . S
C1114 C1115 1.397 . S
C1114 C1119 1.363 . S
C1115 H1086 0.950 . S
C1115 C1114 1.397 . S
C1115 C1116 1.334 . S
C1116 H1087 0.950 . S
C1116 C1115 1.334 . S
C1116 C1117 1.287 . S
C1117 C1116 1.287 . S
C1117 C1118 1.524 . S
C1117 H1120 0.999 . S
C1118 H1088 0.950 . S
C1118 C1117 1.524 . S
C1118 C1119 1.415 . S
C1119 H1089 0.950 . S
C1119 C1114 1.363 . S
C1119 C1118 1.415 . S
H1120 C1117 0.999 . S
H1121 C1102 0.913 . S
H1122 C1140 0.951 . S
H1123 C1142 0.951 . S
H1124 C1144 0.950 . S
H1125 C1145 0.950 . S
H1126 C1147 0.950 . S
H1127 C1150 0.950 . S
H1128 C1151 0.950 . S
H1129 C1153 0.950 . S
H1130 C1154 0.950 . S
H1131 C1155 0.951 . S
H1132 C1157 0.951 . S
H1133 C1159 0.950 1_554 S
H1134 C1160 0.950 . S
H1135 C1162 0.950 . S
H1136 C1165 0.950 1_554 S
H1137 C1166 0.950 . S
H1138 C1168 0.950 . S
H1139 C1169 0.950 . S
C1140 H1122 0.951 . S
C1140 C1141 1.366 . S
C1140 C1142 1.388 . S
C1141 C1140 1.366 . S
C1141 C1145 1.385 . S
C1142 H1123 0.951 . S
C1142 C1140 1.388 . S
C1142 C1143 1.366 . S
C1143 C1142 1.366 . S
C1143 C1144 1.414 . S
C1143 C1146 1.499 . S
C1144 H1124 0.950 . S
C1144 C1143 1.414 . S
C1144 C1145 1.374 . S
C1145 H1125 0.950 . S
C1145 C1141 1.385 . S
C1145 C1144 1.374 . S
C1146 C1143 1.499 . S
C1146 C1147 1.373 . S
C1146 C1148 1.389 . S
C1147 H1126 0.950 . S
C1147 C1146 1.373 . S
C1147 C1163 1.377 . S
C1148 C1146 1.389 . S
C1148 C1149 1.524 . S
C1148 C1162 1.377 . S
C1149 C1148 1.524 . S
C1149 C1150 1.397 . S
C1149 C1154 1.363 . S
C1150 H1127 0.950 . S
C1150 C1149 1.397 . S
C1150 C1151 1.334 . S
C1151 H1128 0.950 . S
C1151 C1150 1.334 . S
C1151 C1152 1.287 . S
C1152 C1151 1.287 . S
C1152 C1153 1.524 . S
C1152 H1171 0.913 . S
C1153 H1129 0.950 . S
C1153 C1152 1.524 . S
C1153 C1154 1.415 . S
C1154 H1130 0.950 . S
C1154 C1149 1.363 . S
C1154 C1153 1.415 . S
C1155 H1131 0.951 . S
C1155 C1156 1.366 . S
C1155 C1157 1.388 . S
C1156 C1155 1.366 . S
C1156 C1160 1.385 . S
C1157 H1132 0.951 . S
C1157 C1155 1.388 . S
C1157 C1158 1.366 . S
C1158 C1157 1.366 . S
C1158 C1159 1.414 . S
C1158 C1161 1.499 . S
C1159 H1133 0.950 1_556 S
C1159 C1158 1.414 . S
C1159 C1160 1.374 . S
C1160 H1134 0.950 . S
C1160 C1156 1.385 . S
C1160 C1159 1.374 . S
C1161 C1158 1.499 . S
C1161 C1162 1.373 1_556 S
C1161 C1163 1.389 1_556 S
C1162 H1135 0.950 . S
C1162 C1148 1.377 . S
C1162 C1161 1.373 1_554 S
C1163 C1147 1.377 . S
C1163 C1161 1.389 1_554 S
C1163 C1164 1.524 1_554 S
C1164 C1163 1.524 1_556 S
C1164 C1165 1.397 . S
C1164 C1169 1.363 . S
C1165 H1136 0.950 1_556 S
C1165 C1164 1.397 . S
C1165 C1166 1.334 . S
C1166 H1137 0.950 . S
C1166 C1165 1.334 . S
C1166 C1167 1.287 . S
C1167 C1166 1.287 . S
C1167 C1168 1.524 . S
C1167 H1170 0.999 . S
C1168 H1138 0.950 . S
C1168 C1167 1.524 . S
C1168 C1169 1.415 . S
C1169 H1139 0.950 . S
C1169 C1164 1.363 . S
C1169 C1168 1.415 . S
H1170 C1167 0.999 . S
H1171 C1152 0.913 . S
H1172 C1190 0.951 . S
H1173 C1192 0.961 . S
H1174 C1194 0.950 . S
H1175 C1195 0.950 . S
H1176 C1197 0.950 . S
H1177 C1200 0.950 . S
H1178 C1201 0.950 . S
H1179 C1203 0.950 . S
H1180 C1204 0.950 1_455 S
H1181 C1205 0.951 . S
H1182 C1207 0.951 . S
H1183 C1209 0.950 . S
H1184 C1210 0.950 . S
H1185 C1212 0.950 . S
H1186 C1215 0.950 . S
H1187 C1216 0.950 . S
H1188 C1218 0.950 . S
H1189 C1219 0.950 . S
C1190 H1172 0.951 . S
C1190 C1191 1.366 . S
C1190 C1192 1.388 . S
C1191 C1190 1.366 . S
C1191 C1195 1.385 . S
C1192 H1173 0.961 . S
C1192 C1190 1.388 . S
C1192 C1193 1.366 . S
C1193 C1192 1.366 . S
C1193 C1194 1.414 . S
C1193 C1196 1.499 . S
C1194 H1174 0.950 . S
C1194 C1193 1.414 . S
C1194 C1195 1.374 . S
C1195 H1175 0.950 . S
C1195 C1191 1.385 . S
C1195 C1194 1.374 . S
C1196 C1193 1.499 . S
C1196 C1197 1.373 . S
C1196 C1198 1.389 . S
C1197 H1176 0.950 . S
C1197 C1196 1.373 . S
C1197 C1213 1.377 . S
C1198 C1196 1.389 . S
C1198 C1199 1.524 . S
C1198 C1212 1.377 . S
C1199 C1198 1.524 . S
C1199 C1200 1.397 . S
C1199 C1204 1.363 . S
C1200 H1177 0.950 . S
C1200 C1199 1.397 . S
C1200 C1201 1.334 . S
C1201 H1178 0.950 . S
C1201 C1200 1.334 . S
C1201 C1202 1.287 . S
C1202 C1201 1.287 . S
C1202 C1203 1.524 . S
C1202 H1221 0.913 . S
C1203 H1179 0.950 . S
C1203 C1202 1.524 . S
C1203 C1204 1.415 . S
C1204 H1180 0.950 1_655 S
C1204 C1199 1.363 . S
C1204 C1203 1.415 . S
C1205 H1181 0.951 . S
C1205 C1206 1.366 . S
C1205 C1207 1.388 . S
C1206 C1205 1.366 . S
C1206 C1210 1.385 1_655 S
C1207 H1182 0.951 . S
C1207 C1205 1.388 . S
C1207 C1208 1.366 . S
C1208 C1207 1.366 . S
C1208 C1209 1.414 1_655 S
C1208 C1211 1.499 . S
C1209 H1183 0.950 . S
C1209 C1208 1.414 1_455 S
C1209 C1210 1.374 . S
C1210 H1184 0.950 . S
C1210 C1206 1.385 1_455 S
C1210 C1209 1.374 . S
C1211 C1208 1.499 . S
C1211 C1212 1.373 . S
C1211 C1213 1.389 . S
C1212 H1185 0.950 . S
C1212 C1198 1.377 . S
C1212 C1211 1.373 . S
C1213 C1197 1.377 . S
C1213 C1211 1.389 . S
C1213 C1214 1.524 . S
C1214 C1213 1.524 . S
C1214 C1215 1.397 1_655 S
C1214 C1219 1.363 . S
C1215 H1186 0.950 . S
C1215 C1214 1.397 1_455 S
C1215 C1216 1.334 . S
C1216 H1187 0.950 . S
C1216 C1215 1.334 . S
C1216 C1217 1.287 . S
C1217 C1216 1.287 . S
C1217 C1218 1.524 1_455 S
C1217 H1220 0.999 . S
C1218 H1188 0.950 . S
C1218 C1217 1.524 1_655 S
C1218 C1219 1.415 . S
C1219 H1189 0.950 . S
C1219 C1214 1.363 . S
C1219 C1218 1.415 . S
H1220 C1217 0.999 . S
H1221 C1202 0.913 . S
H1222 C1240 0.951 1_545 S
H1223 C1242 0.951 1_545 S
H1224 C1244 0.950 . S
H1225 C1245 0.950 . S
H1226 C1247 0.950 . S
H1227 C1250 0.950 . S
H1228 C1251 0.950 . S
H1229 C1253 0.950 . S
H1230 C1254 0.950 . S
H1231 C1255 0.951 . S
H1232 C1257 0.951 . S
H1233 C1259 0.950 . S
H1234 C1260 0.950 . S
H1235 C1262 0.950 1_545 S
H1236 C1265 0.950 . S
H1237 C1266 0.950 . S
H1238 C1268 0.950 . S
H1239 C1269 0.950 . S
C1240 H1222 0.951 1_565 S
C1240 C1241 1.366 . S
C1240 C1242 1.388 . S
C1241 C1240 1.366 . S
C1241 C1245 1.385 . S
C1242 H1223 0.951 1_565 S
C1242 C1240 1.388 . S
C1242 C1243 1.366 . S
C1243 C1242 1.366 . S
C1243 C1244 1.414 . S
C1243 C1246 1.499 . S
C1244 H1224 0.950 . S
C1244 C1243 1.414 . S
C1244 C1245 1.374 . S
C1245 H1225 0.950 . S
C1245 C1241 1.385 . S
C1245 C1244 1.374 . S
C1246 C1243 1.499 . S
C1246 C1247 1.373 . S
C1246 C1248 1.389 . S
C1247 H1226 0.950 . S
C1247 C1246 1.373 . S
C1247 C1263 1.377 . S
C1248 C1246 1.389 . S
C1248 C1249 1.523 1_565 S
C1248 C1262 1.377 . S
C1249 C1248 1.523 1_545 S
C1249 C1250 1.394 1_545 S
C1249 C1254 1.366 . S
C1250 H1227 0.950 . S
C1250 C1249 1.394 1_565 S
C1250 C1251 1.334 . S
C1251 H1228 0.950 . S
C1251 C1250 1.334 . S
C1251 C1252 1.287 1_565 S
C1252 C1251 1.287 1_545 S
C1252 C1253 1.524 . S
C1252 H1271 0.913 . S
C1253 H1229 0.950 . S
C1253 C1252 1.524 . S
C1253 C1254 1.415 . S
C1254 H1230 0.950 . S
C1254 C1249 1.366 . S
C1254 C1253 1.415 . S
C1255 H1231 0.951 . S
C1255 C1256 1.366 . S
C1255 C1257 1.388 . S
C1256 C1255 1.366 . S
C1256 C1260 1.385 1_565 S
C1257 H1232 0.951 . S
C1257 C1255 1.388 . S
C1257 C1258 1.366 . S
C1258 C1257 1.366 . S
C1258 C1259 1.414 1_565 S
C1258 C1261 1.499 . S
C1259 H1233 0.950 . S
C1259 C1258 1.414 1_545 S
C1259 C1260 1.374 . S
C1260 H1234 0.950 . S
C1260 C1256 1.385 1_545 S
C1260 C1259 1.374 . S
C1261 C1258 1.499 . S
C1261 C1262 1.373 . S
C1261 C1263 1.389 . S
C1262 H1235 0.950 1_565 S
C1262 C1248 1.377 . S
C1262 C1261 1.373 . S
C1263 C1247 1.377 . S
C1263 C1261 1.389 . S
C1263 C1264 1.524 . S
C1264 C1263 1.524 . S
C1264 C1265 1.397 . S
C1264 C1269 1.363 . S
C1265 H1236 0.950 . S
C1265 C1264 1.397 . S
C1265 C1266 1.334 . S
C1266 H1237 0.950 . S
C1266 C1265 1.334 . S
C1266 C1267 1.287 . S
C1267 C1266 1.287 . S
C1267 C1268 1.524 . S
C1267 H1270 0.999 . S
C1268 H1238 0.950 . S
C1268 C1267 1.524 . S
C1268 C1269 1.415 . S
C1269 H1239 0.950 . S
C1269 C1264 1.363 . S
C1269 C1268 1.415 . S
H1270 C1267 0.999 . S
H1271 C1252 0.913 . S
H1272 C1290 0.951 . S
H1273 C1292 0.951 . S
H1274 C1294 0.950 . S
H1275 C1295 0.950 . S
H1276 C1297 0.950 . S
H1277 C1300 0.950 . S
H1278 C1301 0.950 . S
H1279 C1303 0.950 . S
H1280 C1304 0.950 . S
H1281 C1305 0.951 . S
H1282 C1307 0.951 . S
H1283 C1309 0.950 . S
H1284 C1310 0.950 . S
H1285 C1312 0.950 . S
H1286 C1315 0.950 . S
H1287 C1316 0.950 . S
H1288 C1318 0.950 . S
H1289 C1319 0.950 . S
C1290 H1272 0.951 . S
C1290 C1291 1.366 . S
C1290 C1292 1.388 . S
C1291 C1290 1.366 . S
C1291 C1295 1.385 . S
C1292 H1273 0.951 . S
C1292 C1290 1.388 . S
C1292 C1293 1.366 . S
C1293 C1292 1.366 . S
C1293 C1294 1.414 . S
C1293 C1296 1.499 . S
C1294 H1274 0.950 . S
C1294 C1293 1.414 . S
C1294 C1295 1.374 . S
C1295 H1275 0.950 . S
C1295 C1291 1.385 . S
C1295 C1294 1.374 . S
C1296 C1293 1.499 . S
C1296 C1297 1.373 . S
C1296 C1298 1.389 . S
C1297 H1276 0.950 . S
C1297 C1296 1.373 . S
C1297 C1313 1.377 . S
C1298 C1296 1.389 . S
C1298 C1299 1.524 . S
C1298 C1312 1.377 . S
C1299 C1298 1.524 . S
C1299 C1300 1.397 . S
C1299 C1304 1.363 . S
C1300 H1277 0.950 . S
C1300 C1299 1.397 . S
C1300 C1301 1.334 . S
C1301 H1278 0.950 . S
C1301 C1300 1.334 . S
C1301 C1302 1.287 . S
C1302 C1301 1.287 . S
C1302 C1303 1.524 . S
C1302 H1321 0.913 . S
C1303 H1279 0.950 . S
C1303 C1302 1.524 . S
C1303 C1304 1.415 . S
C1304 H1280 0.950 . S
C1304 C1299 1.363 . S
C1304 C1303 1.415 . S
C1305 H1281 0.951 . S
C1305 C1306 1.366 . S
C1305 C1307 1.388 . S
C1306 C1305 1.366 . S
C1306 C1310 1.385 . S
C1307 H1282 0.951 . S
C1307 C1305 1.388 . S
C1307 C1308 1.366 . S
C1308 C1307 1.366 . S
C1308 C1309 1.414 . S
C1308 C1311 1.499 . S
C1309 H1283 0.950 . S
C1309 C1308 1.414 . S
C1309 C1310 1.374 . S
C1310 H1284 0.950 . S
C1310 C1306 1.385 . S
C1310 C1309 1.374 . S
C1311 C1308 1.499 . S
C1311 C1312 1.373 . S
C1311 C1313 1.389 . S
C1312 H1285 0.950 . S
C1312 C1298 1.377 . S
C1312 C1311 1.373 . S
C1313 C1297 1.377 . S
C1313 C1311 1.389 . S
C1313 C1314 1.524 . S
C1314 C1313 1.524 . S
C1314 C1315 1.397 . S
C1314 C1319 1.363 . S
C1315 H1286 0.950 . S
C1315 C1314 1.397 . S
C1315 C1316 1.334 . S
C1316 H1287 0.950 . S
C1316 C1315 1.334 . S
C1316 C1317 1.287 . S
C1317 C1316 1.287 . S
C1317 C1318 1.524 . S
C1317 H1320 0.999 . S
C1318 H1288 0.950 . S
C1318 C1317 1.524 . S
C1318 C1319 1.415 . S
C1319 H1289 0.950 . S
C1319 C1314 1.363 . S
C1319 C1318 1.415 . S
H1320 C1317 0.999 . S
H1321 C1302 0.913 . S
H1322 C1340 0.951 . S
H1323 C1342 0.951 . S
H1324 C1344 0.950 . S
H1325 C1345 0.950 . S
H1326 C1347 0.950 . S
H1327 C1350 0.950 . S
H1328 C1351 0.950 . S
H1329 C1353 0.950 . S
H1330 C1354 0.950 . S
H1331 C1355 0.951 . S
H1332 C1357 0.951 . S
H1333 C1359 0.950 . S
H1334 C1360 0.950 . S
H1335 C1362 0.950 . S
H1336 C1365 0.950 . S
H1337 C1366 0.950 . S
H1338 C1368 0.950 . S
H1339 C1369 0.950 . S
C1340 H1322 0.951 . S
C1340 C1341 1.366 . S
C1340 C1342 1.388 . S
C1341 C1340 1.366 . S
C1341 C1345 1.385 . S
C1342 H1323 0.951 . S
C1342 C1340 1.388 . S
C1342 C1343 1.366 . S
C1343 C1342 1.366 . S
C1343 C1344 1.414 . S
C1343 C1346 1.499 . S
C1344 H1324 0.950 . S
C1344 C1343 1.414 . S
C1344 C1345 1.374 . S
C1345 H1325 0.950 . S
C1345 C1341 1.385 . S
C1345 C1344 1.374 . S
C1346 C1343 1.499 . S
C1346 C1347 1.373 . S
C1346 C1348 1.389 . S
C1347 H1326 0.950 . S
C1347 C1346 1.373 . S
C1347 C1363 1.377 . S
C1348 C1346 1.389 . S
C1348 C1349 1.524 . S
C1348 C1362 1.377 . S
C1349 C1348 1.524 . S
C1349 C1350 1.397 . S
C1349 C1354 1.363 . S
C1350 H1327 0.950 . S
C1350 C1349 1.397 . S
C1350 C1351 1.334 . S
C1351 H1328 0.950 . S
C1351 C1350 1.334 . S
C1351 C1352 1.287 . S
C1352 C1351 1.287 . S
C1352 C1353 1.524 . S
C1352 H1371 0.913 . S
C1353 H1329 0.950 . S
C1353 C1352 1.524 . S
C1353 C1354 1.415 . S
C1354 H1330 0.950 . S
C1354 C1349 1.363 . S
C1354 C1353 1.415 . S
C1355 H1331 0.951 . S
C1355 C1356 1.366 . S
C1355 C1357 1.388 . S
C1356 C1355 1.366 . S
C1356 C1360 1.385 . S
C1357 H1332 0.951 . S
C1357 C1355 1.388 . S
C1357 C1358 1.366 . S
C1358 C1357 1.366 . S
C1358 C1359 1.414 . S
C1358 C1361 1.499 . S
C1359 H1333 0.950 . S
C1359 C1358 1.414 . S
C1359 C1360 1.374 . S
C1360 H1334 0.950 . S
C1360 C1356 1.385 . S
C1360 C1359 1.374 . S
C1361 C1358 1.499 . S
C1361 C1362 1.373 . S
C1361 C1363 1.389 . S
C1362 H1335 0.950 . S
C1362 C1348 1.377 . S
C1362 C1361 1.373 . S
C1363 C1347 1.377 . S
C1363 C1361 1.389 . S
C1363 C1364 1.524 . S
C1364 C1363 1.524 . S
C1364 C1365 1.397 . S
C1364 C1369 1.363 . S
C1365 H1336 0.950 . S
C1365 C1364 1.397 . S
C1365 C1366 1.334 . S
C1366 H1337 0.950 . S
C1366 C1365 1.334 . S
C1366 C1367 1.287 . S
C1367 C1366 1.287 . S
C1367 C1368 1.524 . S
C1367 H1370 0.999 . S
C1368 H1338 0.950 . S
C1368 C1367 1.524 . S
C1368 C1369 1.415 . S
C1369 H1339 0.950 . S
C1369 C1364 1.363 . S
C1369 C1368 1.415 . S
H1370 C1367 0.999 . S
H1371 C1352 0.913 . S
C191 C76 1.544 . S
C206 C103 1.394 . S
C256 C127 1.393 . S
C241 C87 1.544 . S
C306 C148 1.393 . S
C291 C54 1.545 . S
C356 C166 1.393 . S
C341 C65 1.544 . S
C406 C106 1.334 . S
C391 C32 1.487 . S
C441 C43 1.487 . S
C456 C124 1.333 . S
C491 C10 1.487 . S
C506 C145 1.334 . S
C541 C21 1.487 . S
C556 C169 1.332 . S
C606 C104 0.425 . S
C591 C60 0.441 . S
C656 C122 0.425 . S
C641 C71 0.441 . S
C706 C143 0.426 . S
C691 C82 0.441 . S
C741 C49 0.442 . S
C756 C167 0.426 . S
C791 C16 0.521 . S
C806 C102 0.490 . S
C856 C126 0.493 . S
C841 C27 0.523 . S
C906 C147 0.492 . S
C891 C38 0.523 . S
C941 C5 0.520 . S
C956 C165 0.491 . S
C991 C59 1.603 . S
C1006 C105 1.560 . S
C1041 C70 1.603 . S
C1056 C123 1.560 . S
C1106 C144 1.560 . S
C1091 C81 1.603 . S
C1156 C168 1.560 . S
C1141 C48 1.603 . S
C1191 C15 1.437 . S
C1206 C101 1.406 1_655 S
C1256 C125 1.406 1_565 S
C1241 C26 1.438 . S
C1306 C146 1.405 . S
C1291 C37 1.438 . S
C1341 C4 1.438 . S
C1356 C164 1.406 . S
