# Generated by pormake.
# Topology zzz, (3,6)-cn, num edge types: 1
# Building blocks:
#     Node 0, Type 0, BuildingBlock: BELTOD_clean_linker_0, # of connection points: 3
#     Node 1, Type 0, BuildingBlock: BELTOD_clean_linker_0, # of connection points: 3
#     Node 2, Type 0, BuildingBlock: BELTOD_clean_linker_0, # of connection points: 3
#     Node 3, Type 0, BuildingBlock: BELTOD_clean_linker_0, # of connection points: 3
#     Node 4, Type 0, BuildingBlock: BELTOD_clean_linker_0, # of connection points: 3
#     Node 5, Type 0, BuildingBlock: BELTOD_clean_linker_0, # of connection points: 3
#     Node 6, Type 0, BuildingBlock: BELTOD_clean_linker_0, # of connection points: 3
#     Node 7, Type 0, BuildingBlock: BELTOD_clean_linker_0, # of connection points: 3
#     Node 8, Type 1, BuildingBlock: CUKXOW_clean_sbu_0, # of connection points: 6
#     Node 9, Type 1, BuildingBlock: CUKXOW_clean_sbu_0, # of connection points: 6
#     Node 10, Type 1, BuildingBlock: CUKXOW_clean_sbu_0, # of connection points: 6
#     Node 11, Type 1, BuildingBlock: CUKXOW_clean_sbu_0, # of connection points: 6
#     Edge 12, Type (0, 1), BuildingBlock: MIFKUJ_clean_linker_0, # of connection points: 2
#     Edge 13, Type (0, 1), BuildingBlock: MIFKUJ_clean_linker_0, # of connection points: 2
#     Edge 14, Type (0, 1), BuildingBlock: MIFKUJ_clean_linker_0, # of connection points: 2
#     Edge 15, Type (0, 1), BuildingBlock: MIFKUJ_clean_linker_0, # of connection points: 2
#     Edge 16, Type (0, 1), BuildingBlock: MIFKUJ_clean_linker_0, # of connection points: 2
#     Edge 17, Type (0, 1), BuildingBlock: MIFKUJ_clean_linker_0, # of connection points: 2
#     Edge 18, Type (0, 1), BuildingBlock: MIFKUJ_clean_linker_0, # of connection points: 2
#     Edge 19, Type (0, 1), BuildingBlock: MIFKUJ_clean_linker_0, # of connection points: 2
#     Edge 20, Type (0, 1), BuildingBlock: MIFKUJ_clean_linker_0, # of connection points: 2
#     Edge 21, Type (0, 1), BuildingBlock: MIFKUJ_clean_linker_0, # of connection points: 2
#     Edge 22, Type (0, 1), BuildingBlock: MIFKUJ_clean_linker_0, # of connection points: 2
#     Edge 23, Type (0, 1), BuildingBlock: MIFKUJ_clean_linker_0, # of connection points: 2
#     Edge 24, Type (0, 1), BuildingBlock: MIFKUJ_clean_linker_0, # of connection points: 2
#     Edge 25, Type (0, 1), BuildingBlock: MIFKUJ_clean_linker_0, # of connection points: 2
#     Edge 26, Type (0, 1), BuildingBlock: MIFKUJ_clean_linker_0, # of connection points: 2
#     Edge 27, Type (0, 1), BuildingBlock: MIFKUJ_clean_linker_0, # of connection points: 2
#     Edge 28, Type (0, 1), BuildingBlock: MIFKUJ_clean_linker_0, # of connection points: 2
#     Edge 29, Type (0, 1), BuildingBlock: MIFKUJ_clean_linker_0, # of connection points: 2
#     Edge 30, Type (0, 1), BuildingBlock: MIFKUJ_clean_linker_0, # of connection points: 2
#     Edge 31, Type (0, 1), BuildingBlock: MIFKUJ_clean_linker_0, # of connection points: 2
#     Edge 32, Type (0, 1), BuildingBlock: MIFKUJ_clean_linker_0, # of connection points: 2
#     Edge 33, Type (0, 1), BuildingBlock: MIFKUJ_clean_linker_0, # of connection points: 2
#     Edge 34, Type (0, 1), BuildingBlock: MIFKUJ_clean_linker_0, # of connection points: 2
#     Edge 35, Type (0, 1), BuildingBlock: MIFKUJ_clean_linker_0, # of connection points: 2
# Relax obj value: 0.199
# Max RMSD: 0.217
# Mean RMSD: 0.178
data_MOF--net-zzz--node1-CUKXOW_clean_sbu_0--node2-BELTOD_clean_linker_0--edge1-MIFKUJ_clean_linker_0
_symmetry_space_group_name_H-M    P1
_symmetry_Int_Tables_number       1
_symmetry_cell_setting            triclinic
loop_
_symmetry_equiv_pos_as_xyz
'x, y, z'
_cell_length_a     69.032022
_cell_length_b     67.352089
_cell_length_c     23.861331
_cell_angle_alpha  92.359286
_cell_angle_beta   88.372067
_cell_angle_gamma 95.342425
loop_
_atom_site_label
_atom_site_type_symbol
_atom_site_fract_x
_atom_site_fract_y
_atom_site_fract_z
_atom_type_partial_charge
P0 P 0.74799 0.41967 0.11466 0.0
H1 H 0.74845 0.40702 0.23099 0.0
H2 H 0.76757 0.42 0.3113 0.0
H3 H 0.7918 0.46955 0.21381 0.0
H4 H 0.77182 0.4571 0.13548 0.0
H5 H 0.73032 0.42175 0.00604 0.0
H6 H 0.70308 0.43878 0.9747 0.0
H7 H 0.69385 0.46231 0.14343 0.0
H8 H 0.72155 0.44554 0.17451 0.0
H9 H 0.7775 0.39218 0.08908 0.0
H10 H 0.76211 0.44805 0.02921 0.0
O11 O 0.73934 0.39618 0.12604 0.0
H12 H 0.80677 0.39446 0.02831 0.0
H13 H 0.79112 0.45029 0.96817 0.0
C14 C 0.75899 0.43095 0.17706 0.0
C15 C 0.75758 0.42091 0.22747 0.0
C16 C 0.76867 0.42827 0.27322 0.0
C17 C 0.78154 0.44569 0.26901 0.0
C18 C 0.78198 0.45624 0.21918 0.0
C19 C 0.77067 0.44902 0.1739 0.0
C20 C 0.72833 0.43292 0.09216 0.0
C21 C 0.72271 0.43089 0.03611 0.0
C22 C 0.70716 0.44063 0.01824 0.0
C23 C 0.69659 0.45209 0.05653 0.0
C24 C 0.7019 0.45369 0.11307 0.0
C25 C 0.71773 0.44418 0.13074 0.0
C26 C 0.76733 0.41963 0.06245 0.0
C27 C 0.78012 0.40464 0.06172 0.0
C28 C 0.79689 0.40603 0.02734 0.0
C29 C 0.80113 0.42249 0.99326 0.0
C30 C 0.78802 0.43724 0.9931 0.0
C31 C 0.77138 0.43593 0.0279 0.0
P32 P 0.9313 0.76638 0.09967 0.0
H33 H 0.94478 0.75463 0.2072 0.0
H34 H 0.94156 0.76956 0.30166 0.0
H35 H 0.89941 0.80694 0.24212 0.0
H36 H 0.90185 0.7911 0.14926 0.0
H37 H 0.92855 0.74903 0.98635 0.0
H38 H 0.9237 0.71452 0.95118 0.0
H39 H 0.91044 0.69545 0.1196 0.0
H40 H 0.91483 0.73021 0.1546 0.0
H41 H 0.94897 0.80668 0.09958 0.0
H42 H 0.90259 0.77213 0.01202 0.0
O43 O 0.95541 0.76564 0.09868 0.0
H44 H 0.94278 0.83607 0.04887 0.0
H45 H 0.89699 0.80156 0.95875 0.0
C46 C 0.924 0.7722 0.17099 0.0
C47 C 0.93435 0.76555 0.2151 0.0
C48 C 0.93262 0.77424 0.26898 0.0
C49 C 0.92069 0.78993 0.27926 0.0
C50 C 0.90877 0.79495 0.23607 0.0
C51 C 0.91029 0.786 0.18249 0.0
C52 C 0.92152 0.74231 0.07289 0.0
C53 C 0.92359 0.7376 0.01541 0.0
C54 C 0.92088 0.71781 0.99533 0.0
C55 C 0.9166 0.70234 0.03268 0.0
C56 C 0.91363 0.70714 0.08995 0.0
C57 C 0.91606 0.72701 0.1099 0.0
C58 C 0.92667 0.7871 0.05833 0.0
C59 C 0.93763 0.80536 0.06881 0.0
C60 C 0.93398 0.82216 0.04026 0.0
C61 C 0.91941 0.82097 0.00016 0.0
C62 C 0.90832 0.80272 0.98951 0.0
C63 C 0.91167 0.78591 0.01939 0.0
P64 P 0.75101 0.01498 0.13583 0.0
H65 H 0.73934 0.03906 0.23297 0.0
H66 H 0.71598 0.03148 0.30958 0.0
H67 H 0.71143 0.96924 0.25617 0.0
H68 H 0.7354 0.97679 0.18048 0.0
H69 H 0.76454 0.00157 0.02545 0.0
H70 H 0.7937 0.98641 0.99444 0.0
H71 H 0.8076 0.97831 0.16712 0.0
H72 H 0.77834 0.99405 0.19793 0.0
H73 H 0.73436 0.04609 0.07526 0.0
H74 H 0.72555 0.98212 0.0868 0.0
O75 O 0.76201 0.03808 0.14191 0.0
H76 H 0.70621 0.04525 0.01487 0.0
H77 H 0.69703 0.9813 0.02776 0.0
C78 C 0.7391 0.00847 0.20117 0.0
C79 C 0.73396 0.02366 0.23905 0.0
C80 C 0.7206 0.01933 0.2828 0.0
C81 C 0.71189 0.99981 0.28839 0.0
C82 C 0.71796 0.98441 0.2525 0.0
C83 C 0.73162 0.98871 0.20938 0.0
C84 C 0.76916 0.99871 0.11394 0.0
C85 C 0.77345 0.99589 0.05666 0.0
C86 C 0.79017 0.98707 0.03895 0.0
C87 C 0.80307 0.98112 0.0783 0.0
C88 C 0.79804 0.98284 0.13577 0.0
C89 C 0.78127 0.99172 0.15344 0.0
C90 C 0.73201 0.01417 0.08556 0.0
C91 C 0.72654 0.03185 0.0643 0.0
C92 C 0.71047 0.03136 0.02981 0.0
C93 C 0.69946 0.01321 0.01698 0.0
C94 C 0.70521 0.99548 0.03746 0.0
C95 C 0.72148 0.99595 0.07113 0.0
P96 P 0.5705 0.75043 0.16307 0.0
H97 H 0.551 0.74897 0.27317 0.0
H98 H 0.55865 0.73283 0.35767 0.0
H99 H 0.61605 0.72439 0.28886 0.0
H100 H 0.60802 0.74038 0.2032 0.0
H101 H 0.57904 0.79119 0.20728 0.0
H102 H 0.58479 0.82278 0.16003 0.0
H103 H 0.59172 0.79027 0.00172 0.0
H104 H 0.58414 0.75922 0.04805 0.0
H105 H 0.54404 0.71496 0.14239 0.0
H106 H 0.60307 0.73559 0.09534 0.0
O107 O 0.54679 0.75349 0.16838 0.0
H108 H 0.54673 0.68427 0.08584 0.0
H109 H 0.60556 0.70501 0.03658 0.0
C110 C 0.57887 0.7457 0.23158 0.0
C111 C 0.56548 0.74428 0.27677 0.0
C112 C 0.56993 0.73505 0.32548 0.0
C113 C 0.58789 0.727 0.32991 0.0
C114 C 0.60195 0.7301 0.28644 0.0
C115 C 0.59746 0.7394 0.23763 0.0
C116 C 0.58164 0.77271 0.13173 0.0
C117 C 0.58239 0.79092 0.16264 0.0
C118 C 0.58571 0.80902 0.13542 0.0
C119 C 0.58844 0.80919 0.07668 0.0
C120 C 0.5892 0.79083 0.04673 0.0
C121 C 0.58533 0.77286 0.07367 0.0
C122 C 0.57305 0.72794 0.12105 0.0
C123 C 0.55753 0.71299 0.11943 0.0
C124 C 0.55914 0.69537 0.0876 0.0
C125 C 0.57631 0.69242 0.0567 0.0
C126 C 0.59212 0.70709 0.05971 0.0
C127 C 0.59064 0.72457 0.09279 0.0
P128 P 0.24666 0.51284 0.21352 0.0
H129 H 0.25911 0.51232 0.09545 0.0
H130 H 0.24619 0.52705 0.01394 0.0
H131 H 0.20914 0.56024 0.1249 0.0
H132 H 0.22309 0.54674 0.20499 0.0
H133 H 0.27455 0.48718 0.25279 0.0
H134 H 0.3066 0.49392 0.29326 0.0
H135 H 0.3041 0.55705 0.27258 0.0
H136 H 0.27179 0.55011 0.2315 0.0
H137 H 0.206 0.49832 0.22385 0.0
H138 H 0.24756 0.53558 0.32234 0.0
O139 O 0.24387 0.48904 0.19042 0.0
H140 H 0.17997 0.5064 0.28998 0.0
H141 H 0.22153 0.54378 0.38861 0.0
C142 C 0.24163 0.52794 0.1561 0.0
C143 C 0.24868 0.5233 0.10199 0.0
C144 C 0.24112 0.53161 0.05542 0.0
C145 C 0.22618 0.54448 0.06236 0.0
C146 C 0.22064 0.55052 0.11727 0.0
C147 C 0.22847 0.5425 0.16361 0.0
C148 C 0.27098 0.51812 0.23834 0.0
C149 C 0.28101 0.50245 0.25597 0.0
C150 C 0.29936 0.50632 0.279 0.0
C151 C 0.30793 0.526 0.28564 0.0
C152 C 0.29783 0.54174 0.26791 0.0
C153 C 0.27948 0.5378 0.2442 0.0
C154 C 0.22875 0.51607 0.26859 0.0
C155 C 0.20959 0.50789 0.26038 0.0
C156 C 0.1947 0.51271 0.29782 0.0
C157 C 0.19872 0.52585 0.3442 0.0
C158 C 0.21806 0.53352 0.35343 0.0
C159 C 0.23295 0.52879 0.31558 0.0
P160 P 0.13867 0.25483 0.28676 0.0
H161 H 0.16026 0.24137 0.18741 0.0
H162 H 0.14922 0.22343 0.10133 0.0
H163 H 0.0898 0.23323 0.14765 0.0
H164 H 0.10094 0.25137 0.23276 0.0
H165 H 0.14854 0.29802 0.29047 0.0
H166 H 0.13136 0.32594 0.32869 0.0
H167 H 0.08279 0.28457 0.37785 0.0
H168 H 0.10022 0.25679 0.34064 0.0
H169 H 0.12894 0.21209 0.25918 0.0
H170 H 0.13631 0.25019 0.40845 0.0
O171 O 0.16259 0.26128 0.28801 0.0
H172 H 0.11786 0.18416 0.31571 0.0
H173 H 0.12577 0.2217 0.46623 0.0
C174 C 0.13147 0.24795 0.21619 0.0
C175 C 0.14495 0.24035 0.17792 0.0
C176 C 0.13859 0.22989 0.12904 0.0
C177 C 0.11861 0.22672 0.11795 0.0
C178 C 0.10529 0.23558 0.15454 0.0
C179 C 0.11168 0.24603 0.20336 0.0
C180 C 0.12582 0.27536 0.31378 0.0
C181 C 0.13423 0.295 0.3097 0.0
C182 C 0.12432 0.31094 0.33117 0.0
C183 C 0.10575 0.30747 0.3567 0.0
C184 C 0.09722 0.28773 0.35948 0.0
C185 C 0.10715 0.27184 0.33805 0.0
C186 C 0.13299 0.23347 0.32944 0.0
C187 C 0.12838 0.21451 0.30423 0.0
C188 C 0.12223 0.19833 0.33689 0.0
C189 C 0.12084 0.20064 0.39565 0.0
C190 C 0.12639 0.21948 0.42103 0.0
C191 C 0.1325 0.23574 0.38812 0.0
P192 P 0.27595 0.07478 0.2432 0.0
H193 H 0.28099 0.08216 0.12288 0.0
H194 H 0.29908 0.06509 0.04893 0.0
H195 H 0.30499 0.01684 0.15931 0.0
H196 H 0.28803 0.03444 0.23365 0.0
H197 H 0.24406 0.09592 0.29151 0.0
H198 H 0.21269 0.08454 0.33472 0.0
H199 H 0.22497 0.0233 0.30213 0.0
H200 H 0.25583 0.03472 0.25778 0.0
H201 H 0.31799 0.07823 0.23249 0.0
H202 H 0.27494 0.06783 0.36508 0.0
O203 O 0.27614 0.09846 0.22504 0.0
H204 H 0.34312 0.06933 0.29298 0.0
H205 H 0.30032 0.06038 0.428 0.0
C206 C 0.28308 0.05957 0.18375 0.0
C207 C 0.28566 0.06764 0.13058 0.0
C208 C 0.29594 0.05779 0.0882 0.0
C209 C 0.3037 0.03974 0.09863 0.0
C210 C 0.29944 0.03086 0.15029 0.0
C211 C 0.28941 0.04078 0.19262 0.0
C212 C 0.25222 0.06621 0.27054 0.0
C213 C 0.23985 0.08005 0.29285 0.0
C214 C 0.22199 0.07352 0.318 0.0
C215 C 0.21631 0.053 0.32181 0.0
C216 C 0.22872 0.0392 0.299 0.0
C217 C 0.24652 0.04576 0.27374 0.0
C218 C 0.29455 0.07321 0.29378 0.0
C219 C 0.31405 0.07454 0.27534 0.0
C220 C 0.3285 0.06958 0.31044 0.0
C221 C 0.32386 0.06377 0.36559 0.0
C222 C 0.30443 0.06411 0.38534 0.0
C223 C 0.28987 0.06862 0.34955 0.0
P224 P 0.37791 0.26574 0.23878 0.0
H225 H 0.35794 0.27015 0.13357 0.0
H226 H 0.36817 0.28712 0.0474 0.0
H227 H 0.42643 0.2986 0.10965 0.0
H228 H 0.41608 0.28206 0.19583 0.0
H229 H 0.36002 0.22578 0.26392 0.0
H230 H 0.37327 0.19635 0.29836 0.0
H231 H 0.43134 0.22609 0.28402 0.0
H232 H 0.41791 0.25569 0.25207 0.0
H233 H 0.38213 0.30924 0.23706 0.0
H234 H 0.38785 0.26431 0.35776 0.0
O235 O 0.35366 0.26203 0.24003 0.0
H236 H 0.39376 0.3351 0.30509 0.0
H237 H 0.39891 0.2903 0.42724 0.0
C238 C 0.38628 0.2746 0.17107 0.0
C239 C 0.373 0.27596 0.12828 0.0
C240 C 0.37883 0.28575 0.07913 0.0
C241 C 0.3981 0.29419 0.07178 0.0
C242 C 0.41157 0.29198 0.11366 0.0
C243 C 0.40567 0.28239 0.16296 0.0
C244 C 0.38798 0.24292 0.25478 0.0
C245 C 0.37563 0.22588 0.26736 0.0
C246 C 0.38324 0.20899 0.28691 0.0
C247 C 0.40338 0.20886 0.29427 0.0
C248 C 0.41574 0.22576 0.27966 0.0
C249 C 0.40809 0.24264 0.26045 0.0
C250 C 0.38481 0.28479 0.29156 0.0
C251 C 0.38581 0.30493 0.27836 0.0
C252 C 0.39223 0.31978 0.31778 0.0
C253 C 0.3974 0.31483 0.37179 0.0
C254 C 0.39541 0.29463 0.38577 0.0
C255 C 0.38908 0.27974 0.34603 0.0
Tb256 Tb 0.99662 0.9971 0.6501 0.0
C257 C 0.04147 0.00931 0.64235 0.0
Tb258 Tb 0.0148 0.02978 0.73432 0.0
O259 O 0.00299 0.016 0.57833 0.0
O260 O -0.00047 0.02858 0.65845 0.0
O261 O 0.02743 0.9949 0.63174 0.0
C262 C 0.03202 0.06227 0.78587 0.0
O263 O 0.03902 0.02493 0.67671 0.0
C264 C 0.00558 0.99444 0.77584 0.0
C265 C 0.9702 0.01785 0.74286 0.0
O266 O 0.03735 0.04435 0.78855 0.0
O267 O 0.01707 0.0619 0.75396 0.0
O268 O 0.00755 0.011 0.80583 0.0
O269 O 0.01144 0.99821 0.7265 0.0
O270 O 0.9842 0.03233 0.75304 0.0
O271 O 0.9725 0.00222 0.70825 0.0
C272 C 0.9802 0.96321 0.60366 0.0
O273 O 0.97235 0.98004 0.60714 0.0
O274 O 0.99724 0.96559 0.62566 0.0
C275 C 0.00493 0.03246 0.60889 0.0
Tb276 Tb 0.49827 0.02729 0.64626 0.0
C277 C 0.53481 0.00561 0.61101 0.0
Tb278 Tb 0.50716 0.99071 0.71304 0.0
O279 O 0.52492 0.04399 0.67642 0.0
O280 O 0.50995 0.02211 0.72456 0.0
O281 O 0.52131 0.01641 0.59271 0.0
C282 C 0.52405 0.96537 0.77488 0.0
O283 O 0.53308 0.99634 0.65921 0.0
C284 C 0.48019 0.98434 0.637 0.0
C285 C 0.47083 0.01226 0.74968 0.0
O286 O 0.52188 0.98384 0.78884 0.0
O287 O 0.51633 0.96098 0.72638 0.0
O288 O 0.48031 0.97422 0.68227 0.0
O289 O 0.49554 0.99594 0.63484 0.0
O290 O 0.48433 0.00128 0.76701 0.0
O291 O 0.47246 0.02188 0.70177 0.0
C292 C 0.48324 0.05396 0.58435 0.0
O293 O 0.48389 0.03521 0.57067 0.0
O294 O 0.49101 0.0577 0.63298 0.0
C295 C 0.52513 0.03395 0.72168 0.0
Tb296 Tb 0.51876 0.51874 0.64161 0.0
C297 C 0.4748 0.51196 0.61258 0.0
Tb298 Tb 0.49202 0.48731 0.70642 0.0
O299 O 0.51845 0.49858 0.56678 0.0
O300 O 0.51492 0.48745 0.64608 0.0
O301 O 0.48989 0.5256 0.61853 0.0
C302 C 0.47114 0.45357 0.73377 0.0
O303 O 0.47381 0.49464 0.63782 0.0
C304 C 0.49727 0.52287 0.75515 0.0
C305 C 0.53561 0.49623 0.7425 0.0
O306 O 0.46634 0.47146 0.74641 0.0
O307 O 0.48761 0.4548 0.70612 0.0
O308 O 0.49284 0.50666 0.78246 0.0
O309 O 0.4963 0.51871 0.70335 0.0
O310 O 0.51934 0.4841 0.74642 0.0
O311 O 0.53836 0.5107 0.70588 0.0
C312 C 0.54105 0.5509 0.60793 0.0
O313 O 0.53888 0.54537 0.65931 0.0
O314 O 0.53092 0.53819 0.57567 0.0
C315 C 0.51435 0.4826 0.59488 0.0
Tb316 Tb 0.98657 0.50476 0.63693 0.0
C317 C 0.01557 0.47047 0.62957 0.0
Tb318 Tb 0.01913 0.50493 0.72438 0.0
O319 O 0.00232 0.52924 0.59065 0.0
O320 O 0.01694 0.51113 0.63939 0.0
O321 O -0.0006 0.47716 0.61155 0.0
C322 C 0.05225 0.51383 0.77877 0.0
O323 O 0.02614 0.47962 0.67036 0.0
C324 C 0.98676 0.48324 0.74851 0.0
C325 C 0.99037 0.53883 0.72965 0.0
O326 O 0.05057 0.50439 0.73054 0.0
O327 O 0.03517 0.51805 0.79716 0.0
O328 O 0.00343 0.4803 0.76943 0.0
O329 O 0.98872 0.49922 0.72289 0.0
O330 O 0.00856 0.53461 0.73708 0.0
O331 O 0.97803 0.52699 0.69885 0.0
C332 C 0.95349 0.4957 0.58266 0.0
O333 O 0.96423 0.51256 0.58066 0.0
O334 O 0.96157 0.4838 0.61441 0.0
C335 C 0.01876 0.52714 0.61396 0.0
H336 H 0.2011 0.06852 0.41918 0.0
H337 H 0.17159 0.05631 0.4702 0.0
H338 H 0.16091 0.00877 0.34502 0.0
H339 H 0.19007 0.02146 0.29221 0.0
H340 H 0.128 0.02454 0.37452 0.0
H341 H 0.17887 0.99907 0.47095 0.0
H342 H 0.21027 0.9998 0.51802 0.0
H343 H 0.19063 0.04086 0.64496 0.0
H344 H 0.15919 0.04062 0.59819 0.0
H345 H 0.05186 0.98291 0.55821 0.0
H346 H 0.08199 0.9852 0.501 0.0
H347 H 0.10313 0.03803 0.59726 0.0
H348 H 0.07348 0.0357 0.6548 0.0
H349 H 0.13123 0.01285 0.57787 0.0
H350 H 0.08146 0.04063 0.46993 0.0
H351 H 0.05034 0.03866 0.42029 0.0
H352 H 0.06843 0.99052 0.31397 0.0
H353 H 0.09954 0.99206 0.3631 0.0
C354 C 0.19234 0.05565 0.40196 0.0
C355 C 0.19796 0.04594 0.35166 0.0
C356 C 0.17561 0.04852 0.43159 0.0
C357 C 0.16428 0.03139 0.41196 0.0
C358 C 0.16956 0.02191 0.36112 0.0
C359 C 0.18628 0.02909 0.33126 0.0
C360 C 0.14685 0.02362 0.44465 0.0
C361 C 0.12874 0.02161 0.41875 0.0
C362 C 0.14784 0.01976 0.5023 0.0
C363 C 0.1667 0.01992 0.53081 0.0
C364 C 0.18129 0.00837 0.50868 0.0
C365 C 0.19909 0.00868 0.53534 0.0
C366 C 0.20245 0.0204 0.5844 0.0
C367 C 0.188 0.0318 0.60695 0.0
C368 C 0.17018 0.03156 0.58041 0.0
C369 C 0.06305 0.99484 0.56767 0.0
C370 C 0.06025 0.00914 0.61108 0.0
C371 C 0.08019 0.99619 0.53473 0.0
C372 C 0.09468 0.01189 0.54462 0.0
C373 C 0.09214 0.02577 0.58898 0.0
C374 C 0.07513 0.02442 0.62182 0.0
C375 C 0.11236 0.01451 0.50822 0.0
C376 C 0.13055 0.01548 0.53344 0.0
C377 C 0.11144 0.01717 0.44987 0.0
C378 C 0.09271 0.0163 0.4206 0.0
C379 C 0.07872 0.02953 0.43626 0.0
C380 C 0.06112 0.02851 0.40821 0.0
C381 C 0.0574 0.01444 0.36427 0.0
C382 C 0.07131 0.00138 0.34811 0.0
C383 C 0.08893 0.00233 0.37598 0.0
H384 H 0.04377 0.01369 0.34263 0.0
H385 H 0.21625 0.02062 0.60498 0.0
H386 H 0.39256 0.1688 0.27634 0.0
H387 H 0.40519 0.14082 0.32149 0.0
H388 H 0.44485 0.18201 0.41512 0.0
H389 H 0.43215 0.20998 0.37111 0.0
H390 H 0.46298 0.15114 0.37252 0.0
H391 H 0.40442 0.1609 0.47689 0.0
H392 H 0.36941 0.16444 0.49167 0.0
H393 H 0.35563 0.10502 0.42365 0.0
H394 H 0.39067 0.10116 0.40756 0.0
H395 H 0.48525 0.09417 0.60291 0.0
H396 H 0.47081 0.11857 0.54741 0.0
H397 H 0.44649 0.07112 0.43649 0.0
H398 H 0.46149 0.04666 0.4908 0.0
H399 H 0.42007 0.10272 0.48158 0.0
H400 H 0.48077 0.09371 0.38268 0.0
H401 H 0.51623 0.09158 0.37609 0.0
H402 H 0.52603 0.15168 0.44338 0.0
H403 H 0.49059 0.15405 0.45123 0.0
C404 C 0.40389 0.17191 0.30679 0.0
C405 C 0.41137 0.19166 0.31992 0.0
C406 C 0.41112 0.1559 0.33247 0.0
C407 C 0.4259 0.15934 0.37188 0.0
C408 C 0.43352 0.179 0.38458 0.0
C409 C 0.4263 0.19498 0.35911 0.0
C410 C 0.4335 0.14255 0.40017 0.0
C411 C 0.45358 0.14064 0.39658 0.0
C412 C 0.42121 0.12865 0.43094 0.0
C413 C 0.40015 0.13085 0.44024 0.0
C414 C 0.39393 0.14864 0.46448 0.0
C415 C 0.3741 0.15069 0.47321 0.0
C416 C 0.36033 0.13497 0.45836 0.0
C417 C 0.36637 0.11715 0.43491 0.0
C418 C 0.3862 0.11503 0.42599 0.0
C419 C 0.4769 0.08896 0.56658 0.0
C420 C 0.47455 0.06859 0.55088 0.0
C421 C 0.46863 0.10287 0.53508 0.0
C422 C 0.45763 0.09659 0.48799 0.0
C423 C 0.45493 0.07621 0.47278 0.0
C424 C 0.46357 0.06231 0.50358 0.0
C425 C 0.44946 0.11152 0.45404 0.0
C426 C 0.42933 0.11309 0.45675 0.0
C427 C 0.46171 0.12531 0.42314 0.0
C428 C 0.48302 0.12399 0.41806 0.0
C429 C 0.49048 0.10641 0.39657 0.0
C430 C 0.51057 0.10516 0.3925 0.0
C431 C 0.52337 0.12146 0.40945 0.0
C432 C 0.5161 0.13906 0.43034 0.0
C433 C 0.49601 0.14036 0.43456 0.0
H434 H 0.53893 0.12047 0.40626 0.0
H435 H 0.34498 0.13657 0.46519 0.0
H436 H 0.3179 0.55384 0.36893 0.0
H437 H 0.34789 0.5574 0.42252 0.0
H438 H 0.37028 0.50994 0.32034 0.0
H439 H 0.34055 0.50657 0.26619 0.0
H440 H 0.36055 0.52935 0.48578 0.0
H441 H 0.4195 0.5171 0.3116 0.0
H442 H 0.42644 0.52557 0.21302 0.0
H443 H 0.3927 0.57589 0.23458 0.0
H444 H 0.38578 0.56791 0.33347 0.0
H445 H 0.44153 0.48797 0.5901 0.0
H446 H 0.41432 0.49551 0.534 0.0
H447 H 0.44338 0.55353 0.5014 0.0
H448 H 0.4708 0.54611 0.5572 0.0
H449 H 0.42805 0.5355 0.40699 0.0
H450 H 0.40619 0.55001 0.59431 0.0
H451 H 0.39947 0.54361 0.69431 0.0
H452 H 0.35925 0.49338 0.64913 0.0
H453 H 0.36594 0.49931 0.5488 0.0
C454 C 0.32942 0.54451 0.35712 0.0
C455 C 0.32689 0.52988 0.31354 0.0
C456 C 0.34646 0.54646 0.38798 0.0
C457 C 0.36133 0.53399 0.37529 0.0
C458 C 0.3591 0.51988 0.33045 0.0
C459 C 0.34206 0.51786 0.29983 0.0
C460 C 0.37848 0.5345 0.41146 0.0
C461 C 0.37531 0.53086 0.46863 0.0
C462 C 0.39775 0.53676 0.38924 0.0
C463 C 0.402 0.5418 0.32989 0.0
C464 C 0.41364 0.53003 0.2954 0.0
C465 C 0.41755 0.53473 0.23944 0.0
C466 C 0.40997 0.55122 0.21751 0.0
C467 C 0.3985 0.56308 0.25155 0.0
C468 C 0.39456 0.55845 0.30755 0.0
C469 C 0.44215 0.50237 0.57122 0.0
C470 C 0.4583 0.51649 0.57853 0.0
C471 C 0.42655 0.50667 0.53925 0.0
C472 C 0.42674 0.52517 0.51414 0.0
C473 C 0.44293 0.53919 0.5206 0.0
C474 C 0.45856 0.53492 0.55265 0.0
C475 C 0.41004 0.52973 0.48077 0.0
C476 C 0.41329 0.53426 0.4242 0.0
C477 C 0.39085 0.52857 0.50369 0.0
C478 C 0.38667 0.52503 0.56401 0.0
C479 C 0.39601 0.53752 0.60568 0.0
C480 C 0.3922 0.53398 0.66243 0.0
C481 C 0.37897 0.51807 0.67806 0.0
C482 C 0.3695 0.50569 0.63696 0.0
C483 C 0.37328 0.50915 0.58014 0.0
H484 H 0.37604 0.51536 0.72202 0.0
H485 H 0.41301 0.55483 0.17417 0.0
H486 H 0.08488 0.309 0.45571 0.0
H487 H 0.06807 0.33678 0.49607 0.0
H488 H 0.08659 0.37192 0.35384 0.0
H489 H 0.10333 0.34412 0.31287 0.0
H490 H 0.09224 0.39323 0.44984 0.0
H491 H 0.03996 0.35206 0.36646 0.0
H492 H 0.01916 0.32094 0.3465 0.0
H493 H 0.00231 0.31798 0.52079 0.0
H494 H 0.02325 0.34894 0.54194 0.0
H495 H 0.00309 0.45176 0.53104 0.0
H496 H 0.01749 0.4245 0.47883 0.0
H497 H 0.05962 0.42245 0.60798 0.0
H498 H 0.04505 0.44927 0.66117 0.0
H499 H 0.02248 0.38593 0.50865 0.0
H500 H 0.10265 0.41553 0.54469 0.0
H501 H 0.12363 0.44728 0.55002 0.0
H502 H 0.08342 0.4749 0.4511 0.0
H503 H 0.0621 0.4434 0.44581 0.0
C504 C 0.08517 0.32255 0.43263 0.0
C505 C 0.09539 0.32432 0.38096 0.0
C506 C 0.07558 0.33842 0.45582 0.0
C507 C 0.07592 0.35635 0.4277 0.0
C508 C 0.08617 0.35822 0.37626 0.0
C509 C 0.09578 0.34235 0.35302 0.0
C510 C 0.06597 0.3733 0.45271 0.0
C511 C 0.07699 0.39161 0.46269 0.0
C512 C 0.04597 0.37133 0.4684 0.0
C513 C 0.03331 0.35273 0.45584 0.0
C514 C 0.03194 0.34469 0.4006 0.0
C515 C 0.0201 0.32709 0.38907 0.0
C516 C 0.00945 0.31746 0.43237 0.0
C517 C 0.01058 0.32544 0.48729 0.0
C518 C 0.02242 0.34303 0.49907 0.0
C519 C 0.01528 0.44538 0.54869 0.0
C520 C 0.02307 0.45288 0.60001 0.0
C521 C 0.02353 0.42986 0.51866 0.0
C522 C 0.0398 0.42173 0.53913 0.0
C523 C 0.04727 0.42878 0.59101 0.0
C524 C 0.03888 0.44408 0.6214 0.0
C525 C 0.04889 0.40565 0.50683 0.0
C526 C 0.03773 0.3875 0.49572 0.0
C527 C 0.06865 0.40787 0.48905 0.0
C528 C 0.08075 0.42716 0.49516 0.0
C529 C 0.09825 0.42843 0.52436 0.0
C530 C 0.1102 0.44636 0.52734 0.0
C531 C 0.10491 0.46306 0.50064 0.0
C532 C 0.08752 0.46194 0.47163 0.0
C533 C 0.07541 0.4441 0.46907 0.0
H534 H 0.11425 0.47689 0.50267 0.0
H535 H 0.00029 0.30384 0.42335 0.0
H536 H 0.81377 0.95915 0.98475 0.0
H537 H 0.846 0.9614 0.93941 0.0
H538 H 0.86966 0.99509 0.08339 0.0
H539 H 0.83746 0.99367 0.12785 0.0
H540 H 0.87377 0.01615 0.99291 0.0
H541 H 0.88618 0.95053 0.03805 0.0
H542 H 0.88127 0.91402 0.04545 0.0
H543 H 0.87998 0.90666 0.86601 0.0
H544 H 0.88448 0.94312 0.85737 0.0
H545 H 0.9661 0.03411 0.84852 0.0
H546 H 0.93964 0.02542 0.91586 0.0
H547 H 0.90829 0.9902 0.78693 0.0
H548 H 0.93496 0.99845 0.7196 0.0
H549 H 0.91171 0.9692 0.88009 0.0
H550 H 0.8932 0.03415 0.83629 0.0
H551 H 0.89857 0.07058 0.82668 0.0
H552 H 0.91138 0.07834 0.00169 0.0
H553 H 0.90632 0.04191 0.01217 0.0
C554 C 0.82594 0.96658 0.0074 0.0
C555 C 0.82293 0.97663 0.05933 0.0
C556 C 0.84442 0.96766 0.98166 0.0
C557 C 0.8602 0.9786 0.0078 0.0
C558 C 0.85765 0.98664 0.06241 0.0
C559 C 0.83918 0.98569 0.08797 0.0
C560 C 0.87786 0.98514 0.97428 0.0
C561 C 0.88232 0.0058 0.96924 0.0
C562 C 0.88865 0.97168 0.94203 0.0
C563 C 0.88537 0.94968 0.94716 0.0
C564 C 0.88454 0.94118 0.00015 0.0
C565 C 0.8819 0.92046 0.00455 0.0
C566 C 0.88017 0.90805 0.95625 0.0
C567 C 0.8812 0.91631 0.90341 0.0
C568 C 0.8838 0.93701 0.89876 0.0
C569 C 0.95331 0.02499 0.83409 0.0
C570 C 0.95254 0.01687 0.77891 0.0
C571 C 0.93829 0.01991 0.87273 0.0
C572 C 0.92215 0.00697 0.85636 0.0
C573 C 0.92081 0.99993 0.8004 0.0
C574 C 0.93591 0.00479 0.76199 0.0
C575 C 0.90702 0.99999 0.89787 0.0
C576 C 0.90316 0.97937 0.90435 0.0
C577 C 0.89662 0.0134 0.93109 0.0
C578 C 0.8996 0.0353 0.92486 0.0
C579 C 0.89732 0.04362 0.87261 0.0
C580 C 0.90027 0.06426 0.86703 0.0
C581 C 0.90538 0.07676 0.91351 0.0
C582 C 0.90747 0.06864 0.96571 0.0
C583 C 0.90454 0.048 0.9715 0.0
H584 H 0.90766 0.09275 0.9091 0.0
H585 H 0.87809 0.89202 0.95976 0.0
H586 H 0.57192 0.81384 0.97579 0.0
H587 H 0.569 0.84439 0.92794 0.0
H588 H 0.59951 0.87842 0.06051 0.0
H589 H 0.60332 0.8475 0.1084 0.0
H590 H 0.56435 0.89292 0.03459 0.0
H591 H 0.62177 0.87712 0.9366 0.0
H592 H 0.64409 0.85582 0.88553 0.0
H593 H 0.60286 0.84386 0.75425 0.0
H594 H 0.58016 0.86486 0.80488 0.0
H595 H 0.54476 0.97483 0.8692 0.0
H596 H 0.56229 0.95255 0.92353 0.0
H597 H 0.54453 0.90345 0.80876 0.0
H598 H 0.52727 0.92579 0.75383 0.0
H599 H 0.58131 0.90219 0.83333 0.0
H600 H 0.52164 0.9119 0.9432 0.0
H601 H 0.49898 0.93266 0.99512 0.0
H602 H 0.54479 0.9559 0.10427 0.0
H603 H 0.56776 0.9354 0.05258 0.0
C604 C 0.57866 0.82764 0.99428 0.0
C605 C 0.5881 0.82802 0.04593 0.0
C606 C 0.57684 0.84519 0.9668 0.0
C607 C 0.58423 0.86366 0.99027 0.0
C608 C 0.59379 0.86427 0.04156 0.0
C609 C 0.59584 0.84659 0.06897 0.0
C610 C 0.58037 0.88217 0.96262 0.0
C611 C 0.56846 0.89527 0.99097 0.0
C612 C 0.5856 0.88512 0.90561 0.0
C613 C 0.59922 0.87252 0.87473 0.0
C614 C 0.6174 0.86984 0.89702 0.0
C615 C 0.63014 0.85784 0.86811 0.0
C616 C 0.62489 0.84848 0.81671 0.0
C617 C 0.60691 0.85113 0.79406 0.0
C618 C 0.59412 0.86312 0.8228 0.0
C619 C 0.54461 0.95927 0.85568 0.0
C620 C 0.53453 0.95193 0.80769 0.0
C621 C 0.55468 0.94656 0.88667 0.0
C622 C 0.55467 0.92627 0.87052 0.0
C623 C 0.54482 0.91905 0.82201 0.0
C624 C 0.53486 0.93177 0.79083 0.0
C625 C 0.56442 0.91227 0.90445 0.0
C626 C 0.57753 0.90011 0.87727 0.0
C627 C 0.56026 0.91015 0.9625 0.0
C628 C 0.54642 0.92228 0.99379 0.0
C629 C 0.52688 0.92151 0.97812 0.0
C630 C 0.51399 0.93322 0.0075 0.0
C631 C 0.52046 0.94562 0.05288 0.0
C632 C 0.53981 0.9463 0.06907 0.0
C633 C 0.55276 0.93463 0.0398 0.0
H634 H 0.51046 0.95469 0.07555 0.0
H635 H 0.63476 0.83918 0.7944 0.0
H636 H 0.69486 0.47537 0.96649 0.0
H637 H 0.66575 0.48703 0.92719 0.0
H638 H 0.63071 0.46112 0.06288 0.0
H639 H 0.65987 0.44952 0.10257 0.0
H640 H 0.61795 0.44809 0.95793 0.0
H641 H 0.63499 0.50963 0.05555 0.0
H642 H 0.6551 0.53982 0.0882 0.0
H643 H 0.66277 0.55875 0.91876 0.0
H644 H 0.64303 0.52847 0.88486 0.0
H645 H 0.53232 0.47788 0.8424 0.0
H646 H 0.55809 0.47381 0.9077 0.0
H647 H 0.60012 0.50436 0.7962 0.0
H648 H 0.57423 0.50917 0.73159 0.0
H649 H 0.60706 0.51609 0.90091 0.0
H650 H 0.59347 0.45193 0.80326 0.0
H651 H 0.57219 0.42238 0.77161 0.0
H652 H 0.55774 0.40874 0.94283 0.0
H653 H 0.57872 0.43839 0.97548 0.0
C654 C 0.68098 0.47249 0.9884 0.0
C655 C 0.67954 0.46149 0.03734 0.0
C656 C 0.66441 0.47926 0.96618 0.0
C657 C 0.64611 0.47499 0.99228 0.0
C658 C 0.64474 0.46464 0.04233 0.0
C659 C 0.66137 0.45809 0.06501 0.0
C660 C 0.62832 0.47926 0.96357 0.0
C661 C 0.61535 0.46302 0.9464 0.0
C662 C 0.62522 0.49869 0.94761 0.0
C663 C 0.63768 0.51662 0.96758 0.0
C664 C 0.64119 0.52007 0.02511 0.0
C665 C 0.65248 0.53724 0.04387 0.0
C666 C 0.66025 0.55116 0.00556 0.0
C667 C 0.65677 0.54793 0.94838 0.0
C668 C 0.64554 0.53076 0.92937 0.0
C669 C 0.54707 0.48367 0.83165 0.0
C670 C 0.55131 0.49361 0.78148 0.0
C671 C 0.56178 0.48133 0.86906 0.0
C672 C 0.5811 0.48845 0.85639 0.0
C673 C 0.58531 0.49871 0.80679 0.0
C674 C 0.57053 0.50136 0.76977 0.0
C675 C 0.59702 0.48486 0.8941 0.0
C676 C 0.60961 0.5012 0.91289 0.0
C677 C 0.59986 0.46551 0.91145 0.0
C678 C 0.58751 0.44749 0.89178 0.0
C679 C 0.58567 0.44269 0.83414 0.0
C680 C 0.57366 0.42592 0.81603 0.0
C681 C 0.56356 0.41373 0.85518 0.0
C682 C 0.56553 0.41822 0.91254 0.0
C683 C 0.57748 0.435 0.93088 0.0
H684 H 0.55424 0.40078 0.84109 0.0
H685 H 0.66892 0.56448 0.0202 0.0
H686 H 0.93823 0.67581 0.0784 0.0
H687 H 0.94794 0.64477 0.03411 0.0
H688 H 0.90991 0.65103 0.89701 0.0
H689 H 0.90027 0.68236 0.94085 0.0
H690 H 0.91445 0.60825 0.94004 0.0
H691 H 0.94936 0.66945 0.86996 0.0
H692 H 0.96766 0.70234 0.88573 0.0
H693 H 0.01065 0.67518 0.97559 0.0
H694 H 0.99235 0.64216 0.96126 0.0
H695 H 0.95591 0.55452 0.71589 0.0
H696 H 0.94158 0.57998 0.77481 0.0
H697 H 0.99257 0.58635 0.87681 0.0
H698 H 0.00725 0.56108 0.81717 0.0
H699 H 0.98123 0.62151 0.85888 0.0
H700 H 0.9502 0.56034 0.92165 0.0
H701 H 0.93235 0.52691 0.91464 0.0
H702 H 0.88318 0.55202 0.84894 0.0
H703 H 0.90084 0.58559 0.85471 0.0
C704 C 0.93138 0.67021 0.03988 0.0
C705 C 0.91855 0.68149 0.01286 0.0
C706 C 0.93699 0.65252 0.01461 0.0
C707 C 0.92968 0.64575 0.96233 0.0
C708 C 0.9156 0.65603 0.93755 0.0
C709 C 0.91019 0.67392 0.96242 0.0
C710 C 0.93902 0.62998 0.92976 0.0
C711 C 0.92894 0.6111 0.92168 0.0
C712 C 0.95817 0.63366 0.90764 0.0
C713 C 0.96939 0.65341 0.91509 0.0
C714 C 0.96263 0.67053 0.89349 0.0
C715 C 0.97301 0.68919 0.90211 0.0
C716 C 0.99029 0.69086 0.93177 0.0
C717 C 0.99725 0.67387 0.95271 0.0
C718 C 0.98688 0.65518 0.94434 0.0
C719 C 0.96417 0.56141 0.75062 0.0
C720 C 0.9827 0.5557 0.76201 0.0
C721 C 0.95587 0.57586 0.78456 0.0
C722 C 0.9658 0.58473 0.83101 0.0
C723 C 0.98458 0.57958 0.84141 0.0
C724 C 0.99299 0.56519 0.80717 0.0
C725 C 0.95662 0.5996 0.86805 0.0
C726 C 0.96675 0.61844 0.87717 0.0
C727 C 0.93764 0.59568 0.89183 0.0
C728 C 0.92693 0.57549 0.88812 0.0
C729 C 0.93564 0.55873 0.90523 0.0
C730 C 0.92555 0.53975 0.90157 0.0
C731 C 0.90666 0.53734 0.88125 0.0
C732 C 0.89782 0.55391 0.86462 0.0
C733 C 0.90786 0.57293 0.86812 0.0
H734 H 0.89886 0.52263 0.87853 0.0
H735 H 0.9983 0.70532 0.93841 0.0
H736 H 0.12656 0.16103 0.38045 0.0
H737 H 0.10828 0.13284 0.42492 0.0
H738 H 0.07802 0.17344 0.5322 0.0
H739 H 0.09566 0.20182 0.4865 0.0
H740 H 0.09105 0.13711 0.58436 0.0
H741 H 0.0553 0.15785 0.42743 0.0
H742 H 0.05251 0.16642 0.32868 0.0
H743 H 0.06752 0.10811 0.27429 0.0
H744 H 0.07072 0.09932 0.37278 0.0
H745 H 0.00692 0.07021 0.65657 0.0
H746 H 0.0295 0.09899 0.63058 0.0
H747 H 0.0538 0.06318 0.4972 0.0
H748 H 0.0317 0.03443 0.52361 0.0
H749 H 0.04407 0.09778 0.46017 0.0
H750 H 0.07945 0.07532 0.60814 0.0
H751 H 0.08935 0.06606 0.70128 0.0
H752 H 0.08031 0.12466 0.76841 0.0
H753 H 0.06984 0.13414 0.6763 0.0
C754 C 0.11609 0.16402 0.41365 0.0
C755 C 0.11236 0.18371 0.42924 0.0
C756 C 0.10577 0.14789 0.43924 0.0
C757 C 0.09171 0.15114 0.48128 0.0
C758 C 0.08887 0.1707 0.49978 0.0
C759 C 0.09903 0.18689 0.47374 0.0
C760 C 0.07885 0.13416 0.5023 0.0
C761 C 0.08047 0.12867 0.55782 0.0
C762 C 0.06568 0.12283 0.46659 0.0
C763 C 0.06343 0.128 0.40743 0.0
C764 C 0.05815 0.14691 0.3944 0.0
C765 C 0.05648 0.1518 0.33848 0.0
C766 C 0.05988 0.13784 0.29523 0.0
C767 C 0.06491 0.11893 0.30783 0.0
C768 C 0.06664 0.11398 0.36369 0.0
C769 C 0.01734 0.06847 0.62242 0.0
C770 C 0.01769 0.05014 0.59241 0.0
C771 C 0.03016 0.08486 0.6075 0.0
C772 C 0.04336 0.08312 0.56205 0.0
C773 C 0.04366 0.06479 0.53216 0.0
C774 C 0.03095 0.04845 0.54712 0.0
C775 C 0.05604 0.10062 0.54293 0.0
C776 C 0.05441 0.10626 0.48739 0.0
C777 C 0.06947 0.11178 0.57845 0.0
C778 C 0.07361 0.10538 0.63532 0.0
C779 C 0.07907 0.08608 0.64306 0.0
C780 C 0.08488 0.08081 0.69567 0.0
C781 C 0.08544 0.09474 0.74071 0.0
C782 C 0.07983 0.11385 0.7336 0.0
C783 C 0.07389 0.11917 0.68124 0.0
H784 H 0.0904 0.09076 0.781 0.0
H785 H 0.05858 0.14165 0.25196 0.0
H786 H 0.36338 0.07481 0.36611 0.0
H787 H 0.38819 0.0592 0.41489 0.0
H788 H 0.34379 0.01991 0.49414 0.0
H789 H 0.31879 0.03452 0.44339 0.0
H790 H 0.38167 0.04687 0.559 0.0
H791 H 0.35839 0.99417 0.41852 0.0
H792 H 0.34989 0.98412 0.32102 0.0
H793 H 0.40681 0.00704 0.26351 0.0
H794 H 0.41551 0.01749 0.36069 0.0
H795 H 0.44256 0.98014 0.67638 0.0
H796 H 0.4144 0.99279 0.63376 0.0
H797 H 0.44994 0.00894 0.48807 0.0
H798 H 0.47804 0.99648 0.53083 0.0
H799 H 0.41516 0.99351 0.45772 0.0
H800 H 0.44133 0.04214 0.58764 0.0
H801 H 0.45222 0.06176 0.67234 0.0
H802 H 0.39422 0.05476 0.7427 0.0
H803 H 0.38308 0.03483 0.65877 0.0
C804 C 0.35875 0.06281 0.39362 0.0
C805 C 0.33891 0.05598 0.40036 0.0
C806 C 0.373 0.05401 0.42173 0.0
C807 C 0.36772 0.03838 0.45757 0.0
C808 C 0.34804 0.03201 0.46649 0.0
C809 C 0.33377 0.04057 0.43775 0.0
C810 C 0.3829 0.02826 0.48416 0.0
C811 C 0.38874 0.0348 0.53796 0.0
C812 C 0.39261 0.01339 0.45474 0.0
C813 C 0.38751 0.00676 0.39666 0.0
C814 C 0.36901 0.99721 0.385 0.0
C815 C 0.36418 0.99141 0.32983 0.0
C816 C 0.37778 0.99499 0.28607 0.0
C817 C 0.39628 0.0043 0.29743 0.0
C818 C 0.40117 0.01014 0.35253 0.0
C819 C 0.44421 0.98607 0.63483 0.0
C820 C 0.46248 0.98779 0.6072 0.0
C821 C 0.4282 0.99347 0.61082 0.0
C822 C 0.43021 0.00231 0.55843 0.0
C823 C 0.44811 0.00247 0.52892 0.0
C824 C 0.46413 0.99532 0.55322 0.0
C825 C 0.41382 0.01158 0.53431 0.0
C826 C 0.40785 0.00511 0.48026 0.0
C827 C 0.40435 0.02696 0.56331 0.0
C828 C 0.41145 0.03675 0.61687 0.0
C829 C 0.43099 0.04447 0.6215 0.0
C830 C 0.43718 0.05579 0.66922 0.0
C831 C 0.42392 0.05955 0.71276 0.0
C832 C 0.40448 0.05189 0.70882 0.0
C833 C 0.39825 0.04049 0.66127 0.0
H834 H 0.42873 0.06833 0.74964 0.0
H835 H 0.37401 0.99051 0.24338 0.0
H836 H 0.42745 0.31269 0.44369 0.0
H837 H 0.44515 0.34036 0.4958 0.0
H838 H 0.40547 0.38063 0.43943 0.0
H839 H 0.3871 0.35299 0.38936 0.0
H840 H 0.44782 0.38674 0.4055 0.0
H841 H 0.40384 0.37575 0.56332 0.0
H842 H 0.38696 0.35718 0.64002 0.0
H843 H 0.44173 0.35056 0.71464 0.0
H844 H 0.45903 0.36862 0.63755 0.0
H845 H 0.48716 0.47989 0.51463 0.0
H846 H 0.46605 0.4503 0.48585 0.0
H847 H 0.49589 0.41478 0.59632 0.0
H848 H 0.51654 0.44472 0.62679 0.0
H849 H 0.45874 0.40512 0.60627 0.0
H850 H 0.50321 0.4125 0.45002 0.0
H851 H 0.52185 0.42995 0.37408 0.0
H852 H 0.46861 0.44137 0.29774 0.0
H853 H 0.44965 0.4242 0.37364 0.0
C854 C 0.42201 0.32726 0.44401 0.0
C855 C 0.40602 0.33066 0.41145 0.0
C856 C 0.43219 0.34305 0.4738 0.0
C857 C 0.42659 0.36246 0.47125 0.0
C858 C 0.40996 0.3657 0.44183 0.0
C859 C 0.39963 0.34992 0.41275 0.0
C860 C 0.43979 0.37972 0.49073 0.0
C861 C 0.45004 0.39093 0.44942 0.0
C862 C 0.44319 0.38454 0.54807 0.0
C863 C 0.43279 0.3732 0.59377 0.0
C864 C 0.41235 0.36999 0.59536 0.0
C865 C 0.40269 0.35962 0.6391 0.0
C866 C 0.41328 0.35253 0.68186 0.0
C867 C 0.43355 0.3559 0.68119 0.0
C868 C 0.4433 0.3662 0.63744 0.0
C869 C 0.48939 0.46568 0.53195 0.0
C870 C 0.50346 0.4644 0.57253 0.0
C871 C 0.47732 0.44879 0.51563 0.0
C872 C 0.47954 0.43022 0.53834 0.0
C873 C 0.49391 0.42892 0.57822 0.0
C874 C 0.50576 0.44592 0.59525 0.0
C875 C 0.46667 0.41228 0.5209 0.0
C876 C 0.45657 0.40088 0.56238 0.0
C877 C 0.46366 0.40692 0.46364 0.0
C878 C 0.47502 0.41721 0.41779 0.0
C879 C 0.49548 0.41885 0.41725 0.0
C880 C 0.5061 0.42867 0.37417 0.0
C881 C 0.49642 0.4368 0.33118 0.0
C882 C 0.47609 0.43508 0.3311 0.0
C883 C 0.4654 0.42529 0.3741 0.0
H884 H 0.50467 0.4444 0.29787 0.0
H885 H 0.40576 0.34452 0.71567 0.0
H886 H 0.16412 0.53759 0.31259 0.0
H887 H 0.1366 0.54586 0.3727 0.0
H888 H 0.16929 0.53683 0.51952 0.0
H889 H 0.19693 0.5282 0.45918 0.0
H890 H 0.13358 0.51662 0.5221 0.0
H891 H 0.15889 0.58329 0.49274 0.0
H892 H 0.17245 0.61204 0.43886 0.0
H893 H 0.11966 0.61006 0.34707 0.0
H894 H 0.10587 0.58111 0.39982 0.0
H895 H 0.04975 0.53649 0.68003 0.0
H896 H 0.08355 0.54469 0.64841 0.0
H897 H 0.06417 0.54912 0.47938 0.0
H898 H 0.03045 0.54052 0.51112 0.0
H899 H 0.09667 0.57577 0.50428 0.0
H900 H 0.07327 0.50679 0.52791 0.0
H901 H 0.06031 0.47765 0.57988 0.0
H902 H 0.11127 0.48266 0.68043 0.0
H903 H 0.12414 0.51262 0.63074 0.0
C904 C 0.16547 0.53741 0.35769 0.0
C905 C 0.18259 0.53207 0.38124 0.0
C906 C 0.14983 0.54239 0.392 0.0
C907 C 0.15098 0.54218 0.45058 0.0
C908 C 0.16818 0.53721 0.47438 0.0
C909 C 0.18394 0.53233 0.43996 0.0
C910 C 0.13353 0.5454 0.48617 0.0
C911 C 0.12577 0.5298 0.5195 0.0
C912 C 0.12322 0.56246 0.48186 0.0
C913 C 0.13139 0.57994 0.45008 0.0
C914 C 0.15022 0.58889 0.46079 0.0
C915 C 0.15794 0.60524 0.43049 0.0
C916 C 0.14694 0.61285 0.38951 0.0
C917 C 0.12817 0.60415 0.37883 0.0
C918 C 0.12038 0.58779 0.40899 0.0
C919 C 0.0528 0.53936 0.63633 0.0
C920 C 0.03778 0.53714 0.59758 0.0
C921 C 0.07201 0.54432 0.61844 0.0
C922 C 0.07637 0.54706 0.56134 0.0
C923 C 0.06109 0.54697 0.5236 0.0
C924 C 0.04186 0.54202 0.54166 0.0
C925 C 0.09663 0.54685 0.53935 0.0
C926 C 0.1048 0.56289 0.50823 0.0
C927 C 0.1074 0.53018 0.54582 0.0
C928 C 0.09944 0.51235 0.57653 0.0
C929 C 0.0815 0.50206 0.56212 0.0
C930 C 0.07414 0.48535 0.5913 0.0
C931 C 0.08485 0.47835 0.63393 0.0
C932 C 0.10292 0.48815 0.6476 0.0
C933 C 0.11017 0.50513 0.6193 0.0
H934 H 0.07927 0.46524 0.65603 0.0
H935 H 0.15294 0.62551 0.36609 0.0
H936 H 0.92433 0.82532 0.88776 0.0
H937 H 0.93037 0.85715 0.84106 0.0
H938 H 0.91543 0.88862 0.99509 0.0
H939 H 0.90986 0.85691 0.04197 0.0
H940 H 0.91457 0.89316 0.82197 0.0
H941 H 0.95123 0.92299 0.02379 0.0
H942 H 0.96395 0.91028 0.10978 0.0
H943 H 0.97779 0.85691 0.01861 0.0
H944 H 0.96534 0.8694 0.9321 0.0
H945 H 0.98005 0.99356 0.86409 0.0
H946 H 0.95666 0.96616 0.89198 0.0
H947 H 0.97596 0.92955 0.75265 0.0
H948 H -2e-05 0.95699 0.72535 0.0
H949 H 0.97078 0.92942 0.91856 0.0
H950 H 0.92615 0.89596 0.72456 0.0
H951 H 0.91262 0.90711 0.63819 0.0
H952 H 0.9152 0.96705 0.70671 0.0
H953 H 0.92849 0.95635 0.7942 0.0
C954 C 0.92157 0.83901 0.91081 0.0
C955 C 0.91688 0.83883 0.9684 0.0
C956 C 0.92499 0.85716 0.88416 0.0
C957 C 0.9237 0.87523 0.91496 0.0
C958 C 0.91671 0.87484 0.97078 0.0
C959 C 0.91353 0.85676 0.99751 0.0
C960 C 0.93321 0.89402 0.89272 0.0
C961 C 0.92698 0.90111 0.84244 0.0
C962 C 0.94915 0.90443 0.92042 0.0
C963 C 0.95722 0.89706 0.97174 0.0
C964 C 0.95709 0.9086 0.02213 0.0
C965 C 0.96422 0.90142 0.07094 0.0
C966 C 0.97162 0.88277 0.0697 0.0
C967 C 0.97202 0.87132 0.01956 0.0
C968 C 0.96491 0.87843 0.97066 0.0
C969 C 0.9793 0.97972 0.83911 0.0
C970 C 0.99173 0.97745 0.79205 0.0
C971 C 0.96577 0.96417 0.85481 0.0
C972 C 0.96436 0.94598 0.82384 0.0
C973 C 0.97652 0.94367 0.77625 0.0
C974 C 0.99021 0.9593 0.76066 0.0
C975 C 0.95244 0.92866 0.84679 0.0
C976 C 0.95831 0.92173 0.89762 0.0
C977 C 0.9364 0.9184 0.81878 0.0
C978 C 0.92893 0.92537 0.76574 0.0
C979 C 0.92407 0.91159 0.72124 0.0
C980 C 0.91634 0.91783 0.67212 0.0
C981 C 0.91328 0.93784 0.66687 0.0
C982 C 0.91787 0.95163 0.71081 0.0
C983 C 0.92557 0.94548 0.76015 0.0
H984 H 0.90725 0.94264 0.62885 0.0
H985 H 0.97708 0.87722 0.10755 0.0
H986 H 0.66336 0.99627 0.04527 0.0
H987 H 0.63302 0.99857 0.99647 0.0
H988 H 0.66484 0.03166 0.8667 0.0
H989 H 0.69507 0.03004 0.9168 0.0
H990 H 0.63517 0.04974 0.89753 0.0
H991 H 0.64322 0.98044 0.84646 0.0
H992 H 0.64754 0.94517 0.86264 0.0
H993 H 0.5957 0.9407 0.96684 0.0
H994 H 0.59115 0.97597 0.95149 0.0
H995 H 0.56275 0.04483 0.69212 0.0
H996 H 0.59172 0.04064 0.74563 0.0
H997 H 0.55534 0.01636 0.88101 0.0
H998 H 0.52626 0.0209 0.82777 0.0
H999 H 0.58578 0.99353 0.85206 0.0
H1000 H 0.57662 0.06182 0.89775 0.0
H1001 H 0.5713 0.09655 0.8784 0.0
H1002 H 0.62529 0.1028 0.78414 0.0
H1003 H 0.63081 0.06799 0.80226 0.0
C1004 C 0.66386 0.00377 0.00587 0.0
C1005 C 0.68149 0.01299 0.98467 0.0
C1006 C 0.64654 0.00499 0.97785 0.0
C1007 C 0.64663 0.01509 0.92746 0.0
C1008 C 0.66438 0.02383 0.90554 0.0
C1009 C 0.68163 0.0229 0.93406 0.0
C1010 C 0.62815 0.01788 0.89965 0.0
C1011 C 0.62456 0.03736 0.88676 0.0
C1012 C 0.61386 0.00188 0.88763 0.0
C1013 C 0.6169 0.98085 0.89802 0.0
C1014 C 0.63282 0.97196 0.87312 0.0
C1015 C 0.63528 0.95196 0.88201 0.0
C1016 C 0.62187 0.94068 0.91564 0.0
C1017 C 0.60603 0.94941 0.94062 0.0
C1018 C 0.60349 0.96939 0.93177 0.0
C1019 C 0.56096 0.03886 0.73361 0.0
C1020 C 0.54237 0.03294 0.75577 0.0
C1021 C 0.57748 0.03641 0.76402 0.0
C1022 C 0.57564 0.02819 0.81724 0.0
C1023 C 0.55704 0.0226 0.83985 0.0
C1024 C 0.5405 0.02515 0.80948 0.0
C1025 C 0.59321 0.02523 0.84878 0.0
C1026 C 0.5965 0.00582 0.86275 0.0
C1027 C 0.60726 0.04125 0.86177 0.0
C1028 C 0.60404 0.06223 0.85096 0.0
C1029 C 0.58728 0.07054 0.87251 0.0
C1030 C 0.58425 0.09025 0.86184 0.0
C1031 C 0.59793 0.10186 0.82995 0.0
C1032 C 0.6147 0.09379 0.80879 0.0
C1033 C 0.6178 0.07407 0.8193 0.0
H1034 H 0.59555 0.11712 0.82174 0.0
H1035 H 0.62375 0.92518 0.92233 0.0
H1036 H 0.56886 0.6536 0.0841 0.0
H1037 H 0.56318 0.62469 0.01913 0.0
H1038 H 0.57837 0.66218 0.87931 0.0
H1039 H 0.58436 0.69113 0.94447 0.0
H1040 H 0.54106 0.64309 0.87622 0.0
H1041 H 0.60507 0.6259 0.89714 0.0
H1042 H 0.63497 0.61841 0.94283 0.0
H1043 H 0.60374 0.56842 0.02126 0.0
H1044 H 0.57351 0.57584 0.97712 0.0
H1045 H 0.50673 0.55818 0.70467 0.0
H1046 H 0.52672 0.58731 0.74272 0.0
H1047 H 0.52861 0.55871 0.901 0.0
H1048 H 0.50996 0.5291 0.86157 0.0
H1049 H 0.56288 0.57504 0.87672 0.0
H1050 H 0.49784 0.59714 0.872 0.0
H1051 H 0.46782 0.60464 0.82668 0.0
H1052 H 0.50114 0.64574 0.72042 0.0
H1053 H 0.5314 0.63812 0.76419 0.0
C1054 C 0.57155 0.6555 0.0396 0.0
C1055 C 0.57695 0.67451 0.01907 0.0
C1056 C 0.56842 0.639 0.00258 0.0
C1057 C 0.5704 0.64132 0.94445 0.0
C1058 C 0.5769 0.6601 0.92406 0.0
C1059 C 0.58035 0.67657 0.9612 0.0
C1060 C 0.5625 0.625 0.9058 0.0
C1061 C 0.54611 0.62829 0.87521 0.0
C1062 C 0.56891 0.60567 0.90554 0.0
C1063 C 0.58692 0.60156 0.93406 0.0
C1064 C 0.60447 0.61348 0.92477 0.0
C1065 C 0.62152 0.6092 0.95029 0.0
C1066 C 0.62125 0.59297 0.98501 0.0
C1067 C 0.60392 0.58101 0.99442 0.0
C1068 C 0.58682 0.58525 0.96914 0.0
C1069 C 0.51155 0.55814 0.74747 0.0
C1070 C 0.5071 0.54135 0.77996 0.0
C1071 C 0.52282 0.57484 0.76935 0.0
C1072 C 0.52913 0.57529 0.82492 0.0
C1073 C 0.52409 0.55869 0.85788 0.0
C1074 C 0.51323 0.54185 0.83557 0.0
C1075 C 0.54089 0.59294 0.84947 0.0
C1076 C 0.55803 0.58991 0.87712 0.0
C1077 C 0.53508 0.61251 0.84763 0.0
C1078 C 0.5169 0.61688 0.8209 0.0
C1079 C 0.49878 0.60762 0.83857 0.0
C1080 C 0.48172 0.61189 0.81316 0.0
C1081 C 0.48258 0.62558 0.77051 0.0
C1082 C 0.5005 0.63507 0.75329 0.0
C1083 C 0.51761 0.63076 0.77829 0.0
H1084 H 0.46936 0.62889 0.75094 0.0
H1085 H 0.63447 0.58963 0.00451 0.0
H1086 H 0.83715 0.41826 0.03182 0.0
H1087 H 0.86852 0.42596 0.98375 0.0
H1088 H 0.83914 0.44121 0.83649 0.0
H1089 H 0.80756 0.43345 0.88453 0.0
H1090 H 0.87129 0.41948 0.81059 0.0
H1091 H 0.85621 0.47776 0.91256 0.0
H1092 H 0.84618 0.49941 0.99184 0.0
H1093 H 0.89506 0.48536 0.0852 0.0
H1094 H 0.90526 0.46337 0.0066 0.0
H1095 H 0.951 0.4919 0.71766 0.0
H1096 H 0.91936 0.4775 0.75255 0.0
H1097 H 0.94788 0.43962 0.85892 0.0
H1098 H 0.97975 0.4533 0.82207 0.0
H1099 H 0.91604 0.47251 0.90114 0.0
H1100 H 0.92954 0.41255 0.78551 0.0
H1101 H 0.93915 0.3972 0.69445 0.0
H1102 H 0.89171 0.42124 0.61583 0.0
H1103 H 0.882 0.43676 0.70661 0.0
C1104 C 0.83735 0.42288 0.98884 0.0
C1105 C 0.81994 0.42526 0.96186 0.0
C1106 C 0.85527 0.42739 0.96159 0.0
C1107 C 0.8561 0.43428 0.9068 0.0
C1108 C 0.83875 0.43591 0.87881 0.0
C1109 C 0.82078 0.43159 0.90632 0.0
C1110 C 0.87514 0.44077 0.88034 0.0
C1111 C 0.88106 0.43107 0.8304 0.0
C1112 C 0.88775 0.45612 0.90568 0.0
C1113 C 0.88135 0.4687 0.95398 0.0
C1114 C 0.86467 0.47905 0.95029 0.0
C1115 C 0.859 0.49145 0.995 0.0
C1116 C 0.86996 0.49374 0.04352 0.0
C1117 C 0.88658 0.48356 0.04756 0.0
C1118 C 0.89231 0.47112 0.00294 0.0
C1119 C 0.95056 0.48008 0.74719 0.0
C1120 C 0.96779 0.4735 0.76665 0.0
C1121 C 0.93249 0.47199 0.76728 0.0
C1122 C 0.93143 0.45748 0.80784 0.0
C1123 C 0.94855 0.45072 0.82715 0.0
C1124 C 0.96666 0.45853 0.80617 0.0
C1125 C 0.91242 0.45064 0.83313 0.0
C1126 C 0.9064 0.46058 0.8823 0.0
C1127 C 0.8996 0.43593 0.80632 0.0
C1128 C 0.90512 0.42596 0.75252 0.0
C1129 C 0.92124 0.41463 0.74872 0.0
C1130 C 0.92669 0.40586 0.69722 0.0
C1131 C 0.91608 0.40827 0.64932 0.0
C1132 C 0.89993 0.41936 0.65291 0.0
C1133 C 0.89442 0.4281 0.70435 0.0
H1134 H 0.92035 0.40152 0.60948 0.0
H1135 H 0.86562 0.50349 0.07787 0.0
H1136 H 0.13143 0.19042 0.09097 0.0
H1137 H 0.11725 0.1647 0.0258 0.0
H1138 H 0.0749 0.2039 0.97925 0.0
H1139 H 0.08907 0.22984 0.04492 0.0
H1140 H 0.05764 0.16842 0.00283 0.0
H1141 H 0.11159 0.19148 0.88703 0.0
H1142 H 0.14588 0.20166 0.86216 0.0
H1143 H 0.1612 0.1429 0.89408 0.0
H1144 H 0.12704 0.13243 0.91995 0.0
H1145 H 0.02226 0.10041 0.78187 0.0
H1146 H 0.03715 0.13004 0.83292 0.0
H1147 H 0.07705 0.09396 0.90819 0.0
H1148 H 0.06213 0.06426 0.85757 0.0
H1149 H 0.09498 0.12948 0.8636 0.0
H1150 H 0.04102 0.10774 0.98523 0.0
H1151 H 0.00657 0.09777 0.00864 0.0
H1152 H 0.9911 0.15502 0.96192 0.0
H1153 H 0.02546 0.16523 0.93743 0.0
C1154 C 0.11944 0.19381 0.0658 0.0
C1155 C 0.11145 0.21224 0.07289 0.0
C1156 C 0.1113 0.17904 0.02858 0.0
C1157 C 0.09512 0.18242 0.99719 0.0
C1158 C 0.08739 0.20098 0.00305 0.0
C1159 C 0.09549 0.21577 0.04053 0.0
C1160 C 0.08554 0.16602 0.9614 0.0
C1161 C 0.06572 0.16021 0.97146 0.0
C1162 C 0.09617 0.155 0.92136 0.0
C1163 C 0.11676 0.16122 0.9059 0.0
C1164 C 0.1223 0.18077 0.88921 0.0
C1165 C 0.14171 0.18658 0.87484 0.0
C1166 C 0.15572 0.17295 0.87666 0.0
C1167 C 0.15034 0.15345 0.89274 0.0
C1168 C 0.13094 0.14756 0.9072 0.0
C1169 C 0.03417 0.09882 0.80945 0.0
C1170 C 0.04108 0.08011 0.81593 0.0
C1171 C 0.04261 0.11571 0.83861 0.0
C1172 C 0.05812 0.11413 0.87444 0.0
C1173 C 0.06509 0.09545 0.8807 0.0
C1174 C 0.05656 0.07854 0.85189 0.0
C1175 C 0.06719 0.13197 0.9052 0.0
C1176 C 0.08689 0.13796 0.89431 0.0
C1177 C 0.05643 0.14325 0.94408 0.0
C1178 C 0.03578 0.13716 0.95886 0.0
C1179 C 0.03025 0.11814 0.97943 0.0
C1180 C 0.01074 0.11245 0.993 0.0
C1181 C 0.99664 0.12573 0.98659 0.0
C1182 C 0.00203 0.14474 0.96675 0.0
C1183 C 0.02152 0.15048 0.95305 0.0
H1184 H 0.98155 0.12131 0.99714 0.0
H1185 H 0.17074 0.17748 0.86551 0.0
H1186 H 0.30372 0.03641 0.98327 0.0
H1187 H 0.33089 0.028 0.92079 0.0
H1188 H 0.36453 0.01757 0.06453 0.0
H1189 H 0.33786 0.02627 0.12681 0.0
H1190 H 0.38328 0.04451 0.99309 0.0
H1191 H 0.34815 0.97924 0.98251 0.0
H1192 H 0.31964 0.95517 0.9647 0.0
H1193 H 0.31952 0.97243 0.79348 0.0
H1194 H 0.34788 0.99683 0.81049 0.0
H1195 H 0.46659 0.00879 0.86281 0.0
H1196 H 0.43661 0.00995 0.91972 0.0
H1197 H 0.40447 0.0172 0.77078 0.0
H1198 H 0.43449 0.01664 0.71397 0.0
H1199 H 0.38429 0.99175 0.84189 0.0
H1200 H 0.41752 0.05723 0.8503 0.0
H1201 H 0.44558 0.0822 0.86461 0.0
H1202 H 0.44822 0.06606 0.03631 0.0
H1203 H 0.42034 0.04075 0.02269 0.0
C1204 C 0.31683 0.03206 0.00137 0.0
C1205 C 0.31861 0.03194 0.05991 0.0
C1206 C 0.33225 0.02716 0.96573 0.0
C1207 C 0.34965 0.02216 0.98823 0.0
C1208 C 0.35118 0.02134 0.04646 0.0
C1209 C 0.33583 0.02615 0.08195 0.0
C1210 C 0.36696 0.01952 0.95183 0.0
C1211 C 0.38359 0.03278 0.96058 0.0
C1212 C 0.36706 0.00467 0.90823 0.0
C1213 C 0.35001 0.99002 0.89796 0.0
C1214 C 0.34193 0.97805 0.94121 0.0
C1215 C 0.32582 0.96431 0.93122 0.0
C1216 C 0.31774 0.96231 0.87804 0.0
C1217 C 0.32578 0.97402 0.83468 0.0
C1218 C 0.34188 0.98779 0.84446 0.0
C1219 C 0.45314 0.01072 0.84227 0.0
C1220 C 0.45287 0.01302 0.78409 0.0
C1221 C 0.43605 0.01134 0.87473 0.0
C1222 C 0.41843 0.01405 0.84937 0.0
C1223 C 0.418 0.01545 0.79106 0.0
C1224 C 0.43515 0.01525 0.75877 0.0
C1225 C 0.40067 0.0165 0.88402 0.0
C1226 C 0.38396 0.00339 0.87464 0.0
C1227 C 0.40035 0.03165 0.92672 0.0
C1228 C 0.41699 0.04697 0.9353 0.0
C1229 C 0.42419 0.0589 0.89097 0.0
C1230 C 0.44004 0.07313 0.89898 0.0
C1231 C 0.44871 0.07568 0.95131 0.0
C1232 C 0.4415 0.06405 0.99578 0.0
C1233 C 0.42567 0.04977 0.98795 0.0
H1234 H 0.46098 0.08671 0.95744 0.0
H1235 H 0.30527 0.95166 0.87039 0.0
H1236 H 0.37841 0.3234 0.03029 0.0
H1237 H 0.38944 0.34674 0.95805 0.0
H1238 H 0.4418 0.31689 0.93118 0.0
H1239 H 0.43097 0.29377 0.00477 0.0
H1240 H 0.45142 0.3542 0.93999 0.0
H1241 H 0.40485 0.3154 0.8306 0.0
H1242 H 0.37341 0.29742 0.80508 0.0
H1243 H 0.34625 0.35229 0.81839 0.0
H1244 H 0.37748 0.37058 0.84482 0.0
H1245 H 0.48202 0.41607 0.7151 0.0
H1246 H 0.4677 0.38544 0.75762 0.0
H1247 H 0.42285 0.41792 0.8376 0.0
H1248 H 0.43726 0.44873 0.79565 0.0
H1249 H 0.41051 0.37694 0.7919 0.0
H1250 H 0.4584 0.41375 0.91261 0.0
H1251 H 0.49101 0.43073 0.93004 0.0
H1252 H 0.51696 0.37662 0.88487 0.0
H1253 H 0.48447 0.35938 0.86641 0.0
C1254 C 0.39208 0.32154 0.00814 0.0
C1255 C 0.40382 0.30673 0.02315 0.0
C1256 C 0.39837 0.33488 0.96663 0.0
C1257 C 0.41639 0.33351 0.93847 0.0
C1258 C 0.42786 0.31831 0.95224 0.0
C1259 C 0.42167 0.3051 0.99427 0.0
C1260 C 0.42393 0.34897 0.89844 0.0
C1261 C 0.44256 0.35877 0.90685 0.0
C1262 C 0.4124 0.35528 0.85539 0.0
C1263 C 0.39349 0.34433 0.8403 0.0
C1264 C 0.39214 0.32361 0.82868 0.0
C1265 C 0.37435 0.31336 0.81391 0.0
C1266 C 0.35783 0.32369 0.81027 0.0
C1267 C 0.35906 0.3443 0.8213 0.0
C1268 C 0.3768 0.35462 0.83613 0.0
C1269 C 0.46895 0.41662 0.74112 0.0
C1270 C 0.46088 0.43479 0.7529 0.0
C1271 C 0.46078 0.39912 0.7652 0.0
C1272 C 0.44436 0.39951 0.80108 0.0
C1273 C 0.43553 0.41736 0.80994 0.0
C1274 C 0.4438 0.43494 0.78623 0.0
C1275 C 0.43771 0.38194 0.83413 0.0
C1276 C 0.41932 0.37194 0.82454 0.0
C1277 C 0.44957 0.37514 0.87529 0.0
C1278 C 0.46904 0.38534 0.8876 0.0
C1279 C 0.47107 0.40551 0.90605 0.0
C1280 C 0.48952 0.41518 0.91616 0.0
C1281 C 0.50604 0.40478 0.90841 0.0
C1282 C 0.50414 0.38466 0.89078 0.0
C1283 C 0.48571 0.37493 0.88053 0.0
H1284 H 0.52031 0.4123 0.9162 0.0
H1285 H 0.34408 0.31574 0.79878 0.0
H1286 H 0.20784 0.57843 0.04561 0.0
H1287 H 0.18038 0.58053 0.98445 0.0
H1288 H 0.19011 0.52329 0.90708 0.0
H1289 H 0.21665 0.52033 0.9699 0.0
H1290 H 0.17422 0.555 0.83377 0.0
H1291 H 0.16416 0.51824 0.00981 0.0
H1292 H 0.16788 0.51722 0.11216 0.0
H1293 H 0.13633 0.56904 0.13681 0.0
H1294 H 0.13281 0.57058 0.03438 0.0
H1295 H 0.08741 0.50124 0.75122 0.0
H1296 H 0.11892 0.5135 0.78932 0.0
H1297 H 0.09075 0.55452 0.90131 0.0
H1298 H 0.05905 0.54178 0.8638 0.0
H1299 H 0.11605 0.5382 0.95593 0.0
H1300 H 0.11792 0.56992 0.78378 0.0
H1301 H 0.11518 0.57405 0.68227 0.0
H1302 H 0.16172 0.53691 0.64849 0.0
H1303 H 0.16443 0.53205 0.74978 0.0
C1304 C 0.20441 0.56641 0.01497 0.0
C1305 C 0.21418 0.54892 0.01417 0.0
C1306 C 0.18886 0.5678 0.97951 0.0
C1307 C 0.18317 0.55197 0.94181 0.0
C1308 C 0.1944 0.5357 0.93581 0.0
C1309 C 0.20967 0.53409 0.97196 0.0
C1310 C 0.16353 0.55018 0.91805 0.0
C1311 C 0.16143 0.55131 0.86007 0.0
C1312 C 0.14691 0.54602 0.95301 0.0
C1313 C 0.1484 0.54465 0.01455 0.0
C1314 C 0.15813 0.52948 0.03707 0.0
C1315 C 0.1602 0.52881 0.09506 0.0
C1316 C 0.15238 0.54308 0.13097 0.0
C1317 C 0.14241 0.55801 0.10894 0.0
C1318 C 0.14038 0.5588 0.05094 0.0
C1319 C 0.088 0.51288 0.78386 0.0
C1320 C 0.07092 0.52062 0.80452 0.0
C1321 C 0.10601 0.52001 0.80535 0.0
C1322 C 0.1073 0.53528 0.84736 0.0
C1323 C 0.09014 0.54283 0.86866 0.0
C1324 C 0.07206 0.53552 0.84744 0.0
C1325 C 0.12649 0.54253 0.87077 0.0
C1326 C 0.1286 0.54231 0.92906 0.0
C1327 C 0.143 0.54791 0.83589 0.0
C1328 C 0.14131 0.55053 0.77463 0.0
C1329 C 0.12745 0.56244 0.75478 0.0
C1330 C 0.12591 0.56493 0.69723 0.0
C1331 C 0.13832 0.55581 0.65902 0.0
C1332 C 0.15218 0.54403 0.67822 0.0
C1333 C 0.1537 0.54137 0.73572 0.0
H1334 H 0.13721 0.55791 0.61457 0.0
H1335 H 0.15401 0.54255 0.17585 0.0
H1336 H 0.89262 0.80888 0.33977 0.0
H1337 H 0.89825 0.83601 0.41063 0.0
H1338 H 0.95952 0.82799 0.40589 0.0
H1339 H 0.95425 0.80146 0.33449 0.0
H1340 H 0.94614 0.83759 0.51277 0.0
H1341 H 0.94319 0.86054 0.32337 0.0
H1342 H 0.92741 0.86342 0.23297 0.0
H1343 H 0.88016 0.89025 0.31799 0.0
H1344 H 0.89554 0.88724 0.40906 0.0
H1345 H 0.99805 0.92976 0.57813 0.0
H1346 H 0.98376 0.89825 0.53679 0.0
H1347 H 0.92772 0.92189 0.53593 0.0
H1348 H 0.94238 0.95395 0.57461 0.0
H1349 H 0.93306 0.90328 0.44272 0.0
H1350 H 0.94085 0.88576 0.63224 0.0
H1351 H 0.95835 0.88322 0.72025 0.0
H1352 H 0.99777 0.84602 0.63438 0.0
H1353 H 0.98082 0.84874 0.54586 0.0
C1354 C 0.90726 0.8127 0.35438 0.0
C1355 C 0.92299 0.80307 0.33079 0.0
C1356 C 0.91042 0.82813 0.39505 0.0
C1357 C 0.92934 0.83414 0.41288 0.0
C1358 C 0.9448 0.82354 0.39282 0.0
C1359 C 0.94169 0.80824 0.35202 0.0
C1360 C 0.93362 0.85279 0.44712 0.0
C1361 C 0.94328 0.852 0.49775 0.0
C1362 C 0.92956 0.8715 0.42773 0.0
C1363 C 0.92037 0.87342 0.37303 0.0
C1364 C 0.92935 0.8669 0.32281 0.0
C1365 C 0.9205 0.86857 0.27146 0.0
C1366 C 0.90276 0.87695 0.26976 0.0
C1367 C 0.89387 0.88372 0.3194 0.0
C1368 C 0.90265 0.88203 0.37088 0.0
C1369 C 0.98267 0.9282 0.56922 0.0
C1370 C 0.97127 0.9442 0.57953 0.0
C1371 C 0.97444 0.9101 0.54616 0.0
C1372 C 0.95451 0.90743 0.53456 0.0
C1373 C 0.9431 0.9235 0.54487 0.0
C1374 C 0.95144 0.94179 0.56695 0.0
C1375 C 0.94593 0.88827 0.50854 0.0
C1376 C 0.93552 0.88894 0.45904 0.0
C1377 C 0.94946 0.86947 0.52894 0.0
C1378 C 0.95957 0.86758 0.58238 0.0
C1379 C 0.95331 0.87716 0.63218 0.0
C1380 C 0.96312 0.87568 0.6821 0.0
C1381 C 0.97913 0.86447 0.68287 0.0
C1382 C 0.98536 0.8547 0.63374 0.0
C1383 C 0.97564 0.85621 0.58369 0.0
H1384 H 0.98671 0.86333 0.72154 0.0
H1385 H 0.89593 0.87824 0.22996 0.0
H1386 H 0.70823 0.01006 0.40001 0.0
H1387 H 0.67794 0.0085 0.45715 0.0
H1388 H 0.64624 0.9815 0.31613 0.0
H1389 H 0.67642 0.98258 0.25941 0.0
H1390 H 0.63382 0.02037 0.37436 0.0
H1391 H 0.64849 0.95238 0.40391 0.0
H1392 H 0.66965 0.92725 0.43262 0.0
H1393 H 0.67279 0.95479 0.59805 0.0
H1394 H 0.65188 0.98029 0.57002 0.0
H1395 H 0.53957 0.00468 0.49709 0.0
H1396 H 0.56988 0.00159 0.44299 0.0
H1397 H 0.60128 0.0018 0.59714 0.0
H1398 H 0.57085 0.00355 0.65092 0.0
H1399 H 0.61458 0.97613 0.53153 0.0
H1400 H 0.6018 0.04382 0.50921 0.0
H1401 H 0.58272 0.07144 0.48604 0.0
H1402 H 0.57873 0.0487 0.31558 0.0
H1403 H 0.59757 0.02078 0.33791 0.0
C1404 C 0.69484 0.00341 0.38181 0.0
C1405 C 0.69459 0.99629 0.32565 0.0
C1406 C 0.67763 0.00255 0.41427 0.0
C1407 C 0.65999 0.99491 0.39054 0.0
C1408 C 0.65979 0.98738 0.33496 0.0
C1409 C 0.67701 0.98786 0.30289 0.0
C1410 C 0.64151 0.99607 0.42241 0.0
C1411 C 0.6294 0.01057 0.40833 0.0
C1412 C 0.63631 0.98374 0.46779 0.0
C1413 C 0.64882 0.96837 0.48466 0.0
C1414 C 0.65386 0.95321 0.44622 0.0
C1415 C 0.66577 0.93887 0.46241 0.0
C1416 C 0.67261 0.93946 0.51707 0.0
C1417 C 0.66751 0.95437 0.5557 0.0
C1418 C 0.65562 0.96876 0.53969 0.0
C1419 C 0.55298 0.00407 0.51917 0.0
C1420 C 0.55296 0.00433 0.57796 0.0
C1421 C 0.57031 0.00242 0.48836 0.0
C1422 C 0.58799 0.0018 0.51593 0.0
C1423 C 0.58788 0.00218 0.57481 0.0
C1424 C 0.5705 0.00324 0.60551 0.0
C1425 C 0.60657 0.00051 0.48367 0.0
C1426 C 0.61883 0.98601 0.49765 0.0
C1427 C 0.61217 0.01326 0.43907 0.0
C1428 C 0.60093 0.0301 0.42538 0.0
C1429 C 0.59674 0.04464 0.46687 0.0
C1430 C 0.58599 0.06036 0.45388 0.0
C1431 C 0.57947 0.06179 0.39941 0.0
C1432 C 0.58376 0.04755 0.35777 0.0
C1433 C 0.59449 0.03179 0.37056 0.0
H1434 H 0.57114 0.07397 0.38944 0.0
H1435 H 0.68182 0.92834 0.52953 0.0
H1436 H 0.57639 0.73004 0.44111 0.0
H1437 H 0.57417 0.70348 0.50861 0.0
H1438 H 0.6027 0.66559 0.38869 0.0
H1439 H 0.60466 0.69177 0.32093 0.0
H1440 H 0.55286 0.66879 0.48961 0.0
H1441 H 0.62502 0.6309 0.45475 0.0
H1442 H 0.65999 0.64084 0.43954 0.0
H1443 H 0.65328 0.69792 0.52094 0.0
H1444 H 0.61833 0.68824 0.5374 0.0
H1445 H 0.54213 0.56536 0.50353 0.0
H1446 H 0.55541 0.59842 0.47487 0.0
H1447 H 0.57586 0.61253 0.64217 0.0
H1448 H 0.56223 0.57939 0.67161 0.0
H1449 H 0.60288 0.625 0.54205 0.0
H1450 H 0.53922 0.63028 0.62473 0.0
H1451 H 0.50449 0.61888 0.63822 0.0
H1452 H 0.49448 0.62844 0.4651 0.0
H1453 H 0.52931 0.63917 0.44993 0.0
C1454 C 0.58252 0.71618 0.42948 0.0
C1455 C 0.59055 0.71302 0.3753 0.0
C1456 C 0.58129 0.70105 0.4682 0.0
C1457 C 0.58827 0.68254 0.45377 0.0
C1458 C 0.59749 0.67984 0.40119 0.0
C1459 C 0.59865 0.69491 0.3624 0.0
C1460 C 0.58357 0.6652 0.48985 0.0
C1461 C 0.56387 0.65944 0.50189 0.0
C1462 C 0.59791 0.65299 0.50617 0.0
C1463 C 0.61899 0.65886 0.49702 0.0
C1464 C 0.63101 0.64553 0.46973 0.0
C1465 C 0.65084 0.65113 0.46081 0.0
C1466 C 0.65885 0.67001 0.47916 0.0
C1467 C 0.64705 0.68332 0.50659 0.0
C1468 C 0.62722 0.67779 0.51564 0.0
C1469 C 0.5497 0.57538 0.53404 0.0
C1470 C 0.55113 0.56989 0.58977 0.0
C1471 C 0.55727 0.59422 0.51761 0.0
C1472 C 0.56654 0.60785 0.55648 0.0
C1473 C 0.56882 0.60213 0.61161 0.0
C1474 C 0.56101 0.58327 0.62832 0.0
C1475 C 0.57228 0.62853 0.53982 0.0
C1476 C 0.59204 0.63474 0.53105 0.0
C1477 C 0.55803 0.64126 0.52668 0.0
C1478 C 0.53694 0.63541 0.53611 0.0
C1479 C 0.52966 0.62981 0.5894 0.0
C1480 C 0.50995 0.62348 0.59738 0.0
C1481 C 0.49728 0.623 0.55262 0.0
C1482 C 0.50431 0.62883 0.49975 0.0
C1483 C 0.52405 0.63501 0.49141 0.0
H1484 H 0.48202 0.6181 0.55892 0.0
H1485 H 0.6742 0.67433 0.47219 0.0
H1486 H 0.79524 0.48375 0.30412 0.0
H1487 H 0.82248 0.49333 0.36583 0.0
H1488 H 0.82688 0.43152 0.39884 0.0
H1489 H 0.8004 0.42161 0.33513 0.0
H1490 H 0.83165 0.46074 0.4967 0.0
H1491 H 0.85521 0.44723 0.3064 0.0
H1492 H 0.85583 0.45149 0.20418 0.0
H1493 H 0.87171 0.51429 0.22999 0.0
H1494 H 0.87086 0.51045 0.33254 0.0
H1495 H 0.92922 0.46141 0.58697 0.0
H1496 H 0.89767 0.45425 0.54231 0.0
H1497 H 0.90338 0.51307 0.47485 0.0
H1498 H 0.93505 0.52009 0.51845 0.0
H1499 H 0.89218 0.48674 0.39675 0.0
H1500 H 0.87267 0.50052 0.5856 0.0
H1501 H 0.87025 0.4979 0.6883 0.0
H1502 H 0.84519 0.43733 0.66866 0.0
H1503 H 0.84807 0.43933 0.5658 0.0
C1504 C 0.80193 0.47215 0.32452 0.0
C1505 C 0.79571 0.45186 0.31384 0.0
C1506 C 0.81737 0.47769 0.36019 0.0
C1507 C 0.82669 0.4631 0.38649 0.0
C1508 C 0.81976 0.44298 0.37906 0.0
C1509 C 0.80452 0.43738 0.34273 0.0
C1510 C 0.84485 0.46862 0.41705 0.0
C1511 C 0.84499 0.46624 0.47509 0.0
C1512 C 0.86199 0.47629 0.38866 0.0
C1513 C 0.86275 0.47859 0.32709 0.0
C1514 C 0.85866 0.46198 0.29029 0.0
C1515 C 0.85908 0.4643 0.23233 0.0
C1516 C 0.86374 0.48315 0.21066 0.0
C1517 C 0.86806 0.49971 0.24688 0.0
C1518 C 0.86762 0.49747 0.30492 0.0
C1519 C 0.92372 0.47276 0.5625 0.0
C1520 C 0.93456 0.49125 0.55577 0.0
C1521 C 0.90563 0.46874 0.53742 0.0
C1522 C 0.89806 0.4832 0.50566 0.0
C1523 C 0.90893 0.50169 0.49914 0.0
C1524 C 0.927 0.50569 0.52402 0.0
C1525 C 0.87923 0.47882 0.47707 0.0
C1526 C 0.87892 0.48135 0.41899 0.0
C1527 C 0.86192 0.4715 0.50579 0.0
C1528 C 0.86078 0.47002 0.56779 0.0
C1529 C 0.86691 0.48654 0.60309 0.0
C1530 C 0.86542 0.48518 0.66139 0.0
C1531 C 0.85756 0.46747 0.68499 0.0
C1532 C 0.85125 0.45106 0.65031 0.0
C1533 C 0.85289 0.45226 0.592 0.0
H1534 H 0.85639 0.46645 0.73014 0.0
H1535 H 0.86404 0.4849 0.16582 0.0
loop_
_geom_bond_atom_site_label_1
_geom_bond_atom_site_label_2
_geom_bond_distance
_geom_bond_site_symmetry_2
_ccdc_geom_bond_type
P0 O11 1.490 . S
P0 C14 1.812 . S
P0 C20 1.803 . S
P0 C26 1.819 . S
H1 C15 0.941 . S
H2 C16 0.939 . S
H3 C18 0.940 . S
H4 C19 0.940 . S
H5 C21 0.939 . S
H6 C22 0.942 1_556 S
H7 C24 0.940 . S
H8 C25 0.939 . S
H9 C27 0.941 . S
H10 C31 0.939 . S
O11 P0 1.490 . S
H12 C28 0.939 . S
H13 C30 0.940 . S
C14 P0 1.812 . S
C14 C15 1.389 . S
C14 C19 1.391 . S
C15 H1 0.941 . S
C15 C14 1.389 . S
C15 C16 1.397 . S
C16 H2 0.939 . S
C16 C15 1.397 . S
C16 C17 1.378 . S
C17 C16 1.378 . S
C17 C18 1.378 . S
C18 H3 0.940 . S
C18 C17 1.378 . S
C18 C19 1.396 . S
C19 H4 0.940 . S
C19 C14 1.391 . S
C19 C18 1.396 . S
C20 P0 1.803 . S
C20 C21 1.378 . S
C20 C25 1.400 . S
C21 H5 0.939 . S
C21 C20 1.378 . S
C21 C22 1.361 . S
C22 H6 0.942 1_554 S
C22 C21 1.361 . S
C22 C23 1.369 . S
C23 C22 1.369 . S
C23 C24 1.404 . S
C24 H7 0.940 . S
C24 C23 1.404 . S
C24 C25 1.389 . S
C25 H8 0.939 . S
C25 C20 1.400 . S
C25 C24 1.389 . S
C26 P0 1.819 . S
C26 C27 1.391 . S
C26 C31 1.391 1_554 S
C27 H9 0.941 . S
C27 C26 1.391 . S
C27 C28 1.396 1_554 S
C28 H12 0.939 . S
C28 C27 1.396 1_556 S
C28 C29 1.397 . S
C29 C28 1.397 . S
C29 C30 1.385 . S
C30 H13 0.940 . S
C30 C29 1.385 . S
C30 C31 1.388 . S
C31 H10 0.939 . S
C31 C26 1.391 1_556 S
C31 C30 1.388 . S
P32 O43 1.490 . S
P32 C46 1.812 . S
P32 C52 1.803 . S
P32 C58 1.819 1_554 S
H33 C47 0.941 . S
H34 C48 0.939 . S
H35 C50 0.940 . S
H36 C51 0.940 . S
H37 C53 0.939 . S
H38 C54 0.942 . S
H39 C56 0.940 . S
H40 C57 0.939 . S
H41 C59 0.941 1_554 S
H42 C63 0.939 . S
O43 P32 1.490 . S
H44 C60 0.939 . S
H45 C62 0.940 . S
C46 P32 1.812 . S
C46 C47 1.389 . S
C46 C51 1.391 . S
C47 H33 0.941 . S
C47 C46 1.389 . S
C47 C48 1.397 . S
C48 H34 0.939 . S
C48 C47 1.397 . S
C48 C49 1.378 . S
C49 C48 1.378 . S
C49 C50 1.378 . S
C50 H35 0.940 . S
C50 C49 1.378 . S
C50 C51 1.396 . S
C51 H36 0.940 . S
C51 C46 1.391 . S
C51 C50 1.396 . S
C52 P32 1.803 . S
C52 C53 1.378 1_554 S
C52 C57 1.400 . S
C53 H37 0.939 . S
C53 C52 1.378 1_556 S
C53 C54 1.361 . S
C54 H38 0.942 . S
C54 C53 1.361 . S
C54 C55 1.369 . S
C55 C54 1.369 . S
C55 C56 1.404 1_556 S
C56 H39 0.940 . S
C56 C55 1.404 1_554 S
C56 C57 1.389 . S
C57 H40 0.939 . S
C57 C52 1.400 . S
C57 C56 1.389 . S
C58 P32 1.819 1_556 S
C58 C59 1.391 . S
C58 C63 1.391 . S
C59 H41 0.941 1_556 S
C59 C58 1.391 . S
C59 C60 1.396 . S
C60 H44 0.939 . S
C60 C59 1.396 . S
C60 C61 1.397 . S
C61 C60 1.397 . S
C61 C62 1.385 . S
C62 H45 0.940 . S
C62 C61 1.385 . S
C62 C63 1.388 . S
C63 H42 0.939 . S
C63 C58 1.391 . S
C63 C62 1.388 . S
P64 O75 1.490 . S
P64 C78 1.812 . S
P64 C84 1.803 . S
P64 C90 1.819 . S
H65 C79 0.941 . S
H66 C80 0.939 . S
H67 C82 0.940 . S
H68 C83 0.949 . S
H69 C85 0.939 . S
H70 C86 0.942 . S
H71 C88 0.940 . S
H72 C89 0.958 . S
H73 C91 0.941 . S
H74 C95 0.926 1_565 S
O75 P64 1.490 . S
H76 C92 0.939 . S
H77 C94 0.940 . S
C78 P64 1.812 . S
C78 C79 1.389 . S
C78 C83 1.376 1_545 S
C79 H65 0.941 . S
C79 C78 1.389 . S
C79 C80 1.397 . S
C80 H66 0.939 . S
C80 C79 1.397 . S
C80 C81 1.378 . S
C81 C80 1.378 . S
C81 C82 1.378 1_545 S
C82 H67 0.940 . S
C82 C81 1.378 1_565 S
C82 C83 1.403 . S
C83 H68 0.949 . S
C83 C78 1.376 1_565 S
C83 C82 1.403 . S
C84 P64 1.803 . S
C84 C85 1.378 . S
C84 C89 1.367 1_545 S
C85 H69 0.939 . S
C85 C84 1.378 . S
C85 C86 1.361 . S
C86 H70 0.942 . S
C86 C85 1.361 . S
C86 C87 1.369 . S
C87 C86 1.369 . S
C87 C88 1.404 1_545 S
C88 H71 0.940 . S
C88 C87 1.404 1_565 S
C88 C89 1.404 . S
C89 H72 0.958 . S
C89 C84 1.367 1_565 S
C89 C88 1.404 . S
C90 P64 1.819 . S
C90 C91 1.391 . S
C90 C95 1.391 . S
C91 H73 0.941 . S
C91 C90 1.391 . S
C91 C92 1.396 . S
C92 H76 0.939 . S
C92 C91 1.396 . S
C92 C93 1.397 1_554 S
C93 C92 1.397 1_556 S
C93 C94 1.385 1_545 S
C94 H77 0.940 . S
C94 C93 1.385 1_565 S
C94 C95 1.388 1_566 S
C95 H74 0.926 1_545 S
C95 C90 1.391 . S
C95 C94 1.388 1_544 S
P96 O107 1.490 . S
P96 C110 1.812 . S
P96 C116 1.803 . S
P96 C122 1.819 . S
H97 C111 0.941 . S
H98 C112 0.939 . S
H99 C114 0.940 . S
H100 C115 0.940 . S
H101 C117 0.939 . S
H102 C118 0.942 . S
H103 C120 0.940 . S
H104 C121 0.939 . S
H105 C123 0.941 . S
H106 C127 0.939 . S
O107 P96 1.490 . S
H108 C124 0.939 . S
H109 C126 0.940 . S
C110 P96 1.812 . S
C110 C111 1.389 . S
C110 C115 1.391 . S
C111 H97 0.941 . S
C111 C110 1.389 . S
C111 C112 1.397 . S
C112 H98 0.939 . S
C112 C111 1.397 . S
C112 C113 1.378 . S
C113 C112 1.378 . S
C113 C114 1.378 . S
C114 H99 0.940 . S
C114 C113 1.378 . S
C114 C115 1.396 . S
C115 H100 0.940 . S
C115 C110 1.391 . S
C115 C114 1.396 . S
C116 P96 1.803 . S
C116 C117 1.378 . S
C116 C121 1.400 . S
C117 H101 0.939 . S
C117 C116 1.378 . S
C117 C118 1.361 . S
C118 H102 0.942 . S
C118 C117 1.361 . S
C118 C119 1.369 . S
C119 C118 1.369 . S
C119 C120 1.404 . S
C120 H103 0.940 . S
C120 C119 1.404 . S
C120 C121 1.389 . S
C121 H104 0.939 . S
C121 C116 1.400 . S
C121 C120 1.389 . S
C122 P96 1.819 . S
C122 C123 1.391 . S
C122 C127 1.386 1_554 S
C123 H105 0.941 . S
C123 C122 1.391 . S
C123 C124 1.396 1_554 S
C124 H108 0.939 . S
C124 C123 1.396 1_556 S
C124 C125 1.397 . S
C125 C124 1.397 . S
C125 C126 1.385 . S
C126 H109 0.940 . S
C126 C125 1.385 . S
C126 C127 1.393 . S
C127 H106 0.939 . S
C127 C122 1.386 1_556 S
C127 C126 1.393 . S
P128 O139 1.490 . S
P128 C142 1.812 . S
P128 C148 1.803 . S
P128 C154 1.819 . S
H129 C143 0.941 . S
H130 C144 0.939 . S
H131 C146 0.940 . S
H132 C147 0.940 . S
H133 C149 0.939 . S
H134 C150 0.942 . S
H135 C152 0.940 . S
H136 C153 0.939 . S
H137 C155 0.941 . S
H138 C159 0.939 . S
O139 P128 1.490 . S
H140 C156 0.939 . S
H141 C158 0.940 . S
C142 P128 1.812 . S
C142 C143 1.389 . S
C142 C147 1.391 . S
C143 H129 0.941 . S
C143 C142 1.389 . S
C143 C144 1.397 . S
C144 H130 0.939 . S
C144 C143 1.397 . S
C144 C145 1.378 . S
C145 C144 1.378 . S
C145 C146 1.378 . S
C146 H131 0.940 . S
C146 C145 1.378 . S
C146 C147 1.396 . S
C147 H132 0.940 . S
C147 C142 1.391 . S
C147 C146 1.396 . S
C148 P128 1.803 . S
C148 C149 1.378 . S
C148 C153 1.400 . S
C149 H133 0.939 . S
C149 C148 1.378 . S
C149 C150 1.361 . S
C150 H134 0.942 . S
C150 C149 1.361 . S
C150 C151 1.369 . S
C151 C150 1.369 . S
C151 C152 1.404 . S
C152 H135 0.940 . S
C152 C151 1.404 . S
C152 C153 1.389 . S
C153 H136 0.939 . S
C153 C148 1.400 . S
C153 C152 1.389 . S
C154 P128 1.819 . S
C154 C155 1.391 . S
C154 C159 1.391 . S
C155 H137 0.941 . S
C155 C154 1.391 . S
C155 C156 1.396 . S
C156 H140 0.939 . S
C156 C155 1.396 . S
C156 C157 1.397 . S
C157 C156 1.397 . S
C157 C158 1.385 . S
C158 H141 0.940 . S
C158 C157 1.385 . S
C158 C159 1.388 . S
C159 H138 0.939 . S
C159 C154 1.391 . S
C159 C158 1.388 . S
P160 O171 1.490 . S
P160 C174 1.812 . S
P160 C180 1.803 . S
P160 C186 1.819 . S
H161 C175 0.941 . S
H162 C176 0.939 . S
H163 C178 0.940 . S
H164 C179 0.940 . S
H165 C181 0.939 . S
H166 C182 0.942 . S
H167 C184 0.940 . S
H168 C185 0.939 . S
H169 C187 0.941 . S
H170 C191 0.939 . S
O171 P160 1.490 . S
H172 C188 0.939 . S
H173 C190 0.940 . S
C174 P160 1.812 . S
C174 C175 1.389 . S
C174 C179 1.391 . S
C175 H161 0.941 . S
C175 C174 1.389 . S
C175 C176 1.397 . S
C176 H162 0.939 . S
C176 C175 1.397 . S
C176 C177 1.378 . S
C177 C176 1.378 . S
C177 C178 1.378 . S
C178 H163 0.940 . S
C178 C177 1.378 . S
C178 C179 1.396 . S
C179 H164 0.940 . S
C179 C174 1.391 . S
C179 C178 1.396 . S
C180 P160 1.803 . S
C180 C181 1.378 . S
C180 C185 1.400 . S
C181 H165 0.939 . S
C181 C180 1.378 . S
C181 C182 1.361 . S
C182 H166 0.942 . S
C182 C181 1.361 . S
C182 C183 1.369 . S
C183 C182 1.369 . S
C183 C184 1.404 . S
C184 H167 0.940 . S
C184 C183 1.404 . S
C184 C185 1.389 . S
C185 H168 0.939 . S
C185 C180 1.400 . S
C185 C184 1.389 . S
C186 P160 1.819 . S
C186 C187 1.391 . S
C186 C191 1.391 . S
C187 H169 0.941 . S
C187 C186 1.391 . S
C187 C188 1.396 . S
C188 H172 0.939 . S
C188 C187 1.396 . S
C188 C189 1.397 . S
C189 C188 1.397 . S
C189 C190 1.385 . S
C190 H173 0.940 . S
C190 C189 1.385 . S
C190 C191 1.388 . S
C191 H170 0.939 . S
C191 C186 1.391 . S
C191 C190 1.388 . S
P192 O203 1.490 . S
P192 C206 1.812 . S
P192 C212 1.803 . S
P192 C218 1.819 . S
H193 C207 0.941 . S
H194 C208 0.939 . S
H195 C210 0.940 1_565 S
H196 C211 0.940 . S
H197 C213 0.939 . S
H198 C214 0.942 . S
H199 C216 0.940 1_565 S
H200 C217 0.939 . S
H201 C219 0.941 . S
H202 C223 0.939 . S
O203 P192 1.490 . S
H204 C220 0.939 . S
H205 C222 0.940 . S
C206 P192 1.812 . S
C206 C207 1.389 . S
C206 C211 1.391 . S
C207 H193 0.941 . S
C207 C206 1.389 . S
C207 C208 1.397 . S
C208 H194 0.939 . S
C208 C207 1.397 . S
C208 C209 1.378 . S
C209 C208 1.378 . S
C209 C210 1.378 . S
C210 H195 0.940 1_545 S
C210 C209 1.378 . S
C210 C211 1.396 . S
C211 H196 0.940 . S
C211 C206 1.391 . S
C211 C210 1.396 . S
C212 P192 1.803 . S
C212 C213 1.378 . S
C212 C217 1.400 . S
C213 H197 0.939 . S
C213 C212 1.378 . S
C213 C214 1.361 . S
C214 H198 0.942 . S
C214 C213 1.361 . S
C214 C215 1.369 . S
C215 C214 1.369 . S
C215 C216 1.404 . S
C216 H199 0.940 1_545 S
C216 C215 1.404 . S
C216 C217 1.389 . S
C217 H200 0.939 . S
C217 C212 1.400 . S
C217 C216 1.389 . S
C218 P192 1.819 . S
C218 C219 1.391 . S
C218 C223 1.391 . S
C219 H201 0.941 . S
C219 C218 1.391 . S
C219 C220 1.396 . S
C220 H204 0.939 . S
C220 C219 1.396 . S
C220 C221 1.397 . S
C221 C220 1.397 . S
C221 C222 1.385 . S
C222 H205 0.940 . S
C222 C221 1.385 . S
C222 C223 1.388 . S
C223 H202 0.939 . S
C223 C218 1.391 . S
C223 C222 1.388 . S
P224 O235 1.490 . S
P224 C238 1.812 . S
P224 C244 1.803 . S
P224 C250 1.819 . S
H225 C239 0.941 . S
H226 C240 0.939 . S
H227 C242 0.940 . S
H228 C243 0.940 . S
H229 C245 0.939 . S
H230 C246 0.942 . S
H231 C248 0.940 . S
H232 C249 0.939 . S
H233 C251 0.941 . S
H234 C255 0.939 . S
O235 P224 1.490 . S
H236 C252 0.939 . S
H237 C254 0.940 . S
C238 P224 1.812 . S
C238 C239 1.389 . S
C238 C243 1.391 . S
C239 H225 0.941 . S
C239 C238 1.389 . S
C239 C240 1.397 . S
C240 H226 0.939 . S
C240 C239 1.397 . S
C240 C241 1.378 . S
C241 C240 1.378 . S
C241 C242 1.378 . S
C242 H227 0.940 . S
C242 C241 1.378 . S
C242 C243 1.396 . S
C243 H228 0.940 . S
C243 C238 1.391 . S
C243 C242 1.396 . S
C244 P224 1.803 . S
C244 C245 1.378 . S
C244 C249 1.400 . S
C245 H229 0.939 . S
C245 C244 1.378 . S
C245 C246 1.361 . S
C246 H230 0.942 . S
C246 C245 1.361 . S
C246 C247 1.369 . S
C247 C246 1.369 . S
C247 C248 1.404 . S
C248 H231 0.940 . S
C248 C247 1.404 . S
C248 C249 1.389 . S
C249 H232 0.939 . S
C249 C244 1.400 . S
C249 C248 1.389 . S
C250 P224 1.819 . S
C250 C251 1.391 . S
C250 C255 1.391 . S
C251 H233 0.941 . S
C251 C250 1.391 . S
C251 C252 1.396 . S
C252 H236 0.939 . S
C252 C251 1.396 . S
C252 C253 1.397 . S
C253 C252 1.397 . S
C253 C254 1.385 . S
C254 H237 0.940 . S
C254 C253 1.385 . S
C254 C255 1.388 . S
C255 H234 0.939 . S
C255 C250 1.391 . S
C255 C254 1.388 . S
Tb256 O259 2.453 1_655 S
Tb256 O260 2.596 1_655 S
Tb256 O261 2.374 1_645 S
Tb256 O269 2.343 1_545 S
Tb256 O271 2.353 . S
Tb256 O273 2.427 1_545 S
Tb256 O274 2.513 1_545 S
C257 O261 1.251 1_545 S
C257 O263 1.263 . S
Tb258 O260 2.343 . S
Tb258 O263 2.353 . S
Tb258 O266 2.427 . S
Tb258 O267 2.513 . S
Tb258 O268 2.453 1_545 S
Tb258 O269 2.596 1_445 S
Tb258 O270 2.374 1_455 S
O259 Tb256 2.453 1_455 S
O259 C275 1.245 . S
O260 Tb256 2.596 1_455 S
O260 Tb258 2.343 . S
O260 C275 1.259 . S
O261 Tb256 2.374 1_465 S
O261 C257 1.251 1_565 S
C262 O266 1.275 . S
C262 O267 1.246 . S
O263 C257 1.263 . S
O263 Tb258 2.353 . S
C264 O268 1.245 1_655 S
C264 O269 1.259 . S
C265 O270 1.250 . S
C265 O271 1.263 . S
O266 Tb258 2.427 . S
O266 C262 1.275 . S
O267 Tb258 2.513 . S
O267 C262 1.246 . S
O268 Tb258 2.453 1_565 S
O268 C264 1.245 1_455 S
O269 Tb256 2.343 1_565 S
O269 Tb258 2.596 1_665 S
O269 C264 1.259 . S
O270 Tb258 2.374 1_655 S
O270 C265 1.250 . S
O271 Tb256 2.353 . S
O271 C265 1.263 . S
C272 O273 1.275 . S
C272 O274 1.246 . S
O273 Tb256 2.427 1_565 S
O273 C272 1.275 . S
O274 Tb256 2.513 1_565 S
O274 C272 1.246 . S
C275 O259 1.245 . S
C275 O260 1.259 . S
Tb276 O279 2.453 . S
Tb276 O280 2.596 . S
Tb276 O281 2.374 . S
Tb276 O289 2.343 . S
Tb276 O291 2.353 . S
Tb276 O293 2.427 . S
Tb276 O294 2.513 . S
C277 O281 1.251 . S
C277 O283 1.263 1_545 S
Tb278 O280 2.343 1_565 S
Tb278 O283 2.353 . S
Tb278 O286 2.427 . S
Tb278 O287 2.513 . S
Tb278 O288 2.453 . S
Tb278 O289 2.596 1_565 S
Tb278 O290 2.374 . S
O279 Tb276 2.453 . S
O279 C295 1.245 . S
O280 Tb276 2.596 . S
O280 Tb278 2.343 1_545 S
O280 C295 1.259 . S
O281 Tb276 2.374 . S
O281 C277 1.251 . S
C282 O286 1.275 . S
C282 O287 1.246 . S
O283 C277 1.263 1_565 S
O283 Tb278 2.353 . S
C284 O288 1.245 1_545 S
C284 O289 1.259 . S
C285 O290 1.250 1_545 S
C285 O291 1.263 . S
O286 Tb278 2.427 . S
O286 C282 1.275 . S
O287 Tb278 2.513 . S
O287 C282 1.246 . S
O288 Tb278 2.453 . S
O288 C284 1.245 1_565 S
O289 Tb276 2.343 . S
O289 Tb278 2.596 1_545 S
O289 C284 1.259 . S
O290 Tb278 2.374 . S
O290 C285 1.250 1_565 S
O291 Tb276 2.353 . S
O291 C285 1.263 . S
C292 O293 1.275 . S
C292 O294 1.246 . S
O293 Tb276 2.427 . S
O293 C292 1.275 . S
O294 Tb276 2.513 . S
O294 C292 1.246 . S
C295 O279 1.245 . S
C295 O280 1.259 . S
Tb296 O299 2.453 . S
Tb296 O300 2.596 . S
Tb296 O301 2.374 . S
Tb296 O309 2.343 . S
Tb296 O311 2.353 . S
Tb296 O313 2.427 . S
Tb296 O314 2.513 . S
C297 O301 1.251 . S
C297 O303 1.263 . S
Tb298 O300 2.343 . S
Tb298 O303 2.353 . S
Tb298 O306 2.427 . S
Tb298 O307 2.513 . S
Tb298 O308 2.453 . S
Tb298 O309 2.596 . S
Tb298 O310 2.374 . S
O299 Tb296 2.453 . S
O299 C315 1.245 . S
O300 Tb296 2.596 . S
O300 Tb298 2.343 . S
O300 C315 1.259 . S
O301 Tb296 2.374 . S
O301 C297 1.251 . S
C302 O306 1.275 . S
C302 O307 1.246 . S
O303 C297 1.263 . S
O303 Tb298 2.353 . S
C304 O308 1.245 . S
C304 O309 1.259 . S
C305 O310 1.250 . S
C305 O311 1.263 . S
O306 Tb298 2.427 . S
O306 C302 1.275 . S
O307 Tb298 2.513 . S
O307 C302 1.246 . S
O308 Tb298 2.453 . S
O308 C304 1.245 . S
O309 Tb296 2.343 . S
O309 Tb298 2.596 . S
O309 C304 1.259 . S
O310 Tb298 2.374 . S
O310 C305 1.250 . S
O311 Tb296 2.353 . S
O311 C305 1.263 . S
C312 O313 1.275 . S
C312 O314 1.246 . S
O313 Tb296 2.427 . S
O313 C312 1.275 . S
O314 Tb296 2.513 . S
O314 C312 1.246 . S
C315 O299 1.245 . S
C315 O300 1.259 . S
Tb316 O319 2.453 1_655 S
Tb316 O320 2.596 1_655 S
Tb316 O321 2.374 1_655 S
Tb316 O329 2.343 . S
Tb316 O331 2.353 . S
Tb316 O333 2.427 . S
Tb316 O334 2.513 . S
C317 O321 1.251 . S
C317 O323 1.263 . S
Tb318 O320 2.343 . S
Tb318 O323 2.353 . S
Tb318 O326 2.427 . S
Tb318 O327 2.513 . S
Tb318 O328 2.453 1_455 S
Tb318 O329 2.596 1_455 S
Tb318 O330 2.374 . S
O319 Tb316 2.453 1_455 S
O319 C335 1.245 . S
O320 Tb316 2.596 1_455 S
O320 Tb318 2.343 . S
O320 C335 1.259 . S
O321 Tb316 2.374 1_455 S
O321 C317 1.251 . S
C322 O326 1.275 . S
C322 O327 1.246 . S
O323 C317 1.263 . S
O323 Tb318 2.353 . S
C324 O328 1.245 . S
C324 O329 1.259 . S
C325 O330 1.250 1_655 S
C325 O331 1.263 . S
O326 Tb318 2.427 . S
O326 C322 1.275 . S
O327 Tb318 2.513 . S
O327 C322 1.246 . S
O328 Tb318 2.453 1_655 S
O328 C324 1.245 . S
O329 Tb316 2.343 . S
O329 Tb318 2.596 1_655 S
O329 C324 1.259 . S
O330 Tb318 2.374 . S
O330 C325 1.250 1_455 S
O331 Tb316 2.353 . S
O331 C325 1.263 . S
C332 O333 1.275 . S
C332 O334 1.246 . S
O333 Tb316 2.427 . S
O333 C332 1.275 . S
O334 Tb316 2.513 . S
O334 C332 1.246 . S
C335 O319 1.245 . S
C335 O320 1.259 . S
H336 C354 0.951 . S
H337 C356 0.951 . S
H338 C358 0.950 . S
H339 C359 0.950 . S
H340 C361 0.950 . S
H341 C364 0.950 . S
H342 C365 0.950 . S
H343 C367 0.950 . S
H344 C368 0.950 1_545 S
H345 C369 0.949 1_565 S
H346 C371 0.951 1_565 S
H347 C373 0.950 . S
H348 C374 0.950 . S
H349 C376 0.931 1_565 S
H350 C379 0.950 . S
H351 C380 0.950 . S
H352 C382 0.950 . S
H353 C383 0.950 . S
C354 H336 0.951 . S
C354 C355 1.366 . S
C354 C356 1.388 . S
C355 C354 1.366 . S
C355 C359 1.385 . S
C356 H337 0.951 . S
C356 C354 1.388 . S
C356 C357 1.366 . S
C357 C356 1.366 . S
C357 C358 1.414 . S
C357 C360 1.499 . S
C358 H338 0.950 . S
C358 C357 1.414 . S
C358 C359 1.374 . S
C359 H339 0.950 . S
C359 C355 1.385 . S
C359 C358 1.374 . S
C360 C357 1.499 . S
C360 C361 1.373 . S
C360 C362 1.401 . S
C361 H340 0.950 . S
C361 C360 1.373 . S
C361 C377 1.377 . S
C362 C360 1.401 . S
C362 C363 1.510 1_545 S
C362 C376 1.375 . S
C363 C362 1.510 1_565 S
C363 C364 1.397 . S
C363 C368 1.363 . S
C364 H341 0.950 . S
C364 C363 1.397 . S
C364 C365 1.334 . S
C365 H342 0.950 . S
C365 C364 1.334 . S
C365 C366 1.287 . S
C366 C365 1.287 . S
C366 C367 1.524 . S
C366 H385 0.913 . S
C367 H343 0.950 . S
C367 C366 1.524 . S
C367 C368 1.415 . S
C368 H344 0.950 1_565 S
C368 C363 1.363 . S
C368 C367 1.415 . S
C369 H345 0.949 1_545 S
C369 C370 1.368 . S
C369 C371 1.388 . S
C370 C369 1.368 . S
C370 C374 1.385 . S
C371 H346 0.951 1_545 S
C371 C369 1.388 . S
C371 C372 1.366 . S
C372 C371 1.366 . S
C372 C373 1.414 . S
C372 C375 1.499 . S
C373 H347 0.950 . S
C373 C372 1.414 . S
C373 C374 1.374 . S
C374 H348 0.950 . S
C374 C370 1.385 . S
C374 C373 1.374 . S
C375 C372 1.499 . S
C375 C376 1.397 . S
C375 C377 1.389 . S
C376 H349 0.931 1_545 S
C376 C362 1.375 . S
C376 C375 1.397 . S
C377 C361 1.377 . S
C377 C375 1.389 . S
C377 C378 1.524 . S
C378 C377 1.524 . S
C378 C379 1.397 . S
C378 C383 1.363 . S
C379 H350 0.950 . S
C379 C378 1.397 . S
C379 C380 1.334 . S
C380 H351 0.950 . S
C380 C379 1.334 . S
C380 C381 1.287 . S
C381 C380 1.287 . S
C381 C382 1.524 . S
C381 H384 0.999 . S
C382 H352 0.950 . S
C382 C381 1.524 . S
C382 C383 1.415 . S
C383 H353 0.950 . S
C383 C378 1.363 . S
C383 C382 1.415 . S
H384 C381 0.999 . S
H385 C366 0.913 . S
H386 C404 0.951 . S
H387 C406 0.951 . S
H388 C408 0.950 . S
H389 C409 0.950 . S
H390 C411 0.950 . S
H391 C414 0.950 . S
H392 C415 0.950 . S
H393 C417 0.950 . S
H394 C418 0.950 . S
H395 C419 0.951 . S
H396 C421 0.951 . S
H397 C423 0.950 . S
H398 C424 0.950 . S
H399 C426 0.950 . S
H400 C429 0.950 . S
H401 C430 0.950 . S
H402 C432 0.950 . S
H403 C433 0.950 . S
C404 H386 0.951 . S
C404 C405 1.366 . S
C404 C406 1.388 . S
C405 C404 1.366 . S
C405 C409 1.385 . S
C406 H387 0.951 . S
C406 C404 1.388 . S
C406 C407 1.366 . S
C407 C406 1.366 . S
C407 C408 1.414 . S
C407 C410 1.499 . S
C408 H388 0.950 . S
C408 C407 1.414 . S
C408 C409 1.374 . S
C409 H389 0.950 . S
C409 C405 1.385 . S
C409 C408 1.374 . S
C410 C407 1.499 . S
C410 C411 1.373 . S
C410 C412 1.389 . S
C411 H390 0.950 . S
C411 C410 1.373 . S
C411 C427 1.377 . S
C412 C410 1.389 . S
C412 C413 1.524 . S
C412 C426 1.377 . S
C413 C412 1.524 . S
C413 C414 1.397 . S
C413 C418 1.363 . S
C414 H391 0.950 . S
C414 C413 1.397 . S
C414 C415 1.334 . S
C415 H392 0.950 . S
C415 C414 1.334 . S
C415 C416 1.287 . S
C416 C415 1.287 . S
C416 C417 1.524 . S
C416 H435 0.913 . S
C417 H393 0.950 . S
C417 C416 1.524 . S
C417 C418 1.415 . S
C418 H394 0.950 . S
C418 C413 1.363 . S
C418 C417 1.415 . S
C419 H395 0.951 . S
C419 C420 1.366 . S
C419 C421 1.388 . S
C420 C419 1.366 . S
C420 C424 1.385 . S
C421 H396 0.951 . S
C421 C419 1.388 . S
C421 C422 1.366 . S
C422 C421 1.366 . S
C422 C423 1.414 . S
C422 C425 1.499 . S
C423 H397 0.950 . S
C423 C422 1.414 . S
C423 C424 1.374 . S
C424 H398 0.950 . S
C424 C420 1.385 . S
C424 C423 1.374 . S
C425 C422 1.499 . S
C425 C426 1.373 . S
C425 C427 1.389 . S
C426 H399 0.950 . S
C426 C412 1.377 . S
C426 C425 1.373 . S
C427 C411 1.377 . S
C427 C425 1.389 . S
C427 C428 1.524 . S
C428 C427 1.524 . S
C428 C429 1.397 . S
C428 C433 1.363 . S
C429 H400 0.950 . S
C429 C428 1.397 . S
C429 C430 1.334 . S
C430 H401 0.950 . S
C430 C429 1.334 . S
C430 C431 1.287 . S
C431 C430 1.287 . S
C431 C432 1.524 . S
C431 H434 0.999 . S
C432 H402 0.950 . S
C432 C431 1.524 . S
C432 C433 1.415 . S
C433 H403 0.950 . S
C433 C428 1.363 . S
C433 C432 1.415 . S
H434 C431 0.999 . S
H435 C416 0.913 . S
H436 C454 0.951 . S
H437 C456 0.951 . S
H438 C458 0.950 . S
H439 C459 0.950 . S
H440 C461 0.950 . S
H441 C464 0.950 . S
H442 C465 0.950 . S
H443 C467 0.950 . S
H444 C468 0.950 . S
H445 C469 0.951 . S
H446 C471 0.951 . S
H447 C473 0.950 . S
H448 C474 0.950 . S
H449 C476 0.950 . S
H450 C479 0.950 . S
H451 C480 0.950 . S
H452 C482 0.950 . S
H453 C483 0.950 . S
C454 H436 0.951 . S
C454 C455 1.366 . S
C454 C456 1.388 . S
C455 C454 1.366 . S
C455 C459 1.385 . S
C456 H437 0.951 . S
C456 C454 1.388 . S
C456 C457 1.366 . S
C457 C456 1.366 . S
C457 C458 1.414 . S
C457 C460 1.499 . S
C458 H438 0.950 . S
C458 C457 1.414 . S
C458 C459 1.374 . S
C459 H439 0.950 . S
C459 C455 1.385 . S
C459 C458 1.374 . S
C460 C457 1.499 . S
C460 C461 1.373 . S
C460 C462 1.389 . S
C461 H440 0.950 . S
C461 C460 1.373 . S
C461 C477 1.377 . S
C462 C460 1.389 . S
C462 C463 1.524 . S
C462 C476 1.377 . S
C463 C462 1.524 . S
C463 C464 1.397 . S
C463 C468 1.363 . S
C464 H441 0.950 . S
C464 C463 1.397 . S
C464 C465 1.334 . S
C465 H442 0.950 . S
C465 C464 1.334 . S
C465 C466 1.287 . S
C466 C465 1.287 . S
C466 C467 1.524 . S
C466 H485 0.913 . S
C467 H443 0.950 . S
C467 C466 1.524 . S
C467 C468 1.415 . S
C468 H444 0.950 . S
C468 C463 1.363 . S
C468 C467 1.415 . S
C469 H445 0.951 . S
C469 C470 1.366 . S
C469 C471 1.388 . S
C470 C469 1.366 . S
C470 C474 1.385 . S
C471 H446 0.951 . S
C471 C469 1.388 . S
C471 C472 1.366 . S
C472 C471 1.366 . S
C472 C473 1.414 . S
C472 C475 1.499 . S
C473 H447 0.950 . S
C473 C472 1.414 . S
C473 C474 1.374 . S
C474 H448 0.950 . S
C474 C470 1.385 . S
C474 C473 1.374 . S
C475 C472 1.499 . S
C475 C476 1.373 . S
C475 C477 1.389 . S
C476 H449 0.950 . S
C476 C462 1.377 . S
C476 C475 1.373 . S
C477 C461 1.377 . S
C477 C475 1.389 . S
C477 C478 1.524 . S
C478 C477 1.524 . S
C478 C479 1.397 . S
C478 C483 1.363 . S
C479 H450 0.950 . S
C479 C478 1.397 . S
C479 C480 1.334 . S
C480 H451 0.950 . S
C480 C479 1.334 . S
C480 C481 1.287 . S
C481 C480 1.287 . S
C481 C482 1.524 . S
C481 H484 0.999 . S
C482 H452 0.950 . S
C482 C481 1.524 . S
C482 C483 1.415 . S
C483 H453 0.950 . S
C483 C478 1.363 . S
C483 C482 1.415 . S
H484 C481 0.999 . S
H485 C466 0.913 . S
H486 C504 0.951 . S
H487 C506 0.951 . S
H488 C508 0.950 . S
H489 C509 0.950 . S
H490 C511 0.950 . S
H491 C514 0.950 . S
H492 C515 0.950 . S
H493 C517 0.950 . S
H494 C518 0.950 . S
H495 C519 0.951 . S
H496 C521 0.951 . S
H497 C523 0.950 . S
H498 C524 0.950 . S
H499 C526 0.950 . S
H500 C529 0.950 . S
H501 C530 0.950 . S
H502 C532 0.950 . S
H503 C533 0.950 . S
C504 H486 0.951 . S
C504 C505 1.366 . S
C504 C506 1.388 . S
C505 C504 1.366 . S
C505 C509 1.385 . S
C506 H487 0.951 . S
C506 C504 1.388 . S
C506 C507 1.366 . S
C507 C506 1.366 . S
C507 C508 1.414 . S
C507 C510 1.499 . S
C508 H488 0.950 . S
C508 C507 1.414 . S
C508 C509 1.374 . S
C509 H489 0.950 . S
C509 C505 1.385 . S
C509 C508 1.374 . S
C510 C507 1.499 . S
C510 C511 1.373 . S
C510 C512 1.389 . S
C511 H490 0.950 . S
C511 C510 1.373 . S
C511 C527 1.377 . S
C512 C510 1.389 . S
C512 C513 1.524 . S
C512 C526 1.377 . S
C513 C512 1.524 . S
C513 C514 1.397 . S
C513 C518 1.363 . S
C514 H491 0.950 . S
C514 C513 1.397 . S
C514 C515 1.334 . S
C515 H492 0.950 . S
C515 C514 1.334 . S
C515 C516 1.287 . S
C516 C515 1.287 . S
C516 C517 1.524 . S
C516 H535 0.913 . S
C517 H493 0.950 . S
C517 C516 1.524 . S
C517 C518 1.415 . S
C518 H494 0.950 . S
C518 C513 1.363 . S
C518 C517 1.415 . S
C519 H495 0.951 . S
C519 C520 1.366 . S
C519 C521 1.388 . S
C520 C519 1.366 . S
C520 C524 1.385 . S
C521 H496 0.951 . S
C521 C519 1.388 . S
C521 C522 1.366 . S
C522 C521 1.366 . S
C522 C523 1.414 . S
C522 C525 1.499 . S
C523 H497 0.950 . S
C523 C522 1.414 . S
C523 C524 1.374 . S
C524 H498 0.950 . S
C524 C520 1.385 . S
C524 C523 1.374 . S
C525 C522 1.499 . S
C525 C526 1.373 . S
C525 C527 1.389 . S
C526 H499 0.950 . S
C526 C512 1.377 . S
C526 C525 1.373 . S
C527 C511 1.377 . S
C527 C525 1.389 . S
C527 C528 1.524 . S
C528 C527 1.524 . S
C528 C529 1.397 . S
C528 C533 1.363 . S
C529 H500 0.950 . S
C529 C528 1.397 . S
C529 C530 1.334 . S
C530 H501 0.950 . S
C530 C529 1.334 . S
C530 C531 1.287 . S
C531 C530 1.287 . S
C531 C532 1.524 . S
C531 H534 0.999 . S
C532 H502 0.950 . S
C532 C531 1.524 . S
C532 C533 1.415 . S
C533 H503 0.950 . S
C533 C528 1.363 . S
C533 C532 1.415 . S
H534 C531 0.999 . S
H535 C516 0.913 . S
H536 C554 0.951 . S
H537 C556 0.951 . S
H538 C558 0.950 . S
H539 C559 0.950 . S
H540 C561 0.950 . S
H541 C564 0.950 . S
H542 C565 0.950 . S
H543 C567 0.950 . S
H544 C568 0.950 . S
H545 C569 0.951 . S
H546 C571 0.951 . S
H547 C573 0.939 1_565 S
H548 C574 0.950 1_565 S
H549 C576 0.950 . S
H550 C579 0.950 . S
H551 C580 0.950 . S
H552 C582 0.950 . S
H553 C583 0.950 . S
C554 H536 0.951 . S
C554 C555 1.356 1_566 S
C554 C556 1.388 . S
C555 C554 1.356 1_544 S
C555 C559 1.394 . S
C556 H537 0.951 . S
C556 C554 1.388 . S
C556 C557 1.366 1_565 S
C557 C556 1.366 1_545 S
C557 C558 1.414 1_556 S
C557 C560 1.499 . S
C558 H538 0.950 . S
C558 C557 1.414 1_554 S
C558 C559 1.374 . S
C559 H539 0.950 . S
C559 C555 1.394 . S
C559 C558 1.374 . S
C560 C557 1.499 . S
C560 C561 1.373 . S
C560 C562 1.389 1_545 S
C561 H540 0.950 . S
C561 C560 1.373 . S
C561 C577 1.377 . S
C562 C560 1.389 1_565 S
C562 C563 1.524 . S
C562 C576 1.377 . S
C563 C562 1.524 . S
C563 C564 1.397 . S
C563 C568 1.363 . S
C564 H541 0.950 . S
C564 C563 1.397 . S
C564 C565 1.334 . S
C565 H542 0.950 . S
C565 C564 1.334 . S
C565 C566 1.287 . S
C566 C565 1.287 . S
C566 C567 1.524 . S
C566 H585 0.913 . S
C567 H543 0.950 . S
C567 C566 1.524 . S
C567 C568 1.415 . S
C568 H544 0.950 . S
C568 C563 1.363 . S
C568 C567 1.415 . S
C569 H545 0.951 . S
C569 C570 1.366 . S
C569 C571 1.388 . S
C570 C569 1.366 . S
C570 C574 1.385 . S
C571 H546 0.951 . S
C571 C569 1.388 . S
C571 C572 1.366 . S
C572 C571 1.366 . S
C572 C573 1.427 . S
C572 C575 1.499 . S
C573 H547 0.939 1_545 S
C573 C572 1.427 . S
C573 C574 1.374 . S
C574 H548 0.950 1_545 S
C574 C570 1.385 . S
C574 C573 1.374 . S
C575 C572 1.499 . S
C575 C576 1.373 1_545 S
C575 C577 1.389 . S
C576 H549 0.950 . S
C576 C562 1.377 . S
C576 C575 1.373 1_565 S
C577 C561 1.377 . S
C577 C575 1.389 . S
C577 C578 1.524 . S
C578 C577 1.524 . S
C578 C579 1.397 . S
C578 C583 1.363 . S
C579 H550 0.950 . S
C579 C578 1.397 . S
C579 C580 1.334 . S
C580 H551 0.950 . S
C580 C579 1.334 . S
C580 C581 1.287 . S
C581 C580 1.287 . S
C581 C582 1.524 . S
C581 H584 0.999 . S
C582 H552 0.950 . S
C582 C581 1.524 . S
C582 C583 1.415 . S
C583 H553 0.950 . S
C583 C578 1.363 . S
C583 C582 1.415 . S
H584 C581 0.999 . S
H585 C566 0.913 . S
H586 C604 0.951 . S
H587 C606 0.951 . S
H588 C608 0.950 . S
H589 C609 0.950 . S
H590 C611 0.950 . S
H591 C614 0.950 . S
H592 C615 0.950 . S
H593 C617 0.950 . S
H594 C618 0.950 . S
H595 C619 0.951 . S
H596 C621 0.951 . S
H597 C623 0.950 . S
H598 C624 0.950 . S
H599 C626 0.950 . S
H600 C629 0.950 . S
H601 C630 0.950 . S
H602 C632 0.950 . S
H603 C633 0.950 . S
C604 H586 0.951 . S
C604 C605 1.366 1_556 S
C604 C606 1.388 . S
C605 C604 1.366 1_554 S
C605 C609 1.385 . S
C606 H587 0.951 . S
C606 C604 1.388 . S
C606 C607 1.366 . S
C607 C606 1.366 . S
C607 C608 1.414 . S
C607 C610 1.499 . S
C608 H588 0.950 . S
C608 C607 1.414 . S
C608 C609 1.374 1_556 S
C609 H589 0.950 . S
C609 C605 1.385 . S
C609 C608 1.374 1_554 S
C610 C607 1.499 . S
C610 C611 1.373 . S
C610 C612 1.389 . S
C611 H590 0.950 . S
C611 C610 1.373 . S
C611 C627 1.377 . S
C612 C610 1.389 . S
C612 C613 1.524 . S
C612 C626 1.377 . S
C613 C612 1.524 . S
C613 C614 1.397 . S
C613 C618 1.363 . S
C614 H591 0.950 . S
C614 C613 1.397 . S
C614 C615 1.334 . S
C615 H592 0.950 . S
C615 C614 1.334 . S
C615 C616 1.287 . S
C616 C615 1.287 . S
C616 C617 1.524 . S
C616 H635 0.913 . S
C617 H593 0.950 . S
C617 C616 1.524 . S
C617 C618 1.415 . S
C618 H594 0.950 . S
C618 C613 1.363 . S
C618 C617 1.415 . S
C619 H595 0.951 . S
C619 C620 1.366 . S
C619 C621 1.388 . S
C620 C619 1.366 . S
C620 C624 1.385 . S
C621 H596 0.951 . S
C621 C619 1.388 . S
C621 C622 1.366 . S
C622 C621 1.366 . S
C622 C623 1.414 . S
C622 C625 1.499 . S
C623 H597 0.950 . S
C623 C622 1.414 . S
C623 C624 1.374 . S
C624 H598 0.950 . S
C624 C620 1.385 . S
C624 C623 1.374 . S
C625 C622 1.499 . S
C625 C626 1.373 . S
C625 C627 1.389 . S
C626 H599 0.950 . S
C626 C612 1.377 . S
C626 C625 1.373 . S
C627 C611 1.377 . S
C627 C625 1.389 . S
C627 C628 1.524 . S
C628 C627 1.524 . S
C628 C629 1.397 . S
C628 C633 1.363 . S
C629 H600 0.950 . S
C629 C628 1.397 . S
C629 C630 1.334 1_556 S
C630 H601 0.950 . S
C630 C629 1.334 1_554 S
C630 C631 1.287 . S
C631 C630 1.287 . S
C631 C632 1.524 . S
C631 H634 0.999 . S
C632 H602 0.950 . S
C632 C631 1.524 . S
C632 C633 1.415 1_554 S
C633 H603 0.950 . S
C633 C628 1.363 . S
C633 C632 1.415 1_556 S
H634 C631 0.999 . S
H635 C616 0.913 . S
H636 C654 0.951 . S
H637 C656 0.951 . S
H638 C658 0.950 . S
H639 C659 0.950 . S
H640 C661 0.950 . S
H641 C664 0.950 . S
H642 C665 0.950 . S
H643 C667 0.950 . S
H644 C668 0.950 . S
H645 C669 0.951 . S
H646 C671 0.951 . S
H647 C673 0.950 . S
H648 C674 0.950 . S
H649 C676 0.950 . S
H650 C679 0.950 . S
H651 C680 0.950 . S
H652 C682 0.950 . S
H653 C683 0.950 . S
C654 H636 0.951 . S
C654 C655 1.366 1_556 S
C654 C656 1.388 . S
C655 C654 1.366 1_554 S
C655 C659 1.385 . S
C656 H637 0.951 . S
C656 C654 1.388 . S
C656 C657 1.366 . S
C657 C656 1.366 . S
C657 C658 1.414 1_556 S
C657 C660 1.499 . S
C658 H638 0.950 . S
C658 C657 1.414 1_554 S
C658 C659 1.374 . S
C659 H639 0.950 . S
C659 C655 1.385 . S
C659 C658 1.374 . S
C660 C657 1.499 . S
C660 C661 1.373 . S
C660 C662 1.389 . S
C661 H640 0.950 . S
C661 C660 1.373 . S
C661 C677 1.377 . S
C662 C660 1.389 . S
C662 C663 1.524 . S
C662 C676 1.377 . S
C663 C662 1.524 . S
C663 C664 1.397 . S
C663 C668 1.363 . S
C664 H641 0.950 . S
C664 C663 1.397 . S
C664 C665 1.334 . S
C665 H642 0.950 . S
C665 C664 1.334 . S
C665 C666 1.287 . S
C666 C665 1.287 . S
C666 C667 1.524 . S
C666 H685 0.913 . S
C667 H643 0.950 . S
C667 C666 1.524 . S
C667 C668 1.415 . S
C668 H644 0.950 . S
C668 C663 1.363 . S
C668 C667 1.415 . S
C669 H645 0.951 . S
C669 C670 1.366 . S
C669 C671 1.388 . S
C670 C669 1.366 . S
C670 C674 1.385 . S
C671 H646 0.951 . S
C671 C669 1.388 . S
C671 C672 1.366 . S
C672 C671 1.366 . S
C672 C673 1.414 . S
C672 C675 1.499 . S
C673 H647 0.950 . S
C673 C672 1.414 . S
C673 C674 1.374 . S
C674 H648 0.950 . S
C674 C670 1.385 . S
C674 C673 1.374 . S
C675 C672 1.499 . S
C675 C676 1.373 . S
C675 C677 1.389 . S
C676 H649 0.950 . S
C676 C662 1.377 . S
C676 C675 1.373 . S
C677 C661 1.377 . S
C677 C675 1.389 . S
C677 C678 1.524 . S
C678 C677 1.524 . S
C678 C679 1.397 . S
C678 C683 1.363 . S
C679 H650 0.950 . S
C679 C678 1.397 . S
C679 C680 1.334 . S
C680 H651 0.950 . S
C680 C679 1.334 . S
C680 C681 1.287 . S
C681 C680 1.287 . S
C681 C682 1.524 . S
C681 H684 0.999 . S
C682 H652 0.950 . S
C682 C681 1.524 . S
C682 C683 1.415 . S
C683 H653 0.950 . S
C683 C678 1.363 . S
C683 C682 1.415 . S
H684 C681 0.999 . S
H685 C666 0.913 . S
H686 C704 0.951 1_554 S
H687 C706 0.951 . S
H688 C708 0.950 . S
H689 C709 0.950 . S
H690 C711 0.950 . S
H691 C714 0.950 . S
H692 C715 0.950 . S
H693 C717 0.950 1_455 S
H694 C718 0.950 . S
H695 C719 0.951 . S
H696 C721 0.951 . S
H697 C723 0.950 . S
H698 C724 0.950 . S
H699 C726 0.950 . S
H700 C729 0.950 . S
H701 C730 0.950 . S
H702 C732 0.950 . S
H703 C733 0.950 . S
C704 H686 0.951 1_556 S
C704 C705 1.366 . S
C704 C706 1.388 . S
C705 C704 1.366 . S
C705 C709 1.385 . S
C706 H687 0.951 . S
C706 C704 1.388 . S
C706 C707 1.366 . S
C707 C706 1.366 . S
C707 C708 1.414 . S
C707 C710 1.499 . S
C708 H688 0.950 . S
C708 C707 1.414 . S
C708 C709 1.374 . S
C709 H689 0.950 . S
C709 C705 1.385 . S
C709 C708 1.374 . S
C710 C707 1.499 . S
C710 C711 1.373 . S
C710 C712 1.389 . S
C711 H690 0.950 . S
C711 C710 1.373 . S
C711 C727 1.377 . S
C712 C710 1.389 . S
C712 C713 1.524 . S
C712 C726 1.377 . S
C713 C712 1.524 . S
C713 C714 1.397 . S
C713 C718 1.363 . S
C714 H691 0.950 . S
C714 C713 1.397 . S
C714 C715 1.334 . S
C715 H692 0.950 . S
C715 C714 1.334 . S
C715 C716 1.287 . S
C716 C715 1.287 . S
C716 C717 1.524 . S
C716 H735 0.913 . S
C717 H693 0.950 1_655 S
C717 C716 1.524 . S
C717 C718 1.415 . S
C718 H694 0.950 . S
C718 C713 1.363 . S
C718 C717 1.415 . S
C719 H695 0.951 . S
C719 C720 1.366 . S
C719 C721 1.388 . S
C720 C719 1.366 . S
C720 C724 1.385 . S
C721 H696 0.951 . S
C721 C719 1.388 . S
C721 C722 1.366 . S
C722 C721 1.366 . S
C722 C723 1.414 . S
C722 C725 1.499 . S
C723 H697 0.950 . S
C723 C722 1.414 . S
C723 C724 1.374 . S
C724 H698 0.950 . S
C724 C720 1.385 . S
C724 C723 1.374 . S
C725 C722 1.499 . S
C725 C726 1.373 . S
C725 C727 1.389 . S
C726 H699 0.950 . S
C726 C712 1.377 . S
C726 C725 1.373 . S
C727 C711 1.377 . S
C727 C725 1.389 . S
C727 C728 1.524 . S
C728 C727 1.524 . S
C728 C729 1.397 . S
C728 C733 1.363 . S
C729 H700 0.950 . S
C729 C728 1.397 . S
C729 C730 1.334 . S
C730 H701 0.950 . S
C730 C729 1.334 . S
C730 C731 1.287 . S
C731 C730 1.287 . S
C731 C732 1.524 . S
C731 H734 0.999 . S
C732 H702 0.950 . S
C732 C731 1.524 . S
C732 C733 1.415 . S
C733 H703 0.950 . S
C733 C728 1.363 . S
C733 C732 1.415 . S
H734 C731 0.999 . S
H735 C716 0.913 . S
H736 C754 0.951 . S
H737 C756 0.951 . S
H738 C758 0.950 . S
H739 C759 0.950 . S
H740 C761 0.950 . S
H741 C764 0.950 . S
H742 C765 0.950 . S
H743 C767 0.950 . S
H744 C768 0.950 . S
H745 C769 1.008 . S
H746 C771 0.951 . S
H747 C773 0.950 . S
H748 C774 0.950 . S
H749 C776 0.950 . S
H750 C779 0.950 . S
H751 C780 0.950 . S
H752 C782 0.950 . S
H753 C783 0.950 . S
C754 H736 0.951 . S
C754 C755 1.366 . S
C754 C756 1.388 . S
C755 C754 1.366 . S
C755 C759 1.385 . S
C756 H737 0.951 . S
C756 C754 1.388 . S
C756 C757 1.366 . S
C757 C756 1.366 . S
C757 C758 1.414 . S
C757 C760 1.499 . S
C758 H738 0.950 . S
C758 C757 1.414 . S
C758 C759 1.374 . S
C759 H739 0.950 . S
C759 C755 1.385 . S
C759 C758 1.374 . S
C760 C757 1.499 . S
C760 C761 1.373 . S
C760 C762 1.389 . S
C761 H740 0.950 . S
C761 C760 1.373 . S
C761 C777 1.377 . S
C762 C760 1.389 . S
C762 C763 1.524 . S
C762 C776 1.377 . S
C763 C762 1.524 . S
C763 C764 1.397 . S
C763 C768 1.363 . S
C764 H741 0.950 . S
C764 C763 1.397 . S
C764 C765 1.334 . S
C765 H742 0.950 . S
C765 C764 1.334 . S
C765 C766 1.287 . S
C766 C765 1.287 . S
C766 C767 1.524 . S
C766 H785 0.913 . S
C767 H743 0.950 . S
C767 C766 1.524 . S
C767 C768 1.415 . S
C768 H744 0.950 . S
C768 C763 1.363 . S
C768 C767 1.415 . S
C769 H745 1.008 . S
C769 C770 1.366 . S
C769 C771 1.388 . S
C770 C769 1.366 . S
C770 C774 1.385 . S
C771 H746 0.951 . S
C771 C769 1.388 . S
C771 C772 1.366 . S
C772 C771 1.366 . S
C772 C773 1.414 . S
C772 C775 1.499 . S
C773 H747 0.950 . S
C773 C772 1.414 . S
C773 C774 1.374 . S
C774 H748 0.950 . S
C774 C770 1.385 . S
C774 C773 1.374 . S
C775 C772 1.499 . S
C775 C776 1.373 . S
C775 C777 1.389 . S
C776 H749 0.950 . S
C776 C762 1.377 . S
C776 C775 1.373 . S
C777 C761 1.377 . S
C777 C775 1.389 . S
C777 C778 1.524 . S
C778 C777 1.524 . S
C778 C779 1.397 . S
C778 C783 1.363 . S
C779 H750 0.950 . S
C779 C778 1.397 . S
C779 C780 1.334 . S
C780 H751 0.950 . S
C780 C779 1.334 . S
C780 C781 1.287 . S
C781 C780 1.287 . S
C781 C782 1.524 . S
C781 H784 0.999 . S
C782 H752 0.950 . S
C782 C781 1.524 . S
C782 C783 1.415 . S
C783 H753 0.950 . S
C783 C778 1.363 . S
C783 C782 1.415 . S
H784 C781 0.999 . S
H785 C766 0.913 . S
H786 C804 0.951 . S
H787 C806 0.951 . S
H788 C808 0.981 . S
H789 C809 0.927 1_565 S
H790 C811 0.950 . S
H791 C814 0.950 . S
H792 C815 0.950 . S
H793 C817 0.950 . S
H794 C818 0.950 . S
H795 C819 0.951 . S
H796 C821 0.951 . S
H797 C823 0.950 . S
H798 C824 0.950 . S
H799 C826 0.950 . S
H800 C829 0.950 . S
H801 C830 0.950 . S
H802 C832 0.950 1_565 S
H803 C833 0.975 . S
C804 H786 0.951 . S
C804 C805 1.366 . S
C804 C806 1.388 . S
C805 C804 1.366 . S
C805 C809 1.416 . S
C806 H787 0.951 . S
C806 C804 1.388 . S
C806 C807 1.366 . S
C807 C806 1.366 . S
C807 C808 1.391 1_545 S
C807 C810 1.499 . S
C808 H788 0.981 . S
C808 C807 1.391 1_565 S
C808 C809 1.362 1_565 S
C809 H789 0.927 1_545 S
C809 C805 1.416 . S
C809 C808 1.362 1_545 S
C810 C807 1.499 . S
C810 C811 1.373 . S
C810 C812 1.389 . S
C811 H790 0.950 . S
C811 C810 1.373 . S
C811 C827 1.377 . S
C812 C810 1.389 . S
C812 C813 1.524 . S
C812 C826 1.377 . S
C813 C812 1.524 . S
C813 C814 1.397 1_545 S
C813 C818 1.363 . S
C814 H791 0.950 . S
C814 C813 1.397 1_565 S
C814 C815 1.334 . S
C815 H792 0.950 . S
C815 C814 1.334 . S
C815 C816 1.287 1_565 S
C816 C815 1.287 1_545 S
C816 C817 1.524 . S
C816 H835 0.914 . S
C817 H793 0.950 . S
C817 C816 1.524 . S
C817 C818 1.415 . S
C818 H794 0.950 . S
C818 C813 1.363 . S
C818 C817 1.415 . S
C819 H795 0.951 . S
C819 C820 1.366 1_565 S
C819 C821 1.388 . S
C820 C819 1.366 1_545 S
C820 C824 1.385 . S
C821 H796 0.951 . S
C821 C819 1.388 . S
C821 C822 1.366 1_565 S
C822 C821 1.366 1_545 S
C822 C823 1.414 . S
C822 C825 1.499 . S
C823 H797 0.950 . S
C823 C822 1.414 . S
C823 C824 1.374 . S
C824 H798 0.950 . S
C824 C820 1.385 . S
C824 C823 1.374 . S
C825 C822 1.499 . S
C825 C826 1.373 . S
C825 C827 1.389 . S
C826 H799 0.950 . S
C826 C812 1.377 . S
C826 C825 1.373 . S
C827 C811 1.377 . S
C827 C825 1.389 . S
C827 C828 1.524 . S
C828 C827 1.524 . S
C828 C829 1.397 . S
C828 C833 1.341 1_545 S
C829 H800 0.950 . S
C829 C828 1.397 . S
C829 C830 1.334 . S
C830 H801 0.950 . S
C830 C829 1.334 . S
C830 C831 1.287 . S
C831 C830 1.287 . S
C831 C832 1.524 . S
C831 H834 0.999 . S
C832 H802 0.950 1_545 S
C832 C831 1.524 . S
C832 C833 1.413 1_545 S
C833 H803 0.975 . S
C833 C828 1.341 1_565 S
C833 C832 1.413 1_565 S
H834 C831 0.999 . S
H835 C816 0.914 . S
H836 C854 0.951 . S
H837 C856 0.951 . S
H838 C858 0.950 . S
H839 C859 0.950 . S
H840 C861 0.950 . S
H841 C864 0.950 . S
H842 C865 0.950 . S
H843 C867 0.950 . S
H844 C868 0.950 . S
H845 C869 0.951 . S
H846 C871 0.951 . S
H847 C873 0.950 . S
H848 C874 0.950 . S
H849 C876 0.950 . S
H850 C879 0.950 . S
H851 C880 0.950 . S
H852 C882 0.950 . S
H853 C883 0.950 . S
C854 H836 0.951 . S
C854 C855 1.366 . S
C854 C856 1.388 . S
C855 C854 1.366 . S
C855 C859 1.385 . S
C856 H837 0.951 . S
C856 C854 1.388 . S
C856 C857 1.366 . S
C857 C856 1.366 . S
C857 C858 1.414 . S
C857 C860 1.499 . S
C858 H838 0.950 . S
C858 C857 1.414 . S
C858 C859 1.374 . S
C859 H839 0.950 . S
C859 C855 1.385 . S
C859 C858 1.374 . S
C860 C857 1.499 . S
C860 C861 1.373 . S
C860 C862 1.389 . S
C861 H840 0.950 . S
C861 C860 1.373 . S
C861 C877 1.377 . S
C862 C860 1.389 . S
C862 C863 1.524 . S
C862 C876 1.377 . S
C863 C862 1.524 . S
C863 C864 1.397 . S
C863 C868 1.363 . S
C864 H841 0.950 . S
C864 C863 1.397 . S
C864 C865 1.334 . S
C865 H842 0.950 . S
C865 C864 1.334 . S
C865 C866 1.287 . S
C866 C865 1.287 . S
C866 C867 1.524 . S
C866 H885 0.913 . S
C867 H843 0.950 . S
C867 C866 1.524 . S
C867 C868 1.415 . S
C868 H844 0.950 . S
C868 C863 1.363 . S
C868 C867 1.415 . S
C869 H845 0.951 . S
C869 C870 1.366 . S
C869 C871 1.388 . S
C870 C869 1.366 . S
C870 C874 1.385 . S
C871 H846 0.951 . S
C871 C869 1.388 . S
C871 C872 1.366 . S
C872 C871 1.366 . S
C872 C873 1.414 . S
C872 C875 1.499 . S
C873 H847 0.950 . S
C873 C872 1.414 . S
C873 C874 1.374 . S
C874 H848 0.950 . S
C874 C870 1.385 . S
C874 C873 1.374 . S
C875 C872 1.499 . S
C875 C876 1.373 . S
C875 C877 1.389 . S
C876 H849 0.950 . S
C876 C862 1.377 . S
C876 C875 1.373 . S
C877 C861 1.377 . S
C877 C875 1.389 . S
C877 C878 1.524 . S
C878 C877 1.524 . S
C878 C879 1.397 . S
C878 C883 1.363 . S
C879 H850 0.950 . S
C879 C878 1.397 . S
C879 C880 1.334 . S
C880 H851 0.950 . S
C880 C879 1.334 . S
C880 C881 1.287 . S
C881 C880 1.287 . S
C881 C882 1.524 . S
C881 H884 0.999 . S
C882 H852 0.950 . S
C882 C881 1.524 . S
C882 C883 1.415 . S
C883 H853 0.950 . S
C883 C878 1.363 . S
C883 C882 1.415 . S
H884 C881 0.999 . S
H885 C866 0.913 . S
H886 C904 0.951 . S
H887 C906 0.951 . S
H888 C908 0.950 . S
H889 C909 0.950 . S
H890 C911 0.950 . S
H891 C914 0.950 . S
H892 C915 0.950 . S
H893 C917 0.950 . S
H894 C918 0.950 . S
H895 C919 0.951 . S
H896 C921 0.951 . S
H897 C923 0.950 . S
H898 C924 0.950 . S
H899 C926 0.950 . S
H900 C929 0.950 . S
H901 C930 0.950 . S
H902 C932 0.950 . S
H903 C933 0.950 . S
C904 H886 0.951 . S
C904 C905 1.366 . S
C904 C906 1.388 . S
C905 C904 1.366 . S
C905 C909 1.385 . S
C906 H887 0.951 . S
C906 C904 1.388 . S
C906 C907 1.366 . S
C907 C906 1.366 . S
C907 C908 1.414 . S
C907 C910 1.499 . S
C908 H888 0.950 . S
C908 C907 1.414 . S
C908 C909 1.374 . S
C909 H889 0.950 . S
C909 C905 1.385 . S
C909 C908 1.374 . S
C910 C907 1.499 . S
C910 C911 1.373 . S
C910 C912 1.389 . S
C911 H890 0.950 . S
C911 C910 1.373 . S
C911 C927 1.377 . S
C912 C910 1.389 . S
C912 C913 1.524 . S
C912 C926 1.377 . S
C913 C912 1.524 . S
C913 C914 1.397 . S
C913 C918 1.363 . S
C914 H891 0.950 . S
C914 C913 1.397 . S
C914 C915 1.334 . S
C915 H892 0.950 . S
C915 C914 1.334 . S
C915 C916 1.287 . S
C916 C915 1.287 . S
C916 C917 1.524 . S
C916 H935 0.913 . S
C917 H893 0.950 . S
C917 C916 1.524 . S
C917 C918 1.415 . S
C918 H894 0.950 . S
C918 C913 1.363 . S
C918 C917 1.415 . S
C919 H895 0.951 . S
C919 C920 1.366 . S
C919 C921 1.388 . S
C920 C919 1.366 . S
C920 C924 1.385 . S
C921 H896 0.951 . S
C921 C919 1.388 . S
C921 C922 1.366 . S
C922 C921 1.366 . S
C922 C923 1.414 . S
C922 C925 1.499 . S
C923 H897 0.950 . S
C923 C922 1.414 . S
C923 C924 1.374 . S
C924 H898 0.950 . S
C924 C920 1.385 . S
C924 C923 1.374 . S
C925 C922 1.499 . S
C925 C926 1.373 . S
C925 C927 1.389 . S
C926 H899 0.950 . S
C926 C912 1.377 . S
C926 C925 1.373 . S
C927 C911 1.377 . S
C927 C925 1.389 . S
C927 C928 1.524 . S
C928 C927 1.524 . S
C928 C929 1.397 . S
C928 C933 1.363 . S
C929 H900 0.950 . S
C929 C928 1.397 . S
C929 C930 1.334 . S
C930 H901 0.950 . S
C930 C929 1.334 . S
C930 C931 1.287 . S
C931 C930 1.287 . S
C931 C932 1.524 . S
C931 H934 0.999 . S
C932 H902 0.950 . S
C932 C931 1.524 . S
C932 C933 1.415 . S
C933 H903 0.950 . S
C933 C928 1.363 . S
C933 C932 1.415 . S
H934 C931 0.999 . S
H935 C916 0.913 . S
H936 C954 0.951 . S
H937 C956 0.951 . S
H938 C958 0.950 . S
H939 C959 0.950 . S
H940 C961 0.950 . S
H941 C964 0.950 . S
H942 C965 0.950 . S
H943 C967 0.950 . S
H944 C968 0.950 . S
H945 C969 0.951 . S
H946 C971 0.951 . S
H947 C973 0.950 . S
H948 C974 0.950 1_455 S
H949 C976 0.950 . S
H950 C979 0.950 . S
H951 C980 0.950 . S
H952 C982 0.950 . S
H953 C983 0.950 . S
C954 H936 0.951 . S
C954 C955 1.366 . S
C954 C956 1.388 . S
C955 C954 1.366 . S
C955 C959 1.385 . S
C956 H937 0.951 . S
C956 C954 1.388 . S
C956 C957 1.366 . S
C957 C956 1.366 . S
C957 C958 1.414 . S
C957 C960 1.499 . S
C958 H938 0.950 . S
C958 C957 1.414 . S
C958 C959 1.374 . S
C959 H939 0.950 . S
C959 C955 1.385 . S
C959 C958 1.374 . S
C960 C957 1.499 . S
C960 C961 1.373 . S
C960 C962 1.389 . S
C961 H940 0.950 . S
C961 C960 1.373 . S
C961 C977 1.377 . S
C962 C960 1.389 . S
C962 C963 1.524 . S
C962 C976 1.377 . S
C963 C962 1.524 . S
C963 C964 1.397 . S
C963 C968 1.363 . S
C964 H941 0.950 . S
C964 C963 1.397 . S
C964 C965 1.334 1_556 S
C965 H942 0.950 . S
C965 C964 1.334 1_554 S
C965 C966 1.287 . S
C966 C965 1.287 . S
C966 C967 1.524 1_554 S
C966 H985 0.913 . S
C967 H943 0.950 . S
C967 C966 1.524 1_556 S
C967 C968 1.415 . S
C968 H944 0.950 . S
C968 C963 1.363 . S
C968 C967 1.415 . S
C969 H945 0.951 . S
C969 C970 1.366 . S
C969 C971 1.388 . S
C970 C969 1.366 . S
C970 C974 1.385 . S
C971 H946 0.951 . S
C971 C969 1.388 . S
C971 C972 1.366 . S
C972 C971 1.366 . S
C972 C973 1.414 . S
C972 C975 1.499 . S
C973 H947 0.950 . S
C973 C972 1.414 . S
C973 C974 1.374 . S
C974 H948 0.950 1_655 S
C974 C970 1.385 . S
C974 C973 1.374 . S
C975 C972 1.499 . S
C975 C976 1.373 . S
C975 C977 1.389 . S
C976 H949 0.950 . S
C976 C962 1.377 . S
C976 C975 1.373 . S
C977 C961 1.377 . S
C977 C975 1.389 . S
C977 C978 1.524 . S
C978 C977 1.524 . S
C978 C979 1.397 . S
C978 C983 1.363 . S
C979 H950 0.950 . S
C979 C978 1.397 . S
C979 C980 1.334 . S
C980 H951 0.950 . S
C980 C979 1.334 . S
C980 C981 1.287 . S
C981 C980 1.287 . S
C981 C982 1.524 . S
C981 H984 0.999 . S
C982 H952 0.950 . S
C982 C981 1.524 . S
C982 C983 1.415 . S
C983 H953 0.950 . S
C983 C978 1.363 . S
C983 C982 1.415 . S
H984 C981 0.999 . S
H985 C966 0.913 . S
H986 C1004 0.951 1_554 S
H987 C1006 0.951 . S
H988 C1008 0.950 . S
H989 C1009 0.950 . S
H990 C1011 0.950 . S
H991 C1014 0.950 . S
H992 C1015 0.950 . S
H993 C1017 0.950 . S
H994 C1018 0.950 . S
H995 C1019 0.951 . S
H996 C1021 0.951 . S
H997 C1023 0.950 . S
H998 C1024 0.950 . S
H999 C1026 0.950 . S
H1000 C1029 0.950 . S
H1001 C1030 0.950 . S
H1002 C1032 0.950 . S
H1003 C1033 0.950 . S
C1004 H986 0.951 1_556 S
C1004 C1005 1.371 . S
C1004 C1006 1.388 . S
C1005 C1004 1.371 . S
C1005 C1009 1.377 1_565 S
C1006 H987 0.951 . S
C1006 C1004 1.388 . S
C1006 C1007 1.366 1_565 S
C1007 C1006 1.366 1_545 S
C1007 C1008 1.414 . S
C1007 C1010 1.499 . S
C1008 H988 0.950 . S
C1008 C1007 1.414 . S
C1008 C1009 1.374 . S
C1009 H989 0.950 . S
C1009 C1005 1.377 1_545 S
C1009 C1008 1.374 . S
C1010 C1007 1.499 . S
C1010 C1011 1.373 . S
C1010 C1012 1.389 1_545 S
C1011 H990 0.950 . S
C1011 C1010 1.373 . S
C1011 C1027 1.377 . S
C1012 C1010 1.389 1_565 S
C1012 C1013 1.524 . S
C1012 C1026 1.377 . S
C1013 C1012 1.524 . S
C1013 C1014 1.397 . S
C1013 C1018 1.363 . S
C1014 H991 0.950 . S
C1014 C1013 1.397 . S
C1014 C1015 1.334 . S
C1015 H992 0.950 . S
C1015 C1014 1.334 . S
C1015 C1016 1.287 . S
C1016 C1015 1.287 . S
C1016 C1017 1.524 . S
C1016 H1035 0.913 . S
C1017 H993 0.950 . S
C1017 C1016 1.524 . S
C1017 C1018 1.415 . S
C1018 H994 0.950 . S
C1018 C1013 1.363 . S
C1018 C1017 1.415 . S
C1019 H995 0.951 . S
C1019 C1020 1.366 . S
C1019 C1021 1.388 . S
C1020 C1019 1.366 . S
C1020 C1024 1.385 1_545 S
C1021 H996 0.951 . S
C1021 C1019 1.388 . S
C1021 C1022 1.366 . S
C1022 C1021 1.366 . S
C1022 C1023 1.414 1_545 S
C1022 C1025 1.499 . S
C1023 H997 0.950 . S
C1023 C1022 1.414 1_565 S
C1023 C1024 1.374 . S
C1024 H998 0.950 . S
C1024 C1020 1.385 1_565 S
C1024 C1023 1.374 . S
C1025 C1022 1.499 . S
C1025 C1026 1.373 1_545 S
C1025 C1027 1.389 . S
C1026 H999 0.950 . S
C1026 C1012 1.377 . S
C1026 C1025 1.373 1_565 S
C1027 C1011 1.377 . S
C1027 C1025 1.389 . S
C1027 C1028 1.524 . S
C1028 C1027 1.524 . S
C1028 C1029 1.397 . S
C1028 C1033 1.363 . S
C1029 H1000 0.950 . S
C1029 C1028 1.397 . S
C1029 C1030 1.334 . S
C1030 H1001 0.950 . S
C1030 C1029 1.334 . S
C1030 C1031 1.287 . S
C1031 C1030 1.287 . S
C1031 C1032 1.524 . S
C1031 H1034 0.999 . S
C1032 H1002 0.950 . S
C1032 C1031 1.524 . S
C1032 C1033 1.415 . S
C1033 H1003 0.950 . S
C1033 C1028 1.363 . S
C1033 C1032 1.415 . S
H1034 C1031 0.999 . S
H1035 C1016 0.913 . S
H1036 C1054 0.932 1_554 S
H1037 C1056 0.951 . S
H1038 C1058 0.950 . S
H1039 C1059 0.950 . S
H1040 C1061 0.950 . S
H1041 C1064 0.950 . S
H1042 C1065 0.950 . S
H1043 C1067 0.950 . S
H1044 C1068 0.950 . S
H1045 C1069 0.951 . S
H1046 C1071 0.951 . S
H1047 C1073 0.950 . S
H1048 C1074 0.950 . S
H1049 C1076 0.950 . S
H1050 C1079 0.950 . S
H1051 C1080 0.950 . S
H1052 C1082 0.950 . S
H1053 C1083 0.950 . S
C1054 H1036 0.932 1_556 S
C1054 C1055 1.366 . S
C1054 C1056 1.388 . S
C1055 C1054 1.366 . S
C1055 C1059 1.385 . S
C1056 H1037 0.951 . S
C1056 C1054 1.388 . S
C1056 C1057 1.366 . S
C1057 C1056 1.366 . S
C1057 C1058 1.414 . S
C1057 C1060 1.499 . S
C1058 H1038 0.950 . S
C1058 C1057 1.414 . S
C1058 C1059 1.374 . S
C1059 H1039 0.950 . S
C1059 C1055 1.385 . S
C1059 C1058 1.374 . S
C1060 C1057 1.499 . S
C1060 C1061 1.373 . S
C1060 C1062 1.389 . S
C1061 H1040 0.950 . S
C1061 C1060 1.373 . S
C1061 C1077 1.377 . S
C1062 C1060 1.389 . S
C1062 C1063 1.524 . S
C1062 C1076 1.377 . S
C1063 C1062 1.524 . S
C1063 C1064 1.397 . S
C1063 C1068 1.363 . S
C1064 H1041 0.950 . S
C1064 C1063 1.397 . S
C1064 C1065 1.334 . S
C1065 H1042 0.950 . S
C1065 C1064 1.334 . S
C1065 C1066 1.287 1_556 S
C1066 C1065 1.287 1_554 S
C1066 C1067 1.524 . S
C1066 H1085 0.913 . S
C1067 H1043 0.950 . S
C1067 C1066 1.524 . S
C1067 C1068 1.415 1_554 S
C1068 H1044 0.950 . S
C1068 C1063 1.363 . S
C1068 C1067 1.415 1_556 S
C1069 H1045 0.951 . S
C1069 C1070 1.366 . S
C1069 C1071 1.388 . S
C1070 C1069 1.366 . S
C1070 C1074 1.385 . S
C1071 H1046 0.951 . S
C1071 C1069 1.388 . S
C1071 C1072 1.366 . S
C1072 C1071 1.366 . S
C1072 C1073 1.414 . S
C1072 C1075 1.499 . S
C1073 H1047 0.950 . S
C1073 C1072 1.414 . S
C1073 C1074 1.374 . S
C1074 H1048 0.950 . S
C1074 C1070 1.385 . S
C1074 C1073 1.374 . S
C1075 C1072 1.499 . S
C1075 C1076 1.373 . S
C1075 C1077 1.389 . S
C1076 H1049 0.950 . S
C1076 C1062 1.377 . S
C1076 C1075 1.373 . S
C1077 C1061 1.377 . S
C1077 C1075 1.389 . S
C1077 C1078 1.524 . S
C1078 C1077 1.524 . S
C1078 C1079 1.397 . S
C1078 C1083 1.363 . S
C1079 H1050 0.950 . S
C1079 C1078 1.397 . S
C1079 C1080 1.334 . S
C1080 H1051 0.950 . S
C1080 C1079 1.334 . S
C1080 C1081 1.287 . S
C1081 C1080 1.287 . S
C1081 C1082 1.524 . S
C1081 H1084 0.999 . S
C1082 H1052 0.950 . S
C1082 C1081 1.524 . S
C1082 C1083 1.415 . S
C1083 H1053 0.950 . S
C1083 C1078 1.363 . S
C1083 C1082 1.415 . S
H1084 C1081 0.999 . S
H1085 C1066 0.913 . S
H1086 C1104 0.951 . S
H1087 C1106 0.951 . S
H1088 C1108 0.950 . S
H1089 C1109 0.950 . S
H1090 C1111 0.950 . S
H1091 C1114 0.950 . S
H1092 C1115 0.950 . S
H1093 C1117 0.950 1_554 S
H1094 C1118 0.950 . S
H1095 C1119 0.951 . S
H1096 C1121 0.951 . S
H1097 C1123 0.950 . S
H1098 C1124 0.950 . S
H1099 C1126 0.950 . S
H1100 C1129 0.950 . S
H1101 C1130 0.950 . S
H1102 C1132 0.950 . S
H1103 C1133 0.950 . S
C1104 H1086 0.951 . S
C1104 C1105 1.366 . S
C1104 C1106 1.388 . S
C1105 C1104 1.366 . S
C1105 C1109 1.385 . S
C1106 H1087 0.951 . S
C1106 C1104 1.388 . S
C1106 C1107 1.366 . S
C1107 C1106 1.366 . S
C1107 C1108 1.414 . S
C1107 C1110 1.499 . S
C1108 H1088 0.950 . S
C1108 C1107 1.414 . S
C1108 C1109 1.374 . S
C1109 H1089 0.950 . S
C1109 C1105 1.385 . S
C1109 C1108 1.374 . S
C1110 C1107 1.499 . S
C1110 C1111 1.373 . S
C1110 C1112 1.389 . S
C1111 H1090 0.950 . S
C1111 C1110 1.373 . S
C1111 C1127 1.377 . S
C1112 C1110 1.389 . S
C1112 C1113 1.524 . S
C1112 C1126 1.377 . S
C1113 C1112 1.524 . S
C1113 C1114 1.397 . S
C1113 C1118 1.363 . S
C1114 H1091 0.950 . S
C1114 C1113 1.397 . S
C1114 C1115 1.334 . S
C1115 H1092 0.950 . S
C1115 C1114 1.334 . S
C1115 C1116 1.287 . S
C1116 C1115 1.287 . S
C1116 C1117 1.524 . S
C1116 H1135 0.913 1_556 S
C1117 H1093 0.950 1_556 S
C1117 C1116 1.524 . S
C1117 C1118 1.415 . S
C1118 H1094 0.950 . S
C1118 C1113 1.363 . S
C1118 C1117 1.415 . S
C1119 H1095 0.951 . S
C1119 C1120 1.366 . S
C1119 C1121 1.388 . S
C1120 C1119 1.366 . S
C1120 C1124 1.385 . S
C1121 H1096 0.951 . S
C1121 C1119 1.388 . S
C1121 C1122 1.366 . S
C1122 C1121 1.366 . S
C1122 C1123 1.414 . S
C1122 C1125 1.499 . S
C1123 H1097 0.950 . S
C1123 C1122 1.414 . S
C1123 C1124 1.374 . S
C1124 H1098 0.950 . S
C1124 C1120 1.385 . S
C1124 C1123 1.374 . S
C1125 C1122 1.499 . S
C1125 C1126 1.373 . S
C1125 C1127 1.389 . S
C1126 H1099 0.950 . S
C1126 C1112 1.377 . S
C1126 C1125 1.373 . S
C1127 C1111 1.377 . S
C1127 C1125 1.389 . S
C1127 C1128 1.524 . S
C1128 C1127 1.524 . S
C1128 C1129 1.397 . S
C1128 C1133 1.363 . S
C1129 H1100 0.950 . S
C1129 C1128 1.397 . S
C1129 C1130 1.334 . S
C1130 H1101 0.950 . S
C1130 C1129 1.334 . S
C1130 C1131 1.287 . S
C1131 C1130 1.287 . S
C1131 C1132 1.524 . S
C1131 H1134 0.999 . S
C1132 H1102 0.950 . S
C1132 C1131 1.524 . S
C1132 C1133 1.415 . S
C1133 H1103 0.950 . S
C1133 C1128 1.363 . S
C1133 C1132 1.415 . S
H1134 C1131 0.999 . S
H1135 C1116 0.913 1_554 S
H1136 C1154 0.951 . S
H1137 C1156 0.951 . S
H1138 C1158 0.950 . S
H1139 C1159 0.950 . S
H1140 C1161 0.950 . S
H1141 C1164 0.950 . S
H1142 C1165 0.950 . S
H1143 C1167 0.950 . S
H1144 C1168 0.950 . S
H1145 C1169 0.951 . S
H1146 C1171 0.951 . S
H1147 C1173 0.950 . S
H1148 C1174 0.950 . S
H1149 C1176 0.950 . S
H1150 C1179 0.950 . S
H1151 C1180 0.950 . S
H1152 C1182 0.950 1_655 S
H1153 C1183 0.950 . S
C1154 H1136 0.951 . S
C1154 C1155 1.366 . S
C1154 C1156 1.388 . S
C1155 C1154 1.366 . S
C1155 C1159 1.385 . S
C1156 H1137 0.951 . S
C1156 C1154 1.388 . S
C1156 C1157 1.366 . S
C1157 C1156 1.366 . S
C1157 C1158 1.414 . S
C1157 C1160 1.499 . S
C1158 H1138 0.950 . S
C1158 C1157 1.414 . S
C1158 C1159 1.374 . S
C1159 H1139 0.950 . S
C1159 C1155 1.385 . S
C1159 C1158 1.374 . S
C1160 C1157 1.499 . S
C1160 C1161 1.373 . S
C1160 C1162 1.389 1_554 S
C1161 H1140 0.950 . S
C1161 C1160 1.373 . S
C1161 C1177 1.377 1_554 S
C1162 C1160 1.389 1_556 S
C1162 C1163 1.524 . S
C1162 C1176 1.377 . S
C1163 C1162 1.524 . S
C1163 C1164 1.397 . S
C1163 C1168 1.363 . S
C1164 H1141 0.950 . S
C1164 C1163 1.397 . S
C1164 C1165 1.334 . S
C1165 H1142 0.950 . S
C1165 C1164 1.334 . S
C1165 C1166 1.287 . S
C1166 C1165 1.287 . S
C1166 C1167 1.524 . S
C1166 H1185 0.913 . S
C1167 H1143 0.950 . S
C1167 C1166 1.524 . S
C1167 C1168 1.415 . S
C1168 H1144 0.950 . S
C1168 C1163 1.363 . S
C1168 C1167 1.415 . S
C1169 H1145 0.951 . S
C1169 C1170 1.366 . S
C1169 C1171 1.388 . S
C1170 C1169 1.366 . S
C1170 C1174 1.385 . S
C1171 H1146 0.951 . S
C1171 C1169 1.388 . S
C1171 C1172 1.366 . S
C1172 C1171 1.366 . S
C1172 C1173 1.414 . S
C1172 C1175 1.499 . S
C1173 H1147 0.950 . S
C1173 C1172 1.414 . S
C1173 C1174 1.374 . S
C1174 H1148 0.950 . S
C1174 C1170 1.385 . S
C1174 C1173 1.374 . S
C1175 C1172 1.499 . S
C1175 C1176 1.373 . S
C1175 C1177 1.389 . S
C1176 H1149 0.950 . S
C1176 C1162 1.377 . S
C1176 C1175 1.373 . S
C1177 C1161 1.377 1_556 S
C1177 C1175 1.389 . S
C1177 C1178 1.524 1_556 S
C1178 C1177 1.524 1_554 S
C1178 C1179 1.397 . S
C1178 C1183 1.363 . S
C1179 H1150 0.950 . S
C1179 C1178 1.397 . S
C1179 C1180 1.334 . S
C1180 H1151 0.950 . S
C1180 C1179 1.334 . S
C1180 C1181 1.287 . S
C1181 C1180 1.287 . S
C1181 C1182 1.524 . S
C1181 H1184 0.989 1_455 S
C1182 H1152 0.950 1_455 S
C1182 C1181 1.524 . S
C1182 C1183 1.415 . S
C1183 H1153 0.950 . S
C1183 C1178 1.363 . S
C1183 C1182 1.415 . S
H1184 C1181 0.989 1_655 S
H1185 C1166 0.913 . S
H1186 C1204 0.951 1_566 S
H1187 C1206 0.951 1_565 S
H1188 C1208 0.950 . S
H1189 C1209 0.950 . S
H1190 C1211 0.950 . S
H1191 C1214 0.950 . S
H1192 C1215 0.950 . S
H1193 C1217 0.950 . S
H1194 C1218 0.950 . S
H1195 C1219 0.951 . S
H1196 C1221 0.951 . S
H1197 C1223 0.940 1_565 S
H1198 C1224 0.952 . S
H1199 C1226 0.950 . S
H1200 C1229 0.950 . S
H1201 C1230 0.950 . S
H1202 C1232 0.950 . S
H1203 C1233 0.950 . S
C1204 H1186 0.951 1_544 S
C1204 C1205 1.366 . S
C1204 C1206 1.388 1_554 S
C1205 C1204 1.366 . S
C1205 C1209 1.385 . S
C1206 H1187 0.951 1_545 S
C1206 C1204 1.388 1_556 S
C1206 C1207 1.364 1_556 S
C1207 C1206 1.364 1_554 S
C1207 C1208 1.419 . S
C1207 C1210 1.496 1_554 S
C1208 H1188 0.950 . S
C1208 C1207 1.419 . S
C1208 C1209 1.374 . S
C1209 H1189 0.950 . S
C1209 C1205 1.385 . S
C1209 C1208 1.374 . S
C1210 C1207 1.496 1_556 S
C1210 C1211 1.373 . S
C1210 C1212 1.389 1_545 S
C1211 H1190 0.950 . S
C1211 C1210 1.373 . S
C1211 C1227 1.377 . S
C1212 C1210 1.389 1_565 S
C1212 C1213 1.524 . S
C1212 C1226 1.377 . S
C1213 C1212 1.524 . S
C1213 C1214 1.397 1_556 S
C1213 C1218 1.363 . S
C1214 H1191 0.950 . S
C1214 C1213 1.397 1_554 S
C1214 C1215 1.334 . S
C1215 H1192 0.950 . S
C1215 C1214 1.334 . S
C1215 C1216 1.287 1_554 S
C1216 C1215 1.287 1_556 S
C1216 C1217 1.524 . S
C1216 H1235 0.913 1_556 S
C1217 H1193 0.950 . S
C1217 C1216 1.524 . S
C1217 C1218 1.415 . S
C1218 H1194 0.950 . S
C1218 C1213 1.363 . S
C1218 C1217 1.415 . S
C1219 H1195 0.951 . S
C1219 C1220 1.366 . S
C1219 C1221 1.388 . S
C1220 C1219 1.366 . S
C1220 C1224 1.383 1_545 S
C1221 H1196 0.951 . S
C1221 C1219 1.388 . S
C1221 C1222 1.366 . S
C1222 C1221 1.366 . S
C1222 C1223 1.427 . S
C1222 C1225 1.499 . S
C1223 H1197 0.940 1_545 S
C1223 C1222 1.427 . S
C1223 C1224 1.371 1_545 S
C1224 H1198 0.952 . S
C1224 C1220 1.383 1_565 S
C1224 C1223 1.371 1_565 S
C1225 C1222 1.499 . S
C1225 C1226 1.373 1_545 S
C1225 C1227 1.389 . S
C1226 H1199 0.950 . S
C1226 C1212 1.377 . S
C1226 C1225 1.373 1_565 S
C1227 C1211 1.377 . S
C1227 C1225 1.389 . S
C1227 C1228 1.524 . S
C1228 C1227 1.524 . S
C1228 C1229 1.397 . S
C1228 C1233 1.363 . S
C1229 H1200 0.950 . S
C1229 C1228 1.397 . S
C1229 C1230 1.334 . S
C1230 H1201 0.950 . S
C1230 C1229 1.334 . S
C1230 C1231 1.287 . S
C1231 C1230 1.287 . S
C1231 C1232 1.524 . S
C1231 H1234 0.999 . S
C1232 H1202 0.950 . S
C1232 C1231 1.524 . S
C1232 C1233 1.415 . S
C1233 H1203 0.950 . S
C1233 C1228 1.363 . S
C1233 C1232 1.415 . S
H1234 C1231 0.999 . S
H1235 C1216 0.913 1_554 S
H1236 C1254 0.951 . S
H1237 C1256 0.951 1_556 S
H1238 C1258 0.950 . S
H1239 C1259 0.950 . S
H1240 C1261 0.950 1_554 S
H1241 C1264 0.950 . S
H1242 C1265 0.950 . S
H1243 C1267 0.950 . S
H1244 C1268 0.950 . S
H1245 C1269 0.951 . S
H1246 C1271 0.951 . S
H1247 C1273 0.950 . S
H1248 C1274 0.950 . S
H1249 C1276 0.950 . S
H1250 C1279 0.950 1_556 S
H1251 C1280 0.950 . S
H1252 C1282 0.950 . S
H1253 C1283 0.950 . S
C1254 H1236 0.951 . S
C1254 C1255 1.366 . S
C1254 C1256 1.388 . S
C1255 C1254 1.366 . S
C1255 C1259 1.385 . S
C1256 H1237 0.951 1_554 S
C1256 C1254 1.388 . S
C1256 C1257 1.366 . S
C1257 C1256 1.366 . S
C1257 C1258 1.414 . S
C1257 C1260 1.499 1_554 S
C1258 H1238 0.950 . S
C1258 C1257 1.414 . S
C1258 C1259 1.374 . S
C1259 H1239 0.950 . S
C1259 C1255 1.385 . S
C1259 C1258 1.374 . S
C1260 C1257 1.499 1_556 S
C1260 C1261 1.373 . S
C1260 C1262 1.389 . S
C1261 H1240 0.950 1_556 S
C1261 C1260 1.373 . S
C1261 C1277 1.377 . S
C1262 C1260 1.389 . S
C1262 C1263 1.524 . S
C1262 C1276 1.377 . S
C1263 C1262 1.524 . S
C1263 C1264 1.397 . S
C1263 C1268 1.363 . S
C1264 H1241 0.950 . S
C1264 C1263 1.397 . S
C1264 C1265 1.334 . S
C1265 H1242 0.950 . S
C1265 C1264 1.334 . S
C1265 C1266 1.287 . S
C1266 C1265 1.287 . S
C1266 C1267 1.524 . S
C1266 H1285 0.913 . S
C1267 H1243 0.950 . S
C1267 C1266 1.524 . S
C1267 C1268 1.415 . S
C1268 H1244 0.950 . S
C1268 C1263 1.363 . S
C1268 C1267 1.415 . S
C1269 H1245 0.951 . S
C1269 C1270 1.366 . S
C1269 C1271 1.388 . S
C1270 C1269 1.366 . S
C1270 C1274 1.385 . S
C1271 H1246 0.951 . S
C1271 C1269 1.388 . S
C1271 C1272 1.366 . S
C1272 C1271 1.366 . S
C1272 C1273 1.414 . S
C1272 C1275 1.499 . S
C1273 H1247 0.950 . S
C1273 C1272 1.414 . S
C1273 C1274 1.374 . S
C1274 H1248 0.950 . S
C1274 C1270 1.385 . S
C1274 C1273 1.374 . S
C1275 C1272 1.499 . S
C1275 C1276 1.373 . S
C1275 C1277 1.389 . S
C1276 H1249 0.950 . S
C1276 C1262 1.377 . S
C1276 C1275 1.373 . S
C1277 C1261 1.377 . S
C1277 C1275 1.389 . S
C1277 C1278 1.524 1_556 S
C1278 C1277 1.524 1_554 S
C1278 C1279 1.397 . S
C1278 C1283 1.363 . S
C1279 H1250 0.950 1_554 S
C1279 C1278 1.397 . S
C1279 C1280 1.334 . S
C1280 H1251 0.950 . S
C1280 C1279 1.334 . S
C1280 C1281 1.287 . S
C1281 C1280 1.287 . S
C1281 C1282 1.524 . S
C1281 H1284 0.999 . S
C1282 H1252 0.950 . S
C1282 C1281 1.524 . S
C1282 C1283 1.415 . S
C1283 H1253 0.950 . S
C1283 C1278 1.363 . S
C1283 C1282 1.415 . S
H1284 C1281 0.999 . S
H1285 C1266 0.913 . S
H1286 C1304 0.951 . S
H1287 C1306 0.951 . S
H1288 C1308 0.950 1_556 S
H1289 C1309 0.950 . S
H1290 C1311 0.950 . S
H1291 C1314 0.950 . S
H1292 C1315 0.950 . S
H1293 C1317 0.950 . S
H1294 C1318 0.950 . S
H1295 C1319 0.951 . S
H1296 C1321 0.951 . S
H1297 C1323 0.950 . S
H1298 C1324 0.950 . S
H1299 C1326 0.950 . S
H1300 C1329 0.950 . S
H1301 C1330 0.950 . S
H1302 C1332 0.950 . S
H1303 C1333 0.950 . S
C1304 H1286 0.951 . S
C1304 C1305 1.366 . S
C1304 C1306 1.388 . S
C1305 C1304 1.366 . S
C1305 C1309 1.385 . S
C1306 H1287 0.951 . S
C1306 C1304 1.388 . S
C1306 C1307 1.366 . S
C1307 C1306 1.366 . S
C1307 C1308 1.414 . S
C1307 C1310 1.499 1_554 S
C1308 H1288 0.950 1_554 S
C1308 C1307 1.414 . S
C1308 C1309 1.374 . S
C1309 H1289 0.950 . S
C1309 C1305 1.385 . S
C1309 C1308 1.374 . S
C1310 C1307 1.499 1_556 S
C1310 C1311 1.373 . S
C1310 C1312 1.389 1_556 S
C1311 H1290 0.950 . S
C1311 C1310 1.373 . S
C1311 C1327 1.377 . S
C1312 C1310 1.389 1_554 S
C1312 C1313 1.524 . S
C1312 C1326 1.377 1_554 S
C1313 C1312 1.524 . S
C1313 C1314 1.397 . S
C1313 C1318 1.363 . S
C1314 H1291 0.950 . S
C1314 C1313 1.397 . S
C1314 C1315 1.334 . S
C1315 H1292 0.950 . S
C1315 C1314 1.334 . S
C1315 C1316 1.287 . S
C1316 C1315 1.287 . S
C1316 C1317 1.524 . S
C1316 H1335 0.913 . S
C1317 H1293 0.950 . S
C1317 C1316 1.524 . S
C1317 C1318 1.415 . S
C1318 H1294 0.950 . S
C1318 C1313 1.363 . S
C1318 C1317 1.415 . S
C1319 H1295 0.951 . S
C1319 C1320 1.366 . S
C1319 C1321 1.388 . S
C1320 C1319 1.366 . S
C1320 C1324 1.385 . S
C1321 H1296 0.951 . S
C1321 C1319 1.388 . S
C1321 C1322 1.366 . S
C1322 C1321 1.366 . S
C1322 C1323 1.414 . S
C1322 C1325 1.499 . S
C1323 H1297 0.950 . S
C1323 C1322 1.414 . S
C1323 C1324 1.374 . S
C1324 H1298 0.950 . S
C1324 C1320 1.385 . S
C1324 C1323 1.374 . S
C1325 C1322 1.499 . S
C1325 C1326 1.373 . S
C1325 C1327 1.389 . S
C1326 H1299 0.950 . S
C1326 C1312 1.377 1_556 S
C1326 C1325 1.373 . S
C1327 C1311 1.377 . S
C1327 C1325 1.389 . S
C1327 C1328 1.524 . S
C1328 C1327 1.524 . S
C1328 C1329 1.397 . S
C1328 C1333 1.363 . S
C1329 H1300 0.950 . S
C1329 C1328 1.397 . S
C1329 C1330 1.334 . S
C1330 H1301 0.950 . S
C1330 C1329 1.334 . S
C1330 C1331 1.287 . S
C1331 C1330 1.287 . S
C1331 C1332 1.524 . S
C1331 H1334 0.999 . S
C1332 H1302 0.950 . S
C1332 C1331 1.524 . S
C1332 C1333 1.415 . S
C1333 H1303 0.950 . S
C1333 C1328 1.363 . S
C1333 C1332 1.415 . S
H1334 C1331 0.999 . S
H1335 C1316 0.913 . S
H1336 C1354 0.951 . S
H1337 C1356 0.951 . S
H1338 C1358 0.950 . S
H1339 C1359 0.950 . S
H1340 C1361 0.950 . S
H1341 C1364 0.950 . S
H1342 C1365 0.950 . S
H1343 C1367 0.950 . S
H1344 C1368 0.950 . S
H1345 C1369 0.951 . S
H1346 C1371 0.951 . S
H1347 C1373 0.950 . S
H1348 C1374 0.950 . S
H1349 C1376 0.950 . S
H1350 C1379 0.950 . S
H1351 C1380 0.950 . S
H1352 C1382 0.950 . S
H1353 C1383 0.950 . S
C1354 H1336 0.951 . S
C1354 C1355 1.366 . S
C1354 C1356 1.388 . S
C1355 C1354 1.366 . S
C1355 C1359 1.385 . S
C1356 H1337 0.951 . S
C1356 C1354 1.388 . S
C1356 C1357 1.366 . S
C1357 C1356 1.366 . S
C1357 C1358 1.414 . S
C1357 C1360 1.499 . S
C1358 H1338 0.950 . S
C1358 C1357 1.414 . S
C1358 C1359 1.374 . S
C1359 H1339 0.950 . S
C1359 C1355 1.385 . S
C1359 C1358 1.374 . S
C1360 C1357 1.499 . S
C1360 C1361 1.373 . S
C1360 C1362 1.389 . S
C1361 H1340 0.950 . S
C1361 C1360 1.373 . S
C1361 C1377 1.377 . S
C1362 C1360 1.389 . S
C1362 C1363 1.524 . S
C1362 C1376 1.377 . S
C1363 C1362 1.524 . S
C1363 C1364 1.397 . S
C1363 C1368 1.363 . S
C1364 H1341 0.950 . S
C1364 C1363 1.397 . S
C1364 C1365 1.334 . S
C1365 H1342 0.950 . S
C1365 C1364 1.334 . S
C1365 C1366 1.287 . S
C1366 C1365 1.287 . S
C1366 C1367 1.524 . S
C1366 H1385 0.913 . S
C1367 H1343 0.950 . S
C1367 C1366 1.524 . S
C1367 C1368 1.415 . S
C1368 H1344 0.950 . S
C1368 C1363 1.363 . S
C1368 C1367 1.415 . S
C1369 H1345 0.951 . S
C1369 C1370 1.366 . S
C1369 C1371 1.388 . S
C1370 C1369 1.366 . S
C1370 C1374 1.385 . S
C1371 H1346 0.951 . S
C1371 C1369 1.388 . S
C1371 C1372 1.366 . S
C1372 C1371 1.366 . S
C1372 C1373 1.414 . S
C1372 C1375 1.499 . S
C1373 H1347 0.950 . S
C1373 C1372 1.414 . S
C1373 C1374 1.374 . S
C1374 H1348 0.950 . S
C1374 C1370 1.385 . S
C1374 C1373 1.374 . S
C1375 C1372 1.499 . S
C1375 C1376 1.373 . S
C1375 C1377 1.389 . S
C1376 H1349 0.950 . S
C1376 C1362 1.377 . S
C1376 C1375 1.373 . S
C1377 C1361 1.377 . S
C1377 C1375 1.389 . S
C1377 C1378 1.524 . S
C1378 C1377 1.524 . S
C1378 C1379 1.397 . S
C1378 C1383 1.363 . S
C1379 H1350 0.950 . S
C1379 C1378 1.397 . S
C1379 C1380 1.334 . S
C1380 H1351 0.950 . S
C1380 C1379 1.334 . S
C1380 C1381 1.287 . S
C1381 C1380 1.287 . S
C1381 C1382 1.524 1_655 S
C1381 H1384 0.999 1_655 S
C1382 H1352 0.950 . S
C1382 C1381 1.524 1_455 S
C1382 C1383 1.415 1_455 S
C1383 H1353 0.950 . S
C1383 C1378 1.363 . S
C1383 C1382 1.415 1_655 S
H1384 C1381 0.999 1_455 S
H1385 C1366 0.913 . S
H1386 C1404 0.951 . S
H1387 C1406 0.951 . S
H1388 C1408 0.950 . S
H1389 C1409 0.950 . S
H1390 C1411 0.950 . S
H1391 C1414 0.950 . S
H1392 C1415 0.950 . S
H1393 C1417 0.935 1_545 S
H1394 C1418 0.999 . S
H1395 C1419 0.951 . S
H1396 C1421 0.951 . S
H1397 C1423 0.950 . S
H1398 C1424 0.950 . S
H1399 C1426 0.950 . S
H1400 C1429 0.950 . S
H1401 C1430 0.950 . S
H1402 C1432 0.950 . S
H1403 C1433 0.950 1_565 S
C1404 H1386 0.951 . S
C1404 C1405 1.372 . S
C1404 C1406 1.388 . S
C1405 C1404 1.372 . S
C1405 C1409 1.379 1_545 S
C1406 H1387 0.951 . S
C1406 C1404 1.388 . S
C1406 C1407 1.376 . S
C1407 C1406 1.376 . S
C1407 C1408 1.402 1_545 S
C1407 C1410 1.498 . S
C1408 H1388 0.950 . S
C1408 C1407 1.402 1_565 S
C1408 C1409 1.374 . S
C1409 H1389 0.950 . S
C1409 C1405 1.379 1_565 S
C1409 C1408 1.374 . S
C1410 C1407 1.498 . S
C1410 C1411 1.384 . S
C1410 C1412 1.384 1_545 S
C1411 H1390 0.950 . S
C1411 C1410 1.384 . S
C1411 C1427 1.377 . S
C1412 C1410 1.384 1_565 S
C1412 C1413 1.524 . S
C1412 C1426 1.376 . S
C1413 C1412 1.524 . S
C1413 C1414 1.397 . S
C1413 C1418 1.340 1_565 S
C1414 H1391 0.950 . S
C1414 C1413 1.397 . S
C1414 C1415 1.334 . S
C1415 H1392 0.950 . S
C1415 C1414 1.334 . S
C1415 C1416 1.287 . S
C1416 C1415 1.287 . S
C1416 C1417 1.524 . S
C1416 H1435 0.913 . S
C1417 H1393 0.935 1_565 S
C1417 C1416 1.524 . S
C1417 C1418 1.392 1_565 S
C1418 H1394 0.999 . S
C1418 C1413 1.340 1_545 S
C1418 C1417 1.392 1_545 S
C1419 H1395 0.951 . S
C1419 C1420 1.366 1_565 S
C1419 C1421 1.388 . S
C1420 C1419 1.366 1_545 S
C1420 C1424 1.385 . S
C1421 H1396 0.951 . S
C1421 C1419 1.388 . S
C1421 C1422 1.366 1_565 S
C1422 C1421 1.366 1_545 S
C1422 C1423 1.414 . S
C1422 C1425 1.499 . S
C1423 H1397 0.950 . S
C1423 C1422 1.414 . S
C1423 C1424 1.374 . S
C1424 H1398 0.950 . S
C1424 C1420 1.385 . S
C1424 C1423 1.374 . S
C1425 C1422 1.499 . S
C1425 C1426 1.374 1_545 S
C1425 C1427 1.389 . S
C1426 H1399 0.950 . S
C1426 C1412 1.376 . S
C1426 C1425 1.374 1_565 S
C1427 C1411 1.377 . S
C1427 C1425 1.389 . S
C1427 C1428 1.524 . S
C1428 C1427 1.524 . S
C1428 C1429 1.397 . S
C1428 C1433 1.363 . S
C1429 H1400 0.950 . S
C1429 C1428 1.397 . S
C1429 C1430 1.334 . S
C1430 H1401 0.950 . S
C1430 C1429 1.334 . S
C1430 C1431 1.287 . S
C1431 C1430 1.287 . S
C1431 C1432 1.524 . S
C1431 H1434 0.999 . S
C1432 H1402 0.950 . S
C1432 C1431 1.524 . S
C1432 C1433 1.415 . S
C1433 H1403 0.950 1_545 S
C1433 C1428 1.363 . S
C1433 C1432 1.415 . S
H1434 C1431 0.999 . S
H1435 C1416 0.913 . S
H1436 C1454 0.951 . S
H1437 C1456 0.951 . S
H1438 C1458 0.950 . S
H1439 C1459 0.950 . S
H1440 C1461 0.950 . S
H1441 C1464 0.950 . S
H1442 C1465 0.950 . S
H1443 C1467 0.950 . S
H1444 C1468 0.950 . S
H1445 C1469 0.951 . S
H1446 C1471 0.951 . S
H1447 C1473 0.950 . S
H1448 C1474 0.950 . S
H1449 C1476 0.950 . S
H1450 C1479 0.950 . S
H1451 C1480 0.950 . S
H1452 C1482 0.950 . S
H1453 C1483 0.950 . S
C1454 H1436 0.951 . S
C1454 C1455 1.366 . S
C1454 C1456 1.388 . S
C1455 C1454 1.366 . S
C1455 C1459 1.385 . S
C1456 H1437 0.951 . S
C1456 C1454 1.388 . S
C1456 C1457 1.366 . S
C1457 C1456 1.366 . S
C1457 C1458 1.414 . S
C1457 C1460 1.499 . S
C1458 H1438 0.950 . S
C1458 C1457 1.414 . S
C1458 C1459 1.374 . S
C1459 H1439 0.950 . S
C1459 C1455 1.385 . S
C1459 C1458 1.374 . S
C1460 C1457 1.499 . S
C1460 C1461 1.373 . S
C1460 C1462 1.389 . S
C1461 H1440 0.950 . S
C1461 C1460 1.373 . S
C1461 C1477 1.377 . S
C1462 C1460 1.389 . S
C1462 C1463 1.524 . S
C1462 C1476 1.377 . S
C1463 C1462 1.524 . S
C1463 C1464 1.397 . S
C1463 C1468 1.363 . S
C1464 H1441 0.950 . S
C1464 C1463 1.397 . S
C1464 C1465 1.334 . S
C1465 H1442 0.950 . S
C1465 C1464 1.334 . S
C1465 C1466 1.287 . S
C1466 C1465 1.287 . S
C1466 C1467 1.524 . S
C1466 H1485 0.913 . S
C1467 H1443 0.950 . S
C1467 C1466 1.524 . S
C1467 C1468 1.415 . S
C1468 H1444 0.950 . S
C1468 C1463 1.363 . S
C1468 C1467 1.415 . S
C1469 H1445 0.951 . S
C1469 C1470 1.366 . S
C1469 C1471 1.388 . S
C1470 C1469 1.366 . S
C1470 C1474 1.385 . S
C1471 H1446 0.951 . S
C1471 C1469 1.388 . S
C1471 C1472 1.366 . S
C1472 C1471 1.366 . S
C1472 C1473 1.414 . S
C1472 C1475 1.499 . S
C1473 H1447 0.950 . S
C1473 C1472 1.414 . S
C1473 C1474 1.374 . S
C1474 H1448 0.950 . S
C1474 C1470 1.385 . S
C1474 C1473 1.374 . S
C1475 C1472 1.499 . S
C1475 C1476 1.373 . S
C1475 C1477 1.389 . S
C1476 H1449 0.950 . S
C1476 C1462 1.377 . S
C1476 C1475 1.373 . S
C1477 C1461 1.377 . S
C1477 C1475 1.389 . S
C1477 C1478 1.524 . S
C1478 C1477 1.524 . S
C1478 C1479 1.397 . S
C1478 C1483 1.363 . S
C1479 H1450 0.950 . S
C1479 C1478 1.397 . S
C1479 C1480 1.334 . S
C1480 H1451 0.950 . S
C1480 C1479 1.334 . S
C1480 C1481 1.287 . S
C1481 C1480 1.287 . S
C1481 C1482 1.524 . S
C1481 H1484 0.999 . S
C1482 H1452 0.950 . S
C1482 C1481 1.524 . S
C1482 C1483 1.415 . S
C1483 H1453 0.950 . S
C1483 C1478 1.363 . S
C1483 C1482 1.415 . S
H1484 C1481 0.999 . S
H1485 C1466 0.913 . S
H1486 C1504 0.951 . S
H1487 C1506 0.951 . S
H1488 C1508 0.950 . S
H1489 C1509 0.950 . S
H1490 C1511 0.950 . S
H1491 C1514 0.950 . S
H1492 C1515 0.950 . S
H1493 C1517 0.950 . S
H1494 C1518 0.950 . S
H1495 C1519 0.951 . S
H1496 C1521 0.951 . S
H1497 C1523 0.950 . S
H1498 C1524 0.950 . S
H1499 C1526 0.950 . S
H1500 C1529 0.950 . S
H1501 C1530 0.950 . S
H1502 C1532 0.950 . S
H1503 C1533 0.950 . S
C1504 H1486 0.951 . S
C1504 C1505 1.366 . S
C1504 C1506 1.388 . S
C1505 C1504 1.366 . S
C1505 C1509 1.385 . S
C1506 H1487 0.951 . S
C1506 C1504 1.388 . S
C1506 C1507 1.366 . S
C1507 C1506 1.366 . S
C1507 C1508 1.414 . S
C1507 C1510 1.499 . S
C1508 H1488 0.950 . S
C1508 C1507 1.414 . S
C1508 C1509 1.374 . S
C1509 H1489 0.950 . S
C1509 C1505 1.385 . S
C1509 C1508 1.374 . S
C1510 C1507 1.499 . S
C1510 C1511 1.373 . S
C1510 C1512 1.389 . S
C1511 H1490 0.950 . S
C1511 C1510 1.373 . S
C1511 C1527 1.377 . S
C1512 C1510 1.389 . S
C1512 C1513 1.524 . S
C1512 C1526 1.377 . S
C1513 C1512 1.524 . S
C1513 C1514 1.397 . S
C1513 C1518 1.363 . S
C1514 H1491 0.950 . S
C1514 C1513 1.397 . S
C1514 C1515 1.334 . S
C1515 H1492 0.950 . S
C1515 C1514 1.334 . S
C1515 C1516 1.287 . S
C1516 C1515 1.287 . S
C1516 C1517 1.524 . S
C1516 H1535 0.913 . S
C1517 H1493 0.950 . S
C1517 C1516 1.524 . S
C1517 C1518 1.415 . S
C1518 H1494 0.950 . S
C1518 C1513 1.363 . S
C1518 C1517 1.415 . S
C1519 H1495 0.951 . S
C1519 C1520 1.366 . S
C1519 C1521 1.388 . S
C1520 C1519 1.366 . S
C1520 C1524 1.385 . S
C1521 H1496 0.951 . S
C1521 C1519 1.388 . S
C1521 C1522 1.366 . S
C1522 C1521 1.366 . S
C1522 C1523 1.414 . S
C1522 C1525 1.499 . S
C1523 H1497 0.950 . S
C1523 C1522 1.414 . S
C1523 C1524 1.374 . S
C1524 H1498 0.950 . S
C1524 C1520 1.385 . S
C1524 C1523 1.374 . S
C1525 C1522 1.499 . S
C1525 C1526 1.373 . S
C1525 C1527 1.389 . S
C1526 H1499 0.950 . S
C1526 C1512 1.377 . S
C1526 C1525 1.373 . S
C1527 C1511 1.377 . S
C1527 C1525 1.389 . S
C1527 C1528 1.524 . S
C1528 C1527 1.524 . S
C1528 C1529 1.397 . S
C1528 C1533 1.363 . S
C1529 H1500 0.950 . S
C1529 C1528 1.397 . S
C1529 C1530 1.334 . S
C1530 H1501 0.950 . S
C1530 C1529 1.334 . S
C1530 C1531 1.287 . S
C1531 C1530 1.287 . S
C1531 C1532 1.524 . S
C1531 H1534 0.999 . S
C1532 H1502 0.950 . S
C1532 C1531 1.524 . S
C1532 C1533 1.415 . S
C1533 H1503 0.950 . S
C1533 C1528 1.363 . S
C1533 C1532 1.415 . S
H1534 C1531 0.999 . S
H1535 C1516 0.913 . S
C355 C215 1.428 . S
C370 C257 1.450 . S
C420 C292 2.036 . S
C405 C247 2.017 . S
C470 C297 1.260 . S
C455 C151 1.218 . S
C520 C317 1.716 . S
C505 C183 1.708 . S
C570 C265 1.450 . S
C555 C87 1.419 . S
C605 C119 1.834 . S
C620 C282 2.036 . S
C655 C23 1.263 . S
C670 C305 1.260 . S
C705 C55 1.550 . S
C720 C325 1.716 . S
C770 C275 1.060 . S
C755 C189 1.070 . S
C820 C284 0.488 . S
C805 C221 0.488 . S
C870 C315 1.263 . S
C855 C253 1.278 . S
C905 C157 0.676 . S
C920 C335 0.668 . S
C955 C61 0.961 . S
C970 C264 1.060 . S
C1020 C295 0.491 . S
C1005 C93 0.499 1_565 S
C1070 C304 1.262 . S
C1055 C125 1.114 . S
C1105 C29 0.660 . S
C1120 C324 0.670 . S
C1155 C177 1.945 . S
C1170 C262 1.963 . S
C1205 C209 1.476 . S
C1220 C285 1.560 . S
C1270 C302 2.061 . S
C1255 C241 2.022 . S
C1320 C322 1.813 . S
C1305 C145 1.714 . S
C1355 C49 1.808 . S
C1370 C272 1.963 . S
C1420 C277 1.560 . S
C1405 C81 1.470 . S
C1470 C312 2.061 . S
C1455 C113 1.865 . S
C1505 C17 1.771 . S
C1520 C332 1.814 . S
