# Generated by pormake.
# Topology eea, (3,6)-cn, num edge types: 1
# Building blocks:
#     Node 0, Type 0, BuildingBlock: BELTOD_clean_linker_0, # of connection points: 3
#     Node 1, Type 0, BuildingBlock: BELTOD_clean_linker_0, # of connection points: 3
#     Node 2, Type 0, BuildingBlock: BELTOD_clean_linker_0, # of connection points: 3
#     Node 3, Type 0, BuildingBlock: BELTOD_clean_linker_0, # of connection points: 3
#     Node 4, Type 0, BuildingBlock: BELTOD_clean_linker_0, # of connection points: 3
#     Node 5, Type 0, BuildingBlock: BELTOD_clean_linker_0, # of connection points: 3
#     Node 6, Type 0, BuildingBlock: BELTOD_clean_linker_0, # of connection points: 3
#     Node 7, Type 0, BuildingBlock: BELTOD_clean_linker_0, # of connection points: 3
#     Node 8, Type 0, BuildingBlock: BELTOD_clean_linker_0, # of connection points: 3
#     Node 9, Type 0, BuildingBlock: BELTOD_clean_linker_0, # of connection points: 3
#     Node 10, Type 0, BuildingBlock: BELTOD_clean_linker_0, # of connection points: 3
#     Node 11, Type 0, BuildingBlock: BELTOD_clean_linker_0, # of connection points: 3
#     Node 12, Type 0, BuildingBlock: BELTOD_clean_linker_0, # of connection points: 3
#     Node 13, Type 0, BuildingBlock: BELTOD_clean_linker_0, # of connection points: 3
#     Node 14, Type 0, BuildingBlock: BELTOD_clean_linker_0, # of connection points: 3
#     Node 15, Type 0, BuildingBlock: BELTOD_clean_linker_0, # of connection points: 3
#     Node 16, Type 0, BuildingBlock: BELTOD_clean_linker_0, # of connection points: 3
#     Node 17, Type 0, BuildingBlock: BELTOD_clean_linker_0, # of connection points: 3
#     Node 18, Type 1, BuildingBlock: KUMJIN_clean_sbu_0, # of connection points: 6
#     Node 19, Type 1, BuildingBlock: KUMJIN_clean_sbu_0, # of connection points: 6
#     Node 20, Type 1, BuildingBlock: KUMJIN_clean_sbu_0, # of connection points: 6
#     Node 21, Type 1, BuildingBlock: KUMJIN_clean_sbu_0, # of connection points: 6
#     Node 22, Type 1, BuildingBlock: KUMJIN_clean_sbu_0, # of connection points: 6
#     Node 23, Type 1, BuildingBlock: KUMJIN_clean_sbu_0, # of connection points: 6
#     Node 24, Type 1, BuildingBlock: KUMJIN_clean_sbu_0, # of connection points: 6
#     Node 25, Type 1, BuildingBlock: KUMJIN_clean_sbu_0, # of connection points: 6
#     Node 26, Type 1, BuildingBlock: KUMJIN_clean_sbu_0, # of connection points: 6
#     Edge 27, Type (0, 1), BuildingBlock: KIFKEQ_clean_linker_1, # of connection points: 2
#     Edge 28, Type (0, 1), BuildingBlock: KIFKEQ_clean_linker_1, # of connection points: 2
#     Edge 29, Type (0, 1), BuildingBlock: KIFKEQ_clean_linker_1, # of connection points: 2
#     Edge 30, Type (0, 1), BuildingBlock: KIFKEQ_clean_linker_1, # of connection points: 2
#     Edge 31, Type (0, 1), BuildingBlock: KIFKEQ_clean_linker_1, # of connection points: 2
#     Edge 32, Type (0, 1), BuildingBlock: KIFKEQ_clean_linker_1, # of connection points: 2
#     Edge 33, Type (0, 1), BuildingBlock: KIFKEQ_clean_linker_1, # of connection points: 2
#     Edge 34, Type (0, 1), BuildingBlock: KIFKEQ_clean_linker_1, # of connection points: 2
#     Edge 35, Type (0, 1), BuildingBlock: KIFKEQ_clean_linker_1, # of connection points: 2
#     Edge 36, Type (0, 1), BuildingBlock: KIFKEQ_clean_linker_1, # of connection points: 2
#     Edge 37, Type (0, 1), BuildingBlock: KIFKEQ_clean_linker_1, # of connection points: 2
#     Edge 38, Type (0, 1), BuildingBlock: KIFKEQ_clean_linker_1, # of connection points: 2
#     Edge 39, Type (0, 1), BuildingBlock: KIFKEQ_clean_linker_1, # of connection points: 2
#     Edge 40, Type (0, 1), BuildingBlock: KIFKEQ_clean_linker_1, # of connection points: 2
#     Edge 41, Type (0, 1), BuildingBlock: KIFKEQ_clean_linker_1, # of connection points: 2
#     Edge 42, Type (0, 1), BuildingBlock: KIFKEQ_clean_linker_1, # of connection points: 2
#     Edge 43, Type (0, 1), BuildingBlock: KIFKEQ_clean_linker_1, # of connection points: 2
#     Edge 44, Type (0, 1), BuildingBlock: KIFKEQ_clean_linker_1, # of connection points: 2
#     Edge 45, Type (0, 1), BuildingBlock: KIFKEQ_clean_linker_1, # of connection points: 2
#     Edge 46, Type (0, 1), BuildingBlock: KIFKEQ_clean_linker_1, # of connection points: 2
#     Edge 47, Type (0, 1), BuildingBlock: KIFKEQ_clean_linker_1, # of connection points: 2
#     Edge 48, Type (0, 1), BuildingBlock: KIFKEQ_clean_linker_1, # of connection points: 2
#     Edge 49, Type (0, 1), BuildingBlock: KIFKEQ_clean_linker_1, # of connection points: 2
#     Edge 50, Type (0, 1), BuildingBlock: KIFKEQ_clean_linker_1, # of connection points: 2
#     Edge 51, Type (0, 1), BuildingBlock: KIFKEQ_clean_linker_1, # of connection points: 2
#     Edge 52, Type (0, 1), BuildingBlock: KIFKEQ_clean_linker_1, # of connection points: 2
#     Edge 53, Type (0, 1), BuildingBlock: KIFKEQ_clean_linker_1, # of connection points: 2
#     Edge 54, Type (0, 1), BuildingBlock: KIFKEQ_clean_linker_1, # of connection points: 2
#     Edge 55, Type (0, 1), BuildingBlock: KIFKEQ_clean_linker_1, # of connection points: 2
#     Edge 56, Type (0, 1), BuildingBlock: KIFKEQ_clean_linker_1, # of connection points: 2
#     Edge 57, Type (0, 1), BuildingBlock: KIFKEQ_clean_linker_1, # of connection points: 2
#     Edge 58, Type (0, 1), BuildingBlock: KIFKEQ_clean_linker_1, # of connection points: 2
#     Edge 59, Type (0, 1), BuildingBlock: KIFKEQ_clean_linker_1, # of connection points: 2
#     Edge 60, Type (0, 1), BuildingBlock: KIFKEQ_clean_linker_1, # of connection points: 2
#     Edge 61, Type (0, 1), BuildingBlock: KIFKEQ_clean_linker_1, # of connection points: 2
#     Edge 62, Type (0, 1), BuildingBlock: KIFKEQ_clean_linker_1, # of connection points: 2
#     Edge 63, Type (0, 1), BuildingBlock: KIFKEQ_clean_linker_1, # of connection points: 2
#     Edge 64, Type (0, 1), BuildingBlock: KIFKEQ_clean_linker_1, # of connection points: 2
#     Edge 65, Type (0, 1), BuildingBlock: KIFKEQ_clean_linker_1, # of connection points: 2
#     Edge 66, Type (0, 1), BuildingBlock: KIFKEQ_clean_linker_1, # of connection points: 2
#     Edge 67, Type (0, 1), BuildingBlock: KIFKEQ_clean_linker_1, # of connection points: 2
#     Edge 68, Type (0, 1), BuildingBlock: KIFKEQ_clean_linker_1, # of connection points: 2
#     Edge 69, Type (0, 1), BuildingBlock: KIFKEQ_clean_linker_1, # of connection points: 2
#     Edge 70, Type (0, 1), BuildingBlock: KIFKEQ_clean_linker_1, # of connection points: 2
#     Edge 71, Type (0, 1), BuildingBlock: KIFKEQ_clean_linker_1, # of connection points: 2
#     Edge 72, Type (0, 1), BuildingBlock: KIFKEQ_clean_linker_1, # of connection points: 2
#     Edge 73, Type (0, 1), BuildingBlock: KIFKEQ_clean_linker_1, # of connection points: 2
#     Edge 74, Type (0, 1), BuildingBlock: KIFKEQ_clean_linker_1, # of connection points: 2
#     Edge 75, Type (0, 1), BuildingBlock: KIFKEQ_clean_linker_1, # of connection points: 2
#     Edge 76, Type (0, 1), BuildingBlock: KIFKEQ_clean_linker_1, # of connection points: 2
#     Edge 77, Type (0, 1), BuildingBlock: KIFKEQ_clean_linker_1, # of connection points: 2
#     Edge 78, Type (0, 1), BuildingBlock: KIFKEQ_clean_linker_1, # of connection points: 2
#     Edge 79, Type (0, 1), BuildingBlock: KIFKEQ_clean_linker_1, # of connection points: 2
#     Edge 80, Type (0, 1), BuildingBlock: KIFKEQ_clean_linker_1, # of connection points: 2
# Relax obj value: 0.008
# Max RMSD: 0.087
# Mean RMSD: 0.067
data_MOF--net-eea--node1-KUMJIN_clean_sbu_0--node2-BELTOD_clean_linker_0--edge1-KIFKEQ_clean_linker_1
_symmetry_space_group_name_H-M    P1
_symmetry_Int_Tables_number       1
_symmetry_cell_setting            triclinic
loop_
_symmetry_equiv_pos_as_xyz
'x, y, z'
_cell_length_a     59.478287
_cell_length_b     60.578281
_cell_length_c     82.896643
_cell_angle_alpha  90.474309
_cell_angle_beta   90.152684
_cell_angle_gamma 120.0477
loop_
_atom_site_label
_atom_site_type_symbol
_atom_site_fract_x
_atom_site_fract_y
_atom_site_fract_z
_atom_type_partial_charge
P0 P 0.28382 0.142 0.41329 0.0
H1 H 0.2887 0.12179 0.38232 0.0
H2 H 0.26821 0.07866 0.3709 0.0
H3 H 0.22233 0.04946 0.41403 0.0
H4 H 0.24261 0.09281 0.42523 0.0
H5 H 0.30016 0.19581 0.41459 0.0
H6 H 0.28046 0.22032 0.40505 0.0
H7 H 0.21261 0.1505 0.38918 0.0
H8 H 0.23213 0.12609 0.39925 0.0
H9 H 0.30632 0.11851 0.4328 0.0
H10 H 0.26881 0.16275 0.4411 0.0
O11 O 0.31383 0.15752 0.40585 0.0
H12 H 0.31427 0.11873 0.46172 0.0
H13 H 0.27654 0.16293 0.47012 0.0
C14 C 0.26765 0.11032 0.40477 0.0
C15 C 0.27422 0.10609 0.3893 0.0
C16 C 0.26253 0.08144 0.38281 0.0
C17 C 0.24388 0.06059 0.39164 0.0
C18 C 0.23655 0.0651 0.4069 0.0
C19 C 0.2483 0.08982 0.41338 0.0
C20 C 0.26777 0.15922 0.40747 0.0
C21 C 0.28096 0.1858 0.40917 0.0
C22 C 0.26973 0.19978 0.40359 0.0
C23 C 0.2451 0.18741 0.39611 0.0
C24 C 0.23155 0.16062 0.39493 0.0
C25 C 0.24278 0.14663 0.40061 0.0
C26 C 0.28704 0.14061 0.4348 0.0
C27 C 0.29953 0.12802 0.44089 0.0
C28 C 0.30393 0.12806 0.45744 0.0
C29 C 0.29603 0.14085 0.46824 0.0
C30 C 0.28309 0.15312 0.4621 0.0
C31 C 0.27858 0.15296 0.4455 0.0
P32 P 0.91195 0.10601 0.43736 0.0
H33 H 0.91225 0.06663 0.41732 0.0
H34 H 0.87882 0.0313 0.40141 0.0
H35 H 0.82375 0.05526 0.41416 0.0
H36 H 0.85777 0.09128 0.42944 0.0
H37 H 0.96176 0.11813 0.42361 0.0
H38 H 0.99235 0.15218 0.40622 0.0
H39 H 0.94106 0.1833 0.4044 0.0
H40 H 0.91004 0.14861 0.42167 0.0
H41 H 0.87048 0.0765 0.45977 0.0
H42 H 0.92404 0.1561 0.45129 0.0
O43 O 0.92844 0.09395 0.44644 0.0
H44 H 0.85343 0.08775 0.48312 0.0
H45 H 0.9061 0.1677 0.47409 0.0
C46 C 0.88727 0.08109 0.42493 0.0
C47 C 0.89298 0.06429 0.41664 0.0
C48 C 0.87376 0.04398 0.40763 0.0
C49 C 0.84836 0.04004 0.40674 0.0
C50 C 0.84305 0.05766 0.41454 0.0
C51 C 0.86243 0.07815 0.42344 0.0
C52 C 0.93406 0.13138 0.42442 0.0
C53 C 0.95705 0.13228 0.41954 0.0
C54 C 0.97444 0.15162 0.40945 0.0
C55 C 0.96917 0.17049 0.40403 0.0
C56 C 0.94574 0.16917 0.40856 0.0
C57 C 0.9281 0.14948 0.41847 0.0
C58 C 0.89789 0.11543 0.45338 0.0
C59 C 0.87808 0.09648 0.46267 0.0
C60 C 0.86826 0.10299 0.47603 0.0
C61 C 0.8781 0.12871 0.48049 0.0
C62 C 0.89808 0.1477 0.47114 0.0
C63 C 0.9081 0.14109 0.45785 0.0
P64 P 0.86865 0.73793 0.41603 0.0
H65 H 0.82538 0.71673 0.39302 0.0
H66 H 0.79849 0.73233 0.38178 0.0
H67 H 0.84609 0.80503 0.40583 0.0
H68 H 0.87208 0.78831 0.41802 0.0
H69 H 0.90301 0.71711 0.41605 0.0
H70 H 0.94672 0.7321 0.40632 0.0
H71 H 0.95226 0.80318 0.39217 0.0
H72 H 0.90772 0.78746 0.40154 0.0
H73 H 0.82427 0.72398 0.43668 0.0
H74 H 0.90592 0.75082 0.44315 0.0
O75 O 0.85374 0.70708 0.41086 0.0
H76 H 0.81742 0.71595 0.46551 0.0
H77 H 0.8994 0.74343 0.47213 0.0
C78 C 0.85094 0.75137 0.40633 0.0
C79 C 0.83025 0.7361 0.39586 0.0
C80 C 0.81489 0.74524 0.38924 0.0
C81 C 0.82001 0.77016 0.39268 0.0
C82 C 0.84119 0.78565 0.40299 0.0
C83 C 0.85635 0.77625 0.40985 0.0
C84 C 0.90191 0.75101 0.40945 0.0
C85 C 0.91357 0.73595 0.41086 0.0
C86 C 0.9388 0.7447 0.4054 0.0
C87 C 0.95329 0.76899 0.3985 0.0
C88 C 0.94165 0.78428 0.39725 0.0
C89 C 0.91619 0.77538 0.40272 0.0
C90 C 0.86561 0.73823 0.43771 0.0
C91 C 0.84089 0.72887 0.44439 0.0
C92 C 0.83702 0.7243 0.46095 0.0
C93 C 0.85782 0.72889 0.47126 0.0
C94 C 0.88282 0.73927 0.46457 0.0
C95 C 0.88665 0.74377 0.44796 0.0
P96 P 0.13035 0.25927 0.60497 0.0
H97 H 0.10736 0.24102 0.63653 0.0
H98 H 0.06327 0.22463 0.64664 0.0
H99 H 0.03581 0.22134 0.59789 0.0
H100 H 0.07995 0.23811 0.58795 0.0
H101 H 0.1861 0.28202 0.60523 0.0
H102 H 0.21564 0.26773 0.61419 0.0
H103 H 0.15008 0.19414 0.62583 0.0
H104 H 0.12046 0.20903 0.61708 0.0
H105 H 0.12744 0.29862 0.58672 0.0
H106 H 0.13898 0.2352 0.57624 0.0
O107 O 0.14235 0.28717 0.61471 0.0
H108 H 0.13498 0.31118 0.55846 0.0
H109 H 0.14673 0.24779 0.54778 0.0
C110 C 0.09702 0.2407 0.61148 0.0
C111 C 0.09171 0.2361 0.62798 0.0
C112 C 0.06643 0.22672 0.63375 0.0
C113 C 0.04595 0.22192 0.62312 0.0
C114 C 0.05116 0.22525 0.60647 0.0
C115 C 0.07644 0.23463 0.60072 0.0
C116 C 0.15111 0.24671 0.6106 0.0
C117 C 0.17805 0.26275 0.60964 0.0
C118 C 0.19495 0.25444 0.61469 0.0
C119 C 0.18535 0.22969 0.62073 0.0
C120 C 0.1582 0.21341 0.62144 0.0
C121 C 0.14121 0.22184 0.61636 0.0
C122 C 0.13321 0.26632 0.58366 0.0
C123 C 0.13155 0.28734 0.57831 0.0
C124 C 0.13595 0.29456 0.56214 0.0
C125 C 0.14188 0.28074 0.55089 0.0
C126 C 0.14222 0.25885 0.55613 0.0
C127 C 0.13792 0.2517 0.5724 0.0
P128 P 0.81046 0.90431 0.57772 0.0
H129 H 0.84914 0.94694 0.59696 0.0
H130 H 0.84754 0.98001 0.61319 0.0
H131 H 0.76658 0.9483 0.60061 0.0
H132 H 0.76812 0.91496 0.58458 0.0
H133 H 0.78869 0.8495 0.57132 0.0
H134 H 0.78684 0.81513 0.58763 0.0
H135 H 0.8218 0.86765 0.62766 0.0
H136 H 0.82303 0.90175 0.61155 0.0
H137 H 0.81709 0.92097 0.54437 0.0
H138 H 0.7546 0.8673 0.57423 0.0
O139 O 0.84046 0.91671 0.57042 0.0
H140 H 0.78744 0.90862 0.52137 0.0
H141 H 0.72473 0.85441 0.55108 0.0
C142 C 0.80888 0.92871 0.58937 0.0
C143 C 0.83104 0.94711 0.59766 0.0
C144 C 0.83007 0.96587 0.60701 0.0
C145 C 0.80694 0.96669 0.60812 0.0
C146 C 0.7847 0.9482 0.59983 0.0
C147 C 0.7856 0.92916 0.59067 0.0
C148 C 0.80526 0.8781 0.59033 0.0
C149 C 0.79518 0.85348 0.58376 0.0
C150 C 0.79423 0.83386 0.59305 0.0
C151 C 0.80411 0.83879 0.6089 0.0
C152 C 0.81405 0.86339 0.61548 0.0
C153 C 0.81459 0.88285 0.60628 0.0
C154 C 0.78818 0.89458 0.56088 0.0
C155 C 0.79701 0.90628 0.54593 0.0
C156 C 0.78004 0.89915 0.53276 0.0
C157 C 0.75378 0.88028 0.53433 0.0
C158 C 0.74482 0.86902 0.54948 0.0
C159 C 0.7619 0.87619 0.56267 0.0
P160 P 0.13109 0.85999 0.60596 0.0
H161 H 0.15105 0.88295 0.63753 0.0
H162 H 0.17419 0.92715 0.64718 0.0
H163 H 0.16342 0.95208 0.60056 0.0
H164 H 0.14044 0.90777 0.59097 0.0
H165 H 0.09887 0.80518 0.60846 0.0
H166 H 0.05509 0.77741 0.61838 0.0
H167 H 0.04581 0.84303 0.62632 0.0
H168 H 0.09014 0.87085 0.61664 0.0
H169 H 0.17749 0.88332 0.58654 0.0
H170 H 0.0951 0.83616 0.57815 0.0
O171 O 0.14816 0.848 0.61435 0.0
H172 H 0.18547 0.88185 0.55782 0.0
H173 H 0.10289 0.83481 0.54923 0.0
C174 C 0.14462 0.89218 0.61345 0.0
C175 C 0.15345 0.89792 0.62945 0.0
C176 C 0.16654 0.9232 0.63497 0.0
C177 C 0.17092 0.94318 0.62458 0.0
C178 C 0.16079 0.93716 0.60877 0.0
C179 C 0.14759 0.91183 0.60328 0.0
C180 C 0.09782 0.84004 0.61198 0.0
C181 C 0.08737 0.81359 0.61227 0.0
C182 C 0.06223 0.79771 0.61787 0.0
C183 C 0.04684 0.80795 0.62318 0.0
C184 C 0.05723 0.83454 0.62253 0.0
C185 C 0.08251 0.85046 0.61691 0.0
C186 C 0.13576 0.85985 0.58448 0.0
C187 C 0.16108 0.87284 0.57846 0.0
C188 C 0.16559 0.87211 0.56199 0.0
C189 C 0.14481 0.85826 0.55117 0.0
C190 C 0.11934 0.84546 0.55725 0.0
C191 C 0.11485 0.8463 0.57379 0.0
P192 P 0.95536 0.47875 0.74535 0.0
H193 H 0.96412 0.45651 0.71636 0.0
H194 H 0.9434 0.413 0.70564 0.0
H195 H 0.89014 0.38728 0.74571 0.0
H196 H 0.91063 0.43113 0.7561 0.0
H197 H 0.95977 0.50944 0.71755 0.0
H198 H 0.93488 0.52897 0.70825 0.0
H199 H 0.88454 0.49864 0.74947 0.0
H200 H 0.90964 0.47893 0.75871 0.0
H201 H 0.96578 0.44621 0.76595 0.0
H202 H 0.95664 0.51208 0.7719 0.0
O203 O 0.98506 0.49494 0.73753 0.0
H204 H 0.97621 0.44797 0.79457 0.0
H205 H 0.96715 0.51396 0.80067 0.0
C206 C 0.93932 0.44683 0.73723 0.0
C207 C 0.94799 0.4415 0.72283 0.0
C208 C 0.93616 0.41659 0.71674 0.0
C209 C 0.91533 0.39657 0.72494 0.0
C210 C 0.90605 0.40224 0.73906 0.0
C211 C 0.91787 0.42723 0.7451 0.0
C212 C 0.93705 0.49348 0.73909 0.0
C213 C 0.9435 0.50712 0.72466 0.0
C214 C 0.92907 0.51803 0.71925 0.0
C215 C 0.9078 0.51539 0.72815 0.0
C216 C 0.90103 0.50124 0.74247 0.0
C217 C 0.91538 0.49008 0.74779 0.0
C218 C 0.95957 0.47848 0.76687 0.0
C219 C 0.96545 0.46073 0.77348 0.0
C220 C 0.97169 0.46191 0.78982 0.0
C221 C 0.97246 0.48108 0.79987 0.0
C222 C 0.96631 0.49874 0.79327 0.0
C223 C 0.96023 0.49763 0.77684 0.0
P224 P 0.57951 0.43975 0.77106 0.0
H225 H 0.55625 0.38472 0.7744 0.0
H226 H 0.52189 0.34846 0.75968 0.0
H227 H 0.51319 0.40012 0.72803 0.0
H228 H 0.5472 0.4364 0.74322 0.0
H229 H 0.62582 0.44853 0.75401 0.0
H230 H 0.65606 0.48232 0.73632 0.0
H231 H 0.60959 0.51869 0.73963 0.0
H232 H 0.57913 0.48449 0.75732 0.0
H233 H 0.53273 0.41179 0.79025 0.0
H234 H 0.59562 0.48936 0.78685 0.0
O235 O 0.59738 0.42982 0.78078 0.0
H236 H 0.51569 0.42341 0.81332 0.0
H237 H 0.57767 0.50172 0.80927 0.0
C238 C 0.55464 0.41324 0.75969 0.0
C239 C 0.5471 0.38826 0.76422 0.0
C240 C 0.52746 0.36751 0.75573 0.0
C241 C 0.51492 0.37131 0.74252 0.0
C242 C 0.52231 0.39647 0.73818 0.0
C243 C 0.54193 0.41725 0.74676 0.0
C244 C 0.60074 0.46449 0.75744 0.0
C245 C 0.6221 0.46376 0.75095 0.0
C246 C 0.63926 0.48297 0.74069 0.0
C247 C 0.63534 0.5033 0.73666 0.0
C248 C 0.61333 0.50348 0.74272 0.0
C249 C 0.59598 0.48402 0.75286 0.0
C250 C 0.56496 0.44984 0.78638 0.0
C251 C 0.54243 0.43156 0.79411 0.0
C252 C 0.5326 0.43832 0.80736 0.0
C253 C 0.54505 0.46364 0.81321 0.0
C254 C 0.56759 0.48199 0.80529 0.0
C255 C 0.57767 0.47505 0.7922 0.0
P256 P 0.53585 0.07291 0.74992 0.0
H257 H 0.49285 0.05153 0.72672 0.0
H258 H 0.46574 0.06683 0.71541 0.0
H259 H 0.5126 0.13949 0.73967 0.0
H260 H 0.5388 0.12306 0.75192 0.0
H261 H 0.5704 0.05232 0.74989 0.0
H262 H 0.61414 0.06751 0.74015 0.0
H263 H 0.61934 0.13851 0.72615 0.0
H264 H 0.57477 0.12257 0.73553 0.0
H265 H 0.49146 0.05917 0.77053 0.0
H266 H 0.57307 0.08588 0.77707 0.0
O267 O 0.52108 0.04204 0.74483 0.0
H268 H 0.48457 0.05131 0.79936 0.0
H269 H 0.56651 0.07866 0.80606 0.0
C270 C 0.51803 0.08616 0.74015 0.0
C271 C 0.4975 0.07083 0.72959 0.0
C272 C 0.48203 0.0798 0.72293 0.0
C273 C 0.48686 0.10461 0.72642 0.0
C274 C 0.50791 0.12018 0.73679 0.0
C275 C 0.52319 0.11095 0.74369 0.0
C276 C 0.56913 0.08615 0.74335 0.0
C277 C 0.58089 0.07118 0.74473 0.0
C278 C 0.60613 0.08005 0.73926 0.0
C279 C 0.62054 0.10438 0.7324 0.0
C280 C 0.6088 0.11958 0.7312 0.0
C281 C 0.58332 0.11056 0.73668 0.0
C282 C 0.53279 0.07336 0.77159 0.0
C283 C 0.50807 0.06408 0.77825 0.0
C284 C 0.50417 0.0596 0.79482 0.0
C285 C 0.52495 0.0642 0.80515 0.0
C286 C 0.54995 0.0745 0.79849 0.0
C287 C 0.5538 0.07891 0.78187 0.0
P288 P 0.7941 0.59009 0.93748 0.0
H289 H 0.7718 0.57285 0.96929 0.0
H290 H 0.72781 0.55624 0.97961 0.0
H291 H 0.69929 0.55031 0.93085 0.0
H292 H 0.74336 0.56739 0.92071 0.0
H293 H 0.8499 0.61343 0.93736 0.0
H294 H 0.87999 0.59967 0.94608 0.0
H295 H 0.81521 0.5259 0.95829 0.0
H296 H 0.78504 0.54025 0.9498 0.0
H297 H 0.79073 0.629 0.91897 0.0
H298 H 0.80239 0.56553 0.9089 0.0
O299 O 0.80597 0.61814 0.94702 0.0
H300 H 0.7982 0.64121 0.89065 0.0
H301 H 0.81004 0.57776 0.88038 0.0
C302 C 0.76094 0.57131 0.94423 0.0
C303 C 0.75595 0.56732 0.9608 0.0
C304 C 0.73072 0.55779 0.96669 0.0
C305 C 0.70995 0.55221 0.9561 0.0
C306 C 0.71486 0.55486 0.9394 0.0
C307 C 0.7401 0.56441 0.93354 0.0
C308 C 0.81527 0.57798 0.94305 0.0
C309 C 0.84213 0.59424 0.94186 0.0
C310 C 0.85936 0.58623 0.94676 0.0
C311 C 0.85013 0.56158 0.95288 0.0
C312 C 0.82304 0.5451 0.95383 0.0
C313 C 0.80574 0.55322 0.9489 0.0
C314 C 0.79656 0.5967 0.91612 0.0
C315 C 0.79481 0.61761 0.91064 0.0
C316 C 0.79917 0.62463 0.89443 0.0
C317 C 0.80514 0.61071 0.88328 0.0
C318 C 0.8055 0.58889 0.88865 0.0
C319 C 0.80125 0.58194 0.90496 0.0
P320 P 0.48345 0.24026 0.91034 0.0
H321 H 0.52097 0.29418 0.91585 0.0
H322 H 0.51925 0.32773 0.93107 0.0
H323 H 0.44074 0.27398 0.94556 0.0
H324 H 0.44225 0.24071 0.92944 0.0
H325 H 0.48264 0.19339 0.902 0.0
H326 H 0.47963 0.15839 0.91792 0.0
H327 H 0.46857 0.19261 0.96097 0.0
H328 H 0.47328 0.22824 0.9451 0.0
H329 H 0.4879 0.25904 0.87768 0.0
H330 H 0.42845 0.20086 0.90712 0.0
O331 O 0.51314 0.25228 0.9026 0.0
H332 H 0.45736 0.24626 0.85509 0.0
H333 H 0.3977 0.18764 0.88442 0.0
C334 C 0.48188 0.26485 0.92175 0.0
C335 C 0.50336 0.28956 0.92228 0.0
C336 C 0.5024 0.30876 0.93114 0.0
C337 C 0.47999 0.30358 0.93981 0.0
C338 C 0.45827 0.27878 0.93897 0.0
C339 C 0.45915 0.25966 0.92988 0.0
C340 C 0.47795 0.21331 0.92228 0.0
C341 C 0.47935 0.1932 0.91486 0.0
C342 C 0.47743 0.17307 0.924 0.0
C343 C 0.4738 0.17252 0.94081 0.0
C344 C 0.47176 0.1925 0.94813 0.0
C345 C 0.47409 0.21283 0.93898 0.0
C346 C 0.46058 0.23048 0.8939 0.0
C347 C 0.4683 0.24333 0.87922 0.0
C348 C 0.45083 0.23596 0.86631 0.0
C349 C 0.42519 0.21572 0.86789 0.0
C350 C 0.4173 0.20333 0.88282 0.0
C351 C 0.43488 0.21072 0.89575 0.0
P352 P 0.79837 0.19275 0.9393 0.0
H353 H 0.7925 0.21981 0.96692 0.0
H354 H 0.81599 0.26487 0.97515 0.0
H355 H 0.85777 0.28407 0.93025 0.0
H356 H 0.8339 0.2394 0.92184 0.0
H357 H 0.76956 0.13976 0.94874 0.0
H358 H 0.72645 0.11318 0.95999 0.0
H359 H 0.71088 0.17528 0.95519 0.0
H360 H 0.75405 0.20163 0.94345 0.0
H361 H 0.8426 0.19647 0.9223 0.0
H362 H 0.76467 0.17853 0.91027 0.0
O363 O 0.81633 0.18428 0.9503 0.0
H364 H 0.85058 0.19114 0.89419 0.0
H365 H 0.77215 0.17215 0.88192 0.0
C366 C 0.811 0.22616 0.94362 0.0
C367 C 0.80601 0.23381 0.95858 0.0
C368 C 0.81948 0.25952 0.96331 0.0
C369 C 0.83867 0.27784 0.95332 0.0
C370 C 0.84307 0.27026 0.93816 0.0
C371 C 0.82932 0.24467 0.93334 0.0
C372 C 0.76524 0.17285 0.94566 0.0
C373 C 0.75683 0.14763 0.95002 0.0
C374 C 0.73222 0.13252 0.95659 0.0
C375 C 0.7154 0.14228 0.95889 0.0
C376 C 0.72338 0.1672 0.95368 0.0
C377 C 0.7481 0.18233 0.94703 0.0
C378 C 0.8029 0.1874 0.91842 0.0
C379 C 0.82701 0.19092 0.9136 0.0
C380 C 0.8315 0.18775 0.89747 0.0
C381 C 0.81189 0.1808 0.88573 0.0
C382 C 0.78773 0.17757 0.89059 0.0
C383 C 0.78333 0.18099 0.90682 0.0
P384 P 0.62247 0.81157 0.07869 0.0
H385 H 0.6303 0.78999 0.04909 0.0
H386 H 0.60898 0.7468 0.03782 0.0
H387 H 0.55641 0.7203 0.07823 0.0
H388 H 0.57747 0.76385 0.08918 0.0
H389 H 0.62876 0.84367 0.05131 0.0
H390 H 0.60498 0.8643 0.04192 0.0
H391 H 0.55288 0.83327 0.0823 0.0
H392 H 0.57688 0.81246 0.09163 0.0
H393 H 0.63209 0.77819 0.09897 0.0
H394 H 0.62353 0.8443 0.10558 0.0
O395 O 0.65239 0.8273 0.07113 0.0
H396 H 0.64225 0.77924 0.1276 0.0
H397 H 0.63372 0.84544 0.13434 0.0
C398 C 0.60591 0.77989 0.07019 0.0
C399 C 0.61419 0.77488 0.05552 0.0
C400 C 0.60201 0.75015 0.04911 0.0
C401 C 0.58122 0.72999 0.05724 0.0
C402 C 0.57228 0.73537 0.07162 0.0
C403 C 0.58445 0.76019 0.07798 0.0
C404 C 0.60508 0.82726 0.07244 0.0
C405 C 0.61235 0.84145 0.05823 0.0
C406 C 0.59856 0.853 0.05277 0.0
C407 C 0.57709 0.85045 0.0614 0.0
C408 C 0.56954 0.83581 0.07553 0.0
C409 C 0.58326 0.82401 0.08089 0.0
C410 C 0.6262 0.81064 0.10021 0.0
C411 C 0.6318 0.7926 0.10665 0.0
C412 C 0.63788 0.79337 0.12299 0.0
C413 C 0.63875 0.8124 0.13322 0.0
C414 C 0.63281 0.83032 0.1268 0.0
C415 C 0.6269 0.82963 0.11037 0.0
P416 P 0.24629 0.76956 0.10528 0.0
H417 H 0.23756 0.72015 0.09382 0.0
H418 H 0.20283 0.68588 0.07808 0.0
H419 H 0.16555 0.73109 0.07291 0.0
H420 H 0.20029 0.7652 0.08916 0.0
H421 H 0.29357 0.77723 0.09022 0.0
H422 H 0.32601 0.81062 0.07342 0.0
H423 H 0.28231 0.85009 0.07491 0.0
H424 H 0.24903 0.81555 0.09111 0.0
H425 H 0.20069 0.74121 0.12508 0.0
H426 H 0.26183 0.81951 0.12076 0.0
O427 O 0.26183 0.75704 0.115 0.0
H428 H 0.18379 0.75282 0.14855 0.0
H429 H 0.24426 0.83131 0.14388 0.0
C430 C 0.22125 0.74502 0.09285 0.0
C431 C 0.22192 0.72272 0.08933 0.0
C432 C 0.2021 0.70317 0.08018 0.0
C433 C 0.1813 0.70565 0.07422 0.0
C434 C 0.18104 0.72837 0.07751 0.0
C435 C 0.20093 0.74794 0.08671 0.0
C436 C 0.26946 0.79446 0.09249 0.0
C437 C 0.29098 0.79311 0.08699 0.0
C438 C 0.30963 0.81235 0.07741 0.0
C439 C 0.30726 0.83352 0.0731 0.0
C440 C 0.28491 0.83418 0.078 0.0
C441 C 0.266 0.81461 0.08745 0.0
C442 C 0.23198 0.77961 0.12076 0.0
C443 C 0.21005 0.76102 0.12887 0.0
C444 C 0.2005 0.7676 0.14234 0.0
C445 C 0.21264 0.79296 0.14789 0.0
C446 C 0.23435 0.8117 0.13964 0.0
C447 C 0.24426 0.80498 0.12634 0.0
P448 P 0.20147 0.40732 0.08391 0.0
H449 H 0.15576 0.38477 0.0628 0.0
H450 H 0.12765 0.40005 0.05258 0.0
H451 H 0.17765 0.47386 0.07428 0.0
H452 H 0.20569 0.45815 0.08512 0.0
H453 H 0.23816 0.38959 0.08659 0.0
H454 H 0.28186 0.40497 0.07675 0.0
H455 H 0.28312 0.47185 0.05775 0.0
H456 H 0.23857 0.45556 0.06717 0.0
H457 H 0.15578 0.38902 0.10394 0.0
H458 H 0.23823 0.42227 0.11162 0.0
O459 O 0.18759 0.37681 0.07808 0.0
H460 H 0.14838 0.38038 0.13268 0.0
H461 H 0.23106 0.41406 0.1405 0.0
C462 C 0.18312 0.42039 0.07462 0.0
C463 C 0.16105 0.40435 0.06529 0.0
C464 C 0.14486 0.41306 0.05944 0.0
C465 C 0.15052 0.43811 0.06262 0.0
C466 C 0.17302 0.45451 0.07156 0.0
C467 C 0.18904 0.44559 0.0777 0.0
C468 C 0.23501 0.42137 0.0777 0.0
C469 C 0.24786 0.40767 0.0804 0.0
C470 C 0.27307 0.41666 0.07484 0.0
C471 C 0.28635 0.43985 0.0665 0.0
C472 C 0.27351 0.45382 0.06398 0.0
C473 C 0.24804 0.44464 0.06952 0.0
C474 C 0.19753 0.4064 0.10556 0.0
C475 C 0.17239 0.39506 0.11188 0.0
C476 C 0.16819 0.39015 0.12839 0.0
C477 C 0.1891 0.39639 0.13901 0.0
C478 C 0.21444 0.40864 0.13269 0.0
C479 C 0.21861 0.41354 0.11613 0.0
P480 P 0.46374 0.92502 0.27137 0.0
H481 H 0.4412 0.90734 0.3031 0.0
H482 H 0.39719 0.89085 0.31337 0.0
H483 H 0.36902 0.88609 0.26463 0.0
H484 H 0.4131 0.90302 0.25454 0.0
H485 H 0.51953 0.94818 0.27151 0.0
H486 H 0.54939 0.93408 0.28011 0.0
H487 H 0.4843 0.86017 0.29171 0.0
H488 H 0.45434 0.87487 0.28333 0.0
H489 H 0.46046 0.96413 0.25305 0.0
H490 H 0.47218 0.90079 0.24267 0.0
O491 O 0.47571 0.95299 0.28103 0.0
H492 H 0.46786 0.97655 0.22476 0.0
H493 H 0.47978 0.91323 0.21419 0.0
C494 C 0.43051 0.90634 0.27805 0.0
C495 C 0.42541 0.90209 0.2946 0.0
C496 C 0.40018 0.89264 0.30046 0.0
C497 C 0.3795 0.8874 0.28987 0.0
C498 C 0.38451 0.89036 0.27318 0.0
C499 C 0.40976 0.89983 0.26735 0.0
C500 C 0.48475 0.91269 0.27689 0.0
C501 C 0.51164 0.92889 0.27585 0.0
C502 C 0.52874 0.92069 0.28069 0.0
C503 C 0.51936 0.8959 0.28659 0.0
C504 C 0.49224 0.87948 0.28741 0.0
C505 C 0.47506 0.8878 0.28254 0.0
C506 C 0.46632 0.93187 0.25004 0.0
C507 C 0.46455 0.95282 0.24466 0.0
C508 C 0.46888 0.95996 0.22847 0.0
C509 C 0.47484 0.94614 0.21724 0.0
C510 C 0.47525 0.92429 0.22252 0.0
C511 C 0.47103 0.91723 0.2388 0.0
P512 P 0.14839 0.57302 0.24225 0.0
H513 H 0.17901 0.60248 0.26984 0.0
H514 H 0.17831 0.6354 0.28672 0.0
H515 H 0.11253 0.62734 0.25944 0.0
H516 H 0.11304 0.5941 0.24284 0.0
H517 H 0.16485 0.5359 0.23652 0.0
H518 H 0.16137 0.50048 0.25232 0.0
H519 H 0.11806 0.51483 0.28862 0.0
H520 H 0.12188 0.55046 0.27277 0.0
H521 H 0.15221 0.59174 0.20958 0.0
H522 H 0.09386 0.53249 0.239 0.0
O523 O 0.17828 0.58722 0.23461 0.0
H524 H 0.12148 0.57835 0.18706 0.0
H525 H 0.06294 0.51868 0.21637 0.0
C526 C 0.14623 0.59598 0.25506 0.0
C527 C 0.16435 0.60772 0.26758 0.0
C528 C 0.164 0.62661 0.27715 0.0
C529 C 0.14549 0.63414 0.27434 0.0
C530 C 0.1269 0.62184 0.262 0.0
C531 C 0.12728 0.6029 0.25243 0.0
C532 C 0.14413 0.5461 0.25365 0.0
C533 C 0.15458 0.53138 0.24787 0.0
C534 C 0.1524 0.51102 0.25687 0.0
C535 C 0.13957 0.50493 0.27179 0.0
C536 C 0.12843 0.51932 0.27731 0.0
C537 C 0.13056 0.53965 0.26825 0.0
C538 C 0.12546 0.56271 0.2258 0.0
C539 C 0.13282 0.57567 0.21113 0.0
C540 C 0.11525 0.56795 0.19826 0.0
C541 C 0.08986 0.54725 0.19987 0.0
C542 C 0.08234 0.53471 0.21477 0.0
C543 C 0.10002 0.54244 0.22765 0.0
P544 P 0.46408 0.52501 0.27291 0.0
H545 H 0.48938 0.5456 0.30389 0.0
H546 H 0.51393 0.58896 0.31482 0.0
H547 H 0.49682 0.61759 0.27167 0.0
H548 H 0.47168 0.57398 0.26102 0.0
H549 H 0.43276 0.4712 0.28043 0.0
H550 H 0.38991 0.44571 0.29231 0.0
H551 H 0.37994 0.51163 0.29291 0.0
H552 H 0.42309 0.53714 0.28087 0.0
H553 H 0.50796 0.55367 0.25203 0.0
H554 H 0.4268 0.49787 0.24622 0.0
O555 O 0.48083 0.51145 0.27945 0.0
H556 H 0.51422 0.55267 0.22308 0.0
H557 H 0.43277 0.49704 0.21701 0.0
C558 C 0.47935 0.5567 0.28148 0.0
C559 C 0.49076 0.5612 0.29684 0.0
C560 C 0.50489 0.58602 0.30304 0.0
C561 C 0.50777 0.60682 0.294 0.0
C562 C 0.495 0.60203 0.27896 0.0
C563 C 0.48079 0.57713 0.27279 0.0
C564 C 0.43129 0.50615 0.28007 0.0
C565 C 0.42138 0.4802 0.28308 0.0
C566 C 0.39692 0.46568 0.28997 0.0
C567 C 0.38173 0.47677 0.29385 0.0
C568 C 0.39123 0.50257 0.29012 0.0
C569 C 0.41588 0.51717 0.28328 0.0
C570 C 0.46688 0.52615 0.25126 0.0
C571 C 0.49134 0.54158 0.24444 0.0
C572 C 0.49486 0.54105 0.22784 0.0
C573 C 0.47397 0.52487 0.21764 0.0
C574 C 0.44931 0.5096 0.22451 0.0
C575 C 0.44581 0.5102 0.24121 0.0
Eu576 Eu 0.48647 0.98102 0.99107 0.0
C577 C 0.54709 0.07899 0.03416 0.0
C578 C 0.59235 0.09054 0.03291 0.0
C579 C 0.58084 0.12354 0.03638 0.0
C580 C 0.56574 0.07194 0.03235 0.0
C581 C 0.55441 0.10481 0.03652 0.0
C582 C 0.59978 0.11641 0.03458 0.0
C583 C 0.50907 0.09146 0.04026 0.0
N584 N 0.52177 0.06041 0.03439 0.0
C585 C 0.5028 0.0661 0.03797 0.0
C586 C 0.53496 0.11094 0.03935 0.0
Eu587 Eu 0.51254 0.01814 0.02944 0.0
N588 N 0.5579 0.04677 0.03087 0.0
C589 C 0.57566 0.03876 0.0311 0.0
C590 C 0.61068 0.08252 0.03221 0.0
C591 C 0.60227 0.05649 0.03155 0.0
H592 H 0.48275 0.05108 0.03856 0.0
H593 H 0.61628 0.05005 0.03129 0.0
H594 H 0.62012 0.131 0.03487 0.0
H595 H 0.49394 0.09596 0.04271 0.0
H596 H 0.56946 0.01873 0.0305 0.0
H597 H 0.38313 0.95086 0.99329 0.0
H598 H 0.63131 0.09621 0.03254 0.0
H599 H 0.5141 0.94764 0.97861 0.0
H600 H 0.43006 0.98149 0.99283 0.0
H601 H 0.50173 0.90285 0.97275 0.0
H602 H 0.58685 0.14351 0.03803 0.0
H603 H 0.3671 0.90458 0.99089 0.0
H604 H 0.37711 0.86931 0.98634 0.0
H605 H 0.53978 0.13056 0.0412 0.0
H606 H 0.40939 0.85622 0.98064 0.0
N607 N 0.44084 0.95296 0.99065 0.0
C608 C 0.42348 0.96142 0.99171 0.0
C609 C 0.38779 0.91797 0.99068 0.0
C610 C 0.40561 0.90954 0.98859 0.0
C611 C 0.39677 0.94407 0.992 0.0
C612 C 0.43234 0.92777 0.9885 0.0
H613 H 0.45587 0.86864 0.97526 0.0
N614 N 0.47574 0.9387 0.98461 0.0
C615 C 0.4871 0.9075 0.97636 0.0
C616 C 0.4504 0.9204 0.98537 0.0
C617 C 0.49403 0.93282 0.97963 0.0
C618 C 0.46121 0.88824 0.97783 0.0
C619 C 0.44241 0.8946 0.98216 0.0
O620 O 0.50361 0.98631 0.96707 0.0
O621 O 0.51977 0.01364 1.0036 0.0
O622 O 0.50872 0.0433 0.01099 0.0
O623 O 0.47588 0.01224 0.99479 0.0
O624 O 0.529 0.99378 0.98708 0.0
O625 O 0.47291 0.99485 0.97114 0.0
O626 O 0.49466 0.01349 0.05311 0.0
O627 O 0.47986 0.98475 0.01709 0.0
O628 O 0.494 0.95644 0.00828 0.0
O629 O 0.52356 0.98725 0.02643 0.0
O630 O 0.46951 0.00418 0.03306 0.0
O631 O 0.52684 0.00671 0.05025 0.0
C632 C 0.53842 0.01279 0.99705 0.0
C633 C 0.47645 0.98153 0.94489 0.0
C634 C 0.47366 0.98497 0.91563 0.0
C635 C 0.48532 0.99584 0.93066 0.0
C636 C 0.45321 0.95949 0.91513 0.0
C637 C 0.45609 0.95619 0.94407 0.0
C638 C 0.44459 0.94525 0.92924 0.0
C639 C 0.49019 0.03616 0.99996 0.0
C640 C 0.48827 0.99334 0.96055 0.0
C641 C 0.41592 0.87617 0.98292 0.0
C642 C 0.39754 0.88363 0.98616 0.0
C643 C 0.46067 0.98457 0.02358 0.0
C644 C 0.52184 0.02136 0.07578 0.0
C645 C 0.51461 0.00782 0.09037 0.0
C646 C 0.52504 0.02051 0.10524 0.0
C647 C 0.54261 0.04699 0.10513 0.0
C648 C 0.53949 0.04764 0.07605 0.0
C649 C 0.54976 0.06035 0.09066 0.0
C650 C 0.51159 0.9639 0.02003 0.0
C651 C 0.51074 0.00803 0.06034 0.0
H652 H 0.50093 0.0155 0.93133 0.0
H653 H 0.44406 0.95043 0.90377 0.0
H654 H 0.44905 0.94493 0.95488 0.0
H655 H 0.4289 0.92566 0.92867 0.0
H656 H 0.50115 0.98745 0.0901 0.0
H657 H 0.5506 0.05754 0.11628 0.0
H658 H 0.54524 0.05833 0.06499 0.0
H659 H 0.56326 0.08069 0.09078 0.0
Eu660 Eu 0.02187 0.50558 0.98951 0.0
C661 C 0.91969 0.47458 0.02898 0.0
C662 C 0.9109 0.50897 0.02442 0.0
C663 C 0.87531 0.4664 0.03004 0.0
C664 C 0.9285 0.49984 0.02543 0.0
C665 C 0.89309 0.45773 0.0318 0.0
C666 C 0.8842 0.49198 0.02631 0.0
C667 C 0.90399 0.42579 0.03949 0.0
N668 N 0.93738 0.46688 0.03072 0.0
C669 C 0.93015 0.44321 0.03651 0.0
C670 C 0.88531 0.43294 0.03686 0.0
Eu671 Eu 0.98125 0.4972 0.02549 0.0
N672 N 0.95445 0.51579 0.02387 0.0
C673 C 0.96423 0.54147 0.02259 0.0
C674 C 0.92073 0.53505 0.02204 0.0
C675 C 0.94755 0.55142 0.02138 0.0
H676 H 0.94452 0.43757 0.03846 0.0
H677 H 0.9554 0.5717 0.01989 0.0
H678 H 0.87036 0.49859 0.02539 0.0
H679 H 0.89826 0.40686 0.04374 0.0
H680 H 0.98489 0.55437 0.02199 0.0
H681 H 0.03997 0.42559 0.9945 0.0
H682 H 0.90785 0.54281 0.02112 0.0
H683 H 0.06295 0.56388 0.97627 0.0
H684 H 0.01349 0.44596 0.99144 0.0
H685 H 0.1103 0.59233 0.97274 0.0
H686 H 0.85476 0.45368 0.03197 0.0
H687 H 0.08783 0.45192 0.99615 0.0
H688 H 0.12777 0.4952 0.99433 0.0
H689 H 0.86507 0.41944 0.03919 0.0
H690 H 0.14708 0.54087 0.98837 0.0
N691 N 0.04582 0.48388 0.99173 0.0
C692 C 0.03429 0.45788 0.99206 0.0
C693 C 0.07628 0.46107 0.99478 0.0
C694 C 0.08806 0.48753 0.99329 0.0
C695 C 0.04929 0.44615 0.9938 0.0
C696 C 0.0721 0.49847 0.9916 0.0
H697 H 0.14068 0.57712 0.97979 0.0
N698 N 0.06681 0.53335 0.98552 0.0
C699 C 0.1029 0.57324 0.97728 0.0
C700 C 0.08296 0.5241 0.98841 0.0
C701 C 0.07616 0.5571 0.97923 0.0
C702 C 0.11999 0.56463 0.98135 0.0
C703 C 0.11006 0.53957 0.98664 0.0
O704 O 0.02269 0.51928 0.96505 0.0
O705 O 0.98779 0.5068 0.99942 0.0
O706 O 0.95556 0.46549 0.00801 0.0
O707 O 0.98714 0.46515 0.9914 0.0
O708 O 0.01085 0.5356 0.98376 0.0
O709 O 0.00913 0.47933 0.96894 0.0
O710 O 0.98547 0.48578 0.04973 0.0
O711 O 0.01568 0.49638 0.01563 0.0
O712 O 0.04657 0.53829 0.00672 0.0
O713 O 0.01483 0.53825 0.02345 0.0
O714 O 0.99206 0.46698 0.03081 0.0
O715 O 0.9909 0.52347 0.04589 0.0
C716 C 0.98995 0.52601 0.99223 0.0
C717 C 0.03005 0.49677 0.94437 0.0
C718 C 0.03399 0.49387 0.91524 0.0
C719 C 0.02023 0.49503 0.9287 0.0
C720 C 0.05787 0.4948 0.9177 0.0
C721 C 0.05389 0.49768 0.94657 0.0
C722 C 0.06774 0.49678 0.93327 0.0
C723 C 0.96297 0.45477 0.9968 0.0
C724 C 0.01504 0.49712 0.95831 0.0
C725 C 0.12618 0.52919 0.98942 0.0
C726 C 0.11518 0.50319 0.99278 0.0
C727 C 0.01317 0.47682 0.02256 0.0
C728 C 0.97595 0.50497 0.07145 0.0
C729 C 0.98868 0.5075 0.08618 0.0
C730 C 0.97614 0.50557 0.1009 0.0
C731 C 0.95053 0.50109 0.10062 0.0
C732 C 0.9504 0.5004 0.07136 0.0
C733 C 0.93778 0.49847 0.08592 0.0
C734 C 0.03895 0.54884 0.01795 0.0
C735 C 0.98984 0.50711 0.05643 0.0
H736 H 1.00166 0.49405 0.92703 0.0
H737 H 0.06902 0.49422 0.90756 0.0
H738 H 0.06169 0.49891 0.95852 0.0
H739 H 0.08614 0.49752 0.93505 0.0
H740 H 0.00857 0.51139 0.08613 0.0
H741 H 0.9403 0.49934 0.11175 0.0
H742 H 0.9403 0.49842 0.0601 0.0
H743 H 0.91804 0.49493 0.08581 0.0
Eu744 Eu 0.51327 0.49467 0.03002 0.0
C745 C 0.44935 0.53028 0.98834 0.0
C746 C 0.40451 0.49708 0.99147 0.0
C747 C 0.41489 0.54067 0.98653 0.0
C748 C 0.43122 0.50506 0.99119 0.0
C749 C 0.44136 0.54825 0.98555 0.0
C750 C 0.3965 0.51513 0.98952 0.0
C751 C 0.48595 0.57923 0.9795 0.0
N752 N 0.47471 0.53691 0.98733 0.0
C753 C 0.49289 0.56069 0.98233 0.0
C754 C 0.46012 0.5731 0.98134 0.0
Eu755 Eu 0.48511 0.50475 0.99271 0.0
N756 N 0.4396 0.48808 0.9929 0.0
C757 C 0.42219 0.46256 0.99371 0.0
C758 C 0.38663 0.47111 0.99329 0.0
C759 C 0.39551 0.45374 0.99417 0.0
H760 H 0.5129 0.56552 0.98097 0.0
H761 H 0.38182 0.43356 0.99527 0.0
H762 H 0.37608 0.50941 0.98987 0.0
H763 H 0.50051 0.59823 0.97593 0.0
H764 H 0.4288 0.44895 0.99446 0.0
H765 H 0.61688 0.56514 0.02735 0.0
H766 H 0.36595 0.46422 0.99365 0.0
H767 H 0.48509 0.43405 0.042 0.0
H768 H 0.57008 0.55021 0.02816 0.0
H769 H 0.49708 0.4012 0.04746 0.0
H770 H 0.40838 0.55426 0.98459 0.0
H771 H 0.63234 0.53418 0.02912 0.0
H772 H 0.62179 0.48893 0.03321 0.0
H773 H 0.45477 0.58747 0.97909 0.0
H774 H 0.5892 0.4443 0.03883 0.0
N775 N 0.5588 0.51097 0.02992 0.0
C776 C 0.57642 0.53642 0.02902 0.0
C777 C 0.6117 0.52748 0.02949 0.0
C778 C 0.59364 0.50159 0.03144 0.0
C779 C 0.60305 0.54501 0.02853 0.0
C780 C 0.56699 0.49387 0.03173 0.0
H781 H 0.54272 0.41153 0.04452 0.0
N782 N 0.52346 0.46249 0.03583 0.0
C783 C 0.51179 0.42012 0.04385 0.0
C784 C 0.54873 0.46883 0.03484 0.0
C785 C 0.50508 0.43877 0.04078 0.0
C786 C 0.53756 0.426 0.04213 0.0
C787 C 0.55648 0.4507 0.03779 0.0
O788 O 0.49712 0.48355 0.05422 0.0
O789 O 0.47925 0.4949 0.01878 0.0
O790 O 0.4923 0.53651 0.01026 0.0
O791 O 0.52417 0.53623 0.02661 0.0
O792 O 0.47095 0.46555 0.03442 0.0
O793 O 0.52861 0.52191 0.05009 0.0
O794 O 0.50327 0.51554 0.96906 0.0
O795 O 0.51891 0.5043 1.00395 0.0
O796 O 0.50732 0.4638 0.01218 0.0
O797 O 0.47533 0.46322 0.99547 0.0
O798 O 0.52753 0.5336 0.98815 0.0
O799 O 0.46773 0.47948 0.97175 0.0
C800 C 0.46093 0.47569 0.02545 0.0
C801 C 0.52602 0.50461 0.07588 0.0
C802 C 0.52847 0.50747 0.10531 0.0
C803 C 0.51643 0.50767 0.0907 0.0
C804 C 0.55008 0.50388 0.10483 0.0
C805 C 0.54753 0.50099 0.07567 0.0
C806 C 0.55945 0.5006 0.0901 0.0
C807 C 0.51137 0.54733 0.02103 0.0
C808 C 0.51355 0.50547 0.06076 0.0
C809 C 0.58287 0.458 0.03677 0.0
C810 C 0.60143 0.48341 0.03357 0.0
C811 C 0.53737 0.5233 0.99718 0.0
C812 C 0.4759 0.49965 0.94633 0.0
C813 C 0.4847 0.49453 0.93184 0.0
C814 C 0.47785 0.50041 0.91682 0.0
C815 C 0.4617 0.51126 0.9167 0.0
C816 C 0.45962 0.51015 0.94589 0.0
C817 C 0.45254 0.51588 0.93112 0.0
C818 C 0.48913 0.45301 1.00085 0.0
C819 C 0.48518 0.49526 0.96175 0.0
H820 H 0.49993 0.51067 0.09082 0.0
H821 H 0.55958 0.50335 0.11586 0.0
H822 H 0.55515 0.49858 0.06439 0.0
H823 H 0.57604 0.49778 0.08987 0.0
H824 H 0.49689 0.48597 0.93236 0.0
H825 H 0.45643 0.51665 0.90551 0.0
H826 H 0.45263 0.51416 0.95691 0.0
H827 H 0.44018 0.52424 0.93085 0.0
Eu828 Eu 0.15197 0.31538 0.32523 0.0
C829 C 0.21158 0.4147 0.36802 0.0
C830 C 0.25711 0.42727 0.36684 0.0
C831 C 0.24458 0.45951 0.37041 0.0
C832 C 0.23065 0.40824 0.3662 0.0
C833 C 0.2183 0.44035 0.37047 0.0
C834 C 0.26396 0.45297 0.3686 0.0
C835 C 0.17274 0.426 0.37413 0.0
N836 N 0.18644 0.39571 0.36819 0.0
C837 C 0.16707 0.40084 0.37173 0.0
C838 C 0.19845 0.44589 0.37332 0.0
Eu839 Eu 0.17816 0.35372 0.36323 0.0
N840 N 0.22336 0.38322 0.36465 0.0
C841 C 0.24156 0.37577 0.36489 0.0
C842 C 0.27588 0.41982 0.36614 0.0
C843 C 0.26804 0.39392 0.3654 0.0
H844 H 0.14714 0.38555 0.37226 0.0
H845 H 0.28238 0.38791 0.36514 0.0
H846 H 0.28417 0.46788 0.36895 0.0
H847 H 0.15728 0.43004 0.37657 0.0
H848 H 0.2358 0.35586 0.36422 0.0
H849 H 0.04849 0.2848 0.32567 0.0
H850 H 0.29641 0.43384 0.36654 0.0
H851 H 0.18017 0.28169 0.31444 0.0
H852 H 0.0954 0.31559 0.32544 0.0
H853 H 0.16816 0.23667 0.30993 0.0
H854 H 0.25014 0.47935 0.37214 0.0
H855 H 0.03273 0.23849 0.32452 0.0
H856 H 0.04309 0.20319 0.32158 0.0
H857 H 0.2028 0.46535 0.37524 0.0
H858 H 0.07568 0.19006 0.31719 0.0
N859 N 0.10641 0.28714 0.32456 0.0
C860 C 0.08893 0.2955 0.32485 0.0
C861 C 0.05341 0.25195 0.32439 0.0
C862 C 0.07138 0.24355 0.3231 0.0
C863 C 0.06223 0.27807 0.325 0.0
C864 C 0.09809 0.26189 0.32306 0.0
H865 H 0.12233 0.20244 0.31254 0.0
N866 N 0.14164 0.27286 0.31983 0.0
C867 C 0.15339 0.24141 0.31299 0.0
C868 C 0.11631 0.2545 0.32063 0.0
C869 C 0.1601 0.26685 0.31549 0.0
C870 C 0.12751 0.22214 0.31453 0.0
C871 C 0.10852 0.22859 0.31814 0.0
O872 O 0.16904 0.31965 0.30129 0.0
O873 O 0.18517 0.34858 0.33743 0.0
O874 O 0.1736 0.37823 0.34457 0.0
O875 O 0.14118 0.34652 0.32841 0.0
O876 O 0.19456 0.32853 0.32111 0.0
O877 O 0.13837 0.3284 0.30488 0.0
O878 O 0.16032 0.34854 0.38696 0.0
O879 O 0.14541 0.32004 0.35112 0.0
O880 O 0.15938 0.29158 0.34315 0.0
O881 O 0.19011 0.32352 0.36017 0.0
O882 O 0.13519 0.33979 0.36696 0.0
O883 O 0.19289 0.34243 0.38391 0.0
C884 C 0.20386 0.34786 0.33083 0.0
C885 C 0.14203 0.31425 0.27891 0.0
C886 C 0.13903 0.31702 0.24959 0.0
C887 C 0.15048 0.32836 0.26458 0.0
C888 C 0.11918 0.29127 0.24925 0.0
C889 C 0.12224 0.28865 0.27824 0.0
C890 C 0.11093 0.27725 0.26346 0.0
C891 C 0.15514 0.37058 0.33342 0.0
C892 C 0.15375 0.32651 0.29449 0.0
C893 C 0.08205 0.2101 0.3189 0.0
C894 C 0.0635 0.21757 0.3214 0.0
C895 C 0.12631 0.32017 0.35751 0.0
C896 C 0.18772 0.35664 0.40954 0.0
C897 C 0.18071 0.34301 0.4241 0.0
C898 C 0.19115 0.35565 0.43898 0.0
C899 C 0.2085 0.38217 0.43892 0.0
C900 C 0.20515 0.38297 0.40986 0.0
C901 C 0.21543 0.39563 0.42448 0.0
C902 C 0.17793 0.29983 0.35432 0.0
C903 C 0.17668 0.34336 0.39409 0.0
H904 H 0.16563 0.34822 0.26515 0.0
H905 H 0.1102 0.28184 0.23794 0.0
H906 H 0.11553 0.27753 0.28914 0.0
H907 H 0.0957 0.25745 0.26302 0.0
H908 H 0.16742 0.3226 0.42379 0.0
H909 H 0.21649 0.39267 0.45008 0.0
H910 H 0.21073 0.39374 0.39882 0.0
H911 H 0.22876 0.416 0.42464 0.0
Eu912 Eu 0.6911 0.83878 0.32247 0.0
C913 C 0.58861 0.80694 0.36127 0.0
C914 C 0.57913 0.84097 0.35712 0.0
C915 C 0.54389 0.79784 0.3618 0.0
C916 C 0.59708 0.83225 0.35813 0.0
C917 C 0.56197 0.78953 0.3635 0.0
C918 C 0.55246 0.82353 0.3586 0.0
C919 C 0.5733 0.75755 0.37025 0.0
N920 N 0.60658 0.7996 0.36296 0.0
C921 C 0.59949 0.77556 0.36798 0.0
C922 C 0.55441 0.76446 0.3678 0.0
Eu923 Eu 0.65045 0.83077 0.35837 0.0
N924 N 0.62298 0.8486 0.35684 0.0
C925 C 0.63237 0.87424 0.35574 0.0
C926 C 0.58858 0.86706 0.35505 0.0
C927 C 0.61535 0.8838 0.35459 0.0
H928 H 0.61404 0.77011 0.36978 0.0
H929 H 0.62289 0.90406 0.35328 0.0
H930 H 0.53836 0.82981 0.35767 0.0
H931 H 0.5677 0.73835 0.37386 0.0
H932 H 0.65298 0.8874 0.35529 0.0
H933 H 0.71916 0.76569 0.32611 0.0
H934 H 0.57544 0.87451 0.35415 0.0
H935 H 0.72781 0.90014 0.31241 0.0
H936 H 0.68892 0.78218 0.32418 0.0
H937 H 0.77432 0.93243 0.30976 0.0
H938 H 0.52331 0.7847 0.36331 0.0
H939 H 0.76657 0.79558 0.32674 0.0
H940 H 0.80361 0.84065 0.32491 0.0
H941 H 0.53413 0.7505 0.36962 0.0
H942 H 0.81865 0.88605 0.32039 0.0
N943 N 0.71875 0.82115 0.32405 0.0
C944 C 0.70951 0.79549 0.32436 0.0
C945 C 0.75336 0.80296 0.32586 0.0
C946 C 0.76274 0.82915 0.32461 0.0
C947 C 0.72663 0.78603 0.32546 0.0
C948 C 0.7447 0.83775 0.32353 0.0
H949 H 0.80787 0.92038 0.31445 0.0
N950 N 0.73513 0.87042 0.31889 0.0
C951 C 0.76864 0.91305 0.31294 0.0
C952 C 0.75316 0.8632 0.32086 0.0
C953 C 0.74236 0.89473 0.31439 0.0
C954 C 0.78752 0.90618 0.31565 0.0
C955 C 0.77988 0.88091 0.31941 0.0
O956 O 0.69055 0.85082 0.29775 0.0
O957 O 0.65679 0.83984 0.33223 0.0
O958 O 0.62578 0.79932 0.34049 0.0
O959 O 0.65814 0.79758 0.32555 0.0
O960 O 0.67931 0.86813 0.3162 0.0
O961 O 0.67921 0.81148 0.30248 0.0
O962 O 0.6534 0.81964 0.38292 0.0
O963 O 0.68432 0.82929 0.34844 0.0
O964 O 0.71569 0.86873 0.34109 0.0
O965 O 0.68367 0.87194 0.35527 0.0
O966 O 0.66238 0.80147 0.36483 0.0
O967 O 0.66158 0.85814 0.37828 0.0
C968 C 0.65862 0.85873 0.32482 0.0
C969 C 0.69863 0.82831 0.2774 0.0
C970 C 0.70185 0.82514 0.24822 0.0
C971 C 0.68827 0.8261 0.26184 0.0
C972 C 0.72606 0.82669 0.25041 0.0
C973 C 0.72285 0.82995 0.27932 0.0
C974 C 0.73649 0.82917 0.26587 0.0
C975 C 0.63371 0.78756 0.33042 0.0
C976 C 0.68381 0.82852 0.2915 0.0
C977 C 0.79801 0.87269 0.32131 0.0
C978 C 0.78945 0.84685 0.3239 0.0
C979 C 0.68273 0.81055 0.35591 0.0
C980 C 0.64529 0.841 0.40397 0.0
C981 C 0.65741 0.84333 0.4189 0.0
C982 C 0.64487 0.84279 0.43338 0.0
C983 C 0.61991 0.83992 0.43266 0.0
C984 C 0.62034 0.838 0.40343 0.0
C985 C 0.60775 0.83747 0.41775 0.0
C986 C 0.70826 0.88093 0.3511 0.0
C987 C 0.6591 0.84166 0.38918 0.0
H988 H 0.66945 0.82465 0.26038 0.0
H989 H 0.73706 0.82625 0.24014 0.0
H990 H 0.73116 0.8317 0.29118 0.0
H991 H 0.75518 0.83044 0.26743 0.0
H992 H 0.67683 0.84595 0.4192 0.0
H993 H 0.6097 0.83927 0.4436 0.0
H994 H 0.61068 0.83611 0.39201 0.0
H995 H 0.58849 0.83515 0.4173 0.0
Eu996 Eu 0.18232 0.8273 0.36339 0.0
C997 C 0.11716 0.8619 0.3219 0.0
C998 C 0.07243 0.82839 0.32495 0.0
C999 C 0.0824 0.8719 0.32015 0.0
C1000 C 0.0992 0.83661 0.32468 0.0
C1001 C 0.10894 0.87973 0.3192 0.0
C1002 C 0.06418 0.84627 0.32304 0.0
C1003 C 0.15348 0.91113 0.31339 0.0
N1004 N 0.14259 0.86878 0.32093 0.0
C1005 C 0.16065 0.89272 0.31611 0.0
C1006 C 0.12756 0.90471 0.31515 0.0
Eu1007 Eu 0.15338 0.83686 0.32623 0.0
N1008 N 0.10781 0.81982 0.32636 0.0
C1009 C 0.09058 0.79425 0.32714 0.0
C1010 C 0.05473 0.80236 0.3267 0.0
C1011 C 0.06385 0.78518 0.32756 0.0
H1012 H 0.18073 0.8978 0.31481 0.0
H1013 H 0.05031 0.76496 0.32863 0.0
H1014 H 0.04372 0.84037 0.32338 0.0
H1015 H 0.16794 0.93025 0.30996 0.0
H1016 H 0.09737 0.78077 0.32788 0.0
H1017 H 0.28549 0.89915 0.36106 0.0
H1018 H 0.03402 0.79529 0.32704 0.0
H1019 H 0.15494 0.76605 0.37406 0.0
H1020 H 0.23852 0.88341 0.36196 0.0
H1021 H 0.16765 0.73343 0.37837 0.0
H1022 H 0.07573 0.88537 0.31827 0.0
H1023 H 0.30172 0.86874 0.36219 0.0
H1024 H 0.29197 0.82358 0.36542 0.0
H1025 H 0.12203 0.91898 0.31299 0.0
H1026 H 0.25992 0.77849 0.37024 0.0
N1027 N 0.22794 0.84432 0.36324 0.0
C1028 C 0.24522 0.86988 0.36258 0.0
C1029 C 0.28102 0.8617 0.36263 0.0
C1030 C 0.2633 0.83565 0.36425 0.0
C1031 C 0.27194 0.87892 0.36203 0.0
C1032 C 0.23655 0.82748 0.36466 0.0
H1033 H 0.21359 0.74478 0.37537 0.0
N1034 N 0.19319 0.79534 0.36841 0.0
C1035 C 0.18217 0.75268 0.37522 0.0
C1036 C 0.2186 0.80218 0.36735 0.0
C1037 C 0.17505 0.77119 0.37282 0.0
C1038 C 0.20811 0.75915 0.37347 0.0
C1039 C 0.22677 0.78424 0.36971 0.0
O1040 O 0.16645 0.81551 0.38757 0.0
O1041 O 0.14792 0.82693 0.3523 0.0
O1042 O 0.15991 0.86819 0.34393 0.0
O1043 O 0.19233 0.86867 0.36016 0.0
O1044 O 0.14015 0.79779 0.36801 0.0
O1045 O 0.19758 0.85415 0.38368 0.0
O1046 O 0.17148 0.84768 0.30258 0.0
O1047 O 0.18763 0.8372 0.33739 0.0
O1048 O 0.17713 0.79721 0.34518 0.0
O1049 O 0.14395 0.79547 0.32917 0.0
O1050 O 0.19566 0.86624 0.32153 0.0
O1051 O 0.13623 0.81136 0.30534 0.0
C1052 C 0.12982 0.80765 0.35904 0.0
C1053 C 0.19534 0.83632 0.40926 0.0
C1054 C 0.19838 0.83919 0.43869 0.0
C1055 C 0.1864 0.83993 0.42418 0.0
C1056 C 0.21932 0.83457 0.43799 0.0
C1057 C 0.21622 0.83174 0.40885 0.0
C1058 C 0.22811 0.83086 0.42317 0.0
C1059 C 0.17905 0.87933 0.35463 0.0
C1060 C 0.18271 0.83737 0.39426 0.0
C1061 C 0.25328 0.79204 0.36862 0.0
C1062 C 0.27152 0.81771 0.36588 0.0
C1063 C 0.20586 0.85632 0.33059 0.0
C1064 C 0.14426 0.83126 0.27982 0.0
C1065 C 0.15313 0.82594 0.26545 0.0
C1066 C 0.14642 0.83162 0.25032 0.0
C1067 C 0.13022 0.84242 0.24999 0.0
C1068 C 0.12798 0.84175 0.27918 0.0
C1069 C 0.12096 0.84722 0.26431 0.0
C1070 C 0.15846 0.78586 0.33421 0.0
C1071 C 0.15359 0.82721 0.29533 0.0
H1072 H 0.17041 0.8437 0.42444 0.0
H1073 H 0.22873 0.83353 0.44893 0.0
H1074 H 0.22333 0.8289 0.39749 0.0
H1075 H 0.24418 0.82726 0.42278 0.0
H1076 H 0.16533 0.8174 0.26615 0.0
H1077 H 0.12502 0.84763 0.23871 0.0
H1078 H 0.12097 0.84597 0.29014 0.0
H1079 H 0.10858 0.85557 0.26387 0.0
Eu1080 Eu 0.81877 0.64642 0.6574 0.0
C1081 C 0.88072 0.74441 0.70092 0.0
C1082 C 0.9257 0.75524 0.69894 0.0
C1083 C 0.91508 0.78865 0.70354 0.0
C1084 C 0.89897 0.73699 0.69853 0.0
C1085 C 0.88855 0.77023 0.70387 0.0
C1086 C 0.93363 0.78117 0.70104 0.0
C1087 C 0.84358 0.75739 0.70868 0.0
N1088 N 0.8553 0.72611 0.70132 0.0
C1089 C 0.83679 0.73203 0.70567 0.0
C1090 C 0.86955 0.77663 0.70755 0.0
Eu1091 Eu 0.8451 0.68374 0.69564 0.0
N1092 N 0.89063 0.71176 0.69675 0.0
C1093 C 0.90804 0.70331 0.69658 0.0
C1094 C 0.94364 0.74679 0.69771 0.0
C1095 C 0.93475 0.72068 0.69678 0.0
H1096 H 0.81668 0.71722 0.70644 0.0
H1097 H 0.94846 0.71389 0.69616 0.0
H1098 H 0.95406 0.7955 0.70122 0.0
H1099 H 0.8288 0.76208 0.7118 0.0
H1100 H 0.90147 0.68321 0.69579 0.0
H1101 H 0.7162 0.61955 0.65782 0.0
H1102 H 0.96434 0.7602 0.69789 0.0
H1103 H 0.84491 0.6112 0.64599 0.0
H1104 H 0.7634 0.64902 0.6578 0.0
H1105 H 0.83122 0.56593 0.64071 0.0
H1106 H 0.92149 0.80863 0.70561 0.0
H1107 H 0.69878 0.57298 0.65612 0.0
H1108 H 0.70739 0.5366 0.65261 0.0
H1109 H 0.87477 0.79626 0.70991 0.0
H1110 H 0.73871 0.52197 0.64783 0.0
N1111 N 0.77296 0.61955 0.65654 0.0
C1112 C 0.75622 0.6288 0.65699 0.0
C1113 C 0.7196 0.58585 0.65609 0.0
C1114 C 0.73681 0.57657 0.65461 0.0
C1115 C 0.72935 0.61212 0.65702 0.0
C1116 C 0.76373 0.59416 0.65473 0.0
H1117 H 0.78489 0.53282 0.64305 0.0
N1118 N 0.80682 0.60361 0.6515 0.0
C1119 C 0.81696 0.57127 0.64398 0.0
C1120 C 0.78125 0.58592 0.65212 0.0
C1121 C 0.82464 0.59686 0.64692 0.0
C1122 C 0.79081 0.55263 0.64536 0.0
C1123 C 0.77251 0.55988 0.64923 0.0
O1124 O 0.83616 0.65044 0.63358 0.0
O1125 O 0.8524 0.67915 0.66976 0.0
O1126 O 0.84094 0.70925 0.67758 0.0
O1127 O 0.80937 0.67855 0.66042 0.0
O1128 O 0.86098 0.65788 0.65396 0.0
O1129 O 0.80641 0.66049 0.637 0.0
O1130 O 0.82701 0.67846 0.7193 0.0
O1131 O 0.81196 0.65079 0.68328 0.0
O1132 O 0.82466 0.62135 0.67512 0.0
O1133 O 0.85525 0.65226 0.69271 0.0
O1134 O 0.80237 0.67106 0.69909 0.0
O1135 O 0.85933 0.67197 0.71633 0.0
C1136 C 0.87079 0.67748 0.66346 0.0
C1137 C 0.80982 0.64621 0.61104 0.0
C1138 C 0.80698 0.64957 0.58176 0.0
C1139 C 0.81865 0.66048 0.59679 0.0
C1140 C 0.78657 0.62407 0.58129 0.0
C1141 C 0.78948 0.62086 0.61024 0.0
C1142 C 0.77798 0.60988 0.59542 0.0
C1143 C 0.8232 0.70231 0.666 0.0
C1144 C 0.82159 0.65809 0.62669 0.0
C1145 C 0.74581 0.5421 0.64984 0.0
C1146 C 0.72798 0.55043 0.65256 0.0
C1147 C 0.79309 0.65149 0.68957 0.0
C1148 C 0.85415 0.68615 0.74196 0.0
C1149 C 0.84658 0.67252 0.75652 0.0
C1150 C 0.85699 0.68505 0.77143 0.0
C1151 C 0.87486 0.71145 0.77141 0.0
C1152 C 0.87214 0.71234 0.74233 0.0
C1153 C 0.88237 0.7249 0.75698 0.0
C1154 C 0.84244 0.62867 0.68674 0.0
C1155 C 0.84314 0.673 0.72647 0.0
H1156 H 0.83423 0.68016 0.59745 0.0
H1157 H 0.7774 0.61498 0.56994 0.0
H1158 H 0.78244 0.60963 0.62107 0.0
H1159 H 0.7623 0.59027 0.59487 0.0
H1160 H 0.83287 0.6522 0.75618 0.0
H1161 H 0.88284 0.72189 0.7826 0.0
H1162 H 0.87822 0.72309 0.7313 0.0
H1163 H 0.89612 0.74518 0.75717 0.0
Eu1164 Eu 0.35582 0.17182 0.65686 0.0
C1165 C 0.25439 0.1399 0.69666 0.0
C1166 C 0.24504 0.1741 0.6929 0.0
C1167 C 0.20976 0.131 0.69761 0.0
C1168 C 0.26292 0.16527 0.69366 0.0
C1169 C 0.22778 0.12256 0.69904 0.0
C1170 C 0.21838 0.15673 0.69452 0.0
C1171 C 0.23903 0.09039 0.70538 0.0
N1172 N 0.2723 0.13243 0.69807 0.0
C1173 C 0.2652 0.10833 0.70296 0.0
C1174 C 0.22018 0.09744 0.70321 0.0
Eu1175 Eu 0.31611 0.1635 0.69326 0.0
N1176 N 0.28881 0.18155 0.69224 0.0
C1177 C 0.29829 0.20722 0.69126 0.0
C1178 C 0.25457 0.20022 0.69094 0.0
C1179 C 0.28134 0.21689 0.69036 0.0
H1180 H 0.27972 0.10277 0.70454 0.0
H1181 H 0.28895 0.23718 0.68914 0.0
H1182 H 0.20433 0.16311 0.6938 0.0
H1183 H 0.23341 0.07114 0.70889 0.0
H1184 H 0.31892 0.22032 0.69072 0.0
H1185 H 0.38354 0.09845 0.65988 0.0
H1186 H 0.24148 0.20776 0.69023 0.0
H1187 H 0.3923 0.23288 0.64615 0.0
H1188 H 0.35339 0.11511 0.65839 0.0
H1189 H 0.43869 0.26489 0.6426 0.0
H1190 H 0.18919 0.11792 0.69923 0.0
H1191 H 0.43098 0.12817 0.6599 0.0
H1192 H 0.46807 0.17312 0.65753 0.0
H1193 H 0.19992 0.08354 0.70514 0.0
H1194 H 0.48312 0.21846 0.65273 0.0
N1195 N 0.38335 0.15402 0.65793 0.0
C1196 C 0.374 0.12834 0.65831 0.0
C1197 C 0.41782 0.13562 0.65922 0.0
C1198 C 0.42726 0.16182 0.65787 0.0
C1199 C 0.39106 0.11879 0.65917 0.0
C1200 C 0.40928 0.17052 0.65708 0.0
H1201 H 0.47229 0.25276 0.64682 0.0
N1202 N 0.39973 0.20323 0.65263 0.0
C1203 C 0.43308 0.24559 0.64596 0.0
C1204 C 0.41775 0.19594 0.65433 0.0
C1205 C 0.40685 0.22743 0.64793 0.0
C1206 C 0.45199 0.23869 0.64841 0.0
C1207 C 0.44441 0.2135 0.65239 0.0
O1208 O 0.3536 0.18369 0.63238 0.0
O1209 O 0.32185 0.17297 0.66715 0.0
O1210 O 0.29084 0.13245 0.67533 0.0
O1211 O 0.3227 0.13067 0.65988 0.0
O1212 O 0.34427 0.20152 0.65125 0.0
O1213 O 0.34404 0.14474 0.63674 0.0
O1214 O 0.31962 0.15199 0.71759 0.0
O1215 O 0.34974 0.16215 0.68283 0.0
O1216 O 0.38108 0.20199 0.67521 0.0
O1217 O 0.34951 0.20463 0.69037 0.0
O1218 O 0.32798 0.13395 0.69905 0.0
O1219 O 0.32731 0.19045 0.71342 0.0
C1220 C 0.32373 0.1921 0.66002 0.0
C1221 C 0.36196 0.16227 0.61149 0.0
C1222 C 0.3638 0.15903 0.58219 0.0
C1223 C 0.35025 0.15851 0.59623 0.0
C1224 C 0.38931 0.16346 0.58373 0.0
C1225 C 0.38738 0.16663 0.61275 0.0
C1226 C 0.40096 0.16722 0.59892 0.0
C1227 C 0.29835 0.12082 0.66488 0.0
C1228 C 0.34744 0.16165 0.62593 0.0
C1229 C 0.46252 0.20521 0.65401 0.0
C1230 C 0.45396 0.1794 0.65675 0.0
C1231 C 0.34823 0.14323 0.69003 0.0
C1232 C 0.31172 0.17276 0.73909 0.0
C1233 C 0.32452 0.17564 0.75383 0.0
C1234 C 0.31223 0.17455 0.76852 0.0
C1235 C 0.28683 0.17061 0.76819 0.0
C1236 C 0.28636 0.16872 0.73895 0.0
C1237 C 0.27401 0.16768 0.75347 0.0
C1238 C 0.37394 0.21382 0.68574 0.0
C1239 C 0.32525 0.17383 0.7241 0.0
H1240 H 0.33049 0.15487 0.59533 0.0
H1241 H 0.40041 0.16435 0.57317 0.0
H1242 H 0.39669 0.16956 0.62439 0.0
H1243 H 0.42061 0.17068 0.59997 0.0
H1244 H 0.34425 0.17908 0.75382 0.0
H1245 H 0.27677 0.16951 0.77929 0.0
H1246 H 0.27619 0.16641 0.72767 0.0
H1247 H 0.25442 0.16454 0.75332 0.0
Eu1248 Eu 0.84888 0.16131 0.69634 0.0
C1249 C 0.78445 0.19821 0.65571 0.0
C1250 C 0.73958 0.16511 0.65878 0.0
C1251 C 0.75014 0.20885 0.65424 0.0
C1252 C 0.76627 0.17299 0.65842 0.0
C1253 C 0.77658 0.21634 0.65319 0.0
C1254 C 0.73167 0.18328 0.65706 0.0
C1255 C 0.82122 0.24734 0.64732 0.0
N1256 N 0.80977 0.20474 0.65462 0.0
C1257 C 0.82805 0.22864 0.64988 0.0
C1258 C 0.79542 0.24126 0.64919 0.0
Eu1259 Eu 0.82007 0.1724 0.65963 0.0
N1260 N 0.77457 0.15592 0.6599 0.0
C1261 C 0.75707 0.13041 0.66053 0.0
C1262 C 0.72162 0.13913 0.66042 0.0
C1263 C 0.7304 0.12167 0.66106 0.0
H1264 H 0.84804 0.23347 0.64851 0.0
H1265 H 0.71666 0.10148 0.66202 0.0
H1266 H 0.71128 0.17763 0.65748 0.0
H1267 H 0.83586 0.26641 0.64393 0.0
H1268 H 0.76357 0.11671 0.6611 0.0
H1269 H 0.95228 0.2325 0.69454 0.0
H1270 H 0.70096 0.13231 0.66083 0.0
H1271 H 0.82089 0.09939 0.70559 0.0
H1272 H 0.90539 0.21717 0.69574 0.0
H1273 H 0.83311 0.06613 0.70844 0.0
H1274 H 0.74372 0.22255 0.6525 0.0
H1275 H 0.96801 0.20165 0.69442 0.0
H1276 H 0.95773 0.15615 0.69628 0.0
H1277 H 0.79016 0.25575 0.64715 0.0
H1278 H 0.92532 0.11087 0.7001 0.0
N1279 N 0.89441 0.17792 0.69599 0.0
C1280 C 0.91189 0.20346 0.69581 0.0
C1281 C 0.94736 0.19479 0.695 0.0
C1282 C 0.92942 0.16871 0.69608 0.0
C1283 C 0.93855 0.21226 0.69511 0.0
C1284 C 0.90273 0.16078 0.6967 0.0
H1285 H 0.87886 0.07719 0.70488 0.0
N1286 N 0.85923 0.1287 0.70014 0.0
C1287 C 0.84776 0.08551 0.70567 0.0
C1288 C 0.88456 0.13536 0.69882 0.0
C1289 C 0.84092 0.10438 0.70411 0.0
C1290 C 0.8736 0.09182 0.70361 0.0
C1291 C 0.89245 0.11707 0.70039 0.0
O1292 O 0.83238 0.14863 0.72028 0.0
O1293 O 0.81474 0.16197 0.68564 0.0
O1294 O 0.82736 0.20363 0.67764 0.0
O1295 O 0.85916 0.2029 0.69391 0.0
O1296 O 0.8066 0.1321 0.70085 0.0
O1297 O 0.86516 0.18665 0.71733 0.0
O1298 O 0.83776 0.1836 0.63588 0.0
O1299 O 0.85418 0.17218 0.67052 0.0
O1300 O 0.84343 0.13195 0.6775 0.0
O1301 O 0.80985 0.13071 0.66223 0.0
O1302 O 0.86244 0.20153 0.65491 0.0
O1303 O 0.80311 0.14684 0.63876 0.0
C1304 C 0.79652 0.1426 0.69225 0.0
C1305 C 0.8614 0.16632 0.74222 0.0
C1306 C 0.86379 0.16583 0.77168 0.0
C1307 C 0.85312 0.16964 0.75747 0.0
C1308 C 0.88277 0.15851 0.77027 0.0
C1309 C 0.88048 0.15928 0.74116 0.0
C1310 C 0.89107 0.15538 0.75512 0.0
C1311 C 0.84637 0.21413 0.68849 0.0
C1312 C 0.84951 0.16958 0.72752 0.0
C1313 C 0.91889 0.12468 0.69909 0.0
C1314 C 0.93735 0.15046 0.69692 0.0
C1315 C 0.87251 0.19134 0.66383 0.0
C1316 C 0.81019 0.16659 0.61328 0.0
C1317 C 0.81906 0.1616 0.59878 0.0
C1318 C 0.8112 0.16637 0.58376 0.0
C1319 C 0.79403 0.17605 0.58363 0.0
C1320 C 0.79299 0.17604 0.61286 0.0
C1321 C 0.78494 0.18069 0.59808 0.0
C1322 C 0.82433 0.12083 0.66681 0.0
C1323 C 0.8201 0.16293 0.62868 0.0
H1324 H 0.83858 0.17538 0.7582 0.0
H1325 H 0.89101 0.15482 0.78086 0.0
H1326 H 0.88709 0.15667 0.72956 0.0
H1327 H 0.90566 0.14974 0.75421 0.0
H1328 H 0.83204 0.15392 0.59928 0.0
H1329 H 0.78791 0.18047 0.5724 0.0
H1330 H 0.78599 0.18001 0.62391 0.0
H1331 H 0.77181 0.18819 0.59781 0.0
H1332 H 0.35963 0.85291 0.0764 0.0
H1333 H 0.30336 0.8634 0.04948 0.0
H1334 H 0.39458 0.88767 0.06184 0.0
H1335 H 0.33881 0.89901 0.03519 0.0
H1336 H 0.41513 0.98119 0.03242 0.0
H1337 H 0.37623 0.94354 0.04252 0.0
H1338 H 0.41226 0.89796 0.03377 0.0
H1339 H 0.451 0.93547 0.02397 0.0
C1340 C 0.35461 0.86235 0.06722 0.0
C1341 C 0.32851 0.85504 0.06405 0.0
C1342 C 0.37474 0.88237 0.05888 0.0
C1343 C 0.36944 0.89592 0.04726 0.0
C1344 C 0.34346 0.88893 0.04413 0.0
C1345 C 0.32318 0.86861 0.05238 0.0
C1346 C 0.41444 0.96298 0.0324 0.0
C1347 C 0.43595 0.96119 0.02725 0.0
C1348 C 0.39218 0.94144 0.0381 0.0
C1349 C 0.39128 0.91785 0.03904 0.0
C1350 C 0.41249 0.91594 0.03334 0.0
C1351 C 0.43462 0.9374 0.02758 0.0
H1352 H 0.10001 0.41695 0.07096 0.0
H1353 H 0.15889 0.47709 0.04235 0.0
H1354 H 0.06798 0.42765 0.0614 0.0
H1355 H 0.12645 0.48715 0.03188 0.0
H1356 H 0.06487 0.51203 0.02695 0.0
H1357 H 0.09897 0.5042 0.03701 0.0
H1358 H 0.04322 0.42346 0.03884 0.0
H1359 H 0.00929 0.43167 0.02955 0.0
C1360 C 0.10601 0.43246 0.06253 0.0
C1361 C 0.13185 0.44616 0.05736 0.0
C1362 C 0.08759 0.43847 0.05688 0.0
C1363 C 0.09435 0.45804 0.04559 0.0
C1364 C 0.12047 0.47213 0.04066 0.0
C1365 C 0.13907 0.46636 0.04659 0.0
C1366 C 0.0601 0.49263 0.02941 0.0
C1367 C 0.03458 0.47236 0.02723 0.0
C1368 C 0.07963 0.48809 0.03516 0.0
C1369 C 0.07399 0.46317 0.03891 0.0
C1370 C 0.04836 0.44298 0.03651 0.0
C1371 C 0.02888 0.44759 0.03102 0.0
H1372 H 0.52985 0.69228 0.05634 0.0
H1373 H 0.60692 0.70729 0.04444 0.0
H1374 H 0.51191 0.64789 0.04762 0.0
H1375 H 0.58895 0.66347 0.03516 0.0
H1376 H 0.55417 0.57833 0.03929 0.0
H1377 H 0.56972 0.62206 0.04766 0.0
H1378 H 0.50446 0.62059 0.02361 0.0
H1379 H 0.48824 0.57619 0.01559 0.0
C1380 C 0.54294 0.68615 0.05181 0.0
C1381 C 0.56984 0.70334 0.05113 0.0
C1382 C 0.53263 0.66081 0.04666 0.0
C1383 C 0.54902 0.65212 0.04079 0.0
C1384 C 0.57582 0.66945 0.03983 0.0
C1385 C 0.58609 0.69469 0.04497 0.0
C1386 C 0.54301 0.58718 0.03575 0.0
C1387 C 0.52015 0.57379 0.02649 0.0
C1388 C 0.55208 0.6124 0.04049 0.0
C1389 C 0.53856 0.62495 0.03611 0.0
C1390 C 0.51533 0.61144 0.02718 0.0
C1391 C 0.50619 0.58609 0.02244 0.0
H1392 H 0.8911 0.30289 0.9551 0.0
H1393 H 0.825 0.31175 0.96531 0.0
H1394 H 0.9201 0.34543 0.96567 0.0
H1395 H 0.85408 0.35529 0.97506 0.0
H1396 H 0.91211 0.42341 1.00578 0.0
H1397 H 0.88182 0.38087 0.99558 0.0
H1398 H 0.93862 0.388 0.9604 0.0
H1399 H 0.96943 0.42926 0.97156 0.0
C1400 C 0.88287 0.31426 0.95937 0.0
C1401 C 0.8559 0.3042 0.95929 0.0
C1402 C 0.89949 0.33878 0.96535 0.0
C1403 C 0.88963 0.35419 0.9711 0.0
C1404 C 0.86248 0.34402 0.97096 0.0
C1405 C 0.84578 0.31916 0.96527 0.0
C1406 C 0.91831 0.41568 0.99611 0.0
C1407 C 0.94358 0.42956 0.98992 0.0
C1408 C 0.90071 0.39136 0.99002 0.0
C1409 C 0.90774 0.38058 0.97725 0.0
C1410 C 0.93265 0.39508 0.97059 0.0
C1411 C 0.95036 0.41904 0.97693 0.0
H1412 H 0.67798 0.56923 0.94519 0.0
H1413 H 0.68311 0.52148 0.98173 0.0
H1414 H 0.6368 0.56128 0.95617 0.0
H1415 H 0.64195 0.51414 0.99311 0.0
H1416 H 0.55247 0.48712 0.99599 0.0
H1417 H 0.59432 0.49313 0.98684 0.0
H1418 H 0.62204 0.57337 0.98031 0.0
H1419 H 0.58034 0.56725 0.98943 0.0
C1420 C 0.67022 0.5568 0.95547 0.0
C1421 C 0.68394 0.54593 0.96249 0.0
C1422 C 0.64672 0.55254 0.96194 0.0
C1423 C 0.63616 0.53729 0.97564 0.0
C1424 C 0.6495 0.52593 0.98252 0.0
C1425 C 0.67319 0.5303 0.97607 0.0
C1426 C 0.56773 0.50609 0.99292 0.0
C1427 C 0.56333 0.52682 0.99364 0.0
C1428 C 0.59167 0.50954 0.98763 0.0
C1429 C 0.61147 0.5337 0.98267 0.0
C1430 C 0.6071 0.55444 0.98377 0.0
C1431 C 0.5833 0.551 0.98909 0.0
H1432 H 0.45313 0.12186 0.93274 0.0
H1433 H 0.49364 0.17614 0.97132 0.0
H1434 H 0.45613 0.0892 0.94775 0.0
H1435 H 0.49469 0.14294 0.9869 0.0
H1436 H 0.52245 0.08773 1.00093 0.0
H1437 H 0.5167 0.12004 0.98751 0.0
H1438 H 0.44147 0.06169 0.9698 0.0
H1439 H 0.44783 0.02922 0.98269 0.0
C1440 C 0.46251 0.12684 0.94447 0.0
C1441 C 0.47336 0.15183 0.95068 0.0
C1442 C 0.46385 0.10792 0.95324 0.0
C1443 C 0.47575 0.11334 0.96858 0.0
C1444 C 0.48579 0.1381 0.97502 0.0
C1445 C 0.48478 0.15711 0.96615 0.0
C1446 C 0.50458 0.0818 0.99428 0.0
C1447 C 0.48564 0.05588 0.99282 0.0
C1448 C 0.50119 0.10039 0.98663 0.0
C1449 C 0.47862 0.09358 0.97748 0.0
C1450 C 0.45934 0.06766 0.97644 0.0
C1451 C 0.46289 0.04902 0.98393 0.0
H1452 H 0.66809 0.13739 0.9511 0.0
H1453 H 0.70499 0.1115 0.98502 0.0
H1454 H 0.6259 0.10862 0.96307 0.0
H1455 H 0.6629 0.08269 0.99682 0.0
H1456 H 0.58147 0.00939 0.99343 0.0
H1457 H 0.62487 0.04325 0.98625 0.0
H1458 H 0.5986 0.09804 0.98817 0.0
H1459 H 0.55494 0.06384 0.99528 0.0
C1460 C 0.66728 0.12588 0.96125 0.0
C1461 C 0.68989 0.12645 0.9669 0.0
C1462 C 0.64311 0.10943 0.96814 0.0
C1463 C 0.64105 0.09321 0.98079 0.0
C1464 C 0.6638 0.09463 0.98689 0.0
C1465 C 0.6879 0.11106 0.98007 0.0
C1466 C 0.58517 0.02878 0.99263 0.0
C1467 C 0.56511 0.03415 0.99523 0.0
C1468 C 0.61 0.04818 0.98857 0.0
C1469 C 0.61519 0.07335 0.98668 0.0
C1470 C 0.59514 0.07881 0.98948 0.0
C1471 C 0.57028 0.05935 0.99373 0.0
H1472 H 0.84691 0.53277 0.97931 0.0
H1473 H 0.89619 0.57233 0.93896 0.0
H1474 H 0.87973 0.52298 0.98931 0.0
H1475 H 0.92894 0.56304 0.94913 0.0
H1476 H 0.9377 0.491 0.99082 0.0
H1477 H 0.90266 0.49813 0.98163 0.0
H1478 H 0.95873 0.57723 0.97314 0.0
H1479 H 0.99355 0.57013 0.98255 0.0
C1480 C 0.86454 0.53912 0.97246 0.0
C1481 C 0.86896 0.55364 0.95841 0.0
C1482 C 0.88336 0.53358 0.97823 0.0
C1483 C 0.90707 0.54255 0.97013 0.0
C1484 C 0.91112 0.55634 0.95585 0.0
C1485 C 0.89231 0.56169 0.95003 0.0
C1486 C 0.94241 0.50998 0.98727 0.0
C1487 C 0.96827 0.53018 0.98774 0.0
C1488 C 0.92238 0.51404 0.98195 0.0
C1489 C 0.92792 0.53823 0.97661 0.0
C1490 C 0.95383 0.55833 0.97704 0.0
C1491 C 0.97376 0.55432 0.98249 0.0
H1492 H 0.51986 0.34131 0.95751 0.0
H1493 H 0.43923 0.3122 0.94483 0.0
H1494 H 0.52036 0.37603 0.97241 0.0
H1495 H 0.43911 0.34591 0.96096 0.0
H1496 H 0.45745 0.42689 0.97516 0.0
H1497 H 0.45404 0.38991 0.96112 0.0
H1498 H 0.50694 0.38701 0.99578 0.0
H1499 H 0.51182 0.42493 0.00898 0.0
C1500 C 0.50215 0.34222 0.95792 0.0
C1501 C 0.47959 0.32399 0.94976 0.0
C1502 C 0.5023 0.36197 0.96678 0.0
C1503 C 0.47973 0.36385 0.96803 0.0
C1504 C 0.45697 0.34533 0.96013 0.0
C1505 C 0.45693 0.32572 0.95105 0.0
C1506 C 0.46825 0.41828 0.97984 0.0
C1507 C 0.48486 0.42893 0.99329 0.0
C1508 C 0.46614 0.39689 0.97183 0.0
C1509 C 0.48033 0.38543 0.9772 0.0
C1510 C 0.49614 0.39556 0.99103 0.0
C1511 C 0.49862 0.41719 0.99882 0.0
H1512 H 0.12896 0.68829 0.07586 0.0
H1513 H 0.18503 0.67463 0.05148 0.0
H1514 H 0.09385 0.65223 0.06138 0.0
H1515 H 0.15003 0.63785 0.03775 0.0
H1516 H 0.08443 0.58589 1.00489 0.0
H1517 H 0.11776 0.62496 0.01748 0.0
H1518 H 0.07167 0.60672 0.06074 0.0
H1519 H 0.03796 0.56788 0.0478 0.0
C1520 C 0.13383 0.67771 0.06734 0.0
C1521 C 0.15986 0.68435 0.06489 0.0
C1522 C 0.11366 0.65679 0.0592 0.0
C1523 C 0.11902 0.64198 0.04842 0.0
C1524 C 0.1451 0.64893 0.04579 0.0
C1525 C 0.16522 0.66987 0.05386 0.0
C1526 C 0.08136 0.59012 0.01703 0.0
C1527 C 0.05859 0.57352 0.0253 0.0
C1528 C 0.10056 0.6126 0.02433 0.0
C1529 C 0.09763 0.61898 0.04024 0.0
C1530 C 0.07453 0.60266 0.04842 0.0
C1531 C 0.05519 0.58028 0.041 0.0
H1532 H 0.30839 0.4647 0.03801 0.0
H1533 H 0.32544 0.43533 0.08084 0.0
H1534 H 0.35087 0.47533 0.02701 0.0
H1535 H 0.36701 0.44493 0.06952 0.0
H1536 H 0.41884 0.43183 0.03431 0.0
H1537 H 0.37716 0.42541 0.04381 0.0
H1538 H 0.40255 0.50457 0.03506 0.0
H1539 H 0.44484 0.51122 0.026 0.0
C1540 C 0.32119 0.46077 0.04518 0.0
C1541 C 0.31313 0.44873 0.06025 0.0
C1542 C 0.34547 0.46677 0.03882 0.0
C1543 C 0.36202 0.46059 0.04732 0.0
C1544 C 0.35442 0.44947 0.06258 0.0
C1545 C 0.33047 0.44384 0.06901 0.0
C1546 C 0.41543 0.4478 0.03425 0.0
C1547 C 0.43489 0.47189 0.02914 0.0
C1548 C 0.39163 0.44415 0.03973 0.0
C1549 C 0.38666 0.4645 0.04021 0.0
C1550 C 0.40583 0.48853 0.03471 0.0
C1551 C 0.42993 0.49229 0.02945 0.0
H1552 H 0.56147 0.85264 0.0307 0.0
H1553 H 0.56187 0.87852 0.07946 0.0
H1554 H 0.54313 0.87836 0.02106 0.0
H1555 H 0.54317 0.90393 0.06985 0.0
H1556 H 0.54875 0.97279 0.04266 0.0
H1557 H 0.56121 0.94308 0.05306 0.0
H1558 H 0.50352 0.88337 0.02252 0.0
H1559 H 0.49061 0.91309 0.01216 0.0
C1560 C 0.5574 0.86365 0.03937 0.0
C1561 C 0.5633 0.86375 0.05582 0.0
C1562 C 0.5467 0.87818 0.03387 0.0
C1563 C 0.54189 0.89328 0.04468 0.0
C1564 C 0.54694 0.89268 0.06121 0.0
C1565 C 0.55742 0.87797 0.06673 0.0
C1566 C 0.53857 0.95334 0.03813 0.0
C1567 C 0.51887 0.94548 0.02636 0.0
C1568 C 0.54564 0.93625 0.04421 0.0
C1569 C 0.53331 0.91089 0.03863 0.0
C1570 C 0.51351 0.90289 0.02693 0.0
C1571 C 0.50622 0.91996 0.02095 0.0
H1572 H 0.98749 0.22128 0.40879 0.0
H1573 H 0.99542 0.16827 0.37758 0.0
H1574 H 0.02344 0.25681 0.39517 0.0
H1575 H 0.03084 0.20382 0.36343 0.0
H1576 H 0.11512 0.27071 0.35938 0.0
H1577 H 0.0748 0.23421 0.36831 0.0
H1578 H 0.03992 0.28185 0.37202 0.0
H1579 H 0.08083 0.31856 0.36359 0.0
C1580 C 0.99655 0.21728 0.39873 0.0
C1581 C 0.98878 0.19202 0.39433 0.0
C1582 C 0.01715 0.23767 0.39085 0.0
C1583 C 0.03029 0.2333 0.37821 0.0
C1584 C 0.02162 0.20796 0.37332 0.0
C1585 C 1.00123 0.18757 0.38136 0.0
C1586 C 0.09866 0.27323 0.36179 0.0
C1587 C 0.10093 0.29735 0.3606 0.0
C1588 C 0.07544 0.25226 0.3669 0.0
C1589 C 0.05397 0.25498 0.371 0.0
C1590 C 0.05612 0.27906 0.36927 0.0
C1591 C 0.07945 0.30007 0.36432 0.0
H1592 H 0.79399 0.7578 0.36343 0.0
H1593 H 0.80618 0.80331 0.40655 0.0
H1594 H 0.76174 0.76842 0.35403 0.0
H1595 H 0.77508 0.81513 0.39642 0.0
H1596 H 0.73413 0.84612 0.36028 0.0
H1597 H 0.76931 0.83844 0.36853 0.0
H1598 H 0.71519 0.75749 0.36893 0.0
H1599 H 0.67992 0.76521 0.36109 0.0
C1600 C 0.78998 0.77009 0.37094 0.0
C1601 C 0.8026 0.77925 0.38598 0.0
C1602 C 0.77162 0.77634 0.36541 0.0
C1603 C 0.7659 0.79248 0.37453 0.0
C1604 C 0.77929 0.80274 0.38913 0.0
C1605 C 0.79726 0.79603 0.39487 0.0
C1606 C 0.72986 0.8267 0.36194 0.0
C1607 C 0.70447 0.80616 0.35966 0.0
C1608 C 0.74991 0.82234 0.36679 0.0
C1609 C 0.74494 0.79738 0.36925 0.0
C1610 C 0.71955 0.77689 0.36695 0.0
C1611 C 0.69943 0.78128 0.36249 0.0
H1612 H 0.27022 0.04029 0.37665 0.0
H1613 H 0.19344 0.02112 0.39247 0.0
H1614 H 0.25344 0.99666 0.36716 0.0
H1615 H 0.17674 0.97705 0.38334 0.0
H1616 H 0.1539 0.90648 0.35012 0.0
H1617 H 0.16883 0.95058 0.35833 0.0
H1618 H 0.23703 0.95524 0.38028 0.0
H1619 H 0.2226 0.9117 0.37187 0.0
C1620 C 0.24969 0.02681 0.37797 0.0
C1621 C 0.23316 0.03417 0.38531 0.0
C1622 C 0.24014 0.00173 0.37269 0.0
C1623 C 0.21381 0.98338 0.37462 0.0
C1624 C 0.19709 0.99081 0.38163 0.0
C1625 C 0.2067 0.01595 0.38698 0.0
C1626 C 0.17218 0.91699 0.35659 0.0
C1627 C 0.18723 0.90564 0.3601 0.0
C1628 C 0.18059 0.94217 0.36141 0.0
C1629 C 0.20423 0.95645 0.36981 0.0
C1630 C 0.21897 0.9449 0.37356 0.0
C1631 C 0.21057 0.91982 0.36881 0.0
H1632 H 0.5001 0.64793 0.2925 0.0
H1633 H 0.55524 0.62596 0.30851 0.0
H1634 H 0.53011 0.69192 0.30102 0.0
H1635 H 0.58465 0.66948 0.3175 0.0
H1636 H 0.64331 0.75384 0.31402 0.0
H1637 H 0.61228 0.71066 0.30529 0.0
H1638 H 0.54966 0.71853 0.32533 0.0
H1639 H 0.58069 0.76218 0.3337 0.0
C1640 C 0.51855 0.65245 0.29788 0.0
C1641 C 0.52524 0.6334 0.29983 0.0
C1642 C 0.53563 0.67759 0.3029 0.0
C1643 C 0.55983 0.68423 0.30988 0.0
C1644 C 0.56633 0.6651 0.31198 0.0
C1645 C 0.54929 0.64004 0.30701 0.0
C1646 C 0.62295 0.74648 0.31657 0.0
C1647 C 0.61459 0.76144 0.32478 0.0
C1648 C 0.60515 0.7216 0.31163 0.0
C1649 C 0.57851 0.71103 0.31475 0.0
C1650 C 0.57003 0.72613 0.32268 0.0
C1651 C 0.58788 0.75107 0.32763 0.0
H1652 H 0.35242 0.85616 0.31525 0.0
H1653 H 0.3477 0.9048 0.27919 0.0
H1654 H 0.31109 0.84846 0.32653 0.0
H1655 H 0.30633 0.89648 0.29008 0.0
H1656 H 0.2486 0.90074 0.32316 0.0
H1657 H 0.29064 0.90758 0.31415 0.0
H1658 H 0.26373 0.82737 0.32002 0.0
H1659 H 0.2216 0.82066 0.32906 0.0
C1660 C 0.34256 0.86511 0.30967 0.0
C1661 C 0.35346 0.88107 0.29626 0.0
C1662 C 0.31877 0.86054 0.31607 0.0
C1663 C 0.30545 0.872 0.30929 0.0
C1664 C 0.31621 0.88764 0.29577 0.0
C1665 C 0.33982 0.89211 0.28936 0.0
C1666 C 0.25182 0.88466 0.3227 0.0
C1667 C 0.23201 0.86029 0.32707 0.0
C1668 C 0.27582 0.8885 0.31744 0.0
C1669 C 0.28053 0.86799 0.31621 0.0
C1670 C 0.26085 0.84363 0.32093 0.0
C1671 C 0.23673 0.83978 0.32617 0.0
H1672 H 0.13003 0.45793 0.26161 0.0
H1673 H 0.14717 0.50509 0.30437 0.0
H1674 H 0.132 0.42526 0.27749 0.0
H1675 H 0.14826 0.47199 0.32039 0.0
H1676 H 0.18329 0.42251 0.33707 0.0
H1677 H 0.17702 0.4542 0.32308 0.0
H1678 H 0.1097 0.39408 0.29855 0.0
H1679 H 0.11601 0.36231 0.31243 0.0
C1680 C 0.13405 0.46124 0.27443 0.0
C1681 C 0.1386 0.48417 0.28171 0.0
C1682 C 0.13489 0.4424 0.28357 0.0
C1683 C 0.14033 0.44604 0.30021 0.0
C1684 C 0.14428 0.46872 0.30756 0.0
C1685 C 0.14338 0.48756 0.29842 0.0
C1686 C 0.16691 0.41599 0.32888 0.0
C1687 C 0.15018 0.38982 0.32588 0.0
C1688 C 0.16329 0.4342 0.32088 0.0
C1689 C 0.14292 0.42667 0.30965 0.0
C1690 C 0.1258 0.4005 0.30695 0.0
C1691 C 0.12938 0.38229 0.31498 0.0
H1692 H 0.37063 0.44424 0.31899 0.0
H1693 H 0.33535 0.47444 0.28709 0.0
H1694 H 0.32835 0.41573 0.33069 0.0
H1695 H 0.29284 0.44565 0.29871 0.0
H1696 H 0.22075 0.39903 0.32935 0.0
H1697 H 0.2647 0.43319 0.32275 0.0
H1698 H 0.29025 0.37785 0.32034 0.0
H1699 H 0.24669 0.34415 0.3272 0.0
C1700 C 0.35381 0.44479 0.31449 0.0
C1701 C 0.35627 0.46129 0.30192 0.0
C1702 C 0.32959 0.42848 0.32121 0.0
C1703 C 0.30715 0.42816 0.3155 0.0
C1704 C 0.30976 0.44555 0.30347 0.0
C1705 C 0.33409 0.46199 0.29677 0.0
C1706 C 0.23601 0.39442 0.32781 0.0
C1707 C 0.23062 0.36913 0.32912 0.0
C1708 C 0.26105 0.41387 0.32384 0.0
C1709 C 0.28103 0.40828 0.32106 0.0
C1710 C 0.27552 0.38295 0.32269 0.0
C1711 C 0.25057 0.36361 0.32654 0.0
H1712 H 0.51581 0.86639 0.31273 0.0
H1713 H 0.56548 0.90678 0.2727 0.0
H1714 H 0.54843 0.85618 0.32254 0.0
H1715 H 0.59801 0.89707 0.28269 0.0
H1716 H 0.66236 0.90314 0.31577 0.0
H1717 H 0.62764 0.91061 0.30669 0.0
H1718 H 0.57134 0.83139 0.31462 0.0
H1719 H 0.60631 0.82391 0.32352 0.0
C1720 C 0.53348 0.87284 0.30591 0.0
C1721 C 0.53807 0.88771 0.29201 0.0
C1722 C 0.55219 0.86705 0.31157 0.0
C1723 C 0.57596 0.87614 0.30352 0.0
C1724 C 0.58016 0.89027 0.28937 0.0
C1725 C 0.56147 0.89587 0.28367 0.0
C1726 C 0.64253 0.88739 0.31568 0.0
C1727 C 0.63696 0.86311 0.32068 0.0
C1728 C 0.62266 0.89161 0.31041 0.0
C1729 C 0.59672 0.87158 0.3099 0.0
C1730 C 0.59108 0.84726 0.31501 0.0
C1731 C 0.61107 0.84299 0.32017 0.0
H1732 H 0.10456 0.63743 0.28686 0.0
H1733 H 0.1882 0.67915 0.28311 0.0
H1734 H 0.10625 0.67287 0.30222 0.0
H1735 H 0.18989 0.71441 0.29834 0.0
H1736 H 0.18754 0.76295 0.33869 0.0
H1737 H 0.18285 0.72511 0.32528 0.0
H1738 H 0.11661 0.71709 0.29861 0.0
H1739 H 0.12069 0.75461 0.3125 0.0
C1740 C 0.12328 0.65419 0.28925 0.0
C1741 C 0.14626 0.65541 0.28385 0.0
C1742 C 0.12424 0.67448 0.29804 0.0
C1743 C 0.14821 0.6964 0.30159 0.0
C1744 C 0.17114 0.69759 0.29612 0.0
C1745 C 0.17018 0.67736 0.28738 0.0
C1746 C 0.17166 0.75294 0.3302 0.0
C1747 C 0.15443 0.76184 0.32674 0.0
C1748 C 0.16917 0.73136 0.32236 0.0
C1749 C 0.1495 0.7182 0.31077 0.0
C1750 C 0.13184 0.72667 0.30758 0.0
C1751 C 0.13429 0.74828 0.31548 0.0
H1752 H 0.84085 0.99163 0.406 0.0
H1753 H 0.80817 0.03648 0.38814 0.0
H1754 H 0.80713 0.95429 0.39188 0.0
H1755 H 0.77394 0.9987 0.37429 0.0
H1756 H 0.70181 0.9165 0.36803 0.0
H1757 H 0.73553 0.95562 0.38103 0.0
H1758 H 0.79421 0.93956 0.36348 0.0
H1759 H 0.76075 0.90049 0.35072 0.0
C1760 C 0.82666 0.99365 0.39893 0.0
C1761 C 0.82746 0.01722 0.39812 0.0
C1762 C 0.80726 0.97217 0.39087 0.0
C1763 C 0.78796 0.97359 0.3819 0.0
C1764 C 0.78845 0.997 0.38122 0.0
C1765 C 0.80804 0.01861 0.38919 0.0
C1766 C 0.72192 0.92139 0.36689 0.0
C1767 C 0.72855 0.90535 0.35831 0.0
C1768 C 0.74122 0.94386 0.37425 0.0
C1769 C 0.7675 0.95059 0.37333 0.0
C1770 C 0.77411 0.93474 0.36456 0.0
C1771 C 0.7549 0.91243 0.35712 0.0
H1772 H 0.97741 0.79713 0.37136 0.0
H1773 H 0.99057 0.76104 0.41222 0.0
H1774 H 0.02022 0.80805 0.36078 0.0
H1775 H 0.03259 0.77123 0.40139 0.0
H1776 H 0.08799 0.76314 0.3673 0.0
H1777 H 0.04573 0.75565 0.37638 0.0
H1778 H 0.0701 0.83485 0.36856 0.0
H1779 H 0.11283 0.84246 0.35978 0.0
C1780 C 0.98944 0.79176 0.37819 0.0
C1781 C 0.98022 0.77781 0.39256 0.0
C1782 C 0.01392 0.79795 0.37208 0.0
C1783 C 0.02956 0.79013 0.38013 0.0
C1784 C 0.02074 0.77704 0.39473 0.0
C1785 C 0.99655 0.77112 0.4009 0.0
C1786 C 0.08422 0.77889 0.36737 0.0
C1787 C 0.10351 0.80325 0.36257 0.0
C1788 C 0.06009 0.77464 0.37262 0.0
C1789 C 0.05463 0.79468 0.37327 0.0
C1790 C 0.0737 0.81901 0.3681 0.0
C1791 C 0.09808 0.82334 0.36301 0.0
H1792 H 0.27074 0.23188 0.37944 0.0
H1793 H 0.19451 0.17714 0.39679 0.0
H1794 H 0.25352 0.25784 0.3689 0.0
H1795 H 0.17718 0.20312 0.38595 0.0
H1796 H 0.15399 0.2478 0.35017 0.0
H1797 H 0.16938 0.2194 0.35957 0.0
H1798 H 0.2364 0.28376 0.3814 0.0
H1799 H 0.22144 0.312 0.37195 0.0
C1800 C 0.25033 0.22544 0.38111 0.0
C1801 C 0.23409 0.20258 0.38917 0.0
C1802 C 0.24045 0.24028 0.375 0.0
C1803 C 0.21405 0.23261 0.37672 0.0
C1804 C 0.19758 0.20941 0.38435 0.0
C1805 C 0.20751 0.19456 0.39056 0.0
C1806 C 0.17209 0.25588 0.35688 0.0
C1807 C 0.18661 0.28224 0.36013 0.0
C1808 C 0.18077 0.23959 0.36236 0.0
C1809 C 0.2042 0.24942 0.3711 0.0
C1810 C 0.21849 0.27569 0.37447 0.0
C1811 C 0.20979 0.29187 0.36911 0.0
H1812 H 0.65947 0.50092 0.70912 0.0
H1813 H 0.65596 0.55427 0.7424 0.0
H1814 H 0.69504 0.53625 0.69489 0.0
H1815 H 0.69181 0.58949 0.72853 0.0
H1816 H 0.74838 0.65102 0.6964 0.0
H1817 H 0.70723 0.61481 0.70506 0.0
H1818 H 0.73992 0.56548 0.69978 0.0
H1819 H 0.78055 0.60154 0.69079 0.0
C1820 C 0.66625 0.52022 0.71335 0.0
C1821 C 0.65499 0.5248 0.72693 0.0
C1822 C 0.68669 0.54047 0.70523 0.0
C1823 C 0.69651 0.56578 0.71061 0.0
C1824 C 0.68457 0.57035 0.72385 0.0
C1825 C 0.664 0.55012 0.73186 0.0
C1826 C 0.74647 0.63229 0.69684 0.0
C1827 C 0.76746 0.62898 0.69271 0.0
C1828 C 0.72301 0.61157 0.7019 0.0
C1829 C 0.72021 0.58717 0.70325 0.0
C1830 C 0.74112 0.58384 0.69867 0.0
C1831 C 0.7645 0.60454 0.69352 0.0
H1832 H 0.46101 0.09222 0.69711 0.0
H1833 H 0.47246 0.13727 0.74037 0.0
H1834 H 0.42843 0.10243 0.68772 0.0
H1835 H 0.44104 0.14868 0.73025 0.0
H1836 H 0.39962 0.17913 0.69402 0.0
H1837 H 0.43515 0.1719 0.70211 0.0
H1838 H 0.38157 0.09086 0.70297 0.0
H1839 H 0.34592 0.09813 0.69531 0.0
C1840 C 0.45677 0.10433 0.70465 0.0
C1841 C 0.46928 0.11348 0.71972 0.0
C1842 C 0.43823 0.11034 0.69913 0.0
C1843 C 0.43221 0.12623 0.7083 0.0
C1844 C 0.44549 0.13648 0.72293 0.0
C1845 C 0.46364 0.13002 0.72865 0.0
C1846 C 0.39553 0.15978 0.69575 0.0
C1847 C 0.37017 0.13909 0.69367 0.0
C1848 C 0.41579 0.15569 0.7005 0.0
C1849 C 0.41106 0.13083 0.70305 0.0
C1850 C 0.38572 0.11018 0.70093 0.0
C1851 C 0.36539 0.11432 0.69656 0.0
H1852 H 0.94141 0.37372 0.71292 0.0
H1853 H 0.86405 0.35874 0.72391 0.0
H1854 H 0.92367 0.32983 0.70386 0.0
H1855 H 0.84634 0.31429 0.71544 0.0
H1856 H 0.82326 0.24303 0.68328 0.0
H1857 H 0.83934 0.28724 0.69159 0.0
H1858 H 0.90413 0.28823 0.71598 0.0
H1859 H 0.88873 0.24464 0.70726 0.0
C1860 C 0.92057 0.3611 0.71332 0.0
C1861 C 0.90416 0.36979 0.71912 0.0
C1862 C 0.91043 0.33581 0.70832 0.0
C1863 C 0.88361 0.31848 0.70906 0.0
C1864 C 0.86708 0.3272 0.71464 0.0
C1865 C 0.87726 0.35258 0.71965 0.0
C1866 C 0.84107 0.25277 0.69027 0.0
C1867 C 0.85496 0.24039 0.69429 0.0
C1868 C 0.85012 0.27802 0.69519 0.0
C1869 C 0.87319 0.29136 0.70428 0.0
C1870 C 0.88661 0.2787 0.70867 0.0
C1871 C 0.87764 0.25358 0.70374 0.0
H1872 H 0.17074 0.96485 0.65375 0.0
H1873 H 0.20893 0.98249 0.60753 0.0
H1874 H 0.20085 0.00821 0.66322 0.0
H1875 H 0.23849 0.02594 0.61684 0.0
H1876 H 0.30663 0.08804 0.64632 0.0
H1877 H 0.27463 0.04594 0.63629 0.0
H1878 H 0.21352 0.05345 0.65904 0.0
H1879 H 0.24553 0.09574 0.66906 0.0
C1880 C 0.18542 0.97804 0.64558 0.0
C1881 C 0.18748 0.97018 0.6299 0.0
C1882 C 0.20252 0.00293 0.65096 0.0
C1883 C 0.22217 0.02046 0.64082 0.0
C1884 C 0.22378 0.01279 0.62502 0.0
C1885 C 0.20663 0.98797 0.61962 0.0
C1886 C 0.28639 0.08081 0.64919 0.0
C1887 C 0.27875 0.09524 0.65868 0.0
C1888 C 0.26801 0.05669 0.64335 0.0
C1889 C 0.24152 0.04635 0.64685 0.0
C1890 C 0.23382 0.06076 0.65629 0.0
C1891 C 0.25221 0.08499 0.66206 0.0
H1892 H 0.01481 0.24026 0.61276 0.0
H1893 H 0.01824 0.18993 0.64804 0.0
H1894 H 0.97342 0.23204 0.62359 0.0
H1895 H 0.97687 0.18227 0.65925 0.0
H1896 H 0.88754 0.15526 0.66131 0.0
H1897 H 0.92959 0.16183 0.65223 0.0
H1898 H 0.95766 0.24251 0.64801 0.0
H1899 H 0.91569 0.23583 0.6571 0.0
C1900 C 0.00664 0.22722 0.62274 0.0
C1901 C 0.01991 0.21567 0.62944 0.0
C1902 C 0.98302 0.2228 0.62911 0.0
C1903 C 0.9719 0.20668 0.64239 0.0
C1904 C 0.98486 0.19472 0.64898 0.0
C1905 C 0.00865 0.19926 0.64262 0.0
C1906 C 0.90291 0.17443 0.65879 0.0
C1907 C 0.89856 0.19514 0.66022 0.0
C1908 C 0.92697 0.17821 0.65352 0.0
C1909 C 0.94697 0.20268 0.64927 0.0
C1910 C 0.9426 0.22336 0.65096 0.0
C1911 C 0.91865 0.2196 0.65626 0.0
H1912 H 0.84664 0.84254 0.62373 0.0
H1913 H 0.76531 0.79011 0.6147 0.0
H1914 H 0.85031 0.80954 0.63795 0.0
H1915 H 0.76841 0.75717 0.62971 0.0
H1916 H 0.78956 0.69635 0.64149 0.0
H1917 H 0.78444 0.72914 0.62825 0.0
H1918 H 0.8406 0.78572 0.66123 0.0
H1919 H 0.84719 0.75326 0.67358 0.0
C1920 C 0.82942 0.82399 0.62507 0.0
C1921 C 0.80569 0.81883 0.61817 0.0
C1922 C 0.83144 0.80505 0.63331 0.0
C1923 C 0.80964 0.78056 0.63511 0.0
C1924 C 0.78575 0.7756 0.62836 0.0
C1925 C 0.78387 0.79447 0.61985 0.0
C1926 C 0.80083 0.71578 0.64595 0.0
C1927 C 0.81871 0.72206 0.65871 0.0
C1928 C 0.79769 0.73463 0.63842 0.0
C1929 C 0.81208 0.76023 0.64361 0.0
C1930 C 0.82949 0.76636 0.65665 0.0
C1931 C 0.83299 0.74759 0.66396 0.0
H1932 H 0.02292 0.81585 0.64923 0.0
H1933 H 0.01052 0.76104 0.61158 0.0
H1934 H 0.98059 0.78579 0.66073 0.0
H1935 H 0.9688 0.73112 0.62321 0.0
H1936 H 0.91279 0.67311 0.65775 0.0
H1937 H 0.95554 0.70622 0.64892 0.0
H1938 H 0.93144 0.76239 0.65359 0.0
H1939 H 0.88836 0.72896 0.66236 0.0
C1940 C 0.0111 0.79757 0.6433 0.0
C1941 C 0.02031 0.79076 0.62958 0.0
C1942 C 0.98693 0.78035 0.64993 0.0
C1943 C 0.97162 0.75597 0.64302 0.0
C1944 C 0.98046 0.74955 0.62903 0.0
C1945 C 0.0044 0.76671 0.62237 0.0
C1946 C 0.9168 0.69261 0.65715 0.0
C1947 C 0.89746 0.69856 0.66091 0.0
C1948 C 0.94117 0.71152 0.65201 0.0
C1949 C 0.94671 0.73682 0.65037 0.0
C1950 C 0.92772 0.74306 0.65479 0.0
C1951 C 0.90315 0.72399 0.65987 0.0
H1952 H 0.18121 0.20038 0.64712 0.0
H1953 H 0.2316 0.24017 0.60723 0.0
H1954 H 0.21354 0.1901 0.6574 0.0
H1955 H 0.26384 0.23039 0.61768 0.0
H1956 H 0.32758 0.23662 0.6512 0.0
H1957 H 0.29299 0.2442 0.64201 0.0
H1958 H 0.23649 0.16502 0.64984 0.0
H1959 H 0.27134 0.15741 0.65884 0.0
C1960 C 0.19897 0.20669 0.64043 0.0
C1961 C 0.20386 0.22142 0.62643 0.0
C1962 C 0.21752 0.20085 0.64636 0.0
C1963 C 0.2414 0.20976 0.63848 0.0
C1964 C 0.24589 0.22374 0.62424 0.0
C1965 C 0.22737 0.22938 0.61826 0.0
C1966 C 0.30773 0.2209 0.65109 0.0
C1967 C 0.30208 0.19658 0.65604 0.0
C1968 C 0.28795 0.22518 0.64575 0.0
C1969 C 0.262 0.20519 0.64513 0.0
C1970 C 0.25625 0.18086 0.6503 0.0
C1971 C 0.27616 0.17652 0.65552 0.0
H1972 H 0.78799 0.99747 0.59899 0.0
H1973 H 0.82457 0.9819 0.63886 0.0
H1974 H 0.79035 0.03345 0.61395 0.0
H1975 H 0.82615 0.01722 0.65413 0.0
H1976 H 0.85613 0.10053 0.66736 0.0
H1977 H 0.84978 0.06211 0.65397 0.0
H1978 H 0.77507 0.0473 0.63608 0.0
H1979 H 0.78189 0.08646 0.64914 0.0
C1980 C 0.7961 0.00151 0.61109 0.0
C1981 C 0.8063 0.98709 0.61773 0.0
C1982 C 0.79738 0.02205 0.61971 0.0
C1983 C 0.80863 0.02843 0.63523 0.0
C1984 C 0.81791 0.01329 0.64207 0.0
C1985 C 0.81692 0.99298 0.63337 0.0
C1986 C 0.83821 0.08899 0.66072 0.0
C1987 C 0.81949 0.09657 0.65935 0.0
C1988 C 0.83449 0.0668 0.65307 0.0
C1989 C 0.81185 0.05146 0.64394 0.0
C1990 C 0.7929 0.05882 0.6428 0.0
C1991 C 0.79674 0.0812 0.65036 0.0
H1992 H 0.51392 0.32702 0.73423 0.0
H1993 H 0.46919 0.36508 0.73006 0.0
H1994 H 0.47968 0.28987 0.72032 0.0
H1995 H 0.4354 0.32828 0.71532 0.0
H1996 H 0.3679 0.24619 0.70633 0.0
H1997 H 0.40189 0.28473 0.71948 0.0
H1998 H 0.46026 0.27533 0.69445 0.0
H1999 H 0.42651 0.23633 0.68198 0.0
C2000 C 0.49678 0.3275 0.73033 0.0
C2001 C 0.4943 0.34905 0.73337 0.0
C2002 C 0.47726 0.30628 0.72212 0.0
C2003 C 0.45475 0.30605 0.71662 0.0
C2004 C 0.45233 0.32768 0.71952 0.0
C2005 C 0.47187 0.34892 0.7278 0.0
C2006 C 0.38798 0.25239 0.70359 0.0
C2007 C 0.3944 0.23816 0.693 0.0
C2008 C 0.40749 0.27462 0.71105 0.0
C2009 C 0.43387 0.28316 0.70808 0.0
C2010 C 0.4402 0.26916 0.69724 0.0
C2011 C 0.42075 0.2469 0.68989 0.0
H2012 H 0.64452 0.13265 0.70528 0.0
H2013 H 0.65795 0.09654 0.74602 0.0
H2014 H 0.68729 0.14363 0.69459 0.0
H2015 H 0.69991 0.10675 0.73506 0.0
H2016 H 0.75448 0.09817 0.70037 0.0
H2017 H 0.71242 0.09094 0.70968 0.0
H2018 H 0.73747 0.17042 0.70249 0.0
H2019 H 0.78003 0.17779 0.69349 0.0
C2020 C 0.65661 0.12729 0.71207 0.0
C2021 C 0.64747 0.11331 0.72642 0.0
C2022 C 0.68105 0.13352 0.70589 0.0
C2023 C 0.69673 0.12568 0.71386 0.0
C2024 C 0.68802 0.11258 0.72847 0.0
C2025 C 0.66387 0.10664 0.73471 0.0
C2026 C 0.75091 0.11405 0.70063 0.0
C2027 C 0.77034 0.13842 0.69595 0.0
C2028 C 0.7269 0.10994 0.70601 0.0
C2029 C 0.72169 0.13013 0.70689 0.0
C2030 C 0.74089 0.15448 0.70184 0.0
C2031 C 0.76516 0.15867 0.69663 0.0
H2032 H 0.89282 0.54355 0.7463 0.0
H2033 H 0.89081 0.51653 0.69765 0.0
H2034 H 0.87369 0.56864 0.7368 0.0
H2035 H 0.87203 0.54193 0.68812 0.0
H2036 H 0.82007 0.57746 0.67955 0.0
H2037 H 0.83255 0.54744 0.69 0.0
H2038 H 0.89185 0.60744 0.7196 0.0
H2039 H 0.87989 0.63741 0.70908 0.0
C2040 C 0.88789 0.54265 0.73363 0.0
C2041 C 0.89349 0.52825 0.72269 0.0
C2042 C 0.87715 0.55716 0.72817 0.0
C2043 C 0.87158 0.5574 0.7117 0.0
C2044 C 0.876 0.54203 0.70088 0.0
C2045 C 0.88696 0.52768 0.70632 0.0
C2046 C 0.83593 0.58431 0.68816 0.0
C2047 C 0.84921 0.60999 0.69324 0.0
C2048 C 0.84297 0.56707 0.6942 0.0
C2049 C 0.86311 0.57509 0.70566 0.0
C2050 C 0.87601 0.60061 0.71095 0.0
C2051 C 0.86921 0.61784 0.7048 0.0
H2052 H 0.45916 0.91834 0.18883 0.0
H2053 H 0.50664 0.99497 0.20746 0.0
H2054 H 0.47119 0.93425 0.16124 0.0
H2055 H 0.5183 0.01079 0.18009 0.0
H2056 H 0.55652 0.02741 0.13123 0.0
H2057 H 0.54419 0.00808 0.15771 0.0
H2058 H 0.46473 0.96228 0.14145 0.0
H2059 H 0.47697 0.98201 0.11486 0.0
C2060 C 0.47218 0.93853 0.18704 0.0
C2061 C 0.48185 0.95539 0.20036 0.0
C2062 C 0.47891 0.94766 0.17125 0.0
C2063 C 0.49579 0.97379 0.16845 0.0
C2064 C 0.5055 0.99053 0.1818 0.0
C2065 C 0.49859 0.98148 0.1975 0.0
C2066 C 0.53636 0.01332 0.13326 0.0
C2067 C 0.51769 0.00663 0.12091 0.0
C2068 C 0.52931 0.00218 0.14847 0.0
C2069 C 0.50341 0.98386 0.15178 0.0
C2070 C 0.48488 0.97626 0.13927 0.0
C2071 C 0.49192 0.98756 0.12402 0.0
H2072 H 0.09999 0.54197 0.16844 0.0
H2073 H 0.03832 0.53342 0.19982 0.0
H2074 H 0.07079 0.5301 0.14531 0.0
H2075 H 0.00873 0.52071 0.17664 0.0
H2076 H 0.97696 0.53255 0.12781 0.0
H2077 H 1.00279 0.54048 0.15237 0.0
H2078 H 0.03266 0.49357 0.13353 0.0
H2079 H 0.0069 0.48569 0.10902 0.0
C2080 C 0.08015 0.5375 0.1704 0.0
C2081 C 0.07152 0.5388 0.18595 0.0
C2082 C 0.06331 0.53039 0.15716 0.0
C2083 C 0.0374 0.5244 0.15913 0.0
C2084 C 0.02864 0.52541 0.17471 0.0
C2085 C 0.0455 0.53245 0.188 0.0
C2086 C 0.98873 0.52361 0.12903 0.0
C2087 C 0.99009 0.50871 0.1164 0.0
C2088 C 0.00352 0.52814 0.1431 0.0
C2089 C 0.01997 0.51785 0.14484 0.0
C2090 C 0.02059 0.50221 0.13243 0.0
C2091 C 0.00584 0.49769 0.11839 0.0
H2092 H 0.50474 0.56372 0.19724 0.0
H2093 H 0.45372 0.48204 0.19832 0.0
H2094 H 0.51627 0.56032 0.16949 0.0
H2095 H 0.46503 0.47875 0.17047 0.0
H2096 H 0.47808 0.48533 0.11563 0.0
H2097 H 0.46254 0.49041 0.14197 0.0
H2098 H 0.54158 0.54268 0.15686 0.0
H2099 H 0.55699 0.53794 0.13056 0.0
C2100 C 0.49589 0.54504 0.19155 0.0
C2101 C 0.47851 0.52312 0.20011 0.0
C2102 C 0.5025 0.54311 0.17564 0.0
C2103 C 0.49178 0.51924 0.16783 0.0
C2104 C 0.47348 0.49745 0.1761 0.0
C2105 C 0.46696 0.49935 0.19207 0.0
C2106 C 0.49206 0.49811 0.12449 0.0
C2107 C 0.51877 0.51116 0.12104 0.0
C2108 C 0.48319 0.50086 0.1396 0.0
C2109 C 0.50082 0.51696 0.1515 0.0
C2110 C 0.52746 0.53035 0.14791 0.0
C2111 C 0.53633 0.52743 0.1329 0.0
H2112 H 0.95049 0.48913 0.82669 0.0
H2113 H 0.0137 0.47822 0.81161 0.0
H2114 H 0.96413 0.49165 0.85484 0.0
H2115 H 0.02771 0.4813 0.83953 0.0
H2116 H 0.03115 0.46137 0.89136 0.0
H2117 H 0.01524 0.45796 0.86385 0.0
H2118 H 0.99756 0.51772 0.874 0.0
H2119 H 0.01296 0.52062 0.90172 0.0
C2120 C 0.96741 0.48748 0.8294 0.0
C2121 C 0.98088 0.48323 0.81698 0.0
C2122 C 0.97529 0.48899 0.84551 0.0
C2123 C 0.99692 0.48648 0.84951 0.0
C2124 C 0.01059 0.48269 0.83698 0.0
C2125 C 1.00261 0.48098 0.82095 0.0
C2126 C 0.02391 0.47381 0.88769 0.0
C2127 C 0.02346 0.49138 0.89865 0.0
C2128 C 0.01485 0.47193 0.8719 0.0
C2129 C 0.00534 0.48775 0.8666 0.0
C2130 C 0.00448 0.50504 0.87768 0.0
C2131 C 0.01336 0.50677 0.89355 0.0
H2132 H 0.49436 0.4437 0.82297 0.0
H2133 H 0.57308 0.49906 0.83698 0.0
H2134 H 0.47856 0.45215 0.84782 0.0
H2135 H 0.55701 0.50932 0.86107 0.0
H2136 H 0.52507 0.50368 0.91119 0.0
H2137 H 0.54057 0.49471 0.88639 0.0
H2138 H 0.46989 0.47981 0.86201 0.0
H2139 H 0.45331 0.48628 0.88719 0.0
C2140 C 0.50837 0.4578 0.83127 0.0
C2141 C 0.53512 0.47047 0.82788 0.0
C2142 C 0.49919 0.46302 0.84548 0.0
C2143 C 0.51641 0.48145 0.85663 0.0
C2144 C 0.54309 0.49463 0.85302 0.0
C2145 C 0.55232 0.48907 0.83895 0.0
C2146 C 0.51252 0.49797 0.90066 0.0
C2147 C 0.48776 0.4956 0.90138 0.0
C2148 C 0.5217 0.4933 0.88625 0.0
C2149 C 0.50663 0.48659 0.87202 0.0
C2150 C 0.482 0.48452 0.8727 0.0
C2151 C 0.47262 0.48871 0.88717 0.0
H2152 H 0.54745 0.04283 0.82358 0.0
H2153 H 0.49115 0.06794 0.82612 0.0
H2154 H 0.53666 0.0268 0.85098 0.0
H2155 H 0.4801 0.05148 0.85345 0.0
H2156 H 0.44372 0.9872 0.89133 0.0
H2157 H 0.45782 0.00898 0.8656 0.0
H2158 H 0.53789 0.03868 0.87975 0.0
H2159 H 0.52368 0.01642 0.90548 0.0
C2160 C 0.53312 0.0454 0.83005 0.0
C2161 C 0.5201 0.05661 0.8225 0.0
C2162 C 0.52689 0.03612 0.8458 0.0
C2163 C 0.50736 0.03765 0.85441 0.0
C2164 C 0.49492 0.04958 0.84707 0.0
C2165 C 0.50125 0.059 0.83137 0.0
C2166 C 0.46435 0.99839 0.88897 0.0
C2167 C 0.48256 0.99991 0.90043 0.0
C2168 C 0.47245 0.01111 0.87427 0.0
C2169 C 0.49901 0.02559 0.87056 0.0
C2170 C 0.51728 0.02752 0.88215 0.0
C2171 C 0.50915 0.01495 0.89695 0.0
H2172 H 0.12614 0.25303 0.52245 0.0
H2173 H 0.17372 0.3296 0.54115 0.0
H2174 H 0.13802 0.26904 0.49487 0.0
H2175 H 0.18521 0.34552 0.5138 0.0
H2176 H 0.2229 0.36259 0.46482 0.0
H2177 H 0.2109 0.34309 0.49127 0.0
H2178 H 0.13135 0.297 0.47521 0.0
H2179 H 0.14328 0.31688 0.44866 0.0
C2180 C 0.13916 0.27323 0.52068 0.0
C2181 C 0.14889 0.29004 0.53402 0.0
C2182 C 0.1458 0.28242 0.50489 0.0
C2183 C 0.16264 0.30855 0.50212 0.0
C2184 C 0.17243 0.32525 0.51548 0.0
C2185 C 0.16562 0.31614 0.53118 0.0
C2186 C 0.2028 0.34839 0.46689 0.0
C2187 C 0.18401 0.34166 0.45461 0.0
C2188 C 0.19593 0.33716 0.48208 0.0
C2189 C 0.1701 0.31871 0.48545 0.0
C2190 C 0.15145 0.31107 0.473 0.0
C2191 C 0.15831 0.32246 0.45776 0.0
H2192 H 0.76384 0.87207 0.50344 0.0
H2193 H 0.7036 0.87083 0.53308 0.0
H2194 H 0.73587 0.86149 0.47979 0.0
H2195 H 0.67512 0.85926 0.50942 0.0
H2196 H 0.64732 0.87188 0.45953 0.0
H2197 H 0.67193 0.87894 0.48453 0.0
H2198 H 0.69688 0.82696 0.46775 0.0
H2199 H 0.67243 0.82006 0.44277 0.0
C2200 C 0.74457 0.86947 0.50491 0.0
C2201 C 0.73602 0.87247 0.52013 0.0
C2202 C 0.7284 0.86308 0.49138 0.0
C2203 C 0.70322 0.85947 0.49271 0.0
C2204 C 0.69449 0.86213 0.50796 0.0
C2205 C 0.7107 0.86849 0.52154 0.0
C2206 C 0.65776 0.86169 0.46129 0.0
C2207 C 0.65814 0.8456 0.44911 0.0
C2208 C 0.67185 0.86571 0.47562 0.0
C2209 C 0.68656 0.85368 0.47808 0.0
C2210 C 0.68619 0.83693 0.46611 0.0
C2211 C 0.67218 0.83296 0.45179 0.0
H2212 H 0.17978 0.89634 0.5318 0.0
H2213 H 0.12184 0.81629 0.53115 0.0
H2214 H 0.19136 0.89272 0.50412 0.0
H2215 H 0.1334 0.81268 0.50341 0.0
H2216 H 0.14819 0.81985 0.44897 0.0
H2217 H 0.13347 0.82563 0.47537 0.0
H2218 H 0.21329 0.87289 0.49076 0.0
H2219 H 0.22791 0.86774 0.46433 0.0
C2220 C 0.16949 0.87796 0.52574 0.0
C2221 C 0.15004 0.85655 0.53377 0.0
C2222 C 0.17614 0.87589 0.50987 0.0
C2223 C 0.1635 0.85236 0.50158 0.0
C2224 C 0.14337 0.83115 0.50938 0.0
C2225 C 0.13672 0.83322 0.52529 0.0
C2226 C 0.16256 0.83173 0.45793 0.0
C2227 C 0.18923 0.84326 0.45455 0.0
C2228 C 0.15413 0.83484 0.47311 0.0
C2229 C 0.17219 0.84971 0.4852 0.0
C2230 C 0.19883 0.86155 0.4817 0.0
C2231 C 0.20724 0.85835 0.46659 0.0
H2232 H 0.61686 0.82004 0.16023 0.0
H2233 H 0.67993 0.80922 0.14473 0.0
H2234 H 0.63065 0.82228 0.18831 0.0
H2235 H 0.69413 0.81208 0.17257 0.0
H2236 H 0.69887 0.79267 0.22428 0.0
H2237 H 0.68237 0.78898 0.19689 0.0
H2238 H 0.664 0.84818 0.20741 0.0
H2239 H 0.67993 0.85128 0.23501 0.0
C2240 C 0.63377 0.81833 0.16284 0.0
C2241 C 0.64716 0.81422 0.15031 0.0
C2242 C 0.64174 0.81968 0.17891 0.0
C2243 C 0.66342 0.81717 0.18277 0.0
C2244 C 0.67698 0.81346 0.17014 0.0
C2245 C 0.66889 0.81189 0.15415 0.0
C2246 C 0.69132 0.8049 0.22071 0.0
C2247 C 0.69085 0.82238 0.23174 0.0
C2248 C 0.68193 0.80287 0.20499 0.0
C2249 C 0.67207 0.81847 0.19983 0.0
C2250 C 0.67117 0.83566 0.21098 0.0
C2251 C 0.68036 0.83751 0.22679 0.0
H2252 H 0.19716 0.8282 0.1517 0.0
H2253 H 0.20745 0.77232 0.17755 0.0
H2254 H 0.18104 0.83812 0.17643 0.0
H2255 H 0.19203 0.78266 0.2023 0.0
H2256 H 0.19377 0.83492 0.24517 0.0
H2257 H 0.20966 0.82564 0.22043 0.0
H2258 H 0.13921 0.80958 0.19561 0.0
H2259 H 0.12232 0.81722 0.22053 0.0
C2260 C 0.19609 0.8182 0.1627 0.0
C2261 C 0.20341 0.79947 0.16278 0.0
C2262 C 0.18682 0.82377 0.17677 0.0
C2263 C 0.18536 0.81114 0.19121 0.0
C2264 C 0.19309 0.79272 0.19132 0.0
C2265 C 0.20177 0.78674 0.17719 0.0
C2266 C 0.18133 0.82895 0.23459 0.0
C2267 C 0.15656 0.82668 0.23503 0.0
C2268 C 0.19061 0.82387 0.22038 0.0
C2269 C 0.17566 0.81698 0.20616 0.0
C2270 C 0.1512 0.81513 0.20641 0.0
C2271 C 0.14163 0.81967 0.2207 0.0
H2272 H 0.15318 0.39731 0.15942 0.0
H2273 H 0.21362 0.3776 0.15789 0.0
H2274 H 0.14231 0.38072 0.18673 0.0
H2275 H 0.20289 0.36127 0.18525 0.0
H2276 H 0.18878 0.35013 0.23961 0.0
H2277 H 0.20248 0.37231 0.21384 0.0
H2278 H 0.12216 0.33876 0.19909 0.0
H2279 H 0.10854 0.31718 0.22489 0.0
C2280 C 0.16421 0.3895 0.16489 0.0
C2281 C 0.18419 0.38867 0.15632 0.0
C2282 C 0.15797 0.37999 0.18058 0.0
C2283 C 0.17158 0.36946 0.18818 0.0
C2284 C 0.19217 0.36948 0.17986 0.0
C2285 C 0.19836 0.37891 0.16414 0.0
C2286 C 0.17406 0.34778 0.23094 0.0
C2287 C 0.14755 0.33175 0.2343 0.0
C2288 C 0.18191 0.36031 0.21611 0.0
C2289 C 0.16344 0.3573 0.20434 0.0
C2290 C 0.13694 0.34176 0.2079 0.0
C2291 C 0.12912 0.32913 0.22264 0.0
H2292 H 0.83729 0.65945 0.87352 0.0
H2293 H 0.78947 0.58287 0.85489 0.0
H2294 H 0.84931 0.67519 0.84616 0.0
H2295 H 0.80184 0.59871 0.8273 0.0
H2296 H 0.80858 0.64696 0.78088 0.0
H2297 H 0.79587 0.62715 0.80743 0.0
H2298 H 0.87531 0.67194 0.82394 0.0
H2299 H 0.88809 0.69132 0.7975 0.0
C2300 C 0.82923 0.64597 0.86356 0.0
C2301 C 0.81231 0.61991 0.86641 0.0
C2302 C 0.83635 0.65496 0.84786 0.0
C2303 C 0.82664 0.63821 0.83453 0.0
C2304 C 0.80956 0.61212 0.83732 0.0
C2305 C 0.80263 0.60304 0.85311 0.0
C2306 C 0.82341 0.65225 0.79008 0.0
C2307 C 0.84932 0.67107 0.78706 0.0
C2308 C 0.81611 0.64092 0.80531 0.0
C2309 C 0.83451 0.64824 0.81788 0.0
C2310 C 0.86054 0.66628 0.81465 0.0
C2311 C 0.86785 0.67744 0.79946 0.0
H2312 H 0.43532 0.20986 0.83657 0.0
H2313 H 0.37396 0.20306 0.86758 0.0
H2314 H 0.40639 0.19832 0.81332 0.0
H2315 H 0.34462 0.19068 0.84428 0.0
H2316 H 0.31376 0.20252 0.7951 0.0
H2317 H 0.33942 0.21048 0.81974 0.0
H2318 H 0.36789 0.162 0.80165 0.0
H2319 H 0.34228 0.15405 0.77707 0.0
C2320 C 0.41561 0.20585 0.83842 0.0
C2321 C 0.40699 0.20753 0.85391 0.0
C2322 C 0.39892 0.19894 0.82512 0.0
C2323 C 0.37317 0.19352 0.82695 0.0
C2324 C 0.36441 0.19493 0.84246 0.0
C2325 C 0.38113 0.20178 0.85581 0.0
C2326 C 0.32519 0.19326 0.7965 0.0
C2327 C 0.32619 0.17787 0.78405 0.0
C2328 C 0.33988 0.19781 0.81062 0.0
C2329 C 0.35588 0.18706 0.81259 0.0
C2330 C 0.35617 0.17098 0.80037 0.0
C2331 C 0.3415 0.16644 0.78628 0.0
H2332 H 0.83973 0.15922 0.87436 0.0
H2333 H 0.79565 0.19399 0.85808 0.0
H2334 H 0.85144 0.15647 0.84664 0.0
H2335 H 0.80689 0.19045 0.83015 0.0
H2336 H 0.81451 0.15312 0.7815 0.0
H2337 H 0.80052 0.15666 0.80867 0.0
H2338 H 0.87942 0.18911 0.82596 0.0
H2339 H 0.8936 0.18637 0.7989 0.0
C2340 C 0.83257 0.16637 0.8649 0.0
C2341 C 0.81704 0.1772 0.86856 0.0
C2342 C 0.83925 0.1647 0.84898 0.0
C2343 C 0.83034 0.17352 0.83624 0.0
C2344 C 0.81398 0.18344 0.83974 0.0
C2345 C 0.80748 0.18537 0.85574 0.0
C2346 C 0.82897 0.16141 0.79103 0.0
C2347 C 0.85518 0.16919 0.78798 0.0
C2348 C 0.8209 0.16335 0.8066 0.0
C2349 C 0.83882 0.17286 0.81947 0.0
C2350 C 0.86507 0.18122 0.81635 0.0
C2351 C 0.87316 0.17955 0.80082 0.0
H2352 H 0.31444 0.18231 0.48847 0.0
H2353 H 0.29233 0.10266 0.48747 0.0
H2354 H 0.32863 0.18564 0.51645 0.0
H2355 H 0.30641 0.10594 0.51548 0.0
H2356 H 0.33379 0.17822 0.57079 0.0
H2357 H 0.31441 0.17236 0.54397 0.0
H2358 H 0.34743 0.12578 0.52999 0.0
H2359 H 0.36592 0.13083 0.55693 0.0
C2360 C 0.31216 0.16539 0.49431 0.0
C2361 C 0.30241 0.14226 0.48571 0.0
C2362 C 0.32031 0.1673 0.51036 0.0
C2363 C 0.31885 0.14611 0.51818 0.0
C2364 C 0.30828 0.12276 0.50972 0.0
C2365 C 0.30017 0.12087 0.49368 0.0
C2366 C 0.3366 0.16644 0.56205 0.0
C2367 C 0.35147 0.15505 0.56599 0.0
C2368 C 0.32572 0.1633 0.54663 0.0
C2369 C 0.32939 0.14863 0.53481 0.0
C2370 C 0.34395 0.13696 0.53885 0.0
C2371 C 0.35485 0.14013 0.55424 0.0
H2372 H 0.82814 0.10502 0.49195 0.0
H2373 H 0.90523 0.16774 0.50237 0.0
H2374 H 0.81244 0.11404 0.5167 0.0
H2375 H 0.88906 0.17804 0.52648 0.0
H2376 H 0.85965 0.17309 0.57755 0.0
H2377 H 0.87523 0.16408 0.55273 0.0
H2378 H 0.80154 0.14173 0.52962 0.0
H2379 H 0.78525 0.14877 0.55482 0.0
C2380 C 0.84178 0.12083 0.49946 0.0
C2381 C 0.86807 0.13548 0.49511 0.0
C2382 C 0.83263 0.12629 0.51359 0.0
C2383 C 0.84941 0.1468 0.52372 0.0
C2384 C 0.87558 0.16182 0.51919 0.0
C2385 C 0.88481 0.15616 0.50515 0.0
C2386 C 0.84656 0.16584 0.56728 0.0
C2387 C 0.82106 0.16154 0.56834 0.0
C2388 C 0.8557 0.16108 0.55289 0.0
C2389 C 0.83974 0.1522 0.53904 0.0
C2390 C 0.81434 0.14819 0.54004 0.0
C2391 C 0.80509 0.15263 0.55449 0.0
H2392 H 0.88045 0.70755 0.48961 0.0
H2393 H 0.82399 0.73246 0.49229 0.0
H2394 H 0.86976 0.69146 0.51701 0.0
H2395 H 0.81305 0.71595 0.51962 0.0
H2396 H 0.77693 0.65169 0.5575 0.0
H2397 H 0.79091 0.67344 0.53176 0.0
H2398 H 0.87105 0.70331 0.5458 0.0
H2399 H 0.85696 0.68107 0.57155 0.0
C2400 C 0.8661 0.71006 0.49611 0.0
C2401 C 0.85301 0.72124 0.48859 0.0
C2402 C 0.85993 0.70075 0.51185 0.0
C2403 C 0.84039 0.70221 0.5205 0.0
C2404 C 0.82788 0.7141 0.51321 0.0
C2405 C 0.83415 0.72354 0.4975 0.0
C2406 C 0.79755 0.66291 0.55512 0.0
C2407 C 0.81581 0.66448 0.56656 0.0
C2408 C 0.80558 0.67561 0.54041 0.0
C2409 C 0.83212 0.69013 0.53667 0.0
C2410 C 0.85045 0.69211 0.54823 0.0
C2411 C 0.84239 0.67955 0.56304 0.0
loop_
_geom_bond_atom_site_label_1
_geom_bond_atom_site_label_2
_geom_bond_distance
_geom_bond_site_symmetry_2
_ccdc_geom_bond_type
P0 O11 1.490 . S
P0 C14 1.812 . S
P0 C20 1.803 . S
P0 C26 1.819 . S
H1 C15 0.941 . S
H2 C16 0.939 . S
H3 C18 0.940 . S
H4 C19 0.940 . S
H5 C21 0.939 . S
H6 C22 0.942 . S
H7 C24 0.940 . S
H8 C25 0.939 . S
H9 C27 0.941 . S
H10 C31 0.939 . S
O11 P0 1.490 . S
H12 C28 0.939 . S
H13 C30 0.940 . S
C14 P0 1.812 . S
C14 C15 1.389 . S
C14 C19 1.391 . S
C15 H1 0.941 . S
C15 C14 1.389 . S
C15 C16 1.397 . S
C16 H2 0.939 . S
C16 C15 1.397 . S
C16 C17 1.378 . S
C17 C16 1.378 . S
C17 C18 1.378 . S
C18 H3 0.940 . S
C18 C17 1.378 . S
C18 C19 1.396 . S
C19 H4 0.940 . S
C19 C14 1.391 . S
C19 C18 1.396 . S
C20 P0 1.803 . S
C20 C21 1.378 . S
C20 C25 1.400 . S
C21 H5 0.939 . S
C21 C20 1.378 . S
C21 C22 1.361 . S
C22 H6 0.942 . S
C22 C21 1.361 . S
C22 C23 1.369 . S
C23 C22 1.369 . S
C23 C24 1.404 . S
C24 H7 0.940 . S
C24 C23 1.404 . S
C24 C25 1.389 . S
C25 H8 0.939 . S
C25 C20 1.400 . S
C25 C24 1.389 . S
C26 P0 1.819 . S
C26 C27 1.391 . S
C26 C31 1.391 . S
C27 H9 0.941 . S
C27 C26 1.391 . S
C27 C28 1.396 . S
C28 H12 0.939 . S
C28 C27 1.396 . S
C28 C29 1.397 . S
C29 C28 1.397 . S
C29 C30 1.385 . S
C30 H13 0.940 . S
C30 C29 1.385 . S
C30 C31 1.388 . S
C31 H10 0.939 . S
C31 C26 1.391 . S
C31 C30 1.388 . S
P32 O43 1.490 . S
P32 C46 1.812 . S
P32 C52 1.803 . S
P32 C58 1.819 . S
H33 C47 0.941 . S
H34 C48 0.939 . S
H35 C50 0.940 . S
H36 C51 0.940 . S
H37 C53 0.939 . S
H38 C54 0.942 . S
H39 C56 0.940 . S
H40 C57 0.939 . S
H41 C59 0.941 . S
H42 C63 0.939 . S
O43 P32 1.490 . S
H44 C60 0.939 . S
H45 C62 0.940 . S
C46 P32 1.812 . S
C46 C47 1.389 . S
C46 C51 1.391 . S
C47 H33 0.941 . S
C47 C46 1.389 . S
C47 C48 1.397 . S
C48 H34 0.939 . S
C48 C47 1.397 . S
C48 C49 1.378 . S
C49 C48 1.378 . S
C49 C50 1.378 . S
C50 H35 0.940 . S
C50 C49 1.378 . S
C50 C51 1.396 . S
C51 H36 0.940 . S
C51 C46 1.391 . S
C51 C50 1.396 . S
C52 P32 1.803 . S
C52 C53 1.378 . S
C52 C57 1.400 . S
C53 H37 0.939 . S
C53 C52 1.378 . S
C53 C54 1.361 . S
C54 H38 0.942 . S
C54 C53 1.361 . S
C54 C55 1.369 . S
C55 C54 1.369 . S
C55 C56 1.404 . S
C56 H39 0.940 . S
C56 C55 1.404 . S
C56 C57 1.389 . S
C57 H40 0.939 . S
C57 C52 1.400 . S
C57 C56 1.389 . S
C58 P32 1.819 . S
C58 C59 1.391 . S
C58 C63 1.391 . S
C59 H41 0.941 . S
C59 C58 1.391 . S
C59 C60 1.396 . S
C60 H44 0.939 . S
C60 C59 1.396 . S
C60 C61 1.397 . S
C61 C60 1.397 . S
C61 C62 1.385 . S
C62 H45 0.940 . S
C62 C61 1.385 . S
C62 C63 1.388 . S
C63 H42 0.939 . S
C63 C58 1.391 . S
C63 C62 1.388 . S
P64 O75 1.490 . S
P64 C78 1.812 . S
P64 C84 1.803 . S
P64 C90 1.819 . S
H65 C79 0.941 . S
H66 C80 0.939 . S
H67 C82 0.940 . S
H68 C83 0.940 . S
H69 C85 0.939 . S
H70 C86 0.942 . S
H71 C88 0.940 . S
H72 C89 0.939 . S
H73 C91 0.941 . S
H74 C95 0.939 . S
O75 P64 1.490 . S
H76 C92 0.939 . S
H77 C94 0.940 . S
C78 P64 1.812 . S
C78 C79 1.389 . S
C78 C83 1.391 . S
C79 H65 0.941 . S
C79 C78 1.389 . S
C79 C80 1.397 . S
C80 H66 0.939 . S
C80 C79 1.397 . S
C80 C81 1.378 . S
C81 C80 1.378 . S
C81 C82 1.378 . S
C82 H67 0.940 . S
C82 C81 1.378 . S
C82 C83 1.396 . S
C83 H68 0.940 . S
C83 C78 1.391 . S
C83 C82 1.396 . S
C84 P64 1.803 . S
C84 C85 1.378 . S
C84 C89 1.400 . S
C85 H69 0.939 . S
C85 C84 1.378 . S
C85 C86 1.361 . S
C86 H70 0.942 . S
C86 C85 1.361 . S
C86 C87 1.369 . S
C87 C86 1.369 . S
C87 C88 1.404 . S
C88 H71 0.940 . S
C88 C87 1.404 . S
C88 C89 1.389 . S
C89 H72 0.939 . S
C89 C84 1.400 . S
C89 C88 1.389 . S
C90 P64 1.819 . S
C90 C91 1.391 . S
C90 C95 1.391 . S
C91 H73 0.941 . S
C91 C90 1.391 . S
C91 C92 1.396 . S
C92 H76 0.939 . S
C92 C91 1.396 . S
C92 C93 1.397 . S
C93 C92 1.397 . S
C93 C94 1.385 . S
C94 H77 0.940 . S
C94 C93 1.385 . S
C94 C95 1.388 . S
C95 H74 0.939 . S
C95 C90 1.391 . S
C95 C94 1.388 . S
P96 O107 1.490 . S
P96 C110 1.812 . S
P96 C116 1.803 . S
P96 C122 1.819 . S
H97 C111 0.941 . S
H98 C112 0.939 . S
H99 C114 0.940 . S
H100 C115 0.940 . S
H101 C117 0.939 . S
H102 C118 0.942 . S
H103 C120 0.940 . S
H104 C121 0.939 . S
H105 C123 0.941 . S
H106 C127 0.939 . S
O107 P96 1.490 . S
H108 C124 0.939 . S
H109 C126 0.940 . S
C110 P96 1.812 . S
C110 C111 1.389 . S
C110 C115 1.391 . S
C111 H97 0.941 . S
C111 C110 1.389 . S
C111 C112 1.397 . S
C112 H98 0.939 . S
C112 C111 1.397 . S
C112 C113 1.378 . S
C113 C112 1.378 . S
C113 C114 1.378 . S
C114 H99 0.940 . S
C114 C113 1.378 . S
C114 C115 1.396 . S
C115 H100 0.940 . S
C115 C110 1.391 . S
C115 C114 1.396 . S
C116 P96 1.803 . S
C116 C117 1.378 . S
C116 C121 1.400 . S
C117 H101 0.939 . S
C117 C116 1.378 . S
C117 C118 1.361 . S
C118 H102 0.942 . S
C118 C117 1.361 . S
C118 C119 1.369 . S
C119 C118 1.369 . S
C119 C120 1.404 . S
C120 H103 0.940 . S
C120 C119 1.404 . S
C120 C121 1.389 . S
C121 H104 0.939 . S
C121 C116 1.400 . S
C121 C120 1.389 . S
C122 P96 1.819 . S
C122 C123 1.391 . S
C122 C127 1.391 . S
C123 H105 0.941 . S
C123 C122 1.391 . S
C123 C124 1.396 . S
C124 H108 0.939 . S
C124 C123 1.396 . S
C124 C125 1.397 . S
C125 C124 1.397 . S
C125 C126 1.385 . S
C126 H109 0.940 . S
C126 C125 1.385 . S
C126 C127 1.388 . S
C127 H106 0.939 . S
C127 C122 1.391 . S
C127 C126 1.388 . S
P128 O139 1.490 . S
P128 C142 1.812 . S
P128 C148 1.803 . S
P128 C154 1.819 . S
H129 C143 0.941 . S
H130 C144 0.939 . S
H131 C146 0.940 . S
H132 C147 0.940 . S
H133 C149 0.939 . S
H134 C150 0.942 . S
H135 C152 0.940 . S
H136 C153 0.939 . S
H137 C155 0.941 . S
H138 C159 0.939 . S
O139 P128 1.490 . S
H140 C156 0.939 . S
H141 C158 0.940 . S
C142 P128 1.812 . S
C142 C143 1.389 . S
C142 C147 1.391 . S
C143 H129 0.941 . S
C143 C142 1.389 . S
C143 C144 1.397 . S
C144 H130 0.939 . S
C144 C143 1.397 . S
C144 C145 1.378 . S
C145 C144 1.378 . S
C145 C146 1.378 . S
C146 H131 0.940 . S
C146 C145 1.378 . S
C146 C147 1.396 . S
C147 H132 0.940 . S
C147 C142 1.391 . S
C147 C146 1.396 . S
C148 P128 1.803 . S
C148 C149 1.378 . S
C148 C153 1.400 . S
C149 H133 0.939 . S
C149 C148 1.378 . S
C149 C150 1.361 . S
C150 H134 0.942 . S
C150 C149 1.361 . S
C150 C151 1.369 . S
C151 C150 1.369 . S
C151 C152 1.404 . S
C152 H135 0.940 . S
C152 C151 1.404 . S
C152 C153 1.389 . S
C153 H136 0.939 . S
C153 C148 1.400 . S
C153 C152 1.389 . S
C154 P128 1.819 . S
C154 C155 1.391 . S
C154 C159 1.391 . S
C155 H137 0.941 . S
C155 C154 1.391 . S
C155 C156 1.396 . S
C156 H140 0.939 . S
C156 C155 1.396 . S
C156 C157 1.397 . S
C157 C156 1.397 . S
C157 C158 1.385 . S
C158 H141 0.940 . S
C158 C157 1.385 . S
C158 C159 1.388 . S
C159 H138 0.939 . S
C159 C154 1.391 . S
C159 C158 1.388 . S
P160 O171 1.490 . S
P160 C174 1.812 . S
P160 C180 1.803 . S
P160 C186 1.819 . S
H161 C175 0.941 . S
H162 C176 0.939 . S
H163 C178 0.940 . S
H164 C179 0.940 . S
H165 C181 0.939 . S
H166 C182 0.942 . S
H167 C184 0.940 . S
H168 C185 0.939 . S
H169 C187 0.941 . S
H170 C191 0.939 . S
O171 P160 1.490 . S
H172 C188 0.939 . S
H173 C190 0.940 . S
C174 P160 1.812 . S
C174 C175 1.389 . S
C174 C179 1.391 . S
C175 H161 0.941 . S
C175 C174 1.389 . S
C175 C176 1.397 . S
C176 H162 0.939 . S
C176 C175 1.397 . S
C176 C177 1.378 . S
C177 C176 1.378 . S
C177 C178 1.378 . S
C178 H163 0.940 . S
C178 C177 1.378 . S
C178 C179 1.396 . S
C179 H164 0.940 . S
C179 C174 1.391 . S
C179 C178 1.396 . S
C180 P160 1.803 . S
C180 C181 1.378 . S
C180 C185 1.400 . S
C181 H165 0.939 . S
C181 C180 1.378 . S
C181 C182 1.361 . S
C182 H166 0.942 . S
C182 C181 1.361 . S
C182 C183 1.369 . S
C183 C182 1.369 . S
C183 C184 1.404 . S
C184 H167 0.940 . S
C184 C183 1.404 . S
C184 C185 1.389 . S
C185 H168 0.939 . S
C185 C180 1.400 . S
C185 C184 1.389 . S
C186 P160 1.819 . S
C186 C187 1.391 . S
C186 C191 1.391 . S
C187 H169 0.941 . S
C187 C186 1.391 . S
C187 C188 1.396 . S
C188 H172 0.939 . S
C188 C187 1.396 . S
C188 C189 1.397 . S
C189 C188 1.397 . S
C189 C190 1.385 . S
C190 H173 0.940 . S
C190 C189 1.385 . S
C190 C191 1.388 . S
C191 H170 0.939 . S
C191 C186 1.391 . S
C191 C190 1.388 . S
P192 O203 1.490 . S
P192 C206 1.812 . S
P192 C212 1.803 . S
P192 C218 1.819 . S
H193 C207 0.941 . S
H194 C208 0.939 . S
H195 C210 0.940 . S
H196 C211 0.940 . S
H197 C213 0.939 . S
H198 C214 0.942 . S
H199 C216 0.940 . S
H200 C217 0.939 . S
H201 C219 0.941 . S
H202 C223 0.939 . S
O203 P192 1.490 . S
H204 C220 0.939 . S
H205 C222 0.940 . S
C206 P192 1.812 . S
C206 C207 1.389 . S
C206 C211 1.391 . S
C207 H193 0.941 . S
C207 C206 1.389 . S
C207 C208 1.397 . S
C208 H194 0.939 . S
C208 C207 1.397 . S
C208 C209 1.378 . S
C209 C208 1.378 . S
C209 C210 1.378 . S
C210 H195 0.940 . S
C210 C209 1.378 . S
C210 C211 1.396 . S
C211 H196 0.940 . S
C211 C206 1.391 . S
C211 C210 1.396 . S
C212 P192 1.803 . S
C212 C213 1.378 . S
C212 C217 1.400 . S
C213 H197 0.939 . S
C213 C212 1.378 . S
C213 C214 1.361 . S
C214 H198 0.942 . S
C214 C213 1.361 . S
C214 C215 1.369 . S
C215 C214 1.369 . S
C215 C216 1.404 . S
C216 H199 0.940 . S
C216 C215 1.404 . S
C216 C217 1.389 . S
C217 H200 0.939 . S
C217 C212 1.400 . S
C217 C216 1.389 . S
C218 P192 1.819 . S
C218 C219 1.391 . S
C218 C223 1.391 . S
C219 H201 0.941 . S
C219 C218 1.391 . S
C219 C220 1.396 . S
C220 H204 0.939 . S
C220 C219 1.396 . S
C220 C221 1.397 . S
C221 C220 1.397 . S
C221 C222 1.385 . S
C222 H205 0.940 . S
C222 C221 1.385 . S
C222 C223 1.388 . S
C223 H202 0.939 . S
C223 C218 1.391 . S
C223 C222 1.388 . S
P224 O235 1.490 . S
P224 C238 1.812 . S
P224 C244 1.803 . S
P224 C250 1.819 . S
H225 C239 0.941 . S
H226 C240 0.939 . S
H227 C242 0.940 . S
H228 C243 0.940 . S
H229 C245 0.939 . S
H230 C246 0.942 . S
H231 C248 0.940 . S
H232 C249 0.939 . S
H233 C251 0.941 . S
H234 C255 0.939 . S
O235 P224 1.490 . S
H236 C252 0.939 . S
H237 C254 0.940 . S
C238 P224 1.812 . S
C238 C239 1.389 . S
C238 C243 1.391 . S
C239 H225 0.941 . S
C239 C238 1.389 . S
C239 C240 1.397 . S
C240 H226 0.939 . S
C240 C239 1.397 . S
C240 C241 1.378 . S
C241 C240 1.378 . S
C241 C242 1.378 . S
C242 H227 0.940 . S
C242 C241 1.378 . S
C242 C243 1.396 . S
C243 H228 0.940 . S
C243 C238 1.391 . S
C243 C242 1.396 . S
C244 P224 1.803 . S
C244 C245 1.378 . S
C244 C249 1.400 . S
C245 H229 0.939 . S
C245 C244 1.378 . S
C245 C246 1.361 . S
C246 H230 0.942 . S
C246 C245 1.361 . S
C246 C247 1.369 . S
C247 C246 1.369 . S
C247 C248 1.404 . S
C248 H231 0.940 . S
C248 C247 1.404 . S
C248 C249 1.389 . S
C249 H232 0.939 . S
C249 C244 1.400 . S
C249 C248 1.389 . S
C250 P224 1.819 . S
C250 C251 1.391 . S
C250 C255 1.391 . S
C251 H233 0.941 . S
C251 C250 1.391 . S
C251 C252 1.396 . S
C252 H236 0.939 . S
C252 C251 1.396 . S
C252 C253 1.397 . S
C253 C252 1.397 . S
C253 C254 1.385 . S
C254 H237 0.940 . S
C254 C253 1.385 . S
C254 C255 1.388 . S
C255 H234 0.939 . S
C255 C250 1.391 . S
C255 C254 1.388 . S
P256 O267 1.490 . S
P256 C270 1.812 . S
P256 C276 1.803 . S
P256 C282 1.819 . S
H257 C271 0.941 . S
H258 C272 0.939 . S
H259 C274 0.940 . S
H260 C275 0.940 . S
H261 C277 0.939 . S
H262 C278 0.942 . S
H263 C280 0.940 . S
H264 C281 0.939 . S
H265 C283 0.941 . S
H266 C287 0.939 . S
O267 P256 1.490 . S
H268 C284 0.939 . S
H269 C286 0.940 . S
C270 P256 1.812 . S
C270 C271 1.389 . S
C270 C275 1.391 . S
C271 H257 0.941 . S
C271 C270 1.389 . S
C271 C272 1.397 . S
C272 H258 0.939 . S
C272 C271 1.397 . S
C272 C273 1.378 . S
C273 C272 1.378 . S
C273 C274 1.378 . S
C274 H259 0.940 . S
C274 C273 1.378 . S
C274 C275 1.396 . S
C275 H260 0.940 . S
C275 C270 1.391 . S
C275 C274 1.396 . S
C276 P256 1.803 . S
C276 C277 1.378 . S
C276 C281 1.400 . S
C277 H261 0.939 . S
C277 C276 1.378 . S
C277 C278 1.361 . S
C278 H262 0.942 . S
C278 C277 1.361 . S
C278 C279 1.369 . S
C279 C278 1.369 . S
C279 C280 1.404 . S
C280 H263 0.940 . S
C280 C279 1.404 . S
C280 C281 1.389 . S
C281 H264 0.939 . S
C281 C276 1.400 . S
C281 C280 1.389 . S
C282 P256 1.819 . S
C282 C283 1.391 . S
C282 C287 1.391 . S
C283 H265 0.941 . S
C283 C282 1.391 . S
C283 C284 1.396 . S
C284 H268 0.939 . S
C284 C283 1.396 . S
C284 C285 1.397 . S
C285 C284 1.397 . S
C285 C286 1.385 . S
C286 H269 0.940 . S
C286 C285 1.385 . S
C286 C287 1.388 . S
C287 H266 0.939 . S
C287 C282 1.391 . S
C287 C286 1.388 . S
P288 O299 1.490 . S
P288 C302 1.812 . S
P288 C308 1.803 . S
P288 C314 1.819 . S
H289 C303 0.941 . S
H290 C304 0.939 . S
H291 C306 0.940 . S
H292 C307 0.940 . S
H293 C309 0.939 . S
H294 C310 0.942 . S
H295 C312 0.940 . S
H296 C313 0.939 . S
H297 C315 0.941 . S
H298 C319 0.939 . S
O299 P288 1.490 . S
H300 C316 0.939 . S
H301 C318 0.940 . S
C302 P288 1.812 . S
C302 C303 1.389 . S
C302 C307 1.391 . S
C303 H289 0.941 . S
C303 C302 1.389 . S
C303 C304 1.397 . S
C304 H290 0.939 . S
C304 C303 1.397 . S
C304 C305 1.378 . S
C305 C304 1.378 . S
C305 C306 1.378 . S
C306 H291 0.940 . S
C306 C305 1.378 . S
C306 C307 1.396 . S
C307 H292 0.940 . S
C307 C302 1.391 . S
C307 C306 1.396 . S
C308 P288 1.803 . S
C308 C309 1.378 . S
C308 C313 1.400 . S
C309 H293 0.939 . S
C309 C308 1.378 . S
C309 C310 1.361 . S
C310 H294 0.942 . S
C310 C309 1.361 . S
C310 C311 1.369 . S
C311 C310 1.369 . S
C311 C312 1.404 . S
C312 H295 0.940 . S
C312 C311 1.404 . S
C312 C313 1.389 . S
C313 H296 0.939 . S
C313 C308 1.400 . S
C313 C312 1.389 . S
C314 P288 1.819 . S
C314 C315 1.391 . S
C314 C319 1.391 . S
C315 H297 0.941 . S
C315 C314 1.391 . S
C315 C316 1.396 . S
C316 H300 0.939 . S
C316 C315 1.396 . S
C316 C317 1.397 . S
C317 C316 1.397 . S
C317 C318 1.385 . S
C318 H301 0.940 . S
C318 C317 1.385 . S
C318 C319 1.388 . S
C319 H298 0.939 . S
C319 C314 1.391 . S
C319 C318 1.388 . S
P320 O331 1.490 . S
P320 C334 1.812 . S
P320 C340 1.803 . S
P320 C346 1.819 . S
H321 C335 0.941 . S
H322 C336 0.939 . S
H323 C338 0.940 . S
H324 C339 0.940 . S
H325 C341 0.939 . S
H326 C342 0.942 . S
H327 C344 0.940 . S
H328 C345 0.939 . S
H329 C347 0.941 . S
H330 C351 0.939 . S
O331 P320 1.490 . S
H332 C348 0.939 . S
H333 C350 0.940 . S
C334 P320 1.812 . S
C334 C335 1.389 . S
C334 C339 1.391 . S
C335 H321 0.941 . S
C335 C334 1.389 . S
C335 C336 1.397 . S
C336 H322 0.939 . S
C336 C335 1.397 . S
C336 C337 1.378 . S
C337 C336 1.378 . S
C337 C338 1.378 . S
C338 H323 0.940 . S
C338 C337 1.378 . S
C338 C339 1.396 . S
C339 H324 0.940 . S
C339 C334 1.391 . S
C339 C338 1.396 . S
C340 P320 1.803 . S
C340 C341 1.378 . S
C340 C345 1.400 . S
C341 H325 0.939 . S
C341 C340 1.378 . S
C341 C342 1.361 . S
C342 H326 0.942 . S
C342 C341 1.361 . S
C342 C343 1.369 . S
C343 C342 1.369 . S
C343 C344 1.404 . S
C344 H327 0.940 . S
C344 C343 1.404 . S
C344 C345 1.389 . S
C345 H328 0.939 . S
C345 C340 1.400 . S
C345 C344 1.389 . S
C346 P320 1.819 . S
C346 C347 1.391 . S
C346 C351 1.391 . S
C347 H329 0.941 . S
C347 C346 1.391 . S
C347 C348 1.396 . S
C348 H332 0.939 . S
C348 C347 1.396 . S
C348 C349 1.397 . S
C349 C348 1.397 . S
C349 C350 1.385 . S
C350 H333 0.940 . S
C350 C349 1.385 . S
C350 C351 1.388 . S
C351 H330 0.939 . S
C351 C346 1.391 . S
C351 C350 1.388 . S
P352 O363 1.490 . S
P352 C366 1.812 . S
P352 C372 1.803 . S
P352 C378 1.819 . S
H353 C367 0.941 . S
H354 C368 0.939 . S
H355 C370 0.940 . S
H356 C371 0.940 . S
H357 C373 0.939 . S
H358 C374 0.942 . S
H359 C376 0.940 . S
H360 C377 0.939 . S
H361 C379 0.941 . S
H362 C383 0.939 . S
O363 P352 1.490 . S
H364 C380 0.939 . S
H365 C382 0.940 . S
C366 P352 1.812 . S
C366 C367 1.389 . S
C366 C371 1.391 . S
C367 H353 0.941 . S
C367 C366 1.389 . S
C367 C368 1.397 . S
C368 H354 0.939 . S
C368 C367 1.397 . S
C368 C369 1.378 . S
C369 C368 1.378 . S
C369 C370 1.378 . S
C370 H355 0.940 . S
C370 C369 1.378 . S
C370 C371 1.396 . S
C371 H356 0.940 . S
C371 C366 1.391 . S
C371 C370 1.396 . S
C372 P352 1.803 . S
C372 C373 1.378 . S
C372 C377 1.400 . S
C373 H357 0.939 . S
C373 C372 1.378 . S
C373 C374 1.361 . S
C374 H358 0.942 . S
C374 C373 1.361 . S
C374 C375 1.369 . S
C375 C374 1.369 . S
C375 C376 1.404 . S
C376 H359 0.940 . S
C376 C375 1.404 . S
C376 C377 1.389 . S
C377 H360 0.939 . S
C377 C372 1.400 . S
C377 C376 1.389 . S
C378 P352 1.819 . S
C378 C379 1.391 . S
C378 C383 1.391 . S
C379 H361 0.941 . S
C379 C378 1.391 . S
C379 C380 1.396 . S
C380 H364 0.939 . S
C380 C379 1.396 . S
C380 C381 1.397 . S
C381 C380 1.397 . S
C381 C382 1.385 . S
C382 H365 0.940 . S
C382 C381 1.385 . S
C382 C383 1.388 . S
C383 H362 0.939 . S
C383 C378 1.391 . S
C383 C382 1.388 . S
P384 O395 1.490 . S
P384 C398 1.812 . S
P384 C404 1.803 . S
P384 C410 1.819 . S
H385 C399 0.941 . S
H386 C400 0.939 . S
H387 C402 0.940 . S
H388 C403 0.940 . S
H389 C405 0.939 . S
H390 C406 0.942 . S
H391 C408 0.940 . S
H392 C409 0.939 . S
H393 C411 0.941 . S
H394 C415 0.939 . S
O395 P384 1.490 . S
H396 C412 0.939 . S
H397 C414 0.940 . S
C398 P384 1.812 . S
C398 C399 1.389 . S
C398 C403 1.391 . S
C399 H385 0.941 . S
C399 C398 1.389 . S
C399 C400 1.397 . S
C400 H386 0.939 . S
C400 C399 1.397 . S
C400 C401 1.378 . S
C401 C400 1.378 . S
C401 C402 1.378 . S
C402 H387 0.940 . S
C402 C401 1.378 . S
C402 C403 1.396 . S
C403 H388 0.940 . S
C403 C398 1.391 . S
C403 C402 1.396 . S
C404 P384 1.803 . S
C404 C405 1.378 . S
C404 C409 1.400 . S
C405 H389 0.939 . S
C405 C404 1.378 . S
C405 C406 1.361 . S
C406 H390 0.942 . S
C406 C405 1.361 . S
C406 C407 1.369 . S
C407 C406 1.369 . S
C407 C408 1.404 . S
C408 H391 0.940 . S
C408 C407 1.404 . S
C408 C409 1.389 . S
C409 H392 0.939 . S
C409 C404 1.400 . S
C409 C408 1.389 . S
C410 P384 1.819 . S
C410 C411 1.391 . S
C410 C415 1.391 . S
C411 H393 0.941 . S
C411 C410 1.391 . S
C411 C412 1.396 . S
C412 H396 0.939 . S
C412 C411 1.396 . S
C412 C413 1.397 . S
C413 C412 1.397 . S
C413 C414 1.385 . S
C414 H397 0.940 . S
C414 C413 1.385 . S
C414 C415 1.388 . S
C415 H394 0.939 . S
C415 C410 1.391 . S
C415 C414 1.388 . S
P416 O427 1.490 . S
P416 C430 1.812 . S
P416 C436 1.803 . S
P416 C442 1.819 . S
H417 C431 0.941 . S
H418 C432 0.939 . S
H419 C434 0.940 . S
H420 C435 0.940 . S
H421 C437 0.939 . S
H422 C438 0.942 . S
H423 C440 0.940 . S
H424 C441 0.939 . S
H425 C443 0.941 . S
H426 C447 0.939 . S
O427 P416 1.490 . S
H428 C444 0.939 . S
H429 C446 0.940 . S
C430 P416 1.812 . S
C430 C431 1.389 . S
C430 C435 1.391 . S
C431 H417 0.941 . S
C431 C430 1.389 . S
C431 C432 1.397 . S
C432 H418 0.939 . S
C432 C431 1.397 . S
C432 C433 1.378 . S
C433 C432 1.378 . S
C433 C434 1.378 . S
C434 H419 0.940 . S
C434 C433 1.378 . S
C434 C435 1.396 . S
C435 H420 0.940 . S
C435 C430 1.391 . S
C435 C434 1.396 . S
C436 P416 1.803 . S
C436 C437 1.378 . S
C436 C441 1.400 . S
C437 H421 0.939 . S
C437 C436 1.378 . S
C437 C438 1.361 . S
C438 H422 0.942 . S
C438 C437 1.361 . S
C438 C439 1.369 . S
C439 C438 1.369 . S
C439 C440 1.404 . S
C440 H423 0.940 . S
C440 C439 1.404 . S
C440 C441 1.389 . S
C441 H424 0.939 . S
C441 C436 1.400 . S
C441 C440 1.389 . S
C442 P416 1.819 . S
C442 C443 1.391 . S
C442 C447 1.391 . S
C443 H425 0.941 . S
C443 C442 1.391 . S
C443 C444 1.396 . S
C444 H428 0.939 . S
C444 C443 1.396 . S
C444 C445 1.397 . S
C445 C444 1.397 . S
C445 C446 1.385 . S
C446 H429 0.940 . S
C446 C445 1.385 . S
C446 C447 1.388 . S
C447 H426 0.939 . S
C447 C442 1.391 . S
C447 C446 1.388 . S
P448 O459 1.490 . S
P448 C462 1.812 . S
P448 C468 1.803 . S
P448 C474 1.819 . S
H449 C463 0.941 . S
H450 C464 0.939 . S
H451 C466 0.940 . S
H452 C467 0.940 . S
H453 C469 0.939 . S
H454 C470 0.942 . S
H455 C472 0.940 . S
H456 C473 0.939 . S
H457 C475 0.941 . S
H458 C479 0.939 . S
O459 P448 1.490 . S
H460 C476 0.939 . S
H461 C478 0.940 . S
C462 P448 1.812 . S
C462 C463 1.389 . S
C462 C467 1.391 . S
C463 H449 0.941 . S
C463 C462 1.389 . S
C463 C464 1.397 . S
C464 H450 0.939 . S
C464 C463 1.397 . S
C464 C465 1.378 . S
C465 C464 1.378 . S
C465 C466 1.378 . S
C466 H451 0.940 . S
C466 C465 1.378 . S
C466 C467 1.396 . S
C467 H452 0.940 . S
C467 C462 1.391 . S
C467 C466 1.396 . S
C468 P448 1.803 . S
C468 C469 1.378 . S
C468 C473 1.400 . S
C469 H453 0.939 . S
C469 C468 1.378 . S
C469 C470 1.361 . S
C470 H454 0.942 . S
C470 C469 1.361 . S
C470 C471 1.369 . S
C471 C470 1.369 . S
C471 C472 1.404 . S
C472 H455 0.940 . S
C472 C471 1.404 . S
C472 C473 1.389 . S
C473 H456 0.939 . S
C473 C468 1.400 . S
C473 C472 1.389 . S
C474 P448 1.819 . S
C474 C475 1.391 . S
C474 C479 1.391 . S
C475 H457 0.941 . S
C475 C474 1.391 . S
C475 C476 1.396 . S
C476 H460 0.939 . S
C476 C475 1.396 . S
C476 C477 1.397 . S
C477 C476 1.397 . S
C477 C478 1.385 . S
C478 H461 0.940 . S
C478 C477 1.385 . S
C478 C479 1.388 . S
C479 H458 0.939 . S
C479 C474 1.391 . S
C479 C478 1.388 . S
P480 O491 1.490 . S
P480 C494 1.812 . S
P480 C500 1.803 . S
P480 C506 1.819 . S
H481 C495 0.941 . S
H482 C496 0.939 . S
H483 C498 0.940 . S
H484 C499 0.940 . S
H485 C501 0.939 . S
H486 C502 0.942 . S
H487 C504 0.940 . S
H488 C505 0.939 . S
H489 C507 0.941 . S
H490 C511 0.939 . S
O491 P480 1.490 . S
H492 C508 0.939 . S
H493 C510 0.940 . S
C494 P480 1.812 . S
C494 C495 1.389 . S
C494 C499 1.391 . S
C495 H481 0.941 . S
C495 C494 1.389 . S
C495 C496 1.397 . S
C496 H482 0.939 . S
C496 C495 1.397 . S
C496 C497 1.378 . S
C497 C496 1.378 . S
C497 C498 1.378 . S
C498 H483 0.940 . S
C498 C497 1.378 . S
C498 C499 1.396 . S
C499 H484 0.940 . S
C499 C494 1.391 . S
C499 C498 1.396 . S
C500 P480 1.803 . S
C500 C501 1.378 . S
C500 C505 1.400 . S
C501 H485 0.939 . S
C501 C500 1.378 . S
C501 C502 1.361 . S
C502 H486 0.942 . S
C502 C501 1.361 . S
C502 C503 1.369 . S
C503 C502 1.369 . S
C503 C504 1.404 . S
C504 H487 0.940 . S
C504 C503 1.404 . S
C504 C505 1.389 . S
C505 H488 0.939 . S
C505 C500 1.400 . S
C505 C504 1.389 . S
C506 P480 1.819 . S
C506 C507 1.391 . S
C506 C511 1.391 . S
C507 H489 0.941 . S
C507 C506 1.391 . S
C507 C508 1.396 . S
C508 H492 0.939 . S
C508 C507 1.396 . S
C508 C509 1.397 . S
C509 C508 1.397 . S
C509 C510 1.385 . S
C510 H493 0.940 . S
C510 C509 1.385 . S
C510 C511 1.388 . S
C511 H490 0.939 . S
C511 C506 1.391 . S
C511 C510 1.388 . S
P512 O523 1.490 . S
P512 C526 1.812 . S
P512 C532 1.803 . S
P512 C538 1.819 . S
H513 C527 0.941 . S
H514 C528 0.939 . S
H515 C530 0.940 . S
H516 C531 0.940 . S
H517 C533 0.939 . S
H518 C534 0.942 . S
H519 C536 0.940 . S
H520 C537 0.939 . S
H521 C539 0.941 . S
H522 C543 0.939 . S
O523 P512 1.490 . S
H524 C540 0.939 . S
H525 C542 0.940 . S
C526 P512 1.812 . S
C526 C527 1.389 . S
C526 C531 1.391 . S
C527 H513 0.941 . S
C527 C526 1.389 . S
C527 C528 1.397 . S
C528 H514 0.939 . S
C528 C527 1.397 . S
C528 C529 1.378 . S
C529 C528 1.378 . S
C529 C530 1.378 . S
C530 H515 0.940 . S
C530 C529 1.378 . S
C530 C531 1.396 . S
C531 H516 0.940 . S
C531 C526 1.391 . S
C531 C530 1.396 . S
C532 P512 1.803 . S
C532 C533 1.378 . S
C532 C537 1.400 . S
C533 H517 0.939 . S
C533 C532 1.378 . S
C533 C534 1.361 . S
C534 H518 0.942 . S
C534 C533 1.361 . S
C534 C535 1.369 . S
C535 C534 1.369 . S
C535 C536 1.404 . S
C536 H519 0.940 . S
C536 C535 1.404 . S
C536 C537 1.389 . S
C537 H520 0.939 . S
C537 C532 1.400 . S
C537 C536 1.389 . S
C538 P512 1.819 . S
C538 C539 1.391 . S
C538 C543 1.391 . S
C539 H521 0.941 . S
C539 C538 1.391 . S
C539 C540 1.396 . S
C540 H524 0.939 . S
C540 C539 1.396 . S
C540 C541 1.397 . S
C541 C540 1.397 . S
C541 C542 1.385 . S
C542 H525 0.940 . S
C542 C541 1.385 . S
C542 C543 1.388 . S
C543 H522 0.939 . S
C543 C538 1.391 . S
C543 C542 1.388 . S
P544 O555 1.490 . S
P544 C558 1.812 . S
P544 C564 1.803 . S
P544 C570 1.819 . S
H545 C559 0.941 . S
H546 C560 0.939 . S
H547 C562 0.940 . S
H548 C563 0.940 . S
H549 C565 0.939 . S
H550 C566 0.942 . S
H551 C568 0.940 . S
H552 C569 0.939 . S
H553 C571 0.941 . S
H554 C575 0.939 . S
O555 P544 1.490 . S
H556 C572 0.939 . S
H557 C574 0.940 . S
C558 P544 1.812 . S
C558 C559 1.389 . S
C558 C563 1.391 . S
C559 H545 0.941 . S
C559 C558 1.389 . S
C559 C560 1.397 . S
C560 H546 0.939 . S
C560 C559 1.397 . S
C560 C561 1.378 . S
C561 C560 1.378 . S
C561 C562 1.378 . S
C562 H547 0.940 . S
C562 C561 1.378 . S
C562 C563 1.396 . S
C563 H548 0.940 . S
C563 C558 1.391 . S
C563 C562 1.396 . S
C564 P544 1.803 . S
C564 C565 1.378 . S
C564 C569 1.400 . S
C565 H549 0.939 . S
C565 C564 1.378 . S
C565 C566 1.361 . S
C566 H550 0.942 . S
C566 C565 1.361 . S
C566 C567 1.369 . S
C567 C566 1.369 . S
C567 C568 1.404 . S
C568 H551 0.940 . S
C568 C567 1.404 . S
C568 C569 1.389 . S
C569 H552 0.939 . S
C569 C564 1.400 . S
C569 C568 1.389 . S
C570 P544 1.819 . S
C570 C571 1.391 . S
C570 C575 1.391 . S
C571 H553 0.941 . S
C571 C570 1.391 . S
C571 C572 1.396 . S
C572 H556 0.939 . S
C572 C571 1.396 . S
C572 C573 1.397 . S
C573 C572 1.397 . S
C573 C574 1.385 . S
C574 H557 0.940 . S
C574 C573 1.385 . S
C574 C575 1.388 . S
C575 H554 0.939 . S
C575 C570 1.391 . S
C575 C574 1.388 . S
Eu576 N607 2.657 . S
Eu576 N614 2.609 . S
Eu576 O620 2.558 . S
Eu576 O621 2.649 1_565 S
Eu576 O623 2.339 1_565 S
Eu576 O624 2.563 1_565 S
Eu576 O625 2.419 . S
Eu576 O627 2.380 1_556 S
Eu576 O628 2.432 . S
Eu576 C640 2.848 . S
C577 C580 1.429 . S
C577 C581 1.411 . S
C577 N584 1.377 . S
C578 C580 1.420 . S
C578 C582 1.423 . S
C578 C590 1.392 . S
C579 C581 1.420 . S
C579 C582 1.351 . S
C579 H602 0.931 . S
C580 C577 1.429 . S
C580 C578 1.420 . S
C580 N588 1.362 . S
C581 C577 1.411 . S
C581 C579 1.420 . S
C581 C586 1.395 . S
C582 C578 1.423 . S
C582 C579 1.351 . S
C582 H594 0.930 . S
C583 C585 1.400 . S
C583 C586 1.386 . S
C583 H595 0.930 . S
N584 C577 1.377 . S
N584 C585 1.321 . S
N584 Eu587 2.609 . S
C585 C583 1.400 . S
C585 N584 1.321 . S
C585 H592 0.930 . S
C586 C581 1.395 . S
C586 C583 1.386 . S
C586 H605 0.930 . S
Eu587 N584 2.609 . S
Eu587 N588 2.657 . S
Eu587 O621 2.320 1_554 S
Eu587 O622 2.432 . S
Eu587 O626 2.558 . S
Eu587 O627 2.612 1_545 S
Eu587 O629 2.339 1_545 S
Eu587 O630 2.563 1_545 S
Eu587 O631 2.419 . S
Eu587 C651 2.848 . S
N588 C580 1.362 . S
N588 Eu587 2.657 . S
N588 C589 1.334 . S
C589 N588 1.334 . S
C589 C591 1.413 . S
C589 H596 0.929 . S
C590 C578 1.392 . S
C590 C591 1.367 . S
C590 H598 0.930 . S
C591 C589 1.413 . S
C591 C590 1.367 . S
C591 H593 0.930 . S
H592 C585 0.930 . S
H593 C591 0.930 . S
H594 C582 0.930 . S
H595 C583 0.930 . S
H596 C589 0.929 . S
H597 C611 0.930 . S
H598 C590 0.930 . S
H599 C617 0.930 . S
H600 C608 0.929 . S
H601 C615 0.930 . S
H602 C579 0.931 . S
H603 C609 0.930 . S
H604 C642 0.930 . S
H605 C586 0.930 . S
H606 C641 0.931 . S
N607 Eu576 2.657 . S
N607 C608 1.334 . S
N607 C612 1.362 . S
C608 H600 0.929 . S
C608 N607 1.334 . S
C608 C611 1.413 . S
C609 H603 0.930 . S
C609 C610 1.392 . S
C609 C611 1.367 . S
C610 C609 1.392 . S
C610 C612 1.420 . S
C610 C642 1.423 . S
C611 H597 0.930 . S
C611 C608 1.413 . S
C611 C609 1.367 . S
C612 N607 1.362 . S
C612 C610 1.420 . S
C612 C616 1.429 . S
H613 C618 0.930 . S
N614 Eu576 2.609 . S
N614 C616 1.377 . S
N614 C617 1.321 . S
C615 H601 0.930 . S
C615 C617 1.400 . S
C615 C618 1.386 . S
C616 C612 1.429 . S
C616 N614 1.377 . S
C616 C619 1.411 . S
C617 H599 0.930 . S
C617 N614 1.321 . S
C617 C615 1.400 . S
C618 H613 0.930 . S
C618 C615 1.386 . S
C618 C619 1.395 . S
C619 C616 1.411 . S
C619 C618 1.395 . S
C619 C641 1.420 . S
O620 Eu576 2.558 . S
O620 C640 1.257 . S
O621 Eu576 2.649 1_545 S
O621 Eu587 2.320 1_556 S
O621 C632 1.325 . S
O622 Eu587 2.432 . S
O622 C639 1.264 1_554 S
O623 Eu576 2.339 1_545 S
O623 C639 1.254 . S
O624 Eu576 2.563 1_545 S
O624 C632 1.235 . S
O625 Eu576 2.419 . S
O625 C640 1.249 . S
O626 Eu587 2.558 . S
O626 C651 1.257 . S
O627 Eu576 2.380 1_554 S
O627 Eu587 2.612 1_565 S
O627 C643 1.276 . S
O628 Eu576 2.432 . S
O628 C650 1.264 1_556 S
O629 Eu587 2.339 1_565 S
O629 C650 1.254 . S
O630 Eu587 2.563 1_565 S
O630 C643 1.235 . S
O631 Eu587 2.419 . S
O631 C651 1.249 . S
C632 O621 1.325 . S
C632 O624 1.235 . S
C633 C635 1.393 1_565 S
C633 C637 1.395 . S
C633 C640 1.492 . S
C634 C635 1.392 . S
C634 C636 1.386 1_545 S
C635 C633 1.393 1_545 S
C635 C634 1.392 . S
C635 H652 0.930 . S
C636 C634 1.386 1_565 S
C636 C638 1.395 . S
C636 H653 0.930 . S
C637 C633 1.395 . S
C637 C638 1.379 . S
C637 H654 0.930 . S
C638 C636 1.395 . S
C638 C637 1.379 . S
C638 H655 0.930 . S
C639 O622 1.264 1_556 S
C639 O623 1.254 . S
C640 Eu576 2.848 . S
C640 O620 1.257 . S
C640 O625 1.249 . S
C640 C633 1.492 . S
C641 H606 0.931 . S
C641 C619 1.420 . S
C641 C642 1.351 . S
C642 H604 0.930 . S
C642 C610 1.423 . S
C642 C641 1.351 . S
C643 O627 1.276 . S
C643 O630 1.235 . S
C644 C645 1.393 1_545 S
C644 C648 1.395 . S
C644 C651 1.492 . S
C645 C644 1.393 1_565 S
C645 C646 1.392 . S
C645 H656 0.930 . S
C646 C645 1.392 . S
C646 C647 1.386 1_565 S
C647 C646 1.386 1_545 S
C647 C649 1.395 . S
C647 H657 0.930 . S
C648 C644 1.395 . S
C648 C649 1.379 . S
C648 H658 0.930 . S
C649 C647 1.395 . S
C649 C648 1.379 . S
C649 H659 0.930 . S
C650 O628 1.264 1_554 S
C650 O629 1.254 . S
C651 Eu587 2.848 . S
C651 O626 1.257 . S
C651 O631 1.249 . S
C651 C644 1.492 . S
H652 C635 0.930 . S
H653 C636 0.930 . S
H654 C637 0.930 . S
H655 C638 0.930 . S
H656 C645 0.930 . S
H657 C647 0.930 . S
H658 C648 0.930 . S
H659 C649 0.930 . S
Eu660 N691 2.657 . S
Eu660 N698 2.609 . S
Eu660 O704 2.558 . S
Eu660 O705 2.651 1_455 S
Eu660 O707 2.339 1_455 S
Eu660 O708 2.563 1_455 S
Eu660 O709 2.419 . S
Eu660 O711 2.380 1_556 S
Eu660 O712 2.432 . S
Eu660 C724 2.848 . S
C661 C664 1.429 . S
C661 C665 1.411 . S
C661 N668 1.377 . S
C662 C664 1.420 . S
C662 C666 1.423 . S
C662 C674 1.392 . S
C663 C665 1.420 . S
C663 C666 1.351 . S
C663 H686 0.931 . S
C664 C661 1.429 . S
C664 C662 1.420 . S
C664 N672 1.362 . S
C665 C661 1.411 . S
C665 C663 1.420 . S
C665 C670 1.395 . S
C666 C662 1.423 . S
C666 C663 1.351 . S
C666 H678 0.930 . S
C667 C669 1.400 . S
C667 C670 1.386 . S
C667 H679 0.930 . S
N668 C661 1.377 . S
N668 C669 1.321 . S
N668 Eu671 2.609 . S
C669 C667 1.400 . S
C669 N668 1.321 . S
C669 H676 0.930 . S
C670 C665 1.395 . S
C670 C667 1.386 . S
C670 H689 0.930 . S
Eu671 N668 2.609 . S
Eu671 N672 2.657 . S
Eu671 O705 2.316 1_554 S
Eu671 O706 2.432 . S
Eu671 O710 2.558 . S
Eu671 O711 2.612 1_655 S
Eu671 O713 2.339 1_655 S
Eu671 O714 2.563 1_655 S
Eu671 O715 2.419 . S
Eu671 C735 2.848 . S
N672 C664 1.362 . S
N672 Eu671 2.657 . S
N672 C673 1.334 . S
C673 N672 1.334 . S
C673 C675 1.413 . S
C673 H680 0.929 . S
C674 C662 1.392 . S
C674 C675 1.367 . S
C674 H682 0.930 . S
C675 C673 1.413 . S
C675 C674 1.367 . S
C675 H677 0.930 . S
H676 C669 0.930 . S
H677 C675 0.930 . S
H678 C666 0.930 . S
H679 C667 0.930 . S
H680 C673 0.929 . S
H681 C695 0.930 . S
H682 C674 0.930 . S
H683 C701 0.930 . S
H684 C692 0.929 . S
H685 C699 0.930 . S
H686 C663 0.931 . S
H687 C693 0.930 . S
H688 C726 0.930 . S
H689 C670 0.930 . S
H690 C725 0.931 . S
N691 Eu660 2.657 . S
N691 C692 1.334 . S
N691 C696 1.362 . S
C692 H684 0.929 . S
C692 N691 1.334 . S
C692 C695 1.413 . S
C693 H687 0.930 . S
C693 C694 1.392 . S
C693 C695 1.367 . S
C694 C693 1.392 . S
C694 C696 1.420 . S
C694 C726 1.423 . S
C695 H681 0.930 . S
C695 C692 1.413 . S
C695 C693 1.367 . S
C696 N691 1.362 . S
C696 C694 1.420 . S
C696 C700 1.429 . S
H697 C702 0.930 . S
N698 Eu660 2.609 . S
N698 C700 1.377 . S
N698 C701 1.321 . S
C699 H685 0.930 . S
C699 C701 1.400 . S
C699 C702 1.386 . S
C700 C696 1.429 . S
C700 N698 1.377 . S
C700 C703 1.411 . S
C701 H683 0.930 . S
C701 N698 1.321 . S
C701 C699 1.400 . S
C702 H697 0.930 . S
C702 C699 1.386 . S
C702 C703 1.395 . S
C703 C700 1.411 . S
C703 C702 1.395 . S
C703 C725 1.420 . S
O704 Eu660 2.558 . S
O704 C724 1.257 . S
O705 Eu660 2.651 1_655 S
O705 Eu671 2.316 1_556 S
O705 C716 1.328 . S
O706 Eu671 2.432 . S
O706 C723 1.264 1_554 S
O707 Eu660 2.339 1_655 S
O707 C723 1.254 . S
O708 Eu660 2.563 1_655 S
O708 C716 1.235 . S
O709 Eu660 2.419 . S
O709 C724 1.249 . S
O710 Eu671 2.558 . S
O710 C735 1.257 . S
O711 Eu660 2.380 1_554 S
O711 Eu671 2.612 1_455 S
O711 C727 1.276 . S
O712 Eu660 2.432 . S
O712 C734 1.264 1_556 S
O713 Eu671 2.339 1_455 S
O713 C734 1.254 . S
O714 Eu671 2.563 1_455 S
O714 C727 1.235 . S
O715 Eu671 2.419 . S
O715 C735 1.249 . S
C716 O705 1.328 . S
C716 O708 1.235 . S
C717 C719 1.393 1_455 S
C717 C721 1.395 . S
C717 C724 1.492 . S
C718 C719 1.392 . S
C718 C720 1.386 1_655 S
C719 C717 1.393 1_655 S
C719 C718 1.392 . S
C719 H736 0.930 . S
C720 C718 1.386 1_455 S
C720 C722 1.395 . S
C720 H737 0.930 . S
C721 C717 1.395 . S
C721 C722 1.379 . S
C721 H738 0.930 . S
C722 C720 1.395 . S
C722 C721 1.379 . S
C722 H739 0.930 . S
C723 O706 1.264 1_556 S
C723 O707 1.254 . S
C724 Eu660 2.848 . S
C724 O704 1.257 . S
C724 O709 1.249 . S
C724 C717 1.492 . S
C725 H690 0.931 . S
C725 C703 1.420 . S
C725 C726 1.351 . S
C726 H688 0.930 . S
C726 C694 1.423 . S
C726 C725 1.351 . S
C727 O711 1.276 . S
C727 O714 1.235 . S
C728 C729 1.393 1_655 S
C728 C732 1.395 . S
C728 C735 1.492 . S
C729 C728 1.393 1_455 S
C729 C730 1.392 . S
C729 H740 0.930 . S
C730 C729 1.392 . S
C730 C731 1.386 1_455 S
C731 C730 1.386 1_655 S
C731 C733 1.395 . S
C731 H741 0.930 . S
C732 C728 1.395 . S
C732 C733 1.379 . S
C732 H742 0.930 . S
C733 C731 1.395 . S
C733 C732 1.379 . S
C733 H743 0.930 . S
C734 O712 1.264 1_554 S
C734 O713 1.254 . S
C735 Eu671 2.848 . S
C735 O710 1.257 . S
C735 O715 1.249 . S
C735 C728 1.492 . S
H736 C719 0.930 . S
H737 C720 0.930 . S
H738 C721 0.930 . S
H739 C722 0.930 . S
H740 C729 0.930 . S
H741 C731 0.930 . S
H742 C732 0.930 . S
H743 C733 0.930 . S
Eu744 N775 2.657 . S
Eu744 N782 2.609 . S
Eu744 O788 2.558 . S
Eu744 O789 2.612 . S
Eu744 O791 2.339 . S
Eu744 O792 2.563 . S
Eu744 O793 2.419 . S
Eu744 O795 2.380 1_554 S
Eu744 O796 2.432 . S
Eu744 C808 2.848 . S
C745 C748 1.429 . S
C745 C749 1.411 . S
C745 N752 1.377 . S
C746 C748 1.420 . S
C746 C750 1.423 . S
C746 C758 1.392 . S
C747 C749 1.420 . S
C747 C750 1.351 . S
C747 H770 0.931 . S
C748 C745 1.429 . S
C748 C746 1.420 . S
C748 N756 1.362 . S
C749 C745 1.411 . S
C749 C747 1.420 . S
C749 C754 1.395 . S
C750 C746 1.423 . S
C750 C747 1.351 . S
C750 H762 0.930 . S
C751 C753 1.400 . S
C751 C754 1.386 . S
C751 H763 0.930 . S
N752 C745 1.377 . S
N752 C753 1.321 . S
N752 Eu755 2.609 . S
C753 C751 1.400 . S
C753 N752 1.321 . S
C753 H760 0.930 . S
C754 C749 1.395 . S
C754 C751 1.386 . S
C754 H773 0.930 . S
Eu755 N752 2.609 . S
Eu755 N756 2.657 . S
Eu755 O789 2.380 1_556 S
Eu755 O790 2.432 . S
Eu755 O794 2.558 . S
Eu755 O795 2.612 . S
Eu755 O797 2.339 . S
Eu755 O798 2.563 . S
Eu755 O799 2.419 . S
Eu755 C819 2.848 . S
N756 C748 1.362 . S
N756 Eu755 2.657 . S
N756 C757 1.334 . S
C757 N756 1.334 . S
C757 C759 1.413 . S
C757 H764 0.929 . S
C758 C746 1.392 . S
C758 C759 1.367 . S
C758 H766 0.930 . S
C759 C757 1.413 . S
C759 C758 1.367 . S
C759 H761 0.930 . S
H760 C753 0.930 . S
H761 C759 0.930 . S
H762 C750 0.930 . S
H763 C751 0.930 . S
H764 C757 0.929 . S
H765 C779 0.930 . S
H766 C758 0.930 . S
H767 C785 0.930 . S
H768 C776 0.929 . S
H769 C783 0.930 . S
H770 C747 0.931 . S
H771 C777 0.930 . S
H772 C810 0.930 . S
H773 C754 0.930 . S
H774 C809 0.931 . S
N775 Eu744 2.657 . S
N775 C776 1.334 . S
N775 C780 1.362 . S
C776 H768 0.929 . S
C776 N775 1.334 . S
C776 C779 1.413 . S
C777 H771 0.930 . S
C777 C778 1.392 . S
C777 C779 1.367 . S
C778 C777 1.392 . S
C778 C780 1.420 . S
C778 C810 1.423 . S
C779 H765 0.930 . S
C779 C776 1.413 . S
C779 C777 1.367 . S
C780 N775 1.362 . S
C780 C778 1.420 . S
C780 C784 1.429 . S
H781 C786 0.930 . S
N782 Eu744 2.609 . S
N782 C784 1.377 . S
N782 C785 1.321 . S
C783 H769 0.930 . S
C783 C785 1.400 . S
C783 C786 1.386 . S
C784 C780 1.429 . S
C784 N782 1.377 . S
C784 C787 1.411 . S
C785 H767 0.930 . S
C785 N782 1.321 . S
C785 C783 1.400 . S
C786 H781 0.930 . S
C786 C783 1.386 . S
C786 C787 1.395 . S
C787 C784 1.411 . S
C787 C786 1.395 . S
C787 C809 1.420 . S
O788 Eu744 2.558 . S
O788 C808 1.257 . S
O789 Eu744 2.612 . S
O789 Eu755 2.380 1_554 S
O789 C800 1.276 . S
O790 Eu755 2.432 . S
O790 C807 1.264 1_556 S
O791 Eu744 2.339 . S
O791 C807 1.254 . S
O792 Eu744 2.563 . S
O792 C800 1.235 . S
O793 Eu744 2.419 . S
O793 C808 1.249 . S
O794 Eu755 2.558 . S
O794 C819 1.257 . S
O795 Eu744 2.380 1_556 S
O795 Eu755 2.612 . S
O795 C811 1.276 . S
O796 Eu744 2.432 . S
O796 C818 1.264 1_554 S
O797 Eu755 2.339 . S
O797 C818 1.254 . S
O798 Eu755 2.563 . S
O798 C811 1.235 . S
O799 Eu755 2.419 . S
O799 C819 1.249 . S
C800 O789 1.276 . S
C800 O792 1.235 . S
C801 C803 1.393 . S
C801 C805 1.395 . S
C801 C808 1.492 . S
C802 C803 1.392 . S
C802 C804 1.386 . S
C803 C801 1.393 . S
C803 C802 1.392 . S
C803 H820 0.930 . S
C804 C802 1.386 . S
C804 C806 1.395 . S
C804 H821 0.930 . S
C805 C801 1.395 . S
C805 C806 1.379 . S
C805 H822 0.930 . S
C806 C804 1.395 . S
C806 C805 1.379 . S
C806 H823 0.930 . S
C807 O790 1.264 1_554 S
C807 O791 1.254 . S
C808 Eu744 2.848 . S
C808 O788 1.257 . S
C808 O793 1.249 . S
C808 C801 1.492 . S
C809 H774 0.931 . S
C809 C787 1.420 . S
C809 C810 1.351 . S
C810 H772 0.930 . S
C810 C778 1.423 . S
C810 C809 1.351 . S
C811 O795 1.276 . S
C811 O798 1.235 . S
C812 C813 1.393 . S
C812 C816 1.395 . S
C812 C819 1.492 . S
C813 C812 1.393 . S
C813 C814 1.392 . S
C813 H824 0.930 . S
C814 C813 1.392 . S
C814 C815 1.386 . S
C815 C814 1.386 . S
C815 C817 1.395 . S
C815 H825 0.930 . S
C816 C812 1.395 . S
C816 C817 1.379 . S
C816 H826 0.930 . S
C817 C815 1.395 . S
C817 C816 1.379 . S
C817 H827 0.930 . S
C818 O796 1.264 1_556 S
C818 O797 1.254 . S
C819 Eu755 2.848 . S
C819 O794 1.257 . S
C819 O799 1.249 . S
C819 C812 1.492 . S
H820 C803 0.930 . S
H821 C804 0.930 . S
H822 C805 0.930 . S
H823 C806 0.930 . S
H824 C813 0.930 . S
H825 C815 0.930 . S
H826 C816 0.930 . S
H827 C817 0.930 . S
Eu828 N859 2.657 . S
Eu828 N866 2.609 . S
Eu828 O872 2.558 . S
Eu828 O873 2.612 . S
Eu828 O875 2.339 . S
Eu828 O876 2.563 . S
Eu828 O877 2.419 . S
Eu828 O879 2.380 . S
Eu828 O880 2.432 . S
Eu828 C892 2.848 . S
C829 C832 1.429 . S
C829 C833 1.411 . S
C829 N836 1.377 . S
C830 C832 1.420 . S
C830 C834 1.423 . S
C830 C842 1.392 . S
C831 C833 1.420 . S
C831 C834 1.351 . S
C831 H854 0.931 . S
C832 C829 1.429 . S
C832 C830 1.420 . S
C832 N840 1.362 . S
C833 C829 1.411 . S
C833 C831 1.420 . S
C833 C838 1.395 . S
C834 C830 1.423 . S
C834 C831 1.351 . S
C834 H846 0.930 . S
C835 C837 1.400 . S
C835 C838 1.386 . S
C835 H847 0.930 . S
N836 C829 1.377 . S
N836 C837 1.321 . S
N836 Eu839 2.609 . S
C837 C835 1.400 . S
C837 N836 1.321 . S
C837 H844 0.930 . S
C838 C833 1.395 . S
C838 C835 1.386 . S
C838 H857 0.930 . S
Eu839 N836 2.609 . S
Eu839 N840 2.657 . S
Eu839 O873 2.380 . S
Eu839 O874 2.432 . S
Eu839 O878 2.558 . S
Eu839 O879 2.612 . S
Eu839 O881 2.339 . S
Eu839 O882 2.563 . S
Eu839 O883 2.419 . S
Eu839 C903 2.848 . S
N840 C832 1.362 . S
N840 Eu839 2.657 . S
N840 C841 1.334 . S
C841 N840 1.334 . S
C841 C843 1.413 . S
C841 H848 0.929 . S
C842 C830 1.392 . S
C842 C843 1.367 . S
C842 H850 0.930 . S
C843 C841 1.413 . S
C843 C842 1.367 . S
C843 H845 0.930 . S
H844 C837 0.930 . S
H845 C843 0.930 . S
H846 C834 0.930 . S
H847 C835 0.930 . S
H848 C841 0.929 . S
H849 C863 0.930 . S
H850 C842 0.930 . S
H851 C869 0.930 . S
H852 C860 0.929 . S
H853 C867 0.930 . S
H854 C831 0.931 . S
H855 C861 0.930 . S
H856 C894 0.930 . S
H857 C838 0.930 . S
H858 C893 0.931 . S
N859 Eu828 2.657 . S
N859 C860 1.334 . S
N859 C864 1.362 . S
C860 H852 0.929 . S
C860 N859 1.334 . S
C860 C863 1.413 . S
C861 H855 0.930 . S
C861 C862 1.392 . S
C861 C863 1.367 . S
C862 C861 1.392 . S
C862 C864 1.420 . S
C862 C894 1.423 . S
C863 H849 0.930 . S
C863 C860 1.413 . S
C863 C861 1.367 . S
C864 N859 1.362 . S
C864 C862 1.420 . S
C864 C868 1.429 . S
H865 C870 0.930 . S
N866 Eu828 2.609 . S
N866 C868 1.377 . S
N866 C869 1.321 . S
C867 H853 0.930 . S
C867 C869 1.400 . S
C867 C870 1.386 . S
C868 C864 1.429 . S
C868 N866 1.377 . S
C868 C871 1.411 . S
C869 H851 0.930 . S
C869 N866 1.321 . S
C869 C867 1.400 . S
C870 H865 0.930 . S
C870 C867 1.386 . S
C870 C871 1.395 . S
C871 C868 1.411 . S
C871 C870 1.395 . S
C871 C893 1.420 . S
O872 Eu828 2.558 . S
O872 C892 1.257 . S
O873 Eu828 2.612 . S
O873 Eu839 2.380 . S
O873 C884 1.276 . S
O874 Eu839 2.432 . S
O874 C891 1.264 . S
O875 Eu828 2.339 . S
O875 C891 1.254 . S
O876 Eu828 2.563 . S
O876 C884 1.235 . S
O877 Eu828 2.419 . S
O877 C892 1.249 . S
O878 Eu839 2.558 . S
O878 C903 1.257 . S
O879 Eu828 2.380 . S
O879 Eu839 2.612 . S
O879 C895 1.276 . S
O880 Eu828 2.432 . S
O880 C902 1.264 . S
O881 Eu839 2.339 . S
O881 C902 1.254 . S
O882 Eu839 2.563 . S
O882 C895 1.235 . S
O883 Eu839 2.419 . S
O883 C903 1.249 . S
C884 O873 1.276 . S
C884 O876 1.235 . S
C885 C887 1.393 . S
C885 C889 1.395 . S
C885 C892 1.492 . S
C886 C887 1.392 . S
C886 C888 1.386 . S
C887 C885 1.393 . S
C887 C886 1.392 . S
C887 H904 0.930 . S
C888 C886 1.386 . S
C888 C890 1.395 . S
C888 H905 0.930 . S
C889 C885 1.395 . S
C889 C890 1.379 . S
C889 H906 0.930 . S
C890 C888 1.395 . S
C890 C889 1.379 . S
C890 H907 0.930 . S
C891 O874 1.264 . S
C891 O875 1.254 . S
C892 Eu828 2.848 . S
C892 O872 1.257 . S
C892 O877 1.249 . S
C892 C885 1.492 . S
C893 H858 0.931 . S
C893 C871 1.420 . S
C893 C894 1.351 . S
C894 H856 0.930 . S
C894 C862 1.423 . S
C894 C893 1.351 . S
C895 O879 1.276 . S
C895 O882 1.235 . S
C896 C897 1.393 . S
C896 C900 1.395 . S
C896 C903 1.492 . S
C897 C896 1.393 . S
C897 C898 1.392 . S
C897 H908 0.930 . S
C898 C897 1.392 . S
C898 C899 1.386 . S
C899 C898 1.386 . S
C899 C901 1.395 . S
C899 H909 0.930 . S
C900 C896 1.395 . S
C900 C901 1.379 . S
C900 H910 0.930 . S
C901 C899 1.395 . S
C901 C900 1.379 . S
C901 H911 0.930 . S
C902 O880 1.264 . S
C902 O881 1.254 . S
C903 Eu839 2.848 . S
C903 O878 1.257 . S
C903 O883 1.249 . S
C903 C896 1.492 . S
H904 C887 0.930 . S
H905 C888 0.930 . S
H906 C889 0.930 . S
H907 C890 0.930 . S
H908 C897 0.930 . S
H909 C899 0.930 . S
H910 C900 0.930 . S
H911 C901 0.930 . S
Eu912 N943 2.657 . S
Eu912 N950 2.609 . S
Eu912 O956 2.558 . S
Eu912 O957 2.612 . S
Eu912 O959 2.339 . S
Eu912 O960 2.563 . S
Eu912 O961 2.419 . S
Eu912 O963 2.380 . S
Eu912 O964 2.432 . S
Eu912 C976 2.848 . S
C913 C916 1.429 . S
C913 C917 1.411 . S
C913 N920 1.377 . S
C914 C916 1.420 . S
C914 C918 1.423 . S
C914 C926 1.392 . S
C915 C917 1.420 . S
C915 C918 1.351 . S
C915 H938 0.931 . S
C916 C913 1.429 . S
C916 C914 1.420 . S
C916 N924 1.362 . S
C917 C913 1.411 . S
C917 C915 1.420 . S
C917 C922 1.395 . S
C918 C914 1.423 . S
C918 C915 1.351 . S
C918 H930 0.930 . S
C919 C921 1.400 . S
C919 C922 1.386 . S
C919 H931 0.930 . S
N920 C913 1.377 . S
N920 C921 1.321 . S
N920 Eu923 2.609 . S
C921 C919 1.400 . S
C921 N920 1.321 . S
C921 H928 0.930 . S
C922 C917 1.395 . S
C922 C919 1.386 . S
C922 H941 0.930 . S
Eu923 N920 2.609 . S
Eu923 N924 2.657 . S
Eu923 O957 2.380 . S
Eu923 O958 2.432 . S
Eu923 O962 2.558 . S
Eu923 O963 2.612 . S
Eu923 O965 2.339 . S
Eu923 O966 2.563 . S
Eu923 O967 2.419 . S
Eu923 C987 2.848 . S
N924 C916 1.362 . S
N924 Eu923 2.657 . S
N924 C925 1.334 . S
C925 N924 1.334 . S
C925 C927 1.413 . S
C925 H932 0.929 . S
C926 C914 1.392 . S
C926 C927 1.367 . S
C926 H934 0.930 . S
C927 C925 1.413 . S
C927 C926 1.367 . S
C927 H929 0.930 . S
H928 C921 0.930 . S
H929 C927 0.930 . S
H930 C918 0.930 . S
H931 C919 0.930 . S
H932 C925 0.929 . S
H933 C947 0.930 . S
H934 C926 0.930 . S
H935 C953 0.930 . S
H936 C944 0.929 . S
H937 C951 0.930 . S
H938 C915 0.931 . S
H939 C945 0.930 . S
H940 C978 0.930 . S
H941 C922 0.930 . S
H942 C977 0.931 . S
N943 Eu912 2.657 . S
N943 C944 1.334 . S
N943 C948 1.362 . S
C944 H936 0.929 . S
C944 N943 1.334 . S
C944 C947 1.413 . S
C945 H939 0.930 . S
C945 C946 1.392 . S
C945 C947 1.367 . S
C946 C945 1.392 . S
C946 C948 1.420 . S
C946 C978 1.423 . S
C947 H933 0.930 . S
C947 C944 1.413 . S
C947 C945 1.367 . S
C948 N943 1.362 . S
C948 C946 1.420 . S
C948 C952 1.429 . S
H949 C954 0.930 . S
N950 Eu912 2.609 . S
N950 C952 1.377 . S
N950 C953 1.321 . S
C951 H937 0.930 . S
C951 C953 1.400 . S
C951 C954 1.386 . S
C952 C948 1.429 . S
C952 N950 1.377 . S
C952 C955 1.411 . S
C953 H935 0.930 . S
C953 N950 1.321 . S
C953 C951 1.400 . S
C954 H949 0.930 . S
C954 C951 1.386 . S
C954 C955 1.395 . S
C955 C952 1.411 . S
C955 C954 1.395 . S
C955 C977 1.420 . S
O956 Eu912 2.558 . S
O956 C976 1.257 . S
O957 Eu912 2.612 . S
O957 Eu923 2.380 . S
O957 C968 1.276 . S
O958 Eu923 2.432 . S
O958 C975 1.264 . S
O959 Eu912 2.339 . S
O959 C975 1.254 . S
O960 Eu912 2.563 . S
O960 C968 1.235 . S
O961 Eu912 2.419 . S
O961 C976 1.249 . S
O962 Eu923 2.558 . S
O962 C987 1.257 . S
O963 Eu912 2.380 . S
O963 Eu923 2.612 . S
O963 C979 1.276 . S
O964 Eu912 2.432 . S
O964 C986 1.264 . S
O965 Eu923 2.339 . S
O965 C986 1.254 . S
O966 Eu923 2.563 . S
O966 C979 1.235 . S
O967 Eu923 2.419 . S
O967 C987 1.249 . S
C968 O957 1.276 . S
C968 O960 1.235 . S
C969 C971 1.393 . S
C969 C973 1.395 . S
C969 C976 1.492 . S
C970 C971 1.392 . S
C970 C972 1.386 . S
C971 C969 1.393 . S
C971 C970 1.392 . S
C971 H988 0.930 . S
C972 C970 1.386 . S
C972 C974 1.395 . S
C972 H989 0.930 . S
C973 C969 1.395 . S
C973 C974 1.379 . S
C973 H990 0.930 . S
C974 C972 1.395 . S
C974 C973 1.379 . S
C974 H991 0.930 . S
C975 O958 1.264 . S
C975 O959 1.254 . S
C976 Eu912 2.848 . S
C976 O956 1.257 . S
C976 O961 1.249 . S
C976 C969 1.492 . S
C977 H942 0.931 . S
C977 C955 1.420 . S
C977 C978 1.351 . S
C978 H940 0.930 . S
C978 C946 1.423 . S
C978 C977 1.351 . S
C979 O963 1.276 . S
C979 O966 1.235 . S
C980 C981 1.393 . S
C980 C984 1.395 . S
C980 C987 1.492 . S
C981 C980 1.393 . S
C981 C982 1.392 . S
C981 H992 0.930 . S
C982 C981 1.392 . S
C982 C983 1.386 . S
C983 C982 1.386 . S
C983 C985 1.395 . S
C983 H993 0.930 . S
C984 C980 1.395 . S
C984 C985 1.379 . S
C984 H994 0.930 . S
C985 C983 1.395 . S
C985 C984 1.379 . S
C985 H995 0.930 . S
C986 O964 1.264 . S
C986 O965 1.254 . S
C987 Eu923 2.848 . S
C987 O962 1.257 . S
C987 O967 1.249 . S
C987 C980 1.492 . S
H988 C971 0.930 . S
H989 C972 0.930 . S
H990 C973 0.930 . S
H991 C974 0.930 . S
H992 C981 0.930 . S
H993 C983 0.930 . S
H994 C984 0.930 . S
H995 C985 0.930 . S
Eu996 N1027 2.657 . S
Eu996 N1034 2.609 . S
Eu996 O1040 2.558 . S
Eu996 O1041 2.612 . S
Eu996 O1043 2.339 . S
Eu996 O1044 2.563 . S
Eu996 O1045 2.419 . S
Eu996 O1047 2.380 . S
Eu996 O1048 2.432 . S
Eu996 C1060 2.848 . S
C997 C1000 1.429 . S
C997 C1001 1.411 . S
C997 N1004 1.377 . S
C998 C1000 1.420 . S
C998 C1002 1.423 . S
C998 C1010 1.392 . S
C999 C1001 1.420 . S
C999 C1002 1.351 . S
C999 H1022 0.931 . S
C1000 C997 1.429 . S
C1000 C998 1.420 . S
C1000 N1008 1.362 . S
C1001 C997 1.411 . S
C1001 C999 1.420 . S
C1001 C1006 1.395 . S
C1002 C998 1.423 . S
C1002 C999 1.351 . S
C1002 H1014 0.930 . S
C1003 C1005 1.400 . S
C1003 C1006 1.386 . S
C1003 H1015 0.930 . S
N1004 C997 1.377 . S
N1004 C1005 1.321 . S
N1004 Eu1007 2.609 . S
C1005 C1003 1.400 . S
C1005 N1004 1.321 . S
C1005 H1012 0.930 . S
C1006 C1001 1.395 . S
C1006 C1003 1.386 . S
C1006 H1025 0.930 . S
Eu1007 N1004 2.609 . S
Eu1007 N1008 2.657 . S
Eu1007 O1041 2.380 . S
Eu1007 O1042 2.432 . S
Eu1007 O1046 2.558 . S
Eu1007 O1047 2.612 . S
Eu1007 O1049 2.339 . S
Eu1007 O1050 2.563 . S
Eu1007 O1051 2.419 . S
Eu1007 C1071 2.848 . S
N1008 C1000 1.362 . S
N1008 Eu1007 2.657 . S
N1008 C1009 1.334 . S
C1009 N1008 1.334 . S
C1009 C1011 1.413 . S
C1009 H1016 0.929 . S
C1010 C998 1.392 . S
C1010 C1011 1.367 . S
C1010 H1018 0.930 . S
C1011 C1009 1.413 . S
C1011 C1010 1.367 . S
C1011 H1013 0.930 . S
H1012 C1005 0.930 . S
H1013 C1011 0.930 . S
H1014 C1002 0.930 . S
H1015 C1003 0.930 . S
H1016 C1009 0.929 . S
H1017 C1031 0.930 . S
H1018 C1010 0.930 . S
H1019 C1037 0.930 . S
H1020 C1028 0.929 . S
H1021 C1035 0.930 . S
H1022 C999 0.931 . S
H1023 C1029 0.930 . S
H1024 C1062 0.930 . S
H1025 C1006 0.930 . S
H1026 C1061 0.931 . S
N1027 Eu996 2.657 . S
N1027 C1028 1.334 . S
N1027 C1032 1.362 . S
C1028 H1020 0.929 . S
C1028 N1027 1.334 . S
C1028 C1031 1.413 . S
C1029 H1023 0.930 . S
C1029 C1030 1.392 . S
C1029 C1031 1.367 . S
C1030 C1029 1.392 . S
C1030 C1032 1.420 . S
C1030 C1062 1.423 . S
C1031 H1017 0.930 . S
C1031 C1028 1.413 . S
C1031 C1029 1.367 . S
C1032 N1027 1.362 . S
C1032 C1030 1.420 . S
C1032 C1036 1.429 . S
H1033 C1038 0.930 . S
N1034 Eu996 2.609 . S
N1034 C1036 1.377 . S
N1034 C1037 1.321 . S
C1035 H1021 0.930 . S
C1035 C1037 1.400 . S
C1035 C1038 1.386 . S
C1036 C1032 1.429 . S
C1036 N1034 1.377 . S
C1036 C1039 1.411 . S
C1037 H1019 0.930 . S
C1037 N1034 1.321 . S
C1037 C1035 1.400 . S
C1038 H1033 0.930 . S
C1038 C1035 1.386 . S
C1038 C1039 1.395 . S
C1039 C1036 1.411 . S
C1039 C1038 1.395 . S
C1039 C1061 1.420 . S
O1040 Eu996 2.558 . S
O1040 C1060 1.257 . S
O1041 Eu996 2.612 . S
O1041 Eu1007 2.380 . S
O1041 C1052 1.276 . S
O1042 Eu1007 2.432 . S
O1042 C1059 1.264 . S
O1043 Eu996 2.339 . S
O1043 C1059 1.254 . S
O1044 Eu996 2.563 . S
O1044 C1052 1.235 . S
O1045 Eu996 2.419 . S
O1045 C1060 1.249 . S
O1046 Eu1007 2.558 . S
O1046 C1071 1.257 . S
O1047 Eu996 2.380 . S
O1047 Eu1007 2.612 . S
O1047 C1063 1.276 . S
O1048 Eu996 2.432 . S
O1048 C1070 1.264 . S
O1049 Eu1007 2.339 . S
O1049 C1070 1.254 . S
O1050 Eu1007 2.563 . S
O1050 C1063 1.235 . S
O1051 Eu1007 2.419 . S
O1051 C1071 1.249 . S
C1052 O1041 1.276 . S
C1052 O1044 1.235 . S
C1053 C1055 1.393 . S
C1053 C1057 1.395 . S
C1053 C1060 1.492 . S
C1054 C1055 1.392 . S
C1054 C1056 1.386 . S
C1055 C1053 1.393 . S
C1055 C1054 1.392 . S
C1055 H1072 0.930 . S
C1056 C1054 1.386 . S
C1056 C1058 1.395 . S
C1056 H1073 0.930 . S
C1057 C1053 1.395 . S
C1057 C1058 1.379 . S
C1057 H1074 0.930 . S
C1058 C1056 1.395 . S
C1058 C1057 1.379 . S
C1058 H1075 0.930 . S
C1059 O1042 1.264 . S
C1059 O1043 1.254 . S
C1060 Eu996 2.848 . S
C1060 O1040 1.257 . S
C1060 O1045 1.249 . S
C1060 C1053 1.492 . S
C1061 H1026 0.931 . S
C1061 C1039 1.420 . S
C1061 C1062 1.351 . S
C1062 H1024 0.930 . S
C1062 C1030 1.423 . S
C1062 C1061 1.351 . S
C1063 O1047 1.276 . S
C1063 O1050 1.235 . S
C1064 C1065 1.393 . S
C1064 C1068 1.395 . S
C1064 C1071 1.492 . S
C1065 C1064 1.393 . S
C1065 C1066 1.392 . S
C1065 H1076 0.930 . S
C1066 C1065 1.392 . S
C1066 C1067 1.386 . S
C1067 C1066 1.386 . S
C1067 C1069 1.395 . S
C1067 H1077 0.930 . S
C1068 C1064 1.395 . S
C1068 C1069 1.379 . S
C1068 H1078 0.930 . S
C1069 C1067 1.395 . S
C1069 C1068 1.379 . S
C1069 H1079 0.930 . S
C1070 O1048 1.264 . S
C1070 O1049 1.254 . S
C1071 Eu1007 2.848 . S
C1071 O1046 1.257 . S
C1071 O1051 1.249 . S
C1071 C1064 1.492 . S
H1072 C1055 0.930 . S
H1073 C1056 0.930 . S
H1074 C1057 0.930 . S
H1075 C1058 0.930 . S
H1076 C1065 0.930 . S
H1077 C1067 0.930 . S
H1078 C1068 0.930 . S
H1079 C1069 0.930 . S
Eu1080 N1111 2.657 . S
Eu1080 N1118 2.609 . S
Eu1080 O1124 2.558 . S
Eu1080 O1125 2.612 . S
Eu1080 O1127 2.339 . S
Eu1080 O1128 2.563 . S
Eu1080 O1129 2.419 . S
Eu1080 O1131 2.380 . S
Eu1080 O1132 2.432 . S
Eu1080 C1144 2.848 . S
C1081 C1084 1.429 . S
C1081 C1085 1.411 . S
C1081 N1088 1.377 . S
C1082 C1084 1.420 . S
C1082 C1086 1.423 . S
C1082 C1094 1.392 . S
C1083 C1085 1.420 . S
C1083 C1086 1.351 . S
C1083 H1106 0.931 . S
C1084 C1081 1.429 . S
C1084 C1082 1.420 . S
C1084 N1092 1.362 . S
C1085 C1081 1.411 . S
C1085 C1083 1.420 . S
C1085 C1090 1.395 . S
C1086 C1082 1.423 . S
C1086 C1083 1.351 . S
C1086 H1098 0.930 . S
C1087 C1089 1.400 . S
C1087 C1090 1.386 . S
C1087 H1099 0.930 . S
N1088 C1081 1.377 . S
N1088 C1089 1.321 . S
N1088 Eu1091 2.609 . S
C1089 C1087 1.400 . S
C1089 N1088 1.321 . S
C1089 H1096 0.930 . S
C1090 C1085 1.395 . S
C1090 C1087 1.386 . S
C1090 H1109 0.930 . S
Eu1091 N1088 2.609 . S
Eu1091 N1092 2.657 . S
Eu1091 O1125 2.380 . S
Eu1091 O1126 2.432 . S
Eu1091 O1130 2.558 . S
Eu1091 O1131 2.612 . S
Eu1091 O1133 2.339 . S
Eu1091 O1134 2.563 . S
Eu1091 O1135 2.419 . S
Eu1091 C1155 2.848 . S
N1092 C1084 1.362 . S
N1092 Eu1091 2.657 . S
N1092 C1093 1.334 . S
C1093 N1092 1.334 . S
C1093 C1095 1.413 . S
C1093 H1100 0.929 . S
C1094 C1082 1.392 . S
C1094 C1095 1.367 . S
C1094 H1102 0.930 . S
C1095 C1093 1.413 . S
C1095 C1094 1.367 . S
C1095 H1097 0.930 . S
H1096 C1089 0.930 . S
H1097 C1095 0.930 . S
H1098 C1086 0.930 . S
H1099 C1087 0.930 . S
H1100 C1093 0.929 . S
H1101 C1115 0.930 . S
H1102 C1094 0.930 . S
H1103 C1121 0.930 . S
H1104 C1112 0.929 . S
H1105 C1119 0.930 . S
H1106 C1083 0.931 . S
H1107 C1113 0.930 . S
H1108 C1146 0.930 . S
H1109 C1090 0.930 . S
H1110 C1145 0.931 . S
N1111 Eu1080 2.657 . S
N1111 C1112 1.334 . S
N1111 C1116 1.362 . S
C1112 H1104 0.929 . S
C1112 N1111 1.334 . S
C1112 C1115 1.413 . S
C1113 H1107 0.930 . S
C1113 C1114 1.392 . S
C1113 C1115 1.367 . S
C1114 C1113 1.392 . S
C1114 C1116 1.420 . S
C1114 C1146 1.423 . S
C1115 H1101 0.930 . S
C1115 C1112 1.413 . S
C1115 C1113 1.367 . S
C1116 N1111 1.362 . S
C1116 C1114 1.420 . S
C1116 C1120 1.429 . S
H1117 C1122 0.930 . S
N1118 Eu1080 2.609 . S
N1118 C1120 1.377 . S
N1118 C1121 1.321 . S
C1119 H1105 0.930 . S
C1119 C1121 1.400 . S
C1119 C1122 1.386 . S
C1120 C1116 1.429 . S
C1120 N1118 1.377 . S
C1120 C1123 1.411 . S
C1121 H1103 0.930 . S
C1121 N1118 1.321 . S
C1121 C1119 1.400 . S
C1122 H1117 0.930 . S
C1122 C1119 1.386 . S
C1122 C1123 1.395 . S
C1123 C1120 1.411 . S
C1123 C1122 1.395 . S
C1123 C1145 1.420 . S
O1124 Eu1080 2.558 . S
O1124 C1144 1.257 . S
O1125 Eu1080 2.612 . S
O1125 Eu1091 2.380 . S
O1125 C1136 1.276 . S
O1126 Eu1091 2.432 . S
O1126 C1143 1.264 . S
O1127 Eu1080 2.339 . S
O1127 C1143 1.254 . S
O1128 Eu1080 2.563 . S
O1128 C1136 1.235 . S
O1129 Eu1080 2.419 . S
O1129 C1144 1.249 . S
O1130 Eu1091 2.558 . S
O1130 C1155 1.257 . S
O1131 Eu1080 2.380 . S
O1131 Eu1091 2.612 . S
O1131 C1147 1.276 . S
O1132 Eu1080 2.432 . S
O1132 C1154 1.264 . S
O1133 Eu1091 2.339 . S
O1133 C1154 1.254 . S
O1134 Eu1091 2.563 . S
O1134 C1147 1.235 . S
O1135 Eu1091 2.419 . S
O1135 C1155 1.249 . S
C1136 O1125 1.276 . S
C1136 O1128 1.235 . S
C1137 C1139 1.393 . S
C1137 C1141 1.395 . S
C1137 C1144 1.492 . S
C1138 C1139 1.392 . S
C1138 C1140 1.386 . S
C1139 C1137 1.393 . S
C1139 C1138 1.392 . S
C1139 H1156 0.930 . S
C1140 C1138 1.386 . S
C1140 C1142 1.395 . S
C1140 H1157 0.930 . S
C1141 C1137 1.395 . S
C1141 C1142 1.379 . S
C1141 H1158 0.930 . S
C1142 C1140 1.395 . S
C1142 C1141 1.379 . S
C1142 H1159 0.930 . S
C1143 O1126 1.264 . S
C1143 O1127 1.254 . S
C1144 Eu1080 2.848 . S
C1144 O1124 1.257 . S
C1144 O1129 1.249 . S
C1144 C1137 1.492 . S
C1145 H1110 0.931 . S
C1145 C1123 1.420 . S
C1145 C1146 1.351 . S
C1146 H1108 0.930 . S
C1146 C1114 1.423 . S
C1146 C1145 1.351 . S
C1147 O1131 1.276 . S
C1147 O1134 1.235 . S
C1148 C1149 1.393 . S
C1148 C1152 1.395 . S
C1148 C1155 1.492 . S
C1149 C1148 1.393 . S
C1149 C1150 1.392 . S
C1149 H1160 0.930 . S
C1150 C1149 1.392 . S
C1150 C1151 1.386 . S
C1151 C1150 1.386 . S
C1151 C1153 1.395 . S
C1151 H1161 0.930 . S
C1152 C1148 1.395 . S
C1152 C1153 1.379 . S
C1152 H1162 0.930 . S
C1153 C1151 1.395 . S
C1153 C1152 1.379 . S
C1153 H1163 0.930 . S
C1154 O1132 1.264 . S
C1154 O1133 1.254 . S
C1155 Eu1091 2.848 . S
C1155 O1130 1.257 . S
C1155 O1135 1.249 . S
C1155 C1148 1.492 . S
H1156 C1139 0.930 . S
H1157 C1140 0.930 . S
H1158 C1141 0.930 . S
H1159 C1142 0.930 . S
H1160 C1149 0.930 . S
H1161 C1151 0.930 . S
H1162 C1152 0.930 . S
H1163 C1153 0.930 . S
Eu1164 N1195 2.657 . S
Eu1164 N1202 2.609 . S
Eu1164 O1208 2.558 . S
Eu1164 O1209 2.612 . S
Eu1164 O1211 2.339 . S
Eu1164 O1212 2.563 . S
Eu1164 O1213 2.419 . S
Eu1164 O1215 2.380 . S
Eu1164 O1216 2.432 . S
Eu1164 C1228 2.848 . S
C1165 C1168 1.429 . S
C1165 C1169 1.411 . S
C1165 N1172 1.377 . S
C1166 C1168 1.420 . S
C1166 C1170 1.423 . S
C1166 C1178 1.392 . S
C1167 C1169 1.420 . S
C1167 C1170 1.351 . S
C1167 H1190 0.931 . S
C1168 C1165 1.429 . S
C1168 C1166 1.420 . S
C1168 N1176 1.362 . S
C1169 C1165 1.411 . S
C1169 C1167 1.420 . S
C1169 C1174 1.395 . S
C1170 C1166 1.423 . S
C1170 C1167 1.351 . S
C1170 H1182 0.930 . S
C1171 C1173 1.400 . S
C1171 C1174 1.386 . S
C1171 H1183 0.930 . S
N1172 C1165 1.377 . S
N1172 C1173 1.321 . S
N1172 Eu1175 2.609 . S
C1173 C1171 1.400 . S
C1173 N1172 1.321 . S
C1173 H1180 0.930 . S
C1174 C1169 1.395 . S
C1174 C1171 1.386 . S
C1174 H1193 0.930 . S
Eu1175 N1172 2.609 . S
Eu1175 N1176 2.657 . S
Eu1175 O1209 2.380 . S
Eu1175 O1210 2.432 . S
Eu1175 O1214 2.558 . S
Eu1175 O1215 2.612 . S
Eu1175 O1217 2.339 . S
Eu1175 O1218 2.563 . S
Eu1175 O1219 2.419 . S
Eu1175 C1239 2.848 . S
N1176 C1168 1.362 . S
N1176 Eu1175 2.657 . S
N1176 C1177 1.334 . S
C1177 N1176 1.334 . S
C1177 C1179 1.413 . S
C1177 H1184 0.929 . S
C1178 C1166 1.392 . S
C1178 C1179 1.367 . S
C1178 H1186 0.930 . S
C1179 C1177 1.413 . S
C1179 C1178 1.367 . S
C1179 H1181 0.930 . S
H1180 C1173 0.930 . S
H1181 C1179 0.930 . S
H1182 C1170 0.930 . S
H1183 C1171 0.930 . S
H1184 C1177 0.929 . S
H1185 C1199 0.930 . S
H1186 C1178 0.930 . S
H1187 C1205 0.930 . S
H1188 C1196 0.929 . S
H1189 C1203 0.930 . S
H1190 C1167 0.931 . S
H1191 C1197 0.930 . S
H1192 C1230 0.930 . S
H1193 C1174 0.930 . S
H1194 C1229 0.931 . S
N1195 Eu1164 2.657 . S
N1195 C1196 1.334 . S
N1195 C1200 1.362 . S
C1196 H1188 0.929 . S
C1196 N1195 1.334 . S
C1196 C1199 1.413 . S
C1197 H1191 0.930 . S
C1197 C1198 1.392 . S
C1197 C1199 1.367 . S
C1198 C1197 1.392 . S
C1198 C1200 1.420 . S
C1198 C1230 1.423 . S
C1199 H1185 0.930 . S
C1199 C1196 1.413 . S
C1199 C1197 1.367 . S
C1200 N1195 1.362 . S
C1200 C1198 1.420 . S
C1200 C1204 1.429 . S
H1201 C1206 0.930 . S
N1202 Eu1164 2.609 . S
N1202 C1204 1.377 . S
N1202 C1205 1.321 . S
C1203 H1189 0.930 . S
C1203 C1205 1.400 . S
C1203 C1206 1.386 . S
C1204 C1200 1.429 . S
C1204 N1202 1.377 . S
C1204 C1207 1.411 . S
C1205 H1187 0.930 . S
C1205 N1202 1.321 . S
C1205 C1203 1.400 . S
C1206 H1201 0.930 . S
C1206 C1203 1.386 . S
C1206 C1207 1.395 . S
C1207 C1204 1.411 . S
C1207 C1206 1.395 . S
C1207 C1229 1.420 . S
O1208 Eu1164 2.558 . S
O1208 C1228 1.257 . S
O1209 Eu1164 2.612 . S
O1209 Eu1175 2.380 . S
O1209 C1220 1.276 . S
O1210 Eu1175 2.432 . S
O1210 C1227 1.264 . S
O1211 Eu1164 2.339 . S
O1211 C1227 1.254 . S
O1212 Eu1164 2.563 . S
O1212 C1220 1.235 . S
O1213 Eu1164 2.419 . S
O1213 C1228 1.249 . S
O1214 Eu1175 2.558 . S
O1214 C1239 1.257 . S
O1215 Eu1164 2.380 . S
O1215 Eu1175 2.612 . S
O1215 C1231 1.276 . S
O1216 Eu1164 2.432 . S
O1216 C1238 1.264 . S
O1217 Eu1175 2.339 . S
O1217 C1238 1.254 . S
O1218 Eu1175 2.563 . S
O1218 C1231 1.235 . S
O1219 Eu1175 2.419 . S
O1219 C1239 1.249 . S
C1220 O1209 1.276 . S
C1220 O1212 1.235 . S
C1221 C1223 1.393 . S
C1221 C1225 1.395 . S
C1221 C1228 1.492 . S
C1222 C1223 1.392 . S
C1222 C1224 1.386 . S
C1223 C1221 1.393 . S
C1223 C1222 1.392 . S
C1223 H1240 0.930 . S
C1224 C1222 1.386 . S
C1224 C1226 1.395 . S
C1224 H1241 0.930 . S
C1225 C1221 1.395 . S
C1225 C1226 1.379 . S
C1225 H1242 0.930 . S
C1226 C1224 1.395 . S
C1226 C1225 1.379 . S
C1226 H1243 0.930 . S
C1227 O1210 1.264 . S
C1227 O1211 1.254 . S
C1228 Eu1164 2.848 . S
C1228 O1208 1.257 . S
C1228 O1213 1.249 . S
C1228 C1221 1.492 . S
C1229 H1194 0.931 . S
C1229 C1207 1.420 . S
C1229 C1230 1.351 . S
C1230 H1192 0.930 . S
C1230 C1198 1.423 . S
C1230 C1229 1.351 . S
C1231 O1215 1.276 . S
C1231 O1218 1.235 . S
C1232 C1233 1.393 . S
C1232 C1236 1.395 . S
C1232 C1239 1.492 . S
C1233 C1232 1.393 . S
C1233 C1234 1.392 . S
C1233 H1244 0.930 . S
C1234 C1233 1.392 . S
C1234 C1235 1.386 . S
C1235 C1234 1.386 . S
C1235 C1237 1.395 . S
C1235 H1245 0.930 . S
C1236 C1232 1.395 . S
C1236 C1237 1.379 . S
C1236 H1246 0.930 . S
C1237 C1235 1.395 . S
C1237 C1236 1.379 . S
C1237 H1247 0.930 . S
C1238 O1216 1.264 . S
C1238 O1217 1.254 . S
C1239 Eu1175 2.848 . S
C1239 O1214 1.257 . S
C1239 O1219 1.249 . S
C1239 C1232 1.492 . S
H1240 C1223 0.930 . S
H1241 C1224 0.930 . S
H1242 C1225 0.930 . S
H1243 C1226 0.930 . S
H1244 C1233 0.930 . S
H1245 C1235 0.930 . S
H1246 C1236 0.930 . S
H1247 C1237 0.930 . S
Eu1248 N1279 2.657 . S
Eu1248 N1286 2.609 . S
Eu1248 O1292 2.558 . S
Eu1248 O1293 2.612 . S
Eu1248 O1295 2.339 . S
Eu1248 O1296 2.563 . S
Eu1248 O1297 2.419 . S
Eu1248 O1299 2.380 . S
Eu1248 O1300 2.432 . S
Eu1248 C1312 2.848 . S
C1249 C1252 1.429 . S
C1249 C1253 1.411 . S
C1249 N1256 1.377 . S
C1250 C1252 1.420 . S
C1250 C1254 1.423 . S
C1250 C1262 1.392 . S
C1251 C1253 1.420 . S
C1251 C1254 1.351 . S
C1251 H1274 0.931 . S
C1252 C1249 1.429 . S
C1252 C1250 1.420 . S
C1252 N1260 1.362 . S
C1253 C1249 1.411 . S
C1253 C1251 1.420 . S
C1253 C1258 1.395 . S
C1254 C1250 1.423 . S
C1254 C1251 1.351 . S
C1254 H1266 0.930 . S
C1255 C1257 1.400 . S
C1255 C1258 1.386 . S
C1255 H1267 0.930 . S
N1256 C1249 1.377 . S
N1256 C1257 1.321 . S
N1256 Eu1259 2.609 . S
C1257 C1255 1.400 . S
C1257 N1256 1.321 . S
C1257 H1264 0.930 . S
C1258 C1253 1.395 . S
C1258 C1255 1.386 . S
C1258 H1277 0.930 . S
Eu1259 N1256 2.609 . S
Eu1259 N1260 2.657 . S
Eu1259 O1293 2.380 . S
Eu1259 O1294 2.432 . S
Eu1259 O1298 2.558 . S
Eu1259 O1299 2.612 . S
Eu1259 O1301 2.339 . S
Eu1259 O1302 2.563 . S
Eu1259 O1303 2.419 . S
Eu1259 C1323 2.848 . S
N1260 C1252 1.362 . S
N1260 Eu1259 2.657 . S
N1260 C1261 1.334 . S
C1261 N1260 1.334 . S
C1261 C1263 1.413 . S
C1261 H1268 0.929 . S
C1262 C1250 1.392 . S
C1262 C1263 1.367 . S
C1262 H1270 0.930 . S
C1263 C1261 1.413 . S
C1263 C1262 1.367 . S
C1263 H1265 0.930 . S
H1264 C1257 0.930 . S
H1265 C1263 0.930 . S
H1266 C1254 0.930 . S
H1267 C1255 0.930 . S
H1268 C1261 0.929 . S
H1269 C1283 0.930 . S
H1270 C1262 0.930 . S
H1271 C1289 0.930 . S
H1272 C1280 0.929 . S
H1273 C1287 0.930 . S
H1274 C1251 0.931 . S
H1275 C1281 0.930 . S
H1276 C1314 0.930 . S
H1277 C1258 0.930 . S
H1278 C1313 0.931 . S
N1279 Eu1248 2.657 . S
N1279 C1280 1.334 . S
N1279 C1284 1.362 . S
C1280 H1272 0.929 . S
C1280 N1279 1.334 . S
C1280 C1283 1.413 . S
C1281 H1275 0.930 . S
C1281 C1282 1.392 . S
C1281 C1283 1.367 . S
C1282 C1281 1.392 . S
C1282 C1284 1.420 . S
C1282 C1314 1.423 . S
C1283 H1269 0.930 . S
C1283 C1280 1.413 . S
C1283 C1281 1.367 . S
C1284 N1279 1.362 . S
C1284 C1282 1.420 . S
C1284 C1288 1.429 . S
H1285 C1290 0.930 . S
N1286 Eu1248 2.609 . S
N1286 C1288 1.377 . S
N1286 C1289 1.321 . S
C1287 H1273 0.930 . S
C1287 C1289 1.400 . S
C1287 C1290 1.386 . S
C1288 C1284 1.429 . S
C1288 N1286 1.377 . S
C1288 C1291 1.411 . S
C1289 H1271 0.930 . S
C1289 N1286 1.321 . S
C1289 C1287 1.400 . S
C1290 H1285 0.930 . S
C1290 C1287 1.386 . S
C1290 C1291 1.395 . S
C1291 C1288 1.411 . S
C1291 C1290 1.395 . S
C1291 C1313 1.420 . S
O1292 Eu1248 2.558 . S
O1292 C1312 1.257 . S
O1293 Eu1248 2.612 . S
O1293 Eu1259 2.380 . S
O1293 C1304 1.276 . S
O1294 Eu1259 2.432 . S
O1294 C1311 1.264 . S
O1295 Eu1248 2.339 . S
O1295 C1311 1.254 . S
O1296 Eu1248 2.563 . S
O1296 C1304 1.235 . S
O1297 Eu1248 2.419 . S
O1297 C1312 1.249 . S
O1298 Eu1259 2.558 . S
O1298 C1323 1.257 . S
O1299 Eu1248 2.380 . S
O1299 Eu1259 2.612 . S
O1299 C1315 1.276 . S
O1300 Eu1248 2.432 . S
O1300 C1322 1.264 . S
O1301 Eu1259 2.339 . S
O1301 C1322 1.254 . S
O1302 Eu1259 2.563 . S
O1302 C1315 1.235 . S
O1303 Eu1259 2.419 . S
O1303 C1323 1.249 . S
C1304 O1293 1.276 . S
C1304 O1296 1.235 . S
C1305 C1307 1.393 . S
C1305 C1309 1.395 . S
C1305 C1312 1.492 . S
C1306 C1307 1.392 . S
C1306 C1308 1.386 . S
C1307 C1305 1.393 . S
C1307 C1306 1.392 . S
C1307 H1324 0.930 . S
C1308 C1306 1.386 . S
C1308 C1310 1.395 . S
C1308 H1325 0.930 . S
C1309 C1305 1.395 . S
C1309 C1310 1.379 . S
C1309 H1326 0.930 . S
C1310 C1308 1.395 . S
C1310 C1309 1.379 . S
C1310 H1327 0.930 . S
C1311 O1294 1.264 . S
C1311 O1295 1.254 . S
C1312 Eu1248 2.848 . S
C1312 O1292 1.257 . S
C1312 O1297 1.249 . S
C1312 C1305 1.492 . S
C1313 H1278 0.931 . S
C1313 C1291 1.420 . S
C1313 C1314 1.351 . S
C1314 H1276 0.930 . S
C1314 C1282 1.423 . S
C1314 C1313 1.351 . S
C1315 O1299 1.276 . S
C1315 O1302 1.235 . S
C1316 C1317 1.393 . S
C1316 C1320 1.395 . S
C1316 C1323 1.492 . S
C1317 C1316 1.393 . S
C1317 C1318 1.392 . S
C1317 H1328 0.930 . S
C1318 C1317 1.392 . S
C1318 C1319 1.386 . S
C1319 C1318 1.386 . S
C1319 C1321 1.395 . S
C1319 H1329 0.930 . S
C1320 C1316 1.395 . S
C1320 C1321 1.379 . S
C1320 H1330 0.930 . S
C1321 C1319 1.395 . S
C1321 C1320 1.379 . S
C1321 H1331 0.930 . S
C1322 O1300 1.264 . S
C1322 O1301 1.254 . S
C1323 Eu1259 2.848 . S
C1323 O1298 1.257 . S
C1323 O1303 1.249 . S
C1323 C1316 1.492 . S
H1324 C1307 0.930 . S
H1325 C1308 0.930 . S
H1326 C1309 0.930 . S
H1327 C1310 0.930 . S
H1328 C1317 0.930 . S
H1329 C1319 0.930 . S
H1330 C1320 0.930 . S
H1331 C1321 0.930 . S
H1332 C1340 0.950 . S
H1333 C1345 0.950 . S
H1334 C1342 0.950 . S
H1335 C1344 0.950 . S
H1336 C1346 0.950 . S
H1337 C1348 0.950 . S
H1338 C1350 0.950 . S
H1339 C1351 0.950 . S
C1340 H1332 0.950 . S
C1340 C1341 1.386 . S
C1340 C1342 1.391 . S
C1341 C1340 1.386 . S
C1341 C1345 1.393 . S
C1342 H1334 0.950 . S
C1342 C1340 1.391 . S
C1342 C1343 1.400 . S
C1343 C1342 1.400 . S
C1343 C1344 1.398 . S
C1343 C1349 1.491 . S
C1344 H1335 0.950 . S
C1344 C1343 1.398 . S
C1344 C1345 1.391 . S
C1345 H1333 0.950 . S
C1345 C1341 1.393 . S
C1345 C1344 1.391 . S
C1346 H1336 0.950 . S
C1346 C1347 1.386 . S
C1346 C1348 1.391 . S
C1347 C1346 1.386 . S
C1347 C1351 1.393 . S
C1348 H1337 0.950 . S
C1348 C1346 1.391 . S
C1348 C1349 1.400 . S
C1349 C1343 1.491 . S
C1349 C1348 1.400 . S
C1349 C1350 1.398 . S
C1350 H1338 0.950 . S
C1350 C1349 1.398 . S
C1350 C1351 1.391 . S
C1351 H1339 0.950 . S
C1351 C1347 1.393 . S
C1351 C1350 1.391 . S
H1352 C1360 0.950 . S
H1353 C1365 0.950 . S
H1354 C1362 0.950 . S
H1355 C1364 0.950 . S
H1356 C1366 0.950 . S
H1357 C1368 0.950 . S
H1358 C1370 0.950 . S
H1359 C1371 0.950 . S
C1360 H1352 0.950 . S
C1360 C1361 1.386 . S
C1360 C1362 1.391 . S
C1361 C1360 1.386 . S
C1361 C1365 1.393 . S
C1362 H1354 0.950 . S
C1362 C1360 1.391 . S
C1362 C1363 1.400 . S
C1363 C1362 1.400 . S
C1363 C1364 1.398 . S
C1363 C1369 1.491 . S
C1364 H1355 0.950 . S
C1364 C1363 1.398 . S
C1364 C1365 1.391 . S
C1365 H1353 0.950 . S
C1365 C1361 1.393 . S
C1365 C1364 1.391 . S
C1366 H1356 0.950 . S
C1366 C1367 1.386 . S
C1366 C1368 1.391 . S
C1367 C1366 1.386 . S
C1367 C1371 1.393 . S
C1368 H1357 0.950 . S
C1368 C1366 1.391 . S
C1368 C1369 1.400 . S
C1369 C1363 1.491 . S
C1369 C1368 1.400 . S
C1369 C1370 1.398 . S
C1370 H1358 0.950 . S
C1370 C1369 1.398 . S
C1370 C1371 1.391 . S
C1371 H1359 0.950 . S
C1371 C1367 1.393 . S
C1371 C1370 1.391 . S
H1372 C1380 0.950 . S
H1373 C1385 0.950 . S
H1374 C1382 0.950 . S
H1375 C1384 0.950 . S
H1376 C1386 0.950 . S
H1377 C1388 0.950 . S
H1378 C1390 0.950 . S
H1379 C1391 0.950 . S
C1380 H1372 0.950 . S
C1380 C1381 1.386 . S
C1380 C1382 1.391 . S
C1381 C1380 1.386 . S
C1381 C1385 1.393 . S
C1382 H1374 0.950 . S
C1382 C1380 1.391 . S
C1382 C1383 1.400 . S
C1383 C1382 1.400 . S
C1383 C1384 1.398 . S
C1383 C1389 1.491 . S
C1384 H1375 0.950 . S
C1384 C1383 1.398 . S
C1384 C1385 1.391 . S
C1385 H1373 0.950 . S
C1385 C1381 1.393 . S
C1385 C1384 1.391 . S
C1386 H1376 0.950 . S
C1386 C1387 1.386 . S
C1386 C1388 1.391 . S
C1387 C1386 1.386 . S
C1387 C1391 1.393 . S
C1388 H1377 0.950 . S
C1388 C1386 1.391 . S
C1388 C1389 1.400 . S
C1389 C1383 1.491 . S
C1389 C1388 1.400 . S
C1389 C1390 1.398 . S
C1390 H1378 0.950 . S
C1390 C1389 1.398 . S
C1390 C1391 1.391 . S
C1391 H1379 0.950 . S
C1391 C1387 1.393 . S
C1391 C1390 1.391 . S
H1392 C1400 0.950 . S
H1393 C1405 0.950 . S
H1394 C1402 0.950 . S
H1395 C1404 0.950 . S
H1396 C1406 0.950 1_554 S
H1397 C1408 0.950 . S
H1398 C1410 0.950 . S
H1399 C1411 0.950 . S
C1400 H1392 0.950 . S
C1400 C1401 1.386 . S
C1400 C1402 1.391 . S
C1401 C1400 1.386 . S
C1401 C1405 1.393 . S
C1402 H1394 0.950 . S
C1402 C1400 1.391 . S
C1402 C1403 1.400 . S
C1403 C1402 1.400 . S
C1403 C1404 1.398 . S
C1403 C1409 1.491 . S
C1404 H1395 0.950 . S
C1404 C1403 1.398 . S
C1404 C1405 1.391 . S
C1405 H1393 0.950 . S
C1405 C1401 1.393 . S
C1405 C1404 1.391 . S
C1406 H1396 0.950 1_556 S
C1406 C1407 1.386 . S
C1406 C1408 1.391 . S
C1407 C1406 1.386 . S
C1407 C1411 1.393 . S
C1408 H1397 0.950 . S
C1408 C1406 1.391 . S
C1408 C1409 1.400 . S
C1409 C1403 1.491 . S
C1409 C1408 1.400 . S
C1409 C1410 1.398 . S
C1410 H1398 0.950 . S
C1410 C1409 1.398 . S
C1410 C1411 1.391 . S
C1411 H1399 0.950 . S
C1411 C1407 1.393 . S
C1411 C1410 1.391 . S
H1412 C1420 0.950 . S
H1413 C1425 0.950 . S
H1414 C1422 0.950 . S
H1415 C1424 0.950 . S
H1416 C1426 0.950 1_554 S
H1417 C1428 0.950 . S
H1418 C1430 0.950 . S
H1419 C1431 0.950 . S
C1420 H1412 0.950 . S
C1420 C1421 1.386 . S
C1420 C1422 1.391 . S
C1421 C1420 1.386 . S
C1421 C1425 1.393 . S
C1422 H1414 0.950 . S
C1422 C1420 1.391 . S
C1422 C1423 1.400 . S
C1423 C1422 1.400 . S
C1423 C1424 1.398 . S
C1423 C1429 1.491 . S
C1424 H1415 0.950 . S
C1424 C1423 1.398 . S
C1424 C1425 1.391 . S
C1425 H1413 0.950 . S
C1425 C1421 1.393 . S
C1425 C1424 1.391 . S
C1426 H1416 0.950 1_556 S
C1426 C1427 1.386 . S
C1426 C1428 1.391 . S
C1427 C1426 1.386 . S
C1427 C1431 1.393 . S
C1428 H1417 0.950 . S
C1428 C1426 1.391 . S
C1428 C1429 1.400 . S
C1429 C1423 1.491 . S
C1429 C1428 1.400 . S
C1429 C1430 1.398 . S
C1430 H1418 0.950 . S
C1430 C1429 1.398 . S
C1430 C1431 1.391 . S
C1431 H1419 0.950 . S
C1431 C1427 1.393 . S
C1431 C1430 1.391 . S
H1432 C1440 0.950 . S
H1433 C1445 0.950 . S
H1434 C1442 0.950 . S
H1435 C1444 0.950 . S
H1436 C1446 0.950 . S
H1437 C1448 0.950 . S
H1438 C1450 0.950 . S
H1439 C1451 0.950 . S
C1440 H1432 0.950 . S
C1440 C1441 1.386 . S
C1440 C1442 1.391 . S
C1441 C1440 1.386 . S
C1441 C1445 1.393 . S
C1442 H1434 0.950 . S
C1442 C1440 1.391 . S
C1442 C1443 1.400 . S
C1443 C1442 1.400 . S
C1443 C1444 1.398 . S
C1443 C1449 1.491 . S
C1444 H1435 0.950 . S
C1444 C1443 1.398 . S
C1444 C1445 1.391 . S
C1445 H1433 0.950 . S
C1445 C1441 1.393 . S
C1445 C1444 1.391 . S
C1446 H1436 0.950 . S
C1446 C1447 1.386 . S
C1446 C1448 1.391 . S
C1447 C1446 1.386 . S
C1447 C1451 1.393 . S
C1448 H1437 0.950 . S
C1448 C1446 1.391 . S
C1448 C1449 1.400 . S
C1449 C1443 1.491 . S
C1449 C1448 1.400 . S
C1449 C1450 1.398 . S
C1450 H1438 0.950 . S
C1450 C1449 1.398 . S
C1450 C1451 1.391 . S
C1451 H1439 0.950 . S
C1451 C1447 1.393 . S
C1451 C1450 1.391 . S
H1452 C1460 0.950 . S
H1453 C1465 0.950 . S
H1454 C1462 0.950 . S
H1455 C1464 0.950 . S
H1456 C1466 0.950 1_554 S
H1457 C1468 0.950 . S
H1458 C1470 0.950 . S
H1459 C1471 0.950 . S
C1460 H1452 0.950 . S
C1460 C1461 1.386 . S
C1460 C1462 1.391 . S
C1461 C1460 1.386 . S
C1461 C1465 1.393 . S
C1462 H1454 0.950 . S
C1462 C1460 1.391 . S
C1462 C1463 1.400 . S
C1463 C1462 1.400 . S
C1463 C1464 1.398 . S
C1463 C1469 1.491 . S
C1464 H1455 0.950 . S
C1464 C1463 1.398 . S
C1464 C1465 1.391 . S
C1465 H1453 0.950 . S
C1465 C1461 1.393 . S
C1465 C1464 1.391 . S
C1466 H1456 0.950 1_556 S
C1466 C1467 1.386 . S
C1466 C1468 1.391 . S
C1467 C1466 1.386 . S
C1467 C1471 1.393 . S
C1468 H1457 0.950 . S
C1468 C1466 1.391 . S
C1468 C1469 1.400 . S
C1469 C1463 1.491 . S
C1469 C1468 1.400 . S
C1469 C1470 1.398 . S
C1470 H1458 0.950 . S
C1470 C1469 1.398 . S
C1470 C1471 1.391 . S
C1471 H1459 0.950 . S
C1471 C1467 1.393 . S
C1471 C1470 1.391 . S
H1472 C1480 0.950 . S
H1473 C1485 0.950 . S
H1474 C1482 0.950 . S
H1475 C1484 0.950 . S
H1476 C1486 0.950 . S
H1477 C1488 0.950 . S
H1478 C1490 0.950 . S
H1479 C1491 0.950 1_554 S
C1480 H1472 0.950 . S
C1480 C1481 1.386 . S
C1480 C1482 1.391 . S
C1481 C1480 1.386 . S
C1481 C1485 1.393 . S
C1482 H1474 0.950 . S
C1482 C1480 1.391 . S
C1482 C1483 1.400 . S
C1483 C1482 1.400 . S
C1483 C1484 1.398 . S
C1483 C1489 1.491 . S
C1484 H1475 0.950 . S
C1484 C1483 1.398 . S
C1484 C1485 1.391 . S
C1485 H1473 0.950 . S
C1485 C1481 1.393 . S
C1485 C1484 1.391 . S
C1486 H1476 0.950 . S
C1486 C1487 1.386 . S
C1486 C1488 1.391 . S
C1487 C1486 1.386 . S
C1487 C1491 1.393 . S
C1488 H1477 0.950 . S
C1488 C1486 1.391 . S
C1488 C1489 1.400 . S
C1489 C1483 1.491 . S
C1489 C1488 1.400 . S
C1489 C1490 1.398 . S
C1490 H1478 0.950 . S
C1490 C1489 1.398 . S
C1490 C1491 1.391 . S
C1491 H1479 0.950 1_556 S
C1491 C1487 1.393 . S
C1491 C1490 1.391 . S
H1492 C1500 0.950 . S
H1493 C1505 0.950 . S
H1494 C1502 0.950 . S
H1495 C1504 0.950 . S
H1496 C1506 0.950 . S
H1497 C1508 0.950 . S
H1498 C1510 0.950 . S
H1499 C1511 0.950 1_554 S
C1500 H1492 0.950 . S
C1500 C1501 1.386 . S
C1500 C1502 1.391 . S
C1501 C1500 1.386 . S
C1501 C1505 1.393 . S
C1502 H1494 0.950 . S
C1502 C1500 1.391 . S
C1502 C1503 1.400 . S
C1503 C1502 1.400 . S
C1503 C1504 1.398 . S
C1503 C1509 1.491 . S
C1504 H1495 0.950 . S
C1504 C1503 1.398 . S
C1504 C1505 1.391 . S
C1505 H1493 0.950 . S
C1505 C1501 1.393 . S
C1505 C1504 1.391 . S
C1506 H1496 0.950 . S
C1506 C1507 1.386 . S
C1506 C1508 1.391 . S
C1507 C1506 1.386 . S
C1507 C1511 1.393 . S
C1508 H1497 0.950 . S
C1508 C1506 1.391 . S
C1508 C1509 1.400 . S
C1509 C1503 1.491 . S
C1509 C1508 1.400 . S
C1509 C1510 1.398 . S
C1510 H1498 0.950 . S
C1510 C1509 1.398 . S
C1510 C1511 1.391 . S
C1511 H1499 0.950 1_556 S
C1511 C1507 1.393 . S
C1511 C1510 1.391 . S
H1512 C1520 0.950 . S
H1513 C1525 0.950 . S
H1514 C1522 0.950 . S
H1515 C1524 0.950 . S
H1516 C1526 0.950 . S
H1517 C1528 0.950 . S
H1518 C1530 0.950 . S
H1519 C1531 0.950 . S
C1520 H1512 0.950 . S
C1520 C1521 1.386 . S
C1520 C1522 1.391 . S
C1521 C1520 1.386 . S
C1521 C1525 1.393 . S
C1522 H1514 0.950 . S
C1522 C1520 1.391 . S
C1522 C1523 1.400 . S
C1523 C1522 1.400 . S
C1523 C1524 1.398 . S
C1523 C1529 1.491 . S
C1524 H1515 0.950 . S
C1524 C1523 1.398 . S
C1524 C1525 1.391 . S
C1525 H1513 0.950 . S
C1525 C1521 1.393 . S
C1525 C1524 1.391 . S
C1526 H1516 0.950 . S
C1526 C1527 1.386 . S
C1526 C1528 1.391 . S
C1527 C1526 1.386 . S
C1527 C1531 1.393 . S
C1528 H1517 0.950 . S
C1528 C1526 1.391 . S
C1528 C1529 1.400 . S
C1529 C1523 1.491 . S
C1529 C1528 1.400 . S
C1529 C1530 1.398 . S
C1530 H1518 0.950 . S
C1530 C1529 1.398 . S
C1530 C1531 1.391 . S
C1531 H1519 0.950 . S
C1531 C1527 1.393 . S
C1531 C1530 1.391 . S
H1532 C1540 0.950 . S
H1533 C1545 0.950 . S
H1534 C1542 0.950 . S
H1535 C1544 0.950 . S
H1536 C1546 0.950 . S
H1537 C1548 0.950 . S
H1538 C1550 0.950 . S
H1539 C1551 0.902 1_556 S
C1540 H1532 0.950 . S
C1540 C1541 1.386 . S
C1540 C1542 1.391 . S
C1541 C1540 1.386 . S
C1541 C1545 1.393 . S
C1542 H1534 0.950 . S
C1542 C1540 1.391 . S
C1542 C1543 1.400 . S
C1543 C1542 1.400 . S
C1543 C1544 1.398 . S
C1543 C1549 1.491 . S
C1544 H1535 0.950 . S
C1544 C1543 1.398 . S
C1544 C1545 1.391 . S
C1545 H1533 0.950 . S
C1545 C1541 1.393 . S
C1545 C1544 1.391 . S
C1546 H1536 0.950 . S
C1546 C1547 1.386 . S
C1546 C1548 1.391 . S
C1547 C1546 1.386 . S
C1547 C1551 1.393 . S
C1548 H1537 0.950 . S
C1548 C1546 1.391 . S
C1548 C1549 1.400 . S
C1549 C1543 1.491 . S
C1549 C1548 1.400 . S
C1549 C1550 1.398 . S
C1550 H1538 0.950 . S
C1550 C1549 1.398 . S
C1550 C1551 1.391 . S
C1551 H1539 0.902 1_554 S
C1551 C1547 1.393 . S
C1551 C1550 1.391 . S
H1552 C1560 0.950 . S
H1553 C1565 0.950 . S
H1554 C1562 0.950 . S
H1555 C1564 0.950 . S
H1556 C1566 0.950 . S
H1557 C1568 0.950 . S
H1558 C1570 0.950 . S
H1559 C1571 0.950 . S
C1560 H1552 0.950 . S
C1560 C1561 1.386 . S
C1560 C1562 1.391 . S
C1561 C1560 1.386 . S
C1561 C1565 1.393 . S
C1562 H1554 0.950 . S
C1562 C1560 1.391 . S
C1562 C1563 1.400 . S
C1563 C1562 1.400 . S
C1563 C1564 1.398 . S
C1563 C1569 1.491 . S
C1564 H1555 0.950 . S
C1564 C1563 1.398 . S
C1564 C1565 1.391 . S
C1565 H1553 0.950 . S
C1565 C1561 1.393 . S
C1565 C1564 1.391 . S
C1566 H1556 0.950 . S
C1566 C1567 1.386 . S
C1566 C1568 1.391 . S
C1567 C1566 1.386 . S
C1567 C1571 1.393 . S
C1568 H1557 0.950 . S
C1568 C1566 1.391 . S
C1568 C1569 1.400 . S
C1569 C1563 1.491 . S
C1569 C1568 1.400 . S
C1569 C1570 1.398 . S
C1570 H1558 0.950 . S
C1570 C1569 1.398 . S
C1570 C1571 1.391 . S
C1571 H1559 0.950 . S
C1571 C1567 1.393 . S
C1571 C1570 1.391 . S
H1572 C1580 0.950 . S
H1573 C1585 0.950 . S
H1574 C1582 0.950 . S
H1575 C1584 0.950 . S
H1576 C1586 0.950 . S
H1577 C1588 0.950 . S
H1578 C1590 0.950 . S
H1579 C1591 0.950 . S
C1580 H1572 0.950 . S
C1580 C1581 1.386 . S
C1580 C1582 1.391 1_655 S
C1581 C1580 1.386 . S
C1581 C1585 1.393 . S
C1582 H1574 0.950 . S
C1582 C1580 1.391 1_455 S
C1582 C1583 1.400 . S
C1583 C1582 1.400 . S
C1583 C1584 1.398 . S
C1583 C1589 1.491 . S
C1584 H1575 0.950 . S
C1584 C1583 1.398 . S
C1584 C1585 1.391 1_455 S
C1585 H1573 0.950 . S
C1585 C1581 1.393 . S
C1585 C1584 1.391 1_655 S
C1586 H1576 0.950 . S
C1586 C1587 1.386 . S
C1586 C1588 1.391 . S
C1587 C1586 1.386 . S
C1587 C1591 1.393 . S
C1588 H1577 0.950 . S
C1588 C1586 1.391 . S
C1588 C1589 1.400 . S
C1589 C1583 1.491 . S
C1589 C1588 1.400 . S
C1589 C1590 1.398 . S
C1590 H1578 0.950 . S
C1590 C1589 1.398 . S
C1590 C1591 1.391 . S
C1591 H1579 0.950 . S
C1591 C1587 1.393 . S
C1591 C1590 1.391 . S
H1592 C1600 0.950 . S
H1593 C1605 0.950 . S
H1594 C1602 0.950 . S
H1595 C1604 0.950 . S
H1596 C1606 0.950 . S
H1597 C1608 0.950 . S
H1598 C1610 0.950 . S
H1599 C1611 0.950 . S
C1600 H1592 0.950 . S
C1600 C1601 1.386 . S
C1600 C1602 1.391 . S
C1601 C1600 1.386 . S
C1601 C1605 1.393 . S
C1602 H1594 0.950 . S
C1602 C1600 1.391 . S
C1602 C1603 1.400 . S
C1603 C1602 1.400 . S
C1603 C1604 1.398 . S
C1603 C1609 1.491 . S
C1604 H1595 0.950 . S
C1604 C1603 1.398 . S
C1604 C1605 1.391 . S
C1605 H1593 0.950 . S
C1605 C1601 1.393 . S
C1605 C1604 1.391 . S
C1606 H1596 0.950 . S
C1606 C1607 1.386 . S
C1606 C1608 1.391 . S
C1607 C1606 1.386 . S
C1607 C1611 1.393 . S
C1608 H1597 0.950 . S
C1608 C1606 1.391 . S
C1608 C1609 1.400 . S
C1609 C1603 1.491 . S
C1609 C1608 1.400 . S
C1609 C1610 1.398 . S
C1610 H1598 0.950 . S
C1610 C1609 1.398 . S
C1610 C1611 1.391 . S
C1611 H1599 0.950 . S
C1611 C1607 1.393 . S
C1611 C1610 1.391 . S
H1612 C1620 0.950 . S
H1613 C1625 0.950 . S
H1614 C1622 0.950 . S
H1615 C1624 0.950 . S
H1616 C1626 0.950 . S
H1617 C1628 0.950 . S
H1618 C1630 0.950 . S
H1619 C1631 0.950 . S
C1620 H1612 0.950 . S
C1620 C1621 1.386 . S
C1620 C1622 1.391 1_545 S
C1621 C1620 1.386 . S
C1621 C1625 1.393 . S
C1622 H1614 0.950 . S
C1622 C1620 1.391 1_565 S
C1622 C1623 1.400 . S
C1623 C1622 1.400 . S
C1623 C1624 1.398 . S
C1623 C1629 1.491 . S
C1624 H1615 0.950 . S
C1624 C1623 1.398 . S
C1624 C1625 1.391 1_565 S
C1625 H1613 0.950 . S
C1625 C1621 1.393 . S
C1625 C1624 1.391 1_545 S
C1626 H1616 0.950 . S
C1626 C1627 1.386 . S
C1626 C1628 1.391 . S
C1627 C1626 1.386 . S
C1627 C1631 1.393 . S
C1628 H1617 0.950 . S
C1628 C1626 1.391 . S
C1628 C1629 1.400 . S
C1629 C1623 1.491 . S
C1629 C1628 1.400 . S
C1629 C1630 1.398 . S
C1630 H1618 0.950 . S
C1630 C1629 1.398 . S
C1630 C1631 1.391 . S
C1631 H1619 0.950 . S
C1631 C1627 1.393 . S
C1631 C1630 1.391 . S
H1632 C1640 0.950 . S
H1633 C1645 0.950 . S
H1634 C1642 0.950 . S
H1635 C1644 0.950 . S
H1636 C1646 0.950 . S
H1637 C1648 0.950 . S
H1638 C1650 0.950 . S
H1639 C1651 0.950 . S
C1640 H1632 0.950 . S
C1640 C1641 1.386 . S
C1640 C1642 1.391 . S
C1641 C1640 1.386 . S
C1641 C1645 1.393 . S
C1642 H1634 0.950 . S
C1642 C1640 1.391 . S
C1642 C1643 1.400 . S
C1643 C1642 1.400 . S
C1643 C1644 1.398 . S
C1643 C1649 1.491 . S
C1644 H1635 0.950 . S
C1644 C1643 1.398 . S
C1644 C1645 1.391 . S
C1645 H1633 0.950 . S
C1645 C1641 1.393 . S
C1645 C1644 1.391 . S
C1646 H1636 0.950 . S
C1646 C1647 1.386 . S
C1646 C1648 1.391 . S
C1647 C1646 1.386 . S
C1647 C1651 1.393 . S
C1648 H1637 0.950 . S
C1648 C1646 1.391 . S
C1648 C1649 1.400 . S
C1649 C1643 1.491 . S
C1649 C1648 1.400 . S
C1649 C1650 1.398 . S
C1650 H1638 0.950 . S
C1650 C1649 1.398 . S
C1650 C1651 1.391 . S
C1651 H1639 0.950 . S
C1651 C1647 1.393 . S
C1651 C1650 1.391 . S
H1652 C1660 0.950 . S
H1653 C1665 0.950 . S
H1654 C1662 0.950 . S
H1655 C1664 0.950 . S
H1656 C1666 0.950 . S
H1657 C1668 0.950 . S
H1658 C1670 0.950 . S
H1659 C1671 0.950 . S
C1660 H1652 0.950 . S
C1660 C1661 1.386 . S
C1660 C1662 1.391 . S
C1661 C1660 1.386 . S
C1661 C1665 1.393 . S
C1662 H1654 0.950 . S
C1662 C1660 1.391 . S
C1662 C1663 1.400 . S
C1663 C1662 1.400 . S
C1663 C1664 1.398 . S
C1663 C1669 1.491 . S
C1664 H1655 0.950 . S
C1664 C1663 1.398 . S
C1664 C1665 1.391 . S
C1665 H1653 0.950 . S
C1665 C1661 1.393 . S
C1665 C1664 1.391 . S
C1666 H1656 0.950 . S
C1666 C1667 1.386 . S
C1666 C1668 1.391 . S
C1667 C1666 1.386 . S
C1667 C1671 1.393 . S
C1668 H1657 0.950 . S
C1668 C1666 1.391 . S
C1668 C1669 1.400 . S
C1669 C1663 1.491 . S
C1669 C1668 1.400 . S
C1669 C1670 1.398 . S
C1670 H1658 0.950 . S
C1670 C1669 1.398 . S
C1670 C1671 1.391 . S
C1671 H1659 0.950 . S
C1671 C1667 1.393 . S
C1671 C1670 1.391 . S
H1672 C1680 0.950 . S
H1673 C1685 0.950 . S
H1674 C1682 0.950 . S
H1675 C1684 0.950 . S
H1676 C1686 0.950 . S
H1677 C1688 0.950 . S
H1678 C1690 0.950 . S
H1679 C1691 0.950 . S
C1680 H1672 0.950 . S
C1680 C1681 1.386 . S
C1680 C1682 1.391 . S
C1681 C1680 1.386 . S
C1681 C1685 1.393 . S
C1682 H1674 0.950 . S
C1682 C1680 1.391 . S
C1682 C1683 1.400 . S
C1683 C1682 1.400 . S
C1683 C1684 1.398 . S
C1683 C1689 1.491 . S
C1684 H1675 0.950 . S
C1684 C1683 1.398 . S
C1684 C1685 1.391 . S
C1685 H1673 0.950 . S
C1685 C1681 1.393 . S
C1685 C1684 1.391 . S
C1686 H1676 0.950 . S
C1686 C1687 1.386 . S
C1686 C1688 1.391 . S
C1687 C1686 1.386 . S
C1687 C1691 1.393 . S
C1688 H1677 0.950 . S
C1688 C1686 1.391 . S
C1688 C1689 1.400 . S
C1689 C1683 1.491 . S
C1689 C1688 1.400 . S
C1689 C1690 1.398 . S
C1690 H1678 0.950 . S
C1690 C1689 1.398 . S
C1690 C1691 1.391 . S
C1691 H1679 0.950 . S
C1691 C1687 1.393 . S
C1691 C1690 1.391 . S
H1692 C1700 0.950 . S
H1693 C1705 0.950 . S
H1694 C1702 0.950 . S
H1695 C1704 0.950 . S
H1696 C1706 0.950 . S
H1697 C1708 0.950 . S
H1698 C1710 0.950 . S
H1699 C1711 0.950 . S
C1700 H1692 0.950 . S
C1700 C1701 1.386 . S
C1700 C1702 1.391 . S
C1701 C1700 1.386 . S
C1701 C1705 1.393 . S
C1702 H1694 0.950 . S
C1702 C1700 1.391 . S
C1702 C1703 1.400 . S
C1703 C1702 1.400 . S
C1703 C1704 1.398 . S
C1703 C1709 1.491 . S
C1704 H1695 0.950 . S
C1704 C1703 1.398 . S
C1704 C1705 1.391 . S
C1705 H1693 0.950 . S
C1705 C1701 1.393 . S
C1705 C1704 1.391 . S
C1706 H1696 0.950 . S
C1706 C1707 1.386 . S
C1706 C1708 1.391 . S
C1707 C1706 1.386 . S
C1707 C1711 1.393 . S
C1708 H1697 0.950 . S
C1708 C1706 1.391 . S
C1708 C1709 1.400 . S
C1709 C1703 1.491 . S
C1709 C1708 1.400 . S
C1709 C1710 1.398 . S
C1710 H1698 0.950 . S
C1710 C1709 1.398 . S
C1710 C1711 1.391 . S
C1711 H1699 0.950 . S
C1711 C1707 1.393 . S
C1711 C1710 1.391 . S
H1712 C1720 0.950 . S
H1713 C1725 0.950 . S
H1714 C1722 0.950 . S
H1715 C1724 0.950 . S
H1716 C1726 0.950 . S
H1717 C1728 0.950 . S
H1718 C1730 0.950 . S
H1719 C1731 0.950 . S
C1720 H1712 0.950 . S
C1720 C1721 1.386 . S
C1720 C1722 1.391 . S
C1721 C1720 1.386 . S
C1721 C1725 1.393 . S
C1722 H1714 0.950 . S
C1722 C1720 1.391 . S
C1722 C1723 1.400 . S
C1723 C1722 1.400 . S
C1723 C1724 1.398 . S
C1723 C1729 1.491 . S
C1724 H1715 0.950 . S
C1724 C1723 1.398 . S
C1724 C1725 1.391 . S
C1725 H1713 0.950 . S
C1725 C1721 1.393 . S
C1725 C1724 1.391 . S
C1726 H1716 0.950 . S
C1726 C1727 1.386 . S
C1726 C1728 1.391 . S
C1727 C1726 1.386 . S
C1727 C1731 1.393 . S
C1728 H1717 0.950 . S
C1728 C1726 1.391 . S
C1728 C1729 1.400 . S
C1729 C1723 1.491 . S
C1729 C1728 1.400 . S
C1729 C1730 1.398 . S
C1730 H1718 0.950 . S
C1730 C1729 1.398 . S
C1730 C1731 1.391 . S
C1731 H1719 0.950 . S
C1731 C1727 1.393 . S
C1731 C1730 1.391 . S
H1732 C1740 0.950 . S
H1733 C1745 0.950 . S
H1734 C1742 0.950 . S
H1735 C1744 0.950 . S
H1736 C1746 0.950 . S
H1737 C1748 0.950 . S
H1738 C1750 0.950 . S
H1739 C1751 0.950 . S
C1740 H1732 0.950 . S
C1740 C1741 1.386 . S
C1740 C1742 1.391 . S
C1741 C1740 1.386 . S
C1741 C1745 1.393 . S
C1742 H1734 0.950 . S
C1742 C1740 1.391 . S
C1742 C1743 1.400 . S
C1743 C1742 1.400 . S
C1743 C1744 1.398 . S
C1743 C1749 1.491 . S
C1744 H1735 0.950 . S
C1744 C1743 1.398 . S
C1744 C1745 1.391 . S
C1745 H1733 0.950 . S
C1745 C1741 1.393 . S
C1745 C1744 1.391 . S
C1746 H1736 0.950 . S
C1746 C1747 1.386 . S
C1746 C1748 1.391 . S
C1747 C1746 1.386 . S
C1747 C1751 1.393 . S
C1748 H1737 0.950 . S
C1748 C1746 1.391 . S
C1748 C1749 1.400 . S
C1749 C1743 1.491 . S
C1749 C1748 1.400 . S
C1749 C1750 1.398 . S
C1750 H1738 0.950 . S
C1750 C1749 1.398 . S
C1750 C1751 1.391 . S
C1751 H1739 0.950 . S
C1751 C1747 1.393 . S
C1751 C1750 1.391 . S
H1752 C1760 0.950 . S
H1753 C1765 0.950 . S
H1754 C1762 0.950 . S
H1755 C1764 0.950 . S
H1756 C1766 0.950 . S
H1757 C1768 0.950 . S
H1758 C1770 0.950 . S
H1759 C1771 0.950 . S
C1760 H1752 0.950 . S
C1760 C1761 1.386 . S
C1760 C1762 1.391 1_545 S
C1761 C1760 1.386 . S
C1761 C1765 1.393 . S
C1762 H1754 0.950 . S
C1762 C1760 1.391 1_565 S
C1762 C1763 1.400 . S
C1763 C1762 1.400 . S
C1763 C1764 1.398 . S
C1763 C1769 1.491 . S
C1764 H1755 0.950 . S
C1764 C1763 1.398 . S
C1764 C1765 1.391 1_565 S
C1765 H1753 0.950 . S
C1765 C1761 1.393 . S
C1765 C1764 1.391 1_545 S
C1766 H1756 0.950 . S
C1766 C1767 1.386 . S
C1766 C1768 1.391 . S
C1767 C1766 1.386 . S
C1767 C1771 1.393 . S
C1768 H1757 0.950 . S
C1768 C1766 1.391 . S
C1768 C1769 1.400 . S
C1769 C1763 1.491 . S
C1769 C1768 1.400 . S
C1769 C1770 1.398 . S
C1770 H1758 0.950 . S
C1770 C1769 1.398 . S
C1770 C1771 1.391 . S
C1771 H1759 0.950 . S
C1771 C1767 1.393 . S
C1771 C1770 1.391 . S
H1772 C1780 0.950 . S
H1773 C1785 0.950 . S
H1774 C1782 0.950 . S
H1775 C1784 0.950 . S
H1776 C1786 0.950 . S
H1777 C1788 0.950 . S
H1778 C1790 0.950 . S
H1779 C1791 0.950 . S
C1780 H1772 0.950 . S
C1780 C1781 1.386 . S
C1780 C1782 1.391 1_655 S
C1781 C1780 1.386 . S
C1781 C1785 1.393 . S
C1782 H1774 0.950 . S
C1782 C1780 1.391 1_455 S
C1782 C1783 1.400 . S
C1783 C1782 1.400 . S
C1783 C1784 1.398 . S
C1783 C1789 1.491 . S
C1784 H1775 0.950 . S
C1784 C1783 1.398 . S
C1784 C1785 1.391 1_455 S
C1785 H1773 0.950 . S
C1785 C1781 1.393 . S
C1785 C1784 1.391 1_655 S
C1786 H1776 0.950 . S
C1786 C1787 1.386 . S
C1786 C1788 1.391 . S
C1787 C1786 1.386 . S
C1787 C1791 1.393 . S
C1788 H1777 0.950 . S
C1788 C1786 1.391 . S
C1788 C1789 1.400 . S
C1789 C1783 1.491 . S
C1789 C1788 1.400 . S
C1789 C1790 1.398 . S
C1790 H1778 0.950 . S
C1790 C1789 1.398 . S
C1790 C1791 1.391 . S
C1791 H1779 0.950 . S
C1791 C1787 1.393 . S
C1791 C1790 1.391 . S
H1792 C1800 0.950 . S
H1793 C1805 0.950 . S
H1794 C1802 0.950 . S
H1795 C1804 0.950 . S
H1796 C1806 0.950 . S
H1797 C1808 0.950 . S
H1798 C1810 0.950 . S
H1799 C1811 0.950 . S
C1800 H1792 0.950 . S
C1800 C1801 1.386 . S
C1800 C1802 1.391 . S
C1801 C1800 1.386 . S
C1801 C1805 1.393 . S
C1802 H1794 0.950 . S
C1802 C1800 1.391 . S
C1802 C1803 1.400 . S
C1803 C1802 1.400 . S
C1803 C1804 1.398 . S
C1803 C1809 1.491 . S
C1804 H1795 0.950 . S
C1804 C1803 1.398 . S
C1804 C1805 1.391 . S
C1805 H1793 0.950 . S
C1805 C1801 1.393 . S
C1805 C1804 1.391 . S
C1806 H1796 0.950 . S
C1806 C1807 1.386 . S
C1806 C1808 1.391 . S
C1807 C1806 1.386 . S
C1807 C1811 1.393 . S
C1808 H1797 0.950 . S
C1808 C1806 1.391 . S
C1808 C1809 1.400 . S
C1809 C1803 1.491 . S
C1809 C1808 1.400 . S
C1809 C1810 1.398 . S
C1810 H1798 0.950 . S
C1810 C1809 1.398 . S
C1810 C1811 1.391 . S
C1811 H1799 0.950 . S
C1811 C1807 1.393 . S
C1811 C1810 1.391 . S
H1812 C1820 0.950 . S
H1813 C1825 0.950 . S
H1814 C1822 0.950 . S
H1815 C1824 0.950 . S
H1816 C1826 0.950 . S
H1817 C1828 0.950 . S
H1818 C1830 0.950 . S
H1819 C1831 0.950 . S
C1820 H1812 0.950 . S
C1820 C1821 1.386 . S
C1820 C1822 1.391 . S
C1821 C1820 1.386 . S
C1821 C1825 1.393 . S
C1822 H1814 0.950 . S
C1822 C1820 1.391 . S
C1822 C1823 1.400 . S
C1823 C1822 1.400 . S
C1823 C1824 1.398 . S
C1823 C1829 1.491 . S
C1824 H1815 0.950 . S
C1824 C1823 1.398 . S
C1824 C1825 1.391 . S
C1825 H1813 0.950 . S
C1825 C1821 1.393 . S
C1825 C1824 1.391 . S
C1826 H1816 0.950 . S
C1826 C1827 1.386 . S
C1826 C1828 1.391 . S
C1827 C1826 1.386 . S
C1827 C1831 1.393 . S
C1828 H1817 0.950 . S
C1828 C1826 1.391 . S
C1828 C1829 1.400 . S
C1829 C1823 1.491 . S
C1829 C1828 1.400 . S
C1829 C1830 1.398 . S
C1830 H1818 0.950 . S
C1830 C1829 1.398 . S
C1830 C1831 1.391 . S
C1831 H1819 0.950 . S
C1831 C1827 1.393 . S
C1831 C1830 1.391 . S
H1832 C1840 0.950 . S
H1833 C1845 0.950 . S
H1834 C1842 0.950 . S
H1835 C1844 0.950 . S
H1836 C1846 0.950 . S
H1837 C1848 0.950 . S
H1838 C1850 0.950 . S
H1839 C1851 0.950 . S
C1840 H1832 0.950 . S
C1840 C1841 1.386 . S
C1840 C1842 1.391 . S
C1841 C1840 1.386 . S
C1841 C1845 1.393 . S
C1842 H1834 0.950 . S
C1842 C1840 1.391 . S
C1842 C1843 1.400 . S
C1843 C1842 1.400 . S
C1843 C1844 1.398 . S
C1843 C1849 1.491 . S
C1844 H1835 0.950 . S
C1844 C1843 1.398 . S
C1844 C1845 1.391 . S
C1845 H1833 0.950 . S
C1845 C1841 1.393 . S
C1845 C1844 1.391 . S
C1846 H1836 0.950 . S
C1846 C1847 1.386 . S
C1846 C1848 1.391 . S
C1847 C1846 1.386 . S
C1847 C1851 1.393 . S
C1848 H1837 0.950 . S
C1848 C1846 1.391 . S
C1848 C1849 1.400 . S
C1849 C1843 1.491 . S
C1849 C1848 1.400 . S
C1849 C1850 1.398 . S
C1850 H1838 0.950 . S
C1850 C1849 1.398 . S
C1850 C1851 1.391 . S
C1851 H1839 0.950 . S
C1851 C1847 1.393 . S
C1851 C1850 1.391 . S
H1852 C1860 0.950 . S
H1853 C1865 0.950 . S
H1854 C1862 0.950 . S
H1855 C1864 0.950 . S
H1856 C1866 0.950 . S
H1857 C1868 0.950 . S
H1858 C1870 0.950 . S
H1859 C1871 0.950 . S
C1860 H1852 0.950 . S
C1860 C1861 1.386 . S
C1860 C1862 1.391 . S
C1861 C1860 1.386 . S
C1861 C1865 1.393 . S
C1862 H1854 0.950 . S
C1862 C1860 1.391 . S
C1862 C1863 1.400 . S
C1863 C1862 1.400 . S
C1863 C1864 1.398 . S
C1863 C1869 1.491 . S
C1864 H1855 0.950 . S
C1864 C1863 1.398 . S
C1864 C1865 1.391 . S
C1865 H1853 0.950 . S
C1865 C1861 1.393 . S
C1865 C1864 1.391 . S
C1866 H1856 0.950 . S
C1866 C1867 1.386 . S
C1866 C1868 1.391 . S
C1867 C1866 1.386 . S
C1867 C1871 1.393 . S
C1868 H1857 0.950 . S
C1868 C1866 1.391 . S
C1868 C1869 1.400 . S
C1869 C1863 1.491 . S
C1869 C1868 1.400 . S
C1869 C1870 1.398 . S
C1870 H1858 0.950 . S
C1870 C1869 1.398 . S
C1870 C1871 1.391 . S
C1871 H1859 0.950 . S
C1871 C1867 1.393 . S
C1871 C1870 1.391 . S
H1872 C1880 0.950 . S
H1873 C1885 0.950 . S
H1874 C1882 0.950 . S
H1875 C1884 0.950 . S
H1876 C1886 0.950 . S
H1877 C1888 0.950 . S
H1878 C1890 0.950 . S
H1879 C1891 0.950 . S
C1880 H1872 0.950 . S
C1880 C1881 1.386 . S
C1880 C1882 1.391 1_565 S
C1881 C1880 1.386 . S
C1881 C1885 1.393 . S
C1882 H1874 0.950 . S
C1882 C1880 1.391 1_545 S
C1882 C1883 1.400 . S
C1883 C1882 1.400 . S
C1883 C1884 1.398 . S
C1883 C1889 1.491 . S
C1884 H1875 0.950 . S
C1884 C1883 1.398 . S
C1884 C1885 1.391 1_545 S
C1885 H1873 0.950 . S
C1885 C1881 1.393 . S
C1885 C1884 1.391 1_565 S
C1886 H1876 0.950 . S
C1886 C1887 1.386 . S
C1886 C1888 1.391 . S
C1887 C1886 1.386 . S
C1887 C1891 1.393 . S
C1888 H1877 0.950 . S
C1888 C1886 1.391 . S
C1888 C1889 1.400 . S
C1889 C1883 1.491 . S
C1889 C1888 1.400 . S
C1889 C1890 1.398 . S
C1890 H1878 0.950 . S
C1890 C1889 1.398 . S
C1890 C1891 1.391 . S
C1891 H1879 0.950 . S
C1891 C1887 1.393 . S
C1891 C1890 1.391 . S
H1892 C1900 0.950 . S
H1893 C1905 0.950 . S
H1894 C1902 0.950 . S
H1895 C1904 0.950 . S
H1896 C1906 0.950 . S
H1897 C1908 0.950 . S
H1898 C1910 0.950 . S
H1899 C1911 0.950 . S
C1900 H1892 0.950 . S
C1900 C1901 1.386 . S
C1900 C1902 1.391 1_455 S
C1901 C1900 1.386 . S
C1901 C1905 1.393 . S
C1902 H1894 0.950 . S
C1902 C1900 1.391 1_655 S
C1902 C1903 1.400 . S
C1903 C1902 1.400 . S
C1903 C1904 1.398 . S
C1903 C1909 1.491 . S
C1904 H1895 0.950 . S
C1904 C1903 1.398 . S
C1904 C1905 1.391 1_655 S
C1905 H1893 0.950 . S
C1905 C1901 1.393 . S
C1905 C1904 1.391 1_455 S
C1906 H1896 0.950 . S
C1906 C1907 1.386 . S
C1906 C1908 1.391 . S
C1907 C1906 1.386 . S
C1907 C1911 1.393 . S
C1908 H1897 0.950 . S
C1908 C1906 1.391 . S
C1908 C1909 1.400 . S
C1909 C1903 1.491 . S
C1909 C1908 1.400 . S
C1909 C1910 1.398 . S
C1910 H1898 0.950 . S
C1910 C1909 1.398 . S
C1910 C1911 1.391 . S
C1911 H1899 0.950 . S
C1911 C1907 1.393 . S
C1911 C1910 1.391 . S
H1912 C1920 0.950 . S
H1913 C1925 0.950 . S
H1914 C1922 0.950 . S
H1915 C1924 0.950 . S
H1916 C1926 0.950 . S
H1917 C1928 0.950 . S
H1918 C1930 0.950 . S
H1919 C1931 0.950 . S
C1920 H1912 0.950 . S
C1920 C1921 1.386 . S
C1920 C1922 1.391 . S
C1921 C1920 1.386 . S
C1921 C1925 1.393 . S
C1922 H1914 0.950 . S
C1922 C1920 1.391 . S
C1922 C1923 1.400 . S
C1923 C1922 1.400 . S
C1923 C1924 1.398 . S
C1923 C1929 1.491 . S
C1924 H1915 0.950 . S
C1924 C1923 1.398 . S
C1924 C1925 1.391 . S
C1925 H1913 0.950 . S
C1925 C1921 1.393 . S
C1925 C1924 1.391 . S
C1926 H1916 0.950 . S
C1926 C1927 1.386 . S
C1926 C1928 1.391 . S
C1927 C1926 1.386 . S
C1927 C1931 1.393 . S
C1928 H1917 0.950 . S
C1928 C1926 1.391 . S
C1928 C1929 1.400 . S
C1929 C1923 1.491 . S
C1929 C1928 1.400 . S
C1929 C1930 1.398 . S
C1930 H1918 0.950 . S
C1930 C1929 1.398 . S
C1930 C1931 1.391 . S
C1931 H1919 0.950 . S
C1931 C1927 1.393 . S
C1931 C1930 1.391 . S
H1932 C1940 0.950 . S
H1933 C1945 0.950 . S
H1934 C1942 0.950 . S
H1935 C1944 0.950 . S
H1936 C1946 0.950 . S
H1937 C1948 0.950 . S
H1938 C1950 0.950 . S
H1939 C1951 0.950 . S
C1940 H1932 0.950 . S
C1940 C1941 1.386 . S
C1940 C1942 1.391 1_455 S
C1941 C1940 1.386 . S
C1941 C1945 1.393 . S
C1942 H1934 0.950 . S
C1942 C1940 1.391 1_655 S
C1942 C1943 1.400 . S
C1943 C1942 1.400 . S
C1943 C1944 1.398 . S
C1943 C1949 1.491 . S
C1944 H1935 0.950 . S
C1944 C1943 1.398 . S
C1944 C1945 1.391 1_655 S
C1945 H1933 0.950 . S
C1945 C1941 1.393 . S
C1945 C1944 1.391 1_455 S
C1946 H1936 0.950 . S
C1946 C1947 1.386 . S
C1946 C1948 1.391 . S
C1947 C1946 1.386 . S
C1947 C1951 1.393 . S
C1948 H1937 0.950 . S
C1948 C1946 1.391 . S
C1948 C1949 1.400 . S
C1949 C1943 1.491 . S
C1949 C1948 1.400 . S
C1949 C1950 1.398 . S
C1950 H1938 0.950 . S
C1950 C1949 1.398 . S
C1950 C1951 1.391 . S
C1951 H1939 0.950 . S
C1951 C1947 1.393 . S
C1951 C1950 1.391 . S
H1952 C1960 0.950 . S
H1953 C1965 0.950 . S
H1954 C1962 0.950 . S
H1955 C1964 0.950 . S
H1956 C1966 0.950 . S
H1957 C1968 0.950 . S
H1958 C1970 0.950 . S
H1959 C1971 0.950 . S
C1960 H1952 0.950 . S
C1960 C1961 1.386 . S
C1960 C1962 1.391 . S
C1961 C1960 1.386 . S
C1961 C1965 1.393 . S
C1962 H1954 0.950 . S
C1962 C1960 1.391 . S
C1962 C1963 1.400 . S
C1963 C1962 1.400 . S
C1963 C1964 1.398 . S
C1963 C1969 1.491 . S
C1964 H1955 0.950 . S
C1964 C1963 1.398 . S
C1964 C1965 1.391 . S
C1965 H1953 0.950 . S
C1965 C1961 1.393 . S
C1965 C1964 1.391 . S
C1966 H1956 0.950 . S
C1966 C1967 1.386 . S
C1966 C1968 1.391 . S
C1967 C1966 1.386 . S
C1967 C1971 1.393 . S
C1968 H1957 0.950 . S
C1968 C1966 1.391 . S
C1968 C1969 1.400 . S
C1969 C1963 1.491 . S
C1969 C1968 1.400 . S
C1969 C1970 1.398 . S
C1970 H1958 0.950 . S
C1970 C1969 1.398 . S
C1970 C1971 1.391 . S
C1971 H1959 0.950 . S
C1971 C1967 1.393 . S
C1971 C1970 1.391 . S
H1972 C1980 0.950 . S
H1973 C1985 0.950 . S
H1974 C1982 0.950 . S
H1975 C1984 0.950 . S
H1976 C1986 0.950 . S
H1977 C1988 0.950 . S
H1978 C1990 0.950 . S
H1979 C1991 0.950 . S
C1980 H1972 0.950 . S
C1980 C1981 1.386 . S
C1980 C1982 1.391 1_565 S
C1981 C1980 1.386 . S
C1981 C1985 1.393 . S
C1982 H1974 0.950 . S
C1982 C1980 1.391 1_545 S
C1982 C1983 1.400 . S
C1983 C1982 1.400 . S
C1983 C1984 1.398 . S
C1983 C1989 1.491 . S
C1984 H1975 0.950 . S
C1984 C1983 1.398 . S
C1984 C1985 1.391 1_545 S
C1985 H1973 0.950 . S
C1985 C1981 1.393 . S
C1985 C1984 1.391 1_565 S
C1986 H1976 0.950 . S
C1986 C1987 1.386 . S
C1986 C1988 1.391 . S
C1987 C1986 1.386 . S
C1987 C1991 1.393 . S
C1988 H1977 0.950 . S
C1988 C1986 1.391 . S
C1988 C1989 1.400 . S
C1989 C1983 1.491 . S
C1989 C1988 1.400 . S
C1989 C1990 1.398 . S
C1990 H1978 0.950 . S
C1990 C1989 1.398 . S
C1990 C1991 1.391 . S
C1991 H1979 0.950 . S
C1991 C1987 1.393 . S
C1991 C1990 1.391 . S
H1992 C2000 0.950 . S
H1993 C2005 0.950 . S
H1994 C2002 0.950 . S
H1995 C2004 0.950 . S
H1996 C2006 0.950 . S
H1997 C2008 0.950 . S
H1998 C2010 0.950 . S
H1999 C2011 0.950 . S
C2000 H1992 0.950 . S
C2000 C2001 1.386 . S
C2000 C2002 1.391 . S
C2001 C2000 1.386 . S
C2001 C2005 1.393 . S
C2002 H1994 0.950 . S
C2002 C2000 1.391 . S
C2002 C2003 1.400 . S
C2003 C2002 1.400 . S
C2003 C2004 1.398 . S
C2003 C2009 1.491 . S
C2004 H1995 0.950 . S
C2004 C2003 1.398 . S
C2004 C2005 1.391 . S
C2005 H1993 0.950 . S
C2005 C2001 1.393 . S
C2005 C2004 1.391 . S
C2006 H1996 0.950 . S
C2006 C2007 1.386 . S
C2006 C2008 1.391 . S
C2007 C2006 1.386 . S
C2007 C2011 1.393 . S
C2008 H1997 0.950 . S
C2008 C2006 1.391 . S
C2008 C2009 1.400 . S
C2009 C2003 1.491 . S
C2009 C2008 1.400 . S
C2009 C2010 1.398 . S
C2010 H1998 0.950 . S
C2010 C2009 1.398 . S
C2010 C2011 1.391 . S
C2011 H1999 0.950 . S
C2011 C2007 1.393 . S
C2011 C2010 1.391 . S
H2012 C2020 0.950 . S
H2013 C2025 0.950 . S
H2014 C2022 0.950 . S
H2015 C2024 0.950 . S
H2016 C2026 0.950 . S
H2017 C2028 0.950 . S
H2018 C2030 0.950 . S
H2019 C2031 0.950 . S
C2020 H2012 0.950 . S
C2020 C2021 1.386 . S
C2020 C2022 1.391 . S
C2021 C2020 1.386 . S
C2021 C2025 1.393 . S
C2022 H2014 0.950 . S
C2022 C2020 1.391 . S
C2022 C2023 1.400 . S
C2023 C2022 1.400 . S
C2023 C2024 1.398 . S
C2023 C2029 1.491 . S
C2024 H2015 0.950 . S
C2024 C2023 1.398 . S
C2024 C2025 1.391 . S
C2025 H2013 0.950 . S
C2025 C2021 1.393 . S
C2025 C2024 1.391 . S
C2026 H2016 0.950 . S
C2026 C2027 1.386 . S
C2026 C2028 1.391 . S
C2027 C2026 1.386 . S
C2027 C2031 1.393 . S
C2028 H2017 0.950 . S
C2028 C2026 1.391 . S
C2028 C2029 1.400 . S
C2029 C2023 1.491 . S
C2029 C2028 1.400 . S
C2029 C2030 1.398 . S
C2030 H2018 0.950 . S
C2030 C2029 1.398 . S
C2030 C2031 1.391 . S
C2031 H2019 0.950 . S
C2031 C2027 1.393 . S
C2031 C2030 1.391 . S
H2032 C2040 0.950 . S
H2033 C2045 0.950 . S
H2034 C2042 0.950 . S
H2035 C2044 0.950 . S
H2036 C2046 0.950 . S
H2037 C2048 0.950 . S
H2038 C2050 0.950 . S
H2039 C2051 0.950 . S
C2040 H2032 0.950 . S
C2040 C2041 1.386 . S
C2040 C2042 1.391 . S
C2041 C2040 1.386 . S
C2041 C2045 1.393 . S
C2042 H2034 0.950 . S
C2042 C2040 1.391 . S
C2042 C2043 1.400 . S
C2043 C2042 1.400 . S
C2043 C2044 1.398 . S
C2043 C2049 1.491 . S
C2044 H2035 0.950 . S
C2044 C2043 1.398 . S
C2044 C2045 1.391 . S
C2045 H2033 0.950 . S
C2045 C2041 1.393 . S
C2045 C2044 1.391 . S
C2046 H2036 0.950 . S
C2046 C2047 1.386 . S
C2046 C2048 1.391 . S
C2047 C2046 1.386 . S
C2047 C2051 1.393 . S
C2048 H2037 0.950 . S
C2048 C2046 1.391 . S
C2048 C2049 1.400 . S
C2049 C2043 1.491 . S
C2049 C2048 1.400 . S
C2049 C2050 1.398 . S
C2050 H2038 0.950 . S
C2050 C2049 1.398 . S
C2050 C2051 1.391 . S
C2051 H2039 0.950 . S
C2051 C2047 1.393 . S
C2051 C2050 1.391 . S
H2052 C2060 0.950 . S
H2053 C2065 0.950 . S
H2054 C2062 0.950 . S
H2055 C2064 0.950 . S
H2056 C2066 0.950 1_545 S
H2057 C2068 0.950 . S
H2058 C2070 0.950 . S
H2059 C2071 0.950 . S
C2060 H2052 0.950 . S
C2060 C2061 1.386 . S
C2060 C2062 1.391 . S
C2061 C2060 1.386 . S
C2061 C2065 1.393 . S
C2062 H2054 0.950 . S
C2062 C2060 1.391 . S
C2062 C2063 1.400 . S
C2063 C2062 1.400 . S
C2063 C2064 1.398 . S
C2063 C2069 1.491 . S
C2064 H2055 0.950 . S
C2064 C2063 1.398 . S
C2064 C2065 1.391 . S
C2065 H2053 0.950 . S
C2065 C2061 1.393 . S
C2065 C2064 1.391 . S
C2066 H2056 0.950 1_565 S
C2066 C2067 1.386 . S
C2066 C2068 1.391 . S
C2067 C2066 1.386 . S
C2067 C2071 1.393 . S
C2068 H2057 0.950 . S
C2068 C2066 1.391 . S
C2068 C2069 1.400 . S
C2069 C2063 1.491 . S
C2069 C2068 1.400 . S
C2069 C2070 1.398 . S
C2070 H2058 0.950 . S
C2070 C2069 1.398 . S
C2070 C2071 1.391 . S
C2071 H2059 0.950 . S
C2071 C2067 1.393 . S
C2071 C2070 1.391 . S
H2072 C2080 0.950 . S
H2073 C2085 0.950 . S
H2074 C2082 0.950 . S
H2075 C2084 0.950 . S
H2076 C2086 0.952 . S
H2077 C2088 0.950 . S
H2078 C2090 0.950 . S
H2079 C2091 0.950 . S
C2080 H2072 0.950 . S
C2080 C2081 1.386 . S
C2080 C2082 1.391 . S
C2081 C2080 1.386 . S
C2081 C2085 1.393 . S
C2082 H2074 0.950 . S
C2082 C2080 1.391 . S
C2082 C2083 1.400 . S
C2083 C2082 1.400 . S
C2083 C2084 1.398 . S
C2083 C2089 1.491 . S
C2084 H2075 0.950 . S
C2084 C2083 1.398 . S
C2084 C2085 1.391 . S
C2085 H2073 0.950 . S
C2085 C2081 1.393 . S
C2085 C2084 1.391 . S
C2086 H2076 0.952 . S
C2086 C2087 1.386 . S
C2086 C2088 1.391 . S
C2087 C2086 1.386 . S
C2087 C2091 1.393 . S
C2088 H2077 0.950 . S
C2088 C2086 1.391 . S
C2088 C2089 1.400 . S
C2089 C2083 1.491 . S
C2089 C2088 1.400 . S
C2089 C2090 1.398 . S
C2090 H2078 0.950 . S
C2090 C2089 1.398 . S
C2090 C2091 1.391 . S
C2091 H2079 0.950 . S
C2091 C2087 1.393 . S
C2091 C2090 1.391 . S
H2092 C2100 0.950 . S
H2093 C2105 0.950 . S
H2094 C2102 0.950 . S
H2095 C2104 0.950 . S
H2096 C2106 0.950 . S
H2097 C2108 0.950 . S
H2098 C2110 0.950 . S
H2099 C2111 0.950 . S
C2100 H2092 0.950 . S
C2100 C2101 1.386 . S
C2100 C2102 1.391 . S
C2101 C2100 1.386 . S
C2101 C2105 1.393 . S
C2102 H2094 0.950 . S
C2102 C2100 1.391 . S
C2102 C2103 1.400 . S
C2103 C2102 1.400 . S
C2103 C2104 1.398 . S
C2103 C2109 1.491 . S
C2104 H2095 0.950 . S
C2104 C2103 1.398 . S
C2104 C2105 1.391 . S
C2105 H2093 0.950 . S
C2105 C2101 1.393 . S
C2105 C2104 1.391 . S
C2106 H2096 0.950 . S
C2106 C2107 1.386 . S
C2106 C2108 1.391 . S
C2107 C2106 1.386 . S
C2107 C2111 1.393 . S
C2108 H2097 0.950 . S
C2108 C2106 1.391 . S
C2108 C2109 1.400 . S
C2109 C2103 1.491 . S
C2109 C2108 1.400 . S
C2109 C2110 1.398 . S
C2110 H2098 0.950 . S
C2110 C2109 1.398 . S
C2110 C2111 1.391 . S
C2111 H2099 0.950 . S
C2111 C2107 1.393 . S
C2111 C2110 1.391 . S
H2112 C2120 0.950 . S
H2113 C2125 0.950 . S
H2114 C2122 0.950 . S
H2115 C2124 0.950 . S
H2116 C2126 0.950 1_455 S
H2117 C2128 0.950 . S
H2118 C2130 0.950 . S
H2119 C2131 0.950 . S
C2120 H2112 0.950 . S
C2120 C2121 1.386 . S
C2120 C2122 1.391 . S
C2121 C2120 1.386 . S
C2121 C2125 1.393 . S
C2122 H2114 0.950 . S
C2122 C2120 1.391 . S
C2122 C2123 1.400 . S
C2123 C2122 1.400 . S
C2123 C2124 1.398 . S
C2123 C2129 1.491 . S
C2124 H2115 0.950 . S
C2124 C2123 1.398 . S
C2124 C2125 1.391 . S
C2125 H2113 0.950 . S
C2125 C2121 1.393 . S
C2125 C2124 1.391 . S
C2126 H2116 0.950 1_655 S
C2126 C2127 1.386 . S
C2126 C2128 1.391 . S
C2127 C2126 1.386 . S
C2127 C2131 1.393 . S
C2128 H2117 0.950 . S
C2128 C2126 1.391 . S
C2128 C2129 1.400 . S
C2129 C2123 1.491 . S
C2129 C2128 1.400 . S
C2129 C2130 1.398 . S
C2130 H2118 0.950 . S
C2130 C2129 1.398 . S
C2130 C2131 1.391 . S
C2131 H2119 0.950 . S
C2131 C2127 1.393 . S
C2131 C2130 1.391 . S
H2132 C2140 0.950 . S
H2133 C2145 0.950 . S
H2134 C2142 0.950 . S
H2135 C2144 0.950 . S
H2136 C2146 0.950 . S
H2137 C2148 0.950 . S
H2138 C2150 0.950 . S
H2139 C2151 0.950 . S
C2140 H2132 0.950 . S
C2140 C2141 1.386 . S
C2140 C2142 1.391 . S
C2141 C2140 1.386 . S
C2141 C2145 1.393 . S
C2142 H2134 0.950 . S
C2142 C2140 1.391 . S
C2142 C2143 1.400 . S
C2143 C2142 1.400 . S
C2143 C2144 1.398 . S
C2143 C2149 1.491 . S
C2144 H2135 0.950 . S
C2144 C2143 1.398 . S
C2144 C2145 1.391 . S
C2145 H2133 0.950 . S
C2145 C2141 1.393 . S
C2145 C2144 1.391 . S
C2146 H2136 0.950 . S
C2146 C2147 1.386 . S
C2146 C2148 1.391 . S
C2147 C2146 1.386 . S
C2147 C2151 1.393 . S
C2148 H2137 0.950 . S
C2148 C2146 1.391 . S
C2148 C2149 1.400 . S
C2149 C2143 1.491 . S
C2149 C2148 1.400 . S
C2149 C2150 1.398 . S
C2150 H2138 0.950 . S
C2150 C2149 1.398 . S
C2150 C2151 1.391 . S
C2151 H2139 0.950 . S
C2151 C2147 1.393 . S
C2151 C2150 1.391 . S
H2152 C2160 0.950 . S
H2153 C2165 0.950 . S
H2154 C2162 0.950 . S
H2155 C2164 0.950 . S
H2156 C2166 0.950 . S
H2157 C2168 0.950 . S
H2158 C2170 0.950 . S
H2159 C2171 0.950 . S
C2160 H2152 0.950 . S
C2160 C2161 1.386 . S
C2160 C2162 1.391 . S
C2161 C2160 1.386 . S
C2161 C2165 1.393 . S
C2162 H2154 0.950 . S
C2162 C2160 1.391 . S
C2162 C2163 1.400 . S
C2163 C2162 1.400 . S
C2163 C2164 1.398 . S
C2163 C2169 1.491 . S
C2164 H2155 0.950 . S
C2164 C2163 1.398 . S
C2164 C2165 1.391 . S
C2165 H2153 0.950 . S
C2165 C2161 1.393 . S
C2165 C2164 1.391 . S
C2166 H2156 0.950 . S
C2166 C2167 1.386 . S
C2166 C2168 1.391 . S
C2167 C2166 1.386 . S
C2167 C2171 1.393 . S
C2168 H2157 0.950 . S
C2168 C2166 1.391 . S
C2168 C2169 1.400 . S
C2169 C2163 1.491 . S
C2169 C2168 1.400 . S
C2169 C2170 1.398 . S
C2170 H2158 0.950 . S
C2170 C2169 1.398 . S
C2170 C2171 1.391 . S
C2171 H2159 0.950 . S
C2171 C2167 1.393 . S
C2171 C2170 1.391 . S
H2172 C2180 0.950 . S
H2173 C2185 0.950 . S
H2174 C2182 0.950 . S
H2175 C2184 0.950 . S
H2176 C2186 0.950 . S
H2177 C2188 0.950 . S
H2178 C2190 0.950 . S
H2179 C2191 0.950 . S
C2180 H2172 0.950 . S
C2180 C2181 1.386 . S
C2180 C2182 1.391 . S
C2181 C2180 1.386 . S
C2181 C2185 1.393 . S
C2182 H2174 0.950 . S
C2182 C2180 1.391 . S
C2182 C2183 1.400 . S
C2183 C2182 1.400 . S
C2183 C2184 1.398 . S
C2183 C2189 1.491 . S
C2184 H2175 0.950 . S
C2184 C2183 1.398 . S
C2184 C2185 1.391 . S
C2185 H2173 0.950 . S
C2185 C2181 1.393 . S
C2185 C2184 1.391 . S
C2186 H2176 0.950 . S
C2186 C2187 1.386 . S
C2186 C2188 1.391 . S
C2187 C2186 1.386 . S
C2187 C2191 1.393 . S
C2188 H2177 0.950 . S
C2188 C2186 1.391 . S
C2188 C2189 1.400 . S
C2189 C2183 1.491 . S
C2189 C2188 1.400 . S
C2189 C2190 1.398 . S
C2190 H2178 0.950 . S
C2190 C2189 1.398 . S
C2190 C2191 1.391 . S
C2191 H2179 0.950 . S
C2191 C2187 1.393 . S
C2191 C2190 1.391 . S
H2192 C2200 0.950 . S
H2193 C2205 0.950 . S
H2194 C2202 0.950 . S
H2195 C2204 0.950 . S
H2196 C2206 0.950 . S
H2197 C2208 0.950 . S
H2198 C2210 0.950 . S
H2199 C2211 0.950 . S
C2200 H2192 0.950 . S
C2200 C2201 1.386 . S
C2200 C2202 1.391 . S
C2201 C2200 1.386 . S
C2201 C2205 1.393 . S
C2202 H2194 0.950 . S
C2202 C2200 1.391 . S
C2202 C2203 1.400 . S
C2203 C2202 1.400 . S
C2203 C2204 1.398 . S
C2203 C2209 1.491 . S
C2204 H2195 0.950 . S
C2204 C2203 1.398 . S
C2204 C2205 1.391 . S
C2205 H2193 0.950 . S
C2205 C2201 1.393 . S
C2205 C2204 1.391 . S
C2206 H2196 0.950 . S
C2206 C2207 1.386 . S
C2206 C2208 1.391 . S
C2207 C2206 1.386 . S
C2207 C2211 1.393 . S
C2208 H2197 0.950 . S
C2208 C2206 1.391 . S
C2208 C2209 1.400 . S
C2209 C2203 1.491 . S
C2209 C2208 1.400 . S
C2209 C2210 1.398 . S
C2210 H2198 0.950 . S
C2210 C2209 1.398 . S
C2210 C2211 1.391 . S
C2211 H2199 0.950 . S
C2211 C2207 1.393 . S
C2211 C2210 1.391 . S
H2212 C2220 0.950 . S
H2213 C2225 0.950 . S
H2214 C2222 0.950 . S
H2215 C2224 0.950 . S
H2216 C2226 0.950 . S
H2217 C2228 0.950 . S
H2218 C2230 0.950 . S
H2219 C2231 0.950 . S
C2220 H2212 0.950 . S
C2220 C2221 1.386 . S
C2220 C2222 1.391 . S
C2221 C2220 1.386 . S
C2221 C2225 1.393 . S
C2222 H2214 0.950 . S
C2222 C2220 1.391 . S
C2222 C2223 1.400 . S
C2223 C2222 1.400 . S
C2223 C2224 1.398 . S
C2223 C2229 1.491 . S
C2224 H2215 0.950 . S
C2224 C2223 1.398 . S
C2224 C2225 1.391 . S
C2225 H2213 0.950 . S
C2225 C2221 1.393 . S
C2225 C2224 1.391 . S
C2226 H2216 0.950 . S
C2226 C2227 1.386 . S
C2226 C2228 1.391 . S
C2227 C2226 1.386 . S
C2227 C2231 1.393 . S
C2228 H2217 0.950 . S
C2228 C2226 1.391 . S
C2228 C2229 1.400 . S
C2229 C2223 1.491 . S
C2229 C2228 1.400 . S
C2229 C2230 1.398 . S
C2230 H2218 0.950 . S
C2230 C2229 1.398 . S
C2230 C2231 1.391 . S
C2231 H2219 0.950 . S
C2231 C2227 1.393 . S
C2231 C2230 1.391 . S
H2232 C2240 0.950 . S
H2233 C2245 0.950 . S
H2234 C2242 0.950 . S
H2235 C2244 0.950 . S
H2236 C2246 0.950 . S
H2237 C2248 0.950 . S
H2238 C2250 0.950 . S
H2239 C2251 0.950 . S
C2240 H2232 0.950 . S
C2240 C2241 1.386 . S
C2240 C2242 1.391 . S
C2241 C2240 1.386 . S
C2241 C2245 1.393 . S
C2242 H2234 0.950 . S
C2242 C2240 1.391 . S
C2242 C2243 1.400 . S
C2243 C2242 1.400 . S
C2243 C2244 1.398 . S
C2243 C2249 1.491 . S
C2244 H2235 0.950 . S
C2244 C2243 1.398 . S
C2244 C2245 1.391 . S
C2245 H2233 0.950 . S
C2245 C2241 1.393 . S
C2245 C2244 1.391 . S
C2246 H2236 0.950 . S
C2246 C2247 1.386 . S
C2246 C2248 1.391 . S
C2247 C2246 1.386 . S
C2247 C2251 1.393 . S
C2248 H2237 0.950 . S
C2248 C2246 1.391 . S
C2248 C2249 1.400 . S
C2249 C2243 1.491 . S
C2249 C2248 1.400 . S
C2249 C2250 1.398 . S
C2250 H2238 0.950 . S
C2250 C2249 1.398 . S
C2250 C2251 1.391 . S
C2251 H2239 0.950 . S
C2251 C2247 1.393 . S
C2251 C2250 1.391 . S
H2252 C2260 0.950 . S
H2253 C2265 0.950 . S
H2254 C2262 0.950 . S
H2255 C2264 0.950 . S
H2256 C2266 0.950 . S
H2257 C2268 0.950 . S
H2258 C2270 0.950 . S
H2259 C2271 0.950 . S
C2260 H2252 0.950 . S
C2260 C2261 1.386 . S
C2260 C2262 1.391 . S
C2261 C2260 1.386 . S
C2261 C2265 1.393 . S
C2262 H2254 0.950 . S
C2262 C2260 1.391 . S
C2262 C2263 1.400 . S
C2263 C2262 1.400 . S
C2263 C2264 1.398 . S
C2263 C2269 1.491 . S
C2264 H2255 0.950 . S
C2264 C2263 1.398 . S
C2264 C2265 1.391 . S
C2265 H2253 0.950 . S
C2265 C2261 1.393 . S
C2265 C2264 1.391 . S
C2266 H2256 0.950 . S
C2266 C2267 1.386 . S
C2266 C2268 1.391 . S
C2267 C2266 1.386 . S
C2267 C2271 1.393 . S
C2268 H2257 0.950 . S
C2268 C2266 1.391 . S
C2268 C2269 1.400 . S
C2269 C2263 1.491 . S
C2269 C2268 1.400 . S
C2269 C2270 1.398 . S
C2270 H2258 0.950 . S
C2270 C2269 1.398 . S
C2270 C2271 1.391 . S
C2271 H2259 0.950 . S
C2271 C2267 1.393 . S
C2271 C2270 1.391 . S
H2272 C2280 0.950 . S
H2273 C2285 0.950 . S
H2274 C2282 0.950 . S
H2275 C2284 0.950 . S
H2276 C2286 0.950 . S
H2277 C2288 0.950 . S
H2278 C2290 0.950 . S
H2279 C2291 0.950 . S
C2280 H2272 0.950 . S
C2280 C2281 1.386 . S
C2280 C2282 1.391 . S
C2281 C2280 1.386 . S
C2281 C2285 1.393 . S
C2282 H2274 0.950 . S
C2282 C2280 1.391 . S
C2282 C2283 1.400 . S
C2283 C2282 1.400 . S
C2283 C2284 1.398 . S
C2283 C2289 1.491 . S
C2284 H2275 0.950 . S
C2284 C2283 1.398 . S
C2284 C2285 1.391 . S
C2285 H2273 0.950 . S
C2285 C2281 1.393 . S
C2285 C2284 1.391 . S
C2286 H2276 0.950 . S
C2286 C2287 1.386 . S
C2286 C2288 1.391 . S
C2287 C2286 1.386 . S
C2287 C2291 1.393 . S
C2288 H2277 0.950 . S
C2288 C2286 1.391 . S
C2288 C2289 1.400 . S
C2289 C2283 1.491 . S
C2289 C2288 1.400 . S
C2289 C2290 1.398 . S
C2290 H2278 0.950 . S
C2290 C2289 1.398 . S
C2290 C2291 1.391 . S
C2291 H2279 0.950 . S
C2291 C2287 1.393 . S
C2291 C2290 1.391 . S
H2292 C2300 0.950 . S
H2293 C2305 0.950 . S
H2294 C2302 0.950 . S
H2295 C2304 0.950 . S
H2296 C2306 0.950 . S
H2297 C2308 0.950 . S
H2298 C2310 0.950 . S
H2299 C2311 0.950 . S
C2300 H2292 0.950 . S
C2300 C2301 1.386 . S
C2300 C2302 1.391 . S
C2301 C2300 1.386 . S
C2301 C2305 1.393 . S
C2302 H2294 0.950 . S
C2302 C2300 1.391 . S
C2302 C2303 1.400 . S
C2303 C2302 1.400 . S
C2303 C2304 1.398 . S
C2303 C2309 1.491 . S
C2304 H2295 0.950 . S
C2304 C2303 1.398 . S
C2304 C2305 1.391 . S
C2305 H2293 0.950 . S
C2305 C2301 1.393 . S
C2305 C2304 1.391 . S
C2306 H2296 0.950 . S
C2306 C2307 1.386 . S
C2306 C2308 1.391 . S
C2307 C2306 1.386 . S
C2307 C2311 1.393 . S
C2308 H2297 0.950 . S
C2308 C2306 1.391 . S
C2308 C2309 1.400 . S
C2309 C2303 1.491 . S
C2309 C2308 1.400 . S
C2309 C2310 1.398 . S
C2310 H2298 0.950 . S
C2310 C2309 1.398 . S
C2310 C2311 1.391 . S
C2311 H2299 0.950 . S
C2311 C2307 1.393 . S
C2311 C2310 1.391 . S
H2312 C2320 0.950 . S
H2313 C2325 0.950 . S
H2314 C2322 0.950 . S
H2315 C2324 0.950 . S
H2316 C2326 0.950 . S
H2317 C2328 0.950 . S
H2318 C2330 0.950 . S
H2319 C2331 0.950 . S
C2320 H2312 0.950 . S
C2320 C2321 1.386 . S
C2320 C2322 1.391 . S
C2321 C2320 1.386 . S
C2321 C2325 1.393 . S
C2322 H2314 0.950 . S
C2322 C2320 1.391 . S
C2322 C2323 1.400 . S
C2323 C2322 1.400 . S
C2323 C2324 1.398 . S
C2323 C2329 1.491 . S
C2324 H2315 0.950 . S
C2324 C2323 1.398 . S
C2324 C2325 1.391 . S
C2325 H2313 0.950 . S
C2325 C2321 1.393 . S
C2325 C2324 1.391 . S
C2326 H2316 0.950 . S
C2326 C2327 1.386 . S
C2326 C2328 1.391 . S
C2327 C2326 1.386 . S
C2327 C2331 1.393 . S
C2328 H2317 0.950 . S
C2328 C2326 1.391 . S
C2328 C2329 1.400 . S
C2329 C2323 1.491 . S
C2329 C2328 1.400 . S
C2329 C2330 1.398 . S
C2330 H2318 0.950 . S
C2330 C2329 1.398 . S
C2330 C2331 1.391 . S
C2331 H2319 0.950 . S
C2331 C2327 1.393 . S
C2331 C2330 1.391 . S
H2332 C2340 0.950 . S
H2333 C2345 0.950 . S
H2334 C2342 0.950 . S
H2335 C2344 0.950 . S
H2336 C2346 0.950 . S
H2337 C2348 0.950 . S
H2338 C2350 0.950 . S
H2339 C2351 0.950 . S
C2340 H2332 0.950 . S
C2340 C2341 1.386 . S
C2340 C2342 1.391 . S
C2341 C2340 1.386 . S
C2341 C2345 1.393 . S
C2342 H2334 0.950 . S
C2342 C2340 1.391 . S
C2342 C2343 1.400 . S
C2343 C2342 1.400 . S
C2343 C2344 1.398 . S
C2343 C2349 1.491 . S
C2344 H2335 0.950 . S
C2344 C2343 1.398 . S
C2344 C2345 1.391 . S
C2345 H2333 0.950 . S
C2345 C2341 1.393 . S
C2345 C2344 1.391 . S
C2346 H2336 0.950 . S
C2346 C2347 1.386 . S
C2346 C2348 1.391 . S
C2347 C2346 1.386 . S
C2347 C2351 1.393 . S
C2348 H2337 0.950 . S
C2348 C2346 1.391 . S
C2348 C2349 1.400 . S
C2349 C2343 1.491 . S
C2349 C2348 1.400 . S
C2349 C2350 1.398 . S
C2350 H2338 0.950 . S
C2350 C2349 1.398 . S
C2350 C2351 1.391 . S
C2351 H2339 0.950 . S
C2351 C2347 1.393 . S
C2351 C2350 1.391 . S
H2352 C2360 0.950 . S
H2353 C2365 0.950 . S
H2354 C2362 0.950 . S
H2355 C2364 0.950 . S
H2356 C2366 0.950 . S
H2357 C2368 0.950 . S
H2358 C2370 0.950 . S
H2359 C2371 0.950 . S
C2360 H2352 0.950 . S
C2360 C2361 1.386 . S
C2360 C2362 1.391 . S
C2361 C2360 1.386 . S
C2361 C2365 1.393 . S
C2362 H2354 0.950 . S
C2362 C2360 1.391 . S
C2362 C2363 1.400 . S
C2363 C2362 1.400 . S
C2363 C2364 1.398 . S
C2363 C2369 1.491 . S
C2364 H2355 0.950 . S
C2364 C2363 1.398 . S
C2364 C2365 1.391 . S
C2365 H2353 0.950 . S
C2365 C2361 1.393 . S
C2365 C2364 1.391 . S
C2366 H2356 0.950 . S
C2366 C2367 1.386 . S
C2366 C2368 1.391 . S
C2367 C2366 1.386 . S
C2367 C2371 1.393 . S
C2368 H2357 0.950 . S
C2368 C2366 1.391 . S
C2368 C2369 1.400 . S
C2369 C2363 1.491 . S
C2369 C2368 1.400 . S
C2369 C2370 1.398 . S
C2370 H2358 0.950 . S
C2370 C2369 1.398 . S
C2370 C2371 1.391 . S
C2371 H2359 0.950 . S
C2371 C2367 1.393 . S
C2371 C2370 1.391 . S
H2372 C2380 0.950 . S
H2373 C2385 0.950 . S
H2374 C2382 0.950 . S
H2375 C2384 0.950 . S
H2376 C2386 0.950 . S
H2377 C2388 0.950 . S
H2378 C2390 0.950 . S
H2379 C2391 0.950 . S
C2380 H2372 0.950 . S
C2380 C2381 1.386 . S
C2380 C2382 1.391 . S
C2381 C2380 1.386 . S
C2381 C2385 1.393 . S
C2382 H2374 0.950 . S
C2382 C2380 1.391 . S
C2382 C2383 1.400 . S
C2383 C2382 1.400 . S
C2383 C2384 1.398 . S
C2383 C2389 1.491 . S
C2384 H2375 0.950 . S
C2384 C2383 1.398 . S
C2384 C2385 1.391 . S
C2385 H2373 0.950 . S
C2385 C2381 1.393 . S
C2385 C2384 1.391 . S
C2386 H2376 0.950 . S
C2386 C2387 1.386 . S
C2386 C2388 1.391 . S
C2387 C2386 1.386 . S
C2387 C2391 1.393 . S
C2388 H2377 0.950 . S
C2388 C2386 1.391 . S
C2388 C2389 1.400 . S
C2389 C2383 1.491 . S
C2389 C2388 1.400 . S
C2389 C2390 1.398 . S
C2390 H2378 0.950 . S
C2390 C2389 1.398 . S
C2390 C2391 1.391 . S
C2391 H2379 0.950 . S
C2391 C2387 1.393 . S
C2391 C2390 1.391 . S
H2392 C2400 0.950 . S
H2393 C2405 0.950 . S
H2394 C2402 0.950 . S
H2395 C2404 0.950 . S
H2396 C2406 0.950 . S
H2397 C2408 0.950 . S
H2398 C2410 0.950 . S
H2399 C2411 0.950 . S
C2400 H2392 0.950 . S
C2400 C2401 1.386 . S
C2400 C2402 1.391 . S
C2401 C2400 1.386 . S
C2401 C2405 1.393 . S
C2402 H2394 0.950 . S
C2402 C2400 1.391 . S
C2402 C2403 1.400 . S
C2403 C2402 1.400 . S
C2403 C2404 1.398 . S
C2403 C2409 1.491 . S
C2404 H2395 0.950 . S
C2404 C2403 1.398 . S
C2404 C2405 1.391 . S
C2405 H2393 0.950 . S
C2405 C2401 1.393 . S
C2405 C2404 1.391 . S
C2406 H2396 0.950 . S
C2406 C2407 1.386 . S
C2406 C2408 1.391 . S
C2407 C2406 1.386 . S
C2407 C2411 1.393 . S
C2408 H2397 0.950 . S
C2408 C2406 1.391 . S
C2408 C2409 1.400 . S
C2409 C2403 1.491 . S
C2409 C2408 1.400 . S
C2409 C2410 1.398 . S
C2410 H2398 0.950 . S
C2410 C2409 1.398 . S
C2410 C2411 1.391 . S
C2411 H2399 0.950 . S
C2411 C2407 1.393 . S
C2411 C2410 1.391 . S
C1341 C439 1.347 . S
C1347 C643 1.314 . S
C1361 C465 1.507 . S
C1367 C727 1.458 . S
C1381 C401 1.466 . S
C1387 C807 1.437 . S
C1401 C369 1.428 . S
C1407 C723 1.384 . S
C1427 C811 1.371 . S
C1421 C305 1.452 . S
C1441 C343 1.320 . S
C1447 C639 1.332 . S
C1467 C632 1.379 . S
C1461 C375 1.431 . S
C1487 C716 1.405 . S
C1481 C311 1.480 . S
C1501 C337 1.406 . S
C1507 C818 1.413 . S
C1521 C433 1.397 . S
C1527 C734 1.398 . S
C1541 C471 1.421 . S
C1547 C800 1.344 . S
C1567 C650 1.361 . S
C1561 C407 1.412 . S
C1587 C895 1.337 . S
C1581 C55 1.345 . S
C1601 C81 1.505 . S
C1607 C979 1.458 . S
C1621 C17 1.472 . S
C1627 C1059 1.417 . S
C1641 C561 1.420 . S
C1647 C975 1.403 . S
C1661 C497 1.445 . S
C1667 C1063 1.368 . S
C1681 C535 1.313 . S
C1687 C891 1.326 . S
C1701 C567 1.435 . S
C1707 C884 1.348 . S
C1721 C503 1.480 . S
C1727 C968 1.415 . S
C1747 C1070 1.425 . S
C1741 C529 1.418 . S
C1761 C49 1.384 . S
C1767 C986 1.386 . S
C1787 C1052 1.364 . S
C1781 C87 1.418 . S
C1801 C23 1.411 . S
C1807 C902 1.367 . S
C1827 C1147 1.320 . S
C1821 C247 1.363 . S
C1841 C273 1.505 . S
C1847 C1231 1.457 . S
C1867 C1311 1.418 . S
C1861 C209 1.473 . S
C1887 C1227 1.404 . S
C1881 C177 1.420 . S
C1907 C1315 1.376 . S
C1901 C113 1.454 . S
C1921 C151 1.333 . S
C1927 C1143 1.343 . S
C1941 C183 1.436 . S
C1947 C1136 1.379 . S
C1961 C119 1.480 . S
C1967 C1220 1.406 . S
C1987 C1322 1.436 . S
C1981 C145 1.429 . S
C2001 C241 1.375 . S
C2007 C1238 1.378 . S
C2021 C279 1.421 . S
C2027 C1304 1.355 . S
C2041 C215 1.408 . S
C2047 C1154 1.374 . S
C2061 C509 1.440 . S
C2067 C646 1.378 . S
C2087 C730 1.365 . S
C2081 C541 1.451 . S
C2101 C573 1.449 . S
C2107 C802 1.359 . S
C2121 C221 1.496 . S
C2127 C718 1.355 . S
C2141 C253 1.413 . S
C2147 C814 1.306 . S
C2167 C634 1.342 . S
C2161 C285 1.455 . S
C2181 C125 1.447 . S
C2187 C898 1.369 . S
C2201 C157 1.447 . S
C2207 C982 1.360 . S
C2221 C189 1.445 . S
C2227 C1054 1.368 . S
C2241 C413 1.494 . S
C2247 C970 1.361 . S
C2267 C1066 1.316 . S
C2261 C445 1.424 . S
C2281 C477 1.435 . S
C2287 C886 1.379 . S
C2301 C317 1.451 . S
C2307 C1150 1.344 . S
C2321 C349 1.443 . S
C2327 C1234 1.354 . S
C2347 C1306 1.346 . S
C2341 C381 1.458 . S
C2361 C29 1.494 . S
C2367 C1222 1.363 . S
C2381 C61 1.415 . S
C2387 C1318 1.306 . S
C2401 C93 1.449 . S
C2407 C1138 1.355 . S
