# Generated by pormake.
# Topology ant, (3,6)-cn, num edge types: 1
# Building blocks:
#     Node 0, Type 0, BuildingBlock: ESEHIV_clean_linker_0, # of connection points: 3
#     Node 1, Type 0, BuildingBlock: ESEHIV_clean_linker_0, # of connection points: 3
#     Node 2, Type 0, BuildingBlock: ESEHIV_clean_linker_0, # of connection points: 3
#     Node 3, Type 0, BuildingBlock: ESEHIV_clean_linker_0, # of connection points: 3
#     Node 4, Type 0, BuildingBlock: ESEHIV_clean_linker_0, # of connection points: 3
#     Node 5, Type 0, BuildingBlock: ESEHIV_clean_linker_0, # of connection points: 3
#     Node 6, Type 0, BuildingBlock: ESEHIV_clean_linker_0, # of connection points: 3
#     Node 7, Type 0, BuildingBlock: ESEHIV_clean_linker_0, # of connection points: 3
#     Node 8, Type 1, BuildingBlock: MIDCAF_clean_sbu_0, # of connection points: 6
#     Node 9, Type 1, BuildingBlock: MIDCAF_clean_sbu_0, # of connection points: 6
#     Node 10, Type 1, BuildingBlock: MIDCAF_clean_sbu_0, # of connection points: 6
#     Node 11, Type 1, BuildingBlock: MIDCAF_clean_sbu_0, # of connection points: 6
#     Edge 12, Type (0, 1), BuildingBlock: CIFDUS_clean_linker_0, # of connection points: 2
#     Edge 13, Type (0, 1), BuildingBlock: CIFDUS_clean_linker_0, # of connection points: 2
#     Edge 14, Type (0, 1), BuildingBlock: CIFDUS_clean_linker_0, # of connection points: 2
#     Edge 15, Type (0, 1), BuildingBlock: CIFDUS_clean_linker_0, # of connection points: 2
#     Edge 16, Type (0, 1), BuildingBlock: CIFDUS_clean_linker_0, # of connection points: 2
#     Edge 17, Type (0, 1), BuildingBlock: CIFDUS_clean_linker_0, # of connection points: 2
#     Edge 18, Type (0, 1), BuildingBlock: CIFDUS_clean_linker_0, # of connection points: 2
#     Edge 19, Type (0, 1), BuildingBlock: CIFDUS_clean_linker_0, # of connection points: 2
#     Edge 20, Type (0, 1), BuildingBlock: CIFDUS_clean_linker_0, # of connection points: 2
#     Edge 21, Type (0, 1), BuildingBlock: CIFDUS_clean_linker_0, # of connection points: 2
#     Edge 22, Type (0, 1), BuildingBlock: CIFDUS_clean_linker_0, # of connection points: 2
#     Edge 23, Type (0, 1), BuildingBlock: CIFDUS_clean_linker_0, # of connection points: 2
#     Edge 24, Type (0, 1), BuildingBlock: CIFDUS_clean_linker_0, # of connection points: 2
#     Edge 25, Type (0, 1), BuildingBlock: CIFDUS_clean_linker_0, # of connection points: 2
#     Edge 26, Type (0, 1), BuildingBlock: CIFDUS_clean_linker_0, # of connection points: 2
#     Edge 27, Type (0, 1), BuildingBlock: CIFDUS_clean_linker_0, # of connection points: 2
#     Edge 28, Type (0, 1), BuildingBlock: CIFDUS_clean_linker_0, # of connection points: 2
#     Edge 29, Type (0, 1), BuildingBlock: CIFDUS_clean_linker_0, # of connection points: 2
#     Edge 30, Type (0, 1), BuildingBlock: CIFDUS_clean_linker_0, # of connection points: 2
#     Edge 31, Type (0, 1), BuildingBlock: CIFDUS_clean_linker_0, # of connection points: 2
#     Edge 32, Type (0, 1), BuildingBlock: CIFDUS_clean_linker_0, # of connection points: 2
#     Edge 33, Type (0, 1), BuildingBlock: CIFDUS_clean_linker_0, # of connection points: 2
#     Edge 34, Type (0, 1), BuildingBlock: CIFDUS_clean_linker_0, # of connection points: 2
#     Edge 35, Type (0, 1), BuildingBlock: CIFDUS_clean_linker_0, # of connection points: 2
# Relax obj value: 0.103
# Max RMSD: 0.160
# Mean RMSD: 0.105
data_MOF--net-ant--node1-MIDCAF_clean_sbu_0--node2-ESEHIV_clean_linker_0--edge1-CIFDUS_clean_linker_0
_symmetry_space_group_name_H-M    P1
_symmetry_Int_Tables_number       1
_symmetry_cell_setting            triclinic
loop_
_symmetry_equiv_pos_as_xyz
'x, y, z'
_cell_length_a     22.876378
_cell_length_b     22.77813
_cell_length_c     64.590283
_cell_angle_alpha  90.187138
_cell_angle_beta   100.1367
_cell_angle_gamma 88.742964
loop_
_atom_site_label
_atom_site_type_symbol
_atom_site_fract_x
_atom_site_fract_y
_atom_site_fract_z
_atom_type_partial_charge
H0 H 0.17813 0.35378 0.01399 0.0
H1 H 0.20309 0.16893 0.02662 0.0
H2 H 0.19431 0.28973 0.07744 0.0
C3 C 0.18412 0.31767 0.0251 0.0
C4 C 0.18518 0.32905 0.0466 0.0
C5 C 0.19103 0.25996 0.01785 0.0
C6 C 0.19882 0.21336 0.0323 0.0
C7 C 0.20036 0.22338 0.05387 0.0
C8 C 0.19367 0.28151 0.06087 0.0
H9 H 0.97905 0.81562 0.26817 0.0
H10 H 0.16799 0.83228 0.28273 0.0
H11 H 0.07085 0.79646 0.33227 0.0
C12 C 0.01934 0.81691 0.27983 0.0
C13 C 0.01732 0.80623 0.30116 0.0
C14 C 0.07331 0.82757 0.27321 0.0
C15 C 0.126 0.8273 0.28807 0.0
C16 C 0.12586 0.81518 0.30933 0.0
C17 C 0.07117 0.80522 0.31582 0.0
H18 H 0.63707 0.83368 0.52325 0.0
H19 H 0.67139 0.65012 0.53647 0.0
H20 H 0.70422 0.77662 0.58657 0.0
C21 C 0.65139 0.79862 0.53442 0.0
C22 C 0.6704 0.81249 0.55571 0.0
C23 C 0.652 0.74019 0.52729 0.0
C24 C 0.67277 0.69537 0.54174 0.0
C25 C 0.69184 0.708 0.56316 0.0
C26 C 0.69058 0.76673 0.57002 0.0
H27 H 0.44693 0.23645 0.77199 0.0
H28 H 0.62763 0.28527 0.77646 0.0
H29 H 0.55159 0.27447 0.83292 0.0
C30 C 0.48793 0.25029 0.78169 0.0
C31 C 0.49219 0.25521 0.80365 0.0
C32 C 0.53639 0.26175 0.77204 0.0
C33 C 0.58975 0.27921 0.78419 0.0
C34 C 0.59646 0.28418 0.80618 0.0
C35 C 0.54705 0.2721 0.81596 0.0
H36 H 0.02692 0.58481 0.94355 0.0
H37 H 0.03541 0.77211 0.94279 0.0
H38 H 0.03475 0.67439 0.88546 0.0
C39 C 0.03049 0.62475 0.93481 0.0
C40 C 0.03066 0.62268 0.91309 0.0
C41 C 0.03325 0.67822 0.94544 0.0
C42 C 0.03514 0.73076 0.93442 0.0
C43 C 0.03521 0.73011 0.91268 0.0
C44 C 0.03326 0.67562 0.90213 0.0
H45 H 0.58228 0.82864 0.19281 0.0
H46 H 0.77089 0.7956 0.20627 0.0
H47 H 0.68293 0.82535 0.14244 0.0
C48 C 0.62459 0.82543 0.18746 0.0
C49 C 0.62604 0.8292 0.16585 0.0
C50 C 0.67644 0.81297 0.2021 0.0
C51 C 0.73067 0.8051 0.19505 0.0
C52 C 0.73345 0.8107 0.17363 0.0
C53 C 0.68104 0.82255 0.15906 0.0
H54 H 0.57796 0.10827 0.44408 0.0
H55 H 0.5981 0.29496 0.44624 0.0
H56 H 0.52993 0.21003 0.38747 0.0
C57 C 0.57276 0.15044 0.43616 0.0
C58 C 0.54974 0.15332 0.41453 0.0
C59 C 0.59158 0.20107 0.44754 0.0
C60 C 0.58623 0.25559 0.43717 0.0
C61 C 0.56403 0.25991 0.41548 0.0
C62 C 0.5463 0.20806 0.40424 0.0
H63 H 0.10333 0.30352 0.70293 0.0
H64 H 0.28673 0.25821 0.70597 0.0
H65 H 0.18408 0.32837 0.64824 0.0
C66 C 0.14205 0.30202 0.69533 0.0
C67 C 0.13717 0.3208 0.67442 0.0
C68 C 0.19547 0.27945 0.70653 0.0
C69 C 0.24548 0.27544 0.69696 0.0
C70 C 0.24227 0.29253 0.67583 0.0
C71 C 0.18755 0.31539 0.66454 0.0
Zn72 Zn 0.21762 0.71885 0.1387 0.0
Zn73 Zn 0.07719 0.83852 0.08802 0.0
Zn74 Zn 0.15178 0.77725 0.11157 0.0
C75 C 0.09486 0.7372 0.06559 0.0
C76 C 0.17517 0.90796 0.09547 0.0
O77 O 0.11278 0.77472 0.14076 0.0
O78 O 0.18614 0.73841 0.16448 0.0
C79 C 0.18512 0.63781 0.10764 0.0
O80 O 0.12991 0.72325 0.08281 0.0
O81 O 0.06742 0.78601 0.06395 0.0
O82 O 0.12151 0.90986 0.08668 0.0
O83 O 0.19757 0.86074 0.10505 0.0
O84 O 0.2052 0.63973 0.1271 0.0
O85 O 0.1644 0.68561 0.09796 0.0
O86 O 0.23909 0.82299 0.11719 0.0
O87 O 0.29371 0.75311 0.13535 0.0
C88 C 0.29022 0.80181 0.12597 0.0
O89 O 0.06841 0.79844 0.12568 0.0
O90 O 0.00849 0.84935 0.10133 0.0
C91 C 0.13477 0.76104 0.15996 0.0
C92 C 0.01839 0.82605 0.11926 0.0
Zn93 Zn 0.53725 0.6537 0.33303 0.0
Zn94 Zn 0.67232 0.77451 0.37966 0.0
Zn95 Zn 0.60243 0.71863 0.35887 0.0
C96 C 0.58827 0.85312 0.36256 0.0
C97 C 0.74121 0.73212 0.35579 0.0
O98 O 0.59684 0.63207 0.37498 0.0
O99 O 0.55471 0.5785 0.34808 0.0
C100 C 0.46393 0.74435 0.34467 0.0
O101 O 0.5591 0.80527 0.36229 0.0
O102 O 0.6443 0.85047 0.36572 0.0
O103 O 0.75016 0.74133 0.37532 0.0
O104 O 0.68726 0.72952 0.34572 0.0
O105 O 0.46155 0.69388 0.33646 0.0
O106 O 0.51462 0.766 0.35248 0.0
O107 O 0.64172 0.71306 0.33015 0.0
O108 O 0.57221 0.66969 0.30744 0.0
C109 C 0.62118 0.69548 0.31136 0.0
O110 O 0.61943 0.67459 0.38997 0.0
O111 O 0.64622 0.75718 0.40643 0.0
C112 C 0.57838 0.58206 0.36722 0.0
C113 C 0.63008 0.70478 0.40706 0.0
Zn114 Zn 0.59424 0.32348 0.59054 0.0
Zn115 Zn 0.72937 0.20508 0.64579 0.0
Zn116 Zn 0.66369 0.26324 0.61562 0.0
C117 C 0.80186 0.29244 0.63501 0.0
C118 C 0.70444 0.12709 0.61168 0.0
O119 O 0.57673 0.28594 0.62723 0.0
O120 O 0.51703 0.32174 0.5993 0.0
C121 C 0.68889 0.39451 0.6035 0.0
O122 O 0.75384 0.3047 0.62179 0.0
O123 O 0.80239 0.25188 0.6483 0.0
O124 O 0.73104 0.12997 0.6305 0.0
O125 O 0.67592 0.17263 0.60287 0.0
O126 O 0.63445 0.39849 0.59577 0.0
O127 O 0.71216 0.34456 0.61023 0.0
O128 O 0.64685 0.2095 0.5867 0.0
O129 O 0.60491 0.27966 0.56517 0.0
C130 C 0.62632 0.22826 0.568 0.0
O131 O 0.61869 0.26232 0.6435 0.0
O132 O 0.67914 0.21087 0.66766 0.0
C133 C 0.52492 0.30571 0.61824 0.0
C134 C 0.6315 0.2401 0.66215 0.0
Zn135 Zn 0.00293 0.12286 0.82911 0.0
Zn136 Zn 0.2076 0.30261 0.89386 0.0
Zn137 Zn 0.06974 0.18256 0.85329 0.0
C138 C 0.14176 0.17871 0.89596 0.0
C139 C 0.07116 0.29729 0.87251 0.0
O140 O 0.10647 0.17638 0.82366 0.0
O141 O 0.03624 0.12872 0.8029 0.0
C142 C 0.04981 0.0512 0.86409 0.0
O143 O 0.10524 0.14477 0.88453 0.0
O144 O 0.15943 0.22263 0.88659 0.0
O145 O 0.12439 0.27676 0.87541 0.0
O146 O 0.03088 0.26614 0.86169 0.0
O147 O 0.01999 0.04979 0.84568 0.0
O148 O 0.0727 0.09982 0.87138 0.0
O149 O 0.98186 0.23164 0.85082 0.0
O150 O 0.92778 0.16545 0.83159 0.0
C151 C 0.93072 0.21278 0.84191 0.0
O152 O 0.14905 0.20157 0.83854 0.0
O153 O 0.17613 0.25206 0.86688 0.0
C154 C 0.08519 0.15463 0.80551 0.0
C155 C 0.18892 0.23284 0.84955 0.0
H156 H 0.25061 0.38172 0.08037 0.0
H157 H 0.10381 0.41491 0.02983 0.0
H158 H 0.09085 0.51442 0.04329 0.0
H159 H 0.11885 0.59102 0.07102 0.0
H160 H 0.26857 0.55465 0.12043 0.0
H161 H 0.28157 0.45797 0.10615 0.0
C162 C 0.21551 0.41053 0.07234 0.0
C163 C 0.17796 0.39046 0.05426 0.0
C164 C 0.20844 0.46751 0.0801 0.0
C165 C 0.13354 0.42913 0.0438 0.0
C166 C 0.12592 0.48605 0.05155 0.0
C167 C 0.15496 0.56241 0.07833 0.0
C168 C 0.19249 0.58073 0.09683 0.0
C169 C 0.1629 0.50579 0.06986 0.0
C170 C 0.23834 0.54206 0.10635 0.0
C171 C 0.24614 0.48644 0.09817 0.0
H172 H 0.99461 0.72897 0.33107 0.0
H173 H 0.908 0.85678 0.28599 0.0
H174 H 0.81289 0.83741 0.29635 0.0
H175 H 0.75509 0.79037 0.32039 0.0
H176 H 0.8442 0.67128 0.36795 0.0
H177 H 0.93701 0.68091 0.35452 0.0
C178 C 0.95521 0.7532 0.32364 0.0
C179 C 0.95912 0.79447 0.30777 0.0
C180 C 0.90066 0.74318 0.3301 0.0
C181 C 0.90676 0.82418 0.29805 0.0
C182 C 0.85212 0.8134 0.30405 0.0
C183 C 0.79459 0.76557 0.32743 0.0
C184 C 0.79291 0.72972 0.34497 0.0
C185 C 0.84859 0.77353 0.32024 0.0
C186 C 0.84456 0.6988 0.35433 0.0
C187 C 0.89769 0.70465 0.34676 0.0
H188 H 0.76299 0.61139 0.5602 0.0
H189 H 0.65229 0.69338 0.60014 0.0
H190 H 0.65619 0.60348 0.62076 0.0
H191 H 0.67208 0.49671 0.6222 0.0
H192 H 0.77745 0.41229 0.58125 0.0
H193 H 0.79641 0.5079 0.56669 0.0
C194 C 0.74088 0.60986 0.57372 0.0
C195 C 0.70648 0.65869 0.57839 0.0
C196 C 0.7423 0.55742 0.58529 0.0
C197 C 0.67897 0.65654 0.59617 0.0
C198 C 0.68086 0.60493 0.60791 0.0
C199 C 0.70171 0.49974 0.61085 0.0
C200 C 0.7234 0.44791 0.60275 0.0
C201 C 0.7099 0.5544 0.60195 0.0
C202 C 0.76103 0.45181 0.58788 0.0
C203 C 0.7708 0.5064 0.57928 0.0
H204 H 0.6597 0.22456 0.84008 0.0
H205 H 0.67224 0.36882 0.7982 0.0
H206 H 0.78012 0.36727 0.8085 0.0
H207 H 0.8717 0.31113 0.82385 0.0
H208 H 0.85883 0.1683 0.86615 0.0
H209 H 0.75145 0.18395 0.86177 0.0
C210 C 0.68576 0.25722 0.83386 0.0
C211 C 0.65767 0.29583 0.81801 0.0
C212 C 0.74838 0.25583 0.83976 0.0
C213 C 0.69261 0.33781 0.81015 0.0
C214 C 0.75456 0.3368 0.81596 0.0
C215 C 0.84568 0.28547 0.83288 0.0
C216 C 0.87335 0.23894 0.84546 0.0
C217 C 0.78325 0.29403 0.82994 0.0
C218 C 0.8387 0.20496 0.85662 0.0
C219 C 0.77702 0.21339 0.8539 0.0
H220 H 0.08721 0.52204 0.92803 0.0
H221 H 0.97026 0.59316 0.87375 0.0
H222 H 0.96728 0.49669 0.85671 0.0
H223 H 0.00116 0.39184 0.85707 0.0
H224 H 0.11612 0.3239 0.91234 0.0
H225 H 0.11414 0.41875 0.9296 0.0
C226 C 0.06 0.51649 0.91264 0.0
C227 C 0.02885 0.56484 0.90227 0.0
C228 C 0.05745 0.46109 0.90323 0.0
C229 C -0.00464 0.55687 0.88202 0.0
C230 C 0.99312 0.50158 0.87236 0.0
C231 C 0.02448 0.39785 0.87305 0.0
C232 C 0.05881 0.3514 0.88347 0.0
C233 C 0.02418 0.45327 0.8828 0.0
C234 C 0.08967 0.3594 0.90404 0.0
C235 C 0.08883 0.41361 0.91388 0.0
H236 H 0.78832 0.89335 0.15493 0.0
H237 H 0.80842 0.71484 0.17711 0.0
H238 H 0.903 0.70437 0.16421 0.0
H239 H 0.97575 0.7446 0.14373 0.0
H240 H 0.95527 0.92484 0.12311 0.0
H241 H 0.8657 0.93639 0.13838 0.0
C242 C 0.81362 0.85227 0.15693 0.0
C243 C 0.79136 0.80464 0.16653 0.0
C244 C 0.86802 0.84703 0.14982 0.0
C245 C 0.82477 0.75187 0.16951 0.0
C246 C 0.87874 0.74595 0.16218 0.0
C247 C 0.95268 0.78676 0.14328 0.0
C248 C 0.97215 0.83384 0.13243 0.0
C249 C 0.9005 0.79306 0.15201 0.0
C250 C 0.94097 0.88793 0.13137 0.0
C251 C 0.88959 0.89456 0.14 0.0
H252 H 0.63707 0.35508 0.42383 0.0
H253 H 0.47756 0.29825 0.38313 0.0
H254 H 0.46843 0.39253 0.36524 0.0
H255 H 0.50525 0.49046 0.36077 0.0
H256 H 0.66048 0.55152 0.40229 0.0
H257 H 0.6702 0.45688 0.42089 0.0
C258 C 0.59968 0.36335 0.41128 0.0
C259 C 0.55847 0.31858 0.40479 0.0
C260 C 0.59351 0.41871 0.40135 0.0
C261 C 0.51101 0.33062 0.38821 0.0
C262 C 0.50527 0.38498 0.37807 0.0
C263 C 0.54121 0.48325 0.37395 0.0
C264 C 0.58235 0.52786 0.3801 0.0
C265 C 0.54632 0.42911 0.38444 0.0
C266 C 0.62806 0.51809 0.39738 0.0
C267 C 0.63381 0.4638 0.40787 0.0
H268 H 0.07231 0.28505 0.63669 0.0
H269 H 0.0667 0.404 0.68837 0.0
H270 H 0.95927 0.41523 0.67824 0.0
H271 H 0.86572 0.37408 0.65948 0.0
H272 H 0.87016 0.25817 0.60705 0.0
H273 H 0.97848 0.26384 0.61227 0.0
C274 C 0.04788 0.31529 0.64518 0.0
C275 C 0.07745 0.3425 0.66358 0.0
C276 C 0.98546 0.32142 0.63929 0.0
C277 C 0.04491 0.38166 0.67437 0.0
C278 C 0.9833 0.38792 0.66866 0.0
C279 C 0.89027 0.35253 0.64858 0.0
C280 C 0.86007 0.31617 0.63281 0.0
C281 C 0.95275 0.35555 0.65185 0.0
C282 C 0.89243 0.28731 0.61906 0.0
C283 C 0.95455 0.28986 0.62225 0.0
H284 H 0.28676 0.36988 0.65061 0.0
H285 H 0.32082 0.19916 0.67944 0.0
H286 H 0.41415 0.19005 0.66621 0.0
H287 H 0.48563 0.22938 0.64536 0.0
H288 H 0.44904 0.39844 0.61558 0.0
H289 H 0.35798 0.40925 0.63013 0.0
C290 C 0.31419 0.33039 0.65377 0.0
C291 C 0.29659 0.28549 0.66606 0.0
C292 C 0.36796 0.32519 0.64602 0.0
C293 C 0.33339 0.23487 0.67022 0.0
C294 C 0.38689 0.22948 0.66263 0.0
C295 C 0.4582 0.26893 0.64244 0.0
C296 C 0.47432 0.31325 0.62959 0.0
C297 C 0.40483 0.2744 0.65052 0.0
C298 C 0.43761 0.36375 0.62549 0.0
C299 C 0.38535 0.36991 0.63373 0.0
H300 H 0.53077 0.90384 0.16628 0.0
H301 H 0.5926 0.76006 0.13161 0.0
H302 H 0.49228 0.74763 0.11202 0.0
H303 H 0.38503 0.76432 0.11017 0.0
H304 H 0.3216 0.90591 0.14516 0.0
H305 H 0.42422 0.93369 0.15882 0.0
C306 C 0.5224 0.8708 0.15405 0.0
C307 C 0.56897 0.83234 0.15063 0.0
C308 C 0.46419 0.86336 0.143 0.0
C309 C 0.55773 0.79024 0.13456 0.0
C310 C 0.50019 0.7828 0.12345 0.0
C311 C 0.39382 0.80294 0.12002 0.0
C312 C 0.34617 0.83319 0.12666 0.0
C313 C 0.45276 0.8173 0.12823 0.0
C314 C 0.35768 0.88259 0.13963 0.0
C315 C 0.41639 0.89778 0.1477 0.0
H316 H 0.43933 0.31707 0.83242 0.0
H317 H 0.42435 0.15854 0.79534 0.0
H318 H 0.32878 0.13899 0.80532 0.0
H319 H 0.2471 0.16805 0.82363 0.0
H320 H 0.26246 0.32392 0.86201 0.0
H321 H 0.35938 0.34315 0.8526 0.0
C322 C 0.41563 0.27773 0.82687 0.0
C323 C 0.43901 0.23972 0.81296 0.0
C324 C 0.3601 0.26651 0.83271 0.0
C325 C 0.40727 0.18905 0.80584 0.0
C326 C 0.3524 0.17778 0.81151 0.0
C327 C 0.2715 0.2064 0.82982 0.0
C328 C 0.24711 0.24485 0.84328 0.0
C329 C 0.32782 0.21664 0.82465 0.0
C330 C 0.28001 0.29371 0.85152 0.0
C331 C 0.33559 0.30472 0.84617 0.0
H332 H 0.2257 0.88198 0.31389 0.0
H333 H 0.15706 0.72394 0.3364 0.0
H334 H 0.25714 0.69292 0.3528 0.0
H335 H 0.36467 0.70195 0.35506 0.0
H336 H 0.43537 0.85808 0.33231 0.0
H337 H 0.33418 0.89912 0.3219 0.0
C338 C 0.23261 0.84138 0.3228 0.0
C339 C 0.18388 0.80492 0.32365 0.0
C340 C 0.29073 0.82319 0.33189 0.0
C341 C 0.19345 0.75294 0.33552 0.0
C342 C 0.25086 0.73485 0.34474 0.0
C343 C 0.3579 0.74575 0.34838 0.0
C344 C 0.40705 0.77681 0.34421 0.0
C345 C 0.29989 0.76833 0.34221 0.0
C346 C 0.39811 0.83355 0.3357 0.0
C347 C 0.34024 0.85663 0.32956 0.0
H348 H 0.75506 0.8696 0.58267 0.0
H349 H 0.58163 0.89563 0.54472 0.0
H350 H 0.57828 0.99731 0.55694 0.0
H351 H 0.62272 0.07771 0.58033 0.0
H352 H 0.79567 0.04864 0.61842 0.0
H353 H 0.80094 0.95001 0.60431 0.0
C354 C 0.71635 0.89737 0.57716 0.0
C355 C 0.66858 0.87473 0.56294 0.0
C356 C 0.71459 0.95563 0.5843 0.0
C357 C 0.61926 0.9119 0.55562 0.0
C358 C 0.61719 0.97008 0.56266 0.0
C359 C 0.66187 0.05009 0.58518 0.0
C360 C 0.70856 0.07058 0.60046 0.0
C361 C 0.66442 0.99242 0.57718 0.0
C362 C 0.7588 0.03389 0.60681 0.0
C363 C 0.76193 0.9773 0.59878 0.0
H364 H 0.27051 0.12335 0.05508 0.0
H365 H 0.13806 0.20801 0.08575 0.0
H366 H 0.13062 0.11903 0.10579 0.0
H367 H 0.14742 0.01296 0.1096 0.0
H368 H 0.27301 0.92459 0.07721 0.0
H369 H 0.29858 0.01904 0.06321 0.0
C370 C 0.24049 0.12252 0.06632 0.0
C371 C 0.2042 0.17237 0.06861 0.0
C372 C 0.23523 0.07035 0.07748 0.0
C373 C 0.16667 0.17078 0.08364 0.0
C374 C 0.16205 0.11961 0.09504 0.0
C375 C 0.18226 0.01484 0.10018 0.0
C376 C 0.20856 0.96221 0.09448 0.0
C377 C 0.19432 0.06862 0.09147 0.0
C378 C 0.25295 0.9647 0.08207 0.0
C379 C 0.26666 0.01861 0.07377 0.0
H380 H 0.57595 0.1196 0.37664 0.0
H381 H 0.48633 0.06249 0.42621 0.0
H382 H 0.47711 0.96417 0.41094 0.0
H383 H 0.51169 0.89058 0.38746 0.0
H384 H 0.60709 0.94723 0.33953 0.0
H385 H 0.59443 0.04967 0.34946 0.0
C386 C 0.55275 0.08621 0.38374 0.0
C387 C 0.53304 0.09806 0.40278 0.0
C388 C 0.54856 0.02942 0.37509 0.0
C389 C 0.50324 0.05407 0.41181 0.0
C390 C 0.49775 0.99785 0.40305 0.0
C391 C 0.52718 0.92567 0.37862 0.0
C392 C 0.56015 0.91175 0.36281 0.0
C393 C 0.52261 0.9843 0.38522 0.0
C394 C 0.58125 0.95727 0.35169 0.0
C395 C 0.57473 0.01574 0.35756 0.0
H396 H 0.09748 0.83006 0.92471 0.0
H397 H 0.97023 0.75707 0.87431 0.0
H398 H 0.96501 0.84937 0.85521 0.0
H399 H 0.9937 0.95026 0.85302 0.0
H400 H 0.11974 0.02693 0.90284 0.0
H401 H 0.12719 0.93373 0.92227 0.0
C402 C 0.0684 0.83448 0.90959 0.0
C403 C 0.03448 0.78633 0.90093 0.0
C404 C 0.06493 0.8883 0.89872 0.0
C405 C -0.00236 0.79274 0.8812 0.0
C406 C 0.99419 0.84575 0.87033 0.0
C407 C 0.02311 0.94704 0.86813 0.0
C408 C 0.05589 0.99594 0.8765 0.0
C409 C 0.02735 0.8937 0.87898 0.0
C410 C 0.09349 0.99038 0.89612 0.0
C411 C 0.09794 0.93696 0.90716 0.0
H412 H 0.1283 0.17768 -0.00718 0.0
H413 H 0.25451 0.31534 -0.00782 0.0
H414 H 0.25613 0.29624 0.95503 0.0
H415 H 0.21964 0.24302 0.92274 0.0
H416 H 0.086 0.11201 0.92185 0.0
H417 H 0.09169 0.12349 0.95988 0.0
C418 C 0.15638 0.20318 0.98453 0.0
C419 C 0.19108 0.2481 -0.0048 0.0
C420 C 0.15648 0.19243 0.96305 0.0
C421 C 0.22688 0.28114 0.98425 0.0
C422 C 0.22815 0.26991 0.96307 0.0
C423 C 0.19161 0.21692 0.93075 0.0
C424 C 0.15216 0.177 0.91932 0.0
C425 C 0.1928 0.22605 0.9523 0.0
C426 C 0.11727 0.14262 0.93022 0.0
C427 C 0.11992 0.14976 0.95194 0.0
H428 H 0.02233 0.75766 0.24117 0.0
H429 H 0.13298 0.90881 0.25469 0.0
H430 H 0.15476 0.90644 0.219 0.0
H431 H 0.15378 0.8528 0.1859 0.0
H432 H 0.04824 0.69854 0.173 0.0
H433 H 0.01135 0.71136 0.20621 0.0
C434 C 0.04979 0.79106 0.23609 0.0
C435 C 0.07654 0.833 0.25057 0.0
C436 C 0.06314 0.78859 0.21569 0.0
C437 C 0.11257 0.87567 0.24387 0.0
C438 C 0.12505 0.8743 0.22349 0.0
C439 C 0.12144 0.82311 0.1902 0.0
C440 C 0.10289 0.77535 0.17715 0.0
C441 C 0.10235 0.8297 0.20956 0.0
C442 C 0.06201 0.73619 0.1828 0.0
C443 C 0.04151 0.74323 0.20183 0.0
H444 H 0.70048 0.66267 0.50224 0.0
H445 H 0.5541 0.78592 0.5017 0.0
H446 H 0.52551 0.77396 0.46379 0.0
H447 H 0.55187 0.74126 0.43047 0.0
H448 H 0.70064 0.62248 0.43036 0.0
H449 H 0.71683 0.61724 0.46887 0.0
C450 C 0.66151 0.68585 0.4939 0.0
C451 C 0.6304 0.72632 0.50474 0.0
C452 C 0.64541 0.67898 0.47199 0.0
C453 C 0.57995 0.75594 0.49367 0.0
C454 C 0.56322 0.74874 0.47201 0.0
C455 C 0.58607 0.71214 0.43891 0.0
C456 C 0.62447 0.68158 0.42775 0.0
C457 C 0.59689 0.71208 0.46094 0.0
C458 C 0.66961 0.64505 0.43868 0.0
C459 C 0.67959 0.64316 0.4607 0.0
H460 H 0.5282 0.33697 0.739 0.0
H461 H 0.54492 0.15378 0.75581 0.0
H462 H 0.56788 0.12898 0.7212 0.0
H463 H 0.59916 0.16173 0.68878 0.0
H464 H 0.58062 0.34424 0.67113 0.0
H465 H 0.54069 0.36726 0.70313 0.0
C466 C 0.53512 0.29159 0.73472 0.0
C467 C 0.53531 0.2471 0.74974 0.0
C468 C 0.5484 0.27778 0.71479 0.0
C469 C 0.54446 0.18841 0.74431 0.0
C470 C 0.55792 0.17435 0.72463 0.0
C471 C 0.58488 0.20625 0.69174 0.0
C472 C 0.59355 0.25146 0.67797 0.0
C473 C 0.5624 0.21894 0.71012 0.0
C474 C 0.57439 0.30889 0.68165 0.0
C475 C 0.55206 0.32205 0.7 0.0
H476 H 0.12123 0.64417 0.97706 0.0
H477 H 0.94208 0.71435 0.96392 0.0
H478 H 0.94129 0.72432 0.0016 0.0
H479 H -0.00401 0.72643 0.03734 0.0
H480 H 0.17962 0.66951 0.05081 0.0
H481 H 0.17392 0.63785 0.01412 0.0
C482 C 0.08202 0.66088 0.98263 0.0
C483 C 0.03196 0.67928 0.96807 0.0
C484 C 0.08275 0.66819 0.00427 0.0
C485 C 0.98108 0.70076 0.97508 0.0
C486 C 0.98063 0.70617 -0.00348 0.0
C487 C 0.03438 0.70572 0.03233 0.0
C488 C 0.08823 0.70064 0.04655 0.0
C489 C 0.0318 0.69183 0.01115 0.0
C490 C 0.13761 0.67343 0.04009 0.0
C491 C 0.13454 0.65631 0.01907 0.0
H492 H 0.72069 0.72183 0.22758 0.0
H493 H 0.62226 0.88574 0.22669 0.0
H494 H 0.60346 0.86671 0.26213 0.0
H495 H 0.60539 0.79844 0.29157 0.0
H496 H 0.69721 0.6315 0.29168 0.0
H497 H 0.72965 0.65686 0.25857 0.0
C498 C 0.69625 0.75385 0.23537 0.0
C499 C 0.67251 0.80492 0.22456 0.0
C500 C 0.68437 0.74186 0.25554 0.0
C501 C 0.64036 0.84586 0.23467 0.0
C502 C 0.62966 0.83503 0.2549 0.0
C503 C 0.63355 0.76833 0.28446 0.0
C504 C 0.6493 0.71349 0.29379 0.0
C505 C 0.64999 0.78247 0.26521 0.0
C506 C 0.68505 0.67408 0.2846 0.0
C507 C 0.70321 0.68851 0.2657 0.0
H508 H 0.54961 0.13904 0.47772 0.0
H509 H 0.68958 0.25495 0.46851 0.0
H510 H 0.72269 0.26114 0.50645 0.0
H511 H 0.70094 0.24748 0.54181 0.0
H512 H 0.55706 0.13808 0.55134 0.0
H513 H 0.53805 0.11274 0.51384 0.0
C514 C 0.58822 0.16448 0.48402 0.0
C515 C 0.6163 0.19759 0.47036 0.0
C516 C 0.60655 0.16848 0.50592 0.0
C517 C 0.66626 0.23038 0.47874 0.0
C518 C 0.68548 0.23361 0.50041 0.0
C519 C 0.66725 0.21595 0.53575 0.0
C520 C 0.6309 0.19393 0.54914 0.0
C521 C 0.65455 0.2047 0.51412 0.0
C522 C 0.58635 0.15435 0.54128 0.0
C523 C 0.57481 0.1409 0.51979 0.0
H524 H 0.15136 0.17746 0.71599 0.0
H525 H 0.23862 0.33107 0.7441 0.0
H526 H 0.2189 0.30149 0.77876 0.0
H527 H 0.16285 0.23969 0.79942 0.0
H528 H 0.07321 0.08764 0.77036 0.0
H529 H 0.10776 0.10865 0.73765 0.0
C530 C 0.16731 0.20344 0.72988 0.0
C531 C 0.19621 0.25606 0.72777 0.0
C532 C 0.15444 0.18695 0.74941 0.0
C533 C 0.21653 0.29011 0.74561 0.0
C534 C 0.2048 0.27345 0.76529 0.0
C535 C 0.15241 0.2102 0.78614 0.0
C536 C 0.11513 0.16244 0.78726 0.0
C537 C 0.17179 0.22306 0.76721 0.0
C538 C 0.10123 0.12511 0.7698 0.0
C539 C 0.12098 0.13704 0.75109 0.0
loop_
_geom_bond_atom_site_label_1
_geom_bond_atom_site_label_2
_geom_bond_distance
_geom_bond_site_symmetry_2
_ccdc_geom_bond_type
H0 C3 0.931 . S
H1 C6 0.928 . S
H2 C8 0.930 . S
C3 H0 0.931 . S
C3 C4 1.413 . S
C3 C5 1.360 . S
C4 C3 1.413 . S
C4 C8 1.429 . S
C5 C3 1.360 . S
C5 C6 1.372 . S
C6 H1 0.928 . S
C6 C5 1.372 . S
C6 C7 1.404 . S
C7 C6 1.404 . S
C7 C8 1.391 . S
C8 H2 0.930 . S
C8 C4 1.429 . S
C8 C7 1.391 . S
H9 C12 0.931 . S
H10 C15 0.928 . S
H11 C17 0.930 . S
C12 H9 0.931 . S
C12 C13 1.413 . S
C12 C14 1.360 . S
C13 C12 1.413 . S
C13 C17 1.429 . S
C14 C12 1.360 . S
C14 C15 1.372 . S
C15 H10 0.928 . S
C15 C14 1.372 . S
C15 C16 1.404 . S
C16 C15 1.404 . S
C16 C17 1.391 . S
C17 H11 0.930 . S
C17 C13 1.429 . S
C17 C16 1.391 . S
H18 C21 0.931 . S
H19 C24 0.928 . S
H20 C26 0.930 . S
C21 H18 0.931 . S
C21 C22 1.413 . S
C21 C23 1.360 . S
C22 C21 1.413 . S
C22 C26 1.429 . S
C23 C21 1.360 . S
C23 C24 1.372 . S
C24 H19 0.928 . S
C24 C23 1.372 . S
C24 C25 1.404 . S
C25 C24 1.404 . S
C25 C26 1.391 . S
C26 H20 0.930 . S
C26 C22 1.429 . S
C26 C25 1.391 . S
H27 C30 0.931 . S
H28 C33 0.928 . S
H29 C35 0.930 . S
C30 H27 0.931 . S
C30 C31 1.413 . S
C30 C32 1.360 . S
C31 C30 1.413 . S
C31 C35 1.429 . S
C32 C30 1.360 . S
C32 C33 1.372 . S
C33 H28 0.928 . S
C33 C32 1.372 . S
C33 C34 1.404 . S
C34 C33 1.404 . S
C34 C35 1.391 . S
C35 H29 0.930 . S
C35 C31 1.429 . S
C35 C34 1.391 . S
H36 C39 0.931 . S
H37 C42 0.928 . S
H38 C44 0.930 . S
C39 H36 0.931 . S
C39 C40 1.413 . S
C39 C41 1.360 . S
C40 C39 1.413 . S
C40 C44 1.429 . S
C41 C39 1.360 . S
C41 C42 1.372 . S
C42 H37 0.928 . S
C42 C41 1.372 . S
C42 C43 1.404 . S
C43 C42 1.404 . S
C43 C44 1.391 . S
C44 H38 0.930 . S
C44 C40 1.429 . S
C44 C43 1.391 . S
H45 C48 0.931 . S
H46 C51 0.928 . S
H47 C53 0.930 . S
C48 H45 0.931 . S
C48 C49 1.413 . S
C48 C50 1.360 . S
C49 C48 1.413 . S
C49 C53 1.429 . S
C50 C48 1.360 . S
C50 C51 1.372 . S
C51 H46 0.928 . S
C51 C50 1.372 . S
C51 C52 1.404 . S
C52 C51 1.404 . S
C52 C53 1.391 . S
C53 H47 0.930 . S
C53 C49 1.429 . S
C53 C52 1.391 . S
H54 C57 0.931 . S
H55 C60 0.928 . S
H56 C62 0.930 . S
C57 H54 0.931 . S
C57 C58 1.413 . S
C57 C59 1.360 . S
C58 C57 1.413 . S
C58 C62 1.429 . S
C59 C57 1.360 . S
C59 C60 1.372 . S
C60 H55 0.928 . S
C60 C59 1.372 . S
C60 C61 1.404 . S
C61 C60 1.404 . S
C61 C62 1.391 . S
C62 H56 0.930 . S
C62 C58 1.429 . S
C62 C61 1.391 . S
H63 C66 0.931 . S
H64 C69 0.928 . S
H65 C71 0.930 . S
C66 H63 0.931 . S
C66 C67 1.413 . S
C66 C68 1.360 . S
C67 C66 1.413 . S
C67 C71 1.429 . S
C68 C66 1.360 . S
C68 C69 1.372 . S
C69 H64 0.928 . S
C69 C68 1.372 . S
C69 C70 1.404 . S
C70 C69 1.404 . S
C70 C71 1.391 . S
C71 H65 0.930 . S
C71 C67 1.429 . S
C71 C70 1.391 . S
Zn72 O78 1.920 . S
Zn72 O84 1.898 . S
Zn72 O87 1.905 . S
Zn73 O81 1.905 . S
Zn73 O82 1.898 . S
Zn73 O90 1.920 1_455 S
Zn74 O77 2.080 . S
Zn74 O80 2.114 . S
Zn74 O83 2.120 . S
Zn74 O85 2.120 . S
Zn74 O86 2.114 . S
Zn74 O89 2.080 . S
C75 O80 1.166 . S
C75 O81 1.182 . S
C76 O82 1.167 . S
C76 O83 1.299 . S
O77 Zn74 2.080 . S
O77 C91 1.305 . S
O78 Zn72 1.920 . S
O78 C91 1.234 . S
C79 O84 1.167 . S
C79 O85 1.299 . S
O80 Zn74 2.114 . S
O80 C75 1.166 . S
O81 Zn73 1.905 . S
O81 C75 1.182 . S
O82 Zn73 1.898 . S
O82 C76 1.167 . S
O83 Zn74 2.120 . S
O83 C76 1.299 . S
O84 Zn72 1.898 . S
O84 C79 1.167 . S
O85 Zn74 2.120 . S
O85 C79 1.299 . S
O86 Zn74 2.114 . S
O86 C88 1.166 . S
O87 Zn72 1.905 . S
O87 C88 1.182 . S
C88 O86 1.166 . S
C88 O87 1.182 . S
O89 Zn74 2.080 . S
O89 C92 1.305 1_455 S
O90 Zn73 1.920 1_655 S
O90 C92 1.234 . S
C91 O77 1.305 . S
C91 O78 1.234 . S
C92 O89 1.305 1_655 S
C92 O90 1.234 . S
Zn93 O99 1.920 . S
Zn93 O105 1.898 . S
Zn93 O108 1.905 . S
Zn94 O102 1.905 . S
Zn94 O103 1.898 . S
Zn94 O111 1.920 . S
Zn95 O98 2.080 . S
Zn95 O101 2.114 . S
Zn95 O104 2.120 . S
Zn95 O106 2.120 . S
Zn95 O107 2.114 . S
Zn95 O110 2.080 . S
C96 O101 1.166 . S
C96 O102 1.182 . S
C97 O103 1.167 . S
C97 O104 1.299 . S
O98 Zn95 2.080 . S
O98 C112 1.305 . S
O99 Zn93 1.920 . S
O99 C112 1.234 . S
C100 O105 1.167 . S
C100 O106 1.299 . S
O101 Zn95 2.114 . S
O101 C96 1.166 . S
O102 Zn94 1.905 . S
O102 C96 1.182 . S
O103 Zn94 1.898 . S
O103 C97 1.167 . S
O104 Zn95 2.120 . S
O104 C97 1.299 . S
O105 Zn93 1.898 . S
O105 C100 1.167 . S
O106 Zn95 2.120 . S
O106 C100 1.299 . S
O107 Zn95 2.114 . S
O107 C109 1.166 . S
O108 Zn93 1.905 . S
O108 C109 1.182 . S
C109 O107 1.166 . S
C109 O108 1.182 . S
O110 Zn95 2.080 . S
O110 C113 1.305 . S
O111 Zn94 1.920 . S
O111 C113 1.234 . S
C112 O98 1.305 . S
C112 O99 1.234 . S
C113 O110 1.305 . S
C113 O111 1.234 . S
Zn114 O120 1.920 . S
Zn114 O126 1.898 . S
Zn114 O129 1.905 . S
Zn115 O123 1.905 . S
Zn115 O124 1.898 . S
Zn115 O132 1.920 . S
Zn116 O119 2.080 . S
Zn116 O122 2.114 . S
Zn116 O125 2.120 . S
Zn116 O127 2.120 . S
Zn116 O128 2.114 . S
Zn116 O131 2.080 . S
C117 O122 1.166 . S
C117 O123 1.182 . S
C118 O124 1.167 . S
C118 O125 1.299 . S
O119 Zn116 2.080 . S
O119 C133 1.305 . S
O120 Zn114 1.920 . S
O120 C133 1.234 . S
C121 O126 1.167 . S
C121 O127 1.299 . S
O122 Zn116 2.114 . S
O122 C117 1.166 . S
O123 Zn115 1.905 . S
O123 C117 1.182 . S
O124 Zn115 1.898 . S
O124 C118 1.167 . S
O125 Zn116 2.120 . S
O125 C118 1.299 . S
O126 Zn114 1.898 . S
O126 C121 1.167 . S
O127 Zn116 2.120 . S
O127 C121 1.299 . S
O128 Zn116 2.114 . S
O128 C130 1.166 . S
O129 Zn114 1.905 . S
O129 C130 1.182 . S
C130 O128 1.166 . S
C130 O129 1.182 . S
O131 Zn116 2.080 . S
O131 C134 1.305 . S
O132 Zn115 1.920 . S
O132 C134 1.234 . S
C133 O119 1.305 . S
C133 O120 1.234 . S
C134 O131 1.305 . S
C134 O132 1.234 . S
Zn135 O141 1.920 . S
Zn135 O147 1.898 . S
Zn135 O150 1.905 1_455 S
Zn136 O144 1.905 . S
Zn136 O145 1.898 . S
Zn136 O153 1.920 . S
Zn137 O140 2.080 . S
Zn137 O143 2.114 . S
Zn137 O146 2.120 . S
Zn137 O148 2.120 . S
Zn137 O149 2.114 . S
Zn137 O152 2.080 . S
C138 O143 1.166 . S
C138 O144 1.182 . S
C139 O145 1.167 . S
C139 O146 1.299 . S
O140 Zn137 2.080 . S
O140 C154 1.305 . S
O141 Zn135 1.920 . S
O141 C154 1.234 . S
C142 O147 1.167 . S
C142 O148 1.299 . S
O143 Zn137 2.114 . S
O143 C138 1.166 . S
O144 Zn136 1.905 . S
O144 C138 1.182 . S
O145 Zn136 1.898 . S
O145 C139 1.167 . S
O146 Zn137 2.120 . S
O146 C139 1.299 . S
O147 Zn135 1.898 . S
O147 C142 1.167 . S
O148 Zn137 2.120 . S
O148 C142 1.299 . S
O149 Zn137 2.114 . S
O149 C151 1.166 1_455 S
O150 Zn135 1.905 1_655 S
O150 C151 1.182 . S
C151 O149 1.166 1_655 S
C151 O150 1.182 . S
O152 Zn137 2.080 . S
O152 C155 1.305 . S
O153 Zn136 1.920 . S
O153 C155 1.234 . S
C154 O140 1.305 . S
C154 O141 1.234 . S
C155 O152 1.305 . S
C155 O153 1.234 . S
H156 C162 0.930 . S
H157 C165 0.930 . S
H158 C166 0.930 . S
H159 C167 0.930 . S
H160 C170 0.930 . S
H161 C171 0.930 . S
C162 H156 0.930 . S
C162 C163 1.355 . S
C162 C164 1.415 . S
C163 C162 1.355 . S
C163 C165 1.419 . S
C164 C162 1.415 . S
C164 C169 1.425 . S
C164 C171 1.409 . S
C165 H157 0.930 . S
C165 C163 1.419 . S
C165 C166 1.362 . S
C166 H158 0.930 . S
C166 C165 1.362 . S
C166 C169 1.409 . S
C167 H159 0.930 . S
C167 C168 1.355 . S
C167 C169 1.415 . S
C168 C167 1.355 . S
C168 C170 1.419 . S
C169 C164 1.425 . S
C169 C166 1.409 . S
C169 C167 1.415 . S
C170 H160 0.930 . S
C170 C168 1.419 . S
C170 C171 1.362 . S
C171 H161 0.930 . S
C171 C164 1.409 . S
C171 C170 1.362 . S
H172 C178 0.930 1_455 S
H173 C181 0.930 . S
H174 C182 0.930 . S
H175 C183 0.930 . S
H176 C186 0.930 . S
H177 C187 0.930 . S
C178 H172 0.930 1_655 S
C178 C179 1.355 1_655 S
C178 C180 1.415 . S
C179 C178 1.355 1_455 S
C179 C181 1.419 1_455 S
C180 C178 1.415 . S
C180 C185 1.425 . S
C180 C187 1.409 . S
C181 H173 0.930 . S
C181 C179 1.419 1_655 S
C181 C182 1.362 . S
C182 H174 0.930 . S
C182 C181 1.362 . S
C182 C185 1.409 . S
C183 H175 0.930 . S
C183 C184 1.355 . S
C183 C185 1.415 . S
C184 C183 1.355 . S
C184 C186 1.419 . S
C185 C180 1.425 . S
C185 C182 1.409 . S
C185 C183 1.415 . S
C186 H176 0.930 . S
C186 C184 1.419 . S
C186 C187 1.362 . S
C187 H177 0.930 . S
C187 C180 1.409 . S
C187 C186 1.362 . S
H188 C194 0.930 . S
H189 C197 0.930 . S
H190 C198 0.930 . S
H191 C199 0.930 . S
H192 C202 0.930 . S
H193 C203 0.930 . S
C194 H188 0.930 . S
C194 C195 1.355 . S
C194 C196 1.415 . S
C195 C194 1.355 . S
C195 C197 1.419 . S
C196 C194 1.415 . S
C196 C201 1.425 . S
C196 C203 1.409 . S
C197 H189 0.930 . S
C197 C195 1.419 . S
C197 C198 1.362 . S
C198 H190 0.930 . S
C198 C197 1.362 . S
C198 C201 1.409 . S
C199 H191 0.930 . S
C199 C200 1.355 . S
C199 C201 1.415 . S
C200 C199 1.355 . S
C200 C202 1.419 . S
C201 C196 1.425 . S
C201 C198 1.409 . S
C201 C199 1.415 . S
C202 H192 0.930 . S
C202 C200 1.419 . S
C202 C203 1.362 . S
C203 H193 0.930 . S
C203 C196 1.409 . S
C203 C202 1.362 . S
H204 C210 0.930 . S
H205 C213 0.930 . S
H206 C214 0.930 . S
H207 C215 0.930 . S
H208 C218 0.930 . S
H209 C219 0.930 . S
C210 H204 0.930 . S
C210 C211 1.355 . S
C210 C212 1.415 . S
C211 C210 1.355 . S
C211 C213 1.419 . S
C212 C210 1.415 . S
C212 C217 1.425 . S
C212 C219 1.409 . S
C213 H205 0.930 . S
C213 C211 1.419 . S
C213 C214 1.362 . S
C214 H206 0.930 . S
C214 C213 1.362 . S
C214 C217 1.409 . S
C215 H207 0.930 . S
C215 C216 1.355 . S
C215 C217 1.415 . S
C216 C215 1.355 . S
C216 C218 1.419 . S
C217 C212 1.425 . S
C217 C214 1.409 . S
C217 C215 1.415 . S
C218 H208 0.930 . S
C218 C216 1.419 . S
C218 C219 1.362 . S
C219 H209 0.930 . S
C219 C212 1.409 . S
C219 C218 1.362 . S
H220 C226 0.930 . S
H221 C229 0.930 1_655 S
H222 C230 0.930 1_655 S
H223 C231 0.930 . S
H224 C234 0.930 . S
H225 C235 0.930 . S
C226 H220 0.930 . S
C226 C227 1.355 . S
C226 C228 1.415 . S
C227 C226 1.355 . S
C227 C229 1.419 . S
C228 C226 1.415 . S
C228 C233 1.425 . S
C228 C235 1.409 . S
C229 H221 0.930 1_455 S
C229 C227 1.419 . S
C229 C230 1.362 . S
C230 H222 0.930 1_455 S
C230 C229 1.362 . S
C230 C233 1.409 . S
C231 H223 0.930 . S
C231 C232 1.355 . S
C231 C233 1.415 . S
C232 C231 1.355 . S
C232 C234 1.419 . S
C233 C228 1.425 . S
C233 C230 1.409 . S
C233 C231 1.415 . S
C234 H224 0.930 . S
C234 C232 1.419 . S
C234 C235 1.362 . S
C235 H225 0.930 . S
C235 C228 1.409 . S
C235 C234 1.362 . S
H236 C242 0.930 . S
H237 C245 0.930 . S
H238 C246 0.930 . S
H239 C247 0.930 . S
H240 C250 0.930 . S
H241 C251 0.930 . S
C242 H236 0.930 . S
C242 C243 1.355 . S
C242 C244 1.415 . S
C243 C242 1.355 . S
C243 C245 1.419 . S
C244 C242 1.415 . S
C244 C249 1.425 . S
C244 C251 1.409 . S
C245 H237 0.930 . S
C245 C243 1.419 . S
C245 C246 1.362 . S
C246 H238 0.930 . S
C246 C245 1.362 . S
C246 C249 1.409 . S
C247 H239 0.930 . S
C247 C248 1.355 . S
C247 C249 1.415 . S
C248 C247 1.355 . S
C248 C250 1.419 . S
C249 C244 1.425 . S
C249 C246 1.409 . S
C249 C247 1.415 . S
C250 H240 0.930 . S
C250 C248 1.419 . S
C250 C251 1.362 . S
C251 H241 0.930 . S
C251 C244 1.409 . S
C251 C250 1.362 . S
H252 C258 0.930 . S
H253 C261 0.930 . S
H254 C262 0.930 . S
H255 C263 0.930 . S
H256 C266 0.930 . S
H257 C267 0.930 . S
C258 H252 0.930 . S
C258 C259 1.355 . S
C258 C260 1.415 . S
C259 C258 1.355 . S
C259 C261 1.419 . S
C260 C258 1.415 . S
C260 C265 1.425 . S
C260 C267 1.409 . S
C261 H253 0.930 . S
C261 C259 1.419 . S
C261 C262 1.362 . S
C262 H254 0.930 . S
C262 C261 1.362 . S
C262 C265 1.409 . S
C263 H255 0.930 . S
C263 C264 1.355 . S
C263 C265 1.415 . S
C264 C263 1.355 . S
C264 C266 1.419 . S
C265 C260 1.425 . S
C265 C262 1.409 . S
C265 C263 1.415 . S
C266 H256 0.930 . S
C266 C264 1.419 . S
C266 C267 1.362 . S
C267 H257 0.930 . S
C267 C260 1.409 . S
C267 C266 1.362 . S
H268 C274 0.930 1_455 S
H269 C277 0.930 . S
H270 C278 0.930 . S
H271 C279 0.930 . S
H272 C282 0.930 . S
H273 C283 0.930 . S
C274 H268 0.930 1_655 S
C274 C275 1.355 1_655 S
C274 C276 1.415 . S
C275 C274 1.355 1_455 S
C275 C277 1.419 . S
C276 C274 1.415 . S
C276 C281 1.425 . S
C276 C283 1.409 . S
C277 H269 0.930 . S
C277 C275 1.419 . S
C277 C278 1.362 1_455 S
C278 H270 0.930 . S
C278 C277 1.362 1_655 S
C278 C281 1.409 . S
C279 H271 0.930 . S
C279 C280 1.355 . S
C279 C281 1.415 . S
C280 C279 1.355 . S
C280 C282 1.419 . S
C281 C276 1.425 . S
C281 C278 1.409 . S
C281 C279 1.415 . S
C282 H272 0.930 . S
C282 C280 1.419 . S
C282 C283 1.362 . S
C283 H273 0.930 . S
C283 C276 1.409 . S
C283 C282 1.362 . S
H284 C290 0.930 . S
H285 C293 0.930 . S
H286 C294 0.930 . S
H287 C295 0.930 . S
H288 C298 0.930 . S
H289 C299 0.930 . S
C290 H284 0.930 . S
C290 C291 1.355 . S
C290 C292 1.415 . S
C291 C290 1.355 . S
C291 C293 1.419 . S
C292 C290 1.415 . S
C292 C297 1.425 . S
C292 C299 1.409 . S
C293 H285 0.930 . S
C293 C291 1.419 . S
C293 C294 1.362 . S
C294 H286 0.930 . S
C294 C293 1.362 . S
C294 C297 1.409 . S
C295 H287 0.930 . S
C295 C296 1.355 . S
C295 C297 1.415 . S
C296 C295 1.355 . S
C296 C298 1.419 . S
C297 C292 1.425 . S
C297 C294 1.409 . S
C297 C295 1.415 . S
C298 H288 0.930 . S
C298 C296 1.419 . S
C298 C299 1.362 . S
C299 H289 0.930 . S
C299 C292 1.409 . S
C299 C298 1.362 . S
H300 C306 0.930 . S
H301 C309 0.930 . S
H302 C310 0.930 . S
H303 C311 0.930 . S
H304 C314 0.930 . S
H305 C315 0.930 . S
C306 H300 0.930 . S
C306 C307 1.355 . S
C306 C308 1.415 . S
C307 C306 1.355 . S
C307 C309 1.419 . S
C308 C306 1.415 . S
C308 C313 1.425 . S
C308 C315 1.409 . S
C309 H301 0.930 . S
C309 C307 1.419 . S
C309 C310 1.362 . S
C310 H302 0.930 . S
C310 C309 1.362 . S
C310 C313 1.409 . S
C311 H303 0.930 . S
C311 C312 1.355 . S
C311 C313 1.415 . S
C312 C311 1.355 . S
C312 C314 1.419 . S
C313 C308 1.425 . S
C313 C310 1.409 . S
C313 C311 1.415 . S
C314 H304 0.930 . S
C314 C312 1.419 . S
C314 C315 1.362 . S
C315 H305 0.930 . S
C315 C308 1.409 . S
C315 C314 1.362 . S
H316 C322 0.930 . S
H317 C325 0.930 . S
H318 C326 0.930 . S
H319 C327 0.930 . S
H320 C330 0.930 . S
H321 C331 0.930 . S
C322 H316 0.930 . S
C322 C323 1.355 . S
C322 C324 1.415 . S
C323 C322 1.355 . S
C323 C325 1.419 . S
C324 C322 1.415 . S
C324 C329 1.425 . S
C324 C331 1.409 . S
C325 H317 0.930 . S
C325 C323 1.419 . S
C325 C326 1.362 . S
C326 H318 0.930 . S
C326 C325 1.362 . S
C326 C329 1.409 . S
C327 H319 0.930 . S
C327 C328 1.355 . S
C327 C329 1.415 . S
C328 C327 1.355 . S
C328 C330 1.419 . S
C329 C324 1.425 . S
C329 C326 1.409 . S
C329 C327 1.415 . S
C330 H320 0.930 . S
C330 C328 1.419 . S
C330 C331 1.362 . S
C331 H321 0.930 . S
C331 C324 1.409 . S
C331 C330 1.362 . S
H332 C338 0.930 . S
H333 C341 0.930 . S
H334 C342 0.930 . S
H335 C343 0.930 . S
H336 C346 0.930 . S
H337 C347 0.930 . S
C338 H332 0.930 . S
C338 C339 1.355 . S
C338 C340 1.415 . S
C339 C338 1.355 . S
C339 C341 1.419 . S
C340 C338 1.415 . S
C340 C345 1.425 . S
C340 C347 1.409 . S
C341 H333 0.930 . S
C341 C339 1.419 . S
C341 C342 1.362 . S
C342 H334 0.930 . S
C342 C341 1.362 . S
C342 C345 1.409 . S
C343 H335 0.930 . S
C343 C344 1.355 . S
C343 C345 1.415 . S
C344 C343 1.355 . S
C344 C346 1.419 . S
C345 C340 1.425 . S
C345 C342 1.409 . S
C345 C343 1.415 . S
C346 H336 0.930 . S
C346 C344 1.419 . S
C346 C347 1.362 . S
C347 H337 0.930 . S
C347 C340 1.409 . S
C347 C346 1.362 . S
H348 C354 0.930 . S
H349 C357 0.930 . S
H350 C358 0.930 . S
H351 C359 0.930 . S
H352 C362 0.930 . S
H353 C363 0.930 . S
C354 H348 0.930 . S
C354 C355 1.355 . S
C354 C356 1.415 . S
C355 C354 1.355 . S
C355 C357 1.419 . S
C356 C354 1.415 . S
C356 C361 1.425 . S
C356 C363 1.409 . S
C357 H349 0.930 . S
C357 C355 1.419 . S
C357 C358 1.362 . S
C358 H350 0.930 . S
C358 C357 1.362 . S
C358 C361 1.409 . S
C359 H351 0.930 . S
C359 C360 1.355 . S
C359 C361 1.415 1_545 S
C360 C359 1.355 . S
C360 C362 1.419 . S
C361 C356 1.425 . S
C361 C358 1.409 . S
C361 C359 1.415 1_565 S
C362 H352 0.930 . S
C362 C360 1.419 . S
C362 C363 1.362 1_545 S
C363 H353 0.930 . S
C363 C356 1.409 . S
C363 C362 1.362 1_565 S
H364 C370 0.930 . S
H365 C373 0.930 . S
H366 C374 0.930 . S
H367 C375 0.930 . S
H368 C378 0.930 . S
H369 C379 0.930 . S
C370 H364 0.930 . S
C370 C371 1.355 . S
C370 C372 1.415 . S
C371 C370 1.355 . S
C371 C373 1.419 . S
C372 C370 1.415 . S
C372 C377 1.425 . S
C372 C379 1.409 . S
C373 H365 0.930 . S
C373 C371 1.419 . S
C373 C374 1.362 . S
C374 H366 0.930 . S
C374 C373 1.362 . S
C374 C377 1.409 . S
C375 H367 0.930 . S
C375 C376 1.355 . S
C375 C377 1.415 1_565 S
C376 C375 1.355 . S
C376 C378 1.419 . S
C377 C372 1.425 . S
C377 C374 1.409 . S
C377 C375 1.415 1_545 S
C378 H368 0.930 . S
C378 C376 1.419 . S
C378 C379 1.362 1_565 S
C379 H369 0.930 . S
C379 C372 1.409 . S
C379 C378 1.362 1_545 S
H380 C386 0.930 . S
H381 C389 0.930 . S
H382 C390 0.930 . S
H383 C391 0.930 . S
H384 C394 0.930 . S
H385 C395 0.930 1_545 S
C386 H380 0.930 . S
C386 C387 1.355 . S
C386 C388 1.415 . S
C387 C386 1.355 . S
C387 C389 1.419 . S
C388 C386 1.415 . S
C388 C393 1.425 . S
C388 C395 1.409 1_545 S
C389 H381 0.930 . S
C389 C387 1.419 . S
C389 C390 1.362 . S
C390 H382 0.930 . S
C390 C389 1.362 . S
C390 C393 1.409 . S
C391 H383 0.930 . S
C391 C392 1.355 . S
C391 C393 1.415 1_565 S
C392 C391 1.355 . S
C392 C394 1.419 . S
C393 C388 1.425 . S
C393 C390 1.409 . S
C393 C391 1.415 1_545 S
C394 H384 0.930 . S
C394 C392 1.419 . S
C394 C395 1.362 . S
C395 H385 0.930 1_565 S
C395 C388 1.409 1_565 S
C395 C394 1.362 . S
H396 C402 0.930 . S
H397 C405 0.930 1_655 S
H398 C406 0.930 . S
H399 C407 0.930 . S
H400 C410 0.930 . S
H401 C411 0.930 . S
C402 H396 0.930 . S
C402 C403 1.355 . S
C402 C404 1.415 . S
C403 C402 1.355 . S
C403 C405 1.419 . S
C404 C402 1.415 . S
C404 C409 1.425 . S
C404 C411 1.409 . S
C405 H397 0.930 1_455 S
C405 C403 1.419 . S
C405 C406 1.362 . S
C406 H398 0.930 . S
C406 C405 1.362 . S
C406 C409 1.409 . S
C407 H399 0.930 . S
C407 C408 1.355 . S
C407 C409 1.415 1_545 S
C408 C407 1.355 . S
C408 C410 1.419 . S
C409 C404 1.425 . S
C409 C406 1.409 . S
C409 C407 1.415 1_565 S
C410 H400 0.930 . S
C410 C408 1.419 . S
C410 C411 1.362 1_545 S
C411 H401 0.930 . S
C411 C404 1.409 . S
C411 C410 1.362 1_565 S
H412 C418 0.930 . S
H413 C421 0.930 . S
H414 C422 0.930 . S
H415 C423 0.930 . S
H416 C426 0.930 . S
H417 C427 0.930 . S
C418 H412 0.930 . S
C418 C419 1.355 . S
C418 C420 1.415 1_554 S
C419 C418 1.355 . S
C419 C421 1.419 . S
C420 C418 1.415 1_556 S
C420 C425 1.425 . S
C420 C427 1.409 . S
C421 H413 0.930 . S
C421 C419 1.419 . S
C421 C422 1.362 1_554 S
C422 H414 0.930 . S
C422 C421 1.362 1_556 S
C422 C425 1.409 . S
C423 H415 0.930 . S
C423 C424 1.355 . S
C423 C425 1.415 . S
C424 C423 1.355 . S
C424 C426 1.419 . S
C425 C420 1.425 . S
C425 C422 1.409 . S
C425 C423 1.415 . S
C426 H416 0.930 . S
C426 C424 1.419 . S
C426 C427 1.362 . S
C427 H417 0.930 . S
C427 C420 1.409 . S
C427 C426 1.362 . S
H428 C434 0.930 . S
H429 C437 0.930 . S
H430 C438 0.930 . S
H431 C439 0.930 . S
H432 C442 0.930 . S
H433 C443 0.930 . S
C434 H428 0.930 . S
C434 C435 1.355 . S
C434 C436 1.415 . S
C435 C434 1.355 . S
C435 C437 1.419 . S
C436 C434 1.415 . S
C436 C441 1.425 . S
C436 C443 1.409 . S
C437 H429 0.930 . S
C437 C435 1.419 . S
C437 C438 1.362 . S
C438 H430 0.930 . S
C438 C437 1.362 . S
C438 C441 1.409 . S
C439 H431 0.930 . S
C439 C440 1.355 . S
C439 C441 1.415 . S
C440 C439 1.355 . S
C440 C442 1.419 . S
C441 C436 1.425 . S
C441 C438 1.409 . S
C441 C439 1.415 . S
C442 H432 0.930 . S
C442 C440 1.419 . S
C442 C443 1.362 . S
C443 H433 0.930 . S
C443 C436 1.409 . S
C443 C442 1.362 . S
H444 C450 0.930 . S
H445 C453 0.930 . S
H446 C454 0.930 . S
H447 C455 0.930 . S
H448 C458 0.930 . S
H449 C459 0.930 . S
C450 H444 0.930 . S
C450 C451 1.355 . S
C450 C452 1.415 . S
C451 C450 1.355 . S
C451 C453 1.419 . S
C452 C450 1.415 . S
C452 C457 1.425 . S
C452 C459 1.409 . S
C453 H445 0.930 . S
C453 C451 1.419 . S
C453 C454 1.362 . S
C454 H446 0.930 . S
C454 C453 1.362 . S
C454 C457 1.409 . S
C455 H447 0.930 . S
C455 C456 1.355 . S
C455 C457 1.415 . S
C456 C455 1.355 . S
C456 C458 1.419 . S
C457 C452 1.425 . S
C457 C454 1.409 . S
C457 C455 1.415 . S
C458 H448 0.930 . S
C458 C456 1.419 . S
C458 C459 1.362 . S
C459 H449 0.930 . S
C459 C452 1.409 . S
C459 C458 1.362 . S
H460 C466 0.930 . S
H461 C469 0.930 . S
H462 C470 0.930 . S
H463 C471 0.930 . S
H464 C474 0.930 . S
H465 C475 0.930 . S
C466 H460 0.930 . S
C466 C467 1.355 . S
C466 C468 1.415 . S
C467 C466 1.355 . S
C467 C469 1.419 . S
C468 C466 1.415 . S
C468 C473 1.425 . S
C468 C475 1.409 . S
C469 H461 0.930 . S
C469 C467 1.419 . S
C469 C470 1.362 . S
C470 H462 0.930 . S
C470 C469 1.362 . S
C470 C473 1.409 . S
C471 H463 0.930 . S
C471 C472 1.355 . S
C471 C473 1.415 . S
C472 C471 1.355 . S
C472 C474 1.419 . S
C473 C468 1.425 . S
C473 C470 1.409 . S
C473 C471 1.415 . S
C474 H464 0.930 . S
C474 C472 1.419 . S
C474 C475 1.362 . S
C475 H465 0.930 . S
C475 C468 1.409 . S
C475 C474 1.362 . S
H476 C482 0.930 . S
H477 C485 0.930 . S
H478 C486 0.930 . S
H479 C487 0.930 . S
H480 C490 0.930 . S
H481 C491 0.930 . S
C482 H476 0.930 . S
C482 C483 1.355 . S
C482 C484 1.415 1_556 S
C483 C482 1.355 . S
C483 C485 1.419 1_455 S
C484 C482 1.415 1_554 S
C484 C489 1.425 . S
C484 C491 1.409 . S
C485 H477 0.930 . S
C485 C483 1.419 1_655 S
C485 C486 1.362 1_556 S
C486 H478 0.930 . S
C486 C485 1.362 1_554 S
C486 C489 1.409 1_655 S
C487 H479 0.930 . S
C487 C488 1.355 . S
C487 C489 1.415 . S
C488 C487 1.355 . S
C488 C490 1.419 . S
C489 C484 1.425 . S
C489 C486 1.409 1_455 S
C489 C487 1.415 . S
C490 H480 0.930 . S
C490 C488 1.419 . S
C490 C491 1.362 . S
C491 H481 0.930 . S
C491 C484 1.409 . S
C491 C490 1.362 . S
H492 C498 0.930 . S
H493 C501 0.930 . S
H494 C502 0.930 . S
H495 C503 0.930 . S
H496 C506 0.930 . S
H497 C507 0.930 . S
C498 H492 0.930 . S
C498 C499 1.355 . S
C498 C500 1.415 . S
C499 C498 1.355 . S
C499 C501 1.419 . S
C500 C498 1.415 . S
C500 C505 1.425 . S
C500 C507 1.409 . S
C501 H493 0.930 . S
C501 C499 1.419 . S
C501 C502 1.362 . S
C502 H494 0.930 . S
C502 C501 1.362 . S
C502 C505 1.409 . S
C503 H495 0.930 . S
C503 C504 1.355 . S
C503 C505 1.415 . S
C504 C503 1.355 . S
C504 C506 1.419 . S
C505 C500 1.425 . S
C505 C502 1.409 . S
C505 C503 1.415 . S
C506 H496 0.930 . S
C506 C504 1.419 . S
C506 C507 1.362 . S
C507 H497 0.930 . S
C507 C500 1.409 . S
C507 C506 1.362 . S
H508 C514 0.930 . S
H509 C517 0.930 . S
H510 C518 0.930 . S
H511 C519 0.930 . S
H512 C522 0.930 . S
H513 C523 0.930 . S
C514 H508 0.930 . S
C514 C515 1.355 . S
C514 C516 1.415 . S
C515 C514 1.355 . S
C515 C517 1.419 . S
C516 C514 1.415 . S
C516 C521 1.425 . S
C516 C523 1.409 . S
C517 H509 0.930 . S
C517 C515 1.419 . S
C517 C518 1.362 . S
C518 H510 0.930 . S
C518 C517 1.362 . S
C518 C521 1.409 . S
C519 H511 0.930 . S
C519 C520 1.355 . S
C519 C521 1.415 . S
C520 C519 1.355 . S
C520 C522 1.419 . S
C521 C516 1.425 . S
C521 C518 1.409 . S
C521 C519 1.415 . S
C522 H512 0.930 . S
C522 C520 1.419 . S
C522 C523 1.362 . S
C523 H513 0.930 . S
C523 C516 1.409 . S
C523 C522 1.362 . S
H524 C530 0.930 . S
H525 C533 0.930 . S
H526 C534 0.930 . S
H527 C535 0.930 . S
H528 C538 0.930 . S
H529 C539 0.930 . S
C530 H524 0.930 . S
C530 C531 1.355 . S
C530 C532 1.415 . S
C531 C530 1.355 . S
C531 C533 1.419 . S
C532 C530 1.415 . S
C532 C537 1.425 . S
C532 C539 1.409 . S
C533 H525 0.930 . S
C533 C531 1.419 . S
C533 C534 1.362 . S
C534 H526 0.930 . S
C534 C533 1.362 . S
C534 C537 1.409 . S
C535 H527 0.930 . S
C535 C536 1.355 . S
C535 C537 1.415 . S
C536 C535 1.355 . S
C536 C538 1.419 . S
C537 C532 1.425 . S
C537 C534 1.409 . S
C537 C535 1.415 . S
C538 H528 0.930 . S
C538 C536 1.419 . S
C538 C539 1.362 . S
C539 H529 0.930 . S
C539 C532 1.409 . S
C539 C538 1.362 . S
C168 C79 1.375 . S
C163 C4 1.518 . S
C184 C97 1.286 . S
C179 C13 1.393 . S
C195 C25 1.372 . S
C200 C121 1.275 . S
C216 C151 1.245 . S
C211 C34 1.412 . S
C232 C139 1.203 . S
C227 C40 1.403 . S
C243 C52 1.392 . S
C248 C92 1.296 . S
C259 C61 1.556 . S
C264 C112 1.483 . S
C275 C67 1.439 . S
C280 C117 1.205 . S
C291 C70 1.396 . S
C296 C133 1.299 . S
C307 C49 1.457 . S
C312 C88 1.287 . S
C328 C155 1.315 . S
C323 C31 1.411 . S
C344 C100 1.270 . S
C339 C16 1.425 . S
C355 C22 1.510 . S
C360 C118 1.369 . S
C371 C7 1.362 . S
C376 C76 1.321 . S
C392 C96 1.206 . S
C387 C58 1.405 . S
C408 C142 1.406 . S
C403 C43 1.528 . S
C424 C138 1.253 . S
C419 C5 1.476 . S
C440 C91 1.348 . S
C435 C14 1.475 . S
C451 C23 1.475 . S
C456 C113 1.357 . S
C467 C32 1.468 . S
C472 C134 1.394 . S
C488 C75 1.313 . S
C483 C41 1.496 . S
C499 C50 1.503 . S
C504 C109 1.437 . S
C520 C130 1.351 . S
C515 C59 1.502 . S
C536 C154 1.322 . S
C531 C68 1.486 . S
