# Generated by pormake.
# Topology pyr, (3,6)-cn, num edge types: 1
# Building blocks:
#     Node 0, Type 0, BuildingBlock: KAKCAD_clean_linker_0, # of connection points: 3
#     Node 1, Type 0, BuildingBlock: KAKCAD_clean_linker_0, # of connection points: 3
#     Node 2, Type 0, BuildingBlock: KAKCAD_clean_linker_0, # of connection points: 3
#     Node 3, Type 0, BuildingBlock: KAKCAD_clean_linker_0, # of connection points: 3
#     Node 4, Type 0, BuildingBlock: KAKCAD_clean_linker_0, # of connection points: 3
#     Node 5, Type 0, BuildingBlock: KAKCAD_clean_linker_0, # of connection points: 3
#     Node 6, Type 0, BuildingBlock: KAKCAD_clean_linker_0, # of connection points: 3
#     Node 7, Type 0, BuildingBlock: KAKCAD_clean_linker_0, # of connection points: 3
#     Node 8, Type 1, BuildingBlock: PAMTUU_clean_sbu_0, # of connection points: 6
#     Node 9, Type 1, BuildingBlock: PAMTUU_clean_sbu_0, # of connection points: 6
#     Node 10, Type 1, BuildingBlock: PAMTUU_clean_sbu_0, # of connection points: 6
#     Node 11, Type 1, BuildingBlock: PAMTUU_clean_sbu_0, # of connection points: 6
#     Edge 12, Type (0, 1), BuildingBlock: EZIPEK_clean_linker_0, # of connection points: 2
#     Edge 13, Type (0, 1), BuildingBlock: EZIPEK_clean_linker_0, # of connection points: 2
#     Edge 14, Type (0, 1), BuildingBlock: EZIPEK_clean_linker_0, # of connection points: 2
#     Edge 15, Type (0, 1), BuildingBlock: EZIPEK_clean_linker_0, # of connection points: 2
#     Edge 16, Type (0, 1), BuildingBlock: EZIPEK_clean_linker_0, # of connection points: 2
#     Edge 17, Type (0, 1), BuildingBlock: EZIPEK_clean_linker_0, # of connection points: 2
#     Edge 18, Type (0, 1), BuildingBlock: EZIPEK_clean_linker_0, # of connection points: 2
#     Edge 19, Type (0, 1), BuildingBlock: EZIPEK_clean_linker_0, # of connection points: 2
#     Edge 20, Type (0, 1), BuildingBlock: EZIPEK_clean_linker_0, # of connection points: 2
#     Edge 21, Type (0, 1), BuildingBlock: EZIPEK_clean_linker_0, # of connection points: 2
#     Edge 22, Type (0, 1), BuildingBlock: EZIPEK_clean_linker_0, # of connection points: 2
#     Edge 23, Type (0, 1), BuildingBlock: EZIPEK_clean_linker_0, # of connection points: 2
#     Edge 24, Type (0, 1), BuildingBlock: EZIPEK_clean_linker_0, # of connection points: 2
#     Edge 25, Type (0, 1), BuildingBlock: EZIPEK_clean_linker_0, # of connection points: 2
#     Edge 26, Type (0, 1), BuildingBlock: EZIPEK_clean_linker_0, # of connection points: 2
#     Edge 27, Type (0, 1), BuildingBlock: EZIPEK_clean_linker_0, # of connection points: 2
#     Edge 28, Type (0, 1), BuildingBlock: EZIPEK_clean_linker_0, # of connection points: 2
#     Edge 29, Type (0, 1), BuildingBlock: EZIPEK_clean_linker_0, # of connection points: 2
#     Edge 30, Type (0, 1), BuildingBlock: EZIPEK_clean_linker_0, # of connection points: 2
#     Edge 31, Type (0, 1), BuildingBlock: EZIPEK_clean_linker_0, # of connection points: 2
#     Edge 32, Type (0, 1), BuildingBlock: EZIPEK_clean_linker_0, # of connection points: 2
#     Edge 33, Type (0, 1), BuildingBlock: EZIPEK_clean_linker_0, # of connection points: 2
#     Edge 34, Type (0, 1), BuildingBlock: EZIPEK_clean_linker_0, # of connection points: 2
#     Edge 35, Type (0, 1), BuildingBlock: EZIPEK_clean_linker_0, # of connection points: 2
# Relax obj value: 0.124
# Max RMSD: 0.140
# Mean RMSD: 0.057
data_MOF--net-pyr--node1-PAMTUU_clean_sbu_0--node2-KAKCAD_clean_linker_0--edge1-EZIPEK_clean_linker_0
_symmetry_space_group_name_H-M    P1
_symmetry_Int_Tables_number       1
_symmetry_cell_setting            triclinic
loop_
_symmetry_equiv_pos_as_xyz
'x, y, z'
_cell_length_a     36.406337
_cell_length_b     37.895998
_cell_length_c     36.75376
_cell_angle_alpha  90.148518
_cell_angle_beta   89.164215
_cell_angle_gamma 101.24653
loop_
_atom_site_label
_atom_site_type_symbol
_atom_site_fract_x
_atom_site_fract_y
_atom_site_fract_z
_atom_type_partial_charge
C0 C 0.28942 0.22126 0.33883 0.0
C1 C 0.31522 0.20648 0.35868 0.0
C2 C 0.30092 0.24151 0.30776 0.0
C3 C 0.33856 0.24737 0.29592 0.0
C4 C 0.36495 0.23488 0.31761 0.0
C5 C 0.35332 0.21454 0.34892 0.0
C6 C 0.34823 0.26101 0.25846 0.0
C7 C 0.3301 0.28694 0.24357 0.0
C8 C 0.32965 0.29215 0.20579 0.0
C9 C 0.3504 0.27332 0.18296 0.0
C10 C 0.37019 0.24847 0.19761 0.0
C11 C 0.36921 0.24271 0.23536 0.0
C12 C 0.3871 0.22436 0.1736 0.0
C13 C 0.36629 0.20587 0.14505 0.0
C14 C 0.42251 0.21693 0.1813 0.0
C15 C 0.43649 0.19091 0.16137 0.0
C16 C 0.41514 0.17177 0.13367 0.0
C17 C 0.30253 0.31226 0.19017 0.0
C18 C 0.26564 0.30634 0.20412 0.0
C19 C 0.3121 0.33538 0.16017 0.0
C20 C 0.28512 0.35208 0.14439 0.0
C21 C 0.24833 0.34555 0.15833 0.0
C22 C 0.23885 0.32285 0.18835 0.0
C23 C 0.38016 0.17964 0.12533 0.0
H24 H 0.25989 0.21511 0.34604 0.0
H25 H 0.27964 0.25008 0.29156 0.0
H26 H 0.39415 0.23921 0.30933 0.0
H27 H 0.37351 0.20318 0.36409 0.0
H28 H 0.31389 0.30123 0.26125 0.0
H29 H 0.38183 0.2214 0.24623 0.0
H30 H 0.34934 0.27633 0.1537 0.0
H31 H 0.33864 0.21062 0.13896 0.0
H32 H 0.43904 0.2308 0.20318 0.0
H33 H 0.46362 0.18514 0.16801 0.0
H34 H 0.25708 0.28801 0.2266 0.0
H35 H 0.34028 0.34034 0.14887 0.0
H36 H 0.36337 0.165 0.10403 0.0
H37 H 0.21047 0.31745 0.1992 0.0
H38 H 0.2927 0.36957 0.1211 0.0
C39 C 0.18508 0.82466 0.87715 0.0
C40 C 0.22332 0.83869 0.88204 0.0
C41 C 0.17282 0.80799 0.84417 0.0
C42 C 0.19877 0.80476 0.81614 0.0
C43 C 0.23714 0.81719 0.82229 0.0
C44 C 0.2492 0.83392 0.85483 0.0
C45 C 0.18661 0.79271 0.77899 0.0
C46 C 0.15867 0.80711 0.76191 0.0
C47 C 0.15368 0.80397 0.72404 0.0
C48 C 0.17615 0.78455 0.7035 0.0
C49 C 0.20377 0.76934 0.7205 0.0
C50 C 0.20783 0.77261 0.75832 0.0
C51 C 0.23194 0.75418 0.69899 0.0
C52 C 0.22134 0.72838 0.67158 0.0
C53 C 0.2702 0.7651 0.70686 0.0
C54 C 0.29712 0.74972 0.68883 0.0
C55 C 0.28648 0.72314 0.66246 0.0
C56 C 0.12899 0.82531 0.70567 0.0
C57 C 0.12854 0.86071 0.71724 0.0
C58 C 0.10753 0.81164 0.6754 0.0
C59 C 0.08713 0.83333 0.65651 0.0
C60 C 0.08791 0.86894 0.66765 0.0
C61 C 0.1081 0.8822 0.69851 0.0
C62 C 0.24848 0.71283 0.6535 0.0
H63 H 0.1648 0.82801 0.89807 0.0
H64 H 0.14311 0.79856 0.8402 0.0
H65 H 0.25788 0.81588 0.80115 0.0
H66 H 0.27882 0.84462 0.85819 0.0
H67 H 0.14255 0.82302 0.77777 0.0
H68 H 0.2293 0.76122 0.7715 0.0
H69 H 0.17412 0.78356 0.67411 0.0
H70 H 0.1921 0.71957 0.66493 0.0
H71 H 0.27934 0.78548 0.72727 0.0
H72 H 0.32632 0.75819 0.69586 0.0
H73 H 0.14536 0.87256 0.73984 0.0
H74 H 0.1071 0.78449 0.66592 0.0
H75 H 0.23988 0.69239 0.63303 0.0
H76 H 0.10949 0.90981 0.70708 0.0
H77 H 0.07193 0.82285 0.63244 0.0
C78 C 0.78548 0.46306 0.90878 0.0
C79 C 0.81149 0.44296 0.92167 0.0
C80 C 0.7531 0.44645 0.88948 0.0
C81 C 0.74523 0.40899 0.88263 0.0
C82 C 0.77174 0.38918 0.89528 0.0
C83 C 0.80409 0.40578 0.91427 0.0
C84 C 0.70917 0.39004 0.86409 0.0
C85 C 0.69307 0.40544 0.83433 0.0
C86 C 0.65966 0.3874 0.81685 0.0
C87 C 0.64247 0.35261 0.83095 0.0
C88 C 0.65787 0.33617 0.86069 0.0
C89 C 0.69086 0.35573 0.87661 0.0
C90 C 0.64061 0.2987 0.87609 0.0
C91 C 0.60156 0.28666 0.88123 0.0
C92 C 0.66375 0.27511 0.88818 0.0
C93 C 0.64888 0.24179 0.90524 0.0
C94 C 0.61008 0.23027 0.91123 0.0
C95 C 0.64343 0.40484 0.78388 0.0
C96 C 0.6493 0.44275 0.779 0.0
C97 C 0.62224 0.38414 0.75632 0.0
C98 C 0.60809 0.4003 0.72585 0.0
C99 C 0.61428 0.43809 0.7211 0.0
C100 C 0.63519 0.45885 0.74853 0.0
C101 C 0.58664 0.25324 0.89861 0.0
H102 H 0.79015 0.49175 0.91378 0.0
H103 H 0.73373 0.46295 0.8807 0.0
H104 H 0.76765 0.36051 0.89036 0.0
H105 H 0.82341 0.38937 0.92341 0.0
H106 H 0.70752 0.43123 0.82407 0.0
H107 H 0.70206 0.34435 0.9 0.0
H108 H 0.61707 0.33811 0.81878 0.0
H109 H 0.58244 0.30356 0.8728 0.0
H110 H 0.69383 0.28244 0.88454 0.0
H111 H 0.66795 0.22505 0.9142 0.0
H112 H 0.66453 0.4605 0.7991 0.0
H113 H 0.61694 0.35508 0.75776 0.0
H114 H 0.55662 0.24547 0.90252 0.0
H115 H 0.64057 0.48791 0.74651 0.0
H116 H 0.59227 0.38303 0.70568 0.0
C117 C 0.90445 0.60573 0.24807 0.0
C118 C 0.92599 0.62664 0.22073 0.0
C119 C 0.89114 0.62166 0.27938 0.0
C120 C 0.89828 0.65948 0.28489 0.0
C121 C 0.91997 0.68032 0.25728 0.0
C122 C 0.93358 0.66429 0.2261 0.0
C123 C 0.88295 0.67672 0.31871 0.0
C124 C 0.84957 0.65902 0.33712 0.0
C125 C 0.83489 0.6738 0.36852 0.0
C126 C 0.85389 0.70775 0.38091 0.0
C127 C 0.88683 0.72695 0.36382 0.0
C128 C 0.90124 0.71079 0.33295 0.0
C129 C 0.9054 0.76369 0.37921 0.0
C130 C 0.88344 0.78747 0.39388 0.0
C131 C 0.94471 0.77481 0.38158 0.0
C132 C 0.96109 0.80762 0.39883 0.0
C133 C 0.93885 0.83065 0.4143 0.0
C134 C 0.79987 0.65413 0.38891 0.0
C135 C 0.76919 0.63341 0.37079 0.0
C136 C 0.79569 0.6576 0.42691 0.0
C137 C 0.7632 0.64023 0.44592 0.0
C138 C 0.73379 0.61603 0.42872 0.0
C139 C 0.73671 0.61583 0.38999 0.0
C140 C 0.89975 0.82004 0.41108 0.0
H141 H 0.8981 0.57672 0.24538 0.0
H142 H 0.87559 0.60383 0.29957 0.0
H143 H 0.92613 0.70935 0.25925 0.0
H144 H 0.94999 0.68152 0.20588 0.0
H145 H 0.83476 0.63341 0.3271 0.0
H146 H 0.92674 0.72496 0.32003 0.0
H147 H 0.84281 0.71957 0.40444 0.0
H148 H 0.85321 0.78093 0.3922 0.0
H149 H 0.96293 0.75766 0.37104 0.0
H150 H 0.9913 0.81479 0.40054 0.0
H151 H 0.7696 0.63164 0.34139 0.0
H152 H 0.81761 0.67403 0.44251 0.0
H153 H 0.8816 0.83698 0.42225 0.0
H154 H 0.71358 0.60315 0.37352 0.0
H155 H 0.76148 0.64713 0.47426 0.0
C156 C 0.69192 0.82687 0.70708 0.0
C157 C 0.73087 0.83582 0.70181 0.0
C158 C 0.67692 0.80615 0.73722 0.0
C159 C 0.70074 0.79415 0.76223 0.0
C160 C 0.73955 0.80099 0.75496 0.0
C161 C 0.7544 0.82162 0.72504 0.0
C162 C 0.68664 0.77997 0.79852 0.0
C163 C 0.70301 0.75398 0.81585 0.0
C164 C 0.69835 0.74784 0.85352 0.0
C165 C 0.67484 0.76648 0.87332 0.0
C166 C 0.65799 0.79225 0.85632 0.0
C167 C 0.6632 0.7982 0.81883 0.0
C168 C 0.64261 0.81863 0.87855 0.0
C169 C 0.60745 0.82684 0.87121 0.0
C170 C 0.66545 0.83877 0.90471 0.0
C171 C 0.6539 0.86729 0.9225 0.0
C172 C 0.61896 0.87579 0.91504 0.0
C173 C 0.72378 0.72787 0.87266 0.0
C174 C 0.73543 0.69827 0.85608 0.0
C175 C 0.74081 0.74157 0.9053 0.0
C176 C 0.77027 0.72762 0.91961 0.0
C177 C 0.78371 0.70013 0.9013 0.0
C178 C 0.76539 0.68473 0.87011 0.0
C179 C 0.59545 0.85499 0.88975 0.0
H180 H 0.67346 0.83781 0.68932 0.0
H181 H 0.64693 0.80115 0.74203 0.0
H182 H 0.75887 0.79286 0.77386 0.0
H183 H 0.78455 0.8285 0.72135 0.0
H184 H 0.7223 0.74105 0.80048 0.0
H185 H 0.65249 0.82003 0.80644 0.0
H186 H 0.67155 0.7628 0.9025 0.0
H187 H 0.58962 0.81186 0.85082 0.0
H188 H 0.693 0.83342 0.91028 0.0
H189 H 0.67249 0.88314 0.94179 0.0
H190 H 0.72255 0.68664 0.83131 0.0
H191 H 0.73323 0.76468 0.91864 0.0
H192 H 0.56838 0.8612 0.8837 0.0
H193 H 0.7753 0.6633 0.8558 0.0
H194 H 0.78414 0.73976 0.94375 0.0
C195 C 0.79552 0.20971 0.24818 0.0
C196 C 0.78563 0.23668 0.22657 0.0
C197 C 0.81678 0.21871 0.27921 0.0
C198 C 0.82831 0.2549 0.28929 0.0
C199 C 0.82026 0.28204 0.26637 0.0
C200 C 0.79927 0.27296 0.23493 0.0
C201 C 0.84396 0.26352 0.32593 0.0
C202 C 0.87044 0.2451 0.33988 0.0
C203 C 0.8798 0.24763 0.37688 0.0
C204 C 0.86301 0.26991 0.39992 0.0
C205 C 0.83683 0.28912 0.38604 0.0
C206 C 0.82788 0.28592 0.34896 0.0
C207 C 0.81448 0.30874 0.41008 0.0
C208 C 0.79661 0.29222 0.4416 0.0
C209 C 0.80543 0.34117 0.39807 0.0
C210 C 0.77646 0.35472 0.41479 0.0
C211 C 0.75635 0.33639 0.44413 0.0
C212 C 0.9052 0.22482 0.39115 0.0
C213 C 0.90062 0.18874 0.38044 0.0
C214 C 0.93419 0.23856 0.41492 0.0
C215 C 0.9598 0.21741 0.42541 0.0
C216 C 0.9583 0.18235 0.41106 0.0
C217 C 0.92609 0.16772 0.39088 0.0
C218 C 0.76782 0.3061 0.45865 0.0
H219 H 0.78528 0.18158 0.24191 0.0
H220 H 0.82212 0.19721 0.29651 0.0
H221 H 0.829 0.31014 0.27352 0.0
H222 H 0.79197 0.29404 0.21828 0.0
H223 H 0.88297 0.22781 0.32197 0.0
H224 H 0.80592 0.29861 0.33857 0.0
H225 H 0.86921 0.27128 0.42869 0.0
H226 H 0.80281 0.26712 0.45139 0.0
H227 H 0.81913 0.35478 0.37419 0.0
H228 H 0.7683 0.37839 0.4035 0.0
H229 H 0.87703 0.17655 0.364 0.0
H230 H 0.93744 0.26585 0.42505 0.0
H231 H 0.75275 0.29181 0.48151 0.0
H232 H 0.91962 0.1397 0.38322 0.0
H233 H 0.98001 0.22906 0.44531 0.0
C234 C 0.23208 0.61656 0.17966 0.0
C235 C 0.22967 0.61807 0.14136 0.0
C236 C 0.26535 0.63236 0.19807 0.0
C237 C 0.29741 0.65067 0.1789 0.0
C238 C 0.29489 0.65144 0.14047 0.0
C239 C 0.26184 0.6355 0.12217 0.0
C240 C 0.33267 0.67039 0.19821 0.0
C241 C 0.34743 0.65642 0.22962 0.0
C242 C 0.38099 0.67458 0.24669 0.0
C243 C 0.39961 0.70806 0.23074 0.0
C244 C 0.38552 0.7232 0.19934 0.0
C245 C 0.35183 0.70385 0.18437 0.0
C246 C 0.40487 0.75899 0.1813 0.0
C247 C 0.42553 0.78825 0.20107 0.0
C248 C 0.40143 0.76489 0.14345 0.0
C249 C 0.41641 0.79826 0.12662 0.0
C250 C 0.43638 0.82752 0.14641 0.0
C251 C 0.39641 0.65817 0.28068 0.0
C252 C 0.37241 0.63683 0.30645 0.0
C253 C 0.43529 0.66297 0.28788 0.0
C254 C 0.44922 0.64711 0.31868 0.0
C255 C 0.42512 0.62577 0.34424 0.0
C256 C 0.38634 0.62122 0.33733 0.0
C257 C 0.44103 0.8217 0.18398 0.0
H258 H 0.20798 0.60339 0.19547 0.0
H259 H 0.26554 0.63108 0.22748 0.0
H260 H 0.31869 0.6645 0.12422 0.0
H261 H 0.26131 0.63715 0.09278 0.0
H262 H 0.33322 0.63062 0.24009 0.0
H263 H 0.33951 0.71545 0.16184 0.0
H264 H 0.42512 0.72243 0.24282 0.0
H265 H 0.42915 0.7857 0.23006 0.0
H266 H 0.38715 0.74349 0.12625 0.0
H267 H 0.41251 0.80115 0.0977 0.0
H268 H 0.34237 0.63241 0.30317 0.0
H269 H 0.45536 0.67855 0.26926 0.0
H270 H 0.45639 0.84329 0.20033 0.0
H271 H 0.3665 0.6054 0.35603 0.0
H272 H 0.4792 0.6515 0.32246 0.0
C273 C 0.14647 0.24192 0.65065 0.0
C274 C 0.10818 0.22635 0.65411 0.0
C275 C 0.16178 0.27496 0.66745 0.0
C276 C 0.13943 0.29502 0.68772 0.0
C277 C 0.10102 0.27908 0.69167 0.0
C278 C 0.08581 0.24537 0.67546 0.0
C279 C 0.1564 0.3324 0.70317 0.0
C280 C 0.18804 0.35351 0.68548 0.0
C281 C 0.20654 0.38716 0.6989 0.0
C282 C 0.19213 0.4006 0.73107 0.0
C283 C 0.1595 0.38158 0.74945 0.0
C284 C 0.14206 0.34735 0.73494 0.0
C285 C 0.14407 0.39783 0.78355 0.0
C286 C 0.16818 0.4181 0.80924 0.0
C287 C 0.10517 0.39437 0.79054 0.0
C288 C 0.09119 0.41087 0.82121 0.0
C289 C 0.11539 0.43123 0.84669 0.0
C290 C 0.24114 0.40758 0.67883 0.0
C291 C 0.27349 0.42453 0.6975 0.0
C292 C 0.24292 0.40853 0.64036 0.0
C293 C 0.27579 0.42491 0.62138 0.0
C294 C 0.3083 0.44089 0.64004 0.0
C295 C 0.30656 0.44072 0.67842 0.0
C296 C 0.15421 0.43418 0.84009 0.0
H297 H 0.16487 0.22827 0.63492 0.0
H298 H 0.19164 0.28453 0.66443 0.0
H299 H 0.08231 0.29291 0.7067 0.0
H300 H 0.05624 0.23435 0.67917 0.0
H301 H 0.19884 0.34365 0.66072 0.0
H302 H 0.11796 0.33194 0.7491 0.0
H303 H 0.20575 0.4267 0.74109 0.0
H304 H 0.19823 0.42137 0.80577 0.0
H305 H 0.08527 0.3795 0.77176 0.0
H306 H 0.06118 0.4078 0.82496 0.0
H307 H 0.27368 0.42431 0.72695 0.0
H308 H 0.21875 0.39641 0.6247 0.0
H309 H 0.17397 0.44923 0.85889 0.0
H310 H 0.33103 0.45278 0.6937 0.0
H311 H 0.276 0.42465 0.59191 0.0
Tb312 Tb 0.0685 0.02868 0.52057 0.0
Tb313 Tb 0.9839 1.02566 0.55216 0.0
C314 C 0.99875 0.96656 0.4945 0.0
C315 C 0.16595 0.05551 0.48501 0.0
C316 C 0.22482 0.10469 0.45282 0.0
C317 C 0.2316 0.07264 0.46793 0.0
C318 C 0.20218 0.04808 0.48386 0.0
C319 C 0.15955 0.08831 0.47143 0.0
C320 C 0.18886 0.11274 0.45529 0.0
C321 C 0.13492 0.02861 0.49964 0.0
O322 O 0.04687 0.06305 0.48269 0.0
O323 O 0.99273 0.06996 0.51318 0.0
O324 O 0.02029 0.06719 0.58496 0.0
O325 O 0.07235 0.0812 0.54768 0.0
O326 O 0.92681 1.02589 0.54449 0.0
O327 O 0.94952 1.02443 0.59843 0.0
O328 O 1.00303 0.97851 0.57321 0.0
O329 O 0.064 1.00576 0.57462 0.0
O330 O 0.03523 0.97723 0.49943 0.0
O331 O 0.97461 0.98453 0.50907 0.0
C332 C 1.01774 0.07837 0.48687 0.0
O333 O 0.12533 0.03337 0.53323 0.0
O334 O 0.1058 1.02027 0.47888 0.0
C335 C 0.05197 0.08893 0.57554 0.0
C336 C 0.88783 0.99316 0.58947 0.0
C337 C 0.82774 0.94101 0.61546 0.0
C338 C 0.86423 0.93414 0.6154 0.0
C339 C 0.89413 0.96 0.60231 0.0
C340 C 0.85113 0.9993 0.58789 0.0
C341 C 0.82114 0.97326 0.60065 0.0
C342 C 0.91927 1.02206 0.5792 0.0
C343 C 0.03719 0.97931 0.58431 0.0
H344 H 0.25924 0.06613 0.46611 0.0
H345 H 0.20751 1.02294 0.4945 0.0
H346 H 0.13174 0.09456 0.47249 0.0
H347 H 0.18328 0.13739 0.4437 0.0
H348 H 0.86969 0.90934 0.62673 0.0
H349 H 0.92224 0.95458 0.60334 0.0
H350 H 0.84581 1.02465 0.5778 0.0
H351 H 0.79309 0.97888 0.60057 0.0
Tb352 Tb 0.55754 0.03758 0.05684 0.0
Tb353 Tb 0.49328 1.01594 0.99674 0.0
C354 C 0.56922 0.99202 0.99 0.0
C355 C 0.63484 0.08658 0.1133 0.0
C356 C 0.68218 0.14903 0.13803 0.0
C357 C 0.68539 0.11527 0.15168 0.0
C358 C 0.66184 0.08421 0.13937 0.0
C359 C 0.6318 0.1203 0.09917 0.0
C360 C 0.65546 0.15151 0.11152 0.0
C361 C 0.61033 0.05359 0.10105 0.0
O362 O 0.57336 0.08018 1.01478 0.0
O363 O 0.5207 0.07075 0.97931 0.0
O364 O 0.46723 0.03707 0.04349 0.0
O365 O 0.51961 0.07415 0.06491 0.0
O366 O 0.46918 0.97964 0.95653 0.0
O367 O 0.44685 0.02715 0.96917 0.0
O368 O 0.48588 0.96782 1.03249 0.0
O369 O 0.51876 0.99172 0.0827 0.0
O370 O 0.56782 0.99226 1.0254 0.0
O371 O 0.54577 1.00764 0.97241 0.0
C372 C 0.55335 0.09057 0.9884 0.0
O373 O 0.57502 0.04985 0.11029 0.0
O374 O 0.61491 0.04484 0.06716 0.0
C375 C 0.48328 0.06534 0.06201 0.0
C376 C 0.40429 0.97501 0.95165 0.0
C377 C 0.33271 0.93111 0.95101 0.0
C378 C 0.34732 0.94655 0.98377 0.0
C379 C 0.38316 0.96831 0.98413 0.0
C380 C 0.38945 0.95975 0.91906 0.0
C381 C 0.35393 0.93795 0.91873 0.0
C382 C 0.44216 0.99699 0.95112 0.0
C383 C 0.49548 0.96513 0.06681 0.0
H384 H 0.70585 0.11306 0.17225 0.0
H385 H 0.66454 0.05835 0.15037 0.0
H386 H 0.61106 0.12241 0.07888 0.0
H387 H 0.65266 0.17747 0.10088 0.0
H388 H 0.33118 0.94154 1.00886 0.0
H389 H 0.39443 0.97976 1.00963 0.0
H390 H 0.40546 0.96454 0.89385 0.0
H391 H 0.34295 0.92622 0.89323 0.0
Tb392 Tb 0.51829 0.49449 0.51129 0.0
Tb393 Tb 0.51971 0.56834 0.55483 0.0
C394 C 0.48486 0.55858 0.4744 0.0
C395 C 0.5543 0.41682 0.47761 0.0
C396 C 0.61901 0.38659 0.47351 0.0
C397 C 0.59951 0.39156 0.44184 0.0
C398 C 0.56734 0.40649 0.4439 0.0
C399 C 0.57339 0.41108 0.50943 0.0
C400 C 0.60534 0.39577 0.5074 0.0
C401 C 0.52351 0.437 0.47871 0.0
O402 O 0.5768 0.52291 0.50673 0.0
O403 O 0.57079 0.58055 0.52044 0.0
O404 O 0.55563 0.54034 0.58864 0.0
O405 O 0.53629 0.4831 0.56685 0.0
O406 O 0.52444 0.62453 0.55458 0.0
O407 O 0.51314 0.59457 0.60436 0.0
O408 O 0.47014 0.53115 0.57617 0.0
O409 O 0.45997 0.48922 0.53063 0.0
O410 O 0.50023 0.52997 0.46981 0.0
O411 O 0.48373 0.57272 0.50726 0.0
C412 C 0.59003 0.5578 0.50602 0.0
O413 O 0.50601 0.43794 0.50976 0.0
O414 O 0.53122 0.46858 0.4635 0.0
C415 C 0.55342 0.50514 0.59195 0.0
C416 C 0.48026 0.64115 0.59548 0.0
C417 C 0.41437 0.66672 0.61207 0.0
C418 C 0.44495 0.67367 0.63564 0.0
C419 C 0.47771 0.66096 0.62738 0.0
C420 C 0.44968 0.63447 0.57178 0.0
C421 C 0.41701 0.64726 0.57997 0.0
C422 C 0.51351 0.62521 0.5884 0.0
C423 C 0.44889 0.50323 0.56076 0.0
H424 H 0.60964 0.38449 0.41547 0.0
H425 H 0.55329 0.411 0.41904 0.0
H426 H 0.56427 0.41926 0.53578 0.0
H427 H 0.61999 0.39198 0.5321 0.0
H428 H 0.44325 0.6886 0.66058 0.0
H429 H 0.5008 0.66605 0.64618 0.0
H430 H 0.45081 0.61888 0.54721 0.0
H431 H 0.39358 0.64153 0.56161 0.0
Tb432 Tb 0.02279 0.56764 1.00976 0.0
Tb433 Tb 1.01725 0.49358 0.05462 0.0
C434 C 0.05568 0.50174 0.97519 0.0
C435 C 0.98961 0.64117 0.96582 0.0
C436 C 0.92306 0.66269 0.94588 0.0
C437 C 0.95138 0.66163 0.91982 0.0
C438 C 0.98451 0.65105 0.92977 0.0
C439 C 0.96151 0.64302 0.99206 0.0
C440 C 0.9286 0.654 0.98219 0.0
C441 C 0.02163 0.62443 0.97457 0.0
O442 O 0.96483 0.53958 0.99999 0.0
O443 O 0.96658 0.48278 1.02078 0.0
O444 O 0.98394 0.52363 0.08947 0.0
O445 O 0.99923 0.57968 0.06322 0.0
O446 O 1.00889 0.43712 0.05439 0.0
O447 O 0.0208 0.46687 0.10414 0.0
O448 O 0.06857 0.52801 0.07524 0.0
O449 O 0.07922 0.5739 1.03335 0.0
O450 O 0.04205 0.53107 0.96991 0.0
O451 O 0.05468 0.48754 1.00801 0.0
C452 C 0.94995 0.50502 1.0025 0.0
O453 O 0.03071 0.62413 1.00868 0.0
O454 O 0.02093 0.59331 0.95942 0.0
C455 C 0.98418 0.55855 0.09022 0.0
C456 C 0.0518 0.41924 0.09427 0.0
C457 C 0.11812 0.39542 0.10998 0.0
C458 C 0.08825 0.39011 0.13522 0.0
C459 C 0.05521 0.402 0.12739 0.0
C460 C 0.0816 0.42391 0.06881 0.0
C461 C 0.1145 0.41199 0.07659 0.0
C462 C 0.01934 0.43606 0.08803 0.0
C463 C 0.08972 0.5575 0.06199 0.0
H464 H 0.94748 0.66831 0.89167 0.0
H465 H 1.00559 0.64931 0.90907 0.0
H466 H 0.9644 0.63491 1.01995 0.0
H467 H 0.907 0.65474 1.00261 0.0
H468 H 0.09083 0.37736 0.16115 0.0
H469 H 0.03277 0.39865 0.14753 0.0
H470 H 0.07988 0.43758 0.04327 0.0
H471 H 0.13743 0.41634 0.05696 0.0
C472 C 0.2881 0.14277 0.37357 0.0
C473 C 0.30058 0.17847 0.38597 0.0
C474 C 0.2718 0.16222 0.44574 0.0
C475 C 0.25428 0.12848 0.4313 0.0
N476 N 0.24305 0.0871 0.38072 0.0
N477 N 0.30508 0.22311 0.43318 0.0
C478 C 0.26216 0.11857 0.39518 0.0
C479 C 0.29308 0.18838 0.4221 0.0
N480 N 0.30072 0.1322 0.34085 0.0
N481 N 0.26812 0.16899 0.48202 0.0
H482 H 0.32212 0.24234 0.41688 0.0
H483 H 0.29692 0.23332 0.45767 0.0
H484 H 0.25262 0.15022 0.49986 0.0
H485 H 0.28274 0.19179 0.495 0.0
H486 H 0.29573 0.10559 0.33201 0.0
H487 H 0.31912 0.1495 0.32385 0.0
H488 H 0.24412 0.08057 0.35325 0.0
H489 H 0.22375 0.06844 0.39552 0.0
C490 C 0.23842 0.89847 0.91285 0.0
C491 C 0.23766 0.86092 0.9139 0.0
C492 C 0.29132 0.87012 0.95435 0.0
C493 C 0.29514 0.90769 0.94907 0.0
N494 N 0.26647 0.95787 0.93542 0.0
N495 N 0.25354 0.81044 0.94472 0.0
C496 C 0.26622 0.92187 0.93276 0.0
C497 C 0.26059 0.84662 0.93835 0.0
N498 N 0.21471 0.91174 0.89048 0.0
N499 N 0.31847 0.85708 0.97226 0.0
H500 H 0.23103 0.79325 0.93273 0.0
H501 H 0.26761 0.79808 0.96387 0.0
H502 H 0.34064 0.87389 0.98507 0.0
H503 H 0.31971 0.82992 0.9736 0.0
H504 H 0.21688 0.93898 0.88488 0.0
H505 H 0.19332 0.89517 0.87646 0.0
H506 H 0.24491 0.96989 0.92633 0.0
H507 H 0.28703 0.97518 0.94986 0.0
C508 C 0.55946 0.45455 0.68431 0.0
C509 C 0.59874 0.45579 0.68799 0.0
C510 C 0.60872 0.49267 0.63074 0.0
C511 C 0.56932 0.48911 0.6257 0.0
N512 N 0.50705 0.4633 0.64691 0.0
N513 N 0.66029 0.47249 0.66109 0.0
C514 C 0.54481 0.46892 0.65227 0.0
C515 C 0.62316 0.47415 0.66025 0.0
N516 N 0.536 0.44105 0.71246 0.0
N517 N 0.63264 0.51394 0.60718 0.0
H518 H 0.67173 0.45928 0.68166 0.0
H519 H 0.67926 0.48152 0.64011 0.0
H520 H 0.62338 0.52611 0.58457 0.0
H521 H 0.66134 0.5215 0.61118 0.0
H522 H 0.50786 0.44281 0.71395 0.0
H523 H 0.54538 0.43064 0.73606 0.0
H524 H 0.48759 0.44509 0.66195 0.0
H525 H 0.49513 0.47547 0.62591 0.0
C526 C 0.97163 0.591 0.18985 0.0
C527 C 0.94083 0.60908 0.18703 0.0
C528 C 0.93651 0.59165 0.12129 0.0
C529 C 0.96858 0.57536 0.12375 0.0
N530 N 0.02021 0.56498 0.15962 0.0
N531 N 0.89609 0.62926 0.14858 0.0
C532 C 0.98687 0.57636 0.15795 0.0
C533 C 0.92404 0.61018 0.15221 0.0
N534 N 0.98645 0.58761 0.22331 0.0
N535 N 0.91695 0.58815 0.08959 0.0
H536 H 0.88479 0.64119 0.17055 0.0
H537 H 0.88547 0.63512 0.12366 0.0
H538 H 0.92514 0.57499 0.06678 0.0
H539 H 0.89122 0.59574 0.08649 0.0
H540 H 1.00537 0.57096 0.2285 0.0
H541 H 0.97811 0.59983 0.24665 0.0
H542 H 0.03757 0.56877 0.18212 0.0
H543 H 0.03229 0.55428 0.13731 0.0
C544 C 0.43014 0.10994 0.13237 0.0
C545 C 0.42913 0.14269 0.11406 0.0
C546 C 0.45465 0.11973 0.05888 0.0
C547 C 0.46048 0.08933 0.07872 0.0
N548 N 0.45694 0.05621 0.13492 0.0
N549 N 0.44424 0.18089 0.06135 0.0
C550 C 0.44891 0.08449 0.11562 0.0
C551 C 0.44216 0.14811 0.07757 0.0
N552 N 0.41242 0.1029 0.16536 0.0
N553 N 0.46072 0.12123 1.02209 0.0
H554 H 0.43546 0.20245 0.07419 0.0
H555 H 0.45747 0.18773 0.03633 0.0
H556 H 0.46934 0.10056 1.00758 0.0
H557 H 0.45371 0.14109 1.00551 0.0
H558 H 0.40898 0.07808 0.17839 0.0
H559 H 0.39819 0.12087 0.17833 0.0
H560 H 0.45317 0.0535 0.16299 0.0
H561 H 0.46969 0.0365 0.12315 0.0
C562 C 0.03827 0.90494 0.65459 0.0
C563 C 0.0722 0.89422 0.64445 0.0
C564 C 0.07841 0.93388 0.59144 0.0
C565 C 0.04731 0.94842 0.60418 0.0
N566 N 1.00028 0.95071 0.65071 0.0
N567 N 0.12792 0.90252 0.60652 0.0
C568 C 0.02761 0.93449 0.63635 0.0
C569 C 0.09314 0.90973 0.61374 0.0
N570 N 1.0162 0.8867 0.68152 0.0
N571 N 0.09314 0.9419 0.55734 0.0
H572 H 0.13979 0.88453 0.62171 0.0
H573 H 0.14638 0.91671 0.58733 0.0
H574 H 0.08288 0.95858 0.53932 0.0
H575 H 0.11287 0.92884 0.54529 0.0
H576 H 0.98933 0.89073 0.68776 0.0
H577 H 0.02357 0.86528 0.69558 0.0
H578 H 0.98767 0.94413 0.67604 0.0
H579 H 0.99236 0.973 0.63889 0.0
C580 C 0.84722 0.45845 0.98147 0.0
C581 C 0.84649 0.46042 0.9427 0.0
C582 C 0.91372 0.49036 0.94321 0.0
C583 C 0.9139 0.4902 0.98205 0.0
N584 N 0.87883 0.47878 0.03811 0.0
N585 N 0.87815 0.48288 0.88708 0.0
C586 C 0.88005 0.47538 1.0011 0.0
C587 C 0.8795 0.47788 0.92381 0.0
N588 N 0.81651 0.43985 0.99966 0.0
N589 N 0.94685 0.50075 0.9246 0.0
H590 H 0.85447 0.47289 0.8718 0.0
H591 H 0.89941 0.49907 0.8721 0.0
H592 H 0.97228 0.50984 0.93745 0.0
H593 H 0.94986 0.49762 0.89664 0.0
H594 H 0.81628 0.43347 1.0272 0.0
H595 H 0.79162 0.42879 0.98667 0.0
H596 H 0.85436 0.47232 0.0537 0.0
H597 H 0.90201 0.4909 0.05313 0.0
C598 C 0.66903 0.57113 0.433 0.0
C599 C 0.6991 0.5947 0.45034 0.0
C600 C 0.65948 0.58845 0.50671 0.0
C601 C 0.62752 0.57142 0.48702 0.0
N602 N 0.60212 0.54922 0.42918 0.0
N603 N 0.72677 0.59685 0.50969 0.0
C604 C 0.63247 0.5635 0.44958 0.0
C605 C 0.6957 0.596 0.48916 0.0
N606 N 0.67666 0.55047 0.4045 0.0
N607 N 0.65577 0.59684 0.54253 0.0
H608 H 0.75205 0.59314 0.49803 0.0
H609 H 0.72592 0.59473 0.53797 0.0
H610 H 0.63048 0.59023 0.55693 0.0
H611 H 0.67739 0.61259 0.55705 0.0
H612 H 0.6565 0.53057 0.39271 0.0
H613 H 0.70411 0.5489 0.3972 0.0
H614 H 0.60385 0.54623 0.40103 0.0
H615 H 0.57487 0.54363 0.43978 0.0
C616 C 0.21198 0.395 0.15336 0.0
C617 C 0.21869 0.36126 0.1412 0.0
C618 C 0.16034 0.35061 0.10702 0.0
C619 C 0.15373 0.38446 0.11897 0.0
N620 N 0.17602 0.44218 0.14684 0.0
N621 N 0.20433 0.31029 0.10101 0.0
C622 C 0.18051 0.40775 0.14005 0.0
C623 C 0.19445 0.34016 0.11616 0.0
N624 N 0.23492 0.41413 0.17865 0.0
N625 N 0.13335 0.32795 0.08815 0.0
H626 H 0.22902 0.30177 0.10746 0.0
H627 H 0.18984 0.29565 0.07991 0.0
H628 H 0.10834 0.33504 0.08028 0.0
H629 H 0.1345 0.30131 0.08225 0.0
H630 H 0.22909 0.43671 0.19198 0.0
H631 H 0.25905 0.40624 0.1879 0.0
H632 H 0.19633 0.46167 0.1589 0.0
H633 H 0.15305 0.45226 0.13783 0.0
C634 C 0.59372 0.19258 0.96977 0.0
C635 C 0.59453 0.19454 0.93099 0.0
C636 C 0.571 0.12811 0.92966 0.0
C637 C 0.56772 0.1265 0.96848 0.0
N638 N 0.56911 0.15979 1.02458 0.0
N639 N 0.57897 0.16419 0.87413 0.0
C640 C 0.57745 0.15949 0.98822 0.0
C641 C 0.58159 0.16225 0.91109 0.0
N642 N 0.60894 0.22246 0.98928 0.0
N643 N 0.56575 0.09672 0.91034 0.0
H644 H 0.58767 0.18805 0.85962 0.0
H645 H 0.56568 0.14293 0.85812 0.0
H646 H 0.55826 0.07152 0.92251 0.0
H647 H 0.57189 0.09535 0.88268 0.0
H648 H 0.61373 0.22203 1.01712 0.0
H649 H 0.61933 0.24734 0.97717 0.0
H650 H 0.57145 0.18323 0.03992 0.0
H651 H 0.55625 0.13688 0.03883 0.0
C652 C 0.97356 0.86472 0.46844 0.0
C653 C 0.95588 0.86556 0.43417 0.0
C654 C 0.96333 0.93196 0.44085 0.0
C655 C 0.98398 0.93163 0.47356 0.0
N656 N 1.01066 0.89676 0.51714 0.0
N657 N 0.94019 0.90135 0.38494 0.0
C658 C 0.98989 0.89771 0.48666 0.0
C659 C 0.9525 0.89962 0.41972 0.0
N660 N 0.97288 0.83223 0.48479 0.0
N661 N 0.9533 0.96315 0.43004 0.0
H662 H 0.93252 0.87865 0.36859 0.0
H663 H 0.94095 0.9254 0.37105 0.0
H664 H 0.96106 0.98729 0.44398 0.0
H665 H 0.93465 0.96449 0.40911 0.0
H666 H 0.98112 0.8294 0.51145 0.0
H667 H 0.96108 0.80777 0.47278 0.0
H668 H 0.02064 0.87417 0.52545 0.0
H669 H 0.01947 0.91923 0.53337 0.0
C670 C 0.32196 0.67254 0.65903 0.0
C671 C 0.31571 0.70583 0.64531 0.0
C672 C 0.37333 0.71277 0.60831 0.0
C673 C 0.37921 0.67921 0.62158 0.0
N674 N 0.35581 0.62355 0.65318 0.0
N675 N 0.33049 0.75408 0.60183 0.0
C676 C 0.35238 0.65792 0.64491 0.0
C677 C 0.33989 0.72481 0.61826 0.0
N678 N 0.29986 0.65574 0.68676 0.0
N679 N 0.40032 0.73365 0.58722 0.0
H680 H 0.30618 0.76349 0.60863 0.0
H681 H 0.34488 0.76716 0.57949 0.0
H682 H 0.42467 0.72526 0.5786 0.0
H683 H 0.39984 0.76011 0.5801 0.0
H684 H 0.3057 0.63381 0.70098 0.0
H685 H 0.2768 0.66514 0.69728 0.0
H686 H 0.33515 0.60527 0.6668 0.0
H687 H 0.37808 0.6122 0.6438 0.0
C688 C 0.75819 0.89999 0.68902 0.0
C689 C 0.74811 0.86427 0.67588 0.0
C690 C 0.78253 0.88192 0.61896 0.0
C691 C 0.79733 0.9159 0.63458 0.0
N692 N 0.80245 0.95649 0.68592 0.0
N693 N 0.75034 0.8202 0.62909 0.0
C694 C 0.78561 0.92499 0.6698 0.0
C695 C 0.75982 0.85499 0.64081 0.0
N696 N 0.7418 0.90984 0.72017 0.0
N697 N 0.79002 0.87567 0.58323 0.0
H698 H 0.73242 0.80035 0.64393 0.0
H699 H 0.7615 0.81059 0.60568 0.0
H700 H 0.80658 0.895 0.56668 0.0
H701 H 0.7775 0.85267 0.5692 0.0
H702 H 0.745 0.93637 0.72903 0.0
H703 H 0.72217 0.89198 0.73549 0.0
H704 H 0.79838 0.96249 0.71317 0.0
H705 H 0.82294 0.97563 0.67307 0.0
C706 C 0.7706 0.21228 0.16415 0.0
C707 C 0.75835 0.22578 0.19721 0.0
C708 C 0.6934 0.19774 0.18473 0.0
C709 C 0.70614 0.18148 0.15346 0.0
N710 N 0.75355 0.18012 0.1076 0.0
N711 N 0.70826 0.24038 0.23428 0.0
C712 C 0.74376 0.19135 0.14109 0.0
C713 C 0.71964 0.2218 0.20569 0.0
N714 N 0.80803 0.21811 0.15597 0.0
N715 N 0.6567 0.18827 0.19558 0.0
H716 H 0.72696 0.25754 0.25066 0.0
H717 H 0.68039 0.24123 0.24008 0.0
H718 H 0.63652 0.17174 0.18007 0.0
H719 H 0.64635 0.19543 0.22049 0.0
H720 H 0.81959 0.20585 0.13447 0.0
H721 H 0.82791 0.23483 0.17168 0.0
H722 H 0.77989 0.18819 0.09558 0.0
H723 H 0.73409 0.16472 0.09045 0.0
C724 C 0.43357 0.57027 0.38285 0.0
C725 C 0.44024 0.60845 0.37788 0.0
C726 C 0.47882 0.61367 0.43424 0.0
C727 C 0.46889 0.57583 0.4413 0.0
N728 N 0.42967 0.51956 0.42438 0.0
N729 N 0.46372 0.66641 0.40461 0.0
C730 C 0.44434 0.55462 0.41604 0.0
C731 C 0.46134 0.63001 0.40527 0.0
N732 N 0.41815 0.54851 0.35515 0.0
N733 N 0.50661 0.63418 0.45398 0.0
H734 H 0.45104 0.67931 0.3847 0.0
H735 H 0.47496 0.6833 0.42574 0.0
H736 H 0.5212 0.62357 0.47407 0.0
H737 H 0.51798 0.66092 0.44776 0.0
H738 H 0.41626 0.52072 0.35517 0.0
H739 H 0.41066 0.55851 0.33051 0.0
H740 H 0.40866 0.50366 0.40933 0.0
H741 H 0.43556 0.50747 0.44848 0.0
C742 C 0.07717 0.4286 0.90701 0.0
C743 C 0.10033 0.44935 0.87996 0.0
C744 C 0.09836 0.50373 0.91793 0.0
C745 C 0.07179 0.48355 0.94272 0.0
N746 N 0.03006 0.42692 0.95487 0.0
N747 N 0.1266 0.50867 0.85726 0.0
C748 C 0.05973 0.44599 0.93561 0.0
C749 C 0.10915 0.48749 0.88487 0.0
N750 N 0.07275 0.39199 0.90637 0.0
N751 N 0.11475 0.53822 0.92658 0.0
H752 H 0.13403 0.49825 0.83254 0.0
H753 H 0.13025 0.53663 0.85743 0.0
H754 H 0.10878 0.55064 0.95071 0.0
H755 H 0.13707 0.55312 0.91177 0.0
H756 H 0.05967 0.37555 0.92735 0.0
H757 H 0.08547 0.37827 0.88674 0.0
H758 H 1.01741 0.4006 0.94844 0.0
H759 H 1.0154 0.43849 0.97469 0.0
C760 C 0.60513 0.90741 0.97189 0.0
C761 C 0.60796 0.9072 0.93345 0.0
C762 C 0.59489 0.96843 0.93178 0.0
C763 C 0.59093 0.96767 0.97038 0.0
N764 N 0.61591 0.94543 1.02459 0.0
N765 N 0.61537 0.94084 0.87724 0.0
C766 C 0.60313 0.93992 0.9899 0.0
C767 C 0.60553 0.93868 0.91335 0.0
N768 N 0.6039 0.87653 0.99136 0.0
N769 N 0.59035 0.99827 0.91303 0.0
H770 H 0.62428 0.92005 0.86315 0.0
H771 H 0.61752 0.96406 0.86168 0.0
H772 H 0.59109 1.02295 0.92586 0.0
H773 H 0.58684 0.99885 0.885 0.0
H774 H 0.59887 0.87513 1.01937 0.0
H775 H 0.60413 0.8517 0.97912 0.0
H776 H 0.62698 0.92629 0.03889 0.0
H777 H 0.6214 0.97086 0.03652 0.0
C778 C 0.98472 0.12447 0.40535 0.0
C779 C 0.98685 0.15932 0.42036 0.0
C780 C 0.02555 0.1436 0.46906 0.0
C781 C 1.0127 0.10669 0.46073 0.0
N782 N 0.98682 0.06197 0.41649 0.0
N783 N 0.03661 0.20389 0.44453 0.0
C784 C 0.99476 0.09707 0.42719 0.0
C785 C 1.01526 0.17012 0.44623 0.0
N786 N 0.97803 0.11909 0.36915 0.0
N787 N 0.04773 0.15339 0.49835 0.0
H788 H 0.03408 0.22121 0.42305 0.0
H789 H 0.05992 0.21248 0.46072 0.0
H790 H 0.05859 0.13479 0.51352 0.0
H791 H 0.05421 0.17976 0.50794 0.0
H792 H 0.97935 0.09508 0.3558 0.0
H793 H 0.97574 0.14043 0.35193 0.0
H794 H 0.96976 0.05296 0.39449 0.0
H795 H 0.99666 0.04187 0.43047 0.0
C796 C 0.16655 0.62391 0.11399 0.0
C797 C 0.19356 0.60229 0.12124 0.0
C798 C 0.15446 0.55254 0.08642 0.0
C799 C 0.12619 0.57337 0.08138 0.0
N800 N 0.10279 0.62679 0.09707 0.0
N801 N 0.21072 0.54421 0.11798 0.0
C802 C 0.13172 0.60857 0.09684 0.0
C803 C 0.18666 0.56605 0.10848 0.0
N804 N 0.17439 0.65956 0.12303 0.0
N805 N 0.15131 0.52027 0.06885 0.0
H806 H 0.23476 0.5533 0.13308 0.0
H807 H 0.20564 0.51662 0.11325 0.0
H808 H 0.12882 0.5099 0.05217 0.0
H809 H 0.17225 0.5051 0.06815 0.0
H810 H 0.15835 0.67792 0.11467 0.0
H811 H 0.19858 0.67143 0.13671 0.0
H812 H 0.10318 0.65054 0.11149 0.0
H813 H 0.07686 0.61656 0.08563 0.0
C814 C 0.36935 0.43444 0.60773 0.0
C815 C 0.34421 0.45684 0.6193 0.0
C816 C 0.38506 0.50832 0.58809 0.0
C817 C 0.41186 0.48662 0.57924 0.0
N818 N 0.43188 0.43002 0.58661 0.0
N819 N 0.3305 0.51629 0.62406 0.0
C820 C 0.40447 0.44987 0.59046 0.0
C821 C 0.35287 0.49415 0.61052 0.0
N822 N 0.35953 0.39811 0.61296 0.0
N823 N 0.3895 0.54212 0.57365 0.0
H824 H 0.30622 0.50681 0.63934 0.0
H825 H 0.33732 0.54423 0.62249 0.0
H826 H 0.41177 0.55288 0.55631 0.0
H827 H 0.3695 0.55827 0.57593 0.0
H828 H 0.37409 0.37974 0.60131 0.0
H829 H 0.33515 0.38597 0.62683 0.0
H830 H 0.43016 0.40467 0.59811 0.0
H831 H 0.45796 0.44005 0.57473 0.0
C832 C 0.81912 0.65563 0.92761 0.0
C833 C 0.81924 0.69014 0.91274 0.0
C834 C 0.88657 0.70775 0.92351 0.0
C835 C 0.88716 0.67218 0.9349 0.0
N836 N 0.85541 0.61027 0.94145 0.0
N837 N 0.85431 0.74639 0.88914 0.0
C838 C 0.8538 0.64549 0.93522 0.0
C839 C 0.85334 0.7155 0.90859 0.0
N840 N 0.78591 0.63298 0.93545 0.0
N841 N 0.91739 0.73442 0.92797 0.0
H842 H 0.83077 0.75277 0.87691 0.0
H843 H 0.8791 0.76396 0.88208 0.0
H844 H 0.94221 0.72989 0.93921 0.0
H845 H 0.91718 0.76155 0.92372 0.0
H846 H 0.78405 0.60904 0.94985 0.0
H847 H 0.75996 0.63959 0.93036 0.0
H848 H 0.83261 0.58919 0.93824 0.0
H849 H 0.88034 0.60165 0.94662 0.0
C850 C 0.48393 0.86656 0.10291 0.0
C851 C 0.45257 0.86356 0.12733 0.0
C852 C 0.44828 0.92665 0.11096 0.0
C853 C 0.48064 0.93012 0.08789 0.0
N854 N 0.53151 0.90416 0.06493 0.0
N855 N 0.40705 0.89254 0.15702 0.0
C856 C 0.49892 0.90016 0.08472 0.0
C857 C 0.43555 0.89427 0.13207 0.0
N858 N 0.49932 0.83691 0.0967 0.0
N859 N 0.42872 0.954 0.1116 0.0
H860 H 0.3956 0.86912 0.17124 0.0
H861 H 0.39611 0.91468 0.16535 0.0
H862 H 0.43725 0.97776 0.09689 0.0
H863 H 0.4028 0.95241 0.12443 0.0
H864 H 0.51865 0.83516 0.07598 0.0
H865 H 0.49137 0.813 0.11127 0.0
H866 H 0.54914 0.88561 0.06473 0.0
H867 H 0.54236 0.92743 0.0503 0.0
C868 C 0.0628 0.18757 0.60956 0.0
C869 C 0.09217 0.1904 0.63537 0.0
C870 C 0.0965 0.12712 0.6205 0.0
C871 C 0.06516 0.12353 0.59707 0.0
N872 N 1.01353 0.14894 0.57601 0.0
N873 N 0.13058 0.15893 0.67108 0.0
C874 C 0.0467 0.15327 0.59392 0.0
C875 C 0.10728 0.15902 0.64229 0.0
N876 N 0.0516 0.21801 0.59807 0.0
N877 N 0.11615 0.09993 0.62215 0.0
H878 H 0.13772 0.18082 0.68858 0.0
H879 H 0.13962 0.13602 0.67995 0.0
H880 H 0.10812 0.07561 0.60838 0.0
H881 H 0.14176 0.10247 0.63514 0.0
H882 H 0.0334 0.21827 0.5765 0.0
H883 H 0.06343 0.24363 0.60743 0.0
H884 H 0.99667 0.16823 0.57622 0.0
H885 H 1.00141 0.12499 0.56326 0.0
C886 C 0.72262 0.38107 0.47351 0.0
C887 C 0.72109 0.34711 0.4567 0.0
C888 C 0.65248 0.33628 0.45926 0.0
C889 C 0.65416 0.37228 0.47072 0.0
N890 N 0.69108 0.43081 0.48461 0.0
N891 N 0.68438 0.29443 0.42821 0.0
C892 C 0.68931 0.39518 0.47707 0.0
C893 C 0.68596 0.32505 0.4484 0.0
N894 N 0.75589 0.39962 0.48638 0.0
N895 N 0.61888 0.3127 0.45918 0.0
H896 H 0.70807 0.28542 0.41882 0.0
H897 H 0.65954 0.27967 0.41794 0.0
H898 H 0.5938 0.32001 0.46725 0.0
H899 H 0.61646 0.28521 0.4546 0.0
H900 H 0.75816 0.42289 0.50201 0.0
H901 H 0.78071 0.38982 0.48434 0.0
H902 H 0.71612 0.44955 0.48548 0.0
H903 H 0.66742 0.44239 0.48702 0.0
loop_
_geom_bond_atom_site_label_1
_geom_bond_atom_site_label_2
_geom_bond_distance
_geom_bond_site_symmetry_2
_ccdc_geom_bond_type
C0 C1 1.386 . S
C0 C2 1.397 . S
C0 H24 0.931 . S
C1 C0 1.386 . S
C1 C5 1.397 . S
C2 C0 1.397 . S
C2 C3 1.384 . S
C2 H25 0.930 . S
C3 C2 1.384 . S
C3 C4 1.377 . S
C3 C6 1.481 . S
C4 C3 1.377 . S
C4 C5 1.389 . S
C4 H26 0.929 . S
C5 C1 1.397 . S
C5 C4 1.389 . S
C5 H27 0.931 . S
C6 C3 1.481 . S
C6 C7 1.387 . S
C6 C11 1.390 . S
C7 C6 1.387 . S
C7 C8 1.401 . S
C7 H28 0.930 . S
C8 C7 1.401 . S
C8 C9 1.376 . S
C8 C17 1.511 . S
C9 C8 1.376 . S
C9 C10 1.392 . S
C9 H30 0.931 . S
C10 C9 1.392 . S
C10 C11 1.361 . S
C10 C12 1.500 . S
C11 C6 1.390 . S
C11 C10 1.361 . S
C11 H29 0.931 . S
C12 C10 1.500 . S
C12 C13 1.371 . S
C12 C14 1.365 . S
C13 C12 1.371 . S
C13 C23 1.386 . S
C13 H31 0.931 . S
C14 C12 1.365 . S
C14 C15 1.409 . S
C14 H32 0.929 . S
C15 C14 1.409 . S
C15 C16 1.380 . S
C15 H33 0.930 . S
C16 C15 1.380 . S
C16 C23 1.357 . S
C17 C8 1.511 . S
C17 C18 1.341 . S
C17 C19 1.371 . S
C18 C17 1.341 . S
C18 C22 1.394 . S
C18 H34 0.930 . S
C19 C17 1.371 . S
C19 C20 1.392 . S
C19 H35 0.931 . S
C20 C19 1.392 . S
C20 C21 1.331 . S
C20 H38 0.932 . S
C21 C20 1.331 . S
C21 C22 1.336 . S
C22 C18 1.394 . S
C22 C21 1.336 . S
C22 H37 0.929 . S
C23 C13 1.386 . S
C23 C16 1.357 . S
C23 H36 0.928 . S
H24 C0 0.931 . S
H25 C2 0.930 . S
H26 C4 0.929 . S
H27 C5 0.931 . S
H28 C7 0.930 . S
H29 C11 0.931 . S
H30 C9 0.931 . S
H31 C13 0.931 . S
H32 C14 0.929 . S
H33 C15 0.930 . S
H34 C18 0.930 . S
H35 C19 0.931 . S
H36 C23 0.928 . S
H37 C22 0.929 . S
H38 C20 0.932 . S
C39 C40 1.386 . S
C39 C41 1.397 . S
C39 H63 0.931 . S
C40 C39 1.386 . S
C40 C44 1.397 . S
C41 C39 1.397 . S
C41 C42 1.384 . S
C41 H64 0.930 . S
C42 C41 1.384 . S
C42 C43 1.377 . S
C42 C45 1.481 . S
C43 C42 1.377 . S
C43 C44 1.389 . S
C43 H65 0.929 . S
C44 C40 1.397 . S
C44 C43 1.389 . S
C44 H66 0.931 . S
C45 C42 1.481 . S
C45 C46 1.387 . S
C45 C50 1.390 . S
C46 C45 1.387 . S
C46 C47 1.401 . S
C46 H67 0.930 . S
C47 C46 1.401 . S
C47 C48 1.376 . S
C47 C56 1.511 . S
C48 C47 1.376 . S
C48 C49 1.392 . S
C48 H69 0.931 . S
C49 C48 1.392 . S
C49 C50 1.361 . S
C49 C51 1.500 . S
C50 C45 1.390 . S
C50 C49 1.361 . S
C50 H68 0.931 . S
C51 C49 1.500 . S
C51 C52 1.371 . S
C51 C53 1.365 . S
C52 C51 1.371 . S
C52 C62 1.386 . S
C52 H70 0.931 . S
C53 C51 1.365 . S
C53 C54 1.409 . S
C53 H71 0.929 . S
C54 C53 1.409 . S
C54 C55 1.380 . S
C54 H72 0.930 . S
C55 C54 1.380 . S
C55 C62 1.357 . S
C56 C47 1.511 . S
C56 C57 1.341 . S
C56 C58 1.371 . S
C57 C56 1.341 . S
C57 C61 1.394 . S
C57 H73 0.930 . S
C58 C56 1.371 . S
C58 C59 1.392 . S
C58 H74 0.931 . S
C59 C58 1.392 . S
C59 C60 1.331 . S
C59 H77 0.932 . S
C60 C59 1.331 . S
C60 C61 1.336 . S
C61 C57 1.394 . S
C61 C60 1.336 . S
C61 H76 0.929 . S
C62 C52 1.386 . S
C62 C55 1.357 . S
C62 H75 0.928 . S
H63 C39 0.931 . S
H64 C41 0.930 . S
H65 C43 0.929 . S
H66 C44 0.931 . S
H67 C46 0.930 . S
H68 C50 0.931 . S
H69 C48 0.931 . S
H70 C52 0.931 . S
H71 C53 0.929 . S
H72 C54 0.930 . S
H73 C57 0.930 . S
H74 C58 0.931 . S
H75 C62 0.928 . S
H76 C61 0.929 . S
H77 C59 0.932 . S
C78 C79 1.386 . S
C78 C80 1.397 . S
C78 H102 0.931 . S
C79 C78 1.386 . S
C79 C83 1.397 . S
C80 C78 1.397 . S
C80 C81 1.384 . S
C80 H103 0.930 . S
C81 C80 1.384 . S
C81 C82 1.377 . S
C81 C84 1.481 . S
C82 C81 1.377 . S
C82 C83 1.389 . S
C82 H104 0.929 . S
C83 C79 1.397 . S
C83 C82 1.389 . S
C83 H105 0.931 . S
C84 C81 1.481 . S
C84 C85 1.387 . S
C84 C89 1.390 . S
C85 C84 1.387 . S
C85 C86 1.401 . S
C85 H106 0.930 . S
C86 C85 1.401 . S
C86 C87 1.376 . S
C86 C95 1.511 . S
C87 C86 1.376 . S
C87 C88 1.392 . S
C87 H108 0.931 . S
C88 C87 1.392 . S
C88 C89 1.361 . S
C88 C90 1.500 . S
C89 C84 1.390 . S
C89 C88 1.361 . S
C89 H107 0.931 . S
C90 C88 1.500 . S
C90 C91 1.371 . S
C90 C92 1.365 . S
C91 C90 1.371 . S
C91 C101 1.386 . S
C91 H109 0.931 . S
C92 C90 1.365 . S
C92 C93 1.409 . S
C92 H110 0.929 . S
C93 C92 1.409 . S
C93 C94 1.380 . S
C93 H111 0.930 . S
C94 C93 1.380 . S
C94 C101 1.357 . S
C95 C86 1.511 . S
C95 C96 1.341 . S
C95 C97 1.371 . S
C96 C95 1.341 . S
C96 C100 1.394 . S
C96 H112 0.930 . S
C97 C95 1.371 . S
C97 C98 1.392 . S
C97 H113 0.931 . S
C98 C97 1.392 . S
C98 C99 1.331 . S
C98 H116 0.932 . S
C99 C98 1.331 . S
C99 C100 1.336 . S
C100 C96 1.394 . S
C100 C99 1.336 . S
C100 H115 0.929 . S
C101 C91 1.386 . S
C101 C94 1.357 . S
C101 H114 0.928 . S
H102 C78 0.931 . S
H103 C80 0.930 . S
H104 C82 0.929 . S
H105 C83 0.931 . S
H106 C85 0.930 . S
H107 C89 0.931 . S
H108 C87 0.931 . S
H109 C91 0.931 . S
H110 C92 0.929 . S
H111 C93 0.930 . S
H112 C96 0.930 . S
H113 C97 0.931 . S
H114 C101 0.928 . S
H115 C100 0.929 . S
H116 C98 0.932 . S
C117 C118 1.386 . S
C117 C119 1.397 . S
C117 H141 0.931 . S
C118 C117 1.386 . S
C118 C122 1.397 . S
C119 C117 1.397 . S
C119 C120 1.384 . S
C119 H142 0.930 . S
C120 C119 1.384 . S
C120 C121 1.377 . S
C120 C123 1.481 . S
C121 C120 1.377 . S
C121 C122 1.389 . S
C121 H143 0.929 . S
C122 C118 1.397 . S
C122 C121 1.389 . S
C122 H144 0.931 . S
C123 C120 1.481 . S
C123 C124 1.387 . S
C123 C128 1.390 . S
C124 C123 1.387 . S
C124 C125 1.401 . S
C124 H145 0.930 . S
C125 C124 1.401 . S
C125 C126 1.376 . S
C125 C134 1.511 . S
C126 C125 1.376 . S
C126 C127 1.392 . S
C126 H147 0.931 . S
C127 C126 1.392 . S
C127 C128 1.361 . S
C127 C129 1.500 . S
C128 C123 1.390 . S
C128 C127 1.361 . S
C128 H146 0.931 . S
C129 C127 1.500 . S
C129 C130 1.371 . S
C129 C131 1.365 . S
C130 C129 1.371 . S
C130 C140 1.386 . S
C130 H148 0.931 . S
C131 C129 1.365 . S
C131 C132 1.409 . S
C131 H149 0.929 . S
C132 C131 1.409 . S
C132 C133 1.380 . S
C132 H150 0.930 . S
C133 C132 1.380 . S
C133 C140 1.357 . S
C134 C125 1.511 . S
C134 C135 1.341 . S
C134 C136 1.371 . S
C135 C134 1.341 . S
C135 C139 1.394 . S
C135 H151 0.930 . S
C136 C134 1.371 . S
C136 C137 1.392 . S
C136 H152 0.931 . S
C137 C136 1.392 . S
C137 C138 1.331 . S
C137 H155 0.932 . S
C138 C137 1.331 . S
C138 C139 1.336 . S
C139 C135 1.394 . S
C139 C138 1.336 . S
C139 H154 0.929 . S
C140 C130 1.386 . S
C140 C133 1.357 . S
C140 H153 0.928 . S
H141 C117 0.931 . S
H142 C119 0.930 . S
H143 C121 0.929 . S
H144 C122 0.931 . S
H145 C124 0.930 . S
H146 C128 0.931 . S
H147 C126 0.931 . S
H148 C130 0.931 . S
H149 C131 0.929 . S
H150 C132 0.930 . S
H151 C135 0.930 . S
H152 C136 0.931 . S
H153 C140 0.928 . S
H154 C139 0.929 . S
H155 C137 0.932 . S
C156 C157 1.386 . S
C156 C158 1.397 . S
C156 H180 0.931 . S
C157 C156 1.386 . S
C157 C161 1.397 . S
C158 C156 1.397 . S
C158 C159 1.384 . S
C158 H181 0.930 . S
C159 C158 1.384 . S
C159 C160 1.377 . S
C159 C162 1.481 . S
C160 C159 1.377 . S
C160 C161 1.389 . S
C160 H182 0.929 . S
C161 C157 1.397 . S
C161 C160 1.389 . S
C161 H183 0.931 . S
C162 C159 1.481 . S
C162 C163 1.387 . S
C162 C167 1.390 . S
C163 C162 1.387 . S
C163 C164 1.401 . S
C163 H184 0.930 . S
C164 C163 1.401 . S
C164 C165 1.376 . S
C164 C173 1.511 . S
C165 C164 1.376 . S
C165 C166 1.392 . S
C165 H186 0.931 . S
C166 C165 1.392 . S
C166 C167 1.361 . S
C166 C168 1.500 . S
C167 C162 1.390 . S
C167 C166 1.361 . S
C167 H185 0.931 . S
C168 C166 1.500 . S
C168 C169 1.371 . S
C168 C170 1.365 . S
C169 C168 1.371 . S
C169 C179 1.386 . S
C169 H187 0.931 . S
C170 C168 1.365 . S
C170 C171 1.409 . S
C170 H188 0.929 . S
C171 C170 1.409 . S
C171 C172 1.380 . S
C171 H189 0.930 . S
C172 C171 1.380 . S
C172 C179 1.357 . S
C173 C164 1.511 . S
C173 C174 1.341 . S
C173 C175 1.371 . S
C174 C173 1.341 . S
C174 C178 1.394 . S
C174 H190 0.930 . S
C175 C173 1.371 . S
C175 C176 1.392 . S
C175 H191 0.931 . S
C176 C175 1.392 . S
C176 C177 1.331 . S
C176 H194 0.932 . S
C177 C176 1.331 . S
C177 C178 1.336 . S
C178 C174 1.394 . S
C178 C177 1.336 . S
C178 H193 0.929 . S
C179 C169 1.386 . S
C179 C172 1.357 . S
C179 H192 0.928 . S
H180 C156 0.931 . S
H181 C158 0.930 . S
H182 C160 0.929 . S
H183 C161 0.931 . S
H184 C163 0.930 . S
H185 C167 0.931 . S
H186 C165 0.931 . S
H187 C169 0.931 . S
H188 C170 0.929 . S
H189 C171 0.930 . S
H190 C174 0.930 . S
H191 C175 0.931 . S
H192 C179 0.928 . S
H193 C178 0.929 . S
H194 C176 0.932 . S
C195 C196 1.386 . S
C195 C197 1.397 . S
C195 H219 0.931 . S
C196 C195 1.386 . S
C196 C200 1.397 . S
C197 C195 1.397 . S
C197 C198 1.384 . S
C197 H220 0.930 . S
C198 C197 1.384 . S
C198 C199 1.377 . S
C198 C201 1.481 . S
C199 C198 1.377 . S
C199 C200 1.389 . S
C199 H221 0.929 . S
C200 C196 1.397 . S
C200 C199 1.389 . S
C200 H222 0.931 . S
C201 C198 1.481 . S
C201 C202 1.387 . S
C201 C206 1.390 . S
C202 C201 1.387 . S
C202 C203 1.401 . S
C202 H223 0.930 . S
C203 C202 1.401 . S
C203 C204 1.376 . S
C203 C212 1.511 . S
C204 C203 1.376 . S
C204 C205 1.392 . S
C204 H225 0.931 . S
C205 C204 1.392 . S
C205 C206 1.361 . S
C205 C207 1.500 . S
C206 C201 1.390 . S
C206 C205 1.361 . S
C206 H224 0.931 . S
C207 C205 1.500 . S
C207 C208 1.371 . S
C207 C209 1.365 . S
C208 C207 1.371 . S
C208 C218 1.386 . S
C208 H226 0.931 . S
C209 C207 1.365 . S
C209 C210 1.409 . S
C209 H227 0.929 . S
C210 C209 1.409 . S
C210 C211 1.380 . S
C210 H228 0.930 . S
C211 C210 1.380 . S
C211 C218 1.357 . S
C212 C203 1.511 . S
C212 C213 1.341 . S
C212 C214 1.371 . S
C213 C212 1.341 . S
C213 C217 1.394 . S
C213 H229 0.930 . S
C214 C212 1.371 . S
C214 C215 1.392 . S
C214 H230 0.931 . S
C215 C214 1.392 . S
C215 C216 1.331 . S
C215 H233 0.932 . S
C216 C215 1.331 . S
C216 C217 1.336 . S
C217 C213 1.394 . S
C217 C216 1.336 . S
C217 H232 0.929 . S
C218 C208 1.386 . S
C218 C211 1.357 . S
C218 H231 0.928 . S
H219 C195 0.931 . S
H220 C197 0.930 . S
H221 C199 0.929 . S
H222 C200 0.931 . S
H223 C202 0.930 . S
H224 C206 0.931 . S
H225 C204 0.931 . S
H226 C208 0.931 . S
H227 C209 0.929 . S
H228 C210 0.930 . S
H229 C213 0.930 . S
H230 C214 0.931 . S
H231 C218 0.928 . S
H232 C217 0.929 . S
H233 C215 0.932 . S
C234 C235 1.386 . S
C234 C236 1.397 . S
C234 H258 0.931 . S
C235 C234 1.386 . S
C235 C239 1.397 . S
C236 C234 1.397 . S
C236 C237 1.384 . S
C236 H259 0.930 . S
C237 C236 1.384 . S
C237 C238 1.377 . S
C237 C240 1.481 . S
C238 C237 1.377 . S
C238 C239 1.389 . S
C238 H260 0.929 . S
C239 C235 1.397 . S
C239 C238 1.389 . S
C239 H261 0.931 . S
C240 C237 1.481 . S
C240 C241 1.387 . S
C240 C245 1.390 . S
C241 C240 1.387 . S
C241 C242 1.401 . S
C241 H262 0.930 . S
C242 C241 1.401 . S
C242 C243 1.376 . S
C242 C251 1.511 . S
C243 C242 1.376 . S
C243 C244 1.392 . S
C243 H264 0.931 . S
C244 C243 1.392 . S
C244 C245 1.361 . S
C244 C246 1.500 . S
C245 C240 1.390 . S
C245 C244 1.361 . S
C245 H263 0.931 . S
C246 C244 1.500 . S
C246 C247 1.371 . S
C246 C248 1.365 . S
C247 C246 1.371 . S
C247 C257 1.386 . S
C247 H265 0.931 . S
C248 C246 1.365 . S
C248 C249 1.409 . S
C248 H266 0.929 . S
C249 C248 1.409 . S
C249 C250 1.380 . S
C249 H267 0.930 . S
C250 C249 1.380 . S
C250 C257 1.357 . S
C251 C242 1.511 . S
C251 C252 1.341 . S
C251 C253 1.371 . S
C252 C251 1.341 . S
C252 C256 1.394 . S
C252 H268 0.930 . S
C253 C251 1.371 . S
C253 C254 1.392 . S
C253 H269 0.931 . S
C254 C253 1.392 . S
C254 C255 1.331 . S
C254 H272 0.932 . S
C255 C254 1.331 . S
C255 C256 1.336 . S
C256 C252 1.394 . S
C256 C255 1.336 . S
C256 H271 0.929 . S
C257 C247 1.386 . S
C257 C250 1.357 . S
C257 H270 0.928 . S
H258 C234 0.931 . S
H259 C236 0.930 . S
H260 C238 0.929 . S
H261 C239 0.931 . S
H262 C241 0.930 . S
H263 C245 0.931 . S
H264 C243 0.931 . S
H265 C247 0.931 . S
H266 C248 0.929 . S
H267 C249 0.930 . S
H268 C252 0.930 . S
H269 C253 0.931 . S
H270 C257 0.928 . S
H271 C256 0.929 . S
H272 C254 0.932 . S
C273 C274 1.386 . S
C273 C275 1.397 . S
C273 H297 0.931 . S
C274 C273 1.386 . S
C274 C278 1.397 . S
C275 C273 1.397 . S
C275 C276 1.384 . S
C275 H298 0.930 . S
C276 C275 1.384 . S
C276 C277 1.377 . S
C276 C279 1.481 . S
C277 C276 1.377 . S
C277 C278 1.389 . S
C277 H299 0.929 . S
C278 C274 1.397 . S
C278 C277 1.389 . S
C278 H300 0.931 . S
C279 C276 1.481 . S
C279 C280 1.387 . S
C279 C284 1.390 . S
C280 C279 1.387 . S
C280 C281 1.401 . S
C280 H301 0.930 . S
C281 C280 1.401 . S
C281 C282 1.376 . S
C281 C290 1.511 . S
C282 C281 1.376 . S
C282 C283 1.392 . S
C282 H303 0.931 . S
C283 C282 1.392 . S
C283 C284 1.361 . S
C283 C285 1.500 . S
C284 C279 1.390 . S
C284 C283 1.361 . S
C284 H302 0.931 . S
C285 C283 1.500 . S
C285 C286 1.371 . S
C285 C287 1.365 . S
C286 C285 1.371 . S
C286 C296 1.386 . S
C286 H304 0.931 . S
C287 C285 1.365 . S
C287 C288 1.409 . S
C287 H305 0.929 . S
C288 C287 1.409 . S
C288 C289 1.380 . S
C288 H306 0.930 . S
C289 C288 1.380 . S
C289 C296 1.357 . S
C290 C281 1.511 . S
C290 C291 1.341 . S
C290 C292 1.371 . S
C291 C290 1.341 . S
C291 C295 1.394 . S
C291 H307 0.930 . S
C292 C290 1.371 . S
C292 C293 1.392 . S
C292 H308 0.931 . S
C293 C292 1.392 . S
C293 C294 1.331 . S
C293 H311 0.932 . S
C294 C293 1.331 . S
C294 C295 1.336 . S
C295 C291 1.394 . S
C295 C294 1.336 . S
C295 H310 0.929 . S
C296 C286 1.386 . S
C296 C289 1.357 . S
C296 H309 0.928 . S
H297 C273 0.931 . S
H298 C275 0.930 . S
H299 C277 0.929 . S
H300 C278 0.931 . S
H301 C280 0.930 . S
H302 C284 0.931 . S
H303 C282 0.931 . S
H304 C286 0.931 . S
H305 C287 0.929 . S
H306 C288 0.930 . S
H307 C291 0.930 . S
H308 C292 0.931 . S
H309 C296 0.928 . S
H310 C295 0.929 . S
H311 C293 0.932 . S
Tb312 C321 2.764 . S
Tb312 O322 2.311 1_455 S
Tb312 O325 2.303 . S
Tb312 O329 2.322 1_545 S
Tb312 O330 2.349 1_545 S
Tb312 O333 2.415 . S
Tb312 O334 2.399 . S
Tb313 O323 2.332 . S
Tb313 O324 2.361 . S
Tb313 O326 2.403 1_545 S
Tb313 O327 2.398 1_545 S
Tb313 O328 2.317 1_645 S
Tb313 O331 2.294 1_545 S
Tb313 C342 2.757 1_545 S
C314 O330 1.261 1_655 S
C314 O331 1.257 . S
C315 C318 1.358 . S
C315 C319 1.332 . S
C315 C321 1.504 . S
C316 C317 1.373 . S
C316 C320 1.308 . S
C317 C316 1.373 . S
C317 C318 1.429 . S
C317 H344 0.932 . S
C318 C315 1.358 . S
C318 C317 1.429 . S
C318 H345 0.930 . S
C319 C315 1.332 . S
C319 C320 1.394 . S
C319 H346 0.932 . S
C320 C316 1.308 . S
C320 C319 1.394 . S
C320 H347 0.929 . S
C321 Tb312 2.764 . S
C321 C315 1.504 . S
C321 O333 1.239 . S
C321 O334 1.263 . S
O322 Tb312 2.311 1_655 S
O322 C332 1.251 . S
O323 Tb313 2.332 . S
O323 C332 1.257 . S
O324 Tb313 2.361 . S
O324 C335 1.261 1_655 S
O325 Tb312 2.303 . S
O325 C335 1.257 . S
O326 Tb313 2.403 1_565 S
O326 C342 1.239 . S
O327 Tb313 2.398 1_565 S
O327 C342 1.263 . S
O328 Tb313 2.317 1_465 S
O328 C343 1.236 . S
O329 Tb312 2.322 1_565 S
O329 C343 1.257 . S
O330 Tb312 2.349 1_565 S
O330 C314 1.261 1_455 S
O331 Tb313 2.294 1_565 S
O331 C314 1.257 . S
C332 O322 1.251 . S
C332 O323 1.257 . S
O333 Tb312 2.415 . S
O333 C321 1.239 . S
O334 Tb312 2.399 . S
O334 C321 1.263 . S
C335 O324 1.261 1_455 S
C335 O325 1.257 . S
C336 C339 1.358 . S
C336 C340 1.332 . S
C336 C342 1.504 . S
C337 C338 1.373 . S
C337 C341 1.308 . S
C338 C337 1.373 . S
C338 C339 1.429 . S
C338 H348 0.932 . S
C339 C336 1.358 . S
C339 C338 1.429 . S
C339 H349 0.930 . S
C340 C336 1.332 . S
C340 C341 1.394 . S
C340 H350 0.932 . S
C341 C337 1.308 . S
C341 C340 1.394 . S
C341 H351 0.929 . S
C342 Tb313 2.757 1_565 S
C342 O326 1.239 . S
C342 O327 1.263 . S
C342 C336 1.504 . S
C343 O328 1.236 . S
C343 O329 1.257 . S
H344 C317 0.932 . S
H345 C318 0.930 . S
H346 C319 0.932 . S
H347 C320 0.929 . S
H348 C338 0.932 . S
H349 C339 0.930 . S
H350 C340 0.932 . S
H351 C341 0.929 . S
Tb352 C361 2.764 . S
Tb352 O362 2.325 1_554 S
Tb352 O365 2.303 . S
Tb352 O369 2.322 1_545 S
Tb352 O370 2.349 1_544 S
Tb352 O373 2.415 . S
Tb352 O374 2.399 . S
Tb353 O363 2.322 1_565 S
Tb353 O364 2.349 1_566 S
Tb353 O366 2.415 . S
Tb353 O367 2.399 . S
Tb353 O368 2.325 1_556 S
Tb353 O371 2.303 . S
Tb353 C382 2.764 . S
C354 O370 1.261 . S
C354 O371 1.257 . S
C355 C358 1.358 . S
C355 C359 1.332 . S
C355 C361 1.504 . S
C356 C357 1.373 . S
C356 C360 1.308 . S
C357 C356 1.373 . S
C357 C358 1.429 . S
C357 H384 0.932 . S
C358 C355 1.358 . S
C358 C357 1.429 . S
C358 H385 0.930 . S
C359 C355 1.332 . S
C359 C360 1.394 . S
C359 H386 0.932 . S
C360 C356 1.308 . S
C360 C359 1.394 . S
C360 H387 0.929 . S
C361 Tb352 2.764 . S
C361 C355 1.504 . S
C361 O373 1.239 . S
C361 O374 1.263 . S
O362 Tb352 2.325 1_556 S
O362 C372 1.236 . S
O363 Tb353 2.322 1_545 S
O363 C372 1.257 . S
O364 Tb353 2.349 1_544 S
O364 C375 1.261 . S
O365 Tb352 2.303 . S
O365 C375 1.257 . S
O366 Tb353 2.415 . S
O366 C382 1.239 . S
O367 Tb353 2.399 . S
O367 C382 1.263 . S
O368 Tb353 2.325 1_554 S
O368 C383 1.236 . S
O369 Tb352 2.322 1_565 S
O369 C383 1.257 . S
O370 Tb352 2.349 1_566 S
O370 C354 1.261 . S
O371 Tb353 2.303 . S
O371 C354 1.257 . S
C372 O362 1.236 . S
C372 O363 1.257 . S
O373 Tb352 2.415 . S
O373 C361 1.239 . S
O374 Tb352 2.399 . S
O374 C361 1.263 . S
C375 O364 1.261 . S
C375 O365 1.257 . S
C376 C379 1.358 . S
C376 C380 1.332 . S
C376 C382 1.504 . S
C377 C378 1.373 . S
C377 C381 1.308 . S
C378 C377 1.373 . S
C378 C379 1.429 . S
C378 H388 0.932 . S
C379 C376 1.358 . S
C379 C378 1.429 . S
C379 H389 0.930 . S
C380 C376 1.332 . S
C380 C381 1.394 . S
C380 H390 0.932 . S
C381 C377 1.308 . S
C381 C380 1.394 . S
C381 H391 0.929 . S
C382 Tb353 2.764 . S
C382 O366 1.239 . S
C382 O367 1.263 . S
C382 C376 1.504 . S
C383 O368 1.236 . S
C383 O369 1.257 . S
H384 C357 0.932 . S
H385 C358 0.930 . S
H386 C359 0.932 . S
H387 C360 0.929 . S
H388 C378 0.932 . S
H389 C379 0.930 . S
H390 C380 0.932 . S
H391 C381 0.929 . S
Tb392 C401 2.764 . S
Tb392 O402 2.325 . S
Tb392 O405 2.303 . S
Tb392 O409 2.322 . S
Tb392 O410 2.349 . S
Tb392 O413 2.415 . S
Tb392 O414 2.399 . S
Tb393 O403 2.322 . S
Tb393 O404 2.349 . S
Tb393 O406 2.415 . S
Tb393 O407 2.399 . S
Tb393 O408 2.325 . S
Tb393 O411 2.303 . S
Tb393 C422 2.764 . S
C394 O410 1.261 . S
C394 O411 1.257 . S
C395 C398 1.358 . S
C395 C399 1.332 . S
C395 C401 1.504 . S
C396 C397 1.373 . S
C396 C400 1.308 . S
C397 C396 1.373 . S
C397 C398 1.429 . S
C397 H424 0.932 . S
C398 C395 1.358 . S
C398 C397 1.429 . S
C398 H425 0.930 . S
C399 C395 1.332 . S
C399 C400 1.394 . S
C399 H426 0.932 . S
C400 C396 1.308 . S
C400 C399 1.394 . S
C400 H427 0.929 . S
C401 Tb392 2.764 . S
C401 C395 1.504 . S
C401 O413 1.239 . S
C401 O414 1.263 . S
O402 Tb392 2.325 . S
O402 C412 1.236 . S
O403 Tb393 2.322 . S
O403 C412 1.257 . S
O404 Tb393 2.349 . S
O404 C415 1.261 . S
O405 Tb392 2.303 . S
O405 C415 1.257 . S
O406 Tb393 2.415 . S
O406 C422 1.239 . S
O407 Tb393 2.399 . S
O407 C422 1.263 . S
O408 Tb393 2.325 . S
O408 C423 1.236 . S
O409 Tb392 2.322 . S
O409 C423 1.257 . S
O410 Tb392 2.349 . S
O410 C394 1.261 . S
O411 Tb393 2.303 . S
O411 C394 1.257 . S
C412 O402 1.236 . S
C412 O403 1.257 . S
O413 Tb392 2.415 . S
O413 C401 1.239 . S
O414 Tb392 2.399 . S
O414 C401 1.263 . S
C415 O404 1.261 . S
C415 O405 1.257 . S
C416 C419 1.358 . S
C416 C420 1.332 . S
C416 C422 1.504 . S
C417 C418 1.373 . S
C417 C421 1.308 . S
C418 C417 1.373 . S
C418 C419 1.429 . S
C418 H428 0.932 . S
C419 C416 1.358 . S
C419 C418 1.429 . S
C419 H429 0.930 . S
C420 C416 1.332 . S
C420 C421 1.394 . S
C420 H430 0.932 . S
C421 C417 1.308 . S
C421 C420 1.394 . S
C421 H431 0.929 . S
C422 Tb393 2.764 . S
C422 O406 1.239 . S
C422 O407 1.263 . S
C422 C416 1.504 . S
C423 O408 1.236 . S
C423 O409 1.257 . S
H424 C397 0.932 . S
H425 C398 0.930 . S
H426 C399 0.932 . S
H427 C400 0.929 . S
H428 C418 0.932 . S
H429 C419 0.930 . S
H430 C420 0.932 . S
H431 C421 0.929 . S
Tb432 C441 2.764 . S
Tb432 O442 2.325 . S
Tb432 O445 2.303 1_556 S
Tb432 O449 2.329 1_655 S
Tb432 O450 2.349 1_655 S
Tb432 O453 2.415 . S
Tb432 O454 2.399 . S
Tb433 O443 2.322 1_455 S
Tb433 O444 2.349 1_455 S
Tb433 O446 2.415 . S
Tb433 O447 2.399 . S
Tb433 O448 2.325 . S
Tb433 O451 2.303 1_554 S
Tb433 C462 2.764 . S
C434 O450 1.261 . S
C434 O451 1.257 . S
C435 C438 1.358 . S
C435 C439 1.332 . S
C435 C441 1.504 . S
C436 C437 1.373 . S
C436 C440 1.308 . S
C437 C436 1.373 . S
C437 C438 1.429 . S
C437 H464 0.932 . S
C438 C435 1.358 . S
C438 C437 1.429 . S
C438 H465 0.930 . S
C439 C435 1.332 . S
C439 C440 1.394 . S
C439 H466 0.932 . S
C440 C436 1.308 . S
C440 C439 1.394 . S
C440 H467 0.929 . S
C441 Tb432 2.764 . S
C441 C435 1.504 . S
C441 O453 1.239 . S
C441 O454 1.263 . S
O442 Tb432 2.325 . S
O442 C452 1.236 . S
O443 Tb433 2.322 1_655 S
O443 C452 1.257 1_554 S
O444 Tb433 2.349 1_655 S
O444 C455 1.261 . S
O445 Tb432 2.303 1_554 S
O445 C455 1.257 . S
O446 Tb433 2.415 . S
O446 C462 1.239 . S
O447 Tb433 2.399 . S
O447 C462 1.263 . S
O448 Tb433 2.325 . S
O448 C463 1.236 . S
O449 Tb432 2.329 1_455 S
O449 C463 1.247 1_556 S
O450 Tb432 2.349 1_455 S
O450 C434 1.261 . S
O451 Tb433 2.303 1_556 S
O451 C434 1.257 . S
C452 O442 1.236 . S
C452 O443 1.257 1_556 S
O453 Tb432 2.415 . S
O453 C441 1.239 . S
O454 Tb432 2.399 . S
O454 C441 1.263 . S
C455 O444 1.261 . S
C455 O445 1.257 . S
C456 C459 1.358 . S
C456 C460 1.332 . S
C456 C462 1.504 . S
C457 C458 1.373 . S
C457 C461 1.308 . S
C458 C457 1.373 . S
C458 C459 1.429 . S
C458 H468 0.932 . S
C459 C456 1.358 . S
C459 C458 1.429 . S
C459 H469 0.930 . S
C460 C456 1.332 . S
C460 C461 1.394 . S
C460 H470 0.932 . S
C461 C457 1.308 . S
C461 C460 1.394 . S
C461 H471 0.929 . S
C462 Tb433 2.764 . S
C462 O446 1.239 . S
C462 O447 1.263 . S
C462 C456 1.504 . S
C463 O448 1.236 . S
C463 O449 1.247 1_554 S
H464 C437 0.932 . S
H465 C438 0.930 . S
H466 C439 0.932 . S
H467 C440 0.929 . S
H468 C458 0.932 . S
H469 C459 0.930 . S
H470 C460 0.932 . S
H471 C461 0.929 . S
C472 C473 1.363 . S
C472 C478 1.379 . S
C472 N480 1.356 . S
C473 C472 1.363 . S
C473 C479 1.363 . S
C474 C475 1.363 . S
C474 C479 1.379 . S
C474 N481 1.356 . S
C475 C474 1.363 . S
C475 C478 1.363 . S
N476 C478 1.356 . S
N476 H488 0.984 . S
N476 H489 0.985 . S
N477 C479 1.356 . S
N477 H482 0.984 . S
N477 H483 0.985 . S
C478 C472 1.379 . S
C478 C475 1.363 . S
C478 N476 1.356 . S
C479 C473 1.363 . S
C479 C474 1.379 . S
C479 N477 1.356 . S
N480 C472 1.356 . S
N480 H486 0.984 . S
N480 H487 0.984 . S
N481 C474 1.356 . S
N481 H484 0.984 . S
N481 H485 0.985 . S
H482 N477 0.984 . S
H483 N477 0.985 . S
H484 N481 0.984 . S
H485 N481 0.985 . S
H486 N480 0.984 . S
H487 N480 0.984 . S
H488 N476 0.984 . S
H489 N476 0.985 . S
C490 C491 1.363 . S
C490 C496 1.379 . S
C490 N498 1.356 . S
C491 C490 1.363 . S
C491 C497 1.363 . S
C492 C493 1.363 . S
C492 C497 1.379 . S
C492 N499 1.356 . S
C493 C492 1.363 . S
C493 C496 1.363 . S
N494 C496 1.356 . S
N494 H506 0.984 . S
N494 H507 0.985 . S
N495 C497 1.356 . S
N495 H500 0.984 . S
N495 H501 0.985 . S
C496 C490 1.379 . S
C496 C493 1.363 . S
C496 N494 1.356 . S
C497 C491 1.363 . S
C497 C492 1.379 . S
C497 N495 1.356 . S
N498 C490 1.356 . S
N498 H504 0.984 . S
N498 H505 0.984 . S
N499 C492 1.356 . S
N499 H502 0.984 . S
N499 H503 0.985 . S
H500 N495 0.984 . S
H501 N495 0.985 . S
H502 N499 0.984 . S
H503 N499 0.985 . S
H504 N498 0.984 . S
H505 N498 0.984 . S
H506 N494 0.984 . S
H507 N494 0.985 . S
C508 C509 1.363 . S
C508 C514 1.379 . S
C508 N516 1.356 . S
C509 C508 1.363 . S
C509 C515 1.363 . S
C510 C511 1.363 . S
C510 C515 1.379 . S
C510 N517 1.356 . S
C511 C510 1.363 . S
C511 C514 1.363 . S
N512 C514 1.356 . S
N512 H524 0.984 . S
N512 H525 0.985 . S
N513 C515 1.356 . S
N513 H518 0.984 . S
N513 H519 0.985 . S
C514 C508 1.379 . S
C514 C511 1.363 . S
C514 N512 1.356 . S
C515 C509 1.363 . S
C515 C510 1.379 . S
C515 N513 1.356 . S
N516 C508 1.356 . S
N516 H522 0.984 . S
N516 H523 0.984 . S
N517 C510 1.356 . S
N517 H520 0.984 . S
N517 H521 0.985 . S
H518 N513 0.984 . S
H519 N513 0.985 . S
H520 N517 0.984 . S
H521 N517 0.985 . S
H522 N516 0.984 . S
H523 N516 0.984 . S
H524 N512 0.984 . S
H525 N512 0.985 . S
C526 C527 1.363 . S
C526 C532 1.379 . S
C526 N534 1.356 . S
C527 C526 1.363 . S
C527 C533 1.363 . S
C528 C529 1.363 . S
C528 C533 1.379 . S
C528 N535 1.356 . S
C529 C528 1.363 . S
C529 C532 1.363 . S
N530 C532 1.356 . S
N530 H542 0.984 . S
N530 H543 0.985 . S
N531 C533 1.356 . S
N531 H536 0.984 . S
N531 H537 0.985 . S
C532 C526 1.379 . S
C532 C529 1.363 . S
C532 N530 1.356 . S
C533 C527 1.363 . S
C533 C528 1.379 . S
C533 N531 1.356 . S
N534 C526 1.356 . S
N534 H540 0.984 . S
N534 H541 0.984 . S
N535 C528 1.356 . S
N535 H538 0.984 . S
N535 H539 0.985 . S
H536 N531 0.984 . S
H537 N531 0.985 . S
H538 N535 0.984 . S
H539 N535 0.985 . S
H540 N534 0.984 . S
H541 N534 0.984 . S
H542 N530 0.984 . S
H543 N530 0.985 . S
C544 C545 1.363 . S
C544 C550 1.379 . S
C544 N552 1.356 . S
C545 C544 1.363 . S
C545 C551 1.363 . S
C546 C547 1.363 . S
C546 C551 1.379 . S
C546 N553 1.356 . S
C547 C546 1.363 . S
C547 C550 1.363 . S
N548 C550 1.356 . S
N548 H560 0.984 . S
N548 H561 0.985 . S
N549 C551 1.356 . S
N549 H554 0.984 . S
N549 H555 0.985 . S
C550 C544 1.379 . S
C550 C547 1.363 . S
C550 N548 1.356 . S
C551 C545 1.363 . S
C551 C546 1.379 . S
C551 N549 1.356 . S
N552 C544 1.356 . S
N552 H558 0.984 . S
N552 H559 0.984 . S
N553 C546 1.356 . S
N553 H556 0.984 . S
N553 H557 0.985 1_554 S
H554 N549 0.984 . S
H555 N549 0.985 . S
H556 N553 0.984 . S
H557 N553 0.985 1_556 S
H558 N552 0.984 . S
H559 N552 0.984 . S
H560 N548 0.984 . S
H561 N548 0.985 . S
C562 C563 1.363 . S
C562 C568 1.379 . S
C562 N570 1.356 1_455 S
C563 C562 1.363 . S
C563 C569 1.363 . S
C564 C565 1.363 . S
C564 C569 1.379 . S
C564 N571 1.356 . S
C565 C564 1.363 . S
C565 C568 1.363 . S
N566 C568 1.356 1_655 S
N566 H578 0.984 . S
N566 H579 0.985 1_655 S
N567 C569 1.356 . S
N567 H572 0.984 . S
N567 H573 0.985 . S
C568 C562 1.379 . S
C568 C565 1.363 . S
C568 N566 1.356 1_455 S
C569 C563 1.363 . S
C569 C564 1.379 . S
C569 N567 1.356 . S
N570 C562 1.356 1_655 S
N570 H576 0.984 . S
N570 H577 0.984 . S
N571 C564 1.356 . S
N571 H574 0.984 . S
N571 H575 0.985 . S
H572 N567 0.984 . S
H573 N567 0.985 . S
H574 N571 0.984 . S
H575 N571 0.985 . S
H576 N570 0.984 . S
H577 N570 0.984 . S
H578 N566 0.984 . S
H579 N566 0.985 1_455 S
C580 C581 1.363 . S
C580 C586 1.379 . S
C580 N588 1.356 . S
C581 C580 1.363 . S
C581 C587 1.363 . S
C582 C583 1.363 . S
C582 C587 1.379 . S
C582 N589 1.356 . S
C583 C582 1.363 . S
C583 C586 1.363 . S
N584 C586 1.356 1_554 S
N584 H596 0.984 . S
N584 H597 0.985 . S
N585 C587 1.356 . S
N585 H590 0.984 . S
N585 H591 0.985 . S
C586 C580 1.379 . S
C586 C583 1.363 . S
C586 N584 1.356 1_556 S
C587 C581 1.363 . S
C587 C582 1.379 . S
C587 N585 1.356 . S
N588 C580 1.356 . S
N588 H594 0.984 . S
N588 H595 0.984 . S
N589 C582 1.356 . S
N589 H592 0.984 . S
N589 H593 0.985 . S
H590 N585 0.984 . S
H591 N585 0.985 . S
H592 N589 0.984 . S
H593 N589 0.985 . S
H594 N588 0.984 . S
H595 N588 0.984 . S
H596 N584 0.984 . S
H597 N584 0.985 . S
C598 C599 1.363 . S
C598 C604 1.379 . S
C598 N606 1.356 . S
C599 C598 1.363 . S
C599 C605 1.363 . S
C600 C601 1.363 . S
C600 C605 1.379 . S
C600 N607 1.356 . S
C601 C600 1.363 . S
C601 C604 1.363 . S
N602 C604 1.356 . S
N602 H614 0.984 . S
N602 H615 0.985 . S
N603 C605 1.356 . S
N603 H608 0.984 . S
N603 H609 0.985 . S
C604 C598 1.379 . S
C604 C601 1.363 . S
C604 N602 1.356 . S
C605 C599 1.363 . S
C605 C600 1.379 . S
C605 N603 1.356 . S
N606 C598 1.356 . S
N606 H612 0.984 . S
N606 H613 0.984 . S
N607 C600 1.356 . S
N607 H610 0.984 . S
N607 H611 0.985 . S
H608 N603 0.984 . S
H609 N603 0.985 . S
H610 N607 0.984 . S
H611 N607 0.985 . S
H612 N606 0.984 . S
H613 N606 0.984 . S
H614 N602 0.984 . S
H615 N602 0.985 . S
C616 C617 1.363 . S
C616 C622 1.379 . S
C616 N624 1.356 . S
C617 C616 1.363 . S
C617 C623 1.363 . S
C618 C619 1.363 . S
C618 C623 1.379 . S
C618 N625 1.356 . S
C619 C618 1.363 . S
C619 C622 1.363 . S
N620 C622 1.356 . S
N620 H632 0.984 . S
N620 H633 0.985 . S
N621 C623 1.356 . S
N621 H626 0.984 . S
N621 H627 0.985 . S
C622 C616 1.379 . S
C622 C619 1.363 . S
C622 N620 1.356 . S
C623 C617 1.363 . S
C623 C618 1.379 . S
C623 N621 1.356 . S
N624 C616 1.356 . S
N624 H630 0.984 . S
N624 H631 0.984 . S
N625 C618 1.356 . S
N625 H628 0.984 . S
N625 H629 0.985 . S
H626 N621 0.984 . S
H627 N621 0.985 . S
H628 N625 0.984 . S
H629 N625 0.985 . S
H630 N624 0.984 . S
H631 N624 0.984 . S
H632 N620 0.984 . S
H633 N620 0.985 . S
C634 C635 1.363 . S
C634 C640 1.379 . S
C634 N642 1.356 . S
C635 C634 1.363 . S
C635 C641 1.363 . S
C636 C637 1.363 . S
C636 C641 1.379 . S
C636 N643 1.356 . S
C637 C636 1.363 . S
C637 C640 1.363 . S
N638 C640 1.356 . S
N638 H650 0.984 1_556 S
N638 H651 0.983 1_556 S
N639 C641 1.356 . S
N639 H644 0.984 . S
N639 H645 0.985 . S
C640 C634 1.379 . S
C640 C637 1.363 . S
C640 N638 1.356 . S
C641 C635 1.363 . S
C641 C636 1.379 . S
C641 N639 1.356 . S
N642 C634 1.356 . S
N642 H648 0.984 . S
N642 H649 0.984 . S
N643 C636 1.356 . S
N643 H646 0.984 . S
N643 H647 0.985 . S
H644 N639 0.984 . S
H645 N639 0.985 . S
H646 N643 0.984 . S
H647 N643 0.985 . S
H648 N642 0.984 . S
H649 N642 0.984 . S
H650 N638 0.984 1_554 S
H651 N638 0.983 1_554 S
C652 C653 1.363 . S
C652 C658 1.379 . S
C652 N660 1.356 . S
C653 C652 1.363 . S
C653 C659 1.363 . S
C654 C655 1.363 . S
C654 C659 1.379 . S
C654 N661 1.356 . S
C655 C654 1.363 . S
C655 C658 1.363 . S
N656 C658 1.356 . S
N656 H668 0.984 . S
N656 H669 0.985 . S
N657 C659 1.356 . S
N657 H662 0.984 . S
N657 H663 0.985 . S
C658 C652 1.379 . S
C658 C655 1.363 . S
C658 N656 1.356 . S
C659 C653 1.363 . S
C659 C654 1.379 . S
C659 N657 1.356 . S
N660 C652 1.356 . S
N660 H666 0.984 . S
N660 H667 0.984 . S
N661 C654 1.356 . S
N661 H664 0.984 . S
N661 H665 0.985 . S
H662 N657 0.984 . S
H663 N657 0.985 . S
H664 N661 0.984 . S
H665 N661 0.985 . S
H666 N660 0.984 . S
H667 N660 0.984 . S
H668 N656 0.984 . S
H669 N656 0.985 . S
C670 C671 1.363 . S
C670 C676 1.379 . S
C670 N678 1.356 . S
C671 C670 1.363 . S
C671 C677 1.363 . S
C672 C673 1.363 . S
C672 C677 1.379 . S
C672 N679 1.356 . S
C673 C672 1.363 . S
C673 C676 1.363 . S
N674 C676 1.356 . S
N674 H686 0.984 . S
N674 H687 0.985 . S
N675 C677 1.356 . S
N675 H680 0.984 . S
N675 H681 0.985 . S
C676 C670 1.379 . S
C676 C673 1.363 . S
C676 N674 1.356 . S
C677 C671 1.363 . S
C677 C672 1.379 . S
C677 N675 1.356 . S
N678 C670 1.356 . S
N678 H684 0.984 . S
N678 H685 0.984 . S
N679 C672 1.356 . S
N679 H682 0.984 . S
N679 H683 0.985 . S
H680 N675 0.984 . S
H681 N675 0.985 . S
H682 N679 0.984 . S
H683 N679 0.985 . S
H684 N678 0.984 . S
H685 N678 0.984 . S
H686 N674 0.984 . S
H687 N674 0.985 . S
C688 C689 1.363 . S
C688 C694 1.379 . S
C688 N696 1.356 . S
C689 C688 1.363 . S
C689 C695 1.363 . S
C690 C691 1.363 . S
C690 C695 1.379 . S
C690 N697 1.356 . S
C691 C690 1.363 . S
C691 C694 1.363 . S
N692 C694 1.356 . S
N692 H704 0.984 . S
N692 H705 0.985 . S
N693 C695 1.356 . S
N693 H698 0.984 . S
N693 H699 0.985 . S
C694 C688 1.379 . S
C694 C691 1.363 . S
C694 N692 1.356 . S
C695 C689 1.363 . S
C695 C690 1.379 . S
C695 N693 1.356 . S
N696 C688 1.356 . S
N696 H702 0.984 . S
N696 H703 0.984 . S
N697 C690 1.356 . S
N697 H700 0.984 . S
N697 H701 0.985 . S
H698 N693 0.984 . S
H699 N693 0.985 . S
H700 N697 0.984 . S
H701 N697 0.985 . S
H702 N696 0.984 . S
H703 N696 0.984 . S
H704 N692 0.984 . S
H705 N692 0.985 . S
C706 C707 1.363 . S
C706 C712 1.379 . S
C706 N714 1.356 . S
C707 C706 1.363 . S
C707 C713 1.363 . S
C708 C709 1.363 . S
C708 C713 1.379 . S
C708 N715 1.356 . S
C709 C708 1.363 . S
C709 C712 1.363 . S
N710 C712 1.356 . S
N710 H722 0.984 . S
N710 H723 0.985 . S
N711 C713 1.356 . S
N711 H716 0.984 . S
N711 H717 0.985 . S
C712 C706 1.379 . S
C712 C709 1.363 . S
C712 N710 1.356 . S
C713 C707 1.363 . S
C713 C708 1.379 . S
C713 N711 1.356 . S
N714 C706 1.356 . S
N714 H720 0.984 . S
N714 H721 0.984 . S
N715 C708 1.356 . S
N715 H718 0.984 . S
N715 H719 0.985 . S
H716 N711 0.984 . S
H717 N711 0.985 . S
H718 N715 0.984 . S
H719 N715 0.985 . S
H720 N714 0.984 . S
H721 N714 0.984 . S
H722 N710 0.984 . S
H723 N710 0.985 . S
C724 C725 1.363 . S
C724 C730 1.379 . S
C724 N732 1.356 . S
C725 C724 1.363 . S
C725 C731 1.363 . S
C726 C727 1.363 . S
C726 C731 1.379 . S
C726 N733 1.356 . S
C727 C726 1.363 . S
C727 C730 1.363 . S
N728 C730 1.356 . S
N728 H740 0.984 . S
N728 H741 0.985 . S
N729 C731 1.356 . S
N729 H734 0.984 . S
N729 H735 0.985 . S
C730 C724 1.379 . S
C730 C727 1.363 . S
C730 N728 1.356 . S
C731 C725 1.363 . S
C731 C726 1.379 . S
C731 N729 1.356 . S
N732 C724 1.356 . S
N732 H738 0.984 . S
N732 H739 0.984 . S
N733 C726 1.356 . S
N733 H736 0.984 . S
N733 H737 0.985 . S
H734 N729 0.984 . S
H735 N729 0.985 . S
H736 N733 0.984 . S
H737 N733 0.985 . S
H738 N732 0.984 . S
H739 N732 0.984 . S
H740 N728 0.984 . S
H741 N728 0.985 . S
C742 C743 1.363 . S
C742 C748 1.379 . S
C742 N750 1.356 . S
C743 C742 1.363 . S
C743 C749 1.363 . S
C744 C745 1.363 . S
C744 C749 1.379 . S
C744 N751 1.356 . S
C745 C744 1.363 . S
C745 C748 1.363 . S
N746 C748 1.356 . S
N746 H758 0.984 1_455 S
N746 H759 0.985 . S
N747 C749 1.356 . S
N747 H752 0.984 . S
N747 H753 0.985 . S
C748 C742 1.379 . S
C748 C745 1.363 . S
C748 N746 1.356 . S
C749 C743 1.363 . S
C749 C744 1.379 . S
C749 N747 1.356 . S
N750 C742 1.356 . S
N750 H756 0.984 . S
N750 H757 0.984 . S
N751 C744 1.356 . S
N751 H754 0.984 . S
N751 H755 0.985 . S
H752 N747 0.984 . S
H753 N747 0.985 . S
H754 N751 0.984 . S
H755 N751 0.985 . S
H756 N750 0.984 . S
H757 N750 0.984 . S
H758 N746 0.984 1_655 S
H759 N746 0.985 . S
C760 C761 1.363 . S
C760 C766 1.379 . S
C760 N768 1.356 . S
C761 C760 1.363 . S
C761 C767 1.363 . S
C762 C763 1.363 . S
C762 C767 1.379 . S
C762 N769 1.356 . S
C763 C762 1.363 . S
C763 C766 1.363 . S
N764 C766 1.356 . S
N764 H776 0.984 1_556 S
N764 H777 0.985 . S
N765 C767 1.356 . S
N765 H770 0.984 . S
N765 H771 0.985 . S
C766 C760 1.379 . S
C766 C763 1.363 . S
C766 N764 1.356 . S
C767 C761 1.363 . S
C767 C762 1.379 . S
C767 N765 1.356 . S
N768 C760 1.356 . S
N768 H774 0.984 . S
N768 H775 0.984 . S
N769 C762 1.356 . S
N769 H772 0.984 . S
N769 H773 0.985 . S
H770 N765 0.984 . S
H771 N765 0.985 . S
H772 N769 0.984 . S
H773 N769 0.985 . S
H774 N768 0.984 . S
H775 N768 0.984 . S
H776 N764 0.984 1_554 S
H777 N764 0.985 . S
C778 C779 1.363 . S
C778 C784 1.379 . S
C778 N786 1.356 . S
C779 C778 1.363 . S
C779 C785 1.363 . S
C780 C781 1.363 . S
C780 C785 1.379 . S
C780 N787 1.356 1_655 S
C781 C780 1.363 . S
C781 C784 1.363 . S
N782 C784 1.356 . S
N782 H794 0.984 . S
N782 H795 0.985 . S
N783 C785 1.356 1_455 S
N783 H788 0.984 . S
N783 H789 0.985 . S
C784 C778 1.379 . S
C784 C781 1.363 . S
C784 N782 1.356 . S
C785 C779 1.363 . S
C785 C780 1.379 . S
C785 N783 1.356 1_655 S
N786 C778 1.356 . S
N786 H792 0.984 . S
N786 H793 0.984 . S
N787 C780 1.356 1_455 S
N787 H790 0.984 1_455 S
N787 H791 0.985 . S
H788 N783 0.984 . S
H789 N783 0.985 . S
H790 N787 0.984 1_655 S
H791 N787 0.985 . S
H792 N786 0.984 . S
H793 N786 0.984 . S
H794 N782 0.984 . S
H795 N782 0.985 . S
C796 C797 1.363 . S
C796 C802 1.379 . S
C796 N804 1.356 . S
C797 C796 1.363 . S
C797 C803 1.363 . S
C798 C799 1.363 . S
C798 C803 1.379 . S
C798 N805 1.356 . S
C799 C798 1.363 . S
C799 C802 1.363 . S
N800 C802 1.356 . S
N800 H812 0.984 . S
N800 H813 0.985 . S
N801 C803 1.356 . S
N801 H806 0.984 . S
N801 H807 0.985 . S
C802 C796 1.379 . S
C802 C799 1.363 . S
C802 N800 1.356 . S
C803 C797 1.363 . S
C803 C798 1.379 . S
C803 N801 1.356 . S
N804 C796 1.356 . S
N804 H810 0.984 . S
N804 H811 0.984 . S
N805 C798 1.356 . S
N805 H808 0.984 . S
N805 H809 0.985 . S
H806 N801 0.984 . S
H807 N801 0.985 . S
H808 N805 0.984 . S
H809 N805 0.985 . S
H810 N804 0.984 . S
H811 N804 0.984 . S
H812 N800 0.984 . S
H813 N800 0.985 . S
C814 C815 1.363 . S
C814 C820 1.379 . S
C814 N822 1.356 . S
C815 C814 1.363 . S
C815 C821 1.363 . S
C816 C817 1.363 . S
C816 C821 1.379 . S
C816 N823 1.356 . S
C817 C816 1.363 . S
C817 C820 1.363 . S
N818 C820 1.356 . S
N818 H830 0.984 . S
N818 H831 0.985 . S
N819 C821 1.356 . S
N819 H824 0.984 . S
N819 H825 0.985 . S
C820 C814 1.379 . S
C820 C817 1.363 . S
C820 N818 1.356 . S
C821 C815 1.363 . S
C821 C816 1.379 . S
C821 N819 1.356 . S
N822 C814 1.356 . S
N822 H828 0.984 . S
N822 H829 0.984 . S
N823 C816 1.356 . S
N823 H826 0.984 . S
N823 H827 0.985 . S
H824 N819 0.984 . S
H825 N819 0.985 . S
H826 N823 0.984 . S
H827 N823 0.985 . S
H828 N822 0.984 . S
H829 N822 0.984 . S
H830 N818 0.984 . S
H831 N818 0.985 . S
C832 C833 1.363 . S
C832 C838 1.379 . S
C832 N840 1.356 . S
C833 C832 1.363 . S
C833 C839 1.363 . S
C834 C835 1.363 . S
C834 C839 1.379 . S
C834 N841 1.356 . S
C835 C834 1.363 . S
C835 C838 1.363 . S
N836 C838 1.356 . S
N836 H848 0.984 . S
N836 H849 0.985 . S
N837 C839 1.356 . S
N837 H842 0.984 . S
N837 H843 0.985 . S
C838 C832 1.379 . S
C838 C835 1.363 . S
C838 N836 1.356 . S
C839 C833 1.363 . S
C839 C834 1.379 . S
C839 N837 1.356 . S
N840 C832 1.356 . S
N840 H846 0.984 . S
N840 H847 0.984 . S
N841 C834 1.356 . S
N841 H844 0.984 . S
N841 H845 0.985 . S
H842 N837 0.984 . S
H843 N837 0.985 . S
H844 N841 0.984 . S
H845 N841 0.985 . S
H846 N840 0.984 . S
H847 N840 0.984 . S
H848 N836 0.984 . S
H849 N836 0.985 . S
C850 C851 1.363 . S
C850 C856 1.379 . S
C850 N858 1.356 . S
C851 C850 1.363 . S
C851 C857 1.363 . S
C852 C853 1.363 . S
C852 C857 1.379 . S
C852 N859 1.356 . S
C853 C852 1.363 . S
C853 C856 1.363 . S
N854 C856 1.356 . S
N854 H866 0.984 1_554 S
N854 H867 0.985 . S
N855 C857 1.356 . S
N855 H860 0.984 . S
N855 H861 0.985 . S
C856 C850 1.379 . S
C856 C853 1.363 . S
C856 N854 1.356 . S
C857 C851 1.363 . S
C857 C852 1.379 . S
C857 N855 1.356 . S
N858 C850 1.356 . S
N858 H864 0.984 . S
N858 H865 0.984 . S
N859 C852 1.356 . S
N859 H862 0.984 . S
N859 H863 0.985 . S
H860 N855 0.984 . S
H861 N855 0.985 . S
H862 N859 0.984 . S
H863 N859 0.985 . S
H864 N858 0.984 . S
H865 N858 0.984 . S
H866 N854 0.984 1_556 S
H867 N854 0.985 . S
C868 C869 1.363 . S
C868 C874 1.379 . S
C868 N876 1.356 . S
C869 C868 1.363 . S
C869 C875 1.363 . S
C870 C871 1.363 . S
C870 C875 1.379 . S
C870 N877 1.356 . S
C871 C870 1.363 . S
C871 C874 1.363 . S
N872 C874 1.336 1_655 S
N872 H884 1.009 . S
N872 H885 0.981 . S
N873 C875 1.356 . S
N873 H878 0.984 . S
N873 H879 0.985 . S
C874 C868 1.379 . S
C874 C871 1.363 . S
C874 N872 1.336 1_455 S
C875 C869 1.363 . S
C875 C870 1.379 . S
C875 N873 1.356 . S
N876 C868 1.356 . S
N876 H882 1.009 . S
N876 H883 0.984 . S
N877 C870 1.356 . S
N877 H880 0.984 . S
N877 H881 0.985 . S
H878 N873 0.984 . S
H879 N873 0.985 . S
H880 N877 0.984 . S
H881 N877 0.985 . S
H882 N876 1.009 . S
H883 N876 0.984 . S
H884 N872 1.009 . S
H885 N872 0.981 . S
C886 C887 1.363 . S
C886 C892 1.379 . S
C886 N894 1.356 . S
C887 C886 1.363 . S
C887 C893 1.363 . S
C888 C889 1.363 . S
C888 C893 1.379 . S
C888 N895 1.356 . S
C889 C888 1.363 . S
C889 C892 1.363 . S
N890 C892 1.356 . S
N890 H902 0.984 . S
N890 H903 0.985 . S
N891 C893 1.356 . S
N891 H896 0.984 . S
N891 H897 0.985 . S
C892 C886 1.379 . S
C892 C889 1.363 . S
C892 N890 1.356 . S
C893 C887 1.363 . S
C893 C888 1.379 . S
C893 N891 1.356 . S
N894 C886 1.356 . S
N894 H900 0.984 . S
N894 H901 0.984 . S
N895 C888 1.356 . S
N895 H898 0.984 . S
N895 H899 0.985 . S
H896 N891 0.984 . S
H897 N891 0.985 . S
H898 N895 0.984 . S
H899 N895 0.985 . S
H900 N894 0.984 . S
H901 N894 0.984 . S
H902 N890 0.984 . S
H903 N890 0.985 . S
C473 C1 1.082 . S
C475 C316 1.134 . S
C491 C40 1.242 . S
C493 C377 1.317 . S
C511 C415 2.525 . S
C509 C99 2.599 . S
C527 C118 2.408 . S
C529 C455 2.359 . S
C547 C375 1.513 . S
C545 C16 1.400 . S
C565 C343 2.291 . S
C563 C60 2.128 . S
C583 C452 1.815 . S
C581 C79 1.836 . S
C601 C412 1.887 . S
C599 C138 1.904 . S
C617 C21 1.339 . S
C619 C457 1.392 . S
C637 C372 2.412 . S
C635 C94 2.409 . S
C653 C133 2.235 . S
C655 C314 2.188 . S
C671 C55 1.663 . S
C673 C417 1.768 . S
C691 C337 1.138 . S
C689 C157 1.092 . S
C707 C196 1.234 . S
C709 C356 1.318 . S
C725 C255 2.592 . S
C727 C394 2.525 . S
C743 C289 2.406 . S
C745 C434 2.355 . S
C761 C172 1.390 . S
C763 C354 1.510 . S
C781 C332 2.292 . S
C779 C216 2.093 . S
C799 C463 1.816 . S
C797 C235 1.835 . S
C817 C423 1.884 . S
C815 C294 1.907 . S
C833 C177 1.351 . S
C835 C436 1.388 . S
C853 C383 2.413 . S
C851 C250 2.412 . S
C871 C335 2.192 . S
C869 C274 2.236 . S
C887 C211 1.672 . S
C889 C396 1.769 . S
