# Generated by pormake.
# Topology zzz, (3,6)-cn, num edge types: 1
# Building blocks:
#     Node 0, Type 0, BuildingBlock: MIDCAF_clean_linker_0, # of connection points: 3
#     Node 1, Type 0, BuildingBlock: MIDCAF_clean_linker_0, # of connection points: 3
#     Node 2, Type 0, BuildingBlock: MIDCAF_clean_linker_0, # of connection points: 3
#     Node 3, Type 0, BuildingBlock: MIDCAF_clean_linker_0, # of connection points: 3
#     Node 4, Type 0, BuildingBlock: MIDCAF_clean_linker_0, # of connection points: 3
#     Node 5, Type 0, BuildingBlock: MIDCAF_clean_linker_0, # of connection points: 3
#     Node 6, Type 0, BuildingBlock: MIDCAF_clean_linker_0, # of connection points: 3
#     Node 7, Type 0, BuildingBlock: MIDCAF_clean_linker_0, # of connection points: 3
#     Node 8, Type 1, BuildingBlock: BETFEN_clean_sbu_0, # of connection points: 6
#     Node 9, Type 1, BuildingBlock: BETFEN_clean_sbu_0, # of connection points: 6
#     Node 10, Type 1, BuildingBlock: BETFEN_clean_sbu_0, # of connection points: 6
#     Node 11, Type 1, BuildingBlock: BETFEN_clean_sbu_0, # of connection points: 6
#     Edge 12, Type (0, 1), BuildingBlock: UVAHIK_clean_linker_0, # of connection points: 2
#     Edge 13, Type (0, 1), BuildingBlock: UVAHIK_clean_linker_0, # of connection points: 2
#     Edge 14, Type (0, 1), BuildingBlock: UVAHIK_clean_linker_0, # of connection points: 2
#     Edge 15, Type (0, 1), BuildingBlock: UVAHIK_clean_linker_0, # of connection points: 2
#     Edge 16, Type (0, 1), BuildingBlock: UVAHIK_clean_linker_0, # of connection points: 2
#     Edge 17, Type (0, 1), BuildingBlock: UVAHIK_clean_linker_0, # of connection points: 2
#     Edge 18, Type (0, 1), BuildingBlock: UVAHIK_clean_linker_0, # of connection points: 2
#     Edge 19, Type (0, 1), BuildingBlock: UVAHIK_clean_linker_0, # of connection points: 2
#     Edge 20, Type (0, 1), BuildingBlock: UVAHIK_clean_linker_0, # of connection points: 2
#     Edge 21, Type (0, 1), BuildingBlock: UVAHIK_clean_linker_0, # of connection points: 2
#     Edge 22, Type (0, 1), BuildingBlock: UVAHIK_clean_linker_0, # of connection points: 2
#     Edge 23, Type (0, 1), BuildingBlock: UVAHIK_clean_linker_0, # of connection points: 2
#     Edge 24, Type (0, 1), BuildingBlock: UVAHIK_clean_linker_0, # of connection points: 2
#     Edge 25, Type (0, 1), BuildingBlock: UVAHIK_clean_linker_0, # of connection points: 2
#     Edge 26, Type (0, 1), BuildingBlock: UVAHIK_clean_linker_0, # of connection points: 2
#     Edge 27, Type (0, 1), BuildingBlock: UVAHIK_clean_linker_0, # of connection points: 2
#     Edge 28, Type (0, 1), BuildingBlock: UVAHIK_clean_linker_0, # of connection points: 2
#     Edge 29, Type (0, 1), BuildingBlock: UVAHIK_clean_linker_0, # of connection points: 2
#     Edge 30, Type (0, 1), BuildingBlock: UVAHIK_clean_linker_0, # of connection points: 2
#     Edge 31, Type (0, 1), BuildingBlock: UVAHIK_clean_linker_0, # of connection points: 2
#     Edge 32, Type (0, 1), BuildingBlock: UVAHIK_clean_linker_0, # of connection points: 2
#     Edge 33, Type (0, 1), BuildingBlock: UVAHIK_clean_linker_0, # of connection points: 2
#     Edge 34, Type (0, 1), BuildingBlock: UVAHIK_clean_linker_0, # of connection points: 2
#     Edge 35, Type (0, 1), BuildingBlock: UVAHIK_clean_linker_0, # of connection points: 2
# Relax obj value: 0.421
# Max RMSD: 0.274
# Mean RMSD: 0.253
data_MOF--net-zzz--node1-BETFEN_clean_sbu_0--node2-MIDCAF_clean_linker_0--edge1-UVAHIK_clean_linker_0
_symmetry_space_group_name_H-M    P1
_symmetry_Int_Tables_number       1
_symmetry_cell_setting            triclinic
loop_
_symmetry_equiv_pos_as_xyz
'x, y, z'
_cell_length_a     74.142522
_cell_length_b     74.150023
_cell_length_c     22.631581
_cell_angle_alpha  89.827229
_cell_angle_beta   90.003455
_cell_angle_gamma 89.960891
loop_
_atom_site_label
_atom_site_type_symbol
_atom_site_fract_x
_atom_site_fract_y
_atom_site_fract_z
_atom_type_partial_charge
C0 C 0.77025 0.5253 0.46891 0.0
C1 C 0.77559 0.5102 0.50276 0.0
C2 C 0.76372 0.49526 0.50439 0.0
C3 C 0.74823 0.49472 0.46836 0.0
H4 H 0.68059 0.52423 0.33996 0.0
H5 H 0.65159 0.52479 0.28797 0.0
H6 H 0.6645 0.47342 0.20825 0.0
H7 H 0.69264 0.47269 0.26215 0.0
H8 H 0.72665 0.49915 0.15587 0.0
H9 H 0.74608 0.49991 0.06857 0.0
H10 H 0.79239 0.50896 0.18043 0.0
H11 H 0.77326 0.50843 0.26695 0.0
H12 H 0.75205 0.53608 0.40453 0.0
H13 H 0.77877 0.53706 0.46498 0.0
H14 H 0.76683 0.48352 0.53098 0.0
H15 H 0.74052 0.48234 0.46591 0.0
N16 N 0.71584 0.50355 0.37091 0.0
N17 N 0.71897 0.50068 0.26751 0.0
N18 N 0.7443 0.50606 0.32541 0.0
C19 C 0.70831 0.50076 0.31623 0.0
C20 C 0.73692 0.50338 0.27168 0.0
C21 C 0.73413 0.5061 0.37502 0.0
C22 C 0.68876 0.4983 0.30577 0.0
C23 C 0.67668 0.51266 0.31378 0.0
C24 C 0.66023 0.51314 0.28265 0.0
C25 C 0.65564 0.49933 0.24239 0.0
C26 C 0.66718 0.48428 0.23882 0.0
C27 C 0.68343 0.48378 0.2701 0.0
C28 C 0.74839 0.50375 0.21843 0.0
C29 C 0.74098 0.50138 0.16175 0.0
C30 C 0.75205 0.50181 0.11179 0.0
C31 C 0.77066 0.50474 0.11779 0.0
C32 C 0.77802 0.50711 0.17437 0.0
C33 C 0.76703 0.50664 0.22408 0.0
C34 C 0.74401 0.50925 0.43089 0.0
C35 C 0.75468 0.52484 0.43405 0.0
C36 C 0.01863 0.76876 0.47368 0.0
C37 C 1.00259 0.77552 0.49857 0.0
C38 C 0.98689 0.7649 0.49399 0.0
C39 C 0.98681 0.74899 0.46043 0.0
H40 H 0.02607 0.68324 0.32237 0.0
H41 H 0.02809 0.65467 0.26823 0.0
H42 H 0.97205 0.66 0.21843 0.0
H43 H 0.97011 0.68784 0.2739 0.0
H44 H 0.99799 0.72634 0.15597 0.0
H45 H 1.00115 0.74673 0.07131 0.0
H46 H 0.99126 0.79229 0.1847 0.0
H47 H 0.98806 0.77221 0.26936 0.0
H48 H 0.03059 0.74921 0.41582 0.0
H49 H 0.03097 0.77654 0.47583 0.0
H50 H 0.97433 0.76949 0.51326 0.0
H51 H 0.97408 0.7422 0.45285 0.0
N52 N 1.00058 0.71487 0.36938 0.0
N53 N 0.99513 0.71799 0.26708 0.0
N54 N 0.99735 0.7436 0.32589 0.0
C55 C 0.99793 0.70725 0.31478 0.0
C56 C 0.99481 0.73612 0.27223 0.0
C57 C 1.00019 0.73332 0.37447 0.0
C58 C 0.99782 0.68757 0.30353 0.0
C59 C 0.01401 0.67772 0.30239 0.0
C60 C 0.01523 0.66155 0.27007 0.0
C61 C 1.00031 0.65496 0.23779 0.0
C62 C 0.98382 0.66427 0.24294 0.0
C63 C 0.98263 0.68029 0.27523 0.0
C64 C 0.99315 0.74772 0.21955 0.0
C65 C 0.99597 0.74066 0.16261 0.0
C66 C 0.99767 0.75223 0.11414 0.0
C67 C 0.9964 0.77089 0.1222 0.0
C68 C 0.99217 0.77785 0.17795 0.0
C69 C 0.99051 0.76636 0.22629 0.0
C70 C 1.00241 0.74325 0.43068 0.0
C71 C 0.01849 0.7529 0.43981 0.0
C72 C 0.74124 0.02171 0.47323 0.0
C73 C 0.73489 0.00538 0.49751 0.0
C74 C 0.74567 0.98985 0.49103 0.0
C75 C 0.76131 0.99022 0.45613 0.0
H76 H 0.83226 0.9865 0.33864 0.0
H77 H 0.86095 0.98721 0.28507 0.0
H78 H 0.84404 0.03627 0.19718 0.0
H79 H 0.81609 0.03577 0.25262 0.0
H80 H 0.78437 0.00522 0.1533 0.0
H81 H 0.76453 1.00388 0.06736 0.0
H82 H 0.72092 0.9856 0.17897 0.0
H83 H 0.7406 0.98678 0.26452 0.0
H84 H 0.76035 0.03437 0.41513 0.0
H85 H 0.7333 0.03391 0.4768 0.0
H86 H 0.74141 0.97711 0.50987 0.0
H87 H 0.76826 0.97767 0.44721 0.0
N88 N 0.79497 0.00818 0.36654 0.0
N89 N 0.7928 1.00318 0.26391 0.0
N90 N 0.76719 1.00042 0.32282 0.0
C91 C 0.80291 0.0073 0.31189 0.0
C92 C 0.77502 0.99962 0.26896 0.0
C93 C 0.77688 1.00466 0.37157 0.0
C94 C 0.82212 0.01128 0.30071 0.0
C95 C 0.83522 0.99792 0.31032 0.0
C96 C 0.85148 0.99814 0.27831 0.0
C97 C 0.85486 0.01159 0.23536 0.0
C98 C 0.84227 0.02574 0.22988 0.0
C99 C 0.82617 0.02556 0.2621 0.0
C100 C 0.76396 0.99635 0.21588 0.0
C101 C 0.77065 1.00056 0.15932 0.0
C102 C 0.75932 0.99983 0.1101 0.0
C103 C 0.74122 0.99468 0.11656 0.0
C104 C 0.73488 0.9894 0.1725 0.0
C105 C 0.74612 0.99027 0.22168 0.0
C106 C 0.76667 0.00614 0.42741 0.0
C107 C 0.7569 0.02204 0.43833 0.0
C108 C 0.52145 0.73159 0.17784 0.0
C109 C 0.51754 0.73842 0.12133 0.0
C110 C 0.51548 0.75712 0.11368 0.0
C111 C 0.51643 0.76867 0.16221 0.0
H112 H 0.54095 0.82481 0.28696 0.0
H113 H 0.53814 0.85295 0.23134 0.0
H114 H 0.48027 0.85068 0.25097 0.0
H115 H 0.48324 0.82246 0.30701 0.0
H116 H 0.53818 0.76761 0.45424 0.0
H117 H 0.53765 0.74072 0.51715 0.0
H118 H 0.48129 0.73316 0.47626 0.0
H119 H 0.48193 0.76014 0.41419 0.0
H120 H 0.52471 0.73726 0.26953 0.0
H121 H 0.52292 0.71723 0.18527 0.0
H122 H 0.51264 0.76274 0.07043 0.0
H123 H 0.51413 0.78294 0.15525 0.0
N124 N 0.5167 0.79145 0.26616 0.0
N125 N 0.51132 0.79442 0.36847 0.0
N126 N 0.51542 0.7658 0.32571 0.0
C127 C 0.5137 0.8021 0.31381 0.0
C128 C 0.51236 0.77605 0.37405 0.0
C129 C 0.51758 0.77332 0.27175 0.0
C130 C 0.51235 0.82169 0.30253 0.0
C131 C 0.52771 0.83085 0.28204 0.0
C132 C 0.52607 0.84692 0.24968 0.0
C133 C 0.50896 0.85401 0.23601 0.0
C134 C 0.49364 0.8455 0.26023 0.0
C135 C 0.49533 0.82951 0.29325 0.0
C136 C 0.51 0.76622 0.43039 0.0
C137 C 0.52545 0.76079 0.46157 0.0
C138 C 0.52521 0.74513 0.49659 0.0
C139 C 0.50952 0.73449 0.50092 0.0
C140 C 0.4936 0.74099 0.47439 0.0
C141 C 0.49388 0.75662 0.43925 0.0
C142 C 0.5193 0.76167 0.21927 0.0
C143 C 0.52231 0.74308 0.22628 0.0
C144 C 0.24241 0.51895 0.86431 0.0
C145 C 0.23584 0.50318 0.83729 0.0
C146 C 0.24661 0.48752 0.84015 0.0
C147 C 0.26243 0.48713 0.87425 0.0
H148 H 0.32727 0.52492 0.01206 0.0
H149 H 0.356 0.52776 0.06528 0.0
H150 H 0.35029 0.47289 0.12782 0.0
H151 H 0.32238 0.4701 0.07326 0.0
H152 H 0.28272 0.49538 0.18166 0.0
H153 H 0.2615 0.49935 0.2635 0.0
H154 H 0.21698 0.49036 0.14462 0.0
H155 H 0.23788 0.48627 0.06292 0.0
H156 H 0.26172 0.5303 0.92431 0.0
H157 H 0.23451 0.53124 0.8635 0.0
H158 H 0.24217 0.47519 0.81918 0.0
H159 H 0.2693 0.47436 0.88054 0.0
N160 N 0.29588 0.50016 0.96976 0.0
N161 N 0.29207 0.49341 0.07103 0.0
N162 N 0.2669 0.4959 0.01007 0.0
C163 C 0.30314 0.49693 0.02467 0.0
C164 C 0.27399 0.49287 0.06413 0.0
C165 C 0.2775 0.49947 0.96286 0.0
C166 C 0.32274 0.49718 0.03766 0.0
C167 C 0.33271 0.51326 0.03487 0.0
C168 C 0.34899 0.51496 0.06658 0.0
C169 C 0.35557 0.50065 0.10197 0.0
C170 C 0.34607 0.48421 0.10085 0.0
C171 C 0.32997 0.48253 0.06924 0.0
C172 C 0.26194 0.49097 0.11556 0.0
C173 C 0.26845 0.49368 0.1733 0.0
C174 C 0.25638 0.49587 0.22017 0.0
C175 C 0.23779 0.49527 0.20961 0.0
C176 C 0.23135 0.49089 0.15328 0.0
C177 C 0.24333 0.48868 0.10661 0.0
C178 C 0.26794 0.50237 0.90622 0.0
C179 C 0.2582 0.5185 0.89864 0.0
C180 C 0.03032 0.23948 0.86554 0.0
C181 C 0.01344 0.23434 0.84266 0.0
C182 C 0.99862 0.24595 0.85252 0.0
C183 C 1.00039 0.26139 0.88822 0.0
H184 H 0.03505 0.33173 0.00839 0.0
H185 H 0.03304 0.36003 0.06338 0.0
H186 H 0.97982 0.34523 0.12359 0.0
H187 H 0.98195 0.31703 0.06848 0.0
H188 H 0.01159 0.28435 0.18413 0.0
H189 H 0.00867 0.26264 0.26513 0.0
H190 H 0.03805 0.22327 0.16344 0.0
H191 H 0.04099 0.24474 0.08242 0.0
H192 H 0.04493 0.2574 0.92197 0.0
H193 H 0.04205 0.23095 0.85993 0.0
H194 H 0.98545 0.24266 0.83498 0.0
H195 H 0.98847 0.26916 0.89903 0.0
N196 N 0.01263 0.29442 0.97174 0.0
N197 N 0.0179 0.29399 0.07465 0.0
N198 N 0.02292 0.26806 0.0192 0.0
C199 C 0.01298 0.30311 0.0252 0.0
C200 C 0.02298 0.27653 0.07197 0.0
C201 C 0.01777 0.27667 0.9691 0.0
C202 C 0.0085 0.32236 0.03302 0.0
C203 C 0.02254 0.33503 0.0306 0.0
C204 C 0.02151 0.35108 0.06316 0.0
C205 C 0.0064 0.35479 0.09888 0.0
C206 C 0.99162 0.34292 0.09644 0.0
C207 C 0.99273 0.32681 0.06425 0.0
C208 C 0.02606 0.26601 0.12635 0.0
C209 C 0.01807 0.27132 0.17997 0.0
C210 C 0.01647 0.25898 0.22648 0.0
C211 C 0.02296 0.24137 0.21971 0.0
C212 C 0.03289 0.23684 0.16917 0.0
C213 C 0.03444 0.24907 0.12276 0.0
C214 C 0.017 0.26554 0.91476 0.0
C215 C 0.03204 0.25478 0.90111 0.0
C216 C 0.26846 0.99255 0.86428 0.0
C217 C 0.27526 0.00835 0.8378 0.0
C218 C 0.26467 0.02412 0.84066 0.0
C219 C 0.24876 0.02455 0.87427 0.0
H220 H 0.18381 0.98596 0.01215 0.0
H221 H 0.15512 0.98294 0.06546 0.0
H222 H 0.15993 0.03822 0.1238 0.0
H223 H 0.18779 0.04117 0.06905 0.0
H224 H 0.2276 0.0153 0.18052 0.0
H225 H 0.24878 0.01125 0.26252 0.0
H226 H 0.29326 0.02208 0.14495 0.0
H227 H 0.27239 0.02623 0.06309 0.0
H228 H 0.24886 0.98119 0.9235 0.0
H229 H 0.27623 0.98018 0.86342 0.0
H230 H 0.26931 0.03648 0.8201 0.0
H231 H 0.24201 0.03737 0.88062 0.0
N232 N 0.2149 0.01119 0.9685 0.0
N233 N 0.2184 0.01794 0.06976 0.0
N234 N 0.24374 0.01573 0.00951 0.0
C235 C 0.20749 0.01433 0.02315 0.0
C236 C 0.23649 0.01867 0.06333 0.0
C237 C 0.23329 0.01207 0.96208 0.0
C238 C 0.18787 0.0139 0.03558 0.0
C239 C 0.17816 0.99766 0.03399 0.0
C240 C 0.16191 0.99586 0.06577 0.0
C241 C 0.15512 0.01024 0.10011 0.0
C242 C 0.16433 0.02684 0.09768 0.0
C243 C 0.1804 0.02861 0.06594 0.0
C244 C 0.24839 0.02062 0.11505 0.0
C245 C 0.24185 0.0174 0.17253 0.0
C246 C 0.25389 0.01516 0.2195 0.0
C247 C 0.27248 0.01624 0.20929 0.0
C248 C 0.27889 0.02118 0.15333 0.0
C249 C 0.26694 0.02342 0.10657 0.0
C250 C 0.243 0.00925 0.90575 0.0
C251 C 0.25258 0.99304 0.89816 0.0
C252 C 0.50509 0.28016 0.15516 0.0
C253 C 0.50544 0.27298 0.21272 0.0
C254 C 0.50864 0.25453 0.22084 0.0
C255 C 0.51089 0.24332 0.17216 0.0
H256 H 0.48788 0.19915 0.128 0.0
H257 H 0.48637 0.17041 0.17584 0.0
H258 H 0.511 0.14516 0.02424 0.0
H259 H 0.51348 0.17515 0.9758 0.0
H260 H 0.53103 0.24181 0.88139 0.0
H261 H 0.52998 0.26872 0.81891 0.0
H262 H 0.47323 0.27459 0.85731 0.0
H263 H 0.47437 0.24743 0.91816 0.0
H264 H 0.50657 0.27485 0.06262 0.0
H265 H 0.50316 0.29448 0.14776 0.0
H266 H 0.50909 0.24871 0.26478 0.0
H267 H 0.51292 0.22904 0.17997 0.0
N268 N 0.50823 0.22024 0.0728 0.0
N269 N 0.50325 0.21497 0.97167 0.0
N270 N 0.50816 0.24447 0.00779 0.0
C271 C 0.50492 0.2085 0.02847 0.0
C272 C 0.50524 0.23321 0.96169 0.0
C273 C 0.5097 0.23808 0.0634 0.0
C274 C 0.50088 0.18964 0.04774 0.0
C275 C 0.49282 0.18757 0.10373 0.0
C276 C 0.49179 0.17089 0.13141 0.0
C277 C 0.49834 0.15529 0.10398 0.0
C278 C 0.50585 0.15696 0.04673 0.0
C279 C 0.50705 0.17405 0.01861 0.0
C280 C 0.50271 0.24219 0.90374 0.0
C281 C 0.51811 0.24821 0.8734 0.0
C282 C 0.51757 0.26397 0.83879 0.0
C283 C 0.50162 0.27428 0.83412 0.0
C284 C 0.48578 0.26714 0.85941 0.0
C285 C 0.48634 0.25133 0.89381 0.0
C286 C 0.50995 0.25037 0.11441 0.0
C287 C 0.50734 0.26897 0.10642 0.0
Pr288 Pr 0.01836 1.00255 0.71728 0.0
Pr289 Pr 0.98979 0.00856 0.6203 0.0
C290 C 0.03265 0.99112 0.81893 0.0
C291 C 0.03383 0.97221 0.8384 0.0
C292 C 0.05072 0.96377 0.84343 0.0
C293 C 0.05184 0.94505 0.84979 0.0
C294 C 0.03607 0.93453 0.85116 0.0
C295 C 0.01921 0.9431 0.84848 0.0
C296 C 0.01809 0.9617 0.84208 0.0
C297 C 0.03715 1.00491 0.60965 0.0
C298 C 1.00188 0.96675 0.64354 0.0
C299 C 0.96997 0.02148 0.53069 0.0
C300 C 0.97026 0.03963 0.50508 0.0
C301 C 0.95415 0.04817 0.48858 0.0
C302 C 0.95411 0.06654 0.47433 0.0
C303 C 0.97018 0.07654 0.47735 0.0
C304 C 0.98635 0.06778 0.49197 0.0
C305 C 0.9864 0.04951 0.50582 0.0
C306 C 0.97552 1.00041 0.73142 0.0
C307 C 0.00897 0.04467 0.68814 0.0
O308 O 0.01639 0.9979 0.81567 0.0
O309 O 0.04264 0.99527 0.77331 0.0
O310 O 0.02024 0.00616 0.61567 0.0
O311 O 0.0449 1.0034 0.66077 0.0
O312 O 0.99493 0.97785 0.60386 0.0
O313 O 0.0093 0.97288 0.69273 0.0
O314 O 0.98445 0.01167 0.52237 0.0
O315 O 0.96406 0.02086 0.58502 0.0
O316 O 0.98849 0.01107 0.72136 0.0
O317 O 0.96954 0.99343 0.68258 0.0
O318 O 0.01715 0.03377 0.72574 0.0
O319 O 0.99938 0.03838 0.64318 0.0
H320 H 0.06303 0.97157 0.83995 0.0
H321 H 0.06502 0.93878 0.852 0.0
H322 H 0.00681 0.93543 0.85117 0.0
H323 H 1.00482 0.9677 0.83786 0.0
H324 H 0.94154 0.04079 0.48876 0.0
H325 H 0.9415 0.07305 0.46283 0.0
H326 H 0.99898 0.07512 0.49329 0.0
H327 H 0.99898 0.04327 0.51917 0.0
Pr328 Pr 0.50803 0.02014 0.71277 0.0
Pr329 Pr 0.50303 0.9914 0.62715 0.0
C330 C 0.52065 0.04041 0.80169 0.0
C331 C 0.53876 0.03987 0.82761 0.0
C332 C 0.54704 0.0556 0.84857 0.0
C333 C 0.56524 0.0553 0.86509 0.0
C334 C 0.57533 0.03935 0.85948 0.0
C335 C 0.56685 0.02356 0.84005 0.0
C336 C 0.54872 0.02379 0.82464 0.0
C337 C 0.50046 0.03368 0.59987 0.0
C338 C 0.54467 1.00166 0.64849 0.0
C339 C 0.49024 0.9711 0.53905 0.0
C340 C 0.47176 0.97098 0.51607 0.0
C341 C 0.46279 0.95461 0.5067 0.0
C342 C 0.4443 0.95451 0.49456 0.0
C343 C 0.43457 0.97079 0.49204 0.0
C344 C 0.44374 0.98715 0.5 0.0
C345 C 0.46212 0.98725 0.51207 0.0
C346 C 0.51088 0.97767 0.73955 0.0
C347 C 0.4663 0.00968 0.69128 0.0
O348 O 0.51083 0.026 0.81035 0.0
O349 O 0.52007 0.04616 0.74713 0.0
O350 O 0.51129 0.02092 0.61103 0.0
O351 O 0.49302 0.03976 0.64788 0.0
O352 O 0.53385 0.99384 0.61036 0.0
O353 O 0.53803 0.01049 0.69419 0.0
O354 O 0.49945 0.98588 0.52968 0.0
O355 O 0.49185 0.96503 0.59299 0.0
O356 O 0.5001 0.99056 0.72909 0.0
O357 O 0.51762 0.97132 0.69089 0.0
O358 O 0.47713 0.01764 0.72913 0.0
O359 O 0.47295 1.00082 0.64562 0.0
H360 H 0.53958 0.06816 0.85061 0.0
H361 H 0.57157 0.06759 0.88041 0.0
H362 H 0.57429 0.01103 0.83644 0.0
H363 H 0.54262 0.01146 0.80877 0.0
H364 H 0.46995 0.94193 0.51071 0.0
H365 H 0.43755 0.94169 0.48864 0.0
H366 H 0.43671 0.99994 0.49702 0.0
H367 H 0.46864 1.00009 0.52003 0.0
Pr368 Pr 0.49145 0.50781 0.72054 0.0
Pr369 Pr 0.52072 0.50239 0.62875 0.0
C370 C 0.47599 0.51925 0.82051 0.0
C371 C 0.47604 0.53788 0.84259 0.0
C372 C 0.45973 0.54658 0.85607 0.0
C373 C 0.45938 0.56523 0.86535 0.0
C374 C 0.47532 0.57539 0.86057 0.0
C375 C 0.49168 0.56653 0.84938 0.0
C376 C 0.49205 0.54799 0.84045 0.0
C377 C 0.47332 0.50508 0.61193 0.0
C378 C 0.50807 0.54381 0.64853 0.0
C379 C 0.54205 0.49056 0.54185 0.0
C380 C 0.54065 0.47363 0.50907 0.0
C381 C 0.55556 0.46203 0.50606 0.0
C382 C 0.55334 0.44427 0.4871 0.0
C383 C 0.5362 0.43807 0.47049 0.0
C384 C 0.52146 0.44991 0.4712 0.0
C385 C 0.52363 0.46752 0.49063 0.0
C386 C 0.53406 0.5111 0.74056 0.0
C387 C 0.50094 0.46575 0.6908 0.0
O388 O 0.49158 0.511 0.81994 0.0
O389 O 0.46683 0.51685 0.77191 0.0
O390 O 0.49026 0.50412 0.61816 0.0
O391 O 0.46535 0.50621 0.66273 0.0
O392 O 0.5152 0.53276 0.60953 0.0
O393 O 0.50053 0.5376 0.69742 0.0
O394 O 0.52919 0.50237 0.53281 0.0
O395 O 0.54607 0.48848 0.59766 0.0
O396 O 0.52146 0.50007 0.73013 0.0
O397 O 0.53999 0.51825 0.69189 0.0
O398 O 0.49259 0.47646 0.72845 0.0
O399 O 0.51077 0.47237 0.64684 0.0
H400 H 0.4472 0.53908 0.85687 0.0
H401 H 0.4466 0.5718 0.87399 0.0
H402 H 0.50421 0.574 0.84663 0.0
H403 H 0.50482 0.54175 0.82935 0.0
H404 H 0.56871 0.46644 0.52111 0.0
H405 H 0.56487 0.4353 0.48644 0.0
H406 H 0.50809 0.44531 0.4592 0.0
H407 H 0.51179 0.47602 0.49397 0.0
Pr408 Pr 1.00334 0.48989 0.7121 0.0
Pr409 Pr 0.00765 0.51865 0.62797 0.0
C410 C 0.99122 0.46894 0.80023 0.0
C411 C 0.97381 0.47063 0.83043 0.0
C412 C 0.96377 0.45528 0.84543 0.0
C413 C 0.94588 0.45708 0.86424 0.0
C414 C 0.93785 0.47425 0.86792 0.0
C415 C 0.94819 0.48956 0.85437 0.0
C416 C 0.96597 0.48778 0.83587 0.0
C417 C 0.011 0.4765 0.59925 0.0
C418 C 0.9662 0.50814 0.65074 0.0
C419 C 0.02002 0.53954 0.54024 0.0
C420 C 0.03842 0.53974 0.51644 0.0
C421 C 0.04749 0.55613 0.50822 0.0
C422 C 0.06596 0.55623 0.49582 0.0
C423 C 0.07558 0.53991 0.4919 0.0
C424 C 0.06629 0.52354 0.49855 0.0
C425 C 0.04793 0.52345 0.51088 0.0
C426 C 0.99982 0.53234 0.74021 0.0
C427 C 0.04487 0.50077 0.69033 0.0
O428 O 1.00255 0.48217 0.80883 0.0
O429 O 0.99008 0.46422 0.74484 0.0
O430 O 0.99993 0.48904 0.61033 0.0
O431 O 0.01876 0.47073 0.64718 0.0
O432 O 0.9768 0.51598 0.61183 0.0
O433 O 0.97314 0.4995 0.69652 0.0
O434 O 0.01071 0.52486 0.53058 0.0
O435 O 0.01867 0.54525 0.59455 0.0
O436 O 0.01073 0.51955 0.73009 0.0
O437 O 0.9926 0.53828 0.69161 0.0
O438 O 0.03421 0.49255 0.72818 0.0
O439 O 0.03798 0.50972 0.6451 0.0
H440 H 0.96953 0.44194 0.84053 0.0
H441 H 0.93823 0.44505 0.87481 0.0
H442 H 0.94233 0.50294 0.8555 0.0
H443 H 0.9733 0.49982 0.82322 0.0
H444 H 0.04043 0.56883 0.51347 0.0
H445 H 0.07281 0.56904 0.49094 0.0
H446 H 0.07323 0.51074 0.49446 0.0
H447 H 0.04134 0.51059 0.51796 0.0
C448 C 0.12823 0.02226 0.15723 0.0
C449 C 0.13969 0.00776 0.14269 0.0
C450 C 0.11555 0.02078 0.20297 0.0
C451 C 0.10552 0.99291 0.33725 0.0
H452 H 0.06209 0.02203 0.3408 0.0
C453 C 0.06621 1.00364 0.55405 0.0
C454 C 0.04731 1.00503 0.5529 0.0
C455 C 0.07623 1.00317 0.50171 0.0
C456 C 0.07402 0.01361 0.34045 0.0
H457 H 0.14583 0.97987 0.16429 0.0
H458 H 0.12315 0.97697 0.24116 0.0
H459 H 0.08084 0.02185 0.25248 0.0
H460 H 0.02407 0.00709 0.49539 0.0
H461 H 0.04155 0.00605 0.40332 0.0
H462 H 0.09844 0.98424 0.42441 0.0
C463 C 0.12441 0.98981 0.21864 0.0
C464 C 0.085 0.0137 0.28983 0.0
C465 C 0.13729 0.99138 0.1734 0.0
C466 C 0.03863 0.00606 0.49777 0.0
C467 C 0.0487 0.00553 0.44501 0.0
C468 C 0.09447 0.99269 0.38753 0.0
C469 C 0.11362 1.00463 0.23528 0.0
C470 C 0.1011 1.00356 0.28764 0.0
C471 C 0.06768 1.00396 0.44621 0.0
C472 C 0.07871 1.00328 0.39047 0.0
H473 H 0.12928 0.03502 0.13412 0.0
H474 H 0.10772 0.0326 0.21419 0.0
H475 H 0.11781 0.98505 0.33822 0.0
H476 H 0.07338 1.00288 0.59571 0.0
H477 H 0.09078 1.00239 0.505 0.0
C478 C 0.48263 0.13419 0.17391 0.0
C479 C 0.49776 0.13797 0.13832 0.0
C480 C 0.48332 0.12095 0.21786 0.0
C481 C 0.50533 0.08058 0.27605 0.0
H482 H 0.49342 0.10107 0.4286 0.0
C483 C 0.51223 0.03986 0.49707 0.0
C484 C 0.49995 0.04369 0.54274 0.0
C485 C 0.51243 0.05027 0.44502 0.0
C486 C 0.49649 0.09492 0.38646 0.0
H487 H 0.52492 0.12926 0.11745 0.0
H488 H 0.52585 0.10538 0.19337 0.0
H489 H 0.4926 0.11996 0.34078 0.0
H490 H 0.47783 0.06102 0.56851 0.0
H491 H 0.47768 0.07866 0.47776 0.0
H492 H 0.50869 0.05535 0.3215 0.0
C493 C 0.51361 0.11317 0.18773 0.0
C494 C 0.49615 0.10586 0.336 0.0
C495 C 0.51303 0.12676 0.14399 0.0
C496 C 0.48756 0.0578 0.53445 0.0
C497 C 0.48763 0.06806 0.48236 0.0
C498 C 0.50542 0.06948 0.32667 0.0
C499 C 0.49902 0.11071 0.22683 0.0
C500 C 0.50038 0.09884 0.2801 0.0
C501 C 0.50026 0.0647 0.43706 0.0
C502 C 0.5008 0.07645 0.3827 0.0
H503 H 0.47048 0.14224 0.17001 0.0
H504 H 0.47173 0.11914 0.24643 0.0
H505 H 0.50863 0.07477 0.23354 0.0
H506 H 0.52198 0.02908 0.50212 0.0
H507 H 0.52248 0.04726 0.41177 0.0
C508 C 0.37382 0.51954 0.17378 0.0
C509 C 0.37109 0.50307 0.14419 0.0
C510 C 0.38678 0.52108 0.21879 0.0
C511 C 0.42584 0.49681 0.29131 0.0
H512 H 0.41285 0.52682 0.42445 0.0
C513 C 0.4721 0.5041 0.49989 0.0
C514 C 0.4633 0.50514 0.55483 0.0
C515 C 0.46215 0.50476 0.44685 0.0
C516 C 0.41669 0.51823 0.38796 0.0
H517 H 0.38104 0.4756 0.13731 0.0
H518 H 0.40275 0.478 0.21693 0.0
H519 H 0.39351 0.52615 0.33813 0.0
H520 H 0.43715 0.50757 0.59687 0.0
H521 H 0.41998 0.50839 0.50571 0.0
H522 H 0.44861 0.48825 0.34282 0.0
C523 C 0.3951 0.4899 0.20503 0.0
C524 C 0.40567 0.51807 0.3376 0.0
C525 C 0.38233 0.48844 0.15956 0.0
C526 C 0.44441 0.50675 0.55543 0.0
C527 C 0.43453 0.50741 0.50281 0.0
C528 C 0.43681 0.49686 0.34199 0.0
C529 C 0.39734 0.50615 0.23629 0.0
C530 C 0.40991 0.50721 0.28855 0.0
C531 C 0.44318 0.50655 0.44753 0.0
C532 C 0.43227 0.50737 0.39153 0.0
H533 H 0.36546 0.53114 0.16399 0.0
H534 H 0.38828 0.53398 0.24048 0.0
H535 H 0.42987 0.48849 0.25439 0.0
H536 H 0.48665 0.50291 0.49789 0.0
H537 H 0.46938 0.50417 0.40533 0.0
C538 C 0.99188 0.38032 0.1563 0.0
C539 C 0.00702 0.36945 0.14425 0.0
C540 C 0.99223 0.39293 0.20258 0.0
C541 C 0.01456 0.40141 0.34523 0.0
H542 H 0.99752 0.45056 0.32802 0.0
C543 C 0.02443 0.45282 0.53372 0.0
C544 C 0.01113 0.46598 0.54332 0.0
C545 C 0.02397 0.44188 0.48334 0.0
C546 C 1.0021 0.43682 0.33412 0.0
H547 H 0.03436 0.36337 0.1721 0.0
H548 H 0.03491 0.38519 0.25241 0.0
H549 H 0.99616 0.43001 0.2439 0.0
H550 H 0.98702 0.47817 0.50683 0.0
H551 H 0.98581 0.45877 0.41989 0.0
H552 H 0.02003 0.40779 0.43543 0.0
C553 C 0.0228 0.38405 0.22593 0.0
C554 C 1.00137 0.42505 0.28561 0.0
C555 C 0.02254 0.37168 0.17932 0.0
C556 C 0.99752 0.4682 0.50063 0.0
C557 C 0.9969 0.45707 0.4505 0.0
C558 C 0.01507 0.41306 0.39384 0.0
C559 C 0.00761 0.39473 0.23862 0.0
C560 C 0.00777 0.40724 0.29039 0.0
C561 C 0.01002 0.44356 0.4413 0.0
C562 C 0.00904 0.43105 0.38909 0.0
H563 H 0.97971 0.37896 0.13025 0.0
H564 H 0.98027 0.40088 0.2113 0.0
H565 H 0.0193 0.38769 0.35083 0.0
H566 H 0.03519 0.45087 0.5655 0.0
H567 H 0.03464 0.43207 0.47754 0.0
C568 C 0.87818 0.0254 0.16664 0.0
C569 C 0.87019 0.00998 0.19208 0.0
C570 C 0.89075 0.02389 0.12057 0.0
C571 C 0.90714 0.99081 0.00699 0.0
H572 H 0.94293 0.02783 0.9785 0.0
C573 C 0.94748 0.9928 0.78818 0.0
C574 C 0.96489 1.00028 0.78721 0.0
C575 C 0.93681 0.99364 0.83919 0.0
C576 C 0.93325 0.01715 0.98595 0.0
H577 H 0.87003 0.9807 0.18916 0.0
H578 H 0.89264 0.97806 0.11247 0.0
H579 H 0.92402 0.02952 0.06565 0.0
H580 H 0.98481 0.01431 0.83964 0.0
H581 H 0.96676 0.01484 0.92971 0.0
H582 H 0.91698 0.9779 0.9292 0.0
C583 C 0.8887 0.99145 0.12635 0.0
C584 C 0.92206 0.01831 0.03583 0.0
C585 C 0.8759 0.99297 0.1717 0.0
C586 C 0.97151 0.00832 0.83898 0.0
C587 C 0.96097 0.00883 0.89055 0.0
C588 C 0.91854 0.98946 0.9578 0.0
C589 C 0.89606 0.00688 0.09894 0.0
C590 C 0.90866 0.00526 0.04699 0.0
C591 C 0.94334 1.00165 0.89144 0.0
C592 C 0.93168 1.00271 0.94587 0.0
H593 H 0.87451 0.03877 0.18148 0.0
H594 H 0.89584 0.03618 0.10084 0.0
H595 H 0.89689 0.98057 0.01278 0.0
H596 H 0.94186 0.98668 0.7489 0.0
H597 H 0.92325 0.98832 0.83685 0.0
C598 C 0.5188 0.88371 0.19089 0.0
C599 C 0.50712 0.86874 0.19104 0.0
C600 C 0.51815 0.8965 0.14501 0.0
C601 C 0.50748 0.90032 0.98833 0.0
H602 H 0.50496 0.95193 0.01338 0.0
C603 C 0.50222 0.94885 0.78892 0.0
C604 C 0.50945 0.96626 0.79312 0.0
C605 C 0.50107 0.93768 0.83878 0.0
C606 C 0.50601 0.9376 0.00519 0.0
H607 H 0.48555 0.85563 0.1428 0.0
H608 H 0.48462 0.87777 0.06265 0.0
H609 H 0.50484 0.93146 0.09808 0.0
H610 H 0.52121 0.98576 0.85243 0.0
H611 H 0.52035 0.96598 0.93911 0.0
H612 H 0.50959 0.9061 0.89628 0.0
C613 C 0.49416 0.87968 0.09835 0.0
C614 C 0.5058 0.92585 0.05405 0.0
C615 C 0.49458 0.86709 0.14464 0.0
C616 C 0.51552 0.97237 0.84821 0.0
C617 C 0.51485 0.961 0.89801 0.0
C618 C 0.50811 0.91202 0.93964 0.0
C619 C 0.50606 0.89444 0.09761 0.0
C620 C 0.50639 0.90707 0.04612 0.0
C621 C 0.50766 0.94338 0.89419 0.0
C622 C 0.50723 0.9309 0.94696 0.0
H623 H 0.52861 0.88541 0.22589 0.0
H624 H 0.52755 0.90768 0.14553 0.0
H625 H 0.50822 0.88592 0.98078 0.0
H626 H 0.49724 0.94392 0.74695 0.0
H627 H 0.49489 0.92457 0.83351 0.0
C628 C 0.63117 0.48604 0.17717 0.0
C629 C 0.64014 0.50129 0.19978 0.0
C630 C 0.61856 0.48764 0.13125 0.0
C631 C 0.60342 0.52023 0.01339 0.0
H632 H 0.56625 0.4843 0.98985 0.0
C633 C 0.56243 0.51812 0.79604 0.0
C634 C 0.54481 0.51116 0.79606 0.0
C635 C 0.57321 0.51723 0.84678 0.0
C636 C 0.57631 0.49469 0.99588 0.0
H637 H 0.64186 0.53045 0.19224 0.0
H638 H 0.61909 0.53335 0.11612 0.0
H639 H 0.5852 0.48274 0.07687 0.0
H640 H 0.52461 0.49801 0.84997 0.0
H641 H 0.54287 0.49743 0.93965 0.0
H642 H 0.59388 0.53281 0.9344 0.0
C643 C 0.62236 0.51995 0.13188 0.0
C644 C 0.58754 0.49358 0.04573 0.0
C645 C 0.63526 0.51831 0.17697 0.0
C646 C 0.53809 0.50357 0.84855 0.0
C647 C 0.54874 0.50304 0.8999 0.0
C648 C 0.59196 0.52156 0.9643 0.0
C649 C 0.6141 0.50461 0.10706 0.0
C650 C 0.60144 0.50623 0.05515 0.0
C651 C 0.56658 0.50972 0.89983 0.0
C652 C 0.57832 0.50869 0.95411 0.0
H653 H 0.63411 0.47268 0.19402 0.0
H654 H 0.61277 0.47539 0.11367 0.0
H655 H 0.61405 0.53012 0.0177 0.0
H656 H 0.56815 0.52387 0.75616 0.0
H657 H 0.58692 0.52211 0.84362 0.0
C658 C 0.98747 0.62806 0.18276 0.0
C659 C 1.00211 0.63964 0.19459 0.0
C660 C 0.98835 0.61524 0.13735 0.0
C661 C 0.0132 0.6053 0.998 0.0
H662 H 0.98791 0.55963 0.00759 0.0
C663 C 0.99758 0.56221 0.79129 0.0
C664 C 1.00038 0.54348 0.79479 0.0
C665 C 0.99881 0.57305 0.84174 0.0
C666 C 0.99517 0.57226 0.00432 0.0
H667 H 0.02949 0.64605 0.16783 0.0
H668 H 0.03125 0.62332 0.09066 0.0
H669 H 0.98868 0.57953 0.09346 0.0
H670 H 0.00636 0.52138 0.85432 0.0
H671 H 0.00793 0.54029 0.9433 0.0
H672 H 0.01967 0.598 0.90884 0.0
C673 C 0.01886 0.62447 0.1157 0.0
C674 C 0.99547 0.5838 0.05345 0.0
C675 C 0.01794 0.63738 0.16092 0.0
C676 C 1.00417 0.53578 0.85027 0.0
C677 C 1.00501 0.54661 0.90117 0.0
C678 C 0.01281 0.59382 0.94885 0.0
C679 C 1.00395 0.61341 0.10239 0.0
C680 C 1.00438 0.60059 0.05099 0.0
C681 C 1.00251 0.56543 0.89746 0.0
C682 C 1.00366 0.5772 0.95108 0.0
H683 H 0.97511 0.62907 0.208 0.0
H684 H 0.9765 0.60715 0.1285 0.0
H685 H 0.02006 0.61813 0.99377 0.0
H686 H 0.99476 0.5686 0.74919 0.0
H687 H 0.99663 0.58743 0.83716 0.0
C688 C 0.0196 0.22528 0.31705 0.0
C689 C 0.01573 0.22675 0.25655 0.0
C690 C 0.01307 0.21049 0.34934 0.0
C691 C 0.9984 0.16406 0.32206 0.0
H692 H 0.97709 0.16544 0.4785 0.0
C693 C 0.96287 0.10258 0.41168 0.0
C694 C 0.97046 0.09602 0.46422 0.0
C695 C 0.96615 0.12028 0.39388 0.0
C696 C 0.98303 0.16498 0.4348 0.0
H697 H 1.00108 0.21519 0.18311 0.0
H698 H 0.98943 0.1898 0.23911 0.0
H699 H 0.9883 0.19347 0.43296 0.0
H700 H 0.98573 0.10307 0.54229 0.0
H701 H 0.9916 0.13415 0.51094 0.0
H702 H 0.99306 0.13582 0.32307 0.0
C703 C 0.99795 0.19948 0.26149 0.0
C704 C 0.98953 0.1809 0.40905 0.0
C705 C 1.00457 0.21399 0.22947 0.0
C706 C 0.98003 0.10785 0.50113 0.0
C707 C 0.98323 0.1256 0.48354 0.0
C708 C 0.99179 0.14834 0.34733 0.0
C709 C 1.00254 0.19726 0.32123 0.0
C710 C 0.99696 0.18057 0.35191 0.0
C711 C 0.97696 0.13168 0.42857 0.0
C712 C 0.98378 0.14868 0.40336 0.0
H713 H 0.02802 0.2352 0.33863 0.0
H714 H 0.01672 0.20909 0.39545 0.0
H715 H 1.00455 0.1633 0.27871 0.0
H716 H 0.95543 0.09372 0.38257 0.0
H717 H 0.96105 0.12481 0.35148 0.0
C718 C 0.29438 0.99294 0.23809 0.0
C719 C 0.28528 0.0089 0.25236 0.0
C720 C 0.30818 0.98664 0.274 0.0
C721 C 0.33059 0.98979 0.41766 0.0
H722 H 0.3732 0.97996 0.32353 0.0
C723 C 0.40354 0.98319 0.50791 0.0
C724 C 0.41505 0.97099 0.47893 0.0
C725 C 0.38581 0.98553 0.48877 0.0
C726 C 0.36135 0.9823 0.35046 0.0
H727 H 0.2824 0.03033 0.31631 0.0
H728 H 0.30716 0.01937 0.3797 0.0
H729 H 0.34548 0.98889 0.27496 0.0
H730 H 0.41663 0.95063 0.41055 0.0
H731 H 0.38557 0.95438 0.37809 0.0
H732 H 0.34681 0.98339 0.49346 0.0
C733 C 0.30342 0.01171 0.34091 0.0
C734 C 0.3455 0.98749 0.32264 0.0
C735 C 0.28941 0.018 0.30482 0.0
C736 C 0.4081 0.96014 0.43368 0.0
C737 C 0.39037 0.96242 0.41475 0.0
C738 C 0.34658 0.98453 0.44574 0.0
C739 C 0.31326 0.99628 0.32455 0.0
C740 C 0.32993 0.99112 0.3558 0.0
C741 C 0.37932 0.97565 0.44045 0.0
C742 C 0.36205 0.98059 0.41218 0.0
H743 H 0.29115 0.98566 0.198 0.0
H744 H 0.31536 0.97454 0.26105 0.0
H745 H 0.31873 0.99257 0.44404 0.0
H746 H 0.40847 0.99147 0.54382 0.0
H747 H 0.37758 0.9958 0.50947 0.0
C748 C 0.49071 0.29904 0.26246 0.0
C749 C 0.50348 0.28506 0.26389 0.0
C750 C 0.49176 0.31304 0.30306 0.0
C751 C 0.50854 0.33525 0.42832 0.0
H752 H 0.53172 0.36834 0.31871 0.0
C753 C 0.53901 0.40512 0.49146 0.0
C754 C 0.53332 0.41916 0.45403 0.0
C755 C 0.53508 0.38723 0.47726 0.0
C756 C 0.52523 0.35927 0.34975 0.0
H757 H 0.52582 0.27345 0.31293 0.0
H758 H 0.52771 0.29819 0.38369 0.0
H759 H 0.52249 0.33862 0.28495 0.0
H760 H 0.51927 0.42582 0.37295 0.0
H761 H 0.51251 0.39466 0.34785 0.0
H762 H 0.51098 0.35627 0.49293 0.0
C763 C 0.51687 0.29814 0.35155 0.0
C764 C 0.51999 0.34236 0.3305 0.0
C765 C 0.51586 0.28411 0.31083 0.0
C766 C 0.52381 0.41516 0.40226 0.0
C767 C 0.52001 0.39739 0.38794 0.0
C768 C 0.51376 0.35236 0.44775 0.0
C769 C 0.5055 0.31311 0.34557 0.0
C770 C 0.51134 0.33043 0.36925 0.0
C771 C 0.52562 0.38329 0.42519 0.0
C772 C 0.52181 0.36458 0.40804 0.0
H773 H 0.48079 0.29983 0.2274 0.0
H774 H 0.48299 0.32464 0.29772 0.0
H775 H 0.50198 0.32601 0.45864 0.0
H776 H 0.54615 0.40801 0.53212 0.0
H777 H 0.53956 0.37652 0.50642 0.0
C778 C 0.22051 0.4929 0.30433 0.0
C779 C 0.22506 0.50249 0.25301 0.0
C780 C 0.20652 0.49912 0.3405 0.0
C781 C 0.16507 0.52448 0.3231 0.0
H782 H 0.16315 0.52644 0.4942 0.0
C783 C 0.10222 0.55094 0.43484 0.0
C784 C 0.09512 0.53969 0.479 0.0
C785 C 0.11998 0.54876 0.41611 0.0
C786 C 0.16354 0.52591 0.4464 0.0
H787 H 0.21995 0.52646 0.20081 0.0
H788 H 0.19578 0.53745 0.26404 0.0
H789 H 0.19126 0.51742 0.44493 0.0
H790 H 0.10147 0.51855 0.54224 0.0
H791 H 0.13238 0.51437 0.50816 0.0
H792 H 0.13748 0.53241 0.32371 0.0
C793 C 0.20261 0.52505 0.27602 0.0
C794 C 0.17955 0.52073 0.41839 0.0
C795 C 0.21641 0.51881 0.24003 0.0
C796 C 0.1065 0.52714 0.50713 0.0
C797 C 0.12426 0.52489 0.48817 0.0
C798 C 0.14919 0.52957 0.35085 0.0
C799 C 0.19711 0.51496 0.32536 0.0
C800 C 0.18043 0.52014 0.35646 0.0
C801 C 0.13091 0.53521 0.44088 0.0
C802 C 0.14825 0.53048 0.4127 0.0
H803 H 0.22715 0.48027 0.31478 0.0
H804 H 0.20244 0.49112 0.37831 0.0
H805 H 0.16526 0.52367 0.2753 0.0
H806 H 0.09379 0.56074 0.41241 0.0
H807 H 0.12491 0.55715 0.38033 0.0
C808 C 0.0198 0.79125 0.08442 0.0
C809 C 1.00286 0.7833 0.07658 0.0
C810 C 0.02533 0.80515 0.0475 0.0
C811 C 0.01873 0.82959 0.91005 0.0
H812 H 0.03076 0.87099 0.00682 0.0
C813 C 0.02457 0.90359 0.82844 0.0
C814 C 0.03689 0.91474 0.85837 0.0
C815 C 0.02275 0.8855 0.84434 0.0
C816 C 0.02783 0.85948 0.97906 0.0
H817 H 0.97869 0.78257 0.0231 0.0
H818 H 0.98842 0.80738 0.95758 0.0
H819 H 0.02238 0.84283 0.05387 0.0
H820 H 0.05828 0.91529 0.92368 0.0
H821 H 0.05552 0.88361 0.95005 0.0
H822 H 0.02413 0.84652 0.83497 0.0
C823 C 0.99741 0.80266 0.99203 0.0
C824 C 0.0229 0.84341 0.00604 0.0
C825 C 0.99185 0.78862 0.0293 0.0
C826 C 0.04862 0.90708 0.90006 0.0
C827 C 0.04691 0.88898 0.91556 0.0
C828 C 0.0238 0.84578 0.88276 0.0
C829 C 0.01394 0.81137 1.00236 0.0
C830 C 0.01851 0.8283 0.97191 0.0
C831 C 0.03332 0.87831 0.89014 0.0
C832 C 0.02858 0.8608 0.91722 0.0
H833 H 0.02843 0.78719 0.12079 0.0
H834 H 0.03818 0.81161 0.05586 0.0
H835 H 0.01531 0.81805 0.88307 0.0
H836 H 0.01568 0.90909 0.79494 0.0
H837 H 0.01225 0.87757 0.82371 0.0
C838 C 0.72771 0.01339 0.03627 0.0
C839 C 0.72825 0.99701 0.06762 0.0
C840 C 0.71291 0.01758 1.00069 0.0
C841 C 0.66518 0.00861 0.00346 0.0
H842 H 0.66342 0.03546 0.8562 0.0
C843 C 0.60063 0.04394 0.93038 0.0
C844 C 0.59467 0.03874 0.8742 0.0
C845 C 0.61834 0.04037 0.94773 0.0
C846 C 0.66379 0.02798 0.89736 0.0
H847 H 0.71489 0.97136 0.08136 0.0
H848 H 0.689 0.97867 0.01896 0.0
H849 H 0.6924 0.02376 0.89235 0.0
H850 H 0.6026 0.02709 0.79046 0.0
H851 H 0.63369 0.02102 0.82057 0.0
H852 H 0.63675 0.01287 0.00906 0.0
C853 C 0.69984 0.98838 0.02284 0.0
C854 C 0.68029 0.0213 0.91791 0.0
C855 C 0.71462 0.9842 0.05838 0.0
C856 C 0.60695 0.0311 0.83417 0.0
C857 C 0.6247 0.02772 0.85124 0.0
C858 C 0.64881 0.01543 0.98335 0.0
C859 C 0.69847 0.00544 0.99605 0.0
C860 C 0.68108 0.01152 0.97112 0.0
C861 C 0.63034 0.03175 0.90886 0.0
C862 C 0.64797 0.02523 0.93033 0.0
H863 H 0.73798 0.02357 0.04294 0.0
H864 H 0.71215 0.03085 0.98071 0.0
H865 H 0.66545 1.00141 0.04517 0.0
H866 H 0.59134 0.04979 0.96193 0.0
H867 H 0.62248 0.04373 0.99227 0.0
C868 C 0.49857 0.72813 0.0366 0.0
C869 C 0.51392 0.72581 0.07224 0.0
C870 C 0.49343 0.71473 0.99681 0.0
C871 C 0.50887 0.67252 0.92497 0.0
H872 H 0.4587 0.65839 0.93962 0.0
C873 C 0.48494 0.60601 0.82721 0.0
C874 C 0.47519 0.5952 0.86703 0.0
C875 C 0.48712 0.62438 0.83772 0.0
C876 C 0.47272 0.66222 0.93483 0.0
H877 H 0.5366 0.7083 0.09149 0.0
H878 H 0.5275 0.68477 0.02303 0.0
H879 H 0.46896 0.68638 0.98457 0.0
H880 H 0.4591 0.59522 0.94685 0.0
H881 H 0.46325 0.62727 0.96631 0.0
H882 H 0.51296 0.64782 0.87891 0.0
C883 C 0.51948 0.69697 0.02525 0.0
C884 C 0.47856 0.67836 0.95996 0.0
C885 C 0.52461 0.71035 0.06493 0.0
C886 C 0.46665 0.60329 0.91548 0.0
C887 C 0.46898 0.62167 0.92637 0.0
C888 C 0.50306 0.65637 0.9001 0.0
C889 C 0.50357 0.6988 0.99192 0.0
C890 C 0.49682 0.68339 0.95681 0.0
C891 C 0.47975 0.63227 0.88865 0.0
C892 C 0.48503 0.65077 0.90626 0.0
H893 H 0.48998 0.73984 0.04166 0.0
H894 H 0.48122 0.71659 0.97125 0.0
H895 H 0.52297 0.67617 0.92116 0.0
H896 H 0.49139 0.60011 0.78893 0.0
H897 H 0.49516 0.63227 0.80715 0.0
C898 C 0.79693 0.51689 0.06197 0.0
C899 C 0.78281 0.50437 0.06617 0.0
C900 C 0.81072 0.5144 0.02112 0.0
C901 C 0.83355 0.4767 0.95161 0.0
H902 H 0.864 0.51493 0.89046 0.0
C903 C 0.90548 0.46497 0.8576 0.0
C904 C 0.91853 0.4764 0.88259 0.0
C905 C 0.88714 0.46815 0.86724 0.0
C906 C 0.85555 0.50412 0.90698 0.0
H907 H 0.77102 0.48041 0.02743 0.0
H908 H 0.79502 0.47624 0.95475 0.0
H909 H 0.83345 0.52196 0.92341 0.0
H910 H 0.92264 0.49962 0.93914 0.0
H911 H 0.89067 0.50523 0.95538 0.0
H912 H 0.85591 0.459 0.93679 0.0
C913 C 0.79561 0.48777 0.98397 0.0
C914 C 0.8381 0.50812 0.92576 0.0
C915 C 0.7818 0.49024 0.02514 0.0
C916 C 0.9129 0.49078 0.91842 0.0
C917 C 0.89462 0.49404 0.92753 0.0
C918 C 0.85095 0.47269 0.93229 0.0
C919 C 0.81059 0.49938 0.98336 0.0
C920 C 0.82718 0.49458 0.95053 0.0
C921 C 0.88159 0.48289 0.90149 0.0
C922 C 0.8623 0.48649 0.91203 0.0
H923 H 0.79784 0.52807 0.09255 0.0
H924 H 0.82209 0.52354 0.02225 0.0
H925 H 0.82559 0.46599 0.97116 0.0
H926 H 0.90941 0.45393 0.82915 0.0
H927 H 0.87729 0.45935 0.84689 0.0
C928 C 0.02512 0.20831 0.78081 0.0
C929 C 0.01117 0.2161 0.81458 0.0
C930 C 0.02408 0.19034 0.76175 0.0
C931 C 1.00126 0.14711 0.79963 0.0
H932 H 0.02254 0.13049 0.6531 0.0
C933 C 0.01384 0.07123 0.75523 0.0
C934 C 0.00983 0.06453 0.69862 0.0
C935 C 0.01373 0.08982 0.7665 0.0
C936 C 0.01642 0.13489 0.69404 0.0
H937 H 0.98477 0.21087 0.85227 0.0
H938 H 0.98272 0.17991 0.8175 0.0
H939 H 0.02186 0.16273 0.67508 0.0
H940 H 1.00305 0.07234 0.60908 0.0
H941 H 1.00329 0.10485 0.62848 0.0
H942 H 0.99567 0.11933 0.81838 0.0
C943 C 0.99471 0.18759 0.80689 0.0
C944 C 0.01618 0.15342 0.70698 0.0
C945 C 0.99577 0.20555 0.82611 0.0
C946 C 0.0061 0.07699 0.65322 0.0
C947 C 0.00629 0.09564 0.66429 0.0
C948 C 1.00157 0.12862 0.78682 0.0
C949 C 0.00903 0.17955 0.77561 0.0
C950 C 0.00866 0.15983 0.76015 0.0
C951 C 0.00984 0.10233 0.72131 0.0
C952 C 0.00926 0.12219 0.73404 0.0
H953 H 0.0371 0.21599 0.77007 0.0
H954 H 0.03544 0.18472 0.73802 0.0
H955 H 0.99554 0.15137 0.84133 0.0
H956 H 0.01672 0.06208 0.79142 0.0
H957 H 0.01679 0.0944 0.81076 0.0
C958 C 0.30558 0.02352 0.82944 0.0
C959 C 0.29423 0.009 0.81455 0.0
C960 C 0.3238 0.02362 0.81288 0.0
C961 C 0.35713 1.00453 0.70877 0.0
H962 H 0.39168 0.0173 0.83012 0.0
C963 C 0.43478 0.99832 0.67094 0.0
C964 C 0.44636 0.01027 0.70081 0.0
C965 C 0.41616 0.99818 0.68256 0.0
C966 C 0.38232 0.01402 0.79508 0.0
H967 H 0.2933 0.98335 0.769 0.0
H968 H 0.32514 0.98368 0.73922 0.0
H969 H 0.35966 0.01723 0.85294 0.0
H970 H 0.44714 0.0319 0.76488 0.0
H971 H 0.41484 0.03223 0.7833 0.0
H972 H 0.37971 1.00173 0.65035 0.0
C973 C 0.31984 0.99498 0.76399 0.0
C974 C 0.36385 0.01388 0.80845 0.0
C975 C 0.3016 0.99475 0.78131 0.0
C976 C 0.43872 0.02238 0.74143 0.0
C977 C 0.42009 0.02243 0.7524 0.0
C978 C 0.37564 1.00491 0.69506 0.0
C979 C 0.33126 0.0093 0.78039 0.0
C980 C 0.35097 0.00917 0.76555 0.0
C981 C 0.40847 0.01016 0.72386 0.0
C982 C 0.38859 0.0097 0.738 0.0
H983 H 0.30055 0.03461 0.85577 0.0
H984 H 0.33211 0.03494 0.82587 0.0
H985 H 0.34759 1.00097 0.67449 0.0
H986 H 0.44016 0.98872 0.63955 0.0
H987 H 0.4079 0.98832 0.6601 0.0
C988 C 0.51679 0.30462 0.82185 0.0
C989 C 0.50201 0.29324 0.80994 0.0
C990 C 0.51665 0.32282 0.80477 0.0
C991 C 0.49452 0.35652 0.70591 0.0
H992 H 0.5123 0.39083 0.82097 0.0
C993 C 0.50557 0.43357 0.65583 0.0
C994 C 0.49997 0.44575 0.69992 0.0
C995 C 0.50537 0.41482 0.66614 0.0
C996 C 0.50722 0.38147 0.7883 0.0
H997 H 0.47563 0.29241 0.76858 0.0
H998 H 0.4754 0.32419 0.73891 0.0
H999 H 0.51283 0.35868 0.84374 0.0
H1000 H 0.48971 0.44748 0.78947 0.0
H1001 H 0.48962 0.41506 0.8075 0.0
H1002 H 0.48889 0.37949 0.65055 0.0
C1003 C 0.48716 0.31891 0.76147 0.0
C1004 C 0.50768 0.36296 0.80116 0.0
C1005 C 0.48724 0.30066 0.77894 0.0
C1006 C 0.49406 0.43861 0.7543 0.0
C1007 C 0.49413 0.41996 0.76486 0.0
C1008 C 0.49426 0.3751 0.69272 0.0
C1009 C 0.50176 0.33035 0.77501 0.0
C1010 C 0.5013 0.35016 0.76032 0.0
C1011 C 0.49987 0.40776 0.72117 0.0
C1012 C 0.50049 0.38786 0.73395 0.0
H1013 H 0.52831 0.29966 0.84637 0.0
H1014 H 0.52825 0.33107 0.81539 0.0
H1015 H 0.48959 0.34712 0.67315 0.0
H1016 H 0.51021 0.43851 0.61338 0.0
H1017 H 0.50997 0.40588 0.6315 0.0
C1018 C 0.20574 0.48767 0.82733 0.0
C1019 C 0.21694 0.50242 0.81347 0.0
C1020 C 0.18755 0.48746 0.81043 0.0
C1021 C 0.15404 0.50698 0.70721 0.0
H1022 H 0.11963 0.49287 0.82761 0.0
C1023 C 0.07625 0.51258 0.66993 0.0
C1024 C 0.06484 0.50031 0.69932 0.0
C1025 C 0.09489 0.51282 0.68131 0.0
C1026 C 0.12895 0.49653 0.79279 0.0
H1027 H 0.21762 0.52838 0.76925 0.0
H1028 H 0.18584 0.52789 0.73895 0.0
H1029 H 0.15163 0.49311 0.85049 0.0
H1030 H 0.06436 0.47819 0.76201 0.0
H1031 H 0.09669 0.47804 0.77991 0.0
H1032 H 0.13143 0.51001 0.64893 0.0
C1033 C 0.19123 0.51648 0.76317 0.0
C1034 C 0.14741 0.49676 0.80621 0.0
C1035 C 0.20944 0.5168 0.78081 0.0
C1036 C 0.07266 0.48797 0.73903 0.0
C1037 C 0.0913 0.48802 0.74971 0.0
C1038 C 0.13553 0.50651 0.69342 0.0
C1039 C 0.17996 0.50192 0.77863 0.0
C1040 C 0.16024 0.50195 0.76368 0.0
C1041 C 0.10275 0.50063 0.72184 0.0
C1042 C 0.12264 0.50122 0.736 0.0
H1043 H 0.21085 0.47647 0.85318 0.0
H1044 H 0.17936 0.47595 0.82267 0.0
H1045 H 0.16354 0.51093 0.6732 0.0
H1046 H 0.07072 0.52235 0.63919 0.0
H1047 H 0.10302 0.52293 0.65931 0.0
C1048 C 0.98728 0.80583 0.50619 0.0
C1049 C 1.00172 0.79445 0.52207 0.0
C1050 C 0.98707 0.82404 0.52278 0.0
C1051 C 0.00564 0.85743 0.62777 0.0
H1052 H 0.99418 0.89189 0.50432 0.0
C1053 C 0.01258 0.93501 0.66503 0.0
C1054 C 1.00136 0.94685 0.63297 0.0
C1055 C 0.01251 0.91637 0.65368 0.0
C1056 C 0.99707 0.88258 0.53998 0.0
H1057 H 0.02706 0.79346 0.5697 0.0
H1058 H 0.02654 0.82526 0.59951 0.0
H1059 H 0.99391 0.85985 0.48259 0.0
H1060 H 0.98075 0.94807 0.56526 0.0
H1061 H 0.97995 0.91577 0.5474 0.0
H1062 H 0.00833 0.88005 0.68577 0.0
C1063 C 0.01539 0.82 0.57388 0.0
C1064 C 0.99702 0.86408 0.52721 0.0
C1065 C 0.01574 0.80178 0.55653 0.0
C1066 C 0.98976 0.93945 0.59031 0.0
C1067 C 0.98944 0.9208 0.57973 0.0
C1068 C 0.00541 0.87597 0.64091 0.0
C1069 C 1.00119 0.83147 0.55633 0.0
C1070 C 1.00131 0.85121 0.5708 0.0
C1071 C 1.00098 0.90889 0.6106 0.0
C1072 C 1.00113 0.88893 0.59718 0.0
H1073 H 0.97636 0.80084 0.47899 0.0
H1074 H 0.97583 0.83238 0.50889 0.0
H1075 H 0.00886 0.84791 0.6626 0.0
H1076 H 0.02174 0.94018 0.6982 0.0
H1077 H 0.02183 0.90794 0.67804 0.0
C1078 C 0.70503 0.98944 0.50676 0.0
C1079 C 0.71616 1.00406 0.52225 0.0
C1080 C 0.68695 0.9888 0.52451 0.0
C1081 C 0.65369 0.00668 0.63128 0.0
H1082 H 0.61903 0.99425 0.50986 0.0
C1083 C 0.57616 0.01292 0.66908 0.0
C1084 C 0.56459 1.00097 0.63923 0.0
C1085 C 0.59477 0.013 0.65757 0.0
C1086 C 0.62844 0.99743 0.54487 0.0
H1087 H 0.71688 0.02927 0.57043 0.0
H1088 H 0.68525 0.02807 0.60195 0.0
H1089 H 0.65099 0.99475 0.4864 0.0
H1090 H 0.56376 0.97924 0.5755 0.0
H1091 H 0.5961 0.97882 0.55729 0.0
H1092 H 0.63118 0.00904 0.6902 0.0
C1093 C 0.69062 0.01709 0.57586 0.0
C1094 C 0.64686 0.9978 0.53117 0.0
C1095 C 0.70874 0.01783 0.5575 0.0
C1096 C 0.57221 0.98877 0.59888 0.0
C1097 C 0.59083 0.98865 0.58807 0.0
C1098 C 0.63522 0.0061 0.64529 0.0
C1099 C 0.6794 1.00271 0.55868 0.0
C1100 C 0.65976 1.00242 0.5741 0.0
C1101 C 0.60243 1.00095 0.61651 0.0
C1102 C 0.62226 1.00145 0.60225 0.0
H1103 H 0.71009 0.97871 0.47895 0.0
H1104 H 0.67878 0.97743 0.51096 0.0
H1105 H 0.66326 0.01015 0.66557 0.0
H1106 H 0.57078 0.02259 0.70024 0.0
H1107 H 0.60306 0.02289 0.67979 0.0
C1108 C 0.52495 0.70437 0.51165 0.0
C1109 C 0.51031 0.71571 0.52561 0.0
C1110 C 0.52501 0.68619 0.52867 0.0
C1111 C 0.5052 0.65283 0.63152 0.0
H1112 H 0.51768 0.61848 0.50942 0.0
C1113 C 0.49698 0.57545 0.66741 0.0
C1114 C 0.50873 0.56365 0.63769 0.0
C1115 C 0.49726 0.59406 0.65568 0.0
C1116 C 0.51448 0.62777 0.54467 0.0
H1117 H 0.4845 0.71671 0.57047 0.0
H1118 H 0.48473 0.68493 0.60084 0.0
H1119 H 0.51842 0.65057 0.48768 0.0
H1120 H 0.53046 0.56236 0.57385 0.0
H1121 H 0.53162 0.59466 0.55561 0.0
H1122 H 0.50169 0.63013 0.6891 0.0
C1123 C 0.49614 0.69021 0.57646 0.0
C1124 C 0.51482 0.64628 0.53193 0.0
C1125 C 0.49597 0.70841 0.55877 0.0
C1126 C 0.52105 0.571 0.59703 0.0
C1127 C 0.52159 0.58962 0.58623 0.0
C1128 C 0.50513 0.63429 0.64464 0.0
C1129 C 0.51052 0.67878 0.56064 0.0
C1130 C 0.51018 0.65907 0.57507 0.0
C1131 C 0.50957 0.60149 0.61481 0.0
C1132 C 0.50974 0.62141 0.60136 0.0
H1133 H 0.53611 0.70935 0.48545 0.0
H1134 H 0.53638 0.67785 0.51622 0.0
H1135 H 0.50169 0.66232 0.66596 0.0
H1136 H 0.48726 0.57026 0.69891 0.0
H1137 H 0.48752 0.60253 0.6779 0.0
C1138 C 0.80342 0.52547 0.54565 0.0
C1139 C 0.79415 0.50953 0.53047 0.0
C1140 C 0.82157 0.52509 0.56315 0.0
C1141 C 0.86231 0.49414 0.56584 0.0
H1142 H 0.88325 0.53393 0.65278 0.0
C1143 C 0.93515 0.49533 0.66783 0.0
C1144 C 0.94625 0.50867 0.64246 0.0
C1145 C 0.91648 0.49521 0.6572 0.0
C1146 C 0.87755 0.52272 0.62851 0.0
H1147 H 0.79722 0.48041 0.52585 0.0
H1148 H 0.8279 0.47963 0.56144 0.0
H1149 H 0.85097 0.53365 0.63319 0.0
H1150 H 0.94624 0.53266 0.58748 0.0
H1151 H 0.91352 0.53284 0.57113 0.0
H1152 H 0.88908 0.48295 0.56434 0.0
C1153 C 0.82152 0.49267 0.55655 0.0
C1154 C 0.85897 0.52258 0.61652 0.0
C1155 C 0.80351 0.49309 0.53726 0.0
C1156 C 0.93812 0.52216 0.60754 0.0
C1157 C 0.9194 0.5223 0.59824 0.0
C1158 C 0.88079 0.49407 0.57939 0.0
C1159 C 0.83111 0.5087 0.56833 0.0
C1160 C 0.85096 0.5084 0.58419 0.0
C1161 C 0.90841 0.5087 0.62234 0.0
C1162 C 0.88864 0.50845 0.61023 0.0
H1163 H 0.79684 0.53847 0.54309 0.0
H1164 H 0.82814 0.53788 0.57091 0.0
H1165 H 0.85713 0.48311 0.53972 0.0
H1166 H 0.94094 0.48471 0.69481 0.0
H1167 H 0.90831 0.4846 0.67646 0.0
loop_
_geom_bond_atom_site_label_1
_geom_bond_atom_site_label_2
_geom_bond_distance
_geom_bond_site_symmetry_2
_ccdc_geom_bond_type
C0 C1 1.384 . S
C0 H13 0.947 . S
C0 C35 1.382 . S
C1 C0 1.384 . S
C1 C2 1.378 . S
C2 C1 1.378 . S
C2 C3 1.378 . S
C2 H14 0.952 . S
C3 C2 1.378 . S
C3 H15 0.950 . S
C3 C34 1.383 . S
H4 C23 0.947 . S
H5 C24 0.946 . S
H6 C26 0.953 . S
H7 C27 0.945 . S
H8 C29 0.952 . S
H9 C30 0.949 . S
H10 C32 0.950 . S
H11 C33 0.948 . S
H12 C35 0.951 . S
H13 C0 0.947 . S
H14 C2 0.952 . S
H15 C3 0.950 . S
N16 C19 1.382 . S
N16 C21 1.363 . S
N17 C19 1.371 . S
N17 C20 1.372 . S
N18 C20 1.361 . S
N18 C21 1.377 . S
C19 N16 1.382 . S
C19 N17 1.371 . S
C19 C22 1.480 . S
C20 N17 1.372 . S
C20 N18 1.361 . S
C20 C28 1.457 . S
C21 N16 1.363 . S
C21 N18 1.377 . S
C21 C34 1.479 . S
C22 C19 1.480 . S
C22 C23 1.383 . S
C22 C27 1.385 . S
C23 H4 0.947 . S
C23 C22 1.383 . S
C23 C24 1.388 . S
C24 H5 0.946 . S
C24 C23 1.388 . S
C24 C25 1.384 . S
C25 C24 1.384 . S
C25 C26 1.377 . S
C26 H6 0.953 . S
C26 C25 1.377 . S
C26 C27 1.369 . S
C27 H7 0.945 . S
C27 C22 1.385 . S
C27 C26 1.369 . S
C28 C20 1.457 . S
C28 C29 1.372 . S
C28 C33 1.364 . S
C29 H8 0.952 . S
C29 C28 1.372 . S
C29 C30 1.389 . S
C30 H9 0.949 . S
C30 C29 1.389 . S
C30 C31 1.387 . S
C31 C30 1.387 . S
C31 C32 1.372 . S
C32 H10 0.950 . S
C32 C31 1.372 . S
C32 C33 1.379 . S
C33 H11 0.948 . S
C33 C28 1.364 . S
C33 C32 1.379 . S
C34 C3 1.383 . S
C34 C21 1.479 . S
C34 C35 1.398 . S
C35 C0 1.382 . S
C35 H12 0.951 . S
C35 C34 1.398 . S
C36 C37 1.384 . S
C36 H49 0.947 . S
C36 C71 1.382 . S
C37 C36 1.384 . S
C37 C38 1.375 1_655 S
C38 C37 1.375 1_455 S
C38 C39 1.381 . S
C38 H50 0.952 . S
C39 C38 1.381 . S
C39 H51 0.950 . S
C39 C70 1.382 1_455 S
H40 C59 0.950 . S
H41 C60 0.946 . S
H42 C62 0.955 . S
H43 C63 0.945 . S
H44 C65 0.952 . S
H45 C66 0.949 . S
H46 C68 0.950 . S
H47 C69 0.948 . S
H48 C71 0.951 . S
H49 C36 0.947 . S
H50 C38 0.952 . S
H51 C39 0.950 . S
N52 C55 1.382 . S
N52 C57 1.366 . S
N53 C55 1.368 1_655 S
N53 C56 1.371 1_655 S
N54 C56 1.366 . S
N54 C57 1.380 . S
C55 N52 1.382 . S
C55 N53 1.368 1_455 S
C55 C58 1.479 . S
C56 N53 1.371 1_455 S
C56 N54 1.366 . S
C56 C64 1.457 . S
C57 N52 1.366 . S
C57 N54 1.380 . S
C57 C70 1.478 1_455 S
C58 C55 1.479 . S
C58 C59 1.380 1_455 S
C58 C63 1.388 . S
C59 H40 0.950 . S
C59 C58 1.380 1_655 S
C59 C60 1.388 . S
C60 H41 0.946 . S
C60 C59 1.388 . S
C60 C61 1.384 . S
C61 C60 1.384 . S
C61 C62 1.373 1_655 S
C62 H42 0.955 . S
C62 C61 1.373 1_455 S
C62 C63 1.374 . S
C63 H43 0.945 . S
C63 C58 1.388 . S
C63 C62 1.374 . S
C64 C56 1.457 . S
C64 C65 1.372 1_455 S
C64 C69 1.364 . S
C65 H44 0.952 . S
C65 C64 1.372 1_655 S
C65 C66 1.389 . S
C66 H45 0.949 . S
C66 C65 1.389 . S
C66 C67 1.387 . S
C67 C66 1.387 . S
C67 C68 1.372 1_655 S
C68 H46 0.950 . S
C68 C67 1.372 1_455 S
C68 C69 1.379 . S
C69 H47 0.948 . S
C69 C64 1.364 . S
C69 C68 1.379 . S
C70 C39 1.382 1_655 S
C70 C57 1.478 1_655 S
C70 C71 1.399 . S
C71 C36 1.382 . S
C71 H48 0.951 . S
C71 C70 1.399 . S
C72 C73 1.381 1_565 S
C72 H85 0.948 . S
C72 C107 1.382 1_565 S
C73 C72 1.381 1_545 S
C73 C74 1.387 . S
C74 C73 1.387 . S
C74 C75 1.378 . S
C74 H86 0.952 . S
C75 C74 1.378 . S
C75 H87 0.950 . S
C75 C106 1.383 . S
H76 C95 0.947 . S
H77 C96 0.952 . S
H78 C98 0.953 . S
H79 C99 0.945 . S
H80 C101 0.949 1_565 S
H81 C102 0.956 . S
H82 C104 0.950 . S
H83 C105 0.948 . S
H84 C107 0.952 1_565 S
H85 C72 0.948 . S
H86 C74 0.952 . S
H87 C75 0.950 . S
N88 C91 1.382 . S
N88 C93 1.363 . S
N89 C91 1.371 . S
N89 C92 1.372 . S
N90 C92 1.361 . S
N90 C93 1.377 . S
C91 N88 1.382 . S
C91 N89 1.371 . S
C91 C94 1.480 . S
C92 N89 1.372 . S
C92 N90 1.361 . S
C92 C100 1.457 . S
C93 N88 1.363 . S
C93 N90 1.377 . S
C93 C106 1.479 . S
C94 C91 1.480 . S
C94 C95 1.383 . S
C94 C99 1.385 . S
C95 H76 0.947 . S
C95 C94 1.383 . S
C95 C96 1.386 1_545 S
C96 H77 0.952 . S
C96 C95 1.386 1_565 S
C96 C97 1.381 1_565 S
C97 C96 1.381 1_545 S
C97 C98 1.377 . S
C98 H78 0.953 . S
C98 C97 1.377 . S
C98 C99 1.369 . S
C99 H79 0.945 . S
C99 C94 1.385 . S
C99 C98 1.369 . S
C100 C92 1.457 . S
C100 C101 1.376 . S
C100 C105 1.364 . S
C101 H80 0.949 1_545 S
C101 C100 1.376 . S
C101 C102 1.386 1_545 S
C102 H81 0.956 . S
C102 C101 1.386 1_565 S
C102 C103 1.383 1_565 S
C103 C102 1.383 1_545 S
C103 C104 1.372 . S
C104 H82 0.950 . S
C104 C103 1.372 . S
C104 C105 1.379 . S
C105 H83 0.948 . S
C105 C100 1.364 . S
C105 C104 1.379 . S
C106 C75 1.383 . S
C106 C93 1.479 . S
C106 C107 1.397 . S
C107 C72 1.382 1_545 S
C107 H84 0.952 1_545 S
C107 C106 1.397 . S
C108 C109 1.384 . S
C108 H121 0.947 . S
C108 C143 1.382 . S
C109 C108 1.384 . S
C109 C110 1.378 . S
C110 C109 1.378 . S
C110 C111 1.378 . S
C110 H122 0.952 . S
C111 C110 1.378 . S
C111 H123 0.950 . S
C111 C142 1.383 . S
H112 C131 0.947 . S
H113 C132 0.946 . S
H114 C134 0.953 . S
H115 C135 0.945 . S
H116 C137 0.952 . S
H117 C138 0.949 . S
H118 C140 0.950 . S
H119 C141 0.948 . S
H120 C143 0.951 . S
H121 C108 0.947 . S
H122 C110 0.952 . S
H123 C111 0.950 . S
N124 C127 1.382 . S
N124 C129 1.363 . S
N125 C127 1.371 . S
N125 C128 1.372 . S
N126 C128 1.361 . S
N126 C129 1.377 . S
C127 N124 1.382 . S
C127 N125 1.371 . S
C127 C130 1.480 . S
C128 N125 1.372 . S
C128 N126 1.361 . S
C128 C136 1.457 . S
C129 N124 1.363 . S
C129 N126 1.377 . S
C129 C142 1.479 . S
C130 C127 1.480 . S
C130 C131 1.383 . S
C130 C135 1.385 . S
C131 H112 0.947 . S
C131 C130 1.383 . S
C131 C132 1.388 . S
C132 H113 0.946 . S
C132 C131 1.388 . S
C132 C133 1.384 . S
C133 C132 1.384 . S
C133 C134 1.377 . S
C134 H114 0.953 . S
C134 C133 1.377 . S
C134 C135 1.369 . S
C135 H115 0.945 . S
C135 C130 1.385 . S
C135 C134 1.369 . S
C136 C128 1.457 . S
C136 C137 1.372 . S
C136 C141 1.364 . S
C137 H116 0.952 . S
C137 C136 1.372 . S
C137 C138 1.389 . S
C138 H117 0.949 . S
C138 C137 1.389 . S
C138 C139 1.387 . S
C139 C138 1.387 . S
C139 C140 1.372 . S
C140 H118 0.950 . S
C140 C139 1.372 . S
C140 C141 1.379 . S
C141 H119 0.948 . S
C141 C136 1.364 . S
C141 C140 1.379 . S
C142 C111 1.383 . S
C142 C129 1.479 . S
C142 C143 1.398 . S
C143 C108 1.382 . S
C143 H120 0.951 . S
C143 C142 1.398 . S
C144 C145 1.384 . S
C144 H157 0.947 . S
C144 C179 1.382 . S
C145 C144 1.384 . S
C145 C146 1.378 . S
C146 C145 1.378 . S
C146 C147 1.378 . S
C146 H158 0.952 . S
C147 C146 1.378 . S
C147 H159 0.950 . S
C147 C178 1.383 . S
H148 C167 0.947 1_556 S
H149 C168 0.946 . S
H150 C170 0.953 . S
H151 C171 0.945 . S
H152 C173 0.952 . S
H153 C174 0.949 . S
H154 C176 0.950 . S
H155 C177 0.948 . S
H156 C179 0.951 . S
H157 C144 0.947 . S
H158 C146 0.952 . S
H159 C147 0.950 . S
N160 C163 1.382 1_556 S
N160 C165 1.363 . S
N161 C163 1.371 . S
N161 C164 1.372 . S
N162 C164 1.361 . S
N162 C165 1.377 1_554 S
C163 N160 1.382 1_554 S
C163 N161 1.371 . S
C163 C166 1.480 . S
C164 N161 1.372 . S
C164 N162 1.361 . S
C164 C172 1.457 . S
C165 N160 1.363 . S
C165 N162 1.377 1_556 S
C165 C178 1.479 . S
C166 C163 1.480 . S
C166 C167 1.383 . S
C166 C171 1.385 . S
C167 H148 0.947 1_554 S
C167 C166 1.383 . S
C167 C168 1.388 . S
C168 H149 0.946 . S
C168 C167 1.388 . S
C168 C169 1.384 . S
C169 C168 1.384 . S
C169 C170 1.377 . S
C170 H150 0.953 . S
C170 C169 1.377 . S
C170 C171 1.369 . S
C171 H151 0.945 . S
C171 C166 1.385 . S
C171 C170 1.369 . S
C172 C164 1.457 . S
C172 C173 1.372 . S
C172 C177 1.364 . S
C173 H152 0.952 . S
C173 C172 1.372 . S
C173 C174 1.389 . S
C174 H153 0.949 . S
C174 C173 1.389 . S
C174 C175 1.387 . S
C175 C174 1.387 . S
C175 C176 1.372 . S
C176 H154 0.950 . S
C176 C175 1.372 . S
C176 C177 1.379 . S
C177 H155 0.948 . S
C177 C172 1.364 . S
C177 C176 1.379 . S
C178 C147 1.383 . S
C178 C165 1.479 . S
C178 C179 1.398 . S
C179 C144 1.382 . S
C179 H156 0.951 . S
C179 C178 1.398 . S
C180 C181 1.384 . S
C180 H193 0.947 . S
C180 C215 1.382 . S
C181 C180 1.384 . S
C181 C182 1.378 . S
C182 C181 1.378 . S
C182 C183 1.378 . S
C182 H194 0.952 . S
C183 C182 1.378 . S
C183 H195 0.950 . S
C183 C214 1.383 . S
H184 C203 0.947 1_556 S
H185 C204 0.946 1_655 S
H186 C206 0.953 . S
H187 C207 0.945 . S
H188 C209 0.952 . S
H189 C210 0.953 . S
H190 C212 0.950 . S
H191 C213 0.948 . S
H192 C215 0.951 . S
H193 C180 0.947 . S
H194 C182 0.952 . S
H195 C183 0.950 . S
N196 C199 1.382 1_556 S
N196 C201 1.363 . S
N197 C199 1.371 . S
N197 C200 1.372 . S
N198 C200 1.361 . S
N198 C201 1.377 1_554 S
C199 N196 1.382 1_554 S
C199 N197 1.371 . S
C199 C202 1.480 . S
C200 N197 1.372 . S
C200 N198 1.361 . S
C200 C208 1.457 . S
C201 N196 1.363 . S
C201 N198 1.377 1_556 S
C201 C214 1.479 . S
C202 C199 1.480 . S
C202 C203 1.383 . S
C202 C207 1.385 . S
C203 H184 0.947 1_554 S
C203 C202 1.383 . S
C203 C204 1.388 . S
C204 H185 0.946 1_455 S
C204 C203 1.388 . S
C204 C205 1.384 . S
C205 C204 1.384 . S
C205 C206 1.377 . S
C206 H186 0.953 . S
C206 C205 1.377 . S
C206 C207 1.369 . S
C207 H187 0.945 . S
C207 C202 1.385 . S
C207 C206 1.369 . S
C208 C200 1.457 . S
C208 C209 1.372 . S
C208 C213 1.364 . S
C209 H188 0.952 . S
C209 C208 1.372 . S
C209 C210 1.389 . S
C210 H189 0.953 . S
C210 C209 1.389 . S
C210 C211 1.387 . S
C211 C210 1.387 . S
C211 C212 1.372 . S
C212 H190 0.950 . S
C212 C211 1.372 . S
C212 C213 1.379 . S
C213 H191 0.948 . S
C213 C208 1.364 . S
C213 C212 1.379 . S
C214 C183 1.383 . S
C214 C201 1.479 . S
C214 C215 1.398 . S
C215 C180 1.382 . S
C215 H192 0.951 . S
C215 C214 1.398 . S
C216 C217 1.384 . S
C216 H229 0.948 1_545 S
C216 C251 1.382 . S
C217 C216 1.384 . S
C217 C218 1.378 . S
C218 C217 1.378 . S
C218 C219 1.378 . S
C218 H230 0.952 . S
C219 C218 1.378 . S
C219 H231 0.950 . S
C219 C250 1.383 . S
H220 C239 0.947 1_556 S
H221 C240 0.948 . S
H222 C242 0.953 . S
H223 C243 0.945 . S
H224 C245 0.947 1_565 S
H225 C246 0.953 . S
H226 C248 0.950 . S
H227 C249 0.948 . S
H228 C251 0.950 1_565 S
H229 C216 0.948 1_565 S
H230 C218 0.952 . S
H231 C219 0.950 . S
N232 C235 1.382 1_556 S
N232 C237 1.363 . S
N233 C235 1.371 . S
N233 C236 1.372 . S
N234 C236 1.361 . S
N234 C237 1.377 1_554 S
C235 N232 1.382 1_554 S
C235 N233 1.371 . S
C235 C238 1.480 . S
C236 N233 1.372 . S
C236 N234 1.361 . S
C236 C244 1.457 . S
C237 N232 1.363 . S
C237 N234 1.377 1_556 S
C237 C250 1.479 . S
C238 C235 1.480 . S
C238 C239 1.383 . S
C238 C243 1.385 . S
C239 H220 0.947 1_554 S
C239 C238 1.383 . S
C239 C240 1.387 1_545 S
C240 H221 0.948 . S
C240 C239 1.387 1_565 S
C240 C241 1.383 1_565 S
C241 C240 1.383 1_545 S
C241 C242 1.377 . S
C242 H222 0.953 . S
C242 C241 1.377 . S
C242 C243 1.369 . S
C243 H223 0.945 . S
C243 C238 1.385 . S
C243 C242 1.369 . S
C244 C236 1.457 . S
C244 C245 1.379 . S
C244 C249 1.364 . S
C245 H224 0.947 1_545 S
C245 C244 1.379 . S
C245 C246 1.387 1_545 S
C246 H225 0.953 . S
C246 C245 1.387 1_565 S
C246 C247 1.384 1_565 S
C247 C246 1.384 1_545 S
C247 C248 1.372 . S
C248 H226 0.950 . S
C248 C247 1.372 . S
C248 C249 1.379 . S
C249 H227 0.948 . S
C249 C244 1.364 . S
C249 C248 1.379 . S
C250 C219 1.383 . S
C250 C237 1.479 . S
C250 C251 1.399 . S
C251 C216 1.382 . S
C251 H228 0.950 1_545 S
C251 C250 1.399 . S
C252 C253 1.384 . S
C252 H265 0.947 . S
C252 C287 1.382 . S
C253 C252 1.384 . S
C253 C254 1.378 . S
C254 C253 1.378 . S
C254 C255 1.378 . S
C254 H266 0.952 . S
C255 C254 1.378 . S
C255 H267 0.950 . S
C255 C286 1.383 . S
H256 C275 0.947 . S
H257 C276 0.946 . S
H258 C278 0.940 1_556 S
H259 C279 0.945 1_556 S
H260 C281 0.952 . S
H261 C282 0.949 . S
H262 C284 0.950 . S
H263 C285 0.948 . S
H264 C287 0.951 . S
H265 C252 0.947 . S
H266 C254 0.952 . S
H267 C255 0.950 . S
N268 C271 1.382 . S
N268 C273 1.363 . S
N269 C271 1.371 1_556 S
N269 C272 1.372 . S
N270 C272 1.361 1_554 S
N270 C273 1.377 . S
C271 N268 1.382 . S
C271 N269 1.371 1_554 S
C271 C274 1.480 . S
C272 N269 1.372 . S
C272 N270 1.361 1_556 S
C272 C280 1.457 . S
C273 N268 1.363 . S
C273 N270 1.377 . S
C273 C286 1.479 . S
C274 C271 1.480 . S
C274 C275 1.383 . S
C274 C279 1.385 . S
C275 H256 0.947 . S
C275 C274 1.383 . S
C275 C276 1.388 . S
C276 H257 0.946 . S
C276 C275 1.388 . S
C276 C277 1.384 . S
C277 C276 1.384 . S
C277 C278 1.377 . S
C278 H258 0.940 1_554 S
C278 C277 1.377 . S
C278 C279 1.369 . S
C279 H259 0.945 1_554 S
C279 C274 1.385 . S
C279 C278 1.369 . S
C280 C272 1.457 . S
C280 C281 1.372 . S
C280 C285 1.364 . S
C281 H260 0.952 . S
C281 C280 1.372 . S
C281 C282 1.389 . S
C282 H261 0.949 . S
C282 C281 1.389 . S
C282 C283 1.387 . S
C283 C282 1.387 . S
C283 C284 1.372 . S
C284 H262 0.950 . S
C284 C283 1.372 . S
C284 C285 1.379 . S
C285 H263 0.948 . S
C285 C280 1.364 . S
C285 C284 1.379 . S
C286 C255 1.383 . S
C286 C273 1.479 . S
C286 C287 1.398 . S
C287 C252 1.382 . S
C287 H264 0.951 . S
C287 C286 1.398 . S
Pr288 C290 2.880 . S
Pr288 O308 2.562 . S
Pr288 O309 2.490 . S
Pr288 O310 2.695 1_565 S
Pr288 O311 2.512 . S
Pr288 O313 2.437 . S
Pr288 O316 2.436 1_455 S
Pr288 O318 2.438 1_565 S
Pr289 C299 2.880 . S
Pr289 O310 2.436 1_655 S
Pr289 O312 2.438 1_545 S
Pr289 O314 2.562 . S
Pr289 O315 2.490 . S
Pr289 O316 2.695 1_545 S
Pr289 O317 2.512 . S
Pr289 O319 2.437 . S
C290 Pr288 2.880 . S
C290 C291 1.491 . S
C290 O308 1.254 . S
C290 O309 1.225 . S
C291 C290 1.491 . S
C291 C292 1.392 . S
C291 C296 1.356 . S
C292 C291 1.392 . S
C292 C293 1.368 . S
C292 H320 0.929 . S
C293 C292 1.368 . S
C293 C294 1.386 . S
C293 H321 0.929 . S
C294 C293 1.386 . S
C294 C295 1.373 . S
C295 C294 1.373 . S
C295 C296 1.409 . S
C295 H322 0.931 1_455 S
C296 C291 1.356 . S
C296 C295 1.409 . S
C296 H323 0.930 1_455 S
C297 O310 1.250 1_565 S
C297 O311 1.285 . S
C298 O312 1.267 . S
C298 O313 1.278 1_655 S
C299 Pr289 2.880 . S
C299 C300 1.491 . S
C299 O314 1.254 . S
C299 O315 1.225 . S
C300 C299 1.491 . S
C300 C301 1.392 . S
C300 C305 1.356 . S
C301 C300 1.392 . S
C301 C302 1.368 . S
C301 H324 0.929 . S
C302 C301 1.368 . S
C302 C303 1.386 . S
C302 H325 0.929 . S
C303 C302 1.386 . S
C303 C304 1.373 . S
C304 C303 1.373 . S
C304 C305 1.409 . S
C304 H326 0.931 1_655 S
C305 C300 1.356 . S
C305 C304 1.409 . S
C305 H327 0.930 1_655 S
C306 O316 1.270 1_545 S
C306 O317 1.248 . S
C307 O318 1.267 . S
C307 O319 1.278 1_455 S
O308 Pr288 2.562 . S
O308 C290 1.254 . S
O309 Pr288 2.490 . S
O309 C290 1.225 . S
O310 Pr288 2.695 1_545 S
O310 Pr289 2.436 1_455 S
O310 C297 1.250 1_545 S
O311 Pr288 2.512 . S
O311 C297 1.285 . S
O312 Pr289 2.438 1_565 S
O312 C298 1.267 . S
O313 Pr288 2.437 . S
O313 C298 1.278 1_455 S
O314 Pr289 2.562 . S
O314 C299 1.254 . S
O315 Pr289 2.490 . S
O315 C299 1.225 . S
O316 Pr288 2.436 1_655 S
O316 Pr289 2.695 1_565 S
O316 C306 1.270 1_565 S
O317 Pr289 2.512 . S
O317 C306 1.248 . S
O318 Pr288 2.438 1_545 S
O318 C307 1.267 . S
O319 Pr289 2.437 . S
O319 C307 1.278 1_655 S
H320 C292 0.929 . S
H321 C293 0.929 . S
H322 C295 0.931 1_655 S
H323 C296 0.930 1_655 S
H324 C301 0.929 . S
H325 C302 0.929 . S
H326 C304 0.931 1_455 S
H327 C305 0.930 1_455 S
Pr328 C330 2.880 . S
Pr328 O348 2.562 . S
Pr328 O349 2.490 . S
Pr328 O350 2.695 . S
Pr328 O351 2.512 . S
Pr328 O353 2.437 . S
Pr328 O356 2.436 1_545 S
Pr328 O358 2.438 . S
Pr329 C339 2.880 . S
Pr329 O350 2.436 1_565 S
Pr329 O352 2.438 . S
Pr329 O354 2.562 . S
Pr329 O355 2.490 . S
Pr329 O356 2.695 . S
Pr329 O357 2.512 . S
Pr329 O359 2.437 . S
C330 Pr328 2.880 . S
C330 C331 1.491 . S
C330 O348 1.254 . S
C330 O349 1.225 . S
C331 C330 1.491 . S
C331 C332 1.392 . S
C331 C336 1.356 . S
C332 C331 1.392 . S
C332 C333 1.368 . S
C332 H360 0.929 . S
C333 C332 1.368 . S
C333 C334 1.386 . S
C333 H361 0.929 . S
C334 C333 1.386 . S
C334 C335 1.373 . S
C335 C334 1.373 . S
C335 C336 1.409 . S
C335 H362 0.931 1_545 S
C336 C331 1.356 . S
C336 C335 1.409 . S
C336 H363 0.930 1_545 S
C337 O350 1.270 . S
C337 O351 1.248 . S
C338 O352 1.267 . S
C338 O353 1.278 1_565 S
C339 Pr329 2.880 . S
C339 C340 1.491 . S
C339 O354 1.254 . S
C339 O355 1.225 . S
C340 C339 1.491 . S
C340 C341 1.392 . S
C340 C345 1.356 . S
C341 C340 1.392 . S
C341 C342 1.368 . S
C341 H364 0.929 . S
C342 C341 1.368 . S
C342 C343 1.386 . S
C342 H365 0.929 . S
C343 C342 1.386 . S
C343 C344 1.373 . S
C344 C343 1.373 . S
C344 C345 1.409 . S
C344 H366 0.931 1_565 S
C345 C340 1.356 . S
C345 C344 1.409 . S
C345 H367 0.930 1_565 S
C346 O356 1.270 . S
C346 O357 1.248 . S
C347 O358 1.267 . S
C347 O359 1.278 1_545 S
O348 Pr328 2.562 . S
O348 C330 1.254 . S
O349 Pr328 2.490 . S
O349 C330 1.225 . S
O350 Pr328 2.695 . S
O350 Pr329 2.436 1_545 S
O350 C337 1.270 . S
O351 Pr328 2.512 . S
O351 C337 1.248 . S
O352 Pr329 2.438 . S
O352 C338 1.267 . S
O353 Pr328 2.437 . S
O353 C338 1.278 1_545 S
O354 Pr329 2.562 . S
O354 C339 1.254 . S
O355 Pr329 2.490 . S
O355 C339 1.225 . S
O356 Pr328 2.436 1_565 S
O356 Pr329 2.695 . S
O356 C346 1.270 . S
O357 Pr329 2.512 . S
O357 C346 1.248 . S
O358 Pr328 2.438 . S
O358 C347 1.267 . S
O359 Pr329 2.437 . S
O359 C347 1.278 1_565 S
H360 C332 0.929 . S
H361 C333 0.929 . S
H362 C335 0.931 1_565 S
H363 C336 0.930 1_565 S
H364 C341 0.929 . S
H365 C342 0.929 . S
H366 C344 0.931 1_545 S
H367 C345 0.930 1_545 S
Pr368 C370 2.880 . S
Pr368 O388 2.562 . S
Pr368 O389 2.490 . S
Pr368 O390 2.695 . S
Pr368 O391 2.512 . S
Pr368 O393 2.437 . S
Pr368 O396 2.436 . S
Pr368 O398 2.438 . S
Pr369 C379 2.880 . S
Pr369 O390 2.436 . S
Pr369 O392 2.438 . S
Pr369 O394 2.562 . S
Pr369 O395 2.490 . S
Pr369 O396 2.695 . S
Pr369 O397 2.512 . S
Pr369 O399 2.437 . S
C370 Pr368 2.880 . S
C370 C371 1.491 . S
C370 O388 1.254 . S
C370 O389 1.225 . S
C371 C370 1.491 . S
C371 C372 1.392 . S
C371 C376 1.356 . S
C372 C371 1.392 . S
C372 C373 1.368 . S
C372 H400 0.929 . S
C373 C372 1.368 . S
C373 C374 1.386 . S
C373 H401 0.929 . S
C374 C373 1.386 . S
C374 C375 1.373 . S
C375 C374 1.373 . S
C375 C376 1.409 . S
C375 H402 0.931 . S
C376 C371 1.356 . S
C376 C375 1.409 . S
C376 H403 0.930 . S
C377 O390 1.270 . S
C377 O391 1.248 . S
C378 O392 1.267 . S
C378 O393 1.278 . S
C379 Pr369 2.880 . S
C379 C380 1.491 . S
C379 O394 1.254 . S
C379 O395 1.225 . S
C380 C379 1.491 . S
C380 C381 1.392 . S
C380 C385 1.356 . S
C381 C380 1.392 . S
C381 C382 1.368 . S
C381 H404 0.929 . S
C382 C381 1.368 . S
C382 C383 1.386 . S
C382 H405 0.929 . S
C383 C382 1.386 . S
C383 C384 1.373 . S
C384 C383 1.373 . S
C384 C385 1.409 . S
C384 H406 0.931 . S
C385 C380 1.356 . S
C385 C384 1.409 . S
C385 H407 0.930 . S
C386 O396 1.270 . S
C386 O397 1.248 . S
C387 O398 1.267 . S
C387 O399 1.278 . S
O388 Pr368 2.562 . S
O388 C370 1.254 . S
O389 Pr368 2.490 . S
O389 C370 1.225 . S
O390 Pr368 2.695 . S
O390 Pr369 2.436 . S
O390 C377 1.270 . S
O391 Pr368 2.512 . S
O391 C377 1.248 . S
O392 Pr369 2.438 . S
O392 C378 1.267 . S
O393 Pr368 2.437 . S
O393 C378 1.278 . S
O394 Pr369 2.562 . S
O394 C379 1.254 . S
O395 Pr369 2.490 . S
O395 C379 1.225 . S
O396 Pr368 2.436 . S
O396 Pr369 2.695 . S
O396 C386 1.270 . S
O397 Pr369 2.512 . S
O397 C386 1.248 . S
O398 Pr368 2.438 . S
O398 C387 1.267 . S
O399 Pr369 2.437 . S
O399 C387 1.278 . S
H400 C372 0.929 . S
H401 C373 0.929 . S
H402 C375 0.931 . S
H403 C376 0.930 . S
H404 C381 0.929 . S
H405 C382 0.929 . S
H406 C384 0.931 . S
H407 C385 0.930 . S
Pr408 C410 2.880 . S
Pr408 O428 2.562 . S
Pr408 O429 2.490 . S
Pr408 O430 2.695 1_655 S
Pr408 O431 2.512 . S
Pr408 O433 2.437 . S
Pr408 O436 2.436 . S
Pr408 O438 2.438 1_655 S
Pr409 C419 2.880 . S
Pr409 O430 2.436 . S
Pr409 O432 2.438 1_455 S
Pr409 O434 2.562 . S
Pr409 O435 2.490 . S
Pr409 O436 2.695 1_455 S
Pr409 O437 2.512 . S
Pr409 O439 2.437 . S
C410 Pr408 2.880 . S
C410 C411 1.491 . S
C410 O428 1.254 . S
C410 O429 1.225 . S
C411 C410 1.491 . S
C411 C412 1.392 . S
C411 C416 1.356 . S
C412 C411 1.392 . S
C412 C413 1.368 . S
C412 H440 0.929 . S
C413 C412 1.368 . S
C413 C414 1.386 . S
C413 H441 0.929 . S
C414 C413 1.386 . S
C414 C415 1.373 . S
C415 C414 1.373 . S
C415 C416 1.409 . S
C415 H442 0.931 . S
C416 C411 1.356 . S
C416 C415 1.409 . S
C416 H443 0.930 . S
C417 O430 1.261 1_655 S
C417 O431 1.264 . S
C418 O432 1.267 . S
C418 O433 1.278 . S
C419 Pr409 2.880 . S
C419 C420 1.491 . S
C419 O434 1.254 . S
C419 O435 1.225 . S
C420 C419 1.491 . S
C420 C421 1.392 . S
C420 C425 1.356 . S
C421 C420 1.392 . S
C421 C422 1.368 . S
C421 H444 0.929 . S
C422 C421 1.368 . S
C422 C423 1.386 . S
C422 H445 0.929 . S
C423 C422 1.386 . S
C423 C424 1.373 . S
C424 C423 1.373 . S
C424 C425 1.409 . S
C424 H446 0.931 . S
C425 C420 1.356 . S
C425 C424 1.409 . S
C425 H447 0.930 . S
C426 O436 1.256 1_455 S
C426 O437 1.274 . S
C427 O438 1.267 . S
C427 O439 1.278 . S
O428 Pr408 2.562 . S
O428 C410 1.254 . S
O429 Pr408 2.490 . S
O429 C410 1.225 . S
O430 Pr408 2.695 1_455 S
O430 Pr409 2.436 . S
O430 C417 1.261 1_455 S
O431 Pr408 2.512 . S
O431 C417 1.264 . S
O432 Pr409 2.438 1_655 S
O432 C418 1.267 . S
O433 Pr408 2.437 . S
O433 C418 1.278 . S
O434 Pr409 2.562 . S
O434 C419 1.254 . S
O435 Pr409 2.490 . S
O435 C419 1.225 . S
O436 Pr408 2.436 . S
O436 Pr409 2.695 1_655 S
O436 C426 1.256 1_655 S
O437 Pr409 2.512 . S
O437 C426 1.274 . S
O438 Pr408 2.438 1_455 S
O438 C427 1.267 . S
O439 Pr409 2.437 . S
O439 C427 1.278 . S
H440 C412 0.929 . S
H441 C413 0.929 . S
H442 C415 0.931 . S
H443 C416 0.930 . S
H444 C421 0.929 . S
H445 C422 0.929 . S
H446 C424 0.931 . S
H447 C425 0.930 . S
C448 C449 1.354 . S
C448 C450 1.327 . S
C448 H473 0.950 . S
C449 C448 1.354 . S
C449 C465 1.344 1_545 S
C450 C448 1.327 . S
C450 C469 1.443 . S
C450 H474 0.950 . S
C451 C468 1.574 . S
C451 C470 1.346 1_565 S
C451 H475 0.949 . S
H452 C456 0.949 . S
C453 C454 1.302 1_565 S
C453 C455 1.327 . S
C453 H476 0.950 . S
C454 C453 1.302 1_545 S
C454 C466 1.397 . S
C455 C453 1.327 . S
C455 C471 1.394 1_565 S
C455 H477 0.950 . S
C456 H452 0.949 . S
C456 C464 1.574 . S
C456 C472 1.401 . S
H457 C465 0.950 . S
H458 C463 0.950 . S
H459 C464 0.949 . S
H460 C466 0.950 . S
H461 C467 0.950 . S
H462 C468 0.949 . S
C463 H458 0.950 . S
C463 C465 1.327 . S
C463 C469 1.414 1_565 S
C464 C456 1.574 . S
C464 H459 0.949 . S
C464 C470 1.391 . S
C465 C449 1.344 1_565 S
C465 H457 0.950 . S
C465 C463 1.327 . S
C466 C454 1.397 . S
C466 H460 0.950 . S
C466 C467 1.327 . S
C467 H461 0.950 . S
C467 C466 1.327 . S
C467 C471 1.465 . S
C468 C451 1.574 . S
C468 H462 0.949 . S
C468 C472 1.336 1_565 S
C469 C450 1.443 . S
C469 C463 1.414 1_545 S
C469 C470 1.523 . S
C470 C451 1.346 1_545 S
C470 C464 1.391 . S
C470 C469 1.523 . S
C471 C455 1.394 1_545 S
C471 C467 1.465 . S
C471 C472 1.523 . S
C472 C456 1.401 . S
C472 C468 1.336 1_545 S
C472 C471 1.523 . S
H473 C448 0.950 . S
H474 C450 0.950 . S
H475 C451 0.949 . S
H476 C453 0.950 . S
H477 C455 0.950 . S
C478 C479 1.349 . S
C478 C480 1.327 . S
C478 H503 0.950 . S
C479 C478 1.349 . S
C479 C495 1.349 . S
C480 C478 1.327 . S
C480 C499 1.429 . S
C480 H504 0.950 . S
C481 C498 1.574 . S
C481 C500 1.368 . S
C481 H505 0.949 . S
H482 C486 0.949 . S
C483 C484 1.349 . S
C483 C485 1.327 . S
C483 H506 0.950 . S
C484 C483 1.349 . S
C484 C496 1.349 . S
C485 C483 1.327 . S
C485 C501 1.429 . S
C485 H507 0.950 . S
C486 H482 0.949 . S
C486 C494 1.574 . S
C486 C502 1.368 . S
H487 C495 0.950 . S
H488 C493 0.950 . S
H489 C494 0.949 . S
H490 C496 0.950 . S
H491 C497 0.950 . S
H492 C498 0.949 . S
C493 H488 0.950 . S
C493 C495 1.327 . S
C493 C499 1.429 . S
C494 C486 1.574 . S
C494 H489 0.949 . S
C494 C500 1.368 . S
C495 C479 1.349 . S
C495 H487 0.950 . S
C495 C493 1.327 . S
C496 C484 1.349 . S
C496 H490 0.950 . S
C496 C497 1.327 . S
C497 H491 0.950 . S
C497 C496 1.327 . S
C497 C501 1.429 . S
C498 C481 1.574 . S
C498 H492 0.949 . S
C498 C502 1.368 . S
C499 C480 1.429 . S
C499 C493 1.429 . S
C499 C500 1.523 . S
C500 C481 1.368 . S
C500 C494 1.368 . S
C500 C499 1.523 . S
C501 C485 1.429 . S
C501 C497 1.429 . S
C501 C502 1.523 . S
C502 C486 1.368 . S
C502 C498 1.368 . S
C502 C501 1.523 . S
H503 C478 0.950 . S
H504 C480 0.950 . S
H505 C481 0.949 . S
H506 C483 0.950 . S
H507 C485 0.950 . S
C508 C509 1.349 . S
C508 C510 1.327 . S
C508 H533 0.950 . S
C509 C508 1.349 . S
C509 C525 1.349 . S
C510 C508 1.327 . S
C510 C529 1.429 . S
C510 H534 0.950 . S
C511 C528 1.574 . S
C511 C530 1.368 . S
C511 H535 0.949 . S
H512 C516 0.949 . S
C513 C514 1.349 . S
C513 C515 1.327 . S
C513 H536 0.950 . S
C514 C513 1.349 . S
C514 C526 1.349 . S
C515 C513 1.327 . S
C515 C531 1.429 . S
C515 H537 0.950 . S
C516 H512 0.949 . S
C516 C524 1.574 . S
C516 C532 1.368 . S
H517 C525 0.950 . S
H518 C523 0.950 . S
H519 C524 0.949 . S
H520 C526 0.950 . S
H521 C527 0.950 . S
H522 C528 0.949 . S
C523 H518 0.950 . S
C523 C525 1.327 . S
C523 C529 1.429 . S
C524 C516 1.574 . S
C524 H519 0.949 . S
C524 C530 1.368 . S
C525 C509 1.349 . S
C525 H517 0.950 . S
C525 C523 1.327 . S
C526 C514 1.349 . S
C526 H520 0.950 . S
C526 C527 1.327 . S
C527 H521 0.950 . S
C527 C526 1.327 . S
C527 C531 1.429 . S
C528 C511 1.574 . S
C528 H522 0.949 . S
C528 C532 1.368 . S
C529 C510 1.429 . S
C529 C523 1.429 . S
C529 C530 1.523 . S
C530 C511 1.368 . S
C530 C524 1.368 . S
C530 C529 1.523 . S
C531 C515 1.429 . S
C531 C527 1.429 . S
C531 C532 1.523 . S
C532 C516 1.368 . S
C532 C528 1.368 . S
C532 C531 1.523 . S
H533 C508 0.950 . S
H534 C510 0.950 . S
H535 C511 0.949 . S
H536 C513 0.950 . S
H537 C515 0.950 . S
C538 C539 1.349 1_655 S
C538 C540 1.327 . S
C538 H563 0.950 . S
C539 C538 1.349 1_455 S
C539 C555 1.349 . S
C540 C538 1.327 . S
C540 C559 1.429 1_655 S
C540 H564 0.950 . S
C541 C558 1.574 . S
C541 C560 1.368 . S
C541 H565 0.949 . S
H542 C546 0.949 . S
C543 C544 1.349 . S
C543 C545 1.327 . S
C543 H566 0.950 . S
C544 C543 1.349 . S
C544 C556 1.349 1_455 S
C545 C543 1.327 . S
C545 C561 1.429 . S
C545 H567 0.950 . S
C546 H542 0.949 . S
C546 C554 1.574 . S
C546 C562 1.368 1_655 S
H547 C555 0.950 . S
H548 C553 0.950 . S
H549 C554 0.949 . S
H550 C556 0.950 . S
H551 C557 0.950 . S
H552 C558 0.949 . S
C553 H548 0.950 . S
C553 C555 1.327 . S
C553 C559 1.429 . S
C554 C546 1.574 . S
C554 H549 0.949 . S
C554 C560 1.368 1_655 S
C555 C539 1.349 . S
C555 H547 0.950 . S
C555 C553 1.327 . S
C556 C544 1.349 1_655 S
C556 H550 0.950 . S
C556 C557 1.327 . S
C557 H551 0.950 . S
C557 C556 1.327 . S
C557 C561 1.429 1_655 S
C558 C541 1.574 . S
C558 H552 0.949 . S
C558 C562 1.368 . S
C559 C540 1.429 1_455 S
C559 C553 1.429 . S
C559 C560 1.523 . S
C560 C541 1.368 . S
C560 C554 1.368 1_455 S
C560 C559 1.523 . S
C561 C545 1.429 . S
C561 C557 1.429 1_455 S
C561 C562 1.523 . S
C562 C546 1.368 1_455 S
C562 C558 1.368 . S
C562 C561 1.523 . S
H563 C538 0.950 . S
H564 C540 0.950 . S
H565 C541 0.949 . S
H566 C543 0.950 . S
H567 C545 0.950 . S
C568 C569 1.354 1_545 S
C568 C570 1.327 . S
C568 H593 0.950 . S
C569 C568 1.354 1_565 S
C569 C585 1.344 . S
C570 C568 1.327 . S
C570 C589 1.423 1_545 S
C570 H594 0.950 . S
C571 C588 1.574 . S
C571 C590 1.380 1_556 S
C571 H595 0.949 1_556 S
H572 C576 0.949 . S
C573 C574 1.385 . S
C573 C575 1.327 . S
C573 H596 0.950 . S
C574 C573 1.385 . S
C574 C586 1.313 1_565 S
C575 C573 1.327 . S
C575 C591 1.454 . S
C575 H597 0.950 . S
C576 H572 0.949 . S
C576 C584 1.574 1_556 S
C576 C592 1.347 1_545 S
H577 C585 0.950 . S
H578 C583 0.950 . S
H579 C584 0.949 . S
H580 C586 0.950 . S
H581 C587 0.950 . S
H582 C588 0.949 . S
C583 H578 0.950 . S
C583 C585 1.327 . S
C583 C589 1.434 . S
C584 C576 1.574 1_554 S
C584 H579 0.949 . S
C584 C590 1.357 1_545 S
C585 C569 1.344 . S
C585 H577 0.950 . S
C585 C583 1.327 . S
C586 C574 1.313 1_545 S
C586 H580 0.950 . S
C586 C587 1.327 . S
C587 H581 0.950 . S
C587 C586 1.327 . S
C587 C591 1.404 1_545 S
C588 C571 1.574 . S
C588 H582 0.949 . S
C588 C592 1.390 . S
C589 C570 1.423 1_565 S
C589 C583 1.434 . S
C589 C590 1.523 . S
C590 C571 1.380 1_554 S
C590 C584 1.357 1_565 S
C590 C589 1.523 . S
C591 C575 1.454 . S
C591 C587 1.404 1_565 S
C591 C592 1.523 . S
C592 C576 1.347 1_565 S
C592 C588 1.390 . S
C592 C591 1.523 . S
H593 C568 0.950 . S
H594 C570 0.950 . S
H595 C571 0.949 1_554 S
H596 C573 0.950 . S
H597 C575 0.950 . S
C598 C599 1.349 . S
C598 C600 1.327 . S
C598 H623 0.950 . S
C599 C598 1.349 . S
C599 C615 1.349 . S
C600 C598 1.327 . S
C600 C619 1.429 . S
C600 H624 0.950 . S
C601 C618 1.574 . S
C601 C620 1.368 1_556 S
C601 H625 0.949 . S
H602 C606 0.949 . S
C603 C604 1.349 . S
C603 C605 1.327 . S
C603 H626 0.950 . S
C604 C603 1.349 . S
C604 C616 1.349 . S
C605 C603 1.327 . S
C605 C621 1.429 . S
C605 H627 0.950 . S
C606 H602 0.949 . S
C606 C614 1.574 1_556 S
C606 C622 1.368 . S
H607 C615 0.950 . S
H608 C613 0.950 . S
H609 C614 0.949 . S
H610 C616 0.950 . S
H611 C617 0.950 . S
H612 C618 0.949 . S
C613 H608 0.950 . S
C613 C615 1.327 . S
C613 C619 1.429 . S
C614 C606 1.574 1_554 S
C614 H609 0.949 . S
C614 C620 1.368 . S
C615 C599 1.349 . S
C615 H607 0.950 . S
C615 C613 1.327 . S
C616 C604 1.349 . S
C616 H610 0.950 . S
C616 C617 1.327 . S
C617 H611 0.950 . S
C617 C616 1.327 . S
C617 C621 1.429 . S
C618 C601 1.574 . S
C618 H612 0.949 . S
C618 C622 1.368 . S
C619 C600 1.429 . S
C619 C613 1.429 . S
C619 C620 1.523 . S
C620 C601 1.368 1_554 S
C620 C614 1.368 . S
C620 C619 1.523 . S
C621 C605 1.429 . S
C621 C617 1.429 . S
C621 C622 1.523 . S
C622 C606 1.368 . S
C622 C618 1.368 . S
C622 C621 1.523 . S
H623 C598 0.950 . S
H624 C600 0.950 . S
H625 C601 0.949 . S
H626 C603 0.950 . S
H627 C605 0.950 . S
C628 C629 1.349 . S
C628 C630 1.327 . S
C628 H653 0.950 . S
C629 C628 1.349 . S
C629 C645 1.349 . S
C630 C628 1.327 . S
C630 C649 1.429 . S
C630 H654 0.950 . S
C631 C648 1.574 . S
C631 C650 1.368 1_556 S
C631 H655 0.949 1_556 S
H632 C636 0.949 . S
C633 C634 1.349 . S
C633 C635 1.327 . S
C633 H656 0.950 . S
C634 C633 1.349 . S
C634 C646 1.349 . S
C635 C633 1.327 . S
C635 C651 1.429 . S
C635 H657 0.950 . S
C636 H632 0.949 . S
C636 C644 1.574 1_556 S
C636 C652 1.368 . S
H637 C645 0.950 . S
H638 C643 0.950 . S
H639 C644 0.949 . S
H640 C646 0.950 . S
H641 C647 0.950 . S
H642 C648 0.949 . S
C643 H638 0.950 . S
C643 C645 1.327 . S
C643 C649 1.429 . S
C644 C636 1.574 1_554 S
C644 H639 0.949 . S
C644 C650 1.368 . S
C645 C629 1.349 . S
C645 H637 0.950 . S
C645 C643 1.327 . S
C646 C634 1.349 . S
C646 H640 0.950 . S
C646 C647 1.327 . S
C647 H641 0.950 . S
C647 C646 1.327 . S
C647 C651 1.429 . S
C648 C631 1.574 . S
C648 H642 0.949 . S
C648 C652 1.368 . S
C649 C630 1.429 . S
C649 C643 1.429 . S
C649 C650 1.523 . S
C650 C631 1.368 1_554 S
C650 C644 1.368 . S
C650 C649 1.523 . S
C651 C635 1.429 . S
C651 C647 1.429 . S
C651 C652 1.523 . S
C652 C636 1.368 . S
C652 C648 1.368 . S
C652 C651 1.523 . S
H653 C628 0.950 . S
H654 C630 0.950 . S
H655 C631 0.949 1_554 S
H656 C633 0.950 . S
H657 C635 0.950 . S
C658 C659 1.349 . S
C658 C660 1.327 . S
C658 H683 0.950 . S
C659 C658 1.349 . S
C659 C675 1.349 1_655 S
C660 C658 1.327 . S
C660 C679 1.429 . S
C660 H684 0.950 . S
C661 C678 1.574 . S
C661 C680 1.368 1_456 S
C661 H685 0.949 1_556 S
H662 C666 0.949 . S
C663 C664 1.349 1_455 S
C663 C665 1.327 . S
C663 H686 0.950 . S
C664 C663 1.349 1_655 S
C664 C676 1.349 . S
C665 C663 1.327 . S
C665 C681 1.429 1_455 S
C665 H687 0.950 . S
C666 H662 0.949 . S
C666 C674 1.574 1_556 S
C666 C682 1.368 . S
H667 C675 0.950 . S
H668 C673 0.950 . S
H669 C674 0.949 . S
H670 C676 0.950 . S
H671 C677 0.950 . S
H672 C678 0.949 . S
C673 H668 0.950 . S
C673 C675 1.327 . S
C673 C679 1.429 1_455 S
C674 C666 1.574 1_554 S
C674 H669 0.949 . S
C674 C680 1.368 . S
C675 C659 1.349 1_455 S
C675 H667 0.950 . S
C675 C673 1.327 . S
C676 C664 1.349 . S
C676 H670 0.950 . S
C676 C677 1.327 . S
C677 H671 0.950 . S
C677 C676 1.327 . S
C677 C681 1.429 . S
C678 C661 1.574 . S
C678 H672 0.949 . S
C678 C682 1.368 1_455 S
C679 C660 1.429 . S
C679 C673 1.429 1_655 S
C679 C680 1.523 . S
C680 C661 1.368 1_654 S
C680 C674 1.368 . S
C680 C679 1.523 . S
C681 C665 1.429 1_655 S
C681 C677 1.429 . S
C681 C682 1.523 . S
C682 C666 1.368 . S
C682 C678 1.368 1_655 S
C682 C681 1.523 . S
H683 C658 0.950 . S
H684 C660 0.950 . S
H685 C661 0.949 1_554 S
H686 C663 0.950 . S
H687 C665 0.950 . S
C688 C689 1.349 . S
C688 C690 1.319 1_455 S
C688 H713 0.950 . S
C689 C688 1.349 . S
C689 C705 1.349 . S
C690 C688 1.319 1_655 S
C690 C709 1.434 . S
C690 H714 0.954 . S
C691 C708 1.574 . S
C691 C710 1.368 . S
C691 H715 0.949 . S
H692 C696 0.949 . S
C693 C694 1.349 . S
C693 C695 1.327 . S
C693 H716 0.950 . S
C694 C693 1.349 . S
C694 C706 1.349 . S
C695 C693 1.327 . S
C695 C711 1.429 . S
C695 H717 0.950 . S
C696 H692 0.949 . S
C696 C704 1.574 . S
C696 C712 1.368 . S
H697 C705 0.950 . S
H698 C703 0.959 . S
H699 C704 0.949 . S
H700 C706 0.950 . S
H701 C707 0.950 . S
H702 C708 0.949 . S
C703 H698 0.959 . S
C703 C705 1.315 1_655 S
C703 C709 1.437 . S
C704 C696 1.574 . S
C704 H699 0.949 . S
C704 C710 1.368 . S
C705 C689 1.349 . S
C705 H697 0.950 . S
C705 C703 1.315 1_455 S
C706 C694 1.349 . S
C706 H700 0.950 . S
C706 C707 1.327 . S
C707 H701 0.950 . S
C707 C706 1.327 . S
C707 C711 1.429 . S
C708 C691 1.574 . S
C708 H702 0.949 . S
C708 C712 1.368 . S
C709 C690 1.434 . S
C709 C703 1.437 . S
C709 C710 1.523 . S
C710 C691 1.368 . S
C710 C704 1.368 . S
C710 C709 1.523 . S
C711 C695 1.429 . S
C711 C707 1.429 . S
C711 C712 1.523 . S
C712 C696 1.368 . S
C712 C708 1.368 . S
C712 C711 1.523 . S
H713 C688 0.950 . S
H714 C690 0.954 . S
H715 C691 0.949 . S
H716 C693 0.950 . S
H717 C695 0.950 . S
C718 C719 1.349 1_565 S
C718 C720 1.327 . S
C718 H743 0.950 . S
C719 C718 1.349 1_545 S
C719 C735 1.349 . S
C720 C718 1.327 . S
C720 C739 1.429 . S
C720 H744 0.950 . S
C721 C738 1.574 . S
C721 C740 1.368 . S
C721 H745 0.969 . S
H722 C726 0.949 . S
C723 C724 1.349 . S
C723 C725 1.327 . S
C723 H746 0.950 . S
C724 C723 1.349 . S
C724 C736 1.349 . S
C725 C723 1.327 . S
C725 C741 1.429 . S
C725 H747 0.950 . S
C726 H722 0.949 . S
C726 C734 1.574 . S
C726 C742 1.368 . S
H727 C735 0.950 . S
H728 C733 0.950 . S
H729 C734 0.949 . S
H730 C736 0.950 . S
H731 C737 0.950 . S
H732 C738 0.949 . S
C733 H728 0.950 . S
C733 C735 1.327 . S
C733 C739 1.429 1_545 S
C734 C726 1.574 . S
C734 H729 0.949 . S
C734 C740 1.368 . S
C735 C719 1.349 . S
C735 H727 0.950 . S
C735 C733 1.327 . S
C736 C724 1.349 . S
C736 H730 0.950 . S
C736 C737 1.327 . S
C737 H731 0.950 . S
C737 C736 1.327 . S
C737 C741 1.429 . S
C738 C721 1.574 . S
C738 H732 0.949 . S
C738 C742 1.368 . S
C739 C720 1.429 . S
C739 C733 1.429 1_565 S
C739 C740 1.523 . S
C740 C721 1.368 . S
C740 C734 1.368 . S
C740 C739 1.523 . S
C741 C725 1.429 . S
C741 C737 1.429 . S
C741 C742 1.523 . S
C742 C726 1.368 . S
C742 C738 1.368 . S
C742 C741 1.523 . S
H743 C718 0.950 . S
H744 C720 0.950 . S
H745 C721 0.969 . S
H746 C723 0.950 . S
H747 C725 0.950 . S
C748 C749 1.349 . S
C748 C750 1.327 . S
C748 H773 0.950 . S
C749 C748 1.349 . S
C749 C765 1.349 . S
C750 C748 1.327 . S
C750 C769 1.429 . S
C750 H774 0.950 . S
C751 C768 1.574 . S
C751 C770 1.368 . S
C751 H775 0.949 . S
H752 C756 0.949 . S
C753 C754 1.349 . S
C753 C755 1.327 . S
C753 H776 0.950 . S
C754 C753 1.349 . S
C754 C766 1.349 . S
C755 C753 1.327 . S
C755 C771 1.429 . S
C755 H777 0.950 . S
C756 H752 0.949 . S
C756 C764 1.574 . S
C756 C772 1.368 . S
H757 C765 0.950 . S
H758 C763 0.950 . S
H759 C764 0.949 . S
H760 C766 0.950 . S
H761 C767 0.950 . S
H762 C768 0.949 . S
C763 H758 0.950 . S
C763 C765 1.327 . S
C763 C769 1.429 . S
C764 C756 1.574 . S
C764 H759 0.949 . S
C764 C770 1.368 . S
C765 C749 1.349 . S
C765 H757 0.950 . S
C765 C763 1.327 . S
C766 C754 1.349 . S
C766 H760 0.950 . S
C766 C767 1.327 . S
C767 H761 0.950 . S
C767 C766 1.327 . S
C767 C771 1.429 . S
C768 C751 1.574 . S
C768 H762 0.949 . S
C768 C772 1.368 . S
C769 C750 1.429 . S
C769 C763 1.429 . S
C769 C770 1.523 . S
C770 C751 1.368 . S
C770 C764 1.368 . S
C770 C769 1.523 . S
C771 C755 1.429 . S
C771 C767 1.429 . S
C771 C772 1.523 . S
C772 C756 1.368 . S
C772 C768 1.368 . S
C772 C771 1.523 . S
H773 C748 0.950 . S
H774 C750 0.950 . S
H775 C751 0.949 . S
H776 C753 0.950 . S
H777 C755 0.950 . S
C778 C779 1.349 . S
C778 C780 1.327 . S
C778 H803 0.950 . S
C779 C778 1.349 . S
C779 C795 1.349 . S
C780 C778 1.327 . S
C780 C799 1.429 . S
C780 H804 0.950 . S
C781 C798 1.574 . S
C781 C800 1.368 . S
C781 H805 0.949 . S
H782 C786 0.949 . S
C783 C784 1.349 . S
C783 C785 1.327 . S
C783 H806 0.950 . S
C784 C783 1.349 . S
C784 C796 1.349 . S
C785 C783 1.327 . S
C785 C801 1.429 . S
C785 H807 0.950 . S
C786 H782 0.949 . S
C786 C794 1.574 . S
C786 C802 1.368 . S
H787 C795 0.950 . S
H788 C793 0.950 . S
H789 C794 0.949 . S
H790 C796 0.950 . S
H791 C797 0.950 . S
H792 C798 0.949 . S
C793 H788 0.950 . S
C793 C795 1.327 . S
C793 C799 1.429 . S
C794 C786 1.574 . S
C794 H789 0.949 . S
C794 C800 1.368 . S
C795 C779 1.349 . S
C795 H787 0.950 . S
C795 C793 1.327 . S
C796 C784 1.349 . S
C796 H790 0.950 . S
C796 C797 1.327 . S
C797 H791 0.950 . S
C797 C796 1.327 . S
C797 C801 1.429 . S
C798 C781 1.574 . S
C798 H792 0.949 . S
C798 C802 1.368 . S
C799 C780 1.429 . S
C799 C793 1.429 . S
C799 C800 1.523 . S
C800 C781 1.368 . S
C800 C794 1.368 . S
C800 C799 1.523 . S
C801 C785 1.429 . S
C801 C797 1.429 . S
C801 C802 1.523 . S
C802 C786 1.368 . S
C802 C798 1.368 . S
C802 C801 1.523 . S
H803 C778 0.950 . S
H804 C780 0.950 . S
H805 C781 0.949 . S
H806 C783 0.950 . S
H807 C785 0.950 . S
C808 C809 1.349 1_455 S
C808 C810 1.327 . S
C808 H833 0.950 . S
C809 C808 1.349 1_655 S
C809 C825 1.349 . S
C810 C808 1.327 . S
C810 C829 1.429 . S
C810 H834 0.950 . S
C811 C828 1.574 . S
C811 C830 1.368 1_556 S
C811 H835 0.949 1_455 S
H812 C816 0.949 . S
C813 C814 1.349 . S
C813 C815 1.327 . S
C813 H836 0.950 . S
C814 C813 1.349 . S
C814 C826 1.349 . S
C815 C813 1.327 . S
C815 C831 1.429 . S
C815 H837 0.950 . S
C816 H812 0.949 . S
C816 C824 1.574 . S
C816 C832 1.368 1_554 S
H817 C825 0.950 . S
H818 C823 0.950 1_556 S
H819 C824 0.949 . S
H820 C826 0.950 . S
H821 C827 0.950 . S
H822 C828 0.949 . S
C823 H818 0.950 1_554 S
C823 C825 1.327 . S
C823 C829 1.429 1_655 S
C824 C816 1.574 . S
C824 H819 0.949 . S
C824 C830 1.368 . S
C825 C809 1.349 . S
C825 H817 0.950 . S
C825 C823 1.327 . S
C826 C814 1.349 . S
C826 H820 0.950 . S
C826 C827 1.327 . S
C827 H821 0.950 . S
C827 C826 1.327 . S
C827 C831 1.429 . S
C828 C811 1.574 . S
C828 H822 0.949 . S
C828 C832 1.368 . S
C829 C810 1.429 . S
C829 C823 1.429 1_455 S
C829 C830 1.523 . S
C830 C811 1.368 1_554 S
C830 C824 1.368 . S
C830 C829 1.523 . S
C831 C815 1.429 . S
C831 C827 1.429 . S
C831 C832 1.523 . S
C832 C816 1.368 1_556 S
C832 C828 1.368 . S
C832 C831 1.523 . S
H833 C808 0.950 . S
H834 C810 0.950 . S
H835 C811 0.949 1_655 S
H836 C813 0.950 . S
H837 C815 0.950 . S
C838 C839 1.349 1_545 S
C838 C840 1.327 . S
C838 H863 0.950 . S
C839 C838 1.349 1_565 S
C839 C855 1.349 . S
C840 C838 1.327 . S
C840 C859 1.429 . S
C840 H864 0.950 1_554 S
C841 C858 1.579 . S
C841 C860 1.368 . S
C841 H865 0.949 1_545 S
H842 C846 0.949 . S
C843 C844 1.349 . S
C843 C845 1.327 . S
C843 H866 0.950 . S
C844 C843 1.349 . S
C844 C856 1.349 . S
C845 C843 1.327 . S
C845 C861 1.429 . S
C845 H867 0.950 . S
C846 H842 0.949 . S
C846 C854 1.574 . S
C846 C862 1.368 . S
H847 C855 0.950 . S
H848 C853 0.950 . S
H849 C854 0.949 . S
H850 C856 0.950 . S
H851 C857 0.950 . S
H852 C858 0.964 . S
C853 H848 0.950 . S
C853 C855 1.327 . S
C853 C859 1.429 1_565 S
C854 C846 1.574 . S
C854 H849 0.949 . S
C854 C860 1.368 1_556 S
C855 C839 1.349 . S
C855 H847 0.950 . S
C855 C853 1.327 . S
C856 C844 1.349 . S
C856 H850 0.950 . S
C856 C857 1.327 . S
C857 H851 0.950 . S
C857 C856 1.327 . S
C857 C861 1.429 . S
C858 C841 1.579 . S
C858 H852 0.964 . S
C858 C862 1.360 1_554 S
C859 C840 1.429 . S
C859 C853 1.429 1_545 S
C859 C860 1.523 . S
C860 C841 1.368 . S
C860 C854 1.368 1_554 S
C860 C859 1.523 . S
C861 C845 1.429 . S
C861 C857 1.429 . S
C861 C862 1.523 . S
C862 C846 1.368 . S
C862 C858 1.360 1_556 S
C862 C861 1.523 . S
H863 C838 0.950 . S
H864 C840 0.950 1_556 S
H865 C841 0.949 1_565 S
H866 C843 0.950 . S
H867 C845 0.950 . S
C868 C869 1.349 . S
C868 C870 1.327 . S
C868 H893 0.950 . S
C869 C868 1.349 . S
C869 C885 1.349 . S
C870 C868 1.327 . S
C870 C889 1.429 . S
C870 H894 0.950 . S
C871 C888 1.574 . S
C871 C890 1.368 1_556 S
C871 H895 0.949 . S
H872 C876 0.949 . S
C873 C874 1.349 . S
C873 C875 1.327 . S
C873 H896 0.950 . S
C874 C873 1.349 . S
C874 C886 1.349 . S
C875 C873 1.327 . S
C875 C891 1.429 . S
C875 H897 0.950 . S
C876 H872 0.949 . S
C876 C884 1.574 1_556 S
C876 C892 1.368 . S
H877 C885 0.950 . S
H878 C883 0.950 . S
H879 C884 0.949 . S
H880 C886 0.950 . S
H881 C887 0.950 . S
H882 C888 0.949 . S
C883 H878 0.950 . S
C883 C885 1.327 . S
C883 C889 1.429 . S
C884 C876 1.574 1_554 S
C884 H879 0.949 . S
C884 C890 1.368 . S
C885 C869 1.349 . S
C885 H877 0.950 . S
C885 C883 1.327 . S
C886 C874 1.349 . S
C886 H880 0.950 . S
C886 C887 1.327 . S
C887 H881 0.950 . S
C887 C886 1.327 . S
C887 C891 1.429 . S
C888 C871 1.574 . S
C888 H882 0.949 . S
C888 C892 1.368 . S
C889 C870 1.429 . S
C889 C883 1.429 . S
C889 C890 1.523 . S
C890 C871 1.368 1_554 S
C890 C884 1.368 . S
C890 C889 1.523 . S
C891 C875 1.429 . S
C891 C887 1.429 . S
C891 C892 1.523 . S
C892 C876 1.368 . S
C892 C888 1.368 . S
C892 C891 1.523 . S
H893 C868 0.950 . S
H894 C870 0.950 . S
H895 C871 0.949 . S
H896 C873 0.950 . S
H897 C875 0.950 . S
C898 C899 1.349 . S
C898 C900 1.327 . S
C898 H923 0.950 . S
C899 C898 1.349 . S
C899 C915 1.349 . S
C900 C898 1.327 . S
C900 C919 1.429 . S
C900 H924 0.950 . S
C901 C918 1.574 . S
C901 C920 1.368 1_556 S
C901 H925 0.949 . S
H902 C906 0.949 . S
C903 C904 1.349 . S
C903 C905 1.327 . S
C903 H926 0.950 . S
C904 C903 1.349 . S
C904 C916 1.349 . S
C905 C903 1.327 . S
C905 C921 1.429 . S
C905 H927 0.950 . S
C906 H902 0.949 . S
C906 C914 1.574 1_556 S
C906 C922 1.368 . S
H907 C915 0.950 . S
H908 C913 0.950 . S
H909 C914 0.949 . S
H910 C916 0.950 . S
H911 C917 0.950 . S
H912 C918 0.949 . S
C913 H908 0.950 . S
C913 C915 1.327 . S
C913 C919 1.429 . S
C914 C906 1.574 1_554 S
C914 H909 0.949 . S
C914 C920 1.368 . S
C915 C899 1.349 . S
C915 H907 0.950 . S
C915 C913 1.327 . S
C916 C904 1.349 . S
C916 H910 0.950 . S
C916 C917 1.327 . S
C917 H911 0.950 . S
C917 C916 1.327 . S
C917 C921 1.429 . S
C918 C901 1.574 . S
C918 H912 0.949 . S
C918 C922 1.368 . S
C919 C900 1.429 . S
C919 C913 1.429 . S
C919 C920 1.523 . S
C920 C901 1.368 1_554 S
C920 C914 1.368 . S
C920 C919 1.523 . S
C921 C905 1.429 . S
C921 C917 1.429 . S
C921 C922 1.523 . S
C922 C906 1.368 . S
C922 C918 1.368 . S
C922 C921 1.523 . S
H923 C898 0.950 . S
H924 C900 0.950 . S
H925 C901 0.949 . S
H926 C903 0.950 . S
H927 C905 0.950 . S
C928 C929 1.349 . S
C928 C930 1.327 . S
C928 H953 0.950 . S
C929 C928 1.349 . S
C929 C945 1.349 1_455 S
C930 C928 1.327 . S
C930 C949 1.429 . S
C930 H954 0.950 . S
C931 C948 1.574 . S
C931 C950 1.368 1_655 S
C931 H955 0.949 . S
H932 C936 0.949 . S
C933 C934 1.338 1_655 S
C933 C935 1.328 . S
C933 H956 0.960 . S
C934 C933 1.338 1_455 S
C934 C946 1.349 . S
C935 C933 1.328 . S
C935 C951 1.429 1_655 S
C935 H957 0.950 . S
C936 H932 0.949 . S
C936 C944 1.574 . S
C936 C952 1.368 . S
H937 C945 0.950 . S
H938 C943 0.950 . S
H939 C944 0.949 . S
H940 C946 0.950 . S
H941 C947 0.950 . S
H942 C948 0.949 . S
C943 H938 0.950 . S
C943 C945 1.327 . S
C943 C949 1.429 1_655 S
C944 C936 1.574 . S
C944 H939 0.949 . S
C944 C950 1.368 . S
C945 C929 1.349 1_655 S
C945 H937 0.950 . S
C945 C943 1.327 . S
C946 C934 1.349 . S
C946 H940 0.950 . S
C946 C947 1.327 . S
C947 H941 0.950 . S
C947 C946 1.327 . S
C947 C951 1.429 . S
C948 C931 1.574 . S
C948 H942 0.949 . S
C948 C952 1.368 1_655 S
C949 C930 1.429 . S
C949 C943 1.429 1_455 S
C949 C950 1.523 . S
C950 C931 1.368 1_455 S
C950 C944 1.368 . S
C950 C949 1.523 . S
C951 C935 1.429 1_455 S
C951 C947 1.429 . S
C951 C952 1.523 . S
C952 C936 1.368 . S
C952 C948 1.368 1_455 S
C952 C951 1.523 . S
H953 C928 0.950 . S
H954 C930 0.950 . S
H955 C931 0.949 . S
H956 C933 0.960 . S
H957 C935 0.950 . S
C958 C959 1.349 . S
C958 C960 1.327 . S
C958 H983 0.950 . S
C959 C958 1.349 . S
C959 C975 1.349 1_545 S
C960 C958 1.327 . S
C960 C979 1.429 . S
C960 H984 0.950 . S
C961 C978 1.574 . S
C961 C980 1.368 1_565 S
C961 H985 0.949 . S
H962 C966 0.949 . S
C963 C964 1.342 1_565 S
C963 C965 1.328 . S
C963 H986 0.956 . S
C964 C963 1.342 1_545 S
C964 C976 1.349 . S
C965 C963 1.328 . S
C965 C981 1.429 1_565 S
C965 H987 0.950 . S
C966 H962 0.949 . S
C966 C974 1.574 . S
C966 C982 1.368 . S
H967 C975 0.950 . S
H968 C973 0.950 . S
H969 C974 0.949 . S
H970 C976 0.950 . S
H971 C977 0.950 . S
H972 C978 0.949 . S
C973 H968 0.950 . S
C973 C975 1.327 . S
C973 C979 1.429 1_565 S
C974 C966 1.574 . S
C974 H969 0.949 . S
C974 C980 1.368 . S
C975 C959 1.349 1_565 S
C975 H967 0.950 . S
C975 C973 1.327 . S
C976 C964 1.349 . S
C976 H970 0.950 . S
C976 C977 1.327 . S
C977 H971 0.950 . S
C977 C976 1.327 . S
C977 C981 1.429 . S
C978 C961 1.574 . S
C978 H972 0.949 . S
C978 C982 1.368 1_565 S
C979 C960 1.429 . S
C979 C973 1.429 1_545 S
C979 C980 1.523 . S
C980 C961 1.368 1_545 S
C980 C974 1.368 . S
C980 C979 1.523 . S
C981 C965 1.429 1_545 S
C981 C977 1.429 . S
C981 C982 1.523 . S
C982 C966 1.368 . S
C982 C978 1.368 1_545 S
C982 C981 1.523 . S
H983 C958 0.950 . S
H984 C960 0.950 . S
H985 C961 0.949 . S
H986 C963 0.956 . S
H987 C965 0.950 . S
C988 C989 1.349 . S
C988 C990 1.327 . S
C988 H1013 0.950 . S
C989 C988 1.349 . S
C989 C1005 1.349 . S
C990 C988 1.327 . S
C990 C1009 1.429 . S
C990 H1014 0.950 . S
C991 C1008 1.574 . S
C991 C1010 1.368 . S
C991 H1015 0.949 . S
H992 C996 0.949 . S
C993 C994 1.349 . S
C993 C995 1.327 . S
C993 H1016 0.950 . S
C994 C993 1.349 . S
C994 C1006 1.349 . S
C995 C993 1.327 . S
C995 C1011 1.429 . S
C995 H1017 0.950 . S
C996 H992 0.949 . S
C996 C1004 1.574 . S
C996 C1012 1.368 . S
H997 C1005 0.950 . S
H998 C1003 0.950 . S
H999 C1004 0.949 . S
H1000 C1006 0.950 . S
H1001 C1007 0.950 . S
H1002 C1008 0.949 . S
C1003 H998 0.950 . S
C1003 C1005 1.327 . S
C1003 C1009 1.429 . S
C1004 C996 1.574 . S
C1004 H999 0.949 . S
C1004 C1010 1.368 . S
C1005 C989 1.349 . S
C1005 H997 0.950 . S
C1005 C1003 1.327 . S
C1006 C994 1.349 . S
C1006 H1000 0.950 . S
C1006 C1007 1.327 . S
C1007 H1001 0.950 . S
C1007 C1006 1.327 . S
C1007 C1011 1.429 . S
C1008 C991 1.574 . S
C1008 H1002 0.949 . S
C1008 C1012 1.368 . S
C1009 C990 1.429 . S
C1009 C1003 1.429 . S
C1009 C1010 1.523 . S
C1010 C991 1.368 . S
C1010 C1004 1.368 . S
C1010 C1009 1.523 . S
C1011 C995 1.429 . S
C1011 C1007 1.429 . S
C1011 C1012 1.523 . S
C1012 C996 1.368 . S
C1012 C1008 1.368 . S
C1012 C1011 1.523 . S
H1013 C988 0.950 . S
H1014 C990 0.950 . S
H1015 C991 0.949 . S
H1016 C993 0.950 . S
H1017 C995 0.950 . S
C1018 C1019 1.349 . S
C1018 C1020 1.327 . S
C1018 H1043 0.950 . S
C1019 C1018 1.349 . S
C1019 C1035 1.349 . S
C1020 C1018 1.327 . S
C1020 C1039 1.429 . S
C1020 H1044 0.950 . S
C1021 C1038 1.574 . S
C1021 C1040 1.368 . S
C1021 H1045 0.949 . S
H1022 C1026 0.949 . S
C1023 C1024 1.349 . S
C1023 C1025 1.327 . S
C1023 H1046 0.950 . S
C1024 C1023 1.349 . S
C1024 C1036 1.349 . S
C1025 C1023 1.327 . S
C1025 C1041 1.429 . S
C1025 H1047 0.950 . S
C1026 H1022 0.949 . S
C1026 C1034 1.574 . S
C1026 C1042 1.368 . S
H1027 C1035 0.950 . S
H1028 C1033 0.950 . S
H1029 C1034 0.949 . S
H1030 C1036 0.950 . S
H1031 C1037 0.950 . S
H1032 C1038 0.949 . S
C1033 H1028 0.950 . S
C1033 C1035 1.327 . S
C1033 C1039 1.429 . S
C1034 C1026 1.574 . S
C1034 H1029 0.949 . S
C1034 C1040 1.368 . S
C1035 C1019 1.349 . S
C1035 H1027 0.950 . S
C1035 C1033 1.327 . S
C1036 C1024 1.349 . S
C1036 H1030 0.950 . S
C1036 C1037 1.327 . S
C1037 H1031 0.950 . S
C1037 C1036 1.327 . S
C1037 C1041 1.429 . S
C1038 C1021 1.574 . S
C1038 H1032 0.949 . S
C1038 C1042 1.368 . S
C1039 C1020 1.429 . S
C1039 C1033 1.429 . S
C1039 C1040 1.523 . S
C1040 C1021 1.368 . S
C1040 C1034 1.368 . S
C1040 C1039 1.523 . S
C1041 C1025 1.429 . S
C1041 C1037 1.429 . S
C1041 C1042 1.523 . S
C1042 C1026 1.368 . S
C1042 C1038 1.368 . S
C1042 C1041 1.523 . S
H1043 C1018 0.950 . S
H1044 C1020 0.950 . S
H1045 C1021 0.949 . S
H1046 C1023 0.950 . S
H1047 C1025 0.950 . S
C1048 C1049 1.349 . S
C1048 C1050 1.327 . S
C1048 H1073 0.950 . S
C1049 C1048 1.349 . S
C1049 C1065 1.349 1_655 S
C1050 C1048 1.327 . S
C1050 C1069 1.429 . S
C1050 H1074 0.950 . S
C1051 C1068 1.574 . S
C1051 C1070 1.368 1_455 S
C1051 H1075 0.949 . S
H1052 C1056 0.949 . S
C1053 C1054 1.369 . S
C1053 C1055 1.326 1_655 S
C1053 H1076 0.933 1_655 S
C1054 C1053 1.369 . S
C1054 C1066 1.349 . S
C1055 C1053 1.326 1_455 S
C1055 C1071 1.427 1_455 S
C1055 H1077 0.951 . S
C1056 H1052 0.949 . S
C1056 C1064 1.574 . S
C1056 C1072 1.368 . S
H1057 C1065 0.950 . S
H1058 C1063 0.950 . S
H1059 C1064 0.949 . S
H1060 C1066 0.950 . S
H1061 C1067 0.950 . S
H1062 C1068 0.949 . S
C1063 H1058 0.950 . S
C1063 C1065 1.327 . S
C1063 C1069 1.429 1_455 S
C1064 C1056 1.574 . S
C1064 H1059 0.949 . S
C1064 C1070 1.368 . S
C1065 C1049 1.349 1_455 S
C1065 H1057 0.950 . S
C1065 C1063 1.327 . S
C1066 C1054 1.349 . S
C1066 H1060 0.950 . S
C1066 C1067 1.327 . S
C1067 H1061 0.950 . S
C1067 C1066 1.327 . S
C1067 C1071 1.429 . S
C1068 C1051 1.574 . S
C1068 H1062 0.949 . S
C1068 C1072 1.368 1_455 S
C1069 C1050 1.429 . S
C1069 C1063 1.429 1_655 S
C1069 C1070 1.523 . S
C1070 C1051 1.368 1_655 S
C1070 C1064 1.368 . S
C1070 C1069 1.523 . S
C1071 C1055 1.427 1_655 S
C1071 C1067 1.429 . S
C1071 C1072 1.523 . S
C1072 C1056 1.368 . S
C1072 C1068 1.368 1_655 S
C1072 C1071 1.523 . S
H1073 C1048 0.950 . S
H1074 C1050 0.950 . S
H1075 C1051 0.949 . S
H1076 C1053 0.933 1_455 S
H1077 C1055 0.951 . S
C1078 C1079 1.349 . S
C1078 C1080 1.327 . S
C1078 H1103 0.950 . S
C1079 C1078 1.349 . S
C1079 C1095 1.349 1_565 S
C1080 C1078 1.327 . S
C1080 C1099 1.429 . S
C1080 H1104 0.950 . S
C1081 C1098 1.574 . S
C1081 C1100 1.368 1_545 S
C1081 H1105 0.949 . S
H1082 C1086 0.949 . S
C1083 C1084 1.368 . S
C1083 C1085 1.325 1_565 S
C1083 H1106 0.934 1_565 S
C1084 C1083 1.368 . S
C1084 C1096 1.349 . S
C1085 C1083 1.325 1_545 S
C1085 C1101 1.423 1_545 S
C1085 H1107 0.956 . S
C1086 H1082 0.949 . S
C1086 C1094 1.574 . S
C1086 C1102 1.368 . S
H1087 C1095 0.950 . S
H1088 C1093 0.950 . S
H1089 C1094 0.949 . S
H1090 C1096 0.950 . S
H1091 C1097 0.950 . S
H1092 C1098 0.949 . S
C1093 H1088 0.950 . S
C1093 C1095 1.327 . S
C1093 C1099 1.429 1_545 S
C1094 C1086 1.574 . S
C1094 H1089 0.949 . S
C1094 C1100 1.368 . S
C1095 C1079 1.349 1_545 S
C1095 H1087 0.950 . S
C1095 C1093 1.327 . S
C1096 C1084 1.349 . S
C1096 H1090 0.950 . S
C1096 C1097 1.327 . S
C1097 H1091 0.950 . S
C1097 C1096 1.327 . S
C1097 C1101 1.429 . S
C1098 C1081 1.574 . S
C1098 H1092 0.949 . S
C1098 C1102 1.368 1_545 S
C1099 C1080 1.429 . S
C1099 C1093 1.429 1_565 S
C1099 C1100 1.523 . S
C1100 C1081 1.368 1_565 S
C1100 C1094 1.368 . S
C1100 C1099 1.523 . S
C1101 C1085 1.423 1_565 S
C1101 C1097 1.429 . S
C1101 C1102 1.523 . S
C1102 C1086 1.368 . S
C1102 C1098 1.368 1_565 S
C1102 C1101 1.523 . S
H1103 C1078 0.950 . S
H1104 C1080 0.950 . S
H1105 C1081 0.949 . S
H1106 C1083 0.934 1_545 S
H1107 C1085 0.956 . S
C1108 C1109 1.349 . S
C1108 C1110 1.327 . S
C1108 H1133 0.950 . S
C1109 C1108 1.349 . S
C1109 C1125 1.349 . S
C1110 C1108 1.327 . S
C1110 C1129 1.429 . S
C1110 H1134 0.950 . S
C1111 C1128 1.574 . S
C1111 C1130 1.368 . S
C1111 H1135 0.949 . S
H1112 C1116 0.949 . S
C1113 C1114 1.349 . S
C1113 C1115 1.327 . S
C1113 H1136 0.950 . S
C1114 C1113 1.349 . S
C1114 C1126 1.349 . S
C1115 C1113 1.327 . S
C1115 C1131 1.429 . S
C1115 H1137 0.950 . S
C1116 H1112 0.949 . S
C1116 C1124 1.574 . S
C1116 C1132 1.368 . S
H1117 C1125 0.950 . S
H1118 C1123 0.950 . S
H1119 C1124 0.949 . S
H1120 C1126 0.950 . S
H1121 C1127 0.950 . S
H1122 C1128 0.949 . S
C1123 H1118 0.950 . S
C1123 C1125 1.327 . S
C1123 C1129 1.429 . S
C1124 C1116 1.574 . S
C1124 H1119 0.949 . S
C1124 C1130 1.368 . S
C1125 C1109 1.349 . S
C1125 H1117 0.950 . S
C1125 C1123 1.327 . S
C1126 C1114 1.349 . S
C1126 H1120 0.950 . S
C1126 C1127 1.327 . S
C1127 H1121 0.950 . S
C1127 C1126 1.327 . S
C1127 C1131 1.429 . S
C1128 C1111 1.574 . S
C1128 H1122 0.949 . S
C1128 C1132 1.368 . S
C1129 C1110 1.429 . S
C1129 C1123 1.429 . S
C1129 C1130 1.523 . S
C1130 C1111 1.368 . S
C1130 C1124 1.368 . S
C1130 C1129 1.523 . S
C1131 C1115 1.429 . S
C1131 C1127 1.429 . S
C1131 C1132 1.523 . S
C1132 C1116 1.368 . S
C1132 C1128 1.368 . S
C1132 C1131 1.523 . S
H1133 C1108 0.950 . S
H1134 C1110 0.950 . S
H1135 C1111 0.949 . S
H1136 C1113 0.950 . S
H1137 C1115 0.950 . S
C1138 C1139 1.349 . S
C1138 C1140 1.327 . S
C1138 H1163 0.950 . S
C1139 C1138 1.349 . S
C1139 C1155 1.349 . S
C1140 C1138 1.327 . S
C1140 C1159 1.429 . S
C1140 H1164 0.950 . S
C1141 C1158 1.574 . S
C1141 C1160 1.368 . S
C1141 H1165 0.949 . S
H1142 C1146 0.949 . S
C1143 C1144 1.349 . S
C1143 C1145 1.327 . S
C1143 H1166 0.950 . S
C1144 C1143 1.349 . S
C1144 C1156 1.349 . S
C1145 C1143 1.327 . S
C1145 C1161 1.429 . S
C1145 H1167 0.950 . S
C1146 H1142 0.949 . S
C1146 C1154 1.574 . S
C1146 C1162 1.368 . S
H1147 C1155 0.950 . S
H1148 C1153 0.950 . S
H1149 C1154 0.949 . S
H1150 C1156 0.950 . S
H1151 C1157 0.950 . S
H1152 C1158 0.949 . S
C1153 H1148 0.950 . S
C1153 C1155 1.327 . S
C1153 C1159 1.429 . S
C1154 C1146 1.574 . S
C1154 H1149 0.949 . S
C1154 C1160 1.368 . S
C1155 C1139 1.349 . S
C1155 H1147 0.950 . S
C1155 C1153 1.327 . S
C1156 C1144 1.349 . S
C1156 H1150 0.950 . S
C1156 C1157 1.327 . S
C1157 H1151 0.950 . S
C1157 C1156 1.327 . S
C1157 C1161 1.429 . S
C1158 C1141 1.574 . S
C1158 H1152 0.949 . S
C1158 C1162 1.368 . S
C1159 C1140 1.429 . S
C1159 C1153 1.429 . S
C1159 C1160 1.523 . S
C1160 C1141 1.368 . S
C1160 C1154 1.368 . S
C1160 C1159 1.523 . S
C1161 C1145 1.429 . S
C1161 C1157 1.429 . S
C1161 C1162 1.523 . S
C1162 C1146 1.368 . S
C1162 C1158 1.368 . S
C1162 C1161 1.523 . S
H1163 C1138 0.950 . S
H1164 C1140 0.950 . S
H1165 C1141 0.949 . S
H1166 C1143 0.950 . S
H1167 C1145 0.950 . S
C449 C241 1.863 . S
C454 C297 2.007 1_545 S
C484 C337 2.025 . S
C479 C277 1.916 . S
C514 C377 2.015 . S
C509 C169 1.865 . S
C544 C417 2.024 1_455 S
C539 C205 1.876 . S
C574 C306 2.010 1_565 S
C569 C97 1.863 1_565 S
C599 C133 1.922 . S
C604 C346 2.029 . S
C629 C25 1.866 . S
C634 C386 2.014 . S
C659 C61 1.875 . S
C664 C426 2.022 1_655 S
C694 C303 0.272 . S
C689 C211 0.272 . S
C724 C343 0.269 . S
C719 C247 0.270 . S
C754 C383 0.270 . S
C749 C253 0.290 . S
C779 C175 0.270 . S
C784 C423 0.269 . S
C809 C67 0.359 . S
C814 C294 0.274 . S
C844 C334 0.269 . S
C839 C103 0.346 1_565 S
C874 C374 0.270 . S
C869 C109 0.201 . S
C899 C31 0.351 . S
C904 C414 0.269 . S
C929 C181 2.540 . S
C934 C307 2.813 . S
C959 C217 2.527 . S
C964 C347 2.806 . S
C994 C387 2.812 . S
C989 C283 2.469 . S
C1024 C427 2.805 . S
C1019 C145 2.526 . S
C1049 C37 2.544 . S
C1054 C298 2.823 . S
C1084 C338 2.805 . S
C1079 C73 2.528 1_565 S
C1114 C378 2.814 . S
C1109 C139 2.464 . S
C1139 C1 2.531 . S
C1144 C418 2.804 . S
