# Generated by pormake.
# Topology ctn, (3,4)-cn, num edge types: 1
# Building blocks:
#     Node 0, Type 0, BuildingBlock: CUQRIR_clean_linker_1, # of connection points: 3
#     Node 1, Type 0, BuildingBlock: CUQRIR_clean_linker_1, # of connection points: 3
#     Node 2, Type 0, BuildingBlock: CUQRIR_clean_linker_1, # of connection points: 3
#     Node 3, Type 0, BuildingBlock: CUQRIR_clean_linker_1, # of connection points: 3
#     Node 4, Type 0, BuildingBlock: CUQRIR_clean_linker_1, # of connection points: 3
#     Node 5, Type 0, BuildingBlock: CUQRIR_clean_linker_1, # of connection points: 3
#     Node 6, Type 0, BuildingBlock: CUQRIR_clean_linker_1, # of connection points: 3
#     Node 7, Type 0, BuildingBlock: CUQRIR_clean_linker_1, # of connection points: 3
#     Node 8, Type 0, BuildingBlock: CUQRIR_clean_linker_1, # of connection points: 3
#     Node 9, Type 0, BuildingBlock: CUQRIR_clean_linker_1, # of connection points: 3
#     Node 10, Type 0, BuildingBlock: CUQRIR_clean_linker_1, # of connection points: 3
#     Node 11, Type 0, BuildingBlock: CUQRIR_clean_linker_1, # of connection points: 3
#     Node 12, Type 0, BuildingBlock: CUQRIR_clean_linker_1, # of connection points: 3
#     Node 13, Type 0, BuildingBlock: CUQRIR_clean_linker_1, # of connection points: 3
#     Node 14, Type 0, BuildingBlock: CUQRIR_clean_linker_1, # of connection points: 3
#     Node 15, Type 0, BuildingBlock: CUQRIR_clean_linker_1, # of connection points: 3
#     Node 16, Type 1, BuildingBlock: NAHDIM_clean_sbu_0, # of connection points: 4
#     Node 17, Type 1, BuildingBlock: NAHDIM_clean_sbu_0, # of connection points: 4
#     Node 18, Type 1, BuildingBlock: NAHDIM_clean_sbu_0, # of connection points: 4
#     Node 19, Type 1, BuildingBlock: NAHDIM_clean_sbu_0, # of connection points: 4
#     Node 20, Type 1, BuildingBlock: NAHDIM_clean_sbu_0, # of connection points: 4
#     Node 21, Type 1, BuildingBlock: NAHDIM_clean_sbu_0, # of connection points: 4
#     Node 22, Type 1, BuildingBlock: NAHDIM_clean_sbu_0, # of connection points: 4
#     Node 23, Type 1, BuildingBlock: NAHDIM_clean_sbu_0, # of connection points: 4
#     Node 24, Type 1, BuildingBlock: NAHDIM_clean_sbu_0, # of connection points: 4
#     Node 25, Type 1, BuildingBlock: NAHDIM_clean_sbu_0, # of connection points: 4
#     Node 26, Type 1, BuildingBlock: NAHDIM_clean_sbu_0, # of connection points: 4
#     Node 27, Type 1, BuildingBlock: NAHDIM_clean_sbu_0, # of connection points: 4
#     Edge 28, Type (0, 1), BuildingBlock: KIFKEQ_clean_linker_1, # of connection points: 2
#     Edge 29, Type (0, 1), BuildingBlock: KIFKEQ_clean_linker_1, # of connection points: 2
#     Edge 30, Type (0, 1), BuildingBlock: KIFKEQ_clean_linker_1, # of connection points: 2
#     Edge 31, Type (0, 1), BuildingBlock: KIFKEQ_clean_linker_1, # of connection points: 2
#     Edge 32, Type (0, 1), BuildingBlock: KIFKEQ_clean_linker_1, # of connection points: 2
#     Edge 33, Type (0, 1), BuildingBlock: KIFKEQ_clean_linker_1, # of connection points: 2
#     Edge 34, Type (0, 1), BuildingBlock: KIFKEQ_clean_linker_1, # of connection points: 2
#     Edge 35, Type (0, 1), BuildingBlock: KIFKEQ_clean_linker_1, # of connection points: 2
#     Edge 36, Type (0, 1), BuildingBlock: KIFKEQ_clean_linker_1, # of connection points: 2
#     Edge 37, Type (0, 1), BuildingBlock: KIFKEQ_clean_linker_1, # of connection points: 2
#     Edge 38, Type (0, 1), BuildingBlock: KIFKEQ_clean_linker_1, # of connection points: 2
#     Edge 39, Type (0, 1), BuildingBlock: KIFKEQ_clean_linker_1, # of connection points: 2
#     Edge 40, Type (0, 1), BuildingBlock: KIFKEQ_clean_linker_1, # of connection points: 2
#     Edge 41, Type (0, 1), BuildingBlock: KIFKEQ_clean_linker_1, # of connection points: 2
#     Edge 42, Type (0, 1), BuildingBlock: KIFKEQ_clean_linker_1, # of connection points: 2
#     Edge 43, Type (0, 1), BuildingBlock: KIFKEQ_clean_linker_1, # of connection points: 2
#     Edge 44, Type (0, 1), BuildingBlock: KIFKEQ_clean_linker_1, # of connection points: 2
#     Edge 45, Type (0, 1), BuildingBlock: KIFKEQ_clean_linker_1, # of connection points: 2
#     Edge 46, Type (0, 1), BuildingBlock: KIFKEQ_clean_linker_1, # of connection points: 2
#     Edge 47, Type (0, 1), BuildingBlock: KIFKEQ_clean_linker_1, # of connection points: 2
#     Edge 48, Type (0, 1), BuildingBlock: KIFKEQ_clean_linker_1, # of connection points: 2
#     Edge 49, Type (0, 1), BuildingBlock: KIFKEQ_clean_linker_1, # of connection points: 2
#     Edge 50, Type (0, 1), BuildingBlock: KIFKEQ_clean_linker_1, # of connection points: 2
#     Edge 51, Type (0, 1), BuildingBlock: KIFKEQ_clean_linker_1, # of connection points: 2
#     Edge 52, Type (0, 1), BuildingBlock: KIFKEQ_clean_linker_1, # of connection points: 2
#     Edge 53, Type (0, 1), BuildingBlock: KIFKEQ_clean_linker_1, # of connection points: 2
#     Edge 54, Type (0, 1), BuildingBlock: KIFKEQ_clean_linker_1, # of connection points: 2
#     Edge 55, Type (0, 1), BuildingBlock: KIFKEQ_clean_linker_1, # of connection points: 2
#     Edge 56, Type (0, 1), BuildingBlock: KIFKEQ_clean_linker_1, # of connection points: 2
#     Edge 57, Type (0, 1), BuildingBlock: KIFKEQ_clean_linker_1, # of connection points: 2
#     Edge 58, Type (0, 1), BuildingBlock: KIFKEQ_clean_linker_1, # of connection points: 2
#     Edge 59, Type (0, 1), BuildingBlock: KIFKEQ_clean_linker_1, # of connection points: 2
#     Edge 60, Type (0, 1), BuildingBlock: KIFKEQ_clean_linker_1, # of connection points: 2
#     Edge 61, Type (0, 1), BuildingBlock: KIFKEQ_clean_linker_1, # of connection points: 2
#     Edge 62, Type (0, 1), BuildingBlock: KIFKEQ_clean_linker_1, # of connection points: 2
#     Edge 63, Type (0, 1), BuildingBlock: KIFKEQ_clean_linker_1, # of connection points: 2
#     Edge 64, Type (0, 1), BuildingBlock: KIFKEQ_clean_linker_1, # of connection points: 2
#     Edge 65, Type (0, 1), BuildingBlock: KIFKEQ_clean_linker_1, # of connection points: 2
#     Edge 66, Type (0, 1), BuildingBlock: KIFKEQ_clean_linker_1, # of connection points: 2
#     Edge 67, Type (0, 1), BuildingBlock: KIFKEQ_clean_linker_1, # of connection points: 2
#     Edge 68, Type (0, 1), BuildingBlock: KIFKEQ_clean_linker_1, # of connection points: 2
#     Edge 69, Type (0, 1), BuildingBlock: KIFKEQ_clean_linker_1, # of connection points: 2
#     Edge 70, Type (0, 1), BuildingBlock: KIFKEQ_clean_linker_1, # of connection points: 2
#     Edge 71, Type (0, 1), BuildingBlock: KIFKEQ_clean_linker_1, # of connection points: 2
#     Edge 72, Type (0, 1), BuildingBlock: KIFKEQ_clean_linker_1, # of connection points: 2
#     Edge 73, Type (0, 1), BuildingBlock: KIFKEQ_clean_linker_1, # of connection points: 2
#     Edge 74, Type (0, 1), BuildingBlock: KIFKEQ_clean_linker_1, # of connection points: 2
#     Edge 75, Type (0, 1), BuildingBlock: KIFKEQ_clean_linker_1, # of connection points: 2
# Relax obj value: 0.078
# Max RMSD: 0.205
# Mean RMSD: 0.128
data_MOF--net-ctn--node1-NAHDIM_clean_sbu_0--node2-CUQRIR_clean_linker_1--edge1-KIFKEQ_clean_linker_1
_symmetry_space_group_name_H-M    P1
_symmetry_Int_Tables_number       1
_symmetry_cell_setting            triclinic
loop_
_symmetry_equiv_pos_as_xyz
'x, y, z'
_cell_length_a     52.654344
_cell_length_b     49.219393
_cell_length_c     50.016032
_cell_angle_alpha  97.938917
_cell_angle_beta   88.841298
_cell_angle_gamma 94.90243
loop_
_atom_site_label
_atom_site_type_symbol
_atom_site_fract_x
_atom_site_fract_y
_atom_site_fract_z
_atom_type_partial_charge
C0 C 0.04309 0.01371 0.07666 0.0
N1 N 0.05382 0.02372 0.05481 0.0
N2 N 0.02244 0.02719 0.08527 0.0
C3 C 0.05362 0.99183 0.09046 0.0
C4 C 0.0211 0.04583 0.06792 0.0
N5 N 0.04034 0.04392 0.04957 0.0
C6 C 1.00006 0.0647 0.0678 0.0
H7 H 0.04956 0.99516 0.11247 0.0
H8 H 0.07449 0.99144 0.08719 0.0
H9 H 0.04441 0.97146 0.08191 0.0
H10 H 1.00611 0.08486 0.07971 0.0
H11 H 0.98233 0.05604 0.07693 0.0
H12 H 0.99605 0.06824 0.04692 0.0
C13 C 0.27912 0.73626 0.23619 0.0
N14 N 0.29124 0.72374 0.25414 0.0
N15 N 0.29487 0.75619 0.22699 0.0
C16 C 0.25245 0.72762 0.22619 0.0
C17 C 0.31712 0.75517 0.23975 0.0
N18 N 0.31504 0.7352 0.25603 0.0
C19 C 0.34111 0.773 0.23544 0.0
H20 H 0.25102 0.70546 0.21778 0.0
H21 H 0.24675 0.73987 0.21065 0.0
H22 H 0.23879 0.73027 0.24332 0.0
H23 H 0.33674 0.79287 0.22932 0.0
H24 H 0.35255 0.76217 0.21907 0.0
H25 H 0.35271 0.77706 0.25406 0.0
C26 C 0.98021 0.49886 0.07579 0.0
N27 N 0.99308 0.47628 0.07674 0.0
N28 N 0.96132 0.49335 0.05734 0.0
C29 C 0.98464 0.52552 0.09443 0.0
C30 C 0.96307 0.4666 0.04721 0.0
N31 N 0.98213 0.45613 0.05923 0.0
C32 C 0.94745 0.45131 0.02414 0.0
H33 H 0.99135 0.52186 0.11442 0.0
H34 H 0.96699 0.53641 0.09727 0.0
H35 H 0.99953 0.53896 0.0855 0.0
H36 H 0.94048 0.4657 0.01126 0.0
H37 H 0.93075 0.43978 0.0324 0.0
H38 H 0.95875 0.43631 0.01148 0.0
C39 C 0.68813 0.7645 0.2194 0.0
N40 N 0.70976 0.77787 0.21097 0.0
N41 N 0.68264 0.77435 0.24533 0.0
C42 C 0.67366 0.74025 0.20319 0.0
C43 C 0.70179 0.79404 0.25241 0.0
N44 N 0.71841 0.79593 0.23165 0.0
C45 C 0.70325 0.81282 0.27888 0.0
H46 H 0.65933 0.74784 0.1907 0.0
H47 H 0.66357 0.72658 0.21656 0.0
H48 H 0.68667 0.72814 0.1895 0.0
H49 H 0.71499 0.80387 0.29308 0.0
H50 H 0.68401 0.81516 0.28792 0.0
H51 H 0.71237 0.83344 0.27619 0.0
C52 C 0.02632 0.97846 0.48343 0.0
N53 N 0.04877 0.98241 0.49681 0.0
N54 N 0.02733 0.99267 0.46211 0.0
C55 C 1.00361 0.96007 0.49073 0.0
C56 C 0.05124 1.00515 0.46266 0.0
N57 N 0.0645 0.99855 0.48349 0.0
C58 C 0.06155 0.02395 0.44297 0.0
H59 H 0.00986 0.94071 0.49645 0.0
H60 H 0.98982 0.955 0.47398 0.0
H61 H 0.99363 0.97076 0.50835 0.0
H62 H 0.07384 0.04146 0.45349 0.0
H63 H 0.04604 0.03201 0.4325 0.0
H64 H 0.07334 0.01228 0.42754 0.0
C65 C 0.17839 0.73129 0.81787 0.0
N66 N 0.19817 0.71989 0.82748 0.0
N67 N 0.17235 0.71888 0.79271 0.0
C68 C 0.16627 0.75597 0.83222 0.0
C69 C 0.18943 0.69974 0.7872 0.0
N70 N 0.20534 0.70051 0.80834 0.0
C71 C 0.18932 0.67918 0.76199 0.0
H72 H 0.15027 0.74876 0.84495 0.0
H73 H 0.15867 0.7682 0.81762 0.0
H74 H 0.18011 0.76946 0.84554 0.0
H75 H 0.20297 0.68714 0.74716 0.0
H76 H 0.17012 0.67587 0.75278 0.0
H77 H 0.1953 0.6592 0.76643 0.0
C78 C 0.96083 0.5337 0.4633 0.0
N79 N 0.97752 0.55621 0.46303 0.0
N80 N 0.94039 0.53996 0.47905 0.0
C81 C 0.96361 0.50607 0.44692 0.0
C82 C 0.94511 0.56701 0.4883 0.0
N83 N 0.96752 0.57701 0.47827 0.0
C84 C 0.92894 0.58304 0.50895 0.0
H85 H 0.97301 0.50849 0.42724 0.0
H86 H 0.9448 0.49427 0.44331 0.0
H87 H 0.97565 0.49415 0.45815 0.0
H88 H 0.91681 0.56923 0.5206 0.0
H89 H 0.91641 0.59507 0.4984 0.0
H90 H 0.94102 0.5977 0.5232 0.0
C91 C 0.78083 0.79853 0.81778 0.0
N92 N 0.80228 0.78504 0.81429 0.0
N93 N 0.78252 0.82047 0.80405 0.0
C94 C 0.75879 0.79111 0.83578 0.0
C95 C 0.80586 0.81996 0.79221 0.0
N96 N 0.81805 0.7986 0.79868 0.0
C97 C 0.81589 0.839 0.7726 0.0
H98 H 0.74537 0.77556 0.82402 0.0
H99 H 0.74846 0.8094 0.84331 0.0
H100 H 0.76539 0.78202 0.85324 0.0
H101 H 0.82813 0.85625 0.78361 0.0
H102 H 0.80011 0.84763 0.76307 0.0
H103 H 0.8276 0.82809 0.75654 0.0
C104 C 0.28102 0.29913 0.31964 0.0
N105 N 0.30243 0.28559 0.31569 0.0
N106 N 0.28202 0.32041 0.30506 0.0
C107 C 0.2599 0.29265 0.33908 0.0
C108 C 0.30486 0.31944 0.2922 0.0
N109 N 0.31749 0.29852 0.29895 0.0
C110 C 0.31384 0.33747 0.2713 0.0
H111 H 0.246 0.2767 0.32859 0.0
H112 H 0.24982 0.31118 0.34641 0.0
H113 H 0.2674 0.28444 0.35665 0.0
H114 H 0.32638 0.35516 0.28109 0.0
H115 H 0.29755 0.34552 0.26207 0.0
H116 H 0.32494 0.32594 0.25509 0.0
C117 C 0.46961 0.99953 0.57851 0.0
N118 N 0.48376 0.97785 0.57921 0.0
N119 N 0.45283 0.99423 0.55784 0.0
C120 C 0.47135 0.02542 0.59852 0.0
C121 C 0.4572 0.96855 0.54614 0.0
N122 N 0.47583 0.95858 0.55919 0.0
C123 C 0.44278 0.95285 0.5224 0.0
H124 H 0.45869 0.02211 0.61599 0.0
H125 H 0.46507 0.04299 0.58937 0.0
H126 H 0.49095 0.03082 0.6062 0.0
H127 H 0.45258 0.95753 0.50352 0.0
H128 H 0.423 0.95896 0.52217 0.0
H129 H 0.44224 0.93033 0.52278 0.0
C130 C 0.18793 0.27737 0.72975 0.0
N131 N 0.20818 0.29065 0.71849 0.0
N132 N 0.17733 0.29449 0.74959 0.0
C133 C 0.1773 0.24841 0.7201 0.0
C134 C 0.19174 0.31865 0.74997 0.0
N135 N 0.2103 0.31641 0.73088 0.0
C136 C 0.1889 0.34376 0.77036 0.0
H137 H 0.1567 0.24549 0.72503 0.0
H138 H 0.18752 0.23393 0.73024 0.0
H139 H 0.18004 0.24332 0.69797 0.0
H140 H 0.20771 0.35511 0.77534 0.0
H141 H 0.17971 0.33812 0.78921 0.0
H142 H 0.17682 0.35768 0.76169 0.0
C143 C 0.78926 0.22484 0.7197 0.0
N144 N 0.7977 0.2144 0.74117 0.0
N145 N 0.80115 0.25004 0.71805 0.0
C146 C 0.76871 0.21083 0.70088 0.0
C147 C 0.81701 0.25464 0.7395 0.0
N148 N 0.81476 0.23299 0.75373 0.0
C149 C 0.83591 0.27934 0.7454 0.0
H150 H 0.77761 0.19725 0.68442 0.0
H151 H 0.75855 0.22611 0.69181 0.0
H152 H 0.75474 0.19787 0.71155 0.0
H153 H 0.82742 0.29482 0.76041 0.0
H154 H 0.84076 0.28884 0.72688 0.0
H155 H 0.85362 0.27359 0.75405 0.0
C156 C 0.53794 0.51221 0.57364 0.0
N157 N 0.54993 0.52295 0.5528 0.0
N158 N 0.51881 0.52751 0.58344 0.0
C159 C 0.54601 0.48787 0.58556 0.0
C160 C 0.51967 0.54803 0.56795 0.0
N161 N 0.53885 0.54552 0.54955 0.0
C162 C 0.50057 0.56931 0.56954 0.0
H163 H 0.53619 0.4688 0.57469 0.0
H164 H 0.54077 0.48919 0.60727 0.0
H165 H 0.56687 0.48636 0.58329 0.0
H166 H 0.4823 0.56186 0.57855 0.0
H167 H 0.49685 0.5746 0.5492 0.0
H168 H 0.50834 0.58827 0.58238 0.0
C169 C 0.52653 0.48005 0.98645 0.0
N170 N 0.54927 0.48249 0.9992 0.0
N171 N 0.52748 0.49564 0.96615 0.0
C172 C 0.50416 0.46036 0.99203 0.0
C173 C 0.55169 0.50739 0.96669 0.0
N174 N 0.56511 0.4991 0.98653 0.0
C175 C 0.56156 0.52867 0.94927 0.0
H176 H 0.51064 0.4416 0.99885 0.0
H177 H 0.49227 0.45414 0.9738 0.0
H178 H 0.49218 0.47062 0.00825 0.0
H179 H 0.54576 0.53941 0.94228 0.0
H180 H 0.57134 0.51834 0.93131 0.0
H181 H 0.57546 0.54413 0.96044 0.0
C182 C 0.68731 0.23069 0.31422 0.0
N183 N 0.70687 0.22014 0.32519 0.0
N184 N 0.68313 0.21826 0.2887 0.0
C185 C 0.67312 0.25409 0.32797 0.0
C186 C 0.7009 0.19979 0.28444 0.0
N187 N 0.71563 0.20123 0.30659 0.0
C188 C 0.70408 0.18074 0.2586 0.0
H189 H 0.67041 0.2525 0.34976 0.0
H190 H 0.65424 0.25448 0.31864 0.0
H191 H 0.68454 0.27377 0.32614 0.0
H192 H 0.71901 0.19026 0.24604 0.0
H193 H 0.68618 0.17706 0.24689 0.0
H194 H 0.71025 0.16078 0.26285 0.0
C195 C 0.46491 0.03377 0.96181 0.0
N196 N 0.4823 0.0559 0.96392 0.0
N197 N 0.44894 0.03533 0.98344 0.0
C198 C 0.46474 0.00964 0.93976 0.0
C199 C 0.45721 0.05914 0.99876 0.0
N200 N 0.47757 0.07151 0.98702 0.0
C201 C 0.44513 0.07061 0.02498 0.0
H202 H 0.45337 0.01399 0.92264 0.0
H203 H 0.45603 0.99058 0.94691 0.0
H204 H 0.48437 1.00625 0.93232 0.0
H205 H 0.45488 0.06349 0.04188 0.0
H206 H 0.4246 0.06344 0.02569 0.0
H207 H 0.44717 0.09344 0.02797 0.0
C208 C 0.20687 0.921 0.0177 0.0
O209 O 0.21563 0.91155 0.99373 0.0
O210 O 0.23876 0.85967 1.00286 0.0
Zn211 Zn 0.24622 0.88993 0.03412 0.0
O212 O 0.27775 0.91366 0.02555 0.0
C213 C 0.26189 0.85038 0.06652 0.0
O214 O 0.26917 0.83886 0.04267 0.0
O215 O 0.21682 0.91423 0.03855 0.0
C216 C 0.30003 0.91024 0.0331 0.0
O217 O 0.30322 0.89052 0.04758 0.0
C218 C 0.25602 0.85012 0.98696 0.0
O219 O 0.27977 0.8603 0.99053 0.0
O220 O 0.25117 0.8728 0.0683 0.0
C221 C 0.15673 0.46085 0.29125 0.0
O222 O 0.13447 0.45977 0.30359 0.0
O223 O 0.11837 0.51799 0.30929 0.0
Zn224 Zn 0.14253 0.51348 0.27726 0.0
O225 O 0.16743 0.54728 0.27944 0.0
C226 C 0.11384 0.48508 0.2308 0.0
O227 O 0.11854 0.46307 0.24139 0.0
O228 O 0.16339 0.48117 0.27878 0.0
C229 C 0.18599 0.5488 0.26292 0.0
O230 O 0.18844 0.52833 0.24345 0.0
C231 C 0.11273 0.54185 0.31963 0.0
O232 O 0.12266 0.56342 0.30909 0.0
O233 O 0.12234 0.50867 0.24244 0.0
C234 C 0.83284 0.61347 0.99971 0.0
O235 O 0.83856 0.62938 0.98105 0.0
O236 O 0.79221 0.65484 0.9685 0.0
Zn237 Zn 0.78261 0.63591 1.00158 0.0
O238 O 0.74991 0.61018 0.99652 0.0
C239 C 0.77187 0.6884 0.03418 0.0
O240 O 0.7674 0.69665 0.01097 0.0
O241 O 0.81068 0.61306 0.01032 0.0
C242 C 0.72935 0.61592 0.00911 0.0
O243 O 0.72873 0.63973 0.02452 0.0
C244 C 0.77607 0.65812 0.95087 0.0
O245 O 0.75222 0.64865 0.95377 0.0
O246 O 0.77861 0.66424 0.03445 0.0
C247 C 0.8395 0.05837 0.3089 0.0
O248 O 0.84816 0.05119 0.33113 0.0
O249 O 0.88834 0.01237 0.31369 0.0
Zn250 Zn 0.86615 0.01236 0.28116 0.0
O251 O 0.8427 0.9775 0.27275 0.0
C252 C 0.91053 1.00568 0.24682 0.0
O253 O 0.9177 0.99205 0.26578 0.0
O254 O 0.84485 0.04487 0.28624 0.0
C255 C 0.85072 0.95408 0.26464 0.0
O256 O 0.87536 0.95176 0.26265 0.0
C257 C 0.88766 0.99338 0.32858 0.0
O258 O 0.87063 0.97222 0.32387 0.0
O259 O 0.88925 0.01623 0.24914 0.0
C260 C 0.31311 0.10071 0.50163 0.0
O261 O 0.29783 0.08898 0.48216 0.0
O262 O 0.28542 0.16629 0.47576 0.0
Zn263 Zn 0.27771 0.14364 0.50668 0.0
O264 O 0.24706 0.11544 0.49925 0.0
C265 C 0.27735 0.19397 0.54666 0.0
O266 O 0.29131 0.20624 0.52904 0.0
O267 O 0.30842 0.12399 0.5143 0.0
C268 C 0.22503 0.12178 0.50758 0.0
O269 O 0.22238 0.14702 0.51915 0.0
C270 C 0.28885 0.15566 0.4514 0.0
O271 O 0.28675 0.12874 0.4454 0.0
O272 O 0.27002 0.16855 0.54106 0.0
C273 C 0.32535 0.55265 0.80457 0.0
O274 O 0.31683 0.52899 0.81214 0.0
O275 O 0.39276 0.52131 0.81524 0.0
Zn276 Zn 0.36839 0.52231 0.78501 0.0
O277 O 0.34618 0.48667 0.7775 0.0
C278 C 0.40299 0.50715 0.74248 0.0
O279 O 0.40219 0.48499 0.75454 0.0
O280 O 0.347 0.55463 0.79295 0.0
C281 C 0.33434 0.48167 0.75521 0.0
O282 O 0.33653 0.50012 0.73847 0.0
C283 C 0.38762 0.50978 0.83614 0.0
O284 O 0.36462 0.49797 0.83926 0.0
O285 O 0.38966 0.52664 0.75195 0.0
C286 C 0.70257 0.41882 0.51798 0.0
O287 O 0.71138 0.409 0.49414 0.0
O288 O 0.73624 0.35798 0.50447 0.0
Zn289 Zn 0.74285 0.38946 0.53471 0.0
O290 O 0.77341 0.41336 0.52446 0.0
C291 C 0.76955 0.36033 0.56921 0.0
O292 O 0.78483 0.35882 0.54808 0.0
O293 O 0.71277 0.41279 0.53902 0.0
C294 C 0.78998 0.42547 0.54111 0.0
O295 O 0.78731 0.423 0.56685 0.0
C296 C 0.75428 0.34945 0.48908 0.0
O297 O 0.77736 0.36167 0.49266 0.0
O298 O 0.74967 0.37328 0.56884 0.0
C299 C 0.65545 0.95882 0.78807 0.0
O300 O 0.63185 0.9555 0.79684 0.0
O301 O 0.61648 0.01826 0.80469 0.0
Zn302 Zn 0.64135 0.0116 0.77352 0.0
O303 O 0.66582 0.04542 0.77331 0.0
C304 C 0.5992 0.99145 0.73822 0.0
O305 O 0.58931 0.98464 0.76094 0.0
O306 O 0.66275 0.98039 0.77774 0.0
C307 C 0.68241 0.0466 0.75461 0.0
O308 O 0.68252 0.02613 0.73475 0.0
C309 C 0.62161 0.03508 0.82595 0.0
O310 O 0.64441 0.0482 0.8286 0.0
O311 O 0.6217 1.00322 0.73833 0.0
C312 C 1.00404 0.17383 0.92454 0.0
O313 O 0.98825 0.16595 0.9044 0.0
O314 O 0.96588 0.22103 0.89262 0.0
Zn315 Zn 0.9995 0.23032 0.9126 0.0
O316 O 0.99629 0.26383 0.94059 0.0
C317 C 0.03424 0.26248 0.88047 0.0
O318 O 0.02351 0.28362 0.8935 0.0
O319 O 0.01034 0.19933 0.93127 0.0
C320 C 0.01444 0.27485 0.95589 0.0
O321 O 0.03652 0.26412 0.95386 0.0
C322 C 0.95569 0.24143 0.88553 0.0
O323 O 0.96704 0.26622 0.89212 0.0
O324 O 0.02698 0.23836 0.88542 0.0
C325 C 0.50693 0.67812 0.42569 0.0
O326 O 0.49309 0.67021 0.40401 0.0
O327 O 0.47001 0.72433 0.39149 0.0
Zn328 Zn 0.50298 0.73392 0.41263 0.0
O329 O 0.50038 0.76957 0.43781 0.0
C330 C 0.53428 0.72611 0.36401 0.0
O331 O 0.51689 0.70593 0.35632 0.0
O332 O 0.51235 0.70367 0.4332 0.0
C333 C 0.50367 0.77257 0.46322 0.0
O334 O 0.50847 0.75121 0.47482 0.0
C335 C 0.46628 0.73938 0.37344 0.0
O336 O 0.4834 0.7597 0.37007 0.0
O337 O 0.53205 0.74054 0.38692 0.0
C338 C 0.03406 0.83016 0.60584 0.0
O339 O 0.04274 0.80687 0.59508 0.0
O340 O 0.97749 0.7967 0.66546 0.0
Zn341 Zn 0.00834 0.79383 0.64021 0.0
O342 O 1.0008 0.76331 0.60896 0.0
C343 C 0.04044 0.79135 0.68605 0.0
O344 O 0.02482 0.80829 0.69879 0.0
O345 O 0.01875 0.83012 0.62589 0.0
C346 C 0.01821 0.74818 0.59942 0.0
O347 O 0.04107 0.75261 0.61 0.0
C348 C 0.96928 0.77594 0.67678 0.0
O349 O 0.9805 0.75297 0.6711 0.0
O350 O 0.03733 0.78321 0.66103 0.0
C351 C 0.53556 0.32987 0.10896 0.0
O352 O 0.54395 0.30632 0.0984 0.0
O353 O 0.48183 0.29639 0.1709 0.0
Zn354 Zn 0.5123 0.29448 0.14491 0.0
O355 O 0.50678 0.26331 0.11392 0.0
C356 C 0.53966 0.27511 0.18692 0.0
O357 O 0.51645 0.26971 0.19599 0.0
O358 O 0.52104 0.3304 0.12967 0.0
C359 C 0.50762 0.23863 0.11852 0.0
O360 O 0.5103 0.23395 0.14348 0.0
C361 C 0.46082 0.28159 0.16729 0.0
O362 O 0.45703 0.26523 0.1444 0.0
O363 O 0.54274 0.28637 0.16554 0.0
H364 H 0.18067 0.71617 0.87754 0.0
H365 H 0.24405 0.74801 0.83233 0.0
H366 H 0.19727 0.7438 0.91893 0.0
H367 H 0.26045 0.77673 0.87322 0.0
H368 H 0.28867 0.82006 0.95412 0.0
H369 H 0.27775 0.78272 0.91775 0.0
H370 H 0.19771 0.79183 0.93373 0.0
H371 H 0.20861 0.82837 0.97047 0.0
C372 C 0.19861 0.72859 0.87683 0.0
C373 C 0.21128 0.7301 0.85214 0.0
C374 C 0.20794 0.7447 0.90029 0.0
C375 C 0.2299 0.76299 0.89932 0.0
C376 C 0.24359 0.76281 0.87481 0.0
C377 C 0.23434 0.74639 0.85141 0.0
C378 C 0.26874 0.81395 0.94993 0.0
C379 C 0.24949 0.82724 0.96512 0.0
C380 C 0.26249 0.79257 0.92906 0.0
C381 C 0.23686 0.78412 0.92284 0.0
C382 C 0.21766 0.7973 0.93828 0.0
C383 C 0.2239 0.8185 0.95923 0.0
H384 H 0.01748 0.52544 0.46256 0.0
H385 H 0.98833 0.59086 0.42656 0.0
H386 H 0.0527 0.52345 0.4298 0.0
H387 H 0.0232 0.58891 0.39341 0.0
H388 H 0.09836 0.59004 0.34737 0.0
H389 H 0.06843 0.59596 0.38514 0.0
H390 H 0.05654 0.50764 0.38214 0.0
H391 H 0.0869 0.50173 0.34482 0.0
C392 C 0.0189 0.53958 0.44772 0.0
C393 C 1.00028 0.55814 0.44677 0.0
C394 C 0.03888 0.53837 0.42888 0.0
C395 C 0.04059 0.55574 0.40869 0.0
C396 C 0.02261 0.57536 0.40877 0.0
C397 C 1.00267 0.57656 0.4277 0.0
C398 C 0.08945 0.57187 0.35485 0.0
C399 C 0.09497 0.54539 0.34299 0.0
C400 C 0.07221 0.57528 0.37646 0.0
C401 C 0.06005 0.5523 0.38672 0.0
C402 C 0.06584 0.52583 0.37506 0.0
C403 C 0.08312 0.52242 0.35349 0.0
H404 H 0.7826 0.7329 0.80241 0.0
H405 H 0.83163 0.78679 0.85781 0.0
H406 H 0.78003 0.6981 0.83312 0.0
H407 H 0.82863 0.75267 0.8893 0.0
H408 H 0.82355 0.68154 0.93896 0.0
H409 H 0.8353 0.70828 0.90218 0.0
H410 H 0.75737 0.69655 0.87466 0.0
H411 H 0.74587 0.66948 0.91078 0.0
C412 C 0.7936 0.73672 0.8208 0.0
C413 C 0.80755 0.76218 0.82773 0.0
C414 C 0.7918 0.71711 0.83865 0.0
C415 C 0.80365 0.72275 0.86405 0.0
C416 C 0.81935 0.74745 0.86993 0.0
C417 C 0.82126 0.76697 0.8519 0.0
C418 C 0.809 0.68448 0.92488 0.0
C419 C 0.78373 0.67338 0.92791 0.0
C420 C 0.81572 0.6999 0.90383 0.0
C421 C 0.79736 0.70454 0.88526 0.0
C422 C 0.77221 0.693 0.88813 0.0
C423 C 0.76552 0.67762 0.90909 0.0
H424 H 0.99929 0.03499 0.45823 0.0
H425 H 0.01125 0.95214 0.42323 0.0
H426 H 0.96441 0.03587 0.42654 0.0
H427 H 0.97654 0.95267 0.39134 0.0
H428 H 0.89582 0.95335 0.35957 0.0
H429 H 0.92961 0.95373 0.39233 0.0
H430 H 0.95779 0.03539 0.37761 0.0
H431 H 0.9239 0.03518 0.34505 0.0
C432 C 0.99441 0.0171 0.44352 0.0
C433 C 0.00767 0.99353 0.44288 0.0
C434 C 0.97459 0.01754 0.42542 0.0
C435 C 0.96765 0.99428 0.40653 0.0
C436 C 0.98118 0.97075 0.4059 0.0
C437 C 1.00108 0.97044 0.42389 0.0
C438 C 0.9091 0.97147 0.36345 0.0
C439 C 0.90718 0.9942 0.34964 0.0
C440 C 0.92857 0.9716 0.38208 0.0
C441 C 0.94645 0.99453 0.38743 0.0
C442 C 0.94419 0.0175 0.37407 0.0
C443 C 0.92482 0.01732 0.35533 0.0
H444 H 0.23384 0.24523 0.71386 0.0
H445 H 0.21553 0.31144 0.67163 0.0
H446 H 0.25373 0.22292 0.67288 0.0
H447 H 0.23523 0.28927 0.63036 0.0
H448 H 0.28768 0.24899 0.56482 0.0
H449 H 0.27461 0.27429 0.60775 0.0
H450 H 0.23678 0.19928 0.63022 0.0
H451 H 0.25004 0.17404 0.58775 0.0
C452 C 0.23439 0.25506 0.69576 0.0
C453 C 0.22306 0.2798 0.69563 0.0
C454 C 0.24561 0.24232 0.6723 0.0
C455 C 0.24574 0.2541 0.64821 0.0
C456 C 0.2356 0.27971 0.64858 0.0
C457 C 0.22436 0.29243 0.67212 0.0
C458 C 0.27667 0.2379 0.57899 0.0
C459 C 0.26991 0.20948 0.57281 0.0
C460 C 0.26911 0.25242 0.60355 0.0
C461 C 0.25476 0.2388 0.62249 0.0
C462 C 0.2482 0.21035 0.61633 0.0
C463 C 0.25566 0.1959 0.59183 0.0
H464 H 0.48868 0.48215 0.5911 0.0
H465 H 0.51218 0.56495 0.62683 0.0
H466 H 0.45996 0.47654 0.62955 0.0
H467 H 0.48366 0.55965 0.66533 0.0
H468 H 0.4099 0.55061 0.71378 0.0
H469 H 0.43776 0.55492 0.67484 0.0
H470 H 0.46163 0.47366 0.6783 0.0
H471 H 0.43346 0.46912 0.71703 0.0
C472 C 0.48772 0.49901 0.60736 0.0
C473 C 0.50238 0.52397 0.60619 0.0
C474 C 0.4714 0.49587 0.62931 0.0
C475 C 0.46947 0.51772 0.65039 0.0
C476 C 0.48439 0.54261 0.64919 0.0
C477 C 0.50071 0.54567 0.6273 0.0
C478 C 0.42103 0.53362 0.70621 0.0
C479 C 0.41952 0.50955 0.71854 0.0
C480 C 0.4371 0.53616 0.68399 0.0
C481 C 0.45197 0.51467 0.67359 0.0
C482 C 0.45023 0.49046 0.68571 0.0
C483 C 0.43419 0.48794 0.70798 0.0
H484 H 0.80722 0.23639 0.66462 0.0
H485 H 0.788 0.30232 0.72552 0.0
H486 H 0.79994 0.26453 0.62931 0.0
H487 H 0.78111 0.33107 0.69028 0.0
H488 H 0.74198 0.35802 0.61622 0.0
H489 H 0.75065 0.3325 0.65323 0.0
H490 H 0.81882 0.30574 0.61186 0.0
H491 H 0.81008 0.33078 0.5749 0.0
C492 C 0.80155 0.25704 0.67031 0.0
C493 C 0.7981 0.26731 0.69757 0.0
C494 C 0.79755 0.27324 0.65021 0.0
C495 C 0.78998 0.30008 0.65699 0.0
C496 C 0.78671 0.3104 0.68441 0.0
C497 C 0.79084 0.29416 0.70454 0.0
C498 C 0.75888 0.3468 0.61512 0.0
C499 C 0.77523 0.34629 0.59251 0.0
C500 C 0.76391 0.3323 0.63638 0.0
C501 C 0.78534 0.31694 0.63538 0.0
C502 C 0.80194 0.317 0.61305 0.0
C503 C 0.79696 0.33149 0.5919 0.0
H504 H 0.48152 0.94258 0.61589 0.0
H505 H 0.52883 0.00788 0.58641 0.0
H506 H 0.51152 0.94207 0.65251 0.0
H507 H 0.55825 0.00893 0.6238 0.0
H508 H 0.61511 0.99569 0.68622 0.0
H509 H 0.58925 0.98832 0.64548 0.0
H510 H 0.5224 0.96956 0.69338 0.0
H511 H 0.54838 0.97576 0.73363 0.0
C512 C 0.4986 0.95658 0.61718 0.0
C513 C 0.50292 0.97539 0.59866 0.0
C514 C 0.51562 0.95665 0.63834 0.0
C515 C 0.53721 0.97581 0.64154 0.0
C516 C 0.54204 0.99373 0.62203 0.0
C517 C 0.52514 0.99336 0.60073 0.0
C518 C 0.59492 0.9898 0.68796 0.0
C519 C 0.58383 0.98637 0.7132 0.0
C520 C 0.58002 0.98569 0.6646 0.0
C521 C 0.55362 0.97832 0.66597 0.0
C522 C 0.54269 0.97464 0.69127 0.0
C523 C 0.5576 0.97845 0.71451 0.0
H524 H 0.81739 0.26507 0.80177 0.0
H525 H 0.84689 0.19377 0.75617 0.0
H526 H 0.8487 0.2645 0.83714 0.0
H527 H 0.87887 0.19331 0.791 0.0
H528 H 0.92775 0.1932 0.86553 0.0
H529 H 0.89002 0.18806 0.83679 0.0
H530 H 0.89345 0.2764 0.83923 0.0
H531 H 0.93035 0.2815 0.86815 0.0
C532 C 0.83041 0.249 0.79968 0.0
C533 C 0.82994 0.22952 0.77643 0.0
C534 C 0.84847 0.24874 0.81972 0.0
C535 C 0.86668 0.22915 0.81674 0.0
C536 C 0.8651 0.20859 0.79412 0.0
C537 C 0.84683 0.20877 0.77416 0.0
C538 C 0.92024 0.21149 0.8601 0.0
C539 C 0.93212 0.23776 0.86914 0.0
C540 C 0.89869 0.20854 0.84354 0.0
C541 C 0.88854 0.23181 0.83575 0.0
C542 C 0.90031 0.25801 0.8452 0.0
C543 C 0.92171 0.26094 0.86166 0.0
H544 H 0.46056 0.91063 0.57662 0.0
H545 H 0.51251 0.9482 0.52238 0.0
H546 H 0.47047 0.86481 0.5552 0.0
H547 H 0.52277 0.90256 0.50074 0.0
H548 H 0.49925 0.82172 0.44488 0.0
H549 H 0.4968 0.86681 0.47133 0.0
H550 H 0.50324 0.83111 0.54481 0.0
H551 H 0.50554 0.78574 0.5183 0.0
C552 C 0.47489 0.9089 0.56079 0.0
C553 C 0.4862 0.93261 0.55133 0.0
C554 C 0.48048 0.88279 0.54841 0.0
C555 C 0.49724 0.88005 0.52609 0.0
C556 C 0.50956 0.90398 0.51766 0.0
C557 C 0.50402 0.93003 0.53017 0.0
C558 C 0.50023 0.82343 0.46667 0.0
C559 C 0.50251 0.80006 0.47946 0.0
C560 C 0.49906 0.84936 0.48183 0.0
C561 C 0.50001 0.85259 0.51018 0.0
C562 C 0.50237 0.82927 0.52301 0.0
C563 C 0.50373 0.80329 0.50781 0.0
H564 H 0.13479 0.32126 0.75631 0.0
H565 H 0.17196 0.25454 0.78145 0.0
H566 H 0.09919 0.31289 0.78717 0.0
H567 H 0.1367 0.24616 0.81278 0.0
H568 H 0.05838 0.22314 0.84789 0.0
H569 H 0.09217 0.23005 0.81488 0.0
H570 H 0.09067 0.31816 0.83505 0.0
H571 H 0.05647 0.31125 0.86754 0.0
C572 C 0.13519 0.3048 0.76855 0.0
C573 C 0.15591 0.28853 0.76671 0.0
C574 C 0.11498 0.30005 0.78628 0.0
C575 C 0.11515 0.27895 0.80259 0.0
C576 C 0.13579 0.26236 0.8003 0.0
C577 C 0.15597 0.26711 0.78247 0.0
C578 C 0.06522 0.24399 0.84524 0.0
C579 C 0.05471 0.26665 0.86035 0.0
C580 C 0.08469 0.24795 0.82641 0.0
C581 C 0.09415 0.27466 0.82229 0.0
C582 C 0.08358 0.2973 0.83739 0.0
C583 C 0.06406 0.29334 0.85616 0.0
H584 H 0.55146 0.59983 0.55789 0.0
H585 H 0.53774 0.53085 0.49564 0.0
H586 H 0.5479 0.63152 0.52519 0.0
H587 H 0.5354 0.56239 0.46201 0.0
H588 H 0.48999 0.62383 0.42417 0.0
H589 H 0.50431 0.59083 0.45143 0.0
H590 H 0.5613 0.65256 0.48798 0.0
H591 H 0.54601 0.68585 0.4617 0.0
C592 C 0.5487 0.59159 0.53684 0.0
C593 C 0.54464 0.5631 0.52918 0.0
C594 C 0.54668 0.60969 0.51798 0.0
C595 C 0.54086 0.59963 0.49087 0.0
C596 C 0.53924 0.57092 0.4828 0.0
C597 C 0.54103 0.55281 0.50186 0.0
C598 C 0.50564 0.63028 0.43797 0.0
C599 C 0.51659 0.65755 0.44108 0.0
C600 C 0.51409 0.61125 0.45343 0.0
C601 C 0.53399 0.61892 0.4721 0.0
C602 C 0.54561 0.64597 0.47429 0.0
C603 C 0.53687 0.66509 0.45917 0.0
H604 H 0.86291 0.82878 0.80537 0.0
H605 H 0.82739 0.75183 0.76664 0.0
H606 H 0.90133 0.82187 0.77776 0.0
H607 H 0.86567 0.74468 0.73859 0.0
H608 H 0.94595 0.73461 0.70231 0.0
H609 H 0.91146 0.73757 0.7357 0.0
H610 H 0.90986 0.82414 0.72991 0.0
H611 H 0.94448 0.82128 0.69679 0.0
C612 C 0.86376 0.80997 0.79142 0.0
C613 C 0.8424 0.79079 0.78806 0.0
C614 C 0.88554 0.80615 0.77535 0.0
C615 C 0.88642 0.78299 0.75553 0.0
C616 C 0.86569 0.76272 0.75367 0.0
C617 C 0.84385 0.76664 0.76981 0.0
C618 C 0.93827 0.75431 0.70817 0.0
C619 C 0.94801 0.77773 0.6968 0.0
C620 C 0.91843 0.75596 0.72729 0.0
C621 C 0.90797 0.78111 0.73568 0.0
C622 C 0.91775 0.80452 0.72431 0.0
C623 C 0.93748 0.80285 0.7051 0.0
H624 H 0.02477 0.98375 0.54483 0.0
H625 H 0.0863 0.94864 0.49802 0.0
H626 H 0.02528 0.94895 0.57485 0.0
H627 H 0.08857 0.91477 0.5292 0.0
H628 H 0.05471 0.83395 0.5561 0.0
H629 H 0.06402 0.87472 0.53444 0.0
H630 H 0.04055 0.9253 0.60693 0.0
H631 H 0.0298 0.88389 0.62806 0.0
C632 C 0.03909 0.96907 0.5417 0.0
C633 C 0.05509 0.96835 0.51889 0.0
C634 C 0.03956 0.94913 0.55899 0.0
C635 C 0.0565 0.9283 0.55416 0.0
C636 C 0.07459 0.92977 0.53307 0.0
C637 C 0.07374 0.94948 0.51547 0.0
C638 C 0.05167 0.85378 0.56752 0.0
C639 C 0.04124 0.85562 0.59372 0.0
C640 C 0.05733 0.87737 0.55516 0.0
C641 C 0.05318 0.90364 0.5688 0.0
C642 C 0.04362 0.90552 0.59549 0.0
C643 C 0.03751 0.88177 0.60771 0.0
H644 H 0.179 0.73325 0.74288 0.0
H645 H 0.12249 0.72066 0.80439 0.0
H646 H 0.14699 0.75033 0.71592 0.0
H647 H 0.0903 0.73755 0.77766 0.0
H648 H 0.05032 0.80171 0.74008 0.0
H649 H 0.08221 0.78234 0.76477 0.0
H650 H 0.10733 0.73645 0.69046 0.0
H651 H 0.07569 0.75612 0.66562 0.0
C652 C 0.15955 0.7337 0.75027 0.0
C653 C 0.15303 0.72582 0.77557 0.0
C654 C 0.14127 0.74348 0.73497 0.0
C655 C 0.11619 0.74557 0.74482 0.0
C656 C 0.10957 0.7367 0.76978 0.0
C657 C 0.12784 0.7269 0.78498 0.0
C658 C 0.0627 0.78759 0.72897 0.0
C659 C 0.06044 0.78045 0.7009 0.0
C660 C 0.08084 0.77631 0.74316 0.0
C661 C 0.09715 0.7577 0.72958 0.0
C662 C 0.09515 0.75087 0.70145 0.0
C663 C 0.07696 0.76208 0.68726 0.0
H664 H 0.01077 0.58751 0.50649 0.0
H665 H 0.95175 0.62596 0.47124 0.0
H666 H 0.02548 0.63165 0.53241 0.0
H667 H 0.96667 0.67057 0.49633 0.0
H668 H 0.97201 0.7282 0.57748 0.0
H669 H 0.96315 0.68884 0.54285 0.0
H670 H 0.04371 0.67802 0.53533 0.0
H671 H 0.05246 0.71688 0.57061 0.0
C672 C 1.00171 0.60579 0.50353 0.0
C673 C 0.98023 0.60363 0.48708 0.0
C674 C 0.01 0.63108 0.51837 0.0
C675 C 0.99696 0.65465 0.51685 0.0
C676 C 0.97677 0.65274 0.4985 0.0
C677 C 0.96842 0.6274 0.48385 0.0
C678 C 0.98784 0.71756 0.56829 0.0
C679 C 0.0129 0.72552 0.577 0.0
C680 C 0.98281 0.6951 0.54822 0.0
C681 C 1.00273 0.68018 0.53621 0.0
C682 C 0.02788 0.68875 0.54436 0.0
C683 C 0.03289 0.7111 0.56456 0.0
H684 H 0.72558 0.8365 0.20075 0.0
H685 H 0.75968 0.79958 0.26286 0.0
H686 H 0.75942 0.87447 0.20591 0.0
H687 H 0.79361 0.83721 0.26817 0.0
H688 H 0.86082 0.9 0.2555 0.0
H689 H 0.83061 0.85979 0.24365 0.0
H690 H 0.76932 0.91289 0.24484 0.0
H691 H 0.79942 0.95309 0.25679 0.0
C692 C 0.74074 0.83632 0.21502 0.0
C693 C 0.7403 0.81541 0.23143 0.0
C694 C 0.75989 0.85802 0.21818 0.0
C695 C 0.77902 0.85885 0.23758 0.0
C696 C 0.77923 0.83703 0.25295 0.0
C697 C 0.75991 0.81558 0.24999 0.0
C698 C 0.84092 0.90311 0.25315 0.0
C699 C 0.83249 0.92973 0.25722 0.0
C700 C 0.82365 0.88008 0.2464 0.0
C701 C 0.79766 0.88324 0.2432 0.0
C702 C 0.7893 0.90987 0.24683 0.0
C703 C 0.8065 0.93286 0.25391 0.0
H704 H 0.71948 0.16854 0.34485 0.0
H705 H 0.75805 0.19688 0.27589 0.0
H706 H 0.75162 0.13576 0.34716 0.0
H707 H 0.79049 0.1645 0.27809 0.0
H708 H 0.81856 0.07796 0.26665 0.0
H709 H 0.79078 0.11509 0.26825 0.0
H710 H 0.79607 0.12926 0.35523 0.0
H711 H 0.82362 0.09153 0.35369 0.0
C712 C 0.73522 0.16804 0.33058 0.0
C713 C 0.7363 0.18477 0.31001 0.0
C714 C 0.75362 0.14937 0.33185 0.0
C715 C 0.77345 0.14724 0.31257 0.0
C716 C 0.77515 0.16517 0.29286 0.0
C717 C 0.75672 0.18373 0.29161 0.0
C718 C 0.81392 0.08901 0.28615 0.0
C719 C 0.82327 0.08168 0.31005 0.0
C720 C 0.79812 0.1105 0.28705 0.0
C721 C 0.79127 0.12527 0.31187 0.0
C722 C 0.80081 0.11814 0.3358 0.0
C723 C 0.81667 0.09659 0.3349 0.0
H724 H 0.44304 0.01108 0.02837 0.0
H725 H 0.40882 0.0159 0.95188 0.0
H726 H 0.40689 0.98024 0.04003 0.0
H727 H 0.37293 0.98409 0.96277 0.0
H728 H 0.29992 0.95474 1.00587 0.0
H729 H 0.33652 0.98403 0.99304 0.0
H730 H 0.38699 0.93439 0.02849 0.0
H731 H 0.35038 0.90554 0.04196 0.0
C732 C 0.42773 1.00529 0.01404 0.0
C733 C 0.42842 0.01584 0.98938 0.0
C734 C 0.40718 0.98747 0.02052 0.0
C735 C 0.38697 0.97973 1.00235 0.0
C736 C 0.388 0.98995 0.97737 0.0
C737 C 0.40857 0.00787 0.97098 0.0
C738 C 0.31883 0.95007 0.01093 0.0
C739 C 0.32223 0.92788 0.02505 0.0
C740 C 0.33982 0.96675 1.00339 0.0
C741 C 0.3647 0.96155 0.00971 0.0
C742 C 0.36808 0.9392 0.02364 0.0
C743 C 0.34708 0.92259 0.03127 0.0
H744 H 0.29025 0.37555 0.31411 0.0
H745 H 0.23209 0.3094 0.29333 0.0
H746 H 0.25931 0.40923 0.31059 0.0
H747 H 0.20082 0.34295 0.28989 0.0
H748 H 0.14831 0.41361 0.31458 0.0
H749 H 0.1783 0.3791 0.31834 0.0
H750 H 0.23502 0.42468 0.27473 0.0
H751 H 0.20528 0.45924 0.27118 0.0
C752 C 0.27078 0.36834 0.30872 0.0
C753 C 0.26345 0.34004 0.30387 0.0
C754 C 0.25309 0.38751 0.30665 0.0
C755 C 0.22764 0.37874 0.29981 0.0
C756 C 0.22023 0.35035 0.29542 0.0
C757 C 0.23802 0.33117 0.29737 0.0
C758 C 0.16716 0.41622 0.30573 0.0
C759 C 0.17442 0.43925 0.29267 0.0
C760 C 0.18429 0.39638 0.30778 0.0
C761 C 0.20907 0.39925 0.29697 0.0
C762 C 0.21619 0.42209 0.28363 0.0
C763 C 0.19907 0.44182 0.28146 0.0
H764 H 0.10701 0.99332 0.45316 0.0
H765 H 0.07909 0.02895 0.53041 0.0
H766 H 0.14763 0.021 0.46091 0.0
H767 H 0.12005 0.05619 0.53899 0.0
H768 H 0.17602 0.12954 0.52347 0.0
H769 H 0.13936 0.09586 0.52082 0.0
H770 H 0.18677 0.03261 0.48556 0.0
H771 H 0.22359 0.06666 0.48771 0.0
C772 C 0.10999 1.00659 0.47216 0.0
C773 C 0.09002 0.00935 0.49109 0.0
C774 C 0.13325 0.02239 0.47671 0.0
C775 C 0.13704 0.04126 0.50039 0.0
C776 C 0.11762 0.04233 0.52026 0.0
C777 C 0.09432 0.02651 0.51562 0.0
C778 C 0.17872 0.10846 0.51516 0.0
C779 C 0.20278 0.10089 0.50566 0.0
C780 C 0.15767 0.08901 0.51392 0.0
C781 C 0.16005 0.06138 0.50319 0.0
C782 C 0.18417 0.05372 0.4938 0.0
C783 C 0.2053 0.07325 0.49503 0.0
H784 H 0.76067 0.20989 0.77796 0.0
H785 H 0.81001 0.1633 0.72337 0.0
H786 H 0.73437 0.16778 0.78396 0.0
H787 H 0.78482 0.12059 0.73016 0.0
H788 H 0.71381 0.06081 0.71387 0.0
H789 H 0.74505 0.1002 0.71491 0.0
H790 H 0.72721 0.12474 0.79911 0.0
H791 H 0.69502 0.0859 0.79759 0.0
C792 C 0.76643 0.19029 0.76827 0.0
C793 C 0.78731 0.18948 0.7505 0.0
C794 C 0.75141 0.16613 0.77157 0.0
C795 C 0.75716 0.14066 0.75721 0.0
C796 C 0.77938 0.13983 0.74102 0.0
C797 C 0.79412 0.16409 0.73746 0.0
C798 C 0.71659 0.07459 0.73261 0.0
C799 C 0.7018 0.07034 0.75556 0.0
C800 C 0.73476 0.09708 0.73334 0.0
C801 C 0.7389 0.11573 0.75717 0.0
C802 C 0.72437 0.11112 0.78029 0.0
C803 C 0.70593 0.08879 0.77945 0.0
H804 H 0.41598 0.01707 0.58942 0.0
H805 H 0.44757 0.00982 0.50889 0.0
H806 H 0.38299 0.04448 0.57574 0.0
H807 H 0.4144 0.03677 0.49485 0.0
H808 H 0.33216 0.0544 0.47501 0.0
H809 H 0.36703 0.02994 0.48882 0.0
H810 H 0.3782 0.09012 0.55992 0.0
H811 H 0.34329 0.11464 0.54618 0.0
C812 C 0.41597 0.02169 0.56889 0.0
C813 C 0.4342 0.01146 0.55017 0.0
C814 C 0.39714 0.03729 0.56101 0.0
C815 C 0.39606 0.04269 0.53418 0.0
C816 C 0.41455 0.03267 0.51557 0.0
C817 C 0.4335 0.01731 0.52354 0.0
C818 C 0.3421 0.0625 0.49354 0.0
C819 C 0.3349 0.08645 0.5095 0.0
C820 C 0.36217 0.04856 0.50137 0.0
C821 C 0.37534 0.0581 0.52547 0.0
C822 C 0.36825 0.08214 0.54137 0.0
C823 C 0.34835 0.09625 0.5334 0.0
H824 H 0.59743 0.54612 0.56169 0.0
H825 H 0.5535 0.47782 0.51681 0.0
H826 H 0.63671 0.52326 0.55028 0.0
H827 H 0.5925 0.45482 0.50501 0.0
H828 H 0.67123 0.42794 0.47778 0.0
H829 H 0.63566 0.45712 0.48142 0.0
H830 H 0.65038 0.48 0.56649 0.0
H831 H 0.68584 0.45077 0.56297 0.0
C832 C 0.59647 0.52671 0.54843 0.0
C833 C 0.57277 0.51374 0.53974 0.0
C834 C 0.61875 0.51346 0.54222 0.0
C835 C 0.61763 0.48713 0.52698 0.0
C836 C 0.59402 0.47517 0.51661 0.0
C837 C 0.57175 0.48829 0.52315 0.0
C838 C 0.66696 0.43929 0.49725 0.0
C839 C 0.68129 0.4369 0.52013 0.0
C840 C 0.64659 0.45598 0.49929 0.0
C841 C 0.64035 0.47097 0.52418 0.0
C842 C 0.65497 0.46901 0.54695 0.0
C843 C 0.67513 0.45205 0.54498 0.0
H844 H 0.74902 0.25457 0.33159 0.0
H845 H 0.69038 0.2118 0.37467 0.0
H846 H 0.76294 0.28285 0.37369 0.0
H847 H 0.70444 0.23933 0.41724 0.0
H848 H 0.70833 0.32291 0.47271 0.0
H849 H 0.70012 0.28677 0.43478 0.0
H850 H 0.78099 0.28699 0.41806 0.0
H851 H 0.78915 0.3237 0.45562 0.0
C852 C 0.73986 0.25064 0.35041 0.0
C853 C 0.71882 0.23124 0.35028 0.0
C854 C 0.7477 0.26675 0.3745 0.0
C855 C 0.73456 0.26362 0.39883 0.0
C856 C 0.71465 0.24263 0.3988 0.0
C857 C 0.70679 0.22665 0.37465 0.0
C858 C 0.72438 0.31512 0.46107 0.0
C859 C 0.74936 0.32636 0.46704 0.0
C860 C 0.7197 0.29419 0.43945 0.0
C861 C 0.73992 0.28391 0.42337 0.0
C862 C 0.76497 0.29465 0.42983 0.0
C863 C 0.76964 0.31567 0.4514 0.0
H864 H 0.47872 0.06169 0.91167 0.0
H865 H 0.5324 0.05859 0.97469 0.0
H866 H 0.51328 0.05971 0.87816 0.0
H867 H 0.56723 0.05632 0.94137 0.0
H868 H 0.62601 0.06949 0.87396 0.0
H869 H 0.59279 0.07932 0.9079 0.0
H870 H 0.53915 0.02285 0.85941 0.0
H871 H 0.57208 0.01334 0.82542 0.0
C872 C 0.49811 0.06121 0.91829 0.0
C873 C 0.5031 0.06041 0.94557 0.0
C874 C 0.51784 0.05978 0.89919 0.0
C875 C 0.54297 0.05741 0.90703 0.0
C876 C 0.54813 0.0583 0.93467 0.0
C877 C 0.5283 0.05974 0.95378 0.0
C878 C 0.60711 0.05919 0.87054 0.0
C879 C 0.60171 0.04063 0.84694 0.0
C880 C 0.5881 0.06479 0.89004 0.0
C881 C 0.56326 0.05206 0.88628 0.0
C882 C 0.55794 0.03344 0.86271 0.0
C883 C 0.57692 0.02779 0.84331 0.0
H884 H 0.27974 0.23438 0.30885 0.0
H885 H 0.33664 0.28762 0.35523 0.0
H886 H 0.28017 0.20102 0.34079 0.0
H887 H 0.33747 0.2543 0.38748 0.0
H888 H 0.29739 0.21192 0.45701 0.0
H889 H 0.30606 0.24095 0.42154 0.0
H890 H 0.30348 0.16862 0.36169 0.0
H891 H 0.29454 0.13956 0.39711 0.0
C892 C 0.29311 0.23827 0.32539 0.0
C893 C 0.30838 0.26322 0.32955 0.0
C894 C 0.29332 0.21932 0.34378 0.0
C895 C 0.30865 0.2251 0.36693 0.0
C896 C 0.32519 0.24937 0.37007 0.0
C897 C 0.32508 0.26823 0.35147 0.0
C898 C 0.29879 0.20217 0.43631 0.0
C899 C 0.29506 0.17338 0.42994 0.0
C900 C 0.30402 0.21882 0.41597 0.0
C901 C 0.30554 0.20714 0.38872 0.0
C902 C 0.30225 0.17832 0.38242 0.0
C903 C 0.29715 0.16165 0.40277 0.0
H904 H 0.48011 0.50987 0.97938 0.0
H905 H 0.52977 0.4877 0.91185 0.0
H906 H 0.44564 0.51397 0.94833 0.0
H907 H 0.49554 0.49177 0.8806 0.0
H908 H 0.43749 0.52986 0.8339 0.0
H909 H 0.47116 0.52721 0.86584 0.0
H910 H 0.41751 0.48452 0.91531 0.0
H911 H 0.38361 0.48747 0.88348 0.0
C912 C 0.4835 0.50582 0.95783 0.0
C913 C 0.50744 0.49854 0.94786 0.0
C914 C 0.46386 0.50808 0.94008 0.0
C915 C 0.46786 0.50322 0.912 0.0
C916 C 0.49195 0.49604 0.90211 0.0
C917 C 0.51152 0.49369 0.91989 0.0
C918 C 0.43279 0.51998 0.85163 0.0
C919 C 0.40783 0.50882 0.8561 0.0
C920 C 0.45216 0.51833 0.86985 0.0
C921 C 0.44704 0.50554 0.89304 0.0
C922 C 0.42201 0.49472 0.89775 0.0
C923 C 0.40261 0.49629 0.87944 0.0
H924 H 0.75778 0.76358 0.2024 0.0
H925 H 0.6898 0.77801 0.16196 0.0
H926 H 0.77687 0.74633 0.15889 0.0
H927 H 0.70827 0.76016 0.11848 0.0
H928 H 0.75263 0.73898 0.04155 0.0
H929 H 0.74119 0.76584 0.08421 0.0
H930 H 0.76805 0.7041 0.12773 0.0
H931 H 0.77983 0.67756 0.08532 0.0
C932 C 0.74721 0.76354 0.18404 0.0
C933 C 0.72237 0.77186 0.1853 0.0
C934 C 0.75795 0.75344 0.15921 0.0
C935 C 0.74399 0.75157 0.13521 0.0
C936 C 0.71965 0.76148 0.13648 0.0
C937 C 0.70897 0.77152 0.16131 0.0
C938 C 0.75639 0.73132 0.06024 0.0
C939 C 0.76697 0.706 0.05999 0.0
C940 C 0.74974 0.74667 0.08468 0.0
C941 C 0.75363 0.7371 0.10939 0.0
C942 C 0.76509 0.71229 0.10912 0.0
C943 C 0.77166 0.69693 0.08474 0.0
H944 H 0.01048 0.06691 0.12491 0.0
H945 H 0.99871 0.97979 0.09788 0.0
H946 H 0.98276 0.06152 0.16406 0.0
H947 H 0.97163 0.97407 0.13757 0.0
H948 H 0.95057 0.976 0.22921 0.0
H949 H 0.97776 0.98083 0.18964 0.0
H950 H 0.93497 0.04678 0.17113 0.0
H951 H 0.90757 0.04185 0.21048 0.0
C952 C 1.00182 0.04665 0.12738 0.0
C953 C 0.00652 0.02377 0.10847 0.0
C954 C 0.98607 0.04354 0.14972 0.0
C955 C 0.97508 0.01739 0.15374 0.0
C956 C 0.98006 0.99442 0.135 0.0
C957 C 0.99552 0.99763 0.11242 0.0
C958 C 0.94696 0.99152 0.21669 0.0
C959 C 0.92697 0.00857 0.22294 0.0
C960 C 0.96242 0.99416 0.19401 0.0
C961 C 0.95842 0.01418 0.17743 0.0
C962 C 0.93852 0.03131 0.18373 0.0
C963 C 0.92281 0.02839 0.20616 0.0
H964 H 0.28846 0.73358 0.17552 0.0
H965 H 0.2917 0.8107 0.22813 0.0
H966 H 0.27998 0.75704 0.13707 0.0
H967 H 0.28429 0.83488 0.18955 0.0
H968 H 0.24415 0.8636 0.11835 0.0
H969 H 0.25229 0.84131 0.15774 0.0
H970 H 0.30058 0.78705 0.10885 0.0
H971 H 0.29177 0.80854 0.06961 0.0
C972 C 0.28753 0.75569 0.17862 0.0
C973 C 0.29072 0.77048 0.20449 0.0
C974 C 0.28288 0.76921 0.15668 0.0
C975 C 0.28159 0.79795 0.16012 0.0
C976 C 0.28487 0.81273 0.18619 0.0
C977 C 0.28935 0.79906 0.2082 0.0
C978 C 0.25648 0.8469 0.11609 0.0
C979 C 0.26713 0.8377 0.0908 0.0
C980 C 0.26129 0.83422 0.13869 0.0
C981 C 0.27697 0.81221 0.13648 0.0
C982 C 0.28796 0.80349 0.11124 0.0
C983 C 0.283 0.81595 0.08871 0.0
H984 H 0.03778 0.50718 0.08243 0.0
H985 H 0.99327 0.44042 0.11281 0.0
H986 H 0.06922 0.50787 0.11796 0.0
H987 H 0.0243 0.44111 0.14879 0.0
H988 H 0.09384 0.43777 0.2005 0.0
H989 H 0.06698 0.43337 0.16072 0.0
H990 H 0.07081 0.52198 0.16584 0.0
H991 H 0.09812 0.52634 0.20517 0.0
C992 C 0.03499 0.49247 0.09665 0.0
C993 C 0.01322 0.47383 0.09511 0.0
C994 C 0.05281 0.49295 0.1171 0.0
C995 C 0.04916 0.47481 0.13654 0.0
C996 C 0.02788 0.45524 0.1341 0.0
C997 C 0.01011 0.45476 0.11354 0.0
C998 C 0.08907 0.45632 0.19305 0.0
C999 C 0.09813 0.48243 0.2061 0.0
C1000 C 0.07355 0.45379 0.17029 0.0
C1001 C 0.06668 0.4773 0.16 0.0
C1002 C 0.07602 0.50339 0.17289 0.0
C1003 C 0.09156 0.50592 0.19561 0.0
H1004 H 0.36107 0.71938 0.23924 0.0
H1005 H 0.31355 0.73469 0.30985 0.0
H1006 H 0.39751 0.71585 0.2678 0.0
H1007 H 0.34997 0.73102 0.33878 0.0
H1008 H 0.42176 0.70739 0.38063 0.0
H1009 H 0.38379 0.70081 0.35191 0.0
H1010 H 0.42161 0.75331 0.29834 0.0
H1011 H 0.45912 0.75994 0.32674 0.0
C1012 C 0.35845 0.72157 0.26094 0.0
C1013 C 0.33482 0.72785 0.2725 0.0
C1014 C 0.37923 0.7196 0.27728 0.0
C1015 C 0.37672 0.72366 0.30557 0.0
C1016 C 0.3525 0.72778 0.31707 0.0
C1017 C 0.33169 0.72988 0.30061 0.0
C1018 C 0.42194 0.71736 0.36262 0.0
C1019 C 0.44343 0.73425 0.35601 0.0
C1020 C 0.40021 0.71367 0.34626 0.0
C1021 C 0.39978 0.72638 0.32277 0.0
C1022 C 0.42144 0.74288 0.31606 0.0
C1023 C 0.4429 0.74686 0.3325 0.0
H1024 H 0.95435 0.40882 0.06405 0.0
H1025 H 0.02737 0.4423 0.03797 0.0
H1026 H 0.9636 0.36284 0.04286 0.0
H1027 H 0.03679 0.39642 0.01613 0.0
H1028 H 0.0499 0.30583 0.98927 0.0
H1029 H 0.04411 0.34832 0.01961 0.0
H1030 H 0.96533 0.34363 0.99562 0.0
H1031 H 0.97096 0.30121 0.96577 0.0
C1032 C 0.97266 0.40602 0.05427 0.0
C1033 C 0.99016 0.42881 0.05244 0.0
C1034 C 0.97789 0.37987 0.04191 0.0
C1035 C 1.00073 0.37603 0.02732 0.0
C1036 C 0.01907 0.39861 0.02727 0.0
C1037 C 0.01379 0.42483 0.03978 0.0
C1038 C 0.0313 0.31379 0.99064 0.0
C1039 C 0.0109 0.30011 0.97506 0.0
C1040 C 0.02802 0.33819 0.00796 0.0
C1041 C 1.00423 0.34933 0.01019 0.0
C1042 C 0.98379 0.33539 0.99483 0.0
C1043 C 0.98708 0.31113 0.97751 0.0
H1044 H 0.63287 0.77025 0.23246 0.0
H1045 H 0.6847 0.75943 0.29498 0.0
H1046 H 0.5966 0.75719 0.26088 0.0
H1047 H 0.6486 0.74684 0.32373 0.0
H1048 H 0.57685 0.76078 0.37678 0.0
H1049 H 0.61284 0.77131 0.34746 0.0
H1050 H 0.57738 0.716 0.28162 0.0
H1051 H 0.54122 0.7054 0.31096 0.0
C1052 C 0.6364 0.76482 0.25222 0.0
C1053 C 0.66142 0.76588 0.26169 0.0
C1054 C 0.61575 0.75737 0.26846 0.0
C1055 C 0.6198 0.75112 0.29455 0.0
C1056 C 0.6449 0.75192 0.30385 0.0
C1057 C 0.66551 0.7591 0.2875 0.0
C1058 C 0.5767 0.75082 0.35607 0.0
C1059 C 0.55617 0.73225 0.34619 0.0
C1060 C 0.59739 0.75675 0.33933 0.0
C1061 C 0.59792 0.74442 0.31229 0.0
C1062 C 0.57738 0.72593 0.30234 0.0
C1063 C 0.55676 0.71977 0.31918 0.0
H1064 H 0.05152 0.09835 0.05672 0.0
H1065 H 0.03808 0.02808 0.99585 0.0
H1066 H 0.047 0.12914 0.02333 0.0
H1067 H 0.03442 0.05874 0.96157 0.0
H1068 H 0.9871 0.1196 0.9242 0.0
H1069 H 1.00232 0.08704 0.95148 0.0
H1070 H 0.0607 0.14882 0.98488 0.0
H1071 H 0.04473 0.18163 0.9585 0.0
C1072 C 0.04862 0.08965 0.0358 0.0
C1073 C 0.04512 0.06106 0.02868 0.0
C1074 C 0.04602 0.10721 0.01658 0.0
C1075 C 0.03998 0.09651 0.98967 0.0
C1076 C 0.03856 0.06772 0.98218 0.0
C1077 C 0.04108 0.05014 1.00159 0.0
C1078 C 1.00329 0.12615 0.93725 0.0
C1079 C 0.01443 0.15332 0.9395 0.0
C1080 C 0.01222 0.10738 0.95272 0.0
C1081 C 0.03272 0.11526 0.97058 0.0
C1082 C 0.04457 0.14213 0.97181 0.0
C1083 C 0.03543 0.16096 0.95662 0.0
H1084 H 0.32684 0.25054 0.26889 0.0
H1085 H 0.36184 0.32973 0.30239 0.0
H1086 H 0.36404 0.24296 0.23933 0.0
H1087 H 0.39843 0.32323 0.27235 0.0
H1088 H 0.46656 0.30275 0.22063 0.0
H1089 H 0.43491 0.30198 0.2568 0.0
H1090 H 0.37925 0.26003 0.19966 0.0
H1091 H 0.41124 0.25981 0.16386 0.0
C1092 C 0.34294 0.26589 0.27046 0.0
C1093 C 0.34164 0.29068 0.28778 0.0
C1094 C 0.36403 0.26189 0.25321 0.0
C1095 C 0.38414 0.28274 0.25288 0.0
C1096 C 0.38357 0.30658 0.27195 0.0
C1097 C 0.36262 0.31039 0.28925 0.0
C1098 C 0.44756 0.29334 0.21581 0.0
C1099 C 0.44139 0.28156 0.18927 0.0
C1100 C 0.42934 0.29289 0.23659 0.0
C1101 C 0.40435 0.28095 0.23134 0.0
C1102 C 0.39834 0.26893 0.20476 0.0
C1103 C 0.41665 0.26909 0.18407 0.0
H1104 H 0.52511 0.48277 0.04691 0.0
H1105 H 0.58624 0.44773 0.99935 0.0
H1106 H 0.52576 0.44774 0.07665 0.0
H1107 H 0.58845 0.41336 0.0301 0.0
H1108 H 0.55487 0.3328 0.05843 0.0
H1109 H 0.56373 0.37327 0.03605 0.0
H1110 H 0.54216 0.42477 0.10875 0.0
H1111 H 0.53193 0.38379 0.13061 0.0
C1112 C 0.53939 0.46806 0.04357 0.0
C1113 C 0.55534 0.46756 0.02074 0.0
C1114 C 0.53991 0.44795 0.06066 0.0
C1115 C 0.55678 0.42709 0.05557 0.0
C1116 C 0.57462 0.42849 0.03424 0.0
C1117 C 0.57378 0.44846 0.01688 0.0
C1118 C 0.55213 0.35277 0.06971 0.0
C1119 C 0.5424 0.35502 0.09621 0.0
C1120 C 0.55753 0.37616 0.05694 0.0
C1121 C 0.55375 0.40258 0.07045 0.0
C1122 C 0.5449 0.40485 0.0974 0.0
C1123 C 0.53908 0.38134 0.11004 0.0
H1124 H 0.64165 0.18612 0.27062 0.0
H1125 H 0.6829 0.26479 0.26657 0.0
H1126 H 0.60734 0.19893 0.24356 0.0
H1127 H 0.64861 0.27815 0.23989 0.0
H1128 H 0.59032 0.28314 0.17398 0.0
H1129 H 0.62643 0.26764 0.19599 0.0
H1130 H 0.57482 0.23221 0.25251 0.0
H1131 H 0.53882 0.24733 0.23047 0.0
C1132 C 0.6434 0.20597 0.26344 0.0
C1133 C 0.66469 0.22448 0.27027 0.0
C1134 C 0.62381 0.21345 0.24826 0.0
C1135 C 0.62524 0.23963 0.23975 0.0
C1136 C 0.64708 0.25776 0.24591 0.0
C1137 C 0.66661 0.25025 0.26115 0.0
C1138 C 0.5867 0.27205 0.19111 0.0
C1139 C 0.56171 0.26649 0.2005 0.0
C1140 C 0.60738 0.26323 0.20373 0.0
C1141 C 0.60343 0.24856 0.22585 0.0
C1142 C 0.57844 0.24306 0.23522 0.0
C1143 C 0.55782 0.25195 0.22271 0.0
H1144 H 0.4666 0.12143 0.97771 0.0
H1145 H 0.51598 0.0791 0.0221 0.0
H1146 H 0.47772 0.1644 0.00751 0.0
H1147 H 0.52828 0.12205 0.05138 0.0
H1148 H 0.5056 0.18396 0.12265 0.0
H1149 H 0.50412 0.14554 0.08661 0.0
H1150 H 0.50684 0.20197 0.02743 0.0
H1151 H 0.50764 0.24072 0.06386 0.0
C1152 C 0.48092 0.12184 0.99303 0.0
C1153 C 0.49073 0.09733 0.99762 0.0
C1154 C 0.48722 0.14633 0.01022 0.0
C1155 C 0.50351 0.14659 0.03225 0.0
C1156 C 0.51521 0.12246 0.03503 0.0
C1157 C 0.50863 0.09799 0.01803 0.0
C1158 C 0.50595 0.18827 0.10198 0.0
C1159 C 0.50663 0.21543 0.09617 0.0
C1160 C 0.50541 0.16618 0.08122 0.0
C1161 C 0.50572 0.17059 0.05401 0.0
C1162 C 0.5065 0.19781 0.04814 0.0
C1163 C 0.50694 0.22 0.06901 0.0
H1164 H 0.26051 0.31395 0.73775 0.0
H1165 H 0.20462 0.36597 0.71646 0.0
H1166 H 0.29336 0.35279 0.74011 0.0
H1167 H 0.23702 0.40493 0.71897 0.0
H1168 H 0.30459 0.46635 0.71065 0.0
H1169 H 0.27697 0.42406 0.69966 0.0
H1170 H 0.29997 0.39569 0.77273 0.0
H1171 H 0.3278 0.43785 0.78365 0.0
C1172 C 0.25555 0.3336 0.73289 0.0
C1173 C 0.23028 0.33727 0.72694 0.0
C1174 C 0.27414 0.35584 0.73452 0.0
C1175 C 0.26771 0.38199 0.72999 0.0
C1176 C 0.24266 0.38505 0.72238 0.0
C1177 C 0.22411 0.36288 0.72096 0.0
C1178 C 0.30389 0.45103 0.72432 0.0
C1179 C 0.31825 0.45557 0.74815 0.0
C1180 C 0.28803 0.42682 0.718 0.0
C1181 C 0.28629 0.40653 0.7353 0.0
C1182 C 0.30115 0.41076 0.7588 0.0
C1183 C 0.31692 0.43504 0.76519 0.0
H1184 H 0.21085 0.67034 0.84849 0.0
H1185 H 0.24415 0.69011 0.77349 0.0
H1186 H 0.24201 0.63654 0.85065 0.0
H1187 H 0.27465 0.65557 0.77472 0.0
H1188 H 0.33803 0.60499 0.79326 0.0
H1189 H 0.311 0.64318 0.79713 0.0
H1190 H 0.2493 0.59176 0.82723 0.0
H1191 H 0.27651 0.55385 0.82404 0.0
C1192 C 0.22509 0.66758 0.83265 0.0
C1193 C 0.22511 0.68254 0.81074 0.0
C1194 C 0.24271 0.64804 0.83366 0.0
C1195 C 0.2607 0.64309 0.81271 0.0
C1196 C 0.26124 0.65894 0.79131 0.0
C1197 C 0.24366 0.67851 0.7904 0.0
C1198 C 0.31875 0.6019 0.8009 0.0
C1199 C 0.3094 0.57631 0.80822 0.0
C1200 C 0.30321 0.62377 0.80299 0.0
C1201 C 0.27792 0.62056 0.81238 0.0
C1202 C 0.26878 0.59513 0.82027 0.0
C1203 C 0.28435 0.57329 0.81826 0.0
H1204 H 0.89104 0.54498 0.47024 0.0
H1205 H 0.94215 0.49485 0.50344 0.0
H1206 H 0.85435 0.51622 0.48471 0.0
H1207 H 0.9056 0.46582 0.518 0.0
H1208 H 0.83301 0.44649 0.56898 0.0
H1209 H 0.86995 0.47306 0.55252 0.0
H1210 H 0.83445 0.46743 0.47466 0.0
H1211 H 0.79752 0.4409 0.491 0.0
C1212 C 0.89424 0.52756 0.48044 0.0
C1213 C 0.91912 0.52187 0.48578 0.0
C1214 C 0.87341 0.51111 0.48863 0.0
C1215 C 0.87718 0.48886 0.50254 0.0
C1216 C 0.90218 0.48299 0.50753 0.0
C1217 C 0.923 0.49933 0.49907 0.0
C1218 C 0.83308 0.45094 0.54836 0.0
C1219 C 0.81232 0.44167 0.53132 0.0
C1220 C 0.85429 0.46596 0.5389 0.0
C1221 C 0.85503 0.47224 0.51232 0.0
C1222 C 0.83428 0.46303 0.4953 0.0
C1223 C 0.81319 0.44777 0.50466 0.0
H1224 H 0.78984 0.87558 0.81549 0.0
H1225 H 0.7334 0.80923 0.78916 0.0
H1226 H 0.75864 0.90905 0.81212 0.0
H1227 H 0.70195 0.8425 0.78562 0.0
H1228 H 0.64672 0.91003 0.80876 0.0
H1229 H 0.67727 0.87631 0.81335 0.0
H1230 H 0.73589 0.92665 0.77711 0.0
H1231 H 0.70561 0.96045 0.7729 0.0
C1232 C 0.77071 0.86829 0.80888 0.0
C1233 C 0.76392 0.83999 0.80251 0.0
C1234 C 0.75286 0.88734 0.80688 0.0
C1235 C 0.7278 0.87845 0.7985 0.0
C1236 C 0.72098 0.85002 0.79243 0.0
C1237 C 0.7389 0.83099 0.79439 0.0
C1238 C 0.66613 0.91388 0.80177 0.0
C1239 C 0.67371 0.93798 0.79052 0.0
C1240 C 0.6836 0.89449 0.80428 0.0
C1241 C 0.70905 0.89883 0.79568 0.0
C1242 C 0.71655 0.92286 0.78432 0.0
C1243 C 0.69911 0.94218 0.78175 0.0
H1244 H 0.58234 0.52563 0.03436 0.0
H1245 H 0.60607 0.49455 0.95393 0.0
H1246 H 0.62428 0.55092 0.04249 0.0
H1247 H 0.64752 0.52045 0.96121 0.0
H1248 H 0.72517 0.56217 0.9847 0.0
H1249 H 0.68763 0.52919 0.98284 0.0
H1250 H 0.64435 0.59143 0.02759 0.0
H1251 H 0.68191 0.62392 0.03014 0.0
C1252 C 0.59685 0.52371 0.01872 0.0
C1253 C 0.59112 0.5084 0.99352 0.0
C1254 C 0.62071 0.53848 0.02312 0.0
C1255 C 0.63922 0.53825 1.00231 0.0
C1256 C 0.63394 0.52113 0.97778 0.0
C1257 C 0.61019 0.50633 0.97351 0.0
C1258 C 0.70764 0.56876 0.99418 0.0
C1259 C 0.70656 0.59576 0.00745 0.0
C1260 C 0.68607 0.54985 0.99311 0.0
C1261 C 0.66286 0.55751 1.00516 0.0
C1262 C 0.66194 0.58449 0.01857 0.0
C1263 C 0.68348 0.6033 0.01976 0.0
H1264 H 0.31003 0.67429 0.24294 0.0
H1265 H 0.25042 0.71672 0.28627 0.0
H1266 H 0.28771 0.62996 0.24961 0.0
H1267 H 0.22715 0.67283 0.29179 0.0
H1268 H 0.19199 0.58997 0.30561 0.0
H1269 H 0.22186 0.63094 0.30946 0.0
H1270 H 0.25128 0.60446 0.22963 0.0
H1271 H 0.22221 0.56305 0.22636 0.0
C1272 C 0.29244 0.67399 0.25454 0.0
C1273 C 0.28171 0.69866 0.26395 0.0
C1274 C 0.27939 0.6487 0.25798 0.0
C1275 C 0.25526 0.64769 0.27069 0.0
C1276 C 0.24566 0.67262 0.28199 0.0
C1277 C 0.25886 0.69781 0.27876 0.0
C1278 C 0.20498 0.59284 0.28897 0.0
C1279 C 0.20459 0.57335 0.26559 0.0
C1280 C 0.22209 0.61638 0.29115 0.0
C1281 C 0.23904 0.62119 0.26985 0.0
C1282 C 0.23893 0.60133 0.24669 0.0
C1283 C 0.22203 0.57765 0.24467 0.0
H1284 H 0.91027 0.48357 0.05671 0.0
H1285 H 0.97149 0.54366 0.04211 0.0
H1286 H 0.8793 0.51286 0.04259 0.0
H1287 H 0.94059 0.57385 0.02906 0.0
H1288 H 0.88049 0.60567 0.97858 0.0
H1289 H 0.91176 0.57708 0.99315 0.0
H1290 H 0.86016 0.55481 0.05635 0.0
H1291 H 0.82869 0.58268 0.0413 0.0
C1292 C 0.91698 0.5032 0.05058 0.0
C1293 C 0.94314 0.51141 0.05034 0.0
C1294 C 0.8993 0.52013 0.04275 0.0
C1295 C 0.90741 0.54578 0.03467 0.0
C1296 C 0.93368 0.5541 0.03481 0.0
C1297 C 0.95136 0.53704 0.04254 0.0
C1298 C 0.87583 0.59465 0.99557 0.0
C1299 C 0.85204 0.59638 0.00868 0.0
C1300 C 0.89383 0.5784 1.00406 0.0
C1301 C 0.88851 0.56357 0.02593 0.0
C1302 C 0.86478 0.56554 0.03916 0.0
C1303 C 0.84675 0.58166 0.0306 0.0
H1304 H 0.10106 0.04656 0.06592 0.0
H1305 H 0.05815 0.98081 0.01637 0.0
H1306 H 0.14057 0.02437 0.05397 0.0
H1307 H 0.09739 0.95842 1.00408 0.0
H1308 H 0.17645 0.93234 0.97764 0.0
H1309 H 0.14092 0.96157 0.98198 0.0
H1310 H 0.15403 0.98036 0.06772 0.0
H1311 H 0.18948 0.95114 0.06347 0.0
C1312 C 0.1004 0.02792 0.05154 0.0
C1313 C 0.07692 0.01545 0.04164 0.0
C1314 C 0.12281 0.01502 0.04501 0.0
C1315 C 0.12203 0.9895 0.02831 0.0
C1316 C 0.09866 0.97815 0.01681 0.0
C1317 C 0.07626 0.99095 0.02363 0.0
C1318 C 0.17185 0.94282 0.9974 0.0
C1319 C 0.18573 0.93929 0.02025 0.0
C1320 C 0.15148 0.95954 0.99985 0.0
C1321 C 0.14478 0.97339 0.02514 0.0
C1322 C 0.15898 0.97029 0.04788 0.0
C1323 C 0.17914 0.95333 0.04549 0.0
loop_
_geom_bond_atom_site_label_1
_geom_bond_atom_site_label_2
_geom_bond_distance
_geom_bond_site_symmetry_2
_ccdc_geom_bond_type
C0 N1 1.317 . S
C0 N2 1.326 1_455 S
C0 C3 1.485 1_545 S
N1 C0 1.317 . S
N1 N5 1.370 . S
N2 C0 1.326 1_655 S
N2 C4 1.349 . S
C3 C0 1.485 1_565 S
C3 H7 0.960 . S
C3 H8 0.961 . S
C3 H9 0.960 . S
C4 N2 1.349 . S
C4 N5 1.307 1_655 S
C4 C6 1.486 . S
N5 N1 1.370 . S
N5 C4 1.307 1_455 S
C6 C4 1.486 . S
C6 H10 0.960 . S
C6 H11 0.960 . S
C6 H12 0.959 . S
H7 C3 0.960 . S
H8 C3 0.961 . S
H9 C3 0.960 . S
H10 C6 0.960 . S
H11 C6 0.960 . S
H12 C6 0.959 . S
C13 N14 1.317 . S
C13 N15 1.348 . S
C13 C16 1.485 . S
N14 C13 1.317 . S
N14 N18 1.370 . S
N15 C13 1.348 . S
N15 C17 1.346 . S
C16 C13 1.485 . S
C16 H20 0.960 . S
C16 H21 0.961 . S
C16 H22 0.960 . S
C17 N15 1.346 . S
C17 N18 1.307 . S
C17 C19 1.486 . S
N18 N14 1.370 . S
N18 C17 1.307 . S
C19 C17 1.486 . S
C19 H23 0.960 . S
C19 H24 0.960 . S
C19 H25 0.959 . S
H20 C16 0.960 . S
H21 C16 0.961 . S
H22 C16 0.960 . S
H23 C19 0.960 . S
H24 C19 0.960 . S
H25 C19 0.959 . S
C26 N27 1.317 . S
C26 N28 1.348 . S
C26 C29 1.485 . S
N27 C26 1.317 . S
N27 N31 1.370 . S
N28 C26 1.348 . S
N28 C30 1.346 . S
C29 C26 1.485 . S
C29 H33 0.960 . S
C29 H34 0.961 . S
C29 H35 0.960 . S
C30 N28 1.346 . S
C30 N31 1.307 . S
C30 C32 1.486 . S
N31 N27 1.370 . S
N31 C30 1.307 . S
C32 C30 1.486 . S
C32 H36 0.960 1_554 S
C32 H37 0.960 . S
C32 H38 0.959 . S
H33 C29 0.960 . S
H34 C29 0.961 . S
H35 C29 0.960 . S
H36 C32 0.960 1_556 S
H37 C32 0.960 . S
H38 C32 0.959 . S
C39 N40 1.317 . S
C39 N41 1.348 . S
C39 C42 1.485 . S
N40 C39 1.317 . S
N40 N44 1.370 . S
N41 C39 1.348 . S
N41 C43 1.346 . S
C42 C39 1.485 . S
C42 H46 0.960 . S
C42 H47 0.961 . S
C42 H48 0.960 . S
C43 N41 1.346 . S
C43 N44 1.307 . S
C43 C45 1.486 . S
N44 N40 1.370 . S
N44 C43 1.307 . S
C45 C43 1.486 . S
C45 H49 0.960 . S
C45 H50 0.960 . S
C45 H51 0.959 . S
H46 C42 0.960 . S
H47 C42 0.961 . S
H48 C42 0.960 . S
H49 C45 0.960 . S
H50 C45 0.960 . S
H51 C45 0.959 . S
C52 N53 1.317 . S
C52 N54 1.348 . S
C52 C55 1.499 . S
N53 C52 1.317 . S
N53 N57 1.370 . S
N54 C52 1.348 . S
N54 C56 1.346 . S
C55 C52 1.499 . S
C55 H59 0.963 . S
C55 H60 0.943 1_455 S
C55 H61 0.962 . S
C56 N54 1.346 . S
C56 N57 1.307 . S
C56 C58 1.486 1_565 S
N57 N53 1.370 . S
N57 C56 1.307 . S
C58 C56 1.486 1_545 S
C58 H62 0.960 . S
C58 H63 0.960 . S
C58 H64 0.959 . S
H59 C55 0.963 . S
H60 C55 0.943 1_655 S
H61 C55 0.962 . S
H62 C58 0.960 . S
H63 C58 0.960 . S
H64 C58 0.959 . S
C65 N66 1.317 . S
C65 N67 1.348 . S
C65 C68 1.485 . S
N66 C65 1.317 . S
N66 N70 1.370 . S
N67 C65 1.348 . S
N67 C69 1.346 . S
C68 C65 1.485 . S
C68 H72 0.960 . S
C68 H73 0.961 . S
C68 H74 0.960 . S
C69 N67 1.346 . S
C69 N70 1.307 . S
C69 C71 1.486 . S
N70 N66 1.370 . S
N70 C69 1.307 . S
C71 C69 1.486 . S
C71 H75 0.960 . S
C71 H76 0.960 . S
C71 H77 0.959 . S
H72 C68 0.960 . S
H73 C68 0.961 . S
H74 C68 0.960 . S
H75 C71 0.960 . S
H76 C71 0.960 . S
H77 C71 0.959 . S
C78 N79 1.317 . S
C78 N80 1.348 . S
C78 C81 1.485 . S
N79 C78 1.317 . S
N79 N83 1.370 . S
N80 C78 1.348 . S
N80 C82 1.346 . S
C81 C78 1.485 . S
C81 H85 0.960 . S
C81 H86 0.961 . S
C81 H87 0.960 . S
C82 N80 1.346 . S
C82 N83 1.307 . S
C82 C84 1.486 . S
N83 N79 1.370 . S
N83 C82 1.307 . S
C84 C82 1.486 . S
C84 H88 0.960 . S
C84 H89 0.960 . S
C84 H90 0.959 . S
H85 C81 0.960 . S
H86 C81 0.961 . S
H87 C81 0.960 . S
H88 C84 0.960 . S
H89 C84 0.960 . S
H90 C84 0.959 . S
C91 N92 1.317 . S
C91 N93 1.348 . S
C91 C94 1.485 . S
N92 C91 1.317 . S
N92 N96 1.370 . S
N93 C91 1.348 . S
N93 C95 1.346 . S
C94 C91 1.485 . S
C94 H98 0.960 . S
C94 H99 0.961 . S
C94 H100 0.960 . S
C95 N93 1.346 . S
C95 N96 1.307 . S
C95 C97 1.486 . S
N96 N92 1.370 . S
N96 C95 1.307 . S
C97 C95 1.486 . S
C97 H101 0.960 . S
C97 H102 0.960 . S
C97 H103 0.959 . S
H98 C94 0.960 . S
H99 C94 0.961 . S
H100 C94 0.960 . S
H101 C97 0.960 . S
H102 C97 0.960 . S
H103 C97 0.959 . S
C104 N105 1.317 . S
C104 N106 1.348 . S
C104 C107 1.485 . S
N105 C104 1.317 . S
N105 N109 1.370 . S
N106 C104 1.348 . S
N106 C108 1.346 . S
C107 C104 1.485 . S
C107 H111 0.960 . S
C107 H112 0.961 . S
C107 H113 0.960 . S
C108 N106 1.346 . S
C108 N109 1.307 . S
C108 C110 1.486 . S
N109 N105 1.370 . S
N109 C108 1.307 . S
C110 C108 1.486 . S
C110 H114 0.960 . S
C110 H115 0.960 . S
C110 H116 0.959 . S
H111 C107 0.960 . S
H112 C107 0.961 . S
H113 C107 0.960 . S
H114 C110 0.960 . S
H115 C110 0.960 . S
H116 C110 0.959 . S
C117 N118 1.317 . S
C117 N119 1.348 . S
C117 C120 1.485 1_565 S
N118 C117 1.317 . S
N118 N122 1.370 . S
N119 C117 1.348 . S
N119 C121 1.346 . S
C120 C117 1.485 1_545 S
C120 H124 0.960 . S
C120 H125 0.961 . S
C120 H126 0.960 . S
C121 N119 1.346 . S
C121 N122 1.307 . S
C121 C123 1.486 . S
N122 N118 1.370 . S
N122 C121 1.307 . S
C123 C121 1.486 . S
C123 H127 0.960 . S
C123 H128 0.960 . S
C123 H129 0.959 . S
H124 C120 0.960 . S
H125 C120 0.961 . S
H126 C120 0.960 . S
H127 C123 0.960 . S
H128 C123 0.960 . S
H129 C123 0.959 . S
C130 N131 1.317 . S
C130 N132 1.348 . S
C130 C133 1.485 . S
N131 C130 1.317 . S
N131 N135 1.370 . S
N132 C130 1.348 . S
N132 C134 1.346 . S
C133 C130 1.485 . S
C133 H137 0.960 . S
C133 H138 0.961 . S
C133 H139 0.960 . S
C134 N132 1.346 . S
C134 N135 1.307 . S
C134 C136 1.486 . S
N135 N131 1.370 . S
N135 C134 1.307 . S
C136 C134 1.486 . S
C136 H140 0.960 . S
C136 H141 0.960 . S
C136 H142 0.959 . S
H137 C133 0.960 . S
H138 C133 0.961 . S
H139 C133 0.960 . S
H140 C136 0.960 . S
H141 C136 0.960 . S
H142 C136 0.959 . S
C143 N144 1.317 . S
C143 N145 1.348 . S
C143 C146 1.485 . S
N144 C143 1.317 . S
N144 N148 1.370 . S
N145 C143 1.348 . S
N145 C147 1.346 . S
C146 C143 1.485 . S
C146 H150 0.960 . S
C146 H151 0.961 . S
C146 H152 0.960 . S
C147 N145 1.346 . S
C147 N148 1.307 . S
C147 C149 1.486 . S
N148 N144 1.370 . S
N148 C147 1.307 . S
C149 C147 1.486 . S
C149 H153 0.960 . S
C149 H154 0.960 . S
C149 H155 0.959 . S
H150 C146 0.960 . S
H151 C146 0.961 . S
H152 C146 0.960 . S
H153 C149 0.960 . S
H154 C149 0.960 . S
H155 C149 0.959 . S
C156 N157 1.317 . S
C156 N158 1.348 . S
C156 C159 1.485 . S
N157 C156 1.317 . S
N157 N161 1.370 . S
N158 C156 1.348 . S
N158 C160 1.346 . S
C159 C156 1.485 . S
C159 H163 0.960 . S
C159 H164 0.961 . S
C159 H165 0.960 . S
C160 N158 1.346 . S
C160 N161 1.307 . S
C160 C162 1.486 . S
N161 N157 1.370 . S
N161 C160 1.307 . S
C162 C160 1.486 . S
C162 H166 0.960 . S
C162 H167 0.960 . S
C162 H168 0.959 . S
H163 C159 0.960 . S
H164 C159 0.961 . S
H165 C159 0.960 . S
H166 C162 0.960 . S
H167 C162 0.960 . S
H168 C162 0.959 . S
C169 N170 1.317 . S
C169 N171 1.348 . S
C169 C172 1.485 . S
N170 C169 1.317 . S
N170 N174 1.370 . S
N171 C169 1.348 . S
N171 C173 1.346 . S
C172 C169 1.485 . S
C172 H176 0.960 . S
C172 H177 0.961 . S
C172 H178 0.960 . S
C173 N171 1.346 . S
C173 N174 1.307 . S
C173 C175 1.486 . S
N174 N170 1.370 . S
N174 C173 1.307 . S
C175 C173 1.486 . S
C175 H179 0.960 . S
C175 H180 0.960 . S
C175 H181 0.959 . S
H176 C172 0.960 . S
H177 C172 0.961 . S
H178 C172 0.960 . S
H179 C175 0.960 . S
H180 C175 0.960 . S
H181 C175 0.959 . S
C182 N183 1.317 . S
C182 N184 1.348 . S
C182 C185 1.485 . S
N183 C182 1.317 . S
N183 N187 1.370 . S
N184 C182 1.348 . S
N184 C186 1.346 . S
C185 C182 1.485 . S
C185 H189 0.960 . S
C185 H190 0.961 . S
C185 H191 0.960 . S
C186 N184 1.346 . S
C186 N187 1.307 . S
C186 C188 1.486 . S
N187 N183 1.370 . S
N187 C186 1.307 . S
C188 C186 1.486 . S
C188 H192 0.960 . S
C188 H193 0.960 . S
C188 H194 0.959 . S
H189 C185 0.960 . S
H190 C185 0.961 . S
H191 C185 0.960 . S
H192 C188 0.960 . S
H193 C188 0.960 . S
H194 C188 0.959 . S
C195 N196 1.317 . S
C195 N197 1.348 . S
C195 C198 1.485 1_545 S
N196 C195 1.317 . S
N196 N200 1.370 . S
N197 C195 1.348 . S
N197 C199 1.346 . S
C198 C195 1.485 1_565 S
C198 H202 0.961 1_565 S
C198 H203 0.961 . S
C198 H204 0.960 . S
C199 N197 1.346 . S
C199 N200 1.307 . S
C199 C201 1.486 1_556 S
N200 N196 1.370 . S
N200 C199 1.307 . S
C201 C199 1.486 1_554 S
C201 H205 0.960 . S
C201 H206 0.960 . S
C201 H207 0.959 . S
H202 C198 0.961 1_545 S
H203 C198 0.961 . S
H204 C198 0.960 . S
H205 C201 0.960 . S
H206 C201 0.960 . S
H207 C201 0.959 . S
C208 O209 1.160 . S
C208 O215 1.185 . S
O209 C208 1.160 . S
O210 Zn211 1.899 1_556 S
O210 C218 1.284 . S
Zn211 O210 1.899 1_554 S
Zn211 O212 2.032 . S
Zn211 O215 2.086 . S
Zn211 O220 1.977 . S
O212 Zn211 2.032 . S
O212 C216 1.278 . S
C213 O214 1.203 . S
C213 O220 1.267 . S
O214 C213 1.203 . S
O215 C208 1.185 . S
O215 Zn211 2.086 . S
C216 O212 1.278 . S
C216 O217 1.211 . S
O217 C216 1.211 . S
C218 O210 1.284 . S
C218 O219 1.273 . S
O219 C218 1.273 . S
O220 Zn211 1.977 . S
O220 C213 1.267 . S
C221 O222 1.160 . S
C221 O228 1.185 . S
O222 C221 1.160 . S
O223 Zn224 1.899 . S
O223 C231 1.284 . S
Zn224 O223 1.899 . S
Zn224 O225 2.032 . S
Zn224 O228 2.086 . S
Zn224 O233 1.977 . S
O225 Zn224 2.032 . S
O225 C229 1.278 . S
C226 O227 1.203 . S
C226 O233 1.267 . S
O227 C226 1.203 . S
O228 C221 1.185 . S
O228 Zn224 2.086 . S
C229 O225 1.278 . S
C229 O230 1.211 . S
O230 C229 1.211 . S
C231 O223 1.284 . S
C231 O232 1.273 . S
O232 C231 1.273 . S
O233 Zn224 1.977 . S
O233 C226 1.267 . S
C234 O235 1.160 1_554 S
C234 O241 1.185 . S
O235 C234 1.160 1_556 S
O236 Zn237 1.899 1_556 S
O236 C244 1.284 . S
Zn237 O236 1.899 1_554 S
Zn237 O238 2.032 1_554 S
Zn237 O241 2.086 . S
Zn237 O246 1.977 . S
O238 Zn237 2.032 1_556 S
O238 C242 1.278 . S
C239 O240 1.203 . S
C239 O246 1.267 . S
O240 C239 1.203 . S
O241 C234 1.185 . S
O241 Zn237 2.086 . S
C242 O238 1.278 . S
C242 O243 1.211 1_556 S
O243 C242 1.211 1_554 S
C244 O236 1.284 . S
C244 O245 1.273 . S
O245 C244 1.273 . S
O246 Zn237 1.977 . S
O246 C239 1.267 . S
C247 O248 1.160 . S
C247 O254 1.185 . S
O248 C247 1.160 . S
O249 Zn250 1.899 . S
O249 C257 1.284 . S
Zn250 O249 1.899 . S
Zn250 O251 2.032 1_545 S
Zn250 O254 2.086 . S
Zn250 O259 1.977 . S
O251 Zn250 2.032 1_565 S
O251 C255 1.278 . S
C252 O253 1.203 1_545 S
C252 O259 1.267 . S
O253 C252 1.203 1_565 S
O254 C247 1.185 . S
O254 Zn250 2.086 . S
C255 O251 1.278 . S
C255 O256 1.211 . S
O256 C255 1.211 . S
C257 O249 1.284 . S
C257 O258 1.273 1_545 S
O258 C257 1.273 1_565 S
O259 Zn250 1.977 . S
O259 C252 1.267 . S
C260 O261 1.160 . S
C260 O267 1.185 . S
O261 C260 1.160 . S
O262 Zn263 1.899 . S
O262 C270 1.284 . S
Zn263 O262 1.899 . S
Zn263 O264 2.032 . S
Zn263 O267 2.086 . S
Zn263 O272 1.977 . S
O264 Zn263 2.032 . S
O264 C268 1.278 . S
C265 O266 1.203 . S
C265 O272 1.267 . S
O266 C265 1.203 . S
O267 C260 1.185 . S
O267 Zn263 2.086 . S
C268 O264 1.278 . S
C268 O269 1.211 . S
O269 C268 1.211 . S
C270 O262 1.284 . S
C270 O271 1.273 . S
O271 C270 1.273 . S
O272 Zn263 1.977 . S
O272 C265 1.267 . S
C273 O274 1.160 . S
C273 O280 1.185 . S
O274 C273 1.160 . S
O275 Zn276 1.899 . S
O275 C283 1.284 . S
Zn276 O275 1.899 . S
Zn276 O277 2.032 . S
Zn276 O280 2.086 . S
Zn276 O285 1.977 . S
O277 Zn276 2.032 . S
O277 C281 1.278 . S
C278 O279 1.203 . S
C278 O285 1.267 . S
O279 C278 1.203 . S
O280 C273 1.185 . S
O280 Zn276 2.086 . S
C281 O277 1.278 . S
C281 O282 1.211 . S
O282 C281 1.211 . S
C283 O275 1.284 . S
C283 O284 1.273 . S
O284 C283 1.273 . S
O285 Zn276 1.977 . S
O285 C278 1.267 . S
C286 O287 1.160 . S
C286 O293 1.185 . S
O287 C286 1.160 . S
O288 Zn289 1.899 . S
O288 C296 1.284 . S
Zn289 O288 1.899 . S
Zn289 O290 2.032 . S
Zn289 O293 2.086 . S
Zn289 O298 1.977 . S
O290 Zn289 2.032 . S
O290 C294 1.278 . S
C291 O292 1.203 . S
C291 O298 1.267 . S
O292 C291 1.203 . S
O293 C286 1.185 . S
O293 Zn289 2.086 . S
C294 O290 1.278 . S
C294 O295 1.211 . S
O295 C294 1.211 . S
C296 O288 1.284 . S
C296 O297 1.273 . S
O297 C296 1.273 . S
O298 Zn289 1.977 . S
O298 C291 1.267 . S
C299 O300 1.160 . S
C299 O306 1.185 . S
O300 C299 1.160 . S
O301 Zn302 1.899 . S
O301 C309 1.284 1_565 S
Zn302 O301 1.899 . S
Zn302 O303 2.032 1_565 S
Zn302 O306 2.086 . S
Zn302 O311 1.977 . S
O303 Zn302 2.032 1_545 S
O303 C307 1.278 . S
C304 O305 1.203 1_565 S
C304 O311 1.267 . S
O305 C304 1.203 1_545 S
O306 C299 1.185 . S
O306 Zn302 2.086 . S
C307 O303 1.278 . S
C307 O308 1.211 . S
O308 C307 1.211 . S
C309 O301 1.284 1_545 S
C309 O310 1.273 . S
O310 C309 1.273 . S
O311 Zn302 1.977 . S
O311 C304 1.267 . S
C312 O313 1.160 . S
C312 O319 1.185 1_655 S
O313 C312 1.160 . S
O314 Zn315 1.899 1_655 S
O314 C322 1.284 . S
Zn315 O314 1.899 1_455 S
Zn315 O316 2.032 1_455 S
Zn315 O319 2.086 . S
Zn315 O324 1.977 . S
O316 Zn315 2.032 1_655 S
O316 C320 1.278 1_655 S
C317 O318 1.203 . S
C317 O324 1.267 . S
O318 C317 1.203 . S
O319 C312 1.185 1_455 S
O319 Zn315 2.086 . S
C320 O316 1.278 1_455 S
C320 O321 1.211 . S
O321 C320 1.211 . S
C322 O314 1.284 . S
C322 O323 1.273 . S
O323 C322 1.273 . S
O324 Zn315 1.977 . S
O324 C317 1.267 . S
C325 O326 1.160 . S
C325 O332 1.185 . S
O326 C325 1.160 . S
O327 Zn328 1.899 . S
O327 C335 1.284 . S
Zn328 O327 1.899 . S
Zn328 O329 2.032 . S
Zn328 O332 2.086 . S
Zn328 O337 1.977 . S
O329 Zn328 2.032 . S
O329 C333 1.278 . S
C330 O331 1.203 . S
C330 O337 1.267 . S
O331 C330 1.203 . S
O332 C325 1.185 . S
O332 Zn328 2.086 . S
C333 O329 1.278 . S
C333 O334 1.211 . S
O334 C333 1.211 . S
C335 O327 1.284 . S
C335 O336 1.273 . S
O336 C335 1.273 . S
O337 Zn328 1.977 . S
O337 C330 1.267 . S
C338 O339 1.160 . S
C338 O345 1.185 . S
O339 C338 1.160 . S
O340 Zn341 1.931 . S
O340 C348 1.251 1_455 S
Zn341 O340 1.931 . S
Zn341 O342 2.032 . S
Zn341 O345 2.086 . S
Zn341 O350 1.977 . S
O342 Zn341 2.032 . S
O342 C346 1.278 . S
C343 O344 1.203 . S
C343 O350 1.267 . S
O344 C343 1.203 . S
O345 C338 1.185 . S
O345 Zn341 2.086 . S
C346 O342 1.278 . S
C346 O347 1.211 . S
O347 C346 1.211 . S
C348 O340 1.251 1_655 S
C348 O349 1.273 . S
O349 C348 1.273 . S
O350 Zn341 1.977 . S
O350 C343 1.267 . S
C351 O352 1.160 . S
C351 O358 1.185 . S
O352 C351 1.160 . S
O353 Zn354 1.899 . S
O353 C361 1.284 . S
Zn354 O353 1.899 . S
Zn354 O355 2.032 . S
Zn354 O358 2.086 . S
Zn354 O363 1.977 . S
O355 Zn354 2.032 . S
O355 C359 1.278 . S
C356 O357 1.203 . S
C356 O363 1.267 . S
O357 C356 1.203 . S
O358 C351 1.185 . S
O358 Zn354 2.086 . S
C359 O355 1.278 . S
C359 O360 1.211 . S
O360 C359 1.211 . S
C361 O353 1.284 . S
C361 O362 1.273 . S
O362 C361 1.273 . S
O363 Zn354 1.977 . S
O363 C356 1.267 . S
H364 C372 0.950 . S
H365 C377 0.950 . S
H366 C374 0.950 . S
H367 C376 0.950 . S
H368 C378 0.950 . S
H369 C380 0.950 . S
H370 C382 0.950 . S
H371 C383 0.950 . S
C372 H364 0.950 . S
C372 C373 1.386 . S
C372 C374 1.391 . S
C373 C372 1.386 . S
C373 C377 1.393 . S
C374 H366 0.950 . S
C374 C372 1.391 . S
C374 C375 1.400 . S
C375 C374 1.400 . S
C375 C376 1.398 . S
C375 C381 1.491 . S
C376 H367 0.950 . S
C376 C375 1.398 . S
C376 C377 1.391 . S
C377 H365 0.950 . S
C377 C373 1.393 . S
C377 C376 1.391 . S
C378 H368 0.950 . S
C378 C379 1.386 . S
C378 C380 1.391 . S
C379 C378 1.386 . S
C379 C383 1.393 . S
C380 H369 0.950 . S
C380 C378 1.391 . S
C380 C381 1.400 . S
C381 C375 1.491 . S
C381 C380 1.400 . S
C381 C382 1.398 . S
C382 H370 0.950 . S
C382 C381 1.398 . S
C382 C383 1.391 . S
C383 H371 0.950 . S
C383 C379 1.393 . S
C383 C382 1.391 . S
H384 C392 0.950 . S
H385 C397 0.950 . S
H386 C394 0.950 . S
H387 C396 0.950 . S
H388 C398 0.950 . S
H389 C400 0.950 . S
H390 C402 0.950 . S
H391 C403 0.950 . S
C392 H384 0.950 . S
C392 C393 1.386 1_455 S
C392 C394 1.391 . S
C393 C392 1.386 1_655 S
C393 C397 1.393 . S
C394 H386 0.950 . S
C394 C392 1.391 . S
C394 C395 1.400 . S
C395 C394 1.400 . S
C395 C396 1.398 . S
C395 C401 1.491 . S
C396 H387 0.950 . S
C396 C395 1.398 . S
C396 C397 1.391 1_455 S
C397 H385 0.950 . S
C397 C393 1.393 . S
C397 C396 1.391 1_655 S
C398 H388 0.950 . S
C398 C399 1.386 . S
C398 C400 1.391 . S
C399 C398 1.386 . S
C399 C403 1.393 . S
C400 H389 0.950 . S
C400 C398 1.391 . S
C400 C401 1.400 . S
C401 C395 1.491 . S
C401 C400 1.400 . S
C401 C402 1.398 . S
C402 H390 0.950 . S
C402 C401 1.398 . S
C402 C403 1.391 . S
C403 H391 0.950 . S
C403 C399 1.393 . S
C403 C402 1.391 . S
H404 C412 0.950 . S
H405 C417 0.950 . S
H406 C414 0.950 . S
H407 C416 0.950 . S
H408 C418 0.950 . S
H409 C420 0.950 . S
H410 C422 0.950 . S
H411 C423 0.950 . S
C412 H404 0.950 . S
C412 C413 1.386 . S
C412 C414 1.391 . S
C413 C412 1.386 . S
C413 C417 1.393 . S
C414 H406 0.950 . S
C414 C412 1.391 . S
C414 C415 1.400 . S
C415 C414 1.400 . S
C415 C416 1.398 . S
C415 C421 1.491 . S
C416 H407 0.950 . S
C416 C415 1.398 . S
C416 C417 1.391 . S
C417 H405 0.950 . S
C417 C413 1.393 . S
C417 C416 1.391 . S
C418 H408 0.950 . S
C418 C419 1.386 . S
C418 C420 1.391 . S
C419 C418 1.386 . S
C419 C423 1.393 . S
C420 H409 0.950 . S
C420 C418 1.391 . S
C420 C421 1.400 . S
C421 C415 1.491 . S
C421 C420 1.400 . S
C421 C422 1.398 . S
C422 H410 0.950 . S
C422 C421 1.398 . S
C422 C423 1.391 . S
C423 H411 0.950 . S
C423 C419 1.393 . S
C423 C422 1.391 . S
H424 C432 0.950 . S
H425 C437 0.950 . S
H426 C434 0.950 . S
H427 C436 0.950 . S
H428 C438 0.950 . S
H429 C440 0.950 . S
H430 C442 0.950 . S
H431 C443 0.950 . S
C432 H424 0.950 . S
C432 C433 1.386 1_545 S
C432 C434 1.391 1_455 S
C433 C432 1.386 1_565 S
C433 C437 1.393 1_455 S
C434 H426 0.950 . S
C434 C432 1.391 1_655 S
C434 C435 1.400 1_545 S
C435 C434 1.400 1_565 S
C435 C436 1.398 . S
C435 C441 1.491 . S
C436 H427 0.950 . S
C436 C435 1.398 . S
C436 C437 1.391 . S
C437 H425 0.950 . S
C437 C433 1.393 1_655 S
C437 C436 1.391 . S
C438 H428 0.950 . S
C438 C439 1.386 1_565 S
C438 C440 1.391 . S
C439 C438 1.386 1_545 S
C439 C443 1.393 . S
C440 H429 0.950 . S
C440 C438 1.391 . S
C440 C441 1.400 . S
C441 C435 1.491 . S
C441 C440 1.400 . S
C441 C442 1.398 1_565 S
C442 H430 0.950 . S
C442 C441 1.398 1_545 S
C442 C443 1.391 . S
C443 H431 0.950 . S
C443 C439 1.393 . S
C443 C442 1.391 . S
H444 C452 0.950 . S
H445 C457 0.950 . S
H446 C454 0.950 . S
H447 C456 0.950 . S
H448 C458 0.950 . S
H449 C460 0.950 . S
H450 C462 0.950 . S
H451 C463 0.950 . S
C452 H444 0.950 . S
C452 C453 1.386 . S
C452 C454 1.391 . S
C453 C452 1.386 . S
C453 C457 1.393 . S
C454 H446 0.950 . S
C454 C452 1.391 . S
C454 C455 1.400 . S
C455 C454 1.400 . S
C455 C456 1.398 . S
C455 C461 1.491 . S
C456 H447 0.950 . S
C456 C455 1.398 . S
C456 C457 1.391 . S
C457 H445 0.950 . S
C457 C453 1.393 . S
C457 C456 1.391 . S
C458 H448 0.950 . S
C458 C459 1.386 . S
C458 C460 1.391 . S
C459 C458 1.386 . S
C459 C463 1.393 . S
C460 H449 0.950 . S
C460 C458 1.391 . S
C460 C461 1.400 . S
C461 C455 1.491 . S
C461 C460 1.400 . S
C461 C462 1.398 . S
C462 H450 0.950 . S
C462 C461 1.398 . S
C462 C463 1.391 . S
C463 H451 0.950 . S
C463 C459 1.393 . S
C463 C462 1.391 . S
H464 C472 0.950 . S
H465 C477 0.950 . S
H466 C474 0.950 . S
H467 C476 0.950 . S
H468 C478 0.950 . S
H469 C480 0.950 . S
H470 C482 0.950 . S
H471 C483 0.950 . S
C472 H464 0.950 . S
C472 C473 1.386 . S
C472 C474 1.391 . S
C473 C472 1.386 . S
C473 C477 1.393 . S
C474 H466 0.950 . S
C474 C472 1.391 . S
C474 C475 1.400 . S
C475 C474 1.400 . S
C475 C476 1.398 . S
C475 C481 1.491 . S
C476 H467 0.950 . S
C476 C475 1.398 . S
C476 C477 1.391 . S
C477 H465 0.950 . S
C477 C473 1.393 . S
C477 C476 1.391 . S
C478 H468 0.950 . S
C478 C479 1.386 . S
C478 C480 1.391 . S
C479 C478 1.386 . S
C479 C483 1.393 . S
C480 H469 0.950 . S
C480 C478 1.391 . S
C480 C481 1.400 . S
C481 C475 1.491 . S
C481 C480 1.400 . S
C481 C482 1.398 . S
C482 H470 0.950 . S
C482 C481 1.398 . S
C482 C483 1.391 . S
C483 H471 0.950 . S
C483 C479 1.393 . S
C483 C482 1.391 . S
H484 C492 0.950 . S
H485 C497 0.950 . S
H486 C494 0.950 . S
H487 C496 0.950 . S
H488 C498 0.950 . S
H489 C500 0.950 . S
H490 C502 0.950 . S
H491 C503 0.950 . S
C492 H484 0.950 . S
C492 C493 1.386 . S
C492 C494 1.391 . S
C493 C492 1.386 . S
C493 C497 1.393 . S
C494 H486 0.950 . S
C494 C492 1.391 . S
C494 C495 1.400 . S
C495 C494 1.400 . S
C495 C496 1.398 . S
C495 C501 1.491 . S
C496 H487 0.950 . S
C496 C495 1.398 . S
C496 C497 1.391 . S
C497 H485 0.950 . S
C497 C493 1.393 . S
C497 C496 1.391 . S
C498 H488 0.950 . S
C498 C499 1.386 . S
C498 C500 1.391 . S
C499 C498 1.386 . S
C499 C503 1.393 . S
C500 H489 0.950 . S
C500 C498 1.391 . S
C500 C501 1.400 . S
C501 C495 1.491 . S
C501 C500 1.400 . S
C501 C502 1.398 . S
C502 H490 0.950 . S
C502 C501 1.398 . S
C502 C503 1.391 . S
C503 H491 0.950 . S
C503 C499 1.393 . S
C503 C502 1.391 . S
H504 C512 0.950 . S
H505 C517 0.950 . S
H506 C514 0.950 . S
H507 C516 0.950 . S
H508 C518 0.948 1_545 S
H509 C520 0.950 1_545 S
H510 C522 0.950 . S
H511 C523 0.950 . S
C512 H504 0.950 . S
C512 C513 1.386 . S
C512 C514 1.391 . S
C513 C512 1.386 . S
C513 C517 1.393 . S
C514 H506 0.950 . S
C514 C512 1.391 . S
C514 C515 1.400 . S
C515 C514 1.400 . S
C515 C516 1.398 . S
C515 C521 1.491 . S
C516 H507 0.950 . S
C516 C515 1.398 . S
C516 C517 1.391 . S
C517 H505 0.950 . S
C517 C513 1.393 . S
C517 C516 1.391 . S
C518 H508 0.948 1_565 S
C518 C519 1.387 . S
C518 C520 1.391 . S
C519 C518 1.387 . S
C519 C523 1.393 . S
C520 H509 0.950 1_565 S
C520 C518 1.391 . S
C520 C521 1.400 . S
C521 C515 1.491 . S
C521 C520 1.400 . S
C521 C522 1.398 . S
C522 H510 0.950 . S
C522 C521 1.398 . S
C522 C523 1.391 . S
C523 H511 0.950 . S
C523 C519 1.393 . S
C523 C522 1.391 . S
H524 C532 0.950 . S
H525 C537 0.950 . S
H526 C534 0.950 . S
H527 C536 0.950 . S
H528 C538 0.950 . S
H529 C540 0.950 . S
H530 C542 0.950 . S
H531 C543 0.950 . S
C532 H524 0.950 . S
C532 C533 1.386 . S
C532 C534 1.391 . S
C533 C532 1.386 . S
C533 C537 1.393 . S
C534 H526 0.950 . S
C534 C532 1.391 . S
C534 C535 1.400 . S
C535 C534 1.400 . S
C535 C536 1.398 . S
C535 C541 1.491 . S
C536 H527 0.950 . S
C536 C535 1.398 . S
C536 C537 1.391 . S
C537 H525 0.950 . S
C537 C533 1.393 . S
C537 C536 1.391 . S
C538 H528 0.950 . S
C538 C539 1.386 . S
C538 C540 1.391 . S
C539 C538 1.386 . S
C539 C543 1.393 . S
C540 H529 0.950 . S
C540 C538 1.391 . S
C540 C541 1.400 . S
C541 C535 1.491 . S
C541 C540 1.400 . S
C541 C542 1.398 . S
C542 H530 0.950 . S
C542 C541 1.398 . S
C542 C543 1.391 . S
C543 H531 0.950 . S
C543 C539 1.393 . S
C543 C542 1.391 . S
H544 C552 0.950 . S
H545 C557 0.950 . S
H546 C554 0.950 . S
H547 C556 0.950 . S
H548 C558 0.950 . S
H549 C560 0.950 . S
H550 C562 0.950 . S
H551 C563 0.950 . S
C552 H544 0.950 . S
C552 C553 1.386 . S
C552 C554 1.391 . S
C553 C552 1.386 . S
C553 C557 1.393 . S
C554 H546 0.950 . S
C554 C552 1.391 . S
C554 C555 1.400 . S
C555 C554 1.400 . S
C555 C556 1.398 . S
C555 C561 1.491 . S
C556 H547 0.950 . S
C556 C555 1.398 . S
C556 C557 1.391 . S
C557 H545 0.950 . S
C557 C553 1.393 . S
C557 C556 1.391 . S
C558 H548 0.950 . S
C558 C559 1.386 . S
C558 C560 1.391 . S
C559 C558 1.386 . S
C559 C563 1.393 . S
C560 H549 0.950 . S
C560 C558 1.391 . S
C560 C561 1.400 . S
C561 C555 1.491 . S
C561 C560 1.400 . S
C561 C562 1.398 . S
C562 H550 0.950 . S
C562 C561 1.398 . S
C562 C563 1.391 . S
C563 H551 0.950 . S
C563 C559 1.393 . S
C563 C562 1.391 . S
H564 C572 0.950 . S
H565 C577 0.950 . S
H566 C574 0.950 . S
H567 C576 0.950 . S
H568 C578 0.950 . S
H569 C580 0.950 . S
H570 C582 0.950 . S
H571 C583 0.950 . S
C572 H564 0.950 . S
C572 C573 1.386 . S
C572 C574 1.391 . S
C573 C572 1.386 . S
C573 C577 1.393 . S
C574 H566 0.950 . S
C574 C572 1.391 . S
C574 C575 1.400 . S
C575 C574 1.400 . S
C575 C576 1.398 . S
C575 C581 1.491 . S
C576 H567 0.950 . S
C576 C575 1.398 . S
C576 C577 1.391 . S
C577 H565 0.950 . S
C577 C573 1.393 . S
C577 C576 1.391 . S
C578 H568 0.950 . S
C578 C579 1.386 . S
C578 C580 1.391 . S
C579 C578 1.386 . S
C579 C583 1.393 . S
C580 H569 0.950 . S
C580 C578 1.391 . S
C580 C581 1.400 . S
C581 C575 1.491 . S
C581 C580 1.400 . S
C581 C582 1.398 . S
C582 H570 0.950 . S
C582 C581 1.398 . S
C582 C583 1.391 . S
C583 H571 0.950 . S
C583 C579 1.393 . S
C583 C582 1.391 . S
H584 C592 0.950 . S
H585 C597 0.950 . S
H586 C594 0.950 . S
H587 C596 0.950 . S
H588 C598 0.950 . S
H589 C600 0.950 . S
H590 C602 0.950 . S
H591 C603 0.950 . S
C592 H584 0.950 . S
C592 C593 1.386 . S
C592 C594 1.391 . S
C593 C592 1.386 . S
C593 C597 1.393 . S
C594 H586 0.950 . S
C594 C592 1.391 . S
C594 C595 1.400 . S
C595 C594 1.400 . S
C595 C596 1.398 . S
C595 C601 1.491 . S
C596 H587 0.950 . S
C596 C595 1.398 . S
C596 C597 1.391 . S
C597 H585 0.950 . S
C597 C593 1.393 . S
C597 C596 1.391 . S
C598 H588 0.950 . S
C598 C599 1.386 . S
C598 C600 1.391 . S
C599 C598 1.386 . S
C599 C603 1.393 . S
C600 H589 0.950 . S
C600 C598 1.391 . S
C600 C601 1.400 . S
C601 C595 1.491 . S
C601 C600 1.400 . S
C601 C602 1.398 . S
C602 H590 0.950 . S
C602 C601 1.398 . S
C602 C603 1.391 . S
C603 H591 0.950 . S
C603 C599 1.393 . S
C603 C602 1.391 . S
H604 C612 0.950 . S
H605 C617 0.950 . S
H606 C614 0.950 . S
H607 C616 0.950 . S
H608 C618 0.950 . S
H609 C620 0.950 . S
H610 C622 0.950 . S
H611 C623 0.950 . S
C612 H604 0.950 . S
C612 C613 1.386 . S
C612 C614 1.391 . S
C613 C612 1.386 . S
C613 C617 1.393 . S
C614 H606 0.950 . S
C614 C612 1.391 . S
C614 C615 1.400 . S
C615 C614 1.400 . S
C615 C616 1.398 . S
C615 C621 1.491 . S
C616 H607 0.950 . S
C616 C615 1.398 . S
C616 C617 1.391 . S
C617 H605 0.950 . S
C617 C613 1.393 . S
C617 C616 1.391 . S
C618 H608 0.950 . S
C618 C619 1.386 . S
C618 C620 1.391 . S
C619 C618 1.386 . S
C619 C623 1.393 . S
C620 H609 0.950 . S
C620 C618 1.391 . S
C620 C621 1.400 . S
C621 C615 1.491 . S
C621 C620 1.400 . S
C621 C622 1.398 . S
C622 H610 0.950 . S
C622 C621 1.398 . S
C622 C623 1.391 . S
C623 H611 0.950 . S
C623 C619 1.393 . S
C623 C622 1.391 . S
H624 C632 0.950 . S
H625 C637 0.950 . S
H626 C634 0.950 . S
H627 C636 0.950 . S
H628 C638 0.950 . S
H629 C640 0.950 . S
H630 C642 0.950 . S
H631 C643 0.950 . S
C632 H624 0.950 . S
C632 C633 1.386 . S
C632 C634 1.391 . S
C633 C632 1.386 . S
C633 C637 1.393 . S
C634 H626 0.950 . S
C634 C632 1.391 . S
C634 C635 1.400 . S
C635 C634 1.400 . S
C635 C636 1.398 . S
C635 C641 1.491 . S
C636 H627 0.950 . S
C636 C635 1.398 . S
C636 C637 1.391 . S
C637 H625 0.950 . S
C637 C633 1.393 . S
C637 C636 1.391 . S
C638 H628 0.950 . S
C638 C639 1.386 . S
C638 C640 1.391 . S
C639 C638 1.386 . S
C639 C643 1.393 . S
C640 H629 0.950 . S
C640 C638 1.391 . S
C640 C641 1.400 . S
C641 C635 1.491 . S
C641 C640 1.400 . S
C641 C642 1.398 . S
C642 H630 0.950 . S
C642 C641 1.398 . S
C642 C643 1.391 . S
C643 H631 0.950 . S
C643 C639 1.393 . S
C643 C642 1.391 . S
H644 C652 0.950 . S
H645 C657 0.950 . S
H646 C654 0.950 . S
H647 C656 0.950 . S
H648 C658 0.950 . S
H649 C660 0.950 . S
H650 C662 0.950 . S
H651 C663 0.950 . S
C652 H644 0.950 . S
C652 C653 1.386 . S
C652 C654 1.391 . S
C653 C652 1.386 . S
C653 C657 1.393 . S
C654 H646 0.950 . S
C654 C652 1.391 . S
C654 C655 1.400 . S
C655 C654 1.400 . S
C655 C656 1.398 . S
C655 C661 1.491 . S
C656 H647 0.950 . S
C656 C655 1.398 . S
C656 C657 1.391 . S
C657 H645 0.950 . S
C657 C653 1.393 . S
C657 C656 1.391 . S
C658 H648 0.950 . S
C658 C659 1.386 . S
C658 C660 1.391 . S
C659 C658 1.386 . S
C659 C663 1.393 . S
C660 H649 0.950 . S
C660 C658 1.391 . S
C660 C661 1.400 . S
C661 C655 1.491 . S
C661 C660 1.400 . S
C661 C662 1.398 . S
C662 H650 0.950 . S
C662 C661 1.398 . S
C662 C663 1.391 . S
C663 H651 0.950 . S
C663 C659 1.393 . S
C663 C662 1.391 . S
H664 C672 0.956 . S
H665 C677 0.950 . S
H666 C674 0.950 1_455 S
H667 C676 0.950 . S
H668 C678 0.950 . S
H669 C680 0.950 . S
H670 C682 0.950 . S
H671 C683 0.950 . S
C672 H664 0.956 . S
C672 C673 1.386 . S
C672 C674 1.391 . S
C673 C672 1.386 . S
C673 C677 1.393 . S
C674 H666 0.950 1_655 S
C674 C672 1.391 . S
C674 C675 1.400 . S
C675 C674 1.400 . S
C675 C676 1.398 . S
C675 C681 1.491 . S
C676 H667 0.950 . S
C676 C675 1.398 . S
C676 C677 1.391 . S
C677 H665 0.950 . S
C677 C673 1.393 . S
C677 C676 1.391 . S
C678 H668 0.950 . S
C678 C679 1.386 1_655 S
C678 C680 1.391 . S
C679 C678 1.386 1_455 S
C679 C683 1.393 . S
C680 H669 0.950 . S
C680 C678 1.391 . S
C680 C681 1.400 . S
C681 C675 1.491 . S
C681 C680 1.400 . S
C681 C682 1.398 1_655 S
C682 H670 0.950 . S
C682 C681 1.398 1_455 S
C682 C683 1.391 . S
C683 H671 0.950 . S
C683 C679 1.393 . S
C683 C682 1.391 . S
H684 C692 0.950 . S
H685 C697 0.950 . S
H686 C694 0.950 . S
H687 C696 0.950 . S
H688 C698 0.950 . S
H689 C700 0.950 . S
H690 C702 0.950 . S
H691 C703 0.950 . S
C692 H684 0.950 . S
C692 C693 1.386 . S
C692 C694 1.391 . S
C693 C692 1.386 . S
C693 C697 1.393 . S
C694 H686 0.950 . S
C694 C692 1.391 . S
C694 C695 1.400 . S
C695 C694 1.400 . S
C695 C696 1.398 . S
C695 C701 1.491 . S
C696 H687 0.950 . S
C696 C695 1.398 . S
C696 C697 1.391 . S
C697 H685 0.950 . S
C697 C693 1.393 . S
C697 C696 1.391 . S
C698 H688 0.950 . S
C698 C699 1.386 . S
C698 C700 1.391 . S
C699 C698 1.386 . S
C699 C703 1.393 . S
C700 H689 0.950 . S
C700 C698 1.391 . S
C700 C701 1.400 . S
C701 C695 1.491 . S
C701 C700 1.400 . S
C701 C702 1.398 . S
C702 H690 0.950 . S
C702 C701 1.398 . S
C702 C703 1.391 . S
C703 H691 0.950 . S
C703 C699 1.393 . S
C703 C702 1.391 . S
H704 C712 0.950 . S
H705 C717 0.950 . S
H706 C714 0.950 . S
H707 C716 0.950 . S
H708 C718 0.950 . S
H709 C720 0.950 . S
H710 C722 0.950 . S
H711 C723 0.950 . S
C712 H704 0.950 . S
C712 C713 1.386 . S
C712 C714 1.391 . S
C713 C712 1.386 . S
C713 C717 1.393 . S
C714 H706 0.950 . S
C714 C712 1.391 . S
C714 C715 1.400 . S
C715 C714 1.400 . S
C715 C716 1.398 . S
C715 C721 1.491 . S
C716 H707 0.950 . S
C716 C715 1.398 . S
C716 C717 1.391 . S
C717 H705 0.950 . S
C717 C713 1.393 . S
C717 C716 1.391 . S
C718 H708 0.950 . S
C718 C719 1.386 . S
C718 C720 1.391 . S
C719 C718 1.386 . S
C719 C723 1.393 . S
C720 H709 0.950 . S
C720 C718 1.391 . S
C720 C721 1.400 . S
C721 C715 1.491 . S
C721 C720 1.400 . S
C721 C722 1.398 . S
C722 H710 0.950 . S
C722 C721 1.398 . S
C722 C723 1.391 . S
C723 H711 0.950 . S
C723 C719 1.393 . S
C723 C722 1.391 . S
H724 C732 0.945 1_554 S
H725 C737 0.950 . S
H726 C734 0.950 . S
H727 C736 0.950 . S
H728 C738 0.950 . S
H729 C740 0.950 . S
H730 C742 0.950 . S
H731 C743 0.950 . S
C732 H724 0.945 1_556 S
C732 C733 1.392 1_565 S
C732 C734 1.389 1_556 S
C733 C732 1.392 1_545 S
C733 C737 1.393 . S
C734 H726 0.950 . S
C734 C732 1.389 1_554 S
C734 C735 1.400 1_554 S
C735 C734 1.400 1_556 S
C735 C736 1.398 . S
C735 C741 1.491 . S
C736 H727 0.950 . S
C736 C735 1.398 . S
C736 C737 1.391 1_565 S
C737 H725 0.950 . S
C737 C733 1.393 . S
C737 C736 1.391 1_545 S
C738 H728 0.950 . S
C738 C739 1.386 1_556 S
C738 C740 1.391 . S
C739 C738 1.386 1_554 S
C739 C743 1.393 . S
C740 H729 0.950 . S
C740 C738 1.391 . S
C740 C741 1.400 . S
C741 C735 1.491 . S
C741 C740 1.400 . S
C741 C742 1.398 1_556 S
C742 H730 0.950 . S
C742 C741 1.398 1_554 S
C742 C743 1.391 . S
C743 H731 0.950 . S
C743 C739 1.393 . S
C743 C742 1.391 . S
H744 C752 0.950 . S
H745 C757 0.950 . S
H746 C754 0.950 . S
H747 C756 0.950 . S
H748 C758 0.950 . S
H749 C760 0.950 . S
H750 C762 0.950 . S
H751 C763 0.950 . S
C752 H744 0.950 . S
C752 C753 1.386 . S
C752 C754 1.391 . S
C753 C752 1.386 . S
C753 C757 1.393 . S
C754 H746 0.950 . S
C754 C752 1.391 . S
C754 C755 1.400 . S
C755 C754 1.400 . S
C755 C756 1.398 . S
C755 C761 1.491 . S
C756 H747 0.950 . S
C756 C755 1.398 . S
C756 C757 1.391 . S
C757 H745 0.950 . S
C757 C753 1.393 . S
C757 C756 1.391 . S
C758 H748 0.950 . S
C758 C759 1.386 . S
C758 C760 1.391 . S
C759 C758 1.386 . S
C759 C763 1.393 . S
C760 H749 0.950 . S
C760 C758 1.391 . S
C760 C761 1.400 . S
C761 C755 1.491 . S
C761 C760 1.400 . S
C761 C762 1.398 . S
C762 H750 0.950 . S
C762 C761 1.398 . S
C762 C763 1.391 . S
C763 H751 0.950 . S
C763 C759 1.393 . S
C763 C762 1.391 . S
H764 C772 0.950 . S
H765 C777 0.950 . S
H766 C774 0.950 . S
H767 C776 0.950 . S
H768 C778 0.950 . S
H769 C780 0.950 . S
H770 C782 0.950 . S
H771 C783 0.950 . S
C772 H764 0.950 . S
C772 C773 1.386 1_565 S
C772 C774 1.391 1_565 S
C773 C772 1.386 1_545 S
C773 C777 1.393 . S
C774 H766 0.950 . S
C774 C772 1.391 1_545 S
C774 C775 1.400 . S
C775 C774 1.400 . S
C775 C776 1.398 . S
C775 C781 1.491 . S
C776 H767 0.950 . S
C776 C775 1.398 . S
C776 C777 1.391 . S
C777 H765 0.950 . S
C777 C773 1.393 . S
C777 C776 1.391 . S
C778 H768 0.950 . S
C778 C779 1.386 . S
C778 C780 1.391 . S
C779 C778 1.386 . S
C779 C783 1.393 . S
C780 H769 0.950 . S
C780 C778 1.391 . S
C780 C781 1.400 . S
C781 C775 1.491 . S
C781 C780 1.400 . S
C781 C782 1.398 . S
C782 H770 0.950 . S
C782 C781 1.398 . S
C782 C783 1.391 . S
C783 H771 0.950 . S
C783 C779 1.393 . S
C783 C782 1.391 . S
H784 C792 0.950 . S
H785 C797 0.950 . S
H786 C794 0.950 . S
H787 C796 0.950 . S
H788 C798 0.950 . S
H789 C800 0.950 . S
H790 C802 0.950 . S
H791 C803 0.950 . S
C792 H784 0.950 . S
C792 C793 1.386 . S
C792 C794 1.391 . S
C793 C792 1.386 . S
C793 C797 1.393 . S
C794 H786 0.950 . S
C794 C792 1.391 . S
C794 C795 1.400 . S
C795 C794 1.400 . S
C795 C796 1.398 . S
C795 C801 1.491 . S
C796 H787 0.950 . S
C796 C795 1.398 . S
C796 C797 1.391 . S
C797 H785 0.950 . S
C797 C793 1.393 . S
C797 C796 1.391 . S
C798 H788 0.950 . S
C798 C799 1.386 . S
C798 C800 1.391 . S
C799 C798 1.386 . S
C799 C803 1.393 . S
C800 H789 0.950 . S
C800 C798 1.391 . S
C800 C801 1.400 . S
C801 C795 1.491 . S
C801 C800 1.400 . S
C801 C802 1.398 . S
C802 H790 0.950 . S
C802 C801 1.398 . S
C802 C803 1.391 . S
C803 H791 0.950 . S
C803 C799 1.393 . S
C803 C802 1.391 . S
H804 C812 0.950 . S
H805 C817 0.950 . S
H806 C814 0.950 . S
H807 C816 0.950 . S
H808 C818 0.950 . S
H809 C820 0.950 . S
H810 C822 0.950 . S
H811 C823 0.950 . S
C812 H804 0.950 . S
C812 C813 1.386 1_545 S
C812 C814 1.391 . S
C813 C812 1.386 1_565 S
C813 C817 1.393 1_565 S
C814 H806 0.950 . S
C814 C812 1.391 . S
C814 C815 1.400 . S
C815 C814 1.400 . S
C815 C816 1.398 . S
C815 C821 1.491 . S
C816 H807 0.950 . S
C816 C815 1.398 . S
C816 C817 1.391 . S
C817 H805 0.950 . S
C817 C813 1.393 1_545 S
C817 C816 1.391 . S
C818 H808 0.950 . S
C818 C819 1.386 . S
C818 C820 1.391 . S
C819 C818 1.386 . S
C819 C823 1.393 . S
C820 H809 0.950 . S
C820 C818 1.391 . S
C820 C821 1.400 . S
C821 C815 1.491 . S
C821 C820 1.400 . S
C821 C822 1.398 . S
C822 H810 0.950 . S
C822 C821 1.398 . S
C822 C823 1.391 . S
C823 H811 0.950 . S
C823 C819 1.393 . S
C823 C822 1.391 . S
H824 C832 0.950 . S
H825 C837 0.950 . S
H826 C834 0.950 . S
H827 C836 0.950 . S
H828 C838 0.950 . S
H829 C840 0.950 . S
H830 C842 0.950 . S
H831 C843 0.950 . S
C832 H824 0.950 . S
C832 C833 1.386 . S
C832 C834 1.391 . S
C833 C832 1.386 . S
C833 C837 1.393 . S
C834 H826 0.950 . S
C834 C832 1.391 . S
C834 C835 1.400 . S
C835 C834 1.400 . S
C835 C836 1.398 . S
C835 C841 1.491 . S
C836 H827 0.950 . S
C836 C835 1.398 . S
C836 C837 1.391 . S
C837 H825 0.950 . S
C837 C833 1.393 . S
C837 C836 1.391 . S
C838 H828 0.950 . S
C838 C839 1.386 . S
C838 C840 1.391 . S
C839 C838 1.386 . S
C839 C843 1.393 . S
C840 H829 0.950 . S
C840 C838 1.391 . S
C840 C841 1.400 . S
C841 C835 1.491 . S
C841 C840 1.400 . S
C841 C842 1.398 . S
C842 H830 0.950 . S
C842 C841 1.398 . S
C842 C843 1.391 . S
C843 H831 0.950 . S
C843 C839 1.393 . S
C843 C842 1.391 . S
H844 C852 0.950 . S
H845 C857 0.950 . S
H846 C854 0.950 . S
H847 C856 0.950 . S
H848 C858 0.950 . S
H849 C860 0.950 . S
H850 C862 0.950 . S
H851 C863 0.950 . S
C852 H844 0.950 . S
C852 C853 1.386 . S
C852 C854 1.391 . S
C853 C852 1.386 . S
C853 C857 1.393 . S
C854 H846 0.950 . S
C854 C852 1.391 . S
C854 C855 1.400 . S
C855 C854 1.400 . S
C855 C856 1.398 . S
C855 C861 1.491 . S
C856 H847 0.950 . S
C856 C855 1.398 . S
C856 C857 1.391 . S
C857 H845 0.950 . S
C857 C853 1.393 . S
C857 C856 1.391 . S
C858 H848 0.950 . S
C858 C859 1.386 . S
C858 C860 1.391 . S
C859 C858 1.386 . S
C859 C863 1.393 . S
C860 H849 0.950 . S
C860 C858 1.391 . S
C860 C861 1.400 . S
C861 C855 1.491 . S
C861 C860 1.400 . S
C861 C862 1.398 . S
C862 H850 0.950 . S
C862 C861 1.398 . S
C862 C863 1.391 . S
C863 H851 0.950 . S
C863 C859 1.393 . S
C863 C862 1.391 . S
H864 C872 0.950 . S
H865 C877 0.950 . S
H866 C874 0.950 . S
H867 C876 0.950 . S
H868 C878 0.950 . S
H869 C880 0.950 . S
H870 C882 0.950 . S
H871 C883 0.950 . S
C872 H864 0.950 . S
C872 C873 1.386 . S
C872 C874 1.391 . S
C873 C872 1.386 . S
C873 C877 1.393 . S
C874 H866 0.950 . S
C874 C872 1.391 . S
C874 C875 1.400 . S
C875 C874 1.400 . S
C875 C876 1.398 . S
C875 C881 1.491 . S
C876 H867 0.950 . S
C876 C875 1.398 . S
C876 C877 1.391 . S
C877 H865 0.950 . S
C877 C873 1.393 . S
C877 C876 1.391 . S
C878 H868 0.950 . S
C878 C879 1.386 . S
C878 C880 1.391 . S
C879 C878 1.386 . S
C879 C883 1.393 . S
C880 H869 0.950 . S
C880 C878 1.391 . S
C880 C881 1.400 . S
C881 C875 1.491 . S
C881 C880 1.400 . S
C881 C882 1.398 . S
C882 H870 0.950 . S
C882 C881 1.398 . S
C882 C883 1.391 . S
C883 H871 0.950 . S
C883 C879 1.393 . S
C883 C882 1.391 . S
H884 C892 0.950 . S
H885 C897 0.950 . S
H886 C894 0.950 . S
H887 C896 0.950 . S
H888 C898 0.950 . S
H889 C900 0.950 . S
H890 C902 0.950 . S
H891 C903 0.950 . S
C892 H884 0.950 . S
C892 C893 1.386 . S
C892 C894 1.391 . S
C893 C892 1.386 . S
C893 C897 1.393 . S
C894 H886 0.950 . S
C894 C892 1.391 . S
C894 C895 1.400 . S
C895 C894 1.400 . S
C895 C896 1.398 . S
C895 C901 1.491 . S
C896 H887 0.950 . S
C896 C895 1.398 . S
C896 C897 1.391 . S
C897 H885 0.950 . S
C897 C893 1.393 . S
C897 C896 1.391 . S
C898 H888 0.950 . S
C898 C899 1.386 . S
C898 C900 1.391 . S
C899 C898 1.386 . S
C899 C903 1.393 . S
C900 H889 0.950 . S
C900 C898 1.391 . S
C900 C901 1.400 . S
C901 C895 1.491 . S
C901 C900 1.400 . S
C901 C902 1.398 . S
C902 H890 0.950 . S
C902 C901 1.398 . S
C902 C903 1.391 . S
C903 H891 0.950 . S
C903 C899 1.393 . S
C903 C902 1.391 . S
H904 C912 0.950 . S
H905 C917 0.950 . S
H906 C914 0.950 . S
H907 C916 0.950 . S
H908 C918 0.950 . S
H909 C920 0.950 . S
H910 C922 0.950 . S
H911 C923 0.950 . S
C912 H904 0.950 . S
C912 C913 1.386 . S
C912 C914 1.391 . S
C913 C912 1.386 . S
C913 C917 1.393 . S
C914 H906 0.950 . S
C914 C912 1.391 . S
C914 C915 1.400 . S
C915 C914 1.400 . S
C915 C916 1.398 . S
C915 C921 1.491 . S
C916 H907 0.950 . S
C916 C915 1.398 . S
C916 C917 1.391 . S
C917 H905 0.950 . S
C917 C913 1.393 . S
C917 C916 1.391 . S
C918 H908 0.950 . S
C918 C919 1.386 . S
C918 C920 1.391 . S
C919 C918 1.386 . S
C919 C923 1.393 . S
C920 H909 0.950 . S
C920 C918 1.391 . S
C920 C921 1.400 . S
C921 C915 1.491 . S
C921 C920 1.400 . S
C921 C922 1.398 . S
C922 H910 0.950 . S
C922 C921 1.398 . S
C922 C923 1.391 . S
C923 H911 0.950 . S
C923 C919 1.393 . S
C923 C922 1.391 . S
H924 C932 0.950 . S
H925 C937 0.950 . S
H926 C934 0.950 . S
H927 C936 0.950 . S
H928 C938 0.950 . S
H929 C940 0.950 . S
H930 C942 0.950 . S
H931 C943 0.950 . S
C932 H924 0.950 . S
C932 C933 1.386 . S
C932 C934 1.391 . S
C933 C932 1.386 . S
C933 C937 1.393 . S
C934 H926 0.950 . S
C934 C932 1.391 . S
C934 C935 1.400 . S
C935 C934 1.400 . S
C935 C936 1.398 . S
C935 C941 1.491 . S
C936 H927 0.950 . S
C936 C935 1.398 . S
C936 C937 1.391 . S
C937 H925 0.950 . S
C937 C933 1.393 . S
C937 C936 1.391 . S
C938 H928 0.950 . S
C938 C939 1.386 . S
C938 C940 1.391 . S
C939 C938 1.386 . S
C939 C943 1.393 . S
C940 H929 0.950 . S
C940 C938 1.391 . S
C940 C941 1.400 . S
C941 C935 1.491 . S
C941 C940 1.400 . S
C941 C942 1.398 . S
C942 H930 0.950 . S
C942 C941 1.398 . S
C942 C943 1.391 . S
C943 H931 0.950 . S
C943 C939 1.393 . S
C943 C942 1.391 . S
H944 C952 0.950 . S
H945 C957 0.950 . S
H946 C954 0.950 . S
H947 C956 0.950 . S
H948 C958 0.950 . S
H949 C960 0.950 . S
H950 C962 0.950 . S
H951 C963 0.950 . S
C952 H944 0.950 . S
C952 C953 1.386 . S
C952 C954 1.391 . S
C953 C952 1.386 . S
C953 C957 1.393 1_545 S
C954 H946 0.950 . S
C954 C952 1.391 . S
C954 C955 1.400 . S
C955 C954 1.400 . S
C955 C956 1.398 1_545 S
C955 C961 1.491 . S
C956 H947 0.950 . S
C956 C955 1.398 1_565 S
C956 C957 1.391 . S
C957 H945 0.950 . S
C957 C953 1.393 1_565 S
C957 C956 1.391 . S
C958 H948 0.950 . S
C958 C959 1.386 1_565 S
C958 C960 1.391 . S
C959 C958 1.386 1_545 S
C959 C963 1.393 . S
C960 H949 0.950 . S
C960 C958 1.391 . S
C960 C961 1.400 1_565 S
C961 C955 1.491 . S
C961 C960 1.400 1_545 S
C961 C962 1.398 . S
C962 H950 0.950 . S
C962 C961 1.398 . S
C962 C963 1.391 . S
C963 H951 0.950 . S
C963 C959 1.393 . S
C963 C962 1.391 . S
H964 C972 0.950 . S
H965 C977 0.950 . S
H966 C974 0.950 . S
H967 C976 0.950 . S
H968 C978 0.950 . S
H969 C980 0.950 . S
H970 C982 0.950 . S
H971 C983 0.950 . S
C972 H964 0.950 . S
C972 C973 1.386 . S
C972 C974 1.391 . S
C973 C972 1.386 . S
C973 C977 1.393 . S
C974 H966 0.950 . S
C974 C972 1.391 . S
C974 C975 1.400 . S
C975 C974 1.400 . S
C975 C976 1.398 . S
C975 C981 1.491 . S
C976 H967 0.950 . S
C976 C975 1.398 . S
C976 C977 1.391 . S
C977 H965 0.950 . S
C977 C973 1.393 . S
C977 C976 1.391 . S
C978 H968 0.950 . S
C978 C979 1.386 . S
C978 C980 1.391 . S
C979 C978 1.386 . S
C979 C983 1.393 . S
C980 H969 0.950 . S
C980 C978 1.391 . S
C980 C981 1.400 . S
C981 C975 1.491 . S
C981 C980 1.400 . S
C981 C982 1.398 . S
C982 H970 0.950 . S
C982 C981 1.398 . S
C982 C983 1.391 . S
C983 H971 0.950 . S
C983 C979 1.393 . S
C983 C982 1.391 . S
H984 C992 0.950 . S
H985 C997 0.950 . S
H986 C994 0.950 . S
H987 C996 0.950 . S
H988 C998 0.950 . S
H989 C1000 0.950 . S
H990 C1002 0.950 . S
H991 C1003 0.950 . S
C992 H984 0.950 . S
C992 C993 1.386 . S
C992 C994 1.391 . S
C993 C992 1.386 . S
C993 C997 1.393 1_455 S
C994 H986 0.950 . S
C994 C992 1.391 . S
C994 C995 1.400 . S
C995 C994 1.400 . S
C995 C996 1.398 . S
C995 C1001 1.491 . S
C996 H987 0.950 . S
C996 C995 1.398 . S
C996 C997 1.391 1_455 S
C997 H985 0.950 . S
C997 C993 1.393 1_655 S
C997 C996 1.391 1_655 S
C998 H988 0.950 . S
C998 C999 1.386 . S
C998 C1000 1.391 . S
C999 C998 1.386 . S
C999 C1003 1.393 . S
C1000 H989 0.950 . S
C1000 C998 1.391 . S
C1000 C1001 1.400 . S
C1001 C995 1.491 . S
C1001 C1000 1.400 . S
C1001 C1002 1.398 . S
C1002 H990 0.950 . S
C1002 C1001 1.398 . S
C1002 C1003 1.391 . S
C1003 H991 0.950 . S
C1003 C999 1.393 . S
C1003 C1002 1.391 . S
H1004 C1012 0.950 . S
H1005 C1017 0.950 . S
H1006 C1014 0.950 . S
H1007 C1016 0.950 . S
H1008 C1018 0.950 . S
H1009 C1020 0.950 . S
H1010 C1022 0.950 . S
H1011 C1023 0.950 . S
C1012 H1004 0.950 . S
C1012 C1013 1.386 . S
C1012 C1014 1.391 . S
C1013 C1012 1.386 . S
C1013 C1017 1.393 . S
C1014 H1006 0.950 . S
C1014 C1012 1.391 . S
C1014 C1015 1.400 . S
C1015 C1014 1.400 . S
C1015 C1016 1.398 . S
C1015 C1021 1.491 . S
C1016 H1007 0.950 . S
C1016 C1015 1.398 . S
C1016 C1017 1.391 . S
C1017 H1005 0.950 . S
C1017 C1013 1.393 . S
C1017 C1016 1.391 . S
C1018 H1008 0.950 . S
C1018 C1019 1.386 . S
C1018 C1020 1.391 . S
C1019 C1018 1.386 . S
C1019 C1023 1.393 . S
C1020 H1009 0.950 . S
C1020 C1018 1.391 . S
C1020 C1021 1.400 . S
C1021 C1015 1.491 . S
C1021 C1020 1.400 . S
C1021 C1022 1.398 . S
C1022 H1010 0.950 . S
C1022 C1021 1.398 . S
C1022 C1023 1.391 . S
C1023 H1011 0.950 . S
C1023 C1019 1.393 . S
C1023 C1022 1.391 . S
H1024 C1032 0.950 . S
H1025 C1037 0.946 1_456 S
H1026 C1034 0.950 . S
H1027 C1036 0.950 1_455 S
H1028 C1038 0.950 . S
H1029 C1040 0.950 . S
H1030 C1042 0.950 1_554 S
H1031 C1043 0.950 . S
C1032 H1024 0.950 . S
C1032 C1033 1.386 . S
C1032 C1034 1.391 . S
C1033 C1032 1.386 . S
C1033 C1037 1.393 . S
C1034 H1026 0.950 . S
C1034 C1032 1.391 . S
C1034 C1035 1.400 1_554 S
C1035 C1034 1.400 1_556 S
C1035 C1036 1.398 . S
C1035 C1041 1.491 . S
C1036 H1027 0.950 1_655 S
C1036 C1035 1.398 . S
C1036 C1037 1.391 1_556 S
C1037 H1025 0.946 1_654 S
C1037 C1033 1.393 . S
C1037 C1036 1.391 1_554 S
C1038 H1028 0.950 . S
C1038 C1039 1.386 1_455 S
C1038 C1040 1.391 . S
C1039 C1038 1.386 1_655 S
C1039 C1043 1.393 . S
C1040 H1029 0.950 . S
C1040 C1038 1.391 . S
C1040 C1041 1.400 1_455 S
C1041 C1035 1.491 . S
C1041 C1040 1.400 1_655 S
C1041 C1042 1.398 . S
C1042 H1030 0.950 1_556 S
C1042 C1041 1.398 . S
C1042 C1043 1.391 . S
C1043 H1031 0.950 . S
C1043 C1039 1.393 . S
C1043 C1042 1.391 . S
H1044 C1052 0.950 . S
H1045 C1057 0.950 . S
H1046 C1054 0.950 . S
H1047 C1056 0.950 . S
H1048 C1058 0.950 . S
H1049 C1060 0.950 . S
H1050 C1062 0.950 . S
H1051 C1063 0.950 . S
C1052 H1044 0.950 . S
C1052 C1053 1.386 . S
C1052 C1054 1.391 . S
C1053 C1052 1.386 . S
C1053 C1057 1.393 . S
C1054 H1046 0.950 . S
C1054 C1052 1.391 . S
C1054 C1055 1.400 . S
C1055 C1054 1.400 . S
C1055 C1056 1.398 . S
C1055 C1061 1.491 . S
C1056 H1047 0.950 . S
C1056 C1055 1.398 . S
C1056 C1057 1.391 . S
C1057 H1045 0.950 . S
C1057 C1053 1.393 . S
C1057 C1056 1.391 . S
C1058 H1048 0.950 . S
C1058 C1059 1.386 . S
C1058 C1060 1.391 . S
C1059 C1058 1.386 . S
C1059 C1063 1.393 . S
C1060 H1049 0.950 . S
C1060 C1058 1.391 . S
C1060 C1061 1.400 . S
C1061 C1055 1.491 . S
C1061 C1060 1.400 . S
C1061 C1062 1.398 . S
C1062 H1050 0.950 . S
C1062 C1061 1.398 . S
C1062 C1063 1.391 . S
C1063 H1051 0.950 . S
C1063 C1059 1.393 . S
C1063 C1062 1.391 . S
H1064 C1072 0.950 . S
H1065 C1077 0.950 1_655 S
H1066 C1074 0.950 . S
H1067 C1076 0.950 1_655 S
H1068 C1078 0.950 . S
H1069 C1080 0.950 . S
H1070 C1082 0.950 1_554 S
H1071 C1083 0.950 . S
C1072 H1064 0.950 . S
C1072 C1073 1.386 . S
C1072 C1074 1.391 . S
C1073 C1072 1.386 . S
C1073 C1077 1.393 . S
C1074 H1066 0.950 . S
C1074 C1072 1.391 . S
C1074 C1075 1.400 1_554 S
C1075 C1074 1.400 1_556 S
C1075 C1076 1.398 . S
C1075 C1081 1.491 . S
C1076 H1067 0.950 1_455 S
C1076 C1075 1.398 . S
C1076 C1077 1.391 1_556 S
C1077 H1065 0.950 1_455 S
C1077 C1073 1.393 . S
C1077 C1076 1.391 1_554 S
C1078 H1068 0.950 . S
C1078 C1079 1.386 1_655 S
C1078 C1080 1.391 . S
C1079 C1078 1.386 1_455 S
C1079 C1083 1.393 . S
C1080 H1069 0.950 . S
C1080 C1078 1.391 . S
C1080 C1081 1.400 1_655 S
C1081 C1075 1.491 . S
C1081 C1080 1.400 1_455 S
C1081 C1082 1.398 . S
C1082 H1070 0.950 1_556 S
C1082 C1081 1.398 . S
C1082 C1083 1.391 . S
C1083 H1071 0.950 . S
C1083 C1079 1.393 . S
C1083 C1082 1.391 . S
H1084 C1092 0.950 . S
H1085 C1097 0.950 . S
H1086 C1094 0.950 . S
H1087 C1096 0.950 . S
H1088 C1098 0.950 . S
H1089 C1100 0.950 . S
H1090 C1102 0.950 . S
H1091 C1103 0.950 . S
C1092 H1084 0.950 . S
C1092 C1093 1.386 . S
C1092 C1094 1.391 . S
C1093 C1092 1.386 . S
C1093 C1097 1.393 . S
C1094 H1086 0.950 . S
C1094 C1092 1.391 . S
C1094 C1095 1.400 . S
C1095 C1094 1.400 . S
C1095 C1096 1.398 . S
C1095 C1101 1.491 . S
C1096 H1087 0.950 . S
C1096 C1095 1.398 . S
C1096 C1097 1.391 . S
C1097 H1085 0.950 . S
C1097 C1093 1.393 . S
C1097 C1096 1.391 . S
C1098 H1088 0.950 . S
C1098 C1099 1.386 . S
C1098 C1100 1.391 . S
C1099 C1098 1.386 . S
C1099 C1103 1.393 . S
C1100 H1089 0.950 . S
C1100 C1098 1.391 . S
C1100 C1101 1.400 . S
C1101 C1095 1.491 . S
C1101 C1100 1.400 . S
C1101 C1102 1.398 . S
C1102 H1090 0.950 . S
C1102 C1101 1.398 . S
C1102 C1103 1.391 . S
C1103 H1091 0.950 . S
C1103 C1099 1.393 . S
C1103 C1102 1.391 . S
H1104 C1112 0.950 . S
H1105 C1117 0.950 . S
H1106 C1114 0.950 . S
H1107 C1116 0.944 1_556 S
H1108 C1118 0.950 . S
H1109 C1120 0.950 . S
H1110 C1122 0.950 . S
H1111 C1123 0.950 . S
C1112 H1104 0.950 . S
C1112 C1113 1.386 1_554 S
C1112 C1114 1.391 . S
C1113 C1112 1.386 1_556 S
C1113 C1117 1.393 . S
C1114 H1106 0.950 . S
C1114 C1112 1.391 . S
C1114 C1115 1.400 . S
C1115 C1114 1.400 . S
C1115 C1116 1.419 . S
C1115 C1121 1.491 . S
C1116 H1107 0.944 1_554 S
C1116 C1115 1.419 . S
C1116 C1117 1.375 1_554 S
C1117 H1105 0.950 . S
C1117 C1113 1.393 . S
C1117 C1116 1.375 1_556 S
C1118 H1108 0.950 . S
C1118 C1119 1.386 . S
C1118 C1120 1.391 . S
C1119 C1118 1.386 . S
C1119 C1123 1.393 . S
C1120 H1109 0.950 . S
C1120 C1118 1.391 . S
C1120 C1121 1.400 . S
C1121 C1115 1.491 . S
C1121 C1120 1.400 . S
C1121 C1122 1.398 . S
C1122 H1110 0.950 . S
C1122 C1121 1.398 . S
C1122 C1123 1.391 . S
C1123 H1111 0.950 . S
C1123 C1119 1.393 . S
C1123 C1122 1.391 . S
H1124 C1132 0.950 . S
H1125 C1137 0.950 . S
H1126 C1134 0.950 . S
H1127 C1136 0.950 . S
H1128 C1138 0.950 . S
H1129 C1140 0.950 . S
H1130 C1142 0.950 . S
H1131 C1143 0.950 . S
C1132 H1124 0.950 . S
C1132 C1133 1.386 . S
C1132 C1134 1.391 . S
C1133 C1132 1.386 . S
C1133 C1137 1.393 . S
C1134 H1126 0.950 . S
C1134 C1132 1.391 . S
C1134 C1135 1.400 . S
C1135 C1134 1.400 . S
C1135 C1136 1.398 . S
C1135 C1141 1.491 . S
C1136 H1127 0.950 . S
C1136 C1135 1.398 . S
C1136 C1137 1.391 . S
C1137 H1125 0.950 . S
C1137 C1133 1.393 . S
C1137 C1136 1.391 . S
C1138 H1128 0.950 . S
C1138 C1139 1.386 . S
C1138 C1140 1.391 . S
C1139 C1138 1.386 . S
C1139 C1143 1.393 . S
C1140 H1129 0.950 . S
C1140 C1138 1.391 . S
C1140 C1141 1.400 . S
C1141 C1135 1.491 . S
C1141 C1140 1.400 . S
C1141 C1142 1.398 . S
C1142 H1130 0.950 . S
C1142 C1141 1.398 . S
C1142 C1143 1.391 . S
C1143 H1131 0.950 . S
C1143 C1139 1.393 . S
C1143 C1142 1.391 . S
H1144 C1152 0.950 . S
H1145 C1157 0.950 . S
H1146 C1154 0.950 1_556 S
H1147 C1156 0.950 . S
H1148 C1158 0.950 . S
H1149 C1160 0.950 . S
H1150 C1162 0.950 . S
H1151 C1163 0.950 . S
C1152 H1144 0.950 . S
C1152 C1153 1.386 . S
C1152 C1154 1.391 1_556 S
C1153 C1152 1.386 . S
C1153 C1157 1.393 1_556 S
C1154 H1146 0.950 1_554 S
C1154 C1152 1.391 1_554 S
C1154 C1155 1.400 . S
C1155 C1154 1.400 . S
C1155 C1156 1.398 . S
C1155 C1161 1.491 . S
C1156 H1147 0.950 . S
C1156 C1155 1.398 . S
C1156 C1157 1.391 . S
C1157 H1145 0.950 . S
C1157 C1153 1.393 1_554 S
C1157 C1156 1.391 . S
C1158 H1148 0.950 . S
C1158 C1159 1.386 . S
C1158 C1160 1.391 . S
C1159 C1158 1.386 . S
C1159 C1163 1.393 . S
C1160 H1149 0.950 . S
C1160 C1158 1.391 . S
C1160 C1161 1.400 . S
C1161 C1155 1.491 . S
C1161 C1160 1.400 . S
C1161 C1162 1.398 . S
C1162 H1150 0.950 . S
C1162 C1161 1.398 . S
C1162 C1163 1.391 . S
C1163 H1151 0.950 . S
C1163 C1159 1.393 . S
C1163 C1162 1.391 . S
H1164 C1172 0.950 . S
H1165 C1177 0.950 . S
H1166 C1174 0.950 . S
H1167 C1176 0.950 . S
H1168 C1178 0.950 . S
H1169 C1180 0.950 . S
H1170 C1182 0.950 . S
H1171 C1183 0.950 . S
C1172 H1164 0.950 . S
C1172 C1173 1.386 . S
C1172 C1174 1.391 . S
C1173 C1172 1.386 . S
C1173 C1177 1.393 . S
C1174 H1166 0.950 . S
C1174 C1172 1.391 . S
C1174 C1175 1.400 . S
C1175 C1174 1.400 . S
C1175 C1176 1.398 . S
C1175 C1181 1.491 . S
C1176 H1167 0.950 . S
C1176 C1175 1.398 . S
C1176 C1177 1.391 . S
C1177 H1165 0.950 . S
C1177 C1173 1.393 . S
C1177 C1176 1.391 . S
C1178 H1168 0.950 . S
C1178 C1179 1.386 . S
C1178 C1180 1.391 . S
C1179 C1178 1.386 . S
C1179 C1183 1.393 . S
C1180 H1169 0.950 . S
C1180 C1178 1.391 . S
C1180 C1181 1.400 . S
C1181 C1175 1.491 . S
C1181 C1180 1.400 . S
C1181 C1182 1.398 . S
C1182 H1170 0.950 . S
C1182 C1181 1.398 . S
C1182 C1183 1.391 . S
C1183 H1171 0.950 . S
C1183 C1179 1.393 . S
C1183 C1182 1.391 . S
H1184 C1192 0.950 . S
H1185 C1197 0.950 . S
H1186 C1194 0.950 . S
H1187 C1196 0.950 . S
H1188 C1198 0.950 . S
H1189 C1200 0.950 . S
H1190 C1202 0.950 . S
H1191 C1203 0.950 . S
C1192 H1184 0.950 . S
C1192 C1193 1.386 . S
C1192 C1194 1.391 . S
C1193 C1192 1.386 . S
C1193 C1197 1.393 . S
C1194 H1186 0.950 . S
C1194 C1192 1.391 . S
C1194 C1195 1.400 . S
C1195 C1194 1.400 . S
C1195 C1196 1.398 . S
C1195 C1201 1.491 . S
C1196 H1187 0.950 . S
C1196 C1195 1.398 . S
C1196 C1197 1.391 . S
C1197 H1185 0.950 . S
C1197 C1193 1.393 . S
C1197 C1196 1.391 . S
C1198 H1188 0.950 . S
C1198 C1199 1.386 . S
C1198 C1200 1.391 . S
C1199 C1198 1.386 . S
C1199 C1203 1.393 . S
C1200 H1189 0.950 . S
C1200 C1198 1.391 . S
C1200 C1201 1.400 . S
C1201 C1195 1.491 . S
C1201 C1200 1.400 . S
C1201 C1202 1.398 . S
C1202 H1190 0.950 . S
C1202 C1201 1.398 . S
C1202 C1203 1.391 . S
C1203 H1191 0.950 . S
C1203 C1199 1.393 . S
C1203 C1202 1.391 . S
H1204 C1212 0.950 . S
H1205 C1217 0.950 . S
H1206 C1214 0.950 . S
H1207 C1216 0.950 . S
H1208 C1218 0.950 . S
H1209 C1220 0.950 . S
H1210 C1222 0.950 . S
H1211 C1223 0.950 . S
C1212 H1204 0.950 . S
C1212 C1213 1.386 . S
C1212 C1214 1.391 . S
C1213 C1212 1.386 . S
C1213 C1217 1.393 . S
C1214 H1206 0.950 . S
C1214 C1212 1.391 . S
C1214 C1215 1.400 . S
C1215 C1214 1.400 . S
C1215 C1216 1.398 . S
C1215 C1221 1.491 . S
C1216 H1207 0.950 . S
C1216 C1215 1.398 . S
C1216 C1217 1.391 . S
C1217 H1205 0.950 . S
C1217 C1213 1.393 . S
C1217 C1216 1.391 . S
C1218 H1208 0.950 . S
C1218 C1219 1.386 . S
C1218 C1220 1.391 . S
C1219 C1218 1.386 . S
C1219 C1223 1.393 . S
C1220 H1209 0.950 . S
C1220 C1218 1.391 . S
C1220 C1221 1.400 . S
C1221 C1215 1.491 . S
C1221 C1220 1.400 . S
C1221 C1222 1.398 . S
C1222 H1210 0.950 . S
C1222 C1221 1.398 . S
C1222 C1223 1.391 . S
C1223 H1211 0.950 . S
C1223 C1219 1.393 . S
C1223 C1222 1.391 . S
H1224 C1232 0.950 . S
H1225 C1237 0.950 . S
H1226 C1234 0.950 . S
H1227 C1236 0.950 . S
H1228 C1238 0.950 . S
H1229 C1240 0.950 . S
H1230 C1242 0.950 . S
H1231 C1243 0.950 . S
C1232 H1224 0.950 . S
C1232 C1233 1.386 . S
C1232 C1234 1.391 . S
C1233 C1232 1.386 . S
C1233 C1237 1.393 . S
C1234 H1226 0.950 . S
C1234 C1232 1.391 . S
C1234 C1235 1.400 . S
C1235 C1234 1.400 . S
C1235 C1236 1.398 . S
C1235 C1241 1.491 . S
C1236 H1227 0.950 . S
C1236 C1235 1.398 . S
C1236 C1237 1.391 . S
C1237 H1225 0.950 . S
C1237 C1233 1.393 . S
C1237 C1236 1.391 . S
C1238 H1228 0.950 . S
C1238 C1239 1.386 . S
C1238 C1240 1.391 . S
C1239 C1238 1.386 . S
C1239 C1243 1.393 . S
C1240 H1229 0.950 . S
C1240 C1238 1.391 . S
C1240 C1241 1.400 . S
C1241 C1235 1.491 . S
C1241 C1240 1.400 . S
C1241 C1242 1.398 . S
C1242 H1230 0.950 . S
C1242 C1241 1.398 . S
C1242 C1243 1.391 . S
C1243 H1231 0.950 . S
C1243 C1239 1.393 . S
C1243 C1242 1.391 . S
H1244 C1252 0.950 1_554 S
H1245 C1257 0.950 . S
H1246 C1254 0.950 1_554 S
H1247 C1256 0.950 . S
H1248 C1258 0.950 . S
H1249 C1260 0.950 . S
H1250 C1262 0.962 . S
H1251 C1263 0.950 . S
C1252 H1244 0.950 1_556 S
C1252 C1253 1.386 . S
C1252 C1254 1.391 . S
C1253 C1252 1.386 . S
C1253 C1257 1.393 . S
C1254 H1246 0.950 1_556 S
C1254 C1252 1.391 . S
C1254 C1255 1.400 . S
C1255 C1254 1.400 . S
C1255 C1256 1.398 . S
C1255 C1261 1.491 . S
C1256 H1247 0.950 . S
C1256 C1255 1.398 . S
C1256 C1257 1.391 . S
C1257 H1245 0.950 . S
C1257 C1253 1.393 . S
C1257 C1256 1.391 . S
C1258 H1248 0.950 . S
C1258 C1259 1.386 . S
C1258 C1260 1.391 . S
C1259 C1258 1.386 . S
C1259 C1263 1.393 1_556 S
C1260 H1249 0.950 . S
C1260 C1258 1.391 . S
C1260 C1261 1.400 . S
C1261 C1255 1.491 . S
C1261 C1260 1.400 . S
C1261 C1262 1.385 1_556 S
C1262 H1250 0.962 . S
C1262 C1261 1.385 1_554 S
C1262 C1263 1.392 . S
C1263 H1251 0.950 . S
C1263 C1259 1.393 1_554 S
C1263 C1262 1.392 . S
H1264 C1272 0.950 . S
H1265 C1277 0.950 . S
H1266 C1274 0.950 . S
H1267 C1276 0.950 . S
H1268 C1278 0.950 . S
H1269 C1280 0.950 . S
H1270 C1282 0.950 . S
H1271 C1283 0.950 . S
C1272 H1264 0.950 . S
C1272 C1273 1.386 . S
C1272 C1274 1.391 . S
C1273 C1272 1.386 . S
C1273 C1277 1.393 . S
C1274 H1266 0.950 . S
C1274 C1272 1.391 . S
C1274 C1275 1.400 . S
C1275 C1274 1.400 . S
C1275 C1276 1.398 . S
C1275 C1281 1.491 . S
C1276 H1267 0.950 . S
C1276 C1275 1.398 . S
C1276 C1277 1.391 . S
C1277 H1265 0.950 . S
C1277 C1273 1.393 . S
C1277 C1276 1.391 . S
C1278 H1268 0.950 . S
C1278 C1279 1.386 . S
C1278 C1280 1.391 . S
C1279 C1278 1.386 . S
C1279 C1283 1.393 . S
C1280 H1269 0.950 . S
C1280 C1278 1.391 . S
C1280 C1281 1.400 . S
C1281 C1275 1.491 . S
C1281 C1280 1.400 . S
C1281 C1282 1.398 . S
C1282 H1270 0.950 . S
C1282 C1281 1.398 . S
C1282 C1283 1.391 . S
C1283 H1271 0.950 . S
C1283 C1279 1.393 . S
C1283 C1282 1.391 . S
H1284 C1292 0.950 . S
H1285 C1297 0.950 . S
H1286 C1294 0.950 . S
H1287 C1296 0.950 . S
H1288 C1298 0.924 1_556 S
H1289 C1300 0.958 . S
H1290 C1302 0.950 . S
H1291 C1303 0.950 . S
C1292 H1284 0.950 . S
C1292 C1293 1.386 . S
C1292 C1294 1.391 . S
C1293 C1292 1.386 . S
C1293 C1297 1.393 . S
C1294 H1286 0.950 . S
C1294 C1292 1.391 . S
C1294 C1295 1.400 . S
C1295 C1294 1.400 . S
C1295 C1296 1.398 . S
C1295 C1301 1.491 . S
C1296 H1287 0.950 . S
C1296 C1295 1.398 . S
C1296 C1297 1.391 . S
C1297 H1285 0.950 . S
C1297 C1293 1.393 . S
C1297 C1296 1.391 . S
C1298 H1288 0.924 1_554 S
C1298 C1299 1.400 . S
C1298 C1300 1.404 . S
C1299 C1298 1.400 . S
C1299 C1303 1.393 . S
C1300 H1289 0.958 . S
C1300 C1298 1.404 . S
C1300 C1301 1.400 . S
C1301 C1295 1.491 . S
C1301 C1300 1.400 . S
C1301 C1302 1.398 . S
C1302 H1290 0.950 . S
C1302 C1301 1.398 . S
C1302 C1303 1.391 . S
C1303 H1291 0.950 . S
C1303 C1299 1.393 . S
C1303 C1302 1.391 . S
H1304 C1312 0.950 1_545 S
H1305 C1317 0.950 . S
H1306 C1314 0.950 . S
H1307 C1316 0.950 . S
H1308 C1318 0.950 1_556 S
H1309 C1320 0.971 . S
H1310 C1322 0.950 . S
H1311 C1323 0.950 . S
C1312 H1304 0.950 1_565 S
C1312 C1313 1.386 . S
C1312 C1314 1.391 . S
C1313 C1312 1.386 . S
C1313 C1317 1.393 . S
C1314 H1306 0.950 . S
C1314 C1312 1.391 . S
C1314 C1315 1.400 . S
C1315 C1314 1.400 . S
C1315 C1316 1.398 . S
C1315 C1321 1.491 . S
C1316 H1307 0.950 . S
C1316 C1315 1.398 . S
C1316 C1317 1.391 . S
C1317 H1305 0.950 . S
C1317 C1313 1.393 . S
C1317 C1316 1.391 . S
C1318 H1308 0.950 1_554 S
C1318 C1319 1.386 . S
C1318 C1320 1.391 . S
C1319 C1318 1.386 . S
C1319 C1323 1.393 . S
C1320 H1309 0.971 . S
C1320 C1318 1.391 . S
C1320 C1321 1.400 . S
C1321 C1315 1.491 . S
C1321 C1320 1.400 . S
C1321 C1322 1.398 . S
C1322 H1310 0.950 . S
C1322 C1321 1.398 . S
C1322 C1323 1.391 . S
C1323 H1311 0.950 . S
C1323 C1319 1.393 . S
C1323 C1322 1.391 . S
C379 C218 1.200 . S
C373 N66 1.201 . S
C399 C231 1.639 . S
C393 N79 1.624 . S
C413 N92 1.764 . S
C419 C244 1.763 . S
C439 C257 1.374 . S
C433 N54 1.387 . S
C459 C265 1.495 . S
C453 N131 1.489 . S
C479 C278 1.130 . S
C473 N158 1.131 . S
C493 N145 1.562 . S
C499 C291 1.545 . S
C519 C304 1.717 . S
C513 N118 1.738 . S
C533 N148 1.866 . S
C539 C322 1.835 . S
C559 C333 1.580 . S
C553 N122 1.611 . S
C573 N132 1.206 . S
C579 C317 1.187 . S
C599 C325 1.462 . S
C593 N161 1.441 . S
C613 N96 1.880 . S
C619 C348 1.892 . S
C633 N53 1.690 . S
C639 C338 1.692 . S
C653 N67 1.094 . S
C659 C343 1.083 . S
C673 N83 1.411 . S
C679 C346 1.396 . S
C693 N44 1.372 . S
C699 C255 1.361 . S
C713 N187 1.422 . S
C719 C247 1.425 . S
C739 C216 1.232 . S
C733 N197 1.263 . S
C759 C221 1.309 . S
C753 N106 1.331 . S
C773 N57 1.817 1_545 S
C779 C268 1.779 . S
C799 C307 1.448 . S
C793 N144 1.452 . S
C819 C260 1.398 . S
C813 N119 1.404 . S
C839 C286 1.704 . S
C833 N157 1.717 . S
C859 C296 1.211 . S
C853 N183 1.185 . S
C873 N196 1.638 . S
C879 C309 1.647 . S
C893 N105 1.761 . S
C899 C270 1.759 . S
C919 C283 1.359 . S
C913 N171 1.386 . S
C933 N40 1.483 . S
C939 C239 1.488 . S
C959 C252 1.107 . S
C953 N2 1.152 . S
C979 C213 1.548 . S
C973 N15 1.563 . S
C999 C226 1.733 . S
C993 N27 1.725 1_455 S
C1013 N18 1.863 . S
C1019 C335 1.839 . S
C1033 N31 1.606 . S
C1039 C320 1.592 1_655 S
C1053 N41 1.203 . S
C1059 C330 1.166 . S
C1073 N5 1.448 . S
C1079 C312 1.455 1_455 S
C1099 C361 1.895 . S
C1093 N109 1.871 . S
C1119 C351 1.689 . S
C1113 N170 1.689 . S
C1139 C356 1.060 . S
C1133 N184 1.085 . S
C1153 N200 1.397 . S
C1159 C359 1.393 . S
C1173 N135 1.378 . S
C1179 C281 1.369 . S
C1199 C273 1.425 . S
C1193 N70 1.421 . S
C1219 C294 1.244 . S
C1213 N80 1.264 . S
C1239 C299 1.308 . S
C1233 N93 1.331 . S
C1253 N174 1.830 . S
C1259 C242 1.779 . S
C1279 C229 1.454 . S
C1273 N14 1.461 . S
C1293 N28 1.405 . S
C1299 C234 1.395 . S
C1319 C208 1.708 . S
C1313 N1 1.720 1_565 S
