# Generated by pormake.
# Topology llk, (3,12)-cn, num edge types: 1
# Building blocks:
#     Node 0, Type 0, BuildingBlock: PAMTOO_clean_linker_0, # of connection points: 3
#     Node 1, Type 0, BuildingBlock: PAMTOO_clean_linker_0, # of connection points: 3
#     Node 2, Type 0, BuildingBlock: PAMTOO_clean_linker_0, # of connection points: 3
#     Node 3, Type 0, BuildingBlock: PAMTOO_clean_linker_0, # of connection points: 3
#     Node 4, Type 0, BuildingBlock: PAMTOO_clean_linker_0, # of connection points: 3
#     Node 5, Type 0, BuildingBlock: PAMTOO_clean_linker_0, # of connection points: 3
#     Node 6, Type 0, BuildingBlock: PAMTOO_clean_linker_0, # of connection points: 3
#     Node 7, Type 0, BuildingBlock: PAMTOO_clean_linker_0, # of connection points: 3
#     Node 8, Type 0, BuildingBlock: PAMTOO_clean_linker_0, # of connection points: 3
#     Node 9, Type 0, BuildingBlock: PAMTOO_clean_linker_0, # of connection points: 3
#     Node 10, Type 0, BuildingBlock: PAMTOO_clean_linker_0, # of connection points: 3
#     Node 11, Type 0, BuildingBlock: PAMTOO_clean_linker_0, # of connection points: 3
#     Node 12, Type 0, BuildingBlock: PAMTOO_clean_linker_0, # of connection points: 3
#     Node 13, Type 0, BuildingBlock: PAMTOO_clean_linker_0, # of connection points: 3
#     Node 14, Type 0, BuildingBlock: PAMTOO_clean_linker_0, # of connection points: 3
#     Node 15, Type 0, BuildingBlock: PAMTOO_clean_linker_0, # of connection points: 3
#     Node 16, Type 0, BuildingBlock: PAMTOO_clean_linker_0, # of connection points: 3
#     Node 17, Type 0, BuildingBlock: PAMTOO_clean_linker_0, # of connection points: 3
#     Node 18, Type 0, BuildingBlock: PAMTOO_clean_linker_0, # of connection points: 3
#     Node 19, Type 0, BuildingBlock: PAMTOO_clean_linker_0, # of connection points: 3
#     Node 20, Type 0, BuildingBlock: PAMTOO_clean_linker_0, # of connection points: 3
#     Node 21, Type 0, BuildingBlock: PAMTOO_clean_linker_0, # of connection points: 3
#     Node 22, Type 0, BuildingBlock: PAMTOO_clean_linker_0, # of connection points: 3
#     Node 23, Type 0, BuildingBlock: PAMTOO_clean_linker_0, # of connection points: 3
#     Node 24, Type 1, BuildingBlock: EZIPEK_clean_sbu_0, # of connection points: 12
#     Node 25, Type 1, BuildingBlock: EZIPEK_clean_sbu_0, # of connection points: 12
#     Node 26, Type 1, BuildingBlock: EZIPEK_clean_sbu_0, # of connection points: 12
#     Node 27, Type 1, BuildingBlock: EZIPEK_clean_sbu_0, # of connection points: 12
#     Node 28, Type 1, BuildingBlock: EZIPEK_clean_sbu_0, # of connection points: 12
#     Node 29, Type 1, BuildingBlock: EZIPEK_clean_sbu_0, # of connection points: 12
#     Edge 30, Type (0, 1), BuildingBlock: XUDNAN_clean_linker_2, # of connection points: 2
#     Edge 31, Type (0, 1), BuildingBlock: XUDNAN_clean_linker_2, # of connection points: 2
#     Edge 32, Type (0, 1), BuildingBlock: XUDNAN_clean_linker_2, # of connection points: 2
#     Edge 33, Type (0, 1), BuildingBlock: XUDNAN_clean_linker_2, # of connection points: 2
#     Edge 34, Type (0, 1), BuildingBlock: XUDNAN_clean_linker_2, # of connection points: 2
#     Edge 35, Type (0, 1), BuildingBlock: XUDNAN_clean_linker_2, # of connection points: 2
#     Edge 36, Type (0, 1), BuildingBlock: XUDNAN_clean_linker_2, # of connection points: 2
#     Edge 37, Type (0, 1), BuildingBlock: XUDNAN_clean_linker_2, # of connection points: 2
#     Edge 38, Type (0, 1), BuildingBlock: XUDNAN_clean_linker_2, # of connection points: 2
#     Edge 39, Type (0, 1), BuildingBlock: XUDNAN_clean_linker_2, # of connection points: 2
#     Edge 40, Type (0, 1), BuildingBlock: XUDNAN_clean_linker_2, # of connection points: 2
#     Edge 41, Type (0, 1), BuildingBlock: XUDNAN_clean_linker_2, # of connection points: 2
#     Edge 42, Type (0, 1), BuildingBlock: XUDNAN_clean_linker_2, # of connection points: 2
#     Edge 43, Type (0, 1), BuildingBlock: XUDNAN_clean_linker_2, # of connection points: 2
#     Edge 44, Type (0, 1), BuildingBlock: XUDNAN_clean_linker_2, # of connection points: 2
#     Edge 45, Type (0, 1), BuildingBlock: XUDNAN_clean_linker_2, # of connection points: 2
#     Edge 46, Type (0, 1), BuildingBlock: XUDNAN_clean_linker_2, # of connection points: 2
#     Edge 47, Type (0, 1), BuildingBlock: XUDNAN_clean_linker_2, # of connection points: 2
#     Edge 48, Type (0, 1), BuildingBlock: XUDNAN_clean_linker_2, # of connection points: 2
#     Edge 49, Type (0, 1), BuildingBlock: XUDNAN_clean_linker_2, # of connection points: 2
#     Edge 50, Type (0, 1), BuildingBlock: XUDNAN_clean_linker_2, # of connection points: 2
#     Edge 51, Type (0, 1), BuildingBlock: XUDNAN_clean_linker_2, # of connection points: 2
#     Edge 52, Type (0, 1), BuildingBlock: XUDNAN_clean_linker_2, # of connection points: 2
#     Edge 53, Type (0, 1), BuildingBlock: XUDNAN_clean_linker_2, # of connection points: 2
#     Edge 54, Type (0, 1), BuildingBlock: XUDNAN_clean_linker_2, # of connection points: 2
#     Edge 55, Type (0, 1), BuildingBlock: XUDNAN_clean_linker_2, # of connection points: 2
#     Edge 56, Type (0, 1), BuildingBlock: XUDNAN_clean_linker_2, # of connection points: 2
#     Edge 57, Type (0, 1), BuildingBlock: XUDNAN_clean_linker_2, # of connection points: 2
#     Edge 58, Type (0, 1), BuildingBlock: XUDNAN_clean_linker_2, # of connection points: 2
#     Edge 59, Type (0, 1), BuildingBlock: XUDNAN_clean_linker_2, # of connection points: 2
#     Edge 60, Type (0, 1), BuildingBlock: XUDNAN_clean_linker_2, # of connection points: 2
#     Edge 61, Type (0, 1), BuildingBlock: XUDNAN_clean_linker_2, # of connection points: 2
#     Edge 62, Type (0, 1), BuildingBlock: XUDNAN_clean_linker_2, # of connection points: 2
#     Edge 63, Type (0, 1), BuildingBlock: XUDNAN_clean_linker_2, # of connection points: 2
#     Edge 64, Type (0, 1), BuildingBlock: XUDNAN_clean_linker_2, # of connection points: 2
#     Edge 65, Type (0, 1), BuildingBlock: XUDNAN_clean_linker_2, # of connection points: 2
#     Edge 66, Type (0, 1), BuildingBlock: XUDNAN_clean_linker_2, # of connection points: 2
#     Edge 67, Type (0, 1), BuildingBlock: XUDNAN_clean_linker_2, # of connection points: 2
#     Edge 68, Type (0, 1), BuildingBlock: XUDNAN_clean_linker_2, # of connection points: 2
#     Edge 69, Type (0, 1), BuildingBlock: XUDNAN_clean_linker_2, # of connection points: 2
#     Edge 70, Type (0, 1), BuildingBlock: XUDNAN_clean_linker_2, # of connection points: 2
#     Edge 71, Type (0, 1), BuildingBlock: XUDNAN_clean_linker_2, # of connection points: 2
#     Edge 72, Type (0, 1), BuildingBlock: XUDNAN_clean_linker_2, # of connection points: 2
#     Edge 73, Type (0, 1), BuildingBlock: XUDNAN_clean_linker_2, # of connection points: 2
#     Edge 74, Type (0, 1), BuildingBlock: XUDNAN_clean_linker_2, # of connection points: 2
#     Edge 75, Type (0, 1), BuildingBlock: XUDNAN_clean_linker_2, # of connection points: 2
#     Edge 76, Type (0, 1), BuildingBlock: XUDNAN_clean_linker_2, # of connection points: 2
#     Edge 77, Type (0, 1), BuildingBlock: XUDNAN_clean_linker_2, # of connection points: 2
#     Edge 78, Type (0, 1), BuildingBlock: XUDNAN_clean_linker_2, # of connection points: 2
#     Edge 79, Type (0, 1), BuildingBlock: XUDNAN_clean_linker_2, # of connection points: 2
#     Edge 80, Type (0, 1), BuildingBlock: XUDNAN_clean_linker_2, # of connection points: 2
#     Edge 81, Type (0, 1), BuildingBlock: XUDNAN_clean_linker_2, # of connection points: 2
#     Edge 82, Type (0, 1), BuildingBlock: XUDNAN_clean_linker_2, # of connection points: 2
#     Edge 83, Type (0, 1), BuildingBlock: XUDNAN_clean_linker_2, # of connection points: 2
#     Edge 84, Type (0, 1), BuildingBlock: XUDNAN_clean_linker_2, # of connection points: 2
#     Edge 85, Type (0, 1), BuildingBlock: XUDNAN_clean_linker_2, # of connection points: 2
#     Edge 86, Type (0, 1), BuildingBlock: XUDNAN_clean_linker_2, # of connection points: 2
#     Edge 87, Type (0, 1), BuildingBlock: XUDNAN_clean_linker_2, # of connection points: 2
#     Edge 88, Type (0, 1), BuildingBlock: XUDNAN_clean_linker_2, # of connection points: 2
#     Edge 89, Type (0, 1), BuildingBlock: XUDNAN_clean_linker_2, # of connection points: 2
#     Edge 90, Type (0, 1), BuildingBlock: XUDNAN_clean_linker_2, # of connection points: 2
#     Edge 91, Type (0, 1), BuildingBlock: XUDNAN_clean_linker_2, # of connection points: 2
#     Edge 92, Type (0, 1), BuildingBlock: XUDNAN_clean_linker_2, # of connection points: 2
#     Edge 93, Type (0, 1), BuildingBlock: XUDNAN_clean_linker_2, # of connection points: 2
#     Edge 94, Type (0, 1), BuildingBlock: XUDNAN_clean_linker_2, # of connection points: 2
#     Edge 95, Type (0, 1), BuildingBlock: XUDNAN_clean_linker_2, # of connection points: 2
#     Edge 96, Type (0, 1), BuildingBlock: XUDNAN_clean_linker_2, # of connection points: 2
#     Edge 97, Type (0, 1), BuildingBlock: XUDNAN_clean_linker_2, # of connection points: 2
#     Edge 98, Type (0, 1), BuildingBlock: XUDNAN_clean_linker_2, # of connection points: 2
#     Edge 99, Type (0, 1), BuildingBlock: XUDNAN_clean_linker_2, # of connection points: 2
#     Edge 100, Type (0, 1), BuildingBlock: XUDNAN_clean_linker_2, # of connection points: 2
#     Edge 101, Type (0, 1), BuildingBlock: XUDNAN_clean_linker_2, # of connection points: 2
# Relax obj value: 0.069
# Max RMSD: 0.163
# Mean RMSD: 0.123
data_MOF--net-llk--node1-EZIPEK_clean_sbu_0--node2-PAMTOO_clean_linker_0--edge1-XUDNAN_clean_linker_2
_symmetry_space_group_name_H-M    P1
_symmetry_Int_Tables_number       1
_symmetry_cell_setting            triclinic
loop_
_symmetry_equiv_pos_as_xyz
'x, y, z'
_cell_length_a     46.402235
_cell_length_b     47.232821
_cell_length_c     46.806023
_cell_angle_alpha  90.045847
_cell_angle_beta   90.005127
_cell_angle_gamma 89.97961
loop_
_atom_site_label
_atom_site_type_symbol
_atom_site_fract_x
_atom_site_fract_y
_atom_site_fract_z
_atom_type_partial_charge
H0 H 0.02675 0.33751 0.25328 0.0
H1 H 0.02991 0.26144 0.30333 0.0
H2 H 0.01524 0.25618 0.21296 0.0
H3 H 0.99345 0.19504 0.25324 0.0
C4 C 0.99807 0.21111 0.26997 0.0
O5 O 0.02193 0.22676 0.26144 0.0
H6 H 0.97852 0.22475 0.27132 0.0
C7 C 0.0256 0.31464 0.2546 0.0
C8 C 0.02114 0.29882 0.22957 0.0
C9 C 0.02814 0.30157 0.28136 0.0
C10 C 0.02726 0.27194 0.283 0.0
C11 C 0.02218 0.25548 0.25872 0.0
C12 C 0.01884 0.26893 0.23186 0.0
H13 H 0.76379 1.00355 0.33629 0.0
H14 H 0.71478 1.00746 0.25835 0.0
H15 H 0.80568 0.02272 0.25646 0.0
H16 H 0.7664 0.05178 0.20144 0.0
C17 C 0.74808 0.04027 0.21136 0.0
O18 O 0.75858 0.01678 0.22556 0.0
H19 H 0.73736 0.05528 0.22637 0.0
C20 C 0.76267 1.00777 0.31357 0.0
C21 C 0.78803 0.01421 0.29857 0.0
C22 C 0.736 1.00576 0.29954 0.0
C23 C 0.73503 1.00891 0.26977 0.0
C24 C 0.76006 0.0149 0.25435 0.0
C25 C 0.78649 0.01791 0.26868 0.0
H26 H 0.01593 0.76057 0.33861 0.0
H27 H 0.03338 0.71888 0.25884 0.0
H28 H 0.01376 0.80775 0.25985 0.0
H29 H 0.99966 0.77133 0.1923 0.0
C30 C 1.00149 0.75502 0.20929 0.0
O31 O 0.02455 0.76226 0.22686 0.0
H32 H 0.9808 0.75592 0.22133 0.0
C33 C 0.01872 0.76145 0.31565 0.0
C34 C 0.01519 0.7876 0.30155 0.0
C35 C 0.02437 0.73634 0.30055 0.0
C36 C 0.02779 0.7377 0.27082 0.0
C37 C 0.02315 0.76288 0.25593 0.0
C38 C 0.01729 0.78816 0.27132 0.0
H39 H 0.3365 0.02336 0.25375 0.0
H40 H 0.25965 0.0136 0.30445 0.0
H41 H 0.25745 0.99631 0.21446 0.0
H42 H 0.19076 0.01805 0.24731 0.0
C43 C 0.20502 0.01821 0.26637 0.0
O44 O 0.22693 0.99874 0.26231 0.0
H45 H 0.21367 0.04013 0.26848 0.0
C46 C 0.31367 0.01875 0.25549 0.0
C47 C 0.29877 1.00976 0.23112 0.0
C48 C 0.3 0.02001 0.28218 0.0
C49 C 0.27055 0.01361 0.28397 0.0
C50 C 0.25497 1.00607 0.25954 0.0
C51 C 0.26911 1.00387 0.23301 0.0
H52 H 0.02274 0.67879 0.75632 0.0
H53 H 0.02763 0.75238 0.70337 0.0
H54 H 0.01037 0.7621 0.7929 0.0
H55 H 0.97918 0.81181 0.74709 0.0
C56 C 0.99281 0.80196 0.73029 0.0
O57 O 0.01611 0.7887 0.74323 0.0
H58 H 0.97912 0.78628 0.71877 0.0
C59 C 0.02224 0.70164 0.75468 0.0
C60 C 0.01702 0.71846 0.77901 0.0
C61 C 0.02647 0.71368 0.72767 0.0
C62 C 0.02421 0.74293 0.7242 0.0
C63 C 0.01764 0.76028 0.74746 0.0
C64 C 0.01425 0.74819 0.77494 0.0
H65 H 0.34096 0.02874 0.76571 0.0
H66 H 0.26467 0.03144 0.71378 0.0
H67 H 0.25677 0.02203 0.80437 0.0
H68 H 0.19948 0.99432 0.76183 0.0
C69 C 0.21364 1.0029 0.74479 0.0
O70 O 0.22875 0.02582 0.7556 0.0
H71 H 0.22855 0.98557 0.73819 0.0
C72 C 0.3177 0.0283 0.76401 0.0
C73 C 0.30078 0.02552 0.78881 0.0
C74 C 0.30505 0.03068 0.7369 0.0
C75 C 0.27496 0.02992 0.73451 0.0
C76 C 0.25774 0.02619 0.75865 0.0
C77 C 0.27052 0.02401 0.78579 0.0
H78 H 0.03284 0.26252 0.68005 0.0
H79 H 0.02453 0.31701 0.75251 0.0
H80 H 0.00832 0.22786 0.76188 0.0
H81 H 0.04834 0.28523 0.80287 0.0
C82 C 0.02569 0.28358 0.81053 0.0
O83 O 0.00698 0.27827 0.78792 0.0
H84 H 0.02465 0.26531 0.82544 0.0
C85 C 0.02921 0.26482 0.7028 0.0
C86 C 0.0216 0.2411 0.71927 0.0
C87 C 0.03055 0.29201 0.71466 0.0
C88 C 0.02364 0.29597 0.74343 0.0
C89 C 0.01567 0.27307 0.7606 0.0
C90 C 0.01478 0.24549 0.74859 0.0
H91 H 0.76544 0.9985 0.67894 0.0
H92 H 0.70888 1.01239 0.75011 0.0
H93 H 0.79745 0.03816 0.75557 0.0
H94 H 0.763 0.02655 0.82141 0.0
C95 C 0.74513 0.02057 0.8068 0.0
O96 O 0.7473 0.0369 0.78232 0.0
H97 H 0.74756 0.99762 0.8018 0.0
C98 C 0.76204 1.00607 0.70053 0.0
C99 C 0.78498 0.01862 0.71543 0.0
C100 C 0.73456 1.00379 0.71274 0.0
C101 C 0.73003 0.01393 0.7405 0.0
C102 C 0.75267 0.02599 0.75605 0.0
C103 C 0.78023 0.02819 0.74364 0.0
H104 H 0.26169 0.34241 0.02999 0.0
H105 H 0.31401 0.26855 0.01818 0.0
H106 H 0.22241 0.26336 1.00527 0.0
H107 H 0.25674 0.19745 0.02228 0.0
C108 C 0.2737 0.21348 0.02661 0.0
O109 O 0.27185 0.23445 1.00591 0.0
H110 H 0.26902 0.22217 0.04827 0.0
C111 C 0.26336 0.32013 0.02463 0.0
C112 C 0.2386 0.30511 0.01659 0.0
C113 C 0.2904 0.30705 0.02572 0.0
C114 C 0.293 0.27848 0.0184 0.0
C115 C 0.26856 0.2624 0.012 0.0
C116 C 0.24121 0.2757 0.01102 0.0
H117 H 0.26343 0.68488 0.99738 0.0
H118 H 0.31936 0.75663 1.00677 0.0
H119 H 0.22947 0.76466 0.02719 0.0
H120 H 0.26145 0.82323 1.00057 0.0
C121 C 0.28251 0.81233 1.00318 0.0
O122 O 0.27972 0.79145 0.02376 0.0
H123 H 0.28814 0.80301 0.98201 0.0
C124 C 0.26639 0.70688 1.00325 0.0
C125 C 0.24282 0.7227 0.01327 0.0
C126 C 0.29392 0.71884 1.00084 0.0
C127 C 0.29814 0.74718 0.0084 0.0
C128 C 0.27489 0.76387 0.01718 0.0
C129 C 0.24718 0.75172 0.01967 0.0
H130 H 0.76538 0.34013 0.99458 0.0
H131 H 0.71466 0.26564 1.00387 0.0
H132 H 0.80692 0.25934 0.00857 0.0
H133 H 0.77359 0.19514 0.99307 0.0
C134 C 0.75555 0.2104 0.99055 0.0
O135 O 0.75791 0.23089 0.0117 0.0
H136 H 0.75785 0.21987 0.96888 0.0
C137 C 0.7648 0.31735 0.99692 0.0
C138 C 0.7903 0.3019 1.00127 0.0
C139 C 0.73785 0.3042 0.99632 0.0
C140 C 0.73566 0.27539 1.00253 0.0
C141 C 0.76054 0.25905 1.00638 0.0
C142 C 0.78789 0.27224 1.00558 0.0
H143 H 0.76653 0.68712 0.02213 0.0
H144 H 0.70902 0.75666 0.00931 0.0
H145 H 0.80017 0.76865 0.99774 0.0
H146 H 0.76498 0.83041 0.01263 0.0
C147 C 0.74676 0.81558 0.01621 0.0
O148 O 0.74885 0.79369 0.99651 0.0
H149 H 0.74891 0.80755 0.03849 0.0
C150 C 0.76342 0.70947 0.01787 0.0
C151 C 0.78713 0.72634 0.01049 0.0
C152 C 0.7354 0.72038 0.0183 0.0
C153 C 0.73074 0.74855 0.01034 0.0
C154 C 0.75402 0.76629 1.00374 0.0
C155 C 0.78228 0.75511 1.00354 0.0
H156 H 0.52431 0.8474 0.75967 0.0
H157 H 0.53224 0.77513 0.81413 0.0
H158 H 0.51439 0.76333 0.72479 0.0
H159 H 0.48382 0.71476 0.77062 0.0
C160 C 0.49714 0.72472 0.78758 0.0
O161 O 0.52068 0.73783 0.775 0.0
H162 H 0.48327 0.7405 0.79877 0.0
C163 C 0.52493 0.82458 0.76186 0.0
C164 C 0.52027 0.80721 0.73795 0.0
C165 C 0.53001 0.81329 0.789 0.0
C166 C 0.52851 0.78406 0.79312 0.0
C167 C 0.52204 0.76613 0.77021 0.0
C168 C 0.51821 0.77757 0.74251 0.0
H169 H 0.26499 0.51913 0.8368 0.0
H170 H 0.2084 0.50734 0.76537 0.0
H171 H 0.29859 0.48771 0.75707 0.0
H172 H 0.26741 0.50093 0.69266 0.0
C173 C 0.24982 0.50814 0.70704 0.0
O174 O 0.24827 0.48968 0.73005 0.0
H175 H 0.25563 0.52992 0.71416 0.0
C176 C 0.26178 0.51287 0.81474 0.0
C177 C 0.28516 0.50253 0.79894 0.0
C178 C 0.23425 0.51519 0.80276 0.0
C179 C 0.22983 0.50666 0.77442 0.0
C180 C 0.25305 0.4975 0.75761 0.0
C181 C 0.2808 0.49539 0.7699 0.0
H182 H 0.52524 0.26551 0.8378 0.0
H183 H 0.52604 0.21072 0.76471 0.0
H184 H 0.49536 0.29619 0.75621 0.0
H185 H 0.46867 0.24576 0.70684 0.0
C186 C 0.48435 0.23164 0.71771 0.0
O187 O 0.50646 0.24801 0.72893 0.0
H188 H 0.47255 0.22032 0.73502 0.0
C189 C 0.52074 0.26222 0.81533 0.0
C190 C 0.50934 0.28443 0.79894 0.0
C191 C 0.52644 0.23564 0.80333 0.0
C192 C 0.52143 0.23115 0.77424 0.0
C193 C 0.51013 0.25281 0.75727 0.0
C194 C 0.50396 0.27949 0.76955 0.0
H195 H 0.8433 0.50786 0.7558 0.0
H196 H 0.76579 0.50373 0.80581 0.0
H197 H 0.76029 0.51674 0.71536 0.0
H198 H 0.70296 0.54353 0.75632 0.0
C199 C 0.71563 0.53387 0.77393 0.0
O200 O 0.73091 0.51101 0.76325 0.0
H201 H 0.73042 0.55052 0.78231 0.0
C202 C 0.82001 0.50842 0.75702 0.0
C203 C 0.80376 0.51226 0.732 0.0
C204 C 0.8067 0.50532 0.78371 0.0
C205 C 0.77656 0.50597 0.7854 0.0
C206 C 0.75997 0.51059 0.76094 0.0
C207 C 0.77346 0.51382 0.73423 0.0
H208 H 0.532 0.18355 0.26401 0.0
H209 H 0.53315 0.25759 0.21093 0.0
H210 H 0.49488 0.26165 0.29444 0.0
H211 H 0.46887 0.31025 0.24213 0.0
C212 C 0.48601 0.30013 0.22909 0.0
O213 O 0.50761 0.29054 0.24722 0.0
H214 H 0.47594 0.28214 0.21734 0.0
C215 C 0.5267 0.20567 0.26092 0.0
C216 C 0.51259 0.22061 0.28274 0.0
C217 C 0.53388 0.21863 0.23496 0.0
C218 C 0.52754 0.24729 0.23085 0.0
C219 C 0.51323 0.26274 0.25199 0.0
C220 C 0.50574 0.24948 0.27804 0.0
H221 H 0.83363 0.51603 0.2604 0.0
H222 H 0.75557 0.51315 0.2113 0.0
H223 H 0.75287 0.4964 0.30127 0.0
H224 H 0.69093 0.47298 0.26206 0.0
C225 C 0.70784 0.47787 0.24601 0.0
O226 O 0.72193 0.50237 0.25429 0.0
H227 H 0.72277 0.45938 0.24587 0.0
C228 C 0.81073 0.51176 0.25918 0.0
C229 C 0.79548 0.50509 0.28416 0.0
C230 C 0.79683 0.51392 0.23268 0.0
C231 C 0.7668 0.51099 0.23143 0.0
C232 C 0.751 0.5046 0.25603 0.0
C233 C 0.7653 0.50144 0.28238 0.0
H234 H 0.52333 0.75779 0.1736 0.0
H235 H 0.52196 0.81286 0.24658 0.0
H236 H 0.49175 0.72731 0.25462 0.0
H237 H 0.46163 0.77817 0.30102 0.0
C238 C 0.47826 0.79237 0.29179 0.0
O239 O 0.50099 0.77601 0.28177 0.0
H240 H 0.46797 0.80434 0.27399 0.0
C241 C 0.51832 0.7612 0.19593 0.0
C242 C 0.50695 0.73889 0.21226 0.0
C243 C 0.52345 0.78793 0.20793 0.0
C244 C 0.51767 0.79243 0.23691 0.0
C245 C 0.50591 0.77087 0.25365 0.0
C246 C 0.50053 0.74402 0.24141 0.0
H247 H 0.26568 0.52104 0.1839 0.0
H248 H 0.21799 0.52332 0.2625 0.0
H249 H 0.30943 0.51121 0.26461 0.0
H250 H 0.27181 0.48802 0.32747 0.0
C251 C 0.25507 0.49129 0.31083 0.0
O252 O 0.26184 0.5156 0.29564 0.0
H253 H 0.25584 0.47222 0.29681 0.0
C254 C 0.26528 0.52006 0.20699 0.0
C255 C 0.2912 0.51618 0.22208 0.0
C256 C 0.23873 0.52247 0.22117 0.0
C257 C 0.23815 0.52128 0.25109 0.0
C258 C 0.26336 0.51667 0.26669 0.0
C259 C 0.28994 0.51416 0.25225 0.0
H260 H 0.76228 0.84276 0.51028 0.0
H261 H 0.81482 0.76891 0.49971 0.0
H262 H 0.72342 0.75957 0.51068 0.0
H263 H 0.76848 0.7036 0.5369 0.0
C264 C 0.78565 0.71662 0.52688 0.0
O265 O 0.77355 0.73246 0.50493 0.0
H266 H 0.79453 0.73068 0.54388 0.0
C267 C 0.76382 0.81991 0.50876 0.0
C268 C 0.7388 0.80315 0.50986 0.0
C269 C 0.791 0.80778 0.50476 0.0
C270 C 0.79379 0.7784 0.503 0.0
C271 C 0.76976 0.76095 0.50631 0.0
C272 C 0.7421 0.77324 0.50954 0.0
H273 H 0.76099 0.18353 0.51695 0.0
H274 H 0.80928 0.26108 0.51778 0.0
H275 H 0.71827 0.2633 0.50207 0.0
H276 H 0.76174 0.31935 0.47308 0.0
C277 C 0.77879 0.30793 0.4851 0.0
O278 O 0.76615 0.29395 0.50799 0.0
H279 H 0.78883 0.29261 0.46994 0.0
C280 C 0.76156 0.20637 0.5152 0.0
C281 C 0.73594 0.22128 0.50967 0.0
C282 C 0.78809 0.22031 0.51793 0.0
C283 C 0.789 0.24986 0.51589 0.0
C284 C 0.76413 0.26533 0.50981 0.0
C285 C 0.73753 0.2511 0.50644 0.0
H286 H 0.26166 0.83707 0.49733 0.0
H287 H 0.21206 0.76057 0.50408 0.0
H288 H 0.30436 0.75609 0.50098 0.0
H289 H 0.26659 0.69774 0.47336 0.0
C290 C 0.24743 0.7095 0.48123 0.0
O291 O 0.2557 0.72658 0.50388 0.0
H292 H 0.23923 0.72239 0.46301 0.0
C293 C 0.26077 0.81419 0.49853 0.0
C294 C 0.28648 0.79857 0.49912 0.0
C295 C 0.23388 0.80082 0.50018 0.0
C296 C 0.23263 0.77127 0.50226 0.0
C297 C 0.25783 0.75513 0.50189 0.0
C298 C 0.28487 0.7687 0.50052 0.0
H299 H 0.26804 0.18863 0.49856 0.0
H300 H 0.21713 0.26419 0.49289 0.0
H301 H 0.30858 0.27045 0.50551 0.0
H302 H 0.26873 0.33113 0.52791 0.0
C303 C 0.25213 0.31454 0.52436 0.0
O304 O 0.25962 0.29918 0.50022 0.0
H305 H 0.25236 0.30094 0.54381 0.0
C306 C 0.26673 0.21152 0.49866 0.0
C307 C 0.29198 0.22759 0.50169 0.0
C308 C 0.23971 0.22435 0.49569 0.0
C309 C 0.2378 0.25394 0.49565 0.0
C310 C 0.26236 0.27056 0.49991 0.0
C311 C 0.28955 0.25743 0.5029 0.0
C312 C 0.01692 0.94802 0.58007 0.0
C313 C 0.0121 0.94517 0.44098 0.0
C314 C 0.01583 0.08453 0.57844 0.0
C315 C 0.01526 0.08383 0.43883 0.0
C316 C 0.94923 0.08686 0.51321 0.0
C317 C 0.94305 0.95034 0.50707 0.0
C318 C 0.08709 0.08187 0.50135 0.0
C319 C 0.08186 0.94415 0.50627 0.0
C320 C 0.08493 1.00854 0.43881 0.0
C321 C 0.94602 0.01538 0.43939 0.0
C322 C 0.08625 0.01958 0.57796 0.0
C323 C 0.9473 0.01693 0.57973 0.0
Eu324 Eu 0.01338 0.96234 0.51029 0.0
O325 O 0.98913 0.99153 0.48452 0.0
O326 O 0.04142 0.98964 0.53461 0.0
Eu327 Eu 0.96057 0.01778 0.50936 0.0
Eu328 Eu 0.07126 0.01362 0.50859 0.0
O329 O 0.9887 0.99177 0.53525 0.0
O330 O 0.04004 0.98961 0.48455 0.0
Eu331 Eu 0.01657 0.01617 0.56258 0.0
Eu332 Eu 0.01563 0.01474 0.45496 0.0
O333 O 0.99145 0.04146 0.53387 0.0
O334 O 0.9907 0.0414 0.48339 0.0
O335 O 0.04235 0.03928 0.48332 0.0
O336 O 0.04321 0.04025 0.53387 0.0
Eu337 Eu 0.01776 0.06894 0.50864 0.0
O338 O 0.01351 0.93864 0.55323 0.0
O339 O 0.01139 0.93776 0.46855 0.0
O340 O 0.01972 0.09324 0.55142 0.0
O341 O 0.01494 0.09217 0.46616 0.0
O342 O 0.93876 0.06063 0.51098 0.0
O343 O 0.93472 0.97728 0.50832 0.0
O344 O 0.09601 0.05504 0.50364 0.0
O345 O 0.0928 0.97029 0.50811 0.0
O346 O 0.05743 1.01021 0.4308 0.0
O347 O 0.97354 0.01412 0.43149 0.0
O348 O 0.05873 0.02057 0.58607 0.0
O349 O 0.97497 0.0155 0.58718 0.0
O350 O 0.06006 0.09105 0.50329 0.0
O351 O 0.97692 0.0942 0.51284 0.0
O352 O 0.05409 0.93721 0.50685 0.0
O353 O 0.97005 0.94072 0.50769 0.0
O354 O 0.01401 0.97186 0.43136 0.0
O355 O 0.01634 0.05676 0.43017 0.0
O356 O 0.01912 0.97521 0.58749 0.0
O357 O 0.01323 0.0576 0.58655 0.0
O358 O 0.93741 0.0183 0.5528 0.0
O359 O 0.9365 0.01777 0.46637 0.0
O360 O 0.09571 0.01596 0.55115 0.0
O361 O 0.09477 1.00987 0.46568 0.0
C362 C 0.5221 0.94419 0.07447 0.0
C363 C 0.52652 0.08026 0.08523 0.0
C364 C 0.51158 0.95498 0.93785 0.0
C365 C 0.51549 0.09069 0.94814 0.0
C366 C 0.5772 0.02169 0.93674 0.0
C367 C 0.59001 1.0103 0.07402 0.0
C368 C 0.43744 0.02145 0.94937 0.0
C369 C 0.44979 0.01318 0.08641 0.0
C370 C 0.44589 0.08895 0.02086 0.0
C371 C 0.58557 0.08445 0.01025 0.0
C372 C 0.44067 0.95188 0.01669 0.0
C373 C 0.58029 0.94643 1.00278 0.0
Eu374 Eu 0.51864 0.01342 0.06572 0.0
O375 O 0.5422 0.03981 0.03648 0.0
O376 O 0.48941 0.99178 0.03739 0.0
Eu377 Eu 0.56796 0.01589 1.00682 0.0
Eu378 Eu 0.45933 0.0199 0.01682 0.0
O379 O 0.53993 0.99004 0.03244 0.0
O380 O 0.49112 0.04196 0.04206 0.0
Eu381 Eu 0.5109 0.96431 1.00764 0.0
Eu382 Eu 0.51537 0.07108 0.01617 0.0
O383 O 0.5355 0.99391 0.98251 0.0
O384 O 0.53732 0.04358 0.98674 0.0
O385 O 0.48648 0.04612 0.99055 0.0
O386 O 0.48432 0.99544 0.98672 0.0
Eu387 Eu 0.50861 0.02204 0.95809 0.0
O388 O 0.52228 0.97008 0.08581 0.0
O389 O 0.5253 0.05289 0.0921 0.0
O390 O 0.51088 0.98243 0.93134 0.0
O391 O 0.51038 0.06509 0.93731 0.0
O392 O 0.58813 0.01786 0.96283 0.0
O393 O 0.59571 1.01186 0.04615 0.0
O394 O 0.43139 0.01969 0.97719 0.0
O395 O 0.43888 0.01865 0.06064 0.0
O396 O 0.47371 0.0965 0.02071 0.0
O397 O 0.5585 0.09336 0.01394 0.0
O398 O 0.46714 0.9419 0.01117 0.0
O399 O 0.55244 0.93925 1.00372 0.0
O400 O 0.46385 0.02331 0.93805 0.0
O401 O 0.54915 0.02428 0.9306 0.0
O402 O 0.47776 1.00993 0.09265 0.0
O403 O 0.56365 1.01082 0.08569 0.0
O404 O 0.52238 0.09127 0.05934 0.0
O405 O 0.51757 0.0972 0.97581 0.0
O406 O 0.51779 0.93771 0.04708 0.0
O407 O 0.50992 0.94387 0.96396 0.0
O408 O 0.59039 0.97297 1.00314 0.0
O409 O 0.59366 0.05735 1.00743 0.0
O410 O 0.4338 0.97917 0.0197 0.0
O411 O 0.43621 0.06235 0.0192 0.0
C412 C 0.00943 0.44585 0.07997 0.0
C413 C 0.01536 0.44937 0.94125 0.0
C414 C 0.00807 0.58452 0.08386 0.0
C415 C 0.01183 0.58774 0.94496 0.0
C416 C 0.94106 0.58411 1.00738 0.0
C417 C 0.9449 0.44541 0.00977 0.0
C418 C 0.08005 0.58762 0.01585 0.0
C419 C 0.08308 0.44843 0.01608 0.0
C420 C 0.08433 0.52313 0.94641 0.0
C421 C 0.94524 0.51068 0.94108 0.0
C422 C 0.07804 0.51981 0.0852 0.0
C423 C 0.93865 0.51825 0.07797 0.0
Eu424 Eu 0.01364 0.46365 0.01114 0.0
O425 O 0.9885 0.49207 0.98563 0.0
O426 O 0.03729 0.49178 0.03875 0.0
Eu427 Eu 0.95741 0.51531 0.01023 0.0
Eu428 Eu 0.06714 0.5178 0.01507 0.0
O429 O 0.98584 0.49035 0.03642 0.0
O430 O 0.03997 0.49283 0.98715 0.0
Eu431 Eu 0.00933 0.51543 0.06699 0.0
Eu432 Eu 0.01427 0.51816 0.95815 0.0
O433 O 0.98452 0.54065 0.03758 0.0
O434 O 0.98673 0.54188 0.98653 0.0
O435 O 0.03794 0.54262 0.98922 0.0
O436 O 0.03573 0.54138 0.03954 0.0
Eu437 Eu 0.01064 0.5701 0.01395 0.0
O438 O 0.01016 0.43854 0.05241 0.0
O439 O 0.0154 0.44028 0.96833 0.0
O440 O 0.00912 0.59354 0.05676 0.0
O441 O 0.0108 0.59516 0.9725 0.0
O442 O 0.93242 0.55706 1.00653 0.0
O443 O 0.93456 0.47195 0.01055 0.0
O444 O 0.0901 0.56098 0.01686 0.0
O445 O 0.09228 0.47543 0.01572 0.0
O446 O 0.05758 0.52073 0.93627 0.0
O447 O 0.9725 0.51476 0.93279 0.0
O448 O 0.05032 0.5186 0.09255 0.0
O449 O 0.96536 0.51603 0.08847 0.0
O450 O 0.05227 0.59478 0.01465 0.0
O451 O 0.96809 0.59302 0.01061 0.0
O452 O 0.05565 0.44038 0.01448 0.0
O453 O 0.97268 0.43842 0.00912 0.0
O454 O 0.0153 0.4766 0.93329 0.0
O455 O 0.01333 0.56107 0.93523 0.0
O456 O 0.00976 0.47245 0.09 0.0
O457 O 0.00761 0.55724 0.09178 0.0
O458 O 0.93139 0.51831 0.05048 0.0
O459 O 0.93562 0.51043 0.96784 0.0
O460 O 0.08862 0.51899 0.05865 0.0
O461 O 0.09223 0.52257 0.97385 0.0
C462 C 0.51783 0.44076 0.0759 0.0
C463 C 0.51379 0.5775 0.07836 0.0
C464 C 0.51054 0.44324 0.93571 0.0
C465 C 0.51831 0.57972 0.93838 0.0
C466 C 0.58269 0.50896 0.93598 0.0
C467 C 0.58638 0.50497 0.07439 0.0
C468 C 0.44427 0.51129 0.93821 0.0
C469 C 0.44695 0.50887 0.07807 0.0
C470 C 0.44582 0.57928 1.00177 0.0
C471 C 0.58496 0.5778 0.01347 0.0
C472 C 0.44467 0.44272 0.01529 0.0
C473 C 0.58301 0.44109 0.99814 0.0
Eu474 Eu 0.51628 0.5094 0.06035 0.0
O475 O 0.54122 0.53501 0.03178 0.0
O476 O 0.48985 0.48519 0.03175 0.0
Eu477 Eu 0.56938 0.50969 1.00558 0.0
Eu478 Eu 0.45989 0.5108 0.00803 0.0
O479 O 0.5408 0.48391 0.03093 0.0
O480 O 0.48966 0.53566 0.03326 0.0
Eu481 Eu 0.5139 0.45577 1.0061 0.0
Eu482 Eu 0.51519 0.56464 0.00806 0.0
O483 O 0.53912 0.48508 0.98135 0.0
O484 O 0.54032 0.53622 0.98168 0.0
O485 O 0.4891 0.53613 0.98321 0.0
O486 O 0.48785 0.48511 0.98177 0.0
Eu487 Eu 0.51371 0.51112 0.95389 0.0
O488 O 0.51815 0.46782 0.08405 0.0
O489 O 0.51588 0.55025 0.08561 0.0
O490 O 0.51163 0.47054 0.92861 0.0
O491 O 0.51716 0.55268 0.93018 0.0
O492 O 0.59281 0.51209 0.96257 0.0
O493 O 0.59437 0.50413 0.04697 0.0
O494 O 0.43513 0.50829 0.96528 0.0
O495 O 0.43695 0.51276 0.05147 0.0
O496 O 0.47293 0.58831 1.00443 0.0
O497 O 0.55798 0.58738 0.01151 0.0
O498 O 0.47135 0.43307 0.01111 0.0
O499 O 0.55604 0.43205 1.00183 0.0
O500 O 0.4717 0.51382 0.93036 0.0
O501 O 0.55497 0.5073 0.92883 0.0
O502 O 0.47466 0.50633 0.08522 0.0
O503 O 0.55931 0.50813 0.0836 0.0
O504 O 0.5126 0.58726 0.05147 0.0
O505 O 0.51745 0.58884 0.96551 0.0
O506 O 0.51612 0.43165 0.04879 0.0
O507 O 0.51049 0.43325 0.96256 0.0
O508 O 0.59205 0.46791 0.99853 0.0
O509 O 0.59346 0.55085 0.0118 0.0
O510 O 0.43615 0.46967 0.01463 0.0
O511 O 0.43676 0.55251 1.00292 0.0
C512 C 0.01721 0.44356 0.57626 0.0
C513 C 0.01358 0.43753 0.43901 0.0
C514 C 0.02187 0.57997 0.57079 0.0
C515 C 0.01501 0.5746 0.43234 0.0
C516 C 0.94549 0.58075 0.5008 0.0
C517 C 0.93899 0.44424 0.51021 0.0
C518 C 0.08656 0.57437 0.50407 0.0
C519 C 0.07962 0.43719 0.50741 0.0
C520 C 0.08186 0.50393 0.43456 0.0
C521 C 0.94079 0.50866 0.43767 0.0
C522 C 0.08312 0.50888 0.57403 0.0
C523 C 0.94347 0.51793 0.57426 0.0
Eu524 Eu 0.01 0.4555 0.50708 0.0
O525 O 0.98542 0.4839 0.48059 0.0
O526 O 0.03699 0.48417 0.53067 0.0
Eu527 Eu 0.95901 0.51182 0.5058 0.0
Eu528 Eu 0.06726 0.50654 0.50434 0.0
O529 O 0.98595 0.48565 0.53221 0.0
O530 O 0.03647 0.48199 0.4804 0.0
Eu531 Eu 0.01311 0.51127 0.55895 0.0
Eu532 Eu 0.01171 0.50676 0.45057 0.0
O533 O 0.98892 0.53729 0.52972 0.0
O534 O 0.98849 0.53457 0.47885 0.0
O535 O 0.03912 0.53215 0.47802 0.0
O536 O 0.03921 0.53384 0.52843 0.0
Eu537 Eu 0.01547 0.56345 0.50244 0.0
O538 O 0.01469 0.4339 0.54964 0.0
O539 O 0.01233 0.43021 0.46645 0.0
O540 O 0.01967 0.58842 0.54367 0.0
O541 O 0.01671 0.58474 0.45896 0.0
O542 O 0.93636 0.55397 0.50117 0.0
O543 O 0.93245 0.47179 0.51012 0.0
O544 O 0.0933 0.54694 0.50538 0.0
O545 O 0.08951 0.4637 0.50577 0.0
O546 O 0.05423 0.50445 0.42632 0.0
O547 O 0.9678 0.5068 0.42755 0.0
O548 O 0.0557 0.51093 0.5824 0.0
O549 O 0.97058 0.51458 0.5834 0.0
O550 O 0.05985 0.58492 0.50178 0.0
O551 O 0.97313 0.58901 0.50212 0.0
O552 O 0.05174 0.42988 0.50806 0.0
O553 O 0.96575 0.4336 0.50854 0.0
O554 O 0.0125 0.46386 0.42866 0.0
O555 O 0.01267 0.54735 0.4251 0.0
O556 O 0.01576 0.47056 0.58454 0.0
O557 O 0.01968 0.5535 0.58041 0.0
O558 O 0.93507 0.51821 0.54708 0.0
O559 O 0.93366 0.51021 0.46514 0.0
O560 O 0.09193 0.50649 0.54687 0.0
O561 O 0.09098 0.50476 0.46167 0.0
C562 C 0.508 0.94066 0.57577 0.0
C563 C 0.50586 0.94198 0.43776 0.0
C564 C 0.51726 0.07903 0.57717 0.0
C565 C 0.5086 0.08105 0.43961 0.0
C566 C 0.44408 0.08286 0.51289 0.0
C567 C 0.43706 0.94456 0.51016 0.0
C568 C 0.58204 0.07688 0.50212 0.0
C569 C 0.57596 0.93862 0.50746 0.0
C570 C 0.57538 1.00509 0.43494 0.0
C571 C 0.4365 0.0179 0.44139 0.0
C572 C 0.58133 1.00169 0.57358 0.0
C573 C 0.44236 0.01836 0.57865 0.0
Eu574 Eu 0.50698 0.95794 0.50704 0.0
O575 O 0.48106 0.98673 0.48213 0.0
O576 O 0.53451 0.98516 0.53133 0.0
Eu577 Eu 0.45475 1.01303 0.50935 0.0
Eu578 Eu 0.56435 1.00834 0.50504 0.0
O579 O 0.48337 0.98664 0.53412 0.0
O580 O 0.53262 0.9853 0.4807 0.0
Eu581 Eu 0.51149 1.01017 0.56226 0.0
Eu582 Eu 0.50675 1.01118 0.45262 0.0
O583 O 0.48635 0.03596 0.53384 0.0
O584 O 0.4842 0.03684 0.48332 0.0
O585 O 0.53519 0.03449 0.48074 0.0
O586 O 0.538 0.03431 0.53283 0.0
Eu587 Eu 0.51238 0.06331 0.50813 0.0
O588 O 0.50632 0.93318 0.54835 0.0
O589 O 0.50734 0.93418 0.46512 0.0
O590 O 0.51768 0.08692 0.54982 0.0
O591 O 0.50942 0.08805 0.46718 0.0
O592 O 0.43319 0.0567 0.51046 0.0
O593 O 0.42859 0.9717 0.51022 0.0
O594 O 0.59052 0.04979 0.50407 0.0
O595 O 0.58644 0.9649 0.50458 0.0
O596 O 0.54778 1.00703 0.42731 0.0
O597 O 0.46317 0.01502 0.43106 0.0
O598 O 0.55477 1.00529 0.58391 0.0
O599 O 0.46964 0.01491 0.58717 0.0
O600 O 0.55483 0.08577 0.50269 0.0
O601 O 0.47199 0.0894 0.51324 0.0
O602 O 0.54805 0.93199 0.50901 0.0
O603 O 0.46422 0.93558 0.50883 0.0
O604 O 0.5041 0.96879 0.42846 0.0
O605 O 0.508 0.0544 0.42952 0.0
O606 O 0.51008 0.96732 0.58544 0.0
O607 O 0.51468 0.05233 0.5865 0.0
O608 O 0.4328 0.01763 0.55183 0.0
O609 O 0.42901 0.01748 0.46885 0.0
O610 O 0.58919 1.00248 0.54616 0.0
O611 O 0.58578 1.00582 0.46156 0.0
H612 H 0.22714 0.17549 0.52457 0.0
H613 H 0.19363 0.23255 0.45982 0.0
H614 H 0.15157 0.20116 0.45333 0.0
H615 H 0.20715 0.11108 0.48842 0.0
H616 H 0.19834 0.09264 0.52097 0.0
H617 H 0.22532 0.12007 0.52124 0.0
H618 H 0.19734 0.14661 0.56105 0.0
H619 H 0.1704 0.11919 0.56103 0.0
H620 H 0.15997 0.15555 0.5555 0.0
H621 H 0.11331 0.16422 0.45437 0.0
H622 H 0.08045 0.12415 0.46326 0.0
H623 H 0.14069 0.08938 0.52484 0.0
C624 C 0.21113 0.18131 0.5088 0.0
C625 C 0.21371 0.20644 0.4926 0.0
C626 C 0.19192 0.21359 0.47269 0.0
C627 C 0.16813 0.19578 0.46868 0.0
C628 C 0.16665 0.1709 0.48459 0.0
C629 C 0.18755 0.16365 0.50424 0.0
C630 C 0.18092 0.13566 0.51854 0.0
C631 C 0.20433 0.11356 0.51188 0.0
C632 C 0.17691 0.1395 0.55095 0.0
C633 C 0.15281 0.12837 0.504 0.0
C634 C 0.14499 0.14905 0.48454 0.0
C635 C 0.11928 0.1478 0.46937 0.0
C636 C 0.1008 0.12505 0.47459 0.0
C637 C 0.1083 0.10381 0.4946 0.0
C638 C 0.13482 0.10518 0.50912 0.0
H639 H 0.80194 0.16951 0.49313 0.0
H640 H 0.83522 0.23367 0.55103 0.0
H641 H 0.88047 0.20658 0.55561 0.0
H642 H 0.83138 0.10985 0.53223 0.0
H643 H 0.83848 0.08981 0.50021 0.0
H644 H 0.80907 0.11469 0.50108 0.0
H645 H 0.83016 0.14007 0.45661 0.0
H646 H 0.85972 0.1154 0.45579 0.0
H647 H 0.86674 0.15289 0.45756 0.0
H648 H 0.92247 0.17346 0.55243 0.0
H649 H 0.95737 0.13479 0.54435 0.0
H650 H 0.89463 0.09069 0.49188 0.0
C651 C 0.81843 0.17773 0.50724 0.0
C652 C 0.81497 0.20378 0.52171 0.0
C653 C 0.83752 0.214 0.53936 0.0
C654 C 0.8632 0.19869 0.54226 0.0
C655 C 0.86577 0.1731 0.52769 0.0
C656 C 0.84387 0.16253 0.51082 0.0
C657 C 0.85177 0.13425 0.49785 0.0
C658 C 0.83147 0.11077 0.50849 0.0
C659 C 0.85212 0.13577 0.46501 0.0
C660 C 0.88176 0.13072 0.50981 0.0
C661 C 0.88951 0.15345 0.52679 0.0
C662 C 0.9166 0.15545 0.53936 0.0
C663 C 0.93627 0.13352 0.53452 0.0
C664 C 0.92852 0.10989 0.51754 0.0
C665 C 0.90091 0.10844 0.50517 0.0
H666 H 0.81007 0.84919 0.54075 0.0
H667 H 0.82806 0.8079 0.4599 0.0
H668 H 0.86815 0.84133 0.45128 0.0
H669 H 0.82468 0.92006 0.51866 0.0
H670 H 0.84178 0.93038 0.55164 0.0
H671 H 0.81461 0.90315 0.5517 0.0
H672 H 0.85028 0.86839 0.57596 0.0
H673 H 0.87745 0.89562 0.57624 0.0
H674 H 0.8849 0.86192 0.55972 0.0
H675 H 0.90361 0.8806 0.45001 0.0
H676 H 0.93704 0.92038 0.45896 0.0
H677 H 0.89864 0.93424 0.54202 0.0
C678 C 0.82264 0.84721 0.52135 0.0
C679 C 0.81623 0.82618 0.5009 0.0
C680 C 0.83299 0.82386 0.47581 0.0
C681 C 0.85556 0.8428 0.47068 0.0
C682 C 0.8611 0.8636 0.49106 0.0
C683 C 0.84548 0.86568 0.5161 0.0
C684 C 0.85643 0.88957 0.53477 0.0
C685 C 0.83297 0.91212 0.53946 0.0
C686 C 0.86795 0.87818 0.56336 0.0
C687 C 0.88053 0.90071 0.51619 0.0
C688 C 0.88259 0.88556 0.49094 0.0
C689 C 0.90266 0.89221 0.46994 0.0
C690 C 0.92172 0.91445 0.47526 0.0
C691 C 0.92088 0.92922 0.50145 0.0
C692 C 0.8997 0.92283 0.52196 0.0
H693 H 0.22377 0.85172 0.52668 0.0
H694 H 0.18392 0.78881 0.47158 0.0
H695 H 0.14054 0.81874 0.46791 0.0
H696 H 0.15949 0.87426 0.56366 0.0
H697 H 0.16997 0.911 0.56431 0.0
H698 H 0.19712 0.88374 0.56423 0.0
H699 H 0.2203 0.90614 0.5192 0.0
H700 H 0.19311 0.93336 0.51905 0.0
H701 H 0.19857 0.91172 0.48778 0.0
H702 H 0.10255 0.85544 0.46906 0.0
H703 H 0.07119 0.89698 0.4753 0.0
H704 H 0.13677 0.93761 0.52731 0.0
C705 C 0.20598 0.84424 0.51374 0.0
C706 C 0.2072 0.81791 0.4994 0.0
C707 C 0.18327 0.80869 0.4831 0.0
C708 C 0.15866 0.82562 0.4807 0.0
C709 C 0.15848 0.85169 0.49461 0.0
C710 C 0.18144 0.86099 0.51082 0.0
C711 C 0.17606 0.89029 0.52285 0.0
C712 C 0.17563 0.88977 0.55571 0.0
C713 C 0.19833 0.91163 0.51153 0.0
C714 C 0.14643 0.89602 0.51076 0.0
C715 C 0.13671 0.87336 0.49469 0.0
C716 C 0.10984 0.8733 0.48163 0.0
C717 C 0.09222 0.89694 0.48537 0.0
C718 C 0.10164 0.92034 0.50189 0.0
C719 C 0.12922 0.92004 0.51445 0.0
H720 H 0.51546 0.21809 0.1798 0.0
H721 H 0.5765 0.17864 0.2376 0.0
H722 H 0.58547 0.14105 0.20212 0.0
H723 H 0.48276 0.15979 0.15777 0.0
H724 H 0.47795 0.16893 0.12069 0.0
H725 H 0.48102 0.19642 0.14704 0.0
H726 H 0.5241 0.21858 0.11994 0.0
H727 H 0.52069 0.19159 0.09288 0.0
H728 H 0.55468 0.19684 0.11075 0.0
H729 H 0.5787 0.10296 0.16685 0.0
H730 H 0.56332 0.06972 0.12908 0.0
H731 H 0.50874 0.13489 0.09251 0.0
C732 C 0.5318 0.20236 0.18436 0.0
C733 C 0.54521 0.2011 0.21139 0.0
C734 C 0.56585 0.17975 0.21703 0.0
C735 C 0.57116 0.15842 0.197 0.0
C736 C 0.55614 0.15921 0.17127 0.0
C737 C 0.53752 0.18105 0.16448 0.0
C738 C 0.52192 0.17537 0.13665 0.0
C739 C 0.48898 0.1751 0.14082 0.0
C740 C 0.5309 0.19687 0.11369 0.0
C741 C 0.53331 0.14615 0.12988 0.0
C742 C 0.55315 0.13732 0.15002 0.0
C743 C 0.56404 0.10987 0.15031 0.0
C744 C 0.55484 0.09108 0.1291 0.0
C745 C 0.53504 0.09994 0.10794 0.0
C746 C 0.52433 0.12785 0.10821 0.0
H747 H 0.8496 0.49141 0.22006 0.0
H748 H 0.78325 0.54685 0.18594 0.0
H749 H 0.81264 0.55408 0.14255 0.0
H750 H 0.90977 0.53307 0.19528 0.0
H751 H 0.93178 0.50247 0.18789 0.0
H752 H 0.90508 0.50111 0.2158 0.0
H753 H 0.88192 0.4571 0.1919 0.0
H754 H 0.90849 0.45835 0.1639 0.0
H755 H 0.87069 0.45903 0.15507 0.0
H756 H 0.84876 0.55429 0.1027 0.0
H757 H 0.88971 0.54869 0.06957 0.0
H758 H 0.93376 0.49597 0.13171 0.0
C759 C 0.84132 0.50544 0.20372 0.0
C760 C 0.8141 0.51862 0.20647 0.0
C761 C 0.80385 0.53622 0.18418 0.0
C762 C 0.82047 0.54062 0.15957 0.0
C763 C 0.8473 0.52749 0.1578 0.0
C764 C 0.85773 0.51041 0.17936 0.0
C765 C 0.88736 0.49897 0.17244 0.0
C766 C 0.90982 0.50955 0.19414 0.0
C767 C 0.88708 0.46644 0.17072 0.0
C768 C 0.89195 0.51212 0.14341 0.0
C769 C 0.86852 0.52836 0.13529 0.0
C770 C 0.86727 0.54178 0.10888 0.0
C771 C 0.89056 0.53836 0.09022 0.0
C772 C 0.9148 0.52192 0.09823 0.0
C773 C 0.9156 0.50889 0.12526 0.0
H774 H 0.50278 0.84206 0.20698 0.0
H775 H 0.56527 0.78651 0.16666 0.0
H776 H 0.57491 0.82301 0.13026 0.0
H777 H 0.47226 0.8678 0.14649 0.0
H778 H 0.46743 0.90379 0.15839 0.0
H779 H 0.46857 0.87552 0.18405 0.0
H780 H 0.51054 0.90014 0.21081 0.0
H781 H 0.5092 0.92886 0.18549 0.0
H782 H 0.54252 0.91014 0.19142 0.0
H783 H 0.57148 0.86113 0.09424 0.0
H784 H 0.55912 0.90157 0.06318 0.0
H785 H 0.50117 0.93398 0.12803 0.0
C786 C 0.5193 0.83802 0.19115 0.0
C787 C 0.53319 0.81146 0.1895 0.0
C788 C 0.55414 0.80663 0.16805 0.0
C789 C 0.5599 0.82727 0.14743 0.0
C790 C 0.54491 0.85275 0.14894 0.0
C791 C 0.52548 0.8585 0.17056 0.0
C792 C 0.51071 0.88674 0.16603 0.0
C793 C 0.47781 0.88322 0.16359 0.0
C794 C 0.51874 0.90771 0.18986 0.0
C795 C 0.5239 0.89531 0.1378 0.0
C796 C 0.54367 0.87543 0.12841 0.0
C797 C 0.55659 0.87718 0.10164 0.0
C798 C 0.54923 0.89996 0.08405 0.0
C799 C 0.52933 0.92064 0.09342 0.0
C800 C 0.5168 0.91854 0.12072 0.0
H801 H 0.22481 0.49777 0.16975 0.0
H802 H 0.19109 0.55455 0.23483 0.0
H803 H 0.1459 0.55902 0.20753 0.0
H804 H 0.19592 0.53708 0.11011 0.0
H805 H 0.18878 0.50574 0.08929 0.0
H806 H 0.21794 0.50595 0.1147 0.0
H807 H 0.19627 0.4617 0.13946 0.0
H808 H 0.16699 0.46146 0.11421 0.0
H809 H 0.15954 0.4627 0.15198 0.0
H810 H 0.1041 0.55639 0.17382 0.0
H811 H 0.06964 0.54953 0.1342 0.0
H812 H 0.13261 0.49824 0.08918 0.0
C813 C 0.2082 0.51153 0.17819 0.0
C814 C 0.21161 0.52571 0.2046 0.0
C815 C 0.18889 0.54298 0.21498 0.0
C816 C 0.1632 0.54584 0.19953 0.0
C817 C 0.16073 0.53164 0.17357 0.0
C818 C 0.18273 0.5151 0.16281 0.0
C819 C 0.17501 0.50278 0.13395 0.0
C820 C 0.19564 0.51354 0.11064 0.0
C821 C 0.17442 0.47023 0.13498 0.0
C822 C 0.14509 0.51487 0.13023 0.0
C823 C 0.13716 0.53121 0.15347 0.0
C824 C 0.11012 0.54382 0.15542 0.0
C825 C 0.0907 0.5397 0.13292 0.0
C826 C 0.09863 0.52345 0.10873 0.0
C827 C 0.1262 0.511 0.10734 0.0
H828 H 0.50426 0.81598 0.84166 0.0
H829 H 0.56979 0.85523 0.78878 0.0
H830 H 0.57405 0.89437 0.8233 0.0
H831 H 0.46832 0.87621 0.86009 0.0
H832 H 0.46075 0.86725 0.89676 0.0
H833 H 0.46577 0.83962 0.87076 0.0
H834 H 0.50656 0.81755 0.90128 0.0
H835 H 0.50121 0.84477 0.92779 0.0
H836 H 0.53642 0.8393 0.91249 0.0
H837 H 0.56507 0.93254 0.85751 0.0
H838 H 0.54901 0.9654 0.89511 0.0
H839 H 0.49124 0.90111 0.92843 0.0
C840 C 0.52025 0.83229 0.83804 0.0
C841 C 0.53663 0.83283 0.81265 0.0
C842 C 0.55697 0.85469 0.80812 0.0
C843 C 0.55956 0.87693 0.82757 0.0
C844 C 0.54204 0.87664 0.85165 0.0
C845 C 0.5233 0.85463 0.85746 0.0
C846 C 0.50572 0.86064 0.88409 0.0
C847 C 0.47322 0.86095 0.87751 0.0
C848 C 0.51292 0.8393 0.90782 0.0
C849 C 0.51664 0.88996 0.89144 0.0
C850 C 0.53756 0.89868 0.87237 0.0
C851 C 0.54921 0.92579 0.87302 0.0
C852 C 0.53965 0.94439 0.89417 0.0
C853 C 0.51889 0.93566 0.91447 0.0
C854 C 0.50731 0.90809 0.9132 0.0
H855 H 0.18044 0.49211 0.80972 0.0
H856 H 0.23488 0.56165 0.8372 0.0
H857 H 0.19992 0.57361 0.87492 0.0
H858 H 0.10957 0.52911 0.82609 0.0
H859 H 0.09332 0.49639 0.83758 0.0
H860 H 0.12036 0.49611 0.80992 0.0
H861 H 0.15013 0.46004 0.83938 0.0
H862 H 0.12358 0.46065 0.86735 0.0
H863 H 0.16064 0.46886 0.8754 0.0
H864 H 0.16491 0.57214 0.91468 0.0
H865 H 0.12699 0.56204 0.95033 0.0
H866 H 0.09274 0.49603 0.89557 0.0
C867 C 0.18437 0.51052 0.82296 0.0
C868 C 0.2104 0.52582 0.82078 0.0
C869 C 0.21518 0.54946 0.83882 0.0
C870 C 0.19543 0.55649 0.86021 0.0
C871 C 0.17071 0.54007 0.86284 0.0
C872 C 0.16465 0.51805 0.84428 0.0
C873 C 0.13737 0.5027 0.85304 0.0
C874 C 0.11375 0.50631 0.8303 0.0
C875 C 0.14331 0.47121 0.85916 0.0
C876 C 0.12997 0.51866 0.88012 0.0
C877 C 0.1495 0.54014 0.88534 0.0
C878 C 0.14898 0.55594 0.91049 0.0
C879 C 0.12765 0.54986 0.93071 0.0
C880 C 0.10707 0.52845 0.9254 0.0
C881 C 0.10806 0.51283 0.89975 0.0
H882 H 0.50285 0.18298 0.80703 0.0
H883 H 0.56949 0.23666 0.84292 0.0
H884 H 0.57663 0.20248 0.88209 0.0
H885 H 0.47033 0.16557 0.86866 0.0
H886 H 0.46241 0.12905 0.86067 0.0
H887 H 0.46622 0.15418 0.8321 0.0
H888 H 0.50615 0.12357 0.80877 0.0
H889 H 0.5019 0.09784 0.8369 0.0
H890 H 0.53687 0.11283 0.82972 0.0
H891 H 0.5697 0.16874 0.92141 0.0
H892 H 0.55432 0.13254 0.95594 0.0
H893 H 0.49354 0.09897 0.8943 0.0
C894 C 0.51983 0.18681 0.82243 0.0
C895 C 0.53565 0.21232 0.82213 0.0
C896 C 0.55715 0.21719 0.84299 0.0
C897 C 0.56138 0.19792 0.86521 0.0
C898 C 0.54426 0.17374 0.86588 0.0
C899 C 0.52442 0.16767 0.84471 0.0
C900 C 0.50708 0.14144 0.85193 0.0
C901 C 0.4746 0.14798 0.85343 0.0
C902 C 0.51339 0.1175 0.83056 0.0
C903 C 0.51922 0.13472 0.88114 0.0
C904 C 0.54073 0.15357 0.88863 0.0
C905 C 0.5534 0.15342 0.91555 0.0
C906 C 0.54422 0.1331 0.93517 0.0
C907 C 0.52275 0.11317 0.92777 0.0
C908 C 0.51019 0.11388 0.90035 0.0
H909 H 0.8572 0.53232 0.79715 0.0
H910 H 0.79654 0.46974 0.82889 0.0
H911 H 0.82667 0.46326 0.87185 0.0
H912 H 0.92168 0.49566 0.82118 0.0
H913 H 0.9403 0.52798 0.83006 0.0
H914 H 0.91394 0.52773 0.80179 0.0
H915 H 0.886 0.56827 0.8269 0.0
H916 H 0.91227 0.56866 0.85519 0.0
H917 H 0.87464 0.56387 0.86346 0.0
H918 H 0.86208 0.46473 0.91159 0.0
H919 H 0.90098 0.47392 0.94617 0.0
H920 H 0.94034 0.53336 0.88728 0.0
C921 C 0.85041 0.51694 0.81291 0.0
C922 C 0.82451 0.5015 0.80966 0.0
C923 C 0.81609 0.48207 0.83111 0.0
C924 C 0.83317 0.47806 0.85543 0.0
C925 C 0.85866 0.49344 0.85775 0.0
C926 C 0.86734 0.51241 0.83706 0.0
C927 C 0.89557 0.52647 0.84489 0.0
C928 C 0.91927 0.519 0.82319 0.0
C929 C 0.89188 0.55873 0.84779 0.0
C930 C 0.90121 0.51275 0.87351 0.0
C931 C 0.87961 0.49376 0.88045 0.0
C932 C 0.87921 0.47938 0.90633 0.0
C933 C 0.9013 0.48483 0.92583 0.0
C934 C 0.92351 0.50434 0.91925 0.0
C935 C 0.92375 0.51812 0.89258 0.0
H936 H 0.68336 0.71357 0.99101 0.0
H937 H 0.73367 0.68396 0.06324 0.0
H938 H 0.69809 0.64628 0.07194 0.0
H939 H 0.61076 0.6969 0.02357 0.0
H940 H 0.59619 0.68641 0.98946 0.0
H941 H 0.6235 0.7135 0.99128 0.0
H942 H 0.65497 0.68477 0.9559 0.0
H943 H 0.62807 0.65741 0.95435 0.0
H944 H 0.66451 0.64874 0.96444 0.0
H945 H 0.66284 0.60757 0.06771 0.0
H946 H 0.62515 0.57294 0.05478 0.0
H947 H 0.59488 0.6289 0.98778 0.0
C948 C 0.68629 0.69977 0.00924 0.0
C949 C 0.71133 0.70147 0.02632 0.0
C950 C 0.71478 0.68273 0.04969 0.0
C951 C 0.69465 0.66137 0.05489 0.0
C952 C 0.6709 0.65942 0.0369 0.0
C953 C 0.66617 0.67844 0.01495 0.0
C954 C 0.63967 0.67044 0.99781 0.0
C955 C 0.61613 0.69317 1.00072 0.0
C956 C 0.64729 0.66502 0.96627 0.0
C957 C 0.6311 0.64333 0.01282 0.0
C958 C 0.64946 0.63743 0.03531 0.0
C959 C 0.64783 0.61225 0.05066 0.0
C960 C 0.62663 0.59264 0.04301 0.0
C961 C 0.60725 0.59856 0.0205 0.0
C962 C 0.60927 0.62428 1.00539 0.0
H963 H 0.34707 0.71388 0.02563 0.0
H964 H 0.29495 0.68291 0.95529 0.0
H965 H 0.33173 0.64677 0.94462 0.0
H966 H 0.41955 0.69914 0.99056 0.0
H967 H 0.43518 0.68899 0.02429 0.0
H968 H 0.40733 0.71561 0.02314 0.0
H969 H 0.3774 0.68641 0.0594 0.0
H970 H 0.40485 0.65958 0.06024 0.0
H971 H 0.36833 0.6502 0.05113 0.0
H972 H 0.36818 0.6092 0.94743 0.0
H973 H 0.40592 0.57464 0.96021 0.0
H974 H 0.43673 0.63089 0.02681 0.0
C975 C 0.344 0.70019 1.00732 0.0
C976 C 0.31822 0.701 0.99132 0.0
C977 C 0.3145 0.68236 0.96792 0.0
C978 C 0.33532 0.66193 0.9616 0.0
C979 C 0.3599 0.66079 0.97858 0.0
C980 C 0.36472 0.67974 1.0006 0.0
C981 C 0.3918 0.67226 0.01707 0.0
C982 C 0.41483 0.69537 0.01354 0.0
C983 C 0.38517 0.66678 0.04883 0.0
C984 C 0.40047 0.64531 1.00182 0.0
C985 C 0.38185 0.63926 0.97955 0.0
C986 C 0.3834 0.61403 0.96426 0.0
C987 C 0.40462 0.59445 0.97185 0.0
C988 C 0.42405 0.6004 0.99432 0.0
C989 C 0.4223 0.62626 0.00922 0.0
H990 H 0.34213 0.31031 0.99794 0.0
H991 H 0.29524 0.34248 0.07128 0.0
H992 H 0.33367 0.37743 0.07996 0.0
H993 H 0.41725 0.32332 0.02876 0.0
H994 H 0.43091 0.33309 0.9941 0.0
H995 H 0.4027 0.30701 0.99705 0.0
H996 H 0.37111 0.33669 0.96259 0.0
H997 H 0.39891 0.36302 0.95998 0.0
H998 H 0.36321 0.37308 0.9713 0.0
H999 H 0.37054 0.41418 0.07482 0.0
H1000 H 0.40773 0.44819 0.05935 0.0
H1001 H 0.4331 0.39131 0.99104 0.0
C1002 C 0.34062 0.32397 0.01648 0.0
C1003 C 0.31582 0.32392 0.03391 0.0
C1004 C 0.31406 0.34248 0.05758 0.0
C1005 C 0.33582 0.36222 0.06278 0.0
C1006 C 0.35936 0.36272 0.04439 0.0
C1007 C 0.36231 0.34374 0.02207 0.0
C1008 C 0.3884 0.35066 1.00392 0.0
C1009 C 0.41117 0.32712 1.0061 0.0
C1010 C 0.37987 0.3562 0.97261 0.0
C1011 C 0.39851 0.37746 0.01852 0.0
C1012 C 0.38159 0.38382 0.04199 0.0
C1013 C 0.38449 0.40909 0.05702 0.0
C1014 C 0.40535 0.42837 0.04789 0.0
C1015 C 0.42304 0.42208 0.02415 0.0
C1016 C 0.41997 0.39619 0.00955 0.0
H1017 H 0.68653 0.31009 0.02518 0.0
H1018 H 0.73277 0.33708 0.94943 0.0
H1019 H 0.6946 0.37174 0.93889 0.0
H1020 H 0.61157 0.32117 0.99455 0.0
H1021 H 0.59798 0.3337 0.02836 0.0
H1022 H 0.62636 0.30762 0.02743 0.0
H1023 H 0.65805 0.34014 0.05907 0.0
H1024 H 0.63002 0.36643 0.05977 0.0
H1025 H 0.66556 0.37577 0.04741 0.0
H1026 H 0.65759 0.40855 0.94124 0.0
H1027 H 0.61981 0.44322 0.95374 0.0
H1028 H 0.59496 0.39177 0.02635 0.0
C1029 C 0.68796 0.32265 1.00589 0.0
C1030 C 0.71246 0.32112 0.98811 0.0
C1031 C 0.71413 0.33819 0.96333 0.0
C1032 C 0.69254 0.3578 0.95711 0.0
C1033 C 0.66924 0.35975 0.97565 0.0
C1034 C 0.66641 0.34236 0.99927 0.0
C1035 C 0.64033 0.35063 0.01691 0.0
C1036 C 0.61772 0.32686 0.01679 0.0
C1037 C 0.64903 0.35873 0.04759 0.0
C1038 C 0.62992 0.37616 1.00026 0.0
C1039 C 0.64688 0.38085 0.97644 0.0
C1040 C 0.64363 0.40475 0.95934 0.0
C1041 C 0.62239 0.42439 0.96673 0.0
C1042 C 0.60461 0.4198 0.99077 0.0
C1043 C 0.60807 0.39526 1.00753 0.0
H1044 H 0.99914 0.71015 0.67592 0.0
H1045 H 0.0699 0.67542 0.72524 0.0
H1046 H 0.07995 0.64113 0.6867 0.0
H1047 H 0.97282 0.64599 0.65173 0.0
H1048 H 0.96276 0.65778 0.61649 0.0
H1049 H 0.96383 0.68263 0.6456 0.0
H1050 H 0.99923 0.7143 0.61713 0.0
H1051 H 0.99812 0.68952 0.58781 0.0
H1052 H 0.0322 0.69927 0.60349 0.0
H1053 H 0.0787 0.60748 0.64691 0.0
H1054 H 0.06617 0.57551 0.60718 0.0
H1055 H 0.99617 0.63114 0.58258 0.0
C1056 C 0.01721 0.69579 0.67809 0.0
C1057 C 0.03393 0.69534 0.70329 0.0
C1058 C 0.05695 0.67593 0.70599 0.0
C1059 C 0.0629 0.65657 0.68419 0.0
C1060 C 0.04564 0.65703 0.65987 0.0
C1061 C 0.02332 0.67614 0.65654 0.0
C1062 C 0.00638 0.67016 0.62948 0.0
C1063 C 0.97458 0.66375 0.63625 0.0
C1064 C 0.00916 0.69478 0.60821 0.0
C1065 C 0.02201 0.64405 0.61878 0.0
C1066 C 0.04484 0.6372 0.63651 0.0
C1067 C 0.06121 0.61283 0.63261 0.0
C1068 C 0.0538 0.59471 0.61023 0.0
C1069 C 0.03028 0.60102 0.59215 0.0
C1070 C 0.01454 0.62626 0.59599 0.0
H1071 H 0.35648 1.00422 0.72504 0.0
H1072 H 0.29504 0.06462 0.69046 0.0
H1073 H 0.32473 0.06911 0.64706 0.0
H1074 H 0.42077 0.04035 0.69763 0.0
H1075 H 0.43944 1.00762 0.69059 0.0
H1076 H 0.41364 1.0096 0.71931 0.0
H1077 H 0.38565 0.96727 0.69749 0.0
H1078 H 0.41126 0.96526 0.66868 0.0
H1079 H 0.37341 0.96925 0.66098 0.0
H1080 H 0.3591 0.06511 0.60678 0.0
H1081 H 0.39726 0.05399 0.57198 0.0
H1082 H 0.43835 0.99857 0.63374 0.0
C1083 C 0.34948 0.01881 0.70861 0.0
C1084 C 0.32332 0.03399 0.71114 0.0
C1085 C 0.3147 0.05238 0.68882 0.0
C1086 C 0.33155 0.05529 0.66421 0.0
C1087 C 0.35711 0.03997 0.66245 0.0
C1088 C 0.36622 0.02227 0.6841 0.0
C1089 C 0.39441 1.0079 0.67659 0.0
C1090 C 0.41849 0.01692 0.69726 0.0
C1091 C 0.39096 0.9755 0.67589 0.0
C1092 C 0.39936 0.01979 0.64701 0.0
C1093 C 0.37755 0.03827 0.63936 0.0
C1094 C 0.37643 0.05089 0.61257 0.0
C1095 C 0.39808 0.04429 0.59295 0.0
C1096 C 0.4206 0.02538 0.60028 0.0
C1097 C 0.42149 0.0133 0.62779 0.0
H1098 H 1.00172 0.34246 0.71063 0.0
H1099 H 0.07451 0.29583 0.67633 0.0
H1100 H 0.082 0.33316 0.64028 0.0
H1101 H 0.97309 0.36312 0.64677 0.0
H1102 H 0.96193 0.39811 0.6575 0.0
H1103 H 0.96493 0.37045 0.68371 0.0
H1104 H 1.00014 0.40117 0.71346 0.0
H1105 H 0.99694 0.42915 0.68746 0.0
H1106 H 0.03197 0.41545 0.69675 0.0
H1107 H 0.07684 0.37018 0.60396 0.0
H1108 H 0.06146 0.40756 0.57059 0.0
H1109 H 0.99326 0.4323 0.62881 0.0
C1110 C 0.01984 0.34068 0.69616 0.0
C1111 C 0.0376 0.31638 0.69618 0.0
C1112 C 0.06063 0.31428 0.67648 0.0
C1113 C 0.06513 0.33541 0.65609 0.0
C1114 C 0.04664 0.35862 0.65596 0.0
C1115 C 0.02469 0.36168 0.67568 0.0
C1116 C 0.0064 0.38751 0.66919 0.0
C1117 C 0.97473 0.37929 0.66397 0.0
C1118 C 0.00904 0.40964 0.69314 0.0
C1119 C 0.02072 0.39768 0.64201 0.0
C1120 C 0.04404 0.38076 0.63499 0.0
C1121 C 0.0591 0.384 0.60952 0.0
C1122 C 0.05006 0.40505 0.59063 0.0
C1123 C 0.02634 0.42262 0.5974 0.0
C1124 C 0.01176 0.41931 0.62357 0.0
H1125 H 0.68034 0.02606 0.70851 0.0
H1126 H 0.73454 0.95813 0.67661 0.0
H1127 H 0.69804 0.94693 0.64004 0.0
H1128 H 0.60905 0.98889 0.69364 0.0
H1129 H 0.5923 0.022 0.6841 0.0
H1130 H 0.62026 0.02123 0.71085 0.0
H1131 H 0.64885 0.05867 0.682 0.0
H1132 H 0.62143 0.05911 0.6549 0.0
H1133 H 0.65823 0.0514 0.64533 0.0
H1134 H 0.66135 0.94964 0.6017 0.0
H1135 H 0.6229 0.96189 0.56733 0.0
H1136 H 0.5905 0.02562 0.62584 0.0
C1137 C 0.68398 1.00803 0.69466 0.0
C1138 C 0.71033 0.99308 0.69523 0.0
C1139 C 0.71463 0.9701 0.67625 0.0
C1140 C 0.69397 0.96346 0.65555 0.0
C1141 C 0.66887 0.97958 0.6546 0.0
C1142 C 0.66341 1.00092 0.6741 0.0
C1143 C 0.63583 0.01653 0.66695 0.0
C1144 C 0.61301 1.01187 0.69027 0.0
C1145 C 0.64145 0.04829 0.662 0.0
C1146 C 0.62759 1.00169 0.63952 0.0
C1147 C 0.64685 0.98033 0.63287 0.0
C1148 C 0.64564 0.96574 0.60703 0.0
C1149 C 0.62402 0.97305 0.58755 0.0
C1150 C 0.60389 0.99455 0.59421 0.0
C1151 C 0.60544 1.00876 0.62062 0.0
H1152 H 1.00131 0.35215 0.293 0.0
H1153 H 0.06051 0.2906 0.32943 0.0
H1154 H 0.06241 0.31858 0.37386 0.0
H1155 H 0.03753 0.41375 0.32295 0.0
H1156 H 0.0043 0.43278 0.32842 0.0
H1157 H 0.00722 0.40757 0.29966 0.0
H1158 H 0.96245 0.38098 0.31908 0.0
H1159 H 0.95957 0.40597 0.34801 0.0
H1160 H 0.96234 0.36864 0.35553 0.0
H1161 H 0.05615 0.35179 0.41479 0.0
H1162 H 0.04547 0.39044 0.44859 0.0
H1163 H 0.99389 0.43255 0.38394 0.0
C1164 C 0.01516 0.34471 0.31002 0.0
C1165 C 0.03065 0.319 0.30766 0.0
C1166 C 0.04796 0.30988 0.33084 0.0
C1167 C 0.04936 0.32573 0.3561 0.0
C1168 C 0.03369 0.35082 0.35765 0.0
C1169 C 0.01725 0.36049 0.33511 0.0
C1170 C 0.0029 0.38846 0.34209 0.0
C1171 C 0.01364 0.41203 0.32209 0.0
C1172 C 0.96986 0.38583 0.34112 0.0
C1173 C 0.01357 0.39281 0.37228 0.0
C1174 C 0.03109 0.3707 0.38089 0.0
C1175 C 0.04266 0.36932 0.40826 0.0
C1176 C 0.03631 0.39125 0.42732 0.0
C1177 C 0.01884 0.41435 0.41876 0.0
C1178 C 0.00745 0.4152 0.39087 0.0
H1179 H 0.72294 0.0267 0.35258 0.0
H1180 H 0.68836 0.97424 0.28436 0.0
H1181 H 0.64336 0.96832 0.31177 0.0
H1182 H 0.69332 0.98447 0.41045 0.0
H1183 H 0.68679 0.01497 0.43269 0.0
H1184 H 0.71607 0.01525 0.40742 0.0
H1185 H 0.69558 0.06112 0.38473 0.0
H1186 H 0.66615 0.06087 0.40978 0.0
H1187 H 0.65893 0.06154 0.37195 0.0
H1188 H 0.60146 0.97008 0.34562 0.0
H1189 H 0.56667 0.97678 0.38501 0.0
H1190 H 0.63064 0.02462 0.43243 0.0
C1191 C 0.70622 0.01348 0.34351 0.0
C1192 C 0.70926 1.00101 0.31621 0.0
C1193 C 0.68642 0.98446 0.30498 0.0
C1194 C 0.66086 0.98077 0.32047 0.0
C1195 C 0.6587 0.99342 0.34727 0.0
C1196 C 0.6809 1.00914 0.35883 0.0
C1197 C 0.67334 0.02031 0.38816 0.0
C1198 C 0.69358 1.008 0.41103 0.0
C1199 C 0.6735 0.05289 0.38866 0.0
C1200 C 0.64317 1.00874 0.39114 0.0
C1201 C 0.63505 0.99343 0.36726 0.0
C1202 C 0.60765 0.98177 0.36454 0.0
C1203 C 0.58805 0.98582 0.3869 0.0
C1204 C 0.59615 1.00112 0.41166 0.0
C1205 C 0.62409 1.01254 0.41385 0.0
H1206 H 0.04324 0.72312 0.35529 0.0
H1207 H 0.00316 0.68613 0.28002 0.0
H1208 H 0.99918 0.64068 0.3048 0.0
H1209 H 0.08203 0.66016 0.37944 0.0
H1210 H 0.07461 0.66691 0.41663 0.0
H1211 H 0.07746 0.696 0.39193 0.0
H1212 H 0.02668 0.71325 0.40725 0.0
H1213 H 0.02374 0.68402 0.43174 0.0
H1214 H 0.99652 0.68932 0.40479 0.0
H1215 H 0.9971 0.59992 0.33777 0.0
H1216 H 0.99641 0.5661 0.3777 0.0
H1217 H 0.03479 0.62963 0.43313 0.0
C1218 C 0.03371 0.7055 0.3439 0.0
C1219 C 0.02394 0.70839 0.31536 0.0
C1220 C 0.01169 0.68455 0.30144 0.0
C1221 C 0.00904 0.65856 0.31546 0.0
C1222 C 0.01846 0.65665 0.34357 0.0
C1223 C 0.0305 0.67941 0.35775 0.0
C1224 C 0.03723 0.67196 0.38856 0.0
C1225 C 0.06977 0.67386 0.39447 0.0
C1226 C 0.02001 0.69075 0.4093 0.0
C1227 C 0.02682 0.64155 0.38941 0.0
C1228 C 0.01635 0.63315 0.36312 0.0
C1229 C 0.00535 0.60614 0.35846 0.0
C1230 C 0.0051 0.58708 0.38131 0.0
C1231 C 0.01555 0.59518 0.40857 0.0
C1232 C 0.02651 0.62284 0.4126 0.0
H1233 H 0.35437 1.00084 0.29397 0.0
H1234 H 0.28424 0.05033 0.32998 0.0
H1235 H 0.31213 0.05611 0.37461 0.0
H1236 H 0.37416 0.96447 0.35577 0.0
H1237 H 0.41236 0.96583 0.34894 0.0
H1238 H 0.38733 0.96642 0.31959 0.0
H1239 H 0.4098 0.01332 0.30131 0.0
H1240 H 0.4351 1.01268 0.3305 0.0
H1241 H 0.41244 0.04322 0.32514 0.0
H1242 H 0.34657 0.05397 0.41604 0.0
H1243 H 0.38596 0.04605 0.45056 0.0
H1244 H 0.43429 1.00039 0.3858 0.0
C1245 C 0.34504 0.01354 0.31087 0.0
C1246 C 0.31714 0.02528 0.30838 0.0
C1247 C 0.30548 0.04094 0.33149 0.0
C1248 C 0.32121 0.04448 0.35682 0.0
C1249 C 0.34859 0.03248 0.3585 0.0
C1250 C 0.36051 0.01759 0.33602 0.0
C1251 C 0.39015 1.00641 0.34329 0.0
C1252 C 0.39102 0.97386 0.34181 0.0
C1253 C 0.41323 0.01971 0.32391 0.0
C1254 C 0.39285 0.01686 0.37364 0.0
C1255 C 0.36867 0.03183 0.38206 0.0
C1256 C 0.3657 0.0425 0.40962 0.0
C1257 C 0.38809 0.03774 0.42909 0.0
C1258 C 0.41312 0.02263 0.42075 0.0
C1259 C 0.41553 1.01227 0.39263 0.0
H1260 H 0.0111 0.15453 0.28129 0.0
H1261 H 0.99379 0.23437 0.32361 0.0
H1262 H 0.99903 0.2111 0.37055 0.0
H1263 H 0.96936 0.11276 0.33005 0.0
H1264 H 0.99296 0.08246 0.32911 0.0
H1265 H 0.99077 0.10571 0.2987 0.0
H1266 H 0.04598 0.11347 0.30062 0.0
H1267 H 0.04833 0.09015 0.331 0.0
H1268 H 0.06236 0.12566 0.33333 0.0
H1269 H 0.00457 0.1791 0.41294 0.0
H1270 H 0.00816 0.14072 0.44806 0.0
H1271 H 0.0189 0.07977 0.37925 0.0
C1272 C 0.00891 0.16716 0.30048 0.0
C1273 C 0.00293 0.19661 0.2987 0.0
C1274 C 0.99944 0.21216 0.32434 0.0
C1275 C 1.00207 0.199 0.35114 0.0
C1276 C 0.00778 0.17 0.35217 0.0
C1277 C 0.01097 0.15416 0.32755 0.0
C1278 C 0.01522 0.12296 0.3348 0.0
C1279 C 0.99061 0.10491 0.32243 0.0
C1280 C 0.04473 0.11245 0.32431 0.0
C1281 C 0.01394 0.12378 0.36731 0.0
C1282 C 0.00982 0.15121 0.37676 0.0
C1283 C 0.0078 0.15755 0.40574 0.0
C1284 C 0.00989 0.1354 0.42562 0.0
C1285 C 0.0138 0.10687 0.41674 0.0
C1286 C 0.0159 0.10117 0.38698 0.0
H1287 H 0.79837 0.03637 0.35226 0.0
H1288 H 0.84068 0.99404 0.28126 0.0
H1289 H 0.88538 0.99104 0.30957 0.0
H1290 H 0.86106 0.07597 0.37806 0.0
H1291 H 0.85175 0.07115 0.41513 0.0
H1292 H 0.82382 0.07241 0.38842 0.0
H1293 H 0.80492 0.02373 0.40565 0.0
H1294 H 0.83297 0.02221 0.4322 0.0
H1295 H 0.82913 0.99389 0.40665 0.0
H1296 H 0.92396 0.9894 0.34603 0.0
H1297 H 0.95591 0.9915 0.38759 0.0
H1298 H 0.88892 0.03374 0.43663 0.0
C1299 C 0.81707 0.02658 0.34255 0.0
C1300 C 0.81591 0.01543 0.31438 0.0
C1301 C 0.84103 1.00314 0.3025 0.0
C1302 C 0.86648 1.00111 0.31853 0.0
C1303 C 0.86651 1.01149 0.34643 0.0
C1304 C 0.8426 0.0242 0.35834 0.0
C1305 C 0.84819 0.03269 0.3892 0.0
C1306 C 0.84609 0.06497 0.39291 0.0
C1307 C 0.82757 0.0172 0.40963 0.0
C1308 C 0.87896 0.02243 0.39287 0.0
C1309 C 0.88897 1.01038 0.36781 0.0
C1310 C 0.91648 0.99903 0.36566 0.0
C1311 C 0.93449 1.00041 0.38952 0.0
C1312 C 0.92511 0.01308 0.41546 0.0
C1313 C 0.89674 0.02392 0.4172 0.0
H1314 H 0.04007 0.84196 0.30461 0.0
H1315 H 0.97162 0.78997 0.33979 0.0
H1316 H 0.96307 0.82543 0.3772 0.0
H1317 H 0.06831 0.86736 0.36929 0.0
H1318 H 0.07461 0.90338 0.35825 0.0
H1319 H 0.07464 0.87533 0.33215 0.0
H1320 H 0.03524 0.90128 0.30312 0.0
H1321 H 0.03541 0.9296 0.32899 0.0
H1322 H 0.00221 0.91165 0.32051 0.0
H1323 H 0.96834 0.86008 0.4159 0.0
H1324 H 0.97884 0.89906 0.4488 0.0
H1325 H 0.03741 0.93584 0.38695 0.0
C1326 C 0.02271 0.83856 0.31966 0.0
C1327 C 0.00675 0.8128 0.31936 0.0
C1328 C 0.9844 0.80917 0.33969 0.0
C1329 C 0.97937 0.82923 0.36112 0.0
C1330 C 0.99625 0.85355 0.36178 0.0
C1331 C 0.01682 0.85899 0.34116 0.0
C1332 C 0.0317 0.88724 0.34753 0.0
C1333 C 0.06425 0.88307 0.35207 0.0
C1334 C 0.02578 0.90872 0.32361 0.0
C1335 C 0.01685 0.89607 0.37533 0.0
C1336 C 0.99686 0.87583 0.38314 0.0
C1337 C 0.98289 0.87678 0.40941 0.0
C1338 C 0.98887 0.89924 0.42798 0.0
C1339 C 0.00766 0.92152 0.42007 0.0
C1340 C 0.022 0.91981 0.39323 0.0
H1341 H 0.19967 0.04725 0.31772 0.0
H1342 H 0.17129 0.97148 0.27366 0.0
H1343 H 0.14126 0.95855 0.31538 0.0
H1344 H 0.20152 0.01668 0.39017 0.0
H1345 H 0.18815 0.0485 0.40683 0.0
H1346 H 0.20919 0.05072 0.37452 0.0
H1347 H 0.1681 0.07886 0.35005 0.0
H1348 H 0.14705 0.07681 0.38228 0.0
H1349 H 0.1323 0.06406 0.34905 0.0
H1350 H 0.11152 0.95584 0.35958 0.0
H1351 H 0.08325 0.96366 0.40358 0.0
H1352 H 0.13093 0.04078 0.4203 0.0
C1353 C 0.18732 0.02781 0.31706 0.0
C1354 C 0.18769 1.01027 0.29251 0.0
C1355 C 0.17122 0.98509 0.2923 0.0
C1356 C 0.15422 0.97759 0.3159 0.0
C1357 C 0.15405 0.99543 0.33965 0.0
C1358 C 0.17016 0.02002 0.34049 0.0
C1359 C 0.16485 0.03616 0.36811 0.0
C1360 C 0.19258 0.03812 0.38596 0.0
C1361 C 0.15232 0.06572 0.362 0.0
C1362 C 0.14276 0.01712 0.38238 0.0
C1363 C 0.13707 0.99364 0.36559 0.0
C1364 C 0.11614 0.97387 0.37311 0.0
C1365 C 0.10022 0.97846 0.39811 0.0
C1366 C 0.10537 1.00247 0.41546 0.0
C1367 C 0.12723 0.02183 0.40778 0.0
H1368 H 0.97947 0.80885 0.67269 0.0
H1369 H 0.02754 0.8474 0.74193 0.0
H1370 H 0.04102 0.88711 0.71012 0.0
H1371 H 0.02868 0.8301 0.6146 0.0
H1372 H 0.99982 0.83673 0.5897 0.0
H1373 H 0.99553 0.81039 0.61721 0.0
H1374 H 0.94922 0.83561 0.63472 0.0
H1375 H 0.95342 0.86204 0.60734 0.0
H1376 H 0.95074 0.87257 0.64427 0.0
H1377 H 0.04672 0.92388 0.67214 0.0
H1378 H 0.04497 0.9555 0.6305 0.0
H1379 H 0.99351 0.89371 0.58447 0.0
C1380 C 0.99323 0.82545 0.68097 0.0
C1381 C 0.00285 0.82487 0.70976 0.0
C1382 C 0.02033 0.84725 0.71992 0.0
C1383 C 0.02802 0.86988 0.70199 0.0
C1384 C 0.01806 0.86992 0.67384 0.0
C1385 C 1.00114 0.84827 0.66327 0.0
C1386 C 0.99246 0.85414 0.63244 0.0
C1387 C 0.00486 0.83149 0.61229 0.0
C1388 C 0.95951 0.85621 0.62954 0.0
C1389 C 0.00673 0.88273 0.62749 0.0
C1390 C 0.02144 0.89127 0.65171 0.0
C1391 C 0.03544 0.91729 0.65302 0.0
C1392 C 0.03419 0.9352 0.62918 0.0
C1393 C 0.01911 0.92723 0.60403 0.0
C1394 C 0.00551 0.90035 0.60315 0.0
H1395 H 0.20796 0.97781 0.69142 0.0
H1396 H 0.17669 0.04796 0.74257 0.0
H1397 H 0.1445 0.06236 0.70309 0.0
H1398 H 0.20508 0.01402 0.62152 0.0
H1399 H 0.19285 0.98287 0.60285 0.0
H1400 H 0.21536 0.97938 0.63404 0.0
H1401 H 0.17705 0.94709 0.65767 0.0
H1402 H 0.15457 0.95043 0.62651 0.0
H1403 H 0.14052 0.95967 0.66119 0.0
H1404 H 0.11346 0.06718 0.66026 0.0
H1405 H 0.08384 0.06139 0.61694 0.0
H1406 H 0.13472 0.98836 0.59217 0.0
C1407 C 0.19466 0.99647 0.69404 0.0
C1408 C 0.19519 1.01218 0.71984 0.0
C1409 C 0.17695 0.03601 0.72281 0.0
C1410 C 0.15865 0.04433 0.7005 0.0
C1411 C 0.1587 0.02851 0.67534 0.0
C1412 C 0.17615 1.00505 0.67192 0.0
C1413 C 0.17058 0.9908 0.64329 0.0
C1414 C 0.19758 0.99184 0.6243 0.0
C1415 C 0.16005 0.96019 0.64743 0.0
C1416 C 0.14684 1.00959 0.63144 0.0
C1417 C 0.1406 0.03134 0.65029 0.0
C1418 C 0.11839 0.05049 0.64519 0.0
C1419 C 0.10169 0.04702 0.62054 0.0
C1420 C 0.10726 0.02467 0.60112 0.0
C1421 C 0.13051 1.00602 0.60634 0.0
H1422 H 0.05499 0.21983 0.67501 0.0
H1423 H 0.98199 0.19823 0.72881 0.0
H1424 H 0.97362 0.1555 0.6994 0.0
H1425 H 0.02116 0.20237 0.6097 0.0
H1426 H 0.05332 0.18885 0.59292 0.0
H1427 H 0.05602 0.2156 0.62024 0.0
H1428 H 0.09024 0.18342 0.64951 0.0
H1429 H 0.0879 0.15669 0.62212 0.0
H1430 H 0.079 0.14801 0.65855 0.0
H1431 H 0.9718 0.11609 0.66229 0.0
H1432 H 0.97675 0.08336 0.62141 0.0
H1433 H 0.04788 0.13326 0.58877 0.0
C1434 C 0.03718 0.20621 0.68082 0.0
C1435 C 0.01905 0.21284 0.70444 0.0
C1436 C 0.9965 0.19375 0.71128 0.0
C1437 C 0.9914 0.16947 0.69444 0.0
C1438 C 0.00891 0.16447 0.67064 0.0
C1439 C 0.03143 0.1823 0.66391 0.0
C1440 C 0.04615 0.17313 0.63635 0.0
C1441 C 0.04403 0.19637 0.61345 0.0
C1442 C 0.07769 0.16482 0.64198 0.0
C1443 C 0.02819 0.14747 0.62831 0.0
C1444 C 0.00707 0.14263 0.64863 0.0
C1445 C 0.98822 0.11979 0.64631 0.0
C1446 C 0.9912 0.10132 0.62295 0.0
C1447 C 0.01252 0.10585 0.60172 0.0
C1448 C 0.03109 0.12948 0.60437 0.0
H1449 H 0.79528 0.03342 0.65946 0.0
H1450 H 0.839 1.00974 0.73791 0.0
H1451 H 0.88536 1.0087 0.71185 0.0
H1452 H 0.83406 0.98733 0.6144 0.0
H1453 H 0.83512 1.01116 0.58436 0.0
H1454 H 0.80593 0.01324 0.60962 0.0
H1455 H 0.81714 0.06627 0.61847 0.0
H1456 H 0.84622 0.06442 0.59302 0.0
H1457 H 0.85302 0.07667 0.62888 0.0
H1458 H 0.92598 1.00656 0.67669 0.0
H1459 H 0.95889 1.00534 0.63577 0.0
H1460 H 0.88855 0.02872 0.57911 0.0
C1461 C 0.8146 0.02813 0.67129 0.0
C1462 C 0.81342 0.0215 0.70083 0.0
C1463 C 0.83933 0.01519 0.71545 0.0
C1464 C 0.86573 0.01435 0.70075 0.0
C1465 C 0.86585 0.01997 0.67146 0.0
C1466 C 0.84101 0.02695 0.65691 0.0
C1467 C 0.84677 0.03078 0.6252 0.0
C1468 C 0.82944 1.00935 0.60735 0.0
C1469 C 0.84041 0.06135 0.61585 0.0
C1470 C 0.87876 0.02444 0.62405 0.0
C1471 C 0.88929 0.01844 0.65104 0.0
C1472 C 0.91801 1.01146 0.65552 0.0
C1473 C 0.93656 1.01082 0.63196 0.0
C1474 C 0.92648 0.01704 0.60396 0.0
C1475 C 0.89703 0.02382 0.60009 0.0
H1476 H 0.31156 0.04267 0.18432 0.0
H1477 H 0.32759 0.96108 0.22333 0.0
H1478 H 0.36759 0.95255 0.18957 0.0
H1479 H 0.33012 0.01968 0.10896 0.0
H1480 H 0.3463 0.05343 0.10092 0.0
H1481 H 0.31671 0.05141 0.12578 0.0
H1482 H 0.34797 0.07689 0.16375 0.0
H1483 H 0.37787 0.07832 0.13931 0.0
H1484 H 0.38225 0.06192 0.17379 0.0
H1485 H 0.41054 0.95647 0.15768 0.0
H1486 H 0.44863 0.96849 0.12271 0.0
H1487 H 0.40308 0.04569 0.10102 0.0
C1488 C 0.3227 0.02252 0.18474 0.0
C1489 C 0.31621 1.00216 0.20586 0.0
C1490 C 0.3319 0.9765 0.20675 0.0
C1491 C 0.35479 0.97163 0.18787 0.0
C1492 C 0.36147 0.99251 0.16796 0.0
C1493 C 0.3454 0.01709 0.16562 0.0
C1494 C 0.35791 0.03645 0.14289 0.0
C1495 C 0.33649 0.04047 0.11817 0.0
C1496 C 0.36704 0.06508 0.15572 0.0
C1497 C 0.38392 0.01929 0.13355 0.0
C1498 C 0.38572 0.99416 0.14855 0.0
C1499 C 0.40904 0.97579 0.14534 0.0
C1500 C 0.43072 0.98291 0.12574 0.0
C1501 C 0.42866 1.00793 0.1093 0.0
C1502 C 0.40497 0.02633 0.11327 0.0
H1503 H 0.05337 0.34387 0.2101 0.0
H1504 H 0.98082 0.29065 0.18707 0.0
H1505 H 0.9704 0.32227 0.1461 0.0
H1506 H 0.0197 0.40909 0.19661 0.0
H1507 H 0.05129 0.42633 0.18249 0.0
H1508 H 0.05509 0.39799 0.20793 0.0
H1509 H 0.08774 0.37046 0.17265 0.0
H1510 H 0.08442 0.39894 0.14727 0.0
H1511 H 0.07499 0.36335 0.13697 0.0
H1512 H 0.96555 0.36221 0.10999 0.0
H1513 H 0.96877 0.40492 0.07968 0.0
H1514 H 0.04376 0.43298 0.12673 0.0
C1515 C 0.03547 0.33859 0.19624 0.0
C1516 C 0.01786 0.31463 0.20194 0.0
C1517 C 0.99484 0.30852 0.18305 0.0
C1518 C 0.98862 0.32657 0.15987 0.0
C1519 C 0.0057 0.35062 0.15569 0.0
C1520 C 0.0289 0.35643 0.17317 0.0
C1521 C 0.04333 0.38413 0.16476 0.0
C1522 C 0.04228 0.40565 0.18942 0.0
C1523 C 0.07447 0.3789 0.15482 0.0
C1524 C 0.02432 0.39338 0.14007 0.0
C1525 C 0.00284 0.37363 0.13511 0.0
C1526 C 0.98252 0.37753 0.11355 0.0
C1527 C 0.98456 0.40178 0.09632 0.0
C1528 C 0.00661 0.42204 0.10057 0.0
C1529 C 0.02654 0.41794 0.12308 0.0
H1530 H 0.68865 0.04646 0.20984 0.0
H1531 H 0.7607 1.01296 0.16154 0.0
H1532 H 0.72734 0.99821 0.12301 0.0
H1533 H 0.63599 0.99216 0.18883 0.0
H1534 H 0.60657 0.01699 0.1866 0.0
H1535 H 0.63575 0.02321 0.21124 0.0
H1536 H 0.64432 0.07251 0.18861 0.0
H1537 H 0.61532 0.06629 0.16385 0.0
H1538 H 0.65066 0.07515 0.15069 0.0
H1539 H 0.68709 0.98983 0.08881 0.0
H1540 H 0.64264 0.98888 0.06022 0.0
H1541 H 0.59567 0.02755 0.13037 0.0
C1542 C 0.69729 0.03586 0.19119 0.0
C1543 C 0.72725 0.03095 0.18843 0.0
C1544 C 0.73784 0.01698 0.16385 0.0
C1545 C 0.71905 1.00848 0.14198 0.0
C1546 C 0.68968 0.01393 0.14513 0.0
C1547 C 0.67878 0.02726 0.1691 0.0
C1548 C 0.64644 0.03163 0.16647 0.0
C1549 C 0.63023 0.015 0.18967 0.0
C1550 C 0.63877 0.06329 0.16747 0.0
C1551 C 0.64098 0.01921 0.13704 0.0
C1552 C 0.66625 1.00894 0.12529 0.0
C1553 C 0.66715 0.99764 0.09785 0.0
C1554 C 0.64173 0.9973 0.08174 0.0
C1555 C 0.61559 1.00822 0.09298 0.0
C1556 C 0.61518 0.0188 0.12128 0.0
H1557 H 0.01775 0.74085 0.1537 0.0
H1558 H 0.99027 0.70321 0.23346 0.0
H1559 H 0.99149 0.65574 0.21111 0.0
H1560 H 0.97353 0.69724 0.10962 0.0
H1561 H 0.99901 0.69466 0.08067 0.0
H1562 H 0.99919 0.72527 0.10364 0.0
H1563 H 0.05307 0.71673 0.1152 0.0
H1564 H 0.05308 0.68617 0.09212 0.0
H1565 H 0.06432 0.68278 0.12882 0.0
H1566 H 0.9938 0.61226 0.17926 0.0
H1567 H 0.99569 0.57665 0.14076 0.0
H1568 H 0.01861 0.64245 0.08014 0.0
C1569 C 0.01259 0.72251 0.16659 0.0
C1570 C 0.00483 0.72571 0.19577 0.0
C1571 C 0.99736 0.70123 0.21155 0.0
C1572 C 0.99768 0.67418 0.19886 0.0
C1573 C 0.0051 0.67179 0.17004 0.0
C1574 C 0.01231 0.69533 0.15403 0.0
C1575 C 0.01764 0.6871 0.12299 0.0
C1576 C 0.99606 0.70195 0.10306 0.0
C1577 C 0.04889 0.69358 0.11428 0.0
C1578 C 0.0122 0.65533 0.12401 0.0
C1579 C 0.00523 0.64693 0.15143 0.0
C1580 C 0.99927 0.61867 0.15774 0.0
C1581 C 1.00042 0.5985 0.1356 0.0
C1582 C 0.00723 0.60646 0.10714 0.0
C1583 C 0.01319 0.63545 0.10149 0.0
H1584 H 0.35035 0.05293 0.80615 0.0
H1585 H 0.28448 0.99486 0.83647 0.0
H1586 H 0.31074 0.99011 0.88209 0.0
H1587 H 0.40898 0.01324 0.83305 0.0
H1588 H 0.43053 0.04381 0.84171 0.0
H1589 H 0.4047 0.04559 0.81307 0.0
H1590 H 0.38037 0.08887 0.83717 0.0
H1591 H 0.40623 0.08724 0.86583 0.0
H1592 H 0.3682 0.08617 0.87364 0.0
H1593 H 0.3455 0.99025 0.92384 0.0
H1594 H 0.38671 0.99335 0.95712 0.0
H1595 H 0.43207 0.04714 0.89699 0.0
C1596 C 0.34133 0.03901 0.82217 0.0
C1597 C 0.3152 0.02416 0.81738 0.0
C1598 C 0.30411 1.00684 0.83954 0.0
C1599 C 0.31901 1.00385 0.86553 0.0
C1600 C 0.3451 0.01812 0.86901 0.0
C1601 C 0.35621 0.03525 0.84784 0.0
C1602 C 0.38562 0.0467 0.85592 0.0
C1603 C 0.40882 0.03673 0.83468 0.0
C1604 C 0.38505 0.07917 0.85829 0.0
C1605 C 0.38955 0.03305 0.8849 0.0
C1606 C 0.36572 0.01706 0.89229 0.0
C1607 C 0.36424 1.0027 0.91823 0.0
C1608 C 0.38773 1.00463 0.93701 0.0
C1609 C 0.41262 0.02039 0.92956 0.0
C1610 C 0.41345 0.03475 0.90313 0.0
H1611 H 0.03697 0.29676 0.86682 0.0
H1612 H 0.99864 0.33263 0.79048 0.0
H1613 H 0.99252 0.37822 0.81534 0.0
H1614 H 0.98906 0.33359 0.91727 0.0
H1615 H 0.01699 0.33835 0.94361 0.0
H1616 H 0.01808 0.30833 0.91984 0.0
H1617 H 0.06936 0.32283 0.90364 0.0
H1618 H 0.06831 0.35299 0.92717 0.0
H1619 H 0.07533 0.35789 0.88962 0.0
H1620 H 0.993 0.42109 0.84784 0.0
H1621 H 0.99634 0.45659 0.88635 0.0
H1622 H 0.0316 0.39276 0.94318 0.0
C1623 C 0.02687 0.3141 0.85548 0.0
C1624 C 0.0183 0.31085 0.82655 0.0
C1625 C 0.0056 0.3343 0.81243 0.0
C1626 C 1.00193 0.3604 0.82649 0.0
C1627 C 0.01082 0.3629 0.85486 0.0
C1628 C 0.02265 0.34025 0.86937 0.0
C1629 C 0.03022 0.34855 0.8999 0.0
C1630 C 0.01253 0.33117 0.92143 0.0
C1631 C 0.06274 0.34537 0.90539 0.0
C1632 C 0.0212 0.3795 0.90017 0.0
C1633 C 0.01022 0.38736 0.87388 0.0
C1634 C 1.00134 0.41506 0.86855 0.0
C1635 C 0.00349 0.43517 0.89061 0.0
C1636 C 0.01421 0.42765 0.91797 0.0
C1637 C 0.0231 0.39928 0.92266 0.0
H1638 H 0.73137 1.00607 0.8616 0.0
H1639 H 0.69384 0.04418 0.78591 0.0
H1640 H 0.64702 0.04762 0.81044 0.0
H1641 H 0.66993 0.96504 0.88222 0.0
H1642 H 0.67466 0.97087 0.91998 0.0
H1643 H 0.70544 0.97128 0.89655 0.0
H1644 H 0.71898 0.02148 0.91446 0.0
H1645 H 0.68841 0.02108 0.93815 0.0
H1646 H 0.69259 0.04946 0.91277 0.0
H1647 H 0.60354 0.04604 0.84321 0.0
H1648 H 0.56795 0.04164 0.88226 0.0
H1649 H 0.63423 1.00592 0.93698 0.0
C1650 C 0.71332 0.01535 0.8503 0.0
C1651 C 0.71647 0.02487 0.82184 0.0
C1652 C 0.69222 0.03661 0.80764 0.0
C1653 C 0.66542 0.03872 0.82145 0.0
C1654 C 0.66311 0.02908 0.84949 0.0
C1655 C 0.68649 0.01782 0.86384 0.0
C1656 C 0.67837 1.00924 0.89399 0.0
C1657 C 0.68234 0.9772 0.89843 0.0
C1658 C 0.69561 0.02634 0.91615 0.0
C1659 C 0.64677 0.01736 0.89432 0.0
C1660 C 0.6383 0.02863 0.86843 0.0
C1661 C 0.60998 0.03733 0.86361 0.0
C1662 C 0.58987 0.03464 0.88591 0.0
C1663 C 0.59819 0.02352 0.9128 0.0
C1664 C 0.62708 0.01472 0.91683 0.0
H1665 H 0.04223 0.66803 0.79741 0.0
H1666 H 0.9867 0.73614 0.82727 0.0
H1667 H 0.98139 0.71134 0.87335 0.0
H1668 H 0.99852 0.6126 0.82659 0.0
H1669 H 0.02885 0.59013 0.83468 0.0
H1670 H 0.03086 0.61471 0.80535 0.0
H1671 H 0.07693 0.63681 0.82726 0.0
H1672 H 0.07502 0.61233 0.85669 0.0
H1673 H 0.07609 0.6499 0.86344 0.0
H1674 H 0.98246 0.67848 0.91687 0.0
H1675 H 0.98636 0.63954 0.95178 0.0
H1676 H 0.03481 0.58986 0.89036 0.0
C1677 C 0.02841 0.67786 0.81314 0.0
C1678 C 0.0147 0.70436 0.80795 0.0
C1679 C 0.9979 0.71629 0.8303 0.0
C1680 C 0.99453 0.70216 0.85664 0.0
C1681 C 0.0077 0.6758 0.86042 0.0
C1682 C 0.02403 0.66367 0.83909 0.0
C1683 C 0.03449 0.63437 0.84764 0.0
C1684 C 0.02245 0.61161 0.82736 0.0
C1685 C 0.06759 0.6333 0.84883 0.0
C1686 C 0.02148 0.63178 0.87725 0.0
C1687 C 0.00656 0.65614 0.88444 0.0
C1688 C 0.99376 0.65923 0.91121 0.0
C1689 C 0.99606 0.63689 0.93093 0.0
C1690 C 0.01037 0.61129 0.92372 0.0
C1691 C 0.02325 0.60887 0.89641 0.0
H1692 H 0.22894 0.35848 0.99472 0.0
H1693 H 0.18512 0.28821 0.03569 0.0
H1694 H 0.14104 0.31751 0.03969 0.0
H1695 H 0.19998 0.41232 0.03883 0.0
H1696 H 0.19679 0.4383 0.01081 0.0
H1697 H 0.22403 0.4112 0.00859 0.0
H1698 H 0.20445 0.39554 0.95924 0.0
H1699 H 0.17738 0.42284 0.96111 0.0
H1700 H 0.16688 0.38652 0.95556 0.0
H1701 H 0.10321 0.35542 0.04253 0.0
H1702 H 0.07235 0.39754 0.04058 0.0
H1703 H 0.14076 0.44459 0.99872 0.0
C1704 C 0.21001 0.34909 1.00437 0.0
C1705 C 0.21063 0.3209 0.01504 0.0
C1706 C 0.18521 0.30949 0.0271 0.0
C1707 C 0.16015 0.32612 0.0297 0.0
C1708 C 0.16078 0.35412 0.02003 0.0
C1709 C 0.18495 0.36544 1.0073 0.0
C1710 C 0.18023 0.39637 0.9994 0.0
C1711 C 0.20153 0.41568 0.01536 0.0
C1712 C 0.18236 0.40056 0.9669 0.0
C1713 C 0.14961 0.40086 0.00992 0.0
C1714 C 0.13891 0.37612 0.02171 0.0
C1715 C 0.11131 0.37476 0.0331 0.0
C1716 C 0.09392 0.39896 0.03184 0.0
C1717 C 0.10392 0.42453 0.01927 0.0
C1718 C 0.13245 0.42553 0.00857 0.0
H1719 H 0.23184 0.66797 0.03114 0.0
H1720 H 0.18868 0.7442 1.00175 0.0
H1721 H 0.14236 0.71832 1.00142 0.0
H1722 H 0.19377 0.62081 0.98609 0.0
H1723 H 0.19244 0.59237 0.01171 0.0
H1724 H 0.22155 0.61754 0.01281 0.0
H1725 H 0.20959 0.62906 0.06562 0.0
H1726 H 0.18054 0.60377 0.06473 0.0
H1727 H 0.17357 0.6399 0.07507 0.0
H1728 H 0.10139 0.6833 1.00125 0.0
H1729 H 0.0685 0.64266 1.00189 0.0
H1730 H 0.13872 0.5879 0.02876 0.0
C1731 C 0.21271 0.67939 0.02461 0.0
C1732 C 0.21416 0.70831 0.01628 0.0
C1733 C 0.1883 0.7223 0.00855 0.0
C1734 C 0.16188 0.70766 0.00809 0.0
C1735 C 0.16157 0.67899 0.01541 0.0
C1736 C 0.18631 0.66502 0.02364 0.0
C1737 C 0.18046 0.63381 0.02911 0.0
C1738 C 0.1981 0.61503 0.00871 0.0
C1739 C 0.18639 0.6262 0.0605 0.0
C1740 C 0.14852 0.63224 0.02236 0.0
C1741 C 0.13807 0.65862 0.01475 0.0
C1742 C 0.10935 0.66263 1.00734 0.0
C1743 C 0.09078 0.63922 1.00782 0.0
C1744 C 0.10082 0.61181 0.0155 0.0
C1745 C 0.13025 0.60841 0.02276 0.0
H1746 H 0.29003 0.16158 1.00389 0.0
H1747 H 0.32364 0.23316 0.05125 0.0
H1748 H 0.37165 0.21047 0.05277 0.0
H1749 H 0.32808 0.10934 0.04482 0.0
H1750 H 0.33414 0.08592 0.01499 0.0
H1751 H 0.30317 0.1089 0.01525 0.0
H1752 H 0.31882 0.12997 0.96657 0.0
H1753 H 0.34982 0.10699 0.96618 0.0
H1754 H 0.35445 0.14473 0.96283 0.0
H1755 H 0.41621 0.17956 0.04939 0.0
H1756 H 0.45273 0.14177 0.04432 0.0
H1757 H 0.38924 0.08824 1.00285 0.0
C1758 C 0.30762 0.1726 0.01425 0.0
C1759 C 0.30329 0.1996 0.02673 0.0
C1760 C 0.32668 0.213 0.04068 0.0
C1761 C 0.35398 0.20011 0.04188 0.0
C1762 C 0.35753 0.17347 0.02947 0.0
C1763 C 0.3349 0.1597 0.01618 0.0
C1764 C 0.344 0.13041 1.00617 0.0
C1765 C 0.32629 0.10728 0.02121 0.0
C1766 C 0.34163 0.12789 0.97349 0.0
C1767 C 0.37525 0.12989 0.01582 0.0
C1768 C 0.38271 0.15506 0.02893 0.0
C1769 C 0.41053 0.15974 0.03923 0.0
C1770 C 0.43119 0.13815 0.03617 0.0
C1771 C 0.42394 0.11192 0.02329 0.0
C1772 C 0.39549 0.1079 0.01303 0.0
H1773 H 0.80541 0.35225 0.97399 0.0
H1774 H 0.83996 0.28803 0.03121 0.0
H1775 H 0.88375 0.31686 0.03725 0.0
H1776 H 0.87171 0.37769 0.94312 0.0
H1777 H 0.86066 0.41426 0.94411 0.0
H1778 H 0.83405 0.38672 0.94047 0.0
H1779 H 0.80728 0.40588 0.98503 0.0
H1780 H 0.83386 0.4334 0.98887 0.0
H1781 H 0.82659 0.40978 0.01823 0.0
H1782 H 0.92371 0.35296 0.03723 0.0
H1783 H 0.95516 0.39467 0.03457 0.0
H1784 H 0.89019 0.43974 0.98598 0.0
C1785 C 0.82177 0.34406 0.9882 0.0
C1786 C 0.81855 0.31755 1.00235 0.0
C1787 C 0.8416 0.30778 0.01965 0.0
C1788 C 0.86659 0.32423 0.02347 0.0
C1789 C 0.86813 0.3507 0.01032 0.0
C1790 C 0.84619 0.36068 0.99326 0.0
C1791 C 0.85197 0.39089 0.98358 0.0
C1792 C 0.85476 0.39247 0.95088 0.0
C1793 C 0.82853 0.41118 0.99459 0.0
C1794 C 0.88064 0.39647 0.99804 0.0
C1795 C 0.88982 0.37269 0.01274 0.0
C1796 C 0.91642 0.37185 0.02632 0.0
C1797 C 0.93404 0.39585 0.02493 0.0
C1798 C 0.92477 0.42095 0.01105 0.0
C1799 C 0.89757 0.42122 0.99745 0.0
H1800 H 0.7362 0.87117 0.9994 0.0
H1801 H 0.69292 0.79568 0.02966 0.0
H1802 H 0.64603 0.81964 0.02518 0.0
H1803 H 0.69158 0.9183 0.04067 0.0
H1804 H 0.6916 0.94626 0.01449 0.0
H1805 H 0.7217 0.92227 0.01666 0.0
H1806 H 0.71535 0.90968 0.96312 0.0
H1807 H 0.68523 0.93366 0.96089 0.0
H1808 H 0.68091 0.89714 0.95055 0.0
H1809 H 0.60387 0.85135 0.01724 0.0
H1810 H 0.56928 0.89038 0.01261 0.0
H1811 H 0.63949 0.94823 0.99334 0.0
C1812 C 0.71677 0.8596 1.00461 0.0
C1813 C 0.71812 0.8309 0.01342 0.0
C1814 C 0.69234 0.81691 0.0212 0.0
C1815 C 0.66559 0.83055 0.0191 0.0
C1816 C 0.66493 0.85861 0.00999 0.0
C1817 C 0.68983 0.87325 1.00343 0.0
C1818 C 0.68311 0.9041 0.99683 0.0
C1819 C 0.69788 0.9239 0.01845 0.0
C1820 C 0.69166 0.91157 0.96601 0.0
C1821 C 0.65057 0.90438 1.00055 0.0
C1822 C 0.64061 0.87775 1.00771 0.0
C1823 C 0.61144 0.87236 0.01188 0.0
C1824 C 0.5919 0.89481 0.00916 0.0
C1825 C 0.60149 0.92267 1.00293 0.0
C1826 C 0.63134 0.92732 0.99832 0.0
H1827 H 0.81052 0.68697 0.04696 0.0
H1828 H 0.8283 0.73277 0.9686 0.0
H1829 H 0.8705 0.70184 0.95995 0.0
H1830 H 0.88563 0.67039 0.06684 0.0
H1831 H 0.87606 0.63566 0.07965 0.0
H1832 H 0.85034 0.66419 0.08167 0.0
H1833 H 0.81362 0.63369 0.05351 0.0
H1834 H 0.83943 0.60534 0.0509 0.0
H1835 H 0.82348 0.61981 0.01897 0.0
H1836 H 0.90803 0.66285 0.95766 0.0
H1837 H 0.93967 0.62102 0.96349 0.0
H1838 H 0.89513 0.59869 0.04154 0.0
C1839 C 0.82354 0.69087 0.02818 0.0
C1840 C 0.81597 0.71237 0.0084 0.0
C1841 C 0.8338 0.7168 0.98426 0.0
C1842 C 0.85765 0.6991 0.97904 0.0
C1843 C 0.86339 0.67708 0.99815 0.0
C1844 C 0.847 0.67314 0.02242 0.0
C1845 C 0.85639 0.64688 0.03866 0.0
C1846 C 0.86779 0.65476 0.06847 0.0
C1847 C 0.83176 0.62515 0.04061 0.0
C1848 C 0.8804 0.63631 0.01951 0.0
C1849 C 0.88426 0.65418 0.99638 0.0
C1850 C 0.90522 0.64886 0.97574 0.0
C1851 C 0.92302 0.62507 0.97916 0.0
C1852 C 0.91959 0.6067 1.00277 0.0
C1853 C 0.89781 0.6122 0.02304 0.0
H1854 H 0.33808 0.81892 0.98203 0.0
H1855 H 0.27808 0.8539 0.04361 0.0
H1856 H 0.31337 0.89135 0.05574 0.0
H1857 H 0.40436 0.83401 0.02312 0.0
H1858 H 0.42497 0.84285 0.99173 0.0
H1859 H 0.39594 0.81761 0.98935 0.0
H1860 H 0.3723 0.84748 0.94932 0.0
H1861 H 0.4012 0.8728 0.95165 0.0
H1862 H 0.3644 0.88431 0.95579 0.0
H1863 H 0.35303 0.92699 0.05831 0.0
H1864 H 0.39525 0.95803 0.05263 0.0
H1865 H 0.4311 0.90009 0.98999 0.0
C1866 C 0.3326 0.8343 0.99831 0.0
C1867 C 0.30528 0.83367 0.01186 0.0
C1868 C 0.29883 0.8541 0.03302 0.0
C1869 C 0.31875 0.8754 0.04001 0.0
C1870 C 0.34521 0.87585 0.02584 0.0
C1871 C 0.35233 0.85574 1.00559 0.0
C1872 C 0.3819 0.86175 0.99288 0.0
C1873 C 0.40304 0.83762 0.99968 0.0
C1874 C 0.37981 0.86689 0.96049 0.0
C1875 C 0.39001 0.8887 0.00872 0.0
C1876 C 0.36848 0.89632 0.02768 0.0
C1877 C 0.37013 0.92108 0.04375 0.0
C1878 C 0.39419 0.93866 0.04026 0.0
C1879 C 0.41658 0.93151 0.02092 0.0
C1880 C 0.41458 0.90592 1.00523 0.0
H1881 H 0.74403 0.15509 0.00788 0.0
H1882 H 0.70245 0.2304 0.97481 0.0
H1883 H 0.65503 0.20748 0.97981 0.0
H1884 H 0.69795 0.10745 0.96725 0.0
H1885 H 0.69754 0.08027 0.99425 0.0
H1886 H 0.7282 0.10346 0.9911 0.0
H1887 H 0.72268 0.11768 0.04429 0.0
H1888 H 0.69194 0.09461 0.04755 0.0
H1889 H 0.68873 0.13153 0.05677 0.0
H1890 H 0.61222 0.17777 0.99114 0.0
H1891 H 0.57652 0.14044 0.99932 0.0
H1892 H 0.64523 0.08032 0.01651 0.0
C1893 C 0.72487 0.16679 1.00198 0.0
C1894 C 0.72678 0.19524 0.99248 0.0
C1895 C 0.70137 0.20941 0.98388 0.0
C1896 C 0.67435 0.19635 0.98624 0.0
C1897 C 0.67312 0.1686 0.9962 0.0
C1898 C 0.69769 0.1536 1.00315 0.0
C1899 C 0.69026 0.12311 0.01071 0.0
C1900 C 0.70432 0.10235 0.98957 0.0
C1901 C 0.69892 0.11634 0.04167 0.0
C1902 C 0.65766 0.12353 1.00728 0.0
C1903 C 0.64836 0.15021 0.99947 0.0
C1904 C 0.61927 0.15661 0.99657 0.0
C1905 C 0.59909 0.13508 1.00118 0.0
C1906 C 0.6079 0.10703 1.00765 0.0
C1907 C 0.63773 0.10132 0.01098 0.0
H1908 H 0.48316 0.71846 0.84504 0.0
H1909 H 0.53192 0.67921 0.77666 0.0
H1910 H 0.54527 0.63992 0.80904 0.0
H1911 H 0.53186 0.69785 0.90391 0.0
H1912 H 0.50274 0.69141 0.92854 0.0
H1913 H 0.49872 0.71753 0.90075 0.0
H1914 H 0.45263 0.69214 0.88293 0.0
H1915 H 0.45655 0.66597 0.9106 0.0
H1916 H 0.4543 0.6551 0.87375 0.0
H1917 H 0.55053 0.60355 0.84728 0.0
H1918 H 0.54771 0.57198 0.88898 0.0
H1919 H 0.49596 0.63427 0.93394 0.0
C1920 C 0.49704 0.70179 0.83708 0.0
C1921 C 0.50689 0.70202 0.80838 0.0
C1922 C 0.52452 0.67959 0.7986 0.0
C1923 C 0.53216 0.65722 0.81685 0.0
C1924 C 0.522 0.65752 0.84491 0.0
C1925 C 0.50489 0.67923 0.85509 0.0
C1926 C 0.49587 0.67365 0.88586 0.0
C1927 C 0.50803 0.69647 0.90595 0.0
C1928 C 0.46288 0.67159 0.88842 0.0
C1929 C 0.51012 0.64514 0.89119 0.0
C1930 C 0.52517 0.6364 0.86724 0.0
C1931 C 0.53903 0.61029 0.86621 0.0
C1932 C 0.5372 0.59244 0.89004 0.0
C1933 C 0.52169 0.60062 0.91483 0.0
C1934 C 0.50835 0.6276 0.91552 0.0
H1935 H 0.29666 0.48264 0.85297 0.0
H1936 H 0.33805 0.51913 0.77847 0.0
H1937 H 0.3833 0.52408 0.80604 0.0
H1938 H 0.32711 0.5288 0.9032 0.0
H1939 H 0.33136 0.5028 0.93105 0.0
H1940 H 0.30333 0.49867 0.90477 0.0
H1941 H 0.32286 0.449 0.89148 0.0
H1942 H 0.3507 0.45276 0.91807 0.0
H1943 H 0.36018 0.44502 0.88154 0.0
H1944 H 0.42203 0.5296 0.84281 0.0
H1945 H 0.45374 0.53152 0.88458 0.0
H1946 H 0.38723 0.49227 0.93657 0.0
C1947 C 0.31538 0.4913 0.84227 0.0
C1948 C 0.31376 0.50057 0.81345 0.0
C1949 C 0.33881 0.51156 0.80029 0.0
C1950 C 0.36451 0.51468 0.81591 0.0
C1951 C 0.36486 0.50656 0.84461 0.0
C1952 C 0.34108 0.49472 0.85759 0.0
C1953 C 0.34673 0.48892 0.88907 0.0
C1954 C 0.32589 0.50581 0.90814 0.0
C1955 C 0.34502 0.45703 0.89541 0.0
C1956 C 0.37736 0.49979 0.89196 0.0
C1957 C 0.3873 0.50978 0.86597 0.0
C1958 C 0.4146 0.52148 0.86313 0.0
C1959 C 0.43247 0.52246 0.88719 0.0
C1960 C 0.42324 0.51177 0.91408 0.0
C1961 C 0.39503 0.50061 0.91647 0.0
H1962 H 0.48945 0.29534 0.85354 0.0
H1963 H 0.52012 0.33748 0.77694 0.0
H1964 H 0.52086 0.38293 0.80314 0.0
H1965 H 0.44629 0.35417 0.88279 0.0
H1966 H 0.45686 0.34658 0.91904 0.0
H1967 H 0.45462 0.31835 0.8932 0.0
H1968 H 0.50752 0.30458 0.90417 0.0
H1969 H 0.51003 0.33293 0.92978 0.0
H1970 H 0.53545 0.33088 0.90074 0.0
H1971 H 0.52284 0.42271 0.83877 0.0
H1972 H 0.52428 0.45455 0.88016 0.0
H1973 H 0.49522 0.38614 0.9351 0.0
C1974 C 0.49609 0.31413 0.84207 0.0
C1975 C 0.50486 0.31263 0.813 0.0
C1976 C 0.51292 0.33795 0.79893 0.0
C1977 C 0.51364 0.36387 0.81377 0.0
C1978 C 0.50622 0.3642 0.8427 0.0
C1979 C 0.49737 0.34002 0.85666 0.0
C1980 C 0.49243 0.34567 0.88829 0.0
C1981 C 0.46066 0.34091 0.8963 0.0
C1982 C 0.51256 0.32743 0.90683 0.0
C1983 C 0.5004 0.37677 0.89011 0.0
C1984 C 0.50798 0.38703 0.86347 0.0
C1985 C 0.51668 0.41493 0.85963 0.0
C1986 C 0.51742 0.43288 0.88347 0.0
C1987 C 0.50975 0.42304 0.91114 0.0
C1988 C 0.50124 0.39443 0.91438 0.0
H1989 H 0.71009 0.55375 0.82953 0.0
H1990 H 0.6747 0.49256 0.77002 0.0
H1991 H 0.63977 0.47706 0.80672 0.0
H1992 H 0.70169 0.51074 0.8945 0.0
H1993 H 0.69159 0.54055 0.9164 0.0
H1994 H 0.71524 0.54557 0.88627 0.0
H1995 H 0.68051 0.58342 0.86577 0.0
H1996 H 0.65686 0.57856 0.89585 0.0
H1997 H 0.64318 0.57446 0.86005 0.0
H1998 H 0.60714 0.47018 0.84811 0.0
H1999 H 0.57743 0.47291 0.89159 0.0
H2000 H 0.63337 0.53838 0.92554 0.0
C2001 C 0.69519 0.53685 0.82443 0.0
C2002 C 0.69525 0.52402 0.79706 0.0
C2003 C 0.67515 0.50235 0.79096 0.0
C2004 C 0.6553 0.49343 0.81166 0.0
C2005 C 0.65578 0.50645 0.83841 0.0
C2006 C 0.67513 0.52771 0.84491 0.0
C2007 C 0.66994 0.5391 0.87488 0.0
C2008 C 0.69618 0.53366 0.89415 0.0
C2009 C 0.66216 0.57076 0.87407 0.0
C2010 C 0.64434 0.52123 0.88399 0.0
C2011 C 0.63675 0.50243 0.86258 0.0
C2012 C 0.61302 0.48462 0.8651 0.0
C2013 C 0.59623 0.4864 0.88986 0.0
C2014 C 0.60317 0.50577 0.91195 0.0
C2015 C 0.62789 0.52305 0.90921 0.0
H2016 H 0.47272 0.30651 0.17164 0.0
H2017 H 0.52383 0.34378 0.23947 0.0
H2018 H 0.54017 0.38122 0.20634 0.0
H2019 H 0.52279 0.3223 0.1125 0.0
H2020 H 0.49427 0.33042 0.08767 0.0
H2021 H 0.48822 0.30525 0.11597 0.0
H2022 H 0.44423 0.33439 0.13319 0.0
H2023 H 0.45017 0.3596 0.10497 0.0
H2024 H 0.44875 0.37139 0.14158 0.0
H2025 H 0.54874 0.41603 0.16719 0.0
H2026 H 0.54831 0.44691 0.12488 0.0
H2027 H 0.49176 0.3879 0.08115 0.0
C2028 C 0.4878 0.32226 0.1793 0.0
C2029 C 0.49765 0.32177 0.20801 0.0
C2030 C 0.5166 0.3433 0.21747 0.0
C2031 C 0.52594 0.36468 0.19879 0.0
C2032 C 0.51599 0.36447 0.17066 0.0
C2033 C 0.49732 0.34387 0.16087 0.0
C2034 C 0.48877 0.3495 0.12996 0.0
C2035 C 0.49914 0.32543 0.11037 0.0
C2036 C 0.45604 0.35399 0.12728 0.0
C2037 C 0.50519 0.37675 0.12407 0.0
C2038 C 0.52085 0.38481 0.14788 0.0
C2039 C 0.53675 0.40979 0.14838 0.0
C2040 C 0.5363 0.42725 0.12419 0.0
C2041 C 0.52012 0.41983 0.09958 0.0
C2042 C 0.50474 0.39392 0.0994 0.0
H2043 H 0.65239 0.49476 0.23263 0.0
H2044 H 0.73302 0.4691 0.19372 0.0
H2045 H 0.7115 0.47519 0.14572 0.0
H2046 H 0.60674 0.45799 0.18272 0.0
H2047 H 0.57912 0.48481 0.18261 0.0
H2048 H 0.6013 0.47993 0.2138 0.0
H2049 H 0.61606 0.53284 0.21204 0.0
H2050 H 0.59394 0.53784 0.18081 0.0
H2051 H 0.63162 0.54702 0.17978 0.0
H2052 H 0.68094 0.48348 0.102 0.0
H2053 H 0.64333 0.49147 0.06573 0.0
H2054 H 0.58162 0.50992 0.13306 0.0
C2055 C 0.66547 0.49054 0.21395 0.0
C2056 C 0.69442 0.4816 0.21679 0.0
C2057 C 0.71089 0.47616 0.19193 0.0
C2058 C 0.69882 0.47951 0.16463 0.0
C2059 C 0.67015 0.48814 0.16252 0.0
C2060 C 0.6536 0.49341 0.18651 0.0
C2061 C 0.62301 0.50138 0.1783 0.0
C2062 C 0.60127 0.47974 0.19006 0.0
C2063 C 0.61574 0.53157 0.18833 0.0
C2064 C 0.62494 0.49977 0.14599 0.0
C2065 C 0.65236 0.49228 0.13734 0.0
C2066 C 0.65939 0.48936 0.10854 0.0
C2067 C 0.6378 0.49401 0.08806 0.0
C2068 C 0.60934 0.50135 0.09636 0.0
C2069 C 0.60305 0.50434 0.12583 0.0
H2070 H 0.48872 0.72654 0.15734 0.0
H2071 H 0.51881 0.68653 0.23532 0.0
H2072 H 0.52129 0.64065 0.21001 0.0
H2073 H 0.44731 0.6661 0.12882 0.0
H2074 H 0.45814 0.6732 0.09255 0.0
H2075 H 0.45491 0.70188 0.11776 0.0
H2076 H 0.5076 0.71659 0.1071 0.0
H2077 H 0.51108 0.68777 0.08214 0.0
H2078 H 0.53611 0.69101 0.11142 0.0
H2079 H 0.52496 0.60012 0.17511 0.0
H2080 H 0.52756 0.56747 0.1343 0.0
H2081 H 0.49741 0.63421 0.07786 0.0
C2082 C 0.49558 0.70812 0.16929 0.0
C2083 C 0.50366 0.71036 0.1985 0.0
C2084 C 0.5121 0.68549 0.21319 0.0
C2085 C 0.51382 0.65932 0.19887 0.0
C2086 C 0.50695 0.65825 0.16983 0.0
C2087 C 0.49773 0.68196 0.15525 0.0
C2088 C 0.4933 0.67553 0.12369 0.0
C2089 C 0.46153 0.6794 0.11521 0.0
C2090 C 0.51321 0.69381 0.105 0.0
C2091 C 0.50203 0.64458 0.12264 0.0
C2092 C 0.50955 0.63501 0.14956 0.0
C2093 C 0.51885 0.60736 0.15402 0.0
C2094 C 0.52027 0.58893 0.13054 0.0
C2095 C 0.51263 0.59808 0.10262 0.0
C2096 C 0.50349 0.62644 0.09877 0.0
H2097 H 0.30713 0.54376 0.17228 0.0
H2098 H 0.33816 0.48217 0.23398 0.0
H2099 H 0.3814 0.47443 0.2042 0.0
H2100 H 0.32771 0.50414 0.11067 0.0
H2101 H 0.33734 0.53482 0.08988 0.0
H2102 H 0.3102 0.5376 0.11725 0.0
H2103 H 0.33884 0.57816 0.14138 0.0
H2104 H 0.36598 0.57564 0.11398 0.0
H2105 H 0.37602 0.57255 0.15104 0.0
H2106 H 0.42055 0.47223 0.1668 0.0
H2107 H 0.45284 0.47586 0.12515 0.0
H2108 H 0.39438 0.53589 0.08561 0.0
C2109 C 0.32283 0.52847 0.17965 0.0
C2110 C 0.31888 0.51347 0.20568 0.0
C2111 C 0.34061 0.49428 0.2145 0.0
C2112 C 0.36519 0.48953 0.19754 0.0
C2113 C 0.36776 0.50399 0.17166 0.0
C2114 C 0.34716 0.52309 0.16275 0.0
C2115 C 0.35443 0.53507 0.1335 0.0
C2116 C 0.33102 0.52745 0.11153 0.0
C2117 C 0.3591 0.56726 0.13508 0.0
C2118 C 0.3824 0.51965 0.1272 0.0
C2119 C 0.38978 0.50201 0.14964 0.0
C2120 C 0.41494 0.48596 0.14916 0.0
C2121 C 0.43317 0.48822 0.12537 0.0
C2122 C 0.42615 0.50615 0.10207 0.0
C2123 C 0.40019 0.52181 0.10293 0.0
H2124 H 0.85229 0.48368 0.71426 0.0
H2125 H 0.79054 0.54715 0.68659 0.0
H2126 H 0.81933 0.55492 0.64285 0.0
H2127 H 0.91434 0.52209 0.69322 0.0
H2128 H 0.93443 0.49122 0.68242 0.0
H2129 H 0.90746 0.48839 0.70992 0.0
H2130 H 0.88149 0.449 0.68119 0.0
H2131 H 0.90858 0.45152 0.65376 0.0
H2132 H 0.87106 0.45562 0.64469 0.0
H2133 H 0.8559 0.55685 0.60297 0.0
H2134 H 0.89705 0.55261 0.56976 0.0
H2135 H 0.93707 0.49114 0.626 0.0
C2136 C 0.84471 0.49933 0.69913 0.0
C2137 C 0.8191 0.51495 0.7041 0.0
C2138 C 0.80981 0.53465 0.68323 0.0
C2139 C 0.82618 0.53939 0.65842 0.0
C2140 C 0.85184 0.52437 0.65487 0.0
C2141 C 0.86102 0.5047 0.67466 0.0
C2142 C 0.89002 0.49226 0.66656 0.0
C2143 C 0.91291 0.4989 0.68939 0.0
C2144 C 0.88763 0.4602 0.66122 0.0
C2145 C 0.89591 0.50815 0.63913 0.0
C2146 C 0.87347 0.52635 0.63261 0.0
C2147 C 0.8736 0.54275 0.60792 0.0
C2148 C 0.89706 0.54021 0.58924 0.0
C2149 C 0.92029 0.52174 0.59552 0.0
C2150 C 0.91983 0.50577 0.62096 0.0
H2151 H 0.54629 0.85653 0.71892 0.0
H2152 H 0.48832 0.78978 0.69077 0.0
H2153 H 0.48087 0.81561 0.64543 0.0
H2154 H 0.50158 0.91262 0.69443 0.0
H2155 H 0.53131 0.93534 0.68506 0.0
H2156 H 0.53532 0.9098 0.71332 0.0
H2157 H 0.57968 0.88829 0.68762 0.0
H2158 H 0.57585 0.91384 0.65932 0.0
H2159 H 0.57633 0.87655 0.65111 0.0
H2160 H 0.47975 0.84954 0.60301 0.0
H2161 H 0.48189 0.88935 0.56913 0.0
H2162 H 0.53355 0.93745 0.62914 0.0
C2163 C 0.53162 0.8472 0.70362 0.0
C2164 C 0.51759 0.82096 0.70905 0.0
C2165 C 0.49963 0.80952 0.6874 0.0
C2166 C 0.49508 0.82422 0.66157 0.0
C2167 C 0.50829 0.85055 0.65776 0.0
C2168 C 0.526 0.862 0.67837 0.0
C2169 C 0.53595 0.89156 0.67024 0.0
C2170 C 0.5254 0.91363 0.69206 0.0
C2171 C 0.56891 0.89261 0.66687 0.0
C2172 C 0.52097 0.89515 0.64173 0.0
C2173 C 0.50564 0.871 0.63464 0.0
C2174 C 0.49126 0.86868 0.60865 0.0
C2175 C 0.49244 0.89156 0.58958 0.0
C2176 C 0.50706 0.91698 0.59676 0.0
C2177 C 0.52153 0.91867 0.62329 0.0
H2178 H 0.23695 0.48877 0.65224 0.0
H2179 H 0.19921 0.53216 0.72479 0.0
H2180 H 0.15273 0.53498 0.69942 0.0
H2181 H 0.20128 0.53227 0.59947 0.0
H2182 H 0.19647 0.50399 0.57404 0.0
H2183 H 0.22633 0.50309 0.59862 0.0
H2184 H 0.20993 0.45377 0.61645 0.0
H2185 H 0.18004 0.45459 0.59189 0.0
H2186 H 0.17366 0.44921 0.62948 0.0
H2187 H 0.11045 0.53268 0.66696 0.0
H2188 H 0.07532 0.52909 0.62803 0.0
H2189 H 0.14064 0.49156 0.57326 0.0
C2190 C 0.21875 0.49854 0.66285 0.0
C2191 C 0.22139 0.50931 0.69105 0.0
C2192 C 0.19736 0.52267 0.70386 0.0
C2193 C 0.17095 0.52466 0.68942 0.0
C2194 C 0.16899 0.51374 0.66182 0.0
C2195 C 0.19227 0.50128 0.64841 0.0
C2196 C 0.18459 0.49289 0.6179 0.0
C2197 C 0.20328 0.50903 0.59623 0.0
C2198 C 0.18721 0.4607 0.61369 0.0
C2199 C 0.15331 0.50243 0.61642 0.0
C2200 C 0.14483 0.51412 0.64217 0.0
C2201 C 0.1169 0.52381 0.64662 0.0
C2202 C 0.09705 0.52164 0.62421 0.0
C2203 C 0.10511 0.51033 0.59726 0.0
C2204 C 0.13378 0.50062 0.5934 0.0
H2205 H 0.47071 0.17473 0.71134 0.0
H2206 H 0.52291 0.24143 0.67439 0.0
H2207 H 0.5399 0.20825 0.63713 0.0
H2208 H 0.52079 0.11577 0.69677 0.0
H2209 H 0.49231 0.09128 0.68812 0.0
H2210 H 0.48588 0.11952 0.71325 0.0
H2211 H 0.44261 0.13666 0.68286 0.0
H2212 H 0.44892 0.10846 0.65774 0.0
H2213 H 0.44795 0.14464 0.64557 0.0
H2214 H 0.54884 0.16923 0.60232 0.0
H2215 H 0.54851 0.12716 0.57121 0.0
H2216 H 0.49078 0.08458 0.63007 0.0
C2217 C 0.48612 0.18215 0.69568 0.0
C2218 C 0.49606 0.21054 0.69615 0.0
C2219 C 0.51554 0.21968 0.6748 0.0
C2220 C 0.52526 0.20097 0.65355 0.0
C2221 C 0.51519 0.17314 0.65375 0.0
C2222 C 0.49603 0.16369 0.67421 0.0
C2223 C 0.48744 0.13308 0.66854 0.0
C2224 C 0.49719 0.11377 0.69314 0.0
C2225 C 0.4548 0.13058 0.66337 0.0
C2226 C 0.5044 0.12699 0.64143 0.0
C2227 C 0.52036 0.15042 0.63346 0.0
C2228 C 0.53666 0.15069 0.6085 0.0
C2229 C 0.53628 0.12666 0.59092 0.0
C2230 C 0.51981 0.10246 0.59827 0.0
C2231 C 0.50404 0.1025 0.62418 0.0
H2232 H 0.85 0.48358 0.29379 0.0
H2233 H 0.77795 0.5239 0.33699 0.0
H2234 H 0.80715 0.52738 0.38089 0.0
H2235 H 0.87913 0.445 0.35533 0.0
H2236 H 0.91601 0.45136 0.34511 0.0
H2237 H 0.88841 0.4489 0.31814 0.0
H2238 H 0.9032 0.49819 0.29887 0.0
H2239 H 0.93061 0.50095 0.32598 0.0
H2240 H 0.90353 0.52813 0.32279 0.0
H2241 H 0.84473 0.52994 0.41855 0.0
H2242 H 0.8875 0.52959 0.44909 0.0
H2243 H 0.93715 0.49004 0.38115 0.0
C2244 C 0.8402 0.49302 0.3125 0.0
C2245 C 0.81151 0.50354 0.31178 0.0
C2246 C 0.79957 0.51529 0.33697 0.0
C2247 C 0.81612 0.5176 0.36197 0.0
C2248 C 0.84459 0.50808 0.36147 0.0
C2249 C 0.85653 0.49583 0.33749 0.0
C2250 C 0.88814 0.48868 0.34221 0.0
C2251 C 0.89321 0.45658 0.34007 0.0
C2252 C 0.9075 0.50496 0.32121 0.0
C2253 C 0.89222 0.49917 0.37258 0.0
C2254 C 0.86669 0.51008 0.3832 0.0
C2255 C 0.86476 0.52127 0.41055 0.0
C2256 C 0.88937 0.52097 0.42773 0.0
C2257 C 0.9159 0.5097 0.41766 0.0
C2258 C 0.91734 0.4989 0.38949 0.0
H2259 H 0.46514 0.84946 0.29855 0.0
H2260 H 0.51287 0.78081 0.33781 0.0
H2261 H 0.52725 0.81268 0.37722 0.0
H2262 H 0.51508 0.90684 0.31864 0.0
H2263 H 0.48658 0.93187 0.32559 0.0
H2264 H 0.48153 0.90434 0.29936 0.0
H2265 H 0.43555 0.88776 0.32582 0.0
H2266 H 0.44054 0.91517 0.35212 0.0
H2267 H 0.43767 0.87873 0.36318 0.0
H2268 H 0.53448 0.85061 0.4133 0.0
H2269 H 0.53381 0.89214 0.44488 0.0
H2270 H 0.4814 0.93773 0.38331 0.0
C2271 C 0.47902 0.84134 0.31523 0.0
C2272 C 0.48848 0.81274 0.31479 0.0
C2273 C 0.50592 0.8027 0.33741 0.0
C2274 C 0.51413 0.82066 0.35989 0.0
C2275 C 0.50458 0.84868 0.35965 0.0
C2276 C 0.48741 0.85906 0.33796 0.0
C2277 C 0.47915 0.88979 0.34371 0.0
C2278 C 0.49132 0.90937 0.32044 0.0
C2279 C 0.44628 0.89304 0.34637 0.0
C2280 C 0.49402 0.89487 0.37224 0.0
C2281 C 0.50864 0.8708 0.38081 0.0
C2282 C 0.52322 0.8696 0.40674 0.0
C2283 C 0.52258 0.89337 0.42461 0.0
C2284 C 0.50749 0.9183 0.41672 0.0
C2285 C 0.49337 0.91916 0.38986 0.0
H2286 H 0.24126 0.50597 0.36661 0.0
H2287 H 0.20238 0.48075 0.28636 0.0
H2288 H 0.15407 0.48305 0.3086 0.0
H2289 H 0.19447 0.46409 0.41084 0.0
H2290 H 0.1929 0.48955 0.43948 0.0
H2291 H 0.22423 0.4879 0.41683 0.0
H2292 H 0.21837 0.54113 0.40473 0.0
H2293 H 0.18705 0.54293 0.4274 0.0
H2294 H 0.18459 0.55371 0.39055 0.0
H2295 H 0.11001 0.48722 0.33985 0.0
H2296 H 0.07352 0.49144 0.37786 0.0
H2297 H 0.14094 0.51165 0.43898 0.0
C2298 C 0.22251 0.5012 0.35371 0.0
C2299 C 0.22551 0.49361 0.32457 0.0
C2300 C 0.20052 0.48714 0.3085 0.0
C2301 C 0.17302 0.48824 0.32102 0.0
C2302 C 0.1708 0.49555 0.34982 0.0
C2303 C 0.19487 0.50176 0.36605 0.0
C2304 C 0.18656 0.50775 0.39689 0.0
C2305 C 0.20036 0.48603 0.4172 0.0
C2306 C 0.19462 0.53819 0.40538 0.0
C2307 C 0.15408 0.50398 0.39545 0.0
C2308 C 0.14545 0.49711 0.36805 0.0
C2309 C 0.11655 0.49261 0.36137 0.0
C2310 C 0.09592 0.49512 0.3832 0.0
C2311 C 0.10415 0.5019 0.4116 0.0
C2312 C 0.13377 0.50636 0.41762 0.0
H2313 H 0.49421 0.16545 0.29084 0.0
H2314 H 0.51905 0.24118 0.33735 0.0
H2315 H 0.51823 0.2139 0.38239 0.0
H2316 H 0.44837 0.13364 0.34695 0.0
H2317 H 0.46045 0.09823 0.33898 0.0
H2318 H 0.45909 0.12449 0.31109 0.0
H2319 H 0.51298 0.11541 0.30003 0.0
H2320 H 0.51462 0.08941 0.3281 0.0
H2321 H 0.53923 0.11894 0.32821 0.0
H2322 H 0.51989 0.17765 0.42129 0.0
H2323 H 0.52089 0.13611 0.45246 0.0
H2324 H 0.49661 0.08236 0.38094 0.0
C2325 C 0.49916 0.17648 0.31052 0.0
C2326 C 0.50681 0.20565 0.31039 0.0
C2327 C 0.51275 0.21912 0.33677 0.0
C2328 C 0.51258 0.20367 0.36247 0.0
C2329 C 0.50631 0.17475 0.36153 0.0
C2330 C 0.49937 0.16132 0.33629 0.0
C2331 C 0.49506 0.12968 0.34093 0.0
C2332 C 0.46389 0.12101 0.33408 0.0
C2333 C 0.51677 0.11235 0.32327 0.0
C2334 C 0.50125 0.12728 0.3727 0.0
C2335 C 0.50748 0.15363 0.38407 0.0
C2336 C 0.51467 0.15701 0.41267 0.0
C2337 C 0.51517 0.13304 0.43024 0.0
C2338 C 0.50859 0.10563 0.41942 0.0
C2339 C 0.5017 0.10284 0.39004 0.0
H2340 H 0.72305 0.85319 0.48355 0.0
H2341 H 0.68871 0.78662 0.53773 0.0
H2342 H 0.64285 0.8132 0.54155 0.0
H2343 H 0.69392 0.91034 0.52406 0.0
H2344 H 0.68724 0.93229 0.49327 0.0
H2345 H 0.71607 0.90677 0.49262 0.0
H2346 H 0.69447 0.88411 0.44695 0.0
H2347 H 0.66561 0.90961 0.44745 0.0
H2348 H 0.65754 0.87229 0.44713 0.0
H2349 H 0.60095 0.84834 0.54039 0.0
H2350 H 0.56743 0.88861 0.53544 0.0
H2351 H 0.63126 0.93403 0.48562 0.0
C2352 C 0.70614 0.84408 0.49653 0.0
C2353 C 0.70994 0.81768 0.51063 0.0
C2354 C 0.68653 0.80653 0.5265 0.0
C2355 C 0.66041 0.82164 0.52895 0.0
C2356 C 0.65795 0.84797 0.51553 0.0
C2357 C 0.68029 0.85908 0.49968 0.0
C2358 C 0.67292 0.88835 0.48839 0.0
C2359 C 0.69378 0.91075 0.5003 0.0
C2360 C 0.67261 0.88859 0.45553 0.0
C2361 C 0.64286 0.89218 0.50043 0.0
C2362 C 0.63447 0.86851 0.51574 0.0
C2363 C 0.60739 0.86691 0.52847 0.0
C2364 C 0.58844 0.88994 0.52545 0.0
C2365 C 0.59664 0.91459 0.51013 0.0
C2366 C 0.62437 0.91565 0.49762 0.0
H2367 H 0.71851 0.17377 0.53958 0.0
H2368 H 0.69106 0.23066 0.47198 0.0
H2369 H 0.6491 0.19969 0.46271 0.0
H2370 H 0.70241 0.11012 0.50209 0.0
H2371 H 0.69077 0.09108 0.53339 0.0
H2372 H 0.71701 0.119 0.53665 0.0
H2373 H 0.6847 0.14459 0.57371 0.0
H2374 H 0.65853 0.11658 0.57081 0.0
H2375 H 0.64785 0.15276 0.56467 0.0
H2376 H 0.61087 0.16146 0.45987 0.0
H2377 H 0.57869 0.1201 0.46445 0.0
H2378 H 0.63342 0.08582 0.53106 0.0
C2379 C 0.70381 0.17985 0.52272 0.0
C2380 C 0.70845 0.20481 0.50638 0.0
C2381 C 0.68802 0.21201 0.48507 0.0
C2382 C 0.66423 0.19434 0.47946 0.0
C2383 C 0.66113 0.1694 0.49522 0.0
C2384 C 0.68033 0.16223 0.5165 0.0
C2385 C 0.67277 0.13379 0.52973 0.0
C2386 C 0.6972 0.11223 0.52519 0.0
C2387 C 0.66553 0.13714 0.56162 0.0
C2388 C 0.64626 0.12591 0.51251 0.0
C2389 C 0.63983 0.14689 0.49286 0.0
C2390 C 0.61584 0.14493 0.47509 0.0
C2391 C 0.59773 0.1213 0.47781 0.0
C2392 C 0.60375 0.09958 0.49785 0.0
C2393 C 0.62862 0.10178 0.51516 0.0
H2394 H 0.84139 0.7088 0.54739 0.0
H2395 H 0.78224 0.67907 0.48229 0.0
H2396 H 0.81852 0.64407 0.46626 0.0
H2397 H 0.90834 0.69965 0.50533 0.0
H2398 H 0.92895 0.68784 0.53571 0.0
H2399 H 0.89937 0.71211 0.54065 0.0
H2400 H 0.87611 0.67761 0.57691 0.0
H2401 H 0.90562 0.65333 0.57206 0.0
H2402 H 0.86913 0.64153 0.56636 0.0
H2403 H 0.85927 0.61003 0.45969 0.0
H2404 H 0.90182 0.57891 0.46284 0.0
H2405 H 0.93604 0.6303 0.53169 0.0
C2406 C 0.83634 0.69528 0.52939 0.0
C2407 C 0.80911 0.69705 0.51566 0.0
C2408 C 0.80308 0.67846 0.49271 0.0
C2409 C 0.82356 0.65849 0.48352 0.0
C2410 C 0.85011 0.65724 0.49751 0.0
C2411 C 0.85665 0.67517 0.51992 0.0
C2412 C 0.88631 0.66836 0.53213 0.0
C2413 C 0.90697 0.69349 0.52822 0.0
C2414 C 0.88415 0.65969 0.56374 0.0
C2415 C 0.89516 0.64344 0.51346 0.0
C2416 C 0.87391 0.63757 0.49357 0.0
C2417 C 0.87616 0.61467 0.47494 0.0
C2418 C 0.90041 0.59706 0.47692 0.0
C2419 C 0.92239 0.60232 0.49725 0.0
C2420 C 0.91992 0.62615 0.51548 0.0
H2421 H 0.30263 0.84616 0.46895 0.0
H2422 H 0.33264 0.78771 0.53401 0.0
H2423 H 0.37402 0.81919 0.54373 0.0
H2424 H 0.37403 0.86948 0.44372 0.0
H2425 H 0.36224 0.90549 0.43864 0.0
H2426 H 0.337 0.87678 0.43465 0.0
H2427 H 0.30368 0.90039 0.47214 0.0
H2428 H 0.32907 0.92887 0.47669 0.0
H2429 H 0.31766 0.90842 0.50716 0.0
H2430 H 0.40933 0.85878 0.54952 0.0
H2431 H 0.43967 0.90155 0.54745 0.0
H2432 H 0.38647 0.9356 0.47969 0.0
C2433 C 0.31814 0.83973 0.48497 0.0
C2434 C 0.31431 0.81435 0.50076 0.0
C2435 C 0.33525 0.80672 0.52134 0.0
C2436 C 0.35866 0.82466 0.52723 0.0
C2437 C 0.36089 0.85013 0.51228 0.0
C2438 C 0.34147 0.85749 0.49125 0.0
C2439 C 0.34825 0.88656 0.47903 0.0
C2440 C 0.35584 0.88444 0.44712 0.0
C2441 C 0.32317 0.90728 0.48406 0.0
C2442 C 0.37437 0.89461 0.49674 0.0
C2443 C 0.38121 0.87319 0.51576 0.0
C2444 C 0.40431 0.8755 0.53453 0.0
C2445 C 0.42141 0.89987 0.53324 0.0
C2446 C 0.41548 0.92174 0.51345 0.0
C2447 C 0.39127 0.91934 0.49528 0.0
H2448 H 0.23862 0.36973 0.5093 0.0
H2449 H 0.19921 0.29 0.53305 0.0
H2450 H 0.15089 0.31181 0.52895 0.0
H2451 H 0.19017 0.41291 0.55019 0.0
H2452 H 0.18945 0.44155 0.52479 0.0
H2453 H 0.22078 0.41919 0.52735 0.0
H2454 H 0.21702 0.40766 0.47332 0.0
H2455 H 0.18572 0.43008 0.47059 0.0
H2456 H 0.18379 0.39366 0.45922 0.0
H2457 H 0.10674 0.3428 0.52336 0.0
H2458 H 0.07044 0.38067 0.51848 0.0
H2459 H 0.13869 0.44112 0.50078 0.0
C2460 C 0.21976 0.35684 0.51333 0.0
C2461 C 0.22261 0.32798 0.521 0.0
C2462 C 0.19747 0.31192 0.52654 0.0
C2463 C 0.16996 0.3242 0.52444 0.0
C2464 C 0.16787 0.35274 0.51705 0.0
C2465 C 0.19212 0.36893 0.51176 0.0
C2466 C 0.18397 0.3995 0.50571 0.0
C2467 C 0.19686 0.41946 0.52836 0.0
C2468 C 0.19317 0.40823 0.47541 0.0
C2469 C 0.1514 0.39793 0.50831 0.0
C2470 C 0.14254 0.37075 0.51471 0.0
C2471 C 0.11347 0.36415 0.51831 0.0
C2472 C 0.09295 0.38588 0.51544 0.0
C2473 C 0.10149 0.41405 0.50924 0.0
C2474 C 0.13123 0.41992 0.50556 0.0
H2475 H 0.30904 0.1796 0.4729 0.0
H2476 H 0.33846 0.24002 0.53649 0.0
H2477 H 0.38131 0.21002 0.54542 0.0
H2478 H 0.32614 0.11892 0.51329 0.0
H2479 H 0.33653 0.09774 0.48293 0.0
H2480 H 0.31046 0.12567 0.47871 0.0
H2481 H 0.34176 0.14842 0.43903 0.0
H2482 H 0.36771 0.12031 0.44292 0.0
H2483 H 0.37898 0.15669 0.44629 0.0
H2484 H 0.41971 0.17176 0.54902 0.0
H2485 H 0.45067 0.12922 0.54667 0.0
H2486 H 0.39297 0.09173 0.48438 0.0
C2487 C 0.32444 0.18671 0.48872 0.0
C2488 C 0.3201 0.21224 0.50417 0.0
C2489 C 0.34132 0.22084 0.52413 0.0
C2490 C 0.36561 0.20376 0.52953 0.0
C2491 C 0.36832 0.17809 0.51488 0.0
C2492 C 0.3483 0.16968 0.49481 0.0
C2493 C 0.35504 0.1404 0.48321 0.0
C2494 C 0.33059 0.11945 0.48995 0.0
C2495 C 0.36125 0.14154 0.45095 0.0
C2496 C 0.38199 0.13344 0.50002 0.0
C2497 C 0.38949 0.15559 0.51793 0.0
C2498 C 0.41396 0.15434 0.53512 0.0
C2499 C 0.43137 0.13008 0.53366 0.0
C2500 C 0.42404 0.10712 0.51553 0.0
C2501 C 0.39882 0.10875 0.49876 0.0
H2502 H 0.83694 0.3119 0.47087 0.0
H2503 H 0.7706 0.35254 0.52158 0.0
H2504 H 0.80536 0.38972 0.53586 0.0
H2505 H 0.89778 0.32767 0.51907 0.0
H2506 H 0.92262 0.33403 0.49017 0.0
H2507 H 0.89321 0.30954 0.48547 0.0
H2508 H 0.87608 0.33763 0.44112 0.0
H2509 H 0.90538 0.36219 0.44571 0.0
H2510 H 0.86881 0.37499 0.44442 0.0
H2511 H 0.8459 0.42416 0.54184 0.0
H2512 H 0.88966 0.45358 0.53989 0.0
H2513 H 0.93116 0.3909 0.48597 0.0
C2514 C 0.82991 0.32841 0.48535 0.0
C2515 C 0.80108 0.32919 0.49544 0.0
C2516 C 0.7926 0.35138 0.51393 0.0
C2517 C 0.8122 0.37258 0.52209 0.0
C2518 C 0.84035 0.37135 0.51162 0.0
C2519 C 0.8493 0.34979 0.49375 0.0
C2520 C 0.88051 0.35419 0.48467 0.0
C2521 C 0.89966 0.32991 0.49549 0.0
C2522 C 0.88282 0.35744 0.45205 0.0
C2523 C 0.88756 0.38183 0.49987 0.0
C2524 C 0.86401 0.39123 0.51532 0.0
C2525 C 0.86453 0.41685 0.53004 0.0
C2526 C 0.88953 0.43348 0.52872 0.0
C2527 C 0.914 0.42456 0.51293 0.0
C2528 C 0.91306 0.39809 0.49863 0.0
H2529 H 0.19066 0.70417 0.46283 0.0
H2530 H 0.25324 0.66736 0.52068 0.0
H2531 H 0.21764 0.63097 0.53486 0.0
H2532 H 0.12647 0.69121 0.50735 0.0
H2533 H 0.10389 0.68274 0.47718 0.0
H2534 H 0.13352 0.70707 0.47303 0.0
H2535 H 0.15371 0.67615 0.432 0.0
H2536 H 0.12442 0.65152 0.43624 0.0
H2537 H 0.16111 0.63921 0.43838 0.0
H2538 H 0.17711 0.5969 0.54023 0.0
H2539 H 0.13366 0.56716 0.5373 0.0
H2540 H 0.09581 0.62576 0.47657 0.0
C2541 C 0.19667 0.68862 0.47874 0.0
C2542 C 0.2247 0.68855 0.49081 0.0
C2543 C 0.23188 0.66777 0.51135 0.0
C2544 C 0.2118 0.64709 0.5195 0.0
C2545 C 0.18451 0.64749 0.50699 0.0
C2546 C 0.17679 0.66775 0.48714 0.0
C2547 C 0.14635 0.66256 0.47618 0.0
C2548 C 0.12638 0.68738 0.48391 0.0
C2549 C 0.14642 0.65703 0.44378 0.0
C2550 C 0.13834 0.63601 0.4927 0.0
C2551 C 0.16075 0.62781 0.51036 0.0
C2552 C 0.15933 0.60326 0.5267 0.0
C2553 C 0.13456 0.58644 0.52479 0.0
C2554 C 0.11128 0.59416 0.50679 0.0
C2555 C 0.11306 0.61956 0.49084 0.0
loop_
_geom_bond_atom_site_label_1
_geom_bond_atom_site_label_2
_geom_bond_distance
_geom_bond_site_symmetry_2
_ccdc_geom_bond_type
H0 C7 0.929 . S
H1 C10 0.930 . S
H2 C12 0.929 . S
H3 C4 0.969 1_655 S
C4 H3 0.969 1_455 S
C4 O5 1.550 . S
C4 H6 0.973 . S
O5 C4 1.550 . S
O5 C11 1.412 . S
H6 C4 0.973 . S
C7 H0 0.929 . S
C7 C8 1.400 . S
C7 C9 1.364 . S
C8 C7 1.400 . S
C8 C12 1.377 . S
C9 C7 1.364 . S
C9 C10 1.374 . S
C10 H1 0.930 . S
C10 C9 1.374 . S
C10 C11 1.383 . S
C11 O5 1.412 . S
C11 C10 1.383 . S
C11 C12 1.394 . S
C12 H2 0.929 . S
C12 C8 1.377 . S
C12 C11 1.394 . S
H13 C20 0.928 . S
H14 C23 0.930 1_565 S
H15 C25 0.928 . S
H16 C17 0.969 . S
C17 H16 0.969 . S
C17 O18 1.550 1_545 S
C17 H19 0.973 1_545 S
O18 C17 1.550 1_565 S
O18 C24 1.412 1_565 S
H19 C17 0.973 1_565 S
C20 H13 0.928 . S
C20 C21 1.400 . S
C20 C22 1.364 . S
C21 C20 1.400 . S
C21 C25 1.378 . S
C22 C20 1.364 . S
C22 C23 1.374 . S
C23 H14 0.930 1_545 S
C23 C22 1.374 . S
C23 C24 1.383 . S
C24 O18 1.412 1_545 S
C24 C23 1.383 . S
C24 C25 1.395 . S
C25 H15 0.928 . S
C25 C21 1.378 . S
C25 C24 1.395 . S
H26 C33 0.929 . S
H27 C36 0.930 . S
H28 C38 0.929 . S
H29 C30 0.969 1_655 S
C30 H29 0.969 1_455 S
C30 O31 1.550 . S
C30 H32 0.973 . S
O31 C30 1.550 . S
O31 C37 1.412 . S
H32 C30 0.973 . S
C33 H26 0.929 . S
C33 C34 1.400 . S
C33 C35 1.364 . S
C34 C33 1.400 . S
C34 C38 1.377 . S
C35 C33 1.364 . S
C35 C36 1.374 . S
C36 H27 0.930 . S
C36 C35 1.374 . S
C36 C37 1.383 . S
C37 O31 1.412 . S
C37 C36 1.383 . S
C37 C38 1.394 . S
C38 H28 0.929 . S
C38 C34 1.377 . S
C38 C37 1.394 . S
H39 C46 0.928 . S
H40 C49 0.930 1_565 S
H41 C51 0.928 . S
H42 C43 0.969 . S
C43 H42 0.969 . S
C43 O44 1.550 1_545 S
C43 H45 0.973 1_545 S
O44 C43 1.550 1_565 S
O44 C50 1.412 1_565 S
H45 C43 0.973 1_565 S
C46 H39 0.928 . S
C46 C47 1.400 . S
C46 C48 1.364 . S
C47 C46 1.400 . S
C47 C51 1.378 . S
C48 C46 1.364 . S
C48 C49 1.374 . S
C49 H40 0.930 1_545 S
C49 C48 1.374 . S
C49 C50 1.384 . S
C50 O44 1.412 1_545 S
C50 C49 1.384 . S
C50 C51 1.396 . S
C51 H41 0.928 . S
C51 C47 1.378 . S
C51 C50 1.396 . S
H52 C59 0.929 . S
H53 C62 0.930 . S
H54 C64 0.929 . S
H55 C56 0.969 1_655 S
C56 H55 0.969 1_455 S
C56 O57 1.550 . S
C56 H58 0.973 . S
O57 C56 1.550 . S
O57 C63 1.412 . S
H58 C56 0.973 . S
C59 H52 0.929 . S
C59 C60 1.400 . S
C59 C61 1.364 . S
C60 C59 1.400 . S
C60 C64 1.377 . S
C61 C59 1.364 . S
C61 C62 1.374 . S
C62 H53 0.930 . S
C62 C61 1.374 . S
C62 C63 1.383 . S
C63 O57 1.412 . S
C63 C62 1.383 . S
C63 C64 1.394 . S
C64 H54 0.929 . S
C64 C60 1.377 . S
C64 C63 1.394 . S
H65 C72 0.928 1_545 S
H66 C75 0.931 . S
H67 C77 0.928 1_545 S
H68 C69 0.969 . S
C69 H68 0.969 . S
C69 O70 1.550 1_565 S
C69 H71 0.973 1_565 S
O70 C69 1.550 1_545 S
O70 C76 1.404 1_545 S
H71 C69 0.973 1_545 S
C72 H65 0.928 1_565 S
C72 C73 1.400 . S
C72 C74 1.364 . S
C73 C72 1.400 . S
C73 C77 1.377 . S
C74 C72 1.364 . S
C74 C75 1.374 1_565 S
C75 H66 0.931 . S
C75 C74 1.374 1_545 S
C75 C76 1.382 1_545 S
C76 O70 1.404 1_565 S
C76 C75 1.382 1_565 S
C76 C77 1.394 . S
C77 H67 0.928 1_565 S
C77 C73 1.377 . S
C77 C76 1.394 . S
H78 C85 0.929 . S
H79 C88 0.930 . S
H80 C90 0.929 . S
H81 C82 0.969 1_655 S
C82 H81 0.969 1_455 S
C82 O83 1.550 . S
C82 H84 0.973 . S
O83 C82 1.550 . S
O83 C89 1.412 . S
H84 C82 0.973 . S
C85 H78 0.929 . S
C85 C86 1.400 . S
C85 C87 1.364 . S
C86 C85 1.400 . S
C86 C90 1.377 . S
C87 C85 1.364 . S
C87 C88 1.374 . S
C88 H79 0.930 . S
C88 C87 1.374 . S
C88 C89 1.383 . S
C89 O83 1.412 . S
C89 C88 1.383 . S
C89 C90 1.394 . S
C90 H80 0.929 . S
C90 C86 1.377 . S
C90 C89 1.394 . S
H91 C98 0.928 1_545 S
H92 C101 0.931 . S
H93 C103 0.928 1_545 S
H94 C95 0.969 . S
C95 H94 0.969 . S
C95 O96 1.550 1_565 S
C95 H97 0.973 1_565 S
O96 C95 1.550 1_545 S
O96 C102 1.404 1_545 S
H97 C95 0.973 1_545 S
C98 H91 0.928 1_565 S
C98 C99 1.400 . S
C98 C100 1.364 . S
C99 C98 1.400 . S
C99 C103 1.377 . S
C100 C98 1.364 . S
C100 C101 1.374 1_565 S
C101 H92 0.931 . S
C101 C100 1.374 1_545 S
C101 C102 1.382 1_545 S
C102 O96 1.404 1_565 S
C102 C101 1.382 1_565 S
C102 C103 1.394 . S
C103 H93 0.928 1_565 S
C103 C99 1.377 . S
C103 C102 1.394 . S
H104 C111 0.928 1_556 S
H105 C114 0.930 . S
H106 C116 0.928 1_556 S
H107 C108 0.969 . S
C108 H107 0.969 . S
C108 O109 1.550 1_554 S
C108 H110 0.973 1_554 S
O109 C108 1.550 1_556 S
O109 C115 1.402 1_556 S
H110 C108 0.973 1_556 S
C111 H104 0.928 1_554 S
C111 C112 1.400 . S
C111 C113 1.364 . S
C112 C111 1.400 . S
C112 C116 1.377 . S
C113 C111 1.364 . S
C113 C114 1.374 1_554 S
C114 H105 0.930 . S
C114 C113 1.374 1_556 S
C114 C115 1.382 1_556 S
C115 O109 1.402 1_554 S
C115 C114 1.382 1_554 S
C115 C116 1.394 . S
C116 H106 0.928 1_554 S
C116 C112 1.377 . S
C116 C115 1.394 . S
H117 C124 0.928 . S
H118 C127 0.932 . S
H119 C129 0.928 . S
H120 C121 0.969 . S
C121 H120 0.969 . S
C121 O122 1.550 1_556 S
C121 H123 0.973 1_556 S
O122 C121 1.550 1_554 S
O122 C128 1.410 1_554 S
H123 C121 0.973 1_554 S
C124 H117 0.928 . S
C124 C125 1.400 . S
C124 C126 1.364 . S
C125 C124 1.400 . S
C125 C129 1.377 . S
C126 C124 1.364 . S
C126 C127 1.374 . S
C127 H118 0.932 . S
C127 C126 1.374 . S
C127 C128 1.382 1_554 S
C128 O122 1.410 1_556 S
C128 C127 1.382 1_556 S
C128 C129 1.394 1_556 S
C129 H119 0.928 . S
C129 C125 1.377 . S
C129 C128 1.394 1_554 S
H130 C137 0.928 1_554 S
H131 C140 0.931 . S
H132 C142 0.928 1_554 S
H133 C134 0.969 . S
C134 H133 0.969 . S
C134 O135 1.550 1_556 S
C134 H136 0.973 1_556 S
O135 C134 1.550 1_554 S
O135 C141 1.404 1_554 S
H136 C134 0.973 1_554 S
C137 H130 0.928 1_556 S
C137 C138 1.400 . S
C137 C139 1.364 . S
C138 C137 1.400 . S
C138 C142 1.377 . S
C139 C137 1.364 . S
C139 C140 1.374 1_556 S
C140 H131 0.931 . S
C140 C139 1.374 1_554 S
C140 C141 1.382 1_554 S
C141 O135 1.404 1_556 S
C141 C140 1.382 1_556 S
C141 C142 1.394 . S
C142 H132 0.928 1_556 S
C142 C138 1.377 . S
C142 C141 1.394 . S
H143 C150 0.928 . S
H144 C153 0.930 1_556 S
H145 C155 0.928 . S
H146 C147 0.969 . S
C147 H146 0.969 . S
C147 O148 1.550 1_554 S
C147 H149 0.973 1_554 S
O148 C147 1.550 1_556 S
O148 C154 1.412 1_556 S
H149 C147 0.973 1_556 S
C150 H143 0.928 . S
C150 C151 1.400 . S
C150 C152 1.364 . S
C151 C150 1.400 . S
C151 C155 1.378 . S
C152 C150 1.364 . S
C152 C153 1.374 . S
C153 H144 0.930 1_554 S
C153 C152 1.374 . S
C153 C154 1.383 . S
C154 O148 1.412 1_554 S
C154 C153 1.383 . S
C154 C155 1.395 . S
C155 H145 0.928 . S
C155 C151 1.378 . S
C155 C154 1.395 . S
H156 C163 0.929 . S
H157 C166 0.930 . S
H158 C168 0.929 . S
H159 C160 0.969 . S
C160 H159 0.969 . S
C160 O161 1.550 . S
C160 H162 0.973 . S
O161 C160 1.550 . S
O161 C167 1.412 . S
H162 C160 0.973 . S
C163 H156 0.929 . S
C163 C164 1.400 . S
C163 C165 1.364 . S
C164 C163 1.400 . S
C164 C168 1.377 . S
C165 C163 1.364 . S
C165 C166 1.374 . S
C166 H157 0.930 . S
C166 C165 1.374 . S
C166 C167 1.383 . S
C167 O161 1.412 . S
C167 C166 1.383 . S
C167 C168 1.394 . S
C168 H158 0.929 . S
C168 C164 1.377 . S
C168 C167 1.394 . S
H169 C176 0.929 . S
H170 C179 0.930 . S
H171 C181 0.929 . S
H172 C173 0.969 . S
C173 H172 0.969 . S
C173 O174 1.550 . S
C173 H175 0.973 . S
O174 C173 1.550 . S
O174 C180 1.412 . S
H175 C173 0.973 . S
C176 H169 0.929 . S
C176 C177 1.400 . S
C176 C178 1.364 . S
C177 C176 1.400 . S
C177 C181 1.377 . S
C178 C176 1.364 . S
C178 C179 1.374 . S
C179 H170 0.930 . S
C179 C178 1.374 . S
C179 C180 1.383 . S
C180 O174 1.412 . S
C180 C179 1.383 . S
C180 C181 1.394 . S
C181 H171 0.929 . S
C181 C177 1.377 . S
C181 C180 1.394 . S
H182 C189 0.929 . S
H183 C192 0.930 . S
H184 C194 0.929 . S
H185 C186 0.969 . S
C186 H185 0.969 . S
C186 O187 1.550 . S
C186 H188 0.973 . S
O187 C186 1.550 . S
O187 C193 1.412 . S
H188 C186 0.973 . S
C189 H182 0.929 . S
C189 C190 1.400 . S
C189 C191 1.364 . S
C190 C189 1.400 . S
C190 C194 1.377 . S
C191 C189 1.364 . S
C191 C192 1.374 . S
C192 H183 0.930 . S
C192 C191 1.374 . S
C192 C193 1.383 . S
C193 O187 1.412 . S
C193 C192 1.383 . S
C193 C194 1.394 . S
C194 H184 0.929 . S
C194 C190 1.377 . S
C194 C193 1.394 . S
H195 C202 0.929 . S
H196 C205 0.930 . S
H197 C207 0.929 . S
H198 C199 0.969 . S
C199 H198 0.969 . S
C199 O200 1.550 . S
C199 H201 0.973 . S
O200 C199 1.550 . S
O200 C206 1.412 . S
H201 C199 0.973 . S
C202 H195 0.929 . S
C202 C203 1.400 . S
C202 C204 1.364 . S
C203 C202 1.400 . S
C203 C207 1.377 . S
C204 C202 1.364 . S
C204 C205 1.374 . S
C205 H196 0.930 . S
C205 C204 1.374 . S
C205 C206 1.383 . S
C206 O200 1.412 . S
C206 C205 1.383 . S
C206 C207 1.394 . S
C207 H197 0.929 . S
C207 C203 1.377 . S
C207 C206 1.394 . S
H208 C215 0.929 . S
H209 C218 0.930 . S
H210 C220 0.929 . S
H211 C212 0.969 . S
C212 H211 0.969 . S
C212 O213 1.550 . S
C212 H214 0.973 . S
O213 C212 1.550 . S
O213 C219 1.412 . S
H214 C212 0.973 . S
C215 H208 0.929 . S
C215 C216 1.400 . S
C215 C217 1.364 . S
C216 C215 1.400 . S
C216 C220 1.377 . S
C217 C215 1.364 . S
C217 C218 1.374 . S
C218 H209 0.930 . S
C218 C217 1.374 . S
C218 C219 1.383 . S
C219 O213 1.412 . S
C219 C218 1.383 . S
C219 C220 1.394 . S
C220 H210 0.929 . S
C220 C216 1.377 . S
C220 C219 1.394 . S
H221 C228 0.929 . S
H222 C231 0.930 . S
H223 C233 0.929 . S
H224 C225 0.969 . S
C225 H224 0.969 . S
C225 O226 1.550 . S
C225 H227 0.973 . S
O226 C225 1.550 . S
O226 C232 1.412 . S
H227 C225 0.973 . S
C228 H221 0.929 . S
C228 C229 1.400 . S
C228 C230 1.364 . S
C229 C228 1.400 . S
C229 C233 1.377 . S
C230 C228 1.364 . S
C230 C231 1.374 . S
C231 H222 0.930 . S
C231 C230 1.374 . S
C231 C232 1.383 . S
C232 O226 1.412 . S
C232 C231 1.383 . S
C232 C233 1.394 . S
C233 H223 0.929 . S
C233 C229 1.377 . S
C233 C232 1.394 . S
H234 C241 0.929 . S
H235 C244 0.930 . S
H236 C246 0.929 . S
H237 C238 0.969 . S
C238 H237 0.969 . S
C238 O239 1.550 . S
C238 H240 0.973 . S
O239 C238 1.550 . S
O239 C245 1.412 . S
H240 C238 0.973 . S
C241 H234 0.929 . S
C241 C242 1.400 . S
C241 C243 1.364 . S
C242 C241 1.400 . S
C242 C246 1.377 . S
C243 C241 1.364 . S
C243 C244 1.374 . S
C244 H235 0.930 . S
C244 C243 1.374 . S
C244 C245 1.383 . S
C245 O239 1.412 . S
C245 C244 1.383 . S
C245 C246 1.394 . S
C246 H236 0.929 . S
C246 C242 1.377 . S
C246 C245 1.394 . S
H247 C254 0.929 . S
H248 C257 0.930 . S
H249 C259 0.929 . S
H250 C251 0.969 . S
C251 H250 0.969 . S
C251 O252 1.550 . S
C251 H253 0.973 . S
O252 C251 1.550 . S
O252 C258 1.412 . S
H253 C251 0.973 . S
C254 H247 0.929 . S
C254 C255 1.400 . S
C254 C256 1.364 . S
C255 C254 1.400 . S
C255 C259 1.377 . S
C256 C254 1.364 . S
C256 C257 1.374 . S
C257 H248 0.930 . S
C257 C256 1.374 . S
C257 C258 1.383 . S
C258 O252 1.412 . S
C258 C257 1.383 . S
C258 C259 1.394 . S
C259 H249 0.929 . S
C259 C255 1.377 . S
C259 C258 1.394 . S
H260 C267 0.929 . S
H261 C270 0.930 . S
H262 C272 0.929 . S
H263 C264 0.969 . S
C264 H263 0.969 . S
C264 O265 1.550 . S
C264 H266 0.973 . S
O265 C264 1.550 . S
O265 C271 1.412 . S
H266 C264 0.973 . S
C267 H260 0.929 . S
C267 C268 1.400 . S
C267 C269 1.364 . S
C268 C267 1.400 . S
C268 C272 1.377 . S
C269 C267 1.364 . S
C269 C270 1.374 . S
C270 H261 0.930 . S
C270 C269 1.374 . S
C270 C271 1.383 . S
C271 O265 1.412 . S
C271 C270 1.383 . S
C271 C272 1.394 . S
C272 H262 0.929 . S
C272 C268 1.377 . S
C272 C271 1.394 . S
H273 C280 0.929 . S
H274 C283 0.930 . S
H275 C285 0.929 . S
H276 C277 0.969 . S
C277 H276 0.969 . S
C277 O278 1.550 . S
C277 H279 0.973 . S
O278 C277 1.550 . S
O278 C284 1.412 . S
H279 C277 0.973 . S
C280 H273 0.929 . S
C280 C281 1.400 . S
C280 C282 1.364 . S
C281 C280 1.400 . S
C281 C285 1.377 . S
C282 C280 1.364 . S
C282 C283 1.374 . S
C283 H274 0.930 . S
C283 C282 1.374 . S
C283 C284 1.383 . S
C284 O278 1.412 . S
C284 C283 1.383 . S
C284 C285 1.394 . S
C285 H275 0.929 . S
C285 C281 1.377 . S
C285 C284 1.394 . S
H286 C293 0.929 . S
H287 C296 0.930 . S
H288 C298 0.929 . S
H289 C290 0.969 . S
C290 H289 0.969 . S
C290 O291 1.550 . S
C290 H292 0.973 . S
O291 C290 1.550 . S
O291 C297 1.412 . S
H292 C290 0.973 . S
C293 H286 0.929 . S
C293 C294 1.400 . S
C293 C295 1.364 . S
C294 C293 1.400 . S
C294 C298 1.377 . S
C295 C293 1.364 . S
C295 C296 1.374 . S
C296 H287 0.930 . S
C296 C295 1.374 . S
C296 C297 1.383 . S
C297 O291 1.412 . S
C297 C296 1.383 . S
C297 C298 1.394 . S
C298 H288 0.929 . S
C298 C294 1.377 . S
C298 C297 1.394 . S
H299 C306 0.929 . S
H300 C309 0.930 . S
H301 C311 0.929 . S
H302 C303 0.969 . S
C303 H302 0.969 . S
C303 O304 1.550 . S
C303 H305 0.973 . S
O304 C303 1.550 . S
O304 C310 1.412 . S
H305 C303 0.973 . S
C306 H299 0.929 . S
C306 C307 1.400 . S
C306 C308 1.364 . S
C307 C306 1.400 . S
C307 C311 1.377 . S
C308 C306 1.364 . S
C308 C309 1.374 . S
C309 H300 0.930 . S
C309 C308 1.374 . S
C309 C310 1.383 . S
C310 O304 1.412 . S
C310 C309 1.383 . S
C310 C311 1.394 . S
C311 H301 0.929 . S
C311 C307 1.377 . S
C311 C310 1.394 . S
C312 O338 1.283 . S
C312 O356 1.283 . S
C313 O339 1.283 . S
C313 O354 1.283 . S
C314 O340 1.283 . S
C314 O357 1.283 . S
C315 O341 1.283 . S
C315 O355 1.283 . S
C316 O342 1.283 . S
C316 O351 1.283 . S
C317 O343 1.283 . S
C317 O353 1.283 . S
C318 O344 1.283 . S
C318 O350 1.283 . S
C319 O345 1.283 . S
C319 O352 1.283 . S
C320 O346 1.283 . S
C320 O361 1.283 . S
C321 O347 1.283 . S
C321 O359 1.283 . S
C322 O348 1.283 . S
C322 O360 1.283 . S
C323 O349 1.283 . S
C323 O358 1.283 . S
Eu324 O325 2.370 1_455 S
Eu324 O326 2.370 . S
Eu324 O329 2.370 1_455 S
Eu324 O330 2.370 . S
Eu324 O338 2.363 . S
Eu324 O339 2.363 . S
Eu324 O352 2.363 . S
Eu324 O353 2.363 1_455 S
O325 Eu324 2.370 1_655 S
O325 Eu327 2.365 1_565 S
O325 Eu332 2.364 1_665 S
O326 Eu324 2.370 . S
O326 Eu328 2.365 1_565 S
O326 Eu331 2.366 1_565 S
Eu327 O325 2.365 1_545 S
Eu327 O329 2.365 1_545 S
Eu327 O333 2.375 . S
Eu327 O334 2.375 . S
Eu327 O342 2.371 . S
Eu327 O343 2.355 1_545 S
Eu327 O358 2.363 . S
Eu327 O359 2.363 . S
Eu328 O326 2.365 1_545 S
Eu328 O330 2.365 1_545 S
Eu328 O335 2.375 . S
Eu328 O336 2.375 . S
Eu328 O344 2.371 . S
Eu328 O345 2.355 1_545 S
Eu328 O360 2.363 . S
Eu328 O361 2.363 . S
O329 Eu324 2.370 1_655 S
O329 Eu327 2.365 1_565 S
O329 Eu331 2.366 1_665 S
O330 Eu324 2.370 . S
O330 Eu328 2.365 1_565 S
O330 Eu332 2.364 1_565 S
Eu331 O326 2.366 1_545 S
Eu331 O329 2.366 1_445 S
Eu331 O333 2.374 1_455 S
Eu331 O336 2.374 . S
Eu331 O348 2.363 . S
Eu331 O349 2.363 1_455 S
Eu331 O356 2.356 1_545 S
Eu331 O357 2.370 . S
Eu332 O325 2.364 1_445 S
Eu332 O330 2.364 1_545 S
Eu332 O334 2.376 1_455 S
Eu332 O335 2.376 . S
Eu332 O346 2.363 . S
Eu332 O347 2.363 1_455 S
Eu332 O354 2.353 1_545 S
Eu332 O355 2.373 . S
O333 Eu327 2.375 . S
O333 Eu331 2.374 1_655 S
O333 Eu337 2.370 1_655 S
O334 Eu327 2.375 . S
O334 Eu332 2.376 1_655 S
O334 Eu337 2.370 1_655 S
O335 Eu328 2.375 . S
O335 Eu332 2.376 . S
O335 Eu337 2.370 . S
O336 Eu328 2.375 . S
O336 Eu331 2.374 . S
O336 Eu337 2.370 . S
Eu337 O333 2.370 1_455 S
Eu337 O334 2.370 1_455 S
Eu337 O335 2.370 . S
Eu337 O336 2.370 . S
Eu337 O340 2.363 . S
Eu337 O341 2.363 . S
Eu337 O350 2.363 . S
Eu337 O351 2.363 1_455 S
O338 C312 1.283 . S
O338 Eu324 2.363 . S
O339 C313 1.283 . S
O339 Eu324 2.363 . S
O340 C314 1.283 . S
O340 Eu337 2.363 . S
O341 C315 1.283 . S
O341 Eu337 2.363 . S
O342 C316 1.283 . S
O342 Eu327 2.371 . S
O343 C317 1.283 . S
O343 Eu327 2.355 1_565 S
O344 C318 1.283 . S
O344 Eu328 2.371 . S
O345 C319 1.283 . S
O345 Eu328 2.355 1_565 S
O346 C320 1.283 . S
O346 Eu332 2.363 . S
O347 C321 1.283 . S
O347 Eu332 2.363 1_655 S
O348 C322 1.283 . S
O348 Eu331 2.363 . S
O349 C323 1.283 . S
O349 Eu331 2.363 1_655 S
O350 C318 1.283 . S
O350 Eu337 2.363 . S
O351 C316 1.283 . S
O351 Eu337 2.363 1_655 S
O352 C319 1.283 . S
O352 Eu324 2.363 . S
O353 C317 1.283 . S
O353 Eu324 2.363 1_655 S
O354 C313 1.283 . S
O354 Eu332 2.353 1_565 S
O355 C315 1.283 . S
O355 Eu332 2.373 . S
O356 C312 1.283 . S
O356 Eu331 2.356 1_565 S
O357 C314 1.283 . S
O357 Eu331 2.370 . S
O358 C323 1.283 . S
O358 Eu327 2.363 . S
O359 C321 1.283 . S
O359 Eu327 2.363 . S
O360 C322 1.283 . S
O360 Eu328 2.363 . S
O361 C320 1.283 . S
O361 Eu328 2.363 . S
C362 O388 1.283 . S
C362 O406 1.283 . S
C363 O389 1.283 . S
C363 O404 1.283 . S
C364 O390 1.283 . S
C364 O407 1.283 . S
C365 O391 1.283 . S
C365 O405 1.283 . S
C366 O392 1.283 . S
C366 O401 1.283 . S
C367 O393 1.283 . S
C367 O403 1.283 . S
C368 O394 1.283 . S
C368 O400 1.283 . S
C369 O395 1.283 . S
C369 O402 1.283 . S
C370 O396 1.283 . S
C370 O411 1.283 . S
C371 O397 1.283 . S
C371 O409 1.283 . S
C372 O398 1.283 . S
C372 O410 1.283 . S
C373 O399 1.283 . S
C373 O408 1.283 . S
Eu374 O375 2.377 . S
Eu374 O376 2.364 1_545 S
Eu374 O379 2.364 1_545 S
Eu374 O380 2.377 . S
Eu374 O388 2.352 1_545 S
Eu374 O389 2.374 . S
Eu374 O402 2.363 . S
Eu374 O403 2.363 . S
O375 Eu374 2.377 . S
O375 Eu377 2.379 . S
O375 Eu382 2.373 . S
O376 Eu374 2.364 1_565 S
O376 Eu378 2.370 1_565 S
O376 Eu381 2.376 . S
Eu377 O375 2.379 . S
Eu377 O379 2.370 1_545 S
Eu377 O383 2.361 1_544 S
Eu377 O384 2.370 1_554 S
Eu377 O392 2.356 1_554 S
Eu377 O393 2.370 . S
Eu377 O408 2.355 1_545 S
Eu377 O409 2.371 . S
Eu378 O376 2.370 1_545 S
Eu378 O380 2.379 . S
Eu378 O385 2.371 1_554 S
Eu378 O386 2.361 1_544 S
Eu378 O394 2.356 1_554 S
Eu378 O395 2.370 . S
Eu378 O410 2.355 1_545 S
Eu378 O411 2.371 . S
O379 Eu374 2.364 1_565 S
O379 Eu377 2.370 1_565 S
O379 Eu381 2.376 . S
O380 Eu374 2.377 . S
O380 Eu378 2.379 . S
O380 Eu382 2.373 . S
Eu381 O376 2.376 . S
Eu381 O379 2.376 . S
Eu381 O383 2.364 1_554 S
Eu381 O386 2.364 1_554 S
Eu381 O398 2.363 . S
Eu381 O399 2.363 . S
Eu381 O406 2.373 . S
Eu381 O407 2.353 1_554 S
Eu382 O375 2.373 . S
Eu382 O380 2.373 . S
Eu382 O384 2.367 1_554 S
Eu382 O385 2.367 1_554 S
Eu382 O396 2.363 . S
Eu382 O397 2.363 . S
Eu382 O404 2.368 . S
Eu382 O405 2.358 1_554 S
O383 Eu377 2.361 1_566 S
O383 Eu381 2.364 1_556 S
O383 Eu387 2.367 1_565 S
O384 Eu377 2.370 1_556 S
O384 Eu382 2.367 1_556 S
O384 Eu387 2.373 . S
O385 Eu378 2.371 1_556 S
O385 Eu382 2.367 1_556 S
O385 Eu387 2.373 . S
O386 Eu378 2.361 1_566 S
O386 Eu381 2.364 1_556 S
O386 Eu387 2.367 1_565 S
Eu387 O383 2.367 1_545 S
Eu387 O384 2.373 . S
Eu387 O385 2.373 . S
Eu387 O386 2.367 1_545 S
Eu387 O390 2.358 1_545 S
Eu387 O391 2.368 . S
Eu387 O400 2.363 . S
Eu387 O401 2.363 . S
O388 C362 1.283 . S
O388 Eu374 2.352 1_565 S
O389 C363 1.283 . S
O389 Eu374 2.374 . S
O390 C364 1.283 . S
O390 Eu387 2.358 1_565 S
O391 C365 1.283 . S
O391 Eu387 2.368 . S
O392 C366 1.283 . S
O392 Eu377 2.356 1_556 S
O393 C367 1.283 . S
O393 Eu377 2.370 . S
O394 C368 1.283 . S
O394 Eu378 2.356 1_556 S
O395 C369 1.283 . S
O395 Eu378 2.370 . S
O396 C370 1.283 . S
O396 Eu382 2.363 . S
O397 C371 1.283 . S
O397 Eu382 2.363 . S
O398 C372 1.283 . S
O398 Eu381 2.363 . S
O399 C373 1.283 . S
O399 Eu381 2.363 . S
O400 C368 1.283 . S
O400 Eu387 2.363 . S
O401 C366 1.283 . S
O401 Eu387 2.363 . S
O402 C369 1.283 . S
O402 Eu374 2.363 . S
O403 C367 1.283 . S
O403 Eu374 2.363 . S
O404 C363 1.283 . S
O404 Eu382 2.368 . S
O405 C365 1.283 . S
O405 Eu382 2.358 1_556 S
O406 C362 1.283 . S
O406 Eu381 2.373 . S
O407 C364 1.283 . S
O407 Eu381 2.353 1_556 S
O408 C373 1.283 . S
O408 Eu377 2.355 1_565 S
O409 C371 1.283 . S
O409 Eu377 2.371 . S
O410 C372 1.283 . S
O410 Eu378 2.355 1_565 S
O411 C370 1.283 . S
O411 Eu378 2.371 . S
C412 O438 1.283 . S
C412 O456 1.283 . S
C413 O439 1.283 . S
C413 O454 1.283 . S
C414 O440 1.283 . S
C414 O457 1.283 . S
C415 O441 1.283 . S
C415 O455 1.283 . S
C416 O442 1.283 . S
C416 O451 1.283 . S
C417 O443 1.283 . S
C417 O453 1.283 . S
C418 O444 1.283 . S
C418 O450 1.283 . S
C419 O445 1.283 . S
C419 O452 1.283 . S
C420 O446 1.283 . S
C420 O461 1.283 . S
C421 O447 1.283 . S
C421 O459 1.283 . S
C422 O448 1.283 . S
C422 O460 1.283 . S
C423 O449 1.283 . S
C423 O458 1.283 . S
Eu424 O425 2.367 1_454 S
Eu424 O426 2.373 . S
Eu424 O429 2.373 1_455 S
Eu424 O430 2.367 1_554 S
Eu424 O438 2.369 . S
Eu424 O439 2.357 1_554 S
Eu424 O452 2.363 . S
Eu424 O453 2.363 1_455 S
O425 Eu424 2.367 1_656 S
O425 Eu427 2.366 1_556 S
O425 Eu432 2.370 1_655 S
O426 Eu424 2.373 . S
O426 Eu428 2.374 . S
O426 Eu431 2.370 . S
Eu427 O425 2.366 1_554 S
Eu427 O429 2.374 . S
Eu427 O433 2.374 . S
Eu427 O434 2.366 1_554 S
Eu427 O442 2.363 . S
Eu427 O443 2.363 . S
Eu427 O458 2.370 . S
Eu427 O459 2.356 1_554 S
Eu428 O426 2.374 . S
Eu428 O430 2.366 1_554 S
Eu428 O435 2.366 1_554 S
Eu428 O436 2.374 . S
Eu428 O444 2.363 . S
Eu428 O445 2.363 . S
Eu428 O460 2.370 . S
Eu428 O461 2.356 1_554 S
O429 Eu424 2.373 1_655 S
O429 Eu427 2.374 . S
O429 Eu431 2.370 1_655 S
O430 Eu424 2.367 1_556 S
O430 Eu428 2.366 1_556 S
O430 Eu432 2.370 . S
Eu431 O426 2.370 . S
Eu431 O429 2.370 1_455 S
Eu431 O433 2.370 1_455 S
Eu431 O436 2.370 . S
Eu431 O448 2.363 . S
Eu431 O449 2.363 1_455 S
Eu431 O456 2.363 . S
Eu431 O457 2.363 . S
Eu432 O425 2.370 1_455 S
Eu432 O430 2.370 . S
Eu432 O434 2.370 1_455 S
Eu432 O435 2.370 . S
Eu432 O446 2.363 . S
Eu432 O447 2.363 1_455 S
Eu432 O454 2.363 . S
Eu432 O455 2.363 . S
O433 Eu427 2.374 . S
O433 Eu431 2.370 1_655 S
O433 Eu437 2.375 1_655 S
O434 Eu427 2.366 1_556 S
O434 Eu432 2.370 1_655 S
O434 Eu437 2.365 1_656 S
O435 Eu428 2.366 1_556 S
O435 Eu432 2.370 . S
O435 Eu437 2.365 1_556 S
O436 Eu428 2.374 . S
O436 Eu431 2.370 . S
O436 Eu437 2.375 . S
Eu437 O433 2.375 1_455 S
Eu437 O434 2.365 1_454 S
Eu437 O435 2.365 1_554 S
Eu437 O436 2.375 . S
Eu437 O440 2.372 . S
Eu437 O441 2.354 1_554 S
Eu437 O450 2.363 . S
Eu437 O451 2.363 1_455 S
O438 C412 1.283 . S
O438 Eu424 2.369 . S
O439 C413 1.283 . S
O439 Eu424 2.357 1_556 S
O440 C414 1.283 . S
O440 Eu437 2.372 . S
O441 C415 1.283 . S
O441 Eu437 2.354 1_556 S
O442 C416 1.283 . S
O442 Eu427 2.363 . S
O443 C417 1.283 . S
O443 Eu427 2.363 . S
O444 C418 1.283 . S
O444 Eu428 2.363 . S
O445 C419 1.283 . S
O445 Eu428 2.363 . S
O446 C420 1.283 . S
O446 Eu432 2.363 . S
O447 C421 1.283 . S
O447 Eu432 2.363 1_655 S
O448 C422 1.283 . S
O448 Eu431 2.363 . S
O449 C423 1.283 . S
O449 Eu431 2.363 1_655 S
O450 C418 1.283 . S
O450 Eu437 2.363 . S
O451 C416 1.283 . S
O451 Eu437 2.363 1_655 S
O452 C419 1.283 . S
O452 Eu424 2.363 . S
O453 C417 1.283 . S
O453 Eu424 2.363 1_655 S
O454 C413 1.283 . S
O454 Eu432 2.363 . S
O455 C415 1.283 . S
O455 Eu432 2.363 . S
O456 C412 1.283 . S
O456 Eu431 2.363 . S
O457 C414 1.283 . S
O457 Eu431 2.363 . S
O458 C423 1.283 . S
O458 Eu427 2.370 . S
O459 C421 1.283 . S
O459 Eu427 2.356 1_556 S
O460 C422 1.283 . S
O460 Eu428 2.370 . S
O461 C420 1.283 . S
O461 Eu428 2.356 1_556 S
C462 O488 1.283 . S
C462 O506 1.283 . S
C463 O489 1.283 . S
C463 O504 1.283 . S
C464 O490 1.283 . S
C464 O507 1.283 . S
C465 O491 1.283 . S
C465 O505 1.283 . S
C466 O492 1.283 . S
C466 O501 1.283 . S
C467 O493 1.283 . S
C467 O503 1.283 . S
C468 O494 1.283 . S
C468 O500 1.283 . S
C469 O495 1.283 . S
C469 O502 1.283 . S
C470 O496 1.283 . S
C470 O511 1.283 . S
C471 O497 1.283 . S
C471 O509 1.283 . S
C472 O498 1.283 . S
C472 O510 1.283 . S
C473 O499 1.283 . S
C473 O508 1.283 . S
Eu474 O475 2.370 . S
Eu474 O476 2.370 . S
Eu474 O479 2.370 . S
Eu474 O480 2.370 . S
Eu474 O488 2.363 . S
Eu474 O489 2.363 . S
Eu474 O502 2.363 . S
Eu474 O503 2.363 . S
O475 Eu474 2.370 . S
O475 Eu477 2.374 . S
O475 Eu482 2.375 . S
O476 Eu474 2.370 . S
O476 Eu478 2.374 . S
O476 Eu481 2.374 . S
Eu477 O475 2.374 . S
Eu477 O479 2.374 . S
Eu477 O483 2.366 1_554 S
Eu477 O484 2.366 1_554 S
Eu477 O492 2.356 1_554 S
Eu477 O493 2.370 . S
Eu477 O508 2.363 . S
Eu477 O509 2.363 . S
Eu478 O476 2.374 . S
Eu478 O480 2.374 . S
Eu478 O485 2.366 1_554 S
Eu478 O486 2.366 1_554 S
Eu478 O494 2.356 1_554 S
Eu478 O495 2.370 . S
Eu478 O510 2.363 . S
Eu478 O511 2.363 . S
O479 Eu474 2.370 . S
O479 Eu477 2.374 . S
O479 Eu481 2.374 . S
O480 Eu474 2.370 . S
O480 Eu478 2.374 . S
O480 Eu482 2.375 . S
Eu481 O476 2.374 . S
Eu481 O479 2.374 . S
Eu481 O483 2.367 1_554 S
Eu481 O486 2.367 1_554 S
Eu481 O498 2.363 . S
Eu481 O499 2.363 . S
Eu481 O506 2.369 . S
Eu481 O507 2.357 1_554 S
Eu482 O475 2.375 . S
Eu482 O480 2.375 . S
Eu482 O484 2.365 1_554 S
Eu482 O485 2.365 1_554 S
Eu482 O496 2.363 . S
Eu482 O497 2.363 . S
Eu482 O504 2.372 . S
Eu482 O505 2.354 1_554 S
O483 Eu477 2.366 1_556 S
O483 Eu481 2.367 1_556 S
O483 Eu487 2.370 . S
O484 Eu477 2.366 1_556 S
O484 Eu482 2.365 1_556 S
O484 Eu487 2.370 . S
O485 Eu478 2.366 1_556 S
O485 Eu482 2.365 1_556 S
O485 Eu487 2.370 . S
O486 Eu478 2.366 1_556 S
O486 Eu481 2.367 1_556 S
O486 Eu487 2.370 . S
Eu487 O483 2.370 . S
Eu487 O484 2.370 . S
Eu487 O485 2.370 . S
Eu487 O486 2.370 . S
Eu487 O490 2.363 . S
Eu487 O491 2.363 . S
Eu487 O500 2.363 . S
Eu487 O501 2.363 . S
O488 C462 1.283 . S
O488 Eu474 2.363 . S
O489 C463 1.283 . S
O489 Eu474 2.363 . S
O490 C464 1.283 . S
O490 Eu487 2.363 . S
O491 C465 1.283 . S
O491 Eu487 2.363 . S
O492 C466 1.283 . S
O492 Eu477 2.356 1_556 S
O493 C467 1.283 . S
O493 Eu477 2.370 . S
O494 C468 1.283 . S
O494 Eu478 2.356 1_556 S
O495 C469 1.283 . S
O495 Eu478 2.370 . S
O496 C470 1.283 . S
O496 Eu482 2.363 . S
O497 C471 1.283 . S
O497 Eu482 2.363 . S
O498 C472 1.283 . S
O498 Eu481 2.363 . S
O499 C473 1.283 . S
O499 Eu481 2.363 . S
O500 C468 1.283 . S
O500 Eu487 2.363 . S
O501 C466 1.283 . S
O501 Eu487 2.363 . S
O502 C469 1.283 . S
O502 Eu474 2.363 . S
O503 C467 1.283 . S
O503 Eu474 2.363 . S
O504 C463 1.283 . S
O504 Eu482 2.372 . S
O505 C465 1.283 . S
O505 Eu482 2.354 1_556 S
O506 C462 1.283 . S
O506 Eu481 2.369 . S
O507 C464 1.283 . S
O507 Eu481 2.357 1_556 S
O508 C473 1.283 . S
O508 Eu477 2.363 . S
O509 C471 1.283 . S
O509 Eu477 2.363 . S
O510 C472 1.283 . S
O510 Eu478 2.363 . S
O511 C470 1.283 . S
O511 Eu478 2.363 . S
C512 O538 1.283 . S
C512 O556 1.283 . S
C513 O539 1.283 . S
C513 O554 1.283 . S
C514 O540 1.283 . S
C514 O557 1.283 . S
C515 O541 1.283 . S
C515 O555 1.283 . S
C516 O542 1.283 . S
C516 O551 1.283 . S
C517 O543 1.283 . S
C517 O553 1.283 . S
C518 O544 1.283 . S
C518 O550 1.283 . S
C519 O545 1.283 . S
C519 O552 1.283 . S
C520 O546 1.283 . S
C520 O561 1.283 . S
C521 O547 1.283 . S
C521 O559 1.283 . S
C522 O548 1.283 . S
C522 O560 1.283 . S
C523 O549 1.283 . S
C523 O558 1.283 . S
Eu524 O525 2.370 1_455 S
Eu524 O526 2.370 . S
Eu524 O529 2.370 1_455 S
Eu524 O530 2.370 . S
Eu524 O538 2.363 . S
Eu524 O539 2.363 . S
Eu524 O552 2.363 . S
Eu524 O553 2.363 1_455 S
O525 Eu524 2.370 1_655 S
O525 Eu527 2.370 . S
O525 Eu532 2.370 1_655 S
O526 Eu524 2.370 . S
O526 Eu528 2.370 . S
O526 Eu531 2.370 . S
Eu527 O525 2.370 . S
Eu527 O529 2.370 . S
Eu527 O533 2.370 . S
Eu527 O534 2.370 . S
Eu527 O542 2.363 . S
Eu527 O543 2.363 . S
Eu527 O558 2.363 . S
Eu527 O559 2.363 . S
Eu528 O526 2.370 . S
Eu528 O530 2.370 . S
Eu528 O535 2.370 . S
Eu528 O536 2.370 . S
Eu528 O544 2.363 . S
Eu528 O545 2.363 . S
Eu528 O560 2.363 . S
Eu528 O561 2.363 . S
O529 Eu524 2.370 1_655 S
O529 Eu527 2.370 . S
O529 Eu531 2.370 1_655 S
O530 Eu524 2.370 . S
O530 Eu528 2.370 . S
O530 Eu532 2.370 . S
Eu531 O526 2.370 . S
Eu531 O529 2.370 1_455 S
Eu531 O533 2.370 1_455 S
Eu531 O536 2.370 . S
Eu531 O548 2.363 . S
Eu531 O549 2.363 1_455 S
Eu531 O556 2.363 . S
Eu531 O557 2.363 . S
Eu532 O525 2.370 1_455 S
Eu532 O530 2.370 . S
Eu532 O534 2.370 1_455 S
Eu532 O535 2.370 . S
Eu532 O546 2.363 . S
Eu532 O547 2.363 1_455 S
Eu532 O554 2.363 . S
Eu532 O555 2.363 . S
O533 Eu527 2.370 . S
O533 Eu531 2.370 1_655 S
O533 Eu537 2.370 1_655 S
O534 Eu527 2.370 . S
O534 Eu532 2.370 1_655 S
O534 Eu537 2.370 1_655 S
O535 Eu528 2.370 . S
O535 Eu532 2.370 . S
O535 Eu537 2.370 . S
O536 Eu528 2.370 . S
O536 Eu531 2.370 . S
O536 Eu537 2.370 . S
Eu537 O533 2.370 1_455 S
Eu537 O534 2.370 1_455 S
Eu537 O535 2.370 . S
Eu537 O536 2.370 . S
Eu537 O540 2.363 . S
Eu537 O541 2.363 . S
Eu537 O550 2.363 . S
Eu537 O551 2.363 1_455 S
O538 C512 1.283 . S
O538 Eu524 2.363 . S
O539 C513 1.283 . S
O539 Eu524 2.363 . S
O540 C514 1.283 . S
O540 Eu537 2.363 . S
O541 C515 1.283 . S
O541 Eu537 2.363 . S
O542 C516 1.283 . S
O542 Eu527 2.363 . S
O543 C517 1.283 . S
O543 Eu527 2.363 . S
O544 C518 1.283 . S
O544 Eu528 2.363 . S
O545 C519 1.283 . S
O545 Eu528 2.363 . S
O546 C520 1.283 . S
O546 Eu532 2.363 . S
O547 C521 1.283 . S
O547 Eu532 2.363 1_655 S
O548 C522 1.283 . S
O548 Eu531 2.363 . S
O549 C523 1.283 . S
O549 Eu531 2.363 1_655 S
O550 C518 1.283 . S
O550 Eu537 2.363 . S
O551 C516 1.283 . S
O551 Eu537 2.363 1_655 S
O552 C519 1.283 . S
O552 Eu524 2.363 . S
O553 C517 1.283 . S
O553 Eu524 2.363 1_655 S
O554 C513 1.283 . S
O554 Eu532 2.363 . S
O555 C515 1.283 . S
O555 Eu532 2.363 . S
O556 C512 1.283 . S
O556 Eu531 2.363 . S
O557 C514 1.283 . S
O557 Eu531 2.363 . S
O558 C523 1.283 . S
O558 Eu527 2.363 . S
O559 C521 1.283 . S
O559 Eu527 2.363 . S
O560 C522 1.283 . S
O560 Eu528 2.363 . S
O561 C520 1.283 . S
O561 Eu528 2.363 . S
C562 O588 1.283 . S
C562 O606 1.283 . S
C563 O589 1.283 . S
C563 O604 1.283 . S
C564 O590 1.283 . S
C564 O607 1.283 . S
C565 O591 1.283 . S
C565 O605 1.283 . S
C566 O592 1.283 . S
C566 O601 1.283 . S
C567 O593 1.283 . S
C567 O603 1.283 . S
C568 O594 1.283 . S
C568 O600 1.283 . S
C569 O595 1.283 . S
C569 O602 1.283 . S
C570 O596 1.283 . S
C570 O611 1.283 . S
C571 O597 1.283 . S
C571 O609 1.283 . S
C572 O598 1.283 . S
C572 O610 1.283 . S
C573 O599 1.283 . S
C573 O608 1.283 . S
Eu574 O575 2.370 . S
Eu574 O576 2.370 . S
Eu574 O579 2.370 . S
Eu574 O580 2.370 . S
Eu574 O588 2.363 . S
Eu574 O589 2.363 . S
Eu574 O602 2.363 . S
Eu574 O603 2.363 . S
O575 Eu574 2.370 . S
O575 Eu577 2.365 1_565 S
O575 Eu582 2.364 1_565 S
O576 Eu574 2.370 . S
O576 Eu578 2.365 1_565 S
O576 Eu581 2.366 1_565 S
Eu577 O575 2.365 1_545 S
Eu577 O579 2.365 1_545 S
Eu577 O583 2.375 . S
Eu577 O584 2.375 . S
Eu577 O592 2.371 . S
Eu577 O593 2.355 1_545 S
Eu577 O608 2.363 . S
Eu577 O609 2.363 . S
Eu578 O576 2.365 1_545 S
Eu578 O580 2.365 1_545 S
Eu578 O585 2.375 . S
Eu578 O586 2.375 . S
Eu578 O594 2.371 . S
Eu578 O595 2.355 1_545 S
Eu578 O610 2.363 . S
Eu578 O611 2.363 . S
O579 Eu574 2.370 . S
O579 Eu577 2.365 1_565 S
O579 Eu581 2.366 1_565 S
O580 Eu574 2.370 . S
O580 Eu578 2.365 1_565 S
O580 Eu582 2.364 1_565 S
Eu581 O576 2.366 1_545 S
Eu581 O579 2.366 1_545 S
Eu581 O583 2.374 . S
Eu581 O586 2.374 . S
Eu581 O598 2.363 . S
Eu581 O599 2.363 . S
Eu581 O606 2.356 1_545 S
Eu581 O607 2.369 . S
Eu582 O575 2.364 1_545 S
Eu582 O580 2.364 1_545 S
Eu582 O584 2.376 . S
Eu582 O585 2.376 . S
Eu582 O596 2.363 . S
Eu582 O597 2.363 . S
Eu582 O604 2.353 1_545 S
Eu582 O605 2.373 . S
O583 Eu577 2.375 . S
O583 Eu581 2.374 . S
O583 Eu587 2.370 . S
O584 Eu577 2.375 . S
O584 Eu582 2.376 . S
O584 Eu587 2.370 . S
O585 Eu578 2.375 . S
O585 Eu582 2.376 . S
O585 Eu587 2.370 . S
O586 Eu578 2.375 . S
O586 Eu581 2.374 . S
O586 Eu587 2.370 . S
Eu587 O583 2.370 . S
Eu587 O584 2.370 . S
Eu587 O585 2.370 . S
Eu587 O586 2.370 . S
Eu587 O590 2.363 . S
Eu587 O591 2.363 . S
Eu587 O600 2.363 . S
Eu587 O601 2.363 . S
O588 C562 1.283 . S
O588 Eu574 2.363 . S
O589 C563 1.283 . S
O589 Eu574 2.363 . S
O590 C564 1.283 . S
O590 Eu587 2.363 . S
O591 C565 1.283 . S
O591 Eu587 2.363 . S
O592 C566 1.283 . S
O592 Eu577 2.371 . S
O593 C567 1.283 . S
O593 Eu577 2.355 1_565 S
O594 C568 1.283 . S
O594 Eu578 2.371 . S
O595 C569 1.283 . S
O595 Eu578 2.355 1_565 S
O596 C570 1.283 . S
O596 Eu582 2.363 . S
O597 C571 1.283 . S
O597 Eu582 2.363 . S
O598 C572 1.283 . S
O598 Eu581 2.363 . S
O599 C573 1.283 . S
O599 Eu581 2.363 . S
O600 C568 1.283 . S
O600 Eu587 2.363 . S
O601 C566 1.283 . S
O601 Eu587 2.363 . S
O602 C569 1.283 . S
O602 Eu574 2.363 . S
O603 C567 1.283 . S
O603 Eu574 2.363 . S
O604 C563 1.283 . S
O604 Eu582 2.353 1_565 S
O605 C565 1.283 . S
O605 Eu582 2.373 . S
O606 C562 1.283 . S
O606 Eu581 2.356 1_565 S
O607 C564 1.283 . S
O607 Eu581 2.369 . S
O608 C573 1.283 . S
O608 Eu577 2.363 . S
O609 C571 1.283 . S
O609 Eu577 2.363 . S
O610 C572 1.283 . S
O610 Eu578 2.363 . S
O611 C570 1.283 . S
O611 Eu578 2.363 . S
H612 C624 0.930 . S
H613 C626 0.930 . S
H614 C627 0.930 . S
H615 C631 0.959 . S
H616 C631 0.959 . S
H617 C631 0.961 . S
H618 C632 0.960 . S
H619 C632 0.961 . S
H620 C632 0.959 . S
H621 C635 0.929 . S
H622 C636 0.931 . S
H623 C638 0.930 . S
C624 H612 0.930 . S
C624 C625 1.399 . S
C624 C629 1.399 . S
C625 C624 1.399 . S
C625 C626 1.376 . S
C626 H613 0.930 . S
C626 C625 1.376 . S
C626 C627 1.388 . S
C627 H614 0.930 . S
C627 C626 1.388 . S
C627 C628 1.390 . S
C628 C627 1.390 . S
C628 C629 1.394 . S
C628 C634 1.465 . S
C629 C624 1.399 . S
C629 C628 1.394 . S
C629 C630 1.516 . S
C630 C629 1.516 . S
C630 C631 1.502 . S
C630 C632 1.561 . S
C630 C633 1.526 . S
C631 H615 0.959 . S
C631 H616 0.959 . S
C631 H617 0.961 . S
C631 C630 1.502 . S
C632 H618 0.960 . S
C632 H619 0.961 . S
C632 H620 0.959 . S
C632 C630 1.561 . S
C633 C630 1.526 . S
C633 C634 1.396 . S
C633 C638 1.390 . S
C634 C628 1.465 . S
C634 C633 1.396 . S
C634 C635 1.399 . S
C635 H621 0.929 . S
C635 C634 1.399 . S
C635 C636 1.385 . S
C636 H622 0.931 . S
C636 C635 1.385 . S
C636 C637 1.389 . S
C637 C636 1.389 . S
C637 C638 1.387 . S
C638 H623 0.930 . S
C638 C633 1.390 . S
C638 C637 1.387 . S
H639 C651 0.930 . S
H640 C653 0.930 . S
H641 C654 0.930 . S
H642 C658 0.959 . S
H643 C658 0.959 . S
H644 C658 0.961 . S
H645 C659 0.960 . S
H646 C659 0.961 . S
H647 C659 0.959 . S
H648 C662 0.929 . S
H649 C663 0.931 . S
H650 C665 0.930 . S
C651 H639 0.930 . S
C651 C652 1.399 . S
C651 C656 1.399 . S
C652 C651 1.399 . S
C652 C653 1.376 . S
C653 H640 0.930 . S
C653 C652 1.376 . S
C653 C654 1.388 . S
C654 H641 0.930 . S
C654 C653 1.388 . S
C654 C655 1.390 . S
C655 C654 1.390 . S
C655 C656 1.394 . S
C655 C661 1.465 . S
C656 C651 1.399 . S
C656 C655 1.394 . S
C656 C657 1.516 . S
C657 C656 1.516 . S
C657 C658 1.502 . S
C657 C659 1.561 . S
C657 C660 1.526 . S
C658 H642 0.959 . S
C658 H643 0.959 . S
C658 H644 0.961 . S
C658 C657 1.502 . S
C659 H645 0.960 . S
C659 H646 0.961 . S
C659 H647 0.959 . S
C659 C657 1.561 . S
C660 C657 1.526 . S
C660 C661 1.396 . S
C660 C665 1.390 . S
C661 C655 1.465 . S
C661 C660 1.396 . S
C661 C662 1.399 . S
C662 H648 0.929 . S
C662 C661 1.399 . S
C662 C663 1.385 . S
C663 H649 0.931 . S
C663 C662 1.385 . S
C663 C664 1.389 . S
C664 C663 1.389 . S
C664 C665 1.387 . S
C665 H650 0.930 . S
C665 C660 1.390 . S
C665 C664 1.387 . S
H666 C678 0.930 . S
H667 C680 0.930 . S
H668 C681 0.930 . S
H669 C685 0.959 . S
H670 C685 0.959 . S
H671 C685 0.961 . S
H672 C686 0.960 . S
H673 C686 0.961 . S
H674 C686 0.959 . S
H675 C689 0.929 . S
H676 C690 0.931 . S
H677 C692 0.930 . S
C678 H666 0.930 . S
C678 C679 1.399 . S
C678 C683 1.399 . S
C679 C678 1.399 . S
C679 C680 1.376 . S
C680 H667 0.930 . S
C680 C679 1.376 . S
C680 C681 1.388 . S
C681 H668 0.930 . S
C681 C680 1.388 . S
C681 C682 1.390 . S
C682 C681 1.390 . S
C682 C683 1.394 . S
C682 C688 1.465 . S
C683 C678 1.399 . S
C683 C682 1.394 . S
C683 C684 1.516 . S
C684 C683 1.516 . S
C684 C685 1.502 . S
C684 C686 1.561 . S
C684 C687 1.526 . S
C685 H669 0.959 . S
C685 H670 0.959 . S
C685 H671 0.961 . S
C685 C684 1.502 . S
C686 H672 0.960 . S
C686 H673 0.961 . S
C686 H674 0.959 . S
C686 C684 1.561 . S
C687 C684 1.526 . S
C687 C688 1.396 . S
C687 C692 1.390 . S
C688 C682 1.465 . S
C688 C687 1.396 . S
C688 C689 1.399 . S
C689 H675 0.929 . S
C689 C688 1.399 . S
C689 C690 1.385 . S
C690 H676 0.931 . S
C690 C689 1.385 . S
C690 C691 1.389 . S
C691 C690 1.389 . S
C691 C692 1.387 . S
C692 H677 0.930 . S
C692 C687 1.390 . S
C692 C691 1.387 . S
H693 C705 0.930 . S
H694 C707 0.930 . S
H695 C708 0.930 . S
H696 C712 0.959 . S
H697 C712 0.959 . S
H698 C712 0.961 . S
H699 C713 0.960 . S
H700 C713 0.961 . S
H701 C713 0.959 . S
H702 C716 0.929 . S
H703 C717 0.931 . S
H704 C719 0.930 . S
C705 H693 0.930 . S
C705 C706 1.399 . S
C705 C710 1.399 . S
C706 C705 1.399 . S
C706 C707 1.376 . S
C707 H694 0.930 . S
C707 C706 1.376 . S
C707 C708 1.388 . S
C708 H695 0.930 . S
C708 C707 1.388 . S
C708 C709 1.390 . S
C709 C708 1.390 . S
C709 C710 1.394 . S
C709 C715 1.465 . S
C710 C705 1.399 . S
C710 C709 1.394 . S
C710 C711 1.516 . S
C711 C710 1.516 . S
C711 C712 1.502 . S
C711 C713 1.561 . S
C711 C714 1.526 . S
C712 H696 0.959 . S
C712 H697 0.959 . S
C712 H698 0.961 . S
C712 C711 1.502 . S
C713 H699 0.960 . S
C713 H700 0.961 . S
C713 H701 0.959 . S
C713 C711 1.561 . S
C714 C711 1.526 . S
C714 C715 1.396 . S
C714 C719 1.390 . S
C715 C709 1.465 . S
C715 C714 1.396 . S
C715 C716 1.399 . S
C716 H702 0.929 . S
C716 C715 1.399 . S
C716 C717 1.385 . S
C717 H703 0.931 . S
C717 C716 1.385 . S
C717 C718 1.389 . S
C718 C717 1.389 . S
C718 C719 1.387 . S
C719 H704 0.930 . S
C719 C714 1.390 . S
C719 C718 1.387 . S
H720 C732 0.930 . S
H721 C734 0.930 . S
H722 C735 0.930 . S
H723 C739 0.959 . S
H724 C739 0.959 . S
H725 C739 0.961 . S
H726 C740 0.960 . S
H727 C740 0.961 . S
H728 C740 0.959 . S
H729 C743 0.929 . S
H730 C744 0.931 . S
H731 C746 0.930 . S
C732 H720 0.930 . S
C732 C733 1.399 . S
C732 C737 1.399 . S
C733 C732 1.399 . S
C733 C734 1.376 . S
C734 H721 0.930 . S
C734 C733 1.376 . S
C734 C735 1.388 . S
C735 H722 0.930 . S
C735 C734 1.388 . S
C735 C736 1.390 . S
C736 C735 1.390 . S
C736 C737 1.394 . S
C736 C742 1.465 . S
C737 C732 1.399 . S
C737 C736 1.394 . S
C737 C738 1.516 . S
C738 C737 1.516 . S
C738 C739 1.502 . S
C738 C740 1.561 . S
C738 C741 1.526 . S
C739 H723 0.959 . S
C739 H724 0.959 . S
C739 H725 0.961 . S
C739 C738 1.502 . S
C740 H726 0.960 . S
C740 H727 0.961 . S
C740 H728 0.959 . S
C740 C738 1.561 . S
C741 C738 1.526 . S
C741 C742 1.396 . S
C741 C746 1.390 . S
C742 C736 1.465 . S
C742 C741 1.396 . S
C742 C743 1.399 . S
C743 H729 0.929 . S
C743 C742 1.399 . S
C743 C744 1.385 . S
C744 H730 0.931 . S
C744 C743 1.385 . S
C744 C745 1.389 . S
C745 C744 1.389 . S
C745 C746 1.387 . S
C746 H731 0.930 . S
C746 C741 1.390 . S
C746 C745 1.387 . S
H747 C759 0.930 . S
H748 C761 0.930 . S
H749 C762 0.930 . S
H750 C766 0.959 . S
H751 C766 0.959 . S
H752 C766 0.961 . S
H753 C767 0.960 . S
H754 C767 0.961 . S
H755 C767 0.959 . S
H756 C770 0.929 . S
H757 C771 0.931 . S
H758 C773 0.930 . S
C759 H747 0.930 . S
C759 C760 1.399 . S
C759 C764 1.399 . S
C760 C759 1.399 . S
C760 C761 1.376 . S
C761 H748 0.930 . S
C761 C760 1.376 . S
C761 C762 1.388 . S
C762 H749 0.930 . S
C762 C761 1.388 . S
C762 C763 1.390 . S
C763 C762 1.390 . S
C763 C764 1.394 . S
C763 C769 1.465 . S
C764 C759 1.399 . S
C764 C763 1.394 . S
C764 C765 1.516 . S
C765 C764 1.516 . S
C765 C766 1.502 . S
C765 C767 1.561 . S
C765 C768 1.526 . S
C766 H750 0.959 . S
C766 H751 0.959 . S
C766 H752 0.961 . S
C766 C765 1.502 . S
C767 H753 0.960 . S
C767 H754 0.961 . S
C767 H755 0.959 . S
C767 C765 1.561 . S
C768 C765 1.526 . S
C768 C769 1.396 . S
C768 C773 1.390 . S
C769 C763 1.465 . S
C769 C768 1.396 . S
C769 C770 1.399 . S
C770 H756 0.929 . S
C770 C769 1.399 . S
C770 C771 1.385 . S
C771 H757 0.931 . S
C771 C770 1.385 . S
C771 C772 1.389 . S
C772 C771 1.389 . S
C772 C773 1.387 . S
C773 H758 0.930 . S
C773 C768 1.390 . S
C773 C772 1.387 . S
H774 C786 0.930 . S
H775 C788 0.930 . S
H776 C789 0.930 . S
H777 C793 0.959 . S
H778 C793 0.959 . S
H779 C793 0.961 . S
H780 C794 0.960 . S
H781 C794 0.961 . S
H782 C794 0.959 . S
H783 C797 0.929 . S
H784 C798 0.931 . S
H785 C800 0.930 . S
C786 H774 0.930 . S
C786 C787 1.399 . S
C786 C791 1.399 . S
C787 C786 1.399 . S
C787 C788 1.376 . S
C788 H775 0.930 . S
C788 C787 1.376 . S
C788 C789 1.388 . S
C789 H776 0.930 . S
C789 C788 1.388 . S
C789 C790 1.390 . S
C790 C789 1.390 . S
C790 C791 1.394 . S
C790 C796 1.465 . S
C791 C786 1.399 . S
C791 C790 1.394 . S
C791 C792 1.516 . S
C792 C791 1.516 . S
C792 C793 1.502 . S
C792 C794 1.561 . S
C792 C795 1.526 . S
C793 H777 0.959 . S
C793 H778 0.959 . S
C793 H779 0.961 . S
C793 C792 1.502 . S
C794 H780 0.960 . S
C794 H781 0.961 . S
C794 H782 0.959 . S
C794 C792 1.561 . S
C795 C792 1.526 . S
C795 C796 1.396 . S
C795 C800 1.390 . S
C796 C790 1.465 . S
C796 C795 1.396 . S
C796 C797 1.399 . S
C797 H783 0.929 . S
C797 C796 1.399 . S
C797 C798 1.385 . S
C798 H784 0.931 . S
C798 C797 1.385 . S
C798 C799 1.389 . S
C799 C798 1.389 . S
C799 C800 1.387 . S
C800 H785 0.930 . S
C800 C795 1.390 . S
C800 C799 1.387 . S
H801 C813 0.930 . S
H802 C815 0.930 . S
H803 C816 0.930 . S
H804 C820 0.959 . S
H805 C820 0.959 . S
H806 C820 0.961 . S
H807 C821 0.960 . S
H808 C821 0.961 . S
H809 C821 0.959 . S
H810 C824 0.929 . S
H811 C825 0.931 . S
H812 C827 0.930 . S
C813 H801 0.930 . S
C813 C814 1.399 . S
C813 C818 1.399 . S
C814 C813 1.399 . S
C814 C815 1.376 . S
C815 H802 0.930 . S
C815 C814 1.376 . S
C815 C816 1.388 . S
C816 H803 0.930 . S
C816 C815 1.388 . S
C816 C817 1.390 . S
C817 C816 1.390 . S
C817 C818 1.394 . S
C817 C823 1.465 . S
C818 C813 1.399 . S
C818 C817 1.394 . S
C818 C819 1.516 . S
C819 C818 1.516 . S
C819 C820 1.502 . S
C819 C821 1.561 . S
C819 C822 1.526 . S
C820 H804 0.959 . S
C820 H805 0.959 . S
C820 H806 0.961 . S
C820 C819 1.502 . S
C821 H807 0.960 . S
C821 H808 0.961 . S
C821 H809 0.959 . S
C821 C819 1.561 . S
C822 C819 1.526 . S
C822 C823 1.396 . S
C822 C827 1.390 . S
C823 C817 1.465 . S
C823 C822 1.396 . S
C823 C824 1.399 . S
C824 H810 0.929 . S
C824 C823 1.399 . S
C824 C825 1.385 . S
C825 H811 0.931 . S
C825 C824 1.385 . S
C825 C826 1.389 . S
C826 C825 1.389 . S
C826 C827 1.387 . S
C827 H812 0.930 . S
C827 C822 1.390 . S
C827 C826 1.387 . S
H828 C840 0.930 . S
H829 C842 0.930 . S
H830 C843 0.930 . S
H831 C847 0.959 . S
H832 C847 0.959 . S
H833 C847 0.961 . S
H834 C848 0.960 . S
H835 C848 0.961 . S
H836 C848 0.959 . S
H837 C851 0.929 . S
H838 C852 0.931 . S
H839 C854 0.930 . S
C840 H828 0.930 . S
C840 C841 1.399 . S
C840 C845 1.399 . S
C841 C840 1.399 . S
C841 C842 1.376 . S
C842 H829 0.930 . S
C842 C841 1.376 . S
C842 C843 1.388 . S
C843 H830 0.930 . S
C843 C842 1.388 . S
C843 C844 1.390 . S
C844 C843 1.390 . S
C844 C845 1.394 . S
C844 C850 1.465 . S
C845 C840 1.399 . S
C845 C844 1.394 . S
C845 C846 1.516 . S
C846 C845 1.516 . S
C846 C847 1.502 . S
C846 C848 1.561 . S
C846 C849 1.526 . S
C847 H831 0.959 . S
C847 H832 0.959 . S
C847 H833 0.961 . S
C847 C846 1.502 . S
C848 H834 0.960 . S
C848 H835 0.961 . S
C848 H836 0.959 . S
C848 C846 1.561 . S
C849 C846 1.526 . S
C849 C850 1.396 . S
C849 C854 1.390 . S
C850 C844 1.465 . S
C850 C849 1.396 . S
C850 C851 1.399 . S
C851 H837 0.929 . S
C851 C850 1.399 . S
C851 C852 1.385 . S
C852 H838 0.931 . S
C852 C851 1.385 . S
C852 C853 1.389 . S
C853 C852 1.389 . S
C853 C854 1.387 . S
C854 H839 0.930 . S
C854 C849 1.390 . S
C854 C853 1.387 . S
H855 C867 0.930 . S
H856 C869 0.930 . S
H857 C870 0.930 . S
H858 C874 0.959 . S
H859 C874 0.959 . S
H860 C874 0.961 . S
H861 C875 0.960 . S
H862 C875 0.961 . S
H863 C875 0.959 . S
H864 C878 0.929 . S
H865 C879 0.931 . S
H866 C881 0.930 . S
C867 H855 0.930 . S
C867 C868 1.399 . S
C867 C872 1.399 . S
C868 C867 1.399 . S
C868 C869 1.376 . S
C869 H856 0.930 . S
C869 C868 1.376 . S
C869 C870 1.388 . S
C870 H857 0.930 . S
C870 C869 1.388 . S
C870 C871 1.390 . S
C871 C870 1.390 . S
C871 C872 1.394 . S
C871 C877 1.465 . S
C872 C867 1.399 . S
C872 C871 1.394 . S
C872 C873 1.516 . S
C873 C872 1.516 . S
C873 C874 1.502 . S
C873 C875 1.561 . S
C873 C876 1.526 . S
C874 H858 0.959 . S
C874 H859 0.959 . S
C874 H860 0.961 . S
C874 C873 1.502 . S
C875 H861 0.960 . S
C875 H862 0.961 . S
C875 H863 0.959 . S
C875 C873 1.561 . S
C876 C873 1.526 . S
C876 C877 1.396 . S
C876 C881 1.390 . S
C877 C871 1.465 . S
C877 C876 1.396 . S
C877 C878 1.399 . S
C878 H864 0.929 . S
C878 C877 1.399 . S
C878 C879 1.385 . S
C879 H865 0.931 . S
C879 C878 1.385 . S
C879 C880 1.389 . S
C880 C879 1.389 . S
C880 C881 1.387 . S
C881 H866 0.930 . S
C881 C876 1.390 . S
C881 C880 1.387 . S
H882 C894 0.930 . S
H883 C896 0.930 . S
H884 C897 0.930 . S
H885 C901 0.959 . S
H886 C901 0.959 . S
H887 C901 0.961 . S
H888 C902 0.960 . S
H889 C902 0.961 . S
H890 C902 0.959 . S
H891 C905 0.929 . S
H892 C906 0.931 . S
H893 C908 0.930 . S
C894 H882 0.930 . S
C894 C895 1.399 . S
C894 C899 1.399 . S
C895 C894 1.399 . S
C895 C896 1.376 . S
C896 H883 0.930 . S
C896 C895 1.376 . S
C896 C897 1.388 . S
C897 H884 0.930 . S
C897 C896 1.388 . S
C897 C898 1.390 . S
C898 C897 1.390 . S
C898 C899 1.394 . S
C898 C904 1.465 . S
C899 C894 1.399 . S
C899 C898 1.394 . S
C899 C900 1.516 . S
C900 C899 1.516 . S
C900 C901 1.502 . S
C900 C902 1.561 . S
C900 C903 1.526 . S
C901 H885 0.959 . S
C901 H886 0.959 . S
C901 H887 0.961 . S
C901 C900 1.502 . S
C902 H888 0.960 . S
C902 H889 0.961 . S
C902 H890 0.959 . S
C902 C900 1.561 . S
C903 C900 1.526 . S
C903 C904 1.396 . S
C903 C908 1.390 . S
C904 C898 1.465 . S
C904 C903 1.396 . S
C904 C905 1.399 . S
C905 H891 0.929 . S
C905 C904 1.399 . S
C905 C906 1.385 . S
C906 H892 0.931 . S
C906 C905 1.385 . S
C906 C907 1.389 . S
C907 C906 1.389 . S
C907 C908 1.387 . S
C908 H893 0.930 . S
C908 C903 1.390 . S
C908 C907 1.387 . S
H909 C921 0.930 . S
H910 C923 0.930 . S
H911 C924 0.930 . S
H912 C928 0.959 . S
H913 C928 0.959 . S
H914 C928 0.961 . S
H915 C929 0.960 . S
H916 C929 0.961 . S
H917 C929 0.959 . S
H918 C932 0.929 . S
H919 C933 0.931 . S
H920 C935 0.930 . S
C921 H909 0.930 . S
C921 C922 1.399 . S
C921 C926 1.399 . S
C922 C921 1.399 . S
C922 C923 1.376 . S
C923 H910 0.930 . S
C923 C922 1.376 . S
C923 C924 1.388 . S
C924 H911 0.930 . S
C924 C923 1.388 . S
C924 C925 1.390 . S
C925 C924 1.390 . S
C925 C926 1.394 . S
C925 C931 1.465 . S
C926 C921 1.399 . S
C926 C925 1.394 . S
C926 C927 1.516 . S
C927 C926 1.516 . S
C927 C928 1.502 . S
C927 C929 1.561 . S
C927 C930 1.526 . S
C928 H912 0.959 . S
C928 H913 0.959 . S
C928 H914 0.961 . S
C928 C927 1.502 . S
C929 H915 0.960 . S
C929 H916 0.961 . S
C929 H917 0.959 . S
C929 C927 1.561 . S
C930 C927 1.526 . S
C930 C931 1.396 . S
C930 C935 1.390 . S
C931 C925 1.465 . S
C931 C930 1.396 . S
C931 C932 1.399 . S
C932 H918 0.929 . S
C932 C931 1.399 . S
C932 C933 1.385 . S
C933 H919 0.931 . S
C933 C932 1.385 . S
C933 C934 1.389 . S
C934 C933 1.389 . S
C934 C935 1.387 . S
C935 H920 0.930 . S
C935 C930 1.390 . S
C935 C934 1.387 . S
H936 C948 0.930 . S
H937 C950 0.930 . S
H938 C951 0.930 . S
H939 C955 0.959 . S
H940 C955 0.959 . S
H941 C955 0.961 . S
H942 C956 0.960 . S
H943 C956 0.961 . S
H944 C956 0.959 . S
H945 C959 0.929 . S
H946 C960 0.931 . S
H947 C962 0.930 . S
C948 H936 0.930 . S
C948 C949 1.399 1_556 S
C948 C953 1.399 . S
C949 C948 1.399 1_554 S
C949 C950 1.376 . S
C950 H937 0.930 . S
C950 C949 1.376 . S
C950 C951 1.388 . S
C951 H938 0.930 . S
C951 C950 1.388 . S
C951 C952 1.390 . S
C952 C951 1.390 . S
C952 C953 1.394 1_554 S
C952 C958 1.465 . S
C953 C948 1.399 . S
C953 C952 1.394 1_556 S
C953 C954 1.516 . S
C954 C953 1.516 . S
C954 C955 1.502 . S
C954 C956 1.561 . S
C954 C957 1.526 . S
C955 H939 0.959 . S
C955 H940 0.959 . S
C955 H941 0.961 . S
C955 C954 1.502 . S
C956 H942 0.960 . S
C956 H943 0.961 . S
C956 H944 0.959 . S
C956 C954 1.561 . S
C957 C954 1.526 . S
C957 C958 1.396 1_556 S
C957 C962 1.390 . S
C958 C952 1.465 . S
C958 C957 1.396 1_554 S
C958 C959 1.399 . S
C959 H945 0.929 . S
C959 C958 1.399 . S
C959 C960 1.385 . S
C960 H946 0.931 . S
C960 C959 1.385 . S
C960 C961 1.389 . S
C961 C960 1.389 . S
C961 C962 1.387 1_554 S
C962 H947 0.930 . S
C962 C957 1.390 . S
C962 C961 1.387 1_556 S
H963 C975 0.930 . S
H964 C977 0.930 . S
H965 C978 0.930 . S
H966 C982 0.959 . S
H967 C982 0.959 . S
H968 C982 0.961 . S
H969 C983 0.960 . S
H970 C983 0.961 . S
H971 C983 0.959 . S
H972 C986 0.929 . S
H973 C987 0.931 . S
H974 C989 0.930 . S
C975 H963 0.930 . S
C975 C976 1.380 1_554 S
C975 C980 1.399 . S
C976 C975 1.380 1_556 S
C976 C977 1.400 . S
C977 H964 0.930 . S
C977 C976 1.400 . S
C977 C978 1.388 . S
C978 H965 0.930 . S
C978 C977 1.388 . S
C978 C979 1.390 . S
C979 C978 1.390 . S
C979 C980 1.394 1_556 S
C979 C985 1.465 . S
C980 C975 1.399 . S
C980 C979 1.394 1_554 S
C980 C981 1.516 . S
C981 C980 1.516 . S
C981 C982 1.502 . S
C981 C983 1.561 . S
C981 C984 1.526 . S
C982 H966 0.959 . S
C982 H967 0.959 . S
C982 H968 0.961 . S
C982 C981 1.502 . S
C983 H969 0.960 . S
C983 H970 0.961 . S
C983 H971 0.959 . S
C983 C981 1.561 . S
C984 C981 1.526 . S
C984 C985 1.396 1_554 S
C984 C989 1.390 . S
C985 C979 1.465 . S
C985 C984 1.396 1_556 S
C985 C986 1.399 . S
C986 H972 0.929 . S
C986 C985 1.399 . S
C986 C987 1.385 . S
C987 H973 0.931 . S
C987 C986 1.385 . S
C987 C988 1.389 . S
C988 C987 1.389 . S
C988 C989 1.387 1_556 S
C989 H974 0.930 . S
C989 C984 1.390 . S
C989 C988 1.387 1_554 S
H990 C1002 0.930 . S
H991 C1004 0.930 . S
H992 C1005 0.930 . S
H993 C1009 0.959 . S
H994 C1009 0.959 . S
H995 C1009 0.961 . S
H996 C1010 0.960 . S
H997 C1010 0.961 . S
H998 C1010 0.959 . S
H999 C1013 0.929 . S
H1000 C1014 0.931 . S
H1001 C1016 0.930 . S
C1002 H990 0.930 . S
C1002 C1003 1.399 1_556 S
C1002 C1007 1.399 . S
C1003 C1002 1.399 1_554 S
C1003 C1004 1.376 . S
C1004 H991 0.930 . S
C1004 C1003 1.376 . S
C1004 C1005 1.388 . S
C1005 H992 0.930 . S
C1005 C1004 1.388 . S
C1005 C1006 1.390 . S
C1006 C1005 1.390 . S
C1006 C1007 1.394 1_554 S
C1006 C1012 1.465 . S
C1007 C1002 1.399 . S
C1007 C1006 1.394 1_556 S
C1007 C1008 1.516 . S
C1008 C1007 1.516 . S
C1008 C1009 1.502 . S
C1008 C1010 1.561 . S
C1008 C1011 1.526 . S
C1009 H993 0.959 . S
C1009 H994 0.959 . S
C1009 H995 0.961 . S
C1009 C1008 1.502 . S
C1010 H996 0.960 . S
C1010 H997 0.961 . S
C1010 H998 0.959 . S
C1010 C1008 1.561 . S
C1011 C1008 1.526 . S
C1011 C1012 1.396 1_556 S
C1011 C1016 1.390 . S
C1012 C1006 1.465 . S
C1012 C1011 1.396 1_554 S
C1012 C1013 1.399 . S
C1013 H999 0.929 . S
C1013 C1012 1.399 . S
C1013 C1014 1.385 . S
C1014 H1000 0.931 . S
C1014 C1013 1.385 . S
C1014 C1015 1.389 . S
C1015 C1014 1.389 . S
C1015 C1016 1.387 1_554 S
C1016 H1001 0.930 . S
C1016 C1011 1.390 . S
C1016 C1015 1.387 1_556 S
H1017 C1029 0.930 . S
H1018 C1031 0.930 . S
H1019 C1032 0.930 . S
H1020 C1036 0.959 . S
H1021 C1036 0.959 . S
H1022 C1036 0.961 . S
H1023 C1037 0.960 . S
H1024 C1037 0.961 . S
H1025 C1037 0.959 . S
H1026 C1040 0.929 . S
H1027 C1041 0.931 . S
H1028 C1043 0.930 . S
C1029 H1017 0.930 . S
C1029 C1030 1.399 1_554 S
C1029 C1034 1.399 . S
C1030 C1029 1.399 1_556 S
C1030 C1031 1.376 . S
C1031 H1018 0.930 . S
C1031 C1030 1.376 . S
C1031 C1032 1.388 . S
C1032 H1019 0.930 . S
C1032 C1031 1.388 . S
C1032 C1033 1.390 . S
C1033 C1032 1.390 . S
C1033 C1034 1.394 1_556 S
C1033 C1039 1.465 . S
C1034 C1029 1.399 . S
C1034 C1033 1.394 1_554 S
C1034 C1035 1.516 . S
C1035 C1034 1.516 . S
C1035 C1036 1.502 . S
C1035 C1037 1.561 . S
C1035 C1038 1.526 . S
C1036 H1020 0.959 . S
C1036 H1021 0.959 . S
C1036 H1022 0.961 . S
C1036 C1035 1.502 . S
C1037 H1023 0.960 . S
C1037 H1024 0.961 . S
C1037 H1025 0.959 . S
C1037 C1035 1.561 . S
C1038 C1035 1.526 . S
C1038 C1039 1.396 1_554 S
C1038 C1043 1.390 . S
C1039 C1033 1.465 . S
C1039 C1038 1.396 1_556 S
C1039 C1040 1.399 . S
C1040 H1026 0.929 . S
C1040 C1039 1.399 . S
C1040 C1041 1.385 . S
C1041 H1027 0.931 . S
C1041 C1040 1.385 . S
C1041 C1042 1.389 . S
C1042 C1041 1.389 . S
C1042 C1043 1.387 1_556 S
C1043 H1028 0.930 . S
C1043 C1038 1.390 . S
C1043 C1042 1.387 1_554 S
H1044 C1056 0.930 1_655 S
H1045 C1058 0.930 . S
H1046 C1059 0.930 . S
H1047 C1063 0.959 . S
H1048 C1063 0.959 . S
H1049 C1063 0.961 . S
H1050 C1064 0.960 . S
H1051 C1064 0.961 . S
H1052 C1064 0.959 . S
H1053 C1067 0.929 . S
H1054 C1068 0.931 . S
H1055 C1070 0.930 1_655 S
C1056 H1044 0.930 1_455 S
C1056 C1057 1.399 . S
C1056 C1061 1.399 . S
C1057 C1056 1.399 . S
C1057 C1058 1.376 . S
C1058 H1045 0.930 . S
C1058 C1057 1.376 . S
C1058 C1059 1.388 . S
C1059 H1046 0.930 . S
C1059 C1058 1.388 . S
C1059 C1060 1.390 . S
C1060 C1059 1.390 . S
C1060 C1061 1.394 . S
C1060 C1066 1.465 . S
C1061 C1056 1.399 . S
C1061 C1060 1.394 . S
C1061 C1062 1.516 1_455 S
C1062 C1061 1.516 1_655 S
C1062 C1063 1.502 . S
C1062 C1064 1.561 1_655 S
C1062 C1065 1.526 1_655 S
C1063 H1047 0.959 . S
C1063 H1048 0.959 . S
C1063 H1049 0.961 . S
C1063 C1062 1.502 . S
C1064 H1050 0.960 . S
C1064 H1051 0.961 . S
C1064 H1052 0.959 . S
C1064 C1062 1.561 1_455 S
C1065 C1062 1.526 1_455 S
C1065 C1066 1.396 . S
C1065 C1070 1.390 . S
C1066 C1060 1.465 . S
C1066 C1065 1.396 . S
C1066 C1067 1.399 . S
C1067 H1053 0.929 . S
C1067 C1066 1.399 . S
C1067 C1068 1.385 . S
C1068 H1054 0.931 . S
C1068 C1067 1.385 . S
C1068 C1069 1.389 . S
C1069 C1068 1.389 . S
C1069 C1070 1.387 . S
C1070 H1055 0.930 1_455 S
C1070 C1065 1.390 . S
C1070 C1069 1.387 . S
H1071 C1083 0.930 . S
H1072 C1085 0.930 . S
H1073 C1086 0.930 . S
H1074 C1090 0.959 . S
H1075 C1090 0.959 . S
H1076 C1090 0.961 . S
H1077 C1091 0.960 . S
H1078 C1091 0.961 . S
H1079 C1091 0.959 . S
H1080 C1094 0.929 . S
H1081 C1095 0.931 . S
H1082 C1097 0.930 . S
C1083 H1071 0.930 . S
C1083 C1084 1.399 1_565 S
C1083 C1088 1.399 . S
C1084 C1083 1.399 1_545 S
C1084 C1085 1.376 . S
C1085 H1072 0.930 . S
C1085 C1084 1.376 . S
C1085 C1086 1.388 . S
C1086 H1073 0.930 . S
C1086 C1085 1.388 . S
C1086 C1087 1.390 . S
C1087 C1086 1.390 . S
C1087 C1088 1.394 1_545 S
C1087 C1093 1.465 . S
C1088 C1083 1.399 . S
C1088 C1087 1.394 1_565 S
C1088 C1089 1.516 . S
C1089 C1088 1.516 . S
C1089 C1090 1.502 . S
C1089 C1091 1.561 . S
C1089 C1092 1.526 . S
C1090 H1074 0.959 . S
C1090 H1075 0.959 . S
C1090 H1076 0.961 . S
C1090 C1089 1.502 . S
C1091 H1077 0.960 . S
C1091 H1078 0.961 . S
C1091 H1079 0.959 . S
C1091 C1089 1.561 . S
C1092 C1089 1.526 . S
C1092 C1093 1.396 1_565 S
C1092 C1097 1.390 . S
C1093 C1087 1.465 . S
C1093 C1092 1.396 1_545 S
C1093 C1094 1.399 . S
C1094 H1080 0.929 . S
C1094 C1093 1.399 . S
C1094 C1095 1.385 . S
C1095 H1081 0.931 . S
C1095 C1094 1.385 . S
C1095 C1096 1.389 . S
C1096 C1095 1.389 . S
C1096 C1097 1.387 1_545 S
C1097 H1082 0.930 . S
C1097 C1092 1.390 . S
C1097 C1096 1.387 1_565 S
H1098 C1110 0.930 1_655 S
H1099 C1112 0.930 . S
H1100 C1113 0.930 . S
H1101 C1117 0.959 . S
H1102 C1117 0.959 . S
H1103 C1117 0.961 . S
H1104 C1118 0.960 . S
H1105 C1118 0.961 . S
H1106 C1118 0.959 . S
H1107 C1121 0.929 . S
H1108 C1122 0.931 . S
H1109 C1124 0.930 1_655 S
C1110 H1098 0.930 1_455 S
C1110 C1111 1.399 . S
C1110 C1115 1.399 . S
C1111 C1110 1.399 . S
C1111 C1112 1.376 . S
C1112 H1099 0.930 . S
C1112 C1111 1.376 . S
C1112 C1113 1.388 . S
C1113 H1100 0.930 . S
C1113 C1112 1.388 . S
C1113 C1114 1.390 . S
C1114 C1113 1.390 . S
C1114 C1115 1.394 . S
C1114 C1120 1.465 . S
C1115 C1110 1.399 . S
C1115 C1114 1.394 . S
C1115 C1116 1.516 1_455 S
C1116 C1115 1.516 1_655 S
C1116 C1117 1.502 . S
C1116 C1118 1.561 1_655 S
C1116 C1119 1.526 1_655 S
C1117 H1101 0.959 . S
C1117 H1102 0.959 . S
C1117 H1103 0.961 . S
C1117 C1116 1.502 . S
C1118 H1104 0.960 . S
C1118 H1105 0.961 . S
C1118 H1106 0.959 . S
C1118 C1116 1.561 1_455 S
C1119 C1116 1.526 1_455 S
C1119 C1120 1.396 . S
C1119 C1124 1.390 . S
C1120 C1114 1.465 . S
C1120 C1119 1.396 . S
C1120 C1121 1.399 . S
C1121 H1107 0.929 . S
C1121 C1120 1.399 . S
C1121 C1122 1.385 . S
C1122 H1108 0.931 . S
C1122 C1121 1.385 . S
C1122 C1123 1.389 . S
C1123 C1122 1.389 . S
C1123 C1124 1.387 . S
C1124 H1109 0.930 1_455 S
C1124 C1119 1.390 . S
C1124 C1123 1.387 . S
H1125 C1137 0.930 . S
H1126 C1139 0.930 . S
H1127 C1140 0.930 . S
H1128 C1144 0.959 1_565 S
H1129 C1144 0.959 . S
H1130 C1144 0.961 . S
H1131 C1145 0.960 . S
H1132 C1145 0.961 . S
H1133 C1145 0.959 . S
H1134 C1148 0.929 . S
H1135 C1149 0.931 . S
H1136 C1151 0.930 . S
C1137 H1125 0.930 . S
C1137 C1138 1.398 1_545 S
C1137 C1142 1.399 . S
C1138 C1137 1.398 1_565 S
C1138 C1139 1.378 . S
C1139 H1126 0.930 . S
C1139 C1138 1.378 . S
C1139 C1140 1.388 . S
C1140 H1127 0.930 . S
C1140 C1139 1.388 . S
C1140 C1141 1.390 . S
C1141 C1140 1.390 . S
C1141 C1142 1.394 1_565 S
C1141 C1147 1.465 . S
C1142 C1137 1.399 . S
C1142 C1141 1.394 1_545 S
C1142 C1143 1.516 . S
C1143 C1142 1.516 . S
C1143 C1144 1.502 . S
C1143 C1145 1.561 . S
C1143 C1146 1.526 . S
C1144 H1128 0.959 1_545 S
C1144 H1129 0.959 . S
C1144 H1130 0.961 . S
C1144 C1143 1.502 . S
C1145 H1131 0.960 . S
C1145 H1132 0.961 . S
C1145 H1133 0.959 . S
C1145 C1143 1.561 . S
C1146 C1143 1.526 . S
C1146 C1147 1.396 1_545 S
C1146 C1151 1.390 . S
C1147 C1141 1.465 . S
C1147 C1146 1.396 1_565 S
C1147 C1148 1.399 . S
C1148 H1134 0.929 . S
C1148 C1147 1.399 . S
C1148 C1149 1.385 . S
C1149 H1135 0.931 . S
C1149 C1148 1.385 . S
C1149 C1150 1.407 . S
C1150 C1149 1.407 . S
C1150 C1151 1.372 1_565 S
C1151 H1136 0.930 . S
C1151 C1146 1.390 . S
C1151 C1150 1.372 1_545 S
H1152 C1164 0.930 . S
H1153 C1166 0.930 . S
H1154 C1167 0.930 . S
H1155 C1171 0.959 . S
H1156 C1171 0.959 . S
H1157 C1171 0.961 . S
H1158 C1172 0.960 . S
H1159 C1172 0.961 . S
H1160 C1172 0.959 . S
H1161 C1175 0.929 . S
H1162 C1176 0.931 . S
H1163 C1178 0.930 . S
C1164 H1152 0.930 . S
C1164 C1165 1.399 1_655 S
C1164 C1169 1.400 . S
C1165 C1164 1.399 1_455 S
C1165 C1166 1.376 . S
C1166 H1153 0.930 . S
C1166 C1165 1.376 . S
C1166 C1167 1.388 . S
C1167 H1154 0.930 . S
C1167 C1166 1.388 . S
C1167 C1168 1.390 . S
C1168 C1167 1.390 . S
C1168 C1169 1.388 1_455 S
C1168 C1174 1.465 . S
C1169 C1164 1.400 . S
C1169 C1168 1.388 1_655 S
C1169 C1170 1.520 . S
C1170 C1169 1.520 . S
C1170 C1171 1.502 . S
C1170 C1172 1.561 . S
C1170 C1173 1.528 1_655 S
C1171 H1155 0.959 . S
C1171 H1156 0.959 . S
C1171 H1157 0.961 . S
C1171 C1170 1.502 . S
C1172 H1158 0.960 . S
C1172 H1159 0.961 . S
C1172 H1160 0.959 . S
C1172 C1170 1.561 . S
C1173 C1170 1.528 1_455 S
C1173 C1174 1.393 . S
C1173 C1178 1.390 1_455 S
C1174 C1168 1.465 . S
C1174 C1173 1.393 . S
C1174 C1175 1.399 . S
C1175 H1161 0.929 . S
C1175 C1174 1.399 . S
C1175 C1176 1.385 . S
C1176 H1162 0.931 . S
C1176 C1175 1.385 . S
C1176 C1177 1.389 . S
C1177 C1176 1.389 . S
C1177 C1178 1.387 1_455 S
C1178 H1163 0.930 . S
C1178 C1173 1.390 1_655 S
C1178 C1177 1.387 1_655 S
H1179 C1191 0.930 . S
H1180 C1193 0.930 . S
H1181 C1194 0.930 . S
H1182 C1198 0.959 . S
H1183 C1198 0.959 . S
H1184 C1198 0.961 . S
H1185 C1199 0.960 . S
H1186 C1199 0.961 . S
H1187 C1199 0.959 . S
H1188 C1202 0.929 . S
H1189 C1203 0.931 . S
H1190 C1205 0.930 . S
C1191 H1179 0.930 . S
C1191 C1192 1.399 1_545 S
C1191 C1196 1.399 . S
C1192 C1191 1.399 1_565 S
C1192 C1193 1.376 . S
C1193 H1180 0.930 . S
C1193 C1192 1.376 . S
C1193 C1194 1.388 . S
C1194 H1181 0.930 . S
C1194 C1193 1.388 . S
C1194 C1195 1.390 . S
C1195 C1194 1.390 . S
C1195 C1196 1.394 1_565 S
C1195 C1201 1.465 . S
C1196 C1191 1.399 . S
C1196 C1195 1.394 1_545 S
C1196 C1197 1.516 . S
C1197 C1196 1.516 . S
C1197 C1198 1.502 . S
C1197 C1199 1.561 . S
C1197 C1200 1.526 . S
C1198 H1182 0.959 . S
C1198 H1183 0.959 . S
C1198 H1184 0.961 . S
C1198 C1197 1.502 . S
C1199 H1185 0.960 . S
C1199 H1186 0.961 . S
C1199 H1187 0.959 . S
C1199 C1197 1.561 . S
C1200 C1197 1.526 . S
C1200 C1201 1.396 1_545 S
C1200 C1205 1.390 . S
C1201 C1195 1.465 . S
C1201 C1200 1.396 1_565 S
C1201 C1202 1.399 . S
C1202 H1188 0.929 . S
C1202 C1201 1.399 . S
C1202 C1203 1.385 . S
C1203 H1189 0.931 . S
C1203 C1202 1.385 . S
C1203 C1204 1.389 . S
C1204 C1203 1.389 . S
C1204 C1205 1.387 1_565 S
C1205 H1190 0.930 . S
C1205 C1200 1.390 . S
C1205 C1204 1.387 1_545 S
H1206 C1218 0.930 . S
H1207 C1220 0.930 . S
H1208 C1221 0.930 . S
H1209 C1225 0.959 . S
H1210 C1225 0.959 . S
H1211 C1225 0.961 . S
H1212 C1226 0.960 . S
H1213 C1226 0.961 . S
H1214 C1226 0.959 1_655 S
H1215 C1229 0.929 . S
H1216 C1230 0.931 . S
H1217 C1232 0.930 . S
C1218 H1206 0.930 . S
C1218 C1219 1.399 . S
C1218 C1223 1.399 . S
C1219 C1218 1.399 . S
C1219 C1220 1.376 1_455 S
C1220 H1207 0.930 . S
C1220 C1219 1.376 1_655 S
C1220 C1221 1.388 . S
C1221 H1208 0.930 . S
C1221 C1220 1.388 . S
C1221 C1222 1.390 1_655 S
C1222 C1221 1.390 1_455 S
C1222 C1223 1.394 . S
C1222 C1228 1.465 . S
C1223 C1218 1.399 . S
C1223 C1222 1.394 . S
C1223 C1224 1.516 . S
C1224 C1223 1.516 . S
C1224 C1225 1.502 . S
C1224 C1226 1.561 . S
C1224 C1227 1.526 . S
C1225 H1209 0.959 . S
C1225 H1210 0.959 . S
C1225 H1211 0.961 . S
C1225 C1224 1.502 . S
C1226 H1212 0.960 . S
C1226 H1213 0.961 . S
C1226 H1214 0.959 1_455 S
C1226 C1224 1.561 . S
C1227 C1224 1.526 . S
C1227 C1228 1.396 . S
C1227 C1232 1.390 . S
C1228 C1222 1.465 . S
C1228 C1227 1.396 . S
C1228 C1229 1.399 1_455 S
C1229 H1215 0.929 . S
C1229 C1228 1.399 1_655 S
C1229 C1230 1.385 . S
C1230 H1216 0.931 . S
C1230 C1229 1.385 . S
C1230 C1231 1.389 1_655 S
C1231 C1230 1.389 1_455 S
C1231 C1232 1.387 . S
C1232 H1217 0.930 . S
C1232 C1227 1.390 . S
C1232 C1231 1.387 . S
H1233 C1245 0.930 . S
H1234 C1247 0.930 . S
H1235 C1248 0.930 . S
H1236 C1252 0.959 . S
H1237 C1252 0.959 . S
H1238 C1252 0.961 . S
H1239 C1253 0.960 . S
H1240 C1253 0.961 . S
H1241 C1253 0.959 . S
H1242 C1256 0.929 . S
H1243 C1257 0.931 . S
H1244 C1259 0.930 . S
C1245 H1233 0.930 . S
C1245 C1246 1.399 1_565 S
C1245 C1250 1.399 . S
C1246 C1245 1.399 1_545 S
C1246 C1247 1.376 . S
C1247 H1234 0.930 . S
C1247 C1246 1.376 . S
C1247 C1248 1.388 . S
C1248 H1235 0.930 . S
C1248 C1247 1.388 . S
C1248 C1249 1.390 . S
C1249 C1248 1.390 . S
C1249 C1250 1.394 1_545 S
C1249 C1255 1.465 . S
C1250 C1245 1.399 . S
C1250 C1249 1.394 1_565 S
C1250 C1251 1.516 . S
C1251 C1250 1.516 . S
C1251 C1252 1.502 . S
C1251 C1253 1.561 . S
C1251 C1254 1.526 . S
C1252 H1236 0.959 . S
C1252 H1237 0.959 . S
C1252 H1238 0.961 . S
C1252 C1251 1.502 . S
C1253 H1239 0.960 . S
C1253 H1240 0.961 . S
C1253 H1241 0.959 . S
C1253 C1251 1.561 . S
C1254 C1251 1.526 . S
C1254 C1255 1.396 1_565 S
C1254 C1259 1.390 . S
C1255 C1249 1.465 . S
C1255 C1254 1.396 1_545 S
C1255 C1256 1.399 . S
C1256 H1242 0.929 . S
C1256 C1255 1.399 . S
C1256 C1257 1.385 . S
C1257 H1243 0.931 . S
C1257 C1256 1.385 . S
C1257 C1258 1.389 . S
C1258 C1257 1.389 . S
C1258 C1259 1.387 1_545 S
C1259 H1244 0.930 . S
C1259 C1254 1.390 . S
C1259 C1258 1.387 1_565 S
H1260 C1272 0.930 1_655 S
H1261 C1274 0.930 . S
H1262 C1275 0.930 . S
H1263 C1279 0.959 . S
H1264 C1279 0.959 . S
H1265 C1279 0.961 . S
H1266 C1280 0.960 . S
H1267 C1280 0.961 . S
H1268 C1280 0.959 . S
H1269 C1283 0.929 . S
H1270 C1284 0.931 . S
H1271 C1286 0.930 . S
C1272 H1260 0.930 1_455 S
C1272 C1273 1.399 . S
C1272 C1277 1.399 . S
C1273 C1272 1.399 . S
C1273 C1274 1.376 . S
C1274 H1261 0.930 . S
C1274 C1273 1.376 . S
C1274 C1275 1.388 . S
C1275 H1262 0.930 . S
C1275 C1274 1.388 . S
C1275 C1276 1.390 . S
C1276 C1275 1.390 . S
C1276 C1277 1.394 . S
C1276 C1282 1.465 . S
C1277 C1272 1.399 . S
C1277 C1276 1.394 . S
C1277 C1278 1.516 1_455 S
C1278 C1277 1.516 1_655 S
C1278 C1279 1.502 . S
C1278 C1280 1.561 1_655 S
C1278 C1281 1.526 1_655 S
C1279 H1263 0.959 . S
C1279 H1264 0.959 . S
C1279 H1265 0.961 . S
C1279 C1278 1.502 . S
C1280 H1266 0.960 . S
C1280 H1267 0.961 . S
C1280 H1268 0.959 . S
C1280 C1278 1.561 1_455 S
C1281 C1278 1.526 1_455 S
C1281 C1282 1.396 . S
C1281 C1286 1.390 1_455 S
C1282 C1276 1.465 . S
C1282 C1281 1.396 . S
C1282 C1283 1.399 . S
C1283 H1269 0.929 . S
C1283 C1282 1.399 . S
C1283 C1284 1.385 . S
C1284 H1270 0.931 . S
C1284 C1283 1.385 . S
C1284 C1285 1.389 . S
C1285 C1284 1.389 . S
C1285 C1286 1.387 1_455 S
C1286 H1271 0.930 . S
C1286 C1281 1.390 1_655 S
C1286 C1285 1.387 1_655 S
H1287 C1299 0.930 . S
H1288 C1301 0.930 . S
H1289 C1302 0.930 . S
H1290 C1306 0.959 . S
H1291 C1306 0.959 . S
H1292 C1306 0.961 . S
H1293 C1307 0.960 . S
H1294 C1307 0.961 . S
H1295 C1307 0.959 . S
H1296 C1310 0.929 . S
H1297 C1311 0.931 . S
H1298 C1313 0.934 . S
C1299 H1287 0.930 . S
C1299 C1300 1.396 1_545 S
C1299 C1304 1.397 1_545 S
C1300 C1299 1.396 1_565 S
C1300 C1301 1.383 . S
C1301 H1288 0.930 . S
C1301 C1300 1.383 . S
C1301 C1302 1.388 . S
C1302 H1289 0.930 . S
C1302 C1301 1.388 . S
C1302 C1303 1.390 . S
C1303 C1302 1.390 . S
C1303 C1304 1.397 . S
C1303 C1309 1.465 . S
C1304 C1299 1.397 1_565 S
C1304 C1303 1.397 . S
C1304 C1305 1.516 . S
C1305 C1304 1.516 . S
C1305 C1306 1.498 1_565 S
C1305 C1307 1.565 . S
C1305 C1308 1.526 . S
C1306 H1290 0.959 . S
C1306 H1291 0.959 . S
C1306 H1292 0.961 . S
C1306 C1305 1.498 1_545 S
C1307 H1293 0.960 . S
C1307 H1294 0.961 . S
C1307 H1295 0.959 . S
C1307 C1305 1.565 . S
C1308 C1305 1.526 . S
C1308 C1309 1.399 . S
C1308 C1313 1.388 1_565 S
C1309 C1303 1.465 . S
C1309 C1308 1.399 . S
C1309 C1310 1.399 . S
C1310 H1296 0.929 . S
C1310 C1309 1.399 . S
C1310 C1311 1.385 . S
C1311 H1297 0.931 . S
C1311 C1310 1.385 . S
C1311 C1312 1.390 . S
C1312 C1311 1.390 . S
C1312 C1313 1.385 1_565 S
C1313 H1298 0.934 . S
C1313 C1308 1.388 1_545 S
C1313 C1312 1.385 1_545 S
H1314 C1326 0.930 . S
H1315 C1328 0.930 . S
H1316 C1329 0.930 . S
H1317 C1333 0.959 . S
H1318 C1333 0.959 . S
H1319 C1333 0.961 . S
H1320 C1334 0.960 . S
H1321 C1334 0.961 . S
H1322 C1334 0.959 . S
H1323 C1337 0.929 . S
H1324 C1338 0.931 . S
H1325 C1340 0.930 . S
C1326 H1314 0.930 . S
C1326 C1327 1.399 . S
C1326 C1331 1.399 . S
C1327 C1326 1.399 . S
C1327 C1328 1.376 1_455 S
C1328 H1315 0.930 . S
C1328 C1327 1.376 1_655 S
C1328 C1329 1.388 . S
C1329 H1316 0.930 . S
C1329 C1328 1.388 . S
C1329 C1330 1.390 1_655 S
C1330 C1329 1.390 1_455 S
C1330 C1331 1.394 . S
C1330 C1336 1.465 . S
C1331 C1326 1.399 . S
C1331 C1330 1.394 . S
C1331 C1332 1.516 . S
C1332 C1331 1.516 . S
C1332 C1333 1.502 . S
C1332 C1334 1.561 1_455 S
C1332 C1335 1.526 . S
C1333 H1317 0.959 . S
C1333 H1318 0.959 . S
C1333 H1319 0.961 . S
C1333 C1332 1.502 . S
C1334 H1320 0.960 . S
C1334 H1321 0.961 . S
C1334 H1322 0.959 . S
C1334 C1332 1.561 1_655 S
C1335 C1332 1.526 . S
C1335 C1336 1.396 . S
C1335 C1340 1.390 . S
C1336 C1330 1.465 . S
C1336 C1335 1.396 . S
C1336 C1337 1.399 1_455 S
C1337 H1323 0.929 . S
C1337 C1336 1.399 1_655 S
C1337 C1338 1.385 . S
C1338 H1324 0.931 . S
C1338 C1337 1.385 . S
C1338 C1339 1.389 1_655 S
C1339 C1338 1.389 1_455 S
C1339 C1340 1.387 . S
C1340 H1325 0.930 . S
C1340 C1335 1.390 . S
C1340 C1339 1.387 . S
H1341 C1353 0.930 . S
H1342 C1355 0.930 . S
H1343 C1356 0.930 . S
H1344 C1360 0.959 . S
H1345 C1360 0.959 . S
H1346 C1360 0.961 . S
H1347 C1361 0.960 . S
H1348 C1361 0.961 . S
H1349 C1361 0.959 . S
H1350 C1364 0.929 . S
H1351 C1365 0.931 . S
H1352 C1367 0.930 . S
C1353 H1341 0.930 . S
C1353 C1354 1.399 1_545 S
C1353 C1358 1.399 . S
C1354 C1353 1.399 1_565 S
C1354 C1355 1.376 . S
C1355 H1342 0.930 . S
C1355 C1354 1.376 . S
C1355 C1356 1.388 . S
C1356 H1343 0.930 . S
C1356 C1355 1.388 . S
C1356 C1357 1.390 . S
C1357 C1356 1.390 . S
C1357 C1358 1.394 1_565 S
C1357 C1363 1.465 . S
C1358 C1353 1.399 . S
C1358 C1357 1.394 1_545 S
C1358 C1359 1.516 . S
C1359 C1358 1.516 . S
C1359 C1360 1.502 . S
C1359 C1361 1.561 . S
C1359 C1362 1.526 . S
C1360 H1344 0.959 . S
C1360 H1345 0.959 . S
C1360 H1346 0.961 . S
C1360 C1359 1.502 . S
C1361 H1347 0.960 . S
C1361 H1348 0.961 . S
C1361 H1349 0.959 . S
C1361 C1359 1.561 . S
C1362 C1359 1.526 . S
C1362 C1363 1.396 1_545 S
C1362 C1367 1.390 . S
C1363 C1357 1.465 . S
C1363 C1362 1.396 1_565 S
C1363 C1364 1.399 . S
C1364 H1350 0.929 . S
C1364 C1363 1.399 . S
C1364 C1365 1.385 . S
C1365 H1351 0.931 . S
C1365 C1364 1.385 . S
C1365 C1366 1.389 . S
C1366 C1365 1.389 . S
C1366 C1367 1.387 1_565 S
C1367 H1352 0.930 . S
C1367 C1362 1.390 . S
C1367 C1366 1.387 1_545 S
H1368 C1380 0.930 . S
H1369 C1382 0.930 . S
H1370 C1383 0.930 . S
H1371 C1387 0.959 . S
H1372 C1387 0.959 . S
H1373 C1387 0.961 . S
H1374 C1388 0.960 . S
H1375 C1388 0.961 . S
H1376 C1388 0.959 . S
H1377 C1391 0.929 . S
H1378 C1392 0.931 . S
H1379 C1394 0.930 . S
C1380 H1368 0.930 . S
C1380 C1381 1.399 . S
C1380 C1385 1.399 . S
C1381 C1380 1.399 . S
C1381 C1382 1.376 1_455 S
C1382 H1369 0.930 . S
C1382 C1381 1.376 1_655 S
C1382 C1383 1.388 . S
C1383 H1370 0.930 . S
C1383 C1382 1.388 . S
C1383 C1384 1.390 . S
C1384 C1383 1.390 . S
C1384 C1385 1.394 1_655 S
C1384 C1390 1.465 . S
C1385 C1380 1.399 . S
C1385 C1384 1.394 1_455 S
C1385 C1386 1.516 . S
C1386 C1385 1.516 . S
C1386 C1387 1.502 . S
C1386 C1388 1.561 . S
C1386 C1389 1.526 . S
C1387 H1371 0.959 . S
C1387 H1372 0.959 . S
C1387 H1373 0.961 . S
C1387 C1386 1.502 . S
C1388 H1374 0.960 . S
C1388 H1375 0.961 . S
C1388 H1376 0.959 . S
C1388 C1386 1.561 . S
C1389 C1386 1.526 . S
C1389 C1390 1.396 1_455 S
C1389 C1394 1.390 . S
C1390 C1384 1.465 . S
C1390 C1389 1.396 1_655 S
C1390 C1391 1.399 . S
C1391 H1377 0.929 . S
C1391 C1390 1.399 . S
C1391 C1392 1.385 . S
C1392 H1378 0.931 . S
C1392 C1391 1.385 . S
C1392 C1393 1.389 1_655 S
C1393 C1392 1.389 1_455 S
C1393 C1394 1.387 . S
C1394 H1379 0.930 . S
C1394 C1389 1.390 . S
C1394 C1393 1.387 . S
H1395 C1407 0.930 . S
H1396 C1409 0.930 . S
H1397 C1410 0.930 . S
H1398 C1414 0.959 . S
H1399 C1414 0.959 . S
H1400 C1414 0.961 . S
H1401 C1415 0.960 . S
H1402 C1415 0.961 . S
H1403 C1415 0.959 . S
H1404 C1418 0.929 . S
H1405 C1419 0.931 . S
H1406 C1421 0.930 . S
C1407 H1395 0.930 . S
C1407 C1408 1.399 1_545 S
C1407 C1412 1.399 1_545 S
C1408 C1407 1.399 1_565 S
C1408 C1409 1.376 . S
C1409 H1396 0.930 . S
C1409 C1408 1.376 . S
C1409 C1410 1.388 . S
C1410 H1397 0.930 . S
C1410 C1409 1.388 . S
C1410 C1411 1.390 . S
C1411 C1410 1.390 . S
C1411 C1412 1.394 . S
C1411 C1417 1.465 . S
C1412 C1407 1.399 1_565 S
C1412 C1411 1.394 . S
C1412 C1413 1.516 . S
C1413 C1412 1.516 . S
C1413 C1414 1.502 1_565 S
C1413 C1415 1.561 . S
C1413 C1416 1.526 . S
C1414 H1398 0.959 . S
C1414 H1399 0.959 . S
C1414 H1400 0.961 . S
C1414 C1413 1.502 1_545 S
C1415 H1401 0.960 . S
C1415 H1402 0.961 . S
C1415 H1403 0.959 . S
C1415 C1413 1.561 . S
C1416 C1413 1.526 . S
C1416 C1417 1.396 . S
C1416 C1421 1.389 1_565 S
C1417 C1411 1.465 . S
C1417 C1416 1.396 . S
C1417 C1418 1.399 . S
C1418 H1404 0.929 . S
C1418 C1417 1.399 . S
C1418 C1419 1.385 . S
C1419 H1405 0.931 . S
C1419 C1418 1.385 . S
C1419 C1420 1.390 . S
C1420 C1419 1.390 . S
C1420 C1421 1.386 1_565 S
C1421 H1406 0.930 . S
C1421 C1416 1.389 1_545 S
C1421 C1420 1.386 1_545 S
H1422 C1434 0.930 . S
H1423 C1436 0.929 1_655 S
H1424 C1437 0.930 . S
H1425 C1441 0.959 . S
H1426 C1441 0.959 . S
H1427 C1441 0.961 . S
H1428 C1442 0.960 . S
H1429 C1442 0.961 . S
H1430 C1442 0.959 . S
H1431 C1445 0.929 . S
H1432 C1446 0.930 . S
H1433 C1448 0.930 . S
C1434 H1422 0.930 . S
C1434 C1435 1.399 . S
C1434 C1439 1.399 . S
C1435 C1434 1.399 . S
C1435 C1436 1.376 . S
C1436 H1423 0.929 1_455 S
C1436 C1435 1.376 . S
C1436 C1437 1.388 1_455 S
C1437 H1424 0.930 . S
C1437 C1436 1.388 1_655 S
C1437 C1438 1.390 1_655 S
C1438 C1437 1.390 1_455 S
C1438 C1439 1.394 . S
C1438 C1444 1.465 . S
C1439 C1434 1.399 . S
C1439 C1438 1.394 . S
C1439 C1440 1.516 . S
C1440 C1439 1.516 . S
C1440 C1441 1.502 . S
C1440 C1442 1.561 1_455 S
C1440 C1443 1.526 . S
C1441 H1425 0.959 . S
C1441 H1426 0.959 . S
C1441 H1427 0.961 . S
C1441 C1440 1.502 . S
C1442 H1428 0.960 . S
C1442 H1429 0.961 . S
C1442 H1430 0.959 . S
C1442 C1440 1.561 1_655 S
C1443 C1440 1.526 . S
C1443 C1444 1.396 . S
C1443 C1448 1.390 . S
C1444 C1438 1.465 . S
C1444 C1443 1.396 . S
C1444 C1445 1.399 1_455 S
C1445 H1431 0.929 . S
C1445 C1444 1.399 1_655 S
C1445 C1446 1.385 . S
C1446 H1432 0.930 . S
C1446 C1445 1.385 . S
C1446 C1447 1.390 1_655 S
C1447 C1446 1.390 1_455 S
C1447 C1448 1.387 . S
C1448 H1433 0.930 . S
C1448 C1443 1.390 . S
C1448 C1447 1.387 . S
H1449 C1461 0.930 . S
H1450 C1463 0.930 . S
H1451 C1464 0.930 . S
H1452 C1468 0.959 . S
H1453 C1468 0.959 . S
H1454 C1468 0.961 . S
H1455 C1469 0.960 . S
H1456 C1469 0.961 . S
H1457 C1469 0.959 . S
H1458 C1472 0.929 . S
H1459 C1473 0.931 . S
H1460 C1475 0.930 . S
C1461 H1449 0.930 . S
C1461 C1462 1.399 1_545 S
C1461 C1466 1.399 . S
C1462 C1461 1.399 1_565 S
C1462 C1463 1.376 . S
C1463 H1450 0.930 . S
C1463 C1462 1.376 . S
C1463 C1464 1.388 . S
C1464 H1451 0.930 . S
C1464 C1463 1.388 . S
C1464 C1465 1.390 . S
C1465 C1464 1.390 . S
C1465 C1466 1.394 1_565 S
C1465 C1471 1.465 . S
C1466 C1461 1.399 . S
C1466 C1465 1.394 1_545 S
C1466 C1467 1.516 . S
C1467 C1466 1.516 . S
C1467 C1468 1.502 . S
C1467 C1469 1.561 . S
C1467 C1470 1.526 . S
C1468 H1452 0.959 . S
C1468 H1453 0.959 . S
C1468 H1454 0.961 . S
C1468 C1467 1.502 . S
C1469 H1455 0.960 . S
C1469 H1456 0.961 . S
C1469 H1457 0.959 . S
C1469 C1467 1.561 . S
C1470 C1467 1.526 . S
C1470 C1471 1.396 1_545 S
C1470 C1475 1.390 . S
C1471 C1465 1.465 . S
C1471 C1470 1.396 1_565 S
C1471 C1472 1.399 . S
C1472 H1458 0.929 . S
C1472 C1471 1.399 . S
C1472 C1473 1.385 . S
C1473 H1459 0.931 . S
C1473 C1472 1.385 . S
C1473 C1474 1.389 . S
C1474 C1473 1.389 . S
C1474 C1475 1.387 1_565 S
C1475 H1460 0.930 . S
C1475 C1470 1.390 . S
C1475 C1474 1.387 1_545 S
H1476 C1488 0.930 . S
H1477 C1490 0.930 . S
H1478 C1491 0.930 . S
H1479 C1495 0.959 . S
H1480 C1495 0.959 . S
H1481 C1495 0.961 . S
H1482 C1496 0.960 . S
H1483 C1496 0.961 . S
H1484 C1496 0.959 . S
H1485 C1499 0.929 . S
H1486 C1500 0.931 . S
H1487 C1502 0.930 . S
C1488 H1476 0.930 . S
C1488 C1489 1.399 1_545 S
C1488 C1493 1.399 . S
C1489 C1488 1.399 1_565 S
C1489 C1490 1.376 . S
C1490 H1477 0.930 . S
C1490 C1489 1.376 . S
C1490 C1491 1.388 . S
C1491 H1478 0.930 . S
C1491 C1490 1.388 . S
C1491 C1492 1.390 . S
C1492 C1491 1.390 . S
C1492 C1493 1.394 1_565 S
C1492 C1498 1.465 . S
C1493 C1488 1.399 . S
C1493 C1492 1.394 1_545 S
C1493 C1494 1.516 . S
C1494 C1493 1.516 . S
C1494 C1495 1.502 . S
C1494 C1496 1.561 . S
C1494 C1497 1.526 . S
C1495 H1479 0.959 . S
C1495 H1480 0.959 . S
C1495 H1481 0.961 . S
C1495 C1494 1.502 . S
C1496 H1482 0.960 . S
C1496 H1483 0.961 . S
C1496 H1484 0.959 . S
C1496 C1494 1.561 . S
C1497 C1494 1.526 . S
C1497 C1498 1.396 1_545 S
C1497 C1502 1.390 . S
C1498 C1492 1.465 . S
C1498 C1497 1.396 1_565 S
C1498 C1499 1.399 . S
C1499 H1485 0.929 . S
C1499 C1498 1.399 . S
C1499 C1500 1.385 . S
C1500 H1486 0.931 . S
C1500 C1499 1.385 . S
C1500 C1501 1.389 . S
C1501 C1500 1.389 . S
C1501 C1502 1.387 1_565 S
C1502 H1487 0.930 . S
C1502 C1497 1.390 . S
C1502 C1501 1.387 1_545 S
H1503 C1515 0.930 . S
H1504 C1517 0.930 . S
H1505 C1518 0.930 . S
H1506 C1522 0.959 . S
H1507 C1522 0.959 . S
H1508 C1522 0.961 . S
H1509 C1523 0.960 . S
H1510 C1523 0.961 . S
H1511 C1523 0.959 . S
H1512 C1526 0.929 . S
H1513 C1527 0.931 . S
H1514 C1529 0.930 . S
C1515 H1503 0.930 . S
C1515 C1516 1.399 . S
C1515 C1520 1.399 . S
C1516 C1515 1.399 . S
C1516 C1517 1.376 . S
C1517 H1504 0.930 . S
C1517 C1516 1.376 . S
C1517 C1518 1.388 . S
C1518 H1505 0.930 . S
C1518 C1517 1.388 . S
C1518 C1519 1.390 . S
C1519 C1518 1.390 . S
C1519 C1520 1.394 . S
C1519 C1525 1.465 . S
C1520 C1515 1.399 . S
C1520 C1519 1.394 . S
C1520 C1521 1.516 . S
C1521 C1520 1.516 . S
C1521 C1522 1.502 . S
C1521 C1523 1.561 1_455 S
C1521 C1524 1.526 . S
C1522 H1506 0.959 . S
C1522 H1507 0.959 . S
C1522 H1508 0.961 . S
C1522 C1521 1.502 . S
C1523 H1509 0.960 . S
C1523 H1510 0.961 . S
C1523 H1511 0.959 . S
C1523 C1521 1.561 1_655 S
C1524 C1521 1.526 . S
C1524 C1525 1.396 . S
C1524 C1529 1.390 . S
C1525 C1519 1.465 . S
C1525 C1524 1.396 . S
C1525 C1526 1.399 . S
C1526 H1512 0.929 . S
C1526 C1525 1.399 . S
C1526 C1527 1.385 . S
C1527 H1513 0.931 . S
C1527 C1526 1.385 . S
C1527 C1528 1.389 . S
C1528 C1527 1.389 . S
C1528 C1529 1.387 . S
C1529 H1514 0.930 . S
C1529 C1524 1.390 . S
C1529 C1528 1.387 . S
H1530 C1542 0.930 . S
H1531 C1544 0.930 . S
H1532 C1545 0.930 . S
H1533 C1549 0.959 1_565 S
H1534 C1549 0.959 . S
H1535 C1549 0.961 . S
H1536 C1550 0.960 . S
H1537 C1550 0.961 . S
H1538 C1550 0.959 . S
H1539 C1553 0.929 . S
H1540 C1554 0.931 . S
H1541 C1556 0.930 . S
C1542 H1530 0.930 . S
C1542 C1543 1.406 . S
C1542 C1547 1.399 . S
C1543 C1542 1.406 . S
C1543 C1544 1.369 1_545 S
C1544 H1531 0.930 . S
C1544 C1543 1.369 1_565 S
C1544 C1545 1.388 . S
C1545 H1532 0.930 . S
C1545 C1544 1.388 . S
C1545 C1546 1.390 . S
C1546 C1545 1.390 . S
C1546 C1547 1.394 1_565 S
C1546 C1552 1.465 . S
C1547 C1542 1.399 . S
C1547 C1546 1.394 1_545 S
C1547 C1548 1.516 . S
C1548 C1547 1.516 . S
C1548 C1549 1.502 . S
C1548 C1550 1.561 . S
C1548 C1551 1.526 . S
C1549 H1533 0.959 1_545 S
C1549 H1534 0.959 . S
C1549 H1535 0.961 . S
C1549 C1548 1.502 . S
C1550 H1536 0.960 . S
C1550 H1537 0.961 . S
C1550 H1538 0.959 . S
C1550 C1548 1.561 . S
C1551 C1548 1.526 . S
C1551 C1552 1.396 1_545 S
C1551 C1556 1.390 . S
C1552 C1546 1.465 . S
C1552 C1551 1.396 1_565 S
C1552 C1553 1.399 . S
C1553 H1539 0.929 . S
C1553 C1552 1.399 . S
C1553 C1554 1.385 . S
C1554 H1540 0.931 . S
C1554 C1553 1.385 . S
C1554 C1555 1.398 . S
C1555 C1554 1.398 . S
C1555 C1556 1.379 1_565 S
C1556 H1541 0.930 . S
C1556 C1551 1.390 . S
C1556 C1555 1.379 1_545 S
H1557 C1569 0.930 . S
H1558 C1571 0.930 . S
H1559 C1572 0.930 . S
H1560 C1576 0.959 . S
H1561 C1576 0.959 . S
H1562 C1576 0.961 . S
H1563 C1577 0.960 . S
H1564 C1577 0.961 . S
H1565 C1577 0.959 . S
H1566 C1580 0.929 . S
H1567 C1581 0.931 1_655 S
H1568 C1583 0.930 . S
C1569 H1557 0.930 . S
C1569 C1570 1.399 . S
C1569 C1574 1.399 . S
C1570 C1569 1.399 . S
C1570 C1571 1.376 1_455 S
C1571 H1558 0.930 . S
C1571 C1570 1.376 1_655 S
C1571 C1572 1.388 . S
C1572 H1559 0.930 . S
C1572 C1571 1.388 . S
C1572 C1573 1.390 1_655 S
C1573 C1572 1.390 1_455 S
C1573 C1574 1.394 . S
C1573 C1579 1.465 . S
C1574 C1569 1.399 . S
C1574 C1573 1.394 . S
C1574 C1575 1.516 . S
C1575 C1574 1.516 . S
C1575 C1576 1.502 . S
C1575 C1577 1.561 . S
C1575 C1578 1.526 . S
C1576 H1560 0.959 . S
C1576 H1561 0.959 . S
C1576 H1562 0.961 . S
C1576 C1575 1.502 . S
C1577 H1563 0.960 . S
C1577 H1564 0.961 . S
C1577 H1565 0.959 . S
C1577 C1575 1.561 . S
C1578 C1575 1.526 . S
C1578 C1579 1.396 . S
C1578 C1583 1.390 . S
C1579 C1573 1.465 . S
C1579 C1578 1.396 . S
C1579 C1580 1.399 1_455 S
C1580 H1566 0.929 . S
C1580 C1579 1.399 1_655 S
C1580 C1581 1.385 1_655 S
C1581 H1567 0.931 1_455 S
C1581 C1580 1.385 1_455 S
C1581 C1582 1.389 . S
C1582 C1581 1.389 . S
C1582 C1583 1.387 . S
C1583 H1568 0.930 . S
C1583 C1578 1.390 . S
C1583 C1582 1.387 . S
H1584 C1596 0.930 . S
H1585 C1598 0.930 . S
H1586 C1599 0.930 . S
H1587 C1603 0.959 . S
H1588 C1603 0.959 . S
H1589 C1603 0.961 . S
H1590 C1604 0.960 . S
H1591 C1604 0.961 . S
H1592 C1604 0.959 . S
H1593 C1607 0.929 . S
H1594 C1608 0.931 . S
H1595 C1610 0.930 . S
C1596 H1584 0.930 . S
C1596 C1597 1.399 1_545 S
C1596 C1601 1.399 . S
C1597 C1596 1.399 1_565 S
C1597 C1598 1.376 . S
C1598 H1585 0.930 . S
C1598 C1597 1.376 . S
C1598 C1599 1.388 . S
C1599 H1586 0.930 . S
C1599 C1598 1.388 . S
C1599 C1600 1.390 . S
C1600 C1599 1.390 . S
C1600 C1601 1.394 1_565 S
C1600 C1606 1.465 . S
C1601 C1596 1.399 . S
C1601 C1600 1.394 1_545 S
C1601 C1602 1.516 . S
C1602 C1601 1.516 . S
C1602 C1603 1.502 . S
C1602 C1604 1.561 . S
C1602 C1605 1.526 . S
C1603 H1587 0.959 . S
C1603 H1588 0.959 . S
C1603 H1589 0.961 . S
C1603 C1602 1.502 . S
C1604 H1590 0.960 . S
C1604 H1591 0.961 . S
C1604 H1592 0.959 . S
C1604 C1602 1.561 . S
C1605 C1602 1.526 . S
C1605 C1606 1.396 1_545 S
C1605 C1610 1.390 . S
C1606 C1600 1.465 . S
C1606 C1605 1.396 1_565 S
C1606 C1607 1.399 . S
C1607 H1593 0.929 . S
C1607 C1606 1.399 . S
C1607 C1608 1.385 . S
C1608 H1594 0.931 . S
C1608 C1607 1.385 . S
C1608 C1609 1.389 . S
C1609 C1608 1.389 . S
C1609 C1610 1.387 1_565 S
C1610 H1595 0.930 . S
C1610 C1605 1.390 . S
C1610 C1609 1.387 1_545 S
H1611 C1623 0.930 . S
H1612 C1625 0.930 . S
H1613 C1626 0.930 . S
H1614 C1630 0.959 1_655 S
H1615 C1630 0.959 . S
H1616 C1630 0.961 . S
H1617 C1631 0.960 . S
H1618 C1631 0.961 . S
H1619 C1631 0.959 . S
H1620 C1634 0.929 . S
H1621 C1635 0.931 . S
H1622 C1637 0.930 . S
C1623 H1611 0.930 . S
C1623 C1624 1.399 . S
C1623 C1628 1.399 . S
C1624 C1623 1.399 . S
C1624 C1625 1.376 . S
C1625 H1612 0.930 . S
C1625 C1624 1.376 . S
C1625 C1626 1.388 . S
C1626 H1613 0.930 . S
C1626 C1625 1.388 . S
C1626 C1627 1.390 . S
C1627 C1626 1.390 . S
C1627 C1628 1.394 . S
C1627 C1633 1.465 . S
C1628 C1623 1.399 . S
C1628 C1627 1.394 . S
C1628 C1629 1.516 . S
C1629 C1628 1.516 . S
C1629 C1630 1.502 . S
C1629 C1631 1.561 . S
C1629 C1632 1.526 . S
C1630 H1614 0.959 1_455 S
C1630 H1615 0.959 . S
C1630 H1616 0.961 . S
C1630 C1629 1.502 . S
C1631 H1617 0.960 . S
C1631 H1618 0.961 . S
C1631 H1619 0.959 . S
C1631 C1629 1.561 . S
C1632 C1629 1.526 . S
C1632 C1633 1.396 . S
C1632 C1637 1.390 . S
C1633 C1627 1.465 . S
C1633 C1632 1.396 . S
C1633 C1634 1.399 . S
C1634 H1620 0.929 . S
C1634 C1633 1.399 . S
C1634 C1635 1.385 . S
C1635 H1621 0.931 . S
C1635 C1634 1.385 . S
C1635 C1636 1.389 . S
C1636 C1635 1.389 . S
C1636 C1637 1.387 . S
C1637 H1622 0.930 . S
C1637 C1632 1.390 . S
C1637 C1636 1.387 . S
H1638 C1650 0.930 . S
H1639 C1652 0.930 . S
H1640 C1653 0.930 . S
H1641 C1657 0.959 . S
H1642 C1657 0.959 . S
H1643 C1657 0.961 . S
H1644 C1658 0.960 . S
H1645 C1658 0.961 . S
H1646 C1658 0.959 . S
H1647 C1661 0.929 . S
H1648 C1662 0.931 . S
H1649 C1664 0.930 . S
C1650 H1638 0.930 . S
C1650 C1651 1.399 1_565 S
C1650 C1655 1.399 . S
C1651 C1650 1.399 1_545 S
C1651 C1652 1.376 . S
C1652 H1639 0.930 . S
C1652 C1651 1.376 . S
C1652 C1653 1.388 . S
C1653 H1640 0.930 . S
C1653 C1652 1.388 . S
C1653 C1654 1.390 . S
C1654 C1653 1.390 . S
C1654 C1655 1.394 1_545 S
C1654 C1660 1.465 . S
C1655 C1650 1.399 . S
C1655 C1654 1.394 1_565 S
C1655 C1656 1.516 . S
C1656 C1655 1.516 . S
C1656 C1657 1.502 . S
C1656 C1658 1.561 . S
C1656 C1659 1.526 . S
C1657 H1641 0.959 . S
C1657 H1642 0.959 . S
C1657 H1643 0.961 . S
C1657 C1656 1.502 . S
C1658 H1644 0.960 . S
C1658 H1645 0.961 . S
C1658 H1646 0.959 . S
C1658 C1656 1.561 . S
C1659 C1656 1.526 . S
C1659 C1660 1.396 1_565 S
C1659 C1664 1.390 . S
C1660 C1654 1.465 . S
C1660 C1659 1.396 1_545 S
C1660 C1661 1.399 . S
C1661 H1647 0.929 . S
C1661 C1660 1.399 . S
C1661 C1662 1.385 . S
C1662 H1648 0.931 . S
C1662 C1661 1.385 . S
C1662 C1663 1.389 . S
C1663 C1662 1.389 . S
C1663 C1664 1.387 1_545 S
C1664 H1649 0.930 . S
C1664 C1659 1.390 . S
C1664 C1663 1.387 1_565 S
H1665 C1677 0.930 . S
H1666 C1679 0.930 . S
H1667 C1680 0.930 . S
H1668 C1684 0.959 . S
H1669 C1684 0.959 . S
H1670 C1684 0.961 . S
H1671 C1685 0.960 . S
H1672 C1685 0.961 . S
H1673 C1685 0.959 . S
H1674 C1688 0.929 . S
H1675 C1689 0.931 . S
H1676 C1691 0.930 . S
C1677 H1665 0.930 . S
C1677 C1678 1.399 . S
C1677 C1682 1.399 . S
C1678 C1677 1.399 . S
C1678 C1679 1.376 1_455 S
C1679 H1666 0.930 . S
C1679 C1678 1.376 1_655 S
C1679 C1680 1.388 . S
C1680 H1667 0.930 . S
C1680 C1679 1.388 . S
C1680 C1681 1.390 1_655 S
C1681 C1680 1.390 1_455 S
C1681 C1682 1.394 . S
C1681 C1687 1.465 . S
C1682 C1677 1.399 . S
C1682 C1681 1.394 . S
C1682 C1683 1.516 . S
C1683 C1682 1.516 . S
C1683 C1684 1.502 . S
C1683 C1685 1.561 . S
C1683 C1686 1.526 . S
C1684 H1668 0.959 . S
C1684 H1669 0.959 . S
C1684 H1670 0.961 . S
C1684 C1683 1.502 . S
C1685 H1671 0.960 . S
C1685 H1672 0.961 . S
C1685 H1673 0.959 . S
C1685 C1683 1.561 . S
C1686 C1683 1.526 . S
C1686 C1687 1.396 . S
C1686 C1691 1.390 . S
C1687 C1681 1.465 . S
C1687 C1686 1.396 . S
C1687 C1688 1.399 1_455 S
C1688 H1674 0.929 . S
C1688 C1687 1.399 1_655 S
C1688 C1689 1.385 . S
C1689 H1675 0.931 . S
C1689 C1688 1.385 . S
C1689 C1690 1.389 1_655 S
C1690 C1689 1.389 1_455 S
C1690 C1691 1.387 . S
C1691 H1676 0.930 . S
C1691 C1686 1.390 . S
C1691 C1690 1.387 . S
H1692 C1704 0.930 . S
H1693 C1706 0.930 . S
H1694 C1707 0.930 . S
H1695 C1711 0.959 . S
H1696 C1711 0.959 . S
H1697 C1711 0.961 . S
H1698 C1712 0.960 . S
H1699 C1712 0.961 . S
H1700 C1712 0.959 . S
H1701 C1715 0.929 . S
H1702 C1716 0.931 . S
H1703 C1718 0.930 . S
C1704 H1692 0.930 . S
C1704 C1705 1.399 1_556 S
C1704 C1709 1.399 . S
C1705 C1704 1.399 1_554 S
C1705 C1706 1.376 . S
C1706 H1693 0.930 . S
C1706 C1705 1.376 . S
C1706 C1707 1.388 . S
C1707 H1694 0.930 . S
C1707 C1706 1.388 . S
C1707 C1708 1.390 . S
C1708 C1707 1.390 . S
C1708 C1709 1.394 1_554 S
C1708 C1714 1.465 . S
C1709 C1704 1.399 . S
C1709 C1708 1.394 1_556 S
C1709 C1710 1.516 . S
C1710 C1709 1.516 . S
C1710 C1711 1.502 . S
C1710 C1712 1.561 . S
C1710 C1713 1.526 . S
C1711 H1695 0.959 . S
C1711 H1696 0.959 . S
C1711 H1697 0.961 . S
C1711 C1710 1.502 . S
C1712 H1698 0.960 . S
C1712 H1699 0.961 . S
C1712 H1700 0.959 . S
C1712 C1710 1.561 . S
C1713 C1710 1.526 . S
C1713 C1714 1.396 1_556 S
C1713 C1718 1.390 . S
C1714 C1708 1.465 . S
C1714 C1713 1.396 1_554 S
C1714 C1715 1.399 . S
C1715 H1701 0.929 . S
C1715 C1714 1.399 . S
C1715 C1716 1.385 . S
C1716 H1702 0.931 . S
C1716 C1715 1.385 . S
C1716 C1717 1.389 . S
C1717 C1716 1.389 . S
C1717 C1718 1.387 1_554 S
C1718 H1703 0.930 . S
C1718 C1713 1.390 . S
C1718 C1717 1.387 1_556 S
H1719 C1731 0.930 . S
H1720 C1733 0.930 . S
H1721 C1734 0.930 . S
H1722 C1738 0.959 . S
H1723 C1738 0.959 . S
H1724 C1738 0.961 . S
H1725 C1739 0.960 . S
H1726 C1739 0.961 . S
H1727 C1739 0.959 . S
H1728 C1742 0.929 . S
H1729 C1743 0.931 . S
H1730 C1745 0.930 . S
C1731 H1719 0.930 . S
C1731 C1732 1.399 1_554 S
C1731 C1736 1.399 . S
C1732 C1731 1.399 1_556 S
C1732 C1733 1.376 . S
C1733 H1720 0.930 . S
C1733 C1732 1.376 . S
C1733 C1734 1.388 . S
C1734 H1721 0.930 . S
C1734 C1733 1.388 . S
C1734 C1735 1.390 . S
C1735 C1734 1.390 . S
C1735 C1736 1.394 1_556 S
C1735 C1741 1.465 . S
C1736 C1731 1.399 . S
C1736 C1735 1.394 1_554 S
C1736 C1737 1.516 . S
C1737 C1736 1.516 . S
C1737 C1738 1.502 . S
C1737 C1739 1.561 . S
C1737 C1740 1.526 . S
C1738 H1722 0.959 . S
C1738 H1723 0.959 . S
C1738 H1724 0.961 . S
C1738 C1737 1.502 . S
C1739 H1725 0.960 . S
C1739 H1726 0.961 . S
C1739 H1727 0.959 . S
C1739 C1737 1.561 . S
C1740 C1737 1.526 . S
C1740 C1741 1.396 1_554 S
C1740 C1745 1.390 . S
C1741 C1735 1.465 . S
C1741 C1740 1.396 1_556 S
C1741 C1742 1.399 . S
C1742 H1728 0.929 . S
C1742 C1741 1.399 . S
C1742 C1743 1.385 . S
C1743 H1729 0.931 . S
C1743 C1742 1.385 . S
C1743 C1744 1.389 . S
C1744 C1743 1.389 . S
C1744 C1745 1.387 1_556 S
C1745 H1730 0.930 . S
C1745 C1740 1.390 . S
C1745 C1744 1.387 1_554 S
H1746 C1758 0.930 . S
H1747 C1760 0.930 . S
H1748 C1761 0.930 . S
H1749 C1765 0.959 . S
H1750 C1765 0.959 . S
H1751 C1765 0.961 . S
H1752 C1766 0.960 . S
H1753 C1766 0.961 . S
H1754 C1766 0.959 . S
H1755 C1769 0.929 . S
H1756 C1770 0.931 . S
H1757 C1772 0.930 . S
C1758 H1746 0.930 . S
C1758 C1759 1.399 1_556 S
C1758 C1763 1.399 . S
C1759 C1758 1.399 1_554 S
C1759 C1760 1.376 . S
C1760 H1747 0.930 . S
C1760 C1759 1.376 . S
C1760 C1761 1.388 . S
C1761 H1748 0.930 . S
C1761 C1760 1.388 . S
C1761 C1762 1.390 . S
C1762 C1761 1.390 . S
C1762 C1763 1.394 1_554 S
C1762 C1768 1.465 . S
C1763 C1758 1.399 . S
C1763 C1762 1.394 1_556 S
C1763 C1764 1.516 . S
C1764 C1763 1.516 . S
C1764 C1765 1.502 . S
C1764 C1766 1.561 . S
C1764 C1767 1.526 . S
C1765 H1749 0.959 . S
C1765 H1750 0.959 . S
C1765 H1751 0.961 . S
C1765 C1764 1.502 . S
C1766 H1752 0.960 . S
C1766 H1753 0.961 . S
C1766 H1754 0.959 . S
C1766 C1764 1.561 . S
C1767 C1764 1.526 . S
C1767 C1768 1.396 1_556 S
C1767 C1772 1.390 . S
C1768 C1762 1.465 . S
C1768 C1767 1.396 1_554 S
C1768 C1769 1.399 . S
C1769 H1755 0.929 . S
C1769 C1768 1.399 . S
C1769 C1770 1.385 . S
C1770 H1756 0.931 . S
C1770 C1769 1.385 . S
C1770 C1771 1.389 . S
C1771 C1770 1.389 . S
C1771 C1772 1.387 1_554 S
C1772 H1757 0.930 . S
C1772 C1767 1.390 . S
C1772 C1771 1.387 1_556 S
H1773 C1785 0.930 . S
H1774 C1787 0.930 . S
H1775 C1788 0.930 . S
H1776 C1792 0.959 . S
H1777 C1792 0.959 . S
H1778 C1792 0.961 . S
H1779 C1793 0.960 . S
H1780 C1793 0.961 . S
H1781 C1793 0.959 . S
H1782 C1796 0.929 . S
H1783 C1797 0.931 . S
H1784 C1799 0.930 . S
C1785 H1773 0.930 . S
C1785 C1786 1.399 1_556 S
C1785 C1790 1.399 . S
C1786 C1785 1.399 1_554 S
C1786 C1787 1.376 . S
C1787 H1774 0.930 . S
C1787 C1786 1.376 . S
C1787 C1788 1.388 . S
C1788 H1775 0.930 . S
C1788 C1787 1.388 . S
C1788 C1789 1.390 . S
C1789 C1788 1.390 . S
C1789 C1790 1.394 1_554 S
C1789 C1795 1.465 . S
C1790 C1785 1.399 . S
C1790 C1789 1.394 1_556 S
C1790 C1791 1.516 . S
C1791 C1790 1.516 . S
C1791 C1792 1.502 . S
C1791 C1793 1.561 . S
C1791 C1794 1.526 . S
C1792 H1776 0.959 . S
C1792 H1777 0.959 . S
C1792 H1778 0.961 . S
C1792 C1791 1.502 . S
C1793 H1779 0.960 . S
C1793 H1780 0.961 . S
C1793 H1781 0.959 . S
C1793 C1791 1.561 . S
C1794 C1791 1.526 . S
C1794 C1795 1.396 1_556 S
C1794 C1799 1.390 . S
C1795 C1789 1.465 . S
C1795 C1794 1.396 1_554 S
C1795 C1796 1.399 . S
C1796 H1782 0.929 . S
C1796 C1795 1.399 . S
C1796 C1797 1.385 . S
C1797 H1783 0.931 . S
C1797 C1796 1.385 . S
C1797 C1798 1.389 . S
C1798 C1797 1.389 . S
C1798 C1799 1.387 1_554 S
C1799 H1784 0.930 . S
C1799 C1794 1.390 . S
C1799 C1798 1.387 1_556 S
H1800 C1812 0.930 . S
H1801 C1814 0.930 . S
H1802 C1815 0.930 . S
H1803 C1819 0.959 . S
H1804 C1819 0.959 . S
H1805 C1819 0.961 . S
H1806 C1820 0.960 . S
H1807 C1820 0.961 . S
H1808 C1820 0.959 . S
H1809 C1823 0.929 . S
H1810 C1824 0.931 . S
H1811 C1826 0.930 . S
C1812 H1800 0.930 . S
C1812 C1813 1.399 1_556 S
C1812 C1817 1.399 . S
C1813 C1812 1.399 1_554 S
C1813 C1814 1.376 . S
C1814 H1801 0.930 . S
C1814 C1813 1.376 . S
C1814 C1815 1.388 . S
C1815 H1802 0.930 . S
C1815 C1814 1.388 . S
C1815 C1816 1.390 . S
C1816 C1815 1.390 . S
C1816 C1817 1.394 1_554 S
C1816 C1822 1.465 . S
C1817 C1812 1.399 . S
C1817 C1816 1.394 1_556 S
C1817 C1818 1.516 . S
C1818 C1817 1.516 . S
C1818 C1819 1.502 . S
C1818 C1820 1.561 . S
C1818 C1821 1.526 . S
C1819 H1803 0.959 . S
C1819 H1804 0.959 . S
C1819 H1805 0.961 . S
C1819 C1818 1.502 . S
C1820 H1806 0.960 . S
C1820 H1807 0.961 . S
C1820 H1808 0.959 . S
C1820 C1818 1.561 . S
C1821 C1818 1.526 . S
C1821 C1822 1.396 1_556 S
C1821 C1826 1.390 . S
C1822 C1816 1.465 . S
C1822 C1821 1.396 1_554 S
C1822 C1823 1.399 . S
C1823 H1809 0.929 . S
C1823 C1822 1.399 . S
C1823 C1824 1.385 . S
C1824 H1810 0.931 . S
C1824 C1823 1.385 . S
C1824 C1825 1.389 . S
C1825 C1824 1.389 . S
C1825 C1826 1.387 1_554 S
C1826 H1811 0.930 . S
C1826 C1821 1.390 . S
C1826 C1825 1.387 1_556 S
H1827 C1839 0.930 . S
H1828 C1841 0.930 . S
H1829 C1842 0.930 . S
H1830 C1846 0.959 . S
H1831 C1846 0.959 . S
H1832 C1846 0.961 . S
H1833 C1847 0.960 . S
H1834 C1847 0.961 . S
H1835 C1847 0.959 . S
H1836 C1850 0.929 . S
H1837 C1851 0.931 . S
H1838 C1853 0.930 . S
C1839 H1827 0.930 . S
C1839 C1840 1.399 1_554 S
C1839 C1844 1.399 . S
C1840 C1839 1.399 1_556 S
C1840 C1841 1.376 . S
C1841 H1828 0.930 . S
C1841 C1840 1.376 . S
C1841 C1842 1.388 . S
C1842 H1829 0.930 . S
C1842 C1841 1.388 . S
C1842 C1843 1.390 . S
C1843 C1842 1.390 . S
C1843 C1844 1.394 1_556 S
C1843 C1849 1.465 . S
C1844 C1839 1.399 . S
C1844 C1843 1.394 1_554 S
C1844 C1845 1.516 . S
C1845 C1844 1.516 . S
C1845 C1846 1.502 . S
C1845 C1847 1.561 . S
C1845 C1848 1.526 . S
C1846 H1830 0.959 . S
C1846 H1831 0.959 . S
C1846 H1832 0.961 . S
C1846 C1845 1.502 . S
C1847 H1833 0.960 . S
C1847 H1834 0.961 . S
C1847 H1835 0.959 . S
C1847 C1845 1.561 . S
C1848 C1845 1.526 . S
C1848 C1849 1.396 1_554 S
C1848 C1853 1.390 . S
C1849 C1843 1.465 . S
C1849 C1848 1.396 1_556 S
C1849 C1850 1.399 . S
C1850 H1836 0.929 . S
C1850 C1849 1.399 . S
C1850 C1851 1.385 . S
C1851 H1837 0.931 . S
C1851 C1850 1.385 . S
C1851 C1852 1.389 . S
C1852 C1851 1.389 . S
C1852 C1853 1.387 1_556 S
C1853 H1838 0.930 . S
C1853 C1848 1.390 . S
C1853 C1852 1.387 1_554 S
H1854 C1866 0.930 . S
H1855 C1868 0.930 . S
H1856 C1869 0.930 . S
H1857 C1873 0.959 . S
H1858 C1873 0.959 . S
H1859 C1873 0.961 . S
H1860 C1874 0.960 . S
H1861 C1874 0.961 . S
H1862 C1874 0.972 . S
H1863 C1877 0.929 . S
H1864 C1878 0.931 . S
H1865 C1880 0.930 . S
C1866 H1854 0.930 . S
C1866 C1867 1.399 1_554 S
C1866 C1871 1.399 . S
C1867 C1866 1.399 1_556 S
C1867 C1868 1.376 . S
C1868 H1855 0.930 . S
C1868 C1867 1.376 . S
C1868 C1869 1.388 . S
C1869 H1856 0.930 . S
C1869 C1868 1.388 . S
C1869 C1870 1.390 . S
C1870 C1869 1.390 . S
C1870 C1871 1.394 1_556 S
C1870 C1876 1.465 . S
C1871 C1866 1.399 . S
C1871 C1870 1.394 1_554 S
C1871 C1872 1.516 . S
C1872 C1871 1.516 . S
C1872 C1873 1.502 . S
C1872 C1874 1.561 . S
C1872 C1875 1.526 . S
C1873 H1857 0.959 . S
C1873 H1858 0.959 . S
C1873 H1859 0.961 . S
C1873 C1872 1.502 . S
C1874 H1860 0.960 . S
C1874 H1861 0.961 . S
C1874 H1862 0.972 . S
C1874 C1872 1.561 . S
C1875 C1872 1.526 . S
C1875 C1876 1.396 1_554 S
C1875 C1880 1.390 . S
C1876 C1870 1.465 . S
C1876 C1875 1.396 1_556 S
C1876 C1877 1.399 . S
C1877 H1863 0.929 . S
C1877 C1876 1.399 . S
C1877 C1878 1.385 . S
C1878 H1864 0.931 . S
C1878 C1877 1.385 . S
C1878 C1879 1.389 . S
C1879 C1878 1.389 . S
C1879 C1880 1.387 1_556 S
C1880 H1865 0.930 . S
C1880 C1875 1.390 . S
C1880 C1879 1.387 1_554 S
H1881 C1893 0.930 . S
H1882 C1895 0.930 . S
H1883 C1896 0.930 . S
H1884 C1900 0.959 . S
H1885 C1900 0.959 . S
H1886 C1900 0.961 . S
H1887 C1901 0.960 . S
H1888 C1901 0.961 . S
H1889 C1901 0.959 . S
H1890 C1904 0.929 . S
H1891 C1905 0.931 . S
H1892 C1907 0.930 . S
C1893 H1881 0.930 . S
C1893 C1894 1.399 1_554 S
C1893 C1898 1.399 . S
C1894 C1893 1.399 1_556 S
C1894 C1895 1.376 . S
C1895 H1882 0.930 . S
C1895 C1894 1.376 . S
C1895 C1896 1.388 . S
C1896 H1883 0.930 . S
C1896 C1895 1.388 . S
C1896 C1897 1.390 . S
C1897 C1896 1.390 . S
C1897 C1898 1.394 1_556 S
C1897 C1903 1.465 . S
C1898 C1893 1.399 . S
C1898 C1897 1.394 1_554 S
C1898 C1899 1.516 . S
C1899 C1898 1.516 . S
C1899 C1900 1.502 . S
C1899 C1901 1.561 . S
C1899 C1902 1.526 . S
C1900 H1884 0.959 . S
C1900 H1885 0.959 . S
C1900 H1886 0.961 . S
C1900 C1899 1.502 . S
C1901 H1887 0.960 . S
C1901 H1888 0.961 . S
C1901 H1889 0.959 . S
C1901 C1899 1.561 . S
C1902 C1899 1.526 . S
C1902 C1903 1.396 1_554 S
C1902 C1907 1.390 . S
C1903 C1897 1.465 . S
C1903 C1902 1.396 1_556 S
C1903 C1904 1.399 . S
C1904 H1890 0.929 . S
C1904 C1903 1.399 . S
C1904 C1905 1.385 . S
C1905 H1891 0.931 . S
C1905 C1904 1.385 . S
C1905 C1906 1.389 . S
C1906 C1905 1.389 . S
C1906 C1907 1.387 1_556 S
C1907 H1892 0.930 . S
C1907 C1902 1.390 . S
C1907 C1906 1.387 1_554 S
H1908 C1920 0.930 . S
H1909 C1922 0.930 . S
H1910 C1923 0.930 . S
H1911 C1927 0.959 . S
H1912 C1927 0.959 . S
H1913 C1927 0.961 . S
H1914 C1928 0.960 . S
H1915 C1928 0.961 . S
H1916 C1928 0.959 . S
H1917 C1931 0.929 . S
H1918 C1932 0.931 . S
H1919 C1934 0.930 . S
C1920 H1908 0.930 . S
C1920 C1921 1.399 . S
C1920 C1925 1.399 . S
C1921 C1920 1.399 . S
C1921 C1922 1.376 . S
C1922 H1909 0.930 . S
C1922 C1921 1.376 . S
C1922 C1923 1.388 . S
C1923 H1910 0.930 . S
C1923 C1922 1.388 . S
C1923 C1924 1.390 . S
C1924 C1923 1.390 . S
C1924 C1925 1.394 . S
C1924 C1930 1.465 . S
C1925 C1920 1.399 . S
C1925 C1924 1.394 . S
C1925 C1926 1.516 . S
C1926 C1925 1.516 . S
C1926 C1927 1.502 . S
C1926 C1928 1.561 . S
C1926 C1929 1.526 . S
C1927 H1911 0.959 . S
C1927 H1912 0.959 . S
C1927 H1913 0.961 . S
C1927 C1926 1.502 . S
C1928 H1914 0.960 . S
C1928 H1915 0.961 . S
C1928 H1916 0.959 . S
C1928 C1926 1.561 . S
C1929 C1926 1.526 . S
C1929 C1930 1.396 . S
C1929 C1934 1.390 . S
C1930 C1924 1.465 . S
C1930 C1929 1.396 . S
C1930 C1931 1.399 . S
C1931 H1917 0.929 . S
C1931 C1930 1.399 . S
C1931 C1932 1.385 . S
C1932 H1918 0.931 . S
C1932 C1931 1.385 . S
C1932 C1933 1.389 . S
C1933 C1932 1.389 . S
C1933 C1934 1.387 . S
C1934 H1919 0.930 . S
C1934 C1929 1.390 . S
C1934 C1933 1.387 . S
H1935 C1947 0.930 . S
H1936 C1949 0.930 . S
H1937 C1950 0.930 . S
H1938 C1954 0.959 . S
H1939 C1954 0.959 . S
H1940 C1954 0.961 . S
H1941 C1955 0.960 . S
H1942 C1955 0.961 . S
H1943 C1955 0.959 . S
H1944 C1958 0.929 . S
H1945 C1959 0.931 . S
H1946 C1961 0.930 . S
C1947 H1935 0.930 . S
C1947 C1948 1.399 . S
C1947 C1952 1.399 . S
C1948 C1947 1.399 . S
C1948 C1949 1.376 . S
C1949 H1936 0.930 . S
C1949 C1948 1.376 . S
C1949 C1950 1.388 . S
C1950 H1937 0.930 . S
C1950 C1949 1.388 . S
C1950 C1951 1.390 . S
C1951 C1950 1.390 . S
C1951 C1952 1.394 . S
C1951 C1957 1.465 . S
C1952 C1947 1.399 . S
C1952 C1951 1.394 . S
C1952 C1953 1.516 . S
C1953 C1952 1.516 . S
C1953 C1954 1.502 . S
C1953 C1955 1.561 . S
C1953 C1956 1.526 . S
C1954 H1938 0.959 . S
C1954 H1939 0.959 . S
C1954 H1940 0.961 . S
C1954 C1953 1.502 . S
C1955 H1941 0.960 . S
C1955 H1942 0.961 . S
C1955 H1943 0.959 . S
C1955 C1953 1.561 . S
C1956 C1953 1.526 . S
C1956 C1957 1.396 . S
C1956 C1961 1.390 . S
C1957 C1951 1.465 . S
C1957 C1956 1.396 . S
C1957 C1958 1.399 . S
C1958 H1944 0.929 . S
C1958 C1957 1.399 . S
C1958 C1959 1.385 . S
C1959 H1945 0.931 . S
C1959 C1958 1.385 . S
C1959 C1960 1.389 . S
C1960 C1959 1.389 . S
C1960 C1961 1.387 . S
C1961 H1946 0.930 . S
C1961 C1956 1.390 . S
C1961 C1960 1.387 . S
H1962 C1974 0.930 . S
H1963 C1976 0.930 . S
H1964 C1977 0.930 . S
H1965 C1981 0.959 . S
H1966 C1981 0.959 . S
H1967 C1981 0.961 . S
H1968 C1982 0.960 . S
H1969 C1982 0.961 . S
H1970 C1982 0.959 . S
H1971 C1985 0.929 . S
H1972 C1986 0.931 . S
H1973 C1988 0.930 . S
C1974 H1962 0.930 . S
C1974 C1975 1.399 . S
C1974 C1979 1.399 . S
C1975 C1974 1.399 . S
C1975 C1976 1.376 . S
C1976 H1963 0.930 . S
C1976 C1975 1.376 . S
C1976 C1977 1.388 . S
C1977 H1964 0.930 . S
C1977 C1976 1.388 . S
C1977 C1978 1.390 . S
C1978 C1977 1.390 . S
C1978 C1979 1.394 . S
C1978 C1984 1.465 . S
C1979 C1974 1.399 . S
C1979 C1978 1.394 . S
C1979 C1980 1.516 . S
C1980 C1979 1.516 . S
C1980 C1981 1.502 . S
C1980 C1982 1.561 . S
C1980 C1983 1.526 . S
C1981 H1965 0.959 . S
C1981 H1966 0.959 . S
C1981 H1967 0.961 . S
C1981 C1980 1.502 . S
C1982 H1968 0.960 . S
C1982 H1969 0.961 . S
C1982 H1970 0.959 . S
C1982 C1980 1.561 . S
C1983 C1980 1.526 . S
C1983 C1984 1.396 . S
C1983 C1988 1.390 . S
C1984 C1978 1.465 . S
C1984 C1983 1.396 . S
C1984 C1985 1.399 . S
C1985 H1971 0.929 . S
C1985 C1984 1.399 . S
C1985 C1986 1.385 . S
C1986 H1972 0.931 . S
C1986 C1985 1.385 . S
C1986 C1987 1.389 . S
C1987 C1986 1.389 . S
C1987 C1988 1.387 . S
C1988 H1973 0.930 . S
C1988 C1983 1.390 . S
C1988 C1987 1.387 . S
H1989 C2001 0.930 . S
H1990 C2003 0.930 . S
H1991 C2004 0.930 . S
H1992 C2008 0.959 . S
H1993 C2008 0.959 . S
H1994 C2008 0.961 . S
H1995 C2009 0.960 . S
H1996 C2009 0.961 . S
H1997 C2009 0.959 . S
H1998 C2012 0.929 . S
H1999 C2013 0.931 . S
H2000 C2015 0.930 . S
C2001 H1989 0.930 . S
C2001 C2002 1.399 . S
C2001 C2006 1.399 . S
C2002 C2001 1.399 . S
C2002 C2003 1.376 . S
C2003 H1990 0.930 . S
C2003 C2002 1.376 . S
C2003 C2004 1.388 . S
C2004 H1991 0.930 . S
C2004 C2003 1.388 . S
C2004 C2005 1.390 . S
C2005 C2004 1.390 . S
C2005 C2006 1.394 . S
C2005 C2011 1.465 . S
C2006 C2001 1.399 . S
C2006 C2005 1.394 . S
C2006 C2007 1.516 . S
C2007 C2006 1.516 . S
C2007 C2008 1.502 . S
C2007 C2009 1.561 . S
C2007 C2010 1.526 . S
C2008 H1992 0.959 . S
C2008 H1993 0.959 . S
C2008 H1994 0.961 . S
C2008 C2007 1.502 . S
C2009 H1995 0.960 . S
C2009 H1996 0.961 . S
C2009 H1997 0.959 . S
C2009 C2007 1.561 . S
C2010 C2007 1.526 . S
C2010 C2011 1.396 . S
C2010 C2015 1.390 . S
C2011 C2005 1.465 . S
C2011 C2010 1.396 . S
C2011 C2012 1.399 . S
C2012 H1998 0.929 . S
C2012 C2011 1.399 . S
C2012 C2013 1.385 . S
C2013 H1999 0.931 . S
C2013 C2012 1.385 . S
C2013 C2014 1.389 . S
C2014 C2013 1.389 . S
C2014 C2015 1.387 . S
C2015 H2000 0.930 . S
C2015 C2010 1.390 . S
C2015 C2014 1.387 . S
H2016 C2028 0.930 . S
H2017 C2030 0.930 . S
H2018 C2031 0.930 . S
H2019 C2035 0.959 . S
H2020 C2035 0.959 . S
H2021 C2035 0.961 . S
H2022 C2036 0.960 . S
H2023 C2036 0.961 . S
H2024 C2036 0.959 . S
H2025 C2039 0.929 . S
H2026 C2040 0.931 . S
H2027 C2042 0.930 . S
C2028 H2016 0.930 . S
C2028 C2029 1.399 . S
C2028 C2033 1.399 . S
C2029 C2028 1.399 . S
C2029 C2030 1.376 . S
C2030 H2017 0.930 . S
C2030 C2029 1.376 . S
C2030 C2031 1.388 . S
C2031 H2018 0.930 . S
C2031 C2030 1.388 . S
C2031 C2032 1.390 . S
C2032 C2031 1.390 . S
C2032 C2033 1.394 . S
C2032 C2038 1.465 . S
C2033 C2028 1.399 . S
C2033 C2032 1.394 . S
C2033 C2034 1.516 . S
C2034 C2033 1.516 . S
C2034 C2035 1.502 . S
C2034 C2036 1.561 . S
C2034 C2037 1.526 . S
C2035 H2019 0.959 . S
C2035 H2020 0.959 . S
C2035 H2021 0.961 . S
C2035 C2034 1.502 . S
C2036 H2022 0.960 . S
C2036 H2023 0.961 . S
C2036 H2024 0.959 . S
C2036 C2034 1.561 . S
C2037 C2034 1.526 . S
C2037 C2038 1.396 . S
C2037 C2042 1.390 . S
C2038 C2032 1.465 . S
C2038 C2037 1.396 . S
C2038 C2039 1.399 . S
C2039 H2025 0.929 . S
C2039 C2038 1.399 . S
C2039 C2040 1.385 . S
C2040 H2026 0.931 . S
C2040 C2039 1.385 . S
C2040 C2041 1.389 . S
C2041 C2040 1.389 . S
C2041 C2042 1.387 . S
C2042 H2027 0.930 . S
C2042 C2037 1.390 . S
C2042 C2041 1.387 . S
H2043 C2055 0.930 . S
H2044 C2057 0.930 . S
H2045 C2058 0.930 . S
H2046 C2062 0.959 . S
H2047 C2062 0.959 . S
H2048 C2062 0.961 . S
H2049 C2063 0.960 . S
H2050 C2063 0.961 . S
H2051 C2063 0.959 . S
H2052 C2066 0.929 . S
H2053 C2067 0.931 . S
H2054 C2069 0.930 . S
C2055 H2043 0.930 . S
C2055 C2056 1.399 . S
C2055 C2060 1.399 . S
C2056 C2055 1.399 . S
C2056 C2057 1.376 . S
C2057 H2044 0.930 . S
C2057 C2056 1.376 . S
C2057 C2058 1.388 . S
C2058 H2045 0.930 . S
C2058 C2057 1.388 . S
C2058 C2059 1.390 . S
C2059 C2058 1.390 . S
C2059 C2060 1.394 . S
C2059 C2065 1.465 . S
C2060 C2055 1.399 . S
C2060 C2059 1.394 . S
C2060 C2061 1.516 . S
C2061 C2060 1.516 . S
C2061 C2062 1.502 . S
C2061 C2063 1.561 . S
C2061 C2064 1.526 . S
C2062 H2046 0.959 . S
C2062 H2047 0.959 . S
C2062 H2048 0.961 . S
C2062 C2061 1.502 . S
C2063 H2049 0.960 . S
C2063 H2050 0.961 . S
C2063 H2051 0.959 . S
C2063 C2061 1.561 . S
C2064 C2061 1.526 . S
C2064 C2065 1.396 . S
C2064 C2069 1.390 . S
C2065 C2059 1.465 . S
C2065 C2064 1.396 . S
C2065 C2066 1.399 . S
C2066 H2052 0.929 . S
C2066 C2065 1.399 . S
C2066 C2067 1.385 . S
C2067 H2053 0.931 . S
C2067 C2066 1.385 . S
C2067 C2068 1.389 . S
C2068 C2067 1.389 . S
C2068 C2069 1.387 . S
C2069 H2054 0.930 . S
C2069 C2064 1.390 . S
C2069 C2068 1.387 . S
H2070 C2082 0.930 . S
H2071 C2084 0.930 . S
H2072 C2085 0.930 . S
H2073 C2089 0.959 . S
H2074 C2089 0.959 . S
H2075 C2089 0.961 . S
H2076 C2090 0.960 . S
H2077 C2090 0.961 . S
H2078 C2090 0.959 . S
H2079 C2093 0.929 . S
H2080 C2094 0.931 . S
H2081 C2096 0.930 . S
C2082 H2070 0.930 . S
C2082 C2083 1.399 . S
C2082 C2087 1.399 . S
C2083 C2082 1.399 . S
C2083 C2084 1.376 . S
C2084 H2071 0.930 . S
C2084 C2083 1.376 . S
C2084 C2085 1.388 . S
C2085 H2072 0.930 . S
C2085 C2084 1.388 . S
C2085 C2086 1.390 . S
C2086 C2085 1.390 . S
C2086 C2087 1.394 . S
C2086 C2092 1.465 . S
C2087 C2082 1.399 . S
C2087 C2086 1.394 . S
C2087 C2088 1.516 . S
C2088 C2087 1.516 . S
C2088 C2089 1.502 . S
C2088 C2090 1.561 . S
C2088 C2091 1.526 . S
C2089 H2073 0.959 . S
C2089 H2074 0.959 . S
C2089 H2075 0.961 . S
C2089 C2088 1.502 . S
C2090 H2076 0.960 . S
C2090 H2077 0.961 . S
C2090 H2078 0.959 . S
C2090 C2088 1.561 . S
C2091 C2088 1.526 . S
C2091 C2092 1.396 . S
C2091 C2096 1.390 . S
C2092 C2086 1.465 . S
C2092 C2091 1.396 . S
C2092 C2093 1.399 . S
C2093 H2079 0.929 . S
C2093 C2092 1.399 . S
C2093 C2094 1.385 . S
C2094 H2080 0.931 . S
C2094 C2093 1.385 . S
C2094 C2095 1.389 . S
C2095 C2094 1.389 . S
C2095 C2096 1.387 . S
C2096 H2081 0.930 . S
C2096 C2091 1.390 . S
C2096 C2095 1.387 . S
H2097 C2109 0.930 . S
H2098 C2111 0.930 . S
H2099 C2112 0.930 . S
H2100 C2116 0.959 . S
H2101 C2116 0.959 . S
H2102 C2116 0.961 . S
H2103 C2117 0.960 . S
H2104 C2117 0.961 . S
H2105 C2117 0.959 . S
H2106 C2120 0.929 . S
H2107 C2121 0.931 . S
H2108 C2123 0.930 . S
C2109 H2097 0.930 . S
C2109 C2110 1.399 . S
C2109 C2114 1.399 . S
C2110 C2109 1.399 . S
C2110 C2111 1.376 . S
C2111 H2098 0.930 . S
C2111 C2110 1.376 . S
C2111 C2112 1.388 . S
C2112 H2099 0.930 . S
C2112 C2111 1.388 . S
C2112 C2113 1.390 . S
C2113 C2112 1.390 . S
C2113 C2114 1.394 . S
C2113 C2119 1.465 . S
C2114 C2109 1.399 . S
C2114 C2113 1.394 . S
C2114 C2115 1.516 . S
C2115 C2114 1.516 . S
C2115 C2116 1.502 . S
C2115 C2117 1.561 . S
C2115 C2118 1.526 . S
C2116 H2100 0.959 . S
C2116 H2101 0.959 . S
C2116 H2102 0.961 . S
C2116 C2115 1.502 . S
C2117 H2103 0.960 . S
C2117 H2104 0.961 . S
C2117 H2105 0.959 . S
C2117 C2115 1.561 . S
C2118 C2115 1.526 . S
C2118 C2119 1.396 . S
C2118 C2123 1.390 . S
C2119 C2113 1.465 . S
C2119 C2118 1.396 . S
C2119 C2120 1.399 . S
C2120 H2106 0.929 . S
C2120 C2119 1.399 . S
C2120 C2121 1.385 . S
C2121 H2107 0.931 . S
C2121 C2120 1.385 . S
C2121 C2122 1.389 . S
C2122 C2121 1.389 . S
C2122 C2123 1.387 . S
C2123 H2108 0.930 . S
C2123 C2118 1.390 . S
C2123 C2122 1.387 . S
H2124 C2136 0.930 . S
H2125 C2138 0.930 . S
H2126 C2139 0.930 . S
H2127 C2143 0.959 . S
H2128 C2143 0.959 . S
H2129 C2143 0.961 . S
H2130 C2144 0.960 . S
H2131 C2144 0.961 . S
H2132 C2144 0.959 . S
H2133 C2147 0.929 . S
H2134 C2148 0.931 . S
H2135 C2150 0.930 . S
C2136 H2124 0.930 . S
C2136 C2137 1.399 . S
C2136 C2141 1.399 . S
C2137 C2136 1.399 . S
C2137 C2138 1.376 . S
C2138 H2125 0.930 . S
C2138 C2137 1.376 . S
C2138 C2139 1.388 . S
C2139 H2126 0.930 . S
C2139 C2138 1.388 . S
C2139 C2140 1.390 . S
C2140 C2139 1.390 . S
C2140 C2141 1.394 . S
C2140 C2146 1.465 . S
C2141 C2136 1.399 . S
C2141 C2140 1.394 . S
C2141 C2142 1.516 . S
C2142 C2141 1.516 . S
C2142 C2143 1.502 . S
C2142 C2144 1.561 . S
C2142 C2145 1.526 . S
C2143 H2127 0.959 . S
C2143 H2128 0.959 . S
C2143 H2129 0.961 . S
C2143 C2142 1.502 . S
C2144 H2130 0.960 . S
C2144 H2131 0.961 . S
C2144 H2132 0.959 . S
C2144 C2142 1.561 . S
C2145 C2142 1.526 . S
C2145 C2146 1.396 . S
C2145 C2150 1.390 . S
C2146 C2140 1.465 . S
C2146 C2145 1.396 . S
C2146 C2147 1.399 . S
C2147 H2133 0.929 . S
C2147 C2146 1.399 . S
C2147 C2148 1.385 . S
C2148 H2134 0.931 . S
C2148 C2147 1.385 . S
C2148 C2149 1.389 . S
C2149 C2148 1.389 . S
C2149 C2150 1.387 . S
C2150 H2135 0.930 . S
C2150 C2145 1.390 . S
C2150 C2149 1.387 . S
H2151 C2163 0.930 . S
H2152 C2165 0.930 . S
H2153 C2166 0.930 . S
H2154 C2170 0.959 . S
H2155 C2170 0.959 . S
H2156 C2170 0.961 . S
H2157 C2171 0.960 . S
H2158 C2171 0.961 . S
H2159 C2171 0.959 . S
H2160 C2174 0.929 . S
H2161 C2175 0.931 . S
H2162 C2177 0.930 . S
C2163 H2151 0.930 . S
C2163 C2164 1.399 . S
C2163 C2168 1.399 . S
C2164 C2163 1.399 . S
C2164 C2165 1.376 . S
C2165 H2152 0.930 . S
C2165 C2164 1.376 . S
C2165 C2166 1.388 . S
C2166 H2153 0.930 . S
C2166 C2165 1.388 . S
C2166 C2167 1.390 . S
C2167 C2166 1.390 . S
C2167 C2168 1.394 . S
C2167 C2173 1.465 . S
C2168 C2163 1.399 . S
C2168 C2167 1.394 . S
C2168 C2169 1.516 . S
C2169 C2168 1.516 . S
C2169 C2170 1.502 . S
C2169 C2171 1.561 . S
C2169 C2172 1.526 . S
C2170 H2154 0.959 . S
C2170 H2155 0.959 . S
C2170 H2156 0.961 . S
C2170 C2169 1.502 . S
C2171 H2157 0.960 . S
C2171 H2158 0.961 . S
C2171 H2159 0.959 . S
C2171 C2169 1.561 . S
C2172 C2169 1.526 . S
C2172 C2173 1.396 . S
C2172 C2177 1.390 . S
C2173 C2167 1.465 . S
C2173 C2172 1.396 . S
C2173 C2174 1.399 . S
C2174 H2160 0.929 . S
C2174 C2173 1.399 . S
C2174 C2175 1.385 . S
C2175 H2161 0.931 . S
C2175 C2174 1.385 . S
C2175 C2176 1.389 . S
C2176 C2175 1.389 . S
C2176 C2177 1.387 . S
C2177 H2162 0.930 . S
C2177 C2172 1.390 . S
C2177 C2176 1.387 . S
H2178 C2190 0.930 . S
H2179 C2192 0.930 . S
H2180 C2193 0.930 . S
H2181 C2197 0.959 . S
H2182 C2197 0.959 . S
H2183 C2197 0.961 . S
H2184 C2198 0.960 . S
H2185 C2198 0.961 . S
H2186 C2198 0.959 . S
H2187 C2201 0.929 . S
H2188 C2202 0.931 . S
H2189 C2204 0.930 . S
C2190 H2178 0.930 . S
C2190 C2191 1.399 . S
C2190 C2195 1.399 . S
C2191 C2190 1.399 . S
C2191 C2192 1.376 . S
C2192 H2179 0.930 . S
C2192 C2191 1.376 . S
C2192 C2193 1.388 . S
C2193 H2180 0.930 . S
C2193 C2192 1.388 . S
C2193 C2194 1.390 . S
C2194 C2193 1.390 . S
C2194 C2195 1.394 . S
C2194 C2200 1.465 . S
C2195 C2190 1.399 . S
C2195 C2194 1.394 . S
C2195 C2196 1.516 . S
C2196 C2195 1.516 . S
C2196 C2197 1.502 . S
C2196 C2198 1.561 . S
C2196 C2199 1.526 . S
C2197 H2181 0.959 . S
C2197 H2182 0.959 . S
C2197 H2183 0.961 . S
C2197 C2196 1.502 . S
C2198 H2184 0.960 . S
C2198 H2185 0.961 . S
C2198 H2186 0.959 . S
C2198 C2196 1.561 . S
C2199 C2196 1.526 . S
C2199 C2200 1.396 . S
C2199 C2204 1.390 . S
C2200 C2194 1.465 . S
C2200 C2199 1.396 . S
C2200 C2201 1.399 . S
C2201 H2187 0.929 . S
C2201 C2200 1.399 . S
C2201 C2202 1.385 . S
C2202 H2188 0.931 . S
C2202 C2201 1.385 . S
C2202 C2203 1.389 . S
C2203 C2202 1.389 . S
C2203 C2204 1.387 . S
C2204 H2189 0.930 . S
C2204 C2199 1.390 . S
C2204 C2203 1.387 . S
H2205 C2217 0.930 . S
H2206 C2219 0.930 . S
H2207 C2220 0.930 . S
H2208 C2224 0.959 . S
H2209 C2224 0.959 . S
H2210 C2224 0.961 . S
H2211 C2225 0.960 . S
H2212 C2225 0.961 . S
H2213 C2225 0.959 . S
H2214 C2228 0.929 . S
H2215 C2229 0.931 . S
H2216 C2231 0.930 . S
C2217 H2205 0.930 . S
C2217 C2218 1.399 . S
C2217 C2222 1.399 . S
C2218 C2217 1.399 . S
C2218 C2219 1.376 . S
C2219 H2206 0.930 . S
C2219 C2218 1.376 . S
C2219 C2220 1.388 . S
C2220 H2207 0.930 . S
C2220 C2219 1.388 . S
C2220 C2221 1.390 . S
C2221 C2220 1.390 . S
C2221 C2222 1.394 . S
C2221 C2227 1.465 . S
C2222 C2217 1.399 . S
C2222 C2221 1.394 . S
C2222 C2223 1.516 . S
C2223 C2222 1.516 . S
C2223 C2224 1.502 . S
C2223 C2225 1.561 . S
C2223 C2226 1.526 . S
C2224 H2208 0.959 . S
C2224 H2209 0.959 . S
C2224 H2210 0.961 . S
C2224 C2223 1.502 . S
C2225 H2211 0.960 . S
C2225 H2212 0.961 . S
C2225 H2213 0.959 . S
C2225 C2223 1.561 . S
C2226 C2223 1.526 . S
C2226 C2227 1.396 . S
C2226 C2231 1.390 . S
C2227 C2221 1.465 . S
C2227 C2226 1.396 . S
C2227 C2228 1.399 . S
C2228 H2214 0.929 . S
C2228 C2227 1.399 . S
C2228 C2229 1.385 . S
C2229 H2215 0.931 . S
C2229 C2228 1.385 . S
C2229 C2230 1.389 . S
C2230 C2229 1.389 . S
C2230 C2231 1.387 . S
C2231 H2216 0.930 . S
C2231 C2226 1.390 . S
C2231 C2230 1.387 . S
H2232 C2244 0.930 . S
H2233 C2246 0.930 . S
H2234 C2247 0.930 . S
H2235 C2251 0.959 . S
H2236 C2251 0.959 . S
H2237 C2251 0.961 . S
H2238 C2252 0.960 . S
H2239 C2252 0.961 . S
H2240 C2252 0.959 . S
H2241 C2255 0.929 . S
H2242 C2256 0.931 . S
H2243 C2258 0.930 . S
C2244 H2232 0.930 . S
C2244 C2245 1.399 . S
C2244 C2249 1.399 . S
C2245 C2244 1.399 . S
C2245 C2246 1.376 . S
C2246 H2233 0.930 . S
C2246 C2245 1.376 . S
C2246 C2247 1.388 . S
C2247 H2234 0.930 . S
C2247 C2246 1.388 . S
C2247 C2248 1.390 . S
C2248 C2247 1.390 . S
C2248 C2249 1.394 . S
C2248 C2254 1.465 . S
C2249 C2244 1.399 . S
C2249 C2248 1.394 . S
C2249 C2250 1.516 . S
C2250 C2249 1.516 . S
C2250 C2251 1.502 . S
C2250 C2252 1.561 . S
C2250 C2253 1.526 . S
C2251 H2235 0.959 . S
C2251 H2236 0.959 . S
C2251 H2237 0.961 . S
C2251 C2250 1.502 . S
C2252 H2238 0.960 . S
C2252 H2239 0.961 . S
C2252 H2240 0.959 . S
C2252 C2250 1.561 . S
C2253 C2250 1.526 . S
C2253 C2254 1.396 . S
C2253 C2258 1.390 . S
C2254 C2248 1.465 . S
C2254 C2253 1.396 . S
C2254 C2255 1.399 . S
C2255 H2241 0.929 . S
C2255 C2254 1.399 . S
C2255 C2256 1.385 . S
C2256 H2242 0.931 . S
C2256 C2255 1.385 . S
C2256 C2257 1.389 . S
C2257 C2256 1.389 . S
C2257 C2258 1.387 . S
C2258 H2243 0.930 . S
C2258 C2253 1.390 . S
C2258 C2257 1.387 . S
H2259 C2271 0.930 . S
H2260 C2273 0.930 . S
H2261 C2274 0.930 . S
H2262 C2278 0.959 . S
H2263 C2278 0.959 . S
H2264 C2278 0.961 . S
H2265 C2279 0.960 . S
H2266 C2279 0.961 . S
H2267 C2279 0.959 . S
H2268 C2282 0.929 . S
H2269 C2283 0.931 . S
H2270 C2285 0.930 . S
C2271 H2259 0.930 . S
C2271 C2272 1.399 . S
C2271 C2276 1.399 . S
C2272 C2271 1.399 . S
C2272 C2273 1.376 . S
C2273 H2260 0.930 . S
C2273 C2272 1.376 . S
C2273 C2274 1.388 . S
C2274 H2261 0.930 . S
C2274 C2273 1.388 . S
C2274 C2275 1.390 . S
C2275 C2274 1.390 . S
C2275 C2276 1.394 . S
C2275 C2281 1.465 . S
C2276 C2271 1.399 . S
C2276 C2275 1.394 . S
C2276 C2277 1.516 . S
C2277 C2276 1.516 . S
C2277 C2278 1.502 . S
C2277 C2279 1.561 . S
C2277 C2280 1.526 . S
C2278 H2262 0.959 . S
C2278 H2263 0.959 . S
C2278 H2264 0.961 . S
C2278 C2277 1.502 . S
C2279 H2265 0.960 . S
C2279 H2266 0.961 . S
C2279 H2267 0.959 . S
C2279 C2277 1.561 . S
C2280 C2277 1.526 . S
C2280 C2281 1.396 . S
C2280 C2285 1.390 . S
C2281 C2275 1.465 . S
C2281 C2280 1.396 . S
C2281 C2282 1.399 . S
C2282 H2268 0.929 . S
C2282 C2281 1.399 . S
C2282 C2283 1.385 . S
C2283 H2269 0.931 . S
C2283 C2282 1.385 . S
C2283 C2284 1.389 . S
C2284 C2283 1.389 . S
C2284 C2285 1.387 . S
C2285 H2270 0.930 . S
C2285 C2280 1.390 . S
C2285 C2284 1.387 . S
H2286 C2298 0.930 . S
H2287 C2300 0.930 . S
H2288 C2301 0.930 . S
H2289 C2305 0.959 . S
H2290 C2305 0.959 . S
H2291 C2305 0.961 . S
H2292 C2306 0.960 . S
H2293 C2306 0.961 . S
H2294 C2306 0.959 . S
H2295 C2309 0.929 . S
H2296 C2310 0.931 . S
H2297 C2312 0.930 . S
C2298 H2286 0.930 . S
C2298 C2299 1.399 . S
C2298 C2303 1.399 . S
C2299 C2298 1.399 . S
C2299 C2300 1.376 . S
C2300 H2287 0.930 . S
C2300 C2299 1.376 . S
C2300 C2301 1.388 . S
C2301 H2288 0.930 . S
C2301 C2300 1.388 . S
C2301 C2302 1.390 . S
C2302 C2301 1.390 . S
C2302 C2303 1.394 . S
C2302 C2308 1.465 . S
C2303 C2298 1.399 . S
C2303 C2302 1.394 . S
C2303 C2304 1.516 . S
C2304 C2303 1.516 . S
C2304 C2305 1.502 . S
C2304 C2306 1.561 . S
C2304 C2307 1.526 . S
C2305 H2289 0.959 . S
C2305 H2290 0.959 . S
C2305 H2291 0.961 . S
C2305 C2304 1.502 . S
C2306 H2292 0.960 . S
C2306 H2293 0.961 . S
C2306 H2294 0.959 . S
C2306 C2304 1.561 . S
C2307 C2304 1.526 . S
C2307 C2308 1.396 . S
C2307 C2312 1.390 . S
C2308 C2302 1.465 . S
C2308 C2307 1.396 . S
C2308 C2309 1.399 . S
C2309 H2295 0.929 . S
C2309 C2308 1.399 . S
C2309 C2310 1.385 . S
C2310 H2296 0.931 . S
C2310 C2309 1.385 . S
C2310 C2311 1.389 . S
C2311 C2310 1.389 . S
C2311 C2312 1.387 . S
C2312 H2297 0.930 . S
C2312 C2307 1.390 . S
C2312 C2311 1.387 . S
H2313 C2325 0.930 . S
H2314 C2327 0.930 . S
H2315 C2328 0.930 . S
H2316 C2332 0.959 . S
H2317 C2332 0.959 . S
H2318 C2332 0.961 . S
H2319 C2333 0.960 . S
H2320 C2333 0.961 . S
H2321 C2333 0.959 . S
H2322 C2336 0.929 . S
H2323 C2337 0.931 . S
H2324 C2339 0.930 . S
C2325 H2313 0.930 . S
C2325 C2326 1.399 . S
C2325 C2330 1.399 . S
C2326 C2325 1.399 . S
C2326 C2327 1.376 . S
C2327 H2314 0.930 . S
C2327 C2326 1.376 . S
C2327 C2328 1.388 . S
C2328 H2315 0.930 . S
C2328 C2327 1.388 . S
C2328 C2329 1.390 . S
C2329 C2328 1.390 . S
C2329 C2330 1.394 . S
C2329 C2335 1.465 . S
C2330 C2325 1.399 . S
C2330 C2329 1.394 . S
C2330 C2331 1.516 . S
C2331 C2330 1.516 . S
C2331 C2332 1.502 . S
C2331 C2333 1.561 . S
C2331 C2334 1.526 . S
C2332 H2316 0.959 . S
C2332 H2317 0.959 . S
C2332 H2318 0.961 . S
C2332 C2331 1.502 . S
C2333 H2319 0.960 . S
C2333 H2320 0.961 . S
C2333 H2321 0.959 . S
C2333 C2331 1.561 . S
C2334 C2331 1.526 . S
C2334 C2335 1.396 . S
C2334 C2339 1.390 . S
C2335 C2329 1.465 . S
C2335 C2334 1.396 . S
C2335 C2336 1.399 . S
C2336 H2322 0.929 . S
C2336 C2335 1.399 . S
C2336 C2337 1.385 . S
C2337 H2323 0.931 . S
C2337 C2336 1.385 . S
C2337 C2338 1.389 . S
C2338 C2337 1.389 . S
C2338 C2339 1.387 . S
C2339 H2324 0.930 . S
C2339 C2334 1.390 . S
C2339 C2338 1.387 . S
H2340 C2352 0.930 . S
H2341 C2354 0.930 . S
H2342 C2355 0.930 . S
H2343 C2359 0.959 . S
H2344 C2359 0.959 . S
H2345 C2359 0.961 . S
H2346 C2360 0.960 . S
H2347 C2360 0.961 . S
H2348 C2360 0.959 . S
H2349 C2363 0.929 . S
H2350 C2364 0.931 . S
H2351 C2366 0.930 . S
C2352 H2340 0.930 . S
C2352 C2353 1.399 . S
C2352 C2357 1.399 . S
C2353 C2352 1.399 . S
C2353 C2354 1.376 . S
C2354 H2341 0.930 . S
C2354 C2353 1.376 . S
C2354 C2355 1.388 . S
C2355 H2342 0.930 . S
C2355 C2354 1.388 . S
C2355 C2356 1.390 . S
C2356 C2355 1.390 . S
C2356 C2357 1.394 . S
C2356 C2362 1.465 . S
C2357 C2352 1.399 . S
C2357 C2356 1.394 . S
C2357 C2358 1.516 . S
C2358 C2357 1.516 . S
C2358 C2359 1.502 . S
C2358 C2360 1.561 . S
C2358 C2361 1.526 . S
C2359 H2343 0.959 . S
C2359 H2344 0.959 . S
C2359 H2345 0.961 . S
C2359 C2358 1.502 . S
C2360 H2346 0.960 . S
C2360 H2347 0.961 . S
C2360 H2348 0.959 . S
C2360 C2358 1.561 . S
C2361 C2358 1.526 . S
C2361 C2362 1.396 . S
C2361 C2366 1.390 . S
C2362 C2356 1.465 . S
C2362 C2361 1.396 . S
C2362 C2363 1.399 . S
C2363 H2349 0.929 . S
C2363 C2362 1.399 . S
C2363 C2364 1.385 . S
C2364 H2350 0.931 . S
C2364 C2363 1.385 . S
C2364 C2365 1.389 . S
C2365 C2364 1.389 . S
C2365 C2366 1.387 . S
C2366 H2351 0.930 . S
C2366 C2361 1.390 . S
C2366 C2365 1.387 . S
H2367 C2379 0.930 . S
H2368 C2381 0.930 . S
H2369 C2382 0.930 . S
H2370 C2386 0.959 . S
H2371 C2386 0.959 . S
H2372 C2386 0.961 . S
H2373 C2387 0.960 . S
H2374 C2387 0.961 . S
H2375 C2387 0.959 . S
H2376 C2390 0.929 . S
H2377 C2391 0.931 . S
H2378 C2393 0.930 . S
C2379 H2367 0.930 . S
C2379 C2380 1.399 . S
C2379 C2384 1.399 . S
C2380 C2379 1.399 . S
C2380 C2381 1.376 . S
C2381 H2368 0.930 . S
C2381 C2380 1.376 . S
C2381 C2382 1.388 . S
C2382 H2369 0.930 . S
C2382 C2381 1.388 . S
C2382 C2383 1.390 . S
C2383 C2382 1.390 . S
C2383 C2384 1.394 . S
C2383 C2389 1.465 . S
C2384 C2379 1.399 . S
C2384 C2383 1.394 . S
C2384 C2385 1.516 . S
C2385 C2384 1.516 . S
C2385 C2386 1.502 . S
C2385 C2387 1.561 . S
C2385 C2388 1.526 . S
C2386 H2370 0.959 . S
C2386 H2371 0.959 . S
C2386 H2372 0.961 . S
C2386 C2385 1.502 . S
C2387 H2373 0.960 . S
C2387 H2374 0.961 . S
C2387 H2375 0.959 . S
C2387 C2385 1.561 . S
C2388 C2385 1.526 . S
C2388 C2389 1.396 . S
C2388 C2393 1.390 . S
C2389 C2383 1.465 . S
C2389 C2388 1.396 . S
C2389 C2390 1.399 . S
C2390 H2376 0.929 . S
C2390 C2389 1.399 . S
C2390 C2391 1.385 . S
C2391 H2377 0.931 . S
C2391 C2390 1.385 . S
C2391 C2392 1.389 . S
C2392 C2391 1.389 . S
C2392 C2393 1.387 . S
C2393 H2378 0.930 . S
C2393 C2388 1.390 . S
C2393 C2392 1.387 . S
H2394 C2406 0.930 . S
H2395 C2408 0.930 . S
H2396 C2409 0.930 . S
H2397 C2413 0.959 . S
H2398 C2413 0.959 . S
H2399 C2413 0.961 . S
H2400 C2414 0.960 . S
H2401 C2414 0.961 . S
H2402 C2414 0.959 . S
H2403 C2417 0.929 . S
H2404 C2418 0.931 . S
H2405 C2420 0.930 . S
C2406 H2394 0.930 . S
C2406 C2407 1.399 . S
C2406 C2411 1.399 . S
C2407 C2406 1.399 . S
C2407 C2408 1.376 . S
C2408 H2395 0.930 . S
C2408 C2407 1.376 . S
C2408 C2409 1.388 . S
C2409 H2396 0.930 . S
C2409 C2408 1.388 . S
C2409 C2410 1.390 . S
C2410 C2409 1.390 . S
C2410 C2411 1.394 . S
C2410 C2416 1.465 . S
C2411 C2406 1.399 . S
C2411 C2410 1.394 . S
C2411 C2412 1.516 . S
C2412 C2411 1.516 . S
C2412 C2413 1.502 . S
C2412 C2414 1.561 . S
C2412 C2415 1.526 . S
C2413 H2397 0.959 . S
C2413 H2398 0.959 . S
C2413 H2399 0.961 . S
C2413 C2412 1.502 . S
C2414 H2400 0.960 . S
C2414 H2401 0.961 . S
C2414 H2402 0.959 . S
C2414 C2412 1.561 . S
C2415 C2412 1.526 . S
C2415 C2416 1.396 . S
C2415 C2420 1.390 . S
C2416 C2410 1.465 . S
C2416 C2415 1.396 . S
C2416 C2417 1.399 . S
C2417 H2403 0.929 . S
C2417 C2416 1.399 . S
C2417 C2418 1.385 . S
C2418 H2404 0.931 . S
C2418 C2417 1.385 . S
C2418 C2419 1.389 . S
C2419 C2418 1.389 . S
C2419 C2420 1.387 . S
C2420 H2405 0.930 . S
C2420 C2415 1.390 . S
C2420 C2419 1.387 . S
H2421 C2433 0.930 . S
H2422 C2435 0.930 . S
H2423 C2436 0.930 . S
H2424 C2440 0.959 . S
H2425 C2440 0.959 . S
H2426 C2440 0.961 . S
H2427 C2441 0.960 . S
H2428 C2441 0.961 . S
H2429 C2441 0.959 . S
H2430 C2444 0.929 . S
H2431 C2445 0.931 . S
H2432 C2447 0.930 . S
C2433 H2421 0.930 . S
C2433 C2434 1.399 . S
C2433 C2438 1.399 . S
C2434 C2433 1.399 . S
C2434 C2435 1.376 . S
C2435 H2422 0.930 . S
C2435 C2434 1.376 . S
C2435 C2436 1.388 . S
C2436 H2423 0.930 . S
C2436 C2435 1.388 . S
C2436 C2437 1.390 . S
C2437 C2436 1.390 . S
C2437 C2438 1.394 . S
C2437 C2443 1.465 . S
C2438 C2433 1.399 . S
C2438 C2437 1.394 . S
C2438 C2439 1.516 . S
C2439 C2438 1.516 . S
C2439 C2440 1.502 . S
C2439 C2441 1.561 . S
C2439 C2442 1.526 . S
C2440 H2424 0.959 . S
C2440 H2425 0.959 . S
C2440 H2426 0.961 . S
C2440 C2439 1.502 . S
C2441 H2427 0.960 . S
C2441 H2428 0.961 . S
C2441 H2429 0.959 . S
C2441 C2439 1.561 . S
C2442 C2439 1.526 . S
C2442 C2443 1.396 . S
C2442 C2447 1.390 . S
C2443 C2437 1.465 . S
C2443 C2442 1.396 . S
C2443 C2444 1.399 . S
C2444 H2430 0.929 . S
C2444 C2443 1.399 . S
C2444 C2445 1.385 . S
C2445 H2431 0.931 . S
C2445 C2444 1.385 . S
C2445 C2446 1.389 . S
C2446 C2445 1.389 . S
C2446 C2447 1.387 . S
C2447 H2432 0.930 . S
C2447 C2442 1.390 . S
C2447 C2446 1.387 . S
H2448 C2460 0.930 . S
H2449 C2462 0.930 . S
H2450 C2463 0.930 . S
H2451 C2467 0.959 . S
H2452 C2467 0.959 . S
H2453 C2467 0.961 . S
H2454 C2468 0.960 . S
H2455 C2468 0.961 . S
H2456 C2468 0.959 . S
H2457 C2471 0.929 . S
H2458 C2472 0.931 . S
H2459 C2474 0.930 . S
C2460 H2448 0.930 . S
C2460 C2461 1.399 . S
C2460 C2465 1.399 . S
C2461 C2460 1.399 . S
C2461 C2462 1.376 . S
C2462 H2449 0.930 . S
C2462 C2461 1.376 . S
C2462 C2463 1.388 . S
C2463 H2450 0.930 . S
C2463 C2462 1.388 . S
C2463 C2464 1.390 . S
C2464 C2463 1.390 . S
C2464 C2465 1.394 . S
C2464 C2470 1.465 . S
C2465 C2460 1.399 . S
C2465 C2464 1.394 . S
C2465 C2466 1.516 . S
C2466 C2465 1.516 . S
C2466 C2467 1.502 . S
C2466 C2468 1.561 . S
C2466 C2469 1.526 . S
C2467 H2451 0.959 . S
C2467 H2452 0.959 . S
C2467 H2453 0.961 . S
C2467 C2466 1.502 . S
C2468 H2454 0.960 . S
C2468 H2455 0.961 . S
C2468 H2456 0.959 . S
C2468 C2466 1.561 . S
C2469 C2466 1.526 . S
C2469 C2470 1.396 . S
C2469 C2474 1.390 . S
C2470 C2464 1.465 . S
C2470 C2469 1.396 . S
C2470 C2471 1.399 . S
C2471 H2457 0.929 . S
C2471 C2470 1.399 . S
C2471 C2472 1.385 . S
C2472 H2458 0.931 . S
C2472 C2471 1.385 . S
C2472 C2473 1.389 . S
C2473 C2472 1.389 . S
C2473 C2474 1.387 . S
C2474 H2459 0.930 . S
C2474 C2469 1.390 . S
C2474 C2473 1.387 . S
H2475 C2487 0.930 . S
H2476 C2489 0.930 . S
H2477 C2490 0.930 . S
H2478 C2494 0.959 . S
H2479 C2494 0.959 . S
H2480 C2494 0.961 . S
H2481 C2495 0.960 . S
H2482 C2495 0.961 . S
H2483 C2495 0.959 . S
H2484 C2498 0.929 . S
H2485 C2499 0.931 . S
H2486 C2501 0.930 . S
C2487 H2475 0.930 . S
C2487 C2488 1.399 . S
C2487 C2492 1.399 . S
C2488 C2487 1.399 . S
C2488 C2489 1.376 . S
C2489 H2476 0.930 . S
C2489 C2488 1.376 . S
C2489 C2490 1.388 . S
C2490 H2477 0.930 . S
C2490 C2489 1.388 . S
C2490 C2491 1.390 . S
C2491 C2490 1.390 . S
C2491 C2492 1.394 . S
C2491 C2497 1.465 . S
C2492 C2487 1.399 . S
C2492 C2491 1.394 . S
C2492 C2493 1.516 . S
C2493 C2492 1.516 . S
C2493 C2494 1.502 . S
C2493 C2495 1.561 . S
C2493 C2496 1.526 . S
C2494 H2478 0.959 . S
C2494 H2479 0.959 . S
C2494 H2480 0.961 . S
C2494 C2493 1.502 . S
C2495 H2481 0.960 . S
C2495 H2482 0.961 . S
C2495 H2483 0.959 . S
C2495 C2493 1.561 . S
C2496 C2493 1.526 . S
C2496 C2497 1.396 . S
C2496 C2501 1.390 . S
C2497 C2491 1.465 . S
C2497 C2496 1.396 . S
C2497 C2498 1.399 . S
C2498 H2484 0.929 . S
C2498 C2497 1.399 . S
C2498 C2499 1.385 . S
C2499 H2485 0.931 . S
C2499 C2498 1.385 . S
C2499 C2500 1.389 . S
C2500 C2499 1.389 . S
C2500 C2501 1.387 . S
C2501 H2486 0.930 . S
C2501 C2496 1.390 . S
C2501 C2500 1.387 . S
H2502 C2514 0.930 . S
H2503 C2516 0.930 . S
H2504 C2517 0.930 . S
H2505 C2521 0.959 . S
H2506 C2521 0.959 . S
H2507 C2521 0.961 . S
H2508 C2522 0.960 . S
H2509 C2522 0.961 . S
H2510 C2522 0.959 . S
H2511 C2525 0.929 . S
H2512 C2526 0.931 . S
H2513 C2528 0.930 . S
C2514 H2502 0.930 . S
C2514 C2515 1.399 . S
C2514 C2519 1.399 . S
C2515 C2514 1.399 . S
C2515 C2516 1.376 . S
C2516 H2503 0.930 . S
C2516 C2515 1.376 . S
C2516 C2517 1.388 . S
C2517 H2504 0.930 . S
C2517 C2516 1.388 . S
C2517 C2518 1.390 . S
C2518 C2517 1.390 . S
C2518 C2519 1.394 . S
C2518 C2524 1.465 . S
C2519 C2514 1.399 . S
C2519 C2518 1.394 . S
C2519 C2520 1.516 . S
C2520 C2519 1.516 . S
C2520 C2521 1.502 . S
C2520 C2522 1.561 . S
C2520 C2523 1.526 . S
C2521 H2505 0.959 . S
C2521 H2506 0.959 . S
C2521 H2507 0.961 . S
C2521 C2520 1.502 . S
C2522 H2508 0.960 . S
C2522 H2509 0.961 . S
C2522 H2510 0.959 . S
C2522 C2520 1.561 . S
C2523 C2520 1.526 . S
C2523 C2524 1.396 . S
C2523 C2528 1.390 . S
C2524 C2518 1.465 . S
C2524 C2523 1.396 . S
C2524 C2525 1.399 . S
C2525 H2511 0.929 . S
C2525 C2524 1.399 . S
C2525 C2526 1.385 . S
C2526 H2512 0.931 . S
C2526 C2525 1.385 . S
C2526 C2527 1.389 . S
C2527 C2526 1.389 . S
C2527 C2528 1.387 . S
C2528 H2513 0.930 . S
C2528 C2523 1.390 . S
C2528 C2527 1.387 . S
H2529 C2541 0.930 . S
H2530 C2543 0.930 . S
H2531 C2544 0.930 . S
H2532 C2548 0.959 . S
H2533 C2548 0.959 . S
H2534 C2548 0.961 . S
H2535 C2549 0.960 . S
H2536 C2549 0.961 . S
H2537 C2549 0.959 . S
H2538 C2552 0.929 . S
H2539 C2553 0.931 . S
H2540 C2555 0.930 . S
C2541 H2529 0.930 . S
C2541 C2542 1.399 . S
C2541 C2546 1.399 . S
C2542 C2541 1.399 . S
C2542 C2543 1.376 . S
C2543 H2530 0.930 . S
C2543 C2542 1.376 . S
C2543 C2544 1.388 . S
C2544 H2531 0.930 . S
C2544 C2543 1.388 . S
C2544 C2545 1.390 . S
C2545 C2544 1.390 . S
C2545 C2546 1.394 . S
C2545 C2551 1.465 . S
C2546 C2541 1.399 . S
C2546 C2545 1.394 . S
C2546 C2547 1.516 . S
C2547 C2546 1.516 . S
C2547 C2548 1.502 . S
C2547 C2549 1.561 . S
C2547 C2550 1.526 . S
C2548 H2532 0.959 . S
C2548 H2533 0.959 . S
C2548 H2534 0.961 . S
C2548 C2547 1.502 . S
C2549 H2535 0.960 . S
C2549 H2536 0.961 . S
C2549 H2537 0.959 . S
C2549 C2547 1.561 . S
C2550 C2547 1.526 . S
C2550 C2551 1.396 . S
C2550 C2555 1.390 . S
C2551 C2545 1.465 . S
C2551 C2550 1.396 . S
C2551 C2552 1.399 . S
C2552 H2538 0.929 . S
C2552 C2551 1.399 . S
C2552 C2553 1.385 . S
C2553 H2539 0.931 . S
C2553 C2552 1.385 . S
C2553 C2554 1.389 . S
C2554 C2553 1.389 . S
C2554 C2555 1.387 . S
C2555 H2540 0.930 . S
C2555 C2550 1.390 . S
C2555 C2554 1.387 . S
C637 C318 1.572 . S
C625 C308 1.573 . S
C652 C282 1.387 . S
C664 C316 1.382 . S
C691 C317 1.382 . S
C679 C269 1.386 . S
C706 C295 1.569 . S
C718 C319 1.570 . S
C745 C363 1.517 . S
C733 C217 1.518 . S
C772 C423 1.526 . S
C760 C230 1.528 . S
C787 C243 1.525 . S
C799 C362 1.523 . S
C826 C422 1.345 . S
C814 C256 1.348 . S
C841 C165 1.518 . S
C853 C364 1.517 . S
C880 C420 1.344 . S
C868 C178 1.337 . S
C895 C191 1.524 . S
C907 C365 1.519 . S
C922 C204 1.528 . S
C934 C421 1.527 . S
C961 C471 1.569 . S
C949 C152 1.570 . S
C976 C126 1.372 1_556 S
C988 C470 1.381 1_556 S
C1003 C113 1.376 . S
C1015 C472 1.383 . S
C1042 C473 1.567 1_556 S
C1030 C139 1.567 . S
C1057 C61 1.516 . S
C1069 C514 1.515 . S
C1084 C74 1.528 1_545 S
C1096 C573 1.528 . S
C1111 C87 1.524 . S
C1123 C512 1.520 . S
C1138 C100 1.336 . S
C1150 C572 1.343 1_565 S
C1177 C513 1.518 . S
C1165 C9 1.519 . S
C1204 C570 1.344 1_565 S
C1192 C22 1.348 1_565 S
C1219 C35 1.524 . S
C1231 C515 1.527 . S
C1258 C571 1.526 . S
C1246 C48 1.526 . S
C1285 C315 1.490 . S
C1273 C4 1.262 . S
C1300 C21 1.430 1_565 S
C1312 C321 1.437 1_565 S
C1327 C34 1.686 . S
C1339 C313 1.740 . S
C1354 C43 1.239 1_565 S
C1366 C320 1.339 1_565 S
C1381 C56 1.278 . S
C1393 C312 1.486 . S
C1420 C322 1.336 1_565 S
C1408 C69 1.217 . S
C1435 C86 1.684 . S
C1447 C314 1.740 . S
C1474 C323 1.439 1_565 S
C1462 C99 1.430 . S
C1501 C369 1.621 1_565 S
C1489 C47 1.565 1_565 S
C1516 C8 1.618 . S
C1528 C412 1.683 . S
C1555 C367 1.275 1_565 S
C1543 C17 1.194 . S
C1582 C414 1.448 . S
C1570 C30 1.156 . S
C1597 C73 1.604 . S
C1609 C368 1.622 1_565 S
C1636 C413 1.451 . S
C1624 C82 1.173 . S
C1663 C366 1.280 . S
C1651 C95 1.189 1_545 S
C1690 C415 1.681 . S
C1678 C60 1.632 . S
C1717 C419 1.466 . S
C1705 C112 1.445 . S
C1732 C125 1.452 1_556 S
C1744 C418 1.463 1_556 S
C1771 C370 1.428 . S
C1759 C108 1.159 . S
C1798 C417 1.671 . S
C1786 C138 1.617 1_554 S
C1813 C147 1.191 . S
C1825 C373 1.446 . S
C1840 C151 1.616 1_556 S
C1852 C416 1.670 1_556 S
C1879 C372 1.421 1_556 S
C1867 C121 1.224 . S
C1906 C371 1.445 1_556 S
C1894 C134 1.182 . S
C1933 C465 1.483 . S
C1921 C160 1.321 . S
C1960 C468 1.441 . S
C1948 C177 1.416 . S
C1975 C190 1.727 . S
C1987 C464 1.742 . S
C2014 C466 1.340 . S
C2002 C199 1.238 . S
C2041 C462 1.481 . S
C2029 C212 1.347 . S
C2056 C225 1.080 . S
C2068 C467 1.350 . S
C2083 C242 1.712 . S
C2095 C463 1.740 . S
C2122 C469 1.440 . S
C2110 C255 1.427 . S
C2149 C523 1.623 . S
C2137 C203 1.609 . S
C2164 C164 1.636 . S
C2176 C562 1.681 . S
C2203 C522 1.288 . S
C2191 C173 1.035 . S
C2230 C564 1.437 . S
C2218 C186 1.313 . S
C2257 C521 1.622 . S
C2245 C229 1.558 . S
C2272 C238 1.312 . S
C2284 C563 1.438 . S
C2311 C520 1.289 . S
C2299 C251 1.033 . S
C2338 C565 1.684 . S
C2326 C216 1.658 . S
C2365 C569 1.472 . S
C2353 C268 1.396 . S
C2380 C281 1.438 . S
C2392 C568 1.466 . S
C2419 C516 1.422 . S
C2407 C264 1.300 . S
C2434 C294 1.610 . S
C2446 C567 1.671 . S
C2473 C519 1.447 . S
C2461 C303 1.172 . S
C2500 C566 1.671 . S
C2488 C307 1.653 . S
C2527 C517 1.421 . S
C2515 C277 1.302 . S
C2542 C290 1.325 . S
C2554 C518 1.440 . S
