# Generated by pormake.
# Topology tsx, (6,3)-cn, num edge types: 1
# Building blocks:
#     Node 0, Type 0, BuildingBlock: JUFBIX_clean_sbu_0, # of connection points: 6
#     Node 1, Type 0, BuildingBlock: JUFBIX_clean_sbu_0, # of connection points: 6
#     Node 2, Type 1, BuildingBlock: MIDCAF_clean_linker_0, # of connection points: 3
#     Node 3, Type 1, BuildingBlock: MIDCAF_clean_linker_0, # of connection points: 3
#     Node 4, Type 1, BuildingBlock: MIDCAF_clean_linker_0, # of connection points: 3
#     Node 5, Type 1, BuildingBlock: MIDCAF_clean_linker_0, # of connection points: 3
#     Edge 6, Type (0, 1), BuildingBlock: TEMPAE_clean_linker_10, # of connection points: 2
#     Edge 7, Type (0, 1), BuildingBlock: TEMPAE_clean_linker_10, # of connection points: 2
#     Edge 8, Type (0, 1), BuildingBlock: TEMPAE_clean_linker_10, # of connection points: 2
#     Edge 9, Type (0, 1), BuildingBlock: TEMPAE_clean_linker_10, # of connection points: 2
#     Edge 10, Type (0, 1), BuildingBlock: TEMPAE_clean_linker_10, # of connection points: 2
#     Edge 11, Type (0, 1), BuildingBlock: TEMPAE_clean_linker_10, # of connection points: 2
#     Edge 12, Type (0, 1), BuildingBlock: TEMPAE_clean_linker_10, # of connection points: 2
#     Edge 13, Type (0, 1), BuildingBlock: TEMPAE_clean_linker_10, # of connection points: 2
#     Edge 14, Type (0, 1), BuildingBlock: TEMPAE_clean_linker_10, # of connection points: 2
#     Edge 15, Type (0, 1), BuildingBlock: TEMPAE_clean_linker_10, # of connection points: 2
#     Edge 16, Type (0, 1), BuildingBlock: TEMPAE_clean_linker_10, # of connection points: 2
#     Edge 17, Type (0, 1), BuildingBlock: TEMPAE_clean_linker_10, # of connection points: 2
# Relax obj value: 0.160
# Max RMSD: 0.167
# Mean RMSD: 0.135
data_MOF--net-tsx--node1-JUFBIX_clean_sbu_0--node2-MIDCAF_clean_linker_0--edge1-TEMPAE_clean_linker_10
_symmetry_space_group_name_H-M    P1
_symmetry_Int_Tables_number       1
_symmetry_cell_setting            triclinic
loop_
_symmetry_equiv_pos_as_xyz
'x, y, z'
_cell_length_a     24.073453
_cell_length_b     28.472995
_cell_length_c     43.891494
_cell_angle_alpha  92.228317
_cell_angle_beta   89.638143
_cell_angle_gamma 97.846697
loop_
_atom_site_label
_atom_site_type_symbol
_atom_site_fract_x
_atom_site_fract_y
_atom_site_fract_z
_atom_type_partial_charge
Co0 Co 0.05904 0.9973 0.01674 0.0
C1 C 0.0131 0.02006 0.96186 0.0
Co2 Co 0.98308 0.03301 0.02165 0.0
C3 C 0.13293 0.9248 0.01918 0.0
C4 C 0.17094 0.98667 0.9969 0.0
N5 N 0.12353 0.96846 0.01118 0.0
N6 N 0.18429 0.91517 0.01047 0.0
C7 C 0.2083 0.95418 0.99652 0.0
H8 H 0.10253 0.90037 0.03097 0.0
H9 H 0.17751 0.02098 0.98671 0.0
C10 C 0.02929 0.01054 0.0766 0.0
N11 N 0.91848 0.06113 0.02771 0.0
C12 C 0.90487 0.10208 0.0172 0.0
C13 C 0.87466 0.04422 0.04529 0.0
N14 N 0.85415 0.11115 0.02747 0.0
C15 C 0.83511 0.0747 0.0451 0.0
C16 C 0.96081 0.93443 0.01656 0.0
O17 O 0.06529 0.9937 0.05958 0.0
O18 O 0.9902 0.02918 0.06448 0.0
O19 O 0.93926 0.97259 0.01969 0.0
O20 O 0.01381 0.93667 0.01478 0.0
O21 O 0.97673 0.03646 0.97887 0.0
H22 H 0.87196 0.01201 0.05782 0.0
H23 H 0.93155 0.12464 0.00223 0.0
O24 O 0.05233 0.00141 0.97392 0.0
O25 O 0.10306 0.05849 0.01869 0.0
O26 O 0.02746 0.0933 0.02326 0.0
C27 C 0.08048 0.09634 0.02121 0.0
H28 H 0.24914 0.95826 0.98573 0.0
H29 H 0.79591 0.07085 0.05757 0.0
Co30 Co 0.53284 0.48971 0.5078 0.0
C31 C 0.4842 0.51789 0.45476 0.0
Co32 Co 0.46006 0.52824 0.51547 0.0
C33 C 0.61303 0.42254 0.51203 0.0
C34 C 0.63653 0.47595 0.47957 0.0
N35 N 0.59608 0.46095 0.49968 0.0
N36 N 0.66273 0.41314 0.50044 0.0
C37 C 0.6773 0.44671 0.47991 0.0
H38 H 0.58958 0.40229 0.52938 0.0
H39 H 0.63631 0.50626 0.46548 0.0
C40 C 0.50856 0.50095 0.56862 0.0
N41 N 0.3972 0.55728 0.52429 0.0
C42 C 0.38453 0.5996 0.51573 0.0
C43 C 0.35483 0.54045 0.54284 0.0
N44 N 0.33588 0.60975 0.52824 0.0
C45 C 0.31708 0.57246 0.54523 0.0
C46 C 0.43446 0.42937 0.50808 0.0
O47 O 0.54097 0.48178 0.55046 0.0
O48 O 0.47131 0.52313 0.5578 0.0
O49 O 0.41465 0.46791 0.51387 0.0
O50 O 0.48689 0.43036 0.50411 0.0
O51 O 0.44933 0.53356 0.47309 0.0
H52 H 0.35217 0.5074 0.55447 0.0
H53 H 0.4106 0.6225 0.50069 0.0
O54 O 0.52376 0.49798 0.46535 0.0
O55 O 0.57862 0.54933 0.51131 0.0
O56 O 0.50623 0.58801 0.51673 0.0
C57 C 0.55893 0.5884 0.51448 0.0
H58 H 0.71426 0.44951 0.46558 0.0
H59 H 0.27953 0.56914 0.55912 0.0
C60 C 0.92483 0.16427 0.45915 0.0
C61 C 0.8967 0.15494 0.4868 0.0
C62 C 0.91045 0.11766 0.5042 0.0
C63 C 0.94927 0.08848 0.49303 0.0
H64 H 0.04161 0.95673 0.50394 0.0
H65 H 0.08869 0.89288 0.52401 0.0
H66 H 0.21873 0.91938 0.45619 0.0
H67 H 0.17221 0.98212 0.43625 0.0
H68 H 0.08854 0.966 0.36732 0.0
H69 H 0.09019 0.96085 0.31173 0.0
H70 H 0.01135 0.08799 0.30886 0.0
H71 H 0.0097 0.09349 0.36442 0.0
H72 H 0.98267 0.14329 0.42623 0.0
H73 H 0.91655 0.19367 0.44569 0.0
H74 H 0.88973 0.11004 0.52578 0.0
H75 H 0.95774 0.05887 0.5062 0.0
N76 N 0.03748 0.03399 0.46621 0.0
N77 N 0.07432 0.00439 0.4207 0.0
N78 N 0.01442 0.0619 0.41881 0.0
C79 C 0.07057 0.00501 0.4516 0.0
C80 C 0.04615 0.03245 0.40412 0.0
C81 C 0.00984 0.06314 0.4497 0.0
C82 C 0.10279 0.97365 0.46821 0.0
C83 C 0.08096 0.94952 0.49391 0.0
C84 C 0.10778 0.91305 0.50533 0.0
C85 C 0.15659 0.9006 0.49112 0.0
C86 C 0.18046 0.92749 0.46707 0.0
C87 C 0.15384 0.96346 0.45572 0.0
C88 C 0.04893 0.03016 0.37038 0.0
C89 C 0.07181 0.99305 0.3549 0.0
C90 C 0.07249 0.98988 0.32306 0.0
C91 C 0.05086 0.02398 0.30604 0.0
C92 C 0.02875 0.06144 0.32145 0.0
C93 C 0.02756 0.0644 0.35328 0.0
C94 C 0.97452 0.09632 0.46432 0.0
C95 C 0.96297 0.13537 0.44804 0.0
C96 C 0.87499 0.8638 0.57593 0.0
C97 C 0.8471 0.87165 0.549 0.0
C98 C 0.86607 0.91218 0.53249 0.0
C99 C 0.90974 0.94583 0.54401 0.0
H100 H 0.07078 0.04432 0.52619 0.0
H101 H 0.14415 0.09845 0.5014 0.0
H102 H 0.18726 0.1688 0.58872 0.0
H103 H 0.11594 0.11546 0.61315 0.0
H104 H 0.08305 0.06451 0.67324 0.0
H105 H 0.08062 0.06811 0.72872 0.0
H106 H 0.92064 0.97825 0.72705 0.0
H107 H 0.92395 0.97326 0.67166 0.0
H108 H 0.93696 0.89075 0.60889 0.0
H109 H 0.86267 0.83214 0.58861 0.0
H110 H 0.84557 0.91886 0.51151 0.0
H111 H 0.92201 0.97792 0.53177 0.0
N112 N 0.01003 0.0079 0.57213 0.0
N113 N 0.04309 0.04488 0.6186 0.0
N114 N 0.97146 0.98097 0.61868 0.0
C115 C 0.04549 0.0419 0.58764 0.0
C116 C 0.00609 0.01479 0.63427 0.0
C117 C 0.97311 0.97714 0.58777 0.0
C118 C 0.08769 0.07511 0.57167 0.0
C119 C 0.09609 0.07135 0.53995 0.0
C120 C 0.13799 0.10228 0.52579 0.0
C121 C 0.17225 0.13719 0.54325 0.0
C122 C 0.16277 0.1414 0.57475 0.0
C123 C 0.12131 0.11085 0.58874 0.0
C124 C 0.00385 0.01838 0.66798 0.0
C125 C 0.04727 0.0456 0.68469 0.0
C126 C 0.04572 0.0479 0.71653 0.0
C127 C 1.00046 0.02341 0.73238 0.0
C128 C 0.95661 0.99686 0.71561 0.0
C129 C 0.95841 0.99418 0.6838 0.0
C130 C 0.93444 0.93928 0.57219 0.0
C131 C 0.91781 0.89727 0.58745 0.0
C132 C 0.34281 0.58942 0.953 0.0
C133 C 0.35854 0.61655 0.97977 0.0
C134 C 0.40414 0.60529 0.99673 0.0
C135 C 0.43589 0.57033 0.98573 0.0
H136 H 0.52325 0.42572 0.99656 0.0
H137 H 0.58347 0.37066 0.01606 0.0
H138 H 0.70375 0.4089 0.94476 0.0
H139 H 0.6437 0.46277 0.92519 0.0
H140 H 0.58682 0.46778 0.85936 0.0
H141 H 0.5911 0.46518 0.80383 0.0
H142 H 0.4271 0.50986 0.80012 0.0
H143 H 0.42251 0.51265 0.85579 0.0
H144 H 0.36285 0.53671 0.92038 0.0
H145 H 0.30684 0.59593 0.93989 0.0
H146 H 0.41731 0.62528 0.01754 0.0
H147 H 0.47248 0.5641 0.99837 0.0
N148 N 0.49978 0.4963 0.95815 0.0
N149 N 0.53914 0.47164 0.91207 0.0
N150 N 0.46375 0.51507 0.91106 0.0
C151 C 0.53824 0.4731 0.94301 0.0
C152 C 0.50205 0.49226 0.89589 0.0
C153 C 0.4624 0.51757 0.94209 0.0
C154 C 0.57843 0.44795 0.95912 0.0
C155 C 0.56323 0.42315 0.98563 0.0
C156 C 0.59764 0.3916 0.99672 0.0
C157 C 0.64775 0.38469 0.98149 0.0
C158 C 0.66473 0.41248 0.9565 0.0
C159 C 0.63042 0.44353 0.94539 0.0
C160 C 0.50428 0.49045 0.8621 0.0
C161 C 0.55151 0.47696 0.84679 0.0
C162 C 0.55419 0.47567 0.81497 0.0
C163 C 0.50945 0.48727 0.79771 0.0
C164 C 0.462 0.50035 0.8129 0.0
C165 C 0.45956 0.50221 0.84477 0.0
C166 C 0.42295 0.54654 0.95746 0.0
C167 C 0.37477 0.55518 0.94189 0.0
C168 C 0.30609 0.44716 0.06536 0.0
C169 C 0.3205 0.41502 0.04254 0.0
C170 C 0.37314 0.42423 0.02822 0.0
C171 C 0.41258 0.46214 0.03876 0.0
H172 H 0.54692 0.60943 0.02963 0.0
H173 H 0.63037 0.65928 0.01139 0.0
H174 H 0.72462 0.62022 0.08774 0.0
H175 H 0.64088 0.57213 0.10637 0.0
H176 H 0.56437 0.58364 0.17031 0.0
H177 H 0.5586 0.58256 0.22563 0.0
H178 H 0.38475 0.52063 0.21933 0.0
H179 H 0.39068 0.52059 0.16395 0.0
H180 H 0.33413 0.50678 0.09503 0.0
H181 H 0.26528 0.44181 0.07622 0.0
H182 H 0.38536 0.40022 0.01044 0.0
H183 H 0.45421 0.46646 0.02888 0.0
N184 N 0.49264 0.54105 0.06693 0.0
N185 N 0.53022 0.56854 0.11473 0.0
N186 N 0.44023 0.52608 0.11171 0.0
C187 C 0.53541 0.56488 0.08391 0.0
C188 C 0.48266 0.54945 0.12882 0.0
C189 C 0.44477 0.52155 0.0809 0.0
C190 C 0.58735 0.58753 0.06959 0.0
C191 C 0.58586 0.61073 0.04203 0.0
C192 C 0.63374 0.63921 0.0316 0.0
C193 C 0.684 0.64446 0.04843 0.0
C194 C 0.68627 0.61803 0.07467 0.0
C195 C 0.63838 0.5903 0.08529 0.0
C196 C 0.47812 0.55189 0.16256 0.0
C197 C 0.52475 0.57005 0.18064 0.0
C198 C 0.52138 0.56969 0.21243 0.0
C199 C 0.47126 0.55134 0.22693 0.0
C200 C 0.42424 0.5343 0.20888 0.0
C201 C 0.42763 0.53451 0.17709 0.0
C202 C 0.39995 0.49092 0.06391 0.0
C203 C 0.34544 0.48452 0.07603 0.0
C204 C 0.09016 0.18498 0.02069 0.0
C205 C 0.11541 0.14342 0.02138 0.0
C206 C 0.12264 0.22987 0.02138 0.0
C207 C 0.18178 0.23334 0.02302 0.0
C208 C 0.20757 0.19151 0.02305 0.0
C209 C 0.17409 0.14705 0.02213 0.0
C210 C 0.09356 0.27362 0.02117 0.0
C211 C 0.27048 0.19373 0.02503 0.0
C212 C 0.27292 0.35018 0.00713 0.0
C213 C 0.28351 0.36935 0.03677 0.0
C214 C 0.23926 0.30611 0.00215 0.0
C215 C 0.21634 0.28058 0.02744 0.0
C216 C 0.22703 0.29983 0.05735 0.0
C217 C 0.26039 0.34385 0.06162 0.0
C218 C 0.2284 0.28675 0.96993 0.0
C219 C 0.20388 0.27362 0.08496 0.0
H220 H 0.04485 0.18251 0.01983 0.0
H221 H 0.19396 0.11514 0.02253 0.0
H222 H 0.10049 0.29374 0.04329 0.0
H223 H 0.11153 0.29735 0.0031 0.0
H224 H 0.04767 0.26484 0.01737 0.0
H225 H 0.28417 0.15803 0.02284 0.0
H226 H 0.29111 0.21599 0.0069 0.0
H227 H 0.28542 0.21056 0.04725 0.0
H228 H 0.29065 0.36977 0.98787 0.0
H229 H 0.26947 0.35789 0.08463 0.0
H230 H 0.1826 0.27996 0.96557 0.0
H231 H 0.24481 0.25233 0.96675 0.0
H232 H 0.24826 0.31139 0.95275 0.0
H233 H 0.15748 0.26648 0.08364 0.0
H234 H 0.21568 0.29377 0.10667 0.0
H235 H 0.21963 0.23881 0.08548 0.0
C236 C 0.26544 0.87143 0.01473 0.0
C237 C 0.20727 0.87116 0.01267 0.0
C238 C 0.28919 0.82901 0.01333 0.0
C239 C 0.25397 0.7851 0.00956 0.0
C240 C 0.195 0.78444 0.00902 0.0
C241 C 0.17235 0.82747 0.01069 0.0
C242 C 0.3522 0.83141 0.01431 0.0
C243 C 0.15593 0.73847 0.00487 0.0
C244 C 0.31691 0.6883 0.96502 0.0
C245 C 0.33041 0.65888 0.98805 0.0
C246 C 0.29128 0.72879 0.97178 0.0
C247 C 0.27911 0.74083 0.00246 0.0
C248 C 0.2926 0.71149 0.02593 0.0
C249 C 0.31816 0.67084 0.01846 0.0
C250 C 0.27795 0.75911 0.94601 0.0
C251 C 0.2804 0.72326 0.0589 0.0
H252 H 0.29254 0.90503 0.01683 0.0
H253 H 0.12741 0.82697 0.0089 0.0
H254 H 0.36456 0.80619 0.03082 0.0
H255 H 0.36784 0.82091 0.99155 0.0
H256 H 0.37325 0.8676 0.02072 0.0
H257 H 0.11135 0.74341 0.00854 0.0
H258 H 0.16042 0.72357 0.98139 0.0
H259 H 0.16696 0.71196 0.02085 0.0
H260 H 0.32743 0.68018 0.94153 0.0
H261 H 0.32821 0.64828 0.03639 0.0
H262 H 0.30178 0.79519 0.94898 0.0
H263 H 0.23271 0.763 0.94631 0.0
H264 H 0.28842 0.74399 0.92332 0.0
H265 H 0.30348 0.75846 0.06577 0.0
H266 H 0.29248 0.69645 0.07441 0.0
H267 H 0.23505 0.72558 0.06192 0.0
C268 C 0.94673 0.84539 0.01677 0.0
C269 C 0.92412 0.88823 0.01605 0.0
C270 C 0.91165 0.8019 0.01884 0.0
C271 C 0.85276 0.80139 0.02021 0.0
C272 C 0.82978 0.84432 0.01811 0.0
C273 C 0.86568 0.88713 0.01609 0.0
C274 C 0.93767 0.75682 0.02093 0.0
C275 C 0.76721 0.84537 0.01942 0.0
C276 C 0.74703 0.6898 0.01037 0.0
C277 C 0.73173 0.68107 0.04075 0.0
C278 C 0.78852 0.72752 0.00324 0.0
C279 C 0.81507 0.75718 0.02704 0.0
C280 C 0.80137 0.74736 0.05774 0.0
C281 C 0.75982 0.70965 0.06419 0.0
C282 C 0.80225 0.73682 0.97024 0.0
C283 C 0.8285 0.7782 0.08383 0.0
H284 H 0.99184 0.84593 0.0166 0.0
H285 H 0.84778 0.91999 0.01525 0.0
H286 H 0.93152 0.7433 0.04425 0.0
H287 H 0.91688 0.72894 0.00486 0.0
H288 H 0.98335 0.7624 0.01592 0.0
H289 H 0.75596 0.88108 0.01507 0.0
H290 H 0.74549 0.81951 0.00241 0.0
H291 H 0.75111 0.8349 0.04226 0.0
H292 H 0.72599 0.66758 0.99215 0.0
H293 H 0.74767 0.70391 0.08771 0.0
H294 H 0.84831 0.74177 0.96665 0.0
H295 H 0.78679 0.7701 0.96392 0.0
H296 H 0.78285 0.70752 0.95467 0.0
H297 H 0.87482 0.78244 0.08161 0.0
H298 H 0.81676 0.76337 0.10639 0.0
H299 H 0.81554 0.81408 0.08323 0.0
C300 C 0.76723 0.14649 0.02091 0.0
C301 C 0.826 0.15142 0.02152 0.0
C302 C 0.73887 0.18528 0.01562 0.0
C303 C 0.77 0.23031 0.01096 0.0
C304 C 0.82937 0.23568 0.01174 0.0
C305 C 0.85668 0.19609 0.01686 0.0
C306 C 0.67557 0.17786 0.01451 0.0
C307 C 0.86401 0.28317 0.00701 0.0
C308 C 0.69846 0.31648 0.96635 0.0
C309 C 0.68 0.34595 0.98958 0.0
C310 C 0.72836 0.27924 0.97302 0.0
C311 C 0.74026 0.27109 0.00373 0.0
C312 C 0.72198 0.30075 0.02736 0.0
C313 C 0.69176 0.33775 0.02001 0.0
C314 C 0.74641 0.24811 0.94716 0.0
C315 C 0.73409 0.29321 0.06037 0.0
H316 H 0.74332 0.11196 0.02408 0.0
H317 H 0.90205 0.20023 0.0177 0.0
H318 H 0.65852 0.20232 0.0313 0.0
H319 H 0.66118 0.18619 0.99162 0.0
H320 H 0.65758 0.14088 0.0194 0.0
H321 H 0.90967 0.2818 0.00942 0.0
H322 H 0.8561 0.29538 0.98393 0.0
H323 H 0.85153 0.31005 0.02373 0.0
H324 H 0.68855 0.32199 0.9428 0.0
H325 H 0.67779 0.36052 0.03802 0.0
H326 H 0.72661 0.21094 0.94973 0.0
H327 H 0.79248 0.24818 0.9478 0.0
H328 H 0.73489 0.25985 0.92448 0.0
H329 H 0.71404 0.25754 0.0668 0.0
H330 H 0.71858 0.32025 0.07596 0.0
H331 H 0.77991 0.29449 0.06379 0.0
C332 C 0.57805 0.67673 0.51055 0.0
C333 C 0.59751 0.63345 0.5156 0.0
C334 C 0.61489 0.71954 0.51185 0.0
C335 C 0.67205 0.71894 0.51905 0.0
C336 C 0.69194 0.6752 0.52365 0.0
C337 C 0.65455 0.63301 0.52159 0.0
C338 C 0.59251 0.76541 0.50617 0.0
C339 C 0.75236 0.67305 0.53193 0.0
C340 C 0.79031 0.82004 0.5094 0.0
C341 C 0.79709 0.838 0.53953 0.0
C342 C 0.74701 0.78319 0.50174 0.0
C343 C 0.71033 0.76387 0.52485 0.0
C344 C 0.71487 0.78414 0.5548 0.0
C345 C 0.75782 0.8212 0.56167 0.0
C346 C 0.74261 0.76311 0.4694 0.0
C347 C 0.67688 0.76456 0.58018 0.0
H348 H 0.53409 0.67714 0.50551 0.0
H349 H 0.66984 0.59965 0.52548 0.0
H350 H 0.59373 0.78746 0.52761 0.0
H351 H 0.61925 0.78607 0.48932 0.0
H352 H 0.54865 0.75935 0.49766 0.0
H353 H 0.76152 0.63604 0.53361 0.0
H354 H 0.7808 0.69095 0.51468 0.0
H355 H 0.76221 0.69214 0.55418 0.0
H356 H 0.82037 0.83313 0.49218 0.0
H357 H 0.762 0.83595 0.58482 0.0
H358 H 0.69824 0.75717 0.46181 0.0
H359 H 0.75836 0.72824 0.46821 0.0
H360 H 0.76751 0.78683 0.45332 0.0
H361 H 0.63229 0.76184 0.5733 0.0
H362 H 0.68299 0.78681 0.60157 0.0
H363 H 0.68545 0.72825 0.58499 0.0
C364 C 0.75123 0.37869 0.50144 0.0
C365 C 0.6934 0.37457 0.50716 0.0
C366 C 0.78069 0.33984 0.50377 0.0
C367 C 0.75194 0.29574 0.5126 0.0
C368 C 0.69454 0.29219 0.52075 0.0
C369 C 0.66579 0.33159 0.51772 0.0
C370 C 0.84188 0.3453 0.49478 0.0
C371 C 0.66272 0.24612 0.53098 0.0
C372 C 0.81366 0.1938 0.47428 0.0
C373 C 0.85226 0.18394 0.49614 0.0
C374 C 0.77808 0.22804 0.48015 0.0
C375 C 0.78033 0.25258 0.50887 0.0
C376 C 0.81551 0.23972 0.53205 0.0
C377 C 0.85145 0.20557 0.52536 0.0
C378 C 0.74136 0.24051 0.4547 0.0
C379 C 0.81787 0.26412 0.56323 0.0
H380 H 0.77339 0.41209 0.49425 0.0
H381 H 0.62121 0.32797 0.52233 0.0
H382 H 0.8672 0.33225 0.51285 0.0
H383 H 0.84702 0.32357 0.47366 0.0
H384 H 0.85903 0.38273 0.49058 0.0
H385 H 0.62237 0.25147 0.54211 0.0
H386 H 0.65346 0.22139 0.51094 0.0
H387 H 0.68818 0.22887 0.54709 0.0
H388 H 0.8132 0.17621 0.4519 0.0
H389 H 0.88096 0.1978 0.54239 0.0
H390 H 0.75673 0.27682 0.44727 0.0
H391 H 0.69761 0.24045 0.46275 0.0
H392 H 0.74116 0.21551 0.43461 0.0
H393 H 0.84249 0.29989 0.562 0.0
H394 H 0.83804 0.24394 0.58019 0.0
H395 H 0.77517 0.26885 0.57134 0.0
C396 C 0.41189 0.34427 0.4905 0.0
C397 C 0.39687 0.38386 0.50693 0.0
C398 C 0.37699 0.30046 0.4903 0.0
C399 C 0.32703 0.29602 0.50775 0.0
C400 C 0.31127 0.33623 0.52387 0.0
C401 C 0.34604 0.37979 0.52292 0.0
C402 C 0.39428 0.25877 0.4721 0.0
C403 C 0.2589 0.33282 0.54328 0.0
C404 C 0.20657 0.19531 0.50347 0.0
C405 C 0.2171 0.17068 0.52939 0.0
C406 C 0.24466 0.23417 0.49435 0.0
C407 C 0.29364 0.24881 0.51188 0.0
C408 C 0.30657 0.22146 0.53644 0.0
C409 C 0.26844 0.1824 0.54463 0.0
C410 C 0.23043 0.26154 0.46739 0.0
C411 C 0.35817 0.23582 0.55585 0.0
H412 H 0.45091 0.34753 0.4778 0.0
H413 H 0.33439 0.41034 0.53569 0.0
H414 H 0.40791 0.23296 0.48778 0.0
H415 H 0.35828 0.24013 0.45877 0.0
H416 H 0.42936 0.26975 0.45621 0.0
H417 H 0.25188 0.36771 0.5537 0.0
H418 H 0.22167 0.3185 0.52938 0.0
H419 H 0.26211 0.30793 0.56184 0.0
H420 H 0.16709 0.18622 0.49149 0.0
H421 H 0.27736 0.16258 0.56421 0.0
H422 H 0.26825 0.27195 0.45332 0.0
H423 H 0.21452 0.29456 0.47561 0.0
H424 H 0.19768 0.24067 0.45278 0.0
H425 H 0.39608 0.24263 0.54137 0.0
H426 H 0.36476 0.20834 0.57225 0.0
H427 H 0.35385 0.26929 0.56893 0.0
C428 C 0.25134 0.64976 0.52707 0.0
C429 C 0.3098 0.65193 0.52498 0.0
C430 C 0.22512 0.69033 0.5238 0.0
C431 C 0.25818 0.73424 0.5184 0.0
C432 C 0.3173 0.7369 0.51679 0.0
C433 C 0.3424 0.69566 0.52001 0.0
C434 C 0.16193 0.68591 0.52526 0.0
C435 C 0.35398 0.78314 0.51114 0.0
C436 C 0.1922 0.82528 0.47548 0.0
C437 C 0.18037 0.85728 0.49896 0.0
C438 C 0.21706 0.78503 0.48161 0.0
C439 C 0.23066 0.7765 0.51201 0.0
C440 C 0.218 0.80822 0.53597 0.0
C441 C 0.19259 0.84823 0.52916 0.0
C442 C 0.22913 0.75181 0.45544 0.0
C443 C 0.23211 0.80023 0.56865 0.0
H444 H 0.22588 0.616 0.53056 0.0
H445 H 0.38762 0.69771 0.51888 0.0
H446 H 0.14877 0.71211 0.54224 0.0
H447 H 0.14522 0.69385 0.50281 0.0
H448 H 0.14253 0.64985 0.53141 0.0
H449 H 0.39936 0.77982 0.51235 0.0
H450 H 0.34491 0.79548 0.48826 0.0
H451 H 0.34462 0.8109 0.52811 0.0
H452 H 0.18185 0.8318 0.45215 0.0
H453 H 0.18353 0.87301 0.5473 0.0
H454 H 0.20795 0.71543 0.45935 0.0
H455 H 0.27482 0.74997 0.45405 0.0
H456 H 0.21496 0.76315 0.43318 0.0
H457 H 0.21152 0.76491 0.57543 0.0
H458 H 0.2188 0.82777 0.58466 0.0
H459 H 0.278 0.80039 0.57098 0.0
C460 C 0.08139 0.99787 0.12412 0.0
C461 C 0.03305 0.00943 0.11017 0.0
C462 C 0.08611 0.99873 0.15601 0.0
C463 C 0.04118 0.01095 0.17429 0.0
C464 C 0.99186 0.02169 0.16032 0.0
C465 C 0.9885 0.02103 0.12844 0.0
C466 C 0.13949 0.98738 0.17015 0.0
C467 C 0.94281 0.03438 0.17906 0.0
C468 C 0.03118 0.9768 0.2571 0.0
C469 C 0.05046 0.02014 0.27228 0.0
C470 C 0.02852 0.9731 0.22515 0.0
C471 C 0.04607 0.01364 0.20806 0.0
C472 C 0.06657 0.05727 0.22327 0.0
C473 C 0.06826 0.06005 0.25522 0.0
C474 C 0.00581 0.92613 0.20974 0.0
C475 C 0.08615 0.10115 0.20579 0.0
H476 H 0.11602 0.98897 0.11013 0.0
H477 H 0.95085 0.02971 0.11782 0.0
H478 H 0.15941 0.01851 0.18401 0.0
H479 H 0.12993 0.9576 0.18574 0.0
H480 H 0.1701 0.97767 0.15276 0.0
H481 H 0.90674 0.04016 0.16467 0.0
H482 H 0.92866 0.00573 0.19492 0.0
H483 H 0.95586 0.06718 0.19316 0.0
H484 H 0.01684 0.94602 0.27027 0.0
H485 H 0.08376 0.09345 0.26693 0.0
H486 H 0.03683 0.91494 0.19313 0.0
H487 H 0.96735 0.92991 0.19677 0.0
H488 H 0.99547 0.89768 0.22628 0.0
H489 H 0.11924 0.09388 0.18924 0.0
H490 H 0.103 0.13181 0.22101 0.0
H491 H 0.05077 0.11118 0.19253 0.0
C492 C 0.96238 0.03525 0.9144 0.0
C493 C 0.01014 0.02256 0.92835 0.0
C494 C 0.95889 0.03676 0.88255 0.0
C495 C 0.00449 0.02582 0.86434 0.0
C496 C 0.05312 0.0137 0.87833 0.0
C497 C 0.05524 0.01198 0.91015 0.0
C498 C 0.90617 0.04941 0.86837 0.0
C499 C 0.10282 0.00227 0.85966 0.0
C500 C 0.98077 0.9834 0.78192 0.0
C501 C 0.9996 0.02464 0.76627 0.0
C502 C 0.98093 0.98361 0.81386 0.0
C503 C 1.00106 0.02593 0.83058 0.0
C504 C 0.01971 0.06779 0.81502 0.0
C505 C 0.01848 0.06671 0.78304 0.0
C506 C 0.96046 0.93831 0.8297 0.0
C507 C 0.04174 0.11351 0.83213 0.0
H508 H 0.92735 0.04339 0.92834 0.0
H509 H 0.09246 0.00246 0.92079 0.0
H510 H 0.91647 0.08049 0.85389 0.0
H511 H 0.88676 0.01945 0.85337 0.0
H512 H 0.87487 0.05777 0.88576 0.0
H513 H 0.1381 0.99488 0.87411 0.0
H514 H 0.09011 0.97082 0.8443 0.0
H515 H 0.118 0.03231 0.84504 0.0
H516 H 0.96694 0.95056 0.76919 0.0
H517 H 0.03227 0.0989 0.77116 0.0
H518 H 0.92725 0.94446 0.84645 0.0
H519 H 0.99542 0.92674 0.84254 0.0
H520 H 0.94345 0.90908 0.81343 0.0
H521 H 0.00961 0.12375 0.84837 0.0
H522 H 0.05367 0.14317 0.81663 0.0
H523 H 0.07905 0.10844 0.8457 0.0
C524 C 0.53768 0.46135 0.61485 0.0
C525 C 0.51342 0.49802 0.60203 0.0
C526 C 0.53935 0.45732 0.64667 0.0
C527 C 0.51734 0.49137 0.66596 0.0
C528 C 0.49423 0.52916 0.65306 0.0
C529 C 0.49203 0.53172 0.62129 0.0
C530 C 0.56349 0.41613 0.65961 0.0
C531 C 0.47135 0.56673 0.67282 0.0
C532 C 0.46749 0.46383 0.74639 0.0
C533 C 0.51259 0.48631 0.76393 0.0
C534 C 0.46936 0.46371 0.71442 0.0
C535 C 0.51715 0.48728 0.69967 0.0
C536 C 0.56315 0.50949 0.71728 0.0
C537 C 0.56045 0.50847 0.74921 0.0
C538 C 0.41977 0.4391 0.69643 0.0
C539 C 0.61444 0.53565 0.70244 0.0
H540 H 0.55398 0.4351 0.60002 0.0
H541 H 0.47368 0.56041 0.61148 0.0
H542 H 0.59807 0.42931 0.67564 0.0
H543 H 0.53076 0.39423 0.67277 0.0
H544 H 0.57976 0.39316 0.64156 0.0
H545 H 0.45717 0.59497 0.65922 0.0
H546 H 0.43535 0.55028 0.68641 0.0
H547 H 0.50388 0.5834 0.68914 0.0
H548 H 0.43074 0.44618 0.75773 0.0
H549 H 0.59521 0.5262 0.76275 0.0
H550 H 0.4338 0.41372 0.67917 0.0
H551 H 0.39992 0.4656 0.68396 0.0
H552 H 0.3876 0.41959 0.71123 0.0
H553 H 0.63199 0.51208 0.68528 0.0
H554 H 0.64768 0.54906 0.71927 0.0
H555 H 0.60262 0.5662 0.69022 0.0
C556 C 0.52048 0.50855 0.40171 0.0
C557 C 0.47969 0.52334 0.42148 0.0
C558 C 0.51752 0.514 0.37018 0.0
C559 C 0.47256 0.5346 0.35806 0.0
C560 C 0.43112 0.5495 0.37783 0.0
C561 C 0.43523 0.54376 0.40935 0.0
C562 C 0.56263 0.4978 0.34983 0.0
C563 C 0.38248 0.57145 0.36569 0.0
C564 C 0.49527 0.58557 0.27955 0.0
C565 C 0.46877 0.54837 0.26068 0.0
C566 C 0.49582 0.582 0.31135 0.0
C567 C 0.46906 0.54029 0.32461 0.0
C568 C 0.44109 0.50309 0.30578 0.0
C569 C 0.44141 0.50752 0.27405 0.0
C570 C 0.52604 0.62244 0.33072 0.0
C571 C 0.41208 0.45806 0.31908 0.0
H572 H 0.55508 0.49286 0.41087 0.0
H573 H 0.40354 0.5553 0.42446 0.0
H574 H 0.54364 0.47055 0.33282 0.0
H575 H 0.58364 0.52808 0.33701 0.0
H576 H 0.59489 0.48263 0.36288 0.0
H577 H 0.35376 0.58115 0.3841 0.0
H578 H 0.39825 0.60381 0.35329 0.0
H579 H 0.35818 0.54632 0.34916 0.0
H580 H 0.51579 0.61752 0.26943 0.0
H581 H 0.4215 0.47834 0.25964 0.0
H582 H 0.56138 0.61018 0.34286 0.0
H583 H 0.49728 0.6345 0.34831 0.0
H584 H 0.54287 0.65318 0.31699 0.0
H585 H 0.44337 0.43926 0.33028 0.0
H586 H 0.38956 0.43364 0.30148 0.0
H587 H 0.38159 0.46658 0.33682 0.0
loop_
_geom_bond_atom_site_label_1
_geom_bond_atom_site_label_2
_geom_bond_distance
_geom_bond_site_symmetry_2
_ccdc_geom_bond_type
Co0 N5 2.057 . S
Co0 O17 2.021 . S
Co0 O20 2.062 1_455 S
Co0 O24 2.117 1_554 S
Co0 O25 2.020 1_565 S
C1 O21 1.259 1_455 S
C1 O24 1.258 1_545 S
Co2 N11 2.057 . S
Co2 O18 2.117 . S
Co2 O19 2.020 1_545 S
Co2 O21 2.021 1_554 S
Co2 O26 2.062 1_655 S
C3 N5 1.316 . S
C3 N6 1.347 . S
C3 H8 0.931 . S
C4 N5 1.375 1_556 S
C4 C7 1.350 . S
C4 H9 0.930 . S
N5 Co0 2.057 . S
N5 C3 1.316 . S
N5 C4 1.375 1_554 S
N6 C3 1.347 . S
N6 C7 1.373 1_554 S
C7 C4 1.350 . S
C7 N6 1.373 1_556 S
C7 H28 0.931 . S
H8 C3 0.931 . S
H9 C4 0.930 . S
C10 O17 1.259 1_545 S
C10 O18 1.258 1_455 S
N11 Co2 2.057 . S
N11 C12 1.316 . S
N11 C13 1.375 . S
C12 N11 1.316 . S
C12 N14 1.347 . S
C12 H23 0.931 1_554 S
C13 N11 1.375 . S
C13 C15 1.350 . S
C13 H22 0.930 . S
N14 C12 1.347 . S
N14 C15 1.373 . S
C15 C13 1.350 . S
C15 N14 1.373 . S
C15 H29 0.931 . S
C16 O19 1.256 . S
C16 O20 1.255 . S
O17 Co0 2.021 . S
O17 C10 1.259 1_565 S
O18 Co2 2.117 . S
O18 C10 1.258 1_655 S
O19 Co2 2.020 1_565 S
O19 C16 1.256 . S
O20 Co0 2.062 1_655 S
O20 C16 1.255 . S
O21 C1 1.259 1_655 S
O21 Co2 2.021 1_556 S
H22 C13 0.930 . S
H23 C12 0.931 1_556 S
O24 Co0 2.117 1_556 S
O24 C1 1.258 1_565 S
O25 Co0 2.020 1_545 S
O25 C27 1.256 . S
O26 Co2 2.062 1_455 S
O26 C27 1.255 . S
C27 O25 1.256 . S
C27 O26 1.255 . S
H28 C7 0.931 . S
H29 C15 0.931 . S
Co30 N35 2.057 . S
Co30 O47 2.021 . S
Co30 O50 2.062 . S
Co30 O54 2.117 . S
Co30 O55 2.020 . S
C31 O51 1.259 . S
C31 O54 1.258 . S
Co32 N41 2.057 . S
Co32 O48 2.117 . S
Co32 O49 2.020 . S
Co32 O51 2.021 . S
Co32 O56 2.062 . S
C33 N35 1.316 . S
C33 N36 1.347 . S
C33 H38 0.931 . S
C34 N35 1.375 . S
C34 C37 1.350 . S
C34 H39 0.930 . S
N35 Co30 2.057 . S
N35 C33 1.316 . S
N35 C34 1.375 . S
N36 C33 1.347 . S
N36 C37 1.373 . S
C37 C34 1.350 . S
C37 N36 1.373 . S
C37 H58 0.931 . S
H38 C33 0.931 . S
H39 C34 0.930 . S
C40 O47 1.259 . S
C40 O48 1.258 . S
N41 Co32 2.057 . S
N41 C42 1.316 . S
N41 C43 1.375 . S
C42 N41 1.316 . S
C42 N44 1.347 . S
C42 H53 0.931 . S
C43 N41 1.375 . S
C43 C45 1.350 . S
C43 H52 0.930 . S
N44 C42 1.347 . S
N44 C45 1.373 . S
C45 C43 1.350 . S
C45 N44 1.373 . S
C45 H59 0.931 . S
C46 O49 1.256 . S
C46 O50 1.255 . S
O47 Co30 2.021 . S
O47 C40 1.259 . S
O48 Co32 2.117 . S
O48 C40 1.258 . S
O49 Co32 2.020 . S
O49 C46 1.256 . S
O50 Co30 2.062 . S
O50 C46 1.255 . S
O51 C31 1.259 . S
O51 Co32 2.021 . S
H52 C43 0.930 . S
H53 C42 0.931 . S
O54 Co30 2.117 . S
O54 C31 1.258 . S
O55 Co30 2.020 . S
O55 C57 1.256 . S
O56 Co32 2.062 . S
O56 C57 1.255 . S
C57 O55 1.256 . S
C57 O56 1.255 . S
H58 C37 0.931 . S
H59 C45 0.931 . S
C60 C61 1.384 . S
C60 H73 0.947 . S
C60 C95 1.382 . S
C61 C60 1.384 . S
C61 C62 1.378 . S
C62 C61 1.378 . S
C62 C63 1.378 . S
C62 H74 0.952 . S
C63 C62 1.378 . S
C63 H75 0.950 . S
C63 C94 1.383 . S
H64 C83 0.947 . S
H65 C84 0.946 . S
H66 C86 0.953 . S
H67 C87 0.945 . S
H68 C89 0.952 . S
H69 C90 0.949 . S
H70 C92 0.950 . S
H71 C93 0.948 . S
H72 C95 0.951 . S
H73 C60 0.947 . S
H74 C62 0.952 . S
H75 C63 0.950 . S
N76 C79 1.382 1_545 S
N76 C81 1.363 1_455 S
N77 C79 1.371 . S
N77 C80 1.372 1_565 S
N78 C80 1.361 1_655 S
N78 C81 1.377 . S
C79 N76 1.382 1_565 S
C79 N77 1.371 . S
C79 C82 1.480 . S
C80 N77 1.372 1_545 S
C80 N78 1.361 1_455 S
C80 C88 1.457 . S
C81 N76 1.363 1_655 S
C81 N78 1.377 . S
C81 C94 1.479 . S
C82 C79 1.480 . S
C82 C83 1.383 . S
C82 C87 1.385 . S
C83 H64 0.947 . S
C83 C82 1.383 . S
C83 C84 1.388 . S
C84 H65 0.946 . S
C84 C83 1.388 . S
C84 C85 1.384 . S
C85 C84 1.384 . S
C85 C86 1.377 . S
C86 H66 0.953 . S
C86 C85 1.377 . S
C86 C87 1.369 . S
C87 H67 0.945 . S
C87 C82 1.385 . S
C87 C86 1.369 . S
C88 C80 1.457 . S
C88 C89 1.372 1_545 S
C88 C93 1.364 1_455 S
C89 H68 0.952 . S
C89 C88 1.372 1_565 S
C89 C90 1.389 . S
C90 H69 0.949 . S
C90 C89 1.389 . S
C90 C91 1.387 1_565 S
C91 C90 1.387 1_545 S
C91 C92 1.372 1_455 S
C92 H70 0.950 . S
C92 C91 1.372 1_655 S
C92 C93 1.379 . S
C93 H71 0.948 . S
C93 C88 1.364 1_655 S
C93 C92 1.379 . S
C94 C63 1.383 . S
C94 C81 1.479 . S
C94 C95 1.398 . S
C95 C60 1.382 . S
C95 H72 0.951 . S
C95 C94 1.398 . S
C96 C97 1.384 . S
C96 H109 0.947 . S
C96 C131 1.382 . S
C97 C96 1.384 . S
C97 C98 1.378 . S
C98 C97 1.378 . S
C98 C99 1.378 . S
C98 H110 0.952 . S
C99 C98 1.378 . S
C99 H111 0.950 . S
C99 C130 1.383 . S
H100 C119 0.947 . S
H101 C120 0.946 . S
H102 C122 0.953 . S
H103 C123 0.945 . S
H104 C125 0.952 . S
H105 C126 0.949 . S
H106 C128 0.950 . S
H107 C129 0.948 . S
H108 C131 0.951 . S
H109 C96 0.947 . S
H110 C98 0.952 . S
H111 C99 0.950 . S
N112 C115 1.382 . S
N112 C117 1.363 1_445 S
N113 C115 1.371 . S
N113 C116 1.372 . S
N114 C116 1.361 1_665 S
N114 C117 1.377 . S
C115 N112 1.382 . S
C115 N113 1.371 . S
C115 C118 1.480 . S
C116 N113 1.372 . S
C116 N114 1.361 1_445 S
C116 C124 1.457 . S
C117 N112 1.363 1_665 S
C117 N114 1.377 . S
C117 C130 1.479 . S
C118 C115 1.480 . S
C118 C119 1.383 . S
C118 C123 1.385 . S
C119 H100 0.947 . S
C119 C118 1.383 . S
C119 C120 1.388 . S
C120 H101 0.946 . S
C120 C119 1.388 . S
C120 C121 1.384 . S
C121 C120 1.384 . S
C121 C122 1.377 . S
C122 H102 0.953 . S
C122 C121 1.377 . S
C122 C123 1.369 . S
C123 H103 0.945 . S
C123 C118 1.385 . S
C123 C122 1.369 . S
C124 C116 1.457 . S
C124 C125 1.372 . S
C124 C129 1.364 1_445 S
C125 H104 0.952 . S
C125 C124 1.372 . S
C125 C126 1.389 . S
C126 H105 0.949 . S
C126 C125 1.389 . S
C126 C127 1.387 . S
C127 C126 1.387 . S
C127 C128 1.372 1_445 S
C128 H106 0.950 . S
C128 C127 1.372 1_665 S
C128 C129 1.379 . S
C129 H107 0.948 . S
C129 C124 1.364 1_665 S
C129 C128 1.379 . S
C130 C99 1.383 . S
C130 C117 1.479 . S
C130 C131 1.398 . S
C131 C96 1.382 . S
C131 H108 0.951 . S
C131 C130 1.398 . S
C132 C133 1.384 . S
C132 H145 0.947 . S
C132 C167 1.382 . S
C133 C132 1.384 . S
C133 C134 1.378 1_556 S
C134 C133 1.378 1_554 S
C134 C135 1.378 1_554 S
C134 H146 0.952 . S
C135 C134 1.378 1_556 S
C135 H147 0.950 1_556 S
C135 C166 1.383 . S
H136 C155 0.947 . S
H137 C156 0.946 . S
H138 C158 0.953 . S
H139 C159 0.945 . S
H140 C161 0.952 . S
H141 C162 0.949 . S
H142 C164 0.950 . S
H143 C165 0.948 . S
H144 C167 0.951 . S
H145 C132 0.947 . S
H146 C134 0.952 . S
H147 C135 0.950 1_554 S
N148 C151 1.382 . S
N148 C153 1.363 . S
N149 C151 1.371 . S
N149 C152 1.372 . S
N150 C152 1.361 . S
N150 C153 1.377 . S
C151 N148 1.382 . S
C151 N149 1.371 . S
C151 C154 1.480 . S
C152 N149 1.372 . S
C152 N150 1.361 . S
C152 C160 1.457 . S
C153 N148 1.363 . S
C153 N150 1.377 . S
C153 C166 1.479 . S
C154 C151 1.480 . S
C154 C155 1.383 . S
C154 C159 1.385 . S
C155 H136 0.947 . S
C155 C154 1.383 . S
C155 C156 1.388 1_556 S
C156 H137 0.946 . S
C156 C155 1.388 1_554 S
C156 C157 1.384 1_554 S
C157 C156 1.384 1_556 S
C157 C158 1.377 . S
C158 H138 0.953 . S
C158 C157 1.377 . S
C158 C159 1.369 . S
C159 H139 0.945 . S
C159 C154 1.385 . S
C159 C158 1.369 . S
C160 C152 1.457 . S
C160 C161 1.372 . S
C160 C165 1.364 . S
C161 H140 0.952 . S
C161 C160 1.372 . S
C161 C162 1.389 . S
C162 H141 0.949 . S
C162 C161 1.389 . S
C162 C163 1.387 . S
C163 C162 1.387 . S
C163 C164 1.372 . S
C164 H142 0.950 . S
C164 C163 1.372 . S
C164 C165 1.379 . S
C165 H143 0.948 . S
C165 C160 1.364 . S
C165 C164 1.379 . S
C166 C135 1.383 . S
C166 C153 1.479 . S
C166 C167 1.398 . S
C167 C132 1.382 . S
C167 H144 0.951 . S
C167 C166 1.398 . S
C168 C169 1.384 . S
C168 H181 0.947 . S
C168 C203 1.382 . S
C169 C168 1.384 . S
C169 C170 1.378 . S
C170 C169 1.378 . S
C170 C171 1.378 . S
C170 H182 0.952 1_554 S
C171 C170 1.378 . S
C171 H183 0.950 . S
C171 C202 1.383 . S
H172 C191 0.947 . S
H173 C192 0.946 . S
H174 C194 0.953 . S
H175 C195 0.945 . S
H176 C197 0.952 . S
H177 C198 0.949 . S
H178 C200 0.950 . S
H179 C201 0.948 . S
H180 C203 0.951 . S
H181 C168 0.947 . S
H182 C170 0.952 1_556 S
H183 C171 0.950 . S
N184 C187 1.382 . S
N184 C189 1.363 . S
N185 C187 1.371 . S
N185 C188 1.372 . S
N186 C188 1.361 . S
N186 C189 1.377 . S
C187 N184 1.382 . S
C187 N185 1.371 . S
C187 C190 1.480 . S
C188 N185 1.372 . S
C188 N186 1.361 . S
C188 C196 1.457 . S
C189 N184 1.363 . S
C189 N186 1.377 . S
C189 C202 1.479 . S
C190 C187 1.480 . S
C190 C191 1.383 . S
C190 C195 1.385 . S
C191 H172 0.947 . S
C191 C190 1.383 . S
C191 C192 1.388 . S
C192 H173 0.946 . S
C192 C191 1.388 . S
C192 C193 1.384 . S
C193 C192 1.384 . S
C193 C194 1.377 . S
C194 H174 0.953 . S
C194 C193 1.377 . S
C194 C195 1.369 . S
C195 H175 0.945 . S
C195 C190 1.385 . S
C195 C194 1.369 . S
C196 C188 1.457 . S
C196 C197 1.372 . S
C196 C201 1.364 . S
C197 H176 0.952 . S
C197 C196 1.372 . S
C197 C198 1.389 . S
C198 H177 0.949 . S
C198 C197 1.389 . S
C198 C199 1.387 . S
C199 C198 1.387 . S
C199 C200 1.372 . S
C200 H178 0.950 . S
C200 C199 1.372 . S
C200 C201 1.379 . S
C201 H179 0.948 . S
C201 C196 1.364 . S
C201 C200 1.379 . S
C202 C171 1.383 . S
C202 C189 1.479 . S
C202 C203 1.398 . S
C203 C168 1.382 . S
C203 H180 0.951 . S
C203 C202 1.398 . S
C204 C205 1.391 . S
C204 C206 1.394 . S
C204 H220 0.931 . S
C205 C204 1.391 . S
C205 C209 1.376 . S
C206 C204 1.394 . S
C206 C207 1.369 . S
C206 C210 1.531 . S
C207 C206 1.369 . S
C207 C208 1.410 . S
C207 C215 1.503 . S
C208 C207 1.410 . S
C208 C209 1.392 . S
C208 C211 1.511 . S
C209 C205 1.376 . S
C209 C208 1.392 . S
C209 H221 0.929 . S
C210 C206 1.531 . S
C210 H222 0.960 . S
C210 H223 0.962 . S
C210 H224 0.960 . S
C211 C208 1.511 . S
C211 H225 0.961 . S
C211 H226 0.961 . S
C211 H227 0.961 . S
C212 C213 1.370 . S
C212 C214 1.363 . S
C212 H228 0.931 1_554 S
C213 C212 1.370 . S
C213 C217 1.408 . S
C214 C212 1.363 . S
C214 C215 1.370 . S
C214 C218 1.524 1_554 S
C215 C207 1.503 . S
C215 C214 1.370 . S
C215 C216 1.403 . S
C216 C215 1.403 . S
C216 C217 1.404 . S
C216 C219 1.539 . S
C217 C213 1.408 . S
C217 C216 1.404 . S
C217 H229 0.930 . S
C218 C214 1.524 1_556 S
C218 H230 0.956 . S
C218 H231 0.961 . S
C218 H232 0.961 . S
C219 C216 1.539 . S
C219 H233 0.958 . S
C219 H234 0.961 . S
C219 H235 0.960 . S
H220 C204 0.931 . S
H221 C209 0.929 . S
H222 C210 0.960 . S
H223 C210 0.962 . S
H224 C210 0.960 . S
H225 C211 0.961 . S
H226 C211 0.961 . S
H227 C211 0.961 . S
H228 C212 0.931 1_556 S
H229 C217 0.930 . S
H230 C218 0.956 . S
H231 C218 0.961 . S
H232 C218 0.961 . S
H233 C219 0.958 . S
H234 C219 0.961 . S
H235 C219 0.960 . S
C236 C237 1.391 . S
C236 C238 1.394 . S
C236 H252 0.931 . S
C237 C236 1.391 . S
C237 C241 1.364 1_554 S
C238 C236 1.394 . S
C238 C239 1.369 . S
C238 C242 1.531 . S
C239 C238 1.369 . S
C239 C240 1.410 1_554 S
C239 C247 1.503 . S
C240 C239 1.410 1_556 S
C240 C241 1.393 . S
C240 C243 1.511 . S
C241 C237 1.364 1_556 S
C241 C240 1.393 . S
C241 H253 0.941 . S
C242 C238 1.531 . S
C242 H254 0.960 . S
C242 H255 0.962 . S
C242 H256 0.960 . S
C243 C240 1.511 . S
C243 H257 0.961 . S
C243 H258 0.961 . S
C243 H259 0.961 . S
C244 C245 1.361 1_556 S
C244 C246 1.363 . S
C244 H260 0.931 . S
C245 C244 1.361 1_554 S
C245 C249 1.421 . S
C246 C244 1.363 . S
C246 C247 1.370 1_556 S
C246 C250 1.524 . S
C247 C239 1.503 . S
C247 C246 1.370 1_554 S
C247 C248 1.403 . S
C248 C247 1.403 . S
C248 C249 1.404 . S
C248 C251 1.539 . S
C249 C245 1.421 . S
C249 C248 1.404 . S
C249 H261 0.930 . S
C250 C246 1.524 . S
C250 H262 0.956 . S
C250 H263 0.961 . S
C250 H264 0.961 . S
C251 C248 1.539 . S
C251 H265 0.958 . S
C251 H266 0.961 . S
C251 H267 0.960 . S
H252 C236 0.931 . S
H253 C241 0.941 . S
H254 C242 0.960 . S
H255 C242 0.962 . S
H256 C242 0.960 . S
H257 C243 0.961 . S
H258 C243 0.961 . S
H259 C243 0.961 . S
H260 C244 0.931 . S
H261 C249 0.930 . S
H262 C250 0.956 . S
H263 C250 0.961 . S
H264 C250 0.961 . S
H265 C251 0.958 . S
H266 C251 0.961 . S
H267 C251 0.960 . S
C268 C269 1.391 . S
C268 C270 1.394 . S
C268 H284 0.931 . S
C269 C268 1.391 . S
C269 C273 1.376 . S
C270 C268 1.394 . S
C270 C271 1.369 . S
C270 C274 1.531 . S
C271 C270 1.369 . S
C271 C272 1.410 . S
C271 C279 1.503 . S
C272 C271 1.410 . S
C272 C273 1.392 . S
C272 C275 1.511 . S
C273 C269 1.376 . S
C273 C272 1.392 . S
C273 H285 0.929 . S
C274 C270 1.531 . S
C274 H286 0.960 . S
C274 H287 0.962 . S
C274 H288 0.960 . S
C275 C272 1.511 . S
C275 H289 0.961 . S
C275 H290 0.961 . S
C275 H291 0.961 . S
C276 C277 1.370 . S
C276 C278 1.363 . S
C276 H292 0.931 1_554 S
C277 C276 1.370 . S
C277 C281 1.408 . S
C278 C276 1.363 . S
C278 C279 1.370 . S
C278 C282 1.524 1_554 S
C279 C271 1.503 . S
C279 C278 1.370 . S
C279 C280 1.403 . S
C280 C279 1.403 . S
C280 C281 1.404 . S
C280 C283 1.539 . S
C281 C277 1.408 . S
C281 C280 1.404 . S
C281 H293 0.930 . S
C282 C278 1.524 1_556 S
C282 H294 0.956 . S
C282 H295 0.961 . S
C282 H296 0.961 . S
C283 C280 1.539 . S
C283 H297 0.958 . S
C283 H298 0.961 . S
C283 H299 0.960 . S
H284 C268 0.931 . S
H285 C273 0.929 . S
H286 C274 0.960 . S
H287 C274 0.962 . S
H288 C274 0.960 . S
H289 C275 0.961 . S
H290 C275 0.961 . S
H291 C275 0.961 . S
H292 C276 0.931 1_556 S
H293 C281 0.930 . S
H294 C282 0.956 . S
H295 C282 0.961 . S
H296 C282 0.961 . S
H297 C283 0.958 . S
H298 C283 0.961 . S
H299 C283 0.960 . S
C300 C301 1.391 . S
C300 C302 1.394 . S
C300 H316 0.931 . S
C301 C300 1.391 . S
C301 C305 1.376 . S
C302 C300 1.394 . S
C302 C303 1.369 . S
C302 C306 1.531 . S
C303 C302 1.369 . S
C303 C304 1.410 . S
C303 C311 1.503 . S
C304 C303 1.410 . S
C304 C305 1.392 . S
C304 C307 1.511 1_554 S
C305 C301 1.376 . S
C305 C304 1.392 . S
C305 H317 0.923 1_554 S
C306 C302 1.531 . S
C306 H318 0.960 . S
C306 H319 0.962 . S
C306 H320 0.960 . S
C307 C304 1.511 1_556 S
C307 H321 0.961 . S
C307 H322 0.961 . S
C307 H323 0.961 1_556 S
C308 C309 1.370 . S
C308 C310 1.363 . S
C308 H324 0.931 . S
C309 C308 1.370 . S
C309 C313 1.408 1_556 S
C310 C308 1.363 . S
C310 C311 1.370 1_556 S
C310 C314 1.524 . S
C311 C303 1.503 . S
C311 C310 1.370 1_554 S
C311 C312 1.403 . S
C312 C311 1.403 . S
C312 C313 1.404 . S
C312 C315 1.539 . S
C313 C309 1.408 1_554 S
C313 C312 1.404 . S
C313 H325 0.930 . S
C314 C310 1.524 . S
C314 H326 0.956 . S
C314 H327 0.961 . S
C314 H328 0.961 . S
C315 C312 1.539 . S
C315 H329 0.958 . S
C315 H330 0.961 . S
C315 H331 0.960 . S
H316 C300 0.931 . S
H317 C305 0.923 1_556 S
H318 C306 0.960 . S
H319 C306 0.962 . S
H320 C306 0.960 . S
H321 C307 0.961 . S
H322 C307 0.961 . S
H323 C307 0.961 1_554 S
H324 C308 0.931 . S
H325 C313 0.930 . S
H326 C314 0.956 . S
H327 C314 0.961 . S
H328 C314 0.961 . S
H329 C315 0.958 . S
H330 C315 0.961 . S
H331 C315 0.960 . S
C332 C333 1.391 . S
C332 C334 1.394 . S
C332 H348 0.931 . S
C333 C332 1.391 . S
C333 C337 1.376 . S
C334 C332 1.394 . S
C334 C335 1.369 . S
C334 C338 1.531 . S
C335 C334 1.369 . S
C335 C336 1.410 . S
C335 C343 1.503 . S
C336 C335 1.410 . S
C336 C337 1.392 . S
C336 C339 1.511 . S
C337 C333 1.376 . S
C337 C336 1.392 . S
C337 H349 0.929 . S
C338 C334 1.531 . S
C338 H350 0.960 . S
C338 H351 0.962 . S
C338 H352 0.960 . S
C339 C336 1.511 . S
C339 H353 0.961 . S
C339 H354 0.961 . S
C339 H355 0.961 . S
C340 C341 1.370 . S
C340 C342 1.363 . S
C340 H356 0.931 . S
C341 C340 1.370 . S
C341 C345 1.408 . S
C342 C340 1.363 . S
C342 C343 1.370 . S
C342 C346 1.524 . S
C343 C335 1.503 . S
C343 C342 1.370 . S
C343 C344 1.403 . S
C344 C343 1.403 . S
C344 C345 1.404 . S
C344 C347 1.539 . S
C345 C341 1.408 . S
C345 C344 1.404 . S
C345 H357 0.930 . S
C346 C342 1.524 . S
C346 H358 0.956 . S
C346 H359 0.961 . S
C346 H360 0.961 . S
C347 C344 1.539 . S
C347 H361 0.958 . S
C347 H362 0.961 . S
C347 H363 0.960 . S
H348 C332 0.931 . S
H349 C337 0.929 . S
H350 C338 0.960 . S
H351 C338 0.962 . S
H352 C338 0.960 . S
H353 C339 0.961 . S
H354 C339 0.961 . S
H355 C339 0.961 . S
H356 C340 0.931 . S
H357 C345 0.930 . S
H358 C346 0.956 . S
H359 C346 0.961 . S
H360 C346 0.961 . S
H361 C347 0.958 . S
H362 C347 0.961 . S
H363 C347 0.960 . S
C364 C365 1.391 . S
C364 C366 1.394 . S
C364 H380 0.931 . S
C365 C364 1.391 . S
C365 C369 1.376 . S
C366 C364 1.394 . S
C366 C367 1.369 . S
C366 C370 1.531 . S
C367 C366 1.369 . S
C367 C368 1.410 . S
C367 C375 1.503 . S
C368 C367 1.410 . S
C368 C369 1.392 . S
C368 C371 1.511 . S
C369 C365 1.376 . S
C369 C368 1.392 . S
C369 H381 0.929 . S
C370 C366 1.531 . S
C370 H382 0.960 . S
C370 H383 0.962 . S
C370 H384 0.960 . S
C371 C368 1.511 . S
C371 H385 0.961 . S
C371 H386 0.961 . S
C371 H387 0.961 . S
C372 C373 1.370 . S
C372 C374 1.363 . S
C372 H388 0.931 . S
C373 C372 1.370 . S
C373 C377 1.408 . S
C374 C372 1.363 . S
C374 C375 1.370 . S
C374 C378 1.524 . S
C375 C367 1.503 . S
C375 C374 1.370 . S
C375 C376 1.403 . S
C376 C375 1.403 . S
C376 C377 1.404 . S
C376 C379 1.539 . S
C377 C373 1.408 . S
C377 C376 1.404 . S
C377 H389 0.930 . S
C378 C374 1.524 . S
C378 H390 0.956 . S
C378 H391 0.961 . S
C378 H392 0.961 . S
C379 C376 1.539 . S
C379 H393 0.958 . S
C379 H394 0.961 . S
C379 H395 0.960 . S
H380 C364 0.931 . S
H381 C369 0.929 . S
H382 C370 0.960 . S
H383 C370 0.962 . S
H384 C370 0.960 . S
H385 C371 0.961 . S
H386 C371 0.961 . S
H387 C371 0.961 . S
H388 C372 0.931 . S
H389 C377 0.930 . S
H390 C378 0.956 . S
H391 C378 0.961 . S
H392 C378 0.961 . S
H393 C379 0.958 . S
H394 C379 0.961 . S
H395 C379 0.960 . S
C396 C397 1.391 . S
C396 C398 1.394 . S
C396 H412 0.931 . S
C397 C396 1.391 . S
C397 C401 1.376 . S
C398 C396 1.394 . S
C398 C399 1.369 . S
C398 C402 1.531 . S
C399 C398 1.369 . S
C399 C400 1.410 . S
C399 C407 1.503 . S
C400 C399 1.410 . S
C400 C401 1.392 . S
C400 C403 1.511 . S
C401 C397 1.376 . S
C401 C400 1.392 . S
C401 H413 0.929 . S
C402 C398 1.531 . S
C402 H414 0.960 . S
C402 H415 0.962 . S
C402 H416 0.960 . S
C403 C400 1.511 . S
C403 H417 0.961 . S
C403 H418 0.961 . S
C403 H419 0.961 . S
C404 C405 1.370 . S
C404 C406 1.363 . S
C404 H420 0.931 . S
C405 C404 1.370 . S
C405 C409 1.408 . S
C406 C404 1.363 . S
C406 C407 1.370 . S
C406 C410 1.524 . S
C407 C399 1.503 . S
C407 C406 1.370 . S
C407 C408 1.403 . S
C408 C407 1.403 . S
C408 C409 1.404 . S
C408 C411 1.539 . S
C409 C405 1.408 . S
C409 C408 1.404 . S
C409 H421 0.930 . S
C410 C406 1.524 . S
C410 H422 0.956 . S
C410 H423 0.961 . S
C410 H424 0.961 . S
C411 C408 1.539 . S
C411 H425 0.958 . S
C411 H426 0.961 . S
C411 H427 0.960 . S
H412 C396 0.931 . S
H413 C401 0.929 . S
H414 C402 0.960 . S
H415 C402 0.962 . S
H416 C402 0.960 . S
H417 C403 0.961 . S
H418 C403 0.961 . S
H419 C403 0.961 . S
H420 C404 0.931 . S
H421 C409 0.930 . S
H422 C410 0.956 . S
H423 C410 0.961 . S
H424 C410 0.961 . S
H425 C411 0.958 . S
H426 C411 0.961 . S
H427 C411 0.960 . S
C428 C429 1.391 . S
C428 C430 1.394 . S
C428 H444 0.931 . S
C429 C428 1.391 . S
C429 C433 1.376 . S
C430 C428 1.394 . S
C430 C431 1.369 . S
C430 C434 1.531 . S
C431 C430 1.369 . S
C431 C432 1.410 . S
C431 C439 1.503 . S
C432 C431 1.410 . S
C432 C433 1.392 . S
C432 C435 1.511 . S
C433 C429 1.376 . S
C433 C432 1.392 . S
C433 H445 0.929 . S
C434 C430 1.531 . S
C434 H446 0.960 . S
C434 H447 0.962 . S
C434 H448 0.960 . S
C435 C432 1.511 . S
C435 H449 0.961 . S
C435 H450 0.961 . S
C435 H451 0.961 . S
C436 C437 1.370 . S
C436 C438 1.363 . S
C436 H452 0.931 . S
C437 C436 1.370 . S
C437 C441 1.408 . S
C438 C436 1.363 . S
C438 C439 1.370 . S
C438 C442 1.524 . S
C439 C431 1.503 . S
C439 C438 1.370 . S
C439 C440 1.403 . S
C440 C439 1.403 . S
C440 C441 1.404 . S
C440 C443 1.539 . S
C441 C437 1.408 . S
C441 C440 1.404 . S
C441 H453 0.930 . S
C442 C438 1.524 . S
C442 H454 0.956 . S
C442 H455 0.961 . S
C442 H456 0.961 . S
C443 C440 1.539 . S
C443 H457 0.958 . S
C443 H458 0.961 . S
C443 H459 0.960 . S
H444 C428 0.931 . S
H445 C433 0.929 . S
H446 C434 0.960 . S
H447 C434 0.962 . S
H448 C434 0.960 . S
H449 C435 0.961 . S
H450 C435 0.961 . S
H451 C435 0.961 . S
H452 C436 0.931 . S
H453 C441 0.930 . S
H454 C442 0.956 . S
H455 C442 0.961 . S
H456 C442 0.961 . S
H457 C443 0.958 . S
H458 C443 0.961 . S
H459 C443 0.960 . S
C460 C461 1.391 . S
C460 C462 1.394 . S
C460 H476 0.931 . S
C461 C460 1.391 . S
C461 C465 1.376 1_445 S
C462 C460 1.394 . S
C462 C463 1.369 . S
C462 C466 1.531 . S
C463 C462 1.369 . S
C463 C464 1.408 1_445 S
C463 C471 1.503 . S
C464 C463 1.408 1_665 S
C464 C465 1.392 . S
C464 C467 1.513 . S
C465 C461 1.376 1_665 S
C465 C464 1.392 . S
C465 H477 0.929 . S
C466 C462 1.531 . S
C466 H478 0.960 . S
C466 H479 0.962 . S
C466 H480 0.960 . S
C467 C464 1.513 . S
C467 H481 0.961 . S
C467 H482 0.961 . S
C467 H483 0.961 1_565 S
C468 C469 1.370 1_565 S
C468 C470 1.363 . S
C468 H484 0.931 . S
C469 C468 1.370 1_545 S
C469 C473 1.408 1_455 S
C470 C468 1.363 . S
C470 C471 1.370 1_565 S
C470 C474 1.524 . S
C471 C463 1.503 . S
C471 C470 1.370 1_545 S
C471 C472 1.403 1_455 S
C472 C471 1.403 1_655 S
C472 C473 1.404 . S
C472 C475 1.539 . S
C473 C469 1.408 1_655 S
C473 C472 1.404 . S
C473 H485 0.930 . S
C474 C470 1.524 . S
C474 H486 0.956 . S
C474 H487 0.961 . S
C474 H488 0.961 . S
C475 C472 1.539 . S
C475 H489 0.961 . S
C475 H490 0.961 . S
C475 H491 0.960 . S
H476 C460 0.931 . S
H477 C465 0.929 . S
H478 C466 0.960 . S
H479 C466 0.962 . S
H480 C466 0.960 . S
H481 C467 0.961 . S
H482 C467 0.961 . S
H483 C467 0.961 1_545 S
H484 C468 0.931 . S
H485 C473 0.930 . S
H486 C474 0.956 . S
H487 C474 0.961 . S
H488 C474 0.961 . S
H489 C475 0.961 . S
H490 C475 0.961 . S
H491 C475 0.960 . S
C492 C493 1.391 1_655 S
C492 C494 1.394 . S
C492 H508 0.931 . S
C493 C492 1.391 1_455 S
C493 C497 1.376 . S
C494 C492 1.394 . S
C494 C495 1.369 1_655 S
C494 C498 1.531 . S
C495 C494 1.369 1_455 S
C495 C496 1.410 . S
C495 C503 1.503 . S
C496 C495 1.410 . S
C496 C497 1.392 . S
C496 C499 1.511 . S
C497 C493 1.376 . S
C497 C496 1.392 . S
C497 H509 0.929 . S
C498 C494 1.531 . S
C498 H510 0.960 . S
C498 H511 0.962 . S
C498 H512 0.960 . S
C499 C496 1.511 . S
C499 H513 0.961 . S
C499 H514 0.961 . S
C499 H515 0.961 . S
C500 C501 1.370 1_665 S
C500 C502 1.363 . S
C500 H516 0.931 . S
C501 C500 1.370 1_445 S
C501 C505 1.408 . S
C502 C500 1.363 . S
C502 C503 1.370 1_665 S
C502 C506 1.524 . S
C503 C495 1.503 . S
C503 C502 1.370 1_445 S
C503 C504 1.403 . S
C504 C503 1.403 . S
C504 C505 1.404 . S
C504 C507 1.539 . S
C505 C501 1.408 . S
C505 C504 1.404 . S
C505 H517 0.930 . S
C506 C502 1.524 . S
C506 H518 0.956 . S
C506 H519 0.961 1_655 S
C506 H520 0.961 . S
C507 C504 1.539 . S
C507 H521 0.958 . S
C507 H522 0.961 . S
C507 H523 0.960 . S
H508 C492 0.931 . S
H509 C497 0.929 . S
H510 C498 0.960 . S
H511 C498 0.962 . S
H512 C498 0.960 . S
H513 C499 0.961 . S
H514 C499 0.961 . S
H515 C499 0.961 . S
H516 C500 0.931 . S
H517 C505 0.930 . S
H518 C506 0.956 . S
H519 C506 0.961 1_455 S
H520 C506 0.961 . S
H521 C507 0.958 . S
H522 C507 0.961 . S
H523 C507 0.960 . S
C524 C525 1.391 . S
C524 C526 1.394 . S
C524 H540 0.931 . S
C525 C524 1.391 . S
C525 C529 1.376 . S
C526 C524 1.394 . S
C526 C527 1.369 . S
C526 C530 1.531 . S
C527 C526 1.369 . S
C527 C528 1.410 . S
C527 C535 1.503 . S
C528 C527 1.410 . S
C528 C529 1.392 . S
C528 C531 1.511 . S
C529 C525 1.376 . S
C529 C528 1.392 . S
C529 H541 0.929 . S
C530 C526 1.531 . S
C530 H542 0.960 . S
C530 H543 0.962 . S
C530 H544 0.960 . S
C531 C528 1.511 . S
C531 H545 0.961 . S
C531 H546 0.961 . S
C531 H547 0.961 . S
C532 C533 1.370 . S
C532 C534 1.363 . S
C532 H548 0.931 . S
C533 C532 1.370 . S
C533 C537 1.408 . S
C534 C532 1.363 . S
C534 C535 1.370 . S
C534 C538 1.524 . S
C535 C527 1.503 . S
C535 C534 1.370 . S
C535 C536 1.403 . S
C536 C535 1.403 . S
C536 C537 1.404 . S
C536 C539 1.539 . S
C537 C533 1.408 . S
C537 C536 1.404 . S
C537 H549 0.930 . S
C538 C534 1.524 . S
C538 H550 0.956 . S
C538 H551 0.961 . S
C538 H552 0.961 . S
C539 C536 1.539 . S
C539 H553 0.958 . S
C539 H554 0.961 . S
C539 H555 0.960 . S
H540 C524 0.931 . S
H541 C529 0.929 . S
H542 C530 0.960 . S
H543 C530 0.962 . S
H544 C530 0.960 . S
H545 C531 0.961 . S
H546 C531 0.961 . S
H547 C531 0.961 . S
H548 C532 0.931 . S
H549 C537 0.930 . S
H550 C538 0.956 . S
H551 C538 0.961 . S
H552 C538 0.961 . S
H553 C539 0.958 . S
H554 C539 0.961 . S
H555 C539 0.960 . S
C556 C557 1.391 . S
C556 C558 1.394 . S
C556 H572 0.931 . S
C557 C556 1.391 . S
C557 C561 1.376 . S
C558 C556 1.394 . S
C558 C559 1.369 . S
C558 C562 1.531 . S
C559 C558 1.369 . S
C559 C560 1.410 . S
C559 C567 1.503 . S
C560 C559 1.410 . S
C560 C561 1.392 . S
C560 C563 1.511 . S
C561 C557 1.376 . S
C561 C560 1.392 . S
C561 H573 0.929 . S
C562 C558 1.531 . S
C562 H574 0.960 . S
C562 H575 0.962 . S
C562 H576 0.960 . S
C563 C560 1.511 . S
C563 H577 0.961 . S
C563 H578 0.961 . S
C563 H579 0.961 . S
C564 C565 1.370 . S
C564 C566 1.363 . S
C564 H580 0.931 . S
C565 C564 1.370 . S
C565 C569 1.408 . S
C566 C564 1.363 . S
C566 C567 1.370 . S
C566 C570 1.524 . S
C567 C559 1.503 . S
C567 C566 1.370 . S
C567 C568 1.403 . S
C568 C567 1.403 . S
C568 C569 1.404 . S
C568 C571 1.539 . S
C569 C565 1.408 . S
C569 C568 1.404 . S
C569 H581 0.930 . S
C570 C566 1.524 . S
C570 H582 0.956 . S
C570 H583 0.961 . S
C570 H584 0.961 . S
C571 C568 1.539 . S
C571 H585 0.958 . S
C571 H586 0.961 . S
C571 H587 0.960 . S
H572 C556 0.931 . S
H573 C561 0.929 . S
H574 C562 0.960 . S
H575 C562 0.962 . S
H576 C562 0.960 . S
H577 C563 0.961 . S
H578 C563 0.961 . S
H579 C563 0.961 . S
H580 C564 0.931 . S
H581 C569 0.930 . S
H582 C570 0.956 . S
H583 C570 0.961 . S
H584 C570 0.961 . S
H585 C571 0.958 . S
H586 C571 0.961 . S
H587 C571 0.960 . S
C213 C169 1.447 . S
C205 C27 1.483 . S
C237 N6 1.418 . S
C245 C133 1.416 1_554 S
C269 C16 1.459 . S
C277 C193 1.406 . S
C301 N14 1.388 . S
C309 C157 1.387 . S
C333 C57 1.483 . S
C341 C97 1.449 . S
C365 N36 1.408 . S
C373 C61 1.420 . S
C405 C121 1.410 . S
C397 C46 1.465 . S
C437 C85 1.385 . S
C429 N44 1.391 . S
C461 C10 1.392 . S
C469 C91 1.384 . S
C493 C1 1.524 . S
C501 C127 1.531 . S
C533 C163 1.389 . S
C525 C40 1.377 . S
C557 C31 1.526 . S
C565 C199 1.526 . S
