# Generated by pormake.
# Topology pyr, (3,6)-cn, num edge types: 1
# Building blocks:
#     Node 0, Type 0, BuildingBlock: MIDCAF_clean_linker_0, # of connection points: 3
#     Node 1, Type 0, BuildingBlock: MIDCAF_clean_linker_0, # of connection points: 3
#     Node 2, Type 0, BuildingBlock: MIDCAF_clean_linker_0, # of connection points: 3
#     Node 3, Type 0, BuildingBlock: MIDCAF_clean_linker_0, # of connection points: 3
#     Node 4, Type 0, BuildingBlock: MIDCAF_clean_linker_0, # of connection points: 3
#     Node 5, Type 0, BuildingBlock: MIDCAF_clean_linker_0, # of connection points: 3
#     Node 6, Type 0, BuildingBlock: MIDCAF_clean_linker_0, # of connection points: 3
#     Node 7, Type 0, BuildingBlock: MIDCAF_clean_linker_0, # of connection points: 3
#     Node 8, Type 1, BuildingBlock: BETDEL_clean_sbu_0, # of connection points: 6
#     Node 9, Type 1, BuildingBlock: BETDEL_clean_sbu_0, # of connection points: 6
#     Node 10, Type 1, BuildingBlock: BETDEL_clean_sbu_0, # of connection points: 6
#     Node 11, Type 1, BuildingBlock: BETDEL_clean_sbu_0, # of connection points: 6
#     Edge 12, Type (0, 1), BuildingBlock: CIFDUS_clean_linker_0, # of connection points: 2
#     Edge 13, Type (0, 1), BuildingBlock: CIFDUS_clean_linker_0, # of connection points: 2
#     Edge 14, Type (0, 1), BuildingBlock: CIFDUS_clean_linker_0, # of connection points: 2
#     Edge 15, Type (0, 1), BuildingBlock: CIFDUS_clean_linker_0, # of connection points: 2
#     Edge 16, Type (0, 1), BuildingBlock: CIFDUS_clean_linker_0, # of connection points: 2
#     Edge 17, Type (0, 1), BuildingBlock: CIFDUS_clean_linker_0, # of connection points: 2
#     Edge 18, Type (0, 1), BuildingBlock: CIFDUS_clean_linker_0, # of connection points: 2
#     Edge 19, Type (0, 1), BuildingBlock: CIFDUS_clean_linker_0, # of connection points: 2
#     Edge 20, Type (0, 1), BuildingBlock: CIFDUS_clean_linker_0, # of connection points: 2
#     Edge 21, Type (0, 1), BuildingBlock: CIFDUS_clean_linker_0, # of connection points: 2
#     Edge 22, Type (0, 1), BuildingBlock: CIFDUS_clean_linker_0, # of connection points: 2
#     Edge 23, Type (0, 1), BuildingBlock: CIFDUS_clean_linker_0, # of connection points: 2
#     Edge 24, Type (0, 1), BuildingBlock: CIFDUS_clean_linker_0, # of connection points: 2
#     Edge 25, Type (0, 1), BuildingBlock: CIFDUS_clean_linker_0, # of connection points: 2
#     Edge 26, Type (0, 1), BuildingBlock: CIFDUS_clean_linker_0, # of connection points: 2
#     Edge 27, Type (0, 1), BuildingBlock: CIFDUS_clean_linker_0, # of connection points: 2
#     Edge 28, Type (0, 1), BuildingBlock: CIFDUS_clean_linker_0, # of connection points: 2
#     Edge 29, Type (0, 1), BuildingBlock: CIFDUS_clean_linker_0, # of connection points: 2
#     Edge 30, Type (0, 1), BuildingBlock: CIFDUS_clean_linker_0, # of connection points: 2
#     Edge 31, Type (0, 1), BuildingBlock: CIFDUS_clean_linker_0, # of connection points: 2
#     Edge 32, Type (0, 1), BuildingBlock: CIFDUS_clean_linker_0, # of connection points: 2
#     Edge 33, Type (0, 1), BuildingBlock: CIFDUS_clean_linker_0, # of connection points: 2
#     Edge 34, Type (0, 1), BuildingBlock: CIFDUS_clean_linker_0, # of connection points: 2
#     Edge 35, Type (0, 1), BuildingBlock: CIFDUS_clean_linker_0, # of connection points: 2
# Relax obj value: 0.029
# Max RMSD: 0.092
# Mean RMSD: 0.039
data_MOF--net-pyr--node1-BETDEL_clean_sbu_0--node2-MIDCAF_clean_linker_0--edge1-CIFDUS_clean_linker_0
_symmetry_space_group_name_H-M    P1
_symmetry_Int_Tables_number       1
_symmetry_cell_setting            triclinic
loop_
_symmetry_equiv_pos_as_xyz
'x, y, z'
_cell_length_a     40.319467
_cell_length_b     41.787013
_cell_length_c     38.669517
_cell_angle_alpha  90.725178
_cell_angle_beta   88.633812
_cell_angle_gamma 95.312387
loop_
_atom_site_label
_atom_site_type_symbol
_atom_site_fract_x
_atom_site_fract_y
_atom_site_fract_z
_atom_type_partial_charge
C0 C 0.16438 0.18752 0.28581 0.0
C1 C 0.17919 0.16196 0.30063 0.0
C2 C 0.21216 0.15698 0.2911 0.0
C3 C 0.22965 0.17654 0.26664 0.0
H4 H 0.32228 0.19295 0.21454 0.0
H5 H 0.36687 0.16483 0.18766 0.0
H6 H 0.34356 0.2009 0.08789 0.0
H7 H 0.29917 0.2294 0.11461 0.0
H8 H 0.24955 0.28388 0.11437 0.0
H9 H 0.21968 0.32088 0.08162 0.0
H10 H 0.14626 0.32304 0.16466 0.0
H11 H 0.17556 0.28539 0.19716 0.0
H12 H 0.16951 0.22618 0.24978 0.0
H13 H 0.13916 0.19225 0.29306 0.0
H14 H 0.22418 0.1373 0.30176 0.0
H15 H 0.25477 0.17143 0.25945 0.0
N16 N 0.26182 0.21124 0.21007 0.0
N17 N 0.26159 0.24842 0.16533 0.0
N18 N 0.21722 0.24298 0.20581 0.0
C19 C 0.27677 0.22547 0.18173 0.0
C20 C 0.23198 0.25757 0.17743 0.0
C21 C 0.23205 0.21978 0.2223 0.0
C22 C 0.30704 0.2131 0.16662 0.0
C23 C 0.32708 0.19539 0.18697 0.0
C24 C 0.35267 0.17945 0.17169 0.0
C25 C 0.35828 0.1806 0.13577 0.0
C26 C 0.33944 0.19958 0.11564 0.0
C27 C 0.3142 0.21597 0.13099 0.0
C28 C 0.21488 0.2815 0.15839 0.0
C29 C 0.22711 0.29231 0.12579 0.0
C30 C 0.21006 0.31363 0.107 0.0
C31 C 0.1805 0.32472 0.12044 0.0
C32 C 0.16863 0.31442 0.1533 0.0
C33 C 0.18557 0.293 0.17204 0.0
C34 C 0.21456 0.20149 0.25094 0.0
C35 C 0.18189 0.20712 0.26122 0.0
C36 C 0.15911 0.85314 0.63924 0.0
C37 C 0.16014 0.85182 0.60283 0.0
C38 C 0.18511 0.83533 0.58621 0.0
C39 C 0.20883 0.82135 0.60544 0.0
H40 H 0.2671 0.74001 0.61041 0.0
H41 H 0.29765 0.69502 0.59121 0.0
H42 H 0.3541 0.7029 0.68496 0.0
H43 H 0.32424 0.74805 0.7039 0.0
H44 H 0.31531 0.80316 0.75715 0.0
H45 H 0.34259 0.83742 0.80142 0.0
H46 H 0.28814 0.91614 0.7704 0.0
H47 H 0.26079 0.88197 0.72585 0.0
H48 H 0.18232 0.84205 0.68631 0.0
H49 H 0.13981 0.8647 0.65315 0.0
H50 H 0.18721 0.83414 0.55828 0.0
H51 H 0.22822 0.80956 0.59189 0.0
N52 N 0.25073 0.78628 0.65143 0.0
N53 N 0.28673 0.79344 0.6982 0.0
N54 N 0.24656 0.82951 0.69027 0.0
C55 C 0.27617 0.77633 0.66981 0.0
C56 C 0.27221 0.82008 0.70853 0.0
C57 C 0.23562 0.81268 0.66182 0.0
C58 C 0.2933 0.74789 0.65861 0.0
C59 C 0.28591 0.73208 0.62701 0.0
C60 C 0.30332 0.70617 0.61606 0.0
C61 C 0.32845 0.6955 0.63647 0.0
C62 C 0.33531 0.71088 0.66835 0.0
C63 C 0.31801 0.73674 0.67926 0.0
C64 C 0.28601 0.83986 0.73776 0.0
C65 C 0.30884 0.82767 0.75992 0.0
C66 C 0.32434 0.84722 0.78546 0.0
C67 C 0.31756 0.87946 0.78923 0.0
C68 C 0.29402 0.89144 0.76782 0.0
C69 C 0.27824 0.87178 0.74246 0.0
C70 C 0.20859 0.8242 0.64163 0.0
C71 C 0.18332 0.8399 0.65836 0.0
C72 C 0.64261 0.23434 0.91511 0.0
C73 C 0.61341 0.21822 0.90178 0.0
C74 C 0.59806 0.23222 0.87415 0.0
C75 C 0.6113 0.26162 0.86045 0.0
H76 H 0.58667 0.33878 0.79845 0.0
H77 H 0.55907 0.36509 0.75232 0.0
H78 H 0.65036 0.42406 0.72943 0.0
H79 H 0.6779 0.39813 0.77539 0.0
H80 H 0.72516 0.41231 0.83934 0.0
H81 H 0.77453 0.44173 0.86262 0.0
H82 H 0.78521 0.36449 0.93344 0.0
H83 H 0.73573 0.33454 0.90984 0.0
H84 H 0.6783 0.27556 0.9125 0.0
H85 H 0.65494 0.22444 0.93657 0.0
H86 H 0.57588 0.22027 0.86278 0.0
H87 H 0.59866 0.27149 0.8392 0.0
N88 N 0.63867 0.32285 0.83303 0.0
N89 N 0.67974 0.36635 0.83229 0.0
N90 N 0.68273 0.32483 0.87196 0.0
C91 C 0.65135 0.35135 0.81933 0.0
C92 C 0.69559 0.35344 0.85861 0.0
C93 C 0.65429 0.3093 0.85928 0.0
C94 C 0.63451 0.36634 0.79072 0.0
C95 C 0.60089 0.35726 0.78349 0.0
C96 C 0.58502 0.37245 0.75723 0.0
C97 C 0.60257 0.39663 0.73728 0.0
C98 C 0.63626 0.40535 0.74418 0.0
C99 C 0.65197 0.39056 0.77069 0.0
C100 C 0.72623 0.37095 0.87272 0.0
C101 C 0.73792 0.4014 0.85984 0.0
C102 C 0.76621 0.41846 0.87334 0.0
C103 C 0.78372 0.40558 0.90003 0.0
C104 C 0.7724 0.37498 0.9127 0.0
C105 C 0.74392 0.35789 0.89927 0.0
C106 C 0.64037 0.27791 0.8739 0.0
C107 C 0.6559 0.26381 0.90139 0.0
C108 C 0.74015 0.64806 0.41868 0.0
C109 C 0.72625 0.61627 0.41369 0.0
C110 C 0.7398 0.59767 0.38721 0.0
C111 C 0.76662 0.61056 0.36638 0.0
H112 H 0.84799 0.58815 0.29566 0.0
H113 H 0.87037 0.55804 0.24773 0.0
H114 H 0.89474 0.64673 0.1922 0.0
H115 H 0.87453 0.67676 0.24145 0.0
H116 H 0.90563 0.73286 0.30886 0.0
H117 H 0.933 0.78464 0.32753 0.0
H118 H 0.85522 0.79301 0.40495 0.0
H119 H 0.82831 0.74137 0.38697 0.0
H120 H 0.77668 0.68553 0.40274 0.0
H121 H 0.73003 0.66336 0.43832 0.0
H122 H 0.72997 0.57299 0.38282 0.0
H123 H 0.77646 0.5955 0.34635 0.0
N124 N 0.82106 0.63979 0.32238 0.0
N125 N 0.86055 0.68336 0.30967 0.0
N126 N 0.82321 0.68651 0.35671 0.0
C127 C 0.8467 0.65315 0.30218 0.0
C128 C 0.84901 0.70016 0.3371 0.0
C129 C 0.80899 0.65647 0.34962 0.0
C130 C 0.85959 0.63484 0.27242 0.0
C131 C 0.85821 0.60116 0.27319 0.0
C132 C 0.87085 0.58385 0.24539 0.0
C133 C 0.88447 0.59967 0.21557 0.0
C134 C 0.88529 0.63347 0.21477 0.0
C135 C 0.87343 0.65082 0.24298 0.0
C136 C 0.86485 0.73263 0.34655 0.0
C137 C 0.89427 0.74581 0.32975 0.0
C138 C 0.90992 0.77559 0.34037 0.0
C139 C 0.89655 0.79288 0.36802 0.0
C140 C 0.86666 0.78008 0.38408 0.0
C141 C 0.85109 0.75042 0.37357 0.0
C142 C 0.78055 0.64236 0.37154 0.0
C143 C 0.7669 0.66089 0.398 0.0
C144 C 0.65362 0.84109 0.83945 0.0
C145 C 0.6472 0.84113 0.87525 0.0
C146 C 0.66618 0.82351 0.89676 0.0
C147 C 0.6925 0.80763 0.88293 0.0
H148 H 0.76228 0.7453 0.90567 0.0
H149 H 0.7947 0.71233 0.94105 0.0
H150 H 0.87042 0.71304 0.86003 0.0
H151 H 0.8386 0.7464 0.82498 0.0
H152 H 0.83869 0.79618 0.76503 0.0
H153 H 0.86819 0.82802 0.71963 0.0
H154 H 0.7835 0.88332 0.71035 0.0
H155 H 0.75367 0.85116 0.75492 0.0
H156 H 0.68564 0.82728 0.79813 0.0
H157 H 0.63935 0.85464 0.8224 0.0
H158 H 0.66143 0.82307 0.92446 0.0
H159 H 0.70764 0.79546 0.90039 0.0
N160 N 0.74861 0.77773 0.85234 0.0
N161 N 0.79319 0.78325 0.81217 0.0
N162 N 0.74642 0.81143 0.80465 0.0
C163 C 0.77911 0.76984 0.84146 0.0
C164 C 0.777 0.80406 0.7936 0.0
C165 C 0.73201 0.7983 0.83385 0.0
C166 C 0.79786 0.74862 0.86247 0.0
C167 C 0.78582 0.73838 0.89534 0.0
C168 C 0.80434 0.71945 0.91563 0.0
C169 C 0.83525 0.71037 0.90347 0.0
C170 C 0.84703 0.72024 0.87046 0.0
C171 C 0.82861 0.73918 0.85022 0.0
C172 C 0.79383 0.82117 0.76383 0.0
C173 C 0.82619 0.81489 0.75308 0.0
C174 C 0.84322 0.8333 0.72723 0.0
C175 C 0.82829 0.85836 0.71162 0.0
C176 C 0.7956 0.86399 0.72162 0.0
C177 C 0.77854 0.84557 0.74735 0.0
C178 C 0.70057 0.8096 0.84742 0.0
C179 C 0.68022 0.8256 0.82565 0.0
C180 C 0.70496 0.13734 0.23083 0.0
C181 C 0.6717 0.1431 0.22561 0.0
C182 C 0.65786 0.16767 0.24445 0.0
C183 C 0.67681 0.18609 0.26837 0.0
H184 H 0.69155 0.27945 0.30583 0.0
H185 H 0.66356 0.32427 0.32896 0.0
H186 H 0.71739 0.32073 0.42386 0.0
H187 H 0.74603 0.2758 0.40048 0.0
H188 H 0.81182 0.23052 0.39322 0.0
H189 H 0.85324 0.20515 0.4256 0.0
H190 H 0.83052 0.11682 0.36803 0.0
H191 H 0.79016 0.14232 0.335 0.0
H192 H 0.74928 0.15025 0.25939 0.0
H193 H 0.71603 0.1184 0.21653 0.0
H194 H 0.6323 0.17262 0.24063 0.0
H195 H 0.66519 0.20467 0.28269 0.0
N196 N 0.71884 0.22713 0.3124 0.0
N197 N 0.76004 0.23151 0.35432 0.0
N198 N 0.75486 0.18669 0.31679 0.0
C199 C 0.73423 0.24382 0.33868 0.0
C200 C 0.77064 0.20297 0.34331 0.0
C201 C 0.72892 0.19868 0.30125 0.0
C202 C 0.72075 0.27368 0.35149 0.0
C203 C 0.69774 0.28829 0.33154 0.0
C204 C 0.68154 0.31395 0.34483 0.0
C205 C 0.68782 0.32567 0.37844 0.0
C206 C 0.71208 0.31225 0.39782 0.0
C207 C 0.72844 0.28648 0.38444 0.0
C208 C 0.79746 0.18848 0.36157 0.0
C209 C 0.81589 0.20578 0.38724 0.0
C210 C 0.83955 0.19117 0.40594 0.0
C211 C 0.84519 0.15886 0.39957 0.0
C212 C 0.82731 0.14187 0.37332 0.0
C213 C 0.80389 0.15651 0.35447 0.0
C214 C 0.70988 0.17998 0.2744 0.0
C215 C 0.72384 0.15544 0.25536 0.0
C216 C 0.25071 0.61145 0.15027 0.0
C217 C 0.23866 0.62306 0.11946 0.0
C218 C 0.25534 0.65084 0.10469 0.0
C219 C 0.28391 0.66606 0.11987 0.0
H220 H 0.34612 0.76172 0.14469 0.0
H221 H 0.37447 0.81192 0.12361 0.0
H222 H 0.4688 0.77034 0.1273 0.0
H223 H 0.4404 0.72148 0.15124 0.0
H224 H 0.43735 0.6714 0.22441 0.0
H225 H 0.46173 0.64308 0.2711 0.0
H226 H 0.36584 0.59226 0.29426 0.0
H227 H 0.34139 0.6203 0.24762 0.0
H228 H 0.28791 0.61656 0.18884 0.0
H229 H 0.23811 0.59051 0.16275 0.0
H230 H 0.24689 0.66031 0.08084 0.0
H231 H 0.29652 0.68697 0.10735 0.0
N232 N 0.34402 0.69587 0.15192 0.0
N233 N 0.38823 0.69222 0.18983 0.0
N234 N 0.3425 0.65325 0.19097 0.0
C235 C 0.37401 0.70792 0.16422 0.0
C236 C 0.37239 0.665 0.20362 0.0
C237 C 0.32821 0.66831 0.16499 0.0
C238 C 0.39111 0.73785 0.14983 0.0
C239 C 0.37295 0.76352 0.14102 0.0
C240 C 0.38932 0.79228 0.12859 0.0
C241 C 0.42425 0.79575 0.12364 0.0
C242 C 0.44212 0.7694 0.13161 0.0
C243 C 0.42583 0.74109 0.14508 0.0
C244 C 0.38739 0.64813 0.23216 0.0
C245 C 0.42142 0.65424 0.23947 0.0
C246 C 0.43545 0.63791 0.26609 0.0
C247 C 0.41568 0.61546 0.28633 0.0
C248 C 0.38163 0.6096 0.27928 0.0
C249 C 0.3677 0.62556 0.25238 0.0
C250 C 0.29651 0.65382 0.15014 0.0
C251 C 0.27924 0.62656 0.16536 0.0
C252 C 0.14015 0.23018 0.62582 0.0
C253 C 0.11011 0.2168 0.64109 0.0
C254 C 0.09665 0.23284 0.66963 0.0
C255 C 0.11259 0.26178 0.68219 0.0
H256 H 0.11232 0.32802 0.76336 0.0
H257 H 0.08873 0.35595 0.81248 0.0
H258 H 0.15696 0.43963 0.79154 0.0
H259 H 0.18045 0.41193 0.74216 0.0
H260 H 0.2344 0.40992 0.67827 0.0
H261 H 0.2817 0.43354 0.64349 0.0
H262 H 0.28305 0.34475 0.58526 0.0
H263 H 0.2357 0.32157 0.61908 0.0
H264 H 0.17903 0.2685 0.62562 0.0
H265 H 0.15161 0.21822 0.60424 0.0
H266 H 0.07341 0.22339 0.68186 0.0
H267 H 0.10128 0.27363 0.70392 0.0
N268 N 0.14704 0.32206 0.707 0.0
N269 N 0.18905 0.36453 0.69973 0.0
N270 N 0.18616 0.32048 0.66141 0.0
C271 C 0.16191 0.35098 0.71773 0.0
C272 C 0.2014 0.34932 0.67154 0.0
C273 C 0.159 0.30665 0.67882 0.0
C274 C 0.14827 0.36769 0.74849 0.0
C275 C 0.12243 0.35235 0.76917 0.0
C276 C 0.10901 0.36829 0.79758 0.0
C277 C 0.12086 0.40007 0.80596 0.0
C278 C 0.14696 0.41528 0.78559 0.0
C279 C 0.16055 0.39929 0.75731 0.0
C280 C 0.23093 0.36385 0.65146 0.0
C281 C 0.24481 0.39544 0.65806 0.0
C282 C 0.27206 0.40897 0.63818 0.0
C283 C 0.28611 0.39121 0.61127 0.0
C284 C 0.27251 0.35948 0.60517 0.0
C285 C 0.24533 0.34606 0.62484 0.0
C286 C 0.14239 0.27538 0.6665 0.0
C287 C 0.15602 0.25903 0.63829 0.0
Dy288 Dy 0.02315 0.01368 0.46878 0.0
C289 C 0.95061 0.97035 0.59035 0.0
C290 C 0.05636 0.04312 0.41404 0.0
Dy291 Dy 0.98334 0.99925 0.53507 0.0
O292 O 0.07011 0.0317 0.4406 0.0
O293 O 0.02414 0.03774 0.41677 0.0
O294 O 0.0506 0.97015 0.47626 0.0
O295 O 0.03514 0.99645 0.51959 0.0
C296 C 0.04839 0.97159 0.50981 0.0
C297 C 0.95826 0.04167 0.49423 0.0
O298 O 0.01599 0.04083 0.55549 0.0
O299 O 0.03248 0.05909 0.50082 0.0
O300 O 0.9366 0.98108 0.56357 0.0
O301 O 0.9828 0.97599 0.58744 0.0
O302 O 0.95566 0.04265 0.52777 0.0
O303 O 0.97147 0.01681 0.48436 0.0
O304 O 0.99067 0.97171 0.44852 0.0
O305 O 0.97441 0.95375 0.50338 0.0
C306 C 0.03088 0.06314 0.53493 0.0
C307 C 0.97594 0.94946 0.46931 0.0
Dy308 Dy 0.52742 0.02287 0.02806 0.0
C309 C 0.42867 0.96605 0.93663 0.0
C310 C 0.57138 0.05514 0.07152 0.0
Dy311 Dy 0.47424 0.99982 0.97738 0.0
O312 O 0.54406 0.03844 0.081 0.0
O313 O 0.57478 0.05449 0.03803 0.0
O314 O 0.52683 0.97339 0.04968 0.0
O315 O 0.48253 0.98893 0.03124 0.0
C316 C 0.4958 0.96521 0.04302 0.0
C317 C 0.50456 0.05814 0.96354 0.0
O318 O 0.44301 0.02574 0.01458 0.0
O319 O 0.4878 0.05603 0.03886 0.0
O320 O 0.44819 0.99087 0.92687 0.0
O321 O 0.43403 0.95965 0.96862 0.0
O322 O 0.4735 0.04952 0.95726 0.0
O323 O 0.51872 0.0345 0.97433 0.0
O324 O 0.55907 0.99613 0.9924 0.0
O325 O 0.51522 0.9689 0.96324 0.0
C326 C 0.4554 0.05007 0.03402 0.0
C327 C 0.54723 0.97346 0.97065 0.0
Dy328 Dy 0.5158 0.47894 0.48912 0.0
C329 C 0.45935 0.57384 0.57392 0.0
C330 C 0.55354 0.43903 0.45231 0.0
Dy331 Dy 0.49593 0.53265 0.53741 0.0
O332 O 0.52115 0.4364 0.4537 0.0
O333 O 0.56515 0.46353 0.47069 0.0
O334 O 0.4633 0.45508 0.49153 0.0
O335 O 0.48247 0.48123 0.53424 0.0
C336 C 0.45655 0.46672 0.52197 0.0
C337 C 0.55521 0.54444 0.50447 0.0
O338 O 0.51605 0.50124 0.57697 0.0
O339 O 0.54439 0.47098 0.53734 0.0
O340 O 0.4917 0.57626 0.5715 0.0
O341 O 0.44713 0.5487 0.55686 0.0
O342 O 0.54876 0.55597 0.53503 0.0
O343 O 0.52908 0.53028 0.49236 0.0
O344 O 0.49589 0.5104 0.4496 0.0
O345 O 0.46743 0.54075 0.489 0.0
C346 C 0.53816 0.48037 0.5696 0.0
C347 C 0.47385 0.53136 0.45675 0.0
Dy348 Dy 0.02303 0.48682 0.01776 0.0
C349 C 0.96739 0.60323 0.9793 0.0
C350 C 0.0552 0.4353 0.03573 0.0
Dy351 Dy 1.00112 0.5506 0.98671 0.0
O352 O 0.02431 0.43909 0.04349 0.0
O353 O 0.06843 0.45949 0.01784 0.0
O354 O 0.98283 0.48925 0.05935 0.0
O355 O 0.00573 0.53144 0.03818 0.0
C356 C 0.98274 0.52028 0.05829 0.0
C357 C 0.0323 0.51746 0.93719 0.0
O358 O 0.0474 0.57021 0.01386 0.0
O359 O 0.06708 0.52183 0.03011 0.0
O360 O 0.99848 0.60157 0.97024 0.0
O361 O 0.95496 0.57627 0.99278 0.0
O362 O 0.02122 0.54521 0.93199 0.0
O363 O 0.02607 0.51004 0.96825 0.0
O364 O 0.98397 0.46753 0.98129 0.0
O365 O 0.9569 0.51413 0.9795 0.0
C366 C 0.07056 0.55368 0.02733 0.0
C367 C 0.95757 0.48271 0.97415 0.0
H368 H 0.1146 0.13671 0.29651 0.0
H369 H 0.20139 0.13749 0.35996 0.0
H370 H 0.17147 0.09903 0.39906 0.0
H371 H 0.12076 0.06587 0.4157 0.0
H372 H 0.03268 0.06675 0.35476 0.0
H373 H 0.06304 0.104 0.31402 0.0
C374 C 0.12682 0.12876 0.31913 0.0
C375 C 0.16022 0.13989 0.32525 0.0
C376 C 0.10935 0.10684 0.34174 0.0
C377 C 0.17586 0.12898 0.35439 0.0
C378 C 0.15875 0.10707 0.37683 0.0
C379 C 0.10828 0.074 0.39332 0.0
C380 C 0.0747 0.06352 0.38795 0.0
C381 C 0.12559 0.0958 0.37068 0.0
C382 C 0.05864 0.07445 0.35918 0.0
C383 C 0.07593 0.0958 0.33604 0.0
H384 H 0.33034 0.86723 0.85622 0.0
H385 H 0.34759 0.93955 0.77758 0.0
H386 H 0.38271 0.97332 0.81675 0.0
H387 H 0.41084 0.98101 0.8723 0.0
H388 H 0.39339 0.90899 0.95119 0.0
H389 H 0.35616 0.87623 0.91296 0.0
C390 C 0.34176 0.89042 0.84776 0.0
C391 C 0.33651 0.90086 0.81408 0.0
C392 C 0.36202 0.90962 0.87035 0.0
C393 C 0.35104 0.93114 0.80352 0.0
C394 C 0.3713 0.95035 0.82579 0.0
C395 C 0.39874 0.9582 0.88111 0.0
C396 C 0.40493 0.94723 0.91429 0.0
C397 C 0.3773 0.93965 0.85909 0.0
C398 C 0.38899 0.91782 0.92564 0.0
C399 C 0.36776 0.89909 0.90381 0.0
H400 H 0.62531 0.40815 0.6715 0.0
H401 H 0.54242 0.42187 0.74087 0.0
H402 H 0.51568 0.45024 0.69571 0.0
H403 H 0.51588 0.4711 0.63622 0.0
H404 H 0.59781 0.45492 0.56632 0.0
H405 H 0.62504 0.42795 0.61196 0.0
C406 C 0.60145 0.41749 0.67674 0.0
C407 C 0.58591 0.41301 0.7095 0.0
C408 C 0.58612 0.43347 0.65057 0.0
C409 C 0.55476 0.42481 0.71577 0.0
C410 C 0.53956 0.44118 0.69002 0.0
C411 C 0.53982 0.46189 0.63111 0.0
C412 C 0.5549 0.46521 0.59799 0.0
C413 C 0.55503 0.44571 0.65731 0.0
C414 C 0.58566 0.45267 0.59158 0.0
C415 C 0.60126 0.43723 0.61767 0.0
H416 H 0.93601 0.61848 0.17016 0.0
H417 H 0.86331 0.53842 0.19288 0.0
H418 H 0.88724 0.50696 0.1469 0.0
H419 H 0.92963 0.50147 0.10051 0.0
H420 H 0.99846 0.58327 0.07445 0.0
H421 H 0.97442 0.61491 0.12058 0.0
C422 C 0.92476 0.59443 0.16483 0.0
C423 C 0.89798 0.58101 0.18577 0.0
C424 C 0.93792 0.57664 0.13744 0.0
C425 C 0.88449 0.54939 0.17825 0.0
C426 C 0.89795 0.53134 0.15157 0.0
C427 C 0.93916 0.52629 0.10485 0.0
C428 C 0.96597 0.53989 0.08434 0.0
C429 C 0.92486 0.54459 0.13117 0.0
C430 C 0.97788 0.57218 0.08994 0.0
C431 C 0.96421 0.59029 0.11641 0.0
H432 H 0.3444 0.13784 0.08434 0.0
H433 H 0.42328 0.17561 0.15087 0.0
H434 H 0.46048 0.13827 0.12501 0.0
H435 H 0.46997 0.09461 0.08421 0.0
H436 H 0.39023 0.05539 0.01914 0.0
H437 H 0.35371 0.09359 0.04394 0.0
C438 C 0.36989 0.13808 0.09279 0.0
C439 C 0.3814 0.15952 0.11906 0.0
C440 C 0.39073 0.11621 0.07836 0.0
C441 C 0.41412 0.15929 0.13053 0.0
C442 C 0.43527 0.13798 0.11582 0.0
C443 C 0.44461 0.0944 0.07539 0.0
C444 C 0.43284 0.07224 0.04982 0.0
C445 C 0.42375 0.11624 0.08987 0.0
C446 C 0.39984 0.07211 0.03891 0.0
C447 C 0.379 0.09402 0.05295 0.0
H448 H 0.13355 0.90811 0.61927 0.0
H449 H 0.13306 0.83433 0.53987 0.0
H450 H 0.09828 0.86477 0.50434 0.0
H451 H 0.06958 0.91336 0.49485 0.0
H452 H 0.06646 0.98463 0.57621 0.0
H453 H 0.1002 0.95346 0.61249 0.0
C454 C 0.1253 0.8981 0.59461 0.0
C455 C 0.13643 0.86894 0.58233 0.0
C456 C 0.10455 0.91529 0.57463 0.0
C457 C 0.12575 0.85702 0.54982 0.0
C458 C 0.10557 0.8743 0.52952 0.0
C459 C 0.07615 0.92188 0.52063 0.0
C460 C 0.066 0.95135 0.53277 0.0
C461 C 0.0952 0.90366 0.54147 0.0
C462 C 0.07416 0.96203 0.56632 0.0
C463 C 0.09352 0.94429 0.587 0.0
H464 H 0.84315 0.38385 0.91632 0.0
H465 H 0.79115 0.46957 0.91646 0.0
H466 H 0.84023 0.50098 0.93879 0.0
H467 H 0.89793 0.50425 0.95832 0.0
H468 H 0.94996 0.41843 0.95852 0.0
H469 H 0.90087 0.38706 0.93631 0.0
C470 C 0.84247 0.40934 0.92155 0.0
C471 C 0.8135 0.4243 0.91461 0.0
C472 C 0.87084 0.42733 0.93443 0.0
C473 C 0.81323 0.45748 0.92112 0.0
C474 C 0.84126 0.47547 0.93405 0.0
C475 C 0.89862 0.47869 0.95348 0.0
C476 C 0.92773 0.46384 0.96014 0.0
C477 C 0.87024 0.46068 0.9407 0.0
C478 C 0.92799 0.43063 0.95369 0.0
C479 C 0.89987 0.41258 0.94099 0.0
H480 H 0.67135 0.57715 0.39447 0.0
H481 H 0.71657 0.62535 0.48334 0.0
H482 H 0.66823 0.60693 0.5193 0.0
H483 H 0.61207 0.57861 0.52533 0.0
H484 H 0.56734 0.5295 0.43687 0.0
H485 H 0.61663 0.54622 0.40126 0.0
C486 C 0.67091 0.58325 0.4218 0.0
C487 C 0.69757 0.60295 0.43596 0.0
C488 C 0.64301 0.57241 0.44251 0.0
C489 C 0.69621 0.61081 0.47146 0.0
C490 C 0.66861 0.60012 0.49217 0.0
C491 C 0.61323 0.57146 0.4983 0.0
C492 C 0.58601 0.55305 0.48372 0.0
C493 C 0.64168 0.58123 0.47791 0.0
C494 C 0.58792 0.54378 0.44871 0.0
C495 C 0.6161 0.55337 0.42829 0.0
H496 H 0.11353 0.32268 0.11326 0.0
H497 H 0.20587 0.37618 0.08198 0.0
H498 H 0.17511 0.41342 0.05007 0.0
H499 H 0.12188 0.43266 0.03409 0.0
H500 H 0.02959 0.38102 0.06831 0.0
H501 H 0.06044 0.34113 0.09619 0.0
C502 C 0.12693 0.34262 0.09967 0.0
C503 C 0.16191 0.34677 0.1002 0.0
C504 C 0.1091 0.36422 0.08192 0.0
C505 C 0.17894 0.37229 0.08177 0.0
C506 C 0.16138 0.39369 0.06367 0.0
C507 C 0.10858 0.41243 0.04731 0.0
C508 C 0.07364 0.40965 0.04926 0.0
C509 C 0.12646 0.39009 0.0639 0.0
C510 C 0.05657 0.38356 0.06658 0.0
C511 C 0.07416 0.36085 0.08258 0.0
H512 H 0.54792 0.19917 0.91418 0.0
H513 H 0.64598 0.16707 0.9229 0.0
H514 H 0.62149 0.1153 0.94492 0.0
H515 H 0.57154 0.07786 0.95905 0.0
H516 H 0.47397 0.11057 0.94794 0.0
H517 H 0.49887 0.16302 0.92936 0.0
C518 C 0.564 0.18081 0.92062 0.0
C519 C 0.59876 0.18704 0.91653 0.0
C520 C 0.54976 0.151 0.93281 0.0
C521 C 0.61915 0.16311 0.92593 0.0
C522 C 0.60514 0.13337 0.93836 0.0
C523 C 0.55586 0.0966 0.95275 0.0
C524 C 0.52095 0.09024 0.9546 0.0
C525 C 0.57041 0.12687 0.94158 0.0
C526 C 0.50089 0.11473 0.94643 0.0
C527 C 0.5151 0.14479 0.9358 0.0
H528 H 0.90484 0.81211 0.43485 0.0
H529 H 0.92767 0.84289 0.33024 0.0
H530 H 0.95494 0.89376 0.35198 0.0
H531 H 0.9711 0.93019 0.40109 0.0
H532 H 0.9467 0.89843 0.50533 0.0
H533 H 0.92098 0.8477 0.48324 0.0
C534 C 0.91546 0.83004 0.41671 0.0
C535 C 0.9139 0.82368 0.38093 0.0
C536 C 0.93082 0.85925 0.42934 0.0
C537 C 0.92863 0.84698 0.35792 0.0
C538 C 0.94409 0.87618 0.37035 0.0
C539 C 0.96021 0.91216 0.41896 0.0
C540 C 0.96088 0.91841 0.45488 0.0
C541 C 0.9452 0.88269 0.40606 0.0
C542 C 0.94661 0.89459 0.47757 0.0
C543 C 0.93182 0.86541 0.46499 0.0
H544 H 0.39526 0.69233 0.6408 0.0
H545 H 0.30567 0.6391 0.60462 0.0
H546 H 0.3382 0.59608 0.58338 0.0
H547 H 0.39229 0.57421 0.57393 0.0
H548 H 0.48178 0.6276 0.60989 0.0
H549 H 0.44897 0.66968 0.63315 0.0
C550 C 0.38276 0.67113 0.62869 0.0
C551 C 0.34807 0.66897 0.62429 0.0
C552 C 0.40159 0.64649 0.61664 0.0
C553 C 0.33238 0.64157 0.60795 0.0
C554 C 0.35093 0.61688 0.59599 0.0
C555 C 0.40453 0.59494 0.58713 0.0
C556 C 0.43933 0.59789 0.59026 0.0
C557 C 0.38556 0.61918 0.60002 0.0
C558 C 0.45498 0.62486 0.60725 0.0
C559 C 0.43626 0.64894 0.62044 0.0
H560 H 0.8932 0.88288 0.71332 0.0
H561 H 0.80508 0.88089 0.65172 0.0
H562 H 0.83486 0.91697 0.61006 0.0
H563 H 0.88589 0.94833 0.59068 0.0
H564 H 0.97505 0.94864 0.65014 0.0
H565 H 0.94489 0.91376 0.69323 0.0
C566 C 0.88064 0.89003 0.69056 0.0
C567 C 0.84694 0.87923 0.68567 0.0
C568 C 0.89801 0.91055 0.66651 0.0
C569 C 0.83086 0.88917 0.65634 0.0
C570 C 0.84789 0.9097 0.63244 0.0
C571 C 0.89866 0.94095 0.61322 0.0
C572 C 0.93249 0.95107 0.61749 0.0
C573 C 0.8814 0.92055 0.63731 0.0
C574 C 0.94891 0.94116 0.64652 0.0
C575 C 0.93172 0.92119 0.67102 0.0
H576 H 0.6839 0.13318 0.15714 0.0
H577 H 0.61257 0.1093 0.23975 0.0
H578 H 0.57558 0.07918 0.19927 0.0
H579 H 0.56274 0.06127 0.14032 0.0
H580 H 0.63237 0.08672 0.05663 0.0
H581 H 0.67094 0.11474 0.09747 0.0
C582 C 0.66039 0.12105 0.16614 0.0
C583 C 0.65083 0.12326 0.20119 0.0
C584 C 0.63896 0.10436 0.14256 0.0
C585 C 0.62023 0.10788 0.21276 0.0
C586 C 0.59913 0.09073 0.18968 0.0
C587 C 0.5864 0.0729 0.13104 0.0
C588 C 0.59482 0.07204 0.09566 0.0
C589 C 0.60808 0.08912 0.15451 0.0
C590 C 0.62543 0.08721 0.08385 0.0
C591 C 0.64745 0.10315 0.10717 0.0
H592 H 0.3919 0.60665 0.35232 0.0
H593 H 0.47287 0.58522 0.28359 0.0
H594 H 0.49731 0.55617 0.32971 0.0
H595 H 0.49598 0.53732 0.38984 0.0
H596 H 0.41626 0.56086 0.45929 0.0
H597 H 0.39089 0.5883 0.41264 0.0
C598 C 0.41479 0.59543 0.34743 0.0
C599 C 0.43052 0.59803 0.31457 0.0
C600 C 0.42888 0.57908 0.37419 0.0
C601 C 0.46043 0.58379 0.30874 0.0
C602 C 0.47432 0.56704 0.33505 0.0
C603 C 0.47291 0.54822 0.39469 0.0
C604 C 0.45794 0.54687 0.42797 0.0
C605 C 0.4588 0.56457 0.36791 0.0
C606 C 0.42832 0.56156 0.43393 0.0
C607 C 0.41378 0.57727 0.40726 0.0
H608 H 0.10398 0.46149 0.80623 0.0
H609 H 0.10228 0.37806 0.87094 0.0
H610 H 0.07541 0.40683 0.91787 0.0
H611 H 0.0515 0.45604 0.94036 0.0
H612 H 0.05297 0.53846 0.87407 0.0
H613 H 0.08106 0.51 0.82837 0.0
C614 C 0.09813 0.44968 0.83074 0.0
C615 C 0.1053 0.41769 0.83501 0.0
C616 C 0.08254 0.46626 0.85747 0.0
C617 C 0.09684 0.4026 0.86679 0.0
C618 C 0.08157 0.41909 0.89372 0.0
C619 C 0.05816 0.4677 0.91595 0.0
C620 C 0.0502 0.49934 0.91065 0.0
C621 C 0.07414 0.45095 0.88934 0.0
C622 C 0.05878 0.51412 0.87883 0.0
C623 C 0.07487 0.49787 0.8526 0.0
H624 H 0.65951 0.8853 0.92553 0.0
H625 H 0.58252 0.84552 0.85781 0.0
H626 H 0.54464 0.8835 0.88117 0.0
H627 H 0.53396 0.92814 0.92053 0.0
H628 H 0.6121 0.96878 0.98688 0.0
H629 H 0.64917 0.93034 0.96413 0.0
C630 C 0.63426 0.88472 0.91627 0.0
C631 C 0.6235 0.86252 0.89044 0.0
C632 C 0.61306 0.90691 0.92928 0.0
C633 C 0.59112 0.8624 0.87787 0.0
C634 C 0.56958 0.8841 0.89115 0.0
C635 C 0.55912 0.92867 0.92999 0.0
C636 C 0.57019 0.95132 0.95541 0.0
C637 C 0.58037 0.90654 0.91675 0.0
C638 C 0.60293 0.95172 0.96723 0.0
C639 C 0.62414 0.92965 0.95436 0.0
H640 H 0.88783 0.11468 0.37917 0.0
H641 H 0.85385 0.16541 0.46935 0.0
H642 H 0.88785 0.13529 0.50604 0.0
H643 H 0.92411 0.09196 0.51321 0.0
H644 H 0.95549 0.03884 0.4238 0.0
H645 H 0.92539 0.07224 0.38617 0.0
C646 C 0.88774 0.1191 0.40686 0.0
C647 C 0.86812 0.14227 0.42138 0.0
C648 C 0.90673 0.10109 0.428 0.0
C649 C 0.86896 0.14809 0.45729 0.0
C650 C 0.88819 0.13064 0.4784 0.0
C651 C 0.92449 0.08783 0.48545 0.0
C652 C 0.94185 0.06296 0.47125 0.0
C653 C 0.90671 0.10674 0.46412 0.0
C654 C 0.9423 0.05789 0.43529 0.0
C655 C 0.92502 0.07692 0.4138 0.0
H656 H 0.18691 0.64848 0.08828 0.0
H657 H 0.22475 0.55816 0.11205 0.0
H658 H 0.17655 0.52899 0.08555 0.0
H659 H 0.1235 0.52887 0.05614 0.0
H660 H 0.08559 0.61898 0.03143 0.0
H661 H 0.13421 0.64832 0.05723 0.0
C662 C 0.18478 0.62242 0.08737 0.0
C663 C 0.20939 0.60561 0.10245 0.0
C664 C 0.157 0.60569 0.07183 0.0
C665 C 0.20595 0.57179 0.10129 0.0
C666 C 0.17847 0.55504 0.08591 0.0
C667 C 0.12579 0.55494 0.05626 0.0
C668 C 0.10073 0.57159 0.04186 0.0
C669 C 0.15377 0.57171 0.07125 0.0
C670 C 0.10439 0.60542 0.04228 0.0
C671 C 0.13222 0.62228 0.0571 0.0
H672 H 0.34059 0.43065 0.63146 0.0
H673 H 0.29604 0.38382 0.54148 0.0
H674 H 0.34421 0.40345 0.50597 0.0
H675 H 0.40006 0.43238 0.50055 0.0
H676 H 0.44418 0.48039 0.58993 0.0
H677 H 0.39503 0.46241 0.62527 0.0
C678 C 0.34116 0.42509 0.60401 0.0
C679 C 0.31474 0.40536 0.58941 0.0
C680 C 0.36898 0.43668 0.58352 0.0
C681 C 0.31623 0.3983 0.55372 0.0
C682 C 0.34374 0.40969 0.53326 0.0
C683 C 0.39881 0.43902 0.52772 0.0
C684 C 0.42582 0.45747 0.54264 0.0
C685 C 0.37045 0.42857 0.54793 0.0
C686 C 0.42377 0.46609 0.57783 0.0
C687 C 0.39567 0.45577 0.59809 0.0
H688 H 0.90207 0.71727 0.91258 0.0
H689 H 0.81271 0.65796 0.94187 0.0
H690 H 0.84592 0.62161 0.97209 0.0
H691 H 0.90058 0.60376 0.98488 0.0
H692 H 0.99002 0.66115 0.95225 0.0
H693 H 0.95657 0.70128 0.92863 0.0
C694 C 0.88988 0.69638 0.92558 0.0
C695 C 0.85503 0.6901 0.92462 0.0
C696 C 0.90914 0.67522 0.94217 0.0
C697 C 0.83949 0.66341 0.94233 0.0
C698 C 0.85847 0.64249 0.95942 0.0
C699 C 0.9127 0.62533 0.9731 0.0
C700 C 0.9476 0.62953 0.97004 0.0
C701 C 0.89333 0.64777 0.95881 0.0
C702 C 0.96312 0.65745 0.95473 0.0
C703 C 0.94403 0.68029 0.94113 0.0
H704 H 0.40128 0.8407 0.08052 0.0
H705 H 0.48773 0.82168 0.13843 0.0
H706 H 0.51752 0.87066 0.11675 0.0
H707 H 0.51928 0.91964 0.08234 0.0
H708 H 0.4308 0.94311 0.03163 0.0
H709 H 0.40147 0.89204 0.05005 0.0
C710 C 0.42641 0.84729 0.08902 0.0
C711 C 0.44207 0.82667 0.11087 0.0
C712 C 0.44319 0.87649 0.07767 0.0
C713 C 0.47501 0.83603 0.12082 0.0
C714 C 0.49213 0.86443 0.10874 0.0
C715 C 0.49358 0.91357 0.07525 0.0
C716 C 0.47749 0.93479 0.05484 0.0
C717 C 0.47651 0.88482 0.08716 0.0
C718 C 0.44402 0.92683 0.04646 0.0
C719 C 0.42718 0.89772 0.05727 0.0
H720 H 0.10255 0.19943 0.57342 0.0
H721 H 0.07871 0.16582 0.67689 0.0
H722 H 0.05145 0.11574 0.65345 0.0
H723 H 0.03548 0.08084 0.60337 0.0
H724 H 0.06078 0.11482 0.50015 0.0
H725 H 0.08667 0.165 0.52379 0.0
C726 C 0.09169 0.18106 0.59092 0.0
C727 C 0.09289 0.18644 0.62691 0.0
C728 C 0.07634 0.15222 0.5773 0.0
C729 C 0.07794 0.16254 0.64908 0.0
C730 C 0.0625 0.13377 0.63569 0.0
C731 C 0.0466 0.09922 0.58603 0.0
C732 C 0.04613 0.09383 0.54997 0.0
C733 C 0.06166 0.12826 0.59981 0.0
C734 C 0.06072 0.11806 0.52798 0.0
C735 C 0.07559 0.1469 0.54147 0.0
H736 H 0.6211 0.32801 0.37449 0.0
H737 H 0.70922 0.37875 0.417 0.0
H738 H 0.67541 0.41896 0.44278 0.0
H739 H 0.62062 0.43916 0.45378 0.0
H740 H 0.53266 0.38786 0.41164 0.0
H741 H 0.56673 0.3486 0.38452 0.0
C742 C 0.633 0.3481 0.38901 0.0
C743 C 0.66765 0.3505 0.39368 0.0
C744 C 0.61345 0.371 0.40371 0.0
C745 C 0.68257 0.37626 0.41324 0.0
C746 C 0.66328 0.39931 0.42783 0.0
C747 C 0.60899 0.41947 0.43847 0.0
C748 C 0.57425 0.41632 0.43461 0.0
C749 C 0.62869 0.39684 0.42332 0.0
C750 C 0.55938 0.39071 0.4149 0.0
C751 C 0.57883 0.36827 0.39947 0.0
loop_
_geom_bond_atom_site_label_1
_geom_bond_atom_site_label_2
_geom_bond_distance
_geom_bond_site_symmetry_2
_ccdc_geom_bond_type
C0 C1 1.384 . S
C0 H13 0.947 . S
C0 C35 1.382 . S
C1 C0 1.384 . S
C1 C2 1.378 . S
C2 C1 1.378 . S
C2 C3 1.378 . S
C2 H14 0.952 . S
C3 C2 1.378 . S
C3 H15 0.950 . S
C3 C34 1.383 . S
H4 C23 0.947 . S
H5 C24 0.946 . S
H6 C26 0.953 . S
H7 C27 0.945 . S
H8 C29 0.952 . S
H9 C30 0.949 . S
H10 C32 0.950 . S
H11 C33 0.948 . S
H12 C35 0.951 . S
H13 C0 0.947 . S
H14 C2 0.952 . S
H15 C3 0.950 . S
N16 C19 1.382 . S
N16 C21 1.363 . S
N17 C19 1.371 . S
N17 C20 1.372 . S
N18 C20 1.361 . S
N18 C21 1.377 . S
C19 N16 1.382 . S
C19 N17 1.371 . S
C19 C22 1.480 . S
C20 N17 1.372 . S
C20 N18 1.361 . S
C20 C28 1.457 . S
C21 N16 1.363 . S
C21 N18 1.377 . S
C21 C34 1.479 . S
C22 C19 1.480 . S
C22 C23 1.383 . S
C22 C27 1.385 . S
C23 H4 0.947 . S
C23 C22 1.383 . S
C23 C24 1.388 . S
C24 H5 0.946 . S
C24 C23 1.388 . S
C24 C25 1.384 . S
C25 C24 1.384 . S
C25 C26 1.377 . S
C26 H6 0.953 . S
C26 C25 1.377 . S
C26 C27 1.369 . S
C27 H7 0.945 . S
C27 C22 1.385 . S
C27 C26 1.369 . S
C28 C20 1.457 . S
C28 C29 1.372 . S
C28 C33 1.364 . S
C29 H8 0.952 . S
C29 C28 1.372 . S
C29 C30 1.389 . S
C30 H9 0.949 . S
C30 C29 1.389 . S
C30 C31 1.387 . S
C31 C30 1.387 . S
C31 C32 1.372 . S
C32 H10 0.950 . S
C32 C31 1.372 . S
C32 C33 1.379 . S
C33 H11 0.948 . S
C33 C28 1.364 . S
C33 C32 1.379 . S
C34 C3 1.383 . S
C34 C21 1.479 . S
C34 C35 1.398 . S
C35 C0 1.382 . S
C35 H12 0.951 . S
C35 C34 1.398 . S
C36 C37 1.384 . S
C36 H49 0.947 . S
C36 C71 1.382 . S
C37 C36 1.384 . S
C37 C38 1.378 . S
C38 C37 1.378 . S
C38 C39 1.378 . S
C38 H50 0.952 . S
C39 C38 1.378 . S
C39 H51 0.950 . S
C39 C70 1.383 . S
H40 C59 0.947 . S
H41 C60 0.946 . S
H42 C62 0.953 . S
H43 C63 0.945 . S
H44 C65 0.952 . S
H45 C66 0.949 . S
H46 C68 0.950 . S
H47 C69 0.948 . S
H48 C71 0.951 . S
H49 C36 0.947 . S
H50 C38 0.952 . S
H51 C39 0.950 . S
N52 C55 1.382 . S
N52 C57 1.363 . S
N53 C55 1.371 . S
N53 C56 1.372 . S
N54 C56 1.361 . S
N54 C57 1.377 . S
C55 N52 1.382 . S
C55 N53 1.371 . S
C55 C58 1.480 . S
C56 N53 1.372 . S
C56 N54 1.361 . S
C56 C64 1.457 . S
C57 N52 1.363 . S
C57 N54 1.377 . S
C57 C70 1.479 . S
C58 C55 1.480 . S
C58 C59 1.383 . S
C58 C63 1.385 . S
C59 H40 0.947 . S
C59 C58 1.383 . S
C59 C60 1.388 . S
C60 H41 0.946 . S
C60 C59 1.388 . S
C60 C61 1.384 . S
C61 C60 1.384 . S
C61 C62 1.377 . S
C62 H42 0.953 . S
C62 C61 1.377 . S
C62 C63 1.369 . S
C63 H43 0.945 . S
C63 C58 1.385 . S
C63 C62 1.369 . S
C64 C56 1.457 . S
C64 C65 1.372 . S
C64 C69 1.364 . S
C65 H44 0.952 . S
C65 C64 1.372 . S
C65 C66 1.389 . S
C66 H45 0.949 . S
C66 C65 1.389 . S
C66 C67 1.387 . S
C67 C66 1.387 . S
C67 C68 1.372 . S
C68 H46 0.950 . S
C68 C67 1.372 . S
C68 C69 1.379 . S
C69 H47 0.948 . S
C69 C64 1.364 . S
C69 C68 1.379 . S
C70 C39 1.383 . S
C70 C57 1.479 . S
C70 C71 1.398 . S
C71 C36 1.382 . S
C71 H48 0.951 . S
C71 C70 1.398 . S
C72 C73 1.384 . S
C72 H85 0.947 . S
C72 C107 1.382 . S
C73 C72 1.384 . S
C73 C74 1.378 . S
C74 C73 1.378 . S
C74 C75 1.378 . S
C74 H86 0.952 . S
C75 C74 1.378 . S
C75 H87 0.950 . S
C75 C106 1.383 . S
H76 C95 0.947 . S
H77 C96 0.946 . S
H78 C98 0.953 . S
H79 C99 0.945 . S
H80 C101 0.952 . S
H81 C102 0.949 . S
H82 C104 0.950 . S
H83 C105 0.948 . S
H84 C107 0.951 . S
H85 C72 0.947 . S
H86 C74 0.952 . S
H87 C75 0.950 . S
N88 C91 1.382 . S
N88 C93 1.363 . S
N89 C91 1.371 . S
N89 C92 1.372 . S
N90 C92 1.361 . S
N90 C93 1.377 . S
C91 N88 1.382 . S
C91 N89 1.371 . S
C91 C94 1.480 . S
C92 N89 1.372 . S
C92 N90 1.361 . S
C92 C100 1.457 . S
C93 N88 1.363 . S
C93 N90 1.377 . S
C93 C106 1.479 . S
C94 C91 1.480 . S
C94 C95 1.383 . S
C94 C99 1.385 . S
C95 H76 0.947 . S
C95 C94 1.383 . S
C95 C96 1.388 . S
C96 H77 0.946 . S
C96 C95 1.388 . S
C96 C97 1.384 . S
C97 C96 1.384 . S
C97 C98 1.377 . S
C98 H78 0.953 . S
C98 C97 1.377 . S
C98 C99 1.369 . S
C99 H79 0.945 . S
C99 C94 1.385 . S
C99 C98 1.369 . S
C100 C92 1.457 . S
C100 C101 1.372 . S
C100 C105 1.364 . S
C101 H80 0.952 . S
C101 C100 1.372 . S
C101 C102 1.389 . S
C102 H81 0.949 . S
C102 C101 1.389 . S
C102 C103 1.387 . S
C103 C102 1.387 . S
C103 C104 1.372 . S
C104 H82 0.950 . S
C104 C103 1.372 . S
C104 C105 1.379 . S
C105 H83 0.948 . S
C105 C100 1.364 . S
C105 C104 1.379 . S
C106 C75 1.383 . S
C106 C93 1.479 . S
C106 C107 1.398 . S
C107 C72 1.382 . S
C107 H84 0.951 . S
C107 C106 1.398 . S
C108 C109 1.384 . S
C108 H121 0.947 . S
C108 C143 1.382 . S
C109 C108 1.384 . S
C109 C110 1.378 . S
C110 C109 1.378 . S
C110 C111 1.378 . S
C110 H122 0.952 . S
C111 C110 1.378 . S
C111 H123 0.950 . S
C111 C142 1.383 . S
H112 C131 0.947 . S
H113 C132 0.946 . S
H114 C134 0.953 . S
H115 C135 0.945 . S
H116 C137 0.952 . S
H117 C138 0.949 . S
H118 C140 0.950 . S
H119 C141 0.948 . S
H120 C143 0.951 . S
H121 C108 0.947 . S
H122 C110 0.952 . S
H123 C111 0.950 . S
N124 C127 1.382 . S
N124 C129 1.363 . S
N125 C127 1.371 . S
N125 C128 1.372 . S
N126 C128 1.361 . S
N126 C129 1.377 . S
C127 N124 1.382 . S
C127 N125 1.371 . S
C127 C130 1.480 . S
C128 N125 1.372 . S
C128 N126 1.361 . S
C128 C136 1.457 . S
C129 N124 1.363 . S
C129 N126 1.377 . S
C129 C142 1.479 . S
C130 C127 1.480 . S
C130 C131 1.383 . S
C130 C135 1.385 . S
C131 H112 0.947 . S
C131 C130 1.383 . S
C131 C132 1.388 . S
C132 H113 0.946 . S
C132 C131 1.388 . S
C132 C133 1.384 . S
C133 C132 1.384 . S
C133 C134 1.377 . S
C134 H114 0.953 . S
C134 C133 1.377 . S
C134 C135 1.369 . S
C135 H115 0.945 . S
C135 C130 1.385 . S
C135 C134 1.369 . S
C136 C128 1.457 . S
C136 C137 1.372 . S
C136 C141 1.364 . S
C137 H116 0.952 . S
C137 C136 1.372 . S
C137 C138 1.389 . S
C138 H117 0.949 . S
C138 C137 1.389 . S
C138 C139 1.387 . S
C139 C138 1.387 . S
C139 C140 1.372 . S
C140 H118 0.950 . S
C140 C139 1.372 . S
C140 C141 1.379 . S
C141 H119 0.948 . S
C141 C136 1.364 . S
C141 C140 1.379 . S
C142 C111 1.383 . S
C142 C129 1.479 . S
C142 C143 1.398 . S
C143 C108 1.382 . S
C143 H120 0.951 . S
C143 C142 1.398 . S
C144 C145 1.384 . S
C144 H157 0.947 . S
C144 C179 1.382 . S
C145 C144 1.384 . S
C145 C146 1.378 . S
C146 C145 1.378 . S
C146 C147 1.378 . S
C146 H158 0.952 . S
C147 C146 1.378 . S
C147 H159 0.950 . S
C147 C178 1.383 . S
H148 C167 0.947 . S
H149 C168 0.946 . S
H150 C170 0.953 . S
H151 C171 0.945 . S
H152 C173 0.952 . S
H153 C174 0.949 . S
H154 C176 0.950 . S
H155 C177 0.948 . S
H156 C179 0.951 . S
H157 C144 0.947 . S
H158 C146 0.952 . S
H159 C147 0.950 . S
N160 C163 1.382 . S
N160 C165 1.363 . S
N161 C163 1.371 . S
N161 C164 1.372 . S
N162 C164 1.361 . S
N162 C165 1.377 . S
C163 N160 1.382 . S
C163 N161 1.371 . S
C163 C166 1.480 . S
C164 N161 1.372 . S
C164 N162 1.361 . S
C164 C172 1.457 . S
C165 N160 1.363 . S
C165 N162 1.377 . S
C165 C178 1.479 . S
C166 C163 1.480 . S
C166 C167 1.383 . S
C166 C171 1.385 . S
C167 H148 0.947 . S
C167 C166 1.383 . S
C167 C168 1.388 . S
C168 H149 0.946 . S
C168 C167 1.388 . S
C168 C169 1.384 . S
C169 C168 1.384 . S
C169 C170 1.377 . S
C170 H150 0.953 . S
C170 C169 1.377 . S
C170 C171 1.369 . S
C171 H151 0.945 . S
C171 C166 1.385 . S
C171 C170 1.369 . S
C172 C164 1.457 . S
C172 C173 1.372 . S
C172 C177 1.364 . S
C173 H152 0.952 . S
C173 C172 1.372 . S
C173 C174 1.389 . S
C174 H153 0.949 . S
C174 C173 1.389 . S
C174 C175 1.387 . S
C175 C174 1.387 . S
C175 C176 1.372 . S
C176 H154 0.950 . S
C176 C175 1.372 . S
C176 C177 1.379 . S
C177 H155 0.948 . S
C177 C172 1.364 . S
C177 C176 1.379 . S
C178 C147 1.383 . S
C178 C165 1.479 . S
C178 C179 1.398 . S
C179 C144 1.382 . S
C179 H156 0.951 . S
C179 C178 1.398 . S
C180 C181 1.384 . S
C180 H193 0.947 . S
C180 C215 1.382 . S
C181 C180 1.384 . S
C181 C182 1.378 . S
C182 C181 1.378 . S
C182 C183 1.378 . S
C182 H194 0.952 . S
C183 C182 1.378 . S
C183 H195 0.950 . S
C183 C214 1.383 . S
H184 C203 0.947 . S
H185 C204 0.946 . S
H186 C206 0.953 . S
H187 C207 0.945 . S
H188 C209 0.952 . S
H189 C210 0.949 . S
H190 C212 0.950 . S
H191 C213 0.948 . S
H192 C215 0.951 . S
H193 C180 0.947 . S
H194 C182 0.952 . S
H195 C183 0.950 . S
N196 C199 1.382 . S
N196 C201 1.363 . S
N197 C199 1.371 . S
N197 C200 1.372 . S
N198 C200 1.361 . S
N198 C201 1.377 . S
C199 N196 1.382 . S
C199 N197 1.371 . S
C199 C202 1.480 . S
C200 N197 1.372 . S
C200 N198 1.361 . S
C200 C208 1.457 . S
C201 N196 1.363 . S
C201 N198 1.377 . S
C201 C214 1.479 . S
C202 C199 1.480 . S
C202 C203 1.383 . S
C202 C207 1.385 . S
C203 H184 0.947 . S
C203 C202 1.383 . S
C203 C204 1.388 . S
C204 H185 0.946 . S
C204 C203 1.388 . S
C204 C205 1.384 . S
C205 C204 1.384 . S
C205 C206 1.377 . S
C206 H186 0.953 . S
C206 C205 1.377 . S
C206 C207 1.369 . S
C207 H187 0.945 . S
C207 C202 1.385 . S
C207 C206 1.369 . S
C208 C200 1.457 . S
C208 C209 1.372 . S
C208 C213 1.364 . S
C209 H188 0.952 . S
C209 C208 1.372 . S
C209 C210 1.389 . S
C210 H189 0.949 . S
C210 C209 1.389 . S
C210 C211 1.387 . S
C211 C210 1.387 . S
C211 C212 1.372 . S
C212 H190 0.950 . S
C212 C211 1.372 . S
C212 C213 1.379 . S
C213 H191 0.948 . S
C213 C208 1.364 . S
C213 C212 1.379 . S
C214 C183 1.383 . S
C214 C201 1.479 . S
C214 C215 1.398 . S
C215 C180 1.382 . S
C215 H192 0.951 . S
C215 C214 1.398 . S
C216 C217 1.384 . S
C216 H229 0.947 . S
C216 C251 1.382 . S
C217 C216 1.384 . S
C217 C218 1.378 . S
C218 C217 1.378 . S
C218 C219 1.378 . S
C218 H230 0.952 . S
C219 C218 1.378 . S
C219 H231 0.950 . S
C219 C250 1.383 . S
H220 C239 0.947 . S
H221 C240 0.946 . S
H222 C242 0.953 . S
H223 C243 0.945 . S
H224 C245 0.952 . S
H225 C246 0.949 . S
H226 C248 0.950 . S
H227 C249 0.948 . S
H228 C251 0.951 . S
H229 C216 0.947 . S
H230 C218 0.952 . S
H231 C219 0.950 . S
N232 C235 1.382 . S
N232 C237 1.363 . S
N233 C235 1.371 . S
N233 C236 1.372 . S
N234 C236 1.361 . S
N234 C237 1.377 . S
C235 N232 1.382 . S
C235 N233 1.371 . S
C235 C238 1.480 . S
C236 N233 1.372 . S
C236 N234 1.361 . S
C236 C244 1.457 . S
C237 N232 1.363 . S
C237 N234 1.377 . S
C237 C250 1.479 . S
C238 C235 1.480 . S
C238 C239 1.383 . S
C238 C243 1.385 . S
C239 H220 0.947 . S
C239 C238 1.383 . S
C239 C240 1.388 . S
C240 H221 0.946 . S
C240 C239 1.388 . S
C240 C241 1.384 . S
C241 C240 1.384 . S
C241 C242 1.377 . S
C242 H222 0.953 . S
C242 C241 1.377 . S
C242 C243 1.369 . S
C243 H223 0.945 . S
C243 C238 1.385 . S
C243 C242 1.369 . S
C244 C236 1.457 . S
C244 C245 1.372 . S
C244 C249 1.364 . S
C245 H224 0.952 . S
C245 C244 1.372 . S
C245 C246 1.389 . S
C246 H225 0.949 . S
C246 C245 1.389 . S
C246 C247 1.387 . S
C247 C246 1.387 . S
C247 C248 1.372 . S
C248 H226 0.950 . S
C248 C247 1.372 . S
C248 C249 1.379 . S
C249 H227 0.948 . S
C249 C244 1.364 . S
C249 C248 1.379 . S
C250 C219 1.383 . S
C250 C237 1.479 . S
C250 C251 1.398 . S
C251 C216 1.382 . S
C251 H228 0.951 . S
C251 C250 1.398 . S
C252 C253 1.384 . S
C252 H265 0.947 . S
C252 C287 1.382 . S
C253 C252 1.384 . S
C253 C254 1.378 . S
C254 C253 1.378 . S
C254 C255 1.378 . S
C254 H266 0.952 . S
C255 C254 1.378 . S
C255 H267 0.950 . S
C255 C286 1.383 . S
H256 C275 0.947 . S
H257 C276 0.946 . S
H258 C278 0.953 . S
H259 C279 0.945 . S
H260 C281 0.952 . S
H261 C282 0.949 . S
H262 C284 0.950 . S
H263 C285 0.948 . S
H264 C287 0.951 . S
H265 C252 0.947 . S
H266 C254 0.952 . S
H267 C255 0.950 . S
N268 C271 1.382 . S
N268 C273 1.363 . S
N269 C271 1.371 . S
N269 C272 1.372 . S
N270 C272 1.361 . S
N270 C273 1.377 . S
C271 N268 1.382 . S
C271 N269 1.371 . S
C271 C274 1.480 . S
C272 N269 1.372 . S
C272 N270 1.361 . S
C272 C280 1.457 . S
C273 N268 1.363 . S
C273 N270 1.377 . S
C273 C286 1.479 . S
C274 C271 1.480 . S
C274 C275 1.383 . S
C274 C279 1.385 . S
C275 H256 0.947 . S
C275 C274 1.383 . S
C275 C276 1.388 . S
C276 H257 0.946 . S
C276 C275 1.388 . S
C276 C277 1.384 . S
C277 C276 1.384 . S
C277 C278 1.377 . S
C278 H258 0.953 . S
C278 C277 1.377 . S
C278 C279 1.369 . S
C279 H259 0.945 . S
C279 C274 1.385 . S
C279 C278 1.369 . S
C280 C272 1.457 . S
C280 C281 1.372 . S
C280 C285 1.364 . S
C281 H260 0.952 . S
C281 C280 1.372 . S
C281 C282 1.389 . S
C282 H261 0.949 . S
C282 C281 1.389 . S
C282 C283 1.387 . S
C283 C282 1.387 . S
C283 C284 1.372 . S
C284 H262 0.950 . S
C284 C283 1.372 . S
C284 C285 1.379 . S
C285 H263 0.948 . S
C285 C280 1.364 . S
C285 C284 1.379 . S
C286 C255 1.383 . S
C286 C273 1.479 . S
C286 C287 1.398 . S
C287 C252 1.382 . S
C287 H264 0.951 . S
C287 C286 1.398 . S
Dy288 O292 2.398 . S
Dy288 O293 2.491 . S
Dy288 O294 2.403 1_545 S
Dy288 O295 2.664 1_545 S
Dy288 O299 2.326 . S
Dy288 O303 2.310 1_455 S
Dy288 O304 2.351 1_445 S
C289 O300 1.185 . S
C289 O301 1.355 . S
C290 O292 1.185 . S
C290 O293 1.355 . S
Dy291 O295 2.310 1_655 S
Dy291 O298 2.351 1_665 S
Dy291 O300 2.398 . S
Dy291 O301 2.491 . S
Dy291 O302 2.403 1_565 S
Dy291 O303 2.664 1_565 S
Dy291 O305 2.326 . S
O292 Dy288 2.398 . S
O292 C290 1.185 . S
O293 Dy288 2.491 . S
O293 C290 1.355 . S
O294 Dy288 2.403 1_565 S
O294 C296 1.254 . S
O295 Dy288 2.664 1_565 S
O295 Dy291 2.310 1_455 S
O295 C296 1.268 . S
C296 O294 1.254 . S
C296 O295 1.268 . S
C297 O302 1.254 . S
C297 O303 1.268 . S
O298 Dy291 2.351 1_445 S
O298 C306 1.249 . S
O299 Dy288 2.326 . S
O299 C306 1.267 . S
O300 C289 1.185 . S
O300 Dy291 2.398 . S
O301 C289 1.355 . S
O301 Dy291 2.491 . S
O302 Dy291 2.403 1_545 S
O302 C297 1.254 . S
O303 Dy288 2.310 1_655 S
O303 Dy291 2.664 1_545 S
O303 C297 1.268 . S
O304 Dy288 2.351 1_665 S
O304 C307 1.249 . S
O305 Dy291 2.326 . S
O305 C307 1.267 . S
C306 O298 1.249 . S
C306 O299 1.267 . S
C307 O304 1.249 . S
C307 O305 1.267 . S
Dy308 O312 2.398 . S
Dy308 O313 2.491 . S
Dy308 O314 2.403 1_545 S
Dy308 O315 2.664 1_545 S
Dy308 O319 2.326 . S
Dy308 O323 2.310 1_554 S
Dy308 O324 2.351 1_544 S
C309 O320 1.185 . S
C309 O321 1.355 . S
C310 O312 1.185 . S
C310 O313 1.355 . S
Dy311 O315 2.296 1_546 S
Dy311 O318 2.364 1_556 S
Dy311 O320 2.395 1_545 S
Dy311 O321 2.472 1_545 S
Dy311 O322 2.421 . S
Dy311 O323 2.675 . S
Dy311 O325 2.317 1_545 S
O312 Dy308 2.398 . S
O312 C310 1.185 . S
O313 Dy308 2.491 . S
O313 C310 1.355 . S
O314 Dy308 2.403 1_565 S
O314 C316 1.254 . S
O315 Dy308 2.664 1_565 S
O315 Dy311 2.296 1_564 S
O315 C316 1.268 . S
C316 O314 1.254 . S
C316 O315 1.268 . S
C317 O322 1.254 . S
C317 O323 1.268 . S
O318 Dy311 2.364 1_554 S
O318 C326 1.249 . S
O319 Dy308 2.326 . S
O319 C326 1.267 . S
O320 C309 1.185 . S
O320 Dy311 2.395 1_565 S
O321 C309 1.355 . S
O321 Dy311 2.472 1_565 S
O322 Dy311 2.421 . S
O322 C317 1.254 . S
O323 Dy308 2.310 1_556 S
O323 Dy311 2.675 . S
O323 C317 1.268 . S
O324 Dy308 2.351 1_566 S
O324 C327 1.249 . S
O325 Dy311 2.317 1_565 S
O325 C327 1.267 . S
C326 O318 1.249 . S
C326 O319 1.267 . S
C327 O324 1.249 . S
C327 O325 1.267 . S
Dy328 O332 2.398 . S
Dy328 O333 2.491 . S
Dy328 O334 2.403 . S
Dy328 O335 2.664 . S
Dy328 O339 2.326 . S
Dy328 O343 2.310 . S
Dy328 O344 2.351 . S
C329 O340 1.185 . S
C329 O341 1.355 . S
C330 O332 1.185 . S
C330 O333 1.355 . S
Dy331 O335 2.310 . S
Dy331 O338 2.351 . S
Dy331 O340 2.398 . S
Dy331 O341 2.491 . S
Dy331 O342 2.403 . S
Dy331 O343 2.664 . S
Dy331 O345 2.326 . S
O332 Dy328 2.398 . S
O332 C330 1.185 . S
O333 Dy328 2.491 . S
O333 C330 1.355 . S
O334 Dy328 2.403 . S
O334 C336 1.254 . S
O335 Dy328 2.664 . S
O335 Dy331 2.310 . S
O335 C336 1.268 . S
C336 O334 1.254 . S
C336 O335 1.268 . S
C337 O342 1.254 . S
C337 O343 1.268 . S
O338 Dy331 2.351 . S
O338 C346 1.249 . S
O339 Dy328 2.326 . S
O339 C346 1.267 . S
O340 C329 1.185 . S
O340 Dy331 2.398 . S
O341 C329 1.355 . S
O341 Dy331 2.491 . S
O342 Dy331 2.403 . S
O342 C337 1.254 . S
O343 Dy328 2.310 . S
O343 Dy331 2.664 . S
O343 C337 1.268 . S
O344 Dy328 2.351 . S
O344 C347 1.249 . S
O345 Dy331 2.326 . S
O345 C347 1.267 . S
C346 O338 1.249 . S
C346 O339 1.267 . S
C347 O344 1.249 . S
C347 O345 1.267 . S
Dy348 O352 2.398 . S
Dy348 O353 2.491 . S
Dy348 O354 2.403 1_455 S
Dy348 O355 2.664 1_455 S
Dy348 O359 2.326 . S
Dy348 O363 2.310 1_554 S
Dy348 O364 2.351 1_454 S
C349 O360 1.185 . S
C349 O361 1.355 . S
C350 O352 1.185 . S
C350 O353 1.355 . S
Dy351 O355 2.310 1_556 S
Dy351 O358 2.351 1_656 S
Dy351 O360 2.398 . S
Dy351 O361 2.491 . S
Dy351 O362 2.403 1_655 S
Dy351 O363 2.664 1_655 S
Dy351 O365 2.326 . S
O352 Dy348 2.398 . S
O352 C350 1.185 . S
O353 Dy348 2.491 . S
O353 C350 1.355 . S
O354 Dy348 2.403 1_655 S
O354 C356 1.254 . S
O355 Dy348 2.664 1_655 S
O355 Dy351 2.310 1_554 S
O355 C356 1.268 . S
C356 O354 1.254 . S
C356 O355 1.268 . S
C357 O362 1.254 . S
C357 O363 1.268 . S
O358 Dy351 2.351 1_454 S
O358 C366 1.249 . S
O359 Dy348 2.326 . S
O359 C366 1.267 . S
O360 C349 1.185 . S
O360 Dy351 2.398 . S
O361 C349 1.355 . S
O361 Dy351 2.491 . S
O362 Dy351 2.403 1_455 S
O362 C357 1.254 . S
O363 Dy348 2.310 1_556 S
O363 Dy351 2.664 1_455 S
O363 C357 1.268 . S
O364 Dy348 2.351 1_656 S
O364 C367 1.249 . S
O365 Dy351 2.326 . S
O365 C367 1.267 . S
C366 O358 1.249 . S
C366 O359 1.267 . S
C367 O364 1.249 . S
C367 O365 1.267 . S
H368 C374 0.930 . S
H369 C377 0.930 . S
H370 C378 0.930 . S
H371 C379 0.930 . S
H372 C382 0.930 . S
H373 C383 0.930 . S
C374 H368 0.930 . S
C374 C375 1.355 . S
C374 C376 1.415 . S
C375 C374 1.355 . S
C375 C377 1.419 . S
C376 C374 1.415 . S
C376 C381 1.425 . S
C376 C383 1.409 . S
C377 H369 0.930 . S
C377 C375 1.419 . S
C377 C378 1.362 . S
C378 H370 0.930 . S
C378 C377 1.362 . S
C378 C381 1.409 . S
C379 H371 0.930 . S
C379 C380 1.355 . S
C379 C381 1.415 . S
C380 C379 1.355 . S
C380 C382 1.419 . S
C381 C376 1.425 . S
C381 C378 1.409 . S
C381 C379 1.415 . S
C382 H372 0.930 . S
C382 C380 1.419 . S
C382 C383 1.362 . S
C383 H373 0.930 . S
C383 C376 1.409 . S
C383 C382 1.362 . S
H384 C390 0.930 . S
H385 C393 0.930 . S
H386 C394 0.930 . S
H387 C395 0.930 . S
H388 C398 0.930 . S
H389 C399 0.930 . S
C390 H384 0.930 . S
C390 C391 1.355 . S
C390 C392 1.415 . S
C391 C390 1.355 . S
C391 C393 1.419 . S
C392 C390 1.415 . S
C392 C397 1.425 . S
C392 C399 1.409 . S
C393 H385 0.930 . S
C393 C391 1.419 . S
C393 C394 1.362 . S
C394 H386 0.930 . S
C394 C393 1.362 . S
C394 C397 1.409 . S
C395 H387 0.930 . S
C395 C396 1.355 . S
C395 C397 1.415 . S
C396 C395 1.355 . S
C396 C398 1.419 . S
C397 C392 1.425 . S
C397 C394 1.409 . S
C397 C395 1.415 . S
C398 H388 0.930 . S
C398 C396 1.419 . S
C398 C399 1.362 . S
C399 H389 0.930 . S
C399 C392 1.409 . S
C399 C398 1.362 . S
H400 C406 0.930 . S
H401 C409 0.930 . S
H402 C410 0.930 . S
H403 C411 0.930 . S
H404 C414 0.930 . S
H405 C415 0.930 . S
C406 H400 0.930 . S
C406 C407 1.355 . S
C406 C408 1.415 . S
C407 C406 1.355 . S
C407 C409 1.419 . S
C408 C406 1.415 . S
C408 C413 1.425 . S
C408 C415 1.409 . S
C409 H401 0.930 . S
C409 C407 1.419 . S
C409 C410 1.362 . S
C410 H402 0.930 . S
C410 C409 1.362 . S
C410 C413 1.409 . S
C411 H403 0.930 . S
C411 C412 1.355 . S
C411 C413 1.415 . S
C412 C411 1.355 . S
C412 C414 1.419 . S
C413 C408 1.425 . S
C413 C410 1.409 . S
C413 C411 1.415 . S
C414 H404 0.930 . S
C414 C412 1.419 . S
C414 C415 1.362 . S
C415 H405 0.930 . S
C415 C408 1.409 . S
C415 C414 1.362 . S
H416 C422 0.930 . S
H417 C425 0.930 . S
H418 C426 0.930 . S
H419 C427 0.930 . S
H420 C430 0.930 1_455 S
H421 C431 0.930 1_455 S
C422 H416 0.930 . S
C422 C423 1.355 . S
C422 C424 1.415 . S
C423 C422 1.355 . S
C423 C425 1.419 . S
C424 C422 1.415 . S
C424 C429 1.425 . S
C424 C431 1.409 . S
C425 H417 0.930 . S
C425 C423 1.419 . S
C425 C426 1.362 . S
C426 H418 0.930 . S
C426 C425 1.362 . S
C426 C429 1.409 . S
C427 H419 0.930 . S
C427 C428 1.355 . S
C427 C429 1.415 . S
C428 C427 1.355 . S
C428 C430 1.419 . S
C429 C424 1.425 . S
C429 C426 1.409 . S
C429 C427 1.415 . S
C430 H420 0.930 1_655 S
C430 C428 1.419 . S
C430 C431 1.362 . S
C431 H421 0.930 1_655 S
C431 C424 1.409 . S
C431 C430 1.362 . S
H432 C438 0.930 . S
H433 C441 0.930 . S
H434 C442 0.930 . S
H435 C443 0.930 . S
H436 C446 0.930 . S
H437 C447 0.930 . S
C438 H432 0.930 . S
C438 C439 1.355 . S
C438 C440 1.415 . S
C439 C438 1.355 . S
C439 C441 1.419 . S
C440 C438 1.415 . S
C440 C445 1.425 . S
C440 C447 1.409 . S
C441 H433 0.930 . S
C441 C439 1.419 . S
C441 C442 1.362 . S
C442 H434 0.930 . S
C442 C441 1.362 . S
C442 C445 1.409 . S
C443 H435 0.930 . S
C443 C444 1.355 . S
C443 C445 1.415 . S
C444 C443 1.355 . S
C444 C446 1.419 . S
C445 C440 1.425 . S
C445 C442 1.409 . S
C445 C443 1.415 . S
C446 H436 0.930 . S
C446 C444 1.419 . S
C446 C447 1.362 . S
C447 H437 0.930 . S
C447 C440 1.409 . S
C447 C446 1.362 . S
H448 C454 0.930 . S
H449 C457 0.930 . S
H450 C458 0.930 . S
H451 C459 0.930 . S
H452 C462 0.930 1_545 S
H453 C463 0.930 . S
C454 H448 0.930 . S
C454 C455 1.355 . S
C454 C456 1.415 . S
C455 C454 1.355 . S
C455 C457 1.419 . S
C456 C454 1.415 . S
C456 C461 1.425 . S
C456 C463 1.409 . S
C457 H449 0.930 . S
C457 C455 1.419 . S
C457 C458 1.362 . S
C458 H450 0.930 . S
C458 C457 1.362 . S
C458 C461 1.409 . S
C459 H451 0.930 . S
C459 C460 1.355 . S
C459 C461 1.415 . S
C460 C459 1.355 . S
C460 C462 1.419 . S
C461 C456 1.425 . S
C461 C458 1.409 . S
C461 C459 1.415 . S
C462 H452 0.930 1_565 S
C462 C460 1.419 . S
C462 C463 1.362 . S
C463 H453 0.930 . S
C463 C456 1.409 . S
C463 C462 1.362 . S
H464 C470 0.930 . S
H465 C473 0.930 . S
H466 C474 0.930 . S
H467 C475 0.930 . S
H468 C478 0.930 . S
H469 C479 0.930 . S
C470 H464 0.930 . S
C470 C471 1.355 . S
C470 C472 1.415 . S
C471 C470 1.355 . S
C471 C473 1.419 . S
C472 C470 1.415 . S
C472 C477 1.425 . S
C472 C479 1.409 . S
C473 H465 0.930 . S
C473 C471 1.419 . S
C473 C474 1.362 . S
C474 H466 0.930 . S
C474 C473 1.362 . S
C474 C477 1.409 . S
C475 H467 0.930 . S
C475 C476 1.355 . S
C475 C477 1.415 . S
C476 C475 1.355 . S
C476 C478 1.419 . S
C477 C472 1.425 . S
C477 C474 1.409 . S
C477 C475 1.415 . S
C478 H468 0.930 . S
C478 C476 1.419 . S
C478 C479 1.362 . S
C479 H469 0.930 . S
C479 C472 1.409 . S
C479 C478 1.362 . S
H480 C486 0.930 . S
H481 C489 0.930 . S
H482 C490 0.930 . S
H483 C491 0.930 . S
H484 C494 0.930 . S
H485 C495 0.930 . S
C486 H480 0.930 . S
C486 C487 1.355 . S
C486 C488 1.415 . S
C487 C486 1.355 . S
C487 C489 1.419 . S
C488 C486 1.415 . S
C488 C493 1.425 . S
C488 C495 1.409 . S
C489 H481 0.930 . S
C489 C487 1.419 . S
C489 C490 1.362 . S
C490 H482 0.930 . S
C490 C489 1.362 . S
C490 C493 1.409 . S
C491 H483 0.930 . S
C491 C492 1.355 . S
C491 C493 1.415 . S
C492 C491 1.355 . S
C492 C494 1.419 . S
C493 C488 1.425 . S
C493 C490 1.409 . S
C493 C491 1.415 . S
C494 H484 0.930 . S
C494 C492 1.419 . S
C494 C495 1.362 . S
C495 H485 0.930 . S
C495 C488 1.409 . S
C495 C494 1.362 . S
H496 C502 0.930 . S
H497 C505 0.930 . S
H498 C506 0.930 . S
H499 C507 0.930 . S
H500 C510 0.930 . S
H501 C511 0.930 . S
C502 H496 0.930 . S
C502 C503 1.355 . S
C502 C504 1.415 . S
C503 C502 1.355 . S
C503 C505 1.419 . S
C504 C502 1.415 . S
C504 C509 1.425 . S
C504 C511 1.409 . S
C505 H497 0.930 . S
C505 C503 1.419 . S
C505 C506 1.362 . S
C506 H498 0.930 . S
C506 C505 1.362 . S
C506 C509 1.409 . S
C507 H499 0.930 . S
C507 C508 1.355 . S
C507 C509 1.415 . S
C508 C507 1.355 . S
C508 C510 1.419 . S
C509 C504 1.425 . S
C509 C506 1.409 . S
C509 C507 1.415 . S
C510 H500 0.930 . S
C510 C508 1.419 . S
C510 C511 1.362 . S
C511 H501 0.930 . S
C511 C504 1.409 . S
C511 C510 1.362 . S
H512 C518 0.930 . S
H513 C521 0.930 . S
H514 C522 0.930 . S
H515 C523 0.930 . S
H516 C526 0.930 . S
H517 C527 0.930 . S
C518 H512 0.930 . S
C518 C519 1.355 . S
C518 C520 1.415 . S
C519 C518 1.355 . S
C519 C521 1.419 . S
C520 C518 1.415 . S
C520 C525 1.425 . S
C520 C527 1.409 . S
C521 H513 0.930 . S
C521 C519 1.419 . S
C521 C522 1.362 . S
C522 H514 0.930 . S
C522 C521 1.362 . S
C522 C525 1.409 . S
C523 H515 0.930 . S
C523 C524 1.355 . S
C523 C525 1.415 . S
C524 C523 1.355 . S
C524 C526 1.419 . S
C525 C520 1.425 . S
C525 C522 1.409 . S
C525 C523 1.415 . S
C526 H516 0.930 . S
C526 C524 1.419 . S
C526 C527 1.362 . S
C527 H517 0.930 . S
C527 C520 1.409 . S
C527 C526 1.362 . S
H528 C534 0.930 . S
H529 C537 0.930 . S
H530 C538 0.930 . S
H531 C539 0.930 . S
H532 C542 0.930 . S
H533 C543 0.930 . S
C534 H528 0.930 . S
C534 C535 1.355 . S
C534 C536 1.415 . S
C535 C534 1.355 . S
C535 C537 1.419 . S
C536 C534 1.415 . S
C536 C541 1.425 . S
C536 C543 1.409 . S
C537 H529 0.930 . S
C537 C535 1.419 . S
C537 C538 1.362 . S
C538 H530 0.930 . S
C538 C537 1.362 . S
C538 C541 1.409 . S
C539 H531 0.930 . S
C539 C540 1.355 . S
C539 C541 1.415 . S
C540 C539 1.355 . S
C540 C542 1.419 . S
C541 C536 1.425 . S
C541 C538 1.409 . S
C541 C539 1.415 . S
C542 H532 0.930 . S
C542 C540 1.419 . S
C542 C543 1.362 . S
C543 H533 0.930 . S
C543 C536 1.409 . S
C543 C542 1.362 . S
H544 C550 0.930 . S
H545 C553 0.930 . S
H546 C554 0.930 . S
H547 C555 0.930 . S
H548 C558 0.930 . S
H549 C559 0.930 . S
C550 H544 0.930 . S
C550 C551 1.355 . S
C550 C552 1.415 . S
C551 C550 1.355 . S
C551 C553 1.419 . S
C552 C550 1.415 . S
C552 C557 1.425 . S
C552 C559 1.409 . S
C553 H545 0.930 . S
C553 C551 1.419 . S
C553 C554 1.362 . S
C554 H546 0.930 . S
C554 C553 1.362 . S
C554 C557 1.409 . S
C555 H547 0.930 . S
C555 C556 1.355 . S
C555 C557 1.415 . S
C556 C555 1.355 . S
C556 C558 1.419 . S
C557 C552 1.425 . S
C557 C554 1.409 . S
C557 C555 1.415 . S
C558 H548 0.930 . S
C558 C556 1.419 . S
C558 C559 1.362 . S
C559 H549 0.930 . S
C559 C552 1.409 . S
C559 C558 1.362 . S
H560 C566 0.930 . S
H561 C569 0.930 . S
H562 C570 0.930 . S
H563 C571 0.930 . S
H564 C574 0.930 . S
H565 C575 0.930 . S
C566 H560 0.930 . S
C566 C567 1.355 . S
C566 C568 1.415 . S
C567 C566 1.355 . S
C567 C569 1.419 . S
C568 C566 1.415 . S
C568 C573 1.425 . S
C568 C575 1.409 . S
C569 H561 0.930 . S
C569 C567 1.419 . S
C569 C570 1.362 . S
C570 H562 0.930 . S
C570 C569 1.362 . S
C570 C573 1.409 . S
C571 H563 0.930 . S
C571 C572 1.355 . S
C571 C573 1.415 . S
C572 C571 1.355 . S
C572 C574 1.419 . S
C573 C568 1.425 . S
C573 C570 1.409 . S
C573 C571 1.415 . S
C574 H564 0.930 . S
C574 C572 1.419 . S
C574 C575 1.362 . S
C575 H565 0.930 . S
C575 C568 1.409 . S
C575 C574 1.362 . S
H576 C582 0.930 . S
H577 C585 0.930 . S
H578 C586 0.930 . S
H579 C587 0.930 . S
H580 C590 0.930 . S
H581 C591 0.930 . S
C582 H576 0.930 . S
C582 C583 1.355 . S
C582 C584 1.415 . S
C583 C582 1.355 . S
C583 C585 1.419 . S
C584 C582 1.415 . S
C584 C589 1.425 . S
C584 C591 1.409 . S
C585 H577 0.930 . S
C585 C583 1.419 . S
C585 C586 1.362 . S
C586 H578 0.930 . S
C586 C585 1.362 . S
C586 C589 1.409 . S
C587 H579 0.930 . S
C587 C588 1.355 . S
C587 C589 1.415 . S
C588 C587 1.355 . S
C588 C590 1.419 . S
C589 C584 1.425 . S
C589 C586 1.409 . S
C589 C587 1.415 . S
C590 H580 0.930 . S
C590 C588 1.419 . S
C590 C591 1.362 . S
C591 H581 0.930 . S
C591 C584 1.409 . S
C591 C590 1.362 . S
H592 C598 0.930 . S
H593 C601 0.930 . S
H594 C602 0.930 . S
H595 C603 0.930 . S
H596 C606 0.930 . S
H597 C607 0.930 . S
C598 H592 0.930 . S
C598 C599 1.355 . S
C598 C600 1.415 . S
C599 C598 1.355 . S
C599 C601 1.419 . S
C600 C598 1.415 . S
C600 C605 1.425 . S
C600 C607 1.409 . S
C601 H593 0.930 . S
C601 C599 1.419 . S
C601 C602 1.362 . S
C602 H594 0.930 . S
C602 C601 1.362 . S
C602 C605 1.409 . S
C603 H595 0.930 . S
C603 C604 1.355 . S
C603 C605 1.415 . S
C604 C603 1.355 . S
C604 C606 1.419 . S
C605 C600 1.425 . S
C605 C602 1.409 . S
C605 C603 1.415 . S
C606 H596 0.930 . S
C606 C604 1.419 . S
C606 C607 1.362 . S
C607 H597 0.930 . S
C607 C600 1.409 . S
C607 C606 1.362 . S
H608 C614 0.930 . S
H609 C617 0.930 . S
H610 C618 0.930 . S
H611 C619 0.930 . S
H612 C622 0.930 . S
H613 C623 0.930 . S
C614 H608 0.930 . S
C614 C615 1.355 . S
C614 C616 1.415 . S
C615 C614 1.355 . S
C615 C617 1.419 . S
C616 C614 1.415 . S
C616 C621 1.425 . S
C616 C623 1.409 . S
C617 H609 0.930 . S
C617 C615 1.419 . S
C617 C618 1.362 . S
C618 H610 0.930 . S
C618 C617 1.362 . S
C618 C621 1.409 . S
C619 H611 0.930 . S
C619 C620 1.355 . S
C619 C621 1.415 . S
C620 C619 1.355 . S
C620 C622 1.419 . S
C621 C616 1.425 . S
C621 C618 1.409 . S
C621 C619 1.415 . S
C622 H612 0.930 . S
C622 C620 1.419 . S
C622 C623 1.362 . S
C623 H613 0.930 . S
C623 C616 1.409 . S
C623 C622 1.362 . S
H624 C630 0.930 . S
H625 C633 0.930 . S
H626 C634 0.930 . S
H627 C635 0.930 . S
H628 C638 0.930 . S
H629 C639 0.930 . S
C630 H624 0.930 . S
C630 C631 1.355 . S
C630 C632 1.415 . S
C631 C630 1.355 . S
C631 C633 1.419 . S
C632 C630 1.415 . S
C632 C637 1.425 . S
C632 C639 1.409 . S
C633 H625 0.930 . S
C633 C631 1.419 . S
C633 C634 1.362 . S
C634 H626 0.930 . S
C634 C633 1.362 . S
C634 C637 1.409 . S
C635 H627 0.930 . S
C635 C636 1.355 . S
C635 C637 1.415 . S
C636 C635 1.355 . S
C636 C638 1.419 . S
C637 C632 1.425 . S
C637 C634 1.409 . S
C637 C635 1.415 . S
C638 H628 0.930 . S
C638 C636 1.419 . S
C638 C639 1.362 . S
C639 H629 0.930 . S
C639 C632 1.409 . S
C639 C638 1.362 . S
H640 C646 0.930 . S
H641 C649 0.930 . S
H642 C650 0.930 . S
H643 C651 0.930 . S
H644 C654 0.930 . S
H645 C655 0.930 . S
C646 H640 0.930 . S
C646 C647 1.355 . S
C646 C648 1.415 . S
C647 C646 1.355 . S
C647 C649 1.419 . S
C648 C646 1.415 . S
C648 C653 1.425 . S
C648 C655 1.409 . S
C649 H641 0.930 . S
C649 C647 1.419 . S
C649 C650 1.362 . S
C650 H642 0.930 . S
C650 C649 1.362 . S
C650 C653 1.409 . S
C651 H643 0.930 . S
C651 C652 1.355 . S
C651 C653 1.415 . S
C652 C651 1.355 . S
C652 C654 1.419 . S
C653 C648 1.425 . S
C653 C650 1.409 . S
C653 C651 1.415 . S
C654 H644 0.930 . S
C654 C652 1.419 . S
C654 C655 1.362 . S
C655 H645 0.930 . S
C655 C648 1.409 . S
C655 C654 1.362 . S
H656 C662 0.930 . S
H657 C665 0.930 . S
H658 C666 0.930 . S
H659 C667 0.930 . S
H660 C670 0.930 . S
H661 C671 0.930 . S
C662 H656 0.930 . S
C662 C663 1.355 . S
C662 C664 1.415 . S
C663 C662 1.355 . S
C663 C665 1.419 . S
C664 C662 1.415 . S
C664 C669 1.425 . S
C664 C671 1.409 . S
C665 H657 0.930 . S
C665 C663 1.419 . S
C665 C666 1.362 . S
C666 H658 0.930 . S
C666 C665 1.362 . S
C666 C669 1.409 . S
C667 H659 0.930 . S
C667 C668 1.355 . S
C667 C669 1.415 . S
C668 C667 1.355 . S
C668 C670 1.419 . S
C669 C664 1.425 . S
C669 C666 1.409 . S
C669 C667 1.415 . S
C670 H660 0.930 . S
C670 C668 1.419 . S
C670 C671 1.362 . S
C671 H661 0.930 . S
C671 C664 1.409 . S
C671 C670 1.362 . S
H672 C678 0.930 . S
H673 C681 0.930 . S
H674 C682 0.930 . S
H675 C683 0.930 . S
H676 C686 0.930 . S
H677 C687 0.930 . S
C678 H672 0.930 . S
C678 C679 1.355 . S
C678 C680 1.415 . S
C679 C678 1.355 . S
C679 C681 1.419 . S
C680 C678 1.415 . S
C680 C685 1.425 . S
C680 C687 1.409 . S
C681 H673 0.930 . S
C681 C679 1.419 . S
C681 C682 1.362 . S
C682 H674 0.930 . S
C682 C681 1.362 . S
C682 C685 1.409 . S
C683 H675 0.930 . S
C683 C684 1.355 . S
C683 C685 1.415 . S
C684 C683 1.355 . S
C684 C686 1.419 . S
C685 C680 1.425 . S
C685 C682 1.409 . S
C685 C683 1.415 . S
C686 H676 0.930 . S
C686 C684 1.419 . S
C686 C687 1.362 . S
C687 H677 0.930 . S
C687 C680 1.409 . S
C687 C686 1.362 . S
H688 C694 0.930 . S
H689 C697 0.930 . S
H690 C698 0.930 . S
H691 C699 0.930 . S
H692 C702 0.930 . S
H693 C703 0.930 . S
C694 H688 0.930 . S
C694 C695 1.355 . S
C694 C696 1.415 . S
C695 C694 1.355 . S
C695 C697 1.419 . S
C696 C694 1.415 . S
C696 C701 1.425 . S
C696 C703 1.409 . S
C697 H689 0.930 . S
C697 C695 1.419 . S
C697 C698 1.362 . S
C698 H690 0.930 . S
C698 C697 1.362 . S
C698 C701 1.409 . S
C699 H691 0.930 . S
C699 C700 1.355 . S
C699 C701 1.415 . S
C700 C699 1.355 . S
C700 C702 1.419 . S
C701 C696 1.425 . S
C701 C698 1.409 . S
C701 C699 1.415 . S
C702 H692 0.930 . S
C702 C700 1.419 . S
C702 C703 1.362 . S
C703 H693 0.930 . S
C703 C696 1.409 . S
C703 C702 1.362 . S
H704 C710 0.930 . S
H705 C713 0.930 . S
H706 C714 0.930 . S
H707 C715 0.930 . S
H708 C718 0.930 1_556 S
H709 C719 0.930 . S
C710 H704 0.930 . S
C710 C711 1.355 . S
C710 C712 1.415 . S
C711 C710 1.355 . S
C711 C713 1.419 . S
C712 C710 1.415 . S
C712 C717 1.425 . S
C712 C719 1.409 . S
C713 H705 0.930 . S
C713 C711 1.419 . S
C713 C714 1.362 . S
C714 H706 0.930 . S
C714 C713 1.362 . S
C714 C717 1.409 . S
C715 H707 0.930 . S
C715 C716 1.355 . S
C715 C717 1.415 . S
C716 C715 1.355 . S
C716 C718 1.419 . S
C717 C712 1.425 . S
C717 C714 1.409 . S
C717 C715 1.415 . S
C718 H708 0.930 1_554 S
C718 C716 1.419 . S
C718 C719 1.362 . S
C719 H709 0.930 . S
C719 C712 1.409 . S
C719 C718 1.362 . S
H720 C726 0.930 . S
H721 C729 0.930 . S
H722 C730 0.930 . S
H723 C731 0.930 . S
H724 C734 0.930 . S
H725 C735 0.930 . S
C726 H720 0.930 . S
C726 C727 1.355 . S
C726 C728 1.415 . S
C727 C726 1.355 . S
C727 C729 1.419 . S
C728 C726 1.415 . S
C728 C733 1.425 . S
C728 C735 1.409 . S
C729 H721 0.930 . S
C729 C727 1.419 . S
C729 C730 1.362 . S
C730 H722 0.930 . S
C730 C729 1.362 . S
C730 C733 1.409 . S
C731 H723 0.930 . S
C731 C732 1.355 . S
C731 C733 1.415 . S
C732 C731 1.355 . S
C732 C734 1.419 . S
C733 C728 1.425 . S
C733 C730 1.409 . S
C733 C731 1.415 . S
C734 H724 0.930 . S
C734 C732 1.419 . S
C734 C735 1.362 . S
C735 H725 0.930 . S
C735 C728 1.409 . S
C735 C734 1.362 . S
H736 C742 0.930 . S
H737 C745 0.930 . S
H738 C746 0.930 . S
H739 C747 0.930 . S
H740 C750 0.930 . S
H741 C751 0.930 . S
C742 H736 0.930 . S
C742 C743 1.355 . S
C742 C744 1.415 . S
C743 C742 1.355 . S
C743 C745 1.419 . S
C744 C742 1.415 . S
C744 C749 1.425 . S
C744 C751 1.409 . S
C745 H737 0.930 . S
C745 C743 1.419 . S
C745 C746 1.362 . S
C746 H738 0.930 . S
C746 C745 1.362 . S
C746 C749 1.409 . S
C747 H739 0.930 . S
C747 C748 1.355 . S
C747 C749 1.415 . S
C748 C747 1.355 . S
C748 C750 1.419 . S
C749 C744 1.425 . S
C749 C746 1.409 . S
C749 C747 1.415 . S
C750 H740 0.930 . S
C750 C748 1.419 . S
C750 C751 1.362 . S
C751 H741 0.930 . S
C751 C744 1.409 . S
C751 C750 1.362 . S
C375 C1 1.568 . S
C380 C290 1.558 . S
C391 C67 1.371 . S
C396 C309 1.353 . S
C412 C346 1.747 . S
C407 C97 1.760 . S
C423 C133 1.736 . S
C428 C356 1.659 . S
C444 C326 2.001 . S
C439 C25 1.984 . S
C460 C296 1.355 . S
C455 C37 1.437 . S
C476 C367 1.488 . S
C471 C103 1.541 . S
C492 C337 1.449 . S
C487 C109 1.452 . S
C503 C31 1.755 . S
C508 C350 1.756 . S
C524 C317 1.662 . S
C519 C73 1.733 . S
C535 C139 1.755 . S
C540 C307 1.761 . S
C551 C61 1.242 . S
C556 C329 1.233 . S
C572 C289 1.580 . S
C567 C175 1.505 . S
C583 C181 1.331 . S
C588 C310 1.290 . S
C599 C247 1.779 . S
C604 C347 1.771 . S
C615 C277 1.725 . S
C620 C357 1.634 . S
C631 C145 1.937 . S
C636 C327 1.993 . S
C652 C297 1.449 . S
C647 C211 1.486 . S
C668 C366 1.475 . S
C663 C217 1.514 . S
C684 C336 1.422 . S
C679 C283 1.471 . S
C695 C169 1.710 . S
C700 C349 1.755 . S
C716 C316 1.717 . S
C711 C241 1.749 . S
C732 C306 1.745 . S
C727 C253 1.737 . S
C743 C205 1.224 . S
C748 C330 1.268 . S
