# Generated by pormake.
# Topology anh, (6,3)-cn, num edge types: 1
# Building blocks:
#     Node 0, Type 0, BuildingBlock: BETFAJ_clean_sbu_0, # of connection points: 6
#     Node 1, Type 0, BuildingBlock: BETFAJ_clean_sbu_0, # of connection points: 6
#     Node 2, Type 0, BuildingBlock: BETFAJ_clean_sbu_0, # of connection points: 6
#     Node 3, Type 1, BuildingBlock: CUQRIR_clean_linker_1, # of connection points: 3
#     Node 4, Type 1, BuildingBlock: CUQRIR_clean_linker_1, # of connection points: 3
#     Node 5, Type 1, BuildingBlock: CUQRIR_clean_linker_1, # of connection points: 3
#     Node 6, Type 1, BuildingBlock: CUQRIR_clean_linker_1, # of connection points: 3
#     Node 7, Type 1, BuildingBlock: CUQRIR_clean_linker_1, # of connection points: 3
#     Node 8, Type 1, BuildingBlock: CUQRIR_clean_linker_1, # of connection points: 3
#     Edge 9, Type (0, 1), BuildingBlock: UVAHIK_clean_linker_0, # of connection points: 2
#     Edge 10, Type (0, 1), BuildingBlock: UVAHIK_clean_linker_0, # of connection points: 2
#     Edge 11, Type (0, 1), BuildingBlock: UVAHIK_clean_linker_0, # of connection points: 2
#     Edge 12, Type (0, 1), BuildingBlock: UVAHIK_clean_linker_0, # of connection points: 2
#     Edge 13, Type (0, 1), BuildingBlock: UVAHIK_clean_linker_0, # of connection points: 2
#     Edge 14, Type (0, 1), BuildingBlock: UVAHIK_clean_linker_0, # of connection points: 2
#     Edge 15, Type (0, 1), BuildingBlock: UVAHIK_clean_linker_0, # of connection points: 2
#     Edge 16, Type (0, 1), BuildingBlock: UVAHIK_clean_linker_0, # of connection points: 2
#     Edge 17, Type (0, 1), BuildingBlock: UVAHIK_clean_linker_0, # of connection points: 2
#     Edge 18, Type (0, 1), BuildingBlock: UVAHIK_clean_linker_0, # of connection points: 2
#     Edge 19, Type (0, 1), BuildingBlock: UVAHIK_clean_linker_0, # of connection points: 2
#     Edge 20, Type (0, 1), BuildingBlock: UVAHIK_clean_linker_0, # of connection points: 2
#     Edge 21, Type (0, 1), BuildingBlock: UVAHIK_clean_linker_0, # of connection points: 2
#     Edge 22, Type (0, 1), BuildingBlock: UVAHIK_clean_linker_0, # of connection points: 2
#     Edge 23, Type (0, 1), BuildingBlock: UVAHIK_clean_linker_0, # of connection points: 2
#     Edge 24, Type (0, 1), BuildingBlock: UVAHIK_clean_linker_0, # of connection points: 2
#     Edge 25, Type (0, 1), BuildingBlock: UVAHIK_clean_linker_0, # of connection points: 2
#     Edge 26, Type (0, 1), BuildingBlock: UVAHIK_clean_linker_0, # of connection points: 2
# Relax obj value: 0.168
# Max RMSD: 0.211
# Mean RMSD: 0.159
data_MOF--net-anh--node1-BETFAJ_clean_sbu_0--node2-CUQRIR_clean_linker_1--edge1-UVAHIK_clean_linker_0
_symmetry_space_group_name_H-M    P1
_symmetry_Int_Tables_number       1
_symmetry_cell_setting            triclinic
loop_
_symmetry_equiv_pos_as_xyz
'x, y, z'
_cell_length_a     39.266994
_cell_length_b     44.736927
_cell_length_c     61.508156
_cell_angle_alpha  88.238547
_cell_angle_beta   90.65692
_cell_angle_gamma 128.64361
loop_
_atom_site_label
_atom_site_type_symbol
_atom_site_fract_x
_atom_site_fract_y
_atom_site_fract_z
_atom_type_partial_charge
Sm0 Sm 0.07005 0.47462 0.15032 0.0
Sm1 Sm 1.02262 0.50318 0.1532 0.0
C2 C 0.12871 0.46475 0.14429 0.0
C3 C 0.16994 0.48134 0.15585 0.0
C4 C 0.21 0.51047 0.14575 0.0
C5 C 0.24886 0.52873 0.15727 0.0
C6 C 0.24839 0.51803 0.17906 0.0
C7 C 0.20839 0.4887 0.1891 0.0
C8 C 0.16957 0.47057 0.17764 0.0
C9 C 0.04746 0.47462 0.19262 0.0
C10 C 0.12506 0.5685 0.15577 0.0
C11 C 0.96288 0.51106 0.16154 0.0
C12 C 0.91513 0.4851 0.15863 0.0
C13 C 0.88724 0.46619 0.17677 0.0
C14 C 0.84212 0.43992 0.17409 0.0
C15 C 0.82398 0.43224 0.1532 0.0
C16 C 0.85197 0.45115 0.13507 0.0
C17 C 0.897 0.47723 0.13774 0.0
C18 C 0.04813 0.5057 0.11112 0.0
C19 C 0.9677 0.40975 0.14947 0.0
O20 O 0.12744 0.48869 0.13229 0.0
O21 O 0.0928 0.44046 0.15549 0.0
O22 O 0.06288 0.50167 0.17884 0.0
O23 O 0.044 0.44659 0.18444 0.0
O24 O 0.12565 0.54121 0.14858 0.0
O25 O 0.08787 0.5601 0.16187 0.0
O26 O 0.97755 0.5002 0.17634 0.0
O27 O 0.98702 0.52521 0.14389 0.0
O28 O 1.03135 0.47738 0.12426 0.0
O29 O 0.05156 0.5334 0.11993 0.0
O30 O 0.96845 0.43727 0.15731 0.0
O31 O 1.00378 0.41813 0.14141 0.0
H32 H 0.21123 0.51941 0.12901 0.0
H33 H 0.27935 0.55074 0.14898 0.0
H34 H 0.20708 0.47991 0.20588 0.0
H35 H 0.13927 0.44846 0.18603 0.0
H36 H 0.90036 0.47153 0.19305 0.0
H37 H 0.82144 0.42573 0.18838 0.0
H38 H 0.83906 0.44662 0.1188 0.0
H39 H 0.9175 0.49119 0.12338 0.0
Sm40 Sm 0.63833 0.03849 0.47964 0.0
Sm41 Sm 0.58486 0.06342 0.46858 0.0
C42 C 0.67067 0.00651 0.49777 0.0
C43 C 0.66054 0.96877 0.50148 0.0
C44 C 0.64186 0.94831 0.52131 0.0
C45 C 0.63541 0.9142 0.52561 0.0
C46 C 0.64783 0.8999 0.51025 0.0
C47 C 0.66588 0.92006 0.49028 0.0
C48 C 0.67226 0.95413 0.48596 0.0
C49 C 0.63384 0.04926 0.43572 0.0
C50 C 0.53195 0.97236 0.4712 0.0
C51 C 0.55201 0.09658 0.45322 0.0
C52 C 0.5596 0.13255 0.45707 0.0
C53 C 0.52895 0.13707 0.45008 0.0
C54 C 0.53433 0.17011 0.45497 0.0
C55 C 0.57052 0.19921 0.46695 0.0
C56 C 0.60168 0.19485 0.47352 0.0
C57 C 0.59617 0.16173 0.46869 0.0
C58 C 0.58954 0.05264 0.51252 0.0
C59 C 0.69232 0.12966 0.47353 0.0
O60 O 0.64735 0.01301 0.50846 0.0
O61 O 0.68011 0.02098 0.47791 0.0
O62 O 0.60238 0.0333 0.44901 0.0
O63 O 0.66867 0.05809 0.44517 0.0
O64 O 0.56699 0.98085 0.4812 0.0
O65 O 0.5328 0.99961 0.46156 0.0
O66 O 0.58359 0.09961 0.44356 0.0
O67 O 0.53478 0.07175 0.46953 0.0
O68 O 0.62121 0.06917 0.49931 0.0
O69 O 0.55461 0.04294 0.50287 0.0
O70 O 0.65566 0.12046 0.46537 0.0
O71 O 0.69339 0.10327 0.48287 0.0
H72 H 0.63304 0.95907 0.53375 0.0
H73 H 0.62196 0.89968 0.54127 0.0
H74 H 0.67533 0.9096 0.47799 0.0
H75 H 0.68705 0.96927 0.47058 0.0
H76 H 0.50049 0.11477 0.44113 0.0
H77 H 0.51002 0.17279 0.44946 0.0
H78 H 0.6296 0.21648 0.48299 0.0
H79 H 0.61998 0.15854 0.4744 0.0
Sm80 Sm 0.60422 0.6061 0.84008 0.0
Sm81 Sm 0.54252 0.51714 0.85068 0.0
C82 C 0.64118 0.6757 0.82327 0.0
C83 C 0.63189 0.70282 0.81854 0.0
C84 C 0.62119 0.70703 0.79737 0.0
C85 C 0.61561 0.73455 0.79249 0.0
C86 C 0.62097 0.75882 0.80861 0.0
C87 C 0.63116 0.75425 0.82983 0.0
C88 C 0.63663 0.72671 0.83473 0.0
C89 C 0.59808 0.58465 0.88282 0.0
C90 C 0.49344 0.55919 0.84828 0.0
C91 C 0.50548 0.44873 0.86859 0.0
C92 C 0.50574 0.41705 0.86239 0.0
C93 C 0.51653 0.40039 0.87778 0.0
C94 C 0.5202 0.37253 0.87167 0.0
C95 C 0.51298 0.36061 0.85002 0.0
C96 C 0.50168 0.37707 0.83472 0.0
C97 C 0.49827 0.40501 0.8408 0.0
C98 C 0.55629 0.53041 0.80609 0.0
C99 C 0.65355 0.56514 0.84456 0.0
O100 O 0.62174 0.64521 0.81145 0.0
O101 O 0.64467 0.66889 0.84368 0.0
O102 O 0.56667 0.56881 0.86972 0.0
O103 O 0.63394 0.61443 0.87386 0.0
O104 O 0.53333 0.59141 0.84243 0.0
O105 O 0.48907 0.52736 0.85323 0.0
O106 O 0.5428 0.47972 0.87525 0.0
O107 O 0.48453 0.45618 0.85572 0.0
O108 O 0.5716 0.55441 0.82072 0.0
O109 O 0.53085 0.49647 0.81506 0.0
O110 O 0.61467 0.53472 0.85264 0.0
O111 O 0.65674 0.59505 0.83626 0.0
H112 H 0.61793 0.68952 0.78444 0.0
H113 H 0.60831 0.73752 0.7759 0.0
H114 H 0.63499 0.77205 0.84273 0.0
H115 H 0.64519 0.72457 0.85118 0.0
H116 H 0.52275 0.40934 0.89449 0.0
H117 H 0.5286 0.36026 0.88391 0.0
H118 H 0.49655 0.36908 0.81785 0.0
H119 H 0.49054 0.41766 0.82844 0.0
C120 C 0.54843 0.98962 0.17523 0.0
N121 N 0.57461 0.01854 0.18926 0.0
N122 N 0.51297 0.95824 0.18579 0.0
C123 C 0.55584 0.99272 0.1511 0.0
C124 C 0.51868 0.96904 0.20668 0.0
N125 N 0.55557 0.00551 0.20877 0.0
C126 C 0.48962 0.94289 0.22536 0.0
H127 H 0.57165 0.0223 0.14488 0.0
H128 H 0.52468 0.9723 0.14249 0.0
H129 H 0.57778 0.98574 0.14759 0.0
H130 H 0.50874 0.9496 0.24042 0.0
H131 H 0.4723 0.91242 0.22164 0.0
H132 H 0.465 0.94699 0.22841 0.0
C133 C 0.61706 0.54729 0.54276 0.0
N134 N 0.61459 0.56599 0.55886 0.0
N135 N 0.60662 0.5138 0.55052 0.0
C136 C 0.62599 0.56 0.51918 0.0
C137 C 0.59767 0.5127 0.57182 0.0
N138 N 0.60208 0.54419 0.57686 0.0
C139 C 0.58708 0.48187 0.58793 0.0
H140 H 0.61154 0.53529 0.50847 0.0
H141 H 0.66177 0.58002 0.51635 0.0
H142 H 0.61279 0.57521 0.51476 0.0
H143 H 0.60073 0.46782 0.58251 0.0
H144 H 0.55114 0.45986 0.58937 0.0
H145 H 0.60013 0.49381 0.60422 0.0
C146 C 0.07375 0.56258 0.85175 0.0
N147 N 0.09558 0.55273 0.86444 0.0
N148 N 0.03689 0.55448 0.86208 0.0
C149 C 0.08899 0.5809 0.82954 0.0
C150 C 0.03766 0.53894 0.88129 0.0
N151 N 0.07197 0.53835 0.88279 0.0
C152 C 1.0041 0.52376 0.89919 0.0
H153 H 0.11691 0.61172 0.83114 0.0
H154 H 0.06269 0.57828 0.8205 0.0
H155 H 0.10051 0.56768 0.82038 0.0
H156 H 0.97223 0.51375 0.89263 0.0
H157 H 1.01584 0.54679 0.91083 0.0
H158 H 0.99888 0.49943 0.9083 0.0
C159 C 0.10986 0.55149 0.45304 0.0
N160 N 0.0802 0.52415 0.43903 0.0
N161 N 0.13916 0.58566 0.44229 0.0
C162 C 0.10882 0.54555 0.47724 0.0
C163 C 0.12637 0.57794 0.4213 0.0
N164 N 0.09064 0.541 0.41938 0.0
C165 C 0.15009 0.60609 0.40244 0.0
H166 H 0.07476 0.52426 0.48325 0.0
H167 H 0.12476 0.5729 0.48565 0.0
H168 H 0.12676 0.53442 0.48125 0.0
H169 H 0.14623 0.59137 0.38733 0.0
H170 H 0.18534 0.62773 0.4059 0.0
H171 H 0.13613 0.62109 0.39963 0.0
C172 C 0.58049 0.07441 0.77596 0.0
N173 N 0.58468 0.05602 0.76034 0.0
N174 N 0.57294 0.09784 0.76692 0.0
C175 C 0.58001 0.06712 0.80003 0.0
C176 C 0.57268 0.093 0.74526 0.0
N177 N 0.57943 0.06747 0.74128 0.0
C178 C 0.56852 0.11499 0.72791 0.0
H179 H 0.56018 0.07281 0.80885 0.0
H180 H 0.6139 0.08653 0.80612 0.0
H181 H 0.56681 0.03714 0.80357 0.0
H182 H 0.58013 0.14312 0.73381 0.0
H183 H 0.53371 0.09821 0.7234 0.0
H184 H 0.58738 0.11966 0.71311 0.0
C185 C 0.54552 0.48913 0.14573 0.0
N186 N 0.55006 0.4817 0.12526 0.0
N187 N 0.54624 0.5198 0.14564 0.0
C188 C 0.54438 0.46873 0.16597 0.0
C189 C 0.55135 0.53072 0.12436 0.0
N190 N 0.55439 0.50795 0.11206 0.0
C191 C 0.54963 0.56143 0.11536 0.0
H192 H 0.5106 0.44201 0.16879 0.0
H193 H 0.55476 0.4868 0.1804 0.0
H194 H 0.56593 0.46086 0.16408 0.0
H195 H 0.58275 0.58949 0.11591 0.0
H196 H 0.52724 0.56294 0.12518 0.0
H197 H 0.53863 0.55617 0.09823 0.0
C198 C 0.29645 0.51182 0.20209 0.0
C199 C 0.28983 0.53541 0.19069 0.0
C200 C 0.33767 0.52681 0.20977 0.0
C201 C 0.44851 0.60094 0.1913 0.0
H202 H 0.46614 0.54293 0.2311 0.0
C203 C 0.56373 0.57395 0.16656 0.0
C204 C 0.5377 0.53437 0.16347 0.0
C205 C 0.55006 0.58846 0.18076 0.0
C206 C 0.46241 0.56024 0.22026 0.0
H207 H 0.31969 0.59391 0.18056 0.0
H208 H 0.39199 0.62038 0.19421 0.0
H209 H 0.40617 0.54465 0.23752 0.0
H210 H 0.4796 0.47877 0.17413 0.0
H211 H 0.45588 0.50368 0.19912 0.0
H212 H 0.50262 0.61427 0.1732 0.0
C213 C 0.36555 0.59009 0.19676 0.0
C214 C 0.42791 0.56104 0.22382 0.0
C215 C 0.32426 0.57495 0.18887 0.0
C216 C 0.50028 0.50935 0.17639 0.0
C217 C 0.48691 0.52372 0.19078 0.0
C218 C 0.48325 0.60054 0.18792 0.0
C219 C 0.37326 0.56583 0.2063 0.0
C220 C 0.41831 0.5785 0.20826 0.0
C221 C 0.51045 0.56346 0.19226 0.0
C222 C 0.48814 0.57748 0.20131 0.0
H223 H 0.27057 0.48121 0.20368 0.0
H224 H 0.34214 0.50695 0.21671 0.0
H225 H 0.44257 0.61499 0.179 0.0
H226 H 0.5932 0.59363 0.15699 0.0
H227 H 0.56885 0.61918 0.18165 0.0
C228 C 0.73181 0.19854 0.46159 0.0
C229 C 0.73293 0.17044 0.47162 0.0
C230 C 0.76989 0.23654 0.45887 0.0
C231 C 0.88417 0.30721 0.47829 0.0
H232 H 0.89885 0.36128 0.42429 0.0
C233 C 0.04588 0.45937 0.45537 0.0
C234 C 0.04219 0.48496 0.44402 0.0
C235 C 1.00896 0.42099 0.45931 0.0
C236 C 0.89522 0.34694 0.43962 0.0
H237 H 0.77561 0.16099 0.48694 0.0
H238 H 0.84208 0.22724 0.48212 0.0
H239 H 0.83377 0.29528 0.43019 0.0
H240 H 0.99688 0.49082 0.42859 0.0
H241 H 0.93261 0.42439 0.43544 0.0
H242 H 0.94573 0.3591 0.48771 0.0
C243 C 0.81153 0.21988 0.47648 0.0
C244 C 0.85767 0.30885 0.44301 0.0
C245 C 0.77332 0.18173 0.47917 0.0
C246 C 1.00078 0.47154 0.43701 0.0
C247 C 0.96395 0.43334 0.44093 0.0
C248 C 0.92179 0.34545 0.47491 0.0
C249 C 0.81048 0.24783 0.46609 0.0
C250 C 0.85133 0.28839 0.46245 0.0
C251 C 0.96739 0.40726 0.45198 0.0
C252 C 0.9278 0.36605 0.45556 0.0
H253 H 0.70143 0.19122 0.45565 0.0
H254 H 0.76739 0.25719 0.45117 0.0
H255 H 0.88042 0.29268 0.49356 0.0
H256 H 0.0775 0.4689 0.46078 0.0
H257 H 1.01322 0.40189 0.46767 0.0
C258 C 0.64628 0.82594 0.81206 0.0
C259 C 0.61711 0.78941 0.80322 0.0
C260 C 0.64305 0.8548 0.80695 0.0
C261 C 0.59649 0.8835 0.76637 0.0
H262 H 0.61722 0.95195 0.81129 0.0
C263 C 0.56088 0.99101 0.7545 0.0
C264 C 0.59025 0.02717 0.76359 0.0
C265 C 0.56481 0.96231 0.75867 0.0
C266 C 0.61185 0.93342 0.79846 0.0
H267 H 0.56124 0.75469 0.7822 0.0
H268 H 0.55541 0.8049 0.77339 0.0
H269 H 0.62208 0.90126 0.82002 0.0
H270 H 0.64742 0.06219 0.78356 0.0
H271 H 0.65458 0.01224 0.79093 0.0
H272 H 0.58601 0.91563 0.74486 0.0
C273 C 0.58132 0.81146 0.78402 0.0
C274 C 0.61463 0.90426 0.80348 0.0
C275 C 0.58461 0.78258 0.7891 0.0
C276 C 0.6241 0.03436 0.7766 0.0
C277 C 0.62802 0.00569 0.78084 0.0
C278 C 0.59362 0.91265 0.76137 0.0
C279 C 0.61049 0.848 0.79287 0.0
C280 C 0.60709 0.8789 0.78751 0.0
C281 C 0.59818 0.96912 0.7721 0.0
C282 C 0.60136 0.93808 0.77733 0.0
H283 H 0.67223 0.83252 0.82267 0.0
H284 H 0.66662 0.88271 0.81379 0.0
H285 H 0.5911 0.86496 0.75355 0.0
H286 H 0.53416 0.98466 0.74465 0.0
H287 H 0.54093 0.93443 0.75186 0.0
C288 C 0.75628 0.38394 0.13222 0.0
C289 C 0.77608 0.40758 0.15026 0.0
C290 C 0.71319 0.36735 0.12692 0.0
C291 C 0.64928 0.37825 0.10937 0.0
H292 H 0.56648 0.36286 0.15137 0.0
C293 C 0.59473 0.46721 0.10895 0.0
C294 C 0.55599 0.45445 0.11923 0.0
C295 C 0.60469 0.4425 0.10688 0.0
C296 C 0.5882 0.36596 0.13915 0.0
H297 H 0.7649 0.42934 0.178 0.0
H298 H 0.69048 0.40082 0.16885 0.0
H299 H 0.61483 0.34853 0.16189 0.0
H300 H 0.49528 0.4055 0.1336 0.0
H301 H 0.5128 0.36189 0.1303 0.0
H302 H 0.62434 0.39777 0.08702 0.0
C303 C 0.70769 0.39456 0.15881 0.0
C304 C 0.61625 0.35807 0.14528 0.0
C305 C 0.75067 0.41117 0.16406 0.0
C306 C 0.52563 0.41583 0.12587 0.0
C307 C 0.53562 0.39101 0.12392 0.0
C308 C 0.62098 0.38583 0.10319 0.0
C309 C 0.68915 0.37406 0.13961 0.0
C310 C 0.64937 0.36711 0.13099 0.0
C311 C 0.5761 0.40457 0.11522 0.0
C312 C 0.59263 0.38268 0.11855 0.0
H313 H 0.77478 0.37987 0.12158 0.0
H314 H 0.69958 0.35121 0.11221 0.0
H315 H 0.67412 0.38526 0.09785 0.0
H316 H 0.61874 0.49701 0.10398 0.0
H317 H 0.63649 0.4542 0.10043 0.0
C318 C 0.49025 0.90137 0.47879 0.0
C319 C 0.49138 0.93162 0.47035 0.0
C320 C 0.45193 0.86318 0.47796 0.0
C321 C 0.33144 0.80415 0.47163 0.0
H322 H 0.33707 0.72403 0.45608 0.0
C323 C 0.17831 0.65492 0.44589 0.0
C324 C 0.17533 0.62243 0.45055 0.0
C325 C 0.21607 0.69162 0.45076 0.0
C326 C 0.33477 0.74582 0.46082 0.0
H327 H 0.45252 0.94489 0.4544 0.0
H328 H 0.38621 0.87874 0.45292 0.0
H329 H 0.40428 0.7895 0.45947 0.0
H330 H 0.20899 0.60268 0.46463 0.0
H331 H 0.27502 0.66684 0.47372 0.0
H332 H 0.26208 0.76071 0.47296 0.0
C333 C 0.41478 0.88445 0.46039 0.0
C334 C 0.37349 0.78355 0.46271 0.0
C335 C 0.45307 0.92253 0.46111 0.0
C336 C 0.21038 0.62727 0.46103 0.0
C337 C 0.24837 0.66411 0.46593 0.0
C338 C 0.29279 0.76647 0.46983 0.0
C339 C 0.41353 0.85413 0.4688 0.0
C340 C 0.3724 0.81342 0.46786 0.0
C341 C 0.25212 0.69697 0.46052 0.0
C342 C 0.29371 0.73672 0.4641 0.0
H343 H 0.519 0.90714 0.48607 0.0
H344 H 0.45226 0.84076 0.48478 0.0
H345 H 0.32915 0.82609 0.47607 0.0
H346 H 0.15174 0.65192 0.43778 0.0
H347 H 0.21753 0.71591 0.44604 0.0
C348 C 0.48857 0.30327 0.82853 0.0
C349 C 0.51797 0.33172 0.8432 0.0
C350 C 0.49411 0.27711 0.8214 0.0
C351 C 0.55108 0.23629 0.83402 0.0
H352 H 0.5263 0.20765 0.77366 0.0
C353 C 0.59551 0.14907 0.79237 0.0
C354 C 0.5653 0.12152 0.77758 0.0
C355 C 0.58946 0.17389 0.80143 0.0
C356 C 0.53291 0.21495 0.79063 0.0
H357 H 0.57636 0.35475 0.86187 0.0
H358 H 0.58625 0.30935 0.84933 0.0
H359 H 0.51659 0.25238 0.78728 0.0
H360 H 0.5043 0.09711 0.76138 0.0
H361 H 0.49351 0.14024 0.77707 0.0
H362 H 0.56786 0.19899 0.8372 0.0
C363 C 0.55842 0.30684 0.84358 0.0
C364 C 0.52727 0.24065 0.79849 0.0
C365 C 0.55276 0.33294 0.85079 0.0
C366 C 0.52836 0.11853 0.77249 0.0
C367 C 0.52234 0.14332 0.78143 0.0
C368 C 0.55688 0.21062 0.82612 0.0
C369 C 0.52936 0.27871 0.82864 0.0
C370 C 0.536 0.25156 0.82033 0.0
C371 C 0.55309 0.17172 0.7958 0.0
C372 C 0.5476 0.19943 0.80434 0.0
H373 H 0.46098 0.30102 0.82262 0.0
H374 H 0.47049 0.25542 0.81028 0.0
H375 H 0.55769 0.24361 0.85099 0.0
H376 H 0.62438 0.15204 0.79641 0.0
H377 H 0.61396 0.19555 0.8123 0.0
C378 C 0.67715 0.86357 0.50976 0.0
C379 C 0.64354 0.86494 0.51537 0.0
C380 C 0.67384 0.83122 0.51502 0.0
C381 C 0.61624 0.74557 0.55192 0.0
H382 H 0.65722 0.71028 0.51067 0.0
C383 C 0.58569 0.6012 0.56261 0.0
C384 C 0.61964 0.6007 0.55652 0.0
C385 C 0.58905 0.63391 0.55859 0.0
C386 C 0.64613 0.72004 0.52249 0.0
H387 H 0.57973 0.833 0.53063 0.0
H388 H 0.57382 0.77639 0.53972 0.0
H389 H 0.66121 0.76566 0.5012 0.0
H390 H 0.68423 0.63396 0.54234 0.0
H391 H 0.69047 0.69139 0.53528 0.0
H392 H 0.60093 0.69968 0.57315 0.0
C393 C 0.60309 0.80064 0.53155 0.0
C394 C 0.64838 0.7518 0.51706 0.0
C395 C 0.60643 0.83306 0.52631 0.0
C396 C 0.65751 0.63372 0.54692 0.0
C397 C 0.66091 0.6664 0.54284 0.0
C398 C 0.61391 0.71372 0.55735 0.0
C399 C 0.63681 0.79936 0.52601 0.0
C400 C 0.63362 0.76507 0.53172 0.0
C401 C 0.62644 0.66671 0.54833 0.0
C402 C 0.62898 0.70066 0.54273 0.0
H403 H 0.70654 0.88787 0.50169 0.0
H404 H 0.70077 0.83152 0.51083 0.0
H405 H 0.60513 0.75533 0.56373 0.0
H406 H 0.55598 0.57581 0.5698 0.0
H407 H 0.56175 0.63304 0.56284 0.0
C408 C 0.69678 0.54135 0.85993 0.0
C409 C 0.69437 0.56535 0.84527 0.0
C410 C 0.73372 0.54146 0.86096 0.0
C411 C 0.83658 0.56955 0.82948 0.0
H412 H 0.87244 0.55468 0.88489 0.0
C413 C 0.9758 0.54643 0.8386 0.0
C414 C 1.00434 0.56155 0.85682 0.0
C415 C 0.93995 0.54792 0.83618 0.0
C416 C 0.86354 0.55889 0.86903 0.0
H417 H 0.73307 0.60821 0.81971 0.0
H418 H 0.7952 0.60722 0.8208 0.0
H419 H 0.80998 0.55474 0.8829 0.0
H420 H 1.01432 0.59101 0.88641 0.0
H421 H 0.953 0.59214 0.88273 0.0
H422 H 0.88946 0.57249 0.81557 0.0
C423 C 0.76836 0.58834 0.83204 0.0
C424 C 0.82658 0.55874 0.86786 0.0
C425 C 0.7319 0.58905 0.83144 0.0
C426 C 0.99434 0.5786 0.87209 0.0
C427 C 0.95808 0.57911 0.86998 0.0
C428 C 0.87281 0.56855 0.83058 0.0
C429 C 0.77106 0.56474 0.84697 0.0
C430 C 0.81163 0.5644 0.84807 0.0
C431 C 0.92897 0.56358 0.85206 0.0
C432 C 0.88817 0.56354 0.85046 0.0
H433 H 0.66983 0.52231 0.87109 0.0
H434 H 0.73245 0.52234 0.87278 0.0
H435 H 0.82768 0.57385 0.81366 0.0
H436 H 0.98012 0.53214 0.82639 0.0
H437 H 0.91963 0.53532 0.82197 0.0
C438 C 0.207 0.61878 0.1512 0.0
C439 C 0.16642 0.60884 0.15706 0.0
C440 C 0.24559 0.65685 0.15228 0.0
C441 C 0.28543 0.75769 0.1548 0.0
H442 H 0.39267 0.77988 0.17514 0.0
C443 C 0.43355 0.90932 0.1809 0.0
C444 C 0.47602 0.92192 0.1774 0.0
C445 C 0.39706 0.87193 0.17609 0.0
C446 C 0.36325 0.77433 0.16909 0.0
H447 H 0.13521 0.63169 0.16884 0.0
H448 H 0.20194 0.69743 0.1709 0.0
H449 H 0.32724 0.71347 0.17179 0.0
H450 H 0.51366 0.90551 0.16562 0.0
H451 H 0.44986 0.84001 0.15676 0.0
H452 H 0.32118 0.81841 0.15227 0.0
C453 C 0.20411 0.67604 0.16512 0.0
C454 C 0.32552 0.73605 0.16719 0.0
C455 C 0.16565 0.63807 0.16409 0.0
C456 C 0.48125 0.89661 0.16825 0.0
C457 C 0.44464 0.85896 0.16348 0.0
C458 C 0.32307 0.79588 0.15669 0.0
C459 C 0.24476 0.68618 0.15917 0.0
C460 C 0.2858 0.72707 0.16027 0.0
C461 C 0.4019 0.84582 0.16765 0.0
C462 C 0.36253 0.80491 0.16412 0.0
H463 H 0.20902 0.59716 0.1457 0.0
H464 H 0.27602 0.66336 0.14737 0.0
H465 H 0.25594 0.75221 0.14893 0.0
H466 H 0.42869 0.92821 0.1881 0.0
H467 H 0.36502 0.86309 0.17983 0.0
C468 C 0.61534 0.27004 0.47254 0.0
C469 C 0.57472 0.23316 0.47338 0.0
C470 C 0.61929 0.30163 0.47939 0.0
C471 C 0.56583 0.32606 0.51505 0.0
H472 H 0.63398 0.42314 0.48278 0.0
C473 C 0.56291 0.44723 0.53905 0.0
C474 C 0.60267 0.48445 0.53883 0.0
C475 C 0.55972 0.41762 0.52959 0.0
C476 C 0.6152 0.39635 0.4921 0.0
H477 H 0.50646 0.20061 0.48212 0.0
H478 H 0.51327 0.25564 0.49383 0.0
H479 H 0.62847 0.36943 0.46924 0.0
H480 H 0.66993 0.52062 0.52818 0.0
H481 H 0.66488 0.46866 0.51173 0.0
H482 H 0.55294 0.35275 0.53806 0.0
C483 C 0.54211 0.26014 0.48797 0.0
C484 C 0.61203 0.36559 0.48433 0.0
C485 C 0.53812 0.22866 0.48103 0.0
C486 C 0.63896 0.49202 0.52837 0.0
C487 C 0.63592 0.46231 0.51896 0.0
C488 C 0.56914 0.35675 0.52285 0.0
C489 C 0.58278 0.29695 0.48739 0.0
C490 C 0.58703 0.33002 0.49566 0.0
C491 C 0.5964 0.42457 0.51982 0.0
C492 C 0.59357 0.39222 0.51141 0.0
H493 H 0.64409 0.27449 0.46657 0.0
H494 H 0.65112 0.32958 0.47888 0.0
H495 H 0.54705 0.29929 0.5244 0.0
H496 H 0.5345 0.44107 0.54689 0.0
H497 H 0.52853 0.38917 0.53011 0.0
C498 C 0.40957 0.52597 0.85546 0.0
C499 C 0.4526 0.559 0.84947 0.0
C500 C 0.37254 0.52575 0.85649 0.0
C501 C 0.33498 0.59015 0.84651 0.0
H502 H 0.22386 0.49922 0.86743 0.0
C503 C 0.17576 0.58634 0.85149 0.0
C504 C 0.13475 0.55403 0.86024 0.0
C505 C 0.21354 0.58748 0.84977 0.0
C506 C 0.25403 0.5255 0.86146 0.0
H507 H 0.48661 0.61841 0.83985 0.0
H508 H 0.42432 0.61832 0.84163 0.0
H509 H 0.28595 0.50014 0.86565 0.0
H510 H 0.10479 0.49706 0.87329 0.0
H511 H 0.16762 0.49884 0.87063 0.0
H512 H 0.3028 0.6155 0.84244 0.0
C513 C 0.41826 0.59167 0.84561 0.0
C514 C 0.29121 0.52598 0.86034 0.0
C515 C 0.45528 0.59184 0.84458 0.0
C516 C 0.13463 0.52307 0.86673 0.0
C517 C 0.17203 0.52416 0.86501 0.0
C518 C 0.29769 0.58967 0.84763 0.0
C519 C 0.37494 0.5586 0.85163 0.0
C520 C 0.33364 0.5583 0.85281 0.0
C521 C 0.21359 0.55645 0.85661 0.0
C522 C 0.25526 0.55729 0.85518 0.0
H523 H 0.4041 0.49952 0.85945 0.0
H524 H 0.34155 0.49893 0.86115 0.0
H525 H 0.36526 0.61629 0.84046 0.0
H526 H 0.17932 0.61152 0.84637 0.0
H527 H 0.24315 0.61348 0.84307 0.0
C528 C 0.92486 0.33836 0.14477 0.0
C529 C 0.92653 0.36916 0.15128 0.0
C530 C 0.88677 0.30023 0.14798 0.0
C531 C 0.78476 0.24072 0.18167 0.0
H532 H 0.74594 0.1633 0.1392 0.0
C533 C 0.61741 0.08892 0.1909 0.0
C534 C 0.61374 0.05727 0.18422 0.0
C535 C 0.65536 0.12648 0.18645 0.0
C536 C 0.75648 0.18433 0.15143 0.0
H537 H 0.88844 0.38348 0.16583 0.0
H538 H 0.82258 0.31762 0.17123 0.0
H539 H 0.81179 0.22893 0.13207 0.0
H540 H 0.64728 0.04026 0.16779 0.0
H541 H 0.71382 0.10568 0.16008 0.0
H542 H 0.72996 0.19633 0.20115 0.0
C543 C 0.85083 0.32271 0.16394 0.0
C544 C 0.79441 0.22217 0.14729 0.0
C545 C 0.88872 0.3607 0.16068 0.0
C546 C 0.64897 0.0641 0.17289 0.0
C547 C 0.6871 0.10171 0.16845 0.0
C548 C 0.74702 0.20293 0.18585 0.0
C549 C 0.84929 0.29177 0.15788 0.0
C550 C 0.80906 0.25107 0.16229 0.0
C551 C 0.69104 0.13362 0.17522 0.0
C552 C 0.732 0.17404 0.17077 0.0
H553 H 0.95324 0.34362 0.13755 0.0
H554 H 0.88713 0.27734 0.1432 0.0
H555 H 0.79525 0.26178 0.19387 0.0
H556 H 0.59057 0.08455 0.19941 0.0
H557 H 0.65639 0.14995 0.1916 0.0
C558 C 0.08061 0.54067 0.0755 0.0
C559 C 0.05756 0.50612 0.08777 0.0
C560 C 0.08855 0.54163 0.05328 0.0
C561 C 0.0449 0.48175 0.00539 0.0
H562 H 0.1556 0.56562 0.97893 0.0
C563 C 0.06511 0.49604 0.91215 0.0
C564 C 0.08601 0.53303 0.90329 0.0
C565 C 0.06833 0.49041 0.9344 0.0
C566 C 0.12435 0.54209 0.98597 0.0
H567 H 1.02525 0.44547 0.08642 0.0
H568 H 0.03853 0.44698 0.04732 0.0
H569 H 0.14727 0.56017 0.01844 0.0
H570 H 0.12809 0.5931 0.91024 0.0
H571 H 0.13382 0.58381 0.94901 0.0
H572 H 1.02118 0.46453 0.97306 0.0
C573 C 0.05052 0.47337 0.05499 0.0
C574 C 0.11964 0.53893 0.00867 0.0
C575 C 0.04305 0.47251 0.07737 0.0
C576 C 0.11255 0.56442 0.91671 0.0
C577 C 0.11556 0.55891 0.93897 0.0
C578 C 0.04945 0.48509 0.98268 0.0
C579 C 0.07327 0.50797 0.04266 0.0
C580 C 0.07963 0.5091 0.01866 0.0
C581 C 0.09211 0.52171 0.94833 0.0
C582 C 0.08904 0.51571 0.97258 0.0
H583 H 0.09231 0.56708 0.08305 0.0
H584 H 0.10568 0.56866 0.04427 0.0
H585 H 1.0135 0.45866 0.01251 0.0
H586 H 0.04383 0.47141 0.90213 0.0
H587 H 0.05055 0.46139 0.94083 0.0
C588 C 0.66309 0.06184 0.39772 0.0
C589 C 0.62969 0.05219 0.41198 0.0
C590 C 0.65829 0.06295 0.37519 0.0
C591 C 0.57232 0.02643 0.33347 0.0
H592 H 0.67058 0.09704 0.2948 0.0
C593 C 0.54642 0.02888 0.24206 0.0
C594 C 0.57244 0.02502 0.229 0.0
C595 C 0.55722 0.03909 0.26373 0.0
C596 C 0.64289 0.07714 0.30542 0.0
H597 H 0.56581 0.0376 0.41397 0.0
H598 H 0.55785 0.04067 0.37479 0.0
H599 H 0.68129 0.10116 0.33419 0.0
H600 H 0.6316 0.03141 0.22757 0.0
H601 H 0.65119 0.04988 0.26564 0.0
H602 H 0.53394 1.0025 0.30479 0.0
C603 C 0.58729 0.04627 0.38084 0.0
C604 C 0.64899 0.07933 0.328 0.0
C605 C 0.59191 0.04472 0.40334 0.0
C606 C 0.61136 0.03454 0.2374 0.0
C607 C 0.62237 0.04495 0.25915 0.0
C608 C 0.56619 0.02453 0.311 0.0
C609 C 0.62012 0.05483 0.3664 0.0
C610 C 0.61378 0.05382 0.34235 0.0
C611 C 0.59442 0.0458 0.27277 0.0
C612 C 0.60136 0.04971 0.29669 0.0
H613 H 0.6926 0.06773 0.40396 0.0
H614 H 0.68405 0.06916 0.36467 0.0
H615 H 0.54458 0.00566 0.34384 0.0
H616 H 0.51638 0.02181 0.23575 0.0
H617 H 0.53548 0.04021 0.27369 0.0
C618 C 0.53226 0.50866 0.76847 0.0
C619 C 0.56188 0.53828 0.7824 0.0
C620 C 0.53752 0.51442 0.74599 0.0
C621 C 0.59466 0.58819 0.7013 0.0
H622 H 0.56528 0.50127 0.66968 0.0
C623 C 0.63062 0.58494 0.60896 0.0
C624 C 0.59576 0.55278 0.59808 0.0
C625 C 0.62698 0.58866 0.6312 0.0
C626 C 0.57331 0.5257 0.67826 0.0
H627 H 0.62008 0.59737 0.78386 0.0
H628 H 0.63019 0.6074 0.74422 0.0
H629 H 0.56005 0.49713 0.70906 0.0
H630 H 0.52888 0.50134 0.60093 0.0
H631 H 0.52236 0.50749 0.63976 0.0
H632 H 0.60912 0.6169 0.67001 0.0
C633 C 0.60231 0.57986 0.75074 0.0
C634 C 0.57016 0.52333 0.70087 0.0
C635 C 0.59664 0.57417 0.77341 0.0
C636 C 0.55621 0.52607 0.60919 0.0
C637 C 0.55261 0.52959 0.63131 0.0
C638 C 0.59839 0.59072 0.67851 0.0
C639 C 0.5731 0.54978 0.73677 0.0
C640 C 0.57981 0.55415 0.71271 0.0
C641 C 0.58847 0.56009 0.64272 0.0
C642 C 0.58684 0.55914 0.66681 0.0
H643 H 0.50485 0.48082 0.77496 0.0
H644 H 0.51362 0.4909 0.73582 0.0
H645 H 0.60231 0.61245 0.70988 0.0
H646 H 0.6614 0.60573 0.60058 0.0
H647 H 0.65507 0.61242 0.63965 0.0
C648 C 0.63196 0.06375 0.54655 0.0
C649 C 0.59229 0.04902 0.53636 0.0
C650 C 0.6338 0.06098 0.56927 0.0
C651 C 0.56295 0.00923 0.61837 0.0
H652 H 0.65608 0.09918 0.64892 0.0
C653 C 0.54578 0.03809 0.70634 0.0
C654 C 0.58183 0.05595 0.72012 0.0
C655 C 0.54953 0.03208 0.68465 0.0
C656 C 0.63026 0.07354 0.64066 0.0
H657 H 0.52343 0.01933 0.54187 0.0
H658 H 0.52664 0.01492 0.58118 0.0
H659 H 0.65866 0.09898 0.60928 0.0
H660 H 0.64958 0.08051 0.72261 0.0
H661 H 0.65662 0.0702 0.68435 0.0
H662 H 0.53376 0.98436 0.64969 0.0
C663 C 0.5563 0.02814 0.57181 0.0
C664 C 0.63173 0.07342 0.61791 0.0
C665 C 0.55451 0.03097 0.54923 0.0
C666 C 0.62138 0.06643 0.71217 0.0
C667 C 0.62539 0.06082 0.69032 0.0
C668 C 0.5614 0.00942 0.64107 0.0
C669 C 0.59595 0.04323 0.58219 0.0
C670 C 0.59749 0.04163 0.60644 0.0
C671 C 0.58965 0.0442 0.67621 0.0
C672 C 0.59447 0.04192 0.65246 0.0
H673 H 0.66157 0.07769 0.537 0.0
H674 H 0.66482 0.07265 0.5767 0.0
H675 H 0.53652 0.98389 0.61013 0.0
H676 H 0.51511 0.03005 0.71225 0.0
H677 H 0.5215 0.01961 0.67422 0.0
C678 C 0.55484 0.53951 0.91433 0.0
C679 C 0.59417 0.57282 0.90585 0.0
C680 C 0.55109 0.52944 0.93644 0.0
C681 C 0.59597 0.57334 0.98869 0.0
H682 H 0.54675 0.4714 0.01071 0.0
C683 C 0.59842 0.54527 0.0797 0.0
C684 C 0.56112 0.51142 0.08894 0.0
C685 C 0.60352 0.55035 0.05717 0.0
C686 C 0.56011 0.4999 0.00483 0.0
H687 H 0.66065 0.62114 0.91356 0.0
H688 H 0.65389 0.60388 0.95216 0.0
H689 H 0.55258 0.48441 0.9714 0.0
H690 H 0.50054 0.45579 0.08247 0.0
H691 H 0.50842 0.46482 0.04276 0.0
H692 H 0.60245 0.58891 0.02177 0.0
C693 C 0.62599 0.58563 0.94178 0.0
C694 C 0.56352 0.50731 0.98234 0.0
C695 C 0.62987 0.59544 0.9197 0.0
C696 C 0.52954 0.48205 0.07545 0.0
C697 C 0.53427 0.48727 0.05282 0.0
C698 C 0.59213 0.56589 0.01107 0.0
C699 C 0.58646 0.5528 0.95041 0.0
C700 C 0.58184 0.54422 0.97411 0.0
C701 C 0.57097 0.52185 0.04341 0.0
C702 C 0.57455 0.5292 0.01946 0.0
H703 H 0.52686 0.52153 0.90394 0.0
H704 H 0.5202 0.50407 0.94273 0.0
H705 H 0.60946 0.60188 0.98277 0.0
H706 H 0.62327 0.56794 0.09002 0.0
H707 H 0.63276 0.57689 0.05055 0.0
C708 C 1.01915 0.44433 0.22956 0.0
C709 C 0.04298 0.47746 0.2161 0.0
C710 C 1.01653 0.44686 0.252 0.0
C711 C 0.03993 0.51505 0.29494 0.0
H712 H 0.03859 0.44331 0.33263 0.0
C713 C 0.04546 0.529 0.38771 0.0
C714 C 0.07136 0.52247 0.39917 0.0
C715 C 1.03396 0.51775 0.36617 0.0
C716 C 0.03934 0.46384 0.32241 0.0
H717 H 0.08248 0.53923 0.21538 0.0
H718 H 0.07984 0.54406 0.25457 0.0
H719 H 0.03656 0.43713 0.29354 0.0
H720 H 0.10527 0.49897 0.39776 0.0
H721 H 0.08693 0.48043 0.35989 0.0
H722 H 0.04599 0.54349 0.32366 0.0
C723 C 0.06183 0.51585 0.24791 0.0
C724 C 0.03741 0.4599 0.29985 0.0
C725 C 0.06368 0.5132 0.2254 0.0
C726 C 0.08447 0.50343 0.38917 0.0
C727 C 0.07382 0.49285 0.36748 0.0
C728 C 0.04268 0.51942 0.31745 0.0
C729 C 0.03844 0.48272 0.26159 0.0
C730 C 0.0381 0.48568 0.28574 0.0
C731 C 0.04932 0.50076 0.35546 0.0
C732 C 0.04284 0.4941 0.33155 0.0
H733 H 1.00251 0.41636 0.22273 0.0
H734 H 0.99731 0.4206 0.26178 0.0
H735 H 0.03964 0.53507 0.28476 0.0
H736 H 0.03556 0.5441 0.39523 0.0
H737 H 1.01414 0.52349 0.35776 0.0
loop_
_geom_bond_atom_site_label_1
_geom_bond_atom_site_label_2
_geom_bond_distance
_geom_bond_site_symmetry_2
_ccdc_geom_bond_type
Sm0 C2 2.846 . S
Sm0 O20 2.543 . S
Sm0 O21 2.450 . S
Sm0 O22 2.681 1_455 S
Sm0 O23 2.464 . S
Sm0 O24 2.396 . S
Sm0 O28 2.386 . S
Sm0 O31 2.408 1_455 S
Sm1 C11 2.846 . S
Sm1 O22 2.386 . S
Sm1 O25 2.408 1_655 S
Sm1 O26 2.543 . S
Sm1 O27 2.450 . S
Sm1 O28 2.681 1_655 S
Sm1 O29 2.464 . S
Sm1 O30 2.396 . S
C2 Sm0 2.846 . S
C2 C3 1.506 . S
C2 O20 1.261 . S
C2 O21 1.242 . S
C3 C2 1.506 . S
C3 C4 1.358 . S
C3 C8 1.382 . S
C4 C3 1.358 . S
C4 C5 1.385 . S
C4 H32 0.930 . S
C5 C4 1.385 . S
C5 C6 1.395 . S
C5 H33 0.929 . S
C6 C5 1.395 . S
C6 C7 1.335 . S
C7 C6 1.335 . S
C7 C8 1.398 . S
C7 H34 0.930 . S
C8 C3 1.382 . S
C8 C7 1.398 . S
C8 H35 0.929 . S
C9 O22 1.272 1_455 S
C9 O23 1.250 . S
C10 O24 1.252 . S
C10 O25 1.272 . S
C11 Sm1 2.846 . S
C11 C12 1.506 . S
C11 O26 1.261 . S
C11 O27 1.242 . S
C12 C11 1.506 . S
C12 C13 1.358 . S
C12 C17 1.382 . S
C13 C12 1.358 . S
C13 C14 1.385 . S
C13 H36 0.930 . S
C14 C13 1.385 . S
C14 C15 1.395 . S
C14 H37 0.929 . S
C15 C14 1.395 . S
C15 C16 1.335 . S
C16 C15 1.335 . S
C16 C17 1.398 . S
C16 H38 0.930 . S
C17 C12 1.382 . S
C17 C16 1.398 . S
C17 H39 0.929 . S
C18 O28 1.282 . S
C18 O29 1.231 1_455 S
C19 O30 1.252 . S
C19 O31 1.272 . S
O20 Sm0 2.543 . S
O20 C2 1.261 . S
O21 Sm0 2.450 . S
O21 C2 1.242 . S
O22 Sm0 2.681 1_655 S
O22 Sm1 2.386 . S
O22 C9 1.272 1_655 S
O23 Sm0 2.464 . S
O23 C9 1.250 . S
O24 Sm0 2.396 . S
O24 C10 1.252 . S
O25 Sm1 2.408 1_455 S
O25 C10 1.272 . S
O26 Sm1 2.543 . S
O26 C11 1.261 . S
O27 Sm1 2.450 . S
O27 C11 1.242 . S
O28 Sm0 2.386 . S
O28 Sm1 2.681 1_455 S
O28 C18 1.282 . S
O29 Sm1 2.464 . S
O29 C18 1.231 1_655 S
O30 Sm1 2.396 . S
O30 C19 1.252 . S
O31 Sm0 2.408 1_655 S
O31 C19 1.272 . S
H32 C4 0.930 . S
H33 C5 0.929 . S
H34 C7 0.930 . S
H35 C8 0.929 . S
H36 C13 0.930 . S
H37 C14 0.929 . S
H38 C16 0.930 . S
H39 C17 0.929 . S
Sm40 C42 2.846 1_545 S
Sm40 O60 2.543 1_545 S
Sm40 O61 2.450 1_545 S
Sm40 O62 2.681 . S
Sm40 O63 2.464 . S
Sm40 O64 2.396 1_545 S
Sm40 O68 2.386 . S
Sm40 O71 2.408 . S
Sm41 C51 2.846 . S
Sm41 O62 2.386 . S
Sm41 O65 2.408 1_545 S
Sm41 O66 2.543 . S
Sm41 O67 2.450 . S
Sm41 O68 2.681 . S
Sm41 O69 2.464 . S
Sm41 O70 2.396 . S
C42 Sm40 2.846 1_565 S
C42 C43 1.506 . S
C42 O60 1.261 . S
C42 O61 1.242 . S
C43 C42 1.506 . S
C43 C44 1.358 . S
C43 C48 1.382 . S
C44 C43 1.358 . S
C44 C45 1.385 . S
C44 H72 0.930 . S
C45 C44 1.385 . S
C45 C46 1.395 . S
C45 H73 0.929 . S
C46 C45 1.395 . S
C46 C47 1.335 . S
C47 C46 1.335 . S
C47 C48 1.398 . S
C47 H74 0.930 . S
C48 C43 1.382 . S
C48 C47 1.398 . S
C48 H75 0.929 . S
C49 O62 1.271 . S
C49 O63 1.251 . S
C50 O64 1.252 . S
C50 O65 1.272 . S
C51 Sm41 2.846 . S
C51 C52 1.506 . S
C51 O66 1.261 . S
C51 O67 1.242 . S
C52 C51 1.506 . S
C52 C53 1.358 . S
C52 C57 1.382 . S
C53 C52 1.358 . S
C53 C54 1.385 . S
C53 H76 0.930 . S
C54 C53 1.385 . S
C54 C55 1.395 . S
C54 H77 0.929 . S
C55 C54 1.395 . S
C55 C56 1.335 . S
C56 C55 1.335 . S
C56 C57 1.398 . S
C56 H78 0.930 . S
C57 C52 1.382 . S
C57 C56 1.398 . S
C57 H79 0.929 . S
C58 O68 1.271 . S
C58 O69 1.251 . S
C59 O70 1.252 . S
C59 O71 1.272 . S
O60 Sm40 2.543 1_565 S
O60 C42 1.261 . S
O61 Sm40 2.450 1_565 S
O61 C42 1.242 . S
O62 Sm40 2.681 . S
O62 Sm41 2.386 . S
O62 C49 1.271 . S
O63 Sm40 2.464 . S
O63 C49 1.251 . S
O64 Sm40 2.396 1_565 S
O64 C50 1.252 . S
O65 Sm41 2.408 1_565 S
O65 C50 1.272 . S
O66 Sm41 2.543 . S
O66 C51 1.261 . S
O67 Sm41 2.450 . S
O67 C51 1.242 . S
O68 Sm40 2.386 . S
O68 Sm41 2.681 . S
O68 C58 1.271 . S
O69 Sm41 2.464 . S
O69 C58 1.251 . S
O70 Sm41 2.396 . S
O70 C59 1.252 . S
O71 Sm40 2.408 . S
O71 C59 1.272 . S
H72 C44 0.930 . S
H73 C45 0.929 . S
H74 C47 0.930 . S
H75 C48 0.929 . S
H76 C53 0.930 . S
H77 C54 0.929 . S
H78 C56 0.930 . S
H79 C57 0.929 . S
Sm80 C82 2.846 . S
Sm80 O100 2.543 . S
Sm80 O101 2.450 . S
Sm80 O102 2.681 . S
Sm80 O103 2.464 . S
Sm80 O104 2.396 . S
Sm80 O108 2.386 . S
Sm80 O111 2.408 . S
Sm81 C91 2.846 . S
Sm81 O102 2.386 . S
Sm81 O105 2.408 . S
Sm81 O106 2.543 . S
Sm81 O107 2.450 . S
Sm81 O108 2.681 . S
Sm81 O109 2.464 . S
Sm81 O110 2.396 . S
C82 Sm80 2.846 . S
C82 C83 1.506 . S
C82 O100 1.261 . S
C82 O101 1.242 . S
C83 C82 1.506 . S
C83 C84 1.358 . S
C83 C88 1.382 . S
C84 C83 1.358 . S
C84 C85 1.385 . S
C84 H112 0.930 . S
C85 C84 1.385 . S
C85 C86 1.395 . S
C85 H113 0.929 . S
C86 C85 1.395 . S
C86 C87 1.335 . S
C87 C86 1.335 . S
C87 C88 1.398 . S
C87 H114 0.930 . S
C88 C83 1.382 . S
C88 C87 1.398 . S
C88 H115 0.929 . S
C89 O102 1.271 . S
C89 O103 1.251 . S
C90 O104 1.252 . S
C90 O105 1.272 . S
C91 Sm81 2.846 . S
C91 C92 1.506 . S
C91 O106 1.261 . S
C91 O107 1.242 . S
C92 C91 1.506 . S
C92 C93 1.358 . S
C92 C97 1.382 . S
C93 C92 1.358 . S
C93 C94 1.385 . S
C93 H116 0.930 . S
C94 C93 1.385 . S
C94 C95 1.395 . S
C94 H117 0.929 . S
C95 C94 1.395 . S
C95 C96 1.335 . S
C96 C95 1.335 . S
C96 C97 1.398 . S
C96 H118 0.930 . S
C97 C92 1.382 . S
C97 C96 1.398 . S
C97 H119 0.929 . S
C98 O108 1.271 . S
C98 O109 1.251 . S
C99 O110 1.252 . S
C99 O111 1.272 . S
O100 Sm80 2.543 . S
O100 C82 1.261 . S
O101 Sm80 2.450 . S
O101 C82 1.242 . S
O102 Sm80 2.681 . S
O102 Sm81 2.386 . S
O102 C89 1.271 . S
O103 Sm80 2.464 . S
O103 C89 1.251 . S
O104 Sm80 2.396 . S
O104 C90 1.252 . S
O105 Sm81 2.408 . S
O105 C90 1.272 . S
O106 Sm81 2.543 . S
O106 C91 1.261 . S
O107 Sm81 2.450 . S
O107 C91 1.242 . S
O108 Sm80 2.386 . S
O108 Sm81 2.681 . S
O108 C98 1.271 . S
O109 Sm81 2.464 . S
O109 C98 1.251 . S
O110 Sm81 2.396 . S
O110 C99 1.252 . S
O111 Sm80 2.408 . S
O111 C99 1.272 . S
H112 C84 0.930 . S
H113 C85 0.929 . S
H114 C87 0.930 . S
H115 C88 0.929 . S
H116 C93 0.930 . S
H117 C94 0.929 . S
H118 C96 0.930 . S
H119 C97 0.929 . S
C120 N121 1.317 1_565 S
C120 N122 1.348 . S
C120 C123 1.485 1_565 S
N121 C120 1.317 1_545 S
N121 N125 1.370 . S
N122 C120 1.348 . S
N122 C124 1.346 . S
C123 C120 1.485 1_545 S
C123 H127 0.960 . S
C123 H128 0.961 1_545 S
C123 H129 0.960 . S
C124 N122 1.346 . S
C124 N125 1.307 1_565 S
C124 C126 1.486 . S
N125 N121 1.370 . S
N125 C124 1.307 1_545 S
C126 C124 1.486 . S
C126 H130 0.960 . S
C126 H131 0.960 . S
C126 H132 0.959 . S
H127 C123 0.960 . S
H128 C123 0.961 1_565 S
H129 C123 0.960 . S
H130 C126 0.960 . S
H131 C126 0.960 . S
H132 C126 0.959 . S
C133 N134 1.317 . S
C133 N135 1.348 . S
C133 C136 1.485 . S
N134 C133 1.317 . S
N134 N138 1.370 . S
N135 C133 1.348 . S
N135 C137 1.346 . S
C136 C133 1.485 . S
C136 H140 0.960 . S
C136 H141 0.961 . S
C136 H142 0.960 . S
C137 N135 1.346 . S
C137 N138 1.307 . S
C137 C139 1.486 . S
N138 N134 1.370 . S
N138 C137 1.307 . S
C139 C137 1.486 . S
C139 H143 0.960 . S
C139 H144 0.960 . S
C139 H145 0.959 . S
H140 C136 0.960 . S
H141 C136 0.961 . S
H142 C136 0.960 . S
H143 C139 0.960 . S
H144 C139 0.960 . S
H145 C139 0.959 . S
C146 N147 1.317 . S
C146 N148 1.348 . S
C146 C149 1.485 . S
N147 C146 1.317 . S
N147 N151 1.370 . S
N148 C146 1.348 . S
N148 C150 1.346 . S
C149 C146 1.485 . S
C149 H153 0.960 . S
C149 H154 0.961 . S
C149 H155 0.960 . S
C150 N148 1.346 . S
C150 N151 1.307 . S
C150 C152 1.486 1_455 S
N151 N147 1.370 . S
N151 C150 1.307 . S
C152 C150 1.486 1_655 S
C152 H156 0.960 . S
C152 H157 0.960 . S
C152 H158 0.959 1_655 S
H153 C149 0.960 . S
H154 C149 0.961 . S
H155 C149 0.960 . S
H156 C152 0.960 . S
H157 C152 0.960 . S
H158 C152 0.959 1_455 S
C159 N160 1.317 . S
C159 N161 1.348 . S
C159 C162 1.485 . S
N160 C159 1.317 . S
N160 N164 1.370 . S
N161 C159 1.348 . S
N161 C163 1.346 . S
C162 C159 1.485 . S
C162 H166 0.960 . S
C162 H167 0.961 . S
C162 H168 0.960 . S
C163 N161 1.346 . S
C163 N164 1.307 . S
C163 C165 1.486 . S
N164 N160 1.370 . S
N164 C163 1.307 . S
C165 C163 1.486 . S
C165 H169 0.960 . S
C165 H170 0.960 . S
C165 H171 0.959 . S
H166 C162 0.960 . S
H167 C162 0.961 . S
H168 C162 0.960 . S
H169 C165 0.960 . S
H170 C165 0.960 . S
H171 C165 0.959 . S
C172 N173 1.317 . S
C172 N174 1.348 . S
C172 C175 1.485 . S
N173 C172 1.317 . S
N173 N177 1.370 . S
N174 C172 1.348 . S
N174 C176 1.346 . S
C175 C172 1.485 . S
C175 H179 0.960 . S
C175 H180 0.961 . S
C175 H181 0.960 . S
C176 N174 1.346 . S
C176 N177 1.307 . S
C176 C178 1.486 . S
N177 N173 1.370 . S
N177 C176 1.307 . S
C178 C176 1.486 . S
C178 H182 0.960 . S
C178 H183 0.960 . S
C178 H184 0.959 . S
H179 C175 0.960 . S
H180 C175 0.961 . S
H181 C175 0.960 . S
H182 C178 0.960 . S
H183 C178 0.960 . S
H184 C178 0.959 . S
C185 N186 1.317 . S
C185 N187 1.348 . S
C185 C188 1.485 . S
N186 C185 1.317 . S
N186 N190 1.370 . S
N187 C185 1.348 . S
N187 C189 1.346 . S
C188 C185 1.485 . S
C188 H192 0.960 . S
C188 H193 0.961 . S
C188 H194 0.960 . S
C189 N187 1.346 . S
C189 N190 1.307 . S
C189 C191 1.486 . S
N190 N186 1.370 . S
N190 C189 1.307 . S
C191 C189 1.486 . S
C191 H195 0.960 . S
C191 H196 0.960 . S
C191 H197 0.959 . S
H192 C188 0.960 . S
H193 C188 0.961 . S
H194 C188 0.960 . S
H195 C191 0.960 . S
H196 C191 0.960 . S
H197 C191 0.959 . S
C198 C199 1.349 . S
C198 C200 1.327 . S
C198 H223 0.950 . S
C199 C198 1.349 . S
C199 C215 1.349 . S
C200 C198 1.327 . S
C200 C219 1.429 . S
C200 H224 0.950 . S
C201 C218 1.574 . S
C201 C220 1.368 . S
C201 H225 0.949 . S
H202 C206 0.949 . S
C203 C204 1.349 . S
C203 C205 1.327 . S
C203 H226 0.950 . S
C204 C203 1.349 . S
C204 C216 1.349 . S
C205 C203 1.327 . S
C205 C221 1.429 . S
C205 H227 0.950 . S
C206 H202 0.949 . S
C206 C214 1.574 . S
C206 C222 1.368 . S
H207 C215 0.950 . S
H208 C213 0.950 . S
H209 C214 0.949 . S
H210 C216 0.950 . S
H211 C217 0.950 . S
H212 C218 0.949 . S
C213 H208 0.950 . S
C213 C215 1.327 . S
C213 C219 1.429 . S
C214 C206 1.574 . S
C214 H209 0.949 . S
C214 C220 1.368 . S
C215 C199 1.349 . S
C215 H207 0.950 . S
C215 C213 1.327 . S
C216 C204 1.349 . S
C216 H210 0.950 . S
C216 C217 1.327 . S
C217 H211 0.950 . S
C217 C216 1.327 . S
C217 C221 1.429 . S
C218 C201 1.574 . S
C218 H212 0.949 . S
C218 C222 1.368 . S
C219 C200 1.429 . S
C219 C213 1.429 . S
C219 C220 1.523 . S
C220 C201 1.368 . S
C220 C214 1.368 . S
C220 C219 1.523 . S
C221 C205 1.429 . S
C221 C217 1.429 . S
C221 C222 1.523 . S
C222 C206 1.368 . S
C222 C218 1.368 . S
C222 C221 1.523 . S
H223 C198 0.950 . S
H224 C200 0.950 . S
H225 C201 0.949 . S
H226 C203 0.950 . S
H227 C205 0.950 . S
C228 C229 1.349 . S
C228 C230 1.327 . S
C228 H253 0.950 . S
C229 C228 1.349 . S
C229 C245 1.349 . S
C230 C228 1.327 . S
C230 C249 1.429 . S
C230 H254 0.950 . S
C231 C248 1.574 . S
C231 C250 1.368 . S
C231 H255 0.949 . S
H232 C236 0.949 . S
C233 C234 1.349 . S
C233 C235 1.327 . S
C233 H256 0.950 . S
C234 C233 1.349 . S
C234 C246 1.349 . S
C235 C233 1.327 . S
C235 C251 1.429 . S
C235 H257 0.950 . S
C236 H232 0.949 . S
C236 C244 1.574 . S
C236 C252 1.368 . S
H237 C245 0.950 . S
H238 C243 0.950 . S
H239 C244 0.949 . S
H240 C246 0.950 . S
H241 C247 0.950 . S
H242 C248 0.949 . S
C243 H238 0.950 . S
C243 C245 1.327 . S
C243 C249 1.429 . S
C244 C236 1.574 . S
C244 H239 0.949 . S
C244 C250 1.368 . S
C245 C229 1.349 . S
C245 H237 0.950 . S
C245 C243 1.327 . S
C246 C234 1.349 . S
C246 H240 0.950 . S
C246 C247 1.327 . S
C247 H241 0.950 . S
C247 C246 1.327 . S
C247 C251 1.429 . S
C248 C231 1.574 . S
C248 H242 0.949 . S
C248 C252 1.368 . S
C249 C230 1.429 . S
C249 C243 1.429 . S
C249 C250 1.523 . S
C250 C231 1.368 . S
C250 C244 1.368 . S
C250 C249 1.523 . S
C251 C235 1.429 . S
C251 C247 1.429 . S
C251 C252 1.523 . S
C252 C236 1.368 . S
C252 C248 1.368 . S
C252 C251 1.523 . S
H253 C228 0.950 . S
H254 C230 0.950 . S
H255 C231 0.949 . S
H256 C233 0.950 . S
H257 C235 0.950 . S
C258 C259 1.349 . S
C258 C260 1.327 . S
C258 H283 0.950 . S
C259 C258 1.349 . S
C259 C275 1.349 . S
C260 C258 1.327 . S
C260 C279 1.429 . S
C260 H284 0.950 . S
C261 C278 1.574 . S
C261 C280 1.368 . S
C261 H285 0.949 . S
H262 C266 0.949 . S
C263 C264 1.349 1_565 S
C263 C265 1.327 . S
C263 H286 0.950 . S
C264 C263 1.349 1_545 S
C264 C276 1.349 . S
C265 C263 1.327 . S
C265 C281 1.429 . S
C265 H287 0.950 . S
C266 H262 0.949 . S
C266 C274 1.574 . S
C266 C282 1.368 . S
H267 C275 0.950 . S
H268 C273 0.950 . S
H269 C274 0.949 . S
H270 C276 0.950 . S
H271 C277 0.958 1_545 S
H272 C278 0.949 . S
C273 H268 0.950 . S
C273 C275 1.327 . S
C273 C279 1.429 . S
C274 C266 1.574 . S
C274 H269 0.949 . S
C274 C280 1.368 . S
C275 C259 1.349 . S
C275 H267 0.950 . S
C275 C273 1.327 . S
C276 C264 1.349 . S
C276 H270 0.950 . S
C276 C277 1.327 1_545 S
C277 H271 0.958 1_565 S
C277 C276 1.327 1_565 S
C277 C281 1.429 . S
C278 C261 1.574 . S
C278 H272 0.949 . S
C278 C282 1.368 . S
C279 C260 1.429 . S
C279 C273 1.429 . S
C279 C280 1.523 . S
C280 C261 1.368 . S
C280 C274 1.368 . S
C280 C279 1.523 . S
C281 C265 1.429 . S
C281 C277 1.429 . S
C281 C282 1.523 . S
C282 C266 1.368 . S
C282 C278 1.368 . S
C282 C281 1.523 . S
H283 C258 0.950 . S
H284 C260 0.950 . S
H285 C261 0.949 . S
H286 C263 0.950 . S
H287 C265 0.950 . S
C288 C289 1.349 . S
C288 C290 1.327 . S
C288 H313 0.950 . S
C289 C288 1.349 . S
C289 C305 1.349 . S
C290 C288 1.327 . S
C290 C309 1.429 . S
C290 H314 0.950 . S
C291 C308 1.574 . S
C291 C310 1.368 . S
C291 H315 0.949 . S
H292 C296 0.949 . S
C293 C294 1.349 . S
C293 C295 1.327 . S
C293 H316 0.950 . S
C294 C293 1.349 . S
C294 C306 1.349 . S
C295 C293 1.327 . S
C295 C311 1.429 . S
C295 H317 0.950 . S
C296 H292 0.949 . S
C296 C304 1.574 . S
C296 C312 1.368 . S
H297 C305 0.950 . S
H298 C303 0.950 . S
H299 C304 0.949 . S
H300 C306 0.950 . S
H301 C307 0.950 . S
H302 C308 0.949 . S
C303 H298 0.950 . S
C303 C305 1.327 . S
C303 C309 1.429 . S
C304 C296 1.574 . S
C304 H299 0.949 . S
C304 C310 1.368 . S
C305 C289 1.349 . S
C305 H297 0.950 . S
C305 C303 1.327 . S
C306 C294 1.349 . S
C306 H300 0.950 . S
C306 C307 1.327 . S
C307 H301 0.950 . S
C307 C306 1.327 . S
C307 C311 1.429 . S
C308 C291 1.574 . S
C308 H302 0.949 . S
C308 C312 1.368 . S
C309 C290 1.429 . S
C309 C303 1.429 . S
C309 C310 1.523 . S
C310 C291 1.368 . S
C310 C304 1.368 . S
C310 C309 1.523 . S
C311 C295 1.429 . S
C311 C307 1.429 . S
C311 C312 1.523 . S
C312 C296 1.368 . S
C312 C308 1.368 . S
C312 C311 1.523 . S
H313 C288 0.950 . S
H314 C290 0.950 . S
H315 C291 0.949 . S
H316 C293 0.950 . S
H317 C295 0.950 . S
C318 C319 1.349 . S
C318 C320 1.327 . S
C318 H343 0.950 . S
C319 C318 1.349 . S
C319 C335 1.349 . S
C320 C318 1.327 . S
C320 C339 1.429 . S
C320 H344 0.950 . S
C321 C338 1.574 . S
C321 C340 1.368 . S
C321 H345 0.949 . S
H322 C326 0.949 . S
C323 C324 1.349 . S
C323 C325 1.327 . S
C323 H346 0.950 . S
C324 C323 1.349 . S
C324 C336 1.349 . S
C325 C323 1.327 . S
C325 C341 1.429 . S
C325 H347 0.950 . S
C326 H322 0.949 . S
C326 C334 1.574 . S
C326 C342 1.368 . S
H327 C335 0.950 . S
H328 C333 0.950 . S
H329 C334 0.949 . S
H330 C336 0.950 . S
H331 C337 0.950 . S
H332 C338 0.949 . S
C333 H328 0.950 . S
C333 C335 1.327 . S
C333 C339 1.429 . S
C334 C326 1.574 . S
C334 H329 0.949 . S
C334 C340 1.368 . S
C335 C319 1.349 . S
C335 H327 0.950 . S
C335 C333 1.327 . S
C336 C324 1.349 . S
C336 H330 0.950 . S
C336 C337 1.327 . S
C337 H331 0.950 . S
C337 C336 1.327 . S
C337 C341 1.429 . S
C338 C321 1.574 . S
C338 H332 0.949 . S
C338 C342 1.368 . S
C339 C320 1.429 . S
C339 C333 1.429 . S
C339 C340 1.523 . S
C340 C321 1.368 . S
C340 C334 1.368 . S
C340 C339 1.523 . S
C341 C325 1.429 . S
C341 C337 1.429 . S
C341 C342 1.523 . S
C342 C326 1.368 . S
C342 C338 1.368 . S
C342 C341 1.523 . S
H343 C318 0.950 . S
H344 C320 0.950 . S
H345 C321 0.949 . S
H346 C323 0.950 . S
H347 C325 0.950 . S
C348 C349 1.349 . S
C348 C350 1.327 . S
C348 H373 0.950 . S
C349 C348 1.349 . S
C349 C365 1.349 . S
C350 C348 1.327 . S
C350 C369 1.429 . S
C350 H374 0.950 . S
C351 C368 1.574 . S
C351 C370 1.368 . S
C351 H375 0.949 . S
H352 C356 0.949 . S
C353 C354 1.349 . S
C353 C355 1.327 . S
C353 H376 0.950 . S
C354 C353 1.349 . S
C354 C366 1.349 . S
C355 C353 1.327 . S
C355 C371 1.429 . S
C355 H377 0.950 . S
C356 H352 0.949 . S
C356 C364 1.574 . S
C356 C372 1.368 . S
H357 C365 0.950 . S
H358 C363 0.950 . S
H359 C364 0.949 . S
H360 C366 0.950 . S
H361 C367 0.950 . S
H362 C368 0.949 . S
C363 H358 0.950 . S
C363 C365 1.327 . S
C363 C369 1.429 . S
C364 C356 1.574 . S
C364 H359 0.949 . S
C364 C370 1.368 . S
C365 C349 1.349 . S
C365 H357 0.950 . S
C365 C363 1.327 . S
C366 C354 1.349 . S
C366 H360 0.950 . S
C366 C367 1.327 . S
C367 H361 0.950 . S
C367 C366 1.327 . S
C367 C371 1.429 . S
C368 C351 1.574 . S
C368 H362 0.949 . S
C368 C372 1.368 . S
C369 C350 1.429 . S
C369 C363 1.429 . S
C369 C370 1.523 . S
C370 C351 1.368 . S
C370 C364 1.368 . S
C370 C369 1.523 . S
C371 C355 1.429 . S
C371 C367 1.429 . S
C371 C372 1.523 . S
C372 C356 1.368 . S
C372 C368 1.368 . S
C372 C371 1.523 . S
H373 C348 0.950 . S
H374 C350 0.950 . S
H375 C351 0.949 . S
H376 C353 0.950 . S
H377 C355 0.950 . S
C378 C379 1.349 . S
C378 C380 1.327 . S
C378 H403 0.950 . S
C379 C378 1.349 . S
C379 C395 1.349 . S
C380 C378 1.327 . S
C380 C399 1.429 . S
C380 H404 0.950 . S
C381 C398 1.574 . S
C381 C400 1.368 . S
C381 H405 0.949 . S
H382 C386 0.949 . S
C383 C384 1.349 . S
C383 C385 1.327 . S
C383 H406 0.950 . S
C384 C383 1.349 . S
C384 C396 1.349 . S
C385 C383 1.327 . S
C385 C401 1.429 . S
C385 H407 0.950 . S
C386 H382 0.949 . S
C386 C394 1.574 . S
C386 C402 1.368 . S
H387 C395 0.950 . S
H388 C393 0.950 . S
H389 C394 0.949 . S
H390 C396 0.950 . S
H391 C397 0.950 . S
H392 C398 0.949 . S
C393 H388 0.950 . S
C393 C395 1.327 . S
C393 C399 1.429 . S
C394 C386 1.574 . S
C394 H389 0.949 . S
C394 C400 1.368 . S
C395 C379 1.349 . S
C395 H387 0.950 . S
C395 C393 1.327 . S
C396 C384 1.349 . S
C396 H390 0.950 . S
C396 C397 1.327 . S
C397 H391 0.950 . S
C397 C396 1.327 . S
C397 C401 1.429 . S
C398 C381 1.574 . S
C398 H392 0.949 . S
C398 C402 1.368 . S
C399 C380 1.429 . S
C399 C393 1.429 . S
C399 C400 1.523 . S
C400 C381 1.368 . S
C400 C394 1.368 . S
C400 C399 1.523 . S
C401 C385 1.429 . S
C401 C397 1.429 . S
C401 C402 1.523 . S
C402 C386 1.368 . S
C402 C398 1.368 . S
C402 C401 1.523 . S
H403 C378 0.950 . S
H404 C380 0.950 . S
H405 C381 0.949 . S
H406 C383 0.950 . S
H407 C385 0.950 . S
C408 C409 1.349 . S
C408 C410 1.327 . S
C408 H433 0.950 . S
C409 C408 1.349 . S
C409 C425 1.349 . S
C410 C408 1.327 . S
C410 C429 1.429 . S
C410 H434 0.950 . S
C411 C428 1.574 . S
C411 C430 1.368 . S
C411 H435 0.949 . S
H412 C416 0.949 . S
C413 C414 1.349 . S
C413 C415 1.327 . S
C413 H436 0.950 . S
C414 C413 1.349 . S
C414 C426 1.349 . S
C415 C413 1.327 . S
C415 C431 1.429 . S
C415 H437 0.950 . S
C416 H412 0.949 . S
C416 C424 1.574 . S
C416 C432 1.368 . S
H417 C425 0.950 . S
H418 C423 0.950 . S
H419 C424 0.949 . S
H420 C426 0.950 . S
H421 C427 0.950 . S
H422 C428 0.949 . S
C423 H418 0.950 . S
C423 C425 1.327 . S
C423 C429 1.429 . S
C424 C416 1.574 . S
C424 H419 0.949 . S
C424 C430 1.368 . S
C425 C409 1.349 . S
C425 H417 0.950 . S
C425 C423 1.327 . S
C426 C414 1.349 . S
C426 H420 0.950 . S
C426 C427 1.327 . S
C427 H421 0.950 . S
C427 C426 1.327 . S
C427 C431 1.429 . S
C428 C411 1.574 . S
C428 H422 0.949 . S
C428 C432 1.368 . S
C429 C410 1.429 . S
C429 C423 1.429 . S
C429 C430 1.523 . S
C430 C411 1.368 . S
C430 C424 1.368 . S
C430 C429 1.523 . S
C431 C415 1.429 . S
C431 C427 1.429 . S
C431 C432 1.523 . S
C432 C416 1.368 . S
C432 C428 1.368 . S
C432 C431 1.523 . S
H433 C408 0.950 . S
H434 C410 0.950 . S
H435 C411 0.949 . S
H436 C413 0.950 . S
H437 C415 0.950 . S
C438 C439 1.349 . S
C438 C440 1.327 . S
C438 H463 0.950 . S
C439 C438 1.349 . S
C439 C455 1.349 . S
C440 C438 1.327 . S
C440 C459 1.429 . S
C440 H464 0.950 . S
C441 C458 1.574 . S
C441 C460 1.368 . S
C441 H465 0.949 . S
H442 C446 0.949 . S
C443 C444 1.349 . S
C443 C445 1.327 . S
C443 H466 0.950 . S
C444 C443 1.349 . S
C444 C456 1.349 . S
C445 C443 1.327 . S
C445 C461 1.429 . S
C445 H467 0.950 . S
C446 H442 0.949 . S
C446 C454 1.574 . S
C446 C462 1.368 . S
H447 C455 0.950 . S
H448 C453 0.950 . S
H449 C454 0.949 . S
H450 C456 0.950 . S
H451 C457 0.950 . S
H452 C458 0.949 . S
C453 H448 0.950 . S
C453 C455 1.327 . S
C453 C459 1.429 . S
C454 C446 1.574 . S
C454 H449 0.949 . S
C454 C460 1.368 . S
C455 C439 1.349 . S
C455 H447 0.950 . S
C455 C453 1.327 . S
C456 C444 1.349 . S
C456 H450 0.950 . S
C456 C457 1.327 . S
C457 H451 0.950 . S
C457 C456 1.327 . S
C457 C461 1.429 . S
C458 C441 1.574 . S
C458 H452 0.949 . S
C458 C462 1.368 . S
C459 C440 1.429 . S
C459 C453 1.429 . S
C459 C460 1.523 . S
C460 C441 1.368 . S
C460 C454 1.368 . S
C460 C459 1.523 . S
C461 C445 1.429 . S
C461 C457 1.429 . S
C461 C462 1.523 . S
C462 C446 1.368 . S
C462 C458 1.368 . S
C462 C461 1.523 . S
H463 C438 0.950 . S
H464 C440 0.950 . S
H465 C441 0.949 . S
H466 C443 0.950 . S
H467 C445 0.950 . S
C468 C469 1.349 . S
C468 C470 1.327 . S
C468 H493 0.950 . S
C469 C468 1.349 . S
C469 C485 1.349 . S
C470 C468 1.327 . S
C470 C489 1.429 . S
C470 H494 0.950 . S
C471 C488 1.574 . S
C471 C490 1.368 . S
C471 H495 0.949 . S
H472 C476 0.949 . S
C473 C474 1.349 . S
C473 C475 1.327 . S
C473 H496 0.950 . S
C474 C473 1.349 . S
C474 C486 1.349 . S
C475 C473 1.327 . S
C475 C491 1.429 . S
C475 H497 0.950 . S
C476 H472 0.949 . S
C476 C484 1.574 . S
C476 C492 1.368 . S
H477 C485 0.950 . S
H478 C483 0.950 . S
H479 C484 0.949 . S
H480 C486 0.950 . S
H481 C487 0.950 . S
H482 C488 0.949 . S
C483 H478 0.950 . S
C483 C485 1.327 . S
C483 C489 1.429 . S
C484 C476 1.574 . S
C484 H479 0.949 . S
C484 C490 1.368 . S
C485 C469 1.349 . S
C485 H477 0.950 . S
C485 C483 1.327 . S
C486 C474 1.349 . S
C486 H480 0.950 . S
C486 C487 1.327 . S
C487 H481 0.950 . S
C487 C486 1.327 . S
C487 C491 1.429 . S
C488 C471 1.574 . S
C488 H482 0.949 . S
C488 C492 1.368 . S
C489 C470 1.429 . S
C489 C483 1.429 . S
C489 C490 1.523 . S
C490 C471 1.368 . S
C490 C484 1.368 . S
C490 C489 1.523 . S
C491 C475 1.429 . S
C491 C487 1.429 . S
C491 C492 1.523 . S
C492 C476 1.368 . S
C492 C488 1.368 . S
C492 C491 1.523 . S
H493 C468 0.950 . S
H494 C470 0.950 . S
H495 C471 0.949 . S
H496 C473 0.950 . S
H497 C475 0.950 . S
C498 C499 1.349 . S
C498 C500 1.327 . S
C498 H523 0.950 . S
C499 C498 1.349 . S
C499 C515 1.349 . S
C500 C498 1.327 . S
C500 C519 1.429 . S
C500 H524 0.950 . S
C501 C518 1.574 . S
C501 C520 1.368 . S
C501 H525 0.949 . S
H502 C506 0.949 . S
C503 C504 1.349 . S
C503 C505 1.327 . S
C503 H526 0.950 . S
C504 C503 1.349 . S
C504 C516 1.349 . S
C505 C503 1.327 . S
C505 C521 1.429 . S
C505 H527 0.950 . S
C506 H502 0.949 . S
C506 C514 1.574 . S
C506 C522 1.368 . S
H507 C515 0.950 . S
H508 C513 0.950 . S
H509 C514 0.949 . S
H510 C516 0.950 . S
H511 C517 0.950 . S
H512 C518 0.949 . S
C513 H508 0.950 . S
C513 C515 1.327 . S
C513 C519 1.429 . S
C514 C506 1.574 . S
C514 H509 0.949 . S
C514 C520 1.368 . S
C515 C499 1.349 . S
C515 H507 0.950 . S
C515 C513 1.327 . S
C516 C504 1.349 . S
C516 H510 0.950 . S
C516 C517 1.327 . S
C517 H511 0.950 . S
C517 C516 1.327 . S
C517 C521 1.429 . S
C518 C501 1.574 . S
C518 H512 0.949 . S
C518 C522 1.368 . S
C519 C500 1.429 . S
C519 C513 1.429 . S
C519 C520 1.523 . S
C520 C501 1.368 . S
C520 C514 1.368 . S
C520 C519 1.523 . S
C521 C505 1.429 . S
C521 C517 1.429 . S
C521 C522 1.523 . S
C522 C506 1.368 . S
C522 C518 1.368 . S
C522 C521 1.523 . S
H523 C498 0.950 . S
H524 C500 0.950 . S
H525 C501 0.949 . S
H526 C503 0.950 . S
H527 C505 0.950 . S
C528 C529 1.349 . S
C528 C530 1.327 . S
C528 H553 0.950 . S
C529 C528 1.349 . S
C529 C545 1.349 . S
C530 C528 1.327 . S
C530 C549 1.429 . S
C530 H554 0.950 . S
C531 C548 1.574 . S
C531 C550 1.368 . S
C531 H555 0.949 . S
H532 C536 0.949 . S
C533 C534 1.349 . S
C533 C535 1.327 . S
C533 H556 0.950 . S
C534 C533 1.349 . S
C534 C546 1.349 . S
C535 C533 1.327 . S
C535 C551 1.429 . S
C535 H557 0.950 . S
C536 H532 0.949 . S
C536 C544 1.574 . S
C536 C552 1.368 . S
H537 C545 0.950 . S
H538 C543 0.950 . S
H539 C544 0.949 . S
H540 C546 0.950 . S
H541 C547 0.950 . S
H542 C548 0.949 . S
C543 H538 0.950 . S
C543 C545 1.327 . S
C543 C549 1.429 . S
C544 C536 1.574 . S
C544 H539 0.949 . S
C544 C550 1.368 . S
C545 C529 1.349 . S
C545 H537 0.950 . S
C545 C543 1.327 . S
C546 C534 1.349 . S
C546 H540 0.950 . S
C546 C547 1.327 . S
C547 H541 0.950 . S
C547 C546 1.327 . S
C547 C551 1.429 . S
C548 C531 1.574 . S
C548 H542 0.949 . S
C548 C552 1.368 . S
C549 C530 1.429 . S
C549 C543 1.429 . S
C549 C550 1.523 . S
C550 C531 1.368 . S
C550 C544 1.368 . S
C550 C549 1.523 . S
C551 C535 1.429 . S
C551 C547 1.429 . S
C551 C552 1.523 . S
C552 C536 1.368 . S
C552 C548 1.368 . S
C552 C551 1.523 . S
H553 C528 0.950 . S
H554 C530 0.950 . S
H555 C531 0.949 . S
H556 C533 0.950 . S
H557 C535 0.950 . S
C558 C559 1.349 . S
C558 C560 1.327 . S
C558 H583 0.950 . S
C559 C558 1.349 . S
C559 C575 1.349 1_455 S
C560 C558 1.327 . S
C560 C579 1.429 . S
C560 H584 0.950 . S
C561 C578 1.574 1_554 S
C561 C580 1.368 1_655 S
C561 H585 0.949 . S
H562 C566 0.949 . S
C563 C564 1.349 . S
C563 C565 1.327 . S
C563 H586 0.950 1_455 S
C564 C563 1.349 . S
C564 C576 1.349 . S
C565 C563 1.327 . S
C565 C581 1.429 . S
C565 H587 0.950 1_455 S
C566 H562 0.949 . S
C566 C574 1.574 1_556 S
C566 C582 1.368 . S
H567 C575 0.950 . S
H568 C573 0.950 . S
H569 C574 0.949 . S
H570 C576 0.950 . S
H571 C577 0.950 . S
H572 C578 0.949 . S
C573 H568 0.950 . S
C573 C575 1.327 . S
C573 C579 1.429 1_655 S
C574 C566 1.574 1_554 S
C574 H569 0.949 . S
C574 C580 1.368 . S
C575 C559 1.349 1_655 S
C575 H567 0.950 . S
C575 C573 1.327 . S
C576 C564 1.349 . S
C576 H570 0.950 . S
C576 C577 1.327 . S
C577 H571 0.950 . S
C577 C576 1.327 . S
C577 C581 1.429 . S
C578 C561 1.574 1_556 S
C578 H572 0.949 . S
C578 C582 1.368 1_655 S
C579 C560 1.429 . S
C579 C573 1.429 1_455 S
C579 C580 1.523 . S
C580 C561 1.368 1_455 S
C580 C574 1.368 . S
C580 C579 1.523 . S
C581 C565 1.429 . S
C581 C577 1.429 . S
C581 C582 1.523 . S
C582 C566 1.368 . S
C582 C578 1.368 1_455 S
C582 C581 1.523 . S
H583 C558 0.950 . S
H584 C560 0.950 . S
H585 C561 0.949 . S
H586 C563 0.950 1_655 S
H587 C565 0.950 1_655 S
C588 C589 1.349 . S
C588 C590 1.327 . S
C588 H613 0.950 . S
C589 C588 1.349 . S
C589 C605 1.349 . S
C590 C588 1.327 . S
C590 C609 1.429 . S
C590 H614 0.950 . S
C591 C608 1.574 . S
C591 C610 1.368 1_565 S
C591 H615 0.949 . S
H592 C596 0.949 . S
C593 C594 1.349 1_565 S
C593 C595 1.327 . S
C593 H616 0.950 . S
C594 C593 1.349 1_545 S
C594 C606 1.349 . S
C595 C593 1.327 . S
C595 C611 1.429 1_565 S
C595 H617 0.950 . S
C596 H592 0.949 . S
C596 C604 1.574 . S
C596 C612 1.368 . S
H597 C605 0.950 1_565 S
H598 C603 0.950 1_565 S
H599 C604 0.949 . S
H600 C606 0.950 . S
H601 C607 0.950 . S
H602 C608 0.949 . S
C603 H598 0.950 1_545 S
C603 C605 1.327 . S
C603 C609 1.429 . S
C604 C596 1.574 . S
C604 H599 0.949 . S
C604 C610 1.368 . S
C605 C589 1.349 . S
C605 H597 0.950 1_545 S
C605 C603 1.327 . S
C606 C594 1.349 . S
C606 H600 0.950 . S
C606 C607 1.327 . S
C607 H601 0.950 . S
C607 C606 1.327 . S
C607 C611 1.429 . S
C608 C591 1.574 . S
C608 H602 0.949 . S
C608 C612 1.368 1_565 S
C609 C590 1.429 . S
C609 C603 1.429 . S
C609 C610 1.523 . S
C610 C591 1.368 1_545 S
C610 C604 1.368 . S
C610 C609 1.523 . S
C611 C595 1.429 1_545 S
C611 C607 1.429 . S
C611 C612 1.523 . S
C612 C596 1.368 . S
C612 C608 1.368 1_545 S
C612 C611 1.523 . S
H613 C588 0.950 . S
H614 C590 0.950 . S
H615 C591 0.949 . S
H616 C593 0.950 . S
H617 C595 0.950 . S
C618 C619 1.349 . S
C618 C620 1.327 . S
C618 H643 0.950 . S
C619 C618 1.349 . S
C619 C635 1.349 . S
C620 C618 1.327 . S
C620 C639 1.429 . S
C620 H644 0.950 . S
C621 C638 1.574 . S
C621 C640 1.368 . S
C621 H645 0.949 . S
H622 C626 0.949 . S
C623 C624 1.349 . S
C623 C625 1.327 . S
C623 H646 0.950 . S
C624 C623 1.349 . S
C624 C636 1.349 . S
C625 C623 1.327 . S
C625 C641 1.429 . S
C625 H647 0.950 . S
C626 H622 0.949 . S
C626 C634 1.574 . S
C626 C642 1.368 . S
H627 C635 0.950 . S
H628 C633 0.950 . S
H629 C634 0.949 . S
H630 C636 0.950 . S
H631 C637 0.950 . S
H632 C638 0.949 . S
C633 H628 0.950 . S
C633 C635 1.327 . S
C633 C639 1.429 . S
C634 C626 1.574 . S
C634 H629 0.949 . S
C634 C640 1.368 . S
C635 C619 1.349 . S
C635 H627 0.950 . S
C635 C633 1.327 . S
C636 C624 1.349 . S
C636 H630 0.950 . S
C636 C637 1.327 . S
C637 H631 0.950 . S
C637 C636 1.327 . S
C637 C641 1.429 . S
C638 C621 1.574 . S
C638 H632 0.949 . S
C638 C642 1.368 . S
C639 C620 1.429 . S
C639 C633 1.429 . S
C639 C640 1.523 . S
C640 C621 1.368 . S
C640 C634 1.368 . S
C640 C639 1.523 . S
C641 C625 1.429 . S
C641 C637 1.429 . S
C641 C642 1.523 . S
C642 C626 1.368 . S
C642 C638 1.368 . S
C642 C641 1.523 . S
H643 C618 0.950 . S
H644 C620 0.950 . S
H645 C621 0.949 . S
H646 C623 0.950 . S
H647 C625 0.950 . S
C648 C649 1.349 . S
C648 C650 1.327 . S
C648 H673 0.950 . S
C649 C648 1.349 . S
C649 C665 1.349 . S
C650 C648 1.327 . S
C650 C669 1.429 . S
C650 H674 0.950 . S
C651 C668 1.574 . S
C651 C670 1.368 . S
C651 H675 0.949 1_545 S
H652 C656 0.949 . S
C653 C654 1.349 . S
C653 C655 1.327 . S
C653 H676 0.950 1_545 S
C654 C653 1.349 . S
C654 C666 1.349 . S
C655 C653 1.327 . S
C655 C671 1.429 . S
C655 H677 0.950 1_545 S
C656 H652 0.949 . S
C656 C664 1.574 . S
C656 C672 1.368 . S
H657 C665 0.950 1_565 S
H658 C663 0.950 1_565 S
H659 C664 0.949 . S
H660 C666 0.950 . S
H661 C667 0.950 . S
H662 C668 0.949 1_565 S
C663 H658 0.950 1_545 S
C663 C665 1.327 . S
C663 C669 1.429 . S
C664 C656 1.574 . S
C664 H659 0.949 . S
C664 C670 1.368 . S
C665 C649 1.349 . S
C665 H657 0.950 1_545 S
C665 C663 1.327 . S
C666 C654 1.349 . S
C666 H660 0.950 . S
C666 C667 1.327 . S
C667 H661 0.950 . S
C667 C666 1.327 . S
C667 C671 1.429 . S
C668 C651 1.574 . S
C668 H662 0.949 1_545 S
C668 C672 1.368 . S
C669 C650 1.429 . S
C669 C663 1.429 . S
C669 C670 1.523 . S
C670 C651 1.368 . S
C670 C664 1.368 . S
C670 C669 1.523 . S
C671 C655 1.429 . S
C671 C667 1.429 . S
C671 C672 1.523 . S
C672 C656 1.368 . S
C672 C668 1.368 . S
C672 C671 1.523 . S
H673 C648 0.950 . S
H674 C650 0.950 . S
H675 C651 0.949 1_565 S
H676 C653 0.950 1_565 S
H677 C655 0.950 1_565 S
C678 C679 1.349 . S
C678 C680 1.327 . S
C678 H703 0.950 . S
C679 C678 1.349 . S
C679 C695 1.349 . S
C680 C678 1.327 . S
C680 C699 1.429 . S
C680 H704 0.950 . S
C681 C698 1.574 1_556 S
C681 C700 1.368 . S
C681 H705 0.949 . S
H682 C686 0.949 1_554 S
C683 C684 1.349 . S
C683 C685 1.327 . S
C683 H706 0.950 . S
C684 C683 1.349 . S
C684 C696 1.349 . S
C685 C683 1.327 . S
C685 C701 1.429 . S
C685 H707 0.950 . S
C686 H682 0.949 1_556 S
C686 C694 1.574 . S
C686 C702 1.368 1_556 S
H687 C695 0.950 . S
H688 C693 0.950 . S
H689 C694 0.949 . S
H690 C696 0.950 . S
H691 C697 0.950 . S
H692 C698 0.949 . S
C693 H688 0.950 . S
C693 C695 1.327 . S
C693 C699 1.429 . S
C694 C686 1.574 . S
C694 H689 0.949 . S
C694 C700 1.368 . S
C695 C679 1.349 . S
C695 H687 0.950 . S
C695 C693 1.327 . S
C696 C684 1.349 . S
C696 H690 0.950 . S
C696 C697 1.327 . S
C697 H691 0.950 . S
C697 C696 1.327 . S
C697 C701 1.429 . S
C698 C681 1.574 1_554 S
C698 H692 0.949 . S
C698 C702 1.368 . S
C699 C680 1.429 . S
C699 C693 1.429 . S
C699 C700 1.523 . S
C700 C681 1.368 . S
C700 C694 1.368 . S
C700 C699 1.523 . S
C701 C685 1.429 . S
C701 C697 1.429 . S
C701 C702 1.523 . S
C702 C686 1.368 1_554 S
C702 C698 1.368 . S
C702 C701 1.523 . S
H703 C678 0.950 . S
H704 C680 0.950 . S
H705 C681 0.949 . S
H706 C683 0.950 . S
H707 C685 0.950 . S
C708 C709 1.349 1_455 S
C708 C710 1.327 . S
C708 H733 0.950 . S
C709 C708 1.349 1_655 S
C709 C725 1.349 . S
C710 C708 1.327 . S
C710 C729 1.429 . S
C710 H734 0.950 . S
C711 C728 1.574 . S
C711 C730 1.368 . S
C711 H735 0.949 . S
H712 C716 0.949 . S
C713 C714 1.349 . S
C713 C715 1.327 . S
C713 H736 0.950 . S
C714 C713 1.349 . S
C714 C726 1.349 . S
C715 C713 1.327 . S
C715 C731 1.429 . S
C715 H737 0.950 . S
C716 H712 0.949 . S
C716 C724 1.574 . S
C716 C732 1.368 . S
H717 C725 0.950 . S
H718 C723 0.950 . S
H719 C724 0.949 . S
H720 C726 0.950 . S
H721 C727 0.950 . S
H722 C728 0.949 . S
C723 H718 0.950 . S
C723 C725 1.327 . S
C723 C729 1.429 1_655 S
C724 C716 1.574 . S
C724 H719 0.949 . S
C724 C730 1.368 . S
C725 C709 1.349 . S
C725 H717 0.950 . S
C725 C723 1.327 . S
C726 C714 1.349 . S
C726 H720 0.950 . S
C726 C727 1.327 . S
C727 H721 0.950 . S
C727 C726 1.327 . S
C727 C731 1.429 . S
C728 C711 1.574 . S
C728 H722 0.949 . S
C728 C732 1.368 . S
C729 C710 1.429 . S
C729 C723 1.429 1_455 S
C729 C730 1.523 . S
C730 C711 1.368 . S
C730 C724 1.368 . S
C730 C729 1.523 . S
C731 C715 1.429 . S
C731 C727 1.429 . S
C731 C732 1.523 . S
C732 C716 1.368 . S
C732 C728 1.368 . S
C732 C731 1.523 . S
H733 C708 0.950 . S
H734 C710 0.950 . S
H735 C711 0.949 . S
H736 C713 0.950 . S
H737 C715 0.950 . S
C199 C6 0.261 . S
C204 N187 0.267 . S
C229 C59 1.762 . S
C234 N160 1.762 1_655 S
C259 C86 1.076 . S
C264 N173 1.074 . S
C289 C15 0.632 . S
C294 N186 0.612 . S
C324 N161 1.978 . S
C319 C50 1.968 . S
C354 N174 1.315 . S
C349 C95 1.304 . S
C379 C46 1.032 . S
C384 N134 1.031 . S
C409 C99 2.728 . S
C414 N148 2.688 1_655 S
C439 C10 1.980 . S
C444 N122 1.996 . S
C474 N135 1.360 . S
C469 C55 1.341 . S
C504 N147 3.308 . S
C499 C90 3.265 . S
C529 C19 1.757 . S
C534 N121 1.766 . S
C564 N151 1.727 . S
C559 C18 1.706 . S
C589 C49 1.471 . S
C594 N125 1.488 . S
C619 C98 1.502 . S
C624 N138 1.581 . S
C654 N177 1.546 . S
C649 C58 1.478 . S
C684 N190 1.289 . S
C679 C89 1.291 . S
C709 C9 1.447 1_655 S
C714 N164 1.473 . S
