# Generated by pormake.
# Topology ctn, (3,4)-cn, num edge types: 1
# Building blocks:
#     Node 0, Type 0, BuildingBlock: KAKCAD_clean_linker_0, # of connection points: 3
#     Node 1, Type 0, BuildingBlock: KAKCAD_clean_linker_0, # of connection points: 3
#     Node 2, Type 0, BuildingBlock: KAKCAD_clean_linker_0, # of connection points: 3
#     Node 3, Type 0, BuildingBlock: KAKCAD_clean_linker_0, # of connection points: 3
#     Node 4, Type 0, BuildingBlock: KAKCAD_clean_linker_0, # of connection points: 3
#     Node 5, Type 0, BuildingBlock: KAKCAD_clean_linker_0, # of connection points: 3
#     Node 6, Type 0, BuildingBlock: KAKCAD_clean_linker_0, # of connection points: 3
#     Node 7, Type 0, BuildingBlock: KAKCAD_clean_linker_0, # of connection points: 3
#     Node 8, Type 0, BuildingBlock: KAKCAD_clean_linker_0, # of connection points: 3
#     Node 9, Type 0, BuildingBlock: KAKCAD_clean_linker_0, # of connection points: 3
#     Node 10, Type 0, BuildingBlock: KAKCAD_clean_linker_0, # of connection points: 3
#     Node 11, Type 0, BuildingBlock: KAKCAD_clean_linker_0, # of connection points: 3
#     Node 12, Type 0, BuildingBlock: KAKCAD_clean_linker_0, # of connection points: 3
#     Node 13, Type 0, BuildingBlock: KAKCAD_clean_linker_0, # of connection points: 3
#     Node 14, Type 0, BuildingBlock: KAKCAD_clean_linker_0, # of connection points: 3
#     Node 15, Type 0, BuildingBlock: KAKCAD_clean_linker_0, # of connection points: 3
#     Node 16, Type 1, BuildingBlock: KUFVIS_clean_sbu_0, # of connection points: 4
#     Node 17, Type 1, BuildingBlock: KUFVIS_clean_sbu_0, # of connection points: 4
#     Node 18, Type 1, BuildingBlock: KUFVIS_clean_sbu_0, # of connection points: 4
#     Node 19, Type 1, BuildingBlock: KUFVIS_clean_sbu_0, # of connection points: 4
#     Node 20, Type 1, BuildingBlock: KUFVIS_clean_sbu_0, # of connection points: 4
#     Node 21, Type 1, BuildingBlock: KUFVIS_clean_sbu_0, # of connection points: 4
#     Node 22, Type 1, BuildingBlock: KUFVIS_clean_sbu_0, # of connection points: 4
#     Node 23, Type 1, BuildingBlock: KUFVIS_clean_sbu_0, # of connection points: 4
#     Node 24, Type 1, BuildingBlock: KUFVIS_clean_sbu_0, # of connection points: 4
#     Node 25, Type 1, BuildingBlock: KUFVIS_clean_sbu_0, # of connection points: 4
#     Node 26, Type 1, BuildingBlock: KUFVIS_clean_sbu_0, # of connection points: 4
#     Node 27, Type 1, BuildingBlock: KUFVIS_clean_sbu_0, # of connection points: 4
#     Edge 28, Type (0, 1), BuildingBlock: CIFDUS_clean_linker_0, # of connection points: 2
#     Edge 29, Type (0, 1), BuildingBlock: CIFDUS_clean_linker_0, # of connection points: 2
#     Edge 30, Type (0, 1), BuildingBlock: CIFDUS_clean_linker_0, # of connection points: 2
#     Edge 31, Type (0, 1), BuildingBlock: CIFDUS_clean_linker_0, # of connection points: 2
#     Edge 32, Type (0, 1), BuildingBlock: CIFDUS_clean_linker_0, # of connection points: 2
#     Edge 33, Type (0, 1), BuildingBlock: CIFDUS_clean_linker_0, # of connection points: 2
#     Edge 34, Type (0, 1), BuildingBlock: CIFDUS_clean_linker_0, # of connection points: 2
#     Edge 35, Type (0, 1), BuildingBlock: CIFDUS_clean_linker_0, # of connection points: 2
#     Edge 36, Type (0, 1), BuildingBlock: CIFDUS_clean_linker_0, # of connection points: 2
#     Edge 37, Type (0, 1), BuildingBlock: CIFDUS_clean_linker_0, # of connection points: 2
#     Edge 38, Type (0, 1), BuildingBlock: CIFDUS_clean_linker_0, # of connection points: 2
#     Edge 39, Type (0, 1), BuildingBlock: CIFDUS_clean_linker_0, # of connection points: 2
#     Edge 40, Type (0, 1), BuildingBlock: CIFDUS_clean_linker_0, # of connection points: 2
#     Edge 41, Type (0, 1), BuildingBlock: CIFDUS_clean_linker_0, # of connection points: 2
#     Edge 42, Type (0, 1), BuildingBlock: CIFDUS_clean_linker_0, # of connection points: 2
#     Edge 43, Type (0, 1), BuildingBlock: CIFDUS_clean_linker_0, # of connection points: 2
#     Edge 44, Type (0, 1), BuildingBlock: CIFDUS_clean_linker_0, # of connection points: 2
#     Edge 45, Type (0, 1), BuildingBlock: CIFDUS_clean_linker_0, # of connection points: 2
#     Edge 46, Type (0, 1), BuildingBlock: CIFDUS_clean_linker_0, # of connection points: 2
#     Edge 47, Type (0, 1), BuildingBlock: CIFDUS_clean_linker_0, # of connection points: 2
#     Edge 48, Type (0, 1), BuildingBlock: CIFDUS_clean_linker_0, # of connection points: 2
#     Edge 49, Type (0, 1), BuildingBlock: CIFDUS_clean_linker_0, # of connection points: 2
#     Edge 50, Type (0, 1), BuildingBlock: CIFDUS_clean_linker_0, # of connection points: 2
#     Edge 51, Type (0, 1), BuildingBlock: CIFDUS_clean_linker_0, # of connection points: 2
#     Edge 52, Type (0, 1), BuildingBlock: CIFDUS_clean_linker_0, # of connection points: 2
#     Edge 53, Type (0, 1), BuildingBlock: CIFDUS_clean_linker_0, # of connection points: 2
#     Edge 54, Type (0, 1), BuildingBlock: CIFDUS_clean_linker_0, # of connection points: 2
#     Edge 55, Type (0, 1), BuildingBlock: CIFDUS_clean_linker_0, # of connection points: 2
#     Edge 56, Type (0, 1), BuildingBlock: CIFDUS_clean_linker_0, # of connection points: 2
#     Edge 57, Type (0, 1), BuildingBlock: CIFDUS_clean_linker_0, # of connection points: 2
#     Edge 58, Type (0, 1), BuildingBlock: CIFDUS_clean_linker_0, # of connection points: 2
#     Edge 59, Type (0, 1), BuildingBlock: CIFDUS_clean_linker_0, # of connection points: 2
#     Edge 60, Type (0, 1), BuildingBlock: CIFDUS_clean_linker_0, # of connection points: 2
#     Edge 61, Type (0, 1), BuildingBlock: CIFDUS_clean_linker_0, # of connection points: 2
#     Edge 62, Type (0, 1), BuildingBlock: CIFDUS_clean_linker_0, # of connection points: 2
#     Edge 63, Type (0, 1), BuildingBlock: CIFDUS_clean_linker_0, # of connection points: 2
#     Edge 64, Type (0, 1), BuildingBlock: CIFDUS_clean_linker_0, # of connection points: 2
#     Edge 65, Type (0, 1), BuildingBlock: CIFDUS_clean_linker_0, # of connection points: 2
#     Edge 66, Type (0, 1), BuildingBlock: CIFDUS_clean_linker_0, # of connection points: 2
#     Edge 67, Type (0, 1), BuildingBlock: CIFDUS_clean_linker_0, # of connection points: 2
#     Edge 68, Type (0, 1), BuildingBlock: CIFDUS_clean_linker_0, # of connection points: 2
#     Edge 69, Type (0, 1), BuildingBlock: CIFDUS_clean_linker_0, # of connection points: 2
#     Edge 70, Type (0, 1), BuildingBlock: CIFDUS_clean_linker_0, # of connection points: 2
#     Edge 71, Type (0, 1), BuildingBlock: CIFDUS_clean_linker_0, # of connection points: 2
#     Edge 72, Type (0, 1), BuildingBlock: CIFDUS_clean_linker_0, # of connection points: 2
#     Edge 73, Type (0, 1), BuildingBlock: CIFDUS_clean_linker_0, # of connection points: 2
#     Edge 74, Type (0, 1), BuildingBlock: CIFDUS_clean_linker_0, # of connection points: 2
#     Edge 75, Type (0, 1), BuildingBlock: CIFDUS_clean_linker_0, # of connection points: 2
# Relax obj value: 0.012
# Max RMSD: 0.061
# Mean RMSD: 0.029
data_MOF--net-ctn--node1-KUFVIS_clean_sbu_0--node2-KAKCAD_clean_linker_0--edge1-CIFDUS_clean_linker_0
_symmetry_space_group_name_H-M    P1
_symmetry_Int_Tables_number       1
_symmetry_cell_setting            triclinic
loop_
_symmetry_equiv_pos_as_xyz
'x, y, z'
_cell_length_a     59.925061
_cell_length_b     59.69006
_cell_length_c     59.913281
_cell_angle_alpha  91.075871
_cell_angle_beta   90.627883
_cell_angle_gamma 91.829089
loop_
_atom_site_label
_atom_site_type_symbol
_atom_site_fract_x
_atom_site_fract_y
_atom_site_fract_z
_atom_type_partial_charge
C0 C 0.03514 0.09937 0.98905 0.0
C1 C 0.02551 0.11804 0.99932 0.0
C2 C 0.04156 0.08111 1.00171 0.0
C3 C 0.03872 0.08116 0.02502 0.0
C4 C 0.02947 0.10011 0.03527 0.0
C5 C 0.02283 0.11822 0.02258 0.0
C6 C 0.04492 0.06143 0.03855 0.0
C7 C 0.06382 0.04893 0.0333 0.0
C8 C 0.06963 0.03042 0.04613 0.0
C9 C 0.05619 0.02431 0.06426 0.0
C10 C 0.03731 0.03648 0.06978 0.0
C11 C 0.0318 0.05495 0.05687 0.0
C12 C 0.02336 0.02989 0.08911 0.0
C13 C 0.01658 0.00739 0.09201 0.0
C14 C 0.01687 0.04605 0.10488 0.0
C15 C 1.00398 0.03984 0.12322 0.0
C16 C 0.99699 0.01733 0.12611 0.0
C17 C 0.08972 0.01736 0.04083 0.0
C18 C 0.09403 0.01025 0.01884 0.0
C19 C 0.10431 0.01114 0.058 0.0
C20 C 0.12242 0.99767 0.05342 0.0
C21 C 0.12637 0.98986 0.03155 0.0
C22 C 0.11209 0.99659 0.01426 0.0
C23 C 1.00346 1.0012 0.1102 0.0
H24 H 0.03722 0.09865 0.97112 0.0
H25 H 0.04829 0.06675 0.99313 0.0
H26 H 0.02747 0.10107 0.0532 0.0
H27 H 0.01578 0.13251 0.03102 0.0
H28 H 0.07442 0.05393 0.0196 0.0
H29 H 0.01687 0.06392 0.06082 0.0
H30 H 0.06048 0.01003 0.07417 0.0
H31 H 0.02114 0.9946 0.07998 0.0
H32 H 0.0221 0.06347 0.10323 0.0
H33 H 0.99976 0.0527 0.13529 0.0
H34 H 0.08299 0.01463 0.00528 0.0
H35 H 0.10168 0.01669 0.07507 0.0
H36 H 0.9981 0.98379 0.11157 0.0
H37 H 0.11442 0.99074 0.99725 0.0
H38 H 0.13332 0.99334 0.0671 0.0
C39 C 0.36943 0.73426 0.266 0.0
C40 C 0.38467 0.71683 0.26769 0.0
C41 C 0.35237 0.73327 0.24985 0.0
C42 C 0.34983 0.71464 0.23532 0.0
C43 C 0.3648 0.69712 0.23706 0.0
C44 C 0.38213 0.69828 0.25291 0.0
C45 C 0.33145 0.71325 0.21854 0.0
C46 C 0.32831 0.73076 0.20361 0.0
C47 C 0.31136 0.72907 0.18718 0.0
C48 C 0.29729 0.70974 0.18613 0.0
C49 C 0.29976 0.69228 0.20135 0.0
C50 C 0.31706 0.69423 0.21742 0.0
C51 C 0.28404 0.67232 0.20086 0.0
C52 C 0.2613 0.6745 0.19528 0.0
C53 C 0.29146 0.651 0.20665 0.0
C54 C 0.27646 0.63263 0.20757 0.0
C55 C 0.25385 0.63501 0.20219 0.0
C56 C 0.30829 0.74741 0.17105 0.0
C57 C 0.30874 0.76997 0.17829 0.0
C58 C 0.30436 0.7424 0.1483 0.0
C59 C 0.30067 0.75948 0.13319 0.0
C60 C 0.30074 0.78203 0.14046 0.0
C61 C 0.30491 0.78709 0.16318 0.0
C62 C 0.24642 0.65598 0.19574 0.0
H63 H 0.37042 0.74858 0.27735 0.0
H64 H 0.34086 0.74687 0.249 0.0
H65 H 0.36329 0.68264 0.2259 0.0
H66 H 0.39369 0.68472 0.25333 0.0
H67 H 0.3395 0.74539 0.20436 0.0
H68 H 0.31907 0.68124 0.2296 0.0
H69 H 0.28428 0.70841 0.17345 0.0
H70 H 0.25478 0.69063 0.19116 0.0
H71 H 0.30885 0.64844 0.21057 0.0
H72 H 0.2825 0.61652 0.21253 0.0
H73 H 0.31158 0.77436 0.19574 0.0
H74 H 0.30414 0.72521 0.14214 0.0
H75 H 0.22895 0.65819 0.19179 0.0
H76 H 0.30523 0.80429 0.16927 0.0
H77 H 0.29727 0.75497 0.11587 0.0
C78 C 0.01203 0.49483 0.11675 0.0
C79 C 0.03485 0.4907 0.1145 0.0
C80 C 0.99718 0.4909 0.09886 0.0
C81 C 1.00474 0.4828 0.07816 0.0
C82 C 0.0276 0.4787 0.07586 0.0
C83 C 0.04248 0.48259 0.09383 0.0
C84 C 0.98854 0.47807 0.05943 0.0
C85 C 0.97072 0.49239 0.05585 0.0
C86 C 0.95349 0.48686 0.04029 0.0
C87 C 0.95502 0.46688 0.02751 0.0
C88 C 0.97342 0.453 0.02995 0.0
C89 C 0.99003 0.45866 0.04596 0.0
C90 C 0.97483 0.43202 0.0164 0.0
C91 C 0.95724 0.41598 0.01636 0.0
C92 C 0.99379 0.42785 1.00356 0.0
C93 C 0.99484 0.40825 0.99041 0.0
C94 C 0.97711 0.39215 0.99012 0.0
C95 C 0.93374 0.50162 0.03805 0.0
C96 C 0.92651 0.51437 0.05646 0.0
C97 C 0.92183 0.50313 0.01774 0.0
C98 C 0.90319 0.51669 0.01603 0.0
C99 C 0.89615 0.52959 0.03445 0.0
C100 C 0.9084 0.52839 0.05457 0.0
C101 C 0.95846 0.3962 1.00362 0.0
H102 H 0.00551 0.50068 0.13254 0.0
H103 H 0.97963 0.49377 0.10144 0.0
H104 H 0.03405 0.47266 0.06012 0.0
H105 H 0.06001 0.47947 0.09146 0.0
H106 H 0.97041 0.50798 0.06534 0.0
H107 H 1.00358 0.44735 0.04855 0.0
H108 H 0.94188 0.46187 0.01574 0.0
H109 H 0.9426 0.41862 0.02642 0.0
H110 H 0.00758 0.44003 1.00332 0.0
H111 H 0.00935 0.40601 0.9801 0.0
H112 H 0.93461 0.51348 0.07262 0.0
H113 H 0.92689 0.49396 1.00299 0.0
H114 H 0.94473 0.38404 1.00449 0.0
H115 H 0.90416 0.53836 0.06909 0.0
H116 H 0.89421 0.51675 1.00027 0.0
C117 C 0.68433 0.76116 0.14012 0.0
C118 C 0.70529 0.75432 0.13271 0.0
C119 C 0.68269 0.77609 0.15828 0.0
C120 C 0.70197 0.78456 0.16956 0.0
C121 C 0.72294 0.77773 0.16215 0.0
C122 C 0.72457 0.76282 0.14397 0.0
C123 C 0.70019 0.80031 0.18907 0.0
C124 C 0.68328 0.79701 0.20491 0.0
C125 C 0.68146 0.81164 0.22342 0.0
C126 C 0.69703 0.82963 0.22611 0.0
C127 C 0.71399 0.83349 0.21042 0.0
C128 C 0.71535 0.8187 0.19192 0.0
C129 C 0.73018 0.85293 0.21354 0.0
C130 C 0.72333 0.87322 0.22326 0.0
C131 C 0.75277 0.85121 0.20755 0.0
C132 C 0.76809 0.86907 0.21168 0.0
C133 C 0.76122 0.88884 0.22219 0.0
C134 C 0.66311 0.80843 0.2398 0.0
C135 C 0.64129 0.80261 0.23247 0.0
C136 C 0.66711 0.81177 0.26284 0.0
C137 C 0.64969 0.80963 0.27809 0.0
C138 C 0.62781 0.80405 0.27073 0.0
C139 C 0.62387 0.80044 0.24772 0.0
C140 C 0.73872 0.89084 0.22778 0.0
H141 H 0.66911 0.75481 0.13203 0.0
H142 H 0.66628 0.78114 0.16335 0.0
H143 H 0.73813 0.78372 0.17056 0.0
H144 H 0.74101 0.75814 0.13858 0.0
H145 H 0.67179 0.78269 0.20312 0.0
H146 H 0.7279 0.82179 0.17938 0.0
H147 H 0.69581 0.84075 0.2405 0.0
H148 H 0.70604 0.87554 0.22755 0.0
H149 H 0.75881 0.83583 0.2003 0.0
H150 H 0.78546 0.86716 0.20741 0.0
H151 H 0.63754 0.80011 0.21485 0.0
H152 H 0.68376 0.81601 0.26912 0.0
H153 H 0.73308 0.90604 0.23578 0.0
H154 H 0.60731 0.79579 0.24146 0.0
H155 H 0.65333 0.81269 0.29565 0.0
C156 C 0.99503 1.00348 0.40897 0.0
C157 C 0.99008 0.98455 0.39523 0.0
C158 C 0.00672 1.00143 0.42921 0.0
C159 C 0.01393 0.98041 0.43619 0.0
C160 C 0.00874 0.96149 0.42254 0.0
C161 C 0.99686 0.9635 0.40251 0.0
C162 C 0.0273 0.97818 0.45725 0.0
C163 C 0.02447 0.9591 0.47059 0.0
C164 C 0.03769 0.95625 0.48986 0.0
C165 C 0.05387 0.97305 0.49568 0.0
C166 C 0.05725 0.99221 0.48262 0.0
C167 C 0.04362 0.99467 0.46356 0.0
C168 C 0.07574 0.00895 0.48841 0.0
C169 C 0.08249 0.01297 0.51077 0.0
C170 C 0.08758 0.02028 0.47162 0.0
C171 C 0.10574 0.0348 0.47698 0.0
C172 C 0.11315 0.03796 0.49926 0.0
C173 C 0.03522 0.93553 0.50359 0.0
C174 C 0.01442 0.92413 0.5058 0.0
C175 C 0.0538 0.92694 0.51475 0.0
C176 C 0.05161 0.90806 0.52804 0.0
C177 C 0.03094 0.89639 0.53002 0.0
C178 C 0.01237 0.90472 0.51858 0.0
C179 C 0.10108 0.0269 0.51606 0.0
H180 H 0.99026 0.02 0.40394 0.0
H181 H 0.01009 0.01636 0.43937 0.0
H182 H 0.01421 0.94505 0.42706 0.0
H183 H 0.99301 0.94842 0.39271 0.0
H184 H 0.01211 0.94627 0.46574 0.0
H185 H 0.04597 0.00928 0.45333 0.0
H186 H 0.06419 0.97103 0.51035 0.0
H187 H 0.07359 0.00519 0.52435 0.0
H188 H 0.08326 0.01761 0.45417 0.0
H189 H 0.11398 0.04341 0.46348 0.0
H190 H 0.99956 0.93022 0.49782 0.0
H191 H 0.07028 0.93462 0.51318 0.0
H192 H 0.10615 0.02851 0.53341 0.0
H193 H 0.99618 0.89622 0.51923 0.0
H194 H 0.06633 0.9028 0.53688 0.0
C195 C 0.11435 0.70189 0.77988 0.0
C196 C 0.11784 0.70097 0.75671 0.0
C197 C 0.1323 0.70044 0.79486 0.0
C198 C 0.15411 0.69781 0.78704 0.0
C199 C 0.15756 0.69655 0.76388 0.0
C200 C 0.13964 0.69822 0.74889 0.0
C201 C 0.17327 0.69694 0.80298 0.0
C202 C 0.18981 0.68094 0.80012 0.0
C203 C 0.20822 0.68029 0.81492 0.0
C204 C 0.21011 0.69635 0.83241 0.0
C205 C 0.19377 0.71244 0.83544 0.0
C206 C 0.17529 0.71246 0.82087 0.0
C207 C 0.19628 0.72958 0.85358 0.0
C208 C 0.21572 0.74324 0.85524 0.0
C209 C 0.17927 0.73251 0.86919 0.0
C210 C 0.18185 0.74857 0.88643 0.0
C211 C 0.20133 0.76238 0.88819 0.0
C212 C 0.2253 0.66278 0.81228 0.0
C213 C 0.21894 0.64066 0.80589 0.0
C214 C 0.24808 0.66791 0.81639 0.0
C215 C 0.26402 0.65139 0.81422 0.0
C216 C 0.25766 0.62929 0.80775 0.0
C217 C 0.23489 0.62418 0.80359 0.0
C218 C 0.21812 0.75962 0.87216 0.0
H219 H 0.09779 0.70418 0.78643 0.0
H220 H 0.12909 0.70132 0.81261 0.0
H221 H 0.17419 0.69472 0.75734 0.0
H222 H 0.14284 0.69727 0.73114 0.0
H223 H 0.1883 0.66897 0.78632 0.0
H224 H 0.16287 0.72512 0.82302 0.0
H225 H 0.22403 0.69607 0.84409 0.0
H226 H 0.22894 0.7415 0.84319 0.0
H227 H 0.16415 0.72207 0.86827 0.0
H228 H 0.16868 0.74988 0.89857 0.0
H229 H 0.20155 0.63596 0.80287 0.0
H230 H 0.25369 0.68478 0.82109 0.0
H231 H 0.23309 0.77026 0.87245 0.0
H232 H 0.22934 0.60747 0.79827 0.0
H233 H 0.28134 0.65595 0.81781 0.0
C234 C 0.98933 0.61931 0.50376 0.0
C235 C 0.99514 0.6162 0.52622 0.0
C236 C 0.98415 0.60086 0.48972 0.0
C237 C 0.98418 0.57902 0.49804 0.0
C238 C 0.98952 0.57591 0.52063 0.0
C239 C 0.99521 0.59436 0.53456 0.0
C240 C 0.97938 0.55953 0.48291 0.0
C241 C 0.9921 0.55671 0.46365 0.0
C242 C 0.98771 0.53856 0.44889 0.0
C243 C 0.9702 0.52318 0.45342 0.0
C244 C 0.95654 0.52624 0.47224 0.0
C245 C 0.96167 0.54429 0.48716 0.0
C246 C 0.93588 0.51194 0.47525 0.0
C247 C 0.92292 0.50474 0.4566 0.0
C248 C 0.92813 0.50653 0.49667 0.0
C249 C 0.90764 0.49493 0.49934 0.0
C250 C 0.89444 0.48832 0.48065 0.0
C251 C 1.00076 0.53674 0.4281 0.0
C252 C 1.00179 0.55487 0.41358 0.0
C253 C 0.01313 0.51769 0.4232 0.0
C254 C 0.02723 0.51733 0.40464 0.0
C255 C 0.02897 0.53594 0.39056 0.0
C256 C 0.01551 0.55439 0.39495 0.0
C257 C 0.90264 0.49298 0.45925 0.0
H258 H 0.9892 0.63601 0.49698 0.0
H259 H 0.98003 0.60364 0.47236 0.0
H260 H 0.98973 0.55919 0.52735 0.0
H261 H 0.99951 0.59161 0.55189 0.0
H262 H 0.0056 0.56864 0.46019 0.0
H263 H 0.95126 0.54728 0.50151 0.0
H264 H 0.96682 0.50929 0.44184 0.0
H265 H 0.92803 0.50878 0.43983 0.0
H266 H 0.93776 0.51148 0.51145 0.0
H267 H 0.90189 0.49171 0.51608 0.0
H268 H 0.99213 0.5696 0.41683 0.0
H269 H 0.01258 0.5035 0.43422 0.0
H270 H 0.89325 0.48774 0.44441 0.0
H271 H 0.01582 0.56874 0.38414 0.0
H272 H 0.03737 0.50288 0.40185 0.0
C273 C 0.83154 0.75663 0.88405 0.0
C274 C 0.8103 0.74951 0.89131 0.0
C275 C 0.83371 0.77207 0.86676 0.0
C276 C 0.81466 0.78051 0.85624 0.0
C277 C 0.79347 0.77288 0.86327 0.0
C278 C 0.79134 0.75772 0.88062 0.0
C279 C 0.81661 0.797 0.83785 0.0
C280 C 0.83333 0.79523 0.82162 0.0
C281 C 0.83409 0.80973 0.80337 0.0
C282 C 0.8181 0.82636 0.80159 0.0
C283 C 0.80135 0.82848 0.81762 0.0
C284 C 0.8009 0.81393 0.83577 0.0
C285 C 0.78356 0.84505 0.81474 0.0
C286 C 0.78888 0.86714 0.80847 0.0
C287 C 0.761 0.83861 0.81753 0.0
C288 C 0.74412 0.85378 0.81372 0.0
C289 C 0.74942 0.87581 0.80724 0.0
C290 C 0.85035 0.80624 0.78515 0.0
C291 C 0.873 0.80273 0.78992 0.0
C292 C 0.84297 0.80533 0.7628 0.0
C293 C 0.85767 0.80015 0.74567 0.0
C294 C 0.88015 0.79601 0.75046 0.0
C295 C 0.88782 0.79784 0.77268 0.0
C296 C 0.772 0.88239 0.80489 0.0
H297 H 0.84645 0.75059 0.89202 0.0
H298 H 0.8503 0.77765 0.86191 0.0
H299 H 0.77841 0.77839 0.8552 0.0
H300 H 0.77474 0.75217 0.88551 0.0
H301 H 0.84505 0.78182 0.82251 0.0
H302 H 0.7882 0.81584 0.84834 0.0
H303 H 0.81835 0.83728 0.78734 0.0
H304 H 0.80612 0.87262 0.80631 0.0
H305 H 0.75634 0.82165 0.82213 0.0
H306 H 0.72688 0.84826 0.8158 0.0
H307 H 0.87915 0.80346 0.80699 0.0
H308 H 0.82559 0.80776 0.75861 0.0
H309 H 0.77661 0.89919 0.79971 0.0
H310 H 0.90503 0.79453 0.77682 0.0
H311 H 0.85135 0.79884 0.72867 0.0
C312 C 0.3156 0.26664 0.37946 0.0
C313 C 0.29372 0.25897 0.38406 0.0
C314 C 0.31989 0.27964 0.36058 0.0
C315 C 0.30236 0.28513 0.34602 0.0
C316 C 0.28077 0.27645 0.35014 0.0
C317 C 0.27651 0.26359 0.36887 0.0
C318 C 0.306 0.30049 0.32702 0.0
C319 C 0.32401 0.29799 0.31241 0.0
C320 C 0.32608 0.31145 0.29341 0.0
C321 C 0.31029 0.32795 0.28956 0.0
C322 C 0.29235 0.33078 0.30411 0.0
C323 C 0.29045 0.31709 0.3228 0.0
C324 C 0.27497 0.3473 0.29934 0.0
C325 C 0.28092 0.36937 0.29352 0.0
C326 C 0.2522 0.34102 0.3006 0.0
C327 C 0.23574 0.35644 0.29609 0.0
C328 C 0.24168 0.37856 0.29046 0.0
C329 C 0.34345 0.30697 0.27652 0.0
C330 C 0.36579 0.30384 0.28287 0.0
C331 C 0.33746 0.3049 0.25381 0.0
C332 C 0.35324 0.29916 0.23789 0.0
C333 C 0.37545 0.29558 0.24425 0.0
C334 C 0.38171 0.29839 0.26683 0.0
C335 C 0.26444 0.38489 0.28927 0.0
H336 H 0.32919 0.26329 0.39086 0.0
H337 H 0.33672 0.28606 0.3578 0.0
H338 H 0.26701 0.27981 0.33894 0.0
H339 H 0.25958 0.25742 0.37162 0.0
H340 H 0.33569 0.28479 0.31514 0.0
H341 H 0.27672 0.3194 0.33417 0.0
H342 H 0.31163 0.33821 0.27487 0.0
H343 H 0.29833 0.37469 0.29251 0.0
H344 H 0.24711 0.32406 0.30483 0.0
H345 H 0.21835 0.35112 0.29724 0.0
H346 H 0.37089 0.30543 0.30025 0.0
H347 H 0.32035 0.30699 0.24841 0.0
H348 H 0.26951 0.40177 0.28476 0.0
H349 H 0.3987 0.29554 0.27217 0.0
H350 H 0.34799 0.29712 0.22059 0.0
C351 C 0.5086 0.00875 0.62331 0.0
C352 C 0.53132 1.0037 0.62292 0.0
C353 C 0.49461 1.00322 0.6051 0.0
C354 C 0.50298 0.99269 0.58585 0.0
C355 C 0.52573 0.98749 0.58552 0.0
C356 C 0.53972 0.99285 0.60389 0.0
C357 C 0.48782 0.98703 0.56645 0.0
C358 C 0.47076 1.00156 0.56067 0.0
C359 C 0.45454 0.99554 0.54425 0.0
C360 C 0.45674 0.97514 0.53235 0.0
C361 C 0.47435 0.96074 0.53707 0.0
C362 C 0.48959 0.96676 0.55438 0.0
C363 C 0.47634 0.93899 0.52457 0.0
C364 C 0.45718 0.92606 0.51832 0.0
C365 C 0.4974 0.93082 0.51897 0.0
C366 C 0.49923 0.91022 0.50763 0.0
C367 C 0.48004 0.89726 0.5015 0.0
C368 C 0.4348 0.01001 0.54059 0.0
C369 C 0.42645 0.02293 0.55835 0.0
C370 C 0.42367 0.0107 0.51975 0.0
C371 C 0.40455 0.02343 0.51702 0.0
C372 C 0.39626 0.03628 0.53489 0.0
C373 C 0.40789 0.03613 0.55543 0.0
C374 C 0.459 0.90561 0.50684 0.0
H375 H 0.50154 0.01675 0.63788 0.0
H376 H 0.47709 0.00698 0.60628 0.0
H377 H 0.53284 0.97958 0.57094 0.0
H378 H 0.55721 0.98891 0.60303 0.0
H379 H 0.47015 0.01767 0.56918 0.0
H380 H 0.50233 0.9552 0.55905 0.0
H381 H 0.44458 0.97023 0.51958 0.0
H382 H 0.44068 0.93153 0.52256 0.0
H383 H 0.51254 0.94041 0.52325 0.0
H384 H 0.51572 0.90431 0.50398 0.0
H385 H 0.43393 0.02268 0.57485 0.0
H386 H 0.42961 1.00141 0.50545 0.0
H387 H 0.44378 0.89639 0.50207 0.0
H388 H 0.40271 0.0462 0.56954 0.0
H389 H 0.39613 0.02282 0.50094 0.0
C390 C 0.20858 0.28401 0.62645 0.0
C391 C 0.20859 0.2606 0.62873 0.0
C392 C 0.20733 0.29818 0.64526 0.0
C393 C 0.20587 0.28927 0.66677 0.0
C394 C 0.20571 0.26586 0.66903 0.0
C395 C 0.20713 0.2517 0.65026 0.0
C396 C 0.20476 0.30428 0.68686 0.0
C397 C 0.18969 0.29926 0.70405 0.0
C398 C 0.18904 0.31283 0.72344 0.0
C399 C 0.20376 0.33156 0.72554 0.0
C400 C 0.21878 0.33716 0.70846 0.0
C401 C 0.21906 0.3234 0.68911 0.0
C402 C 0.23439 0.35709 0.71125 0.0
C403 C 0.2276 0.37648 0.72275 0.0
C404 C 0.25646 0.35665 0.70337 0.0
C405 C 0.27144 0.3748 0.70747 0.0
C406 C 0.26477 0.39359 0.71981 0.0
C407 C 0.17307 0.3075 0.74162 0.0
C408 C 0.15068 0.30136 0.73666 0.0
C409 C 0.18002 0.3089 0.76411 0.0
C410 C 0.16497 0.30431 0.78123 0.0
C411 C 0.14256 0.29826 0.77631 0.0
C412 C 0.13559 0.29686 0.75381 0.0
C413 C 0.24269 0.39437 0.7272 0.0
H414 H 0.20988 0.29141 0.61013 0.0
H415 H 0.20733 0.31614 0.64293 0.0
H416 H 0.20482 0.25846 0.68538 0.0
H417 H 0.20689 0.23375 0.65259 0.0
H418 H 0.17853 0.28466 0.70239 0.0
H419 H 0.23054 0.32741 0.67583 0.0
H420 H 0.2035 0.34178 0.74065 0.0
H421 H 0.21065 0.37781 0.72855 0.0
H422 H 0.26245 0.34198 0.69471 0.0
H423 H 0.28849 0.3738 0.70178 0.0
H424 H 0.14475 0.30032 0.71952 0.0
H425 H 0.19719 0.31337 0.7685 0.0
H426 H 0.23715 0.40881 0.7366 0.0
H427 H 0.11851 0.29199 0.74942 0.0
H428 H 0.17086 0.3057 0.79837 0.0
C429 C 0.87188 0.23076 0.76438 0.0
C430 C 0.89093 0.21758 0.76605 0.0
C431 C 0.85565 0.22618 0.74786 0.0
C432 C 0.85776 0.20801 0.73299 0.0
C433 C 0.87624 0.19433 0.73494 0.0
C434 C 0.89278 0.19917 0.75117 0.0
C435 C 0.84089 0.20369 0.71515 0.0
C436 C 0.83878 0.21896 0.69782 0.0
C437 C 0.82267 0.21525 0.68081 0.0
C438 C 0.80857 0.19595 0.68151 0.0
C439 C 0.81019 0.1806 0.699 0.0
C440 C 0.82664 0.18464 0.71571 0.0
C441 C 0.79435 0.1608 0.7002 0.0
C442 C 0.77199 0.16221 0.69289 0.0
C443 C 0.80124 0.14044 0.70915 0.0
C444 C 0.78611 0.1223 0.71126 0.0
C445 C 0.76391 0.1239 0.70398 0.0
C446 C 0.82023 0.23172 0.66258 0.0
C447 C 0.82228 0.2549 0.66716 0.0
C448 C 0.81541 0.22443 0.64053 0.0
C449 C 0.81225 0.23991 0.62363 0.0
C450 C 0.814 0.2631 0.62827 0.0
C451 C 0.81929 0.27037 0.65022 0.0
C452 C 0.75702 0.14388 0.69456 0.0
H453 H 0.86944 0.24468 0.77583 0.0
H454 H 0.84136 0.2368 0.74673 0.0
H455 H 0.87816 0.18025 0.72353 0.0
H456 H 0.90726 0.18879 0.75163 0.0
H457 H 0.85 0.23355 0.69748 0.0
H458 H 0.828 0.17343 0.72964 0.0
H459 H 0.79611 0.19302 0.66847 0.0
H460 H 0.7658 0.17765 0.68639 0.0
H461 H 0.81835 0.13844 0.71455 0.0
H462 H 0.79175 0.10696 0.71854 0.0
H463 H 0.82576 0.26117 0.68395 0.0
H464 H 0.81403 0.20673 0.63628 0.0
H465 H 0.73986 0.14552 0.68912 0.0
H466 H 0.82108 0.28807 0.65439 0.0
H467 H 0.80796 0.23363 0.60701 0.0
C468 C 0.53028 0.60202 0.47889 0.0
C469 C 0.52319 0.62229 0.4883 0.0
C470 C 0.53497 0.5839 0.49241 0.0
C471 C 0.53294 0.58559 0.51576 0.0
C472 C 0.5253 0.60572 0.52513 0.0
C473 C 0.52039 0.62383 0.51154 0.0
C474 C 0.53939 0.56661 0.53015 0.0
C475 C 0.55795 0.55381 0.52459 0.0
C476 C 0.5642 0.53573 0.53769 0.0
C477 C 0.55169 0.53043 0.55667 0.0
C478 C 0.53313 0.54297 0.56263 0.0
C479 C 0.52717 0.56111 0.54937 0.0
C480 C 0.51986 0.53682 0.58258 0.0
C481 C 0.51313 0.5144 0.58601 0.0
C482 C 0.5141 0.5532 0.59844 0.0
C483 C 0.50212 0.54723 0.6175 0.0
C484 C 0.49533 0.52476 0.62101 0.0
C485 C 0.5838 0.52237 0.53147 0.0
C486 C 0.58662 0.51498 0.5093 0.0
C487 C 0.59985 0.51697 0.54759 0.0
C488 C 0.61837 0.50454 0.54166 0.0
C489 C 0.62118 0.49697 0.51949 0.0
C490 C 0.605 0.50235 0.50341 0.0
C491 C 0.50091 0.50847 0.60489 0.0
H492 H 0.5322 0.60017 0.461 0.0
H493 H 0.54023 0.56852 0.48449 0.0
H494 H 0.52372 0.60775 0.54304 0.0
H495 H 0.5151 0.63929 0.51928 0.0
H496 H 0.56795 0.55821 0.51028 0.0
H497 H 0.51259 0.57049 0.55367 0.0
H498 H 0.55638 0.51644 0.56681 0.0
H499 H 0.51708 0.50145 0.57391 0.0
H500 H 0.51926 0.57058 0.59634 0.0
H501 H 0.49852 0.56024 0.62965 0.0
H502 H 0.57438 0.51866 0.49656 0.0
H503 H 0.59828 0.52268 0.56476 0.0
H504 H 0.49562 0.49109 0.60665 0.0
H505 H 0.60629 0.49649 0.48627 0.0
H506 H 0.63064 0.50114 0.55446 0.0
C507 C 0.48005 0.48467 0.91429 0.0
C508 C 0.49172 0.48829 0.89438 0.0
C509 C 0.49165 0.48112 0.93432 0.0
C510 C 0.51514 0.48156 0.93488 0.0
C511 C 0.52675 0.48579 0.91506 0.0
C512 C 0.51518 0.48895 0.89502 0.0
C513 C 0.52771 0.47713 0.95583 0.0
C514 C 0.52222 0.4583 0.96868 0.0
C515 C 0.53521 0.45305 0.98749 0.0
C516 C 0.55378 0.46709 0.99335 0.0
C517 C 0.55936 0.48633 0.98104 0.0
C518 C 0.546 0.49118 0.96235 0.0
C519 C 0.57928 0.50106 0.98748 0.0
C520 C 0.58646 0.50336 0.0099 0.0
C521 C 0.59151 0.51283 0.97124 0.0
C522 C 0.61007 0.52654 0.97724 0.0
C523 C 0.61756 0.52842 0.99959 0.0
C524 C 0.52975 0.43275 1.00089 0.0
C525 C 0.50747 0.42656 0.00568 0.0
C526 C 0.54687 0.41963 0.00942 0.0
C527 C 0.54191 0.40118 0.02275 0.0
C528 C 0.51969 0.39518 0.02779 0.0
C529 C 0.5025 0.40797 0.01892 0.0
C530 C 0.60545 0.51649 0.0158 0.0
H531 H 0.46197 0.4839 0.91422 0.0
H532 H 0.48228 0.47801 0.94937 0.0
H533 H 0.54483 0.48608 0.91492 0.0
H534 H 0.52459 0.49174 0.87994 0.0
H535 H 0.50836 0.44724 0.96349 0.0
H536 H 0.54957 0.50607 0.95282 0.0
H537 H 0.56397 0.46286 0.00758 0.0
H538 H 0.57741 0.49511 0.02312 0.0
H539 H 0.58699 0.51136 0.95373 0.0
H540 H 0.61839 0.53576 0.96418 0.0
H541 H 0.49386 0.43638 0.99962 0.0
H542 H 0.56419 0.4235 0.00568 0.0
H543 H 0.61065 0.51703 0.03315 0.0
H544 H 0.4852 0.40391 0.02262 0.0
H545 H 0.55553 0.39142 0.02891 0.0
C546 C 0.63597 0.19683 0.25976 0.0
C547 C 0.63132 0.21891 0.25382 0.0
C548 C 0.65244 0.19266 0.2758 0.0
C549 C 0.66467 0.21048 0.28631 0.0
C550 C 0.65997 0.23255 0.28038 0.0
C551 C 0.64351 0.2367 0.26441 0.0
C552 C 0.68239 0.20619 0.30325 0.0
C553 C 0.69708 0.18847 0.3002 0.0
C554 C 0.71435 0.18488 0.31571 0.0
C555 C 0.71685 0.1994 0.3344 0.0
C556 C 0.70233 0.21718 0.3379 0.0
C557 C 0.68502 0.22022 0.32231 0.0
C558 C 0.70571 0.23287 0.35747 0.0
C559 C 0.71368 0.22512 0.37806 0.0
C560 C 0.70185 0.25594 0.35551 0.0
C561 C 0.70626 0.27082 0.37347 0.0
C562 C 0.71492 0.26302 0.39359 0.0
C563 C 0.73 0.16618 0.31235 0.0
C564 C 0.72217 0.145 0.30442 0.0
C565 C 0.7529 0.16927 0.31738 0.0
C566 C 0.76752 0.15164 0.31473 0.0
C567 C 0.75971 0.13045 0.30682 0.0
C568 C 0.73683 0.12738 0.30166 0.0
C569 C 0.71848 0.24008 0.39583 0.0
H570 H 0.62709 0.1827 0.2518 0.0
H571 H 0.65546 0.17547 0.28008 0.0
H572 H 0.66923 0.24669 0.28789 0.0
H573 H 0.64023 0.25393 0.26048 0.0
H574 H 0.69555 0.17791 0.28532 0.0
H575 H 0.67332 0.23342 0.32513 0.0
H576 H 0.7303 0.19691 0.3462 0.0
H577 H 0.71639 0.20748 0.38047 0.0
H578 H 0.6961 0.26268 0.3399 0.0
H579 H 0.70364 0.28855 0.37139 0.0
H580 H 0.70462 0.14193 0.30057 0.0
H581 H 0.75963 0.1854 0.32322 0.0
H582 H 0.72513 0.23378 0.4113 0.0
H583 H 0.73024 0.1114 0.29524 0.0
H584 H 0.78496 0.15462 0.3191 0.0
C585 C 0.4838 0.12811 1.00009 0.0
C586 C 0.48759 0.12661 0.02316 0.0
C587 C 0.48124 0.1087 0.98678 0.0
C588 C 0.48194 0.08743 0.99637 0.0
C589 C 0.48541 0.0859 0.01951 0.0
C590 C 0.48848 0.10536 0.03278 0.0
C591 C 0.47938 0.067 0.98203 0.0
C592 C 0.49329 0.06433 0.96353 0.0
C593 C 0.49052 0.04567 0.94906 0.0
C594 C 0.47328 0.02982 0.95294 0.0
C595 C 0.45879 0.03254 0.97106 0.0
C596 C 0.46232 0.05087 0.98592 0.0
C597 C 0.43877 0.01744 0.97299 0.0
C598 C 0.4247 0.01366 0.95435 0.0
C599 C 0.4334 0.00692 0.99313 0.0
C600 C 0.41469 0.99223 0.99429 0.0
C601 C 0.40086 0.98803 0.9754 0.0
C602 C 0.50495 0.0435 0.92925 0.0
C603 C 0.50696 0.06122 0.91431 0.0
C604 C 0.51709 0.02409 0.92537 0.0
C605 C 0.5317 0.02282 0.90729 0.0
C606 C 0.53418 0.04084 0.89256 0.0
C607 C 0.52117 0.05982 0.89608 0.0
C608 C 0.40593 0.99935 0.95559 0.0
H609 H 0.48305 0.14433 0.99233 0.0
H610 H 0.47849 0.11029 0.96898 0.0
H611 H 0.48607 0.06966 0.02723 0.0
H612 H 0.49121 0.10385 0.05058 0.0
H613 H 0.50641 0.0768 0.96045 0.0
H614 H 0.45102 0.0533 0.99971 0.0
H615 H 0.47068 0.01574 0.9414 0.0
H616 H 0.42812 0.02197 0.93878 0.0
H617 H 0.44397 0.00965 0.00777 0.0
H618 H 0.41141 0.98377 0.0098 0.0
H619 H 0.49747 0.07621 0.91674 0.0
H620 H 0.51579 0.0102 0.93671 0.0
H621 H 0.39535 0.99719 0.94089 0.0
H622 H 0.52201 0.07376 0.88478 0.0
H623 H 0.54151 0.00802 0.90529 0.0
Mn624 Mn 0.25698 0.87761 0.00762 0.0
Mn625 Mn 0.25555 0.89359 0.954 0.0
C626 C 0.23962 0.85463 0.98038 0.0
C627 C 0.27489 0.85927 0.03657 0.0
C628 C 0.22679 0.91382 0.99032 0.0
O629 O 0.28128 0.90259 0.00665 0.0
O630 O 0.28163 0.90847 0.96952 0.0
C631 C 0.29661 0.87221 0.93834 0.0
N632 N 0.27422 0.87501 0.93638 0.0
C633 C 0.27144 0.84879 0.90538 0.0
C634 C 0.29453 0.84593 0.90683 0.0
C635 C 0.30715 0.85762 0.92345 0.0
C636 C 0.26187 0.86362 0.92064 0.0
H637 H 0.30632 0.88088 0.95129 0.0
C638 C 0.28964 0.91169 0.98931 0.0
O639 O 0.26043 0.87453 0.04063 0.0
O640 O 0.27948 0.85533 0.01579 0.0
N641 N 0.23123 0.87993 0.93715 0.0
C642 C 0.20896 0.88352 0.93885 0.0
C643 C 0.19392 0.87261 0.9238 0.0
C644 C 0.20192 0.85822 0.9071 0.0
C645 C 0.22491 0.85485 0.90561 0.0
C646 C 0.23912 0.86636 0.92093 0.0
H647 H 0.20269 0.8946 0.95159 0.0
O648 O 0.23463 0.85225 1.00124 0.0
O649 O 0.25436 0.87033 0.97636 0.0
O650 O 0.23254 0.90071 0.0058 0.0
O651 O 0.23522 0.91327 0.97078 0.0
C652 C 0.23422 0.84019 0.88981 0.0
C653 C 0.25746 0.8371 0.88975 0.0
H654 H 0.30271 0.83457 0.89547 0.0
H655 H 0.32495 0.85529 0.92485 0.0
H656 H 0.17619 0.87523 0.9251 0.0
H657 H 0.19024 0.84964 0.89568 0.0
H658 H 0.22362 0.83092 0.87789 0.0
H659 H 0.26438 0.82548 0.87778 0.0
Mn660 Mn 0.14437 0.51128 0.25319 0.0
Mn661 Mn 0.12752 0.56466 0.25429 0.0
C662 C 0.16653 0.53967 0.23811 0.0
C663 C 0.16354 0.48229 0.2697 0.0
C664 C 0.10825 0.52873 0.22224 0.0
O665 O 0.11969 0.51068 0.27667 0.0
O666 O 0.1125 0.54756 0.27826 0.0
C667 C 0.14762 0.57921 0.29776 0.0
N668 N 0.14535 0.58199 0.27535 0.0
C669 C 0.17087 0.61397 0.27647 0.0
C670 C 0.17327 0.61161 0.2996 0.0
C671 C 0.16165 0.5941 0.31028 0.0
C672 C 0.15663 0.59864 0.26488 0.0
H673 H 0.1389 0.56565 0.306 0.0
C674 C 0.10984 0.52747 0.28521 0.0
O675 O 0.14809 0.4782 0.25466 0.0
O676 O 0.16704 0.50307 0.27581 0.0
N677 N 0.14112 0.58313 0.2321 0.0
C678 C 0.13767 0.58258 0.20957 0.0
C679 C 0.14834 0.59879 0.19636 0.0
C680 C 0.16232 0.61549 0.20644 0.0
C681 C 0.16548 0.61583 0.22967 0.0
C682 C 0.15423 0.59937 0.242 0.0
H683 H 0.12688 0.56985 0.20171 0.0
O684 O 0.16915 0.51897 0.232 0.0
O685 O 0.15113 0.54297 0.2527 0.0
O686 O 0.12109 0.51317 0.22805 0.0
O687 O 0.1087 0.54819 0.2316 0.0
C688 C 0.17961 0.63166 0.24103 0.0
C689 C 0.18237 0.63068 0.2644 0.0
H690 H 0.18415 0.623 0.3093 0.0
H691 H 0.16356 0.59205 0.3281 0.0
H692 H 0.14585 0.59839 0.17844 0.0
H693 H 0.17071 0.62782 0.19618 0.0
H694 H 0.18868 0.64447 0.23191 0.0
H695 H 0.19352 0.64275 0.27291 0.0
Mn696 Mn 0.76059 0.62898 0.01301 0.0
Mn697 Mn 0.71358 0.64998 0.99094 0.0
C698 C 0.72757 0.60752 0.0115 0.0
C699 C 0.79387 0.60974 0.0105 0.0
C700 C 0.73134 0.66322 0.037 0.0
O701 O 0.77282 0.65561 0.99518 0.0
O702 O 0.74024 0.66736 0.98094 0.0
C703 C 0.72183 0.63742 0.94379 0.0
N704 N 0.70852 0.63654 0.96205 0.0
C705 C 0.68078 0.61371 0.94217 0.0
C706 C 0.69413 0.61448 0.9231 0.0
C707 C 0.71477 0.62633 0.92395 0.0
C708 C 0.68873 0.62501 0.96149 0.0
H709 H 0.73773 0.64647 0.94439 0.0
C710 C 0.7615 0.66886 0.9833 0.0
O711 O 0.79023 0.62366 0.02684 0.0
O712 O 0.77856 0.60756 0.99503 0.0
N713 N 0.68632 0.63487 0.99912 0.0
C714 C 0.67541 0.6359 0.01894 0.0
C715 C 0.65434 0.62514 0.02084 0.0
C716 C 0.64462 0.61365 1.00231 0.0
C717 C 0.656 0.61316 0.98199 0.0
C718 C 0.67682 0.62441 0.98103 0.0
H719 H 0.68272 0.64483 0.03319 0.0
O720 O 0.74318 0.60301 0.02573 0.0
O721 O 0.73172 0.62436 0.99862 0.0
O722 O 0.74805 0.65051 0.03646 0.0
O723 O 0.7173 0.66436 0.02088 0.0
C724 C 0.64755 0.60185 0.96269 0.0
C725 C 0.65999 0.60203 0.94282 0.0
H726 H 0.68875 0.60594 0.90777 0.0
H727 H 0.72521 0.62692 0.90933 0.0
H728 H 0.64564 0.62564 0.03656 0.0
H729 H 0.62848 0.60517 1.0039 0.0
H730 H 0.63159 0.59282 0.96299 0.0
H731 H 0.65341 0.59311 0.92815 0.0
Mn732 Mn 0.87399 0.01515 0.25821 0.0
Mn733 Mn 0.89288 0.9624 0.25522 0.0
C734 C 0.85335 0.98702 0.23953 0.0
C735 C 0.85424 0.04421 0.27459 0.0
C736 C 0.91093 0.9999 0.22662 0.0
O737 O 0.89724 0.01522 0.28351 0.0
O738 O 0.90836 0.97959 0.27994 0.0
C739 C 0.875 0.94647 0.29821 0.0
N740 N 0.87639 0.94419 0.27561 0.0
C741 C 0.85214 0.91126 0.27541 0.0
C742 C 0.85054 0.91319 0.29869 0.0
C743 C 0.86198 0.9309 0.31013 0.0
C744 C 0.86534 0.92729 0.26443 0.0
H745 H 0.88371 0.96009 0.30708 0.0
C746 C 0.90919 0.99897 0.28956 0.0
O747 O 0.87067 0.04802 0.26115 0.0
O748 O 0.84977 0.0234 0.27936 0.0
N749 N 0.87919 0.94371 0.23227 0.0
C750 C 0.88193 0.94461 0.20975 0.0
C751 C 0.87132 0.92822 0.19584 0.0
C752 C 0.85819 0.91099 0.20523 0.0
C753 C 0.85588 0.91023 0.22846 0.0
C754 C 0.86699 0.92691 0.2415 0.0
H755 H 0.89204 0.95778 0.20243 0.0
O756 O 0.85067 0.00789 0.23472 0.0
O757 O 0.86807 0.98323 0.25497 0.0
O758 O 0.89844 0.01478 0.23475 0.0
O759 O 0.91048 0.97964 0.23313 0.0
C760 C 0.84277 0.89372 0.23918 0.0
C761 C 0.84088 0.89426 0.26263 0.0
H762 H 0.84046 0.90126 0.30793 0.0
H763 H 0.86074 0.93256 0.32808 0.0
H764 H 0.87322 0.92891 0.17792 0.0
H765 H 0.84987 0.89851 0.19443 0.0
H766 H 0.83385 0.88071 0.22953 0.0
H767 H 0.8305 0.88166 0.27066 0.0
Mn768 Mn 0.2598 0.13339 0.50933 0.0
Mn769 Mn 0.21382 0.15583 0.4866 0.0
C770 C 0.2259 0.11338 0.50851 0.0
C771 C 0.29236 0.113 0.50744 0.0
C772 C 0.23234 0.16975 0.53221 0.0
O773 O 0.27306 0.15882 0.49055 0.0
O774 O 0.24117 0.17118 0.47542 0.0
C775 C 0.22067 0.14074 0.43989 0.0
N776 N 0.20764 0.14139 0.45836 0.0
C777 C 0.17849 0.11922 0.43981 0.0
C778 C 0.19155 0.11842 0.42055 0.0
C779 C 0.21275 0.12917 0.42062 0.0
C780 C 0.18731 0.13093 0.45854 0.0
H781 H 0.237 0.14894 0.4399 0.0
C782 C 0.26246 0.17182 0.47775 0.0
O783 O 0.28913 0.1275 0.52335 0.0
O784 O 0.27697 0.11072 0.49205 0.0
N785 N 0.186 0.14254 0.49579 0.0
C786 C 0.1755 0.14495 0.51571 0.0
C787 C 0.15397 0.13542 0.51834 0.0
C788 C 0.14339 0.1237 0.50041 0.0
C789 C 0.15439 0.12173 0.47997 0.0
C790 C 0.17571 0.13181 0.47826 0.0
H791 H 0.18347 0.15407 0.5295 0.0
O792 O 0.24134 0.10857 0.52283 0.0
O793 O 0.23076 0.12962 0.49511 0.0
O794 O 0.24822 0.15603 0.53214 0.0
O795 O 0.2186 0.17136 0.5159 0.0
C796 C 0.14508 0.11006 0.46126 0.0
C797 C 0.15717 0.1087 0.44123 0.0
H798 H 0.18551 0.10951 0.40565 0.0
H799 H 0.22296 0.12855 0.40585 0.0
H800 H 0.14558 0.13704 0.53416 0.0
H801 H 0.12689 0.11617 0.50258 0.0
H802 H 0.12871 0.10191 0.46215 0.0
H803 H 0.14994 0.0995 0.42703 0.0
Mn804 Mn 0.37662 0.52014 0.75712 0.0
Mn805 Mn 0.39625 0.46777 0.75272 0.0
C806 C 0.35636 0.4922 0.73775 0.0
C807 C 0.35625 0.54831 0.77429 0.0
C808 C 0.41375 0.50632 0.72508 0.0
O809 O 0.39986 0.51983 0.78243 0.0
O810 O 0.4114 0.48443 0.77799 0.0
C811 C 0.37851 0.45029 0.79518 0.0
N812 N 0.37997 0.44872 0.77254 0.0
C813 C 0.35604 0.41555 0.77131 0.0
C814 C 0.35439 0.41674 0.79463 0.0
C815 C 0.36564 0.43422 0.8066 0.0
C816 C 0.3691 0.43205 0.76084 0.0
H817 H 0.38707 0.46373 0.80446 0.0
C818 C 0.41192 0.50354 0.78817 0.0
O819 O 0.37263 0.55286 0.76099 0.0
O820 O 0.35228 0.52729 0.77852 0.0
N821 N 0.38282 0.4496 0.72923 0.0
C822 C 0.38554 0.45124 0.70675 0.0
C823 C 0.37509 0.43519 0.69236 0.0
C824 C 0.36213 0.41753 0.7012 0.0
C825 C 0.35982 0.41601 0.72439 0.0
C826 C 0.37078 0.4324 0.73792 0.0
H827 H 0.3955 0.46475 0.69984 0.0
O828 O 0.35338 0.51314 0.73348 0.0
O829 O 0.37118 0.48825 0.75305 0.0
O830 O 0.40106 0.52082 0.7336 0.0
O831 O 0.41363 0.48591 0.73115 0.0
C832 C 0.34686 0.39905 0.73459 0.0
C833 C 0.34494 0.39884 0.75803 0.0
H834 H 0.34442 0.40443 0.80349 0.0
H835 H 0.36436 0.43532 0.82459 0.0
H836 H 0.37697 0.43646 0.67448 0.0
H837 H 0.35393 0.4053 0.69004 0.0
H838 H 0.33805 0.38626 0.72455 0.0
H839 H 0.33467 0.38589 0.76566 0.0
Mn840 Mn 0.75334 0.37609 0.51748 0.0
Mn841 Mn 0.74936 0.39487 0.46475 0.0
C842 C 0.73401 0.35499 0.49034 0.0
C843 C 0.7709 0.35665 0.54582 0.0
C844 C 0.72177 0.41276 0.50281 0.0
O845 O 0.77852 0.39995 0.51649 0.0
O846 O 0.77487 0.41043 0.48069 0.0
C847 C 0.79148 0.37696 0.44748 0.0
N848 N 0.76887 0.37831 0.44607 0.0
C849 C 0.76721 0.35387 0.41364 0.0
C850 C 0.79049 0.35231 0.41468 0.0
C851 C 0.80267 0.36387 0.43171 0.0
C852 C 0.75698 0.36714 0.42984 0.0
H853 H 0.80091 0.38575 0.46057 0.0
C854 C 0.78472 0.41158 0.49981 0.0
O855 O 0.75731 0.3726 0.55014 0.0
O856 O 0.77496 0.35245 0.52491 0.0
N857 N 0.72562 0.38101 0.44726 0.0
C858 C 0.70319 0.38366 0.44903 0.0
C859 C 0.68861 0.37291 0.43344 0.0
C860 C 0.69721 0.35971 0.41609 0.0
C861 C 0.72036 0.35748 0.41443 0.0
C862 C 0.73409 0.36873 0.43035 0.0
H863 H 0.69647 0.39381 0.46229 0.0
O864 O 0.72978 0.35213 0.51131 0.0
O865 O 0.74932 0.3701 0.48591 0.0
O866 O 0.72978 0.40009 0.51757 0.0
O867 O 0.72815 0.41254 0.48253 0.0
C868 C 0.73032 0.3443 0.39776 0.0
C869 C 0.75373 0.34247 0.39739 0.0
H870 H 0.79918 0.34218 0.40259 0.0
H871 H 0.82063 0.36267 0.43268 0.0
H872 H 0.67076 0.37474 0.43482 0.0
H873 H 0.6859 0.35128 0.40422 0.0
H874 H 0.72012 0.33526 0.38533 0.0
H875 H 0.76116 0.33203 0.38469 0.0
Mn876 Mn 0.65208 1.00482 0.76022 0.0
Mn877 Mn 0.63488 0.05783 0.75558 0.0
C878 C 0.67465 0.03187 0.74347 0.0
C879 C 0.67077 0.97741 0.77975 0.0
C880 C 0.61698 0.019 0.72629 0.0
O881 O 0.62665 0.00623 0.78281 0.0
O882 O 0.619 0.04291 0.78043 0.0
C883 C 0.65323 0.07644 0.79838 0.0
N884 N 0.6518 0.07714 0.7757 0.0
C885 C 0.67715 0.10921 0.7749 0.0
C886 C 0.67864 0.10902 0.79827 0.0
C887 C 0.66669 0.09251 0.81004 0.0
C888 C 0.66343 0.0928 0.76419 0.0
H889 H 0.64429 0.06363 0.80748 0.0
C890 C 0.61631 0.02361 0.78925 0.0
O891 O 0.65572 0.97208 0.76464 0.0
O892 O 0.67411 0.9986 0.78424 0.0
N893 N 0.64932 0.07422 0.73233 0.0
C894 C 0.64682 0.07151 0.70979 0.0
C895 C 0.658 0.08645 0.69557 0.0
C896 C 0.6715 0.10408 0.70464 0.0
C897 C 0.67368 0.10664 0.72788 0.0
C898 C 0.66195 0.09137 0.74123 0.0
H899 H 0.63642 0.05804 0.70269 0.0
O900 O 0.67754 0.01077 0.73929 0.0
O901 O 0.65869 0.03633 0.75711 0.0
O902 O 0.62963 1.00424 0.73423 0.0
O903 O 0.61701 0.03925 0.73366 0.0
C904 C 0.68729 0.12353 0.73832 0.0
C905 C 0.68909 0.12476 0.76181 0.0
H906 H 0.68909 0.12131 0.80733 0.0
H907 H 0.66792 0.09211 0.82807 0.0
H908 H 0.65627 0.08433 0.67765 0.0
H909 H 0.68028 0.11542 0.69362 0.0
H910 H 0.6967 0.13545 0.72842 0.0
H911 H 0.69986 0.13762 0.76963 0.0
Mn912 Mn 0.01484 0.2518 0.87923 0.0
Mn913 Mn 0.96268 0.24387 0.89897 0.0
C914 C 0.98793 0.23165 0.85832 0.0
C915 C 0.04168 0.27176 0.85893 0.0
C916 C 1.00251 0.21847 0.91571 0.0
O917 O 0.01324 0.27602 0.90393 0.0
O918 O 0.97721 0.27071 0.91375 0.0
C919 C 0.94259 0.28451 0.88078 0.0
N920 N 0.94248 0.2618 0.88268 0.0
C921 C 0.90984 0.25743 0.85902 0.0
C922 C 0.90941 0.28078 0.85711 0.0
C923 C 0.92592 0.29437 0.86795 0.0
C924 C 0.92684 0.24856 0.87208 0.0
H925 H 0.9554 0.29501 0.88882 0.0
C926 C 0.99605 0.2815 0.91508 0.0
O927 O 0.04724 0.25804 0.87443 0.0
O928 O 0.02049 0.27484 0.85606 0.0
N929 N 0.94667 0.21868 0.88559 0.0
C930 C 0.95026 0.19642 0.88796 0.0
C931 C 0.93565 0.18053 0.87749 0.0
C932 C 0.91745 0.18767 0.8648 0.0
C933 C 0.91399 0.21066 0.86274 0.0
C934 C 0.92898 0.22572 0.87372 0.0
H935 H 0.9642 0.1908 0.8977 0.0
O936 O 0.00897 0.22878 0.85476 0.0
O937 O 0.9834 0.24597 0.87403 0.0
O938 O 0.01655 0.22725 0.90238 0.0
O939 O 0.98209 0.22403 0.91643 0.0
C940 C 0.89648 0.21922 0.84989 0.0
C941 C 0.89443 0.24259 0.84801 0.0
H942 H 0.89668 0.28844 0.8471 0.0
H943 H 0.92585 0.31239 0.86635 0.0
H944 H 0.93845 0.16281 0.87914 0.0
H945 H 0.90635 0.17537 0.85657 0.0
H946 H 0.88472 0.20798 0.84109 0.0
H947 H 0.88116 0.24896 0.83773 0.0
Mn948 Mn 0.50735 0.76001 0.38327 0.0
Mn949 Mn 0.45376 0.76127 0.40009 0.0
C950 C 0.47861 0.74555 0.36048 0.0
C951 C 0.53862 0.77487 0.36505 0.0
C952 C 0.48683 0.72857 0.41811 0.0
O953 O 0.50869 0.78416 0.4081 0.0
O954 O 0.47218 0.78408 0.41716 0.0
C955 C 0.44314 0.8062 0.38359 0.0
N956 N 0.43875 0.78368 0.38381 0.0
C957 C 0.40812 0.78681 0.35785 0.0
C958 C 0.41224 0.81006 0.35745 0.0
C959 C 0.42985 0.81978 0.37035 0.0
C960 C 0.42191 0.77414 0.37138 0.0
H961 H 0.45671 0.81374 0.3934 0.0
C962 C 0.49239 0.79158 0.41942 0.0
O963 O 0.5404 0.76019 0.38061 0.0
O964 O 0.51872 0.78179 0.3608 0.0
N965 N 0.43415 0.74018 0.38457 0.0
C966 C 0.4329 0.71744 0.38621 0.0
C967 C 0.41625 0.70511 0.37418 0.0
C968 C 0.40102 0.71629 0.3607 0.0
C969 C 0.40255 0.73972 0.3594 0.0
C970 C 0.41934 0.75113 0.37195 0.0
H971 H 0.44453 0.70875 0.39656 0.0
O972 O 0.49876 0.7386 0.35808 0.0
O973 O 0.47594 0.76025 0.37634 0.0
O974 O 0.5031 0.73527 0.40617 0.0
O975 O 0.46764 0.73729 0.41741 0.0
C976 C 0.38828 0.75216 0.3459 0.0
C977 C 0.39111 0.77568 0.34506 0.0
H978 H 0.40208 0.82058 0.34719 0.0
H979 H 0.4332 0.8377 0.37004 0.0
H980 H 0.41522 0.68703 0.37522 0.0
H981 H 0.38836 0.70671 0.35126 0.0
H982 H 0.37527 0.74378 0.33586 0.0
H983 H 0.38023 0.78504 0.33439 0.0
Mn984 Mn 0.00632 0.75752 0.62698 0.0
Mn985 Mn 0.98189 0.71004 0.64626 0.0
C986 C 0.00546 0.72487 0.60521 0.0
C987 C 1.00476 0.79146 0.60836 0.0
C988 C 0.02706 0.72868 0.66273 0.0
O989 O 0.9874 0.76874 0.65308 0.0
O990 O 0.96876 0.73643 0.66104 0.0
C991 C 0.93638 0.71532 0.62774 0.0
N992 N 0.95498 0.70297 0.62982 0.0
C993 C 0.93875 0.6733 0.60656 0.0
C994 C 0.91929 0.68556 0.60444 0.0
C995 C 0.91815 0.70671 0.61499 0.0
C996 C 0.95639 0.68276 0.61946 0.0
H997 H 0.93553 0.73167 0.63564 0.0
C998 C 0.9723 0.75763 0.66355 0.0
O999 O 0.02059 0.78764 0.62259 0.0
O1000 O 0.9893 0.77591 0.60543 0.0
N1001 N 0.99291 0.68315 0.63309 0.0
C1002 C 0.01318 0.67384 0.6361 0.0
C1003 C 0.01717 0.65277 0.62637 0.0
C1004 C 1.00026 0.64141 0.61383 0.0
C1005 C 0.97947 0.65121 0.61114 0.0
C1006 C 0.97639 0.67215 0.6214 0.0
H1007 H 0.0262 0.68239 0.64586 0.0
O1008 O 0.01996 0.74087 0.60128 0.0
O1009 O 0.9919 0.72859 0.62148 0.0
O1010 O 0.02861 0.74452 0.64882 0.0
O1011 O 0.00985 0.71554 0.66394 0.0
C1012 C 0.9618 0.64117 0.59844 0.0
C1013 C 0.94149 0.65226 0.59606 0.0
H1014 H 0.90522 0.67901 0.59457 0.0
H1015 H 0.90327 0.71637 0.61326 0.0
H1016 H 0.03327 0.64533 0.62851 0.0
H1017 H 1.00347 0.62526 0.60618 0.0
H1018 H 0.96377 0.62507 0.59016 0.0
H1019 H 0.92815 0.64453 0.58596 0.0
Mn1020 Mn 0.51203 0.25917 0.13158 0.0
Mn1021 Mn 0.48472 0.21132 0.14644 0.0
C1022 C 0.51456 0.22683 0.10971 0.0
C1023 C 0.51334 0.29361 0.11339 0.0
C1024 C 0.52757 0.22895 0.16909 0.0
O1025 O 0.48953 0.27012 0.15458 0.0
O1026 O 0.47053 0.23758 0.16042 0.0
C1027 C 0.44177 0.21834 0.12309 0.0
N1028 N 0.4597 0.20544 0.12691 0.0
C1029 C 0.44496 0.1763 0.1021 0.0
C1030 C 0.42623 0.18919 0.09804 0.0
C1031 C 0.4247 0.21035 0.10849 0.0
C1032 C 0.46152 0.18522 0.11667 0.0
H1033 H 0.44055 0.23461 0.13107 0.0
C1034 C 0.47358 0.25876 0.16342 0.0
O1035 O 0.52661 0.28953 0.12997 0.0
O1036 O 0.49876 0.27789 0.10776 0.0
N1037 N 0.49637 0.18435 0.13409 0.0
C1038 C 0.51583 0.17432 0.13927 0.0
C1039 C 0.52017 0.15319 0.12986 0.0
C1040 C 0.50434 0.14246 0.1155 0.0
C1041 C 0.48426 0.15291 0.11074 0.0
C1042 C 0.48084 0.17394 0.12066 0.0
H1043 H 0.52797 0.18237 0.15046 0.0
O1044 O 0.52952 0.24293 0.1083 0.0
O1045 O 0.49845 0.23024 0.12356 0.0
O1046 O 0.53074 0.24572 0.15649 0.0
O1047 O 0.51054 0.21556 0.16722 0.0
C1048 C 0.46761 0.1434 0.09638 0.0
C1049 C 0.44799 0.15511 0.09202 0.0
H1050 H 0.41303 0.18308 0.0868 0.0
H1051 H 0.41036 0.22045 0.10534 0.0
H1052 H 0.53567 0.1452 0.13368 0.0
H1053 H 0.5078 0.12623 0.10817 0.0
H1054 H 0.46986 0.12723 0.08834 0.0
H1055 H 0.43547 0.14778 0.08067 0.0
H1056 H 0.23997 0.77554 0.90996 0.0
H1057 H 0.16935 0.78792 0.90827 0.0
H1058 H 0.17448 0.81596 0.93819 0.0
H1059 H 0.19949 0.83859 0.96376 0.0
H1060 H 0.27035 0.82882 0.96176 0.0
H1061 H 0.26472 0.79836 0.93429 0.0
C1062 C 0.22565 0.7845 0.91582 0.0
C1063 C 0.2043 0.77946 0.90666 0.0
C1064 C 0.22879 0.80115 0.93249 0.0
C1065 C 0.18597 0.79103 0.91512 0.0
C1066 C 0.18888 0.80723 0.93219 0.0
C1067 C 0.21357 0.82966 0.95727 0.0
C1068 C 0.2353 0.83604 0.96433 0.0
C1069 C 0.21025 0.81259 0.94089 0.0
C1070 C 0.25351 0.82432 0.95616 0.0
C1071 C 0.2503 0.8069 0.94053 0.0
H1072 H 0.04148 0.50211 0.36165 0.0
H1073 H 0.05443 0.57213 0.3783 0.0
H1074 H 0.08005 0.57536 0.34739 0.0
H1075 H 0.0983 0.55901 0.31539 0.0
H1076 H 0.08796 0.48876 0.2989 0.0
H1077 H 0.06214 0.48486 0.33025 0.0
C1078 C 0.05007 0.51801 0.35865 0.0
C1079 C 0.04551 0.53697 0.37211 0.0
C1080 C 0.06529 0.51975 0.3409 0.0
C1081 C 0.05692 0.55741 0.36789 0.0
C1082 C 0.07179 0.55927 0.35029 0.0
C1083 C 0.09045 0.54278 0.31855 0.0
C1084 C 0.09492 0.52426 0.30462 0.0
C1085 C 0.07592 0.54066 0.33659 0.0
C1086 C 0.0848 0.50332 0.30932 0.0
C1087 C 0.07 0.50111 0.32722 0.0
H1088 H 0.78327 0.75357 0.92681 0.0
H1089 H 0.83104 0.70969 0.89746 0.0
H1090 H 0.82249 0.68145 0.92563 0.0
H1091 H 0.79795 0.66762 0.95608 0.0
H1092 H 0.74926 0.71171 0.98363 0.0
H1093 H 0.76175 0.74149 0.95898 0.0
C1094 C 0.79193 0.73788 0.92669 0.0
C1095 C 0.8075 0.73357 0.90992 0.0
C1096 C 0.7867 0.72171 0.94266 0.0
C1097 C 0.81894 0.71338 0.91021 0.0
C1098 C 0.81397 0.69719 0.92625 0.0
C1099 C 0.79057 0.68396 0.95702 0.0
C1100 C 0.77272 0.68753 0.97159 0.0
C1101 C 0.79744 0.70093 0.94224 0.0
C1102 C 0.763 0.70863 0.97248 0.0
C1103 C 0.77005 0.72562 0.95833 0.0
H1104 H 0.95627 0.01267 0.38404 0.0
H1105 H 0.99753 0.96118 0.35645 0.0
H1106 H 0.97682 0.9619 0.32139 0.0
H1107 H 0.94604 0.97566 0.29898 0.0
H1108 H 0.90554 0.02827 0.32519 0.0
H1109 H 0.92739 0.02907 0.36004 0.0
C1110 C 0.961 1.00184 0.37029 0.0
C1111 C 0.97825 0.98654 0.37326 0.0
C1112 C 0.94921 1.00258 0.34982 0.0
C1113 C 0.98395 0.97263 0.35508 0.0
C1114 C 0.97223 0.97315 0.33486 0.0
C1115 C 0.94206 0.98745 0.31224 0.0
C1116 C 0.92404 1.00175 0.30952 0.0
C1117 C 0.95463 0.98779 0.33216 0.0
C1118 C 0.91935 0.01712 0.32678 0.0
C1119 C 0.93176 0.01747 0.34678 0.0
H1120 H 0.23439 0.22412 0.62395 0.0
H1121 H 0.18662 0.26322 0.58861 0.0
H1122 H 0.18945 0.23853 0.5558 0.0
H1123 H 0.20557 0.20581 0.53708 0.0
H1124 H 0.25373 0.16711 0.57257 0.0
H1125 H 0.25043 0.19149 0.60534 0.0
C1126 C 0.22444 0.22713 0.60914 0.0
C1127 C 0.21029 0.24549 0.60878 0.0
C1128 C 0.22619 0.2129 0.59031 0.0
C1129 C 0.19781 0.24935 0.58928 0.0
C1130 C 0.19934 0.23516 0.57054 0.0
C1131 C 0.2153 0.20264 0.55199 0.0
C1132 C 0.22988 0.18456 0.55223 0.0
C1133 C 0.2135 0.21689 0.57084 0.0
C1134 C 0.24242 0.18087 0.57176 0.0
C1135 C 0.24054 0.19482 0.59058 0.0
H1136 H 0.46346 0.54856 0.64262 0.0
H1137 H 0.49811 0.48631 0.64535 0.0
H1138 H 0.47613 0.47511 0.67752 0.0
H1139 H 0.44672 0.48274 0.70481 0.0
H1140 H 0.4136 0.54593 0.70294 0.0
H1141 H 0.43575 0.55708 0.67098 0.0
C1142 C 0.46654 0.53268 0.65039 0.0
C1143 C 0.48242 0.51831 0.64128 0.0
C1144 C 0.45413 0.52647 0.66921 0.0
C1145 C 0.48573 0.49761 0.65156 0.0
C1146 C 0.47327 0.49122 0.67014 0.0
C1147 C 0.44441 0.499 0.69751 0.0
C1148 C 0.4284 0.51339 0.70639 0.0
C1149 C 0.45733 0.50546 0.67906 0.0
C1150 C 0.42578 0.53444 0.69663 0.0
C1151 C 0.43841 0.54086 0.67824 0.0
H1152 H 0.79212 0.30232 0.63218 0.0
H1153 H 0.82579 0.26095 0.58411 0.0
H1154 H 0.81634 0.2867 0.55452 0.0
H1155 H 0.79715 0.32023 0.54198 0.0
H1156 H 0.76424 0.36175 0.59047 0.0
H1157 H 0.77533 0.33699 0.62022 0.0
C1158 C 0.7978 0.29909 0.61533 0.0
C1159 C 0.80955 0.27957 0.61046 0.0
C1160 C 0.79248 0.31405 0.59841 0.0
C1161 C 0.81637 0.27558 0.58836 0.0
C1162 C 0.8111 0.29039 0.57141 0.0
C1163 C 0.79262 0.32399 0.55909 0.0
C1164 C 0.77979 0.34278 0.56393 0.0
C1165 C 0.79893 0.30955 0.57619 0.0
C1166 C 0.77406 0.34739 0.58621 0.0
C1167 C 0.78035 0.3332 0.60327 0.0
H1168 H 0.56197 0.97798 0.64343 0.0
H1169 H 0.53374 0.04354 0.64599 0.0
H1170 H 0.55739 0.05395 0.67824 0.0
H1171 H 0.58616 0.04456 0.70563 0.0
H1172 H 0.61416 0.97876 0.70344 0.0
H1173 H 0.59059 0.96843 0.67121 0.0
C1174 C 0.56114 0.99459 0.65097 0.0
C1175 C 0.54612 0.00996 0.6423 0.0
C1176 C 0.5747 1.00044 0.66964 0.0
C1177 C 0.54501 0.03132 0.65245 0.0
C1178 C 0.55858 0.03732 0.67085 0.0
C1179 C 0.58712 0.02792 0.69819 0.0
C1180 C 0.60201 0.01251 0.70708 0.0
C1181 C 0.57346 0.022 0.67963 0.0
C1182 C 0.60289 0.99102 0.69709 0.0
C1183 C 0.58943 0.98507 0.67857 0.0
H1184 H 0.91786 0.18927 0.78913 0.0
H1185 H 0.90521 0.25951 0.78043 0.0
H1186 H 0.93374 0.26964 0.80822 0.0
H1187 H 0.96216 0.25887 0.83524 0.0
H1188 H 0.9774 0.18937 0.84231 0.0
H1189 H 0.94849 0.17863 0.81431 0.0
C1190 C 0.9215 0.20682 0.793 0.0
C1191 C 0.90898 0.22352 0.78275 0.0
C1192 C 0.93852 0.21268 0.80861 0.0
C1193 C 0.91397 0.24616 0.78836 0.0
C1194 C 0.93054 0.25206 0.80409 0.0
C1195 C 0.95906 0.24137 0.83063 0.0
C1196 C 0.97121 0.2248 0.84117 0.0
C1197 C 0.94278 0.23549 0.81441 0.0
C1198 C 0.9678 0.20228 0.83462 0.0
C1199 C 0.95132 0.1962 0.81866 0.0
H1200 H 0.50976 0.88477 0.46918 0.0
H1201 H 0.45425 0.85934 0.5077 0.0
H1202 H 0.4543 0.82411 0.48669 0.0
H1203 H 0.46836 0.80129 0.45602 0.0
H1204 H 0.52454 0.8254 0.41794 0.0
H1205 H 0.52645 0.86003 0.44067 0.0
C1206 C 0.49791 0.87141 0.47327 0.0
C1207 C 0.48169 0.87505 0.48977 0.0
C1208 C 0.49819 0.85088 0.46126 0.0
C1209 C 0.46647 0.85743 0.49468 0.0
C1210 C 0.46659 0.83712 0.48279 0.0
C1211 C 0.4812 0.81401 0.45281 0.0
C1212 C 0.49616 0.81085 0.43517 0.0
C1213 C 0.48208 0.83383 0.46579 0.0
C1214 C 0.51287 0.82737 0.43146 0.0
C1215 C 0.51384 0.84725 0.44435 0.0
H1216 H 0.09935 0.31094 0.78025 0.0
H1217 H 0.15008 0.27364 0.81346 0.0
H1218 H 0.12394 0.26388 0.84295 0.0
H1219 H 0.08615 0.26412 0.85824 0.0
H1220 H 0.03497 0.30048 0.82464 0.0
H1221 H 0.0618 0.31247 0.79648 0.0
C1222 C 0.10465 0.30062 0.79391 0.0
C1223 C 0.12665 0.29299 0.79456 0.0
C1224 C 0.08946 0.29491 0.81078 0.0
C1225 C 0.13334 0.27993 0.8126 0.0
C1226 C 0.11836 0.27424 0.82944 0.0
C1227 C 0.0809 0.27491 0.84493 0.0
C1228 C 0.05854 0.28135 0.84356 0.0
C1229 C 0.09633 0.28145 0.82859 0.0
C1230 C 0.05206 0.29527 0.82613 0.0
C1231 C 0.06738 0.30206 0.80994 0.0
H1232 H 0.48802 0.6504 0.48842 0.0
H1233 H 0.55036 0.63819 0.45573 0.0
H1234 H 0.54476 0.66996 0.43146 0.0
H1235 H 0.5222 0.70101 0.41929 0.0
H1236 H 0.45929 0.71303 0.45113 0.0
H1237 H 0.46513 0.68166 0.47593 0.0
C1238 C 0.50041 0.65481 0.47606 0.0
C1239 C 0.51955 0.6419 0.47386 0.0
C1240 C 0.49699 0.67306 0.46198 0.0
C1241 C 0.53536 0.64768 0.4576 0.0
C1242 C 0.53222 0.66591 0.44377 0.0
C1243 C 0.50975 0.69688 0.43169 0.0
C1244 C 0.49036 0.70952 0.43331 0.0
C1245 C 0.51309 0.67868 0.44576 0.0
C1246 C 0.47438 0.70366 0.44942 0.0
C1247 C 0.47771 0.6857 0.46366 0.0
H1248 H 0.92176 0.81189 0.73863 0.0
H1249 H 0.8712 0.76095 0.72237 0.0
H1250 H 0.89499 0.74526 0.69369 0.0
H1251 H 0.93027 0.74506 0.67422 0.0
H1252 H 0.98103 0.79634 0.68843 0.0
H1253 H 0.957 0.81305 0.71682 0.0
C1254 C 0.91604 0.7974 0.72872 0.0
C1255 C 0.89478 0.78755 0.73259 0.0
C1256 C 0.92977 0.78858 0.71194 0.0
C1257 C 0.88741 0.7689 0.71956 0.0
C1258 C 0.90102 0.75988 0.70322 0.0
C1259 C 0.93613 0.75997 0.68341 0.0
C1260 C 0.95751 0.76931 0.67935 0.0
C1261 C 0.92224 0.76947 0.6994 0.0
C1262 C 0.96464 0.78882 0.69123 0.0
C1263 C 0.95094 0.79829 0.70753 0.0
H1264 H 0.99441 0.87957 0.55295 0.0
H1265 H 0.06312 0.86549 0.53802 0.0
H1266 H 0.06136 0.83348 0.56222 0.0
H1267 H 0.04054 0.8089 0.58749 0.0
H1268 H 0.97059 0.81889 0.59813 0.0
H1269 H 0.97247 0.8527 0.57534 0.0
C1270 C 0.00896 0.8694 0.55456 0.0
C1271 C 0.02906 0.87567 0.54384 0.0
C1272 C 0.00762 0.85013 0.5678 0.0
C1273 C 0.04763 0.862 0.54658 0.0
C1274 C 0.04662 0.84336 0.56028 0.0
C1275 C 0.02575 0.81858 0.58486 0.0
C1276 C 0.00556 0.81176 0.59468 0.0
C1277 C 0.02678 0.83735 0.57108 0.0
C1278 C 0.98634 0.82401 0.59079 0.0
C1279 C 0.98744 0.84329 0.57777 0.0
H1280 H 0.1165 0.72662 0.71971 0.0
H1281 H 0.07642 0.68046 0.75813 0.0
H1282 H 0.04493 0.68463 0.73238 0.0
H1283 H 0.02868 0.70166 0.69908 0.0
H1284 H 0.06881 0.74841 0.66117 0.0
H1285 H 0.10032 0.74357 0.68645 0.0
C1286 C 0.10093 0.71732 0.72232 0.0
C1287 C 0.09884 0.70322 0.74079 0.0
C1288 C 0.08286 0.71991 0.70754 0.0
C1289 C 0.07842 0.69156 0.74415 0.0
C1290 C 0.06043 0.69388 0.72938 0.0
C1291 C 0.04432 0.71076 0.69628 0.0
C1292 C 0.04624 0.7254 0.67817 0.0
C1293 C 0.06243 0.70807 0.71105 0.0
C1294 C 0.0667 0.73709 0.67496 0.0
C1295 C 0.08481 0.73432 0.68942 0.0
H1296 H 0.96979 0.65176 0.53547 0.0
H1297 H 0.03378 0.62412 0.54979 0.0
H1298 H 0.04374 0.65656 0.57403 0.0
H1299 H 0.03347 0.69225 0.59234 0.0
H1300 H 0.96795 0.71759 0.58074 0.0
H1301 H 0.95941 0.687 0.55393 0.0
C1302 C 0.98595 0.653 0.54381 0.0
C1303 C 1.00109 0.63575 0.54088 0.0
C1304 C 0.99128 0.67136 0.55809 0.0
C1305 C 0.02188 0.63725 0.55195 0.0
C1306 C 0.0276 0.65582 0.56566 0.0
C1307 C 0.01741 0.691 0.5838 0.0
C1308 C 1.00116 0.70672 0.58866 0.0
C1309 C 0.01236 0.67289 0.56903 0.0
C1310 C 0.98049 0.70531 0.57743 0.0
C1311 C 0.97564 0.68789 0.56211 0.0
H1312 H 0.78622 0.91523 0.19484 0.0
H1313 H 0.77262 0.90272 0.26404 0.0
H1314 H 0.79988 0.93223 0.27553 0.0
H1315 H 0.828 0.96113 0.26588 0.0
H1316 H 0.84032 0.97564 0.19693 0.0
H1317 H 0.81292 0.94611 0.18515 0.0
C1318 C 0.78931 0.91907 0.21239 0.0
C1319 C 0.77765 0.90687 0.22864 0.0
C1320 C 0.80464 0.93642 0.21883 0.0
C1321 C 0.78147 0.91201 0.25133 0.0
C1322 C 0.79697 0.92886 0.25788 0.0
C1323 C 0.82468 0.9577 0.24829 0.0
C1324 C 0.83657 0.96982 0.2322 0.0
C1325 C 0.80872 0.94108 0.24179 0.0
C1326 C 0.83161 0.96605 0.20949 0.0
C1327 C 0.81599 0.94921 0.20281 0.0
H1328 H 0.80222 0.13293 0.29102 0.0
H1329 H 0.75261 0.08577 0.31548 0.0
H1330 H 0.77786 0.05504 0.30898 0.0
H1331 H 0.81368 0.04133 0.295 0.0
H1332 H 0.86306 0.08892 0.27086 0.0
H1333 H 0.83851 0.11967 0.2792 0.0
C1334 C 0.797 0.11601 0.29529 0.0
C1335 C 0.77543 0.11176 0.30365 0.0
C1336 C 0.81165 0.09842 0.29166 0.0
C1337 C 0.76893 0.08956 0.30867 0.0
C1338 C 0.78344 0.07196 0.30511 0.0
C1339 C 0.81918 0.05846 0.29187 0.0
C1340 C 0.84018 0.06277 0.28228 0.0
C1341 C 0.80479 0.07616 0.29642 0.0
C1342 C 0.84697 0.08508 0.27818 0.0
C1343 C 0.83291 0.10271 0.28288 0.0
H1344 H 0.37131 0.97957 0.00952 0.0
H1345 H 0.38716 0.95877 0.94219 0.0
H1346 H 0.35428 0.93399 0.94077 0.0
H1347 H 0.32059 0.91898 0.95775 0.0
H1348 H 0.30514 0.93665 0.02584 0.0
H1349 H 0.33851 0.96164 0.02795 0.0
C1350 C 0.36775 0.96942 0.99465 0.0
C1351 C 0.38155 0.97159 0.97579 0.0
C1352 C 0.34887 0.95465 0.99403 0.0
C1353 C 0.37655 0.95816 0.9567 0.0
C1354 C 0.3578 0.94378 0.9559 0.0
C1355 C 0.32446 0.92821 0.97313 0.0
C1356 C 0.31022 0.92611 0.99153 0.0
C1357 C 0.34372 0.94213 0.9743 0.0
C1358 C 0.31578 0.938 0.0114 0.0
C1359 C 0.33484 0.95232 0.01258 0.0
H1360 H 0.23942 0.42142 0.30622 0.0
H1361 H 0.20456 0.37229 0.26395 0.0
H1362 H 0.17632 0.39952 0.25495 0.0
H1363 H 0.16259 0.43794 0.25764 0.0
H1364 H 0.19763 0.48696 0.30004 0.0
H1365 H 0.22458 0.45914 0.31052 0.0
C1366 C 0.22565 0.41672 0.295 0.0
C1367 C 0.22417 0.39494 0.28564 0.0
C1368 C 0.20946 0.43244 0.28995 0.0
C1369 C 0.20602 0.38894 0.27144 0.0
C1370 C 0.18991 0.40452 0.26624 0.0
C1371 C 0.17596 0.44246 0.26937 0.0
C1372 C 0.17811 0.46455 0.27795 0.0
C1373 C 0.19157 0.42639 0.27523 0.0
C1374 C 0.19557 0.47011 0.29314 0.0
C1375 C 0.21107 0.45423 0.2991 0.0
H1376 H 0.15024 0.04588 0.47361 0.0
H1377 H 0.12242 0.06291 0.53781 0.0
H1378 H 0.15592 0.0852 0.54735 0.0
H1379 H 0.19258 0.10176 0.53686 0.0
H1380 H 0.21727 0.08944 0.47068 0.0
H1381 H 0.1855 0.06372 0.46244 0.0
C1382 C 0.15112 0.0547 0.48957 0.0
C1383 C 0.13353 0.05234 0.5049 0.0
C1384 C 0.17005 0.06842 0.49466 0.0
C1385 C 0.13568 0.0637 0.52572 0.0
C1386 C 0.15487 0.07668 0.53122 0.0
C1387 C 0.19091 0.09333 0.5207 0.0
C1388 C 0.20686 0.09765 0.50423 0.0
C1389 C 0.1721 0.07931 0.51577 0.0
C1390 C 0.20486 0.08656 0.48342 0.0
C1391 C 0.18676 0.07186 0.47874 0.0
H1392 H 0.75108 0.1065 0.74309 0.0
H1393 H 0.74018 0.09992 0.67209 0.0
H1394 H 0.71261 0.06929 0.67774 0.0
H1395 H 0.69062 0.0452 0.70329 0.0
H1396 H 0.69923 0.0549 0.77433 0.0
H1397 H 0.72888 0.08317 0.76844 0.0
C1398 C 0.74277 0.09816 0.72891 0.0
C1399 C 0.74767 0.10514 0.70724 0.0
C1400 C 0.7266 0.0811 0.73234 0.0
C1401 C 0.73661 0.09464 0.68891 0.0
C1402 C 0.72094 0.07714 0.69214 0.0
C1403 C 0.69913 0.05354 0.71736 0.0
C1404 C 0.69267 0.04843 0.73916 0.0
C1405 C 0.71567 0.07033 0.71381 0.0
C1406 C 0.70381 0.05899 0.7574 0.0
C1407 C 0.72075 0.07507 0.75404 0.0
H1408 H 0.37926 0.05651 0.49736 0.0
H1409 H 0.36536 0.04543 0.56709 0.0
H1410 H 0.33337 0.06903 0.56478 0.0
H1411 H 0.30914 0.09315 0.54342 0.0
H1412 H 0.31902 0.10038 0.47282 0.0
H1413 H 0.35239 0.07752 0.47489 0.0
C1414 C 0.36913 0.05887 0.51202 0.0
C1415 C 0.37548 0.04951 0.53256 0.0
C1416 C 0.34989 0.0718 0.51043 0.0
C1417 C 0.36182 0.05304 0.55125 0.0
C1418 C 0.34319 0.06638 0.54993 0.0
C1419 C 0.31864 0.0897 0.5285 0.0
C1420 C 0.31194 0.09862 0.50807 0.0
C1421 C 0.33721 0.07601 0.52971 0.0
C1422 C 0.324 0.0937 0.48874 0.0
C1423 C 0.34306 0.08068 0.48996 0.0
H1424 H 0.64132 0.46494 0.54394 0.0
H1425 H 0.64529 0.49836 0.48075 0.0
H1426 H 0.67649 0.47538 0.46998 0.0
H1427 H 0.70263 0.44557 0.47836 0.0
H1428 H 0.69945 0.41351 0.54235 0.0
H1429 H 0.6684 0.43656 0.553 0.0
C1430 C 0.64917 0.46751 0.52793 0.0
C1431 C 0.64075 0.48338 0.5132 0.0
C1432 C 0.66739 0.45449 0.52195 0.0
C1433 C 0.65103 0.48603 0.49234 0.0
C1434 C 0.66904 0.47299 0.4862 0.0
C1435 C 0.69523 0.44366 0.49467 0.0
C1436 C 0.70348 0.42772 0.50946 0.0
C1437 C 0.67732 0.45709 0.50083 0.0
C1438 C 0.69361 0.42562 0.53057 0.0
C1439 C 0.67575 0.43878 0.53671 0.0
H1440 H 0.68807 0.28706 0.42058 0.0
H1441 H 0.75699 0.2744 0.40686 0.0
H1442 H 0.76903 0.30169 0.43593 0.0
H1443 H 0.7599 0.32985 0.46449 0.0
H1444 H 0.6912 0.34128 0.48011 0.0
H1445 H 0.67891 0.31354 0.45134 0.0
C1446 C 0.70568 0.29031 0.42413 0.0
C1447 C 0.72171 0.27897 0.4117 0.0
C1448 C 0.71242 0.30569 0.44116 0.0
C1449 C 0.74448 0.28301 0.41636 0.0
C1450 C 0.75132 0.29854 0.43295 0.0
C1451 C 0.74224 0.32624 0.46148 0.0
C1452 C 0.72637 0.33799 0.47366 0.0
C1453 C 0.73545 0.3101 0.4453 0.0
C1454 C 0.7036 0.33268 0.47045 0.0
C1455 C 0.69662 0.31687 0.45405 0.0
H1456 H 0.54653 1.00499 0.86613 0.0
H1457 H 0.55994 0.0759 0.87769 0.0
H1458 H 0.58569 0.07657 0.84676 0.0
H1459 H 0.60418 0.05764 0.81632 0.0
H1460 H 0.59387 0.98638 0.80554 0.0
H1461 H 0.56747 0.98522 0.8366 0.0
C1462 C 0.55525 0.02055 0.86208 0.0
C1463 C 0.55077 0.04047 0.8741 0.0
C1464 C 0.57066 0.02079 0.84444 0.0
C1465 C 0.56232 0.06043 0.86842 0.0
C1466 C 0.5773 0.06083 0.85081 0.0
C1467 C 0.59622 0.04177 0.82068 0.0
C1468 C 0.60088 0.02215 0.80844 0.0
C1469 C 0.58144 0.0412 0.83863 0.0
C1470 C 0.59058 1.00175 0.81465 0.0
C1471 C 0.57545 1.0011 0.83237 0.0
H1472 H 0.31507 0.2238 0.40309 0.0
H1473 H 0.25985 0.26765 0.41211 0.0
H1474 H 0.24691 0.24583 0.44361 0.0
H1475 H 0.24886 0.21238 0.466 0.0
H1476 H 0.30333 0.16765 0.45779 0.0
H1477 H 0.31933 0.19195 0.42899 0.0
C1478 C 0.30045 0.22873 0.41222 0.0
C1479 C 0.28816 0.24704 0.40495 0.0
C1480 C 0.29294 0.21594 0.43041 0.0
C1481 C 0.26928 0.25332 0.41701 0.0
C1482 C 0.26191 0.24091 0.43509 0.0
C1483 C 0.26443 0.2081 0.45814 0.0
C1484 C 0.27477 0.18816 0.4638 0.0
C1485 C 0.27322 0.22187 0.44151 0.0
C1486 C 0.29509 0.18297 0.45374 0.0
C1487 C 0.30411 0.19676 0.43714 0.0
H1488 H 0.45767 0.51583 0.88369 0.0
H1489 H 0.49876 0.46424 0.85644 0.0
H1490 H 0.47858 0.46535 0.82088 0.0
H1491 H 0.4484 0.47975 0.79802 0.0
H1492 H 0.40762 0.53216 0.82422 0.0
H1493 H 0.4287 0.53224 0.85951 0.0
C1494 C 0.46216 0.5049 0.86991 0.0
C1495 C 0.47962 0.4899 0.8727 0.0
C1496 C 0.45062 0.50584 0.84931 0.0
C1497 C 0.48547 0.47599 0.85466 0.0
C1498 C 0.47391 0.47658 0.83434 0.0
C1499 C 0.44419 0.49134 0.81137 0.0
C1500 C 0.42634 0.50583 0.80848 0.0
C1501 C 0.45636 0.49129 0.83154 0.0
C1502 C 0.42133 0.52089 0.82592 0.0
C1503 C 0.43329 0.52083 0.84617 0.0
H1504 H 0.7335 0.71953 0.12767 0.0
H1505 H 0.68089 0.75361 0.09375 0.0
H1506 H 0.6836 0.72797 0.06176 0.0
H1507 H 0.70148 0.69647 0.04293 0.0
H1508 H 0.75489 0.6631 0.07644 0.0
H1509 H 0.75137 0.68798 0.10886 0.0
C1510 C 0.72275 0.7215 0.11321 0.0
C1511 C 0.70701 0.73854 0.11322 0.0
C1512 C 0.72453 0.70681 0.09472 0.0
C1513 C 0.69296 0.74051 0.09442 0.0
C1514 C 0.69458 0.72591 0.07602 0.0
C1515 C 0.71231 0.69452 0.05734 0.0
C1516 C 0.72846 0.67786 0.0571 0.0
C1517 C 0.71034 0.70904 0.07594 0.0
C1518 C 0.74234 0.67574 0.07601 0.0
C1519 C 0.74036 0.69 0.09461 0.0
H1520 H 0.96376 0.04091 0.14552 0.0
H1521 H 0.99838 0.97883 0.15057 0.0
H1522 H 0.97482 0.96781 0.18172 0.0
H1523 H 0.94434 0.9758 0.20773 0.0
H1524 H 0.91126 0.03887 0.20348 0.0
H1525 H 0.93463 0.04957 0.17227 0.0
C1526 C 0.96646 0.0251 0.15359 0.0
C1527 C 0.98289 0.01076 0.14551 0.0
C1528 C 0.95314 0.01901 0.1718 0.0
C1529 C 0.98567 0.99012 0.15605 0.0
C1530 C 0.97229 0.98384 0.17403 0.0
C1531 C 0.94227 0.99192 0.20004 0.0
C1532 C 0.92597 0.00645 0.20808 0.0
C1533 C 0.95593 0.99813 0.18204 0.0
C1534 C 0.92366 0.02731 0.19784 0.0
C1535 C 0.937 0.03347 0.17988 0.0
H1536 H 0.31649 0.78672 0.0983 0.0
H1537 H 0.27376 0.81773 0.14657 0.0
H1538 H 0.26338 0.84562 0.11929 0.0
H1539 H 0.26435 0.85954 0.0808 0.0
H1540 H 0.30646 0.8277 0.03244 0.0
H1541 H 0.3191 0.80187 0.06062 0.0
C1542 C 0.30489 0.79958 0.10285 0.0
C1543 C 0.2958 0.8 0.1244 0.0
C1544 C 0.29881 0.81541 0.08702 0.0
C1545 C 0.28114 0.81707 0.13016 0.0
C1546 C 0.27508 0.83296 0.11451 0.0
C1547 C 0.2765 0.84713 0.07651 0.0
C1548 C 0.28434 0.84551 0.05449 0.0
C1549 C 0.28354 0.83208 0.09277 0.0
C1550 C 0.30007 0.8293 0.04922 0.0
C1551 C 0.30729 0.81446 0.06532 0.0
H1552 H 0.03635 0.52602 0.14403 0.0
H1553 H 0.06856 0.46413 0.12836 0.0
H1554 H 0.0938 0.47018 0.16038 0.0
H1555 H 0.10663 0.49297 0.19296 0.0
H1556 H 0.07435 0.55498 0.20838 0.0
H1557 H 0.04909 0.54872 0.17657 0.0
C1558 C 0.04878 0.51375 0.14771 0.0
C1559 C 0.05051 0.49463 0.13378 0.0
C1560 C 0.0632 0.5173 0.16619 0.0
C1561 C 0.067 0.47913 0.13861 0.0
C1562 C 0.08135 0.4825 0.15702 0.0
C1563 C 0.09401 0.50508 0.18947 0.0
C1564 C 0.09244 0.52439 0.20321 0.0
C1565 C 0.07959 0.50151 0.17096 0.0
C1566 C 0.07603 0.53995 0.19819 0.0
C1567 C 0.06154 0.53641 0.17995 0.0
H1568 H 0.40845 0.754 0.28276 0.0
H1569 H 0.4026 0.68235 0.29121 0.0
H1570 H 0.43265 0.68448 0.31901 0.0
H1571 H 0.45961 0.70705 0.34251 0.0
H1572 H 0.46207 0.7789 0.33659 0.0
H1573 H 0.43434 0.77637 0.3064 0.0
C1574 C 0.41347 0.73881 0.2908 0.0
C1575 C 0.40312 0.71806 0.28471 0.0
C1576 C 0.43029 0.7402 0.30729 0.0
C1577 C 0.41041 0.69857 0.29513 0.0
C1578 C 0.42757 0.69976 0.31119 0.0
C1579 C 0.45405 0.72204 0.33446 0.0
C1580 C 0.46242 0.74314 0.34189 0.0
C1581 C 0.43753 0.7205 0.31754 0.0
C1582 C 0.45544 0.76252 0.3313 0.0
C1583 C 0.43965 0.76108 0.31404 0.0
H1584 H 0.01334 0.36726 0.97793 0.0
H1585 H 0.94188 0.37066 0.96844 0.0
H1586 H 0.94168 0.33661 0.94573 0.0
H1587 H 0.96126 0.30601 0.92835 0.0
H1588 H 0.03296 0.30353 0.93414 0.0
H1589 H 0.03356 0.33734 0.95816 0.0
C1590 C 0.99773 0.36077 0.97071 0.0
C1591 C 0.97758 0.37155 0.97544 0.0
C1592 C 0.99773 0.34134 0.95692 0.0
C1593 C 0.95758 0.36256 0.96589 0.0
C1594 C 0.95743 0.34312 0.95263 0.0
C1595 C 0.9771 0.31276 0.93482 0.0
C1596 C 0.99704 0.30207 0.92953 0.0
C1597 C 0.97734 0.33234 0.94812 0.0
C1598 C 0.01736 0.31135 0.93794 0.0
C1599 C 0.01769 0.33068 0.9517 0.0
H1600 H 0.62852 0.78527 0.31195 0.0
H1601 H 0.58501 0.81823 0.26598 0.0
H1602 H 0.55397 0.81346 0.29169 0.0
H1603 H 0.53871 0.79853 0.32657 0.0
H1604 H 0.58229 0.76547 0.37239 0.0
H1605 H 0.61381 0.77223 0.34769 0.0
C1606 C 0.61235 0.79171 0.30766 0.0
C1607 C 0.60915 0.80195 0.28693 0.0
C1608 C 0.59454 0.78899 0.32257 0.0
C1609 C 0.58792 0.80991 0.28161 0.0
C1610 C 0.57016 0.80734 0.29638 0.0
C1611 C 0.55517 0.79308 0.3313 0.0
C1612 C 0.55809 0.78149 0.35131 0.0
C1613 C 0.5732 0.7967 0.31682 0.0
C1614 C 0.57952 0.77442 0.35709 0.0
C1615 C 0.59757 0.7782 0.34292 0.0
H1616 H 0.04823 0.13959 0.96652 0.0
H1617 H 0.98599 0.13951 1.00193 0.0
H1618 H 0.97341 0.17068 0.97959 0.0
H1619 H 0.97986 0.19765 0.94949 0.0
H1620 H 0.04266 0.19799 0.91473 0.0
H1621 H 0.0551 0.16715 0.93722 0.0
C1622 C 0.03187 0.14634 0.96925 0.0
C1623 C 0.01805 0.13718 0.98581 0.0
C1624 C 0.02481 0.16438 0.95646 0.0
C1625 C 0.99703 0.14635 0.9894 0.0
C1626 C 0.98978 0.16413 0.97656 0.0
C1627 C 0.9963 0.19106 0.94686 0.0
C1628 C 0.01021 0.20026 0.93033 0.0
C1629 C 1.00351 0.17327 0.96 0.0
C1630 C 0.03152 0.19142 0.9273 0.0
C1631 C 0.03869 0.17367 0.94015 0.0
H1632 H 0.4174 0.31216 0.23476 0.0
H1633 H 0.36904 0.25978 0.2164 0.0
H1634 H 0.39481 0.24444 0.18932 0.0
H1635 H 0.43117 0.24511 0.17168 0.0
H1636 H 0.47981 0.29778 0.18832 0.0
H1637 H 0.45379 0.31401 0.21506 0.0
C1638 C 0.4126 0.29741 0.22477 0.0
C1639 C 0.39138 0.28706 0.22757 0.0
C1640 C 0.42748 0.2888 0.20893 0.0
C1641 C 0.38521 0.26809 0.21442 0.0
C1642 C 0.39995 0.25929 0.19899 0.0
C1643 C 0.43613 0.26021 0.18107 0.0
C1644 C 0.4575 0.2701 0.17814 0.0
C1645 C 0.42113 0.26941 0.1962 0.0
C1646 C 0.46345 0.28984 0.19023 0.0
C1647 C 0.44862 0.29904 0.20561 0.0
H1648 H 0.54066 0.38421 0.06644 0.0
H1649 H 0.48714 0.36226 0.0217 0.0
H1650 H 0.47966 0.32949 0.04471 0.0
H1651 H 0.48938 0.30618 0.07681 0.0
H1652 H 0.54313 0.32837 0.12129 0.0
H1653 H 0.54944 0.36178 0.09913 0.0
C1654 C 0.52741 0.37221 0.06166 0.0
C1655 C 0.51459 0.37565 0.04227 0.0
C1656 C 0.52324 0.35338 0.07494 0.0
C1657 C 0.49719 0.36013 0.0366 0.0
C1658 C 0.49297 0.34131 0.0497 0.0
C1659 C 0.50236 0.31841 0.08175 0.0
C1660 C 0.5158 0.31467 0.10068 0.0
C1661 C 0.50601 0.33766 0.06883 0.0
C1662 C 0.53254 0.33074 0.10681 0.0
C1663 C 0.53621 0.34987 0.09411 0.0
H1664 H 0.59047 0.19784 0.24751 0.0
H1665 H 0.63326 0.25027 0.22108 0.0
H1666 H 0.60489 0.25835 0.19313 0.0
H1667 H 0.56811 0.25039 0.17588 0.0
H1668 H 0.52568 0.19722 0.20156 0.0
H1669 H 0.55384 0.18947 0.22983 0.0
C1670 C 0.59371 0.21089 0.2355 0.0
C1671 C 0.61401 0.22346 0.23654 0.0
C1672 C 0.57737 0.21534 0.21927 0.0
C1673 C 0.61769 0.24053 0.22098 0.0
C1674 C 0.60151 0.24509 0.20487 0.0
C1675 C 0.56493 0.23714 0.18767 0.0
C1676 C 0.54467 0.22449 0.18652 0.0
C1677 C 0.58127 0.23263 0.20387 0.0
C1678 C 0.54104 0.20729 0.20196 0.0
C1679 C 0.55717 0.20281 0.21818 0.0
H1680 H 0.52277 0.13954 0.04989 0.0
H1681 H 0.45806 0.15986 0.02741 0.0
H1682 H 0.46117 0.19342 0.0515 0.0
H1683 H 0.48142 0.2158 0.08059 0.0
H1684 H 0.54698 0.19693 0.10169 0.0
H1685 H 0.54474 0.16415 0.07627 0.0
C1686 C 0.50944 0.15141 0.05029 0.0
C1687 C 0.4901 0.14723 0.03717 0.0
C1688 C 0.51156 0.17086 0.06385 0.0
C1689 C 0.47305 0.16281 0.03744 0.0
C1690 C 0.47485 0.18198 0.05115 0.0
C1691 C 0.49519 0.20447 0.0795 0.0
C1692 C 0.51397 0.20806 0.09345 0.0
C1693 C 0.49385 0.18598 0.06468 0.0
C1694 C 0.53216 0.194 0.09139 0.0
C1695 C 0.53086 0.17533 0.07691 0.0
H1696 H 0.2893 0.42065 0.69259 0.0
H1697 H 0.27653 0.40698 0.76175 0.0
H1698 H 0.3037 0.43648 0.77337 0.0
H1699 H 0.3315 0.4657 0.76389 0.0
H1700 H 0.34305 0.48138 0.69507 0.0
H1701 H 0.31573 0.45184 0.68311 0.0
C1702 C 0.29254 0.42423 0.71016 0.0
C1703 C 0.28109 0.41171 0.72634 0.0
C1704 C 0.30783 0.44157 0.71671 0.0
C1705 C 0.28515 0.41653 0.74907 0.0
C1706 C 0.30062 0.43337 0.7557 0.0
C1707 C 0.32803 0.46253 0.74628 0.0
C1708 C 0.33967 0.47499 0.73028 0.0
C1709 C 0.31212 0.4459 0.73968 0.0
C1710 C 0.33452 0.47153 0.70756 0.0
C1711 C 0.31895 0.45469 0.70078 0.0
H1712 H 0.29958 0.63405 0.79063 0.0
H1713 H 0.25414 0.58483 0.81862 0.0
H1714 H 0.28106 0.55566 0.81203 0.0
H1715 H 0.31692 0.54373 0.79669 0.0
H1716 H 0.36233 0.59331 0.76925 0.0
H1717 H 0.33629 0.62271 0.77787 0.0
C1718 C 0.29565 0.61705 0.79568 0.0
C1719 C 0.27468 0.61173 0.80496 0.0
C1720 C 0.31128 0.60034 0.792 0.0
C1721 C 0.2699 0.58942 0.81103 0.0
C1722 C 0.28538 0.57271 0.80742 0.0
C1723 C 0.32125 0.56101 0.79289 0.0
C1724 C 0.34154 0.56624 0.78225 0.0
C1725 C 0.30603 0.57791 0.79766 0.0
C1726 C 0.34682 0.58874 0.77738 0.0
C1727 C 0.3319 0.60561 0.78224 0.0
H1728 H 0.881 0.45705 0.51134 0.0
H1729 H 0.85678 0.49505 0.45591 0.0
H1730 H 0.82066 0.47552 0.45779 0.0
H1731 H 0.79641 0.44655 0.47376 0.0
H1732 H 0.81941 0.4091 0.52997 0.0
H1733 H 0.85523 0.43004 0.52961 0.0
C1734 C 0.86775 0.46131 0.49987 0.0
C1735 C 0.87193 0.47723 0.48318 0.0
C1736 C 0.84671 0.45018 0.50122 0.0
C1737 C 0.85442 0.48241 0.46848 0.0
C1738 C 0.83362 0.47139 0.46965 0.0
C1739 C 0.80916 0.44305 0.48609 0.0
C1740 C 0.80525 0.42613 0.50175 0.0
C1741 C 0.82968 0.45502 0.48571 0.0
C1742 C 0.82191 0.42206 0.51775 0.0
C1743 C 0.84248 0.43393 0.51745 0.0
H1744 H 0.74698 0.91958 0.82047 0.0
H1745 H 0.71149 0.86745 0.78243 0.0
H1746 H 0.68296 0.8938 0.77203 0.0
H1747 H 0.66938 0.93227 0.77173 0.0
H1748 H 0.70506 0.98445 0.80963 0.0
H1749 H 0.73205 0.9575 0.82216 0.0
C1750 C 0.73298 0.91401 0.80992 0.0
C1751 C 0.73145 0.89162 0.80213 0.0
C1752 C 0.71664 0.92927 0.80396 0.0
C1753 C 0.71301 0.88456 0.78877 0.0
C1754 C 0.69673 0.89965 0.78272 0.0
C1755 C 0.68289 0.93769 0.78297 0.0
C1756 C 0.68523 0.96039 0.78961 0.0
C1757 C 0.69852 0.92212 0.78998 0.0
C1758 C 0.70284 0.9671 0.8042 0.0
C1759 C 0.71838 0.95171 0.81132 0.0
H1760 H 0.65459 0.53818 0.97439 0.0
H1761 H 0.62645 0.55148 0.03929 0.0
H1762 H 0.6592 0.57456 0.04961 0.0
H1763 H 0.695 0.59323 0.03954 0.0
H1764 H 0.71985 0.58458 0.97288 0.0
H1765 H 0.68917 0.55777 0.96384 0.0
C1766 C 0.65525 0.54632 0.9907 0.0
C1767 C 0.63776 0.54275 0.00595 0.0
C1768 C 0.6737 0.56054 0.99626 0.0
C1769 C 0.63965 0.55322 0.02722 0.0
C1770 C 0.65839 0.56668 0.03317 0.0
C1771 C 0.69362 0.58535 0.0231 0.0
C1772 C 0.70924 0.59106 0.00672 0.0
C1773 C 0.67541 0.57067 0.01776 0.0
C1774 C 0.70765 0.58066 0.98555 0.0
C1775 C 0.69017 0.56532 0.98042 0.0
H1776 H 0.24298 0.6143 0.24018 0.0
H1777 H 0.2286 0.61375 0.16961 0.0
H1778 H 0.20132 0.58259 0.17401 0.0
H1779 H 0.18057 0.55636 0.19851 0.0
H1780 H 0.19264 0.56005 0.2695 0.0
H1781 H 0.22205 0.58879 0.26453 0.0
C1782 C 0.23397 0.60715 0.22579 0.0
C1783 C 0.23779 0.61597 0.20461 0.0
C1784 C 0.21798 0.58979 0.22859 0.0
C1785 C 0.22585 0.60702 0.18605 0.0
C1786 C 0.21036 0.58923 0.18857 0.0
C1787 C 0.18977 0.5635 0.21276 0.0
C1788 C 0.18436 0.55657 0.23434 0.0
C1789 C 0.20614 0.58058 0.20981 0.0
C1790 C 0.1964 0.56557 0.25279 0.0
C1791 C 0.21321 0.58191 0.24995 0.0
H1792 H 0.87907 0.55119 0.99778 0.0
H1793 H 0.86698 0.54027 0.06789 0.0
H1794 H 0.83604 0.56532 0.06678 0.0
H1795 H 0.8118 0.59015 0.0462 0.0
H1796 H 0.81969 0.59709 0.97529 0.0
H1797 H 0.85248 0.5734 0.97633 0.0
C1798 C 0.86956 0.5539 0.0128 0.0
C1799 C 0.87609 0.54402 0.03304 0.0
C1800 C 0.85088 0.56767 0.01192 0.0
C1801 C 0.86328 0.54814 0.05221 0.0
C1802 C 0.84525 0.56234 0.0516 0.0
C1803 C 0.8208 0.58655 0.031 0.0
C1804 C 0.81365 0.59558 0.01076 0.0
C1805 C 0.83898 0.57229 0.03162 0.0
C1806 C 0.82504 0.59039 0.99108 0.0
C1807 C 0.84375 0.57686 0.9917 0.0
H1808 H 0.15421 0.98864 0.99551 0.0
H1809 H 0.14004 0.95546 0.05743 0.0
H1810 H 0.17014 0.92984 0.0506 0.0
H1811 H 0.20007 0.91623 0.02687 0.0
H1812 H 0.21341 0.94824 0.96415 0.0
H1813 H 0.18392 0.9746 0.9714 0.0
C1814 C 0.15755 0.9757 0.00744 0.0
C1815 C 0.14485 0.97421 0.02705 0.0
C1816 C 0.17476 0.9607 1.00326 0.0
C1817 C 0.14972 0.95741 0.0424 0.0
C1818 C 0.16687 0.94258 0.03844 0.0
C1819 C 0.19664 0.92901 0.01478 0.0
C1820 C 0.2091 0.93018 0.995 0.0
C1821 C 0.17949 0.94404 0.01893 0.0
C1822 C 0.20418 0.94684 0.97953 0.0
C1823 C 0.18728 0.96197 0.98365 0.0
loop_
_geom_bond_atom_site_label_1
_geom_bond_atom_site_label_2
_geom_bond_distance
_geom_bond_site_symmetry_2
_ccdc_geom_bond_type
C0 C1 1.386 . S
C0 C2 1.397 . S
C0 H24 0.931 . S
C1 C0 1.386 . S
C1 C5 1.397 . S
C2 C0 1.397 . S
C2 C3 1.384 1_556 S
C2 H25 0.930 . S
C3 C2 1.384 1_554 S
C3 C4 1.377 . S
C3 C6 1.481 . S
C4 C3 1.377 . S
C4 C5 1.389 1_554 S
C4 H26 0.929 . S
C5 C1 1.397 . S
C5 C4 1.389 1_556 S
C5 H27 0.931 1_556 S
C6 C3 1.481 . S
C6 C7 1.387 . S
C6 C11 1.390 . S
C7 C6 1.387 . S
C7 C8 1.401 . S
C7 H28 0.930 . S
C8 C7 1.401 . S
C8 C9 1.376 . S
C8 C17 1.511 . S
C9 C8 1.376 . S
C9 C10 1.392 . S
C9 H30 0.931 . S
C10 C9 1.392 . S
C10 C11 1.361 . S
C10 C12 1.500 . S
C11 C6 1.390 . S
C11 C10 1.361 . S
C11 H29 0.931 . S
C12 C10 1.500 . S
C12 C13 1.369 1_455 S
C12 C14 1.365 1_455 S
C13 C12 1.369 1_655 S
C13 C23 1.395 . S
C13 H31 0.924 1_645 S
C14 C12 1.365 1_655 S
C14 C15 1.409 . S
C14 H32 0.931 . S
C15 C14 1.409 . S
C15 C16 1.380 . S
C15 H33 0.930 . S
C16 C15 1.380 . S
C16 C23 1.357 . S
C17 C8 1.511 . S
C17 C18 1.341 . S
C17 C19 1.371 1_545 S
C18 C17 1.341 . S
C18 C22 1.394 1_545 S
C18 H34 0.930 1_554 S
C19 C17 1.371 1_565 S
C19 C20 1.392 . S
C19 H35 0.931 . S
C20 C19 1.392 . S
C20 C21 1.331 . S
C20 H38 0.932 . S
C21 C20 1.331 . S
C21 C22 1.336 . S
C22 C18 1.394 1_565 S
C22 C21 1.336 . S
C22 H37 0.929 1_554 S
C23 C13 1.395 . S
C23 C16 1.357 . S
C23 H36 0.928 1_545 S
H24 C0 0.931 . S
H25 C2 0.930 . S
H26 C4 0.929 . S
H27 C5 0.931 1_554 S
H28 C7 0.930 . S
H29 C11 0.931 . S
H30 C9 0.931 . S
H31 C13 0.924 1_465 S
H32 C14 0.931 . S
H33 C15 0.930 . S
H34 C18 0.930 1_556 S
H35 C19 0.931 . S
H36 C23 0.928 1_565 S
H37 C22 0.929 1_556 S
H38 C20 0.932 . S
C39 C40 1.386 . S
C39 C41 1.397 . S
C39 H63 0.931 . S
C40 C39 1.386 . S
C40 C44 1.397 . S
C41 C39 1.397 . S
C41 C42 1.384 . S
C41 H64 0.930 . S
C42 C41 1.384 . S
C42 C43 1.377 . S
C42 C45 1.481 . S
C43 C42 1.377 . S
C43 C44 1.389 . S
C43 H65 0.929 . S
C44 C40 1.397 . S
C44 C43 1.389 . S
C44 H66 0.931 . S
C45 C42 1.481 . S
C45 C46 1.387 . S
C45 C50 1.390 . S
C46 C45 1.387 . S
C46 C47 1.401 . S
C46 H67 0.930 . S
C47 C46 1.401 . S
C47 C48 1.376 . S
C47 C56 1.511 . S
C48 C47 1.376 . S
C48 C49 1.392 . S
C48 H69 0.931 . S
C49 C48 1.392 . S
C49 C50 1.361 . S
C49 C51 1.500 . S
C50 C45 1.390 . S
C50 C49 1.361 . S
C50 H68 0.931 . S
C51 C49 1.500 . S
C51 C52 1.371 . S
C51 C53 1.365 . S
C52 C51 1.371 . S
C52 C62 1.386 . S
C52 H70 0.931 . S
C53 C51 1.365 . S
C53 C54 1.409 . S
C53 H71 0.929 . S
C54 C53 1.409 . S
C54 C55 1.380 . S
C54 H72 0.930 . S
C55 C54 1.380 . S
C55 C62 1.357 . S
C56 C47 1.511 . S
C56 C57 1.341 . S
C56 C58 1.371 . S
C57 C56 1.341 . S
C57 C61 1.394 . S
C57 H73 0.930 . S
C58 C56 1.371 . S
C58 C59 1.392 . S
C58 H74 0.931 . S
C59 C58 1.392 . S
C59 C60 1.331 . S
C59 H77 0.932 . S
C60 C59 1.331 . S
C60 C61 1.336 . S
C61 C57 1.394 . S
C61 C60 1.336 . S
C61 H76 0.929 . S
C62 C52 1.386 . S
C62 C55 1.357 . S
C62 H75 0.928 . S
H63 C39 0.931 . S
H64 C41 0.930 . S
H65 C43 0.929 . S
H66 C44 0.931 . S
H67 C46 0.930 . S
H68 C50 0.931 . S
H69 C48 0.931 . S
H70 C52 0.931 . S
H71 C53 0.929 . S
H72 C54 0.930 . S
H73 C57 0.930 . S
H74 C58 0.931 . S
H75 C62 0.928 . S
H76 C61 0.929 . S
H77 C59 0.932 . S
C78 C79 1.386 . S
C78 C80 1.397 1_455 S
C78 H102 0.931 1_455 S
C79 C78 1.386 . S
C79 C83 1.397 . S
C80 C78 1.397 1_655 S
C80 C81 1.384 . S
C80 H103 0.930 . S
C81 C80 1.384 . S
C81 C82 1.377 1_655 S
C81 C84 1.481 . S
C82 C81 1.377 1_455 S
C82 C83 1.389 . S
C82 H104 0.929 . S
C83 C79 1.397 . S
C83 C82 1.389 . S
C83 H105 0.931 . S
C84 C81 1.481 . S
C84 C85 1.387 . S
C84 C89 1.390 . S
C85 C84 1.387 . S
C85 C86 1.401 . S
C85 H106 0.930 . S
C86 C85 1.401 . S
C86 C87 1.376 . S
C86 C95 1.511 . S
C87 C86 1.376 . S
C87 C88 1.392 . S
C87 H108 0.931 . S
C88 C87 1.392 . S
C88 C89 1.361 . S
C88 C90 1.500 . S
C89 C84 1.390 . S
C89 C88 1.361 . S
C89 H107 0.931 . S
C90 C88 1.500 . S
C90 C91 1.371 1_554 S
C90 C92 1.363 1_554 S
C91 C90 1.371 1_556 S
C91 C101 1.386 . S
C91 H109 0.931 . S
C92 C90 1.363 1_556 S
C92 C93 1.416 . S
C92 H110 0.925 1_656 S
C93 C92 1.416 . S
C93 C94 1.380 . S
C93 H111 0.930 1_655 S
C94 C93 1.380 . S
C94 C101 1.357 . S
C95 C86 1.511 . S
C95 C96 1.341 . S
C95 C97 1.371 . S
C96 C95 1.341 . S
C96 C100 1.394 . S
C96 H112 0.930 . S
C97 C95 1.371 . S
C97 C98 1.392 . S
C97 H113 0.931 1_554 S
C98 C97 1.392 . S
C98 C99 1.331 . S
C98 H116 0.932 1_554 S
C99 C98 1.331 . S
C99 C100 1.336 . S
C100 C96 1.394 . S
C100 C99 1.336 . S
C100 H115 0.929 . S
C101 C91 1.386 . S
C101 C94 1.357 . S
C101 H114 0.928 . S
H102 C78 0.931 1_655 S
H103 C80 0.930 . S
H104 C82 0.929 . S
H105 C83 0.931 . S
H106 C85 0.930 . S
H107 C89 0.931 . S
H108 C87 0.931 . S
H109 C91 0.931 . S
H110 C92 0.925 1_454 S
H111 C93 0.930 1_455 S
H112 C96 0.930 . S
H113 C97 0.931 1_556 S
H114 C101 0.928 . S
H115 C100 0.929 . S
H116 C98 0.932 1_556 S
C117 C118 1.386 . S
C117 C119 1.397 . S
C117 H141 0.931 . S
C118 C117 1.386 . S
C118 C122 1.397 . S
C119 C117 1.397 . S
C119 C120 1.384 . S
C119 H142 0.930 . S
C120 C119 1.384 . S
C120 C121 1.377 . S
C120 C123 1.481 . S
C121 C120 1.377 . S
C121 C122 1.389 . S
C121 H143 0.929 . S
C122 C118 1.397 . S
C122 C121 1.389 . S
C122 H144 0.931 . S
C123 C120 1.481 . S
C123 C124 1.387 . S
C123 C128 1.390 . S
C124 C123 1.387 . S
C124 C125 1.401 . S
C124 H145 0.930 . S
C125 C124 1.401 . S
C125 C126 1.376 . S
C125 C134 1.511 . S
C126 C125 1.376 . S
C126 C127 1.392 . S
C126 H147 0.931 . S
C127 C126 1.392 . S
C127 C128 1.361 . S
C127 C129 1.500 . S
C128 C123 1.390 . S
C128 C127 1.361 . S
C128 H146 0.931 . S
C129 C127 1.500 . S
C129 C130 1.371 . S
C129 C131 1.365 . S
C130 C129 1.371 . S
C130 C140 1.386 . S
C130 H148 0.931 . S
C131 C129 1.365 . S
C131 C132 1.409 . S
C131 H149 0.929 . S
C132 C131 1.409 . S
C132 C133 1.380 . S
C132 H150 0.930 . S
C133 C132 1.380 . S
C133 C140 1.357 . S
C134 C125 1.511 . S
C134 C135 1.341 . S
C134 C136 1.371 . S
C135 C134 1.341 . S
C135 C139 1.394 . S
C135 H151 0.930 . S
C136 C134 1.371 . S
C136 C137 1.392 . S
C136 H152 0.931 . S
C137 C136 1.392 . S
C137 C138 1.331 . S
C137 H155 0.932 . S
C138 C137 1.331 . S
C138 C139 1.336 . S
C139 C135 1.394 . S
C139 C138 1.336 . S
C139 H154 0.929 . S
C140 C130 1.386 . S
C140 C133 1.357 . S
C140 H153 0.928 . S
H141 C117 0.931 . S
H142 C119 0.930 . S
H143 C121 0.929 . S
H144 C122 0.931 . S
H145 C124 0.930 . S
H146 C128 0.931 . S
H147 C126 0.931 . S
H148 C130 0.931 . S
H149 C131 0.929 . S
H150 C132 0.930 . S
H151 C135 0.930 . S
H152 C136 0.931 . S
H153 C140 0.928 . S
H154 C139 0.929 . S
H155 C137 0.932 . S
C156 C157 1.386 . S
C156 C158 1.397 . S
C156 H180 0.931 . S
C157 C156 1.386 . S
C157 C161 1.397 1_655 S
C158 C156 1.397 . S
C158 C159 1.384 1_655 S
C158 H181 0.930 . S
C159 C158 1.384 1_455 S
C159 C160 1.377 . S
C159 C162 1.481 . S
C160 C159 1.377 . S
C160 C161 1.389 . S
C160 H182 0.929 . S
C161 C157 1.397 1_455 S
C161 C160 1.389 . S
C161 H183 0.931 . S
C162 C159 1.481 . S
C162 C163 1.387 . S
C162 C167 1.390 . S
C163 C162 1.387 . S
C163 C164 1.401 . S
C163 H184 0.930 . S
C164 C163 1.401 . S
C164 C165 1.376 . S
C164 C173 1.511 . S
C165 C164 1.376 . S
C165 C166 1.392 . S
C165 H186 0.931 . S
C166 C165 1.392 . S
C166 C167 1.361 . S
C166 C168 1.500 1_565 S
C167 C162 1.390 . S
C167 C166 1.361 . S
C167 H185 0.931 1_565 S
C168 C166 1.500 1_545 S
C168 C169 1.371 . S
C168 C170 1.365 . S
C169 C168 1.371 . S
C169 C179 1.386 . S
C169 H187 0.931 . S
C170 C168 1.365 . S
C170 C171 1.409 . S
C170 H188 0.929 . S
C171 C170 1.409 . S
C171 C172 1.380 . S
C171 H189 0.930 . S
C172 C171 1.380 . S
C172 C179 1.357 . S
C173 C164 1.511 . S
C173 C174 1.341 . S
C173 C175 1.371 . S
C174 C173 1.341 . S
C174 C178 1.394 . S
C174 H190 0.930 1_455 S
C175 C173 1.371 . S
C175 C176 1.392 . S
C175 H191 0.931 . S
C176 C175 1.392 . S
C176 C177 1.331 . S
C176 H194 0.932 . S
C177 C176 1.331 . S
C177 C178 1.336 . S
C178 C174 1.394 . S
C178 C177 1.336 . S
C178 H193 0.929 1_455 S
C179 C169 1.386 . S
C179 C172 1.357 . S
C179 H192 0.928 . S
H180 C156 0.931 . S
H181 C158 0.930 . S
H182 C160 0.929 . S
H183 C161 0.931 . S
H184 C163 0.930 . S
H185 C167 0.931 1_545 S
H186 C165 0.931 . S
H187 C169 0.931 . S
H188 C170 0.929 . S
H189 C171 0.930 . S
H190 C174 0.930 1_655 S
H191 C175 0.931 . S
H192 C179 0.928 . S
H193 C178 0.929 1_655 S
H194 C176 0.932 . S
C195 C196 1.386 . S
C195 C197 1.397 . S
C195 H219 0.931 . S
C196 C195 1.386 . S
C196 C200 1.397 . S
C197 C195 1.397 . S
C197 C198 1.384 . S
C197 H220 0.930 . S
C198 C197 1.384 . S
C198 C199 1.377 . S
C198 C201 1.481 . S
C199 C198 1.377 . S
C199 C200 1.389 . S
C199 H221 0.929 . S
C200 C196 1.397 . S
C200 C199 1.389 . S
C200 H222 0.931 . S
C201 C198 1.481 . S
C201 C202 1.387 . S
C201 C206 1.390 . S
C202 C201 1.387 . S
C202 C203 1.401 . S
C202 H223 0.930 . S
C203 C202 1.401 . S
C203 C204 1.376 . S
C203 C212 1.511 . S
C204 C203 1.376 . S
C204 C205 1.392 . S
C204 H225 0.931 . S
C205 C204 1.392 . S
C205 C206 1.361 . S
C205 C207 1.500 . S
C206 C201 1.390 . S
C206 C205 1.361 . S
C206 H224 0.931 . S
C207 C205 1.500 . S
C207 C208 1.371 . S
C207 C209 1.365 . S
C208 C207 1.371 . S
C208 C218 1.386 . S
C208 H226 0.931 . S
C209 C207 1.365 . S
C209 C210 1.409 . S
C209 H227 0.929 . S
C210 C209 1.409 . S
C210 C211 1.380 . S
C210 H228 0.930 . S
C211 C210 1.380 . S
C211 C218 1.357 . S
C212 C203 1.511 . S
C212 C213 1.341 . S
C212 C214 1.371 . S
C213 C212 1.341 . S
C213 C217 1.394 . S
C213 H229 0.930 . S
C214 C212 1.371 . S
C214 C215 1.392 . S
C214 H230 0.931 . S
C215 C214 1.392 . S
C215 C216 1.331 . S
C215 H233 0.932 . S
C216 C215 1.331 . S
C216 C217 1.336 . S
C217 C213 1.394 . S
C217 C216 1.336 . S
C217 H232 0.929 . S
C218 C208 1.386 . S
C218 C211 1.357 . S
C218 H231 0.928 . S
H219 C195 0.931 . S
H220 C197 0.930 . S
H221 C199 0.929 . S
H222 C200 0.931 . S
H223 C202 0.930 . S
H224 C206 0.931 . S
H225 C204 0.931 . S
H226 C208 0.931 . S
H227 C209 0.929 . S
H228 C210 0.930 . S
H229 C213 0.930 . S
H230 C214 0.931 . S
H231 C218 0.928 . S
H232 C217 0.929 . S
H233 C215 0.932 . S
C234 C235 1.386 . S
C234 C236 1.397 . S
C234 H258 0.931 . S
C235 C234 1.386 . S
C235 C239 1.397 . S
C236 C234 1.397 . S
C236 C237 1.384 . S
C236 H259 0.930 . S
C237 C236 1.384 . S
C237 C238 1.377 . S
C237 C240 1.481 . S
C238 C237 1.377 . S
C238 C239 1.389 . S
C238 H260 0.929 . S
C239 C235 1.397 . S
C239 C238 1.389 . S
C239 H261 0.931 . S
C240 C237 1.481 . S
C240 C241 1.387 . S
C240 C245 1.390 . S
C241 C240 1.387 . S
C241 C242 1.401 . S
C241 H262 0.892 1_655 S
C242 C241 1.401 . S
C242 C243 1.376 . S
C242 C251 1.511 1_655 S
C243 C242 1.376 . S
C243 C244 1.392 . S
C243 H264 0.931 . S
C244 C243 1.392 . S
C244 C245 1.361 . S
C244 C246 1.500 . S
C245 C240 1.390 . S
C245 C244 1.361 . S
C245 H263 0.931 . S
C246 C244 1.500 . S
C246 C247 1.371 . S
C246 C248 1.365 . S
C247 C246 1.371 . S
C247 C257 1.386 . S
C247 H265 0.931 . S
C248 C246 1.365 . S
C248 C249 1.409 . S
C248 H266 0.929 . S
C249 C248 1.409 . S
C249 C250 1.380 . S
C249 H267 0.930 . S
C250 C249 1.380 . S
C250 C257 1.357 . S
C251 C242 1.511 1_455 S
C251 C252 1.341 . S
C251 C253 1.371 . S
C252 C251 1.341 . S
C252 C256 1.394 . S
C252 H268 0.930 . S
C253 C251 1.371 . S
C253 C254 1.392 . S
C253 H269 0.931 1_455 S
C254 C253 1.392 . S
C254 C255 1.331 . S
C254 H272 0.932 . S
C255 C254 1.331 . S
C255 C256 1.336 . S
C256 C252 1.394 . S
C256 C255 1.336 . S
C256 H271 0.929 . S
C257 C247 1.386 . S
C257 C250 1.357 . S
C257 H270 0.928 . S
H258 C234 0.931 . S
H259 C236 0.930 . S
H260 C238 0.929 . S
H261 C239 0.931 . S
H262 C241 0.892 1_455 S
H263 C245 0.931 . S
H264 C243 0.931 . S
H265 C247 0.931 . S
H266 C248 0.929 . S
H267 C249 0.930 . S
H268 C252 0.930 . S
H269 C253 0.931 1_655 S
H270 C257 0.928 . S
H271 C256 0.929 . S
H272 C254 0.932 . S
C273 C274 1.386 . S
C273 C275 1.397 . S
C273 H297 0.931 . S
C274 C273 1.386 . S
C274 C278 1.397 . S
C275 C273 1.397 . S
C275 C276 1.384 . S
C275 H298 0.930 . S
C276 C275 1.384 . S
C276 C277 1.377 . S
C276 C279 1.481 . S
C277 C276 1.377 . S
C277 C278 1.389 . S
C277 H299 0.929 . S
C278 C274 1.397 . S
C278 C277 1.389 . S
C278 H300 0.931 . S
C279 C276 1.481 . S
C279 C280 1.387 . S
C279 C284 1.390 . S
C280 C279 1.387 . S
C280 C281 1.401 . S
C280 H301 0.930 . S
C281 C280 1.401 . S
C281 C282 1.376 . S
C281 C290 1.511 . S
C282 C281 1.376 . S
C282 C283 1.392 . S
C282 H303 0.931 . S
C283 C282 1.392 . S
C283 C284 1.361 . S
C283 C285 1.500 . S
C284 C279 1.390 . S
C284 C283 1.361 . S
C284 H302 0.931 . S
C285 C283 1.500 . S
C285 C286 1.371 . S
C285 C287 1.365 . S
C286 C285 1.371 . S
C286 C296 1.386 . S
C286 H304 0.931 . S
C287 C285 1.365 . S
C287 C288 1.409 . S
C287 H305 0.929 . S
C288 C287 1.409 . S
C288 C289 1.380 . S
C288 H306 0.930 . S
C289 C288 1.380 . S
C289 C296 1.357 . S
C290 C281 1.511 . S
C290 C291 1.341 . S
C290 C292 1.371 . S
C291 C290 1.341 . S
C291 C295 1.394 . S
C291 H307 0.930 . S
C292 C290 1.371 . S
C292 C293 1.392 . S
C292 H308 0.931 . S
C293 C292 1.392 . S
C293 C294 1.331 . S
C293 H311 0.932 . S
C294 C293 1.331 . S
C294 C295 1.336 . S
C295 C291 1.394 . S
C295 C294 1.336 . S
C295 H310 0.929 . S
C296 C286 1.386 . S
C296 C289 1.357 . S
C296 H309 0.928 . S
H297 C273 0.931 . S
H298 C275 0.930 . S
H299 C277 0.929 . S
H300 C278 0.931 . S
H301 C280 0.930 . S
H302 C284 0.931 . S
H303 C282 0.931 . S
H304 C286 0.931 . S
H305 C287 0.929 . S
H306 C288 0.930 . S
H307 C291 0.930 . S
H308 C292 0.931 . S
H309 C296 0.928 . S
H310 C295 0.929 . S
H311 C293 0.932 . S
C312 C313 1.386 . S
C312 C314 1.397 . S
C312 H336 0.931 . S
C313 C312 1.386 . S
C313 C317 1.397 . S
C314 C312 1.397 . S
C314 C315 1.384 . S
C314 H337 0.930 . S
C315 C314 1.384 . S
C315 C316 1.377 . S
C315 C318 1.481 . S
C316 C315 1.377 . S
C316 C317 1.389 . S
C316 H338 0.929 . S
C317 C313 1.397 . S
C317 C316 1.389 . S
C317 H339 0.931 . S
C318 C315 1.481 . S
C318 C319 1.387 . S
C318 C323 1.390 . S
C319 C318 1.387 . S
C319 C320 1.401 . S
C319 H340 0.930 . S
C320 C319 1.401 . S
C320 C321 1.376 . S
C320 C329 1.511 . S
C321 C320 1.376 . S
C321 C322 1.392 . S
C321 H342 0.931 . S
C322 C321 1.392 . S
C322 C323 1.361 . S
C322 C324 1.500 . S
C323 C318 1.390 . S
C323 C322 1.361 . S
C323 H341 0.931 . S
C324 C322 1.500 . S
C324 C325 1.371 . S
C324 C326 1.365 . S
C325 C324 1.371 . S
C325 C335 1.386 . S
C325 H343 0.931 . S
C326 C324 1.365 . S
C326 C327 1.409 . S
C326 H344 0.929 . S
C327 C326 1.409 . S
C327 C328 1.380 . S
C327 H345 0.930 . S
C328 C327 1.380 . S
C328 C335 1.357 . S
C329 C320 1.511 . S
C329 C330 1.341 . S
C329 C331 1.371 . S
C330 C329 1.341 . S
C330 C334 1.394 . S
C330 H346 0.930 . S
C331 C329 1.371 . S
C331 C332 1.392 . S
C331 H347 0.931 . S
C332 C331 1.392 . S
C332 C333 1.331 . S
C332 H350 0.932 . S
C333 C332 1.331 . S
C333 C334 1.336 . S
C334 C330 1.394 . S
C334 C333 1.336 . S
C334 H349 0.929 . S
C335 C325 1.386 . S
C335 C328 1.357 . S
C335 H348 0.928 . S
H336 C312 0.931 . S
H337 C314 0.930 . S
H338 C316 0.929 . S
H339 C317 0.931 . S
H340 C319 0.930 . S
H341 C323 0.931 . S
H342 C321 0.931 . S
H343 C325 0.931 . S
H344 C326 0.929 . S
H345 C327 0.930 . S
H346 C330 0.930 . S
H347 C331 0.931 . S
H348 C335 0.928 . S
H349 C334 0.929 . S
H350 C332 0.932 . S
C351 C352 1.386 . S
C351 C353 1.397 . S
C351 H375 0.931 . S
C352 C351 1.386 . S
C352 C356 1.397 . S
C353 C351 1.397 . S
C353 C354 1.384 . S
C353 H376 0.930 . S
C354 C353 1.384 . S
C354 C355 1.377 . S
C354 C357 1.481 . S
C355 C354 1.377 . S
C355 C356 1.389 . S
C355 H377 0.929 . S
C356 C352 1.397 . S
C356 C355 1.389 . S
C356 H378 0.931 . S
C357 C354 1.481 . S
C357 C358 1.387 . S
C357 C362 1.390 . S
C358 C357 1.387 . S
C358 C359 1.401 . S
C358 H379 0.930 . S
C359 C358 1.401 . S
C359 C360 1.376 . S
C359 C368 1.511 . S
C360 C359 1.376 . S
C360 C361 1.392 . S
C360 H381 0.931 . S
C361 C360 1.392 . S
C361 C362 1.361 . S
C361 C363 1.500 . S
C362 C357 1.390 . S
C362 C361 1.361 . S
C362 H380 0.931 . S
C363 C361 1.500 . S
C363 C364 1.371 . S
C363 C365 1.365 . S
C364 C363 1.371 . S
C364 C374 1.386 . S
C364 H382 0.931 . S
C365 C363 1.365 . S
C365 C366 1.409 . S
C365 H383 0.929 . S
C366 C365 1.409 . S
C366 C367 1.380 . S
C366 H384 0.930 . S
C367 C366 1.380 . S
C367 C374 1.357 . S
C368 C359 1.511 . S
C368 C369 1.341 1_565 S
C368 C370 1.369 1_565 S
C369 C368 1.341 1_545 S
C369 C373 1.394 . S
C369 H385 0.930 . S
C370 C368 1.369 1_545 S
C370 C371 1.405 . S
C370 H386 0.920 1_545 S
C371 C370 1.405 . S
C371 C372 1.331 . S
C371 H389 0.932 . S
C372 C371 1.331 . S
C372 C373 1.336 . S
C373 C369 1.394 . S
C373 C372 1.336 . S
C373 H388 0.929 . S
C374 C364 1.386 . S
C374 C367 1.357 . S
C374 H387 0.928 . S
H375 C351 0.931 . S
H376 C353 0.930 . S
H377 C355 0.929 . S
H378 C356 0.931 . S
H379 C358 0.930 . S
H380 C362 0.931 . S
H381 C360 0.931 . S
H382 C364 0.931 . S
H383 C365 0.929 . S
H384 C366 0.930 . S
H385 C369 0.930 . S
H386 C370 0.920 1_565 S
H387 C374 0.928 . S
H388 C373 0.929 . S
H389 C371 0.932 . S
C390 C391 1.386 . S
C390 C392 1.397 . S
C390 H414 0.931 . S
C391 C390 1.386 . S
C391 C395 1.397 . S
C392 C390 1.397 . S
C392 C393 1.384 . S
C392 H415 0.930 . S
C393 C392 1.384 . S
C393 C394 1.377 . S
C393 C396 1.481 . S
C394 C393 1.377 . S
C394 C395 1.389 . S
C394 H416 0.929 . S
C395 C391 1.397 . S
C395 C394 1.389 . S
C395 H417 0.931 . S
C396 C393 1.481 . S
C396 C397 1.387 . S
C396 C401 1.390 . S
C397 C396 1.387 . S
C397 C398 1.401 . S
C397 H418 0.930 . S
C398 C397 1.401 . S
C398 C399 1.376 . S
C398 C407 1.511 . S
C399 C398 1.376 . S
C399 C400 1.392 . S
C399 H420 0.931 . S
C400 C399 1.392 . S
C400 C401 1.361 . S
C400 C402 1.500 . S
C401 C396 1.390 . S
C401 C400 1.361 . S
C401 H419 0.931 . S
C402 C400 1.500 . S
C402 C403 1.371 . S
C402 C404 1.365 . S
C403 C402 1.371 . S
C403 C413 1.386 . S
C403 H421 0.931 . S
C404 C402 1.365 . S
C404 C405 1.409 . S
C404 H422 0.929 . S
C405 C404 1.409 . S
C405 C406 1.380 . S
C405 H423 0.930 . S
C406 C405 1.380 . S
C406 C413 1.357 . S
C407 C398 1.511 . S
C407 C408 1.341 . S
C407 C409 1.371 . S
C408 C407 1.341 . S
C408 C412 1.394 . S
C408 H424 0.930 . S
C409 C407 1.371 . S
C409 C410 1.392 . S
C409 H425 0.931 . S
C410 C409 1.392 . S
C410 C411 1.331 . S
C410 H428 0.932 . S
C411 C410 1.331 . S
C411 C412 1.336 . S
C412 C408 1.394 . S
C412 C411 1.336 . S
C412 H427 0.929 . S
C413 C403 1.386 . S
C413 C406 1.357 . S
C413 H426 0.928 . S
H414 C390 0.931 . S
H415 C392 0.930 . S
H416 C394 0.929 . S
H417 C395 0.931 . S
H418 C397 0.930 . S
H419 C401 0.931 . S
H420 C399 0.931 . S
H421 C403 0.931 . S
H422 C404 0.929 . S
H423 C405 0.930 . S
H424 C408 0.930 . S
H425 C409 0.931 . S
H426 C413 0.928 . S
H427 C412 0.929 . S
H428 C410 0.932 . S
C429 C430 1.386 . S
C429 C431 1.397 . S
C429 H453 0.931 . S
C430 C429 1.386 . S
C430 C434 1.397 . S
C431 C429 1.397 . S
C431 C432 1.384 . S
C431 H454 0.930 . S
C432 C431 1.384 . S
C432 C433 1.377 . S
C432 C435 1.481 . S
C433 C432 1.377 . S
C433 C434 1.389 . S
C433 H455 0.929 . S
C434 C430 1.397 . S
C434 C433 1.389 . S
C434 H456 0.931 . S
C435 C432 1.481 . S
C435 C436 1.387 . S
C435 C440 1.390 . S
C436 C435 1.387 . S
C436 C437 1.401 . S
C436 H457 0.930 . S
C437 C436 1.401 . S
C437 C438 1.376 . S
C437 C446 1.511 . S
C438 C437 1.376 . S
C438 C439 1.392 . S
C438 H459 0.931 . S
C439 C438 1.392 . S
C439 C440 1.361 . S
C439 C441 1.500 . S
C440 C435 1.390 . S
C440 C439 1.361 . S
C440 H458 0.931 . S
C441 C439 1.500 . S
C441 C442 1.371 . S
C441 C443 1.365 . S
C442 C441 1.371 . S
C442 C452 1.386 . S
C442 H460 0.931 . S
C443 C441 1.365 . S
C443 C444 1.409 . S
C443 H461 0.929 . S
C444 C443 1.409 . S
C444 C445 1.380 . S
C444 H462 0.930 . S
C445 C444 1.380 . S
C445 C452 1.357 . S
C446 C437 1.511 . S
C446 C447 1.341 . S
C446 C448 1.371 . S
C447 C446 1.341 . S
C447 C451 1.394 . S
C447 H463 0.930 . S
C448 C446 1.371 . S
C448 C449 1.392 . S
C448 H464 0.931 . S
C449 C448 1.392 . S
C449 C450 1.331 . S
C449 H467 0.932 . S
C450 C449 1.331 . S
C450 C451 1.336 . S
C451 C447 1.394 . S
C451 C450 1.336 . S
C451 H466 0.929 . S
C452 C442 1.386 . S
C452 C445 1.357 . S
C452 H465 0.928 . S
H453 C429 0.931 . S
H454 C431 0.930 . S
H455 C433 0.929 . S
H456 C434 0.931 . S
H457 C436 0.930 . S
H458 C440 0.931 . S
H459 C438 0.931 . S
H460 C442 0.931 . S
H461 C443 0.929 . S
H462 C444 0.930 . S
H463 C447 0.930 . S
H464 C448 0.931 . S
H465 C452 0.928 . S
H466 C451 0.929 . S
H467 C449 0.932 . S
C468 C469 1.386 . S
C468 C470 1.397 . S
C468 H492 0.931 . S
C469 C468 1.386 . S
C469 C473 1.397 . S
C470 C468 1.397 . S
C470 C471 1.384 . S
C470 H493 0.930 . S
C471 C470 1.384 . S
C471 C472 1.377 . S
C471 C474 1.481 . S
C472 C471 1.377 . S
C472 C473 1.389 . S
C472 H494 0.929 . S
C473 C469 1.397 . S
C473 C472 1.389 . S
C473 H495 0.931 . S
C474 C471 1.481 . S
C474 C475 1.387 . S
C474 C479 1.390 . S
C475 C474 1.387 . S
C475 C476 1.401 . S
C475 H496 0.930 . S
C476 C475 1.401 . S
C476 C477 1.376 . S
C476 C485 1.511 . S
C477 C476 1.376 . S
C477 C478 1.392 . S
C477 H498 0.931 . S
C478 C477 1.392 . S
C478 C479 1.361 . S
C478 C480 1.500 . S
C479 C474 1.390 . S
C479 C478 1.361 . S
C479 H497 0.931 . S
C480 C478 1.500 . S
C480 C481 1.371 . S
C480 C482 1.365 . S
C481 C480 1.371 . S
C481 C491 1.386 . S
C481 H499 0.931 . S
C482 C480 1.365 . S
C482 C483 1.409 . S
C482 H500 0.929 . S
C483 C482 1.409 . S
C483 C484 1.380 . S
C483 H501 0.930 . S
C484 C483 1.380 . S
C484 C491 1.357 . S
C485 C476 1.511 . S
C485 C486 1.341 . S
C485 C487 1.371 . S
C486 C485 1.341 . S
C486 C490 1.394 . S
C486 H502 0.930 . S
C487 C485 1.371 . S
C487 C488 1.392 . S
C487 H503 0.931 . S
C488 C487 1.392 . S
C488 C489 1.331 . S
C488 H506 0.932 . S
C489 C488 1.331 . S
C489 C490 1.336 . S
C490 C486 1.394 . S
C490 C489 1.336 . S
C490 H505 0.929 . S
C491 C481 1.386 . S
C491 C484 1.357 . S
C491 H504 0.928 . S
H492 C468 0.931 . S
H493 C470 0.930 . S
H494 C472 0.929 . S
H495 C473 0.931 . S
H496 C475 0.930 . S
H497 C479 0.931 . S
H498 C477 0.931 . S
H499 C481 0.931 . S
H500 C482 0.929 . S
H501 C483 0.930 . S
H502 C486 0.930 . S
H503 C487 0.931 . S
H504 C491 0.928 . S
H505 C490 0.929 . S
H506 C488 0.932 . S
C507 C508 1.386 . S
C507 C509 1.397 . S
C507 H531 0.931 . S
C508 C507 1.386 . S
C508 C512 1.397 . S
C509 C507 1.397 . S
C509 C510 1.384 . S
C509 H532 0.930 . S
C510 C509 1.384 . S
C510 C511 1.377 . S
C510 C513 1.481 . S
C511 C510 1.377 . S
C511 C512 1.389 . S
C511 H533 0.929 . S
C512 C508 1.397 . S
C512 C511 1.389 . S
C512 H534 0.931 . S
C513 C510 1.481 . S
C513 C514 1.387 . S
C513 C518 1.390 . S
C514 C513 1.387 . S
C514 C515 1.401 . S
C514 H535 0.930 . S
C515 C514 1.401 . S
C515 C516 1.376 . S
C515 C524 1.511 . S
C516 C515 1.376 . S
C516 C517 1.392 . S
C516 H537 0.931 . S
C517 C516 1.392 . S
C517 C518 1.361 . S
C517 C519 1.500 . S
C518 C513 1.390 . S
C518 C517 1.361 . S
C518 H536 0.931 . S
C519 C517 1.500 . S
C519 C520 1.371 . S
C519 C521 1.365 . S
C520 C519 1.371 . S
C520 C530 1.386 . S
C520 H538 0.931 1_556 S
C521 C519 1.365 . S
C521 C522 1.409 . S
C521 H539 0.929 . S
C522 C521 1.409 . S
C522 C523 1.380 . S
C522 H540 0.930 . S
C523 C522 1.380 . S
C523 C530 1.357 . S
C524 C515 1.511 . S
C524 C525 1.344 . S
C524 C526 1.371 1_556 S
C525 C524 1.344 . S
C525 C529 1.372 1_556 S
C525 H541 0.950 . S
C526 C524 1.371 1_554 S
C526 C527 1.392 . S
C526 H542 0.931 . S
C527 C526 1.392 . S
C527 C528 1.331 . S
C527 H545 0.932 . S
C528 C527 1.331 . S
C528 C529 1.336 . S
C529 C525 1.372 1_554 S
C529 C528 1.336 . S
C529 H544 0.929 . S
C530 C520 1.386 . S
C530 C523 1.357 . S
C530 H543 0.928 1_556 S
H531 C507 0.931 . S
H532 C509 0.930 . S
H533 C511 0.929 . S
H534 C512 0.931 . S
H535 C514 0.930 . S
H536 C518 0.931 . S
H537 C516 0.931 . S
H538 C520 0.931 1_554 S
H539 C521 0.929 . S
H540 C522 0.930 . S
H541 C525 0.950 . S
H542 C526 0.931 . S
H543 C530 0.928 1_554 S
H544 C529 0.929 . S
H545 C527 0.932 . S
C546 C547 1.386 . S
C546 C548 1.397 . S
C546 H570 0.931 . S
C547 C546 1.386 . S
C547 C551 1.397 . S
C548 C546 1.397 . S
C548 C549 1.384 . S
C548 H571 0.930 . S
C549 C548 1.384 . S
C549 C550 1.377 . S
C549 C552 1.481 . S
C550 C549 1.377 . S
C550 C551 1.389 . S
C550 H572 0.929 . S
C551 C547 1.397 . S
C551 C550 1.389 . S
C551 H573 0.931 . S
C552 C549 1.481 . S
C552 C553 1.387 . S
C552 C557 1.390 . S
C553 C552 1.387 . S
C553 C554 1.401 . S
C553 H574 0.930 . S
C554 C553 1.401 . S
C554 C555 1.376 . S
C554 C563 1.511 . S
C555 C554 1.376 . S
C555 C556 1.392 . S
C555 H576 0.931 . S
C556 C555 1.392 . S
C556 C557 1.361 . S
C556 C558 1.500 . S
C557 C552 1.390 . S
C557 C556 1.361 . S
C557 H575 0.931 . S
C558 C556 1.500 . S
C558 C559 1.371 . S
C558 C560 1.365 . S
C559 C558 1.371 . S
C559 C569 1.386 . S
C559 H577 0.931 . S
C560 C558 1.365 . S
C560 C561 1.409 . S
C560 H578 0.929 . S
C561 C560 1.409 . S
C561 C562 1.380 . S
C561 H579 0.930 . S
C562 C561 1.380 . S
C562 C569 1.357 . S
C563 C554 1.511 . S
C563 C564 1.341 . S
C563 C565 1.371 . S
C564 C563 1.341 . S
C564 C568 1.394 . S
C564 H580 0.930 . S
C565 C563 1.371 . S
C565 C566 1.392 . S
C565 H581 0.931 . S
C566 C565 1.392 . S
C566 C567 1.331 . S
C566 H584 0.932 . S
C567 C566 1.331 . S
C567 C568 1.336 . S
C568 C564 1.394 . S
C568 C567 1.336 . S
C568 H583 0.929 . S
C569 C559 1.386 . S
C569 C562 1.357 . S
C569 H582 0.928 . S
H570 C546 0.931 . S
H571 C548 0.930 . S
H572 C550 0.929 . S
H573 C551 0.931 . S
H574 C553 0.930 . S
H575 C557 0.931 . S
H576 C555 0.931 . S
H577 C559 0.931 . S
H578 C560 0.929 . S
H579 C561 0.930 . S
H580 C564 0.930 . S
H581 C565 0.931 . S
H582 C569 0.928 . S
H583 C568 0.929 . S
H584 C566 0.932 . S
C585 C586 1.386 . S
C585 C587 1.397 1_554 S
C585 H609 0.931 . S
C586 C585 1.386 . S
C586 C590 1.397 . S
C587 C585 1.397 1_556 S
C587 C588 1.366 1_556 S
C587 H610 0.930 . S
C588 C587 1.366 1_554 S
C588 C589 1.429 . S
C588 C591 1.449 1_554 S
C589 C588 1.429 . S
C589 C590 1.389 . S
C589 H611 0.929 . S
C590 C586 1.397 . S
C590 C589 1.389 . S
C590 H612 0.931 . S
C591 C588 1.449 1_556 S
C591 C592 1.387 . S
C591 C596 1.390 . S
C592 C591 1.387 . S
C592 C593 1.401 . S
C592 H613 0.930 . S
C593 C592 1.401 . S
C593 C594 1.376 . S
C593 C602 1.511 . S
C594 C593 1.376 . S
C594 C595 1.392 . S
C594 H615 0.931 . S
C595 C594 1.392 . S
C595 C596 1.361 . S
C595 C597 1.500 . S
C596 C591 1.390 . S
C596 C595 1.361 . S
C596 H614 0.902 1_556 S
C597 C595 1.500 . S
C597 C598 1.371 1_545 S
C597 C599 1.339 1_556 S
C598 C597 1.371 1_565 S
C598 C608 1.386 . S
C598 H616 0.931 . S
C599 C597 1.339 1_554 S
C599 C600 1.415 1_545 S
C599 H617 0.951 . S
C600 C599 1.415 1_565 S
C600 C601 1.380 1_554 S
C600 H618 0.930 . S
C601 C600 1.380 1_556 S
C601 C608 1.357 . S
C602 C593 1.511 . S
C602 C603 1.341 . S
C602 C604 1.371 . S
C603 C602 1.341 . S
C603 C607 1.394 . S
C603 H619 0.930 . S
C604 C602 1.371 . S
C604 C605 1.392 . S
C604 H620 0.931 1_545 S
C605 C604 1.392 . S
C605 C606 1.331 . S
C605 H623 0.932 1_545 S
C606 C605 1.331 . S
C606 C607 1.336 . S
C607 C603 1.394 . S
C607 C606 1.336 . S
C607 H622 0.929 . S
C608 C598 1.386 . S
C608 C601 1.357 . S
C608 H621 0.928 . S
H609 C585 0.931 . S
H610 C587 0.930 . S
H611 C589 0.929 . S
H612 C590 0.931 . S
H613 C592 0.930 . S
H614 C596 0.902 1_554 S
H615 C594 0.931 . S
H616 C598 0.931 . S
H617 C599 0.951 . S
H618 C600 0.930 . S
H619 C603 0.930 . S
H620 C604 0.931 1_565 S
H621 C608 0.928 . S
H622 C607 0.929 . S
H623 C605 0.932 1_565 S
Mn624 O629 2.095 . S
Mn624 O639 2.162 . S
Mn624 O640 2.297 . S
Mn624 O648 2.385 1_554 S
Mn624 O649 2.209 1_554 S
Mn624 O650 2.094 . S
Mn625 O630 2.121 . S
Mn625 N632 2.257 . S
Mn625 N641 2.282 . S
Mn625 O649 2.215 . S
Mn625 O651 2.117 . S
C626 O648 1.234 . S
C626 O649 1.283 . S
C627 O639 1.281 . S
C627 O640 1.236 . S
C628 O650 1.240 . S
C628 O651 1.264 1_554 S
O629 Mn624 2.095 . S
O629 C638 1.250 . S
O630 Mn625 2.121 . S
O630 C638 1.258 1_556 S
C631 N632 1.326 . S
C631 C635 1.460 . S
C631 H637 0.929 . S
N632 Mn625 2.257 . S
N632 C631 1.326 . S
N632 C636 1.362 . S
C633 C634 1.258 . S
C633 C636 1.431 . S
C633 C653 1.449 . S
C634 C633 1.258 . S
C634 C635 1.477 . S
C634 H654 0.931 . S
C635 C631 1.460 . S
C635 C634 1.477 . S
C635 H655 0.930 . S
C636 N632 1.362 . S
C636 C633 1.431 . S
C636 C646 1.476 . S
H637 C631 0.929 . S
C638 O629 1.250 . S
C638 O630 1.258 1_554 S
O639 Mn624 2.162 . S
O639 C627 1.281 . S
O640 Mn624 2.297 . S
O640 C627 1.236 . S
N641 Mn625 2.282 . S
N641 C642 1.328 . S
N641 C646 1.318 . S
C642 N641 1.328 . S
C642 C643 1.457 . S
C642 H647 0.929 . S
C643 C642 1.457 . S
C643 C644 1.291 . S
C643 H656 0.931 . S
C644 C643 1.291 . S
C644 C645 1.373 . S
C644 H657 0.929 . S
C645 C644 1.373 . S
C645 C646 1.396 . S
C645 C652 1.403 . S
C646 C636 1.476 . S
C646 N641 1.318 . S
C646 C645 1.396 . S
H647 C642 0.929 . S
O648 Mn624 2.385 1_556 S
O648 C626 1.234 . S
O649 Mn624 2.209 1_556 S
O649 Mn625 2.215 . S
O649 C626 1.283 . S
O650 Mn624 2.094 . S
O650 C628 1.240 . S
O651 Mn625 2.117 . S
O651 C628 1.264 1_556 S
C652 C645 1.403 . S
C652 C653 1.399 . S
C652 H658 0.929 . S
C653 C633 1.449 . S
C653 C652 1.399 . S
C653 H659 0.930 . S
H654 C634 0.931 . S
H655 C635 0.930 . S
H656 C643 0.931 . S
H657 C644 0.929 . S
H658 C652 0.929 . S
H659 C653 0.930 . S
Mn660 O665 2.095 . S
Mn660 O675 2.162 . S
Mn660 O676 2.297 . S
Mn660 O684 2.385 . S
Mn660 O685 2.209 . S
Mn660 O686 2.094 . S
Mn661 O666 2.121 . S
Mn661 N668 2.257 . S
Mn661 N677 2.282 . S
Mn661 O685 2.215 . S
Mn661 O687 2.117 . S
C662 O684 1.234 . S
C662 O685 1.283 . S
C663 O675 1.281 . S
C663 O676 1.236 . S
C664 O686 1.240 . S
C664 O687 1.264 . S
O665 Mn660 2.095 . S
O665 C674 1.250 . S
O666 Mn661 2.121 . S
O666 C674 1.258 . S
C667 N668 1.326 . S
C667 C671 1.460 . S
C667 H673 0.929 . S
N668 Mn661 2.257 . S
N668 C667 1.326 . S
N668 C672 1.362 . S
C669 C670 1.258 . S
C669 C672 1.431 . S
C669 C689 1.449 . S
C670 C669 1.258 . S
C670 C671 1.477 . S
C670 H690 0.931 . S
C671 C667 1.460 . S
C671 C670 1.477 . S
C671 H691 0.930 . S
C672 N668 1.362 . S
C672 C669 1.431 . S
C672 C682 1.476 . S
H673 C667 0.929 . S
C674 O665 1.250 . S
C674 O666 1.258 . S
O675 Mn660 2.162 . S
O675 C663 1.281 . S
O676 Mn660 2.297 . S
O676 C663 1.236 . S
N677 Mn661 2.282 . S
N677 C678 1.328 . S
N677 C682 1.318 . S
C678 N677 1.328 . S
C678 C679 1.457 . S
C678 H683 0.929 . S
C679 C678 1.457 . S
C679 C680 1.291 . S
C679 H692 0.931 . S
C680 C679 1.291 . S
C680 C681 1.373 . S
C680 H693 0.929 . S
C681 C680 1.373 . S
C681 C682 1.396 . S
C681 C688 1.403 . S
C682 C672 1.476 . S
C682 N677 1.318 . S
C682 C681 1.396 . S
H683 C678 0.929 . S
O684 Mn660 2.385 . S
O684 C662 1.234 . S
O685 Mn660 2.209 . S
O685 Mn661 2.215 . S
O685 C662 1.283 . S
O686 Mn660 2.094 . S
O686 C664 1.240 . S
O687 Mn661 2.117 . S
O687 C664 1.264 . S
C688 C681 1.403 . S
C688 C689 1.399 . S
C688 H694 0.929 . S
C689 C669 1.449 . S
C689 C688 1.399 . S
C689 H695 0.930 . S
H690 C670 0.931 . S
H691 C671 0.930 . S
H692 C679 0.931 . S
H693 C680 0.929 . S
H694 C688 0.929 . S
H695 C689 0.930 . S
Mn696 O701 2.095 1_554 S
Mn696 O711 2.162 . S
Mn696 O712 2.297 1_554 S
Mn696 O720 2.385 . S
Mn696 O721 2.209 1_554 S
Mn696 O722 2.094 . S
Mn697 O702 2.121 . S
Mn697 N704 2.257 . S
Mn697 N713 2.282 . S
Mn697 O721 2.215 . S
Mn697 O723 2.117 1_556 S
C698 O720 1.217 1_556 S
C698 O721 1.295 . S
C699 O711 1.281 . S
C699 O712 1.236 1_554 S
C700 O722 1.240 . S
C700 O723 1.264 . S
O701 Mn696 2.095 1_556 S
O701 C710 1.250 . S
O702 Mn697 2.121 . S
O702 C710 1.258 . S
C703 N704 1.326 . S
C703 C707 1.460 . S
C703 H709 0.929 . S
N704 Mn697 2.257 . S
N704 C703 1.326 . S
N704 C708 1.362 . S
C705 C706 1.258 . S
C705 C708 1.431 . S
C705 C725 1.449 . S
C706 C705 1.258 . S
C706 C707 1.477 . S
C706 H726 0.931 . S
C707 C703 1.460 . S
C707 C706 1.477 . S
C707 H727 0.930 . S
C708 N704 1.362 . S
C708 C705 1.431 . S
C708 C718 1.476 . S
H709 C703 0.929 . S
C710 O701 1.250 . S
C710 O702 1.258 . S
O711 Mn696 2.162 . S
O711 C699 1.281 . S
O712 Mn696 2.297 1_556 S
O712 C699 1.236 1_556 S
N713 Mn697 2.282 . S
N713 C714 1.328 1_556 S
N713 C718 1.318 . S
C714 N713 1.328 1_554 S
C714 C715 1.457 . S
C714 H719 0.929 . S
C715 C714 1.457 . S
C715 C716 1.291 . S
C715 H728 0.931 . S
C716 C715 1.291 . S
C716 C717 1.373 1_554 S
C716 H729 0.929 . S
C717 C716 1.373 1_556 S
C717 C718 1.396 . S
C717 C724 1.403 . S
C718 C708 1.476 . S
C718 N713 1.318 . S
C718 C717 1.396 . S
H719 C714 0.929 . S
O720 Mn696 2.385 . S
O720 C698 1.217 1_554 S
O721 Mn696 2.209 1_556 S
O721 Mn697 2.215 . S
O721 C698 1.295 . S
O722 Mn696 2.094 . S
O722 C700 1.240 . S
O723 Mn697 2.117 1_554 S
O723 C700 1.264 . S
C724 C717 1.403 . S
C724 C725 1.399 . S
C724 H730 0.929 . S
C725 C705 1.449 . S
C725 C724 1.399 . S
C725 H731 0.930 . S
H726 C706 0.931 . S
H727 C707 0.930 . S
H728 C715 0.931 . S
H729 C716 0.929 . S
H730 C724 0.929 . S
H731 C725 0.930 . S
Mn732 O737 2.095 . S
Mn732 O747 2.162 . S
Mn732 O748 2.297 . S
Mn732 O756 2.385 1_545 S
Mn732 O757 2.209 1_545 S
Mn732 O758 2.094 . S
Mn733 O738 2.121 . S
Mn733 N740 2.257 . S
Mn733 N749 2.282 . S
Mn733 O757 2.215 . S
Mn733 O759 2.117 . S
C734 O756 1.234 . S
C734 O757 1.283 . S
C735 O747 1.281 . S
C735 O748 1.236 . S
C736 O758 1.240 . S
C736 O759 1.264 1_545 S
O737 Mn732 2.095 . S
O737 C746 1.250 . S
O738 Mn733 2.121 . S
O738 C746 1.258 1_565 S
C739 N740 1.326 . S
C739 C743 1.460 . S
C739 H745 0.929 . S
N740 Mn733 2.257 . S
N740 C739 1.326 . S
N740 C744 1.362 . S
C741 C742 1.258 . S
C741 C744 1.431 . S
C741 C761 1.449 . S
C742 C741 1.258 . S
C742 C743 1.477 . S
C742 H762 0.931 . S
C743 C739 1.460 . S
C743 C742 1.477 . S
C743 H763 0.930 . S
C744 N740 1.362 . S
C744 C741 1.431 . S
C744 C754 1.476 . S
H745 C739 0.929 . S
C746 O737 1.250 . S
C746 O738 1.258 1_545 S
O747 Mn732 2.162 . S
O747 C735 1.281 . S
O748 Mn732 2.297 . S
O748 C735 1.236 . S
N749 Mn733 2.282 . S
N749 C750 1.328 . S
N749 C754 1.318 . S
C750 N749 1.328 . S
C750 C751 1.457 . S
C750 H755 0.929 . S
C751 C750 1.457 . S
C751 C752 1.291 . S
C751 H764 0.931 . S
C752 C751 1.291 . S
C752 C753 1.373 . S
C752 H765 0.929 . S
C753 C752 1.373 . S
C753 C754 1.396 . S
C753 C760 1.403 . S
C754 C744 1.476 . S
C754 N749 1.318 . S
C754 C753 1.396 . S
H755 C750 0.929 . S
O756 Mn732 2.385 1_565 S
O756 C734 1.234 . S
O757 Mn732 2.209 1_565 S
O757 Mn733 2.215 . S
O757 C734 1.283 . S
O758 Mn732 2.094 . S
O758 C736 1.240 . S
O759 Mn733 2.117 . S
O759 C736 1.264 1_565 S
C760 C753 1.403 . S
C760 C761 1.399 . S
C760 H766 0.929 . S
C761 C741 1.449 . S
C761 C760 1.399 . S
C761 H767 0.930 . S
H762 C742 0.931 . S
H763 C743 0.930 . S
H764 C751 0.931 . S
H765 C752 0.929 . S
H766 C760 0.929 . S
H767 C761 0.930 . S
Mn768 O773 2.095 . S
Mn768 O783 2.162 . S
Mn768 O784 2.297 . S
Mn768 O792 2.385 . S
Mn768 O793 2.209 . S
Mn768 O794 2.094 . S
Mn769 O774 2.121 . S
Mn769 N776 2.257 . S
Mn769 N785 2.282 . S
Mn769 O793 2.215 . S
Mn769 O795 2.117 . S
C770 O792 1.234 . S
C770 O793 1.283 . S
C771 O783 1.281 . S
C771 O784 1.236 . S
C772 O794 1.240 . S
C772 O795 1.264 . S
O773 Mn768 2.095 . S
O773 C782 1.250 . S
O774 Mn769 2.121 . S
O774 C782 1.258 . S
C775 N776 1.326 . S
C775 C779 1.460 . S
C775 H781 0.929 . S
N776 Mn769 2.257 . S
N776 C775 1.326 . S
N776 C780 1.362 . S
C777 C778 1.258 . S
C777 C780 1.431 . S
C777 C797 1.449 . S
C778 C777 1.258 . S
C778 C779 1.477 . S
C778 H798 0.931 . S
C779 C775 1.460 . S
C779 C778 1.477 . S
C779 H799 0.930 . S
C780 N776 1.362 . S
C780 C777 1.431 . S
C780 C790 1.476 . S
H781 C775 0.929 . S
C782 O773 1.250 . S
C782 O774 1.258 . S
O783 Mn768 2.162 . S
O783 C771 1.281 . S
O784 Mn768 2.297 . S
O784 C771 1.236 . S
N785 Mn769 2.282 . S
N785 C786 1.328 . S
N785 C790 1.318 . S
C786 N785 1.328 . S
C786 C787 1.457 . S
C786 H791 0.929 . S
C787 C786 1.457 . S
C787 C788 1.291 . S
C787 H800 0.931 . S
C788 C787 1.291 . S
C788 C789 1.373 . S
C788 H801 0.929 . S
C789 C788 1.373 . S
C789 C790 1.396 . S
C789 C796 1.403 . S
C790 C780 1.476 . S
C790 N785 1.318 . S
C790 C789 1.396 . S
H791 C786 0.929 . S
O792 Mn768 2.385 . S
O792 C770 1.234 . S
O793 Mn768 2.209 . S
O793 Mn769 2.215 . S
O793 C770 1.283 . S
O794 Mn768 2.094 . S
O794 C772 1.240 . S
O795 Mn769 2.117 . S
O795 C772 1.264 . S
C796 C789 1.403 . S
C796 C797 1.399 . S
C796 H802 0.929 . S
C797 C777 1.449 . S
C797 C796 1.399 . S
C797 H803 0.930 . S
H798 C778 0.931 . S
H799 C779 0.930 . S
H800 C787 0.931 . S
H801 C788 0.929 . S
H802 C796 0.929 . S
H803 C797 0.930 . S
Mn804 O809 2.095 . S
Mn804 O819 2.162 . S
Mn804 O820 2.297 . S
Mn804 O828 2.385 . S
Mn804 O829 2.209 . S
Mn804 O830 2.094 . S
Mn805 O810 2.121 . S
Mn805 N812 2.257 . S
Mn805 N821 2.282 . S
Mn805 O829 2.215 . S
Mn805 O831 2.117 . S
C806 O828 1.234 . S
C806 O829 1.283 . S
C807 O819 1.281 . S
C807 O820 1.236 . S
C808 O830 1.240 . S
C808 O831 1.264 . S
O809 Mn804 2.095 . S
O809 C818 1.250 . S
O810 Mn805 2.121 . S
O810 C818 1.258 . S
C811 N812 1.326 . S
C811 C815 1.460 . S
C811 H817 0.929 . S
N812 Mn805 2.257 . S
N812 C811 1.326 . S
N812 C816 1.362 . S
C813 C814 1.258 . S
C813 C816 1.431 . S
C813 C833 1.449 . S
C814 C813 1.258 . S
C814 C815 1.477 . S
C814 H834 0.931 . S
C815 C811 1.460 . S
C815 C814 1.477 . S
C815 H835 0.930 . S
C816 N812 1.362 . S
C816 C813 1.431 . S
C816 C826 1.476 . S
H817 C811 0.929 . S
C818 O809 1.250 . S
C818 O810 1.258 . S
O819 Mn804 2.162 . S
O819 C807 1.281 . S
O820 Mn804 2.297 . S
O820 C807 1.236 . S
N821 Mn805 2.282 . S
N821 C822 1.328 . S
N821 C826 1.318 . S
C822 N821 1.328 . S
C822 C823 1.457 . S
C822 H827 0.929 . S
C823 C822 1.457 . S
C823 C824 1.291 . S
C823 H836 0.931 . S
C824 C823 1.291 . S
C824 C825 1.373 . S
C824 H837 0.929 . S
C825 C824 1.373 . S
C825 C826 1.396 . S
C825 C832 1.403 . S
C826 C816 1.476 . S
C826 N821 1.318 . S
C826 C825 1.396 . S
H827 C822 0.929 . S
O828 Mn804 2.385 . S
O828 C806 1.234 . S
O829 Mn804 2.209 . S
O829 Mn805 2.215 . S
O829 C806 1.283 . S
O830 Mn804 2.094 . S
O830 C808 1.240 . S
O831 Mn805 2.117 . S
O831 C808 1.264 . S
C832 C825 1.403 . S
C832 C833 1.399 . S
C832 H838 0.929 . S
C833 C813 1.449 . S
C833 C832 1.399 . S
C833 H839 0.930 . S
H834 C814 0.931 . S
H835 C815 0.930 . S
H836 C823 0.931 . S
H837 C824 0.929 . S
H838 C832 0.929 . S
H839 C833 0.930 . S
Mn840 O845 2.095 . S
Mn840 O855 2.162 . S
Mn840 O856 2.297 . S
Mn840 O864 2.385 . S
Mn840 O865 2.209 . S
Mn840 O866 2.094 . S
Mn841 O846 2.121 . S
Mn841 N848 2.257 . S
Mn841 N857 2.282 . S
Mn841 O865 2.215 . S
Mn841 O867 2.117 . S
C842 O864 1.234 . S
C842 O865 1.283 . S
C843 O855 1.281 . S
C843 O856 1.236 . S
C844 O866 1.240 . S
C844 O867 1.264 . S
O845 Mn840 2.095 . S
O845 C854 1.250 . S
O846 Mn841 2.121 . S
O846 C854 1.258 . S
C847 N848 1.326 . S
C847 C851 1.460 . S
C847 H853 0.929 . S
N848 Mn841 2.257 . S
N848 C847 1.326 . S
N848 C852 1.362 . S
C849 C850 1.258 . S
C849 C852 1.431 . S
C849 C869 1.449 . S
C850 C849 1.258 . S
C850 C851 1.477 . S
C850 H870 0.931 . S
C851 C847 1.460 . S
C851 C850 1.477 . S
C851 H871 0.930 . S
C852 N848 1.362 . S
C852 C849 1.431 . S
C852 C862 1.476 . S
H853 C847 0.929 . S
C854 O845 1.250 . S
C854 O846 1.258 . S
O855 Mn840 2.162 . S
O855 C843 1.281 . S
O856 Mn840 2.297 . S
O856 C843 1.236 . S
N857 Mn841 2.282 . S
N857 C858 1.328 . S
N857 C862 1.318 . S
C858 N857 1.328 . S
C858 C859 1.457 . S
C858 H863 0.929 . S
C859 C858 1.457 . S
C859 C860 1.291 . S
C859 H872 0.931 . S
C860 C859 1.291 . S
C860 C861 1.373 . S
C860 H873 0.929 . S
C861 C860 1.373 . S
C861 C862 1.396 . S
C861 C868 1.403 . S
C862 C852 1.476 . S
C862 N857 1.318 . S
C862 C861 1.396 . S
H863 C858 0.929 . S
O864 Mn840 2.385 . S
O864 C842 1.234 . S
O865 Mn840 2.209 . S
O865 Mn841 2.215 . S
O865 C842 1.283 . S
O866 Mn840 2.094 . S
O866 C844 1.240 . S
O867 Mn841 2.117 . S
O867 C844 1.264 . S
C868 C861 1.403 . S
C868 C869 1.399 . S
C868 H874 0.929 . S
C869 C849 1.449 . S
C869 C868 1.399 . S
C869 H875 0.930 . S
H870 C850 0.931 . S
H871 C851 0.930 . S
H872 C859 0.931 . S
H873 C860 0.929 . S
H874 C868 0.929 . S
H875 C869 0.930 . S
Mn876 O881 2.095 . S
Mn876 O891 2.162 . S
Mn876 O892 2.297 . S
Mn876 O900 2.385 1_565 S
Mn876 O901 2.209 1_565 S
Mn876 O902 2.094 . S
Mn877 O882 2.121 . S
Mn877 N884 2.257 . S
Mn877 N893 2.282 . S
Mn877 O901 2.215 . S
Mn877 O903 2.117 . S
C878 O900 1.234 . S
C878 O901 1.283 . S
C879 O891 1.281 . S
C879 O892 1.236 . S
C880 O902 1.221 1_545 S
C880 O903 1.289 . S
O881 Mn876 2.095 . S
O881 C890 1.250 1_565 S
O882 Mn877 2.121 . S
O882 C890 1.258 . S
C883 N884 1.326 . S
C883 C887 1.460 . S
C883 H889 0.929 . S
N884 Mn877 2.257 . S
N884 C883 1.326 . S
N884 C888 1.362 . S
C885 C886 1.258 . S
C885 C888 1.431 . S
C885 C905 1.449 . S
C886 C885 1.258 . S
C886 C887 1.477 . S
C886 H906 0.931 . S
C887 C883 1.460 . S
C887 C886 1.477 . S
C887 H907 0.930 . S
C888 N884 1.362 . S
C888 C885 1.431 . S
C888 C898 1.476 . S
H889 C883 0.929 . S
C890 O881 1.250 1_545 S
C890 O882 1.258 . S
O891 Mn876 2.162 . S
O891 C879 1.281 . S
O892 Mn876 2.297 . S
O892 C879 1.236 . S
N893 Mn877 2.282 . S
N893 C894 1.328 . S
N893 C898 1.318 . S
C894 N893 1.328 . S
C894 C895 1.457 . S
C894 H899 0.929 . S
C895 C894 1.457 . S
C895 C896 1.291 . S
C895 H908 0.931 . S
C896 C895 1.291 . S
C896 C897 1.373 . S
C896 H909 0.929 . S
C897 C896 1.373 . S
C897 C898 1.396 . S
C897 C904 1.403 . S
C898 C888 1.476 . S
C898 N893 1.318 . S
C898 C897 1.396 . S
H899 C894 0.929 . S
O900 Mn876 2.385 1_545 S
O900 C878 1.234 . S
O901 Mn876 2.209 1_545 S
O901 Mn877 2.215 . S
O901 C878 1.283 . S
O902 Mn876 2.094 . S
O902 C880 1.221 1_565 S
O903 Mn877 2.117 . S
O903 C880 1.289 . S
C904 C897 1.403 . S
C904 C905 1.399 . S
C904 H910 0.929 . S
C905 C885 1.449 . S
C905 C904 1.399 . S
C905 H911 0.930 . S
H906 C886 0.931 . S
H907 C887 0.930 . S
H908 C895 0.931 . S
H909 C896 0.929 . S
H910 C904 0.929 . S
H911 C905 0.930 . S
Mn912 O917 2.095 . S
Mn912 O927 2.162 . S
Mn912 O928 2.297 . S
Mn912 O936 2.385 1_455 S
Mn912 O937 2.209 1_455 S
Mn912 O938 2.094 . S
Mn913 O918 2.121 . S
Mn913 N920 2.257 . S
Mn913 N929 2.282 . S
Mn913 O937 2.215 . S
Mn913 O939 2.117 . S
C914 O936 1.234 . S
C914 O937 1.283 . S
C915 O927 1.281 . S
C915 O928 1.236 . S
C916 O938 1.240 . S
C916 O939 1.264 1_455 S
O917 Mn912 2.095 . S
O917 C926 1.250 1_455 S
O918 Mn913 2.121 . S
O918 C926 1.258 . S
C919 N920 1.326 . S
C919 C923 1.460 . S
C919 H925 0.929 . S
N920 Mn913 2.257 . S
N920 C919 1.326 . S
N920 C924 1.362 . S
C921 C922 1.258 . S
C921 C924 1.431 . S
C921 C941 1.449 . S
C922 C921 1.258 . S
C922 C923 1.477 . S
C922 H942 0.931 . S
C923 C919 1.460 . S
C923 C922 1.477 . S
C923 H943 0.930 . S
C924 N920 1.362 . S
C924 C921 1.431 . S
C924 C934 1.476 . S
H925 C919 0.929 . S
C926 O917 1.250 1_655 S
C926 O918 1.258 . S
O927 Mn912 2.162 . S
O927 C915 1.281 . S
O928 Mn912 2.297 . S
O928 C915 1.236 . S
N929 Mn913 2.282 . S
N929 C930 1.328 . S
N929 C934 1.318 . S
C930 N929 1.328 . S
C930 C931 1.457 . S
C930 H935 0.929 . S
C931 C930 1.457 . S
C931 C932 1.291 . S
C931 H944 0.931 . S
C932 C931 1.291 . S
C932 C933 1.373 . S
C932 H945 0.929 . S
C933 C932 1.373 . S
C933 C934 1.396 . S
C933 C940 1.403 . S
C934 C924 1.476 . S
C934 N929 1.318 . S
C934 C933 1.396 . S
H935 C930 0.929 . S
O936 Mn912 2.385 1_655 S
O936 C914 1.234 . S
O937 Mn912 2.209 1_655 S
O937 Mn913 2.215 . S
O937 C914 1.283 . S
O938 Mn912 2.094 . S
O938 C916 1.240 . S
O939 Mn913 2.117 . S
O939 C916 1.264 1_655 S
C940 C933 1.403 . S
C940 C941 1.399 . S
C940 H946 0.929 . S
C941 C921 1.449 . S
C941 C940 1.399 . S
C941 H947 0.930 . S
H942 C922 0.931 . S
H943 C923 0.930 . S
H944 C931 0.931 . S
H945 C932 0.929 . S
H946 C940 0.929 . S
H947 C941 0.930 . S
Mn948 O953 2.095 . S
Mn948 O963 2.162 . S
Mn948 O964 2.297 . S
Mn948 O972 2.385 . S
Mn948 O973 2.209 . S
Mn948 O974 2.094 . S
Mn949 O954 2.121 . S
Mn949 N956 2.257 . S
Mn949 N965 2.282 . S
Mn949 O973 2.215 . S
Mn949 O975 2.117 . S
C950 O972 1.234 . S
C950 O973 1.283 . S
C951 O963 1.281 . S
C951 O964 1.236 . S
C952 O974 1.240 . S
C952 O975 1.264 . S
O953 Mn948 2.095 . S
O953 C962 1.250 . S
O954 Mn949 2.121 . S
O954 C962 1.258 . S
C955 N956 1.326 . S
C955 C959 1.460 . S
C955 H961 0.929 . S
N956 Mn949 2.257 . S
N956 C955 1.326 . S
N956 C960 1.362 . S
C957 C958 1.258 . S
C957 C960 1.431 . S
C957 C977 1.449 . S
C958 C957 1.258 . S
C958 C959 1.477 . S
C958 H978 0.931 . S
C959 C955 1.460 . S
C959 C958 1.477 . S
C959 H979 0.930 . S
C960 N956 1.362 . S
C960 C957 1.431 . S
C960 C970 1.476 . S
H961 C955 0.929 . S
C962 O953 1.250 . S
C962 O954 1.258 . S
O963 Mn948 2.162 . S
O963 C951 1.281 . S
O964 Mn948 2.297 . S
O964 C951 1.236 . S
N965 Mn949 2.282 . S
N965 C966 1.328 . S
N965 C970 1.318 . S
C966 N965 1.328 . S
C966 C967 1.457 . S
C966 H971 0.929 . S
C967 C966 1.457 . S
C967 C968 1.291 . S
C967 H980 0.931 . S
C968 C967 1.291 . S
C968 C969 1.373 . S
C968 H981 0.929 . S
C969 C968 1.373 . S
C969 C970 1.396 . S
C969 C976 1.403 . S
C970 C960 1.476 . S
C970 N965 1.318 . S
C970 C969 1.396 . S
H971 C966 0.929 . S
O972 Mn948 2.385 . S
O972 C950 1.234 . S
O973 Mn948 2.209 . S
O973 Mn949 2.215 . S
O973 C950 1.283 . S
O974 Mn948 2.094 . S
O974 C952 1.240 . S
O975 Mn949 2.117 . S
O975 C952 1.264 . S
C976 C969 1.403 . S
C976 C977 1.399 . S
C976 H982 0.929 . S
C977 C957 1.449 . S
C977 C976 1.399 . S
C977 H983 0.930 . S
H978 C958 0.931 . S
H979 C959 0.930 . S
H980 C967 0.931 . S
H981 C968 0.929 . S
H982 C976 0.929 . S
H983 C977 0.930 . S
Mn984 O989 2.095 1_455 S
Mn984 O999 2.162 . S
Mn984 O1000 2.297 1_455 S
Mn984 O1008 2.385 . S
Mn984 O1009 2.209 1_455 S
Mn984 O1010 2.094 . S
Mn985 O990 2.121 . S
Mn985 N992 2.257 . S
Mn985 N1001 2.282 1_655 S
Mn985 O1009 2.215 . S
Mn985 O1011 2.117 1_655 S
C986 O1008 1.234 . S
C986 O1009 1.283 1_455 S
C987 O999 1.281 . S
C987 O1000 1.236 1_455 S
C988 O1010 1.240 . S
C988 O1011 1.264 . S
O989 Mn984 2.095 1_655 S
O989 C998 1.250 . S
O990 Mn985 2.121 . S
O990 C998 1.258 . S
C991 N992 1.326 . S
C991 C995 1.460 . S
C991 H997 0.929 . S
N992 Mn985 2.257 . S
N992 C991 1.326 . S
N992 C996 1.362 . S
C993 C994 1.258 . S
C993 C996 1.431 . S
C993 C1013 1.449 . S
C994 C993 1.258 . S
C994 C995 1.477 . S
C994 H1014 0.931 . S
C995 C991 1.460 . S
C995 C994 1.477 . S
C995 H1015 0.930 . S
C996 N992 1.362 . S
C996 C993 1.431 . S
C996 C1006 1.476 . S
H997 C991 0.929 . S
C998 O989 1.250 . S
C998 O990 1.258 . S
O999 Mn984 2.162 . S
O999 C987 1.281 . S
O1000 Mn984 2.297 1_655 S
O1000 C987 1.236 1_655 S
N1001 Mn985 2.282 1_455 S
N1001 C1002 1.328 . S
N1001 C1006 1.318 1_455 S
C1002 N1001 1.328 . S
C1002 C1003 1.457 . S
C1002 H1007 0.929 . S
C1003 C1002 1.457 . S
C1003 C1004 1.291 . S
C1003 H1016 0.931 . S
C1004 C1003 1.291 . S
C1004 C1005 1.373 1_455 S
C1004 H1017 0.929 . S
C1005 C1004 1.373 1_655 S
C1005 C1006 1.396 . S
C1005 C1012 1.403 . S
C1006 C996 1.476 . S
C1006 N1001 1.318 1_655 S
C1006 C1005 1.396 . S
H1007 C1002 0.929 . S
O1008 Mn984 2.385 . S
O1008 C986 1.234 . S
O1009 Mn984 2.209 1_655 S
O1009 Mn985 2.215 . S
O1009 C986 1.283 1_655 S
O1010 Mn984 2.094 . S
O1010 C988 1.240 . S
O1011 Mn985 2.117 1_455 S
O1011 C988 1.264 . S
C1012 C1005 1.403 . S
C1012 C1013 1.399 . S
C1012 H1018 0.929 . S
C1013 C993 1.449 . S
C1013 C1012 1.399 . S
C1013 H1019 0.930 . S
H1014 C994 0.931 . S
H1015 C995 0.930 . S
H1016 C1003 0.931 . S
H1017 C1004 0.929 . S
H1018 C1012 0.929 . S
H1019 C1013 0.930 . S
Mn1020 O1025 2.095 . S
Mn1020 O1035 2.162 . S
Mn1020 O1036 2.297 . S
Mn1020 O1044 2.385 . S
Mn1020 O1045 2.209 . S
Mn1020 O1046 2.094 . S
Mn1021 O1026 2.121 . S
Mn1021 N1028 2.257 . S
Mn1021 N1037 2.282 . S
Mn1021 O1045 2.215 . S
Mn1021 O1047 2.117 . S
C1022 O1044 1.234 . S
C1022 O1045 1.283 . S
C1023 O1035 1.281 . S
C1023 O1036 1.236 . S
C1024 O1046 1.240 . S
C1024 O1047 1.264 . S
O1025 Mn1020 2.095 . S
O1025 C1034 1.250 . S
O1026 Mn1021 2.121 . S
O1026 C1034 1.258 . S
C1027 N1028 1.326 . S
C1027 C1031 1.460 . S
C1027 H1033 0.929 . S
N1028 Mn1021 2.257 . S
N1028 C1027 1.326 . S
N1028 C1032 1.362 . S
C1029 C1030 1.258 . S
C1029 C1032 1.431 . S
C1029 C1049 1.449 . S
C1030 C1029 1.258 . S
C1030 C1031 1.477 . S
C1030 H1050 0.931 . S
C1031 C1027 1.460 . S
C1031 C1030 1.477 . S
C1031 H1051 0.930 . S
C1032 N1028 1.362 . S
C1032 C1029 1.431 . S
C1032 C1042 1.476 . S
H1033 C1027 0.929 . S
C1034 O1025 1.250 . S
C1034 O1026 1.258 . S
O1035 Mn1020 2.162 . S
O1035 C1023 1.281 . S
O1036 Mn1020 2.297 . S
O1036 C1023 1.236 . S
N1037 Mn1021 2.282 . S
N1037 C1038 1.328 . S
N1037 C1042 1.318 . S
C1038 N1037 1.328 . S
C1038 C1039 1.457 . S
C1038 H1043 0.929 . S
C1039 C1038 1.457 . S
C1039 C1040 1.291 . S
C1039 H1052 0.931 . S
C1040 C1039 1.291 . S
C1040 C1041 1.373 . S
C1040 H1053 0.929 . S
C1041 C1040 1.373 . S
C1041 C1042 1.396 . S
C1041 C1048 1.403 . S
C1042 C1032 1.476 . S
C1042 N1037 1.318 . S
C1042 C1041 1.396 . S
H1043 C1038 0.929 . S
O1044 Mn1020 2.385 . S
O1044 C1022 1.234 . S
O1045 Mn1020 2.209 . S
O1045 Mn1021 2.215 . S
O1045 C1022 1.283 . S
O1046 Mn1020 2.094 . S
O1046 C1024 1.240 . S
O1047 Mn1021 2.117 . S
O1047 C1024 1.264 . S
C1048 C1041 1.403 . S
C1048 C1049 1.399 . S
C1048 H1054 0.929 . S
C1049 C1029 1.449 . S
C1049 C1048 1.399 . S
C1049 H1055 0.930 . S
H1050 C1030 0.931 . S
H1051 C1031 0.930 . S
H1052 C1039 0.931 . S
H1053 C1040 0.929 . S
H1054 C1048 0.929 . S
H1055 C1049 0.930 . S
H1056 C1062 0.930 . S
H1057 C1065 0.930 . S
H1058 C1066 0.930 . S
H1059 C1067 0.930 . S
H1060 C1070 0.930 . S
H1061 C1071 0.930 . S
C1062 H1056 0.930 . S
C1062 C1063 1.355 . S
C1062 C1064 1.415 . S
C1063 C1062 1.355 . S
C1063 C1065 1.419 . S
C1064 C1062 1.415 . S
C1064 C1069 1.425 . S
C1064 C1071 1.409 . S
C1065 H1057 0.930 . S
C1065 C1063 1.419 . S
C1065 C1066 1.362 . S
C1066 H1058 0.930 . S
C1066 C1065 1.362 . S
C1066 C1069 1.409 . S
C1067 H1059 0.930 . S
C1067 C1068 1.355 . S
C1067 C1069 1.415 . S
C1068 C1067 1.355 . S
C1068 C1070 1.419 . S
C1069 C1064 1.425 . S
C1069 C1066 1.409 . S
C1069 C1067 1.415 . S
C1070 H1060 0.930 . S
C1070 C1068 1.419 . S
C1070 C1071 1.362 . S
C1071 H1061 0.930 . S
C1071 C1064 1.409 . S
C1071 C1070 1.362 . S
H1072 C1078 0.930 . S
H1073 C1081 0.930 . S
H1074 C1082 0.930 . S
H1075 C1083 0.930 . S
H1076 C1086 0.930 . S
H1077 C1087 0.930 . S
C1078 H1072 0.930 . S
C1078 C1079 1.355 . S
C1078 C1080 1.415 . S
C1079 C1078 1.355 . S
C1079 C1081 1.419 . S
C1080 C1078 1.415 . S
C1080 C1085 1.425 . S
C1080 C1087 1.409 . S
C1081 H1073 0.930 . S
C1081 C1079 1.419 . S
C1081 C1082 1.362 . S
C1082 H1074 0.930 . S
C1082 C1081 1.362 . S
C1082 C1085 1.409 . S
C1083 H1075 0.930 . S
C1083 C1084 1.355 . S
C1083 C1085 1.415 . S
C1084 C1083 1.355 . S
C1084 C1086 1.419 . S
C1085 C1080 1.425 . S
C1085 C1082 1.409 . S
C1085 C1083 1.415 . S
C1086 H1076 0.930 . S
C1086 C1084 1.419 . S
C1086 C1087 1.362 . S
C1087 H1077 0.930 . S
C1087 C1080 1.409 . S
C1087 C1086 1.362 . S
H1088 C1094 0.930 . S
H1089 C1097 0.930 . S
H1090 C1098 0.930 . S
H1091 C1099 0.930 . S
H1092 C1102 0.930 . S
H1093 C1103 0.930 . S
C1094 H1088 0.930 . S
C1094 C1095 1.355 . S
C1094 C1096 1.415 . S
C1095 C1094 1.355 . S
C1095 C1097 1.419 . S
C1096 C1094 1.415 . S
C1096 C1101 1.425 . S
C1096 C1103 1.409 . S
C1097 H1089 0.930 . S
C1097 C1095 1.419 . S
C1097 C1098 1.362 . S
C1098 H1090 0.930 . S
C1098 C1097 1.362 . S
C1098 C1101 1.409 . S
C1099 H1091 0.930 . S
C1099 C1100 1.355 . S
C1099 C1101 1.415 . S
C1100 C1099 1.355 . S
C1100 C1102 1.419 . S
C1101 C1096 1.425 . S
C1101 C1098 1.409 . S
C1101 C1099 1.415 . S
C1102 H1092 0.930 . S
C1102 C1100 1.419 . S
C1102 C1103 1.362 . S
C1103 H1093 0.930 . S
C1103 C1096 1.409 . S
C1103 C1102 1.362 . S
H1104 C1110 0.930 . S
H1105 C1113 0.930 . S
H1106 C1114 0.930 . S
H1107 C1115 0.930 . S
H1108 C1118 0.930 . S
H1109 C1119 0.930 . S
C1110 H1104 0.930 . S
C1110 C1111 1.355 . S
C1110 C1112 1.415 . S
C1111 C1110 1.355 . S
C1111 C1113 1.419 1_565 S
C1112 C1110 1.415 . S
C1112 C1117 1.425 1_565 S
C1112 C1119 1.409 . S
C1113 H1105 0.930 . S
C1113 C1111 1.419 1_545 S
C1113 C1114 1.362 . S
C1114 H1106 0.930 . S
C1114 C1113 1.362 . S
C1114 C1117 1.409 . S
C1115 H1107 0.930 . S
C1115 C1116 1.367 . S
C1115 C1117 1.415 . S
C1116 C1115 1.367 . S
C1116 C1118 1.398 1_545 S
C1117 C1112 1.425 1_545 S
C1117 C1114 1.409 . S
C1117 C1115 1.415 . S
C1118 H1108 0.930 . S
C1118 C1116 1.398 1_565 S
C1118 C1119 1.362 . S
C1119 H1109 0.930 . S
C1119 C1112 1.409 . S
C1119 C1118 1.362 . S
H1120 C1126 0.930 . S
H1121 C1129 0.930 . S
H1122 C1130 0.930 . S
H1123 C1131 0.930 . S
H1124 C1134 0.930 . S
H1125 C1135 0.930 . S
C1126 H1120 0.930 . S
C1126 C1127 1.355 . S
C1126 C1128 1.415 . S
C1127 C1126 1.355 . S
C1127 C1129 1.419 . S
C1128 C1126 1.415 . S
C1128 C1133 1.425 . S
C1128 C1135 1.409 . S
C1129 H1121 0.930 . S
C1129 C1127 1.419 . S
C1129 C1130 1.362 . S
C1130 H1122 0.930 . S
C1130 C1129 1.362 . S
C1130 C1133 1.409 . S
C1131 H1123 0.930 . S
C1131 C1132 1.355 . S
C1131 C1133 1.415 . S
C1132 C1131 1.355 . S
C1132 C1134 1.419 . S
C1133 C1128 1.425 . S
C1133 C1130 1.409 . S
C1133 C1131 1.415 . S
C1134 H1124 0.930 . S
C1134 C1132 1.419 . S
C1134 C1135 1.362 . S
C1135 H1125 0.930 . S
C1135 C1128 1.409 . S
C1135 C1134 1.362 . S
H1136 C1142 0.930 . S
H1137 C1145 0.930 . S
H1138 C1146 0.930 . S
H1139 C1147 0.930 . S
H1140 C1150 0.930 . S
H1141 C1151 0.930 . S
C1142 H1136 0.930 . S
C1142 C1143 1.355 . S
C1142 C1144 1.415 . S
C1143 C1142 1.355 . S
C1143 C1145 1.419 . S
C1144 C1142 1.415 . S
C1144 C1149 1.425 . S
C1144 C1151 1.409 . S
C1145 H1137 0.930 . S
C1145 C1143 1.419 . S
C1145 C1146 1.362 . S
C1146 H1138 0.930 . S
C1146 C1145 1.362 . S
C1146 C1149 1.409 . S
C1147 H1139 0.930 . S
C1147 C1148 1.355 . S
C1147 C1149 1.415 . S
C1148 C1147 1.355 . S
C1148 C1150 1.419 . S
C1149 C1144 1.425 . S
C1149 C1146 1.409 . S
C1149 C1147 1.415 . S
C1150 H1140 0.930 . S
C1150 C1148 1.419 . S
C1150 C1151 1.362 . S
C1151 H1141 0.930 . S
C1151 C1144 1.409 . S
C1151 C1150 1.362 . S
H1152 C1158 0.930 . S
H1153 C1161 0.930 . S
H1154 C1162 0.930 . S
H1155 C1163 0.930 . S
H1156 C1166 0.930 . S
H1157 C1167 0.930 . S
C1158 H1152 0.930 . S
C1158 C1159 1.355 . S
C1158 C1160 1.415 . S
C1159 C1158 1.355 . S
C1159 C1161 1.419 . S
C1160 C1158 1.415 . S
C1160 C1165 1.425 . S
C1160 C1167 1.409 . S
C1161 H1153 0.930 . S
C1161 C1159 1.419 . S
C1161 C1162 1.362 . S
C1162 H1154 0.930 . S
C1162 C1161 1.362 . S
C1162 C1165 1.409 . S
C1163 H1155 0.930 . S
C1163 C1164 1.355 . S
C1163 C1165 1.415 . S
C1164 C1163 1.355 . S
C1164 C1166 1.419 . S
C1165 C1160 1.425 . S
C1165 C1162 1.409 . S
C1165 C1163 1.415 . S
C1166 H1156 0.930 . S
C1166 C1164 1.419 . S
C1166 C1167 1.362 . S
C1167 H1157 0.930 . S
C1167 C1160 1.409 . S
C1167 C1166 1.362 . S
H1168 C1174 0.930 . S
H1169 C1177 0.930 . S
H1170 C1178 0.930 . S
H1171 C1179 0.930 . S
H1172 C1182 0.930 . S
H1173 C1183 0.930 . S
C1174 H1168 0.930 . S
C1174 C1175 1.355 . S
C1174 C1176 1.415 . S
C1175 C1174 1.355 . S
C1175 C1177 1.419 1_565 S
C1176 C1174 1.415 . S
C1176 C1181 1.425 1_565 S
C1176 C1183 1.409 . S
C1177 H1169 0.930 . S
C1177 C1175 1.419 1_545 S
C1177 C1178 1.362 . S
C1178 H1170 0.930 . S
C1178 C1177 1.362 . S
C1178 C1181 1.409 . S
C1179 H1171 0.930 . S
C1179 C1180 1.355 1_545 S
C1179 C1181 1.415 . S
C1180 C1179 1.355 1_565 S
C1180 C1182 1.419 . S
C1181 C1176 1.425 1_545 S
C1181 C1178 1.409 . S
C1181 C1179 1.415 . S
C1182 H1172 0.930 . S
C1182 C1180 1.419 . S
C1182 C1183 1.362 . S
C1183 H1173 0.930 . S
C1183 C1176 1.409 . S
C1183 C1182 1.362 . S
H1184 C1190 0.930 . S
H1185 C1193 0.930 . S
H1186 C1194 0.930 . S
H1187 C1195 0.930 . S
H1188 C1198 0.930 . S
H1189 C1199 0.930 . S
C1190 H1184 0.930 . S
C1190 C1191 1.355 . S
C1190 C1192 1.415 . S
C1191 C1190 1.355 . S
C1191 C1193 1.419 . S
C1192 C1190 1.415 . S
C1192 C1197 1.425 . S
C1192 C1199 1.409 . S
C1193 H1185 0.930 . S
C1193 C1191 1.419 . S
C1193 C1194 1.362 . S
C1194 H1186 0.930 . S
C1194 C1193 1.362 . S
C1194 C1197 1.409 . S
C1195 H1187 0.930 . S
C1195 C1196 1.355 . S
C1195 C1197 1.415 . S
C1196 C1195 1.355 . S
C1196 C1198 1.419 . S
C1197 C1192 1.425 . S
C1197 C1194 1.409 . S
C1197 C1195 1.415 . S
C1198 H1188 0.930 . S
C1198 C1196 1.419 . S
C1198 C1199 1.362 . S
C1199 H1189 0.930 . S
C1199 C1192 1.409 . S
C1199 C1198 1.362 . S
H1200 C1206 0.930 . S
H1201 C1209 0.930 . S
H1202 C1210 0.930 . S
H1203 C1211 0.930 . S
H1204 C1214 0.930 . S
H1205 C1215 0.930 . S
C1206 H1200 0.930 . S
C1206 C1207 1.355 . S
C1206 C1208 1.415 . S
C1207 C1206 1.355 . S
C1207 C1209 1.419 . S
C1208 C1206 1.415 . S
C1208 C1213 1.425 . S
C1208 C1215 1.409 . S
C1209 H1201 0.930 . S
C1209 C1207 1.419 . S
C1209 C1210 1.362 . S
C1210 H1202 0.930 . S
C1210 C1209 1.362 . S
C1210 C1213 1.409 . S
C1211 H1203 0.930 . S
C1211 C1212 1.355 . S
C1211 C1213 1.415 . S
C1212 C1211 1.355 . S
C1212 C1214 1.419 . S
C1213 C1208 1.425 . S
C1213 C1210 1.409 . S
C1213 C1211 1.415 . S
C1214 H1204 0.930 . S
C1214 C1212 1.419 . S
C1214 C1215 1.362 . S
C1215 H1205 0.930 . S
C1215 C1208 1.409 . S
C1215 C1214 1.362 . S
H1216 C1222 0.930 . S
H1217 C1225 0.930 . S
H1218 C1226 0.930 . S
H1219 C1227 0.930 . S
H1220 C1230 0.930 . S
H1221 C1231 0.930 . S
C1222 H1216 0.930 . S
C1222 C1223 1.355 . S
C1222 C1224 1.415 . S
C1223 C1222 1.355 . S
C1223 C1225 1.419 . S
C1224 C1222 1.415 . S
C1224 C1229 1.425 . S
C1224 C1231 1.409 . S
C1225 H1217 0.930 . S
C1225 C1223 1.419 . S
C1225 C1226 1.362 . S
C1226 H1218 0.930 . S
C1226 C1225 1.362 . S
C1226 C1229 1.409 . S
C1227 H1219 0.930 . S
C1227 C1228 1.355 . S
C1227 C1229 1.415 . S
C1228 C1227 1.355 . S
C1228 C1230 1.419 . S
C1229 C1224 1.425 . S
C1229 C1226 1.409 . S
C1229 C1227 1.415 . S
C1230 H1220 0.930 . S
C1230 C1228 1.419 . S
C1230 C1231 1.362 . S
C1231 H1221 0.930 . S
C1231 C1224 1.409 . S
C1231 C1230 1.362 . S
H1232 C1238 0.930 . S
H1233 C1241 0.930 . S
H1234 C1242 0.930 . S
H1235 C1243 0.930 . S
H1236 C1246 0.930 . S
H1237 C1247 0.930 . S
C1238 H1232 0.930 . S
C1238 C1239 1.355 . S
C1238 C1240 1.415 . S
C1239 C1238 1.355 . S
C1239 C1241 1.419 . S
C1240 C1238 1.415 . S
C1240 C1245 1.425 . S
C1240 C1247 1.409 . S
C1241 H1233 0.930 . S
C1241 C1239 1.419 . S
C1241 C1242 1.362 . S
C1242 H1234 0.930 . S
C1242 C1241 1.362 . S
C1242 C1245 1.409 . S
C1243 H1235 0.930 . S
C1243 C1244 1.355 . S
C1243 C1245 1.415 . S
C1244 C1243 1.355 . S
C1244 C1246 1.419 . S
C1245 C1240 1.425 . S
C1245 C1242 1.409 . S
C1245 C1243 1.415 . S
C1246 H1236 0.930 . S
C1246 C1244 1.419 . S
C1246 C1247 1.362 . S
C1247 H1237 0.930 . S
C1247 C1240 1.409 . S
C1247 C1246 1.362 . S
H1248 C1254 0.930 . S
H1249 C1257 0.930 . S
H1250 C1258 0.930 . S
H1251 C1259 0.930 . S
H1252 C1262 0.930 . S
H1253 C1263 0.930 . S
C1254 H1248 0.930 . S
C1254 C1255 1.355 . S
C1254 C1256 1.415 . S
C1255 C1254 1.355 . S
C1255 C1257 1.419 . S
C1256 C1254 1.415 . S
C1256 C1261 1.425 . S
C1256 C1263 1.409 . S
C1257 H1249 0.930 . S
C1257 C1255 1.419 . S
C1257 C1258 1.362 . S
C1258 H1250 0.930 . S
C1258 C1257 1.362 . S
C1258 C1261 1.409 . S
C1259 H1251 0.930 . S
C1259 C1260 1.355 . S
C1259 C1261 1.415 . S
C1260 C1259 1.355 . S
C1260 C1262 1.419 . S
C1261 C1256 1.425 . S
C1261 C1258 1.409 . S
C1261 C1259 1.415 . S
C1262 H1252 0.930 . S
C1262 C1260 1.419 . S
C1262 C1263 1.362 . S
C1263 H1253 0.930 . S
C1263 C1256 1.409 . S
C1263 C1262 1.362 . S
H1264 C1270 0.930 1_655 S
H1265 C1273 0.930 . S
H1266 C1274 0.930 . S
H1267 C1275 0.930 . S
H1268 C1278 0.930 . S
H1269 C1279 0.930 . S
C1270 H1264 0.930 1_455 S
C1270 C1271 1.355 . S
C1270 C1272 1.415 . S
C1271 C1270 1.355 . S
C1271 C1273 1.419 . S
C1272 C1270 1.415 . S
C1272 C1277 1.425 . S
C1272 C1279 1.409 1_455 S
C1273 H1265 0.930 . S
C1273 C1271 1.419 . S
C1273 C1274 1.362 . S
C1274 H1266 0.930 . S
C1274 C1273 1.362 . S
C1274 C1277 1.409 . S
C1275 H1267 0.930 . S
C1275 C1276 1.355 . S
C1275 C1277 1.415 . S
C1276 C1275 1.355 . S
C1276 C1278 1.419 1_455 S
C1277 C1272 1.425 . S
C1277 C1274 1.409 . S
C1277 C1275 1.415 . S
C1278 H1268 0.930 . S
C1278 C1276 1.419 1_655 S
C1278 C1279 1.362 . S
C1279 H1269 0.930 . S
C1279 C1272 1.409 1_655 S
C1279 C1278 1.362 . S
H1280 C1286 0.930 . S
H1281 C1289 0.930 . S
H1282 C1290 0.930 . S
H1283 C1291 0.930 . S
H1284 C1294 0.930 . S
H1285 C1295 0.930 . S
C1286 H1280 0.930 . S
C1286 C1287 1.355 . S
C1286 C1288 1.415 . S
C1287 C1286 1.355 . S
C1287 C1289 1.419 . S
C1288 C1286 1.415 . S
C1288 C1293 1.425 . S
C1288 C1295 1.409 . S
C1289 H1281 0.930 . S
C1289 C1287 1.419 . S
C1289 C1290 1.362 . S
C1290 H1282 0.930 . S
C1290 C1289 1.362 . S
C1290 C1293 1.409 . S
C1291 H1283 0.930 . S
C1291 C1292 1.355 . S
C1291 C1293 1.415 . S
C1292 C1291 1.355 . S
C1292 C1294 1.419 . S
C1293 C1288 1.425 . S
C1293 C1290 1.409 . S
C1293 C1291 1.415 . S
C1294 H1284 0.930 . S
C1294 C1292 1.419 . S
C1294 C1295 1.362 . S
C1295 H1285 0.930 . S
C1295 C1288 1.409 . S
C1295 C1294 1.362 . S
H1296 C1302 0.930 . S
H1297 C1305 0.923 1_455 S
H1298 C1306 0.930 . S
H1299 C1307 0.930 . S
H1300 C1310 0.930 . S
H1301 C1311 0.930 . S
C1302 H1296 0.930 . S
C1302 C1303 1.355 . S
C1302 C1304 1.415 . S
C1303 C1302 1.355 . S
C1303 C1305 1.431 . S
C1304 C1302 1.415 . S
C1304 C1309 1.425 . S
C1304 C1311 1.409 . S
C1305 H1297 0.923 1_655 S
C1305 C1303 1.431 . S
C1305 C1306 1.358 1_655 S
C1306 H1298 0.930 . S
C1306 C1305 1.358 1_455 S
C1306 C1309 1.409 1_455 S
C1307 H1299 0.930 . S
C1307 C1308 1.355 1_455 S
C1307 C1309 1.415 1_455 S
C1308 C1307 1.355 1_655 S
C1308 C1310 1.419 . S
C1309 C1304 1.425 . S
C1309 C1306 1.409 1_655 S
C1309 C1307 1.415 1_655 S
C1310 H1300 0.930 . S
C1310 C1308 1.419 . S
C1310 C1311 1.362 . S
C1311 H1301 0.930 . S
C1311 C1304 1.409 . S
C1311 C1310 1.362 . S
H1312 C1318 0.930 . S
H1313 C1321 0.930 . S
H1314 C1322 0.930 . S
H1315 C1323 0.930 . S
H1316 C1326 0.930 . S
H1317 C1327 0.930 . S
C1318 H1312 0.930 . S
C1318 C1319 1.355 . S
C1318 C1320 1.415 . S
C1319 C1318 1.355 . S
C1319 C1321 1.419 . S
C1320 C1318 1.415 . S
C1320 C1325 1.425 . S
C1320 C1327 1.409 . S
C1321 H1313 0.930 . S
C1321 C1319 1.419 . S
C1321 C1322 1.362 . S
C1322 H1314 0.930 . S
C1322 C1321 1.362 . S
C1322 C1325 1.409 . S
C1323 H1315 0.930 . S
C1323 C1324 1.355 . S
C1323 C1325 1.415 . S
C1324 C1323 1.355 . S
C1324 C1326 1.419 . S
C1325 C1320 1.425 . S
C1325 C1322 1.409 . S
C1325 C1323 1.415 . S
C1326 H1316 0.930 . S
C1326 C1324 1.419 . S
C1326 C1327 1.362 . S
C1327 H1317 0.930 . S
C1327 C1320 1.409 . S
C1327 C1326 1.362 . S
H1328 C1334 0.930 . S
H1329 C1337 0.930 . S
H1330 C1338 0.930 . S
H1331 C1339 0.930 . S
H1332 C1342 0.930 . S
H1333 C1343 0.930 . S
C1334 H1328 0.930 . S
C1334 C1335 1.355 . S
C1334 C1336 1.415 . S
C1335 C1334 1.355 . S
C1335 C1337 1.419 . S
C1336 C1334 1.415 . S
C1336 C1341 1.425 . S
C1336 C1343 1.409 . S
C1337 H1329 0.930 . S
C1337 C1335 1.419 . S
C1337 C1338 1.362 . S
C1338 H1330 0.930 . S
C1338 C1337 1.362 . S
C1338 C1341 1.409 . S
C1339 H1331 0.930 . S
C1339 C1340 1.355 . S
C1339 C1341 1.415 . S
C1340 C1339 1.355 . S
C1340 C1342 1.419 . S
C1341 C1336 1.425 . S
C1341 C1338 1.409 . S
C1341 C1339 1.415 . S
C1342 H1332 0.930 . S
C1342 C1340 1.419 . S
C1342 C1343 1.362 . S
C1343 H1333 0.930 . S
C1343 C1336 1.409 . S
C1343 C1342 1.362 . S
H1344 C1350 0.930 . S
H1345 C1353 0.930 . S
H1346 C1354 0.930 . S
H1347 C1355 0.930 . S
H1348 C1358 0.930 . S
H1349 C1359 0.930 . S
C1350 H1344 0.930 . S
C1350 C1351 1.355 1_554 S
C1350 C1352 1.415 . S
C1351 C1350 1.355 1_556 S
C1351 C1353 1.419 . S
C1352 C1350 1.415 . S
C1352 C1357 1.425 1_554 S
C1352 C1359 1.409 . S
C1353 H1345 0.930 . S
C1353 C1351 1.419 . S
C1353 C1354 1.362 . S
C1354 H1346 0.930 . S
C1354 C1353 1.362 . S
C1354 C1357 1.409 . S
C1355 H1347 0.930 . S
C1355 C1356 1.355 1_556 S
C1355 C1357 1.415 . S
C1356 C1355 1.355 1_554 S
C1356 C1358 1.419 . S
C1357 C1352 1.425 1_556 S
C1357 C1354 1.409 . S
C1357 C1355 1.415 . S
C1358 H1348 0.930 . S
C1358 C1356 1.419 . S
C1358 C1359 1.362 . S
C1359 H1349 0.930 . S
C1359 C1352 1.409 . S
C1359 C1358 1.362 . S
H1360 C1366 0.930 . S
H1361 C1369 0.930 . S
H1362 C1370 0.930 . S
H1363 C1371 0.930 . S
H1364 C1374 0.930 . S
H1365 C1375 0.930 . S
C1366 H1360 0.930 . S
C1366 C1367 1.355 . S
C1366 C1368 1.415 . S
C1367 C1366 1.355 . S
C1367 C1369 1.419 . S
C1368 C1366 1.415 . S
C1368 C1373 1.425 . S
C1368 C1375 1.409 . S
C1369 H1361 0.930 . S
C1369 C1367 1.419 . S
C1369 C1370 1.362 . S
C1370 H1362 0.930 . S
C1370 C1369 1.362 . S
C1370 C1373 1.409 . S
C1371 H1363 0.930 . S
C1371 C1372 1.355 . S
C1371 C1373 1.415 . S
C1372 C1371 1.355 . S
C1372 C1374 1.419 . S
C1373 C1368 1.425 . S
C1373 C1370 1.409 . S
C1373 C1371 1.415 . S
C1374 H1364 0.930 . S
C1374 C1372 1.419 . S
C1374 C1375 1.362 . S
C1375 H1365 0.930 . S
C1375 C1368 1.409 . S
C1375 C1374 1.362 . S
H1376 C1382 0.930 . S
H1377 C1385 0.930 . S
H1378 C1386 0.930 . S
H1379 C1387 0.930 . S
H1380 C1390 0.930 . S
H1381 C1391 0.930 . S
C1382 H1376 0.930 . S
C1382 C1383 1.355 . S
C1382 C1384 1.415 . S
C1383 C1382 1.355 . S
C1383 C1385 1.419 . S
C1384 C1382 1.415 . S
C1384 C1389 1.425 . S
C1384 C1391 1.409 . S
C1385 H1377 0.930 . S
C1385 C1383 1.419 . S
C1385 C1386 1.362 . S
C1386 H1378 0.930 . S
C1386 C1385 1.362 . S
C1386 C1389 1.409 . S
C1387 H1379 0.930 . S
C1387 C1388 1.355 . S
C1387 C1389 1.415 . S
C1388 C1387 1.355 . S
C1388 C1390 1.419 . S
C1389 C1384 1.425 . S
C1389 C1386 1.409 . S
C1389 C1387 1.415 . S
C1390 H1380 0.930 . S
C1390 C1388 1.419 . S
C1390 C1391 1.362 . S
C1391 H1381 0.930 . S
C1391 C1384 1.409 . S
C1391 C1390 1.362 . S
H1392 C1398 0.930 . S
H1393 C1401 0.930 . S
H1394 C1402 0.930 . S
H1395 C1403 0.930 . S
H1396 C1406 0.930 . S
H1397 C1407 0.930 . S
C1398 H1392 0.930 . S
C1398 C1399 1.355 . S
C1398 C1400 1.415 . S
C1399 C1398 1.355 . S
C1399 C1401 1.419 . S
C1400 C1398 1.415 . S
C1400 C1405 1.425 . S
C1400 C1407 1.409 . S
C1401 H1393 0.930 . S
C1401 C1399 1.419 . S
C1401 C1402 1.362 . S
C1402 H1394 0.930 . S
C1402 C1401 1.362 . S
C1402 C1405 1.409 . S
C1403 H1395 0.930 . S
C1403 C1404 1.355 . S
C1403 C1405 1.415 . S
C1404 C1403 1.355 . S
C1404 C1406 1.419 . S
C1405 C1400 1.425 . S
C1405 C1402 1.409 . S
C1405 C1403 1.415 . S
C1406 H1396 0.930 . S
C1406 C1404 1.419 . S
C1406 C1407 1.362 . S
C1407 H1397 0.930 . S
C1407 C1400 1.409 . S
C1407 C1406 1.362 . S
H1408 C1414 0.930 . S
H1409 C1417 0.930 . S
H1410 C1418 0.930 . S
H1411 C1419 0.930 . S
H1412 C1422 0.930 . S
H1413 C1423 0.930 . S
C1414 H1408 0.930 . S
C1414 C1415 1.355 . S
C1414 C1416 1.415 . S
C1415 C1414 1.355 . S
C1415 C1417 1.419 . S
C1416 C1414 1.415 . S
C1416 C1421 1.425 . S
C1416 C1423 1.409 . S
C1417 H1409 0.930 . S
C1417 C1415 1.419 . S
C1417 C1418 1.362 . S
C1418 H1410 0.930 . S
C1418 C1417 1.362 . S
C1418 C1421 1.409 . S
C1419 H1411 0.930 . S
C1419 C1420 1.355 . S
C1419 C1421 1.415 . S
C1420 C1419 1.355 . S
C1420 C1422 1.419 . S
C1421 C1416 1.425 . S
C1421 C1418 1.409 . S
C1421 C1419 1.415 . S
C1422 H1412 0.930 . S
C1422 C1420 1.419 . S
C1422 C1423 1.362 . S
C1423 H1413 0.930 . S
C1423 C1416 1.409 . S
C1423 C1422 1.362 . S
H1424 C1430 0.930 . S
H1425 C1433 0.930 . S
H1426 C1434 0.930 . S
H1427 C1435 0.930 . S
H1428 C1438 0.930 . S
H1429 C1439 0.930 . S
C1430 H1424 0.930 . S
C1430 C1431 1.355 . S
C1430 C1432 1.415 . S
C1431 C1430 1.355 . S
C1431 C1433 1.419 . S
C1432 C1430 1.415 . S
C1432 C1437 1.425 . S
C1432 C1439 1.409 . S
C1433 H1425 0.930 . S
C1433 C1431 1.419 . S
C1433 C1434 1.362 . S
C1434 H1426 0.930 . S
C1434 C1433 1.362 . S
C1434 C1437 1.409 . S
C1435 H1427 0.930 . S
C1435 C1436 1.355 . S
C1435 C1437 1.415 . S
C1436 C1435 1.355 . S
C1436 C1438 1.419 . S
C1437 C1432 1.425 . S
C1437 C1434 1.409 . S
C1437 C1435 1.415 . S
C1438 H1428 0.930 . S
C1438 C1436 1.419 . S
C1438 C1439 1.362 . S
C1439 H1429 0.930 . S
C1439 C1432 1.409 . S
C1439 C1438 1.362 . S
H1440 C1446 0.930 . S
H1441 C1449 0.930 . S
H1442 C1450 0.930 . S
H1443 C1451 0.930 . S
H1444 C1454 0.930 . S
H1445 C1455 0.930 . S
C1446 H1440 0.930 . S
C1446 C1447 1.355 . S
C1446 C1448 1.415 . S
C1447 C1446 1.355 . S
C1447 C1449 1.419 . S
C1448 C1446 1.415 . S
C1448 C1453 1.425 . S
C1448 C1455 1.409 . S
C1449 H1441 0.930 . S
C1449 C1447 1.419 . S
C1449 C1450 1.362 . S
C1450 H1442 0.930 . S
C1450 C1449 1.362 . S
C1450 C1453 1.409 . S
C1451 H1443 0.930 . S
C1451 C1452 1.355 . S
C1451 C1453 1.415 . S
C1452 C1451 1.355 . S
C1452 C1454 1.419 . S
C1453 C1448 1.425 . S
C1453 C1450 1.409 . S
C1453 C1451 1.415 . S
C1454 H1444 0.930 . S
C1454 C1452 1.419 . S
C1454 C1455 1.362 . S
C1455 H1445 0.930 . S
C1455 C1448 1.409 . S
C1455 C1454 1.362 . S
H1456 C1462 0.930 . S
H1457 C1465 0.930 . S
H1458 C1466 0.930 . S
H1459 C1467 0.930 . S
H1460 C1470 0.940 . S
H1461 C1471 0.919 1_565 S
C1462 H1456 0.930 . S
C1462 C1463 1.355 . S
C1462 C1464 1.415 . S
C1463 C1462 1.355 . S
C1463 C1465 1.419 . S
C1464 C1462 1.415 . S
C1464 C1469 1.425 . S
C1464 C1471 1.425 . S
C1465 H1457 0.930 . S
C1465 C1463 1.419 . S
C1465 C1466 1.362 . S
C1466 H1458 0.930 . S
C1466 C1465 1.362 . S
C1466 C1469 1.409 . S
C1467 H1459 0.930 . S
C1467 C1468 1.355 . S
C1467 C1469 1.415 . S
C1468 C1467 1.355 . S
C1468 C1470 1.411 1_545 S
C1469 C1464 1.425 . S
C1469 C1466 1.409 . S
C1469 C1467 1.415 . S
C1470 H1460 0.940 . S
C1470 C1468 1.411 1_565 S
C1470 C1471 1.359 1_565 S
C1471 H1461 0.919 1_545 S
C1471 C1464 1.425 . S
C1471 C1470 1.359 1_545 S
H1472 C1478 0.930 . S
H1473 C1481 0.930 . S
H1474 C1482 0.930 . S
H1475 C1483 0.930 . S
H1476 C1486 0.930 . S
H1477 C1487 0.930 . S
C1478 H1472 0.930 . S
C1478 C1479 1.355 . S
C1478 C1480 1.415 . S
C1479 C1478 1.355 . S
C1479 C1481 1.419 . S
C1480 C1478 1.415 . S
C1480 C1485 1.425 . S
C1480 C1487 1.409 . S
C1481 H1473 0.930 . S
C1481 C1479 1.419 . S
C1481 C1482 1.362 . S
C1482 H1474 0.930 . S
C1482 C1481 1.362 . S
C1482 C1485 1.409 . S
C1483 H1475 0.930 . S
C1483 C1484 1.355 . S
C1483 C1485 1.415 . S
C1484 C1483 1.355 . S
C1484 C1486 1.419 . S
C1485 C1480 1.425 . S
C1485 C1482 1.409 . S
C1485 C1483 1.415 . S
C1486 H1476 0.930 . S
C1486 C1484 1.419 . S
C1486 C1487 1.362 . S
C1487 H1477 0.930 . S
C1487 C1480 1.409 . S
C1487 C1486 1.362 . S
H1488 C1494 0.930 . S
H1489 C1497 0.930 . S
H1490 C1498 0.930 . S
H1491 C1499 0.930 . S
H1492 C1502 0.930 . S
H1493 C1503 0.930 . S
C1494 H1488 0.930 . S
C1494 C1495 1.355 . S
C1494 C1496 1.415 . S
C1495 C1494 1.355 . S
C1495 C1497 1.419 . S
C1496 C1494 1.415 . S
C1496 C1501 1.425 . S
C1496 C1503 1.409 . S
C1497 H1489 0.930 . S
C1497 C1495 1.419 . S
C1497 C1498 1.362 . S
C1498 H1490 0.930 . S
C1498 C1497 1.362 . S
C1498 C1501 1.409 . S
C1499 H1491 0.930 . S
C1499 C1500 1.355 . S
C1499 C1501 1.415 . S
C1500 C1499 1.355 . S
C1500 C1502 1.419 . S
C1501 C1496 1.425 . S
C1501 C1498 1.409 . S
C1501 C1499 1.415 . S
C1502 H1492 0.930 . S
C1502 C1500 1.419 . S
C1502 C1503 1.362 . S
C1503 H1493 0.930 . S
C1503 C1496 1.409 . S
C1503 C1502 1.362 . S
H1504 C1510 0.930 . S
H1505 C1513 0.930 . S
H1506 C1514 0.930 . S
H1507 C1515 0.930 . S
H1508 C1518 0.930 . S
H1509 C1519 0.930 . S
C1510 H1504 0.930 . S
C1510 C1511 1.355 . S
C1510 C1512 1.415 . S
C1511 C1510 1.355 . S
C1511 C1513 1.419 . S
C1512 C1510 1.415 . S
C1512 C1517 1.425 . S
C1512 C1519 1.409 . S
C1513 H1505 0.930 . S
C1513 C1511 1.419 . S
C1513 C1514 1.362 . S
C1514 H1506 0.930 . S
C1514 C1513 1.362 . S
C1514 C1517 1.409 . S
C1515 H1507 0.930 . S
C1515 C1516 1.355 . S
C1515 C1517 1.415 . S
C1516 C1515 1.355 . S
C1516 C1518 1.419 . S
C1517 C1512 1.425 . S
C1517 C1514 1.409 . S
C1517 C1515 1.415 . S
C1518 H1508 0.930 . S
C1518 C1516 1.419 . S
C1518 C1519 1.362 . S
C1519 H1509 0.930 . S
C1519 C1512 1.409 . S
C1519 C1518 1.362 . S
H1520 C1526 0.930 . S
H1521 C1529 0.930 . S
H1522 C1530 0.930 . S
H1523 C1531 0.930 . S
H1524 C1534 0.930 . S
H1525 C1535 0.930 . S
C1526 H1520 0.930 . S
C1526 C1527 1.355 . S
C1526 C1528 1.415 . S
C1527 C1526 1.355 . S
C1527 C1529 1.419 . S
C1528 C1526 1.415 . S
C1528 C1533 1.425 . S
C1528 C1535 1.409 . S
C1529 H1521 0.930 . S
C1529 C1527 1.419 . S
C1529 C1530 1.362 . S
C1530 H1522 0.930 . S
C1530 C1529 1.362 . S
C1530 C1533 1.409 . S
C1531 H1523 0.930 . S
C1531 C1532 1.355 . S
C1531 C1533 1.415 . S
C1532 C1531 1.355 . S
C1532 C1534 1.419 . S
C1533 C1528 1.425 . S
C1533 C1530 1.409 . S
C1533 C1531 1.415 . S
C1534 H1524 0.930 . S
C1534 C1532 1.419 . S
C1534 C1535 1.362 . S
C1535 H1525 0.930 . S
C1535 C1528 1.409 . S
C1535 C1534 1.362 . S
H1536 C1542 0.930 . S
H1537 C1545 0.930 . S
H1538 C1546 0.930 . S
H1539 C1547 0.930 . S
H1540 C1550 0.930 . S
H1541 C1551 0.930 . S
C1542 H1536 0.930 . S
C1542 C1543 1.355 . S
C1542 C1544 1.415 . S
C1543 C1542 1.355 . S
C1543 C1545 1.419 . S
C1544 C1542 1.415 . S
C1544 C1549 1.425 . S
C1544 C1551 1.409 . S
C1545 H1537 0.930 . S
C1545 C1543 1.419 . S
C1545 C1546 1.362 . S
C1546 H1538 0.930 . S
C1546 C1545 1.362 . S
C1546 C1549 1.409 . S
C1547 H1539 0.930 . S
C1547 C1548 1.355 . S
C1547 C1549 1.415 . S
C1548 C1547 1.355 . S
C1548 C1550 1.419 . S
C1549 C1544 1.425 . S
C1549 C1546 1.409 . S
C1549 C1547 1.415 . S
C1550 H1540 0.930 . S
C1550 C1548 1.419 . S
C1550 C1551 1.362 . S
C1551 H1541 0.930 . S
C1551 C1544 1.409 . S
C1551 C1550 1.362 . S
H1552 C1558 0.930 . S
H1553 C1561 0.930 . S
H1554 C1562 0.930 . S
H1555 C1563 0.930 . S
H1556 C1566 0.930 . S
H1557 C1567 0.930 . S
C1558 H1552 0.930 . S
C1558 C1559 1.355 . S
C1558 C1560 1.415 . S
C1559 C1558 1.355 . S
C1559 C1561 1.419 . S
C1560 C1558 1.415 . S
C1560 C1565 1.425 . S
C1560 C1567 1.409 . S
C1561 H1553 0.930 . S
C1561 C1559 1.419 . S
C1561 C1562 1.362 . S
C1562 H1554 0.930 . S
C1562 C1561 1.362 . S
C1562 C1565 1.409 . S
C1563 H1555 0.930 . S
C1563 C1564 1.355 . S
C1563 C1565 1.415 . S
C1564 C1563 1.355 . S
C1564 C1566 1.419 . S
C1565 C1560 1.425 . S
C1565 C1562 1.409 . S
C1565 C1563 1.415 . S
C1566 H1556 0.930 . S
C1566 C1564 1.419 . S
C1566 C1567 1.362 . S
C1567 H1557 0.930 . S
C1567 C1560 1.409 . S
C1567 C1566 1.362 . S
H1568 C1574 0.930 . S
H1569 C1577 0.930 . S
H1570 C1578 0.930 . S
H1571 C1579 0.930 . S
H1572 C1582 0.930 . S
H1573 C1583 0.930 . S
C1574 H1568 0.930 . S
C1574 C1575 1.355 . S
C1574 C1576 1.415 . S
C1575 C1574 1.355 . S
C1575 C1577 1.419 . S
C1576 C1574 1.415 . S
C1576 C1581 1.425 . S
C1576 C1583 1.409 . S
C1577 H1569 0.930 . S
C1577 C1575 1.419 . S
C1577 C1578 1.362 . S
C1578 H1570 0.930 . S
C1578 C1577 1.362 . S
C1578 C1581 1.409 . S
C1579 H1571 0.930 . S
C1579 C1580 1.355 . S
C1579 C1581 1.415 . S
C1580 C1579 1.355 . S
C1580 C1582 1.419 . S
C1581 C1576 1.425 . S
C1581 C1578 1.409 . S
C1581 C1579 1.415 . S
C1582 H1572 0.930 . S
C1582 C1580 1.419 . S
C1582 C1583 1.362 . S
C1583 H1573 0.930 . S
C1583 C1576 1.409 . S
C1583 C1582 1.362 . S
H1584 C1590 0.930 1_455 S
H1585 C1593 0.930 . S
H1586 C1594 0.930 . S
H1587 C1595 0.930 . S
H1588 C1598 0.930 . S
H1589 C1599 0.930 . S
C1590 H1584 0.930 1_655 S
C1590 C1591 1.355 . S
C1590 C1592 1.415 . S
C1591 C1590 1.355 . S
C1591 C1593 1.419 . S
C1592 C1590 1.415 . S
C1592 C1597 1.425 . S
C1592 C1599 1.409 1_655 S
C1593 H1585 0.930 . S
C1593 C1591 1.419 . S
C1593 C1594 1.362 . S
C1594 H1586 0.930 . S
C1594 C1593 1.362 . S
C1594 C1597 1.409 . S
C1595 H1587 0.930 . S
C1595 C1596 1.355 . S
C1595 C1597 1.415 . S
C1596 C1595 1.355 . S
C1596 C1598 1.419 1_655 S
C1597 C1592 1.425 . S
C1597 C1594 1.409 . S
C1597 C1595 1.415 . S
C1598 H1588 0.930 . S
C1598 C1596 1.419 1_455 S
C1598 C1599 1.362 . S
C1599 H1589 0.930 . S
C1599 C1592 1.409 1_455 S
C1599 C1598 1.362 . S
H1600 C1606 0.930 . S
H1601 C1609 0.930 . S
H1602 C1610 0.930 . S
H1603 C1611 0.930 . S
H1604 C1614 0.930 . S
H1605 C1615 0.930 . S
C1606 H1600 0.930 . S
C1606 C1607 1.355 . S
C1606 C1608 1.415 . S
C1607 C1606 1.355 . S
C1607 C1609 1.419 . S
C1608 C1606 1.415 . S
C1608 C1613 1.425 . S
C1608 C1615 1.409 . S
C1609 H1601 0.930 . S
C1609 C1607 1.419 . S
C1609 C1610 1.362 . S
C1610 H1602 0.930 . S
C1610 C1609 1.362 . S
C1610 C1613 1.409 . S
C1611 H1603 0.930 . S
C1611 C1612 1.355 . S
C1611 C1613 1.415 . S
C1612 C1611 1.355 . S
C1612 C1614 1.419 . S
C1613 C1608 1.425 . S
C1613 C1610 1.409 . S
C1613 C1611 1.415 . S
C1614 H1604 0.930 . S
C1614 C1612 1.419 . S
C1614 C1615 1.362 . S
C1615 H1605 0.930 . S
C1615 C1608 1.409 . S
C1615 C1614 1.362 . S
H1616 C1622 0.930 . S
H1617 C1625 0.930 . S
H1618 C1626 0.930 . S
H1619 C1627 0.930 . S
H1620 C1630 0.930 . S
H1621 C1631 0.930 . S
C1622 H1616 0.930 . S
C1622 C1623 1.355 . S
C1622 C1624 1.415 . S
C1623 C1622 1.355 . S
C1623 C1625 1.419 1_455 S
C1624 C1622 1.415 . S
C1624 C1629 1.425 . S
C1624 C1631 1.409 . S
C1625 H1617 0.930 . S
C1625 C1623 1.419 1_655 S
C1625 C1626 1.362 . S
C1626 H1618 0.930 . S
C1626 C1625 1.362 . S
C1626 C1629 1.409 1_655 S
C1627 H1619 0.930 . S
C1627 C1628 1.355 1_655 S
C1627 C1629 1.415 1_655 S
C1628 C1627 1.355 1_455 S
C1628 C1630 1.419 . S
C1629 C1624 1.425 . S
C1629 C1626 1.409 1_455 S
C1629 C1627 1.415 1_455 S
C1630 H1620 0.930 . S
C1630 C1628 1.419 . S
C1630 C1631 1.362 . S
C1631 H1621 0.930 . S
C1631 C1624 1.409 . S
C1631 C1630 1.362 . S
H1632 C1638 0.930 . S
H1633 C1641 0.930 . S
H1634 C1642 0.930 . S
H1635 C1643 0.930 . S
H1636 C1646 0.930 . S
H1637 C1647 0.930 . S
C1638 H1632 0.930 . S
C1638 C1639 1.355 . S
C1638 C1640 1.415 . S
C1639 C1638 1.355 . S
C1639 C1641 1.419 . S
C1640 C1638 1.415 . S
C1640 C1645 1.425 . S
C1640 C1647 1.409 . S
C1641 H1633 0.930 . S
C1641 C1639 1.419 . S
C1641 C1642 1.362 . S
C1642 H1634 0.930 . S
C1642 C1641 1.362 . S
C1642 C1645 1.409 . S
C1643 H1635 0.930 . S
C1643 C1644 1.355 . S
C1643 C1645 1.415 . S
C1644 C1643 1.355 . S
C1644 C1646 1.419 . S
C1645 C1640 1.425 . S
C1645 C1642 1.409 . S
C1645 C1643 1.415 . S
C1646 H1636 0.930 . S
C1646 C1644 1.419 . S
C1646 C1647 1.362 . S
C1647 H1637 0.930 . S
C1647 C1640 1.409 . S
C1647 C1646 1.362 . S
H1648 C1654 0.930 . S
H1649 C1657 0.930 . S
H1650 C1658 0.930 . S
H1651 C1659 0.930 . S
H1652 C1662 0.930 . S
H1653 C1663 0.930 . S
C1654 H1648 0.930 . S
C1654 C1655 1.355 . S
C1654 C1656 1.415 . S
C1655 C1654 1.355 . S
C1655 C1657 1.419 . S
C1656 C1654 1.415 . S
C1656 C1661 1.425 . S
C1656 C1663 1.409 . S
C1657 H1649 0.930 . S
C1657 C1655 1.419 . S
C1657 C1658 1.362 . S
C1658 H1650 0.930 . S
C1658 C1657 1.362 . S
C1658 C1661 1.409 . S
C1659 H1651 0.930 . S
C1659 C1660 1.355 . S
C1659 C1661 1.415 . S
C1660 C1659 1.355 . S
C1660 C1662 1.419 . S
C1661 C1656 1.425 . S
C1661 C1658 1.409 . S
C1661 C1659 1.415 . S
C1662 H1652 0.930 . S
C1662 C1660 1.419 . S
C1662 C1663 1.362 . S
C1663 H1653 0.930 . S
C1663 C1656 1.409 . S
C1663 C1662 1.362 . S
H1664 C1670 0.930 . S
H1665 C1673 0.930 . S
H1666 C1674 0.930 . S
H1667 C1675 0.930 . S
H1668 C1678 0.930 . S
H1669 C1679 0.930 . S
C1670 H1664 0.930 . S
C1670 C1671 1.355 . S
C1670 C1672 1.415 . S
C1671 C1670 1.355 . S
C1671 C1673 1.419 . S
C1672 C1670 1.415 . S
C1672 C1677 1.425 . S
C1672 C1679 1.409 . S
C1673 H1665 0.930 . S
C1673 C1671 1.419 . S
C1673 C1674 1.362 . S
C1674 H1666 0.930 . S
C1674 C1673 1.362 . S
C1674 C1677 1.409 . S
C1675 H1667 0.930 . S
C1675 C1676 1.355 . S
C1675 C1677 1.415 . S
C1676 C1675 1.355 . S
C1676 C1678 1.419 . S
C1677 C1672 1.425 . S
C1677 C1674 1.409 . S
C1677 C1675 1.415 . S
C1678 H1668 0.930 . S
C1678 C1676 1.419 . S
C1678 C1679 1.362 . S
C1679 H1669 0.930 . S
C1679 C1672 1.409 . S
C1679 C1678 1.362 . S
H1680 C1686 0.930 . S
H1681 C1689 0.930 . S
H1682 C1690 0.930 . S
H1683 C1691 0.930 . S
H1684 C1694 0.930 . S
H1685 C1695 0.930 . S
C1686 H1680 0.930 . S
C1686 C1687 1.355 . S
C1686 C1688 1.415 . S
C1687 C1686 1.355 . S
C1687 C1689 1.419 . S
C1688 C1686 1.415 . S
C1688 C1693 1.425 . S
C1688 C1695 1.409 . S
C1689 H1681 0.930 . S
C1689 C1687 1.419 . S
C1689 C1690 1.362 . S
C1690 H1682 0.930 . S
C1690 C1689 1.362 . S
C1690 C1693 1.409 . S
C1691 H1683 0.930 . S
C1691 C1692 1.355 . S
C1691 C1693 1.415 . S
C1692 C1691 1.355 . S
C1692 C1694 1.419 . S
C1693 C1688 1.425 . S
C1693 C1690 1.409 . S
C1693 C1691 1.415 . S
C1694 H1684 0.930 . S
C1694 C1692 1.419 . S
C1694 C1695 1.362 . S
C1695 H1685 0.930 . S
C1695 C1688 1.409 . S
C1695 C1694 1.362 . S
H1696 C1702 0.930 . S
H1697 C1705 0.930 . S
H1698 C1706 0.930 . S
H1699 C1707 0.930 . S
H1700 C1710 0.930 . S
H1701 C1711 0.930 . S
C1702 H1696 0.930 . S
C1702 C1703 1.355 . S
C1702 C1704 1.415 . S
C1703 C1702 1.355 . S
C1703 C1705 1.419 . S
C1704 C1702 1.415 . S
C1704 C1709 1.425 . S
C1704 C1711 1.409 . S
C1705 H1697 0.930 . S
C1705 C1703 1.419 . S
C1705 C1706 1.362 . S
C1706 H1698 0.930 . S
C1706 C1705 1.362 . S
C1706 C1709 1.409 . S
C1707 H1699 0.930 . S
C1707 C1708 1.355 . S
C1707 C1709 1.415 . S
C1708 C1707 1.355 . S
C1708 C1710 1.419 . S
C1709 C1704 1.425 . S
C1709 C1706 1.409 . S
C1709 C1707 1.415 . S
C1710 H1700 0.930 . S
C1710 C1708 1.419 . S
C1710 C1711 1.362 . S
C1711 H1701 0.930 . S
C1711 C1704 1.409 . S
C1711 C1710 1.362 . S
H1712 C1718 0.930 . S
H1713 C1721 0.930 . S
H1714 C1722 0.930 . S
H1715 C1723 0.930 . S
H1716 C1726 0.930 . S
H1717 C1727 0.930 . S
C1718 H1712 0.930 . S
C1718 C1719 1.355 . S
C1718 C1720 1.415 . S
C1719 C1718 1.355 . S
C1719 C1721 1.419 . S
C1720 C1718 1.415 . S
C1720 C1725 1.425 . S
C1720 C1727 1.409 . S
C1721 H1713 0.930 . S
C1721 C1719 1.419 . S
C1721 C1722 1.362 . S
C1722 H1714 0.930 . S
C1722 C1721 1.362 . S
C1722 C1725 1.409 . S
C1723 H1715 0.930 . S
C1723 C1724 1.355 . S
C1723 C1725 1.415 . S
C1724 C1723 1.355 . S
C1724 C1726 1.419 . S
C1725 C1720 1.425 . S
C1725 C1722 1.409 . S
C1725 C1723 1.415 . S
C1726 H1716 0.930 . S
C1726 C1724 1.419 . S
C1726 C1727 1.362 . S
C1727 H1717 0.930 . S
C1727 C1720 1.409 . S
C1727 C1726 1.362 . S
H1728 C1734 0.930 . S
H1729 C1737 0.930 . S
H1730 C1738 0.930 . S
H1731 C1739 0.930 . S
H1732 C1742 0.930 . S
H1733 C1743 0.930 . S
C1734 H1728 0.930 . S
C1734 C1735 1.355 . S
C1734 C1736 1.415 . S
C1735 C1734 1.355 . S
C1735 C1737 1.419 . S
C1736 C1734 1.415 . S
C1736 C1741 1.425 . S
C1736 C1743 1.409 . S
C1737 H1729 0.930 . S
C1737 C1735 1.419 . S
C1737 C1738 1.362 . S
C1738 H1730 0.930 . S
C1738 C1737 1.362 . S
C1738 C1741 1.409 . S
C1739 H1731 0.930 . S
C1739 C1740 1.355 . S
C1739 C1741 1.415 . S
C1740 C1739 1.355 . S
C1740 C1742 1.419 . S
C1741 C1736 1.425 . S
C1741 C1738 1.409 . S
C1741 C1739 1.415 . S
C1742 H1732 0.930 . S
C1742 C1740 1.419 . S
C1742 C1743 1.362 . S
C1743 H1733 0.930 . S
C1743 C1736 1.409 . S
C1743 C1742 1.362 . S
H1744 C1750 0.930 . S
H1745 C1753 0.930 . S
H1746 C1754 0.930 . S
H1747 C1755 0.930 . S
H1748 C1758 0.930 . S
H1749 C1759 0.930 . S
C1750 H1744 0.930 . S
C1750 C1751 1.355 . S
C1750 C1752 1.415 . S
C1751 C1750 1.355 . S
C1751 C1753 1.419 . S
C1752 C1750 1.415 . S
C1752 C1757 1.425 . S
C1752 C1759 1.409 . S
C1753 H1745 0.930 . S
C1753 C1751 1.419 . S
C1753 C1754 1.362 . S
C1754 H1746 0.930 . S
C1754 C1753 1.362 . S
C1754 C1757 1.409 . S
C1755 H1747 0.930 . S
C1755 C1756 1.355 . S
C1755 C1757 1.415 . S
C1756 C1755 1.355 . S
C1756 C1758 1.419 . S
C1757 C1752 1.425 . S
C1757 C1754 1.409 . S
C1757 C1755 1.415 . S
C1758 H1748 0.930 . S
C1758 C1756 1.419 . S
C1758 C1759 1.362 . S
C1759 H1749 0.930 . S
C1759 C1752 1.409 . S
C1759 C1758 1.362 . S
H1760 C1766 0.930 . S
H1761 C1769 0.930 . S
H1762 C1770 0.930 . S
H1763 C1771 0.930 . S
H1764 C1774 0.930 . S
H1765 C1775 0.930 . S
C1766 H1760 0.930 . S
C1766 C1767 1.355 . S
C1766 C1768 1.415 . S
C1767 C1766 1.355 . S
C1767 C1769 1.419 1_556 S
C1768 C1766 1.415 . S
C1768 C1773 1.425 . S
C1768 C1775 1.409 . S
C1769 H1761 0.930 . S
C1769 C1767 1.419 1_554 S
C1769 C1770 1.362 . S
C1770 H1762 0.930 . S
C1770 C1769 1.362 . S
C1770 C1773 1.409 1_554 S
C1771 H1763 0.930 . S
C1771 C1772 1.355 1_554 S
C1771 C1773 1.415 1_554 S
C1772 C1771 1.355 1_556 S
C1772 C1774 1.419 . S
C1773 C1768 1.425 . S
C1773 C1770 1.409 1_556 S
C1773 C1771 1.415 1_556 S
C1774 H1764 0.930 . S
C1774 C1772 1.419 . S
C1774 C1775 1.362 . S
C1775 H1765 0.930 . S
C1775 C1768 1.409 . S
C1775 C1774 1.362 . S
H1776 C1782 0.930 . S
H1777 C1785 0.930 . S
H1778 C1786 0.930 . S
H1779 C1787 0.930 . S
H1780 C1790 0.930 . S
H1781 C1791 0.930 . S
C1782 H1776 0.930 . S
C1782 C1783 1.355 . S
C1782 C1784 1.415 . S
C1783 C1782 1.355 . S
C1783 C1785 1.419 . S
C1784 C1782 1.415 . S
C1784 C1789 1.425 . S
C1784 C1791 1.409 . S
C1785 H1777 0.930 . S
C1785 C1783 1.419 . S
C1785 C1786 1.362 . S
C1786 H1778 0.930 . S
C1786 C1785 1.362 . S
C1786 C1789 1.409 . S
C1787 H1779 0.930 . S
C1787 C1788 1.355 . S
C1787 C1789 1.415 . S
C1788 C1787 1.355 . S
C1788 C1790 1.419 . S
C1789 C1784 1.425 . S
C1789 C1786 1.409 . S
C1789 C1787 1.415 . S
C1790 H1780 0.930 . S
C1790 C1788 1.419 . S
C1790 C1791 1.362 . S
C1791 H1781 0.930 . S
C1791 C1784 1.409 . S
C1791 C1790 1.362 . S
H1792 C1798 0.930 . S
H1793 C1801 0.930 . S
H1794 C1802 0.930 . S
H1795 C1803 0.930 . S
H1796 C1806 0.929 . S
H1797 C1807 0.930 1_556 S
C1798 H1792 0.930 . S
C1798 C1799 1.355 . S
C1798 C1800 1.415 . S
C1799 C1798 1.355 . S
C1799 C1801 1.419 . S
C1800 C1798 1.415 . S
C1800 C1805 1.425 . S
C1800 C1807 1.409 . S
C1801 H1793 0.930 . S
C1801 C1799 1.419 . S
C1801 C1802 1.362 . S
C1802 H1794 0.930 . S
C1802 C1801 1.362 . S
C1802 C1805 1.409 . S
C1803 H1795 0.930 . S
C1803 C1804 1.355 . S
C1803 C1805 1.415 . S
C1804 C1803 1.355 . S
C1804 C1806 1.420 1_554 S
C1805 C1800 1.425 . S
C1805 C1802 1.409 . S
C1805 C1803 1.415 . S
C1806 H1796 0.929 . S
C1806 C1804 1.420 1_556 S
C1806 C1807 1.363 1_556 S
C1807 H1797 0.930 1_554 S
C1807 C1800 1.409 . S
C1807 C1806 1.363 1_554 S
H1808 C1814 0.930 1_556 S
H1809 C1817 0.930 . S
H1810 C1818 0.930 . S
H1811 C1819 0.930 . S
H1812 C1822 0.930 . S
H1813 C1823 0.930 . S
C1814 H1808 0.930 1_554 S
C1814 C1815 1.355 . S
C1814 C1816 1.415 . S
C1815 C1814 1.355 . S
C1815 C1817 1.419 . S
C1816 C1814 1.415 . S
C1816 C1821 1.425 . S
C1816 C1823 1.409 1_554 S
C1817 H1809 0.930 . S
C1817 C1815 1.419 . S
C1817 C1818 1.362 . S
C1818 H1810 0.930 . S
C1818 C1817 1.362 . S
C1818 C1821 1.409 . S
C1819 H1811 0.930 . S
C1819 C1820 1.355 . S
C1819 C1821 1.415 . S
C1820 C1819 1.355 . S
C1820 C1822 1.419 1_554 S
C1821 C1816 1.425 . S
C1821 C1818 1.409 . S
C1821 C1819 1.415 . S
C1822 H1812 0.930 . S
C1822 C1820 1.419 1_556 S
C1822 C1823 1.362 . S
C1823 H1813 0.930 . S
C1823 C1816 1.409 1_556 S
C1823 C1822 1.362 . S
C1068 C626 1.439 . S
C1063 C211 1.449 . S
C1084 C674 1.583 . S
C1079 C255 1.661 . S
C1095 C274 1.446 . S
C1100 C710 1.347 . S
C1116 C746 1.572 . S
C1111 C157 1.612 . S
C1132 C772 1.504 . S
C1127 C391 1.501 . S
C1148 C808 1.565 . S
C1143 C484 1.565 . S
C1159 C450 1.513 . S
C1164 C843 1.512 . S
C1180 C880 1.595 1_565 S
C1175 C352 1.598 . S
C1191 C430 1.439 . S
C1196 C914 1.432 . S
C1212 C962 1.568 . S
C1207 C367 1.593 . S
C1223 C411 1.472 . S
C1228 C915 1.492 . S
C1244 C952 1.597 . S
C1239 C469 1.604 . S
C1255 C294 1.461 . S
C1260 C998 1.389 . S
C1271 C177 1.611 . S
C1276 C987 1.615 . S
C1287 C196 1.516 . S
C1292 C988 1.517 . S
C1303 C235 1.638 . S
C1308 C986 1.635 1_655 S
C1319 C133 1.479 . S
C1324 C734 1.470 . S
C1335 C567 1.468 . S
C1340 C735 1.471 . S
C1356 C638 1.595 . S
C1351 C601 1.633 . S
C1372 C663 1.473 . S
C1367 C328 1.465 . S
C1383 C172 1.616 . S
C1388 C770 1.619 . S
C1404 C878 1.504 . S
C1399 C445 1.505 . S
C1420 C771 1.597 . S
C1415 C372 1.594 . S
C1436 C844 1.588 . S
C1431 C489 1.595 . S
C1452 C842 1.435 . S
C1447 C562 1.445 . S
C1463 C606 1.661 . S
C1468 C890 1.591 . S
C1479 C313 1.451 . S
C1484 C782 1.423 . S
C1500 C818 1.593 . S
C1495 C508 1.612 . S
C1511 C118 1.510 . S
C1516 C700 1.508 . S
C1532 C736 1.561 . S
C1527 C16 1.564 . S
C1548 C627 1.505 . S
C1543 C60 1.477 . S
C1564 C664 1.591 . S
C1559 C79 1.600 . S
C1575 C40 1.465 . S
C1580 C950 1.459 . S
C1591 C94 1.604 . S
C1596 C926 1.550 . S
C1607 C138 1.490 . S
C1612 C951 1.498 . S
C1623 C1 1.600 . S
C1628 C916 1.602 . S
C1644 C1034 1.376 . S
C1639 C333 1.464 . S
C1660 C1023 1.596 . S
C1655 C528 1.614 . S
C1676 C1024 1.484 . S
C1671 C547 1.486 . S
C1687 C586 1.630 . S
C1692 C1022 1.614 . S
C1703 C406 1.483 . S
C1708 C806 1.476 . S
C1724 C807 1.471 . S
C1719 C216 1.463 . S
C1740 C854 1.608 . S
C1735 C250 1.627 . S
C1756 C879 1.479 . S
C1751 C289 1.461 . S
C1767 C523 1.615 . S
C1772 C698 1.625 . S
C1788 C662 1.501 . S
C1783 C55 1.511 . S
C1799 C99 1.588 . S
C1804 C699 1.586 . S
C1820 C628 1.589 . S
C1815 C21 1.598 . S
