# Generated by pormake.
# Topology anh, (6,3)-cn, num edge types: 1
# Building blocks:
#     Node 0, Type 0, BuildingBlock: CUKXOW_clean_sbu_0, # of connection points: 6
#     Node 1, Type 0, BuildingBlock: CUKXOW_clean_sbu_0, # of connection points: 6
#     Node 2, Type 0, BuildingBlock: CUKXOW_clean_sbu_0, # of connection points: 6
#     Node 3, Type 1, BuildingBlock: CUQRIR_clean_linker_1, # of connection points: 3
#     Node 4, Type 1, BuildingBlock: CUQRIR_clean_linker_1, # of connection points: 3
#     Node 5, Type 1, BuildingBlock: CUQRIR_clean_linker_1, # of connection points: 3
#     Node 6, Type 1, BuildingBlock: CUQRIR_clean_linker_1, # of connection points: 3
#     Node 7, Type 1, BuildingBlock: CUQRIR_clean_linker_1, # of connection points: 3
#     Node 8, Type 1, BuildingBlock: CUQRIR_clean_linker_1, # of connection points: 3
#     Edge 9, Type (0, 1), BuildingBlock: CIFDUS_clean_linker_0, # of connection points: 2
#     Edge 10, Type (0, 1), BuildingBlock: CIFDUS_clean_linker_0, # of connection points: 2
#     Edge 11, Type (0, 1), BuildingBlock: CIFDUS_clean_linker_0, # of connection points: 2
#     Edge 12, Type (0, 1), BuildingBlock: CIFDUS_clean_linker_0, # of connection points: 2
#     Edge 13, Type (0, 1), BuildingBlock: CIFDUS_clean_linker_0, # of connection points: 2
#     Edge 14, Type (0, 1), BuildingBlock: CIFDUS_clean_linker_0, # of connection points: 2
#     Edge 15, Type (0, 1), BuildingBlock: CIFDUS_clean_linker_0, # of connection points: 2
#     Edge 16, Type (0, 1), BuildingBlock: CIFDUS_clean_linker_0, # of connection points: 2
#     Edge 17, Type (0, 1), BuildingBlock: CIFDUS_clean_linker_0, # of connection points: 2
#     Edge 18, Type (0, 1), BuildingBlock: CIFDUS_clean_linker_0, # of connection points: 2
#     Edge 19, Type (0, 1), BuildingBlock: CIFDUS_clean_linker_0, # of connection points: 2
#     Edge 20, Type (0, 1), BuildingBlock: CIFDUS_clean_linker_0, # of connection points: 2
#     Edge 21, Type (0, 1), BuildingBlock: CIFDUS_clean_linker_0, # of connection points: 2
#     Edge 22, Type (0, 1), BuildingBlock: CIFDUS_clean_linker_0, # of connection points: 2
#     Edge 23, Type (0, 1), BuildingBlock: CIFDUS_clean_linker_0, # of connection points: 2
#     Edge 24, Type (0, 1), BuildingBlock: CIFDUS_clean_linker_0, # of connection points: 2
#     Edge 25, Type (0, 1), BuildingBlock: CIFDUS_clean_linker_0, # of connection points: 2
#     Edge 26, Type (0, 1), BuildingBlock: CIFDUS_clean_linker_0, # of connection points: 2
# Relax obj value: 0.143
# Max RMSD: 0.196
# Mean RMSD: 0.165
data_MOF--net-anh--node1-CUKXOW_clean_sbu_0--node2-CUQRIR_clean_linker_1--edge1-CIFDUS_clean_linker_0
_symmetry_space_group_name_H-M    P1
_symmetry_Int_Tables_number       1
_symmetry_cell_setting            triclinic
loop_
_symmetry_equiv_pos_as_xyz
'x, y, z'
_cell_length_a     22.644645
_cell_length_b     22.087033
_cell_length_c     38.94183
_cell_angle_alpha  89.442786
_cell_angle_beta   89.986401
_cell_angle_gamma 110.77404
loop_
_atom_site_label
_atom_site_type_symbol
_atom_site_fract_x
_atom_site_fract_y
_atom_site_fract_z
_atom_type_partial_charge
Tb0 Tb 1.04141 0.54321 0.1521 0.0
C1 C 0.99203 0.4739 0.22386 0.0
Tb2 Tb 0.95874 0.39234 0.15475 0.0
O3 O 0.96465 0.58117 0.14757 0.0
O4 O 0.94463 0.48286 0.15117 0.0
O5 O 1.02885 0.52664 0.20726 0.0
C6 C 0.85706 0.28547 0.15675 0.0
O7 O 0.95776 0.41908 0.2086 0.0
C8 C 0.08336 0.41644 0.15432 0.0
C9 C 1.01887 0.45705 0.08446 0.0
O10 O 0.90707 0.29601 0.1755 0.0
O11 O 0.86484 0.33462 0.13638 0.0
O12 O 1.04093 0.35817 0.1538 0.0
O13 O 0.05228 0.45362 0.15571 0.0
O14 O 0.97466 0.40728 0.09976 0.0
O15 O 0.0533 0.51106 0.1005 0.0
C16 C 0.14372 0.64862 0.15569 0.0
O17 O 0.10137 0.63796 0.13174 0.0
O18 O 0.12774 0.60089 0.17759 0.0
C19 C 0.91877 0.52521 0.14805 0.0
Tb20 Tb 0.55012 0.98594 0.51776 0.0
C21 C 0.6104 0.01341 0.44283 0.0
Tb22 Tb 0.6916 0.08144 0.50626 0.0
O23 O 0.50628 0.0614 0.51278 0.0
O24 O 0.60032 0.08272 0.50584 0.0
O25 O 0.56629 0.97454 0.46351 0.0
C26 C 0.79213 0.1889 0.49612 0.0
O27 O 0.65945 0.06316 0.45348 0.0
C28 C 0.67292 0.9556 0.50941 0.0
C29 C 0.62999 0.05653 0.58128 0.0
O30 O 0.79171 0.13934 0.51468 0.0
O31 O 0.7362 0.17779 0.48371 0.0
O32 O 0.72138 0.99921 0.49471 0.0
O33 O 0.64314 0.9855 0.52533 0.0
O34 O 0.67404 0.09576 0.56033 0.0
O35 O 0.5815 1.00564 0.57057 0.0
C36 C 0.44981 0.87633 0.52237 0.0
O37 O 0.45094 0.93302 0.5318 0.0
O38 O 0.50517 0.88162 0.51098 0.0
C39 C 0.55931 0.1088 0.50698 0.0
Tb40 Tb 0.56971 0.6187 0.84769 0.0
C41 C 0.65298 0.61875 0.91095 0.0
Tb42 Tb 0.70992 0.64895 0.83581 0.0
O43 O 0.56099 0.52257 0.86677 0.0
O44 O 0.62674 0.56822 0.82882 0.0
O45 O 0.60368 0.63302 0.90036 0.0
C46 C 0.81837 0.63138 0.82466 0.0
O47 O 0.69653 0.61401 0.88933 0.0
C48 C 0.67766 0.75081 0.8371 0.0
C49 C 0.62414 0.64651 0.77177 0.0
O50 O 0.80888 0.66665 0.84913 0.0
O51 O 0.76758 0.60788 0.80674 0.0
O52 O 0.72835 0.74973 0.82187 0.0
O53 O 0.65342 0.69984 0.8547 0.0
O54 O 0.67788 0.64278 0.78313 0.0
O55 O 0.57715 0.64477 0.79276 0.0
C56 C 0.44642 0.59197 0.85493 0.0
O57 O 0.47305 0.55416 0.84237 0.0
O58 O 0.48934 0.64763 0.86232 0.0
C59 C 0.60666 0.519 0.84801 0.0
C60 C 0.51812 0.94911 0.19207 0.0
N61 N 0.55878 0.98737 0.2152 0.0
N62 N 0.46677 0.90764 0.20826 0.0
C63 C 0.53084 0.94803 0.15421 0.0
C64 C 0.4773 0.92172 0.24184 0.0
N65 N 0.5336 0.96974 0.24621 0.0
C66 C 0.43111 0.88972 0.27015 0.0
H67 H 0.51362 0.98319 0.1409 0.0
H68 H 0.50559 0.89938 0.14344 0.0
H69 H 0.5822 0.96209 0.14909 0.0
H70 H 0.44042 0.84648 0.2797 0.0
H71 H 0.38191 0.87351 0.26046 0.0
H72 H 0.43595 0.92329 0.29187 0.0
C73 C 0.62441 0.53334 0.52522 0.0
N74 N 0.62942 0.58418 0.54616 0.0
N75 N 0.63019 0.48275 0.54343 0.0
C76 C 0.61796 0.53428 0.48688 0.0
C77 C 0.63834 0.50444 0.57609 0.0
N78 N 0.63791 0.56546 0.57778 0.0
C79 C 0.64633 0.46565 0.60658 0.0
H80 H 0.56713 0.51917 0.48032 0.0
H81 H 0.63737 0.50003 0.47474 0.0
H82 H 0.64246 0.58378 0.47638 0.0
H83 H 0.69745 0.47569 0.61047 0.0
H84 H 0.6225 0.41298 0.60227 0.0
H85 H 0.62715 0.47939 0.63027 0.0
C86 C 0.06039 0.40584 0.83798 0.0
N87 N 0.08571 0.39502 0.86773 0.0
N88 N 0.99759 0.39188 0.8413 0.0
C89 C 0.0982 0.44072 0.80733 0.0
C90 C 0.98526 0.36779 0.87375 0.0
N91 N 1.03888 0.37071 0.89011 0.0
C92 C 0.92338 0.35637 0.89187 0.0
H93 H 0.11219 0.49375 0.81088 0.0
H94 H 0.06927 0.42746 0.78368 0.0
H95 H 0.14163 0.42886 0.80439 0.0
H96 H 0.88415 0.34624 0.87317 0.0
H97 H 0.92667 0.4002 0.90661 0.0
H98 H 0.91298 0.3151 0.91019 0.0
C99 C 0.08878 0.56212 0.47185 0.0
N100 N 0.04924 0.52995 0.44648 0.0
N101 N 0.13054 0.61864 0.45979 0.0
C102 C 0.08418 0.54108 0.50891 0.0
C103 C 0.11531 0.62026 0.42636 0.0
N104 N 0.06528 0.56674 0.41821 0.0
C105 C 0.15214 0.67253 0.40141 0.0
H106 H 1.03427 0.51487 0.51646 0.0
H107 H 0.10491 0.58324 0.52597 0.0
H108 H 0.11091 0.50804 0.51256 0.0
H109 H 0.13007 0.71001 0.39998 0.0
H110 H 0.15208 0.65252 0.37538 0.0
H111 H 0.20169 0.69618 0.40998 0.0
C112 C 0.61105 0.1164 0.83478 0.0
N113 N 0.60967 0.0749 0.80915 0.0
N114 N 0.59546 0.1663 0.82257 0.0
C115 C 0.63401 0.11177 0.87057 0.0
C116 C 0.58428 0.15342 0.78883 0.0
N117 N 0.59367 0.09843 0.78057 0.0
C118 C 0.56409 0.19477 0.76385 0.0
H119 H 0.59469 0.07744 0.88579 0.0
H120 H 0.65002 0.15943 0.88343 0.0
H121 H 0.67323 0.09271 0.87011 0.0
H122 H 0.53738 0.22116 0.77721 0.0
H123 H 0.53438 0.16462 0.74326 0.0
H124 H 0.60655 0.23081 0.75173 0.0
C125 C 0.49507 0.44083 0.14009 0.0
N126 N 0.54939 0.46782 0.12133 0.0
N127 N 0.44636 0.45578 0.12622 0.0
C128 C 0.49063 0.40395 0.17314 0.0
C129 C 0.473 0.49184 0.09816 0.0
N130 N 0.5351 0.50029 0.0956 0.0
C131 C 0.43687 0.51347 0.07108 0.0
H132 H 0.47862 0.35189 0.16732 0.0
H133 H 0.45313 0.40902 0.18996 0.0
H134 H 0.53641 0.42114 0.18691 0.0
H135 H 0.43835 0.56299 0.07708 0.0
H136 H 0.38681 0.48056 0.07017 0.0
H137 H 0.45816 0.51484 0.04529 0.0
H138 H 0.15302 0.33682 0.15803 0.0
H139 H 0.17184 0.53554 0.14057 0.0
H140 H 0.2862 0.56652 0.1353 0.0
H141 H 0.38129 0.53662 0.13295 0.0
H142 H 0.36297 0.33671 0.14404 0.0
H143 H 0.24927 0.30671 0.15525 0.0
C144 C 0.18224 0.38696 0.15321 0.0
C145 C 0.15351 0.43427 0.15068 0.0
C146 C 0.24852 0.40408 0.14913 0.0
C147 C 0.19235 0.4987 0.14399 0.0
C148 C 0.25798 0.51625 0.14054 0.0
C149 C 0.35241 0.48645 0.13787 0.0
C150 C 0.38098 0.43897 0.13753 0.0
C151 C 0.28664 0.46938 0.14288 0.0
C152 C 0.34275 0.37434 0.14452 0.0
C153 C 0.27745 0.35715 0.15052 0.0
H154 H 0.79255 0.29745 0.46329 0.0
H155 H 0.91531 0.2121 0.51248 0.0
H156 H 1.00701 0.30921 0.49905 0.0
H157 H 0.05187 0.41896 0.47376 0.0
H158 H 0.92846 0.50671 0.42797 0.0
H159 H 0.83734 0.40738 0.43851 0.0
C160 C 0.83944 0.30016 0.47103 0.0
C161 C 0.84737 0.24786 0.48884 0.0
C162 C 0.89167 0.35621 0.46343 0.0
C163 C 0.90817 0.25193 0.49886 0.0
C164 C 0.96053 0.30729 0.49108 0.0
C165 C 1.00489 0.41611 0.46626 0.0
C166 C 0.99659 0.46978 0.45017 0.0
C167 C 0.95279 0.35974 0.47346 0.0
C168 C 0.93585 0.46557 0.43998 0.0
C169 C 0.88384 0.40911 0.44632 0.0
H170 H 0.72792 0.85961 0.79956 0.0
H171 H 0.58037 0.76634 0.87302 0.0
H172 H 0.54578 0.85966 0.87084 0.0
H173 H 0.55809 0.9683 0.84758 0.0
H174 H 0.70714 0.06106 0.77523 0.0
H175 H 0.74104 0.96742 0.7772 0.0
C176 C 0.68824 0.8598 0.81513 0.0
C177 C 0.65648 0.80644 0.83633 0.0
C178 C 0.66908 0.91341 0.81383 0.0
C179 C 0.60515 0.80695 0.85636 0.0
C180 C 0.58556 0.86026 0.85518 0.0
C181 C 0.59803 0.96752 0.83248 0.0
C182 C 0.62992 0.02039 0.81103 0.0
C183 C 0.61722 0.91375 0.83399 0.0
C184 C 0.68162 0.01994 0.7914 0.0
C185 C 0.70103 0.96676 0.79269 0.0
H186 H 0.80514 0.41518 0.14751 0.0
H187 H 0.87822 0.62387 0.13867 0.0
H188 H 0.77293 0.62489 0.13041 0.0
H189 H 0.65906 0.56879 0.12524 0.0
H190 H 0.58104 0.36112 0.13259 0.0
H191 H 0.68725 0.35749 0.14214 0.0
C192 C 0.79802 0.46068 0.14367 0.0
C193 C 0.85081 0.51933 0.14361 0.0
C194 C 0.73568 0.4614 0.13875 0.0
C195 C 0.83952 0.57771 0.13886 0.0
C196 C 0.77882 0.57865 0.13407 0.0
C197 C 0.66532 0.52269 0.12868 0.0
C198 C 0.61195 0.46542 0.12809 0.0
C199 C 0.72652 0.52107 0.13385 0.0
C200 C 0.6211 0.4061 0.13323 0.0
C201 C 0.68208 0.40405 0.1385 0.0
H202 H 0.32813 0.86992 0.52014 0.0
H203 H 0.44485 0.75291 0.51402 0.0
H204 H 0.35322 0.65905 0.49761 0.0
H205 H 0.2419 0.61361 0.4788 0.0
H206 H 0.12793 0.73306 0.48004 0.0
H207 H 0.21567 0.82268 0.5047 0.0
C208 C 0.33305 0.82346 0.51592 0.0
C209 C 0.39286 0.81805 0.51828 0.0
C210 C 0.28062 0.77044 0.50527 0.0
C211 C 0.39907 0.75799 0.51231 0.0
C212 C 0.3468 0.70445 0.50281 0.0
C213 C 0.23651 0.65904 0.48521 0.0
C214 C 0.17924 0.66745 0.47807 0.0
C215 C 0.28773 0.71057 0.49828 0.0
C216 C 0.17201 0.72628 0.48571 0.0
C217 C 0.22206 0.77724 0.49962 0.0
H218 H 0.55847 0.40797 0.88485 0.0
H219 H 0.68836 0.49808 0.80259 0.0
H220 H 0.70762 0.39792 0.79322 0.0
H221 H 0.67523 0.28109 0.80251 0.0
H222 H 0.53287 0.18584 0.87776 0.0
H223 H 0.53087 0.29118 0.89654 0.0
C224 C 0.59156 0.40571 0.8652 0.0
C225 C 0.6227 0.46048 0.84468 0.0
C226 C 0.59942 0.34673 0.85864 0.0
C227 C 0.66525 0.45717 0.81925 0.0
C228 C 0.67562 0.3996 0.8136 0.0
C229 C 0.64459 0.28399 0.82335 0.0
C230 C 0.60354 0.22682 0.83854 0.0
C231 C 0.64137 0.34373 0.83235 0.0
C232 C 0.56453 0.22991 0.86585 0.0
C233 C 0.5631 0.28981 0.87623 0.0
H234 H 0.58641 0.83667 0.49247 0.0
H235 H 0.76055 0.92725 0.54687 0.0
H236 H 0.76323 0.8207 0.56289 0.0
H237 H 0.71647 0.70125 0.56104 0.0
H238 H 0.53976 0.61002 0.5092 0.0
H239 H 0.53722 0.71655 0.49259 0.0
C240 C 0.62387 0.83304 0.50864 0.0
C241 C 0.67235 0.88999 0.51926 0.0
C242 C 0.62484 0.77123 0.51794 0.0
C243 C 0.72241 0.88425 0.53867 0.0
C244 C 0.72393 0.82326 0.54784 0.0
C245 C 0.67686 0.70473 0.54668 0.0
C246 C 0.62812 0.64754 0.53658 0.0
C247 C 0.67539 0.76634 0.53768 0.0
C248 C 0.57807 0.65311 0.51703 0.0
C249 C 0.57649 0.71412 0.50771 0.0
H250 H 0.81804 0.52863 0.78862 0.0
H251 H 0.93032 0.67349 0.85908 0.0
H252 H 1.00275 0.61409 0.86612 0.0
H253 H 1.02361 0.51339 0.85892 0.0
H254 H 0.90421 0.36272 0.79437 0.0
H255 H 0.84369 0.43173 0.7781 0.0
C256 C 0.85922 0.54799 0.80491 0.0
C257 C 0.86917 0.60504 0.82348 0.0
C258 C 0.8982 0.51197 0.81015 0.0
C259 C 0.92215 0.6296 0.84463 0.0
C260 C 0.96308 0.5955 0.84879 0.0
C261 C 0.98517 0.49681 0.84064 0.0
C262 C 0.96782 0.43399 0.82751 0.0
C263 C 0.95002 0.53558 0.8327 0.0
C264 C 0.91782 0.41132 0.80436 0.0
C265 C 0.88352 0.45058 0.7953 0.0
H266 H 0.24899 0.64703 0.18518 0.0
H267 H 0.17234 0.77044 0.12843 0.0
H268 H 0.27114 0.86294 0.13648 0.0
H269 H 0.37535 0.90983 0.16533 0.0
H270 H 0.4493 0.78411 0.22162 0.0
H271 H 0.35579 0.69022 0.20768 0.0
C272 C 0.25416 0.69418 0.17441 0.0
C273 C 0.20376 0.70295 0.15695 0.0
C274 C 0.31048 0.74616 0.17902 0.0
C275 C 0.2109 0.76337 0.14229 0.0
C276 C 0.26713 0.81598 0.14692 0.0
C277 C 0.37099 0.86145 0.17369 0.0
C278 C 0.41781 0.85288 0.19458 0.0
C279 C 0.31668 0.80818 0.16597 0.0
C280 C 0.41286 0.79075 0.20565 0.0
C281 C 0.35962 0.73756 0.19784 0.0
H282 H 0.66496 0.21487 0.52303 0.0
H283 H 0.47007 0.16006 0.49297 0.0
H284 H 0.47577 0.2721 0.4982 0.0
H285 H 0.53393 0.38541 0.51551 0.0
H286 H 0.72768 0.44023 0.54687 0.0
H287 H 0.72568 0.33016 0.53611 0.0
C288 C 0.62443 0.22781 0.51661 0.0
C289 C 0.56741 0.17895 0.50708 0.0
C290 C 0.62785 0.29284 0.52007 0.0
C291 C 0.51461 0.19653 0.50022 0.0
C292 C 0.51779 0.26077 0.50323 0.0
C293 C 0.57591 0.37331 0.5192 0.0
C294 C 0.63102 0.42087 0.53173 0.0
C295 C 0.57381 0.30932 0.51366 0.0
C296 C 0.68491 0.40441 0.53705 0.0
C297 C 0.68358 0.34137 0.53109 0.0
H298 H 0.37543 0.47013 0.86991 0.0
H299 H 0.36789 0.66195 0.8609 0.0
H300 H 0.25268 0.61709 0.86956 0.0
H301 H 0.15391 0.52102 0.87249 0.0
H302 H 0.16332 0.33033 0.88025 0.0
H303 H 0.2792 0.37686 0.88031 0.0
C304 C 0.34858 0.50222 0.87012 0.0
C305 C 0.37918 0.56887 0.86403 0.0
C306 C 0.28331 0.47617 0.8751 0.0
C307 C 0.34469 0.61038 0.86521 0.0
C308 C 0.27914 0.58472 0.87011 0.0
C309 C 0.18188 0.49027 0.87502 0.0
C310 C 0.1514 0.42267 0.87605 0.0
C311 C 0.24792 0.51748 0.87411 0.0
C312 C 0.18673 0.38243 0.8795 0.0
C313 C 0.25253 0.40902 0.87918 0.0
H314 H 0.8364 0.18143 0.19831 0.0
H315 H 0.74445 0.26866 0.12648 0.0
H316 H 0.64281 0.18344 0.13877 0.0
H317 H 0.57975 0.08661 0.17176 0.0
H318 H 0.67161 0.99707 0.2419 0.0
H319 H 0.77397 0.08155 0.22918 0.0
C320 C 0.79413 0.18128 0.18514 0.0
C321 C 0.79751 0.23085 0.16156 0.0
C322 C 0.73606 0.13243 0.19244 0.0
C323 C 0.74273 0.23056 0.14462 0.0
C324 C 0.68469 0.18216 0.15176 0.0
C325 C 0.6225 0.08565 0.1839 0.0
C326 C 0.61878 0.03664 0.20784 0.0
C327 C 0.68078 0.13332 0.17587 0.0
C328 C 0.67379 0.03539 0.22384 0.0
C329 C 0.73209 0.08319 0.21635 0.0
H330 H 0.99725 0.34657 0.04835 0.0
H331 H 0.0724 0.55496 0.03847 0.0
H332 H 0.09267 0.54619 0.97748 0.0
H333 H 0.08075 0.4792 0.92605 0.0
H334 H 1.00645 0.27175 0.93535 0.0
H335 H 0.9946 0.27966 0.99772 0.0
C336 C 1.01806 0.39004 0.03283 0.0
C337 C 1.03241 0.45132 0.04777 0.0
C338 C 1.03022 0.38465 0.99785 0.0
C339 C 0.06057 0.50722 0.02753 0.0
C340 C 0.07226 0.50228 0.99267 0.0
C341 C 0.06429 0.43603 0.94211 0.0
C342 C 0.04562 0.37501 0.92673 0.0
C343 C 0.05659 0.44132 0.97752 0.0
C344 C 1.02206 0.31897 0.94716 0.0
C345 C 1.01467 0.32366 0.98256 0.0
H346 H 0.62426 0.09657 0.38889 0.0
H347 H 0.58398 0.89574 0.41524 0.0
H348 H 0.56653 0.86624 0.35484 0.0
H349 H 0.55361 0.89594 0.29559 0.0
H350 H 0.57899 0.09303 0.26918 0.0
H351 H 0.61374 0.12682 0.32813 0.0
C352 C 0.61243 0.04663 0.38114 0.0
C353 C 0.60509 0.99817 0.40614 0.0
C354 C 0.60002 0.0297 0.34646 0.0
C355 C 0.58924 0.93349 0.39622 0.0
C356 C 0.57946 0.91669 0.36179 0.0
C357 C 0.56701 0.94626 0.30292 0.0
C358 C 0.56306 0.99193 0.27869 0.0
C359 C 0.58326 0.96411 0.3369 0.0
C360 C 0.58176 0.05732 0.28774 0.0
C361 C 0.60099 0.07631 0.32139 0.0
H362 H 0.71553 0.67643 0.72307 0.0
H363 H 0.51323 0.61367 0.73529 0.0
H364 H 0.49978 0.59222 0.6736 0.0
H365 H 0.54576 0.57605 0.61781 0.0
H366 H 0.74714 0.63184 0.60792 0.0
H367 H 0.76125 0.67204 0.66687 0.0
C368 C 0.66839 0.65897 0.71225 0.0
C369 C 0.61542 0.64575 0.73394 0.0
C370 C 0.66108 0.64533 0.67707 0.0
C371 C 0.55485 0.62412 0.71927 0.0
C372 C 0.54713 0.61144 0.68399 0.0
C373 C 0.59254 0.59914 0.62846 0.0
C374 C 0.64561 0.60244 0.60872 0.0
C375 C 0.59984 0.61977 0.66285 0.0
C376 C 0.70612 0.63038 0.62269 0.0
C377 C 0.71397 0.6526 0.6564 0.0
H378 H 0.56136 0.98071 0.63351 0.0
H379 H 0.71035 0.16412 0.61268 0.0
H380 H 0.71499 0.19068 0.67339 0.0
H381 H 0.67281 0.16482 0.73187 0.0
H382 H 0.52361 0.98368 0.75339 0.0
H383 H 0.5234 0.95218 0.69289 0.0
C384 C 0.595 0.02642 0.64221 0.0
C385 C 0.63502 0.07059 0.61844 0.0
C386 C 0.59736 0.0416 0.67722 0.0
C387 C 0.67884 0.12924 0.63031 0.0
C388 C 0.68154 0.1446 0.66504 0.0
C389 C 0.64052 0.11848 0.72306 0.0
C390 C 0.59759 0.07677 0.74632 0.0
C391 C 0.64045 0.10161 0.68855 0.0
C392 C 0.55663 0.01622 0.73545 0.0
C393 C 0.55646 0.99862 0.70102 0.0
H394 H 0.63234 0.67672 0.96831 0.0
H395 H 0.67041 0.50975 0.93337 0.0
H396 H 0.64606 0.46005 0.99064 0.0
H397 H 0.59703 0.45748 0.04806 0.0
H398 H 0.56351 0.62656 0.08304 0.0
H399 H 0.60458 0.68311 0.02896 0.0
C400 C 0.63691 0.63027 0.9736 0.0
C401 C 0.65264 0.59666 0.94684 0.0
C402 C 0.62338 0.60235 0.0066 0.0
C403 C 0.65872 0.53661 0.9538 0.0
C404 C 0.64436 0.50798 0.98645 0.0
C405 C 0.60116 0.50749 0.04414 0.0
C406 C 0.57671 0.53787 0.06901 0.0
C407 C 0.62442 0.53942 0.01275 0.0
C408 C 0.58188 0.60256 0.06391 0.0
C409 C 0.60477 0.63454 0.03294 0.0
H410 H 0.9877 0.57076 0.26472 0.0
H411 H 0.99961 0.38041 0.2677 0.0
H412 H 1.01845 0.38939 0.32975 0.0
H413 H 1.04347 0.45736 0.38199 0.0
H414 H 1.02269 0.64363 0.37938 0.0
H415 H 0.99485 0.63045 0.31854 0.0
C416 C 0.99343 0.53093 0.27913 0.0
C417 C 0.993 0.47536 0.26178 0.0
C418 C 1.00317 0.53603 0.31479 0.0
C419 C 0.99968 0.42364 0.28064 0.0
C420 C 1.01078 0.42891 0.31606 0.0
C421 C 1.0312 0.49409 0.36821 0.0
C422 C 1.03667 0.55214 0.38471 0.0
C423 C 1.01421 0.4856 0.33329 0.0
C424 C 1.02036 0.59939 0.36677 0.0
C425 C 1.0044 0.59181 0.33207 0.0
loop_
_geom_bond_atom_site_label_1
_geom_bond_atom_site_label_2
_geom_bond_distance
_geom_bond_site_symmetry_2
_ccdc_geom_bond_type
Tb0 O3 2.453 1_455 S
Tb0 O4 2.596 1_455 S
Tb0 O5 2.374 . S
Tb0 O13 2.343 . S
Tb0 O15 2.353 . S
Tb0 O17 2.427 . S
Tb0 O18 2.513 . S
C1 O5 1.251 1_655 S
C1 O7 1.263 . S
Tb2 O4 2.343 . S
Tb2 O7 2.353 . S
Tb2 O10 2.427 . S
Tb2 O11 2.513 . S
Tb2 O12 2.453 1_655 S
Tb2 O13 2.596 1_655 S
Tb2 O14 2.374 . S
O3 Tb0 2.453 1_655 S
O3 C19 1.245 . S
O4 Tb0 2.596 1_655 S
O4 Tb2 2.343 . S
O4 C19 1.259 . S
O5 Tb0 2.374 . S
O5 C1 1.251 1_455 S
C6 O10 1.275 . S
C6 O11 1.246 . S
O7 C1 1.263 . S
O7 Tb2 2.353 . S
C8 O12 1.245 . S
C8 O13 1.259 . S
C9 O14 1.250 1_455 S
C9 O15 1.263 . S
O10 Tb2 2.427 . S
O10 C6 1.275 . S
O11 Tb2 2.513 . S
O11 C6 1.246 . S
O12 Tb2 2.453 1_455 S
O12 C8 1.245 . S
O13 Tb0 2.343 . S
O13 Tb2 2.596 1_455 S
O13 C8 1.259 . S
O14 Tb2 2.374 . S
O14 C9 1.250 1_655 S
O15 Tb0 2.353 . S
O15 C9 1.263 . S
C16 O17 1.275 . S
C16 O18 1.246 . S
O17 Tb0 2.427 . S
O17 C16 1.275 . S
O18 Tb0 2.513 . S
O18 C16 1.246 . S
C19 O3 1.245 . S
C19 O4 1.259 . S
Tb20 O23 2.453 1_565 S
Tb20 O24 2.596 1_565 S
Tb20 O25 2.374 1_565 S
Tb20 O33 2.343 . S
Tb20 O35 2.353 1_565 S
Tb20 O37 2.427 . S
Tb20 O38 2.513 . S
C21 O25 1.251 . S
C21 O27 1.263 . S
Tb22 O24 2.343 . S
Tb22 O27 2.353 . S
Tb22 O30 2.427 . S
Tb22 O31 2.513 . S
Tb22 O32 2.453 1_545 S
Tb22 O33 2.596 1_545 S
Tb22 O34 2.374 . S
O23 Tb20 2.453 1_545 S
O23 C39 1.245 . S
O24 Tb20 2.596 1_545 S
O24 Tb22 2.343 . S
O24 C39 1.259 . S
O25 Tb20 2.374 1_545 S
O25 C21 1.251 . S
C26 O30 1.275 . S
C26 O31 1.246 . S
O27 C21 1.263 . S
O27 Tb22 2.353 . S
C28 O32 1.245 . S
C28 O33 1.259 . S
C29 O34 1.250 . S
C29 O35 1.263 . S
O30 Tb22 2.427 . S
O30 C26 1.275 . S
O31 Tb22 2.513 . S
O31 C26 1.246 . S
O32 Tb22 2.453 1_565 S
O32 C28 1.245 . S
O33 Tb20 2.343 . S
O33 Tb22 2.596 1_565 S
O33 C28 1.259 . S
O34 Tb22 2.374 . S
O34 C29 1.250 . S
O35 Tb20 2.353 1_545 S
O35 C29 1.263 . S
C36 O37 1.275 . S
C36 O38 1.246 . S
O37 Tb20 2.427 . S
O37 C36 1.275 . S
O38 Tb20 2.513 . S
O38 C36 1.246 . S
C39 O23 1.245 . S
C39 O24 1.259 . S
Tb40 O43 2.453 . S
Tb40 O44 2.596 . S
Tb40 O45 2.374 . S
Tb40 O53 2.343 . S
Tb40 O55 2.353 . S
Tb40 O57 2.427 . S
Tb40 O58 2.513 . S
C41 O45 1.251 . S
C41 O47 1.263 . S
Tb42 O44 2.343 . S
Tb42 O47 2.353 . S
Tb42 O50 2.427 . S
Tb42 O51 2.513 . S
Tb42 O52 2.453 . S
Tb42 O53 2.596 . S
Tb42 O54 2.374 . S
O43 Tb40 2.453 . S
O43 C59 1.245 . S
O44 Tb40 2.596 . S
O44 Tb42 2.343 . S
O44 C59 1.259 . S
O45 Tb40 2.374 . S
O45 C41 1.251 . S
C46 O50 1.275 . S
C46 O51 1.246 . S
O47 C41 1.263 . S
O47 Tb42 2.353 . S
C48 O52 1.245 . S
C48 O53 1.259 . S
C49 O54 1.250 . S
C49 O55 1.263 . S
O50 Tb42 2.427 . S
O50 C46 1.275 . S
O51 Tb42 2.513 . S
O51 C46 1.246 . S
O52 Tb42 2.453 . S
O52 C48 1.245 . S
O53 Tb40 2.343 . S
O53 Tb42 2.596 . S
O53 C48 1.259 . S
O54 Tb42 2.374 . S
O54 C49 1.250 . S
O55 Tb40 2.353 . S
O55 C49 1.263 . S
C56 O57 1.275 . S
C56 O58 1.246 . S
O57 Tb40 2.427 . S
O57 C56 1.275 . S
O58 Tb40 2.513 . S
O58 C56 1.246 . S
C59 O43 1.245 . S
C59 O44 1.259 . S
C60 N61 1.317 1_565 S
C60 N62 1.348 . S
C60 C63 1.485 . S
N61 C60 1.317 1_545 S
N61 N65 1.370 . S
N62 C60 1.348 . S
N62 C64 1.346 . S
C63 C60 1.485 . S
C63 H67 0.960 1_565 S
C63 H68 0.961 . S
C63 H69 0.960 1_565 S
C64 N62 1.346 . S
C64 N65 1.307 1_565 S
C64 C66 1.486 . S
N65 N61 1.370 . S
N65 C64 1.307 1_545 S
C66 C64 1.486 . S
C66 H70 0.960 . S
C66 H71 0.960 . S
C66 H72 0.959 . S
H67 C63 0.960 1_545 S
H68 C63 0.961 . S
H69 C63 0.960 1_545 S
H70 C66 0.960 . S
H71 C66 0.960 . S
H72 C66 0.959 . S
C73 N74 1.317 . S
C73 N75 1.348 . S
C73 C76 1.485 . S
N74 C73 1.317 . S
N74 N78 1.370 . S
N75 C73 1.348 . S
N75 C77 1.346 . S
C76 C73 1.485 . S
C76 H80 0.960 . S
C76 H81 0.961 . S
C76 H82 0.960 . S
C77 N75 1.346 . S
C77 N78 1.307 . S
C77 C79 1.486 . S
N78 N74 1.370 . S
N78 C77 1.307 . S
C79 C77 1.486 . S
C79 H83 0.960 . S
C79 H84 0.960 . S
C79 H85 0.959 . S
H80 C76 0.960 . S
H81 C76 0.961 . S
H82 C76 0.960 . S
H83 C79 0.960 . S
H84 C79 0.960 . S
H85 C79 0.959 . S
C86 N87 1.317 . S
C86 N88 1.348 1_455 S
C86 C89 1.485 . S
N87 C86 1.317 . S
N87 N91 1.370 . S
N88 C86 1.348 1_655 S
N88 C90 1.346 . S
C89 C86 1.485 . S
C89 H93 0.960 . S
C89 H94 0.961 . S
C89 H95 0.960 . S
C90 N88 1.346 . S
C90 N91 1.307 1_655 S
C90 C92 1.486 . S
N91 N87 1.370 . S
N91 C90 1.307 1_455 S
C92 C90 1.486 . S
C92 H96 0.960 . S
C92 H97 0.960 . S
C92 H98 0.959 . S
H93 C89 0.960 . S
H94 C89 0.961 . S
H95 C89 0.960 . S
H96 C92 0.960 . S
H97 C92 0.960 . S
H98 C92 0.959 . S
C99 N100 1.317 1_455 S
C99 N101 1.348 . S
C99 C102 1.485 . S
N100 C99 1.317 1_655 S
N100 N104 1.370 1_655 S
N101 C99 1.348 . S
N101 C103 1.346 . S
C102 C99 1.485 . S
C102 H106 0.960 1_455 S
C102 H107 0.961 . S
C102 H108 0.960 1_455 S
C103 N101 1.346 . S
C103 N104 1.307 . S
C103 C105 1.486 . S
N104 N100 1.370 1_455 S
N104 C103 1.307 . S
C105 C103 1.486 . S
C105 H109 0.960 . S
C105 H110 0.960 . S
C105 H111 0.959 . S
H106 C102 0.960 1_655 S
H107 C102 0.961 . S
H108 C102 0.960 1_655 S
H109 C105 0.960 . S
H110 C105 0.960 . S
H111 C105 0.959 . S
C112 N113 1.317 . S
C112 N114 1.348 . S
C112 C115 1.485 . S
N113 C112 1.317 . S
N113 N117 1.370 . S
N114 C112 1.348 . S
N114 C116 1.346 . S
C115 C112 1.485 . S
C115 H119 0.960 . S
C115 H120 0.961 . S
C115 H121 0.960 . S
C116 N114 1.346 . S
C116 N117 1.307 . S
C116 C118 1.486 . S
N117 N113 1.370 . S
N117 C116 1.307 . S
C118 C116 1.486 . S
C118 H122 0.960 . S
C118 H123 0.960 . S
C118 H124 0.959 . S
H119 C115 0.960 . S
H120 C115 0.961 . S
H121 C115 0.960 . S
H122 C118 0.960 . S
H123 C118 0.960 . S
H124 C118 0.959 . S
C125 N126 1.317 . S
C125 N127 1.348 . S
C125 C128 1.485 . S
N126 C125 1.317 . S
N126 N130 1.370 . S
N127 C125 1.348 . S
N127 C129 1.346 . S
C128 C125 1.485 . S
C128 H132 0.960 . S
C128 H133 0.961 . S
C128 H134 0.960 . S
C129 N127 1.346 . S
C129 N130 1.307 . S
C129 C131 1.486 . S
N130 N126 1.370 . S
N130 C129 1.307 . S
C131 C129 1.486 . S
C131 H135 0.960 . S
C131 H136 0.960 . S
C131 H137 0.959 . S
H132 C128 0.960 . S
H133 C128 0.961 . S
H134 C128 0.960 . S
H135 C131 0.960 . S
H136 C131 0.960 . S
H137 C131 0.959 . S
H138 C144 0.930 . S
H139 C147 0.930 . S
H140 C148 0.930 . S
H141 C149 0.930 . S
H142 C152 0.930 . S
H143 C153 0.930 . S
C144 H138 0.930 . S
C144 C145 1.355 . S
C144 C146 1.415 . S
C145 C144 1.355 . S
C145 C147 1.419 . S
C146 C144 1.415 . S
C146 C151 1.425 . S
C146 C153 1.409 . S
C147 H139 0.930 . S
C147 C145 1.419 . S
C147 C148 1.362 . S
C148 H140 0.930 . S
C148 C147 1.362 . S
C148 C151 1.409 . S
C149 H141 0.930 . S
C149 C150 1.355 . S
C149 C151 1.415 . S
C150 C149 1.355 . S
C150 C152 1.419 . S
C151 C146 1.425 . S
C151 C148 1.409 . S
C151 C149 1.415 . S
C152 H142 0.930 . S
C152 C150 1.419 . S
C152 C153 1.362 . S
C153 H143 0.930 . S
C153 C146 1.409 . S
C153 C152 1.362 . S
H154 C160 0.930 . S
H155 C163 0.930 . S
H156 C164 0.930 . S
H157 C165 0.930 . S
H158 C168 0.930 . S
H159 C169 0.930 . S
C160 H154 0.930 . S
C160 C161 1.355 . S
C160 C162 1.415 . S
C161 C160 1.355 . S
C161 C163 1.419 . S
C162 C160 1.415 . S
C162 C167 1.425 . S
C162 C169 1.409 . S
C163 H155 0.930 . S
C163 C161 1.419 . S
C163 C164 1.362 . S
C164 H156 0.930 . S
C164 C163 1.362 . S
C164 C167 1.409 . S
C165 H157 0.930 . S
C165 C166 1.355 . S
C165 C167 1.415 . S
C166 C165 1.355 . S
C166 C168 1.419 . S
C167 C162 1.425 . S
C167 C164 1.409 . S
C167 C165 1.415 . S
C168 H158 0.930 . S
C168 C166 1.419 . S
C168 C169 1.362 . S
C169 H159 0.930 . S
C169 C162 1.409 . S
C169 C168 1.362 . S
H170 C176 0.930 . S
H171 C179 0.930 . S
H172 C180 0.930 . S
H173 C181 0.930 . S
H174 C184 0.930 . S
H175 C185 0.930 . S
C176 H170 0.930 . S
C176 C177 1.355 . S
C176 C178 1.415 . S
C177 C176 1.355 . S
C177 C179 1.419 . S
C178 C176 1.415 . S
C178 C183 1.425 . S
C178 C185 1.409 . S
C179 H171 0.930 . S
C179 C177 1.419 . S
C179 C180 1.362 . S
C180 H172 0.930 . S
C180 C179 1.362 . S
C180 C183 1.409 . S
C181 H173 0.930 . S
C181 C182 1.355 . S
C181 C183 1.415 . S
C182 C181 1.355 . S
C182 C184 1.419 . S
C183 C178 1.425 . S
C183 C180 1.409 . S
C183 C181 1.415 . S
C184 H174 0.930 . S
C184 C182 1.419 . S
C184 C185 1.362 . S
C185 H175 0.930 . S
C185 C178 1.409 . S
C185 C184 1.362 . S
H186 C192 0.930 . S
H187 C195 0.930 . S
H188 C196 0.930 . S
H189 C197 0.930 . S
H190 C200 0.930 . S
H191 C201 0.930 . S
C192 H186 0.930 . S
C192 C193 1.355 . S
C192 C194 1.415 . S
C193 C192 1.355 . S
C193 C195 1.419 . S
C194 C192 1.415 . S
C194 C199 1.425 . S
C194 C201 1.409 . S
C195 H187 0.930 . S
C195 C193 1.419 . S
C195 C196 1.362 . S
C196 H188 0.930 . S
C196 C195 1.362 . S
C196 C199 1.409 . S
C197 H189 0.930 . S
C197 C198 1.355 . S
C197 C199 1.415 . S
C198 C197 1.355 . S
C198 C200 1.419 . S
C199 C194 1.425 . S
C199 C196 1.409 . S
C199 C197 1.415 . S
C200 H190 0.930 . S
C200 C198 1.419 . S
C200 C201 1.362 . S
C201 H191 0.930 . S
C201 C194 1.409 . S
C201 C200 1.362 . S
H202 C208 0.930 . S
H203 C211 0.930 . S
H204 C212 0.930 . S
H205 C213 0.930 . S
H206 C216 0.930 . S
H207 C217 0.930 . S
C208 H202 0.930 . S
C208 C209 1.355 . S
C208 C210 1.415 . S
C209 C208 1.355 . S
C209 C211 1.419 . S
C210 C208 1.415 . S
C210 C215 1.425 . S
C210 C217 1.409 . S
C211 H203 0.930 . S
C211 C209 1.419 . S
C211 C212 1.362 . S
C212 H204 0.930 . S
C212 C211 1.362 . S
C212 C215 1.409 . S
C213 H205 0.930 . S
C213 C214 1.355 . S
C213 C215 1.415 . S
C214 C213 1.355 . S
C214 C216 1.419 . S
C215 C210 1.425 . S
C215 C212 1.409 . S
C215 C213 1.415 . S
C216 H206 0.930 . S
C216 C214 1.419 . S
C216 C217 1.362 . S
C217 H207 0.930 . S
C217 C210 1.409 . S
C217 C216 1.362 . S
H218 C224 0.930 . S
H219 C227 0.930 . S
H220 C228 0.930 . S
H221 C229 0.930 . S
H222 C232 0.930 . S
H223 C233 0.930 . S
C224 H218 0.930 . S
C224 C225 1.355 . S
C224 C226 1.415 . S
C225 C224 1.355 . S
C225 C227 1.419 . S
C226 C224 1.415 . S
C226 C231 1.425 . S
C226 C233 1.409 . S
C227 H219 0.930 . S
C227 C225 1.419 . S
C227 C228 1.362 . S
C228 H220 0.930 . S
C228 C227 1.362 . S
C228 C231 1.409 . S
C229 H221 0.930 . S
C229 C230 1.355 . S
C229 C231 1.415 . S
C230 C229 1.355 . S
C230 C232 1.419 . S
C231 C226 1.425 . S
C231 C228 1.409 . S
C231 C229 1.415 . S
C232 H222 0.930 . S
C232 C230 1.419 . S
C232 C233 1.362 . S
C233 H223 0.930 . S
C233 C226 1.409 . S
C233 C232 1.362 . S
H234 C240 0.930 . S
H235 C243 0.930 . S
H236 C244 0.930 . S
H237 C245 0.930 . S
H238 C248 0.930 . S
H239 C249 0.930 . S
C240 H234 0.930 . S
C240 C241 1.355 . S
C240 C242 1.415 . S
C241 C240 1.355 . S
C241 C243 1.419 . S
C242 C240 1.415 . S
C242 C247 1.425 . S
C242 C249 1.409 . S
C243 H235 0.930 . S
C243 C241 1.419 . S
C243 C244 1.362 . S
C244 H236 0.930 . S
C244 C243 1.362 . S
C244 C247 1.409 . S
C245 H237 0.930 . S
C245 C246 1.355 . S
C245 C247 1.415 . S
C246 C245 1.355 . S
C246 C248 1.419 . S
C247 C242 1.425 . S
C247 C244 1.409 . S
C247 C245 1.415 . S
C248 H238 0.930 . S
C248 C246 1.419 . S
C248 C249 1.362 . S
C249 H239 0.930 . S
C249 C242 1.409 . S
C249 C248 1.362 . S
H250 C256 0.930 . S
H251 C259 0.930 . S
H252 C260 0.930 . S
H253 C261 0.930 . S
H254 C264 0.930 . S
H255 C265 0.930 . S
C256 H250 0.930 . S
C256 C257 1.355 . S
C256 C258 1.415 . S
C257 C256 1.355 . S
C257 C259 1.419 . S
C258 C256 1.415 . S
C258 C263 1.425 . S
C258 C265 1.409 . S
C259 H251 0.930 . S
C259 C257 1.419 . S
C259 C260 1.362 . S
C260 H252 0.930 . S
C260 C259 1.362 . S
C260 C263 1.409 . S
C261 H253 0.930 . S
C261 C262 1.355 . S
C261 C263 1.415 . S
C262 C261 1.355 . S
C262 C264 1.419 . S
C263 C258 1.425 . S
C263 C260 1.409 . S
C263 C261 1.415 . S
C264 H254 0.930 . S
C264 C262 1.419 . S
C264 C265 1.362 . S
C265 H255 0.930 . S
C265 C258 1.409 . S
C265 C264 1.362 . S
H266 C272 0.930 . S
H267 C275 0.930 . S
H268 C276 0.930 . S
H269 C277 0.930 . S
H270 C280 0.930 . S
H271 C281 0.930 . S
C272 H266 0.930 . S
C272 C273 1.355 . S
C272 C274 1.415 . S
C273 C272 1.355 . S
C273 C275 1.419 . S
C274 C272 1.415 . S
C274 C279 1.425 . S
C274 C281 1.409 . S
C275 H267 0.930 . S
C275 C273 1.419 . S
C275 C276 1.362 . S
C276 H268 0.930 . S
C276 C275 1.362 . S
C276 C279 1.409 . S
C277 H269 0.930 . S
C277 C278 1.355 . S
C277 C279 1.415 . S
C278 C277 1.355 . S
C278 C280 1.419 . S
C279 C274 1.425 . S
C279 C276 1.409 . S
C279 C277 1.415 . S
C280 H270 0.930 . S
C280 C278 1.419 . S
C280 C281 1.362 . S
C281 H271 0.930 . S
C281 C274 1.409 . S
C281 C280 1.362 . S
H282 C288 0.930 . S
H283 C291 0.930 . S
H284 C292 0.930 . S
H285 C293 0.930 . S
H286 C296 0.930 . S
H287 C297 0.930 . S
C288 H282 0.930 . S
C288 C289 1.355 . S
C288 C290 1.415 . S
C289 C288 1.355 . S
C289 C291 1.419 . S
C290 C288 1.415 . S
C290 C295 1.425 . S
C290 C297 1.409 . S
C291 H283 0.930 . S
C291 C289 1.419 . S
C291 C292 1.362 . S
C292 H284 0.930 . S
C292 C291 1.362 . S
C292 C295 1.409 . S
C293 H285 0.930 . S
C293 C294 1.355 . S
C293 C295 1.415 . S
C294 C293 1.355 . S
C294 C296 1.419 . S
C295 C290 1.425 . S
C295 C292 1.409 . S
C295 C293 1.415 . S
C296 H286 0.930 . S
C296 C294 1.419 . S
C296 C297 1.362 . S
C297 H287 0.930 . S
C297 C290 1.409 . S
C297 C296 1.362 . S
H298 C304 0.930 . S
H299 C307 0.930 . S
H300 C308 0.930 . S
H301 C309 0.930 . S
H302 C312 0.930 . S
H303 C313 0.930 . S
C304 H298 0.930 . S
C304 C305 1.355 . S
C304 C306 1.415 . S
C305 C304 1.355 . S
C305 C307 1.419 . S
C306 C304 1.415 . S
C306 C311 1.425 . S
C306 C313 1.409 . S
C307 H299 0.930 . S
C307 C305 1.419 . S
C307 C308 1.362 . S
C308 H300 0.930 . S
C308 C307 1.362 . S
C308 C311 1.409 . S
C309 H301 0.930 . S
C309 C310 1.355 . S
C309 C311 1.415 . S
C310 C309 1.355 . S
C310 C312 1.419 . S
C311 C306 1.425 . S
C311 C308 1.409 . S
C311 C309 1.415 . S
C312 H302 0.930 . S
C312 C310 1.419 . S
C312 C313 1.362 . S
C313 H303 0.930 . S
C313 C306 1.409 . S
C313 C312 1.362 . S
H314 C320 0.930 . S
H315 C323 0.930 . S
H316 C324 0.930 . S
H317 C325 0.930 . S
H318 C328 0.930 . S
H319 C329 0.930 . S
C320 H314 0.930 . S
C320 C321 1.355 . S
C320 C322 1.415 . S
C321 C320 1.355 . S
C321 C323 1.419 . S
C322 C320 1.415 . S
C322 C327 1.425 . S
C322 C329 1.409 . S
C323 H315 0.930 . S
C323 C321 1.419 . S
C323 C324 1.362 . S
C324 H316 0.930 . S
C324 C323 1.362 . S
C324 C327 1.409 . S
C325 H317 0.930 . S
C325 C326 1.355 . S
C325 C327 1.415 . S
C326 C325 1.355 . S
C326 C328 1.419 . S
C327 C322 1.425 . S
C327 C324 1.409 . S
C327 C325 1.415 . S
C328 H318 0.930 . S
C328 C326 1.419 . S
C328 C329 1.362 . S
C329 H319 0.930 . S
C329 C322 1.409 . S
C329 C328 1.362 . S
H330 C336 0.930 . S
H331 C339 0.930 . S
H332 C340 0.930 . S
H333 C341 0.930 1_655 S
H334 C344 0.930 . S
H335 C345 0.930 . S
C336 H330 0.930 . S
C336 C337 1.355 . S
C336 C338 1.415 1_554 S
C337 C336 1.355 . S
C337 C339 1.419 1_455 S
C338 C336 1.415 1_556 S
C338 C343 1.425 . S
C338 C345 1.409 . S
C339 H331 0.930 . S
C339 C337 1.419 1_655 S
C339 C340 1.362 . S
C340 H332 0.930 . S
C340 C339 1.362 . S
C340 C343 1.409 1_654 S
C341 H333 0.930 1_455 S
C341 C342 1.355 . S
C341 C343 1.415 . S
C342 C341 1.355 . S
C342 C344 1.419 . S
C343 C338 1.425 . S
C343 C340 1.409 1_456 S
C343 C341 1.415 . S
C344 H334 0.930 . S
C344 C342 1.419 . S
C344 C345 1.362 . S
C345 H335 0.930 . S
C345 C338 1.409 . S
C345 C344 1.362 . S
H346 C352 0.930 . S
H347 C355 0.930 . S
H348 C356 0.930 1_565 S
H349 C357 0.930 . S
H350 C360 0.930 . S
H351 C361 0.930 . S
C352 H346 0.930 . S
C352 C353 1.355 . S
C352 C354 1.415 . S
C353 C352 1.355 . S
C353 C355 1.419 . S
C354 C352 1.415 . S
C354 C359 1.425 . S
C354 C361 1.409 . S
C355 H347 0.930 . S
C355 C353 1.419 . S
C355 C356 1.362 . S
C356 H348 0.930 1_545 S
C356 C355 1.362 . S
C356 C359 1.409 . S
C357 H349 0.930 . S
C357 C358 1.355 . S
C357 C359 1.415 . S
C358 C357 1.355 . S
C358 C360 1.419 . S
C359 C354 1.425 . S
C359 C356 1.409 . S
C359 C357 1.415 . S
C360 H350 0.930 . S
C360 C358 1.419 . S
C360 C361 1.362 . S
C361 H351 0.930 . S
C361 C354 1.409 . S
C361 C360 1.362 . S
H362 C368 0.930 . S
H363 C371 0.930 . S
H364 C372 0.930 . S
H365 C373 0.930 . S
H366 C376 0.930 . S
H367 C377 0.930 . S
C368 H362 0.930 . S
C368 C369 1.355 . S
C368 C370 1.415 . S
C369 C368 1.355 . S
C369 C371 1.419 . S
C370 C368 1.415 . S
C370 C375 1.425 . S
C370 C377 1.409 . S
C371 H363 0.930 . S
C371 C369 1.419 . S
C371 C372 1.362 . S
C372 H364 0.930 . S
C372 C371 1.362 . S
C372 C375 1.409 . S
C373 H365 0.930 . S
C373 C374 1.355 . S
C373 C375 1.415 . S
C374 C373 1.355 . S
C374 C376 1.419 . S
C375 C370 1.425 . S
C375 C372 1.409 . S
C375 C373 1.415 . S
C376 H366 0.930 . S
C376 C374 1.419 . S
C376 C377 1.362 . S
C377 H367 0.930 . S
C377 C370 1.409 . S
C377 C376 1.362 . S
H378 C384 0.930 . S
H379 C387 0.930 . S
H380 C388 0.930 . S
H381 C389 0.930 . S
H382 C392 0.930 . S
H383 C393 0.930 . S
C384 H378 0.930 . S
C384 C385 1.355 1_565 S
C384 C386 1.415 . S
C385 C384 1.355 1_545 S
C385 C387 1.419 . S
C386 C384 1.415 . S
C386 C391 1.425 1_565 S
C386 C393 1.409 . S
C387 H379 0.930 . S
C387 C385 1.419 . S
C387 C388 1.362 . S
C388 H380 0.930 . S
C388 C387 1.362 . S
C388 C391 1.409 . S
C389 H381 0.930 . S
C389 C390 1.355 . S
C389 C391 1.415 . S
C390 C389 1.355 . S
C390 C392 1.419 1_545 S
C391 C386 1.425 1_545 S
C391 C388 1.409 . S
C391 C389 1.415 . S
C392 H382 0.930 . S
C392 C390 1.419 1_565 S
C392 C393 1.362 . S
C393 H383 0.930 . S
C393 C386 1.409 . S
C393 C392 1.362 . S
H394 C400 0.930 . S
H395 C403 0.930 . S
H396 C404 0.930 . S
H397 C405 0.930 . S
H398 C408 0.930 . S
H399 C409 0.930 . S
C400 H394 0.930 . S
C400 C401 1.355 . S
C400 C402 1.415 . S
C401 C400 1.355 . S
C401 C403 1.419 . S
C402 C400 1.415 . S
C402 C407 1.425 1_556 S
C402 C409 1.409 1_556 S
C403 H395 0.930 . S
C403 C401 1.419 . S
C403 C404 1.362 . S
C404 H396 0.930 . S
C404 C403 1.362 . S
C404 C407 1.409 1_556 S
C405 H397 0.930 . S
C405 C406 1.355 . S
C405 C407 1.415 . S
C406 C405 1.355 . S
C406 C408 1.419 . S
C407 C402 1.425 1_554 S
C407 C404 1.409 1_554 S
C407 C405 1.415 . S
C408 H398 0.930 . S
C408 C406 1.419 . S
C408 C409 1.362 . S
C409 H399 0.930 . S
C409 C402 1.409 1_554 S
C409 C408 1.362 . S
H410 C416 0.930 . S
H411 C419 0.930 . S
H412 C420 0.930 . S
H413 C421 0.930 . S
H414 C424 0.930 . S
H415 C425 0.930 . S
C416 H410 0.930 . S
C416 C417 1.355 . S
C416 C418 1.415 . S
C417 C416 1.355 . S
C417 C419 1.419 1_655 S
C418 C416 1.415 . S
C418 C423 1.425 1_655 S
C418 C425 1.409 . S
C419 H411 0.930 . S
C419 C417 1.419 1_455 S
C419 C420 1.362 . S
C420 H412 0.930 . S
C420 C419 1.362 . S
C420 C423 1.409 . S
C421 H413 0.930 . S
C421 C422 1.355 1_455 S
C421 C423 1.415 . S
C422 C421 1.355 1_655 S
C422 C424 1.419 . S
C423 C418 1.425 1_455 S
C423 C420 1.409 . S
C423 C421 1.415 . S
C424 H414 0.930 . S
C424 C422 1.419 . S
C424 C425 1.362 . S
C425 H415 0.930 . S
C425 C418 1.409 . S
C425 C424 1.362 . S
C145 C8 1.752 . S
C150 N127 1.760 . S
C161 C26 1.281 . S
C166 N100 1.290 . S
C177 C48 1.460 . S
C182 N113 1.494 1_565 S
C193 C19 1.948 . S
C198 N126 2.101 . S
C214 N101 1.519 . S
C209 C36 1.503 . S
C230 N114 1.677 . S
C225 C59 1.632 . S
C241 C28 1.437 . S
C246 N74 1.515 . S
C257 C46 0.972 . S
C262 N88 0.997 . S
C273 C16 1.462 . S
C278 N62 1.494 . S
C294 N75 1.675 . S
C289 C39 1.614 . S
C310 N87 1.324 . S
C305 C56 1.288 . S
C321 C6 1.357 . S
C326 N61 1.322 . S
C342 N91 1.531 . S
C337 C9 1.481 . S
C353 C21 1.509 . S
C358 N65 1.536 . S
C369 C49 1.529 . S
C374 N78 1.554 . S
C390 N117 1.549 . S
C385 C29 1.502 . S
C406 N130 1.545 . S
C401 C41 1.609 . S
C417 C1 1.523 . S
C422 N104 1.589 1_655 S
