# Generated by pormake.
# Topology pyr, (3,6)-cn, num edge types: 1
# Building blocks:
#     Node 0, Type 0, BuildingBlock: QEWDON_clean_linker_0, # of connection points: 3
#     Node 1, Type 0, BuildingBlock: QEWDON_clean_linker_0, # of connection points: 3
#     Node 2, Type 0, BuildingBlock: QEWDON_clean_linker_0, # of connection points: 3
#     Node 3, Type 0, BuildingBlock: QEWDON_clean_linker_0, # of connection points: 3
#     Node 4, Type 0, BuildingBlock: QEWDON_clean_linker_0, # of connection points: 3
#     Node 5, Type 0, BuildingBlock: QEWDON_clean_linker_0, # of connection points: 3
#     Node 6, Type 0, BuildingBlock: QEWDON_clean_linker_0, # of connection points: 3
#     Node 7, Type 0, BuildingBlock: QEWDON_clean_linker_0, # of connection points: 3
#     Node 8, Type 1, BuildingBlock: MIDCAF_clean_sbu_0, # of connection points: 6
#     Node 9, Type 1, BuildingBlock: MIDCAF_clean_sbu_0, # of connection points: 6
#     Node 10, Type 1, BuildingBlock: MIDCAF_clean_sbu_0, # of connection points: 6
#     Node 11, Type 1, BuildingBlock: MIDCAF_clean_sbu_0, # of connection points: 6
#     Edge 12, Type (0, 1), BuildingBlock: AJUNOK_clean_linker_0, # of connection points: 2
#     Edge 13, Type (0, 1), BuildingBlock: AJUNOK_clean_linker_0, # of connection points: 2
#     Edge 14, Type (0, 1), BuildingBlock: AJUNOK_clean_linker_0, # of connection points: 2
#     Edge 15, Type (0, 1), BuildingBlock: AJUNOK_clean_linker_0, # of connection points: 2
#     Edge 16, Type (0, 1), BuildingBlock: AJUNOK_clean_linker_0, # of connection points: 2
#     Edge 17, Type (0, 1), BuildingBlock: AJUNOK_clean_linker_0, # of connection points: 2
#     Edge 18, Type (0, 1), BuildingBlock: AJUNOK_clean_linker_0, # of connection points: 2
#     Edge 19, Type (0, 1), BuildingBlock: AJUNOK_clean_linker_0, # of connection points: 2
#     Edge 20, Type (0, 1), BuildingBlock: AJUNOK_clean_linker_0, # of connection points: 2
#     Edge 21, Type (0, 1), BuildingBlock: AJUNOK_clean_linker_0, # of connection points: 2
#     Edge 22, Type (0, 1), BuildingBlock: AJUNOK_clean_linker_0, # of connection points: 2
#     Edge 23, Type (0, 1), BuildingBlock: AJUNOK_clean_linker_0, # of connection points: 2
#     Edge 24, Type (0, 1), BuildingBlock: AJUNOK_clean_linker_0, # of connection points: 2
#     Edge 25, Type (0, 1), BuildingBlock: AJUNOK_clean_linker_0, # of connection points: 2
#     Edge 26, Type (0, 1), BuildingBlock: AJUNOK_clean_linker_0, # of connection points: 2
#     Edge 27, Type (0, 1), BuildingBlock: AJUNOK_clean_linker_0, # of connection points: 2
#     Edge 28, Type (0, 1), BuildingBlock: AJUNOK_clean_linker_0, # of connection points: 2
#     Edge 29, Type (0, 1), BuildingBlock: AJUNOK_clean_linker_0, # of connection points: 2
#     Edge 30, Type (0, 1), BuildingBlock: AJUNOK_clean_linker_0, # of connection points: 2
#     Edge 31, Type (0, 1), BuildingBlock: AJUNOK_clean_linker_0, # of connection points: 2
#     Edge 32, Type (0, 1), BuildingBlock: AJUNOK_clean_linker_0, # of connection points: 2
#     Edge 33, Type (0, 1), BuildingBlock: AJUNOK_clean_linker_0, # of connection points: 2
#     Edge 34, Type (0, 1), BuildingBlock: AJUNOK_clean_linker_0, # of connection points: 2
#     Edge 35, Type (0, 1), BuildingBlock: AJUNOK_clean_linker_0, # of connection points: 2
# Relax obj value: 0.153
# Max RMSD: 0.263
# Mean RMSD: 0.189
data_MOF--net-pry--node1-MIDCAF_clean_sbu_0--node2-QEWDON_clean_linker_0--edge1-AJUNOK_clean_linker_0
_symmetry_space_group_name_H-M    P1
_symmetry_Int_Tables_number       1
_symmetry_cell_setting            triclinic
loop_
_symmetry_equiv_pos_as_xyz
'x, y, z'
_cell_length_a     25.90396
_cell_length_b     25.845142
_cell_length_c     27.856443
_cell_angle_alpha  90.229365
_cell_angle_beta   90.438375
_cell_angle_gamma 99.207223
loop_
_atom_site_label
_atom_site_type_symbol
_atom_site_fract_x
_atom_site_fract_y
_atom_site_fract_z
_atom_type_partial_charge
H0 H 0.35269 0.30472 0.2438 0.0
C1 C 0.32597 0.28761 0.27133 0.0
C2 C 0.32858 0.23652 0.28736 0.0
C3 C 0.28765 0.31601 0.28871 0.0
H4 H 0.29504 0.17554 0.33572 0.0
C5 C 0.29317 0.21461 0.32251 0.0
C6 C 0.25422 0.24178 0.34002 0.0
C7 C 0.25151 0.29254 0.32298 0.0
C8 C 0.28674 0.37032 0.27085 0.0
H9 H 0.22135 0.31347 0.33609 0.0
C10 C 0.24088 0.386 0.25162 0.0
C11 C 0.24283 0.43633 0.23105 0.0
C12 C 0.33365 0.40626 0.2707 0.0
H13 H 0.36926 0.39558 0.28553 0.0
C14 C 0.33535 0.45618 0.25133 0.0
H15 H 0.20454 0.35861 0.25092 0.0
C16 C 0.29048 0.47098 0.23128 0.0
H17 H 0.29286 0.50984 0.21612 0.0
H18 H 0.37178 0.4834 0.25147 0.0
H19 H 0.28751 0.885 0.90102 0.0
C20 C 0.31041 0.86224 0.87937 0.0
C21 C 0.36273 0.86043 0.89219 0.0
C22 C 0.28763 0.83743 0.83775 0.0
H23 H 0.43163 0.82788 0.87276 0.0
C24 C 0.39128 0.82974 0.86364 0.0
C25 C 0.36843 0.80287 0.82219 0.0
C26 C 0.31669 0.80771 0.80939 0.0
C27 C 0.23401 0.84527 0.82369 0.0
H28 H 0.29919 0.78891 0.777 0.0
C29 C 0.22452 0.86898 0.77964 0.0
C30 C 0.1752 0.88323 0.76989 0.0
C31 C 0.19314 0.83428 0.85685 0.0
H32 H 0.19959 0.81631 0.89099 0.0
C33 C 0.14396 0.84729 0.84671 0.0
H34 H 0.25597 0.8786 0.75415 0.0
C35 C 0.13513 0.87215 0.80374 0.0
H36 H 0.09695 0.88275 0.79682 0.0
H37 H 0.11283 0.83888 0.87261 0.0
H38 H 0.80342 0.38657 0.84576 0.0
C39 C 0.78454 0.35385 0.86688 0.0
C40 C 0.79748 0.35054 0.91548 0.0
C41 C 0.74528 0.31643 0.84618 0.0
H42 H 0.78229 0.30738 0.98085 0.0
C43 C 0.7721 0.30916 0.94312 0.0
C44 C 0.73131 0.27262 0.92369 0.0
C45 C 0.71861 0.27613 0.87471 0.0
C46 C 0.72814 0.32267 0.79615 0.0
H47 H 0.68571 0.24999 0.85935 0.0
C48 C 0.71003 0.36885 0.7824 0.0
C49 C 0.69149 0.37455 0.7355 0.0
C50 C 0.7281 0.28214 0.76249 0.0
H51 H 0.74156 0.24608 0.77257 0.0
C52 C 0.71123 0.28826 0.71537 0.0
H53 H 0.70959 0.40002 0.8085 0.0
C54 C 0.69323 0.33428 0.70179 0.0
H55 H 0.67972 0.33793 0.66526 0.0
H56 H 0.7117 0.25708 0.68939 0.0
H57 H 0.829 0.86367 0.33344 0.0
C58 C 0.79706 0.84422 0.35505 0.0
C59 C 0.79671 0.85438 0.40446 0.0
C60 C 0.75709 0.80829 0.33353 0.0
H61 H 0.75764 0.83463 0.47106 0.0
C62 C 0.75641 0.82791 0.43259 0.0
C63 C 0.71539 0.79228 0.41193 0.0
C64 C 0.71573 0.78311 0.36199 0.0
C65 C 0.75972 0.7962 0.28154 0.0
H66 H 0.68449 0.75592 0.34535 0.0
C67 C 0.80511 0.7809 0.2621 0.0
C68 C 0.80757 0.76806 0.21297 0.0
C69 C 0.71695 0.79961 0.2512 0.0
H70 H 0.68175 0.81152 0.26526 0.0
C71 C 0.71947 0.78813 0.20232 0.0
H72 H 0.83804 0.77772 0.28555 0.0
C73 C 0.76418 0.77213 0.18334 0.0
H74 H 0.76394 0.76114 0.14578 0.0
H75 H 0.68624 0.79076 0.17917 0.0
H76 H 0.87725 0.87377 0.94166 0.0
C77 C 0.90345 0.88956 0.91327 0.0
C78 C 0.95199 0.872 0.90788 0.0
C79 C 0.88846 0.92698 0.88171 0.0
H80 H 0.02302 0.87956 0.86566 0.0
C81 C 0.98578 0.89283 0.87056 0.0
C82 C 0.97103 0.93053 0.83934 0.0
C83 C 0.92288 0.94737 0.84547 0.0
C84 C 0.83698 0.94524 0.88502 0.0
H85 H 0.91228 0.97712 0.82158 0.0
C86 C 0.81724 0.95942 0.92932 0.0
C87 C 0.77086 0.98135 0.93078 0.0
C88 C 0.80865 0.95167 0.84265 0.0
H89 H 0.82218 0.94016 0.80811 0.0
C90 C 0.76279 0.97337 0.84419 0.0
H91 H 0.83833 0.95463 0.96234 0.0
C92 C 0.74415 0.98854 0.88793 0.0
H93 H 0.70801 1.0046 0.88848 0.0
H94 H 0.74156 0.97832 0.81134 0.0
H95 H 0.71612 0.16651 0.54496 0.0
C96 C 0.70042 0.16471 0.50867 0.0
C97 C 0.72618 0.14177 0.47198 0.0
C98 C 0.65498 0.1861 0.49916 0.0
H99 H 0.72375 0.12042 0.39706 0.0
C100 C 0.70502 0.13964 0.42516 0.0
C101 C 0.65874 0.1603 0.41484 0.0
C102 C 0.63462 0.1844 0.45213 0.0
C103 C 0.627 0.20667 0.53946 0.0
H104 H 0.59944 0.20087 0.4449 0.0
C105 C 0.61799 0.25896 0.54035 0.0
C106 C 0.58953 0.27752 0.57819 0.0
C107 C 0.6093 0.17337 0.57758 0.0
H108 H 0.61611 0.13307 0.57776 0.0
C109 C 0.58194 0.19142 0.61537 0.0
H110 H 0.63407 0.285 0.51196 0.0
C111 C 0.57168 0.24278 0.61556 0.0
H112 H 0.54884 0.25487 0.64472 0.0
H113 H 0.56794 0.16524 0.64436 0.0
H114 H 0.48601 0.7177 0.20785 0.0
C115 C 0.44815 0.69826 0.19501 0.0
C116 C 0.41384 0.72734 0.17236 0.0
C117 C 0.43376 0.6443 0.20184 0.0
H118 H 0.33812 0.72411 0.13898 0.0
C119 C 0.36461 0.70209 0.1573 0.0
C120 C 0.34984 0.64811 0.16436 0.0
C121 C 0.38456 0.61893 0.18621 0.0
C122 C 0.46878 0.61603 0.22924 0.0
H123 H 0.37314 0.57717 0.19165 0.0
C124 C 0.47359 0.62447 0.27878 0.0
C125 C 0.50582 0.59745 0.30627 0.0
C126 C 0.49758 0.58152 0.20666 0.0
H127 H 0.49434 0.57497 0.16825 0.0
C128 C 0.53108 0.55557 0.23384 0.0
H129 H 0.45026 0.65031 0.29622 0.0
C130 C 0.53498 0.56314 0.28357 0.0
H131 H 0.55969 0.54146 0.30445 0.0
H132 H 0.55337 0.5289 0.21647 0.0
H133 H 0.13701 0.52847 0.69344 0.0
C134 C 0.13785 0.49436 0.67087 0.0
C135 C 0.18613 0.4827 0.65536 0.0
C136 C 0.09105 0.46061 0.65926 0.0
H137 H 0.22492 0.42747 0.61653 0.0
C138 C 0.18761 0.43749 0.62735 0.0
C139 C 0.14124 0.40458 0.61409 0.0
C140 C 0.09327 0.41664 0.63 0.0
C141 C 0.0408 0.46635 0.68268 0.0
H142 H 0.05784 0.38914 0.62271 0.0
C143 C 0.03999 0.47747 0.73203 0.0
C144 C 0.99245 0.47539 0.75675 0.0
C145 C 0.99302 0.4551 0.65751 0.0
H146 H 0.99226 0.4466 0.61938 0.0
C147 C 0.94565 0.45359 0.68158 0.0
H148 H 0.07663 0.48633 0.75164 0.0
C149 C 0.94521 0.46297 0.731 0.0
H150 H 0.90796 0.45969 0.74903 0.0
H151 H 0.90909 0.44414 0.66199 0.0
Zn152 Zn 0.99644 0.12712 0.61738 0.0
Zn153 Zn 0.08532 1.00656 0.50794 0.0
Zn154 Zn 0.04092 0.07221 0.55663 0.0
C155 C 0.12148 0.10914 0.47272 0.0
C156 C 0.9775 0.98364 0.49005 0.0
O157 O 0.04362 0.0403 0.63196 0.0
O158 O 0.99878 0.08748 0.67729 0.0
C159 C 0.08158 0.19329 0.57596 0.0
O160 O 0.09963 0.12274 0.51126 0.0
O161 O 0.11843 0.06107 0.46235 0.0
O162 O 0.01813 0.96245 0.48844 0.0
O163 O 0.97886 0.02864 0.51052 0.0
O164 O 0.04901 0.19076 0.60965 0.0
O165 O 0.0835 0.1533 0.54866 0.0
O166 O 0.95785 0.07036 0.53164 0.0
O167 O 0.92828 0.12367 0.58339 0.0
C168 C 0.92134 0.09515 0.54629 0.0
O169 O 0.07947 0.01891 0.6042 0.0
O170 O 0.12838 0.97759 0.55752 0.0
C171 C 0.024 0.04989 0.67302 0.0
C172 C 0.11357 0.98776 0.59907 0.0
Zn173 Zn 0.48664 0.10996 0.07726 0.0
Zn174 Zn 0.58574 0.01044 0.17192 0.0
Zn175 Zn 0.53898 0.05799 0.12284 0.0
C176 C 0.6433 0.0216 0.09152 0.0
C177 C 0.49653 0.94589 0.15832 0.0
O178 O 0.50308 0.10845 0.17565 0.0
O179 O 0.44093 0.12966 0.12846 0.0
C180 C 0.58681 0.14437 0.04925 0.0
O181 O 0.61698 0.05997 0.08879 0.0
O182 O 0.63195 0.9876 0.12362 0.0
O183 O 0.5269 0.95728 0.19372 0.0
O184 O 0.49896 0.97696 0.12217 0.0
O185 O 0.54485 0.1629 0.05342 0.0
O186 O 0.59199 0.10099 0.06984 0.0
O187 O 0.48134 0.99901 0.08058 0.0
O188 O 0.45644 0.05555 0.03011 0.0
C189 C 0.45731 1.00847 0.0415 0.0
O190 O 0.54726 0.09422 0.19809 0.0
O191 O 0.6193 0.06363 0.21704 0.0
C192 C 0.46096 0.12871 0.16977 0.0
C193 C 0.58769 0.09461 0.22581 0.0
Zn194 Zn 0.58633 0.65895 0.66137 0.0
Zn195 Zn 0.44688 0.54221 0.57611 0.0
Zn196 Zn 0.50874 0.59711 0.61778 0.0
C197 C 0.51832 0.48065 0.58575 0.0
C198 C 0.46972 0.60781 0.50984 0.0
O199 O 0.46897 0.64369 0.67097 0.0
O200 O 0.5386 0.69344 0.70206 0.0
C201 C 0.60165 0.55654 0.67863 0.0
O202 O 0.52817 0.51485 0.61996 0.0
O203 O 0.48574 0.48775 0.55373 0.0
O204 O 0.42538 0.58605 0.52392 0.0
O205 O 0.50838 0.61442 0.5398 0.0
O206 O 0.62301 0.60271 0.68881 0.0
O207 O 0.55984 0.54803 0.65259 0.0
O208 O 0.55039 0.64831 0.56192 0.0
O209 O 0.61436 0.69706 0.60234 0.0
C210 C 0.59086 0.68444 0.56308 0.0
O211 O 0.43087 0.60127 0.65118 0.0
O212 O 0.39859 0.52102 0.62838 0.0
C213 C 0.4894 0.68116 0.69952 0.0
C214 C 0.39478 0.56072 0.65355 0.0
Zn215 Zn 0.09339 0.63183 0.99595 0.0
Zn216 Zn 0.97127 0.53977 0.1207 0.0
Zn217 Zn 0.02537 0.59314 0.05706 0.0
C218 C 0.06785 0.51981 0.14263 0.0
C219 C 0.93098 0.49988 0.03383 0.0
O220 O 1.00701 0.67344 0.04566 0.0
O221 O 0.06423 0.69702 0.98791 0.0
C222 C 0.15394 0.61328 0.06874 0.0
O223 O 0.07597 0.55544 0.10967 0.0
O224 O 0.0216 0.50224 0.15478 0.0
O225 O 0.91848 0.49863 0.07754 0.0
O226 O 0.97232 0.53026 0.01985 0.0
O227 O 0.15994 0.63571 0.0287 0.0
O228 O 0.10763 0.59403 0.08346 0.0
O229 O 1.00801 0.55388 0.98618 0.0
O230 O 0.07907 0.58025 0.94365 0.0
C231 C 0.03476 0.55241 0.94751 0.0
O232 O 0.97984 0.65151 0.0904 0.0
O233 O 0.95109 0.60201 0.15192 0.0
C234 C 0.02666 0.70638 1.0133 0.0
C235 C 0.95518 0.64555 0.13068 0.0
C236 C 0.21173 0.22773 0.42156 0.0
C237 C 0.21402 0.2138 0.37272 0.0
C238 C 0.17959 0.19538 0.45397 0.0
C239 C 0.14916 0.14804 0.43842 0.0
H240 H 0.23669 0.2624 0.43517 0.0
H241 H 0.18069 0.20609 0.49162 0.0
S242 S 0.13604 0.09872 0.31263 0.0
N243 N 0.17924 0.15293 0.3097 0.0
N244 N 0.11912 0.09263 0.36958 0.0
C245 C 0.14893 0.13586 0.389 0.0
C246 C 0.1813 0.16857 0.35644 0.0
C247 C 0.37547 0.94646 0.93628 0.0
C248 C 0.38743 0.89533 0.93237 0.0
C249 C 0.39651 0.98086 0.97287 0.0
C250 C 0.43163 0.96678 1.00753 0.0
H251 H 0.35009 0.96081 0.91013 0.0
H252 H 0.38566 0.01964 0.97321 0.0
S253 S 0.47716 0.83786 1.01374 0.0
N254 N 0.43656 0.83187 0.96729 0.0
N255 N 0.47826 0.89783 0.03498 0.0
C256 C 0.44429 0.91581 1.00437 0.0
C257 C 0.42207 0.88007 0.96702 0.0
C258 C 0.68664 0.45064 0.68102 0.0
C259 C 0.66909 0.4219 0.7222 0.0
C260 C 0.66545 0.49522 0.6677 0.0
C261 C 0.62585 0.51208 0.69495 0.0
H262 H 0.71699 0.43861 0.65904 0.0
H263 H 0.67946 0.51612 0.63551 0.0
S264 S 0.56437 0.44952 0.80408 0.0
N265 N 0.6085 0.41286 0.78911 0.0
N266 N 0.56889 0.49672 0.76378 0.0
C267 C 0.60782 0.48388 0.73593 0.0
C268 C 0.62941 0.43869 0.74965 0.0
C269 C 0.8711 0.70496 0.21977 0.0
C270 C 0.85251 0.74473 0.19382 0.0
C271 C 0.90728 0.67637 0.19991 0.0
C272 C 0.92643 0.6855 0.15278 0.0
H273 H 0.85552 0.69371 0.25486 0.0
H274 H 0.91833 0.6449 0.22128 0.0
S275 S 0.89781 0.79264 0.07359 0.0
N276 N 0.86189 0.7976 0.12155 0.0
N277 N 0.92906 0.74273 0.08366 0.0
C278 C 0.91132 0.72799 0.12791 0.0
C279 C 0.87445 0.7576 0.14843 0.0
C280 C 0.41829 0.22628 0.25662 0.0
C281 C 0.36543 0.20469 0.26453 0.0
C282 C 0.45155 0.19909 0.22983 0.0
C283 C 0.43303 0.14946 0.20989 0.0
H284 H 0.43353 0.26525 0.26982 0.0
H285 H 0.49084 0.21842 0.22207 0.0
S286 S 0.29936 0.07439 0.22145 0.0
N287 N 0.29739 0.1293 0.25135 0.0
N288 N 0.35977 0.07881 0.20153 0.0
C289 C 0.3813 0.12648 0.21945 0.0
C290 C 0.34756 0.15384 0.24665 0.0
C291 C 0.15335 0.96225 0.7276 0.0
C292 C 0.16508 0.91103 0.7252 0.0
C293 C 0.13899 0.98766 0.68627 0.0
C294 C 0.13383 0.9621 0.64141 0.0
H295 H 0.15492 0.98266 0.76176 0.0
H296 H 0.13144 0.0275 0.68961 0.0
S297 S 0.16231 0.8283 0.61614 0.0
N298 N 0.17348 0.83657 0.67434 0.0
N299 N 0.14431 0.88318 0.59693 0.0
C300 C 0.14712 0.91137 0.63842 0.0
C301 C 0.16292 0.88601 0.68033 0.0
C302 C 0.88593 0.40151 0.93471 0.0
C303 C 0.83137 0.39393 0.94013 0.0
C304 C 0.9184 0.43751 0.96408 0.0
C305 C 0.89703 0.46685 0.99929 0.0
H306 H 0.90355 0.37784 0.90932 0.0
H307 H 0.96036 0.44032 0.96098 0.0
S308 S 0.75619 0.46499 0.02332 0.0
N309 N 0.75723 0.42114 0.98022 0.0
N310 N 0.81801 0.48894 0.03503 0.0
C311 C 0.84243 0.46121 1.0032 0.0
C312 C 0.80963 0.42477 0.97356 0.0
C313 C 0.65495 0.7918 0.48181 0.0
C314 C 0.67424 0.76408 0.44402 0.0
C315 C 0.6252 0.76568 0.51878 0.0
C316 C 0.61224 0.71085 0.5189 0.0
H317 H 0.66507 0.83407 0.48413 0.0
H318 H 0.6139 0.7885 0.54851 0.0
S319 S 0.64764 0.61965 0.42635 0.0
N320 N 0.67465 0.67828 0.40761 0.0
N321 N 0.61723 0.62954 0.47667 0.0
C322 C 0.62767 0.68266 0.47977 0.0
C323 C 0.65881 0.70921 0.44229 0.0
C324 C 0.1985 0.47153 0.16054 0.0
C325 C 0.19618 0.45371 0.20835 0.0
C326 C 0.1568 0.49228 0.13941 0.0
C327 C 0.1118 0.49778 0.16565 0.0
H328 H 0.23291 0.46931 0.13924 0.0
H329 H 0.15971 0.50365 0.10207 0.0
S330 S 0.08653 0.4572 0.29225 0.0
N331 N 0.14486 0.44208 0.28106 0.0
N332 N 0.06728 0.48259 0.24214 0.0
C333 C 0.10881 0.47949 0.21337 0.0
C334 C 0.15085 0.45737 0.23456 0.0
C335 C 0.6832 0.25581 1.00101 0.0
C336 C 0.69774 0.23648 0.95648 0.0
C337 C 0.64914 0.22465 0.0318 0.0
C338 C 0.62823 0.17295 0.01943 0.0
H339 H 0.6967 0.2961 1.01162 0.0
H340 H 0.63795 0.24161 0.06503 0.0
S341 S 0.65127 0.10341 0.90704 0.0
N342 N 0.68815 0.16149 0.90204 0.0
N343 N 0.62177 0.1039 0.95938 0.0
C344 C 0.64182 0.15283 0.97526 0.0
C345 C 0.67716 0.18434 0.94393 0.0
C346 C 0.87085 0.86963 0.4629 0.0
C347 C 0.84056 0.88966 0.42761 0.0
C348 C 0.91432 0.90108 0.48371 0.0
C349 C 0.92838 0.95395 0.47076 0.0
H350 H 0.8617 0.82892 0.47351 0.0
H351 H 0.93753 0.88371 0.50984 0.0
S352 S 0.86091 0.02548 0.38111 0.0
N353 N 0.82678 0.9657 0.38115 0.0
N354 N 0.9085 0.02516 0.42093 0.0
C355 C 0.89768 0.97492 0.43649 0.0
C356 C 0.85379 0.9426 0.41465 0.0
C357 C 0.37781 0.72127 0.77406 0.0
C358 C 0.39916 0.77209 0.79051 0.0
C359 C 0.40627 0.69208 0.74395 0.0
C360 C 0.45727 0.71255 0.72908 0.0
H361 H 0.339 0.70359 0.78512 0.0
H362 H 0.38862 0.65292 0.73317 0.0
S363 S 0.52829 0.8464 0.75704 0.0
N364 N 0.4725 0.84308 0.78588 0.0
N365 N 0.52593 0.78904 0.7302 0.0
C366 C 0.47822 0.76403 0.74418 0.0
C367 C 0.44931 0.7935 0.77462 0.0
C368 C 0.99788 0.93122 0.75352 0.0
C369 C 1.00405 0.95437 0.79949 0.0
C370 C 1.00967 0.96147 0.71189 0.0
C371 C 0.0271 0.01581 0.71521 0.0
H372 H 0.97927 0.89079 0.7496 0.0
H373 H 1.00062 0.94322 0.67711 0.0
S374 S 0.05793 0.09275 0.8272 0.0
N375 N 0.03554 0.03281 0.8458 0.0
N376 N 0.05691 0.08972 0.76795 0.0
C377 C 0.03814 0.03805 0.76096 0.0
C378 C 0.02691 1.00724 0.80306 0.0
C379 C 0.66816 0.16501 0.32531 0.0
C380 C 0.6354 0.15477 0.36534 0.0
C381 C 0.64994 0.15117 0.27875 0.0
C382 C 0.5981 0.12677 0.27001 0.0
H383 H 0.70905 0.18138 0.33023 0.0
H384 H 0.67783 0.15603 0.24967 0.0
S385 S 0.49444 0.097 0.36107 0.0
N386 N 0.54675 0.12305 0.39231 0.0
N387 N 0.51281 0.09758 0.30438 0.0
C388 C 0.56359 0.1205 0.30888 0.0
C389 C 0.58219 0.13433 0.35665 0.0
C390 C 0.51413 0.64762 0.38393 0.0
C391 C 0.50222 0.59961 0.35893 0.0
C392 C 0.50395 0.65075 0.43327 0.0
C393 C 0.48036 0.60624 0.45825 0.0
H394 H 0.53078 0.68287 0.36507 0.0
H395 H 0.51358 0.68809 0.45166 0.0
S396 S 0.44194 0.47183 0.40893 0.0
N397 N 0.46643 0.50706 0.36276 0.0
N398 N 0.44655 0.51286 0.45489 0.0
C399 C 0.4688 0.55816 0.43358 0.0
C400 C 0.47996 0.55483 0.38399 0.0
C401 C 0.03101 0.46711 0.83842 0.0
C402 C 0.9935 0.48616 0.80933 0.0
C403 C 0.04136 0.48561 0.88529 0.0
C404 C 0.01321 0.52221 0.90535 0.0
H405 H 0.05474 0.43991 0.82398 0.0
H406 H 0.07343 0.4733 0.90509 0.0
S407 S 0.90588 0.57884 0.84798 0.0
N408 N 0.92482 0.54052 0.80622 0.0
N409 N 0.94273 0.57277 0.89562 0.0
C410 C 0.97216 0.53766 0.87883 0.0
C411 C 0.96246 0.52003 0.83048 0.0
C412 C 0.73601 0.04411 0.98581 0.0
C413 C 0.74733 0.99353 0.97678 0.0
C414 C 0.70483 0.05383 0.02481 0.0
C415 C 0.68282 0.01309 0.05518 0.0
H416 H 0.75017 0.07598 0.96175 0.0
H417 H 0.69702 0.09317 0.03066 0.0
S418 S 0.70601 0.87463 0.04928 0.0
N419 N 0.73877 0.90348 1.00352 0.0
N420 N 0.67931 0.92083 0.07601 0.0
C421 C 0.6969 0.96296 0.04812 0.0
C422 C 0.72923 0.9534 1.00896 0.0
C423 C 0.77683 0.08869 0.5246 0.0
C424 C 0.77512 0.12043 0.48375 0.0
C425 C 0.82428 0.0763 0.54222 0.0
C426 C 0.87184 0.09445 0.51934 0.0
H427 H 0.74146 0.07549 0.54455 0.0
H428 H 0.82414 0.05484 0.57557 0.0
S429 S 0.88905 0.17652 0.41013 0.0
N430 N 0.82538 0.16762 0.41971 0.0
N431 N 0.91444 0.14412 0.45298 0.0
C432 C 0.87052 0.12363 0.47705 0.0
C433 C 0.82217 0.13646 0.45908 0.0
C434 C 0.29514 0.60915 0.09698 0.0
C435 C 0.29887 0.62327 0.1456 0.0
C436 C 0.24693 0.60236 0.07317 0.0
C437 C 0.20106 0.60941 0.09733 0.0
H438 H 0.33019 0.60746 0.07641 0.0
H439 H 0.246 0.59439 0.03492 0.0
S440 S 0.18993 0.6393 0.22662 0.0
N441 N 0.25297 0.63863 0.2186 0.0
N442 N 0.16161 0.62569 0.17371 0.0
C443 C 0.20371 0.61908 0.14697 0.0
C444 C 0.253 0.62612 0.1712 0.0
C445 C 0.27103 0.4932 0.69952 0.0
C446 C 0.23597 0.51536 0.67036 0.0
C447 C 0.32384 0.51585 0.70267 0.0
C448 C 0.34346 0.5606 0.67577 0.0
H449 H 0.25859 0.45566 0.71648 0.0
H450 H 0.35068 0.49405 0.72067 0.0
S451 S 0.26513 0.63945 0.60275 0.0
N452 N 0.22214 0.58951 0.62148 0.0
N453 N 0.32199 0.63145 0.62646 0.0
C454 C 0.30737 0.58705 0.65218 0.0
C455 C 0.25338 0.56418 0.64923 0.0
C456 C 0.01632 0.83981 0.96387 0.0
C457 C 0.96719 0.83141 0.94071 0.0
C458 C 0.03336 0.80047 0.99171 0.0
C459 C 1.00187 0.75128 0.99775 0.0
H460 H 0.04242 0.8766 0.95931 0.0
H461 H 0.07262 0.80762 1.00664 0.0
S462 S 0.87062 0.70881 0.94389 0.0
N463 N 0.88721 0.76999 0.92584 0.0
N464 N 0.91981 0.69596 0.97746 0.0
C465 C 0.95231 0.7427 0.97561 0.0
C466 C 0.93476 0.78283 0.94747 0.0
C467 C 0.47949 0.80071 0.14293 0.0
C468 C 0.43047 0.7838 0.16369 0.0
C469 C 0.49901 0.85398 0.13868 0.0
C470 C 0.46987 0.89198 0.15437 0.0
H471 H 0.50353 0.77253 0.13105 0.0
H472 H 0.538 0.8656 0.1245 0.0
S473 S 0.33923 0.86874 0.21014 0.0
N474 N 0.35272 0.80943 0.1993 0.0
N475 N 0.38986 0.91022 0.19056 0.0
C476 C 0.42023 0.87605 0.17367 0.0
C477 C 0.40023 0.82163 0.17827 0.0
C478 C 0.1662 0.3154 0.61486 0.0
C479 C 0.14199 0.35294 0.59078 0.0
C480 C 0.1524 0.26182 0.60422 0.0
C481 C 0.11463 0.24432 0.56877 0.0
H482 H 0.19145 0.32682 0.64557 0.0
H483 H 0.1669 0.23374 0.62747 0.0
S484 S 0.04868 0.3276 0.48871 0.0
N485 N 0.08523 0.36963 0.52474 0.0
N486 N 0.05975 0.26881 0.50463 0.0
C487 C 0.09548 0.28181 0.54039 0.0
C488 C 0.10901 0.33628 0.55149 0.0
C489 C 0.57501 0.35951 0.62253 0.0
C490 C 0.57661 0.33204 0.57868 0.0
C491 C 0.55786 0.40836 0.62465 0.0
C492 C 0.54266 0.43243 0.583 0.0
H493 H 0.58577 0.34264 0.65591 0.0
H494 H 0.55421 0.42613 0.65937 0.0
S495 S 0.54064 0.37886 0.45882 0.0
N496 N 0.56057 0.33341 0.49246 0.0
N497 N 0.53238 0.42649 0.49613 0.0
C498 C 0.54588 0.40655 0.5387 0.0
C499 C 0.56204 0.35629 0.53659 0.0
loop_
_geom_bond_atom_site_label_1
_geom_bond_atom_site_label_2
_geom_bond_distance
_geom_bond_site_symmetry_2
_ccdc_geom_bond_type
H0 C1 0.949 . S
C1 H0 0.949 . S
C1 C2 1.395 . S
C1 C3 1.391 . S
C2 C1 1.395 . S
C2 C5 1.390 . S
C3 C1 1.391 . S
C3 C7 1.387 . S
C3 C8 1.491 . S
H4 C5 0.950 . S
C5 C2 1.390 . S
C5 H4 0.950 . S
C5 C6 1.378 . S
C6 C5 1.378 . S
C6 C7 1.409 . S
C7 C3 1.387 . S
C7 C6 1.409 . S
C7 H9 0.951 . S
C8 C3 1.491 . S
C8 C10 1.382 . S
C8 C12 1.404 . S
H9 C7 0.951 . S
C10 C8 1.382 . S
C10 C11 1.390 . S
C10 H15 0.949 . S
C11 C10 1.390 . S
C11 C16 1.399 . S
C12 C8 1.404 . S
C12 H13 0.950 . S
C12 C14 1.375 . S
H13 C12 0.950 . S
C14 C12 1.375 . S
C14 C16 1.382 . S
C14 H18 0.950 . S
H15 C10 0.949 . S
C16 C11 1.399 . S
C16 C14 1.382 . S
C16 H17 0.952 . S
H17 C16 0.952 . S
H18 C14 0.950 . S
H19 C20 0.949 . S
C20 H19 0.949 . S
C20 C21 1.395 . S
C20 C22 1.391 . S
C21 C20 1.395 . S
C21 C24 1.390 . S
C22 C20 1.391 . S
C22 C26 1.387 . S
C22 C27 1.491 . S
H23 C24 0.950 . S
C24 C21 1.390 . S
C24 H23 0.950 . S
C24 C25 1.378 . S
C25 C24 1.378 . S
C25 C26 1.409 . S
C26 C22 1.387 . S
C26 C25 1.409 . S
C26 H28 0.951 . S
C27 C22 1.491 . S
C27 C29 1.382 . S
C27 C31 1.404 . S
H28 C26 0.951 . S
C29 C27 1.382 . S
C29 C30 1.390 . S
C29 H34 0.949 . S
C30 C29 1.390 . S
C30 C35 1.399 . S
C31 C27 1.404 . S
C31 H32 0.950 . S
C31 C33 1.375 . S
H32 C31 0.950 . S
C33 C31 1.375 . S
C33 C35 1.382 . S
C33 H37 0.950 . S
H34 C29 0.949 . S
C35 C30 1.399 . S
C35 C33 1.382 . S
C35 H36 0.952 . S
H36 C35 0.952 . S
H37 C33 0.950 . S
H38 C39 0.949 . S
C39 H38 0.949 . S
C39 C40 1.395 . S
C39 C41 1.391 . S
C40 C39 1.395 . S
C40 C43 1.390 . S
C41 C39 1.391 . S
C41 C45 1.387 . S
C41 C46 1.491 . S
H42 C43 0.950 . S
C43 C40 1.390 . S
C43 H42 0.950 . S
C43 C44 1.378 . S
C44 C43 1.378 . S
C44 C45 1.409 . S
C45 C41 1.387 . S
C45 C44 1.409 . S
C45 H47 0.951 . S
C46 C41 1.491 . S
C46 C48 1.382 . S
C46 C50 1.404 . S
H47 C45 0.951 . S
C48 C46 1.382 . S
C48 C49 1.390 . S
C48 H53 0.949 . S
C49 C48 1.390 . S
C49 C54 1.399 . S
C50 C46 1.404 . S
C50 H51 0.950 . S
C50 C52 1.375 . S
H51 C50 0.950 . S
C52 C50 1.375 . S
C52 C54 1.382 . S
C52 H56 0.950 . S
H53 C48 0.949 . S
C54 C49 1.399 . S
C54 C52 1.382 . S
C54 H55 0.952 . S
H55 C54 0.952 . S
H56 C52 0.950 . S
H57 C58 0.949 . S
C58 H57 0.949 . S
C58 C59 1.395 . S
C58 C60 1.391 . S
C59 C58 1.395 . S
C59 C62 1.390 . S
C60 C58 1.391 . S
C60 C64 1.387 . S
C60 C65 1.491 . S
H61 C62 0.950 . S
C62 C59 1.390 . S
C62 H61 0.950 . S
C62 C63 1.378 . S
C63 C62 1.378 . S
C63 C64 1.409 . S
C64 C60 1.387 . S
C64 C63 1.409 . S
C64 H66 0.951 . S
C65 C60 1.491 . S
C65 C67 1.382 . S
C65 C69 1.404 . S
H66 C64 0.951 . S
C67 C65 1.382 . S
C67 C68 1.390 . S
C67 H72 0.949 . S
C68 C67 1.390 . S
C68 C73 1.399 . S
C69 C65 1.404 . S
C69 H70 0.950 . S
C69 C71 1.375 . S
H70 C69 0.950 . S
C71 C69 1.375 . S
C71 C73 1.382 . S
C71 H75 0.950 . S
H72 C67 0.949 . S
C73 C68 1.399 . S
C73 C71 1.382 . S
C73 H74 0.952 . S
H74 C73 0.952 . S
H75 C71 0.950 . S
H76 C77 0.949 . S
C77 H76 0.949 . S
C77 C78 1.395 . S
C77 C79 1.391 . S
C78 C77 1.395 . S
C78 C81 1.390 1_655 S
C79 C77 1.391 . S
C79 C83 1.387 1_565 S
C79 C84 1.491 1_565 S
H80 C81 0.950 . S
C81 C78 1.390 1_455 S
C81 H80 0.950 . S
C81 C82 1.378 1_455 S
C82 C81 1.378 1_655 S
C82 C83 1.409 1_565 S
C83 C79 1.387 1_545 S
C83 C82 1.409 1_545 S
C83 H85 0.951 . S
C84 C79 1.491 1_545 S
C84 C86 1.382 1_556 S
C84 C88 1.404 . S
H85 C83 0.951 . S
C86 C84 1.382 1_554 S
C86 C87 1.390 . S
C86 H91 0.949 . S
C87 C86 1.390 . S
C87 C92 1.399 1_554 S
C88 C84 1.404 . S
C88 H89 0.950 . S
C88 C90 1.375 . S
H89 C88 0.950 . S
C90 C88 1.375 . S
C90 C92 1.382 . S
C90 H94 0.950 . S
H91 C86 0.949 . S
C92 C87 1.399 1_556 S
C92 C90 1.382 . S
C92 H93 0.952 . S
H93 C92 0.952 . S
H94 C90 0.950 . S
H95 C96 0.949 . S
C96 H95 0.949 . S
C96 C97 1.395 . S
C96 C98 1.391 . S
C97 C96 1.395 . S
C97 C100 1.390 . S
C98 C96 1.391 . S
C98 C102 1.387 . S
C98 C103 1.491 . S
H99 C100 0.950 . S
C100 C97 1.390 . S
C100 H99 0.950 . S
C100 C101 1.378 . S
C101 C100 1.378 . S
C101 C102 1.409 . S
C102 C98 1.387 . S
C102 C101 1.409 . S
C102 H104 0.951 . S
C103 C98 1.491 . S
C103 C105 1.382 . S
C103 C107 1.404 . S
H104 C102 0.951 . S
C105 C103 1.382 . S
C105 C106 1.390 . S
C105 H110 0.949 . S
C106 C105 1.390 . S
C106 C111 1.399 . S
C107 C103 1.404 . S
C107 H108 0.950 . S
C107 C109 1.375 . S
H108 C107 0.950 . S
C109 C107 1.375 . S
C109 C111 1.382 . S
C109 H113 0.950 . S
H110 C105 0.949 . S
C111 C106 1.399 . S
C111 C109 1.382 . S
C111 H112 0.952 . S
H112 C111 0.952 . S
H113 C109 0.950 . S
H114 C115 0.949 . S
C115 H114 0.949 . S
C115 C116 1.395 . S
C115 C117 1.391 . S
C116 C115 1.395 . S
C116 C119 1.390 . S
C117 C115 1.391 . S
C117 C121 1.387 . S
C117 C122 1.491 . S
H118 C119 0.950 . S
C119 C116 1.390 . S
C119 H118 0.950 . S
C119 C120 1.378 . S
C120 C119 1.378 . S
C120 C121 1.409 . S
C121 C117 1.387 . S
C121 C120 1.409 . S
C121 H123 0.951 . S
C122 C117 1.491 . S
C122 C124 1.382 . S
C122 C126 1.404 . S
H123 C121 0.951 . S
C124 C122 1.382 . S
C124 C125 1.390 . S
C124 H129 0.949 . S
C125 C124 1.390 . S
C125 C130 1.399 . S
C126 C122 1.404 . S
C126 H127 0.950 . S
C126 C128 1.375 . S
H127 C126 0.950 . S
C128 C126 1.375 . S
C128 C130 1.382 . S
C128 H132 0.950 . S
H129 C124 0.949 . S
C130 C125 1.399 . S
C130 C128 1.382 . S
C130 H131 0.952 . S
H131 C130 0.952 . S
H132 C128 0.950 . S
H133 C134 0.949 . S
C134 H133 0.949 . S
C134 C135 1.395 . S
C134 C136 1.391 . S
C135 C134 1.395 . S
C135 C138 1.390 . S
C136 C134 1.391 . S
C136 C140 1.387 . S
C136 C141 1.491 . S
H137 C138 0.950 . S
C138 C135 1.390 . S
C138 H137 0.950 . S
C138 C139 1.378 . S
C139 C138 1.378 . S
C139 C140 1.409 . S
C140 C136 1.387 . S
C140 C139 1.409 . S
C140 H142 0.951 . S
C141 C136 1.491 . S
C141 C143 1.382 . S
C141 C145 1.404 . S
H142 C140 0.951 . S
C143 C141 1.382 . S
C143 C144 1.390 . S
C143 H148 0.949 . S
C144 C143 1.390 . S
C144 C149 1.399 . S
C145 C141 1.404 . S
C145 H146 0.950 . S
C145 C147 1.375 . S
H146 C145 0.950 . S
C147 C145 1.375 . S
C147 C149 1.382 . S
C147 H151 0.950 . S
H148 C143 0.949 . S
C149 C144 1.399 . S
C149 C147 1.382 . S
C149 H150 0.952 . S
H150 C149 0.952 . S
H151 C147 0.950 . S
Zn152 O158 1.920 . S
Zn152 O164 1.898 . S
Zn152 O167 1.905 . S
Zn153 O161 1.905 1_565 S
Zn153 O162 1.898 . S
Zn153 O170 1.920 . S
Zn154 O157 2.080 1_455 S
Zn154 O160 2.114 . S
Zn154 O163 2.120 1_445 S
Zn154 O165 2.120 . S
Zn154 O166 2.114 1_455 S
Zn154 O169 2.080 . S
C155 O160 1.166 . S
C155 O161 1.182 . S
C156 O162 1.167 1_655 S
C156 O163 1.299 . S
O157 Zn154 2.080 1_655 S
O157 C171 1.305 . S
O158 Zn152 1.920 . S
O158 C171 1.234 . S
C159 O164 1.167 1_455 S
C159 O165 1.299 . S
O160 Zn154 2.114 . S
O160 C155 1.166 . S
O161 Zn153 1.905 1_545 S
O161 C155 1.182 . S
O162 Zn153 1.898 . S
O162 C156 1.167 1_455 S
O163 Zn154 2.120 1_665 S
O163 C156 1.299 . S
O164 Zn152 1.898 . S
O164 C159 1.167 1_655 S
O165 Zn154 2.120 . S
O165 C159 1.299 . S
O166 Zn154 2.114 1_655 S
O166 C168 1.166 . S
O167 Zn152 1.905 . S
O167 C168 1.182 . S
C168 O166 1.166 . S
C168 O167 1.182 . S
O169 Zn154 2.080 . S
O169 C172 1.305 1_545 S
O170 Zn153 1.920 . S
O170 C172 1.234 . S
C171 O157 1.305 . S
C171 O158 1.234 . S
C172 O169 1.305 1_565 S
C172 O170 1.234 . S
Zn173 O179 1.920 . S
Zn173 O185 1.898 . S
Zn173 O188 1.905 1_554 S
Zn174 O182 1.905 . S
Zn174 O183 1.898 . S
Zn174 O191 1.920 1_565 S
Zn175 O178 2.080 . S
Zn175 O181 2.114 . S
Zn175 O184 2.120 1_545 S
Zn175 O186 2.120 . S
Zn175 O187 2.114 . S
Zn175 O190 2.080 . S
C176 O181 1.166 . S
C176 O182 1.182 1_545 S
C177 O183 1.167 . S
C177 O184 1.299 . S
O178 Zn175 2.080 . S
O178 C192 1.305 . S
O179 Zn173 1.920 . S
O179 C192 1.234 . S
C180 O185 1.167 . S
C180 O186 1.299 . S
O181 Zn175 2.114 . S
O181 C176 1.166 . S
O182 Zn174 1.905 . S
O182 C176 1.182 1_565 S
O183 Zn174 1.898 . S
O183 C177 1.167 . S
O184 Zn175 2.120 1_565 S
O184 C177 1.299 . S
O185 Zn173 1.898 . S
O185 C180 1.167 . S
O186 Zn175 2.120 . S
O186 C180 1.299 . S
O187 Zn175 2.114 . S
O187 C189 1.164 . S
O188 Zn173 1.905 1_556 S
O188 C189 1.200 1_556 S
C189 O187 1.164 . S
C189 O188 1.200 1_554 S
O190 Zn175 2.080 . S
O190 C193 1.305 . S
O191 Zn174 1.920 1_545 S
O191 C193 1.234 . S
C192 O178 1.305 . S
C192 O179 1.234 . S
C193 O190 1.305 . S
C193 O191 1.234 . S
Zn194 O200 1.920 . S
Zn194 O206 1.898 . S
Zn194 O209 1.905 . S
Zn195 O203 1.905 . S
Zn195 O204 1.898 . S
Zn195 O212 1.920 . S
Zn196 O199 2.080 . S
Zn196 O202 2.114 . S
Zn196 O205 2.120 . S
Zn196 O207 2.120 . S
Zn196 O208 2.114 . S
Zn196 O211 2.080 . S
C197 O202 1.166 . S
C197 O203 1.182 . S
C198 O204 1.167 . S
C198 O205 1.299 . S
O199 Zn196 2.080 . S
O199 C213 1.305 . S
O200 Zn194 1.920 . S
O200 C213 1.234 . S
C201 O206 1.167 . S
C201 O207 1.299 . S
O202 Zn196 2.114 . S
O202 C197 1.166 . S
O203 Zn195 1.905 . S
O203 C197 1.182 . S
O204 Zn195 1.898 . S
O204 C198 1.167 . S
O205 Zn196 2.120 . S
O205 C198 1.299 . S
O206 Zn194 1.898 . S
O206 C201 1.167 . S
O207 Zn196 2.120 . S
O207 C201 1.299 . S
O208 Zn196 2.114 . S
O208 C210 1.166 . S
O209 Zn194 1.905 . S
O209 C210 1.182 . S
C210 O208 1.166 . S
C210 O209 1.182 . S
O211 Zn196 2.080 . S
O211 C214 1.305 . S
O212 Zn195 1.920 . S
O212 C214 1.234 . S
C213 O199 1.305 . S
C213 O200 1.234 . S
C214 O211 1.305 . S
C214 O212 1.234 . S
Zn215 O221 1.920 . S
Zn215 O227 1.898 . S
Zn215 O230 1.905 . S
Zn216 O224 1.905 1_655 S
Zn216 O225 1.898 . S
Zn216 O233 1.920 . S
Zn217 O220 2.080 1_554 S
Zn217 O223 2.114 . S
Zn217 O226 2.120 1_455 S
Zn217 O228 2.120 . S
Zn217 O229 2.114 1_554 S
Zn217 O232 2.080 . S
C218 O223 1.166 . S
C218 O224 1.182 . S
C219 O225 1.168 1_556 S
C219 O226 1.299 1_556 S
O220 Zn217 2.080 1_556 S
O220 C234 1.305 . S
O221 Zn215 1.920 . S
O221 C234 1.234 . S
C222 O227 1.167 1_554 S
C222 O228 1.299 . S
O223 Zn217 2.114 . S
O223 C218 1.166 . S
O224 Zn216 1.905 1_455 S
O224 C218 1.182 . S
O225 Zn216 1.898 . S
O225 C219 1.168 1_554 S
O226 Zn217 2.120 1_655 S
O226 C219 1.299 1_554 S
O227 Zn215 1.898 . S
O227 C222 1.167 1_556 S
O228 Zn217 2.120 . S
O228 C222 1.299 . S
O229 Zn217 2.114 1_556 S
O229 C231 1.166 . S
O230 Zn215 1.905 . S
O230 C231 1.182 . S
C231 O229 1.166 . S
C231 O230 1.182 . S
O232 Zn217 2.080 . S
O232 C235 1.305 1_455 S
O233 Zn216 1.920 . S
O233 C235 1.234 . S
C234 O220 1.305 . S
C234 O221 1.234 . S
C235 O232 1.305 1_655 S
C235 O233 1.234 . S
C236 C237 1.369 . S
C236 C238 1.419 . S
C236 H240 0.930 . S
C237 C236 1.369 . S
C237 C246 1.429 . S
C238 C236 1.419 . S
C238 C239 1.363 . S
C238 H241 0.929 . S
C239 C238 1.363 . S
C239 C245 1.428 . S
H240 C236 0.930 . S
H241 C238 0.929 . S
S242 N243 1.613 . S
S242 N244 1.610 . S
N243 S242 1.613 . S
N243 C246 1.350 . S
N244 S242 1.610 . S
N244 C245 1.351 . S
C245 C239 1.428 . S
C245 N244 1.351 . S
C245 C246 1.434 . S
C246 C237 1.429 . S
C246 N243 1.350 . S
C246 C245 1.434 . S
C247 C248 1.369 . S
C247 C249 1.419 . S
C247 H251 0.930 . S
C248 C247 1.369 . S
C248 C257 1.429 . S
C249 C247 1.419 . S
C249 C250 1.363 . S
C249 H252 0.929 1_565 S
C250 C249 1.363 . S
C250 C256 1.428 . S
H251 C247 0.930 . S
H252 C249 0.929 1_545 S
S253 N254 1.613 . S
S253 N255 1.610 . S
N254 S253 1.613 . S
N254 C257 1.350 . S
N255 S253 1.610 . S
N255 C256 1.351 . S
C256 C250 1.428 . S
C256 N255 1.351 . S
C256 C257 1.434 . S
C257 C248 1.429 . S
C257 N254 1.350 . S
C257 C256 1.434 . S
C258 C259 1.369 . S
C258 C260 1.419 . S
C258 H262 0.930 . S
C259 C258 1.369 . S
C259 C268 1.429 . S
C260 C258 1.419 . S
C260 C261 1.363 . S
C260 H263 0.929 . S
C261 C260 1.363 . S
C261 C267 1.428 . S
H262 C258 0.930 . S
H263 C260 0.929 . S
S264 N265 1.613 . S
S264 N266 1.610 . S
N265 S264 1.613 . S
N265 C268 1.350 . S
N266 S264 1.610 . S
N266 C267 1.351 . S
C267 C261 1.428 . S
C267 N266 1.351 . S
C267 C268 1.434 . S
C268 C259 1.429 . S
C268 N265 1.350 . S
C268 C267 1.434 . S
C269 C270 1.369 . S
C269 C271 1.419 . S
C269 H273 0.930 . S
C270 C269 1.369 . S
C270 C279 1.429 . S
C271 C269 1.419 . S
C271 C272 1.363 . S
C271 H274 0.929 . S
C272 C271 1.363 . S
C272 C278 1.428 . S
H273 C269 0.930 . S
H274 C271 0.929 . S
S275 N276 1.613 . S
S275 N277 1.610 . S
N276 S275 1.613 . S
N276 C279 1.350 1_455 S
N277 S275 1.610 . S
N277 C278 1.351 1_455 S
C278 C272 1.428 . S
C278 N277 1.351 1_655 S
C278 C279 1.434 . S
C279 C270 1.429 . S
C279 N276 1.350 1_655 S
C279 C278 1.434 . S
C280 C281 1.369 . S
C280 C282 1.419 . S
C280 H284 0.930 . S
C281 C280 1.369 . S
C281 C290 1.429 . S
C282 C280 1.419 . S
C282 C283 1.363 . S
C282 H285 0.929 . S
C283 C282 1.363 . S
C283 C289 1.428 . S
H284 C280 0.930 . S
H285 C282 0.929 . S
S286 N287 1.613 . S
S286 N288 1.610 . S
N287 S286 1.613 . S
N287 C290 1.350 . S
N288 S286 1.610 . S
N288 C289 1.351 . S
C289 C283 1.428 . S
C289 N288 1.351 . S
C289 C290 1.434 . S
C290 C281 1.429 . S
C290 N287 1.350 . S
C290 C289 1.434 . S
C291 C292 1.369 1_545 S
C291 C293 1.419 . S
C291 H295 0.930 . S
C292 C291 1.369 1_565 S
C292 C301 1.429 . S
C293 C291 1.419 . S
C293 C294 1.363 1_545 S
C293 H296 0.929 . S
C294 C293 1.363 1_565 S
C294 C300 1.428 . S
H295 C291 0.930 . S
H296 C293 0.929 . S
S297 N298 1.613 . S
S297 N299 1.610 . S
N298 S297 1.613 . S
N298 C301 1.350 . S
N299 S297 1.610 . S
N299 C300 1.351 . S
C300 C294 1.428 . S
C300 N299 1.351 . S
C300 C301 1.434 . S
C301 C292 1.429 . S
C301 N298 1.350 . S
C301 C300 1.434 . S
C302 C303 1.369 . S
C302 C304 1.419 . S
C302 H306 0.930 . S
C303 C302 1.369 . S
C303 C312 1.429 . S
C304 C302 1.419 . S
C304 C305 1.363 . S
C304 H307 0.929 . S
C305 C304 1.363 . S
C305 C311 1.428 1_556 S
H306 C302 0.930 . S
H307 C304 0.929 . S
S308 N309 1.613 . S
S308 N310 1.610 . S
N309 S308 1.613 . S
N309 C312 1.350 1_554 S
N310 S308 1.610 . S
N310 C311 1.351 . S
C311 C305 1.428 1_554 S
C311 N310 1.351 . S
C311 C312 1.434 1_554 S
C312 C303 1.429 . S
C312 N309 1.350 1_556 S
C312 C311 1.434 1_556 S
C313 C314 1.369 . S
C313 C315 1.419 . S
C313 H317 0.930 . S
C314 C313 1.369 . S
C314 C323 1.429 . S
C315 C313 1.419 . S
C315 C316 1.363 . S
C315 H318 0.929 . S
C316 C315 1.363 . S
C316 C322 1.428 . S
H317 C313 0.930 . S
H318 C315 0.929 . S
S319 N320 1.613 . S
S319 N321 1.610 . S
N320 S319 1.613 . S
N320 C323 1.350 . S
N321 S319 1.610 . S
N321 C322 1.351 . S
C322 C316 1.428 . S
C322 N321 1.351 . S
C322 C323 1.434 . S
C323 C314 1.429 . S
C323 N320 1.350 . S
C323 C322 1.434 . S
C324 C325 1.369 . S
C324 C326 1.419 . S
C324 H328 0.930 . S
C325 C324 1.369 . S
C325 C334 1.429 . S
C326 C324 1.419 . S
C326 C327 1.363 . S
C326 H329 0.929 . S
C327 C326 1.363 . S
C327 C333 1.428 . S
H328 C324 0.930 . S
H329 C326 0.929 . S
S330 N331 1.613 . S
S330 N332 1.610 . S
N331 S330 1.613 . S
N331 C334 1.350 . S
N332 S330 1.610 . S
N332 C333 1.351 . S
C333 C327 1.428 . S
C333 N332 1.351 . S
C333 C334 1.434 . S
C334 C325 1.429 . S
C334 N331 1.350 . S
C334 C333 1.434 . S
C335 C336 1.369 1_554 S
C335 C337 1.419 . S
C335 H339 0.930 . S
C336 C335 1.369 1_556 S
C336 C345 1.429 . S
C337 C335 1.419 . S
C337 C338 1.363 . S
C337 H340 0.929 . S
C338 C337 1.363 . S
C338 C344 1.428 1_554 S
H339 C335 0.930 . S
H340 C337 0.929 . S
S341 N342 1.613 . S
S341 N343 1.610 . S
N342 S341 1.613 . S
N342 C345 1.350 . S
N343 S341 1.610 . S
N343 C344 1.351 . S
C344 C338 1.428 1_556 S
C344 N343 1.351 . S
C344 C345 1.434 . S
C345 C336 1.429 . S
C345 N342 1.350 . S
C345 C344 1.434 . S
C346 C347 1.369 . S
C346 C348 1.419 . S
C346 H350 0.930 . S
C347 C346 1.369 . S
C347 C356 1.429 . S
C348 C346 1.419 . S
C348 C349 1.363 . S
C348 H351 0.929 . S
C349 C348 1.363 . S
C349 C355 1.428 . S
H350 C346 0.930 . S
H351 C348 0.929 . S
S352 N353 1.613 . S
S352 N354 1.610 . S
N353 S352 1.613 . S
N353 C356 1.350 . S
N354 S352 1.610 . S
N354 C355 1.351 . S
C355 C349 1.428 . S
C355 N354 1.351 . S
C355 C356 1.434 . S
C356 C347 1.429 . S
C356 N353 1.350 . S
C356 C355 1.434 . S
C357 C358 1.369 . S
C357 C359 1.419 . S
C357 H361 0.930 . S
C358 C357 1.369 . S
C358 C367 1.429 . S
C359 C357 1.419 . S
C359 C360 1.363 . S
C359 H362 0.929 . S
C360 C359 1.363 . S
C360 C366 1.428 . S
H361 C357 0.930 . S
H362 C359 0.929 . S
S363 N364 1.613 . S
S363 N365 1.610 . S
N364 S363 1.613 . S
N364 C367 1.350 . S
N365 S363 1.610 . S
N365 C366 1.351 . S
C366 C360 1.428 . S
C366 N365 1.351 . S
C366 C367 1.434 . S
C367 C358 1.429 . S
C367 N364 1.350 . S
C367 C366 1.434 . S
C368 C369 1.369 1_665 S
C368 C370 1.419 . S
C368 H372 0.930 . S
C369 C368 1.369 1_445 S
C369 C378 1.429 . S
C370 C368 1.419 . S
C370 C371 1.363 1_565 S
C370 H373 0.929 . S
C371 C370 1.363 1_545 S
C371 C377 1.428 1_655 S
H372 C368 0.930 . S
H373 C370 0.929 . S
S374 N375 1.613 . S
S374 N376 1.610 . S
N375 S374 1.613 . S
N375 C378 1.350 . S
N376 S374 1.610 . S
N376 C377 1.351 . S
C377 C371 1.428 1_455 S
C377 N376 1.351 . S
C377 C378 1.434 . S
C378 C369 1.429 . S
C378 N375 1.350 . S
C378 C377 1.434 . S
C379 C380 1.369 . S
C379 C381 1.419 . S
C379 H383 0.930 . S
C380 C379 1.369 . S
C380 C389 1.429 . S
C381 C379 1.419 . S
C381 C382 1.363 . S
C381 H384 0.929 . S
C382 C381 1.363 . S
C382 C388 1.428 . S
H383 C379 0.930 . S
H384 C381 0.929 . S
S385 N386 1.613 . S
S385 N387 1.610 . S
N386 S385 1.613 . S
N386 C389 1.350 1_565 S
N387 S385 1.610 . S
N387 C388 1.351 1_565 S
C388 C382 1.428 . S
C388 N387 1.351 1_545 S
C388 C389 1.434 . S
C389 C380 1.429 . S
C389 N386 1.350 1_545 S
C389 C388 1.434 . S
C390 C391 1.369 . S
C390 C392 1.419 . S
C390 H394 0.930 . S
C391 C390 1.369 . S
C391 C400 1.429 . S
C392 C390 1.419 . S
C392 C393 1.363 . S
C392 H395 0.929 . S
C393 C392 1.363 . S
C393 C399 1.428 . S
H394 C390 0.930 . S
H395 C392 0.929 . S
S396 N397 1.613 . S
S396 N398 1.610 . S
N397 S396 1.613 . S
N397 C400 1.350 . S
N398 S396 1.610 . S
N398 C399 1.351 . S
C399 C393 1.428 . S
C399 N398 1.351 . S
C399 C400 1.434 . S
C400 C391 1.429 . S
C400 N397 1.350 . S
C400 C399 1.434 . S
C401 C402 1.369 . S
C401 C403 1.419 . S
C401 H405 0.930 . S
C402 C401 1.369 . S
C402 C411 1.429 . S
C403 C401 1.419 . S
C403 C404 1.363 . S
C403 H406 0.929 . S
C404 C403 1.363 . S
C404 C410 1.428 . S
H405 C401 0.930 . S
H406 C403 0.929 . S
S407 N408 1.613 . S
S407 N409 1.610 . S
N408 S407 1.613 . S
N408 C411 1.350 1_655 S
N409 S407 1.610 . S
N409 C410 1.351 1_655 S
C410 C404 1.428 . S
C410 N409 1.351 1_455 S
C410 C411 1.434 . S
C411 C402 1.429 . S
C411 N408 1.350 1_455 S
C411 C410 1.434 . S
C412 C413 1.369 . S
C412 C414 1.419 . S
C412 H416 0.930 . S
C413 C412 1.369 . S
C413 C422 1.429 . S
C414 C412 1.419 . S
C414 C415 1.363 . S
C414 H417 0.929 . S
C415 C414 1.363 . S
C415 C421 1.428 1_545 S
H416 C412 0.930 . S
H417 C414 0.929 . S
S418 N419 1.613 . S
S418 N420 1.610 . S
N419 S418 1.613 . S
N419 C422 1.350 1_566 S
N420 S418 1.610 . S
N420 C421 1.351 1_556 S
C421 C415 1.428 1_565 S
C421 N420 1.351 1_554 S
C421 C422 1.434 1_565 S
C422 C413 1.429 . S
C422 N419 1.350 1_544 S
C422 C421 1.434 1_545 S
C423 C424 1.369 . S
C423 C425 1.419 . S
C423 H427 0.930 . S
C424 C423 1.369 . S
C424 C433 1.429 . S
C425 C423 1.419 . S
C425 C426 1.363 . S
C425 H428 0.929 . S
C426 C425 1.363 . S
C426 C432 1.428 . S
H427 C423 0.930 . S
H428 C425 0.929 . S
S429 N430 1.613 . S
S429 N431 1.610 . S
N430 S429 1.613 . S
N430 C433 1.350 . S
N431 S429 1.610 . S
N431 C432 1.351 . S
C432 C426 1.428 . S
C432 N431 1.351 . S
C432 C433 1.434 . S
C433 C424 1.429 . S
C433 N430 1.350 . S
C433 C432 1.434 . S
C434 C435 1.369 . S
C434 C436 1.419 . S
C434 H438 0.930 . S
C435 C434 1.369 . S
C435 C444 1.429 . S
C436 C434 1.419 . S
C436 C437 1.363 . S
C436 H439 0.929 . S
C437 C436 1.363 . S
C437 C443 1.428 . S
H438 C434 0.930 . S
H439 C436 0.929 . S
S440 N441 1.613 . S
S440 N442 1.610 . S
N441 S440 1.613 . S
N441 C444 1.350 . S
N442 S440 1.610 . S
N442 C443 1.351 . S
C443 C437 1.428 . S
C443 N442 1.351 . S
C443 C444 1.434 . S
C444 C435 1.429 . S
C444 N441 1.350 . S
C444 C443 1.434 . S
C445 C446 1.369 . S
C445 C447 1.419 . S
C445 H449 0.930 . S
C446 C445 1.369 . S
C446 C455 1.429 . S
C447 C445 1.419 . S
C447 C448 1.363 . S
C447 H450 0.929 . S
C448 C447 1.363 . S
C448 C454 1.428 . S
H449 C445 0.930 . S
H450 C447 0.929 . S
S451 N452 1.613 . S
S451 N453 1.610 . S
N452 S451 1.613 . S
N452 C455 1.350 . S
N453 S451 1.610 . S
N453 C454 1.351 . S
C454 C448 1.428 . S
C454 N453 1.351 . S
C454 C455 1.434 . S
C455 C446 1.429 . S
C455 N452 1.350 . S
C455 C454 1.434 . S
C456 C457 1.369 . S
C456 C458 1.419 . S
C456 H460 0.930 . S
C457 C456 1.369 . S
C457 C466 1.429 1_456 S
C458 C456 1.419 . S
C458 C459 1.363 . S
C458 H461 0.929 . S
C459 C458 1.363 . S
C459 C465 1.428 1_456 S
H460 C456 0.930 . S
H461 C458 0.929 . S
S462 N463 1.613 . S
S462 N464 1.610 . S
N463 S462 1.613 . S
N463 C466 1.350 . S
N464 S462 1.610 . S
N464 C465 1.351 . S
C465 C459 1.428 1_654 S
C465 N464 1.351 . S
C465 C466 1.434 . S
C466 C457 1.429 1_654 S
C466 N463 1.350 . S
C466 C465 1.434 . S
C467 C468 1.369 . S
C467 C469 1.419 . S
C467 H471 0.930 . S
C468 C467 1.369 . S
C468 C477 1.429 . S
C469 C467 1.419 . S
C469 C470 1.363 . S
C469 H472 0.929 . S
C470 C469 1.363 . S
C470 C476 1.428 . S
H471 C467 0.930 . S
H472 C469 0.929 . S
S473 N474 1.613 . S
S473 N475 1.610 . S
N474 S473 1.613 . S
N474 C477 1.350 . S
N475 S473 1.610 . S
N475 C476 1.351 . S
C476 C470 1.428 . S
C476 N475 1.351 . S
C476 C477 1.434 . S
C477 C468 1.429 . S
C477 N474 1.350 . S
C477 C476 1.434 . S
C478 C479 1.369 . S
C478 C480 1.419 . S
C478 H482 0.930 . S
C479 C478 1.369 . S
C479 C488 1.429 . S
C480 C478 1.419 . S
C480 C481 1.363 . S
C480 H483 0.929 . S
C481 C480 1.363 . S
C481 C487 1.428 . S
H482 C478 0.930 . S
H483 C480 0.929 . S
S484 N485 1.613 . S
S484 N486 1.610 . S
N485 S484 1.613 . S
N485 C488 1.350 1_655 S
N486 S484 1.610 . S
N486 C487 1.351 1_655 S
C487 C481 1.428 . S
C487 N486 1.351 1_455 S
C487 C488 1.434 . S
C488 C479 1.429 . S
C488 N485 1.350 1_455 S
C488 C487 1.434 . S
C489 C490 1.369 . S
C489 C491 1.419 . S
C489 H493 0.930 . S
C490 C489 1.369 . S
C490 C499 1.429 . S
C491 C489 1.419 . S
C491 C492 1.363 . S
C491 H494 0.929 . S
C492 C491 1.363 . S
C492 C498 1.428 . S
H493 C489 0.930 . S
H494 C491 0.929 . S
S495 N496 1.613 . S
S495 N497 1.610 . S
N496 S495 1.613 . S
N496 C499 1.350 . S
N497 S495 1.610 . S
N497 C498 1.351 . S
C498 C492 1.428 . S
C498 N497 1.351 . S
C498 C499 1.434 . S
C499 C490 1.429 . S
C499 N496 1.350 . S
C499 C498 1.434 . S
C237 C6 1.791 . S
C239 C155 1.627 . S
C248 C21 1.993 . S
C250 C189 1.834 1_566 S
C261 C201 1.054 . S
C259 C49 1.019 . S
C270 C68 1.263 . S
C272 C235 1.248 . S
C283 C192 1.965 . S
C281 C2 2.117 . S
C294 C172 1.320 . S
C292 C30 1.203 . S
C305 C219 1.258 . S
C303 C40 1.459 . S
C316 C210 1.386 . S
C314 C63 1.427 . S
C325 C11 1.427 . S
C327 C218 1.542 . S
C338 C180 1.596 . S
C336 C44 1.681 . S
C347 C59 1.237 . S
C349 C156 1.153 . S
C358 C25 1.779 . S
C360 C213 1.674 . S
C371 C171 1.961 . S
C369 C82 2.010 1_445 S
C380 C101 1.825 . S
C382 C193 1.660 . S
C391 C125 1.497 . S
C393 C198 1.408 . S
C402 C144 1.143 . S
C404 C231 1.283 . S
C413 C87 1.254 . S
C415 C176 1.423 . S
C426 C168 1.967 . S
C424 C97 2.096 . S
C437 C222 1.450 . S
C435 C120 1.469 . S
C448 C214 1.400 . S
C446 C135 1.556 . S
C457 C78 1.881 1_455 S
C459 C234 1.784 . S
C470 C177 1.284 . S
C468 C116 1.350 . S
C481 C159 1.653 . S
C479 C139 1.723 . S
C490 C106 1.528 . S
C492 C197 1.547 . S
