# Generated by pormake.
# Topology cml, (3,6)-cn, num edge types: 1
# Building blocks:
#     Node 0, Type 0, BuildingBlock: PAMTOO_clean_linker_0, # of connection points: 3
#     Node 1, Type 0, BuildingBlock: PAMTOO_clean_linker_0, # of connection points: 3
#     Node 2, Type 0, BuildingBlock: PAMTOO_clean_linker_0, # of connection points: 3
#     Node 3, Type 0, BuildingBlock: PAMTOO_clean_linker_0, # of connection points: 3
#     Node 4, Type 0, BuildingBlock: PAMTOO_clean_linker_0, # of connection points: 3
#     Node 5, Type 0, BuildingBlock: PAMTOO_clean_linker_0, # of connection points: 3
#     Node 6, Type 0, BuildingBlock: PAMTOO_clean_linker_0, # of connection points: 3
#     Node 7, Type 0, BuildingBlock: PAMTOO_clean_linker_0, # of connection points: 3
#     Node 8, Type 1, BuildingBlock: IZENUY_clean_sbu_0, # of connection points: 6
#     Node 9, Type 1, BuildingBlock: IZENUY_clean_sbu_0, # of connection points: 6
#     Node 10, Type 1, BuildingBlock: IZENUY_clean_sbu_0, # of connection points: 6
#     Node 11, Type 1, BuildingBlock: IZENUY_clean_sbu_0, # of connection points: 6
#     Edge 12, Type (0, 1), BuildingBlock: EZIPEK_clean_linker_0, # of connection points: 2
#     Edge 13, Type (0, 1), BuildingBlock: EZIPEK_clean_linker_0, # of connection points: 2
#     Edge 14, Type (0, 1), BuildingBlock: EZIPEK_clean_linker_0, # of connection points: 2
#     Edge 15, Type (0, 1), BuildingBlock: EZIPEK_clean_linker_0, # of connection points: 2
#     Edge 16, Type (0, 1), BuildingBlock: EZIPEK_clean_linker_0, # of connection points: 2
#     Edge 17, Type (0, 1), BuildingBlock: EZIPEK_clean_linker_0, # of connection points: 2
#     Edge 18, Type (0, 1), BuildingBlock: EZIPEK_clean_linker_0, # of connection points: 2
#     Edge 19, Type (0, 1), BuildingBlock: EZIPEK_clean_linker_0, # of connection points: 2
#     Edge 20, Type (0, 1), BuildingBlock: EZIPEK_clean_linker_0, # of connection points: 2
#     Edge 21, Type (0, 1), BuildingBlock: EZIPEK_clean_linker_0, # of connection points: 2
#     Edge 22, Type (0, 1), BuildingBlock: EZIPEK_clean_linker_0, # of connection points: 2
#     Edge 23, Type (0, 1), BuildingBlock: EZIPEK_clean_linker_0, # of connection points: 2
#     Edge 24, Type (0, 1), BuildingBlock: EZIPEK_clean_linker_0, # of connection points: 2
#     Edge 25, Type (0, 1), BuildingBlock: EZIPEK_clean_linker_0, # of connection points: 2
#     Edge 26, Type (0, 1), BuildingBlock: EZIPEK_clean_linker_0, # of connection points: 2
#     Edge 27, Type (0, 1), BuildingBlock: EZIPEK_clean_linker_0, # of connection points: 2
#     Edge 28, Type (0, 1), BuildingBlock: EZIPEK_clean_linker_0, # of connection points: 2
#     Edge 29, Type (0, 1), BuildingBlock: EZIPEK_clean_linker_0, # of connection points: 2
#     Edge 30, Type (0, 1), BuildingBlock: EZIPEK_clean_linker_0, # of connection points: 2
#     Edge 31, Type (0, 1), BuildingBlock: EZIPEK_clean_linker_0, # of connection points: 2
#     Edge 32, Type (0, 1), BuildingBlock: EZIPEK_clean_linker_0, # of connection points: 2
#     Edge 33, Type (0, 1), BuildingBlock: EZIPEK_clean_linker_0, # of connection points: 2
#     Edge 34, Type (0, 1), BuildingBlock: EZIPEK_clean_linker_0, # of connection points: 2
#     Edge 35, Type (0, 1), BuildingBlock: EZIPEK_clean_linker_0, # of connection points: 2
# Relax obj value: 0.004
# Max RMSD: 0.065
# Mean RMSD: 0.051
data_MOF--net-cml--node1-IZENUY_clean_sbu_0--node2-PAMTOO_clean_linker_0--edge1-EZIPEK_clean_linker_0
_symmetry_space_group_name_H-M    P1
_symmetry_Int_Tables_number       1
_symmetry_cell_setting            triclinic
loop_
_symmetry_equiv_pos_as_xyz
'x, y, z'
_cell_length_a     27.160499
_cell_length_b     30.075307
_cell_length_c     26.130891
_cell_angle_alpha  89.905771
_cell_angle_beta   89.113102
_cell_angle_gamma 89.949121
loop_
_atom_site_label
_atom_site_type_symbol
_atom_site_fract_x
_atom_site_fract_y
_atom_site_fract_z
_atom_type_partial_charge
H0 H 0.37312 0.45926 0.05281 0.0
H1 H 0.27381 0.41954 0.93642 0.0
H2 H 0.27274 0.34977 0.07825 0.0
H3 H 0.27169 0.29287 0.99467 0.0
C4 C 0.25101 0.31297 0.96641 0.0
O5 O 0.23616 0.35276 0.98826 0.0
H6 H 0.276 0.32193 0.93401 0.0
C7 C 0.34206 0.43896 0.04216 0.0
C8 C 0.32037 0.40864 0.07746 0.0
C9 C 0.3249 0.44389 0.9922 0.0
C10 C 0.2872 0.41624 0.97509 0.0
C11 C 0.26912 0.38226 0.00673 0.0
C12 C 0.28599 0.3781 0.05715 0.0
H13 H 0.64659 0.56625 0.55271 0.0
H14 H 0.73874 0.68076 0.57695 0.0
H15 H 0.73769 0.61702 0.43165 0.0
H16 H 0.83781 0.64846 0.48006 0.0
C17 C 0.82304 0.68164 0.49106 0.0
O18 O 0.77275 0.68316 0.48508 0.0
H19 H 0.83223 0.68485 0.5322 0.0
C20 C 0.67591 0.58855 0.54116 0.0
C21 C 0.69072 0.58733 0.48962 0.0
C22 C 0.69697 0.61858 0.57634 0.0
C23 C 0.72731 0.65234 0.55518 0.0
C24 C 0.74282 0.65103 0.50379 0.0
C25 C 0.72593 0.6176 0.47146 0.0
H26 H 0.63942 0.45177 0.05863 0.0
H27 H 0.75785 0.35931 0.07925 0.0
H28 H 0.75418 0.44049 0.94363 0.0
H29 H 0.76363 0.33768 0.93298 0.0
C30 C 0.78939 0.33307 0.96524 0.0
O31 O 0.79806 0.37325 0.98896 0.0
H32 H 0.7695 0.31006 0.99174 0.0
C33 C 0.6738 0.4373 0.04498 0.0
C34 C 0.69443 0.45115 0.99813 0.0
C35 C 0.6971 0.40522 0.07473 0.0
C36 C 0.74066 0.38535 0.05705 0.0
C37 C 0.76029 0.39705 0.00901 0.0
C38 C 0.73824 0.43101 0.98031 0.0
H39 H 0.38554 0.58741 0.55433 0.0
H40 H 0.27738 0.60986 0.43821 0.0
H41 H 0.28246 0.69515 0.56996 0.0
H42 H 0.18011 0.66844 0.52102 0.0
C43 C 0.19296 0.67549 0.48129 0.0
O44 O 0.24299 0.68312 0.4798 0.0
H45 H 0.18421 0.6446 0.45998 0.0
C46 C 0.35439 0.60589 0.53979 0.0
C47 C 0.3354 0.64146 0.56826 0.0
C48 C 0.33339 0.59354 0.4932 0.0
C49 C 0.29367 0.61845 0.47447 0.0
C50 C 0.27615 0.65569 0.50149 0.0
C51 C 0.29619 0.66653 0.54903 0.0
H52 H 0.88226 0.95571 0.04197 0.0
H53 H 0.76672 0.93183 0.93507 0.0
H54 H 0.76793 0.86075 0.07791 0.0
H55 H 0.76195 0.80724 0.97732 0.0
C56 C 0.73521 0.8296 0.95826 0.0
O57 O 0.7263 0.86682 0.98796 0.0
H58 H 0.75419 0.83917 0.92188 0.0
C59 C 0.84875 0.93838 0.03196 0.0
C60 C 0.82757 0.9077 0.06649 0.0
C61 C 0.82628 0.94823 0.98543 0.0
C62 C 0.78356 0.92534 0.97166 0.0
C63 C 0.76386 0.89247 1.0041 0.0
C64 C 0.78461 0.88495 0.05226 0.0
H65 H 0.13929 0.07311 0.5398 0.0
H66 H 0.24668 0.17476 0.57012 0.0
H67 H 0.2449 0.11058 0.42351 0.0
H68 H 0.346 0.1389 0.47176 0.0
C69 C 0.33225 0.17201 0.48416 0.0
O70 O 0.2824 0.17561 0.4768 0.0
H71 H 0.3406 0.17327 0.52563 0.0
C72 C 0.17091 0.09282 0.52794 0.0
C73 C 0.19132 0.08671 0.47893 0.0
C74 C 0.19082 0.12421 0.5616 0.0
C75 C 0.23105 0.15004 0.54501 0.0
C76 C 0.24953 0.14584 0.49496 0.0
C77 C 0.23046 0.11359 0.46225 0.0
H78 H 0.1425 0.95747 0.06188 0.0
H79 H 0.25393 0.85713 0.07728 0.0
H80 H 0.24566 0.93343 0.9383 0.0
H81 H 0.25498 0.83129 0.93281 0.0
C82 C 0.28208 0.82777 0.96398 0.0
O83 O 0.29183 0.86866 0.98547 0.0
H84 H 0.26329 0.80572 0.99237 0.0
C85 C 0.17494 0.94059 0.04683 0.0
C86 C 0.19259 0.95077 0.99754 0.0
C87 C 0.19653 0.90662 0.07538 0.0
C88 C 0.2377 0.88403 0.05567 0.0
C89 C 0.25537 0.89366 0.0062 0.0
C90 C 0.23284 0.92702 0.97708 0.0
H91 H 0.87762 0.07959 0.56132 0.0
H92 H 0.78662 0.11428 0.43405 0.0
H93 H 0.78137 0.19297 0.57128 0.0
H94 H 0.68176 0.16653 0.51314 0.0
C95 C 0.69728 0.17678 0.47534 0.0
O96 O 0.74722 0.18427 0.4784 0.0
H97 H 0.69022 0.14785 0.45009 0.0
C98 C 0.84865 0.09986 0.54517 0.0
C99 C 0.83069 0.13654 0.57258 0.0
C100 C 0.83284 0.09145 0.4953 0.0
C101 C 0.79759 0.11941 0.4733 0.0
C102 C 0.77819 0.15543 0.50115 0.0
C103 C 0.7946 0.16388 0.55087 0.0
Fe104 Fe 1.00557 0.83271 0.3094 0.0
Fe105 Fe 0.01184 0.88557 0.40964 0.0
O106 O 1.00896 0.88419 0.34211 0.0
Fe107 Fe 1.00889 0.93417 0.3066 0.0
O108 O 0.94888 0.92109 0.28106 0.0
O109 O 0.96949 0.85455 0.25533 0.0
O110 O 0.94788 0.81917 0.34146 0.0
C111 C 0.94329 0.81589 0.38945 0.0
C112 C 0.07056 0.8773 0.2484 0.0
O113 O 0.97246 0.83604 0.41907 0.0
C114 C 0.07755 0.95464 0.37712 0.0
O115 O 0.04141 0.80114 0.35686 0.0
O116 O 0.06763 0.85247 0.40945 0.0
O117 O 0.04212 0.91063 0.25106 0.0
O118 O 0.06308 0.84336 0.27568 0.0
C119 C 0.95054 0.9564 0.39398 0.0
O120 O 0.05178 0.93507 0.41131 0.0
O121 O 0.06849 0.95006 0.33036 0.0
C122 C 0.0708 0.81388 0.39107 0.0
O123 O 0.95629 0.9192 0.41539 0.0
O124 O 0.97663 0.96741 0.35557 0.0
C125 C 0.9422 0.88862 0.25171 0.0
Fe126 Fe 1.0087 0.15179 0.91042 0.0
Fe127 Fe 0.0121 0.10006 0.80947 0.0
O128 O 0.01222 0.15114 0.84284 0.0
Fe129 Fe 0.01618 0.20175 0.80785 0.0
O130 O 0.0737 0.21627 0.83757 0.0
O131 O 0.04963 0.20047 0.91657 0.0
O132 O 0.06363 0.11785 0.91675 0.0
C133 C 0.06985 0.08028 0.89642 0.0
C134 C 0.9501 0.22337 0.88882 0.0
O135 O 0.04425 0.06826 0.85891 0.0
C136 C 0.95177 0.15603 0.74924 0.0
O137 O 0.96797 0.10273 0.91539 0.0
O138 O 0.95239 0.08481 0.83555 0.0
O139 O 0.98098 0.23517 0.85471 0.0
O140 O 0.9533 0.18567 0.90963 0.0
C141 C 0.07929 0.14373 0.75125 0.0
O142 O 0.97911 0.12207 0.75354 0.0
O143 O 0.95878 0.19014 0.77607 0.0
C144 C 0.94292 0.08159 0.88272 0.0
O145 O 0.07225 0.11211 0.78192 0.0
O146 O 0.05218 0.17796 0.75404 0.0
C147 C 0.08048 0.21776 0.88526 0.0
Fe148 Fe 0.50908 0.33451 0.30961 0.0
Fe149 Fe 0.51068 0.38505 0.41143 0.0
O150 O 0.51046 0.38528 0.34386 0.0
Fe151 Fe 0.51 0.43648 0.31069 0.0
O152 O 0.45171 0.42314 0.28211 0.0
O153 O 0.47192 0.35627 0.25602 0.0
O154 O 0.4518 0.31814 0.34054 0.0
C155 C 0.44723 0.31296 0.38817 0.0
C156 C 0.57325 0.38182 0.25043 0.0
O157 O 0.4751 0.3333 0.41863 0.0
C158 C 0.57446 0.45717 0.38501 0.0
O159 O 0.54647 0.30389 0.35674 0.0
O160 O 0.56848 0.35493 0.41235 0.0
O161 O 0.54565 0.41558 0.25524 0.0
O162 O 0.56606 0.34726 0.27654 0.0
C163 C 0.44644 0.45305 0.39587 0.0
O164 O 0.54691 0.43683 0.41698 0.0
O165 O 0.56799 0.45342 0.33762 0.0
C166 C 0.57443 0.31716 0.39217 0.0
O167 O 0.45239 0.41474 0.41419 0.0
O168 O 0.47473 0.46671 0.36029 0.0
C169 C 0.44455 0.3904 0.25329 0.0
Fe170 Fe 0.50467 0.64939 0.91298 0.0
Fe171 Fe 0.50718 0.59642 0.81353 0.0
O172 O 0.50837 0.64822 0.84546 0.0
Fe173 Fe 0.51507 0.69853 0.81057 0.0
O174 O 0.57135 0.71269 0.84357 0.0
O175 O 0.54213 0.70003 0.92073 0.0
O176 O 0.56136 0.61782 0.91713 0.0
C177 C 0.56724 0.57932 0.89918 0.0
C178 C 0.4445 0.71871 0.88933 0.0
O179 O 0.53917 0.56551 0.86438 0.0
C180 C 0.45169 0.65371 0.74913 0.0
O181 O 0.4663 0.59875 0.9191 0.0
O182 O 0.44709 0.58262 0.84005 0.0
O183 O 0.47608 0.73104 0.85572 0.0
O184 O 0.44824 0.68148 0.91146 0.0
C185 C 0.57811 0.6384 0.75661 0.0
O186 O 0.47512 0.61793 0.75689 0.0
O187 O 0.46 0.68821 0.77469 0.0
C188 C 0.4394 0.57854 0.88742 0.0
O189 O 0.56714 0.60631 0.78537 0.0
O190 O 0.55423 0.67456 0.7591 0.0
C191 C 0.57422 0.71737 0.89133 0.0
C192 C 0.21362 0.25666 0.90421 0.0
C193 C 0.20756 0.28524 0.9474 0.0
C194 C 0.11865 0.27133 0.94734 0.0
C195 C 0.12429 0.24188 0.90525 0.0
N196 N 0.17918 0.19948 0.85014 0.0
N197 N 0.15731 0.301 0.0224 0.0
C198 C 0.17233 0.2328 0.88516 0.0
C199 C 0.16101 0.28693 0.97283 0.0
N200 N 0.2591 0.25129 0.88187 0.0
N201 N 0.073 0.28616 0.9619 0.0
H202 H 0.18805 0.30783 0.04445 0.0
H203 H 0.12446 0.2996 0.04355 0.0
H204 H 0.04119 0.27826 0.94201 0.0
H205 H 0.06767 0.31055 0.98975 0.0
H206 H 0.26452 0.23799 0.84545 0.0
H207 H 0.29177 0.26044 0.89936 0.0
H208 H 0.21361 0.18752 0.83875 0.0
H209 H 0.15071 0.18055 0.83538 0.0
C210 C 0.84858 0.76288 0.47983 0.0
C211 C 0.8472 0.7188 0.4603 0.0
C212 C 0.90623 0.73889 0.39277 0.0
C213 C 0.9077 0.78324 0.4116 0.0
N214 N 0.86985 0.84003 0.46415 0.0
N215 N 0.85761 0.67203 0.38592 0.0
C216 C 0.87578 0.79604 0.45262 0.0
C217 C 0.87041 0.7091 0.41274 0.0
N218 N 0.8242 0.77311 0.52443 0.0
N219 N 0.94077 0.7239 0.35832 0.0
H220 H 0.82906 0.65098 0.39761 0.0
H221 H 0.87081 0.66559 0.349 0.0
H222 H 0.96987 0.74317 0.34451 0.0
H223 H 0.94369 0.69057 0.3478 0.0
H224 H 0.8295 0.80269 0.54426 0.0
H225 H 0.79983 0.75138 0.54285 0.0
H226 H 0.84351 0.85194 0.49007 0.0
H227 H 0.88789 0.86519 0.44395 0.0
C228 C 0.86651 0.28688 0.98199 0.0
C229 C 0.83744 0.31187 0.94752 0.0
C230 C 0.88434 0.28192 0.87499 0.0
C231 C 0.91336 0.25614 0.90897 0.0
N232 N 0.9426 0.24671 0.99527 0.0
N233 N 0.83412 0.34772 0.86509 0.0
C234 C 0.90758 0.26228 0.96273 0.0
C235 C 0.85146 0.31422 0.89526 0.0
N236 N 0.85483 0.28634 0.03303 0.0
N237 N 0.88556 0.27407 0.82358 0.0
H238 H 0.81234 0.37354 0.87955 0.0
H239 H 0.84653 0.35295 0.82762 0.0
H240 H 0.90723 0.24961 0.80673 0.0
H241 H 0.8611 0.28881 0.79829 0.0
H242 H 0.87017 0.26394 0.05874 0.0
H243 H 0.8284 0.30723 0.04952 0.0
H244 H 0.94279 0.25394 0.03422 0.0
H245 H 0.97461 0.23076 0.98268 0.0
C246 C 0.16516 0.72038 0.40356 0.0
C247 C 0.16638 0.71498 0.45767 0.0
C248 C 0.10593 0.7748 0.46806 0.0
C249 C 0.10543 0.78128 0.41415 0.0
N250 N 0.14545 0.76875 0.33244 0.0
N251 N 0.15386 0.75028 0.5399 0.0
C252 C 0.13815 0.75643 0.38233 0.0
C253 C 0.14185 0.74636 0.48953 0.0
N254 N 0.18976 0.69121 0.37227 0.0
N255 N 0.0707 0.79374 0.49894 0.0
H256 H 0.18278 0.73272 0.55624 0.0
H257 H 0.1396 0.77526 0.56345 0.0
H258 H 0.04194 0.81305 0.48519 0.0
H259 H 0.067 0.78617 0.53775 0.0
H260 H 0.1846 0.68979 0.33289 0.0
H261 H 0.21386 0.66702 0.38566 0.0
H262 H 0.17238 0.75484 0.30859 0.0
H263 H 0.12833 0.79632 0.31644 0.0
C264 C 0.6744 0.76701 0.97555 0.0
C265 C 0.68741 0.80536 0.94691 0.0
C266 C 0.61661 0.79211 0.8915 0.0
C267 C 0.61139 0.74867 0.91261 0.0
N268 N 0.63972 0.69337 0.97293 0.0
N269 N 0.66801 0.8573 0.87961 0.0
C270 C 0.64107 0.73588 0.95458 0.0
C271 C 0.65745 0.81892 0.90559 0.0
N272 N 0.69297 0.76074 0.02333 0.0
N273 N 0.58112 0.80876 0.86023 0.0
H274 H 0.6939 0.88033 0.89195 0.0
H275 H 0.65221 0.86559 0.8448 0.0
H276 H 0.54929 0.79129 0.85131 0.0
H277 H 0.58036 0.84162 0.84767 0.0
H278 H 0.68134 0.73518 0.04761 0.0
H279 H 0.71512 0.78425 0.04113 0.0
H280 H 0.66453 0.68129 0.99963 0.0
H281 H 0.61723 0.66891 0.958 0.0
C282 C 0.38129 0.20236 0.40817 0.0
C283 C 0.3575 0.21 0.45603 0.0
C284 C 0.38112 0.28867 0.45017 0.0
C285 C 0.41362 0.27824 0.40886 0.0
N286 N 0.45062 0.22178 0.35424 0.0
N287 N 0.3324 0.262 0.52217 0.0
C288 C 0.41521 0.23425 0.38908 0.0
C289 C 0.35663 0.2537 0.47693 0.0
N290 N 0.37044 0.16558 0.37987 0.0
N291 N 0.3718 0.33211 0.46222 0.0
H292 H 0.30981 0.23891 0.54076 0.0
H293 H 0.3364 0.29148 0.54256 0.0
H294 H 0.38708 0.35851 0.44164 0.0
H295 H 0.34493 0.34206 0.48866 0.0
H296 H 0.38419 0.16076 0.34282 0.0
H297 H 0.34281 0.14313 0.39024 0.0
H298 H 0.4558 0.18882 0.34306 0.0
H299 H 0.47814 0.24293 0.34062 0.0
C300 C 0.36091 0.78404 0.98059 0.0
C301 C 0.3296 0.80601 0.94551 0.0
C302 C 0.37502 0.77292 0.87371 0.0
C303 C 0.40668 0.75086 0.90834 0.0
N304 N 0.4392 0.74751 0.99383 0.0
N305 N 0.3216 0.83605 0.86033 0.0
C306 C 0.40242 0.75992 0.96163 0.0
C307 C 0.34142 0.80528 0.89255 0.0
N308 N 0.35096 0.78585 0.03197 0.0
N309 N 0.37468 0.76141 0.82325 0.0
H310 H 0.29965 0.8623 0.87336 0.0
H311 H 0.33223 0.83892 0.82196 0.0
H312 H 0.39667 0.73629 0.80818 0.0
H313 H 0.34871 0.77346 0.79773 0.0
H314 H 0.3682 0.76548 0.05855 0.0
H315 H 0.32401 0.80641 0.04805 0.0
H316 H 0.44045 0.75705 0.03207 0.0
H317 H 0.47136 0.73185 0.98117 0.0
C318 C 0.67322 0.22752 0.40105 0.0
C319 C 0.6719 0.21803 0.45443 0.0
C320 C 0.60936 0.27565 0.46765 0.0
C321 C 0.61054 0.28551 0.41439 0.0
N322 N 0.65444 0.28029 0.33379 0.0
N323 N 0.65494 0.24677 0.53913 0.0
C324 C 0.64568 0.26416 0.38198 0.0
C325 C 0.64521 0.24649 0.488 0.0
N326 N 0.70052 0.20155 0.36844 0.0
N327 N 0.57261 0.29189 0.49867 0.0
H328 H 0.68351 0.22838 0.55497 0.0
H329 H 0.63911 0.26961 0.56444 0.0
H330 H 0.54412 0.31188 0.48563 0.0
H331 H 0.56763 0.28165 0.53652 0.0
H332 H 0.69753 0.203 0.32878 0.0
H333 H 0.72489 0.17716 0.38087 0.0
H334 H 0.68276 0.26892 0.30988 0.0
H335 H 0.6369 0.30851 0.31983 0.0
C336 C 0.33775 0.52392 0.96692 0.0
C337 C 0.34795 0.47817 0.95822 0.0
C338 C 0.41417 0.49807 0.89743 0.0
C339 C 0.40447 0.54397 0.90667 0.0
N340 N 0.35056 0.60063 0.94038 0.0
N341 N 0.38904 0.42122 0.90873 0.0
C342 C 0.36422 0.55687 0.93854 0.0
C343 C 0.38377 0.46517 0.92111 0.0
N344 N 0.30344 0.53579 1.00325 0.0
N345 N 0.45427 0.48564 0.86856 0.0
H346 H 0.3699 0.39576 0.92738 0.0
H347 H 0.40973 0.40997 0.87749 0.0
H348 H 0.4761 0.50786 0.84792 0.0
H349 H 0.46781 0.45328 0.86694 0.0
H350 H 0.29857 0.56816 0.01639 0.0
H351 H 0.28102 0.5127 0.0222 0.0
H352 H 0.31893 0.61211 0.95905 0.0
H353 H 0.36865 0.62526 0.91917 0.0
C354 C 0.6795 0.50913 0.45802 0.0
C355 C 0.66688 0.5549 0.45494 0.0
C356 C 0.59737 0.53715 0.39974 0.0
C357 C 0.60927 0.49121 0.40387 0.0
N358 N 0.66716 0.43411 0.42614 0.0
N359 N 0.61978 0.6138 0.41642 0.0
C360 C 0.65211 0.47741 0.42979 0.0
C361 C 0.62787 0.5693 0.42344 0.0
N362 N 0.71693 0.49603 0.48905 0.0
N363 N 0.55545 0.54996 0.37542 0.0
H364 H 0.63919 0.63845 0.43547 0.0
H365 H 0.59614 0.62669 0.38917 0.0
H366 H 0.53406 0.5283 0.35428 0.0
H367 H 0.54042 0.58174 0.37773 0.0
H368 H 0.72424 0.46303 0.49825 0.0
H369 H 0.73968 0.51855 0.50769 0.0
H370 H 0.70037 0.42233 0.44016 0.0
H371 H 0.64823 0.41045 0.40493 0.0
C372 C 0.6553 0.52641 0.99446 0.0
C373 C 0.66864 0.48658 0.96888 0.0
C374 C 0.62616 0.51378 0.89322 0.0
C375 C 0.60368 0.54833 0.92276 0.0
N376 N 0.58827 0.57714 0.00864 0.0
N377 N 0.65683 0.4385 0.89582 0.0
C378 C 0.61606 0.55222 0.97538 0.0
C379 C 0.65149 0.47907 0.91864 0.0
N380 N 0.6794 0.53927 0.03743 0.0
N381 N 0.62532 0.51454 0.84103 0.0
H382 H 0.67276 0.41123 0.91379 0.0
H383 H 0.64059 0.43085 0.86102 0.0
H384 H 0.61148 0.54117 0.82036 0.0
H385 H 0.64447 0.49151 0.81849 0.0
H386 H 0.67294 0.56985 0.0551 0.0
H387 H 0.70939 0.52167 0.05166 0.0
H388 H 0.59493 0.57794 0.04782 0.0
H389 H 0.55464 0.59134 0.99922 0.0
C390 C 0.37141 0.55823 0.41359 0.0
C391 C 0.35425 0.55454 0.46496 0.0
C392 C 0.39709 0.48339 0.47255 0.0
C393 C 0.41022 0.48485 0.41946 0.0
N394 N 0.3905 0.51686 0.337 0.0
N395 N 0.3358 0.50521 0.53569 0.0
C396 C 0.39113 0.52005 0.38907 0.0
C397 C 0.36176 0.5141 0.4917 0.0
N398 N 0.37193 0.59822 0.38879 0.0
N399 N 0.42061 0.45605 0.50611 0.0
H400 H 0.30844 0.52647 0.54987 0.0
H401 H 0.3377 0.47457 0.55434 0.0
H402 H 0.45134 0.43696 0.49676 0.0
H403 H 0.41377 0.4572 0.54546 0.0
H404 H 0.38822 0.60236 0.35269 0.0
H405 H 0.36137 0.62796 0.40615 0.0
H406 H 0.37399 0.54084 0.314 0.0
H407 H 0.40007 0.48778 0.31768 0.0
C408 C 0.88042 0.97 0.91097 0.0
C409 C 0.8485 0.98288 0.95166 0.0
C410 C 0.86857 0.0613 0.93568 0.0
C411 C 0.9065 0.04795 0.90108 0.0
N412 N 0.95065 0.98859 0.8573 0.0
N413 N 0.8113 0.04025 1.00365 0.0
C414 C 0.91238 1.00212 0.8882 0.0
C415 C 0.84202 0.02847 0.96399 0.0
N416 N 0.88068 0.92685 0.8945 0.0
N417 N 0.85703 0.10539 0.9402 0.0
H418 H 0.7889 0.01741 0.02303 0.0
H419 H 0.80971 0.07216 0.01898 0.0
H420 H 0.87476 0.12999 0.9186 0.0
H421 H 0.82695 0.11724 0.96124 0.0
H422 H 0.8985 0.91641 0.86107 0.0
H423 H 0.85962 0.90191 0.91182 0.0
H424 H 0.96073 0.95544 0.85248 0.0
H425 H 0.97547 1.01012 0.83955 0.0
C426 C 0.12996 0.067 0.41236 0.0
C427 C 0.16893 0.05369 0.44436 0.0
C428 C 0.154 0.97538 0.42389 0.0
C429 C 0.11377 0.98856 0.39327 0.0
N430 N 0.07111 0.04714 0.34789 0.0
N431 N 0.22512 0.99749 0.47328 0.0
C432 C 0.10457 0.03444 0.38368 0.0
C433 C 0.1833 1.00847 0.44763 0.0
N434 N 0.11528 0.11055 0.4118 0.0
N435 N 0.16355 0.93113 0.43066 0.0
H436 H 0.24695 0.02111 0.49131 0.0
H437 H 0.24032 0.96574 0.47387 0.0
H438 H 0.14568 0.9064 0.41009 0.0
H439 H 0.18815 0.91865 0.45721 0.0
H440 H 0.08275 0.12149 0.39539 0.0
H441 H 0.13403 0.13572 0.43076 0.0
H442 H 0.06752 0.07972 0.33495 0.0
H443 H 0.04899 0.02515 0.32801 0.0
C444 C 0.11553 0.9716 0.95287 0.0
C445 C 0.16434 0.98275 0.96607 0.0
C446 C 0.15353 0.05651 0.92764 0.0
C447 C 0.10272 0.04723 0.92104 0.0
N448 N 0.03346 0.99945 0.94048 0.0
N449 N 0.22865 0.03766 0.97186 0.0
C450 C 0.08318 1.0056 0.93694 0.0
C451 C 0.18322 0.02571 0.95489 0.0
N452 N 0.10007 0.9284 0.9554 0.0
N453 N 0.17369 0.09401 0.90664 0.0
H454 H 0.25159 1.01583 0.99138 0.0
H455 H 0.24206 0.07006 0.96985 0.0
H456 H 0.15301 0.11686 0.8861 0.0
H457 H 0.21137 0.10043 0.90571 0.0
H458 H 0.12313 0.90236 0.9662 0.0
H459 H 0.06616 0.91797 0.94168 0.0
H460 H 0.0173 0.97108 0.95631 0.0
H461 H 1.00849 0.0249 0.93362 0.0
C462 C 0.83866 1.01619 0.45233 0.0
C463 C 0.85995 0.05796 0.46409 0.0
C464 C 0.94037 0.03128 0.43497 0.0
C465 C 0.91886 0.9907 0.4189 0.0
N466 N 0.84564 0.94778 0.40343 0.0
N467 N 0.92772 0.1091 0.4535 0.0
C468 C 0.86734 0.98399 0.42505 0.0
C469 C 0.90971 0.06673 0.45094 0.0
N470 N 0.79173 1.00686 0.46846 0.0
N471 N 0.99023 0.03511 0.43847 0.0
H472 H 0.90604 0.13624 0.4644 0.0
H473 H 0.96256 0.1179 0.43963 0.0
H474 H 0.01382 1.00863 0.43142 0.0
H475 H 1.00759 0.06254 0.45453 0.0
H476 H 0.77608 0.97535 0.46595 0.0
H477 H 0.76955 0.03001 0.48757 0.0
H478 H 0.80766 0.94324 0.40251 0.0
H479 H 0.86546 0.92413 0.38244 0.0
C480 C 0.36593 0.44422 0.15112 0.0
C481 C 0.33862 0.40782 0.13258 0.0
C482 C 0.37145 0.36227 0.20251 0.0
C483 C 0.40783 0.39542 0.2116 0.0
N484 N 0.4427 0.46684 0.1868 0.0
N485 N 0.28975 0.34959 0.17041 0.0
C486 C 0.4055 0.43639 0.18434 0.0
C487 C 0.33401 0.37064 0.16584 0.0
N488 N 0.35157 0.48658 0.14 0.0
N489 N 0.37153 0.32332 0.22939 0.0
H490 H 0.25793 0.36381 0.15559 0.0
H491 H 0.28262 0.32405 0.19644 0.0
H492 H 0.39483 0.3172 0.25983 0.0
H493 H 0.34977 0.2962 0.21956 0.0
H494 H 0.36781 0.51449 0.15628 0.0
H495 H 0.31968 0.49297 0.11937 0.0
H496 H 0.44358 0.49537 0.16406 0.0
H497 H 0.47533 0.46119 0.20618 0.0
C498 C 0.69051 0.65209 0.66748 0.0
C499 C 0.68152 0.61709 0.6326 0.0
C500 C 0.61419 0.59055 0.68666 0.0
C501 C 0.6154 0.63084 0.71526 0.0
N502 N 0.65915 0.69841 0.73634 0.0
N503 N 0.66446 0.53886 0.63867 0.0
C504 C 0.65492 0.66128 0.70677 0.0
C505 C 0.65256 0.58155 0.65131 0.0
N506 N 0.73646 0.67015 0.66952 0.0
N507 N 0.57502 0.56216 0.68984 0.0
H508 H 0.6958 0.53156 0.61653 0.0
H509 H 0.64676 0.5114 0.65501 0.0
H510 H 0.54313 0.56877 0.71106 0.0
H511 H 0.57203 0.53441 0.6662 0.0
H512 H 0.74694 0.69327 0.6969 0.0
H513 H 0.76595 0.65634 0.64892 0.0
H514 H 0.6835 0.72415 0.72745 0.0
H515 H 0.63714 0.70431 0.76859 0.0
C516 C 0.6823 0.41637 0.16848 0.0
C517 C 0.6734 0.39162 0.12348 0.0
C518 C 0.60224 0.35562 0.16409 0.0
C519 C 0.61059 0.381 0.2089 0.0
N520 N 0.66543 0.42526 0.25932 0.0
N521 N 0.63366 0.33039 0.08169 0.0
C522 C 0.6529 0.4082 0.21286 0.0
C523 C 0.63632 0.3586 0.12254 0.0
N524 N 0.71758 0.44875 0.16808 0.0
N525 N 0.56044 0.33065 0.1601 0.0
H526 H 0.65773 0.3323 0.05026 0.0
H527 H 0.61065 0.30275 0.08082 0.0
H528 H 0.53512 0.32653 0.19003 0.0
H529 H 0.54914 0.31607 0.12614 0.0
H530 H 0.72179 0.47164 0.19753 0.0
H531 H 0.74121 0.45422 0.13683 0.0
H532 H 0.6981 0.44231 0.26573 0.0
H533 H 0.64539 0.41839 0.29276 0.0
C534 C 0.34469 0.62786 0.66232 0.0
C535 C 0.35856 0.65212 0.61778 0.0
C536 C 0.43135 0.68088 0.66084 0.0
C537 C 0.41765 0.65642 0.70544 0.0
N538 N 0.35577 0.6161 0.75336 0.0
N539 N 0.40803 0.70895 0.57747 0.0
C540 C 0.37253 0.63278 0.70762 0.0
C541 C 0.39953 0.6812 0.61815 0.0
N542 N 0.30588 0.59901 0.66067 0.0
N543 N 0.47597 0.70183 0.65816 0.0
H544 H 0.38596 0.70926 0.54515 0.0
H545 H 0.43415 0.73425 0.57741 0.0
H546 H 0.49989 0.70349 0.6888 0.0
H547 H 0.4909 0.71523 0.62462 0.0
H548 H 0.29761 0.57622 0.68956 0.0
H549 H 0.28324 0.59626 0.62892 0.0
H550 H 0.32106 0.60204 0.75867 0.0
H551 H 0.37487 0.62011 0.78736 0.0
C552 C 0.86257 0.93929 0.14695 0.0
C553 C 0.85053 0.90129 0.11773 0.0
C554 C 0.88627 0.85507 0.18502 0.0
C555 C 0.90827 0.89329 0.20726 0.0
N556 N 0.92757 0.97188 0.1951 0.0
N557 N 0.86094 0.82195 0.10551 0.0
C558 C 0.89909 0.93567 0.18471 0.0
C559 C 0.86492 0.85868 0.13579 0.0
N560 N 0.83968 0.97899 0.13849 0.0
N561 N 0.88422 0.8157 0.21103 0.0
H562 H 0.84858 0.82326 0.068 0.0
H563 H 0.87511 0.79107 0.11597 0.0
H564 H 0.89546 0.81243 0.24881 0.0
H565 H 0.86542 0.78806 0.1973 0.0
H566 H 0.84543 1.00676 0.16153 0.0
H567 H 0.81102 0.98242 0.11263 0.0
H568 H 0.92307 1.00222 0.17635 0.0
H569 H 0.96006 0.97031 0.2156 0.0
C570 C 0.15323 0.17258 0.63169 0.0
C571 C 0.16835 0.1301 0.61361 0.0
C572 C 0.12318 0.09551 0.68445 0.0
C573 C 0.11349 0.13814 0.70641 0.0
N574 N 0.13692 0.21592 0.70758 0.0
N575 N 0.18219 0.05291 0.63499 0.0
C576 C 0.13423 0.17634 0.6823 0.0
C577 C 0.15846 0.09218 0.64428 0.0
N578 N 0.15385 0.2089 0.60028 0.0
N579 N 0.0963 0.05875 0.69772 0.0
H580 H 0.20992 0.04977 0.60713 0.0
H581 H 0.17812 0.02534 0.65897 0.0
H582 H 0.06467 0.05962 0.72061 0.0
H583 H 0.10113 0.02824 0.67939 0.0
H584 H 0.13929 0.23952 0.61158 0.0
H585 H 0.16318 0.20729 0.56151 0.0
H586 H 0.15474 0.24361 0.69193 0.0
H587 H 0.12739 0.21928 0.74617 0.0
C588 C 0.1828 0.91001 0.1705 0.0
C589 C 0.17104 0.89115 0.12257 0.0
C590 C 0.09737 0.85617 0.15973 0.0
C591 C 0.10839 0.87607 0.20734 0.0
N592 N 0.16682 0.91145 0.26223 0.0
N593 N 0.12489 0.83822 0.07345 0.0
C594 C 0.15296 0.89963 0.21406 0.0
C595 C 0.13087 0.86138 0.11793 0.0
N596 N 0.22127 0.93908 0.17377 0.0
N597 N 0.05384 0.8341 0.15389 0.0
H598 H 0.14838 0.84179 0.04175 0.0
H599 H 0.0993 0.81281 0.0692 0.0
H600 H 0.02964 0.82757 0.18427 0.0
H601 H 0.04044 0.82404 0.11865 0.0
H602 H 0.2284 0.95801 0.20613 0.0
H603 H 0.24486 0.94598 0.14287 0.0
H604 H 0.20071 0.92564 0.2705 0.0
H605 H 0.14607 0.90312 0.29479 0.0
C606 C 0.89875 0.17588 0.61727 0.0
C607 C 0.85566 0.14919 0.62063 0.0
C608 C 0.87093 0.13446 0.71148 0.0
C609 C 0.91612 0.15787 0.70686 0.0
N610 N 0.96838 0.20903 0.66012 0.0
N611 N 0.79972 0.10307 0.66919 0.0
C612 C 0.9285 0.18126 0.66119 0.0
C613 C 0.84107 0.12898 0.66754 0.0
N614 N 0.91262 0.19389 0.5711 0.0
N615 N 0.85606 0.11889 0.75844 0.0
H616 H 0.77609 0.10017 0.63826 0.0
H617 H 0.78943 0.08317 0.70013 0.0
H618 H 0.87652 0.1238 0.79139 0.0
H619 H 0.82203 0.1043 0.766 0.0
H620 H 0.94663 0.20857 0.56368 0.0
H621 H 0.89072 0.19251 0.53873 0.0
H622 H 0.97687 0.23061 0.63014 0.0
H623 H 0.99161 0.21317 0.69104 0.0
loop_
_geom_bond_atom_site_label_1
_geom_bond_atom_site_label_2
_geom_bond_distance
_geom_bond_site_symmetry_2
_ccdc_geom_bond_type
H0 C7 0.929 . S
H1 C10 0.930 . S
H2 C12 0.929 . S
H3 C4 0.969 . S
C4 H3 0.969 . S
C4 O5 1.550 1_556 S
C4 H6 0.973 . S
O5 C4 1.550 1_554 S
O5 C11 1.412 . S
H6 C4 0.973 . S
C7 H0 0.929 . S
C7 C8 1.400 . S
C7 C9 1.364 1_554 S
C8 C7 1.400 . S
C8 C12 1.377 . S
C9 C7 1.364 1_556 S
C9 C10 1.374 . S
C10 H1 0.930 . S
C10 C9 1.374 . S
C10 C11 1.383 1_556 S
C11 O5 1.412 . S
C11 C10 1.383 1_554 S
C11 C12 1.394 . S
C12 H2 0.929 . S
C12 C8 1.377 . S
C12 C11 1.394 . S
H13 C20 0.929 . S
H14 C23 0.930 . S
H15 C25 0.929 . S
H16 C17 0.969 . S
C17 H16 0.969 . S
C17 O18 1.550 . S
C17 H19 0.973 . S
O18 C17 1.550 . S
O18 C24 1.412 . S
H19 C17 0.973 . S
C20 H13 0.929 . S
C20 C21 1.400 . S
C20 C22 1.364 . S
C21 C20 1.400 . S
C21 C25 1.377 . S
C22 C20 1.364 . S
C22 C23 1.374 . S
C23 H14 0.930 . S
C23 C22 1.374 . S
C23 C24 1.383 . S
C24 O18 1.412 . S
C24 C23 1.383 . S
C24 C25 1.394 . S
C25 H15 0.929 . S
C25 C21 1.377 . S
C25 C24 1.394 . S
H26 C33 0.929 . S
H27 C36 0.930 . S
H28 C38 0.929 . S
H29 C30 0.969 . S
C30 H29 0.969 . S
C30 O31 1.550 . S
C30 H32 0.973 1_556 S
O31 C30 1.550 . S
O31 C37 1.412 . S
H32 C30 0.973 1_554 S
C33 H26 0.929 . S
C33 C34 1.400 1_554 S
C33 C35 1.364 . S
C34 C33 1.400 1_556 S
C34 C38 1.377 . S
C35 C33 1.364 . S
C35 C36 1.374 . S
C36 H27 0.930 . S
C36 C35 1.374 . S
C36 C37 1.383 1_554 S
C37 O31 1.412 . S
C37 C36 1.383 1_556 S
C37 C38 1.394 . S
C38 H28 0.929 . S
C38 C34 1.377 . S
C38 C37 1.394 . S
H39 C46 0.929 . S
H40 C49 0.930 . S
H41 C51 0.929 . S
H42 C43 0.969 . S
C43 H42 0.969 . S
C43 O44 1.550 . S
C43 H45 0.973 . S
O44 C43 1.550 . S
O44 C50 1.412 . S
H45 C43 0.973 . S
C46 H39 0.929 . S
C46 C47 1.400 . S
C46 C48 1.364 . S
C47 C46 1.400 . S
C47 C51 1.377 . S
C48 C46 1.364 . S
C48 C49 1.374 . S
C49 H40 0.930 . S
C49 C48 1.374 . S
C49 C50 1.383 . S
C50 O44 1.412 . S
C50 C49 1.383 . S
C50 C51 1.394 . S
C51 H41 0.929 . S
C51 C47 1.377 . S
C51 C50 1.394 . S
H52 C59 0.929 . S
H53 C62 0.930 . S
H54 C64 0.929 . S
H55 C56 0.969 . S
C56 H55 0.969 . S
C56 O57 1.550 1_556 S
C56 H58 0.973 . S
O57 C56 1.550 1_554 S
O57 C63 1.412 . S
H58 C56 0.973 . S
C59 H52 0.929 . S
C59 C60 1.400 . S
C59 C61 1.364 1_554 S
C60 C59 1.400 . S
C60 C64 1.377 . S
C61 C59 1.364 1_556 S
C61 C62 1.374 . S
C62 H53 0.930 . S
C62 C61 1.374 . S
C62 C63 1.383 1_556 S
C63 O57 1.412 . S
C63 C62 1.383 1_554 S
C63 C64 1.394 . S
C64 H54 0.929 . S
C64 C60 1.377 . S
C64 C63 1.394 . S
H65 C72 0.929 . S
H66 C75 0.930 . S
H67 C77 0.929 . S
H68 C69 0.969 . S
C69 H68 0.969 . S
C69 O70 1.550 . S
C69 H71 0.973 . S
O70 C69 1.550 . S
O70 C76 1.412 . S
H71 C69 0.973 . S
C72 H65 0.929 . S
C72 C73 1.400 . S
C72 C74 1.364 . S
C73 C72 1.400 . S
C73 C77 1.377 . S
C74 C72 1.364 . S
C74 C75 1.374 . S
C75 H66 0.930 . S
C75 C74 1.374 . S
C75 C76 1.383 . S
C76 O70 1.412 . S
C76 C75 1.383 . S
C76 C77 1.394 . S
C77 H67 0.929 . S
C77 C73 1.377 . S
C77 C76 1.394 . S
H78 C85 0.929 . S
H79 C88 0.930 . S
H80 C90 0.929 . S
H81 C82 0.969 . S
C82 H81 0.969 . S
C82 O83 1.550 . S
C82 H84 0.973 1_556 S
O83 C82 1.550 . S
O83 C89 1.412 . S
H84 C82 0.973 1_554 S
C85 H78 0.929 . S
C85 C86 1.400 1_554 S
C85 C87 1.364 . S
C86 C85 1.400 1_556 S
C86 C90 1.377 . S
C87 C85 1.364 . S
C87 C88 1.374 . S
C88 H79 0.930 . S
C88 C87 1.374 . S
C88 C89 1.383 1_554 S
C89 O83 1.412 . S
C89 C88 1.383 1_556 S
C89 C90 1.394 . S
C90 H80 0.929 . S
C90 C86 1.377 . S
C90 C89 1.394 . S
H91 C98 0.929 . S
H92 C101 0.930 . S
H93 C103 0.929 . S
H94 C95 0.969 . S
C95 H94 0.969 . S
C95 O96 1.550 . S
C95 H97 0.973 . S
O96 C95 1.550 . S
O96 C102 1.412 . S
H97 C95 0.973 . S
C98 H91 0.929 . S
C98 C99 1.400 . S
C98 C100 1.364 . S
C99 C98 1.400 . S
C99 C103 1.377 . S
C100 C98 1.364 . S
C100 C101 1.374 . S
C101 H92 0.930 . S
C101 C100 1.374 . S
C101 C102 1.383 . S
C102 O96 1.412 . S
C102 C101 1.383 . S
C102 C103 1.394 . S
C103 H93 0.929 . S
C103 C99 1.377 . S
C103 C102 1.394 . S
Fe104 O106 1.918 . S
Fe104 O109 1.997 1_455 S
Fe104 O110 2.002 1_455 S
Fe104 O115 1.976 . S
Fe104 O118 1.996 . S
Fe105 O106 1.918 . S
Fe105 O113 1.997 1_455 S
Fe105 O116 1.996 . S
Fe105 O120 1.976 . S
Fe105 O123 2.002 1_455 S
O106 Fe104 1.918 . S
O106 Fe105 1.918 . S
O106 Fe107 1.918 . S
Fe107 O106 1.918 . S
Fe107 O108 2.002 1_455 S
Fe107 O117 1.976 . S
Fe107 O121 1.996 . S
Fe107 O124 1.997 1_455 S
O108 Fe107 2.002 1_655 S
O108 C125 1.295 . S
O109 Fe104 1.997 1_655 S
O109 C125 1.235 . S
O110 Fe104 2.002 1_655 S
O110 C111 1.295 . S
C111 O110 1.295 . S
C111 O113 1.235 . S
C112 O117 1.287 . S
C112 O118 1.255 . S
O113 Fe105 1.997 1_655 S
O113 C111 1.235 . S
C114 O120 1.287 . S
C114 O121 1.255 . S
O115 Fe104 1.976 . S
O115 C122 1.287 . S
O116 Fe105 1.996 . S
O116 C122 1.255 . S
O117 Fe107 1.976 . S
O117 C112 1.287 . S
O118 Fe104 1.996 . S
O118 C112 1.255 . S
C119 O123 1.295 . S
C119 O124 1.235 . S
O120 Fe105 1.976 . S
O120 C114 1.287 . S
O121 Fe107 1.996 . S
O121 C114 1.255 . S
C122 O115 1.287 . S
C122 O116 1.255 . S
O123 Fe105 2.002 1_655 S
O123 C119 1.295 . S
O124 Fe107 1.997 1_655 S
O124 C119 1.235 . S
C125 O108 1.295 . S
C125 O109 1.235 . S
Fe126 O128 1.918 . S
Fe126 O131 1.997 1_655 S
Fe126 O132 2.002 1_655 S
Fe126 O137 1.976 . S
Fe126 O140 1.996 . S
Fe127 O128 1.918 . S
Fe127 O135 1.995 1_655 S
Fe127 O138 1.997 . S
Fe127 O142 1.977 . S
Fe127 O145 2.001 1_655 S
O128 Fe126 1.918 . S
O128 Fe127 1.918 . S
O128 Fe129 1.918 . S
Fe129 O128 1.918 . S
Fe129 O130 2.004 1_655 S
Fe129 O139 1.974 . S
Fe129 O143 1.994 . S
Fe129 O146 1.998 1_655 S
O130 Fe129 2.004 1_455 S
O130 C147 1.295 . S
O131 Fe126 1.997 1_455 S
O131 C147 1.235 . S
O132 Fe126 2.002 1_455 S
O132 C133 1.295 . S
C133 O132 1.295 . S
C133 O135 1.235 . S
C134 O139 1.287 . S
C134 O140 1.255 . S
O135 Fe127 1.995 1_455 S
O135 C133 1.235 . S
C136 O142 1.287 . S
C136 O143 1.255 . S
O137 Fe126 1.976 . S
O137 C144 1.287 . S
O138 Fe127 1.997 . S
O138 C144 1.255 . S
O139 Fe129 1.974 . S
O139 C134 1.287 . S
O140 Fe126 1.996 . S
O140 C134 1.255 . S
C141 O145 1.295 . S
C141 O146 1.235 . S
O142 Fe127 1.977 . S
O142 C136 1.287 . S
O143 Fe129 1.994 . S
O143 C136 1.255 . S
C144 O137 1.287 . S
C144 O138 1.255 . S
O145 Fe127 2.001 1_455 S
O145 C141 1.295 . S
O146 Fe129 1.998 1_455 S
O146 C141 1.235 . S
C147 O130 1.295 . S
C147 O131 1.235 . S
Fe148 O150 1.918 . S
Fe148 O153 1.997 . S
Fe148 O154 2.002 . S
Fe148 O159 1.976 . S
Fe148 O162 1.996 . S
Fe149 O150 1.918 . S
Fe149 O157 1.997 . S
Fe149 O160 1.996 . S
Fe149 O164 1.976 . S
Fe149 O167 2.002 . S
O150 Fe148 1.918 . S
O150 Fe149 1.918 . S
O150 Fe151 1.918 . S
Fe151 O150 1.918 . S
Fe151 O152 2.002 . S
Fe151 O161 1.976 . S
Fe151 O165 1.996 . S
Fe151 O168 1.997 . S
O152 Fe151 2.002 . S
O152 C169 1.295 . S
O153 Fe148 1.997 . S
O153 C169 1.235 . S
O154 Fe148 2.002 . S
O154 C155 1.295 . S
C155 O154 1.295 . S
C155 O157 1.235 . S
C156 O161 1.287 . S
C156 O162 1.255 . S
O157 Fe149 1.997 . S
O157 C155 1.235 . S
C158 O164 1.287 . S
C158 O165 1.255 . S
O159 Fe148 1.976 . S
O159 C166 1.287 . S
O160 Fe149 1.996 . S
O160 C166 1.255 . S
O161 Fe151 1.976 . S
O161 C156 1.287 . S
O162 Fe148 1.996 . S
O162 C156 1.255 . S
C163 O167 1.295 . S
C163 O168 1.235 . S
O164 Fe149 1.976 . S
O164 C158 1.287 . S
O165 Fe151 1.996 . S
O165 C158 1.255 . S
C166 O159 1.287 . S
C166 O160 1.255 . S
O167 Fe149 2.002 . S
O167 C163 1.295 . S
O168 Fe151 1.997 . S
O168 C163 1.235 . S
C169 O152 1.295 . S
C169 O153 1.235 . S
Fe170 O172 1.918 . S
Fe170 O175 1.997 . S
Fe170 O176 2.002 . S
Fe170 O181 1.976 . S
Fe170 O184 1.996 . S
Fe171 O172 1.918 . S
Fe171 O179 1.997 . S
Fe171 O182 1.996 . S
Fe171 O186 1.976 . S
Fe171 O189 2.002 . S
O172 Fe170 1.918 . S
O172 Fe171 1.918 . S
O172 Fe173 1.918 . S
Fe173 O172 1.918 . S
Fe173 O174 2.002 . S
Fe173 O183 1.976 . S
Fe173 O187 1.996 . S
Fe173 O190 1.997 . S
O174 Fe173 2.002 . S
O174 C191 1.295 . S
O175 Fe170 1.997 . S
O175 C191 1.235 . S
O176 Fe170 2.002 . S
O176 C177 1.295 . S
C177 O176 1.295 . S
C177 O179 1.235 . S
C178 O183 1.287 . S
C178 O184 1.255 . S
O179 Fe171 1.997 . S
O179 C177 1.235 . S
C180 O186 1.287 . S
C180 O187 1.255 . S
O181 Fe170 1.976 . S
O181 C188 1.287 . S
O182 Fe171 1.996 . S
O182 C188 1.255 . S
O183 Fe173 1.976 . S
O183 C178 1.287 . S
O184 Fe170 1.996 . S
O184 C178 1.255 . S
C185 O189 1.295 . S
C185 O190 1.235 . S
O186 Fe171 1.976 . S
O186 C180 1.287 . S
O187 Fe173 1.996 . S
O187 C180 1.255 . S
C188 O181 1.287 . S
C188 O182 1.255 . S
O189 Fe171 2.002 . S
O189 C185 1.295 . S
O190 Fe173 1.997 . S
O190 C185 1.235 . S
C191 O174 1.295 . S
C191 O175 1.235 . S
C192 C193 1.363 . S
C192 C198 1.379 . S
C192 N200 1.356 . S
C193 C192 1.363 . S
C193 C199 1.363 . S
C194 C195 1.363 . S
C194 C199 1.379 . S
C194 N201 1.356 . S
C195 C194 1.363 . S
C195 C198 1.363 . S
N196 C198 1.356 . S
N196 H208 0.984 . S
N196 H209 0.985 . S
N197 C199 1.357 1_554 S
N197 H202 0.984 . S
N197 H203 0.984 . S
C198 C192 1.379 . S
C198 C195 1.363 . S
C198 N196 1.356 . S
C199 C193 1.363 . S
C199 C194 1.379 . S
C199 N197 1.357 1_556 S
N200 C192 1.356 . S
N200 H206 0.984 . S
N200 H207 0.984 . S
N201 C194 1.356 . S
N201 H204 0.984 . S
N201 H205 0.985 . S
H202 N197 0.984 . S
H203 N197 0.984 . S
H204 N201 0.984 . S
H205 N201 0.985 . S
H206 N200 0.984 . S
H207 N200 0.984 . S
H208 N196 0.984 . S
H209 N196 0.985 . S
C210 C211 1.363 . S
C210 C216 1.379 . S
C210 N218 1.356 . S
C211 C210 1.363 . S
C211 C217 1.363 . S
C212 C213 1.363 . S
C212 C217 1.379 . S
C212 N219 1.356 . S
C213 C212 1.363 . S
C213 C216 1.363 . S
N214 C216 1.356 . S
N214 H226 0.984 . S
N214 H227 0.985 . S
N215 C217 1.356 . S
N215 H220 0.984 . S
N215 H221 0.985 . S
C216 C210 1.379 . S
C216 C213 1.363 . S
C216 N214 1.356 . S
C217 C211 1.363 . S
C217 C212 1.379 . S
C217 N215 1.356 . S
N218 C210 1.356 . S
N218 H224 0.984 . S
N218 H225 0.984 . S
N219 C212 1.356 . S
N219 H222 0.984 . S
N219 H223 0.985 . S
H220 N215 0.984 . S
H221 N215 0.985 . S
H222 N219 0.984 . S
H223 N219 0.985 . S
H224 N218 0.984 . S
H225 N218 0.984 . S
H226 N214 0.984 . S
H227 N214 0.985 . S
C228 C229 1.363 . S
C228 C234 1.379 . S
C228 N236 1.356 1_556 S
C229 C228 1.363 . S
C229 C235 1.363 . S
C230 C231 1.363 . S
C230 C235 1.379 . S
C230 N237 1.356 . S
C231 C230 1.363 . S
C231 C234 1.363 . S
N232 C234 1.356 . S
N232 H244 0.984 . S
N232 H245 0.985 . S
N233 C235 1.356 . S
N233 H238 0.984 . S
N233 H239 0.985 . S
C234 C228 1.379 . S
C234 C231 1.363 . S
C234 N232 1.356 . S
C235 C229 1.363 . S
C235 C230 1.379 . S
C235 N233 1.356 . S
N236 C228 1.356 1_554 S
N236 H242 0.984 . S
N236 H243 0.984 . S
N237 C230 1.356 . S
N237 H240 0.984 . S
N237 H241 0.985 . S
H238 N233 0.984 . S
H239 N233 0.985 . S
H240 N237 0.984 . S
H241 N237 0.985 . S
H242 N236 0.984 . S
H243 N236 0.984 . S
H244 N232 0.984 . S
H245 N232 0.985 . S
C246 C247 1.363 . S
C246 C252 1.379 . S
C246 N254 1.356 . S
C247 C246 1.363 . S
C247 C253 1.363 . S
C248 C249 1.363 . S
C248 C253 1.379 . S
C248 N255 1.356 . S
C249 C248 1.363 . S
C249 C252 1.363 . S
N250 C252 1.356 . S
N250 H262 0.984 . S
N250 H263 0.985 . S
N251 C253 1.356 . S
N251 H256 0.984 . S
N251 H257 0.985 . S
C252 C246 1.379 . S
C252 C249 1.363 . S
C252 N250 1.356 . S
C253 C247 1.363 . S
C253 C248 1.379 . S
C253 N251 1.356 . S
N254 C246 1.356 . S
N254 H260 0.984 . S
N254 H261 0.984 . S
N255 C248 1.356 . S
N255 H258 0.984 . S
N255 H259 0.985 . S
H256 N251 0.984 . S
H257 N251 0.985 . S
H258 N255 0.984 . S
H259 N255 0.985 . S
H260 N254 0.984 . S
H261 N254 0.984 . S
H262 N250 0.984 . S
H263 N250 0.985 . S
C264 C265 1.363 . S
C264 C270 1.379 . S
C264 N272 1.356 . S
C265 C264 1.363 . S
C265 C271 1.363 . S
C266 C267 1.363 . S
C266 C271 1.379 . S
C266 N273 1.356 . S
C267 C266 1.363 . S
C267 C270 1.363 . S
N268 C270 1.356 . S
N268 H280 0.984 . S
N268 H281 0.985 . S
N269 C271 1.356 . S
N269 H274 0.984 . S
N269 H275 0.985 . S
C270 C264 1.379 . S
C270 C267 1.363 . S
C270 N268 1.356 . S
C271 C265 1.363 . S
C271 C266 1.379 . S
C271 N269 1.356 . S
N272 C264 1.356 . S
N272 H278 0.984 1_556 S
N272 H279 0.984 1_556 S
N273 C266 1.356 . S
N273 H276 0.984 . S
N273 H277 0.985 . S
H274 N269 0.984 . S
H275 N269 0.985 . S
H276 N273 0.984 . S
H277 N273 0.985 . S
H278 N272 0.984 1_554 S
H279 N272 0.984 1_554 S
H280 N268 0.984 . S
H281 N268 0.985 . S
C282 C283 1.363 . S
C282 C288 1.379 . S
C282 N290 1.356 . S
C283 C282 1.363 . S
C283 C289 1.363 . S
C284 C285 1.363 . S
C284 C289 1.379 . S
C284 N291 1.356 . S
C285 C284 1.363 . S
C285 C288 1.363 . S
N286 C288 1.356 . S
N286 H298 0.984 . S
N286 H299 0.985 . S
N287 C289 1.356 . S
N287 H292 0.984 . S
N287 H293 0.985 . S
C288 C282 1.379 . S
C288 C285 1.363 . S
C288 N286 1.356 . S
C289 C283 1.363 . S
C289 C284 1.379 . S
C289 N287 1.356 . S
N290 C282 1.356 . S
N290 H296 0.984 . S
N290 H297 0.984 . S
N291 C284 1.356 . S
N291 H294 0.984 . S
N291 H295 0.985 . S
H292 N287 0.984 . S
H293 N287 0.985 . S
H294 N291 0.984 . S
H295 N291 0.985 . S
H296 N290 0.984 . S
H297 N290 0.984 . S
H298 N286 0.984 . S
H299 N286 0.985 . S
C300 C301 1.363 . S
C300 C306 1.379 . S
C300 N308 1.356 1_556 S
C301 C300 1.363 . S
C301 C307 1.363 . S
C302 C303 1.363 . S
C302 C307 1.379 . S
C302 N309 1.356 . S
C303 C302 1.363 . S
C303 C306 1.363 . S
N304 C306 1.356 . S
N304 H316 0.984 . S
N304 H317 0.985 . S
N305 C307 1.356 . S
N305 H310 0.984 . S
N305 H311 0.985 . S
C306 C300 1.379 . S
C306 C303 1.363 . S
C306 N304 1.356 . S
C307 C301 1.363 . S
C307 C302 1.379 . S
C307 N305 1.356 . S
N308 C300 1.356 1_554 S
N308 H314 0.984 . S
N308 H315 0.984 . S
N309 C302 1.356 . S
N309 H312 0.984 . S
N309 H313 0.985 . S
H310 N305 0.984 . S
H311 N305 0.985 . S
H312 N309 0.984 . S
H313 N309 0.985 . S
H314 N308 0.984 . S
H315 N308 0.984 . S
H316 N304 0.984 . S
H317 N304 0.985 . S
C318 C319 1.363 . S
C318 C324 1.379 . S
C318 N326 1.356 . S
C319 C318 1.363 . S
C319 C325 1.363 . S
C320 C321 1.363 . S
C320 C325 1.379 . S
C320 N327 1.356 . S
C321 C320 1.363 . S
C321 C324 1.363 . S
N322 C324 1.356 . S
N322 H334 0.984 . S
N322 H335 0.985 . S
N323 C325 1.356 . S
N323 H328 0.984 . S
N323 H329 0.985 . S
C324 C318 1.379 . S
C324 C321 1.363 . S
C324 N322 1.356 . S
C325 C319 1.363 . S
C325 C320 1.379 . S
C325 N323 1.356 . S
N326 C318 1.356 . S
N326 H332 0.984 . S
N326 H333 0.984 . S
N327 C320 1.356 . S
N327 H330 0.984 . S
N327 H331 0.985 . S
H328 N323 0.984 . S
H329 N323 0.985 . S
H330 N327 0.984 . S
H331 N327 0.985 . S
H332 N326 0.984 . S
H333 N326 0.984 . S
H334 N322 0.984 . S
H335 N322 0.985 . S
C336 C337 1.363 . S
C336 C342 1.379 . S
C336 N344 1.356 1_556 S
C337 C336 1.363 . S
C337 C343 1.363 . S
C338 C339 1.363 . S
C338 C343 1.379 . S
C338 N345 1.356 . S
C339 C338 1.363 . S
C339 C342 1.363 . S
N340 C342 1.356 . S
N340 H352 0.984 . S
N340 H353 0.985 . S
N341 C343 1.356 . S
N341 H346 0.984 . S
N341 H347 0.985 . S
C342 C336 1.379 . S
C342 C339 1.363 . S
C342 N340 1.356 . S
C343 C337 1.363 . S
C343 C338 1.379 . S
C343 N341 1.356 . S
N344 C336 1.356 1_554 S
N344 H350 0.984 . S
N344 H351 0.984 . S
N345 C338 1.356 . S
N345 H348 0.984 . S
N345 H349 0.985 . S
H346 N341 0.984 . S
H347 N341 0.985 . S
H348 N345 0.984 . S
H349 N345 0.985 . S
H350 N344 0.984 . S
H351 N344 0.984 . S
H352 N340 0.984 . S
H353 N340 0.985 . S
C354 C355 1.363 . S
C354 C360 1.379 . S
C354 N362 1.356 . S
C355 C354 1.363 . S
C355 C361 1.363 . S
C356 C357 1.363 . S
C356 C361 1.379 . S
C356 N363 1.356 . S
C357 C356 1.363 . S
C357 C360 1.363 . S
N358 C360 1.356 . S
N358 H370 0.984 . S
N358 H371 0.985 . S
N359 C361 1.356 . S
N359 H364 0.984 . S
N359 H365 0.985 . S
C360 C354 1.379 . S
C360 C357 1.363 . S
C360 N358 1.356 . S
C361 C355 1.363 . S
C361 C356 1.379 . S
C361 N359 1.356 . S
N362 C354 1.356 . S
N362 H368 0.984 . S
N362 H369 0.984 . S
N363 C356 1.356 . S
N363 H366 0.984 . S
N363 H367 0.985 . S
H364 N359 0.984 . S
H365 N359 0.985 . S
H366 N363 0.984 . S
H367 N363 0.985 . S
H368 N362 0.984 . S
H369 N362 0.984 . S
H370 N358 0.984 . S
H371 N358 0.985 . S
C372 C373 1.363 . S
C372 C378 1.379 . S
C372 N380 1.356 1_556 S
C373 C372 1.363 . S
C373 C379 1.363 . S
C374 C375 1.363 . S
C374 C379 1.379 . S
C374 N381 1.356 . S
C375 C374 1.363 . S
C375 C378 1.363 . S
N376 C378 1.356 . S
N376 H388 0.984 1_556 S
N376 H389 0.985 . S
N377 C379 1.356 . S
N377 H382 0.984 . S
N377 H383 0.985 . S
C378 C372 1.379 . S
C378 C375 1.363 . S
C378 N376 1.356 . S
C379 C373 1.363 . S
C379 C374 1.379 . S
C379 N377 1.356 . S
N380 C372 1.356 1_554 S
N380 H386 0.984 . S
N380 H387 0.984 . S
N381 C374 1.356 . S
N381 H384 0.984 . S
N381 H385 0.985 . S
H382 N377 0.984 . S
H383 N377 0.985 . S
H384 N381 0.984 . S
H385 N381 0.985 . S
H386 N380 0.984 . S
H387 N380 0.984 . S
H388 N376 0.984 1_554 S
H389 N376 0.985 . S
C390 C391 1.363 . S
C390 C396 1.379 . S
C390 N398 1.356 . S
C391 C390 1.363 . S
C391 C397 1.363 . S
C392 C393 1.363 . S
C392 C397 1.379 . S
C392 N399 1.356 . S
C393 C392 1.363 . S
C393 C396 1.363 . S
N394 C396 1.356 . S
N394 H406 0.984 . S
N394 H407 0.985 . S
N395 C397 1.356 . S
N395 H400 0.984 . S
N395 H401 0.985 . S
C396 C390 1.379 . S
C396 C393 1.363 . S
C396 N394 1.356 . S
C397 C391 1.363 . S
C397 C392 1.379 . S
C397 N395 1.356 . S
N398 C390 1.356 . S
N398 H404 0.984 . S
N398 H405 0.984 . S
N399 C392 1.356 . S
N399 H402 0.984 . S
N399 H403 0.985 . S
H400 N395 0.984 . S
H401 N395 0.985 . S
H402 N399 0.984 . S
H403 N399 0.985 . S
H404 N398 0.984 . S
H405 N398 0.984 . S
H406 N394 0.984 . S
H407 N394 0.985 . S
C408 C409 1.363 . S
C408 C414 1.379 . S
C408 N416 1.356 . S
C409 C408 1.363 . S
C409 C415 1.363 1_565 S
C410 C411 1.363 . S
C410 C415 1.379 . S
C410 N417 1.356 . S
C411 C410 1.363 . S
C411 C414 1.363 1_545 S
N412 C414 1.356 . S
N412 H424 0.984 . S
N412 H425 0.985 . S
N413 C415 1.356 . S
N413 H418 0.984 1_546 S
N413 H419 0.985 1_556 S
C414 C408 1.379 . S
C414 C411 1.363 1_565 S
C414 N412 1.356 . S
C415 C409 1.363 1_545 S
C415 C410 1.379 . S
C415 N413 1.356 . S
N416 C408 1.356 . S
N416 H422 0.984 . S
N416 H423 0.984 . S
N417 C410 1.356 . S
N417 H420 0.984 . S
N417 H421 0.985 . S
H418 N413 0.984 1_564 S
H419 N413 0.985 1_554 S
H420 N417 0.984 . S
H421 N417 0.985 . S
H422 N416 0.984 . S
H423 N416 0.984 . S
H424 N412 0.984 . S
H425 N412 0.985 . S
C426 C427 1.363 . S
C426 C432 1.379 . S
C426 N434 1.356 . S
C427 C426 1.363 . S
C427 C433 1.363 . S
C428 C429 1.363 . S
C428 C433 1.379 1_565 S
C428 N435 1.356 . S
C429 C428 1.363 . S
C429 C432 1.363 1_565 S
N430 C432 1.356 . S
N430 H442 0.984 . S
N430 H443 0.985 1_545 S
N431 C433 1.356 . S
N431 H436 0.984 . S
N431 H437 0.985 1_545 S
C432 C426 1.379 . S
C432 C429 1.363 1_545 S
C432 N430 1.356 . S
C433 C427 1.363 . S
C433 C428 1.379 1_545 S
C433 N431 1.356 . S
N434 C426 1.356 . S
N434 H440 0.984 . S
N434 H441 0.984 . S
N435 C428 1.356 . S
N435 H438 0.984 . S
N435 H439 0.985 . S
H436 N431 0.984 . S
H437 N431 0.985 1_565 S
H438 N435 0.984 . S
H439 N435 0.985 . S
H440 N434 0.984 . S
H441 N434 0.984 . S
H442 N430 0.984 . S
H443 N430 0.985 1_565 S
C444 C445 1.363 . S
C444 C450 1.379 1_565 S
C444 N452 1.356 1_556 S
C445 C444 1.363 . S
C445 C451 1.363 . S
C446 C447 1.363 . S
C446 C451 1.379 1_545 S
C446 N453 1.356 . S
C447 C446 1.363 . S
C447 C450 1.363 . S
N448 C450 1.356 . S
N448 H460 0.984 1_556 S
N448 H461 0.985 . S
N449 C451 1.356 . S
N449 H454 0.984 . S
N449 H455 0.985 . S
C450 C444 1.379 1_545 S
C450 C447 1.363 . S
C450 N448 1.356 . S
C451 C445 1.363 . S
C451 C446 1.379 1_565 S
C451 N449 1.356 . S
N452 C444 1.356 1_554 S
N452 H458 0.984 . S
N452 H459 0.984 . S
N453 C446 1.356 . S
N453 H456 0.984 . S
N453 H457 0.985 . S
H454 N449 0.984 . S
H455 N449 0.985 . S
H456 N453 0.984 . S
H457 N453 0.985 . S
H458 N452 0.984 . S
H459 N452 0.984 . S
H460 N448 0.984 1_554 S
H461 N448 0.985 . S
C462 C463 1.363 . S
C462 C468 1.379 1_545 S
C462 N470 1.356 . S
C463 C462 1.363 . S
C463 C469 1.363 . S
C464 C465 1.363 . S
C464 C469 1.379 1_565 S
C464 N471 1.356 . S
C465 C464 1.363 . S
C465 C468 1.363 . S
N466 C468 1.356 . S
N466 H478 0.984 . S
N466 H479 0.985 . S
N467 C469 1.356 . S
N467 H472 0.984 . S
N467 H473 0.985 . S
C468 C462 1.379 1_565 S
C468 C465 1.363 . S
C468 N466 1.356 . S
C469 C463 1.363 . S
C469 C464 1.379 1_545 S
C469 N467 1.356 . S
N470 C462 1.356 . S
N470 H476 0.984 . S
N470 H477 0.984 . S
N471 C464 1.356 . S
N471 H474 0.984 . S
N471 H475 0.985 . S
H472 N467 0.984 . S
H473 N467 0.985 . S
H474 N471 0.984 . S
H475 N471 0.985 . S
H476 N470 0.984 . S
H477 N470 0.984 . S
H478 N466 0.984 . S
H479 N466 0.985 . S
C480 C481 1.363 . S
C480 C486 1.379 . S
C480 N488 1.356 . S
C481 C480 1.363 . S
C481 C487 1.363 . S
C482 C483 1.363 . S
C482 C487 1.379 . S
C482 N489 1.356 . S
C483 C482 1.363 . S
C483 C486 1.363 . S
N484 C486 1.356 . S
N484 H496 0.984 . S
N484 H497 0.985 . S
N485 C487 1.356 . S
N485 H490 0.984 . S
N485 H491 0.985 . S
C486 C480 1.379 . S
C486 C483 1.363 . S
C486 N484 1.356 . S
C487 C481 1.363 . S
C487 C482 1.379 . S
C487 N485 1.356 . S
N488 C480 1.356 . S
N488 H494 0.984 . S
N488 H495 0.984 . S
N489 C482 1.356 . S
N489 H492 0.984 . S
N489 H493 0.985 . S
H490 N485 0.984 . S
H491 N485 0.985 . S
H492 N489 0.984 . S
H493 N489 0.985 . S
H494 N488 0.984 . S
H495 N488 0.984 . S
H496 N484 0.984 . S
H497 N484 0.985 . S
C498 C499 1.363 . S
C498 C504 1.379 . S
C498 N506 1.356 . S
C499 C498 1.363 . S
C499 C505 1.363 . S
C500 C501 1.363 . S
C500 C505 1.379 . S
C500 N507 1.356 . S
C501 C500 1.363 . S
C501 C504 1.363 . S
N502 C504 1.356 . S
N502 H514 0.984 . S
N502 H515 0.985 . S
N503 C505 1.356 . S
N503 H508 0.984 . S
N503 H509 0.985 . S
C504 C498 1.379 . S
C504 C501 1.363 . S
C504 N502 1.356 . S
C505 C499 1.363 . S
C505 C500 1.379 . S
C505 N503 1.356 . S
N506 C498 1.356 . S
N506 H512 0.984 . S
N506 H513 0.984 . S
N507 C500 1.356 . S
N507 H510 0.984 . S
N507 H511 0.985 . S
H508 N503 0.984 . S
H509 N503 0.985 . S
H510 N507 0.984 . S
H511 N507 0.985 . S
H512 N506 0.984 . S
H513 N506 0.984 . S
H514 N502 0.984 . S
H515 N502 0.985 . S
C516 C517 1.363 . S
C516 C522 1.379 . S
C516 N524 1.356 . S
C517 C516 1.363 . S
C517 C523 1.363 . S
C518 C519 1.363 . S
C518 C523 1.379 . S
C518 N525 1.356 . S
C519 C518 1.363 . S
C519 C522 1.363 . S
N520 C522 1.356 . S
N520 H532 0.984 . S
N520 H533 0.985 . S
N521 C523 1.356 . S
N521 H526 0.984 . S
N521 H527 0.985 . S
C522 C516 1.379 . S
C522 C519 1.363 . S
C522 N520 1.356 . S
C523 C517 1.363 . S
C523 C518 1.379 . S
C523 N521 1.356 . S
N524 C516 1.356 . S
N524 H530 0.984 . S
N524 H531 0.984 . S
N525 C518 1.356 . S
N525 H528 0.984 . S
N525 H529 0.985 . S
H526 N521 0.984 . S
H527 N521 0.985 . S
H528 N525 0.984 . S
H529 N525 0.985 . S
H530 N524 0.984 . S
H531 N524 0.984 . S
H532 N520 0.984 . S
H533 N520 0.985 . S
C534 C535 1.363 . S
C534 C540 1.379 . S
C534 N542 1.356 . S
C535 C534 1.363 . S
C535 C541 1.363 . S
C536 C537 1.363 . S
C536 C541 1.379 . S
C536 N543 1.356 . S
C537 C536 1.363 . S
C537 C540 1.363 . S
N538 C540 1.356 . S
N538 H550 0.984 . S
N538 H551 0.985 . S
N539 C541 1.356 . S
N539 H544 0.984 . S
N539 H545 0.985 . S
C540 C534 1.379 . S
C540 C537 1.363 . S
C540 N538 1.356 . S
C541 C535 1.363 . S
C541 C536 1.379 . S
C541 N539 1.356 . S
N542 C534 1.356 . S
N542 H548 0.984 . S
N542 H549 0.984 . S
N543 C536 1.356 . S
N543 H546 0.984 . S
N543 H547 0.985 . S
H544 N539 0.984 . S
H545 N539 0.985 . S
H546 N543 0.984 . S
H547 N543 0.985 . S
H548 N542 0.984 . S
H549 N542 0.984 . S
H550 N538 0.984 . S
H551 N538 0.985 . S
C552 C553 1.363 . S
C552 C558 1.379 . S
C552 N560 1.356 . S
C553 C552 1.363 . S
C553 C559 1.363 . S
C554 C555 1.363 . S
C554 C559 1.379 . S
C554 N561 1.356 . S
C555 C554 1.363 . S
C555 C558 1.363 . S
N556 C558 1.356 . S
N556 H568 0.984 . S
N556 H569 0.985 . S
N557 C559 1.356 . S
N557 H562 0.984 . S
N557 H563 0.985 . S
C558 C552 1.379 . S
C558 C555 1.363 . S
C558 N556 1.356 . S
C559 C553 1.363 . S
C559 C554 1.379 . S
C559 N557 1.356 . S
N560 C552 1.356 . S
N560 H566 0.984 . S
N560 H567 0.984 . S
N561 C554 1.356 . S
N561 H564 0.984 . S
N561 H565 0.985 . S
H562 N557 0.984 . S
H563 N557 0.985 . S
H564 N561 0.984 . S
H565 N561 0.985 . S
H566 N560 0.984 . S
H567 N560 0.984 . S
H568 N556 0.984 . S
H569 N556 0.985 . S
C570 C571 1.363 . S
C570 C576 1.379 . S
C570 N578 1.356 . S
C571 C570 1.363 . S
C571 C577 1.363 . S
C572 C573 1.363 . S
C572 C577 1.379 . S
C572 N579 1.356 . S
C573 C572 1.363 . S
C573 C576 1.363 . S
N574 C576 1.356 . S
N574 H586 0.984 . S
N574 H587 0.985 . S
N575 C577 1.356 . S
N575 H580 0.984 . S
N575 H581 0.985 . S
C576 C570 1.379 . S
C576 C573 1.363 . S
C576 N574 1.356 . S
C577 C571 1.363 . S
C577 C572 1.379 . S
C577 N575 1.356 . S
N578 C570 1.356 . S
N578 H584 0.984 . S
N578 H585 0.984 . S
N579 C572 1.356 . S
N579 H582 0.984 . S
N579 H583 0.985 . S
H580 N575 0.984 . S
H581 N575 0.985 . S
H582 N579 0.984 . S
H583 N579 0.985 . S
H584 N578 0.984 . S
H585 N578 0.984 . S
H586 N574 0.984 . S
H587 N574 0.985 . S
C588 C589 1.363 . S
C588 C594 1.379 . S
C588 N596 1.356 . S
C589 C588 1.363 . S
C589 C595 1.363 . S
C590 C591 1.363 . S
C590 C595 1.379 . S
C590 N597 1.356 . S
C591 C590 1.363 . S
C591 C594 1.363 . S
N592 C594 1.356 . S
N592 H604 0.984 . S
N592 H605 0.985 . S
N593 C595 1.356 . S
N593 H598 0.984 . S
N593 H599 0.985 . S
C594 C588 1.379 . S
C594 C591 1.363 . S
C594 N592 1.356 . S
C595 C589 1.363 . S
C595 C590 1.379 . S
C595 N593 1.356 . S
N596 C588 1.356 . S
N596 H602 0.984 . S
N596 H603 0.984 . S
N597 C590 1.356 . S
N597 H600 0.984 . S
N597 H601 0.985 . S
H598 N593 0.984 . S
H599 N593 0.985 . S
H600 N597 0.984 . S
H601 N597 0.985 . S
H602 N596 0.984 . S
H603 N596 0.984 . S
H604 N592 0.984 . S
H605 N592 0.985 . S
C606 C607 1.363 . S
C606 C612 1.379 . S
C606 N614 1.356 . S
C607 C606 1.363 . S
C607 C613 1.363 . S
C608 C609 1.363 . S
C608 C613 1.379 . S
C608 N615 1.356 . S
C609 C608 1.363 . S
C609 C612 1.363 . S
N610 C612 1.356 . S
N610 H622 0.984 . S
N610 H623 0.985 . S
N611 C613 1.356 . S
N611 H616 0.984 . S
N611 H617 0.985 . S
C612 C606 1.379 . S
C612 C609 1.363 . S
C612 N610 1.356 . S
C613 C607 1.363 . S
C613 C608 1.379 . S
C613 N611 1.356 . S
N614 C606 1.356 . S
N614 H620 0.984 . S
N614 H621 0.984 . S
N615 C608 1.356 . S
N615 H618 0.984 . S
N615 H619 0.985 . S
H616 N611 0.984 . S
H617 N611 0.985 . S
H618 N615 0.984 . S
H619 N615 0.985 . S
H620 N614 0.984 . S
H621 N614 0.984 . S
H622 N610 0.984 . S
H623 N610 0.985 . S
C193 C4 1.523 . S
C195 C147 1.586 . S
C213 C111 1.479 . S
C211 C17 1.475 . S
C231 C134 1.484 . S
C229 C30 1.405 . S
C249 C122 1.593 . S
C247 C43 1.571 . S
C267 C191 1.586 . S
C265 C56 1.523 . S
C285 C155 1.479 . S
C283 C69 1.475 . S
C301 C82 1.405 . S
C303 C178 1.484 . S
C321 C166 1.593 . S
C319 C95 1.571 . S
C337 C9 1.537 . S
C339 C188 1.575 . S
C357 C158 1.467 . S
C355 C21 1.455 . S
C373 C34 1.468 . S
C375 C177 1.478 . S
C391 C48 1.560 . S
C393 C163 1.588 . S
C411 C144 1.575 . S
C409 C61 1.537 . S
C427 C73 1.455 . S
C429 C114 1.467 . S
C447 C133 1.478 . S
C445 C86 1.468 . S
C465 C119 1.587 . S
C463 C100 1.560 . S
C483 C169 1.529 . S
C481 C8 1.521 . S
C501 C185 1.535 . S
C499 C22 1.514 . S
C517 C35 1.485 . S
C519 C156 1.518 . S
C537 C180 1.514 . S
C535 C47 1.501 . S
C555 C125 1.529 . S
C553 C60 1.521 . S
C571 C74 1.514 . S
C573 C141 1.535 . S
C589 C87 1.485 . S
C591 C112 1.518 . S
C607 C99 1.501 . S
C609 C136 1.514 . S
