# Generated by pormake.
# Topology ssa, (4,4)-cn, num edge types: 1
# Building blocks:
#     Node 0, Type 0, BuildingBlock: KOZSID_clean_sbu_0, # of connection points: 4
#     Node 1, Type 0, BuildingBlock: KOZSID_clean_sbu_0, # of connection points: 4
#     Node 2, Type 0, BuildingBlock: KOZSID_clean_sbu_0, # of connection points: 4
#     Node 3, Type 0, BuildingBlock: KOZSID_clean_sbu_0, # of connection points: 4
#     Node 4, Type 0, BuildingBlock: KOZSID_clean_sbu_0, # of connection points: 4
#     Node 5, Type 0, BuildingBlock: KOZSID_clean_sbu_0, # of connection points: 4
#     Node 6, Type 1, BuildingBlock: NAHDIM_clean_linker_0, # of connection points: 4
#     Node 7, Type 1, BuildingBlock: NAHDIM_clean_linker_0, # of connection points: 4
#     Node 8, Type 1, BuildingBlock: NAHDIM_clean_linker_0, # of connection points: 4
#     Node 9, Type 1, BuildingBlock: NAHDIM_clean_linker_0, # of connection points: 4
#     Node 10, Type 1, BuildingBlock: NAHDIM_clean_linker_0, # of connection points: 4
#     Node 11, Type 1, BuildingBlock: NAHDIM_clean_linker_0, # of connection points: 4
#     Edge 12, Type (0, 1), BuildingBlock: KIFKEQ_clean_linker_1, # of connection points: 2
#     Edge 13, Type (0, 1), BuildingBlock: KIFKEQ_clean_linker_1, # of connection points: 2
#     Edge 14, Type (0, 1), BuildingBlock: KIFKEQ_clean_linker_1, # of connection points: 2
#     Edge 15, Type (0, 1), BuildingBlock: KIFKEQ_clean_linker_1, # of connection points: 2
#     Edge 16, Type (0, 1), BuildingBlock: KIFKEQ_clean_linker_1, # of connection points: 2
#     Edge 17, Type (0, 1), BuildingBlock: KIFKEQ_clean_linker_1, # of connection points: 2
#     Edge 18, Type (0, 1), BuildingBlock: KIFKEQ_clean_linker_1, # of connection points: 2
#     Edge 19, Type (0, 1), BuildingBlock: KIFKEQ_clean_linker_1, # of connection points: 2
#     Edge 20, Type (0, 1), BuildingBlock: KIFKEQ_clean_linker_1, # of connection points: 2
#     Edge 21, Type (0, 1), BuildingBlock: KIFKEQ_clean_linker_1, # of connection points: 2
#     Edge 22, Type (0, 1), BuildingBlock: KIFKEQ_clean_linker_1, # of connection points: 2
#     Edge 23, Type (0, 1), BuildingBlock: KIFKEQ_clean_linker_1, # of connection points: 2
#     Edge 24, Type (0, 1), BuildingBlock: KIFKEQ_clean_linker_1, # of connection points: 2
#     Edge 25, Type (0, 1), BuildingBlock: KIFKEQ_clean_linker_1, # of connection points: 2
#     Edge 26, Type (0, 1), BuildingBlock: KIFKEQ_clean_linker_1, # of connection points: 2
#     Edge 27, Type (0, 1), BuildingBlock: KIFKEQ_clean_linker_1, # of connection points: 2
#     Edge 28, Type (0, 1), BuildingBlock: KIFKEQ_clean_linker_1, # of connection points: 2
#     Edge 29, Type (0, 1), BuildingBlock: KIFKEQ_clean_linker_1, # of connection points: 2
#     Edge 30, Type (0, 1), BuildingBlock: KIFKEQ_clean_linker_1, # of connection points: 2
#     Edge 31, Type (0, 1), BuildingBlock: KIFKEQ_clean_linker_1, # of connection points: 2
#     Edge 32, Type (0, 1), BuildingBlock: KIFKEQ_clean_linker_1, # of connection points: 2
#     Edge 33, Type (0, 1), BuildingBlock: KIFKEQ_clean_linker_1, # of connection points: 2
#     Edge 34, Type (0, 1), BuildingBlock: KIFKEQ_clean_linker_1, # of connection points: 2
#     Edge 35, Type (0, 1), BuildingBlock: KIFKEQ_clean_linker_1, # of connection points: 2
# Relax obj value: 0.012
# Max RMSD: 0.050
# Mean RMSD: 0.032
data_MOF--net-ssa--node1-KOZSID_clean_sbu_0--node2-NAHDIM_clean_linker_0--edge1-KIFKEQ_clean_linker_1
_symmetry_space_group_name_H-M    P1
_symmetry_Int_Tables_number       1
_symmetry_cell_setting            triclinic
loop_
_symmetry_equiv_pos_as_xyz
'x, y, z'
_cell_length_a     66.71104
_cell_length_b     67.956868
_cell_length_c     58.390557
_cell_angle_alpha  87.741671
_cell_angle_beta   90.321814
_cell_angle_gamma 122.0137
loop_
_atom_site_label
_atom_site_type_symbol
_atom_site_fract_x
_atom_site_fract_y
_atom_site_fract_z
_atom_type_partial_charge
C0 C 0.98398 0.51888 0.99175 0.0
C1 C 0.96206 0.51402 0.99934 0.0
C2 C 0.9555 0.49853 0.01755 0.0
C3 C 0.97372 0.49488 0.02008 0.0
N4 N 0.99158 0.5071 0.00458 0.0
Co5 Co 0.02154 0.50701 0.00211 0.0
N6 N 0.01246 0.48526 0.02979 0.0
C7 C 0.99251 0.47617 0.04282 0.0
C8 C 0.99164 0.46264 0.06126 0.0
C9 C 0.01236 0.46324 0.06012 0.0
C10 C 0.02466 0.47705 0.04085 0.0
N11 N 0.05134 0.50667 0.99947 0.0
C12 C 0.05969 0.49615 0.01322 0.0
C13 C 0.08114 0.50022 0.00509 0.0
C14 C 0.08672 0.51407 0.98567 0.0
C15 C 0.06839 0.51756 0.983 0.0
N16 N 0.03086 0.52915 0.97474 0.0
C17 C 0.05076 0.53816 0.96167 0.0
C18 C 0.05244 0.55307 0.94424 0.0
C19 C 0.03248 0.55376 0.94631 0.0
C20 C 0.01975 0.53917 0.96502 0.0
N21 N 0.03768 0.53379 0.02228 0.0
C22 C 0.06044 0.57156 0.05128 0.0
C23 C 0.07171 0.57112 0.03138 0.0
C24 C 0.06012 0.55215 0.01727 0.0
C25 C 0.03758 0.55285 0.05632 0.0
C26 C 0.02661 0.53438 0.0417 0.0
N27 N 0.00528 0.4801 0.98186 0.0
C28 C 0.00325 0.46162 0.94651 0.0
C29 C 0.98144 0.44197 0.95313 0.0
C30 C 0.97196 0.44174 0.97449 0.0
C31 C 0.98396 0.46078 0.98832 0.0
C32 C 0.0148 0.48026 0.96103 0.0
H33 H 0.97552 0.45934 0.00419 0.0
H34 H 0.03133 0.49461 0.95495 0.0
H35 H 0.06967 0.55266 0.00244 0.0
H36 H 0.00914 0.52079 0.04646 0.0
C37 C 0.97507 0.481 0.03752 0.0
C38 C 0.99704 0.53516 0.97259 0.0
C39 C 0.04815 0.48241 0.0342 0.0
C40 C 0.06742 0.53208 0.96607 0.0
H41 H 0.95195 0.52113 0.99258 0.0
H42 H 0.93953 0.49112 0.02795 0.0
H43 H 0.97777 0.4537 0.07419 0.0
H44 H 0.01788 0.45471 0.07233 0.0
H45 H 0.09178 0.49401 0.01258 0.0
H46 H 0.10248 0.52112 0.97502 0.0
H47 H 0.06648 0.56231 0.9315 0.0
H48 H 0.02778 0.5638 0.93523 0.0
H49 H 0.08951 0.58517 0.02685 0.0
H50 H 0.02797 0.55257 0.07135 0.0
H51 H 0.01134 0.46282 0.93006 0.0
H52 H 0.9554 0.42679 0.98078 0.0
C53 C 0.54107 0.00847 0.54707 0.0
C54 C 0.54017 0.99579 0.56672 0.0
C55 C 0.51857 0.97567 0.56727 0.0
C56 C 0.50751 0.97721 0.54808 0.0
N57 N 0.52073 0.99709 0.5352 0.0
Co58 Co 0.51119 0.00661 0.50615 0.0
N59 N 0.47923 0.97711 0.50726 0.0
C60 C 0.47078 0.95967 0.52351 0.0
C61 C 0.44817 0.94174 0.51983 0.0
C62 C 0.44175 0.94799 0.49998 0.0
C63 C 0.46098 0.96943 0.49258 0.0
N64 N 0.50163 0.01611 0.47708 0.0
C65 C 0.48127 0.00472 0.46522 0.0
C66 C 0.48213 0.01737 0.44558 0.0
C67 C 0.50375 0.03751 0.44503 0.0
C68 C 0.51485 0.036 0.46422 0.0
N69 N 0.54319 0.03611 0.50505 0.0
C70 C 0.55164 0.05358 0.48884 0.0
C71 C 0.57417 0.07161 0.4927 0.0
C72 C 0.58053 0.06538 0.51264 0.0
C73 C 0.56138 0.04383 0.51983 0.0
N74 N 0.5238 0.99123 0.4879 0.0
C75 C 0.54103 0.9692 0.46149 0.0
C76 C 0.54546 0.99113 0.45483 0.0
C77 C 0.53692 0.0018 0.46824 0.0
C78 C 0.52797 0.95852 0.48168 0.0
C79 C 0.51944 0.96967 0.49442 0.0
N80 N 0.49857 0.02199 0.52437 0.0
C81 C 0.49428 0.05468 0.53015 0.0
C82 C 0.48079 0.04398 0.55011 0.0
C83 C 0.4764 0.02211 0.55702 0.0
C84 C 0.48524 0.01146 0.54394 0.0
C85 C 0.50304 0.04356 0.51775 0.0
H86 H 0.48099 0.99468 0.54999 0.0
H87 H 0.51342 0.05282 0.50289 0.0
H88 H 0.54121 0.0186 0.46232 0.0
H89 H 0.50928 0.96045 0.50943 0.0
C90 C 0.48454 0.96052 0.54195 0.0
C91 C 0.56141 0.03144 0.54078 0.0
C92 C 0.46094 0.98175 0.47155 0.0
C93 C 0.53785 0.05272 0.47036 0.0
H94 H 0.55364 0.00067 0.57951 0.0
H95 H 0.51164 0.96169 0.58024 0.0
H96 H 0.43762 0.92597 0.53032 0.0
H97 H 0.42479 0.93786 0.49188 0.0
H98 H 0.46863 0.01245 0.43283 0.0
H99 H 0.51066 0.05149 0.43205 0.0
H100 H 0.58468 0.08746 0.48232 0.0
H101 H 0.59734 0.07555 0.52098 0.0
H102 H 0.55581 1.00023 0.43947 0.0
H103 H 0.52399 0.94144 0.48744 0.0
H104 H 0.49836 0.07176 0.52424 0.0
H105 H 0.46581 0.01303 0.57227 0.0
C106 C 0.54493 0.53262 0.97384 0.0
C107 C 0.54759 0.54665 0.95471 0.0
C108 C 0.52731 0.54688 0.9532 0.0
C109 C 0.51349 0.53305 0.97141 0.0
N110 N 0.52373 0.52406 0.98458 0.0
Co111 Co 0.50961 0.50265 0.01246 0.0
N112 N 0.47973 0.50301 0.01019 0.0
C113 C 0.47476 0.51471 0.9942 0.0
C114 C 0.45294 0.51174 0.99706 0.0
C115 C 0.4434 0.4974 0.01611 0.0
C116 C 0.4601 0.49252 0.02389 0.0
N117 N 0.49538 0.48099 0.04017 0.0
C118 C 0.47419 0.47246 0.05097 0.0
C119 C 0.47151 0.45826 0.06997 0.0
C120 C 0.49159 0.45765 0.07115 0.0
C121 C 0.5054 0.47153 0.05297 0.0
N122 N 0.53964 0.50257 0.01494 0.0
C123 C 0.54474 0.49107 0.03106 0.0
C124 C 0.56669 0.49429 0.02833 0.0
C125 C 0.57623 0.50871 0.00932 0.0
C126 C 0.55946 0.51346 0.00152 0.0
N127 N 0.52314 0.52977 0.03237 0.0
C128 C 0.54025 0.56708 0.06203 0.0
C129 C 0.54275 0.54823 0.06719 0.0
C130 C 0.5341 0.52995 0.05234 0.0
C131 C 0.52959 0.56718 0.04137 0.0
C132 C 0.52133 0.54857 0.02688 0.0
N133 N 0.49604 0.47547 0.99255 0.0
C134 C 0.49057 0.43853 0.98324 0.0
C135 C 0.47726 0.43702 0.96404 0.0
C136 C 0.47354 0.45521 0.95945 0.0
C137 C 0.48313 0.47412 0.97367 0.0
C138 C 0.49949 0.45756 0.99719 0.0
H139 H 0.47979 0.48741 0.96902 0.0
H140 H 0.5092 0.45738 0.0116 0.0
H141 H 0.53637 0.51609 0.0575 0.0
H142 H 0.51329 0.54966 0.01148 0.0
C143 C 0.4909 0.52826 0.97663 0.0
C144 C 0.56307 0.52803 0.98105 0.0
C145 C 0.45635 0.47772 0.04426 0.0
C146 C 0.52825 0.47682 0.04813 0.0
H147 H 0.56265 0.55575 0.94303 0.0
H148 H 0.52311 0.556 0.94034 0.0
H149 H 0.44492 0.51911 0.98652 0.0
H150 H 0.42608 0.49123 0.02342 0.0
H151 H 0.4567 0.44947 0.08194 0.0
H152 H 0.4958 0.44851 0.08398 0.0
H153 H 0.57469 0.48685 0.03878 0.0
H154 H 0.59351 0.51486 0.00189 0.0
H155 H 0.55138 0.5475 0.08268 0.0
H156 H 0.52709 0.58129 0.03657 0.0
H157 H 0.49442 0.42523 0.98749 0.0
H158 H 0.46304 0.45485 0.94509 0.0
C159 C 0.96621 0.45359 0.52252 0.0
C160 C 0.94339 0.4373 0.51601 0.0
C161 C 0.93878 0.44667 0.49718 0.0
C162 C 0.95893 0.46807 0.49328 0.0
N163 N 0.9762 0.47295 0.50846 0.0
Co164 Co 0.00837 0.50211 0.5091 0.0
N165 N 0.00132 0.5161 0.48166 0.0
C166 C 0.98094 0.50638 0.46985 0.0
C167 C 0.98128 0.52016 0.4519 0.0
C168 C 0.00317 0.53992 0.45222 0.0
C169 C 0.01498 0.53699 0.47041 0.0
N170 N 0.04061 0.53119 0.50964 0.0
C171 C 0.05055 0.55062 0.49569 0.0
C172 C 0.07354 0.56673 0.50192 0.0
C173 C 0.07832 0.55717 0.52048 0.0
C174 C 0.0581 0.53586 0.5245 0.0
N175 N 0.01538 0.48823 0.53668 0.0
C176 C 0.0357 0.498 0.54857 0.0
C177 C 0.03524 0.48438 0.56675 0.0
C178 C 0.01326 0.46473 0.56656 0.0
C179 C 0.00155 0.46754 0.5482 0.0
N180 N 0.02088 0.48818 0.4886 0.0
C181 C 0.03852 0.46821 0.4598 0.0
C182 C 0.04974 0.47807 0.48016 0.0
C183 C 0.04086 0.48809 0.49405 0.0
C184 C 0.01839 0.46855 0.45399 0.0
C185 C 0.00979 0.47832 0.46863 0.0
N186 N 0.99587 0.516 0.52963 0.0
C187 C 0.99919 0.53625 0.56396 0.0
C188 C 0.97812 0.53535 0.55939 0.0
C189 C 0.9661 0.5245 0.53954 0.0
C190 C 0.97512 0.5149 0.52513 0.0
C191 C 0.00775 0.52681 0.54892 0.0
H192 H 0.96498 0.50669 0.51045 0.0
H193 H 0.024 0.52839 0.55338 0.0
H194 H 0.05054 0.49569 0.50907 0.0
H195 H 0.99412 0.47762 0.46345 0.0
C196 C 0.96195 0.48411 0.47585 0.0
C197 C 0.97736 0.45002 0.54243 0.0
C198 C 0.03908 0.5546 0.47631 0.0
C199 C 0.05496 0.52001 0.5422 0.0
H200 H 0.93127 0.42044 0.52416 0.0
H201 H 0.92258 0.43891 0.48758 0.0
H202 H 0.96729 0.51627 0.43997 0.0
H203 H 0.00974 0.55482 0.44039 0.0
H204 H 0.08562 0.58363 0.49384 0.0
H205 H 0.0946 0.56484 0.52994 0.0
H206 H 0.0492 0.48829 0.57872 0.0
H207 H 0.00661 0.44997 0.57858 0.0
H208 H 0.06556 0.47837 0.48519 0.0
H209 H 0.00905 0.46092 0.43839 0.0
H210 H 0.00907 0.54394 0.57927 0.0
H211 H 0.94987 0.52354 0.53491 0.0
C212 C 0.48864 0.99867 0.06306 0.0
C213 C 0.49506 0.00773 0.08466 0.0
C214 C 0.51604 0.0285 0.08191 0.0
C215 C 0.52186 0.03026 0.05915 0.0
N216 N 0.50628 0.01154 0.04747 0.0
Co217 Co 0.51117 0.00339 0.01631 0.0
N218 N 0.54145 0.03426 0.01141 0.0
C219 C 0.55149 0.0517 0.02623 0.0
C220 C 0.57243 0.07063 0.01835 0.0
C221 C 0.57609 0.06497 0.9973 0.0
C222 C 0.557 0.04279 0.99344 0.0
N223 N 0.51605 0.995 0.9852 0.0
C224 C 0.53397 0.00723 0.9697 0.0
C225 C 0.53029 0.99504 0.94999 0.0
C226 C 0.50956 0.97419 0.95334 0.0
C227 C 0.50169 0.97486 0.97475 0.0
N228 N 0.48075 0.9727 0.0213 0.0
C229 C 0.47178 0.95435 0.0077 0.0
C230 C 0.45357 0.93426 0.01782 0.0
C231 C 0.4502 0.94046 0.03876 0.0
C232 C 0.46563 0.96432 0.03963 0.0
N233 N 0.49359 0.01675 0.00242 0.0
C234 C 0.47329 0.03823 0.97791 0.0
C235 C 0.46665 0.01544 0.97382 0.0
C236 C 0.47687 0.00507 0.98624 0.0
C237 C 0.48914 0.04954 0.99553 0.0
C238 C 0.49876 0.03841 0.00773 0.0
N239 N 0.52901 0.98993 0.03029 0.0
C240 C 0.53393 0.9573 0.03695 0.0
C241 C 0.55105 0.96919 0.05333 0.0
C242 C 0.55788 0.99204 0.05715 0.0
C243 C 0.54682 0.00199 0.0455 0.0
C244 C 0.52355 0.96804 0.02548 0.0
H245 H 0.55306 0.01944 0.04922 0.0
H246 H 0.51127 0.95818 0.01276 0.0
H247 H 0.47143 0.98779 0.98212 0.0
H248 H 0.51069 0.04772 0.02111 0.0
C249 C 0.542 0.04887 0.04829 0.0
C250 C 0.46518 0.97896 0.05729 0.0
C251 C 0.55508 0.03007 0.97307 0.0
C252 C 0.48161 0.95643 0.98597 0.0
H253 H 0.48525 1.00046 0.10064 0.0
H254 H 0.5259 0.04076 0.09497 0.0
H255 H 0.58408 0.08635 0.02721 0.0
H256 H 0.59147 0.07579 0.98641 0.0
H257 H 0.54162 1.00054 0.93487 0.0
H258 H 0.50144 0.96005 0.94173 0.0
H259 H 0.4442 0.91708 0.01101 0.0
H260 H 0.43779 0.92865 0.05186 0.0
H261 H 0.45433 0.0059 0.96044 0.0
H262 H 0.4943 0.06698 0.99974 0.0
H263 H 0.52866 0.93981 0.03281 0.0
H264 H 0.57136 0.00209 0.06949 0.0
C265 C 0.51945 0.5497 0.49504 0.0
C266 C 0.51229 0.56506 0.49931 0.0
C267 C 0.49626 0.55536 0.517 0.0
C268 C 0.49439 0.53465 0.52239 0.0
N269 N 0.50823 0.53045 0.50921 0.0
Co270 Co 0.5098 0.50172 0.51044 0.0
N271 N 0.48721 0.48808 0.53736 0.0
C272 C 0.47715 0.49803 0.54827 0.0
C273 C 0.46233 0.4846 0.56609 0.0
C274 C 0.46311 0.46496 0.56684 0.0
C275 C 0.47862 0.46762 0.54945 0.0
N276 N 0.51072 0.47262 0.51115 0.0
C277 C 0.49998 0.4536 0.52569 0.0
C278 C 0.50611 0.43767 0.52041 0.0
C279 C 0.52085 0.44671 0.5017 0.0
C280 C 0.52308 0.46764 0.4967 0.0
N281 N 0.53309 0.51577 0.48405 0.0
C282 C 0.54395 0.50629 0.47376 0.0
C283 C 0.55976 0.52032 0.45678 0.0
C284 C 0.5591 0.54004 0.4562 0.0
C285 C 0.54271 0.53681 0.47284 0.0
N286 N 0.53646 0.5162 0.532 0.0
C287 C 0.5741 0.53638 0.56303 0.0
C288 C 0.57325 0.52196 0.54611 0.0
C289 C 0.5546 0.51235 0.5308 0.0
C290 C 0.55579 0.54065 0.56394 0.0
C291 C 0.53723 0.53033 0.54854 0.0
N292 N 0.48314 0.48734 0.48878 0.0
C293 C 0.46776 0.47121 0.45193 0.0
C294 C 0.44748 0.47187 0.45576 0.0
C295 C 0.44476 0.47916 0.4769 0.0
C296 C 0.4626 0.48667 0.49303 0.0
C297 C 0.48514 0.4788 0.46861 0.0
H298 H 0.45955 0.49241 0.50855 0.0
H299 H 0.50024 0.47803 0.46456 0.0
H300 H 0.55519 0.50173 0.51825 0.0
H301 H 0.5237 0.53403 0.55039 0.0
C302 C 0.48077 0.51936 0.54047 0.0
C303 C 0.5371 0.55434 0.4775 0.0
C304 C 0.4844 0.45012 0.54501 0.0
C305 C 0.53842 0.48392 0.48001 0.0
H306 H 0.51812 0.58164 0.49061 0.0
H307 H 0.48724 0.56266 0.52514 0.0
H308 H 0.45189 0.48847 0.57699 0.0
H309 H 0.45315 0.45027 0.57876 0.0
H310 H 0.50092 0.42138 0.52937 0.0
H311 H 0.52952 0.43925 0.4932 0.0
H312 H 0.57048 0.51663 0.44608 0.0
H313 H 0.56959 0.55512 0.44484 0.0
H314 H 0.58669 0.51769 0.54479 0.0
H315 H 0.55572 0.552 0.57639 0.0
H316 H 0.47041 0.46521 0.43598 0.0
H317 H 0.42939 0.48005 0.48069 0.0
C318 C 0.07931 0.37218 0.3463 0.0
C319 C 0.10005 0.3932 0.35765 0.0
C320 C 0.13406 0.40979 0.33071 0.0
C321 C 0.15057 0.43015 0.31851 0.0
C322 C 0.17017 0.43207 0.30737 0.0
C323 C 0.17272 0.41264 0.30758 0.0
C324 C 0.15592 0.39185 0.31972 0.0
C325 C 0.13702 0.39077 0.33147 0.0
C326 C 0.18816 0.45495 0.29556 0.0
C327 C 0.1579 0.37071 0.32039 0.0
C328 C 0.34708 0.44135 0.36268 0.0
C329 C 0.32992 0.4393 0.34501 0.0
C330 C 0.28869 0.42653 0.34084 0.0
C331 C 0.26807 0.40469 0.33922 0.0
C332 C 0.24924 0.40174 0.32573 0.0
C333 C 0.25091 0.42132 0.31427 0.0
C334 C 0.27125 0.44367 0.31693 0.0
C335 C 0.29004 0.44599 0.32997 0.0
C336 C 0.22775 0.37769 0.32345 0.0
C337 C 0.27326 0.46511 0.30583 0.0
C338 C 0.30256 0.43352 0.16683 0.0
C339 C 0.28251 0.41104 0.17056 0.0
C340 C 0.26244 0.40752 0.18226 0.0
C341 C 0.26234 0.42683 0.19031 0.0
C342 C 0.28249 0.44945 0.18664 0.0
C343 C 0.30238 0.45246 0.17501 0.0
C344 C 0.24129 0.38316 0.18597 0.0
C345 C 0.28296 0.47045 0.19492 0.0
C346 C 0.09198 0.39962 0.16288 0.0
C347 C 0.11436 0.42105 0.15269 0.0
C348 C 0.14782 0.41634 0.15708 0.0
C349 C 0.15002 0.39705 0.15936 0.0
C350 C 0.16789 0.3977 0.17274 0.0
C351 C 0.18427 0.41842 0.18352 0.0
C352 C 0.18286 0.4384 0.18021 0.0
C353 C 0.16454 0.43711 0.16708 0.0
C354 C 0.16899 0.37614 0.17573 0.0
C355 C 0.20052 0.46104 0.19074 0.0
C356 C 0.19323 0.41424 0.29563 0.0
C357 C 0.21167 0.41635 0.30904 0.0
C358 C 0.23174 0.41846 0.29902 0.0
C359 C 0.23379 0.4188 0.27488 0.0
C360 C 0.25375 0.42091 0.26423 0.0
C361 C 0.25609 0.42225 0.24046 0.0
C362 C 0.23848 0.42135 0.2264 0.0
C363 C 0.24098 0.42337 0.20223 0.0
C364 C 0.22305 0.42231 0.18879 0.0
C365 C 0.20243 0.41901 0.19881 0.0
C366 C 0.19953 0.41678 0.22295 0.0
C367 C 0.17883 0.41299 0.23359 0.0
C368 C 0.17652 0.41171 0.25737 0.0
C369 C 0.19489 0.41433 0.27144 0.0
C370 C 0.21545 0.41708 0.26106 0.0
C371 C 0.21779 0.41834 0.23678 0.0
C372 C 0.34658 0.43113 0.13017 0.0
C373 C 0.32499 0.42113 0.14508 0.0
O374 O 0.11559 0.4093 0.34119 0.0
O375 O 0.12956 0.41454 0.14497 0.0
O376 O 0.32225 0.43766 0.15536 0.0
O377 O 0.30683 0.42844 0.35328 0.0
H378 H 0.10932 0.38679 0.36861 0.0
H379 H 0.08546 0.36216 0.3374 0.0
H380 H 0.07081 0.37772 0.33338 0.0
H381 H 0.06589 0.36035 0.35947 0.0
H382 H 0.14826 0.44479 0.31807 0.0
H383 H 0.1246 0.37491 0.34096 0.0
H384 H 0.20641 0.45936 0.2992 0.0
H385 H 0.18626 0.46938 0.30097 0.0
H386 H 0.18576 0.45362 0.27675 0.0
H387 H 0.14135 0.35483 0.32682 0.0
H388 H 0.17243 0.37369 0.33194 0.0
H389 H 0.16222 0.36763 0.30307 0.0
H390 H 0.3312 0.43251 0.32834 0.0
H391 H 0.33635 0.42919 0.37754 0.0
H392 H 0.36943 0.47734 0.36577 0.0
H393 H 0.35363 0.43014 0.35673 0.0
H394 H 0.26706 0.38983 0.348 0.0
H395 H 0.30553 0.4631 0.3319 0.0
H396 H 0.22388 0.37392 0.30507 0.0
H397 H 0.21219 0.37677 0.33141 0.0
H398 H 0.23003 0.36406 0.33185 0.0
H399 H 0.28846 0.48135 0.31237 0.0
H400 H 0.25679 0.46503 0.30889 0.0
H401 H 0.27567 0.46522 0.28703 0.0
H402 H 0.32209 0.40677 0.1573 0.0
H403 H 0.28234 0.39615 0.16438 0.0
H404 H 0.31788 0.46972 0.17209 0.0
H405 H 0.23641 0.3795 0.20448 0.0
H406 H 0.2446 0.36985 0.17983 0.0
H407 H 0.22594 0.38157 0.17673 0.0
H408 H 0.29966 0.48694 0.18999 0.0
H409 H 0.28095 0.46907 0.21387 0.0
H410 H 0.26786 0.47108 0.18773 0.0
H411 H 0.12261 0.43364 0.16655 0.0
H412 H 0.07955 0.40446 0.16922 0.0
H413 H 0.09665 0.39198 0.17755 0.0
H414 H 0.083 0.38626 0.14984 0.0
H415 H 0.13721 0.38123 0.15121 0.0
H416 H 0.16334 0.45232 0.16451 0.0
H417 H 0.16881 0.37165 0.19426 0.0
H418 H 0.18581 0.37951 0.16814 0.0
H419 H 0.15403 0.361 0.16744 0.0
H420 H 0.19875 0.47562 0.18425 0.0
H421 H 0.21882 0.46546 0.18712 0.0
H422 H 0.19786 0.4592 0.20963 0.0
H423 H 0.21049 0.41659 0.32754 0.0
H424 H 0.26794 0.42177 0.27415 0.0
H425 H 0.27197 0.42415 0.23324 0.0
H426 H 0.22517 0.42411 0.17027 0.0
H427 H 0.1642 0.41111 0.22366 0.0
H428 H 0.16023 0.40887 0.26458 0.0
H429 H 0.35778 0.42519 0.13869 0.0
H430 H 0.35847 0.44981 0.13478 0.0
H431 H 0.33303 0.42144 0.09733 0.0
C432 C 0.87587 0.27412 0.89214 0.0
C433 C 0.88885 0.29092 0.87152 0.0
C434 C 0.85825 0.27153 0.84239 0.0
C435 C 0.86177 0.25323 0.8387 0.0
C436 C 0.84602 0.23456 0.82538 0.0
C437 C 0.82628 0.23406 0.81568 0.0
C438 C 0.8228 0.25254 0.81922 0.0
C439 C 0.83903 0.27117 0.83229 0.0
C440 C 0.85038 0.21525 0.82178 0.0
C441 C 0.8018 0.25249 0.80941 0.0
C442 C 0.72154 0.08994 0.89422 0.0
C443 C 0.70887 0.1014 0.88381 0.0
C444 C 0.72309 0.11668 0.84558 0.0
C445 C 0.71924 0.13429 0.8386 0.0
C446 C 0.7357 0.15301 0.82425 0.0
C447 C 0.75648 0.15406 0.81695 0.0
C448 C 0.76019 0.13603 0.8238 0.0
C449 C 0.74327 0.11738 0.83793 0.0
C450 C 0.73108 0.17181 0.81711 0.0
C451 C 0.7822 0.13669 0.81649 0.0
C452 C 0.7247 0.11878 0.66763 0.0
C453 C 0.71898 0.13407 0.67666 0.0
C454 C 0.7357 0.15323 0.68887 0.0
C455 C 0.7585 0.15699 0.69227 0.0
C456 C 0.76445 0.1419 0.68265 0.0
C457 C 0.74751 0.12314 0.67016 0.0
C458 C 0.72902 0.16947 0.6981 0.0
C459 C 0.78862 0.14547 0.68575 0.0
C460 C 0.91244 0.31946 0.67547 0.0
C461 C 0.90058 0.30966 0.6526 0.0
C462 C 0.86082 0.27859 0.66632 0.0
C463 C 0.83786 0.27344 0.67024 0.0
C464 C 0.82117 0.25319 0.68271 0.0
C465 C 0.82756 0.23751 0.69116 0.0
C466 C 0.85055 0.24219 0.68665 0.0
C467 C 0.86701 0.26276 0.67441 0.0
C468 C 0.79679 0.24873 0.68712 0.0
C469 C 0.85778 0.22556 0.69499 0.0
C470 C 0.80902 0.21399 0.80225 0.0
C471 C 0.79158 0.19398 0.81431 0.0
C472 C 0.77468 0.17444 0.80286 0.0
C473 C 0.77512 0.17473 0.77863 0.0
C474 C 0.75851 0.15535 0.76655 0.0
C475 C 0.75899 0.15587 0.74269 0.0
C476 C 0.77591 0.1759 0.72997 0.0
C477 C 0.77619 0.17682 0.7057 0.0
C478 C 0.79335 0.19699 0.69364 0.0
C479 C 0.81032 0.21646 0.70511 0.0
C480 C 0.8103 0.2159 0.72936 0.0
C481 C 0.82708 0.23519 0.74146 0.0
C482 C 0.82689 0.2345 0.76531 0.0
C483 C 0.80967 0.21465 0.778 0.0
C484 C 0.79262 0.19496 0.76617 0.0
C485 C 0.79298 0.19556 0.74181 0.0
C486 C 0.6825 0.06162 0.67102 0.0
C487 C 0.68538 0.0846 0.66262 0.0
O488 O 0.87268 0.28967 0.85565 0.0
O489 O 0.87625 0.299 0.65485 0.0
O490 O 0.70877 0.10001 0.65597 0.0
O491 O 0.70764 0.0993 0.86027 0.0
H492 H 0.90084 0.28642 0.86334 0.0
H493 H 0.86537 0.25593 0.8867 0.0
H494 H 0.86368 0.27834 0.90037 0.0
H495 H 0.88873 0.27523 0.90501 0.0
H496 H 0.87669 0.25331 0.84613 0.0
H497 H 0.83649 0.28537 0.83514 0.0
H498 H 0.83603 0.19893 0.83036 0.0
H499 H 0.86758 0.21913 0.82877 0.0
H500 H 0.85007 0.21216 0.80321 0.0
H501 H 0.80062 0.26722 0.81522 0.0
H502 H 0.7852 0.23596 0.81447 0.0
H503 H 0.8031 0.25363 0.79041 0.0
H504 H 0.71953 0.12013 0.88796 0.0
H505 H 0.72168 0.09061 0.91321 0.0
H506 H 0.74016 0.09934 0.88787 0.0
H507 H 0.71277 0.07154 0.88942 0.0
H508 H 0.70346 0.13344 0.84466 0.0
H509 H 0.74596 0.10354 0.84346 0.0
H510 H 0.73207 0.17419 0.79814 0.0
H511 H 0.74495 0.18853 0.82414 0.0
H512 H 0.71351 0.16781 0.82321 0.0
H513 H 0.78254 0.12142 0.82343 0.0
H514 H 0.79808 0.15275 0.82243 0.0
H515 H 0.78335 0.13722 0.7975 0.0
H516 H 0.68031 0.09121 0.67724 0.0
H517 H 0.70158 0.13123 0.67388 0.0
H518 H 0.75183 0.11143 0.66277 0.0
H519 H 0.72831 0.16795 0.71711 0.0
H520 H 0.71155 0.16558 0.69193 0.0
H521 H 0.74262 0.18774 0.69299 0.0
H522 H 0.78984 0.13116 0.67877 0.0
H523 H 0.79297 0.14676 0.70424 0.0
H524 H 0.80211 0.16206 0.6769 0.0
H525 H 0.90493 0.29685 0.64707 0.0
H526 H 0.93196 0.32833 0.6736 0.0
H527 H 0.90644 0.30531 0.68885 0.0
H528 H 0.90801 0.33208 0.68137 0.0
H529 H 0.83317 0.28564 0.66381 0.0
H530 H 0.88461 0.26627 0.67133 0.0
H531 H 0.79274 0.24603 0.70581 0.0
H532 H 0.78344 0.2326 0.6788 0.0
H533 H 0.79501 0.26326 0.68045 0.0
H534 H 0.87545 0.23053 0.68819 0.0
H535 H 0.84456 0.20769 0.68983 0.0
H536 H 0.85829 0.2252 0.714 0.0
H537 H 0.79109 0.19364 0.8329 0.0
H538 H 0.74495 0.13954 0.77541 0.0
H539 H 0.74581 0.1404 0.73433 0.0
H540 H 0.79338 0.19762 0.67504 0.0
H541 H 0.84059 0.25105 0.73264 0.0
H542 H 0.84033 0.24983 0.77367 0.0
H543 H 0.68746 0.05408 0.65724 0.0
H544 H 0.6639 0.04898 0.67658 0.0
H545 H 0.6941 0.06458 0.68589 0.0
C546 C 0.64379 0.72478 0.39992 0.0
C547 C 0.61735 0.71254 0.39499 0.0
C548 C 0.61112 0.72696 0.35903 0.0
C549 C 0.58845 0.72251 0.35503 0.0
C550 C 0.58522 0.73839 0.34196 0.0
C551 C 0.60521 0.75916 0.33284 0.0
C552 C 0.62819 0.7636 0.33685 0.0
C553 C 0.63085 0.74726 0.34974 0.0
C554 C 0.56049 0.73301 0.33791 0.0
C555 C 0.64989 0.7856 0.32755 0.0
C556 C 0.58397 0.89542 0.39888 0.0
C557 C 0.59442 0.88365 0.38729 0.0
C558 C 0.58325 0.85209 0.36133 0.0
C559 C 0.6065 0.85808 0.35642 0.0
C560 C 0.61082 0.84418 0.34262 0.0
C561 C 0.59155 0.82381 0.3337 0.0
C562 C 0.56815 0.81777 0.33861 0.0
C563 C 0.56435 0.83212 0.35221 0.0
C564 C 0.63599 0.85122 0.33756 0.0
C565 C 0.54716 0.79602 0.32966 0.0
C566 C 0.58752 0.86188 0.18203 0.0
C567 C 0.61012 0.86678 0.1881 0.0
C568 C 0.61282 0.85072 0.20145 0.0
C569 C 0.59255 0.82939 0.20899 0.0
C570 C 0.5698 0.82449 0.2031 0.0
C571 C 0.56761 0.84082 0.18966 0.0
C572 C 0.63734 0.85643 0.2074 0.0
C573 C 0.54782 0.80196 0.21095 0.0
C574 C 0.62181 0.69181 0.1893 0.0
C575 C 0.60055 0.69171 0.17916 0.0
C576 C 0.60528 0.72944 0.18282 0.0
C577 C 0.62477 0.75203 0.18442 0.0
C578 C 0.62341 0.76834 0.19728 0.0
C579 C 0.60178 0.76196 0.20826 0.0
C580 C 0.58168 0.73939 0.20577 0.0
C581 C 0.58369 0.72332 0.19315 0.0
C582 C 0.64513 0.7923 0.1993 0.0
C583 C 0.55809 0.73224 0.21644 0.0
C584 C 0.60208 0.77631 0.31931 0.0
C585 C 0.59897 0.79195 0.33127 0.0
C586 C 0.59579 0.80849 0.31971 0.0
C587 C 0.59599 0.80974 0.29545 0.0
C588 C 0.59334 0.82646 0.28324 0.0
C589 C 0.59321 0.82732 0.25938 0.0
C590 C 0.59562 0.81144 0.2468 0.0
C591 C 0.5952 0.81197 0.22257 0.0
C592 C 0.5973 0.79571 0.21062 0.0
C593 C 0.60011 0.77893 0.22217 0.0
C594 C 0.60096 0.77835 0.24641 0.0
C595 C 0.60416 0.76198 0.25861 0.0
C596 C 0.60452 0.76126 0.28246 0.0
C597 C 0.60187 0.77699 0.29505 0.0
C598 C 0.59885 0.7938 0.2831 0.0
C599 C 0.59851 0.79454 0.25875 0.0
C600 C 0.59297 0.90897 0.14295 0.0
C601 C 0.60173 0.89846 0.15998 0.0
O602 O 0.61389 0.71139 0.37154 0.0
O603 O 0.60766 0.71396 0.17098 0.0
O604 O 0.58416 0.87678 0.16879 0.0
O605 O 0.57827 0.86498 0.37472 0.0
H606 H 0.61052 0.72278 0.40249 0.0
H607 H 0.6531 0.74305 0.3931 0.0
H608 H 0.65162 0.71579 0.3918 0.0
H609 H 0.64665 0.72503 0.41871 0.0
H610 H 0.57334 0.70659 0.3622 0.0
H611 H 0.6483 0.75031 0.35267 0.0
H612 H 0.55807 0.74601 0.34628 0.0
H613 H 0.54679 0.7154 0.34477 0.0
H614 H 0.55775 0.73426 0.31926 0.0
H615 H 0.66652 0.78715 0.33345 0.0
H616 H 0.64966 0.80096 0.33294 0.0
H617 H 0.64985 0.78592 0.30853 0.0
H618 H 0.60558 0.8796 0.39837 0.0
H619 H 0.58546 0.89246 0.41776 0.0
H620 H 0.56419 0.88321 0.39868 0.0
H621 H 0.60127 0.92857 0.38283 0.0
H622 H 0.62134 0.87358 0.36324 0.0
H623 H 0.54649 0.82763 0.35604 0.0
H624 H 0.63915 0.83786 0.34508 0.0
H625 H 0.64907 0.86828 0.34459 0.0
H626 H 0.63896 0.85218 0.31875 0.0
H627 H 0.53008 0.7932 0.33586 0.0
H628 H 0.54811 0.78068 0.33504 0.0
H629 H 0.54754 0.79716 0.31063 0.0
H630 H 0.6132 0.91023 0.17353 0.0
H631 H 0.62573 0.88303 0.18237 0.0
H632 H 0.55026 0.83719 0.18495 0.0
H633 H 0.63891 0.85557 0.22631 0.0
H634 H 0.65132 0.87397 0.20065 0.0
H635 H 0.64045 0.84335 0.20026 0.0
H636 H 0.53139 0.80085 0.2051 0.0
H637 H 0.54727 0.80016 0.22995 0.0
H638 H 0.54828 0.78712 0.20428 0.0
H639 H 0.58722 0.68592 0.1933 0.0
H640 H 0.61652 0.67404 0.19568 0.0
H641 H 0.62869 0.70349 0.20393 0.0
H642 H 0.63626 0.69811 0.17628 0.0
H643 H 0.64125 0.75666 0.17604 0.0
H644 H 0.56833 0.70608 0.19112 0.0
H645 H 0.64854 0.79665 0.21761 0.0
H646 H 0.6421 0.80529 0.19057 0.0
H647 H 0.66109 0.79385 0.19151 0.0
H648 H 0.54365 0.71505 0.2108 0.0
H649 H 0.5535 0.74541 0.21197 0.0
H650 H 0.55917 0.73129 0.23538 0.0
H651 H 0.59885 0.79113 0.34987 0.0
H652 H 0.59133 0.83907 0.29202 0.0
H653 H 0.59107 0.84054 0.25091 0.0
H654 H 0.59671 0.7961 0.19204 0.0
H655 H 0.60636 0.74948 0.24985 0.0
H656 H 0.60686 0.74816 0.29091 0.0
H657 H 0.59571 0.92493 0.15114 0.0
H658 H 0.57312 0.89896 0.14495 0.0
H659 H 0.61009 0.91057 0.11241 0.0
C660 C 0.73728 0.59846 0.91845 0.0
C661 C 0.72045 0.59438 0.89864 0.0
C662 C 0.73879 0.58394 0.86875 0.0
C663 C 0.75836 0.60647 0.86384 0.0
C664 C 0.77685 0.61013 0.84931 0.0
C665 C 0.77589 0.59091 0.83956 0.0
C666 C 0.75608 0.56826 0.8442 0.0
C667 C 0.73769 0.56514 0.85855 0.0
C668 C 0.79761 0.63454 0.84457 0.0
C669 C 0.7545 0.54732 0.83429 0.0
C670 C 0.94752 0.6336 0.86502 0.0
C671 C 0.92839 0.61483 0.88133 0.0
C672 C 0.89153 0.59901 0.85941 0.0
C673 C 0.874 0.57922 0.84885 0.0
C674 C 0.85507 0.57885 0.83792 0.0
C675 C 0.854 0.59912 0.83705 0.0
C676 C 0.87146 0.61916 0.84806 0.0
C677 C 0.88995 0.61885 0.85935 0.0
C678 C 0.83638 0.55686 0.82707 0.0
C679 C 0.87074 0.641 0.84759 0.0
C680 C 0.8878 0.60539 0.68362 0.0
C681 C 0.87262 0.58514 0.69679 0.0
C682 C 0.85512 0.58395 0.71112 0.0
C683 C 0.85331 0.60373 0.71272 0.0
C684 C 0.86884 0.62426 0.69951 0.0
C685 C 0.88564 0.62467 0.68479 0.0
C686 C 0.8383 0.56139 0.72412 0.0
C687 C 0.86761 0.64573 0.70077 0.0
C688 C 0.68936 0.58505 0.70554 0.0
C689 C 0.70182 0.592 0.68196 0.0
C690 C 0.73446 0.5862 0.69091 0.0
C691 C 0.73883 0.56834 0.69393 0.0
C692 C 0.75842 0.57159 0.70619 0.0
C693 C 0.77448 0.59361 0.71495 0.0
C694 C 0.77071 0.6121 0.71113 0.0
C695 C 0.75051 0.60811 0.69945 0.0
C696 C 0.76179 0.55143 0.70995 0.0
C697 C 0.788 0.63606 0.71939 0.0
C698 C 0.79599 0.59446 0.82521 0.0
C699 C 0.81538 0.59613 0.83643 0.0
C700 C 0.83491 0.59938 0.82412 0.0
C701 C 0.83539 0.60137 0.7999 0.0
C702 C 0.85508 0.6054 0.787 0.0
C703 C 0.85493 0.60617 0.76315 0.0
C704 C 0.83506 0.60286 0.75127 0.0
C705 C 0.83424 0.60247 0.72705 0.0
C706 C 0.81445 0.59984 0.71584 0.0
C707 C 0.79518 0.59719 0.72809 0.0
C708 C 0.79543 0.59701 0.75232 0.0
C709 C 0.77609 0.59384 0.76523 0.0
C710 C 0.77641 0.59344 0.78907 0.0
C711 C 0.79585 0.5957 0.80096 0.0
C712 C 0.8156 0.59908 0.78828 0.0
C713 C 0.81542 0.5998 0.76394 0.0
C714 C 0.94414 0.62794 0.68029 0.0
C715 C 0.92255 0.60386 0.67594 0.0
O716 O 0.72081 0.57945 0.88331 0.0
O717 O 0.71469 0.58151 0.67953 0.0
O718 O 0.90406 0.60634 0.66906 0.0
O719 O 0.90963 0.59809 0.86906 0.0
H720 H 0.72593 0.61125 0.88959 0.0
H721 H 0.75577 0.60685 0.91201 0.0
H722 H 0.73226 0.58171 0.92746 0.0
H723 H 0.7367 0.61009 0.93092 0.0
H724 H 0.75946 0.62131 0.87131 0.0
H725 H 0.72252 0.54785 0.8623 0.0
H726 H 0.81373 0.6363 0.85222 0.0
H727 H 0.7948 0.6478 0.85176 0.0
H728 H 0.8009 0.63812 0.8258 0.0
H729 H 0.73863 0.53077 0.84067 0.0
H730 H 0.77052 0.54694 0.83864 0.0
H731 H 0.75381 0.54849 0.81532 0.0
H732 H 0.92204 0.623 0.89305 0.0
H733 H 0.96278 0.64663 0.87495 0.0
H734 H 0.94055 0.64281 0.85497 0.0
H735 H 0.9538 0.6258 0.8528 0.0
H736 H 0.87526 0.56395 0.84915 0.0
H737 H 0.90318 0.63423 0.86774 0.0
H738 H 0.83836 0.55927 0.80813 0.0
H739 H 0.81844 0.55286 0.83173 0.0
H740 H 0.83773 0.54172 0.83236 0.0
H741 H 0.88663 0.6557 0.85536 0.0
H742 H 0.85482 0.63761 0.85717 0.0
H743 H 0.86938 0.64618 0.82965 0.0
H744 H 0.91775 0.59309 0.69222 0.0
H745 H 0.8741 0.57011 0.69536 0.0
H746 H 0.89739 0.64015 0.67434 0.0
H747 H 0.84215 0.56342 0.74268 0.0
H748 H 0.83985 0.54684 0.71843 0.0
H749 H 0.81975 0.55673 0.72191 0.0
H750 H 0.88312 0.6612 0.69225 0.0
H751 H 0.86658 0.64949 0.71893 0.0
H752 H 0.85136 0.64273 0.69223 0.0
H753 H 0.71371 0.61119 0.68028 0.0
H754 H 0.70258 0.59083 0.71936 0.0
H755 H 0.67899 0.59333 0.70785 0.0
H756 H 0.67728 0.56587 0.70742 0.0
H757 H 0.72643 0.55157 0.6871 0.0
H758 H 0.74764 0.62226 0.69681 0.0
H759 H 0.76473 0.5493 0.72839 0.0
H760 H 0.7777 0.55498 0.70023 0.0
H761 H 0.74635 0.53486 0.70427 0.0
H762 H 0.78427 0.64921 0.71237 0.0
H763 H 0.80635 0.64153 0.71441 0.0
H764 H 0.78705 0.63575 0.73837 0.0
H765 H 0.81512 0.59454 0.85501 0.0
H766 H 0.87079 0.60785 0.79521 0.0
H767 H 0.8705 0.60917 0.75412 0.0
H768 H 0.81386 0.59946 0.69728 0.0
H769 H 0.76044 0.59157 0.75705 0.0
H770 H 0.76106 0.59101 0.79807 0.0
H771 H 0.9498 0.6391 0.66428 0.0
H772 H 0.95911 0.62659 0.68665 0.0
H773 H 0.93968 0.63642 0.6935 0.0
C774 C 0.14392 0.72737 0.40883 0.0
C775 C 0.13068 0.71034 0.38983 0.0
C776 C 0.16028 0.72987 0.3585 0.0
C777 C 0.15605 0.74774 0.35332 0.0
C778 C 0.17123 0.76656 0.33835 0.0
C779 C 0.19116 0.76768 0.32849 0.0
C780 C 0.19523 0.74952 0.33336 0.0
C781 C 0.17953 0.73071 0.34807 0.0
C782 C 0.16617 0.78546 0.33335 0.0
C783 C 0.21647 0.75024 0.32345 0.0
C784 C 0.28771 0.89952 0.40997 0.0
C785 C 0.30305 0.89444 0.39497 0.0
C786 C 0.28841 0.88378 0.35667 0.0
C787 C 0.29267 0.86618 0.35233 0.0
C788 C 0.27827 0.84858 0.33738 0.0
C789 C 0.25904 0.84849 0.32685 0.0
C790 C 0.25516 0.86667 0.33076 0.0
C791 C 0.27024 0.88437 0.34535 0.0
C792 C 0.28323 0.82976 0.33331 0.0
C793 C 0.2346 0.86695 0.32021 0.0
C794 C 0.29227 0.89026 0.17394 0.0
C795 C 0.29998 0.8767 0.18472 0.0
C796 C 0.28436 0.85687 0.19841 0.0
C797 C 0.26072 0.8509 0.20178 0.0
C798 C 0.25296 0.86459 0.19076 0.0
C799 C 0.26878 0.88389 0.17664 0.0
C800 C 0.29304 0.84218 0.20904 0.0
C801 C 0.22793 0.85883 0.1938 0.0
C802 C 0.10604 0.69324 0.17993 0.0
C803 C 0.1245 0.70306 0.16034 0.0
C804 C 0.16167 0.72965 0.17986 0.0
C805 C 0.183 0.73265 0.18739 0.0
C806 C 0.19921 0.75226 0.19934 0.0
C807 C 0.19385 0.76926 0.20395 0.0
C808 C 0.17239 0.76649 0.19625 0.0
C809 C 0.15654 0.74677 0.18421 0.0
C810 C 0.22198 0.75472 0.20723 0.0
C811 C 0.16613 0.78429 0.20097 0.0
C812 C 0.20841 0.78845 0.31415 0.0
C813 C 0.22501 0.80823 0.32545 0.0
C814 C 0.24198 0.82843 0.3133 0.0
C815 C 0.24253 0.82905 0.28905 0.0
C816 C 0.25933 0.84904 0.27624 0.0
C817 C 0.25959 0.84951 0.25237 0.0
C818 C 0.24344 0.82981 0.24039 0.0
C819 C 0.24382 0.82993 0.21612 0.0
C820 C 0.22754 0.80993 0.20487 0.0
C821 C 0.21057 0.7898 0.2171 0.0
C822 C 0.20972 0.78942 0.24132 0.0
C823 C 0.19263 0.76956 0.25412 0.0
C824 C 0.19202 0.76926 0.27796 0.0
C825 C 0.2086 0.78874 0.28992 0.0
C826 C 0.22581 0.80908 0.27734 0.0
C827 C 0.22634 0.80944 0.253 0.0
C828 C 0.32521 0.94766 0.17298 0.0
C829 C 0.32846 0.92776 0.16714 0.0
O830 O 0.14658 0.71176 0.3736 0.0
O831 O 0.14667 0.70996 0.16874 0.0
O832 O 0.30699 0.90915 0.1603 0.0
O833 O 0.30125 0.89994 0.37223 0.0
H834 H 0.11829 0.71453 0.38146 0.0
H835 H 0.15383 0.74554 0.40172 0.0
H836 H 0.15667 0.72365 0.41713 0.0
H837 H 0.13124 0.72595 0.42205 0.0
H838 H 0.14108 0.74729 0.36095 0.0
H839 H 0.18261 0.71682 0.35203 0.0
H840 H 0.17991 0.80166 0.3413 0.0
H841 H 0.14858 0.78077 0.34013 0.0
H842 H 0.16695 0.7892 0.31458 0.0
H843 H 0.21802 0.7356 0.33019 0.0
H844 H 0.23288 0.76685 0.3274 0.0
H845 H 0.21514 0.74946 0.30451 0.0
H846 H 0.29605 0.8755 0.39747 0.0
H847 H 0.28901 0.89532 0.4283 0.0
H848 H 0.26893 0.88865 0.40493 0.0
H849 H 0.29329 0.91808 0.40793 0.0
H850 H 0.30712 0.86614 0.36085 0.0
H851 H 0.26726 0.89819 0.3488 0.0
H852 H 0.28288 0.82685 0.31469 0.0
H853 H 0.26923 0.81324 0.34189 0.0
H854 H 0.30063 0.83405 0.34011 0.0
H855 H 0.23322 0.88155 0.32606 0.0
H856 H 0.21782 0.85035 0.32464 0.0
H857 H 0.23662 0.86852 0.30126 0.0
H858 H 0.33457 0.92281 0.1829 0.0
H859 H 0.31808 0.88138 0.18202 0.0
H860 H 0.26299 0.89437 0.16797 0.0
H861 H 0.29382 0.84372 0.22791 0.0
H862 H 0.31092 0.84753 0.20251 0.0
H863 H 0.28058 0.8236 0.2055 0.0
H864 H 0.22568 0.87299 0.18687 0.0
H865 H 0.22265 0.85545 0.21223 0.0
H866 H 0.21576 0.8428 0.18469 0.0
H867 H 0.12497 0.71818 0.15166 0.0
H868 H 0.11028 0.70669 0.19249 0.0
H869 H 0.08823 0.68735 0.17308 0.0
H870 H 0.10552 0.67833 0.18909 0.0
H871 H 0.18686 0.71943 0.18394 0.0
H872 H 0.14021 0.74488 0.17846 0.0
H873 H 0.22268 0.75506 0.22623 0.0
H874 H 0.23727 0.77144 0.20034 0.0
H875 H 0.22385 0.74031 0.2017 0.0
H876 H 0.14857 0.77945 0.19418 0.0
H877 H 0.17974 0.80139 0.19305 0.0
H878 H 0.16604 0.78637 0.21973 0.0
H879 H 0.22476 0.80787 0.34406 0.0
H880 H 0.27241 0.86461 0.28454 0.0
H881 H 0.27277 0.86547 0.24342 0.0
H882 H 0.22797 0.81007 0.18628 0.0
H883 H 0.1795 0.75399 0.24586 0.0
H884 H 0.17844 0.75352 0.2869 0.0
H885 H 0.31918 0.95335 0.15775 0.0
H886 H 0.3421 0.96267 0.17891 0.0
H887 H 0.31176 0.94182 0.18695 0.0
C888 C 0.37776 0.09348 0.64016 0.0
C889 C 0.40392 0.11323 0.63877 0.0
C890 C 0.41528 0.13844 0.67135 0.0
C891 C 0.43663 0.15342 0.68196 0.0
C892 C 0.43987 0.1725 0.69377 0.0
C893 C 0.42082 0.17596 0.69596 0.0
C894 C 0.39898 0.16051 0.68569 0.0
C895 C 0.39656 0.14213 0.67321 0.0
C896 C 0.46371 0.18906 0.70373 0.0
C897 C 0.37808 0.16323 0.68818 0.0
C898 C 0.44744 0.34553 0.63489 0.0
C899 C 0.43908 0.3262 0.65252 0.0
C900 C 0.44423 0.29412 0.66337 0.0
C901 C 0.42278 0.28043 0.67565 0.0
C902 C 0.41838 0.26094 0.6892 0.0
C903 C 0.43622 0.25565 0.69137 0.0
C904 C 0.45785 0.26948 0.67901 0.0
C905 C 0.46134 0.28824 0.66482 0.0
C906 C 0.39457 0.246 0.70108 0.0
C907 C 0.4774 0.26458 0.68087 0.0
C908 C 0.44333 0.29496 0.84093 0.0
C909 C 0.42147 0.28067 0.83045 0.0
C910 C 0.4172 0.26138 0.81832 0.0
C911 C 0.43538 0.25667 0.81603 0.0
C912 C 0.45748 0.27123 0.82632 0.0
C913 C 0.46103 0.29 0.83885 0.0
C914 C 0.39318 0.24591 0.80815 0.0
C915 C 0.47738 0.26694 0.82412 0.0
C916 C 0.39854 0.08408 0.84278 0.0
C917 C 0.4185 0.10572 0.85384 0.0
C918 C 0.41383 0.1387 0.84731 0.0
C919 C 0.39478 0.14161 0.84396 0.0
C920 C 0.39735 0.16039 0.83041 0.0
C921 C 0.41968 0.17688 0.82043 0.0
C922 C 0.43927 0.17455 0.82463 0.0
C923 C 0.43613 0.15547 0.83803 0.0
C924 C 0.37616 0.16246 0.82649 0.0
C925 C 0.46352 0.19222 0.81491 0.0
C926 C 0.42391 0.19599 0.70856 0.0
C927 C 0.42802 0.21562 0.6957 0.0
C928 C 0.43217 0.23554 0.70629 0.0
C929 C 0.43242 0.23602 0.73052 0.0
C930 C 0.43763 0.25608 0.74182 0.0
C931 C 0.43728 0.25622 0.76565 0.0
C932 C 0.43183 0.23634 0.77915 0.0
C933 C 0.43112 0.23621 0.8034 0.0
C934 C 0.42663 0.21642 0.81626 0.0
C935 C 0.42268 0.19661 0.80563 0.0
C936 C 0.42253 0.19616 0.78141 0.0
C937 C 0.41789 0.17627 0.77015 0.0
C938 C 0.41817 0.17611 0.74631 0.0
C939 C 0.42319 0.19585 0.7328 0.0
C940 C 0.42756 0.21599 0.7438 0.0
C941 C 0.42724 0.21614 0.76814 0.0
C942 C 0.44237 0.3412 0.87193 0.0
C943 C 0.4342 0.3231 0.85453 0.0
O944 O 0.41295 0.12001 0.66048 0.0
O945 O 0.41027 0.11981 0.85986 0.0
O946 O 0.44798 0.31343 0.85334 0.0
O947 O 0.44894 0.31287 0.64982 0.0
H948 H 0.40522 0.12819 0.62875 0.0
H949 H 0.36629 0.09996 0.64484 0.0
H950 H 0.37493 0.07973 0.65304 0.0
H951 H 0.37183 0.08561 0.6232 0.0
H952 H 0.45095 0.15038 0.68055 0.0
H953 H 0.37984 0.13041 0.66553 0.0
H954 H 0.46974 0.20722 0.69819 0.0
H955 H 0.47732 0.18534 0.69849 0.0
H956 H 0.46225 0.18776 0.72272 0.0
H957 H 0.36166 0.14846 0.68121 0.0
H958 H 0.38192 0.17951 0.67898 0.0
H959 H 0.37494 0.16463 0.70654 0.0
H960 H 0.43953 0.33113 0.67061 0.0
H961 H 0.41668 0.33709 0.61708 0.0
H962 H 0.46354 0.34757 0.62625 0.0
H963 H 0.45773 0.36185 0.6447 0.0
H964 H 0.40924 0.28459 0.6744 0.0
H965 H 0.47776 0.29881 0.65516 0.0
H966 H 0.38794 0.22728 0.69957 0.0
H967 H 0.38122 0.24946 0.6939 0.0
H968 H 0.3963 0.24965 0.71957 0.0
H969 H 0.49431 0.27899 0.67313 0.0
H970 H 0.47221 0.24851 0.67185 0.0
H971 H 0.48036 0.2617 0.6991 0.0
H972 H 0.43044 0.32798 0.83729 0.0
H973 H 0.40756 0.28426 0.83194 0.0
H974 H 0.47782 0.30108 0.84699 0.0
H975 H 0.39472 0.24776 0.78916 0.0
H976 H 0.38015 0.25028 0.81374 0.0
H977 H 0.38631 0.22743 0.81309 0.0
H978 H 0.49432 0.28148 0.83053 0.0
H979 H 0.47993 0.26442 0.80593 0.0
H980 H 0.47278 0.2508 0.83412 0.0
H981 H 0.43302 0.11473 0.84077 0.0
H982 H 0.4047 0.07243 0.83808 0.0
H983 H 0.39289 0.08926 0.82692 0.0
H984 H 0.383 0.07439 0.85462 0.0
H985 H 0.37773 0.12877 0.85154 0.0
H986 H 0.45116 0.15383 0.84146 0.0
H987 H 0.37337 0.1634 0.80781 0.0
H988 H 0.37945 0.17879 0.83368 0.0
H989 H 0.35976 0.14762 0.83456 0.0
H990 H 0.47727 0.18892 0.8212 0.0
H991 H 0.46854 0.20995 0.81952 0.0
H992 H 0.46324 0.19182 0.79592 0.0
H993 H 0.42813 0.21545 0.67712 0.0
H994 H 0.44201 0.27193 0.73235 0.0
H995 H 0.44136 0.27214 0.77335 0.0
H996 H 0.42652 0.21655 0.83483 0.0
H997 H 0.41396 0.16058 0.77964 0.0
H998 H 0.41442 0.1603 0.7386 0.0
H999 H 0.41436 0.3268 0.89585 0.0
H1000 H 0.4482 0.35783 0.8617 0.0
H1001 H 0.46085 0.34621 0.87664 0.0
H1002 H 0.03831 0.4383 0.04098 0.0
H1003 H 0.08574 0.50854 0.06112 0.0
H1004 H 0.05663 0.4245 0.06827 0.0
H1005 H 0.10473 0.49508 0.08801 0.0
H1006 H 0.10812 0.45762 0.15422 0.0
H1007 H 0.09427 0.47323 0.12414 0.0
H1008 H 0.09186 0.42436 0.07729 0.0
H1009 H 0.1051 0.40834 0.10772 0.0
C1010 C 0.05292 0.45075 0.05111 0.0
C1011 C 0.0606 0.47436 0.04927 0.0
C1012 C 0.06353 0.44295 0.0666 0.0
C1013 C 0.0821 0.45867 0.08043 0.0
C1014 C 0.09024 0.48246 0.0779 0.0
C1015 C 0.07955 0.49022 0.06246 0.0
C1016 C 0.10496 0.45048 0.13739 0.0
C1017 C 0.10806 0.43204 0.13321 0.0
C1018 C 0.09711 0.45946 0.1201 0.0
C1019 C 0.09203 0.45012 0.09824 0.0
C1020 C 0.09542 0.43183 0.09398 0.0
C1021 C 0.10322 0.4228 0.11131 0.0
H1022 H 0.59512 0.02084 0.54678 0.0
H1023 H 0.57322 0.06623 0.56967 0.0
H1024 H 0.62665 0.03618 0.57497 0.0
H1025 H 0.60505 0.08214 0.59762 0.0
H1026 H 0.69184 0.07983 0.61696 0.0
H1027 H 0.66376 0.06985 0.58587 0.0
H1028 H 0.61335 0.06842 0.63313 0.0
H1029 H 0.64165 0.07895 0.66395 0.0
C1030 C 0.59742 0.03441 0.55768 0.0
C1031 C 0.58192 0.04242 0.55626 0.0
C1032 C 0.61549 0.04329 0.57371 0.0
C1033 C 0.61836 0.06036 0.58863 0.0
C1034 C 0.60315 0.0688 0.58662 0.0
C1035 C 0.58508 0.05988 0.57058 0.0
C1036 C 0.67493 0.07783 0.62054 0.0
C1037 C 0.66909 0.08059 0.64279 0.0
C1038 C 0.65875 0.07189 0.6028 0.0
C1039 C 0.6363 0.06837 0.60697 0.0
C1040 C 0.63062 0.07143 0.62919 0.0
C1041 C 0.64679 0.07739 0.64688 0.0
H1042 H 0.53733 0.5633 0.10888 0.0
H1043 H 0.56128 0.61401 0.05228 0.0
H1044 H 0.55137 0.59409 0.13575 0.0
H1045 H 0.57418 0.64487 0.07931 0.0
H1046 H 0.6193 0.69507 0.13614 0.0
H1047 H 0.60417 0.66564 0.1072 0.0
H1048 H 0.54272 0.62092 0.15033 0.0
H1049 H 0.55834 0.64995 0.17943 0.0
C1050 C 0.5456 0.58103 0.10212 0.0
C1051 C 0.54829 0.58611 0.07835 0.0
C1052 C 0.55333 0.59872 0.11758 0.0
C1053 C 0.5638 0.62202 0.10975 0.0
C1054 C 0.56638 0.62715 0.08597 0.0
C1055 C 0.55872 0.60941 0.07045 0.0
C1056 C 0.60247 0.679 0.13926 0.0
C1057 C 0.59003 0.67478 0.16006 0.0
C1058 C 0.59372 0.66217 0.12266 0.0
C1059 C 0.5723 0.64076 0.12649 0.0
C1060 C 0.55951 0.63697 0.14698 0.0
C1061 C 0.56833 0.6537 0.16359 0.0
H1062 H 0.93168 0.52004 0.57013 0.0
H1063 H 0.00351 0.57403 0.58492 0.0
H1064 H 0.91701 0.53624 0.59728 0.0
H1065 H 0.98865 0.58909 0.61288 0.0
H1066 H 0.95014 0.58561 0.68111 0.0
H1067 H 0.96292 0.56918 0.65227 0.0
H1068 H 0.92125 0.57876 0.60155 0.0
H1069 H 0.90908 0.59603 0.63007 0.0
C1070 C 0.94438 0.5354 0.57894 0.0
C1071 C 0.96887 0.54553 0.57534 0.0
C1072 C 0.93591 0.54455 0.59458 0.0
C1073 C 0.95174 0.56373 0.60726 0.0
C1074 C 0.97611 0.57406 0.60352 0.0
C1075 C 0.98458 0.56526 0.5876 0.0
C1076 C 0.94364 0.58415 0.66382 0.0
C1077 C 0.92855 0.59208 0.65799 0.0
C1078 C 0.95099 0.57481 0.64736 0.0
C1079 C 0.94305 0.57276 0.62476 0.0
C1080 C 0.92748 0.58007 0.61893 0.0
C1081 C 0.92052 0.58992 0.6353 0.0
H1082 H 0.41666 0.94447 0.04958 0.0
H1083 H 0.45782 0.00754 0.0856 0.0
H1084 H 0.38381 0.93237 0.07533 0.0
H1085 H 0.4249 0.99547 0.11135 0.0
H1086 H 0.37601 0.94886 0.17233 0.0
H1087 H 0.40707 0.96373 0.14287 0.0
H1088 H 0.35445 0.94087 0.09025 0.0
H1089 H 0.32331 0.92612 0.11984 0.0
C1090 C 0.41985 0.95503 0.064 0.0
C1091 C 0.44242 0.9746 0.06852 0.0
C1092 C 0.40029 0.94849 0.07825 0.0
C1093 C 0.40235 0.96207 0.09662 0.0
C1094 C 0.42336 0.98367 0.09851 0.0
C1095 C 0.44275 0.99018 0.08411 0.0
C1096 C 0.37109 0.94687 0.15447 0.0
C1097 C 0.34721 0.93579 0.14844 0.0
C1098 C 0.38886 0.9556 0.1376 0.0
C1099 C 0.3832 0.95348 0.11424 0.0
C1100 C 0.35932 0.94254 0.10812 0.0
C1101 C 0.34151 0.93402 0.12505 0.0
H1102 H 0.49066 0.44649 0.59088 0.0
H1103 H 0.45463 0.40536 0.53283 0.0
H1104 H 0.47199 0.41113 0.61591 0.0
H1105 H 0.43703 0.36992 0.5576 0.0
H1106 H 0.42542 0.29931 0.60711 0.0
H1107 H 0.44721 0.3411 0.5777 0.0
H1108 H 0.42866 0.38271 0.6347 0.0
H1109 H 0.40656 0.34216 0.66573 0.0
C1110 C 0.4789 0.42985 0.58351 0.0
C1111 C 0.47401 0.42856 0.55999 0.0
C1112 C 0.46826 0.40971 0.59777 0.0
C1113 C 0.45323 0.38794 0.58857 0.0
C1114 C 0.4488 0.38654 0.565 0.0
C1115 C 0.45881 0.40674 0.55087 0.0
C1116 C 0.42519 0.31444 0.61178 0.0
C1117 C 0.41749 0.31779 0.64139 0.0
C1118 C 0.43964 0.34084 0.59412 0.0
C1119 C 0.44166 0.36681 0.60362 0.0
C1120 C 0.42796 0.3671 0.63011 0.0
C1121 C 0.41304 0.34159 0.64898 0.0
H1122 H 0.53886 0.96499 0.41509 0.0
H1123 H 0.56395 0.94766 0.47626 0.0
H1124 H 0.55566 0.94799 0.39177 0.0
H1125 H 0.58058 0.9304 0.45292 0.0
H1126 H 0.63986 0.9243 0.40413 0.0
H1127 H 0.61683 0.94199 0.43076 0.0
H1128 H 0.55124 0.91433 0.37419 0.0
H1129 H 0.57286 0.89631 0.34588 0.0
C1130 C 0.54789 0.95744 0.42353 0.0
C1131 C 0.55018 0.95774 0.44748 0.0
C1132 C 0.5573 0.94747 0.41021 0.0
C1133 C 0.56944 0.93786 0.42053 0.0
C1134 C 0.57151 0.93789 0.44448 0.0
C1135 C 0.56182 0.94759 0.45785 0.0
C1136 C 0.62406 0.92342 0.39808 0.0
C1137 C 0.60647 0.9047 0.37429 0.0
C1138 C 0.60886 0.93319 0.41518 0.0
C1139 C 0.58075 0.92876 0.40632 0.0
C1140 C 0.5676 0.91593 0.37941 0.0
C1141 C 0.58142 0.90557 0.36111 0.0
H1142 H 0.57084 0.51155 0.94261 0.0
H1143 H 0.60521 0.56711 0.98945 0.0
H1144 H 0.60814 0.52762 0.92097 0.0
H1145 H 0.64261 0.58323 0.96811 0.0
H1146 H 0.69961 0.61766 0.9119 0.0
H1147 H 0.66105 0.60204 0.93054 0.0
H1148 H 0.64748 0.53263 0.9272 0.0
H1149 H 0.68603 0.54828 0.90855 0.0
C1150 C 0.58646 0.52726 0.94813 0.0
C1151 C 0.5854 0.53822 0.96752 0.0
C1152 C 0.60776 0.53639 0.9359 0.0
C1153 C 0.62833 0.5567 0.94282 0.0
C1154 C 0.62704 0.56774 0.96216 0.0
C1155 C 0.60576 0.55854 0.97443 0.0
C1156 C 0.6882 0.59904 0.91483 0.0
C1157 C 0.69563 0.58418 0.90826 0.0
C1158 C 0.66623 0.59011 0.92568 0.0
C1159 C 0.65119 0.56609 0.93029 0.0
C1160 C 0.65851 0.55118 0.92355 0.0
C1161 C 0.68057 0.56013 0.91286 0.0
H1162 H 0.06373 0.5637 0.43633 0.0
H1163 H 0.04313 0.59526 0.486 0.0
H1164 H 0.08535 0.60074 0.41399 0.0
H1165 H 0.06478 0.63239 0.46394 0.0
H1166 H 0.08532 0.68781 0.40656 0.0
H1167 H 0.0626 0.64978 0.4266 0.0
H1168 H 0.12124 0.64036 0.41831 0.0
H1169 H 0.14396 0.67842 0.39833 0.0
C1170 C 0.06392 0.57867 0.44237 0.0
C1171 C 0.05193 0.5769 0.46272 0.0
C1172 C 0.07631 0.59981 0.42972 0.0
C1173 C 0.07674 0.61947 0.43719 0.0
C1174 C 0.06453 0.6175 0.45758 0.0
C1175 C 0.05227 0.59639 0.47025 0.0
C1176 C 0.09318 0.67743 0.40873 0.0
C1177 C 0.11619 0.68588 0.40039 0.0
C1178 C 0.08028 0.65578 0.42037 0.0
C1179 C 0.09011 0.64206 0.42398 0.0
C1180 C 0.11305 0.65038 0.41549 0.0
C1181 C 0.12605 0.67216 0.40402 0.0
H1182 H 0.49898 0.08245 0.95919 0.0
H1183 H 0.42837 0.02145 0.96252 0.0
H1184 H 0.486 0.10114 0.93151 0.0
H1185 H 0.4155 0.03999 0.93451 0.0
H1186 H 0.39598 0.08701 0.89567 0.0
H1187 H 0.40905 0.07269 0.92798 0.0
H1188 H 0.47387 0.09425 0.89096 0.0
H1189 H 0.46081 0.1085 0.85884 0.0
C1190 C 0.48059 0.07318 0.9543 0.0
C1191 C 0.46472 0.05043 0.96299 0.0
C1192 C 0.47323 0.0838 0.93827 0.0
C1193 C 0.44977 0.072 0.93071 0.0
C1194 C 0.43365 0.04962 0.9401 0.0
C1195 C 0.44107 0.03891 0.95599 0.0
C1196 C 0.41312 0.0889 0.89463 0.0
C1197 C 0.4274 0.09892 0.87477 0.0
C1198 C 0.42055 0.08061 0.91303 0.0
C1199 C 0.44249 0.08233 0.91203 0.0
C1200 C 0.45702 0.09294 0.89242 0.0
C1201 C 0.44951 0.10104 0.87397 0.0
H1202 H 0.39906 0.44746 0.4593 0.0
H1203 H 0.45697 0.48549 0.41057 0.0
H1204 H 0.37131 0.4437 0.42978 0.0
H1205 H 0.42949 0.4821 0.38134 0.0
H1206 H 0.37456 0.46882 0.31674 0.0
H1207 H 0.4049 0.46628 0.35043 0.0
H1208 H 0.35378 0.46395 0.41462 0.0
H1209 H 0.32201 0.46627 0.38238 0.0
C1210 C 0.40583 0.45489 0.44225 0.0
C1211 C 0.43022 0.46688 0.4373 0.0
C1212 C 0.38995 0.45282 0.42536 0.0
C1213 C 0.39817 0.46275 0.40323 0.0
C1214 C 0.42241 0.47385 0.39803 0.0
C1215 C 0.43826 0.47585 0.41487 0.0
C1216 C 0.37137 0.46905 0.33484 0.0
C1217 C 0.34274 0.46355 0.34608 0.0
C1218 C 0.38947 0.46624 0.35603 0.0
C1219 C 0.3819 0.46316 0.38623 0.0
C1220 C 0.35701 0.46435 0.39644 0.0
C1221 C 0.33783 0.4671 0.37659 0.0
H1222 H 1.0001 0.42372 0.92517 0.0
H1223 H 0.93364 0.41423 0.9471 0.0
H1224 H 0.97886 0.38953 0.90227 0.0
H1225 H 0.91245 0.37922 0.92571 0.0
H1226 H 0.8782 0.32521 0.8735 0.0
H1227 H 0.9016 0.3632 0.88981 0.0
H1228 H 0.95585 0.34883 0.90716 0.0
H1229 H 0.93295 0.31138 0.88955 0.0
C1230 C 0.98098 0.41445 0.92505 0.0
C1231 C 0.96864 0.42171 0.9382 0.0
C1232 C 0.96875 0.39459 0.91215 0.0
C1233 C 0.94386 0.38137 0.9122 0.0
C1234 C 0.93158 0.38899 0.92494 0.0
C1235 C 0.94379 0.40894 0.9376 0.0
C1236 C 0.89537 0.33039 0.88029 0.0
C1237 C 0.90395 0.31544 0.87982 0.0
C1238 C 0.90871 0.3521 0.88995 0.0
C1239 C 0.93067 0.35919 0.89996 0.0
C1240 C 0.93929 0.34428 0.89926 0.0
C1241 C 0.92612 0.32273 0.88928 0.0
H1242 H 0.96091 0.51613 0.94269 0.0
H1243 H 0.01 0.58034 0.97422 0.0
H1244 H 0.94399 0.53544 0.9212 0.0
H1245 H 0.99353 0.60001 0.95246 0.0
H1246 H 0.94129 0.62052 0.92663 0.0
H1247 H 0.95753 0.60126 0.94929 0.0
H1248 H 0.95573 0.56441 0.8899 0.0
H1249 H 0.93915 0.58333 0.86749 0.0
C1250 C 0.968 0.53442 0.94493 0.0
C1251 C 0.98662 0.54687 0.95996 0.0
C1252 C 0.95849 0.54551 0.93259 0.0
C1253 C 0.96748 0.56929 0.93507 0.0
C1254 C 0.98605 0.58165 0.95036 0.0
C1255 C 0.99556 0.57051 0.96269 0.0
C1256 C 0.94429 0.60822 0.91852 0.0
C1257 C 0.93861 0.60313 0.89542 0.0
C1258 C 0.95372 0.59731 0.93142 0.0
C1259 C 0.95774 0.58117 0.92143 0.0
C1260 C 0.9524 0.5764 0.89822 0.0
C1261 C 0.94302 0.58729 0.88536 0.0
H1262 H 0.44606 0.94472 0.44486 0.0
H1263 H 0.4285 0.99408 0.46547 0.0
H1264 H 0.40948 0.92448 0.42307 0.0
H1265 H 0.3918 0.9739 0.44388 0.0
H1266 H 0.33545 0.94152 0.38936 0.0
H1267 H 0.37529 0.96392 0.40497 0.0
H1268 H 0.36725 0.90052 0.43373 0.0
H1269 H 0.32768 0.87829 0.41806 0.0
C1270 C 0.43439 0.9513 0.44446 0.0
C1271 C 0.43986 0.97082 0.45674 0.0
C1272 C 0.41347 0.93972 0.43214 0.0
C1273 C 0.3977 0.94753 0.43182 0.0
C1274 C 0.40369 0.9676 0.44356 0.0
C1275 C 0.42457 0.97909 0.45597 0.0
C1276 C 0.34241 0.93242 0.39875 0.0
C1277 C 0.32854 0.90816 0.4024 0.0
C1278 C 0.36511 0.94522 0.40779 0.0
C1279 C 0.37442 0.93399 0.4206 0.0
C1280 C 0.36075 0.90967 0.42368 0.0
C1281 C 0.33805 0.89693 0.41478 0.0
H1282 H 0.46079 0.39141 0.97668 0.0
H1283 H 0.47088 0.43608 0.91731 0.0
H1284 H 0.44474 0.35829 0.95235 0.0
H1285 H 0.45381 0.40256 0.89324 0.0
H1286 H 0.39342 0.33037 0.85148 0.0
H1287 H 0.41431 0.36934 0.8811 0.0
H1288 H 0.45357 0.33561 0.9272 0.0
H1289 H 0.4334 0.29557 0.89902 0.0
C1290 C 0.45987 0.39432 0.95845 0.0
C1291 C 0.46728 0.41663 0.94909 0.0
C1292 C 0.45059 0.37524 0.9445 0.0
C1293 C 0.44809 0.37789 0.92091 0.0
C1294 C 0.45529 0.4 0.91145 0.0
C1295 C 0.46497 0.4192 0.92532 0.0
C1296 C 0.40362 0.33081 0.86615 0.0
C1297 C 0.41473 0.31088 0.86969 0.0
C1298 C 0.41778 0.3556 0.88389 0.0
C1299 C 0.43744 0.35755 0.90638 0.0
C1300 C 0.44243 0.33427 0.91307 0.0
C1301 C 0.42912 0.30876 0.8963 0.0
H1302 H 0.04867 0.47688 0.41401 0.0
H1303 H 0.04926 0.43578 0.47187 0.0
H1304 H 0.06472 0.46012 0.38942 0.0
H1305 H 0.06402 0.41789 0.44724 0.0
H1306 H 0.11009 0.40418 0.40278 0.0
H1307 H 0.09647 0.42326 0.42705 0.0
H1308 H 0.05622 0.42736 0.37075 0.0
H1309 H 0.07136 0.40996 0.34618 0.0
C1310 C 0.05199 0.464 0.42135 0.0
C1311 C 0.04777 0.45762 0.44479 0.0
C1312 C 0.06107 0.45425 0.40727 0.0
C1313 C 0.0657 0.4375 0.41621 0.0
C1314 C 0.06122 0.43104 0.43972 0.0
C1315 C 0.05259 0.44115 0.45387 0.0
C1316 C 0.09834 0.4092 0.39563 0.0
C1317 C 0.09132 0.40496 0.37271 0.0
C1318 C 0.09034 0.42 0.4096 0.0
C1319 C 0.0749 0.42667 0.40109 0.0
C1320 C 0.06824 0.42275 0.37799 0.0
C1321 C 0.07662 0.41238 0.36392 0.0
H1322 H 0.58275 0.01249 0.9662 0.0
H1323 H 0.57347 0.06837 0.94397 0.0
H1324 H 0.61841 0.0291 0.94193 0.0
H1325 H 0.60938 0.08531 0.9199 0.0
H1326 H 0.69153 0.12182 0.91019 0.0
H1327 H 0.65286 0.10386 0.92917 0.0
H1328 H 0.63207 0.03839 0.90003 0.0
H1329 H 0.67078 0.0565 0.88073 0.0
C1330 C 0.58829 0.02821 0.95588 0.0
C1331 C 0.57565 0.03934 0.957 0.0
C1332 C 0.60859 0.03767 0.94198 0.0
C1333 C 0.61672 0.05856 0.92912 0.0
C1334 C 0.60364 0.06932 0.9298 0.0
C1335 C 0.58315 0.05967 0.94347 0.0
C1336 C 0.67861 0.10366 0.90762 0.0
C1337 C 0.68424 0.09052 0.89411 0.0
C1338 C 0.65645 0.09341 0.91841 0.0
C1339 C 0.63948 0.06972 0.91612 0.0
C1340 C 0.64489 0.05665 0.90224 0.0
C1341 C 0.66699 0.06699 0.89119 0.0
H1342 H 0.5687 0.59647 0.4941 0.0
H1343 H 0.53323 0.56337 0.43231 0.0
H1344 H 0.58796 0.63448 0.47368 0.0
H1345 H 0.55246 0.60136 0.41168 0.0
H1346 H 0.61175 0.67221 0.37896 0.0
H1347 H 0.59268 0.63379 0.39845 0.0
H1348 H 0.57583 0.66039 0.45638 0.0
H1349 H 0.59492 0.69874 0.43691 0.0
C1350 C 0.56517 0.59744 0.47609 0.0
C1351 C 0.5496 0.57719 0.46467 0.0
C1352 C 0.57603 0.61912 0.46444 0.0
C1353 C 0.57163 0.62092 0.4411 0.0
C1354 C 0.55633 0.60052 0.4296 0.0
C1355 C 0.54532 0.57884 0.44134 0.0
C1356 C 0.60365 0.66971 0.39571 0.0
C1357 C 0.60435 0.68834 0.40622 0.0
C1358 C 0.59276 0.64775 0.40687 0.0
C1359 C 0.58272 0.64406 0.42893 0.0
C1360 C 0.58357 0.66273 0.43947 0.0
C1361 C 0.59429 0.68461 0.42826 0.0
H1362 H 0.48143 0.04829 0.59652 0.0
H1363 H 0.45855 0.06563 0.53385 0.0
H1364 H 0.46555 0.06698 0.61845 0.0
H1365 H 0.44185 0.08357 0.55568 0.0
H1366 H 0.42919 0.13006 0.59799 0.0
H1367 H 0.44979 0.11517 0.57734 0.0
H1368 H 0.43007 0.06221 0.63119 0.0
H1369 H 0.41079 0.07805 0.65228 0.0
C1370 C 0.47281 0.05595 0.58747 0.0
C1371 C 0.47122 0.05548 0.56348 0.0
C1372 C 0.46362 0.06663 0.60003 0.0
C1373 C 0.4523 0.07683 0.58894 0.0
C1374 C 0.45082 0.07637 0.56487 0.0
C1375 C 0.46028 0.06596 0.55231 0.0
C1376 C 0.42954 0.11541 0.60548 0.0
C1377 C 0.41817 0.10509 0.62665 0.0
C1378 C 0.44115 0.1067 0.59355 0.0
C1379 C 0.44144 0.08724 0.60237 0.0
C1380 C 0.43055 0.07735 0.62388 0.0
C1381 C 0.41927 0.08628 0.63593 0.0
H1382 H 0.42044 0.43242 0.04711 0.0
H1383 H 0.44184 0.49983 0.07129 0.0
H1384 H 0.3827 0.41541 0.06782 0.0
H1385 H 0.40413 0.48291 0.09234 0.0
H1386 H 0.31809 0.45381 0.11124 0.0
H1387 H 0.3634 0.47267 0.08825 0.0
H1388 H 0.35958 0.39729 0.10149 0.0
H1389 H 0.31434 0.37661 0.12468 0.0
C1390 C 0.41704 0.44348 0.05712 0.0
C1391 C 0.43387 0.46733 0.05772 0.0
C1392 C 0.39554 0.43378 0.06911 0.0
C1393 C 0.39045 0.44781 0.08181 0.0
C1394 C 0.40742 0.47169 0.0825 0.0
C1395 C 0.42901 0.48137 0.07061 0.0
C1396 C 0.32541 0.44316 0.10864 0.0
C1397 C 0.31348 0.41441 0.12402 0.0
C1398 C 0.35415 0.45506 0.09542 0.0
C1399 C 0.36727 0.43767 0.09362 0.0
C1400 C 0.35163 0.40745 0.10347 0.0
C1401 C 0.32286 0.39399 0.11696 0.0
H1402 H 0.96996 0.40749 0.53477 0.0
H1403 H 0.95545 0.44478 0.58321 0.0
H1404 H 0.94982 0.37251 0.56015 0.0
H1405 H 0.93575 0.41016 0.60898 0.0
H1406 H 0.88457 0.33892 0.64152 0.0
H1407 H 0.90137 0.37163 0.6136 0.0
H1408 H 0.95619 0.35866 0.59649 0.0
H1409 H 0.9388 0.32541 0.62385 0.0
C1410 C 0.96228 0.40802 0.55086 0.0
C1411 C 0.96404 0.42854 0.55718 0.0
C1412 C 0.95094 0.38815 0.56546 0.0
C1413 C 0.9412 0.38852 0.58665 0.0
C1414 C 0.94274 0.40914 0.59268 0.0
C1415 C 0.95409 0.42897 0.57807 0.0
C1416 C 0.89995 0.3428 0.63147 0.0
C1417 C 0.91003 0.32922 0.63444 0.0
C1418 C 0.90974 0.36171 0.61566 0.0
C1419 C 0.93009 0.36775 0.60272 0.0
C1420 C 0.94023 0.35422 0.60579 0.0
C1421 C 0.93034 0.33523 0.6215 0.0
H1422 H 0.59771 0.98688 0.06238 0.0
H1423 H 0.52811 0.92577 0.0739 0.0
H1424 H 0.61492 0.9681 0.08383 0.0
H1425 H 0.54513 0.90719 0.09605 0.0
H1426 H 0.57841 0.85973 0.12421 0.0
H1427 H 0.56022 0.88304 0.09689 0.0
H1428 H 0.6292 0.96117 0.11716 0.0
H1429 H 0.64902 0.93972 0.14469 0.0
C1430 C 0.58609 0.9695 0.06973 0.0
C1431 C 0.56159 0.95778 0.06641 0.0
C1432 C 0.59592 0.95873 0.08217 0.0
C1433 C 0.58143 0.93609 0.09177 0.0
C1434 C 0.55691 0.92443 0.08852 0.0
C1435 C 0.54711 0.93511 0.07589 0.0
C1436 C 0.5882 0.87847 0.1221 0.0
C1437 C 0.61353 0.89743 0.14064 0.0
C1438 C 0.57647 0.89322 0.10607 0.0
C1439 C 0.59179 0.92466 0.10499 0.0
C1440 C 0.62011 0.94245 0.11847 0.0
C1441 C 0.63325 0.92929 0.1349 0.0
H1442 H 0.57185 0.54453 0.60841 0.0
H1443 H 0.62082 0.55103 0.55592 0.0
H1444 H 0.60359 0.55979 0.63611 0.0
H1445 H 0.65205 0.565 0.58416 0.0
H1446 H 0.6855 0.55541 0.6524 0.0
H1447 H 0.65578 0.5441 0.62294 0.0
H1448 H 0.6461 0.59964 0.64041 0.0
H1449 H 0.67665 0.61174 0.66951 0.0
C1450 C 0.58935 0.54941 0.60263 0.0
C1451 C 0.59364 0.54641 0.57983 0.0
C1452 C 0.60746 0.55803 0.61859 0.0
C1453 C 0.63012 0.56343 0.6122 0.0
C1454 C 0.6346 0.56071 0.58948 0.0
C1455 C 0.61663 0.55253 0.5734 0.0
C1456 C 0.67739 0.56551 0.64984 0.0
C1457 C 0.6837 0.58474 0.66319 0.0
C1458 C 0.66035 0.55897 0.63295 0.0
C1459 C 0.64882 0.57108 0.62945 0.0
C1460 C 0.65481 0.59007 0.64286 0.0
C1461 C 0.67224 0.59697 0.65942 0.0
H1462 H 0.08622 0.61806 0.03939 0.0
H1463 H 0.06113 0.56977 0.09805 0.0
H1464 H 0.10387 0.65054 0.065 0.0
H1465 H 0.07818 0.60212 0.12358 0.0
H1466 H 0.12948 0.66534 0.16319 0.0
H1467 H 0.11619 0.63432 0.13623 0.0
H1468 H 0.08955 0.66759 0.09208 0.0
H1469 H 0.10316 0.69874 0.11891 0.0
C1470 C 0.08465 0.61439 0.05774 0.0
C1471 C 0.07221 0.59136 0.06671 0.0
C1472 C 0.09455 0.63298 0.0724 0.0
C1473 C 0.09237 0.62891 0.09632 0.0
C1474 C 0.08037 0.60587 0.10525 0.0
C1475 C 0.07038 0.58732 0.09062 0.0
C1476 C 0.12108 0.66615 0.14755 0.0
C1477 C 0.11768 0.68464 0.14297 0.0
C1478 C 0.11331 0.64832 0.13221 0.0
C1479 C 0.10186 0.64852 0.11199 0.0
C1480 C 0.09866 0.66713 0.10731 0.0
C1481 C 0.10637 0.68492 0.12269 0.0
loop_
_geom_bond_atom_site_label_1
_geom_bond_atom_site_label_2
_geom_bond_distance
_geom_bond_site_symmetry_2
_ccdc_geom_bond_type
C0 C1 1.443 . S
C0 N4 1.376 1_556 S
C0 C38 1.389 . S
C1 C0 1.443 . S
C1 C2 1.340 1_556 S
C1 H41 0.951 . S
C2 C1 1.340 1_554 S
C2 C3 1.439 . S
C2 H42 0.950 . S
C3 C2 1.439 . S
C3 N4 1.374 . S
C3 C37 1.395 . S
N4 C0 1.376 1_554 S
N4 C3 1.374 . S
N4 Co5 2.009 1_655 S
Co5 N4 2.009 1_455 S
Co5 N6 2.017 . S
Co5 N11 2.007 1_554 S
Co5 N16 1.972 1_554 S
Co5 N21 2.300 . S
Co5 N27 2.265 1_554 S
N6 Co5 2.017 . S
N6 C7 1.376 1_455 S
N6 C10 1.383 . S
C7 N6 1.376 1_655 S
C7 C8 1.446 . S
C7 C37 1.391 . S
C8 C7 1.446 . S
C8 C9 1.339 1_655 S
C8 H43 0.949 . S
C9 C8 1.339 1_455 S
C9 C10 1.439 . S
C9 H44 0.950 . S
C10 N6 1.383 . S
C10 C9 1.439 . S
C10 C39 1.392 . S
N11 Co5 2.007 1_556 S
N11 C12 1.366 1_556 S
N11 C15 1.383 . S
C12 N11 1.366 1_554 S
C12 C13 1.443 . S
C12 C39 1.389 . S
C13 C12 1.443 . S
C13 C14 1.340 1_554 S
C13 H45 0.951 . S
C14 C13 1.340 1_556 S
C14 C15 1.439 . S
C14 H46 0.950 . S
C15 N11 1.383 . S
C15 C14 1.439 . S
C15 C40 1.395 . S
N16 Co5 1.972 1_556 S
N16 C17 1.376 . S
N16 C20 1.383 . S
C17 N16 1.376 . S
C17 C18 1.446 . S
C17 C40 1.391 . S
C18 C17 1.446 . S
C18 C19 1.339 . S
C18 H47 0.949 . S
C19 C18 1.339 . S
C19 C20 1.439 . S
C19 H48 0.950 . S
C20 N16 1.383 . S
C20 C19 1.439 . S
C20 C38 1.392 1_455 S
N21 Co5 2.300 . S
N21 C24 1.332 . S
N21 C26 1.332 . S
C22 C23 1.386 . S
C22 C25 1.388 . S
C23 C22 1.386 . S
C23 C24 1.382 . S
C23 H49 0.950 . S
C24 N21 1.332 . S
C24 C23 1.382 . S
C24 H35 0.952 . S
C25 C22 1.388 . S
C25 C26 1.382 . S
C25 H50 0.950 . S
C26 N21 1.332 . S
C26 C25 1.382 . S
C26 H36 0.948 . S
N27 Co5 2.265 1_556 S
N27 C31 1.332 1_455 S
N27 C32 1.332 . S
C28 C29 1.390 . S
C28 C32 1.382 1_655 S
C28 H51 0.949 1_655 S
C29 C28 1.390 . S
C29 C30 1.386 . S
C30 C29 1.386 . S
C30 C31 1.382 . S
C30 H52 0.950 . S
C31 N27 1.332 1_655 S
C31 C30 1.382 . S
C31 H33 0.982 . S
C32 N27 1.332 . S
C32 C28 1.382 1_455 S
C32 H34 0.948 . S
H33 C31 0.982 . S
H34 C32 0.948 . S
H35 C24 0.952 . S
H36 C26 0.948 . S
C37 C3 1.395 . S
C37 C7 1.391 . S
C38 C0 1.389 . S
C38 C20 1.392 1_655 S
C39 C10 1.392 . S
C39 C12 1.389 . S
C40 C15 1.395 . S
C40 C17 1.391 . S
H41 C1 0.951 . S
H42 C2 0.950 . S
H43 C8 0.949 . S
H44 C9 0.950 . S
H45 C13 0.951 . S
H46 C14 0.950 . S
H47 C18 0.949 . S
H48 C19 0.950 . S
H49 C23 0.950 . S
H50 C25 0.950 . S
H51 C28 0.949 1_455 S
H52 C30 0.950 . S
C53 C54 1.443 . S
C53 N57 1.376 1_545 S
C53 C91 1.389 . S
C54 C53 1.443 . S
C54 C55 1.340 1_545 S
C54 H94 0.951 . S
C55 C54 1.340 1_565 S
C55 C56 1.439 . S
C55 H95 0.950 . S
C56 C55 1.439 . S
C56 N57 1.374 . S
C56 C90 1.395 . S
N57 C53 1.376 1_565 S
N57 C56 1.374 . S
N57 Co58 2.008 1_565 S
Co58 N57 2.008 1_545 S
Co58 N59 1.995 1_545 S
Co58 N64 2.008 . S
Co58 N69 1.995 . S
Co58 N74 2.282 1_545 S
Co58 N80 2.282 . S
N59 Co58 1.995 1_565 S
N59 C60 1.376 . S
N59 C63 1.383 . S
C60 N59 1.376 . S
C60 C61 1.446 . S
C60 C90 1.391 . S
C61 C60 1.446 . S
C61 C62 1.339 . S
C61 H96 0.949 . S
C62 C61 1.339 . S
C62 C63 1.439 . S
C62 H97 0.950 . S
C63 N59 1.383 . S
C63 C62 1.439 . S
C63 C92 1.392 . S
N64 Co58 2.008 . S
N64 C65 1.376 1_545 S
N64 C68 1.374 . S
C65 N64 1.376 1_565 S
C65 C66 1.443 1_565 S
C65 C92 1.389 . S
C66 C65 1.443 1_545 S
C66 C67 1.340 . S
C66 H98 0.950 1_545 S
C67 C66 1.340 . S
C67 C68 1.439 . S
C67 H99 0.950 . S
C68 N64 1.374 . S
C68 C67 1.439 . S
C68 C93 1.395 . S
N69 Co58 1.995 . S
N69 C70 1.376 . S
N69 C73 1.383 . S
C70 N69 1.376 . S
C70 C71 1.446 . S
C70 C93 1.391 . S
C71 C70 1.446 . S
C71 C72 1.339 . S
C71 H100 0.949 . S
C72 C71 1.339 . S
C72 C73 1.439 . S
C72 H101 0.950 . S
C73 N69 1.383 . S
C73 C72 1.439 . S
C73 C91 1.392 . S
N74 Co58 2.282 1_565 S
N74 C77 1.332 . S
N74 C79 1.332 . S
C75 C76 1.386 . S
C75 C78 1.388 . S
C76 C75 1.386 . S
C76 C77 1.382 . S
C76 H102 0.950 . S
C77 N74 1.332 . S
C77 C76 1.382 . S
C77 H88 0.952 1_565 S
C78 C75 1.388 . S
C78 C79 1.382 . S
C78 H103 0.950 . S
C79 N74 1.332 . S
C79 C78 1.382 . S
C79 H89 0.948 . S
N80 Co58 2.282 . S
N80 C84 1.332 . S
N80 C85 1.332 . S
C81 C82 1.388 . S
C81 C85 1.382 . S
C81 H104 0.950 . S
C82 C81 1.388 . S
C82 C83 1.386 . S
C83 C82 1.386 . S
C83 C84 1.382 . S
C83 H105 0.950 . S
C84 N80 1.332 . S
C84 C83 1.382 . S
C84 H86 0.952 1_545 S
C85 N80 1.332 . S
C85 C81 1.382 . S
C85 H87 0.948 . S
H86 C84 0.952 1_565 S
H87 C85 0.948 . S
H88 C77 0.952 1_545 S
H89 C79 0.948 . S
C90 C56 1.395 . S
C90 C60 1.391 . S
C91 C53 1.389 . S
C91 C73 1.392 . S
C92 C63 1.392 . S
C92 C65 1.389 . S
C93 C68 1.395 . S
C93 C70 1.391 . S
H94 C54 0.951 . S
H95 C55 0.950 . S
H96 C61 0.949 . S
H97 C62 0.950 . S
H98 C66 0.950 1_565 S
H99 C67 0.950 . S
H100 C71 0.949 . S
H101 C72 0.950 . S
H102 C76 0.950 . S
H103 C78 0.950 . S
H104 C81 0.950 . S
H105 C83 0.950 . S
C106 C107 1.443 . S
C106 N110 1.376 . S
C106 C144 1.389 . S
C107 C106 1.443 . S
C107 C108 1.340 . S
C107 H147 0.951 . S
C108 C107 1.340 . S
C108 C109 1.439 . S
C108 H148 0.950 . S
C109 C108 1.439 . S
C109 N110 1.374 . S
C109 C143 1.395 . S
N110 C106 1.376 . S
N110 C109 1.374 . S
N110 Co111 2.008 1_556 S
Co111 N110 2.008 1_554 S
Co111 N112 1.995 . S
Co111 N117 2.008 . S
Co111 N122 1.995 . S
Co111 N127 2.282 . S
Co111 N133 2.282 1_554 S
N112 Co111 1.995 . S
N112 C113 1.376 1_554 S
N112 C116 1.383 . S
C113 N112 1.376 1_556 S
C113 C114 1.446 . S
C113 C143 1.391 . S
C114 C113 1.446 . S
C114 C115 1.339 1_556 S
C114 H149 0.949 . S
C115 C114 1.339 1_554 S
C115 C116 1.439 . S
C115 H150 0.950 . S
C116 N112 1.383 . S
C116 C115 1.439 . S
C116 C145 1.392 . S
N117 Co111 2.008 . S
N117 C118 1.376 . S
N117 C121 1.374 . S
C118 N117 1.376 . S
C118 C119 1.443 . S
C118 C145 1.389 . S
C119 C118 1.443 . S
C119 C120 1.340 . S
C119 H151 0.951 . S
C120 C119 1.340 . S
C120 C121 1.439 . S
C120 H152 0.950 . S
C121 N117 1.374 . S
C121 C120 1.439 . S
C121 C146 1.395 . S
N122 Co111 1.995 . S
N122 C123 1.376 . S
N122 C126 1.358 1_554 S
C123 N122 1.376 . S
C123 C124 1.446 . S
C123 C146 1.391 . S
C124 C123 1.446 . S
C124 C125 1.339 . S
C124 H153 0.949 . S
C125 C124 1.339 . S
C125 C126 1.428 1_554 S
C125 H154 0.950 1_554 S
C126 N122 1.358 1_556 S
C126 C125 1.428 1_556 S
C126 C144 1.425 . S
N127 Co111 2.282 . S
N127 C130 1.332 . S
N127 C132 1.332 . S
C128 C129 1.386 . S
C128 C131 1.388 . S
C129 C128 1.386 . S
C129 C130 1.382 . S
C129 H155 0.950 . S
C130 N127 1.332 . S
C130 C129 1.382 . S
C130 H141 0.952 . S
C131 C128 1.388 . S
C131 C132 1.382 . S
C131 H156 0.950 . S
C132 N127 1.332 . S
C132 C131 1.382 . S
C132 H142 0.948 . S
N133 Co111 2.282 1_556 S
N133 C137 1.332 . S
N133 C138 1.332 . S
C134 C135 1.388 . S
C134 C138 1.382 . S
C134 H157 0.950 . S
C135 C134 1.388 . S
C135 C136 1.386 . S
C136 C135 1.386 . S
C136 C137 1.382 . S
C136 H158 0.950 . S
C137 N133 1.332 . S
C137 C136 1.382 . S
C137 H139 0.952 . S
C138 N133 1.332 . S
C138 C134 1.382 . S
C138 H140 0.948 1_556 S
H139 C137 0.952 . S
H140 C138 0.948 1_554 S
H141 C130 0.952 . S
H142 C132 0.948 . S
C143 C109 1.395 . S
C143 C113 1.391 . S
C144 C106 1.389 . S
C144 C126 1.425 . S
C145 C116 1.392 . S
C145 C118 1.389 . S
C146 C121 1.395 . S
C146 C123 1.391 . S
H147 C107 0.951 . S
H148 C108 0.950 . S
H149 C114 0.949 . S
H150 C115 0.950 . S
H151 C119 0.951 . S
H152 C120 0.950 . S
H153 C124 0.949 . S
H154 C125 0.950 1_556 S
H155 C129 0.950 . S
H156 C131 0.950 . S
H157 C134 0.950 . S
H158 C136 0.950 . S
C159 C160 1.443 . S
C159 N163 1.376 . S
C159 C197 1.389 . S
C160 C159 1.443 . S
C160 C161 1.340 . S
C160 H200 0.951 . S
C161 C160 1.340 . S
C161 C162 1.439 . S
C161 H201 0.950 . S
C162 C161 1.439 . S
C162 N163 1.374 . S
C162 C196 1.395 . S
N163 C159 1.376 . S
N163 C162 1.374 . S
N163 Co164 2.008 1_655 S
Co164 N163 2.008 1_455 S
Co164 N165 1.995 1_455 S
Co164 N170 2.008 . S
Co164 N175 1.995 . S
Co164 N180 2.282 . S
Co164 N186 2.282 1_455 S
N165 Co164 1.995 1_655 S
N165 C166 1.376 . S
N165 C169 1.383 1_655 S
C166 N165 1.376 . S
C166 C167 1.446 . S
C166 C196 1.391 . S
C167 C166 1.446 . S
C167 C168 1.374 . S
C167 H202 0.949 . S
C168 C167 1.374 . S
C168 C169 1.408 1_655 S
C168 H203 0.948 1_655 S
C169 N165 1.383 1_455 S
C169 C168 1.408 1_455 S
C169 C198 1.392 . S
N170 Co164 2.008 . S
N170 C171 1.376 . S
N170 C174 1.374 . S
C171 N170 1.376 . S
C171 C172 1.443 . S
C171 C198 1.389 . S
C172 C171 1.443 . S
C172 C173 1.340 . S
C172 H204 0.951 . S
C173 C172 1.340 . S
C173 C174 1.439 . S
C173 H205 0.950 . S
C174 N170 1.374 . S
C174 C173 1.439 . S
C174 C199 1.395 . S
N175 Co164 1.995 . S
N175 C176 1.376 . S
N175 C179 1.383 1_455 S
C176 N175 1.376 . S
C176 C177 1.446 . S
C176 C199 1.391 . S
C177 C176 1.446 . S
C177 C178 1.339 . S
C177 H206 0.949 . S
C178 C177 1.339 . S
C178 C179 1.439 1_455 S
C178 H207 0.950 1_455 S
C179 N175 1.383 1_655 S
C179 C178 1.439 1_655 S
C179 C197 1.392 . S
N180 Co164 2.282 . S
N180 C183 1.332 . S
N180 C185 1.332 . S
C181 C182 1.386 . S
C181 C184 1.388 . S
C182 C181 1.386 . S
C182 C183 1.382 . S
C182 H208 0.950 . S
C183 N180 1.332 . S
C183 C182 1.382 . S
C183 H194 0.952 . S
C184 C181 1.388 . S
C184 C185 1.382 . S
C184 H209 0.950 . S
C185 N180 1.332 . S
C185 C184 1.382 . S
C185 H195 0.948 1_455 S
N186 Co164 2.282 1_655 S
N186 C190 1.332 . S
N186 C191 1.332 . S
C187 C188 1.388 . S
C187 C191 1.382 . S
C187 H210 0.950 . S
C188 C187 1.388 . S
C188 C189 1.386 . S
C189 C188 1.386 . S
C189 C190 1.382 . S
C189 H211 0.950 . S
C190 N186 1.332 . S
C190 C189 1.382 . S
C190 H192 0.952 . S
C191 N186 1.332 . S
C191 C187 1.382 . S
C191 H193 0.948 1_655 S
H192 C190 0.952 . S
H193 C191 0.948 1_455 S
H194 C183 0.952 . S
H195 C185 0.948 1_655 S
C196 C162 1.395 . S
C196 C166 1.391 . S
C197 C159 1.389 . S
C197 C179 1.392 . S
C198 C169 1.392 . S
C198 C171 1.389 . S
C199 C174 1.395 . S
C199 C176 1.391 . S
H200 C160 0.951 . S
H201 C161 0.950 . S
H202 C167 0.949 . S
H203 C168 0.948 1_455 S
H204 C172 0.951 . S
H205 C173 0.950 . S
H206 C177 0.949 . S
H207 C178 0.950 1_655 S
H208 C182 0.950 . S
H209 C184 0.950 . S
H210 C187 0.950 . S
H211 C189 0.950 . S
C212 C213 1.443 1_565 S
C212 N216 1.376 1_565 S
C212 C250 1.389 . S
C213 C212 1.443 1_545 S
C213 C214 1.340 . S
C213 H253 0.951 . S
C214 C213 1.340 . S
C214 C215 1.439 . S
C214 H254 0.950 . S
C215 C214 1.439 . S
C215 N216 1.374 . S
C215 C249 1.395 . S
N216 C212 1.376 1_545 S
N216 C215 1.374 . S
N216 Co217 2.008 . S
Co217 N216 2.008 . S
Co217 N218 1.995 . S
Co217 N223 1.986 1_544 S
Co217 N228 1.995 1_545 S
Co217 N233 2.282 1_554 S
Co217 N239 2.282 1_545 S
N218 Co217 1.995 . S
N218 C219 1.376 . S
N218 C222 1.383 1_554 S
C219 N218 1.376 . S
C219 C220 1.446 . S
C219 C249 1.391 . S
C220 C219 1.446 . S
C220 C221 1.357 . S
C220 H255 0.949 . S
C221 C220 1.357 . S
C221 C222 1.434 1_554 S
C221 H256 0.939 1_554 S
C222 N218 1.383 1_556 S
C222 C221 1.434 1_556 S
C222 C251 1.392 . S
N223 Co217 1.986 1_566 S
N223 C224 1.365 1_565 S
N223 C227 1.407 . S
C224 N223 1.365 1_545 S
C224 C225 1.443 . S
C224 C251 1.389 . S
C225 C224 1.443 . S
C225 C226 1.340 1_545 S
C225 H257 0.951 . S
C226 C225 1.340 1_565 S
C226 C227 1.439 . S
C226 H258 0.950 . S
C227 N223 1.407 . S
C227 C226 1.439 . S
C227 C252 1.395 . S
N228 Co217 1.995 1_565 S
N228 C229 1.376 1_554 S
N228 C232 1.383 . S
C229 N228 1.376 1_556 S
C229 C230 1.446 1_556 S
C229 C252 1.391 . S
C230 C229 1.446 1_554 S
C230 C231 1.339 . S
C230 H259 0.949 1_554 S
C231 C230 1.339 . S
C231 C232 1.439 . S
C231 H260 0.950 . S
C232 N228 1.383 . S
C232 C231 1.439 . S
C232 C250 1.392 . S
N233 Co217 2.282 1_556 S
N233 C236 1.332 . S
N233 C238 1.332 . S
C234 C235 1.386 . S
C234 C237 1.388 . S
C235 C234 1.386 . S
C235 C236 1.382 . S
C235 H261 0.950 . S
C236 N233 1.332 . S
C236 C235 1.382 . S
C236 H247 0.952 1_545 S
C237 C234 1.388 . S
C237 C238 1.382 . S
C237 H262 0.950 . S
C238 N233 1.332 . S
C238 C237 1.382 . S
C238 H248 0.948 1_556 S
N239 Co217 2.282 1_565 S
N239 C243 1.332 . S
N239 C244 1.332 . S
C240 C241 1.388 . S
C240 C244 1.382 . S
C240 H263 0.950 . S
C241 C240 1.388 . S
C241 C242 1.386 . S
C242 C241 1.386 . S
C242 C243 1.382 . S
C242 H264 0.950 . S
C243 N239 1.332 . S
C243 C242 1.382 . S
C243 H245 0.952 1_565 S
C244 N239 1.332 . S
C244 C240 1.382 . S
C244 H246 0.948 . S
H245 C243 0.952 1_545 S
H246 C244 0.948 . S
H247 C236 0.952 1_565 S
H248 C238 0.948 1_554 S
C249 C215 1.395 . S
C249 C219 1.391 . S
C250 C212 1.389 . S
C250 C232 1.392 . S
C251 C222 1.392 . S
C251 C224 1.389 . S
C252 C227 1.395 . S
C252 C229 1.391 . S
H253 C213 0.951 . S
H254 C214 0.950 . S
H255 C220 0.949 . S
H256 C221 0.939 1_556 S
H257 C225 0.951 . S
H258 C226 0.950 . S
H259 C230 0.949 1_556 S
H260 C231 0.950 . S
H261 C235 0.950 . S
H262 C237 0.950 . S
H263 C240 0.950 . S
H264 C242 0.950 . S
C265 C266 1.443 . S
C265 N269 1.376 . S
C265 C303 1.389 . S
C266 C265 1.443 . S
C266 C267 1.340 . S
C266 H306 0.951 . S
C267 C266 1.340 . S
C267 C268 1.439 . S
C267 H307 0.950 . S
C268 C267 1.439 . S
C268 N269 1.374 . S
C268 C302 1.395 . S
N269 C265 1.376 . S
N269 C268 1.374 . S
N269 Co270 2.008 . S
Co270 N269 2.008 . S
Co270 N271 1.995 . S
Co270 N276 2.008 . S
Co270 N281 1.995 . S
Co270 N286 2.282 . S
Co270 N292 2.282 . S
N271 Co270 1.995 . S
N271 C272 1.376 . S
N271 C275 1.383 . S
C272 N271 1.376 . S
C272 C273 1.446 . S
C272 C302 1.391 . S
C273 C272 1.446 . S
C273 C274 1.339 . S
C273 H308 0.949 . S
C274 C273 1.339 . S
C274 C275 1.439 . S
C274 H309 0.950 . S
C275 N271 1.383 . S
C275 C274 1.439 . S
C275 C304 1.392 . S
N276 Co270 2.008 . S
N276 C277 1.376 . S
N276 C280 1.374 . S
C277 N276 1.376 . S
C277 C278 1.443 . S
C277 C304 1.389 . S
C278 C277 1.443 . S
C278 C279 1.340 . S
C278 H310 0.951 . S
C279 C278 1.340 . S
C279 C280 1.439 . S
C279 H311 0.950 . S
C280 N276 1.374 . S
C280 C279 1.439 . S
C280 C305 1.395 . S
N281 Co270 1.995 . S
N281 C282 1.376 . S
N281 C285 1.383 . S
C282 N281 1.376 . S
C282 C283 1.446 . S
C282 C305 1.391 . S
C283 C282 1.446 . S
C283 C284 1.339 . S
C283 H312 0.949 . S
C284 C283 1.339 . S
C284 C285 1.439 . S
C284 H313 0.950 . S
C285 N281 1.383 . S
C285 C284 1.439 . S
C285 C303 1.392 . S
N286 Co270 2.282 . S
N286 C289 1.332 . S
N286 C291 1.332 . S
C287 C288 1.386 . S
C287 C290 1.388 . S
C288 C287 1.386 . S
C288 C289 1.382 . S
C288 H314 0.950 . S
C289 N286 1.332 . S
C289 C288 1.382 . S
C289 H300 0.952 . S
C290 C287 1.388 . S
C290 C291 1.382 . S
C290 H315 0.950 . S
C291 N286 1.332 . S
C291 C290 1.382 . S
C291 H301 0.948 . S
N292 Co270 2.282 . S
N292 C296 1.332 . S
N292 C297 1.332 . S
C293 C294 1.388 . S
C293 C297 1.382 . S
C293 H316 0.950 . S
C294 C293 1.388 . S
C294 C295 1.386 . S
C295 C294 1.386 . S
C295 C296 1.382 . S
C295 H317 0.950 . S
C296 N292 1.332 . S
C296 C295 1.382 . S
C296 H298 0.952 . S
C297 N292 1.332 . S
C297 C293 1.382 . S
C297 H299 0.948 . S
H298 C296 0.952 . S
H299 C297 0.948 . S
H300 C289 0.952 . S
H301 C291 0.948 . S
C302 C268 1.395 . S
C302 C272 1.391 . S
C303 C265 1.389 . S
C303 C285 1.392 . S
C304 C275 1.392 . S
C304 C277 1.389 . S
C305 C280 1.395 . S
C305 C282 1.391 . S
H306 C266 0.951 . S
H307 C267 0.950 . S
H308 C273 0.949 . S
H309 C274 0.950 . S
H310 C278 0.951 . S
H311 C279 0.950 . S
H312 C283 0.949 . S
H313 C284 0.950 . S
H314 C288 0.950 . S
H315 C290 0.950 . S
H316 C293 0.950 . S
H317 C295 0.950 . S
C318 C319 1.560 . S
C318 H379 0.959 . S
C318 H380 0.959 . S
C318 H381 0.960 . S
C319 C318 1.560 . S
C319 O374 1.426 . S
C319 H378 0.980 . S
C320 C321 1.407 . S
C320 C325 1.418 . S
C320 O374 1.334 . S
C321 C320 1.407 . S
C321 C322 1.360 . S
C321 H382 0.929 . S
C322 C321 1.360 . S
C322 C323 1.401 . S
C322 C326 1.527 . S
C323 C322 1.401 . S
C323 C324 1.405 . S
C323 C356 1.587 . S
C324 C323 1.405 . S
C324 C325 1.332 . S
C324 C327 1.496 . S
C325 C320 1.418 . S
C325 C324 1.332 . S
C325 H383 0.929 . S
C326 C322 1.527 . S
C326 H384 0.959 . S
C326 H385 0.961 . S
C326 H386 0.961 . S
C327 C324 1.496 . S
C327 H387 0.960 . S
C327 H388 0.960 . S
C327 H389 0.961 . S
C328 C329 1.517 . S
C328 H391 0.961 . S
C328 H392 0.960 . S
C328 H393 0.959 . S
C329 C328 1.517 . S
C329 O377 1.468 . S
C329 H390 0.980 . S
C330 C331 1.349 . S
C330 C335 1.367 . S
C330 O377 1.408 . S
C331 C330 1.349 . S
C331 C332 1.407 . S
C331 H394 0.930 . S
C332 C331 1.407 . S
C332 C333 1.449 . S
C332 C336 1.535 . S
C333 C332 1.449 . S
C333 C334 1.384 . S
C333 C358 1.553 . S
C334 C333 1.384 . S
C334 C335 1.364 . S
C334 C337 1.450 . S
C335 C330 1.367 . S
C335 C334 1.364 . S
C335 H395 0.931 . S
C336 C332 1.535 . S
C336 H396 0.959 . S
C336 H397 0.961 . S
C336 H398 0.959 . S
C337 C334 1.450 . S
C337 H399 0.960 . S
C337 H400 0.960 . S
C337 H401 0.960 . S
C338 C339 1.309 . S
C338 C343 1.304 . S
C338 O376 1.435 . S
C339 C338 1.309 . S
C339 C340 1.476 . S
C339 H403 0.930 . S
C340 C339 1.476 . S
C340 C341 1.400 . S
C340 C344 1.567 . S
C341 C340 1.400 . S
C341 C342 1.373 . S
C341 C363 1.432 . S
C342 C341 1.373 . S
C342 C343 1.339 . S
C342 C345 1.530 . S
C343 C338 1.304 . S
C343 C342 1.339 . S
C343 H404 0.930 . S
C344 C340 1.567 . S
C344 H405 0.961 . S
C344 H406 0.960 . S
C344 H407 0.958 . S
C345 C342 1.530 . S
C345 H408 0.961 . S
C345 H409 0.960 . S
C345 H410 0.960 . S
C346 C347 1.530 . S
C346 H412 0.961 . S
C346 H413 0.961 . S
C346 H414 0.959 . S
C347 C346 1.530 . S
C347 O375 1.412 . S
C347 H411 0.980 . S
C348 C349 1.288 . S
C348 C353 1.377 . S
C348 O375 1.393 . S
C349 C348 1.288 . S
C349 C350 1.369 . S
C349 H415 0.932 . S
C350 C349 1.369 . S
C350 C351 1.398 . S
C350 C354 1.527 . S
C351 C350 1.398 . S
C351 C352 1.380 . S
C351 C365 1.497 . S
C352 C351 1.380 . S
C352 C353 1.383 . S
C352 C355 1.603 . S
C353 C348 1.377 . S
C353 C352 1.383 . S
C353 H416 0.929 . S
C354 C350 1.527 . S
C354 H417 0.961 . S
C354 H418 0.959 . S
C354 H419 0.959 . S
C355 C352 1.603 . S
C355 H420 0.960 . S
C355 H421 0.962 . S
C355 H422 0.961 . S
C356 C323 1.587 . S
C356 C357 1.360 . S
C356 C369 1.412 . S
C357 C356 1.360 . S
C357 C358 1.365 . S
C357 H423 0.929 . S
C358 C333 1.553 . S
C358 C357 1.365 . S
C358 C359 1.404 . S
C359 C358 1.404 . S
C359 C360 1.395 . S
C359 C370 1.451 . S
C360 C359 1.395 . S
C360 C361 1.322 . S
C360 H424 0.930 . S
C361 C360 1.322 . S
C361 C362 1.459 . S
C361 H425 0.929 . S
C362 C361 1.459 . S
C362 C363 1.445 . S
C362 C371 1.395 . S
C363 C341 1.432 . S
C363 C362 1.445 . S
C363 C364 1.370 . S
C364 C363 1.370 . S
C364 C365 1.438 . S
C364 H426 0.930 . S
C365 C351 1.497 . S
C365 C364 1.438 . S
C365 C366 1.360 . S
C366 C365 1.360 . S
C366 C367 1.401 . S
C366 C371 1.446 . S
C367 C366 1.401 . S
C367 C368 1.347 . S
C367 H427 0.929 . S
C368 C367 1.347 . S
C368 C369 1.455 . S
C368 H428 0.930 . S
C369 C356 1.412 . S
C369 C368 1.455 . S
C369 C370 1.331 . S
C370 C359 1.451 . S
C370 C369 1.331 . S
C370 C371 1.497 . S
C371 C362 1.395 . S
C371 C366 1.446 . S
C371 C370 1.497 . S
C372 C373 1.582 . S
C372 H429 0.962 . S
C372 H430 0.959 . S
C372 H431 0.958 . S
C373 C372 1.582 . S
C373 O376 1.458 . S
C373 H402 0.980 . S
O374 C319 1.426 . S
O374 C320 1.334 . S
O375 C347 1.412 . S
O375 C348 1.393 . S
O376 C338 1.435 . S
O376 C373 1.458 . S
O377 C329 1.468 . S
O377 C330 1.408 . S
H378 C319 0.980 . S
H379 C318 0.959 . S
H380 C318 0.959 . S
H381 C318 0.960 . S
H382 C321 0.929 . S
H383 C325 0.929 . S
H384 C326 0.959 . S
H385 C326 0.961 . S
H386 C326 0.961 . S
H387 C327 0.960 . S
H388 C327 0.960 . S
H389 C327 0.961 . S
H390 C329 0.980 . S
H391 C328 0.961 . S
H392 C328 0.960 . S
H393 C328 0.959 . S
H394 C331 0.930 . S
H395 C335 0.931 . S
H396 C336 0.959 . S
H397 C336 0.961 . S
H398 C336 0.959 . S
H399 C337 0.960 . S
H400 C337 0.960 . S
H401 C337 0.960 . S
H402 C373 0.980 . S
H403 C339 0.930 . S
H404 C343 0.930 . S
H405 C344 0.961 . S
H406 C344 0.960 . S
H407 C344 0.958 . S
H408 C345 0.961 . S
H409 C345 0.960 . S
H410 C345 0.960 . S
H411 C347 0.980 . S
H412 C346 0.961 . S
H413 C346 0.961 . S
H414 C346 0.959 . S
H415 C349 0.932 . S
H416 C353 0.929 . S
H417 C354 0.961 . S
H418 C354 0.959 . S
H419 C354 0.959 . S
H420 C355 0.960 . S
H421 C355 0.962 . S
H422 C355 0.961 . S
H423 C357 0.929 . S
H424 C360 0.930 . S
H425 C361 0.929 . S
H426 C364 0.930 . S
H427 C367 0.929 . S
H428 C368 0.930 . S
H429 C372 0.962 . S
H430 C372 0.959 . S
H431 C372 0.958 . S
C432 C433 1.560 . S
C432 H493 0.959 . S
C432 H494 0.959 . S
C432 H495 0.960 . S
C433 C432 1.560 . S
C433 O488 1.426 . S
C433 H492 0.980 . S
C434 C435 1.407 . S
C434 C439 1.418 . S
C434 O488 1.334 . S
C435 C434 1.407 . S
C435 C436 1.360 . S
C435 H496 0.929 . S
C436 C435 1.360 . S
C436 C437 1.401 . S
C436 C440 1.527 . S
C437 C436 1.401 . S
C437 C438 1.405 . S
C437 C470 1.587 . S
C438 C437 1.405 . S
C438 C439 1.332 . S
C438 C441 1.496 . S
C439 C434 1.418 . S
C439 C438 1.332 . S
C439 H497 0.929 . S
C440 C436 1.527 . S
C440 H498 0.959 . S
C440 H499 0.961 . S
C440 H500 0.961 . S
C441 C438 1.496 . S
C441 H501 0.960 . S
C441 H502 0.960 . S
C441 H503 0.961 . S
C442 C443 1.517 . S
C442 H505 0.961 . S
C442 H506 0.960 . S
C442 H507 0.959 . S
C443 C442 1.517 . S
C443 O491 1.468 . S
C443 H504 0.980 . S
C444 C445 1.349 . S
C444 C449 1.367 . S
C444 O491 1.408 . S
C445 C444 1.349 . S
C445 C446 1.407 . S
C445 H508 0.930 . S
C446 C445 1.407 . S
C446 C447 1.449 . S
C446 C450 1.535 . S
C447 C446 1.449 . S
C447 C448 1.384 . S
C447 C472 1.553 . S
C448 C447 1.384 . S
C448 C449 1.364 . S
C448 C451 1.450 . S
C449 C444 1.367 . S
C449 C448 1.364 . S
C449 H509 0.931 . S
C450 C446 1.535 . S
C450 H510 0.959 . S
C450 H511 0.961 . S
C450 H512 0.959 . S
C451 C448 1.450 . S
C451 H513 0.960 . S
C451 H514 0.960 . S
C451 H515 0.960 . S
C452 C453 1.309 . S
C452 C457 1.304 . S
C452 O490 1.435 . S
C453 C452 1.309 . S
C453 C454 1.476 . S
C453 H517 0.930 . S
C454 C453 1.476 . S
C454 C455 1.400 . S
C454 C458 1.567 . S
C455 C454 1.400 . S
C455 C456 1.373 . S
C455 C477 1.432 . S
C456 C455 1.373 . S
C456 C457 1.339 . S
C456 C459 1.530 . S
C457 C452 1.304 . S
C457 C456 1.339 . S
C457 H518 0.930 . S
C458 C454 1.567 . S
C458 H519 0.961 . S
C458 H520 0.960 . S
C458 H521 0.958 . S
C459 C456 1.530 . S
C459 H522 0.961 . S
C459 H523 0.960 . S
C459 H524 0.960 . S
C460 C461 1.530 . S
C460 H526 0.961 . S
C460 H527 0.961 . S
C460 H528 0.959 . S
C461 C460 1.530 . S
C461 O489 1.412 . S
C461 H525 0.980 . S
C462 C463 1.288 . S
C462 C467 1.377 . S
C462 O489 1.393 . S
C463 C462 1.288 . S
C463 C464 1.369 . S
C463 H529 0.932 . S
C464 C463 1.369 . S
C464 C465 1.398 . S
C464 C468 1.527 . S
C465 C464 1.398 . S
C465 C466 1.380 . S
C465 C479 1.497 . S
C466 C465 1.380 . S
C466 C467 1.383 . S
C466 C469 1.603 . S
C467 C462 1.377 . S
C467 C466 1.383 . S
C467 H530 0.929 . S
C468 C464 1.527 . S
C468 H531 0.961 . S
C468 H532 0.959 . S
C468 H533 0.959 . S
C469 C466 1.603 . S
C469 H534 0.960 . S
C469 H535 0.962 . S
C469 H536 0.961 . S
C470 C437 1.587 . S
C470 C471 1.360 . S
C470 C483 1.412 . S
C471 C470 1.360 . S
C471 C472 1.365 . S
C471 H537 0.929 . S
C472 C447 1.553 . S
C472 C471 1.365 . S
C472 C473 1.404 . S
C473 C472 1.404 . S
C473 C474 1.395 . S
C473 C484 1.451 . S
C474 C473 1.395 . S
C474 C475 1.322 . S
C474 H538 0.930 . S
C475 C474 1.322 . S
C475 C476 1.459 . S
C475 H539 0.929 . S
C476 C475 1.459 . S
C476 C477 1.445 . S
C476 C485 1.395 . S
C477 C455 1.432 . S
C477 C476 1.445 . S
C477 C478 1.370 . S
C478 C477 1.370 . S
C478 C479 1.438 . S
C478 H540 0.930 . S
C479 C465 1.497 . S
C479 C478 1.438 . S
C479 C480 1.360 . S
C480 C479 1.360 . S
C480 C481 1.401 . S
C480 C485 1.446 . S
C481 C480 1.401 . S
C481 C482 1.347 . S
C481 H541 0.929 . S
C482 C481 1.347 . S
C482 C483 1.455 . S
C482 H542 0.930 . S
C483 C470 1.412 . S
C483 C482 1.455 . S
C483 C484 1.331 . S
C484 C473 1.451 . S
C484 C483 1.331 . S
C484 C485 1.497 . S
C485 C476 1.395 . S
C485 C480 1.446 . S
C485 C484 1.497 . S
C486 C487 1.582 . S
C486 H543 0.962 . S
C486 H544 0.959 . S
C486 H545 0.958 . S
C487 C486 1.582 . S
C487 O490 1.458 . S
C487 H516 0.980 . S
O488 C433 1.426 . S
O488 C434 1.334 . S
O489 C461 1.412 . S
O489 C462 1.393 . S
O490 C452 1.435 . S
O490 C487 1.458 . S
O491 C443 1.468 . S
O491 C444 1.408 . S
H492 C433 0.980 . S
H493 C432 0.959 . S
H494 C432 0.959 . S
H495 C432 0.960 . S
H496 C435 0.929 . S
H497 C439 0.929 . S
H498 C440 0.959 . S
H499 C440 0.961 . S
H500 C440 0.961 . S
H501 C441 0.960 . S
H502 C441 0.960 . S
H503 C441 0.961 . S
H504 C443 0.980 . S
H505 C442 0.961 . S
H506 C442 0.960 . S
H507 C442 0.959 . S
H508 C445 0.930 . S
H509 C449 0.931 . S
H510 C450 0.959 . S
H511 C450 0.961 . S
H512 C450 0.959 . S
H513 C451 0.960 . S
H514 C451 0.960 . S
H515 C451 0.960 . S
H516 C487 0.980 . S
H517 C453 0.930 . S
H518 C457 0.930 . S
H519 C458 0.961 . S
H520 C458 0.960 . S
H521 C458 0.958 . S
H522 C459 0.961 . S
H523 C459 0.960 . S
H524 C459 0.960 . S
H525 C461 0.980 . S
H526 C460 0.961 . S
H527 C460 0.961 . S
H528 C460 0.959 . S
H529 C463 0.932 . S
H530 C467 0.929 . S
H531 C468 0.961 . S
H532 C468 0.959 . S
H533 C468 0.959 . S
H534 C469 0.960 . S
H535 C469 0.962 . S
H536 C469 0.961 . S
H537 C471 0.929 . S
H538 C474 0.930 . S
H539 C475 0.929 . S
H540 C478 0.930 . S
H541 C481 0.929 . S
H542 C482 0.930 . S
H543 C486 0.962 . S
H544 C486 0.959 . S
H545 C486 0.958 . S
C546 C547 1.560 . S
C546 H607 0.959 . S
C546 H608 0.959 . S
C546 H609 0.960 . S
C547 C546 1.560 . S
C547 O602 1.426 . S
C547 H606 0.980 . S
C548 C549 1.407 . S
C548 C553 1.418 . S
C548 O602 1.334 . S
C549 C548 1.407 . S
C549 C550 1.360 . S
C549 H610 0.929 . S
C550 C549 1.360 . S
C550 C551 1.401 . S
C550 C554 1.527 . S
C551 C550 1.401 . S
C551 C552 1.405 . S
C551 C584 1.587 . S
C552 C551 1.405 . S
C552 C553 1.332 . S
C552 C555 1.496 . S
C553 C548 1.418 . S
C553 C552 1.332 . S
C553 H611 0.929 . S
C554 C550 1.527 . S
C554 H612 0.959 . S
C554 H613 0.961 . S
C554 H614 0.961 . S
C555 C552 1.496 . S
C555 H615 0.960 . S
C555 H616 0.960 . S
C555 H617 0.961 . S
C556 C557 1.517 . S
C556 H619 0.961 . S
C556 H620 0.960 . S
C556 H621 0.959 . S
C557 C556 1.517 . S
C557 O605 1.468 . S
C557 H618 0.980 . S
C558 C559 1.349 . S
C558 C563 1.367 . S
C558 O605 1.408 . S
C559 C558 1.349 . S
C559 C560 1.407 . S
C559 H622 0.930 . S
C560 C559 1.407 . S
C560 C561 1.449 . S
C560 C564 1.535 . S
C561 C560 1.449 . S
C561 C562 1.384 . S
C561 C586 1.553 . S
C562 C561 1.384 . S
C562 C563 1.364 . S
C562 C565 1.450 . S
C563 C558 1.367 . S
C563 C562 1.364 . S
C563 H623 0.931 . S
C564 C560 1.535 . S
C564 H624 0.959 . S
C564 H625 0.961 . S
C564 H626 0.959 . S
C565 C562 1.450 . S
C565 H627 0.960 . S
C565 H628 0.960 . S
C565 H629 0.960 . S
C566 C567 1.309 . S
C566 C571 1.304 . S
C566 O604 1.435 . S
C567 C566 1.309 . S
C567 C568 1.476 . S
C567 H631 0.930 . S
C568 C567 1.476 . S
C568 C569 1.400 . S
C568 C572 1.567 . S
C569 C568 1.400 . S
C569 C570 1.373 . S
C569 C591 1.432 . S
C570 C569 1.373 . S
C570 C571 1.339 . S
C570 C573 1.530 . S
C571 C566 1.304 . S
C571 C570 1.339 . S
C571 H632 0.930 . S
C572 C568 1.567 . S
C572 H633 0.961 . S
C572 H634 0.960 . S
C572 H635 0.958 . S
C573 C570 1.530 . S
C573 H636 0.961 . S
C573 H637 0.960 . S
C573 H638 0.960 . S
C574 C575 1.530 . S
C574 H640 0.961 . S
C574 H641 0.961 . S
C574 H642 0.959 . S
C575 C574 1.530 . S
C575 O603 1.412 . S
C575 H639 0.980 . S
C576 C577 1.288 . S
C576 C581 1.377 . S
C576 O603 1.393 . S
C577 C576 1.288 . S
C577 C578 1.369 . S
C577 H643 0.932 . S
C578 C577 1.369 . S
C578 C579 1.398 . S
C578 C582 1.527 . S
C579 C578 1.398 . S
C579 C580 1.380 . S
C579 C593 1.497 . S
C580 C579 1.380 . S
C580 C581 1.383 . S
C580 C583 1.603 . S
C581 C576 1.377 . S
C581 C580 1.383 . S
C581 H644 0.929 . S
C582 C578 1.527 . S
C582 H645 0.961 . S
C582 H646 0.959 . S
C582 H647 0.959 . S
C583 C580 1.603 . S
C583 H648 0.960 . S
C583 H649 0.962 . S
C583 H650 0.961 . S
C584 C551 1.587 . S
C584 C585 1.360 . S
C584 C597 1.412 . S
C585 C584 1.360 . S
C585 C586 1.365 . S
C585 H651 0.929 . S
C586 C561 1.553 . S
C586 C585 1.365 . S
C586 C587 1.404 . S
C587 C586 1.404 . S
C587 C588 1.395 . S
C587 C598 1.451 . S
C588 C587 1.395 . S
C588 C589 1.322 . S
C588 H652 0.930 . S
C589 C588 1.322 . S
C589 C590 1.459 . S
C589 H653 0.929 . S
C590 C589 1.459 . S
C590 C591 1.445 . S
C590 C599 1.395 . S
C591 C569 1.432 . S
C591 C590 1.445 . S
C591 C592 1.370 . S
C592 C591 1.370 . S
C592 C593 1.438 . S
C592 H654 0.930 . S
C593 C579 1.497 . S
C593 C592 1.438 . S
C593 C594 1.360 . S
C594 C593 1.360 . S
C594 C595 1.401 . S
C594 C599 1.446 . S
C595 C594 1.401 . S
C595 C596 1.347 . S
C595 H655 0.929 . S
C596 C595 1.347 . S
C596 C597 1.455 . S
C596 H656 0.930 . S
C597 C584 1.412 . S
C597 C596 1.455 . S
C597 C598 1.331 . S
C598 C587 1.451 . S
C598 C597 1.331 . S
C598 C599 1.497 . S
C599 C590 1.395 . S
C599 C594 1.446 . S
C599 C598 1.497 . S
C600 C601 1.582 . S
C600 H657 0.962 . S
C600 H658 0.959 . S
C600 H659 0.958 . S
C601 C600 1.582 . S
C601 O604 1.458 . S
C601 H630 0.980 . S
O602 C547 1.426 . S
O602 C548 1.334 . S
O603 C575 1.412 . S
O603 C576 1.393 . S
O604 C566 1.435 . S
O604 C601 1.458 . S
O605 C557 1.468 . S
O605 C558 1.408 . S
H606 C547 0.980 . S
H607 C546 0.959 . S
H608 C546 0.959 . S
H609 C546 0.960 . S
H610 C549 0.929 . S
H611 C553 0.929 . S
H612 C554 0.959 . S
H613 C554 0.961 . S
H614 C554 0.961 . S
H615 C555 0.960 . S
H616 C555 0.960 . S
H617 C555 0.961 . S
H618 C557 0.980 . S
H619 C556 0.961 . S
H620 C556 0.960 . S
H621 C556 0.959 . S
H622 C559 0.930 . S
H623 C563 0.931 . S
H624 C564 0.959 . S
H625 C564 0.961 . S
H626 C564 0.959 . S
H627 C565 0.960 . S
H628 C565 0.960 . S
H629 C565 0.960 . S
H630 C601 0.980 . S
H631 C567 0.930 . S
H632 C571 0.930 . S
H633 C572 0.961 . S
H634 C572 0.960 . S
H635 C572 0.958 . S
H636 C573 0.961 . S
H637 C573 0.960 . S
H638 C573 0.960 . S
H639 C575 0.980 . S
H640 C574 0.961 . S
H641 C574 0.961 . S
H642 C574 0.959 . S
H643 C577 0.932 . S
H644 C581 0.929 . S
H645 C582 0.961 . S
H646 C582 0.959 . S
H647 C582 0.959 . S
H648 C583 0.960 . S
H649 C583 0.962 . S
H650 C583 0.961 . S
H651 C585 0.929 . S
H652 C588 0.930 . S
H653 C589 0.929 . S
H654 C592 0.930 . S
H655 C595 0.929 . S
H656 C596 0.930 . S
H657 C600 0.962 . S
H658 C600 0.959 . S
H659 C600 0.958 . S
C660 C661 1.560 . S
C660 H721 0.959 . S
C660 H722 0.959 . S
C660 H723 0.960 . S
C661 C660 1.560 . S
C661 O716 1.426 . S
C661 H720 0.980 . S
C662 C663 1.407 . S
C662 C667 1.418 . S
C662 O716 1.334 . S
C663 C662 1.407 . S
C663 C664 1.360 . S
C663 H724 0.929 . S
C664 C663 1.360 . S
C664 C665 1.401 . S
C664 C668 1.527 . S
C665 C664 1.401 . S
C665 C666 1.405 . S
C665 C698 1.587 . S
C666 C665 1.405 . S
C666 C667 1.332 . S
C666 C669 1.496 . S
C667 C662 1.418 . S
C667 C666 1.332 . S
C667 H725 0.929 . S
C668 C664 1.527 . S
C668 H726 0.959 . S
C668 H727 0.961 . S
C668 H728 0.961 . S
C669 C666 1.496 . S
C669 H729 0.960 . S
C669 H730 0.960 . S
C669 H731 0.961 . S
C670 C671 1.517 . S
C670 H733 0.961 . S
C670 H734 0.960 . S
C670 H735 0.959 . S
C671 C670 1.517 . S
C671 O719 1.468 . S
C671 H732 0.980 . S
C672 C673 1.349 . S
C672 C677 1.367 . S
C672 O719 1.408 . S
C673 C672 1.349 . S
C673 C674 1.407 . S
C673 H736 0.930 . S
C674 C673 1.407 . S
C674 C675 1.449 . S
C674 C678 1.535 . S
C675 C674 1.449 . S
C675 C676 1.384 . S
C675 C700 1.553 . S
C676 C675 1.384 . S
C676 C677 1.364 . S
C676 C679 1.450 . S
C677 C672 1.367 . S
C677 C676 1.364 . S
C677 H737 0.931 . S
C678 C674 1.535 . S
C678 H738 0.959 . S
C678 H739 0.961 . S
C678 H740 0.959 . S
C679 C676 1.450 . S
C679 H741 0.960 . S
C679 H742 0.960 . S
C679 H743 0.960 . S
C680 C681 1.309 . S
C680 C685 1.304 . S
C680 O718 1.435 . S
C681 C680 1.309 . S
C681 C682 1.476 . S
C681 H745 0.930 . S
C682 C681 1.476 . S
C682 C683 1.400 . S
C682 C686 1.567 . S
C683 C682 1.400 . S
C683 C684 1.373 . S
C683 C705 1.432 . S
C684 C683 1.373 . S
C684 C685 1.339 . S
C684 C687 1.530 . S
C685 C680 1.304 . S
C685 C684 1.339 . S
C685 H746 0.930 . S
C686 C682 1.567 . S
C686 H747 0.961 . S
C686 H748 0.960 . S
C686 H749 0.958 . S
C687 C684 1.530 . S
C687 H750 0.961 . S
C687 H751 0.960 . S
C687 H752 0.960 . S
C688 C689 1.530 . S
C688 H754 0.961 . S
C688 H755 0.961 . S
C688 H756 0.959 . S
C689 C688 1.530 . S
C689 O717 1.412 . S
C689 H753 0.980 . S
C690 C691 1.288 . S
C690 C695 1.377 . S
C690 O717 1.393 . S
C691 C690 1.288 . S
C691 C692 1.369 . S
C691 H757 0.932 . S
C692 C691 1.369 . S
C692 C693 1.398 . S
C692 C696 1.527 . S
C693 C692 1.398 . S
C693 C694 1.380 . S
C693 C707 1.497 . S
C694 C693 1.380 . S
C694 C695 1.383 . S
C694 C697 1.603 . S
C695 C690 1.377 . S
C695 C694 1.383 . S
C695 H758 0.929 . S
C696 C692 1.527 . S
C696 H759 0.961 . S
C696 H760 0.959 . S
C696 H761 0.959 . S
C697 C694 1.603 . S
C697 H762 0.960 . S
C697 H763 0.962 . S
C697 H764 0.961 . S
C698 C665 1.587 . S
C698 C699 1.360 . S
C698 C711 1.412 . S
C699 C698 1.360 . S
C699 C700 1.365 . S
C699 H765 0.929 . S
C700 C675 1.553 . S
C700 C699 1.365 . S
C700 C701 1.404 . S
C701 C700 1.404 . S
C701 C702 1.395 . S
C701 C712 1.451 . S
C702 C701 1.395 . S
C702 C703 1.322 . S
C702 H766 0.930 . S
C703 C702 1.322 . S
C703 C704 1.459 . S
C703 H767 0.929 . S
C704 C703 1.459 . S
C704 C705 1.445 . S
C704 C713 1.395 . S
C705 C683 1.432 . S
C705 C704 1.445 . S
C705 C706 1.370 . S
C706 C705 1.370 . S
C706 C707 1.438 . S
C706 H768 0.930 . S
C707 C693 1.497 . S
C707 C706 1.438 . S
C707 C708 1.360 . S
C708 C707 1.360 . S
C708 C709 1.401 . S
C708 C713 1.446 . S
C709 C708 1.401 . S
C709 C710 1.347 . S
C709 H769 0.929 . S
C710 C709 1.347 . S
C710 C711 1.455 . S
C710 H770 0.930 . S
C711 C698 1.412 . S
C711 C710 1.455 . S
C711 C712 1.331 . S
C712 C701 1.451 . S
C712 C711 1.331 . S
C712 C713 1.497 . S
C713 C704 1.395 . S
C713 C708 1.446 . S
C713 C712 1.497 . S
C714 C715 1.582 . S
C714 H771 0.962 . S
C714 H772 0.959 . S
C714 H773 0.958 . S
C715 C714 1.582 . S
C715 O718 1.458 . S
C715 H744 0.980 . S
O716 C661 1.426 . S
O716 C662 1.334 . S
O717 C689 1.412 . S
O717 C690 1.393 . S
O718 C680 1.435 . S
O718 C715 1.458 . S
O719 C671 1.468 . S
O719 C672 1.408 . S
H720 C661 0.980 . S
H721 C660 0.959 . S
H722 C660 0.959 . S
H723 C660 0.960 . S
H724 C663 0.929 . S
H725 C667 0.929 . S
H726 C668 0.959 . S
H727 C668 0.961 . S
H728 C668 0.961 . S
H729 C669 0.960 . S
H730 C669 0.960 . S
H731 C669 0.961 . S
H732 C671 0.980 . S
H733 C670 0.961 . S
H734 C670 0.960 . S
H735 C670 0.959 . S
H736 C673 0.930 . S
H737 C677 0.931 . S
H738 C678 0.959 . S
H739 C678 0.961 . S
H740 C678 0.959 . S
H741 C679 0.960 . S
H742 C679 0.960 . S
H743 C679 0.960 . S
H744 C715 0.980 . S
H745 C681 0.930 . S
H746 C685 0.930 . S
H747 C686 0.961 . S
H748 C686 0.960 . S
H749 C686 0.958 . S
H750 C687 0.961 . S
H751 C687 0.960 . S
H752 C687 0.960 . S
H753 C689 0.980 . S
H754 C688 0.961 . S
H755 C688 0.961 . S
H756 C688 0.959 . S
H757 C691 0.932 . S
H758 C695 0.929 . S
H759 C696 0.961 . S
H760 C696 0.959 . S
H761 C696 0.959 . S
H762 C697 0.960 . S
H763 C697 0.962 . S
H764 C697 0.961 . S
H765 C699 0.929 . S
H766 C702 0.930 . S
H767 C703 0.929 . S
H768 C706 0.930 . S
H769 C709 0.929 . S
H770 C710 0.930 . S
H771 C714 0.962 . S
H772 C714 0.959 . S
H773 C714 0.958 . S
C774 C775 1.560 . S
C774 H835 0.959 . S
C774 H836 0.959 . S
C774 H837 0.960 . S
C775 C774 1.560 . S
C775 O830 1.426 . S
C775 H834 0.980 . S
C776 C777 1.407 . S
C776 C781 1.418 . S
C776 O830 1.334 . S
C777 C776 1.407 . S
C777 C778 1.360 . S
C777 H838 0.929 . S
C778 C777 1.360 . S
C778 C779 1.401 . S
C778 C782 1.527 . S
C779 C778 1.401 . S
C779 C780 1.405 . S
C779 C812 1.587 . S
C780 C779 1.405 . S
C780 C781 1.332 . S
C780 C783 1.496 . S
C781 C776 1.418 . S
C781 C780 1.332 . S
C781 H839 0.929 . S
C782 C778 1.527 . S
C782 H840 0.959 . S
C782 H841 0.961 . S
C782 H842 0.961 . S
C783 C780 1.496 . S
C783 H843 0.960 . S
C783 H844 0.960 . S
C783 H845 0.961 . S
C784 C785 1.517 . S
C784 H847 0.961 . S
C784 H848 0.960 . S
C784 H849 0.959 . S
C785 C784 1.517 . S
C785 O833 1.468 . S
C785 H846 0.980 . S
C786 C787 1.349 . S
C786 C791 1.367 . S
C786 O833 1.408 . S
C787 C786 1.349 . S
C787 C788 1.407 . S
C787 H850 0.930 . S
C788 C787 1.407 . S
C788 C789 1.449 . S
C788 C792 1.535 . S
C789 C788 1.449 . S
C789 C790 1.384 . S
C789 C814 1.553 . S
C790 C789 1.384 . S
C790 C791 1.364 . S
C790 C793 1.450 . S
C791 C786 1.367 . S
C791 C790 1.364 . S
C791 H851 0.931 . S
C792 C788 1.535 . S
C792 H852 0.959 . S
C792 H853 0.961 . S
C792 H854 0.959 . S
C793 C790 1.450 . S
C793 H855 0.960 . S
C793 H856 0.960 . S
C793 H857 0.960 . S
C794 C795 1.309 . S
C794 C799 1.304 . S
C794 O832 1.435 . S
C795 C794 1.309 . S
C795 C796 1.476 . S
C795 H859 0.930 . S
C796 C795 1.476 . S
C796 C797 1.400 . S
C796 C800 1.567 . S
C797 C796 1.400 . S
C797 C798 1.373 . S
C797 C819 1.432 . S
C798 C797 1.373 . S
C798 C799 1.339 . S
C798 C801 1.530 . S
C799 C794 1.304 . S
C799 C798 1.339 . S
C799 H860 0.930 . S
C800 C796 1.567 . S
C800 H861 0.961 . S
C800 H862 0.960 . S
C800 H863 0.958 . S
C801 C798 1.530 . S
C801 H864 0.961 . S
C801 H865 0.960 . S
C801 H866 0.960 . S
C802 C803 1.530 . S
C802 H868 0.961 . S
C802 H869 0.961 . S
C802 H870 0.959 . S
C803 C802 1.530 . S
C803 O831 1.412 . S
C803 H867 0.980 . S
C804 C805 1.288 . S
C804 C809 1.377 . S
C804 O831 1.393 . S
C805 C804 1.288 . S
C805 C806 1.369 . S
C805 H871 0.932 . S
C806 C805 1.369 . S
C806 C807 1.398 . S
C806 C810 1.527 . S
C807 C806 1.398 . S
C807 C808 1.380 . S
C807 C821 1.497 . S
C808 C807 1.380 . S
C808 C809 1.383 . S
C808 C811 1.603 . S
C809 C804 1.377 . S
C809 C808 1.383 . S
C809 H872 0.929 . S
C810 C806 1.527 . S
C810 H873 0.961 . S
C810 H874 0.959 . S
C810 H875 0.959 . S
C811 C808 1.603 . S
C811 H876 0.960 . S
C811 H877 0.962 . S
C811 H878 0.961 . S
C812 C779 1.587 . S
C812 C813 1.360 . S
C812 C825 1.412 . S
C813 C812 1.360 . S
C813 C814 1.365 . S
C813 H879 0.929 . S
C814 C789 1.553 . S
C814 C813 1.365 . S
C814 C815 1.404 . S
C815 C814 1.404 . S
C815 C816 1.395 . S
C815 C826 1.451 . S
C816 C815 1.395 . S
C816 C817 1.322 . S
C816 H880 0.930 . S
C817 C816 1.322 . S
C817 C818 1.459 . S
C817 H881 0.929 . S
C818 C817 1.459 . S
C818 C819 1.445 . S
C818 C827 1.395 . S
C819 C797 1.432 . S
C819 C818 1.445 . S
C819 C820 1.370 . S
C820 C819 1.370 . S
C820 C821 1.438 . S
C820 H882 0.930 . S
C821 C807 1.497 . S
C821 C820 1.438 . S
C821 C822 1.360 . S
C822 C821 1.360 . S
C822 C823 1.401 . S
C822 C827 1.446 . S
C823 C822 1.401 . S
C823 C824 1.347 . S
C823 H883 0.929 . S
C824 C823 1.347 . S
C824 C825 1.455 . S
C824 H884 0.930 . S
C825 C812 1.412 . S
C825 C824 1.455 . S
C825 C826 1.331 . S
C826 C815 1.451 . S
C826 C825 1.331 . S
C826 C827 1.497 . S
C827 C818 1.395 . S
C827 C822 1.446 . S
C827 C826 1.497 . S
C828 C829 1.582 . S
C828 H885 0.962 . S
C828 H886 0.959 . S
C828 H887 0.958 . S
C829 C828 1.582 . S
C829 O832 1.458 . S
C829 H858 0.980 . S
O830 C775 1.426 . S
O830 C776 1.334 . S
O831 C803 1.412 . S
O831 C804 1.393 . S
O832 C794 1.435 . S
O832 C829 1.458 . S
O833 C785 1.468 . S
O833 C786 1.408 . S
H834 C775 0.980 . S
H835 C774 0.959 . S
H836 C774 0.959 . S
H837 C774 0.960 . S
H838 C777 0.929 . S
H839 C781 0.929 . S
H840 C782 0.959 . S
H841 C782 0.961 . S
H842 C782 0.961 . S
H843 C783 0.960 . S
H844 C783 0.960 . S
H845 C783 0.961 . S
H846 C785 0.980 . S
H847 C784 0.961 . S
H848 C784 0.960 . S
H849 C784 0.959 . S
H850 C787 0.930 . S
H851 C791 0.931 . S
H852 C792 0.959 . S
H853 C792 0.961 . S
H854 C792 0.959 . S
H855 C793 0.960 . S
H856 C793 0.960 . S
H857 C793 0.960 . S
H858 C829 0.980 . S
H859 C795 0.930 . S
H860 C799 0.930 . S
H861 C800 0.961 . S
H862 C800 0.960 . S
H863 C800 0.958 . S
H864 C801 0.961 . S
H865 C801 0.960 . S
H866 C801 0.960 . S
H867 C803 0.980 . S
H868 C802 0.961 . S
H869 C802 0.961 . S
H870 C802 0.959 . S
H871 C805 0.932 . S
H872 C809 0.929 . S
H873 C810 0.961 . S
H874 C810 0.959 . S
H875 C810 0.959 . S
H876 C811 0.960 . S
H877 C811 0.962 . S
H878 C811 0.961 . S
H879 C813 0.929 . S
H880 C816 0.930 . S
H881 C817 0.929 . S
H882 C820 0.930 . S
H883 C823 0.929 . S
H884 C824 0.930 . S
H885 C828 0.962 . S
H886 C828 0.959 . S
H887 C828 0.958 . S
C888 C889 1.560 . S
C888 H949 0.959 . S
C888 H950 0.959 . S
C888 H951 0.960 . S
C889 C888 1.560 . S
C889 O944 1.426 . S
C889 H948 0.980 . S
C890 C891 1.407 . S
C890 C895 1.418 . S
C890 O944 1.334 . S
C891 C890 1.407 . S
C891 C892 1.360 . S
C891 H952 0.929 . S
C892 C891 1.360 . S
C892 C893 1.401 . S
C892 C896 1.527 . S
C893 C892 1.401 . S
C893 C894 1.405 . S
C893 C926 1.587 . S
C894 C893 1.405 . S
C894 C895 1.332 . S
C894 C897 1.496 . S
C895 C890 1.418 . S
C895 C894 1.332 . S
C895 H953 0.929 . S
C896 C892 1.527 . S
C896 H954 0.959 . S
C896 H955 0.961 . S
C896 H956 0.961 . S
C897 C894 1.496 . S
C897 H957 0.960 . S
C897 H958 0.960 . S
C897 H959 0.961 . S
C898 C899 1.517 . S
C898 H961 0.961 . S
C898 H962 0.960 . S
C898 H963 0.959 . S
C899 C898 1.517 . S
C899 O947 1.468 . S
C899 H960 0.980 . S
C900 C901 1.349 . S
C900 C905 1.367 . S
C900 O947 1.408 . S
C901 C900 1.349 . S
C901 C902 1.407 . S
C901 H964 0.930 . S
C902 C901 1.407 . S
C902 C903 1.449 . S
C902 C906 1.535 . S
C903 C902 1.449 . S
C903 C904 1.384 . S
C903 C928 1.553 . S
C904 C903 1.384 . S
C904 C905 1.364 . S
C904 C907 1.450 . S
C905 C900 1.367 . S
C905 C904 1.364 . S
C905 H965 0.931 . S
C906 C902 1.535 . S
C906 H966 0.959 . S
C906 H967 0.961 . S
C906 H968 0.959 . S
C907 C904 1.450 . S
C907 H969 0.960 . S
C907 H970 0.960 . S
C907 H971 0.960 . S
C908 C909 1.309 . S
C908 C913 1.304 . S
C908 O946 1.435 . S
C909 C908 1.309 . S
C909 C910 1.476 . S
C909 H973 0.930 . S
C910 C909 1.476 . S
C910 C911 1.400 . S
C910 C914 1.567 . S
C911 C910 1.400 . S
C911 C912 1.373 . S
C911 C933 1.432 . S
C912 C911 1.373 . S
C912 C913 1.339 . S
C912 C915 1.530 . S
C913 C908 1.304 . S
C913 C912 1.339 . S
C913 H974 0.930 . S
C914 C910 1.567 . S
C914 H975 0.961 . S
C914 H976 0.960 . S
C914 H977 0.958 . S
C915 C912 1.530 . S
C915 H978 0.961 . S
C915 H979 0.960 . S
C915 H980 0.960 . S
C916 C917 1.530 . S
C916 H982 0.961 . S
C916 H983 0.961 . S
C916 H984 0.959 . S
C917 C916 1.530 . S
C917 O945 1.412 . S
C917 H981 0.980 . S
C918 C919 1.288 . S
C918 C923 1.377 . S
C918 O945 1.393 . S
C919 C918 1.288 . S
C919 C920 1.369 . S
C919 H985 0.932 . S
C920 C919 1.369 . S
C920 C921 1.398 . S
C920 C924 1.527 . S
C921 C920 1.398 . S
C921 C922 1.380 . S
C921 C935 1.497 . S
C922 C921 1.380 . S
C922 C923 1.383 . S
C922 C925 1.603 . S
C923 C918 1.377 . S
C923 C922 1.383 . S
C923 H986 0.929 . S
C924 C920 1.527 . S
C924 H987 0.961 . S
C924 H988 0.959 . S
C924 H989 0.959 . S
C925 C922 1.603 . S
C925 H990 0.960 . S
C925 H991 0.962 . S
C925 H992 0.961 . S
C926 C893 1.587 . S
C926 C927 1.360 . S
C926 C939 1.412 . S
C927 C926 1.360 . S
C927 C928 1.365 . S
C927 H993 0.929 . S
C928 C903 1.553 . S
C928 C927 1.365 . S
C928 C929 1.404 . S
C929 C928 1.404 . S
C929 C930 1.395 . S
C929 C940 1.451 . S
C930 C929 1.395 . S
C930 C931 1.322 . S
C930 H994 0.930 . S
C931 C930 1.322 . S
C931 C932 1.459 . S
C931 H995 0.929 . S
C932 C931 1.459 . S
C932 C933 1.445 . S
C932 C941 1.395 . S
C933 C911 1.432 . S
C933 C932 1.445 . S
C933 C934 1.370 . S
C934 C933 1.370 . S
C934 C935 1.438 . S
C934 H996 0.930 . S
C935 C921 1.497 . S
C935 C934 1.438 . S
C935 C936 1.360 . S
C936 C935 1.360 . S
C936 C937 1.401 . S
C936 C941 1.446 . S
C937 C936 1.401 . S
C937 C938 1.347 . S
C937 H997 0.929 . S
C938 C937 1.347 . S
C938 C939 1.455 . S
C938 H998 0.930 . S
C939 C926 1.412 . S
C939 C938 1.455 . S
C939 C940 1.331 . S
C940 C929 1.451 . S
C940 C939 1.331 . S
C940 C941 1.497 . S
C941 C932 1.395 . S
C941 C936 1.446 . S
C941 C940 1.497 . S
C942 C943 1.582 . S
C942 H999 0.962 . S
C942 H1000 0.959 . S
C942 H1001 0.958 . S
C943 C942 1.582 . S
C943 O946 1.458 . S
C943 H972 0.980 . S
O944 C889 1.426 . S
O944 C890 1.334 . S
O945 C917 1.412 . S
O945 C918 1.393 . S
O946 C908 1.435 . S
O946 C943 1.458 . S
O947 C899 1.468 . S
O947 C900 1.408 . S
H948 C889 0.980 . S
H949 C888 0.959 . S
H950 C888 0.959 . S
H951 C888 0.960 . S
H952 C891 0.929 . S
H953 C895 0.929 . S
H954 C896 0.959 . S
H955 C896 0.961 . S
H956 C896 0.961 . S
H957 C897 0.960 . S
H958 C897 0.960 . S
H959 C897 0.961 . S
H960 C899 0.980 . S
H961 C898 0.961 . S
H962 C898 0.960 . S
H963 C898 0.959 . S
H964 C901 0.930 . S
H965 C905 0.931 . S
H966 C906 0.959 . S
H967 C906 0.961 . S
H968 C906 0.959 . S
H969 C907 0.960 . S
H970 C907 0.960 . S
H971 C907 0.960 . S
H972 C943 0.980 . S
H973 C909 0.930 . S
H974 C913 0.930 . S
H975 C914 0.961 . S
H976 C914 0.960 . S
H977 C914 0.958 . S
H978 C915 0.961 . S
H979 C915 0.960 . S
H980 C915 0.960 . S
H981 C917 0.980 . S
H982 C916 0.961 . S
H983 C916 0.961 . S
H984 C916 0.959 . S
H985 C919 0.932 . S
H986 C923 0.929 . S
H987 C924 0.961 . S
H988 C924 0.959 . S
H989 C924 0.959 . S
H990 C925 0.960 . S
H991 C925 0.962 . S
H992 C925 0.961 . S
H993 C927 0.929 . S
H994 C930 0.930 . S
H995 C931 0.929 . S
H996 C934 0.930 . S
H997 C937 0.929 . S
H998 C938 0.930 . S
H999 C942 0.962 . S
H1000 C942 0.959 . S
H1001 C942 0.958 . S
H1002 C1010 0.950 . S
H1003 C1015 0.950 . S
H1004 C1012 0.950 . S
H1005 C1014 0.950 . S
H1006 C1016 0.950 . S
H1007 C1018 0.950 . S
H1008 C1020 0.950 . S
H1009 C1021 0.950 . S
C1010 H1002 0.950 . S
C1010 C1011 1.386 . S
C1010 C1012 1.391 . S
C1011 C1010 1.386 . S
C1011 C1015 1.393 . S
C1012 H1004 0.950 . S
C1012 C1010 1.391 . S
C1012 C1013 1.400 . S
C1013 C1012 1.400 . S
C1013 C1014 1.398 . S
C1013 C1019 1.491 . S
C1014 H1005 0.950 . S
C1014 C1013 1.398 . S
C1014 C1015 1.391 . S
C1015 H1003 0.950 . S
C1015 C1011 1.393 . S
C1015 C1014 1.391 . S
C1016 H1006 0.950 . S
C1016 C1017 1.386 . S
C1016 C1018 1.391 . S
C1017 C1016 1.386 . S
C1017 C1021 1.393 . S
C1018 H1007 0.950 . S
C1018 C1016 1.391 . S
C1018 C1019 1.400 . S
C1019 C1013 1.491 . S
C1019 C1018 1.400 . S
C1019 C1020 1.398 . S
C1020 H1008 0.950 . S
C1020 C1019 1.398 . S
C1020 C1021 1.391 . S
C1021 H1009 0.950 . S
C1021 C1017 1.393 . S
C1021 C1020 1.391 . S
H1022 C1030 0.950 . S
H1023 C1035 0.950 . S
H1024 C1032 0.950 . S
H1025 C1034 0.950 . S
H1026 C1036 0.950 . S
H1027 C1038 0.950 . S
H1028 C1040 0.950 . S
H1029 C1041 0.950 . S
C1030 H1022 0.950 . S
C1030 C1031 1.386 . S
C1030 C1032 1.391 . S
C1031 C1030 1.386 . S
C1031 C1035 1.393 . S
C1032 H1024 0.950 . S
C1032 C1030 1.391 . S
C1032 C1033 1.400 . S
C1033 C1032 1.400 . S
C1033 C1034 1.398 . S
C1033 C1039 1.491 . S
C1034 H1025 0.950 . S
C1034 C1033 1.398 . S
C1034 C1035 1.391 . S
C1035 H1023 0.950 . S
C1035 C1031 1.393 . S
C1035 C1034 1.391 . S
C1036 H1026 0.950 . S
C1036 C1037 1.386 . S
C1036 C1038 1.391 . S
C1037 C1036 1.386 . S
C1037 C1041 1.393 . S
C1038 H1027 0.950 . S
C1038 C1036 1.391 . S
C1038 C1039 1.400 . S
C1039 C1033 1.491 . S
C1039 C1038 1.400 . S
C1039 C1040 1.398 . S
C1040 H1028 0.950 . S
C1040 C1039 1.398 . S
C1040 C1041 1.391 . S
C1041 H1029 0.950 . S
C1041 C1037 1.393 . S
C1041 C1040 1.391 . S
H1042 C1050 0.950 . S
H1043 C1055 0.950 . S
H1044 C1052 0.950 . S
H1045 C1054 0.950 . S
H1046 C1056 0.950 . S
H1047 C1058 0.950 . S
H1048 C1060 0.950 . S
H1049 C1061 0.950 . S
C1050 H1042 0.950 . S
C1050 C1051 1.386 . S
C1050 C1052 1.391 . S
C1051 C1050 1.386 . S
C1051 C1055 1.393 . S
C1052 H1044 0.950 . S
C1052 C1050 1.391 . S
C1052 C1053 1.400 . S
C1053 C1052 1.400 . S
C1053 C1054 1.398 . S
C1053 C1059 1.491 . S
C1054 H1045 0.950 . S
C1054 C1053 1.398 . S
C1054 C1055 1.391 . S
C1055 H1043 0.950 . S
C1055 C1051 1.393 . S
C1055 C1054 1.391 . S
C1056 H1046 0.950 . S
C1056 C1057 1.386 . S
C1056 C1058 1.391 . S
C1057 C1056 1.386 . S
C1057 C1061 1.393 . S
C1058 H1047 0.950 . S
C1058 C1056 1.391 . S
C1058 C1059 1.400 . S
C1059 C1053 1.491 . S
C1059 C1058 1.400 . S
C1059 C1060 1.398 . S
C1060 H1048 0.950 . S
C1060 C1059 1.398 . S
C1060 C1061 1.391 . S
C1061 H1049 0.950 . S
C1061 C1057 1.393 . S
C1061 C1060 1.391 . S
H1062 C1070 0.950 . S
H1063 C1075 0.950 . S
H1064 C1072 0.950 . S
H1065 C1074 0.950 . S
H1066 C1076 0.950 . S
H1067 C1078 0.950 . S
H1068 C1080 0.950 . S
H1069 C1081 0.950 . S
C1070 H1062 0.950 . S
C1070 C1071 1.386 . S
C1070 C1072 1.391 . S
C1071 C1070 1.386 . S
C1071 C1075 1.393 . S
C1072 H1064 0.950 . S
C1072 C1070 1.391 . S
C1072 C1073 1.400 . S
C1073 C1072 1.400 . S
C1073 C1074 1.398 . S
C1073 C1079 1.491 . S
C1074 H1065 0.950 . S
C1074 C1073 1.398 . S
C1074 C1075 1.391 . S
C1075 H1063 0.950 . S
C1075 C1071 1.393 . S
C1075 C1074 1.391 . S
C1076 H1066 0.950 . S
C1076 C1077 1.386 . S
C1076 C1078 1.391 . S
C1077 C1076 1.386 . S
C1077 C1081 1.393 . S
C1078 H1067 0.950 . S
C1078 C1076 1.391 . S
C1078 C1079 1.400 . S
C1079 C1073 1.491 . S
C1079 C1078 1.400 . S
C1079 C1080 1.398 . S
C1080 H1068 0.950 . S
C1080 C1079 1.398 . S
C1080 C1081 1.391 . S
C1081 H1069 0.950 . S
C1081 C1077 1.393 . S
C1081 C1080 1.391 . S
H1082 C1090 0.950 . S
H1083 C1095 0.950 . S
H1084 C1092 0.950 . S
H1085 C1094 0.950 . S
H1086 C1096 0.950 . S
H1087 C1098 0.950 . S
H1088 C1100 0.950 . S
H1089 C1101 0.950 . S
C1090 H1082 0.950 . S
C1090 C1091 1.386 . S
C1090 C1092 1.391 . S
C1091 C1090 1.386 . S
C1091 C1095 1.393 . S
C1092 H1084 0.950 . S
C1092 C1090 1.391 . S
C1092 C1093 1.400 . S
C1093 C1092 1.400 . S
C1093 C1094 1.398 . S
C1093 C1099 1.491 . S
C1094 H1085 0.950 . S
C1094 C1093 1.398 . S
C1094 C1095 1.391 . S
C1095 H1083 0.950 . S
C1095 C1091 1.393 . S
C1095 C1094 1.391 . S
C1096 H1086 0.950 . S
C1096 C1097 1.386 . S
C1096 C1098 1.391 . S
C1097 C1096 1.386 . S
C1097 C1101 1.393 . S
C1098 H1087 0.950 . S
C1098 C1096 1.391 . S
C1098 C1099 1.400 . S
C1099 C1093 1.491 . S
C1099 C1098 1.400 . S
C1099 C1100 1.398 . S
C1100 H1088 0.950 . S
C1100 C1099 1.398 . S
C1100 C1101 1.391 . S
C1101 H1089 0.950 . S
C1101 C1097 1.393 . S
C1101 C1100 1.391 . S
H1102 C1110 0.950 . S
H1103 C1115 0.950 . S
H1104 C1112 0.950 . S
H1105 C1114 0.950 . S
H1106 C1116 0.950 . S
H1107 C1118 0.950 . S
H1108 C1120 0.950 . S
H1109 C1121 0.950 . S
C1110 H1102 0.950 . S
C1110 C1111 1.386 . S
C1110 C1112 1.391 . S
C1111 C1110 1.386 . S
C1111 C1115 1.393 . S
C1112 H1104 0.950 . S
C1112 C1110 1.391 . S
C1112 C1113 1.400 . S
C1113 C1112 1.400 . S
C1113 C1114 1.398 . S
C1113 C1119 1.491 . S
C1114 H1105 0.950 . S
C1114 C1113 1.398 . S
C1114 C1115 1.391 . S
C1115 H1103 0.950 . S
C1115 C1111 1.393 . S
C1115 C1114 1.391 . S
C1116 H1106 0.950 . S
C1116 C1117 1.386 . S
C1116 C1118 1.391 . S
C1117 C1116 1.386 . S
C1117 C1121 1.393 . S
C1118 H1107 0.950 . S
C1118 C1116 1.391 . S
C1118 C1119 1.400 . S
C1119 C1113 1.491 . S
C1119 C1118 1.400 . S
C1119 C1120 1.398 . S
C1120 H1108 0.950 . S
C1120 C1119 1.398 . S
C1120 C1121 1.391 . S
C1121 H1109 0.950 . S
C1121 C1117 1.393 . S
C1121 C1120 1.391 . S
H1122 C1130 0.950 . S
H1123 C1135 0.950 . S
H1124 C1132 0.950 . S
H1125 C1134 0.950 . S
H1126 C1136 0.950 . S
H1127 C1138 0.950 . S
H1128 C1140 0.950 . S
H1129 C1141 0.950 . S
C1130 H1122 0.950 . S
C1130 C1131 1.386 . S
C1130 C1132 1.391 . S
C1131 C1130 1.386 . S
C1131 C1135 1.393 . S
C1132 H1124 0.950 . S
C1132 C1130 1.391 . S
C1132 C1133 1.400 . S
C1133 C1132 1.400 . S
C1133 C1134 1.398 . S
C1133 C1139 1.491 . S
C1134 H1125 0.950 . S
C1134 C1133 1.398 . S
C1134 C1135 1.391 . S
C1135 H1123 0.950 . S
C1135 C1131 1.393 . S
C1135 C1134 1.391 . S
C1136 H1126 0.950 . S
C1136 C1137 1.386 . S
C1136 C1138 1.391 . S
C1137 C1136 1.386 . S
C1137 C1141 1.393 . S
C1138 H1127 0.950 . S
C1138 C1136 1.391 . S
C1138 C1139 1.400 . S
C1139 C1133 1.491 . S
C1139 C1138 1.400 . S
C1139 C1140 1.398 . S
C1140 H1128 0.950 . S
C1140 C1139 1.398 . S
C1140 C1141 1.391 . S
C1141 H1129 0.950 . S
C1141 C1137 1.393 . S
C1141 C1140 1.391 . S
H1142 C1150 0.950 . S
H1143 C1155 0.950 . S
H1144 C1152 0.950 . S
H1145 C1154 0.950 . S
H1146 C1156 0.950 . S
H1147 C1158 0.950 . S
H1148 C1160 0.950 . S
H1149 C1161 0.950 . S
C1150 H1142 0.950 . S
C1150 C1151 1.386 . S
C1150 C1152 1.391 . S
C1151 C1150 1.386 . S
C1151 C1155 1.393 . S
C1152 H1144 0.950 . S
C1152 C1150 1.391 . S
C1152 C1153 1.400 . S
C1153 C1152 1.400 . S
C1153 C1154 1.398 . S
C1153 C1159 1.491 . S
C1154 H1145 0.950 . S
C1154 C1153 1.398 . S
C1154 C1155 1.391 . S
C1155 H1143 0.950 . S
C1155 C1151 1.393 . S
C1155 C1154 1.391 . S
C1156 H1146 0.950 . S
C1156 C1157 1.386 . S
C1156 C1158 1.391 . S
C1157 C1156 1.386 . S
C1157 C1161 1.393 . S
C1158 H1147 0.950 . S
C1158 C1156 1.391 . S
C1158 C1159 1.400 . S
C1159 C1153 1.491 . S
C1159 C1158 1.400 . S
C1159 C1160 1.398 . S
C1160 H1148 0.950 . S
C1160 C1159 1.398 . S
C1160 C1161 1.391 . S
C1161 H1149 0.950 . S
C1161 C1157 1.393 . S
C1161 C1160 1.391 . S
H1162 C1170 0.950 . S
H1163 C1175 0.950 . S
H1164 C1172 0.950 . S
H1165 C1174 0.950 . S
H1166 C1176 0.950 . S
H1167 C1178 0.950 . S
H1168 C1180 0.950 . S
H1169 C1181 0.950 . S
C1170 H1162 0.950 . S
C1170 C1171 1.386 . S
C1170 C1172 1.391 . S
C1171 C1170 1.386 . S
C1171 C1175 1.393 . S
C1172 H1164 0.950 . S
C1172 C1170 1.391 . S
C1172 C1173 1.400 . S
C1173 C1172 1.400 . S
C1173 C1174 1.398 . S
C1173 C1179 1.491 . S
C1174 H1165 0.950 . S
C1174 C1173 1.398 . S
C1174 C1175 1.391 . S
C1175 H1163 0.950 . S
C1175 C1171 1.393 . S
C1175 C1174 1.391 . S
C1176 H1166 0.950 . S
C1176 C1177 1.386 . S
C1176 C1178 1.391 . S
C1177 C1176 1.386 . S
C1177 C1181 1.393 . S
C1178 H1167 0.950 . S
C1178 C1176 1.391 . S
C1178 C1179 1.400 . S
C1179 C1173 1.491 . S
C1179 C1178 1.400 . S
C1179 C1180 1.398 . S
C1180 H1168 0.950 . S
C1180 C1179 1.398 . S
C1180 C1181 1.391 . S
C1181 H1169 0.950 . S
C1181 C1177 1.393 . S
C1181 C1180 1.391 . S
H1182 C1190 0.950 . S
H1183 C1195 0.950 . S
H1184 C1192 0.950 . S
H1185 C1194 0.950 . S
H1186 C1196 0.950 . S
H1187 C1198 0.950 . S
H1188 C1200 0.950 . S
H1189 C1201 0.950 . S
C1190 H1182 0.950 . S
C1190 C1191 1.386 . S
C1190 C1192 1.391 . S
C1191 C1190 1.386 . S
C1191 C1195 1.393 . S
C1192 H1184 0.950 . S
C1192 C1190 1.391 . S
C1192 C1193 1.400 . S
C1193 C1192 1.400 . S
C1193 C1194 1.398 . S
C1193 C1199 1.491 . S
C1194 H1185 0.950 . S
C1194 C1193 1.398 . S
C1194 C1195 1.391 . S
C1195 H1183 0.950 . S
C1195 C1191 1.393 . S
C1195 C1194 1.391 . S
C1196 H1186 0.950 . S
C1196 C1197 1.386 . S
C1196 C1198 1.391 . S
C1197 C1196 1.386 . S
C1197 C1201 1.393 . S
C1198 H1187 0.950 . S
C1198 C1196 1.391 . S
C1198 C1199 1.400 . S
C1199 C1193 1.491 . S
C1199 C1198 1.400 . S
C1199 C1200 1.398 . S
C1200 H1188 0.950 . S
C1200 C1199 1.398 . S
C1200 C1201 1.391 . S
C1201 H1189 0.950 . S
C1201 C1197 1.393 . S
C1201 C1200 1.391 . S
H1202 C1210 0.950 . S
H1203 C1215 0.950 . S
H1204 C1212 0.950 . S
H1205 C1214 0.950 . S
H1206 C1216 0.950 . S
H1207 C1218 0.950 . S
H1208 C1220 0.950 . S
H1209 C1221 0.950 . S
C1210 H1202 0.950 . S
C1210 C1211 1.386 . S
C1210 C1212 1.391 . S
C1211 C1210 1.386 . S
C1211 C1215 1.393 . S
C1212 H1204 0.950 . S
C1212 C1210 1.391 . S
C1212 C1213 1.400 . S
C1213 C1212 1.400 . S
C1213 C1214 1.398 . S
C1213 C1219 1.491 . S
C1214 H1205 0.950 . S
C1214 C1213 1.398 . S
C1214 C1215 1.391 . S
C1215 H1203 0.950 . S
C1215 C1211 1.393 . S
C1215 C1214 1.391 . S
C1216 H1206 0.950 . S
C1216 C1217 1.386 . S
C1216 C1218 1.391 . S
C1217 C1216 1.386 . S
C1217 C1221 1.393 . S
C1218 H1207 0.950 . S
C1218 C1216 1.391 . S
C1218 C1219 1.400 . S
C1219 C1213 1.491 . S
C1219 C1218 1.400 . S
C1219 C1220 1.398 . S
C1220 H1208 0.950 . S
C1220 C1219 1.398 . S
C1220 C1221 1.391 . S
C1221 H1209 0.950 . S
C1221 C1217 1.393 . S
C1221 C1220 1.391 . S
H1222 C1230 0.950 . S
H1223 C1235 0.950 . S
H1224 C1232 0.950 . S
H1225 C1234 0.950 . S
H1226 C1236 0.950 . S
H1227 C1238 0.950 . S
H1228 C1240 0.950 . S
H1229 C1241 0.950 . S
C1230 H1222 0.950 . S
C1230 C1231 1.386 . S
C1230 C1232 1.391 . S
C1231 C1230 1.386 . S
C1231 C1235 1.393 . S
C1232 H1224 0.950 . S
C1232 C1230 1.391 . S
C1232 C1233 1.400 . S
C1233 C1232 1.400 . S
C1233 C1234 1.398 . S
C1233 C1239 1.491 . S
C1234 H1225 0.950 . S
C1234 C1233 1.398 . S
C1234 C1235 1.391 . S
C1235 H1223 0.950 . S
C1235 C1231 1.393 . S
C1235 C1234 1.391 . S
C1236 H1226 0.950 . S
C1236 C1237 1.386 . S
C1236 C1238 1.391 . S
C1237 C1236 1.386 . S
C1237 C1241 1.393 . S
C1238 H1227 0.950 . S
C1238 C1236 1.391 . S
C1238 C1239 1.400 . S
C1239 C1233 1.491 . S
C1239 C1238 1.400 . S
C1239 C1240 1.398 . S
C1240 H1228 0.950 . S
C1240 C1239 1.398 . S
C1240 C1241 1.391 . S
C1241 H1229 0.950 . S
C1241 C1237 1.393 . S
C1241 C1240 1.391 . S
H1242 C1250 0.950 . S
H1243 C1255 0.950 . S
H1244 C1252 0.950 . S
H1245 C1254 0.950 . S
H1246 C1256 0.950 . S
H1247 C1258 0.950 . S
H1248 C1260 0.950 . S
H1249 C1261 0.950 . S
C1250 H1242 0.950 . S
C1250 C1251 1.386 . S
C1250 C1252 1.391 . S
C1251 C1250 1.386 . S
C1251 C1255 1.393 . S
C1252 H1244 0.950 . S
C1252 C1250 1.391 . S
C1252 C1253 1.400 . S
C1253 C1252 1.400 . S
C1253 C1254 1.398 . S
C1253 C1259 1.491 . S
C1254 H1245 0.950 . S
C1254 C1253 1.398 . S
C1254 C1255 1.391 . S
C1255 H1243 0.950 . S
C1255 C1251 1.393 . S
C1255 C1254 1.391 . S
C1256 H1246 0.950 . S
C1256 C1257 1.386 . S
C1256 C1258 1.391 . S
C1257 C1256 1.386 . S
C1257 C1261 1.393 . S
C1258 H1247 0.950 . S
C1258 C1256 1.391 . S
C1258 C1259 1.400 . S
C1259 C1253 1.491 . S
C1259 C1258 1.400 . S
C1259 C1260 1.398 . S
C1260 H1248 0.950 . S
C1260 C1259 1.398 . S
C1260 C1261 1.391 . S
C1261 H1249 0.950 . S
C1261 C1257 1.393 . S
C1261 C1260 1.391 . S
H1262 C1270 0.950 . S
H1263 C1275 0.950 . S
H1264 C1272 0.950 . S
H1265 C1274 0.950 . S
H1266 C1276 0.950 . S
H1267 C1278 0.950 . S
H1268 C1280 0.950 . S
H1269 C1281 0.950 . S
C1270 H1262 0.950 . S
C1270 C1271 1.386 . S
C1270 C1272 1.391 . S
C1271 C1270 1.386 . S
C1271 C1275 1.393 . S
C1272 H1264 0.950 . S
C1272 C1270 1.391 . S
C1272 C1273 1.400 . S
C1273 C1272 1.400 . S
C1273 C1274 1.398 . S
C1273 C1279 1.491 . S
C1274 H1265 0.950 . S
C1274 C1273 1.398 . S
C1274 C1275 1.391 . S
C1275 H1263 0.950 . S
C1275 C1271 1.393 . S
C1275 C1274 1.391 . S
C1276 H1266 0.950 . S
C1276 C1277 1.386 . S
C1276 C1278 1.391 . S
C1277 C1276 1.386 . S
C1277 C1281 1.393 . S
C1278 H1267 0.950 . S
C1278 C1276 1.391 . S
C1278 C1279 1.400 . S
C1279 C1273 1.491 . S
C1279 C1278 1.400 . S
C1279 C1280 1.398 . S
C1280 H1268 0.950 . S
C1280 C1279 1.398 . S
C1280 C1281 1.391 . S
C1281 H1269 0.950 . S
C1281 C1277 1.393 . S
C1281 C1280 1.391 . S
H1282 C1290 0.950 . S
H1283 C1295 0.950 . S
H1284 C1292 0.950 . S
H1285 C1294 0.950 . S
H1286 C1296 0.950 . S
H1287 C1298 0.950 . S
H1288 C1300 0.950 . S
H1289 C1301 0.950 . S
C1290 H1282 0.950 . S
C1290 C1291 1.386 . S
C1290 C1292 1.391 . S
C1291 C1290 1.386 . S
C1291 C1295 1.393 . S
C1292 H1284 0.950 . S
C1292 C1290 1.391 . S
C1292 C1293 1.400 . S
C1293 C1292 1.400 . S
C1293 C1294 1.398 . S
C1293 C1299 1.491 . S
C1294 H1285 0.950 . S
C1294 C1293 1.398 . S
C1294 C1295 1.391 . S
C1295 H1283 0.950 . S
C1295 C1291 1.393 . S
C1295 C1294 1.391 . S
C1296 H1286 0.950 . S
C1296 C1297 1.386 . S
C1296 C1298 1.391 . S
C1297 C1296 1.386 . S
C1297 C1301 1.393 . S
C1298 H1287 0.950 . S
C1298 C1296 1.391 . S
C1298 C1299 1.400 . S
C1299 C1293 1.491 . S
C1299 C1298 1.400 . S
C1299 C1300 1.398 . S
C1300 H1288 0.950 . S
C1300 C1299 1.398 . S
C1300 C1301 1.391 . S
C1301 H1289 0.950 . S
C1301 C1297 1.393 . S
C1301 C1300 1.391 . S
H1302 C1310 0.950 . S
H1303 C1315 0.950 . S
H1304 C1312 0.950 . S
H1305 C1314 0.950 . S
H1306 C1316 0.950 . S
H1307 C1318 0.950 . S
H1308 C1320 0.950 . S
H1309 C1321 0.950 . S
C1310 H1302 0.950 . S
C1310 C1311 1.386 . S
C1310 C1312 1.391 . S
C1311 C1310 1.386 . S
C1311 C1315 1.393 . S
C1312 H1304 0.950 . S
C1312 C1310 1.391 . S
C1312 C1313 1.400 . S
C1313 C1312 1.400 . S
C1313 C1314 1.398 . S
C1313 C1319 1.491 . S
C1314 H1305 0.950 . S
C1314 C1313 1.398 . S
C1314 C1315 1.391 . S
C1315 H1303 0.950 . S
C1315 C1311 1.393 . S
C1315 C1314 1.391 . S
C1316 H1306 0.950 . S
C1316 C1317 1.386 . S
C1316 C1318 1.391 . S
C1317 C1316 1.386 . S
C1317 C1321 1.393 . S
C1318 H1307 0.950 . S
C1318 C1316 1.391 . S
C1318 C1319 1.400 . S
C1319 C1313 1.491 . S
C1319 C1318 1.400 . S
C1319 C1320 1.398 . S
C1320 H1308 0.950 . S
C1320 C1319 1.398 . S
C1320 C1321 1.391 . S
C1321 H1309 0.950 . S
C1321 C1317 1.393 . S
C1321 C1320 1.391 . S
H1322 C1330 0.950 . S
H1323 C1335 0.950 . S
H1324 C1332 0.950 . S
H1325 C1334 0.950 . S
H1326 C1336 0.950 . S
H1327 C1338 0.950 . S
H1328 C1340 0.950 . S
H1329 C1341 0.950 . S
C1330 H1322 0.950 . S
C1330 C1331 1.386 . S
C1330 C1332 1.391 . S
C1331 C1330 1.386 . S
C1331 C1335 1.393 . S
C1332 H1324 0.950 . S
C1332 C1330 1.391 . S
C1332 C1333 1.400 . S
C1333 C1332 1.400 . S
C1333 C1334 1.398 . S
C1333 C1339 1.491 . S
C1334 H1325 0.950 . S
C1334 C1333 1.398 . S
C1334 C1335 1.391 . S
C1335 H1323 0.950 . S
C1335 C1331 1.393 . S
C1335 C1334 1.391 . S
C1336 H1326 0.950 . S
C1336 C1337 1.386 . S
C1336 C1338 1.391 . S
C1337 C1336 1.386 . S
C1337 C1341 1.393 . S
C1338 H1327 0.950 . S
C1338 C1336 1.391 . S
C1338 C1339 1.400 . S
C1339 C1333 1.491 . S
C1339 C1338 1.400 . S
C1339 C1340 1.398 . S
C1340 H1328 0.950 . S
C1340 C1339 1.398 . S
C1340 C1341 1.391 . S
C1341 H1329 0.950 . S
C1341 C1337 1.393 . S
C1341 C1340 1.391 . S
H1342 C1350 0.950 . S
H1343 C1355 0.950 . S
H1344 C1352 0.950 . S
H1345 C1354 0.950 . S
H1346 C1356 0.950 . S
H1347 C1358 0.950 . S
H1348 C1360 0.950 . S
H1349 C1361 0.950 . S
C1350 H1342 0.950 . S
C1350 C1351 1.386 . S
C1350 C1352 1.391 . S
C1351 C1350 1.386 . S
C1351 C1355 1.393 . S
C1352 H1344 0.950 . S
C1352 C1350 1.391 . S
C1352 C1353 1.400 . S
C1353 C1352 1.400 . S
C1353 C1354 1.398 . S
C1353 C1359 1.491 . S
C1354 H1345 0.950 . S
C1354 C1353 1.398 . S
C1354 C1355 1.391 . S
C1355 H1343 0.950 . S
C1355 C1351 1.393 . S
C1355 C1354 1.391 . S
C1356 H1346 0.950 . S
C1356 C1357 1.386 . S
C1356 C1358 1.391 . S
C1357 C1356 1.386 . S
C1357 C1361 1.393 . S
C1358 H1347 0.950 . S
C1358 C1356 1.391 . S
C1358 C1359 1.400 . S
C1359 C1353 1.491 . S
C1359 C1358 1.400 . S
C1359 C1360 1.398 . S
C1360 H1348 0.950 . S
C1360 C1359 1.398 . S
C1360 C1361 1.391 . S
C1361 H1349 0.950 . S
C1361 C1357 1.393 . S
C1361 C1360 1.391 . S
H1362 C1370 0.950 . S
H1363 C1375 0.950 . S
H1364 C1372 0.950 . S
H1365 C1374 0.950 . S
H1366 C1376 0.950 . S
H1367 C1378 0.950 . S
H1368 C1380 0.950 . S
H1369 C1381 0.950 . S
C1370 H1362 0.950 . S
C1370 C1371 1.386 . S
C1370 C1372 1.391 . S
C1371 C1370 1.386 . S
C1371 C1375 1.393 . S
C1372 H1364 0.950 . S
C1372 C1370 1.391 . S
C1372 C1373 1.400 . S
C1373 C1372 1.400 . S
C1373 C1374 1.398 . S
C1373 C1379 1.491 . S
C1374 H1365 0.950 . S
C1374 C1373 1.398 . S
C1374 C1375 1.391 . S
C1375 H1363 0.950 . S
C1375 C1371 1.393 . S
C1375 C1374 1.391 . S
C1376 H1366 0.950 . S
C1376 C1377 1.386 . S
C1376 C1378 1.391 . S
C1377 C1376 1.386 . S
C1377 C1381 1.393 . S
C1378 H1367 0.950 . S
C1378 C1376 1.391 . S
C1378 C1379 1.400 . S
C1379 C1373 1.491 . S
C1379 C1378 1.400 . S
C1379 C1380 1.398 . S
C1380 H1368 0.950 . S
C1380 C1379 1.398 . S
C1380 C1381 1.391 . S
C1381 H1369 0.950 . S
C1381 C1377 1.393 . S
C1381 C1380 1.391 . S
H1382 C1390 0.950 . S
H1383 C1395 0.950 . S
H1384 C1392 0.950 . S
H1385 C1394 0.950 . S
H1386 C1396 0.950 . S
H1387 C1398 0.950 . S
H1388 C1400 0.950 . S
H1389 C1401 0.950 . S
C1390 H1382 0.950 . S
C1390 C1391 1.386 . S
C1390 C1392 1.391 . S
C1391 C1390 1.386 . S
C1391 C1395 1.393 . S
C1392 H1384 0.950 . S
C1392 C1390 1.391 . S
C1392 C1393 1.400 . S
C1393 C1392 1.400 . S
C1393 C1394 1.398 . S
C1393 C1399 1.491 . S
C1394 H1385 0.950 . S
C1394 C1393 1.398 . S
C1394 C1395 1.391 . S
C1395 H1383 0.950 . S
C1395 C1391 1.393 . S
C1395 C1394 1.391 . S
C1396 H1386 0.950 . S
C1396 C1397 1.386 . S
C1396 C1398 1.391 . S
C1397 C1396 1.386 . S
C1397 C1401 1.393 . S
C1398 H1387 0.950 . S
C1398 C1396 1.391 . S
C1398 C1399 1.400 . S
C1399 C1393 1.491 . S
C1399 C1398 1.400 . S
C1399 C1400 1.398 . S
C1400 H1388 0.950 . S
C1400 C1399 1.398 . S
C1400 C1401 1.391 . S
C1401 H1389 0.950 . S
C1401 C1397 1.393 . S
C1401 C1400 1.391 . S
H1402 C1410 0.950 . S
H1403 C1415 0.950 . S
H1404 C1412 0.950 . S
H1405 C1414 0.950 . S
H1406 C1416 0.950 . S
H1407 C1418 0.950 . S
H1408 C1420 0.950 . S
H1409 C1421 0.950 . S
C1410 H1402 0.950 . S
C1410 C1411 1.386 . S
C1410 C1412 1.391 . S
C1411 C1410 1.386 . S
C1411 C1415 1.393 . S
C1412 H1404 0.950 . S
C1412 C1410 1.391 . S
C1412 C1413 1.400 . S
C1413 C1412 1.400 . S
C1413 C1414 1.398 . S
C1413 C1419 1.491 . S
C1414 H1405 0.950 . S
C1414 C1413 1.398 . S
C1414 C1415 1.391 . S
C1415 H1403 0.950 . S
C1415 C1411 1.393 . S
C1415 C1414 1.391 . S
C1416 H1406 0.950 . S
C1416 C1417 1.386 . S
C1416 C1418 1.391 . S
C1417 C1416 1.386 . S
C1417 C1421 1.393 . S
C1418 H1407 0.950 . S
C1418 C1416 1.391 . S
C1418 C1419 1.400 . S
C1419 C1413 1.491 . S
C1419 C1418 1.400 . S
C1419 C1420 1.398 . S
C1420 H1408 0.950 . S
C1420 C1419 1.398 . S
C1420 C1421 1.391 . S
C1421 H1409 0.950 . S
C1421 C1417 1.393 . S
C1421 C1420 1.391 . S
H1422 C1430 0.950 . S
H1423 C1435 0.950 . S
H1424 C1432 0.950 . S
H1425 C1434 0.950 . S
H1426 C1436 0.950 . S
H1427 C1438 0.950 . S
H1428 C1440 0.950 . S
H1429 C1441 0.950 . S
C1430 H1422 0.950 . S
C1430 C1431 1.386 . S
C1430 C1432 1.391 . S
C1431 C1430 1.386 . S
C1431 C1435 1.393 . S
C1432 H1424 0.950 . S
C1432 C1430 1.391 . S
C1432 C1433 1.400 . S
C1433 C1432 1.400 . S
C1433 C1434 1.398 . S
C1433 C1439 1.491 . S
C1434 H1425 0.950 . S
C1434 C1433 1.398 . S
C1434 C1435 1.391 . S
C1435 H1423 0.950 . S
C1435 C1431 1.393 . S
C1435 C1434 1.391 . S
C1436 H1426 0.950 . S
C1436 C1437 1.386 . S
C1436 C1438 1.391 . S
C1437 C1436 1.386 . S
C1437 C1441 1.393 . S
C1438 H1427 0.950 . S
C1438 C1436 1.391 . S
C1438 C1439 1.400 . S
C1439 C1433 1.491 . S
C1439 C1438 1.400 . S
C1439 C1440 1.398 . S
C1440 H1428 0.950 . S
C1440 C1439 1.398 . S
C1440 C1441 1.391 . S
C1441 H1429 0.950 . S
C1441 C1437 1.393 . S
C1441 C1440 1.391 . S
H1442 C1450 0.950 . S
H1443 C1455 0.950 . S
H1444 C1452 0.950 . S
H1445 C1454 0.950 . S
H1446 C1456 0.950 . S
H1447 C1458 0.950 . S
H1448 C1460 0.950 . S
H1449 C1461 0.950 . S
C1450 H1442 0.950 . S
C1450 C1451 1.386 . S
C1450 C1452 1.391 . S
C1451 C1450 1.386 . S
C1451 C1455 1.393 . S
C1452 H1444 0.950 . S
C1452 C1450 1.391 . S
C1452 C1453 1.400 . S
C1453 C1452 1.400 . S
C1453 C1454 1.398 . S
C1453 C1459 1.491 . S
C1454 H1445 0.950 . S
C1454 C1453 1.398 . S
C1454 C1455 1.391 . S
C1455 H1443 0.950 . S
C1455 C1451 1.393 . S
C1455 C1454 1.391 . S
C1456 H1446 0.950 . S
C1456 C1457 1.386 . S
C1456 C1458 1.391 . S
C1457 C1456 1.386 . S
C1457 C1461 1.393 . S
C1458 H1447 0.950 . S
C1458 C1456 1.391 . S
C1458 C1459 1.400 . S
C1459 C1453 1.491 . S
C1459 C1458 1.400 . S
C1459 C1460 1.398 . S
C1460 H1448 0.950 . S
C1460 C1459 1.398 . S
C1460 C1461 1.391 . S
C1461 H1449 0.950 . S
C1461 C1457 1.393 . S
C1461 C1460 1.391 . S
H1462 C1470 0.950 . S
H1463 C1475 0.950 . S
H1464 C1472 0.950 . S
H1465 C1474 0.950 . S
H1466 C1476 0.950 . S
H1467 C1478 0.950 . S
H1468 C1480 0.950 . S
H1469 C1481 0.950 . S
C1470 H1462 0.950 . S
C1470 C1471 1.386 . S
C1470 C1472 1.391 . S
C1471 C1470 1.386 . S
C1471 C1475 1.393 . S
C1472 H1464 0.950 . S
C1472 C1470 1.391 . S
C1472 C1473 1.400 . S
C1473 C1472 1.400 . S
C1473 C1474 1.398 . S
C1473 C1479 1.491 . S
C1474 H1465 0.950 . S
C1474 C1473 1.398 . S
C1474 C1475 1.391 . S
C1475 H1463 0.950 . S
C1475 C1471 1.393 . S
C1475 C1474 1.391 . S
C1476 H1466 0.950 . S
C1476 C1477 1.386 . S
C1476 C1478 1.391 . S
C1477 C1476 1.386 . S
C1477 C1481 1.393 . S
C1478 H1467 0.950 . S
C1478 C1476 1.391 . S
C1478 C1479 1.400 . S
C1479 C1473 1.491 . S
C1479 C1478 1.400 . S
C1479 C1480 1.398 . S
C1480 H1468 0.950 . S
C1480 C1479 1.398 . S
C1480 C1481 1.391 . S
C1481 H1469 0.950 . S
C1481 C1477 1.393 . S
C1481 C1480 1.391 . S
C1011 C39 1.889 . S
C1017 C347 1.683 . S
C1031 C91 1.912 . S
C1037 C487 1.655 . S
C1057 C575 1.517 . S
C1051 C128 1.679 . S
C1077 C715 1.504 . S
C1071 C188 1.718 . S
C1097 C829 1.559 . S
C1091 C250 1.825 . S
C1117 C899 1.000 . S
C1111 C304 1.884 . S
C1131 C75 1.765 . S
C1137 C557 0.938 . S
C1151 C144 1.764 . S
C1157 C661 1.282 . S
C1177 C775 1.266 . S
C1171 C198 1.761 . S
C1197 C917 1.487 . S
C1191 C234 1.639 . S
C1211 C294 1.782 . S
C1217 C329 0.928 . S
C1237 C433 1.156 . S
C1231 C29 1.550 . S
C1257 C671 1.555 . S
C1251 C38 1.999 . S
C1271 C92 1.981 . S
C1277 C785 1.512 . S
C1297 C943 1.218 . S
C1291 C135 1.943 . S
C1311 C181 1.682 . S
C1317 C319 1.426 . S
C1331 C251 2.062 . S
C1337 C443 1.486 . S
C1351 C303 1.839 . S
C1357 C547 1.639 . S
C1371 C82 1.808 . S
C1377 C889 1.590 . S
C1397 C373 1.266 . S
C1391 C145 1.996 . S
C1411 C197 1.883 . S
C1417 C461 1.336 . S
C1431 C241 1.823 . S
C1437 C601 1.113 . S
C1451 C287 1.685 . S
C1457 C689 1.219 . S
C1471 C22 1.760 . S
C1477 C803 1.283 . S
