# Generated by pormake.
# Topology ptr, (4,4)-cn, num edge types: 1
# Building blocks:
#     Node 0, Type 0, BuildingBlock: GALJAG_clean_sbu_0, # of connection points: 4
#     Node 1, Type 0, BuildingBlock: GALJAG_clean_sbu_0, # of connection points: 4
#     Node 2, Type 0, BuildingBlock: GALJAG_clean_sbu_0, # of connection points: 4
#     Node 3, Type 0, BuildingBlock: GALJAG_clean_sbu_0, # of connection points: 4
#     Node 4, Type 0, BuildingBlock: GALJAG_clean_sbu_0, # of connection points: 4
#     Node 5, Type 0, BuildingBlock: GALJAG_clean_sbu_0, # of connection points: 4
#     Node 6, Type 0, BuildingBlock: GALJAG_clean_sbu_0, # of connection points: 4
#     Node 7, Type 0, BuildingBlock: GALJAG_clean_sbu_0, # of connection points: 4
#     Node 8, Type 0, BuildingBlock: GALJAG_clean_sbu_0, # of connection points: 4
#     Node 9, Type 0, BuildingBlock: GALJAG_clean_sbu_0, # of connection points: 4
#     Node 10, Type 0, BuildingBlock: GALJAG_clean_sbu_0, # of connection points: 4
#     Node 11, Type 0, BuildingBlock: GALJAG_clean_sbu_0, # of connection points: 4
#     Node 12, Type 0, BuildingBlock: GALJAG_clean_sbu_0, # of connection points: 4
#     Node 13, Type 0, BuildingBlock: GALJAG_clean_sbu_0, # of connection points: 4
#     Node 14, Type 0, BuildingBlock: GALJAG_clean_sbu_0, # of connection points: 4
#     Node 15, Type 0, BuildingBlock: GALJAG_clean_sbu_0, # of connection points: 4
#     Node 16, Type 0, BuildingBlock: GALJAG_clean_sbu_0, # of connection points: 4
#     Node 17, Type 0, BuildingBlock: GALJAG_clean_sbu_0, # of connection points: 4
#     Node 18, Type 1, BuildingBlock: MIFKUJ_clean_linker_1, # of connection points: 4
#     Node 19, Type 1, BuildingBlock: MIFKUJ_clean_linker_1, # of connection points: 4
#     Node 20, Type 1, BuildingBlock: MIFKUJ_clean_linker_1, # of connection points: 4
#     Node 21, Type 1, BuildingBlock: MIFKUJ_clean_linker_1, # of connection points: 4
#     Node 22, Type 1, BuildingBlock: MIFKUJ_clean_linker_1, # of connection points: 4
#     Node 23, Type 1, BuildingBlock: MIFKUJ_clean_linker_1, # of connection points: 4
#     Node 24, Type 1, BuildingBlock: MIFKUJ_clean_linker_1, # of connection points: 4
#     Node 25, Type 1, BuildingBlock: MIFKUJ_clean_linker_1, # of connection points: 4
#     Node 26, Type 1, BuildingBlock: MIFKUJ_clean_linker_1, # of connection points: 4
#     Node 27, Type 1, BuildingBlock: MIFKUJ_clean_linker_1, # of connection points: 4
#     Node 28, Type 1, BuildingBlock: MIFKUJ_clean_linker_1, # of connection points: 4
#     Node 29, Type 1, BuildingBlock: MIFKUJ_clean_linker_1, # of connection points: 4
#     Node 30, Type 1, BuildingBlock: MIFKUJ_clean_linker_1, # of connection points: 4
#     Node 31, Type 1, BuildingBlock: MIFKUJ_clean_linker_1, # of connection points: 4
#     Node 32, Type 1, BuildingBlock: MIFKUJ_clean_linker_1, # of connection points: 4
#     Node 33, Type 1, BuildingBlock: MIFKUJ_clean_linker_1, # of connection points: 4
#     Node 34, Type 1, BuildingBlock: MIFKUJ_clean_linker_1, # of connection points: 4
#     Node 35, Type 1, BuildingBlock: MIFKUJ_clean_linker_1, # of connection points: 4
#     Edge 36, Type (0, 1), BuildingBlock: XIVTED_clean_linker_0, # of connection points: 2
#     Edge 37, Type (0, 1), BuildingBlock: XIVTED_clean_linker_0, # of connection points: 2
#     Edge 38, Type (0, 1), BuildingBlock: XIVTED_clean_linker_0, # of connection points: 2
#     Edge 39, Type (0, 1), BuildingBlock: XIVTED_clean_linker_0, # of connection points: 2
#     Edge 40, Type (0, 1), BuildingBlock: XIVTED_clean_linker_0, # of connection points: 2
#     Edge 41, Type (0, 1), BuildingBlock: XIVTED_clean_linker_0, # of connection points: 2
#     Edge 42, Type (0, 1), BuildingBlock: XIVTED_clean_linker_0, # of connection points: 2
#     Edge 43, Type (0, 1), BuildingBlock: XIVTED_clean_linker_0, # of connection points: 2
#     Edge 44, Type (0, 1), BuildingBlock: XIVTED_clean_linker_0, # of connection points: 2
#     Edge 45, Type (0, 1), BuildingBlock: XIVTED_clean_linker_0, # of connection points: 2
#     Edge 46, Type (0, 1), BuildingBlock: XIVTED_clean_linker_0, # of connection points: 2
#     Edge 47, Type (0, 1), BuildingBlock: XIVTED_clean_linker_0, # of connection points: 2
#     Edge 48, Type (0, 1), BuildingBlock: XIVTED_clean_linker_0, # of connection points: 2
#     Edge 49, Type (0, 1), BuildingBlock: XIVTED_clean_linker_0, # of connection points: 2
#     Edge 50, Type (0, 1), BuildingBlock: XIVTED_clean_linker_0, # of connection points: 2
#     Edge 51, Type (0, 1), BuildingBlock: XIVTED_clean_linker_0, # of connection points: 2
#     Edge 52, Type (0, 1), BuildingBlock: XIVTED_clean_linker_0, # of connection points: 2
#     Edge 53, Type (0, 1), BuildingBlock: XIVTED_clean_linker_0, # of connection points: 2
#     Edge 54, Type (0, 1), BuildingBlock: XIVTED_clean_linker_0, # of connection points: 2
#     Edge 55, Type (0, 1), BuildingBlock: XIVTED_clean_linker_0, # of connection points: 2
#     Edge 56, Type (0, 1), BuildingBlock: XIVTED_clean_linker_0, # of connection points: 2
#     Edge 57, Type (0, 1), BuildingBlock: XIVTED_clean_linker_0, # of connection points: 2
#     Edge 58, Type (0, 1), BuildingBlock: XIVTED_clean_linker_0, # of connection points: 2
#     Edge 59, Type (0, 1), BuildingBlock: XIVTED_clean_linker_0, # of connection points: 2
#     Edge 60, Type (0, 1), BuildingBlock: XIVTED_clean_linker_0, # of connection points: 2
#     Edge 61, Type (0, 1), BuildingBlock: XIVTED_clean_linker_0, # of connection points: 2
#     Edge 62, Type (0, 1), BuildingBlock: XIVTED_clean_linker_0, # of connection points: 2
#     Edge 63, Type (0, 1), BuildingBlock: XIVTED_clean_linker_0, # of connection points: 2
#     Edge 64, Type (0, 1), BuildingBlock: XIVTED_clean_linker_0, # of connection points: 2
#     Edge 65, Type (0, 1), BuildingBlock: XIVTED_clean_linker_0, # of connection points: 2
#     Edge 66, Type (0, 1), BuildingBlock: XIVTED_clean_linker_0, # of connection points: 2
#     Edge 67, Type (0, 1), BuildingBlock: XIVTED_clean_linker_0, # of connection points: 2
#     Edge 68, Type (0, 1), BuildingBlock: XIVTED_clean_linker_0, # of connection points: 2
#     Edge 69, Type (0, 1), BuildingBlock: XIVTED_clean_linker_0, # of connection points: 2
#     Edge 70, Type (0, 1), BuildingBlock: XIVTED_clean_linker_0, # of connection points: 2
#     Edge 71, Type (0, 1), BuildingBlock: XIVTED_clean_linker_0, # of connection points: 2
#     Edge 72, Type (0, 1), BuildingBlock: XIVTED_clean_linker_0, # of connection points: 2
#     Edge 73, Type (0, 1), BuildingBlock: XIVTED_clean_linker_0, # of connection points: 2
#     Edge 74, Type (0, 1), BuildingBlock: XIVTED_clean_linker_0, # of connection points: 2
#     Edge 75, Type (0, 1), BuildingBlock: XIVTED_clean_linker_0, # of connection points: 2
#     Edge 76, Type (0, 1), BuildingBlock: XIVTED_clean_linker_0, # of connection points: 2
#     Edge 77, Type (0, 1), BuildingBlock: XIVTED_clean_linker_0, # of connection points: 2
#     Edge 78, Type (0, 1), BuildingBlock: XIVTED_clean_linker_0, # of connection points: 2
#     Edge 79, Type (0, 1), BuildingBlock: XIVTED_clean_linker_0, # of connection points: 2
#     Edge 80, Type (0, 1), BuildingBlock: XIVTED_clean_linker_0, # of connection points: 2
#     Edge 81, Type (0, 1), BuildingBlock: XIVTED_clean_linker_0, # of connection points: 2
#     Edge 82, Type (0, 1), BuildingBlock: XIVTED_clean_linker_0, # of connection points: 2
#     Edge 83, Type (0, 1), BuildingBlock: XIVTED_clean_linker_0, # of connection points: 2
#     Edge 84, Type (0, 1), BuildingBlock: XIVTED_clean_linker_0, # of connection points: 2
#     Edge 85, Type (0, 1), BuildingBlock: XIVTED_clean_linker_0, # of connection points: 2
#     Edge 86, Type (0, 1), BuildingBlock: XIVTED_clean_linker_0, # of connection points: 2
#     Edge 87, Type (0, 1), BuildingBlock: XIVTED_clean_linker_0, # of connection points: 2
#     Edge 88, Type (0, 1), BuildingBlock: XIVTED_clean_linker_0, # of connection points: 2
#     Edge 89, Type (0, 1), BuildingBlock: XIVTED_clean_linker_0, # of connection points: 2
#     Edge 90, Type (0, 1), BuildingBlock: XIVTED_clean_linker_0, # of connection points: 2
#     Edge 91, Type (0, 1), BuildingBlock: XIVTED_clean_linker_0, # of connection points: 2
#     Edge 92, Type (0, 1), BuildingBlock: XIVTED_clean_linker_0, # of connection points: 2
#     Edge 93, Type (0, 1), BuildingBlock: XIVTED_clean_linker_0, # of connection points: 2
#     Edge 94, Type (0, 1), BuildingBlock: XIVTED_clean_linker_0, # of connection points: 2
#     Edge 95, Type (0, 1), BuildingBlock: XIVTED_clean_linker_0, # of connection points: 2
#     Edge 96, Type (0, 1), BuildingBlock: XIVTED_clean_linker_0, # of connection points: 2
#     Edge 97, Type (0, 1), BuildingBlock: XIVTED_clean_linker_0, # of connection points: 2
#     Edge 98, Type (0, 1), BuildingBlock: XIVTED_clean_linker_0, # of connection points: 2
#     Edge 99, Type (0, 1), BuildingBlock: XIVTED_clean_linker_0, # of connection points: 2
#     Edge 100, Type (0, 1), BuildingBlock: XIVTED_clean_linker_0, # of connection points: 2
#     Edge 101, Type (0, 1), BuildingBlock: XIVTED_clean_linker_0, # of connection points: 2
#     Edge 102, Type (0, 1), BuildingBlock: XIVTED_clean_linker_0, # of connection points: 2
#     Edge 103, Type (0, 1), BuildingBlock: XIVTED_clean_linker_0, # of connection points: 2
#     Edge 104, Type (0, 1), BuildingBlock: XIVTED_clean_linker_0, # of connection points: 2
#     Edge 105, Type (0, 1), BuildingBlock: XIVTED_clean_linker_0, # of connection points: 2
#     Edge 106, Type (0, 1), BuildingBlock: XIVTED_clean_linker_0, # of connection points: 2
#     Edge 107, Type (0, 1), BuildingBlock: XIVTED_clean_linker_0, # of connection points: 2
# Relax obj value: 0.053
# Max RMSD: 0.081
# Mean RMSD: 0.075
data_MOF--net-ptr--node1-GALJAG_clean_sbu_0--node2-MIFKUJ_clean_linker_1--edge1-XIVTED_clean_linker_0
_symmetry_space_group_name_H-M    P1
_symmetry_Int_Tables_number       1
_symmetry_cell_setting            triclinic
loop_
_symmetry_equiv_pos_as_xyz
'x, y, z'
_cell_length_a     89.040781
_cell_length_b     89.134711
_cell_length_c     65.372198
_cell_angle_alpha  90.08153
_cell_angle_beta   89.962653
_cell_angle_gamma 120.11887
loop_
_atom_site_label
_atom_site_type_symbol
_atom_site_fract_x
_atom_site_fract_y
_atom_site_fract_z
_atom_type_partial_charge
In0 In 0.99709 0.35098 0.01456 0.0
O1 O 0.98212 0.35148 0.04285 0.0
O2 O 0.00139 0.37557 0.03041 0.0
C3 C 0.97489 0.31962 0.9983 0.0
C4 C 0.02188 0.34675 0.03292 0.0
C5 C 0.0016 0.37128 0.98199 0.0
O6 O 0.96998 0.32716 0.0107 0.0
O7 O 0.99093 0.32772 0.99451 0.0
O8 O 0.01422 0.37129 0.99089 0.0
O9 O 0.98688 0.36112 0.98959 0.0
C10 C 0.99008 0.36782 0.04405 0.0
O11 O 0.02408 0.35363 0.0155 0.0
O12 O 0.00733 0.34209 0.04092 0.0
In13 In 0.64575 0.64587 0.01141 0.0
O14 O 0.63598 0.61878 0.02534 0.0
O15 O 0.6376 0.63876 0.0445 0.0
C16 C 0.67625 0.65162 0.99581 0.0
C17 C 0.65341 0.67665 0.02777 0.0
C18 C 0.62182 0.63419 0.98093 0.0
O19 O 0.66614 0.63781 0.00527 0.0
O20 O 0.671 0.66233 0.99448 0.0
O21 O 0.63786 0.64086 0.97782 0.0
O22 O 0.61773 0.63376 0.99947 0.0
C23 C 0.63367 0.62314 0.04294 0.0
O24 O 0.64138 0.66903 0.01476 0.0
O25 O 0.66146 0.66882 0.03218 0.0
In26 In 0.35005 0.99767 0.01232 0.0
O27 O 0.35125 0.02386 0.0105 0.0
O28 O 0.33413 0.00374 0.99032 0.0
C29 C 0.37282 0.00273 0.04245 0.0
C30 C 0.367 0.99476 0.97975 0.0
C31 C 0.32025 0.97437 0.03062 0.0
O32 O 0.36952 0.01439 0.03711 0.0
O33 O 0.3648 0.98876 0.03248 0.0
O34 O 0.32603 0.97061 0.01495 0.0
O35 O 0.32943 0.98979 0.0368 0.0
C36 C 0.34024 0.01921 0.9962 0.0
O37 O 0.35368 0.98182 0.98715 0.0
O38 O 0.3717 0.00891 0.98887 0.0
In39 In 0.99704 0.64688 0.01043 0.0
O40 O 0.01337 0.64383 0.98522 0.0
O41 O 0.98742 0.62347 0.98963 0.0
C42 C 0.01932 0.67769 0.02734 0.0
C43 C 0.97417 0.65475 0.99387 0.0
C44 C 0.99325 0.6266 0.04281 0.0
O45 O 0.02371 0.67135 0.01275 0.0
O46 O 0.00374 0.66857 0.03309 0.0
O47 O 0.98047 0.62661 0.03445 0.0
O48 O 0.00777 0.63663 0.03474 0.0
C49 C 0.00132 0.62907 0.97967 0.0
O50 O 0.97007 0.64384 0.00814 0.0
O51 O 0.98975 0.66167 0.98807 0.0
In52 In 0.35072 0.35166 0.01089 0.0
O53 O 0.35029 0.3679 0.98407 0.0
O54 O 0.37479 0.37211 0.99437 0.0
C55 C 0.31931 0.34095 0.02793 0.0
C56 C 0.34723 0.32338 0.99122 0.0
C57 C 0.37145 0.36863 0.04285 0.0
O58 O 0.32543 0.3523 0.01404 0.0
O59 O 0.32888 0.33488 0.0329 0.0
O60 O 0.3716 0.35595 0.03432 0.0
O61 O 0.3609 0.37263 0.03522 0.0
C62 C 0.36659 0.37615 0.98192 0.0
O63 O 0.3541 0.32777 0.0087 0.0
O64 O 0.34219 0.33315 0.9839 0.0
In65 In 0.64661 -8e-05 0.01316 0.0
O66 O 0.64475 0.0162 0.03933 0.0
O67 O 0.62379 0.99056 0.03482 0.0
C68 C 0.67723 0.02192 0.99562 0.0
C69 C 0.65331 0.97602 0.02896 0.0
C70 C 0.62626 0.99721 0.98125 0.0
O71 O 0.67152 0.02626 0.0109 0.0
O72 O 0.66761 0.00653 0.98955 0.0
O73 O 0.62811 0.98471 0.98699 0.0
O74 O 0.63444 0.01085 0.99177 0.0
C75 C 0.62998 0.00434 0.04515 0.0
O76 O 0.64076 0.97205 0.01694 0.0
O77 O 0.6625 0.99199 0.03283 0.0
In78 In 0.66796 0.6873 0.34413 0.0
O79 O 0.65053 0.6893 0.36855 0.0
O80 O 0.67755 0.70785 0.36893 0.0
C81 C 0.6441 0.65834 0.32466 0.0
C82 C 0.6902 0.67849 0.36074 0.0
C83 C 0.67526 0.71084 0.3142 0.0
O84 O 0.64042 0.66397 0.34053 0.0
O85 O 0.65963 0.66727 0.31884 0.0
O86 O 0.68344 0.70276 0.31615 0.0
O87 O 0.66355 0.70714 0.32734 0.0
C88 C 0.66287 0.7025 0.37703 0.0
O89 O 0.69523 0.69188 0.3499 0.0
O90 O 0.67398 0.66948 0.36303 0.0
In91 In 0.31146 0.97959 0.34646 0.0
O92 O 0.30881 0.96064 0.37171 0.0
O93 O 0.28879 0.96688 0.36857 0.0
C94 C 0.34149 0.9865 0.3284 0.0
C95 C 0.32023 0.01054 0.36342 0.0
C96 C 0.28918 0.96207 0.3158 0.0
O97 O 0.33548 0.97667 0.34377 0.0
O98 O 0.33247 0.99293 0.32238 0.0
O99 O 0.29211 0.97684 0.32156 0.0
O100 O 0.29739 0.95626 0.32555 0.0
C101 C 0.29446 0.95846 0.37814 0.0
O102 O 0.30959 0.00423 0.34877 0.0
O103 O 0.32648 0.00133 0.36927 0.0
In104 In 0.0183 0.33401 0.34413 0.0
O105 O 0.02209 0.36122 0.34124 0.0
O106 O 0.00227 0.34096 0.32341 0.0
C107 C 0.04147 0.33875 0.37361 0.0
C108 C 0.03401 0.33023 0.3109 0.0
C109 C 0.9885 0.31092 0.36268 0.0
O110 O 0.03598 0.34921 0.37102 0.0
O111 O 0.03537 0.32613 0.36134 0.0
O112 O 0.99404 0.3071 0.34685 0.0
O113 O 0.99791 0.32627 0.36891 0.0
C114 C 0.0102 0.35684 0.3281 0.0
O115 O 0.02079 0.31754 0.31885 0.0
O116 O 0.03919 0.34458 0.31978 0.0
In117 In 0.66668 0.98022 0.34423 0.0
O118 O 0.68355 0.97709 0.32006 0.0
O119 O 0.65652 0.95871 0.32052 0.0
C120 C 0.69035 0.00995 0.36245 0.0
C121 C 0.64383 0.98887 0.32912 0.0
C122 C 0.66157 0.95725 0.37394 0.0
O123 O 0.69222 0.00619 0.34436 0.0
O124 O 0.67658 0.99888 0.37114 0.0
O125 O 0.6501 0.961 0.3691 0.0
O126 O 0.67543 0.96496 0.36367 0.0
C127 C 0.67105 0.96368 0.3122 0.0
O128 O 0.63981 0.97779 0.34317 0.0
O129 O 0.65932 0.99569 0.32308 0.0
In130 In 0.01923 0.68794 0.34666 0.0
O131 O 0.0176 0.69613 0.31373 0.0
O132 O 0.0384 0.71393 0.33242 0.0
C133 C 0.9879 0.67975 0.36203 0.0
C134 C 0.01769 0.65916 0.33091 0.0
C135 C 0.0395 0.70196 0.38002 0.0
O136 O 0.99535 0.69124 0.34846 0.0
O137 O 0.99617 0.67239 0.3676 0.0
O138 O 0.03905 0.68944 0.37039 0.0
O139 O 0.02977 0.70715 0.37286 0.0
C140 C 0.03114 0.7108 0.31519 0.0
O141 O 0.03193 0.67306 0.33351 0.0
O142 O 0.00449 0.65978 0.33655 0.0
In143 In 0.31419 0.33406 0.34702 0.0
O144 O 0.31128 0.3072 0.34951 0.0
O145 O 0.3298 0.32735 0.3687 0.0
C146 C 0.2908 0.32781 0.3171 0.0
C147 C 0.29883 0.33722 0.38095 0.0
C148 C 0.34383 0.35863 0.32941 0.0
O149 O 0.29802 0.3188 0.31902 0.0
O150 O 0.29535 0.33972 0.33015 0.0
O151 O 0.33486 0.36238 0.34103 0.0
O152 O 0.33793 0.34262 0.32687 0.0
C153 C 0.32261 0.31162 0.36341 0.0
O154 O 0.31254 0.34983 0.37374 0.0
O155 O 0.29297 0.32326 0.37098 0.0
In156 In 0.33453 0.02118 0.67799 0.0
O157 O 0.36218 0.02664 0.68296 0.0
O158 O 0.34158 0.00385 0.6963 0.0
C159 C 0.34096 0.04457 0.64816 0.0
C160 C 0.32939 0.03592 0.71129 0.0
C161 C 0.31072 0.99183 0.65917 0.0
O162 O 0.34929 0.03661 0.6497 0.0
O163 O 0.32952 0.04082 0.66168 0.0
O164 O 0.30735 0.99716 0.6755 0.0
O165 O 0.32593 0.00126 0.65254 0.0
C166 C 0.35773 0.0133 0.69369 0.0
O167 O 0.31705 0.02291 0.70254 0.0
O168 O 0.3441 0.04134 0.70321 0.0
In169 In 0.97735 0.31097 0.67811 0.0
O170 O 0.97286 0.33379 0.6835 0.0
O171 O 0.99579 0.33553 0.69563 0.0
C172 C 0.95173 0.29708 0.64988 0.0
C173 C 0.96403 0.28942 0.71042 0.0
C174 C 0.00568 0.31404 0.65881 0.0
O175 O 0.96357 0.3128 0.6495 0.0
O176 O 0.95259 0.2885 0.66468 0.0
O177 O 0.0029 0.3104 0.67756 0.0
O178 O 0.9942 0.31592 0.64995 0.0
C179 C 0.98663 0.34255 0.69365 0.0
O180 O 0.97143 0.28642 0.69577 0.0
O181 O 0.96335 0.30316 0.70867 0.0
In182 In 0.68245 0.66452 0.67673 0.0
O183 O 0.68717 0.69194 0.67243 0.0
O184 O 0.6653 0.67122 0.6576 0.0
C185 C 0.7042 0.66887 0.70781 0.0
C186 C 0.69844 0.6602 0.644 0.0
C187 C 0.65241 0.64204 0.69507 0.0
O188 O 0.70133 0.68076 0.70221 0.0
O189 O 0.69636 0.65505 0.69754 0.0
O190 O 0.65786 0.63797 0.67934 0.0
O191 O 0.66199 0.65741 0.70123 0.0
C192 C 0.6742 0.68732 0.66089 0.0
O193 O 0.68494 0.64772 0.65172 0.0
O194 O 0.70375 0.67455 0.65286 0.0
In195 In 0.33203 0.31267 0.68066 0.0
O196 O 0.34885 0.30994 0.65606 0.0
O197 O 0.32301 0.28911 0.66011 0.0
C198 C 0.35451 0.34364 0.6974 0.0
C199 C 0.30958 0.32027 0.66225 0.0
C200 C 0.32708 0.29153 0.71259 0.0
O201 O 0.35894 0.33689 0.68335 0.0
O202 O 0.3388 0.33487 0.7027 0.0
O203 O 0.31469 0.29241 0.7044 0.0
O204 O 0.34174 0.30116 0.70458 0.0
C205 C 0.3371 0.29506 0.65039 0.0
O206 O 0.30596 0.31188 0.67882 0.0
O207 O 0.32444 0.32484 0.65519 0.0
In208 In 0.68522 0.01893 0.67752 0.0
O209 O 0.68667 0.03639 0.6509 0.0
O210 O 0.70817 0.03273 0.656 0.0
C211 C 0.65503 0.01231 0.69478 0.0
C212 C 0.67765 0.98837 0.66042 0.0
C213 C 0.70651 0.03551 0.70939 0.0
O214 O 0.66266 0.02397 0.68143 0.0
O215 O 0.66256 0.00395 0.69925 0.0
O216 O 0.70245 0.02024 0.70438 0.0
O217 O 0.69987 0.04225 0.69836 0.0
C218 C 0.70164 0.03979 0.64536 0.0
O219 O 0.69039 0.99656 0.67233 0.0
O220 O 0.66866 0.99547 0.65738 0.0
In221 In 0.97891 0.66396 0.67878 0.0
O222 O 0.97284 0.63613 0.68375 0.0
O223 O 0.99546 0.65648 0.69787 0.0
C224 C 0.95775 0.66014 0.64721 0.0
C225 C 0.96338 0.66928 0.71125 0.0
C226 C 0.00964 0.68595 0.66147 0.0
O227 O 0.96037 0.6481 0.65287 0.0
O228 O 0.96557 0.67386 0.65763 0.0
O229 O 0.00412 0.68999 0.67716 0.0
O230 O -0.00028 0.67085 0.65472 0.0
C231 C 0.98587 0.64039 0.69508 0.0
O232 O 0.97687 0.68147 0.70314 0.0
O233 O 0.9578 0.6547 0.70285 0.0
H234 H 0.15011 0.34216 0.19266 0.0
H235 H 0.12834 0.34331 0.21412 0.0
H236 H 0.08785 0.2987 0.1825 0.0
H237 H 0.1099 0.29738 0.16125 0.0
H238 H 0.15814 0.3176 0.19047 0.0
H239 H 0.13863 0.34548 0.1461 0.0
H240 H 0.11767 0.35009 0.12717 0.0
H241 H 0.10462 0.30507 0.09002 0.0
H242 H 0.12531 0.30015 0.10948 0.0
H243 H 0.17019 0.2967 0.11019 0.0
H244 H 0.19406 0.29849 0.08956 0.0
H245 H 0.23091 0.34149 0.1264 0.0
H246 H 0.20713 0.34031 0.14628 0.0
H247 H 0.15934 0.31873 0.11467 0.0
H248 H 0.18181 0.29292 0.16711 0.0
H249 H 0.20253 0.29281 0.19189 0.0
H250 H 0.21446 0.34364 0.21289 0.0
H251 H 0.19352 0.34337 0.18877 0.0
C252 C 0.13164 0.3197 0.17535 0.0
C253 C 0.13655 0.33264 0.1903 0.0
C254 C 0.12406 0.33337 0.20243 0.0
C255 C 0.10634 0.32114 0.19995 0.0
C256 C 0.1014 0.30824 0.18485 0.0
C257 C 0.11396 0.30754 0.17262 0.0
C258 C 0.14523 0.31874 0.16323 0.0
C259 C 0.15839 0.31785 0.17387 0.0
C260 C 0.1456 0.31916 0.1416 0.0
C261 C 0.13323 0.32219 0.12958 0.0
C262 C 0.13108 0.33641 0.13411 0.0
C263 C 0.11917 0.3391 0.12322 0.0
C264 C 0.10944 0.32785 0.10726 0.0
C265 C 0.112 0.31395 0.10223 0.0
C266 C 0.12377 0.31112 0.11335 0.0
C267 C 0.18683 0.31809 0.13015 0.0
C268 C 0.18341 0.30652 0.11385 0.0
C269 C 0.19701 0.30754 0.10207 0.0
C270 C 0.21427 0.32002 0.10657 0.0
C271 C 0.21771 0.33156 0.12288 0.0
C272 C 0.20411 0.33077 0.13437 0.0
C273 C 0.17229 0.31751 0.14197 0.0
C274 C 0.15887 0.31808 0.13124 0.0
C275 C 0.17205 0.31754 0.1636 0.0
C276 C 0.18606 0.31809 0.17629 0.0
C277 C 0.18909 0.30408 0.17693 0.0
C278 C 0.20094 0.30406 0.19104 0.0
C279 C 0.20989 0.31807 0.20464 0.0
C280 C 0.20744 0.33243 0.20307 0.0
C281 C 0.19557 0.33237 0.18919 0.0
H282 H 0.71068 0.87947 0.18691 0.0
H283 H 0.70837 0.89977 0.21 0.0
H284 H 0.6577 0.88455 0.18515 0.0
H285 H 0.65976 0.86369 0.16282 0.0
H286 H 0.69107 0.84562 0.1876 0.0
H287 H 0.70324 0.88975 0.13852 0.0
H288 H 0.69851 0.91036 0.11919 0.0
H289 H 0.65243 0.86779 0.09216 0.0
H290 H 0.6565 0.8474 0.11276 0.0
H291 H 0.65529 0.80437 0.11892 0.0
H292 H 0.6512 0.7793 0.09936 0.0
H293 H 0.70329 0.79143 0.11511 0.0
H294 H 0.70708 0.81632 0.13516 0.0
H295 H 0.67896 0.83833 0.11319 0.0
H296 H 0.66478 0.7947 0.1642 0.0
H297 H 0.666 0.77433 0.18827 0.0
H298 H 0.71443 0.81546 0.21222 0.0
H299 H 0.71367 0.83567 0.18751 0.0
C300 C 0.68544 0.87011 0.17305 0.0
C301 C 0.69913 0.88062 0.18634 0.0
C302 C 0.69785 0.89233 0.19942 0.0
C303 C 0.68282 0.89377 0.19949 0.0
C304 C 0.66936 0.88361 0.18569 0.0
C305 C 0.67061 0.87182 0.17271 0.0
C306 C 0.68608 0.85641 0.1608 0.0
C307 C 0.68884 0.84425 0.17121 0.0
C308 C 0.68262 0.85436 0.13954 0.0
C309 C 0.68009 0.867 0.12738 0.0
C310 C 0.69195 0.88487 0.1287 0.0
C311 C 0.68937 0.89666 0.11735 0.0
C312 C 0.67505 0.8908 0.10406 0.0
C313 C 0.6634 0.87286 0.1025 0.0
C314 C 0.66584 0.86112 0.1141 0.0
C315 C 0.68146 0.81215 0.12854 0.0
C316 C 0.66583 0.80162 0.11814 0.0
C317 C 0.66356 0.78735 0.10685 0.0
C318 C 0.67695 0.78338 0.10553 0.0
C319 C 0.69263 0.79397 0.116 0.0
C320 C 0.69485 0.80823 0.12742 0.0
C321 C 0.68369 0.82744 0.14008 0.0
C322 C 0.68151 0.8399 0.12951 0.0
C323 C 0.6876 0.8297 0.16122 0.0
C324 C 0.68924 0.81673 0.17383 0.0
C325 C 0.676 0.79923 0.17406 0.0
C326 C 0.67664 0.78761 0.1879 0.0
C327 C 0.69028 0.7934 0.20207 0.0
C328 C 0.70375 0.81074 0.20147 0.0
C329 C 0.7033 0.82226 0.18738 0.0
H330 H 0.11581 0.83483 0.18594 0.0
H331 H 0.09331 0.8145 0.20925 0.0
H332 H 0.10417 0.77437 0.1907 0.0
H333 H 0.12671 0.79476 0.16751 0.0
H334 H 0.14948 0.84536 0.18945 0.0
H335 H 0.10613 0.81646 0.13621 0.0
H336 H 0.0849 0.79187 0.11585 0.0
H337 H 0.12431 0.77886 0.10079 0.0
H338 H 0.14545 0.80359 0.12085 0.0
H339 H 0.19046 0.84706 0.12 0.0
H340 H 0.21616 0.86772 0.10087 0.0
H341 H 0.20724 0.90921 0.11931 0.0
H342 H 0.18171 0.8885 0.13867 0.0
H343 H 0.15728 0.83749 0.1159 0.0
H344 H 0.19975 0.86273 0.16743 0.0
H345 H 0.2221 0.88343 0.19048 0.0
H346 H 0.18663 0.89971 0.21215 0.0
H347 H 0.16451 0.87944 0.18839 0.0
C348 C 0.1229 0.81632 0.17489 0.0
C349 C 0.11317 0.82159 0.18669 0.0
C350 C 0.10036 0.80998 0.20004 0.0
C351 C 0.09703 0.79286 0.20189 0.0
C352 C 0.10627 0.7874 0.18943 0.0
C353 C 0.11916 0.79905 0.17615 0.0
C354 C 0.13801 0.82931 0.16289 0.0
C355 C 0.15099 0.84387 0.17323 0.0
C356 C 0.14041 0.82689 0.142 0.0
C357 C 0.12734 0.8118 0.13011 0.0
C358 C 0.11013 0.80823 0.12861 0.0
C359 C 0.09802 0.79415 0.11699 0.0
C360 C 0.10291 0.78341 0.10663 0.0
C361 C 0.12017 0.78703 0.10825 0.0
C362 C 0.13226 0.80111 0.1198 0.0
C363 C 0.18425 0.86626 0.13089 0.0
C364 C 0.19404 0.86061 0.11988 0.0
C365 C 0.20869 0.87243 0.10887 0.0
C366 C 0.21378 0.89013 0.10854 0.0
C367 C 0.20386 0.89572 0.1195 0.0
C368 C 0.18924 0.8839 0.13055 0.0
C369 C 0.16864 0.85363 0.14243 0.0
C370 C 0.15563 0.83915 0.13203 0.0
C371 C 0.16641 0.8559 0.16341 0.0
C372 C 0.18048 0.86963 0.17602 0.0
C373 C 0.19691 0.87106 0.17675 0.0
C374 C 0.20962 0.88275 0.19015 0.0
C375 C 0.20612 0.89314 0.20329 0.0
C376 C 0.18982 0.89204 0.20211 0.0
C377 C 0.17712 0.88037 0.18864 0.0
H378 H 0.29299 0.18359 0.86288 0.0
H379 H 0.29495 0.20664 0.8405 0.0
H380 H 0.33744 0.2071 0.80795 0.0
H381 H 0.33561 0.18445 0.83041 0.0
H382 H 0.30972 0.15209 0.83563 0.0
H383 H 0.29804 0.17292 0.9158 0.0
H384 H 0.30435 0.19913 0.9348 0.0
H385 H 0.34714 0.22984 0.89405 0.0
H386 H 0.34111 0.20359 0.87543 0.0
H387 H 0.33983 0.14728 0.91041 0.0
H388 H 0.34251 0.12596 0.931 0.0
H389 H 0.29244 0.08584 0.90915 0.0
H390 H 0.29004 0.10728 0.88821 0.0
H391 H 0.31714 0.15828 0.91088 0.0
H392 H 0.33573 0.12995 0.86418 0.0
H393 H 0.33708 0.10843 0.84236 0.0
H394 H 0.28883 0.09731 0.81365 0.0
H395 H 0.28717 0.11829 0.83622 0.0
C396 C 0.3142 0.18236 0.84833 0.0
C397 C 0.30277 0.18876 0.85098 0.0
C398 C 0.30384 0.20183 0.83813 0.0
C399 C 0.31642 0.20874 0.82255 0.0
C400 C 0.32779 0.20225 0.82 0.0
C401 C 0.32666 0.18919 0.83271 0.0
C402 C 0.31327 0.16843 0.86157 0.0
C403 C 0.31108 0.15331 0.85214 0.0
C404 C 0.31543 0.17025 0.88304 0.0
C405 C 0.31889 0.1863 0.89395 0.0
C406 C 0.30878 0.1853 0.91095 0.0
C407 C 0.31242 0.20025 0.92184 0.0
C408 C 0.3262 0.21651 0.91585 0.0
C409 C 0.3363 0.21751 0.89882 0.0
C410 C 0.33279 0.20252 0.88811 0.0
C411 C 0.31477 0.12885 0.89772 0.0
C412 C 0.32938 0.1339 0.91016 0.0
C413 C 0.33085 0.1217 0.922 0.0
C414 C 0.31767 0.10417 0.9218 0.0
C415 C 0.30294 0.09917 0.90946 0.0
C416 C 0.30151 0.11141 0.89753 0.0
C417 C 0.31361 0.14194 0.88491 0.0
C418 C 0.31531 0.15685 0.89444 0.0
C419 C 0.31148 0.14015 0.86344 0.0
C420 C 0.31126 0.12564 0.85199 0.0
C421 C 0.32517 0.12252 0.85362 0.0
C422 C 0.32605 0.11036 0.84091 0.0
C423 C 0.31314 0.10124 0.8261 0.0
C424 C 0.2989 0.10394 0.82502 0.0
C425 C 0.29799 0.11603 0.83782 0.0
H426 H 0.83143 0.11706 0.83643 0.0
H427 H 0.80901 0.0967 0.81298 0.0
H428 H 0.77369 0.11279 0.83574 0.0
H429 H 0.79629 0.13352 0.85851 0.0
H430 H 0.84623 0.1513 0.83526 0.0
H431 H 0.81518 0.10816 0.88677 0.0
H432 H 0.79027 0.08745 0.90704 0.0
H433 H 0.78099 0.12868 0.92562 0.0
H434 H 0.80605 0.14932 0.90561 0.0
H435 H 0.84997 0.19335 0.9031 0.0
H436 H 0.8708 0.21843 0.92294 0.0
H437 H 0.91093 0.20636 0.90818 0.0
H438 H 0.89004 0.18153 0.88789 0.0
H439 H 0.83925 0.15942 0.909 0.0
H440 H 0.86518 0.20079 0.85487 0.0
H441 H 0.88673 0.22194 0.83155 0.0
H442 H 0.90419 0.18579 0.81704 0.0
H443 H 0.88209 0.16446 0.83997 0.0
C444 C 0.81553 0.12675 0.84935 0.0
C445 C 0.81878 0.11605 0.83651 0.0
C446 C 0.80592 0.10433 0.82321 0.0
C447 C 0.78958 0.10318 0.82241 0.0
C448 C 0.7862 0.11351 0.83578 0.0
C449 C 0.79906 0.12522 0.84902 0.0
C450 C 0.82974 0.1406 0.86169 0.0
C451 C 0.84489 0.1528 0.85152 0.0
C452 C 0.82776 0.14295 0.88273 0.0
C453 C 0.81243 0.13026 0.89461 0.0
C454 C 0.8077 0.11269 0.89512 0.0
C455 C 0.79343 0.10087 0.90669 0.0
C456 C 0.78363 0.10641 0.91799 0.0
C457 C 0.78841 0.12402 0.91739 0.0
C458 C 0.80269 0.13583 0.90588 0.0
C459 C 0.86847 0.18563 0.89397 0.0
C460 C 0.86327 0.19615 0.90412 0.0
C461 C 0.87519 0.21042 0.91557 0.0
C462 C 0.89255 0.21438 0.9173 0.0
C463 C 0.89774 0.20385 0.90698 0.0
C464 C 0.88581 0.18962 0.89541 0.0
C465 C 0.85554 0.17016 0.88249 0.0
C466 C 0.8407 0.15768 0.89284 0.0
C467 C 0.85769 0.16767 0.86158 0.0
C468 C 0.87211 0.18111 0.84923 0.0
C469 C 0.87385 0.19755 0.84693 0.0
C470 C 0.88626 0.20966 0.83359 0.0
C471 C 0.89725 0.20561 0.82232 0.0
C472 C 0.89579 0.18927 0.82518 0.0
C473 C 0.88325 0.1771 0.8384 0.0
H474 H 0.80651 0.65615 0.8304 0.0
H475 H 0.78373 0.65412 0.80805 0.0
H476 H 0.78729 0.69943 0.83702 0.0
H477 H 0.81067 0.70174 0.859 0.0
H478 H 0.83888 0.68057 0.83169 0.0
H479 H 0.79233 0.65451 0.87894 0.0
H480 H 0.76762 0.65003 0.89974 0.0
H481 H 0.80019 0.69883 0.93043 0.0
H482 H 0.82479 0.70345 0.90916 0.0
H483 H 0.87705 0.7063 0.90703 0.0
H484 H 0.89811 0.70307 0.92804 0.0
H485 H 0.87981 0.65215 0.90222 0.0
H486 H 0.85886 0.65545 0.88134 0.0
H487 H 0.83985 0.68331 0.90747 0.0
H488 H 0.88812 0.70441 0.85881 0.0
H489 H 0.91011 0.70281 0.83775 0.0
H490 H 0.86998 0.6552 0.81065 0.0
H491 H 0.8483 0.65667 0.83194 0.0
C492 C 0.81032 0.67909 0.84637 0.0
C493 C 0.80236 0.66563 0.83201 0.0
C494 C 0.7892 0.66439 0.81936 0.0
C495 C 0.78362 0.67658 0.82078 0.0
C496 C 0.79139 0.68992 0.83543 0.0
C497 C 0.80463 0.69116 0.84813 0.0
C498 C 0.82511 0.68083 0.85866 0.0
C499 C 0.83904 0.68111 0.84828 0.0
C500 C 0.82545 0.68175 0.88027 0.0
C501 C 0.81033 0.67945 0.89229 0.0
C502 C 0.79408 0.66437 0.88993 0.0
C503 C 0.78003 0.66172 0.90201 0.0
C504 C 0.78196 0.67406 0.91676 0.0
C505 C 0.79824 0.68918 0.91905 0.0
C506 C 0.81232 0.6918 0.90698 0.0
C507 C 0.86656 0.68118 0.89254 0.0
C508 C 0.87768 0.69451 0.90586 0.0
C509 C 0.8897 0.69267 0.91777 0.0
C510 C 0.89052 0.67734 0.91677 0.0
C511 C 0.87933 0.66403 0.90342 0.0
C512 C 0.86748 0.66595 0.89138 0.0
C513 C 0.85338 0.68272 0.88045 0.0
C514 C 0.83981 0.68315 0.89087 0.0
C515 C 0.85301 0.68174 0.85888 0.0
C516 C 0.86659 0.68064 0.84696 0.0
C517 C 0.88415 0.69354 0.84851 0.0
C518 C 0.89666 0.69268 0.83637 0.0
C519 C 0.89179 0.67885 0.82258 0.0
C520 C 0.87422 0.66587 0.82133 0.0
C521 C 0.86177 0.66678 0.83336 0.0
H522 H 0.81443 0.67282 0.52455 0.0
H523 H 0.7927 0.67382 0.54622 0.0
H524 H 0.7525 0.62746 0.51698 0.0
H525 H 0.77454 0.62628 0.49559 0.0
H526 H 0.82386 0.64937 0.52333 0.0
H527 H 0.80372 0.67511 0.47576 0.0
H528 H 0.7833 0.67941 0.45517 0.0
H529 H 0.76602 0.63006 0.42551 0.0
H530 H 0.78645 0.62573 0.4464 0.0
H531 H 0.83799 0.62582 0.44729 0.0
H532 H 0.8627 0.62998 0.42639 0.0
H533 H 0.89455 0.68046 0.45374 0.0
H534 H 0.86985 0.67626 0.47447 0.0
H535 H 0.82284 0.64739 0.44752 0.0
H536 H 0.8519 0.62832 0.4957 0.0
H537 H 0.87532 0.63056 0.51754 0.0
H538 H 0.87921 0.67602 0.54651 0.0
H539 H 0.85639 0.67406 0.52428 0.0
C540 C 0.79613 0.64949 0.50844 0.0
C541 C 0.80094 0.66288 0.52276 0.0
C542 C 0.78846 0.66352 0.53501 0.0
C543 C 0.77084 0.65076 0.53327 0.0
C544 C 0.76598 0.63742 0.51877 0.0
C545 C 0.77853 0.63681 0.50643 0.0
C546 C 0.80974 0.6486 0.49629 0.0
C547 C 0.82367 0.64901 0.50674 0.0
C548 C 0.8094 0.64794 0.47468 0.0
C549 C 0.79644 0.65001 0.46274 0.0
C550 C 0.79539 0.66512 0.46499 0.0
C551 C 0.78385 0.66764 0.45308 0.0
C552 C 0.77312 0.65509 0.43869 0.0
C553 C 0.77405 0.63987 0.4366 0.0
C554 C 0.78573 0.63742 0.44843 0.0
C555 C 0.85217 0.65065 0.46255 0.0
C556 C 0.85034 0.63773 0.44881 0.0
C557 C 0.86445 0.6401 0.43696 0.0
C558 C 0.88053 0.65556 0.43843 0.0
C559 C 0.88228 0.66849 0.45216 0.0
C560 C 0.86823 0.66604 0.46414 0.0
C561 C 0.83713 0.64848 0.47461 0.0
C562 C 0.82285 0.64738 0.46412 0.0
C563 C 0.83755 0.64931 0.49621 0.0
C564 C 0.85242 0.65104 0.50833 0.0
C565 C 0.85803 0.63892 0.50653 0.0
C566 C 0.8713 0.64013 0.51914 0.0
C567 C 0.87915 0.65347 0.53378 0.0
C568 C 0.87368 0.66574 0.53521 0.0
C569 C 0.86049 0.66454 0.52263 0.0
H570 H 0.3798 0.21433 0.52147 0.0
H571 H 0.37784 0.23429 0.54554 0.0
H572 H 0.32672 0.21926 0.52239 0.0
H573 H 0.32852 0.19889 0.49892 0.0
H574 H 0.3595 0.18015 0.52214 0.0
H575 H 0.37361 0.22424 0.47124 0.0
H576 H 0.36997 0.2455 0.45157 0.0
H577 H 0.31914 0.20502 0.43223 0.0
H578 H 0.32309 0.18382 0.45155 0.0
H579 H 0.32371 0.14003 0.4517 0.0
H580 H 0.31977 0.11499 0.43214 0.0
H581 H 0.37112 0.12613 0.44997 0.0
H582 H 0.37483 0.15106 0.46985 0.0
H583 H 0.34664 0.17373 0.44786 0.0
H584 H 0.33218 0.12953 0.49759 0.0
H585 H 0.33271 0.10846 0.52108 0.0
H586 H 0.38138 0.14844 0.54593 0.0
H587 H 0.38132 0.16937 0.52177 0.0
C588 C 0.35436 0.20517 0.50829 0.0
C589 C 0.36826 0.2155 0.52142 0.0
C590 C 0.36716 0.22699 0.53509 0.0
C591 C 0.35208 0.22831 0.53597 0.0
C592 C 0.33843 0.2184 0.52229 0.0
C593 C 0.33953 0.2069 0.50866 0.0
C594 C 0.35461 0.1914 0.49574 0.0
C595 C 0.35717 0.17897 0.50577 0.0
C596 C 0.35086 0.18952 0.47458 0.0
C597 C 0.34859 0.20248 0.46292 0.0
C598 C 0.36167 0.21999 0.46282 0.0
C599 C 0.35953 0.23213 0.45161 0.0
C600 C 0.34425 0.22698 0.4403 0.0
C601 C 0.33119 0.2094 0.44047 0.0
C602 C 0.33338 0.19727 0.45158 0.0
C603 C 0.34952 0.14736 0.46233 0.0
C604 C 0.33415 0.13712 0.45132 0.0
C605 C 0.33195 0.12284 0.44006 0.0
C606 C 0.34514 0.11855 0.43942 0.0
C607 C 0.3606 0.12892 0.45036 0.0
C608 C 0.36277 0.1432 0.46169 0.0
C609 C 0.3516 0.16244 0.47428 0.0
C610 C 0.34939 0.17508 0.46414 0.0
C611 C 0.35558 0.16441 0.49543 0.0
C612 C 0.35682 0.15105 0.5077 0.0
C613 C 0.3433 0.13367 0.50752 0.0
C614 C 0.34355 0.12164 0.52102 0.0
C615 C 0.35707 0.12691 0.53527 0.0
C616 C 0.3708 0.14413 0.53509 0.0
C617 C 0.37074 0.15606 0.52133 0.0
H618 H 0.78288 0.16364 0.51759 0.0
H619 H 0.76209 0.14104 0.54049 0.0
H620 H 0.78 0.10662 0.51979 0.0
H621 H 0.80124 0.12945 0.49779 0.0
H622 H 0.81719 0.17878 0.52093 0.0
H623 H 0.77759 0.15068 0.46301 0.0
H624 H 0.75752 0.12504 0.44283 0.0
H625 H 0.79714 0.11097 0.43683 0.0
H626 H 0.81737 0.1369 0.45641 0.0
H627 H 0.86151 0.18407 0.45446 0.0
H628 H 0.88689 0.20533 0.43544 0.0
H629 H 0.87428 0.24495 0.45063 0.0
H630 H 0.84895 0.22358 0.4699 0.0
H631 H 0.82819 0.17271 0.44789 0.0
H632 H 0.86918 0.20289 0.50085 0.0
H633 H 0.88877 0.22478 0.52526 0.0
H634 H 0.84716 0.23295 0.54504 0.0
H635 H 0.82771 0.21151 0.52007 0.0
C636 C 0.79352 0.14821 0.5058 0.0
C637 C 0.78215 0.15113 0.51782 0.0
C638 C 0.7702 0.13816 0.53079 0.0
C639 C 0.76945 0.12204 0.53206 0.0
C640 C 0.78039 0.11895 0.51939 0.0
C641 C 0.79238 0.13193 0.50653 0.0
C642 C 0.80776 0.16263 0.49416 0.0
C643 C 0.81939 0.17774 0.5048 0.0
C644 C 0.81095 0.16093 0.47337 0.0
C645 C 0.79889 0.1456 0.46117 0.0
C646 C 0.78195 0.14212 0.45723 0.0
C647 C 0.77057 0.12758 0.44572 0.0
C648 C 0.77591 0.11619 0.43839 0.0
C649 C 0.79283 0.11964 0.44239 0.0
C650 C 0.80434 0.13439 0.45348 0.0
C651 C 0.85337 0.20225 0.46366 0.0
C652 C 0.86421 0.19734 0.45368 0.0
C653 C 0.87867 0.20949 0.44273 0.0
C654 C 0.88257 0.22682 0.44141 0.0
C655 C 0.87175 0.23175 0.45154 0.0
C656 C 0.85726 0.21956 0.46254 0.0
C657 C 0.83775 0.18903 0.47466 0.0
C658 C 0.82587 0.17409 0.46389 0.0
C659 C 0.83445 0.19093 0.49543 0.0
C660 C 0.84697 0.20564 0.5084 0.0
C661 C 0.86439 0.20978 0.5099 0.0
C662 C 0.87557 0.22223 0.52394 0.0
C663 C 0.86944 0.23049 0.53705 0.0
C664 C 0.85217 0.22668 0.53519 0.0
C665 C 0.84108 0.21445 0.52093 0.0
H666 H 0.95933 0.50864 0.17853 0.0
H667 H 0.958 0.53001 0.15642 0.0
H668 H 0.01395 0.56208 0.15985 0.0
H669 H 0.01489 0.54109 0.1829 0.0
H670 H 0.98053 0.49284 0.16817 0.0
H671 H 0.97225 0.52552 0.22047 0.0
H672 H 0.97783 0.55094 0.24043 0.0
H673 H 0.02857 0.55935 0.25655 0.0
H674 H 0.02315 0.53425 0.23581 0.0
H675 H 0.01969 0.48739 0.23519 0.0
H676 H 0.02194 0.4656 0.25541 0.0
H677 H 0.96838 0.42834 0.24149 0.0
H678 H 0.96637 0.45016 0.22094 0.0
H679 H -0.00068 0.50103 0.24068 0.0
H680 H 0.00786 0.46808 0.18999 0.0
H681 H 0.00474 0.44523 0.16665 0.0
H682 H 0.95589 0.43855 0.14539 0.0
H683 H 0.95856 0.46083 0.16942 0.0
C684 C 0.98719 0.52336 0.18233 0.0
C685 C 0.97123 0.52044 0.17471 0.0
C686 C 0.97055 0.53262 0.16192 0.0
C687 C 0.98588 0.54778 0.15609 0.0
C688 C 0.00182 0.55077 0.1642 0.0
C689 C 0.00243 0.53873 0.1773 0.0
C690 C 0.98808 0.50976 0.19425 0.0
C691 C 0.98427 0.49437 0.18417 0.0
C692 C 0.99374 0.51232 0.21478 0.0
C693 C 0.99736 0.52809 0.22642 0.0
C694 C 0.9847 0.53301 0.22799 0.0
C695 C 0.98783 0.54743 0.23966 0.0
C696 C 0.00362 0.55715 0.25019 0.0
C697 C 0.01634 0.55227 0.24847 0.0
C698 C 0.01321 0.53785 0.23674 0.0
C699 C 0.9929 0.47036 0.22647 0.0
C700 C 0.00844 0.47451 0.23649 0.0
C701 C 0.00967 0.46206 0.24814 0.0
C702 C 0.99532 0.44523 0.25016 0.0
C703 C 0.97976 0.4411 0.24004 0.0
C704 C 0.97857 0.45356 0.22831 0.0
C705 C 0.99156 0.48382 0.21469 0.0
C706 C 0.9954 0.49929 0.22474 0.0
C707 C 0.98609 0.48137 0.194 0.0
C708 C 0.98336 0.46614 0.18169 0.0
C709 C 0.99616 0.46131 0.18089 0.0
C710 C 0.99444 0.44831 0.16746 0.0
C711 C 0.9801 0.4402 0.15424 0.0
C712 C 0.9671 0.44468 0.15539 0.0
C713 C 0.96864 0.45742 0.16909 0.0
H714 H 0.49672 0.45437 0.16789 0.0
H715 H 0.47446 0.43372 0.14464 0.0
H716 H 0.43846 0.44888 0.16762 0.0
H717 H 0.46104 0.47011 0.19001 0.0
H718 H 0.51143 0.48791 0.16695 0.0
H719 H 0.47826 0.44481 0.21629 0.0
H720 H 0.45291 0.42428 0.23584 0.0
H721 H 0.44811 0.46679 0.26039 0.0
H722 H 0.47264 0.48706 0.2396 0.0
H723 H 0.51494 0.53017 0.2345 0.0
H724 H 0.53575 0.55571 0.25373 0.0
H725 H 0.57632 0.54435 0.23877 0.0
H726 H 0.55541 0.51889 0.21933 0.0
H727 H 0.50435 0.49668 0.24042 0.0
H728 H 0.53303 0.53826 0.18639 0.0
H729 H 0.55565 0.55843 0.1632 0.0
H730 H 0.56893 0.51915 0.14869 0.0
H731 H 0.54605 0.49896 0.17174 0.0
C732 C 0.48056 0.46375 0.18081 0.0
C733 C 0.48399 0.45316 0.168 0.0
C734 C 0.47118 0.44124 0.15482 0.0
C735 C 0.45465 0.43965 0.15418 0.0
C736 C 0.45111 0.44992 0.16748 0.0
C737 C 0.46396 0.46192 0.18053 0.0
C738 C 0.49469 0.47763 0.19322 0.0
C739 C 0.51001 0.48958 0.18315 0.0
C740 C 0.49268 0.48009 0.21424 0.0
C741 C 0.47728 0.4675 0.22623 0.0
C742 C 0.47155 0.44968 0.22559 0.0
C743 C 0.45718 0.43796 0.23707 0.0
C744 C 0.44841 0.44382 0.2498 0.0
C745 C 0.45429 0.46171 0.25053 0.0
C746 C 0.4685 0.47338 0.23881 0.0
C747 C 0.53364 0.52268 0.22537 0.0
C748 C 0.52832 0.53317 0.23539 0.0
C749 C 0.54022 0.54773 0.24646 0.0
C750 C 0.5577 0.55207 0.24784 0.0
C751 C 0.563 0.54152 0.23778 0.0
C752 C 0.55107 0.52695 0.22668 0.0
C753 C 0.52075 0.50709 0.21398 0.0
C754 C 0.50576 0.4948 0.22429 0.0
C755 C 0.52299 0.50433 0.19317 0.0
C756 C 0.53794 0.51715 0.1809 0.0
C757 C 0.54105 0.53411 0.17853 0.0
C758 C 0.55402 0.54564 0.16526 0.0
C759 C 0.5641 0.5404 0.15402 0.0
C760 C 0.56125 0.52353 0.15688 0.0
C761 C 0.54826 0.51201 0.17013 0.0
H762 H 0.54411 0.04249 0.17082 0.0
H763 H 0.56538 0.04155 0.14797 0.0
H764 H 0.55252 0.99154 0.17266 0.0
H765 H 0.53084 0.99225 0.19483 0.0
H766 H 0.51004 0.02078 0.16944 0.0
H767 H 0.5539 0.0374 0.22185 0.0
H768 H 0.57553 0.0348 0.24213 0.0
H769 H 0.53606 0.98354 0.26136 0.0
H770 H 0.51448 0.98645 0.24144 0.0
H771 H 0.46953 0.98529 0.24026 0.0
H772 H 0.44416 0.98131 0.25923 0.0
H773 H 0.45396 0.03148 0.2385 0.0
H774 H 0.47915 0.0352 0.21924 0.0
H775 H 0.50306 0.00907 0.24399 0.0
H776 H 0.45996 0.99033 0.1923 0.0
H777 H 0.43785 0.98869 0.16887 0.0
H778 H 0.47444 0.03955 0.14552 0.0
H779 H 0.49632 0.04136 0.16956 0.0
C780 C 0.53594 0.0175 0.18464 0.0
C781 C 0.54603 0.03142 0.17146 0.0
C782 C 0.55827 0.03091 0.15851 0.0
C783 C 0.5606 0.01643 0.15841 0.0
C784 C 0.5509 0.00279 0.17216 0.0
C785 C 0.53864 0.00328 0.18505 0.0
C786 C 0.52153 0.01709 0.19654 0.0
C787 C 0.50873 0.01868 0.18585 0.0
C788 C 0.51945 0.01359 0.21777 0.0
C789 C 0.53261 0.01208 0.23005 0.0
C790 C 0.54995 0.0256 0.23041 0.0
C791 C 0.5623 0.02406 0.24197 0.0
C792 C 0.55755 0.00894 0.25338 0.0
C793 C 0.54013 0.99547 0.25305 0.0
C794 C 0.52778 0.99707 0.24158 0.0
C795 C 0.47616 0.01049 0.22825 0.0
C796 C 0.46621 0.99544 0.23984 0.0
C797 C 0.45175 0.99322 0.25075 0.0
C798 C 0.44702 0.00609 0.25043 0.0
C799 C 0.45707 0.02119 0.23884 0.0
C800 C 0.4715 0.02337 0.22786 0.0
C801 C 0.49159 0.0128 0.21687 0.0
C802 C 0.50453 0.01153 0.22765 0.0
C803 C 0.49367 0.01632 0.19564 0.0
C804 C 0.47976 0.01604 0.18283 0.0
C805 C 0.4631 0.00131 0.1825 0.0
C806 C 0.45053 0.0003 0.16891 0.0
C807 C 0.45441 0.01394 0.15522 0.0
C808 C 0.47095 0.02889 0.15599 0.0
C809 C 0.48352 0.0299 0.16963 0.0
H810 H 0.48386 0.01172 0.85807 0.0
H811 H 0.46211 0.01229 0.88012 0.0
H812 H 0.42215 0.9656 0.85116 0.0
H813 H 0.44422 0.96482 0.82946 0.0
H814 H 0.49356 0.98845 0.85702 0.0
H815 H 0.47223 0.01303 0.80887 0.0
H816 H 0.45117 0.01625 0.78818 0.0
H817 H 0.4352 0.96679 0.75946 0.0
H818 H 0.45622 0.96355 0.78046 0.0
H819 H 0.50685 0.96382 0.78127 0.0
H820 H 0.53141 0.96716 0.76072 0.0
H821 H 0.56416 0.01758 0.78779 0.0
H822 H 0.53959 0.01422 0.80814 0.0
H823 H 0.49219 0.98555 0.78124 0.0
H824 H 0.52064 0.96634 0.82936 0.0
H825 H 0.54376 0.96791 0.85115 0.0
H826 H 0.54873 0.01372 0.88043 0.0
H827 H 0.52625 0.01247 0.85815 0.0
C828 C 0.46568 0.98824 0.8421 0.0
C829 C 0.47041 0.00163 0.85639 0.0
C830 C 0.45791 0.00203 0.86887 0.0
C831 C 0.44036 0.98901 0.86737 0.0
C832 C 0.43558 0.97573 0.8528 0.0
C833 C 0.44814 0.97536 0.84027 0.0
C834 C 0.47934 0.98744 0.82995 0.0
C835 C 0.49332 0.98795 0.84043 0.0
C836 C 0.47888 0.98645 0.80836 0.0
C837 C 0.46563 0.98796 0.79634 0.0
C838 C 0.46405 0.00279 0.79828 0.0
C839 C 0.45215 0.00469 0.78632 0.0
C840 C 0.44159 0.99179 0.77217 0.0
C841 C 0.44307 0.97687 0.77036 0.0
C842 C 0.4551 0.97503 0.78226 0.0
C843 C 0.52147 0.9887 0.79633 0.0
C844 C 0.51935 0.97556 0.78278 0.0
C845 C 0.53338 0.97744 0.77115 0.0
C846 C 0.54968 0.99264 0.77266 0.0
C847 C 0.55172 0.0058 0.78618 0.0
C848 C 0.53774 0.00384 0.79793 0.0
C849 C 0.50657 0.98693 0.80835 0.0
C850 C 0.4923 0.9858 0.79784 0.0
C851 C 0.50706 0.98796 0.82994 0.0
C852 C 0.52176 0.98932 0.84208 0.0
C853 C 0.52697 0.97689 0.84022 0.0
C854 C 0.54005 0.97771 0.85283 0.0
C855 C 0.54811 0.99094 0.86756 0.0
C856 C 0.54304 0.00352 0.86906 0.0
C857 C 0.53004 0.00272 0.85645 0.0
H858 H 0.03992 0.54177 0.85599 0.0
H859 H 0.03854 0.56256 0.87924 0.0
H860 H 0.98758 0.54799 0.85592 0.0
H861 H 0.9888 0.52681 0.83328 0.0
H862 H 0.01887 0.50724 0.85656 0.0
H863 H 0.03216 0.55306 0.80834 0.0
H864 H 0.02748 0.57388 0.78931 0.0
H865 H 0.98107 0.53159 0.76249 0.0
H866 H 0.98515 0.51102 0.78267 0.0
H867 H 0.98451 0.4681 0.78544 0.0
H868 H 0.98125 0.44377 0.76497 0.0
H869 H 0.03292 0.45572 0.78264 0.0
H870 H 0.03576 0.4797 0.80372 0.0
H871 H 0.00819 0.50237 0.7818 0.0
H872 H 0.99037 0.4577 0.83062 0.0
H873 H 0.98903 0.43518 0.85293 0.0
H874 H 0.0383 0.4724 0.87966 0.0
H875 H 0.04 0.49466 0.85646 0.0
C876 C 0.01452 0.53281 0.8428 0.0
C877 C 0.02851 0.54316 0.8558 0.0
C878 C 0.02775 0.55514 0.86897 0.0
C879 C 0.01293 0.55692 0.86947 0.0
C880 C -0.00089 0.5468 0.85608 0.0
C881 C -0.00014 0.53481 0.84296 0.0
C882 C 0.01477 0.51911 0.83013 0.0
C883 C 0.01696 0.5064 0.84012 0.0
C884 C 0.01148 0.51762 0.80881 0.0
C885 C 0.0089 0.53045 0.79717 0.0
C886 C 0.02082 0.5483 0.79864 0.0
C887 C 0.01825 0.5602 0.78748 0.0
C888 C 0.00387 0.55447 0.77432 0.0
C889 C 0.9921 0.53656 0.77274 0.0
C890 C 0.99454 0.52472 0.7841 0.0
C891 C 0.01035 0.47566 0.79612 0.0
C892 C 0.99512 0.46545 0.78489 0.0
C893 C 0.99334 0.4516 0.77308 0.0
C894 C 0.00687 0.4478 0.77199 0.0
C895 C 0.02214 0.45809 0.78331 0.0
C896 C 0.02383 0.47186 0.79531 0.0
C897 C 0.01215 0.4905 0.80829 0.0
C898 C 0.01041 0.50342 0.79819 0.0
C899 C 0.01536 0.49193 0.82958 0.0
C900 C 0.0154 0.47785 0.84165 0.0
C901 C 0.00115 0.46091 0.84083 0.0
C902 C 0.00027 0.44809 0.85385 0.0
C903 C 0.01348 0.45199 0.86825 0.0
C904 C 0.02799 0.46886 0.86863 0.0
C905 C 0.02892 0.48165 0.85547 0.0
H906 H 0.451 0.50217 0.85587 0.0
H907 H 0.4294 0.48139 0.87974 0.0
H908 H 0.43899 0.44146 0.85713 0.0
H909 H 0.4612 0.46239 0.834 0.0
H910 H 0.4835 0.51371 0.85714 0.0
H911 H 0.44073 0.48369 0.80409 0.0
H912 H 0.41974 0.45875 0.78403 0.0
H913 H 0.45981 0.44666 0.76908 0.0
H914 H 0.48073 0.47178 0.7888 0.0
H915 H 0.52558 0.51611 0.78906 0.0
H916 H 0.55084 0.53685 0.76936 0.0
H917 H 0.53984 0.57746 0.78528 0.0
H918 H 0.51471 0.55665 0.80518 0.0
H919 H 0.49207 0.50551 0.78395 0.0
H920 H 0.53431 0.5339 0.83658 0.0
H921 H 0.55532 0.55607 0.85965 0.0
H922 H 0.51697 0.56984 0.87717 0.0
H923 H 0.496 0.54761 0.85405 0.0
C924 C 0.4577 0.48388 0.84297 0.0
C925 C 0.44835 0.4889 0.85587 0.0
C926 C 0.436 0.47705 0.86945 0.0
C927 C 0.43256 0.45988 0.87016 0.0
C928 C 0.44128 0.4546 0.85664 0.0
C929 C 0.4539 0.46655 0.84334 0.0
C930 C 0.47255 0.49715 0.83081 0.0
C931 C 0.48513 0.51211 0.84098 0.0
C932 C 0.47512 0.49475 0.80996 0.0
C933 C 0.46226 0.47954 0.79802 0.0
C934 C 0.44494 0.47561 0.79654 0.0
C935 C 0.43296 0.46132 0.78511 0.0
C936 C 0.43808 0.45068 0.77491 0.0
C937 C 0.45547 0.45471 0.77642 0.0
C938 C 0.46744 0.46903 0.78778 0.0
C939 C 0.51834 0.53486 0.7987 0.0
C940 C 0.52862 0.52949 0.78829 0.0
C941 C 0.54301 0.54134 0.77696 0.0
C942 C 0.54735 0.55882 0.77571 0.0
C943 C 0.53701 0.56416 0.78617 0.0
C944 C 0.52263 0.55228 0.79754 0.0
C945 C 0.50285 0.52208 0.81028 0.0
C946 C 0.49024 0.50724 0.80001 0.0
C947 C 0.50029 0.52453 0.83109 0.0
C948 C 0.5136 0.53917 0.84345 0.0
C949 C 0.53054 0.54195 0.84504 0.0
C950 C 0.54254 0.55463 0.85826 0.0
C951 C 0.5378 0.56469 0.87031 0.0
C952 C 0.52096 0.56216 0.86831 0.0
C953 C 0.50899 0.54952 0.85504 0.0
H954 H 0.61819 0.83264 0.50068 0.0
H955 H 0.62055 0.85478 0.47676 0.0
H956 H 0.6715 0.89061 0.5007 0.0
H957 H 0.66925 0.86824 0.52415 0.0
H958 H 0.63961 0.81913 0.50054 0.0
H959 H 0.62552 0.85204 0.54786 0.0
H960 H 0.63066 0.87796 0.56645 0.0
H961 H 0.67557 0.88052 0.59538 0.0
H962 H 0.67114 0.85553 0.57563 0.0
H963 H 0.67064 0.81558 0.57663 0.0
H964 H 0.67478 0.79517 0.59701 0.0
H965 H 0.62956 0.75254 0.56867 0.0
H966 H 0.62474 0.7732 0.54944 0.0
H967 H 0.6478 0.82414 0.57569 0.0
H968 H 0.66848 0.7992 0.52674 0.0
H969 H 0.67068 0.77833 0.50458 0.0
H970 H 0.62109 0.76455 0.47751 0.0
H971 H 0.61864 0.78489 0.50042 0.0
C972 C 0.64348 0.84882 0.51429 0.0
C973 C 0.62978 0.84533 0.50091 0.0
C974 C 0.63111 0.85804 0.48735 0.0
C975 C 0.64624 0.87445 0.48679 0.0
C976 C 0.65976 0.87804 0.50059 0.0
C977 C 0.65841 0.86533 0.51416 0.0
C978 C 0.64278 0.83476 0.52707 0.0
C979 C 0.64103 0.82003 0.51705 0.0
C980 C 0.64542 0.83638 0.5485 0.0
C981 C 0.64806 0.8519 0.56009 0.0
C982 C 0.63664 0.85836 0.55795 0.0
C983 C 0.63947 0.87308 0.56885 0.0
C984 C 0.65359 0.88146 0.58244 0.0
C985 C 0.66479 0.87473 0.58478 0.0
C986 C 0.66212 0.86022 0.57366 0.0
C987 C 0.64745 0.79597 0.56132 0.0
C988 C 0.66147 0.80184 0.57496 0.0
C989 C 0.66397 0.7901 0.58643 0.0
C990 C 0.65263 0.77213 0.58438 0.0
C991 C 0.63848 0.76626 0.57084 0.0
C992 C 0.63583 0.77807 0.55958 0.0
C993 C 0.64516 0.80873 0.54909 0.0
C994 C 0.64616 0.82312 0.55921 0.0
C995 C 0.64263 0.80721 0.52763 0.0
C996 C 0.6433 0.79349 0.51542 0.0
C997 C 0.65789 0.79138 0.51639 0.0
C998 C 0.65922 0.77959 0.5035 0.0
C999 C 0.64611 0.76981 0.48914 0.0
C1000 C 0.63133 0.77167 0.48854 0.0
C1001 C 0.62996 0.78341 0.50152 0.0
H1002 H 0.16499 0.78646 0.50415 0.0
H1003 H 0.14249 0.7658 0.4811 0.0
H1004 H 0.10533 0.77721 0.50913 0.0
H1005 H 0.12807 0.79853 0.53118 0.0
H1006 H 0.17758 0.82003 0.50461 0.0
H1007 H 0.14947 0.77518 0.55584 0.0
H1008 H 0.12489 0.75357 0.57588 0.0
H1009 H 0.11492 0.79363 0.59746 0.0
H1010 H 0.13957 0.81511 0.57765 0.0
H1011 H 0.18134 0.85902 0.57592 0.0
H1012 H 0.20204 0.88489 0.59474 0.0
H1013 H 0.244 0.87764 0.57365 0.0
H1014 H 0.22319 0.85186 0.55461 0.0
H1015 H 0.17296 0.82605 0.5794 0.0
H1016 H 0.19659 0.8696 0.52802 0.0
H1017 H 0.21714 0.8921 0.50502 0.0
H1018 H 0.23233 0.8564 0.48121 0.0
H1019 H 0.21222 0.83414 0.50488 0.0
C1020 C 0.14824 0.79398 0.51955 0.0
C1021 C 0.15195 0.78439 0.50543 0.0
C1022 C 0.13901 0.77246 0.49237 0.0
C1023 C 0.12208 0.76988 0.49315 0.0
C1024 C 0.11828 0.77904 0.50786 0.0
C1025 C 0.13124 0.79108 0.52074 0.0
C1026 C 0.1624 0.80813 0.53165 0.0
C1027 C 0.1768 0.8211 0.52107 0.0
C1028 C 0.16107 0.80992 0.55299 0.0
C1029 C 0.1463 0.79673 0.5652 0.0
C1030 C 0.14195 0.77926 0.56487 0.0
C1031 C 0.12787 0.76693 0.57629 0.0
C1032 C 0.11795 0.77188 0.5883 0.0
C1033 C 0.12245 0.78942 0.58867 0.0
C1034 C 0.13651 0.80172 0.57729 0.0
C1035 C 0.20074 0.85357 0.56377 0.0
C1036 C 0.195 0.86297 0.57542 0.0
C1037 C 0.20685 0.87772 0.58624 0.0
C1038 C 0.22469 0.88334 0.58573 0.0
C1039 C 0.23039 0.87382 0.57413 0.0
C1040 C 0.21851 0.85906 0.56327 0.0
C1041 C 0.188 0.83796 0.55231 0.0
C1042 C 0.17393 0.82475 0.56302 0.0
C1043 C 0.18946 0.83612 0.53102 0.0
C1044 C 0.203 0.85023 0.51834 0.0
C1045 C 0.20465 0.86674 0.51821 0.0
C1046 C 0.21625 0.87953 0.50485 0.0
C1047 C 0.22632 0.87603 0.49117 0.0
C1048 C 0.22494 0.85961 0.49169 0.0
C1049 C 0.21336 0.84682 0.50511 0.0
H1050 H 0.13797 0.31832 0.50093 0.0
H1051 H 0.11718 0.31782 0.47637 0.0
H1052 H 0.12729 0.36782 0.49846 0.0
H1053 H 0.14761 0.36777 0.52375 0.0
H1054 H 0.17331 0.34519 0.50079 0.0
H1055 H 0.12392 0.31762 0.54324 0.0
H1056 H 0.09816 0.31294 0.56182 0.0
H1057 H 0.12991 0.35819 0.59886 0.0
H1058 H 0.15573 0.36305 0.57986 0.0
H1059 H 0.20396 0.36412 0.5826 0.0
H1060 H 0.22536 0.36116 0.60322 0.0
H1061 H 0.21665 0.31714 0.56664 0.0
H1062 H 0.19492 0.31971 0.54661 0.0
H1063 H 0.1702 0.34314 0.57654 0.0
H1064 H 0.22115 0.36746 0.53081 0.0
H1065 H 0.24405 0.3671 0.5102 0.0
H1066 H 0.20518 0.32107 0.47907 0.0
H1067 H 0.18262 0.3213 0.49986 0.0
C1068 C 0.14434 0.3431 0.51405 0.0
C1069 C 0.13551 0.32905 0.50065 0.0
C1070 C 0.12375 0.32889 0.48649 0.0
C1071 C 0.12081 0.34296 0.4851 0.0
C1072 C 0.12917 0.35674 0.49914 0.0
C1073 C 0.14083 0.35678 0.51356 0.0
C1074 C 0.15829 0.34395 0.52714 0.0
C1075 C 0.17266 0.34474 0.51738 0.0
C1076 C 0.15739 0.3435 0.54873 0.0
C1077 C 0.14173 0.34095 0.5598 0.0
C1078 C 0.12533 0.32678 0.55504 0.0
C1079 C 0.11061 0.32405 0.56575 0.0
C1080 C 0.11202 0.33526 0.5817 0.0
C1081 C 0.12846 0.34929 0.5867 0.0
C1082 C 0.14319 0.35212 0.57582 0.0
C1083 C 0.19813 0.34241 0.56272 0.0
C1084 C 0.20662 0.3538 0.57909 0.0
C1085 C 0.21879 0.35209 0.59086 0.0
C1086 C 0.22276 0.33905 0.58634 0.0
C1087 C 0.21405 0.3275 0.57019 0.0
C1088 C 0.20171 0.32903 0.55868 0.0
C1089 C 0.18524 0.34419 0.55016 0.0
C1090 C 0.17109 0.34401 0.55999 0.0
C1091 C 0.18604 0.34467 0.52852 0.0
C1092 C 0.20019 0.34439 0.51688 0.0
C1093 C 0.21765 0.35721 0.51969 0.0
C1094 C 0.23069 0.35705 0.50784 0.0
C1095 C 0.22644 0.34401 0.49308 0.0
C1096 C 0.20895 0.33112 0.49053 0.0
C1097 C 0.196 0.33133 0.50227 0.0
H1098 H 0.97606 0.35608 0.08201 0.0
H1099 H 0.97566 0.44218 0.1134 0.0
H1100 H 0.99676 0.40113 0.04303 0.0
H1101 H 0.98348 0.41141 0.15837 0.0
H1102 H 0.97665 0.42362 0.08635 0.0
H1103 H 0.97222 0.37288 0.10935 0.0
C1104 C 0.97964 0.36944 0.07917 0.0
C1105 C 0.98678 0.37729 0.06032 0.0
C1106 C 0.97803 0.42088 0.10216 0.0
C1107 C 0.98221 0.39633 0.09119 0.0
C1108 C 0.97736 0.43136 0.11756 0.0
C1109 C 0.9795 0.42827 0.13808 0.0
C1110 C 0.98055 0.40703 0.10734 0.0
C1111 C 0.98186 0.41422 0.14269 0.0
C1112 C 0.97753 0.37899 0.09475 0.0
C1113 C 0.99129 0.39464 0.0574 0.0
N1114 N 0.98225 0.40403 0.12741 0.0
N1115 N 0.98884 0.40356 0.07264 0.0
H1116 H 0.63059 0.63086 0.08243 0.0
H1117 H 0.57063 0.5321 0.11585 0.0
H1118 H 0.61931 0.58772 0.04276 0.0
H1119 H 0.58636 0.57556 0.15673 0.0
H1120 H 0.58979 0.55195 0.0896 0.0
H1121 H 0.61581 0.61063 0.11035 0.0
C1122 C 0.6251 0.6171 0.07964 0.0
C1123 C 0.62607 0.61094 0.06021 0.0
C1124 C 0.58916 0.55713 0.10437 0.0
C1125 C 0.60897 0.58764 0.09214 0.0
C1126 C 0.57829 0.54578 0.11944 0.0
C1127 C 0.57677 0.55216 0.13854 0.0
C1128 C 0.59854 0.57502 0.10835 0.0
C1129 C 0.58685 0.57008 0.14213 0.0
C1130 C 0.61666 0.60555 0.09561 0.0
C1131 C 0.6188 0.593 0.0575 0.0
N1132 N 0.5972 0.58087 0.12715 0.0
N1133 N 0.61041 0.58195 0.07325 0.0
H1134 H 0.39202 0.03145 0.06647 0.0
H1135 H 0.43323 0.98525 0.13237 0.0
H1136 H 0.38087 0.97894 0.05678 0.0
H1137 H 0.44669 0.03853 0.14159 0.0
H1138 H 0.41314 0.98261 0.10548 0.0
H1139 H 0.41156 0.03435 0.09456 0.0
C1140 C 0.3937 0.02056 0.07024 0.0
C1141 C 0.38484 0.00495 0.05927 0.0
C1142 C 0.42043 0.99488 0.11339 0.0
C1143 C 0.40706 0.00812 0.09135 0.0
C1144 C 0.43182 0.99636 0.12891 0.0
C1145 C 0.44164 0.01212 0.13935 0.0
C1146 C 0.41879 0.00927 0.10817 0.0
C1147 C 0.43951 0.02618 0.13382 0.0
C1148 C 0.40483 0.02221 0.08627 0.0
C1149 C 0.38746 0.99123 0.0648 0.0
N1150 N 0.42832 0.02442 0.11861 0.0
N1151 N 0.3983 0.99314 0.08043 0.0
H1152 H 0.39319 0.02147 0.95889 0.0
H1153 H 0.4135 0.96132 0.88712 0.0
H1154 H 0.36242 0.9656 0.9598 0.0
H1155 H 0.43769 0.01684 0.88032 0.0
H1156 H 0.39415 0.96223 0.91307 0.0
H1157 H 0.40944 0.01975 0.92987 0.0
C1158 C 0.38984 0.00882 0.95294 0.0
C1159 C 0.37649 0.99365 0.96182 0.0
C1160 C 0.40361 0.97418 0.90577 0.0
C1161 C 0.39511 0.99156 0.92854 0.0
C1162 C 0.41459 0.97367 0.89086 0.0
C1163 C 0.42737 0.98905 0.88164 0.0
C1164 C 0.40546 0.99021 0.91158 0.0
C1165 C 0.42829 0.0047 0.8873 0.0
C1166 C 0.39909 0.00784 0.93631 0.0
C1167 C 0.37264 0.97761 0.95341 0.0
N1168 N 0.4176 0.00488 0.90198 0.0
N1169 N 0.382 0.97697 0.9373 0.0
H1170 H 0.03171 0.39412 0.9622 0.0
H1171 H 0.98394 0.42856 0.88834 0.0
H1172 H 0.97637 0.37393 0.96159 0.0
H1173 H 0.03862 0.44577 0.88381 0.0
H1174 H 0.98108 0.40816 0.91484 0.0
H1175 H 0.03475 0.41304 0.93339 0.0
C1176 C 0.02021 0.39364 0.95597 0.0
C1177 C 0.00377 0.38249 0.96432 0.0
C1178 C 0.9937 0.41632 0.908 0.0
C1179 C 0.00714 0.40406 0.93147 0.0
C1180 C 0.99533 0.42791 0.8927 0.0
C1181 C 0.01155 0.43891 0.88371 0.0
C1182 C 0.00841 0.41573 0.91456 0.0
C1183 C 0.0259 0.4377 0.89044 0.0
C1184 C 0.02195 0.40441 0.93953 0.0
C1185 C 0.9893 0.38236 0.95565 0.0
N1186 N 0.02401 0.42637 0.90551 0.0
N1187 N 0.99133 0.39301 0.93977 0.0
H1188 H 0.5863 0.61658 0.98381 0.0
H1189 H 0.57281 0.58724 0.86622 0.0
H1190 H 0.62809 0.63365 0.94016 0.0
H1191 H 0.53078 0.57023 0.90954 0.0
H1192 H 0.59302 0.60593 0.89258 0.0
H1193 H 0.56547 0.60131 0.95626 0.0
C1194 C 0.59107 0.61726 0.9684 0.0
C1195 C 0.60894 0.62631 0.96428 0.0
C1196 C 0.57936 0.5982 0.8963 0.0
C1197 C 0.58524 0.6088 0.93273 0.0
C1198 C 0.56782 0.58746 0.88126 0.0
C1199 C 0.55008 0.57708 0.88568 0.0
C1200 C 0.57315 0.59852 0.91597 0.0
C1201 C 0.54432 0.57812 0.90537 0.0
C1202 C 0.57919 0.60851 0.95268 0.0
C1203 C 0.61442 0.62676 0.94404 0.0
N1204 N 0.55583 0.58855 0.91981 0.0
N1205 N 0.60263 0.61804 0.92906 0.0
H1206 H 0.9766 0.59764 0.96521 0.0
H1207 H 0.03807 0.58959 0.88174 0.0
H1208 H 0.02998 0.63742 0.95592 0.0
H1209 H 0.98455 0.55063 0.89219 0.0
H1210 H 0.03552 0.60771 0.90815 0.0
H1211 H 0.97939 0.5807 0.93778 0.0
C1212 C 0.98894 0.60282 0.95737 0.0
C1213 C 0.0031 0.61895 0.96289 0.0
C1214 C 0.02432 0.59523 0.90458 0.0
C1215 C 0.00641 0.59955 0.93134 0.0
C1216 C 0.02579 0.58484 0.88956 0.0
C1217 C 0.0115 0.56855 0.8847 0.0
C1218 C 0.00847 0.58925 0.91486 0.0
C1219 C 0.99584 0.56318 0.89517 0.0
C1220 C 0.99052 0.59313 0.94167 0.0
C1221 C 0.01875 0.62502 0.95216 0.0
N1222 N 0.99478 0.57346 0.90976 0.0
N1223 N 0.02001 0.61529 0.93689 0.0
H1224 H 0.3999 0.40291 0.98222 0.0
H1225 H 0.40451 0.42718 0.8657 0.0
H1226 H 0.35356 0.37901 0.94516 0.0
H1227 H 0.43521 0.46553 0.91115 0.0
H1228 H 0.3872 0.40711 0.89329 0.0
H1229 H 0.415 0.42401 0.95492 0.0
C1230 C 0.39292 0.40215 0.96833 0.0
C1231 C 0.37549 0.38927 0.96588 0.0
C1232 C 0.39762 0.41999 0.89713 0.0
C1233 C 0.39272 0.41308 0.93458 0.0
C1234 C 0.40749 0.43136 0.88148 0.0
C1235 C 0.42119 0.44798 0.88626 0.0
C1236 C 0.40187 0.42519 0.9176 0.0
C1237 C 0.42463 0.45286 0.90689 0.0
C1238 C 0.4015 0.4142 0.95284 0.0
C1239 C 0.367 0.38884 0.94762 0.0
N1240 N 0.41517 0.44142 0.92184 0.0
N1241 N 0.37577 0.40047 0.9325 0.0
H1242 H 0.62445 0.02372 0.96308 0.0
H1243 H 0.54796 0.96343 0.88671 0.0
H1244 H 0.60399 0.96849 0.95887 0.0
H1245 H 0.57784 0.01923 0.88174 0.0
H1246 H 0.56797 0.96466 0.91313 0.0
H1247 H 0.60673 0.02205 0.93379 0.0
C1248 C 0.61621 0.01122 0.95597 0.0
C1249 C 0.61562 0.9962 0.96344 0.0
C1250 C 0.57021 0.97661 0.90612 0.0
C1251 C 0.59526 0.99419 0.92989 0.0
C1252 C 0.55886 0.97592 0.89093 0.0
C1253 C 0.56111 0.99127 0.88208 0.0
C1254 C 0.58383 0.99276 0.91263 0.0
C1255 C 0.57535 0.00709 0.88841 0.0
C1256 C 0.60615 0.01029 0.93918 0.0
C1257 C 0.60479 0.98038 0.95358 0.0
N1258 N 0.58606 0.00743 0.9034 0.0
N1259 N 0.59492 0.97975 0.93736 0.0
H1260 H 0.59906 0.9797 0.06082 0.0
H1261 H 0.5928 0.04174 0.14491 0.0
H1262 H 0.63918 0.03306 0.06916 0.0
H1263 H 0.55439 0.98775 0.13646 0.0
H1264 H 0.61043 0.03905 0.11791 0.0
H1265 H 0.583 0.98261 0.08919 0.0
C1266 C 0.60451 0.99206 0.06866 0.0
C1267 C 0.62046 0.00618 0.06259 0.0
C1268 C 0.59819 0.02779 0.12208 0.0
C1269 C 0.60206 0.00964 0.09521 0.0
C1270 C 0.58809 0.02932 0.13743 0.0
C1271 C 0.57208 0.01494 0.14302 0.0
C1272 C 0.59219 0.01178 0.11217 0.0
C1273 C 0.56673 0.99913 0.13294 0.0
C1274 C 0.59533 0.99371 0.08491 0.0
C1275 C 0.6269 0.02186 0.07335 0.0
N1276 N 0.57672 0.99801 0.118 0.0
N1277 N 0.61764 0.02319 0.08914 0.0
H1278 H 0.01853 0.63095 0.06957 0.0
H1279 H 0.96397 0.53998 0.12307 0.0
H1280 H 0.96406 0.59764 0.05653 0.0
H1281 H 0.00681 0.58334 0.15371 0.0
H1282 H 0.96465 0.55975 0.0969 0.0
H1283 H 0.01575 0.61241 0.0986 0.0
C1284 C 0.00598 0.61973 0.07285 0.0
C1285 C 0.9915 0.61575 0.06065 0.0
C1286 C 0.97379 0.56491 0.10947 0.0
C1287 C 0.98829 0.59446 0.09361 0.0
C1288 C 0.97336 0.55365 0.12456 0.0
C1289 C 0.9854 0.5599 0.14075 0.0
C1290 C 0.98654 0.5825 0.11028 0.0
C1291 C 0.99752 0.57777 0.14136 0.0
C1292 C 0.00439 0.60923 0.08946 0.0
C1293 C 0.97552 0.60114 0.06561 0.0
N1294 N 0.9979 0.5884 0.12623 0.0
N1295 N 0.97437 0.59087 0.0816 0.0
H1296 H 0.37428 0.39716 0.06185 0.0
H1297 H 0.4473 0.40723 0.14115 0.0
H1298 H 0.39473 0.36235 0.06311 0.0
H1299 H 0.43216 0.4458 0.13205 0.0
H1300 H 0.42662 0.38931 0.11463 0.0
H1301 H 0.39375 0.41372 0.08978 0.0
C1302 C 0.38286 0.39297 0.06805 0.0
C1303 C 0.38294 0.37839 0.06011 0.0
C1304 C 0.4278 0.40167 0.11852 0.0
C1305 C 0.40531 0.39732 0.09215 0.0
C1306 C 0.43965 0.41195 0.13361 0.0
C1307 C 0.44152 0.42809 0.1389 0.0
C1308 C 0.41769 0.40754 0.10868 0.0
C1309 C 0.43102 0.43336 0.12879 0.0
C1310 C 0.394 0.40245 0.08399 0.0
C1311 C 0.3943 0.37355 0.06876 0.0
N1312 N 0.41962 0.42315 0.11419 0.0
N1313 N 0.40506 0.38301 0.08433 0.0
H1314 H 0.68768 0.73099 0.39708 0.0
H1315 H 0.62147 0.73781 0.47432 0.0
H1316 H 0.63262 0.69444 0.39717 0.0
H1317 H 0.67582 0.77629 0.46914 0.0
H1318 H 0.62535 0.72058 0.44786 0.0
H1319 H 0.68366 0.74644 0.42539 0.0
C1320 C 0.67472 0.72618 0.40311 0.0
C1321 C 0.66045 0.71145 0.3947 0.0
C1322 C 0.63643 0.73275 0.45262 0.0
C1323 C 0.65572 0.72914 0.42719 0.0
C1324 C 0.63421 0.74264 0.46767 0.0
C1325 C 0.64833 0.75857 0.47402 0.0
C1326 C 0.65288 0.73882 0.44383 0.0
C1327 C 0.6646 0.76401 0.46503 0.0
C1328 C 0.67243 0.73503 0.41929 0.0
C1329 C 0.64397 0.70578 0.40318 0.0
N1330 N 0.66639 0.75419 0.45039 0.0
N1331 N 0.64204 0.71467 0.41895 0.0
H1332 H 0.26365 0.9522 0.39435 0.0
H1333 H 0.25889 0.88422 0.47781 0.0
H1334 H 0.3035 0.93853 0.40125 0.0
H1335 H 0.21885 0.89738 0.46876 0.0
H1336 H 0.27602 0.9047 0.45077 0.0
H1337 H 0.24768 0.93289 0.4226 0.0
C1338 C 0.26906 0.94513 0.40184 0.0
C1339 C 0.28491 0.94693 0.39542 0.0
C1340 C 0.26352 0.90315 0.45479 0.0
C1341 C 0.26666 0.92475 0.42784 0.0
C1342 C 0.2537 0.89141 0.47016 0.0
C1343 C 0.23739 0.88906 0.4756 0.0
C1344 C 0.25697 0.91257 0.44472 0.0
C1345 C 0.23144 0.89892 0.46534 0.0
C1346 C 0.25993 0.9341 0.41799 0.0
C1347 C 0.2913 0.93748 0.40571 0.0
N1348 N 0.24119 0.91017 0.45039 0.0
N1349 N 0.28214 0.92676 0.4214 0.0
H1350 H 0.05149 0.3603 0.40708 0.0
H1351 H 0.11879 0.33211 0.44553 0.0
H1352 H 0.05949 0.32169 0.37712 0.0
H1353 H 0.09793 0.35539 0.48618 0.0
H1354 H 0.10005 0.33196 0.41842 0.0
H1355 H 0.07142 0.36238 0.43441 0.0
C1356 C 0.05751 0.35235 0.40621 0.0
C1357 C 0.05384 0.34078 0.38987 0.0
C1358 C 0.09953 0.33707 0.43328 0.0
C1359 C 0.07659 0.34318 0.42082 0.0
C1360 C 0.11016 0.33706 0.44886 0.0
C1361 C 0.10975 0.34348 0.46837 0.0
C1362 C 0.08848 0.34373 0.43702 0.0
C1363 C 0.09872 0.35033 0.47141 0.0
C1364 C 0.06879 0.35349 0.42181 0.0
C1365 C 0.06191 0.33073 0.38948 0.0
N1366 N 0.08848 0.35024 0.4559 0.0
N1367 N 0.07293 0.3322 0.40468 0.0
H1368 H 0.05997 0.35633 0.2891 0.0
H1369 H 0.07824 0.29393 0.21867 0.0
H1370 H 0.02861 0.30054 0.29151 0.0
H1371 H 0.10485 0.34964 0.2126 0.0
H1372 H 0.05888 0.29565 0.24404 0.0
H1373 H 0.07577 0.3538 0.26014 0.0
C1374 C 0.05637 0.34352 0.28348 0.0
C1375 C 0.04303 0.32862 0.29279 0.0
C1376 C 0.06887 0.30747 0.23702 0.0
C1377 C 0.06115 0.32559 0.25958 0.0
C1378 C 0.07986 0.30649 0.22245 0.0
C1379 C 0.09332 0.32169 0.21366 0.0
C1380 C 0.0714 0.32376 0.24285 0.0
C1381 C 0.0949 0.33762 0.21927 0.0
C1382 C 0.06538 0.34208 0.26688 0.0
C1383 C 0.03885 0.31236 0.28478 0.0
N1384 N 0.08418 0.33824 0.23359 0.0
N1385 N 0.04798 0.31126 0.2687 0.0
H1386 H 0.69078 0.71325 0.27726 0.0
H1387 H 0.6923 0.79947 0.24296 0.0
H1388 H 0.66774 0.7369 0.31358 0.0
H1389 H 0.68661 0.76105 0.1987 0.0
H1390 H 0.68965 0.77968 0.27053 0.0
H1391 H 0.69548 0.73375 0.2495 0.0
C1392 C 0.68684 0.72284 0.27942 0.0
C1393 C 0.67883 0.72341 0.29766 0.0
C1394 C 0.68907 0.77564 0.25478 0.0
C1395 C 0.68437 0.74687 0.2663 0.0
C1396 C 0.69069 0.78692 0.2391 0.0
C1397 C 0.68967 0.78182 0.21861 0.0
C1398 C 0.68675 0.75928 0.24993 0.0
C1399 C 0.68739 0.76538 0.21435 0.0
C1400 C 0.68944 0.73442 0.26359 0.0
C1401 C 0.67388 0.73599 0.2997 0.0
N1402 N 0.68609 0.75467 0.22992 0.0
N1403 N 0.67684 0.74732 0.28425 0.0
H1404 H 0.28147 0.9304 0.30112 0.0
H1405 H 0.21474 0.92601 0.21591 0.0
H1406 H 0.26974 0.97138 0.29201 0.0
H1407 H 0.22666 0.88536 0.22688 0.0
H1408 H 0.23512 0.94324 0.24307 0.0
H1409 H 0.26179 0.91414 0.27328 0.0
C1410 C 0.27473 0.93598 0.29324 0.0
C1411 C 0.27722 0.95225 0.29891 0.0
C1412 C 0.23331 0.93057 0.23945 0.0
C1413 C 0.2546 0.93367 0.2669 0.0
C1414 C 0.22163 0.92071 0.22401 0.0
C1415 C 0.21899 0.90421 0.21904 0.0
C1416 C 0.24238 0.92387 0.25006 0.0
C1417 C 0.22845 0.8981 0.2299 0.0
C1418 C 0.26349 0.92669 0.27731 0.0
C1419 C 0.26817 0.95886 0.28814 0.0
N1420 N 0.23965 0.90789 0.24488 0.0
N1421 N 0.25723 0.94953 0.27263 0.0
H1422 H 0.70073 0.97183 0.29088 0.0
H1423 H 0.65356 0.88678 0.22086 0.0
H1424 H 0.646 0.93427 0.29381 0.0
H1425 H 0.70739 0.92614 0.21335 0.0
H1426 H 0.65062 0.90446 0.2472 0.0
H1427 H 0.70363 0.9556 0.26232 0.0
C1428 C 0.68933 0.96019 0.28549 0.0
C1429 C 0.67311 0.95434 0.29475 0.0
C1430 C 0.66307 0.9093 0.23974 0.0
C1431 C 0.67631 0.93574 0.26218 0.0
C1432 C 0.66473 0.89925 0.22454 0.0
C1433 C 0.68075 0.90496 0.21479 0.0
C1434 C 0.67755 0.92519 0.2454 0.0
C1435 C 0.69484 0.9211 0.22061 0.0
C1436 C 0.69098 0.95095 0.26919 0.0
C1437 C 0.65876 0.93922 0.28715 0.0
N1438 N 0.69293 0.93062 0.23559 0.0
N1439 N 0.66071 0.93043 0.27137 0.0
H1440 H 0.0229 0.70475 0.27442 0.0
H1441 H 0.09458 0.80105 0.24153 0.0
H1442 H 0.05635 0.74478 0.31686 0.0
H1443 H 0.07257 0.75816 0.19905 0.0
H1444 H 0.07665 0.7815 0.26866 0.0
H1445 H 0.03723 0.72508 0.24605 0.0
C1446 C 0.03312 0.71786 0.27776 0.0
C1447 C 0.03853 0.7231 0.29798 0.0
C1448 C 0.07564 0.77637 0.25338 0.0
C1449 C 0.05485 0.74632 0.26576 0.0
C1450 C 0.08578 0.78756 0.23783 0.0
C1451 C 0.08509 0.78123 0.21798 0.0
C1452 C 0.06465 0.75869 0.24911 0.0
C1453 C 0.07363 0.76354 0.21419 0.0
C1454 C 0.04133 0.7294 0.2616 0.0
C1455 C 0.05186 0.74019 0.30149 0.0
N1456 N 0.06386 0.75286 0.22964 0.0
N1457 N 0.05956 0.75117 0.28556 0.0
H1458 H 0.27003 0.3419 0.31473 0.0
H1459 H 0.23307 0.30603 0.20318 0.0
H1460 H 0.28274 0.30739 0.28263 0.0
H1461 H 0.21184 0.32867 0.24417 0.0
H1462 H 0.25213 0.30689 0.23091 0.0
H1463 H 0.24969 0.33815 0.28768 0.0
C1464 C 0.2685 0.33348 0.30196 0.0
C1465 C 0.27809 0.32496 0.3009 0.0
C1466 C 0.24323 0.3116 0.23377 0.0
C1467 C 0.2548 0.32064 0.26969 0.0
C1468 C 0.23234 0.31107 0.21799 0.0
C1469 C 0.22104 0.31757 0.22123 0.0
C1470 C 0.24282 0.31871 0.25282 0.0
C1471 C 0.22066 0.32398 0.24074 0.0
C1472 C 0.25683 0.3313 0.28652 0.0
C1473 C 0.27554 0.31417 0.28402 0.0
N1474 N 0.23144 0.32449 0.25568 0.0
N1475 N 0.2642 0.31239 0.26894 0.0
H1476 H 0.27279 0.31079 0.40224 0.0
H1477 H 0.25389 0.3717 0.47406 0.0
H1478 H 0.30486 0.36655 0.40172 0.0
H1479 H 0.22956 0.31622 0.48138 0.0
H1480 H 0.27355 0.3706 0.44862 0.0
H1481 H 0.2573 0.31287 0.43183 0.0
C1482 C 0.27661 0.3235 0.40842 0.0
C1483 C 0.29005 0.33853 0.39945 0.0
C1484 C 0.26402 0.35871 0.45597 0.0
C1485 C 0.27229 0.34104 0.43337 0.0
C1486 C 0.25286 0.35933 0.47058 0.0
C1487 C 0.2399 0.34399 0.47967 0.0
C1488 C 0.26212 0.34262 0.45038 0.0
C1489 C 0.23909 0.32832 0.47443 0.0
C1490 C 0.26779 0.32468 0.42539 0.0
C1491 C 0.29453 0.35465 0.40818 0.0
N1492 N 0.24991 0.32803 0.46002 0.0
N1493 N 0.28555 0.3555 0.42457 0.0
H1494 H 0.68496 0.94834 0.38758 0.0
H1495 H 0.62212 0.88291 0.47348 0.0
H1496 H 0.63303 0.93869 0.39836 0.0
H1497 H 0.67506 0.89518 0.46392 0.0
H1498 H 0.62562 0.90315 0.44612 0.0
H1499 H 0.68132 0.9287 0.41553 0.0
C1500 C 0.67276 0.94205 0.39583 0.0
C1501 C 0.65927 0.94513 0.39064 0.0
C1502 C 0.63649 0.90146 0.45008 0.0
C1503 C 0.65499 0.92261 0.42274 0.0
C1504 C 0.63448 0.88987 0.46565 0.0
C1505 C 0.64833 0.88735 0.47103 0.0
C1506 C 0.65243 0.91054 0.43974 0.0
C1507 C 0.66411 0.89687 0.46051 0.0
C1508 C 0.6707 0.93086 0.41182 0.0
C1509 C 0.64376 0.93666 0.40186 0.0
N1510 N 0.66569 0.90796 0.44535 0.0
N1511 N 0.64203 0.92575 0.41739 0.0
H1512 H 0.06269 0.69436 0.39842 0.0
H1513 H 0.09813 0.77572 0.47414 0.0
H1514 H 0.04212 0.72901 0.40214 0.0
H1515 H 0.11592 0.73874 0.47668 0.0
H1516 H 0.07725 0.75817 0.44803 0.0
H1517 H 0.08214 0.70989 0.42716 0.0
C1518 C 0.06221 0.70516 0.40534 0.0
C1519 C 0.05084 0.71046 0.39785 0.0
C1520 C 0.08563 0.75379 0.45434 0.0
C1521 C 0.07299 0.72825 0.43055 0.0
C1522 C 0.09751 0.76377 0.46944 0.0
C1523 C 0.1088 0.7587 0.47779 0.0
C1524 C 0.08503 0.73861 0.44729 0.0
C1525 C 0.10762 0.74327 0.47055 0.0
C1526 C 0.0733 0.71401 0.42172 0.0
C1527 C 0.05072 0.72451 0.40736 0.0
N1528 N 0.09599 0.7338 0.45567 0.0
N1529 N 0.06165 0.73293 0.42312 0.0
H1530 H 0.3543 0.06366 0.73228 0.0
H1531 H 0.28808 0.07 0.80994 0.0
H1532 H 0.29909 0.02777 0.73134 0.0
H1533 H 0.34296 0.10713 0.80695 0.0
H1534 H 0.2918 0.05316 0.78281 0.0
H1535 H 0.35036 0.07846 0.76135 0.0
C1536 C 0.34132 0.05886 0.73824 0.0
C1537 C 0.32698 0.0445 0.72933 0.0
C1538 C 0.30303 0.06494 0.78821 0.0
C1539 C 0.32234 0.06145 0.7627 0.0
C1540 C 0.30091 0.0746 0.80365 0.0
C1541 C 0.31523 0.09004 0.81079 0.0
C1542 C 0.31957 0.07077 0.77981 0.0
C1543 C 0.33158 0.0952 0.80223 0.0
C1544 C 0.33908 0.06733 0.75487 0.0
C1545 C 0.31049 0.03883 0.73774 0.0
N1546 N 0.33327 0.08565 0.78718 0.0
N1547 N 0.3086 0.04736 0.75394 0.0
H1548 H 0.95283 0.29594 0.74634 0.0
H1549 H 0.90596 0.19831 0.7847 0.0
H1550 H 0.95733 0.256 0.71437 0.0
H1551 H 0.91622 0.24127 0.82431 0.0
H1552 H 0.92413 0.2189 0.75847 0.0
H1553 H 0.93849 0.27583 0.77461 0.0
C1554 C 0.95086 0.28294 0.74532 0.0
C1555 C 0.95621 0.27759 0.72798 0.0
C1556 C 0.92252 0.2238 0.77298 0.0
C1557 C 0.93968 0.25446 0.7602 0.0
C1558 C 0.91221 0.21205 0.78806 0.0
C1559 C 0.90941 0.218 0.80682 0.0
C1560 C 0.92994 0.24166 0.77651 0.0
C1561 C 0.91765 0.23602 0.80999 0.0
C1562 C 0.94273 0.27149 0.7615 0.0
C1563 C 0.9534 0.26063 0.72749 0.0
N1564 N 0.92739 0.24718 0.79494 0.0
N1565 N 0.94516 0.2496 0.74329 0.0
H1566 H 0.72576 0.69822 0.72973 0.0
H1567 H 0.75421 0.64762 0.80733 0.0
H1568 H 0.70797 0.64347 0.7259 0.0
H1569 H 0.78265 0.70336 0.80117 0.0
H1570 H 0.73424 0.64599 0.78076 0.0
H1571 H 0.74411 0.70046 0.75893 0.0
C1572 C 0.72571 0.68669 0.73504 0.0
C1573 C 0.71541 0.67065 0.72534 0.0
C1574 C 0.74481 0.65859 0.78527 0.0
C1575 C 0.73614 0.67308 0.75873 0.0
C1576 C 0.75625 0.65953 0.80042 0.0
C1577 C 0.77029 0.67564 0.80633 0.0
C1578 C 0.74732 0.67386 0.77596 0.0
C1579 C 0.77198 0.69067 0.79718 0.0
C1580 C 0.73617 0.68798 0.75167 0.0
C1581 C 0.71579 0.65611 0.73285 0.0
N1582 N 0.76069 0.68941 0.78235 0.0
N1583 N 0.72595 0.65767 0.7491 0.0
H1584 H 0.72459 0.68611 0.62228 0.0
H1585 H 0.74352 0.62358 0.55316 0.0
H1586 H 0.69305 0.63035 0.62497 0.0
H1587 H 0.7686 0.67904 0.54507 0.0
H1588 H 0.7242 0.6253 0.57858 0.0
H1589 H 0.74044 0.68341 0.59352 0.0
C1590 C 0.72097 0.67327 0.61676 0.0
C1591 C 0.70754 0.65842 0.62609 0.0
C1592 C 0.73384 0.63706 0.57111 0.0
C1593 C 0.72574 0.6552 0.59309 0.0
C1594 C 0.74481 0.63608 0.55651 0.0
C1595 C 0.75784 0.65123 0.54712 0.0
C1596 C 0.73597 0.65329 0.57639 0.0
C1597 C 0.759 0.66708 0.55222 0.0
C1598 C 0.73001 0.67172 0.60027 0.0
C1599 C 0.70335 0.64212 0.61822 0.0
N1600 N 0.74833 0.6677 0.56659 0.0
N1601 N 0.71252 0.64092 0.60224 0.0
H1602 H 0.33289 0.07025 0.64806 0.0
H1603 H 0.35289 0.09444 0.53104 0.0
H1604 H 0.35608 0.04721 0.61091 0.0
H1605 H 0.35849 0.13214 0.5763 0.0
H1606 H 0.34984 0.0744 0.55875 0.0
H1607 H 0.3378 0.09072 0.62037 0.0
C1608 C 0.33901 0.06952 0.63405 0.0
C1609 C 0.34414 0.0571 0.63172 0.0
C1610 C 0.35187 0.08712 0.56253 0.0
C1611 C 0.34952 0.0802 0.60002 0.0
C1612 C 0.35354 0.09847 0.54681 0.0
C1613 C 0.35604 0.11492 0.5515 0.0
C1614 C 0.35222 0.09216 0.58297 0.0
C1615 C 0.35676 0.11961 0.57212 0.0
C1616 C 0.34186 0.08121 0.61834 0.0
C1617 C 0.35204 0.05669 0.6133 0.0
N1618 N 0.35467 0.1082 0.58712 0.0
N1619 N 0.35434 0.06799 0.59801 0.0
H1620 H 0.95277 0.30923 0.61122 0.0
H1621 H 0.86143 0.22906 0.57749 0.0
H1622 H 0.92103 0.26647 0.65137 0.0
H1623 H 0.90287 0.25769 0.53443 0.0
H1624 H 0.88066 0.24662 0.60533 0.0
H1625 H 0.93198 0.29424 0.58343 0.0
C1626 C 0.94132 0.2968 0.61424 0.0
C1627 C 0.93861 0.28901 0.63356 0.0
C1628 C 0.88549 0.24913 0.58977 0.0
C1629 C 0.91485 0.27196 0.60202 0.0
C1630 C 0.87452 0.23922 0.57389 0.0
C1631 C 0.88062 0.24195 0.55367 0.0
C1632 C 0.9026 0.26203 0.58536 0.0
C1633 C 0.89774 0.25513 0.54985 0.0
C1634 C 0.92955 0.28824 0.59838 0.0
C1635 C 0.92363 0.27286 0.63665 0.0
N1636 N 0.90815 0.26473 0.56557 0.0
N1637 N 0.91228 0.26487 0.62105 0.0
H1638 H 0.31332 0.2633 0.6355 0.0
H1639 H 0.37643 0.26075 0.54985 0.0
H1640 H 0.36601 0.30482 0.62667 0.0
H1641 H 0.32331 0.2202 0.55897 0.0
H1642 H 0.37306 0.27732 0.57761 0.0
H1643 H 0.31693 0.24752 0.60723 0.0
C1644 C 0.32568 0.26909 0.62761 0.0
C1645 C 0.3394 0.28539 0.63346 0.0
C1646 C 0.36213 0.26483 0.57346 0.0
C1647 C 0.34364 0.26737 0.60096 0.0
C1648 C 0.36406 0.25533 0.55766 0.0
C1649 C 0.35012 0.23906 0.55201 0.0
C1650 C 0.34617 0.25797 0.58375 0.0
C1651 C 0.33434 0.23279 0.56254 0.0
C1652 C 0.32773 0.26008 0.61143 0.0
C1653 C 0.35511 0.29227 0.62266 0.0
N1654 N 0.33283 0.24221 0.5779 0.0
N1655 N 0.35681 0.28322 0.60692 0.0
H1656 H 0.73341 0.04785 0.63068 0.0
H1657 H 0.73611 0.11255 0.54392 0.0
H1658 H 0.69126 0.05772 0.62042 0.0
H1659 H 0.77765 0.10209 0.55604 0.0
H1660 H 0.71893 0.09202 0.57097 0.0
H1661 H 0.74922 0.06708 0.60238 0.0
C1662 C 0.72746 0.05407 0.62243 0.0
C1663 C 0.71102 0.05122 0.62794 0.0
C1664 C 0.73177 0.09417 0.5676 0.0
C1665 C 0.7291 0.07336 0.59542 0.0
C1666 C 0.74161 0.10593 0.55222 0.0
C1667 C 0.75834 0.10902 0.54762 0.0
C1668 C 0.73875 0.08551 0.5785 0.0
C1669 C 0.76472 0.09994 0.55875 0.0
C1670 C 0.7365 0.06506 0.60624 0.0
C1671 C 0.70394 0.05959 0.61667 0.0
N1672 N 0.75496 0.08867 0.57366 0.0
N1673 N 0.71305 0.07034 0.60095 0.0
H1674 H 0.93619 0.63098 0.62502 0.0
H1675 H 0.90865 0.68231 0.54737 0.0
H1676 H 0.95449 0.68582 0.62903 0.0
H1677 H 0.87991 0.62655 0.55331 0.0
H1678 H 0.92849 0.68373 0.574 0.0
H1679 H 0.91811 0.62903 0.59567 0.0
C1680 C 0.93642 0.64259 0.6197 0.0
C1681 C 0.94677 0.65857 0.62951 0.0
C1682 C 0.91788 0.67117 0.56942 0.0
C1683 C 0.92634 0.65647 0.59595 0.0
C1684 C 0.90652 0.67035 0.55424 0.0
C1685 C 0.89243 0.6543 0.54825 0.0
C1686 C 0.91525 0.65584 0.57868 0.0
C1687 C 0.89062 0.6392 0.55735 0.0
C1688 C 0.92611 0.64147 0.60299 0.0
C1689 C 0.94662 0.67323 0.62199 0.0
N1690 N 0.90184 0.64034 0.57221 0.0
N1691 N 0.93659 0.67183 0.60566 0.0
H1692 H 0.96962 0.69969 0.72946 0.0
H1693 H 0.89455 0.65051 0.81278 0.0
H1694 H 0.93739 0.64408 0.7339 0.0
H1695 H 0.91838 0.70542 0.80114 0.0
H1696 H 0.91352 0.64869 0.78721 0.0
H1697 H 0.95403 0.70276 0.75874 0.0
C1698 C 0.95933 0.68815 0.73665 0.0
C1699 C 0.95469 0.67161 0.72919 0.0
C1700 C 0.91468 0.66117 0.7903 0.0
C1701 C 0.93699 0.675 0.76262 0.0
C1702 C 0.90383 0.66221 0.80488 0.0
C1703 C 0.9047 0.67809 0.8089 0.0
C1704 C 0.92656 0.67613 0.7796 0.0
C1705 C 0.91728 0.69291 0.79855 0.0
C1706 C 0.95045 0.68991 0.75331 0.0
C1707 C 0.94131 0.65708 0.73906 0.0
N1708 N 0.92763 0.69155 0.78422 0.0
N1709 N 0.93294 0.65912 0.75523 0.0
H1710 H 0.29673 0.26746 0.73107 0.0
H1711 H 0.34581 0.23779 0.80975 0.0
H1712 H 0.35233 0.28981 0.73407 0.0
H1713 H 0.29004 0.21102 0.80369 0.0
H1714 H 0.3481 0.2588 0.78432 0.0
H1715 H 0.29366 0.24831 0.7597 0.0
C1716 C 0.30827 0.26837 0.7378 0.0
C1717 C 0.3248 0.28016 0.73014 0.0
C1718 C 0.33534 0.24839 0.78857 0.0
C1719 C 0.32142 0.25844 0.76282 0.0
C1720 C 0.33403 0.23636 0.80307 0.0
C1721 C 0.31772 0.2225 0.80866 0.0
C1722 C 0.32023 0.2466 0.77949 0.0
C1723 C 0.30287 0.22152 0.79984 0.0
C1724 C 0.30652 0.25746 0.75411 0.0
C1725 C 0.33933 0.28085 0.73941 0.0
N1726 N 0.30448 0.23333 0.78555 0.0
N1727 N 0.33729 0.27013 0.75521 0.0
H1728 H 0.71544 0.06768 0.72346 0.0
H1729 H 0.78063 0.07025 0.80962 0.0
H1730 H 0.7241 0.0249 0.7346 0.0
H1731 H 0.76905 0.1112 0.79922 0.0
H1732 H 0.75999 0.05318 0.78256 0.0
H1733 H 0.73499 0.08354 0.75157 0.0
C1734 C 0.72146 0.06161 0.73186 0.0
C1735 C 0.71817 0.04496 0.72666 0.0
C1736 C 0.76192 0.06586 0.7863 0.0
C1737 C 0.74066 0.0631 0.75896 0.0
C1738 C 0.77374 0.07564 0.80168 0.0
C1739 C 0.77655 0.09218 0.80676 0.0
C1740 C 0.75292 0.07272 0.77585 0.0
C1741 C 0.76713 0.09843 0.7961 0.0
C1742 C 0.73262 0.07067 0.74795 0.0
C1743 C 0.7263 0.03772 0.73811 0.0
N1744 N 0.75582 0.08874 0.78115 0.0
N1745 N 0.73723 0.04686 0.75371 0.0
H1746 H 0.05181 0.34994 0.01681 0.0
H1747 H 0.08473 0.33377 0.12362 0.0
H1748 H 0.02208 0.33777 0.07264 0.0
H1749 H 0.10472 0.32803 0.06582 0.0
H1750 H 0.06361 0.33861 0.10531 0.0
H1751 H 0.07335 0.34522 0.03466 0.0
C1752 C 0.04985 0.34632 0.03282 0.0
C1753 C 0.03516 0.34422 0.04329 0.0
C1754 C 0.07259 0.33626 0.09661 0.0
C1755 C 0.05968 0.33893 0.06372 0.0
C1756 C 0.08469 0.33359 0.10705 0.0
C1757 C 0.09647 0.33052 0.09619 0.0
C1758 C 0.07239 0.33607 0.07514 0.0
C1759 C 0.09575 0.33024 0.07474 0.0
C1760 C 0.06209 0.34357 0.04294 0.0
C1761 C 0.0332 0.33948 0.06398 0.0
N1762 N 0.08396 0.33308 0.06487 0.0
N1763 N 0.04536 0.33707 0.07354 0.0
H1764 H 0.63943 0.69742 0.02014 0.0
H1765 H 0.68801 0.7604 0.11457 0.0
H1766 H 0.67651 0.69313 0.05854 0.0
H1767 H 0.66014 0.77164 0.06872 0.0
H1768 H 0.68307 0.73511 0.09476 0.0
H1769 H 0.64582 0.72406 0.03837 0.0
C1770 C 0.64895 0.70212 0.03234 0.0
C1771 C 0.65743 0.69307 0.03787 0.0
C1772 C 0.67809 0.74315 0.089 0.0
C1773 C 0.66471 0.72335 0.05882 0.0
C1774 C 0.68099 0.75767 0.10025 0.0
C1775 C 0.67446 0.76819 0.09336 0.0
C1776 C 0.66848 0.73901 0.07075 0.0
C1777 C 0.66517 0.76376 0.07484 0.0
C1778 C 0.6526 0.71731 0.04272 0.0
C1779 C 0.66966 0.69971 0.05378 0.0
N1780 N 0.6624 0.74947 0.06423 0.0
N1781 N 0.67286 0.71438 0.06375 0.0
H1782 H 0.29739 0.94059 0.02012 0.0
H1783 H 0.23838 0.92317 0.11964 0.0
H1784 H 0.30674 0.9795 0.06556 0.0
H1785 H 0.22488 0.88582 0.0709 0.0
H1786 H 0.26392 0.94369 0.10029 0.0
H1787 H 0.2712 0.91994 0.03879 0.0
C1788 C 0.29391 0.94478 0.03399 0.0
C1789 C 0.30423 0.96176 0.04132 0.0
C1790 C 0.25536 0.93101 0.0938 0.0
C1791 C 0.27442 0.93827 0.06276 0.0
C1792 C 0.2407 0.91931 0.1048 0.0
C1793 C 0.2294 0.90273 0.09689 0.0
C1794 C 0.25885 0.92613 0.07473 0.0
C1795 C 0.23332 0.89836 0.07773 0.0
C1796 C 0.27898 0.93301 0.04463 0.0
C1797 C 0.29915 0.96653 0.05936 0.0
N1798 N 0.24772 0.90999 0.06732 0.0
N1799 N 0.28464 0.95484 0.06948 0.0
H1800 H 0.31893 0.01261 0.96336 0.0
H1801 H 0.3312 0.10787 0.96046 0.0
H1802 H 0.35054 0.0528 0.00664 0.0
H1803 H 0.30846 0.07081 0.9112 0.0
H1804 H 0.33571 0.0869 0.9795 0.0
H1805 H 0.31212 0.03277 0.94614 0.0
C1806 C 0.32436 0.02566 0.96931 0.0
C1807 C 0.33537 0.03108 0.9864 0.0
C1808 C 0.32969 0.08335 0.96455 0.0
C1809 C 0.32764 0.05422 0.96675 0.0
C1810 C 0.32718 0.09535 0.95361 0.0
C1811 C 0.31954 0.09117 0.93409 0.0
C1812 C 0.32446 0.06701 0.956 0.0
C1813 C 0.31423 0.07457 0.92624 0.0
C1814 C 0.3205 0.03718 0.95944 0.0
C1815 C 0.34204 0.04813 0.99346 0.0
N1816 N 0.31684 0.06313 0.93719 0.0
N1817 N 0.33809 0.05912 0.98357 0.0
H1818 H 0.93997 0.29873 0.00485 0.0
H1819 H 0.927 0.23727 0.9094 0.0
H1820 H 0.98228 0.30325 0.968 0.0
H1821 H 0.88683 0.22579 0.95398 0.0
H1822 H 0.94724 0.26202 0.93013 0.0
H1823 H 0.91999 0.27246 0.98586 0.0
C1824 C 0.94506 0.29413 0.99285 0.0
C1825 C 0.96278 0.30317 0.98796 0.0
C1826 C 0.93401 0.25404 0.93541 0.0
C1827 C 0.94004 0.2733 0.96608 0.0
C1828 C 0.92244 0.23984 0.92362 0.0
C1829 C 0.90512 0.22939 0.92988 0.0
C1830 C 0.92823 0.25795 0.95357 0.0
C1831 C 0.89995 0.23362 0.94831 0.0
C1832 C 0.93366 0.27915 0.98202 0.0
C1833 C 0.9687 0.29667 0.97227 0.0
N1834 N 0.91142 0.24759 0.95944 0.0
N1835 N 0.95734 0.28219 0.96181 0.0
H1836 H 0.68887 0.62929 0.9917 0.0
H1837 H 0.77211 0.69754 0.92765 0.0
H1838 H 0.70076 0.68144 0.97782 0.0
H1839 H 0.75787 0.64393 0.93543 0.0
H1840 H 0.74724 0.69238 0.94854 0.0
H1841 H 0.71533 0.63488 0.97361 0.0
C1842 C 0.69711 0.64193 0.98498 0.0
C1843 C 0.6926 0.65489 0.98616 0.0
C1844 C 0.74955 0.68173 0.94572 0.0
C1845 C 0.72277 0.66137 0.96549 0.0
C1846 C 0.76382 0.68471 0.93388 0.0
C1847 C 0.76705 0.67114 0.92973 0.0
C1848 C 0.73842 0.66507 0.95354 0.0
C1849 C 0.75572 0.6547 0.938 0.0
C1850 C 0.71216 0.64511 0.97461 0.0
C1851 C 0.7037 0.67104 0.97718 0.0
N1852 N 0.7419 0.65212 0.9495 0.0
N1853 N 0.71823 0.6738 0.96719 0.0
H1854 H 0.93893 0.63793 0.99888 0.0
H1855 H 0.92509 0.70025 0.92282 0.0
H1856 H 0.98098 0.68085 0.96705 0.0
H1857 H 0.88404 0.64929 0.94004 0.0
H1858 H 0.94554 0.69563 0.94316 0.0
H1859 H 0.91834 0.6442 0.98148 0.0
C1860 C 0.94383 0.64873 0.98833 0.0
C1861 C 0.96165 0.65883 0.98429 0.0
C1862 C 0.93204 0.68549 0.94251 0.0
C1863 C 0.93825 0.66611 0.96446 0.0
C1864 C 0.92038 0.68816 0.93102 0.0
C1865 C 0.90291 0.67508 0.92968 0.0
C1866 C 0.92613 0.66972 0.9529 0.0
C1867 C 0.89747 0.6596 0.94048 0.0
C1868 C 0.93208 0.65227 0.97837 0.0
C1869 C 0.96732 0.67268 0.97049 0.0
N1870 N 0.90903 0.65734 0.95165 0.0
N1871 N 0.95565 0.67592 0.96106 0.0
H1872 H 0.33855 0.31534 0.9512 0.0
H1873 H 0.32845 0.22141 0.95735 0.0
H1874 H 0.35081 0.29647 0.00579 0.0
H1875 H 0.33261 0.24766 0.90044 0.0
H1876 H 0.33436 0.24772 0.97597 0.0
H1877 H 0.33411 0.28956 0.93285 0.0
C1878 C 0.34033 0.30575 0.95932 0.0
C1879 C 0.34503 0.30801 0.98005 0.0
C1880 C 0.33405 0.24773 0.95941 0.0
C1881 C 0.33986 0.2784 0.95916 0.0
C1882 C 0.33057 0.23271 0.9488 0.0
C1883 C 0.33002 0.23238 0.92734 0.0
C1884 C 0.33675 0.26243 0.94847 0.0
C1885 C 0.33305 0.24742 0.91698 0.0
C1886 C 0.33785 0.29107 0.94882 0.0
C1887 C 0.34722 0.29522 0.9898 0.0
N1888 N 0.33617 0.26179 0.92764 0.0
N1889 N 0.34449 0.28087 0.97929 0.0
H1890 H 0.69086 0.01556 0.96161 0.0
H1891 H 0.7735 0.11124 0.95597 0.0
H1892 H 0.70066 0.05571 0.00546 0.0
H1893 H 0.75911 0.07297 0.90814 0.0
H1894 H 0.74806 0.09062 0.97555 0.0
H1895 H 0.71717 0.03586 0.94328 0.0
C1896 C 0.6986 0.02865 0.96744 0.0
C1897 C 0.69355 0.03399 0.98505 0.0
C1898 C 0.75049 0.08674 0.96078 0.0
C1899 C 0.72371 0.05734 0.96408 0.0
C1900 C 0.76496 0.09853 0.94953 0.0
C1901 C 0.76845 0.09387 0.93031 0.0
C1902 C 0.73942 0.07012 0.95282 0.0
C1903 C 0.7571 0.07709 0.92296 0.0
C1904 C 0.71361 0.04025 0.95692 0.0
C1905 C 0.70408 0.05109 0.99191 0.0
N1906 N 0.7431 0.06585 0.93421 0.0
N1907 N 0.71867 0.06218 0.98138 0.0
H1908 H 0.63139 0.94099 0.03137 0.0
H1909 H 0.69957 0.92161 0.08664 0.0
H1910 H 0.68285 0.98149 0.04811 0.0
H1911 H 0.64408 0.88866 0.09368 0.0
H1912 H 0.69453 0.94218 0.06748 0.0
H1913 H 0.63682 0.91984 0.04882 0.0
C1914 C 0.64387 0.94539 0.03858 0.0
C1915 C 0.65668 0.96299 0.0384 0.0
C1916 C 0.6835 0.93041 0.07323 0.0
C1917 C 0.66298 0.93895 0.05817 0.0
C1918 C 0.68634 0.91869 0.0843 0.0
C1919 C 0.67224 0.90333 0.09195 0.0
C1920 C 0.66645 0.92667 0.06949 0.0
C1921 C 0.65538 0.90014 0.08787 0.0
C1922 C 0.64692 0.93336 0.0486 0.0
C1923 C 0.6726 0.96804 0.04801 0.0
N1924 N 0.65296 0.91168 0.07688 0.0
N1925 N 0.67534 0.95606 0.05748 0.0
H1926 H 0.05349 0.70007 0.01806 0.0
H1927 H 0.06869 0.76062 0.11543 0.0
H1928 H 0.01296 0.69255 0.06018 0.0
H1929 H 0.10792 0.77198 0.0696 0.0
H1930 H 0.04808 0.73568 0.09523 0.0
H1931 H 0.07373 0.72649 0.03661 0.0
C1932 C 0.04884 0.70403 0.03114 0.0
C1933 C 0.03155 0.6941 0.03763 0.0
C1934 C 0.06118 0.74366 0.08955 0.0
C1935 C 0.05458 0.72419 0.05897 0.0
C1936 C 0.07295 0.75797 0.10104 0.0
C1937 C 0.0901 0.76842 0.09426 0.0
C1938 C 0.06659 0.73968 0.07115 0.0
C1939 C 0.09492 0.76414 0.07562 0.0
C1940 C 0.06038 0.7191 0.04173 0.0
C1941 C 0.02619 0.69981 0.05467 0.0
N1942 N 0.08325 0.75008 0.06476 0.0
N1943 N 0.03768 0.71443 0.0648 0.0
H1944 H 0.30764 0.3231 0.06367 0.0
H1945 H 0.21771 0.32242 0.06497 0.0
H1946 H 0.29358 0.3475 0.01635 0.0
H1947 H 0.24363 0.3207 0.11987 0.0
H1948 H 0.24262 0.32612 0.04474 0.0
H1949 H 0.28118 0.3165 0.08229 0.0
C1950 C 0.2989 0.32692 0.05711 0.0
C1951 C 0.30281 0.33593 0.0385 0.0
C1952 C 0.24278 0.32486 0.06121 0.0
C1953 C 0.27255 0.32833 0.05964 0.0
C1954 C 0.22859 0.32266 0.0727 0.0
C1955 C 0.22872 0.32132 0.09407 0.0
C1956 C 0.25701 0.3254 0.07117 0.0
C1957 C 0.24313 0.32183 0.10342 0.0
C1958 C 0.28387 0.32323 0.06779 0.0
C1959 C 0.29106 0.34061 0.03071 0.0
N1960 N 0.25669 0.32377 0.0919 0.0
N1961 N 0.2764 0.33673 0.04132 0.0
H1962 H 0.68241 0.64923 0.38236 0.0
H1963 H 0.78024 0.68471 0.41839 0.0
H1964 H 0.72562 0.69775 0.36183 0.0
H1965 H 0.73899 0.63233 0.42953 0.0
H1966 H 0.76023 0.6899 0.39818 0.0
H1967 H 0.70272 0.64286 0.40017 0.0
C1968 C 0.69619 0.6585 0.38153 0.0
C1969 C 0.70236 0.67407 0.37066 0.0
C1970 C 0.75555 0.67724 0.40495 0.0
C1971 C 0.72564 0.66692 0.39108 0.0
C1972 C 0.76694 0.67431 0.41659 0.0
C1973 C 0.76122 0.6581 0.42574 0.0
C1974 C 0.73825 0.66392 0.40256 0.0
C1975 C 0.74394 0.64499 0.42265 0.0
C1976 C 0.70777 0.65485 0.39167 0.0
C1977 C 0.72032 0.6856 0.37004 0.0
N1978 N 0.73302 0.64823 0.41143 0.0
N1979 N 0.73132 0.68185 0.38022 0.0
H1980 H 0.30948 0.03345 0.35312 0.0
H1981 H 0.35504 0.09492 0.44981 0.0
H1982 H 0.34108 0.02528 0.39665 0.0
H1983 H 0.32945 0.1071 0.40198 0.0
H1984 H 0.34996 0.0693 0.43057 0.0
H1985 H 0.31635 0.06035 0.37091 0.0
C1986 C 0.31791 0.03736 0.36637 0.0
C1987 C 0.32469 0.02712 0.37345 0.0
C1988 C 0.3455 0.07761 0.42424 0.0
C1989 C 0.33256 0.05779 0.39392 0.0
C1990 C 0.34849 0.09232 0.43518 0.0
C1991 C 0.34263 0.1032 0.42756 0.0
C1992 C 0.33651 0.07367 0.40556 0.0
C1993 C 0.33395 0.09895 0.40864 0.0
C1994 C 0.32184 0.05271 0.37651 0.0
C1995 C 0.33556 0.03278 0.39068 0.0
N1996 N 0.33111 0.0845 0.39834 0.0
N1997 N 0.33909 0.04769 0.40037 0.0
H1998 H 0.96555 0.27711 0.35248 0.0
H1999 H 0.9058 0.26071 0.45115 0.0
H2000 H 0.97496 0.31642 0.39738 0.0
H2001 H 0.89417 0.22213 0.40439 0.0
H2002 H 0.93112 0.28134 0.43147 0.0
H2003 H 0.93932 0.25668 0.3712 0.0
C2004 C 0.96207 0.28144 0.36625 0.0
C2005 C 0.97244 0.29846 0.37342 0.0
C2006 C 0.92302 0.26837 0.42549 0.0
C2007 C 0.94254 0.27522 0.39491 0.0
C2008 C 0.90849 0.25661 0.43667 0.0
C2009 C 0.89784 0.23963 0.42945 0.0
C2010 C 0.92698 0.26315 0.40693 0.0
C2011 C 0.90215 0.23499 0.41072 0.0
C2012 C 0.94711 0.26979 0.37692 0.0
C2013 C 0.96734 0.30341 0.39132 0.0
N2014 N 0.91639 0.24667 0.40014 0.0
N2015 N 0.95279 0.29184 0.40147 0.0
H2016 H 0.9871 0.35068 0.29736 0.0
H2017 H 0.01202 0.44996 0.28691 0.0
H2018 H 0.02498 0.39163 0.33573 0.0
H2019 H 0.98151 0.41048 0.24232 0.0
H2020 H 0.01476 0.42834 0.30691 0.0
H2021 H 0.98247 0.37195 0.2792 0.0
C2022 C 0.99436 0.36414 0.30205 0.0
C2023 C 0.00649 0.36943 0.31802 0.0
C2024 C 0.00744 0.42441 0.29276 0.0
C2025 C 0.0013 0.39385 0.29727 0.0
C2026 C 0.00595 0.43677 0.28126 0.0
C2027 C 0.99661 0.43208 0.2628 0.0
C2028 C -0.00053 0.40719 0.28584 0.0
C2029 C 0.98869 0.41468 0.25653 0.0
C2030 C 0.99175 0.37629 0.29164 0.0
C2031 C 0.01553 0.38703 0.32347 0.0
N2032 N 0.99034 0.40289 0.268 0.0
N2033 N 0.01279 0.39863 0.31307 0.0
H2034 H 0.64939 0.64498 0.28972 0.0
H2035 H 0.55271 0.56376 0.28471 0.0
H2036 H 0.60992 0.63591 0.33426 0.0
H2037 H 0.59146 0.57571 0.23807 0.0
H2038 H 0.57352 0.58959 0.30361 0.0
H2039 H 0.62845 0.61906 0.27126 0.0
C2040 C 0.63629 0.63751 0.29563 0.0
C2041 C 0.63137 0.64261 0.31355 0.0
C2042 C 0.57747 0.58655 0.28924 0.0
C2043 C 0.60729 0.61284 0.29246 0.0
C2044 C 0.56557 0.57185 0.27838 0.0
C2045 C 0.57031 0.56755 0.25971 0.0
C2046 C 0.59427 0.59705 0.28144 0.0
C2047 C 0.58727 0.57837 0.25249 0.0
C2048 C 0.62433 0.62271 0.28506 0.0
C2049 C 0.61424 0.63244 0.32049 0.0
N2050 N 0.5986 0.5926 0.26334 0.0
N2051 N 0.60279 0.61802 0.30993 0.0
H2052 H 0.36402 0.97532 0.33899 0.0
H2053 H 0.42282 0.01494 0.23899 0.0
H2054 H 0.35535 0.00525 0.29356 0.0
H2055 H 0.43614 0.99182 0.2886 0.0
H2056 H 0.39762 0.01082 0.25842 0.0
H2057 H 0.39006 0.98044 0.32037 0.0
C2058 C 0.36763 0.98301 0.32513 0.0
C2059 C 0.35753 0.98987 0.31779 0.0
C2060 C 0.40607 0.00668 0.26508 0.0
C2061 C 0.38719 0.9957 0.29638 0.0
C2062 C 0.42054 0.00912 0.25403 0.0
C2063 C 0.43166 0.00373 0.26215 0.0
C2064 C 0.40262 0.99874 0.28439 0.0
C2065 C 0.42781 0.99595 0.28158 0.0
C2066 C 0.38249 0.98594 0.31452 0.0
C2067 C 0.36278 -0.00027 0.29977 0.0
N2068 N 0.4136 0.99367 0.29201 0.0
N2069 N 0.37721 0.0023 0.28965 0.0
H2070 H 0.60977 0.97653 0.33955 0.0
H2071 H 0.5913 0.01966 0.24284 0.0
H2072 H 0.64928 0.0103 0.29682 0.0
H2073 H 0.55392 0.99389 0.29114 0.0
H2074 H 0.61256 0.01596 0.2623 0.0
H2075 H 0.58887 0.98226 0.32194 0.0
C2076 C 0.61406 0.98523 0.32655 0.0
C2077 C 0.63125 0.99292 0.31959 0.0
C2078 C 0.59973 0.01118 0.2687 0.0
C2079 C 0.60746 -0.00058 0.29931 0.0
C2080 C 0.58758 0.01337 0.25763 0.0
C2081 C 0.57075 0.00708 0.26532 0.0
C2082 C 0.59502 0.00252 0.28758 0.0
C2083 C 0.56664 0.99872 0.28442 0.0
C2084 C 0.60214 0.98849 0.31651 0.0
C2085 C 0.63614 0.00408 0.30268 0.0
N2086 N 0.57867 0.99663 0.29485 0.0
N2087 N 0.62428 0.00691 0.29306 0.0
H2088 H 0.98878 0.62733 0.32725 0.0
H2089 H 0.03354 0.58874 0.25459 0.0
H2090 H 0.04326 0.6556 0.31192 0.0
H2091 H 0.98053 0.55954 0.27574 0.0
H2092 H 0.03776 0.6132 0.27583 0.0
H2093 H 0.98588 0.60221 0.30885 0.0
C2094 C 0.00017 0.62821 0.3201 0.0
C2095 C 0.01628 0.64358 0.32105 0.0
C2096 C 0.02523 0.60141 0.27585 0.0
C2097 C 0.01302 0.61486 0.29975 0.0
C2098 C 0.02282 0.58742 0.26379 0.0
C2099 C 0.0066 0.57207 0.26324 0.0
C2100 C 0.01132 0.60008 0.28745 0.0
C2101 C 0.99315 0.5712 0.27533 0.0
C2102 C 0.99851 0.61385 0.30957 0.0
C2103 C 0.03061 0.64398 0.31154 0.0
N2104 N 0.99579 0.58499 0.28685 0.0
N2105 N 0.02862 0.62985 0.30115 0.0
H2106 H 0.35505 0.39314 0.32418 0.0
H2107 H 0.44334 0.41417 0.26897 0.0
H2108 H 0.36868 0.354 0.31109 0.0
H2109 H 0.41894 0.44504 0.25959 0.0
H2110 H 0.41826 0.39374 0.28906 0.0
H2111 H 0.38094 0.41436 0.30541 0.0
C2112 C 0.36356 0.38906 0.31748 0.0
C2113 C 0.35974 0.37181 0.3191 0.0
C2114 C 0.41844 0.40501 0.28258 0.0
C2115 C 0.38928 0.39592 0.29784 0.0
C2116 C 0.43271 0.41664 0.27097 0.0
C2117 C 0.4333 0.43138 0.26238 0.0
C2118 C 0.40473 0.4082 0.28592 0.0
C2119 C 0.41925 0.43404 0.26609 0.0
C2120 C 0.37824 0.40113 0.30671 0.0
C2121 C 0.37113 0.36716 0.3101 0.0
N2122 N 0.40556 0.42259 0.27761 0.0
N2123 N 0.38543 0.37917 0.2999 0.0
H2124 H 0.31029 0.27748 0.35378 0.0
H2125 H 0.35396 0.26042 0.45106 0.0
H2126 H 0.34396 0.31759 0.39604 0.0
H2127 H 0.32911 0.22299 0.40256 0.0
H2128 H 0.34966 0.28128 0.43156 0.0
H2129 H 0.31618 0.25695 0.37191 0.0
C2130 C 0.31898 0.28197 0.36681 0.0
C2131 C 0.32663 0.29924 0.37345 0.0
C2132 C 0.3452 0.26852 0.42515 0.0
C2133 C 0.33333 0.27586 0.39431 0.0
C2134 C 0.34773 0.25661 0.43624 0.0
C2135 C 0.34189 0.23988 0.42847 0.0
C2136 C 0.33666 0.26367 0.40618 0.0
C2137 C 0.33359 0.23562 0.40933 0.0
C2138 C 0.32235 0.27027 0.37714 0.0
C2139 C 0.33779 0.30439 0.39041 0.0
N2140 N 0.33118 0.24741 0.39887 0.0
N2141 N 0.34073 0.29273 0.40032 0.0
H2142 H 0.7151 0.04047 0.34534 0.0
H2143 H 0.76314 0.08267 0.44979 0.0
H2144 H 0.69516 0.01537 0.40343 0.0
H2145 H 0.76121 0.11429 0.4012 0.0
H2146 H 0.74237 0.05657 0.43087 0.0
H2147 H 0.73642 0.06677 0.36361 0.0
C2148 C 0.71527 0.0405 0.36191 0.0
C2149 C 0.70337 0.02583 0.37295 0.0
C2150 C 0.74653 0.06923 0.42437 0.0
C2151 C 0.72773 0.0555 0.39373 0.0
C2152 C 0.75836 0.08404 0.43508 0.0
C2153 C 0.76372 0.10049 0.42696 0.0
C2154 C 0.74039 0.07097 0.40526 0.0
C2155 C 0.75723 0.10173 0.4079 0.0
C2156 C 0.72734 0.05547 0.37227 0.0
C2157 C 0.70406 0.02648 0.39438 0.0
N2158 N 0.74595 0.08711 0.39755 0.0
N2159 N 0.71615 0.04104 0.4041 0.0
H2160 H 0.97018 0.69737 0.35818 0.0
H2161 H 0.89219 0.63285 0.43137 0.0
H2162 H 0.96752 0.65261 0.38711 0.0
H2163 H 0.90279 0.68441 0.4165 0.0
H2164 H 0.91749 0.63799 0.41113 0.0
H2165 H 0.94315 0.6909 0.37547 0.0
C2166 C 0.96384 0.68612 0.36805 0.0
C2167 C 0.97112 0.67555 0.37131 0.0
C2168 C 0.91425 0.64816 0.41227 0.0
C2169 C 0.94026 0.66807 0.39104 0.0
C2170 C 0.89977 0.6452 0.42371 0.0
C2171 C 0.89546 0.65826 0.42568 0.0
C2172 C 0.92438 0.66423 0.40256 0.0
C2173 C 0.90581 0.67408 0.41558 0.0
C2174 C 0.94847 0.68248 0.37796 0.0
C2175 C 0.96239 0.66115 0.38426 0.0
N2176 N 0.91979 0.67662 0.40443 0.0
N2177 N 0.94742 0.65783 0.39366 0.0
H2178 H 0.39309 0.03345 0.69382 0.0
H2179 H 0.40772 0.96795 0.76334 0.0
H2180 H 0.35123 0.98452 0.71552 0.0
H2181 H 0.44745 0.02084 0.75142 0.0
H2182 H 0.3874 0.97243 0.7426 0.0
H2183 H 0.41379 0.02765 0.71159 0.0
C2184 C 0.38827 0.02144 0.70222 0.0
C2185 C 0.37043 0.00948 0.7033 0.0
C2186 C 0.40057 0.98304 0.7445 0.0
C2187 C 0.39401 0.00276 0.72367 0.0
C2188 C 0.41218 0.98046 0.75624 0.0
C2189 C 0.42925 0.99408 0.75919 0.0
C2190 C 0.40612 -0.0007 0.73553 0.0
C2191 C 0.43433 0.01007 0.74977 0.0
C2192 C 0.40008 0.01815 0.71241 0.0
C2193 C 0.36489 0.99412 0.71438 0.0
N2194 N 0.42282 0.01224 0.73837 0.0
N2195 N 0.37664 0.99121 0.72418 0.0
H2196 H 0.01231 0.36063 0.72152 0.0
H2197 H 0.99079 0.43697 0.73461 0.0
H2198 H 0.97105 0.36209 0.68866 0.0
H2199 H 0.01864 0.42514 0.77989 0.0
H2200 H 0.9867 0.4121 0.71452 0.0
H2201 H 0.01831 0.38707 0.73971 0.0
C2202 C 0.00461 0.3666 0.71801 0.0
C2203 C 0.99112 0.35915 0.70363 0.0
C2204 C 0.99373 0.41499 0.72884 0.0
C2205 C 0.99793 0.38936 0.72434 0.0
C2206 C 0.99599 0.42913 0.74042 0.0
C2207 C 0.00496 0.43314 0.75914 0.0
C2208 C 0.00063 0.40484 0.73586 0.0
C2209 C 0.01181 0.42273 0.7655 0.0
C2210 C 0.00799 0.38164 0.72846 0.0
C2211 C 0.98152 0.3674 0.6997 0.0
N2212 N 0.00949 0.40906 0.75389 0.0
N2213 N 0.98512 0.38208 0.71001 0.0
H2214 H 0.62923 0.60821 0.6852 0.0
H2215 H 0.57118 0.59254 0.78524 0.0
H2216 H 0.63916 0.64789 0.72979 0.0
H2217 H 0.55829 0.55377 0.73837 0.0
H2218 H 0.59621 0.61294 0.76504 0.0
H2219 H 0.60324 0.58793 0.7044 0.0
C2220 C 0.6259 0.61266 0.69898 0.0
C2221 C 0.63635 0.62974 0.70594 0.0
C2222 C 0.58789 0.59998 0.75914 0.0
C2223 C 0.60676 0.60665 0.728 0.0
C2224 C 0.57353 0.58834 0.77063 0.0
C2225 C 0.56259 0.57139 0.76351 0.0
C2226 C 0.59141 0.59466 0.74038 0.0
C2227 C 0.56649 0.56662 0.74461 0.0
C2228 C 0.61108 0.60109 0.70994 0.0
C2229 C 0.63147 0.63484 0.72388 0.0
N2230 N 0.58059 0.57818 0.73372 0.0
N2231 N 0.61706 0.62333 0.73431 0.0
H2232 H 0.64417 0.68059 0.6418 0.0
H2233 H 0.68387 0.77491 0.59463 0.0
H2234 H 0.6953 0.72238 0.65744 0.0
H2235 H 0.62852 0.74076 0.60112 0.0
H2236 H 0.68873 0.75468 0.6146 0.0
H2237 H 0.63851 0.70135 0.62379 0.0
C2238 C 0.65417 0.69415 0.64151 0.0
C2239 C 0.67023 0.69981 0.65108 0.0
C2240 C 0.67552 0.75168 0.61171 0.0
C2241 C 0.66394 0.72348 0.63034 0.0
C2242 C 0.6727 0.76327 0.60038 0.0
C2243 C 0.65572 0.75967 0.59623 0.0
C2244 C 0.6613 0.7362 0.61871 0.0
C2245 C 0.64183 0.74403 0.60364 0.0
C2246 C 0.65091 0.70597 0.63129 0.0
C2247 C 0.68272 0.7175 0.6503 0.0
N2248 N 0.64493 0.73284 0.61445 0.0
N2249 N 0.67938 0.7287 0.63992 0.0
H2250 H 0.31515 0.97924 0.6231 0.0
H2251 H 0.22107 0.89401 0.62395 0.0
H2252 H 0.2775 0.96804 0.67087 0.0
H2253 H 0.25702 0.90877 0.57347 0.0
H2254 H 0.24177 0.92041 0.64201 0.0
H2255 H 0.2943 0.95278 0.60544 0.0
C2256 C 0.30246 0.97119 0.62988 0.0
C2257 C 0.29803 0.97584 0.64848 0.0
C2258 C 0.24512 0.91786 0.62699 0.0
C2259 C 0.27406 0.94546 0.62832 0.0
C2260 C 0.23327 0.90283 0.61661 0.0
C2261 C 0.23728 0.89915 0.59711 0.0
C2262 C 0.26113 0.92931 0.61785 0.0
C2263 C 0.25344 0.91092 0.58855 0.0
C2264 C 0.29055 0.95608 0.61977 0.0
C2265 C 0.28142 0.96493 0.65655 0.0
N2266 N 0.26475 0.92546 0.59897 0.0
N2267 N 0.27002 0.95021 0.64642 0.0
H2268 H 0.03482 0.31557 0.67509 0.0
H2269 H 0.08039 0.3272 0.56608 0.0
H2270 H 0.01205 0.31812 0.61788 0.0
H2271 H 0.10791 0.33624 0.62319 0.0
H2272 H 0.05438 0.32144 0.585 0.0
H2273 H 0.06094 0.3207 0.65651 0.0
C2274 C 0.0353 0.31713 0.65863 0.0
C2275 C 0.02129 0.31644 0.64799 0.0
C2276 C 0.06611 0.32471 0.59342 0.0
C2277 C 0.051 0.32228 0.62672 0.0
C2278 C 0.08093 0.32792 0.58263 0.0
C2279 C 0.09632 0.33219 0.59309 0.0
C2280 C 0.06659 0.32564 0.61488 0.0
C2281 C 0.09635 0.33315 0.61453 0.0
C2282 C 0.05021 0.32012 0.64806 0.0
C2283 C 0.02258 0.31859 0.62669 0.0
N2284 N 0.08168 0.32982 0.62475 0.0
N2285 N 0.03715 0.32139 0.61676 0.0
H2286 H 0.31246 0.3328 0.62362 0.0
H2287 H 0.22586 0.33855 0.628 0.0
H2288 H 0.27888 0.3165 0.67645 0.0
H2289 H 0.2497 0.33591 0.57169 0.0
H2290 H 0.24747 0.33482 0.64721 0.0
H2291 H 0.29178 0.33838 0.60552 0.0
C2292 C 0.30076 0.33047 0.63144 0.0
C2293 C 0.29732 0.32412 0.65153 0.0
C2294 C 0.24794 0.33508 0.63065 0.0
C2295 C 0.27366 0.33056 0.63094 0.0
C2296 C 0.23572 0.3373 0.61972 0.0
C2297 C 0.236 0.33745 0.59826 0.0
C2298 C 0.26066 0.33327 0.62001 0.0
C2299 C 0.24895 0.33568 0.58823 0.0
C2300 C 0.28894 0.3336 0.62108 0.0
C2301 C 0.28195 0.32132 0.66093 0.0
N2302 N 0.2608 0.33371 0.59919 0.0
N2303 N 0.27067 0.3246 0.65056 0.0
H2304 H 0.69886 0.97456 0.65683 0.0
H2305 H 0.62945 0.88889 0.59868 0.0
H2306 H 0.64794 0.96529 0.64052 0.0
H2307 H 0.68483 0.9099 0.59317 0.0
H2308 H 0.63502 0.91462 0.61812 0.0
H2309 H 0.69283 0.94826 0.63813 0.0
C2310 C 0.68637 0.96691 0.64943 0.0
C2311 C 0.67389 0.97209 0.65015 0.0
C2312 C 0.64591 0.91354 0.61262 0.0
C2313 C 0.6669 0.94206 0.62888 0.0
C2314 C 0.64277 0.8989 0.60139 0.0
C2315 C 0.65668 0.89711 0.5942 0.0
C2316 C 0.66306 0.92639 0.61697 0.0
C2317 C 0.67365 0.91044 0.59868 0.0
C2318 C 0.68298 0.95199 0.63869 0.0
C2319 C 0.65794 0.96177 0.64025 0.0
N2320 N 0.67635 0.92445 0.60984 0.0
N2321 N 0.65487 0.94719 0.63006 0.0
H2322 H 0.02316 0.68049 0.62669 0.0
H2323 H 0.10773 0.77507 0.6269 0.0
H2324 H 0.03377 0.71888 0.67333 0.0
H2325 H 0.0935 0.7389 0.5767 0.0
H2326 H 0.08189 0.7539 0.6454 0.0
H2327 H 0.05015 0.70093 0.60953 0.0
C2328 C 0.03122 0.69322 0.63336 0.0
C2329 C 0.02621 0.69804 0.65142 0.0
C2330 C 0.08444 0.75058 0.63036 0.0
C2331 C 0.05712 0.7215 0.63185 0.0
C2332 C 0.09916 0.76269 0.61974 0.0
C2333 C 0.10276 0.75881 0.60015 0.0
C2334 C 0.07323 0.73443 0.62137 0.0
C2335 C 0.09136 0.74241 0.59183 0.0
C2336 C 0.04661 0.70489 0.62353 0.0
C2337 C 0.03714 0.71467 0.6594 0.0
N2338 N 0.07709 0.73086 0.60246 0.0
N2339 N 0.05208 0.72583 0.64953 0.0
H2340 H 0.01572 0.64609 0.71363 0.0
H2341 H 0.97303 0.55276 0.76439 0.0
H2342 H 0.96342 0.60568 0.69997 0.0
H2343 H 0.02851 0.58496 0.75645 0.0
H2344 H 0.96888 0.57317 0.74377 0.0
H2345 H 0.02037 0.625 0.73237 0.0
C2346 C 0.00525 0.63275 0.7145 0.0
C2347 C 0.98917 0.62758 0.70526 0.0
C2348 C 0.98195 0.57571 0.74651 0.0
C2349 C 0.99431 0.60353 0.72686 0.0
C2350 C 0.98436 0.56402 0.75822 0.0
C2351 C 0.00117 0.56704 0.76217 0.0
C2352 C 0.99644 0.59069 0.73891 0.0
C2353 C 0.01532 0.58217 0.75414 0.0
C2354 C 0.00793 0.62074 0.72515 0.0
C2355 C 0.97604 0.61016 0.70682 0.0
N2356 N 0.01263 0.59346 0.74298 0.0
N2357 N 0.97885 0.59877 0.7176 0.0
H2358 H 0.38886 0.36552 0.68846 0.0
H2359 H 0.404 0.42764 0.78416 0.0
H2360 H 0.34811 0.35915 0.72953 0.0
H2361 H 0.44309 0.4387 0.73823 0.0
H2362 H 0.38347 0.4023 0.76449 0.0
H2363 H 0.40915 0.39214 0.70667 0.0
C2364 C 0.38418 0.36977 0.70125 0.0
C2365 C 0.3668 0.36012 0.70753 0.0
C2366 C 0.39653 0.4103 0.75867 0.0
C2367 C 0.3899 0.39044 0.72848 0.0
C2368 C 0.40825 0.42485 0.76985 0.0
C2369 C 0.42534 0.43536 0.76288 0.0
C2370 C 0.40191 0.40612 0.74039 0.0
C2371 C 0.43014 0.43085 0.74439 0.0
C2372 C 0.39575 0.38495 0.71163 0.0
C2373 C 0.36141 0.3662 0.72418 0.0
N2374 N 0.41851 0.41655 0.73383 0.0
N2375 N 0.37292 0.38092 0.73413 0.0
H2376 H 0.63886 0.03146 0.69219 0.0
H2377 H 0.56041 0.96912 0.7661 0.0
H2378 H 0.63434 0.98561 0.72034 0.0
H2379 H 0.5727 0.02113 0.75075 0.0
H2380 H 0.58544 0.97332 0.74598 0.0
H2381 H 0.61256 0.02626 0.71022 0.0
C2382 C 0.63228 0.02026 0.70209 0.0
C2383 C 0.6388 0.00898 0.70485 0.0
C2384 C 0.58264 0.9838 0.747 0.0
C2385 C 0.60874 0.00293 0.72544 0.0
C2386 C 0.56832 0.98138 0.75838 0.0
C2387 C 0.56453 0.99482 0.76014 0.0
C2388 C 0.59315 -0.00027 0.73716 0.0
C2389 C 0.57529 0.0105 0.74998 0.0
C2390 C 0.61732 0.01733 0.71241 0.0
C2391 C 0.62978 0.99467 0.71785 0.0
N2392 N 0.5891 0.01252 0.73889 0.0
N2393 N 0.6152 0.99204 0.72766 0.0
loop_
_geom_bond_atom_site_label_1
_geom_bond_atom_site_label_2
_geom_bond_distance
_geom_bond_site_symmetry_2
_ccdc_geom_bond_type
In0 O1 2.269 1_455 S
In0 O2 2.329 . S
In0 O6 2.239 1_455 S
In0 O7 2.332 1_454 S
In0 O8 2.275 1_554 S
In0 O9 2.294 1_454 S
In0 O11 2.337 . S
In0 O12 2.350 . S
O1 In0 2.269 1_655 S
O1 C10 1.224 1_655 S
O2 In0 2.329 . S
O2 C10 1.283 . S
C3 O6 1.252 1_556 S
C3 O7 1.260 . S
C4 O11 1.240 . S
C4 O12 1.252 . S
C5 O8 1.269 . S
C5 O9 1.248 1_455 S
O6 In0 2.239 1_655 S
O6 C3 1.252 1_554 S
O7 In0 2.332 1_656 S
O7 C3 1.260 . S
O8 In0 2.275 1_556 S
O8 C5 1.269 . S
O9 In0 2.294 1_656 S
O9 C5 1.248 1_655 S
C10 O1 1.224 1_455 S
C10 O2 1.283 . S
O11 In0 2.337 . S
O11 C4 1.240 . S
O12 In0 2.350 . S
O12 C4 1.252 . S
In13 O14 2.294 . S
In13 O15 2.326 . S
In13 O19 2.266 . S
In13 O20 2.326 1_554 S
In13 O21 2.266 1_554 S
In13 O22 2.326 1_554 S
In13 O24 2.294 . S
In13 O25 2.326 . S
O14 In13 2.294 . S
O14 C23 1.240 . S
O15 In13 2.326 . S
O15 C23 1.252 . S
C16 O19 1.252 1_556 S
C16 O20 1.260 . S
C17 O24 1.240 . S
C17 O25 1.252 . S
C18 O21 1.252 . S
C18 O22 1.260 . S
O19 In13 2.266 . S
O19 C16 1.252 1_554 S
O20 In13 2.326 1_556 S
O20 C16 1.260 . S
O21 In13 2.266 1_556 S
O21 C18 1.252 . S
O22 In13 2.326 1_556 S
O22 C18 1.260 . S
C23 O14 1.240 . S
C23 O15 1.252 . S
O24 In13 2.294 . S
O24 C17 1.240 . S
O25 In13 2.326 . S
O25 C17 1.252 . S
In26 O27 2.354 . S
In26 O28 2.360 1_554 S
In26 O32 2.279 . S
In26 O33 2.282 1_545 S
In26 O34 2.229 1_545 S
In26 O35 2.335 1_545 S
In26 O37 2.260 1_544 S
In26 O38 2.331 1_554 S
O27 In26 2.354 . S
O27 C36 1.240 1_554 S
O28 In26 2.360 1_556 S
O28 C36 1.252 . S
C29 O32 1.288 . S
C29 O33 1.234 1_545 S
C30 O37 1.217 1_545 S
C30 O38 1.297 . S
C31 O34 1.252 . S
C31 O35 1.260 . S
O32 In26 2.279 . S
O32 C29 1.288 . S
O33 In26 2.282 1_565 S
O33 C29 1.234 1_565 S
O34 In26 2.229 1_565 S
O34 C31 1.252 . S
O35 In26 2.335 1_565 S
O35 C31 1.260 . S
C36 O27 1.240 1_556 S
C36 O28 1.252 . S
O37 In26 2.260 1_566 S
O37 C30 1.217 1_565 S
O38 In26 2.331 1_556 S
O38 C30 1.297 . S
In39 O40 2.293 1_554 S
In39 O41 2.326 1_454 S
In39 O45 2.265 . S
In39 O46 2.326 . S
In39 O47 2.267 1_455 S
In39 O48 2.324 . S
In39 O50 2.296 1_455 S
In39 O51 2.328 1_454 S
O40 In39 2.293 1_556 S
O40 C49 1.239 . S
O41 In39 2.326 1_656 S
O41 C49 1.253 1_655 S
C42 O45 1.252 . S
C42 O46 1.260 . S
C43 O50 1.240 1_556 S
C43 O51 1.252 . S
C44 O47 1.231 1_455 S
C44 O48 1.275 . S
O45 In39 2.265 . S
O45 C42 1.252 . S
O46 In39 2.326 . S
O46 C42 1.260 . S
O47 In39 2.267 1_655 S
O47 C44 1.231 1_655 S
O48 In39 2.324 . S
O48 C44 1.275 . S
C49 O40 1.239 . S
C49 O41 1.253 1_455 S
O50 In39 2.296 1_655 S
O50 C43 1.240 1_554 S
O51 In39 2.328 1_656 S
O51 C43 1.252 . S
In52 O53 2.294 1_554 S
In52 O54 2.326 1_554 S
In52 O58 2.266 . S
In52 O59 2.326 . S
In52 O60 2.266 . S
In52 O61 2.326 . S
In52 O63 2.294 . S
In52 O64 2.326 1_554 S
O53 In52 2.294 1_556 S
O53 C62 1.240 . S
O54 In52 2.326 1_556 S
O54 C62 1.252 . S
C55 O58 1.252 . S
C55 O59 1.260 . S
C56 O63 1.240 1_556 S
C56 O64 1.252 . S
C57 O60 1.252 . S
C57 O61 1.260 . S
O58 In52 2.266 . S
O58 C55 1.252 . S
O59 In52 2.326 . S
O59 C55 1.260 . S
O60 In52 2.266 . S
O60 C57 1.252 . S
O61 In52 2.326 . S
O61 C57 1.260 . S
C62 O53 1.240 . S
C62 O54 1.252 . S
O63 In52 2.294 . S
O63 C56 1.240 1_554 S
O64 In52 2.326 1_556 S
O64 C56 1.252 . S
In65 O66 2.293 . S
In65 O67 2.326 1_545 S
In65 O71 2.265 . S
In65 O72 2.326 1_554 S
In65 O73 2.267 1_544 S
In65 O74 2.324 1_554 S
In65 O76 2.296 1_545 S
In65 O77 2.328 1_545 S
O66 In65 2.293 . S
O66 C75 1.239 . S
O67 In65 2.326 1_565 S
O67 C75 1.255 1_565 S
C68 O71 1.252 1_556 S
C68 O72 1.260 . S
C69 O76 1.240 . S
C69 O77 1.252 . S
C70 O73 1.234 1_545 S
C70 O74 1.273 . S
O71 In65 2.265 . S
O71 C68 1.252 1_554 S
O72 In65 2.326 1_556 S
O72 C68 1.260 . S
O73 In65 2.267 1_566 S
O73 C70 1.234 1_565 S
O74 In65 2.324 1_556 S
O74 C70 1.273 . S
C75 O66 1.239 . S
C75 O67 1.255 1_545 S
O76 In65 2.296 1_565 S
O76 C69 1.240 . S
O77 In65 2.328 1_565 S
O77 C69 1.252 . S
In78 O79 2.294 . S
In78 O80 2.326 . S
In78 O84 2.266 . S
In78 O85 2.326 . S
In78 O86 2.266 . S
In78 O87 2.326 . S
In78 O89 2.294 . S
In78 O90 2.326 . S
O79 In78 2.294 . S
O79 C88 1.240 . S
O80 In78 2.326 . S
O80 C88 1.252 . S
C81 O84 1.252 . S
C81 O85 1.260 . S
C82 O89 1.240 . S
C82 O90 1.252 . S
C83 O86 1.252 . S
C83 O87 1.260 . S
O84 In78 2.266 . S
O84 C81 1.252 . S
O85 In78 2.326 . S
O85 C81 1.260 . S
O86 In78 2.266 . S
O86 C83 1.252 . S
O87 In78 2.326 . S
O87 C83 1.260 . S
C88 O79 1.240 . S
C88 O80 1.252 . S
O89 In78 2.294 . S
O89 C82 1.240 . S
O90 In78 2.326 . S
O90 C82 1.252 . S
In91 O92 2.294 . S
In91 O93 2.326 . S
In91 O97 2.266 . S
In91 O98 2.326 . S
In91 O99 2.266 . S
In91 O100 2.326 . S
In91 O102 2.294 1_565 S
In91 O103 2.326 1_565 S
O92 In91 2.294 . S
O92 C101 1.240 . S
O93 In91 2.326 . S
O93 C101 1.252 . S
C94 O97 1.252 . S
C94 O98 1.260 . S
C95 O102 1.240 . S
C95 O103 1.252 . S
C96 O99 1.252 . S
C96 O100 1.260 . S
O97 In91 2.266 . S
O97 C94 1.252 . S
O98 In91 2.326 . S
O98 C94 1.260 . S
O99 In91 2.266 . S
O99 C96 1.252 . S
O100 In91 2.326 . S
O100 C96 1.260 . S
C101 O92 1.240 . S
C101 O93 1.252 . S
O102 In91 2.294 1_545 S
O102 C95 1.240 . S
O103 In91 2.326 1_545 S
O103 C95 1.252 . S
In104 O105 2.294 . S
In104 O106 2.326 . S
In104 O110 2.266 . S
In104 O111 2.326 . S
In104 O112 2.266 1_455 S
In104 O113 2.326 1_455 S
In104 O115 2.294 . S
In104 O116 2.326 . S
O105 In104 2.294 . S
O105 C114 1.240 . S
O106 In104 2.326 . S
O106 C114 1.252 . S
C107 O110 1.252 . S
C107 O111 1.260 . S
C108 O115 1.240 . S
C108 O116 1.252 . S
C109 O112 1.252 . S
C109 O113 1.260 . S
O110 In104 2.266 . S
O110 C107 1.252 . S
O111 In104 2.326 . S
O111 C107 1.260 . S
O112 In104 2.266 1_655 S
O112 C109 1.252 . S
O113 In104 2.326 1_655 S
O113 C109 1.260 . S
C114 O105 1.240 . S
C114 O106 1.252 . S
O115 In104 2.294 . S
O115 C108 1.240 . S
O116 In104 2.326 . S
O116 C108 1.252 . S
In117 O118 2.294 . S
In117 O119 2.326 . S
In117 O123 2.266 1_565 S
In117 O124 2.326 1_565 S
In117 O125 2.266 . S
In117 O126 2.326 . S
In117 O128 2.294 . S
In117 O129 2.326 . S
O118 In117 2.294 . S
O118 C127 1.240 . S
O119 In117 2.326 . S
O119 C127 1.252 . S
C120 O123 1.252 . S
C120 O124 1.260 . S
C121 O128 1.240 . S
C121 O129 1.252 . S
C122 O125 1.252 . S
C122 O126 1.260 . S
O123 In117 2.266 1_545 S
O123 C120 1.252 . S
O124 In117 2.326 1_545 S
O124 C120 1.260 . S
O125 In117 2.266 . S
O125 C122 1.252 . S
O126 In117 2.326 . S
O126 C122 1.260 . S
C127 O118 1.240 . S
C127 O119 1.252 . S
O128 In117 2.294 . S
O128 C121 1.240 . S
O129 In117 2.326 . S
O129 C121 1.252 . S
In130 O131 2.294 . S
In130 O132 2.326 . S
In130 O136 2.266 1_455 S
In130 O137 2.326 1_455 S
In130 O138 2.266 . S
In130 O139 2.326 . S
In130 O141 2.294 . S
In130 O142 2.326 . S
O131 In130 2.294 . S
O131 C140 1.240 . S
O132 In130 2.326 . S
O132 C140 1.252 . S
C133 O136 1.252 . S
C133 O137 1.260 . S
C134 O141 1.240 . S
C134 O142 1.252 . S
C135 O138 1.252 . S
C135 O139 1.260 . S
O136 In130 2.266 1_655 S
O136 C133 1.252 . S
O137 In130 2.326 1_655 S
O137 C133 1.260 . S
O138 In130 2.266 . S
O138 C135 1.252 . S
O139 In130 2.326 . S
O139 C135 1.260 . S
C140 O131 1.240 . S
C140 O132 1.252 . S
O141 In130 2.294 . S
O141 C134 1.240 . S
O142 In130 2.326 . S
O142 C134 1.252 . S
In143 O144 2.294 . S
In143 O145 2.326 . S
In143 O149 2.266 . S
In143 O150 2.326 . S
In143 O151 2.266 . S
In143 O152 2.326 . S
In143 O154 2.294 . S
In143 O155 2.326 . S
O144 In143 2.294 . S
O144 C153 1.240 . S
O145 In143 2.326 . S
O145 C153 1.252 . S
C146 O149 1.252 . S
C146 O150 1.260 . S
C147 O154 1.240 . S
C147 O155 1.252 . S
C148 O151 1.252 . S
C148 O152 1.260 . S
O149 In143 2.266 . S
O149 C146 1.252 . S
O150 In143 2.326 . S
O150 C146 1.260 . S
O151 In143 2.266 . S
O151 C148 1.252 . S
O152 In143 2.326 . S
O152 C148 1.260 . S
C153 O144 1.240 . S
C153 O145 1.252 . S
O154 In143 2.294 . S
O154 C147 1.240 . S
O155 In143 2.326 . S
O155 C147 1.252 . S
In156 O157 2.294 . S
In156 O158 2.326 . S
In156 O162 2.266 . S
In156 O163 2.326 . S
In156 O164 2.266 1_545 S
In156 O165 2.326 1_545 S
In156 O167 2.294 . S
In156 O168 2.326 . S
O157 In156 2.294 . S
O157 C166 1.240 . S
O158 In156 2.326 . S
O158 C166 1.252 . S
C159 O162 1.252 . S
C159 O163 1.260 . S
C160 O167 1.240 . S
C160 O168 1.252 . S
C161 O164 1.252 . S
C161 O165 1.260 . S
O162 In156 2.266 . S
O162 C159 1.252 . S
O163 In156 2.326 . S
O163 C159 1.260 . S
O164 In156 2.266 1_565 S
O164 C161 1.252 . S
O165 In156 2.326 1_565 S
O165 C161 1.260 . S
C166 O157 1.240 . S
C166 O158 1.252 . S
O167 In156 2.294 . S
O167 C160 1.240 . S
O168 In156 2.326 . S
O168 C160 1.252 . S
In169 O170 2.294 . S
In169 O171 2.326 . S
In169 O175 2.266 . S
In169 O176 2.326 . S
In169 O177 2.266 1_655 S
In169 O178 2.326 1_655 S
In169 O180 2.294 . S
In169 O181 2.326 . S
O170 In169 2.294 . S
O170 C179 1.240 . S
O171 In169 2.326 . S
O171 C179 1.252 . S
C172 O175 1.252 . S
C172 O176 1.260 . S
C173 O180 1.240 . S
C173 O181 1.252 . S
C174 O177 1.252 . S
C174 O178 1.260 . S
O175 In169 2.266 . S
O175 C172 1.252 . S
O176 In169 2.326 . S
O176 C172 1.260 . S
O177 In169 2.266 1_455 S
O177 C174 1.252 . S
O178 In169 2.326 1_455 S
O178 C174 1.260 . S
C179 O170 1.240 . S
C179 O171 1.252 . S
O180 In169 2.294 . S
O180 C173 1.240 . S
O181 In169 2.326 . S
O181 C173 1.252 . S
In182 O183 2.294 . S
In182 O184 2.326 . S
In182 O188 2.266 . S
In182 O189 2.326 . S
In182 O190 2.266 . S
In182 O191 2.326 . S
In182 O193 2.294 . S
In182 O194 2.326 . S
O183 In182 2.294 . S
O183 C192 1.240 . S
O184 In182 2.326 . S
O184 C192 1.252 . S
C185 O188 1.252 . S
C185 O189 1.260 . S
C186 O193 1.240 . S
C186 O194 1.252 . S
C187 O190 1.252 . S
C187 O191 1.260 . S
O188 In182 2.266 . S
O188 C185 1.252 . S
O189 In182 2.326 . S
O189 C185 1.260 . S
O190 In182 2.266 . S
O190 C187 1.252 . S
O191 In182 2.326 . S
O191 C187 1.260 . S
C192 O183 1.240 . S
C192 O184 1.252 . S
O193 In182 2.294 . S
O193 C186 1.240 . S
O194 In182 2.326 . S
O194 C186 1.252 . S
In195 O196 2.294 . S
In195 O197 2.326 . S
In195 O201 2.266 . S
In195 O202 2.326 . S
In195 O203 2.266 . S
In195 O204 2.326 . S
In195 O206 2.294 . S
In195 O207 2.326 . S
O196 In195 2.294 . S
O196 C205 1.240 . S
O197 In195 2.326 . S
O197 C205 1.252 . S
C198 O201 1.252 . S
C198 O202 1.260 . S
C199 O206 1.240 . S
C199 O207 1.252 . S
C200 O203 1.252 . S
C200 O204 1.260 . S
O201 In195 2.266 . S
O201 C198 1.252 . S
O202 In195 2.326 . S
O202 C198 1.260 . S
O203 In195 2.266 . S
O203 C200 1.252 . S
O204 In195 2.326 . S
O204 C200 1.260 . S
C205 O196 1.240 . S
C205 O197 1.252 . S
O206 In195 2.294 . S
O206 C199 1.240 . S
O207 In195 2.326 . S
O207 C199 1.252 . S
In208 O209 2.294 . S
In208 O210 2.326 . S
In208 O214 2.266 . S
In208 O215 2.326 . S
In208 O216 2.266 . S
In208 O217 2.326 . S
In208 O219 2.294 1_545 S
In208 O220 2.326 1_545 S
O209 In208 2.294 . S
O209 C218 1.240 . S
O210 In208 2.326 . S
O210 C218 1.252 . S
C211 O214 1.252 . S
C211 O215 1.260 . S
C212 O219 1.240 . S
C212 O220 1.252 . S
C213 O216 1.252 . S
C213 O217 1.260 . S
O214 In208 2.266 . S
O214 C211 1.252 . S
O215 In208 2.326 . S
O215 C211 1.260 . S
O216 In208 2.266 . S
O216 C213 1.252 . S
O217 In208 2.326 . S
O217 C213 1.260 . S
C218 O209 1.240 . S
C218 O210 1.252 . S
O219 In208 2.294 1_565 S
O219 C212 1.240 . S
O220 In208 2.326 1_565 S
O220 C212 1.252 . S
In221 O222 2.294 . S
In221 O223 2.326 . S
In221 O227 2.266 . S
In221 O228 2.326 . S
In221 O229 2.266 1_655 S
In221 O230 2.326 1_655 S
In221 O232 2.294 . S
In221 O233 2.326 . S
O222 In221 2.294 . S
O222 C231 1.240 . S
O223 In221 2.326 . S
O223 C231 1.252 . S
C224 O227 1.252 . S
C224 O228 1.260 . S
C225 O232 1.240 . S
C225 O233 1.252 . S
C226 O229 1.252 . S
C226 O230 1.260 . S
O227 In221 2.266 . S
O227 C224 1.252 . S
O228 In221 2.326 . S
O228 C224 1.260 . S
O229 In221 2.266 1_455 S
O229 C226 1.252 . S
O230 In221 2.326 1_455 S
O230 C226 1.260 . S
C231 O222 1.240 . S
C231 O223 1.252 . S
O232 In221 2.294 . S
O232 C225 1.240 . S
O233 In221 2.326 . S
O233 C225 1.252 . S
H234 C253 0.949 . S
H235 C254 0.950 . S
H236 C256 0.950 . S
H237 C257 0.950 . S
H238 C259 0.950 . S
H239 C262 0.950 . S
H240 C263 0.950 . S
H241 C265 0.951 . S
H242 C266 0.949 . S
H243 C268 0.949 . S
H244 C269 0.950 . S
H245 C271 0.950 . S
H246 C272 0.950 . S
H247 C274 0.950 . S
H248 C277 0.950 . S
H249 C278 0.950 . S
H250 C280 0.951 . S
H251 C281 0.949 . S
C252 C253 1.376 . S
C252 C257 1.386 . S
C252 C258 1.483 . S
C253 H234 0.949 . S
C253 C252 1.376 . S
C253 C254 1.397 . S
C254 H235 0.950 . S
C254 C253 1.397 . S
C254 C255 1.391 . S
C255 C254 1.391 . S
C255 C256 1.405 . S
C256 H236 0.950 . S
C256 C255 1.405 . S
C256 C257 1.367 . S
C257 H237 0.950 . S
C257 C252 1.386 . S
C257 C256 1.367 . S
C258 C252 1.483 . S
C258 C259 1.382 . S
C258 C260 1.403 . S
C259 H238 0.950 . S
C259 C258 1.382 . S
C259 C275 1.411 . S
C260 C258 1.403 . S
C260 C261 1.489 . S
C260 C274 1.411 . S
C261 C260 1.489 . S
C261 C262 1.383 . S
C261 C266 1.382 . S
C262 H239 0.950 . S
C262 C261 1.383 . S
C262 C263 1.395 . S
C263 H240 0.950 . S
C263 C262 1.395 . S
C263 C264 1.288 . S
C264 C263 1.288 . S
C264 C265 1.392 . S
C265 H241 0.951 . S
C265 C264 1.392 . S
C265 C266 1.392 . S
C266 H242 0.949 . S
C266 C261 1.382 . S
C266 C265 1.392 . S
C267 C268 1.376 . S
C267 C272 1.386 . S
C267 C273 1.483 . S
C268 H243 0.949 . S
C268 C267 1.376 . S
C268 C269 1.397 . S
C269 H244 0.950 . S
C269 C268 1.397 . S
C269 C270 1.391 . S
C270 C269 1.391 . S
C270 C271 1.405 . S
C271 H245 0.950 . S
C271 C270 1.405 . S
C271 C272 1.367 . S
C272 H246 0.950 . S
C272 C267 1.386 . S
C272 C271 1.367 . S
C273 C267 1.483 . S
C273 C274 1.382 . S
C273 C275 1.403 . S
C274 H247 0.950 . S
C274 C260 1.411 . S
C274 C273 1.382 . S
C275 C259 1.411 . S
C275 C273 1.403 . S
C275 C276 1.489 . S
C276 C275 1.489 . S
C276 C277 1.383 . S
C276 C281 1.382 . S
C277 H248 0.950 . S
C277 C276 1.383 . S
C277 C278 1.395 . S
C278 H249 0.950 . S
C278 C277 1.395 . S
C278 C279 1.288 . S
C279 C278 1.288 . S
C279 C280 1.392 . S
C280 H250 0.951 . S
C280 C279 1.392 . S
C280 C281 1.392 . S
C281 H251 0.949 . S
C281 C276 1.382 . S
C281 C280 1.392 . S
H282 C301 0.949 . S
H283 C302 0.950 . S
H284 C304 0.950 . S
H285 C305 0.950 . S
H286 C307 0.950 . S
H287 C310 0.950 . S
H288 C311 0.950 . S
H289 C313 0.951 . S
H290 C314 0.949 . S
H291 C316 0.949 . S
H292 C317 0.950 . S
H293 C319 0.950 . S
H294 C320 0.950 . S
H295 C322 0.950 . S
H296 C325 0.950 . S
H297 C326 0.950 . S
H298 C328 0.951 . S
H299 C329 0.949 . S
C300 C301 1.376 . S
C300 C305 1.386 . S
C300 C306 1.483 . S
C301 H282 0.949 . S
C301 C300 1.376 . S
C301 C302 1.397 . S
C302 H283 0.950 . S
C302 C301 1.397 . S
C302 C303 1.391 . S
C303 C302 1.391 . S
C303 C304 1.405 . S
C304 H284 0.950 . S
C304 C303 1.405 . S
C304 C305 1.367 . S
C305 H285 0.950 . S
C305 C300 1.386 . S
C305 C304 1.367 . S
C306 C300 1.483 . S
C306 C307 1.382 . S
C306 C308 1.403 . S
C307 H286 0.950 . S
C307 C306 1.382 . S
C307 C323 1.411 . S
C308 C306 1.403 . S
C308 C309 1.489 . S
C308 C322 1.411 . S
C309 C308 1.489 . S
C309 C310 1.383 . S
C309 C314 1.382 . S
C310 H287 0.950 . S
C310 C309 1.383 . S
C310 C311 1.395 . S
C311 H288 0.950 . S
C311 C310 1.395 . S
C311 C312 1.288 . S
C312 C311 1.288 . S
C312 C313 1.392 . S
C313 H289 0.951 . S
C313 C312 1.392 . S
C313 C314 1.392 . S
C314 H290 0.949 . S
C314 C309 1.382 . S
C314 C313 1.392 . S
C315 C316 1.376 . S
C315 C320 1.386 . S
C315 C321 1.483 . S
C316 H291 0.949 . S
C316 C315 1.376 . S
C316 C317 1.397 . S
C317 H292 0.950 . S
C317 C316 1.397 . S
C317 C318 1.391 . S
C318 C317 1.391 . S
C318 C319 1.405 . S
C319 H293 0.950 . S
C319 C318 1.405 . S
C319 C320 1.367 . S
C320 H294 0.950 . S
C320 C315 1.386 . S
C320 C319 1.367 . S
C321 C315 1.483 . S
C321 C322 1.382 . S
C321 C323 1.403 . S
C322 H295 0.950 . S
C322 C308 1.411 . S
C322 C321 1.382 . S
C323 C307 1.411 . S
C323 C321 1.403 . S
C323 C324 1.489 . S
C324 C323 1.489 . S
C324 C325 1.383 . S
C324 C329 1.382 . S
C325 H296 0.950 . S
C325 C324 1.383 . S
C325 C326 1.395 . S
C326 H297 0.950 . S
C326 C325 1.395 . S
C326 C327 1.288 . S
C327 C326 1.288 . S
C327 C328 1.392 . S
C328 H298 0.951 . S
C328 C327 1.392 . S
C328 C329 1.392 . S
C329 H299 0.949 . S
C329 C324 1.382 . S
C329 C328 1.392 . S
H330 C349 0.949 . S
H331 C350 0.950 . S
H332 C352 0.950 . S
H333 C353 0.950 . S
H334 C355 0.950 . S
H335 C358 0.950 . S
H336 C359 0.950 . S
H337 C361 0.951 . S
H338 C362 0.949 . S
H339 C364 0.949 . S
H340 C365 0.950 . S
H341 C367 0.950 . S
H342 C368 0.950 . S
H343 C370 0.950 . S
H344 C373 0.950 . S
H345 C374 0.950 . S
H346 C376 0.951 . S
H347 C377 0.949 . S
C348 C349 1.376 . S
C348 C353 1.386 . S
C348 C354 1.483 . S
C349 H330 0.949 . S
C349 C348 1.376 . S
C349 C350 1.397 . S
C350 H331 0.950 . S
C350 C349 1.397 . S
C350 C351 1.391 . S
C351 C350 1.391 . S
C351 C352 1.405 . S
C352 H332 0.950 . S
C352 C351 1.405 . S
C352 C353 1.367 . S
C353 H333 0.950 . S
C353 C348 1.386 . S
C353 C352 1.367 . S
C354 C348 1.483 . S
C354 C355 1.382 . S
C354 C356 1.403 . S
C355 H334 0.950 . S
C355 C354 1.382 . S
C355 C371 1.411 . S
C356 C354 1.403 . S
C356 C357 1.489 . S
C356 C370 1.411 . S
C357 C356 1.489 . S
C357 C358 1.383 . S
C357 C362 1.382 . S
C358 H335 0.950 . S
C358 C357 1.383 . S
C358 C359 1.395 . S
C359 H336 0.950 . S
C359 C358 1.395 . S
C359 C360 1.288 . S
C360 C359 1.288 . S
C360 C361 1.392 . S
C361 H337 0.951 . S
C361 C360 1.392 . S
C361 C362 1.392 . S
C362 H338 0.949 . S
C362 C357 1.382 . S
C362 C361 1.392 . S
C363 C364 1.376 . S
C363 C368 1.386 . S
C363 C369 1.483 . S
C364 H339 0.949 . S
C364 C363 1.376 . S
C364 C365 1.397 . S
C365 H340 0.950 . S
C365 C364 1.397 . S
C365 C366 1.391 . S
C366 C365 1.391 . S
C366 C367 1.405 . S
C367 H341 0.950 . S
C367 C366 1.405 . S
C367 C368 1.367 . S
C368 H342 0.950 . S
C368 C363 1.386 . S
C368 C367 1.367 . S
C369 C363 1.483 . S
C369 C370 1.382 . S
C369 C371 1.403 . S
C370 H343 0.950 . S
C370 C356 1.411 . S
C370 C369 1.382 . S
C371 C355 1.411 . S
C371 C369 1.403 . S
C371 C372 1.489 . S
C372 C371 1.489 . S
C372 C373 1.383 . S
C372 C377 1.382 . S
C373 H344 0.950 . S
C373 C372 1.383 . S
C373 C374 1.395 . S
C374 H345 0.950 . S
C374 C373 1.395 . S
C374 C375 1.288 . S
C375 C374 1.288 . S
C375 C376 1.392 . S
C376 H346 0.951 . S
C376 C375 1.392 . S
C376 C377 1.392 . S
C377 H347 0.949 . S
C377 C372 1.382 . S
C377 C376 1.392 . S
H378 C397 0.949 . S
H379 C398 0.950 . S
H380 C400 0.950 . S
H381 C401 0.950 . S
H382 C403 0.950 . S
H383 C406 0.950 . S
H384 C407 0.950 . S
H385 C409 0.951 . S
H386 C410 0.949 . S
H387 C412 0.949 . S
H388 C413 0.950 . S
H389 C415 0.950 . S
H390 C416 0.950 . S
H391 C418 0.950 . S
H392 C421 0.950 . S
H393 C422 0.950 . S
H394 C424 0.951 . S
H395 C425 0.949 . S
C396 C397 1.376 . S
C396 C401 1.386 . S
C396 C402 1.483 . S
C397 H378 0.949 . S
C397 C396 1.376 . S
C397 C398 1.397 . S
C398 H379 0.950 . S
C398 C397 1.397 . S
C398 C399 1.391 . S
C399 C398 1.391 . S
C399 C400 1.405 . S
C400 H380 0.950 . S
C400 C399 1.405 . S
C400 C401 1.367 . S
C401 H381 0.950 . S
C401 C396 1.386 . S
C401 C400 1.367 . S
C402 C396 1.483 . S
C402 C403 1.382 . S
C402 C404 1.403 . S
C403 H382 0.950 . S
C403 C402 1.382 . S
C403 C419 1.411 . S
C404 C402 1.403 . S
C404 C405 1.489 . S
C404 C418 1.411 . S
C405 C404 1.489 . S
C405 C406 1.383 . S
C405 C410 1.382 . S
C406 H383 0.950 . S
C406 C405 1.383 . S
C406 C407 1.395 . S
C407 H384 0.950 . S
C407 C406 1.395 . S
C407 C408 1.288 . S
C408 C407 1.288 . S
C408 C409 1.392 . S
C409 H385 0.951 . S
C409 C408 1.392 . S
C409 C410 1.392 . S
C410 H386 0.949 . S
C410 C405 1.382 . S
C410 C409 1.392 . S
C411 C412 1.376 . S
C411 C416 1.386 . S
C411 C417 1.483 . S
C412 H387 0.949 . S
C412 C411 1.376 . S
C412 C413 1.397 . S
C413 H388 0.950 . S
C413 C412 1.397 . S
C413 C414 1.391 . S
C414 C413 1.391 . S
C414 C415 1.405 . S
C415 H389 0.950 . S
C415 C414 1.405 . S
C415 C416 1.367 . S
C416 H390 0.950 . S
C416 C411 1.386 . S
C416 C415 1.367 . S
C417 C411 1.483 . S
C417 C418 1.382 . S
C417 C419 1.403 . S
C418 H391 0.950 . S
C418 C404 1.411 . S
C418 C417 1.382 . S
C419 C403 1.411 . S
C419 C417 1.403 . S
C419 C420 1.489 . S
C420 C419 1.489 . S
C420 C421 1.383 . S
C420 C425 1.382 . S
C421 H392 0.950 . S
C421 C420 1.383 . S
C421 C422 1.395 . S
C422 H393 0.950 . S
C422 C421 1.395 . S
C422 C423 1.288 . S
C423 C422 1.288 . S
C423 C424 1.392 . S
C424 H394 0.951 . S
C424 C423 1.392 . S
C424 C425 1.392 . S
C425 H395 0.949 . S
C425 C420 1.382 . S
C425 C424 1.392 . S
H426 C445 0.949 . S
H427 C446 0.950 . S
H428 C448 0.950 . S
H429 C449 0.950 . S
H430 C451 0.950 . S
H431 C454 0.950 . S
H432 C455 0.950 . S
H433 C457 0.951 . S
H434 C458 0.949 . S
H435 C460 0.949 . S
H436 C461 0.950 . S
H437 C463 0.950 . S
H438 C464 0.950 . S
H439 C466 0.950 . S
H440 C469 0.950 . S
H441 C470 0.950 . S
H442 C472 0.951 . S
H443 C473 0.949 . S
C444 C445 1.376 . S
C444 C449 1.386 . S
C444 C450 1.483 . S
C445 H426 0.949 . S
C445 C444 1.376 . S
C445 C446 1.397 . S
C446 H427 0.950 . S
C446 C445 1.397 . S
C446 C447 1.391 . S
C447 C446 1.391 . S
C447 C448 1.405 . S
C448 H428 0.950 . S
C448 C447 1.405 . S
C448 C449 1.367 . S
C449 H429 0.950 . S
C449 C444 1.386 . S
C449 C448 1.367 . S
C450 C444 1.483 . S
C450 C451 1.382 . S
C450 C452 1.403 . S
C451 H430 0.950 . S
C451 C450 1.382 . S
C451 C467 1.411 . S
C452 C450 1.403 . S
C452 C453 1.489 . S
C452 C466 1.411 . S
C453 C452 1.489 . S
C453 C454 1.383 . S
C453 C458 1.382 . S
C454 H431 0.950 . S
C454 C453 1.383 . S
C454 C455 1.395 . S
C455 H432 0.950 . S
C455 C454 1.395 . S
C455 C456 1.288 . S
C456 C455 1.288 . S
C456 C457 1.392 . S
C457 H433 0.951 . S
C457 C456 1.392 . S
C457 C458 1.392 . S
C458 H434 0.949 . S
C458 C453 1.382 . S
C458 C457 1.392 . S
C459 C460 1.376 . S
C459 C464 1.386 . S
C459 C465 1.483 . S
C460 H435 0.949 . S
C460 C459 1.376 . S
C460 C461 1.397 . S
C461 H436 0.950 . S
C461 C460 1.397 . S
C461 C462 1.391 . S
C462 C461 1.391 . S
C462 C463 1.405 . S
C463 H437 0.950 . S
C463 C462 1.405 . S
C463 C464 1.367 . S
C464 H438 0.950 . S
C464 C459 1.386 . S
C464 C463 1.367 . S
C465 C459 1.483 . S
C465 C466 1.382 . S
C465 C467 1.403 . S
C466 H439 0.950 . S
C466 C452 1.411 . S
C466 C465 1.382 . S
C467 C451 1.411 . S
C467 C465 1.403 . S
C467 C468 1.489 . S
C468 C467 1.489 . S
C468 C469 1.383 . S
C468 C473 1.382 . S
C469 H440 0.950 . S
C469 C468 1.383 . S
C469 C470 1.395 . S
C470 H441 0.950 . S
C470 C469 1.395 . S
C470 C471 1.288 . S
C471 C470 1.288 . S
C471 C472 1.392 . S
C472 H442 0.951 . S
C472 C471 1.392 . S
C472 C473 1.392 . S
C473 H443 0.949 . S
C473 C468 1.382 . S
C473 C472 1.392 . S
H474 C493 0.949 . S
H475 C494 0.950 . S
H476 C496 0.950 . S
H477 C497 0.950 . S
H478 C499 0.950 . S
H479 C502 0.950 . S
H480 C503 0.950 . S
H481 C505 0.951 . S
H482 C506 0.949 . S
H483 C508 0.949 . S
H484 C509 0.950 . S
H485 C511 0.950 . S
H486 C512 0.950 . S
H487 C514 0.950 . S
H488 C517 0.950 . S
H489 C518 0.950 . S
H490 C520 0.951 . S
H491 C521 0.949 . S
C492 C493 1.376 . S
C492 C497 1.386 . S
C492 C498 1.483 . S
C493 H474 0.949 . S
C493 C492 1.376 . S
C493 C494 1.397 . S
C494 H475 0.950 . S
C494 C493 1.397 . S
C494 C495 1.391 . S
C495 C494 1.391 . S
C495 C496 1.405 . S
C496 H476 0.950 . S
C496 C495 1.405 . S
C496 C497 1.367 . S
C497 H477 0.950 . S
C497 C492 1.386 . S
C497 C496 1.367 . S
C498 C492 1.483 . S
C498 C499 1.382 . S
C498 C500 1.403 . S
C499 H478 0.950 . S
C499 C498 1.382 . S
C499 C515 1.411 . S
C500 C498 1.403 . S
C500 C501 1.489 . S
C500 C514 1.411 . S
C501 C500 1.489 . S
C501 C502 1.383 . S
C501 C506 1.382 . S
C502 H479 0.950 . S
C502 C501 1.383 . S
C502 C503 1.395 . S
C503 H480 0.950 . S
C503 C502 1.395 . S
C503 C504 1.288 . S
C504 C503 1.288 . S
C504 C505 1.392 . S
C505 H481 0.951 . S
C505 C504 1.392 . S
C505 C506 1.392 . S
C506 H482 0.949 . S
C506 C501 1.382 . S
C506 C505 1.392 . S
C507 C508 1.376 . S
C507 C512 1.386 . S
C507 C513 1.483 . S
C508 H483 0.949 . S
C508 C507 1.376 . S
C508 C509 1.397 . S
C509 H484 0.950 . S
C509 C508 1.397 . S
C509 C510 1.391 . S
C510 C509 1.391 . S
C510 C511 1.405 . S
C511 H485 0.950 . S
C511 C510 1.405 . S
C511 C512 1.367 . S
C512 H486 0.950 . S
C512 C507 1.386 . S
C512 C511 1.367 . S
C513 C507 1.483 . S
C513 C514 1.382 . S
C513 C515 1.403 . S
C514 H487 0.950 . S
C514 C500 1.411 . S
C514 C513 1.382 . S
C515 C499 1.411 . S
C515 C513 1.403 . S
C515 C516 1.489 . S
C516 C515 1.489 . S
C516 C517 1.383 . S
C516 C521 1.382 . S
C517 H488 0.950 . S
C517 C516 1.383 . S
C517 C518 1.395 . S
C518 H489 0.950 . S
C518 C517 1.395 . S
C518 C519 1.288 . S
C519 C518 1.288 . S
C519 C520 1.392 . S
C520 H490 0.951 . S
C520 C519 1.392 . S
C520 C521 1.392 . S
C521 H491 0.949 . S
C521 C516 1.382 . S
C521 C520 1.392 . S
H522 C541 0.949 . S
H523 C542 0.950 . S
H524 C544 0.950 . S
H525 C545 0.950 . S
H526 C547 0.950 . S
H527 C550 0.950 . S
H528 C551 0.950 . S
H529 C553 0.951 . S
H530 C554 0.949 . S
H531 C556 0.949 . S
H532 C557 0.950 . S
H533 C559 0.950 . S
H534 C560 0.950 . S
H535 C562 0.950 . S
H536 C565 0.950 . S
H537 C566 0.950 . S
H538 C568 0.951 . S
H539 C569 0.949 . S
C540 C541 1.376 . S
C540 C545 1.386 . S
C540 C546 1.483 . S
C541 H522 0.949 . S
C541 C540 1.376 . S
C541 C542 1.397 . S
C542 H523 0.950 . S
C542 C541 1.397 . S
C542 C543 1.391 . S
C543 C542 1.391 . S
C543 C544 1.405 . S
C544 H524 0.950 . S
C544 C543 1.405 . S
C544 C545 1.367 . S
C545 H525 0.950 . S
C545 C540 1.386 . S
C545 C544 1.367 . S
C546 C540 1.483 . S
C546 C547 1.382 . S
C546 C548 1.403 . S
C547 H526 0.950 . S
C547 C546 1.382 . S
C547 C563 1.411 . S
C548 C546 1.403 . S
C548 C549 1.489 . S
C548 C562 1.411 . S
C549 C548 1.489 . S
C549 C550 1.383 . S
C549 C554 1.382 . S
C550 H527 0.950 . S
C550 C549 1.383 . S
C550 C551 1.395 . S
C551 H528 0.950 . S
C551 C550 1.395 . S
C551 C552 1.288 . S
C552 C551 1.288 . S
C552 C553 1.392 . S
C553 H529 0.951 . S
C553 C552 1.392 . S
C553 C554 1.392 . S
C554 H530 0.949 . S
C554 C549 1.382 . S
C554 C553 1.392 . S
C555 C556 1.376 . S
C555 C560 1.386 . S
C555 C561 1.483 . S
C556 H531 0.949 . S
C556 C555 1.376 . S
C556 C557 1.397 . S
C557 H532 0.950 . S
C557 C556 1.397 . S
C557 C558 1.391 . S
C558 C557 1.391 . S
C558 C559 1.405 . S
C559 H533 0.950 . S
C559 C558 1.405 . S
C559 C560 1.367 . S
C560 H534 0.950 . S
C560 C555 1.386 . S
C560 C559 1.367 . S
C561 C555 1.483 . S
C561 C562 1.382 . S
C561 C563 1.403 . S
C562 H535 0.950 . S
C562 C548 1.411 . S
C562 C561 1.382 . S
C563 C547 1.411 . S
C563 C561 1.403 . S
C563 C564 1.489 . S
C564 C563 1.489 . S
C564 C565 1.383 . S
C564 C569 1.382 . S
C565 H536 0.950 . S
C565 C564 1.383 . S
C565 C566 1.395 . S
C566 H537 0.950 . S
C566 C565 1.395 . S
C566 C567 1.288 . S
C567 C566 1.288 . S
C567 C568 1.392 . S
C568 H538 0.951 . S
C568 C567 1.392 . S
C568 C569 1.392 . S
C569 H539 0.949 . S
C569 C564 1.382 . S
C569 C568 1.392 . S
H570 C589 0.949 . S
H571 C590 0.950 . S
H572 C592 0.950 . S
H573 C593 0.950 . S
H574 C595 0.950 . S
H575 C598 0.950 . S
H576 C599 0.950 . S
H577 C601 0.951 . S
H578 C602 0.949 . S
H579 C604 0.949 . S
H580 C605 0.950 . S
H581 C607 0.950 . S
H582 C608 0.950 . S
H583 C610 0.950 . S
H584 C613 0.950 . S
H585 C614 0.950 . S
H586 C616 0.951 . S
H587 C617 0.949 . S
C588 C589 1.376 . S
C588 C593 1.386 . S
C588 C594 1.483 . S
C589 H570 0.949 . S
C589 C588 1.376 . S
C589 C590 1.397 . S
C590 H571 0.950 . S
C590 C589 1.397 . S
C590 C591 1.391 . S
C591 C590 1.391 . S
C591 C592 1.405 . S
C592 H572 0.950 . S
C592 C591 1.405 . S
C592 C593 1.367 . S
C593 H573 0.950 . S
C593 C588 1.386 . S
C593 C592 1.367 . S
C594 C588 1.483 . S
C594 C595 1.382 . S
C594 C596 1.403 . S
C595 H574 0.950 . S
C595 C594 1.382 . S
C595 C611 1.411 . S
C596 C594 1.403 . S
C596 C597 1.489 . S
C596 C610 1.411 . S
C597 C596 1.489 . S
C597 C598 1.383 . S
C597 C602 1.382 . S
C598 H575 0.950 . S
C598 C597 1.383 . S
C598 C599 1.395 . S
C599 H576 0.950 . S
C599 C598 1.395 . S
C599 C600 1.288 . S
C600 C599 1.288 . S
C600 C601 1.392 . S
C601 H577 0.951 . S
C601 C600 1.392 . S
C601 C602 1.392 . S
C602 H578 0.949 . S
C602 C597 1.382 . S
C602 C601 1.392 . S
C603 C604 1.376 . S
C603 C608 1.386 . S
C603 C609 1.483 . S
C604 H579 0.949 . S
C604 C603 1.376 . S
C604 C605 1.397 . S
C605 H580 0.950 . S
C605 C604 1.397 . S
C605 C606 1.391 . S
C606 C605 1.391 . S
C606 C607 1.405 . S
C607 H581 0.950 . S
C607 C606 1.405 . S
C607 C608 1.367 . S
C608 H582 0.950 . S
C608 C603 1.386 . S
C608 C607 1.367 . S
C609 C603 1.483 . S
C609 C610 1.382 . S
C609 C611 1.403 . S
C610 H583 0.950 . S
C610 C596 1.411 . S
C610 C609 1.382 . S
C611 C595 1.411 . S
C611 C609 1.403 . S
C611 C612 1.489 . S
C612 C611 1.489 . S
C612 C613 1.383 . S
C612 C617 1.382 . S
C613 H584 0.950 . S
C613 C612 1.383 . S
C613 C614 1.395 . S
C614 H585 0.950 . S
C614 C613 1.395 . S
C614 C615 1.288 . S
C615 C614 1.288 . S
C615 C616 1.392 . S
C616 H586 0.951 . S
C616 C615 1.392 . S
C616 C617 1.392 . S
C617 H587 0.949 . S
C617 C612 1.382 . S
C617 C616 1.392 . S
H618 C637 0.949 . S
H619 C638 0.950 . S
H620 C640 0.950 . S
H621 C641 0.950 . S
H622 C643 0.950 . S
H623 C646 0.950 . S
H624 C647 0.950 . S
H625 C649 0.951 . S
H626 C650 0.949 . S
H627 C652 0.949 . S
H628 C653 0.950 . S
H629 C655 0.950 . S
H630 C656 0.950 . S
H631 C658 0.950 . S
H632 C661 0.950 . S
H633 C662 0.950 . S
H634 C664 0.951 . S
H635 C665 0.949 . S
C636 C637 1.376 . S
C636 C641 1.386 . S
C636 C642 1.483 . S
C637 H618 0.949 . S
C637 C636 1.376 . S
C637 C638 1.397 . S
C638 H619 0.950 . S
C638 C637 1.397 . S
C638 C639 1.391 . S
C639 C638 1.391 . S
C639 C640 1.405 . S
C640 H620 0.950 . S
C640 C639 1.405 . S
C640 C641 1.367 . S
C641 H621 0.950 . S
C641 C636 1.386 . S
C641 C640 1.367 . S
C642 C636 1.483 . S
C642 C643 1.382 . S
C642 C644 1.403 . S
C643 H622 0.950 . S
C643 C642 1.382 . S
C643 C659 1.411 . S
C644 C642 1.403 . S
C644 C645 1.489 . S
C644 C658 1.411 . S
C645 C644 1.489 . S
C645 C646 1.383 . S
C645 C650 1.382 . S
C646 H623 0.950 . S
C646 C645 1.383 . S
C646 C647 1.395 . S
C647 H624 0.950 . S
C647 C646 1.395 . S
C647 C648 1.288 . S
C648 C647 1.288 . S
C648 C649 1.392 . S
C649 H625 0.951 . S
C649 C648 1.392 . S
C649 C650 1.392 . S
C650 H626 0.949 . S
C650 C645 1.382 . S
C650 C649 1.392 . S
C651 C652 1.376 . S
C651 C656 1.386 . S
C651 C657 1.483 . S
C652 H627 0.949 . S
C652 C651 1.376 . S
C652 C653 1.397 . S
C653 H628 0.950 . S
C653 C652 1.397 . S
C653 C654 1.391 . S
C654 C653 1.391 . S
C654 C655 1.405 . S
C655 H629 0.950 . S
C655 C654 1.405 . S
C655 C656 1.367 . S
C656 H630 0.950 . S
C656 C651 1.386 . S
C656 C655 1.367 . S
C657 C651 1.483 . S
C657 C658 1.382 . S
C657 C659 1.403 . S
C658 H631 0.950 . S
C658 C644 1.411 . S
C658 C657 1.382 . S
C659 C643 1.411 . S
C659 C657 1.403 . S
C659 C660 1.489 . S
C660 C659 1.489 . S
C660 C661 1.383 . S
C660 C665 1.382 . S
C661 H632 0.950 . S
C661 C660 1.383 . S
C661 C662 1.395 . S
C662 H633 0.950 . S
C662 C661 1.395 . S
C662 C663 1.288 . S
C663 C662 1.288 . S
C663 C664 1.392 . S
C664 H634 0.951 . S
C664 C663 1.392 . S
C664 C665 1.392 . S
C665 H635 0.949 . S
C665 C660 1.382 . S
C665 C664 1.392 . S
H666 C685 0.949 . S
H667 C686 0.950 . S
H668 C688 0.950 . S
H669 C689 0.950 . S
H670 C691 0.950 . S
H671 C694 0.950 . S
H672 C695 0.950 . S
H673 C697 0.951 . S
H674 C698 0.949 . S
H675 C700 0.949 . S
H676 C701 0.950 . S
H677 C703 0.950 . S
H678 C704 0.950 . S
H679 C706 0.950 . S
H680 C709 0.950 . S
H681 C710 0.950 . S
H682 C712 0.951 . S
H683 C713 0.949 . S
C684 C685 1.376 . S
C684 C689 1.386 1_655 S
C684 C690 1.483 . S
C685 H666 0.949 . S
C685 C684 1.376 . S
C685 C686 1.397 . S
C686 H667 0.950 . S
C686 C685 1.397 . S
C686 C687 1.391 . S
C687 C686 1.391 . S
C687 C688 1.405 1_655 S
C688 H668 0.950 . S
C688 C687 1.405 1_455 S
C688 C689 1.367 . S
C689 H669 0.950 . S
C689 C684 1.386 1_455 S
C689 C688 1.367 . S
C690 C684 1.483 . S
C690 C691 1.382 . S
C690 C692 1.403 1_655 S
C691 H670 0.950 . S
C691 C690 1.382 . S
C691 C707 1.411 . S
C692 C690 1.403 1_455 S
C692 C693 1.489 . S
C692 C706 1.411 . S
C693 C692 1.489 . S
C693 C694 1.383 1_455 S
C693 C698 1.382 . S
C694 H671 0.950 . S
C694 C693 1.383 1_655 S
C694 C695 1.395 . S
C695 H672 0.950 . S
C695 C694 1.395 . S
C695 C696 1.288 1_655 S
C696 C695 1.288 1_455 S
C696 C697 1.392 . S
C697 H673 0.951 . S
C697 C696 1.392 . S
C697 C698 1.392 . S
C698 H674 0.949 . S
C698 C693 1.382 . S
C698 C697 1.392 . S
C699 C700 1.376 . S
C699 C704 1.386 1_455 S
C699 C705 1.483 . S
C700 H675 0.949 . S
C700 C699 1.376 . S
C700 C701 1.397 . S
C701 H676 0.950 . S
C701 C700 1.397 . S
C701 C702 1.391 . S
C702 C701 1.391 . S
C702 C703 1.405 1_455 S
C703 H677 0.950 . S
C703 C702 1.405 1_655 S
C703 C704 1.367 . S
C704 H678 0.950 . S
C704 C699 1.386 1_655 S
C704 C703 1.367 . S
C705 C699 1.483 . S
C705 C706 1.382 . S
C705 C707 1.403 1_455 S
C706 H679 0.950 . S
C706 C692 1.411 . S
C706 C705 1.382 . S
C707 C691 1.411 . S
C707 C705 1.403 1_655 S
C707 C708 1.489 . S
C708 C707 1.489 . S
C708 C709 1.383 1_655 S
C708 C713 1.382 . S
C709 H680 0.950 . S
C709 C708 1.383 1_455 S
C709 C710 1.395 . S
C710 H681 0.950 . S
C710 C709 1.395 . S
C710 C711 1.288 1_455 S
C711 C710 1.288 1_655 S
C711 C712 1.392 . S
C712 H682 0.951 . S
C712 C711 1.392 . S
C712 C713 1.392 . S
C713 H683 0.949 . S
C713 C708 1.382 . S
C713 C712 1.392 . S
H714 C733 0.949 . S
H715 C734 0.950 . S
H716 C736 0.950 . S
H717 C737 0.950 . S
H718 C739 0.950 . S
H719 C742 0.950 . S
H720 C743 0.950 . S
H721 C745 0.951 . S
H722 C746 0.949 . S
H723 C748 0.949 . S
H724 C749 0.950 . S
H725 C751 0.950 . S
H726 C752 0.950 . S
H727 C754 0.950 . S
H728 C757 0.950 . S
H729 C758 0.950 . S
H730 C760 0.951 . S
H731 C761 0.949 . S
C732 C733 1.376 . S
C732 C737 1.386 . S
C732 C738 1.483 . S
C733 H714 0.949 . S
C733 C732 1.376 . S
C733 C734 1.397 . S
C734 H715 0.950 . S
C734 C733 1.397 . S
C734 C735 1.391 . S
C735 C734 1.391 . S
C735 C736 1.405 . S
C736 H716 0.950 . S
C736 C735 1.405 . S
C736 C737 1.367 . S
C737 H717 0.950 . S
C737 C732 1.386 . S
C737 C736 1.367 . S
C738 C732 1.483 . S
C738 C739 1.382 . S
C738 C740 1.403 . S
C739 H718 0.950 . S
C739 C738 1.382 . S
C739 C755 1.411 . S
C740 C738 1.403 . S
C740 C741 1.489 . S
C740 C754 1.411 . S
C741 C740 1.489 . S
C741 C742 1.383 . S
C741 C746 1.382 . S
C742 H719 0.950 . S
C742 C741 1.383 . S
C742 C743 1.395 . S
C743 H720 0.950 . S
C743 C742 1.395 . S
C743 C744 1.288 . S
C744 C743 1.288 . S
C744 C745 1.392 . S
C745 H721 0.951 . S
C745 C744 1.392 . S
C745 C746 1.392 . S
C746 H722 0.949 . S
C746 C741 1.382 . S
C746 C745 1.392 . S
C747 C748 1.376 . S
C747 C752 1.386 . S
C747 C753 1.483 . S
C748 H723 0.949 . S
C748 C747 1.376 . S
C748 C749 1.397 . S
C749 H724 0.950 . S
C749 C748 1.397 . S
C749 C750 1.391 . S
C750 C749 1.391 . S
C750 C751 1.405 . S
C751 H725 0.950 . S
C751 C750 1.405 . S
C751 C752 1.367 . S
C752 H726 0.950 . S
C752 C747 1.386 . S
C752 C751 1.367 . S
C753 C747 1.483 . S
C753 C754 1.382 . S
C753 C755 1.403 . S
C754 H727 0.950 . S
C754 C740 1.411 . S
C754 C753 1.382 . S
C755 C739 1.411 . S
C755 C753 1.403 . S
C755 C756 1.489 . S
C756 C755 1.489 . S
C756 C757 1.383 . S
C756 C761 1.382 . S
C757 H728 0.950 . S
C757 C756 1.383 . S
C757 C758 1.395 . S
C758 H729 0.950 . S
C758 C757 1.395 . S
C758 C759 1.288 . S
C759 C758 1.288 . S
C759 C760 1.392 . S
C760 H730 0.951 . S
C760 C759 1.392 . S
C760 C761 1.392 . S
C761 H731 0.949 . S
C761 C756 1.382 . S
C761 C760 1.392 . S
H762 C781 0.949 . S
H763 C782 0.950 . S
H764 C784 0.950 . S
H765 C785 0.950 . S
H766 C787 0.950 . S
H767 C790 0.950 . S
H768 C791 0.950 . S
H769 C793 0.951 . S
H770 C794 0.949 . S
H771 C796 0.949 . S
H772 C797 0.950 . S
H773 C799 0.950 . S
H774 C800 0.950 . S
H775 C802 0.950 . S
H776 C805 0.950 . S
H777 C806 0.950 . S
H778 C808 0.951 . S
H779 C809 0.949 . S
C780 C781 1.376 . S
C780 C785 1.386 1_545 S
C780 C786 1.483 . S
C781 H762 0.949 . S
C781 C780 1.376 . S
C781 C782 1.397 . S
C782 H763 0.950 . S
C782 C781 1.397 . S
C782 C783 1.391 . S
C783 C782 1.391 . S
C783 C784 1.405 1_545 S
C784 H764 0.950 . S
C784 C783 1.405 1_565 S
C784 C785 1.367 . S
C785 H765 0.950 . S
C785 C780 1.386 1_565 S
C785 C784 1.367 . S
C786 C780 1.483 . S
C786 C787 1.382 . S
C786 C788 1.403 1_545 S
C787 H766 0.950 . S
C787 C786 1.382 . S
C787 C803 1.411 . S
C788 C786 1.403 1_565 S
C788 C789 1.489 . S
C788 C802 1.411 . S
C789 C788 1.489 . S
C789 C790 1.383 1_565 S
C789 C794 1.382 . S
C790 H767 0.950 . S
C790 C789 1.383 1_545 S
C790 C791 1.395 . S
C791 H768 0.950 . S
C791 C790 1.395 . S
C791 C792 1.288 1_545 S
C792 C791 1.288 1_565 S
C792 C793 1.392 . S
C793 H769 0.951 . S
C793 C792 1.392 . S
C793 C794 1.392 . S
C794 H770 0.949 . S
C794 C789 1.382 . S
C794 C793 1.392 . S
C795 C796 1.376 . S
C795 C800 1.386 1_565 S
C795 C801 1.483 . S
C796 H771 0.949 . S
C796 C795 1.376 . S
C796 C797 1.397 . S
C797 H772 0.950 . S
C797 C796 1.397 . S
C797 C798 1.391 . S
C798 C797 1.391 . S
C798 C799 1.405 1_565 S
C799 H773 0.950 . S
C799 C798 1.405 1_545 S
C799 C800 1.367 . S
C800 H774 0.950 . S
C800 C795 1.386 1_545 S
C800 C799 1.367 . S
C801 C795 1.483 . S
C801 C802 1.382 . S
C801 C803 1.403 1_565 S
C802 H775 0.950 . S
C802 C788 1.411 . S
C802 C801 1.382 . S
C803 C787 1.411 . S
C803 C801 1.403 1_545 S
C803 C804 1.489 . S
C804 C803 1.489 . S
C804 C805 1.383 1_545 S
C804 C809 1.382 . S
C805 H776 0.950 . S
C805 C804 1.383 1_565 S
C805 C806 1.395 . S
C806 H777 0.950 . S
C806 C805 1.395 . S
C806 C807 1.288 1_565 S
C807 C806 1.288 1_545 S
C807 C808 1.392 . S
C808 H778 0.951 . S
C808 C807 1.392 . S
C808 C809 1.392 . S
C809 H779 0.949 . S
C809 C804 1.382 . S
C809 C808 1.392 . S
H810 C829 0.949 . S
H811 C830 0.950 . S
H812 C832 0.950 . S
H813 C833 0.950 . S
H814 C835 0.950 . S
H815 C838 0.950 . S
H816 C839 0.950 . S
H817 C841 0.951 . S
H818 C842 0.949 . S
H819 C844 0.949 . S
H820 C845 0.950 . S
H821 C847 0.950 . S
H822 C848 0.950 . S
H823 C850 0.950 . S
H824 C853 0.950 . S
H825 C854 0.950 . S
H826 C856 0.951 . S
H827 C857 0.949 . S
C828 C829 1.382 . S
C828 C833 1.383 1_545 S
C828 C834 1.505 . S
C829 H810 0.949 . S
C829 C828 1.382 . S
C829 C830 1.397 . S
C830 H811 0.950 . S
C830 C829 1.397 . S
C830 C831 1.391 1_545 S
C831 C830 1.391 1_565 S
C831 C832 1.405 . S
C832 H812 0.950 . S
C832 C831 1.405 . S
C832 C833 1.367 . S
C833 H813 0.950 . S
C833 C828 1.383 1_565 S
C833 C832 1.367 . S
C834 C828 1.505 . S
C834 C835 1.359 . S
C834 C836 1.398 1_545 S
C835 H814 0.950 . S
C835 C834 1.359 . S
C835 C851 1.444 . S
C836 C834 1.398 1_565 S
C836 C837 1.484 . S
C836 C850 1.435 . S
C837 C836 1.484 . S
C837 C838 1.348 1_565 S
C837 C842 1.401 . S
C838 H815 0.950 . S
C838 C837 1.348 1_545 S
C838 C839 1.395 . S
C839 H816 0.950 . S
C839 C838 1.395 . S
C839 C840 1.288 . S
C840 C839 1.288 . S
C840 C841 1.392 1_545 S
C841 H817 0.951 . S
C841 C840 1.392 1_565 S
C841 C842 1.392 . S
C842 H818 0.949 . S
C842 C837 1.401 . S
C842 C841 1.392 . S
C843 C844 1.369 . S
C843 C848 1.389 1_565 S
C843 C849 1.505 . S
C844 H819 0.949 . S
C844 C843 1.369 . S
C844 C845 1.397 . S
C845 H820 0.950 . S
C845 C844 1.397 . S
C845 C846 1.391 1_565 S
C846 C845 1.391 1_545 S
C846 C847 1.405 . S
C847 H821 0.950 . S
C847 C846 1.405 . S
C847 C848 1.367 . S
C848 H822 0.950 . S
C848 C843 1.389 1_545 S
C848 C847 1.367 . S
C849 C843 1.505 . S
C849 C850 1.365 . S
C849 C851 1.398 1_565 S
C850 H823 0.950 . S
C850 C836 1.435 . S
C850 C849 1.365 . S
C851 C835 1.444 . S
C851 C849 1.398 1_545 S
C851 C852 1.484 . S
C852 C851 1.484 . S
C852 C853 1.332 1_545 S
C852 C857 1.410 . S
C853 H824 0.950 . S
C853 C852 1.332 1_565 S
C853 C854 1.395 . S
C854 H825 0.950 . S
C854 C853 1.395 . S
C854 C855 1.288 . S
C855 C854 1.288 . S
C855 C856 1.392 1_565 S
C856 H826 0.951 . S
C856 C855 1.392 1_545 S
C856 C857 1.392 . S
C857 H827 0.949 . S
C857 C852 1.410 . S
C857 C856 1.392 . S
H858 C877 0.949 . S
H859 C878 0.950 . S
H860 C880 0.950 . S
H861 C881 0.950 . S
H862 C883 0.950 . S
H863 C886 0.950 . S
H864 C887 0.950 . S
H865 C889 0.951 . S
H866 C890 0.949 . S
H867 C892 0.949 . S
H868 C893 0.950 . S
H869 C895 0.950 . S
H870 C896 0.950 . S
H871 C898 0.950 . S
H872 C901 0.950 . S
H873 C902 0.950 . S
H874 C904 0.951 . S
H875 C905 0.949 . S
C876 C877 1.376 . S
C876 C881 1.386 1_455 S
C876 C882 1.483 . S
C877 H858 0.949 . S
C877 C876 1.376 . S
C877 C878 1.397 . S
C878 H859 0.950 . S
C878 C877 1.397 . S
C878 C879 1.391 . S
C879 C878 1.391 . S
C879 C880 1.405 1_455 S
C880 H860 0.950 . S
C880 C879 1.405 1_655 S
C880 C881 1.367 . S
C881 H861 0.950 . S
C881 C876 1.386 1_655 S
C881 C880 1.367 . S
C882 C876 1.483 . S
C882 C883 1.382 . S
C882 C884 1.403 1_455 S
C883 H862 0.950 . S
C883 C882 1.382 . S
C883 C899 1.411 . S
C884 C882 1.403 1_655 S
C884 C885 1.489 . S
C884 C898 1.411 . S
C885 C884 1.489 . S
C885 C886 1.383 1_655 S
C885 C890 1.382 . S
C886 H863 0.950 . S
C886 C885 1.383 1_455 S
C886 C887 1.395 . S
C887 H864 0.950 . S
C887 C886 1.395 . S
C887 C888 1.288 1_455 S
C888 C887 1.288 1_655 S
C888 C889 1.392 . S
C889 H865 0.951 . S
C889 C888 1.392 . S
C889 C890 1.392 . S
C890 H866 0.949 . S
C890 C885 1.382 . S
C890 C889 1.392 . S
C891 C892 1.376 . S
C891 C896 1.386 1_655 S
C891 C897 1.483 . S
C892 H867 0.949 . S
C892 C891 1.376 . S
C892 C893 1.397 . S
C893 H868 0.950 . S
C893 C892 1.397 . S
C893 C894 1.391 . S
C894 C893 1.391 . S
C894 C895 1.405 1_655 S
C895 H869 0.950 . S
C895 C894 1.405 1_455 S
C895 C896 1.367 . S
C896 H870 0.950 . S
C896 C891 1.386 1_455 S
C896 C895 1.367 . S
C897 C891 1.483 . S
C897 C898 1.382 . S
C897 C899 1.403 1_655 S
C898 H871 0.950 . S
C898 C884 1.411 . S
C898 C897 1.382 . S
C899 C883 1.411 . S
C899 C897 1.403 1_455 S
C899 C900 1.489 . S
C900 C899 1.489 . S
C900 C901 1.383 1_455 S
C900 C905 1.382 . S
C901 H872 0.950 . S
C901 C900 1.383 1_655 S
C901 C902 1.395 . S
C902 H873 0.950 . S
C902 C901 1.395 . S
C902 C903 1.288 1_655 S
C903 C902 1.288 1_455 S
C903 C904 1.392 . S
C904 H874 0.951 . S
C904 C903 1.392 . S
C904 C905 1.392 . S
C905 H875 0.949 . S
C905 C900 1.382 . S
C905 C904 1.392 . S
H906 C925 0.949 . S
H907 C926 0.950 . S
H908 C928 0.950 . S
H909 C929 0.950 . S
H910 C931 0.950 . S
H911 C934 0.950 . S
H912 C935 0.950 . S
H913 C937 0.951 . S
H914 C938 0.949 . S
H915 C940 0.949 . S
H916 C941 0.950 . S
H917 C943 0.950 . S
H918 C944 0.950 . S
H919 C946 0.950 . S
H920 C949 0.950 . S
H921 C950 0.950 . S
H922 C952 0.951 . S
H923 C953 0.949 . S
C924 C925 1.376 . S
C924 C929 1.386 . S
C924 C930 1.483 . S
C925 H906 0.949 . S
C925 C924 1.376 . S
C925 C926 1.397 . S
C926 H907 0.950 . S
C926 C925 1.397 . S
C926 C927 1.391 . S
C927 C926 1.391 . S
C927 C928 1.405 . S
C928 H908 0.950 . S
C928 C927 1.405 . S
C928 C929 1.367 . S
C929 H909 0.950 . S
C929 C924 1.386 . S
C929 C928 1.367 . S
C930 C924 1.483 . S
C930 C931 1.382 . S
C930 C932 1.403 . S
C931 H910 0.950 . S
C931 C930 1.382 . S
C931 C947 1.411 . S
C932 C930 1.403 . S
C932 C933 1.489 . S
C932 C946 1.411 . S
C933 C932 1.489 . S
C933 C934 1.383 . S
C933 C938 1.382 . S
C934 H911 0.950 . S
C934 C933 1.383 . S
C934 C935 1.395 . S
C935 H912 0.950 . S
C935 C934 1.395 . S
C935 C936 1.288 . S
C936 C935 1.288 . S
C936 C937 1.392 . S
C937 H913 0.951 . S
C937 C936 1.392 . S
C937 C938 1.392 . S
C938 H914 0.949 . S
C938 C933 1.382 . S
C938 C937 1.392 . S
C939 C940 1.376 . S
C939 C944 1.386 . S
C939 C945 1.483 . S
C940 H915 0.949 . S
C940 C939 1.376 . S
C940 C941 1.397 . S
C941 H916 0.950 . S
C941 C940 1.397 . S
C941 C942 1.391 . S
C942 C941 1.391 . S
C942 C943 1.405 . S
C943 H917 0.950 . S
C943 C942 1.405 . S
C943 C944 1.367 . S
C944 H918 0.950 . S
C944 C939 1.386 . S
C944 C943 1.367 . S
C945 C939 1.483 . S
C945 C946 1.382 . S
C945 C947 1.403 . S
C946 H919 0.950 . S
C946 C932 1.411 . S
C946 C945 1.382 . S
C947 C931 1.411 . S
C947 C945 1.403 . S
C947 C948 1.489 . S
C948 C947 1.489 . S
C948 C949 1.383 . S
C948 C953 1.382 . S
C949 H920 0.950 . S
C949 C948 1.383 . S
C949 C950 1.395 . S
C950 H921 0.950 . S
C950 C949 1.395 . S
C950 C951 1.288 . S
C951 C950 1.288 . S
C951 C952 1.392 . S
C952 H922 0.951 . S
C952 C951 1.392 . S
C952 C953 1.392 . S
C953 H923 0.949 . S
C953 C948 1.382 . S
C953 C952 1.392 . S
H954 C973 0.949 . S
H955 C974 0.950 . S
H956 C976 0.950 . S
H957 C977 0.950 . S
H958 C979 0.950 . S
H959 C982 0.950 . S
H960 C983 0.950 . S
H961 C985 0.951 . S
H962 C986 0.949 . S
H963 C988 0.949 . S
H964 C989 0.950 . S
H965 C991 0.950 . S
H966 C992 0.950 . S
H967 C994 0.950 . S
H968 C997 0.950 . S
H969 C998 0.950 . S
H970 C1000 0.951 . S
H971 C1001 0.949 . S
C972 C973 1.376 . S
C972 C977 1.386 . S
C972 C978 1.483 . S
C973 H954 0.949 . S
C973 C972 1.376 . S
C973 C974 1.397 . S
C974 H955 0.950 . S
C974 C973 1.397 . S
C974 C975 1.391 . S
C975 C974 1.391 . S
C975 C976 1.405 . S
C976 H956 0.950 . S
C976 C975 1.405 . S
C976 C977 1.367 . S
C977 H957 0.950 . S
C977 C972 1.386 . S
C977 C976 1.367 . S
C978 C972 1.483 . S
C978 C979 1.382 . S
C978 C980 1.403 . S
C979 H958 0.950 . S
C979 C978 1.382 . S
C979 C995 1.411 . S
C980 C978 1.403 . S
C980 C981 1.489 . S
C980 C994 1.411 . S
C981 C980 1.489 . S
C981 C982 1.383 . S
C981 C986 1.382 . S
C982 H959 0.950 . S
C982 C981 1.383 . S
C982 C983 1.395 . S
C983 H960 0.950 . S
C983 C982 1.395 . S
C983 C984 1.288 . S
C984 C983 1.288 . S
C984 C985 1.392 . S
C985 H961 0.951 . S
C985 C984 1.392 . S
C985 C986 1.392 . S
C986 H962 0.949 . S
C986 C981 1.382 . S
C986 C985 1.392 . S
C987 C988 1.376 . S
C987 C992 1.386 . S
C987 C993 1.483 . S
C988 H963 0.949 . S
C988 C987 1.376 . S
C988 C989 1.397 . S
C989 H964 0.950 . S
C989 C988 1.397 . S
C989 C990 1.391 . S
C990 C989 1.391 . S
C990 C991 1.405 . S
C991 H965 0.950 . S
C991 C990 1.405 . S
C991 C992 1.367 . S
C992 H966 0.950 . S
C992 C987 1.386 . S
C992 C991 1.367 . S
C993 C987 1.483 . S
C993 C994 1.382 . S
C993 C995 1.403 . S
C994 H967 0.950 . S
C994 C980 1.411 . S
C994 C993 1.382 . S
C995 C979 1.411 . S
C995 C993 1.403 . S
C995 C996 1.489 . S
C996 C995 1.489 . S
C996 C997 1.383 . S
C996 C1001 1.382 . S
C997 H968 0.950 . S
C997 C996 1.383 . S
C997 C998 1.395 . S
C998 H969 0.950 . S
C998 C997 1.395 . S
C998 C999 1.288 . S
C999 C998 1.288 . S
C999 C1000 1.392 . S
C1000 H970 0.951 . S
C1000 C999 1.392 . S
C1000 C1001 1.392 . S
C1001 H971 0.949 . S
C1001 C996 1.382 . S
C1001 C1000 1.392 . S
H1002 C1021 0.949 . S
H1003 C1022 0.950 . S
H1004 C1024 0.950 . S
H1005 C1025 0.950 . S
H1006 C1027 0.950 . S
H1007 C1030 0.950 . S
H1008 C1031 0.950 . S
H1009 C1033 0.951 . S
H1010 C1034 0.949 . S
H1011 C1036 0.949 . S
H1012 C1037 0.950 . S
H1013 C1039 0.950 . S
H1014 C1040 0.950 . S
H1015 C1042 0.950 . S
H1016 C1045 0.950 . S
H1017 C1046 0.950 . S
H1018 C1048 0.951 . S
H1019 C1049 0.949 . S
C1020 C1021 1.376 . S
C1020 C1025 1.386 . S
C1020 C1026 1.483 . S
C1021 H1002 0.949 . S
C1021 C1020 1.376 . S
C1021 C1022 1.397 . S
C1022 H1003 0.950 . S
C1022 C1021 1.397 . S
C1022 C1023 1.391 . S
C1023 C1022 1.391 . S
C1023 C1024 1.405 . S
C1024 H1004 0.950 . S
C1024 C1023 1.405 . S
C1024 C1025 1.367 . S
C1025 H1005 0.950 . S
C1025 C1020 1.386 . S
C1025 C1024 1.367 . S
C1026 C1020 1.483 . S
C1026 C1027 1.382 . S
C1026 C1028 1.403 . S
C1027 H1006 0.950 . S
C1027 C1026 1.382 . S
C1027 C1043 1.411 . S
C1028 C1026 1.403 . S
C1028 C1029 1.489 . S
C1028 C1042 1.411 . S
C1029 C1028 1.489 . S
C1029 C1030 1.383 . S
C1029 C1034 1.382 . S
C1030 H1007 0.950 . S
C1030 C1029 1.383 . S
C1030 C1031 1.395 . S
C1031 H1008 0.950 . S
C1031 C1030 1.395 . S
C1031 C1032 1.288 . S
C1032 C1031 1.288 . S
C1032 C1033 1.392 . S
C1033 H1009 0.951 . S
C1033 C1032 1.392 . S
C1033 C1034 1.392 . S
C1034 H1010 0.949 . S
C1034 C1029 1.382 . S
C1034 C1033 1.392 . S
C1035 C1036 1.376 . S
C1035 C1040 1.386 . S
C1035 C1041 1.483 . S
C1036 H1011 0.949 . S
C1036 C1035 1.376 . S
C1036 C1037 1.397 . S
C1037 H1012 0.950 . S
C1037 C1036 1.397 . S
C1037 C1038 1.391 . S
C1038 C1037 1.391 . S
C1038 C1039 1.405 . S
C1039 H1013 0.950 . S
C1039 C1038 1.405 . S
C1039 C1040 1.367 . S
C1040 H1014 0.950 . S
C1040 C1035 1.386 . S
C1040 C1039 1.367 . S
C1041 C1035 1.483 . S
C1041 C1042 1.382 . S
C1041 C1043 1.403 . S
C1042 H1015 0.950 . S
C1042 C1028 1.411 . S
C1042 C1041 1.382 . S
C1043 C1027 1.411 . S
C1043 C1041 1.403 . S
C1043 C1044 1.489 . S
C1044 C1043 1.489 . S
C1044 C1045 1.383 . S
C1044 C1049 1.382 . S
C1045 H1016 0.950 . S
C1045 C1044 1.383 . S
C1045 C1046 1.395 . S
C1046 H1017 0.950 . S
C1046 C1045 1.395 . S
C1046 C1047 1.288 . S
C1047 C1046 1.288 . S
C1047 C1048 1.392 . S
C1048 H1018 0.951 . S
C1048 C1047 1.392 . S
C1048 C1049 1.392 . S
C1049 H1019 0.949 . S
C1049 C1044 1.382 . S
C1049 C1048 1.392 . S
H1050 C1069 0.949 . S
H1051 C1070 0.950 . S
H1052 C1072 0.950 . S
H1053 C1073 0.950 . S
H1054 C1075 0.950 . S
H1055 C1078 0.950 . S
H1056 C1079 0.950 . S
H1057 C1081 0.951 . S
H1058 C1082 0.949 . S
H1059 C1084 0.949 . S
H1060 C1085 0.950 . S
H1061 C1087 0.950 . S
H1062 C1088 0.950 . S
H1063 C1090 0.950 . S
H1064 C1093 0.950 . S
H1065 C1094 0.950 . S
H1066 C1096 0.951 . S
H1067 C1097 0.949 . S
C1068 C1069 1.376 . S
C1068 C1073 1.386 . S
C1068 C1074 1.483 . S
C1069 H1050 0.949 . S
C1069 C1068 1.376 . S
C1069 C1070 1.397 . S
C1070 H1051 0.950 . S
C1070 C1069 1.397 . S
C1070 C1071 1.391 . S
C1071 C1070 1.391 . S
C1071 C1072 1.405 . S
C1072 H1052 0.950 . S
C1072 C1071 1.405 . S
C1072 C1073 1.367 . S
C1073 H1053 0.950 . S
C1073 C1068 1.386 . S
C1073 C1072 1.367 . S
C1074 C1068 1.483 . S
C1074 C1075 1.382 . S
C1074 C1076 1.403 . S
C1075 H1054 0.950 . S
C1075 C1074 1.382 . S
C1075 C1091 1.411 . S
C1076 C1074 1.403 . S
C1076 C1077 1.489 . S
C1076 C1090 1.411 . S
C1077 C1076 1.489 . S
C1077 C1078 1.383 . S
C1077 C1082 1.382 . S
C1078 H1055 0.950 . S
C1078 C1077 1.383 . S
C1078 C1079 1.395 . S
C1079 H1056 0.950 . S
C1079 C1078 1.395 . S
C1079 C1080 1.288 . S
C1080 C1079 1.288 . S
C1080 C1081 1.392 . S
C1081 H1057 0.951 . S
C1081 C1080 1.392 . S
C1081 C1082 1.392 . S
C1082 H1058 0.949 . S
C1082 C1077 1.382 . S
C1082 C1081 1.392 . S
C1083 C1084 1.376 . S
C1083 C1088 1.386 . S
C1083 C1089 1.483 . S
C1084 H1059 0.949 . S
C1084 C1083 1.376 . S
C1084 C1085 1.397 . S
C1085 H1060 0.950 . S
C1085 C1084 1.397 . S
C1085 C1086 1.391 . S
C1086 C1085 1.391 . S
C1086 C1087 1.405 . S
C1087 H1061 0.950 . S
C1087 C1086 1.405 . S
C1087 C1088 1.367 . S
C1088 H1062 0.950 . S
C1088 C1083 1.386 . S
C1088 C1087 1.367 . S
C1089 C1083 1.483 . S
C1089 C1090 1.382 . S
C1089 C1091 1.403 . S
C1090 H1063 0.950 . S
C1090 C1076 1.411 . S
C1090 C1089 1.382 . S
C1091 C1075 1.411 . S
C1091 C1089 1.403 . S
C1091 C1092 1.489 . S
C1092 C1091 1.489 . S
C1092 C1093 1.383 . S
C1092 C1097 1.382 . S
C1093 H1064 0.950 . S
C1093 C1092 1.383 . S
C1093 C1094 1.395 . S
C1094 H1065 0.950 . S
C1094 C1093 1.395 . S
C1094 C1095 1.288 . S
C1095 C1094 1.288 . S
C1095 C1096 1.392 . S
C1096 H1066 0.951 . S
C1096 C1095 1.392 . S
C1096 C1097 1.392 . S
C1097 H1067 0.949 . S
C1097 C1092 1.382 . S
C1097 C1096 1.392 . S
H1098 C1104 0.930 . S
H1099 C1108 0.930 . S
H1100 C1113 0.929 . S
H1101 C1111 0.929 . S
H1102 C1106 0.929 . S
H1103 C1112 0.929 . S
C1104 H1098 0.930 . S
C1104 C1105 1.368 . S
C1104 C1112 1.378 . S
C1105 C1104 1.368 . S
C1105 C1113 1.438 1_655 S
C1106 H1102 0.929 . S
C1106 C1108 1.378 . S
C1106 C1110 1.350 1_455 S
C1107 C1110 1.463 . S
C1107 C1112 1.350 . S
C1107 N1115 1.427 1_655 S
C1108 H1099 0.930 . S
C1108 C1106 1.378 . S
C1108 C1109 1.367 1_455 S
C1109 C1108 1.367 1_655 S
C1109 C1111 1.433 . S
C1110 C1106 1.350 1_655 S
C1110 C1107 1.463 . S
C1110 N1114 1.427 . S
C1111 H1101 0.929 . S
C1111 C1109 1.433 . S
C1111 N1114 1.384 . S
C1112 H1103 0.929 . S
C1112 C1104 1.378 . S
C1112 C1107 1.350 . S
C1113 H1100 0.929 . S
C1113 C1105 1.438 1_455 S
C1113 N1115 1.384 . S
N1114 C1110 1.427 . S
N1114 C1111 1.384 . S
N1115 C1107 1.427 1_455 S
N1115 C1113 1.384 . S
H1116 C1122 0.930 . S
H1117 C1126 0.930 . S
H1118 C1131 0.929 . S
H1119 C1129 0.929 . S
H1120 C1124 0.929 . S
H1121 C1130 0.929 . S
C1122 H1116 0.930 . S
C1122 C1123 1.367 . S
C1122 C1130 1.378 . S
C1123 C1122 1.367 . S
C1123 C1131 1.433 . S
C1124 H1120 0.929 . S
C1124 C1126 1.378 . S
C1124 C1128 1.350 . S
C1125 C1128 1.463 . S
C1125 C1130 1.350 . S
C1125 N1133 1.427 . S
C1126 H1117 0.930 . S
C1126 C1124 1.378 . S
C1126 C1127 1.367 . S
C1127 C1126 1.367 . S
C1127 C1129 1.433 . S
C1128 C1124 1.350 . S
C1128 C1125 1.463 . S
C1128 N1132 1.427 . S
C1129 H1119 0.929 . S
C1129 C1127 1.433 . S
C1129 N1132 1.384 . S
C1130 H1121 0.929 . S
C1130 C1122 1.378 . S
C1130 C1125 1.350 . S
C1131 H1118 0.929 . S
C1131 C1123 1.433 . S
C1131 N1133 1.384 . S
N1132 C1128 1.427 . S
N1132 C1129 1.384 . S
N1133 C1125 1.427 . S
N1133 C1131 1.384 . S
H1134 C1140 0.930 . S
H1135 C1144 0.930 . S
H1136 C1149 0.929 . S
H1137 C1147 0.929 . S
H1138 C1142 0.929 . S
H1139 C1148 0.929 . S
C1140 H1134 0.930 . S
C1140 C1141 1.367 . S
C1140 C1148 1.378 . S
C1141 C1140 1.367 . S
C1141 C1149 1.433 1_545 S
C1142 H1138 0.929 . S
C1142 C1144 1.378 . S
C1142 C1146 1.350 1_565 S
C1143 C1146 1.463 . S
C1143 C1148 1.350 . S
C1143 N1151 1.427 1_545 S
C1144 H1135 0.930 . S
C1144 C1142 1.378 . S
C1144 C1145 1.367 1_565 S
C1145 C1144 1.367 1_545 S
C1145 C1147 1.433 . S
C1146 C1142 1.350 1_545 S
C1146 C1143 1.463 . S
C1146 N1150 1.427 . S
C1147 H1137 0.929 . S
C1147 C1145 1.433 . S
C1147 N1150 1.384 . S
C1148 H1139 0.929 . S
C1148 C1140 1.378 . S
C1148 C1143 1.350 . S
C1149 H1136 0.929 . S
C1149 C1141 1.433 1_565 S
C1149 N1151 1.384 . S
N1150 C1146 1.427 . S
N1150 C1147 1.384 . S
N1151 C1143 1.427 1_565 S
N1151 C1149 1.384 . S
H1152 C1158 0.930 . S
H1153 C1162 0.930 . S
H1154 C1167 0.929 . S
H1155 C1165 0.929 . S
H1156 C1160 0.929 . S
H1157 C1166 0.929 . S
C1158 H1152 0.930 . S
C1158 C1159 1.378 . S
C1158 C1166 1.378 . S
C1159 C1158 1.378 . S
C1159 C1167 1.414 1_545 S
C1160 H1156 0.929 . S
C1160 C1162 1.378 . S
C1160 C1164 1.350 . S
C1161 C1164 1.478 . S
C1161 C1166 1.319 1_565 S
C1161 N1169 1.446 . S
C1162 H1153 0.930 . S
C1162 C1160 1.378 . S
C1162 C1163 1.367 . S
C1163 C1162 1.367 . S
C1163 C1165 1.433 1_565 S
C1164 C1160 1.350 . S
C1164 C1161 1.478 . S
C1164 N1168 1.427 1_565 S
C1165 H1155 0.929 . S
C1165 C1163 1.433 1_545 S
C1165 N1168 1.384 . S
C1166 H1157 0.929 . S
C1166 C1158 1.378 . S
C1166 C1161 1.319 1_545 S
C1167 H1154 0.929 . S
C1167 C1159 1.414 1_565 S
C1167 N1169 1.384 . S
N1168 C1164 1.427 1_545 S
N1168 C1165 1.384 . S
N1169 C1161 1.446 . S
N1169 C1167 1.384 . S
H1170 C1176 0.930 . S
H1171 C1180 0.930 . S
H1172 C1185 0.929 . S
H1173 C1183 0.929 . S
H1174 C1178 0.929 . S
H1175 C1184 0.929 . S
C1176 H1170 0.930 . S
C1176 C1177 1.367 . S
C1176 C1184 1.378 . S
C1177 C1176 1.367 . S
C1177 C1185 1.433 1_455 S
C1178 H1174 0.929 . S
C1178 C1180 1.378 . S
C1178 C1182 1.350 1_655 S
C1179 C1182 1.463 . S
C1179 C1184 1.350 . S
C1179 N1187 1.427 1_455 S
C1180 H1171 0.930 . S
C1180 C1178 1.378 . S
C1180 C1181 1.367 1_655 S
C1181 C1180 1.367 1_455 S
C1181 C1183 1.433 . S
C1182 C1178 1.350 1_455 S
C1182 C1179 1.463 . S
C1182 N1186 1.427 . S
C1183 H1173 0.929 . S
C1183 C1181 1.433 . S
C1183 N1186 1.384 . S
C1184 H1175 0.929 . S
C1184 C1176 1.378 . S
C1184 C1179 1.350 . S
C1185 H1172 0.929 . S
C1185 C1177 1.433 1_655 S
C1185 N1187 1.384 . S
N1186 C1182 1.427 . S
N1186 C1183 1.384 . S
N1187 C1179 1.427 1_655 S
N1187 C1185 1.384 . S
H1188 C1194 0.930 . S
H1189 C1198 0.930 . S
H1190 C1203 0.929 . S
H1191 C1201 0.929 . S
H1192 C1196 0.929 . S
H1193 C1202 0.929 . S
C1194 H1188 0.930 . S
C1194 C1195 1.367 . S
C1194 C1202 1.378 . S
C1195 C1194 1.367 . S
C1195 C1203 1.433 . S
C1196 H1192 0.929 . S
C1196 C1198 1.378 . S
C1196 C1200 1.350 . S
C1197 C1200 1.463 . S
C1197 C1202 1.350 . S
C1197 N1205 1.427 . S
C1198 H1189 0.930 . S
C1198 C1196 1.378 . S
C1198 C1199 1.367 . S
C1199 C1198 1.367 . S
C1199 C1201 1.433 . S
C1200 C1196 1.350 . S
C1200 C1197 1.463 . S
C1200 N1204 1.427 . S
C1201 H1191 0.929 . S
C1201 C1199 1.433 . S
C1201 N1204 1.384 . S
C1202 H1193 0.929 . S
C1202 C1194 1.378 . S
C1202 C1197 1.350 . S
C1203 H1190 0.929 . S
C1203 C1195 1.433 . S
C1203 N1205 1.384 . S
N1204 C1200 1.427 . S
N1204 C1201 1.384 . S
N1205 C1197 1.427 . S
N1205 C1203 1.384 . S
H1206 C1212 0.930 . S
H1207 C1216 0.930 . S
H1208 C1221 0.929 . S
H1209 C1219 0.929 . S
H1210 C1214 0.929 . S
H1211 C1220 0.929 . S
C1212 H1206 0.930 . S
C1212 C1213 1.370 1_655 S
C1212 C1220 1.378 . S
C1213 C1212 1.370 1_455 S
C1213 C1221 1.446 . S
C1214 H1210 0.929 . S
C1214 C1216 1.378 . S
C1214 C1218 1.350 . S
C1215 C1218 1.463 . S
C1215 C1220 1.350 1_455 S
C1215 N1223 1.427 . S
C1216 H1207 0.930 . S
C1216 C1214 1.378 . S
C1216 C1217 1.367 . S
C1217 C1216 1.367 . S
C1217 C1219 1.433 1_455 S
C1218 C1214 1.350 . S
C1218 C1215 1.463 . S
C1218 N1222 1.427 1_455 S
C1219 H1209 0.929 . S
C1219 C1217 1.433 1_655 S
C1219 N1222 1.384 . S
C1220 H1211 0.929 . S
C1220 C1212 1.378 . S
C1220 C1215 1.350 1_655 S
C1221 H1208 0.929 . S
C1221 C1213 1.446 . S
C1221 N1223 1.384 . S
N1222 C1218 1.427 1_655 S
N1222 C1219 1.384 . S
N1223 C1215 1.427 . S
N1223 C1221 1.384 . S
H1224 C1230 0.930 . S
H1225 C1234 0.930 . S
H1226 C1239 0.929 . S
H1227 C1237 0.929 . S
H1228 C1232 0.929 . S
H1229 C1238 0.929 . S
C1230 H1224 0.930 . S
C1230 C1231 1.367 . S
C1230 C1238 1.378 . S
C1231 C1230 1.367 . S
C1231 C1239 1.433 . S
C1232 H1228 0.929 . S
C1232 C1234 1.378 . S
C1232 C1236 1.350 . S
C1233 C1236 1.463 . S
C1233 C1238 1.350 . S
C1233 N1241 1.427 . S
C1234 H1225 0.930 . S
C1234 C1232 1.378 . S
C1234 C1235 1.367 . S
C1235 C1234 1.367 . S
C1235 C1237 1.433 . S
C1236 C1232 1.350 . S
C1236 C1233 1.463 . S
C1236 N1240 1.427 . S
C1237 H1227 0.929 . S
C1237 C1235 1.433 . S
C1237 N1240 1.384 . S
C1238 H1229 0.929 . S
C1238 C1230 1.378 . S
C1238 C1233 1.350 . S
C1239 H1226 0.929 . S
C1239 C1231 1.433 . S
C1239 N1241 1.384 . S
N1240 C1236 1.427 . S
N1240 C1237 1.384 . S
N1241 C1233 1.427 . S
N1241 C1239 1.384 . S
H1242 C1248 0.930 . S
H1243 C1252 0.930 . S
H1244 C1257 0.929 . S
H1245 C1255 0.929 . S
H1246 C1250 0.929 . S
H1247 C1256 0.929 . S
C1248 H1242 0.930 . S
C1248 C1249 1.367 1_545 S
C1248 C1256 1.378 . S
C1249 C1248 1.367 1_565 S
C1249 C1257 1.433 . S
C1250 H1246 0.929 . S
C1250 C1252 1.378 . S
C1250 C1254 1.350 . S
C1251 C1254 1.446 . S
C1251 C1256 1.312 1_565 S
C1251 N1259 1.487 . S
C1252 H1243 0.930 . S
C1252 C1250 1.378 . S
C1252 C1253 1.367 . S
C1253 C1252 1.367 . S
C1253 C1255 1.433 1_565 S
C1254 C1250 1.350 . S
C1254 C1251 1.446 . S
C1254 N1258 1.427 1_565 S
C1255 H1245 0.929 . S
C1255 C1253 1.433 1_545 S
C1255 N1258 1.384 . S
C1256 H1247 0.929 . S
C1256 C1248 1.378 . S
C1256 C1251 1.312 1_545 S
C1257 H1244 0.929 . S
C1257 C1249 1.433 . S
C1257 N1259 1.384 . S
N1258 C1254 1.427 1_545 S
N1258 C1255 1.384 . S
N1259 C1251 1.487 . S
N1259 C1257 1.384 . S
H1260 C1266 0.930 . S
H1261 C1270 0.930 . S
H1262 C1275 0.929 . S
H1263 C1273 0.929 . S
H1264 C1268 0.929 . S
H1265 C1274 0.929 . S
C1266 H1260 0.930 . S
C1266 C1267 1.357 1_565 S
C1266 C1274 1.378 . S
C1267 C1266 1.357 1_545 S
C1267 C1275 1.454 . S
C1268 H1264 0.929 . S
C1268 C1270 1.378 . S
C1268 C1272 1.350 . S
C1269 C1272 1.463 . S
C1269 C1274 1.350 1_545 S
C1269 N1277 1.427 . S
C1270 H1261 0.930 . S
C1270 C1268 1.378 . S
C1270 C1271 1.367 . S
C1271 C1270 1.367 . S
C1271 C1273 1.433 1_545 S
C1272 C1268 1.350 . S
C1272 C1269 1.463 . S
C1272 N1276 1.427 1_545 S
C1273 H1263 0.929 . S
C1273 C1271 1.433 1_565 S
C1273 N1276 1.384 . S
C1274 H1265 0.929 . S
C1274 C1266 1.378 . S
C1274 C1269 1.350 1_565 S
C1275 H1262 0.929 . S
C1275 C1267 1.454 . S
C1275 N1277 1.384 . S
N1276 C1272 1.427 1_565 S
N1276 C1273 1.384 . S
N1277 C1269 1.427 . S
N1277 C1275 1.384 . S
H1278 C1284 0.930 . S
H1279 C1288 0.930 . S
H1280 C1293 0.929 . S
H1281 C1291 0.929 . S
H1282 C1286 0.929 . S
H1283 C1292 0.929 . S
C1284 H1278 0.930 . S
C1284 C1285 1.364 1_455 S
C1284 C1292 1.378 . S
C1285 C1284 1.364 1_655 S
C1285 C1293 1.431 . S
C1286 H1282 0.929 . S
C1286 C1288 1.378 . S
C1286 C1290 1.350 . S
C1287 C1290 1.463 . S
C1287 C1292 1.350 1_655 S
C1287 N1295 1.427 . S
C1288 H1279 0.930 . S
C1288 C1286 1.378 . S
C1288 C1289 1.367 . S
C1289 C1288 1.367 . S
C1289 C1291 1.433 1_655 S
C1290 C1286 1.350 . S
C1290 C1287 1.463 . S
C1290 N1294 1.427 1_655 S
C1291 H1281 0.929 . S
C1291 C1289 1.433 1_455 S
C1291 N1294 1.384 . S
C1292 H1283 0.929 . S
C1292 C1284 1.378 . S
C1292 C1287 1.350 1_455 S
C1293 H1280 0.929 . S
C1293 C1285 1.431 . S
C1293 N1295 1.384 . S
N1294 C1290 1.427 1_455 S
N1294 C1291 1.384 . S
N1295 C1287 1.427 . S
N1295 C1293 1.384 . S
H1296 C1302 0.930 . S
H1297 C1306 0.930 . S
H1298 C1311 0.929 . S
H1299 C1309 0.929 . S
H1300 C1304 0.929 . S
H1301 C1310 0.929 . S
C1302 H1296 0.930 . S
C1302 C1303 1.367 . S
C1302 C1310 1.378 . S
C1303 C1302 1.367 . S
C1303 C1311 1.433 . S
C1304 H1300 0.929 . S
C1304 C1306 1.378 . S
C1304 C1308 1.350 . S
C1305 C1308 1.463 . S
C1305 C1310 1.350 . S
C1305 N1313 1.427 . S
C1306 H1297 0.930 . S
C1306 C1304 1.378 . S
C1306 C1307 1.367 . S
C1307 C1306 1.367 . S
C1307 C1309 1.433 . S
C1308 C1304 1.350 . S
C1308 C1305 1.463 . S
C1308 N1312 1.427 . S
C1309 H1299 0.929 . S
C1309 C1307 1.433 . S
C1309 N1312 1.384 . S
C1310 H1301 0.929 . S
C1310 C1302 1.378 . S
C1310 C1305 1.350 . S
C1311 H1298 0.929 . S
C1311 C1303 1.433 . S
C1311 N1313 1.384 . S
N1312 C1308 1.427 . S
N1312 C1309 1.384 . S
N1313 C1305 1.427 . S
N1313 C1311 1.384 . S
H1314 C1320 0.930 . S
H1315 C1324 0.930 . S
H1316 C1329 0.929 . S
H1317 C1327 0.929 . S
H1318 C1322 0.929 . S
H1319 C1328 0.929 . S
C1320 H1314 0.930 . S
C1320 C1321 1.367 . S
C1320 C1328 1.378 . S
C1321 C1320 1.367 . S
C1321 C1329 1.433 . S
C1322 H1318 0.929 . S
C1322 C1324 1.378 . S
C1322 C1326 1.350 . S
C1323 C1326 1.463 . S
C1323 C1328 1.350 . S
C1323 N1331 1.427 . S
C1324 H1315 0.930 . S
C1324 C1322 1.378 . S
C1324 C1325 1.367 . S
C1325 C1324 1.367 . S
C1325 C1327 1.433 . S
C1326 C1322 1.350 . S
C1326 C1323 1.463 . S
C1326 N1330 1.427 . S
C1327 H1317 0.929 . S
C1327 C1325 1.433 . S
C1327 N1330 1.384 . S
C1328 H1319 0.929 . S
C1328 C1320 1.378 . S
C1328 C1323 1.350 . S
C1329 H1316 0.929 . S
C1329 C1321 1.433 . S
C1329 N1331 1.384 . S
N1330 C1326 1.427 . S
N1330 C1327 1.384 . S
N1331 C1323 1.427 . S
N1331 C1329 1.384 . S
H1332 C1338 0.930 . S
H1333 C1342 0.930 . S
H1334 C1347 0.929 . S
H1335 C1345 0.929 . S
H1336 C1340 0.929 . S
H1337 C1346 0.929 . S
C1338 H1332 0.930 . S
C1338 C1339 1.367 . S
C1338 C1346 1.378 . S
C1339 C1338 1.367 . S
C1339 C1347 1.433 . S
C1340 H1336 0.929 . S
C1340 C1342 1.378 . S
C1340 C1344 1.350 . S
C1341 C1344 1.463 . S
C1341 C1346 1.350 . S
C1341 N1349 1.427 . S
C1342 H1333 0.930 . S
C1342 C1340 1.378 . S
C1342 C1343 1.367 . S
C1343 C1342 1.367 . S
C1343 C1345 1.433 . S
C1344 C1340 1.350 . S
C1344 C1341 1.463 . S
C1344 N1348 1.427 . S
C1345 H1335 0.929 . S
C1345 C1343 1.433 . S
C1345 N1348 1.384 . S
C1346 H1337 0.929 . S
C1346 C1338 1.378 . S
C1346 C1341 1.350 . S
C1347 H1334 0.929 . S
C1347 C1339 1.433 . S
C1347 N1349 1.384 . S
N1348 C1344 1.427 . S
N1348 C1345 1.384 . S
N1349 C1341 1.427 . S
N1349 C1347 1.384 . S
H1350 C1356 0.930 . S
H1351 C1360 0.930 . S
H1352 C1365 0.929 . S
H1353 C1363 0.929 . S
H1354 C1358 0.929 . S
H1355 C1364 0.929 . S
C1356 H1350 0.930 . S
C1356 C1357 1.367 . S
C1356 C1364 1.378 . S
C1357 C1356 1.367 . S
C1357 C1365 1.433 . S
C1358 H1354 0.929 . S
C1358 C1360 1.378 . S
C1358 C1362 1.350 . S
C1359 C1362 1.463 . S
C1359 C1364 1.350 . S
C1359 N1367 1.427 . S
C1360 H1351 0.930 . S
C1360 C1358 1.378 . S
C1360 C1361 1.367 . S
C1361 C1360 1.367 . S
C1361 C1363 1.433 . S
C1362 C1358 1.350 . S
C1362 C1359 1.463 . S
C1362 N1366 1.427 . S
C1363 H1353 0.929 . S
C1363 C1361 1.433 . S
C1363 N1366 1.384 . S
C1364 H1355 0.929 . S
C1364 C1356 1.378 . S
C1364 C1359 1.350 . S
C1365 H1352 0.929 . S
C1365 C1357 1.433 . S
C1365 N1367 1.384 . S
N1366 C1362 1.427 . S
N1366 C1363 1.384 . S
N1367 C1359 1.427 . S
N1367 C1365 1.384 . S
H1368 C1374 0.930 . S
H1369 C1378 0.930 . S
H1370 C1383 0.929 . S
H1371 C1381 0.929 . S
H1372 C1376 0.929 . S
H1373 C1382 0.929 . S
C1374 H1368 0.930 . S
C1374 C1375 1.367 . S
C1374 C1382 1.378 . S
C1375 C1374 1.367 . S
C1375 C1383 1.433 . S
C1376 H1372 0.929 . S
C1376 C1378 1.378 . S
C1376 C1380 1.350 . S
C1377 C1380 1.463 . S
C1377 C1382 1.350 . S
C1377 N1385 1.427 . S
C1378 H1369 0.930 . S
C1378 C1376 1.378 . S
C1378 C1379 1.367 . S
C1379 C1378 1.367 . S
C1379 C1381 1.433 . S
C1380 C1376 1.350 . S
C1380 C1377 1.463 . S
C1380 N1384 1.427 . S
C1381 H1371 0.929 . S
C1381 C1379 1.433 . S
C1381 N1384 1.384 . S
C1382 H1373 0.929 . S
C1382 C1374 1.378 . S
C1382 C1377 1.350 . S
C1383 H1370 0.929 . S
C1383 C1375 1.433 . S
C1383 N1385 1.384 . S
N1384 C1380 1.427 . S
N1384 C1381 1.384 . S
N1385 C1377 1.427 . S
N1385 C1383 1.384 . S
H1386 C1392 0.930 . S
H1387 C1396 0.930 . S
H1388 C1401 0.929 . S
H1389 C1399 0.929 . S
H1390 C1394 0.929 . S
H1391 C1400 0.929 . S
C1392 H1386 0.930 . S
C1392 C1393 1.367 . S
C1392 C1400 1.378 . S
C1393 C1392 1.367 . S
C1393 C1401 1.433 . S
C1394 H1390 0.929 . S
C1394 C1396 1.378 . S
C1394 C1398 1.350 . S
C1395 C1398 1.463 . S
C1395 C1400 1.350 . S
C1395 N1403 1.427 . S
C1396 H1387 0.930 . S
C1396 C1394 1.378 . S
C1396 C1397 1.367 . S
C1397 C1396 1.367 . S
C1397 C1399 1.433 . S
C1398 C1394 1.350 . S
C1398 C1395 1.463 . S
C1398 N1402 1.427 . S
C1399 H1389 0.929 . S
C1399 C1397 1.433 . S
C1399 N1402 1.384 . S
C1400 H1391 0.929 . S
C1400 C1392 1.378 . S
C1400 C1395 1.350 . S
C1401 H1388 0.929 . S
C1401 C1393 1.433 . S
C1401 N1403 1.384 . S
N1402 C1398 1.427 . S
N1402 C1399 1.384 . S
N1403 C1395 1.427 . S
N1403 C1401 1.384 . S
H1404 C1410 0.930 . S
H1405 C1414 0.930 . S
H1406 C1419 0.929 . S
H1407 C1417 0.929 . S
H1408 C1412 0.929 . S
H1409 C1418 0.929 . S
C1410 H1404 0.930 . S
C1410 C1411 1.367 . S
C1410 C1418 1.378 . S
C1411 C1410 1.367 . S
C1411 C1419 1.433 . S
C1412 H1408 0.929 . S
C1412 C1414 1.378 . S
C1412 C1416 1.350 . S
C1413 C1416 1.463 . S
C1413 C1418 1.350 . S
C1413 N1421 1.427 . S
C1414 H1405 0.930 . S
C1414 C1412 1.378 . S
C1414 C1415 1.367 . S
C1415 C1414 1.367 . S
C1415 C1417 1.433 . S
C1416 C1412 1.350 . S
C1416 C1413 1.463 . S
C1416 N1420 1.427 . S
C1417 H1407 0.929 . S
C1417 C1415 1.433 . S
C1417 N1420 1.384 . S
C1418 H1409 0.929 . S
C1418 C1410 1.378 . S
C1418 C1413 1.350 . S
C1419 H1406 0.929 . S
C1419 C1411 1.433 . S
C1419 N1421 1.384 . S
N1420 C1416 1.427 . S
N1420 C1417 1.384 . S
N1421 C1413 1.427 . S
N1421 C1419 1.384 . S
H1422 C1428 0.930 . S
H1423 C1432 0.930 . S
H1424 C1437 0.929 . S
H1425 C1435 0.929 . S
H1426 C1430 0.929 . S
H1427 C1436 0.929 . S
C1428 H1422 0.930 . S
C1428 C1429 1.367 . S
C1428 C1436 1.378 . S
C1429 C1428 1.367 . S
C1429 C1437 1.433 . S
C1430 H1426 0.929 . S
C1430 C1432 1.378 . S
C1430 C1434 1.350 . S
C1431 C1434 1.463 . S
C1431 C1436 1.350 . S
C1431 N1439 1.427 . S
C1432 H1423 0.930 . S
C1432 C1430 1.378 . S
C1432 C1433 1.367 . S
C1433 C1432 1.367 . S
C1433 C1435 1.433 . S
C1434 C1430 1.350 . S
C1434 C1431 1.463 . S
C1434 N1438 1.427 . S
C1435 H1425 0.929 . S
C1435 C1433 1.433 . S
C1435 N1438 1.384 . S
C1436 H1427 0.929 . S
C1436 C1428 1.378 . S
C1436 C1431 1.350 . S
C1437 H1424 0.929 . S
C1437 C1429 1.433 . S
C1437 N1439 1.384 . S
N1438 C1434 1.427 . S
N1438 C1435 1.384 . S
N1439 C1431 1.427 . S
N1439 C1437 1.384 . S
H1440 C1446 0.930 . S
H1441 C1450 0.930 . S
H1442 C1455 0.929 . S
H1443 C1453 0.929 . S
H1444 C1448 0.929 . S
H1445 C1454 0.929 . S
C1446 H1440 0.930 . S
C1446 C1447 1.367 . S
C1446 C1454 1.378 . S
C1447 C1446 1.367 . S
C1447 C1455 1.433 . S
C1448 H1444 0.929 . S
C1448 C1450 1.378 . S
C1448 C1452 1.350 . S
C1449 C1452 1.463 . S
C1449 C1454 1.350 . S
C1449 N1457 1.427 . S
C1450 H1441 0.930 . S
C1450 C1448 1.378 . S
C1450 C1451 1.367 . S
C1451 C1450 1.367 . S
C1451 C1453 1.433 . S
C1452 C1448 1.350 . S
C1452 C1449 1.463 . S
C1452 N1456 1.427 . S
C1453 H1443 0.929 . S
C1453 C1451 1.433 . S
C1453 N1456 1.384 . S
C1454 H1445 0.929 . S
C1454 C1446 1.378 . S
C1454 C1449 1.350 . S
C1455 H1442 0.929 . S
C1455 C1447 1.433 . S
C1455 N1457 1.384 . S
N1456 C1452 1.427 . S
N1456 C1453 1.384 . S
N1457 C1449 1.427 . S
N1457 C1455 1.384 . S
H1458 C1464 0.930 . S
H1459 C1468 0.930 . S
H1460 C1473 0.929 . S
H1461 C1471 0.929 . S
H1462 C1466 0.929 . S
H1463 C1472 0.929 . S
C1464 H1458 0.930 . S
C1464 C1465 1.367 . S
C1464 C1472 1.378 . S
C1465 C1464 1.367 . S
C1465 C1473 1.433 . S
C1466 H1462 0.929 . S
C1466 C1468 1.378 . S
C1466 C1470 1.350 . S
C1467 C1470 1.463 . S
C1467 C1472 1.350 . S
C1467 N1475 1.427 . S
C1468 H1459 0.930 . S
C1468 C1466 1.378 . S
C1468 C1469 1.367 . S
C1469 C1468 1.367 . S
C1469 C1471 1.433 . S
C1470 C1466 1.350 . S
C1470 C1467 1.463 . S
C1470 N1474 1.427 . S
C1471 H1461 0.929 . S
C1471 C1469 1.433 . S
C1471 N1474 1.384 . S
C1472 H1463 0.929 . S
C1472 C1464 1.378 . S
C1472 C1467 1.350 . S
C1473 H1460 0.929 . S
C1473 C1465 1.433 . S
C1473 N1475 1.384 . S
N1474 C1470 1.427 . S
N1474 C1471 1.384 . S
N1475 C1467 1.427 . S
N1475 C1473 1.384 . S
H1476 C1482 0.930 . S
H1477 C1486 0.930 . S
H1478 C1491 0.929 . S
H1479 C1489 0.929 . S
H1480 C1484 0.929 . S
H1481 C1490 0.929 . S
C1482 H1476 0.930 . S
C1482 C1483 1.367 . S
C1482 C1490 1.378 . S
C1483 C1482 1.367 . S
C1483 C1491 1.433 . S
C1484 H1480 0.929 . S
C1484 C1486 1.378 . S
C1484 C1488 1.350 . S
C1485 C1488 1.463 . S
C1485 C1490 1.350 . S
C1485 N1493 1.427 . S
C1486 H1477 0.930 . S
C1486 C1484 1.378 . S
C1486 C1487 1.367 . S
C1487 C1486 1.367 . S
C1487 C1489 1.433 . S
C1488 C1484 1.350 . S
C1488 C1485 1.463 . S
C1488 N1492 1.427 . S
C1489 H1479 0.929 . S
C1489 C1487 1.433 . S
C1489 N1492 1.384 . S
C1490 H1481 0.929 . S
C1490 C1482 1.378 . S
C1490 C1485 1.350 . S
C1491 H1478 0.929 . S
C1491 C1483 1.433 . S
C1491 N1493 1.384 . S
N1492 C1488 1.427 . S
N1492 C1489 1.384 . S
N1493 C1485 1.427 . S
N1493 C1491 1.384 . S
H1494 C1500 0.930 . S
H1495 C1504 0.930 . S
H1496 C1509 0.929 . S
H1497 C1507 0.929 . S
H1498 C1502 0.929 . S
H1499 C1508 0.929 . S
C1500 H1494 0.930 . S
C1500 C1501 1.367 . S
C1500 C1508 1.378 . S
C1501 C1500 1.367 . S
C1501 C1509 1.433 . S
C1502 H1498 0.929 . S
C1502 C1504 1.378 . S
C1502 C1506 1.350 . S
C1503 C1506 1.463 . S
C1503 C1508 1.350 . S
C1503 N1511 1.427 . S
C1504 H1495 0.930 . S
C1504 C1502 1.378 . S
C1504 C1505 1.367 . S
C1505 C1504 1.367 . S
C1505 C1507 1.433 . S
C1506 C1502 1.350 . S
C1506 C1503 1.463 . S
C1506 N1510 1.427 . S
C1507 H1497 0.929 . S
C1507 C1505 1.433 . S
C1507 N1510 1.384 . S
C1508 H1499 0.929 . S
C1508 C1500 1.378 . S
C1508 C1503 1.350 . S
C1509 H1496 0.929 . S
C1509 C1501 1.433 . S
C1509 N1511 1.384 . S
N1510 C1506 1.427 . S
N1510 C1507 1.384 . S
N1511 C1503 1.427 . S
N1511 C1509 1.384 . S
H1512 C1518 0.930 . S
H1513 C1522 0.930 . S
H1514 C1527 0.929 . S
H1515 C1525 0.929 . S
H1516 C1520 0.929 . S
H1517 C1526 0.929 . S
C1518 H1512 0.930 . S
C1518 C1519 1.367 . S
C1518 C1526 1.378 . S
C1519 C1518 1.367 . S
C1519 C1527 1.433 . S
C1520 H1516 0.929 . S
C1520 C1522 1.378 . S
C1520 C1524 1.350 . S
C1521 C1524 1.463 . S
C1521 C1526 1.350 . S
C1521 N1529 1.427 . S
C1522 H1513 0.930 . S
C1522 C1520 1.378 . S
C1522 C1523 1.367 . S
C1523 C1522 1.367 . S
C1523 C1525 1.433 . S
C1524 C1520 1.350 . S
C1524 C1521 1.463 . S
C1524 N1528 1.427 . S
C1525 H1515 0.929 . S
C1525 C1523 1.433 . S
C1525 N1528 1.384 . S
C1526 H1517 0.929 . S
C1526 C1518 1.378 . S
C1526 C1521 1.350 . S
C1527 H1514 0.929 . S
C1527 C1519 1.433 . S
C1527 N1529 1.384 . S
N1528 C1524 1.427 . S
N1528 C1525 1.384 . S
N1529 C1521 1.427 . S
N1529 C1527 1.384 . S
H1530 C1536 0.930 . S
H1531 C1540 0.930 . S
H1532 C1545 0.929 . S
H1533 C1543 0.929 . S
H1534 C1538 0.929 . S
H1535 C1544 0.929 . S
C1536 H1530 0.930 . S
C1536 C1537 1.367 . S
C1536 C1544 1.378 . S
C1537 C1536 1.367 . S
C1537 C1545 1.433 . S
C1538 H1534 0.929 . S
C1538 C1540 1.378 . S
C1538 C1542 1.350 . S
C1539 C1542 1.463 . S
C1539 C1544 1.350 . S
C1539 N1547 1.427 . S
C1540 H1531 0.930 . S
C1540 C1538 1.378 . S
C1540 C1541 1.367 . S
C1541 C1540 1.367 . S
C1541 C1543 1.433 . S
C1542 C1538 1.350 . S
C1542 C1539 1.463 . S
C1542 N1546 1.427 . S
C1543 H1533 0.929 . S
C1543 C1541 1.433 . S
C1543 N1546 1.384 . S
C1544 H1535 0.929 . S
C1544 C1536 1.378 . S
C1544 C1539 1.350 . S
C1545 H1532 0.929 . S
C1545 C1537 1.433 . S
C1545 N1547 1.384 . S
N1546 C1542 1.427 . S
N1546 C1543 1.384 . S
N1547 C1539 1.427 . S
N1547 C1545 1.384 . S
H1548 C1554 0.930 . S
H1549 C1558 0.930 . S
H1550 C1563 0.929 . S
H1551 C1561 0.929 . S
H1552 C1556 0.929 . S
H1553 C1562 0.929 . S
C1554 H1548 0.930 . S
C1554 C1555 1.367 . S
C1554 C1562 1.378 . S
C1555 C1554 1.367 . S
C1555 C1563 1.433 . S
C1556 H1552 0.929 . S
C1556 C1558 1.378 . S
C1556 C1560 1.350 . S
C1557 C1560 1.463 . S
C1557 C1562 1.350 . S
C1557 N1565 1.427 . S
C1558 H1549 0.930 . S
C1558 C1556 1.378 . S
C1558 C1559 1.367 . S
C1559 C1558 1.367 . S
C1559 C1561 1.433 . S
C1560 C1556 1.350 . S
C1560 C1557 1.463 . S
C1560 N1564 1.427 . S
C1561 H1551 0.929 . S
C1561 C1559 1.433 . S
C1561 N1564 1.384 . S
C1562 H1553 0.929 . S
C1562 C1554 1.378 . S
C1562 C1557 1.350 . S
C1563 H1550 0.929 . S
C1563 C1555 1.433 . S
C1563 N1565 1.384 . S
N1564 C1560 1.427 . S
N1564 C1561 1.384 . S
N1565 C1557 1.427 . S
N1565 C1563 1.384 . S
H1566 C1572 0.930 . S
H1567 C1576 0.930 . S
H1568 C1581 0.929 . S
H1569 C1579 0.929 . S
H1570 C1574 0.929 . S
H1571 C1580 0.929 . S
C1572 H1566 0.930 . S
C1572 C1573 1.367 . S
C1572 C1580 1.378 . S
C1573 C1572 1.367 . S
C1573 C1581 1.433 . S
C1574 H1570 0.929 . S
C1574 C1576 1.378 . S
C1574 C1578 1.350 . S
C1575 C1578 1.463 . S
C1575 C1580 1.350 . S
C1575 N1583 1.427 . S
C1576 H1567 0.930 . S
C1576 C1574 1.378 . S
C1576 C1577 1.367 . S
C1577 C1576 1.367 . S
C1577 C1579 1.433 . S
C1578 C1574 1.350 . S
C1578 C1575 1.463 . S
C1578 N1582 1.427 . S
C1579 H1569 0.929 . S
C1579 C1577 1.433 . S
C1579 N1582 1.384 . S
C1580 H1571 0.929 . S
C1580 C1572 1.378 . S
C1580 C1575 1.350 . S
C1581 H1568 0.929 . S
C1581 C1573 1.433 . S
C1581 N1583 1.384 . S
N1582 C1578 1.427 . S
N1582 C1579 1.384 . S
N1583 C1575 1.427 . S
N1583 C1581 1.384 . S
H1584 C1590 0.930 . S
H1585 C1594 0.930 . S
H1586 C1599 0.929 . S
H1587 C1597 0.929 . S
H1588 C1592 0.929 . S
H1589 C1598 0.929 . S
C1590 H1584 0.930 . S
C1590 C1591 1.367 . S
C1590 C1598 1.378 . S
C1591 C1590 1.367 . S
C1591 C1599 1.433 . S
C1592 H1588 0.929 . S
C1592 C1594 1.378 . S
C1592 C1596 1.350 . S
C1593 C1596 1.463 . S
C1593 C1598 1.350 . S
C1593 N1601 1.427 . S
C1594 H1585 0.930 . S
C1594 C1592 1.378 . S
C1594 C1595 1.367 . S
C1595 C1594 1.367 . S
C1595 C1597 1.433 . S
C1596 C1592 1.350 . S
C1596 C1593 1.463 . S
C1596 N1600 1.427 . S
C1597 H1587 0.929 . S
C1597 C1595 1.433 . S
C1597 N1600 1.384 . S
C1598 H1589 0.929 . S
C1598 C1590 1.378 . S
C1598 C1593 1.350 . S
C1599 H1586 0.929 . S
C1599 C1591 1.433 . S
C1599 N1601 1.384 . S
N1600 C1596 1.427 . S
N1600 C1597 1.384 . S
N1601 C1593 1.427 . S
N1601 C1599 1.384 . S
H1602 C1608 0.930 . S
H1603 C1612 0.930 . S
H1604 C1617 0.929 . S
H1605 C1615 0.929 . S
H1606 C1610 0.929 . S
H1607 C1616 0.929 . S
C1608 H1602 0.930 . S
C1608 C1609 1.367 . S
C1608 C1616 1.378 . S
C1609 C1608 1.367 . S
C1609 C1617 1.433 . S
C1610 H1606 0.929 . S
C1610 C1612 1.378 . S
C1610 C1614 1.350 . S
C1611 C1614 1.463 . S
C1611 C1616 1.350 . S
C1611 N1619 1.427 . S
C1612 H1603 0.930 . S
C1612 C1610 1.378 . S
C1612 C1613 1.367 . S
C1613 C1612 1.367 . S
C1613 C1615 1.433 . S
C1614 C1610 1.350 . S
C1614 C1611 1.463 . S
C1614 N1618 1.427 . S
C1615 H1605 0.929 . S
C1615 C1613 1.433 . S
C1615 N1618 1.384 . S
C1616 H1607 0.929 . S
C1616 C1608 1.378 . S
C1616 C1611 1.350 . S
C1617 H1604 0.929 . S
C1617 C1609 1.433 . S
C1617 N1619 1.384 . S
N1618 C1614 1.427 . S
N1618 C1615 1.384 . S
N1619 C1611 1.427 . S
N1619 C1617 1.384 . S
H1620 C1626 0.930 . S
H1621 C1630 0.930 . S
H1622 C1635 0.929 . S
H1623 C1633 0.929 . S
H1624 C1628 0.929 . S
H1625 C1634 0.929 . S
C1626 H1620 0.930 . S
C1626 C1627 1.367 . S
C1626 C1634 1.378 . S
C1627 C1626 1.367 . S
C1627 C1635 1.433 . S
C1628 H1624 0.929 . S
C1628 C1630 1.378 . S
C1628 C1632 1.350 . S
C1629 C1632 1.463 . S
C1629 C1634 1.350 . S
C1629 N1637 1.427 . S
C1630 H1621 0.930 . S
C1630 C1628 1.378 . S
C1630 C1631 1.367 . S
C1631 C1630 1.367 . S
C1631 C1633 1.433 . S
C1632 C1628 1.350 . S
C1632 C1629 1.463 . S
C1632 N1636 1.427 . S
C1633 H1623 0.929 . S
C1633 C1631 1.433 . S
C1633 N1636 1.384 . S
C1634 H1625 0.929 . S
C1634 C1626 1.378 . S
C1634 C1629 1.350 . S
C1635 H1622 0.929 . S
C1635 C1627 1.433 . S
C1635 N1637 1.384 . S
N1636 C1632 1.427 . S
N1636 C1633 1.384 . S
N1637 C1629 1.427 . S
N1637 C1635 1.384 . S
H1638 C1644 0.930 . S
H1639 C1648 0.930 . S
H1640 C1653 0.929 . S
H1641 C1651 0.929 . S
H1642 C1646 0.929 . S
H1643 C1652 0.929 . S
C1644 H1638 0.930 . S
C1644 C1645 1.367 . S
C1644 C1652 1.378 . S
C1645 C1644 1.367 . S
C1645 C1653 1.433 . S
C1646 H1642 0.929 . S
C1646 C1648 1.378 . S
C1646 C1650 1.350 . S
C1647 C1650 1.463 . S
C1647 C1652 1.350 . S
C1647 N1655 1.427 . S
C1648 H1639 0.930 . S
C1648 C1646 1.378 . S
C1648 C1649 1.367 . S
C1649 C1648 1.367 . S
C1649 C1651 1.433 . S
C1650 C1646 1.350 . S
C1650 C1647 1.463 . S
C1650 N1654 1.427 . S
C1651 H1641 0.929 . S
C1651 C1649 1.433 . S
C1651 N1654 1.384 . S
C1652 H1643 0.929 . S
C1652 C1644 1.378 . S
C1652 C1647 1.350 . S
C1653 H1640 0.929 . S
C1653 C1645 1.433 . S
C1653 N1655 1.384 . S
N1654 C1650 1.427 . S
N1654 C1651 1.384 . S
N1655 C1647 1.427 . S
N1655 C1653 1.384 . S
H1656 C1662 0.930 . S
H1657 C1666 0.930 . S
H1658 C1671 0.929 . S
H1659 C1669 0.929 . S
H1660 C1664 0.929 . S
H1661 C1670 0.929 . S
C1662 H1656 0.930 . S
C1662 C1663 1.367 . S
C1662 C1670 1.378 . S
C1663 C1662 1.367 . S
C1663 C1671 1.433 . S
C1664 H1660 0.929 . S
C1664 C1666 1.378 . S
C1664 C1668 1.350 . S
C1665 C1668 1.463 . S
C1665 C1670 1.350 . S
C1665 N1673 1.427 . S
C1666 H1657 0.930 . S
C1666 C1664 1.378 . S
C1666 C1667 1.367 . S
C1667 C1666 1.367 . S
C1667 C1669 1.433 . S
C1668 C1664 1.350 . S
C1668 C1665 1.463 . S
C1668 N1672 1.427 . S
C1669 H1659 0.929 . S
C1669 C1667 1.433 . S
C1669 N1672 1.384 . S
C1670 H1661 0.929 . S
C1670 C1662 1.378 . S
C1670 C1665 1.350 . S
C1671 H1658 0.929 . S
C1671 C1663 1.433 . S
C1671 N1673 1.384 . S
N1672 C1668 1.427 . S
N1672 C1669 1.384 . S
N1673 C1665 1.427 . S
N1673 C1671 1.384 . S
H1674 C1680 0.930 . S
H1675 C1684 0.930 . S
H1676 C1689 0.929 . S
H1677 C1687 0.929 . S
H1678 C1682 0.929 . S
H1679 C1688 0.929 . S
C1680 H1674 0.930 . S
C1680 C1681 1.367 . S
C1680 C1688 1.378 . S
C1681 C1680 1.367 . S
C1681 C1689 1.433 . S
C1682 H1678 0.929 . S
C1682 C1684 1.378 . S
C1682 C1686 1.350 . S
C1683 C1686 1.463 . S
C1683 C1688 1.350 . S
C1683 N1691 1.427 . S
C1684 H1675 0.930 . S
C1684 C1682 1.378 . S
C1684 C1685 1.367 . S
C1685 C1684 1.367 . S
C1685 C1687 1.433 . S
C1686 C1682 1.350 . S
C1686 C1683 1.463 . S
C1686 N1690 1.427 . S
C1687 H1677 0.929 . S
C1687 C1685 1.433 . S
C1687 N1690 1.384 . S
C1688 H1679 0.929 . S
C1688 C1680 1.378 . S
C1688 C1683 1.350 . S
C1689 H1676 0.929 . S
C1689 C1681 1.433 . S
C1689 N1691 1.384 . S
N1690 C1686 1.427 . S
N1690 C1687 1.384 . S
N1691 C1683 1.427 . S
N1691 C1689 1.384 . S
H1692 C1698 0.930 . S
H1693 C1702 0.930 . S
H1694 C1707 0.929 . S
H1695 C1705 0.929 . S
H1696 C1700 0.929 . S
H1697 C1706 0.929 . S
C1698 H1692 0.930 . S
C1698 C1699 1.367 . S
C1698 C1706 1.378 . S
C1699 C1698 1.367 . S
C1699 C1707 1.433 . S
C1700 H1696 0.929 . S
C1700 C1702 1.378 . S
C1700 C1704 1.350 . S
C1701 C1704 1.463 . S
C1701 C1706 1.350 . S
C1701 N1709 1.427 . S
C1702 H1693 0.930 . S
C1702 C1700 1.378 . S
C1702 C1703 1.367 . S
C1703 C1702 1.367 . S
C1703 C1705 1.433 . S
C1704 C1700 1.350 . S
C1704 C1701 1.463 . S
C1704 N1708 1.427 . S
C1705 H1695 0.929 . S
C1705 C1703 1.433 . S
C1705 N1708 1.384 . S
C1706 H1697 0.929 . S
C1706 C1698 1.378 . S
C1706 C1701 1.350 . S
C1707 H1694 0.929 . S
C1707 C1699 1.433 . S
C1707 N1709 1.384 . S
N1708 C1704 1.427 . S
N1708 C1705 1.384 . S
N1709 C1701 1.427 . S
N1709 C1707 1.384 . S
H1710 C1716 0.930 . S
H1711 C1720 0.930 . S
H1712 C1725 0.929 . S
H1713 C1723 0.929 . S
H1714 C1718 0.929 . S
H1715 C1724 0.929 . S
C1716 H1710 0.930 . S
C1716 C1717 1.367 . S
C1716 C1724 1.378 . S
C1717 C1716 1.367 . S
C1717 C1725 1.433 . S
C1718 H1714 0.929 . S
C1718 C1720 1.378 . S
C1718 C1722 1.350 . S
C1719 C1722 1.463 . S
C1719 C1724 1.350 . S
C1719 N1727 1.427 . S
C1720 H1711 0.930 . S
C1720 C1718 1.378 . S
C1720 C1721 1.367 . S
C1721 C1720 1.367 . S
C1721 C1723 1.433 . S
C1722 C1718 1.350 . S
C1722 C1719 1.463 . S
C1722 N1726 1.427 . S
C1723 H1713 0.929 . S
C1723 C1721 1.433 . S
C1723 N1726 1.384 . S
C1724 H1715 0.929 . S
C1724 C1716 1.378 . S
C1724 C1719 1.350 . S
C1725 H1712 0.929 . S
C1725 C1717 1.433 . S
C1725 N1727 1.384 . S
N1726 C1722 1.427 . S
N1726 C1723 1.384 . S
N1727 C1719 1.427 . S
N1727 C1725 1.384 . S
H1728 C1734 0.930 . S
H1729 C1738 0.930 . S
H1730 C1743 0.929 . S
H1731 C1741 0.929 . S
H1732 C1736 0.929 . S
H1733 C1742 0.929 . S
C1734 H1728 0.930 . S
C1734 C1735 1.367 . S
C1734 C1742 1.378 . S
C1735 C1734 1.367 . S
C1735 C1743 1.433 . S
C1736 H1732 0.929 . S
C1736 C1738 1.378 . S
C1736 C1740 1.350 . S
C1737 C1740 1.463 . S
C1737 C1742 1.350 . S
C1737 N1745 1.427 . S
C1738 H1729 0.930 . S
C1738 C1736 1.378 . S
C1738 C1739 1.367 . S
C1739 C1738 1.367 . S
C1739 C1741 1.433 . S
C1740 C1736 1.350 . S
C1740 C1737 1.463 . S
C1740 N1744 1.427 . S
C1741 H1731 0.929 . S
C1741 C1739 1.433 . S
C1741 N1744 1.384 . S
C1742 H1733 0.929 . S
C1742 C1734 1.378 . S
C1742 C1737 1.350 . S
C1743 H1730 0.929 . S
C1743 C1735 1.433 . S
C1743 N1745 1.384 . S
N1744 C1740 1.427 . S
N1744 C1741 1.384 . S
N1745 C1737 1.427 . S
N1745 C1743 1.384 . S
H1746 C1752 0.930 . S
H1747 C1756 0.930 . S
H1748 C1761 0.929 . S
H1749 C1759 0.929 . S
H1750 C1754 0.929 . S
H1751 C1760 0.929 . S
C1752 H1746 0.930 . S
C1752 C1753 1.367 . S
C1752 C1760 1.378 . S
C1753 C1752 1.367 . S
C1753 C1761 1.433 . S
C1754 H1750 0.929 . S
C1754 C1756 1.378 . S
C1754 C1758 1.350 . S
C1755 C1758 1.463 . S
C1755 C1760 1.350 . S
C1755 N1763 1.427 . S
C1756 H1747 0.930 . S
C1756 C1754 1.378 . S
C1756 C1757 1.367 . S
C1757 C1756 1.367 . S
C1757 C1759 1.433 . S
C1758 C1754 1.350 . S
C1758 C1755 1.463 . S
C1758 N1762 1.427 . S
C1759 H1749 0.929 . S
C1759 C1757 1.433 . S
C1759 N1762 1.384 . S
C1760 H1751 0.929 . S
C1760 C1752 1.378 . S
C1760 C1755 1.350 . S
C1761 H1748 0.929 . S
C1761 C1753 1.433 . S
C1761 N1763 1.384 . S
N1762 C1758 1.427 . S
N1762 C1759 1.384 . S
N1763 C1755 1.427 . S
N1763 C1761 1.384 . S
H1764 C1770 0.930 . S
H1765 C1774 0.930 . S
H1766 C1779 0.929 . S
H1767 C1777 0.929 . S
H1768 C1772 0.929 . S
H1769 C1778 0.929 . S
C1770 H1764 0.930 . S
C1770 C1771 1.367 . S
C1770 C1778 1.378 . S
C1771 C1770 1.367 . S
C1771 C1779 1.433 . S
C1772 H1768 0.929 . S
C1772 C1774 1.378 . S
C1772 C1776 1.350 . S
C1773 C1776 1.463 . S
C1773 C1778 1.350 . S
C1773 N1781 1.427 . S
C1774 H1765 0.930 . S
C1774 C1772 1.378 . S
C1774 C1775 1.367 . S
C1775 C1774 1.367 . S
C1775 C1777 1.433 . S
C1776 C1772 1.350 . S
C1776 C1773 1.463 . S
C1776 N1780 1.427 . S
C1777 H1767 0.929 . S
C1777 C1775 1.433 . S
C1777 N1780 1.384 . S
C1778 H1769 0.929 . S
C1778 C1770 1.378 . S
C1778 C1773 1.350 . S
C1779 H1766 0.929 . S
C1779 C1771 1.433 . S
C1779 N1781 1.384 . S
N1780 C1776 1.427 . S
N1780 C1777 1.384 . S
N1781 C1773 1.427 . S
N1781 C1779 1.384 . S
H1782 C1788 0.930 . S
H1783 C1792 0.930 . S
H1784 C1797 0.929 . S
H1785 C1795 0.929 . S
H1786 C1790 0.929 . S
H1787 C1796 0.929 . S
C1788 H1782 0.930 . S
C1788 C1789 1.367 . S
C1788 C1796 1.378 . S
C1789 C1788 1.367 . S
C1789 C1797 1.433 . S
C1790 H1786 0.929 . S
C1790 C1792 1.378 . S
C1790 C1794 1.350 . S
C1791 C1794 1.463 . S
C1791 C1796 1.350 . S
C1791 N1799 1.427 . S
C1792 H1783 0.930 . S
C1792 C1790 1.378 . S
C1792 C1793 1.367 . S
C1793 C1792 1.367 . S
C1793 C1795 1.433 . S
C1794 C1790 1.350 . S
C1794 C1791 1.463 . S
C1794 N1798 1.427 . S
C1795 H1785 0.929 . S
C1795 C1793 1.433 . S
C1795 N1798 1.384 . S
C1796 H1787 0.929 . S
C1796 C1788 1.378 . S
C1796 C1791 1.350 . S
C1797 H1784 0.929 . S
C1797 C1789 1.433 . S
C1797 N1799 1.384 . S
N1798 C1794 1.427 . S
N1798 C1795 1.384 . S
N1799 C1791 1.427 . S
N1799 C1797 1.384 . S
H1800 C1806 0.930 . S
H1801 C1810 0.930 . S
H1802 C1815 0.962 . S
H1803 C1813 0.929 . S
H1804 C1808 0.929 . S
H1805 C1814 0.929 . S
C1806 H1800 0.930 . S
C1806 C1807 1.367 . S
C1806 C1814 1.378 . S
C1807 C1806 1.367 . S
C1807 C1815 1.433 . S
C1808 H1804 0.929 . S
C1808 C1810 1.378 . S
C1808 C1812 1.350 . S
C1809 C1812 1.463 . S
C1809 C1814 1.350 . S
C1809 N1817 1.427 . S
C1810 H1801 0.930 . S
C1810 C1808 1.378 . S
C1810 C1811 1.367 . S
C1811 C1810 1.367 . S
C1811 C1813 1.433 . S
C1812 C1808 1.350 . S
C1812 C1809 1.463 . S
C1812 N1816 1.427 . S
C1813 H1803 0.929 . S
C1813 C1811 1.433 . S
C1813 N1816 1.384 . S
C1814 H1805 0.929 . S
C1814 C1806 1.378 . S
C1814 C1809 1.350 . S
C1815 H1802 0.962 . S
C1815 C1807 1.433 . S
C1815 N1817 1.384 . S
N1816 C1812 1.427 . S
N1816 C1813 1.384 . S
N1817 C1809 1.427 . S
N1817 C1815 1.384 . S
H1818 C1824 0.930 1_554 S
H1819 C1828 0.930 . S
H1820 C1833 0.929 . S
H1821 C1831 0.929 . S
H1822 C1826 0.929 . S
H1823 C1832 0.929 . S
C1824 H1818 0.930 1_556 S
C1824 C1825 1.367 . S
C1824 C1832 1.378 . S
C1825 C1824 1.367 . S
C1825 C1833 1.433 . S
C1826 H1822 0.929 . S
C1826 C1828 1.378 . S
C1826 C1830 1.350 . S
C1827 C1830 1.463 . S
C1827 C1832 1.350 . S
C1827 N1835 1.427 . S
C1828 H1819 0.930 . S
C1828 C1826 1.378 . S
C1828 C1829 1.367 . S
C1829 C1828 1.367 . S
C1829 C1831 1.433 . S
C1830 C1826 1.350 . S
C1830 C1827 1.463 . S
C1830 N1834 1.427 . S
C1831 H1821 0.929 . S
C1831 C1829 1.433 . S
C1831 N1834 1.384 . S
C1832 H1823 0.929 . S
C1832 C1824 1.378 . S
C1832 C1827 1.350 . S
C1833 H1820 0.929 . S
C1833 C1825 1.433 . S
C1833 N1835 1.384 . S
N1834 C1830 1.427 . S
N1834 C1831 1.384 . S
N1835 C1827 1.427 . S
N1835 C1833 1.384 . S
H1836 C1842 0.930 . S
H1837 C1846 0.930 . S
H1838 C1851 0.929 . S
H1839 C1849 0.929 . S
H1840 C1844 0.929 . S
H1841 C1850 0.929 . S
C1842 H1836 0.930 . S
C1842 C1843 1.367 . S
C1842 C1850 1.378 . S
C1843 C1842 1.367 . S
C1843 C1851 1.433 . S
C1844 H1840 0.929 . S
C1844 C1846 1.378 . S
C1844 C1848 1.350 . S
C1845 C1848 1.463 . S
C1845 C1850 1.350 . S
C1845 N1853 1.427 . S
C1846 H1837 0.930 . S
C1846 C1844 1.378 . S
C1846 C1847 1.367 . S
C1847 C1846 1.367 . S
C1847 C1849 1.433 . S
C1848 C1844 1.350 . S
C1848 C1845 1.463 . S
C1848 N1852 1.427 . S
C1849 H1839 0.929 . S
C1849 C1847 1.433 . S
C1849 N1852 1.384 . S
C1850 H1841 0.929 . S
C1850 C1842 1.378 . S
C1850 C1845 1.350 . S
C1851 H1838 0.929 . S
C1851 C1843 1.433 . S
C1851 N1853 1.384 . S
N1852 C1848 1.427 . S
N1852 C1849 1.384 . S
N1853 C1845 1.427 . S
N1853 C1851 1.384 . S
H1854 C1860 0.930 . S
H1855 C1864 0.930 . S
H1856 C1869 0.929 . S
H1857 C1867 0.929 . S
H1858 C1862 0.929 . S
H1859 C1868 0.929 . S
C1860 H1854 0.930 . S
C1860 C1861 1.367 . S
C1860 C1868 1.378 . S
C1861 C1860 1.367 . S
C1861 C1869 1.433 . S
C1862 H1858 0.929 . S
C1862 C1864 1.378 . S
C1862 C1866 1.350 . S
C1863 C1866 1.463 . S
C1863 C1868 1.350 . S
C1863 N1871 1.427 . S
C1864 H1855 0.930 . S
C1864 C1862 1.378 . S
C1864 C1865 1.367 . S
C1865 C1864 1.367 . S
C1865 C1867 1.433 . S
C1866 C1862 1.350 . S
C1866 C1863 1.463 . S
C1866 N1870 1.427 . S
C1867 H1857 0.929 . S
C1867 C1865 1.433 . S
C1867 N1870 1.384 . S
C1868 H1859 0.929 . S
C1868 C1860 1.378 . S
C1868 C1863 1.350 . S
C1869 H1856 0.929 . S
C1869 C1861 1.433 . S
C1869 N1871 1.384 . S
N1870 C1866 1.427 . S
N1870 C1867 1.384 . S
N1871 C1863 1.427 . S
N1871 C1869 1.384 . S
H1872 C1878 0.930 . S
H1873 C1882 0.930 . S
H1874 C1887 0.929 1_554 S
H1875 C1885 0.929 . S
H1876 C1880 0.929 . S
H1877 C1886 0.929 . S
C1878 H1872 0.930 . S
C1878 C1879 1.367 . S
C1878 C1886 1.378 . S
C1879 C1878 1.367 . S
C1879 C1887 1.433 . S
C1880 H1876 0.929 . S
C1880 C1882 1.378 . S
C1880 C1884 1.350 . S
C1881 C1884 1.463 . S
C1881 C1886 1.350 . S
C1881 N1889 1.427 . S
C1882 H1873 0.930 . S
C1882 C1880 1.378 . S
C1882 C1883 1.367 . S
C1883 C1882 1.367 . S
C1883 C1885 1.433 . S
C1884 C1880 1.350 . S
C1884 C1881 1.463 . S
C1884 N1888 1.427 . S
C1885 H1875 0.929 . S
C1885 C1883 1.433 . S
C1885 N1888 1.384 . S
C1886 H1877 0.929 . S
C1886 C1878 1.378 . S
C1886 C1881 1.350 . S
C1887 H1874 0.929 1_556 S
C1887 C1879 1.433 . S
C1887 N1889 1.384 . S
N1888 C1884 1.427 . S
N1888 C1885 1.384 . S
N1889 C1881 1.427 . S
N1889 C1887 1.384 . S
H1890 C1896 0.930 . S
H1891 C1900 0.930 . S
H1892 C1905 0.929 1_554 S
H1893 C1903 0.929 . S
H1894 C1898 0.929 . S
H1895 C1904 0.929 . S
C1896 H1890 0.930 . S
C1896 C1897 1.367 . S
C1896 C1904 1.378 . S
C1897 C1896 1.367 . S
C1897 C1905 1.433 . S
C1898 H1894 0.929 . S
C1898 C1900 1.378 . S
C1898 C1902 1.350 . S
C1899 C1902 1.463 . S
C1899 C1904 1.350 . S
C1899 N1907 1.427 . S
C1900 H1891 0.930 . S
C1900 C1898 1.378 . S
C1900 C1901 1.367 . S
C1901 C1900 1.367 . S
C1901 C1903 1.433 . S
C1902 C1898 1.350 . S
C1902 C1899 1.463 . S
C1902 N1906 1.427 . S
C1903 H1893 0.929 . S
C1903 C1901 1.433 . S
C1903 N1906 1.384 . S
C1904 H1895 0.929 . S
C1904 C1896 1.378 . S
C1904 C1899 1.350 . S
C1905 H1892 0.929 1_556 S
C1905 C1897 1.433 . S
C1905 N1907 1.384 . S
N1906 C1902 1.427 . S
N1906 C1903 1.384 . S
N1907 C1899 1.427 . S
N1907 C1905 1.384 . S
H1908 C1914 0.930 . S
H1909 C1918 0.930 . S
H1910 C1923 0.929 . S
H1911 C1921 0.929 . S
H1912 C1916 0.929 . S
H1913 C1922 0.929 . S
C1914 H1908 0.930 . S
C1914 C1915 1.367 . S
C1914 C1922 1.378 . S
C1915 C1914 1.367 . S
C1915 C1923 1.433 . S
C1916 H1912 0.929 . S
C1916 C1918 1.378 . S
C1916 C1920 1.350 . S
C1917 C1920 1.463 . S
C1917 C1922 1.350 . S
C1917 N1925 1.427 . S
C1918 H1909 0.930 . S
C1918 C1916 1.378 . S
C1918 C1919 1.367 . S
C1919 C1918 1.367 . S
C1919 C1921 1.433 . S
C1920 C1916 1.350 . S
C1920 C1917 1.463 . S
C1920 N1924 1.427 . S
C1921 H1911 0.929 . S
C1921 C1919 1.433 . S
C1921 N1924 1.384 . S
C1922 H1913 0.929 . S
C1922 C1914 1.378 . S
C1922 C1917 1.350 . S
C1923 H1910 0.929 . S
C1923 C1915 1.433 . S
C1923 N1925 1.384 . S
N1924 C1920 1.427 . S
N1924 C1921 1.384 . S
N1925 C1917 1.427 . S
N1925 C1923 1.384 . S
H1926 C1932 0.930 . S
H1927 C1936 0.930 . S
H1928 C1941 0.929 . S
H1929 C1939 0.929 . S
H1930 C1934 0.929 . S
H1931 C1940 0.929 . S
C1932 H1926 0.930 . S
C1932 C1933 1.367 . S
C1932 C1940 1.378 . S
C1933 C1932 1.367 . S
C1933 C1941 1.433 . S
C1934 H1930 0.929 . S
C1934 C1936 1.378 . S
C1934 C1938 1.350 . S
C1935 C1938 1.463 . S
C1935 C1940 1.350 . S
C1935 N1943 1.427 . S
C1936 H1927 0.930 . S
C1936 C1934 1.378 . S
C1936 C1937 1.367 . S
C1937 C1936 1.367 . S
C1937 C1939 1.433 . S
C1938 C1934 1.350 . S
C1938 C1935 1.463 . S
C1938 N1942 1.427 . S
C1939 H1929 0.929 . S
C1939 C1937 1.433 . S
C1939 N1942 1.384 . S
C1940 H1931 0.929 . S
C1940 C1932 1.378 . S
C1940 C1935 1.350 . S
C1941 H1928 0.929 . S
C1941 C1933 1.433 . S
C1941 N1943 1.384 . S
N1942 C1938 1.427 . S
N1942 C1939 1.384 . S
N1943 C1935 1.427 . S
N1943 C1941 1.384 . S
H1944 C1950 0.930 . S
H1945 C1954 0.930 . S
H1946 C1959 0.929 . S
H1947 C1957 0.929 . S
H1948 C1952 0.929 . S
H1949 C1958 0.929 . S
C1950 H1944 0.930 . S
C1950 C1951 1.367 . S
C1950 C1958 1.378 . S
C1951 C1950 1.367 . S
C1951 C1959 1.433 . S
C1952 H1948 0.929 . S
C1952 C1954 1.378 . S
C1952 C1956 1.350 . S
C1953 C1956 1.463 . S
C1953 C1958 1.350 . S
C1953 N1961 1.427 . S
C1954 H1945 0.930 . S
C1954 C1952 1.378 . S
C1954 C1955 1.367 . S
C1955 C1954 1.367 . S
C1955 C1957 1.433 . S
C1956 C1952 1.350 . S
C1956 C1953 1.463 . S
C1956 N1960 1.427 . S
C1957 H1947 0.929 . S
C1957 C1955 1.433 . S
C1957 N1960 1.384 . S
C1958 H1949 0.929 . S
C1958 C1950 1.378 . S
C1958 C1953 1.350 . S
C1959 H1946 0.929 . S
C1959 C1951 1.433 . S
C1959 N1961 1.384 . S
N1960 C1956 1.427 . S
N1960 C1957 1.384 . S
N1961 C1953 1.427 . S
N1961 C1959 1.384 . S
H1962 C1968 0.930 . S
H1963 C1972 0.930 . S
H1964 C1977 0.929 . S
H1965 C1975 0.929 . S
H1966 C1970 0.929 . S
H1967 C1976 0.929 . S
C1968 H1962 0.930 . S
C1968 C1969 1.367 . S
C1968 C1976 1.378 . S
C1969 C1968 1.367 . S
C1969 C1977 1.433 . S
C1970 H1966 0.929 . S
C1970 C1972 1.378 . S
C1970 C1974 1.350 . S
C1971 C1974 1.463 . S
C1971 C1976 1.350 . S
C1971 N1979 1.427 . S
C1972 H1963 0.930 . S
C1972 C1970 1.378 . S
C1972 C1973 1.367 . S
C1973 C1972 1.367 . S
C1973 C1975 1.433 . S
C1974 C1970 1.350 . S
C1974 C1971 1.463 . S
C1974 N1978 1.427 . S
C1975 H1965 0.929 . S
C1975 C1973 1.433 . S
C1975 N1978 1.384 . S
C1976 H1967 0.929 . S
C1976 C1968 1.378 . S
C1976 C1971 1.350 . S
C1977 H1964 0.929 . S
C1977 C1969 1.433 . S
C1977 N1979 1.384 . S
N1978 C1974 1.427 . S
N1978 C1975 1.384 . S
N1979 C1971 1.427 . S
N1979 C1977 1.384 . S
H1980 C1986 0.930 . S
H1981 C1990 0.930 . S
H1982 C1995 0.929 . S
H1983 C1993 0.929 . S
H1984 C1988 0.929 . S
H1985 C1994 0.929 . S
C1986 H1980 0.930 . S
C1986 C1987 1.367 . S
C1986 C1994 1.378 . S
C1987 C1986 1.367 . S
C1987 C1995 1.433 . S
C1988 H1984 0.929 . S
C1988 C1990 1.378 . S
C1988 C1992 1.350 . S
C1989 C1992 1.463 . S
C1989 C1994 1.350 . S
C1989 N1997 1.427 . S
C1990 H1981 0.930 . S
C1990 C1988 1.378 . S
C1990 C1991 1.367 . S
C1991 C1990 1.367 . S
C1991 C1993 1.433 . S
C1992 C1988 1.350 . S
C1992 C1989 1.463 . S
C1992 N1996 1.427 . S
C1993 H1983 0.929 . S
C1993 C1991 1.433 . S
C1993 N1996 1.384 . S
C1994 H1985 0.929 . S
C1994 C1986 1.378 . S
C1994 C1989 1.350 . S
C1995 H1982 0.929 . S
C1995 C1987 1.433 . S
C1995 N1997 1.384 . S
N1996 C1992 1.427 . S
N1996 C1993 1.384 . S
N1997 C1989 1.427 . S
N1997 C1995 1.384 . S
H1998 C2004 0.930 . S
H1999 C2008 0.930 . S
H2000 C2013 0.929 . S
H2001 C2011 0.929 . S
H2002 C2006 0.929 . S
H2003 C2012 0.929 . S
C2004 H1998 0.930 . S
C2004 C2005 1.367 . S
C2004 C2012 1.378 . S
C2005 C2004 1.367 . S
C2005 C2013 1.433 . S
C2006 H2002 0.929 . S
C2006 C2008 1.378 . S
C2006 C2010 1.350 . S
C2007 C2010 1.463 . S
C2007 C2012 1.350 . S
C2007 N2015 1.427 . S
C2008 H1999 0.930 . S
C2008 C2006 1.378 . S
C2008 C2009 1.367 . S
C2009 C2008 1.367 . S
C2009 C2011 1.433 . S
C2010 C2006 1.350 . S
C2010 C2007 1.463 . S
C2010 N2014 1.427 . S
C2011 H2001 0.929 . S
C2011 C2009 1.433 . S
C2011 N2014 1.384 . S
C2012 H2003 0.929 . S
C2012 C2004 1.378 . S
C2012 C2007 1.350 . S
C2013 H2000 0.929 . S
C2013 C2005 1.433 . S
C2013 N2015 1.384 . S
N2014 C2010 1.427 . S
N2014 C2011 1.384 . S
N2015 C2007 1.427 . S
N2015 C2013 1.384 . S
H2016 C2022 0.930 1_655 S
H2017 C2026 0.930 . S
H2018 C2031 0.929 . S
H2019 C2029 0.929 . S
H2020 C2024 0.929 . S
H2021 C2030 0.929 1_655 S
C2022 H2016 0.930 1_455 S
C2022 C2023 1.367 . S
C2022 C2030 1.378 . S
C2023 C2022 1.367 . S
C2023 C2031 1.433 . S
C2024 H2020 0.929 . S
C2024 C2026 1.378 . S
C2024 C2028 1.350 . S
C2025 C2028 1.463 . S
C2025 C2030 1.350 . S
C2025 N2033 1.427 . S
C2026 H2017 0.930 . S
C2026 C2024 1.378 . S
C2026 C2027 1.367 . S
C2027 C2026 1.367 . S
C2027 C2029 1.433 1_455 S
C2028 C2024 1.350 . S
C2028 C2025 1.463 . S
C2028 N2032 1.427 1_455 S
C2029 H2019 0.929 . S
C2029 C2027 1.433 1_655 S
C2029 N2032 1.384 . S
C2030 H2021 0.929 1_455 S
C2030 C2022 1.378 . S
C2030 C2025 1.350 . S
C2031 H2018 0.929 . S
C2031 C2023 1.433 . S
C2031 N2033 1.384 . S
N2032 C2028 1.427 1_655 S
N2032 C2029 1.384 . S
N2033 C2025 1.427 . S
N2033 C2031 1.384 . S
H2034 C2040 0.930 . S
H2035 C2044 0.930 . S
H2036 C2049 0.929 . S
H2037 C2047 0.929 . S
H2038 C2042 0.929 . S
H2039 C2048 0.929 . S
C2040 H2034 0.930 . S
C2040 C2041 1.367 . S
C2040 C2048 1.378 . S
C2041 C2040 1.367 . S
C2041 C2049 1.433 . S
C2042 H2038 0.929 . S
C2042 C2044 1.378 . S
C2042 C2046 1.350 . S
C2043 C2046 1.463 . S
C2043 C2048 1.350 . S
C2043 N2051 1.427 . S
C2044 H2035 0.930 . S
C2044 C2042 1.378 . S
C2044 C2045 1.367 . S
C2045 C2044 1.367 . S
C2045 C2047 1.433 . S
C2046 C2042 1.350 . S
C2046 C2043 1.463 . S
C2046 N2050 1.427 . S
C2047 H2037 0.929 . S
C2047 C2045 1.433 . S
C2047 N2050 1.384 . S
C2048 H2039 0.929 . S
C2048 C2040 1.378 . S
C2048 C2043 1.350 . S
C2049 H2036 0.929 . S
C2049 C2041 1.433 . S
C2049 N2051 1.384 . S
N2050 C2046 1.427 . S
N2050 C2047 1.384 . S
N2051 C2043 1.427 . S
N2051 C2049 1.384 . S
H2052 C2058 0.930 . S
H2053 C2062 0.930 . S
H2054 C2067 0.929 1_545 S
H2055 C2065 0.929 . S
H2056 C2060 0.929 . S
H2057 C2066 0.929 . S
C2058 H2052 0.930 . S
C2058 C2059 1.367 . S
C2058 C2066 1.378 . S
C2059 C2058 1.367 . S
C2059 C2067 1.433 . S
C2060 H2056 0.929 . S
C2060 C2062 1.378 . S
C2060 C2064 1.350 1_545 S
C2061 C2064 1.463 . S
C2061 C2066 1.350 . S
C2061 N2069 1.427 . S
C2062 H2053 0.930 . S
C2062 C2060 1.378 . S
C2062 C2063 1.367 1_545 S
C2063 C2062 1.367 1_565 S
C2063 C2065 1.433 . S
C2064 C2060 1.350 1_565 S
C2064 C2061 1.463 . S
C2064 N2068 1.427 . S
C2065 H2055 0.929 . S
C2065 C2063 1.433 . S
C2065 N2068 1.384 . S
C2066 H2057 0.929 . S
C2066 C2058 1.378 . S
C2066 C2061 1.350 . S
C2067 H2054 0.929 1_565 S
C2067 C2059 1.433 . S
C2067 N2069 1.384 . S
N2068 C2064 1.427 . S
N2068 C2065 1.384 . S
N2069 C2061 1.427 . S
N2069 C2067 1.384 . S
H2070 C2076 0.930 . S
H2071 C2080 0.930 . S
H2072 C2085 0.929 1_545 S
H2073 C2083 0.929 . S
H2074 C2078 0.922 . S
H2075 C2084 0.929 . S
C2076 H2070 0.930 . S
C2076 C2077 1.367 . S
C2076 C2084 1.378 . S
C2077 C2076 1.367 . S
C2077 C2085 1.433 . S
C2078 H2074 0.922 . S
C2078 C2080 1.418 . S
C2078 C2082 1.323 1_545 S
C2079 C2082 1.463 . S
C2079 C2084 1.350 . S
C2079 N2087 1.427 . S
C2080 H2071 0.930 . S
C2080 C2078 1.418 . S
C2080 C2081 1.367 1_545 S
C2081 C2080 1.367 1_565 S
C2081 C2083 1.433 . S
C2082 C2078 1.323 1_565 S
C2082 C2079 1.463 . S
C2082 N2086 1.427 . S
C2083 H2073 0.929 . S
C2083 C2081 1.433 . S
C2083 N2086 1.384 . S
C2084 H2075 0.929 . S
C2084 C2076 1.378 . S
C2084 C2079 1.350 . S
C2085 H2072 0.929 1_565 S
C2085 C2077 1.433 . S
C2085 N2087 1.384 . S
N2086 C2082 1.427 . S
N2086 C2083 1.384 . S
N2087 C2079 1.427 . S
N2087 C2085 1.384 . S
H2088 C2094 0.930 . S
H2089 C2098 0.930 . S
H2090 C2103 0.929 . S
H2091 C2101 0.929 . S
H2092 C2096 0.929 . S
H2093 C2102 0.929 . S
C2094 H2088 0.930 . S
C2094 C2095 1.367 1_655 S
C2094 C2102 1.378 . S
C2095 C2094 1.367 1_455 S
C2095 C2103 1.433 . S
C2096 H2092 0.929 . S
C2096 C2098 1.378 . S
C2096 C2100 1.350 . S
C2097 C2100 1.463 . S
C2097 C2102 1.350 1_455 S
C2097 N2105 1.427 . S
C2098 H2089 0.930 . S
C2098 C2096 1.378 . S
C2098 C2099 1.367 . S
C2099 C2098 1.367 . S
C2099 C2101 1.433 1_455 S
C2100 C2096 1.350 . S
C2100 C2097 1.463 . S
C2100 N2104 1.427 1_455 S
C2101 H2091 0.929 . S
C2101 C2099 1.433 1_655 S
C2101 N2104 1.384 . S
C2102 H2093 0.929 . S
C2102 C2094 1.378 . S
C2102 C2097 1.350 1_655 S
C2103 H2090 0.929 . S
C2103 C2095 1.433 . S
C2103 N2105 1.384 . S
N2104 C2100 1.427 1_655 S
N2104 C2101 1.384 . S
N2105 C2097 1.427 . S
N2105 C2103 1.384 . S
H2106 C2112 0.930 . S
H2107 C2116 0.930 . S
H2108 C2121 0.929 . S
H2109 C2119 0.929 . S
H2110 C2114 0.929 . S
H2111 C2120 0.929 . S
C2112 H2106 0.930 . S
C2112 C2113 1.367 . S
C2112 C2120 1.378 . S
C2113 C2112 1.367 . S
C2113 C2121 1.433 . S
C2114 H2110 0.929 . S
C2114 C2116 1.378 . S
C2114 C2118 1.350 . S
C2115 C2118 1.463 . S
C2115 C2120 1.350 . S
C2115 N2123 1.427 . S
C2116 H2107 0.930 . S
C2116 C2114 1.378 . S
C2116 C2117 1.367 . S
C2117 C2116 1.367 . S
C2117 C2119 1.433 . S
C2118 C2114 1.350 . S
C2118 C2115 1.463 . S
C2118 N2122 1.427 . S
C2119 H2109 0.929 . S
C2119 C2117 1.433 . S
C2119 N2122 1.384 . S
C2120 H2111 0.929 . S
C2120 C2112 1.378 . S
C2120 C2115 1.350 . S
C2121 H2108 0.929 . S
C2121 C2113 1.433 . S
C2121 N2123 1.384 . S
N2122 C2118 1.427 . S
N2122 C2119 1.384 . S
N2123 C2115 1.427 . S
N2123 C2121 1.384 . S
H2124 C2130 0.930 . S
H2125 C2134 0.930 . S
H2126 C2139 0.929 . S
H2127 C2137 0.929 . S
H2128 C2132 0.929 . S
H2129 C2138 0.929 . S
C2130 H2124 0.930 . S
C2130 C2131 1.367 . S
C2130 C2138 1.378 . S
C2131 C2130 1.367 . S
C2131 C2139 1.433 . S
C2132 H2128 0.929 . S
C2132 C2134 1.378 . S
C2132 C2136 1.350 . S
C2133 C2136 1.463 . S
C2133 C2138 1.350 . S
C2133 N2141 1.427 . S
C2134 H2125 0.930 . S
C2134 C2132 1.378 . S
C2134 C2135 1.367 . S
C2135 C2134 1.367 . S
C2135 C2137 1.433 . S
C2136 C2132 1.350 . S
C2136 C2133 1.463 . S
C2136 N2140 1.427 . S
C2137 H2127 0.929 . S
C2137 C2135 1.433 . S
C2137 N2140 1.384 . S
C2138 H2129 0.929 . S
C2138 C2130 1.378 . S
C2138 C2133 1.350 . S
C2139 H2126 0.929 . S
C2139 C2131 1.433 . S
C2139 N2141 1.384 . S
N2140 C2136 1.427 . S
N2140 C2137 1.384 . S
N2141 C2133 1.427 . S
N2141 C2139 1.384 . S
H2142 C2148 0.930 . S
H2143 C2152 0.930 . S
H2144 C2157 0.929 . S
H2145 C2155 0.929 . S
H2146 C2150 0.929 . S
H2147 C2156 0.929 . S
C2148 H2142 0.930 . S
C2148 C2149 1.367 . S
C2148 C2156 1.378 . S
C2149 C2148 1.367 . S
C2149 C2157 1.433 . S
C2150 H2146 0.929 . S
C2150 C2152 1.378 . S
C2150 C2154 1.350 . S
C2151 C2154 1.463 . S
C2151 C2156 1.350 . S
C2151 N2159 1.427 . S
C2152 H2143 0.930 . S
C2152 C2150 1.378 . S
C2152 C2153 1.367 . S
C2153 C2152 1.367 . S
C2153 C2155 1.433 . S
C2154 C2150 1.350 . S
C2154 C2151 1.463 . S
C2154 N2158 1.427 . S
C2155 H2145 0.929 . S
C2155 C2153 1.433 . S
C2155 N2158 1.384 . S
C2156 H2147 0.929 . S
C2156 C2148 1.378 . S
C2156 C2151 1.350 . S
C2157 H2144 0.929 . S
C2157 C2149 1.433 . S
C2157 N2159 1.384 . S
N2158 C2154 1.427 . S
N2158 C2155 1.384 . S
N2159 C2151 1.427 . S
N2159 C2157 1.384 . S
H2160 C2166 0.930 . S
H2161 C2170 0.930 . S
H2162 C2175 0.929 . S
H2163 C2173 0.929 . S
H2164 C2168 0.929 . S
H2165 C2174 0.929 . S
C2166 H2160 0.930 . S
C2166 C2167 1.367 . S
C2166 C2174 1.378 . S
C2167 C2166 1.367 . S
C2167 C2175 1.433 . S
C2168 H2164 0.929 . S
C2168 C2170 1.378 . S
C2168 C2172 1.350 . S
C2169 C2172 1.463 . S
C2169 C2174 1.350 . S
C2169 N2177 1.427 . S
C2170 H2161 0.930 . S
C2170 C2168 1.378 . S
C2170 C2171 1.367 . S
C2171 C2170 1.367 . S
C2171 C2173 1.433 . S
C2172 C2168 1.350 . S
C2172 C2169 1.463 . S
C2172 N2176 1.427 . S
C2173 H2163 0.929 . S
C2173 C2171 1.433 . S
C2173 N2176 1.384 . S
C2174 H2165 0.929 . S
C2174 C2166 1.378 . S
C2174 C2169 1.350 . S
C2175 H2162 0.929 . S
C2175 C2167 1.433 . S
C2175 N2177 1.384 . S
N2176 C2172 1.427 . S
N2176 C2173 1.384 . S
N2177 C2169 1.427 . S
N2177 C2175 1.384 . S
H2178 C2184 0.930 . S
H2179 C2188 0.930 . S
H2180 C2193 0.929 . S
H2181 C2191 0.929 . S
H2182 C2186 0.929 . S
H2183 C2192 0.929 . S
C2184 H2178 0.930 . S
C2184 C2185 1.367 . S
C2184 C2192 1.378 . S
C2185 C2184 1.367 . S
C2185 C2193 1.433 1_545 S
C2186 H2182 0.929 . S
C2186 C2188 1.378 . S
C2186 C2190 1.350 1_565 S
C2187 C2190 1.463 . S
C2187 C2192 1.350 . S
C2187 N2195 1.427 1_545 S
C2188 H2179 0.930 . S
C2188 C2186 1.378 . S
C2188 C2189 1.367 1_565 S
C2189 C2188 1.367 1_545 S
C2189 C2191 1.433 . S
C2190 C2186 1.350 1_545 S
C2190 C2187 1.463 . S
C2190 N2194 1.427 . S
C2191 H2181 0.929 . S
C2191 C2189 1.433 . S
C2191 N2194 1.384 . S
C2192 H2183 0.929 . S
C2192 C2184 1.378 . S
C2192 C2187 1.350 . S
C2193 H2180 0.929 . S
C2193 C2185 1.433 1_565 S
C2193 N2195 1.384 . S
N2194 C2190 1.427 . S
N2194 C2191 1.384 . S
N2195 C2187 1.427 1_565 S
N2195 C2193 1.384 . S
H2196 C2202 0.938 . S
H2197 C2206 0.930 . S
H2198 C2211 0.929 . S
H2199 C2209 0.929 . S
H2200 C2204 0.929 . S
H2201 C2210 0.929 1_455 S
C2202 H2196 0.938 . S
C2202 C2203 1.367 . S
C2202 C2210 1.378 . S
C2203 C2202 1.367 . S
C2203 C2211 1.433 . S
C2204 H2200 0.929 . S
C2204 C2206 1.378 . S
C2204 C2208 1.350 . S
C2205 C2208 1.463 . S
C2205 C2210 1.350 . S
C2205 N2213 1.427 . S
C2206 H2197 0.930 . S
C2206 C2204 1.378 . S
C2206 C2207 1.367 . S
C2207 C2206 1.367 . S
C2207 C2209 1.433 1_655 S
C2208 C2204 1.350 . S
C2208 C2205 1.463 . S
C2208 N2212 1.423 1_655 S
C2209 H2199 0.929 . S
C2209 C2207 1.433 1_455 S
C2209 N2212 1.378 . S
C2210 H2201 0.929 1_655 S
C2210 C2202 1.378 . S
C2210 C2205 1.350 . S
C2211 H2198 0.929 . S
C2211 C2203 1.433 . S
C2211 N2213 1.384 . S
N2212 C2208 1.423 1_455 S
N2212 C2209 1.378 . S
N2213 C2205 1.427 . S
N2213 C2211 1.384 . S
H2214 C2220 0.930 . S
H2215 C2224 0.930 . S
H2216 C2229 0.929 . S
H2217 C2227 0.929 . S
H2218 C2222 0.929 . S
H2219 C2228 0.929 . S
C2220 H2214 0.930 . S
C2220 C2221 1.367 . S
C2220 C2228 1.378 . S
C2221 C2220 1.367 . S
C2221 C2229 1.433 . S
C2222 H2218 0.929 . S
C2222 C2224 1.378 . S
C2222 C2226 1.350 . S
C2223 C2226 1.463 . S
C2223 C2228 1.350 . S
C2223 N2231 1.427 . S
C2224 H2215 0.930 . S
C2224 C2222 1.378 . S
C2224 C2225 1.367 . S
C2225 C2224 1.367 . S
C2225 C2227 1.433 . S
C2226 C2222 1.350 . S
C2226 C2223 1.463 . S
C2226 N2230 1.427 . S
C2227 H2217 0.929 . S
C2227 C2225 1.433 . S
C2227 N2230 1.384 . S
C2228 H2219 0.929 . S
C2228 C2220 1.378 . S
C2228 C2223 1.350 . S
C2229 H2216 0.929 . S
C2229 C2221 1.433 . S
C2229 N2231 1.384 . S
N2230 C2226 1.427 . S
N2230 C2227 1.384 . S
N2231 C2223 1.427 . S
N2231 C2229 1.384 . S
H2232 C2238 0.930 . S
H2233 C2242 0.930 . S
H2234 C2247 0.929 . S
H2235 C2245 0.929 . S
H2236 C2240 0.929 . S
H2237 C2246 0.929 . S
C2238 H2232 0.930 . S
C2238 C2239 1.367 . S
C2238 C2246 1.378 . S
C2239 C2238 1.367 . S
C2239 C2247 1.433 . S
C2240 H2236 0.929 . S
C2240 C2242 1.378 . S
C2240 C2244 1.350 . S
C2241 C2244 1.463 . S
C2241 C2246 1.350 . S
C2241 N2249 1.427 . S
C2242 H2233 0.930 . S
C2242 C2240 1.378 . S
C2242 C2243 1.367 . S
C2243 C2242 1.367 . S
C2243 C2245 1.433 . S
C2244 C2240 1.350 . S
C2244 C2241 1.463 . S
C2244 N2248 1.427 . S
C2245 H2235 0.929 . S
C2245 C2243 1.433 . S
C2245 N2248 1.384 . S
C2246 H2237 0.929 . S
C2246 C2238 1.378 . S
C2246 C2241 1.350 . S
C2247 H2234 0.929 . S
C2247 C2239 1.433 . S
C2247 N2249 1.384 . S
N2248 C2244 1.427 . S
N2248 C2245 1.384 . S
N2249 C2241 1.427 . S
N2249 C2247 1.384 . S
H2250 C2256 0.930 . S
H2251 C2260 0.930 . S
H2252 C2265 0.929 . S
H2253 C2263 0.929 . S
H2254 C2258 0.929 . S
H2255 C2264 0.929 . S
C2256 H2250 0.930 . S
C2256 C2257 1.367 . S
C2256 C2264 1.378 . S
C2257 C2256 1.367 . S
C2257 C2265 1.433 . S
C2258 H2254 0.929 . S
C2258 C2260 1.378 . S
C2258 C2262 1.350 . S
C2259 C2262 1.463 . S
C2259 C2264 1.350 . S
C2259 N2267 1.427 . S
C2260 H2251 0.930 . S
C2260 C2258 1.378 . S
C2260 C2261 1.367 . S
C2261 C2260 1.367 . S
C2261 C2263 1.433 . S
C2262 C2258 1.350 . S
C2262 C2259 1.463 . S
C2262 N2266 1.427 . S
C2263 H2253 0.929 . S
C2263 C2261 1.433 . S
C2263 N2266 1.384 . S
C2264 H2255 0.929 . S
C2264 C2256 1.378 . S
C2264 C2259 1.350 . S
C2265 H2252 0.929 . S
C2265 C2257 1.433 . S
C2265 N2267 1.384 . S
N2266 C2262 1.427 . S
N2266 C2263 1.384 . S
N2267 C2259 1.427 . S
N2267 C2265 1.384 . S
H2268 C2274 0.930 . S
H2269 C2278 0.930 . S
H2270 C2283 0.929 . S
H2271 C2281 0.929 . S
H2272 C2276 0.929 . S
H2273 C2282 0.929 . S
C2274 H2268 0.930 . S
C2274 C2275 1.367 . S
C2274 C2282 1.378 . S
C2275 C2274 1.367 . S
C2275 C2283 1.433 . S
C2276 H2272 0.929 . S
C2276 C2278 1.378 . S
C2276 C2280 1.350 . S
C2277 C2280 1.463 . S
C2277 C2282 1.350 . S
C2277 N2285 1.427 . S
C2278 H2269 0.930 . S
C2278 C2276 1.378 . S
C2278 C2279 1.367 . S
C2279 C2278 1.367 . S
C2279 C2281 1.433 . S
C2280 C2276 1.350 . S
C2280 C2277 1.463 . S
C2280 N2284 1.427 . S
C2281 H2271 0.929 . S
C2281 C2279 1.433 . S
C2281 N2284 1.384 . S
C2282 H2273 0.929 . S
C2282 C2274 1.378 . S
C2282 C2277 1.350 . S
C2283 H2270 0.929 . S
C2283 C2275 1.433 . S
C2283 N2285 1.384 . S
N2284 C2280 1.427 . S
N2284 C2281 1.384 . S
N2285 C2277 1.427 . S
N2285 C2283 1.384 . S
H2286 C2292 0.930 . S
H2287 C2296 0.930 . S
H2288 C2301 0.929 . S
H2289 C2299 0.929 . S
H2290 C2294 0.929 . S
H2291 C2300 0.929 . S
C2292 H2286 0.930 . S
C2292 C2293 1.367 . S
C2292 C2300 1.378 . S
C2293 C2292 1.367 . S
C2293 C2301 1.433 . S
C2294 H2290 0.929 . S
C2294 C2296 1.378 . S
C2294 C2298 1.350 . S
C2295 C2298 1.463 . S
C2295 C2300 1.350 . S
C2295 N2303 1.427 . S
C2296 H2287 0.930 . S
C2296 C2294 1.378 . S
C2296 C2297 1.367 . S
C2297 C2296 1.367 . S
C2297 C2299 1.433 . S
C2298 C2294 1.350 . S
C2298 C2295 1.463 . S
C2298 N2302 1.427 . S
C2299 H2289 0.929 . S
C2299 C2297 1.433 . S
C2299 N2302 1.384 . S
C2300 H2291 0.929 . S
C2300 C2292 1.378 . S
C2300 C2295 1.350 . S
C2301 H2288 0.929 . S
C2301 C2293 1.433 . S
C2301 N2303 1.384 . S
N2302 C2298 1.427 . S
N2302 C2299 1.384 . S
N2303 C2295 1.427 . S
N2303 C2301 1.384 . S
H2304 C2310 0.930 . S
H2305 C2314 0.930 . S
H2306 C2319 0.929 . S
H2307 C2317 0.929 . S
H2308 C2312 0.929 . S
H2309 C2318 0.929 . S
C2310 H2304 0.930 . S
C2310 C2311 1.367 . S
C2310 C2318 1.378 . S
C2311 C2310 1.367 . S
C2311 C2319 1.433 . S
C2312 H2308 0.929 . S
C2312 C2314 1.378 . S
C2312 C2316 1.350 . S
C2313 C2316 1.463 . S
C2313 C2318 1.350 . S
C2313 N2321 1.427 . S
C2314 H2305 0.930 . S
C2314 C2312 1.378 . S
C2314 C2315 1.367 . S
C2315 C2314 1.367 . S
C2315 C2317 1.433 . S
C2316 C2312 1.350 . S
C2316 C2313 1.463 . S
C2316 N2320 1.427 . S
C2317 H2307 0.929 . S
C2317 C2315 1.433 . S
C2317 N2320 1.384 . S
C2318 H2309 0.929 . S
C2318 C2310 1.378 . S
C2318 C2313 1.350 . S
C2319 H2306 0.929 . S
C2319 C2311 1.433 . S
C2319 N2321 1.384 . S
N2320 C2316 1.427 . S
N2320 C2317 1.384 . S
N2321 C2313 1.427 . S
N2321 C2319 1.384 . S
H2322 C2328 0.930 . S
H2323 C2332 0.930 . S
H2324 C2337 0.929 . S
H2325 C2335 0.929 . S
H2326 C2330 0.929 . S
H2327 C2336 0.929 . S
C2328 H2322 0.930 . S
C2328 C2329 1.367 . S
C2328 C2336 1.378 . S
C2329 C2328 1.367 . S
C2329 C2337 1.433 . S
C2330 H2326 0.929 . S
C2330 C2332 1.378 . S
C2330 C2334 1.350 . S
C2331 C2334 1.463 . S
C2331 C2336 1.350 . S
C2331 N2339 1.427 . S
C2332 H2323 0.930 . S
C2332 C2330 1.378 . S
C2332 C2333 1.367 . S
C2333 C2332 1.367 . S
C2333 C2335 1.433 . S
C2334 C2330 1.350 . S
C2334 C2331 1.463 . S
C2334 N2338 1.427 . S
C2335 H2325 0.929 . S
C2335 C2333 1.433 . S
C2335 N2338 1.384 . S
C2336 H2327 0.929 . S
C2336 C2328 1.378 . S
C2336 C2331 1.350 . S
C2337 H2324 0.929 . S
C2337 C2329 1.433 . S
C2337 N2339 1.384 . S
N2338 C2334 1.427 . S
N2338 C2335 1.384 . S
N2339 C2331 1.427 . S
N2339 C2337 1.384 . S
H2340 C2346 0.930 . S
H2341 C2350 0.930 . S
H2342 C2355 0.929 . S
H2343 C2353 0.929 . S
H2344 C2348 0.929 . S
H2345 C2354 0.929 . S
C2346 H2340 0.930 . S
C2346 C2347 1.367 1_455 S
C2346 C2354 1.378 . S
C2347 C2346 1.367 1_655 S
C2347 C2355 1.433 . S
C2348 H2344 0.929 . S
C2348 C2350 1.378 . S
C2348 C2352 1.350 . S
C2349 C2352 1.463 . S
C2349 C2354 1.350 1_655 S
C2349 N2357 1.427 . S
C2350 H2341 0.930 . S
C2350 C2348 1.378 . S
C2350 C2351 1.367 . S
C2351 C2350 1.367 . S
C2351 C2353 1.433 1_655 S
C2352 C2348 1.350 . S
C2352 C2349 1.463 . S
C2352 N2356 1.427 1_655 S
C2353 H2343 0.929 . S
C2353 C2351 1.433 1_455 S
C2353 N2356 1.384 . S
C2354 H2345 0.929 . S
C2354 C2346 1.378 . S
C2354 C2349 1.350 1_455 S
C2355 H2342 0.929 . S
C2355 C2347 1.433 . S
C2355 N2357 1.384 . S
N2356 C2352 1.427 1_455 S
N2356 C2353 1.384 . S
N2357 C2349 1.427 . S
N2357 C2355 1.384 . S
H2358 C2364 0.930 . S
H2359 C2368 0.930 . S
H2360 C2373 0.929 . S
H2361 C2371 0.929 . S
H2362 C2366 0.929 . S
H2363 C2372 0.929 . S
C2364 H2358 0.930 . S
C2364 C2365 1.367 . S
C2364 C2372 1.378 . S
C2365 C2364 1.367 . S
C2365 C2373 1.433 . S
C2366 H2362 0.929 . S
C2366 C2368 1.378 . S
C2366 C2370 1.350 . S
C2367 C2370 1.463 . S
C2367 C2372 1.350 . S
C2367 N2375 1.427 . S
C2368 H2359 0.930 . S
C2368 C2366 1.378 . S
C2368 C2369 1.367 . S
C2369 C2368 1.367 . S
C2369 C2371 1.433 . S
C2370 C2366 1.350 . S
C2370 C2367 1.463 . S
C2370 N2374 1.427 . S
C2371 H2361 0.929 . S
C2371 C2369 1.433 . S
C2371 N2374 1.384 . S
C2372 H2363 0.929 . S
C2372 C2364 1.378 . S
C2372 C2367 1.350 . S
C2373 H2360 0.929 . S
C2373 C2365 1.433 . S
C2373 N2375 1.384 . S
N2374 C2370 1.427 . S
N2374 C2371 1.384 . S
N2375 C2367 1.427 . S
N2375 C2373 1.384 . S
H2376 C2382 0.930 . S
H2377 C2386 0.930 . S
H2378 C2391 0.929 . S
H2379 C2389 0.929 . S
H2380 C2384 0.929 . S
H2381 C2390 0.929 . S
C2382 H2376 0.930 . S
C2382 C2383 1.367 . S
C2382 C2390 1.378 . S
C2383 C2382 1.367 . S
C2383 C2391 1.433 1_545 S
C2384 H2380 0.929 . S
C2384 C2386 1.378 . S
C2384 C2388 1.350 1_565 S
C2385 C2388 1.463 . S
C2385 C2390 1.350 . S
C2385 N2393 1.427 1_545 S
C2386 H2377 0.930 . S
C2386 C2384 1.378 . S
C2386 C2387 1.367 1_565 S
C2387 C2386 1.367 1_545 S
C2387 C2389 1.433 . S
C2388 C2384 1.350 1_545 S
C2388 C2385 1.463 . S
C2388 N2392 1.427 . S
C2389 H2379 0.929 . S
C2389 C2387 1.433 . S
C2389 N2392 1.384 . S
C2390 H2381 0.929 . S
C2390 C2382 1.378 . S
C2390 C2385 1.350 . S
C2391 H2378 0.929 . S
C2391 C2383 1.433 1_565 S
C2391 N2393 1.384 . S
N2392 C2388 1.427 . S
N2392 C2389 1.384 . S
N2393 C2385 1.427 1_565 S
N2393 C2391 1.384 . S
C1105 C10 1.588 1_655 S
C1109 C711 1.588 . S
C1123 C23 1.627 . S
C1127 C759 1.612 . S
C1145 C807 1.601 . S
C1141 C29 1.600 . S
C1159 C30 1.596 . S
C1163 C831 1.602 . S
C1177 C5 1.607 . S
C1181 C903 1.607 . S
C1195 C18 1.631 . S
C1199 C951 1.625 . S
C1213 C49 1.590 . S
C1217 C879 1.599 . S
C1235 C927 1.627 . S
C1231 C62 1.629 . S
C1253 C855 1.593 . S
C1249 C70 1.615 1_565 S
C1267 C75 1.592 . S
C1271 C783 1.595 . S
C1289 C687 1.617 . S
C1285 C44 1.633 1_655 S
C1303 C57 1.634 . S
C1307 C735 1.633 . S
C1321 C88 1.654 . S
C1325 C999 1.644 . S
C1339 C101 1.652 . S
C1343 C1047 1.638 . S
C1361 C1071 1.635 . S
C1357 C107 1.649 . S
C1375 C108 1.636 . S
C1379 C255 1.626 . S
C1393 C83 1.649 . S
C1397 C327 1.633 . S
C1411 C96 1.643 . S
C1415 C375 1.635 . S
C1429 C127 1.635 . S
C1433 C303 1.628 . S
C1447 C140 1.643 . S
C1451 C351 1.634 . S
C1469 C279 1.615 . S
C1465 C146 1.638 . S
C1487 C1095 1.621 . S
C1483 C147 1.653 . S
C1505 C975 1.652 . S
C1501 C122 1.652 . S
C1523 C1023 1.653 . S
C1519 C135 1.659 . S
C1537 C160 1.634 . S
C1541 C423 1.624 . S
C1555 C173 1.638 . S
C1559 C471 1.622 . S
C1573 C185 1.644 . S
C1577 C495 1.631 . S
C1591 C186 1.656 . S
C1595 C543 1.647 . S
C1613 C615 1.644 . S
C1609 C159 1.650 . S
C1631 C663 1.642 . S
C1627 C172 1.657 . S
C1649 C591 1.654 . S
C1645 C205 1.658 . S
C1667 C639 1.651 . S
C1663 C218 1.656 . S
C1681 C224 1.642 . S
C1685 C567 1.608 . S
C1703 C519 1.596 . S
C1699 C225 1.629 . S
C1717 C200 1.649 . S
C1721 C399 1.649 . S
C1739 C447 1.644 . S
C1735 C213 1.646 . S
C1757 C264 1.517 . S
C1753 C4 1.519 . S
C1771 C17 1.495 . S
C1775 C318 1.486 . S
C1793 C366 1.510 . S
C1789 C31 1.521 . S
C1811 C414 1.510 . S
C1807 C36 1.520 . S
C1829 C462 1.509 . S
C1825 C3 1.525 . S
C1847 C504 1.499 . S
C1843 C16 1.501 . S
C1861 C43 1.523 . S
C1865 C510 1.525 . S
C1879 C56 1.496 . S
C1883 C408 1.485 . S
C1897 C68 1.514 . S
C1901 C456 1.496 . S
C1915 C69 1.519 . S
C1919 C312 1.516 . S
C1937 C360 1.506 . S
C1933 C42 1.520 . S
C1951 C55 1.505 . S
C1955 C270 1.501 . S
C1973 C552 1.517 . S
C1969 C82 1.517 . S
C1987 C95 1.529 . S
C1991 C606 1.518 . S
C2005 C109 1.545 . S
C2009 C654 1.531 . S
C2027 C702 1.491 . S
C2023 C114 1.489 . S
C2041 C81 1.527 . S
C2045 C750 1.519 . S
C2059 C94 1.493 . S
C2063 C798 1.490 . S
C2077 C121 1.491 . S
C2081 C792 1.483 . S
C2095 C134 1.488 . S
C2099 C696 1.481 . S
C2117 C744 1.509 . S
C2113 C148 1.520 . S
C2131 C153 1.517 . S
C2135 C600 1.502 . S
C2149 C120 1.546 . S
C2153 C648 1.526 . S
C2171 C558 1.531 . S
C2167 C133 1.538 . S
C2189 C840 1.489 . S
C2185 C166 1.485 . S
C2203 C179 1.484 . S
C2207 C894 1.485 . S
C2221 C187 1.524 . S
C2225 C942 1.511 . S
C2243 C990 1.507 . S
C2239 C192 1.520 . S
C2261 C1038 1.537 . S
C2257 C161 1.546 . S
C2275 C174 1.536 . S
C2279 C1080 1.535 . S
C2293 C199 1.521 . S
C2297 C1086 1.518 . S
C2311 C212 1.528 . S
C2315 C984 1.519 . S
C2333 C1032 1.525 . S
C2329 C226 1.539 . S
C2351 C888 1.478 . S
C2347 C231 1.483 . S
C2369 C936 1.513 . S
C2365 C198 1.529 . S
C2383 C211 1.496 . S
C2387 C846 1.496 . S
