# Generated by pormake.
# Topology zzz, (3,6)-cn, num edge types: 1
# Building blocks:
#     Node 0, Type 0, BuildingBlock: KAKCAD_clean_linker_0, # of connection points: 3
#     Node 1, Type 0, BuildingBlock: KAKCAD_clean_linker_0, # of connection points: 3
#     Node 2, Type 0, BuildingBlock: KAKCAD_clean_linker_0, # of connection points: 3
#     Node 3, Type 0, BuildingBlock: KAKCAD_clean_linker_0, # of connection points: 3
#     Node 4, Type 0, BuildingBlock: KAKCAD_clean_linker_0, # of connection points: 3
#     Node 5, Type 0, BuildingBlock: KAKCAD_clean_linker_0, # of connection points: 3
#     Node 6, Type 0, BuildingBlock: KAKCAD_clean_linker_0, # of connection points: 3
#     Node 7, Type 0, BuildingBlock: KAKCAD_clean_linker_0, # of connection points: 3
#     Node 8, Type 1, BuildingBlock: KUMBOL_clean_sbu_0, # of connection points: 6
#     Node 9, Type 1, BuildingBlock: KUMBOL_clean_sbu_0, # of connection points: 6
#     Node 10, Type 1, BuildingBlock: KUMBOL_clean_sbu_0, # of connection points: 6
#     Node 11, Type 1, BuildingBlock: KUMBOL_clean_sbu_0, # of connection points: 6
#     Edge 12, Type (0, 1), BuildingBlock: KIFKEQ_clean_linker_1, # of connection points: 2
#     Edge 13, Type (0, 1), BuildingBlock: KIFKEQ_clean_linker_1, # of connection points: 2
#     Edge 14, Type (0, 1), BuildingBlock: KIFKEQ_clean_linker_1, # of connection points: 2
#     Edge 15, Type (0, 1), BuildingBlock: KIFKEQ_clean_linker_1, # of connection points: 2
#     Edge 16, Type (0, 1), BuildingBlock: KIFKEQ_clean_linker_1, # of connection points: 2
#     Edge 17, Type (0, 1), BuildingBlock: KIFKEQ_clean_linker_1, # of connection points: 2
#     Edge 18, Type (0, 1), BuildingBlock: KIFKEQ_clean_linker_1, # of connection points: 2
#     Edge 19, Type (0, 1), BuildingBlock: KIFKEQ_clean_linker_1, # of connection points: 2
#     Edge 20, Type (0, 1), BuildingBlock: KIFKEQ_clean_linker_1, # of connection points: 2
#     Edge 21, Type (0, 1), BuildingBlock: KIFKEQ_clean_linker_1, # of connection points: 2
#     Edge 22, Type (0, 1), BuildingBlock: KIFKEQ_clean_linker_1, # of connection points: 2
#     Edge 23, Type (0, 1), BuildingBlock: KIFKEQ_clean_linker_1, # of connection points: 2
#     Edge 24, Type (0, 1), BuildingBlock: KIFKEQ_clean_linker_1, # of connection points: 2
#     Edge 25, Type (0, 1), BuildingBlock: KIFKEQ_clean_linker_1, # of connection points: 2
#     Edge 26, Type (0, 1), BuildingBlock: KIFKEQ_clean_linker_1, # of connection points: 2
#     Edge 27, Type (0, 1), BuildingBlock: KIFKEQ_clean_linker_1, # of connection points: 2
#     Edge 28, Type (0, 1), BuildingBlock: KIFKEQ_clean_linker_1, # of connection points: 2
#     Edge 29, Type (0, 1), BuildingBlock: KIFKEQ_clean_linker_1, # of connection points: 2
#     Edge 30, Type (0, 1), BuildingBlock: KIFKEQ_clean_linker_1, # of connection points: 2
#     Edge 31, Type (0, 1), BuildingBlock: KIFKEQ_clean_linker_1, # of connection points: 2
#     Edge 32, Type (0, 1), BuildingBlock: KIFKEQ_clean_linker_1, # of connection points: 2
#     Edge 33, Type (0, 1), BuildingBlock: KIFKEQ_clean_linker_1, # of connection points: 2
#     Edge 34, Type (0, 1), BuildingBlock: KIFKEQ_clean_linker_1, # of connection points: 2
#     Edge 35, Type (0, 1), BuildingBlock: KIFKEQ_clean_linker_1, # of connection points: 2
# Relax obj value: 0.293
# Max RMSD: 0.225
# Mean RMSD: 0.211
data_MOF--net-zzz--node1-KUMBOL_clean_sbu_0--node2-KAKCAD_clean_linker_0--edge1-KIFKEQ_clean_linker_1
_symmetry_space_group_name_H-M    P1
_symmetry_Int_Tables_number       1
_symmetry_cell_setting            triclinic
loop_
_symmetry_equiv_pos_as_xyz
'x, y, z'
_cell_length_a     58.091778
_cell_length_b     57.979963
_cell_length_c     20.121811
_cell_angle_alpha  91.111128
_cell_angle_beta   90.223638
_cell_angle_gamma 89.964962
loop_
_atom_site_label
_atom_site_type_symbol
_atom_site_fract_x
_atom_site_fract_y
_atom_site_fract_z
_atom_type_partial_charge
C0 C 0.79981 0.60781 0.9507 0.0
C1 C 0.82295 0.60067 0.95249 0.0
C2 C 0.78417 0.60009 0.99837 0.0
C3 C 0.79134 0.5849 0.04824 0.0
C4 C 0.81466 0.57852 0.05093 0.0
C5 C 0.83019 0.58636 1.00417 0.0
C6 C 0.7747 0.57401 0.0943 0.0
C7 C 0.75309 0.56644 0.07153 0.0
C8 C 0.73869 0.55298 0.11151 0.0
C9 C 0.74648 0.54679 0.1757 0.0
C10 C 0.76816 0.55463 0.19941 0.0
C11 C 0.78155 0.56872 0.15909 0.0
C12 C 0.77898 0.54711 0.26275 0.0
C13 C 0.7851 0.56384 0.31115 0.0
C14 C 0.7891 0.52513 0.26624 0.0
C15 C 0.80616 0.52054 0.31407 0.0
C16 C 0.8136 0.53788 0.3594 0.0
C17 C 0.71609 0.54523 0.08291 0.0
C18 C 0.69516 0.55061 0.11449 0.0
C19 C 0.71531 0.53524 0.01864 0.0
C20 C 0.69434 0.53187 0.98533 0.0
C21 C 0.67338 0.53846 0.01503 0.0
C22 C 0.67404 0.54728 0.08093 0.0
C23 C 0.80204 0.55926 0.35898 0.0
H24 H 0.79369 0.61879 0.91146 0.0
H25 H 0.76638 0.60557 0.99522 0.0
H26 H 0.82084 0.56635 0.08705 0.0
H27 H 0.84764 0.57983 1.00623 0.0
H28 H 0.74766 0.5704 0.02145 0.0
H29 H 0.79811 0.5747 0.17754 0.0
H30 H 0.73605 0.53572 0.20616 0.0
H31 H 0.77792 0.58106 0.30898 0.0
H32 H 0.78522 0.51211 0.22853 0.0
H33 H 0.81464 0.50391 0.31233 0.0
H34 H 0.69519 0.55854 0.16367 0.0
H35 H 0.73111 0.5307 0.99308 0.0
H36 H 0.80682 0.57292 0.39381 0.0
H37 H 0.65833 0.55261 0.1056 0.0
H38 H 0.69462 0.52442 0.93558 0.0
C39 C 0.9201 0.79446 0.95245 0.0
C40 C 0.9234 0.81844 0.95316 0.0
C41 C 0.92882 0.78113 1.00422 0.0
C42 C 0.94174 0.79147 0.05635 0.0
C43 C 0.94376 0.81569 0.05815 0.0
C44 C 0.93442 0.82895 1.00791 0.0
C45 C 0.95523 0.77737 0.10447 0.0
C46 C 0.96444 0.75584 0.08525 0.0
C47 C 0.97985 0.74402 0.12636 0.0
C48 C 0.9872 0.75461 0.187 0.0
C49 C 0.97786 0.77622 0.20745 0.0
C50 C 0.96122 0.78663 0.16721 0.0
C51 C 0.98626 0.7901 0.26625 0.0
C52 C 0.97037 0.79846 0.31362 0.0
C53 C 1.00834 0.80001 0.26569 0.0
C54 C 0.01383 0.8188 0.30828 0.0
C55 C 0.9974 0.82816 0.35282 0.0
C56 C 0.98798 0.72089 0.10222 0.0
C57 C 0.97607 0.70089 0.12025 0.0
C58 C 1.00372 0.71926 0.0494 0.0
C59 C 1.00701 0.6983 0.01431 0.0
C60 C 0.99435 0.67843 0.03028 0.0
C61 C 0.9792 0.67995 0.08485 0.0
C62 C 0.97587 0.8171 0.35643 0.0
H63 H 0.91174 0.78597 0.91045 0.0
H64 H 0.92624 0.76266 1.00163 0.0
H65 H 0.95397 0.82461 0.0956 0.0
H66 H 0.93774 0.84735 1.00905 0.0
H67 H 0.96027 0.74834 0.03699 0.0
H68 H 0.95381 0.80287 0.18387 0.0
H69 H 0.99998 0.74623 0.21757 0.0
H70 H 0.95305 0.79153 0.31445 0.0
H71 H 0.02081 0.79435 0.22896 0.0
H72 H 0.03073 0.82651 0.3046 0.0
H73 H 0.96337 0.70175 0.15952 0.0
H74 H 0.01261 0.73454 0.03302 0.0
H75 H 0.96265 0.82374 0.3894 0.0
H76 H 0.96933 0.66505 0.09937 0.0
H77 H 0.01863 0.69803 0.97235 0.0
C78 C 0.72773 0.92414 0.95237 0.0
C79 C 0.70475 0.93147 0.94675 0.0
C80 C 0.74089 0.93045 1.00834 0.0
C81 C 0.7314 0.94452 0.05915 0.0
C82 C 0.70794 0.95035 0.05523 0.0
C83 C 0.6948 0.94377 1.00018 0.0
C84 C 0.74611 0.95563 0.11157 0.0
C85 C 0.76828 0.96345 0.09627 0.0
C86 C 0.78076 0.97751 0.14105 0.0
C87 C 0.77053 0.98447 0.20199 0.0
C88 C 0.7484 0.97621 0.21875 0.0
C89 C 0.73688 0.96128 0.17414 0.0
C90 C 0.73535 0.98419 0.27862 0.0
C91 C 0.72665 0.96783 0.32266 0.0
C92 C 0.72668 1.0068 0.28246 0.0
C93 C 0.70859 0.01248 0.32614 0.0
C94 C 0.69874 0.99566 0.3671 0.0
C95 C 0.80402 0.98508 0.11985 0.0
C96 C 0.82312 0.97075 0.13056 0.0
C97 C 0.80616 1.00322 0.07504 0.0
C98 C 0.82669 1.00645 0.03978 0.0
C99 C 0.84554 0.99141 0.04783 0.0
C100 C 0.84365 0.97391 0.09523 0.0
C101 C 0.70873 0.9735 0.36651 0.0
H102 H 0.73583 0.91452 0.91212 0.0
H103 H 0.75875 0.92517 1.01029 0.0
H104 H 0.69995 0.96153 0.09214 0.0
H105 H 0.67732 0.95019 0.9972 0.0
H106 H 0.77564 0.95953 0.04795 0.0
H107 H 0.71992 0.95506 0.18708 0.0
H108 H 0.7796 0.99614 0.23565 0.0
H109 H 0.73279 0.95018 0.32025 0.0
H110 H 0.73264 0.01962 0.24806 0.0
H111 H 0.70139 0.02968 0.32455 0.0
H112 H 0.82173 0.95627 0.16354 0.0
H113 H 0.79147 0.01407 0.06433 0.0
H114 H 0.70212 0.96018 0.39823 0.0
H115 H 0.85783 0.96218 0.10368 0.0
H116 H 0.82727 0.01994 1.00336 0.0
C117 C 0.5327 0.70004 0.26555 0.0
C118 C 0.53552 0.70476 0.334 0.0
C119 C 0.53975 0.71587 0.2183 0.0
C120 C 0.54999 0.73691 0.23769 0.0
C121 C 0.55174 0.74238 0.30584 0.0
C122 C 0.5446 0.72646 0.35354 0.0
C123 C 0.56215 0.75068 0.1868 0.0
C124 C 0.55674 0.77394 0.17385 0.0
C125 C 0.56792 0.78545 0.12165 0.0
C126 C 0.58431 0.77352 0.08292 0.0
C127 C 0.58935 0.75028 0.09422 0.0
C128 C 0.57857 0.73927 0.14711 0.0
C129 C 0.60252 0.73621 0.04485 0.0
C130 C 0.59744 0.73808 0.97684 0.0
C131 C 0.6168 0.71807 0.06545 0.0
C132 C 0.6233 0.70059 0.02045 0.0
C133 C 0.61561 0.70096 0.95412 0.0
C134 C 0.5614 0.80908 0.10107 0.0
C135 C 0.53963 0.81323 0.07324 0.0
C136 C 0.57833 0.82628 0.0971 0.0
C137 C 0.57395 0.84677 0.06355 0.0
C138 C 0.55264 0.85046 0.03173 0.0
C139 C 0.53531 0.83362 0.03874 0.0
C140 C 0.60395 0.72066 0.93192 0.0
H141 H 0.52617 0.68354 0.24788 0.0
H142 H 0.53827 0.71113 0.16609 0.0
H143 H 0.55975 0.75838 0.32219 0.0
H144 H 0.54674 0.73093 0.40568 0.0
H145 H 0.54361 0.78276 0.20276 0.0
H146 H 0.582 0.72116 0.15539 0.0
H147 H 0.59229 0.78207 0.04146 0.0
H148 H 0.58642 0.75175 0.95915 0.0
H149 H 0.62146 0.71646 0.11733 0.0
H150 H 0.63269 0.68586 0.03879 0.0
H151 H 0.52644 0.80005 0.07436 0.0
H152 H 0.59533 0.82342 0.11773 0.0
H153 H 0.5976 0.72154 0.88136 0.0
H154 H 0.51875 0.83554 0.01463 0.0
H155 H 0.58756 0.85946 0.06112 0.0
C156 C 0.23458 0.44079 0.35584 0.0
C157 C 0.21336 0.43026 0.34038 0.0
C158 C 0.24957 0.44723 0.30539 0.0
C159 C 0.24414 0.44252 0.23822 0.0
C160 C 0.22457 0.42902 0.22378 0.0
C161 C 0.20922 0.42323 0.27403 0.0
C162 C 0.25704 0.45407 0.18399 0.0
C163 C 0.28039 0.45972 0.19165 0.0
C164 C 0.29164 0.47384 0.14618 0.0
C165 C 0.27947 0.4818 0.08995 0.0
C166 C 0.25626 0.47515 0.07944 0.0
C167 C 0.24533 0.46166 0.12715 0.0
C168 C 0.24229 0.48215 0.02063 0.0
C169 C 0.23533 0.50515 1.01255 0.0
C170 C 0.23212 0.46499 0.97984 0.0
C171 C 0.2148 0.47045 0.93407 0.0
C172 C 0.20687 0.49328 0.92803 0.0
C173 C 0.3157 0.48071 0.16249 0.0
C174 C 0.31975 0.50056 0.20182 0.0
C175 C 0.33372 0.46479 0.1536 0.0
C176 C 0.3551 0.46827 0.18507 0.0
C177 C 0.35892 0.4876 0.22734 0.0
C178 C 0.34104 0.50399 0.23377 0.0
C179 C 0.21778 0.51065 0.96693 0.0
H180 H 0.23887 0.4457 0.40658 0.0
H181 H 0.2645 0.45741 0.3193 0.0
H182 H 0.22027 0.42411 0.17305 0.0
H183 H 0.19324 0.41493 0.25953 0.0
H184 H 0.28989 0.45368 0.23438 0.0
H185 H 0.22716 0.45799 0.12085 0.0
H186 H 0.28797 0.49277 0.05468 0.0
H187 H 0.24254 0.51869 0.0441 0.0
H188 H 0.23684 0.44706 0.98574 0.0
H189 H 0.20677 0.4565 0.90595 0.0
H190 H 0.30592 0.51272 0.2113 0.0
H191 H 0.33087 0.44904 0.12486 0.0
H192 H 0.21238 0.52846 0.96331 0.0
H193 H 0.34296 0.51893 0.26642 0.0
H194 H 0.36842 0.45544 0.17756 0.0
C195 C 0.09316 0.22368 0.33268 0.0
C196 C 0.1097 0.20761 0.30977 0.0
C197 C 0.08498 0.24089 0.29139 0.0
C198 C 0.09297 0.24245 0.22597 0.0
C199 C 0.11135 0.22827 0.20545 0.0
C200 C 0.11984 0.21119 0.24728 0.0
C201 C 0.07945 0.25587 0.17735 0.0
C202 C 0.07074 0.27766 0.19479 0.0
C203 C 0.05413 0.28859 0.15537 0.0
C204 C 0.04627 0.27724 0.09625 0.0
C205 C 0.0554 0.25533 0.07731 0.0
C206 C 0.0721 0.24517 0.11799 0.0
C207 C 0.04694 0.24112 0.01925 0.0
C208 C 0.02502 0.23086 0.02029 0.0
C209 C 0.06273 0.23323 0.97104 0.0
C210 C 0.05723 0.21487 0.92728 0.0
C211 C 0.03582 0.20351 0.93076 0.0
C212 C 0.04478 0.31111 0.18111 0.0
C213 C 0.03529 0.31221 0.24534 0.0
C214 C 0.04936 0.33195 0.14909 0.0
C215 C 0.04565 0.35333 0.18209 0.0
C216 C 0.0374 0.35435 0.24806 0.0
C217 C 0.03162 0.33343 0.27817 0.0
C218 C 0.01953 0.21232 0.97668 0.0
H219 H 0.08463 0.22173 0.37992 0.0
H220 H 0.07078 0.25149 0.30874 0.0
H221 H 0.11817 0.22946 0.1556 0.0
H222 H 0.13315 0.19976 0.22855 0.0
H223 H 0.07648 0.28594 0.24076 0.0
H224 H 0.0782 0.22794 0.10559 0.0
H225 H 0.03299 0.2851 0.06627 0.0
H226 H 0.0127 0.23609 0.05792 0.0
H227 H 0.07988 0.24053 0.96955 0.0
H228 H 0.07012 0.20916 0.89189 0.0
H229 H 0.0317 0.29647 0.27157 0.0
H230 H 0.05709 0.33169 0.10018 0.0
H231 H 1.00292 0.2041 0.98173 0.0
H232 H 0.02471 0.33337 0.32808 0.0
H233 H 0.05037 0.369 0.1571 0.0
C234 C 0.29985 0.10309 0.32112 0.0
C235 C 0.31857 0.11683 0.30223 0.0
C236 C 0.28365 0.09562 0.27414 0.0
C237 C 0.2857 0.10186 0.20725 0.0
C238 C 0.30273 0.11793 0.1902 0.0
C239 C 0.31905 0.12531 0.23726 0.0
C240 C 0.27284 0.08863 0.15497 0.0
C241 C 0.2503 0.08104 0.16619 0.0
C242 C 0.23981 0.06465 0.12375 0.0
C243 C 0.25205 0.05596 0.0679 0.0
C244 C 0.2744 0.06432 0.05428 0.0
C245 C 0.28444 0.08059 0.09802 0.0
C246 C 0.28884 0.05558 0.99809 0.0
C247 C 0.29878 0.03352 0.99993 0.0
C248 C 0.29686 0.07112 0.95069 0.0
C249 C 0.31509 0.06518 0.9082 0.0
C250 C 0.32615 0.04361 0.91254 0.0
C251 C 0.21684 0.05588 0.14358 0.0
C252 C 0.21549 0.03821 0.19006 0.0
C253 C 0.19686 0.06853 0.12922 0.0
C254 C 0.17611 0.06406 0.16228 0.0
C255 C 0.17491 0.04706 0.21139 0.0
C256 C 0.19484 0.03382 0.22345 0.0
C257 C 0.31722 0.02759 0.95773 0.0
H258 H 0.29898 0.09604 0.3705 0.0
H259 H 0.27089 0.0832 0.28928 0.0
H260 H 0.3044 0.12356 0.13944 0.0
H261 H 0.33306 0.13622 0.2215 0.0
H262 H 0.2411 0.0872 0.20986 0.0
H263 H 0.30209 0.08581 0.08963 0.0
H264 H 0.24435 0.04287 0.03577 0.0
H265 H 0.29335 0.0214 0.03705 0.0
H266 H 0.28972 0.08837 0.94877 0.0
H267 H 0.32094 0.07784 0.87322 0.0
H268 H 0.23082 0.02871 0.2036 0.0
H269 H 0.19759 0.08263 0.09476 0.0
H270 H 0.32527 0.0109 0.96333 0.0
H271 H 0.19496 0.02087 0.26146 0.0
H272 H 0.16117 0.07441 0.15055 0.0
C273 C 0.45896 0.30936 0.88374 0.0
C274 C 0.48224 0.31589 0.87955 0.0
C275 C 0.45179 0.29337 0.93067 0.0
C276 C 0.46767 0.28341 0.97461 0.0
C277 C 0.49116 0.2884 0.96682 0.0
C278 C 0.49837 0.30449 0.91993 0.0
C279 C 0.45939 0.27286 0.03716 0.0
C280 C 0.46788 0.25172 0.06082 0.0
C281 C 0.46224 0.24454 0.12543 0.0
C282 C 0.44901 0.25918 0.16682 0.0
C283 C 0.44048 0.28033 0.14417 0.0
C284 C 0.44483 0.28623 0.07797 0.0
C285 C 0.42969 0.29751 0.1913 0.0
C286 C 0.41824 0.29064 0.24947 0.0
C287 C 0.43284 0.32132 0.18157 0.0
C288 C 0.42576 0.33751 0.22909 0.0
C289 C 0.41598 0.33051 0.28896 0.0
C290 C 0.47076 0.22241 0.15284 0.0
C291 C 0.46469 0.20108 0.12334 0.0
C292 C 0.48255 0.22253 0.21393 0.0
C293 C 0.48744 0.20193 0.24608 0.0
C294 C 0.48056 0.18054 0.21832 0.0
C295 C 0.46941 0.18034 0.15596 0.0
C296 C 0.41187 0.30696 0.29844 0.0
H297 H 0.44597 0.31776 0.854 0.0
H298 H 0.43355 0.28999 0.9358 0.0
H299 H 0.50378 0.28124 1.00042 0.0
H300 H 0.51649 0.30874 0.91735 0.0
H301 H 0.47918 0.24124 0.02993 0.0
H302 H 0.43804 0.30218 0.05884 0.0
H303 H 0.44606 0.2542 0.21764 0.0
H304 H 0.4149 0.27262 0.25859 0.0
H305 H 0.44217 0.32772 0.13936 0.0
H306 H 0.42974 0.35551 0.22123 0.0
H307 H 0.45538 0.2005 0.07659 0.0
H308 H 0.48736 0.23871 0.23797 0.0
H309 H 0.40453 0.30116 0.34461 0.0
H310 H 0.46404 0.16419 0.13283 0.0
H311 H 0.4958 0.20288 0.29426 0.0
Gd312 Gd 0.98898 0.02035 0.57963 0.0
Gd313 Gd 0.03619 0.01307 0.70023 0.0
C314 C 0.06424 0.07373 0.82754 0.0
C315 C 0.10248 0.07873 0.78177 0.0
C316 C 0.07754 0.04795 0.74031 0.0
C317 C 0.06039 0.05512 0.78253 0.0
C318 C 0.09915 0.05906 0.74107 0.0
C319 C 0.08502 0.08605 0.82513 0.0
C320 C 0.04754 0.07876 0.8754 0.0
C321 C 0.0283 0.06454 0.87985 0.0
N322 N 0.04073 0.04251 0.78377 0.0
C323 C 0.02543 0.04616 0.8345 0.0
H324 H 0.01102 0.03496 0.84155 0.0
C325 C 0.09191 0.01777 0.67246 0.0
N326 N 0.07387 0.02852 0.70365 0.0
C327 C 0.11357 0.02825 0.67047 0.0
C328 C 0.11707 0.04932 0.70373 0.0
H329 H 0.08936 1.00125 0.64782 0.0
H330 H 0.08813 0.10063 0.85848 0.0
H331 H 0.01453 0.99377 0.44813 0.0
H332 H 0.04978 0.09292 0.91076 0.0
H333 H 0.01573 0.06759 0.9186 0.0
H334 H 0.11882 0.08774 0.78233 0.0
H335 H 0.93894 0.03066 0.65664 0.0
H336 H 0.97072 0.93918 0.37931 0.0
H337 H 1.00674 0.96155 0.37041 0.0
H338 H 0.90374 0.94745 0.51566 0.0
H339 H 0.12755 0.02 0.64372 0.0
H340 H 0.13393 0.0573 0.70291 0.0
H341 H 0.93256 0.93373 0.43478 0.0
H342 H 0.90045 0.01274 0.6656 0.0
N343 N 0.98343 0.98966 0.50264 0.0
C344 C 0.97399 0.95342 0.41372 0.0
C345 C 0.99433 0.96602 0.4085 0.0
C346 C 0.95789 0.95967 0.46235 0.0
C347 C 0.96303 0.9783 0.50615 0.0
C348 C 0.99868 0.98434 0.45302 0.0
N349 N 0.9518 1.00474 0.59028 0.0
C350 C 0.94678 0.986 0.55157 0.0
C351 C 0.91335 1.00497 0.63363 0.0
C352 C 0.9084 0.98477 0.59742 0.0
C353 C 0.93509 0.01508 0.62834 0.0
C354 C 0.92502 0.97531 0.55465 0.0
H355 H 0.8915 0.97703 0.60131 0.0
O356 O 0.96599 0.04865 0.55677 0.0
O357 O 0.01428 0.03835 0.64735 0.0
O358 O 1.00028 0.0147 0.74752 0.0
O359 O 0.97628 0.99952 0.66577 0.0
O360 O 0.98079 0.05038 0.64962 0.0
O361 O 0.98769 0.03338 0.47976 0.0
O362 O 0.05954 0.98712 0.7381 0.0
O363 O 0.01286 0.99563 0.62672 0.0
O364 O 0.02331 0.02419 0.52544 0.0
O365 O 0.05236 0.02702 0.60644 0.0
O366 O 0.04666 0.98482 0.62688 0.0
O367 O 0.02567 0.99069 0.78005 0.0
C368 C 1.00128 0.05371 0.67241 0.0
C369 C 0.92027 0.95604 0.51351 0.0
C370 C 0.93667 0.94825 0.46742 0.0
C371 C 0.97324 0.04982 0.49574 0.0
C372 C 0.97884 0.07289 0.47254 0.0
C373 C 0.96113 0.0869 0.44839 0.0
C374 C 1.00171 0.08064 0.47113 0.0
C375 C 1.00705 0.10145 0.44057 0.0
C376 C 0.96628 0.10821 0.42116 0.0
C377 C 0.98915 0.11533 0.41629 0.0
C378 C 0.98062 1.00485 0.72863 0.0
C379 C 0.02671 0.98126 0.60056 0.0
C380 C 0.04351 0.97733 0.7724 0.0
C381 C 0.03894 0.95278 0.75562 0.0
C382 C 0.05679 0.93864 0.73122 0.0
C383 C 0.01643 0.94384 0.75806 0.0
C384 C 0.01174 0.92109 0.73648 0.0
C385 C 0.05218 0.91622 0.70863 0.0
C386 C 0.02985 0.90747 0.71112 0.0
C387 C 0.04504 0.02772 0.54386 0.0
H388 H 0.94339 0.08118 0.44977 0.0
H389 H 0.01533 0.07007 0.49111 0.0
H390 H 0.9526 0.11896 0.40226 0.0
H391 H 0.9929 0.13158 0.39295 0.0
H392 H 0.07425 0.94508 0.72835 0.0
H393 H 1.00246 0.95464 0.77598 0.0
H394 H 0.06602 0.90553 0.68949 0.0
H395 H 0.02696 0.88977 0.69506 0.0
Gd396 Gd 0.50724 0.99464 0.57481 0.0
Gd397 Gd 0.51707 0.04097 0.69994 0.0
C398 C 0.45729 0.06573 0.83282 0.0
C399 C 0.45043 0.10429 0.79224 0.0
C400 C 0.48158 0.08082 0.74696 0.0
C401 C 0.47552 0.06297 0.78708 0.0
C402 C 0.46978 0.10209 0.75102 0.0
C403 C 0.4442 0.0861 0.83325 0.0
C404 C 0.45352 0.04845 0.87892 0.0
C405 C 0.46879 0.02996 0.8817 0.0
N406 N 0.489 0.04384 0.78613 0.0
C407 C 0.48684 0.02829 0.83602 0.0
H408 H 0.49914 0.01478 0.8426 0.0
C409 C 0.51065 0.09705 0.68155 0.0
N410 N 0.50073 0.07824 0.70963 0.0
C411 C 0.49952 0.11846 0.68318 0.0
C412 C 0.47864 0.12084 0.71669 0.0
H413 H 0.52691 0.09527 0.65592 0.0
H414 H 0.42995 0.08839 0.86734 0.0
H415 H 0.53175 0.02202 0.44504 0.0
H416 H 0.43966 0.04983 0.91469 0.0
H417 H 0.4669 0.01714 0.91968 0.0
H418 H 0.44091 0.12035 0.79526 0.0
H419 H 0.49851 0.94353 0.64478 0.0
H420 H 0.58536 0.97927 0.36706 0.0
H421 H 0.56293 0.01548 0.36548 0.0
H422 H 0.57899 0.91012 0.49192 0.0
H423 H 0.50707 0.13307 0.65871 0.0
H424 H 0.47012 0.13748 0.71852 0.0
H425 H 0.59148 0.94017 0.41529 0.0
H426 H 0.51652 0.90487 0.64633 0.0
N427 N 0.53633 0.98993 0.49379 0.0
C428 C 0.57153 0.98196 0.40234 0.0
C429 C 0.5589 1.0024 0.40126 0.0
C430 C 0.56583 0.96503 0.44799 0.0
C431 C 0.54775 0.96947 0.49318 0.0
C432 C 0.5411 1.00601 0.44692 0.0
N433 N 0.52282 0.95713 0.57713 0.0
C434 C 0.54084 0.9526 0.53637 0.0
C435 C 0.5236 0.91815 0.61537 0.0
C436 C 0.54304 0.91363 0.57664 0.0
C437 C 0.51341 0.93999 0.61418 0.0
C438 C 0.55166 0.9308 0.53559 0.0
H439 H 0.55089 0.89669 0.57754 0.0
O440 O 0.47972 0.97084 0.54971 0.0
O441 O 0.49089 0.01956 0.64685 0.0
O442 O 0.51652 1.0048 0.74453 0.0
O443 O 0.52911 0.98098 0.65819 0.0
O444 O 0.479 0.98599 0.64767 0.0
O445 O 0.48945 0.99739 0.48034 0.0
O446 O 0.54091 0.06545 0.74609 0.0
O447 O 0.53272 0.01795 0.62304 0.0
O448 O 0.50318 0.02926 0.5246 0.0
O449 O 0.50242 0.05805 0.6079 0.0
O450 O 0.54345 0.05181 0.62369 0.0
O451 O 0.54427 0.02936 0.76609 0.0
C452 C 0.47618 1.00642 0.67239 0.0
C453 C 0.57029 0.92666 0.49273 0.0
C454 C 0.57738 0.94375 0.44904 0.0
C455 C 0.4744 0.98162 0.4956 0.0
C456 C 0.44997 0.98767 0.48911 0.0
C457 C 0.43386 0.96999 0.47879 0.0
C458 C 0.44241 0.01064 0.49643 0.0
C459 C 0.41886 0.01599 0.4917 0.0
C460 C 0.41045 0.9751 0.47529 0.0
C461 C 0.40296 0.99791 0.48136 0.0
C462 C 0.52548 0.98505 0.72207 0.0
C463 C 0.5466 0.03174 0.59649 0.0
C464 C 0.55454 0.04928 0.76648 0.0
C465 C 0.57837 0.04951 0.74029 0.0
C466 C 0.58682 0.06891 0.70723 0.0
C467 C 0.59174 0.02929 0.7407 0.0
C468 C 0.61282 0.02802 0.7065 0.0
C469 C 0.60768 0.06777 0.67318 0.0
C470 C 0.62051 0.04743 0.67216 0.0
C471 C 0.50032 0.05097 0.54491 0.0
H472 H 0.4394 0.95219 0.47386 0.0
H473 H 0.4548 0.02429 0.50577 0.0
H474 H 0.39808 0.96138 0.46705 0.0
H475 H 0.38474 1.0014 0.47593 0.0
H476 H 0.57695 0.08475 0.70564 0.0
H477 H 0.58562 0.01447 0.76745 0.0
H478 H 0.61377 0.08263 0.64667 0.0
H479 H 0.63644 0.04689 0.64437 0.0
Gd480 Gd 0.48689 0.51905 0.66708 0.0
Gd481 Gd 0.54279 0.50779 0.58534 0.0
C482 C 0.61387 0.52032 0.67756 0.0
C483 C 0.62804 0.55238 0.61337 0.0
C484 C 0.59014 0.5362 0.59051 0.0
C485 C 0.59305 0.52073 0.64116 0.0
C486 C 0.6078 0.55188 0.57502 0.0
C487 C 0.6311 0.53658 0.66445 0.0
C488 C 0.61698 0.50322 0.72483 0.0
C489 C 0.59976 0.48685 0.73393 0.0
N490 N 0.576 0.50533 0.65269 0.0
C491 C 0.57941 0.48801 0.6968 0.0
H492 H 0.56639 0.47518 0.70463 0.0
C493 C 0.56831 0.54766 0.49747 0.0
N494 N 0.57058 0.53498 0.55379 0.0
C495 C 0.58522 0.56363 0.48042 0.0
C496 C 0.60491 0.56601 0.51997 0.0
H497 H 0.55305 0.54592 0.46688 0.0
H498 H 0.64707 0.53671 0.69246 0.0
H499 H 0.45942 0.54548 0.54258 0.0
H500 H 0.63272 0.50227 0.7537 0.0
H501 H 0.60211 0.47334 0.76972 0.0
H502 H 0.64171 0.56444 0.60266 0.0
H503 H 0.48169 0.48354 0.79667 0.0
H504 H 0.39479 0.51182 0.50909 0.0
H505 H 0.42262 0.54242 0.48159 0.0
H506 H 0.3928 0.4548 0.67808 0.0
H507 H 0.58303 0.5741 0.43689 0.0
H508 H 0.61805 0.5783 0.50649 0.0
H509 H 0.38407 0.47879 0.58163 0.0
H510 H 0.45464 0.4543 0.83681 0.0
N511 N 0.45269 0.51676 0.60391 0.0
C512 C 0.41086 0.51318 0.53639 0.0
C513 C 0.42651 0.53048 0.52078 0.0
C514 C 0.41594 0.49814 0.588 0.0
C515 C 0.4371 0.50067 0.62207 0.0
C516 C 0.44739 0.5321 0.55537 0.0
N517 N 0.46178 0.49128 0.71077 0.0
C518 C 0.44183 0.48745 0.67697 0.0
C519 C 0.45084 0.46347 0.79172 0.0
C520 C 0.43071 0.45865 0.75599 0.0
C521 C 0.46611 0.48015 0.76886 0.0
C522 C 0.42581 0.47092 0.69842 0.0
H523 H 0.41889 0.44576 0.77393 0.0
O524 O 0.48113 0.5365 0.76226 0.0
O525 O 0.52505 0.52135 0.67471 0.0
O526 O 0.53037 0.47757 0.64837 0.0
O527 O 0.49036 0.48066 0.65148 0.0
O528 O 0.50811 0.51321 0.76074 0.0
O529 O 0.46613 0.54997 0.67219 0.0
O530 O 0.5557 0.4974 0.48865 0.0
O531 O 0.50477 0.50626 0.5763 0.0
O532 O 0.49798 0.54847 0.60044 0.0
O533 O 0.53799 0.54642 0.59907 0.0
O534 O 0.52213 0.51458 0.49132 0.0
O535 O 0.55474 0.47273 0.56857 0.0
C536 C 0.52803 0.51697 0.7353 0.0
C537 C 0.40523 0.46754 0.66267 0.0
C538 C 0.40028 0.48117 0.6077 0.0
C539 C 0.47015 0.55357 0.73508 0.0
C540 C 0.47805 0.57692 0.75189 0.0
C541 C 0.46167 0.59421 0.7638 0.0
C542 C 0.50157 0.58255 0.75022 0.0
C543 C 0.50868 0.60552 0.76026 0.0
C544 C 0.46862 0.61701 0.77395 0.0
C545 C 0.49194 0.62268 0.77212 0.0
C546 C 0.50955 0.46853 0.65725 0.0
C547 C 0.5021 0.51061 0.51556 0.0
C548 C 0.55804 0.47592 0.50524 0.0
C549 C 0.54728 0.45928 0.45935 0.0
C550 C 0.55971 0.45133 0.40398 0.0
C551 C 0.52417 0.45275 0.46725 0.0
C552 C 0.51343 0.43857 0.41916 0.0
C553 C 0.54916 0.43705 0.35642 0.0
C554 C 0.52614 0.43076 0.3637 0.0
C555 C 0.51849 0.55806 0.59194 0.0
H556 H 0.44347 0.59011 0.76431 0.0
H557 H 0.51422 0.5692 0.74011 0.0
H558 H 0.45591 0.63033 0.78325 0.0
H559 H 0.4969 0.64046 0.78147 0.0
H560 H 0.57746 0.45645 0.3971 0.0
H561 H 0.51445 0.45908 0.5097 0.0
H562 H 0.55879 0.43094 0.31363 0.0
H563 H 0.51834 0.41951 0.32636 0.0
Gd564 Gd 1.00575 0.48886 0.68151 0.0
Gd565 Gd 0.01624 0.54302 0.59364 0.0
C566 C 1.00346 0.61577 0.67808 0.0
C567 C 0.96952 0.62757 0.61651 0.0
C568 C 0.9868 0.58993 0.59523 0.0
C569 C 1.00315 0.5943 0.64377 0.0
C570 C 0.9701 0.60671 0.5799 0.0
C571 C 0.98621 0.63211 0.66546 0.0
C572 C 0.02143 0.62042 0.72276 0.0
C573 C 0.03883 0.60412 0.73083 0.0
N574 N 0.01948 0.57805 0.65497 0.0
C575 C 0.03772 0.58307 0.69582 0.0
H576 H 0.05144 0.57091 0.70248 0.0
C577 C 0.97441 0.56613 0.50542 0.0
N578 N 0.98808 0.56979 0.56022 0.0
C579 C 0.9574 0.5821 0.48871 0.0
C580 C 0.955 0.60234 0.52677 0.0
H581 H 0.9761 0.5504 0.47613 0.0
H582 H 0.98598 0.64854 0.69204 0.0
H583 H 0.9792 0.45916 0.55857 0.0
H584 H 0.02229 0.63667 0.75018 0.0
H585 H 0.05308 0.60772 0.76426 0.0
H586 H 0.95667 0.64057 0.60599 0.0
H587 H 0.04089 0.48545 0.81452 0.0
H588 H 0.01327 0.39426 0.53188 0.0
H589 H 0.98241 0.42141 0.50079 0.0
H590 H 0.07087 0.39545 0.70274 0.0
H591 H 0.94615 0.57876 0.44663 0.0
H592 H 0.94189 0.61476 0.51356 0.0
H593 H 0.04684 0.3851 0.60572 0.0
H594 H 0.07038 0.4592 0.85832 0.0
N595 N 1.00834 0.45378 0.62087 0.0
C596 C 0.01202 0.41085 0.55728 0.0
C597 C 0.99452 0.42609 0.53976 0.0
C598 C 0.02726 0.41694 0.60868 0.0
C599 C 0.02467 0.43863 0.64081 0.0
C600 C 0.99282 0.44751 0.57251 0.0
N601 N 0.0338 0.4646 0.72851 0.0
C602 C 0.03789 0.44426 0.69609 0.0
C603 C 0.06142 0.45482 0.81254 0.0
C604 C 0.06659 0.43435 0.77808 0.0
C605 C 0.04462 0.46964 0.78757 0.0
C606 C 0.05451 0.42864 0.71976 0.0
H607 H 0.07954 0.42285 0.79772 0.0
O608 O 0.98863 0.48508 0.77672 0.0
O609 O 1.0033 0.52719 0.68492 0.0
O610 O 0.04668 0.53284 0.66113 0.0
O611 O 0.04417 0.49286 0.67047 0.0
O612 O 0.01182 0.51186 0.77307 0.0
O613 O 0.97586 0.46694 0.68911 0.0
O614 O 0.02451 0.55503 0.49548 0.0
O615 O 0.01836 0.50469 0.58876 0.0
O616 O 0.97573 0.49847 0.61288 0.0
O617 O 0.97796 0.53841 0.61013 0.0
O618 O 1.008 0.52032 0.503 0.0
O619 O 0.05136 0.55264 0.57054 0.0
C620 C 1.00797 0.53133 0.74533 0.0
C621 C 0.05806 0.40758 0.68564 0.0
C622 C 0.0444 0.4017 0.63036 0.0
C623 C 0.9723 0.47224 0.75121 0.0
C624 C 0.94861 0.4788 0.76665 0.0
C625 C 0.93363 0.46206 0.7908 0.0
C626 C 0.94031 0.50091 0.75214 0.0
C627 C 0.91688 0.50621 0.76072 0.0
C628 C 0.91046 0.46728 0.80043 0.0
C629 C 0.9021 0.48913 0.78548 0.0
C630 C 0.05589 0.51242 0.67544 0.0
C631 C 0.01299 0.5008 0.5287 0.0
C632 C 0.04653 0.55534 0.50766 0.0
C633 C 0.06043 0.5423 0.45929 0.0
C634 C 0.06281 0.55077 0.39497 0.0
C635 C 0.0697 0.52064 0.47481 0.0
C636 C 0.08161 0.5076 0.4264 0.0
C637 C 0.07437 0.53783 0.3465 0.0
C638 C 0.08375 0.51643 0.36196 0.0
C639 C 0.96627 0.51894 0.60215 0.0
H640 H 0.93982 0.44488 0.80145 0.0
H641 H 0.95201 0.51375 0.7334 0.0
H642 H 0.89893 0.45433 0.81942 0.0
H643 H 0.88409 0.49277 0.79476 0.0
H644 H 0.05546 0.56728 0.38207 0.0
H645 H 0.06752 0.51387 0.52422 0.0
H646 H 0.07622 0.54447 0.2969 0.0
H647 H 0.09329 0.50714 0.32382 0.0
H648 H 0.1573 1.00698 0.26269 0.0
H649 H 0.1439 0.08023 0.25528 0.0
H650 H 0.1252 1.00263 0.33887 0.0
H651 H 0.11129 0.0756 0.33006 0.0
H652 H 0.04167 0.05153 0.42599 0.0
H653 H 0.0716 0.05678 0.34207 0.0
H654 H 0.11785 0.01456 0.45595 0.0
H655 H 0.08812 1.00943 0.53867 0.0
C656 C 0.14758 0.02221 0.27704 0.0
C657 C 0.15361 0.04402 0.25283 0.0
C658 C 0.12905 0.01966 0.32073 0.0
C659 C 0.11573 0.03879 0.3412 0.0
C660 C 0.12105 0.06046 0.31504 0.0
C661 C 0.13979 0.06307 0.27178 0.0
C662 C 0.0583 0.04369 0.43367 0.0
C663 C 0.06273 0.03088 0.49109 0.0
C664 C 0.07549 0.04665 0.38537 0.0
C665 C 0.09725 0.03617 0.39224 0.0
C666 C 0.10136 0.0229 0.44878 0.0
C667 C 0.0844 0.02033 0.49725 0.0
H668 H 0.4508 0.14398 0.23371 0.0
H669 H 0.51858 0.16804 0.29001 0.0
H670 H 0.45521 0.11117 0.3078 0.0
H671 H 0.52288 0.13554 0.3638 0.0
H672 H 0.50974 0.09711 0.55263 0.0
H673 H 0.50461 0.12614 0.46974 0.0
H674 H 0.47816 0.07449 0.33239 0.0
H675 H 0.483 0.04506 0.41762 0.0
C676 C 0.4668 0.14207 0.26083 0.0
C677 C 0.48421 0.1589 0.25645 0.0
C678 C 0.4693 0.12326 0.30338 0.0
C679 C 0.48925 0.1209 0.3426 0.0
C680 C 0.50706 0.13709 0.33553 0.0
C681 C 0.5046 0.15577 0.29313 0.0
C682 C 0.5023 0.09183 0.50591 0.0
C683 C 0.4963 0.06871 0.49322 0.0
C684 C 0.49974 0.10853 0.45741 0.0
C685 C 0.49113 0.10271 0.394 0.0
C686 C 0.48479 0.07961 0.38083 0.0
C687 C 0.48762 0.06275 0.42966 0.0
H688 H 0.38217 0.52747 0.26329 0.0
H689 H 0.38563 0.45349 0.28322 0.0
H690 H 0.41627 0.53171 0.33239 0.0
H691 H 0.42069 0.45768 0.34885 0.0
H692 H 0.47027 0.47555 0.52373 0.0
H693 H 0.4366 0.4689 0.45226 0.0
H694 H 0.45609 0.52731 0.33447 0.0
H695 H 0.48908 0.53415 0.40732 0.0
C696 C 0.3902 0.51203 0.28196 0.0
C697 C 0.38087 0.49012 0.26698 0.0
C698 C 0.41013 0.51445 0.32106 0.0
C699 C 0.42168 0.49503 0.3461 0.0
C700 C 0.41241 0.4731 0.33105 0.0
C701 C 0.39234 0.47068 0.29227 0.0
C702 C 0.4671 0.48707 0.48296 0.0
C703 C 0.48168 0.506 0.47278 0.0
C704 C 0.44796 0.48309 0.44119 0.0
C705 C 0.44308 0.49787 0.38791 0.0
C706 C 0.45861 0.516 0.37605 0.0
C707 C 0.47767 0.5199 0.41761 0.0
H708 H 0.02314 0.3971 0.20492 0.0
H709 H 0.04822 0.36289 0.37948 0.0
H710 H 0.01964 0.43307 0.2693 0.0
H711 H 0.04418 0.39851 0.44411 0.0
H712 H 0.04933 0.47037 0.539 0.0
H713 H 0.05739 0.43648 0.46805 0.0
H714 H 0.9966 0.451 0.35157 0.0
H715 H 0.98916 0.48505 0.42132 0.0
C716 C 0.02796 0.39719 0.25695 0.0
C717 C 0.03569 0.37681 0.28678 0.0
C718 C 0.02574 0.41787 0.2943 0.0
C719 C 0.03132 0.41891 0.36267 0.0
C720 C 0.03968 0.39865 0.39189 0.0
C721 C 0.04175 0.378 0.35472 0.0
C722 C 0.0377 0.46618 0.49834 0.0
C723 C 0.01819 0.47995 0.48698 0.0
C724 C 0.04229 0.44674 0.45744 0.0
C725 C 0.02756 0.44062 0.40386 0.0
C726 C 1.00854 0.45505 0.39153 0.0
C727 C 1.00409 0.47452 0.432 0.0
H728 H 0.86738 0.03044 1.00375 0.0
H729 H 0.87095 0.9561 0.99127 0.0
H730 H 0.89989 0.03299 0.92795 0.0
H731 H 0.90398 0.95865 0.91736 0.0
H732 H 0.94629 0.9724 0.72755 0.0
H733 H 0.91424 0.96892 0.80528 0.0
H734 H 0.94066 0.02693 0.91983 0.0
H735 H 0.972 0.03083 0.84095 0.0
C736 C 0.87512 0.01461 0.98514 0.0
C737 C 0.8664 0.99307 1.00413 0.0
C738 C 0.89399 0.01607 0.94201 0.0
C739 C 0.90474 0.99603 0.91622 0.0
C740 C 0.8961 0.97448 0.93547 0.0
C741 C 0.87728 0.97303 0.97879 0.0
C742 C 0.94528 0.98432 0.76957 0.0
C743 C 0.96197 1.00171 0.77838 0.0
C744 C 0.92696 0.98226 0.81448 0.0
C745 C 0.92471 0.99764 0.86925 0.0
C746 C 0.94158 0.01488 0.87813 0.0
C747 C 0.95989 0.01688 0.8334 0.0
H748 H 0.51275 0.87537 1.0109 0.0
H749 H 0.58424 0.87229 0.95277 0.0
H750 H 0.50665 0.90724 0.93616 0.0
H751 H 0.57853 0.90521 0.88194 0.0
H752 H 0.55609 0.94937 0.70732 0.0
H753 H 0.56248 0.91715 0.7813 0.0
H754 H 0.5131 0.94634 0.91937 0.0
H755 H 0.5056 0.97734 0.84322 0.0
C756 C 0.52725 0.88149 0.98258 0.0
C757 C 0.54902 0.87102 0.98851 0.0
C758 C 0.52381 0.90011 0.94015 0.0
C759 C 0.54208 0.90907 0.90263 0.0
C760 C 0.5639 0.89875 0.90904 0.0
C761 C 0.56728 0.87999 0.95093 0.0
C762 C 0.54658 0.94886 0.75348 0.0
C763 C 0.53051 0.96625 0.7695 0.0
C764 C 0.5504 0.93045 0.79642 0.0
C765 C 0.53838 0.92895 0.85696 0.0
C766 C 0.52253 0.94656 0.87311 0.0
C767 C 0.51857 0.9648 0.82986 0.0
H768 H 0.63009 0.52598 0.05831 0.0
H769 H 0.66617 0.5476 0.88301 0.0
H770 H 0.59452 0.52287 0.99379 0.0
H771 H 0.631 0.54367 0.81819 0.0
H772 H 0.5603 0.55128 0.72363 0.0
H773 H 0.59414 0.55834 0.79398 0.0
H774 H 0.57598 0.49971 0.91243 0.0
H775 H 0.54193 0.49329 0.84304 0.0
C776 C 0.6305 0.53011 1.00609 0.0
C777 C 0.65124 0.53682 0.97612 0.0
C778 C 0.61007 0.52808 0.96868 0.0
C779 C 0.60968 0.53278 0.90012 0.0
C780 C 0.63035 0.53997 0.87064 0.0
C781 C 0.65074 0.54193 0.90791 0.0
C782 C 0.5637 0.53987 0.76452 0.0
C783 C 0.54891 0.52127 0.77657 0.0
C784 C 0.58309 0.54391 0.80513 0.0
C785 C 0.58815 0.52951 0.85909 0.0
C786 C 0.57274 0.51138 0.87211 0.0
C787 C 0.55329 0.50751 0.83188 0.0
H788 H 0.95967 0.64873 0.99011 0.0
H789 H 0.03304 0.65869 0.97384 0.0
H790 H 0.96247 0.61371 0.92099 0.0
H791 H 0.03574 0.62396 0.90362 0.0
H792 H 0.03615 0.54702 0.84358 0.0
H793 H 0.03247 0.58207 0.91229 0.0
H794 H 0.97033 0.5998 0.80634 0.0
H795 H 0.97432 0.56462 0.73714 0.0
C796 C 0.97645 0.64343 0.97225 0.0
C797 C 0.99615 0.65664 0.98838 0.0
C798 C 0.97801 0.62342 0.93177 0.0
C799 C 0.99935 0.6158 0.90661 0.0
C800 C 0.01903 0.62903 0.92262 0.0
C801 C 0.01745 0.64914 0.96259 0.0
C802 C 0.02183 0.55855 0.83463 0.0
C803 C 1.00593 0.55344 0.78364 0.0
C804 C 0.01972 0.57869 0.87395 0.0
C805 C 1.00123 0.59407 0.86475 0.0
C806 C 0.98479 0.58845 0.81515 0.0
C807 C 0.98717 0.56843 0.77492 0.0
H808 H 0.11798 0.16466 0.25314 0.0
H809 H 0.10647 0.19821 0.444 0.0
H810 H 0.10378 0.12891 0.29646 0.0
H811 H 0.08981 0.16294 0.48474 0.0
H812 H 0.04228 0.10677 0.53113 0.0
H813 H 0.08024 0.12384 0.51025 0.0
H814 H 0.06321 0.12724 0.30103 0.0
H815 H 0.02611 0.11024 0.32223 0.0
C816 C 0.11323 0.16445 0.30505 0.0
C817 C 0.11185 0.18495 0.34359 0.0
C818 C 0.10478 0.14379 0.32974 0.0
C819 C 0.0941 0.1435 0.39229 0.0
C820 C 0.09715 0.16265 0.43536 0.0
C821 C 0.10637 0.18313 0.41142 0.0
C822 C 0.0471 0.11076 0.48067 0.0
C823 C 0.0312 0.10795 0.4284 0.0
C824 C 0.06877 0.12046 0.46865 0.0
C825 C 0.07482 0.12718 0.40408 0.0
C826 C 0.0595 0.12215 0.35135 0.0
C827 C 0.03797 0.11275 0.36347 0.0
H828 H 0.36268 0.10994 0.26235 0.0
H829 H 0.322 0.12351 0.43794 0.0
H830 H 0.39325 0.095 0.32973 0.0
H831 H 0.35325 0.10897 0.5069 0.0
H832 H 0.38006 0.03424 0.54891 0.0
H833 H 0.36143 0.06996 0.51973 0.0
H834 H 0.42171 0.08979 0.40882 0.0
H835 H 0.43941 0.05296 0.43343 0.0
C836 C 0.36071 0.1109 0.31584 0.0
C837 C 0.33957 0.11722 0.34458 0.0
C838 C 0.37843 0.10225 0.35503 0.0
C839 C 0.37546 0.09984 0.42396 0.0
C840 C 0.35578 0.1097 0.4537 0.0
C841 C 0.3379 0.11818 0.41426 0.0
C842 C 0.38945 0.04636 0.51897 0.0
C843 C 0.41082 0.04033 0.4913 0.0
C844 C 0.37892 0.06718 0.5031 0.0
C845 C 0.38971 0.08261 0.45986 0.0
C846 C 0.41253 0.07801 0.44036 0.0
C847 C 0.42286 0.05694 0.45522 0.0
H848 H 0.39328 0.37184 0.29271 0.0
H849 H 0.43765 0.3282 0.4078 0.0
H850 H 0.40699 0.40558 0.35549 0.0
H851 H 0.45212 0.36165 0.4684 0.0
H852 H 0.49319 0.41935 0.52752 0.0
H853 H 0.45708 0.39758 0.52728 0.0
H854 H 0.44393 0.41909 0.32591 0.0
H855 H 0.47926 0.44107 0.32756 0.0
C856 C 0.40509 0.36936 0.33377 0.0
C857 C 0.41492 0.3476 0.34435 0.0
C858 C 0.41312 0.38869 0.3694 0.0
C859 C 0.4315 0.38649 0.41467 0.0
C860 C 0.43819 0.36417 0.43339 0.0
C861 C 0.42987 0.34483 0.3985 0.0
C862 C 0.48202 0.42005 0.48438 0.0
C863 C 0.48926 0.43113 0.42662 0.0
C864 C 0.46139 0.40755 0.4841 0.0
C865 C 0.4478 0.40601 0.42603 0.0
C866 C 0.45377 0.41973 0.3717 0.0
C867 C 0.47428 0.43212 0.37205 0.0
H868 H 0.20527 0.46307 0.43715 0.0
H869 H 0.17692 0.39979 0.35398 0.0
H870 H 0.16913 0.47191 0.48803 0.0
H871 H 0.13987 0.40924 0.40448 0.0
H872 H 0.08496 0.46768 0.35217 0.0
H873 H 0.11499 0.43893 0.36225 0.0
H874 H 0.13491 0.4687 0.55251 0.0
H875 H 0.10557 0.49829 0.54055 0.0
C876 C 0.19171 0.45038 0.4319 0.0
C877 C 0.19401 0.43104 0.38906 0.0
C878 C 0.17068 0.45553 0.46159 0.0
C879 C 0.15128 0.44164 0.44881 0.0
C880 C 0.15434 0.42063 0.4138 0.0
C881 C 0.17556 0.41532 0.38445 0.0
C882 C 0.09546 0.4678 0.39679 0.0
C883 C 0.09374 0.48597 0.44373 0.0
C884 C 0.11247 0.45101 0.40328 0.0
C885 C 0.12802 0.45206 0.45704 0.0
C886 C 0.12368 0.46789 0.50942 0.0
C887 C 0.10676 0.48483 0.50264 0.0
H888 H 0.94076 0.80877 0.83138 0.0
H889 H 0.9009 0.85962 0.93977 0.0
H890 H 0.95282 0.8378 0.75435 0.0
H891 H 0.91215 0.88886 0.8606 0.0
H892 H 0.98254 0.92768 0.84109 0.0
H893 H 0.94933 0.90491 0.86818 0.0
H894 H 0.95449 0.86845 0.67923 0.0
H895 H 0.98837 0.89126 0.65276 0.0
C896 C 0.93339 0.82589 0.83622 0.0
C897 C 0.92049 0.83216 0.89253 0.0
C898 C 0.94034 0.84271 0.79187 0.0
C899 C 0.93428 0.86599 0.80297 0.0
C900 C 0.91785 0.87126 0.85219 0.0
C901 C 0.91117 0.85448 0.89716 0.0
C902 C 0.9762 0.91541 0.80413 0.0
C903 C 0.98849 0.91092 0.74534 0.0
C904 C 0.95689 0.90232 0.81952 0.0
C905 C 0.94935 0.88441 0.77643 0.0
C906 C 0.96012 0.8817 0.71428 0.0
C907 C 0.97958 0.89474 0.69912 0.0
H908 H 0.65925 0.92176 0.9232 0.0
H909 H 0.72209 0.94046 0.82389 0.0
H910 H 0.63695 0.93854 0.83443 0.0
H911 H 0.6998 0.95594 0.73259 0.0
H912 H 0.65944 0.02563 0.71959 0.0
H913 H 0.68226 0.99245 0.74738 0.0
H914 H 0.62203 0.9489 0.72945 0.0
H915 H 0.59894 0.98257 0.70211 0.0
C916 C 0.6683 0.92844 0.88069 0.0
C917 C 0.69237 0.9308 0.88206 0.0
C918 C 0.65548 0.93795 0.82921 0.0
C919 C 0.66662 0.94962 0.77777 0.0
C920 C 0.69072 0.94789 0.77293 0.0
C921 C 0.70354 0.93871 0.82502 0.0
C922 C 0.65112 1.00892 0.71927 0.0
C923 C 0.62725 1.00691 0.71003 0.0
C924 C 0.66431 0.98968 0.73487 0.0
C925 C 0.65399 0.96789 0.74158 0.0
C926 C 0.63047 0.96548 0.726 0.0
C927 C 0.61722 0.98482 0.71066 0.0
H928 H 0.60481 0.65807 0.99636 0.0
H929 H 0.62262 0.69492 0.81935 0.0
H930 H 0.588 0.62768 0.92951 0.0
H931 H 0.60608 0.66381 0.75108 0.0
H932 H 0.54357 0.58282 0.82314 0.0
H933 H 0.5814 0.59834 0.85146 0.0
H934 H 0.56656 0.65855 0.73491 0.0
H935 H 0.52969 0.64219 0.70333 0.0
C936 C 0.60626 0.65916 0.94287 0.0
C937 C 0.6144 0.67933 0.91331 0.0
C938 C 0.59652 0.64153 0.90401 0.0
C939 C 0.59481 0.6436 0.83458 0.0
C940 C 0.6063 0.66205 0.80455 0.0
C941 C 0.61589 0.67985 0.84362 0.0
C942 C 0.54888 0.59887 0.80127 0.0
C943 C 0.53343 0.6117 0.76285 0.0
C944 C 0.5705 0.60791 0.81802 0.0
C945 C 0.57682 0.63013 0.79767 0.0
C946 C 0.56245 0.64148 0.75218 0.0
C947 C 0.54103 0.63229 0.73479 0.0
H948 H 0.86891 0.61093 0.95832 0.0
H949 H 0.81347 0.59937 0.81844 0.0
H950 H 0.8963 0.59815 0.8765 0.0
H951 H 0.84114 0.58893 0.73303 0.0
H952 H 0.87568 0.51782 0.70472 0.0
H953 H 0.85584 0.55382 0.72007 0.0
H954 H 0.91872 0.58527 0.79476 0.0
H955 H 0.93777 0.54811 0.78591 0.0
C956 C 0.86267 0.60661 0.90881 0.0
C957 C 0.83896 0.60456 0.8963 0.0
C958 C 0.87853 0.5994 0.86088 0.0
C959 C 0.87093 0.5905 0.79884 0.0
C960 C 0.84759 0.59387 0.78177 0.0
C961 C 0.83162 0.60035 0.83059 0.0
C962 C 0.88529 0.53247 0.72424 0.0
C963 C 0.90779 0.52971 0.7483 0.0
C964 C 0.87399 0.55354 0.732 0.0
C965 C 0.88509 0.57252 0.76322 0.0
C966 C 0.90901 0.57079 0.77481 0.0
C967 C 0.92015 0.54945 0.76875 0.0
H968 H 0.99473 0.18854 0.87442 0.0
H969 H 0.06614 0.16887 0.89333 0.0
H970 H 0.98709 0.153 0.81143 0.0
H971 H 0.05849 0.13354 0.82968 0.0
H972 H 0.04036 0.08043 0.66225 0.0
H973 H 0.04876 0.11708 0.72086 0.0
H974 H 0.9842 0.11209 0.8254 0.0
H975 H 0.97588 0.07591 0.76613 0.0
C976 C 1.00884 0.17669 0.86555 0.0
C977 C 0.03111 0.18193 0.88947 0.0
C978 C 1.00444 0.15618 0.82916 0.0
C979 C 0.02213 0.14014 0.81519 0.0
C980 C 0.04444 0.14548 0.83833 0.0
C981 C 0.04883 0.16594 0.87495 0.0
C982 C 0.02817 0.0871 0.69843 0.0
C983 C 1.00776 0.07495 0.71098 0.0
C984 C 0.03289 0.10818 0.73192 0.0
C985 C 0.01719 0.11776 0.77832 0.0
C986 C 0.99664 0.1056 0.78975 0.0
C987 C 0.99194 0.08467 0.75621 0.0
H988 H 0.34058 1.00209 0.85684 0.0
H989 H 0.36104 0.07346 0.87922 0.0
H990 H 0.37631 0.99373 0.79785 0.0
H991 H 0.39645 0.06511 0.81925 0.0
H992 H 0.4499 0.04548 0.65803 0.0
H993 H 0.41301 0.05449 0.7118 0.0
H994 H 0.41709 0.99071 0.81877 0.0
H995 H 0.45355 0.98173 0.76411 0.0
C996 C 0.35264 0.01603 0.8495 0.0
C997 C 0.34765 0.0385 0.87323 0.0
C998 C 0.37322 0.01122 0.81546 0.0
C999 C 0.38948 0.02871 0.8038 0.0
C1000 C 0.38434 0.05122 0.82646 0.0
C1001 C 0.36384 0.05602 0.86082 0.0
C1002 C 0.44297 0.0336 0.69374 0.0
C1003 C 0.45489 0.01321 0.70839 0.0
C1004 C 0.42179 0.03868 0.72442 0.0
C1005 C 0.41193 0.02336 0.76996 0.0
C1006 C 0.42387 1.00283 0.78358 0.0
C1007 C 0.44492 0.99776 0.7528 0.0
H1008 H 0.4665 0.32779 0.75527 0.0
H1009 H 0.51319 0.35017 0.91106 0.0
H1010 H 0.4746 0.36292 0.69464 0.0
H1011 H 0.52124 0.38518 0.85071 0.0
H1012 H 0.54316 0.4405 0.7088 0.0
H1013 H 0.53852 0.40216 0.7549 0.0
H1014 H 0.46625 0.4034 0.70361 0.0
H1015 H 0.47107 0.44129 0.65585 0.0
C1016 C 0.47857 0.34012 0.77655 0.0
C1017 C 0.48912 0.33602 0.83835 0.0
C1018 C 0.4832 0.36034 0.74177 0.0
C1019 C 0.4985 0.37709 0.76775 0.0
C1020 C 0.50962 0.37262 0.82845 0.0
C1021 C 0.50501 0.35242 0.86318 0.0
C1022 C 0.52635 0.4325 0.70662 0.0
C1023 C 0.50743 0.44425 0.67952 0.0
C1024 C 0.52363 0.41052 0.7336 0.0
C1025 C 0.50194 0.39963 0.73384 0.0
C1026 C 0.48326 0.41104 0.70413 0.0
C1027 C 0.48598 0.43298 0.67727 0.0
H1028 H 0.19596 0.47484 0.80444 0.0
H1029 H 0.17089 0.52315 0.95318 0.0
H1030 H 0.16117 0.48065 0.73869 0.0
H1031 H 0.13602 0.52886 0.88776 0.0
H1032 H 0.08154 0.54718 0.73499 0.0
H1033 H 0.11885 0.54414 0.79009 0.0
H1034 H 0.12132 0.47156 0.73792 0.0
H1035 H 0.08448 0.47488 0.68087 0.0
C1036 C 0.18305 0.48672 0.8233 0.0
C1037 C 0.18639 0.49843 0.88461 0.0
C1038 C 0.16296 0.49003 0.78549 0.0
C1039 C 0.14547 0.50514 0.80769 0.0
C1040 C 0.1491 0.51732 0.86817 0.0
C1041 C 0.16922 0.51404 0.90592 0.0
C1042 C 0.09017 0.53067 0.73425 0.0
C1043 C 0.07975 0.51128 0.70366 0.0
C1044 C 0.11156 0.52882 0.76672 0.0
C1045 C 0.12327 0.50754 0.7694 0.0
C1046 C 0.11313 0.48833 0.73677 0.0
C1047 C 0.09178 0.49019 0.70436 0.0
H1048 H 0.98434 0.84013 0.48118 0.0
H1049 H 0.02032 0.86689 0.31206 0.0
H1050 H 0.9906 0.87651 0.54146 0.0
H1051 H 0.02635 0.90325 0.37176 0.0
H1052 H 0.05392 0.95822 0.51355 0.0
H1053 H 0.04733 0.92118 0.45764 0.0
H1054 H 0.98099 0.91638 0.55281 0.0
H1055 H 0.98837 0.95319 0.61142 0.0
C1056 C 0.99355 0.85376 0.45663 0.0
C1057 C 1.002 0.85024 0.39159 0.0
C1058 C 0.9971 0.87479 0.49135 0.0
C1059 C 0.00919 0.89309 0.46227 0.0
C1060 C 0.01747 0.88957 0.39703 0.0
C1061 C 0.01402 0.86855 0.3625 0.0
C1062 C 0.03787 0.94928 0.52228 0.0
C1063 C 0.02131 0.95909 0.56496 0.0
C1064 C 0.03398 0.92801 0.48983 0.0
C1065 C 0.01341 0.91562 0.49936 0.0
C1066 C 0.99711 0.92515 0.54411 0.0
C1067 C 1.00111 0.9465 0.57692 0.0
H1068 H 0.66205 0.96675 0.38878 0.0
H1069 H 0.68599 0.03587 0.43348 0.0
H1070 H 0.62624 0.97506 0.44685 0.0
H1071 H 0.64993 0.04421 0.49123 0.0
H1072 H 0.57214 0.05864 0.51655 0.0
H1073 H 0.60938 0.05002 0.46566 0.0
H1074 H 0.60922 0.98304 0.55592 0.0
H1075 H 0.57191 0.99187 0.60679 0.0
C1076 C 0.65993 0.98363 0.41188 0.0
C1077 C 0.67719 1.00059 0.4062 0.0
C1078 C 0.63924 0.98841 0.44521 0.0
C1079 C 0.63502 0.01034 0.47372 0.0
C1080 C 0.65236 0.02723 0.46899 0.0
C1081 C 0.67311 0.02243 0.43577 0.0
C1082 C 0.58004 0.04202 0.52511 0.0
C1083 C 0.56875 0.02564 0.56384 0.0
C1084 C 0.6015 0.03713 0.49645 0.0
C1085 C 0.6124 0.01576 0.50623 0.0
C1086 C 0.60125 0.99953 0.54628 0.0
C1087 C 0.5798 1.00452 0.57523 0.0
H1088 H 0.50088 0.67234 0.33025 0.0
H1089 H 0.55871 0.695 0.45024 0.0
H1090 H 0.49627 0.63908 0.39979 0.0
H1091 H 0.55294 0.66256 0.52338 0.0
H1092 H 0.55636 0.58621 0.5829 0.0
H1093 H 0.55904 0.62308 0.52812 0.0
H1094 H 0.48527 0.62298 0.49864 0.0
H1095 H 0.48297 0.58526 0.54889 0.0
C1096 C 0.5125 0.67044 0.37199 0.0
C1097 C 0.53045 0.68636 0.38346 0.0
C1098 C 0.5096 0.6514 0.4129 0.0
C1099 C 0.5243 0.64775 0.46756 0.0
C1100 C 0.54152 0.66434 0.48116 0.0
C1101 C 0.54461 0.68329 0.43962 0.0
C1102 C 0.54074 0.59391 0.56394 0.0
C1103 C 0.51961 0.58221 0.56789 0.0
C1104 C 0.5422 0.61539 0.5334 0.0
C1105 C 0.52243 0.6261 0.50722 0.0
C1106 C 0.50104 0.61509 0.51584 0.0
C1107 C 0.49966 0.59345 0.54543 0.0
H1108 H 0.84771 0.56917 0.38913 0.0
H1109 H 0.82767 0.49891 0.42614 0.0
H1110 H 0.88265 0.56382 0.45337 0.0
H1111 H 0.86281 0.49354 0.49141 0.0
H1112 H 0.94129 0.48558 0.53515 0.0
H1113 H 0.9036 0.48957 0.48228 0.0
H1114 H 0.89865 0.55934 0.56038 0.0
H1115 H 0.9365 0.55544 0.6115 0.0
C1116 C 0.85047 0.55265 0.41209 0.0
C1117 C 0.83455 0.53455 0.40247 0.0
C1118 C 0.87067 0.54956 0.44922 0.0
C1119 C 0.87576 0.52824 0.47833 0.0
C1120 C 0.85977 0.51014 0.46927 0.0
C1121 C 0.83951 0.51323 0.43182 0.0
C1122 C 0.93203 0.50168 0.54158 0.0
C1123 C 0.94215 0.52031 0.57663 0.0
C1124 C 0.9103 0.50398 0.51135 0.0
C1125 C 0.89799 0.52494 0.51579 0.0
C1126 C 0.90773 0.54314 0.55391 0.0
C1127 C 0.92947 0.54088 0.58366 0.0
loop_
_geom_bond_atom_site_label_1
_geom_bond_atom_site_label_2
_geom_bond_distance
_geom_bond_site_symmetry_2
_ccdc_geom_bond_type
C0 C1 1.385 1_556 S
C0 C2 1.384 1_556 S
C0 H24 0.945 . S
C1 C0 1.385 1_554 S
C1 C5 1.397 . S
C2 C0 1.384 1_554 S
C2 C3 1.384 . S
C2 H25 0.930 . S
C3 C2 1.384 . S
C3 C4 1.377 . S
C3 C6 1.481 . S
C4 C3 1.377 . S
C4 C5 1.389 . S
C4 H26 0.929 . S
C5 C1 1.397 . S
C5 C4 1.389 . S
C5 H27 0.931 . S
C6 C3 1.481 . S
C6 C7 1.387 . S
C6 C11 1.390 . S
C7 C6 1.387 . S
C7 C8 1.401 . S
C7 H28 0.930 . S
C8 C7 1.401 . S
C8 C9 1.376 . S
C8 C17 1.511 . S
C9 C8 1.376 . S
C9 C10 1.392 . S
C9 H30 0.931 . S
C10 C9 1.392 . S
C10 C11 1.361 . S
C10 C12 1.500 . S
C11 C6 1.390 . S
C11 C10 1.361 . S
C11 H29 0.931 . S
C12 C10 1.500 . S
C12 C13 1.371 . S
C12 C14 1.365 . S
C13 C12 1.371 . S
C13 C23 1.386 . S
C13 H31 0.931 . S
C14 C12 1.365 . S
C14 C15 1.409 . S
C14 H32 0.929 . S
C15 C14 1.409 . S
C15 C16 1.380 . S
C15 H33 0.930 . S
C16 C15 1.380 . S
C16 C23 1.357 . S
C17 C8 1.511 . S
C17 C18 1.341 . S
C17 C19 1.371 . S
C18 C17 1.341 . S
C18 C22 1.394 . S
C18 H34 0.930 . S
C19 C17 1.371 . S
C19 C20 1.392 . S
C19 H35 0.931 . S
C20 C19 1.392 . S
C20 C21 1.331 . S
C20 H38 0.932 . S
C21 C20 1.331 . S
C21 C22 1.336 . S
C22 C18 1.394 . S
C22 C21 1.336 . S
C22 H37 0.929 . S
C23 C13 1.386 . S
C23 C16 1.357 . S
C23 H36 0.928 . S
H24 C0 0.945 . S
H25 C2 0.930 . S
H26 C4 0.929 . S
H27 C5 0.931 . S
H28 C7 0.930 . S
H29 C11 0.931 . S
H30 C9 0.931 . S
H31 C13 0.931 . S
H32 C14 0.929 . S
H33 C15 0.930 . S
H34 C18 0.930 . S
H35 C19 0.931 . S
H36 C23 0.928 . S
H37 C22 0.929 . S
H38 C20 0.932 . S
C39 C40 1.386 . S
C39 C41 1.397 . S
C39 H63 0.931 1_554 S
C40 C39 1.386 . S
C40 C44 1.397 . S
C41 C39 1.397 . S
C41 C42 1.384 . S
C41 H64 0.930 . S
C42 C41 1.384 . S
C42 C43 1.377 . S
C42 C45 1.481 . S
C43 C42 1.377 . S
C43 C44 1.389 . S
C43 H65 0.929 . S
C44 C40 1.397 . S
C44 C43 1.389 . S
C44 H66 0.931 . S
C45 C42 1.481 . S
C45 C46 1.387 . S
C45 C50 1.390 . S
C46 C45 1.387 . S
C46 C47 1.401 . S
C46 H67 0.930 . S
C47 C46 1.401 . S
C47 C48 1.376 . S
C47 C56 1.511 . S
C48 C47 1.376 . S
C48 C49 1.392 . S
C48 H69 0.931 . S
C49 C48 1.392 . S
C49 C50 1.361 . S
C49 C51 1.500 . S
C50 C45 1.390 . S
C50 C49 1.361 . S
C50 H68 0.931 . S
C51 C49 1.500 . S
C51 C52 1.371 . S
C51 C53 1.365 . S
C52 C51 1.371 . S
C52 C62 1.386 . S
C52 H70 0.931 . S
C53 C51 1.365 . S
C53 C54 1.409 . S
C53 H71 0.929 . S
C54 C53 1.409 . S
C54 C55 1.380 . S
C54 H72 0.930 . S
C55 C54 1.380 . S
C55 C62 1.357 . S
C56 C47 1.511 . S
C56 C57 1.341 . S
C56 C58 1.371 . S
C57 C56 1.341 . S
C57 C61 1.394 . S
C57 H73 0.930 . S
C58 C56 1.371 . S
C58 C59 1.392 . S
C58 H74 0.931 . S
C59 C58 1.392 . S
C59 C60 1.331 . S
C59 H77 0.932 . S
C60 C59 1.331 . S
C60 C61 1.336 . S
C61 C57 1.394 . S
C61 C60 1.336 . S
C61 H76 0.929 . S
C62 C52 1.386 . S
C62 C55 1.357 . S
C62 H75 0.928 . S
H63 C39 0.931 1_556 S
H64 C41 0.930 . S
H65 C43 0.929 . S
H66 C44 0.931 . S
H67 C46 0.930 . S
H68 C50 0.931 . S
H69 C48 0.931 . S
H70 C52 0.931 . S
H71 C53 0.929 . S
H72 C54 0.930 . S
H73 C57 0.930 . S
H74 C58 0.931 . S
H75 C62 0.928 . S
H76 C61 0.929 . S
H77 C59 0.932 . S
C78 C79 1.386 . S
C78 C80 1.397 . S
C78 H102 0.931 1_554 S
C79 C78 1.386 . S
C79 C83 1.397 . S
C80 C78 1.397 . S
C80 C81 1.384 . S
C80 H103 0.930 . S
C81 C80 1.384 . S
C81 C82 1.377 . S
C81 C84 1.481 . S
C82 C81 1.377 . S
C82 C83 1.389 . S
C82 H104 0.929 . S
C83 C79 1.397 . S
C83 C82 1.389 . S
C83 H105 0.931 . S
C84 C81 1.481 . S
C84 C85 1.387 . S
C84 C89 1.390 . S
C85 C84 1.387 . S
C85 C86 1.401 . S
C85 H106 0.930 . S
C86 C85 1.401 . S
C86 C87 1.376 . S
C86 C95 1.511 . S
C87 C86 1.376 . S
C87 C88 1.392 . S
C87 H108 0.931 . S
C88 C87 1.392 . S
C88 C89 1.361 . S
C88 C90 1.500 . S
C89 C84 1.390 . S
C89 C88 1.361 . S
C89 H107 0.931 . S
C90 C88 1.500 . S
C90 C91 1.371 . S
C90 C92 1.365 . S
C91 C90 1.371 . S
C91 C101 1.386 . S
C91 H109 0.931 . S
C92 C90 1.365 . S
C92 C93 1.409 . S
C92 H110 0.929 . S
C93 C92 1.409 . S
C93 C94 1.380 . S
C93 H111 0.930 . S
C94 C93 1.380 . S
C94 C101 1.357 . S
C95 C86 1.511 . S
C95 C96 1.341 . S
C95 C97 1.371 . S
C96 C95 1.341 . S
C96 C100 1.394 . S
C96 H112 0.930 . S
C97 C95 1.371 . S
C97 C98 1.392 . S
C97 H113 0.931 . S
C98 C97 1.392 . S
C98 C99 1.331 . S
C98 H116 0.932 . S
C99 C98 1.331 . S
C99 C100 1.336 . S
C100 C96 1.394 . S
C100 C99 1.336 . S
C100 H115 0.929 . S
C101 C91 1.386 . S
C101 C94 1.357 . S
C101 H114 0.928 . S
H102 C78 0.931 1_556 S
H103 C80 0.930 . S
H104 C82 0.929 . S
H105 C83 0.931 . S
H106 C85 0.930 . S
H107 C89 0.931 . S
H108 C87 0.931 . S
H109 C91 0.931 . S
H110 C92 0.929 . S
H111 C93 0.930 . S
H112 C96 0.930 . S
H113 C97 0.931 . S
H114 C101 0.928 . S
H115 C100 0.929 . S
H116 C98 0.932 . S
C117 C118 1.386 . S
C117 C119 1.397 . S
C117 H141 0.931 . S
C118 C117 1.386 . S
C118 C122 1.397 . S
C119 C117 1.397 . S
C119 C120 1.384 . S
C119 H142 0.930 . S
C120 C119 1.384 . S
C120 C121 1.377 . S
C120 C123 1.481 . S
C121 C120 1.377 . S
C121 C122 1.389 . S
C121 H143 0.929 . S
C122 C118 1.397 . S
C122 C121 1.389 . S
C122 H144 0.931 . S
C123 C120 1.481 . S
C123 C124 1.387 . S
C123 C128 1.390 . S
C124 C123 1.387 . S
C124 C125 1.401 . S
C124 H145 0.930 . S
C125 C124 1.401 . S
C125 C126 1.376 . S
C125 C134 1.511 . S
C126 C125 1.376 . S
C126 C127 1.392 . S
C126 H147 0.931 . S
C127 C126 1.392 . S
C127 C128 1.361 . S
C127 C129 1.500 . S
C128 C123 1.390 . S
C128 C127 1.361 . S
C128 H146 0.931 . S
C129 C127 1.500 . S
C129 C130 1.371 . S
C129 C131 1.365 . S
C130 C129 1.371 . S
C130 C140 1.386 1_554 S
C130 H148 0.931 . S
C131 C129 1.365 . S
C131 C132 1.409 . S
C131 H149 0.929 . S
C132 C131 1.409 . S
C132 C133 1.380 . S
C132 H150 0.930 . S
C133 C132 1.380 . S
C133 C140 1.357 1_554 S
C134 C125 1.511 . S
C134 C135 1.341 . S
C134 C136 1.371 . S
C135 C134 1.341 . S
C135 C139 1.394 . S
C135 H151 0.930 . S
C136 C134 1.371 . S
C136 C137 1.392 . S
C136 H152 0.931 . S
C137 C136 1.392 . S
C137 C138 1.331 . S
C137 H155 0.932 . S
C138 C137 1.331 . S
C138 C139 1.336 . S
C139 C135 1.394 . S
C139 C138 1.336 . S
C139 H154 0.929 . S
C140 C130 1.386 1_556 S
C140 C133 1.357 1_556 S
C140 H153 0.928 . S
H141 C117 0.931 . S
H142 C119 0.930 . S
H143 C121 0.929 . S
H144 C122 0.931 . S
H145 C124 0.930 . S
H146 C128 0.931 . S
H147 C126 0.931 . S
H148 C130 0.931 . S
H149 C131 0.929 . S
H150 C132 0.930 . S
H151 C135 0.930 . S
H152 C136 0.931 . S
H153 C140 0.928 . S
H154 C139 0.929 . S
H155 C137 0.932 . S
C156 C157 1.386 . S
C156 C158 1.397 . S
C156 H180 0.931 . S
C157 C156 1.386 . S
C157 C161 1.397 . S
C158 C156 1.397 . S
C158 C159 1.384 . S
C158 H181 0.930 . S
C159 C158 1.384 . S
C159 C160 1.377 . S
C159 C162 1.481 . S
C160 C159 1.377 . S
C160 C161 1.389 . S
C160 H182 0.929 . S
C161 C157 1.397 . S
C161 C160 1.389 . S
C161 H183 0.931 . S
C162 C159 1.481 . S
C162 C163 1.387 . S
C162 C167 1.390 . S
C163 C162 1.387 . S
C163 C164 1.401 . S
C163 H184 0.930 . S
C164 C163 1.401 . S
C164 C165 1.376 1_554 S
C164 C173 1.511 . S
C165 C164 1.376 1_556 S
C165 C166 1.392 . S
C165 H186 0.931 . S
C166 C165 1.392 . S
C166 C167 1.361 1_556 S
C166 C168 1.500 . S
C167 C162 1.390 . S
C167 C166 1.361 1_554 S
C167 H185 0.931 1_554 S
C168 C166 1.500 . S
C168 C169 1.371 . S
C168 C170 1.365 . S
C169 C168 1.371 . S
C169 C179 1.386 . S
C169 H187 0.931 . S
C170 C168 1.365 . S
C170 C171 1.409 . S
C170 H188 0.929 . S
C171 C170 1.409 . S
C171 C172 1.380 . S
C171 H189 0.930 . S
C172 C171 1.380 . S
C172 C179 1.357 . S
C173 C164 1.511 . S
C173 C174 1.341 . S
C173 C175 1.371 . S
C174 C173 1.341 . S
C174 C178 1.394 . S
C174 H190 0.930 . S
C175 C173 1.371 . S
C175 C176 1.392 . S
C175 H191 0.931 1_554 S
C176 C175 1.392 . S
C176 C177 1.331 . S
C176 H194 0.932 1_554 S
C177 C176 1.331 . S
C177 C178 1.336 . S
C178 C174 1.394 . S
C178 C177 1.336 . S
C178 H193 0.929 . S
C179 C169 1.386 . S
C179 C172 1.357 . S
C179 H192 0.928 . S
H180 C156 0.931 . S
H181 C158 0.930 . S
H182 C160 0.929 . S
H183 C161 0.931 . S
H184 C163 0.930 . S
H185 C167 0.931 1_556 S
H186 C165 0.931 . S
H187 C169 0.931 . S
H188 C170 0.929 . S
H189 C171 0.930 . S
H190 C174 0.930 . S
H191 C175 0.931 1_556 S
H192 C179 0.928 . S
H193 C178 0.929 . S
H194 C176 0.932 1_556 S
C195 C196 1.386 . S
C195 C197 1.397 . S
C195 H219 0.931 . S
C196 C195 1.386 . S
C196 C200 1.397 . S
C197 C195 1.397 . S
C197 C198 1.384 . S
C197 H220 0.930 . S
C198 C197 1.384 . S
C198 C199 1.377 . S
C198 C201 1.481 . S
C199 C198 1.377 . S
C199 C200 1.389 . S
C199 H221 0.929 . S
C200 C196 1.397 . S
C200 C199 1.389 . S
C200 H222 0.931 . S
C201 C198 1.481 . S
C201 C202 1.387 . S
C201 C206 1.390 . S
C202 C201 1.387 . S
C202 C203 1.401 . S
C202 H223 0.930 . S
C203 C202 1.401 . S
C203 C204 1.376 1_554 S
C203 C212 1.511 . S
C204 C203 1.376 1_556 S
C204 C205 1.392 . S
C204 H225 0.931 . S
C205 C204 1.392 . S
C205 C206 1.361 1_556 S
C205 C207 1.500 . S
C206 C201 1.390 . S
C206 C205 1.361 1_554 S
C206 H224 0.931 1_554 S
C207 C205 1.500 . S
C207 C208 1.371 . S
C207 C209 1.365 . S
C208 C207 1.371 . S
C208 C218 1.386 . S
C208 H226 0.931 . S
C209 C207 1.365 . S
C209 C210 1.409 . S
C209 H227 0.929 . S
C210 C209 1.409 . S
C210 C211 1.380 . S
C210 H228 0.930 . S
C211 C210 1.380 . S
C211 C218 1.357 . S
C212 C203 1.511 . S
C212 C213 1.341 . S
C212 C214 1.371 . S
C213 C212 1.341 . S
C213 C217 1.394 . S
C213 H229 0.930 . S
C214 C212 1.371 . S
C214 C215 1.392 . S
C214 H230 0.931 1_554 S
C215 C214 1.392 . S
C215 C216 1.331 . S
C215 H233 0.932 1_554 S
C216 C215 1.331 . S
C216 C217 1.336 . S
C217 C213 1.394 . S
C217 C216 1.336 . S
C217 H232 0.929 . S
C218 C208 1.386 . S
C218 C211 1.357 . S
C218 H231 0.928 . S
H219 C195 0.931 . S
H220 C197 0.930 . S
H221 C199 0.929 . S
H222 C200 0.931 . S
H223 C202 0.930 . S
H224 C206 0.931 1_556 S
H225 C204 0.931 . S
H226 C208 0.931 . S
H227 C209 0.929 . S
H228 C210 0.930 . S
H229 C213 0.930 . S
H230 C214 0.931 1_556 S
H231 C218 0.928 . S
H232 C217 0.929 . S
H233 C215 0.932 1_556 S
C234 C235 1.386 . S
C234 C236 1.397 . S
C234 H258 0.931 . S
C235 C234 1.386 . S
C235 C239 1.397 . S
C236 C234 1.397 . S
C236 C237 1.384 . S
C236 H259 0.930 . S
C237 C236 1.384 . S
C237 C238 1.377 . S
C237 C240 1.481 . S
C238 C237 1.377 . S
C238 C239 1.389 . S
C238 H260 0.929 . S
C239 C235 1.397 . S
C239 C238 1.389 . S
C239 H261 0.931 . S
C240 C237 1.481 . S
C240 C241 1.387 . S
C240 C245 1.398 . S
C241 C240 1.387 . S
C241 C242 1.401 . S
C241 H262 0.930 . S
C242 C241 1.401 . S
C242 C243 1.376 1_554 S
C242 C251 1.511 . S
C243 C242 1.376 1_556 S
C243 C244 1.392 . S
C243 H264 0.931 . S
C244 C243 1.392 . S
C244 C245 1.355 1_556 S
C244 C246 1.500 . S
C245 C240 1.398 . S
C245 C244 1.355 1_554 S
C245 H263 0.929 1_554 S
C246 C244 1.500 . S
C246 C247 1.371 . S
C246 C248 1.365 . S
C247 C246 1.371 . S
C247 C257 1.386 . S
C247 H265 0.931 . S
C248 C246 1.365 . S
C248 C249 1.409 . S
C248 H266 0.929 . S
C249 C248 1.409 . S
C249 C250 1.380 . S
C249 H267 0.930 . S
C250 C249 1.380 . S
C250 C257 1.357 . S
C251 C242 1.511 . S
C251 C252 1.341 . S
C251 C253 1.371 . S
C252 C251 1.341 . S
C252 C256 1.394 . S
C252 H268 0.930 . S
C253 C251 1.371 . S
C253 C254 1.392 . S
C253 H269 0.931 1_554 S
C254 C253 1.392 . S
C254 C255 1.331 . S
C254 H272 0.932 1_554 S
C255 C254 1.331 . S
C255 C256 1.336 . S
C256 C252 1.394 . S
C256 C255 1.336 . S
C256 H271 0.929 . S
C257 C247 1.386 . S
C257 C250 1.357 . S
C257 H270 0.928 . S
H258 C234 0.931 . S
H259 C236 0.930 . S
H260 C238 0.929 . S
H261 C239 0.931 . S
H262 C241 0.930 . S
H263 C245 0.929 1_556 S
H264 C243 0.931 . S
H265 C247 0.931 . S
H266 C248 0.929 . S
H267 C249 0.930 . S
H268 C252 0.930 . S
H269 C253 0.931 1_556 S
H270 C257 0.928 . S
H271 C256 0.929 . S
H272 C254 0.932 1_556 S
C273 C274 1.386 . S
C273 C275 1.397 . S
C273 H297 0.931 . S
C274 C273 1.386 . S
C274 C278 1.397 . S
C275 C273 1.397 . S
C275 C276 1.384 . S
C275 H298 0.930 . S
C276 C275 1.384 . S
C276 C277 1.377 . S
C276 C279 1.481 . S
C277 C276 1.377 . S
C277 C278 1.389 . S
C277 H299 0.929 . S
C278 C274 1.397 . S
C278 C277 1.389 . S
C278 H300 0.931 . S
C279 C276 1.481 . S
C279 C280 1.387 . S
C279 C284 1.390 1_556 S
C280 C279 1.387 . S
C280 C281 1.401 1_556 S
C280 H301 0.930 . S
C281 C280 1.401 1_554 S
C281 C282 1.376 . S
C281 C290 1.511 . S
C282 C281 1.376 . S
C282 C283 1.392 . S
C282 H303 0.931 . S
C283 C282 1.392 . S
C283 C284 1.361 . S
C283 C285 1.500 . S
C284 C279 1.390 1_554 S
C284 C283 1.361 . S
C284 H302 0.931 1_554 S
C285 C283 1.500 . S
C285 C286 1.371 . S
C285 C287 1.365 . S
C286 C285 1.371 . S
C286 C296 1.386 . S
C286 H304 0.931 . S
C287 C285 1.365 . S
C287 C288 1.409 . S
C287 H305 0.929 . S
C288 C287 1.409 . S
C288 C289 1.380 . S
C288 H306 0.930 . S
C289 C288 1.380 . S
C289 C296 1.357 . S
C290 C281 1.511 . S
C290 C291 1.341 . S
C290 C292 1.371 . S
C291 C290 1.341 . S
C291 C295 1.394 . S
C291 H307 0.930 1_554 S
C292 C290 1.371 . S
C292 C293 1.392 . S
C292 H308 0.931 . S
C293 C292 1.392 . S
C293 C294 1.331 . S
C293 H311 0.932 . S
C294 C293 1.331 . S
C294 C295 1.336 . S
C295 C291 1.394 . S
C295 C294 1.336 . S
C295 H310 0.929 1_554 S
C296 C286 1.386 . S
C296 C289 1.357 . S
C296 H309 0.928 . S
H297 C273 0.931 . S
H298 C275 0.930 . S
H299 C277 0.929 . S
H300 C278 0.931 . S
H301 C280 0.930 . S
H302 C284 0.931 1_556 S
H303 C282 0.931 . S
H304 C286 0.931 . S
H305 C287 0.929 . S
H306 C288 0.930 . S
H307 C291 0.930 1_556 S
H308 C292 0.931 . S
H309 C296 0.928 . S
H310 C295 0.929 1_556 S
H311 C293 0.932 . S
Gd312 N343 2.665 . S
Gd312 N349 2.601 . S
Gd312 O356 2.545 . S
Gd312 O357 2.606 1_655 S
Gd312 O359 2.429 . S
Gd312 O360 2.545 1_655 S
Gd312 O361 2.412 . S
Gd312 O363 2.362 1_545 S
Gd312 O364 2.324 1_655 S
Gd312 C371 2.828 . S
Gd313 N322 2.661 1_565 S
Gd313 N326 2.601 . S
Gd313 O357 2.362 1_565 S
Gd313 O358 2.324 1_455 S
Gd313 O362 2.545 . S
Gd313 O363 2.606 1_455 S
Gd313 O365 2.429 . S
Gd313 O366 2.545 . S
Gd313 O367 2.412 . S
Gd313 C380 2.828 . S
C314 C317 1.417 . S
C314 C319 1.431 . S
C314 C320 1.412 . S
C315 C318 1.437 . S
C315 C319 1.317 . S
C315 H334 0.929 . S
C316 C317 1.426 . S
C316 C318 1.413 . S
C316 N326 1.359 1_545 S
C317 C314 1.417 . S
C317 C316 1.426 . S
C317 N322 1.350 . S
C318 C315 1.437 . S
C318 C316 1.413 . S
C318 C328 1.380 1_545 S
C319 C314 1.431 . S
C319 C315 1.317 . S
C319 H330 0.930 . S
C320 C314 1.412 . S
C320 C321 1.355 . S
C320 H332 0.930 . S
C321 C320 1.355 . S
C321 C323 1.402 . S
C321 H333 0.930 1_455 S
N322 Gd313 2.661 1_545 S
N322 C317 1.350 . S
N322 C323 1.307 . S
C323 C321 1.402 . S
C323 N322 1.307 . S
C323 H324 0.930 1_455 S
H324 C323 0.930 1_655 S
C325 N326 1.334 . S
C325 C327 1.394 . S
C325 H329 0.930 . S
N326 Gd313 2.601 . S
N326 C316 1.359 1_565 S
N326 C325 1.334 . S
C327 C325 1.394 . S
C327 C328 1.373 . S
C327 H339 0.930 . S
C328 C318 1.380 1_565 S
C328 C327 1.373 . S
C328 H340 0.926 1_565 S
H329 C325 0.930 . S
H330 C319 0.930 . S
H331 C348 0.930 . S
H332 C320 0.930 . S
H333 C321 0.930 1_655 S
H334 C315 0.929 . S
H335 C353 0.930 . S
H336 C344 0.930 . S
H337 C345 0.970 . S
H338 C369 0.929 . S
H339 C327 0.930 . S
H340 C328 0.926 1_545 S
H341 C370 0.930 . S
H342 C351 0.930 . S
N343 Gd312 2.665 . S
N343 C347 1.349 1_545 S
N343 C348 1.304 1_645 S
C344 H336 0.930 . S
C344 C345 1.313 1_655 S
C344 C346 1.412 . S
C345 H337 0.970 . S
C345 C344 1.313 1_455 S
C345 C348 1.405 . S
C346 C344 1.412 . S
C346 C347 1.417 . S
C346 C370 1.431 . S
C347 N343 1.349 1_565 S
C347 C346 1.417 . S
C347 C350 1.426 1_565 S
C348 H331 0.930 . S
C348 N343 1.304 1_465 S
C348 C345 1.405 . S
N349 Gd312 2.601 . S
N349 C350 1.359 . S
N349 C353 1.334 . S
C350 C347 1.426 1_545 S
C350 N349 1.359 . S
C350 C354 1.413 . S
C351 H342 0.930 . S
C351 C352 1.359 . S
C351 C353 1.394 . S
C352 C351 1.359 . S
C352 C354 1.391 . S
C352 H355 0.929 . S
C353 H335 0.930 . S
C353 N349 1.334 . S
C353 C351 1.394 . S
C354 C350 1.413 . S
C354 C352 1.391 . S
C354 C369 1.437 1_545 S
H355 C352 0.929 . S
O356 Gd312 2.545 . S
O356 C371 1.258 . S
O357 Gd312 2.606 1_455 S
O357 Gd313 2.362 1_545 S
O357 C368 1.284 . S
O358 Gd313 2.324 1_655 S
O358 C378 1.254 1_565 S
O359 Gd312 2.429 . S
O359 C378 1.268 . S
O360 Gd312 2.545 1_455 S
O360 C368 1.250 . S
O361 Gd312 2.412 . S
O361 C371 1.252 . S
O362 Gd313 2.545 . S
O362 C380 1.258 . S
O363 Gd312 2.362 1_565 S
O363 Gd313 2.606 1_655 S
O363 C379 1.284 . S
O364 Gd312 2.324 1_455 S
O364 C387 1.254 . S
O365 Gd313 2.429 . S
O365 C387 1.268 1_565 S
O366 Gd313 2.545 . S
O366 C379 1.250 1_455 S
O367 Gd313 2.412 . S
O367 C380 1.252 . S
C368 O357 1.284 . S
C368 O360 1.250 . S
C369 H338 0.929 . S
C369 C354 1.437 1_565 S
C369 C370 1.317 . S
C370 H341 0.930 . S
C370 C346 1.431 . S
C370 C369 1.317 . S
C371 Gd312 2.828 . S
C371 O356 1.258 . S
C371 O361 1.252 . S
C371 C372 1.497 . S
C372 C371 1.497 . S
C372 C373 1.395 . S
C372 C374 1.380 . S
C373 C372 1.395 . S
C373 C376 1.398 . S
C373 H388 0.930 . S
C374 C372 1.380 . S
C374 C375 1.391 . S
C374 H389 0.930 1_655 S
C375 C374 1.391 . S
C375 C377 1.387 . S
C376 C373 1.398 . S
C376 C377 1.380 . S
C376 H390 0.930 . S
C377 C375 1.387 . S
C377 C376 1.380 . S
C377 H391 0.930 . S
C378 O358 1.254 1_545 S
C378 O359 1.268 . S
C379 O363 1.284 . S
C379 O366 1.250 1_655 S
C380 Gd313 2.828 . S
C380 O362 1.258 . S
C380 O367 1.252 . S
C380 C381 1.497 . S
C381 C380 1.497 . S
C381 C382 1.395 . S
C381 C383 1.380 . S
C382 C381 1.395 . S
C382 C385 1.398 . S
C382 H392 0.930 . S
C383 C381 1.380 . S
C383 C384 1.391 . S
C383 H393 0.900 1_455 S
C384 C383 1.391 . S
C384 C386 1.387 . S
C385 C382 1.398 . S
C385 C386 1.380 . S
C385 H394 0.930 . S
C386 C384 1.387 . S
C386 C385 1.380 . S
C386 H395 0.930 . S
C387 O364 1.254 . S
C387 O365 1.268 1_545 S
H388 C373 0.930 . S
H389 C374 0.930 1_455 S
H390 C376 0.930 . S
H391 C377 0.930 . S
H392 C382 0.930 . S
H393 C383 0.900 1_655 S
H394 C385 0.930 . S
H395 C386 0.930 . S
Gd396 N427 2.661 . S
Gd396 N433 2.601 . S
Gd396 O440 2.545 . S
Gd396 O441 2.606 1_565 S
Gd396 O443 2.429 . S
Gd396 O444 2.545 1_565 S
Gd396 O445 2.412 . S
Gd396 O447 2.362 . S
Gd396 O448 2.324 1_565 S
Gd396 C455 2.828 . S
Gd397 N406 2.661 . S
Gd397 N410 2.601 . S
Gd397 O441 2.362 . S
Gd397 O442 2.324 1_545 S
Gd397 O446 2.545 . S
Gd397 O447 2.606 1_545 S
Gd397 O449 2.429 . S
Gd397 O450 2.545 . S
Gd397 O451 2.412 . S
Gd397 C464 2.828 . S
C398 C401 1.417 . S
C398 C403 1.431 . S
C398 C404 1.412 . S
C399 C402 1.437 . S
C399 C403 1.317 . S
C399 H418 0.929 . S
C400 C401 1.426 . S
C400 C402 1.413 . S
C400 N410 1.359 . S
C401 C398 1.417 . S
C401 C400 1.426 . S
C401 N406 1.350 . S
C402 C399 1.437 . S
C402 C400 1.413 . S
C402 C412 1.391 . S
C403 C398 1.431 . S
C403 C399 1.317 . S
C403 H414 0.930 . S
C404 C398 1.412 . S
C404 C405 1.355 . S
C404 H416 0.930 . S
C405 C404 1.355 . S
C405 C407 1.402 . S
C405 H417 0.930 1_545 S
N406 Gd397 2.661 . S
N406 C401 1.350 . S
N406 C407 1.307 . S
C407 C405 1.402 . S
C407 N406 1.307 . S
C407 H408 0.930 1_545 S
H408 C407 0.930 1_565 S
C409 N410 1.334 . S
C409 C411 1.394 . S
C409 H413 0.930 . S
N410 Gd397 2.601 . S
N410 C400 1.359 . S
N410 C409 1.334 . S
C411 C409 1.394 . S
C411 C412 1.359 . S
C411 H423 0.930 . S
C412 C402 1.391 . S
C412 C411 1.359 . S
C412 H424 0.929 . S
H413 C409 0.930 . S
H414 C403 0.930 . S
H415 C432 0.930 . S
H416 C404 0.930 . S
H417 C405 0.930 1_565 S
H418 C399 0.929 . S
H419 C437 0.930 . S
H420 C428 0.930 . S
H421 C429 0.930 . S
H422 C453 0.929 . S
H423 C411 0.930 . S
H424 C412 0.929 . S
H425 C454 0.930 . S
H426 C435 0.930 . S
N427 Gd396 2.661 . S
N427 C431 1.350 . S
N427 C432 1.307 1_565 S
C428 H420 0.930 . S
C428 C429 1.355 1_565 S
C428 C430 1.412 . S
C429 H421 0.930 . S
C429 C428 1.355 1_545 S
C429 C432 1.402 . S
C430 C428 1.412 . S
C430 C431 1.417 . S
C430 C454 1.431 . S
C431 N427 1.350 . S
C431 C430 1.417 . S
C431 C434 1.426 . S
C432 H415 0.930 . S
C432 N427 1.307 1_545 S
C432 C429 1.402 . S
N433 Gd396 2.601 . S
N433 C434 1.359 . S
N433 C437 1.334 . S
C434 C431 1.426 . S
C434 N433 1.359 . S
C434 C438 1.413 . S
C435 H426 0.930 . S
C435 C436 1.359 . S
C435 C437 1.394 . S
C436 C435 1.359 . S
C436 C438 1.391 . S
C436 H439 0.929 . S
C437 H419 0.930 . S
C437 N433 1.334 . S
C437 C435 1.394 . S
C438 C434 1.413 . S
C438 C436 1.391 . S
C438 C453 1.437 . S
H439 C436 0.929 . S
O440 Gd396 2.545 . S
O440 C455 1.258 . S
O441 Gd396 2.606 1_545 S
O441 Gd397 2.362 . S
O441 C452 1.284 . S
O442 Gd397 2.324 1_565 S
O442 C462 1.254 . S
O443 Gd396 2.429 . S
O443 C462 1.268 . S
O444 Gd396 2.545 1_545 S
O444 C452 1.250 . S
O445 Gd396 2.412 . S
O445 C455 1.252 . S
O446 Gd397 2.545 . S
O446 C464 1.258 . S
O447 Gd396 2.362 . S
O447 Gd397 2.606 1_565 S
O447 C463 1.284 . S
O448 Gd396 2.324 1_545 S
O448 C471 1.254 . S
O449 Gd397 2.429 . S
O449 C471 1.268 . S
O450 Gd397 2.545 . S
O450 C463 1.250 1_545 S
O451 Gd397 2.412 . S
O451 C464 1.252 . S
C452 O441 1.284 . S
C452 O444 1.250 . S
C453 H422 0.929 . S
C453 C438 1.437 . S
C453 C454 1.317 . S
C454 H425 0.930 . S
C454 C430 1.431 . S
C454 C453 1.317 . S
C455 Gd396 2.828 . S
C455 O440 1.258 . S
C455 O445 1.252 . S
C455 C456 1.497 . S
C456 C455 1.497 . S
C456 C457 1.395 . S
C456 C458 1.380 . S
C457 C456 1.395 . S
C457 C460 1.398 . S
C457 H472 0.930 . S
C458 C456 1.380 . S
C458 C459 1.391 . S
C458 H473 0.930 1_565 S
C459 C458 1.391 . S
C459 C461 1.387 . S
C460 C457 1.398 . S
C460 C461 1.380 . S
C460 H474 0.930 . S
C461 C459 1.387 . S
C461 C460 1.380 . S
C461 H475 0.930 . S
C462 O442 1.254 . S
C462 O443 1.268 . S
C463 O447 1.284 . S
C463 O450 1.250 1_565 S
C464 Gd397 2.828 . S
C464 O446 1.258 . S
C464 O451 1.252 . S
C464 C465 1.497 . S
C465 C464 1.497 . S
C465 C466 1.395 . S
C465 C467 1.380 . S
C466 C465 1.395 . S
C466 C469 1.398 . S
C466 H476 0.930 . S
C467 C465 1.380 . S
C467 C468 1.391 . S
C467 H477 0.930 . S
C468 C467 1.391 . S
C468 C470 1.387 . S
C469 C466 1.398 . S
C469 C470 1.380 . S
C469 H478 0.930 . S
C470 C468 1.387 . S
C470 C469 1.380 . S
C470 H479 0.930 . S
C471 O448 1.254 . S
C471 O449 1.268 . S
H472 C457 0.930 . S
H473 C458 0.930 1_545 S
H474 C460 0.930 . S
H475 C461 0.930 . S
H476 C466 0.930 . S
H477 C467 0.930 . S
H478 C469 0.930 . S
H479 C470 0.930 . S
Gd480 N511 2.661 . S
Gd480 N517 2.601 . S
Gd480 O524 2.545 . S
Gd480 O525 2.606 . S
Gd480 O527 2.429 . S
Gd480 O528 2.545 . S
Gd480 O529 2.412 . S
Gd480 O531 2.362 . S
Gd480 O532 2.324 . S
Gd480 C539 2.828 . S
Gd481 N490 2.661 . S
Gd481 N494 2.601 . S
Gd481 O525 2.362 . S
Gd481 O526 2.324 . S
Gd481 O530 2.545 . S
Gd481 O531 2.606 . S
Gd481 O533 2.429 . S
Gd481 O534 2.545 . S
Gd481 O535 2.412 . S
Gd481 C548 2.828 . S
C482 C485 1.417 . S
C482 C487 1.431 . S
C482 C488 1.412 . S
C483 C486 1.437 . S
C483 C487 1.317 . S
C483 H502 0.929 . S
C484 C485 1.426 . S
C484 C486 1.413 . S
C484 N494 1.359 . S
C485 C482 1.417 . S
C485 C484 1.426 . S
C485 N490 1.350 . S
C486 C483 1.437 . S
C486 C484 1.413 . S
C486 C496 1.391 . S
C487 C482 1.431 . S
C487 C483 1.317 . S
C487 H498 0.930 . S
C488 C482 1.412 . S
C488 C489 1.355 . S
C488 H500 0.930 . S
C489 C488 1.355 . S
C489 C491 1.402 . S
C489 H501 0.930 . S
N490 Gd481 2.661 . S
N490 C485 1.350 . S
N490 C491 1.307 . S
C491 C489 1.402 . S
C491 N490 1.307 . S
C491 H492 0.930 . S
H492 C491 0.930 . S
C493 N494 1.334 . S
C493 C495 1.394 . S
C493 H497 0.930 . S
N494 Gd481 2.601 . S
N494 C484 1.359 . S
N494 C493 1.334 . S
C495 C493 1.394 . S
C495 C496 1.359 . S
C495 H507 0.930 . S
C496 C486 1.391 . S
C496 C495 1.359 . S
C496 H508 0.929 . S
H497 C493 0.930 . S
H498 C487 0.930 . S
H499 C516 0.930 . S
H500 C488 0.930 . S
H501 C489 0.930 . S
H502 C483 0.929 . S
H503 C521 0.930 . S
H504 C512 0.930 . S
H505 C513 0.930 . S
H506 C537 0.929 . S
H507 C495 0.930 . S
H508 C496 0.929 . S
H509 C538 0.930 . S
H510 C519 0.930 . S
N511 Gd480 2.661 . S
N511 C515 1.350 . S
N511 C516 1.307 . S
C512 H504 0.930 . S
C512 C513 1.355 . S
C512 C514 1.412 . S
C513 H505 0.930 . S
C513 C512 1.355 . S
C513 C516 1.402 . S
C514 C512 1.412 . S
C514 C515 1.417 . S
C514 C538 1.431 . S
C515 N511 1.350 . S
C515 C514 1.417 . S
C515 C518 1.426 . S
C516 H499 0.930 . S
C516 N511 1.307 . S
C516 C513 1.402 . S
N517 Gd480 2.601 . S
N517 C518 1.359 . S
N517 C521 1.334 . S
C518 C515 1.426 . S
C518 N517 1.359 . S
C518 C522 1.413 . S
C519 H510 0.930 . S
C519 C520 1.359 . S
C519 C521 1.394 . S
C520 C519 1.359 . S
C520 C522 1.391 . S
C520 H523 0.929 . S
C521 H503 0.930 . S
C521 N517 1.334 . S
C521 C519 1.394 . S
C522 C518 1.413 . S
C522 C520 1.391 . S
C522 C537 1.437 . S
H523 C520 0.929 . S
O524 Gd480 2.545 . S
O524 C539 1.258 . S
O525 Gd480 2.606 . S
O525 Gd481 2.362 . S
O525 C536 1.284 . S
O526 Gd481 2.324 . S
O526 C546 1.254 . S
O527 Gd480 2.429 . S
O527 C546 1.268 . S
O528 Gd480 2.545 . S
O528 C536 1.250 . S
O529 Gd480 2.412 . S
O529 C539 1.252 . S
O530 Gd481 2.545 . S
O530 C548 1.258 . S
O531 Gd480 2.362 . S
O531 Gd481 2.606 . S
O531 C547 1.284 . S
O532 Gd480 2.324 . S
O532 C555 1.254 . S
O533 Gd481 2.429 . S
O533 C555 1.268 . S
O534 Gd481 2.545 . S
O534 C547 1.250 . S
O535 Gd481 2.412 . S
O535 C548 1.252 . S
C536 O525 1.284 . S
C536 O528 1.250 . S
C537 H506 0.929 . S
C537 C522 1.437 . S
C537 C538 1.317 . S
C538 H509 0.930 . S
C538 C514 1.431 . S
C538 C537 1.317 . S
C539 Gd480 2.828 . S
C539 O524 1.258 . S
C539 O529 1.252 . S
C539 C540 1.497 . S
C540 C539 1.497 . S
C540 C541 1.395 . S
C540 C542 1.380 . S
C541 C540 1.395 . S
C541 C544 1.398 . S
C541 H556 0.930 . S
C542 C540 1.380 . S
C542 C543 1.391 . S
C542 H557 0.930 . S
C543 C542 1.391 . S
C543 C545 1.387 . S
C544 C541 1.398 . S
C544 C545 1.380 . S
C544 H558 0.930 . S
C545 C543 1.387 . S
C545 C544 1.380 . S
C545 H559 0.930 . S
C546 O526 1.254 . S
C546 O527 1.268 . S
C547 O531 1.284 . S
C547 O534 1.250 . S
C548 Gd481 2.828 . S
C548 O530 1.258 . S
C548 O535 1.252 . S
C548 C549 1.497 . S
C549 C548 1.497 . S
C549 C550 1.395 . S
C549 C551 1.380 . S
C550 C549 1.395 . S
C550 C553 1.398 . S
C550 H560 0.930 . S
C551 C549 1.380 . S
C551 C552 1.391 . S
C551 H561 0.930 . S
C552 C551 1.391 . S
C552 C554 1.387 . S
C553 C550 1.398 . S
C553 C554 1.380 . S
C553 H562 0.930 . S
C554 C552 1.387 . S
C554 C553 1.380 . S
C554 H563 0.930 . S
C555 O532 1.254 . S
C555 O533 1.268 . S
H556 C541 0.930 . S
H557 C542 0.930 . S
H558 C544 0.930 . S
H559 C545 0.930 . S
H560 C550 0.930 . S
H561 C551 0.930 . S
H562 C553 0.930 . S
H563 C554 0.930 . S
Gd564 N595 2.661 . S
Gd564 N601 2.601 . S
Gd564 O608 2.545 . S
Gd564 O609 2.598 1_655 S
Gd564 O611 2.429 1_655 S
Gd564 O612 2.545 . S
Gd564 O613 2.412 . S
Gd564 O615 2.362 1_655 S
Gd564 O616 2.324 . S
Gd564 C623 2.828 . S
Gd565 N574 2.661 . S
Gd565 N578 2.601 . S
Gd565 O609 2.375 . S
Gd565 O610 2.324 . S
Gd565 O614 2.545 . S
Gd565 O615 2.606 . S
Gd565 O617 2.429 1_455 S
Gd565 O618 2.545 . S
Gd565 O619 2.412 . S
Gd565 C632 2.828 . S
C566 C569 1.417 . S
C566 C571 1.431 . S
C566 C572 1.412 . S
C567 C570 1.437 . S
C567 C571 1.317 . S
C567 H586 0.929 . S
C568 C569 1.426 . S
C568 C570 1.413 . S
C568 N578 1.359 . S
C569 C566 1.417 . S
C569 C568 1.426 . S
C569 N574 1.350 . S
C570 C567 1.437 . S
C570 C568 1.413 . S
C570 C580 1.391 . S
C571 C566 1.431 . S
C571 C567 1.317 . S
C571 H582 0.930 . S
C572 C566 1.412 . S
C572 C573 1.355 . S
C572 H584 0.930 . S
C573 C572 1.355 . S
C573 C575 1.402 . S
C573 H585 0.930 . S
N574 Gd565 2.661 . S
N574 C569 1.350 . S
N574 C575 1.307 . S
C575 C573 1.402 . S
C575 N574 1.307 . S
C575 H576 0.930 . S
H576 C575 0.930 . S
C577 N578 1.334 . S
C577 C579 1.394 . S
C577 H581 0.930 1_455 S
N578 Gd565 2.601 . S
N578 C568 1.359 . S
N578 C577 1.334 . S
C579 C577 1.394 . S
C579 C580 1.359 . S
C579 H591 0.930 1_455 S
C580 C570 1.391 . S
C580 C579 1.359 . S
C580 H592 0.929 . S
H581 C577 0.930 1_655 S
H582 C571 0.930 . S
H583 C600 0.930 . S
H584 C572 0.930 . S
H585 C573 0.930 . S
H586 C567 0.929 . S
H587 C605 0.930 . S
H588 C596 0.930 . S
H589 C597 0.930 . S
H590 C621 0.929 . S
H591 C579 0.930 1_655 S
H592 C580 0.929 . S
H593 C622 0.930 . S
H594 C603 0.930 . S
N595 Gd564 2.661 . S
N595 C599 1.350 . S
N595 C600 1.307 . S
C596 H588 0.930 . S
C596 C597 1.355 . S
C596 C598 1.412 . S
C597 H589 0.930 . S
C597 C596 1.355 . S
C597 C600 1.402 . S
C598 C596 1.412 . S
C598 C599 1.417 . S
C598 C622 1.431 . S
C599 N595 1.350 . S
C599 C598 1.417 . S
C599 C602 1.426 . S
C600 H583 0.930 . S
C600 N595 1.307 . S
C600 C597 1.402 . S
N601 Gd564 2.601 . S
N601 C602 1.359 . S
N601 C605 1.334 1_655 S
C602 C599 1.426 . S
C602 N601 1.359 . S
C602 C606 1.413 . S
C603 H594 0.930 . S
C603 C604 1.359 1_455 S
C603 C605 1.394 . S
C604 C603 1.359 1_655 S
C604 C606 1.391 . S
C604 H607 0.929 . S
C605 H587 0.930 . S
C605 N601 1.334 1_455 S
C605 C603 1.394 . S
C606 C602 1.413 . S
C606 C604 1.391 . S
C606 C621 1.437 . S
H607 C604 0.929 . S
O608 Gd564 2.545 . S
O608 C623 1.258 . S
O609 Gd564 2.598 1_455 S
O609 Gd565 2.375 . S
O609 C620 1.275 1_455 S
O610 Gd565 2.324 . S
O610 C630 1.254 . S
O611 Gd564 2.429 1_455 S
O611 C630 1.268 . S
O612 Gd564 2.545 . S
O612 C620 1.250 . S
O613 Gd564 2.412 . S
O613 C623 1.252 . S
O614 Gd565 2.545 . S
O614 C632 1.258 . S
O615 Gd564 2.362 1_455 S
O615 Gd565 2.606 . S
O615 C631 1.284 . S
O616 Gd564 2.324 . S
O616 C639 1.254 . S
O617 Gd565 2.429 1_655 S
O617 C639 1.268 . S
O618 Gd565 2.545 . S
O618 C631 1.250 . S
O619 Gd565 2.412 . S
O619 C632 1.252 . S
C620 O609 1.275 1_655 S
C620 O612 1.250 . S
C621 H590 0.929 . S
C621 C606 1.437 . S
C621 C622 1.317 . S
C622 H593 0.930 . S
C622 C598 1.431 . S
C622 C621 1.317 . S
C623 Gd564 2.828 . S
C623 O608 1.258 . S
C623 O613 1.252 . S
C623 C624 1.497 . S
C624 C623 1.497 . S
C624 C625 1.395 . S
C624 C626 1.380 . S
C625 C624 1.395 . S
C625 C628 1.398 . S
C625 H640 0.930 . S
C626 C624 1.380 . S
C626 C627 1.391 . S
C626 H641 0.930 . S
C627 C626 1.391 . S
C627 C629 1.387 . S
C628 C625 1.398 . S
C628 C629 1.380 . S
C628 H642 0.930 . S
C629 C627 1.387 . S
C629 C628 1.380 . S
C629 H643 0.930 . S
C630 O610 1.254 . S
C630 O611 1.268 . S
C631 O615 1.284 . S
C631 O618 1.250 . S
C632 Gd565 2.828 . S
C632 O614 1.258 . S
C632 O619 1.252 . S
C632 C633 1.497 . S
C633 C632 1.497 . S
C633 C634 1.395 . S
C633 C635 1.380 . S
C634 C633 1.395 . S
C634 C637 1.398 . S
C634 H644 0.930 . S
C635 C633 1.380 . S
C635 C636 1.391 . S
C635 H645 0.930 . S
C636 C635 1.391 . S
C636 C638 1.387 . S
C637 C634 1.398 . S
C637 C638 1.380 . S
C637 H646 0.930 . S
C638 C636 1.387 . S
C638 C637 1.380 . S
C638 H647 0.930 . S
C639 O616 1.254 . S
C639 O617 1.268 . S
H640 C625 0.930 . S
H641 C626 0.930 . S
H642 C628 0.930 . S
H643 C629 0.930 . S
H644 C634 0.930 . S
H645 C635 0.930 . S
H646 C637 0.930 . S
H647 C638 0.930 . S
H648 C656 0.950 . S
H649 C661 0.950 . S
H650 C658 0.950 . S
H651 C660 0.950 . S
H652 C662 0.950 . S
H653 C664 0.950 . S
H654 C666 0.950 . S
H655 C667 0.950 1_565 S
C656 H648 0.950 . S
C656 C657 1.386 . S
C656 C658 1.391 . S
C657 C656 1.386 . S
C657 C661 1.393 . S
C658 H650 0.950 . S
C658 C656 1.391 . S
C658 C659 1.400 . S
C659 C658 1.400 . S
C659 C660 1.398 . S
C659 C665 1.491 . S
C660 H651 0.950 . S
C660 C659 1.398 . S
C660 C661 1.391 . S
C661 H649 0.950 . S
C661 C657 1.393 . S
C661 C660 1.391 . S
C662 H652 0.950 . S
C662 C663 1.386 . S
C662 C664 1.391 . S
C663 C662 1.386 . S
C663 C667 1.393 . S
C664 H653 0.950 . S
C664 C662 1.391 . S
C664 C665 1.400 . S
C665 C659 1.491 . S
C665 C664 1.400 . S
C665 C666 1.398 . S
C666 H654 0.950 . S
C666 C665 1.398 . S
C666 C667 1.391 . S
C667 H655 0.950 1_545 S
C667 C663 1.393 . S
C667 C666 1.391 . S
H668 C676 0.950 . S
H669 C681 0.950 . S
H670 C678 0.950 . S
H671 C680 0.950 . S
H672 C682 0.950 . S
H673 C684 0.950 . S
H674 C686 0.950 . S
H675 C687 0.950 . S
C676 H668 0.950 . S
C676 C677 1.386 . S
C676 C678 1.391 . S
C677 C676 1.386 . S
C677 C681 1.393 . S
C678 H670 0.950 . S
C678 C676 1.391 . S
C678 C679 1.400 . S
C679 C678 1.400 . S
C679 C680 1.398 . S
C679 C685 1.491 . S
C680 H671 0.950 . S
C680 C679 1.398 . S
C680 C681 1.391 . S
C681 H669 0.950 . S
C681 C677 1.393 . S
C681 C680 1.391 . S
C682 H672 0.950 . S
C682 C683 1.386 . S
C682 C684 1.391 . S
C683 C682 1.386 . S
C683 C687 1.393 . S
C684 H673 0.950 . S
C684 C682 1.391 . S
C684 C685 1.400 . S
C685 C679 1.491 . S
C685 C684 1.400 . S
C685 C686 1.398 . S
C686 H674 0.950 . S
C686 C685 1.398 . S
C686 C687 1.391 . S
C687 H675 0.950 . S
C687 C683 1.393 . S
C687 C686 1.391 . S
H688 C696 0.950 . S
H689 C701 0.950 . S
H690 C698 0.950 . S
H691 C700 0.950 . S
H692 C702 0.950 . S
H693 C704 0.950 . S
H694 C706 0.950 . S
H695 C707 0.950 . S
C696 H688 0.950 . S
C696 C697 1.386 . S
C696 C698 1.391 . S
C697 C696 1.386 . S
C697 C701 1.393 . S
C698 H690 0.950 . S
C698 C696 1.391 . S
C698 C699 1.400 . S
C699 C698 1.400 . S
C699 C700 1.398 . S
C699 C705 1.491 . S
C700 H691 0.950 . S
C700 C699 1.398 . S
C700 C701 1.391 . S
C701 H689 0.950 . S
C701 C697 1.393 . S
C701 C700 1.391 . S
C702 H692 0.950 . S
C702 C703 1.386 . S
C702 C704 1.391 . S
C703 C702 1.386 . S
C703 C707 1.393 . S
C704 H693 0.950 . S
C704 C702 1.391 . S
C704 C705 1.400 . S
C705 C699 1.491 . S
C705 C704 1.400 . S
C705 C706 1.398 . S
C706 H694 0.950 . S
C706 C705 1.398 . S
C706 C707 1.391 . S
C707 H695 0.950 . S
C707 C703 1.393 . S
C707 C706 1.391 . S
H708 C716 0.950 . S
H709 C721 0.950 . S
H710 C718 0.950 . S
H711 C720 0.950 . S
H712 C722 0.950 . S
H713 C724 0.950 . S
H714 C726 0.950 . S
H715 C727 0.950 . S
C716 H708 0.950 . S
C716 C717 1.386 . S
C716 C718 1.391 . S
C717 C716 1.386 . S
C717 C721 1.393 . S
C718 H710 0.950 . S
C718 C716 1.391 . S
C718 C719 1.400 . S
C719 C718 1.400 . S
C719 C720 1.398 . S
C719 C725 1.491 . S
C720 H711 0.950 . S
C720 C719 1.398 . S
C720 C721 1.391 . S
C721 H709 0.950 . S
C721 C717 1.393 . S
C721 C720 1.391 . S
C722 H712 0.950 . S
C722 C723 1.386 . S
C722 C724 1.391 . S
C723 C722 1.386 . S
C723 C727 1.393 . S
C724 H713 0.950 . S
C724 C722 1.391 . S
C724 C725 1.400 . S
C725 C719 1.491 . S
C725 C724 1.400 . S
C725 C726 1.398 . S
C726 H714 0.950 . S
C726 C725 1.398 . S
C726 C727 1.391 . S
C727 H715 0.950 . S
C727 C723 1.393 . S
C727 C726 1.391 . S
H728 C736 0.950 . S
H729 C741 0.950 . S
H730 C738 0.950 . S
H731 C740 0.950 . S
H732 C742 0.950 . S
H733 C744 0.950 . S
H734 C746 0.950 . S
H735 C747 0.950 . S
C736 H728 0.950 . S
C736 C737 1.386 . S
C736 C738 1.391 . S
C737 C736 1.386 . S
C737 C741 1.393 . S
C738 H730 0.950 . S
C738 C736 1.391 . S
C738 C739 1.400 1_554 S
C739 C738 1.400 1_556 S
C739 C740 1.398 . S
C739 C745 1.491 . S
C740 H731 0.950 . S
C740 C739 1.398 . S
C740 C741 1.391 1_556 S
C741 H729 0.950 . S
C741 C737 1.393 . S
C741 C740 1.391 1_554 S
C742 H732 0.950 . S
C742 C743 1.386 . S
C742 C744 1.391 . S
C743 C742 1.386 . S
C743 C747 1.393 . S
C744 H733 0.950 . S
C744 C742 1.391 . S
C744 C745 1.400 . S
C745 C739 1.491 . S
C745 C744 1.400 . S
C745 C746 1.398 . S
C746 H734 0.950 . S
C746 C745 1.398 . S
C746 C747 1.391 . S
C747 H735 0.950 . S
C747 C743 1.393 . S
C747 C746 1.391 . S
H748 C756 0.950 . S
H749 C761 0.950 . S
H750 C758 0.950 . S
H751 C760 0.950 . S
H752 C762 0.950 . S
H753 C764 0.950 . S
H754 C766 0.950 . S
H755 C767 0.950 . S
C756 H748 0.950 . S
C756 C757 1.386 . S
C756 C758 1.391 . S
C757 C756 1.386 . S
C757 C761 1.393 . S
C758 H750 0.950 . S
C758 C756 1.391 . S
C758 C759 1.400 1_554 S
C759 C758 1.400 1_556 S
C759 C760 1.398 . S
C759 C765 1.491 . S
C760 H751 0.950 . S
C760 C759 1.398 . S
C760 C761 1.391 1_556 S
C761 H749 0.950 . S
C761 C757 1.393 . S
C761 C760 1.391 1_554 S
C762 H752 0.950 . S
C762 C763 1.386 . S
C762 C764 1.391 . S
C763 C762 1.386 . S
C763 C767 1.393 . S
C764 H753 0.950 . S
C764 C762 1.391 . S
C764 C765 1.400 . S
C765 C759 1.491 . S
C765 C764 1.400 . S
C765 C766 1.398 . S
C766 H754 0.950 . S
C766 C765 1.398 . S
C766 C767 1.391 . S
C767 H755 0.950 . S
C767 C763 1.393 . S
C767 C766 1.391 . S
H768 C776 0.950 . S
H769 C781 0.950 . S
H770 C778 0.950 . S
H771 C780 0.950 . S
H772 C782 0.950 . S
H773 C784 0.950 . S
H774 C786 0.950 . S
H775 C787 0.950 . S
C776 H768 0.950 . S
C776 C777 1.386 . S
C776 C778 1.391 1_554 S
C777 C776 1.386 . S
C777 C781 1.393 . S
C778 H770 0.950 . S
C778 C776 1.391 1_556 S
C778 C779 1.400 . S
C779 C778 1.400 . S
C779 C780 1.398 . S
C779 C785 1.491 . S
C780 H771 0.950 . S
C780 C779 1.398 . S
C780 C781 1.391 1_556 S
C781 H769 0.950 . S
C781 C777 1.393 . S
C781 C780 1.391 1_554 S
C782 H772 0.950 . S
C782 C783 1.386 . S
C782 C784 1.391 . S
C783 C782 1.386 . S
C783 C787 1.393 . S
C784 H773 0.950 . S
C784 C782 1.391 . S
C784 C785 1.400 . S
C785 C779 1.491 . S
C785 C784 1.400 . S
C785 C786 1.398 . S
C786 H774 0.950 . S
C786 C785 1.398 . S
C786 C787 1.391 . S
C787 H775 0.950 . S
C787 C783 1.393 . S
C787 C786 1.391 . S
H788 C796 0.950 . S
H789 C801 0.950 . S
H790 C798 0.950 . S
H791 C800 0.950 1_556 S
H792 C802 0.950 . S
H793 C804 0.950 . S
H794 C806 0.950 . S
H795 C807 0.950 . S
C796 H788 0.950 . S
C796 C797 1.386 . S
C796 C798 1.391 1_554 S
C797 C796 1.386 . S
C797 C801 1.393 . S
C798 H790 0.950 . S
C798 C796 1.391 1_556 S
C798 C799 1.400 . S
C799 C798 1.400 . S
C799 C800 1.394 1_556 S
C799 C805 1.491 . S
C800 H791 0.950 1_554 S
C800 C799 1.394 1_554 S
C800 C801 1.395 . S
C801 H789 0.950 . S
C801 C797 1.393 . S
C801 C800 1.395 . S
C802 H792 0.950 . S
C802 C803 1.386 . S
C802 C804 1.391 . S
C803 C802 1.386 . S
C803 C807 1.393 . S
C804 H793 0.950 . S
C804 C802 1.391 . S
C804 C805 1.400 . S
C805 C799 1.491 . S
C805 C804 1.400 . S
C805 C806 1.398 . S
C806 H794 0.950 . S
C806 C805 1.398 . S
C806 C807 1.391 . S
C807 H795 0.950 . S
C807 C803 1.393 . S
C807 C806 1.391 . S
H808 C816 0.950 . S
H809 C821 0.950 . S
H810 C818 0.950 . S
H811 C820 0.950 . S
H812 C822 0.950 . S
H813 C824 0.950 . S
H814 C826 0.950 . S
H815 C827 0.950 . S
C816 H808 0.950 . S
C816 C817 1.386 . S
C816 C818 1.391 . S
C817 C816 1.386 . S
C817 C821 1.393 . S
C818 H810 0.950 . S
C818 C816 1.391 . S
C818 C819 1.400 . S
C819 C818 1.400 . S
C819 C820 1.398 . S
C819 C825 1.491 . S
C820 H811 0.950 . S
C820 C819 1.398 . S
C820 C821 1.391 . S
C821 H809 0.950 . S
C821 C817 1.393 . S
C821 C820 1.391 . S
C822 H812 0.950 . S
C822 C823 1.386 . S
C822 C824 1.391 . S
C823 C822 1.386 . S
C823 C827 1.393 1_455 S
C824 H813 0.950 . S
C824 C822 1.391 . S
C824 C825 1.400 . S
C825 C819 1.491 . S
C825 C824 1.400 . S
C825 C826 1.398 . S
C826 H814 0.950 . S
C826 C825 1.398 . S
C826 C827 1.391 1_455 S
C827 H815 0.950 . S
C827 C823 1.393 1_655 S
C827 C826 1.391 1_655 S
H828 C836 0.950 . S
H829 C841 0.950 . S
H830 C838 0.950 . S
H831 C840 0.950 . S
H832 C842 0.950 . S
H833 C844 0.950 . S
H834 C846 0.950 . S
H835 C847 0.950 . S
C836 H828 0.950 . S
C836 C837 1.386 . S
C836 C838 1.391 . S
C837 C836 1.386 . S
C837 C841 1.393 . S
C838 H830 0.950 . S
C838 C836 1.391 . S
C838 C839 1.400 . S
C839 C838 1.400 . S
C839 C840 1.398 . S
C839 C845 1.491 . S
C840 H831 0.950 . S
C840 C839 1.398 . S
C840 C841 1.391 . S
C841 H829 0.950 . S
C841 C837 1.393 . S
C841 C840 1.391 . S
C842 H832 0.950 . S
C842 C843 1.386 1_565 S
C842 C844 1.391 1_565 S
C843 C842 1.386 1_545 S
C843 C847 1.393 . S
C844 H833 0.950 . S
C844 C842 1.391 1_545 S
C844 C845 1.400 . S
C845 C839 1.491 . S
C845 C844 1.400 . S
C845 C846 1.398 . S
C846 H834 0.950 . S
C846 C845 1.398 . S
C846 C847 1.391 . S
C847 H835 0.950 . S
C847 C843 1.393 . S
C847 C846 1.391 . S
H848 C856 0.950 . S
H849 C861 0.950 . S
H850 C858 0.950 . S
H851 C860 0.950 . S
H852 C862 0.950 . S
H853 C864 0.950 . S
H854 C866 0.950 . S
H855 C867 0.950 . S
C856 H848 0.950 . S
C856 C857 1.386 . S
C856 C858 1.391 . S
C857 C856 1.386 . S
C857 C861 1.393 . S
C858 H850 0.950 . S
C858 C856 1.391 . S
C858 C859 1.400 . S
C859 C858 1.400 . S
C859 C860 1.398 . S
C859 C865 1.491 . S
C860 H851 0.950 . S
C860 C859 1.398 . S
C860 C861 1.391 . S
C861 H849 0.950 . S
C861 C857 1.393 . S
C861 C860 1.391 . S
C862 H852 0.950 . S
C862 C863 1.386 . S
C862 C864 1.391 . S
C863 C862 1.386 . S
C863 C867 1.393 . S
C864 H853 0.950 . S
C864 C862 1.391 . S
C864 C865 1.400 . S
C865 C859 1.491 . S
C865 C864 1.400 . S
C865 C866 1.398 . S
C866 H854 0.950 . S
C866 C865 1.398 . S
C866 C867 1.391 . S
C867 H855 0.950 . S
C867 C863 1.393 . S
C867 C866 1.391 . S
H868 C876 0.950 . S
H869 C881 0.950 . S
H870 C878 0.950 . S
H871 C880 0.950 . S
H872 C882 0.950 . S
H873 C884 0.950 . S
H874 C886 0.950 . S
H875 C887 0.950 . S
C876 H868 0.950 . S
C876 C877 1.386 . S
C876 C878 1.391 . S
C877 C876 1.386 . S
C877 C881 1.393 . S
C878 H870 0.950 . S
C878 C876 1.391 . S
C878 C879 1.400 . S
C879 C878 1.400 . S
C879 C880 1.398 . S
C879 C885 1.491 . S
C880 H871 0.950 . S
C880 C879 1.398 . S
C880 C881 1.391 . S
C881 H869 0.950 . S
C881 C877 1.393 . S
C881 C880 1.391 . S
C882 H872 0.950 . S
C882 C883 1.386 . S
C882 C884 1.391 . S
C883 C882 1.386 . S
C883 C887 1.393 . S
C884 H873 0.950 . S
C884 C882 1.391 . S
C884 C885 1.400 . S
C885 C879 1.491 . S
C885 C884 1.400 . S
C885 C886 1.398 . S
C886 H874 0.950 . S
C886 C885 1.398 . S
C886 C887 1.391 . S
C887 H875 0.950 . S
C887 C883 1.393 . S
C887 C886 1.391 . S
H888 C896 0.950 . S
H889 C901 0.950 . S
H890 C898 0.950 . S
H891 C900 0.950 1_554 S
H892 C902 0.950 . S
H893 C904 0.950 . S
H894 C906 0.950 . S
H895 C907 0.952 . S
C896 H888 0.950 . S
C896 C897 1.386 . S
C896 C898 1.391 . S
C897 C896 1.386 . S
C897 C901 1.393 1_556 S
C898 H890 0.950 . S
C898 C896 1.391 . S
C898 C899 1.400 . S
C899 C898 1.400 . S
C899 C900 1.398 . S
C899 C905 1.491 . S
C900 H891 0.950 1_556 S
C900 C899 1.398 . S
C900 C901 1.391 1_556 S
C901 H889 0.950 . S
C901 C897 1.393 1_554 S
C901 C900 1.391 1_554 S
C902 H892 0.950 . S
C902 C903 1.386 . S
C902 C904 1.391 1_455 S
C903 C902 1.386 . S
C903 C907 1.393 1_455 S
C904 H893 0.950 . S
C904 C902 1.391 1_655 S
C904 C905 1.400 . S
C905 C899 1.491 . S
C905 C904 1.400 . S
C905 C906 1.398 . S
C906 H894 0.950 . S
C906 C905 1.398 . S
C906 C907 1.391 . S
C907 H895 0.952 . S
C907 C903 1.393 1_655 S
C907 C906 1.391 . S
H908 C916 0.950 . S
H909 C921 0.949 1_554 S
H910 C918 0.950 . S
H911 C920 0.950 . S
H912 C922 0.950 . S
H913 C924 0.950 . S
H914 C926 0.950 . S
H915 C927 0.950 . S
C916 H908 0.950 . S
C916 C917 1.386 . S
C916 C918 1.391 . S
C917 C916 1.386 . S
C917 C921 1.393 . S
C918 H910 0.950 . S
C918 C916 1.391 . S
C918 C919 1.400 . S
C919 C918 1.400 . S
C919 C920 1.398 . S
C919 C925 1.491 . S
C920 H911 0.950 . S
C920 C919 1.398 . S
C920 C921 1.391 . S
C921 H909 0.949 1_556 S
C921 C917 1.393 . S
C921 C920 1.391 . S
C922 H912 0.950 . S
C922 C923 1.386 . S
C922 C924 1.391 . S
C923 C922 1.386 . S
C923 C927 1.393 1_545 S
C924 H913 0.950 . S
C924 C922 1.391 . S
C924 C925 1.400 1_545 S
C925 C919 1.491 . S
C925 C924 1.400 1_565 S
C925 C926 1.398 . S
C926 H914 0.950 . S
C926 C925 1.398 . S
C926 C927 1.391 . S
C927 H915 0.950 . S
C927 C923 1.393 1_565 S
C927 C926 1.391 . S
H928 C936 0.950 . S
H929 C941 0.950 . S
H930 C938 0.950 . S
H931 C940 0.950 . S
H932 C942 0.950 . S
H933 C944 0.950 . S
H934 C946 0.950 . S
H935 C947 0.950 . S
C936 H928 0.950 . S
C936 C937 1.386 1_554 S
C936 C938 1.391 1_554 S
C937 C936 1.386 1_556 S
C937 C941 1.393 . S
C938 H930 0.950 . S
C938 C936 1.391 1_556 S
C938 C939 1.400 . S
C939 C938 1.400 . S
C939 C940 1.398 . S
C939 C945 1.491 . S
C940 H931 0.950 . S
C940 C939 1.398 . S
C940 C941 1.391 . S
C941 H929 0.950 . S
C941 C937 1.393 . S
C941 C940 1.391 . S
C942 H932 0.950 . S
C942 C943 1.386 . S
C942 C944 1.391 . S
C943 C942 1.386 . S
C943 C947 1.393 . S
C944 H933 0.950 . S
C944 C942 1.391 . S
C944 C945 1.400 . S
C945 C939 1.491 . S
C945 C944 1.400 . S
C945 C946 1.398 . S
C946 H934 0.950 . S
C946 C945 1.398 . S
C946 C947 1.391 . S
C947 H935 0.950 . S
C947 C943 1.393 . S
C947 C946 1.391 . S
H948 C956 0.950 1_554 S
H949 C961 0.950 . S
H950 C958 0.950 . S
H951 C960 0.950 . S
H952 C962 0.950 . S
H953 C964 0.950 . S
H954 C966 0.950 . S
H955 C967 0.950 . S
C956 H948 0.950 1_556 S
C956 C957 1.386 . S
C956 C958 1.391 . S
C957 C956 1.386 . S
C957 C961 1.393 . S
C958 H950 0.950 . S
C958 C956 1.391 . S
C958 C959 1.400 . S
C959 C958 1.400 . S
C959 C960 1.398 . S
C959 C965 1.491 . S
C960 H951 0.950 . S
C960 C959 1.398 . S
C960 C961 1.391 . S
C961 H949 0.950 . S
C961 C957 1.393 . S
C961 C960 1.391 . S
C962 H952 0.950 . S
C962 C963 1.386 . S
C962 C964 1.391 . S
C963 C962 1.386 . S
C963 C967 1.393 . S
C964 H953 0.950 . S
C964 C962 1.391 . S
C964 C965 1.400 . S
C965 C959 1.491 . S
C965 C964 1.400 . S
C965 C966 1.398 . S
C966 H954 0.950 . S
C966 C965 1.398 . S
C966 C967 1.391 . S
C967 H955 0.950 . S
C967 C963 1.393 . S
C967 C966 1.391 . S
H968 C976 0.950 . S
H969 C981 0.950 . S
H970 C978 0.950 . S
H971 C980 0.950 . S
H972 C982 0.950 . S
H973 C984 0.950 . S
H974 C986 0.950 . S
H975 C987 0.950 . S
C976 H968 0.950 . S
C976 C977 1.386 . S
C976 C978 1.391 . S
C977 C976 1.386 . S
C977 C981 1.393 . S
C978 H970 0.950 . S
C978 C976 1.391 . S
C978 C979 1.400 . S
C979 C978 1.400 . S
C979 C980 1.398 . S
C979 C985 1.491 . S
C980 H971 0.950 . S
C980 C979 1.398 . S
C980 C981 1.391 . S
C981 H969 0.950 . S
C981 C977 1.393 . S
C981 C980 1.391 . S
C982 H972 0.950 . S
C982 C983 1.386 . S
C982 C984 1.391 . S
C983 C982 1.386 . S
C983 C987 1.393 . S
C984 H973 0.950 . S
C984 C982 1.391 . S
C984 C985 1.400 . S
C985 C979 1.491 . S
C985 C984 1.400 . S
C985 C986 1.398 . S
C986 H974 0.950 . S
C986 C985 1.398 . S
C986 C987 1.391 . S
C987 H975 0.950 . S
C987 C983 1.393 . S
C987 C986 1.391 . S
H988 C996 0.950 . S
H989 C1001 0.950 . S
H990 C998 0.950 . S
H991 C1000 0.950 . S
H992 C1002 0.950 . S
H993 C1004 0.950 . S
H994 C1006 0.950 . S
H995 C1007 0.950 . S
C996 H988 0.950 . S
C996 C997 1.386 . S
C996 C998 1.391 . S
C997 C996 1.386 . S
C997 C1001 1.393 . S
C998 H990 0.950 . S
C998 C996 1.391 . S
C998 C999 1.400 . S
C999 C998 1.400 . S
C999 C1000 1.398 . S
C999 C1005 1.491 . S
C1000 H991 0.950 . S
C1000 C999 1.398 . S
C1000 C1001 1.391 . S
C1001 H989 0.950 . S
C1001 C997 1.393 . S
C1001 C1000 1.391 . S
C1002 H992 0.950 . S
C1002 C1003 1.386 . S
C1002 C1004 1.391 . S
C1003 C1002 1.386 . S
C1003 C1007 1.393 . S
C1004 H993 0.950 . S
C1004 C1002 1.391 . S
C1004 C1005 1.400 . S
C1005 C999 1.491 . S
C1005 C1004 1.400 . S
C1005 C1006 1.398 . S
C1006 H994 0.950 . S
C1006 C1005 1.398 . S
C1006 C1007 1.391 . S
C1007 H995 0.950 . S
C1007 C1003 1.393 . S
C1007 C1006 1.391 . S
H1008 C1016 0.950 . S
H1009 C1021 0.950 . S
H1010 C1018 0.950 . S
H1011 C1020 0.950 . S
H1012 C1022 0.950 . S
H1013 C1024 0.950 . S
H1014 C1026 0.950 . S
H1015 C1027 0.950 . S
C1016 H1008 0.950 . S
C1016 C1017 1.386 . S
C1016 C1018 1.391 . S
C1017 C1016 1.386 . S
C1017 C1021 1.393 . S
C1018 H1010 0.950 . S
C1018 C1016 1.391 . S
C1018 C1019 1.400 . S
C1019 C1018 1.400 . S
C1019 C1020 1.398 . S
C1019 C1025 1.491 . S
C1020 H1011 0.950 . S
C1020 C1019 1.398 . S
C1020 C1021 1.391 . S
C1021 H1009 0.950 . S
C1021 C1017 1.393 . S
C1021 C1020 1.391 . S
C1022 H1012 0.950 . S
C1022 C1023 1.386 . S
C1022 C1024 1.391 . S
C1023 C1022 1.386 . S
C1023 C1027 1.393 . S
C1024 H1013 0.950 . S
C1024 C1022 1.391 . S
C1024 C1025 1.400 . S
C1025 C1019 1.491 . S
C1025 C1024 1.400 . S
C1025 C1026 1.398 . S
C1026 H1014 0.950 . S
C1026 C1025 1.398 . S
C1026 C1027 1.391 . S
C1027 H1015 0.950 . S
C1027 C1023 1.393 . S
C1027 C1026 1.391 . S
H1028 C1036 0.950 . S
H1029 C1041 0.950 . S
H1030 C1038 0.950 . S
H1031 C1040 0.950 . S
H1032 C1042 0.950 . S
H1033 C1044 0.950 . S
H1034 C1046 0.950 . S
H1035 C1047 0.950 . S
C1036 H1028 0.950 . S
C1036 C1037 1.386 . S
C1036 C1038 1.391 . S
C1037 C1036 1.386 . S
C1037 C1041 1.393 . S
C1038 H1030 0.950 . S
C1038 C1036 1.391 . S
C1038 C1039 1.400 . S
C1039 C1038 1.400 . S
C1039 C1040 1.398 . S
C1039 C1045 1.491 . S
C1040 H1031 0.950 . S
C1040 C1039 1.398 . S
C1040 C1041 1.391 . S
C1041 H1029 0.950 . S
C1041 C1037 1.393 . S
C1041 C1040 1.391 . S
C1042 H1032 0.950 . S
C1042 C1043 1.386 . S
C1042 C1044 1.391 . S
C1043 C1042 1.386 . S
C1043 C1047 1.393 . S
C1044 H1033 0.950 . S
C1044 C1042 1.391 . S
C1044 C1045 1.400 . S
C1045 C1039 1.491 . S
C1045 C1044 1.400 . S
C1045 C1046 1.398 . S
C1046 H1034 0.950 . S
C1046 C1045 1.398 . S
C1046 C1047 1.391 . S
C1047 H1035 0.950 . S
C1047 C1043 1.393 . S
C1047 C1046 1.391 . S
H1048 C1056 0.950 . S
H1049 C1061 0.950 . S
H1050 C1058 0.950 . S
H1051 C1060 0.950 . S
H1052 C1062 0.950 . S
H1053 C1064 0.950 . S
H1054 C1066 0.950 . S
H1055 C1067 0.950 . S
C1056 H1048 0.950 . S
C1056 C1057 1.386 . S
C1056 C1058 1.391 . S
C1057 C1056 1.386 . S
C1057 C1061 1.393 . S
C1058 H1050 0.950 . S
C1058 C1056 1.391 . S
C1058 C1059 1.400 . S
C1059 C1058 1.400 . S
C1059 C1060 1.398 . S
C1059 C1065 1.491 . S
C1060 H1051 0.950 . S
C1060 C1059 1.398 . S
C1060 C1061 1.391 . S
C1061 H1049 0.950 . S
C1061 C1057 1.393 . S
C1061 C1060 1.391 . S
C1062 H1052 0.950 . S
C1062 C1063 1.386 . S
C1062 C1064 1.391 . S
C1063 C1062 1.386 . S
C1063 C1067 1.393 . S
C1064 H1053 0.950 . S
C1064 C1062 1.391 . S
C1064 C1065 1.400 . S
C1065 C1059 1.491 . S
C1065 C1064 1.400 . S
C1065 C1066 1.398 . S
C1066 H1054 0.950 . S
C1066 C1065 1.398 . S
C1066 C1067 1.391 . S
C1067 H1055 0.950 . S
C1067 C1063 1.393 . S
C1067 C1066 1.391 . S
H1068 C1076 0.950 . S
H1069 C1081 0.950 . S
H1070 C1078 0.950 . S
H1071 C1080 0.950 . S
H1072 C1082 0.950 1_545 S
H1073 C1084 0.950 1_545 S
H1074 C1086 0.950 . S
H1075 C1087 0.950 . S
C1076 H1068 0.950 . S
C1076 C1077 1.386 . S
C1076 C1078 1.391 . S
C1077 C1076 1.386 . S
C1077 C1081 1.393 . S
C1078 H1070 0.950 . S
C1078 C1076 1.391 . S
C1078 C1079 1.400 . S
C1079 C1078 1.400 . S
C1079 C1080 1.398 . S
C1079 C1085 1.491 . S
C1080 H1071 0.950 . S
C1080 C1079 1.398 . S
C1080 C1081 1.391 . S
C1081 H1069 0.950 . S
C1081 C1077 1.393 . S
C1081 C1080 1.391 . S
C1082 H1072 0.950 1_565 S
C1082 C1083 1.386 . S
C1082 C1084 1.391 . S
C1083 C1082 1.386 . S
C1083 C1087 1.393 . S
C1084 H1073 0.950 1_565 S
C1084 C1082 1.391 . S
C1084 C1085 1.400 . S
C1085 C1079 1.491 . S
C1085 C1084 1.400 . S
C1085 C1086 1.398 . S
C1086 H1074 0.950 . S
C1086 C1085 1.398 . S
C1086 C1087 1.391 . S
C1087 H1075 0.950 . S
C1087 C1083 1.393 . S
C1087 C1086 1.391 . S
H1088 C1096 0.950 . S
H1089 C1101 0.950 . S
H1090 C1098 0.950 . S
H1091 C1100 0.950 . S
H1092 C1102 0.950 . S
H1093 C1104 0.950 . S
H1094 C1106 0.950 . S
H1095 C1107 0.950 . S
C1096 H1088 0.950 . S
C1096 C1097 1.386 . S
C1096 C1098 1.391 . S
C1097 C1096 1.386 . S
C1097 C1101 1.393 . S
C1098 H1090 0.950 . S
C1098 C1096 1.391 . S
C1098 C1099 1.400 . S
C1099 C1098 1.400 . S
C1099 C1100 1.398 . S
C1099 C1105 1.491 . S
C1100 H1091 0.950 . S
C1100 C1099 1.398 . S
C1100 C1101 1.391 . S
C1101 H1089 0.950 . S
C1101 C1097 1.393 . S
C1101 C1100 1.391 . S
C1102 H1092 0.950 . S
C1102 C1103 1.386 . S
C1102 C1104 1.391 . S
C1103 C1102 1.386 . S
C1103 C1107 1.393 . S
C1104 H1093 0.950 . S
C1104 C1102 1.391 . S
C1104 C1105 1.400 . S
C1105 C1099 1.491 . S
C1105 C1104 1.400 . S
C1105 C1106 1.398 . S
C1106 H1094 0.950 . S
C1106 C1105 1.398 . S
C1106 C1107 1.391 . S
C1107 H1095 0.950 . S
C1107 C1103 1.393 . S
C1107 C1106 1.391 . S
H1108 C1116 0.950 . S
H1109 C1121 0.950 . S
H1110 C1118 0.950 . S
H1111 C1120 0.950 . S
H1112 C1122 0.950 . S
H1113 C1124 0.950 . S
H1114 C1126 0.950 . S
H1115 C1127 0.950 . S
C1116 H1108 0.950 . S
C1116 C1117 1.386 . S
C1116 C1118 1.391 . S
C1117 C1116 1.386 . S
C1117 C1121 1.393 . S
C1118 H1110 0.950 . S
C1118 C1116 1.391 . S
C1118 C1119 1.400 . S
C1119 C1118 1.400 . S
C1119 C1120 1.398 . S
C1119 C1125 1.491 . S
C1120 H1111 0.950 . S
C1120 C1119 1.398 . S
C1120 C1121 1.391 . S
C1121 H1109 0.950 . S
C1121 C1117 1.393 . S
C1121 C1120 1.391 . S
C1122 H1112 0.950 . S
C1122 C1123 1.386 . S
C1122 C1124 1.391 . S
C1123 C1122 1.386 . S
C1123 C1127 1.393 . S
C1124 H1113 0.950 . S
C1124 C1122 1.391 . S
C1124 C1125 1.400 . S
C1125 C1119 1.491 . S
C1125 C1124 1.400 . S
C1125 C1126 1.398 . S
C1126 H1114 0.950 . S
C1126 C1125 1.398 . S
C1126 C1127 1.391 . S
C1127 H1115 0.950 . S
C1127 C1123 1.393 . S
C1127 C1126 1.391 . S
C657 C255 2.248 . S
C663 C387 2.329 . S
C683 C471 2.375 . S
C677 C294 2.272 . S
C703 C547 2.247 . S
C697 C177 2.367 . S
C723 C631 2.249 . S
C717 C216 2.367 . S
C743 C378 2.333 1_565 S
C737 C99 2.271 . S
C757 C138 2.262 . S
C763 C462 2.365 . S
C777 C21 2.387 . S
C783 C536 2.252 . S
C797 C60 2.387 . S
C803 C620 2.254 . S
C823 C375 0.614 1_455 S
C817 C196 0.678 . S
C843 C459 0.564 1_545 S
C837 C235 0.642 . S
C863 C552 0.551 . S
C857 C289 0.629 . S
C877 C157 0.607 . S
C883 C636 0.636 . S
C897 C40 0.680 1_556 S
C903 C384 0.612 . S
C923 C468 0.579 . S
C917 C79 0.592 1_556 S
C943 C543 0.528 . S
C937 C133 0.602 1_556 S
C957 C1 0.595 1_556 S
C963 C627 0.631 . S
C977 C211 2.758 . S
C983 C368 2.899 . S
C997 C250 2.719 . S
C1003 C452 2.860 . S
C1023 C546 2.933 . S
C1017 C274 2.603 . S
C1043 C630 2.964 . S
C1037 C172 2.617 . S
C1057 C55 2.746 . S
C1063 C379 2.908 . S
C1083 C463 2.867 . S
C1077 C94 2.719 . S
C1103 C555 2.940 . S
C1097 C118 2.595 . S
C1117 C16 2.631 . S
C1123 C639 2.967 . S
