# Generated by pormake.
# Topology zzz, (3,6)-cn, num edge types: 1
# Building blocks:
#     Node 0, Type 0, BuildingBlock: ESEHIV_clean_linker_0, # of connection points: 3
#     Node 1, Type 0, BuildingBlock: ESEHIV_clean_linker_0, # of connection points: 3
#     Node 2, Type 0, BuildingBlock: ESEHIV_clean_linker_0, # of connection points: 3
#     Node 3, Type 0, BuildingBlock: ESEHIV_clean_linker_0, # of connection points: 3
#     Node 4, Type 0, BuildingBlock: ESEHIV_clean_linker_0, # of connection points: 3
#     Node 5, Type 0, BuildingBlock: ESEHIV_clean_linker_0, # of connection points: 3
#     Node 6, Type 0, BuildingBlock: ESEHIV_clean_linker_0, # of connection points: 3
#     Node 7, Type 0, BuildingBlock: ESEHIV_clean_linker_0, # of connection points: 3
#     Node 8, Type 1, BuildingBlock: LEVNOQ01_clean_sbu_1, # of connection points: 6
#     Node 9, Type 1, BuildingBlock: LEVNOQ01_clean_sbu_1, # of connection points: 6
#     Node 10, Type 1, BuildingBlock: LEVNOQ01_clean_sbu_1, # of connection points: 6
#     Node 11, Type 1, BuildingBlock: LEVNOQ01_clean_sbu_1, # of connection points: 6
#     Edge 12, Type (0, 1), BuildingBlock: XUDNAN_clean_linker_2, # of connection points: 2
#     Edge 13, Type (0, 1), BuildingBlock: XUDNAN_clean_linker_2, # of connection points: 2
#     Edge 14, Type (0, 1), BuildingBlock: XUDNAN_clean_linker_2, # of connection points: 2
#     Edge 15, Type (0, 1), BuildingBlock: XUDNAN_clean_linker_2, # of connection points: 2
#     Edge 16, Type (0, 1), BuildingBlock: XUDNAN_clean_linker_2, # of connection points: 2
#     Edge 17, Type (0, 1), BuildingBlock: XUDNAN_clean_linker_2, # of connection points: 2
#     Edge 18, Type (0, 1), BuildingBlock: XUDNAN_clean_linker_2, # of connection points: 2
#     Edge 19, Type (0, 1), BuildingBlock: XUDNAN_clean_linker_2, # of connection points: 2
#     Edge 20, Type (0, 1), BuildingBlock: XUDNAN_clean_linker_2, # of connection points: 2
#     Edge 21, Type (0, 1), BuildingBlock: XUDNAN_clean_linker_2, # of connection points: 2
#     Edge 22, Type (0, 1), BuildingBlock: XUDNAN_clean_linker_2, # of connection points: 2
#     Edge 23, Type (0, 1), BuildingBlock: XUDNAN_clean_linker_2, # of connection points: 2
#     Edge 24, Type (0, 1), BuildingBlock: XUDNAN_clean_linker_2, # of connection points: 2
#     Edge 25, Type (0, 1), BuildingBlock: XUDNAN_clean_linker_2, # of connection points: 2
#     Edge 26, Type (0, 1), BuildingBlock: XUDNAN_clean_linker_2, # of connection points: 2
#     Edge 27, Type (0, 1), BuildingBlock: XUDNAN_clean_linker_2, # of connection points: 2
#     Edge 28, Type (0, 1), BuildingBlock: XUDNAN_clean_linker_2, # of connection points: 2
#     Edge 29, Type (0, 1), BuildingBlock: XUDNAN_clean_linker_2, # of connection points: 2
#     Edge 30, Type (0, 1), BuildingBlock: XUDNAN_clean_linker_2, # of connection points: 2
#     Edge 31, Type (0, 1), BuildingBlock: XUDNAN_clean_linker_2, # of connection points: 2
#     Edge 32, Type (0, 1), BuildingBlock: XUDNAN_clean_linker_2, # of connection points: 2
#     Edge 33, Type (0, 1), BuildingBlock: XUDNAN_clean_linker_2, # of connection points: 2
#     Edge 34, Type (0, 1), BuildingBlock: XUDNAN_clean_linker_2, # of connection points: 2
#     Edge 35, Type (0, 1), BuildingBlock: XUDNAN_clean_linker_2, # of connection points: 2
# Relax obj value: 0.307
# Max RMSD: 0.219
# Mean RMSD: 0.206
data_MOF--net-zzz--node1-LEVNOQ01_clean_sbu_1--node2-ESEHIV_clean_linker_0--edge1-XUDNAN_clean_linker_2
_symmetry_space_group_name_H-M    P1
_symmetry_Int_Tables_number       1
_symmetry_cell_setting            triclinic
loop_
_symmetry_equiv_pos_as_xyz
'x, y, z'
_cell_length_a     42.028121
_cell_length_b     44.822969
_cell_length_c     16.215215
_cell_angle_alpha  89.620539
_cell_angle_beta   89.508611
_cell_angle_gamma 88.502355
loop_
_atom_site_label
_atom_site_type_symbol
_atom_site_fract_x
_atom_site_fract_y
_atom_site_fract_z
_atom_type_partial_charge
H0 H 0.81809 0.60067 0.18696 0.0
H1 H 0.73882 0.61402 0.02677 0.0
H2 H 0.72314 0.59903 0.28703 0.0
C3 C 0.79268 0.60437 0.17883 0.0
C4 C 0.77256 0.6013 0.24729 0.0
C5 C 0.78049 0.60741 0.09932 0.0
C6 C 0.74794 0.61207 0.08907 0.0
C7 C 0.72677 0.60922 0.1558 0.0
C8 C 0.73913 0.60325 0.2358 0.0
H9 H 0.95898 0.8086 0.22096 0.0
H10 H 0.9702 0.74498 0.02549 0.0
H11 H 0.02125 0.7323 0.25309 0.0
C12 C 0.96782 0.7872 0.19828 0.0
C13 C 0.98922 0.7709 0.24748 0.0
C14 C 0.962 0.77897 0.11679 0.0
C15 C 0.97439 0.7515 0.08871 0.0
C16 C 0.99555 0.73431 0.13746 0.0
C17 C 0.00358 0.74441 0.21683 0.0
H18 H 0.69152 0.86534 0.23054 0.0
H19 H 0.75927 0.8832 0.0402 0.0
H20 H 0.78045 0.90499 0.29125 0.0
C21 C 0.71561 0.87123 0.21332 0.0
C22 C 0.7348 0.88452 0.27192 0.0
C23 C 0.72268 0.87419 0.12959 0.0
C24 C 0.75353 0.88134 0.10538 0.0
C25 C 0.77559 0.89049 0.16418 0.0
C26 C 0.76532 0.89425 0.24728 0.0
H27 H 0.53319 0.69027 0.23587 0.0
H28 H 0.49268 0.77672 0.28517 0.0
H29 H 0.53907 0.7595 0.05216 0.0
C30 C 0.5303 0.71335 0.21676 0.0
C31 C 0.5368 0.7219 0.1351 0.0
C32 C 0.51546 0.73309 0.2723 0.0
C33 C 0.50738 0.76237 0.24617 0.0
C34 C 0.51636 0.77199 0.16628 0.0
C35 C 0.53346 0.75225 0.11441 0.0
H36 H 0.18827 0.38507 0.23231 0.0
H37 H 0.26336 0.38722 0.40782 0.0
H38 H 0.27482 0.42708 0.16643 0.0
C39 C 0.21301 0.38892 0.24616 0.0
C40 C 0.23053 0.40547 0.18943 0.0
C41 C 0.22416 0.38371 0.3264 0.0
C42 C 0.25561 0.39057 0.34488 0.0
C43 C 0.27475 0.40614 0.28811 0.0
C44 C 0.26169 0.41364 0.20994 0.0
H45 H 0.03707 0.18922 0.22852 0.0
H46 H 0.01054 0.25919 0.39232 0.0
H47 H 0.01193 0.27657 0.13066 0.0
C48 C 0.03206 0.21288 0.23641 0.0
C49 C 0.02754 0.23169 0.1677 0.0
C50 C 0.02585 0.22282 0.31612 0.0
C51 C 0.01654 0.25219 0.32998 0.0
C52 C 0.01161 0.27176 0.26354 0.0
C53 C 0.01707 0.26167 0.18191 0.0
H54 H 0.32226 0.11512 0.25936 0.0
H55 H 0.23947 0.13455 0.40611 0.0
H56 H 0.23229 0.08265 0.18503 0.0
C57 C 0.29655 0.11612 0.26615 0.0
C58 C 0.27848 0.10121 0.2079 0.0
C59 C 0.28291 0.12499 0.34165 0.0
C60 C 0.24973 0.12682 0.34818 0.0
C61 C 0.23097 0.11047 0.29429 0.0
C62 C 0.24568 0.09725 0.22392 0.0
H63 H 0.50337 0.31277 0.17385 0.0
H64 H 0.48856 0.21855 0.14952 0.0
H65 H 0.49956 0.25901 0.38947 0.0
C66 C 0.50224 0.29059 0.20113 0.0
C67 C 0.50394 0.28765 0.28586 0.0
C68 C 0.49498 0.26627 0.15206 0.0
C69 C 0.49319 0.23749 0.18824 0.0
C70 C 0.4974 0.23389 0.27496 0.0
C71 C 0.50048 0.25987 0.32277 0.0
O72 O 0.06481 0.95064 0.85699 0.0
Mg73 Mg 0.06914 0.96299 0.73141 0.0
O74 O 0.01685 0.97078 0.85015 0.0
Mg75 Mg 0.00696 -0.00203 0.73486 0.0
O76 O 0.06053 0.00593 0.68966 0.0
O77 O 0.10891 0.98333 0.69263 0.0
O78 O 0.99612 0.02455 0.62112 0.0
O79 O 0.00975 0.04407 0.80764 0.0
Mg80 Mg 0.94333 0.02838 0.71299 0.0
O81 O 0.95406 0.99015 0.78002 0.0
O82 O 0.94722 0.0328 0.58225 0.0
O83 O 0.96299 0.06476 0.77407 0.0
O84 O 0.90468 0.00951 0.76676 0.0
C85 C 0.02163 0.93282 0.6298 0.0
C86 C 0.03734 0.95478 0.88788 0.0
C87 C 0.09098 0.00586 0.67125 0.0
C88 C 0.97672 0.03517 0.56868 0.0
C89 C 0.99004 0.0665 0.80783 0.0
C90 C 0.92371 0.98944 0.79795 0.0
O91 O 0.05093 0.93246 0.64722 0.0
O92 O 1.00259 0.95325 0.65765 0.0
O93 O 0.41985 0.00092 0.76339 0.0
Mg94 Mg 0.44527 0.96908 0.68856 0.0
O95 O 0.4652 0.01654 0.81256 0.0
Mg96 Mg 0.49949 -0.00414 0.7097 0.0
O97 O 0.48202 0.94698 0.74733 0.0
O98 O 0.43419 0.92766 0.72413 0.0
O99 O 0.53679 0.97493 0.61277 0.0
O100 O 0.53492 0.98068 0.80482 0.0
Mg101 Mg 0.56288 0.03085 0.72912 0.0
O102 O 0.51935 0.04254 0.68302 0.0
O103 O 0.58092 -6e-05 0.64002 0.0
O104 O 0.56574 0.01499 0.85286 0.0
O105 O 0.55792 0.07522 0.69602 0.0
C106 C 0.44571 0.00064 0.55677 0.0
C107 C 0.43474 0.01643 0.81469 0.0
C108 C 0.46218 0.92521 0.75573 0.0
C109 C 0.56663 0.97977 0.60086 0.0
C110 C 0.55581 0.98859 0.85515 0.0
C111 C 0.53032 0.06884 0.66765 0.0
O112 O 0.44367 0.97269 0.55947 0.0
O113 O 0.46308 0.01283 0.60998 0.0
O114 O 0.53769 0.43708 0.79971 0.0
Mg115 Mg 0.55827 0.47356 0.73746 0.0
O116 O 0.49059 0.4595 0.81767 0.0
Mg117 Mg 0.49483 0.50574 0.74634 0.0
O118 O 0.54717 0.51374 0.79395 0.0
O119 O 0.59606 0.49221 0.79236 0.0
O120 O 0.4967 0.55149 0.67499 0.0
O121 O 0.48143 0.53285 0.86129 0.0
Mg122 Mg 0.42621 0.5359 0.75351 0.0
O123 O 0.44349 0.49828 0.69776 0.0
O124 O 0.44731 0.57107 0.68369 0.0
O125 O 0.43013 0.53725 0.8832 0.0
O126 O 0.39193 0.51097 0.69889 0.0
C127 C 0.52996 0.47066 0.58243 0.0
C128 C 0.50928 0.43665 0.82675 0.0
C129 C 0.5772 0.51397 0.81433 0.0
C130 C 0.47611 0.57235 0.65912 0.0
C131 C 0.45823 0.54247 0.9051 0.0
C132 C 0.41486 0.49416 0.67082 0.0
O133 O 0.55839 0.47045 0.60722 0.0
O134 O 0.5079 0.48088 0.62897 0.0
O135 O 0.96013 0.47061 0.85153 0.0
Mg136 Mg 0.95717 0.47519 0.7227 0.0
O137 O 0.9689 0.51545 0.80834 0.0
Mg138 Mg 0.00471 0.50265 0.70109 0.0
O139 O 0.98809 0.45371 0.64581 0.0
O140 O 0.9397 0.43734 0.68099 0.0
O141 O 0.03929 0.48823 0.59405 0.0
O142 O 0.03817 0.47843 0.80064 0.0
Mg143 Mg 0.0569 0.5267 0.68145 0.0
O144 O 0.02347 0.55165 0.74755 0.0
O145 O 0.06579 0.52686 0.55417 0.0
O146 O 0.0831 0.49406 0.74841 0.0
O147 O 0.07382 0.56494 0.72166 0.0
C148 C 0.93944 0.52707 0.61668 0.0
C149 C 0.95653 0.49829 0.86172 0.0
C150 C 0.96551 0.43426 0.63826 0.0
C151 C 0.05847 0.50013 0.5435 0.0
C152 C 0.06861 0.47845 0.80104 0.0
C153 C 0.04675 0.57033 0.7567 0.0
O154 O 0.92752 0.5094 0.66896 0.0
O155 O 0.96974 0.52772 0.60771 0.0
H156 H 0.21069 0.05348 0.31487 0.0
H157 H 0.18246 0.14572 0.35782 0.0
H158 H 0.14099 0.12943 0.45626 0.0
H159 H 0.12876 0.02204 0.33594 0.0
H160 H 0.1445 0.98886 0.38597 0.0
H161 H 0.16816 0.00801 0.31012 0.0
H162 H 0.21339 0.01189 0.4167 0.0
H163 H 0.1897 -0.00645 0.49368 0.0
H164 H 0.20528 0.02982 0.51409 0.0
H165 H 0.10993 0.10278 0.57119 0.0
H166 H 0.08314 0.06763 0.66742 0.0
H167 H 0.1317 -0.00651 0.54567 0.0
C168 C 0.19467 0.07019 0.34145 0.0
C169 C 0.19959 0.10088 0.32759 0.0
C170 C 0.17885 0.12207 0.36658 0.0
C171 C 0.15544 0.11302 0.42335 0.0
C172 C 0.15266 0.08261 0.43979 0.0
C173 C 0.17109 0.0615 0.39794 0.0
C174 C 0.16472 0.03035 0.42966 0.0
C175 C 0.15069 0.01118 0.36136 0.0
C176 C 0.19508 0.01555 0.46565 0.0
C177 C 0.14033 0.0372 0.49673 0.0
C178 C 0.1338 0.06744 0.50255 0.0
C179 C 0.11387 0.07895 0.56491 0.0
C180 C 0.09887 0.05893 0.61958 0.0
C181 C 0.10491 0.02786 0.61323 0.0
C182 C 0.12619 0.01713 0.55137 0.0
H183 H 0.52768 0.21942 0.42027 0.0
H184 H 0.46989 0.17981 0.23083 0.0
H185 H 0.47 0.13269 0.31191 0.0
H186 H 0.57272 0.15839 0.48614 0.0
H187 H 0.56975 0.16793 0.59381 0.0
H188 H 0.56719 0.19682 0.51657 0.0
H189 H 0.51269 0.21473 0.57714 0.0
H190 H 0.51497 0.18572 0.65443 0.0
H191 H 0.48097 0.18864 0.58759 0.0
H192 H 0.48169 0.08822 0.41436 0.0
H193 H 0.49609 0.05457 0.53119 0.0
H194 H 0.53561 0.12893 0.66032 0.0
C195 C 0.51398 0.20151 0.39557 0.0
C196 C 0.49815 0.20416 0.31885 0.0
C197 C 0.48244 0.17879 0.28877 0.0
C198 C 0.48211 0.15191 0.33497 0.0
C199 C 0.49687 0.15096 0.41202 0.0
C200 C 0.51188 0.17551 0.4423 0.0
C201 C 0.52429 0.17021 0.52846 0.0
C202 C 0.56063 0.17352 0.53133 0.0
C203 C 0.50721 0.19106 0.59055 0.0
C204 C 0.51502 0.13829 0.54175 0.0
C205 C 0.49965 0.12721 0.47378 0.0
C206 C 0.49217 0.09712 0.46935 0.0
C207 C 0.50004 0.07822 0.53642 0.0
C208 C 0.51548 0.08943 0.60655 0.0
C209 C 0.52268 0.11993 0.60902 0.0
H210 H 0.3162 0.38346 0.40719 0.0
H211 H 0.30225 0.45929 0.24138 0.0
H212 H 0.34684 0.48395 0.3061 0.0
H213 H 0.32332 0.42574 0.58141 0.0
H214 H 0.35254 0.40163 0.63084 0.0
H215 H 0.32554 0.38648 0.55782 0.0
H216 H 0.37345 0.36523 0.47651 0.0
H217 H 0.40191 0.38202 0.54366 0.0
H218 H 0.40236 0.39011 0.43441 0.0
H219 H 0.3878 0.50377 0.39896 0.0
H220 H 0.41537 0.52042 0.52326 0.0
H221 H 0.39724 0.43595 0.64337 0.0
C222 C 0.32248 0.40515 0.38345 0.0
C223 C 0.30532 0.41899 0.31772 0.0
C224 C 0.31519 0.44732 0.28908 0.0
C225 C 0.34056 0.46178 0.32618 0.0
C226 C 0.35584 0.448 0.39282 0.0
C227 C 0.34684 0.42049 0.42201 0.0
C228 C 0.36372 0.41252 0.502 0.0
C229 C 0.33985 0.40626 0.57213 0.0
C230 C 0.38675 0.38584 0.48857 0.0
C231 C 0.38181 0.44089 0.5166 0.0
C232 C 0.37818 0.46033 0.45042 0.0
C233 C 0.39121 0.48856 0.45042 0.0
C234 C 0.40703 0.49776 0.52113 0.0
C235 C 0.40902 0.47921 0.59189 0.0
C236 C 0.39696 0.4501 0.589 0.0
H237 H 0.03963 0.32488 0.29308 0.0
H238 H 0.94906 0.28116 0.29266 0.0
H239 H 0.92631 0.31993 0.38506 0.0
H240 H 0.04284 0.34281 0.48626 0.0
H241 H 0.05677 0.3802 0.4838 0.0
H242 H 0.06634 0.35518 0.39988 0.0
H243 H 0.04303 0.38974 0.29313 0.0
H244 H 0.02742 0.41809 0.36235 0.0
H245 H 1.00128 0.39986 0.29493 0.0
H246 H 0.91788 0.35626 0.50032 0.0
H247 H 0.9193 0.39446 0.60734 0.0
H248 H 0.01432 0.41824 0.52737 0.0
C249 C 0.01451 0.32457 0.30848 0.0
C250 C 0.99581 0.30054 0.28417 0.0
C251 C 0.96338 0.30002 0.30847 0.0
C252 C 0.95045 0.32165 0.36209 0.0
C253 C 0.9701 0.34407 0.38919 0.0
C254 C 1.001 0.34632 0.3609 0.0
C255 C 0.01701 0.37241 0.40037 0.0
C256 C 0.0476 0.36212 0.44496 0.0
C257 C 0.02272 0.39637 0.33396 0.0
C258 C 0.99156 0.38282 0.46129 0.0
C259 C 0.96453 0.36624 0.45292 0.0
C260 C 0.93858 0.36996 0.50575 0.0
C261 C 0.93986 0.39169 0.56718 0.0
C262 C 0.96692 0.40979 0.57606 0.0
C263 C 0.99322 0.40507 0.52217 0.0
H264 H 0.79537 0.94732 0.1385 0.0
H265 H 0.82431 0.85474 0.10834 0.0
H266 H 0.87004 0.86988 0.02171 0.0
H267 H 0.80832 0.96785 0.93848 0.0
H268 H 0.82246 0.00467 0.95899 0.0
H269 H 0.79625 0.98704 0.03146 0.0
H270 H 0.83726 -0.00646 0.14801 0.0
H271 H 0.86356 0.01158 0.07602 0.0
H272 H 0.8775 0.97946 0.13405 0.0
H273 H 0.9098 0.89574 0.92418 0.0
H274 H 0.93761 0.92928 0.82576 0.0
H275 H 0.87985 0.00398 0.91486 0.0
C276 C 0.81236 0.93043 0.11716 0.0
C277 C 0.80711 0.89995 0.13275 0.0
C278 C 0.82867 0.87827 0.09955 0.0
C279 C 0.85463 0.88669 0.04991 0.0
C280 C 0.85874 0.91698 0.03361 0.0
C281 C 0.8382 0.9385 0.06686 0.0
C282 C 0.84537 0.96916 0.03284 0.0
C283 C 0.81638 0.98296 0.98777 0.0
C284 C 0.8566 0.98964 0.10184 0.0
C285 C 0.8723 0.96152 0.97322 0.0
C286 C 0.8803 0.93145 0.97541 0.0
C287 C 0.90395 0.91938 0.92305 0.0
C288 C 0.91961 0.93853 0.86717 0.0
C289 C 0.91072 0.96915 0.86224 0.0
C290 C 0.88708 0.98061 0.91692 0.0
H291 H 0.53538 0.83025 0.1375 0.0
H292 H 0.46078 0.76772 0.0907 0.0
H293 H 0.44051 0.79988 0.97835 0.0
H294 H 0.48052 0.89875 0.08869 0.0
H295 H 0.51333 0.91925 0.04677 0.0
H296 H 0.51991 0.89298 0.12995 0.0
H297 H 0.56331 0.86619 0.04167 0.0
H298 H 0.55597 0.89176 0.95764 0.0
H299 H 0.55326 0.85216 0.94139 0.0
H300 H 0.43443 0.83259 0.85795 0.0
H301 H 0.43228 0.87255 0.75402 0.0
H302 H 0.50671 0.91877 0.88201 0.0
C303 C 0.51385 0.82426 0.10615 0.0
C304 C 0.4992 0.79677 0.12357 0.0
C305 C 0.4717 0.78904 0.07966 0.0
C306 C 0.46031 0.80696 0.01498 0.0
C307 C 0.47605 0.83312 0.99653 0.0
C308 C 0.50125 0.84267 0.04286 0.0
C309 C 0.513 0.87236 0.00955 0.0
C310 C 0.50629 0.89732 0.07247 0.0
C311 C 0.5485 0.87044 0.98616 0.0
C312 C 0.49212 0.87653 0.93373 0.0
C313 C 0.47108 0.85347 0.92813 0.0
C314 C 0.45013 0.85124 0.86274 0.0
C315 C 0.4493 0.87401 0.80354 0.0
C316 C 0.46907 0.89901 0.8099 0.0
C317 C 0.49139 0.89991 0.87505 0.0
H318 H 0.69058 0.56012 0.17508 0.0
H319 H 0.68899 0.64971 0.07399 0.0
H320 H 0.64573 0.63642 0.98 0.0
H321 H 0.68305 0.52337 -0.00122 0.0
H322 H 0.65695 0.49467 0.03467 0.0
H323 H 0.68258 0.5126 0.10612 0.0
H324 H 0.63432 0.52791 0.19761 0.0
H325 H 0.60813 0.50962 0.12763 0.0
H326 H 0.60117 0.54835 0.15306 0.0
H327 H 0.61181 0.60966 0.87504 0.0
H328 H 0.5814 0.57452 0.78966 0.0
H329 H 0.60449 0.50316 0.96187 0.0
C330 C 0.67963 0.57746 0.13721 0.0
C331 C 0.69285 0.60606 0.13282 0.0
C332 C 0.67874 0.62785 0.07963 0.0
C333 C 0.65449 0.62034 0.02499 0.0
C334 C 0.64391 0.59114 0.02575 0.0
C335 C 0.6551 0.57039 0.0829 0.0
C336 C 0.6412 0.54007 0.06786 0.0
C337 C 0.66752 0.5163 0.05083 0.0
C338 C 0.61993 0.53095 0.14084 0.0
C339 C 0.62166 0.54663 0.99141 0.0
C340 C 0.62365 0.57614 0.96737 0.0
C341 C 0.6095 0.58667 0.89448 0.0
C342 C 0.59203 0.56673 0.84676 0.0
C343 C 0.58997 0.53645 0.8706 0.0
C344 C 0.60497 0.52646 0.94374 0.0
H345 H 0.96769 0.68453 0.08165 0.0
H346 H 0.05867 0.7271 0.0974 0.0
H347 H 0.08234 0.6893 0.00197 0.0
H348 H 0.99751 0.60985 0.07388 0.0
H349 H 0.97201 0.59564 0.99691 0.0
H350 H 0.95758 0.62501 0.06481 0.0
H351 H 0.94311 0.66115 0.95193 0.0
H352 H 0.9558 0.63731 0.86731 0.0
H353 H 0.97252 0.67314 0.87867 0.0
H354 H 0.0935 0.64975 0.8916 0.0
H355 H 0.09385 0.60909 0.79096 0.0
H356 H 0.99511 0.59148 0.85052 0.0
C357 C 0.99291 0.68516 0.06752 0.0
C358 C 0.01161 0.70816 0.09834 0.0
C359 C 0.04424 0.70904 0.07623 0.0
C360 C 0.05773 0.68788 0.02141 0.0
C361 C 0.03824 0.66595 0.98999 0.0
C362 C 0.00673 0.66425 0.01359 0.0
C363 C 0.99031 0.63985 0.96795 0.0
C364 C 0.97849 0.61624 0.02934 0.0
C365 C 0.96375 0.65352 0.91364 0.0
C366 C 0.01727 0.62751 0.91522 0.0
C367 C 0.04468 0.6432 0.92788 0.0
C368 C 0.07227 0.63705 0.88263 0.0
C369 C 0.07204 0.61386 0.82497 0.0
C370 C 0.04447 0.59664 0.8127 0.0
C371 C 0.01662 0.60391 0.85833 0.0
H372 H 0.97212 0.19403 0.34766 0.0
H373 H 0.07089 0.19962 0.41868 0.0
H374 H 0.06753 0.15082 0.49012 0.0
H375 H 0.9421 0.15264 0.53434 0.0
H376 H 0.91652 0.13049 0.47192 0.0
H377 H 0.92519 0.16812 0.44106 0.0
H378 H 0.94479 0.14822 0.2994 0.0
H379 H 0.93761 0.11034 0.33069 0.0
H380 H 0.97665 0.12055 0.2955 0.0
H381 H 0.05782 0.09857 0.51451 0.0
H382 H 0.03857 0.04871 0.54658 0.0
H383 H 0.9431 0.0775 0.47459 0.0
C384 C 0.99238 0.18556 0.38238 0.0
C385 C 0.02159 0.20031 0.38003 0.0
C386 C 0.04831 0.18853 0.42203 0.0
C387 C 0.04662 0.16085 0.46163 0.0
C388 C 0.01807 0.14574 0.45768 0.0
C389 C 0.99106 0.15796 0.42183 0.0
C390 C 0.96434 0.13585 0.42037 0.0
C391 C 0.93532 0.14746 0.46997 0.0
C392 C 0.95531 0.12832 0.33121 0.0
C393 C 0.98059 0.1093 0.46168 0.0
C394 C 0.01183 0.11542 0.47933 0.0
C395 C 0.03319 0.09361 0.50593 0.0
C396 C 0.02191 0.06531 0.52241 0.0
C397 C 0.98894 0.05951 0.51678 0.0
C398 C 0.96825 0.08137 0.4816 0.0
H399 H 0.34525 0.13756 0.37808 0.0
H400 H 0.26253 0.09177 0.47258 0.0
H401 H 0.29685 0.05777 0.55008 0.0
H402 H 0.38849 0.08217 0.33056 0.0
H403 H 0.42731 0.09189 0.36629 0.0
H404 H 0.39843 0.1208 0.34291 0.0
H405 H 0.40159 0.14293 0.4881 0.0
H406 H 0.4318 0.11542 0.5149 0.0
H407 H 0.3965 0.11933 0.57746 0.0
H408 H 0.33724 0.01874 0.571 0.0
H409 H 0.38456 0.98555 0.58058 0.0
H410 H 0.44288 0.0555 0.48002 0.0
C411 C 0.33439 0.12161 0.41927 0.0
C412 C 0.30123 0.11717 0.41719 0.0
C413 C 0.28778 0.09601 0.4722 0.0
C414 C 0.30719 0.0761 0.51637 0.0
C415 C 0.33989 0.0784 0.5078 0.0
C416 C 0.35358 0.10157 0.4647 0.0
C417 C 0.3894 0.09698 0.45924 0.0
C418 C 0.40158 0.09802 0.36943 0.0
C419 C 0.4058 0.12002 0.51305 0.0
C420 C 0.39292 0.06592 0.49602 0.0
C421 C 0.36405 0.05591 0.52469 0.0
C422 C 0.36028 0.02673 0.55216 0.0
C423 C 0.38716 0.0078 0.55525 0.0
C424 C 0.41743 0.01813 0.53116 0.0
C425 C 0.42018 0.04739 0.50002 0.0
H426 H 0.55352 0.32399 0.31776 0.0
H427 H 0.45265 0.31224 0.36034 0.0
H428 H 0.44826 0.36239 0.42159 0.0
H429 H 0.56671 0.36154 0.51077 0.0
H430 H 0.59609 0.386 0.46806 0.0
H431 H 0.59084 0.34977 0.42382 0.0
H432 H 0.58157 0.37489 0.28114 0.0
H433 H 0.58582 0.41131 0.32571 0.0
H434 H 0.55029 0.40288 0.26994 0.0
H435 H 0.45314 0.41466 0.46376 0.0
H436 H 0.46983 0.45966 0.53379 0.0
H437 H 0.56886 0.43616 0.48093 0.0
C438 C 0.53068 0.3321 0.34101 0.0
C439 C 0.50333 0.31477 0.33497 0.0
C440 C 0.47372 0.32553 0.36539 0.0
C441 C 0.4709 0.35407 0.39858 0.0
C442 C 0.49792 0.3713 0.40074 0.0
C443 C 0.5275 0.36043 0.37592 0.0
C444 C 0.55315 0.38261 0.39323 0.0
C445 C 0.57816 0.36919 0.45255 0.0
C446 C 0.56862 0.39356 0.31269 0.0
C447 C 0.53329 0.4073 0.43329 0.0
C448 C 0.50136 0.4007 0.43326 0.0
C449 C 0.47809 0.41992 0.46545 0.0
C450 C 0.48789 0.4456 0.50465 0.0
C451 C 0.52072 0.45109 0.5146 0.0
C452 C 0.54363 0.43254 0.47451 0.0
H453 H 0.22214 0.41691 0.46663 0.0
H454 H 0.17011 0.3502 0.33476 0.0
H455 H 0.11979 0.37342 0.38296 0.0
H456 H 0.15714 0.427 0.64422 0.0
H457 H 0.1668 0.46588 0.64912 0.0
H458 H 0.19765 0.43815 0.62848 0.0
H459 H 0.21259 0.46798 0.49748 0.0
H460 H 0.18045 0.49455 0.51294 0.0
H461 H 0.18333 0.47399 0.41788 0.0
H462 H 0.0799 0.4144 0.39413 0.0
H463 H 0.04399 0.45732 0.43489 0.0
H464 H 0.12238 0.49634 0.56293 0.0
C465 C 0.2004 0.40558 0.45304 0.0
C466 C 0.1999 0.38266 0.39342 0.0
C467 C 0.17089 0.36837 0.37836 0.0
C468 C 0.14213 0.38162 0.40486 0.0
C469 C 0.14331 0.40755 0.45146 0.0
C470 C 0.17159 0.41817 0.48082 0.0
C471 C 0.16642 0.4479 0.52385 0.0
C472 C 0.17234 0.44453 0.61694 0.0
C473 C 0.18692 0.47252 0.48567 0.0
C474 C 0.13155 0.45361 0.5065 0.0
C475 C 0.11877 0.43012 0.46469 0.0
C476 C 0.08819 0.43185 0.43305 0.0
C477 C 0.06865 0.45654 0.4534 0.0
C478 C 0.08063 0.47981 0.50092 0.0
C479 C 0.11278 0.47884 0.52548 0.0
H480 H 0.99034 0.79018 0.96946 0.0
H481 H 0.91604 0.82387 0.13362 0.0
H482 H 0.9271 0.87516 0.08849 0.0
H483 H 0.04374 0.83367 0.01024 0.0
H484 H 0.06072 0.84192 0.91042 0.0
H485 H 0.04017 0.80777 0.92629 0.0
H486 H 1.00079 0.81977 0.80881 0.0
H487 H 0.02235 0.8532 0.78687 0.0
H488 H 0.98005 0.85544 0.80588 0.0
H489 H 0.95667 0.92193 0.05775 0.0
H490 H 0.9926 0.9616 0.01003 0.0
H491 H 0.04883 0.89581 0.87384 0.0
C492 C 0.97466 0.80797 0.99152 0.0
C493 C 0.9533 0.8032 0.05769 0.0
C494 C 0.93318 0.82719 0.08436 0.0
C495 C 0.93947 0.85646 0.05956 0.0
C496 C 0.9645 0.86083 0.00434 0.0
C497 C 0.98056 0.83716 0.96681 0.0
C498 C 0.00877 0.84762 0.91684 0.0
C499 C 0.04016 0.8318 0.94263 0.0
C500 C 1.00263 0.8438 0.82412 0.0
C501 C 0.00819 0.88015 0.94013 0.0
C502 C 0.98203 0.88762 0.98854 0.0
C503 C 0.97695 0.91643 0.01864 0.0
C504 C 0.99789 0.93864 0.99328 0.0
C505 C 0.02403 0.93155 0.94076 0.0
C506 C 0.02978 0.90171 0.91663 0.0
H507 H 0.67973 0.9173 0.16313 0.0
H508 H 0.70676 0.85308 0.97459 0.0
H509 H 0.6622 0.8727 0.88725 0.0
H510 H 0.59198 0.9164 0.13022 0.0
H511 H 0.58963 0.95544 0.15626 0.0
H512 H 0.61979 0.9313 0.2017 0.0
H513 H 0.66201 0.96941 0.14599 0.0
H514 H 0.63112 0.99138 0.09696 0.0
H515 H 0.66409 0.97664 0.03665 0.0
H516 H 0.61564 0.9012 0.82171 0.0
H517 H 0.57556 0.93868 0.77565 0.0
H518 H 0.58303 0.98546 0.00769 0.0
C519 C 0.67578 0.90661 0.10446 0.0
C520 C 0.69585 0.88306 0.07622 0.0
C521 C 0.69103 0.87072 -0.00245 0.0
C522 C 0.66583 0.88163 0.94819 0.0
C523 C 0.64628 0.90481 0.97903 0.0
C524 C 0.65121 0.91712 0.05535 0.0
C525 C 0.62908 0.94337 0.07279 0.0
C526 C 0.60627 0.93624 0.1445 0.0
C527 C 0.64769 0.97187 0.089 0.0
C528 C 0.61161 0.94512 0.99247 0.0
C529 C 0.62106 0.92213 0.94014 0.0
C530 C 0.60806 0.91914 0.86233 0.0
C531 C 0.58523 0.94044 0.83713 0.0
C532 C 0.57631 0.96475 0.8889 0.0
C533 C 0.58946 0.967 0.96758 0.0
H534 H 0.55735 0.66239 0.14213 0.0
H535 H 0.51172 0.72774 0.97856 0.0
H536 H 0.48812 0.68766 0.90223 0.0
H537 H 0.56306 0.5981 0.99566 0.0
H538 H 0.55302 0.5723 0.07653 0.0
H539 H 0.57456 0.6055 0.10029 0.0
H540 H 0.52945 0.61934 0.20598 0.0
H541 H 0.5072 0.58724 0.1775 0.0
H542 H 0.48922 0.62408 0.16939 0.0
H543 H 0.45761 0.6436 0.86734 0.0
H544 H 0.43467 0.59433 0.84725 0.0
H545 H 0.49697 0.55646 0.03478 0.0
C546 C 0.54303 0.66842 0.08916 0.0
C547 C 0.53574 0.69869 0.06945 0.0
C548 C 0.51801 0.70512 0.99681 0.0
C549 C 0.5038 0.68235 0.95315 0.0
C550 C 0.5075 0.65332 0.98255 0.0
C551 C 0.52742 0.64604 0.04719 0.0
C552 C 0.5242 0.61362 0.07265 0.0
C553 C 0.55569 0.59629 0.06094 0.0
C554 C 0.51181 0.61091 0.16174 0.0
C555 C 0.4995 0.60389 0.01179 0.0
C556 C 0.48977 0.62742 0.96176 0.0
C557 C 0.46549 0.62482 0.90491 0.0
C558 C 0.45215 0.59688 0.89527 0.0
C559 C 0.46373 0.57179 0.94062 0.0
C560 C 0.48732 0.57543 0.00069 0.0
H561 H 0.84219 0.62023 0.06273 0.0
H562 H 0.76345 0.56655 0.98539 0.0
H563 H 0.80079 0.53243 0.91351 0.0
H564 H 0.88961 0.60736 0.87724 0.0
H565 H 0.92735 0.60178 0.92467 0.0
H566 H 0.89856 0.62798 0.96898 0.0
H567 H 0.89619 0.60395 0.10886 0.0
H568 H 0.92745 0.57742 0.08226 0.0
H569 H 0.88984 0.56449 0.11932 0.0
H570 H 0.84697 0.49825 0.87951 0.0
H571 H 0.89885 0.47332 0.85096 0.0
H572 H 0.94743 0.54902 0.95071 0.0
C573 C 0.83273 0.60204 0.02762 0.0
C574 C 0.80009 0.59593 0.03022 0.0
C575 C 0.78843 0.57191 0.9836 0.0
C576 C 0.80949 0.55202 0.94375 0.0
C577 C 0.84188 0.55679 0.95068 0.0
C578 C 0.85334 0.58168 0.98901 0.0
C579 C 0.88909 0.58088 0.99148 0.0
C580 C 0.9019 0.60614 0.93771 0.0
C581 C 0.90136 0.5818 0.08068 0.0
C582 C 0.8961 0.55095 0.95285 0.0
C583 C 0.86849 0.53733 0.92979 0.0
C584 C 0.8688 0.5089 0.8961 0.0
C585 C 0.89834 0.4947 0.88177 0.0
C586 C 0.92697 0.50921 0.90031 0.0
C587 C 0.9258 0.53742 0.93747 0.0
H588 H 0.06577 0.18439 0.1128 0.0
H589 H 0.989 0.2447 0.03472 0.0
H590 H 0.97835 0.21145 0.91899 0.0
H591 H 0.08797 0.15049 0.90696 0.0
H592 H 0.09237 0.11381 0.95232 0.0
H593 H 0.10125 0.14633 0.01194 0.0
H594 H 0.06176 0.12934 0.12494 0.0
H595 H 0.0522 0.09715 0.06536 0.0
H596 H 0.02099 0.1229 0.09805 0.0
H597 H 0.96847 0.16837 0.83086 0.0
H598 H 0.95994 0.11912 0.77309 0.0
H599 H 0.03802 0.08188 0.91842 0.0
C600 C 0.0471 0.19108 0.07046 0.0
C601 C 0.02799 0.21732 0.08433 0.0
C602 C 0.00438 0.22523 0.02584 0.0
C603 C 0.99792 0.20619 0.95997 0.0
C604 C 0.01508 0.17919 0.95348 0.0
C605 C 0.03936 0.17163 0.00686 0.0
C606 C 0.05038 0.13923 0.99553 0.0
C607 C 0.08506 0.13737 0.96483 0.0
C608 C 0.04606 0.1211 0.07571 0.0
C609 C 0.02764 0.12941 0.92927 0.0
C610 C 0.00812 0.15317 0.90495 0.0
C611 C 0.98386 0.14973 0.84866 0.0
C612 C 0.97907 0.12137 0.81677 0.0
C613 C 0.99812 0.09624 0.8415 0.0
C614 C 0.02319 0.10052 0.89773 0.0
H615 H 0.30387 0.11775 0.05665 0.0
H616 H 0.29763 0.04406 0.22971 0.0
H617 H 0.34016 0.01665 0.15336 0.0
H618 H 0.31786 0.07039 0.87188 0.0
H619 H 0.34467 0.09636 0.82481 0.0
H620 H 0.31317 0.10978 0.89207 0.0
H621 H 0.35484 0.13591 0.98118 0.0
H622 H 0.38656 0.12192 0.91544 0.0
H623 H 0.38737 0.11421 0.02466 0.0
H624 H 0.38646 -0.00075 0.06723 0.0
H625 H 0.42613 0.98749 0.95805 0.0
H626 H 0.40022 0.06974 0.83066 0.0
C627 C 0.31068 0.09537 0.07625 0.0
C628 C 0.29684 0.08257 0.14776 0.0
C629 C 0.3072 0.05374 0.17362 0.0
C630 C 0.3317 0.03826 0.1314 0.0
C631 C 0.34544 0.05169 0.06248 0.0
C632 C 0.33472 0.07917 0.0333 0.0
C633 C 0.35323 0.08798 0.95609 0.0
C634 C 0.3309 0.09131 0.8818 0.0
C635 C 0.37158 0.11671 0.97023 0.0
C636 C 0.37592 0.06116 0.94663 0.0
C637 C 0.37146 0.04093 0.01017 0.0
C638 C 0.38996 0.01477 0.01677 0.0
C639 C 0.41267 0.00842 0.95502 0.0
C640 C 0.41654 0.02787 0.88688 0.0
C641 C 0.39813 0.05477 0.88301 0.0
H642 H 0.53397 0.27584 0.02131 0.0
H643 H 0.43561 0.28021 0.10032 0.0
H644 H 0.4259 0.32377 0.00968 0.0
H645 H 0.54873 0.3447 0.03384 0.0
H646 H 0.57328 0.35025 0.9436 0.0
H647 H 0.57075 0.31374 0.98863 0.0
H648 H 0.55166 0.29147 0.85149 0.0
H649 H 0.55578 0.32762 0.80365 0.0
H650 H 0.51847 0.30882 0.79835 0.0
H651 H 0.43153 0.37535 0.94508 0.0
H652 H 0.44923 0.42367 0.88752 0.0
H653 H 0.54393 0.38491 0.85045 0.0
C654 C 0.5098 0.28431 0.01365 0.0
C655 C 0.48549 0.27439 0.06699 0.0
C656 C 0.45437 0.28691 0.05838 0.0
C657 C 0.44882 0.31219 0.00819 0.0
C658 C 0.47435 0.32384 0.96412 0.0
C659 C 0.50394 0.30944 0.96328 0.0
C660 C 0.52836 0.32819 0.91909 0.0
C661 C 0.55692 0.33459 0.97467 0.0
C662 C 0.53921 0.31313 0.83835 0.0
C663 C 0.5087 0.35628 0.90176 0.0
C664 C 0.47746 0.35334 0.92667 0.0
C665 C 0.45574 0.37751 0.92295 0.0
C666 C 0.46607 0.40501 0.89099 0.0
C667 C 0.49796 0.40825 0.86398 0.0
C668 C 0.5193 0.38336 0.86979 0.0
H669 H 0.19331 0.38061 0.06903 0.0
H670 H 0.22318 0.46511 0.16703 0.0
H671 H 0.18093 0.49133 0.0881 0.0
H672 H 0.1737 0.40916 0.86055 0.0
H673 H 0.14 0.38541 0.85073 0.0
H674 H 0.17337 0.37354 0.91288 0.0
H675 H 0.13499 0.36608 0.03675 0.0
H676 H 0.10165 0.37884 0.97558 0.0
H677 H 0.11016 0.39697 0.07148 0.0
H678 H 0.13267 0.50785 0.01184 0.0
H679 H 0.08935 0.51631 0.91248 0.0
H680 H 0.09195 0.42225 0.85143 0.0
C681 C 0.19163 0.40475 0.07127 0.0
C682 C 0.21203 0.42092 0.12302 0.0
C683 C 0.20853 0.45237 0.1262 0.0
C684 C 0.18416 0.46738 0.08279 0.0
C685 C 0.16367 0.45071 0.03538 0.0
C686 C 0.16769 0.42023 0.02693 0.0
C687 C 0.14265 0.40797 0.96977 0.0
C688 C 0.15837 0.39315 0.89396 0.0
C689 C 0.12109 0.38617 0.01618 0.0
C690 C 0.12429 0.43646 0.94642 0.0
C691 C 0.13635 0.46058 0.98755 0.0
C692 C 0.12327 0.48922 0.97862 0.0
C693 C 0.09842 0.49373 0.92271 0.0
C694 C 0.0871 0.46994 0.87509 0.0
C695 C 0.09971 0.44071 0.88827 0.0
H696 H 0.02836 0.81735 0.25928 0.0
H697 H 0.96756 0.76036 0.40388 0.0
H698 H 0.96795 0.79678 0.51846 0.0
H699 H 0.07575 0.84798 0.42929 0.0
H700 H 0.07592 0.88447 0.38183 0.0
H701 H 0.07425 0.85169 0.31857 0.0
H702 H 0.02329 0.87371 0.25014 0.0
H703 H 0.02406 0.90603 0.31536 0.0
H704 H 0.98922 0.88346 0.31357 0.0
H705 H 0.96943 0.84299 0.60941 0.0
H706 H 0.97949 0.89103 0.67875 0.0
H707 H 0.03953 0.9173 0.47393 0.0
C708 C 0.01663 0.81184 0.31697 0.0
C709 C 0.99892 0.78556 0.32438 0.0
C710 C 0.98224 0.7798 0.39859 0.0
C711 C 0.98189 0.80064 0.46319 0.0
C712 C 0.99818 0.82716 0.45206 0.0
C713 C 0.01578 0.83251 0.38131 0.0
C714 C 0.02945 0.86346 0.38175 0.0
C715 C 0.06602 0.86179 0.37769 0.0
C716 C 0.01569 0.88279 0.31102 0.0
C717 C 0.01745 0.87454 0.4647 0.0
C718 C 0.99886 0.85358 0.50365 0.0
C719 C 0.98417 0.85939 0.57968 0.0
C720 C 0.98966 0.88681 0.6182 0.0
C721 C 0.00998 0.90775 0.58114 0.0
C722 C 0.02367 0.90165 0.50306 0.0
H723 H 0.71998 0.94139 0.32235 0.0
H724 H 0.70744 0.84852 0.38674 0.0
H725 H 0.66066 0.86256 0.47268 0.0
H726 H 0.69375 0.97135 0.53087 0.0
H727 H 0.67522 0.00394 0.48419 0.0
H728 H 0.7098 0.98655 0.43654 0.0
H729 H 0.67824 0.98163 0.30055 0.0
H730 H 0.64362 -0.00147 0.34908 0.0
H731 H 0.64112 0.96239 0.30237 0.0
H732 H 0.60974 0.88608 0.53276 0.0
H733 H 0.56692 0.91868 0.59244 0.0
H734 H 0.6143 -0.00359 0.49623 0.0
C735 C 0.70857 0.92424 0.35853 0.0
C736 C 0.71789 0.89386 0.34911 0.0
C737 C 0.70131 0.87195 0.39477 0.0
C738 C 0.67428 0.87969 0.44244 0.0
C739 C 0.66438 0.90959 0.44564 0.0
C740 C 0.68174 0.93167 0.40758 0.0
C741 C 0.66586 0.96213 0.42068 0.0
C742 C 0.68744 0.98218 0.4711 0.0
C743 C 0.6567 0.97703 0.33823 0.0
C744 C 0.63648 0.9536 0.46974 0.0
C745 C 0.63578 0.92315 0.48262 0.0
C746 C 0.61031 0.91002 0.52399 0.0
C747 C 0.58578 0.92862 0.55653 0.0
C748 C 0.58708 0.96001 0.54833 0.0
C749 C 0.61252 0.97245 0.50291 0.0
H750 H 0.46861 0.69336 0.29707 0.0
H751 H 0.54253 0.74034 0.42239 0.0
H752 H 0.53904 0.70489 0.53984 0.0
H753 H 0.42183 0.6707 0.4867 0.0
H754 H 0.41333 0.63505 0.44221 0.0
H755 H 0.41778 0.66729 0.37657 0.0
H756 H 0.4606 0.63827 0.2933 0.0
H757 H 0.45774 0.60627 0.36012 0.0
H758 H 0.49562 0.62345 0.34446 0.0
H759 H 0.53463 0.65886 0.63016 0.0
H760 H 0.52266 0.61076 0.699 0.0
H761 H 0.45017 0.59475 0.51744 0.0
C762 C 0.48269 0.69715 0.35151 0.0
C763 C 0.50518 0.72012 0.35217 0.0
C764 C 0.52448 0.72353 0.42219 0.0
C765 C 0.52293 0.70321 0.4885 0.0
C766 C 0.50181 0.67975 0.48384 0.0
C767 C 0.48137 0.67709 0.41807 0.0
C768 C 0.4626 0.64868 0.42488 0.0
C769 C 0.42676 0.65587 0.43314 0.0
C770 C 0.46959 0.62795 0.35131 0.0
C771 C 0.47602 0.63553 0.50396 0.0
C772 C 0.49886 0.65358 0.53662 0.0
C773 C 0.51633 0.64488 0.60602 0.0
C774 C 0.50969 0.61744 0.64416 0.0
C775 C 0.48556 0.59929 0.61336 0.0
C776 C 0.46859 0.60845 0.54238 0.0
H777 H 0.80603 0.54979 0.2746 0.0
H778 H 0.77871 0.63353 0.38975 0.0
H779 H 0.81995 0.62449 0.49667 0.0
H780 H 0.82802 0.50699 0.46224 0.0
H781 H 0.86122 0.4887 0.41058 0.0
H782 H 0.82653 0.5002 0.35289 0.0
H783 H 0.86252 0.53015 0.25374 0.0
H784 H 0.8972 0.51958 0.31258 0.0
H785 H 0.88747 0.55848 0.29479 0.0
H786 H 0.86818 0.60761 0.58425 0.0
H787 H 0.91445 0.58229 0.65165 0.0
H788 H 0.91156 0.51117 0.47294 0.0
C789 C 0.80774 0.56554 0.32469 0.0
C790 C 0.78845 0.59195 0.32548 0.0
C791 C 0.7924 0.61272 0.38965 0.0
C792 C 0.81617 0.60794 0.44973 0.0
C793 C 0.83596 0.5824 0.44427 0.0
C794 C 0.83161 0.56136 0.3838 0.0
C795 C 0.85716 0.53683 0.38717 0.0
C796 C 0.84235 0.50638 0.40428 0.0
C797 C 0.87726 0.53624 0.30734 0.0
C798 C 0.87656 0.54704 0.45966 0.0
C799 C 0.86413 0.57347 0.49162 0.0
C800 C 0.87806 0.587 0.55929 0.0
C801 C 0.90458 0.57271 0.59661 0.0
C802 C 0.91717 0.54536 0.56577 0.0
C803 C 0.90305 0.53258 0.49604 0.0
loop_
_geom_bond_atom_site_label_1
_geom_bond_atom_site_label_2
_geom_bond_distance
_geom_bond_site_symmetry_2
_ccdc_geom_bond_type
H0 C3 0.931 . S
H1 C6 0.928 1_556 S
H2 C8 0.930 . S
C3 H0 0.931 . S
C3 C4 1.413 . S
C3 C5 1.360 . S
C4 C3 1.413 . S
C4 C8 1.429 . S
C5 C3 1.360 . S
C5 C6 1.372 . S
C6 H1 0.928 1_554 S
C6 C5 1.372 . S
C6 C7 1.404 . S
C7 C6 1.404 . S
C7 C8 1.391 . S
C8 H2 0.930 . S
C8 C4 1.429 . S
C8 C7 1.391 . S
H9 C12 0.931 . S
H10 C15 0.928 1_556 S
H11 C17 0.930 . S
C12 H9 0.931 . S
C12 C13 1.413 . S
C12 C14 1.360 . S
C13 C12 1.413 . S
C13 C17 1.429 1_655 S
C14 C12 1.360 . S
C14 C15 1.373 . S
C15 H10 0.928 1_554 S
C15 C14 1.373 . S
C15 C16 1.404 . S
C16 C15 1.404 . S
C16 C17 1.390 1_655 S
C17 H11 0.930 . S
C17 C13 1.429 1_455 S
C17 C16 1.390 1_455 S
H18 C21 0.931 . S
H19 C24 0.928 1_556 S
H20 C26 0.930 . S
C21 H18 0.931 . S
C21 C22 1.413 . S
C21 C23 1.360 . S
C22 C21 1.413 . S
C22 C26 1.429 . S
C23 C21 1.360 . S
C23 C24 1.372 . S
C24 H19 0.928 1_554 S
C24 C23 1.372 . S
C24 C25 1.404 . S
C25 C24 1.404 . S
C25 C26 1.391 . S
C26 H20 0.930 . S
C26 C22 1.429 . S
C26 C25 1.391 . S
H27 C30 0.931 . S
H28 C33 0.928 . S
H29 C35 0.930 1_556 S
C30 H27 0.931 . S
C30 C31 1.413 . S
C30 C32 1.360 . S
C31 C30 1.413 . S
C31 C35 1.429 . S
C32 C30 1.360 . S
C32 C33 1.372 . S
C33 H28 0.928 . S
C33 C32 1.372 . S
C33 C34 1.404 . S
C34 C33 1.404 . S
C34 C35 1.391 . S
C35 H29 0.930 1_554 S
C35 C31 1.429 . S
C35 C34 1.391 . S
H36 C39 0.931 . S
H37 C42 0.928 . S
H38 C44 0.930 . S
C39 H36 0.931 . S
C39 C40 1.413 . S
C39 C41 1.360 . S
C40 C39 1.413 . S
C40 C44 1.429 . S
C41 C39 1.360 . S
C41 C42 1.372 . S
C42 H37 0.928 . S
C42 C41 1.372 . S
C42 C43 1.404 . S
C43 C42 1.404 . S
C43 C44 1.391 . S
C44 H38 0.930 . S
C44 C40 1.429 . S
C44 C43 1.391 . S
H45 C48 0.930 . S
H46 C51 0.928 . S
H47 C53 0.929 . S
C48 H45 0.930 . S
C48 C49 1.413 . S
C48 C50 1.360 . S
C49 C48 1.413 . S
C49 C53 1.429 1_655 S
C50 C48 1.360 . S
C50 C51 1.372 . S
C51 H46 0.928 . S
C51 C50 1.372 . S
C51 C52 1.404 . S
C52 C51 1.404 . S
C52 C53 1.391 1_655 S
C53 H47 0.929 . S
C53 C49 1.429 1_455 S
C53 C52 1.391 1_455 S
H54 C57 0.931 . S
H55 C60 0.928 . S
H56 C62 0.930 . S
C57 H54 0.931 . S
C57 C58 1.413 . S
C57 C59 1.360 . S
C58 C57 1.413 . S
C58 C62 1.429 . S
C59 C57 1.360 . S
C59 C60 1.372 . S
C60 H55 0.928 . S
C60 C59 1.372 . S
C60 C61 1.404 . S
C61 C60 1.404 . S
C61 C62 1.391 . S
C62 H56 0.930 . S
C62 C58 1.429 . S
C62 C61 1.391 . S
H63 C66 0.931 . S
H64 C69 0.928 . S
H65 C71 0.930 . S
C66 H63 0.931 . S
C66 C67 1.413 . S
C66 C68 1.360 . S
C67 C66 1.413 . S
C67 C71 1.429 . S
C68 C66 1.360 . S
C68 C69 1.372 . S
C69 H64 0.928 . S
C69 C68 1.372 . S
C69 C70 1.404 . S
C70 C69 1.404 . S
C70 C71 1.391 . S
C71 H65 0.930 . S
C71 C67 1.429 . S
C71 C70 1.391 . S
O72 Mg73 1.990 . S
O72 C86 1.253 . S
Mg73 O72 1.990 . S
Mg73 O76 2.180 1_565 S
Mg73 O77 2.117 . S
Mg73 O91 2.030 . S
O74 Mg75 2.072 1_465 S
O74 C86 1.260 . S
Mg75 O74 2.072 1_645 S
Mg75 O76 2.099 1_655 S
Mg75 O78 2.079 . S
Mg75 O79 2.072 1_655 S
Mg75 O81 2.099 . S
Mg75 O92 2.079 1_545 S
O76 Mg73 2.180 1_545 S
O76 Mg75 2.099 1_455 S
O76 C87 1.279 . S
O77 Mg73 2.117 . S
O77 C87 1.250 1_565 S
O78 Mg75 2.079 . S
O78 C88 1.264 . S
O79 Mg75 2.072 1_455 S
O79 C89 1.260 . S
Mg80 O81 2.180 . S
Mg80 O82 2.030 . S
Mg80 O83 1.990 . S
Mg80 O84 2.117 . S
O81 Mg75 2.099 . S
O81 Mg80 2.180 . S
O81 C90 1.279 . S
O82 Mg80 2.030 . S
O82 C88 1.248 . S
O83 Mg80 1.990 . S
O83 C89 1.253 1_655 S
O84 Mg80 2.117 . S
O84 C90 1.250 . S
C85 O91 1.248 1_655 S
C85 O92 1.264 . S
C86 O72 1.253 . S
C86 O74 1.260 . S
C87 O76 1.279 . S
C87 O77 1.250 1_545 S
C88 O78 1.264 . S
C88 O82 1.248 . S
C89 O79 1.260 . S
C89 O83 1.253 1_455 S
C90 O81 1.279 . S
C90 O84 1.250 . S
O91 Mg73 2.030 . S
O91 C85 1.248 1_455 S
O92 Mg75 2.079 1_565 S
O92 C85 1.264 . S
O93 Mg94 1.990 1_545 S
O93 C107 1.253 . S
Mg94 O93 1.990 1_565 S
Mg94 O97 2.180 . S
Mg94 O98 2.117 . S
Mg94 O112 2.030 1_565 S
O95 Mg96 2.072 . S
O95 C107 1.260 . S
Mg96 O95 2.072 . S
Mg96 O97 2.099 1_545 S
Mg96 O99 2.079 1_545 S
Mg96 O100 2.072 1_545 S
Mg96 O102 2.099 . S
Mg96 O113 2.079 . S
O97 Mg94 2.180 . S
O97 Mg96 2.099 1_565 S
O97 C108 1.279 . S
O98 Mg94 2.117 . S
O98 C108 1.250 . S
O99 Mg96 2.079 1_565 S
O99 C109 1.264 . S
O100 Mg96 2.072 1_565 S
O100 C110 1.260 1_565 S
Mg101 O102 2.180 . S
Mg101 O103 2.030 1_545 S
Mg101 O104 1.990 . S
Mg101 O105 2.117 . S
O102 Mg96 2.099 . S
O102 Mg101 2.180 . S
O102 C111 1.279 . S
O103 Mg101 2.030 1_565 S
O103 C109 1.248 . S
O104 Mg101 1.990 . S
O104 C110 1.253 . S
O105 Mg101 2.117 . S
O105 C111 1.250 . S
C106 O112 1.248 . S
C106 O113 1.264 . S
C107 O93 1.253 . S
C107 O95 1.260 . S
C108 O97 1.279 . S
C108 O98 1.250 . S
C109 O99 1.264 . S
C109 O103 1.248 . S
C110 O100 1.260 1_545 S
C110 O104 1.253 . S
C111 O102 1.279 . S
C111 O105 1.250 . S
O112 Mg94 2.030 1_545 S
O112 C106 1.248 . S
O113 Mg96 2.079 . S
O113 C106 1.264 . S
O114 Mg115 1.990 . S
O114 C128 1.253 . S
Mg115 O114 1.990 . S
Mg115 O118 2.180 . S
Mg115 O119 2.117 . S
Mg115 O133 2.030 . S
O116 Mg117 2.072 . S
O116 C128 1.260 . S
Mg117 O116 2.072 . S
Mg117 O118 2.099 . S
Mg117 O120 2.079 . S
Mg117 O121 2.072 . S
Mg117 O123 2.099 . S
Mg117 O134 2.079 . S
O118 Mg115 2.180 . S
O118 Mg117 2.099 . S
O118 C129 1.279 . S
O119 Mg115 2.117 . S
O119 C129 1.250 . S
O120 Mg117 2.079 . S
O120 C130 1.264 . S
O121 Mg117 2.072 . S
O121 C131 1.260 . S
Mg122 O123 2.180 . S
Mg122 O124 2.030 . S
Mg122 O125 1.990 . S
Mg122 O126 2.117 . S
O123 Mg117 2.099 . S
O123 Mg122 2.180 . S
O123 C132 1.279 . S
O124 Mg122 2.030 . S
O124 C130 1.248 . S
O125 Mg122 1.990 . S
O125 C131 1.253 . S
O126 Mg122 2.117 . S
O126 C132 1.250 . S
C127 O133 1.248 . S
C127 O134 1.264 . S
C128 O114 1.253 . S
C128 O116 1.260 . S
C129 O118 1.279 . S
C129 O119 1.250 . S
C130 O120 1.264 . S
C130 O124 1.248 . S
C131 O121 1.260 . S
C131 O125 1.253 . S
C132 O123 1.279 . S
C132 O126 1.250 . S
O133 Mg115 2.030 . S
O133 C127 1.248 . S
O134 Mg117 2.079 . S
O134 C127 1.264 . S
O135 Mg136 1.990 . S
O135 C149 1.253 . S
Mg136 O135 1.990 . S
Mg136 O139 2.180 . S
Mg136 O140 2.117 . S
Mg136 O154 2.030 . S
O137 Mg138 2.072 1_655 S
O137 C149 1.260 . S
Mg138 O137 2.072 1_455 S
Mg138 O139 2.099 1_455 S
Mg138 O141 2.079 . S
Mg138 O142 2.072 . S
Mg138 O144 2.099 . S
Mg138 O155 2.079 1_455 S
O139 Mg136 2.180 . S
O139 Mg138 2.099 1_655 S
O139 C150 1.279 . S
O140 Mg136 2.117 . S
O140 C150 1.250 . S
O141 Mg138 2.079 . S
O141 C151 1.264 . S
O142 Mg138 2.072 . S
O142 C152 1.260 . S
Mg143 O144 2.180 . S
Mg143 O145 2.030 . S
Mg143 O146 1.990 . S
Mg143 O147 2.117 . S
O144 Mg138 2.099 . S
O144 Mg143 2.180 . S
O144 C153 1.279 . S
O145 Mg143 2.030 . S
O145 C151 1.248 . S
O146 Mg143 1.990 . S
O146 C152 1.253 . S
O147 Mg143 2.117 . S
O147 C153 1.250 . S
C148 O154 1.248 . S
C148 O155 1.264 . S
C149 O135 1.253 . S
C149 O137 1.260 . S
C150 O139 1.279 . S
C150 O140 1.250 . S
C151 O141 1.264 . S
C151 O145 1.248 . S
C152 O142 1.260 . S
C152 O146 1.253 . S
C153 O144 1.279 . S
C153 O147 1.250 . S
O154 Mg136 2.030 . S
O154 C148 1.248 . S
O155 Mg138 2.079 1_655 S
O155 C148 1.264 . S
H156 C168 0.930 . S
H157 C170 0.930 . S
H158 C171 0.930 . S
H159 C175 0.959 . S
H160 C175 0.959 . S
H161 C175 0.961 . S
H162 C176 0.960 . S
H163 C176 0.961 1_565 S
H164 C176 0.959 . S
H165 C179 0.929 . S
H166 C180 0.931 . S
H167 C182 0.930 . S
C168 H156 0.930 . S
C168 C169 1.399 . S
C168 C173 1.399 . S
C169 C168 1.399 . S
C169 C170 1.376 . S
C170 H157 0.930 . S
C170 C169 1.376 . S
C170 C171 1.388 . S
C171 H158 0.930 . S
C171 C170 1.388 . S
C171 C172 1.390 . S
C172 C171 1.390 . S
C172 C173 1.394 . S
C172 C178 1.465 . S
C173 C168 1.399 . S
C173 C172 1.394 . S
C173 C174 1.516 . S
C174 C173 1.516 . S
C174 C175 1.502 . S
C174 C176 1.561 . S
C174 C177 1.526 . S
C175 H159 0.959 . S
C175 H160 0.959 . S
C175 H161 0.961 . S
C175 C174 1.502 . S
C176 H162 0.960 . S
C176 H163 0.961 1_545 S
C176 H164 0.959 . S
C176 C174 1.561 . S
C177 C174 1.526 . S
C177 C178 1.396 . S
C177 C182 1.390 . S
C178 C172 1.465 . S
C178 C177 1.396 . S
C178 C179 1.399 . S
C179 H165 0.929 . S
C179 C178 1.399 . S
C179 C180 1.385 . S
C180 H166 0.931 . S
C180 C179 1.385 . S
C180 C181 1.389 . S
C181 C180 1.389 . S
C181 C182 1.387 . S
C182 H167 0.930 . S
C182 C177 1.390 . S
C182 C181 1.387 . S
H183 C195 0.930 . S
H184 C197 0.930 . S
H185 C198 0.930 . S
H186 C202 0.959 . S
H187 C202 0.959 . S
H188 C202 0.961 . S
H189 C203 0.960 . S
H190 C203 0.961 . S
H191 C203 0.959 . S
H192 C206 0.929 . S
H193 C207 0.931 . S
H194 C209 0.930 . S
C195 H183 0.930 . S
C195 C196 1.399 . S
C195 C200 1.399 . S
C196 C195 1.399 . S
C196 C197 1.376 . S
C197 H184 0.930 . S
C197 C196 1.376 . S
C197 C198 1.388 . S
C198 H185 0.930 . S
C198 C197 1.388 . S
C198 C199 1.390 . S
C199 C198 1.390 . S
C199 C200 1.394 . S
C199 C205 1.465 . S
C200 C195 1.399 . S
C200 C199 1.394 . S
C200 C201 1.516 . S
C201 C200 1.516 . S
C201 C202 1.502 . S
C201 C203 1.561 . S
C201 C204 1.526 . S
C202 H186 0.959 . S
C202 H187 0.959 . S
C202 H188 0.961 . S
C202 C201 1.502 . S
C203 H189 0.960 . S
C203 H190 0.961 . S
C203 H191 0.959 . S
C203 C201 1.561 . S
C204 C201 1.526 . S
C204 C205 1.396 . S
C204 C209 1.390 . S
C205 C199 1.465 . S
C205 C204 1.396 . S
C205 C206 1.399 . S
C206 H192 0.929 . S
C206 C205 1.399 . S
C206 C207 1.385 . S
C207 H193 0.931 . S
C207 C206 1.385 . S
C207 C208 1.389 . S
C208 C207 1.389 . S
C208 C209 1.387 . S
C209 H194 0.930 . S
C209 C204 1.390 . S
C209 C208 1.387 . S
H210 C222 0.930 . S
H211 C224 0.930 . S
H212 C225 0.930 . S
H213 C229 0.959 . S
H214 C229 0.959 . S
H215 C229 0.961 . S
H216 C230 0.960 . S
H217 C230 0.961 . S
H218 C230 0.959 . S
H219 C233 0.929 . S
H220 C234 0.931 . S
H221 C236 0.930 . S
C222 H210 0.930 . S
C222 C223 1.399 . S
C222 C227 1.399 . S
C223 C222 1.399 . S
C223 C224 1.376 . S
C224 H211 0.930 . S
C224 C223 1.376 . S
C224 C225 1.388 . S
C225 H212 0.930 . S
C225 C224 1.388 . S
C225 C226 1.390 . S
C226 C225 1.390 . S
C226 C227 1.394 . S
C226 C232 1.465 . S
C227 C222 1.399 . S
C227 C226 1.394 . S
C227 C228 1.516 . S
C228 C227 1.516 . S
C228 C229 1.502 . S
C228 C230 1.561 . S
C228 C231 1.526 . S
C229 H213 0.959 . S
C229 H214 0.959 . S
C229 H215 0.961 . S
C229 C228 1.502 . S
C230 H216 0.960 . S
C230 H217 0.961 . S
C230 H218 0.959 . S
C230 C228 1.561 . S
C231 C228 1.526 . S
C231 C232 1.396 . S
C231 C236 1.390 . S
C232 C226 1.465 . S
C232 C231 1.396 . S
C232 C233 1.399 . S
C233 H219 0.929 . S
C233 C232 1.399 . S
C233 C234 1.385 . S
C234 H220 0.931 . S
C234 C233 1.385 . S
C234 C235 1.389 . S
C235 C234 1.389 . S
C235 C236 1.387 . S
C236 H221 0.930 . S
C236 C231 1.390 . S
C236 C235 1.387 . S
H237 C249 0.930 . S
H238 C251 0.930 . S
H239 C252 0.930 . S
H240 C256 0.959 . S
H241 C256 0.959 . S
H242 C256 0.961 . S
H243 C257 0.960 . S
H244 C257 0.961 . S
H245 C257 0.959 . S
H246 C260 0.929 . S
H247 C261 0.931 . S
H248 C263 0.930 . S
C249 H237 0.930 . S
C249 C250 1.399 1_455 S
C249 C254 1.399 . S
C250 C249 1.399 1_655 S
C250 C251 1.376 . S
C251 H238 0.930 . S
C251 C250 1.376 . S
C251 C252 1.388 . S
C252 H239 0.930 . S
C252 C251 1.388 . S
C252 C253 1.390 . S
C253 C252 1.390 . S
C253 C254 1.394 1_655 S
C253 C259 1.465 . S
C254 C249 1.399 . S
C254 C253 1.394 1_455 S
C254 C255 1.516 . S
C255 C254 1.516 . S
C255 C256 1.502 . S
C255 C257 1.561 . S
C255 C258 1.526 . S
C256 H240 0.959 . S
C256 H241 0.959 . S
C256 H242 0.961 . S
C256 C255 1.502 . S
C257 H243 0.960 . S
C257 H244 0.961 . S
C257 H245 0.959 . S
C257 C255 1.561 . S
C258 C255 1.526 . S
C258 C259 1.396 1_455 S
C258 C263 1.390 . S
C259 C253 1.465 . S
C259 C258 1.396 1_655 S
C259 C260 1.399 . S
C260 H246 0.929 . S
C260 C259 1.399 . S
C260 C261 1.385 . S
C261 H247 0.931 . S
C261 C260 1.385 . S
C261 C262 1.389 . S
C262 C261 1.389 . S
C262 C263 1.387 1_655 S
C263 H248 0.930 . S
C263 C258 1.390 . S
C263 C262 1.387 1_455 S
H264 C276 0.930 . S
H265 C278 0.930 . S
H266 C279 0.930 . S
H267 C283 0.959 . S
H268 C283 0.959 . S
H269 C283 0.961 . S
H270 C284 0.960 . S
H271 C284 0.961 1_545 S
H272 C284 0.959 . S
H273 C287 0.929 . S
H274 C288 0.931 . S
H275 C290 0.930 1_545 S
C276 H264 0.930 . S
C276 C277 1.399 . S
C276 C281 1.399 1_554 S
C277 C276 1.399 . S
C277 C278 1.376 . S
C278 H265 0.930 . S
C278 C277 1.376 . S
C278 C279 1.388 1_554 S
C279 H266 0.930 . S
C279 C278 1.388 1_556 S
C279 C280 1.390 . S
C280 C279 1.390 . S
C280 C281 1.394 . S
C280 C286 1.465 . S
C281 C276 1.399 1_556 S
C281 C280 1.394 . S
C281 C282 1.516 . S
C282 C281 1.516 . S
C282 C283 1.502 1_565 S
C282 C284 1.561 1_556 S
C282 C285 1.526 . S
C283 H267 0.959 . S
C283 H268 0.959 . S
C283 H269 0.961 . S
C283 C282 1.502 1_545 S
C284 H270 0.960 . S
C284 H271 0.961 1_565 S
C284 H272 0.959 . S
C284 C282 1.561 1_554 S
C285 C282 1.526 . S
C285 C286 1.396 . S
C285 C290 1.390 . S
C286 C280 1.465 . S
C286 C285 1.396 . S
C286 C287 1.399 . S
C287 H273 0.929 . S
C287 C286 1.399 . S
C287 C288 1.385 . S
C288 H274 0.931 . S
C288 C287 1.385 . S
C288 C289 1.389 . S
C289 C288 1.389 . S
C289 C290 1.387 . S
C290 H275 0.930 1_565 S
C290 C285 1.390 . S
C290 C289 1.387 . S
H291 C303 0.930 . S
H292 C305 0.930 . S
H293 C306 0.930 . S
H294 C310 0.959 . S
H295 C310 0.959 . S
H296 C310 0.961 . S
H297 C311 0.960 . S
H298 C311 0.961 . S
H299 C311 0.959 . S
H300 C314 0.929 . S
H301 C315 0.931 . S
H302 C317 0.930 . S
C303 H291 0.930 . S
C303 C304 1.399 . S
C303 C308 1.399 . S
C304 C303 1.399 . S
C304 C305 1.376 1_554 S
C305 H292 0.930 . S
C305 C304 1.376 1_556 S
C305 C306 1.388 . S
C306 H293 0.930 . S
C306 C305 1.388 . S
C306 C307 1.390 . S
C307 C306 1.390 . S
C307 C308 1.394 1_556 S
C307 C313 1.465 . S
C308 C303 1.399 . S
C308 C307 1.394 1_554 S
C308 C309 1.516 . S
C309 C308 1.516 . S
C309 C310 1.502 . S
C309 C311 1.561 . S
C309 C312 1.526 1_554 S
C310 H294 0.959 . S
C310 H295 0.959 . S
C310 H296 0.961 . S
C310 C309 1.502 . S
C311 H297 0.960 . S
C311 H298 0.961 . S
C311 H299 0.959 . S
C311 C309 1.561 . S
C312 C309 1.526 1_556 S
C312 C313 1.396 . S
C312 C317 1.390 . S
C313 C307 1.465 . S
C313 C312 1.396 . S
C313 C314 1.399 . S
C314 H300 0.929 . S
C314 C313 1.399 . S
C314 C315 1.385 . S
C315 H301 0.931 . S
C315 C314 1.385 . S
C315 C316 1.389 . S
C316 C315 1.389 . S
C316 C317 1.387 . S
C317 H302 0.930 . S
C317 C312 1.390 . S
C317 C316 1.387 . S
H318 C330 0.930 . S
H319 C332 0.930 . S
H320 C333 0.930 . S
H321 C337 0.959 . S
H322 C337 0.959 . S
H323 C337 0.961 . S
H324 C338 0.960 . S
H325 C338 0.961 . S
H326 C338 0.959 . S
H327 C341 0.929 . S
H328 C342 0.931 . S
H329 C344 0.930 . S
C330 H318 0.930 . S
C330 C331 1.399 . S
C330 C335 1.399 . S
C331 C330 1.399 . S
C331 C332 1.376 1_554 S
C332 H319 0.930 . S
C332 C331 1.376 1_556 S
C332 C333 1.388 . S
C333 H320 0.930 . S
C333 C332 1.388 . S
C333 C334 1.390 . S
C334 C333 1.390 . S
C334 C335 1.394 1_556 S
C334 C340 1.465 . S
C335 C330 1.399 . S
C335 C334 1.394 1_554 S
C335 C336 1.516 . S
C336 C335 1.516 . S
C336 C337 1.502 . S
C336 C338 1.561 . S
C336 C339 1.526 1_554 S
C337 H321 0.959 . S
C337 H322 0.959 . S
C337 H323 0.961 . S
C337 C336 1.502 . S
C338 H324 0.960 . S
C338 H325 0.961 . S
C338 H326 0.959 . S
C338 C336 1.561 . S
C339 C336 1.526 1_556 S
C339 C340 1.396 . S
C339 C344 1.390 . S
C340 C334 1.465 . S
C340 C339 1.396 . S
C340 C341 1.399 . S
C341 H327 0.929 . S
C341 C340 1.399 . S
C341 C342 1.385 . S
C342 H328 0.931 . S
C342 C341 1.385 . S
C342 C343 1.389 . S
C343 C342 1.389 . S
C343 C344 1.387 . S
C344 H329 0.930 . S
C344 C339 1.390 . S
C344 C343 1.387 . S
H345 C357 0.930 . S
H346 C359 0.930 . S
H347 C360 0.930 . S
H348 C364 0.959 . S
H349 C364 0.959 . S
H350 C364 0.961 . S
H351 C365 0.960 . S
H352 C365 0.961 . S
H353 C365 0.959 . S
H354 C368 0.929 . S
H355 C369 0.931 . S
H356 C371 0.930 . S
C357 H345 0.930 . S
C357 C358 1.399 1_655 S
C357 C362 1.399 1_554 S
C358 C357 1.399 1_455 S
C358 C359 1.376 . S
C359 H346 0.930 . S
C359 C358 1.376 . S
C359 C360 1.388 1_554 S
C360 H347 0.930 . S
C360 C359 1.388 1_556 S
C360 C361 1.390 . S
C361 C360 1.390 . S
C361 C362 1.394 1_455 S
C361 C367 1.465 . S
C362 C357 1.399 1_556 S
C362 C361 1.394 1_655 S
C362 C363 1.516 . S
C363 C362 1.516 . S
C363 C364 1.502 1_556 S
C363 C365 1.561 . S
C363 C366 1.526 . S
C364 H348 0.959 . S
C364 H349 0.959 . S
C364 H350 0.961 . S
C364 C363 1.502 1_554 S
C365 H351 0.960 . S
C365 H352 0.961 . S
C365 H353 0.959 . S
C365 C363 1.561 . S
C366 C363 1.526 . S
C366 C367 1.396 1_655 S
C366 C371 1.390 . S
C367 C361 1.465 . S
C367 C366 1.396 1_455 S
C367 C368 1.399 . S
C368 H354 0.929 . S
C368 C367 1.399 . S
C368 C369 1.385 . S
C369 H355 0.931 . S
C369 C368 1.385 . S
C369 C370 1.389 . S
C370 C369 1.389 . S
C370 C371 1.387 1_455 S
C371 H356 0.930 . S
C371 C366 1.390 . S
C371 C370 1.387 1_655 S
H372 C384 0.930 . S
H373 C386 0.930 . S
H374 C387 0.930 . S
H375 C391 0.959 . S
H376 C391 0.959 . S
H377 C391 0.961 . S
H378 C392 0.960 . S
H379 C392 0.961 . S
H380 C392 0.967 . S
H381 C395 0.929 . S
H382 C396 0.931 . S
H383 C398 0.930 . S
C384 H372 0.930 . S
C384 C385 1.399 1_655 S
C384 C389 1.399 . S
C385 C384 1.399 1_455 S
C385 C386 1.376 . S
C386 H373 0.930 . S
C386 C385 1.376 . S
C386 C387 1.388 . S
C387 H374 0.930 . S
C387 C386 1.388 . S
C387 C388 1.390 . S
C388 C387 1.390 . S
C388 C389 1.394 1_455 S
C388 C394 1.470 . S
C389 C384 1.399 . S
C389 C388 1.394 1_655 S
C389 C390 1.516 . S
C390 C389 1.516 . S
C390 C391 1.502 . S
C390 C392 1.561 . S
C390 C393 1.526 . S
C391 H375 0.959 . S
C391 H376 0.959 . S
C391 H377 0.961 . S
C391 C390 1.502 . S
C392 H378 0.960 . S
C392 H379 0.961 . S
C392 H380 0.967 . S
C392 C390 1.561 . S
C393 C390 1.526 . S
C393 C394 1.376 1_655 S
C393 C398 1.390 . S
C394 C388 1.470 . S
C394 C393 1.376 1_455 S
C394 C395 1.411 . S
C395 H381 0.929 . S
C395 C394 1.411 . S
C395 C396 1.385 . S
C396 H382 0.931 . S
C396 C395 1.385 . S
C396 C397 1.389 1_455 S
C397 C396 1.389 1_655 S
C397 C398 1.387 . S
C398 H383 0.930 . S
C398 C393 1.390 . S
C398 C397 1.387 . S
H399 C411 0.930 . S
H400 C413 0.930 . S
H401 C414 0.930 . S
H402 C418 0.959 . S
H403 C418 0.959 . S
H404 C418 0.961 . S
H405 C419 0.960 . S
H406 C419 0.961 . S
H407 C419 0.959 . S
H408 C422 0.929 1_565 S
H409 C423 0.931 . S
H410 C425 0.930 . S
C411 H399 0.930 . S
C411 C412 1.399 . S
C411 C416 1.399 . S
C412 C411 1.399 . S
C412 C413 1.376 . S
C413 H400 0.930 . S
C413 C412 1.376 . S
C413 C414 1.388 . S
C414 H401 0.930 . S
C414 C413 1.388 . S
C414 C415 1.390 . S
C415 C414 1.390 . S
C415 C416 1.394 . S
C415 C421 1.465 . S
C416 C411 1.399 . S
C416 C415 1.394 . S
C416 C417 1.516 . S
C417 C416 1.516 . S
C417 C418 1.502 . S
C417 C419 1.561 . S
C417 C420 1.526 . S
C418 H402 0.959 . S
C418 H403 0.959 . S
C418 H404 0.961 . S
C418 C417 1.502 . S
C419 H405 0.960 . S
C419 H406 0.961 . S
C419 H407 0.959 . S
C419 C417 1.561 . S
C420 C417 1.526 . S
C420 C421 1.396 . S
C420 C425 1.390 . S
C421 C415 1.465 . S
C421 C420 1.396 . S
C421 C422 1.399 . S
C422 H408 0.929 1_545 S
C422 C421 1.399 . S
C422 C423 1.385 1_545 S
C423 H409 0.931 . S
C423 C422 1.385 1_565 S
C423 C424 1.389 1_565 S
C424 C423 1.389 1_545 S
C424 C425 1.387 . S
C425 H410 0.930 . S
C425 C420 1.390 . S
C425 C424 1.387 . S
H426 C438 0.930 . S
H427 C440 0.930 . S
H428 C441 0.930 . S
H429 C445 0.959 . S
H430 C445 0.959 . S
H431 C445 0.961 . S
H432 C446 0.960 . S
H433 C446 0.961 . S
H434 C446 0.959 . S
H435 C449 0.929 . S
H436 C450 0.931 . S
H437 C452 0.930 . S
C438 H426 0.930 . S
C438 C439 1.399 . S
C438 C443 1.399 . S
C439 C438 1.399 . S
C439 C440 1.376 . S
C440 H427 0.930 . S
C440 C439 1.376 . S
C440 C441 1.388 . S
C441 H428 0.930 . S
C441 C440 1.388 . S
C441 C442 1.390 . S
C442 C441 1.390 . S
C442 C443 1.394 . S
C442 C448 1.465 . S
C443 C438 1.399 . S
C443 C442 1.394 . S
C443 C444 1.516 . S
C444 C443 1.516 . S
C444 C445 1.502 . S
C444 C446 1.561 . S
C444 C447 1.526 . S
C445 H429 0.959 . S
C445 H430 0.959 . S
C445 H431 0.961 . S
C445 C444 1.502 . S
C446 H432 0.960 . S
C446 H433 0.961 . S
C446 H434 0.959 . S
C446 C444 1.561 . S
C447 C444 1.526 . S
C447 C448 1.396 . S
C447 C452 1.390 . S
C448 C442 1.465 . S
C448 C447 1.396 . S
C448 C449 1.399 . S
C449 H435 0.929 . S
C449 C448 1.399 . S
C449 C450 1.385 . S
C450 H436 0.931 . S
C450 C449 1.385 . S
C450 C451 1.389 . S
C451 C450 1.389 . S
C451 C452 1.387 . S
C452 H437 0.930 . S
C452 C447 1.390 . S
C452 C451 1.387 . S
H453 C465 0.930 . S
H454 C467 0.930 . S
H455 C468 0.930 . S
H456 C472 0.959 . S
H457 C472 0.959 . S
H458 C472 0.961 . S
H459 C473 0.960 . S
H460 C473 0.961 . S
H461 C473 0.959 . S
H462 C476 0.929 . S
H463 C477 0.931 . S
H464 C479 0.930 . S
C465 H453 0.930 . S
C465 C466 1.399 . S
C465 C470 1.399 . S
C466 C465 1.399 . S
C466 C467 1.376 . S
C467 H454 0.930 . S
C467 C466 1.376 . S
C467 C468 1.388 . S
C468 H455 0.930 . S
C468 C467 1.388 . S
C468 C469 1.390 . S
C469 C468 1.390 . S
C469 C470 1.394 . S
C469 C475 1.465 . S
C470 C465 1.399 . S
C470 C469 1.394 . S
C470 C471 1.516 . S
C471 C470 1.516 . S
C471 C472 1.502 . S
C471 C473 1.561 . S
C471 C474 1.526 . S
C472 H456 0.959 . S
C472 H457 0.959 . S
C472 H458 0.961 . S
C472 C471 1.502 . S
C473 H459 0.960 . S
C473 H460 0.961 . S
C473 H461 0.959 . S
C473 C471 1.561 . S
C474 C471 1.526 . S
C474 C475 1.396 . S
C474 C479 1.390 . S
C475 C469 1.465 . S
C475 C474 1.396 . S
C475 C476 1.399 . S
C476 H462 0.929 . S
C476 C475 1.399 . S
C476 C477 1.385 . S
C477 H463 0.931 . S
C477 C476 1.385 . S
C477 C478 1.389 . S
C478 C477 1.389 . S
C478 C479 1.387 . S
C479 H464 0.930 . S
C479 C474 1.390 . S
C479 C478 1.387 . S
H480 C492 0.930 . S
H481 C494 0.930 . S
H482 C495 0.930 . S
H483 C499 0.959 . S
H484 C499 0.959 . S
H485 C499 0.961 . S
H486 C500 0.960 . S
H487 C500 0.961 1_455 S
H488 C500 0.959 . S
H489 C503 0.929 1_554 S
H490 C504 0.931 1_655 S
H491 C506 0.930 . S
C492 H480 0.930 . S
C492 C493 1.399 1_456 S
C492 C497 1.399 . S
C493 C492 1.399 1_654 S
C493 C494 1.376 . S
C494 H481 0.930 . S
C494 C493 1.376 . S
C494 C495 1.388 . S
C495 H482 0.930 . S
C495 C494 1.388 . S
C495 C496 1.390 1_554 S
C496 C495 1.390 1_556 S
C496 C497 1.394 1_655 S
C496 C502 1.463 1_655 S
C497 C492 1.399 . S
C497 C496 1.394 1_455 S
C497 C498 1.516 . S
C498 C497 1.516 . S
C498 C499 1.502 . S
C498 C500 1.561 1_455 S
C498 C501 1.526 . S
C499 H483 0.959 . S
C499 H484 0.959 . S
C499 H485 0.961 . S
C499 C498 1.502 . S
C500 H486 0.960 . S
C500 H487 0.961 1_655 S
C500 H488 0.959 . S
C500 C498 1.561 1_655 S
C501 C498 1.526 . S
C501 C502 1.401 . S
C501 C506 1.390 . S
C502 C496 1.463 1_455 S
C502 C501 1.401 . S
C502 C503 1.396 1_455 S
C503 H489 0.929 1_556 S
C503 C502 1.396 1_655 S
C503 C504 1.385 1_655 S
C504 H490 0.931 1_455 S
C504 C503 1.385 1_455 S
C504 C505 1.389 . S
C505 C504 1.389 . S
C505 C506 1.387 . S
C506 H491 0.930 . S
C506 C501 1.390 . S
C506 C505 1.387 . S
H507 C519 0.930 . S
H508 C521 0.930 . S
H509 C522 0.930 . S
H510 C526 0.959 . S
H511 C526 0.959 . S
H512 C526 0.961 . S
H513 C527 0.960 . S
H514 C527 0.961 1_545 S
H515 C527 0.959 1_545 S
H516 C530 0.929 . S
H517 C531 0.931 . S
H518 C533 0.930 . S
C519 H507 0.930 . S
C519 C520 1.399 . S
C519 C524 1.399 1_554 S
C520 C519 1.399 . S
C520 C521 1.376 1_554 S
C521 H508 0.930 . S
C521 C520 1.376 1_556 S
C521 C522 1.388 . S
C522 H509 0.930 . S
C522 C521 1.388 . S
C522 C523 1.390 . S
C523 C522 1.390 . S
C523 C524 1.394 . S
C523 C529 1.465 . S
C524 C519 1.399 1_556 S
C524 C523 1.394 . S
C524 C525 1.516 1_556 S
C525 C524 1.516 1_554 S
C525 C526 1.502 . S
C525 C527 1.561 . S
C525 C528 1.526 1_554 S
C526 H510 0.959 . S
C526 H511 0.959 . S
C526 H512 0.961 . S
C526 C525 1.502 . S
C527 H513 0.960 . S
C527 H514 0.961 1_565 S
C527 H515 0.959 1_565 S
C527 C525 1.561 . S
C528 C525 1.526 1_556 S
C528 C529 1.396 . S
C528 C533 1.390 . S
C529 C523 1.465 . S
C529 C528 1.396 . S
C529 C530 1.399 . S
C530 H516 0.929 . S
C530 C529 1.399 . S
C530 C531 1.385 . S
C531 H517 0.931 . S
C531 C530 1.385 . S
C531 C532 1.389 . S
C532 C531 1.389 . S
C532 C533 1.387 . S
C533 H518 0.930 . S
C533 C528 1.390 . S
C533 C532 1.387 . S
H534 C546 0.930 . S
H535 C548 0.930 . S
H536 C549 0.930 . S
H537 C553 0.959 1_556 S
H538 C553 0.959 . S
H539 C553 0.961 . S
H540 C554 0.960 . S
H541 C554 0.961 . S
H542 C554 0.959 . S
H543 C557 0.929 . S
H544 C558 0.931 . S
H545 C560 0.930 . S
C546 H534 0.930 . S
C546 C547 1.399 . S
C546 C551 1.399 . S
C547 C546 1.399 . S
C547 C548 1.376 1_554 S
C548 H535 0.930 . S
C548 C547 1.376 1_556 S
C548 C549 1.388 . S
C549 H536 0.930 . S
C549 C548 1.388 . S
C549 C550 1.390 . S
C550 C549 1.390 . S
C550 C551 1.394 1_556 S
C550 C556 1.465 . S
C551 C546 1.399 . S
C551 C550 1.394 1_554 S
C551 C552 1.516 . S
C552 C551 1.516 . S
C552 C553 1.502 . S
C552 C554 1.561 . S
C552 C555 1.526 1_554 S
C553 H537 0.959 1_554 S
C553 H538 0.959 . S
C553 H539 0.961 . S
C553 C552 1.502 . S
C554 H540 0.960 . S
C554 H541 0.961 . S
C554 H542 0.959 . S
C554 C552 1.561 . S
C555 C552 1.526 1_556 S
C555 C556 1.396 . S
C555 C560 1.390 . S
C556 C550 1.465 . S
C556 C555 1.396 . S
C556 C557 1.399 . S
C557 H543 0.929 . S
C557 C556 1.399 . S
C557 C558 1.385 . S
C558 H544 0.931 . S
C558 C557 1.385 . S
C558 C559 1.389 . S
C559 C558 1.389 . S
C559 C560 1.387 . S
C560 H545 0.930 . S
C560 C555 1.390 . S
C560 C559 1.387 . S
H561 C573 0.930 . S
H562 C575 0.930 . S
H563 C576 0.930 . S
H564 C580 0.959 . S
H565 C580 0.959 1_554 S
H566 C580 0.961 1_554 S
H567 C581 0.960 . S
H568 C581 0.961 . S
H569 C581 0.959 . S
H570 C584 0.929 . S
H571 C585 0.931 . S
H572 C587 0.930 . S
C573 H561 0.930 . S
C573 C574 1.399 . S
C573 C578 1.399 1_554 S
C574 C573 1.399 . S
C574 C575 1.376 1_554 S
C575 H562 0.930 . S
C575 C574 1.376 1_556 S
C575 C576 1.388 . S
C576 H563 0.930 . S
C576 C575 1.388 . S
C576 C577 1.390 . S
C577 C576 1.390 . S
C577 C578 1.394 . S
C577 C583 1.465 . S
C578 C573 1.399 1_556 S
C578 C577 1.394 . S
C578 C579 1.516 . S
C579 C578 1.516 . S
C579 C580 1.502 . S
C579 C581 1.561 1_556 S
C579 C582 1.526 . S
C580 H564 0.959 . S
C580 H565 0.959 1_556 S
C580 H566 0.961 1_556 S
C580 C579 1.502 . S
C581 H567 0.960 . S
C581 H568 0.961 . S
C581 H569 0.959 . S
C581 C579 1.561 1_554 S
C582 C579 1.526 . S
C582 C583 1.396 . S
C582 C587 1.390 . S
C583 C577 1.465 . S
C583 C582 1.396 . S
C583 C584 1.399 . S
C584 H570 0.929 . S
C584 C583 1.399 . S
C584 C585 1.385 . S
C585 H571 0.931 . S
C585 C584 1.385 . S
C585 C586 1.389 . S
C586 C585 1.389 . S
C586 C587 1.387 . S
C587 H572 0.930 . S
C587 C582 1.390 . S
C587 C586 1.387 . S
H588 C600 0.930 . S
H589 C602 0.930 . S
H590 C603 0.930 . S
H591 C607 0.959 . S
H592 C607 0.959 . S
H593 C607 0.961 . S
H594 C608 0.960 . S
H595 C608 0.961 . S
H596 C608 0.959 . S
H597 C611 0.929 . S
H598 C612 0.931 . S
H599 C614 0.930 . S
C600 H588 0.930 . S
C600 C601 1.399 1_455 S
C600 C605 1.399 . S
C601 C600 1.399 1_655 S
C601 C602 1.376 . S
C602 H589 0.930 . S
C602 C601 1.376 . S
C602 C603 1.388 . S
C603 H590 0.930 . S
C603 C602 1.388 . S
C603 C604 1.390 . S
C604 C603 1.390 . S
C604 C605 1.394 1_655 S
C604 C610 1.465 1_554 S
C605 C600 1.399 . S
C605 C604 1.394 1_455 S
C605 C606 1.516 . S
C606 C605 1.516 . S
C606 C607 1.502 . S
C606 C608 1.561 . S
C606 C609 1.526 . S
C607 H591 0.959 . S
C607 H592 0.959 . S
C607 H593 0.961 . S
C607 C606 1.502 . S
C608 H594 0.960 . S
C608 H595 0.961 . S
C608 H596 0.959 . S
C608 C606 1.561 . S
C609 C606 1.526 . S
C609 C610 1.396 1_454 S
C609 C614 1.390 1_554 S
C610 C604 1.465 1_556 S
C610 C609 1.396 1_656 S
C610 C611 1.399 . S
C611 H597 0.929 . S
C611 C610 1.399 . S
C611 C612 1.385 . S
C612 H598 0.931 . S
C612 C611 1.385 . S
C612 C613 1.389 1_655 S
C613 C612 1.389 1_455 S
C613 C614 1.387 . S
C614 H599 0.930 . S
C614 C609 1.390 1_556 S
C614 C613 1.387 . S
H615 C627 0.930 . S
H616 C629 0.930 . S
H617 C630 0.930 . S
H618 C634 0.959 . S
H619 C634 0.959 . S
H620 C634 0.961 . S
H621 C635 0.960 . S
H622 C635 0.961 1_556 S
H623 C635 0.959 . S
H624 C638 0.929 . S
H625 C639 0.931 . S
H626 C641 0.930 . S
C627 H615 0.930 . S
C627 C628 1.399 . S
C627 C632 1.399 . S
C628 C627 1.399 . S
C628 C629 1.376 . S
C629 H616 0.930 . S
C629 C628 1.376 . S
C629 C630 1.388 . S
C630 H617 0.930 . S
C630 C629 1.388 . S
C630 C631 1.390 . S
C631 C630 1.390 . S
C631 C632 1.394 . S
C631 C637 1.465 . S
C632 C627 1.399 . S
C632 C631 1.394 . S
C632 C633 1.516 1_554 S
C633 C632 1.516 1_556 S
C633 C634 1.502 . S
C633 C635 1.561 1_556 S
C633 C636 1.526 . S
C634 H618 0.959 . S
C634 H619 0.959 . S
C634 H620 0.961 . S
C634 C633 1.502 . S
C635 H621 0.960 . S
C635 H622 0.961 1_554 S
C635 H623 0.959 . S
C635 C633 1.561 1_554 S
C636 C633 1.526 . S
C636 C637 1.396 1_556 S
C636 C641 1.390 . S
C637 C631 1.465 . S
C637 C636 1.396 1_554 S
C637 C638 1.399 . S
C638 H624 0.929 . S
C638 C637 1.399 . S
C638 C639 1.385 1_554 S
C639 H625 0.931 . S
C639 C638 1.385 1_556 S
C639 C640 1.389 . S
C640 C639 1.389 . S
C640 C641 1.387 . S
C641 H626 0.930 . S
C641 C636 1.390 . S
C641 C640 1.387 . S
H642 C654 0.930 . S
H643 C656 0.930 . S
H644 C657 0.930 . S
H645 C661 0.959 . S
H646 C661 0.959 . S
H647 C661 0.961 . S
H648 C662 0.960 . S
H649 C662 0.961 . S
H650 C662 0.959 . S
H651 C665 0.929 . S
H652 C666 0.931 . S
H653 C668 0.930 . S
C654 H642 0.930 . S
C654 C655 1.399 . S
C654 C659 1.399 . S
C655 C654 1.399 . S
C655 C656 1.376 . S
C656 H643 0.930 . S
C656 C655 1.376 . S
C656 C657 1.388 . S
C657 H644 0.930 . S
C657 C656 1.388 . S
C657 C658 1.390 . S
C658 C657 1.390 . S
C658 C659 1.394 . S
C658 C664 1.465 . S
C659 C654 1.399 . S
C659 C658 1.394 . S
C659 C660 1.516 1_554 S
C660 C659 1.516 1_556 S
C660 C661 1.502 . S
C660 C662 1.561 . S
C660 C663 1.526 . S
C661 H645 0.959 . S
C661 H646 0.959 . S
C661 H647 0.961 . S
C661 C660 1.502 . S
C662 H648 0.960 . S
C662 H649 0.961 . S
C662 H650 0.959 . S
C662 C660 1.561 . S
C663 C660 1.526 . S
C663 C664 1.396 1_556 S
C663 C668 1.390 . S
C664 C658 1.465 . S
C664 C663 1.396 1_554 S
C664 C665 1.399 . S
C665 H651 0.929 . S
C665 C664 1.399 . S
C665 C666 1.385 1_554 S
C666 H652 0.931 . S
C666 C665 1.385 1_556 S
C666 C667 1.389 . S
C667 C666 1.389 . S
C667 C668 1.387 . S
C668 H653 0.930 . S
C668 C663 1.390 . S
C668 C667 1.387 . S
H669 C681 0.930 . S
H670 C683 0.930 . S
H671 C684 0.930 . S
H672 C688 0.959 . S
H673 C688 0.959 . S
H674 C688 0.961 . S
H675 C689 0.960 . S
H676 C689 0.961 . S
H677 C689 0.959 . S
H678 C692 0.929 . S
H679 C693 0.931 . S
H680 C695 0.930 . S
C681 H669 0.930 . S
C681 C682 1.399 . S
C681 C686 1.399 . S
C682 C681 1.399 . S
C682 C683 1.376 . S
C683 H670 0.930 . S
C683 C682 1.376 . S
C683 C684 1.388 . S
C684 H671 0.930 . S
C684 C683 1.388 . S
C684 C685 1.390 . S
C685 C684 1.390 . S
C685 C686 1.394 . S
C685 C691 1.465 . S
C686 C681 1.399 . S
C686 C685 1.394 . S
C686 C687 1.516 . S
C687 C686 1.516 . S
C687 C688 1.502 1_554 S
C687 C689 1.561 . S
C687 C690 1.526 1_554 S
C688 H672 0.959 . S
C688 H673 0.959 . S
C688 H674 0.961 . S
C688 C687 1.502 1_556 S
C689 H675 0.960 . S
C689 H676 0.961 . S
C689 H677 0.959 . S
C689 C687 1.561 . S
C690 C687 1.526 1_556 S
C690 C691 1.396 1_556 S
C690 C695 1.390 . S
C691 C685 1.465 . S
C691 C690 1.396 1_554 S
C691 C692 1.399 . S
C692 H678 0.929 . S
C692 C691 1.399 . S
C692 C693 1.385 1_554 S
C693 H679 0.931 . S
C693 C692 1.385 1_556 S
C693 C694 1.389 . S
C694 C693 1.389 . S
C694 C695 1.387 . S
C695 H680 0.930 . S
C695 C690 1.390 . S
C695 C694 1.387 . S
H696 C708 0.930 . S
H697 C710 0.930 . S
H698 C711 0.930 . S
H699 C715 0.959 . S
H700 C715 0.959 . S
H701 C715 0.961 . S
H702 C716 0.960 . S
H703 C716 0.961 . S
H704 C716 0.959 . S
H705 C719 0.929 . S
H706 C720 0.931 . S
H707 C722 0.929 . S
C708 H696 0.930 . S
C708 C709 1.399 1_455 S
C708 C713 1.399 . S
C709 C708 1.399 1_655 S
C709 C710 1.376 . S
C710 H697 0.930 . S
C710 C709 1.376 . S
C710 C711 1.388 . S
C711 H698 0.930 . S
C711 C710 1.388 . S
C711 C712 1.390 . S
C712 C711 1.390 . S
C712 C713 1.394 1_655 S
C712 C718 1.465 . S
C713 C708 1.399 . S
C713 C712 1.394 1_455 S
C713 C714 1.516 . S
C714 C713 1.516 . S
C714 C715 1.502 . S
C714 C716 1.561 1_455 S
C714 C717 1.526 1_455 S
C715 H699 0.959 . S
C715 H700 0.959 . S
C715 H701 0.961 . S
C715 C714 1.502 . S
C716 H702 0.960 . S
C716 H703 0.961 . S
C716 H704 0.959 . S
C716 C714 1.561 1_655 S
C717 C714 1.526 1_655 S
C717 C718 1.396 . S
C717 C722 1.390 1_655 S
C718 C712 1.465 . S
C718 C717 1.396 . S
C718 C719 1.399 . S
C719 H705 0.929 . S
C719 C718 1.399 . S
C719 C720 1.385 . S
C720 H706 0.931 . S
C720 C719 1.385 . S
C720 C721 1.389 . S
C721 C720 1.389 . S
C721 C722 1.387 1_655 S
C722 H707 0.929 . S
C722 C717 1.390 1_455 S
C722 C721 1.387 1_455 S
H723 C735 0.930 . S
H724 C737 0.930 . S
H725 C738 0.930 . S
H726 C742 0.958 . S
H727 C742 0.963 1_545 S
H728 C742 0.962 1_545 S
H729 C743 0.960 . S
H730 C743 0.961 1_545 S
H731 C743 0.959 . S
H732 C746 0.929 . S
H733 C747 0.931 . S
H734 C749 0.930 . S
C735 H723 0.930 . S
C735 C736 1.399 . S
C735 C740 1.399 . S
C736 C735 1.399 . S
C736 C737 1.376 . S
C737 H724 0.930 . S
C737 C736 1.376 . S
C737 C738 1.388 . S
C738 H725 0.930 . S
C738 C737 1.388 . S
C738 C739 1.390 . S
C739 C738 1.390 . S
C739 C740 1.394 . S
C739 C745 1.465 . S
C740 C735 1.399 . S
C740 C739 1.394 . S
C740 C741 1.516 . S
C741 C740 1.516 . S
C741 C742 1.498 . S
C741 C743 1.561 . S
C741 C744 1.526 . S
C742 H726 0.958 . S
C742 H727 0.963 1_565 S
C742 H728 0.962 1_565 S
C742 C741 1.498 . S
C743 H729 0.960 . S
C743 H730 0.961 1_565 S
C743 H731 0.959 . S
C743 C741 1.561 . S
C744 C741 1.526 . S
C744 C745 1.396 . S
C744 C749 1.390 . S
C745 C739 1.465 . S
C745 C744 1.396 . S
C745 C746 1.399 . S
C746 H732 0.929 . S
C746 C745 1.399 . S
C746 C747 1.385 . S
C747 H733 0.931 . S
C747 C746 1.385 . S
C747 C748 1.389 . S
C748 C747 1.389 . S
C748 C749 1.387 . S
C749 H734 0.930 . S
C749 C744 1.390 . S
C749 C748 1.387 . S
H750 C762 0.930 . S
H751 C764 0.930 . S
H752 C765 0.930 . S
H753 C769 0.959 . S
H754 C769 0.959 . S
H755 C769 0.961 . S
H756 C770 0.960 . S
H757 C770 0.961 . S
H758 C770 0.959 . S
H759 C773 0.929 . S
H760 C774 0.931 . S
H761 C776 0.930 . S
C762 H750 0.930 . S
C762 C763 1.399 . S
C762 C767 1.399 . S
C763 C762 1.399 . S
C763 C764 1.376 . S
C764 H751 0.930 . S
C764 C763 1.376 . S
C764 C765 1.388 . S
C765 H752 0.930 . S
C765 C764 1.388 . S
C765 C766 1.390 . S
C766 C765 1.390 . S
C766 C767 1.394 . S
C766 C772 1.465 . S
C767 C762 1.399 . S
C767 C766 1.394 . S
C767 C768 1.516 . S
C768 C767 1.516 . S
C768 C769 1.502 . S
C768 C770 1.561 . S
C768 C771 1.526 . S
C769 H753 0.959 . S
C769 H754 0.959 . S
C769 H755 0.961 . S
C769 C768 1.502 . S
C770 H756 0.960 . S
C770 H757 0.961 . S
C770 H758 0.959 . S
C770 C768 1.561 . S
C771 C768 1.526 . S
C771 C772 1.396 . S
C771 C776 1.390 . S
C772 C766 1.465 . S
C772 C771 1.396 . S
C772 C773 1.399 . S
C773 H759 0.929 . S
C773 C772 1.399 . S
C773 C774 1.385 . S
C774 H760 0.931 . S
C774 C773 1.385 . S
C774 C775 1.389 . S
C775 C774 1.389 . S
C775 C776 1.387 . S
C776 H761 0.930 . S
C776 C771 1.390 . S
C776 C775 1.387 . S
H777 C789 0.930 . S
H778 C791 0.930 . S
H779 C792 0.930 . S
H780 C796 0.959 . S
H781 C796 0.959 . S
H782 C796 0.961 . S
H783 C797 0.960 . S
H784 C797 0.961 . S
H785 C797 0.959 . S
H786 C800 0.929 . S
H787 C801 0.931 . S
H788 C803 0.930 . S
C789 H777 0.930 . S
C789 C790 1.399 . S
C789 C794 1.399 . S
C790 C789 1.399 . S
C790 C791 1.376 . S
C791 H778 0.930 . S
C791 C790 1.376 . S
C791 C792 1.388 . S
C792 H779 0.930 . S
C792 C791 1.388 . S
C792 C793 1.390 . S
C793 C792 1.390 . S
C793 C794 1.394 . S
C793 C799 1.465 . S
C794 C789 1.399 . S
C794 C793 1.394 . S
C794 C795 1.516 . S
C795 C794 1.516 . S
C795 C796 1.502 . S
C795 C797 1.561 . S
C795 C798 1.526 . S
C796 H780 0.959 . S
C796 H781 0.959 . S
C796 H782 0.961 . S
C796 C795 1.502 . S
C797 H783 0.960 . S
C797 H784 0.961 . S
C797 H785 0.959 . S
C797 C795 1.561 . S
C798 C795 1.526 . S
C798 C799 1.396 . S
C798 C803 1.390 . S
C799 C793 1.465 . S
C799 C798 1.396 . S
C799 C800 1.399 . S
C800 H786 0.929 . S
C800 C799 1.399 . S
C800 C801 1.385 . S
C801 H787 0.931 . S
C801 C800 1.385 . S
C801 C802 1.389 . S
C802 C801 1.389 . S
C802 C803 1.387 . S
C803 H788 0.930 . S
C803 C798 1.390 . S
C803 C802 1.387 . S
C169 C61 1.638 . S
C181 C87 1.593 . S
C208 C111 1.290 . S
C196 C70 1.490 . S
C235 C132 1.466 . S
C223 C43 1.611 . S
C262 C150 1.277 . S
C250 C52 1.468 . S
C289 C90 1.510 1_565 S
C277 C25 1.592 . S
C304 C34 1.337 . S
C316 C108 1.238 . S
C331 C7 1.554 . S
C343 C129 1.472 . S
C358 C16 1.345 1_455 S
C370 C153 1.201 . S
C397 C88 0.431 . S
C385 C50 0.520 1_455 S
C424 C106 0.589 . S
C412 C59 0.590 . S
C451 C127 0.470 . S
C439 C67 0.494 . S
C466 C41 0.576 . S
C478 C151 0.658 . S
C493 C14 0.523 . S
C505 C86 0.613 . S
C532 C110 0.612 1_565 S
C520 C23 0.702 . S
C559 C131 0.491 . S
C547 C31 0.580 . S
C574 C5 0.635 . S
C586 C149 0.611 . S
C601 C49 1.555 . S
C613 C89 1.464 . S
C628 C58 1.638 . S
C640 C107 1.624 . S
C667 C128 1.517 . S
C655 C68 1.493 . S
C694 C152 1.632 . S
C682 C40 1.662 . S
C709 C13 1.429 . S
C721 C85 1.397 . S
C748 C109 1.561 . S
C736 C22 1.548 . S
C775 C130 1.388 . S
C763 C32 1.396 . S
C790 C4 1.588 . S
C802 C148 1.565 . S
