# Generated by pormake.
# Topology wbl, (4,4)-cn, num edge types: 1
# Building blocks:
#     Node 0, Type 0, BuildingBlock: MIFKUJ_clean_linker_1, # of connection points: 4
#     Node 1, Type 0, BuildingBlock: MIFKUJ_clean_linker_1, # of connection points: 4
#     Node 2, Type 0, BuildingBlock: MIFKUJ_clean_linker_1, # of connection points: 4
#     Node 3, Type 0, BuildingBlock: MIFKUJ_clean_linker_1, # of connection points: 4
#     Node 4, Type 0, BuildingBlock: MIFKUJ_clean_linker_1, # of connection points: 4
#     Node 5, Type 0, BuildingBlock: MIFKUJ_clean_linker_1, # of connection points: 4
#     Node 6, Type 0, BuildingBlock: MIFKUJ_clean_linker_1, # of connection points: 4
#     Node 7, Type 0, BuildingBlock: MIFKUJ_clean_linker_1, # of connection points: 4
#     Node 8, Type 1, BuildingBlock: KUFVIS_clean_sbu_0, # of connection points: 4
#     Node 9, Type 1, BuildingBlock: KUFVIS_clean_sbu_0, # of connection points: 4
#     Node 10, Type 1, BuildingBlock: KUFVIS_clean_sbu_0, # of connection points: 4
#     Node 11, Type 1, BuildingBlock: KUFVIS_clean_sbu_0, # of connection points: 4
#     Node 12, Type 1, BuildingBlock: KUFVIS_clean_sbu_0, # of connection points: 4
#     Node 13, Type 1, BuildingBlock: KUFVIS_clean_sbu_0, # of connection points: 4
#     Node 14, Type 1, BuildingBlock: KUFVIS_clean_sbu_0, # of connection points: 4
#     Node 15, Type 1, BuildingBlock: KUFVIS_clean_sbu_0, # of connection points: 4
#     Edge 16, Type (0, 1), BuildingBlock: ZUJKAS_clean_linker_0, # of connection points: 2
#     Edge 17, Type (0, 1), BuildingBlock: ZUJKAS_clean_linker_0, # of connection points: 2
#     Edge 18, Type (0, 1), BuildingBlock: ZUJKAS_clean_linker_0, # of connection points: 2
#     Edge 19, Type (0, 1), BuildingBlock: ZUJKAS_clean_linker_0, # of connection points: 2
#     Edge 20, Type (0, 1), BuildingBlock: ZUJKAS_clean_linker_0, # of connection points: 2
#     Edge 21, Type (0, 1), BuildingBlock: ZUJKAS_clean_linker_0, # of connection points: 2
#     Edge 22, Type (0, 1), BuildingBlock: ZUJKAS_clean_linker_0, # of connection points: 2
#     Edge 23, Type (0, 1), BuildingBlock: ZUJKAS_clean_linker_0, # of connection points: 2
#     Edge 24, Type (0, 1), BuildingBlock: ZUJKAS_clean_linker_0, # of connection points: 2
#     Edge 25, Type (0, 1), BuildingBlock: ZUJKAS_clean_linker_0, # of connection points: 2
#     Edge 26, Type (0, 1), BuildingBlock: ZUJKAS_clean_linker_0, # of connection points: 2
#     Edge 27, Type (0, 1), BuildingBlock: ZUJKAS_clean_linker_0, # of connection points: 2
#     Edge 28, Type (0, 1), BuildingBlock: ZUJKAS_clean_linker_0, # of connection points: 2
#     Edge 29, Type (0, 1), BuildingBlock: ZUJKAS_clean_linker_0, # of connection points: 2
#     Edge 30, Type (0, 1), BuildingBlock: ZUJKAS_clean_linker_0, # of connection points: 2
#     Edge 31, Type (0, 1), BuildingBlock: ZUJKAS_clean_linker_0, # of connection points: 2
#     Edge 32, Type (0, 1), BuildingBlock: ZUJKAS_clean_linker_0, # of connection points: 2
#     Edge 33, Type (0, 1), BuildingBlock: ZUJKAS_clean_linker_0, # of connection points: 2
#     Edge 34, Type (0, 1), BuildingBlock: ZUJKAS_clean_linker_0, # of connection points: 2
#     Edge 35, Type (0, 1), BuildingBlock: ZUJKAS_clean_linker_0, # of connection points: 2
#     Edge 36, Type (0, 1), BuildingBlock: ZUJKAS_clean_linker_0, # of connection points: 2
#     Edge 37, Type (0, 1), BuildingBlock: ZUJKAS_clean_linker_0, # of connection points: 2
#     Edge 38, Type (0, 1), BuildingBlock: ZUJKAS_clean_linker_0, # of connection points: 2
#     Edge 39, Type (0, 1), BuildingBlock: ZUJKAS_clean_linker_0, # of connection points: 2
#     Edge 40, Type (0, 1), BuildingBlock: ZUJKAS_clean_linker_0, # of connection points: 2
#     Edge 41, Type (0, 1), BuildingBlock: ZUJKAS_clean_linker_0, # of connection points: 2
#     Edge 42, Type (0, 1), BuildingBlock: ZUJKAS_clean_linker_0, # of connection points: 2
#     Edge 43, Type (0, 1), BuildingBlock: ZUJKAS_clean_linker_0, # of connection points: 2
#     Edge 44, Type (0, 1), BuildingBlock: ZUJKAS_clean_linker_0, # of connection points: 2
#     Edge 45, Type (0, 1), BuildingBlock: ZUJKAS_clean_linker_0, # of connection points: 2
#     Edge 46, Type (0, 1), BuildingBlock: ZUJKAS_clean_linker_0, # of connection points: 2
#     Edge 47, Type (0, 1), BuildingBlock: ZUJKAS_clean_linker_0, # of connection points: 2
# Relax obj value: 0.149
# Max RMSD: 0.141
# Mean RMSD: 0.129
data_MOF--net-wbl--node1-KUFVIS_clean_sbu_0--node2-MIFKUJ_clean_linker_1--edge1-ZUJKAS_clean_linker_0
_symmetry_space_group_name_H-M    P1
_symmetry_Int_Tables_number       1
_symmetry_cell_setting            triclinic
loop_
_symmetry_equiv_pos_as_xyz
'x, y, z'
_cell_length_a     57.467493
_cell_length_b     57.472546
_cell_length_c     92.621478
_cell_angle_alpha  90.031656
_cell_angle_beta   90.629031
_cell_angle_gamma 90.003308
loop_
_atom_site_label
_atom_site_type_symbol
_atom_site_fract_x
_atom_site_fract_y
_atom_site_fract_z
_atom_type_partial_charge
H0 H 0.01788 0.07587 0.34118 0.0
H1 H 0.99211 0.09593 0.35794 0.0
H2 H 0.93488 0.05256 0.34369 0.0
H3 H 0.96091 0.0322 0.32718 0.0
H4 H 0.02755 0.02857 0.34258 0.0
H5 H 0.99397 0.08255 0.30734 0.0
H6 H 0.95884 0.10031 0.29696 0.0
H7 H 0.93573 0.03269 0.28229 0.0
H8 H 0.9706 0.015 0.29294 0.0
H9 H 0.02922 0.97431 0.28964 0.0
H10 H 0.05762 0.95082 0.27641 0.0
H11 H 0.11338 0.9924 0.29452 0.0
H12 H 0.08505 0.01587 0.30748 0.0
H13 H 0.01774 0.02022 0.28953 0.0
H14 H 0.04343 0.9652 0.32349 0.0
H15 H 0.0657 0.94071 0.34009 0.0
H16 H 0.09695 0.00208 0.35911 0.0
H17 H 0.07419 0.02653 0.3426 0.0
C18 C 0.99129 0.05264 0.33289 0.0
C19 C 0.99971 0.07089 0.34155 0.0
C20 C 0.98492 0.08245 0.35104 0.0
C21 C 0.96144 0.07583 0.35214 0.0
C22 C 0.95291 0.05794 0.34316 0.0
C23 C 0.96771 0.04642 0.33364 0.0
C24 C 0.00759 0.039 0.32391 0.0
C25 C 0.02581 0.02722 0.33093 0.0
C26 C 0.0044 0.03618 0.30884 0.0
C27 C 0.98474 0.04743 0.30105 0.0
C28 C 0.9814 0.07161 0.30178 0.0
C29 C 0.96142 0.08174 0.29577 0.0
C30 C 0.94443 0.06785 0.28893 0.0
C31 C 0.94834 0.04378 0.28768 0.0
C32 C 0.96835 0.03368 0.29365 0.0
C33 C 0.05505 0.99672 0.29961 0.0
C34 C 0.04756 0.97846 0.29062 0.0
C35 C 0.06378 0.96499 0.28315 0.0
C36 C 0.08772 0.9698 0.2844 0.0
C37 C 0.09506 0.98844 0.29317 0.0
C38 C 0.0789 0.00174 0.30069 0.0
C39 C 0.03819 0.01031 0.3082 0.0
C40 C 0.01984 0.02197 0.30114 0.0
C41 C 0.04077 0.01247 0.32335 0.0
C42 C 0.05714 0.99771 0.3318 0.0
C43 C 0.05553 0.97337 0.33098 0.0
C44 C 0.06834 0.95936 0.34049 0.0
C45 C 0.083 0.96942 0.35103 0.0
C46 C 0.08552 0.99378 0.35129 0.0
C47 C 0.07262 0.00778 0.34182 0.0
H48 H 0.00082 0.45227 0.53946 0.0
H49 H 0.97978 0.42114 0.5268 0.0
H50 H 0.91542 0.44484 0.54538 0.0
H51 H 0.93634 0.47634 0.55767 0.0
H52 H 1.00016 0.49905 0.54037 0.0
H53 H 0.98263 0.43668 0.57478 0.0
H54 H 0.95926 0.41061 0.58972 0.0
H55 H 0.922 0.46992 0.60647 0.0
H56 H 0.94497 0.4957 0.5913 0.0
H57 H 0.99393 0.548 0.59481 0.0
H58 H 0.01749 0.57161 0.61134 0.0
H59 H 0.07999 0.54152 0.59365 0.0
H60 H 0.05627 0.51847 0.57692 0.0
H61 H 0.99228 0.50066 0.59368 0.0
H62 H 0.00271 0.56197 0.56026 0.0
H63 H 0.02618 0.59283 0.54984 0.0
H64 H 0.07402 0.54144 0.53335 0.0
H65 H 0.04976 0.51044 0.54351 0.0
C66 C 0.97026 0.46635 0.54977 0.0
C67 C 0.98212 0.45106 0.54058 0.0
C68 C 0.9701 0.43329 0.53336 0.0
C69 C 0.94604 0.43046 0.53526 0.0
C70 C 0.93402 0.44644 0.54391 0.0
C71 C 0.94598 0.46439 0.55095 0.0
C72 C 0.98342 0.48338 0.55875 0.0
C73 C 0.99862 0.49915 0.55203 0.0
C74 C 0.98085 0.48426 0.57394 0.0
C75 C 0.9655 0.46812 0.58193 0.0
C76 C 0.96912 0.44397 0.58147 0.0
C77 C 0.95585 0.42913 0.59007 0.0
C78 C 0.93878 0.43819 0.5993 0.0
C79 C 0.93474 0.46232 0.59935 0.0
C80 C 0.94802 0.47712 0.59079 0.0
C81 C 0.02335 0.53155 0.58462 0.0
C82 C 0.01272 0.54669 0.59442 0.0
C83 C 0.02623 0.56006 0.60392 0.0
C84 C 0.05067 0.55835 0.60393 0.0
C85 C 0.06126 0.54354 0.59383 0.0
C86 C 0.04772 0.53028 0.58427 0.0
C87 C 0.00898 0.51601 0.57535 0.0
C88 C 0.99371 0.50051 0.582 0.0
C89 C 0.01106 0.51574 0.56017 0.0
C90 C 0.0246 0.53397 0.55273 0.0
C91 C 0.01816 0.55735 0.5543 0.0
C92 C 0.03176 0.57498 0.54845 0.0
C93 C 0.05227 0.56968 0.54097 0.0
C94 C 0.05831 0.54614 0.539 0.0
C95 C 0.0445 0.52841 0.54479 0.0
H96 H 0.52102 0.57275 0.84195 0.0
H97 H 0.49611 0.59586 0.85765 0.0
H98 H 0.43641 0.55584 0.84354 0.0
H99 H 0.46149 0.53269 0.82785 0.0
H100 H 0.52758 0.52526 0.84413 0.0
H101 H 0.4959 0.57964 0.80756 0.0
H102 H 0.46045 0.59678 0.79719 0.0
H103 H 0.43757 0.52847 0.78365 0.0
H104 H 0.47274 0.51143 0.79432 0.0
H105 H 0.53477 0.47279 0.78993 0.0
H106 H 0.56549 0.45115 0.7775 0.0
H107 H 0.6175 0.49287 0.79947 0.0
H108 H 0.58694 0.51469 0.81139 0.0
H109 H 0.52086 0.51766 0.79087 0.0
H110 H 0.54483 0.46206 0.82473 0.0
H111 H 0.56783 0.43716 0.84073 0.0
H112 H 0.5975 0.49818 0.86113 0.0
H113 H 0.57392 0.52298 0.84529 0.0
C114 C 0.49312 0.55108 0.83368 0.0
C115 C 0.50254 0.56907 0.84216 0.0
C116 C 0.4883 0.58222 0.85114 0.0
C117 C 0.46431 0.57762 0.85187 0.0
C118 C 0.45478 0.55998 0.84308 0.0
C119 C 0.46909 0.54672 0.83413 0.0
C120 C 0.50884 0.53616 0.82507 0.0
C121 C 0.52641 0.52398 0.83246 0.0
C122 C 0.50631 0.53328 0.80995 0.0
C123 C 0.4868 0.54423 0.80186 0.0
C124 C 0.48335 0.56842 0.80221 0.0
C125 C 0.46315 0.57819 0.79622 0.0
C126 C 0.44609 0.56393 0.78975 0.0
C127 C 0.45021 0.53986 0.78878 0.0
C128 C 0.4704 0.53012 0.79474 0.0
C129 C 0.55856 0.49521 0.80169 0.0
C130 C 0.5528 0.4774 0.79189 0.0
C131 C 0.57037 0.46494 0.7849 0.0
C132 C 0.59398 0.47026 0.78748 0.0
C133 C 0.59955 0.48849 0.79705 0.0
C134 C 0.58207 0.50085 0.804 0.0
C135 C 0.54035 0.50765 0.80992 0.0
C136 C 0.52225 0.5192 0.80252 0.0
C137 C 0.54174 0.50927 0.82514 0.0
C138 C 0.55768 0.49438 0.83381 0.0
C139 C 0.55659 0.47007 0.83249 0.0
C140 C 0.56982 0.45584 0.84163 0.0
C141 C 0.58445 0.46563 0.8523 0.0
C142 C 0.5861 0.49004 0.85323 0.0
C143 C 0.57274 0.50425 0.84414 0.0
H144 H 0.50297 0.95331 0.04113 0.0
H145 H 0.48453 0.92001 0.02926 0.0
H146 H 0.41788 0.94146 0.04588 0.0
H147 H 0.4363 0.9753 0.05717 0.0
H148 H 0.49853 0.00027 0.03955 0.0
H149 H 0.48321 0.94005 0.07634 0.0
H150 H 0.46059 0.91507 0.09241 0.0
H151 H 0.42243 0.97529 0.10708 0.0
H152 H 0.44446 0.99983 0.09072 0.0
H153 H 0.49295 0.05117 0.09436 0.0
H154 H 0.51722 0.07448 0.11065 0.0
H155 H 0.57879 0.04939 0.08924 0.0
H156 H 0.55448 0.0254 0.0734 0.0
H157 H 0.49157 0.00577 0.0928 0.0
H158 H 0.49962 0.06521 0.0582 0.0
H159 H 0.52238 0.09609 0.04718 0.0
H160 H 0.57006 0.04482 0.0304 0.0
H161 H 0.54657 0.01381 0.04117 0.0
C162 C 0.4711 0.96658 0.05024 0.0
C163 C 0.48432 0.95105 0.042 0.0
C164 C 0.47378 0.93188 0.03534 0.0
C165 C 0.44976 0.92785 0.03678 0.0
C166 C 0.43638 0.94407 0.04448 0.0
C167 C 0.44693 0.96331 0.05107 0.0
C168 C 0.48288 0.98537 0.05854 0.0
C169 C 0.49711 0.00132 0.0512 0.0
C170 C 0.48032 0.98752 0.07368 0.0
C171 C 0.46542 0.97179 0.08228 0.0
C172 C 0.46962 0.94773 0.0828 0.0
C173 C 0.45682 0.93353 0.09208 0.0
C174 C 0.43969 0.94316 0.10105 0.0
C175 C 0.43518 0.96718 0.10018 0.0
C176 C 0.44791 0.9813 0.09091 0.0
C177 C 0.52185 0.03659 0.08262 0.0
C178 C 0.51166 0.05088 0.09309 0.0
C179 C 0.52557 0.06436 0.10231 0.0
C180 C 0.54997 0.06376 0.10127 0.0
C181 C 0.56008 0.05006 0.09043 0.0
C182 C 0.54617 0.03653 0.08125 0.0
C183 C 0.50732 0.02034 0.0739 0.0
C184 C 0.49273 0.00484 0.08113 0.0
C185 C 0.50889 0.01911 0.0587 0.0
C186 C 0.52154 0.03727 0.05059 0.0
C187 C 0.51484 0.06061 0.05201 0.0
C188 C 0.52802 0.07826 0.04581 0.0
C189 C 0.54834 0.073 0.03813 0.0
C190 C 0.55448 0.04948 0.0362 0.0
C191 C 0.5411 0.03174 0.04234 0.0
H192 H 0.98688 0.57284 0.91141 0.0
H193 H 0.01364 0.59177 0.89479 0.0
H194 H 0.06999 0.54944 0.91144 0.0
H195 H 0.04295 0.53011 0.92776 0.0
H196 H 0.97713 0.52586 0.91088 0.0
H197 H 0.01019 0.58121 0.945 0.0
H198 H 0.04551 0.59875 0.95508 0.0
H199 H 0.06483 0.53243 0.97367 0.0
H200 H 0.03007 0.51479 0.96296 0.0
H201 H 0.97401 0.47407 0.9646 0.0
H202 H 0.94589 0.44894 0.97677 0.0
H203 H 0.88949 0.48755 0.95695 0.0
H204 H 0.91757 0.51238 0.94479 0.0
H205 H 0.98407 0.5197 0.96418 0.0
H206 H 0.96061 0.46315 0.93021 0.0
H207 H 0.9389 0.43815 0.91359 0.0
H208 H 0.90821 0.49892 0.89355 0.0
H209 H 0.93034 0.52387 0.91013 0.0
C210 C 0.01293 0.55016 0.92087 0.0
C211 C 0.00506 0.56784 0.91158 0.0
C212 C 0.02043 0.57877 0.90218 0.0
C213 C 0.04396 0.57212 0.90179 0.0
C214 C 0.05193 0.55483 0.91139 0.0
C215 C 0.03654 0.5439 0.92081 0.0
C216 C 0.99607 0.53711 0.92978 0.0
C217 C 0.97824 0.52501 0.92257 0.0
C218 C 0.99841 0.53502 0.94496 0.0
C219 C 0.01771 0.54658 0.95297 0.0
C220 C 0.02198 0.57049 0.95131 0.0
C221 C 0.0421 0.58055 0.9572 0.0
C222 C 0.0582 0.56692 0.96502 0.0
C223 C 0.05307 0.54331 0.96744 0.0
C224 C 0.03305 0.53324 0.96146 0.0
C225 C 0.94789 0.49489 0.95363 0.0
C226 C 0.95558 0.47725 0.96302 0.0
C227 C 0.9395 0.46292 0.96998 0.0
C228 C 0.91546 0.46606 0.96768 0.0
C229 C 0.90788 0.48433 0.95869 0.0
C230 C 0.92391 0.4986 0.95177 0.0
C231 C 0.96475 0.50885 0.94525 0.0
C232 C 0.98258 0.52101 0.95253 0.0
C233 C 0.96295 0.51047 0.93004 0.0
C234 C 0.94708 0.49539 0.92143 0.0
C235 C 0.94876 0.47108 0.92248 0.0
C236 C 0.93627 0.45678 0.91297 0.0
C237 C 0.92192 0.46652 0.90216 0.0
C238 C 0.9194 0.49087 0.9016 0.0
C239 C 0.93194 0.50515 0.9111 0.0
H240 H 0.50051 0.54442 0.21198 0.0
H241 H 0.4784 0.5762 0.22282 0.0
H242 H 0.41499 0.54817 0.20428 0.0
H243 H 0.43728 0.5166 0.19337 0.0
H244 H 0.49797 0.49443 0.21252 0.0
H245 H 0.48665 0.55877 0.17786 0.0
H246 H 0.4639 0.5858 0.16284 0.0
H247 H 0.42662 0.52765 0.14412 0.0
H248 H 0.44902 0.50092 0.15929 0.0
H249 H 0.49656 0.45048 0.15578 0.0
H250 H 0.52072 0.42759 0.13963 0.0
H251 H 0.58188 0.44712 0.16438 0.0
H252 H 0.5576 0.47075 0.18023 0.0
H253 H 0.49704 0.49533 0.15893 0.0
H254 H 0.50293 0.43163 0.19016 0.0
H255 H 0.52244 0.39963 0.20258 0.0
H256 H 0.56324 0.44892 0.2274 0.0
H257 H 0.54386 0.48108 0.21459 0.0
C258 C 0.47057 0.52836 0.20174 0.0
C259 C 0.48179 0.5449 0.21051 0.0
C260 C 0.4691 0.56303 0.2167 0.0
C261 C 0.44494 0.56485 0.21428 0.0
C262 C 0.43362 0.5475 0.20613 0.0
C263 C 0.44631 0.52939 0.19995 0.0
C264 C 0.48442 0.51135 0.19344 0.0
C265 C 0.49805 0.49479 0.20081 0.0
C266 C 0.48377 0.51121 0.17817 0.0
C267 C 0.46946 0.52786 0.16969 0.0
C268 C 0.47334 0.55194 0.17065 0.0
C269 C 0.46042 0.56733 0.16203 0.0
C270 C 0.4434 0.55887 0.15234 0.0
C271 C 0.43931 0.53477 0.15164 0.0
C272 C 0.45226 0.51944 0.16019 0.0
C273 C 0.52523 0.46235 0.16922 0.0
C274 C 0.51515 0.44968 0.15781 0.0
C275 C 0.52899 0.4364 0.14866 0.0
C276 C 0.55328 0.43549 0.1507 0.0
C277 C 0.56327 0.44762 0.16242 0.0
C278 C 0.54938 0.46095 0.17158 0.0
C279 C 0.5107 0.47835 0.17794 0.0
C280 C 0.49705 0.49488 0.17065 0.0
C281 C 0.51073 0.47789 0.19322 0.0
C282 C 0.52214 0.45872 0.20133 0.0
C283 C 0.51611 0.43558 0.19825 0.0
C284 C 0.52712 0.4173 0.20547 0.0
C285 C 0.54434 0.42174 0.21602 0.0
C286 C 0.55016 0.44496 0.21925 0.0
C287 C 0.53903 0.46332 0.21202 0.0
H288 H 0.49284 0.95387 0.41494 0.0
H289 H 0.4703 0.92741 0.3997 0.0
H290 H 0.40763 0.96555 0.40959 0.0
H291 H 0.43043 0.99186 0.42515 0.0
H292 H 0.49534 0.0021 0.40989 0.0
H293 H 0.46861 0.94834 0.4469 0.0
H294 H 0.43603 0.92891 0.45851 0.0
H295 H 0.41061 0.99552 0.47328 0.0
H296 H 0.44269 0.0149 0.46101 0.0
H297 H 0.5074 0.0594 0.46162 0.0
H298 H 0.54038 0.07951 0.47338 0.0
H299 H 0.58752 0.02932 0.45493 0.0
H300 H 0.5548 0.00939 0.4435 0.0
H301 H 0.49114 0.01197 0.46303 0.0
H302 H 0.51779 0.06609 0.42828 0.0
H303 H 0.54252 0.08816 0.41187 0.0
H304 H 0.56473 0.02396 0.39203 0.0
H305 H 0.54004 0.00201 0.40844 0.0
C306 C 0.46331 0.97485 0.42111 0.0
C307 C 0.4742 0.95641 0.41393 0.0
C308 C 0.46131 0.94137 0.40517 0.0
C309 C 0.43722 0.94457 0.40327 0.0
C310 C 0.42614 0.96257 0.4109 0.0
C311 C 0.43912 0.97764 0.41974 0.0
C312 C 0.47783 0.99174 0.42924 0.0
C313 C 0.49457 0.00414 0.42153 0.0
C314 C 0.47591 0.9952 0.44431 0.0
C315 C 0.45782 0.98312 0.45283 0.0
C316 C 0.456 0.95875 0.45263 0.0
C317 C 0.43747 0.94764 0.45942 0.0
C318 C 0.42051 0.96065 0.46674 0.0
C319 C 0.42306 0.98499 0.4675 0.0
C320 C 0.44153 0.99609 0.46062 0.0
C321 C 0.52872 0.03301 0.45165 0.0
C322 C 0.52485 0.05267 0.46029 0.0
C323 C 0.54367 0.0642 0.4669 0.0
C324 C 0.56653 0.05594 0.46512 0.0
C325 C 0.57014 0.03593 0.4567 0.0
C326 C 0.55146 0.02461 0.45007 0.0
C327 C 0.50947 0.02142 0.44369 0.0
C328 C 0.49179 0.01012 0.45139 0.0
C329 C 0.51025 0.01913 0.42851 0.0
C330 C 0.527 0.03238 0.41958 0.0
C331 C 0.52834 0.05674 0.42059 0.0
C332 C 0.54248 0.06935 0.4112 0.0
C333 C 0.5554 0.05781 0.40056 0.0
C334 C 0.55466 0.03337 0.39994 0.0
C335 C 0.5406 0.0208 0.40933 0.0
H336 H 0.9963 0.03806 0.71449 0.0
H337 H 0.97295 0.06863 0.72558 0.0
H338 H 0.91084 0.03917 0.70617 0.0
H339 H 0.93444 0.00887 0.69493 0.0
H340 H 0.99549 0.98797 0.71425 0.0
H341 H 0.98271 0.0535 0.6806 0.0
H342 H 0.95942 0.08035 0.66579 0.0
H343 H 0.92488 0.02175 0.64563 0.0
H344 H 0.94784 0.99516 0.66061 0.0
H345 H 0.99892 0.94762 0.65631 0.0
H346 H 0.02503 0.92598 0.64069 0.0
H347 H 0.08352 0.94636 0.6676 0.0
H348 H 0.05736 0.96896 0.6828 0.0
H349 H 0.9964 0.99177 0.66072 0.0
H350 H 0.00485 0.92659 0.69085 0.0
H351 H 0.02688 0.89531 0.70236 0.0
H352 H 0.06451 0.94588 0.72809 0.0
H353 H 0.04208 0.97724 0.71656 0.0
C354 C 0.96713 0.02139 0.70377 0.0
C355 C 0.9776 0.03794 0.71287 0.0
C356 C 0.96419 0.05538 0.71923 0.0
C357 C 0.94001 0.05649 0.71666 0.0
C358 C 0.92945 0.03908 0.70815 0.0
C359 C 0.94288 0.02168 0.70179 0.0
C360 C 0.98178 0.00525 0.69533 0.0
C361 C 0.9959 0.98893 0.70256 0.0
C362 C 0.98165 0.00588 0.68006 0.0
C363 C 0.96692 0.02236 0.67172 0.0
C364 C 0.96987 0.04651 0.67313 0.0
C365 C 0.95665 0.0618 0.66462 0.0
C366 C 0.94025 0.05317 0.65458 0.0
C367 C 0.93707 0.02897 0.65343 0.0
C368 C 0.95034 0.01374 0.66187 0.0
C369 C 0.0261 0.95985 0.67079 0.0
C370 C 0.01736 0.94739 0.65888 0.0
C371 C 0.03233 0.93479 0.65003 0.0
C372 C 0.05643 0.93432 0.65291 0.0
C373 C 0.06511 0.9465 0.665 0.0
C374 C 0.05011 0.95922 0.6738 0.0
C375 C 0.01027 0.97448 0.67957 0.0
C376 C 0.99599 0.99065 0.67241 0.0
C377 C 0.00969 0.97311 0.69483 0.0
C378 C 0.02207 0.95426 0.70269 0.0
C379 C 0.01783 0.93096 0.69898 0.0
C380 C 0.03052 0.9131 0.70553 0.0
C381 C 0.04771 0.91812 0.71599 0.0
C382 C 0.05134 0.94143 0.72011 0.0
C383 C 0.03857 0.95936 0.71352 0.0
Mn384 Mn 0.33189 0.67023 0.00328 0.0
Mn385 Mn 0.33761 0.61193 0.00447 0.0
C386 C 0.33693 0.65138 0.02526 0.0
C387 C 0.34854 0.7071 0.00137 0.0
C388 C 0.29144 0.63636 0.99922 0.0
O389 O 0.33969 0.66195 0.98243 0.0
O390 O 0.34591 0.62345 0.98501 0.0
C391 C 0.38858 0.60777 0.00102 0.0
N392 N 0.36909 0.60366 0.00885 0.0
C393 C 0.39052 0.58019 0.02588 0.0
C394 C 0.41083 0.58414 0.018 0.0
C395 C 0.40989 0.59816 0.00558 0.0
C396 C 0.36993 0.59075 0.02103 0.0
H397 H 0.38781 0.61813 0.9913 0.0
C398 C 0.34567 0.64211 0.97744 0.0
O399 O 0.32674 0.7036 0.99822 0.0
O400 O 0.36071 0.68907 0.00517 0.0
N401 N 0.33033 0.59852 0.02277 0.0
C402 C 0.30917 0.59637 0.02913 0.0
C403 C 0.30726 0.58353 0.04197 0.0
C404 C 0.32699 0.57257 0.04792 0.0
C405 C 0.34847 0.57459 0.04099 0.0
C406 C 0.34941 0.58801 0.0284 0.0
H407 H 0.29385 0.60438 0.02446 0.0
O408 O 0.32777 0.67199 0.02472 0.0
O409 O 0.34293 0.64259 0.01295 0.0
O410 O 0.29896 0.65713 0.00058 0.0
O411 O 0.30457 0.61849 0.00016 0.0
C412 C 0.36888 0.56342 0.04592 0.0
C413 C 0.38983 0.56601 0.03827 0.0
H414 H 0.42723 0.57647 0.02137 0.0
H415 H 0.42549 0.60128 0.99943 0.0
H416 H 0.29058 0.58189 0.04718 0.0
H417 H 0.32541 0.56248 0.05773 0.0
H418 H 0.36867 0.55278 0.05556 0.0
H419 H 0.40543 0.55738 0.04219 0.0
Mn420 Mn 0.32975 0.83059 0.25634 0.0
Mn421 Mn 0.38717 0.83685 0.26303 0.0
C422 C 0.34324 0.83411 0.27985 0.0
C423 C 0.29385 0.84787 0.25137 0.0
C424 C 0.36472 0.79084 0.2545 0.0
O425 O 0.34264 0.83962 0.23672 0.0
O426 O 0.38003 0.84684 0.24289 0.0
C427 C 0.39064 0.88818 0.2616 0.0
N428 N 0.39376 0.86799 0.26906 0.0
C429 C 0.40967 0.88854 0.28955 0.0
C430 C 0.40676 0.90956 0.28206 0.0
C431 C 0.39715 0.90937 0.26804 0.0
C432 C 0.40293 0.86797 0.28256 0.0
H433 H 0.3832 0.88811 0.25084 0.0
C434 C 0.36316 0.8465 0.2337 0.0
O435 O 0.29764 0.82618 0.24818 0.0
O436 O 0.31104 0.85945 0.25698 0.0
N437 N 0.39629 0.82803 0.2822 0.0
C438 C 0.39672 0.80642 0.28824 0.0
C439 C 0.40534 0.80364 0.30237 0.0
C440 C 0.41355 0.82305 0.31012 0.0
C441 C 0.41299 0.84511 0.30366 0.0
C442 C 0.40438 0.84679 0.2895 0.0
H443 H 0.3905 0.79142 0.28233 0.0
O444 O 0.32301 0.82494 0.27722 0.0
O445 O 0.35479 0.84094 0.26866 0.0
O446 O 0.34365 0.79791 0.25426 0.0
O447 O 0.38203 0.80416 0.25724 0.0
C448 C 0.42034 0.86554 0.31079 0.0
C449 C 0.4186 0.88725 0.30376 0.0
H450 H 0.41165 0.92595 0.287 0.0
H451 H 0.39474 0.92553 0.26222 0.0
H452 H 0.40566 0.78657 0.3073 0.0
H453 H 0.42013 0.82082 0.32103 0.0
H454 H 0.42707 0.86479 0.32175 0.0
H455 H 0.42396 0.90287 0.30943 0.0
Mn456 Mn 0.16787 0.83269 0.49751 0.0
Mn457 Mn 0.10934 0.83696 0.49779 0.0
C458 C 0.14735 0.83887 0.47615 0.0
C459 C 0.20466 0.84977 0.49919 0.0
C460 C 0.13488 0.791 0.50012 0.0
O461 O 0.1613 0.83898 0.51875 0.0
O462 O 0.12226 0.84207 0.5175 0.0
C463 C 0.10528 0.88701 0.5049 0.0
N464 N 0.10018 0.86877 0.49603 0.0
C465 C 0.07473 0.89245 0.48141 0.0
C466 C 0.07964 0.91151 0.49041 0.0
C467 C 0.0951 0.90881 0.50215 0.0
C468 C 0.08564 0.87126 0.48458 0.0
H469 H 0.11692 0.88491 0.51404 0.0
C470 C 0.14155 0.84239 0.52455 0.0
O471 O 0.20167 0.82774 0.50168 0.0
O472 O 0.18623 0.86188 0.49611 0.0
N473 N 0.09431 0.8326 0.47949 0.0
C474 C 0.09263 0.81289 0.47136 0.0
C475 C 0.07844 0.81286 0.45893 0.0
C476 C 0.06577 0.83291 0.45516 0.0
C477 C 0.06772 0.85295 0.46374 0.0
C478 C 0.08241 0.85205 0.47587 0.0
H479 H 0.10199 0.79731 0.47439 0.0
O480 O 0.16803 0.82982 0.47602 0.0
O481 O 0.13923 0.84404 0.4888 0.0
O482 O 0.15547 0.79925 0.49948 0.0
O483 O 0.11667 0.80366 0.49949 0.0
C484 C 0.0557 0.87379 0.46074 0.0
C485 C 0.05944 0.89362 0.46944 0.0
H486 H 0.07169 0.9283 0.48838 0.0
H487 H 0.09901 0.92344 0.50913 0.0
H488 H 0.07704 0.79734 0.45235 0.0
H489 H 0.05468 0.83275 0.44563 0.0
H490 H 0.04382 0.87487 0.4516 0.0
H491 H 0.05049 0.90968 0.46682 0.0
Mn492 Mn 0.17445 0.66923 0.74869 0.0
Mn493 Mn 0.16891 0.61117 0.74435 0.0
C494 C 0.1696 0.65348 0.72584 0.0
C495 C 0.15787 0.70575 0.75241 0.0
C496 C 0.21504 0.63485 0.75084 0.0
O497 O 0.16616 0.65821 0.7689 0.0
O498 O 0.16121 0.6199 0.76452 0.0
C499 C 0.11793 0.60725 0.74794 0.0
N500 N 0.13724 0.60374 0.73983 0.0
C501 C 0.11455 0.58595 0.72083 0.0
C502 C 0.09443 0.58926 0.72901 0.0
C503 C 0.09614 0.60001 0.74261 0.0
C504 C 0.1358 0.59347 0.72672 0.0
H505 H 0.11916 0.61555 0.75839 0.0
C506 C 0.16092 0.63763 0.77294 0.0
O507 O 0.1796 0.70178 0.75553 0.0
O508 O 0.14573 0.68835 0.74756 0.0
N509 N 0.17558 0.60049 0.72526 0.0
C510 C 0.19643 0.59972 0.71841 0.0
C511 C 0.19767 0.58994 0.70455 0.0
C512 C 0.1775 0.58095 0.6979 0.0
C513 C 0.15625 0.58185 0.70518 0.0
C514 C 0.15613 0.59163 0.71903 0.0
H515 H 0.212 0.60658 0.72347 0.0
O516 O 0.17901 0.67386 0.72745 0.0
O517 O 0.16356 0.64298 0.73762 0.0
O518 O 0.20729 0.65565 0.751 0.0
O519 O 0.20212 0.61709 0.74861 0.0
C520 C 0.13514 0.57374 0.69915 0.0
C521 C 0.11429 0.57586 0.70695 0.0
H522 H 0.07757 0.5838 0.72491 0.0
H523 H 0.08068 0.60272 0.74897 0.0
H524 H 0.21412 0.58935 0.69898 0.0
H525 H 0.17852 0.5735 0.68718 0.0
H526 H 0.13468 0.56612 0.68846 0.0
H527 H 0.09812 0.56988 0.70211 0.0
Mn528 Mn 0.83304 0.17179 0.50655 0.0
Mn529 Mn 0.83962 0.11371 0.50983 0.0
C530 C 0.83747 0.15496 0.52916 0.0
C531 C 0.84908 0.20873 0.50359 0.0
C532 C 0.7932 0.13677 0.50328 0.0
O533 O 0.8421 0.1619 0.4862 0.0
O534 O 0.84783 0.12357 0.49 0.0
C535 C 0.89077 0.11089 0.50685 0.0
N536 N 0.87125 0.10666 0.51462 0.0
C537 C 0.89337 0.08692 0.5331 0.0
C538 C 0.91372 0.09099 0.52528 0.0
C539 C 0.91242 0.10314 0.51213 0.0
C540 C 0.87234 0.0953 0.52738 0.0
H541 H 0.88981 0.12006 0.49669 0.0
C542 C 0.84793 0.14163 0.48188 0.0
O543 O 0.82752 0.2045 0.50015 0.0
O544 O 0.86137 0.19139 0.50837 0.0
N545 N 0.83245 0.10184 0.52856 0.0
C546 C 0.81132 0.10003 0.53501 0.0
C547 C 0.80969 0.08885 0.54844 0.0
C548 C 0.82969 0.07932 0.55497 0.0
C549 C 0.85117 0.08111 0.54803 0.0
C550 C 0.85178 0.09262 0.53472 0.0
H551 H 0.79585 0.1071 0.52996 0.0
O552 O 0.82784 0.17528 0.52784 0.0
O553 O 0.8441 0.14523 0.51726 0.0
O554 O 0.80048 0.15775 0.50364 0.0
O555 O 0.8065 0.11922 0.50524 0.0
C556 C 0.87201 0.07191 0.55378 0.0
C557 C 0.89312 0.07492 0.54636 0.0
H558 H 0.93043 0.08493 0.52928 0.0
H559 H 0.92805 0.10639 0.50604 0.0
H560 H 0.79303 0.08749 0.55371 0.0
H561 H 0.82836 0.07069 0.56532 0.0
H562 H 0.87206 0.06279 0.56401 0.0
H563 H 0.90908 0.06809 0.55102 0.0
Mn564 Mn 0.83796 0.32756 0.75638 0.0
Mn565 Mn 0.89664 0.32878 0.75707 0.0
C566 C 0.85793 0.33332 0.77801 0.0
C567 C 0.80213 0.34643 0.75411 0.0
C568 C 0.86888 0.28415 0.75479 0.0
O569 O 0.84563 0.33302 0.73522 0.0
O570 O 0.88474 0.33374 0.73711 0.0
C571 C 0.90353 0.37825 0.74929 0.0
N572 N 0.90732 0.36016 0.75851 0.0
C573 C 0.93329 0.38319 0.7732 0.0
C574 C 0.92973 0.40207 0.76385 0.0
C575 C 0.91466 0.39962 0.75189 0.0
C576 C 0.92148 0.36243 0.77016 0.0
H577 H 0.89219 0.37633 0.73999 0.0
C578 C 0.86581 0.33503 0.72972 0.0
O579 O 0.80405 0.32421 0.75187 0.0
O580 O 0.82107 0.35768 0.75726 0.0
N581 N 0.91071 0.32446 0.77566 0.0
C582 C 0.91107 0.30504 0.7841 0.0
C583 C 0.92472 0.30485 0.79676 0.0
C584 C 0.93819 0.32442 0.80045 0.0
C585 C 0.93759 0.34416 0.79156 0.0
C586 C 0.9234 0.34346 0.7792 0.0
H587 H 0.90108 0.28982 0.78115 0.0
O588 O 0.83685 0.32524 0.77789 0.0
O589 O 0.8668 0.33772 0.76545 0.0
O590 O 0.84874 0.29352 0.7548 0.0
O591 O 0.88771 0.29583 0.75576 0.0
C592 C 0.95049 0.36451 0.79446 0.0
C593 C 0.94811 0.38412 0.78541 0.0
H594 H 0.93842 0.41853 0.76576 0.0
H595 H 0.9118 0.41411 0.74463 0.0
H596 H 0.92507 0.28957 0.80358 0.0
H597 H 0.94885 0.32414 0.81017 0.0
H598 H 0.96201 0.36541 0.80378 0.0
H599 H 0.95772 0.39984 0.78795 0.0
Mn600 Mn 0.6764 0.33018 0.99705 0.0
Mn601 Mn 0.61932 0.33784 0.98971 0.0
C602 C 0.66386 0.33669 0.97357 0.0
C603 C 0.71253 0.34602 0.00323 0.0
C604 C 0.64083 0.29069 0.99639 0.0
O605 O 0.6629 0.33742 0.01683 0.0
O606 O 0.62569 0.34492 0.01039 0.0
C607 C 0.61632 0.38882 0.99386 0.0
N608 N 0.61336 0.36977 0.98528 0.0
C609 C 0.59875 0.39331 0.9657 0.0
C610 C 0.60153 0.41316 0.97436 0.0
C611 C 0.6104 0.4109 0.98849 0.0
C612 C 0.60489 0.37175 0.97166 0.0
H613 H 0.62319 0.38716 0.00471 0.0
C614 C 0.64218 0.34376 0.01981 0.0
O615 O 0.70804 0.32415 0.00546 0.0
O616 O 0.69583 0.35862 0.99791 0.0
N617 N 0.61101 0.33182 0.96999 0.0
C618 C 0.61068 0.31115 0.96278 0.0
C619 C 0.60284 0.31047 0.94837 0.0
C620 C 0.59531 0.331 0.94156 0.0
C621 C 0.5957 0.35205 0.94922 0.0
C622 C 0.60354 0.35163 0.96358 0.0
H623 H 0.61641 0.29531 0.96797 0.0
O624 O 0.68379 0.32679 0.97604 0.0
O625 O 0.652 0.34233 0.98489 0.0
O626 O 0.66191 0.29757 0.9975 0.0
O627 O 0.62379 0.30442 0.99382 0.0
C628 C 0.58896 0.37349 0.94309 0.0
C629 C 0.59056 0.39412 0.95131 0.0
H630 H 0.59708 0.43025 0.97023 0.0
H631 H 0.61269 0.42616 0.99521 0.0
H632 H 0.60263 0.29417 0.94252 0.0
H633 H 0.58939 0.33042 0.93042 0.0
H634 H 0.5828 0.37437 0.93201 0.0
H635 H 0.58568 0.41054 0.94641 0.0
Mn636 Mn 0.67235 0.17149 0.24915 0.0
Mn637 Mn 0.6681 0.11309 0.24669 0.0
C638 C 0.66599 0.15386 0.22697 0.0
C639 C 0.65512 0.2078 0.2524 0.0
C640 C 0.71398 0.13841 0.25089 0.0
O641 O 0.66627 0.16187 0.26996 0.0
O642 O 0.66188 0.12319 0.26681 0.0
C643 C 0.61768 0.10803 0.25212 0.0
N644 N 0.63637 0.10442 0.24349 0.0
C645 C 0.61296 0.0834 0.22619 0.0
C646 C 0.59347 0.08679 0.23492 0.0
C647 C 0.59583 0.09925 0.24791 0.0
C648 C 0.63424 0.09269 0.2309 0.0
H649 H 0.61945 0.1175 0.26215 0.0
C650 C 0.66192 0.14149 0.27474 0.0
O651 O 0.67721 0.20466 0.25481 0.0
O652 O 0.64305 0.18973 0.24854 0.0
N653 N 0.67347 0.10107 0.22776 0.0
C654 C 0.69371 0.10036 0.22023 0.0
C655 C 0.69416 0.08912 0.20677 0.0
C656 C 0.67392 0.07846 0.20129 0.0
C657 C 0.65337 0.07921 0.20931 0.0
C658 C 0.65393 0.09079 0.2226 0.0
H659 H 0.70936 0.10838 0.22444 0.0
O660 O 0.67487 0.17459 0.22767 0.0
O661 O 0.66122 0.14415 0.23923 0.0
O662 O 0.70571 0.15901 0.25069 0.0
O663 O 0.70137 0.12021 0.24965 0.0
C664 C 0.63234 0.06902 0.20459 0.0
C665 C 0.61209 0.07127 0.21297 0.0
H666 H 0.5766 0.08 0.23173 0.0
H667 H 0.58085 0.10201 0.25469 0.0
H668 H 0.71009 0.08861 0.20066 0.0
H669 H 0.67432 0.06981 0.1909 0.0
H670 H 0.63143 0.05976 0.19441 0.0
H671 H 0.59591 0.06376 0.20908 0.0
H672 H 0.08906 0.92223 0.28285 0.0
H673 H 0.12073 0.89801 0.27355 0.0
H674 H 0.15777 0.95963 0.26063 0.0
H675 H 0.12618 0.98397 0.26973 0.0
H676 H 0.15151 0.90742 0.24093 0.0
H677 H 0.19189 0.91298 0.29589 0.0
H678 H 0.1607 0.91159 0.29346 0.0
H679 H 0.17605 0.93753 0.28865 0.0
C680 C 0.10367 0.93059 0.27769 0.0
C681 C 0.10524 0.95501 0.27712 0.0
C682 C 0.12171 0.91674 0.27241 0.0
C683 C 0.14145 0.92711 0.26641 0.0
C684 C 0.14257 0.95138 0.26518 0.0
H685 H 0.28338 0.89372 0.25394 0.0
H686 H 0.24491 0.91124 0.25579 0.0
C687 C 0.12462 0.96523 0.27049 0.0
C688 C 0.16214 0.91301 0.26301 0.0
H689 H 0.21374 0.89514 0.27771 0.0
C690 C 0.16506 0.90444 0.24895 0.0
C691 C 0.17966 0.90932 0.27355 0.0
C692 C 0.17711 0.91824 0.28878 0.0
C693 C 0.18557 0.8927 0.24509 0.0
C694 C 0.20334 0.88952 0.25558 0.0
C695 C 0.20006 0.89765 0.2697 0.0
C696 C 0.22617 0.87911 0.25212 0.0
C697 C 0.18852 0.88451 0.22975 0.0
C698 C 0.22835 0.85528 0.24906 0.0
C699 C 0.25046 0.84514 0.24796 0.0
C700 C 0.27059 0.85871 0.25003 0.0
C701 C 0.26823 0.88275 0.25237 0.0
C702 C 0.24625 0.89282 0.25342 0.0
H703 H 0.17457 0.8912 0.22247 0.0
H704 H 0.20566 0.89014 0.22557 0.0
H705 H 0.18807 0.86521 0.22948 0.0
H706 H 0.21304 0.84436 0.2482 0.0
H707 H 0.25176 0.82655 0.24621 0.0
H708 H 0.06265 0.61087 0.5543 0.0
H709 H 0.08369 0.64394 0.54453 0.0
H710 H 0.0986 0.60471 0.50601 0.0
H711 H 0.07624 0.57182 0.51538 0.0
H712 H 0.12763 0.65109 0.53602 0.0
H713 H 0.06693 0.66116 0.4892 0.0
H714 H 0.06101 0.64163 0.50392 0.0
H715 H 0.08173 0.63371 0.49037 0.0
C716 C 0.07015 0.60929 0.54366 0.0
C717 C 0.06723 0.58884 0.53548 0.0
C718 C 0.08246 0.62815 0.53816 0.0
C719 C 0.09236 0.62701 0.52441 0.0
C720 C 0.09064 0.60619 0.51651 0.0
H721 H 0.16784 0.756 0.50003 0.0
H722 H 0.16134 0.71427 0.50398 0.0
C723 C 0.07807 0.58731 0.52196 0.0
C724 C 0.10329 0.6482 0.51828 0.0
H725 H 0.09583 0.68948 0.49214 0.0
C726 C 0.12093 0.65937 0.52631 0.0
C727 C 0.09445 0.659 0.50563 0.0
C728 C 0.07488 0.64842 0.49681 0.0
C729 C 0.12903 0.68159 0.52251 0.0
C730 C 0.11964 0.69267 0.51012 0.0
C731 C 0.10302 0.6809 0.50162 0.0
C732 C 0.12416 0.71758 0.50692 0.0
C733 C 0.14642 0.69358 0.53232 0.0
C734 C 0.1054 0.73316 0.50682 0.0
C735 C 0.10897 0.7568 0.5044 0.0
C736 C 0.13148 0.76557 0.50206 0.0
C737 C 0.15031 0.74988 0.5019 0.0
C738 C 0.14664 0.72604 0.50423 0.0
H739 H 0.14866 0.68435 0.54278 0.0
H740 H 0.16358 0.69416 0.52696 0.0
H741 H 0.14094 0.71175 0.53454 0.0
H742 H 0.08789 0.72707 0.50888 0.0
H743 H 0.09399 0.76822 0.50459 0.0
H744 H 0.40273 0.54639 0.79427 0.0
H745 H 0.36535 0.56268 0.78653 0.0
H746 H 0.40067 0.6205 0.7668 0.0
H747 H 0.43834 0.60408 0.77435 0.0
H748 H 0.34766 0.60895 0.79353 0.0
H749 H 0.35655 0.59287 0.73453 0.0
H750 H 0.3739 0.57759 0.74785 0.0
H751 H 0.38025 0.60737 0.74368 0.0
C752 C 0.4026 0.56241 0.78812 0.0
C753 C 0.42351 0.57384 0.7848 0.0
C754 C 0.38122 0.57178 0.78381 0.0
C755 C 0.3803 0.59267 0.77602 0.0
C756 C 0.40107 0.60423 0.7727 0.0
H757 H 0.24795 0.66616 0.76042 0.0
H758 H 0.28904 0.65851 0.76602 0.0
C759 C 0.42253 0.59491 0.77708 0.0
C760 C 0.35742 0.60226 0.77155 0.0
H761 H 0.32164 0.61004 0.74228 0.0
C762 C 0.34201 0.60947 0.78232 0.0
C763 C 0.35016 0.6027 0.75693 0.0
C764 C 0.36594 0.59461 0.74502 0.0
C765 C 0.3193 0.61671 0.77886 0.0
C766 C 0.31192 0.61685 0.76425 0.0
C767 C 0.32747 0.61005 0.75345 0.0
C768 C 0.28752 0.62213 0.76011 0.0
C769 C 0.30305 0.62326 0.79089 0.0
C770 C 0.27328 0.60432 0.75464 0.0
C771 C 0.24986 0.60858 0.75146 0.0
C772 C 0.24022 0.63082 0.75359 0.0
C773 C 0.25476 0.64883 0.75869 0.0
C774 C 0.27821 0.64449 0.76195 0.0
H775 H 0.3103 0.61872 0.80169 0.0
H776 H 0.29988 0.6423 0.7906 0.0
H777 H 0.28601 0.61439 0.78946 0.0
H778 H 0.28018 0.58696 0.75312 0.0
H779 H 0.23929 0.59432 0.74745 0.0
H780 H 0.40704 0.92247 0.02348 0.0
H781 H 0.38851 0.88603 0.01576 0.0
H782 H 0.44976 0.84792 0.02895 0.0
H783 H 0.46803 0.88394 0.03715 0.0
H784 H 0.40255 0.85151 0.99568 0.0
H785 H 0.39735 0.81635 0.0513 0.0
H786 H 0.40341 0.84658 0.04765 0.0
H787 H 0.42616 0.8252 0.0464 0.0
C788 C 0.41652 0.90631 0.0248 0.0
C789 C 0.43899 0.90614 0.03102 0.0
C790 C 0.40597 0.88555 0.02029 0.0
C791 C 0.41763 0.86427 0.022 0.0
C792 C 0.44031 0.86413 0.02775 0.0
H793 H 0.39325 0.71886 0.00816 0.0
H794 H 0.40918 0.75785 0.01174 0.0
C795 C 0.45084 0.8848 0.03228 0.0
C796 C 0.40605 0.84207 0.0181 0.0
H797 H 0.38975 0.78973 0.03214 0.0
C798 C 0.39954 0.83805 0.00365 0.0
C799 C 0.402 0.82463 0.02855 0.0
C800 C 0.40737 0.82843 0.04437 0.0
C801 C 0.3899 0.81663 0.99929 0.0
C802 C 0.38655 0.79899 0.00969 0.0
C803 C 0.39256 0.80324 0.02417 0.0
C804 C 0.37733 0.7757 0.00587 0.0
C805 C 0.38403 0.81273 0.98357 0.0
C806 C 0.3542 0.77285 0.00118 0.0
C807 C 0.34498 0.75051 0.99913 0.0
C808 C 0.35877 0.73072 0.0018 0.0
C809 C 0.38215 0.73372 0.00602 0.0
C810 C 0.3913 0.75599 0.00808 0.0
H811 H 0.39164 0.82637 0.97655 0.0
H812 H 0.39038 0.79544 0.97998 0.0
H813 H 0.36485 0.81303 0.98208 0.0
H814 H 0.34304 0.78784 0.99962 0.0
H815 H 0.32688 0.74876 0.99593 0.0
H816 H 0.10084 0.54612 0.96403 0.0
H817 H 0.13851 0.56255 0.97078 0.0
H818 H 0.10535 0.62704 0.98253 0.0
H819 H 0.06728 0.61036 0.97633 0.0
H820 H 0.15916 0.60128 0.95862 0.0
H821 H 0.14707 0.61344 0.01769 0.0
H822 H 0.12797 0.59539 0.00687 0.0
H823 H 0.12536 0.62651 0.00617 0.0
C824 C 0.10141 0.56362 0.96836 0.0
C825 C 0.08096 0.57683 0.96976 0.0
C826 C 0.12302 0.57306 0.97208 0.0
C827 C 0.12472 0.59592 0.97729 0.0
C828 C 0.1044 0.60922 0.97876 0.0
H829 H 0.25589 0.66853 0.99899 0.0
H830 H 0.21457 0.66151 0.99354 0.0
C831 C 0.08268 0.59974 0.97507 0.0
C832 C 0.14799 0.60585 0.98057 0.0
H833 H 0.18309 0.62516 0.00809 0.0
C834 C 0.16432 0.60667 0.96942 0.0
C835 C 0.15464 0.613 0.99464 0.0
C836 C 0.13795 0.61193 0.00709 0.0
C837 C 0.18729 0.61383 0.97204 0.0
C838 C 0.19415 0.62016 0.98619 0.0
C839 C 0.17766 0.62028 0.99725 0.0
C840 C 0.21884 0.62461 0.98988 0.0
C841 C 0.20427 0.61413 0.95973 0.0
C842 C 0.23469 0.60611 0.9898 0.0
C843 C 0.25815 0.60997 0.99296 0.0
C844 C 0.26631 0.63248 0.99622 0.0
C845 C 0.25025 0.651 0.99646 0.0
C846 C 0.22665 0.64705 0.99338 0.0
H847 H 0.19523 0.61389 0.94907 0.0
H848 H 0.21559 0.62976 0.96035 0.0
H849 H 0.21559 0.59852 0.96045 0.0
H850 H 0.22888 0.58863 0.98725 0.0
H851 H 0.26991 0.59525 0.9927 0.0
H852 H 0.44911 0.58738 0.24033 0.0
H853 H 0.43045 0.6238 0.24753 0.0
H854 H 0.39275 0.62566 0.20703 0.0
H855 H 0.41184 0.5897 0.19956 0.0
H856 H 0.41594 0.66631 0.21301 0.0
H857 H 0.36418 0.63905 0.26025 0.0
H858 H 0.39416 0.63033 0.26133 0.0
H859 H 0.37565 0.61853 0.24736 0.0
C860 C 0.43672 0.59546 0.233 0.0
C861 C 0.43195 0.58561 0.21938 0.0
C862 C 0.42586 0.61612 0.2372 0.0
C863 C 0.40996 0.62726 0.2279 0.0
C864 C 0.4048 0.61722 0.21443 0.0
H865 H 0.33375 0.75594 0.24741 0.0
H866 H 0.3429 0.71564 0.2408 0.0
C867 C 0.41562 0.59658 0.21022 0.0
C868 C 0.40039 0.65042 0.23162 0.0
H869 H 0.37004 0.68007 0.25727 0.0
C870 C 0.40568 0.66926 0.2226 0.0
C871 C 0.38683 0.6542 0.24407 0.0
C872 C 0.37965 0.63443 0.25375 0.0
C873 C 0.39851 0.69191 0.22597 0.0
C874 C 0.38595 0.69586 0.23877 0.0
C875 C 0.37986 0.67696 0.24753 0.0
C876 C 0.3801 0.71972 0.24351 0.0
C877 C 0.40463 0.71153 0.21587 0.0
C878 C 0.39796 0.73509 0.24749 0.0
C879 C 0.39286 0.758 0.25128 0.0
C880 C 0.36972 0.76607 0.25117 0.0
C881 C 0.35176 0.75038 0.24754 0.0
C882 C 0.35692 0.72735 0.24379 0.0
H883 H 0.40918 0.70501 0.20496 0.0
H884 H 0.38996 0.72401 0.2148 0.0
H885 H 0.4199 0.72108 0.2203 0.0
H886 H 0.41594 0.7294 0.24753 0.0
H887 H 0.40718 0.76944 0.25412 0.0
H888 H 0.37543 0.97605 0.46636 0.0
H889 H 0.34096 0.95613 0.47528 0.0
H890 H 0.38346 0.89852 0.48942 0.0
H891 H 0.41827 0.91857 0.48081 0.0
H892 H 0.34393 0.8862 0.47204 0.0
H893 H 0.31982 0.94447 0.51722 0.0
H894 H 0.3251 0.95929 0.5005 0.0
H895 H 0.34855 0.94427 0.50949 0.0
C896 C 0.3776 0.95939 0.47167 0.0
C897 C 0.39971 0.94899 0.47291 0.0
C898 C 0.35783 0.948 0.47673 0.0
C899 C 0.3597 0.92599 0.48317 0.0
C900 C 0.38168 0.91556 0.48453 0.0
H901 H 0.24671 0.82917 0.5052 0.0
H902 H 0.28548 0.8465 0.50291 0.0
C903 C 0.40152 0.92699 0.47953 0.0
C904 C 0.33846 0.91337 0.48762 0.0
H905 H 0.2908 0.91758 0.50915 0.0
C906 C 0.33243 0.89283 0.48029 0.0
C907 C 0.32354 0.92214 0.49837 0.0
C908 C 0.32962 0.94364 0.50696 0.0
C909 C 0.31131 0.88138 0.48294 0.0
C910 C 0.29609 0.89046 0.49346 0.0
C911 C 0.30248 0.91064 0.50109 0.0
C912 C 0.27278 0.88021 0.496 0.0
C913 C 0.30502 0.86032 0.47397 0.0
C914 C 0.25278 0.89365 0.49346 0.0
C915 C 0.23067 0.8839 0.49491 0.0
C916 C 0.22809 0.86047 0.49895 0.0
C917 C 0.24813 0.84722 0.50198 0.0
C918 C 0.27029 0.85705 0.50059 0.0
H919 H 0.316 0.85884 0.46422 0.0
H920 H 0.30765 0.84438 0.48054 0.0
H921 H 0.28647 0.86095 0.4705 0.0
H922 H 0.25427 0.91158 0.48997 0.0
H923 H 0.2156 0.89461 0.49252 0.0
H924 H 0.06139 0.91194 0.74427 0.0
H925 H 0.0841 0.87958 0.75442 0.0
H926 H 0.08827 0.84852 0.71213 0.0
H927 H 0.06642 0.881 0.70187 0.0
H928 H 0.07283 0.83331 0.75462 0.0
H929 H 0.15544 0.84586 0.72569 0.0
H930 H 0.13333 0.86814 0.72649 0.0
H931 H 0.13109 0.84499 0.71343 0.0
C932 C 0.06751 0.89841 0.73711 0.0
C933 C 0.06205 0.89902 0.72227 0.0
C934 C 0.08037 0.87989 0.74294 0.0
C935 C 0.08819 0.86183 0.734 0.0
C936 C 0.08286 0.8625 0.71919 0.0
H937 H 0.11347 0.71861 0.74563 0.0
H938 H 0.09778 0.7579 0.74402 0.0
C939 C 0.07006 0.88094 0.71337 0.0
C940 C 0.10074 0.84148 0.74013 0.0
H941 H 0.14844 0.80724 0.73497 0.0
C942 C 0.08957 0.82781 0.75052 0.0
C943 C 0.12278 0.83453 0.73501 0.0
C944 C 0.13646 0.8493 0.72466 0.0
C945 C 0.09916 0.80662 0.75523 0.0
C946 C 0.12023 0.79871 0.74916 0.0
C947 C 0.13213 0.81312 0.73948 0.0
C948 C 0.12923 0.77483 0.75169 0.0
C949 C 0.08642 0.79276 0.76649 0.0
C950 C 0.15226 0.77119 0.7564 0.0
C951 C 0.1614 0.74863 0.7572 0.0
C952 C 0.14769 0.72937 0.7532 0.0
C953 C 0.12447 0.73305 0.74887 0.0
C954 C 0.11539 0.75554 0.74804 0.0
H955 H 0.07595 0.8043 0.77354 0.0
H956 H 0.07425 0.78052 0.76104 0.0
H957 H 0.09865 0.78257 0.77336 0.0
H958 H 0.16331 0.78584 0.75916 0.0
H959 H 0.17938 0.74637 0.76054 0.0
H960 H 0.63482 0.48642 0.77634 0.0
H961 H 0.66801 0.46358 0.76812 0.0
H962 H 0.62948 0.40027 0.77494 0.0
H963 H 0.59625 0.42297 0.78351 0.0
H964 H 0.6893 0.42785 0.78712 0.0
H965 H 0.66006 0.39362 0.73366 0.0
H966 H 0.64777 0.4196 0.74152 0.0
H967 H 0.64016 0.39156 0.7485 0.0
C968 C 0.63331 0.46764 0.77603 0.0
C969 C 0.61293 0.45652 0.78072 0.0
C970 C 0.65225 0.45464 0.77124 0.0
C971 C 0.65112 0.43029 0.77086 0.0
C972 C 0.63054 0.41909 0.77497 0.0
H973 H 0.75871 0.32665 0.75369 0.0
H974 H 0.72135 0.34644 0.75713 0.0
C975 C 0.61156 0.4321 0.77984 0.0
C976 C 0.67229 0.41672 0.7675 0.0
H977 H 0.69696 0.38139 0.74225 0.0
C978 C 0.69101 0.4177 0.77731 0.0
C979 C 0.67426 0.40329 0.75479 0.0
C980 C 0.6546 0.40193 0.74391 0.0
C981 C 0.71177 0.40566 0.77474 0.0
C982 C 0.71412 0.39279 0.7618 0.0
C983 C 0.69519 0.39142 0.7521 0.0
C984 C 0.73627 0.38098 0.75818 0.0
C985 C 0.73085 0.40654 0.78606 0.0
C986 C 0.7569 0.3939 0.7571 0.0
C987 C 0.7782 0.38267 0.75525 0.0
C988 C 0.77927 0.35829 0.75424 0.0
C989 C 0.75844 0.34545 0.75447 0.0
C990 C 0.7371 0.35672 0.75644 0.0
H991 H 0.72396 0.41121 0.79685 0.0
H992 H 0.74001 0.38958 0.78695 0.0
H993 H 0.74374 0.42001 0.78303 0.0
H994 H 0.75659 0.41268 0.75805 0.0
H995 H 0.7939 0.39308 0.75496 0.0
H996 H 0.57154 0.07536 0.01231 0.0
H997 H 0.59479 0.10781 0.00315 0.0
H998 H 0.58097 0.14669 0.04198 0.0
H999 H 0.55896 0.1141 0.05148 0.0
H1000 H 0.58098 0.15033 0.99668 0.0
H1001 H 0.64924 0.1576 0.03865 0.0
H1002 H 0.63049 0.13248 0.03724 0.0
H1003 H 0.62116 0.15809 0.04684 0.0
C1004 C 0.5739 0.09063 0.01902 0.0
C1005 C 0.56325 0.09214 0.0326 0.0
C1006 C 0.58709 0.10921 0.01374 0.0
C1007 C 0.59 0.12957 0.02197 0.0
C1008 C 0.57955 0.13098 0.03557 0.0
H1009 H 0.59799 0.27045 0.99829 0.0
H1010 H 0.58886 0.22981 0.00264 0.0
C1011 C 0.56656 0.11244 0.04088 0.0
C1012 C 0.60221 0.15017 0.01602 0.0
H1013 H 0.64054 0.19314 0.02533 0.0
C1014 C 0.59435 0.15943 0.00282 0.0
C1015 C 0.62008 0.16184 0.02378 0.0
C1016 C 0.6309 0.1518 0.03732 0.0
C1017 C 0.60264 0.18085 0.99772 0.0
C1018 C 0.61872 0.19366 0.00626 0.0
C1019 C 0.62786 0.18359 0.01891 0.0
C1020 C 0.6247 0.21821 0.00294 0.0
C1021 C 0.59378 0.18964 0.98333 0.0
C1022 C 0.64799 0.22549 0.00212 0.0
C1023 C 0.65336 0.24898 -0.00014 0.0
C1024 C 0.63551 0.26563 0.99841 0.0
C1025 C 0.61223 0.25818 0.99921 0.0
C1026 C 0.60693 0.23482 0.00157 0.0
H1027 H 0.58917 0.17497 0.97603 0.0
H1028 H 0.57776 0.20003 0.98501 0.0
H1029 H 0.60686 0.20077 0.97793 0.0
H1030 H 0.66201 0.21301 0.00329 0.0
H1031 H 0.67147 0.25408 0.99931 0.0
H1032 H 0.90074 0.05071 0.29275 0.0
H1033 H 0.86381 0.06777 0.28482 0.0
H1034 H 0.90047 0.12564 0.26612 0.0
H1035 H 0.93771 0.10848 0.27387 0.0
H1036 H 0.84714 0.11479 0.29226 0.0
H1037 H 0.85628 0.09898 0.23322 0.0
H1038 H 0.87285 0.08285 0.24654 0.0
H1039 H 0.88022 0.1125 0.24272 0.0
C1040 C 0.901 0.06692 0.28678 0.0
C1041 C 0.92214 0.07816 0.28382 0.0
C1042 C 0.87989 0.07671 0.28236 0.0
C1043 C 0.87948 0.09784 0.27482 0.0
C1044 C 0.90049 0.1092 0.27183 0.0
H1045 H 0.74662 0.17083 0.2593 0.0
H1046 H 0.78807 0.16417 0.26435 0.0
C1047 C 0.92169 0.09946 0.27633 0.0
C1048 C 0.85687 0.10792 0.27031 0.0
H1049 H 0.82124 0.11579 0.24099 0.0
C1050 C 0.84154 0.11534 0.28105 0.0
C1051 C 0.8497 0.10843 0.25567 0.0
C1052 C 0.86548 0.10018 0.24381 0.0
C1053 C 0.81889 0.12272 0.27756 0.0
C1054 C 0.81153 0.12277 0.26294 0.0
C1055 C 0.82707 0.11589 0.25217 0.0
C1056 C 0.78705 0.1276 0.25884 0.0
C1057 C 0.80263 0.12939 0.28956 0.0
C1058 C 0.773 0.10938 0.25375 0.0
C1059 C 0.7494 0.11306 0.25091 0.0
C1060 C 0.73938 0.13514 0.253 0.0
C1061 C 0.75374 0.15361 0.25761 0.0
C1062 C 0.77739 0.14984 0.26055 0.0
H1063 H 0.81002 0.12528 0.3004 0.0
H1064 H 0.79917 0.14837 0.28906 0.0
H1065 H 0.78572 0.12023 0.28827 0.0
H1066 H 0.78018 0.0921 0.25235 0.0
H1067 H 0.73897 0.09847 0.24725 0.0
H1068 H 0.94754 0.41394 0.50753 0.0
H1069 H 0.92846 0.37896 0.49784 0.0
H1070 H 0.89926 0.36523 0.53972 0.0
H1071 H 0.91753 0.40046 0.54922 0.0
H1072 H 0.93462 0.33558 0.50433 0.0
H1073 H 0.84281 0.35574 0.5154 0.0
H1074 H 0.86538 0.37747 0.51682 0.0
H1075 H 0.85967 0.35814 0.53171 0.0
C1076 C 0.93678 0.40356 0.51458 0.0
C1077 C 0.93378 0.41 0.52907 0.0
C1078 C 0.92587 0.38362 0.50905 0.0
C1079 C 0.91195 0.36969 0.51795 0.0
C1080 C 0.90916 0.37608 0.53247 0.0
H1081 H 0.88975 0.22374 0.51563 0.0
H1082 H 0.90463 0.26337 0.51669 0.0
C1083 C 0.91973 0.39616 0.53793 0.0
C1084 C 0.90172 0.34757 0.51247 0.0
H1085 H 0.85222 0.31478 0.51306 0.0
C1086 C 0.91649 0.33121 0.50601 0.0
C1087 C 0.87793 0.34195 0.51427 0.0
C1088 C 0.86052 0.3594 0.51977 0.0
C1089 C 0.90848 0.30897 0.50213 0.0
C1090 C 0.88527 0.30259 0.50527 0.0
C1091 C 0.87014 0.31942 0.5109 0.0
C1092 C 0.87677 0.27826 0.50374 0.0
C1093 C 0.92507 0.29257 0.49477 0.0
C1094 C 0.85573 0.27338 0.49646 0.0
C1095 C 0.84686 0.25068 0.49612 0.0
C1096 C 0.85895 0.23247 0.503 0.0
C1097 C 0.88016 0.23733 0.51006 0.0
C1098 C 0.88882 0.26001 0.51057 0.0
H1099 H 0.93803 0.30231 0.48832 0.0
H1100 H 0.93482 0.28249 0.50307 0.0
H1101 H 0.91575 0.28022 0.48752 0.0
H1102 H 0.84602 0.28718 0.4912 0.0
H1103 H 0.83045 0.24746 0.49063 0.0
H1104 H 0.60395 0.03681 0.47901 0.0
H1105 H 0.64003 0.05621 0.48632 0.0
H1106 H 0.61153 0.12227 0.47298 0.0
H1107 H 0.5753 0.10287 0.46542 0.0
H1108 H 0.66627 0.08383 0.4647 0.0
H1109 H 0.64307 0.13321 0.51433 0.0
H1110 H 0.62705 0.10766 0.50866 0.0
H1111 H 0.62372 0.13438 0.49889 0.0
C1112 C 0.60525 0.0555 0.47775 0.0
C1113 C 0.58687 0.06829 0.47151 0.0
C1114 C 0.62581 0.06656 0.48199 0.0
C1115 C 0.62838 0.09063 0.4802 0.0
C1116 C 0.60974 0.10369 0.47459 0.0
H1117 H 0.75861 0.16823 0.49636 0.0
H1118 H 0.7178 0.15966 0.4903 0.0
C1119 C 0.58907 0.0926 0.47031 0.0
C1120 C 0.6514 0.10137 0.48295 0.0
H1121 H 0.6822 0.13475 0.50695 0.0
C1122 C 0.66973 0.09514 0.47386 0.0
C1123 C 0.6557 0.11631 0.49479 0.0
C1124 C 0.63645 0.12333 0.50482 0.0
C1125 C 0.69248 0.10288 0.47656 0.0
C1126 C 0.69707 0.11683 0.48884 0.0
C1127 C 0.67858 0.12395 0.49759 0.0
C1128 C 0.72124 0.1225 0.49328 0.0
C1129 C 0.7115 0.09576 0.46635 0.0
C1130 C 0.73644 0.1045 0.49726 0.0
C1131 C 0.75964 0.10925 0.50069 0.0
C1132 C 0.76818 0.1322 0.50028 0.0
C1133 C 0.75268 0.15035 0.49672 0.0
C1134 C 0.72936 0.14552 0.49328 0.0
H1135 H 0.70436 0.09087 0.45558 0.0
H1136 H 0.72435 0.10999 0.46497 0.0
H1137 H 0.72077 0.0804 0.47085 0.0
H1138 H 0.73039 0.08665 0.49756 0.0
H1139 H 0.7709 0.09482 0.50354 0.0
H1140 H 0.94349 0.07867 0.74287 0.0
H1141 H 0.92424 0.11466 0.75016 0.0
H1142 H 0.886 0.11585 0.70985 0.0
H1143 H 0.90582 0.08041 0.70223 0.0
H1144 H 0.9082 0.15632 0.71509 0.0
H1145 H 0.85927 0.13074 0.76372 0.0
H1146 H 0.88931 0.12233 0.76473 0.0
H1147 H 0.87061 0.1097 0.75112 0.0
C1148 C 0.93084 0.08648 0.7356 0.0
C1149 C 0.92626 0.07665 0.72195 0.0
C1150 C 0.9196 0.10689 0.73988 0.0
C1151 C 0.9034 0.11778 0.73065 0.0
C1152 C 0.89826 0.10762 0.71721 0.0
H1153 H 0.83466 0.25243 0.74756 0.0
H1154 H 0.83995 0.21097 0.74194 0.0
C1155 C 0.90952 0.08726 0.71291 0.0
C1156 C 0.89391 0.14104 0.7343 0.0
H1157 H 0.86639 0.17184 0.76069 0.0
C1158 C 0.89871 0.1596 0.72494 0.0
C1159 C 0.8814 0.14533 0.74711 0.0
C1160 C 0.87462 0.12592 0.75718 0.0
C1161 C 0.89231 0.18245 0.72838 0.0
C1162 C 0.881 0.18689 0.74156 0.0
C1163 C 0.87522 0.16831 0.75064 0.0
C1164 C 0.87694 0.21101 0.74645 0.0
C1165 C 0.89828 0.20186 0.7181 0.0
C1166 C 0.89588 0.22442 0.75116 0.0
C1167 C 0.89299 0.24792 0.75437 0.0
C1168 C 0.87103 0.25859 0.7529 0.0
C1169 C 0.8518 0.24481 0.74878 0.0
C1170 C 0.85476 0.22115 0.74557 0.0
H1171 H 0.90287 0.19518 0.70724 0.0
H1172 H 0.88346 0.21416 0.71697 0.0
H1173 H 0.91339 0.21172 0.72248 0.0
H1174 H 0.9131 0.2168 0.75198 0.0
H1175 H 0.90817 0.25785 0.75766 0.0
H1176 H 0.91513 0.44837 0.99525 0.0
H1177 H 0.88588 0.4226 0.0059 0.0
H1178 H 0.84747 0.42247 0.96564 0.0
H1179 H 0.8768 0.44743 0.95485 0.0
H1180 H 0.83943 0.43121 0.00963 0.0
H1181 H 0.85019 0.3537 0.97514 0.0
H1182 H 0.87161 0.37667 0.97603 0.0
H1183 H 0.84641 0.37941 0.96441 0.0
C1184 C 0.90063 0.44252 0.98862 0.0
C1185 C 0.89825 0.45 0.97421 0.0
C1186 C 0.88391 0.42789 0.99473 0.0
C1187 C 0.86471 0.4203 0.9865 0.0
C1188 C 0.8624 0.42767 0.97211 0.0
H1189 H 0.72522 0.39135 0.00065 0.0
H1190 H 0.76445 0.40718 0.00012 0.0
C1191 C 0.87902 0.44224 0.96602 0.0
C1192 C 0.84614 0.40591 0.99301 0.0
H1193 H 0.81249 0.35814 0.98633 0.0
C1194 C 0.83382 0.41497 0.00474 0.0
C1195 C 0.83913 0.38444 0.98688 0.0
C1196 C 0.85272 0.37287 0.97502 0.0
C1197 C 0.81358 0.40406 0.00974 0.0
C1198 C 0.80526 0.38386 0.00263 0.0
C1199 C 0.81864 0.37381 0.99167 0.0
C1200 C 0.78154 0.37453 0.00508 0.0
C1201 C 0.801 0.41465 0.02235 0.0
C1202 C 0.77797 0.3508 0.00799 0.0
C1203 C 0.7554 0.34159 0.00817 0.0
C1204 C 0.73608 0.35594 0.00529 0.0
C1205 C 0.73971 0.37982 0.00294 0.0
C1206 C 0.76217 0.38897 0.00277 0.0
H1207 H 0.81335 0.42376 0.02974 0.0
H1208 H 0.78834 0.42774 0.01828 0.0
H1209 H 0.79143 0.40128 0.02858 0.0
H1210 H 0.79268 0.3393 0.00968 0.0
H1211 H 0.75316 0.32311 0.00996 0.0
H1212 H 0.59099 0.41704 0.22188 0.0
H1213 H 0.61115 0.38245 0.23122 0.0
H1214 H 0.54534 0.34727 0.2355 0.0
H1215 H 0.52505 0.38175 0.2264 0.0
H1216 H 0.60371 0.35349 0.25825 0.0
H1217 H 0.5857 0.30815 0.20626 0.0
H1218 H 0.58418 0.33939 0.2081 0.0
H1219 H 0.56096 0.32148 0.21463 0.0
C1220 C 0.58078 0.40211 0.2251 0.0
C1221 C 0.55644 0.40201 0.22323 0.0
C1222 C 0.59233 0.38238 0.23039 0.0
C1223 C 0.57971 0.36229 0.23386 0.0
C1224 C 0.55537 0.36255 0.23271 0.0
H1225 H 0.60902 0.21833 0.25045 0.0
H1226 H 0.59148 0.25677 0.24773 0.0
C1227 C 0.54384 0.38221 0.22744 0.0
C1228 C 0.59189 0.34045 0.23766 0.0
H1229 H 0.60191 0.28559 0.22514 0.0
C1230 C 0.60347 0.33863 0.25103 0.0
C1231 C 0.59157 0.32122 0.22814 0.0
C1232 C 0.58012 0.32258 0.21342 0.0
C1233 C 0.61415 0.31768 0.25533 0.0
C1234 C 0.61347 0.29832 0.24589 0.0
C1235 C 0.60224 0.30039 0.23242 0.0
C1236 C 0.62401 0.27554 0.24964 0.0
C1237 C 0.62546 0.31623 0.27007 0.0
C1238 C 0.64811 0.27334 0.25191 0.0
C1239 C 0.65821 0.25131 0.25356 0.0
C1240 C 0.64437 0.23116 0.25278 0.0
C1241 C 0.62016 0.23351 0.25105 0.0
C1242 C 0.6101 0.25547 0.24949 0.0
H1243 H 0.61949 0.33042 0.27729 0.0
H1244 H 0.62171 0.29924 0.27526 0.0
H1245 H 0.6446 0.31781 0.26895 0.0
H1246 H 0.65924 0.28854 0.25178 0.0
H1247 H 0.67693 0.25004 0.25479 0.0
H1248 H 0.08641 0.97947 0.37977 0.0
H1249 H 0.0993 0.95397 0.39927 0.0
H1250 H 0.11487 0.9001 0.36844 0.0
H1251 H 0.10267 0.92589 0.34868 0.0
H1252 H 0.07708 0.91071 0.40419 0.0
H1253 H 0.17238 0.90021 0.39617 0.0
H1254 H 0.15614 0.92419 0.38847 0.0
H1255 H 0.15374 0.89571 0.38068 0.0
C1256 C 0.09324 0.96249 0.37703 0.0
C1257 C 0.09354 0.95477 0.36262 0.0
C1258 C 0.10044 0.94786 0.38823 0.0
C1259 C 0.10815 0.92522 0.38529 0.0
C1260 C 0.10927 0.91763 0.37092 0.0
H1261 H 0.14608 0.81851 0.44959 0.0
H1262 H 0.13505 0.83697 0.42654 0.0
C1263 C 0.10207 0.93231 0.35966 0.0
C1264 C 0.11277 0.90909 0.39745 0.0
H1265 H 0.15567 0.87957 0.41551 0.0
C1266 C 0.09425 0.90379 0.40661 0.0
C1267 C 0.1351 0.89988 0.40047 0.0
C1268 C 0.15559 0.90532 0.39102 0.0
C1269 C 0.09756 0.89005 0.41894 0.0
C1270 C 0.12004 0.88161 0.42234 0.0
C1271 C 0.13844 0.88611 0.41288 0.0
C1272 C 0.12507 0.86969 0.43623 0.0
C1273 C 0.07701 0.88491 0.42832 0.0
C1274 C 0.12305 0.88196 0.44926 0.0
C1275 C 0.12945 0.87153 0.46232 0.0
C1276 C 0.13749 0.84849 0.46265 0.0
C1277 C 0.13935 0.83612 0.44962 0.0
C1278 C 0.13317 0.84665 0.43649 0.0
H1279 H 0.06026 0.88711 0.42237 0.0
H1280 H 0.07799 0.86689 0.43256 0.0
H1281 H 0.07718 0.89721 0.43755 0.0
H1282 H 0.11734 0.89992 0.44927 0.0
H1283 H 0.12902 0.88183 0.47211 0.0
H1284 H 0.0931 0.57968 0.60035 0.0
H1285 H 0.11702 0.59917 0.61882 0.0
H1286 H 0.06444 0.58566 0.65056 0.0
H1287 H 0.04076 0.56563 0.6324 0.0
H1288 H 0.08342 0.63446 0.64845 0.0
H1289 H 0.15025 0.56467 0.65422 0.0
H1290 H 0.14237 0.57428 0.63631 0.0
H1291 H 0.12154 0.55889 0.64694 0.0
C1292 C 0.0867 0.58068 0.61129 0.0
C1293 C 0.06496 0.57108 0.61487 0.0
C1294 C 0.10036 0.59188 0.62179 0.0
C1295 C 0.09249 0.5937 0.63602 0.0
C1296 C 0.07074 0.58445 0.6396 0.0
H1297 H 0.12494 0.64307 0.71977 0.0
H1298 H 0.1081 0.63107 0.69663 0.0
C1299 C 0.05716 0.57316 0.62917 0.0
C1300 C 0.10674 0.60524 0.64732 0.0
H1301 H 0.15353 0.59687 0.6697 0.0
C1302 C 0.09888 0.62638 0.65303 0.0
C1303 C 0.127 0.59473 0.65313 0.0
C1304 C 0.13588 0.57183 0.64744 0.0
C1305 C 0.11039 0.637 0.66472 0.0
C1306 C 0.12994 0.62586 0.67106 0.0
C1307 C 0.13846 0.60528 0.66489 0.0
C1308 C 0.14034 0.63403 0.68488 0.0
C1309 C 0.10136 0.65996 0.67024 0.0
C1310 C 0.16419 0.63921 0.68605 0.0
C1311 C 0.17391 0.6458 0.69938 0.0
C1312 C 0.15998 0.6466 0.71172 0.0
C1313 C 0.1361 0.64196 0.71044 0.0
C1314 C 0.12641 0.63546 0.69719 0.0
H1315 H 0.09223 0.66981 0.66155 0.0
H1316 H 0.08864 0.65668 0.67893 0.0
H1317 H 0.11565 0.67091 0.67469 0.0
H1318 H 0.17525 0.6381 0.67668 0.0
H1319 H 0.19231 0.64974 0.70014 0.0
H1320 H 0.42049 0.59574 0.84781 0.0
H1321 H 0.39598 0.6148 0.86586 0.0
H1322 H 0.45036 0.60595 0.89787 0.0
H1323 H 0.47485 0.5873 0.87997 0.0
H1324 H 0.37906 0.59707 0.88989 0.0
H1325 H 0.43326 0.67248 0.90501 0.0
H1326 H 0.43876 0.65539 0.88904 0.0
H1327 H 0.45005 0.6463 0.90639 0.0
C1328 C 0.42724 0.59809 0.85868 0.0
C1329 C 0.44967 0.5902 0.86244 0.0
C1330 C 0.41329 0.60906 0.86895 0.0
C1331 C 0.42153 0.61234 0.88315 0.0
C1332 C 0.44391 0.60443 0.88688 0.0
H1333 H 0.36 0.60295 0.96349 0.0
H1334 H 0.37458 0.5994 0.93915 0.0
C1335 C 0.45787 0.59364 0.87663 0.0
C1336 C 0.4062 0.62197 0.89449 0.0
H1337 H 0.40667 0.65865 0.9235 0.0
C1338 C 0.38486 0.6109 0.89704 0.0
C1339 C 0.41338 0.64043 0.90365 0.0
C1340 C 0.435 0.65449 0.90076 0.0
C1341 C 0.37153 0.61646 0.90916 0.0
C1342 C 0.38004 0.63311 0.91917 0.0
C1343 C 0.40034 0.64557 0.91598 0.0
C1344 C 0.36978 0.63571 0.93371 0.0
C1345 C 0.34876 0.60393 0.91133 0.0
C1346 C 0.36278 0.65752 0.93898 0.0
C1347 C 0.35454 0.65973 0.95311 0.0
C1348 C 0.35338 0.64018 0.96223 0.0
C1349 C 0.36042 0.61842 0.95682 0.0
C1350 C 0.36862 0.61627 0.9428 0.0
H1351 H 0.34072 0.59896 0.90081 0.0
H1352 H 0.35202 0.58768 0.9175 0.0
H1353 H 0.33623 0.61479 0.91739 0.0
H1354 H 0.36382 0.67281 0.93219 0.0
H1355 H 0.34938 0.67676 0.95693 0.0
H1356 H 0.45855 0.90922 0.11829 0.0
H1357 H 0.44032 0.88947 0.13858 0.0
H1358 H 0.37594 0.92545 0.12963 0.0
H1359 H 0.3939 0.945 0.1091 0.0
H1360 H 0.39275 0.93077 0.15804 0.0
H1361 H 0.39083 0.83778 0.14206 0.0
H1362 H 0.41857 0.85156 0.13959 0.0
H1363 H 0.39383 0.8611 0.12913 0.0
C1364 C 0.44032 0.91243 0.12034 0.0
C1365 C 0.42773 0.92879 0.11209 0.0
C1366 C 0.42992 0.90112 0.13197 0.0
C1367 C 0.40674 0.90587 0.13554 0.0
C1368 C 0.39385 0.92151 0.12702 0.0
H1369 H 0.33525 0.84286 0.20947 0.0
H1370 H 0.34357 0.85709 0.18508 0.0
C1371 C 0.40419 0.93276 0.11535 0.0
C1372 C 0.39685 0.89647 0.14904 0.0
H1373 H 0.38597 0.846 0.16723 0.0
C1374 C 0.39095 0.91225 0.15998 0.0
C1375 C 0.39439 0.87231 0.1515 0.0
C1376 C 0.39952 0.85468 0.13991 0.0
C1377 C 0.38363 0.90448 0.17354 0.0
C1378 C 0.38229 0.88033 0.17624 0.0
C1379 C 0.38719 0.86452 0.16513 0.0
C1380 C 0.37725 0.87131 0.19082 0.0
C1381 C 0.37776 0.92214 0.18499 0.0
C1382 C 0.39357 0.87441 0.202 0.0
C1383 C 0.38898 0.86627 0.21587 0.0
C1384 C 0.3679 0.85486 0.21886 0.0
C1385 C 0.3516 0.85164 0.20757 0.0
C1386 C 0.35633 0.85969 0.19363 0.0
H1387 H 0.37453 0.93965 0.1803 0.0
H1388 H 0.36215 0.91667 0.19108 0.0
H1389 H 0.39254 0.92354 0.19276 0.0
H1390 H 0.40991 0.88317 0.19999 0.0
H1391 H 0.40195 0.86911 0.22426 0.0
H1392 H 0.04751 0.61745 0.89268 0.0
H1393 H 0.06993 0.63217 0.8722 0.0
H1394 H 0.09794 0.56357 0.86519 0.0
H1395 H 0.07539 0.54863 0.88538 0.0
H1396 H 0.12206 0.62759 0.86542 0.0
H1397 H 0.06097 0.58385 0.82714 0.0
H1398 H 0.05342 0.59024 0.8456 0.0
H1399 H 0.07209 0.56608 0.84164 0.0
C1400 C 0.05857 0.60555 0.88683 0.0
C1401 C 0.05956 0.58184 0.8906 0.0
C1402 C 0.07146 0.61402 0.87522 0.0
C1403 C 0.0854 0.59889 0.86718 0.0
C1404 C 0.08719 0.57547 0.87127 0.0
H1405 H 0.15727 0.59631 0.78716 0.0
H1406 H 0.14038 0.5892 0.81075 0.0
C1407 C 0.0744 0.56701 0.88287 0.0
C1408 C 0.09677 0.60697 0.85385 0.0
H1409 H 0.0951 0.6 0.81729 0.0
C1410 C 0.11615 0.62176 0.85486 0.0
C1411 C 0.08883 0.59939 0.84014 0.0
C1412 C 0.06757 0.58416 0.83846 0.0
C1413 C 0.12843 0.62842 0.84247 0.0
C1414 C 0.1208 0.62032 0.82878 0.0
C1415 C 0.10101 0.60607 0.82781 0.0
C1416 C 0.13344 0.62545 0.81528 0.0
C1417 C 0.14988 0.64334 0.84414 0.0
C1418 C 0.13551 0.6483 0.81007 0.0
C1419 C 0.14533 0.65249 0.79653 0.0
C1420 C 0.15295 0.63384 0.78793 0.0
C1421 C 0.15144 0.61108 0.79342 0.0
C1422 C 0.14181 0.60696 0.80693 0.0
H1423 H 0.15631 0.64377 0.8555 0.0
H1424 H 0.16405 0.63691 0.83714 0.0
H1425 H 0.14567 0.66142 0.84083 0.0
H1426 H 0.12877 0.6628 0.81622 0.0
H1427 H 0.14611 0.67021 0.79259 0.0
H1428 H 0.46199 0.59436 0.13662 0.0
H1429 H 0.44323 0.61615 0.11704 0.0
H1430 H 0.37874 0.58019 0.12489 0.0
H1431 H 0.39724 0.5587 0.1447 0.0
H1432 H 0.4253 0.59176 0.09339 0.0
H1433 H 0.3574 0.64774 0.11744 0.0
H1434 H 0.38168 0.63629 0.12777 0.0
H1435 H 0.3571 0.61809 0.12357 0.0
C1436 C 0.44362 0.59164 0.1345 0.0
C1437 C 0.43112 0.5747 0.14215 0.0
C1438 C 0.43295 0.60405 0.12327 0.0
C1439 C 0.40956 0.59992 0.11959 0.0
C1440 C 0.39669 0.58394 0.12771 0.0
H1441 H 0.31524 0.63496 0.04932 0.0
H1442 H 0.33389 0.62236 0.07197 0.0
C1443 C 0.40736 0.57148 0.13891 0.0
C1444 C 0.39969 0.60955 0.10602 0.0
H1445 H 0.35506 0.6418 0.09203 0.0
C1446 C 0.41003 0.60287 0.09305 0.0
C1447 C 0.37975 0.62388 0.10567 0.0
C1448 C 0.36841 0.63213 0.11936 0.0
C1449 C 0.40055 0.60935 0.07965 0.0
C1450 C 0.3803 0.62356 0.07915 0.0
C1451 C 0.37032 0.63071 0.09226 0.0
C1452 C 0.36897 0.63086 0.06528 0.0
C1453 C 0.41223 0.60005 0.06635 0.0
C1454 C 0.3822 0.64004 0.05394 0.0
C1455 C 0.37171 0.64551 0.04071 0.0
C1456 C 0.34758 0.64335 0.03884 0.0
C1457 C 0.334 0.63589 0.05041 0.0
C1458 C 0.34467 0.62906 0.0634 0.0
H1459 H 0.42001 0.58263 0.06837 0.0
H1460 H 0.39998 0.59856 0.05717 0.0
H1461 H 0.42656 0.61196 0.0633 0.0
H1462 H 0.40071 0.6429 0.05524 0.0
H1463 H 0.38237 0.65213 0.03205 0.0
H1464 H 0.3937 0.92514 0.40598 0.0
H1465 H 0.37267 0.90119 0.38814 0.0
H1466 H 0.4302 0.90757 0.3589 0.0
H1467 H 0.4511 0.93144 0.37647 0.0
H1468 H 0.35905 0.91268 0.36024 0.0
H1469 H 0.41901 0.83756 0.35937 0.0
H1470 H 0.41979 0.85913 0.37357 0.0
H1471 H 0.43418 0.86446 0.35671 0.0
C1472 C 0.40183 0.9214 0.39575 0.0
C1473 C 0.4242 0.92994 0.39271 0.0
C1474 C 0.38987 0.90763 0.38562 0.0
C1475 C 0.40014 0.90214 0.37236 0.0
C1476 C 0.42227 0.91096 0.36925 0.0
H1477 H 0.35283 0.87811 0.28787 0.0
H1478 H 0.3628 0.89238 0.312 0.0
C1479 C 0.43418 0.92464 0.37931 0.0
C1480 C 0.38749 0.88831 0.36129 0.0
H1481 H 0.3945 0.84259 0.33827 0.0
C1482 C 0.36656 0.89711 0.35559 0.0
C1483 C 0.39702 0.86771 0.35543 0.0
C1484 C 0.41861 0.85653 0.3617 0.0
C1485 C 0.35586 0.88684 0.34348 0.0
C1486 C 0.36662 0.86755 0.33679 0.0
C1487 C 0.3865 0.85766 0.34321 0.0
C1488 C 0.35902 0.85887 0.32242 0.0
C1489 C 0.33338 0.89707 0.3378 0.0
C1490 C 0.35408 0.83518 0.32017 0.0
C1491 C 0.34875 0.82696 0.30629 0.0
C1492 C 0.34897 0.84223 0.29449 0.0
C1493 C 0.35324 0.86595 0.2968 0.0
C1494 C 0.3585 0.87416 0.31061 0.0
H1495 H 0.32333 0.90528 0.34663 0.0
H1496 H 0.33736 0.91082 0.3298 0.0
H1497 H 0.32234 0.88366 0.33248 0.0
H1498 H 0.35451 0.82307 0.32913 0.0
H1499 H 0.34502 0.80865 0.30471 0.0
H1500 H 0.04944 0.89264 0.63913 0.0
H1501 H 0.07328 0.87513 0.62044 0.0
H1502 H 0.12386 0.93006 0.62554 0.0
H1503 H 0.09944 0.94843 0.64374 0.0
H1504 H 0.1124 0.92464 0.59817 0.0
H1505 H 0.13182 0.83769 0.62033 0.0
H1506 H 0.10112 0.84304 0.6206 0.0
H1507 H 0.12045 0.8609 0.63135 0.0
C1508 C 0.06568 0.90098 0.63634 0.0
C1509 C 0.0724 0.92206 0.64289 0.0
C1510 C 0.07953 0.8907 0.62581 0.0
C1511 C 0.10062 0.90102 0.62175 0.0
C1512 C 0.10778 0.92165 0.6286 0.0
H1513 H 0.17542 0.86173 0.54202 0.0
H1514 H 0.17083 0.87533 0.56703 0.0
C1515 C 0.09384 0.93205 0.63908 0.0
C1516 C 0.11363 0.89168 0.60924 0.0
H1517 H 0.13244 0.84096 0.59405 0.0
C1518 C 0.11739 0.90648 0.59742 0.0
C1519 C 0.12027 0.86801 0.60826 0.0
C1520 C 0.11843 0.8516 0.6209 0.0
C1521 C 0.12598 0.89789 0.58434 0.0
C1522 C 0.13095 0.87392 0.58306 0.0
C1523 C 0.12852 0.85935 0.59509 0.0
C1524 C 0.13531 0.86333 0.5688 0.0
C1525 C 0.12825 0.91414 0.57164 0.0
C1526 C 0.11705 0.85168 0.56176 0.0
C1527 C 0.1195 0.84414 0.54755 0.0
C1528 C 0.14039 0.84792 0.54013 0.0
C1529 C 0.15915 0.85854 0.54747 0.0
C1530 C 0.15656 0.86635 0.56171 0.0
H1531 H 0.1228 0.93219 0.57427 0.0
H1532 H 0.14663 0.91452 0.56808 0.0
H1533 H 0.11748 0.90773 0.56244 0.0
H1534 H 0.10052 0.84923 0.56707 0.0
H1535 H 0.10479 0.83583 0.54226 0.0
H1536 H 0.60571 0.42342 0.84764 0.0
H1537 H 0.6236 0.39766 0.86571 0.0
H1538 H 0.60914 0.44787 0.899 0.0
H1539 H 0.59071 0.47338 0.88122 0.0
H1540 H 0.65724 0.42758 0.89816 0.0
H1541 H 0.58521 0.36257 0.89809 0.0
H1542 H 0.59696 0.37147 0.881 0.0
H1543 H 0.58098 0.39193 0.89163 0.0
C1544 C 0.60623 0.42894 0.85881 0.0
C1545 C 0.59674 0.4505 0.86296 0.0
C1546 C 0.61651 0.41423 0.8691 0.0
C1547 C 0.61751 0.42087 0.88366 0.0
C1548 C 0.60855 0.44251 0.88778 0.0
H1549 H 0.65564 0.38191 0.96819 0.0
H1550 H 0.64734 0.40026 0.94494 0.0
C1551 C 0.59818 0.45714 0.87757 0.0
C1552 C 0.62758 0.40529 0.89478 0.0
H1553 H 0.61545 0.35726 0.91497 0.0
C1554 C 0.64826 0.41206 0.90176 0.0
C1555 C 0.61592 0.38495 0.8993 0.0
C1556 C 0.59347 0.3772 0.89221 0.0
C1557 C 0.6572 0.39943 0.91352 0.0
C1558 C 0.6448 0.37986 0.91861 0.0
C1559 C 0.62481 0.37237 0.91112 0.0
C1560 C 0.65084 0.36853 0.93252 0.0
C1561 C 0.6797 0.40735 0.92048 0.0
C1562 C 0.65505 0.34447 0.93333 0.0
C1563 C 0.65949 0.3339 0.9467 0.0
C1564 C 0.65908 0.34719 0.9594 0.0
C1565 C 0.6554 0.37125 0.95853 0.0
C1566 C 0.65105 0.38179 0.94524 0.0
H1567 H 0.69087 0.41655 0.9126 0.0
H1568 H 0.67578 0.41974 0.92932 0.0
H1569 H 0.68963 0.39248 0.92509 0.0
H1570 H 0.65484 0.33392 0.92363 0.0
H1571 H 0.66272 0.31534 0.94718 0.0
H1572 H 0.58945 0.04742 0.11448 0.0
H1573 H 0.61145 0.06529 0.13427 0.0
H1574 H 0.56567 0.12469 0.13314 0.0
H1575 H 0.54385 0.10723 0.11298 0.0
H1576 H 0.61514 0.13524 0.13764 0.0
H1577 H 0.58064 0.06792 0.17477 0.0
H1578 H 0.59464 0.05682 0.15894 0.0
H1579 H 0.56817 0.07323 0.1571 0.0
C1580 C 0.58435 0.06454 0.11817 0.0
C1581 C 0.56477 0.07584 0.1122 0.0
C1582 C 0.59685 0.07463 0.12956 0.0
C1583 C 0.58997 0.09613 0.13525 0.0
C1584 C 0.57117 0.10802 0.1289 0.0
H1585 H 0.62114 0.1424 0.22218 0.0
H1586 H 0.60284 0.13022 0.19948 0.0
C1587 C 0.55863 0.09794 0.11748 0.0
C1588 C 0.60128 0.10529 0.1485 0.0
H1589 H 0.60841 0.09382 0.1843 0.0
C1590 C 0.61388 0.12616 0.14787 0.0
C1591 C 0.59908 0.09364 0.16184 0.0
C1592 C 0.58474 0.07177 0.16332 0.0
C1593 C 0.62479 0.13549 0.16025 0.0
C1594 C 0.62332 0.12334 0.17353 0.0
C1595 C 0.61018 0.10278 0.17412 0.0
C1596 C 0.63459 0.13175 0.18709 0.0
C1597 C 0.63707 0.1586 0.15905 0.0
C1598 C 0.65857 0.13662 0.18777 0.0
C1599 C 0.66896 0.14395 0.20075 0.0
C1600 C 0.65569 0.14554 0.21332 0.0
C1601 C 0.63179 0.14071 0.21266 0.0
C1602 C 0.62134 0.13387 0.19968 0.0
H1603 H 0.63041 0.16883 0.1497 0.0
H1604 H 0.63498 0.16915 0.169 0.0
H1605 H 0.65591 0.15554 0.15737 0.0
H1606 H 0.66933 0.13449 0.17835 0.0
H1607 H 0.6874 0.14784 0.20106 0.0
H1608 H 0.93165 0.0533 0.37009 0.0
H1609 H 0.91019 0.06956 0.39037 0.0
H1610 H 0.9366 0.13787 0.38056 0.0
H1611 H 0.95801 0.12177 0.36004 0.0
H1612 H 0.9364 0.09638 0.41356 0.0
H1613 H 0.86302 0.14466 0.38752 0.0
H1614 H 0.87676 0.12016 0.37882 0.0
H1615 H 0.89183 0.14737 0.38018 0.0
C1616 C 0.93247 0.07188 0.372 0.0
C1617 C 0.94653 0.08625 0.36345 0.0
C1618 C 0.92029 0.08111 0.38363 0.0
C1619 C 0.92174 0.1049 0.38686 0.0
C1620 C 0.93512 0.11949 0.37812 0.0
H1621 H 0.86257 0.17511 0.46271 0.0
H1622 H 0.88054 0.16859 0.43908 0.0
C1623 C 0.94745 0.11024 0.36649 0.0
C1624 C 0.91098 0.1138 0.4002 0.0
H1625 H 0.8646 0.14438 0.413 0.0
C1626 C 0.92079 0.10701 0.41346 0.0
C1627 C 0.89084 0.12789 0.39996 0.0
C1628 C 0.87981 0.13549 0.3859 0.0
C1629 C 0.91066 0.11348 0.42654 0.0
C1630 C 0.88984 0.12663 0.42634 0.0
C1631 C 0.88048 0.1342 0.41309 0.0
C1632 C 0.87693 0.13114 0.43981 0.0
C1633 C 0.92224 0.106 0.44049 0.0
C1634 C 0.86829 0.11233 0.44773 0.0
C1635 C 0.85819 0.11593 0.46115 0.0
C1636 C 0.85629 0.1385 0.46691 0.0
C1637 C 0.86382 0.15751 0.45859 0.0
C1638 C 0.87409 0.15383 0.44512 0.0
H1639 H 0.941 0.10214 0.43897 0.0
H1640 H 0.92057 0.11962 0.44893 0.0
H1641 H 0.91375 0.08991 0.44445 0.0
H1642 H 0.86989 0.09472 0.44367 0.0
H1643 H 0.85228 0.1009 0.46713 0.0
H1644 H 0.95779 0.40364 0.6158 0.0
H1645 H 0.93962 0.38262 0.63562 0.0
H1646 H 0.87481 0.41805 0.6271 0.0
H1647 H 0.89276 0.43894 0.607 0.0
H1648 H 0.91935 0.41001 0.65923 0.0
H1649 H 0.85691 0.34738 0.63412 0.0
H1650 H 0.88201 0.35818 0.62461 0.0
H1651 H 0.85742 0.37678 0.62737 0.0
C1652 C 0.93949 0.40647 0.61783 0.0
C1653 C 0.92674 0.42302 0.60984 0.0
C1654 C 0.92917 0.39452 0.6292 0.0
C1655 C 0.90588 0.39871 0.63274 0.0
C1656 C 0.89274 0.41438 0.62441 0.0
H1657 H 0.83369 0.35583 0.71164 0.0
H1658 H 0.84071 0.3707 0.68718 0.0
C1659 C 0.90308 0.42644 0.61303 0.0
C1660 C 0.89644 0.38885 0.64621 0.0
H1661 H 0.85861 0.34862 0.65964 0.0
C1662 C 0.90601 0.39665 0.65932 0.0
C1663 C 0.87881 0.3717 0.64625 0.0
C1664 C 0.86815 0.36283 0.63236 0.0
C1665 C 0.89878 0.38743 0.67252 0.0
C1666 C 0.88186 0.36956 0.67258 0.0
C1667 C 0.87166 0.36224 0.6595 0.0
C1668 C 0.87591 0.35754 0.68616 0.0
C1669 C 0.90947 0.39674 0.68632 0.0
C1670 C 0.89305 0.3445 0.69335 0.0
C1671 C 0.8892 0.33618 0.70724 0.0
C1672 C 0.86801 0.34056 0.71419 0.0
C1673 C 0.85018 0.3522 0.70657 0.0
C1674 C 0.85416 0.36071 0.69262 0.0
H1675 H 0.91744 0.41416 0.68472 0.0
H1676 H 0.89626 0.39806 0.69495 0.0
H1677 H 0.92334 0.38469 0.69008 0.0
H1678 H 0.90984 0.34162 0.68844 0.0
H1679 H 0.90317 0.32699 0.71273 0.0
H1680 H 0.55646 0.04988 0.3716 0.0
H1681 H 0.57758 0.07158 0.35329 0.0
H1682 H 0.60428 0.11815 0.386 0.0
H1683 H 0.58338 0.09616 0.40457 0.0
H1684 H 0.57342 0.12139 0.34717 0.0
H1685 H 0.66275 0.09339 0.36358 0.0
H1686 H 0.63718 0.07748 0.36898 0.0
H1687 H 0.64381 0.10499 0.37718 0.0
C1688 C 0.56704 0.06456 0.37496 0.0
C1689 C 0.56845 0.07115 0.38956 0.0
C1690 C 0.57893 0.07705 0.36446 0.0
C1691 C 0.59256 0.09635 0.36832 0.0
C1692 C 0.59396 0.10317 0.38285 0.0
H1693 H 0.64865 0.17508 0.29422 0.0
H1694 H 0.63395 0.1688 0.31871 0.0
C1695 C 0.58194 0.09069 0.39341 0.0
C1696 C 0.60521 0.10899 0.35692 0.0
H1697 H 0.65895 0.1144 0.34196 0.0
C1698 C 0.59218 0.12035 0.34614 0.0
C1699 C 0.62965 0.10744 0.35566 0.0
C1700 C 0.64431 0.09511 0.36689 0.0
C1701 C 0.60282 0.12918 0.33373 0.0
C1702 C 0.62715 0.12672 0.33216 0.0
C1703 C 0.64033 0.11639 0.34328 0.0
C1704 C 0.63851 0.13145 0.3182 0.0
C1705 C 0.5878 0.13969 0.32196 0.0
C1706 C 0.6466 0.11263 0.31005 0.0
C1707 C 0.65493 0.1161 0.29614 0.0
C1708 C 0.65548 0.13854 0.29008 0.0
C1709 C 0.64841 0.15758 0.29854 0.0
C1710 C 0.63993 0.15403 0.3125 0.0
H1711 H 0.56893 0.13778 0.32417 0.0
H1712 H 0.59177 0.15852 0.321 0.0
H1713 H 0.59157 0.13139 0.31141 0.0
H1714 H 0.64567 0.09507 0.31426 0.0
H1715 H 0.66043 0.10105 0.29002 0.0
H1716 H 0.89427 0.05175 0.64651 0.0
H1717 H 0.8753 0.074 0.62711 0.0
H1718 H 0.93871 0.11238 0.62048 0.0
H1719 H 0.95792 0.09008 0.63971 0.0
H1720 H 0.8759 0.13069 0.62074 0.0
H1721 H 0.91868 0.06945 0.58262 0.0
H1722 H 0.91258 0.06137 0.60103 0.0
H1723 H 0.93572 0.08134 0.59732 0.0
C1724 C 0.90407 0.06516 0.64106 0.0
C1725 C 0.92765 0.06903 0.64455 0.0
C1726 C 0.89316 0.07796 0.63008 0.0
C1727 C 0.90566 0.09475 0.62243 0.0
C1728 C 0.92879 0.09955 0.62637 0.0
H1729 H 0.88244 0.1479 0.53612 0.0
H1730 H 0.89889 0.13638 0.55944 0.0
C1731 C 0.9397 0.08684 0.63738 0.0
C1732 C 0.89559 0.10507 0.60917 0.0
H1733 H 0.89647 0.09952 0.57268 0.0
C1734 C 0.88012 0.12384 0.61018 0.0
C1735 C 0.90147 0.0962 0.5955 0.0
C1736 C 0.91795 0.07592 0.59392 0.0
C1737 C 0.8704 0.13413 0.59771 0.0
C1738 C 0.87584 0.12486 0.58394 0.0
C1739 C 0.89169 0.1063 0.58311 0.0
C1740 C 0.86563 0.13391 0.57019 0.0
C1741 C 0.85519 0.15532 0.59947 0.0
C1742 C 0.84143 0.13664 0.56834 0.0
C1743 C 0.8321 0.14395 0.55506 0.0
C1744 C 0.84673 0.14745 0.54325 0.0
C1745 C 0.87082 0.14482 0.54505 0.0
C1746 C 0.8802 0.13828 0.55839 0.0
H1747 H 0.8595 0.16481 0.6096 0.0
H1748 H 0.85701 0.16751 0.59026 0.0
H1749 H 0.83674 0.14976 0.6001 0.0
H1750 H 0.82966 0.13263 0.57703 0.0
H1751 H 0.81345 0.14608 0.55386 0.0
H1752 H 0.91953 0.47548 0.87326 0.0
H1753 H 0.90676 0.44943 0.85398 0.0
H1754 H 0.88957 0.39699 0.88537 0.0
H1755 H 0.90174 0.42331 0.9049 0.0
H1756 H 0.92834 0.40506 0.85003 0.0
H1757 H 0.83248 0.39784 0.857 0.0
H1758 H 0.84913 0.42186 0.86432 0.0
H1759 H 0.85062 0.39383 0.87277 0.0
C1760 C 0.91241 0.45869 0.87615 0.0
C1761 C 0.91162 0.45152 0.89066 0.0
C1762 C 0.90527 0.44375 0.86509 0.0
C1763 C 0.8971 0.42137 0.86826 0.0
C1764 C 0.89555 0.41432 0.88272 0.0
H1765 H 0.85714 0.31393 0.80484 0.0
H1766 H 0.86811 0.33271 0.82781 0.0
C1767 C 0.90272 0.4293 0.89384 0.0
C1768 C 0.89239 0.4049 0.85629 0.0
H1769 H 0.84909 0.37622 0.83805 0.0
C1770 C 0.91103 0.39863 0.84746 0.0
C1771 C 0.86985 0.39635 0.85309 0.0
C1772 C 0.84926 0.40284 0.8622 0.0
C1773 C 0.90766 0.38453 0.83529 0.0
C1774 C 0.88502 0.37676 0.83167 0.0
C1775 C 0.86645 0.38225 0.84082 0.0
C1776 C 0.88003 0.36455 0.81788 0.0
C1777 C 0.92836 0.37827 0.82629 0.0
C1778 C 0.88313 0.37622 0.80473 0.0
C1779 C 0.87678 0.36561 0.79171 0.0
C1780 C 0.86766 0.34296 0.79154 0.0
C1781 C 0.86469 0.33119 0.80468 0.0
C1782 C 0.87085 0.34191 0.81777 0.0
H1783 H 0.94495 0.38008 0.83245 0.0
H1784 H 0.92686 0.36014 0.82229 0.0
H1785 H 0.92901 0.3902 0.81689 0.0
H1786 H 0.88967 0.39389 0.80458 0.0
H1787 H 0.8781 0.37551 0.78181 0.0
H1788 H 0.5949 0.44993 0.13965 0.0
H1789 H 0.61645 0.43255 0.11975 0.0
H1790 H 0.56625 0.37693 0.11704 0.0
H1791 H 0.54506 0.39367 0.13731 0.0
H1792 H 0.61278 0.36223 0.1126 0.0
H1793 H 0.58875 0.43886 0.07889 0.0
H1794 H 0.60441 0.4453 0.0953 0.0
H1795 H 0.57561 0.43324 0.09614 0.0
C1796 C 0.58874 0.43368 0.13509 0.0
C1797 C 0.56806 0.42335 0.13997 0.0
C1798 C 0.60098 0.42389 0.12362 0.0
C1799 C 0.59268 0.40372 0.11675 0.0
C1800 C 0.57286 0.3926 0.12214 0.0
H1801 H 0.59982 0.35614 0.03043 0.0
H1802 H 0.59072 0.36981 0.05456 0.0
C1803 C 0.56066 0.40231 0.13363 0.0
C1804 C 0.60335 0.39523 0.10324 0.0
H1805 H 0.61055 0.40946 0.06779 0.0
C1806 C 0.61254 0.37259 0.10282 0.0
C1807 C 0.60276 0.40875 0.09048 0.0
C1808 C 0.5922 0.43281 0.09011 0.0
C1809 C 0.62079 0.36298 0.08988 0.0
C1810 C 0.61994 0.37645 0.07712 0.0
C1811 C 0.61127 0.39924 0.07764 0.0
C1812 C 0.62591 0.36671 0.06282 0.0
C1813 C 0.62943 0.3382 0.08979 0.0
C1814 C 0.64879 0.36028 0.05947 0.0
C1815 C 0.65416 0.35236 0.04558 0.0
C1816 C 0.63671 0.35087 0.03481 0.0
C1817 C 0.61377 0.35707 0.03837 0.0
C1818 C 0.60848 0.36491 0.05219 0.0
H1819 H 0.62548 0.32897 0.10002 0.0
H1820 H 0.6215 0.32841 0.08065 0.0
H1821 H 0.64857 0.33815 0.08834 0.0
H1822 H 0.66256 0.36185 0.06749 0.0
H1823 H 0.67201 0.34783 0.04322 0.0
loop_
_geom_bond_atom_site_label_1
_geom_bond_atom_site_label_2
_geom_bond_distance
_geom_bond_site_symmetry_2
_ccdc_geom_bond_type
H0 C19 0.949 . S
H1 C20 0.950 . S
H2 C22 0.950 . S
H3 C23 0.950 . S
H4 C25 0.950 . S
H5 C28 0.950 . S
H6 C29 0.950 . S
H7 C31 0.951 . S
H8 C32 0.949 1_565 S
H9 C34 0.949 . S
H10 C35 0.950 . S
H11 C37 0.950 . S
H12 C38 0.950 . S
H13 C40 0.950 1_655 S
H14 C43 0.950 . S
H15 C44 0.950 . S
H16 C46 0.951 . S
H17 C47 0.949 1_545 S
C18 C19 1.376 . S
C18 C23 1.386 . S
C18 C24 1.483 . S
C19 H0 0.949 . S
C19 C18 1.376 . S
C19 C20 1.397 . S
C20 H1 0.950 . S
C20 C19 1.397 . S
C20 C21 1.391 . S
C21 C20 1.391 . S
C21 C22 1.405 . S
C22 H2 0.950 . S
C22 C21 1.405 . S
C22 C23 1.367 . S
C23 H3 0.950 . S
C23 C18 1.386 . S
C23 C22 1.367 . S
C24 C18 1.483 . S
C24 C25 1.382 1_655 S
C24 C26 1.403 . S
C25 H4 0.950 . S
C25 C24 1.382 1_455 S
C25 C41 1.411 1_545 S
C26 C24 1.403 . S
C26 C27 1.489 . S
C26 C40 1.413 1_645 S
C27 C26 1.489 . S
C27 C28 1.383 . S
C27 C32 1.382 . S
C28 H5 0.950 . S
C28 C27 1.383 . S
C28 C29 1.395 . S
C29 H6 0.950 . S
C29 C28 1.395 . S
C29 C30 1.288 . S
C30 C29 1.288 . S
C30 C31 1.392 . S
C31 H7 0.951 . S
C31 C30 1.392 . S
C31 C32 1.392 . S
C32 H8 0.949 1_545 S
C32 C27 1.382 . S
C32 C31 1.392 . S
C33 C34 1.376 . S
C33 C38 1.386 . S
C33 C39 1.483 . S
C34 H9 0.949 . S
C34 C33 1.376 . S
C34 C35 1.397 . S
C35 H10 0.950 . S
C35 C34 1.397 . S
C35 C36 1.391 . S
C36 C35 1.391 . S
C36 C37 1.405 . S
C37 H11 0.950 . S
C37 C36 1.405 . S
C37 C38 1.367 . S
C38 H12 0.950 . S
C38 C33 1.386 . S
C38 C37 1.367 . S
C39 C33 1.483 . S
C39 C40 1.379 . S
C39 C41 1.403 . S
C40 H13 0.950 1_455 S
C40 C26 1.413 1_465 S
C40 C39 1.379 . S
C41 C25 1.411 1_565 S
C41 C39 1.403 . S
C41 C42 1.489 . S
C42 C41 1.489 . S
C42 C43 1.383 . S
C42 C47 1.382 . S
C43 H14 0.950 . S
C43 C42 1.383 . S
C43 C44 1.395 . S
C44 H15 0.950 . S
C44 C43 1.395 . S
C44 C45 1.288 . S
C45 C44 1.288 . S
C45 C46 1.392 . S
C46 H16 0.951 . S
C46 C45 1.392 . S
C46 C47 1.392 . S
C47 H17 0.949 1_565 S
C47 C42 1.382 . S
C47 C46 1.392 . S
H48 C67 0.949 1_455 S
H49 C68 0.950 . S
H50 C70 0.950 . S
H51 C71 0.950 . S
H52 C73 0.950 . S
H53 C76 0.950 . S
H54 C77 0.950 . S
H55 C79 0.951 . S
H56 C80 0.949 . S
H57 C82 0.949 1_655 S
H58 C83 0.950 . S
H59 C85 0.950 . S
H60 C86 0.950 . S
H61 C88 0.950 . S
H62 C91 0.950 . S
H63 C92 0.950 . S
H64 C94 0.951 . S
H65 C95 0.949 . S
C66 C67 1.376 . S
C66 C71 1.386 . S
C66 C72 1.483 . S
C67 H48 0.949 1_655 S
C67 C66 1.376 . S
C67 C68 1.397 . S
C68 H49 0.950 . S
C68 C67 1.397 . S
C68 C69 1.391 . S
C69 C68 1.391 . S
C69 C70 1.405 . S
C70 H50 0.950 . S
C70 C69 1.405 . S
C70 C71 1.367 . S
C71 H51 0.950 . S
C71 C66 1.386 . S
C71 C70 1.367 . S
C72 C66 1.483 . S
C72 C73 1.382 1_655 S
C72 C74 1.403 . S
C73 H52 0.950 . S
C73 C72 1.382 1_455 S
C73 C89 1.411 . S
C74 C72 1.403 . S
C74 C75 1.489 . S
C74 C88 1.411 . S
C75 C74 1.489 . S
C75 C76 1.383 . S
C75 C80 1.382 . S
C76 H53 0.950 . S
C76 C75 1.383 . S
C76 C77 1.395 . S
C77 H54 0.950 . S
C77 C76 1.395 . S
C77 C78 1.288 . S
C78 C77 1.288 . S
C78 C79 1.392 . S
C79 H55 0.951 . S
C79 C78 1.392 . S
C79 C80 1.392 . S
C80 H56 0.949 . S
C80 C75 1.382 . S
C80 C79 1.392 . S
C81 C82 1.376 . S
C81 C86 1.386 . S
C81 C87 1.483 . S
C82 H57 0.949 1_455 S
C82 C81 1.376 . S
C82 C83 1.397 . S
C83 H58 0.950 . S
C83 C82 1.397 . S
C83 C84 1.391 . S
C84 C83 1.391 . S
C84 C85 1.405 . S
C85 H59 0.950 . S
C85 C84 1.405 . S
C85 C86 1.367 . S
C86 H60 0.950 . S
C86 C81 1.386 . S
C86 C85 1.367 . S
C87 C81 1.483 . S
C87 C88 1.382 1_455 S
C87 C89 1.403 . S
C88 H61 0.950 . S
C88 C74 1.411 . S
C88 C87 1.382 1_655 S
C89 C73 1.411 . S
C89 C87 1.403 . S
C89 C90 1.489 . S
C90 C89 1.489 . S
C90 C91 1.383 . S
C90 C95 1.382 . S
C91 H62 0.950 . S
C91 C90 1.383 . S
C91 C92 1.395 . S
C92 H63 0.950 . S
C92 C91 1.395 . S
C92 C93 1.288 . S
C93 C92 1.288 . S
C93 C94 1.392 . S
C94 H64 0.951 . S
C94 C93 1.392 . S
C94 C95 1.392 . S
C95 H65 0.949 . S
C95 C90 1.382 . S
C95 C94 1.392 . S
H96 C115 0.949 . S
H97 C116 0.950 . S
H98 C118 0.950 . S
H99 C119 0.950 . S
H100 C121 0.950 . S
H101 C124 0.950 . S
H102 C125 0.950 . S
H103 C127 0.951 . S
H104 C128 0.949 . S
H105 C130 0.949 . S
H106 C131 0.950 . S
H107 C133 0.950 . S
H108 C134 0.950 . S
H109 C136 0.950 . S
H110 C139 0.950 . S
H111 C140 0.950 . S
H112 C142 0.951 . S
H113 C143 0.949 . S
C114 C115 1.376 . S
C114 C119 1.386 . S
C114 C120 1.483 . S
C115 H96 0.949 . S
C115 C114 1.376 . S
C115 C116 1.397 . S
C116 H97 0.950 . S
C116 C115 1.397 . S
C116 C117 1.391 . S
C117 C116 1.391 . S
C117 C118 1.405 . S
C118 H98 0.950 . S
C118 C117 1.405 . S
C118 C119 1.367 . S
C119 H99 0.950 . S
C119 C114 1.386 . S
C119 C118 1.367 . S
C120 C114 1.483 . S
C120 C121 1.382 . S
C120 C122 1.403 . S
C121 H100 0.950 . S
C121 C120 1.382 . S
C121 C137 1.411 . S
C122 C120 1.403 . S
C122 C123 1.489 . S
C122 C136 1.411 . S
C123 C122 1.489 . S
C123 C124 1.383 . S
C123 C128 1.382 . S
C124 H101 0.950 . S
C124 C123 1.383 . S
C124 C125 1.395 . S
C125 H102 0.950 . S
C125 C124 1.395 . S
C125 C126 1.288 . S
C126 C125 1.288 . S
C126 C127 1.392 . S
C127 H103 0.951 . S
C127 C126 1.392 . S
C127 C128 1.392 . S
C128 H104 0.949 . S
C128 C123 1.382 . S
C128 C127 1.392 . S
C129 C130 1.376 . S
C129 C134 1.386 . S
C129 C135 1.483 . S
C130 H105 0.949 . S
C130 C129 1.376 . S
C130 C131 1.397 . S
C131 H106 0.950 . S
C131 C130 1.397 . S
C131 C132 1.391 . S
C132 C131 1.391 . S
C132 C133 1.405 . S
C133 H107 0.950 . S
C133 C132 1.405 . S
C133 C134 1.367 . S
C134 H108 0.950 . S
C134 C129 1.386 . S
C134 C133 1.367 . S
C135 C129 1.483 . S
C135 C136 1.382 . S
C135 C137 1.403 . S
C136 H109 0.950 . S
C136 C122 1.411 . S
C136 C135 1.382 . S
C137 C121 1.411 . S
C137 C135 1.403 . S
C137 C138 1.489 . S
C138 C137 1.489 . S
C138 C139 1.383 . S
C138 C143 1.382 . S
C139 H110 0.950 . S
C139 C138 1.383 . S
C139 C140 1.395 . S
C140 H111 0.950 . S
C140 C139 1.395 . S
C140 C141 1.288 . S
C141 C140 1.288 . S
C141 C142 1.392 . S
C142 H112 0.951 . S
C142 C141 1.392 . S
C142 C143 1.392 . S
C143 H113 0.949 . S
C143 C138 1.382 . S
C143 C142 1.392 . S
H144 C163 0.949 . S
H145 C164 0.950 . S
H146 C166 0.950 . S
H147 C167 0.950 . S
H148 C169 0.952 . S
H149 C172 0.950 . S
H150 C173 0.950 . S
H151 C175 0.951 . S
H152 C176 0.949 . S
H153 C178 0.949 . S
H154 C179 0.950 . S
H155 C181 0.950 . S
H156 C182 0.950 . S
H157 C184 0.950 . S
H158 C187 0.950 . S
H159 C188 0.950 . S
H160 C190 0.951 . S
H161 C191 0.949 . S
C162 C163 1.376 . S
C162 C167 1.386 . S
C162 C168 1.483 . S
C163 H144 0.949 . S
C163 C162 1.376 . S
C163 C164 1.397 . S
C164 H145 0.950 . S
C164 C163 1.397 . S
C164 C165 1.391 . S
C165 C164 1.391 . S
C165 C166 1.405 . S
C166 H146 0.950 . S
C166 C165 1.405 . S
C166 C167 1.367 . S
C167 H147 0.950 . S
C167 C162 1.386 . S
C167 C166 1.367 . S
C168 C162 1.483 . S
C168 C169 1.382 1_565 S
C168 C170 1.403 . S
C169 H148 0.952 . S
C169 C168 1.382 1_545 S
C169 C185 1.411 . S
C170 C168 1.403 . S
C170 C171 1.489 . S
C170 C184 1.411 1_565 S
C171 C170 1.489 . S
C171 C172 1.383 . S
C171 C176 1.382 . S
C172 H149 0.950 . S
C172 C171 1.383 . S
C172 C173 1.395 . S
C173 H150 0.950 . S
C173 C172 1.395 . S
C173 C174 1.288 . S
C174 C173 1.288 . S
C174 C175 1.392 . S
C175 H151 0.951 . S
C175 C174 1.392 . S
C175 C176 1.392 . S
C176 H152 0.949 . S
C176 C171 1.382 . S
C176 C175 1.392 . S
C177 C178 1.376 . S
C177 C182 1.386 . S
C177 C183 1.483 . S
C178 H153 0.949 . S
C178 C177 1.376 . S
C178 C179 1.397 . S
C179 H154 0.950 . S
C179 C178 1.397 . S
C179 C180 1.391 . S
C180 C179 1.391 . S
C180 C181 1.405 . S
C181 H155 0.950 . S
C181 C180 1.405 . S
C181 C182 1.367 . S
C182 H156 0.950 . S
C182 C177 1.386 . S
C182 C181 1.367 . S
C183 C177 1.483 . S
C183 C184 1.382 . S
C183 C185 1.403 . S
C184 H157 0.950 . S
C184 C170 1.411 1_545 S
C184 C183 1.382 . S
C185 C169 1.411 . S
C185 C183 1.403 . S
C185 C186 1.489 . S
C186 C185 1.489 . S
C186 C187 1.383 . S
C186 C191 1.382 . S
C187 H158 0.950 . S
C187 C186 1.383 . S
C187 C188 1.395 . S
C188 H159 0.950 . S
C188 C187 1.395 . S
C188 C189 1.288 . S
C189 C188 1.288 . S
C189 C190 1.392 . S
C190 H160 0.951 . S
C190 C189 1.392 . S
C190 C191 1.392 . S
C191 H161 0.949 . S
C191 C186 1.382 . S
C191 C190 1.392 . S
H192 C211 0.949 . S
H193 C212 0.950 . S
H194 C214 0.950 . S
H195 C215 0.950 . S
H196 C217 0.950 . S
H197 C220 0.950 . S
H198 C221 0.950 . S
H199 C223 0.951 . S
H200 C224 0.949 . S
H201 C226 0.949 . S
H202 C227 0.950 . S
H203 C229 0.950 . S
H204 C230 0.950 . S
H205 C232 0.950 . S
H206 C235 0.950 . S
H207 C236 0.950 . S
H208 C238 0.951 . S
H209 C239 0.949 . S
C210 C211 1.376 . S
C210 C215 1.386 . S
C210 C216 1.483 . S
C211 H192 0.949 . S
C211 C210 1.376 . S
C211 C212 1.397 . S
C212 H193 0.950 . S
C212 C211 1.397 . S
C212 C213 1.391 . S
C213 C212 1.391 . S
C213 C214 1.405 . S
C214 H194 0.950 . S
C214 C213 1.405 . S
C214 C215 1.367 . S
C215 H195 0.950 . S
C215 C210 1.386 . S
C215 C214 1.367 . S
C216 C210 1.483 . S
C216 C217 1.385 1_455 S
C216 C218 1.403 . S
C217 H196 0.950 . S
C217 C216 1.385 1_655 S
C217 C233 1.408 . S
C218 C216 1.403 . S
C218 C219 1.489 . S
C218 C232 1.411 . S
C219 C218 1.489 . S
C219 C220 1.383 . S
C219 C224 1.382 . S
C220 H197 0.950 . S
C220 C219 1.383 . S
C220 C221 1.395 . S
C221 H198 0.950 . S
C221 C220 1.395 . S
C221 C222 1.288 . S
C222 C221 1.288 . S
C222 C223 1.392 . S
C223 H199 0.951 . S
C223 C222 1.392 . S
C223 C224 1.392 . S
C224 H200 0.949 . S
C224 C219 1.382 . S
C224 C223 1.392 . S
C225 C226 1.376 . S
C225 C230 1.386 . S
C225 C231 1.483 . S
C226 H201 0.949 . S
C226 C225 1.376 . S
C226 C227 1.397 . S
C227 H202 0.950 . S
C227 C226 1.397 . S
C227 C228 1.391 . S
C228 C227 1.391 . S
C228 C229 1.405 . S
C229 H203 0.950 . S
C229 C228 1.405 . S
C229 C230 1.367 . S
C230 H204 0.950 . S
C230 C225 1.386 . S
C230 C229 1.367 . S
C231 C225 1.483 . S
C231 C232 1.382 1_655 S
C231 C233 1.403 . S
C232 H205 0.950 . S
C232 C218 1.411 . S
C232 C231 1.382 1_455 S
C233 C217 1.408 . S
C233 C231 1.403 . S
C233 C234 1.489 . S
C234 C233 1.489 . S
C234 C235 1.383 . S
C234 C239 1.382 . S
C235 H206 0.950 . S
C235 C234 1.383 . S
C235 C236 1.395 . S
C236 H207 0.950 . S
C236 C235 1.395 . S
C236 C237 1.288 . S
C237 C236 1.288 . S
C237 C238 1.392 . S
C238 H208 0.951 . S
C238 C237 1.392 . S
C238 C239 1.392 . S
C239 H209 0.949 . S
C239 C234 1.382 . S
C239 C238 1.392 . S
H240 C259 0.949 . S
H241 C260 0.950 . S
H242 C262 0.950 . S
H243 C263 0.950 . S
H244 C265 0.950 . S
H245 C268 0.950 . S
H246 C269 0.950 . S
H247 C271 0.951 . S
H248 C272 0.949 . S
H249 C274 0.949 . S
H250 C275 0.950 . S
H251 C277 0.950 . S
H252 C278 0.950 . S
H253 C280 0.950 . S
H254 C283 0.950 . S
H255 C284 0.950 . S
H256 C286 0.951 . S
H257 C287 0.949 . S
C258 C259 1.376 . S
C258 C263 1.386 . S
C258 C264 1.483 . S
C259 H240 0.949 . S
C259 C258 1.376 . S
C259 C260 1.397 . S
C260 H241 0.950 . S
C260 C259 1.397 . S
C260 C261 1.391 . S
C261 C260 1.391 . S
C261 C262 1.405 . S
C262 H242 0.950 . S
C262 C261 1.405 . S
C262 C263 1.367 . S
C263 H243 0.950 . S
C263 C258 1.386 . S
C263 C262 1.367 . S
C264 C258 1.483 . S
C264 C265 1.382 . S
C264 C266 1.403 . S
C265 H244 0.950 . S
C265 C264 1.382 . S
C265 C281 1.411 . S
C266 C264 1.403 . S
C266 C267 1.489 . S
C266 C280 1.411 . S
C267 C266 1.489 . S
C267 C268 1.383 . S
C267 C272 1.382 . S
C268 H245 0.950 . S
C268 C267 1.383 . S
C268 C269 1.395 . S
C269 H246 0.950 . S
C269 C268 1.395 . S
C269 C270 1.288 . S
C270 C269 1.288 . S
C270 C271 1.392 . S
C271 H247 0.951 . S
C271 C270 1.392 . S
C271 C272 1.392 . S
C272 H248 0.949 . S
C272 C267 1.382 . S
C272 C271 1.392 . S
C273 C274 1.376 . S
C273 C278 1.386 . S
C273 C279 1.483 . S
C274 H249 0.949 . S
C274 C273 1.376 . S
C274 C275 1.397 . S
C275 H250 0.950 . S
C275 C274 1.397 . S
C275 C276 1.391 . S
C276 C275 1.391 . S
C276 C277 1.405 . S
C277 H251 0.950 . S
C277 C276 1.405 . S
C277 C278 1.367 . S
C278 H252 0.950 . S
C278 C273 1.386 . S
C278 C277 1.367 . S
C279 C273 1.483 . S
C279 C280 1.382 . S
C279 C281 1.403 . S
C280 H253 0.950 . S
C280 C266 1.411 . S
C280 C279 1.382 . S
C281 C265 1.411 . S
C281 C279 1.403 . S
C281 C282 1.489 . S
C282 C281 1.489 . S
C282 C283 1.383 . S
C282 C287 1.382 . S
C283 H254 0.950 . S
C283 C282 1.383 . S
C283 C284 1.395 . S
C284 H255 0.950 . S
C284 C283 1.395 . S
C284 C285 1.288 . S
C285 C284 1.288 . S
C285 C286 1.392 . S
C286 H256 0.951 . S
C286 C285 1.392 . S
C286 C287 1.392 . S
C287 H257 0.949 . S
C287 C282 1.382 . S
C287 C286 1.392 . S
H288 C307 0.949 . S
H289 C308 0.950 . S
H290 C310 0.950 . S
H291 C311 0.950 . S
H292 C313 0.950 . S
H293 C316 0.950 . S
H294 C317 0.950 . S
H295 C319 0.951 . S
H296 C320 0.949 1_545 S
H297 C322 0.949 . S
H298 C323 0.950 . S
H299 C325 0.950 . S
H300 C326 0.950 . S
H301 C328 0.950 . S
H302 C331 0.950 . S
H303 C332 0.950 . S
H304 C334 0.951 . S
H305 C335 0.949 1_565 S
C306 C307 1.376 . S
C306 C311 1.386 . S
C306 C312 1.483 . S
C307 H288 0.949 . S
C307 C306 1.376 . S
C307 C308 1.397 . S
C308 H289 0.950 . S
C308 C307 1.397 . S
C308 C309 1.391 . S
C309 C308 1.391 . S
C309 C310 1.405 . S
C310 H290 0.950 . S
C310 C309 1.405 . S
C310 C311 1.367 . S
C311 H291 0.950 . S
C311 C306 1.386 . S
C311 C310 1.367 . S
C312 C306 1.483 . S
C312 C313 1.382 . S
C312 C314 1.403 . S
C313 H292 0.950 . S
C313 C312 1.382 . S
C313 C329 1.411 1_565 S
C314 C312 1.403 . S
C314 C315 1.489 . S
C314 C328 1.411 1_565 S
C315 C314 1.489 . S
C315 C316 1.383 . S
C315 C320 1.382 . S
C316 H293 0.950 . S
C316 C315 1.383 . S
C316 C317 1.395 . S
C317 H294 0.950 . S
C317 C316 1.395 . S
C317 C318 1.288 . S
C318 C317 1.288 . S
C318 C319 1.392 . S
C319 H295 0.951 . S
C319 C318 1.392 . S
C319 C320 1.392 . S
C320 H296 0.949 1_565 S
C320 C315 1.382 . S
C320 C319 1.392 . S
C321 C322 1.376 . S
C321 C326 1.386 . S
C321 C327 1.483 . S
C322 H297 0.949 . S
C322 C321 1.376 . S
C322 C323 1.397 . S
C323 H298 0.950 . S
C323 C322 1.397 . S
C323 C324 1.391 . S
C324 C323 1.391 . S
C324 C325 1.405 . S
C325 H299 0.950 . S
C325 C324 1.405 . S
C325 C326 1.367 . S
C326 H300 0.950 . S
C326 C321 1.386 . S
C326 C325 1.367 . S
C327 C321 1.483 . S
C327 C328 1.382 . S
C327 C329 1.403 . S
C328 H301 0.950 . S
C328 C314 1.411 1_545 S
C328 C327 1.382 . S
C329 C313 1.411 1_545 S
C329 C327 1.403 . S
C329 C330 1.489 . S
C330 C329 1.489 . S
C330 C331 1.383 . S
C330 C335 1.382 . S
C331 H302 0.950 . S
C331 C330 1.383 . S
C331 C332 1.395 . S
C332 H303 0.950 . S
C332 C331 1.395 . S
C332 C333 1.288 . S
C333 C332 1.288 . S
C333 C334 1.392 . S
C334 H304 0.951 . S
C334 C333 1.392 . S
C334 C335 1.392 . S
C335 H305 0.949 1_545 S
C335 C330 1.382 . S
C335 C334 1.392 . S
H336 C355 0.949 1_455 S
H337 C356 0.950 . S
H338 C358 0.950 . S
H339 C359 0.950 . S
H340 C361 0.950 . S
H341 C364 0.950 . S
H342 C365 0.950 . S
H343 C367 0.951 . S
H344 C368 0.949 . S
H345 C370 0.993 . S
H346 C371 0.950 . S
H347 C373 0.950 . S
H348 C374 0.950 . S
H349 C376 0.943 1_665 S
H350 C379 0.950 . S
H351 C380 0.950 . S
H352 C382 0.951 . S
H353 C383 0.949 . S
C354 C355 1.376 . S
C354 C359 1.386 . S
C354 C360 1.483 . S
C355 H336 0.949 1_655 S
C355 C354 1.376 . S
C355 C356 1.397 . S
C356 H337 0.950 . S
C356 C355 1.397 . S
C356 C357 1.391 . S
C357 C356 1.391 . S
C357 C358 1.405 . S
C358 H338 0.950 . S
C358 C357 1.405 . S
C358 C359 1.367 . S
C359 H339 0.950 . S
C359 C354 1.386 . S
C359 C358 1.367 . S
C360 C354 1.483 . S
C360 C361 1.382 1_655 S
C360 C362 1.403 . S
C361 H340 0.950 . S
C361 C360 1.382 1_455 S
C361 C377 1.411 1_545 S
C362 C360 1.403 . S
C362 C363 1.489 . S
C362 C376 1.388 1_655 S
C363 C362 1.489 . S
C363 C364 1.383 . S
C363 C368 1.382 . S
C364 H341 0.950 . S
C364 C363 1.383 . S
C364 C365 1.395 . S
C365 H342 0.950 . S
C365 C364 1.395 . S
C365 C366 1.288 . S
C366 C365 1.288 . S
C366 C367 1.392 . S
C367 H343 0.951 . S
C367 C366 1.392 . S
C367 C368 1.392 . S
C368 H344 0.949 . S
C368 C363 1.382 . S
C368 C367 1.392 . S
C369 C370 1.376 . S
C369 C374 1.386 . S
C369 C375 1.483 . S
C370 H345 0.993 . S
C370 C369 1.376 . S
C370 C371 1.397 . S
C371 H346 0.950 . S
C371 C370 1.397 . S
C371 C372 1.391 . S
C372 C371 1.391 . S
C372 C373 1.405 . S
C373 H347 0.950 . S
C373 C372 1.405 . S
C373 C374 1.367 . S
C374 H348 0.950 . S
C374 C369 1.386 . S
C374 C373 1.367 . S
C375 C369 1.483 . S
C375 C376 1.410 1_565 S
C375 C377 1.403 . S
C376 H349 0.943 1_445 S
C376 C362 1.388 1_455 S
C376 C375 1.410 1_545 S
C377 C361 1.411 1_565 S
C377 C375 1.403 . S
C377 C378 1.489 . S
C378 C377 1.489 . S
C378 C379 1.383 . S
C378 C383 1.382 . S
C379 H350 0.950 . S
C379 C378 1.383 . S
C379 C380 1.395 . S
C380 H351 0.950 . S
C380 C379 1.395 . S
C380 C381 1.288 . S
C381 C380 1.288 . S
C381 C382 1.392 . S
C382 H352 0.951 . S
C382 C381 1.392 . S
C382 C383 1.392 . S
C383 H353 0.949 . S
C383 C378 1.382 . S
C383 C382 1.392 . S
Mn384 O389 2.095 1_554 S
Mn384 O399 2.162 . S
Mn384 O400 2.297 . S
Mn384 O408 2.385 . S
Mn384 O409 2.209 . S
Mn384 O410 2.094 1_554 S
Mn385 O390 2.121 . S
Mn385 N392 2.257 1_556 S
Mn385 N401 2.282 1_556 S
Mn385 O409 2.215 1_556 S
Mn385 O411 2.117 . S
C386 O408 1.234 . S
C386 O409 1.283 . S
C387 O399 1.281 . S
C387 O400 1.236 . S
C388 O410 1.240 . S
C388 O411 1.264 . S
O389 Mn384 2.095 1_556 S
O389 C398 1.250 . S
O390 Mn385 2.121 . S
O390 C398 1.258 . S
C391 N392 1.326 1_556 S
C391 C395 1.460 1_556 S
C391 H397 0.929 . S
N392 Mn385 2.257 1_554 S
N392 C391 1.326 1_554 S
N392 C396 1.362 . S
C393 C394 1.258 . S
C393 C396 1.431 . S
C393 C413 1.449 . S
C394 C393 1.258 . S
C394 C395 1.477 . S
C394 H414 0.931 . S
C395 C391 1.460 1_554 S
C395 C394 1.477 . S
C395 H415 0.930 1_554 S
C396 N392 1.362 . S
C396 C393 1.431 . S
C396 C406 1.476 . S
H397 C391 0.929 . S
C398 O389 1.250 . S
C398 O390 1.258 . S
O399 Mn384 2.162 . S
O399 C387 1.281 . S
O400 Mn384 2.297 . S
O400 C387 1.236 . S
N401 Mn385 2.282 1_554 S
N401 C402 1.328 . S
N401 C406 1.318 . S
C402 N401 1.328 . S
C402 C403 1.457 . S
C402 H407 0.929 . S
C403 C402 1.457 . S
C403 C404 1.291 . S
C403 H416 0.931 . S
C404 C403 1.291 . S
C404 C405 1.373 . S
C404 H417 0.929 . S
C405 C404 1.373 . S
C405 C406 1.396 . S
C405 C412 1.403 . S
C406 C396 1.476 . S
C406 N401 1.318 . S
C406 C405 1.396 . S
H407 C402 0.929 . S
O408 Mn384 2.385 . S
O408 C386 1.234 . S
O409 Mn384 2.209 . S
O409 Mn385 2.215 1_554 S
O409 C386 1.283 . S
O410 Mn384 2.094 1_556 S
O410 C388 1.240 . S
O411 Mn385 2.117 . S
O411 C388 1.264 . S
C412 C405 1.403 . S
C412 C413 1.399 . S
C412 H418 0.929 . S
C413 C393 1.449 . S
C413 C412 1.399 . S
C413 H419 0.930 . S
H414 C394 0.931 . S
H415 C395 0.930 1_556 S
H416 C403 0.931 . S
H417 C404 0.929 . S
H418 C412 0.929 . S
H419 C413 0.930 . S
Mn420 O425 2.095 . S
Mn420 O435 2.162 . S
Mn420 O436 2.297 . S
Mn420 O444 2.385 . S
Mn420 O445 2.209 . S
Mn420 O446 2.094 . S
Mn421 O426 2.121 . S
Mn421 N428 2.257 . S
Mn421 N437 2.282 . S
Mn421 O445 2.215 . S
Mn421 O447 2.117 . S
C422 O444 1.234 . S
C422 O445 1.283 . S
C423 O435 1.281 . S
C423 O436 1.236 . S
C424 O446 1.240 . S
C424 O447 1.264 . S
O425 Mn420 2.095 . S
O425 C434 1.250 . S
O426 Mn421 2.121 . S
O426 C434 1.258 . S
C427 N428 1.326 . S
C427 C431 1.460 . S
C427 H433 0.929 . S
N428 Mn421 2.257 . S
N428 C427 1.326 . S
N428 C432 1.362 . S
C429 C430 1.258 . S
C429 C432 1.431 . S
C429 C449 1.449 . S
C430 C429 1.258 . S
C430 C431 1.477 . S
C430 H450 0.931 . S
C431 C427 1.460 . S
C431 C430 1.477 . S
C431 H451 0.930 . S
C432 N428 1.362 . S
C432 C429 1.431 . S
C432 C442 1.476 . S
H433 C427 0.929 . S
C434 O425 1.250 . S
C434 O426 1.258 . S
O435 Mn420 2.162 . S
O435 C423 1.281 . S
O436 Mn420 2.297 . S
O436 C423 1.236 . S
N437 Mn421 2.282 . S
N437 C438 1.328 . S
N437 C442 1.318 . S
C438 N437 1.328 . S
C438 C439 1.457 . S
C438 H443 0.929 . S
C439 C438 1.457 . S
C439 C440 1.291 . S
C439 H452 0.931 . S
C440 C439 1.291 . S
C440 C441 1.373 . S
C440 H453 0.929 . S
C441 C440 1.373 . S
C441 C442 1.396 . S
C441 C448 1.403 . S
C442 C432 1.476 . S
C442 N437 1.318 . S
C442 C441 1.396 . S
H443 C438 0.929 . S
O444 Mn420 2.385 . S
O444 C422 1.234 . S
O445 Mn420 2.209 . S
O445 Mn421 2.215 . S
O445 C422 1.283 . S
O446 Mn420 2.094 . S
O446 C424 1.240 . S
O447 Mn421 2.117 . S
O447 C424 1.264 . S
C448 C441 1.403 . S
C448 C449 1.399 . S
C448 H454 0.929 . S
C449 C429 1.449 . S
C449 C448 1.399 . S
C449 H455 0.930 . S
H450 C430 0.931 . S
H451 C431 0.930 . S
H452 C439 0.931 . S
H453 C440 0.929 . S
H454 C448 0.929 . S
H455 C449 0.930 . S
Mn456 O461 2.095 . S
Mn456 O471 2.162 . S
Mn456 O472 2.297 . S
Mn456 O480 2.385 . S
Mn456 O481 2.209 . S
Mn456 O482 2.094 . S
Mn457 O462 2.121 . S
Mn457 N464 2.257 . S
Mn457 N473 2.282 . S
Mn457 O481 2.215 . S
Mn457 O483 2.117 . S
C458 O480 1.234 . S
C458 O481 1.283 . S
C459 O471 1.281 . S
C459 O472 1.236 . S
C460 O482 1.240 . S
C460 O483 1.264 . S
O461 Mn456 2.095 . S
O461 C470 1.250 . S
O462 Mn457 2.121 . S
O462 C470 1.258 . S
C463 N464 1.326 . S
C463 C467 1.460 . S
C463 H469 0.929 . S
N464 Mn457 2.257 . S
N464 C463 1.326 . S
N464 C468 1.362 . S
C465 C466 1.258 . S
C465 C468 1.431 . S
C465 C485 1.449 . S
C466 C465 1.258 . S
C466 C467 1.477 . S
C466 H486 0.931 . S
C467 C463 1.460 . S
C467 C466 1.477 . S
C467 H487 0.930 . S
C468 N464 1.362 . S
C468 C465 1.431 . S
C468 C478 1.476 . S
H469 C463 0.929 . S
C470 O461 1.250 . S
C470 O462 1.258 . S
O471 Mn456 2.162 . S
O471 C459 1.281 . S
O472 Mn456 2.297 . S
O472 C459 1.236 . S
N473 Mn457 2.282 . S
N473 C474 1.328 . S
N473 C478 1.318 . S
C474 N473 1.328 . S
C474 C475 1.457 . S
C474 H479 0.929 . S
C475 C474 1.457 . S
C475 C476 1.291 . S
C475 H488 0.931 . S
C476 C475 1.291 . S
C476 C477 1.373 . S
C476 H489 0.929 . S
C477 C476 1.373 . S
C477 C478 1.396 . S
C477 C484 1.403 . S
C478 C468 1.476 . S
C478 N473 1.318 . S
C478 C477 1.396 . S
H479 C474 0.929 . S
O480 Mn456 2.385 . S
O480 C458 1.234 . S
O481 Mn456 2.209 . S
O481 Mn457 2.215 . S
O481 C458 1.283 . S
O482 Mn456 2.094 . S
O482 C460 1.240 . S
O483 Mn457 2.117 . S
O483 C460 1.264 . S
C484 C477 1.403 . S
C484 C485 1.399 . S
C484 H490 0.929 . S
C485 C465 1.449 . S
C485 C484 1.399 . S
C485 H491 0.930 . S
H486 C466 0.931 . S
H487 C467 0.930 . S
H488 C475 0.931 . S
H489 C476 0.929 . S
H490 C484 0.929 . S
H491 C485 0.930 . S
Mn492 O497 2.095 . S
Mn492 O507 2.162 . S
Mn492 O508 2.297 . S
Mn492 O516 2.385 . S
Mn492 O517 2.209 . S
Mn492 O518 2.094 . S
Mn493 O498 2.121 . S
Mn493 N500 2.257 . S
Mn493 N509 2.282 . S
Mn493 O517 2.215 . S
Mn493 O519 2.117 . S
C494 O516 1.234 . S
C494 O517 1.283 . S
C495 O507 1.281 . S
C495 O508 1.236 . S
C496 O518 1.240 . S
C496 O519 1.264 . S
O497 Mn492 2.095 . S
O497 C506 1.250 . S
O498 Mn493 2.121 . S
O498 C506 1.258 . S
C499 N500 1.326 . S
C499 C503 1.460 . S
C499 H505 0.929 . S
N500 Mn493 2.257 . S
N500 C499 1.326 . S
N500 C504 1.362 . S
C501 C502 1.258 . S
C501 C504 1.431 . S
C501 C521 1.449 . S
C502 C501 1.258 . S
C502 C503 1.477 . S
C502 H522 0.931 . S
C503 C499 1.460 . S
C503 C502 1.477 . S
C503 H523 0.930 . S
C504 N500 1.362 . S
C504 C501 1.431 . S
C504 C514 1.476 . S
H505 C499 0.929 . S
C506 O497 1.250 . S
C506 O498 1.258 . S
O507 Mn492 2.162 . S
O507 C495 1.281 . S
O508 Mn492 2.297 . S
O508 C495 1.236 . S
N509 Mn493 2.282 . S
N509 C510 1.328 . S
N509 C514 1.318 . S
C510 N509 1.328 . S
C510 C511 1.457 . S
C510 H515 0.929 . S
C511 C510 1.457 . S
C511 C512 1.291 . S
C511 H524 0.931 . S
C512 C511 1.291 . S
C512 C513 1.373 . S
C512 H525 0.929 . S
C513 C512 1.373 . S
C513 C514 1.396 . S
C513 C520 1.403 . S
C514 C504 1.476 . S
C514 N509 1.318 . S
C514 C513 1.396 . S
H515 C510 0.929 . S
O516 Mn492 2.385 . S
O516 C494 1.234 . S
O517 Mn492 2.209 . S
O517 Mn493 2.215 . S
O517 C494 1.283 . S
O518 Mn492 2.094 . S
O518 C496 1.240 . S
O519 Mn493 2.117 . S
O519 C496 1.264 . S
C520 C513 1.403 . S
C520 C521 1.399 . S
C520 H526 0.929 . S
C521 C501 1.449 . S
C521 C520 1.399 . S
C521 H527 0.930 . S
H522 C502 0.931 . S
H523 C503 0.930 . S
H524 C511 0.931 . S
H525 C512 0.929 . S
H526 C520 0.929 . S
H527 C521 0.930 . S
Mn528 O533 2.095 . S
Mn528 O543 2.162 . S
Mn528 O544 2.297 . S
Mn528 O552 2.385 . S
Mn528 O553 2.209 . S
Mn528 O554 2.094 . S
Mn529 O534 2.121 . S
Mn529 N536 2.257 . S
Mn529 N545 2.282 . S
Mn529 O553 2.215 . S
Mn529 O555 2.117 . S
C530 O552 1.234 . S
C530 O553 1.283 . S
C531 O543 1.281 . S
C531 O544 1.236 . S
C532 O554 1.240 . S
C532 O555 1.264 . S
O533 Mn528 2.095 . S
O533 C542 1.250 . S
O534 Mn529 2.121 . S
O534 C542 1.258 . S
C535 N536 1.326 . S
C535 C539 1.460 . S
C535 H541 0.929 . S
N536 Mn529 2.257 . S
N536 C535 1.326 . S
N536 C540 1.362 . S
C537 C538 1.258 . S
C537 C540 1.431 . S
C537 C557 1.449 . S
C538 C537 1.258 . S
C538 C539 1.477 . S
C538 H558 0.931 . S
C539 C535 1.460 . S
C539 C538 1.477 . S
C539 H559 0.930 . S
C540 N536 1.362 . S
C540 C537 1.431 . S
C540 C550 1.476 . S
H541 C535 0.929 . S
C542 O533 1.250 . S
C542 O534 1.258 . S
O543 Mn528 2.162 . S
O543 C531 1.281 . S
O544 Mn528 2.297 . S
O544 C531 1.236 . S
N545 Mn529 2.282 . S
N545 C546 1.328 . S
N545 C550 1.318 . S
C546 N545 1.328 . S
C546 C547 1.457 . S
C546 H551 0.929 . S
C547 C546 1.457 . S
C547 C548 1.291 . S
C547 H560 0.931 . S
C548 C547 1.291 . S
C548 C549 1.373 . S
C548 H561 0.929 . S
C549 C548 1.373 . S
C549 C550 1.396 . S
C549 C556 1.403 . S
C550 C540 1.476 . S
C550 N545 1.318 . S
C550 C549 1.396 . S
H551 C546 0.929 . S
O552 Mn528 2.385 . S
O552 C530 1.234 . S
O553 Mn528 2.209 . S
O553 Mn529 2.215 . S
O553 C530 1.283 . S
O554 Mn528 2.094 . S
O554 C532 1.240 . S
O555 Mn529 2.117 . S
O555 C532 1.264 . S
C556 C549 1.403 . S
C556 C557 1.399 . S
C556 H562 0.929 . S
C557 C537 1.449 . S
C557 C556 1.399 . S
C557 H563 0.930 . S
H558 C538 0.931 . S
H559 C539 0.930 . S
H560 C547 0.931 . S
H561 C548 0.929 . S
H562 C556 0.929 . S
H563 C557 0.930 . S
Mn564 O569 2.095 . S
Mn564 O579 2.162 . S
Mn564 O580 2.297 . S
Mn564 O588 2.385 . S
Mn564 O589 2.209 . S
Mn564 O590 2.094 . S
Mn565 O570 2.121 . S
Mn565 N572 2.257 . S
Mn565 N581 2.282 . S
Mn565 O589 2.215 . S
Mn565 O591 2.117 . S
C566 O588 1.234 . S
C566 O589 1.283 . S
C567 O579 1.281 . S
C567 O580 1.236 . S
C568 O590 1.240 . S
C568 O591 1.264 . S
O569 Mn564 2.095 . S
O569 C578 1.250 . S
O570 Mn565 2.121 . S
O570 C578 1.258 . S
C571 N572 1.326 . S
C571 C575 1.460 . S
C571 H577 0.929 . S
N572 Mn565 2.257 . S
N572 C571 1.326 . S
N572 C576 1.362 . S
C573 C574 1.258 . S
C573 C576 1.431 . S
C573 C593 1.449 . S
C574 C573 1.258 . S
C574 C575 1.477 . S
C574 H594 0.931 . S
C575 C571 1.460 . S
C575 C574 1.477 . S
C575 H595 0.930 . S
C576 N572 1.362 . S
C576 C573 1.431 . S
C576 C586 1.476 . S
H577 C571 0.929 . S
C578 O569 1.250 . S
C578 O570 1.258 . S
O579 Mn564 2.162 . S
O579 C567 1.281 . S
O580 Mn564 2.297 . S
O580 C567 1.236 . S
N581 Mn565 2.282 . S
N581 C582 1.328 . S
N581 C586 1.318 . S
C582 N581 1.328 . S
C582 C583 1.457 . S
C582 H587 0.929 . S
C583 C582 1.457 . S
C583 C584 1.291 . S
C583 H596 0.931 . S
C584 C583 1.291 . S
C584 C585 1.373 . S
C584 H597 0.929 . S
C585 C584 1.373 . S
C585 C586 1.396 . S
C585 C592 1.403 . S
C586 C576 1.476 . S
C586 N581 1.318 . S
C586 C585 1.396 . S
H587 C582 0.929 . S
O588 Mn564 2.385 . S
O588 C566 1.234 . S
O589 Mn564 2.209 . S
O589 Mn565 2.215 . S
O589 C566 1.283 . S
O590 Mn564 2.094 . S
O590 C568 1.240 . S
O591 Mn565 2.117 . S
O591 C568 1.264 . S
C592 C585 1.403 . S
C592 C593 1.399 . S
C592 H598 0.929 . S
C593 C573 1.449 . S
C593 C592 1.399 . S
C593 H599 0.930 . S
H594 C574 0.931 . S
H595 C575 0.930 . S
H596 C583 0.931 . S
H597 C584 0.929 . S
H598 C592 0.929 . S
H599 C593 0.930 . S
Mn600 O605 2.095 . S
Mn600 O615 2.162 . S
Mn600 O616 2.297 1_554 S
Mn600 O624 2.385 1_554 S
Mn600 O625 2.209 1_554 S
Mn600 O626 2.094 . S
Mn601 O606 2.121 . S
Mn601 N608 2.257 1_554 S
Mn601 N617 2.282 1_554 S
Mn601 O625 2.215 1_554 S
Mn601 O627 2.117 . S
C602 O624 1.234 . S
C602 O625 1.283 . S
C603 O615 1.281 1_556 S
C603 O616 1.236 . S
C604 O626 1.240 . S
C604 O627 1.264 . S
O605 Mn600 2.095 . S
O605 C614 1.250 . S
O606 Mn601 2.121 . S
O606 C614 1.258 . S
C607 N608 1.326 1_554 S
C607 C611 1.460 . S
C607 H613 0.929 . S
N608 Mn601 2.257 1_556 S
N608 C607 1.326 1_556 S
N608 C612 1.362 . S
C609 C610 1.258 . S
C609 C612 1.431 . S
C609 C629 1.449 . S
C610 C609 1.258 . S
C610 C611 1.477 1_556 S
C610 H630 0.931 . S
C611 C607 1.460 . S
C611 C610 1.477 1_554 S
C611 H631 0.930 . S
C612 N608 1.362 . S
C612 C609 1.431 . S
C612 C622 1.476 . S
H613 C607 0.929 . S
C614 O605 1.250 . S
C614 O606 1.258 . S
O615 Mn600 2.162 . S
O615 C603 1.281 1_554 S
O616 Mn600 2.297 1_556 S
O616 C603 1.236 . S
N617 Mn601 2.282 1_556 S
N617 C618 1.328 . S
N617 C622 1.318 . S
C618 N617 1.328 . S
C618 C619 1.457 . S
C618 H623 0.929 . S
C619 C618 1.457 . S
C619 C620 1.291 . S
C619 H632 0.931 . S
C620 C619 1.291 . S
C620 C621 1.373 . S
C620 H633 0.929 . S
C621 C620 1.373 . S
C621 C622 1.396 . S
C621 C628 1.403 . S
C622 C612 1.476 . S
C622 N617 1.318 . S
C622 C621 1.396 . S
H623 C618 0.929 . S
O624 Mn600 2.385 1_556 S
O624 C602 1.234 . S
O625 Mn600 2.209 1_556 S
O625 Mn601 2.215 1_556 S
O625 C602 1.283 . S
O626 Mn600 2.094 . S
O626 C604 1.240 . S
O627 Mn601 2.117 . S
O627 C604 1.264 . S
C628 C621 1.403 . S
C628 C629 1.399 . S
C628 H634 0.929 . S
C629 C609 1.449 . S
C629 C628 1.399 . S
C629 H635 0.930 . S
H630 C610 0.931 . S
H631 C611 0.930 . S
H632 C619 0.931 . S
H633 C620 0.929 . S
H634 C628 0.929 . S
H635 C629 0.930 . S
Mn636 O641 2.095 . S
Mn636 O651 2.162 . S
Mn636 O652 2.297 . S
Mn636 O660 2.385 . S
Mn636 O661 2.209 . S
Mn636 O662 2.094 . S
Mn637 O642 2.121 . S
Mn637 N644 2.257 . S
Mn637 N653 2.282 . S
Mn637 O661 2.215 . S
Mn637 O663 2.117 . S
C638 O660 1.234 . S
C638 O661 1.283 . S
C639 O651 1.281 . S
C639 O652 1.236 . S
C640 O662 1.240 . S
C640 O663 1.264 . S
O641 Mn636 2.095 . S
O641 C650 1.250 . S
O642 Mn637 2.121 . S
O642 C650 1.258 . S
C643 N644 1.326 . S
C643 C647 1.460 . S
C643 H649 0.929 . S
N644 Mn637 2.257 . S
N644 C643 1.326 . S
N644 C648 1.362 . S
C645 C646 1.258 . S
C645 C648 1.431 . S
C645 C665 1.449 . S
C646 C645 1.258 . S
C646 C647 1.477 . S
C646 H666 0.931 . S
C647 C643 1.460 . S
C647 C646 1.477 . S
C647 H667 0.930 . S
C648 N644 1.362 . S
C648 C645 1.431 . S
C648 C658 1.476 . S
H649 C643 0.929 . S
C650 O641 1.250 . S
C650 O642 1.258 . S
O651 Mn636 2.162 . S
O651 C639 1.281 . S
O652 Mn636 2.297 . S
O652 C639 1.236 . S
N653 Mn637 2.282 . S
N653 C654 1.328 . S
N653 C658 1.318 . S
C654 N653 1.328 . S
C654 C655 1.457 . S
C654 H659 0.929 . S
C655 C654 1.457 . S
C655 C656 1.291 . S
C655 H668 0.931 . S
C656 C655 1.291 . S
C656 C657 1.373 . S
C656 H669 0.929 . S
C657 C656 1.373 . S
C657 C658 1.396 . S
C657 C664 1.403 . S
C658 C648 1.476 . S
C658 N653 1.318 . S
C658 C657 1.396 . S
H659 C654 0.929 . S
O660 Mn636 2.385 . S
O660 C638 1.234 . S
O661 Mn636 2.209 . S
O661 Mn637 2.215 . S
O661 C638 1.283 . S
O662 Mn636 2.094 . S
O662 C640 1.240 . S
O663 Mn637 2.117 . S
O663 C640 1.264 . S
C664 C657 1.403 . S
C664 C665 1.399 . S
C664 H670 0.929 . S
C665 C645 1.449 . S
C665 C664 1.399 . S
C665 H671 0.930 . S
H666 C646 0.931 . S
H667 C647 0.930 . S
H668 C655 0.931 . S
H669 C656 0.929 . S
H670 C664 0.929 . S
H671 C665 0.930 . S
H672 C680 0.929 . S
H673 C682 0.930 . S
H674 C684 0.930 . S
H675 C687 0.929 . S
H676 C690 0.930 . S
H677 C692 0.960 . S
H678 C692 0.960 . S
H679 C692 0.960 . S
C680 H672 0.929 . S
C680 C681 1.377 . S
C680 C682 1.384 . S
C681 C680 1.377 . S
C681 C687 1.390 . S
C682 H673 0.930 . S
C682 C680 1.384 . S
C682 C683 1.372 . S
C683 C682 1.372 . S
C683 C684 1.400 . S
C683 C688 1.490 . S
C684 H674 0.930 . S
C684 C683 1.400 . S
C684 C687 1.386 . S
H685 C701 0.930 . S
H686 C702 0.931 . S
C687 H675 0.929 . S
C687 C681 1.390 . S
C687 C684 1.386 . S
C688 C683 1.490 . S
C688 C690 1.395 . S
C688 C691 1.403 . S
H689 C695 0.930 . S
C690 H676 0.930 . S
C690 C688 1.395 . S
C690 C693 1.403 . S
C691 C688 1.403 . S
C691 C692 1.524 . S
C691 C695 1.400 . S
C692 H677 0.960 . S
C692 H678 0.960 . S
C692 H679 0.960 . S
C692 C691 1.524 . S
C693 C690 1.403 . S
C693 C694 1.392 . S
C693 C697 1.495 . S
C694 C693 1.392 . S
C694 C695 1.385 . S
C694 C696 1.478 . S
C695 H689 0.930 . S
C695 C691 1.400 . S
C695 C694 1.385 . S
C696 C694 1.478 . S
C696 C698 1.381 . S
C696 C702 1.383 . S
C697 C693 1.495 . S
C697 H703 0.959 . S
C697 H704 0.961 . S
C697 H705 0.960 . S
C698 C696 1.381 . S
C698 C699 1.394 . S
C698 H706 0.930 . S
C699 C698 1.394 . S
C699 C700 1.383 . S
C699 H707 0.929 . S
C700 C699 1.383 . S
C700 C701 1.377 . S
C701 H685 0.930 . S
C701 C700 1.377 . S
C701 C702 1.379 . S
C702 H686 0.931 . S
C702 C696 1.383 . S
C702 C701 1.379 . S
H703 C697 0.959 . S
H704 C697 0.961 . S
H705 C697 0.960 . S
H706 C698 0.930 . S
H707 C699 0.929 . S
H708 C716 0.929 . S
H709 C718 0.930 . S
H710 C720 0.930 . S
H711 C723 0.929 . S
H712 C726 0.930 . S
H713 C728 0.960 . S
H714 C728 0.960 . S
H715 C728 0.960 . S
C716 H708 0.929 . S
C716 C717 1.377 . S
C716 C718 1.384 . S
C717 C716 1.377 . S
C717 C723 1.390 . S
C718 H709 0.930 . S
C718 C716 1.384 . S
C718 C719 1.372 . S
C719 C718 1.372 . S
C719 C720 1.400 . S
C719 C724 1.490 . S
C720 H710 0.930 . S
C720 C719 1.400 . S
C720 C723 1.386 . S
H721 C737 0.930 . S
H722 C738 0.931 . S
C723 H711 0.929 . S
C723 C717 1.390 . S
C723 C720 1.386 . S
C724 C719 1.490 . S
C724 C726 1.395 . S
C724 C727 1.403 . S
H725 C731 0.930 . S
C726 H712 0.930 . S
C726 C724 1.395 . S
C726 C729 1.403 . S
C727 C724 1.403 . S
C727 C728 1.524 . S
C727 C731 1.400 . S
C728 H713 0.960 . S
C728 H714 0.960 . S
C728 H715 0.960 . S
C728 C727 1.524 . S
C729 C726 1.403 . S
C729 C730 1.392 . S
C729 C733 1.495 . S
C730 C729 1.392 . S
C730 C731 1.385 . S
C730 C732 1.478 . S
C731 H725 0.930 . S
C731 C727 1.400 . S
C731 C730 1.385 . S
C732 C730 1.478 . S
C732 C734 1.381 . S
C732 C738 1.383 . S
C733 C729 1.495 . S
C733 H739 0.959 . S
C733 H740 0.961 . S
C733 H741 0.960 . S
C734 C732 1.381 . S
C734 C735 1.394 . S
C734 H742 0.930 . S
C735 C734 1.394 . S
C735 C736 1.383 . S
C735 H743 0.929 . S
C736 C735 1.383 . S
C736 C737 1.377 . S
C737 H721 0.930 . S
C737 C736 1.377 . S
C737 C738 1.379 . S
C738 H722 0.931 . S
C738 C732 1.383 . S
C738 C737 1.379 . S
H739 C733 0.959 . S
H740 C733 0.961 . S
H741 C733 0.960 . S
H742 C734 0.930 . S
H743 C735 0.929 . S
H744 C752 0.929 . S
H745 C754 0.930 . S
H746 C756 0.930 . S
H747 C759 0.929 . S
H748 C762 0.930 . S
H749 C764 0.960 . S
H750 C764 0.960 . S
H751 C764 0.960 . S
C752 H744 0.929 . S
C752 C753 1.377 . S
C752 C754 1.384 . S
C753 C752 1.377 . S
C753 C759 1.390 . S
C754 H745 0.930 . S
C754 C752 1.384 . S
C754 C755 1.372 . S
C755 C754 1.372 . S
C755 C756 1.400 . S
C755 C760 1.490 . S
C756 H746 0.930 . S
C756 C755 1.400 . S
C756 C759 1.386 . S
H757 C773 0.930 . S
H758 C774 0.931 . S
C759 H747 0.929 . S
C759 C753 1.390 . S
C759 C756 1.386 . S
C760 C755 1.490 . S
C760 C762 1.395 . S
C760 C763 1.403 . S
H761 C767 0.930 . S
C762 H748 0.930 . S
C762 C760 1.395 . S
C762 C765 1.403 . S
C763 C760 1.403 . S
C763 C764 1.524 . S
C763 C767 1.400 . S
C764 H749 0.960 . S
C764 H750 0.960 . S
C764 H751 0.960 . S
C764 C763 1.524 . S
C765 C762 1.403 . S
C765 C766 1.392 . S
C765 C769 1.495 . S
C766 C765 1.392 . S
C766 C767 1.385 . S
C766 C768 1.478 . S
C767 H761 0.930 . S
C767 C763 1.400 . S
C767 C766 1.385 . S
C768 C766 1.478 . S
C768 C770 1.381 . S
C768 C774 1.383 . S
C769 C765 1.495 . S
C769 H775 0.959 . S
C769 H776 0.961 . S
C769 H777 0.960 . S
C770 C768 1.381 . S
C770 C771 1.394 . S
C770 H778 0.930 . S
C771 C770 1.394 . S
C771 C772 1.383 . S
C771 H779 0.929 . S
C772 C771 1.383 . S
C772 C773 1.377 . S
C773 H757 0.930 . S
C773 C772 1.377 . S
C773 C774 1.379 . S
C774 H758 0.931 . S
C774 C768 1.383 . S
C774 C773 1.379 . S
H775 C769 0.959 . S
H776 C769 0.961 . S
H777 C769 0.960 . S
H778 C770 0.930 . S
H779 C771 0.929 . S
H780 C788 0.929 . S
H781 C790 0.930 . S
H782 C792 0.930 . S
H783 C795 0.929 . S
H784 C798 0.930 . S
H785 C800 0.960 . S
H786 C800 0.960 . S
H787 C800 0.960 . S
C788 H780 0.929 . S
C788 C789 1.377 . S
C788 C790 1.384 . S
C789 C788 1.377 . S
C789 C795 1.390 . S
C790 H781 0.930 . S
C790 C788 1.384 . S
C790 C791 1.372 . S
C791 C790 1.372 . S
C791 C792 1.400 . S
C791 C796 1.490 . S
C792 H782 0.930 . S
C792 C791 1.400 . S
C792 C795 1.386 . S
H793 C809 0.930 . S
H794 C810 0.931 . S
C795 H783 0.929 . S
C795 C789 1.390 . S
C795 C792 1.386 . S
C796 C791 1.490 . S
C796 C798 1.395 . S
C796 C799 1.403 . S
H797 C803 0.930 . S
C798 H784 0.930 . S
C798 C796 1.395 . S
C798 C801 1.403 . S
C799 C796 1.403 . S
C799 C800 1.524 . S
C799 C803 1.400 . S
C800 H785 0.960 . S
C800 H786 0.960 . S
C800 H787 0.960 . S
C800 C799 1.524 . S
C801 C798 1.403 . S
C801 C802 1.392 . S
C801 C805 1.495 1_554 S
C802 C801 1.392 . S
C802 C803 1.385 . S
C802 C804 1.478 . S
C803 H797 0.930 . S
C803 C799 1.400 . S
C803 C802 1.385 . S
C804 C802 1.478 . S
C804 C806 1.381 . S
C804 C810 1.383 . S
C805 C801 1.495 1_556 S
C805 H811 0.959 . S
C805 H812 0.961 . S
C805 H813 0.960 . S
C806 C804 1.381 . S
C806 C807 1.394 . S
C806 H814 0.930 . S
C807 C806 1.394 . S
C807 C808 1.383 . S
C807 H815 0.929 . S
C808 C807 1.383 . S
C808 C809 1.377 . S
C809 H793 0.930 . S
C809 C808 1.377 . S
C809 C810 1.379 . S
C810 H794 0.931 . S
C810 C804 1.383 . S
C810 C809 1.379 . S
H811 C805 0.959 . S
H812 C805 0.961 . S
H813 C805 0.960 . S
H814 C806 0.930 . S
H815 C807 0.929 . S
H816 C824 0.929 . S
H817 C826 0.930 . S
H818 C828 0.930 . S
H819 C831 0.929 . S
H820 C834 0.930 . S
H821 C836 0.964 . S
H822 C836 0.962 . S
H823 C836 0.958 1_556 S
C824 H816 0.929 . S
C824 C825 1.377 . S
C824 C826 1.384 . S
C825 C824 1.377 . S
C825 C831 1.390 . S
C826 H817 0.930 . S
C826 C824 1.384 . S
C826 C827 1.372 . S
C827 C826 1.372 . S
C827 C828 1.400 . S
C827 C832 1.490 . S
C828 H818 0.930 . S
C828 C827 1.400 . S
C828 C831 1.386 . S
H829 C845 0.930 . S
H830 C846 0.931 . S
C831 H819 0.929 . S
C831 C825 1.390 . S
C831 C828 1.386 . S
C832 C827 1.490 . S
C832 C834 1.395 . S
C832 C835 1.403 . S
H833 C839 0.930 . S
C834 H820 0.930 . S
C834 C832 1.395 . S
C834 C837 1.403 . S
C835 C832 1.403 . S
C835 C836 1.520 1_556 S
C835 C839 1.400 . S
C836 H821 0.964 . S
C836 H822 0.962 . S
C836 H823 0.958 1_554 S
C836 C835 1.520 1_554 S
C837 C834 1.403 . S
C837 C838 1.392 . S
C837 C841 1.495 . S
C838 C837 1.392 . S
C838 C839 1.385 . S
C838 C840 1.478 . S
C839 H833 0.930 . S
C839 C835 1.400 . S
C839 C838 1.385 . S
C840 C838 1.478 . S
C840 C842 1.381 . S
C840 C846 1.383 . S
C841 C837 1.495 . S
C841 H847 0.959 . S
C841 H848 0.961 . S
C841 H849 0.960 . S
C842 C840 1.381 . S
C842 C843 1.394 . S
C842 H850 0.930 . S
C843 C842 1.394 . S
C843 C844 1.383 . S
C843 H851 0.929 . S
C844 C843 1.383 . S
C844 C845 1.377 . S
C845 H829 0.930 . S
C845 C844 1.377 . S
C845 C846 1.379 . S
C846 H830 0.931 . S
C846 C840 1.383 . S
C846 C845 1.379 . S
H847 C841 0.959 . S
H848 C841 0.961 . S
H849 C841 0.960 . S
H850 C842 0.930 . S
H851 C843 0.929 . S
H852 C860 0.929 . S
H853 C862 0.930 . S
H854 C864 0.930 . S
H855 C867 0.929 . S
H856 C870 0.930 . S
H857 C872 0.960 . S
H858 C872 0.960 . S
H859 C872 0.960 . S
C860 H852 0.929 . S
C860 C861 1.377 . S
C860 C862 1.384 . S
C861 C860 1.377 . S
C861 C867 1.390 . S
C862 H853 0.930 . S
C862 C860 1.384 . S
C862 C863 1.372 . S
C863 C862 1.372 . S
C863 C864 1.400 . S
C863 C868 1.490 . S
C864 H854 0.930 . S
C864 C863 1.400 . S
C864 C867 1.386 . S
H865 C881 0.930 . S
H866 C882 0.931 . S
C867 H855 0.929 . S
C867 C861 1.390 . S
C867 C864 1.386 . S
C868 C863 1.490 . S
C868 C870 1.395 . S
C868 C871 1.403 . S
H869 C875 0.930 . S
C870 H856 0.930 . S
C870 C868 1.395 . S
C870 C873 1.403 . S
C871 C868 1.403 . S
C871 C872 1.524 . S
C871 C875 1.400 . S
C872 H857 0.960 . S
C872 H858 0.960 . S
C872 H859 0.960 . S
C872 C871 1.524 . S
C873 C870 1.403 . S
C873 C874 1.392 . S
C873 C877 1.495 . S
C874 C873 1.392 . S
C874 C875 1.385 . S
C874 C876 1.478 . S
C875 H869 0.930 . S
C875 C871 1.400 . S
C875 C874 1.385 . S
C876 C874 1.478 . S
C876 C878 1.381 . S
C876 C882 1.383 . S
C877 C873 1.495 . S
C877 H883 0.959 . S
C877 H884 0.961 . S
C877 H885 0.960 . S
C878 C876 1.381 . S
C878 C879 1.394 . S
C878 H886 0.930 . S
C879 C878 1.394 . S
C879 C880 1.383 . S
C879 H887 0.929 . S
C880 C879 1.383 . S
C880 C881 1.377 . S
C881 H865 0.930 . S
C881 C880 1.377 . S
C881 C882 1.379 . S
C882 H866 0.931 . S
C882 C876 1.383 . S
C882 C881 1.379 . S
H883 C877 0.959 . S
H884 C877 0.961 . S
H885 C877 0.960 . S
H886 C878 0.930 . S
H887 C879 0.929 . S
H888 C896 0.929 . S
H889 C898 0.930 . S
H890 C900 0.930 . S
H891 C903 0.929 . S
H892 C906 0.930 . S
H893 C908 0.960 . S
H894 C908 0.960 . S
H895 C908 0.960 . S
C896 H888 0.929 . S
C896 C897 1.377 . S
C896 C898 1.384 . S
C897 C896 1.377 . S
C897 C903 1.390 . S
C898 H889 0.930 . S
C898 C896 1.384 . S
C898 C899 1.372 . S
C899 C898 1.372 . S
C899 C900 1.400 . S
C899 C904 1.490 . S
C900 H890 0.930 . S
C900 C899 1.400 . S
C900 C903 1.386 . S
H901 C917 0.930 . S
H902 C918 0.931 . S
C903 H891 0.929 . S
C903 C897 1.390 . S
C903 C900 1.386 . S
C904 C899 1.490 . S
C904 C906 1.395 . S
C904 C907 1.403 . S
H905 C911 0.930 . S
C906 H892 0.930 . S
C906 C904 1.395 . S
C906 C909 1.403 . S
C907 C904 1.403 . S
C907 C908 1.524 . S
C907 C911 1.400 . S
C908 H893 0.960 . S
C908 H894 0.960 . S
C908 H895 0.960 . S
C908 C907 1.524 . S
C909 C906 1.403 . S
C909 C910 1.392 . S
C909 C913 1.495 . S
C910 C909 1.392 . S
C910 C911 1.385 . S
C910 C912 1.478 . S
C911 H905 0.930 . S
C911 C907 1.400 . S
C911 C910 1.385 . S
C912 C910 1.478 . S
C912 C914 1.381 . S
C912 C918 1.383 . S
C913 C909 1.495 . S
C913 H919 0.959 . S
C913 H920 0.961 . S
C913 H921 0.960 . S
C914 C912 1.381 . S
C914 C915 1.394 . S
C914 H922 0.930 . S
C915 C914 1.394 . S
C915 C916 1.383 . S
C915 H923 0.929 . S
C916 C915 1.383 . S
C916 C917 1.377 . S
C917 H901 0.930 . S
C917 C916 1.377 . S
C917 C918 1.379 . S
C918 H902 0.931 . S
C918 C912 1.383 . S
C918 C917 1.379 . S
H919 C913 0.959 . S
H920 C913 0.961 . S
H921 C913 0.960 . S
H922 C914 0.930 . S
H923 C915 0.929 . S
H924 C932 0.929 . S
H925 C934 0.930 . S
H926 C936 0.930 . S
H927 C939 0.929 . S
H928 C942 0.930 . S
H929 C944 0.960 . S
H930 C944 0.960 . S
H931 C944 0.960 . S
C932 H924 0.929 . S
C932 C933 1.377 . S
C932 C934 1.384 . S
C933 C932 1.377 . S
C933 C939 1.390 . S
C934 H925 0.930 . S
C934 C932 1.384 . S
C934 C935 1.372 . S
C935 C934 1.372 . S
C935 C936 1.400 . S
C935 C940 1.490 . S
C936 H926 0.930 . S
C936 C935 1.400 . S
C936 C939 1.386 . S
H937 C953 0.930 . S
H938 C954 0.931 . S
C939 H927 0.929 . S
C939 C933 1.390 . S
C939 C936 1.386 . S
C940 C935 1.490 . S
C940 C942 1.395 . S
C940 C943 1.403 . S
H941 C947 0.930 . S
C942 H928 0.930 . S
C942 C940 1.395 . S
C942 C945 1.403 . S
C943 C940 1.403 . S
C943 C944 1.524 . S
C943 C947 1.400 . S
C944 H929 0.960 . S
C944 H930 0.960 . S
C944 H931 0.960 . S
C944 C943 1.524 . S
C945 C942 1.403 . S
C945 C946 1.392 . S
C945 C949 1.495 . S
C946 C945 1.392 . S
C946 C947 1.385 . S
C946 C948 1.478 . S
C947 H941 0.930 . S
C947 C943 1.400 . S
C947 C946 1.385 . S
C948 C946 1.478 . S
C948 C950 1.381 . S
C948 C954 1.383 . S
C949 C945 1.495 . S
C949 H955 0.959 . S
C949 H956 0.961 . S
C949 H957 0.960 . S
C950 C948 1.381 . S
C950 C951 1.394 . S
C950 H958 0.930 . S
C951 C950 1.394 . S
C951 C952 1.383 . S
C951 H959 0.929 . S
C952 C951 1.383 . S
C952 C953 1.377 . S
C953 H937 0.930 . S
C953 C952 1.377 . S
C953 C954 1.379 . S
C954 H938 0.931 . S
C954 C948 1.383 . S
C954 C953 1.379 . S
H955 C949 0.959 . S
H956 C949 0.961 . S
H957 C949 0.960 . S
H958 C950 0.930 . S
H959 C951 0.929 . S
H960 C968 0.929 . S
H961 C970 0.930 . S
H962 C972 0.930 . S
H963 C975 0.929 . S
H964 C978 0.930 . S
H965 C980 0.960 . S
H966 C980 0.960 . S
H967 C980 0.960 . S
C968 H960 0.929 . S
C968 C969 1.377 . S
C968 C970 1.384 . S
C969 C968 1.377 . S
C969 C975 1.390 . S
C970 H961 0.930 . S
C970 C968 1.384 . S
C970 C971 1.372 . S
C971 C970 1.372 . S
C971 C972 1.400 . S
C971 C976 1.490 . S
C972 H962 0.930 . S
C972 C971 1.400 . S
C972 C975 1.386 . S
H973 C989 0.930 . S
H974 C990 0.931 . S
C975 H963 0.929 . S
C975 C969 1.390 . S
C975 C972 1.386 . S
C976 C971 1.490 . S
C976 C978 1.395 . S
C976 C979 1.403 . S
H977 C983 0.930 . S
C978 H964 0.930 . S
C978 C976 1.395 . S
C978 C981 1.403 . S
C979 C976 1.403 . S
C979 C980 1.524 . S
C979 C983 1.400 . S
C980 H965 0.960 . S
C980 H966 0.960 . S
C980 H967 0.960 . S
C980 C979 1.524 . S
C981 C978 1.403 . S
C981 C982 1.392 . S
C981 C985 1.495 . S
C982 C981 1.392 . S
C982 C983 1.385 . S
C982 C984 1.478 . S
C983 H977 0.930 . S
C983 C979 1.400 . S
C983 C982 1.385 . S
C984 C982 1.478 . S
C984 C986 1.381 . S
C984 C990 1.383 . S
C985 C981 1.495 . S
C985 H991 0.959 . S
C985 H992 0.961 . S
C985 H993 0.960 . S
C986 C984 1.381 . S
C986 C987 1.394 . S
C986 H994 0.930 . S
C987 C986 1.394 . S
C987 C988 1.383 . S
C987 H995 0.929 . S
C988 C987 1.383 . S
C988 C989 1.377 . S
C989 H973 0.930 . S
C989 C988 1.377 . S
C989 C990 1.379 . S
C990 H974 0.931 . S
C990 C984 1.383 . S
C990 C989 1.379 . S
H991 C985 0.959 . S
H992 C985 0.961 . S
H993 C985 0.960 . S
H994 C986 0.930 . S
H995 C987 0.929 . S
H996 C1004 0.929 . S
H997 C1006 0.930 . S
H998 C1008 0.930 . S
H999 C1011 0.929 . S
H1000 C1014 0.930 . S
H1001 C1016 0.960 . S
H1002 C1016 0.960 . S
H1003 C1016 0.960 . S
C1004 H996 0.929 . S
C1004 C1005 1.377 . S
C1004 C1006 1.384 . S
C1005 C1004 1.377 . S
C1005 C1011 1.390 . S
C1006 H997 0.930 . S
C1006 C1004 1.384 . S
C1006 C1007 1.372 . S
C1007 C1006 1.372 . S
C1007 C1008 1.400 . S
C1007 C1012 1.490 . S
C1008 H998 0.930 . S
C1008 C1007 1.400 . S
C1008 C1011 1.386 . S
H1009 C1025 0.930 . S
H1010 C1026 0.931 . S
C1011 H999 0.929 . S
C1011 C1005 1.390 . S
C1011 C1008 1.386 . S
C1012 C1007 1.490 . S
C1012 C1014 1.395 . S
C1012 C1015 1.403 . S
H1013 C1019 0.930 . S
C1014 H1000 0.930 . S
C1014 C1012 1.395 . S
C1014 C1017 1.403 . S
C1015 C1012 1.403 . S
C1015 C1016 1.524 . S
C1015 C1019 1.400 . S
C1016 H1001 0.960 . S
C1016 H1002 0.960 . S
C1016 H1003 0.960 . S
C1016 C1015 1.524 . S
C1017 C1014 1.403 . S
C1017 C1018 1.392 . S
C1017 C1021 1.495 . S
C1018 C1017 1.392 . S
C1018 C1019 1.385 . S
C1018 C1020 1.478 . S
C1019 H1013 0.930 . S
C1019 C1015 1.400 . S
C1019 C1018 1.385 . S
C1020 C1018 1.478 . S
C1020 C1022 1.381 . S
C1020 C1026 1.383 . S
C1021 C1017 1.495 . S
C1021 H1027 0.959 . S
C1021 H1028 0.961 . S
C1021 H1029 0.960 . S
C1022 C1020 1.381 . S
C1022 C1023 1.388 1_554 S
C1022 H1030 0.930 1_554 S
C1023 C1022 1.388 1_556 S
C1023 C1024 1.363 1_556 S
C1023 H1031 0.956 . S
C1024 C1023 1.363 1_554 S
C1024 C1025 1.377 . S
C1025 H1009 0.930 . S
C1025 C1024 1.377 . S
C1025 C1026 1.379 . S
C1026 H1010 0.931 . S
C1026 C1020 1.383 . S
C1026 C1025 1.379 . S
H1027 C1021 0.959 . S
H1028 C1021 0.961 . S
H1029 C1021 0.960 . S
H1030 C1022 0.930 1_556 S
H1031 C1023 0.956 . S
H1032 C1040 0.929 . S
H1033 C1042 0.930 . S
H1034 C1044 0.930 . S
H1035 C1047 0.929 . S
H1036 C1050 0.930 . S
H1037 C1052 0.960 . S
H1038 C1052 0.960 . S
H1039 C1052 0.960 . S
C1040 H1032 0.929 . S
C1040 C1041 1.377 . S
C1040 C1042 1.384 . S
C1041 C1040 1.377 . S
C1041 C1047 1.390 . S
C1042 H1033 0.930 . S
C1042 C1040 1.384 . S
C1042 C1043 1.372 . S
C1043 C1042 1.372 . S
C1043 C1044 1.400 . S
C1043 C1048 1.490 . S
C1044 H1034 0.930 . S
C1044 C1043 1.400 . S
C1044 C1047 1.386 . S
H1045 C1061 0.930 . S
H1046 C1062 0.931 . S
C1047 H1035 0.929 . S
C1047 C1041 1.390 . S
C1047 C1044 1.386 . S
C1048 C1043 1.490 . S
C1048 C1050 1.395 . S
C1048 C1051 1.403 . S
H1049 C1055 0.930 . S
C1050 H1036 0.930 . S
C1050 C1048 1.395 . S
C1050 C1053 1.403 . S
C1051 C1048 1.403 . S
C1051 C1052 1.524 . S
C1051 C1055 1.400 . S
C1052 H1037 0.960 . S
C1052 H1038 0.960 . S
C1052 H1039 0.960 . S
C1052 C1051 1.524 . S
C1053 C1050 1.403 . S
C1053 C1054 1.392 . S
C1053 C1057 1.495 . S
C1054 C1053 1.392 . S
C1054 C1055 1.385 . S
C1054 C1056 1.478 . S
C1055 H1049 0.930 . S
C1055 C1051 1.400 . S
C1055 C1054 1.385 . S
C1056 C1054 1.478 . S
C1056 C1058 1.381 . S
C1056 C1062 1.383 . S
C1057 C1053 1.495 . S
C1057 H1063 0.959 . S
C1057 H1064 0.961 . S
C1057 H1065 0.960 . S
C1058 C1056 1.381 . S
C1058 C1059 1.394 . S
C1058 H1066 0.930 . S
C1059 C1058 1.394 . S
C1059 C1060 1.383 . S
C1059 H1067 0.929 . S
C1060 C1059 1.383 . S
C1060 C1061 1.377 . S
C1061 H1045 0.930 . S
C1061 C1060 1.377 . S
C1061 C1062 1.379 . S
C1062 H1046 0.931 . S
C1062 C1056 1.383 . S
C1062 C1061 1.379 . S
H1063 C1057 0.959 . S
H1064 C1057 0.961 . S
H1065 C1057 0.960 . S
H1066 C1058 0.930 . S
H1067 C1059 0.929 . S
H1068 C1076 0.929 . S
H1069 C1078 0.930 . S
H1070 C1080 0.930 . S
H1071 C1083 0.929 . S
H1072 C1086 0.930 . S
H1073 C1088 0.960 . S
H1074 C1088 0.960 . S
H1075 C1088 0.960 . S
C1076 H1068 0.929 . S
C1076 C1077 1.377 . S
C1076 C1078 1.384 . S
C1077 C1076 1.377 . S
C1077 C1083 1.390 . S
C1078 H1069 0.930 . S
C1078 C1076 1.384 . S
C1078 C1079 1.372 . S
C1079 C1078 1.372 . S
C1079 C1080 1.400 . S
C1079 C1084 1.490 . S
C1080 H1070 0.930 . S
C1080 C1079 1.400 . S
C1080 C1083 1.386 . S
H1081 C1097 0.930 . S
H1082 C1098 0.931 . S
C1083 H1071 0.929 . S
C1083 C1077 1.390 . S
C1083 C1080 1.386 . S
C1084 C1079 1.490 . S
C1084 C1086 1.395 . S
C1084 C1087 1.403 . S
H1085 C1091 0.930 . S
C1086 H1072 0.930 . S
C1086 C1084 1.395 . S
C1086 C1089 1.403 . S
C1087 C1084 1.403 . S
C1087 C1088 1.524 . S
C1087 C1091 1.400 . S
C1088 H1073 0.960 . S
C1088 H1074 0.960 . S
C1088 H1075 0.960 . S
C1088 C1087 1.524 . S
C1089 C1086 1.403 . S
C1089 C1090 1.392 . S
C1089 C1093 1.495 . S
C1090 C1089 1.392 . S
C1090 C1091 1.385 . S
C1090 C1092 1.478 . S
C1091 H1085 0.930 . S
C1091 C1087 1.400 . S
C1091 C1090 1.385 . S
C1092 C1090 1.478 . S
C1092 C1094 1.381 . S
C1092 C1098 1.383 . S
C1093 C1089 1.495 . S
C1093 H1099 0.959 . S
C1093 H1100 0.961 . S
C1093 H1101 0.960 . S
C1094 C1092 1.381 . S
C1094 C1095 1.394 . S
C1094 H1102 0.930 . S
C1095 C1094 1.394 . S
C1095 C1096 1.383 . S
C1095 H1103 0.929 . S
C1096 C1095 1.383 . S
C1096 C1097 1.377 . S
C1097 H1081 0.930 . S
C1097 C1096 1.377 . S
C1097 C1098 1.379 . S
C1098 H1082 0.931 . S
C1098 C1092 1.383 . S
C1098 C1097 1.379 . S
H1099 C1093 0.959 . S
H1100 C1093 0.961 . S
H1101 C1093 0.960 . S
H1102 C1094 0.930 . S
H1103 C1095 0.929 . S
H1104 C1112 0.929 . S
H1105 C1114 0.930 . S
H1106 C1116 0.930 . S
H1107 C1119 0.929 . S
H1108 C1122 0.930 . S
H1109 C1124 0.960 . S
H1110 C1124 0.960 . S
H1111 C1124 0.960 . S
C1112 H1104 0.929 . S
C1112 C1113 1.377 . S
C1112 C1114 1.384 . S
C1113 C1112 1.377 . S
C1113 C1119 1.390 . S
C1114 H1105 0.930 . S
C1114 C1112 1.384 . S
C1114 C1115 1.372 . S
C1115 C1114 1.372 . S
C1115 C1116 1.400 . S
C1115 C1120 1.490 . S
C1116 H1106 0.930 . S
C1116 C1115 1.400 . S
C1116 C1119 1.386 . S
H1117 C1133 0.930 . S
H1118 C1134 0.931 . S
C1119 H1107 0.929 . S
C1119 C1113 1.390 . S
C1119 C1116 1.386 . S
C1120 C1115 1.490 . S
C1120 C1122 1.395 . S
C1120 C1123 1.403 . S
H1121 C1127 0.930 . S
C1122 H1108 0.930 . S
C1122 C1120 1.395 . S
C1122 C1125 1.403 . S
C1123 C1120 1.403 . S
C1123 C1124 1.524 . S
C1123 C1127 1.400 . S
C1124 H1109 0.960 . S
C1124 H1110 0.960 . S
C1124 H1111 0.960 . S
C1124 C1123 1.524 . S
C1125 C1122 1.403 . S
C1125 C1126 1.392 . S
C1125 C1129 1.495 . S
C1126 C1125 1.392 . S
C1126 C1127 1.385 . S
C1126 C1128 1.478 . S
C1127 H1121 0.930 . S
C1127 C1123 1.400 . S
C1127 C1126 1.385 . S
C1128 C1126 1.478 . S
C1128 C1130 1.381 . S
C1128 C1134 1.383 . S
C1129 C1125 1.495 . S
C1129 H1135 0.959 . S
C1129 H1136 0.961 . S
C1129 H1137 0.960 . S
C1130 C1128 1.381 . S
C1130 C1131 1.394 . S
C1130 H1138 0.930 . S
C1131 C1130 1.394 . S
C1131 C1132 1.383 . S
C1131 H1139 0.929 . S
C1132 C1131 1.383 . S
C1132 C1133 1.377 . S
C1133 H1117 0.930 . S
C1133 C1132 1.377 . S
C1133 C1134 1.379 . S
C1134 H1118 0.931 . S
C1134 C1128 1.383 . S
C1134 C1133 1.379 . S
H1135 C1129 0.959 . S
H1136 C1129 0.961 . S
H1137 C1129 0.960 . S
H1138 C1130 0.930 . S
H1139 C1131 0.929 . S
H1140 C1148 0.929 . S
H1141 C1150 0.930 . S
H1142 C1152 0.930 . S
H1143 C1155 0.929 . S
H1144 C1158 0.930 . S
H1145 C1160 0.960 . S
H1146 C1160 0.960 . S
H1147 C1160 0.960 . S
C1148 H1140 0.929 . S
C1148 C1149 1.377 . S
C1148 C1150 1.384 . S
C1149 C1148 1.377 . S
C1149 C1155 1.390 . S
C1150 H1141 0.930 . S
C1150 C1148 1.384 . S
C1150 C1151 1.372 . S
C1151 C1150 1.372 . S
C1151 C1152 1.400 . S
C1151 C1156 1.490 . S
C1152 H1142 0.930 . S
C1152 C1151 1.400 . S
C1152 C1155 1.386 . S
H1153 C1169 0.930 . S
H1154 C1170 0.931 . S
C1155 H1143 0.929 . S
C1155 C1149 1.390 . S
C1155 C1152 1.386 . S
C1156 C1151 1.490 . S
C1156 C1158 1.395 . S
C1156 C1159 1.403 . S
H1157 C1163 0.930 . S
C1158 H1144 0.930 . S
C1158 C1156 1.395 . S
C1158 C1161 1.403 . S
C1159 C1156 1.403 . S
C1159 C1160 1.524 . S
C1159 C1163 1.400 . S
C1160 H1145 0.960 . S
C1160 H1146 0.960 . S
C1160 H1147 0.960 . S
C1160 C1159 1.524 . S
C1161 C1158 1.403 . S
C1161 C1162 1.392 . S
C1161 C1165 1.495 . S
C1162 C1161 1.392 . S
C1162 C1163 1.385 . S
C1162 C1164 1.478 . S
C1163 H1157 0.930 . S
C1163 C1159 1.400 . S
C1163 C1162 1.385 . S
C1164 C1162 1.478 . S
C1164 C1166 1.381 . S
C1164 C1170 1.383 . S
C1165 C1161 1.495 . S
C1165 H1171 0.959 . S
C1165 H1172 0.961 . S
C1165 H1173 0.960 . S
C1166 C1164 1.381 . S
C1166 C1167 1.394 . S
C1166 H1174 0.930 . S
C1167 C1166 1.394 . S
C1167 C1168 1.383 . S
C1167 H1175 0.929 . S
C1168 C1167 1.383 . S
C1168 C1169 1.377 . S
C1169 H1153 0.930 . S
C1169 C1168 1.377 . S
C1169 C1170 1.379 . S
C1170 H1154 0.931 . S
C1170 C1164 1.383 . S
C1170 C1169 1.379 . S
H1171 C1165 0.959 . S
H1172 C1165 0.961 . S
H1173 C1165 0.960 . S
H1174 C1166 0.930 . S
H1175 C1167 0.929 . S
H1176 C1184 0.929 . S
H1177 C1186 0.930 . S
H1178 C1188 0.930 . S
H1179 C1191 0.929 . S
H1180 C1194 0.930 . S
H1181 C1196 0.960 . S
H1182 C1196 0.960 . S
H1183 C1196 0.960 . S
C1184 H1176 0.929 . S
C1184 C1185 1.377 . S
C1184 C1186 1.384 . S
C1185 C1184 1.377 . S
C1185 C1191 1.390 . S
C1186 H1177 0.930 . S
C1186 C1184 1.384 . S
C1186 C1187 1.372 . S
C1187 C1186 1.372 . S
C1187 C1188 1.400 . S
C1187 C1192 1.490 . S
C1188 H1178 0.930 . S
C1188 C1187 1.400 . S
C1188 C1191 1.386 . S
H1189 C1205 0.930 . S
H1190 C1206 0.931 . S
C1191 H1179 0.929 . S
C1191 C1185 1.390 . S
C1191 C1188 1.386 . S
C1192 C1187 1.490 . S
C1192 C1194 1.395 . S
C1192 C1195 1.403 . S
H1193 C1199 0.930 . S
C1194 H1180 0.930 . S
C1194 C1192 1.395 . S
C1194 C1197 1.403 . S
C1195 C1192 1.403 . S
C1195 C1196 1.524 . S
C1195 C1199 1.400 . S
C1196 H1181 0.960 . S
C1196 H1182 0.960 . S
C1196 H1183 0.960 . S
C1196 C1195 1.524 . S
C1197 C1194 1.403 . S
C1197 C1198 1.392 . S
C1197 C1201 1.495 . S
C1198 C1197 1.392 . S
C1198 C1199 1.385 . S
C1198 C1200 1.478 . S
C1199 H1193 0.930 . S
C1199 C1195 1.400 . S
C1199 C1198 1.385 . S
C1200 C1198 1.478 . S
C1200 C1202 1.381 1_556 S
C1200 C1206 1.383 . S
C1201 C1197 1.495 . S
C1201 H1207 0.959 . S
C1201 H1208 0.961 . S
C1201 H1209 0.960 1_556 S
C1202 C1200 1.381 1_554 S
C1202 C1203 1.394 . S
C1202 H1210 0.930 . S
C1203 C1202 1.394 . S
C1203 C1204 1.383 1_554 S
C1203 H1211 0.929 . S
C1204 C1203 1.383 1_556 S
C1204 C1205 1.377 . S
C1205 H1189 0.930 . S
C1205 C1204 1.377 . S
C1205 C1206 1.379 . S
C1206 H1190 0.931 . S
C1206 C1200 1.383 . S
C1206 C1205 1.379 . S
H1207 C1201 0.959 . S
H1208 C1201 0.961 . S
H1209 C1201 0.960 1_554 S
H1210 C1202 0.930 . S
H1211 C1203 0.929 . S
H1212 C1220 0.929 . S
H1213 C1222 0.930 . S
H1214 C1224 0.930 . S
H1215 C1227 0.929 . S
H1216 C1230 0.930 . S
H1217 C1232 0.960 . S
H1218 C1232 0.960 . S
H1219 C1232 0.960 . S
C1220 H1212 0.929 . S
C1220 C1221 1.377 . S
C1220 C1222 1.384 . S
C1221 C1220 1.377 . S
C1221 C1227 1.390 . S
C1222 H1213 0.930 . S
C1222 C1220 1.384 . S
C1222 C1223 1.372 . S
C1223 C1222 1.372 . S
C1223 C1224 1.400 . S
C1223 C1228 1.490 . S
C1224 H1214 0.930 . S
C1224 C1223 1.400 . S
C1224 C1227 1.386 . S
H1225 C1241 0.930 . S
H1226 C1242 0.931 . S
C1227 H1215 0.929 . S
C1227 C1221 1.390 . S
C1227 C1224 1.386 . S
C1228 C1223 1.490 . S
C1228 C1230 1.395 . S
C1228 C1231 1.403 . S
H1229 C1235 0.930 . S
C1230 H1216 0.930 . S
C1230 C1228 1.395 . S
C1230 C1233 1.403 . S
C1231 C1228 1.403 . S
C1231 C1232 1.524 . S
C1231 C1235 1.400 . S
C1232 H1217 0.960 . S
C1232 H1218 0.960 . S
C1232 H1219 0.960 . S
C1232 C1231 1.524 . S
C1233 C1230 1.403 . S
C1233 C1234 1.392 . S
C1233 C1237 1.495 . S
C1234 C1233 1.392 . S
C1234 C1235 1.385 . S
C1234 C1236 1.478 . S
C1235 H1229 0.930 . S
C1235 C1231 1.400 . S
C1235 C1234 1.385 . S
C1236 C1234 1.478 . S
C1236 C1238 1.381 . S
C1236 C1242 1.383 . S
C1237 C1233 1.495 . S
C1237 H1243 0.959 . S
C1237 H1244 0.961 . S
C1237 H1245 0.960 . S
C1238 C1236 1.381 . S
C1238 C1239 1.394 . S
C1238 H1246 0.930 . S
C1239 C1238 1.394 . S
C1239 C1240 1.383 . S
C1239 H1247 0.929 . S
C1240 C1239 1.383 . S
C1240 C1241 1.377 . S
C1241 H1225 0.930 . S
C1241 C1240 1.377 . S
C1241 C1242 1.379 . S
C1242 H1226 0.931 . S
C1242 C1236 1.383 . S
C1242 C1241 1.379 . S
H1243 C1237 0.959 . S
H1244 C1237 0.961 . S
H1245 C1237 0.960 . S
H1246 C1238 0.930 . S
H1247 C1239 0.929 . S
H1248 C1256 0.929 . S
H1249 C1258 0.930 . S
H1250 C1260 0.930 . S
H1251 C1263 0.929 . S
H1252 C1266 0.930 . S
H1253 C1268 0.960 . S
H1254 C1268 0.960 . S
H1255 C1268 0.960 . S
C1256 H1248 0.929 . S
C1256 C1257 1.377 . S
C1256 C1258 1.384 . S
C1257 C1256 1.377 . S
C1257 C1263 1.390 . S
C1258 H1249 0.930 . S
C1258 C1256 1.384 . S
C1258 C1259 1.372 . S
C1259 C1258 1.372 . S
C1259 C1260 1.400 . S
C1259 C1264 1.490 . S
C1260 H1250 0.930 . S
C1260 C1259 1.400 . S
C1260 C1263 1.386 . S
H1261 C1277 0.930 . S
H1262 C1278 0.931 . S
C1263 H1251 0.929 . S
C1263 C1257 1.390 . S
C1263 C1260 1.386 . S
C1264 C1259 1.490 . S
C1264 C1266 1.395 . S
C1264 C1267 1.403 . S
H1265 C1271 0.930 . S
C1266 H1252 0.930 . S
C1266 C1264 1.395 . S
C1266 C1269 1.403 . S
C1267 C1264 1.403 . S
C1267 C1268 1.524 . S
C1267 C1271 1.400 . S
C1268 H1253 0.960 . S
C1268 H1254 0.960 . S
C1268 H1255 0.960 . S
C1268 C1267 1.524 . S
C1269 C1266 1.403 . S
C1269 C1270 1.392 . S
C1269 C1273 1.495 . S
C1270 C1269 1.392 . S
C1270 C1271 1.385 . S
C1270 C1272 1.478 . S
C1271 H1265 0.930 . S
C1271 C1267 1.400 . S
C1271 C1270 1.385 . S
C1272 C1270 1.478 . S
C1272 C1274 1.381 . S
C1272 C1278 1.383 . S
C1273 C1269 1.495 . S
C1273 H1279 0.959 . S
C1273 H1280 0.961 . S
C1273 H1281 0.960 . S
C1274 C1272 1.381 . S
C1274 C1275 1.394 . S
C1274 H1282 0.930 . S
C1275 C1274 1.394 . S
C1275 C1276 1.383 . S
C1275 H1283 0.929 . S
C1276 C1275 1.383 . S
C1276 C1277 1.377 . S
C1277 H1261 0.930 . S
C1277 C1276 1.377 . S
C1277 C1278 1.379 . S
C1278 H1262 0.931 . S
C1278 C1272 1.383 . S
C1278 C1277 1.379 . S
H1279 C1273 0.959 . S
H1280 C1273 0.961 . S
H1281 C1273 0.960 . S
H1282 C1274 0.930 . S
H1283 C1275 0.929 . S
H1284 C1292 0.929 . S
H1285 C1294 0.930 . S
H1286 C1296 0.930 . S
H1287 C1299 0.929 . S
H1288 C1302 0.930 . S
H1289 C1304 0.960 . S
H1290 C1304 0.960 . S
H1291 C1304 0.960 . S
C1292 H1284 0.929 . S
C1292 C1293 1.377 . S
C1292 C1294 1.384 . S
C1293 C1292 1.377 . S
C1293 C1299 1.390 . S
C1294 H1285 0.930 . S
C1294 C1292 1.384 . S
C1294 C1295 1.372 . S
C1295 C1294 1.372 . S
C1295 C1296 1.400 . S
C1295 C1300 1.490 . S
C1296 H1286 0.930 . S
C1296 C1295 1.400 . S
C1296 C1299 1.386 . S
H1297 C1313 0.930 . S
H1298 C1314 0.931 . S
C1299 H1287 0.929 . S
C1299 C1293 1.390 . S
C1299 C1296 1.386 . S
C1300 C1295 1.490 . S
C1300 C1302 1.395 . S
C1300 C1303 1.403 . S
H1301 C1307 0.930 . S
C1302 H1288 0.930 . S
C1302 C1300 1.395 . S
C1302 C1305 1.403 . S
C1303 C1300 1.403 . S
C1303 C1304 1.524 . S
C1303 C1307 1.400 . S
C1304 H1289 0.960 . S
C1304 H1290 0.960 . S
C1304 H1291 0.960 . S
C1304 C1303 1.524 . S
C1305 C1302 1.403 . S
C1305 C1306 1.392 . S
C1305 C1309 1.495 . S
C1306 C1305 1.392 . S
C1306 C1307 1.385 . S
C1306 C1308 1.478 . S
C1307 H1301 0.930 . S
C1307 C1303 1.400 . S
C1307 C1306 1.385 . S
C1308 C1306 1.478 . S
C1308 C1310 1.381 . S
C1308 C1314 1.383 . S
C1309 C1305 1.495 . S
C1309 H1315 0.959 . S
C1309 H1316 0.961 . S
C1309 H1317 0.960 . S
C1310 C1308 1.381 . S
C1310 C1311 1.394 . S
C1310 H1318 0.930 . S
C1311 C1310 1.394 . S
C1311 C1312 1.383 . S
C1311 H1319 0.929 . S
C1312 C1311 1.383 . S
C1312 C1313 1.377 . S
C1313 H1297 0.930 . S
C1313 C1312 1.377 . S
C1313 C1314 1.379 . S
C1314 H1298 0.931 . S
C1314 C1308 1.383 . S
C1314 C1313 1.379 . S
H1315 C1309 0.959 . S
H1316 C1309 0.961 . S
H1317 C1309 0.960 . S
H1318 C1310 0.930 . S
H1319 C1311 0.929 . S
H1320 C1328 0.929 . S
H1321 C1330 0.930 . S
H1322 C1332 0.930 . S
H1323 C1335 0.929 . S
H1324 C1338 0.930 . S
H1325 C1340 0.960 . S
H1326 C1340 0.960 . S
H1327 C1340 0.960 . S
C1328 H1320 0.929 . S
C1328 C1329 1.377 . S
C1328 C1330 1.384 . S
C1329 C1328 1.377 . S
C1329 C1335 1.390 . S
C1330 H1321 0.930 . S
C1330 C1328 1.384 . S
C1330 C1331 1.372 . S
C1331 C1330 1.372 . S
C1331 C1332 1.400 . S
C1331 C1336 1.490 . S
C1332 H1322 0.930 . S
C1332 C1331 1.400 . S
C1332 C1335 1.386 . S
H1333 C1349 0.930 . S
H1334 C1350 0.931 . S
C1335 H1323 0.929 . S
C1335 C1329 1.390 . S
C1335 C1332 1.386 . S
C1336 C1331 1.490 . S
C1336 C1338 1.395 . S
C1336 C1339 1.403 . S
H1337 C1343 0.930 . S
C1338 H1324 0.930 . S
C1338 C1336 1.395 . S
C1338 C1341 1.403 . S
C1339 C1336 1.403 . S
C1339 C1340 1.524 . S
C1339 C1343 1.400 . S
C1340 H1325 0.960 . S
C1340 H1326 0.960 . S
C1340 H1327 0.960 . S
C1340 C1339 1.524 . S
C1341 C1338 1.403 . S
C1341 C1342 1.392 . S
C1341 C1345 1.495 . S
C1342 C1341 1.392 . S
C1342 C1343 1.385 . S
C1342 C1344 1.478 . S
C1343 H1337 0.930 . S
C1343 C1339 1.400 . S
C1343 C1342 1.385 . S
C1344 C1342 1.478 . S
C1344 C1346 1.381 . S
C1344 C1350 1.383 . S
C1345 C1341 1.495 . S
C1345 H1351 0.959 . S
C1345 H1352 0.961 . S
C1345 H1353 0.960 . S
C1346 C1344 1.381 . S
C1346 C1347 1.394 . S
C1346 H1354 0.930 . S
C1347 C1346 1.394 . S
C1347 C1348 1.383 . S
C1347 H1355 0.929 . S
C1348 C1347 1.383 . S
C1348 C1349 1.377 . S
C1349 H1333 0.930 . S
C1349 C1348 1.377 . S
C1349 C1350 1.379 . S
C1350 H1334 0.931 . S
C1350 C1344 1.383 . S
C1350 C1349 1.379 . S
H1351 C1345 0.959 . S
H1352 C1345 0.961 . S
H1353 C1345 0.960 . S
H1354 C1346 0.930 . S
H1355 C1347 0.929 . S
H1356 C1364 0.929 . S
H1357 C1366 0.930 . S
H1358 C1368 0.930 . S
H1359 C1371 0.929 . S
H1360 C1374 0.930 . S
H1361 C1376 0.960 . S
H1362 C1376 0.960 . S
H1363 C1376 0.960 . S
C1364 H1356 0.929 . S
C1364 C1365 1.377 . S
C1364 C1366 1.384 . S
C1365 C1364 1.377 . S
C1365 C1371 1.390 . S
C1366 H1357 0.930 . S
C1366 C1364 1.384 . S
C1366 C1367 1.372 . S
C1367 C1366 1.372 . S
C1367 C1368 1.400 . S
C1367 C1372 1.490 . S
C1368 H1358 0.930 . S
C1368 C1367 1.400 . S
C1368 C1371 1.386 . S
H1369 C1385 0.930 . S
H1370 C1386 0.931 . S
C1371 H1359 0.929 . S
C1371 C1365 1.390 . S
C1371 C1368 1.386 . S
C1372 C1367 1.490 . S
C1372 C1374 1.395 . S
C1372 C1375 1.403 . S
H1373 C1379 0.930 . S
C1374 H1360 0.930 . S
C1374 C1372 1.395 . S
C1374 C1377 1.403 . S
C1375 C1372 1.403 . S
C1375 C1376 1.524 . S
C1375 C1379 1.400 . S
C1376 H1361 0.960 . S
C1376 H1362 0.960 . S
C1376 H1363 0.960 . S
C1376 C1375 1.524 . S
C1377 C1374 1.403 . S
C1377 C1378 1.392 . S
C1377 C1381 1.495 . S
C1378 C1377 1.392 . S
C1378 C1379 1.385 . S
C1378 C1380 1.478 . S
C1379 H1373 0.930 . S
C1379 C1375 1.400 . S
C1379 C1378 1.385 . S
C1380 C1378 1.478 . S
C1380 C1382 1.381 . S
C1380 C1386 1.383 . S
C1381 C1377 1.495 . S
C1381 H1387 0.959 . S
C1381 H1388 0.961 . S
C1381 H1389 0.960 . S
C1382 C1380 1.381 . S
C1382 C1383 1.394 . S
C1382 H1390 0.930 . S
C1383 C1382 1.394 . S
C1383 C1384 1.383 . S
C1383 H1391 0.929 . S
C1384 C1383 1.383 . S
C1384 C1385 1.377 . S
C1385 H1369 0.930 . S
C1385 C1384 1.377 . S
C1385 C1386 1.379 . S
C1386 H1370 0.931 . S
C1386 C1380 1.383 . S
C1386 C1385 1.379 . S
H1387 C1381 0.959 . S
H1388 C1381 0.961 . S
H1389 C1381 0.960 . S
H1390 C1382 0.930 . S
H1391 C1383 0.929 . S
H1392 C1400 0.929 . S
H1393 C1402 0.930 . S
H1394 C1404 0.930 . S
H1395 C1407 0.929 . S
H1396 C1410 0.930 . S
H1397 C1412 0.960 . S
H1398 C1412 0.960 . S
H1399 C1412 0.960 . S
C1400 H1392 0.929 . S
C1400 C1401 1.377 . S
C1400 C1402 1.384 . S
C1401 C1400 1.377 . S
C1401 C1407 1.390 . S
C1402 H1393 0.930 . S
C1402 C1400 1.384 . S
C1402 C1403 1.372 . S
C1403 C1402 1.372 . S
C1403 C1404 1.400 . S
C1403 C1408 1.490 . S
C1404 H1394 0.930 . S
C1404 C1403 1.400 . S
C1404 C1407 1.386 . S
H1405 C1421 0.930 . S
H1406 C1422 0.931 . S
C1407 H1395 0.929 . S
C1407 C1401 1.390 . S
C1407 C1404 1.386 . S
C1408 C1403 1.490 . S
C1408 C1410 1.395 . S
C1408 C1411 1.403 . S
H1409 C1415 0.930 . S
C1410 H1396 0.930 . S
C1410 C1408 1.395 . S
C1410 C1413 1.403 . S
C1411 C1408 1.403 . S
C1411 C1412 1.524 . S
C1411 C1415 1.400 . S
C1412 H1397 0.960 . S
C1412 H1398 0.960 . S
C1412 H1399 0.960 . S
C1412 C1411 1.524 . S
C1413 C1410 1.403 . S
C1413 C1414 1.392 . S
C1413 C1417 1.495 . S
C1414 C1413 1.392 . S
C1414 C1415 1.385 . S
C1414 C1416 1.478 . S
C1415 H1409 0.930 . S
C1415 C1411 1.400 . S
C1415 C1414 1.385 . S
C1416 C1414 1.478 . S
C1416 C1418 1.381 . S
C1416 C1422 1.383 . S
C1417 C1413 1.495 . S
C1417 H1423 0.959 . S
C1417 H1424 0.961 . S
C1417 H1425 0.960 . S
C1418 C1416 1.381 . S
C1418 C1419 1.394 . S
C1418 H1426 0.930 . S
C1419 C1418 1.394 . S
C1419 C1420 1.383 . S
C1419 H1427 0.929 . S
C1420 C1419 1.383 . S
C1420 C1421 1.377 . S
C1421 H1405 0.930 . S
C1421 C1420 1.377 . S
C1421 C1422 1.379 . S
C1422 H1406 0.931 . S
C1422 C1416 1.383 . S
C1422 C1421 1.379 . S
H1423 C1417 0.959 . S
H1424 C1417 0.961 . S
H1425 C1417 0.960 . S
H1426 C1418 0.930 . S
H1427 C1419 0.929 . S
H1428 C1436 0.929 . S
H1429 C1438 0.930 . S
H1430 C1440 0.930 . S
H1431 C1443 0.929 . S
H1432 C1446 0.930 . S
H1433 C1448 0.960 . S
H1434 C1448 0.960 . S
H1435 C1448 0.960 . S
C1436 H1428 0.929 . S
C1436 C1437 1.377 . S
C1436 C1438 1.384 . S
C1437 C1436 1.377 . S
C1437 C1443 1.390 . S
C1438 H1429 0.930 . S
C1438 C1436 1.384 . S
C1438 C1439 1.372 . S
C1439 C1438 1.372 . S
C1439 C1440 1.400 . S
C1439 C1444 1.490 . S
C1440 H1430 0.930 . S
C1440 C1439 1.400 . S
C1440 C1443 1.386 . S
H1441 C1457 0.930 . S
H1442 C1458 0.931 . S
C1443 H1431 0.929 . S
C1443 C1437 1.390 . S
C1443 C1440 1.386 . S
C1444 C1439 1.490 . S
C1444 C1446 1.395 . S
C1444 C1447 1.403 . S
H1445 C1451 0.930 . S
C1446 H1432 0.930 . S
C1446 C1444 1.395 . S
C1446 C1449 1.403 . S
C1447 C1444 1.403 . S
C1447 C1448 1.524 . S
C1447 C1451 1.400 . S
C1448 H1433 0.960 . S
C1448 H1434 0.960 . S
C1448 H1435 0.960 . S
C1448 C1447 1.524 . S
C1449 C1446 1.403 . S
C1449 C1450 1.392 . S
C1449 C1453 1.495 . S
C1450 C1449 1.392 . S
C1450 C1451 1.385 . S
C1450 C1452 1.478 . S
C1451 H1445 0.930 . S
C1451 C1447 1.400 . S
C1451 C1450 1.385 . S
C1452 C1450 1.478 . S
C1452 C1454 1.381 . S
C1452 C1458 1.383 . S
C1453 C1449 1.495 . S
C1453 H1459 0.959 . S
C1453 H1460 0.961 . S
C1453 H1461 0.960 . S
C1454 C1452 1.381 . S
C1454 C1455 1.394 . S
C1454 H1462 0.930 . S
C1455 C1454 1.394 . S
C1455 C1456 1.383 . S
C1455 H1463 0.929 . S
C1456 C1455 1.383 . S
C1456 C1457 1.377 . S
C1457 H1441 0.930 . S
C1457 C1456 1.377 . S
C1457 C1458 1.379 . S
C1458 H1442 0.931 . S
C1458 C1452 1.383 . S
C1458 C1457 1.379 . S
H1459 C1453 0.959 . S
H1460 C1453 0.961 . S
H1461 C1453 0.960 . S
H1462 C1454 0.930 . S
H1463 C1455 0.929 . S
H1464 C1472 0.929 . S
H1465 C1474 0.930 . S
H1466 C1476 0.930 . S
H1467 C1479 0.929 . S
H1468 C1482 0.930 . S
H1469 C1484 0.960 . S
H1470 C1484 0.960 . S
H1471 C1484 0.960 . S
C1472 H1464 0.929 . S
C1472 C1473 1.377 . S
C1472 C1474 1.384 . S
C1473 C1472 1.377 . S
C1473 C1479 1.390 . S
C1474 H1465 0.930 . S
C1474 C1472 1.384 . S
C1474 C1475 1.372 . S
C1475 C1474 1.372 . S
C1475 C1476 1.400 . S
C1475 C1480 1.490 . S
C1476 H1466 0.930 . S
C1476 C1475 1.400 . S
C1476 C1479 1.386 . S
H1477 C1493 0.930 . S
H1478 C1494 0.931 . S
C1479 H1467 0.929 . S
C1479 C1473 1.390 . S
C1479 C1476 1.386 . S
C1480 C1475 1.490 . S
C1480 C1482 1.395 . S
C1480 C1483 1.403 . S
H1481 C1487 0.930 . S
C1482 H1468 0.930 . S
C1482 C1480 1.395 . S
C1482 C1485 1.403 . S
C1483 C1480 1.403 . S
C1483 C1484 1.524 . S
C1483 C1487 1.400 . S
C1484 H1469 0.960 . S
C1484 H1470 0.960 . S
C1484 H1471 0.960 . S
C1484 C1483 1.524 . S
C1485 C1482 1.403 . S
C1485 C1486 1.392 . S
C1485 C1489 1.495 . S
C1486 C1485 1.392 . S
C1486 C1487 1.385 . S
C1486 C1488 1.478 . S
C1487 H1481 0.930 . S
C1487 C1483 1.400 . S
C1487 C1486 1.385 . S
C1488 C1486 1.478 . S
C1488 C1490 1.381 . S
C1488 C1494 1.383 . S
C1489 C1485 1.495 . S
C1489 H1495 0.959 . S
C1489 H1496 0.961 . S
C1489 H1497 0.960 . S
C1490 C1488 1.381 . S
C1490 C1491 1.394 . S
C1490 H1498 0.930 . S
C1491 C1490 1.394 . S
C1491 C1492 1.383 . S
C1491 H1499 0.929 . S
C1492 C1491 1.383 . S
C1492 C1493 1.377 . S
C1493 H1477 0.930 . S
C1493 C1492 1.377 . S
C1493 C1494 1.379 . S
C1494 H1478 0.931 . S
C1494 C1488 1.383 . S
C1494 C1493 1.379 . S
H1495 C1489 0.959 . S
H1496 C1489 0.961 . S
H1497 C1489 0.960 . S
H1498 C1490 0.930 . S
H1499 C1491 0.929 . S
H1500 C1508 0.929 . S
H1501 C1510 0.930 . S
H1502 C1512 0.930 . S
H1503 C1515 0.929 . S
H1504 C1518 0.930 . S
H1505 C1520 0.960 . S
H1506 C1520 0.960 . S
H1507 C1520 0.960 . S
C1508 H1500 0.929 . S
C1508 C1509 1.377 . S
C1508 C1510 1.384 . S
C1509 C1508 1.377 . S
C1509 C1515 1.390 . S
C1510 H1501 0.930 . S
C1510 C1508 1.384 . S
C1510 C1511 1.372 . S
C1511 C1510 1.372 . S
C1511 C1512 1.400 . S
C1511 C1516 1.490 . S
C1512 H1502 0.930 . S
C1512 C1511 1.400 . S
C1512 C1515 1.386 . S
H1513 C1529 0.930 . S
H1514 C1530 0.931 . S
C1515 H1503 0.929 . S
C1515 C1509 1.390 . S
C1515 C1512 1.386 . S
C1516 C1511 1.490 . S
C1516 C1518 1.395 . S
C1516 C1519 1.403 . S
H1517 C1523 0.930 . S
C1518 H1504 0.930 . S
C1518 C1516 1.395 . S
C1518 C1521 1.403 . S
C1519 C1516 1.403 . S
C1519 C1520 1.524 . S
C1519 C1523 1.400 . S
C1520 H1505 0.960 . S
C1520 H1506 0.960 . S
C1520 H1507 0.960 . S
C1520 C1519 1.524 . S
C1521 C1518 1.403 . S
C1521 C1522 1.392 . S
C1521 C1525 1.495 . S
C1522 C1521 1.392 . S
C1522 C1523 1.385 . S
C1522 C1524 1.478 . S
C1523 H1517 0.930 . S
C1523 C1519 1.400 . S
C1523 C1522 1.385 . S
C1524 C1522 1.478 . S
C1524 C1526 1.381 . S
C1524 C1530 1.383 . S
C1525 C1521 1.495 . S
C1525 H1531 0.959 . S
C1525 H1532 0.961 . S
C1525 H1533 0.960 . S
C1526 C1524 1.381 . S
C1526 C1527 1.394 . S
C1526 H1534 0.930 . S
C1527 C1526 1.394 . S
C1527 C1528 1.383 . S
C1527 H1535 0.929 . S
C1528 C1527 1.383 . S
C1528 C1529 1.377 . S
C1529 H1513 0.930 . S
C1529 C1528 1.377 . S
C1529 C1530 1.379 . S
C1530 H1514 0.931 . S
C1530 C1524 1.383 . S
C1530 C1529 1.379 . S
H1531 C1525 0.959 . S
H1532 C1525 0.961 . S
H1533 C1525 0.960 . S
H1534 C1526 0.930 . S
H1535 C1527 0.929 . S
H1536 C1544 0.929 . S
H1537 C1546 0.930 . S
H1538 C1548 0.930 . S
H1539 C1551 0.929 . S
H1540 C1554 0.930 . S
H1541 C1556 0.960 . S
H1542 C1556 0.960 . S
H1543 C1556 0.960 . S
C1544 H1536 0.929 . S
C1544 C1545 1.377 . S
C1544 C1546 1.384 . S
C1545 C1544 1.377 . S
C1545 C1551 1.390 . S
C1546 H1537 0.930 . S
C1546 C1544 1.384 . S
C1546 C1547 1.372 . S
C1547 C1546 1.372 . S
C1547 C1548 1.400 . S
C1547 C1552 1.490 . S
C1548 H1538 0.930 . S
C1548 C1547 1.400 . S
C1548 C1551 1.386 . S
H1549 C1565 0.930 . S
H1550 C1566 0.931 . S
C1551 H1539 0.929 . S
C1551 C1545 1.390 . S
C1551 C1548 1.386 . S
C1552 C1547 1.490 . S
C1552 C1554 1.395 . S
C1552 C1555 1.403 . S
H1553 C1559 0.930 . S
C1554 H1540 0.930 . S
C1554 C1552 1.395 . S
C1554 C1557 1.403 . S
C1555 C1552 1.403 . S
C1555 C1556 1.524 . S
C1555 C1559 1.400 . S
C1556 H1541 0.960 . S
C1556 H1542 0.960 . S
C1556 H1543 0.960 . S
C1556 C1555 1.524 . S
C1557 C1554 1.403 . S
C1557 C1558 1.392 . S
C1557 C1561 1.495 . S
C1558 C1557 1.392 . S
C1558 C1559 1.385 . S
C1558 C1560 1.478 . S
C1559 H1553 0.930 . S
C1559 C1555 1.400 . S
C1559 C1558 1.385 . S
C1560 C1558 1.478 . S
C1560 C1562 1.381 . S
C1560 C1566 1.383 . S
C1561 C1557 1.495 . S
C1561 H1567 0.959 . S
C1561 H1568 0.961 . S
C1561 H1569 0.960 . S
C1562 C1560 1.381 . S
C1562 C1563 1.394 . S
C1562 H1570 0.930 . S
C1563 C1562 1.394 . S
C1563 C1564 1.383 . S
C1563 H1571 0.929 . S
C1564 C1563 1.383 . S
C1564 C1565 1.377 . S
C1565 H1549 0.930 . S
C1565 C1564 1.377 . S
C1565 C1566 1.379 . S
C1566 H1550 0.931 . S
C1566 C1560 1.383 . S
C1566 C1565 1.379 . S
H1567 C1561 0.959 . S
H1568 C1561 0.961 . S
H1569 C1561 0.960 . S
H1570 C1562 0.930 . S
H1571 C1563 0.929 . S
H1572 C1580 0.929 . S
H1573 C1582 0.930 . S
H1574 C1584 0.930 . S
H1575 C1587 0.929 . S
H1576 C1590 0.930 . S
H1577 C1592 0.960 . S
H1578 C1592 0.960 . S
H1579 C1592 0.960 . S
C1580 H1572 0.929 . S
C1580 C1581 1.377 . S
C1580 C1582 1.384 . S
C1581 C1580 1.377 . S
C1581 C1587 1.390 . S
C1582 H1573 0.930 . S
C1582 C1580 1.384 . S
C1582 C1583 1.372 . S
C1583 C1582 1.372 . S
C1583 C1584 1.400 . S
C1583 C1588 1.490 . S
C1584 H1574 0.930 . S
C1584 C1583 1.400 . S
C1584 C1587 1.386 . S
H1585 C1601 0.930 . S
H1586 C1602 0.931 . S
C1587 H1575 0.929 . S
C1587 C1581 1.390 . S
C1587 C1584 1.386 . S
C1588 C1583 1.490 . S
C1588 C1590 1.395 . S
C1588 C1591 1.403 . S
H1589 C1595 0.930 . S
C1590 H1576 0.930 . S
C1590 C1588 1.395 . S
C1590 C1593 1.403 . S
C1591 C1588 1.403 . S
C1591 C1592 1.524 . S
C1591 C1595 1.400 . S
C1592 H1577 0.960 . S
C1592 H1578 0.960 . S
C1592 H1579 0.960 . S
C1592 C1591 1.524 . S
C1593 C1590 1.403 . S
C1593 C1594 1.392 . S
C1593 C1597 1.495 . S
C1594 C1593 1.392 . S
C1594 C1595 1.385 . S
C1594 C1596 1.478 . S
C1595 H1589 0.930 . S
C1595 C1591 1.400 . S
C1595 C1594 1.385 . S
C1596 C1594 1.478 . S
C1596 C1598 1.381 . S
C1596 C1602 1.383 . S
C1597 C1593 1.495 . S
C1597 H1603 0.959 . S
C1597 H1604 0.961 . S
C1597 H1605 0.960 . S
C1598 C1596 1.381 . S
C1598 C1599 1.394 . S
C1598 H1606 0.930 . S
C1599 C1598 1.394 . S
C1599 C1600 1.383 . S
C1599 H1607 0.929 . S
C1600 C1599 1.383 . S
C1600 C1601 1.377 . S
C1601 H1585 0.930 . S
C1601 C1600 1.377 . S
C1601 C1602 1.379 . S
C1602 H1586 0.931 . S
C1602 C1596 1.383 . S
C1602 C1601 1.379 . S
H1603 C1597 0.959 . S
H1604 C1597 0.961 . S
H1605 C1597 0.960 . S
H1606 C1598 0.930 . S
H1607 C1599 0.929 . S
H1608 C1616 0.929 . S
H1609 C1618 0.930 . S
H1610 C1620 0.930 . S
H1611 C1623 0.929 . S
H1612 C1626 0.930 . S
H1613 C1628 0.960 . S
H1614 C1628 0.960 . S
H1615 C1628 0.960 . S
C1616 H1608 0.929 . S
C1616 C1617 1.377 . S
C1616 C1618 1.384 . S
C1617 C1616 1.377 . S
C1617 C1623 1.390 . S
C1618 H1609 0.930 . S
C1618 C1616 1.384 . S
C1618 C1619 1.372 . S
C1619 C1618 1.372 . S
C1619 C1620 1.400 . S
C1619 C1624 1.490 . S
C1620 H1610 0.930 . S
C1620 C1619 1.400 . S
C1620 C1623 1.386 . S
H1621 C1637 0.930 . S
H1622 C1638 0.931 . S
C1623 H1611 0.929 . S
C1623 C1617 1.390 . S
C1623 C1620 1.386 . S
C1624 C1619 1.490 . S
C1624 C1626 1.395 . S
C1624 C1627 1.403 . S
H1625 C1631 0.930 . S
C1626 H1612 0.930 . S
C1626 C1624 1.395 . S
C1626 C1629 1.403 . S
C1627 C1624 1.403 . S
C1627 C1628 1.524 . S
C1627 C1631 1.400 . S
C1628 H1613 0.960 . S
C1628 H1614 0.960 . S
C1628 H1615 0.960 . S
C1628 C1627 1.524 . S
C1629 C1626 1.403 . S
C1629 C1630 1.392 . S
C1629 C1633 1.495 . S
C1630 C1629 1.392 . S
C1630 C1631 1.385 . S
C1630 C1632 1.478 . S
C1631 H1625 0.930 . S
C1631 C1627 1.400 . S
C1631 C1630 1.385 . S
C1632 C1630 1.478 . S
C1632 C1634 1.381 . S
C1632 C1638 1.383 . S
C1633 C1629 1.495 . S
C1633 H1639 0.959 . S
C1633 H1640 0.961 . S
C1633 H1641 0.960 . S
C1634 C1632 1.381 . S
C1634 C1635 1.394 . S
C1634 H1642 0.930 . S
C1635 C1634 1.394 . S
C1635 C1636 1.383 . S
C1635 H1643 0.929 . S
C1636 C1635 1.383 . S
C1636 C1637 1.377 . S
C1637 H1621 0.930 . S
C1637 C1636 1.377 . S
C1637 C1638 1.379 . S
C1638 H1622 0.931 . S
C1638 C1632 1.383 . S
C1638 C1637 1.379 . S
H1639 C1633 0.959 . S
H1640 C1633 0.961 . S
H1641 C1633 0.960 . S
H1642 C1634 0.930 . S
H1643 C1635 0.929 . S
H1644 C1652 0.929 . S
H1645 C1654 0.930 . S
H1646 C1656 0.930 . S
H1647 C1659 0.929 . S
H1648 C1662 0.930 . S
H1649 C1664 0.960 . S
H1650 C1664 0.960 . S
H1651 C1664 0.960 . S
C1652 H1644 0.929 . S
C1652 C1653 1.377 . S
C1652 C1654 1.384 . S
C1653 C1652 1.377 . S
C1653 C1659 1.390 . S
C1654 H1645 0.930 . S
C1654 C1652 1.384 . S
C1654 C1655 1.372 . S
C1655 C1654 1.372 . S
C1655 C1656 1.400 . S
C1655 C1660 1.490 . S
C1656 H1646 0.930 . S
C1656 C1655 1.400 . S
C1656 C1659 1.386 . S
H1657 C1673 0.930 . S
H1658 C1674 0.931 . S
C1659 H1647 0.929 . S
C1659 C1653 1.390 . S
C1659 C1656 1.386 . S
C1660 C1655 1.490 . S
C1660 C1662 1.395 . S
C1660 C1663 1.403 . S
H1661 C1667 0.930 . S
C1662 H1648 0.930 . S
C1662 C1660 1.395 . S
C1662 C1665 1.403 . S
C1663 C1660 1.403 . S
C1663 C1664 1.524 . S
C1663 C1667 1.400 . S
C1664 H1649 0.960 . S
C1664 H1650 0.960 . S
C1664 H1651 0.960 . S
C1664 C1663 1.524 . S
C1665 C1662 1.403 . S
C1665 C1666 1.392 . S
C1665 C1669 1.495 . S
C1666 C1665 1.392 . S
C1666 C1667 1.385 . S
C1666 C1668 1.478 . S
C1667 H1661 0.930 . S
C1667 C1663 1.400 . S
C1667 C1666 1.385 . S
C1668 C1666 1.478 . S
C1668 C1670 1.381 . S
C1668 C1674 1.383 . S
C1669 C1665 1.495 . S
C1669 H1675 0.959 . S
C1669 H1676 0.961 . S
C1669 H1677 0.960 . S
C1670 C1668 1.381 . S
C1670 C1671 1.394 . S
C1670 H1678 0.930 . S
C1671 C1670 1.394 . S
C1671 C1672 1.383 . S
C1671 H1679 0.929 . S
C1672 C1671 1.383 . S
C1672 C1673 1.377 . S
C1673 H1657 0.930 . S
C1673 C1672 1.377 . S
C1673 C1674 1.379 . S
C1674 H1658 0.931 . S
C1674 C1668 1.383 . S
C1674 C1673 1.379 . S
H1675 C1669 0.959 . S
H1676 C1669 0.961 . S
H1677 C1669 0.960 . S
H1678 C1670 0.930 . S
H1679 C1671 0.929 . S
H1680 C1688 0.929 . S
H1681 C1690 0.930 . S
H1682 C1692 0.930 . S
H1683 C1695 0.929 . S
H1684 C1698 0.930 . S
H1685 C1700 0.960 . S
H1686 C1700 0.960 . S
H1687 C1700 0.960 . S
C1688 H1680 0.929 . S
C1688 C1689 1.377 . S
C1688 C1690 1.384 . S
C1689 C1688 1.377 . S
C1689 C1695 1.390 . S
C1690 H1681 0.930 . S
C1690 C1688 1.384 . S
C1690 C1691 1.372 . S
C1691 C1690 1.372 . S
C1691 C1692 1.400 . S
C1691 C1696 1.490 . S
C1692 H1682 0.930 . S
C1692 C1691 1.400 . S
C1692 C1695 1.386 . S
H1693 C1709 0.930 . S
H1694 C1710 0.931 . S
C1695 H1683 0.929 . S
C1695 C1689 1.390 . S
C1695 C1692 1.386 . S
C1696 C1691 1.490 . S
C1696 C1698 1.395 . S
C1696 C1699 1.403 . S
H1697 C1703 0.930 . S
C1698 H1684 0.930 . S
C1698 C1696 1.395 . S
C1698 C1701 1.403 . S
C1699 C1696 1.403 . S
C1699 C1700 1.524 . S
C1699 C1703 1.400 . S
C1700 H1685 0.960 . S
C1700 H1686 0.960 . S
C1700 H1687 0.960 . S
C1700 C1699 1.524 . S
C1701 C1698 1.403 . S
C1701 C1702 1.392 . S
C1701 C1705 1.495 . S
C1702 C1701 1.392 . S
C1702 C1703 1.385 . S
C1702 C1704 1.478 . S
C1703 H1697 0.930 . S
C1703 C1699 1.400 . S
C1703 C1702 1.385 . S
C1704 C1702 1.478 . S
C1704 C1706 1.381 . S
C1704 C1710 1.383 . S
C1705 C1701 1.495 . S
C1705 H1711 0.959 . S
C1705 H1712 0.961 . S
C1705 H1713 0.960 . S
C1706 C1704 1.381 . S
C1706 C1707 1.394 . S
C1706 H1714 0.930 . S
C1707 C1706 1.394 . S
C1707 C1708 1.383 . S
C1707 H1715 0.929 . S
C1708 C1707 1.383 . S
C1708 C1709 1.377 . S
C1709 H1693 0.930 . S
C1709 C1708 1.377 . S
C1709 C1710 1.379 . S
C1710 H1694 0.931 . S
C1710 C1704 1.383 . S
C1710 C1709 1.379 . S
H1711 C1705 0.959 . S
H1712 C1705 0.961 . S
H1713 C1705 0.960 . S
H1714 C1706 0.930 . S
H1715 C1707 0.929 . S
H1716 C1724 0.929 . S
H1717 C1726 0.930 . S
H1718 C1728 0.930 . S
H1719 C1731 0.929 . S
H1720 C1734 0.930 . S
H1721 C1736 0.960 . S
H1722 C1736 0.960 . S
H1723 C1736 0.960 . S
C1724 H1716 0.929 . S
C1724 C1725 1.377 . S
C1724 C1726 1.384 . S
C1725 C1724 1.377 . S
C1725 C1731 1.390 . S
C1726 H1717 0.930 . S
C1726 C1724 1.384 . S
C1726 C1727 1.372 . S
C1727 C1726 1.372 . S
C1727 C1728 1.400 . S
C1727 C1732 1.490 . S
C1728 H1718 0.930 . S
C1728 C1727 1.400 . S
C1728 C1731 1.386 . S
H1729 C1745 0.930 . S
H1730 C1746 0.931 . S
C1731 H1719 0.929 . S
C1731 C1725 1.390 . S
C1731 C1728 1.386 . S
C1732 C1727 1.490 . S
C1732 C1734 1.395 . S
C1732 C1735 1.403 . S
H1733 C1739 0.930 . S
C1734 H1720 0.930 . S
C1734 C1732 1.395 . S
C1734 C1737 1.403 . S
C1735 C1732 1.403 . S
C1735 C1736 1.524 . S
C1735 C1739 1.400 . S
C1736 H1721 0.960 . S
C1736 H1722 0.960 . S
C1736 H1723 0.960 . S
C1736 C1735 1.524 . S
C1737 C1734 1.403 . S
C1737 C1738 1.392 . S
C1737 C1741 1.495 . S
C1738 C1737 1.392 . S
C1738 C1739 1.385 . S
C1738 C1740 1.478 . S
C1739 H1733 0.930 . S
C1739 C1735 1.400 . S
C1739 C1738 1.385 . S
C1740 C1738 1.478 . S
C1740 C1742 1.381 . S
C1740 C1746 1.383 . S
C1741 C1737 1.495 . S
C1741 H1747 0.959 . S
C1741 H1748 0.961 . S
C1741 H1749 0.960 . S
C1742 C1740 1.381 . S
C1742 C1743 1.394 . S
C1742 H1750 0.930 . S
C1743 C1742 1.394 . S
C1743 C1744 1.383 . S
C1743 H1751 0.929 . S
C1744 C1743 1.383 . S
C1744 C1745 1.377 . S
C1745 H1729 0.930 . S
C1745 C1744 1.377 . S
C1745 C1746 1.379 . S
C1746 H1730 0.931 . S
C1746 C1740 1.383 . S
C1746 C1745 1.379 . S
H1747 C1741 0.959 . S
H1748 C1741 0.961 . S
H1749 C1741 0.960 . S
H1750 C1742 0.930 . S
H1751 C1743 0.929 . S
H1752 C1760 0.929 . S
H1753 C1762 0.930 . S
H1754 C1764 0.930 . S
H1755 C1767 0.929 . S
H1756 C1770 0.930 . S
H1757 C1772 0.960 . S
H1758 C1772 0.960 . S
H1759 C1772 0.960 . S
C1760 H1752 0.929 . S
C1760 C1761 1.377 . S
C1760 C1762 1.384 . S
C1761 C1760 1.377 . S
C1761 C1767 1.390 . S
C1762 H1753 0.930 . S
C1762 C1760 1.384 . S
C1762 C1763 1.372 . S
C1763 C1762 1.372 . S
C1763 C1764 1.400 . S
C1763 C1768 1.490 . S
C1764 H1754 0.930 . S
C1764 C1763 1.400 . S
C1764 C1767 1.386 . S
H1765 C1781 0.930 . S
H1766 C1782 0.931 . S
C1767 H1755 0.929 . S
C1767 C1761 1.390 . S
C1767 C1764 1.386 . S
C1768 C1763 1.490 . S
C1768 C1770 1.395 . S
C1768 C1771 1.403 . S
H1769 C1775 0.930 . S
C1770 H1756 0.930 . S
C1770 C1768 1.395 . S
C1770 C1773 1.403 . S
C1771 C1768 1.403 . S
C1771 C1772 1.524 . S
C1771 C1775 1.400 . S
C1772 H1757 0.960 . S
C1772 H1758 0.960 . S
C1772 H1759 0.960 . S
C1772 C1771 1.524 . S
C1773 C1770 1.403 . S
C1773 C1774 1.392 . S
C1773 C1777 1.495 . S
C1774 C1773 1.392 . S
C1774 C1775 1.385 . S
C1774 C1776 1.478 . S
C1775 H1769 0.930 . S
C1775 C1771 1.400 . S
C1775 C1774 1.385 . S
C1776 C1774 1.478 . S
C1776 C1778 1.381 . S
C1776 C1782 1.383 . S
C1777 C1773 1.495 . S
C1777 H1783 0.959 . S
C1777 H1784 0.961 . S
C1777 H1785 0.960 . S
C1778 C1776 1.381 . S
C1778 C1779 1.394 . S
C1778 H1786 0.930 . S
C1779 C1778 1.394 . S
C1779 C1780 1.383 . S
C1779 H1787 0.929 . S
C1780 C1779 1.383 . S
C1780 C1781 1.377 . S
C1781 H1765 0.930 . S
C1781 C1780 1.377 . S
C1781 C1782 1.379 . S
C1782 H1766 0.931 . S
C1782 C1776 1.383 . S
C1782 C1781 1.379 . S
H1783 C1777 0.959 . S
H1784 C1777 0.961 . S
H1785 C1777 0.960 . S
H1786 C1778 0.930 . S
H1787 C1779 0.929 . S
H1788 C1796 0.929 . S
H1789 C1798 0.930 . S
H1790 C1800 0.930 . S
H1791 C1803 0.929 . S
H1792 C1806 0.930 . S
H1793 C1808 0.960 . S
H1794 C1808 0.960 . S
H1795 C1808 0.960 . S
C1796 H1788 0.929 . S
C1796 C1797 1.377 . S
C1796 C1798 1.384 . S
C1797 C1796 1.377 . S
C1797 C1803 1.390 . S
C1798 H1789 0.930 . S
C1798 C1796 1.384 . S
C1798 C1799 1.372 . S
C1799 C1798 1.372 . S
C1799 C1800 1.400 . S
C1799 C1804 1.490 . S
C1800 H1790 0.930 . S
C1800 C1799 1.400 . S
C1800 C1803 1.386 . S
H1801 C1817 0.930 . S
H1802 C1818 0.931 . S
C1803 H1791 0.929 . S
C1803 C1797 1.390 . S
C1803 C1800 1.386 . S
C1804 C1799 1.490 . S
C1804 C1806 1.395 . S
C1804 C1807 1.403 . S
H1805 C1811 0.930 . S
C1806 H1792 0.930 . S
C1806 C1804 1.395 . S
C1806 C1809 1.403 . S
C1807 C1804 1.403 . S
C1807 C1808 1.524 . S
C1807 C1811 1.400 . S
C1808 H1793 0.960 . S
C1808 H1794 0.960 . S
C1808 H1795 0.960 . S
C1808 C1807 1.524 . S
C1809 C1806 1.403 . S
C1809 C1810 1.392 . S
C1809 C1813 1.495 . S
C1810 C1809 1.392 . S
C1810 C1811 1.385 . S
C1810 C1812 1.478 . S
C1811 H1805 0.930 . S
C1811 C1807 1.400 . S
C1811 C1810 1.385 . S
C1812 C1810 1.478 . S
C1812 C1814 1.381 . S
C1812 C1818 1.383 . S
C1813 C1809 1.495 . S
C1813 H1819 0.959 . S
C1813 H1820 0.961 . S
C1813 H1821 0.960 . S
C1814 C1812 1.381 . S
C1814 C1815 1.394 . S
C1814 H1822 0.930 . S
C1815 C1814 1.394 . S
C1815 C1816 1.383 . S
C1815 H1823 0.929 . S
C1816 C1815 1.383 . S
C1816 C1817 1.377 . S
C1817 H1801 0.930 . S
C1817 C1816 1.377 . S
C1817 C1818 1.379 . S
C1818 H1802 0.931 . S
C1818 C1812 1.383 . S
C1818 C1817 1.379 . S
H1819 C1813 0.959 . S
H1820 C1813 0.961 . S
H1821 C1813 0.960 . S
H1822 C1814 0.930 . S
H1823 C1815 0.929 . S
C700 C423 1.249 . S
C681 C36 1.220 . S
C736 C460 1.252 . S
C717 C93 1.236 . S
C772 C496 1.227 . S
C753 C126 1.246 . S
C789 C165 1.230 . S
C808 C387 1.266 . S
C825 C222 1.247 . S
C844 C388 1.234 . S
C861 C261 1.229 . S
C880 C424 1.204 . S
C916 C459 1.252 . S
C897 C318 1.224 . S
C952 C495 1.254 . S
C933 C381 1.252 . S
C969 C132 1.230 . S
C988 C567 1.235 . S
C1024 C604 1.202 . S
C1005 C189 1.243 . S
C1041 C30 1.244 . S
C1060 C640 1.240 . S
C1096 C531 1.252 . S
C1077 C69 1.240 . S
C1113 C324 1.246 . S
C1132 C532 1.220 . S
C1149 C357 1.228 . S
C1168 C568 1.205 . S
C1204 C603 1.232 . S
C1185 C228 1.227 . S
C1221 C285 1.247 . S
C1240 C639 1.271 . S
C1276 C458 1.700 . S
C1257 C45 1.690 . S
C1312 C494 1.679 . S
C1293 C84 1.679 . S
C1329 C117 1.625 . S
C1348 C398 1.483 . S
C1365 C174 1.627 . S
C1384 C434 1.492 . S
C1401 C213 1.625 . S
C1420 C506 1.533 . S
C1456 C386 1.676 . S
C1437 C270 1.654 . S
C1492 C422 1.693 . S
C1473 C309 1.694 . S
C1528 C470 1.492 . S
C1509 C372 1.656 . S
C1564 C602 1.692 . S
C1545 C141 1.695 . S
C1600 C638 1.686 . S
C1581 C180 1.681 . S
C1617 C21 1.631 . S
C1636 C542 1.498 . S
C1672 C578 1.499 . S
C1653 C78 1.629 . S
C1708 C650 1.520 . S
C1689 C333 1.625 . S
C1725 C366 1.645 . S
C1744 C530 1.680 . S
C1780 C566 1.705 . S
C1761 C237 1.689 . S
C1816 C614 1.562 . S
C1797 C276 1.650 . S
