# Generated by pormake.
# Topology dag, (6,3)-cn, num edge types: 1
# Building blocks:
#     Node 0, Type 0, BuildingBlock: IZENUY_clean_sbu_0, # of connection points: 6
#     Node 1, Type 0, BuildingBlock: IZENUY_clean_sbu_0, # of connection points: 6
#     Node 2, Type 0, BuildingBlock: IZENUY_clean_sbu_0, # of connection points: 6
#     Node 3, Type 0, BuildingBlock: IZENUY_clean_sbu_0, # of connection points: 6
#     Node 4, Type 1, BuildingBlock: CUQRIR_clean_linker_1, # of connection points: 3
#     Node 5, Type 1, BuildingBlock: CUQRIR_clean_linker_1, # of connection points: 3
#     Node 6, Type 1, BuildingBlock: CUQRIR_clean_linker_1, # of connection points: 3
#     Node 7, Type 1, BuildingBlock: CUQRIR_clean_linker_1, # of connection points: 3
#     Node 8, Type 1, BuildingBlock: CUQRIR_clean_linker_1, # of connection points: 3
#     Node 9, Type 1, BuildingBlock: CUQRIR_clean_linker_1, # of connection points: 3
#     Node 10, Type 1, BuildingBlock: CUQRIR_clean_linker_1, # of connection points: 3
#     Node 11, Type 1, BuildingBlock: CUQRIR_clean_linker_1, # of connection points: 3
#     Edge 12, Type (0, 1), BuildingBlock: EZIPEK_clean_linker_0, # of connection points: 2
#     Edge 13, Type (0, 1), BuildingBlock: EZIPEK_clean_linker_0, # of connection points: 2
#     Edge 14, Type (0, 1), BuildingBlock: EZIPEK_clean_linker_0, # of connection points: 2
#     Edge 15, Type (0, 1), BuildingBlock: EZIPEK_clean_linker_0, # of connection points: 2
#     Edge 16, Type (0, 1), BuildingBlock: EZIPEK_clean_linker_0, # of connection points: 2
#     Edge 17, Type (0, 1), BuildingBlock: EZIPEK_clean_linker_0, # of connection points: 2
#     Edge 18, Type (0, 1), BuildingBlock: EZIPEK_clean_linker_0, # of connection points: 2
#     Edge 19, Type (0, 1), BuildingBlock: EZIPEK_clean_linker_0, # of connection points: 2
#     Edge 20, Type (0, 1), BuildingBlock: EZIPEK_clean_linker_0, # of connection points: 2
#     Edge 21, Type (0, 1), BuildingBlock: EZIPEK_clean_linker_0, # of connection points: 2
#     Edge 22, Type (0, 1), BuildingBlock: EZIPEK_clean_linker_0, # of connection points: 2
#     Edge 23, Type (0, 1), BuildingBlock: EZIPEK_clean_linker_0, # of connection points: 2
#     Edge 24, Type (0, 1), BuildingBlock: EZIPEK_clean_linker_0, # of connection points: 2
#     Edge 25, Type (0, 1), BuildingBlock: EZIPEK_clean_linker_0, # of connection points: 2
#     Edge 26, Type (0, 1), BuildingBlock: EZIPEK_clean_linker_0, # of connection points: 2
#     Edge 27, Type (0, 1), BuildingBlock: EZIPEK_clean_linker_0, # of connection points: 2
#     Edge 28, Type (0, 1), BuildingBlock: EZIPEK_clean_linker_0, # of connection points: 2
#     Edge 29, Type (0, 1), BuildingBlock: EZIPEK_clean_linker_0, # of connection points: 2
#     Edge 30, Type (0, 1), BuildingBlock: EZIPEK_clean_linker_0, # of connection points: 2
#     Edge 31, Type (0, 1), BuildingBlock: EZIPEK_clean_linker_0, # of connection points: 2
#     Edge 32, Type (0, 1), BuildingBlock: EZIPEK_clean_linker_0, # of connection points: 2
#     Edge 33, Type (0, 1), BuildingBlock: EZIPEK_clean_linker_0, # of connection points: 2
#     Edge 34, Type (0, 1), BuildingBlock: EZIPEK_clean_linker_0, # of connection points: 2
#     Edge 35, Type (0, 1), BuildingBlock: EZIPEK_clean_linker_0, # of connection points: 2
# Relax obj value: 0.079
# Max RMSD: 0.083
# Mean RMSD: 0.076
data_MOF--net-dag--node1-IZENUY_clean_sbu_0--node2-CUQRIR_clean_linker_1--edge1-EZIPEK_clean_linker_0
_symmetry_space_group_name_H-M    P1
_symmetry_Int_Tables_number       1
_symmetry_cell_setting            triclinic
loop_
_symmetry_equiv_pos_as_xyz
'x, y, z'
_cell_length_a     26.204106
_cell_length_b     26.545593
_cell_length_c     24.002813
_cell_angle_alpha  91.284745
_cell_angle_beta   90.113346
_cell_angle_gamma 89.661572
loop_
_atom_site_label
_atom_site_type_symbol
_atom_site_fract_x
_atom_site_fract_y
_atom_site_fract_z
_atom_type_partial_charge
Fe0 Fe 0.19286 0.90492 0.03365 0.0
Fe1 Fe 0.07952 0.933 0.0195 0.0
O2 O 0.12839 0.88648 0.02302 0.0
Fe3 Fe 0.11288 0.82155 0.01591 0.0
O4 O 0.13902 0.80774 0.08409 0.0
O5 O 0.21058 0.84944 0.07388 0.0
O6 O 0.17755 0.93607 0.0995 0.0
C7 C 0.14527 0.97114 0.10498 0.0
C8 C 0.206 0.82922 0.956 0.0
O9 O 0.11008 0.97706 0.06942 0.0
C10 C 0.04969 0.86009 0.937 0.0
O11 O 0.18714 0.96405 0.99543 0.0
O12 O 0.10946 0.96256 0.96057 0.0
O13 O 0.17271 0.80362 0.98066 0.0
O14 O 0.21317 0.87497 0.96859 0.0
C15 C 0.03083 0.86213 0.08066 0.0
O16 O 0.04 0.89744 0.96907 0.0
O17 O 0.08577 0.83016 0.94723 0.0
C18 C 0.15452 0.97886 0.96038 0.0
O19 O 0.04579 0.90703 0.07808 0.0
O20 O 0.04997 0.82768 0.04975 0.0
C21 C 0.18403 0.8176 0.09914 0.0
Fe22 Fe 0.69531 0.60679 0.50751 0.0
Fe23 Fe 0.609 0.68647 0.51563 0.0
O24 O 0.62967 0.62261 0.51447 0.0
Fe25 Fe 0.58435 0.57419 0.522 0.0
O26 O 0.62739 0.53075 0.55785 0.0
O27 O 0.69646 0.57495 0.57395 0.0
O28 O 0.71851 0.66291 0.54533 0.0
C29 C 0.69639 0.69409 0.57776 0.0
C30 C 0.64456 0.53271 0.44101 0.0
O31 O 0.64907 0.70192 0.57508 0.0
C32 C 0.53143 0.64474 0.4549 0.0
O33 O 0.69966 0.63769 0.44106 0.0
O34 O 0.6581 0.7071 0.46607 0.0
O35 O 0.60016 0.54682 0.45452 0.0
O36 O 0.68344 0.54772 0.46808 0.0
C37 C 0.54947 0.64167 0.60013 0.0
O38 O 0.56715 0.67627 0.45612 0.0
O39 O 0.53135 0.60811 0.48785 0.0
C40 C 0.68818 0.68321 0.43338 0.0
O41 O 0.55631 0.67675 0.56588 0.0
O42 O 0.56763 0.59858 0.59008 0.0
C43 C 0.66749 0.53906 0.58577 0.0
Fe44 Fe 0.89715 0.18838 0.01493 0.0
Fe45 Fe 0.92926 0.07692 0.01978 0.0
O46 O 0.88059 0.12358 0.01557 0.0
Fe47 Fe 0.8154 0.10554 0.01188 0.0
O48 O 0.80621 0.13603 0.9454 0.0
O49 O 0.84406 0.20692 0.96979 0.0
O50 O 0.9346 0.17951 0.95214 0.0
C51 C 0.97155 0.14923 0.94749 0.0
C52 C 0.81371 0.19259 0.08256 0.0
O53 O 0.97619 0.11217 0.97949 0.0
C54 C 0.85029 0.03877 0.08833 0.0
O55 O 0.95369 0.18198 0.05991 0.0
O56 O 0.95286 0.10295 0.08537 0.0
O57 O 0.79166 0.16098 0.05078 0.0
O58 O 0.86052 0.20213 0.07759 0.0
C59 C 0.86532 0.03165 0.94411 0.0
O60 O 0.89111 0.0331 0.06065 0.0
O61 O 0.8193 0.07385 0.07803 0.0
C62 C 0.96737 0.14776 0.0927 0.0
O63 O 0.9096 0.04735 0.95462 0.0
O64 O 0.82725 0.04663 0.97233 0.0
C65 C 0.81528 0.1819 0.93735 0.0
Fe66 Fe 0.42671 0.43591 0.52267 0.0
Fe67 Fe 0.31349 0.40594 0.53255 0.0
O68 O 0.37915 0.38874 0.52766 0.0
Fe69 Fe 0.39749 0.32406 0.52782 0.0
O70 O 0.43559 0.33327 0.5903 0.0
O71 O 0.47504 0.40115 0.56229 0.0
O72 O 0.40757 0.46567 0.58817 0.0
C73 C 0.36303 0.48031 0.60027 0.0
C74 C 0.46503 0.36536 0.44886 0.0
O75 O 0.32454 0.46424 0.57358 0.0
C76 C 0.31344 0.31913 0.46052 0.0
O77 O 0.38713 0.4793 0.48268 0.0
O78 O 0.31503 0.43911 0.46738 0.0
O79 O 0.45331 0.33134 0.48247 0.0
O80 O 0.4496 0.41005 0.4564 0.0
C81 C 0.3164 0.32873 0.60591 0.0
O82 O 0.29082 0.35069 0.49231 0.0
O83 O 0.36049 0.31003 0.46546 0.0
C84 C 0.34552 0.47401 0.45658 0.0
O85 O 0.30599 0.37439 0.5983 0.0
O86 O 0.34547 0.30432 0.57314 0.0
C87 C 0.47153 0.3644 0.59478 0.0
C88 C 0.14037 0.21355 0.29027 0.0
N89 N 0.12496 0.17574 0.2556 0.0
N90 N 0.1852 0.20133 0.31488 0.0
C91 C 0.11374 0.26349 0.29705 0.0
C92 C 0.19625 0.15466 0.29438 0.0
N93 N 0.16 0.13941 0.25768 0.0
C94 C 0.24395 0.12563 0.30783 0.0
H95 H 0.12607 0.28834 0.2631 0.0
H96 H 0.12362 0.28181 0.33762 0.0
H97 H 0.07179 0.25878 0.29379 0.0
H98 H 0.24953 0.1249 0.35361 0.0
H99 H 0.27726 0.14513 0.28992 0.0
H100 H 0.24253 0.08643 0.29094 0.0
C101 C 0.32154 0.66013 0.79546 0.0
N102 N 0.36055 0.63938 0.76588 0.0
N103 N 0.33404 0.70648 0.81438 0.0
C104 C 0.26861 0.63869 0.79906 0.0
C105 C 0.38146 0.71445 0.7943 0.0
N106 N 0.39972 0.67188 0.76746 0.0
C107 C 0.40111 0.7674 0.78865 0.0
H108 H 0.24562 0.65258 0.76364 0.0
H109 H 0.24974 0.65137 0.83833 0.0
H110 H 0.26898 0.59701 0.79657 0.0
H111 H 0.42561 0.77771 0.82476 0.0
H112 H 0.36901 0.79485 0.78925 0.0
H113 H 0.42132 0.77233 0.74872 0.0
C114 C 0.78407 0.85052 0.25859 0.0
N115 N 0.8202 0.86689 0.22319 0.0
N116 N 0.79486 0.80299 0.27464 0.0
C117 C 0.73865 0.88092 0.27768 0.0
C118 C 0.83926 0.7914 0.24823 0.0
N119 N 0.85486 0.83043 0.2174 0.0
C120 C 0.86753 0.74234 0.25293 0.0
H121 H 0.72642 0.86964 0.31982 0.0
H122 H 0.70661 0.87399 0.24827 0.0
H123 H 0.74741 0.92178 0.27801 0.0
H124 H 0.84108 0.71144 0.26331 0.0
H125 H 0.89632 0.74607 0.2867 0.0
H126 H 0.88786 0.73284 0.21353 0.0
C127 C 0.72556 0.35394 0.76366 0.0
N128 N 0.6891 0.37281 0.72979 0.0
N129 N 0.71096 0.30884 0.78354 0.0
C130 C 0.77537 0.37917 0.77676 0.0
C131 C 0.66421 0.30119 0.76094 0.0
N132 N 0.65088 0.34006 0.72847 0.0
C133 C 0.63123 0.25624 0.77136 0.0
H134 H 0.80326 0.36887 0.74364 0.0
H135 H 0.79076 0.3667 0.81731 0.0
H136 H 0.77063 0.42075 0.7775 0.0
H137 H 0.65433 0.22373 0.7854 0.0
H138 H 0.60965 0.24517 0.73327 0.0
H139 H 0.60317 0.26644 0.80434 0.0
C140 C 0.63587 0.29564 0.2498 0.0
N141 N 0.62109 0.33319 0.28528 0.0
N142 N 0.68086 0.30724 0.22569 0.0
C143 C 0.60852 0.24655 0.24177 0.0
C144 C 0.69257 0.35324 0.24707 0.0
N145 N 0.65643 0.3688 0.28356 0.0
C146 C 0.74136 0.38059 0.23571 0.0
H147 H 0.62063 0.22063 0.27498 0.0
H148 H 0.61803 0.22889 0.20072 0.0
H149 H 0.56666 0.25233 0.24519 0.0
H150 H 0.74643 0.38415 0.19009 0.0
H151 H 0.77397 0.3581 0.25142 0.0
H152 H 0.74184 0.41861 0.25584 0.0
C153 C 0.16594 0.21723 0.784 0.0
N154 N 0.15099 0.18006 0.81766 0.0
N155 N 0.21323 0.20746 0.76394 0.0
C156 C 0.13396 0.26212 0.7689 0.0
C157 C 0.22639 0.16274 0.78617 0.0
N158 N 0.18823 0.14589 0.81867 0.0
C159 C 0.27573 0.13544 0.77488 0.0
H160 H 0.11479 0.25406 0.72845 0.0
H161 H 0.15841 0.29571 0.76394 0.0
H162 H 0.10418 0.27037 0.8006 0.0
H163 H 0.30818 0.16175 0.7802 0.0
H164 H 0.27591 0.12162 0.73091 0.0
H165 H 0.2809 0.10302 0.80274 0.0
C166 C 0.27889 0.66029 0.2845 0.0
N167 N 0.31584 0.64324 0.31868 0.0
N168 N 0.2925 0.70492 0.26305 0.0
C169 C 0.2304 0.63286 0.27072 0.0
C170 C 0.33907 0.71442 0.28543 0.0
N171 N 0.35314 0.67691 0.31957 0.0
C172 C 0.37061 0.75994 0.27379 0.0
H173 H 0.23669 0.609 0.23279 0.0
H174 H 0.19915 0.65997 0.26194 0.0
H175 H 0.21909 0.60814 0.3052 0.0
H176 H 0.36083 0.79011 0.30476 0.0
H177 H 0.36235 0.77412 0.23155 0.0
H178 H 0.4119 0.75118 0.27773 0.0
C179 C 0.81238 0.8548 0.7493 0.0
N180 N 0.85026 0.86948 0.78411 0.0
N181 N 0.82467 0.81058 0.7236 0.0
C182 C 0.7619 0.88125 0.74371 0.0
C183 C 0.8715 0.799 0.74357 0.0
N184 N 0.88682 0.83461 0.78106 0.0
C185 C 0.90088 0.75211 0.72802 0.0
H186 H 0.73448 0.8646 0.77316 0.0
H187 H 0.74655 0.87598 0.70087 0.0
H188 H 0.76538 0.92205 0.7539 0.0
H189 H 0.9419 0.75602 0.73875 0.0
H190 H 0.89662 0.7436 0.68277 0.0
H191 H 0.8849 0.71999 0.75092 0.0
C192 C 0.11716 0.01688 0.19261 0.0
C193 C 0.15305 0.01078 0.14866 0.0
C194 C 0.19498 0.08932 0.17819 0.0
C195 C 0.16026 0.09426 0.22305 0.0
N196 N 0.09751 0.05747 0.2817 0.0
N197 N 0.23322 0.03523 0.10737 0.0
C198 C 0.12399 0.05637 0.2328 0.0
C199 C 0.1944 0.04495 0.14408 0.0
N200 N 0.07643 0.98521 0.19575 0.0
N201 N 0.22706 0.12808 0.16669 0.0
H202 H 0.23395 1.00426 0.08008 0.0
H203 H 0.26689 0.05586 0.10688 0.0
H204 H 0.22933 0.1607 0.19149 0.0
H205 H 0.24851 0.1297 0.13031 0.0
H206 H 0.04586 0.99133 0.22277 0.0
H207 H 0.0719 0.95411 0.16907 0.0
H208 H 0.07327 0.02882 0.29392 0.0
H209 H 0.1039 0.08504 0.31255 0.0
C210 C 0.51799 0.69483 0.68369 0.0
C211 C 0.51683 0.64904 0.65081 0.0
C212 C 0.46386 0.6134 0.72345 0.0
C213 C 0.44974 0.66207 0.7412 0.0
N214 N 0.50309 0.72759 0.77696 0.0
N215 N 0.48327 0.56313 0.64254 0.0
C216 C 0.48733 0.69877 0.73266 0.0
C217 C 0.48914 0.6073 0.67206 0.0
N218 N 0.54932 0.73359 0.67054 0.0
N219 N 0.45815 0.57424 0.75831 0.0
H220 H 0.49149 0.55894 0.60027 0.0
H221 H 0.46322 0.53287 0.65846 0.0
H222 H 0.44444 0.58033 0.79876 0.0
H223 H 0.47205 0.53814 0.74886 0.0
H224 H 0.54638 0.76901 0.69004 0.0
H225 H 0.57749 0.73093 0.64023 0.0
H226 H 0.53448 0.75145 0.77566 0.0
H227 H 0.48889 0.72128 0.81681 0.0
C228 C 0.86548 0.99311 0.17757 0.0
C229 C 0.83613 0.99927 0.12831 0.0
C230 C 0.7915 0.92008 0.14577 0.0
C231 C 0.82116 0.91406 0.19445 0.0
N232 N 0.87527 0.94975 0.26509 0.0
N233 N 0.76356 0.97435 0.07176 0.0
C234 C 0.85483 0.95222 0.21289 0.0
C235 C 0.79641 0.96475 0.1146 0.0
N236 N 0.9039 0.026 0.19021 0.0
N237 N 0.76025 0.88191 0.12814 0.0
H238 H 0.76677 0.00534 0.04627 0.0
H239 H 0.73074 0.95353 0.06368 0.0
H240 H 0.75442 0.84971 0.1513 0.0
H241 H 0.74259 0.88052 0.08927 0.0
H242 H 0.93069 0.02022 0.22155 0.0
H243 H 0.91035 0.05826 0.16746 0.0
H244 H 0.89717 0.97819 0.28348 0.0
H245 H 0.86593 0.92095 0.29207 0.0
C246 C 0.55211 0.31758 0.61699 0.0
C247 C 0.51461 0.35395 0.63285 0.0
C248 C 0.56353 0.37399 0.7174 0.0
C249 C 0.60454 0.34445 0.69642 0.0
N250 N 0.64012 0.29018 0.625 0.0
N251 N 0.4847 0.41838 0.69755 0.0
C252 C 0.59942 0.3168 0.64578 0.0
C253 C 0.5204 0.38282 0.6829 0.0
N254 N 0.5421 0.28286 0.57559 0.0
N255 N 0.56484 0.3912 0.77135 0.0
H256 H 0.4509 0.42336 0.67529 0.0
H257 H 0.48981 0.4444 0.73017 0.0
H258 H 0.59479 0.38231 0.79813 0.0
H259 H 0.53433 0.40958 0.79092 0.0
H260 H 0.56612 0.2525 0.56606 0.0
H261 H 0.50775 0.2818 0.55375 0.0
H262 H 0.64088 0.27415 0.585 0.0
H263 H 0.67449 0.28705 0.64662 0.0
C264 C 0.67032 0.44439 0.41491 0.0
C265 C 0.6505 0.49175 0.39888 0.0
C266 C 0.63566 0.45796 0.30466 0.0
C267 C 0.65858 0.41214 0.32037 0.0
N268 N 0.71253 0.36772 0.38396 0.0
N269 N 0.62681 0.54744 0.32497 0.0
C270 C 0.68096 0.40741 0.3734 0.0
C271 C 0.63665 0.4998 0.34259 0.0
N272 N 0.67579 0.4333 0.46981 0.0
N273 N 0.61284 0.46114 0.25373 0.0
H274 H 0.62954 0.57907 0.35142 0.0
H275 H 0.62058 0.55599 0.28336 0.0
H276 H 0.61373 0.43139 0.22456 0.0
H277 H 0.59077 0.49193 0.24202 0.0
H278 H 0.68597 0.3976 0.48344 0.0
H279 H 0.66442 0.458 0.50166 0.0
H280 H 0.73333 0.36484 0.42082 0.0
H281 H 0.7214 0.34024 0.35374 0.0
C282 C 0.04697 0.20246 0.92341 0.0
C283 C 0.01438 0.16123 0.90996 0.0
C284 C 0.06695 0.14062 0.82826 0.0
C285 C 0.10313 0.17646 0.84668 0.0
N286 N 0.13085 0.23917 0.91357 0.0
N287 N 0.99484 0.0887 0.8514 0.0
C288 C 0.09388 0.20702 0.89458 0.0
C289 C 0.02482 0.12955 0.86284 0.0
N290 N 0.03328 0.23737 0.96344 0.0
N291 N 0.07221 0.11865 0.77664 0.0
H292 H 0.96208 0.08102 0.87401 0.0
H293 H 1.00404 0.06098 0.82163 0.0
H294 H 0.10176 0.12826 0.74987 0.0
H295 H 0.04498 0.09511 0.75836 0.0
H296 H 0.05288 0.27092 0.97052 0.0
H297 H 1.00017 0.23501 0.98702 0.0
H298 H 0.12942 0.2577 0.95224 0.0
H299 H 0.16489 0.24464 0.89221 0.0
C300 C 0.35155 0.51365 0.36306 0.0
C301 C 0.3302 0.5135 0.4173 0.0
C302 C 0.29414 0.59769 0.40367 0.0
C303 C 0.31563 0.59754 0.34978 0.0
N304 N 0.35091 0.55139 0.27194 0.0
N305 N 0.27133 0.54973 0.48453 0.0
C306 C 0.33996 0.55408 0.32747 0.0
C307 C 0.29818 0.55375 0.43612 0.0
N308 N 0.38402 0.47594 0.34625 0.0
N309 N 0.27085 0.6404 0.42396 0.0
H310 H 0.27284 0.51782 0.50888 0.0
H311 H 0.24418 0.57595 0.49819 0.0
H312 H 0.26463 0.67183 0.39949 0.0
H313 H 0.25996 0.64567 0.46537 0.0
H314 H 0.40536 0.47682 0.30973 0.0
H315 H 0.39191 0.44509 0.37089 0.0
H316 H 0.36489 0.51903 0.25178 0.0
H317 H 0.34139 0.5804 0.24513 0.0
C318 C 0.97926 0.80648 0.89693 0.0
C319 C 0.01323 0.8477 0.89145 0.0
C320 C 0.971 0.86994 0.80412 0.0
C321 C 0.93239 0.83466 0.81488 0.0
N322 N 0.89717 0.77065 0.87241 0.0
N323 N 0.04116 0.91979 0.84043 0.0
C324 C 0.93614 0.80276 0.86114 0.0
C325 C 0.00912 0.87971 0.84502 0.0
N326 N 0.98784 0.77101 0.93635 0.0
N327 N 0.97165 0.89291 0.75385 0.0
H328 H 0.07141 0.92622 0.8678 0.0
H329 H 0.03624 0.94791 0.81131 0.0
H330 H 0.94503 0.88428 0.72273 0.0
H331 H 1.00093 0.9163 0.74104 0.0
H332 H 0.96758 0.73746 0.93813 0.0
H333 H 0.01775 0.77287 0.96485 0.0
H334 H 0.8941 0.75131 0.9095 0.0
H335 H 0.86578 0.76593 0.84619 0.0
C336 C 0.86474 1.00062 0.84481 0.0
C337 C 0.85867 0.99057 0.90223 0.0
C338 C 0.83621 0.90321 0.87906 0.0
C339 C 0.84929 0.91151 0.82304 0.0
N340 N 0.87582 0.96653 0.75082 0.0
N341 N 0.84355 0.93132 0.97523 0.0
C342 C 0.8634 0.95991 0.80536 0.0
C343 C 0.84542 0.94159 0.91976 0.0
N344 N 0.86958 0.04923 0.82802 0.0
N345 N 0.81388 0.85884 0.89271 0.0
H346 H 0.85236 0.95787 0.0062 0.0
H347 H 0.83705 0.89568 0.99074 0.0
H348 H 0.80544 0.83098 0.86286 0.0
H349 H 0.79921 0.85158 0.93196 0.0
H350 H 0.86958 0.05968 0.78649 0.0
H351 H 0.86958 0.07991 0.85594 0.0
H352 H 0.89223 0.99923 0.73601 0.0
H353 H 0.87189 0.93792 0.72064 0.0
C354 C 0.49098 0.35618 0.34791 0.0
C355 C 0.50385 0.35402 0.4053 0.0
C356 C 0.58826 0.32166 0.37984 0.0
C357 C 0.57894 0.33336 0.32381 0.0
N358 N 0.52245 0.3643 0.25342 0.0
N359 N 0.56966 0.34485 0.47507 0.0
C360 C 0.53043 0.35136 0.3074 0.0
C361 C 0.5538 0.33916 0.42119 0.0
N362 N 0.44112 0.36039 0.33215 0.0
N363 N 0.62998 0.29359 0.39337 0.0
H364 H 0.54687 0.3617 0.50569 0.0
H365 H 0.60716 0.33826 0.48766 0.0
H366 H 0.65483 0.27914 0.36304 0.0
H367 H 0.63663 0.2807 0.43346 0.0
H368 H 0.42915 0.35832 0.29075 0.0
H369 H 0.41141 0.36067 0.36099 0.0
H370 H 0.48948 0.38259 0.24007 0.0
H371 H 0.55038 0.35918 0.22284 0.0
C372 C 0.17043 0.01216 0.86474 0.0
C373 C 0.16763 0.02081 0.92326 0.0
C374 C 0.19342 0.1084 0.911 0.0
C375 C 0.18802 0.10187 0.85287 0.0
N376 N 0.17127 0.04868 0.77282 0.0
N377 N 0.17037 0.07911 0.00198 0.0
C378 C 0.17683 0.05389 0.82918 0.0
C379 C 0.17793 0.06941 0.94651 0.0
N380 N 0.16874 0.964 0.84351 0.0
N381 N 0.21408 0.15197 0.93187 0.0
H382 H 0.15635 0.05233 0.0288 0.0
H383 H 0.1736 0.11477 0.0205 0.0
H384 H 0.22707 0.18019 0.90594 0.0
H385 H 0.2232 0.15784 0.97375 0.0
H386 H 0.17511 0.95467 0.80174 0.0
H387 H 0.16513 0.93269 0.86867 0.0
H388 H 0.15729 0.01626 0.7531 0.0
H389 H 0.17818 0.07817 0.74591 0.0
C390 C 0.44845 0.69059 0.43697 0.0
C391 C 0.4858 0.65442 0.41948 0.0
C392 C 0.43961 0.64173 0.33136 0.0
C393 C 0.39963 0.67283 0.35161 0.0
N394 N 0.36319 0.72514 0.424 0.0
N395 N 0.51236 0.58955 0.3536 0.0
C396 C 0.40335 0.69692 0.40454 0.0
C397 C 0.48005 0.62823 0.36763 0.0
N398 N 0.45635 0.71941 0.48402 0.0
N399 N 0.43954 0.62655 0.27669 0.0
H400 H 0.54203 0.57847 0.37945 0.0
H401 H 0.50691 0.56574 0.31904 0.0
H402 H 0.41107 0.63779 0.24908 0.0
H403 H 0.46986 0.60736 0.2577 0.0
H404 H 0.43329 0.74983 0.4959 0.0
H405 H 0.48822 0.71529 0.50941 0.0
H406 H 0.36027 0.73876 0.46488 0.0
H407 H 0.33117 0.73265 0.39963 0.0
C408 C 0.35822 0.57234 0.62645 0.0
C409 C 0.35617 0.52125 0.64269 0.0
C410 C 0.35065 0.54833 0.74098 0.0
C411 C 0.35366 0.59925 0.72453 0.0
N412 N 0.34536 0.66024 0.65268 0.0
N413 N 0.3413 0.46016 0.71349 0.0
C414 C 0.35257 0.61132 0.66744 0.0
C415 C 0.34918 0.50913 0.69947 0.0
N416 N 0.3678 0.5837 0.57225 0.0
N417 N 0.35248 0.53769 0.79638 0.0
H418 H 0.34148 0.4306 0.68417 0.0
H419 H 0.33124 0.449 0.75323 0.0
H420 H 0.35397 0.56589 0.82735 0.0
H421 H 0.35598 0.50152 0.81174 0.0
H422 H 0.37619 0.61982 0.55909 0.0
H423 H 0.37092 0.55639 0.54071 0.0
H424 H 0.33937 0.6713 0.61184 0.0
H425 H 0.34039 0.6894 0.68205 0.0
C426 C 0.93863 0.83802 0.09126 0.0
C427 C 0.98626 0.85064 0.11626 0.0
C428 C 0.94752 0.84647 0.20905 0.0
C429 C 0.90044 0.83315 0.18389 0.0
N430 N 0.85358 0.80408 0.10389 0.0
N431 N 0.039 0.85678 0.19844 0.0
C432 C 0.89686 0.82509 0.12571 0.0
C433 C 0.99157 0.85206 0.17515 0.0
N434 N 0.93278 0.84036 0.03482 0.0
N435 N 0.94965 0.85445 0.26538 0.0
H436 H 0.07201 0.86013 0.17464 0.0
H437 H 0.04635 0.85347 0.24083 0.0
H438 H 0.91864 0.84779 0.29129 0.0
H439 H 0.98093 0.87003 0.28607 0.0
H440 H 0.89842 0.83436 0.01408 0.0
H441 H 0.96175 0.85197 0.00862 0.0
H442 H 0.84945 0.79307 0.06225 0.0
H443 H 0.8233 0.79319 0.12898 0.0
C444 C 0.71599 0.46161 0.6129 0.0
C445 C 0.68283 0.50201 0.62817 0.0
C446 C 0.66734 0.46259 0.71793 0.0
C447 C 0.69161 0.4182 0.69777 0.0
N448 N 0.7405 0.37451 0.62714 0.0
N449 N 0.62787 0.54259 0.69617 0.0
C450 C 0.7169 0.41763 0.64573 0.0
C451 C 0.65897 0.50313 0.68122 0.0
N452 N 0.74706 0.46566 0.56762 0.0
N453 N 0.65417 0.4664 0.7728 0.0
H454 H 0.62447 0.57476 0.67232 0.0
H455 H 0.60425 0.54259 0.73101 0.0
H456 H 0.66266 0.43789 0.80065 0.0
H457 H 0.63979 0.49921 0.79164 0.0
H458 H 0.77528 0.4394 0.55706 0.0
H459 H 0.74739 0.49757 0.54306 0.0
H460 H 0.75425 0.36936 0.58673 0.0
H461 H 0.74393 0.34273 0.65163 0.0
C462 C 0.05697 0.17184 0.11902 0.0
C463 C 0.00673 0.15908 0.13563 0.0
C464 C 0.0335 0.16287 0.23365 0.0
C465 C 0.08307 0.17652 0.21655 0.0
N466 N 0.13792 0.20865 0.14626 0.0
N467 N 0.94417 0.15316 0.20862 0.0
C468 C 0.09336 0.18579 0.16013 0.0
C469 C 0.99403 0.15769 0.19306 0.0
N470 N 0.07082 0.16802 0.0643 0.0
N471 N 0.02468 0.15413 0.28858 0.0
H472 H 0.91448 0.15034 0.17974 0.0
H473 H 0.93172 0.15624 0.24971 0.0
H474 H 0.0524 0.16041 0.31918 0.0
H475 H 0.99115 0.13845 0.30339 0.0
H476 H 0.10795 0.17304 0.05028 0.0
H477 H 0.04612 0.15526 0.03328 0.0
H478 H 0.14617 0.22061 0.10627 0.0
H479 H 0.16426 0.22047 0.17634 0.0
C480 C 0.2092 0.80421 0.19874 0.0
C481 C 0.20904 0.78694 0.14231 0.0
C482 C 0.26755 0.71808 0.16561 0.0
C483 C 0.26512 0.73344 0.22224 0.0
N484 N 0.22979 0.78596 0.29514 0.0
N485 N 0.23084 0.7229 0.07327 0.0
C486 C 0.2348 0.77515 0.23952 0.0
C487 C 0.23615 0.74249 0.12607 0.0
N488 N 0.18583 0.84883 0.21299 0.0
N489 N 0.30107 0.68087 0.14973 0.0
H490 H 0.2076 0.7393 0.04348 0.0
H491 H 0.24575 0.68816 0.06029 0.0
H492 H 0.32419 0.6622 0.17817 0.0
H493 H 0.30903 0.67125 0.10837 0.0
H494 H 0.18897 0.86623 0.25212 0.0
H495 H 0.16542 0.87016 0.18449 0.0
H496 H 0.2044 0.8127 0.31145 0.0
H497 H 0.24893 0.7655 0.32547 0.0
C498 C 0.75711 0.76517 0.59452 0.0
C499 C 0.7277 0.72531 0.61608 0.0
C500 C 0.7605 0.74391 0.70985 0.0
C501 C 0.79288 0.78066 0.68723 0.0
N502 N 0.82762 0.82297 0.60889 0.0
N503 N 0.70383 0.67316 0.69264 0.0
C504 C 0.79284 0.79022 0.62968 0.0
C505 C 0.7299 0.71373 0.67345 0.0
N506 N 0.74919 0.7805 0.54123 0.0
N507 N 0.75848 0.73888 0.7663 0.0
H508 H 0.68001 0.65114 0.66731 0.0
H509 H 0.70795 0.6594 0.73266 0.0
H510 H 0.78148 0.75987 0.79355 0.0
H511 H 0.73207 0.71653 0.78639 0.0
H512 H 0.76604 0.81219 0.52454 0.0
H513 H 0.72209 0.76404 0.51496 0.0
H514 H 0.83355 0.82788 0.56648 0.0
H515 H 0.85341 0.8426 0.63433 0.0
C516 C 0.75501 0.26563 0.1001 0.0
C517 C 0.78195 0.22347 0.12092 0.0
C518 C 0.74313 0.23783 0.21254 0.0
C519 C 0.71259 0.27649 0.18986 0.0
N520 N 0.68258 0.32218 0.11118 0.0
N521 N 0.7973 0.16488 0.19456 0.0
C522 C 0.71643 0.28873 0.1332 0.0
C523 C 0.77477 0.20815 0.17655 0.0
N524 N 0.76768 0.28485 0.04972 0.0
N525 N 0.74314 0.23088 0.26871 0.0
H526 H 0.82161 0.14288 0.16957 0.0
H527 H 0.78923 0.14899 0.2328 0.0
H528 H 0.7204 0.25233 0.29591 0.0
H529 H 0.76838 0.20679 0.2887 0.0
H530 H 0.75237 0.31814 0.03455 0.0
H531 H 0.79729 0.2702 0.02547 0.0
H532 H 0.6799 0.32907 0.06872 0.0
H533 H 0.65409 0.33976 0.13509 0.0
C534 C 0.24328 0.2746 0.63294 0.0
C535 C 0.28834 0.30073 0.64855 0.0
C536 C 0.28211 0.26725 0.74256 0.0
C537 C 0.24088 0.23674 0.72449 0.0
N538 N 0.18801 0.20397 0.65062 0.0
N539 N 0.35424 0.31856 0.71634 0.0
C540 C 0.22328 0.2382 0.66898 0.0
C541 C 0.30891 0.29611 0.70294 0.0
N542 N 0.21839 0.28597 0.58479 0.0
N543 N 0.29434 0.26974 0.79786 0.0
H544 H 0.37399 0.34113 0.68874 0.0
H545 H 0.37376 0.31231 0.7534 0.0
H546 H 0.27514 0.24884 0.8275 0.0
H547 H 0.32069 0.29501 0.81478 0.0
H548 H 0.18295 0.27118 0.57377 0.0
H549 H 0.23065 0.31417 0.55866 0.0
H550 H 0.17728 0.19985 0.60895 0.0
H551 H 0.17313 0.17651 0.67636 0.0
C552 C 0.76684 0.72819 0.40185 0.0
C553 C 0.71635 0.71146 0.39047 0.0
C554 C 0.71982 0.7515 0.29926 0.0
C555 C 0.76755 0.77285 0.31394 0.0
N556 N 0.83159 0.79027 0.38318 0.0
N557 N 0.64277 0.70987 0.33001 0.0
C558 C 0.78964 0.76365 0.36643 0.0
C559 C 0.69211 0.72407 0.33963 0.0
N560 N 0.79377 0.70931 0.44551 0.0
N561 N 0.70208 0.75606 0.24609 0.0
H562 H 0.62243 0.68755 0.35735 0.0
H563 H 0.62114 0.72239 0.29657 0.0
H564 H 0.7221 0.77545 0.21585 0.0
H565 H 0.66991 0.73753 0.23077 0.0
H566 H 0.83229 0.71673 0.45238 0.0
H567 H 0.77928 0.68221 0.47164 0.0
H568 H 0.84641 0.7892 0.42345 0.0
H569 H 0.84846 0.81732 0.35841 0.0
C570 C 0.73949 0.2337 0.91051 0.0
C571 C 0.78599 0.20968 0.89489 0.0
C572 C 0.7805 0.24809 0.80305 0.0
C573 C 0.73768 0.27661 0.82153 0.0
N574 N 0.68152 0.30354 0.89537 0.0
N575 N 0.85393 0.19719 0.82833 0.0
C576 C 0.71864 0.27136 0.87608 0.0
C577 C 0.80747 0.21774 0.84161 0.0
N578 N 0.71448 0.21955 0.95744 0.0
N579 N 0.79419 0.24894 0.74824 0.0
H580 H 0.87374 0.17338 0.85489 0.0
H581 H 0.87413 0.20605 0.79259 0.0
H582 H 0.7747 0.2706 0.71927 0.0
H583 H 0.822 0.22536 0.7307 0.0
H584 H 0.67828 0.23275 0.96838 0.0
H585 H 0.72765 0.19067 0.9824 0.0
H586 H 0.66955 0.30508 0.93673 0.0
H587 H 0.66615 0.33201 0.87106 0.0
C588 C 0.25771 0.24429 0.4417 0.0
C589 C 0.28244 0.28777 0.42174 0.0
C590 C 0.24559 0.27182 0.32919 0.0
C591 C 0.21666 0.23198 0.35113 0.0
N592 N 0.18783 0.18564 0.42957 0.0
N593 N 0.2955 0.34699 0.34845 0.0
C594 C 0.22052 0.21992 0.40791 0.0
C595 C 0.27509 0.30281 0.36595 0.0
N596 N 0.27123 0.22499 0.49188 0.0
N597 N 0.24614 0.27873 0.27302 0.0
H598 H 0.31808 0.37003 0.37407 0.0
H599 H 0.28718 0.36251 0.31 0.0
H600 H 0.22528 0.2561 0.2453 0.0
H601 H 0.27029 0.30392 0.25364 0.0
H602 H 0.25774 0.19082 0.50624 0.0
H603 H 0.29982 0.24064 0.51675 0.0
H604 H 0.18514 0.17888 0.47204 0.0
H605 H 0.16023 0.16723 0.40535 0.0
C606 C 0.28698 0.7807 0.93942 0.0
C607 C 0.24184 0.80267 0.91761 0.0
C608 C 0.2621 0.76691 0.82506 0.0
C609 C 0.30349 0.74027 0.84862 0.0
N610 N 0.35236 0.71622 0.92849 0.0
N611 N 0.18406 0.81497 0.84077 0.0
C612 C 0.31525 0.74585 0.90588 0.0
C613 C 0.22876 0.79544 0.86057 0.0
N614 N 0.30338 0.7939 0.99176 0.0
N615 N 0.25571 0.76567 0.76859 0.0
H616 H 0.15987 0.83765 0.86516 0.0
H617 H 0.16956 0.80662 0.80126 0.0
H618 H 0.27998 0.7451 0.74209 0.0
H619 H 0.22921 0.78777 0.74778 0.0
H620 H 0.33838 0.78273 0.00811 0.0
H621 H 0.28425 0.8201 0.01705 0.0
H622 H 0.35908 0.71414 0.97115 0.0
H623 H 0.3738 0.69042 0.90477 0.0
loop_
_geom_bond_atom_site_label_1
_geom_bond_atom_site_label_2
_geom_bond_distance
_geom_bond_site_symmetry_2
_ccdc_geom_bond_type
Fe0 O2 1.918 . S
Fe0 O5 1.997 . S
Fe0 O6 2.002 . S
Fe0 O11 1.976 1_554 S
Fe0 O14 1.996 1_554 S
Fe1 O2 1.918 . S
Fe1 O9 1.997 . S
Fe1 O12 1.996 1_554 S
Fe1 O16 1.976 1_554 S
Fe1 O19 2.002 . S
O2 Fe0 1.918 . S
O2 Fe1 1.918 . S
O2 Fe3 1.918 . S
Fe3 O2 1.918 . S
Fe3 O4 2.002 . S
Fe3 O13 1.976 1_554 S
Fe3 O17 1.996 1_554 S
Fe3 O20 1.997 . S
O4 Fe3 2.002 . S
O4 C21 1.295 . S
O5 Fe0 1.997 . S
O5 C21 1.235 . S
O6 Fe0 2.002 . S
O6 C7 1.295 . S
C7 O6 1.295 . S
C7 O9 1.235 . S
C8 O13 1.287 . S
C8 O14 1.255 . S
O9 Fe1 1.997 . S
O9 C7 1.235 . S
C10 O16 1.287 . S
C10 O17 1.255 . S
O11 Fe0 1.976 1_556 S
O11 C18 1.287 . S
O12 Fe1 1.996 1_556 S
O12 C18 1.255 . S
O13 Fe3 1.976 1_556 S
O13 C8 1.287 . S
O14 Fe0 1.996 1_556 S
O14 C8 1.255 . S
C15 O19 1.295 . S
C15 O20 1.235 . S
O16 Fe1 1.976 1_556 S
O16 C10 1.287 . S
O17 Fe3 1.996 1_556 S
O17 C10 1.255 . S
C18 O11 1.287 . S
C18 O12 1.255 . S
O19 Fe1 2.002 . S
O19 C15 1.295 . S
O20 Fe3 1.997 . S
O20 C15 1.235 . S
C21 O4 1.295 . S
C21 O5 1.235 . S
Fe22 O24 1.918 . S
Fe22 O27 1.997 . S
Fe22 O28 2.002 . S
Fe22 O33 1.976 . S
Fe22 O36 1.996 . S
Fe23 O24 1.918 . S
Fe23 O31 1.997 . S
Fe23 O34 1.996 . S
Fe23 O38 1.976 . S
Fe23 O41 2.002 . S
O24 Fe22 1.918 . S
O24 Fe23 1.918 . S
O24 Fe25 1.918 . S
Fe25 O24 1.918 . S
Fe25 O26 2.002 . S
Fe25 O35 1.976 . S
Fe25 O39 1.996 . S
Fe25 O42 1.997 . S
O26 Fe25 2.002 . S
O26 C43 1.295 . S
O27 Fe22 1.997 . S
O27 C43 1.235 . S
O28 Fe22 2.002 . S
O28 C29 1.295 . S
C29 O28 1.295 . S
C29 O31 1.235 . S
C30 O35 1.287 . S
C30 O36 1.255 . S
O31 Fe23 1.997 . S
O31 C29 1.235 . S
C32 O38 1.287 . S
C32 O39 1.255 . S
O33 Fe22 1.976 . S
O33 C40 1.287 . S
O34 Fe23 1.996 . S
O34 C40 1.255 . S
O35 Fe25 1.976 . S
O35 C30 1.287 . S
O36 Fe22 1.996 . S
O36 C30 1.255 . S
C37 O41 1.295 . S
C37 O42 1.235 . S
O38 Fe23 1.976 . S
O38 C32 1.287 . S
O39 Fe25 1.996 . S
O39 C32 1.255 . S
C40 O33 1.287 . S
C40 O34 1.255 . S
O41 Fe23 2.002 . S
O41 C37 1.295 . S
O42 Fe25 1.997 . S
O42 C37 1.235 . S
C43 O26 1.295 . S
C43 O27 1.235 . S
Fe44 O46 1.918 . S
Fe44 O49 1.997 1_554 S
Fe44 O50 2.002 1_554 S
Fe44 O55 1.976 . S
Fe44 O58 1.996 . S
Fe45 O46 1.918 . S
Fe45 O53 1.997 1_554 S
Fe45 O56 1.996 . S
Fe45 O60 1.976 . S
Fe45 O63 2.002 1_554 S
O46 Fe44 1.918 . S
O46 Fe45 1.918 . S
O46 Fe47 1.918 1_554 S
Fe47 O46 1.918 1_556 S
Fe47 O48 2.002 . S
Fe47 O57 1.976 1_556 S
Fe47 O61 1.996 1_556 S
Fe47 O64 1.997 . S
O48 Fe47 2.002 . S
O48 C65 1.295 . S
O49 Fe44 1.997 1_556 S
O49 C65 1.235 . S
O50 Fe44 2.002 1_556 S
O50 C51 1.295 . S
C51 O50 1.295 . S
C51 O53 1.235 . S
C52 O57 1.287 . S
C52 O58 1.255 . S
O53 Fe45 1.997 1_556 S
O53 C51 1.235 . S
C54 O60 1.287 . S
C54 O61 1.255 . S
O55 Fe44 1.976 . S
O55 C62 1.287 . S
O56 Fe45 1.996 . S
O56 C62 1.255 . S
O57 Fe47 1.976 1_554 S
O57 C52 1.287 . S
O58 Fe44 1.996 . S
O58 C52 1.255 . S
C59 O63 1.295 . S
C59 O64 1.235 . S
O60 Fe45 1.976 . S
O60 C54 1.287 . S
O61 Fe47 1.996 1_554 S
O61 C54 1.255 . S
C62 O55 1.287 . S
C62 O56 1.255 . S
O63 Fe45 2.002 1_556 S
O63 C59 1.295 . S
O64 Fe47 1.997 . S
O64 C59 1.235 . S
C65 O48 1.295 . S
C65 O49 1.235 . S
Fe66 O68 1.918 . S
Fe66 O71 1.997 . S
Fe66 O72 2.002 . S
Fe66 O77 1.976 . S
Fe66 O80 1.996 . S
Fe67 O68 1.918 . S
Fe67 O75 1.997 . S
Fe67 O78 1.996 . S
Fe67 O82 1.976 . S
Fe67 O85 2.002 . S
O68 Fe66 1.918 . S
O68 Fe67 1.918 . S
O68 Fe69 1.918 . S
Fe69 O68 1.918 . S
Fe69 O70 2.002 . S
Fe69 O79 1.976 . S
Fe69 O83 1.996 . S
Fe69 O86 1.997 . S
O70 Fe69 2.002 . S
O70 C87 1.295 . S
O71 Fe66 1.997 . S
O71 C87 1.235 . S
O72 Fe66 2.002 . S
O72 C73 1.295 . S
C73 O72 1.295 . S
C73 O75 1.235 . S
C74 O79 1.287 . S
C74 O80 1.255 . S
O75 Fe67 1.997 . S
O75 C73 1.235 . S
C76 O82 1.287 . S
C76 O83 1.255 . S
O77 Fe66 1.976 . S
O77 C84 1.287 . S
O78 Fe67 1.996 . S
O78 C84 1.255 . S
O79 Fe69 1.976 . S
O79 C74 1.287 . S
O80 Fe66 1.996 . S
O80 C74 1.255 . S
C81 O85 1.295 . S
C81 O86 1.235 . S
O82 Fe67 1.976 . S
O82 C76 1.287 . S
O83 Fe69 1.996 . S
O83 C76 1.255 . S
C84 O77 1.287 . S
C84 O78 1.255 . S
O85 Fe67 2.002 . S
O85 C81 1.295 . S
O86 Fe69 1.997 . S
O86 C81 1.235 . S
C87 O70 1.295 . S
C87 O71 1.235 . S
C88 N89 1.317 . S
C88 N90 1.348 . S
C88 C91 1.485 . S
N89 C88 1.317 . S
N89 N93 1.370 . S
N90 C88 1.348 . S
N90 C92 1.346 . S
C91 C88 1.485 . S
C91 H95 0.960 . S
C91 H96 0.961 . S
C91 H97 0.960 . S
C92 N90 1.346 . S
C92 N93 1.307 . S
C92 C94 1.486 . S
N93 N89 1.370 . S
N93 C92 1.307 . S
C94 C92 1.486 . S
C94 H98 0.960 . S
C94 H99 0.960 . S
C94 H100 0.959 . S
H95 C91 0.960 . S
H96 C91 0.961 . S
H97 C91 0.960 . S
H98 C94 0.960 . S
H99 C94 0.960 . S
H100 C94 0.959 . S
C101 N102 1.317 . S
C101 N103 1.348 . S
C101 C104 1.485 . S
N102 C101 1.317 . S
N102 N106 1.370 . S
N103 C101 1.348 . S
N103 C105 1.346 . S
C104 C101 1.485 . S
C104 H108 0.960 . S
C104 H109 0.961 . S
C104 H110 0.960 . S
C105 N103 1.346 . S
C105 N106 1.307 . S
C105 C107 1.486 . S
N106 N102 1.370 . S
N106 C105 1.307 . S
C107 C105 1.486 . S
C107 H111 0.960 . S
C107 H112 0.960 . S
C107 H113 0.959 . S
H108 C104 0.960 . S
H109 C104 0.961 . S
H110 C104 0.960 . S
H111 C107 0.960 . S
H112 C107 0.960 . S
H113 C107 0.959 . S
C114 N115 1.317 . S
C114 N116 1.348 . S
C114 C117 1.485 . S
N115 C114 1.317 . S
N115 N119 1.370 . S
N116 C114 1.348 . S
N116 C118 1.346 . S
C117 C114 1.485 . S
C117 H121 0.960 . S
C117 H122 0.961 . S
C117 H123 0.960 . S
C118 N116 1.346 . S
C118 N119 1.307 . S
C118 C120 1.486 . S
N119 N115 1.370 . S
N119 C118 1.307 . S
C120 C118 1.486 . S
C120 H124 0.960 . S
C120 H125 0.960 . S
C120 H126 0.959 . S
H121 C117 0.960 . S
H122 C117 0.961 . S
H123 C117 0.960 . S
H124 C120 0.960 . S
H125 C120 0.960 . S
H126 C120 0.959 . S
C127 N128 1.317 . S
C127 N129 1.348 . S
C127 C130 1.485 . S
N128 C127 1.317 . S
N128 N132 1.370 . S
N129 C127 1.348 . S
N129 C131 1.346 . S
C130 C127 1.485 . S
C130 H134 0.960 . S
C130 H135 0.961 . S
C130 H136 0.960 . S
C131 N129 1.346 . S
C131 N132 1.307 . S
C131 C133 1.486 . S
N132 N128 1.370 . S
N132 C131 1.307 . S
C133 C131 1.486 . S
C133 H137 0.960 . S
C133 H138 0.960 . S
C133 H139 0.959 . S
H134 C130 0.960 . S
H135 C130 0.961 . S
H136 C130 0.960 . S
H137 C133 0.960 . S
H138 C133 0.960 . S
H139 C133 0.959 . S
C140 N141 1.317 . S
C140 N142 1.348 . S
C140 C143 1.485 . S
N141 C140 1.317 . S
N141 N145 1.370 . S
N142 C140 1.348 . S
N142 C144 1.346 . S
C143 C140 1.485 . S
C143 H147 0.960 . S
C143 H148 0.961 . S
C143 H149 0.960 . S
C144 N142 1.346 . S
C144 N145 1.307 . S
C144 C146 1.486 . S
N145 N141 1.370 . S
N145 C144 1.307 . S
C146 C144 1.486 . S
C146 H150 0.960 . S
C146 H151 0.960 . S
C146 H152 0.959 . S
H147 C143 0.960 . S
H148 C143 0.961 . S
H149 C143 0.960 . S
H150 C146 0.960 . S
H151 C146 0.960 . S
H152 C146 0.959 . S
C153 N154 1.317 . S
C153 N155 1.348 . S
C153 C156 1.485 . S
N154 C153 1.317 . S
N154 N158 1.370 . S
N155 C153 1.348 . S
N155 C157 1.346 . S
C156 C153 1.485 . S
C156 H160 0.960 . S
C156 H161 0.961 . S
C156 H162 0.960 . S
C157 N155 1.346 . S
C157 N158 1.307 . S
C157 C159 1.486 . S
N158 N154 1.370 . S
N158 C157 1.307 . S
C159 C157 1.486 . S
C159 H163 0.960 . S
C159 H164 0.960 . S
C159 H165 0.959 . S
H160 C156 0.960 . S
H161 C156 0.961 . S
H162 C156 0.960 . S
H163 C159 0.960 . S
H164 C159 0.960 . S
H165 C159 0.959 . S
C166 N167 1.317 . S
C166 N168 1.348 . S
C166 C169 1.485 . S
N167 C166 1.317 . S
N167 N171 1.370 . S
N168 C166 1.348 . S
N168 C170 1.346 . S
C169 C166 1.485 . S
C169 H173 0.960 . S
C169 H174 0.961 . S
C169 H175 0.960 . S
C170 N168 1.346 . S
C170 N171 1.307 . S
C170 C172 1.486 . S
N171 N167 1.370 . S
N171 C170 1.307 . S
C172 C170 1.486 . S
C172 H176 0.960 . S
C172 H177 0.960 . S
C172 H178 0.959 . S
H173 C169 0.960 . S
H174 C169 0.961 . S
H175 C169 0.960 . S
H176 C172 0.960 . S
H177 C172 0.960 . S
H178 C172 0.959 . S
C179 N180 1.317 . S
C179 N181 1.348 . S
C179 C182 1.485 . S
N180 C179 1.317 . S
N180 N184 1.370 . S
N181 C179 1.348 . S
N181 C183 1.346 . S
C182 C179 1.485 . S
C182 H186 0.960 . S
C182 H187 0.961 . S
C182 H188 0.960 . S
C183 N181 1.346 . S
C183 N184 1.307 . S
C183 C185 1.486 . S
N184 N180 1.370 . S
N184 C183 1.307 . S
C185 C183 1.486 . S
C185 H189 0.960 . S
C185 H190 0.960 . S
C185 H191 0.959 . S
H186 C182 0.960 . S
H187 C182 0.961 . S
H188 C182 0.960 . S
H189 C185 0.960 . S
H190 C185 0.960 . S
H191 C185 0.959 . S
C192 C193 1.363 . S
C192 C198 1.379 1_565 S
C192 N200 1.356 . S
C193 C192 1.363 . S
C193 C199 1.363 1_565 S
C194 C195 1.363 . S
C194 C199 1.379 . S
C194 N201 1.356 . S
C195 C194 1.363 . S
C195 C198 1.363 . S
N196 C198 1.356 . S
N196 H208 0.984 . S
N196 H209 0.985 . S
N197 C199 1.356 . S
N197 H202 0.984 1_545 S
N197 H203 0.985 . S
C198 C192 1.379 1_545 S
C198 C195 1.363 . S
C198 N196 1.356 . S
C199 C193 1.363 1_545 S
C199 C194 1.379 . S
C199 N197 1.356 . S
N200 C192 1.356 . S
N200 H206 0.984 . S
N200 H207 0.984 . S
N201 C194 1.356 . S
N201 H204 0.984 . S
N201 H205 0.985 . S
H202 N197 0.984 1_565 S
H203 N197 0.985 . S
H204 N201 0.984 . S
H205 N201 0.985 . S
H206 N200 0.984 . S
H207 N200 0.984 . S
H208 N196 0.984 . S
H209 N196 0.985 . S
C210 C211 1.363 . S
C210 C216 1.379 . S
C210 N218 1.356 . S
C211 C210 1.363 . S
C211 C217 1.363 . S
C212 C213 1.363 . S
C212 C217 1.379 . S
C212 N219 1.356 . S
C213 C212 1.363 . S
C213 C216 1.363 . S
N214 C216 1.356 . S
N214 H226 0.984 . S
N214 H227 0.985 . S
N215 C217 1.356 . S
N215 H220 0.984 . S
N215 H221 0.985 . S
C216 C210 1.379 . S
C216 C213 1.363 . S
C216 N214 1.356 . S
C217 C211 1.363 . S
C217 C212 1.379 . S
C217 N215 1.356 . S
N218 C210 1.356 . S
N218 H224 0.984 . S
N218 H225 0.984 . S
N219 C212 1.356 . S
N219 H222 0.984 . S
N219 H223 0.985 . S
H220 N215 0.984 . S
H221 N215 0.985 . S
H222 N219 0.984 . S
H223 N219 0.985 . S
H224 N218 0.984 . S
H225 N218 0.984 . S
H226 N214 0.984 . S
H227 N214 0.985 . S
C228 C229 1.363 . S
C228 C234 1.379 . S
C228 N236 1.356 1_565 S
C229 C228 1.363 . S
C229 C235 1.363 . S
C230 C231 1.363 . S
C230 C235 1.379 . S
C230 N237 1.356 . S
C231 C230 1.363 . S
C231 C234 1.363 . S
N232 C234 1.356 . S
N232 H244 0.984 . S
N232 H245 0.985 . S
N233 C235 1.356 . S
N233 H238 0.984 1_565 S
N233 H239 0.985 . S
C234 C228 1.379 . S
C234 C231 1.363 . S
C234 N232 1.356 . S
C235 C229 1.363 . S
C235 C230 1.379 . S
C235 N233 1.356 . S
N236 C228 1.356 1_545 S
N236 H242 0.984 . S
N236 H243 0.984 . S
N237 C230 1.356 . S
N237 H240 0.984 . S
N237 H241 0.985 . S
H238 N233 0.984 1_545 S
H239 N233 0.985 . S
H240 N237 0.984 . S
H241 N237 0.985 . S
H242 N236 0.984 . S
H243 N236 0.984 . S
H244 N232 0.984 . S
H245 N232 0.985 . S
C246 C247 1.363 . S
C246 C252 1.379 . S
C246 N254 1.356 . S
C247 C246 1.363 . S
C247 C253 1.363 . S
C248 C249 1.363 . S
C248 C253 1.379 . S
C248 N255 1.356 . S
C249 C248 1.363 . S
C249 C252 1.363 . S
N250 C252 1.356 . S
N250 H262 0.984 . S
N250 H263 0.985 . S
N251 C253 1.356 . S
N251 H256 0.984 . S
N251 H257 0.985 . S
C252 C246 1.379 . S
C252 C249 1.363 . S
C252 N250 1.356 . S
C253 C247 1.363 . S
C253 C248 1.379 . S
C253 N251 1.356 . S
N254 C246 1.356 . S
N254 H260 0.984 . S
N254 H261 0.984 . S
N255 C248 1.356 . S
N255 H258 0.984 . S
N255 H259 0.985 . S
H256 N251 0.984 . S
H257 N251 0.985 . S
H258 N255 0.984 . S
H259 N255 0.985 . S
H260 N254 0.984 . S
H261 N254 0.984 . S
H262 N250 0.984 . S
H263 N250 0.985 . S
C264 C265 1.363 . S
C264 C270 1.379 . S
C264 N272 1.356 . S
C265 C264 1.363 . S
C265 C271 1.363 . S
C266 C267 1.363 . S
C266 C271 1.379 . S
C266 N273 1.356 . S
C267 C266 1.363 . S
C267 C270 1.363 . S
N268 C270 1.356 . S
N268 H280 0.984 . S
N268 H281 0.985 . S
N269 C271 1.356 . S
N269 H274 0.984 . S
N269 H275 0.985 . S
C270 C264 1.379 . S
C270 C267 1.363 . S
C270 N268 1.356 . S
C271 C265 1.363 . S
C271 C266 1.379 . S
C271 N269 1.356 . S
N272 C264 1.356 . S
N272 H278 0.984 . S
N272 H279 0.984 . S
N273 C266 1.356 . S
N273 H276 0.984 . S
N273 H277 0.985 . S
H274 N269 0.984 . S
H275 N269 0.985 . S
H276 N273 0.984 . S
H277 N273 0.985 . S
H278 N272 0.984 . S
H279 N272 0.984 . S
H280 N268 0.984 . S
H281 N268 0.985 . S
C282 C283 1.363 . S
C282 C288 1.379 . S
C282 N290 1.356 1_455 S
C283 C282 1.363 . S
C283 C289 1.363 . S
C284 C285 1.363 . S
C284 C289 1.379 . S
C284 N291 1.356 . S
C285 C284 1.363 . S
C285 C288 1.363 . S
N286 C288 1.356 . S
N286 H298 0.984 . S
N286 H299 0.985 . S
N287 C289 1.356 . S
N287 H292 0.984 1_455 S
N287 H293 0.985 . S
C288 C282 1.379 . S
C288 C285 1.363 . S
C288 N286 1.356 . S
C289 C283 1.363 . S
C289 C284 1.379 . S
C289 N287 1.356 . S
N290 C282 1.356 1_655 S
N290 H296 0.984 . S
N290 H297 0.984 . S
N291 C284 1.356 . S
N291 H294 0.984 . S
N291 H295 0.985 . S
H292 N287 0.984 1_655 S
H293 N287 0.985 . S
H294 N291 0.984 . S
H295 N291 0.985 . S
H296 N290 0.984 . S
H297 N290 0.984 . S
H298 N286 0.984 . S
H299 N286 0.985 . S
C300 C301 1.363 . S
C300 C306 1.379 . S
C300 N308 1.356 . S
C301 C300 1.363 . S
C301 C307 1.363 . S
C302 C303 1.363 . S
C302 C307 1.379 . S
C302 N309 1.356 . S
C303 C302 1.363 . S
C303 C306 1.363 . S
N304 C306 1.356 . S
N304 H316 0.984 . S
N304 H317 0.985 . S
N305 C307 1.356 . S
N305 H310 0.984 . S
N305 H311 0.985 . S
C306 C300 1.379 . S
C306 C303 1.363 . S
C306 N304 1.356 . S
C307 C301 1.363 . S
C307 C302 1.379 . S
C307 N305 1.356 . S
N308 C300 1.356 . S
N308 H314 0.984 . S
N308 H315 0.984 . S
N309 C302 1.356 . S
N309 H312 0.984 . S
N309 H313 0.985 . S
H310 N305 0.984 . S
H311 N305 0.985 . S
H312 N309 0.984 . S
H313 N309 0.985 . S
H314 N308 0.984 . S
H315 N308 0.984 . S
H316 N304 0.984 . S
H317 N304 0.985 . S
C318 C319 1.363 . S
C318 C324 1.379 1_455 S
C318 N326 1.356 . S
C319 C318 1.363 . S
C319 C325 1.363 1_455 S
C320 C321 1.363 . S
C320 C325 1.379 . S
C320 N327 1.356 . S
C321 C320 1.363 . S
C321 C324 1.363 . S
N322 C324 1.356 . S
N322 H334 0.984 . S
N322 H335 0.985 . S
N323 C325 1.356 . S
N323 H328 0.984 1_655 S
N323 H329 0.985 . S
C324 C318 1.379 1_655 S
C324 C321 1.363 . S
C324 N322 1.356 . S
C325 C319 1.363 1_655 S
C325 C320 1.379 . S
C325 N323 1.356 . S
N326 C318 1.356 . S
N326 H332 0.984 . S
N326 H333 0.984 . S
N327 C320 1.356 . S
N327 H330 0.984 . S
N327 H331 0.985 . S
H328 N323 0.984 1_455 S
H329 N323 0.985 . S
H330 N327 0.984 . S
H331 N327 0.985 . S
H332 N326 0.984 . S
H333 N326 0.984 . S
H334 N322 0.984 . S
H335 N322 0.985 . S
C336 C337 1.363 . S
C336 C342 1.379 1_545 S
C336 N344 1.356 . S
C337 C336 1.363 . S
C337 C343 1.363 1_545 S
C338 C339 1.363 . S
C338 C343 1.379 . S
C338 N345 1.356 . S
C339 C338 1.363 . S
C339 C342 1.363 . S
N340 C342 1.356 . S
N340 H352 0.984 . S
N340 H353 0.985 . S
N341 C343 1.356 . S
N341 H346 0.984 1_565 S
N341 H347 0.985 . S
C342 C336 1.379 1_565 S
C342 C339 1.363 . S
C342 N340 1.356 . S
C343 C337 1.363 1_565 S
C343 C338 1.379 . S
C343 N341 1.356 . S
N344 C336 1.356 . S
N344 H350 0.984 . S
N344 H351 0.984 . S
N345 C338 1.356 . S
N345 H348 0.984 . S
N345 H349 0.985 . S
H346 N341 0.984 1_545 S
H347 N341 0.985 . S
H348 N345 0.984 . S
H349 N345 0.985 . S
H350 N344 0.984 . S
H351 N344 0.984 . S
H352 N340 0.984 . S
H353 N340 0.985 . S
C354 C355 1.363 . S
C354 C360 1.379 . S
C354 N362 1.356 . S
C355 C354 1.363 . S
C355 C361 1.363 . S
C356 C357 1.363 . S
C356 C361 1.379 . S
C356 N363 1.356 . S
C357 C356 1.363 . S
C357 C360 1.363 . S
N358 C360 1.356 . S
N358 H370 0.984 . S
N358 H371 0.985 . S
N359 C361 1.356 . S
N359 H364 0.984 . S
N359 H365 0.985 . S
C360 C354 1.379 . S
C360 C357 1.363 . S
C360 N358 1.356 . S
C361 C355 1.363 . S
C361 C356 1.379 . S
C361 N359 1.356 . S
N362 C354 1.356 . S
N362 H368 0.984 . S
N362 H369 0.984 . S
N363 C356 1.356 . S
N363 H366 0.984 . S
N363 H367 0.985 . S
H364 N359 0.984 . S
H365 N359 0.985 . S
H366 N363 0.984 . S
H367 N363 0.985 . S
H368 N362 0.984 . S
H369 N362 0.984 . S
H370 N358 0.984 . S
H371 N358 0.985 . S
C372 C373 1.363 . S
C372 C378 1.379 . S
C372 N380 1.356 1_545 S
C373 C372 1.363 . S
C373 C379 1.363 . S
C374 C375 1.363 . S
C374 C379 1.379 . S
C374 N381 1.356 . S
C375 C374 1.363 . S
C375 C378 1.363 . S
N376 C378 1.356 . S
N376 H388 0.984 . S
N376 H389 0.985 . S
N377 C379 1.356 . S
N377 H382 0.985 1_546 S
N377 H383 0.985 1_556 S
C378 C372 1.379 . S
C378 C375 1.363 . S
C378 N376 1.356 . S
C379 C373 1.363 . S
C379 C374 1.379 . S
C379 N377 1.356 . S
N380 C372 1.356 1_565 S
N380 H386 0.984 . S
N380 H387 0.984 . S
N381 C374 1.356 . S
N381 H384 0.984 . S
N381 H385 0.985 . S
H382 N377 0.985 1_564 S
H383 N377 0.985 1_554 S
H384 N381 0.984 . S
H385 N381 0.985 . S
H386 N380 0.984 . S
H387 N380 0.984 . S
H388 N376 0.984 . S
H389 N376 0.985 . S
C390 C391 1.363 . S
C390 C396 1.379 . S
C390 N398 1.356 . S
C391 C390 1.363 . S
C391 C397 1.363 . S
C392 C393 1.363 . S
C392 C397 1.379 . S
C392 N399 1.356 . S
C393 C392 1.363 . S
C393 C396 1.363 . S
N394 C396 1.356 . S
N394 H406 0.984 . S
N394 H407 0.985 . S
N395 C397 1.356 . S
N395 H400 0.984 . S
N395 H401 0.985 . S
C396 C390 1.379 . S
C396 C393 1.363 . S
C396 N394 1.356 . S
C397 C391 1.363 . S
C397 C392 1.379 . S
C397 N395 1.356 . S
N398 C390 1.356 . S
N398 H404 0.984 . S
N398 H405 0.984 . S
N399 C392 1.356 . S
N399 H402 0.984 . S
N399 H403 0.985 . S
H400 N395 0.984 . S
H401 N395 0.985 . S
H402 N399 0.984 . S
H403 N399 0.985 . S
H404 N398 0.984 . S
H405 N398 0.984 . S
H406 N394 0.984 . S
H407 N394 0.985 . S
C408 C409 1.363 . S
C408 C414 1.379 . S
C408 N416 1.356 . S
C409 C408 1.363 . S
C409 C415 1.363 . S
C410 C411 1.363 . S
C410 C415 1.379 . S
C410 N417 1.356 . S
C411 C410 1.363 . S
C411 C414 1.363 . S
N412 C414 1.356 . S
N412 H424 0.984 . S
N412 H425 0.985 . S
N413 C415 1.356 . S
N413 H418 0.984 . S
N413 H419 0.985 . S
C414 C408 1.379 . S
C414 C411 1.363 . S
C414 N412 1.356 . S
C415 C409 1.363 . S
C415 C410 1.379 . S
C415 N413 1.356 . S
N416 C408 1.356 . S
N416 H422 0.984 . S
N416 H423 0.984 . S
N417 C410 1.356 . S
N417 H420 0.984 . S
N417 H421 0.985 . S
H418 N413 0.984 . S
H419 N413 0.985 . S
H420 N417 0.984 . S
H421 N417 0.985 . S
H422 N416 0.984 . S
H423 N416 0.984 . S
H424 N412 0.984 . S
H425 N412 0.985 . S
C426 C427 1.363 . S
C426 C432 1.379 . S
C426 N434 1.356 . S
C427 C426 1.363 . S
C427 C433 1.363 . S
C428 C429 1.363 . S
C428 C433 1.379 . S
C428 N435 1.356 . S
C429 C428 1.363 . S
C429 C432 1.363 . S
N430 C432 1.356 . S
N430 H442 0.984 . S
N430 H443 0.985 . S
N431 C433 1.356 1_455 S
N431 H436 0.984 . S
N431 H437 0.985 . S
C432 C426 1.379 . S
C432 C429 1.363 . S
C432 N430 1.356 . S
C433 C427 1.363 . S
C433 C428 1.379 . S
C433 N431 1.356 1_655 S
N434 C426 1.356 . S
N434 H440 0.984 . S
N434 H441 0.984 1_655 S
N435 C428 1.356 . S
N435 H438 0.984 . S
N435 H439 0.985 . S
H436 N431 0.984 . S
H437 N431 0.985 . S
H438 N435 0.984 . S
H439 N435 0.985 . S
H440 N434 0.984 . S
H441 N434 0.984 1_455 S
H442 N430 0.984 . S
H443 N430 0.985 . S
C444 C445 1.363 . S
C444 C450 1.379 . S
C444 N452 1.356 . S
C445 C444 1.363 . S
C445 C451 1.363 . S
C446 C447 1.363 . S
C446 C451 1.379 . S
C446 N453 1.356 . S
C447 C446 1.363 . S
C447 C450 1.363 . S
N448 C450 1.356 . S
N448 H460 0.984 . S
N448 H461 0.985 . S
N449 C451 1.356 . S
N449 H454 0.984 . S
N449 H455 0.985 . S
C450 C444 1.379 . S
C450 C447 1.363 . S
C450 N448 1.356 . S
C451 C445 1.363 . S
C451 C446 1.379 . S
C451 N449 1.356 . S
N452 C444 1.356 . S
N452 H458 0.984 . S
N452 H459 0.984 . S
N453 C446 1.356 . S
N453 H456 0.984 . S
N453 H457 0.985 . S
H454 N449 0.984 . S
H455 N449 0.985 . S
H456 N453 0.984 . S
H457 N453 0.985 . S
H458 N452 0.984 . S
H459 N452 0.984 . S
H460 N448 0.984 . S
H461 N448 0.985 . S
C462 C463 1.363 1_455 S
C462 C468 1.379 . S
C462 N470 1.356 . S
C463 C462 1.363 1_655 S
C463 C469 1.363 . S
C464 C465 1.363 . S
C464 C469 1.379 1_455 S
C464 N471 1.356 . S
C465 C464 1.363 . S
C465 C468 1.363 . S
N466 C468 1.356 . S
N466 H478 0.984 . S
N466 H479 0.985 . S
N467 C469 1.356 . S
N467 H472 0.984 . S
N467 H473 0.985 . S
C468 C462 1.379 . S
C468 C465 1.363 . S
C468 N466 1.356 . S
C469 C463 1.363 . S
C469 C464 1.379 1_655 S
C469 N467 1.356 . S
N470 C462 1.356 . S
N470 H476 0.984 . S
N470 H477 0.984 1_455 S
N471 C464 1.356 . S
N471 H474 0.984 . S
N471 H475 0.985 . S
H472 N467 0.984 . S
H473 N467 0.985 . S
H474 N471 0.984 . S
H475 N471 0.985 . S
H476 N470 0.984 . S
H477 N470 0.984 1_655 S
H478 N466 0.984 . S
H479 N466 0.985 . S
C480 C481 1.363 . S
C480 C486 1.379 . S
C480 N488 1.356 . S
C481 C480 1.363 . S
C481 C487 1.363 . S
C482 C483 1.363 . S
C482 C487 1.379 . S
C482 N489 1.356 . S
C483 C482 1.363 . S
C483 C486 1.363 . S
N484 C486 1.356 . S
N484 H496 0.984 . S
N484 H497 0.985 . S
N485 C487 1.356 . S
N485 H490 0.984 . S
N485 H491 0.985 . S
C486 C480 1.379 . S
C486 C483 1.363 . S
C486 N484 1.356 . S
C487 C481 1.363 . S
C487 C482 1.379 . S
C487 N485 1.356 . S
N488 C480 1.356 . S
N488 H494 0.984 . S
N488 H495 0.984 . S
N489 C482 1.356 . S
N489 H492 0.984 . S
N489 H493 0.985 . S
H490 N485 0.984 . S
H491 N485 0.985 . S
H492 N489 0.984 . S
H493 N489 0.985 . S
H494 N488 0.984 . S
H495 N488 0.984 . S
H496 N484 0.984 . S
H497 N484 0.985 . S
C498 C499 1.363 . S
C498 C504 1.379 . S
C498 N506 1.356 . S
C499 C498 1.363 . S
C499 C505 1.363 . S
C500 C501 1.363 . S
C500 C505 1.379 . S
C500 N507 1.356 . S
C501 C500 1.363 . S
C501 C504 1.363 . S
N502 C504 1.356 . S
N502 H514 0.984 . S
N502 H515 0.985 . S
N503 C505 1.356 . S
N503 H508 0.984 . S
N503 H509 0.985 . S
C504 C498 1.379 . S
C504 C501 1.363 . S
C504 N502 1.356 . S
C505 C499 1.363 . S
C505 C500 1.379 . S
C505 N503 1.356 . S
N506 C498 1.356 . S
N506 H512 0.984 . S
N506 H513 0.984 . S
N507 C500 1.356 . S
N507 H510 0.984 . S
N507 H511 0.985 . S
H508 N503 0.984 . S
H509 N503 0.985 . S
H510 N507 0.984 . S
H511 N507 0.985 . S
H512 N506 0.984 . S
H513 N506 0.984 . S
H514 N502 0.984 . S
H515 N502 0.985 . S
C516 C517 1.363 . S
C516 C522 1.379 . S
C516 N524 1.356 . S
C517 C516 1.363 . S
C517 C523 1.363 . S
C518 C519 1.363 . S
C518 C523 1.379 . S
C518 N525 1.356 . S
C519 C518 1.363 . S
C519 C522 1.363 . S
N520 C522 1.356 . S
N520 H532 0.984 . S
N520 H533 0.985 . S
N521 C523 1.356 . S
N521 H526 0.984 . S
N521 H527 0.985 . S
C522 C516 1.379 . S
C522 C519 1.363 . S
C522 N520 1.356 . S
C523 C517 1.363 . S
C523 C518 1.379 . S
C523 N521 1.356 . S
N524 C516 1.356 . S
N524 H530 0.984 . S
N524 H531 0.984 . S
N525 C518 1.356 . S
N525 H528 0.984 . S
N525 H529 0.985 . S
H526 N521 0.984 . S
H527 N521 0.985 . S
H528 N525 0.984 . S
H529 N525 0.985 . S
H530 N524 0.984 . S
H531 N524 0.984 . S
H532 N520 0.984 . S
H533 N520 0.985 . S
C534 C535 1.363 . S
C534 C540 1.379 . S
C534 N542 1.356 . S
C535 C534 1.363 . S
C535 C541 1.363 . S
C536 C537 1.363 . S
C536 C541 1.379 . S
C536 N543 1.356 . S
C537 C536 1.363 . S
C537 C540 1.363 . S
N538 C540 1.356 . S
N538 H550 0.984 . S
N538 H551 0.985 . S
N539 C541 1.356 . S
N539 H544 0.984 . S
N539 H545 0.985 . S
C540 C534 1.379 . S
C540 C537 1.363 . S
C540 N538 1.356 . S
C541 C535 1.363 . S
C541 C536 1.379 . S
C541 N539 1.356 . S
N542 C534 1.356 . S
N542 H548 0.984 . S
N542 H549 0.984 . S
N543 C536 1.356 . S
N543 H546 0.984 . S
N543 H547 0.985 . S
H544 N539 0.984 . S
H545 N539 0.985 . S
H546 N543 0.984 . S
H547 N543 0.985 . S
H548 N542 0.984 . S
H549 N542 0.984 . S
H550 N538 0.984 . S
H551 N538 0.985 . S
C552 C553 1.363 . S
C552 C558 1.379 . S
C552 N560 1.356 . S
C553 C552 1.363 . S
C553 C559 1.363 . S
C554 C555 1.363 . S
C554 C559 1.379 . S
C554 N561 1.356 . S
C555 C554 1.363 . S
C555 C558 1.363 . S
N556 C558 1.356 . S
N556 H568 0.984 . S
N556 H569 0.985 . S
N557 C559 1.356 . S
N557 H562 0.984 . S
N557 H563 0.985 . S
C558 C552 1.379 . S
C558 C555 1.363 . S
C558 N556 1.356 . S
C559 C553 1.363 . S
C559 C554 1.379 . S
C559 N557 1.356 . S
N560 C552 1.356 . S
N560 H566 0.984 . S
N560 H567 0.984 . S
N561 C554 1.356 . S
N561 H564 0.984 . S
N561 H565 0.985 . S
H562 N557 0.984 . S
H563 N557 0.985 . S
H564 N561 0.984 . S
H565 N561 0.985 . S
H566 N560 0.984 . S
H567 N560 0.984 . S
H568 N556 0.984 . S
H569 N556 0.985 . S
C570 C571 1.363 . S
C570 C576 1.379 . S
C570 N578 1.356 . S
C571 C570 1.363 . S
C571 C577 1.363 . S
C572 C573 1.363 . S
C572 C577 1.379 . S
C572 N579 1.356 . S
C573 C572 1.363 . S
C573 C576 1.363 . S
N574 C576 1.356 . S
N574 H586 0.984 . S
N574 H587 0.985 . S
N575 C577 1.356 . S
N575 H580 0.984 . S
N575 H581 0.985 . S
C576 C570 1.379 . S
C576 C573 1.363 . S
C576 N574 1.356 . S
C577 C571 1.363 . S
C577 C572 1.379 . S
C577 N575 1.356 . S
N578 C570 1.356 . S
N578 H584 0.984 . S
N578 H585 0.984 . S
N579 C572 1.356 . S
N579 H582 0.984 . S
N579 H583 0.985 . S
H580 N575 0.984 . S
H581 N575 0.985 . S
H582 N579 0.984 . S
H583 N579 0.985 . S
H584 N578 0.984 . S
H585 N578 0.984 . S
H586 N574 0.984 . S
H587 N574 0.985 . S
C588 C589 1.363 . S
C588 C594 1.379 . S
C588 N596 1.356 . S
C589 C588 1.363 . S
C589 C595 1.363 . S
C590 C591 1.363 . S
C590 C595 1.379 . S
C590 N597 1.356 . S
C591 C590 1.363 . S
C591 C594 1.363 . S
N592 C594 1.356 . S
N592 H604 0.984 . S
N592 H605 0.985 . S
N593 C595 1.356 . S
N593 H598 0.984 . S
N593 H599 0.985 . S
C594 C588 1.379 . S
C594 C591 1.363 . S
C594 N592 1.356 . S
C595 C589 1.363 . S
C595 C590 1.379 . S
C595 N593 1.356 . S
N596 C588 1.356 . S
N596 H602 0.984 . S
N596 H603 0.984 . S
N597 C590 1.356 . S
N597 H600 0.984 . S
N597 H601 0.985 . S
H598 N593 0.984 . S
H599 N593 0.985 . S
H600 N597 0.984 . S
H601 N597 0.985 . S
H602 N596 0.984 . S
H603 N596 0.984 . S
H604 N592 0.984 . S
H605 N592 0.985 . S
C606 C607 1.363 . S
C606 C612 1.379 . S
C606 N614 1.356 1_556 S
C607 C606 1.363 . S
C607 C613 1.363 . S
C608 C609 1.363 . S
C608 C613 1.379 . S
C608 N615 1.356 . S
C609 C608 1.363 . S
C609 C612 1.363 . S
N610 C612 1.356 . S
N610 H622 0.984 . S
N610 H623 0.985 . S
N611 C613 1.356 . S
N611 H616 0.984 . S
N611 H617 0.985 . S
C612 C606 1.379 . S
C612 C609 1.363 . S
C612 N610 1.356 . S
C613 C607 1.363 . S
C613 C608 1.379 . S
C613 N611 1.356 . S
N614 C606 1.356 1_554 S
N614 H620 0.984 . S
N614 H621 0.984 . S
N615 C608 1.356 . S
N615 H618 0.984 . S
N615 H619 0.985 . S
H616 N611 0.984 . S
H617 N611 0.985 . S
H618 N615 0.984 . S
H619 N615 0.985 . S
H620 N614 0.984 . S
H621 N614 0.984 . S
H622 N610 0.984 . S
H623 N610 0.985 . S
C193 C7 1.414 . S
C195 N93 1.421 . S
C211 C37 1.374 . S
C213 N106 1.380 . S
C229 C54 1.358 1_565 S
C231 N115 1.363 . S
C249 N132 1.435 . S
C247 C87 1.415 . S
C267 N145 1.393 . S
C265 C30 1.395 . S
C283 C51 1.418 1_455 S
C285 N154 1.444 . S
C301 C84 1.387 . S
C303 N167 1.392 . S
C319 C10 1.356 . S
C321 N184 1.355 . S
C337 C59 1.423 . S
C339 N180 1.442 . S
C357 N141 1.354 . S
C355 C74 1.349 . S
C375 N158 1.388 . S
C373 C18 1.381 1_545 S
C391 C32 1.412 . S
C393 N171 1.421 . S
C411 N102 1.435 . S
C409 C73 1.420 . S
C427 C15 1.413 1_655 S
C429 N119 1.437 . S
C447 N128 1.408 . S
C445 C43 1.396 . S
C465 N89 1.355 . S
C463 C62 1.349 . S
C483 N168 1.443 . S
C481 C21 1.450 . S
C501 N181 1.423 . S
C499 C29 1.416 . S
C517 C52 1.401 . S
C519 N142 1.400 . S
C537 N155 1.435 . S
C535 C81 1.440 . S
C555 N116 1.424 . S
C553 C40 1.428 . S
C571 C65 1.444 . S
C573 N129 1.433 . S
C591 N90 1.403 . S
C589 C76 1.404 . S
C609 N103 1.426 . S
C607 C8 1.429 . S
