# Generated by pormake.
# Topology rtl, (3,6)-cn, num edge types: 1
# Building blocks:
#     Node 0, Type 0, BuildingBlock: BELTOD_clean_linker_0, # of connection points: 3
#     Node 1, Type 0, BuildingBlock: BELTOD_clean_linker_0, # of connection points: 3
#     Node 2, Type 0, BuildingBlock: BELTOD_clean_linker_0, # of connection points: 3
#     Node 3, Type 0, BuildingBlock: BELTOD_clean_linker_0, # of connection points: 3
#     Node 4, Type 1, BuildingBlock: KUMBUR_clean_sbu_1, # of connection points: 6
#     Node 5, Type 1, BuildingBlock: KUMBUR_clean_sbu_1, # of connection points: 6
#     Edge 6, Type (0, 1), BuildingBlock: XUDNAN_clean_linker_2, # of connection points: 2
#     Edge 7, Type (0, 1), BuildingBlock: XUDNAN_clean_linker_2, # of connection points: 2
#     Edge 8, Type (0, 1), BuildingBlock: XUDNAN_clean_linker_2, # of connection points: 2
#     Edge 9, Type (0, 1), BuildingBlock: XUDNAN_clean_linker_2, # of connection points: 2
#     Edge 10, Type (0, 1), BuildingBlock: XUDNAN_clean_linker_2, # of connection points: 2
#     Edge 11, Type (0, 1), BuildingBlock: XUDNAN_clean_linker_2, # of connection points: 2
#     Edge 12, Type (0, 1), BuildingBlock: XUDNAN_clean_linker_2, # of connection points: 2
#     Edge 13, Type (0, 1), BuildingBlock: XUDNAN_clean_linker_2, # of connection points: 2
#     Edge 14, Type (0, 1), BuildingBlock: XUDNAN_clean_linker_2, # of connection points: 2
#     Edge 15, Type (0, 1), BuildingBlock: XUDNAN_clean_linker_2, # of connection points: 2
#     Edge 16, Type (0, 1), BuildingBlock: XUDNAN_clean_linker_2, # of connection points: 2
#     Edge 17, Type (0, 1), BuildingBlock: XUDNAN_clean_linker_2, # of connection points: 2
# Relax obj value: 0.019
# Max RMSD: 0.099
# Mean RMSD: 0.063
data_MOF--net-rtl--node1-KUMBUR_clean_sbu_1--node2-BELTOD_clean_linker_0--edge1-XUDNAN_clean_linker_2
_symmetry_space_group_name_H-M    P1
_symmetry_Int_Tables_number       1
_symmetry_cell_setting            triclinic
loop_
_symmetry_equiv_pos_as_xyz
'x, y, z'
_cell_length_a     37.287557
_cell_length_b     37.875555
_cell_length_c     32.683416
_cell_angle_alpha  78.617113
_cell_angle_beta   99.614555
_cell_angle_gamma 90.638918
loop_
_atom_site_label
_atom_site_type_symbol
_atom_site_fract_x
_atom_site_fract_y
_atom_site_fract_z
_atom_type_partial_charge
P0 P 0.24923 0.88184 0.02208 0.0
H1 H 0.24926 0.93029 0.08143 0.0
H2 H 0.21873 0.92948 0.14199 0.0
H3 H 0.16892 0.82907 0.1234 0.0
H4 H 0.19985 0.82984 0.06294 0.0
H5 H 0.29167 0.86484 0.96186 0.0
H6 H 0.32239 0.8107 0.95529 0.0
H7 H 0.29015 0.75406 0.0714 0.0
H8 H 0.26155 0.80927 0.07923 0.0
H9 H 0.2563 0.92115 0.9376 0.0
H10 H 0.17106 0.86746 0.99873 0.0
O11 O 0.28017 0.91402 0.02233 0.0
H12 H 0.21562 0.93056 0.86962 0.0
H13 H 0.12973 0.87858 0.93169 0.0
C14 C 0.22747 0.87978 0.06797 0.0
C15 C 0.23207 0.90787 0.0905 0.0
C16 C 0.21435 0.90755 0.12501 0.0
C17 C 0.19147 0.87915 0.13762 0.0
C18 C 0.18682 0.85104 0.11494 0.0
C19 C 0.20448 0.85149 0.08028 0.0
C20 C 0.27291 0.84103 0.0201 0.0
C21 C 0.29098 0.8408 0.98587 0.0
C22 C 0.30844 0.80957 0.98201 0.0
C23 C 0.30802 0.77753 0.0122 0.0
C24 C 0.29094 0.77812 0.04739 0.0
C25 C 0.27389 0.80972 0.05153 0.0
C26 C 0.21691 0.89361 0.97354 0.0
C27 C 0.22864 0.91192 0.93662 0.0
C28 C 0.20519 0.91752 0.89767 0.0
C29 C 0.16931 0.90514 0.89488 0.0
C30 C 0.15737 0.8878 0.93229 0.0
C31 C 0.18102 0.88176 0.97105 0.0
P32 P 0.71658 0.64799 0.64224 0.0
H33 H 0.75072 0.60937 0.58948 0.0
H34 H 0.73184 0.59765 0.51841 0.0
H35 H 0.62901 0.65255 0.50982 0.0
H36 H 0.64874 0.66516 0.58058 0.0
H37 H 0.78627 0.67588 0.67763 0.0
H38 H 0.81704 0.73245 0.65737 0.0
H39 H 0.72109 0.77386 0.56779 0.0
H40 H 0.69037 0.71735 0.58837 0.0
H41 H 0.64693 0.61034 0.64118 0.0
H42 H 0.712 0.67499 0.71894 0.0
O43 O 0.74921 0.61796 0.6677 0.0
H44 H 0.60402 0.60015 0.69097 0.0
H45 H 0.66976 0.66334 0.77002 0.0
C46 C 0.70077 0.63729 0.59085 0.0
C47 C 0.72392 0.61851 0.57254 0.0
C48 C 0.71301 0.61173 0.53182 0.0
C49 C 0.67872 0.62384 0.50835 0.0
C50 C 0.65569 0.643 0.52676 0.0
C51 C 0.66677 0.64992 0.56746 0.0
C52 C 0.73628 0.69205 0.63382 0.0
C53 C 0.77158 0.69733 0.65417 0.0
C54 C 0.78912 0.72978 0.64272 0.0
C55 C 0.77166 0.75741 0.61055 0.0
C56 C 0.73544 0.75282 0.5922 0.0
C57 C 0.71783 0.72052 0.60398 0.0
C58 C 0.68199 0.64472 0.67535 0.0
C59 C 0.65152 0.62326 0.66825 0.0
C60 C 0.62713 0.61711 0.69696 0.0
C61 C 0.63351 0.63115 0.73414 0.0
C62 C 0.66417 0.65236 0.74146 0.0
C63 C 0.68811 0.65923 0.71217 0.0
P64 P 0.8501 0.22902 0.05512 0.0
H65 H 0.85221 0.26106 0.96727 0.0
H66 H 0.85751 0.2357 0.90519 0.0
H67 H 0.8544 0.12836 0.97981 0.0
H68 H 0.84879 0.15388 0.04165 0.0
H69 H 0.8335 0.2914 0.08921 0.0
H70 H 0.77805 0.328 0.08103 0.0
H71 H 0.72027 0.25924 1.0025 0.0
H72 H 0.77587 0.22311 0.0105 0.0
H73 H 0.90949 0.17857 0.09595 0.0
H74 H 0.80431 0.20604 0.12072 0.0
O75 O 0.88511 0.25673 0.05832 0.0
H76 H 0.92003 0.13484 0.16275 0.0
H77 H 0.81524 0.1638 0.18828 0.0
C78 C 0.85071 0.20943 0.00921 0.0
C79 C 0.85238 0.23207 0.97015 0.0
C80 C 0.85522 0.21753 0.93467 0.0
C81 C 0.85659 0.18 0.93767 0.0
C82 C 0.85392 0.15737 0.97667 0.0
C83 C 0.85071 0.17198 0.01208 0.0
C84 C 0.80898 0.25527 0.0494 0.0
C85 C 0.80889 0.28437 0.07008 0.0
C86 C 0.77711 0.30501 0.06576 0.0
C87 C 0.74487 0.29676 0.04075 0.0
C88 C 0.74486 0.26673 0.0213 0.0
C89 C 0.77661 0.24605 0.02579 0.0
C90 C 0.85623 0.1956 0.10338 0.0
C91 C 0.88869 0.17519 0.11583 0.0
C92 C 0.89476 0.1504 0.15421 0.0
C93 C 0.8686 0.14591 0.18119 0.0
C94 C 0.83581 0.16613 0.16816 0.0
C95 C 0.82963 0.19063 0.12953 0.0
P96 P 0.34449 0.26894 0.47024 0.0
H97 H 0.36285 0.2401 0.5603 0.0
H98 H 0.3701 0.26769 0.62267 0.0
H99 H 0.35152 0.37294 0.54176 0.0
H100 H 0.34402 0.34503 0.47922 0.0
H101 H 0.30558 0.22672 0.41233 0.0
H102 H 0.24782 0.19531 0.41066 0.0
H103 H 0.22651 0.23899 0.51698 0.0
H104 H 0.28411 0.27022 0.51852 0.0
H105 H 0.411 0.28969 0.43726 0.0
H106 H 0.2963 0.31431 0.39878 0.0
O107 O 0.37357 0.23399 0.47948 0.0
H108 H 0.4235 0.32924 0.37282 0.0
H109 H 0.30845 0.35357 0.33361 0.0
C110 C 0.35345 0.29054 0.51519 0.0
C111 C 0.36083 0.26915 0.55594 0.0
C112 C 0.36468 0.28491 0.59155 0.0
C113 C 0.36131 0.32245 0.58706 0.0
C114 C 0.3546 0.34396 0.54611 0.0
C115 C 0.35031 0.32806 0.5104 0.0
C116 C 0.29931 0.2508 0.46547 0.0
C117 C 0.2882 0.22997 0.43485 0.0
C118 C 0.25514 0.21206 0.43394 0.0
C119 C 0.23262 0.21447 0.46389 0.0
C120 C 0.24345 0.23615 0.49388 0.0
C121 C 0.27642 0.25424 0.49457 0.0
C122 C 0.3527 0.29858 0.42243 0.0
C123 C 0.38845 0.30342 0.41469 0.0
C124 C 0.39554 0.32591 0.37767 0.0
C125 C 0.36697 0.34434 0.3477 0.0
C126 C 0.33113 0.33993 0.35604 0.0
C127 C 0.32408 0.31731 0.39316 0.0
Tb128 Tb 0.02689 0.95773 0.51661 0.0
C129 C 0.95261 0.1019 0.49454 0.0
N130 N 0.97823 0.0876 0.52815 0.0
C131 C 0.01049 0.14308 0.51985 0.0
C132 C 0.95608 0.13658 0.47044 0.0
C133 C 0.00532 0.10873 0.54309 0.0
C134 C 0.9863 0.15669 0.48265 0.0
C135 C 0.89167 0.09848 0.45613 0.0
C136 C 0.92094 0.08328 0.48749 0.0
C137 C 0.89605 0.13167 0.42951 0.0
C138 C 0.92828 0.15071 0.43663 0.0
Tb139 Tb 0.96953 0.02908 0.5595 0.0
N140 N 0.91796 0.05128 0.51375 0.0
C141 C 0.85855 0.08054 0.4538 0.0
C142 C 0.885 0.03508 0.51401 0.0
C143 C 0.85497 0.04914 0.48352 0.0
H144 H 0.02369 0.09865 0.57232 0.0
H145 H 0.82921 0.03563 0.48274 0.0
H146 H 1.00188 0.87784 0.56082 0.0
H147 H 0.16003 0.01846 0.52808 0.0
H148 H 0.8825 0.01053 0.53664 0.0
H149 H 0.83532 0.09131 0.43017 0.0
H150 H 0.09847 0.00838 0.49235 0.0
H151 H 0.03299 0.15907 0.53076 0.0
H152 H 0.87418 0.14353 0.40455 0.0
H153 H 0.93071 0.17702 0.41714 0.0
H154 H 0.02618 0.82893 0.62132 0.0
H155 H 0.9901 0.18344 0.46495 0.0
H156 H 0.18571 0.97898 0.59629 0.0
N157 N 0.0481 0.91049 0.56984 0.0
C158 C 0.08207 0.91317 0.59135 0.0
C159 C 0.0421 0.85259 0.61334 0.0
C160 C 0.09687 0.88641 0.62629 0.0
C161 C 0.02846 0.88016 0.57913 0.0
C162 C 0.07625 0.85595 0.63741 0.0
N163 N 0.08687 0.96689 0.54262 0.0
C164 C 0.10829 0.99223 0.52323 0.0
C165 C 0.13762 0.94656 0.59852 0.0
C166 C 0.10188 0.94288 0.57779 0.0
C167 C 0.15816 0.97509 0.58132 0.0
C168 C 0.14371 0.99749 0.54291 0.0
H169 H 0.08662 0.83472 0.66409 0.0
H170 H 0.14344 0.87089 0.67595 0.0
H171 H 0.17931 0.92353 0.65142 0.0
O172 O 0.0603 0.93915 0.47874 0.0
O173 O 0.01701 0.95126 0.58197 0.0
O174 O 0.02215 0.00787 0.5952 0.0
O175 O 0.00548 0.92168 0.47803 0.0
O176 O 0.03556 0.01548 0.49596 0.0
O177 O 0.0272 0.03889 0.55362 0.0
O178 O 0.95349 0.00965 0.61861 0.0
O179 O 0.94802 0.01164 0.49993 0.0
O180 O 0.99811 0.00248 0.47047 0.0
O181 O 0.94963 0.06587 0.59129 0.0
O182 O 0.9475 0.97389 0.56682 0.0
O183 O 0.97065 0.94207 0.52131 0.0
C184 C 0.02832 0.97317 0.60752 0.0
C185 C 0.02733 0.93171 0.41315 0.0
C186 C 0.04565 0.9281 0.34565 0.0
C187 C 0.01601 0.951 0.32446 0.0
C188 C 0.99783 0.95436 0.39122 0.0
C189 C 0.99231 0.96395 0.34718 0.0
C190 C 0.05111 0.91858 0.39022 0.0
C191 C 0.04089 0.04073 0.51868 0.0
C192 C 0.03397 0.92247 0.45984 0.0
C193 C 0.13172 0.89085 0.64856 0.0
C194 C 0.15207 0.92091 0.63469 0.0
C195 C 0.96393 0.01249 0.46689 0.0
C196 C 0.96248 0.05053 0.66518 0.0
C197 C 0.9551 0.07419 0.72776 0.0
C198 C 0.99307 0.07155 0.74079 0.0
C199 C 1.00026 0.04841 0.6786 0.0
C200 C 0.94001 0.06336 0.68979 0.0
C201 C 0.01537 0.05882 0.71629 0.0
C202 C 0.9473 0.94681 0.54633 0.0
C203 C 0.94636 0.04163 0.62436 0.0
H204 H 0.01078 0.95844 0.29023 0.0
H205 H 0.97895 0.96459 0.40807 0.0
H206 H 0.96944 0.98134 0.3306 0.0
H207 H 0.0741 0.90141 0.40712 0.0
H208 H 0.0057 0.08035 0.76929 0.0
H209 H 0.01807 0.03932 0.65964 0.0
H210 H 0.91083 0.06514 0.67913 0.0
H211 H 0.04453 0.05778 0.72615 0.0
Tb212 Tb 0.45122 0.4761 0.00416 0.0
C213 C 0.58656 0.57429 0.04023 0.0
N214 N 0.58059 0.53895 0.05425 0.0
C215 C 0.64036 0.52354 0.04444 0.0
C216 C 0.6193 0.58568 0.02623 0.0
C217 C 0.60731 0.51367 0.05782 0.0
C218 C 0.64632 0.5597 0.02832 0.0
C219 C 0.5659 0.63621 0.02957 0.0
C220 C 0.56036 0.59903 0.0421 0.0
C221 C 0.59753 0.64781 0.01321 0.0
C222 C 0.62431 0.62257 0.01178 0.0
Tb223 Tb 0.52648 0.52519 0.07671 0.0
N224 N 0.5309 0.58668 0.05955 0.0
C225 C 0.54037 0.66056 0.03579 0.0
C226 C 0.50798 0.61044 0.0694 0.0
C227 C 0.51167 0.64759 0.0566 0.0
H228 H 0.60342 0.48597 0.07152 0.0
H229 H 0.49293 0.66621 0.06372 0.0
H230 H 0.37912 0.53289 0.99208 0.0
H231 H 0.46973 0.33486 0.07269 0.0
H232 H 0.48746 0.6009 0.08826 0.0
H233 H 0.54358 0.68936 0.02659 0.0
H234 H 0.48585 0.39363 0.03222 0.0
H235 H 0.66134 0.50331 0.04702 0.0
H236 H 0.60214 0.67625 1.00305 0.0
H237 H 0.64909 0.6319 1.00037 0.0
H238 H 0.32325 0.53355 0.02209 0.0
H239 H 0.67207 0.56734 0.01831 0.0
H240 H 0.41356 0.32986 0.10434 0.0
N241 N 0.3968 0.48052 0.02709 0.0
C242 C 0.38632 0.44961 0.05078 0.0
C243 C 0.34109 0.50996 0.03108 0.0
C244 C 0.35348 0.44821 0.06703 0.0
C245 C 0.37359 0.50983 0.01507 0.0
C246 C 0.33125 0.47921 0.05773 0.0
N247 N 0.44 0.42142 0.04253 0.0
C248 C 0.46152 0.39161 0.04637 0.0
C249 C 0.39795 0.38608 0.08122 0.0
C250 C 0.40822 0.41889 0.05796 0.0
C251 C 0.42056 0.35563 0.08676 0.0
C252 C 0.45236 0.35837 0.06904 0.0
H253 H 0.30585 0.47928 0.06969 0.0
H254 H 0.31845 0.41427 0.10407 0.0
H255 H 0.3571 0.35979 0.11595 0.0
O256 O 0.459 0.44772 0.95687 0.0
O257 O 0.47013 0.45696 0.07249 0.0
O258 O 0.47492 0.509 0.09649 0.0
O259 O 0.40681 0.47061 0.9571 0.0
O260 O 0.50719 0.46033 0.00634 0.0
O261 O 0.53852 0.46915 0.07123 0.0
O262 O 0.54634 0.54818 0.1294 0.0
O263 O 0.53427 0.52741 0.01089 0.0
O264 O 0.47657 0.52421 0.97187 0.0
O265 O 0.55026 0.49093 0.13345 0.0
O266 O 0.46991 0.54715 0.06191 0.0
O267 O 0.44308 0.53432 0.99724 0.0
C268 C 0.46455 0.47569 0.10051 0.0
C269 C 0.42204 0.46819 0.89079 0.0
C270 C 0.40823 0.45779 0.81836 0.0
C271 C 0.41286 0.49475 0.80324 0.0
C272 C 0.42616 0.5049 0.87504 0.0
C273 C 0.42189 0.51804 0.83147 0.0
C274 C 0.41335 0.44472 0.86249 0.0
C275 C 0.53522 0.45436 0.0373 0.0
C276 C 0.42597 0.45412 0.9366 0.0
C277 C 0.3435 0.41579 0.09118 0.0
C278 C 0.36554 0.38475 0.09798 0.0
C279 C 0.51072 0.5348 0.97533 0.0
C280 C 0.59428 0.51738 0.17949 0.0
C281 C 0.63191 0.53607 0.24002 0.0
C282 C 0.66145 0.51636 0.23343 0.0
C283 C 0.62406 0.49781 0.17347 0.0
C284 C 0.59843 0.53646 0.21268 0.0
C285 C 0.6575 0.49749 0.20027 0.0
C286 C 0.44762 0.55541 0.02529 0.0
C287 C 0.55814 0.51753 0.15307 0.0
H288 H 0.40867 0.50591 0.7696 0.0
H289 H 0.43222 0.52335 0.89649 0.0
H290 H 0.42507 0.54646 0.81952 0.0
H291 H 0.41057 0.4163 0.87501 0.0
H292 H 0.68767 0.51577 0.25368 0.0
H293 H 0.62147 0.48253 0.14847 0.0
H294 H 0.57519 0.55098 0.21779 0.0
H295 H 0.6804 0.4824 0.19547 0.0
H296 H 0.20674 0.17553 0.53306 0.0
H297 H 0.18185 0.20562 0.396 0.0
H298 H 0.12764 0.16765 0.39618 0.0
H299 H 0.18254 0.08486 0.54093 0.0
H300 H 0.16268 0.08154 0.58813 0.0
H301 H 0.19793 0.11339 0.57817 0.0
H302 H 0.1558 0.16543 0.58421 0.0
H303 H 0.12044 0.13369 0.59456 0.0
H304 H 0.11142 0.1721 0.5516 0.0
H305 H 0.07953 0.12303 0.41026 0.0
H306 H 0.03973 0.0749 0.43765 0.0
H307 H 0.09362 0.07451 0.56585 0.0
C308 C 0.18944 0.17475 0.50316 0.0
C309 C 0.19856 0.19361 0.46445 0.0
C310 C 0.17564 0.19118 0.42596 0.0
C311 C 0.14465 0.16988 0.42577 0.0
C312 C 0.13677 0.15127 0.46435 0.0
C313 C 0.15833 0.15357 0.50239 0.0
C314 C 0.14468 0.12927 0.53917 0.0
C315 C 0.17368 0.10057 0.56299 0.0
C316 C 0.13235 0.15146 0.56916 0.0
C317 C 0.11252 0.11246 0.51573 0.0
C318 C 0.10843 0.12573 0.4726 0.0
C319 C 0.08214 0.11285 0.444 0.0
C320 C 0.05969 0.08546 0.4598 0.0
C321 C 0.06331 0.07144 0.50376 0.0
C322 C 0.08983 0.08539 0.53216 0.0
H323 H 0.34562 0.72348 0.07347 0.0
H324 H 0.3089 0.75481 0.93772 0.0
H325 H 0.34037 0.70156 0.92693 0.0
H326 H 0.43206 0.68997 0.07023 0.0
H327 H 0.4327 0.6516 0.11295 0.0
H328 H 0.40636 0.69144 0.11192 0.0
H329 H 0.34775 0.65483 0.1153 0.0
H330 H 0.37369 0.61432 0.11806 0.0
H331 H 0.3343 0.62633 0.07749 0.0
H332 H 0.37832 0.64717 0.93 0.0
H333 H 0.41738 0.59239 0.94737 0.0
H334 H 0.42487 0.59261 0.08132 0.0
C335 C 0.34362 0.71892 0.04151 0.0
C336 C 0.32515 0.74388 0.00641 0.0
C337 C 0.32366 0.73682 0.96511 0.0
C338 C 0.34119 0.70641 0.95861 0.0
C339 C 0.35963 0.68284 0.99374 0.0
C340 C 0.36053 0.68833 0.03444 0.0
C341 C 0.38227 0.65859 0.06663 0.0
C342 C 0.41532 0.6738 0.09192 0.0
C343 C 0.35805 0.63725 0.09611 0.0
C344 C 0.39392 0.63596 0.03752 0.0
C345 C 0.38063 0.65056 0.99561 0.0
C346 C 0.38862 0.63526 0.96272 0.0
C347 C 0.4108 0.60414 0.97293 0.0
C348 C 0.42456 0.58849 0.01567 0.0
C349 C 0.41554 0.60444 0.04833 0.0
H350 H 0.81761 0.80029 0.65423 0.0
H351 H 0.77325 0.78525 0.52752 0.0
H352 H 0.81099 0.8343 0.49754 0.0
H353 H 0.82331 0.89929 0.62604 0.0
H354 H 0.8653 0.90042 0.66218 0.0
H355 H 0.83321 0.86546 0.67388 0.0
H356 H 0.88353 0.81702 0.68065 0.0
H357 H 0.91569 0.8518 0.66882 0.0
H358 H 0.90784 0.81758 0.63725 0.0
H359 H 0.85758 0.88017 0.4815 0.0
H360 H 0.90717 0.92399 0.48001 0.0
H361 H 0.91964 0.9127 0.61629 0.0
C362 C 0.8156 0.80766 0.62018 0.0
C363 C 0.79228 0.7891 0.59317 0.0
C364 C 0.79043 0.79946 0.54877 0.0
C365 C 0.81191 0.82717 0.53144 0.0
C366 C 0.83486 0.84463 0.55886 0.0
C367 C 0.83656 0.8357 0.60224 0.0
C368 C 0.86408 0.8585 0.62449 0.0
C369 C 0.84535 0.88233 0.64804 0.0
C370 C 0.89459 0.8348 0.65458 0.0
C371 C 0.87817 0.88095 0.58689 0.0
C372 C 0.86096 0.87234 0.54937 0.0
C373 C 0.87084 0.88759 0.51056 0.0
C374 C 0.89909 0.91227 0.51003 0.0
C375 C 0.91679 0.92182 0.54795 0.0
C376 C 0.90595 0.90627 0.58682 0.0
H377 H 0.71533 0.32717 0.09838 0.0
H378 H 0.70011 0.32015 0.96556 0.0
H379 H 0.64546 0.35939 0.95142 0.0
H380 H 0.62037 0.32623 0.10747 0.0
H381 H 0.62414 0.35822 0.14205 0.0
H382 H 0.66258 0.32971 0.14236 0.0
H383 H 0.70192 0.38611 0.12681 0.0
H384 H 0.66354 0.41474 0.12647 0.0
H385 H 0.68653 0.42112 0.08133 0.0
H386 H 0.59366 0.3991 0.95077 0.0
H387 H 0.54562 0.43712 0.96332 0.0
H388 H 0.59219 0.41913 0.0971 0.0
C389 C 0.70056 0.33408 0.06631 0.0
C390 C 0.71186 0.32033 0.03308 0.0
C391 C 0.69165 0.32978 0.99162 0.0
C392 C 0.66071 0.35227 0.98321 0.0
C393 C 0.65025 0.36518 0.01657 0.0
C394 C 0.66939 0.35653 0.05731 0.0
C395 C 0.65166 0.37399 0.08725 0.0
C396 C 0.63893 0.34532 0.12183 0.0
C397 C 0.67746 0.40056 0.10661 0.0
C398 C 0.61957 0.39364 0.05684 0.0
C399 C 0.6196 0.38818 0.01627 0.0
C400 C 0.59319 0.40349 0.98241 0.0
C401 C 0.56586 0.42499 0.99005 0.0
C402 C 0.56488 0.43108 0.03134 0.0
C403 C 0.59219 0.41507 0.06522 0.0
H404 H 0.15666 0.93627 0.1555 0.0
H405 H 0.18209 0.82232 0.20123 0.0
H406 H 0.14912 0.82262 0.26086 0.0
H407 H 0.16618 0.96086 0.25844 0.0
H408 H 0.12894 0.99325 0.24236 0.0
H409 H 0.15527 0.98406 0.20402 0.0
H410 H 0.09637 0.96842 0.15724 0.0
H411 H 0.06988 0.97751 0.19543 0.0
H412 H 0.06708 0.93443 0.17966 0.0
H413 H 0.11263 0.83549 0.31517 0.0
H414 H 0.07377 0.85938 0.35826 0.0
H415 H 0.07322 0.965 0.27709 0.0
C416 C 0.1557 0.91146 0.17833 0.0
C417 C 0.17205 0.87928 0.17378 0.0
C418 C 0.16951 0.84722 0.20389 0.0
C419 C 0.15104 0.84718 0.23799 0.0
C420 C 0.13524 0.8794 0.2415 0.0
C421 C 0.13734 0.91092 0.21241 0.0
C422 C 0.11726 0.94173 0.22264 0.0
C423 C 0.14348 0.97174 0.23246 0.0
C424 C 0.08578 0.95637 0.1866 0.0
C425 C 0.10329 0.92259 0.26188 0.0
C426 C 0.11412 0.88672 0.27245 0.0
C427 C 0.10413 0.86359 0.30729 0.0
C428 C 0.08223 0.87744 0.33171 0.0
C429 C 0.07042 0.91404 0.32106 0.0
C430 C 0.08146 0.93682 0.28582 0.0
H431 H 0.65224 0.59991 0.81786 0.0
H432 H 0.55974 0.64108 0.72166 0.0
H433 H 0.51858 0.62394 0.7742 0.0
H434 H 0.60803 0.5227 0.86682 0.0
H435 H 0.63045 0.52413 0.91976 0.0
H436 H 0.65257 0.54171 0.8753 0.0
H437 H 0.65921 0.60423 0.89768 0.0
H438 H 0.63879 0.58515 0.94279 0.0
H439 H 0.61954 0.62573 0.9078 0.0
H440 H 0.48771 0.60166 0.83707 0.0
H441 H 0.4686 0.57283 0.90418 0.0
H442 H 0.58092 0.54265 0.95867 0.0
C443 C 0.62335 0.60572 0.80813 0.0
C444 C 0.60907 0.62219 0.76596 0.0
C445 C 0.5711 0.62863 0.75394 0.0
C446 C 0.54761 0.61907 0.78355 0.0
C447 C 0.56253 0.6027 0.8249 0.0
C448 C 0.59947 0.59577 0.83709 0.0
C449 C 0.60837 0.5763 0.88286 0.0
C450 C 0.62589 0.539 0.88636 0.0
C451 C 0.6329 0.59929 0.90932 0.0
C452 C 0.57063 0.5731 0.8946 0.0
C453 C 0.54464 0.58883 0.86076 0.0
C454 C 0.50781 0.58903 0.86364 0.0
C455 C 0.49716 0.57221 0.90181 0.0
C456 C 0.52309 0.55479 0.9365 0.0
C457 C 0.56041 0.55582 0.93289 0.0
H458 H 0.93352 0.13395 0.23622 0.0
H459 H 0.82054 0.10215 0.22192 0.0
H460 H 0.83266 0.06344 0.29321 0.0
H461 H 0.97151 0.04662 0.28988 0.0
H462 H 0.00678 0.06445 0.32447 0.0
H463 H 0.98953 0.09034 0.27256 0.0
H464 H 0.97364 0.14397 0.30518 0.0
H465 H 0.99128 0.11872 0.35726 0.0
H466 H 0.94538 0.13676 0.34566 0.0
H467 H 0.85685 0.03008 0.36775 0.0
H468 H 0.89211 0.00304 0.43805 0.0
H469 H 0.98938 0.05365 0.4004 0.0
C470 C 0.91137 0.11842 0.2476 0.0
C471 C 0.87602 0.12124 0.2233 0.0
C472 C 0.84774 0.10094 0.24008 0.0
C473 C 0.85439 0.07868 0.28045 0.0
C474 C 0.88952 0.07673 0.30351 0.0
C475 C 0.91759 0.09587 0.28754 0.0
C476 C 0.95288 0.08923 0.31865 0.0
C477 C 0.98188 0.0716 0.3003 0.0
C478 C 0.96658 0.12425 0.33249 0.0
C479 C 0.9403 0.06337 0.35461 0.0
C480 C 0.90361 0.0567 0.34556 0.0
C481 C 0.88564 0.03494 0.37501 0.0
C482 C 0.90574 0.0199 0.41482 0.0
C483 C 0.94326 0.02667 0.42452 0.0
C484 C 0.96075 0.04811 0.39375 0.0
H485 H 0.4005 0.38107 0.60524 0.0
H486 H 0.32695 0.3004 0.65478 0.0
H487 H 0.33089 0.32624 0.71905 0.0
H488 H 0.45847 0.38151 0.7048 0.0
H489 H 0.46583 0.42931 0.69349 0.0
H490 H 0.45661 0.40506 0.65084 0.0
H491 H 0.40218 0.44855 0.61522 0.0
H492 H 0.41127 0.47296 0.65776 0.0
H493 H 0.36687 0.45478 0.64485 0.0
H494 H 0.34218 0.36101 0.77739 0.0
H495 H 0.36099 0.4017 0.82689 0.0
H496 H 0.42954 0.45838 0.74119 0.0
C497 C 0.38504 0.36908 0.62952 0.0
C498 C 0.36344 0.33871 0.62512 0.0
C499 C 0.34393 0.32345 0.65775 0.0
C500 C 0.34587 0.33802 0.69425 0.0
C501 C 0.3676 0.36777 0.69778 0.0
C502 C 0.38695 0.3831 0.66642 0.0
C503 C 0.40888 0.41449 0.67864 0.0
C504 C 0.44988 0.40714 0.68216 0.0
C505 C 0.39655 0.44978 0.64725 0.0
C506 C 0.39869 0.41447 0.72165 0.0
C507 C 0.37476 0.38737 0.73197 0.0
C508 C 0.36115 0.38217 0.76982 0.0
C509 C 0.37227 0.40529 0.79793 0.0
C510 C 0.39705 0.43318 0.7883 0.0
C511 C 0.41035 0.43762 0.7495 0.0
H512 H 0.69139 0.56283 0.47837 0.0
H513 H 0.64081 0.66956 0.43903 0.0
H514 H 0.62295 0.65862 0.36649 0.0
H515 H 0.72844 0.56375 0.38351 0.0
H516 H 0.72058 0.51668 0.38366 0.0
H517 H 0.72836 0.53246 0.43283 0.0
H518 H 0.66751 0.50523 0.4509 0.0
H519 H 0.65956 0.48929 0.40183 0.0
H520 H 0.626 0.51781 0.41386 0.0
H521 H 0.61111 0.63621 0.29779 0.0
H522 H 0.60627 0.604 0.23834 0.0
H523 H 0.66583 0.51257 0.32226 0.0
C524 C 0.67679 0.58407 0.45451 0.0
C525 C 0.66745 0.61706 0.46464 0.0
C526 C 0.64781 0.64384 0.4324 0.0
C527 C 0.63775 0.63798 0.39096 0.0
C528 C 0.6476 0.60525 0.38212 0.0
C529 C 0.66669 0.57875 0.41298 0.0
C530 C 0.67419 0.54607 0.39517 0.0
C531 C 0.71534 0.53936 0.39902 0.0
C532 C 0.65571 0.51263 0.41672 0.0
C533 C 0.65645 0.55835 0.3494 0.0
C534 C 0.64115 0.59253 0.34253 0.0
C535 C 0.62296 0.60942 0.30282 0.0
C536 C 0.62022 0.59086 0.2693 0.0
C537 C 0.63568 0.55578 0.2756 0.0
C538 C 0.65413 0.53952 0.31627 0.0
H539 H 0.90372 0.12527 0.93657 0.0
H540 H 0.82322 0.20089 0.85506 0.0
H541 H 0.8364 0.17871 0.79275 0.0
H542 H 0.968 0.13544 0.86878 0.0
H543 H 0.98281 0.08884 0.88116 0.0
H544 H 0.96454 0.10802 0.9197 0.0
H545 H 0.91623 0.05833 0.92478 0.0
H546 H 0.93451 0.03884 0.88637 0.0
H547 H 0.88695 0.05148 0.87734 0.0
H548 H 0.86145 0.15126 0.73894 0.0
H549 H 0.89717 0.12158 0.69764 0.0
H550 H 0.9608 0.06323 0.81444 0.0
C551 C 0.88825 0.13657 0.90573 0.0
C552 C 0.8623 0.1647 0.90067 0.0
C553 C 0.84333 0.17944 0.85963 0.0
C554 C 0.85048 0.16687 0.8241 0.0
C555 C 0.87665 0.1395 0.83014 0.0
C556 C 0.89518 0.12445 0.86994 0.0
C557 C 0.92358 0.09697 0.86755 0.0
C558 C 0.962 0.108 0.88534 0.0
C559 C 0.91478 0.05916 0.89036 0.0
C560 C 0.9187 0.09948 0.82012 0.0
C561 C 0.89122 0.12385 0.79912 0.0
C562 C 0.8827 0.13176 0.75507 0.0
C563 C 0.90304 0.1146 0.73187 0.0
C564 C 0.93174 0.08991 0.75271 0.0
C565 C 0.9392 0.08207 0.79749 0.0
H566 H 0.41592 0.33269 0.29692 0.0
H567 H 0.33607 0.41067 0.30953 0.0
H568 H 0.35038 0.4514 0.2457 0.0
H569 H 0.48173 0.3974 0.26434 0.0
H570 H 0.49623 0.3725 0.22812 0.0
H571 H 0.47869 0.34902 0.27386 0.0
H572 H 0.43096 0.3194 0.22547 0.0
H573 H 0.44759 0.34317 0.17923 0.0
H574 H 0.40023 0.3472 0.18348 0.0
H575 H 0.37677 0.48567 0.18391 0.0
H576 H 0.41108 0.50956 0.12615 0.0
H577 H 0.47181 0.40851 0.1514 0.0
C578 C 0.40143 0.35834 0.28632 0.0
C579 C 0.37476 0.36839 0.30833 0.0
C580 C 0.35621 0.40208 0.29299 0.0
C581 C 0.36431 0.4255 0.25686 0.0
C582 C 0.3909 0.41484 0.23619 0.0
C583 C 0.40909 0.38199 0.25025 0.0
C584 C 0.43707 0.37733 0.22283 0.0
C585 C 0.47571 0.37387 0.24885 0.0
C586 C 0.42842 0.34487 0.20143 0.0
C587 C 0.43166 0.41264 0.19098 0.0
C588 C 0.40518 0.43407 0.19961 0.0
C589 C 0.39721 0.46897 0.17656 0.0
C590 C 0.41693 0.48238 0.14404 0.0
C591 C 0.44375 0.46072 0.13436 0.0
C592 C 0.45097 0.42532 0.15787 0.0
H593 H 0.1644 0.96178 0.82614 0.0
H594 H 0.11899 0.85736 0.86839 0.0
H595 H 0.07755 0.86425 0.80018 0.0
H596 H 0.08378 0.00639 0.76855 0.0
H597 H 0.10453 0.03057 0.72543 0.0
H598 H 0.13116 0.01761 0.77749 0.0
H599 H 0.17742 0.98433 0.74706 0.0
H600 H 0.15103 0.99684 0.6947 0.0
H601 H 0.16193 0.95009 0.71741 0.0
H602 H 0.04075 0.88222 0.7279 0.0
H603 H 0.01159 0.91006 0.65534 0.0
H604 H 0.08169 0.00193 0.65872 0.0
C605 C 0.14608 0.94012 0.82102 0.0
C606 C 0.1448 0.9092 0.85315 0.0
C607 C 0.12 0.88175 0.84494 0.0
C608 C 0.09653 0.88522 0.80606 0.0
C609 C 0.09837 0.9161 0.77539 0.0
C610 C 0.1227 0.94293 0.78218 0.0
C611 C 0.11931 0.97323 0.74364 0.0
C612 C 0.10905 0.00908 0.75443 0.0
C613 C 0.15451 0.9763 0.72457 0.0
C614 C 0.08849 0.95972 0.71466 0.0
C615 C 0.07713 0.92649 0.73348 0.0
C616 C 0.04942 0.90821 0.71283 0.0
C617 C 0.03306 0.92418 0.67168 0.0
C618 C 0.04443 0.95805 0.65171 0.0
C619 C 0.07227 0.97618 0.6736 0.0
loop_
_geom_bond_atom_site_label_1
_geom_bond_atom_site_label_2
_geom_bond_distance
_geom_bond_site_symmetry_2
_ccdc_geom_bond_type
P0 O11 1.490 . S
P0 C14 1.812 . S
P0 C20 1.803 . S
P0 C26 1.819 1_554 S
H1 C15 0.941 . S
H2 C16 0.939 . S
H3 C18 0.940 . S
H4 C19 0.940 . S
H5 C21 0.939 . S
H6 C22 0.942 . S
H7 C24 0.940 . S
H8 C25 0.939 . S
H9 C27 0.941 . S
H10 C31 0.939 . S
O11 P0 1.490 . S
H12 C28 0.939 . S
H13 C30 0.940 . S
C14 P0 1.812 . S
C14 C15 1.389 . S
C14 C19 1.391 . S
C15 H1 0.941 . S
C15 C14 1.389 . S
C15 C16 1.397 . S
C16 H2 0.939 . S
C16 C15 1.397 . S
C16 C17 1.378 . S
C17 C16 1.378 . S
C17 C18 1.378 . S
C18 H3 0.940 . S
C18 C17 1.378 . S
C18 C19 1.396 . S
C19 H4 0.940 . S
C19 C14 1.391 . S
C19 C18 1.396 . S
C20 P0 1.803 . S
C20 C21 1.378 . S
C20 C25 1.400 . S
C21 H5 0.939 . S
C21 C20 1.378 . S
C21 C22 1.361 . S
C22 H6 0.942 . S
C22 C21 1.361 . S
C22 C23 1.369 . S
C23 C22 1.369 . S
C23 C24 1.404 . S
C24 H7 0.940 . S
C24 C23 1.404 . S
C24 C25 1.389 . S
C25 H8 0.939 . S
C25 C20 1.400 . S
C25 C24 1.389 . S
C26 P0 1.819 1_556 S
C26 C27 1.391 . S
C26 C31 1.391 . S
C27 H9 0.941 . S
C27 C26 1.391 . S
C27 C28 1.396 . S
C28 H12 0.939 . S
C28 C27 1.396 . S
C28 C29 1.397 . S
C29 C28 1.397 . S
C29 C30 1.385 . S
C30 H13 0.940 . S
C30 C29 1.385 . S
C30 C31 1.388 . S
C31 H10 0.939 . S
C31 C26 1.391 . S
C31 C30 1.388 . S
P32 O43 1.490 . S
P32 C46 1.812 . S
P32 C52 1.803 . S
P32 C58 1.819 . S
H33 C47 0.941 . S
H34 C48 0.939 . S
H35 C50 0.940 . S
H36 C51 0.940 . S
H37 C53 0.939 . S
H38 C54 0.942 . S
H39 C56 0.940 . S
H40 C57 0.939 . S
H41 C59 0.941 . S
H42 C63 0.939 . S
O43 P32 1.490 . S
H44 C60 0.939 . S
H45 C62 0.940 . S
C46 P32 1.812 . S
C46 C47 1.389 . S
C46 C51 1.391 . S
C47 H33 0.941 . S
C47 C46 1.389 . S
C47 C48 1.397 . S
C48 H34 0.939 . S
C48 C47 1.397 . S
C48 C49 1.378 . S
C49 C48 1.378 . S
C49 C50 1.378 . S
C50 H35 0.940 . S
C50 C49 1.378 . S
C50 C51 1.396 . S
C51 H36 0.940 . S
C51 C46 1.391 . S
C51 C50 1.396 . S
C52 P32 1.803 . S
C52 C53 1.378 . S
C52 C57 1.400 . S
C53 H37 0.939 . S
C53 C52 1.378 . S
C53 C54 1.361 . S
C54 H38 0.942 . S
C54 C53 1.361 . S
C54 C55 1.369 . S
C55 C54 1.369 . S
C55 C56 1.404 . S
C56 H39 0.940 . S
C56 C55 1.404 . S
C56 C57 1.389 . S
C57 H40 0.939 . S
C57 C52 1.400 . S
C57 C56 1.389 . S
C58 P32 1.819 . S
C58 C59 1.391 . S
C58 C63 1.391 . S
C59 H41 0.941 . S
C59 C58 1.391 . S
C59 C60 1.396 . S
C60 H44 0.939 . S
C60 C59 1.396 . S
C60 C61 1.397 . S
C61 C60 1.397 . S
C61 C62 1.385 . S
C62 H45 0.940 . S
C62 C61 1.385 . S
C62 C63 1.388 . S
C63 H42 0.939 . S
C63 C58 1.391 . S
C63 C62 1.388 . S
P64 O75 1.490 . S
P64 C78 1.812 . S
P64 C84 1.803 . S
P64 C90 1.819 . S
H65 C79 0.941 . S
H66 C80 0.939 . S
H67 C82 0.940 . S
H68 C83 0.940 . S
H69 C85 0.939 . S
H70 C86 0.942 . S
H71 C88 0.940 . S
H72 C89 0.939 . S
H73 C91 0.941 . S
H74 C95 0.939 . S
O75 P64 1.490 . S
H76 C92 0.939 . S
H77 C94 0.940 . S
C78 P64 1.812 . S
C78 C79 1.389 1_554 S
C78 C83 1.391 . S
C79 H65 0.941 . S
C79 C78 1.389 1_556 S
C79 C80 1.397 . S
C80 H66 0.939 . S
C80 C79 1.397 . S
C80 C81 1.378 . S
C81 C80 1.378 . S
C81 C82 1.378 . S
C82 H67 0.940 . S
C82 C81 1.378 . S
C82 C83 1.396 1_556 S
C83 H68 0.940 . S
C83 C78 1.391 . S
C83 C82 1.396 1_554 S
C84 P64 1.803 . S
C84 C85 1.378 . S
C84 C89 1.400 . S
C85 H69 0.939 . S
C85 C84 1.378 . S
C85 C86 1.361 . S
C86 H70 0.942 . S
C86 C85 1.361 . S
C86 C87 1.369 . S
C87 C86 1.369 . S
C87 C88 1.404 . S
C88 H71 0.940 . S
C88 C87 1.404 . S
C88 C89 1.389 . S
C89 H72 0.939 . S
C89 C84 1.400 . S
C89 C88 1.389 . S
C90 P64 1.819 . S
C90 C91 1.391 . S
C90 C95 1.391 . S
C91 H73 0.941 . S
C91 C90 1.391 . S
C91 C92 1.396 . S
C92 H76 0.939 . S
C92 C91 1.396 . S
C92 C93 1.397 . S
C93 C92 1.397 . S
C93 C94 1.385 . S
C94 H77 0.940 . S
C94 C93 1.385 . S
C94 C95 1.388 . S
C95 H74 0.939 . S
C95 C90 1.391 . S
C95 C94 1.388 . S
P96 O107 1.490 . S
P96 C110 1.812 . S
P96 C116 1.803 . S
P96 C122 1.819 . S
H97 C111 0.941 . S
H98 C112 0.939 . S
H99 C114 0.940 . S
H100 C115 0.940 . S
H101 C117 0.939 . S
H102 C118 0.942 . S
H103 C120 0.940 . S
H104 C121 0.939 . S
H105 C123 0.941 . S
H106 C127 0.939 . S
O107 P96 1.490 . S
H108 C124 0.939 . S
H109 C126 0.940 . S
C110 P96 1.812 . S
C110 C111 1.389 . S
C110 C115 1.391 . S
C111 H97 0.941 . S
C111 C110 1.389 . S
C111 C112 1.397 . S
C112 H98 0.939 . S
C112 C111 1.397 . S
C112 C113 1.378 . S
C113 C112 1.378 . S
C113 C114 1.378 . S
C114 H99 0.940 . S
C114 C113 1.378 . S
C114 C115 1.396 . S
C115 H100 0.940 . S
C115 C110 1.391 . S
C115 C114 1.396 . S
C116 P96 1.803 . S
C116 C117 1.378 . S
C116 C121 1.400 . S
C117 H101 0.939 . S
C117 C116 1.378 . S
C117 C118 1.361 . S
C118 H102 0.942 . S
C118 C117 1.361 . S
C118 C119 1.369 . S
C119 C118 1.369 . S
C119 C120 1.404 . S
C120 H103 0.940 . S
C120 C119 1.404 . S
C120 C121 1.389 . S
C121 H104 0.939 . S
C121 C116 1.400 . S
C121 C120 1.389 . S
C122 P96 1.819 . S
C122 C123 1.391 . S
C122 C127 1.391 . S
C123 H105 0.941 . S
C123 C122 1.391 . S
C123 C124 1.396 . S
C124 H108 0.939 . S
C124 C123 1.396 . S
C124 C125 1.397 . S
C125 C124 1.397 . S
C125 C126 1.385 . S
C126 H109 0.940 . S
C126 C125 1.385 . S
C126 C127 1.388 . S
C127 H106 0.939 . S
C127 C122 1.391 . S
C127 C126 1.388 . S
Tb128 N157 2.617 . S
Tb128 N163 2.572 . S
Tb128 O172 2.465 . S
Tb128 O173 2.387 . S
Tb128 O175 2.428 . S
Tb128 O176 2.308 1_565 S
Tb128 O180 2.347 1_465 S
Tb128 O183 2.393 1_455 S
Tb128 C192 2.802 . S
C129 N130 1.379 . S
C129 C132 1.416 . S
C129 C136 1.424 . S
N130 C129 1.379 . S
N130 C133 1.334 1_655 S
N130 Tb139 2.617 . S
C131 C133 1.390 1_655 S
C131 C134 1.339 . S
C131 H151 0.930 1_655 S
C132 C129 1.416 . S
C132 C134 1.416 . S
C132 C138 1.448 . S
C133 N130 1.334 1_455 S
C133 C131 1.390 1_455 S
C133 H144 0.930 . S
C134 C131 1.339 . S
C134 C132 1.416 . S
C134 H155 0.930 . S
C135 C136 1.413 . S
C135 C137 1.427 . S
C135 C141 1.416 . S
C136 C129 1.424 . S
C136 C135 1.413 . S
C136 N140 1.361 . S
C137 C135 1.427 . S
C137 C138 1.328 . S
C137 H152 0.929 . S
C138 C132 1.448 . S
C138 C137 1.328 . S
C138 H153 0.930 . S
Tb139 N130 2.617 . S
Tb139 N140 2.572 . S
Tb139 O174 2.349 1_655 S
Tb139 O177 2.393 1_655 S
Tb139 O178 2.465 . S
Tb139 O179 2.387 . S
Tb139 O181 2.428 . S
Tb139 O182 2.308 1_545 S
Tb139 C203 2.802 . S
N140 C136 1.361 . S
N140 Tb139 2.572 . S
N140 C142 1.340 . S
C141 C135 1.416 . S
C141 C143 1.332 . S
C141 H149 0.931 . S
C142 N140 1.340 . S
C142 C143 1.407 . S
C142 H148 0.930 . S
C143 C141 1.332 . S
C143 C142 1.407 . S
C143 H145 0.929 . S
H144 C133 0.930 . S
H145 C143 0.929 . S
H146 C161 0.930 1_655 S
H147 C168 0.929 . S
H148 C142 0.930 . S
H149 C141 0.931 . S
H150 C164 0.930 . S
H151 C131 0.930 1_455 S
H152 C137 0.929 . S
H153 C138 0.930 . S
H154 C159 0.930 1_655 S
H155 C134 0.930 . S
H156 C167 0.931 . S
N157 Tb128 2.617 . S
N157 C158 1.379 . S
N157 C161 1.334 . S
C158 N157 1.379 . S
C158 C160 1.416 . S
C158 C166 1.424 . S
C159 H154 0.930 1_455 S
C159 C161 1.390 . S
C159 C162 1.339 . S
C160 C158 1.416 . S
C160 C162 1.416 . S
C160 C193 1.448 . S
C161 H146 0.930 1_455 S
C161 N157 1.334 . S
C161 C159 1.390 . S
C162 C159 1.339 . S
C162 C160 1.416 . S
C162 H169 0.930 . S
N163 Tb128 2.572 . S
N163 C164 1.340 . S
N163 C166 1.361 . S
C164 H150 0.930 . S
C164 N163 1.340 . S
C164 C168 1.407 . S
C165 C166 1.413 . S
C165 C167 1.416 . S
C165 C194 1.427 . S
C166 C158 1.424 . S
C166 N163 1.361 . S
C166 C165 1.413 . S
C167 H156 0.931 . S
C167 C165 1.416 . S
C167 C168 1.332 . S
C168 H147 0.929 . S
C168 C164 1.407 . S
C168 C167 1.332 . S
H169 C162 0.930 . S
H170 C193 0.930 . S
H171 C194 0.929 . S
O172 Tb128 2.465 . S
O172 C192 1.264 . S
O173 Tb128 2.387 . S
O173 C184 1.264 . S
O174 Tb139 2.349 1_455 S
O174 C184 1.243 1_545 S
O175 Tb128 2.428 . S
O175 C192 1.256 . S
O176 Tb128 2.308 1_545 S
O176 C191 1.266 . S
O177 Tb139 2.393 1_455 S
O177 C191 1.248 . S
O178 Tb139 2.465 . S
O178 C203 1.264 . S
O179 Tb139 2.387 . S
O179 C195 1.264 . S
O180 Tb128 2.347 1_645 S
O180 C195 1.247 . S
O181 Tb139 2.428 . S
O181 C203 1.256 . S
O182 Tb139 2.308 1_565 S
O182 C202 1.266 . S
O183 Tb128 2.393 1_655 S
O183 C202 1.248 . S
C184 O173 1.264 . S
C184 O174 1.243 1_565 S
C185 C188 1.399 . S
C185 C190 1.383 . S
C185 C192 1.496 . S
C186 C187 1.399 . S
C186 C190 1.389 . S
C187 C186 1.399 . S
C187 C189 1.380 . S
C187 H204 0.929 . S
C188 C185 1.399 . S
C188 C189 1.392 . S
C188 H205 0.929 . S
C189 C187 1.380 . S
C189 C188 1.392 . S
C189 H206 0.929 . S
C190 C185 1.383 . S
C190 C186 1.389 . S
C190 H207 0.931 . S
C191 O176 1.266 . S
C191 O177 1.248 . S
C192 Tb128 2.802 . S
C192 O172 1.264 . S
C192 O175 1.256 . S
C192 C185 1.496 . S
C193 C160 1.448 . S
C193 H170 0.930 . S
C193 C194 1.328 . S
C194 C165 1.427 . S
C194 H171 0.929 . S
C194 C193 1.328 . S
C195 O179 1.264 . S
C195 O180 1.247 . S
C196 C199 1.399 . S
C196 C200 1.383 . S
C196 C203 1.496 . S
C197 C198 1.399 . S
C197 C200 1.389 . S
C198 C197 1.399 . S
C198 C201 1.380 . S
C198 H208 0.929 . S
C199 C196 1.399 . S
C199 C201 1.392 . S
C199 H209 0.929 . S
C200 C196 1.383 . S
C200 C197 1.389 . S
C200 H210 0.931 . S
C201 C198 1.380 . S
C201 C199 1.392 . S
C201 H211 0.929 . S
C202 O182 1.266 . S
C202 O183 1.248 . S
C203 Tb139 2.802 . S
C203 O178 1.264 . S
C203 O181 1.256 . S
C203 C196 1.496 . S
H204 C187 0.929 . S
H205 C188 0.929 . S
H206 C189 0.929 . S
H207 C190 0.931 . S
H208 C198 0.929 . S
H209 C199 0.929 . S
H210 C200 0.931 . S
H211 C201 0.929 . S
Tb212 N241 2.617 . S
Tb212 N247 2.572 1_556 S
Tb212 O256 2.465 . S
Tb212 O257 2.387 1_556 S
Tb212 O259 2.428 . S
Tb212 O260 2.308 1_556 S
Tb212 O264 2.349 . S
Tb212 O267 2.390 1_556 S
Tb212 C276 2.802 . S
C213 N214 1.379 . S
C213 C216 1.416 . S
C213 C220 1.424 . S
N214 C213 1.379 . S
N214 C217 1.334 . S
N214 Tb223 2.617 . S
C215 C217 1.390 . S
C215 C218 1.339 . S
C215 H235 0.930 . S
C216 C213 1.416 . S
C216 C218 1.416 . S
C216 C222 1.448 . S
C217 N214 1.334 . S
C217 C215 1.390 . S
C217 H228 0.930 . S
C218 C215 1.339 . S
C218 C216 1.416 . S
C218 H239 0.930 . S
C219 C220 1.413 . S
C219 C221 1.427 . S
C219 C225 1.416 . S
C220 C213 1.424 . S
C220 C219 1.413 . S
C220 N224 1.361 . S
C221 C219 1.427 . S
C221 C222 1.328 . S
C221 H236 0.929 . S
C222 C216 1.448 . S
C222 C221 1.328 . S
C222 H237 0.930 . S
Tb223 N214 2.617 . S
Tb223 N224 2.572 . S
Tb223 O258 2.349 . S
Tb223 O261 2.393 . S
Tb223 O262 2.465 . S
Tb223 O263 2.379 1_554 S
Tb223 O265 2.428 . S
Tb223 O266 2.308 . S
Tb223 C287 2.802 . S
N224 C220 1.361 . S
N224 Tb223 2.572 . S
N224 C226 1.340 . S
C225 C219 1.416 . S
C225 C227 1.332 . S
C225 H233 0.931 . S
C226 N224 1.340 . S
C226 C227 1.407 . S
C226 H232 0.930 . S
C227 C225 1.332 . S
C227 C226 1.407 . S
C227 H229 0.929 . S
H228 C217 0.930 . S
H229 C227 0.929 . S
H230 C245 0.930 . S
H231 C252 0.929 . S
H232 C226 0.930 . S
H233 C225 0.931 . S
H234 C248 0.930 . S
H235 C215 0.930 . S
H236 C221 0.929 . S
H237 C222 0.930 . S
H238 C243 0.930 . S
H239 C218 0.930 . S
H240 C251 0.931 . S
N241 Tb212 2.617 . S
N241 C242 1.379 1_556 S
N241 C245 1.334 . S
C242 N241 1.379 1_554 S
C242 C244 1.416 . S
C242 C250 1.424 . S
C243 H238 0.930 . S
C243 C245 1.390 . S
C243 C246 1.339 1_556 S
C244 C242 1.416 . S
C244 C246 1.416 . S
C244 C277 1.448 . S
C245 H230 0.930 . S
C245 N241 1.334 . S
C245 C243 1.390 . S
C246 C243 1.339 1_554 S
C246 C244 1.416 . S
C246 H253 0.930 . S
N247 Tb212 2.572 1_554 S
N247 C248 1.340 . S
N247 C250 1.361 . S
C248 H234 0.930 . S
C248 N247 1.340 . S
C248 C252 1.407 . S
C249 C250 1.413 . S
C249 C251 1.416 . S
C249 C278 1.427 . S
C250 C242 1.424 . S
C250 N247 1.361 . S
C250 C249 1.413 . S
C251 H240 0.931 . S
C251 C249 1.416 . S
C251 C252 1.332 . S
C252 H231 0.929 . S
C252 C248 1.407 . S
C252 C251 1.332 . S
H253 C246 0.930 . S
H254 C277 0.930 . S
H255 C278 0.929 . S
O256 Tb212 2.465 . S
O256 C276 1.264 . S
O257 Tb212 2.387 1_554 S
O257 C268 1.264 . S
O258 Tb223 2.349 . S
O258 C268 1.243 . S
O259 Tb212 2.428 . S
O259 C276 1.256 . S
O260 Tb212 2.308 1_554 S
O260 C275 1.266 . S
O261 Tb223 2.393 . S
O261 C275 1.248 . S
O262 Tb223 2.465 . S
O262 C287 1.264 . S
O263 Tb223 2.379 1_556 S
O263 C279 1.270 . S
O264 Tb212 2.349 . S
O264 C279 1.243 . S
O265 Tb223 2.428 . S
O265 C287 1.256 . S
O266 Tb223 2.308 . S
O266 C286 1.266 . S
O267 Tb212 2.390 1_554 S
O267 C286 1.255 . S
C268 O257 1.264 . S
C268 O258 1.243 . S
C269 C272 1.399 . S
C269 C274 1.383 . S
C269 C276 1.496 . S
C270 C271 1.399 . S
C270 C274 1.389 . S
C271 C270 1.399 . S
C271 C273 1.380 . S
C271 H288 0.929 . S
C272 C269 1.399 . S
C272 C273 1.392 . S
C272 H289 0.929 . S
C273 C271 1.380 . S
C273 C272 1.392 . S
C273 H290 0.929 . S
C274 C269 1.383 . S
C274 C270 1.389 . S
C274 H291 0.931 . S
C275 O260 1.266 . S
C275 O261 1.248 . S
C276 Tb212 2.802 . S
C276 O256 1.264 . S
C276 O259 1.256 . S
C276 C269 1.496 . S
C277 C244 1.448 . S
C277 H254 0.930 . S
C277 C278 1.328 . S
C278 C249 1.427 . S
C278 H255 0.929 . S
C278 C277 1.328 . S
C279 O263 1.270 . S
C279 O264 1.243 . S
C280 C283 1.399 . S
C280 C284 1.383 . S
C280 C287 1.496 . S
C281 C282 1.399 . S
C281 C284 1.389 . S
C282 C281 1.399 . S
C282 C285 1.380 . S
C282 H292 0.929 . S
C283 C280 1.399 . S
C283 C285 1.392 . S
C283 H293 0.929 . S
C284 C280 1.383 . S
C284 C281 1.389 . S
C284 H294 0.931 . S
C285 C282 1.380 . S
C285 C283 1.392 . S
C285 H295 0.929 . S
C286 O266 1.266 . S
C286 O267 1.255 . S
C287 Tb223 2.802 . S
C287 O262 1.264 . S
C287 O265 1.256 . S
C287 C280 1.496 . S
H288 C271 0.929 . S
H289 C272 0.929 . S
H290 C273 0.929 . S
H291 C274 0.931 . S
H292 C282 0.929 . S
H293 C283 0.929 . S
H294 C284 0.931 . S
H295 C285 0.929 . S
H296 C308 0.930 . S
H297 C310 0.930 . S
H298 C311 0.930 . S
H299 C315 0.959 . S
H300 C315 0.959 . S
H301 C315 0.961 . S
H302 C316 0.960 . S
H303 C316 0.961 . S
H304 C316 0.959 . S
H305 C319 0.929 . S
H306 C320 0.931 . S
H307 C322 0.930 . S
C308 H296 0.930 . S
C308 C309 1.399 . S
C308 C313 1.399 . S
C309 C308 1.399 . S
C309 C310 1.376 . S
C310 H297 0.930 . S
C310 C309 1.376 . S
C310 C311 1.388 . S
C311 H298 0.930 . S
C311 C310 1.388 . S
C311 C312 1.390 . S
C312 C311 1.390 . S
C312 C313 1.394 . S
C312 C318 1.465 . S
C313 C308 1.399 . S
C313 C312 1.394 . S
C313 C314 1.516 . S
C314 C313 1.516 . S
C314 C315 1.502 . S
C314 C316 1.561 . S
C314 C317 1.526 . S
C315 H299 0.959 . S
C315 H300 0.959 . S
C315 H301 0.961 . S
C315 C314 1.502 . S
C316 H302 0.960 . S
C316 H303 0.961 . S
C316 H304 0.959 . S
C316 C314 1.561 . S
C317 C314 1.526 . S
C317 C318 1.396 . S
C317 C322 1.390 . S
C318 C312 1.465 . S
C318 C317 1.396 . S
C318 C319 1.399 . S
C319 H305 0.929 . S
C319 C318 1.399 . S
C319 C320 1.385 . S
C320 H306 0.931 . S
C320 C319 1.385 . S
C320 C321 1.389 . S
C321 C320 1.389 . S
C321 C322 1.387 . S
C322 H307 0.930 . S
C322 C317 1.390 . S
C322 C321 1.387 . S
H323 C335 0.930 . S
H324 C337 0.930 1_556 S
H325 C338 0.930 . S
H326 C342 0.959 . S
H327 C342 0.959 . S
H328 C342 0.961 . S
H329 C343 0.960 . S
H330 C343 0.961 . S
H331 C343 0.959 . S
H332 C346 0.929 . S
H333 C347 0.931 . S
H334 C349 0.930 . S
C335 H323 0.930 . S
C335 C336 1.399 . S
C335 C340 1.399 . S
C336 C335 1.399 . S
C336 C337 1.376 . S
C337 H324 0.930 1_554 S
C337 C336 1.376 . S
C337 C338 1.388 1_554 S
C338 H325 0.930 . S
C338 C337 1.388 1_556 S
C338 C339 1.390 1_556 S
C339 C338 1.390 1_554 S
C339 C340 1.394 . S
C339 C345 1.465 . S
C340 C335 1.399 . S
C340 C339 1.394 . S
C340 C341 1.516 . S
C341 C340 1.516 . S
C341 C342 1.502 . S
C341 C343 1.561 . S
C341 C344 1.526 . S
C342 H326 0.959 . S
C342 H327 0.959 . S
C342 H328 0.961 . S
C342 C341 1.502 . S
C343 H329 0.960 . S
C343 H330 0.961 . S
C343 H331 0.959 . S
C343 C341 1.561 . S
C344 C341 1.526 . S
C344 C345 1.396 . S
C344 C349 1.390 . S
C345 C339 1.465 . S
C345 C344 1.396 . S
C345 C346 1.399 1_554 S
C346 H332 0.929 . S
C346 C345 1.399 1_556 S
C346 C347 1.385 . S
C347 H333 0.931 . S
C347 C346 1.385 . S
C347 C348 1.389 1_556 S
C348 C347 1.389 1_554 S
C348 C349 1.387 . S
C349 H334 0.930 . S
C349 C344 1.390 . S
C349 C348 1.387 . S
H350 C362 0.930 . S
H351 C364 0.930 . S
H352 C365 0.930 . S
H353 C369 0.959 . S
H354 C369 0.959 . S
H355 C369 0.961 . S
H356 C370 0.960 . S
H357 C370 0.961 . S
H358 C370 0.959 . S
H359 C373 0.929 . S
H360 C374 0.931 . S
H361 C376 0.930 . S
C362 H350 0.930 . S
C362 C363 1.399 . S
C362 C367 1.399 . S
C363 C362 1.399 . S
C363 C364 1.376 . S
C364 H351 0.930 . S
C364 C363 1.376 . S
C364 C365 1.388 . S
C365 H352 0.930 . S
C365 C364 1.388 . S
C365 C366 1.390 . S
C366 C365 1.390 . S
C366 C367 1.394 . S
C366 C372 1.465 . S
C367 C362 1.399 . S
C367 C366 1.394 . S
C367 C368 1.516 . S
C368 C367 1.516 . S
C368 C369 1.502 . S
C368 C370 1.561 . S
C368 C371 1.526 . S
C369 H353 0.959 . S
C369 H354 0.959 . S
C369 H355 0.961 . S
C369 C368 1.502 . S
C370 H356 0.960 . S
C370 H357 0.961 . S
C370 H358 0.959 . S
C370 C368 1.561 . S
C371 C368 1.526 . S
C371 C372 1.396 . S
C371 C376 1.390 . S
C372 C366 1.465 . S
C372 C371 1.396 . S
C372 C373 1.399 . S
C373 H359 0.929 . S
C373 C372 1.399 . S
C373 C374 1.385 . S
C374 H360 0.931 . S
C374 C373 1.385 . S
C374 C375 1.389 . S
C375 C374 1.389 . S
C375 C376 1.387 . S
C376 H361 0.930 . S
C376 C371 1.390 . S
C376 C375 1.387 . S
H377 C389 0.930 . S
H378 C391 0.952 . S
H379 C392 0.930 . S
H380 C396 0.959 . S
H381 C396 0.959 . S
H382 C396 0.961 . S
H383 C397 0.960 . S
H384 C397 0.961 . S
H385 C397 0.959 . S
H386 C400 0.929 . S
H387 C401 0.931 . S
H388 C403 0.930 . S
C389 H377 0.930 . S
C389 C390 1.399 . S
C389 C394 1.399 . S
C390 C389 1.399 . S
C390 C391 1.358 1_554 S
C391 H378 0.952 . S
C391 C390 1.358 1_556 S
C391 C392 1.386 . S
C392 H379 0.930 . S
C392 C391 1.386 . S
C392 C393 1.390 1_556 S
C393 C392 1.390 1_554 S
C393 C394 1.394 . S
C393 C399 1.465 . S
C394 C389 1.399 . S
C394 C393 1.394 . S
C394 C395 1.516 . S
C395 C394 1.516 . S
C395 C396 1.502 . S
C395 C397 1.561 . S
C395 C398 1.526 . S
C396 H380 0.959 . S
C396 H381 0.959 . S
C396 H382 0.961 . S
C396 C395 1.502 . S
C397 H383 0.960 . S
C397 H384 0.961 . S
C397 H385 0.959 . S
C397 C395 1.561 . S
C398 C395 1.526 . S
C398 C399 1.396 . S
C398 C403 1.390 . S
C399 C393 1.465 . S
C399 C398 1.396 . S
C399 C400 1.399 1_554 S
C400 H386 0.929 . S
C400 C399 1.399 1_556 S
C400 C401 1.385 . S
C401 H387 0.931 . S
C401 C400 1.385 . S
C401 C402 1.389 1_556 S
C402 C401 1.389 1_554 S
C402 C403 1.387 . S
C403 H388 0.930 . S
C403 C398 1.390 . S
C403 C402 1.387 . S
H404 C416 0.930 . S
H405 C418 0.930 . S
H406 C419 0.930 . S
H407 C423 0.959 . S
H408 C423 0.959 1_545 S
H409 C423 0.961 . S
H410 C424 0.960 . S
H411 C424 0.961 . S
H412 C424 0.959 . S
H413 C427 0.929 . S
H414 C428 0.931 . S
H415 C430 0.930 . S
C416 H404 0.930 . S
C416 C417 1.399 . S
C416 C421 1.399 . S
C417 C416 1.399 . S
C417 C418 1.376 . S
C418 H405 0.930 . S
C418 C417 1.376 . S
C418 C419 1.388 . S
C419 H406 0.930 . S
C419 C418 1.388 . S
C419 C420 1.390 . S
C420 C419 1.390 . S
C420 C421 1.394 . S
C420 C426 1.465 . S
C421 C416 1.399 . S
C421 C420 1.394 . S
C421 C422 1.516 . S
C422 C421 1.516 . S
C422 C423 1.502 . S
C422 C424 1.561 1_565 S
C422 C425 1.526 . S
C423 H407 0.959 . S
C423 H408 0.959 1_565 S
C423 H409 0.961 . S
C423 C422 1.502 . S
C424 H410 0.960 . S
C424 H411 0.961 . S
C424 H412 0.959 . S
C424 C422 1.561 1_545 S
C425 C422 1.526 . S
C425 C426 1.396 . S
C425 C430 1.390 . S
C426 C420 1.465 . S
C426 C425 1.396 . S
C426 C427 1.399 . S
C427 H413 0.929 . S
C427 C426 1.399 . S
C427 C428 1.385 . S
C428 H414 0.931 . S
C428 C427 1.385 . S
C428 C429 1.389 . S
C429 C428 1.389 . S
C429 C430 1.387 . S
C430 H415 0.930 . S
C430 C425 1.390 . S
C430 C429 1.387 . S
H431 C443 0.930 . S
H432 C445 0.930 . S
H433 C446 0.930 . S
H434 C450 0.959 . S
H435 C450 0.959 . S
H436 C450 0.961 . S
H437 C451 0.960 . S
H438 C451 0.961 . S
H439 C451 0.959 . S
H440 C454 0.929 . S
H441 C455 0.931 . S
H442 C457 0.930 . S
C443 H431 0.930 . S
C443 C444 1.399 . S
C443 C448 1.399 . S
C444 C443 1.399 . S
C444 C445 1.376 . S
C445 H432 0.930 . S
C445 C444 1.376 . S
C445 C446 1.388 . S
C446 H433 0.930 . S
C446 C445 1.388 . S
C446 C447 1.390 . S
C447 C446 1.390 . S
C447 C448 1.394 . S
C447 C453 1.465 . S
C448 C443 1.399 . S
C448 C447 1.394 . S
C448 C449 1.516 . S
C449 C448 1.516 . S
C449 C450 1.502 . S
C449 C451 1.561 . S
C449 C452 1.526 . S
C450 H434 0.959 . S
C450 H435 0.959 . S
C450 H436 0.961 . S
C450 C449 1.502 . S
C451 H437 0.960 . S
C451 H438 0.961 . S
C451 H439 0.959 . S
C451 C449 1.561 . S
C452 C449 1.526 . S
C452 C453 1.396 . S
C452 C457 1.390 . S
C453 C447 1.465 . S
C453 C452 1.396 . S
C453 C454 1.399 . S
C454 H440 0.929 . S
C454 C453 1.399 . S
C454 C455 1.385 . S
C455 H441 0.931 . S
C455 C454 1.385 . S
C455 C456 1.389 . S
C456 C455 1.389 . S
C456 C457 1.387 . S
C457 H442 0.930 . S
C457 C452 1.390 . S
C457 C456 1.387 . S
H458 C470 0.930 . S
H459 C472 0.930 . S
H460 C473 0.930 1_565 S
H461 C477 0.959 . S
H462 C477 0.959 . S
H463 C477 0.961 . S
H464 C478 0.960 . S
H465 C478 0.961 . S
H466 C478 0.959 . S
H467 C481 0.929 1_565 S
H468 C482 0.931 1_565 S
H469 C484 0.930 . S
C470 H458 0.930 . S
C470 C471 1.399 . S
C470 C475 1.399 . S
C471 C470 1.399 . S
C471 C472 1.376 . S
C472 H459 0.930 . S
C472 C471 1.376 . S
C472 C473 1.388 . S
C473 H460 0.930 1_545 S
C473 C472 1.388 . S
C473 C474 1.390 . S
C474 C473 1.390 . S
C474 C475 1.394 . S
C474 C480 1.465 . S
C475 C470 1.399 . S
C475 C474 1.394 . S
C475 C476 1.516 . S
C476 C475 1.516 . S
C476 C477 1.502 . S
C476 C478 1.561 . S
C476 C479 1.526 . S
C477 H461 0.959 . S
C477 H462 0.959 . S
C477 H463 0.961 . S
C477 C476 1.502 . S
C478 H464 0.960 . S
C478 H465 0.961 . S
C478 H466 0.959 . S
C478 C476 1.561 . S
C479 C476 1.526 . S
C479 C480 1.396 . S
C479 C484 1.390 . S
C480 C474 1.465 . S
C480 C479 1.396 . S
C480 C481 1.399 . S
C481 H467 0.929 1_545 S
C481 C480 1.399 . S
C481 C482 1.385 . S
C482 H468 0.931 1_545 S
C482 C481 1.385 . S
C482 C483 1.389 . S
C483 C482 1.389 . S
C483 C484 1.387 . S
C484 H469 0.930 . S
C484 C479 1.390 . S
C484 C483 1.387 . S
H485 C497 0.930 . S
H486 C499 0.930 . S
H487 C500 0.930 . S
H488 C504 0.959 . S
H489 C504 0.959 . S
H490 C504 0.961 . S
H491 C505 0.960 . S
H492 C505 0.961 . S
H493 C505 0.959 . S
H494 C508 0.929 . S
H495 C509 0.931 . S
H496 C511 0.930 . S
C497 H485 0.930 . S
C497 C498 1.399 . S
C497 C502 1.399 . S
C498 C497 1.399 . S
C498 C499 1.376 . S
C499 H486 0.930 . S
C499 C498 1.376 . S
C499 C500 1.388 . S
C500 H487 0.930 . S
C500 C499 1.388 . S
C500 C501 1.390 . S
C501 C500 1.390 . S
C501 C502 1.394 . S
C501 C507 1.465 . S
C502 C497 1.399 . S
C502 C501 1.394 . S
C502 C503 1.516 . S
C503 C502 1.516 . S
C503 C504 1.502 . S
C503 C505 1.561 . S
C503 C506 1.526 . S
C504 H488 0.959 . S
C504 H489 0.959 . S
C504 H490 0.961 . S
C504 C503 1.502 . S
C505 H491 0.960 . S
C505 H492 0.961 . S
C505 H493 0.959 . S
C505 C503 1.561 . S
C506 C503 1.526 . S
C506 C507 1.396 . S
C506 C511 1.390 . S
C507 C501 1.465 . S
C507 C506 1.396 . S
C507 C508 1.399 . S
C508 H494 0.929 . S
C508 C507 1.399 . S
C508 C509 1.385 . S
C509 H495 0.931 . S
C509 C508 1.385 . S
C509 C510 1.389 . S
C510 C509 1.389 . S
C510 C511 1.387 . S
C511 H496 0.930 . S
C511 C506 1.390 . S
C511 C510 1.387 . S
H512 C524 0.930 . S
H513 C526 0.930 . S
H514 C527 0.930 . S
H515 C531 0.959 . S
H516 C531 0.959 . S
H517 C531 0.961 . S
H518 C532 0.960 . S
H519 C532 0.961 . S
H520 C532 0.959 . S
H521 C535 0.929 . S
H522 C536 0.931 . S
H523 C538 0.930 . S
C524 H512 0.930 . S
C524 C525 1.399 . S
C524 C529 1.399 . S
C525 C524 1.399 . S
C525 C526 1.376 . S
C526 H513 0.930 . S
C526 C525 1.376 . S
C526 C527 1.388 . S
C527 H514 0.930 . S
C527 C526 1.388 . S
C527 C528 1.390 . S
C528 C527 1.390 . S
C528 C529 1.394 . S
C528 C534 1.465 . S
C529 C524 1.399 . S
C529 C528 1.394 . S
C529 C530 1.516 . S
C530 C529 1.516 . S
C530 C531 1.502 . S
C530 C532 1.561 . S
C530 C533 1.526 . S
C531 H515 0.959 . S
C531 H516 0.959 . S
C531 H517 0.961 . S
C531 C530 1.502 . S
C532 H518 0.960 . S
C532 H519 0.961 . S
C532 H520 0.959 . S
C532 C530 1.561 . S
C533 C530 1.526 . S
C533 C534 1.396 . S
C533 C538 1.390 . S
C534 C528 1.465 . S
C534 C533 1.396 . S
C534 C535 1.399 . S
C535 H521 0.929 . S
C535 C534 1.399 . S
C535 C536 1.385 . S
C536 H522 0.931 . S
C536 C535 1.385 . S
C536 C537 1.389 . S
C537 C536 1.389 . S
C537 C538 1.387 . S
C538 H523 0.930 . S
C538 C533 1.390 . S
C538 C537 1.387 . S
H539 C551 0.930 . S
H540 C553 0.930 . S
H541 C554 0.930 . S
H542 C558 0.959 . S
H543 C558 0.959 1_565 S
H544 C558 0.961 . S
H545 C559 0.960 1_565 S
H546 C559 0.961 1_565 S
H547 C559 0.959 . S
H548 C562 0.929 . S
H549 C563 0.931 . S
H550 C565 0.930 . S
C551 H539 0.930 . S
C551 C552 1.399 . S
C551 C556 1.399 . S
C552 C551 1.399 . S
C552 C553 1.376 . S
C553 H540 0.930 . S
C553 C552 1.376 . S
C553 C554 1.388 . S
C554 H541 0.930 . S
C554 C553 1.388 . S
C554 C555 1.390 . S
C555 C554 1.390 . S
C555 C556 1.394 . S
C555 C561 1.465 . S
C556 C551 1.399 . S
C556 C555 1.394 . S
C556 C557 1.516 . S
C557 C556 1.516 . S
C557 C558 1.502 . S
C557 C559 1.561 . S
C557 C560 1.526 . S
C558 H542 0.959 . S
C558 H543 0.959 1_545 S
C558 H544 0.961 . S
C558 C557 1.502 . S
C559 H545 0.960 1_545 S
C559 H546 0.961 1_545 S
C559 H547 0.959 . S
C559 C557 1.561 . S
C560 C557 1.526 . S
C560 C561 1.396 . S
C560 C565 1.390 . S
C561 C555 1.465 . S
C561 C560 1.396 . S
C561 C562 1.399 . S
C562 H548 0.929 . S
C562 C561 1.399 . S
C562 C563 1.385 . S
C563 H549 0.931 . S
C563 C562 1.385 . S
C563 C564 1.389 . S
C564 C563 1.389 . S
C564 C565 1.387 . S
C565 H550 0.930 . S
C565 C560 1.390 . S
C565 C564 1.387 . S
H566 C578 0.930 . S
H567 C580 0.930 . S
H568 C581 0.930 . S
H569 C585 0.959 . S
H570 C585 0.959 . S
H571 C585 0.961 . S
H572 C586 0.960 . S
H573 C586 0.961 . S
H574 C586 0.959 . S
H575 C589 0.929 . S
H576 C590 0.931 . S
H577 C592 0.930 . S
C578 H566 0.930 . S
C578 C579 1.399 . S
C578 C583 1.399 . S
C579 C578 1.399 . S
C579 C580 1.376 . S
C580 H567 0.930 . S
C580 C579 1.376 . S
C580 C581 1.388 . S
C581 H568 0.930 . S
C581 C580 1.388 . S
C581 C582 1.390 . S
C582 C581 1.390 . S
C582 C583 1.394 . S
C582 C588 1.465 . S
C583 C578 1.399 . S
C583 C582 1.394 . S
C583 C584 1.516 . S
C584 C583 1.516 . S
C584 C585 1.502 . S
C584 C586 1.561 . S
C584 C587 1.526 . S
C585 H569 0.959 . S
C585 H570 0.959 . S
C585 H571 0.961 . S
C585 C584 1.502 . S
C586 H572 0.960 . S
C586 H573 0.961 . S
C586 H574 0.959 . S
C586 C584 1.561 . S
C587 C584 1.526 . S
C587 C588 1.396 . S
C587 C592 1.390 . S
C588 C582 1.465 . S
C588 C587 1.396 . S
C588 C589 1.399 . S
C589 H575 0.929 . S
C589 C588 1.399 . S
C589 C590 1.385 . S
C590 H576 0.931 . S
C590 C589 1.385 . S
C590 C591 1.389 . S
C591 C590 1.389 . S
C591 C592 1.387 . S
C592 H577 0.930 . S
C592 C587 1.390 . S
C592 C591 1.387 . S
H593 C605 0.930 . S
H594 C607 0.930 . S
H595 C608 0.930 . S
H596 C612 0.959 1_565 S
H597 C612 0.959 . S
H598 C612 0.961 . S
H599 C613 0.960 . S
H600 C613 0.961 . S
H601 C613 0.959 . S
H602 C616 0.929 . S
H603 C617 0.931 . S
H604 C619 0.930 1_545 S
C605 H593 0.930 . S
C605 C606 1.399 . S
C605 C610 1.399 . S
C606 C605 1.399 . S
C606 C607 1.376 . S
C607 H594 0.930 . S
C607 C606 1.376 . S
C607 C608 1.388 . S
C608 H595 0.930 . S
C608 C607 1.388 . S
C608 C609 1.390 . S
C609 C608 1.390 . S
C609 C610 1.394 . S
C609 C615 1.465 . S
C610 C605 1.399 . S
C610 C609 1.394 . S
C610 C611 1.516 . S
C611 C610 1.516 . S
C611 C612 1.502 1_565 S
C611 C613 1.561 1_565 S
C611 C614 1.526 . S
C612 H596 0.959 1_545 S
C612 H597 0.959 . S
C612 H598 0.961 . S
C612 C611 1.502 1_545 S
C613 H599 0.960 . S
C613 H600 0.961 . S
C613 H601 0.959 . S
C613 C611 1.561 1_545 S
C614 C611 1.526 . S
C614 C615 1.396 . S
C614 C619 1.390 . S
C615 C609 1.465 . S
C615 C614 1.396 . S
C615 C616 1.399 . S
C616 H602 0.929 . S
C616 C615 1.399 . S
C616 C617 1.385 . S
C617 H603 0.931 . S
C617 C616 1.385 . S
C617 C618 1.389 . S
C618 C617 1.389 . S
C618 C619 1.387 . S
C619 H604 0.930 1_565 S
C619 C614 1.390 . S
C619 C618 1.387 . S
C321 C191 1.635 . S
C309 C119 1.634 . S
C336 C23 1.608 . S
C348 C286 1.574 . S
C363 C55 1.524 . S
C375 C202 1.593 . S
C390 C87 1.488 . S
C402 C275 1.604 . S
C429 C186 1.329 . S
C417 C17 1.549 . S
C456 C279 1.602 . S
C444 C61 1.565 . S
C471 C93 1.540 . S
C483 C195 1.589 . S
C498 C113 1.508 . S
C510 C270 1.386 . S
C537 C281 1.447 . S
C525 C49 1.520 . S
C564 C197 1.353 . S
C552 C81 1.484 . S
C591 C268 1.595 . S
C579 C125 1.602 . S
C606 C29 1.578 . S
C618 C184 1.595 . S
