# Generated by pormake.
# Topology zzz, (3,6)-cn, num edge types: 1
# Building blocks:
#     Node 0, Type 0, BuildingBlock: CUQRIR_clean_linker_1, # of connection points: 3
#     Node 1, Type 0, BuildingBlock: CUQRIR_clean_linker_1, # of connection points: 3
#     Node 2, Type 0, BuildingBlock: CUQRIR_clean_linker_1, # of connection points: 3
#     Node 3, Type 0, BuildingBlock: CUQRIR_clean_linker_1, # of connection points: 3
#     Node 4, Type 0, BuildingBlock: CUQRIR_clean_linker_1, # of connection points: 3
#     Node 5, Type 0, BuildingBlock: CUQRIR_clean_linker_1, # of connection points: 3
#     Node 6, Type 0, BuildingBlock: CUQRIR_clean_linker_1, # of connection points: 3
#     Node 7, Type 0, BuildingBlock: CUQRIR_clean_linker_1, # of connection points: 3
#     Node 8, Type 1, BuildingBlock: BETDEL_clean_sbu_0, # of connection points: 6
#     Node 9, Type 1, BuildingBlock: BETDEL_clean_sbu_0, # of connection points: 6
#     Node 10, Type 1, BuildingBlock: BETDEL_clean_sbu_0, # of connection points: 6
#     Node 11, Type 1, BuildingBlock: BETDEL_clean_sbu_0, # of connection points: 6
#     Edge 12, Type (0, 1), BuildingBlock: ZUJKAS_clean_linker_0, # of connection points: 2
#     Edge 13, Type (0, 1), BuildingBlock: ZUJKAS_clean_linker_0, # of connection points: 2
#     Edge 14, Type (0, 1), BuildingBlock: ZUJKAS_clean_linker_0, # of connection points: 2
#     Edge 15, Type (0, 1), BuildingBlock: ZUJKAS_clean_linker_0, # of connection points: 2
#     Edge 16, Type (0, 1), BuildingBlock: ZUJKAS_clean_linker_0, # of connection points: 2
#     Edge 17, Type (0, 1), BuildingBlock: ZUJKAS_clean_linker_0, # of connection points: 2
#     Edge 18, Type (0, 1), BuildingBlock: ZUJKAS_clean_linker_0, # of connection points: 2
#     Edge 19, Type (0, 1), BuildingBlock: ZUJKAS_clean_linker_0, # of connection points: 2
#     Edge 20, Type (0, 1), BuildingBlock: ZUJKAS_clean_linker_0, # of connection points: 2
#     Edge 21, Type (0, 1), BuildingBlock: ZUJKAS_clean_linker_0, # of connection points: 2
#     Edge 22, Type (0, 1), BuildingBlock: ZUJKAS_clean_linker_0, # of connection points: 2
#     Edge 23, Type (0, 1), BuildingBlock: ZUJKAS_clean_linker_0, # of connection points: 2
#     Edge 24, Type (0, 1), BuildingBlock: ZUJKAS_clean_linker_0, # of connection points: 2
#     Edge 25, Type (0, 1), BuildingBlock: ZUJKAS_clean_linker_0, # of connection points: 2
#     Edge 26, Type (0, 1), BuildingBlock: ZUJKAS_clean_linker_0, # of connection points: 2
#     Edge 27, Type (0, 1), BuildingBlock: ZUJKAS_clean_linker_0, # of connection points: 2
#     Edge 28, Type (0, 1), BuildingBlock: ZUJKAS_clean_linker_0, # of connection points: 2
#     Edge 29, Type (0, 1), BuildingBlock: ZUJKAS_clean_linker_0, # of connection points: 2
#     Edge 30, Type (0, 1), BuildingBlock: ZUJKAS_clean_linker_0, # of connection points: 2
#     Edge 31, Type (0, 1), BuildingBlock: ZUJKAS_clean_linker_0, # of connection points: 2
#     Edge 32, Type (0, 1), BuildingBlock: ZUJKAS_clean_linker_0, # of connection points: 2
#     Edge 33, Type (0, 1), BuildingBlock: ZUJKAS_clean_linker_0, # of connection points: 2
#     Edge 34, Type (0, 1), BuildingBlock: ZUJKAS_clean_linker_0, # of connection points: 2
#     Edge 35, Type (0, 1), BuildingBlock: ZUJKAS_clean_linker_0, # of connection points: 2
# Relax obj value: 0.160
# Max RMSD: 0.187
# Mean RMSD: 0.116
data_MOF--net-zzz--node1-BETDEL_clean_sbu_0--node2-CUQRIR_clean_linker_1--edge1-ZUJKAS_clean_linker_0
_symmetry_space_group_name_H-M    P1
_symmetry_Int_Tables_number       1
_symmetry_cell_setting            triclinic
loop_
_symmetry_equiv_pos_as_xyz
'x, y, z'
_cell_length_a     61.493234
_cell_length_b     62.749801
_cell_length_c     17.548309
_cell_angle_alpha  91.421629
_cell_angle_beta   88.538725
_cell_angle_gamma 94.945906
loop_
_atom_site_label
_atom_site_type_symbol
_atom_site_fract_x
_atom_site_fract_y
_atom_site_fract_z
_atom_type_partial_charge
C0 C 0.73545 0.51591 0.175 0.0
N1 N 0.75613 0.51007 0.17824 0.0
N2 N 0.72571 0.50775 0.11066 0.0
C3 C 0.72513 0.53015 0.23269 0.0
C4 C 0.74137 0.49707 0.07462 0.0
N5 N 0.75978 0.49846 0.11562 0.0
C6 C 0.739 0.48647 0.99704 0.0
H7 H 0.73152 0.52787 0.29025 0.0
H8 H 0.7071 0.52693 0.2335 0.0
H9 H 0.7293 0.54705 0.21701 0.0
H10 H 0.73674 0.49879 0.95434 0.0
H11 H 0.72426 0.47497 0.9966 0.0
H12 H 0.75337 0.47775 0.98024 0.0
C13 C 1.00345 0.74 0.1446 0.0
N14 N 0.00677 0.76158 0.14207 0.0
N15 N 0.00994 0.73094 0.07758 0.0
C16 C 0.99432 0.72784 0.21238 0.0
C17 C 0.01706 0.74786 0.0343 0.0
N18 N 0.01522 0.76638 0.07369 0.0
C19 C 0.02409 0.74635 0.95171 0.0
H20 H 0.99862 0.73675 0.26609 0.0
H21 H 1.00042 0.71171 0.21297 0.0
H22 H 0.97626 0.72592 0.209 0.0
H23 H 0.01534 0.73232 0.92286 0.0
H24 H 0.04184 0.74439 0.94827 0.0
H25 H 0.0211 0.76106 0.92119 0.0
C26 C 0.77094 0.99939 0.18333 0.0
N27 N 0.74911 0.99984 0.17435 0.0
N28 N 0.78139 0.9981 0.11431 0.0
C29 C 0.78202 1.00169 0.25857 0.0
C30 C 0.76513 0.99759 0.06364 0.0
N31 N 0.74567 0.99871 0.09989 0.0
C32 C 0.76826 0.99551 0.97849 0.0
H33 H 0.77451 0.0139 0.29505 0.0
H34 H 0.79978 0.00614 0.25109 0.0
H35 H 0.77959 0.98622 0.28816 0.0
H36 H 0.78246 0.98629 0.96379 0.0
H37 H 0.77142 0.01171 0.95448 0.0
H38 H 0.75343 0.98752 0.95199 0.0
C39 C 0.50897 0.76873 0.14748 0.0
N40 N 0.50292 0.74761 0.1562 0.0
N41 N 0.5008 0.77576 0.08227 0.0
C42 C 0.52402 0.78205 0.19923 0.0
C43 C 0.48958 0.75813 0.05213 0.0
N44 N 0.49088 0.74111 0.09692 0.0
C45 C 0.47685 0.75765 0.97997 0.0
H46 H 0.5141 0.79155 0.23883 0.0
H47 H 0.53506 0.79339 0.16562 0.0
H48 H 0.5338 0.77189 0.23336 0.0
H49 H 0.48775 0.75403 0.93087 0.0
H50 H 0.47047 0.77338 0.97091 0.0
H51 H 0.46306 0.74503 0.9819 0.0
C52 C 0.27721 0.50654 0.9933 0.0
N53 N 0.2551 0.50629 0.99666 0.0
N54 N 0.28545 0.50768 0.06483 0.0
C55 C 0.29072 0.50628 0.92108 0.0
C56 C 0.26751 0.50796 0.11121 0.0
N57 N 0.24931 0.50717 0.06982 0.0
C58 C 0.26771 0.50835 0.1969 0.0
H59 H 0.2941 0.48953 0.90694 0.0
H60 H 0.30659 0.51586 0.92868 0.0
H61 H 0.28191 0.5125 0.87309 0.0
H62 H 0.27007 0.52521 0.21766 0.0
H63 H 0.28135 0.49969 0.21744 0.0
H64 H 0.25203 0.50111 0.22118 0.0
C65 C 0.01739 0.27235 0.01156 0.0
N66 N 0.01446 0.25073 0.01447 0.0
N67 N 0.01652 0.28115 0.08289 0.0
C68 C 0.02148 0.28468 0.93975 0.0
C69 C 0.01284 0.26417 0.12894 0.0
N70 N 0.01158 0.24574 0.08734 0.0
C71 C 0.01135 0.26579 0.21454 0.0
H72 H 0.03905 0.28486 0.92353 0.0
H73 H 0.01729 0.30145 0.94787 0.0
H74 H 0.01192 0.27678 0.89254 0.0
H75 H 1.00093 0.2787 0.23242 0.0
H76 H 0.02791 0.27016 0.23677 0.0
H77 H 1.00478 0.25054 0.24023 0.0
C78 C 0.23901 0.00536 0.97297 0.0
N79 N 0.25977 0.99956 0.97226 0.0
N80 N 0.22804 0.99863 0.03757 0.0
C81 C 0.22933 0.01685 0.90979 0.0
C82 C 0.24307 0.98885 0.0762 0.0
N83 N 0.26213 0.98923 0.03618 0.0
C84 C 0.23997 0.98106 0.15664 0.0
H85 H 0.23207 0.03434 0.92097 0.0
H86 H 0.21149 0.01248 0.90692 0.0
H87 H 0.23732 0.01309 0.85423 0.0
H88 H 0.23393 0.96389 0.15489 0.0
H89 H 0.22794 0.99012 0.18913 0.0
H90 H 0.25561 0.98268 0.18725 0.0
C91 C 0.50279 0.24303 0.98869 0.0
N92 N 0.50498 0.26473 0.99033 0.0
N93 N 0.50885 0.23534 0.05609 0.0
C94 C 0.49448 0.22944 0.92238 0.0
C95 C 0.51458 0.25318 0.09858 0.0
N96 N 0.5123 0.2709 0.05849 0.0
C97 C 0.52225 0.2532 0.17939 0.0
H98 H 0.47647 0.22655 0.92842 0.0
H99 H 0.50156 0.21375 0.92132 0.0
H100 H 0.49839 0.23769 0.86789 0.0
H101 H 0.53982 0.2504 0.17858 0.0
H102 H 0.51315 0.24011 0.21146 0.0
H103 H 0.52032 0.26867 0.20956 0.0
Dy104 Dy 0.01594 0.99695 0.64952 0.0
C105 C 0.98993 0.03841 0.38607 0.0
C106 C 0.02142 0.97324 0.77469 0.0
Dy107 Dy 0.99591 0.01483 0.51138 0.0
O108 O 0.03719 0.98252 0.73361 0.0
O109 O 1.00277 0.97734 0.74816 0.0
O110 O 0.04948 0.00912 0.60904 0.0
O111 O 0.02559 0.99924 0.52906 0.0
C112 C 0.04478 0.00782 0.53713 0.0
C113 C 0.96736 1.00366 0.6245 0.0
O114 O 0.99415 0.98079 0.46987 0.0
O115 O 1.00256 0.96705 0.58616 0.0
O116 O 0.975 0.03325 0.43757 0.0
O117 O 0.00787 0.03029 0.40246 0.0
O118 O 0.96255 1.00206 0.55266 0.0
O119 O 0.9864 0.01259 0.63179 0.0
O120 O 0.01599 0.03093 0.69134 0.0
O121 O 0.01116 0.04441 0.57176 0.0
C122 C 0.9962 0.96436 0.51451 0.0
C123 C 0.01581 0.04728 0.64496 0.0
Dy124 Dy 0.48846 0.99302 0.51036 0.0
C125 C 0.55006 0.03279 0.73152 0.0
C126 C 0.45158 0.97874 0.43713 0.0
Dy127 Dy 0.51783 0.01949 0.63396 0.0
O128 O 0.46917 0.96856 0.43749 0.0
O129 O 0.45424 0.99653 0.47655 0.0
O130 O 0.51631 0.98582 0.42754 0.0
O131 O 0.52209 1.00239 0.5288 0.0
C132 C 0.53143 0.99521 0.4705 0.0
C133 C 0.47445 0.02146 0.64852 0.0
O134 O 0.51839 0.04341 0.54098 0.0
O135 O 0.48957 0.02697 0.47049 0.0
O136 O 0.53074 0.02454 0.75186 0.0
O137 O 0.55155 0.03429 0.65777 0.0
O138 O 0.48863 0.03692 0.67021 0.0
O139 O 0.48428 0.00547 0.6267 0.0
O140 O 0.49129 0.96768 0.59654 0.0
O141 O 0.51948 0.98517 0.66734 0.0
C142 C 0.50406 0.04345 0.48549 0.0
C143 C 0.50615 0.96793 0.65043 0.0
Dy144 Dy 0.49605 0.51765 0.66458 0.0
C145 C 0.52507 0.478 0.37928 0.0
C146 C 0.49337 0.53803 0.80243 0.0
Dy147 Dy 0.51703 0.50034 0.51058 0.0
O148 O 0.47875 0.52358 0.77655 0.0
O149 O 0.50951 0.54096 0.75344 0.0
O150 O 0.46114 0.51781 0.62426 0.0
O151 O 0.4857 0.5086 0.55189 0.0
C152 C 0.46572 0.51145 0.55502 0.0
C153 C 0.54497 0.51499 0.61947 0.0
O154 O 0.51244 0.53375 0.47727 0.0
O155 O 0.50742 0.54763 0.60054 0.0
O156 O 0.53937 0.48341 0.431 0.0
O157 O 0.50648 0.48509 0.39893 0.0
O158 O 0.5493 0.51659 0.54667 0.0
O159 O 0.52663 0.50462 0.62949 0.0
O160 O 0.49689 0.48303 0.69326 0.0
O161 O 0.506 0.46986 0.57181 0.0
C162 C 0.51071 0.55013 0.52584 0.0
C163 C 0.50004 0.46691 0.64458 0.0
Dy164 Dy 0.99425 0.49608 0.65726 0.0
C165 C 0.03781 0.51027 0.36526 0.0
C166 C 0.96688 0.48634 0.77788 0.0
Dy167 Dy 0.01653 0.5133 0.50173 0.0
O168 O 0.96617 0.47678 0.71154 0.0
O169 O 0.98294 0.5013 0.77929 0.0
O170 O 0.0065 0.46407 0.62732 0.0
O171 O 0.99836 0.48414 0.54065 0.0
C172 C 0.00621 0.46677 0.55415 0.0
C173 C 0.01264 0.5454 0.60523 0.0
O174 O 0.98129 0.51154 0.47102 0.0
O175 O 0.96678 0.50977 0.59543 0.0
O176 O 0.02802 0.52691 0.38874 0.0
O177 O 0.03602 0.49559 0.4164 0.0
O178 O 0.02095 0.54857 0.53693 0.0
O179 O 0.0073 0.52576 0.61087 0.0
O180 O 0.02905 0.5019 0.694 0.0
O181 O 0.04493 0.50514 0.57176 0.0
C182 C 0.96467 0.51215 0.52075 0.0
C183 C 0.04644 0.50326 0.64691 0.0
H184 H 0.19856 0.968 0.08973 0.0
H185 H 0.16426 0.97318 0.15699 0.0
H186 H 0.17203 0.04039 0.10558 0.0
H187 H 0.20767 0.03537 0.04453 0.0
H188 H 0.16075 0.03813 0.24197 0.0
H189 H 0.10431 0.97812 0.10124 0.0
H190 H 0.12648 0.96453 0.13461 0.0
H191 H 0.13148 0.98477 0.06319 0.0
C192 C 0.19281 0.98383 0.09223 0.0
C193 C 0.20584 1.00129 0.06251 0.0
C194 C 0.17295 0.98676 0.12969 0.0
C195 C 0.16507 0.00713 0.13555 0.0
C196 C 0.17758 0.02447 0.10192 0.0
H197 H 0.03847 0.00525 0.38298 0.0
H198 H 0.06616 0.00901 0.28056 0.0
C199 C 0.19783 0.0216 0.06613 0.0
C200 C 0.14512 0.0105 0.18355 0.0
H201 H 0.09496 0.9867 0.23422 0.0
C202 C 0.14619 0.02711 0.23898 0.0
C203 C 0.12568 0.99667 0.17919 0.0
C204 C 0.12187 0.98023 0.1156 0.0
C205 C 0.12907 0.02947 0.29238 0.0
C206 C 0.11077 0.01407 0.2936 0.0
C207 C 0.10912 0.99825 0.23533 0.0
C208 C 0.09366 0.01352 0.35594 0.0
C209 C 0.13085 0.04866 0.34616 0.0
C210 C 0.0996 0.01475 0.43295 0.0
C211 C 0.08368 0.01354 0.49145 0.0
C212 C 0.06142 0.01022 0.47459 0.0
C213 C 0.05543 0.00837 0.39783 0.0
C214 C 0.07133 0.01029 0.33916 0.0
H215 H 0.14015 0.06253 0.31889 0.0
H216 H 0.11456 0.05351 0.36461 0.0
H217 H 0.13994 0.0448 0.39717 0.0
H218 H 0.1166 0.01623 0.44821 0.0
H219 H 0.08887 0.01463 0.55004 0.0
H220 H 0.47406 0.20601 0.06551 0.0
H221 H 0.47272 0.17141 0.12999 0.0
H222 H 0.54173 0.18169 0.17013 0.0
H223 H 0.54308 0.21595 0.10474 0.0
H224 H 0.50407 0.13316 0.10655 0.0
H225 H 0.50541 0.17685 0.38668 0.0
H226 H 0.49567 0.18819 0.30158 0.0
H227 H 0.52438 0.18672 0.31323 0.0
C228 C 0.48898 0.20049 0.08623 0.0
C229 C 0.50866 0.21355 0.08054 0.0
C230 C 0.48821 0.18086 0.12338 0.0
C231 C 0.5071 0.17413 0.15551 0.0
C232 C 0.52696 0.18666 0.1462 0.0
H233 H 0.53454 0.07814 0.48005 0.0
H234 H 0.53511 0.10911 0.39774 0.0
C235 C 0.52773 0.20616 0.10889 0.0
C236 C 0.50595 0.15484 0.20337 0.0
H237 H 0.50718 0.13953 0.3886 0.0
C238 C 0.50462 0.13447 0.16822 0.0
C239 C 0.50686 0.15667 0.28371 0.0
C240 C 0.50804 0.17824 0.32407 0.0
C241 C 0.5046 0.11584 0.2114 0.0
C242 C 0.50536 0.11762 0.29209 0.0
C243 C 0.50659 0.13808 0.32696 0.0
C244 C 0.50501 0.09856 0.34152 0.0
C245 C 0.50446 0.09448 0.16989 0.0
C246 C 0.48775 0.0824 0.33849 0.0
C247 C 0.48745 0.06458 0.3852 0.0
C248 C 0.50426 0.06263 0.43699 0.0
C249 C 0.52131 0.07906 0.44101 0.0
C250 C 0.52167 0.0968 0.39383 0.0
H251 H 0.51039 0.09626 0.10985 0.0
H252 H 0.51478 0.0836 0.19871 0.0
H253 H 0.48749 0.08687 0.16894 0.0
H254 H 0.47436 0.08361 0.3004 0.0
H255 H 0.47392 0.05241 0.38092 0.0
H256 H 0.3065 0.5395 0.14609 0.0
H257 H 0.34138 0.53851 0.20974 0.0
H258 H 0.34943 0.47668 0.10498 0.0
H259 H 0.31413 0.47768 0.0421 0.0
H260 H 0.35457 0.47649 0.25826 0.0
H261 H 0.4049 0.54601 0.14268 0.0
H262 H 0.37885 0.55327 0.1779 0.0
H263 H 0.38021 0.53483 0.09796 0.0
C264 C 0.31606 0.526 0.13519 0.0
C265 C 0.3078 0.50875 0.08888 0.0
C266 C 0.33604 0.52544 0.1713 0.0
C267 C 0.3483 0.50763 0.16165 0.0
C268 C 0.34041 0.49068 0.11296 0.0
H269 H 0.47375 0.50832 0.40007 0.0
H270 H 0.44673 0.50515 0.29843 0.0
C271 C 0.32038 0.49129 0.07655 0.0
C272 C 0.36802 0.50593 0.20855 0.0
H273 H 0.41581 0.53335 0.26363 0.0
C274 C 0.36811 0.48876 0.25844 0.0
C275 C 0.38593 0.52175 0.20858 0.0
C276 C 0.38761 0.53988 0.1533 0.0
C277 C 0.38493 0.48758 0.31074 0.0
C278 C 0.40204 0.50418 0.31439 0.0
C279 C 0.40259 0.52075 0.26175 0.0
C280 C 0.41865 0.50527 0.37537 0.0
C281 C 0.38407 0.46862 0.36225 0.0
C282 C 0.41199 0.50661 0.45236 0.0
C283 C 0.42736 0.50829 0.51013 0.0
C284 C 0.44981 0.50867 0.4925 0.0
C285 C 0.45657 0.50747 0.41549 0.0
C286 C 0.44113 0.50587 0.35739 0.0
H287 H 0.37438 0.45453 0.33708 0.0
H288 H 0.40071 0.46406 0.37372 0.0
H289 H 0.37611 0.4728 0.41743 0.0
H290 H 0.39483 0.50672 0.46788 0.0
H291 H 0.42162 0.50944 0.56885 0.0
H292 H 0.987 0.30968 0.06555 0.0
H293 H 0.98695 0.34509 0.12924 0.0
H294 H 0.04982 0.33691 0.22273 0.0
H295 H 0.04974 0.30163 0.15871 0.0
H296 H 0.98847 0.34942 0.28883 0.0
H297 H 0.05661 0.39946 0.15189 0.0
H298 H 0.04399 0.37542 0.1071 0.0
H299 H 0.06364 0.37365 0.18025 0.0
C300 C 1.00106 0.3159 0.09764 0.0
C301 C 0.0185 0.30329 0.10678 0.0
C302 C 1.001 0.33597 0.13429 0.0
C303 C 0.0185 0.34376 0.1801 0.0
C304 C 0.03637 0.33146 0.18646 0.0
H305 H 0.02096 0.42774 0.57625 0.0
H306 H 0.02437 0.39873 0.48162 0.0
C307 C 0.03634 0.31136 0.15015 0.0
C308 C 0.01692 0.36336 0.22843 0.0
H309 H 0.0426 0.41259 0.27083 0.0
C310 C 1.00018 0.36331 0.28434 0.0
C311 C 0.03219 0.38148 0.22247 0.0
C312 C 0.05003 0.38268 0.16177 0.0
C313 C 0.99866 0.38063 0.33582 0.0
C314 C 0.01436 0.39841 0.3316 0.0
C315 C 0.03073 0.39881 0.27432 0.0
C316 C 0.01398 0.41656 0.38716 0.0
C317 C 0.98034 0.37977 0.3948 0.0
C318 C 0.00742 0.4363 0.36493 0.0
C319 C 1.00528 0.45283 0.41898 0.0
C320 C 0.00997 0.44995 0.49591 0.0
C321 C 0.01722 0.4304 0.51744 0.0
C322 C 0.01917 0.41383 0.46352 0.0
H323 H 0.96735 0.36687 0.38166 0.0
H324 H 0.98695 0.37671 0.45139 0.0
H325 H 0.97293 0.3953 0.39889 0.0
H326 H 1.00331 0.43869 0.30625 0.0
H327 H 0.99948 0.46767 0.40084 0.0
H328 H 0.80308 0.02987 0.03756 0.0
H329 H 0.83895 0.02899 0.9749 0.0
H330 H 0.84773 0.96962 0.08458 0.0
H331 H 0.81106 0.97016 0.14457 0.0
H332 H 0.88 0.02827 0.01135 0.0
H333 H 0.85322 0.95118 0.86556 0.0
H334 H 0.83471 0.96617 0.92209 0.0
H335 H 0.85327 0.95014 0.96762 0.0
C336 C 0.81293 0.0169 0.04935 0.0
C337 C 0.80439 1.00001 0.09513 0.0
C338 C 0.83341 0.01635 0.01353 0.0
C339 C 0.8459 0.99893 0.0231 0.0
C340 C 0.83816 0.98291 0.07435 0.0
H341 H 0.97411 0.00794 0.77804 0.0
H342 H 0.94663 0.00481 0.88169 0.0
C343 C 0.81743 0.98336 0.10963 0.0
C344 C 0.86605 0.99718 0.97482 0.0
H345 H 0.88822 0.96666 0.83372 0.0
C346 C 0.88191 0.0147 0.97298 0.0
C347 C 0.86843 0.97961 0.92379 0.0
C348 C 0.85144 0.96078 0.91908 0.0
C349 C 0.89955 0.01552 0.92012 0.0
C350 C 0.90192 0.99795 0.86913 0.0
C351 C 0.8865 0.9801 0.87286 0.0
C352 C 0.91912 0.9984 0.80737 0.0
C353 C 0.9147 0.03575 0.91683 0.0
C354 C 0.91308 0.9948 0.73107 0.0
C355 C 0.92883 0.99598 0.67201 0.0
C356 C 0.95099 1.00097 0.68776 0.0
C357 C 0.95715 1.00412 0.76411 0.0
C358 C 0.9414 1.00258 0.8234 0.0
H359 H 0.90731 0.04953 0.94502 0.0
H360 H 0.92991 0.03332 0.94695 0.0
H361 H 0.9191 0.03995 0.85698 0.0
H362 H 0.89606 0.99147 0.71693 0.0
H363 H 0.92357 0.99344 0.6138 0.0
H364 H 0.49235 0.81436 0.14289 0.0
H365 H 0.49547 0.84872 0.07681 0.0
H366 H 0.52075 0.8175 0.8757 0.0
H367 H 0.51827 0.78353 0.94259 0.0
H368 H 0.54247 0.85654 0.90174 0.0
H369 H 0.45296 0.86304 0.91574 0.0
H370 H 0.46525 0.86122 0.0068 0.0
H371 H 0.46498 0.83897 0.9402 0.0
C372 C 0.49888 0.81505 0.08505 0.0
C373 C 0.50484 0.79636 0.04734 0.0
C374 C 0.50043 0.83456 0.047 0.0
C375 C 0.50787 0.83564 0.97052 0.0
C376 C 0.51479 0.8171 0.93432 0.0
H377 H 0.48348 0.92852 0.63158 0.0
H378 H 0.48483 0.89695 0.70979 0.0
C379 C 0.51329 0.79769 0.97233 0.0
C380 C 0.50797 0.85576 0.92691 0.0
H381 H 0.47468 0.89171 0.86021 0.0
C382 C 0.52766 0.86429 0.89293 0.0
C383 C 0.48858 0.86568 0.9142 0.0
C384 C 0.46669 0.8567 0.94547 0.0
C385 C 0.52851 0.88239 0.84678 0.0
C386 C 0.50919 0.89255 0.83528 0.0
C387 C 0.48951 0.88403 0.86931 0.0
C388 C 0.5089 0.91174 0.78685 0.0
C389 C 0.54998 0.89003 0.80888 0.0
C390 C 0.5219 0.93067 0.80407 0.0
C391 C 0.52128 0.94874 0.75909 0.0
C392 C 0.50745 0.94839 0.69618 0.0
C393 C 0.49438 0.92942 0.67928 0.0
C394 C 0.49508 0.91133 0.72415 0.0
H395 H 0.5615 0.87731 0.80611 0.0
H396 H 0.54755 0.8954 0.75011 0.0
H397 H 0.55769 0.90376 0.84233 0.0
H398 H 0.53232 0.93161 0.85307 0.0
H399 H 0.53144 0.96308 0.77449 0.0
H400 H 0.6923 0.47797 0.08773 0.0
H401 H 0.65949 0.48197 0.01414 0.0
H402 H 0.67921 0.54912 0.98978 0.0
H403 H 0.71213 0.54497 0.06362 0.0
H404 H 0.63191 0.53827 0.01688 0.0
H405 H 0.66713 0.49092 0.7799 0.0
H406 H 0.66562 0.47823 0.87079 0.0
H407 H 0.68326 0.50228 0.8578 0.0
C408 C 0.68931 0.49363 0.06786 0.0
C409 C 0.70464 0.51115 0.08096 0.0
C410 C 0.67068 0.49591 0.02559 0.0
C411 C 0.66704 0.51578 0.99534 0.0
C412 C 0.68169 0.53363 0.01237 0.0
H413 H 0.58714 0.53179 0.60154 0.0
H414 H 0.61607 0.53392 0.69543 0.0
C415 C 0.70039 0.53131 0.05475 0.0
C416 C 0.64891 0.51745 0.94147 0.0
H417 H 0.63086 0.49979 0.7664 0.0
C418 C 0.63166 0.5299 0.96205 0.0
C419 C 0.64873 0.50678 0.86941 0.0
C420 C 0.66724 0.49394 0.84255 0.0
C421 C 0.61405 0.53158 0.91312 0.0
C422 C 0.61359 0.52038 0.84194 0.0
C423 C 0.63107 0.50828 0.82102 0.0
C424 C 0.59534 0.521 0.78764 0.0
C425 C 0.59627 0.54557 0.93752 0.0
C426 C 0.57389 0.51324 0.80808 0.0
C427 C 0.55727 0.51202 0.75431 0.0
C428 C 0.5618 0.51843 0.67887 0.0
C429 C 0.58311 0.52673 0.65914 0.0
C430 C 0.59969 0.52793 0.71279 0.0
H431 H 0.60174 0.55728 0.98308 0.0
H432 H 0.59077 0.55442 0.88852 0.0
H433 H 0.58205 0.53538 0.96027 0.0
H434 H 0.57014 0.50742 0.86489 0.0
H435 H 0.54105 0.50545 0.77119 0.0
H436 H 0.97373 0.70343 0.0732 0.0
H437 H 0.97068 0.66751 0.01264 0.0
H438 H 0.04003 0.67338 0.96373 0.0
H439 H 0.04299 0.70892 0.02551 0.0
H440 H 0.98015 0.65981 0.86302 0.0
H441 H 0.03108 0.61261 0.0379 0.0
H442 H 0.02147 0.63766 0.07143 0.0
H443 H 0.04539 0.63743 0.01012 0.0
C444 C 0.98833 0.69664 0.05161 0.0
C445 C 0.0086 0.70872 0.0541 0.0
C446 C 0.9866 0.67625 0.01665 0.0
C447 C 1.00517 0.66759 0.98433 0.0
C448 C 0.02555 0.67942 0.98967 0.0
H449 H 0.022 0.58816 0.59096 0.0
H450 H 0.01789 0.61639 0.68748 0.0
C451 C 0.02724 0.69975 0.02445 0.0
C452 C 1.00308 0.64743 0.93769 0.0
H453 H 0.02505 0.59958 0.90875 0.0
C454 C 0.98969 0.64649 0.87382 0.0
C455 C 0.01531 0.6299 0.95204 0.0
C456 C 0.02894 0.62932 0.02208 0.0
C457 C 0.98911 0.62907 0.82187 0.0
C458 C 1.00253 0.61227 0.83335 0.0
C459 C 0.01499 0.61261 0.89938 0.0
C460 C 1.00479 0.59493 0.7752 0.0
C461 C 0.97434 0.62896 0.7545 0.0
C462 C 0.99929 0.57339 0.79289 0.0
C463 C 1.0017 0.55718 0.73762 0.0
C464 C 0.00983 0.56226 0.66414 0.0
C465 C 0.01555 0.58378 0.64697 0.0
C466 C 0.0131 0.59994 0.70196 0.0
H467 H 0.96067 0.63918 0.76581 0.0
H468 H 0.98388 0.63541 0.70439 0.0
H469 H 0.96744 0.61248 0.73974 0.0
H470 H 0.99302 0.56914 0.84924 0.0
H471 H 0.99732 0.54073 0.75242 0.0
H472 H 0.97622 0.22646 0.15825 0.0
H473 H 0.97114 0.18884 0.19674 0.0
H474 H 0.03598 0.17911 0.1105 0.0
H475 H 0.04112 0.2168 0.07428 0.0
H476 H 0.97377 0.15122 0.10382 0.0
H477 H 0.0357 0.158 0.33023 0.0
H478 H 0.02502 0.18107 0.29029 0.0
H479 H 0.04563 0.16749 0.23901 0.0
C480 C 0.98942 0.21625 0.1492 0.0
C481 C 0.00918 0.22432 0.11505 0.0
C482 C 0.98648 0.19485 0.17021 0.0
C483 C 1.00329 0.18133 0.15718 0.0
C484 C 0.02297 0.1894 0.12228 0.0
H485 H 0.02116 0.05202 0.28213 0.0
H486 H 0.02291 0.08529 0.21171 0.0
C487 C 0.02592 0.2108 0.10168 0.0
C488 C 1.00033 0.15878 0.18036 0.0
H489 H 0.02044 0.1232 0.29803 0.0
C490 C 0.98392 0.14504 0.14635 0.0
C491 C 0.01363 0.15086 0.23579 0.0
C492 C 0.03086 0.16513 0.27654 0.0
C493 C 0.98063 0.12341 0.16593 0.0
C494 C 0.99397 0.11553 0.22127 0.0
C495 C 0.01039 0.12928 0.25496 0.0
C496 C 0.99074 0.09337 0.24859 0.0
C497 C 0.96313 0.10911 0.12684 0.0
C498 C 0.97173 0.08656 0.29023 0.0
C499 C 0.97067 0.06752 0.33039 0.0
C500 C 0.98869 0.05522 0.32981 0.0
C501 C 0.00705 0.06125 0.28354 0.0
C502 C 0.00808 0.08024 0.24339 0.0
H503 H 0.95821 0.11603 0.07286 0.0
H504 H 0.96876 0.09302 0.11417 0.0
H505 H 0.9485 0.1071 0.16514 0.0
H506 H 0.95832 0.09665 0.29596 0.0
H507 H 0.95638 0.06324 0.36595 0.0
H508 H 0.29942 0.0137 0.05939 0.0
H509 H 0.33302 1.00243 0.11165 0.0
H510 H 0.30337 0.93768 0.12509 0.0
H511 H 0.26962 0.94918 0.07258 0.0
H512 H 0.32063 0.95217 0.25841 0.0
H513 H 0.38174 0.96884 0.02677 0.0
H514 H 0.36671 0.99164 0.04707 0.0
H515 H 0.35271 0.96721 0.01095 0.0
C516 C 0.30038 0.997 0.07187 0.0
C517 C 0.28225 0.98219 0.06183 0.0
C518 C 0.31953 0.99053 0.10126 0.0
C519 C 0.32084 0.96911 0.12072 0.0
C520 C 0.30276 0.95421 0.10955 0.0
H521 H 0.44607 0.94715 0.32737 0.0
H522 H 0.41378 0.93893 0.24836 0.0
C523 C 0.28357 0.96073 0.08006 0.0
C524 C 0.34015 0.96309 0.16091 0.0
H525 H 0.39579 0.96957 0.15563 0.0
C526 C 0.33707 0.95544 0.23522 0.0
C527 C 0.36157 0.96705 0.13025 0.0
C528 C 0.36587 0.97392 0.04904 0.0
C529 C 0.35486 0.95337 0.28192 0.0
C530 C 0.37617 0.95933 0.25368 0.0
C531 C 0.37937 0.96524 0.17736 0.0
C532 C 0.39487 0.96245 0.30502 0.0
C533 C 0.35066 0.94572 0.3622 0.0
C534 C 0.39479 0.97833 0.36264 0.0
C535 C 0.4131 0.98311 0.40699 0.0
C536 C 0.4318 0.97209 0.39447 0.0
C537 C 0.43175 0.95578 0.33818 0.0
C538 C 0.41341 0.9511 0.29314 0.0
H539 H 0.33504 0.93548 0.36695 0.0
H540 H 0.36413 0.93657 0.3813 0.0
H541 H 0.34946 0.95976 0.40131 0.0
H542 H 0.38079 0.98753 0.37167 0.0
H543 H 0.41275 0.99577 0.45005 0.0
H544 H 0.48899 0.29142 0.16342 0.0
H545 H 0.49425 0.32952 0.20046 0.0
H546 H 0.54942 0.33755 0.04359 0.0
H547 H 0.54397 0.29937 0.00685 0.0
H548 H 0.53117 0.35066 0.2638 0.0
H549 H 0.51175 0.38582 0.98873 0.0
H550 H 0.50587 0.35776 0.00804 0.0
H551 H 0.53321 0.36812 0.98318 0.0
C552 C 0.50232 0.30141 0.13788 0.0
C553 C 0.51634 0.29275 0.08363 0.0
C554 C 0.50524 0.32306 0.15834 0.0
C555 C 0.52209 0.33633 0.12413 0.0
C556 C 0.53614 0.32762 0.06974 0.0
H557 H 0.56213 0.45919 0.34005 0.0
H558 H 0.56429 0.42627 0.26327 0.0
C559 C 0.5332 0.30593 0.0494 0.0
C560 C 0.5254 0.35905 0.14835 0.0
H561 H 0.52407 0.41019 0.08753 0.0
C562 C 0.52974 0.36369 0.22524 0.0
C563 C 0.52336 0.37592 0.09772 0.0
C564 C 0.51809 0.37173 0.01494 0.0
C565 C 0.53181 0.3848 0.25345 0.0
C566 C 0.52995 0.40172 0.20285 0.0
C567 C 0.52579 0.39714 0.12568 0.0
C568 C 0.53039 0.42405 0.23154 0.0
C569 C 0.53513 0.38875 0.3378 0.0
C570 C 0.51101 0.43432 0.23449 0.0
C571 C 0.50978 0.45317 0.27775 0.0
C572 C 0.52792 0.46185 0.3186 0.0
C573 C 0.54788 0.45268 0.30952 0.0
C574 C 0.54912 0.43389 0.26592 0.0
H575 H 0.53192 0.37387 0.37078 0.0
H576 H 0.55228 0.39511 0.34719 0.0
H577 H 0.52428 0.40075 0.36078 0.0
H578 H 0.49642 0.42696 0.20801 0.0
H579 H 0.49423 0.46002 0.28358 0.0
H580 H 0.22111 0.47246 0.07739 0.0
H581 H 0.18173 0.47176 0.10714 0.0
H582 H 0.1885 0.54012 0.14728 0.0
H583 H 0.228 0.54056 0.11885 0.0
H584 H 0.16193 0.48779 0.24681 0.0
H585 H 0.1388 0.5269 0.98497 0.0
H586 H 0.16576 0.51841 0.99762 0.0
H587 H 0.15843 0.54316 0.04007 0.0
C588 C 0.21407 0.48715 0.0942 0.0
C589 C 0.22719 0.50649 0.09746 0.0
C590 C 0.19174 0.48682 0.11025 0.0
C591 C 0.1823 0.50594 0.12792 0.0
C592 C 0.19554 0.52528 0.13252 0.0
H593 H 0.06097 0.54391 0.29811 0.0
H594 H 0.09464 0.54166 0.22179 0.0
C595 C 0.21796 0.52552 0.11755 0.0
C596 C 0.15873 0.5055 0.14503 0.0
H597 H 0.11119 0.52327 0.08561 0.0
C598 C 0.15074 0.49531 0.21127 0.0
C599 C 0.14438 0.51547 0.09831 0.0
C600 C 0.15224 0.52643 0.02588 0.0
C601 C 0.1288 0.49545 0.234 0.0
C602 C 0.11434 0.50545 0.18755 0.0
C603 C 0.12227 0.51538 0.12041 0.0
C604 C 0.09139 0.50708 0.21208 0.0
C605 C 0.12159 0.48572 0.30944 0.0
C606 C 0.07774 0.48849 0.22676 0.0
C607 C 0.05883 0.48972 0.27154 0.0
C608 C 0.05309 0.50961 0.30003 0.0
C609 C 0.06514 0.52841 0.27664 0.0
C610 C 0.08436 0.52713 0.23316 0.0
H611 H 0.13567 0.48326 0.34571 0.0
H612 H 0.1106 0.49603 0.34169 0.0
H613 H 0.11255 0.46989 0.29893 0.0
H614 H 0.08269 0.47291 0.20934 0.0
H615 H 0.04957 0.47504 0.28844 0.0
H616 H 0.98382 0.79251 0.05477 0.0
H617 H 0.98843 0.82954 0.01186 0.0
H618 H 0.05784 0.82502 0.98467 0.0
H619 H 0.05307 0.78781 0.02891 0.0
H620 H 0.04551 0.86332 0.06293 0.0
H621 H 1.0025 0.84756 0.79076 0.0
H622 H 0.9871 0.83736 0.87224 0.0
H623 H 0.01239 0.82652 0.84527 0.0
C624 C 0.99999 0.79951 0.03927 0.0
C625 C 0.0181 0.78761 0.04444 0.0
C626 C 1.00262 0.82051 0.01456 0.0
C627 C 0.02344 0.82986 0.99435 0.0
C628 C 0.04165 0.81799 0.99982 0.0
H629 H 0.05895 0.95609 0.81172 0.0
H630 H 0.06142 0.92233 0.87702 0.0
C631 C 0.03896 0.79686 0.0244 0.0
C632 C 0.02589 0.85209 0.96774 0.0
H633 H 0.0082 0.88402 0.83209 0.0
C634 C 0.03753 0.8679 0.01217 0.0
C635 C 0.0156 0.85788 0.90117 0.0
C636 C 1.00387 0.84142 0.84914 0.0
C637 C 0.03825 0.8896 0.99346 0.0
C638 C 0.02731 0.8954 0.92831 0.0
C639 C 0.01631 0.87949 0.8827 0.0
C640 C 0.02689 0.91782 0.90519 0.0
C641 C 0.05005 0.90623 0.04449 0.0
C642 C 0.00679 0.9267 0.90163 0.0
C643 C 1.00534 0.94586 0.86428 0.0
C644 C 0.02396 0.95634 0.82959 0.0
C645 C 0.04437 0.94833 0.83828 0.0
C646 C 0.04582 0.92909 0.87568 0.0
H647 H 0.05419 0.89954 0.0998 0.0
H648 H 0.06542 0.91256 0.01549 0.0
H649 H 0.03993 0.91985 0.05574 0.0
H650 H 0.99202 0.91816 0.92397 0.0
H651 H 0.98942 0.95174 0.85846 0.0
H652 H 0.73746 0.02972 0.00537 0.0
H653 H 0.70206 0.03583 0.95211 0.0
H654 H 0.6723 0.98024 0.06642 0.0
H655 H 0.70797 0.97392 0.11884 0.0
H656 H 0.66983 0.99378 0.87283 0.0
H657 H 0.64102 0.04409 0.11513 0.0
H658 H 0.66975 0.04516 0.08993 0.0
H659 H 0.65649 0.02144 0.13061 0.0
C660 C 0.72339 0.01866 0.01778 0.0
C661 C 0.72523 1.00126 0.06504 0.0
C662 C 0.70327 0.02224 0.98822 0.0
C663 C 0.68476 0.00852 0.00599 0.0
C664 C 0.68652 0.99097 0.05264 0.0
H665 H 0.55105 0.02074 0.87902 0.0
H666 H 0.58372 0.01596 0.95134 0.0
C667 C 0.70673 0.98735 0.08212 0.0
C668 C 0.66372 0.01254 0.97405 0.0
H669 H 0.61968 0.04139 0.00448 0.0
C670 C 0.65873 1.00405 0.90155 0.0
C671 C 0.6494 0.02575 0.01262 0.0
C672 C 0.65424 0.03469 0.09155 0.0
C673 C 0.63977 0.00881 0.86542 0.0
C674 C 0.6259 0.02295 0.9022 0.0
C675 C 0.63058 0.03089 0.97602 0.0
C676 C 0.60628 0.02926 0.8648 0.0
C677 C 0.63469 0.99847 0.78854 0.0
C678 C 0.60819 0.03939 0.79424 0.0
C679 C 0.58961 0.04197 0.75262 0.0
C680 C 0.56889 0.03476 0.78172 0.0
C681 C 0.56688 0.0264 0.85534 0.0
C682 C 0.5855 0.02363 0.89661 0.0
H683 H 0.64342 0.98383 0.77857 0.0
H684 H 0.6169 0.99412 0.78316 0.0
H685 H 0.64004 0.00989 0.7431 0.0
H686 H 0.62412 0.04433 0.76971 0.0
H687 H 0.59155 0.04857 0.69614 0.0
H688 H 0.46466 0.71405 0.18282 0.0
H689 H 0.45751 0.67518 0.1609 0.0
H690 H 0.49484 0.68011 0.94955 0.0
H691 H 0.50223 0.71869 0.97237 0.0
H692 H 0.45351 0.65393 0.94385 0.0
H693 H 0.50638 0.63336 0.18032 0.0
H694 H 0.4851 0.65084 0.19989 0.0
H695 H 0.50824 0.65988 0.14151 0.0
C696 C 0.47106 0.70671 0.13148 0.0
C697 C 0.48389 0.71914 0.07897 0.0
C698 C 0.46707 0.68463 0.11916 0.0
C699 C 0.47583 0.67483 0.05398 0.0
C700 C 0.4879 0.68743 1.00012 0.0
H701 H 0.52282 0.56811 0.86171 0.0
H702 H 0.51476 0.59838 0.94461 0.0
C703 C 0.49197 0.70941 0.01268 0.0
C704 C 0.47333 0.65139 0.0418 0.0
H705 H 0.49484 0.6057 0.09404 0.0
C706 C 0.46206 0.6432 0.97763 0.0
C707 C 0.48458 0.63759 0.08622 0.0
C708 C 0.4969 0.64573 0.15578 0.0
C709 C 0.4629 0.62183 0.95361 0.0
C710 C 0.47517 0.60829 0.99558 0.0
C711 C 0.48534 0.61613 0.06249 0.0
C712 C 0.48073 0.58745 0.96301 0.0
C713 C 0.45204 0.61435 0.88028 0.0
C714 C 0.46452 0.57072 0.94958 0.0
C715 C 0.46911 0.55337 0.902 0.0
C716 C 0.48993 0.55267 0.86753 0.0
C717 C 0.5066 0.56838 0.88715 0.0
C718 C 0.50203 0.58563 0.93468 0.0
H719 H 0.44532 0.62762 0.85024 0.0
H720 H 0.46386 0.6069 0.84122 0.0
H721 H 0.43842 0.60209 0.89294 0.0
H722 H 0.44804 0.57177 0.97178 0.0
H723 H 0.456 0.54138 0.88792 0.0
H724 H 0.78247 0.5139 0.99384 0.0
H725 H 0.82023 0.50799 0.95766 0.0
H726 H 0.82347 0.46702 0.15058 0.0
H727 H 0.78494 0.4712 0.18115 0.0
H728 H 0.85494 0.51929 0.03082 0.0
H729 H 0.85049 0.43092 0.99479 0.0
H730 H 0.82641 0.44521 0.00626 0.0
H731 H 0.84197 0.43969 0.08797 0.0
C732 C 0.79115 0.5031 0.02666 0.0
C733 C 0.78102 0.49298 0.09002 0.0
C734 C 0.81274 0.49993 0.00683 0.0
C735 C 0.82474 0.48693 0.05107 0.0
C736 C 0.81449 0.47667 0.11432 0.0
H737 H 0.96515 0.50379 0.92284 0.0
H738 H 0.93319 0.50196 0.0103 0.0
C739 C 0.79263 0.47934 0.13261 0.0
C740 C 0.84815 0.48506 0.03199 0.0
H741 H 0.88534 0.44943 0.98351 0.0
C742 C 0.86162 0.504 0.02056 0.0
C743 C 0.85689 0.46509 0.0195 0.0
C744 C 0.84316 0.44408 0.02707 0.0
C745 C 0.88309 0.50363 0.99223 0.0
C746 C 0.89172 0.48365 0.97819 0.0
C747 C 0.87873 0.46472 0.99461 0.0
C748 C 0.9125 0.48191 0.93449 0.0
C749 C 0.89564 0.52463 0.97279 0.0
C750 C 0.912 0.46997 0.8658 0.0
C751 C 0.9303 0.47043 0.8175 0.0
C752 C 0.9494 0.48313 0.8362 0.0
C753 C 0.95048 0.49407 0.90694 0.0
C754 C 0.93219 0.49319 0.95643 0.0
H755 H 0.88493 0.53801 0.97245 0.0
H756 H 0.90828 0.52866 0.01602 0.0
H757 H 0.90386 0.52358 0.91593 0.0
H758 H 0.89707 0.46107 0.84753 0.0
H759 H 0.92903 0.46174 0.76344 0.0
H760 H 0.04823 0.24291 0.91987 0.0
H761 H 0.05079 0.21068 0.83825 0.0
H762 H 0.98377 0.19012 0.89632 0.0
H763 H 0.98124 0.2225 0.97561 0.0
H764 H 0.04656 0.17044 0.89179 0.0
H765 H 0.98514 0.17667 0.6707 0.0
H766 H 0.9951 0.19931 0.72928 0.0
H767 H 0.97382 0.18034 0.76481 0.0
C768 C 0.03387 0.2319 0.9121 0.0
C769 C 0.01446 0.23518 0.95271 0.0
C770 C 0.03537 0.2134 0.86646 0.0
C771 C 0.01741 0.19802 0.86046 0.0
C772 C 0.9977 0.20191 0.89832 0.0
H773 H 0.01584 0.06092 0.79479 0.0
H774 H 0.01806 0.09782 0.84416 0.0
C775 C 0.99622 0.22038 0.94359 0.0
C776 C 0.01976 0.17695 0.82165 0.0
H777 H 0.99582 0.14137 0.69223 0.0
C778 C 0.03567 0.1642 0.84732 0.0
C779 C 1.00569 0.16881 0.76325 0.0
C780 C 0.98914 0.1821 0.72985 0.0
C781 C 0.03741 0.14334 0.81806 0.0
C782 C 0.0225 0.13475 0.76282 0.0
C783 C 0.0071 0.14778 0.73524 0.0
C784 C 0.02234 0.11226 0.73334 0.0
C785 C 0.05531 0.13079 0.84646 0.0
C786 C 0.02361 0.10796 0.65453 0.0
C787 C 0.02204 0.08687 0.6261 0.0
C788 C 0.01919 0.06955 0.67587 0.0
C789 C 0.01829 0.07385 0.75488 0.0
C790 C 0.01967 0.09499 0.78325 0.0
H791 H 0.06915 0.14156 0.86847 0.0
H792 H 0.04876 0.12064 0.89406 0.0
H793 H 0.06162 0.12027 0.80071 0.0
H794 H 0.0256 0.12097 0.6148 0.0
H795 H 0.02281 0.08418 0.56492 0.0
H796 H 0.2792 0.03787 0.93103 0.0
H797 H 0.31403 0.04386 0.85893 0.0
H798 H 0.31459 0.97583 0.81884 0.0
H799 H 0.27998 0.97 0.89121 0.0
H800 H 0.35263 0.02352 0.90876 0.0
H801 H 0.3325 1.00294 0.60742 0.0
H802 H 0.31242 0.01121 0.67659 0.0
H803 H 0.32094 0.98457 0.67765 0.0
C804 C 0.28643 0.02437 0.90413 0.0
C805 C 0.2769 1.00352 0.91539 0.0
C806 C 0.30636 0.02773 0.86371 0.0
C807 C 0.31683 0.0103 0.83292 0.0
C808 C 0.30667 0.98955 0.84086 0.0
H809 H 0.44381 0.98728 0.63565 0.0
H810 H 0.40534 0.98552 0.67748 0.0
C811 C 0.28691 0.98621 0.88188 0.0
C812 C 0.3394 0.01343 0.80015 0.0
H813 H 0.37009 0.00682 0.63738 0.0
C814 C 0.35645 0.02015 0.8492 0.0
C815 C 0.34437 0.00861 0.72283 0.0
C816 C 0.32663 1.00156 0.66765 0.0
C817 C 0.37836 0.02179 0.82348 0.0
C818 C 0.38339 0.01715 0.74586 0.0
C819 C 0.36629 0.0105 0.69669 0.0
C820 C 0.40633 0.01868 0.71535 0.0
C821 C 0.39596 0.02769 0.88055 0.0
C822 C 0.41958 0.03804 0.72041 0.0
C823 C 0.44156 0.03906 0.69672 0.0
C824 C 0.45072 0.02078 0.66677 0.0
C825 C 0.43723 1.00163 0.65862 0.0
C826 C 0.41524 1.00061 0.68255 0.0
H827 H 0.38994 0.02486 0.94 0.0
H828 H 0.41032 0.01839 0.86942 0.0
H829 H 0.40139 0.04495 0.87603 0.0
H830 H 0.41298 0.05235 0.74368 0.0
H831 H 0.45149 0.05408 0.70311 0.0
H832 H 0.47104 0.28879 0.99373 0.0
H833 H 0.46807 0.32106 0.91989 0.0
H834 H 0.5259 0.30773 0.78928 0.0
H835 H 0.5288 0.27547 0.86419 0.0
H836 H 0.52849 0.34834 0.85669 0.0
H837 H 0.45096 0.33362 0.70228 0.0
H838 H 0.44834 0.32808 0.80217 0.0
H839 H 0.4649 0.31228 0.74113 0.0
C840 C 0.48246 0.2923 0.94682 0.0
C841 C 0.49979 0.27945 0.93303 0.0
C842 C 0.48087 0.31078 0.9049 0.0
C843 C 0.49662 0.31677 0.84826 0.0
C844 C 0.51342 0.30336 0.8321 0.0
H845 H 0.49999 0.42924 0.56143 0.0
H846 H 0.49903 0.39282 0.60909 0.0
C847 C 0.51494 0.2848 0.874 0.0
C848 C 0.49689 0.33811 0.81242 0.0
H849 H 0.46626 0.36993 0.71075 0.0
C850 C 0.51493 0.35301 0.82446 0.0
C851 C 0.47927 0.34419 0.76983 0.0
C852 C 0.45985 0.32866 0.75236 0.0
C853 C 0.51552 0.37397 0.79737 0.0
C854 C 0.49763 0.38026 0.75679 0.0
C855 C 0.47987 0.36518 0.7426 0.0
C856 C 0.49725 0.40238 0.72814 0.0
C857 C 0.53533 0.38928 0.81221 0.0
C858 C 0.49616 0.41988 0.77916 0.0
C859 C 0.49655 0.44077 0.75213 0.0
C860 C 0.49816 0.44463 0.67337 0.0
C861 C 0.49884 0.42696 0.62242 0.0
C862 C 0.49825 0.40608 0.64953 0.0
H863 H 0.54937 0.38088 0.83111 0.0
H864 H 0.54034 0.39834 0.76017 0.0
H865 H 0.53127 0.40098 0.85771 0.0
H866 H 0.49513 0.41739 0.84006 0.0
H867 H 0.49601 0.4539 0.79315 0.0
H868 H 0.23468 0.54006 0.95604 0.0
H869 H 0.2002 0.53867 0.88845 0.0
H870 H 0.20477 0.47156 0.83774 0.0
H871 H 0.23895 0.473 0.9086 0.0
H872 H 0.18555 0.5297 0.7513 0.0
H873 H 0.14689 0.46934 0.94808 0.0
H874 H 0.17434 0.48115 0.96003 0.0
H875 H 0.16895 0.45932 0.89297 0.0
C876 C 0.22867 0.52524 0.92788 0.0
C877 C 0.23963 0.50674 0.93623 0.0
C878 C 0.20883 0.52435 0.88996 0.0
C879 C 0.19944 0.50489 0.85923 0.0
C880 C 0.21128 0.48668 0.86244 0.0
H881 H 0.08504 0.49894 0.56857 0.0
H882 H 0.12162 0.49892 0.61905 0.0
C883 C 0.23108 0.48757 0.90128 0.0
C884 C 0.17695 0.50373 0.82719 0.0
H885 H 0.12552 0.47828 0.8441 0.0
C886 C 0.17247 0.5184 0.77158 0.0
C887 C 0.15957 0.48934 0.85455 0.0
C888 C 0.16258 0.47405 0.91773 0.0
C889 C 0.1514 0.51897 0.74228 0.0
C890 C 0.13423 0.50408 0.76763 0.0
C891 C 0.13863 0.48956 0.82382 0.0
C892 C 0.11161 0.50343 0.73706 0.0
C893 C 0.14767 0.53602 0.68604 0.0
C894 C 0.0934 0.50509 0.78645 0.0
C895 C 0.07224 0.50479 0.75767 0.0
C896 C 0.06875 0.50283 0.67869 0.0
C897 C 0.08699 0.50075 0.62962 0.0
C898 C 0.10806 0.50088 0.65844 0.0
H899 H 0.16018 0.54984 0.69065 0.0
H900 H 0.1488 0.52921 0.62726 0.0
H901 H 0.13128 0.54197 0.69478 0.0
H902 H 0.09558 0.50692 0.84739 0.0
H903 H 0.05866 0.50639 0.79733 0.0
H904 H 0.968 0.77263 0.19906 0.0
H905 H 0.96219 0.80604 0.27077 0.0
H906 H 0.03191 0.82002 0.28489 0.0
H907 H 0.0375 0.78701 0.21205 0.0
H908 H 0.97486 0.82525 0.41105 0.0
H909 H 0.01302 0.8706 0.16861 0.0
H910 H 1.00526 0.84225 0.16246 0.0
H911 H 0.03054 0.85206 0.20542 0.0
C912 C 0.98195 0.78255 0.2201 0.0
C913 C 1.00317 0.77735 0.20101 0.0
C914 C 0.97868 0.80168 0.26025 0.0
C915 C 0.99663 0.81579 0.28159 0.0
C916 C 0.01782 0.80964 0.26761 0.0
H917 H 1.0061 0.92735 0.57972 0.0
H918 H 1.00363 0.89136 0.52356 0.0
C919 C 0.02104 0.79069 0.22714 0.0
C920 C 0.99347 0.8375 0.31375 0.0
H921 H 0.00761 0.89052 0.28383 0.0
C922 C 0.98187 0.83955 0.38308 0.0
C923 C 1.00212 0.85621 0.27624 0.0
C924 C 0.01323 0.85525 0.19868 0.0
C925 C 0.97946 0.85976 0.41741 0.0
C926 C 0.98936 0.87839 0.38226 0.0
C927 C 1.00022 0.87632 0.31146 0.0
C928 C 0.98935 0.90014 0.41855 0.0
C929 C 0.96616 0.8609 0.49059 0.0
C930 C 0.98262 0.91735 0.37782 0.0
C931 C 0.98439 0.93815 0.40936 0.0
C932 C 0.9929 0.94219 0.48245 0.0
C933 C 0.99927 0.92487 0.52359 0.0
C934 C 0.9977 0.90415 0.49174 0.0
H935 H 0.95387 0.84691 0.4954 0.0
H936 H 0.97715 0.8607 0.53968 0.0
H937 H 0.95756 0.87575 0.49474 0.0
H938 H 0.97625 0.91473 0.32105 0.0
H939 H 0.97933 0.95107 0.37604 0.0
H940 H 0.73459 0.97222 0.28358 0.0
H941 H 0.69962 0.97262 0.35495 0.0
H942 H 0.68945 0.03339 0.25797 0.0
H943 H 0.72476 0.03332 0.19012 0.0
H944 H 0.67297 0.03145 0.40128 0.0
H945 H 0.64445 0.95781 0.23888 0.0
H946 H 0.66753 0.9546 0.29676 0.0
H947 H 0.67024 0.97265 0.21834 0.0
C948 C 0.72522 0.98599 0.28029 0.0
C949 C 0.73223 1.00271 0.2315 0.0
C950 C 0.70508 0.98608 0.31982 0.0
C951 C 0.69151 1.00274 0.31014 0.0
C952 C 0.69945 0.02028 0.26622 0.0
H953 H 0.55058 0.99181 0.33036 0.0
H954 H 0.58951 0.99463 0.2968 0.0
C955 C 0.71965 0.0203 0.22767 0.0
C956 C 0.66848 1.00128 0.34023 0.0
H957 H 0.61975 0.97083 0.32988 0.0
C958 C 0.66133 0.01815 0.38599 0.0
C959 C 0.6531 0.98419 0.31885 0.0
C960 C 0.6591 0.96639 0.2649 0.0
C961 C 0.63935 0.01842 0.41067 0.0
C962 C 0.6241 1.00103 0.39094 0.0
C963 C 0.63135 0.98411 0.34571 0.0
C964 C 0.60033 1.00041 0.41259 0.0
C965 C 0.6326 0.03779 0.45494 0.0
C966 C 0.59316 1.00276 0.48899 0.0
C967 C 0.57076 1.00156 0.50803 0.0
C968 C 0.55512 0.99754 0.4513 0.0
C969 C 0.56226 0.99497 0.37528 0.0
C970 C 0.58456 0.99653 0.3561 0.0
H971 H 0.64439 0.052 0.44586 0.0
H972 H 0.61617 0.04186 0.43852 0.0
H973 H 0.63209 0.03439 0.51674 0.0
H974 H 0.60484 0.00509 0.53419 0.0
H975 H 0.5657 1.00313 0.56728 0.0
H976 H 0.4878 0.74273 0.30047 0.0
H977 H 0.49233 0.71183 0.38068 0.0
H978 H 0.53711 0.68818 0.21214 0.0
H979 H 0.53253 0.71906 0.13291 0.0
H980 H 0.48044 0.67031 0.32989 0.0
H981 H 0.56726 0.67763 0.41119 0.0
H982 H 0.55371 0.70003 0.37848 0.0
H983 H 0.56356 0.68084 0.31109 0.0
C984 C 0.49932 0.73137 0.28269 0.0
C985 C 0.51015 0.73334 0.2116 0.0
C986 C 0.50173 0.71363 0.32784 0.0
C987 C 0.51523 0.69772 0.30287 0.0
C988 C 0.52701 0.7004 0.23362 0.0
H989 H 0.50909 0.56194 0.37672 0.0
H990 H 0.5102 0.59818 0.32721 0.0
C991 C 0.52448 0.71806 0.18848 0.0
C992 C 0.51503 0.6772 0.34396 0.0
H993 H 0.548 0.64293 0.42319 0.0
C994 C 0.49518 0.66445 0.35107 0.0
C995 C 0.53425 0.66951 0.37164 0.0
C996 C 0.55588 0.68279 0.36846 0.0
C997 C 0.49421 0.64391 0.38189 0.0
C998 C 0.51352 0.63598 0.40734 0.0
C999 C 0.53324 0.64899 0.40303 0.0
C1000 C 0.51346 0.61405 0.43759 0.0
C1001 C 0.4726 0.63063 0.38603 0.0
C1002 C 0.5151 0.61096 0.51608 0.0
C1003 C 0.5143 0.59024 0.54478 0.0
C1004 C 0.51212 0.57217 0.49537 0.0
C1005 C 0.51086 0.57542 0.41652 0.0
C1006 C 0.51143 0.59613 0.38803 0.0
H1007 H 0.45868 0.64019 0.37484 0.0
H1008 H 0.47263 0.6174 0.34283 0.0
H1009 H 0.47006 0.62336 0.44299 0.0
H1010 H 0.51668 0.62459 0.55526 0.0
H1011 H 0.51539 0.5884 0.60573 0.0
H1012 H 0.78451 0.54528 0.17753 0.0
H1013 H 0.81863 0.55023 0.24826 0.0
H1014 H 0.80052 0.49146 0.36571 0.0
H1015 H 0.76575 0.48778 0.29952 0.0
H1016 H 0.82289 0.51498 0.45616 0.0
H1017 H 0.86895 0.52004 0.18178 0.0
H1018 H 0.85278 0.54227 0.19551 0.0
H1019 H 0.83967 0.51553 0.18625 0.0
C1020 C 0.78754 0.53402 0.221 0.0
C1021 C 0.77258 0.51624 0.23371 0.0
C1022 C 0.80728 0.53649 0.26007 0.0
C1023 C 0.81283 0.52072 0.31022 0.0
C1024 C 0.79697 0.50382 0.32703 0.0
H1025 H 0.94715 0.4952 0.38939 0.0
H1026 H 0.91029 0.49746 0.34322 0.0
C1027 C 0.77699 0.50176 0.28973 0.0
C1028 C 0.83531 0.52104 0.3422 0.0
H1029 H 0.8897 0.52574 0.29305 0.0
C1030 C 0.83748 0.51725 0.42024 0.0
C1031 C 0.85456 0.5235 0.29565 0.0
C1032 C 0.85389 0.52531 0.21011 0.0
C1033 C 0.85802 0.51566 0.4526 0.0
C1034 C 0.87732 0.51918 0.40677 0.0
C1035 C 0.87513 0.52322 0.32894 0.0
C1036 C 0.89985 0.51774 0.43668 0.0
C1037 C 0.85855 0.50919 0.53477 0.0
C1038 C 0.90674 0.52843 0.5046 0.0
C1039 C 0.92768 0.52648 0.53247 0.0
C1040 C 0.94259 0.51459 0.49134 0.0
C1041 C 0.93606 0.50457 0.42217 0.0
C1042 C 0.91492 0.50591 0.39569 0.0
H1043 H 0.84298 0.50022 0.5529 0.0
H1044 H 0.87208 0.49903 0.54439 0.0
H1045 H 0.86075 0.52377 0.57183 0.0
H1046 H 0.89601 0.53842 0.53614 0.0
H1047 H 0.93235 0.53459 0.58551 0.0
loop_
_geom_bond_atom_site_label_1
_geom_bond_atom_site_label_2
_geom_bond_distance
_geom_bond_site_symmetry_2
_ccdc_geom_bond_type
C0 N1 1.317 . S
C0 N2 1.348 . S
C0 C3 1.485 . S
N1 C0 1.317 . S
N1 N5 1.370 . S
N2 C0 1.348 . S
N2 C4 1.346 . S
C3 C0 1.485 . S
C3 H7 0.960 . S
C3 H8 0.961 . S
C3 H9 0.960 . S
C4 N2 1.346 . S
C4 N5 1.307 . S
C4 C6 1.486 1_554 S
N5 N1 1.370 . S
N5 C4 1.307 . S
C6 C4 1.486 1_556 S
C6 H10 0.960 . S
C6 H11 0.960 . S
C6 H12 0.959 . S
H7 C3 0.960 . S
H8 C3 0.961 . S
H9 C3 0.960 . S
H10 C6 0.960 . S
H11 C6 0.960 . S
H12 C6 0.959 . S
C13 N14 1.317 . S
C13 N15 1.351 . S
C13 C16 1.485 . S
N14 C13 1.317 . S
N14 N18 1.370 . S
N15 C13 1.351 . S
N15 C17 1.349 1_654 S
C16 C13 1.485 . S
C16 H20 0.960 1_655 S
C16 H21 0.961 . S
C16 H22 0.960 . S
C17 N15 1.349 1_456 S
C17 N18 1.306 1_456 S
C17 C19 1.486 . S
N18 N14 1.370 . S
N18 C17 1.306 1_654 S
C19 C17 1.486 . S
C19 H23 0.925 1_455 S
C19 H24 0.992 . S
C19 H25 0.963 . S
H20 C16 0.960 1_455 S
H21 C16 0.961 . S
H22 C16 0.960 . S
H23 C19 0.925 1_655 S
H24 C19 0.992 . S
H25 C19 0.963 . S
C26 N27 1.317 . S
C26 N28 1.348 . S
C26 C29 1.485 . S
N27 C26 1.317 . S
N27 N31 1.370 1_554 S
N28 C26 1.348 . S
N28 C30 1.346 1_554 S
C29 C26 1.485 . S
C29 H33 0.960 . S
C29 H34 0.961 . S
C29 H35 0.960 . S
C30 N28 1.346 1_556 S
C30 N31 1.307 . S
C30 C32 1.486 . S
N31 N27 1.370 1_556 S
N31 C30 1.307 . S
C32 C30 1.486 . S
C32 H36 0.960 . S
C32 H37 0.960 . S
C32 H38 0.959 . S
H33 C29 0.960 . S
H34 C29 0.961 . S
H35 C29 0.960 . S
H36 C32 0.960 . S
H37 C32 0.960 . S
H38 C32 0.959 . S
C39 N40 1.317 . S
C39 N41 1.348 . S
C39 C42 1.485 . S
N40 C39 1.317 . S
N40 N44 1.370 . S
N41 C39 1.348 . S
N41 C43 1.346 . S
C42 C39 1.485 . S
C42 H46 0.960 . S
C42 H47 0.961 . S
C42 H48 0.960 . S
C43 N41 1.346 . S
C43 N44 1.307 . S
C43 C45 1.486 1_554 S
N44 N40 1.370 . S
N44 C43 1.307 . S
C45 C43 1.486 1_556 S
C45 H49 0.960 . S
C45 H50 0.960 . S
C45 H51 0.959 . S
H46 C42 0.960 . S
H47 C42 0.961 . S
H48 C42 0.960 . S
H49 C45 0.960 . S
H50 C45 0.960 . S
H51 C45 0.959 . S
C52 N53 1.317 . S
C52 N54 1.348 . S
C52 C55 1.485 1_554 S
N53 C52 1.317 . S
N53 N57 1.370 . S
N54 C52 1.348 . S
N54 C56 1.346 . S
C55 C52 1.485 1_556 S
C55 H59 0.960 . S
C55 H60 0.961 . S
C55 H61 0.960 . S
C56 N54 1.346 . S
C56 N57 1.307 . S
C56 C58 1.486 . S
N57 N53 1.370 . S
N57 C56 1.307 . S
C58 C56 1.486 . S
C58 H62 0.960 . S
C58 H63 0.960 . S
C58 H64 0.959 . S
H59 C55 0.960 . S
H60 C55 0.961 . S
H61 C55 0.960 . S
H62 C58 0.960 . S
H63 C58 0.960 . S
H64 C58 0.959 . S
C65 N66 1.317 . S
C65 N67 1.349 . S
C65 C68 1.485 1_554 S
N66 C65 1.317 . S
N66 N70 1.370 . S
N67 C65 1.349 . S
N67 C69 1.342 1_655 S
C68 C65 1.485 1_556 S
C68 H72 0.960 1_655 S
C68 H73 0.961 . S
C68 H74 0.960 . S
C69 N67 1.342 1_455 S
C69 N70 1.307 1_455 S
C69 C71 1.485 . S
N70 N66 1.370 . S
N70 C69 1.307 1_655 S
C71 C69 1.485 . S
C71 H75 0.912 1_455 S
C71 H76 0.996 . S
C71 H77 0.975 . S
H72 C68 0.960 1_455 S
H73 C68 0.961 . S
H74 C68 0.960 . S
H75 C71 0.912 1_655 S
H76 C71 0.996 . S
H77 C71 0.975 . S
C78 N79 1.317 . S
C78 N80 1.348 . S
C78 C81 1.485 . S
N79 C78 1.317 . S
N79 N83 1.370 . S
N80 C78 1.348 . S
N80 C82 1.346 . S
C81 C78 1.485 . S
C81 H85 0.960 1_554 S
C81 H86 0.961 . S
C81 H87 0.960 1_554 S
C82 N80 1.346 . S
C82 N83 1.307 . S
C82 C84 1.486 . S
N83 N79 1.370 . S
N83 C82 1.307 . S
C84 C82 1.486 . S
C84 H88 0.960 . S
C84 H89 0.960 . S
C84 H90 0.959 . S
H85 C81 0.960 1_556 S
H86 C81 0.961 . S
H87 C81 0.960 1_556 S
H88 C84 0.960 . S
H89 C84 0.960 . S
H90 C84 0.959 . S
C91 N92 1.317 . S
C91 N93 1.348 1_556 S
C91 C94 1.485 . S
N92 C91 1.317 . S
N92 N96 1.370 1_556 S
N93 C91 1.348 1_554 S
N93 C95 1.346 . S
C94 C91 1.485 . S
C94 H98 0.960 . S
C94 H99 0.961 . S
C94 H100 0.960 . S
C95 N93 1.346 . S
C95 N96 1.307 . S
C95 C97 1.486 . S
N96 N92 1.370 1_554 S
N96 C95 1.307 . S
C97 C95 1.486 . S
C97 H101 0.960 . S
C97 H102 0.960 . S
C97 H103 0.959 . S
H98 C94 0.960 . S
H99 C94 0.961 . S
H100 C94 0.960 . S
H101 C97 0.960 . S
H102 C97 0.960 . S
H103 C97 0.959 . S
Dy104 O108 2.398 . S
Dy104 O109 2.491 1_455 S
Dy104 O110 2.403 . S
Dy104 O111 2.664 1_565 S
Dy104 O115 2.326 . S
Dy104 O119 2.310 1_455 S
Dy104 O120 2.351 1_565 S
C105 O116 1.185 . S
C105 O117 1.355 1_655 S
C106 O108 1.185 . S
C106 O109 1.355 1_455 S
Dy107 O111 2.310 1_655 S
Dy107 O114 2.351 1_545 S
Dy107 O116 2.398 . S
Dy107 O117 2.491 1_655 S
Dy107 O118 2.403 . S
Dy107 O119 2.664 1_545 S
Dy107 O121 2.326 . S
O108 Dy104 2.398 . S
O108 C106 1.185 . S
O109 Dy104 2.491 1_655 S
O109 C106 1.355 1_655 S
O110 Dy104 2.403 . S
O110 C112 1.254 1_565 S
O111 Dy104 2.664 1_545 S
O111 Dy107 2.310 1_455 S
O111 C112 1.268 . S
C112 O110 1.254 1_545 S
C112 O111 1.268 . S
C113 O118 1.254 1_565 S
C113 O119 1.268 . S
O114 Dy107 2.351 1_565 S
O114 C122 1.249 . S
O115 Dy104 2.326 . S
O115 C122 1.267 1_455 S
O116 C105 1.185 . S
O116 Dy107 2.398 . S
O117 C105 1.355 1_455 S
O117 Dy107 2.491 1_455 S
O118 Dy107 2.403 . S
O118 C113 1.254 1_545 S
O119 Dy104 2.310 1_655 S
O119 Dy107 2.664 1_565 S
O119 C113 1.268 . S
O120 Dy104 2.351 1_545 S
O120 C123 1.249 . S
O121 Dy107 2.326 . S
O121 C123 1.267 1_655 S
C122 O114 1.249 . S
C122 O115 1.267 1_655 S
C123 O120 1.249 . S
C123 O121 1.267 1_455 S
Dy124 O128 2.398 . S
Dy124 O129 2.491 1_565 S
Dy124 O130 2.403 . S
Dy124 O131 2.664 . S
Dy124 O135 2.326 1_565 S
Dy124 O139 2.310 1_565 S
Dy124 O140 2.351 . S
C125 O136 1.187 . S
C125 O137 1.355 1_545 S
C126 O128 1.155 1_545 S
C126 O129 1.367 . S
Dy127 O131 2.310 1_545 S
Dy127 O134 2.351 . S
Dy127 O136 2.398 . S
Dy127 O137 2.491 1_545 S
Dy127 O138 2.403 . S
Dy127 O139 2.664 . S
Dy127 O141 2.326 1_545 S
O128 Dy124 2.398 . S
O128 C126 1.155 1_565 S
O129 Dy124 2.491 1_545 S
O129 C126 1.367 . S
O130 Dy124 2.403 . S
O130 C132 1.254 . S
O131 Dy124 2.664 . S
O131 Dy127 2.310 1_565 S
O131 C132 1.268 . S
C132 O130 1.254 . S
C132 O131 1.268 . S
C133 O138 1.254 . S
C133 O139 1.268 . S
O134 Dy127 2.351 . S
O134 C142 1.249 . S
O135 Dy124 2.326 1_545 S
O135 C142 1.267 . S
O136 C125 1.187 . S
O136 Dy127 2.398 . S
O137 C125 1.355 1_565 S
O137 Dy127 2.491 1_565 S
O138 Dy127 2.403 . S
O138 C133 1.254 . S
O139 Dy124 2.310 1_545 S
O139 Dy127 2.664 . S
O139 C133 1.268 . S
O140 Dy124 2.351 . S
O140 C143 1.249 . S
O141 Dy127 2.326 1_565 S
O141 C143 1.267 . S
C142 O134 1.249 . S
C142 O135 1.267 . S
C143 O140 1.249 . S
C143 O141 1.267 . S
Dy144 O148 2.398 . S
Dy144 O149 2.491 . S
Dy144 O150 2.403 . S
Dy144 O151 2.664 . S
Dy144 O155 2.326 . S
Dy144 O159 2.310 . S
Dy144 O160 2.351 . S
C145 O156 1.185 . S
C145 O157 1.355 . S
C146 O148 1.185 . S
C146 O149 1.355 . S
Dy147 O151 2.310 . S
Dy147 O154 2.351 . S
Dy147 O156 2.398 . S
Dy147 O157 2.491 . S
Dy147 O158 2.403 . S
Dy147 O159 2.664 . S
Dy147 O161 2.326 . S
O148 Dy144 2.398 . S
O148 C146 1.185 . S
O149 Dy144 2.491 . S
O149 C146 1.355 . S
O150 Dy144 2.403 . S
O150 C152 1.254 . S
O151 Dy144 2.664 . S
O151 Dy147 2.310 . S
O151 C152 1.268 . S
C152 O150 1.254 . S
C152 O151 1.268 . S
C153 O158 1.254 . S
C153 O159 1.268 . S
O154 Dy147 2.351 . S
O154 C162 1.249 . S
O155 Dy144 2.326 . S
O155 C162 1.267 . S
O156 C145 1.185 . S
O156 Dy147 2.398 . S
O157 C145 1.355 . S
O157 Dy147 2.491 . S
O158 Dy147 2.403 . S
O158 C153 1.254 . S
O159 Dy144 2.310 . S
O159 Dy147 2.664 . S
O159 C153 1.268 . S
O160 Dy144 2.351 . S
O160 C163 1.249 . S
O161 Dy147 2.326 . S
O161 C163 1.267 . S
C162 O154 1.249 . S
C162 O155 1.267 . S
C163 O160 1.249 . S
C163 O161 1.267 . S
Dy164 O168 2.398 . S
Dy164 O169 2.491 . S
Dy164 O170 2.403 . S
Dy164 O171 2.664 1_655 S
Dy164 O175 2.326 . S
Dy164 O179 2.310 . S
Dy164 O180 2.351 1_655 S
C165 O176 1.185 . S
C165 O177 1.355 . S
C166 O168 1.185 . S
C166 O169 1.355 . S
Dy167 O171 2.310 . S
Dy167 O174 2.351 1_455 S
Dy167 O176 2.398 . S
Dy167 O177 2.491 . S
Dy167 O178 2.403 . S
Dy167 O179 2.664 1_455 S
Dy167 O181 2.326 . S
O168 Dy164 2.398 . S
O168 C166 1.185 . S
O169 Dy164 2.491 . S
O169 C166 1.355 . S
O170 Dy164 2.403 . S
O170 C172 1.254 . S
O171 Dy164 2.664 1_455 S
O171 Dy167 2.310 . S
O171 C172 1.268 1_455 S
C172 O170 1.254 . S
C172 O171 1.268 1_655 S
C173 O178 1.254 . S
C173 O179 1.268 1_455 S
O174 Dy167 2.351 1_655 S
O174 C182 1.249 . S
O175 Dy164 2.326 . S
O175 C182 1.267 . S
O176 C165 1.185 . S
O176 Dy167 2.398 . S
O177 C165 1.355 . S
O177 Dy167 2.491 . S
O178 Dy167 2.403 . S
O178 C173 1.254 . S
O179 Dy164 2.310 . S
O179 Dy167 2.664 1_655 S
O179 C173 1.268 1_655 S
O180 Dy164 2.351 1_455 S
O180 C183 1.249 . S
O181 Dy167 2.326 . S
O181 C183 1.267 . S
C182 O174 1.249 . S
C182 O175 1.267 . S
C183 O180 1.249 . S
C183 O181 1.267 . S
H184 C192 0.929 . S
H185 C194 0.930 . S
H186 C196 0.930 . S
H187 C199 0.929 . S
H188 C202 0.930 . S
H189 C204 0.964 . S
H190 C204 0.964 . S
H191 C204 0.956 1_545 S
C192 H184 0.929 . S
C192 C193 1.377 . S
C192 C194 1.384 . S
C193 C192 1.377 . S
C193 C199 1.390 . S
C194 H185 0.930 . S
C194 C192 1.384 . S
C194 C195 1.372 . S
C195 C194 1.372 . S
C195 C196 1.400 . S
C195 C200 1.490 . S
C196 H186 0.930 . S
C196 C195 1.400 . S
C196 C199 1.386 . S
H197 C213 0.930 . S
H198 C214 0.931 . S
C199 H187 0.929 . S
C199 C193 1.390 . S
C199 C196 1.386 . S
C200 C195 1.490 . S
C200 C202 1.395 . S
C200 C203 1.403 . S
H201 C207 0.930 . S
C202 H188 0.930 . S
C202 C200 1.395 . S
C202 C205 1.403 . S
C203 C200 1.403 . S
C203 C204 1.519 1_545 S
C203 C207 1.400 . S
C204 H189 0.964 . S
C204 H190 0.964 . S
C204 H191 0.956 1_565 S
C204 C203 1.519 1_565 S
C205 C202 1.403 . S
C205 C206 1.392 . S
C205 C209 1.495 . S
C206 C205 1.392 . S
C206 C207 1.385 . S
C206 C208 1.478 . S
C207 H201 0.930 . S
C207 C203 1.400 . S
C207 C206 1.385 . S
C208 C206 1.478 . S
C208 C210 1.381 . S
C208 C214 1.383 . S
C209 C205 1.495 . S
C209 H215 0.959 . S
C209 H216 0.961 . S
C209 H217 0.960 . S
C210 C208 1.381 . S
C210 C211 1.394 . S
C210 H218 0.930 . S
C211 C210 1.394 . S
C211 C212 1.383 . S
C211 H219 0.929 . S
C212 C211 1.383 . S
C212 C213 1.377 . S
C213 H197 0.930 . S
C213 C212 1.377 . S
C213 C214 1.379 . S
C214 H198 0.931 . S
C214 C208 1.383 . S
C214 C213 1.379 . S
H215 C209 0.959 . S
H216 C209 0.961 . S
H217 C209 0.960 . S
H218 C210 0.930 . S
H219 C211 0.929 . S
H220 C228 0.929 . S
H221 C230 0.930 . S
H222 C232 0.930 . S
H223 C235 0.929 . S
H224 C238 0.930 . S
H225 C240 0.960 . S
H226 C240 0.960 . S
H227 C240 0.960 . S
C228 H220 0.929 . S
C228 C229 1.377 . S
C228 C230 1.384 . S
C229 C228 1.377 . S
C229 C235 1.390 . S
C230 H221 0.930 . S
C230 C228 1.384 . S
C230 C231 1.372 . S
C231 C230 1.372 . S
C231 C232 1.400 . S
C231 C236 1.490 . S
C232 H222 0.930 . S
C232 C231 1.400 . S
C232 C235 1.386 . S
H233 C249 0.930 . S
H234 C250 0.931 . S
C235 H223 0.929 . S
C235 C229 1.390 . S
C235 C232 1.386 . S
C236 C231 1.490 . S
C236 C238 1.395 . S
C236 C239 1.403 . S
H237 C243 0.930 . S
C238 H224 0.930 . S
C238 C236 1.395 . S
C238 C241 1.403 . S
C239 C236 1.403 . S
C239 C240 1.524 . S
C239 C243 1.400 . S
C240 H225 0.960 . S
C240 H226 0.960 . S
C240 H227 0.960 . S
C240 C239 1.524 . S
C241 C238 1.403 . S
C241 C242 1.392 . S
C241 C245 1.495 . S
C242 C241 1.392 . S
C242 C243 1.385 . S
C242 C244 1.478 . S
C243 H237 0.930 . S
C243 C239 1.400 . S
C243 C242 1.385 . S
C244 C242 1.478 . S
C244 C246 1.381 . S
C244 C250 1.383 . S
C245 C241 1.495 . S
C245 H251 0.959 . S
C245 H252 0.961 . S
C245 H253 0.960 . S
C246 C244 1.381 . S
C246 C247 1.394 . S
C246 H254 0.930 . S
C247 C246 1.394 . S
C247 C248 1.383 . S
C247 H255 0.929 . S
C248 C247 1.383 . S
C248 C249 1.377 . S
C249 H233 0.930 . S
C249 C248 1.377 . S
C249 C250 1.379 . S
C250 H234 0.931 . S
C250 C244 1.383 . S
C250 C249 1.379 . S
H251 C245 0.959 . S
H252 C245 0.961 . S
H253 C245 0.960 . S
H254 C246 0.930 . S
H255 C247 0.929 . S
H256 C264 0.929 . S
H257 C266 0.930 . S
H258 C268 0.930 . S
H259 C271 0.929 . S
H260 C274 0.930 . S
H261 C276 0.960 . S
H262 C276 0.960 . S
H263 C276 0.960 . S
C264 H256 0.929 . S
C264 C265 1.377 . S
C264 C266 1.384 . S
C265 C264 1.377 . S
C265 C271 1.390 . S
C266 H257 0.930 . S
C266 C264 1.384 . S
C266 C267 1.372 . S
C267 C266 1.372 . S
C267 C268 1.400 . S
C267 C272 1.490 . S
C268 H258 0.930 . S
C268 C267 1.400 . S
C268 C271 1.386 . S
H269 C285 0.930 . S
H270 C286 0.931 . S
C271 H259 0.929 . S
C271 C265 1.390 . S
C271 C268 1.386 . S
C272 C267 1.490 . S
C272 C274 1.395 . S
C272 C275 1.403 . S
H273 C279 0.930 . S
C274 H260 0.930 . S
C274 C272 1.395 . S
C274 C277 1.403 . S
C275 C272 1.403 . S
C275 C276 1.524 . S
C275 C279 1.400 . S
C276 H261 0.960 . S
C276 H262 0.960 . S
C276 H263 0.960 . S
C276 C275 1.524 . S
C277 C274 1.403 . S
C277 C278 1.392 . S
C277 C281 1.495 . S
C278 C277 1.392 . S
C278 C279 1.385 . S
C278 C280 1.478 . S
C279 H273 0.930 . S
C279 C275 1.400 . S
C279 C278 1.385 . S
C280 C278 1.478 . S
C280 C282 1.381 . S
C280 C286 1.383 . S
C281 C277 1.495 . S
C281 H287 0.959 . S
C281 H288 0.961 . S
C281 H289 0.960 . S
C282 C280 1.381 . S
C282 C283 1.394 . S
C282 H290 0.930 . S
C283 C282 1.394 . S
C283 C284 1.383 . S
C283 H291 0.929 . S
C284 C283 1.383 . S
C284 C285 1.377 . S
C285 H269 0.930 . S
C285 C284 1.377 . S
C285 C286 1.379 . S
C286 H270 0.931 . S
C286 C280 1.383 . S
C286 C285 1.379 . S
H287 C281 0.959 . S
H288 C281 0.961 . S
H289 C281 0.960 . S
H290 C282 0.930 . S
H291 C283 0.929 . S
H292 C300 0.929 . S
H293 C302 0.930 . S
H294 C304 0.930 . S
H295 C307 0.929 . S
H296 C310 0.930 . S
H297 C312 0.960 . S
H298 C312 0.960 . S
H299 C312 0.960 . S
C300 H292 0.929 . S
C300 C301 1.381 1_655 S
C300 C302 1.384 . S
C301 C300 1.381 1_455 S
C301 C307 1.387 . S
C302 H293 0.930 . S
C302 C300 1.384 . S
C302 C303 1.372 . S
C303 C302 1.372 . S
C303 C304 1.400 1_655 S
C303 C308 1.490 . S
C304 H294 0.930 . S
C304 C303 1.400 1_455 S
C304 C307 1.386 . S
H305 C321 0.930 . S
H306 C322 0.931 . S
C307 H295 0.929 . S
C307 C301 1.387 . S
C307 C304 1.386 . S
C308 C303 1.490 . S
C308 C310 1.395 . S
C308 C311 1.403 1_655 S
H309 C315 0.930 . S
C310 H296 0.930 . S
C310 C308 1.395 . S
C310 C313 1.403 . S
C311 C308 1.403 1_455 S
C311 C312 1.524 . S
C311 C315 1.400 . S
C312 H297 0.960 . S
C312 H298 0.960 . S
C312 H299 0.960 . S
C312 C311 1.524 . S
C313 C310 1.403 . S
C313 C314 1.392 . S
C313 C317 1.495 . S
C314 C313 1.392 . S
C314 C315 1.385 1_655 S
C314 C316 1.478 . S
C315 H309 0.930 . S
C315 C311 1.400 . S
C315 C314 1.385 1_455 S
C316 C314 1.478 . S
C316 C318 1.381 . S
C316 C322 1.383 1_655 S
C317 C313 1.495 . S
C317 H323 0.959 . S
C317 H324 0.961 . S
C317 H325 0.960 . S
C318 C316 1.381 . S
C318 C319 1.394 . S
C318 H326 0.930 . S
C319 C318 1.394 . S
C319 C320 1.383 . S
C319 H327 0.929 . S
C320 C319 1.383 . S
C320 C321 1.377 1_655 S
C321 H305 0.930 . S
C321 C320 1.377 1_455 S
C321 C322 1.379 . S
C322 H306 0.931 . S
C322 C316 1.383 1_455 S
C322 C321 1.379 . S
H323 C317 0.959 . S
H324 C317 0.961 . S
H325 C317 0.960 . S
H326 C318 0.930 . S
H327 C319 0.929 . S
H328 C336 0.929 . S
H329 C338 0.930 . S
H330 C340 0.930 . S
H331 C343 0.929 1_554 S
H332 C346 0.930 1_545 S
H333 C348 0.960 . S
H334 C348 0.960 . S
H335 C348 0.960 . S
C336 H328 0.929 . S
C336 C337 1.377 . S
C336 C338 1.384 . S
C337 C336 1.377 . S
C337 C343 1.390 . S
C338 H329 0.930 . S
C338 C336 1.384 . S
C338 C339 1.372 . S
C339 C338 1.372 . S
C339 C340 1.400 . S
C339 C344 1.490 . S
C340 H330 0.930 . S
C340 C339 1.400 . S
C340 C343 1.386 . S
H341 C357 0.930 . S
H342 C358 0.931 . S
C343 H331 0.929 1_556 S
C343 C337 1.390 . S
C343 C340 1.386 . S
C344 C339 1.490 . S
C344 C346 1.395 . S
C344 C347 1.403 . S
H345 C351 0.930 . S
C346 H332 0.930 1_565 S
C346 C344 1.395 . S
C346 C349 1.403 . S
C347 C344 1.403 . S
C347 C348 1.524 . S
C347 C351 1.400 . S
C348 H333 0.960 . S
C348 H334 0.960 . S
C348 H335 0.960 . S
C348 C347 1.524 . S
C349 C346 1.403 . S
C349 C350 1.392 . S
C349 C353 1.495 1_565 S
C350 C349 1.392 . S
C350 C351 1.385 . S
C350 C352 1.478 . S
C351 H345 0.930 . S
C351 C347 1.400 . S
C351 C350 1.385 . S
C352 C350 1.478 . S
C352 C354 1.381 . S
C352 C358 1.383 . S
C353 C349 1.495 1_545 S
C353 H359 0.959 . S
C353 H360 0.961 . S
C353 H361 0.960 . S
C354 C352 1.381 . S
C354 C355 1.394 . S
C354 H362 0.919 1_565 S
C355 C354 1.394 . S
C355 C356 1.383 . S
C355 H363 0.929 1_565 S
C356 C355 1.383 . S
C356 C357 1.377 . S
C357 H341 0.930 . S
C357 C356 1.377 . S
C357 C358 1.379 . S
C358 H342 0.931 . S
C358 C352 1.383 . S
C358 C357 1.379 . S
H359 C353 0.959 . S
H360 C353 0.961 . S
H361 C353 0.960 . S
H362 C354 0.919 1_545 S
H363 C355 0.929 1_545 S
H364 C372 0.929 . S
H365 C374 0.930 . S
H366 C376 0.930 . S
H367 C379 0.929 . S
H368 C382 0.930 . S
H369 C384 0.960 . S
H370 C384 0.960 . S
H371 C384 0.960 . S
C372 H364 0.929 . S
C372 C373 1.377 . S
C372 C374 1.384 . S
C373 C372 1.377 . S
C373 C379 1.390 1_554 S
C374 H365 0.930 . S
C374 C372 1.384 . S
C374 C375 1.372 1_554 S
C375 C374 1.372 1_556 S
C375 C376 1.400 . S
C375 C380 1.490 . S
C376 H366 0.930 . S
C376 C375 1.400 . S
C376 C379 1.386 . S
H377 C393 0.930 . S
H378 C394 0.931 . S
C379 H367 0.929 . S
C379 C373 1.390 1_556 S
C379 C376 1.386 . S
C380 C375 1.490 . S
C380 C382 1.395 . S
C380 C383 1.403 . S
H381 C387 0.930 . S
C382 H368 0.930 . S
C382 C380 1.395 . S
C382 C385 1.403 . S
C383 C380 1.403 . S
C383 C384 1.524 . S
C383 C387 1.400 . S
C384 H369 0.960 . S
C384 H370 0.960 . S
C384 H371 0.960 . S
C384 C383 1.524 . S
C385 C382 1.403 . S
C385 C386 1.392 . S
C385 C389 1.495 . S
C386 C385 1.392 . S
C386 C387 1.385 . S
C386 C388 1.478 . S
C387 H381 0.930 . S
C387 C383 1.400 . S
C387 C386 1.385 . S
C388 C386 1.478 . S
C388 C390 1.381 . S
C388 C394 1.383 . S
C389 C385 1.495 . S
C389 H395 0.959 . S
C389 H396 0.961 . S
C389 H397 0.960 . S
C390 C388 1.381 . S
C390 C391 1.394 . S
C390 H398 0.930 . S
C391 C390 1.394 . S
C391 C392 1.383 . S
C391 H399 0.929 . S
C392 C391 1.383 . S
C392 C393 1.377 . S
C393 H377 0.930 . S
C393 C392 1.377 . S
C393 C394 1.379 . S
C394 H378 0.931 . S
C394 C388 1.383 . S
C394 C393 1.379 . S
H395 C389 0.959 . S
H396 C389 0.961 . S
H397 C389 0.960 . S
H398 C390 0.930 . S
H399 C391 0.929 . S
H400 C408 0.929 . S
H401 C410 0.930 . S
H402 C412 0.930 . S
H403 C415 0.929 . S
H404 C418 0.930 . S
H405 C420 0.960 . S
H406 C420 0.960 . S
H407 C420 0.960 . S
C408 H400 0.929 . S
C408 C409 1.377 . S
C408 C410 1.384 1_554 S
C409 C408 1.377 . S
C409 C415 1.390 1_554 S
C410 H401 0.930 . S
C410 C408 1.384 1_556 S
C410 C411 1.372 . S
C411 C410 1.372 . S
C411 C412 1.400 . S
C411 C416 1.490 . S
C412 H402 0.930 . S
C412 C411 1.400 . S
C412 C415 1.386 . S
H413 C429 0.930 . S
H414 C430 0.931 . S
C415 H403 0.929 . S
C415 C409 1.390 1_556 S
C415 C412 1.386 . S
C416 C411 1.490 . S
C416 C418 1.395 . S
C416 C419 1.403 . S
H417 C423 0.930 . S
C418 H404 0.930 . S
C418 C416 1.395 . S
C418 C421 1.403 . S
C419 C416 1.403 . S
C419 C420 1.524 . S
C419 C423 1.400 . S
C420 H405 0.960 . S
C420 H406 0.960 . S
C420 H407 0.960 . S
C420 C419 1.524 . S
C421 C418 1.403 . S
C421 C422 1.392 . S
C421 C425 1.495 . S
C422 C421 1.392 . S
C422 C423 1.385 . S
C422 C424 1.478 . S
C423 H417 0.930 . S
C423 C419 1.400 . S
C423 C422 1.385 . S
C424 C422 1.478 . S
C424 C426 1.381 . S
C424 C430 1.383 . S
C425 C421 1.495 . S
C425 H431 0.959 . S
C425 H432 0.961 . S
C425 H433 0.960 . S
C426 C424 1.381 . S
C426 C427 1.394 . S
C426 H434 0.930 . S
C427 C426 1.394 . S
C427 C428 1.383 . S
C427 H435 0.929 . S
C428 C427 1.383 . S
C428 C429 1.377 . S
C429 H413 0.930 . S
C429 C428 1.377 . S
C429 C430 1.379 . S
C430 H414 0.931 . S
C430 C424 1.383 . S
C430 C429 1.379 . S
H431 C425 0.959 . S
H432 C425 0.961 . S
H433 C425 0.960 . S
H434 C426 0.930 . S
H435 C427 0.929 . S
H436 C444 0.929 . S
H437 C446 0.930 . S
H438 C448 0.930 . S
H439 C451 0.929 . S
H440 C454 0.930 . S
H441 C456 0.960 . S
H442 C456 0.960 . S
H443 C456 0.960 . S
C444 H436 0.929 . S
C444 C445 1.379 . S
C444 C446 1.384 1_554 S
C445 C444 1.379 . S
C445 C451 1.386 1_654 S
C446 H437 0.930 . S
C446 C444 1.384 1_556 S
C446 C447 1.406 . S
C447 C446 1.406 . S
C447 C448 1.368 1_655 S
C447 C452 1.489 . S
C448 H438 0.930 . S
C448 C447 1.368 1_455 S
C448 C451 1.386 . S
H449 C465 0.930 . S
H450 C466 0.931 . S
C451 H439 0.929 . S
C451 C445 1.386 1_456 S
C451 C448 1.386 . S
C452 C447 1.489 . S
C452 C454 1.395 . S
C452 C455 1.403 1_655 S
H453 C459 0.930 . S
C454 H440 0.930 . S
C454 C452 1.395 . S
C454 C457 1.403 . S
C455 C452 1.403 1_455 S
C455 C456 1.524 . S
C455 C459 1.400 . S
C456 H441 0.960 . S
C456 H442 0.960 . S
C456 H443 0.960 . S
C456 C455 1.524 . S
C457 C454 1.403 . S
C457 C458 1.392 . S
C457 C461 1.495 . S
C458 C457 1.392 . S
C458 C459 1.385 1_655 S
C458 C460 1.478 . S
C459 H453 0.930 . S
C459 C455 1.400 . S
C459 C458 1.385 1_455 S
C460 C458 1.478 . S
C460 C462 1.381 . S
C460 C466 1.383 1_655 S
C461 C457 1.495 . S
C461 H467 0.959 . S
C461 H468 0.961 . S
C461 H469 0.960 . S
C462 C460 1.381 . S
C462 C463 1.394 . S
C462 H470 0.930 . S
C463 C462 1.394 . S
C463 C464 1.393 . S
C463 H471 0.929 . S
C464 C463 1.393 . S
C464 C465 1.368 1_655 S
C465 H449 0.930 . S
C465 C464 1.368 1_455 S
C465 C466 1.379 . S
C466 H450 0.931 . S
C466 C460 1.383 1_455 S
C466 C465 1.379 . S
H467 C461 0.959 . S
H468 C461 0.961 . S
H469 C461 0.960 . S
H470 C462 0.930 . S
H471 C463 0.929 . S
H472 C480 0.929 . S
H473 C482 0.930 . S
H474 C484 0.930 . S
H475 C487 0.929 . S
H476 C490 0.930 . S
H477 C492 0.960 . S
H478 C492 0.960 . S
H479 C492 0.960 . S
C480 H472 0.929 . S
C480 C481 1.379 1_655 S
C480 C482 1.384 . S
C481 C480 1.379 1_455 S
C481 C487 1.388 . S
C482 H473 0.930 . S
C482 C480 1.384 . S
C482 C483 1.372 . S
C483 C482 1.372 . S
C483 C484 1.400 1_655 S
C483 C488 1.490 . S
C484 H474 0.930 . S
C484 C483 1.400 1_455 S
C484 C487 1.386 . S
H485 C501 0.930 . S
H486 C502 0.931 . S
C487 H475 0.929 . S
C487 C481 1.388 . S
C487 C484 1.386 . S
C488 C483 1.490 . S
C488 C490 1.395 . S
C488 C491 1.403 1_655 S
H489 C495 0.930 . S
C490 H476 0.930 . S
C490 C488 1.395 . S
C490 C493 1.403 . S
C491 C488 1.403 1_455 S
C491 C492 1.524 . S
C491 C495 1.400 . S
C492 H477 0.960 . S
C492 H478 0.960 . S
C492 H479 0.960 . S
C492 C491 1.524 . S
C493 C490 1.403 . S
C493 C494 1.392 . S
C493 C497 1.495 . S
C494 C493 1.392 . S
C494 C495 1.385 1_655 S
C494 C496 1.478 . S
C495 H489 0.930 . S
C495 C491 1.400 . S
C495 C494 1.385 1_455 S
C496 C494 1.478 . S
C496 C498 1.381 . S
C496 C502 1.383 1_655 S
C497 C493 1.495 . S
C497 H503 0.959 . S
C497 H504 0.961 . S
C497 H505 0.960 . S
C498 C496 1.381 . S
C498 C499 1.394 . S
C498 H506 0.930 . S
C499 C498 1.394 . S
C499 C500 1.383 . S
C499 H507 0.929 . S
C500 C499 1.383 . S
C500 C501 1.377 1_655 S
C501 H485 0.930 . S
C501 C500 1.377 1_455 S
C501 C502 1.379 . S
C502 H486 0.931 . S
C502 C496 1.383 1_455 S
C502 C501 1.379 . S
H503 C497 0.959 . S
H504 C497 0.961 . S
H505 C497 0.960 . S
H506 C498 0.930 . S
H507 C499 0.929 . S
H508 C516 0.929 . S
H509 C518 0.930 . S
H510 C520 0.930 . S
H511 C523 0.929 . S
H512 C526 0.930 . S
H513 C528 0.960 . S
H514 C528 0.960 . S
H515 C528 0.960 . S
C516 H508 0.929 . S
C516 C517 1.377 . S
C516 C518 1.384 . S
C517 C516 1.377 . S
C517 C523 1.390 . S
C518 H509 0.930 . S
C518 C516 1.384 . S
C518 C519 1.372 . S
C519 C518 1.372 . S
C519 C520 1.400 . S
C519 C524 1.490 . S
C520 H510 0.930 . S
C520 C519 1.400 . S
C520 C523 1.386 . S
H521 C537 0.930 . S
H522 C538 0.931 . S
C523 H511 0.929 . S
C523 C517 1.390 . S
C523 C520 1.386 . S
C524 C519 1.490 . S
C524 C526 1.395 . S
C524 C527 1.403 . S
H525 C531 0.930 . S
C526 H512 0.930 . S
C526 C524 1.395 . S
C526 C529 1.403 . S
C527 C524 1.403 . S
C527 C528 1.524 . S
C527 C531 1.400 . S
C528 H513 0.960 . S
C528 H514 0.960 . S
C528 H515 0.960 . S
C528 C527 1.524 . S
C529 C526 1.403 . S
C529 C530 1.392 . S
C529 C533 1.495 . S
C530 C529 1.392 . S
C530 C531 1.385 . S
C530 C532 1.478 . S
C531 H525 0.930 . S
C531 C527 1.400 . S
C531 C530 1.385 . S
C532 C530 1.478 . S
C532 C534 1.381 . S
C532 C538 1.383 1_545 S
C533 C529 1.495 . S
C533 H539 0.959 . S
C533 H540 0.961 1_545 S
C533 H541 0.960 . S
C534 C532 1.381 . S
C534 C535 1.394 . S
C534 H542 0.930 . S
C535 C534 1.394 . S
C535 C536 1.383 . S
C535 H543 0.929 . S
C536 C535 1.383 . S
C536 C537 1.377 1_545 S
C537 H521 0.930 . S
C537 C536 1.377 1_565 S
C537 C538 1.379 . S
C538 H522 0.931 . S
C538 C532 1.383 1_565 S
C538 C537 1.379 . S
H539 C533 0.959 . S
H540 C533 0.961 1_565 S
H541 C533 0.960 . S
H542 C534 0.930 . S
H543 C535 0.929 . S
H544 C552 0.929 . S
H545 C554 0.930 . S
H546 C556 0.930 . S
H547 C559 0.929 . S
H548 C562 0.930 . S
H549 C564 0.960 . S
H550 C564 0.960 . S
H551 C564 0.960 . S
C552 H544 0.929 . S
C552 C553 1.377 . S
C552 C554 1.384 . S
C553 C552 1.377 . S
C553 C559 1.390 . S
C554 H545 0.930 . S
C554 C552 1.384 . S
C554 C555 1.372 . S
C555 C554 1.372 . S
C555 C556 1.400 . S
C555 C560 1.490 . S
C556 H546 0.930 . S
C556 C555 1.400 . S
C556 C559 1.386 . S
H557 C573 0.930 . S
H558 C574 0.931 . S
C559 H547 0.929 . S
C559 C553 1.390 . S
C559 C556 1.386 . S
C560 C555 1.490 . S
C560 C562 1.395 . S
C560 C563 1.403 . S
H561 C567 0.930 . S
C562 H548 0.930 . S
C562 C560 1.395 . S
C562 C565 1.403 . S
C563 C560 1.403 . S
C563 C564 1.524 . S
C563 C567 1.400 . S
C564 H549 0.960 . S
C564 H550 0.960 . S
C564 H551 0.960 . S
C564 C563 1.524 . S
C565 C562 1.403 . S
C565 C566 1.392 . S
C565 C569 1.495 . S
C566 C565 1.392 . S
C566 C567 1.385 . S
C566 C568 1.478 . S
C567 H561 0.930 . S
C567 C563 1.400 . S
C567 C566 1.385 . S
C568 C566 1.478 . S
C568 C570 1.381 . S
C568 C574 1.383 . S
C569 C565 1.495 . S
C569 H575 0.959 . S
C569 H576 0.961 . S
C569 H577 0.960 . S
C570 C568 1.381 . S
C570 C571 1.394 . S
C570 H578 0.930 . S
C571 C570 1.394 . S
C571 C572 1.383 . S
C571 H579 0.929 . S
C572 C571 1.383 . S
C572 C573 1.377 . S
C573 H557 0.930 . S
C573 C572 1.377 . S
C573 C574 1.379 . S
C574 H558 0.931 . S
C574 C568 1.383 . S
C574 C573 1.379 . S
H575 C569 0.959 . S
H576 C569 0.961 . S
H577 C569 0.960 . S
H578 C570 0.930 . S
H579 C571 0.929 . S
H580 C588 0.929 . S
H581 C590 0.930 . S
H582 C592 0.930 . S
H583 C595 0.929 . S
H584 C598 0.930 . S
H585 C600 0.960 . S
H586 C600 0.960 . S
H587 C600 0.960 . S
C588 H580 0.929 . S
C588 C589 1.377 . S
C588 C590 1.384 . S
C589 C588 1.377 . S
C589 C595 1.390 . S
C590 H581 0.930 . S
C590 C588 1.384 . S
C590 C591 1.372 . S
C591 C590 1.372 . S
C591 C592 1.400 . S
C591 C596 1.490 . S
C592 H582 0.930 . S
C592 C591 1.400 . S
C592 C595 1.386 . S
H593 C609 0.930 . S
H594 C610 0.931 . S
C595 H583 0.929 . S
C595 C589 1.390 . S
C595 C592 1.386 . S
C596 C591 1.490 . S
C596 C598 1.395 . S
C596 C599 1.403 . S
H597 C603 0.930 . S
C598 H584 0.930 . S
C598 C596 1.395 . S
C598 C601 1.403 . S
C599 C596 1.403 . S
C599 C600 1.524 . S
C599 C603 1.400 . S
C600 H585 0.960 . S
C600 H586 0.960 . S
C600 H587 0.960 . S
C600 C599 1.524 . S
C601 C598 1.403 . S
C601 C602 1.392 . S
C601 C605 1.495 . S
C602 C601 1.392 . S
C602 C603 1.385 . S
C602 C604 1.478 . S
C603 H597 0.930 . S
C603 C599 1.400 . S
C603 C602 1.385 . S
C604 C602 1.478 . S
C604 C606 1.381 . S
C604 C610 1.383 . S
C605 C601 1.495 . S
C605 H611 0.959 . S
C605 H612 0.961 . S
C605 H613 0.960 . S
C606 C604 1.381 . S
C606 C607 1.394 . S
C606 H614 0.930 . S
C607 C606 1.394 . S
C607 C608 1.383 . S
C607 H615 0.929 . S
C608 C607 1.383 . S
C608 C609 1.377 . S
C609 H593 0.930 . S
C609 C608 1.377 . S
C609 C610 1.379 . S
C610 H594 0.931 . S
C610 C604 1.383 . S
C610 C609 1.379 . S
H611 C605 0.959 . S
H612 C605 0.961 . S
H613 C605 0.960 . S
H614 C606 0.930 . S
H615 C607 0.929 . S
H616 C624 0.929 . S
H617 C626 0.930 1_554 S
H618 C628 0.930 . S
H619 C631 0.929 . S
H620 C634 0.930 . S
H621 C636 0.960 . S
H622 C636 0.960 . S
H623 C636 0.960 . S
C624 H616 0.929 . S
C624 C625 1.392 1_554 S
C624 C626 1.384 1_554 S
C625 C624 1.392 1_556 S
C625 C631 1.377 1_655 S
C626 H617 0.930 1_556 S
C626 C624 1.384 1_556 S
C626 C627 1.372 1_655 S
C627 C626 1.372 1_455 S
C627 C628 1.400 . S
C627 C632 1.490 . S
C628 H618 0.930 . S
C628 C627 1.400 . S
C628 C631 1.386 . S
H629 C645 0.930 . S
H630 C646 0.931 . S
C631 H619 0.929 . S
C631 C625 1.377 1_455 S
C631 C628 1.386 . S
C632 C627 1.490 . S
C632 C634 1.395 . S
C632 C635 1.403 1_455 S
H633 C639 0.930 . S
C634 H620 0.930 . S
C634 C632 1.395 . S
C634 C637 1.403 . S
C635 C632 1.403 1_655 S
C635 C636 1.524 . S
C635 C639 1.400 . S
C636 H621 0.960 . S
C636 H622 0.960 . S
C636 H623 0.960 . S
C636 C635 1.524 . S
C637 C634 1.403 . S
C637 C638 1.392 . S
C637 C641 1.495 . S
C638 C637 1.392 . S
C638 C639 1.385 1_455 S
C638 C640 1.478 . S
C639 H633 0.930 . S
C639 C635 1.400 . S
C639 C638 1.385 1_655 S
C640 C638 1.478 . S
C640 C642 1.381 1_455 S
C640 C646 1.383 . S
C641 C637 1.495 . S
C641 H647 0.959 . S
C641 H648 0.961 . S
C641 H649 0.960 . S
C642 C640 1.381 1_655 S
C642 C643 1.394 . S
C642 H650 0.930 . S
C643 C642 1.394 . S
C643 C644 1.383 1_655 S
C643 H651 0.929 . S
C644 C643 1.383 1_455 S
C644 C645 1.377 . S
C645 H629 0.930 . S
C645 C644 1.377 . S
C645 C646 1.379 . S
C646 H630 0.931 . S
C646 C640 1.383 . S
C646 C645 1.379 . S
H647 C641 0.959 . S
H648 C641 0.961 . S
H649 C641 0.960 . S
H650 C642 0.930 . S
H651 C643 0.929 . S
H652 C660 0.929 . S
H653 C662 0.930 . S
H654 C664 0.930 1_554 S
H655 C667 0.929 . S
H656 C670 0.930 . S
H657 C672 0.960 . S
H658 C672 0.971 . S
H659 C672 0.960 . S
C660 H652 0.929 . S
C660 C661 1.377 . S
C660 C662 1.384 . S
C661 C660 1.377 . S
C661 C667 1.390 1_556 S
C662 H653 0.930 . S
C662 C660 1.384 . S
C662 C663 1.372 . S
C663 C662 1.372 . S
C663 C664 1.400 . S
C663 C668 1.490 . S
C664 H654 0.930 1_556 S
C664 C663 1.400 . S
C664 C667 1.386 1_556 S
H665 C681 0.930 . S
H666 C682 0.931 . S
C667 H655 0.929 . S
C667 C661 1.390 1_554 S
C667 C664 1.386 1_554 S
C668 C663 1.490 . S
C668 C670 1.395 . S
C668 C671 1.403 . S
H669 C675 0.930 . S
C670 H656 0.930 . S
C670 C668 1.395 . S
C670 C673 1.403 . S
C671 C668 1.403 . S
C671 C672 1.524 1_556 S
C671 C675 1.400 . S
C672 H657 0.960 . S
C672 H658 0.971 . S
C672 H659 0.960 . S
C672 C671 1.524 1_554 S
C673 C670 1.403 . S
C673 C674 1.392 . S
C673 C677 1.495 . S
C674 C673 1.392 . S
C674 C675 1.385 . S
C674 C676 1.478 . S
C675 H669 0.930 . S
C675 C671 1.400 . S
C675 C674 1.385 . S
C676 C674 1.478 . S
C676 C678 1.363 1_565 S
C676 C682 1.383 . S
C677 C673 1.495 . S
C677 H683 0.959 . S
C677 H684 0.961 . S
C677 H685 0.960 . S
C678 C676 1.363 1_545 S
C678 C679 1.404 . S
C678 H686 0.940 . S
C679 C678 1.404 . S
C679 C680 1.383 1_545 S
C679 H687 0.929 . S
C680 C679 1.383 1_565 S
C680 C681 1.377 . S
C681 H665 0.930 . S
C681 C680 1.377 . S
C681 C682 1.379 . S
C682 H666 0.931 . S
C682 C676 1.383 . S
C682 C681 1.379 . S
H683 C677 0.959 . S
H684 C677 0.961 . S
H685 C677 0.960 . S
H686 C678 0.940 . S
H687 C679 0.929 . S
H688 C696 0.929 . S
H689 C698 0.930 . S
H690 C700 0.930 . S
H691 C703 0.929 . S
H692 C706 0.930 . S
H693 C708 0.960 . S
H694 C708 0.960 . S
H695 C708 0.960 . S
C696 H688 0.929 . S
C696 C697 1.377 . S
C696 C698 1.384 1_554 S
C697 C696 1.377 . S
C697 C703 1.390 . S
C698 H689 0.930 . S
C698 C696 1.384 1_556 S
C698 C699 1.372 . S
C699 C698 1.372 . S
C699 C700 1.400 1_556 S
C699 C704 1.490 . S
C700 H690 0.930 . S
C700 C699 1.400 1_554 S
C700 C703 1.386 . S
H701 C717 0.930 . S
H702 C718 0.931 . S
C703 H691 0.929 . S
C703 C697 1.390 . S
C703 C700 1.386 . S
C704 C699 1.490 . S
C704 C706 1.395 . S
C704 C707 1.403 . S
H705 C711 0.930 . S
C706 H692 0.930 . S
C706 C704 1.395 . S
C706 C709 1.403 . S
C707 C704 1.403 . S
C707 C708 1.524 1_556 S
C707 C711 1.400 . S
C708 H693 0.960 . S
C708 H694 0.960 . S
C708 H695 0.960 . S
C708 C707 1.524 1_554 S
C709 C706 1.403 . S
C709 C710 1.392 . S
C709 C713 1.495 . S
C710 C709 1.392 . S
C710 C711 1.385 . S
C710 C712 1.478 . S
C711 H705 0.930 . S
C711 C707 1.400 . S
C711 C710 1.385 . S
C712 C710 1.478 . S
C712 C714 1.381 . S
C712 C718 1.383 . S
C713 C709 1.495 . S
C713 H719 0.959 . S
C713 H720 0.961 . S
C713 H721 0.960 . S
C714 C712 1.381 . S
C714 C715 1.394 . S
C714 H722 0.930 . S
C715 C714 1.394 . S
C715 C716 1.383 . S
C715 H723 0.929 . S
C716 C715 1.383 . S
C716 C717 1.377 . S
C717 H701 0.930 . S
C717 C716 1.377 . S
C717 C718 1.379 . S
C718 H702 0.931 . S
C718 C712 1.383 . S
C718 C717 1.379 . S
H719 C713 0.959 . S
H720 C713 0.961 . S
H721 C713 0.960 . S
H722 C714 0.930 . S
H723 C715 0.929 . S
H724 C732 0.929 . S
H725 C734 0.930 . S
H726 C736 0.930 . S
H727 C739 0.929 . S
H728 C742 0.930 . S
H729 C744 0.960 . S
H730 C744 0.960 . S
H731 C744 0.960 . S
C732 H724 0.929 . S
C732 C733 1.377 1_556 S
C732 C734 1.384 . S
C733 C732 1.377 1_554 S
C733 C739 1.390 . S
C734 H725 0.930 . S
C734 C732 1.384 . S
C734 C735 1.372 . S
C735 C734 1.372 . S
C735 C736 1.400 1_556 S
C735 C740 1.490 . S
C736 H726 0.930 . S
C736 C735 1.400 1_554 S
C736 C739 1.386 . S
H737 C753 0.930 . S
H738 C754 0.931 . S
C739 H727 0.929 . S
C739 C733 1.390 . S
C739 C736 1.386 . S
C740 C735 1.490 . S
C740 C742 1.395 . S
C740 C743 1.403 . S
H741 C747 0.930 . S
C742 H728 0.930 . S
C742 C740 1.395 . S
C742 C745 1.403 . S
C743 C740 1.403 . S
C743 C744 1.524 . S
C743 C747 1.400 . S
C744 H729 0.960 . S
C744 H730 0.960 . S
C744 H731 0.960 . S
C744 C743 1.524 . S
C745 C742 1.403 . S
C745 C746 1.392 . S
C745 C749 1.495 . S
C746 C745 1.392 . S
C746 C747 1.385 . S
C746 C748 1.478 . S
C747 H741 0.930 . S
C747 C743 1.400 . S
C747 C746 1.385 . S
C748 C746 1.478 . S
C748 C750 1.381 . S
C748 C754 1.383 . S
C749 C745 1.495 . S
C749 H755 0.959 . S
C749 H756 0.961 . S
C749 H757 0.960 . S
C750 C748 1.381 . S
C750 C751 1.394 . S
C750 H758 0.930 . S
C751 C750 1.394 . S
C751 C752 1.383 . S
C751 H759 0.929 . S
C752 C751 1.383 . S
C752 C753 1.377 . S
C753 H737 0.930 . S
C753 C752 1.377 . S
C753 C754 1.379 . S
C754 H738 0.931 . S
C754 C748 1.383 . S
C754 C753 1.379 . S
H755 C749 0.959 . S
H756 C749 0.961 . S
H757 C749 0.960 . S
H758 C750 0.930 . S
H759 C751 0.929 . S
H760 C768 0.929 . S
H761 C770 0.930 . S
H762 C772 0.930 . S
H763 C775 0.929 . S
H764 C778 0.930 . S
H765 C780 0.960 . S
H766 C780 0.960 . S
H767 C780 0.960 . S
C768 H760 0.929 . S
C768 C769 1.383 1_556 S
C768 C770 1.384 . S
C769 C768 1.383 1_554 S
C769 C775 1.386 1_455 S
C770 H761 0.930 . S
C770 C768 1.384 . S
C770 C771 1.372 . S
C771 C770 1.372 . S
C771 C772 1.400 1_456 S
C771 C776 1.490 . S
C772 H762 0.930 . S
C772 C771 1.400 1_654 S
C772 C775 1.386 . S
H773 C789 0.928 1_655 S
H774 C790 0.943 . S
C775 H763 0.929 . S
C775 C769 1.386 1_655 S
C775 C772 1.386 . S
C776 C771 1.490 . S
C776 C778 1.395 . S
C776 C779 1.403 1_455 S
H777 C783 0.930 . S
C778 H764 0.930 . S
C778 C776 1.395 . S
C778 C781 1.403 . S
C779 C776 1.403 1_655 S
C779 C780 1.524 . S
C779 C783 1.400 . S
C780 H765 0.960 . S
C780 H766 0.960 . S
C780 H767 0.960 . S
C780 C779 1.524 . S
C781 C778 1.403 . S
C781 C782 1.392 . S
C781 C785 1.495 . S
C782 C781 1.392 . S
C782 C783 1.385 1_455 S
C782 C784 1.478 . S
C783 H777 0.930 . S
C783 C779 1.400 . S
C783 C782 1.385 1_655 S
C784 C782 1.478 . S
C784 C786 1.381 . S
C784 C790 1.383 . S
C785 C781 1.495 . S
C785 H791 0.959 . S
C785 H792 0.961 . S
C785 H793 0.960 . S
C786 C784 1.381 . S
C786 C787 1.394 . S
C786 H794 0.930 . S
C787 C786 1.394 . S
C787 C788 1.383 . S
C787 H795 0.929 . S
C788 C787 1.383 . S
C788 C789 1.377 . S
C789 H773 0.928 1_455 S
C789 C788 1.377 . S
C789 C790 1.379 . S
C790 H774 0.943 . S
C790 C784 1.383 . S
C790 C789 1.379 . S
H791 C785 0.959 . S
H792 C785 0.961 . S
H793 C785 0.960 . S
H794 C786 0.930 . S
H795 C787 0.929 . S
H796 C804 0.929 . S
H797 C806 0.930 . S
H798 C808 0.930 . S
H799 C811 0.929 . S
H800 C814 0.930 1_554 S
H801 C816 0.960 . S
H802 C816 0.960 . S
H803 C816 0.960 . S
C804 H796 0.929 . S
C804 C805 1.377 . S
C804 C806 1.384 1_554 S
C805 C804 1.377 . S
C805 C811 1.390 . S
C806 H797 0.930 . S
C806 C804 1.384 1_556 S
C806 C807 1.372 . S
C807 C806 1.372 . S
C807 C808 1.400 . S
C807 C812 1.490 . S
C808 H798 0.930 . S
C808 C807 1.400 . S
C808 C811 1.386 1_556 S
H809 C825 0.930 . S
H810 C826 0.931 1_565 S
C811 H799 0.929 . S
C811 C805 1.390 . S
C811 C808 1.386 1_554 S
C812 C807 1.490 . S
C812 C814 1.395 . S
C812 C815 1.403 . S
H813 C819 0.930 . S
C814 H800 0.930 1_556 S
C814 C812 1.395 . S
C814 C817 1.403 . S
C815 C812 1.403 . S
C815 C816 1.524 . S
C815 C819 1.400 . S
C816 H801 0.960 . S
C816 H802 0.960 . S
C816 H803 0.960 . S
C816 C815 1.524 . S
C817 C814 1.403 . S
C817 C818 1.392 . S
C817 C821 1.495 . S
C818 C817 1.392 . S
C818 C819 1.385 . S
C818 C820 1.478 . S
C819 H813 0.930 . S
C819 C815 1.400 . S
C819 C818 1.385 . S
C820 C818 1.478 . S
C820 C822 1.381 . S
C820 C826 1.383 . S
C821 C817 1.495 . S
C821 H827 0.959 1_556 S
C821 H828 0.961 . S
C821 H829 0.960 . S
C822 C820 1.381 . S
C822 C823 1.394 . S
C822 H830 0.930 . S
C823 C822 1.394 . S
C823 C824 1.383 . S
C823 H831 0.929 . S
C824 C823 1.383 . S
C824 C825 1.377 1_545 S
C825 H809 0.930 . S
C825 C824 1.377 1_565 S
C825 C826 1.379 1_565 S
C826 H810 0.931 1_545 S
C826 C820 1.383 . S
C826 C825 1.379 1_545 S
H827 C821 0.959 1_554 S
H828 C821 0.961 . S
H829 C821 0.960 . S
H830 C822 0.930 . S
H831 C823 0.929 . S
H832 C840 0.929 1_554 S
H833 C842 0.930 . S
H834 C844 0.930 . S
H835 C847 0.929 . S
H836 C850 0.930 . S
H837 C852 0.960 . S
H838 C852 0.960 . S
H839 C852 0.960 . S
C840 H832 0.929 1_556 S
C840 C841 1.377 . S
C840 C842 1.384 . S
C841 C840 1.377 . S
C841 C847 1.390 . S
C842 H833 0.930 . S
C842 C840 1.384 . S
C842 C843 1.372 . S
C843 C842 1.372 . S
C843 C844 1.400 . S
C843 C848 1.490 . S
C844 H834 0.930 . S
C844 C843 1.400 . S
C844 C847 1.386 . S
H845 C861 0.930 . S
H846 C862 0.931 . S
C847 H835 0.929 . S
C847 C841 1.390 . S
C847 C844 1.386 . S
C848 C843 1.490 . S
C848 C850 1.395 . S
C848 C851 1.403 . S
H849 C855 0.930 . S
C850 H836 0.930 . S
C850 C848 1.395 . S
C850 C853 1.403 . S
C851 C848 1.403 . S
C851 C852 1.524 . S
C851 C855 1.400 . S
C852 H837 0.960 . S
C852 H838 0.960 . S
C852 H839 0.960 . S
C852 C851 1.524 . S
C853 C850 1.403 . S
C853 C854 1.392 . S
C853 C857 1.495 . S
C854 C853 1.392 . S
C854 C855 1.385 . S
C854 C856 1.478 . S
C855 H849 0.930 . S
C855 C851 1.400 . S
C855 C854 1.385 . S
C856 C854 1.478 . S
C856 C858 1.381 . S
C856 C862 1.383 . S
C857 C853 1.495 . S
C857 H863 0.959 . S
C857 H864 0.961 . S
C857 H865 0.960 . S
C858 C856 1.381 . S
C858 C859 1.394 . S
C858 H866 0.930 . S
C859 C858 1.394 . S
C859 C860 1.383 . S
C859 H867 0.929 . S
C860 C859 1.383 . S
C860 C861 1.377 . S
C861 H845 0.930 . S
C861 C860 1.377 . S
C861 C862 1.379 . S
C862 H846 0.931 . S
C862 C856 1.383 . S
C862 C861 1.379 . S
H863 C857 0.959 . S
H864 C857 0.961 . S
H865 C857 0.960 . S
H866 C858 0.930 . S
H867 C859 0.929 . S
H868 C876 0.929 1_554 S
H869 C878 0.930 . S
H870 C880 0.930 . S
H871 C883 0.929 . S
H872 C886 0.930 . S
H873 C888 0.960 . S
H874 C888 0.960 . S
H875 C888 0.960 . S
C876 H868 0.929 1_556 S
C876 C877 1.377 . S
C876 C878 1.384 . S
C877 C876 1.377 . S
C877 C883 1.390 . S
C878 H869 0.930 . S
C878 C876 1.384 . S
C878 C879 1.372 . S
C879 C878 1.372 . S
C879 C880 1.400 . S
C879 C884 1.490 . S
C880 H870 0.930 . S
C880 C879 1.400 . S
C880 C883 1.386 . S
H881 C897 0.930 . S
H882 C898 0.931 . S
C883 H871 0.929 . S
C883 C877 1.390 . S
C883 C880 1.386 . S
C884 C879 1.490 . S
C884 C886 1.395 . S
C884 C887 1.403 . S
H885 C891 0.930 . S
C886 H872 0.930 . S
C886 C884 1.395 . S
C886 C889 1.403 . S
C887 C884 1.403 . S
C887 C888 1.524 . S
C887 C891 1.400 . S
C888 H873 0.960 . S
C888 H874 0.960 . S
C888 H875 0.960 . S
C888 C887 1.524 . S
C889 C886 1.403 . S
C889 C890 1.392 . S
C889 C893 1.495 . S
C890 C889 1.392 . S
C890 C891 1.385 . S
C890 C892 1.478 . S
C891 H885 0.930 . S
C891 C887 1.400 . S
C891 C890 1.385 . S
C892 C890 1.478 . S
C892 C894 1.381 . S
C892 C898 1.383 . S
C893 C889 1.495 . S
C893 H899 0.959 . S
C893 H900 0.961 . S
C893 H901 0.960 . S
C894 C892 1.381 . S
C894 C895 1.394 . S
C894 H902 0.930 . S
C895 C894 1.394 . S
C895 C896 1.383 . S
C895 H903 0.929 . S
C896 C895 1.383 . S
C896 C897 1.377 . S
C897 H881 0.930 . S
C897 C896 1.377 . S
C897 C898 1.379 . S
C898 H882 0.931 . S
C898 C892 1.383 . S
C898 C897 1.379 . S
H899 C893 0.959 . S
H900 C893 0.961 . S
H901 C893 0.960 . S
H902 C894 0.930 . S
H903 C895 0.929 . S
H904 C912 0.929 . S
H905 C914 0.930 . S
H906 C916 0.930 . S
H907 C919 0.929 . S
H908 C922 0.930 . S
H909 C924 0.960 . S
H910 C924 0.960 . S
H911 C924 0.960 . S
C912 H904 0.929 . S
C912 C913 1.402 . S
C912 C914 1.384 . S
C913 C912 1.402 . S
C913 C919 1.369 1_655 S
C914 H905 0.930 . S
C914 C912 1.384 . S
C914 C915 1.372 . S
C915 C914 1.372 . S
C915 C916 1.400 1_655 S
C915 C920 1.490 . S
C916 H906 0.930 . S
C916 C915 1.400 1_455 S
C916 C919 1.386 . S
H917 C933 0.930 . S
H918 C934 0.931 . S
C919 H907 0.929 . S
C919 C913 1.369 1_455 S
C919 C916 1.386 . S
C920 C915 1.490 . S
C920 C922 1.395 . S
C920 C923 1.403 1_655 S
H921 C927 0.930 . S
C922 H908 0.930 . S
C922 C920 1.395 . S
C922 C925 1.403 . S
C923 C920 1.403 1_455 S
C923 C924 1.524 . S
C923 C927 1.400 . S
C924 H909 0.960 . S
C924 H910 0.960 . S
C924 H911 0.960 . S
C924 C923 1.524 . S
C925 C922 1.403 . S
C925 C926 1.392 . S
C925 C929 1.495 . S
C926 C925 1.392 . S
C926 C927 1.385 1_655 S
C926 C928 1.478 . S
C927 H921 0.930 . S
C927 C923 1.400 . S
C927 C926 1.385 1_455 S
C928 C926 1.478 . S
C928 C930 1.381 . S
C928 C934 1.383 1_655 S
C929 C925 1.495 . S
C929 H935 0.959 . S
C929 H936 0.961 . S
C929 H937 0.960 . S
C930 C928 1.381 . S
C930 C931 1.394 . S
C930 H938 0.930 . S
C931 C930 1.394 . S
C931 C932 1.383 . S
C931 H939 0.929 . S
C932 C931 1.383 . S
C932 C933 1.377 1_655 S
C933 H917 0.930 . S
C933 C932 1.377 1_455 S
C933 C934 1.379 . S
C934 H918 0.931 . S
C934 C928 1.383 1_455 S
C934 C933 1.379 . S
H935 C929 0.959 . S
H936 C929 0.961 . S
H937 C929 0.960 . S
H938 C930 0.930 . S
H939 C931 0.929 . S
H940 C948 0.929 . S
H941 C950 0.930 . S
H942 C952 0.930 . S
H943 C955 0.929 . S
H944 C958 0.952 . S
H945 C960 0.960 . S
H946 C960 0.960 . S
H947 C960 0.960 . S
C948 H940 0.929 . S
C948 C949 1.377 . S
C948 C950 1.384 . S
C949 C948 1.377 . S
C949 C955 1.390 . S
C950 H941 0.930 . S
C950 C948 1.384 . S
C950 C951 1.372 . S
C951 C950 1.372 . S
C951 C952 1.400 . S
C951 C956 1.490 . S
C952 H942 0.930 . S
C952 C951 1.400 . S
C952 C955 1.386 . S
H953 C969 0.930 . S
H954 C970 0.931 . S
C955 H943 0.929 . S
C955 C949 1.390 . S
C955 C952 1.386 . S
C956 C951 1.490 . S
C956 C958 1.395 . S
C956 C959 1.403 . S
H957 C963 0.930 . S
C958 H944 0.952 . S
C958 C956 1.395 . S
C958 C961 1.403 . S
C959 C956 1.403 . S
C959 C960 1.524 . S
C959 C963 1.400 . S
C960 H945 0.960 . S
C960 H946 0.960 . S
C960 H947 0.960 . S
C960 C959 1.524 . S
C961 C958 1.403 . S
C961 C962 1.392 . S
C961 C965 1.495 1_565 S
C962 C961 1.392 . S
C962 C963 1.385 . S
C962 C964 1.478 . S
C963 H957 0.930 . S
C963 C959 1.400 . S
C963 C962 1.385 . S
C964 C962 1.478 . S
C964 C966 1.381 . S
C964 C970 1.383 . S
C965 C961 1.495 1_545 S
C965 H971 0.959 . S
C965 H972 0.961 . S
C965 H973 0.960 . S
C966 C964 1.381 . S
C966 C967 1.394 . S
C966 H974 0.930 . S
C967 C966 1.394 . S
C967 C968 1.383 . S
C967 H975 0.929 . S
C968 C967 1.383 . S
C968 C969 1.377 . S
C969 H953 0.930 . S
C969 C968 1.377 . S
C969 C970 1.379 . S
C970 H954 0.931 . S
C970 C964 1.383 . S
C970 C969 1.379 . S
H971 C965 0.959 . S
H972 C965 0.961 . S
H973 C965 0.960 . S
H974 C966 0.930 . S
H975 C967 0.929 . S
H976 C984 0.929 . S
H977 C986 0.930 . S
H978 C988 0.930 . S
H979 C991 0.929 . S
H980 C994 0.930 . S
H981 C996 0.960 . S
H982 C996 0.960 . S
H983 C996 0.960 . S
C984 H976 0.929 . S
C984 C985 1.377 . S
C984 C986 1.384 . S
C985 C984 1.377 . S
C985 C991 1.390 . S
C986 H977 0.930 . S
C986 C984 1.384 . S
C986 C987 1.372 . S
C987 C986 1.372 . S
C987 C988 1.400 . S
C987 C992 1.490 . S
C988 H978 0.930 . S
C988 C987 1.400 . S
C988 C991 1.386 . S
H989 C1005 0.930 . S
H990 C1006 0.931 . S
C991 H979 0.929 . S
C991 C985 1.390 . S
C991 C988 1.386 . S
C992 C987 1.490 . S
C992 C994 1.395 . S
C992 C995 1.403 . S
H993 C999 0.930 . S
C994 H980 0.930 . S
C994 C992 1.395 . S
C994 C997 1.403 . S
C995 C992 1.403 . S
C995 C996 1.524 . S
C995 C999 1.400 . S
C996 H981 0.960 . S
C996 H982 0.960 . S
C996 H983 0.960 . S
C996 C995 1.524 . S
C997 C994 1.403 . S
C997 C998 1.392 . S
C997 C1001 1.495 . S
C998 C997 1.392 . S
C998 C999 1.385 . S
C998 C1000 1.478 . S
C999 H993 0.930 . S
C999 C995 1.400 . S
C999 C998 1.385 . S
C1000 C998 1.478 . S
C1000 C1002 1.381 . S
C1000 C1006 1.383 . S
C1001 C997 1.495 . S
C1001 H1007 0.959 . S
C1001 H1008 0.961 . S
C1001 H1009 0.960 . S
C1002 C1000 1.381 . S
C1002 C1003 1.394 . S
C1002 H1010 0.930 . S
C1003 C1002 1.394 . S
C1003 C1004 1.383 . S
C1003 H1011 0.929 . S
C1004 C1003 1.383 . S
C1004 C1005 1.377 . S
C1005 H989 0.930 . S
C1005 C1004 1.377 . S
C1005 C1006 1.379 . S
C1006 H990 0.931 . S
C1006 C1000 1.383 . S
C1006 C1005 1.379 . S
H1007 C1001 0.959 . S
H1008 C1001 0.961 . S
H1009 C1001 0.960 . S
H1010 C1002 0.930 . S
H1011 C1003 0.929 . S
H1012 C1020 0.929 . S
H1013 C1022 0.930 . S
H1014 C1024 0.930 . S
H1015 C1027 0.929 . S
H1016 C1030 0.930 . S
H1017 C1032 0.960 . S
H1018 C1032 0.960 . S
H1019 C1032 0.960 . S
C1020 H1012 0.929 . S
C1020 C1021 1.377 . S
C1020 C1022 1.384 . S
C1021 C1020 1.377 . S
C1021 C1027 1.390 . S
C1022 H1013 0.930 . S
C1022 C1020 1.384 . S
C1022 C1023 1.372 . S
C1023 C1022 1.372 . S
C1023 C1024 1.400 . S
C1023 C1028 1.490 . S
C1024 H1014 0.930 . S
C1024 C1023 1.400 . S
C1024 C1027 1.386 . S
H1025 C1041 0.930 . S
H1026 C1042 0.931 . S
C1027 H1015 0.929 . S
C1027 C1021 1.390 . S
C1027 C1024 1.386 . S
C1028 C1023 1.490 . S
C1028 C1030 1.395 . S
C1028 C1031 1.403 . S
H1029 C1035 0.930 . S
C1030 H1016 0.930 . S
C1030 C1028 1.395 . S
C1030 C1033 1.403 . S
C1031 C1028 1.403 . S
C1031 C1032 1.524 . S
C1031 C1035 1.400 . S
C1032 H1017 0.960 . S
C1032 H1018 0.960 . S
C1032 H1019 0.960 . S
C1032 C1031 1.524 . S
C1033 C1030 1.403 . S
C1033 C1034 1.392 . S
C1033 C1037 1.495 . S
C1034 C1033 1.392 . S
C1034 C1035 1.385 . S
C1034 C1036 1.478 . S
C1035 H1029 0.930 . S
C1035 C1031 1.400 . S
C1035 C1034 1.385 . S
C1036 C1034 1.478 . S
C1036 C1038 1.381 . S
C1036 C1042 1.383 . S
C1037 C1033 1.495 . S
C1037 H1043 0.959 . S
C1037 H1044 0.961 . S
C1037 H1045 0.960 . S
C1038 C1036 1.381 . S
C1038 C1039 1.394 . S
C1038 H1046 0.930 . S
C1039 C1038 1.394 . S
C1039 C1040 1.383 . S
C1039 H1047 0.929 . S
C1040 C1039 1.383 . S
C1040 C1041 1.377 . S
C1041 H1025 0.930 . S
C1041 C1040 1.377 . S
C1041 C1042 1.379 . S
C1042 H1026 0.931 . S
C1042 C1036 1.383 . S
C1042 C1041 1.379 . S
H1043 C1037 0.959 . S
H1044 C1037 0.961 . S
H1045 C1037 0.960 . S
H1046 C1038 0.930 . S
H1047 C1039 0.929 . S
C193 N80 1.693 . S
C212 C112 1.695 . S
C248 C142 1.805 . S
C229 N93 1.802 . S
C284 C152 1.453 . S
C265 N54 1.451 . S
C320 C172 1.307 . S
C301 N67 1.327 1_455 S
C356 C113 1.695 . S
C337 N28 1.707 1_556 S
C373 N41 1.809 . S
C392 C143 1.811 . S
C409 N2 1.450 . S
C428 C153 1.471 . S
C445 N15 1.323 . S
C464 C173 1.324 1_655 S
C500 C105 0.632 . S
C481 N70 0.646 1_455 S
C536 C126 0.245 . S
C517 N83 0.290 . S
C572 C145 0.835 . S
C553 N96 0.819 . S
C589 N57 0.514 . S
C608 C165 0.517 . S
C625 N18 0.647 1_556 S
C644 C106 0.627 . S
C680 C125 0.258 1_565 S
C661 N31 0.250 . S
C716 C146 0.837 . S
C697 N44 0.812 . S
C733 N5 0.509 . S
C752 C166 0.531 . S
C769 N66 1.536 1_455 S
C788 C123 1.548 . S
C805 N79 1.346 . S
C824 C133 1.351 . S
C860 C163 1.718 . S
C841 N92 1.724 . S
C896 C183 1.747 . S
C877 N53 1.746 1_556 S
C913 N14 1.528 . S
C932 C122 1.548 . S
C968 C132 1.372 . S
C949 N27 1.355 . S
C1004 C162 1.718 . S
C985 N40 1.737 . S
C1021 N1 1.752 . S
C1040 C182 1.758 . S
