# Generated by pormake.
# Topology eea, (3,6)-cn, num edge types: 1
# Building blocks:
#     Node 0, Type 0, BuildingBlock: BETDIP_clean_linker_0, # of connection points: 3
#     Node 1, Type 0, BuildingBlock: BETDIP_clean_linker_0, # of connection points: 3
#     Node 2, Type 0, BuildingBlock: BETDIP_clean_linker_0, # of connection points: 3
#     Node 3, Type 0, BuildingBlock: BETDIP_clean_linker_0, # of connection points: 3
#     Node 4, Type 0, BuildingBlock: BETDIP_clean_linker_0, # of connection points: 3
#     Node 5, Type 0, BuildingBlock: BETDIP_clean_linker_0, # of connection points: 3
#     Node 6, Type 0, BuildingBlock: BETDIP_clean_linker_0, # of connection points: 3
#     Node 7, Type 0, BuildingBlock: BETDIP_clean_linker_0, # of connection points: 3
#     Node 8, Type 0, BuildingBlock: BETDIP_clean_linker_0, # of connection points: 3
#     Node 9, Type 0, BuildingBlock: BETDIP_clean_linker_0, # of connection points: 3
#     Node 10, Type 0, BuildingBlock: BETDIP_clean_linker_0, # of connection points: 3
#     Node 11, Type 0, BuildingBlock: BETDIP_clean_linker_0, # of connection points: 3
#     Node 12, Type 0, BuildingBlock: BETDIP_clean_linker_0, # of connection points: 3
#     Node 13, Type 0, BuildingBlock: BETDIP_clean_linker_0, # of connection points: 3
#     Node 14, Type 0, BuildingBlock: BETDIP_clean_linker_0, # of connection points: 3
#     Node 15, Type 0, BuildingBlock: BETDIP_clean_linker_0, # of connection points: 3
#     Node 16, Type 0, BuildingBlock: BETDIP_clean_linker_0, # of connection points: 3
#     Node 17, Type 0, BuildingBlock: BETDIP_clean_linker_0, # of connection points: 3
#     Node 18, Type 1, BuildingBlock: CUWYAW_clean_sbu_0, # of connection points: 6
#     Node 19, Type 1, BuildingBlock: CUWYAW_clean_sbu_0, # of connection points: 6
#     Node 20, Type 1, BuildingBlock: CUWYAW_clean_sbu_0, # of connection points: 6
#     Node 21, Type 1, BuildingBlock: CUWYAW_clean_sbu_0, # of connection points: 6
#     Node 22, Type 1, BuildingBlock: CUWYAW_clean_sbu_0, # of connection points: 6
#     Node 23, Type 1, BuildingBlock: CUWYAW_clean_sbu_0, # of connection points: 6
#     Node 24, Type 1, BuildingBlock: CUWYAW_clean_sbu_0, # of connection points: 6
#     Node 25, Type 1, BuildingBlock: CUWYAW_clean_sbu_0, # of connection points: 6
#     Node 26, Type 1, BuildingBlock: CUWYAW_clean_sbu_0, # of connection points: 6
#     Edge 27, Type (0, 1), BuildingBlock: ZUJKAS_clean_linker_0, # of connection points: 2
#     Edge 28, Type (0, 1), BuildingBlock: ZUJKAS_clean_linker_0, # of connection points: 2
#     Edge 29, Type (0, 1), BuildingBlock: ZUJKAS_clean_linker_0, # of connection points: 2
#     Edge 30, Type (0, 1), BuildingBlock: ZUJKAS_clean_linker_0, # of connection points: 2
#     Edge 31, Type (0, 1), BuildingBlock: ZUJKAS_clean_linker_0, # of connection points: 2
#     Edge 32, Type (0, 1), BuildingBlock: ZUJKAS_clean_linker_0, # of connection points: 2
#     Edge 33, Type (0, 1), BuildingBlock: ZUJKAS_clean_linker_0, # of connection points: 2
#     Edge 34, Type (0, 1), BuildingBlock: ZUJKAS_clean_linker_0, # of connection points: 2
#     Edge 35, Type (0, 1), BuildingBlock: ZUJKAS_clean_linker_0, # of connection points: 2
#     Edge 36, Type (0, 1), BuildingBlock: ZUJKAS_clean_linker_0, # of connection points: 2
#     Edge 37, Type (0, 1), BuildingBlock: ZUJKAS_clean_linker_0, # of connection points: 2
#     Edge 38, Type (0, 1), BuildingBlock: ZUJKAS_clean_linker_0, # of connection points: 2
#     Edge 39, Type (0, 1), BuildingBlock: ZUJKAS_clean_linker_0, # of connection points: 2
#     Edge 40, Type (0, 1), BuildingBlock: ZUJKAS_clean_linker_0, # of connection points: 2
#     Edge 41, Type (0, 1), BuildingBlock: ZUJKAS_clean_linker_0, # of connection points: 2
#     Edge 42, Type (0, 1), BuildingBlock: ZUJKAS_clean_linker_0, # of connection points: 2
#     Edge 43, Type (0, 1), BuildingBlock: ZUJKAS_clean_linker_0, # of connection points: 2
#     Edge 44, Type (0, 1), BuildingBlock: ZUJKAS_clean_linker_0, # of connection points: 2
#     Edge 45, Type (0, 1), BuildingBlock: ZUJKAS_clean_linker_0, # of connection points: 2
#     Edge 46, Type (0, 1), BuildingBlock: ZUJKAS_clean_linker_0, # of connection points: 2
#     Edge 47, Type (0, 1), BuildingBlock: ZUJKAS_clean_linker_0, # of connection points: 2
#     Edge 48, Type (0, 1), BuildingBlock: ZUJKAS_clean_linker_0, # of connection points: 2
#     Edge 49, Type (0, 1), BuildingBlock: ZUJKAS_clean_linker_0, # of connection points: 2
#     Edge 50, Type (0, 1), BuildingBlock: ZUJKAS_clean_linker_0, # of connection points: 2
#     Edge 51, Type (0, 1), BuildingBlock: ZUJKAS_clean_linker_0, # of connection points: 2
#     Edge 52, Type (0, 1), BuildingBlock: ZUJKAS_clean_linker_0, # of connection points: 2
#     Edge 53, Type (0, 1), BuildingBlock: ZUJKAS_clean_linker_0, # of connection points: 2
#     Edge 54, Type (0, 1), BuildingBlock: ZUJKAS_clean_linker_0, # of connection points: 2
#     Edge 55, Type (0, 1), BuildingBlock: ZUJKAS_clean_linker_0, # of connection points: 2
#     Edge 56, Type (0, 1), BuildingBlock: ZUJKAS_clean_linker_0, # of connection points: 2
#     Edge 57, Type (0, 1), BuildingBlock: ZUJKAS_clean_linker_0, # of connection points: 2
#     Edge 58, Type (0, 1), BuildingBlock: ZUJKAS_clean_linker_0, # of connection points: 2
#     Edge 59, Type (0, 1), BuildingBlock: ZUJKAS_clean_linker_0, # of connection points: 2
#     Edge 60, Type (0, 1), BuildingBlock: ZUJKAS_clean_linker_0, # of connection points: 2
#     Edge 61, Type (0, 1), BuildingBlock: ZUJKAS_clean_linker_0, # of connection points: 2
#     Edge 62, Type (0, 1), BuildingBlock: ZUJKAS_clean_linker_0, # of connection points: 2
#     Edge 63, Type (0, 1), BuildingBlock: ZUJKAS_clean_linker_0, # of connection points: 2
#     Edge 64, Type (0, 1), BuildingBlock: ZUJKAS_clean_linker_0, # of connection points: 2
#     Edge 65, Type (0, 1), BuildingBlock: ZUJKAS_clean_linker_0, # of connection points: 2
#     Edge 66, Type (0, 1), BuildingBlock: ZUJKAS_clean_linker_0, # of connection points: 2
#     Edge 67, Type (0, 1), BuildingBlock: ZUJKAS_clean_linker_0, # of connection points: 2
#     Edge 68, Type (0, 1), BuildingBlock: ZUJKAS_clean_linker_0, # of connection points: 2
#     Edge 69, Type (0, 1), BuildingBlock: ZUJKAS_clean_linker_0, # of connection points: 2
#     Edge 70, Type (0, 1), BuildingBlock: ZUJKAS_clean_linker_0, # of connection points: 2
#     Edge 71, Type (0, 1), BuildingBlock: ZUJKAS_clean_linker_0, # of connection points: 2
#     Edge 72, Type (0, 1), BuildingBlock: ZUJKAS_clean_linker_0, # of connection points: 2
#     Edge 73, Type (0, 1), BuildingBlock: ZUJKAS_clean_linker_0, # of connection points: 2
#     Edge 74, Type (0, 1), BuildingBlock: ZUJKAS_clean_linker_0, # of connection points: 2
#     Edge 75, Type (0, 1), BuildingBlock: ZUJKAS_clean_linker_0, # of connection points: 2
#     Edge 76, Type (0, 1), BuildingBlock: ZUJKAS_clean_linker_0, # of connection points: 2
#     Edge 77, Type (0, 1), BuildingBlock: ZUJKAS_clean_linker_0, # of connection points: 2
#     Edge 78, Type (0, 1), BuildingBlock: ZUJKAS_clean_linker_0, # of connection points: 2
#     Edge 79, Type (0, 1), BuildingBlock: ZUJKAS_clean_linker_0, # of connection points: 2
#     Edge 80, Type (0, 1), BuildingBlock: ZUJKAS_clean_linker_0, # of connection points: 2
# Relax obj value: 0.058
# Max RMSD: 0.198
# Mean RMSD: 0.137
data_MOF--net-eea--node1-CUWYAW_clean_sbu_0--node2-BETDIP_clean_linker_0--edge1-ZUJKAS_clean_linker_0
_symmetry_space_group_name_H-M    P1
_symmetry_Int_Tables_number       1
_symmetry_cell_setting            triclinic
loop_
_symmetry_equiv_pos_as_xyz
'x, y, z'
_cell_length_a     71.412651
_cell_length_b     71.144112
_cell_length_c     86.280155
_cell_angle_alpha  93.382207
_cell_angle_beta   93.490367
_cell_angle_gamma 119.8408
loop_
_atom_site_label
_atom_site_type_symbol
_atom_site_fract_x
_atom_site_fract_y
_atom_site_fract_z
_atom_type_partial_charge
H0 H 0.22498 0.11043 0.38112 0.0
H1 H 0.24282 0.15234 0.42397 0.0
H2 H 0.2383 0.08987 0.42425 0.0
H3 H 0.25567 0.17877 0.40675 0.0
C4 C 0.24195 0.17133 0.39779 0.0
C5 C 0.22976 0.11359 0.39359 0.0
C6 C 0.23098 0.0977 0.40179 0.0
C7 C 0.23436 0.1335 0.40142 0.0
C8 C 0.24009 0.13742 0.41769 0.0
C9 C 0.24132 0.12165 0.42604 0.0
C10 C 0.23685 0.10192 0.41796 0.0
N11 N 0.23188 0.14871 0.39282 0.0
H12 H 0.91512 0.1242 0.39346 0.0
H13 H 0.87654 0.10602 0.43213 0.0
H14 H 0.93313 0.16945 0.43462 0.0
H15 H 0.87109 0.07295 0.42371 0.0
C16 C 0.86825 0.07248 0.41114 0.0
C17 C 0.91208 0.12829 0.40497 0.0
C18 C 0.92632 0.14889 0.41314 0.0
C19 C 0.89446 0.11248 0.41189 0.0
C20 C 0.8906 0.11769 0.42689 0.0
C21 C 0.90455 0.13812 0.43518 0.0
C22 C 0.92229 0.15367 0.42821 0.0
N23 N 0.88087 0.09149 0.40361 0.0
H24 H 0.89074 0.7824 0.40016 0.0
H25 H 0.91701 0.77114 0.44249 0.0
H26 H 0.8565 0.77025 0.44115 0.0
H27 H 0.93424 0.76107 0.42613 0.0
C28 C 0.93823 0.77221 0.41719 0.0
C29 C 0.88947 0.77901 0.41226 0.0
C30 C 0.87149 0.77659 0.41965 0.0
C31 C 0.90573 0.7766 0.42023 0.0
C32 C 0.9042 0.77215 0.43594 0.0
C33 C 0.88642 0.76977 0.44352 0.0
C34 C 0.87021 0.77203 0.4353 0.0
N35 N 0.92371 0.77945 0.41229 0.0
H36 H 0.09845 0.22353 0.62354 0.0
H37 H 0.13424 0.23869 0.58343 0.0
H38 H 0.07775 0.24532 0.5839 0.0
H39 H 0.16225 0.24866 0.60167 0.0
C40 C 0.15547 0.23552 0.60913 0.0
C41 C 0.10057 0.22887 0.61194 0.0
C42 C 0.0858 0.23399 0.60456 0.0
C43 C 0.11856 0.23132 0.60466 0.0
C44 C 0.12118 0.23802 0.58956 0.0
C45 C 0.10666 0.24326 0.58201 0.0
C46 C 0.08903 0.24127 0.58962 0.0
N47 N 0.13363 0.22673 0.61264 0.0
H48 H 0.79275 0.88619 0.64319 0.0
H49 H 0.77908 0.90634 0.60005 0.0
H50 H 0.76775 0.84129 0.60136 0.0
H51 H 0.81086 0.93866 0.61138 0.0
C52 C 0.80494 0.93916 0.62263 0.0
C53 C 0.78708 0.88246 0.63085 0.0
C54 C 0.78012 0.8616 0.62335 0.0
C55 C 0.78723 0.89879 0.62245 0.0
C56 C 0.7797 0.89402 0.60649 0.0
C57 C 0.7724 0.87323 0.59885 0.0
C58 C 0.77264 0.85711 0.60736 0.0
N59 N 0.79476 0.91984 0.63026 0.0
H60 H 0.11792 0.90484 0.63108 0.0
H61 H 0.096 0.8635 0.58778 0.0
H62 H 0.15803 0.92236 0.59316 0.0
H63 H 0.06302 0.85665 0.59473 0.0
C64 C 0.06458 0.85518 0.60714 0.0
C65 C 0.12064 0.90153 0.61926 0.0
C66 C 0.14023 0.91575 0.61335 0.0
C67 C 0.10434 0.88303 0.60997 0.0
C68 C 0.10801 0.8783 0.59476 0.0
C69 C 0.12747 0.89229 0.58864 0.0
C70 C 0.14336 0.91104 0.598 0.0
N71 N 0.08464 0.86925 0.61634 0.0
H72 H 0.88765 0.44108 0.71473 0.0
H73 H 0.91139 0.48617 0.75617 0.0
H74 H 0.91217 0.4263 0.75633 0.0
H75 H 0.92081 0.51092 0.73792 0.0
C76 C 0.90619 0.50283 0.72977 0.0
C77 C 0.89502 0.44548 0.72671 0.0
C78 C 0.89902 0.43089 0.73463 0.0
C79 C 0.90021 0.46577 0.73419 0.0
C80 C 0.90866 0.47119 0.75001 0.0
C81 C 0.91256 0.45677 0.75816 0.0
C82 C 0.90825 0.43699 0.75024 0.0
N83 N 0.8957 0.47993 0.72579 0.0
H84 H 0.57629 0.4588 0.72295 0.0
H85 H 0.53692 0.43644 0.76083 0.0
H86 H 0.59674 0.49758 0.76755 0.0
H87 H 0.51002 0.422 0.73998 0.0
C88 C 0.51703 0.41474 0.73259 0.0
C89 C 0.57375 0.4613 0.73497 0.0
C90 C 0.58907 0.48024 0.74454 0.0
C91 C 0.55467 0.44576 0.74063 0.0
C92 C 0.55111 0.44888 0.75617 0.0
C93 C 0.56613 0.46761 0.76595 0.0
C94 C 0.58507 0.48316 0.76004 0.0
N95 N 0.53953 0.42682 0.73064 0.0
H96 H 0.5585 0.12227 0.73375 0.0
H97 H 0.58152 0.10573 0.77511 0.0
H98 H 0.51873 0.1002 0.77166 0.0
H99 H 0.61412 0.1316 0.76822 0.0
C100 C 0.61225 0.12765 0.75566 0.0
C101 C 0.55602 0.11666 0.74526 0.0
C102 C 0.53653 0.11129 0.75165 0.0
C103 C 0.57246 0.11504 0.75371 0.0
C104 C 0.56915 0.10747 0.76857 0.0
C105 C 0.54985 0.10225 0.77515 0.0
C106 C 0.53363 0.10415 0.7666 0.0
N107 N 0.59203 0.12087 0.7469 0.0
H108 H 0.76728 0.5563 0.95716 0.0
H109 H 0.80336 0.57454 0.91724 0.0
H110 H 0.74175 0.5714 0.91622 0.0
H111 H 0.83169 0.58565 0.93515 0.0
C112 C 0.82566 0.57281 0.94288 0.0
C113 C 0.76884 0.56136 0.94548 0.0
C114 C 0.75218 0.56333 0.93757 0.0
C115 C 0.78752 0.5657 0.93837 0.0
C116 C 0.78929 0.57163 0.92303 0.0
C117 C 0.77288 0.57379 0.91498 0.0
C118 C 0.75444 0.5697 0.92236 0.0
N119 N 0.80388 0.56325 0.94667 0.0
H120 H 0.44917 0.21677 0.97744 0.0
H121 H 0.43043 0.23718 0.93631 0.0
H122 H 0.43045 0.17673 0.93357 0.0
H123 H 0.4188 0.25259 0.95527 0.0
C124 C 0.4335 0.26021 0.96334 0.0
C125 C 0.44366 0.21379 0.96509 0.0
C126 C 0.43983 0.19461 0.95643 0.0
C127 C 0.43986 0.22897 0.95801 0.0
C128 C 0.43288 0.22528 0.94196 0.0
C129 C 0.42934 0.20641 0.93307 0.0
C130 C 0.43267 0.19109 0.94043 0.0
N131 N 0.44392 0.24822 0.96709 0.0
H132 H 0.78638 0.23673 0.96533 0.0
H133 H 0.76477 0.19475 0.92228 0.0
H134 H 0.82485 0.25553 0.92656 0.0
H135 H 0.74588 0.16905 0.9375 0.0
C136 C 0.7409 0.17681 0.94624 0.0
C137 C 0.78892 0.23344 0.95345 0.0
C138 C 0.80777 0.24841 0.9471 0.0
C139 C 0.77348 0.21388 0.94473 0.0
C140 C 0.77671 0.20953 0.92928 0.0
C141 C 0.79539 0.22435 0.9227 0.0
C142 C 0.81075 0.24372 0.93171 0.0
N143 N 0.7547 0.19922 0.9517 0.0
H144 H 0.56075 0.77785 0.0472 0.0
H145 H 0.58177 0.82144 0.08938 0.0
H146 H 0.5817 0.76106 0.08935 0.0
H147 H 0.5917 0.84653 0.07123 0.0
C148 C 0.57684 0.8385 0.06332 0.0
C149 C 0.56691 0.78169 0.05945 0.0
C150 C 0.57123 0.76723 0.06725 0.0
C151 C 0.57108 0.80145 0.06724 0.0
C152 C 0.57897 0.80646 0.08317 0.0
C153 C 0.58302 0.79205 0.09122 0.0
C154 C 0.57918 0.77254 0.08313 0.0
N155 N 0.56653 0.81568 0.05899 0.0
H156 H 0.24577 0.78914 0.05812 0.0
H157 H 0.21207 0.76764 0.09872 0.0
H158 H 0.26662 0.83246 0.10068 0.0
H159 H 0.21169 0.73546 0.08809 0.0
C160 C 0.20512 0.73543 0.07638 0.0
C161 C 0.24413 0.79248 0.07022 0.0
C162 C 0.2584 0.81304 0.07843 0.0
C163 C 0.22787 0.77589 0.07761 0.0
C164 C 0.2252 0.78013 0.09317 0.0
C165 C 0.23886 0.80066 0.10146 0.0
C166 C 0.25552 0.81694 0.09406 0.0
N167 N 0.21413 0.75513 0.06914 0.0
H168 H 0.22516 0.45589 0.06652 0.0
H169 H 0.24836 0.43672 0.10626 0.0
H170 H 0.1847 0.42928 0.10351 0.0
H171 H 0.28085 0.46506 0.10069 0.0
C172 C 0.27938 0.46196 0.08806 0.0
C173 C 0.22258 0.44924 0.07769 0.0
C174 C 0.20272 0.44239 0.08393 0.0
C175 C 0.2393 0.44777 0.08584 0.0
C176 C 0.23589 0.4388 0.10022 0.0
C177 C 0.21616 0.43191 0.10665 0.0
C178 C 0.1997 0.43382 0.09841 0.0
N179 N 0.2592 0.45502 0.07919 0.0
H180 H 0.42867 0.88104 0.28952 0.0
H181 H 0.46659 0.89802 0.25056 0.0
H182 H 0.41266 0.90895 0.25155 0.0
H183 H 0.46851 0.86772 0.25702 0.0
C184 C 0.47312 0.87252 0.26948 0.0
C185 C 0.43189 0.88778 0.2784 0.0
C186 C 0.41832 0.89461 0.27133 0.0
C187 C 0.44904 0.88858 0.27084 0.0
C188 C 0.45318 0.8971 0.25634 0.0
C189 C 0.44011 0.90444 0.24924 0.0
C190 C 0.42267 0.90306 0.25682 0.0
N191 N 0.46209 0.88098 0.27807 0.0
H192 H 0.11934 0.55081 0.30958 0.0
H193 H 0.09319 0.56891 0.27093 0.0
H194 H 0.09391 0.50891 0.26631 0.0
H195 H 0.08406 0.58444 0.29138 0.0
C196 C 0.0997 0.5925 0.29838 0.0
C197 C 0.11153 0.54701 0.29776 0.0
C198 C 0.10705 0.52774 0.28882 0.0
C199 C 0.1061 0.56163 0.29152 0.0
C200 C 0.09684 0.55738 0.27597 0.0
C201 C 0.09261 0.53849 0.26674 0.0
C202 C 0.09742 0.52362 0.27335 0.0
N203 N 0.11098 0.58099 0.30086 0.0
H204 H 0.45328 0.57167 0.2974 0.0
H205 H 0.4308 0.52936 0.25453 0.0
H206 H 0.4934 0.58748 0.25951 0.0
H207 H 0.39805 0.52335 0.26132 0.0
C208 C 0.39956 0.52206 0.27376 0.0
C209 C 0.45592 0.56795 0.28565 0.0
C210 C 0.4756 0.5817 0.27968 0.0
C211 C 0.43943 0.54941 0.27652 0.0
C212 C 0.44298 0.54419 0.2614 0.0
C213 C 0.46253 0.55772 0.25521 0.0
C214 C 0.47863 0.5765 0.26442 0.0
N215 N 0.41965 0.53607 0.28294 0.0
C216 C 0.51891 0.01663 0.05872 0.0
Eu217 Eu 0.50526 0.01475 0.02968 0.0
C218 C 0.50993 0.00624 0.07285 0.0
C219 C 0.51212 0.01941 0.08638 0.0
C220 C 0.50405 0.0101 0.10001 0.0
C221 C 0.49379 0.98743 0.10041 0.0
C222 C 0.49149 0.97421 0.08684 0.0
C223 C 0.4994 0.98352 0.07314 0.0
C224 C 0.49336 0.04203 0.01795 0.0
C225 C 0.4534 0.97871 0.02266 0.0
C226 C 0.46991 0.99937 0.96739 0.0
Eu227 Eu 0.48382 1.00121 0.99637 0.0
C228 C 0.47913 0.00862 0.95306 0.0
C229 C 0.47064 0.99558 0.93877 0.0
C230 C 0.4791 0.00391 0.92497 0.0
C231 C 0.4962 0.02549 0.92522 0.0
C232 C 0.50479 0.03853 0.93958 0.0
C233 C 0.49638 0.03013 0.95342 0.0
C234 C 0.49621 0.97422 0.00812 0.0
C235 C 0.53593 0.03671 0.0033 0.0
O236 O 0.52041 0.00455 0.04736 0.0
O237 O 0.51232 0.02957 0.05371 0.0
O238 O 0.51109 0.04855 0.02702 0.0
O239 O 0.48227 0.0215 0.01599 0.0
O240 O 0.47149 0.98655 0.03217 0.0
O241 O 0.45355 0.98442 0.00837 0.0
O242 O 0.47031 0.01285 0.97858 0.0
O243 O 0.47494 0.98537 0.97255 0.0
O244 O 0.47847 0.96745 0.999 0.0
O245 O 0.50696 0.99473 0.00999 0.0
O246 O 0.51792 0.02876 0.99366 0.0
O247 O 0.53559 0.03144 0.01773 0.0
H248 H 0.52023 0.03696 0.08643 0.0
H249 H 0.50626 0.0207 0.11035 0.0
H250 H 0.48349 0.95667 0.0868 0.0
H251 H 0.49733 0.97293 0.06284 0.0
H252 H 0.45735 0.97894 0.93829 0.0
H253 H 0.47199 0.99357 0.91406 0.0
H254 H 0.5181 0.05515 0.94013 0.0
H255 H 0.50333 0.04043 0.96435 0.0
C256 C 0.01186 0.52213 0.05544 0.0
Eu257 Eu 0.00326 0.50175 0.02758 0.0
C258 C 0.01834 0.52011 0.07151 0.0
C259 C 0.00787 0.50021 0.07805 0.0
C260 C 0.01346 0.49905 0.09363 0.0
C261 C 0.02974 0.5177 0.10289 0.0
C262 C 0.04057 0.53744 0.09617 0.0
C263 C 0.03486 0.53863 0.08063 0.0
C264 C 0.97233 0.45978 0.01861 0.0
C265 C 0.03364 0.47984 0.02273 0.0
C266 C 0.99696 0.46415 0.96709 0.0
Eu267 Eu 0.00535 0.48428 0.99502 0.0
C268 C 0.99036 0.46665 0.95125 0.0
C269 C 0.99517 0.48714 0.94685 0.0
C270 C 0.98955 0.48929 0.93151 0.0
C271 C 0.97891 0.47096 0.92035 0.0
C272 C 0.97366 0.4504 0.925 0.0
C273 C 0.97939 0.44829 0.94029 0.0
C274 C 0.03639 0.52612 0.00421 0.0
C275 C 0.97539 0.50675 -0.00019 0.0
O276 O 0.02639 0.5271 0.04552 0.0
O277 O 0.99227 0.50753 0.04934 0.0
O278 O 0.96905 0.47309 0.02736 0.0
O279 O 0.99191 0.46862 0.01604 0.0
O280 O 0.03027 0.49375 0.03126 0.0
O281 O 0.02267 0.47068 0.00892 0.0
O282 O 0.98246 0.45885 0.97706 0.0
O283 O 0.01646 0.479 0.97316 0.0
O284 O 0.03977 0.51273 0.99563 0.0
O285 O 0.01674 0.51736 0.00655 0.0
O286 O 0.97882 0.49302 0.99109 0.0
O287 O 0.98603 0.51539 0.01377 0.0
H288 H 0.99519 0.48562 0.07121 0.0
H289 H 0.00504 0.48356 0.09845 0.0
H290 H 0.05304 0.55212 0.10304 0.0
H291 H 0.04313 0.55413 0.07579 0.0
H292 H 0.00353 0.50149 0.95521 0.0
H293 H 0.99397 0.50537 0.92833 0.0
H294 H 0.96506 0.43588 0.91681 0.0
H295 H 0.97537 0.43233 0.94355 0.0
C296 C 0.4892 0.49235 0.96602 0.0
Eu297 Eu 0.50455 0.5111 0.99435 0.0
C298 C 0.49737 0.49167 0.95083 0.0
C299 C 0.48693 0.49395 0.9374 0.0
C300 C 0.49408 0.49311 0.9228 0.0
C301 C 0.5118 0.48984 0.92131 0.0
C302 C 0.52241 0.48779 0.93486 0.0
C303 C 0.51528 0.48873 0.94949 0.0
C304 C 0.51721 0.55286 0.00419 0.0
C305 C 0.55708 0.53041 0.9997 0.0
C306 C 0.5434 0.54543 0.05541 0.0
Eu307 Eu 0.52833 0.52689 0.02702 0.0
C308 C 0.53491 0.5445 0.07068 0.0
C309 C 0.54531 0.54134 0.08373 0.0
C310 C 0.5376 0.54031 0.09833 0.0
C311 C 0.51936 0.54257 0.10022 0.0
C312 C 0.50889 0.54565 0.08707 0.0
C313 C 0.51656 0.54657 0.07244 0.0
C314 C 0.51507 0.4849 0.01718 0.0
C315 C 0.47571 0.50731 0.02183 0.0
O316 O 0.49395 0.48319 0.97714 0.0
O317 O 0.49066 0.51077 0.97104 0.0
O318 O 0.49911 0.5398 0.99568 0.0
O319 O 0.52832 0.54378 0.00642 0.0
O320 O 0.53856 0.51756 0.99091 0.0
O321 O 0.55755 0.53912 0.01375 0.0
O322 O 0.53729 0.554 0.0446 0.0
O323 O 0.54374 0.52807 0.04995 0.0
O324 O 0.53322 0.49771 0.02571 0.0
O325 O 0.50436 0.49436 0.01503 0.0
O326 O 0.49422 0.51982 0.03072 0.0
O327 O 0.47523 0.49916 0.00756 0.0
H328 H 0.47317 0.49636 0.9382 0.0
H329 H 0.48578 0.49517 0.91269 0.0
H330 H 0.53595 0.48504 0.93414 0.0
H331 H 0.52367 0.48699 0.95969 0.0
H332 H 0.55942 0.53959 0.08261 0.0
H333 H 0.54585 0.53754 0.10811 0.0
H334 H 0.49497 0.54771 0.08812 0.0
H335 H 0.50818 0.54899 0.06256 0.0
C336 C 0.18778 0.34846 0.39044 0.0
Eu337 Eu 0.17301 0.34741 0.36186 0.0
C338 C 0.17905 0.33871 0.40475 0.0
C339 C 0.18857 0.351 0.41921 0.0
C340 C 0.18055 0.3422 0.43299 0.0
C341 C 0.16283 0.32089 0.43256 0.0
C342 C 0.15318 0.30866 0.41799 0.0
C343 C 0.16122 0.31751 0.40419 0.0
C344 C 0.16027 0.37468 0.35136 0.0
C345 C 0.12095 0.31178 0.35535 0.0
C346 C 0.13605 0.33314 0.30003 0.0
Eu347 Eu 0.15062 0.33453 0.32875 0.0
C348 C 0.14493 0.3409 0.28524 0.0
C349 C 0.13616 0.32658 0.27154 0.0
C350 C 0.14405 0.33352 0.2573 0.0
C351 C 0.16081 0.35503 0.25647 0.0
C352 C 0.16975 0.36931 0.2703 0.0
C353 C 0.16192 0.36229 0.28457 0.0
C354 C 0.16424 0.30786 0.33939 0.0
C355 C 0.20274 0.37022 0.33512 0.0
O356 O 0.18708 0.33531 0.37886 0.0
O357 O 0.18249 0.36255 0.38588 0.0
O358 O 0.1781 0.38112 0.36027 0.0
O359 O 0.1494 0.35416 0.349 0.0
O360 O 0.13927 0.31921 0.36452 0.0
O361 O 0.12077 0.31801 0.34126 0.0
O362 O 0.13881 0.34789 0.31115 0.0
O363 O 0.13899 0.3178 0.3052 0.0
O364 O 0.14619 0.30092 0.33063 0.0
O365 O 0.17458 0.32834 0.3415 0.0
O366 O 0.18449 0.36221 0.32576 0.0
O367 O 0.2029 0.36465 0.34944 0.0
H368 H 0.20223 0.36745 0.41984 0.0
H369 H 0.18812 0.35218 0.44399 0.0
H370 H 0.13965 0.29214 0.41726 0.0
H371 H 0.15361 0.30775 0.39312 0.0
H372 H 0.12314 0.30997 0.27184 0.0
H373 H 0.13706 0.32197 0.24695 0.0
H374 H 0.18251 0.38604 0.27008 0.0
H375 H 0.16905 0.37365 0.29502 0.0
C376 C 0.67751 0.85214 0.38986 0.0
Eu377 Eu 0.67123 0.83416 0.36141 0.0
C378 C 0.6851 0.85031 0.40568 0.0
C379 C 0.67183 0.84724 0.41773 0.0
C380 C 0.67875 0.84605 0.43293 0.0
C381 C 0.69919 0.84807 0.43642 0.0
C382 C 0.71243 0.85095 0.42432 0.0
C383 C 0.70541 0.85196 0.40906 0.0
C384 C 0.64105 0.79252 0.35096 0.0
C385 C 0.70301 0.81388 0.35653 0.0
C386 C 0.66902 0.80111 0.30042 0.0
Eu387 Eu 0.67535 0.81918 0.32883 0.0
C388 C 0.66234 0.80357 0.2845 0.0
C389 C 0.67668 0.80796 0.27303 0.0
C390 C 0.6707 0.80985 0.25776 0.0
C391 C 0.65011 0.80717 0.25355 0.0
C392 C 0.63581 0.803 0.2651 0.0
C393 C 0.64187 0.80125 0.28044 0.0
C394 C 0.70549 0.86092 0.3392 0.0
C395 C 0.64353 0.83942 0.33367 0.0
O396 O 0.69189 0.85998 0.37979 0.0
O397 O 0.65889 0.83579 0.38365 0.0
O398 O 0.63703 0.80537 0.35959 0.0
O399 O 0.6609 0.80166 0.34902 0.0
O400 O 0.6985 0.82659 0.36546 0.0
O401 O 0.69317 0.80582 0.3423 0.0
O402 O 0.65428 0.79385 0.31026 0.0
O403 O 0.6879 0.81676 0.30688 0.0
O404 O 0.70943 0.84815 0.33042 0.0
O405 O 0.68566 0.85169 0.3412 0.0
O406 O 0.64807 0.8267 0.32479 0.0
O407 O 0.65331 0.84747 0.34792 0.0
H408 H 0.65614 0.846 0.41539 0.0
H409 H 0.66832 0.84408 0.44204 0.0
H410 H 0.72818 0.85237 0.42666 0.0
H411 H 0.71593 0.85419 0.39996 0.0
H412 H 0.69256 0.80986 0.27589 0.0
H413 H 0.68228 0.81348 0.24926 0.0
H414 H 0.61974 0.8006 0.26224 0.0
H415 H 0.63046 0.79787 0.28905 0.0
C416 C 0.15714 0.82677 0.29893 0.0
Eu417 Eu 0.17149 0.84446 0.32759 0.0
C418 C 0.16618 0.82657 0.28406 0.0
C419 C 0.15689 0.82989 0.27046 0.0
C420 C 0.16508 0.8298 0.25619 0.0
C421 C 0.18269 0.82626 0.25521 0.0
C422 C 0.19204 0.82299 0.26887 0.0
C423 C 0.18392 0.82323 0.28318 0.0
C424 C 0.18315 0.88572 0.33808 0.0
C425 C 0.22403 0.86422 0.33344 0.0
C426 C 0.20881 0.87756 0.38901 0.0
Eu427 Eu 0.19448 0.85955 0.36043 0.0
C428 C 0.20011 0.87644 0.40422 0.0
C429 C 0.21017 0.8728 0.41723 0.0
C430 C 0.20245 0.87184 0.43182 0.0
C431 C 0.18456 0.87469 0.43376 0.0
C432 C 0.17437 0.87816 0.42064 0.0
C433 C 0.18203 0.87897 0.40601 0.0
C434 C 0.18221 0.81798 0.35004 0.0
C435 C 0.14169 0.83895 0.35468 0.0
O436 O 0.16095 0.81694 0.31002 0.0
O437 O 0.1588 0.84523 0.30414 0.0
O438 O 0.16511 0.87252 0.32956 0.0
O439 O 0.19464 0.87701 0.34012 0.0
O440 O 0.2057 0.85144 0.32444 0.0
O441 O 0.22414 0.87247 0.34757 0.0
O442 O 0.20293 0.88632 0.3782 0.0
O443 O 0.20927 0.86029 0.38349 0.0
O444 O 0.20013 0.83085 0.35881 0.0
O445 O 0.17119 0.82714 0.34796 0.0
O446 O 0.15994 0.85148 0.36386 0.0
O447 O 0.14178 0.83142 0.34034 0.0
H448 H 0.14319 0.83248 0.27089 0.0
H449 H 0.15738 0.83211 0.24585 0.0
H450 H 0.20576 0.82044 0.26849 0.0
H451 H 0.1915 0.82079 0.29353 0.0
H452 H 0.22406 0.87068 0.4161 0.0
H453 H 0.21045 0.86873 0.44157 0.0
H454 H 0.16072 0.88066 0.42171 0.0
H455 H 0.17388 0.88172 0.39615 0.0
C456 C 0.85496 0.67668 0.7235 0.0
Eu457 Eu 0.83954 0.67845 0.69582 0.0
C458 C 0.84598 0.66821 0.73802 0.0
C459 C 0.82493 0.6634 0.74068 0.0
C460 C 0.81646 0.65498 0.75448 0.0
C461 C 0.8289 0.65119 0.76579 0.0
C462 C 0.84998 0.65604 0.76302 0.0
C463 C 0.85843 0.66447 0.74924 0.0
C464 C 0.82557 0.70587 0.6878 0.0
C465 C 0.78716 0.64317 0.68969 0.0
C466 C 0.80084 0.66967 0.63536 0.0
Eu467 Eu 0.81604 0.66786 0.66308 0.0
C468 C 0.81006 0.67881 0.62104 0.0
C469 C 0.83103 0.68341 0.61828 0.0
C470 C 0.83965 0.69227 0.60463 0.0
C471 C 0.82748 0.69678 0.59359 0.0
C472 C 0.80654 0.69226 0.5965 0.0
C473 C 0.79792 0.68334 0.61012 0.0
C474 C 0.83031 0.64066 0.67122 0.0
C475 C 0.8684 0.7029 0.66912 0.0
O476 O 0.85005 0.66203 0.71172 0.0
O477 O 0.85356 0.69343 0.71947 0.0
O478 O 0.84366 0.71212 0.69634 0.0
O479 O 0.81518 0.68547 0.68465 0.0
O480 O 0.80563 0.65065 0.69871 0.0
O481 O 0.7866 0.64975 0.67577 0.0
O482 O 0.8049 0.68388 0.64726 0.0
O483 O 0.80283 0.65321 0.63926 0.0
O484 O 0.81214 0.63419 0.66271 0.0
O485 O 0.84048 0.66105 0.67422 0.0
O486 O 0.84988 0.69582 0.66027 0.0
O487 O 0.86894 0.69603 0.68294 0.0
H488 H 0.81506 0.6661 0.73207 0.0
H489 H 0.80009 0.65118 0.7562 0.0
H490 H 0.86006 0.65356 0.77159 0.0
H491 H 0.8747 0.66808 0.74733 0.0
H492 H 0.84071 0.68017 0.62668 0.0
H493 H 0.85591 0.69581 0.60278 0.0
H494 H 0.79668 0.69532 0.58814 0.0
H495 H 0.78173 0.67994 0.61212 0.0
C496 C 0.34369 0.1888 0.72275 0.0
Eu497 Eu 0.3354 0.16806 0.69503 0.0
C498 C 0.35276 0.18872 0.73843 0.0
C499 C 0.35569 0.17143 0.74236 0.0
C500 C 0.36358 0.17133 0.75758 0.0
C501 C 0.36878 0.18859 0.76903 0.0
C502 C 0.36611 0.20601 0.7649 0.0
C503 C 0.35815 0.20605 0.74973 0.0
C504 C 0.30555 0.1257 0.68632 0.0
C505 C 0.36757 0.14837 0.68973 0.0
C506 C 0.32887 0.13031 0.63455 0.0
Eu507 Eu 0.33743 0.15088 0.66235 0.0
C508 C 0.32046 0.13154 0.61895 0.0
C509 C 0.31818 0.14941 0.61563 0.0
C510 C 0.31062 0.15053 0.60056 0.0
C511 C 0.30511 0.13371 0.58865 0.0
C512 C 0.30723 0.11575 0.59215 0.0
C513 C 0.31485 0.1147 0.60718 0.0
C514 C 0.36712 0.19334 0.67103 0.0
C515 C 0.30535 0.1708 0.66766 0.0
O516 O 0.35726 0.19544 0.71209 0.0
O517 O 0.32497 0.17169 0.71761 0.0
O518 O 0.30173 0.13869 0.69497 0.0
O519 O 0.3251 0.13515 0.68357 0.0
O520 O 0.36358 0.16172 0.69838 0.0
O521 O 0.35659 0.13895 0.67597 0.0
O522 O 0.31506 0.12412 0.64506 0.0
O523 O 0.34801 0.1466 0.63997 0.0
O524 O 0.37103 0.18045 0.66232 0.0
O525 O 0.34757 0.18373 0.67375 0.0
O526 O 0.30963 0.15786 0.65877 0.0
O527 O 0.31595 0.17971 0.68159 0.0
H528 H 0.3517 0.15797 0.7337 0.0
H529 H 0.36568 0.15781 0.76038 0.0
H530 H 0.36968 0.2194 0.77349 0.0
H531 H 0.35594 0.21949 0.74686 0.0
H532 H 0.32235 0.16251 0.62466 0.0
H533 H 0.30895 0.16445 0.59826 0.0
H534 H 0.3034 0.10268 0.58319 0.0
H535 H 0.31654 0.1008 0.60958 0.0
C536 C 0.82194 0.15604 0.6334 0.0
Eu537 Eu 0.83657 0.17537 0.66164 0.0
C538 C 0.83073 0.15676 0.61826 0.0
C539 C 0.82094 0.1604 0.60508 0.0
C540 C 0.82903 0.1614 0.59063 0.0
C541 C 0.84701 0.15863 0.58905 0.0
C542 C 0.8568 0.15495 0.60227 0.0
C543 C 0.84879 0.1541 0.61676 0.0
C544 C 0.84747 0.21686 0.67085 0.0
C545 C 0.8895 0.19746 0.66669 0.0
C546 C 0.87525 0.21145 0.72248 0.0
Eu547 Eu 0.86057 0.19262 0.69411 0.0
C548 C 0.8667 0.21015 0.73777 0.0
C549 C 0.87717 0.20688 0.75072 0.0
C550 C 0.86952 0.20568 0.76536 0.0
C551 C 0.85129 0.20789 0.7674 0.0
C552 C 0.84071 0.21103 0.75434 0.0
C553 C 0.84831 0.2121 0.73967 0.0
C554 C 0.84969 0.15121 0.68456 0.0
C555 C 0.8076 0.17055 0.68914 0.0
O556 O 0.82803 0.14786 0.64452 0.0
O557 O 0.8213 0.17337 0.63846 0.0
O558 O 0.82958 0.20308 0.66241 0.0
O559 O 0.85932 0.20864 0.67331 0.0
O560 O 0.87109 0.18354 0.65815 0.0
O561 O 0.88965 0.20636 0.6806 0.0
O562 O 0.86849 0.21947 0.71165 0.0
O563 O 0.87647 0.19459 0.71705 0.0
O564 O 0.86782 0.16502 0.69274 0.0
O565 O 0.83782 0.15945 0.68247 0.0
O566 O 0.82603 0.184 0.69784 0.0
O567 O 0.80736 0.16219 0.675 0.0
H568 H 0.80698 0.16245 0.60597 0.0
H569 H 0.82099 0.16399 0.58062 0.0
H570 H 0.8708 0.15295 0.60143 0.0
H571 H 0.85676 0.1514 0.62676 0.0
H572 H 0.89132 0.20522 0.74951 0.0
H573 H 0.87784 0.20285 0.77507 0.0
H574 H 0.82679 0.21306 0.75549 0.0
H575 H 0.83985 0.21458 0.72986 0.0
H576 H 0.27486 0.85734 0.08189 0.0
H577 H 0.30699 0.88539 0.07153 0.0
H578 H 0.31536 0.83579 0.04719 0.0
H579 H 0.28407 0.80765 0.05829 0.0
H580 H 0.35253 0.86649 0.062 0.0
H581 H 0.31528 0.90614 0.02905 0.0
H582 H 0.31029 0.9056 0.04917 0.0
H583 H 0.29927 0.88042 0.03676 0.0
C584 C 0.28354 0.85234 0.07437 0.0
C585 C 0.27681 0.83015 0.07098 0.0
C586 C 0.30176 0.86845 0.06825 0.0
C587 C 0.31342 0.86274 0.05835 0.0
C588 C 0.30654 0.84061 0.05472 0.0
H589 H 0.41454 0.9527 0.00502 0.0
H590 H 0.38077 0.92451 0.01364 0.0
C591 C 0.28848 0.8245 0.06096 0.0
C592 C 0.33353 0.87981 0.05255 0.0
H593 H 0.35405 0.92564 0.03344 0.0
C594 C 0.35281 0.87933 0.05565 0.0
C595 C 0.33389 0.89643 0.04409 0.0
C596 C 0.31352 0.89708 0.03942 0.0
C597 C 0.37247 0.89514 0.05077 0.0
C598 C 0.37304 0.91236 0.04297 0.0
C599 C 0.35369 0.91263 0.03962 0.0
C600 C 0.39346 0.92997 0.03792 0.0
C601 C 0.3923 0.89292 0.05373 0.0
C602 C 0.41174 0.94275 0.04875 0.0
C603 C 0.43116 0.95872 0.04383 0.0
C604 C 0.43257 0.96252 0.02801 0.0
C605 C 0.41403 0.95021 0.01728 0.0
C606 C 0.39469 0.93407 0.02219 0.0
H607 H 0.38781 0.87585 0.05537 0.0
H608 H 0.4026 0.89817 0.04394 0.0
H609 H 0.40207 0.90328 0.06456 0.0
H610 H 0.41102 0.94034 0.06102 0.0
H611 H 0.44507 0.96806 0.05243 0.0
H612 H 0.20666 0.47797 0.07063 0.0
H613 H 0.17738 0.4831 0.05936 0.0
H614 H 0.13032 0.4175 0.06737 0.0
H615 H 0.15947 0.41239 0.07884 0.0
H616 H 0.14604 0.46192 0.03461 0.0
H617 H 0.10836 0.45316 0.09007 0.0
H618 H 0.1349 0.45625 0.08912 0.0
H619 H 0.11091 0.43018 0.0836 0.0
C620 C 0.19008 0.46457 0.06982 0.0
C621 C 0.1853 0.44485 0.07575 0.0
C622 C 0.17338 0.46754 0.06343 0.0
C623 C 0.15164 0.45085 0.06284 0.0
C624 C 0.14692 0.4308 0.0681 0.0
H625 H 0.04222 0.44892 0.01029 0.0
H626 H 0.07052 0.44138 0.01982 0.0
C627 C 0.16358 0.42788 0.07459 0.0
C628 C 0.13391 0.45457 0.05701 0.0
H629 H 0.08878 0.45497 0.06755 0.0
C630 C 0.13352 0.46042 0.0418 0.0
C631 C 0.11779 0.45294 0.06652 0.0
C632 C 0.11806 0.448 0.08328 0.0
C633 C 0.11731 0.46449 0.03576 0.0
C634 C 0.1008 0.46217 0.0451 0.0
C635 C 0.10131 0.4565 0.06036 0.0
C636 C 0.08321 0.46624 0.03947 0.0
C637 C 0.11836 0.47177 0.0196 0.0
C638 C 0.08042 0.48216 0.04766 0.0
C639 C 0.06408 0.4863 0.04237 0.0
C640 C 0.05018 0.47459 0.02876 0.0
C641 C 0.05274 0.45835 0.02074 0.0
C642 C 0.06902 0.45413 0.02611 0.0
H643 H 0.13488 0.47838 0.01578 0.0
H644 H 0.10694 0.45761 0.01118 0.0
H645 H 0.11364 0.48444 0.01908 0.0
H646 H 0.09111 0.49161 0.05806 0.0
H647 H 0.06258 0.49893 0.04884 0.0
H648 H 0.53591 0.73774 0.04724 0.0
H649 H 0.5283 0.70203 0.03558 0.0
H650 H 0.58985 0.71404 0.05715 0.0
H651 H 0.59756 0.74965 0.06882 0.0
H652 H 0.55143 0.68994 0.0157 0.0
H653 H 0.54612 0.65648 0.07287 0.0
H654 H 0.54577 0.68137 0.07064 0.0
H655 H 0.57097 0.68136 0.07143 0.0
C656 C 0.54792 0.73286 0.04934 0.0
C657 C 0.56722 0.74639 0.05909 0.0
C658 C 0.54352 0.71245 0.04273 0.0
C659 C 0.55832 0.70523 0.04578 0.0
C660 C 0.57798 0.71907 0.05497 0.0
H661 H 0.55545 0.5831 0.02094 0.0
H662 H 0.56632 0.62068 0.03053 0.0
C663 C 0.58236 0.73941 0.06161 0.0
C664 C 0.55308 0.6831 0.03956 0.0
H665 H 0.54466 0.63441 0.05067 0.0
C666 C 0.5499 0.67777 0.02333 0.0
C667 C 0.55113 0.66728 0.04956 0.0
C668 C 0.55348 0.67177 0.0671 0.0
C669 C 0.54506 0.65709 0.01682 0.0
C670 C 0.54301 0.64126 0.02682 0.0
C671 C 0.54633 0.64663 0.04304 0.0
C672 C 0.53672 0.61877 0.02072 0.0
C673 C 0.54247 0.65245 0.99929 0.0
C674 C 0.5164 0.60521 0.01222 0.0
C675 C 0.51016 0.58381 0.00681 0.0
C676 C 0.52409 0.57555 0.00986 0.0
C677 C 0.54441 0.58908 0.01843 0.0
C678 C 0.55063 0.61051 0.02388 0.0
H679 H 0.55016 0.66771 0.99348 0.0
H680 H 0.54968 0.64239 0.99571 0.0
H681 H 0.52493 0.64328 0.99505 0.0
H682 H 0.50524 0.61111 0.00994 0.0
H683 H 0.49435 0.57369 0.00032 0.0
H684 H 0.85189 0.26712 0.94883 0.0
H685 H 0.87933 0.3024 0.96229 0.0
H686 H 0.82894 0.31182 0.9797 0.0
H687 H 0.8013 0.27655 0.96612 0.0
H688 H 0.88307 0.34278 0.95706 0.0
H689 H 0.87154 0.32612 0.01892 0.0
H690 H 0.86125 0.30465 0.00305 0.0
H691 H 0.84729 0.31936 0.00671 0.0
C692 C 0.84662 0.27667 0.95554 0.0
C693 C 0.82439 0.26907 0.95633 0.0
C694 C 0.86233 0.29678 0.96328 0.0
C695 C 0.85619 0.30964 0.97209 0.0
C696 C 0.83405 0.30196 0.97319 0.0
H697 H 0.92895 0.43988 0.0214 0.0
H698 H 0.90069 0.40342 0.01004 0.0
C699 C 0.81828 0.28181 0.96543 0.0
C700 C 0.87297 0.33159 0.97936 0.0
H701 H 0.89549 0.36265 0.01434 0.0
C702 C 0.88585 0.34712 0.96959 0.0
C703 C 0.87647 0.33721 0.9957 0.0
C704 C 0.86356 0.32095 0.00676 0.0
C705 C 0.90199 0.36822 0.97568 0.0
C706 C 0.90565 0.3738 0.99204 0.0
C707 C 0.89268 0.35831 0.00182 0.0
C708 C 0.92287 0.39564 0.99919 0.0
C709 C 0.91467 0.38447 0.96453 0.0
C710 C 0.94475 0.4032 0.99708 0.0
C711 C 0.96087 0.42401 0.00351 0.0
C712 C 0.95541 0.43754 0.01227 0.0
C713 C 0.93359 0.42979 0.01467 0.0
C714 C 0.91746 0.40898 0.00821 0.0
H715 H 0.90607 0.37963 0.95255 0.0
H716 H 0.91772 0.40097 0.96854 0.0
H717 H 0.93059 0.38542 0.9639 0.0
H718 H 0.94934 0.393 0.99045 0.0
H719 H 0.9776 0.42953 0.00159 0.0
H720 H 0.74961 0.57652 0.96745 0.0
H721 H 0.71691 0.57038 0.9793 0.0
H722 H 0.67763 0.53456 0.93636 0.0
H723 H 0.71006 0.54017 0.92458 0.0
H724 H 0.68736 0.58354 0.96837 0.0
H725 H 0.6466 0.49393 0.96964 0.0
H726 H 0.67506 0.51038 0.96715 0.0
H727 H 0.65483 0.50287 0.95091 0.0
C728 C 0.73395 0.56704 0.96063 0.0
C729 C 0.73239 0.55883 0.94508 0.0
C730 C 0.71533 0.56366 0.96738 0.0
C731 C 0.69486 0.55182 0.95875 0.0
C732 C 0.69324 0.54345 0.94329 0.0
H733 H 0.56286 0.51686 0.97094 0.0
H734 H 0.59682 0.52304 0.96146 0.0
C735 C 0.71181 0.54686 0.93653 0.0
C736 C 0.67522 0.549 0.96562 0.0
H737 H 0.62524 0.51044 0.97429 0.0
C738 C 0.67383 0.56759 0.96982 0.0
C739 C 0.65763 0.52815 0.96742 0.0
C740 C 0.6586 0.50768 0.96368 0.0
C741 C 0.655 0.56585 0.97535 0.0
C742 C 0.63729 0.54498 0.97697 0.0
C743 C 0.63882 0.52641 0.97296 0.0
C744 C 0.61691 0.54197 0.98265 0.0
C745 C 0.65398 0.58632 0.97896 0.0
C746 C 0.61694 0.55053 0.99773 0.0
C747 C 0.59756 0.54709 0.00318 0.0
C748 C 0.57774 0.53487 0.99369 0.0
C749 C 0.5778 0.52636 0.97857 0.0
C750 C 0.59719 0.52984 0.97312 0.0
H751 H 0.66649 0.60026 0.97344 0.0
H752 H 0.63774 0.58377 0.97491 0.0
H753 H 0.65689 0.59076 0.99177 0.0
H754 H 0.63192 0.55957 0.00538 0.0
H755 H 0.5981 0.55375 0.01493 0.0
H756 H 0.47432 0.20209 0.97682 0.0
H757 H 0.48153 0.17498 0.98766 0.0
H758 H 0.42116 0.12335 0.96375 0.0
H759 H 0.41388 0.15032 0.95285 0.0
H760 H 0.45769 0.14176 0.00619 0.0
H761 H 0.46552 0.10792 0.94884 0.0
H762 H 0.46555 0.1333 0.9514 0.0
H763 H 0.44043 0.1078 0.94994 0.0
C764 C 0.46249 0.18497 0.974 0.0
C765 C 0.44363 0.17833 0.96386 0.0
C766 C 0.46667 0.1695 0.98014 0.0
C767 C 0.45209 0.14716 0.97625 0.0
C768 C 0.43289 0.1405 0.96658 0.0
H769 H 0.45526 0.03124 0.00074 0.0
H770 H 0.44422 0.05632 0.99083 0.0
C771 C 0.42875 0.15592 0.96039 0.0
C772 C 0.45703 0.13084 0.98224 0.0
H773 H 0.46639 0.08972 0.97074 0.0
C774 C 0.45962 0.1304 0.99845 0.0
C775 C 0.4595 0.11601 0.9721 0.0
C776 C 0.45781 0.11633 0.95461 0.0
C777 C 0.46448 0.11541 0.00479 0.0
C778 C 0.46711 0.10072 0.99466 0.0
C779 C 0.46428 0.10098 0.97846 0.0
C780 C 0.47365 0.08553 0.00065 0.0
C781 C 0.46655 0.11527 0.02229 0.0
C782 C 0.49396 0.0937 0.0092 0.0
C783 C 0.50032 0.07947 0.01477 0.0
C784 C 0.48651 0.05683 0.01183 0.0
C785 C 0.46624 0.04864 0.00313 0.0
C786 C 0.45991 0.06291 0.99751 0.0
H787 H 0.45863 0.12341 0.02812 0.0
H788 H 0.45927 0.09836 0.02556 0.0
H789 H 0.484 0.12417 0.02679 0.0
H790 H 0.50497 0.1111 0.01149 0.0
H791 H 0.51609 0.08623 0.02135 0.0
H792 H 0.7227 0.18888 0.96925 0.0
H793 H 0.68819 0.16567 0.97972 0.0
H794 H 0.67757 0.11116 0.94815 0.0
H795 H 0.71217 0.13418 0.93783 0.0
H796 H 0.64644 0.1427 0.96451 0.0
H797 H 0.6694 0.08652 0.99029 0.0
H798 H 0.68912 0.11219 0.98404 0.0
H799 H 0.67335 0.08881 0.96999 0.0
C800 C 0.71306 0.17193 0.96461 0.0
C801 C 0.72016 0.16325 0.9528 0.0
C802 C 0.69334 0.1587 0.97058 0.0
C803 C 0.68048 0.1366 0.96489 0.0
C804 C 0.68744 0.12803 0.95296 0.0
H805 H 0.54391 0.04916 0.97381 0.0
H806 H 0.57888 0.07394 0.96474 0.0
C807 C 0.70714 0.14121 0.94701 0.0
C808 C 0.65957 0.12256 0.9712 0.0
H809 H 0.63193 0.07576 0.98864 0.0
C810 C 0.64328 0.12813 0.96987 0.0
C811 C 0.65559 0.1037 0.97836 0.0
C812 C 0.67285 0.09752 0.98092 0.0
C813 C 0.62294 0.11507 0.9752 0.0
C814 C 0.61867 0.09575 0.9818 0.0
C815 C 0.63513 0.09045 0.98343 0.0
C816 C 0.59735 0.08089 0.98727 0.0
C817 C 0.60633 0.12227 0.97393 0.0
C818 C 0.59615 0.07611 0.00285 0.0
C819 C 0.57622 0.06178 0.00804 0.0
C820 C 0.55705 0.05187 0.99774 0.0
C821 C 0.55831 0.05661 0.9821 0.0
C822 C 0.57829 0.07089 0.9769 0.0
H823 H 0.614 0.13999 0.97273 0.0
H824 H 0.59468 0.11335 0.96343 0.0
H825 H 0.59708 0.11869 0.98431 0.0
H826 H 0.61067 0.08355 0.01103 0.0
H827 H 0.57588 0.05853 0.02016 0.0
H828 H 0.81868 0.54358 0.96447 0.0
H829 H 0.84402 0.53225 0.97446 0.0
H830 H 0.89118 0.5741 0.94502 0.0
H831 H 0.86616 0.58587 0.93532 0.0
H832 H 0.8624 0.51188 0.95913 0.0
H833 H 0.92649 0.59273 0.9872 0.0
H834 H 0.89961 0.58718 0.98052 0.0
H835 H 0.91951 0.59305 0.96693 0.0
C836 C 0.83451 0.55046 0.96022 0.0
C837 C 0.84058 0.56574 0.94921 0.0
C838 C 0.84894 0.54394 0.9659 0.0
C839 C 0.86963 0.55261 0.96068 0.0
C840 C 0.87553 0.56761 0.94951 0.0
H841 H 0.95563 0.49883 0.96998 0.0
H842 H 0.92966 0.50948 0.96028 0.0
C843 C 0.86119 0.57423 0.94392 0.0
C844 C 0.88493 0.54571 0.96668 0.0
H845 H 0.93603 0.56514 0.98456 0.0
C846 C 0.87847 0.52349 0.96477 0.0
C847 C 0.90578 0.56085 0.9742 0.0
C848 C 0.91321 0.58475 0.97749 0.0
C849 C 0.89241 0.51605 0.96997 0.0
C850 C 0.91357 0.53132 0.97694 0.0
C851 C 0.9199 0.55348 0.97904 0.0
C852 C 0.92921 0.52467 0.98265 0.0
C853 C 0.88418 0.49188 0.96823 0.0
C854 C 0.93807 0.53022 0.99832 0.0
C855 C 0.95313 0.52448 0.00382 0.0
C856 C 0.95964 0.51301 0.99377 0.0
C857 C 0.95083 0.50751 0.97805 0.0
C858 C 0.93587 0.51345 0.97251 0.0
H859 H 0.86616 0.48223 0.96677 0.0
H860 H 0.89008 0.4877 0.9577 0.0
H861 H 0.89017 0.48695 0.97851 0.0
H862 H 0.93323 0.53893 0.00634 0.0
H863 H 0.95953 0.52891 0.01601 0.0
H864 H 0.47128 0.28649 0.98253 0.0
H865 H 0.48544 0.32455 0.99279 0.0
H866 H 0.42942 0.32311 0.96965 0.0
H867 H 0.41516 0.2851 0.9594 0.0
H868 H 0.49462 0.36026 0.97454 0.0
H869 H 0.4329 0.34734 0.01524 0.0
H870 H 0.43716 0.32568 0.0077 0.0
H871 H 0.42199 0.33439 0.99575 0.0
C872 C 0.46189 0.29423 0.97976 0.0
C873 C 0.44204 0.28285 0.97024 0.0
C874 C 0.47003 0.31596 0.98559 0.0
C875 C 0.45834 0.32652 0.98213 0.0
C876 C 0.4385 0.31514 0.97268 0.0
H877 H 0.47612 0.45544 0.00111 0.0
H878 H 0.46316 0.41715 0.99244 0.0
C879 C 0.43043 0.29349 0.9668 0.0
C880 C 0.46721 0.34972 0.98786 0.0
H881 H 0.45668 0.38385 0.01032 0.0
C882 C 0.48646 0.36546 0.98246 0.0
C883 C 0.45642 0.35638 0.99812 0.0
C884 C 0.43607 0.34009 0.00467 0.0
C885 C 0.49494 0.38778 0.98674 0.0
C886 C 0.48409 0.39447 0.99695 0.0
C887 C 0.46494 0.37869 0.00246 0.0
C888 C 0.49222 0.41777 0.00199 0.0
C889 C 0.51505 0.40402 0.97989 0.0
C890 C 0.51278 0.43076 0.01034 0.0
C891 C 0.52026 0.45265 0.0152 0.0
C892 C 0.50722 0.46185 0.01192 0.0
C893 C 0.48657 0.44879 0.0037 0.0
C894 C 0.47913 0.42692 0.99879 0.0
H895 H 0.51793 0.39666 0.96924 0.0
H896 H 0.51384 0.41837 0.97688 0.0
H897 H 0.52935 0.4098 0.98861 0.0
H898 H 0.52296 0.42391 0.01323 0.0
H899 H 0.5362 0.46233 0.0216 0.0
H900 H 0.19219 0.69523 0.08494 0.0
H901 H 0.1637 0.66018 0.07176 0.0
H902 H 0.15015 0.69345 0.03638 0.0
H903 H 0.1793 0.7285 0.04921 0.0
H904 H 0.12175 0.64426 0.06649 0.0
H905 H 0.15471 0.64853 0.00948 0.0
H906 H 0.17037 0.66762 0.02626 0.0
H907 H 0.15076 0.67104 0.01451 0.0
C908 C 0.18327 0.695 0.07424 0.0
C909 C 0.18808 0.71449 0.06799 0.0
C910 C 0.16696 0.675 0.06674 0.0
C911 C 0.15497 0.67409 0.05292 0.0
C912 C 0.15956 0.69364 0.04677 0.0
H913 H 0.03091 0.5579 0.01868 0.0
H914 H 0.05924 0.59419 0.0302 0.0
C915 C 0.17614 0.71368 0.05416 0.0
C916 C 0.13727 0.65269 0.04531 0.0
H917 H 0.11874 0.61969 0.01094 0.0
C918 C 0.12114 0.63887 0.05435 0.0
C919 C 0.1366 0.6455 0.02952 0.0
C920 C 0.15415 0.65884 0.01942 0.0
C921 C 0.1044 0.61813 0.04807 0.0
C922 C 0.1033 0.61126 0.03214 0.0
C923 C 0.11944 0.62505 0.0231 0.0
C924 C 0.08598 0.58956 0.02473 0.0
C925 C 0.08848 0.60356 0.05874 0.0
C926 C 0.09154 0.57519 0.01729 0.0
C927 C 0.07538 0.55466 0.01042 0.0
C928 C 0.05338 0.54809 0.01095 0.0
C929 C 0.04778 0.56254 0.01822 0.0
C930 C 0.06395 0.58319 0.02491 0.0
H931 H 0.09525 0.60849 0.0712 0.0
H932 H 0.07358 0.60479 0.05739 0.0
H933 H 0.08384 0.58627 0.05588 0.0
H934 H 0.10841 0.57976 0.01695 0.0
H935 H 0.08012 0.5438 0.0049 0.0
H936 H 0.32021 0.47923 0.10206 0.0
H937 H 0.35304 0.48671 0.08992 0.0
H938 H 0.31544 0.46163 0.04492 0.0
H939 H 0.28266 0.45456 0.05695 0.0
H940 H 0.36175 0.4582 0.07384 0.0
H941 H 0.36509 0.51992 0.03586 0.0
H942 H 0.34776 0.51119 0.05142 0.0
H943 H 0.33986 0.49454 0.03307 0.0
C944 C 0.31902 0.47547 0.08955 0.0
C945 C 0.29898 0.46649 0.08043 0.0
C946 C 0.33774 0.47971 0.08265 0.0
C947 C 0.33675 0.47504 0.06649 0.0
C948 C 0.31667 0.46584 0.05736 0.0
H949 H 0.43468 0.48566 0.00649 0.0
H950 H 0.40066 0.47708 0.01719 0.0
C951 C 0.29793 0.4617 0.06426 0.0
C952 C 0.35668 0.47924 0.05935 0.0
H953 H 0.39016 0.50775 0.03234 0.0
C954 C 0.36799 0.46908 0.06479 0.0
C955 C 0.36477 0.49342 0.04753 0.0
C956 C 0.35388 0.50557 0.0417 0.0
C957 C 0.38711 0.4726 0.05868 0.0
C958 C 0.39521 0.48682 0.04692 0.0
C959 C 0.38382 0.49681 0.04134 0.0
C960 C 0.41578 0.4919 0.04051 0.0
C961 C 0.39839 0.46092 0.06471 0.0
C962 C 0.43552 0.50326 0.05006 0.0
C963 C 0.45498 0.50824 0.044 0.0
C964 C 0.45505 0.50195 0.02824 0.0
C965 C 0.43521 0.49065 0.01868 0.0
C966 C 0.41576 0.48576 0.02476 0.0
H967 H 0.38755 0.44687 0.07098 0.0
H968 H 0.40425 0.45497 0.05501 0.0
H969 H 0.41268 0.47242 0.07299 0.0
H970 H 0.43589 0.50841 0.0622 0.0
H971 H 0.46994 0.51699 0.05169 0.0
H972 H 0.59473 0.88215 0.06852 0.0
H973 H 0.58026 0.9047 0.05918 0.0
H974 H 0.52445 0.84743 0.03518 0.0
H975 H 0.53907 0.82483 0.04427 0.0
H976 H 0.54201 0.88194 0.01714 0.0
H977 H 0.53015 0.90907 0.07545 0.0
H978 H 0.55732 0.91451 0.07394 0.0
H979 H 0.53529 0.8868 0.0723 0.0
C980 C 0.57938 0.8744 0.06124 0.0
C981 C 0.568 0.85178 0.05716 0.0
C982 C 0.57106 0.88726 0.05601 0.0
C983 C 0.55107 0.87769 0.04675 0.0
C984 C 0.53983 0.85511 0.04242 0.0
H985 H 0.47485 0.92991 0.00455 0.0
H986 H 0.48776 0.90605 0.01387 0.0
C987 C 0.5482 0.84223 0.04761 0.0
C988 C 0.54214 0.89133 0.04134 0.0
H989 H 0.52674 0.92746 0.05421 0.0
C990 C 0.53851 0.89177 0.02523 0.0
C991 C 0.53757 0.90413 0.05194 0.0
C992 C 0.54007 0.90349 0.06937 0.0
C993 C 0.53094 0.90508 0.01943 0.0
C994 C 0.52668 0.91808 0.03003 0.0
C995 C 0.53014 0.91753 0.04613 0.0
C996 C 0.51869 0.93244 0.02462 0.0
C997 C 0.52806 0.90555 0.00201 0.0
C998 C 0.53163 0.95513 0.02789 0.0
C999 C 0.5243 0.96877 0.02258 0.0
C1000 C 0.50383 0.9599 0.01405 0.0
C1001 C 0.49075 0.93717 0.01103 0.0
C1002 C 0.49812 0.92354 0.01629 0.0
H1003 H 0.53643 0.89834 0.99564 0.0
H1004 H 0.51051 0.89602 0.99783 0.0
H1005 H 0.53437 0.92251 0.99905 0.0
H1006 H 0.54752 0.96228 0.03437 0.0
H1007 H 0.53474 0.98625 0.02502 0.0
H1008 H 0.92947 0.16054 0.38322 0.0
H1009 H 0.96196 0.18765 0.37224 0.0
H1010 H 0.99962 0.20127 0.41669 0.0
H1011 H 0.96749 0.17401 0.42761 0.0
H1012 H 0.98887 0.23308 0.38301 0.0
H1013 H 0.03477 0.18908 0.3855 0.0
H1014 H 0.00589 0.17577 0.38686 0.0
H1015 H 0.02471 0.19184 0.40357 0.0
C1016 C 0.94473 0.16917 0.39059 0.0
C1017 C 0.9459 0.16514 0.40629 0.0
C1018 C 0.96323 0.18471 0.38433 0.0
C1019 C 0.98323 0.19627 0.39361 0.0
C1020 C 0.98441 0.19231 0.40927 0.0
H1021 H 0.11438 0.29671 0.38416 0.0
H1022 H 0.08042 0.26914 0.39294 0.0
C1023 C 0.96597 0.17688 0.41553 0.0
C1024 C 0.00284 0.21288 0.38712 0.0
H1025 H 0.05445 0.22619 0.38045 0.0
C1026 C 0.00316 0.23153 0.3823 0.0
C1027 C 0.02145 0.21079 0.38626 0.0
C1028 C 0.02172 0.19071 0.39069 0.0
C1029 C 0.02187 0.2485 0.37711 0.0
C1030 C 0.04059 0.24653 0.37644 0.0
C1031 C 0.04012 0.22772 0.38104 0.0
C1032 C 0.06095 0.26387 0.37117 0.0
C1033 C 0.02166 0.26867 0.37286 0.0
C1034 C 0.06132 0.27003 0.35598 0.0
C1035 C 0.08072 0.28586 0.35092 0.0
C1036 C 0.10019 0.2957 0.36092 0.0
C1037 C 0.09973 0.28949 0.37614 0.0
C1038 C 0.08032 0.27371 0.38119 0.0
H1039 H 0.00831 0.27002 0.37779 0.0
H1040 H 0.03732 0.28359 0.37707 0.0
H1041 H 0.01919 0.26794 0.35997 0.0
H1042 H 0.04666 0.26233 0.34794 0.0
H1043 H 0.08048 0.29011 0.3391 0.0
H1044 H 0.87572 0.80613 0.399 0.0
H1045 H 0.84707 0.81134 0.38671 0.0
H1046 H 0.79943 0.7585 0.40969 0.0
H1047 H 0.82766 0.75229 0.42118 0.0
H1048 H 0.78418 0.75687 0.3806 0.0
H1049 H 0.81969 0.84106 0.40916 0.0
H1050 H 0.83767 0.83754 0.39726 0.0
H1051 H 0.8297 0.82324 0.41436 0.0
C1052 C 0.85911 0.79538 0.40123 0.0
C1053 C 0.85407 0.77899 0.41128 0.0
C1054 C 0.84278 0.79859 0.39438 0.0
C1055 C 0.82119 0.78571 0.39763 0.0
C1056 C 0.81601 0.76882 0.40715 0.0
H1057 H 0.72028 0.81945 0.38678 0.0
H1058 H 0.74828 0.81158 0.39652 0.0
C1059 C 0.83223 0.76544 0.41385 0.0
C1060 C 0.80391 0.78984 0.39133 0.0
H1061 H 0.7892 0.8287 0.39047 0.0
C1062 C 0.78526 0.77258 0.38277 0.0
C1063 C 0.80515 0.81022 0.39441 0.0
C1064 C 0.82402 0.82901 0.40443 0.0
C1065 C 0.76788 0.77513 0.37716 0.0
C1066 C 0.76946 0.79573 0.37977 0.0
C1067 C 0.78807 0.81297 0.38837 0.0
C1068 C 0.75195 0.79976 0.37385 0.0
C1069 C 0.74776 0.75553 0.36892 0.0
C1070 C 0.74475 0.79584 0.35786 0.0
C1071 C 0.72853 0.80001 0.3523 0.0
C1072 C 0.7195 0.80862 0.36258 0.0
C1073 C 0.72689 0.81278 0.37856 0.0
C1074 C 0.74291 0.80833 0.38414 0.0
H1075 H 0.74646 0.74006 0.37214 0.0
H1076 H 0.73284 0.75566 0.37169 0.0
H1077 H 0.74855 0.75571 0.35612 0.0
H1078 H 0.75191 0.78985 0.34962 0.0
H1079 H 0.72342 0.79692 0.33989 0.0
H1080 H 0.20418 0.05717 0.41002 0.0
H1081 H 0.19818 0.02237 0.39801 0.0
H1082 H 0.24128 0.0557 0.36355 0.0
H1083 H 0.24691 0.09063 0.37537 0.0
H1084 H 0.20612 0.01891 0.35052 0.0
H1085 H 0.24036 1.00074 0.4029 0.0
H1086 H 0.21855 0.00523 0.40714 0.0
H1087 H 0.24306 0.02709 0.40115 0.0
C1088 C 0.21235 0.05705 0.39987 0.0
C1089 C 0.22617 0.07658 0.3937 0.0
C1090 C 0.20903 0.03719 0.39308 0.0
C1091 C 0.21977 0.03649 0.38016 0.0
C1092 C 0.233 0.05589 0.37362 0.0
H1093 H 0.22282 0.9177 0.35187 0.0
H1094 H 0.23342 0.95531 0.36105 0.0
C1095 C 0.23614 0.07579 0.38032 0.0
C1096 C 0.21697 0.01543 0.37346 0.0
H1097 H 0.21931 0.97079 0.38327 0.0
C1098 C 0.20921 0.00847 0.35764 0.0
C1099 C 0.22149 0.00202 0.38264 0.0
C1100 C 0.23156 0.00926 0.39935 0.0
C1101 C 0.20499 0.9881 0.35092 0.0
C1102 C 0.20804 0.97405 0.3604 0.0
C1103 C 0.21665 0.98139 0.37605 0.0
C1104 C 0.20185 0.95147 0.35447 0.0
C1105 C 0.19747 0.98196 0.33371 0.0
C1106 C 0.18053 0.93672 0.34796 0.0
C1107 C 0.17455 0.91538 0.34258 0.0
C1108 C 0.18967 0.90826 0.34388 0.0
C1109 C 0.21088 0.92283 0.35069 0.0
C1110 C 0.21693 0.94429 0.35593 0.0
H1111 H 0.20298 0.99665 0.32733 0.0
H1112 H 0.20357 0.97169 0.32841 0.0
H1113 H 0.17947 0.97267 0.33207 0.0
H1114 H 0.16841 0.94163 0.34718 0.0
H1115 H 0.15801 0.90439 0.33755 0.0
H1116 H 0.47092 0.6116 0.29808 0.0
H1117 H 0.49976 0.64643 0.31146 0.0
H1118 H 0.54806 0.63248 0.29558 0.0
H1119 H 0.51941 0.59758 0.28234 0.0
H1120 H 0.53544 0.65629 0.33465 0.0
H1121 H 0.56314 0.69146 0.27896 0.0
H1122 H 0.53718 0.66729 0.27987 0.0
H1123 H 0.56156 0.66572 0.28094 0.0
C1124 C 0.48767 0.61578 0.29764 0.0
C1125 C 0.49288 0.60191 0.289 0.0
C1126 C 0.50411 0.63573 0.30522 0.0
C1127 C 0.52601 0.64217 0.30425 0.0
C1128 C 0.53126 0.628 0.29619 0.0
H1129 H 0.64732 0.76272 0.33411 0.0
H1130 H 0.61968 0.7256 0.32344 0.0
C1131 C 0.51486 0.60808 0.28863 0.0
C1132 C 0.54339 0.66394 0.31132 0.0
H1133 H 0.58398 0.71277 0.30224 0.0
C1134 C 0.54605 0.66868 0.32759 0.0
C1135 C 0.55722 0.68 0.30205 0.0
C1136 C 0.55461 0.67602 0.28447 0.0
C1137 C 0.56239 0.68902 0.33488 0.0
C1138 C 0.5761 0.70517 0.32559 0.0
C1139 C 0.57349 0.70036 0.30933 0.0
C1140 C 0.5929 0.72738 0.33245 0.0
C1141 C 0.56507 0.69288 0.35246 0.0
C1142 C 0.58698 0.74076 0.34088 0.0
C1143 C 0.60271 0.76188 0.34698 0.0
C1144 C 0.62462 0.77008 0.34465 0.0
C1145 C 0.63054 0.75677 0.33611 0.0
C1146 C 0.61479 0.7356 0.33003 0.0
H1147 H 0.55782 0.67731 0.35789 0.0
H1148 H 0.58247 0.70289 0.35703 0.0
H1149 H 0.55668 0.70174 0.35612 0.0
H1150 H 0.57013 0.73497 0.34256 0.0
H1151 H 0.59767 0.77187 0.35341 0.0
H1152 H 0.37736 0.8791 0.25735 0.0
H1153 H 0.34569 0.87533 0.26935 0.0
H1154 H 0.38391 0.9004 0.31409 0.0
H1155 H 0.41589 0.90458 0.30209 0.0
H1156 H 0.32686 0.85013 0.29518 0.0
H1157 H 0.35465 0.93826 0.30797 0.0
H1158 H 0.36642 0.92846 0.29395 0.0
H1159 H 0.37317 0.92942 0.31446 0.0
C1160 C 0.37911 0.88406 0.26971 0.0
C1161 C 0.39916 0.89229 0.27876 0.0
C1162 C 0.36098 0.88177 0.27656 0.0
C1163 C 0.36255 0.88781 0.29255 0.0
C1164 C 0.38247 0.89592 0.30168 0.0
H1165 H 0.26462 0.88546 0.34951 0.0
H1166 H 0.29854 0.89114 0.34014 0.0
C1167 C 0.40065 0.89812 0.29484 0.0
C1168 C 0.34309 0.88505 0.29963 0.0
H1169 H 0.32074 0.91319 0.31592 0.0
C1170 C 0.32551 0.86389 0.29976 0.0
C1171 C 0.34151 0.90306 0.30565 0.0
C1172 C 0.35984 0.92613 0.30546 0.0
C1173 C 0.30626 0.86022 0.30573 0.0
C1174 C 0.30441 0.87825 0.31137 0.0
C1175 C 0.32218 0.89942 0.31152 0.0
C1176 C 0.28399 0.87545 0.31687 0.0
C1177 C 0.28821 0.83704 0.30612 0.0
C1178 C 0.26469 0.86522 0.30678 0.0
C1179 C 0.24528 0.86187 0.3121 0.0
C1180 C 0.24484 0.86891 0.32759 0.0
C1181 C 0.26436 0.8798 0.33753 0.0
C1182 C 0.28377 0.88305 0.3322 0.0
H1183 H 0.29438 0.82546 0.30575 0.0
H1184 H 0.27971 0.83526 0.31677 0.0
H1185 H 0.27621 0.83239 0.29577 0.0
H1186 H 0.2646 0.85973 0.29479 0.0
H1187 H 0.23061 0.85364 0.30408 0.0
H1188 H 0.12244 0.50372 0.27401 0.0
H1189 H 0.12935 0.47644 0.2844 0.0
H1190 H 0.11305 0.48994 0.32945 0.0
H1191 H 0.10439 0.51608 0.31882 0.0
H1192 H 0.15788 0.47961 0.30584 0.0
H1193 H 0.07676 0.42524 0.32436 0.0
H1194 H 0.08185 0.4471 0.31259 0.0
H1195 H 0.08849 0.45254 0.33346 0.0
C1196 C 0.11981 0.5006 0.28604 0.0
C1197 C 0.11248 0.51195 0.29548 0.0
C1198 C 0.12402 0.4851 0.29202 0.0
C1199 C 0.12128 0.48073 0.30763 0.0
C1200 C 0.11466 0.49251 0.31724 0.0
H1201 H 0.18177 0.41874 0.35684 0.0
H1202 H 0.17173 0.44396 0.34631 0.0
C1203 C 0.11009 0.50778 0.3112 0.0
C1204 C 0.12607 0.46437 0.31387 0.0
H1205 H 0.10526 0.41903 0.33354 0.0
C1206 C 0.14629 0.46629 0.31181 0.0
C1207 C 0.11083 0.4467 0.3214 0.0
C1208 C 0.0882 0.44261 0.32294 0.0
C1209 C 0.15183 0.45131 0.31725 0.0
C1210 C 0.13707 0.43438 0.32555 0.0
C1211 C 0.11669 0.43218 0.32737 0.0
C1212 C 0.14256 0.41888 0.3325 0.0
C1213 C 0.17326 0.45358 0.31371 0.0
C1214 C 0.12894 0.39628 0.3289 0.0
C1215 C 0.1344 0.38176 0.33524 0.0
C1216 C 0.15367 0.38964 0.34515 0.0
C1217 C 0.16697 0.41221 0.34905 0.0
C1218 C 0.16134 0.42666 0.34292 0.0
H1219 H 0.17905 0.46234 0.30322 0.0
H1220 H 0.18567 0.46317 0.32371 0.0
H1221 H 0.17207 0.43743 0.31175 0.0
H1222 H 0.11422 0.38988 0.32103 0.0
H1223 H 0.12365 0.36442 0.33229 0.0
H1224 H 0.39585 0.51298 0.30442 0.0
H1225 H 0.36311 0.48658 0.31548 0.0
H1226 H 0.32653 0.47014 0.27024 0.0
H1227 H 0.35923 0.49617 0.25909 0.0
H1228 H 0.32361 0.48488 0.31656 0.0
H1229 H 0.31243 0.41067 0.28277 0.0
H1230 H 0.3373 0.43656 0.28395 0.0
H1231 H 0.31433 0.43109 0.27068 0.0
C1232 C 0.38084 0.50368 0.29683 0.0
C1233 C 0.38005 0.50652 0.28086 0.0
C1234 C 0.36216 0.48862 0.30316 0.0
C1235 C 0.34247 0.47611 0.29362 0.0
C1236 C 0.34165 0.47921 0.27774 0.0
H1237 H 0.20942 0.38328 0.30574 0.0
H1238 H 0.24369 0.40919 0.29631 0.0
C1239 C 0.36028 0.49419 0.27141 0.0
C1240 C 0.32262 0.46018 0.30029 0.0
H1241 H 0.28271 0.40663 0.29632 0.0
C1242 C 0.31477 0.46774 0.31224 0.0
C1243 C 0.31111 0.43781 0.29465 0.0
C1244 C 0.31932 0.42848 0.28241 0.0
C1245 C 0.29537 0.45364 0.31838 0.0
C1246 C 0.28369 0.43137 0.31252 0.0
C1247 C 0.29167 0.42375 0.30072 0.0
C1248 C 0.26301 0.41573 0.31837 0.0
C1249 C 0.28719 0.46276 0.33077 0.0
C1250 C 0.26258 0.41064 0.33385 0.0
C1251 C 0.24303 0.39579 0.33929 0.0
C1252 C 0.22353 0.38573 0.32932 0.0
C1253 C 0.22409 0.39076 0.31376 0.0
C1254 C 0.24367 0.40555 0.30833 0.0
H1255 H 0.29548 0.48083 0.33158 0.0
H1256 H 0.26943 0.45604 0.32837 0.0
H1257 H 0.29027 0.45805 0.34227 0.0
H1258 H 0.27741 0.41806 0.34171 0.0
H1259 H 0.24323 0.39227 0.35132 0.0
H1260 H 0.491 0.88386 0.30014 0.0
H1261 H 0.52108 0.88022 0.31181 0.0
H1262 H 0.52456 0.85123 0.26753 0.0
H1263 H 0.4948 0.85517 0.25577 0.0
H1264 H 0.52424 0.84307 0.31422 0.0
H1265 H 0.58704 0.9 0.2791 0.0
H1266 H 0.56126 0.89872 0.28012 0.0
H1267 H 0.5633 0.87897 0.26741 0.0
C1268 C 0.4982 0.87674 0.29291 0.0
C1269 C 0.49068 0.86986 0.27703 0.0
C1270 C 0.51537 0.87468 0.29958 0.0
C1271 C 0.52531 0.86584 0.29046 0.0
C1272 C 0.51748 0.85858 0.27468 0.0
H1273 H 0.62214 0.82835 0.30425 0.0
H1274 H 0.59375 0.83562 0.29444 0.0
C1275 C 0.5004 0.86069 0.26801 0.0
C1276 C 0.54356 0.86371 0.29744 0.0
H1277 H 0.59601 0.87736 0.29343 0.0
C1278 C 0.54001 0.85074 0.3098 0.0
C1279 C 0.56412 0.87378 0.29164 0.0
C1280 C 0.56928 0.88882 0.27894 0.0
C1281 C 0.55626 0.84697 0.31618 0.0
C1282 C 0.57663 0.85665 0.31015 0.0
C1283 C 0.58031 0.8699 0.29797 0.0
C1284 C 0.5942 0.85283 0.31611 0.0
C1285 C 0.55133 0.83214 0.32901 0.0
C1286 C 0.60408 0.86046 0.33145 0.0
C1287 C 0.62036 0.8564 0.3371 0.0
C1288 C 0.62705 0.84465 0.32748 0.0
C1289 C 0.61735 0.83738 0.312 0.0
C1290 C 0.60113 0.84153 0.30636 0.0
H1291 H 0.53365 0.82255 0.33014 0.0
H1292 H 0.55744 0.8207 0.32683 0.0
H1293 H 0.55963 0.8421 0.34029 0.0
H1294 H 0.59916 0.86951 0.33907 0.0
H1295 H 0.62751 0.86227 0.34906 0.0
H1296 H 0.13909 0.61956 0.31562 0.0
H1297 H 0.1538 0.65784 0.32553 0.0
H1298 H 0.09557 0.65527 0.30565 0.0
H1299 H 0.08075 0.61702 0.29584 0.0
H1300 H 0.16121 0.69277 0.30778 0.0
H1301 H 0.10277 0.68098 0.35097 0.0
H1302 H 0.10612 0.65902 0.34277 0.0
H1303 H 0.09022 0.66784 0.33177 0.0
C1304 C 0.12936 0.6271 0.3135 0.0
C1305 C 0.1087 0.61533 0.30504 0.0
C1306 C 0.13779 0.64896 0.31913 0.0
C1307 C 0.12564 0.65928 0.31651 0.0
C1308 C 0.10503 0.6475 0.30807 0.0
H1309 H 0.14328 0.78815 0.33416 0.0
H1310 H 0.1305 0.74979 0.32586 0.0
C1311 C 0.09663 0.62571 0.30242 0.0
C1312 C 0.13475 0.68259 0.32204 0.0
H1313 H 0.12534 0.71727 0.34486 0.0
C1314 C 0.15352 0.69816 0.316 0.0
C1315 C 0.12461 0.68952 0.33271 0.0
C1316 C 0.10492 0.67348 0.34006 0.0
C1317 C 0.16206 0.72056 0.32001 0.0
C1318 C 0.15176 0.72749 0.33055 0.0
C1319 C 0.13315 0.7119 0.33673 0.0
C1320 C 0.15987 0.75087 0.33523 0.0
C1321 C 0.18164 0.73662 0.31257 0.0
C1322 C 0.18057 0.76413 0.34332 0.0
C1323 C 0.18792 0.78605 0.34802 0.0
C1324 C 0.17462 0.79499 0.34479 0.0
C1325 C 0.1539 0.78169 0.33673 0.0
C1326 C 0.14657 0.75979 0.33202 0.0
H1327 H 0.18427 0.72891 0.30199 0.0
H1328 H 0.17992 0.75059 0.30931 0.0
H1329 H 0.1963 0.74304 0.32105 0.0
H1330 H 0.19092 0.75747 0.34617 0.0
H1331 H 0.20393 0.79593 0.35427 0.0
H1332 H 0.84203 0.03533 0.42338 0.0
H1333 H 0.81457 1.00025 0.40966 0.0
H1334 H 0.82977 0.02706 0.36554 0.0
H1335 H 0.8571 0.06248 0.3793 0.0
H1336 H 0.78528 0.00206 0.36765 0.0
H1337 H 0.82694 0.95747 0.38544 0.0
H1338 H 0.82269 0.97131 0.40171 0.0
H1339 H 0.84028 0.98683 0.38762 0.0
C1340 C 0.83955 0.03372 0.41075 0.0
C1341 C 0.85179 0.05154 0.4024 0.0
C1342 C 0.82394 0.01366 0.40292 0.0
C1343 C 0.82041 0.01092 0.38657 0.0
C1344 C 0.83235 0.0288 0.37817 0.0
H1345 H 0.74812 0.88266 0.33443 0.0
H1346 H 0.77573 0.91975 0.34476 0.0
C1347 C 0.84798 0.04899 0.38603 0.0
C1348 C 0.80412 0.98938 0.37837 0.0
H1349 H 0.79002 0.93579 0.37463 0.0
C1350 C 0.78637 0.98758 0.36905 0.0
C1351 C 0.80573 0.97055 0.38005 0.0
C1352 C 0.82505 0.97162 0.38912 0.0
C1353 C 0.76986 0.96733 0.36172 0.0
C1354 C 0.77098 0.94835 0.36403 0.0
C1355 C 0.78903 0.95029 0.37301 0.0
C1356 C 0.75378 0.9263 0.35714 0.0
C1357 C 0.75156 0.96651 0.35144 0.0
C1358 C 0.73223 0.91759 0.36069 0.0
C1359 C 0.71637 0.89641 0.35467 0.0
C1360 C 0.72188 0.88351 0.34521 0.0
C1361 C 0.74341 0.89224 0.34169 0.0
C1362 C 0.7592 0.91342 0.3476 0.0
H1363 H 0.75625 0.98262 0.34729 0.0
H1364 H 0.7464 0.95428 0.34113 0.0
H1365 H 0.73744 0.96185 0.35822 0.0
H1366 H 0.72776 0.927 0.36832 0.0
H1367 H 0.69988 0.89005 0.35758 0.0
H1368 H 0.95375 0.79851 0.39349 0.0
H1369 H 0.98789 0.80971 0.38209 0.0
H1370 H 0.00312 0.77316 0.41357 0.0
H1371 H 0.96883 0.7616 0.42483 0.0
H1372 H 0.02991 0.83298 0.39636 0.0
H1373 H 0.0112 0.75121 0.37123 0.0
H1374 H 0.99066 0.75651 0.37795 0.0
H1375 H 0.00812 0.75264 0.39168 0.0
C1376 C 0.9643 0.79275 0.39791 0.0
C1377 C 0.95862 0.77906 0.40999 0.0
C1378 C 0.98381 0.79919 0.39141 0.0
C1379 C 0.99787 0.79199 0.39682 0.0
C1380 C 0.99229 0.77851 0.40898 0.0
H1381 H 0.13451 0.84747 0.38444 0.0
H1382 H 0.09962 0.8366 0.39444 0.0
C1383 C 0.97278 0.77201 0.41545 0.0
C1384 C 0.01865 0.79902 0.39003 0.0
H1385 H 0.04786 0.77983 0.37188 0.0
C1386 C 0.03382 0.82138 0.39093 0.0
C1387 C 0.02357 0.78387 0.38278 0.0
C1388 C 0.00745 0.75973 0.38069 0.0
C1389 C 0.05399 0.82899 0.38505 0.0
C1390 C 0.05924 0.81378 0.37835 0.0
C1391 C 0.04389 0.79145 0.37718 0.0
C1392 C 0.08046 0.82065 0.37231 0.0
C1393 C 0.06933 0.85324 0.38585 0.0
C1394 C 0.08125 0.81484 0.35664 0.0
C1395 C 0.10114 0.82082 0.35091 0.0
C1396 C 0.12065 0.83271 0.36077 0.0
C1397 C 0.11981 0.83846 0.37649 0.0
C1398 C 0.09988 0.83237 0.38222 0.0
H1399 H 0.06069 0.8625 0.38725 0.0
H1400 H 0.08164 0.85842 0.39607 0.0
H1401 H 0.07794 0.85765 0.37519 0.0
H1402 H 0.06644 0.80571 0.34881 0.0
H1403 H 0.10117 0.81613 0.33875 0.0
H1404 H 0.20612 0.15869 0.37689 0.0
H1405 H 0.1933 0.18205 0.36639 0.0
H1406 H 0.24758 0.23839 0.39256 0.0
H1407 H 0.26047 0.21512 0.40314 0.0
H1408 H 0.18334 0.21115 0.38529 0.0
H1409 H 0.24801 0.25455 0.34657 0.0
H1410 H 0.24218 0.22883 0.35338 0.0
H1411 H 0.2571 0.25354 0.36625 0.0
C1412 C 0.21542 0.17607 0.38031 0.0
C1413 C 0.23437 0.18516 0.39078 0.0
C1414 C 0.20805 0.18936 0.37433 0.0
C1415 C 0.21963 0.21193 0.37859 0.0
C1416 C 0.2386 0.22104 0.38896 0.0
H1417 H 0.20317 0.32038 0.35586 0.0
H1418 H 0.21606 0.29681 0.3658 0.0
C1419 C 0.24589 0.20775 0.39503 0.0
C1420 C 0.21145 0.22589 0.37264 0.0
H1421 H 0.22333 0.26718 0.34978 0.0
C1422 C 0.19198 0.22334 0.37746 0.0
C1423 C 0.2229 0.24184 0.36254 0.0
C1424 C 0.24364 0.24485 0.35675 0.0
C1425 C 0.18381 0.23663 0.37266 0.0
C1426 C 0.19517 0.2525 0.36243 0.0
C1427 C 0.21465 0.25501 0.3576 0.0
C1428 C 0.18713 0.26668 0.35659 0.0
C1429 C 0.16343 0.23393 0.37893 0.0
C1430 C 0.1667 0.25758 0.34798 0.0
C1431 C 0.15923 0.27099 0.34244 0.0
C1432 C 0.17217 0.29375 0.34528 0.0
C1433 C 0.19275 0.30287 0.35367 0.0
C1434 C 0.20017 0.28944 0.35929 0.0
H1435 H 0.16034 0.22575 0.38983 0.0
H1436 H 0.1644 0.24992 0.38133 0.0
H1437 H 0.14934 0.22368 0.37013 0.0
H1438 H 0.15659 0.24008 0.34542 0.0
H1439 H 0.14336 0.26355 0.3359 0.0
H1440 H 0.61463 0.47403 0.72465 0.0
H1441 H 0.64769 0.50174 0.71493 0.0
H1442 H 0.64273 0.55217 0.74138 0.0
H1443 H 0.60898 0.52471 0.75036 0.0
H1444 H 0.65343 0.56322 0.71312 0.0
H1445 H 0.70693 0.53487 0.73866 0.0
H1446 H 0.6846 0.51411 0.72572 0.0
H1447 H 0.67951 0.52459 0.74349 0.0
C1448 C 0.6204 0.49102 0.72827 0.0
C1449 C 0.60916 0.49706 0.73843 0.0
C1450 C 0.63952 0.50685 0.72288 0.0
C1451 C 0.64802 0.52904 0.72772 0.0
C1452 C 0.63664 0.53515 0.73761 0.0
H1453 H 0.78024 0.63137 0.71938 0.0
H1454 H 0.74629 0.60445 0.72861 0.0
C1455 C 0.61742 0.51937 0.74287 0.0
C1456 C 0.66858 0.54598 0.72234 0.0
H1457 H 0.72209 0.56185 0.72098 0.0
C1458 C 0.66846 0.56296 0.71489 0.0
C1459 C 0.68831 0.54588 0.72489 0.0
C1460 C 0.68996 0.52902 0.73377 0.0
C1461 C 0.68741 0.57966 0.70977 0.0
C1462 C 0.70692 0.57904 0.71172 0.0
C1463 C 0.7071 0.56222 0.71933 0.0
C1464 C 0.72739 0.59577 0.70609 0.0
C1465 C 0.68638 0.59806 0.70267 0.0
C1466 C 0.72817 0.59977 0.69033 0.0
C1467 C 0.74749 0.61538 0.68506 0.0
C1468 C 0.76657 0.62702 0.69539 0.0
C1469 C 0.76585 0.62275 0.71111 0.0
C1470 C 0.74644 0.60733 0.71641 0.0
H1471 H 0.67261 0.59971 0.70644 0.0
H1472 H 0.70164 0.61383 0.70589 0.0
H1473 H 0.68389 0.59466 0.68977 0.0
H1474 H 0.71388 0.59063 0.68203 0.0
H1475 H 0.74753 0.61804 0.67283 0.0
H1476 H 0.54131 0.14634 0.73719 0.0
H1477 H 0.51246 0.15198 0.72569 0.0
H1478 H 0.46439 0.08753 0.73524 0.0
H1479 H 0.49311 0.08199 0.747 0.0
H1480 H 0.48055 0.13093 0.70153 0.0
H1481 H 0.44434 0.12512 0.75736 0.0
H1482 H 0.47044 0.1272 0.75625 0.0
H1483 H 0.44588 0.10142 0.75127 0.0
C1484 C 0.52459 0.1333 0.73665 0.0
C1485 C 0.5194 0.11382 0.74312 0.0
C1486 C 0.50814 0.13656 0.73014 0.0
C1487 C 0.48625 0.12037 0.72995 0.0
C1488 C 0.48113 0.10048 0.73567 0.0
H1489 H 0.37686 0.11797 0.67738 0.0
H1490 H 0.40561 0.11111 0.68693 0.0
C1491 C 0.49753 0.0973 0.74231 0.0
C1492 C 0.46879 0.1245 0.72412 0.0
H1493 H 0.4243 0.12613 0.73475 0.0
C1494 C 0.46826 0.12994 0.70879 0.0
C1495 C 0.45301 0.12357 0.73371 0.0
C1496 C 0.45352 0.11923 0.75061 0.0
C1497 C 0.45219 0.13417 0.7027 0.0
C1498 C 0.43592 0.1324 0.71211 0.0
C1499 C 0.43664 0.12724 0.7275 0.0
C1500 C 0.41825 0.13629 0.70636 0.0
C1501 C 0.45312 0.14098 0.6864 0.0
C1502 C 0.41528 0.15217 0.71444 0.0
C1503 C 0.39864 0.1559 0.70915 0.0
C1504 C 0.38465 0.14383 0.69566 0.0
C1505 C 0.38746 0.1277 0.68772 0.0
C1506 C 0.40401 0.12386 0.6931 0.0
H1507 H 0.46964 0.14757 0.68259 0.0
H1508 H 0.44177 0.12659 0.67814 0.0
H1509 H 0.44827 0.15353 0.68562 0.0
H1510 H 0.426 0.16186 0.72476 0.0
H1511 H 0.39694 0.16844 0.71555 0.0
H1512 H 0.88263 0.39227 0.74764 0.0
H1513 H 0.8752 0.35712 0.73571 0.0
H1514 H 0.89267 0.38396 0.69181 0.0
H1515 H 0.90183 0.41981 0.70402 0.0
H1516 H 0.84677 0.33048 0.71343 0.0
H1517 H 0.92837 0.35528 0.69531 0.0
H1518 H 0.92327 0.37307 0.70784 0.0
H1519 H 0.91673 0.37016 0.68703 0.0
C1520 C 0.8854 0.39093 0.73553 0.0
C1521 C 0.89326 0.4091 0.7269 0.0
C1522 C 0.88088 0.37067 0.72866 0.0
C1523 C 0.88379 0.36792 0.71293 0.0
C1524 C 0.89089 0.38579 0.70409 0.0
H1525 H 0.825 0.23737 0.66386 0.0
H1526 H 0.8341 0.27433 0.67319 0.0
C1527 C 0.89578 0.40623 0.71103 0.0
C1528 C 0.87885 0.34615 0.70588 0.0
H1529 H 0.90026 0.31933 0.68628 0.0
C1530 C 0.85851 0.32806 0.70752 0.0
C1531 C 0.89427 0.3429 0.69838 0.0
C1532 C 0.91695 0.36134 0.69716 0.0
C1533 C 0.85317 0.30687 0.70196 0.0
C1534 C 0.86825 0.30371 0.69393 0.0
C1535 C 0.88861 0.32178 0.69228 0.0
C1536 C 0.8634 0.28173 0.68749 0.0
C1537 C 0.83167 0.28808 0.70526 0.0
C1538 C 0.87741 0.27394 0.69175 0.0
C1539 C 0.87252 0.25298 0.68609 0.0
C1540 C 0.85339 0.23939 0.67623 0.0
C1541 C 0.83969 0.24739 0.67164 0.0
C1542 C 0.84479 0.26845 0.67707 0.0
H1543 H 0.82534 0.29251 0.71545 0.0
H1544 H 0.81958 0.28352 0.69499 0.0
H1545 H 0.83307 0.27361 0.7076 0.0
H1546 H 0.89199 0.28395 0.69965 0.0
H1547 H 0.88355 0.24734 0.68959 0.0
H1548 H 0.18421 0.93258 0.6157 0.0
H1549 H 0.21243 0.96725 0.6295 0.0
H1550 H 0.16333 0.97922 0.64638 0.0
H1551 H 0.13495 0.94466 0.63243 0.0
H1552 H 0.21802 0.00852 0.62431 0.0
H1553 H 0.20484 0.99163 0.68595 0.0
H1554 H 0.19424 0.97025 0.67 0.0
H1555 H 0.18095 0.98565 0.6736 0.0
C1556 C 0.17939 0.94256 0.62238 0.0
C1557 C 0.1573 0.93588 0.6229 0.0
C1558 C 0.19554 0.96231 0.63031 0.0
C1559 C 0.18998 0.97572 0.63907 0.0
C1560 C 0.16797 0.96893 0.63992 0.0
H1561 H 0.26207 0.10521 0.68859 0.0
H1562 H 0.23436 0.06864 0.67709 0.0
C1563 C 0.15177 0.94916 0.63195 0.0
C1564 C 0.20722 0.99737 0.64648 0.0
H1565 H 0.22927 0.0282 0.68159 0.0
C1566 C 0.22059 0.01281 0.63684 0.0
C1567 C 0.21043 0.00291 0.66282 0.0
C1568 C 0.197 0.98672 0.67375 0.0
C1569 C 0.23684 0.03381 0.64306 0.0
C1570 C 0.24011 0.03936 0.65941 0.0
C1571 C 0.22676 0.0239 0.66906 0.0
C1572 C 0.25708 0.06125 0.66669 0.0
C1573 C 0.24995 0.05004 0.63202 0.0
C1574 C 0.27909 0.06909 0.6649 0.0
C1575 C 0.29492 0.09 0.67141 0.0
C1576 C 0.28901 0.10333 0.67993 0.0
C1577 C 0.26706 0.09528 0.68205 0.0
C1578 C 0.25123 0.0744 0.6755 0.0
H1579 H 0.24172 0.04521 0.61993 0.0
H1580 H 0.25294 0.06655 0.63591 0.0
H1581 H 0.26589 0.05094 0.63174 0.0
H1582 H 0.28402 0.05905 0.65844 0.0
H1583 H 0.31176 0.09575 0.66971 0.0
H1584 H 0.07192 0.2634 0.6073 0.0
H1585 H 0.03998 0.25925 0.61915 0.0
H1586 H 0.02497 0.19543 0.63087 0.0
H1587 H 0.05714 0.19969 0.61927 0.0
H1588 H 0.99828 0.22992 0.61073 0.0
H1589 H 0.01981 0.22197 0.67179 0.0
H1590 H 0.03927 0.23108 0.65759 0.0
H1591 H 0.02056 0.20247 0.65807 0.0
C1592 C 0.06185 0.24853 0.61248 0.0
C1593 C 0.06701 0.23186 0.61239 0.0
C1594 C 0.04365 0.24621 0.61928 0.0
C1595 C 0.03023 0.22716 0.6261 0.0
C1596 C 0.03538 0.21051 0.62605 0.0
H1597 H 0.89568 0.17826 0.64065 0.0
H1598 H 0.93003 0.18642 0.63094 0.0
C1599 C 0.05372 0.21291 0.61938 0.0
C1600 C 0.01024 0.2243 0.63248 0.0
H1601 H 0.98289 0.2121 0.6649 0.0
C1602 C 0.995 0.22619 0.62262 0.0
C1603 C 0.00609 0.21975 0.64806 0.0
C1604 C 0.0224 0.21892 0.65954 0.0
C1605 C 0.97551 0.22316 0.62778 0.0
C1606 C 0.97088 0.21752 0.6431 0.0
C1607 C 0.98634 0.21617 0.6531 0.0
C1608 C 0.95 0.21276 0.64895 0.0
C1609 C 0.96024 0.22631 0.61681 0.0
C1610 C 0.94979 0.22444 0.66257 0.0
C1611 C 0.93014 0.21962 0.66829 0.0
C1612 C 0.91032 0.20301 0.66049 0.0
C1613 C 0.91061 0.19132 0.64686 0.0
C1614 C 0.93025 0.19604 0.64123 0.0
H1615 H 0.96892 0.23693 0.6077 0.0
H1616 H 0.94768 0.21027 0.6108 0.0
H1617 H 0.95199 0.23362 0.6232 0.0
H1618 H 0.96485 0.23733 0.66876 0.0
H1619 H 0.93051 0.22891 0.67883 0.0
H1620 H 0.8136 0.86722 0.64395 0.0
H1621 H 0.81777 0.83911 0.65607 0.0
H1622 H 0.7548 0.78993 0.63403 0.0
H1623 H 0.75046 0.81797 0.62189 0.0
H1624 H 0.7923 0.80795 0.6759 0.0
H1625 H 0.79536 0.76884 0.61911 0.0
H1626 H 0.79794 0.79545 0.62109 0.0
H1627 H 0.77171 0.77139 0.6205 0.0
C1628 C 0.80048 0.85047 0.64188 0.0
C1629 C 0.78176 0.84481 0.63186 0.0
C1630 C 0.80294 0.83442 0.64875 0.0
C1631 C 0.78677 0.81241 0.64572 0.0
C1632 C 0.76769 0.80677 0.63624 0.0
H1633 H 0.78691 0.69527 0.67158 0.0
H1634 H 0.77576 0.72041 0.66202 0.0
C1635 C 0.76523 0.82281 0.62933 0.0
C1636 C 0.79024 0.79538 0.65216 0.0
H1637 H 0.79689 0.75219 0.64162 0.0
C1638 C 0.79325 0.79571 0.66842 0.0
C1639 C 0.79142 0.77941 0.64236 0.0
C1640 C 0.78913 0.77876 0.62479 0.0
C1641 C 0.79746 0.78052 0.67516 0.0
C1642 C 0.79906 0.76483 0.66535 0.0
C1643 C 0.79561 0.76422 0.6491 0.0
C1644 C 0.80534 0.7496 0.67166 0.0
C1645 C 0.80005 0.78132 0.69271 0.0
C1646 C 0.82572 0.75769 0.68012 0.0
C1647 C 0.83214 0.74341 0.68551 0.0
C1648 C 0.81834 0.72078 0.68245 0.0
C1649 C 0.7979 0.71266 0.67404 0.0
C1650 C 0.7915 0.72697 0.66861 0.0
H1651 H 0.79233 0.78982 0.69833 0.0
H1652 H 0.79287 0.76467 0.69649 0.0
H1653 H 0.81759 0.79039 0.69695 0.0
H1654 H 0.83685 0.77508 0.68231 0.0
H1655 H 0.84804 0.75011 0.69188 0.0
H1656 H 0.06112 0.84531 0.63763 0.0
H1657 H 0.02843 0.8188 0.64867 0.0
H1658 H 0.9914 0.80374 0.60374 0.0
H1659 H 0.02407 0.82983 0.5926 0.0
H1660 H 0.98953 0.81746 0.65065 0.0
H1661 H 0.97634 0.74369 0.61503 0.0
H1662 H 0.00139 0.76941 0.6162 0.0
H1663 H 0.9782 0.76454 0.60342 0.0
C1664 C 0.04602 0.83628 0.6301 0.0
C1665 C 0.04511 0.83952 0.61422 0.0
C1666 C 0.02737 0.82115 0.63642 0.0
C1667 C 0.00755 0.80899 0.62697 0.0
C1668 C 0.0066 0.81251 0.61117 0.0
H1669 H 0.87432 0.71775 0.64021 0.0
H1670 H 0.90842 0.74364 0.63057 0.0
C1671 C 0.02523 0.82753 0.60485 0.0
C1672 C 0.9877 0.79303 0.63366 0.0
H1673 H 0.94707 0.73976 0.62913 0.0
C1674 C 0.98035 0.80043 0.64604 0.0
C1675 C 0.97575 0.77079 0.62765 0.0
C1676 C 0.98342 0.76156 0.61495 0.0
C1677 C 0.96104 0.78633 0.65228 0.0
C1678 C 0.94891 0.76423 0.64606 0.0
C1679 C 0.95637 0.75676 0.6338 0.0
C1680 C 0.92833 0.7486 0.65203 0.0
C1681 C 0.95344 0.79526 0.66521 0.0
C1682 C 0.92828 0.74265 0.66724 0.0
C1683 C 0.90883 0.72776 0.67279 0.0
C1684 C 0.88905 0.71856 0.66321 0.0
C1685 C 0.88921 0.72452 0.64793 0.0
C1686 C 0.90869 0.73931 0.64238 0.0
H1687 H 0.96218 0.81336 0.66651 0.0
H1688 H 0.93575 0.78907 0.66302 0.0
H1689 H 0.9564 0.78979 0.67641 0.0
H1690 H 0.94332 0.74941 0.6748 0.0
H1691 H 0.90933 0.72353 0.6846 0.0
H1692 H 0.14677 0.20532 0.63028 0.0
H1693 H 0.17136 0.19337 0.64088 0.0
H1694 H 0.2204 0.23567 0.61277 0.0
H1695 H 0.19615 0.248 0.60245 0.0
H1696 H 0.19091 0.17327 0.62608 0.0
H1697 H 0.25308 0.25364 0.65606 0.0
H1698 H 0.22641 0.24794 0.64864 0.0
H1699 H 0.24721 0.2546 0.63571 0.0
C1700 C 0.16283 0.21212 0.62643 0.0
C1701 C 0.16969 0.22774 0.61565 0.0
C1702 C 0.17683 0.20525 0.63246 0.0
C1703 C 0.19784 0.21393 0.62782 0.0
C1704 C 0.20447 0.22917 0.6168 0.0
H1705 H 0.28558 0.16272 0.63782 0.0
H1706 H 0.25872 0.17227 0.62825 0.0
C1707 C 0.19058 0.23611 0.61086 0.0
C1708 C 0.21286 0.20698 0.63433 0.0
H1709 H 0.2633 0.22653 0.65339 0.0
C1710 C 0.20669 0.18486 0.63215 0.0
C1711 C 0.2333 0.2221 0.64242 0.0
C1712 C 0.24033 0.24586 0.646 0.0
C1713 C 0.22064 0.17752 0.63756 0.0
C1714 C 0.24148 0.19281 0.64505 0.0
C1715 C 0.24743 0.21485 0.64749 0.0
C1716 C 0.25728 0.18637 0.65077 0.0
C1717 C 0.21279 0.15344 0.63543 0.0
C1718 C 0.26581 0.19161 0.66651 0.0
C1719 C 0.28139 0.18651 0.67195 0.0
C1720 C 0.28875 0.17601 0.66176 0.0
C1721 C 0.28014 0.17068 0.64599 0.0
C1722 C 0.26466 0.17598 0.64052 0.0
H1723 H 0.19478 0.14357 0.63368 0.0
H1724 H 0.21913 0.1498 0.62493 0.0
H1725 H 0.21863 0.14829 0.64566 0.0
H1726 H 0.26042 0.19969 0.67462 0.0
H1727 H 0.2876 0.19077 0.68418 0.0
H1728 H 0.83012 0.97873 0.61295 0.0
H1729 H 0.83667 0.01407 0.62431 0.0
H1730 H 0.79418 0.98249 0.65952 0.0
H1731 H 0.78823 0.94716 0.64849 0.0
H1732 H 0.80939 0.02882 0.62744 0.0
H1733 H 0.84648 0.02999 0.68613 0.0
H1734 H 0.84187 0.01019 0.67013 0.0
H1735 H 0.81992 0.00671 0.68111 0.0
C1736 C 0.82237 0.97939 0.62322 0.0
C1737 C 0.80888 0.9603 0.62994 0.0
C1738 C 0.82605 0.99956 0.62967 0.0
C1739 C 0.81619 1.00102 0.64292 0.0
C1740 C 0.80243 0.98187 0.64955 0.0
H1741 H 0.81033 0.11837 0.67106 0.0
H1742 H 0.80105 0.08142 0.66115 0.0
C1743 C 0.79895 0.96167 0.64319 0.0
C1744 C 0.82001 0.02258 0.64946 0.0
H1745 H 0.83865 0.05824 0.6825 0.0
C1746 C 0.8158 0.03526 0.63948 0.0
C1747 C 0.82861 0.03109 0.66513 0.0
C1748 C 0.83469 0.0189 0.67621 0.0
C1749 C 0.82007 0.05622 0.64469 0.0
C1750 C 0.82816 0.06451 0.66046 0.0
C1751 C 0.83226 0.0518 0.67046 0.0
C1752 C 0.83342 0.08669 0.66667 0.0
C1753 C 0.81654 0.06954 0.63309 0.0
C1754 C 0.85449 0.10173 0.6735 0.0
C1755 C 0.8597 0.12266 0.67938 0.0
C1756 C 0.84394 0.12898 0.67849 0.0
C1757 C 0.82281 0.11393 0.67177 0.0
C1758 C 0.81754 0.09289 0.66602 0.0
H1759 H 0.81616 0.06339 0.62087 0.0
H1760 H 0.8007 0.06852 0.63438 0.0
H1761 H 0.82948 0.08693 0.63513 0.0
H1762 H 0.86699 0.09732 0.67416 0.0
H1763 H 0.87612 0.13397 0.68449 0.0
H1764 H 0.474 0.38945 0.7342 0.0
H1765 H 0.44979 0.35206 0.72239 0.0
H1766 H 0.50331 0.35234 0.70156 0.0
H1767 H 0.5277 0.38975 0.7135 0.0
H1768 H 0.44007 0.3355 0.69065 0.0
H1769 H 0.47837 0.29746 0.72504 0.0
H1770 H 0.48359 0.32468 0.73041 0.0
H1771 H 0.49641 0.31964 0.71469 0.0
C1772 C 0.48058 0.38153 0.72708 0.0
C1773 C 0.5027 0.39245 0.7248 0.0
C1774 C 0.46675 0.3602 0.72034 0.0
C1775 C 0.47481 0.34933 0.71127 0.0
C1776 C 0.49685 0.36031 0.70875 0.0
H1777 H 0.41 0.21576 0.66654 0.0
H1778 H 0.43646 0.25396 0.67547 0.0
C1779 C 0.51073 0.38171 0.71549 0.0
C1780 C 0.45997 0.32652 0.70447 0.0
H1781 H 0.44954 0.27433 0.70588 0.0
C1782 C 0.44215 0.32212 0.69395 0.0
C1783 C 0.46276 0.30912 0.70878 0.0
C1784 C 0.48119 0.31283 0.72044 0.0
C1785 C 0.42704 0.30076 0.6876 0.0
C1786 C 0.42959 0.28331 0.69213 0.0
C1787 C 0.44761 0.28775 0.70245 0.0
C1788 C 0.41349 0.26028 0.68656 0.0
C1789 C 0.40859 0.29711 0.67596 0.0
C1790 C 0.39188 0.25111 0.69 0.0
C1791 C 0.37676 0.22936 0.68488 0.0
C1792 C 0.38304 0.21635 0.67635 0.0
C1793 C 0.40471 0.22546 0.67304 0.0
C1794 C 0.41983 0.24724 0.67815 0.0
H1795 H 0.41229 0.31218 0.6705 0.0
H1796 H 0.40493 0.28399 0.66661 0.0
H1797 H 0.39383 0.29213 0.68205 0.0
H1798 H 0.38674 0.26073 0.69676 0.0
H1799 H 0.36017 0.22271 0.68764 0.0
H1800 H 0.65325 0.14485 0.76928 0.0
H1801 H 0.68559 0.15109 0.75694 0.0
H1802 H 0.64687 0.124 0.71247 0.0
H1803 H 0.61458 0.11819 0.72469 0.0
H1804 H 0.69375 0.12167 0.74155 0.0
H1805 H 0.69629 0.18141 0.70186 0.0
H1806 H 0.67939 0.1736 0.71769 0.0
H1807 H 0.67105 0.15605 0.69974 0.0
C1808 C 0.6517 0.14036 0.75685 0.0
C1809 C 0.6315 0.13123 0.74792 0.0
C1810 C 0.67014 0.14389 0.74983 0.0
C1811 C 0.66871 0.13832 0.73375 0.0
C1812 C 0.64845 0.12889 0.72483 0.0
H1813 H 0.76652 0.14733 0.67396 0.0
H1814 H 0.73233 0.13834 0.68458 0.0
C1815 C 0.62999 0.12548 0.73184 0.0
C1816 C 0.68839 0.142 0.72648 0.0
H1817 H 0.72142 0.16923 0.69887 0.0
C1818 C 0.69981 0.13209 0.73223 0.0
C1819 C 0.69625 0.15558 0.7143 0.0
C1820 C 0.68525 0.16745 0.70811 0.0
C1821 C 0.71885 0.13535 0.72612 0.0
C1822 C 0.72676 0.14903 0.71404 0.0
C1823 C 0.71522 0.1587 0.70812 0.0
C1824 C 0.74738 0.15406 0.70774 0.0
C1825 C 0.7303 0.12404 0.73255 0.0
C1826 C 0.76712 0.16602 0.71724 0.0
C1827 C 0.78666 0.17124 0.71122 0.0
C1828 C 0.78682 0.1646 0.69556 0.0
C1829 C 0.76697 0.1526 0.68608 0.0
C1830 C 0.74743 0.14748 0.6921 0.0
H1831 H 0.71957 0.11025 0.73906 0.0
H1832 H 0.73617 0.1178 0.72302 0.0
H1833 H 0.74459 0.13586 0.74069 0.0
H1834 H 0.76742 0.17152 0.72928 0.0
H1835 H 0.80163 0.18053 0.71885 0.0
H1836 H 0.92473 0.54666 0.7339 0.0
H1837 H 0.91132 0.5693 0.72293 0.0
H1838 H 0.85608 0.51184 0.69864 0.0
H1839 H 0.86935 0.4891 0.70962 0.0
H1840 H 0.9017 0.57228 0.6905 0.0
H1841 H 0.82953 0.54295 0.72373 0.0
H1842 H 0.85199 0.53893 0.72925 0.0
H1843 H 0.83241 0.52217 0.71311 0.0
C1844 C 0.90974 0.53889 0.7262 0.0
C1845 C 0.89807 0.51617 0.72264 0.0
C1846 C 0.90213 0.55181 0.71994 0.0
C1847 C 0.8826 0.5422 0.71013 0.0
C1848 C 0.87103 0.51952 0.70638 0.0
H1849 H 0.80922 0.59636 0.66663 0.0
H1850 H 0.8222 0.57227 0.67532 0.0
C1851 C 0.87869 0.50657 0.7126 0.0
C1852 C 0.87447 0.55602 0.70381 0.0
H1853 H 0.83345 0.56744 0.70519 0.0
C1854 C 0.88679 0.57125 0.69369 0.0
C1855 C 0.85498 0.55456 0.70799 0.0
C1856 C 0.84148 0.53891 0.71921 0.0
C1857 C 0.88003 0.58498 0.6875 0.0
C1858 C 0.86068 0.58375 0.69185 0.0
C1859 C 0.84827 0.56836 0.70187 0.0
C1860 C 0.85313 0.59843 0.68629 0.0
C1861 C 0.89347 0.6004 0.67614 0.0
C1862 C 0.86613 0.62112 0.68968 0.0
C1863 C 0.8588 0.63488 0.68465 0.0
C1864 C 0.83823 0.62618 0.67631 0.0
C1865 C 0.82517 0.60349 0.673 0.0
C1866 C 0.83254 0.58973 0.67798 0.0
H1867 H 0.90393 0.59502 0.67065 0.0
H1868 H 0.88301 0.60184 0.66679 0.0
H1869 H 0.90422 0.61679 0.68248 0.0
H1870 H 0.88186 0.62818 0.69637 0.0
H1871 H 0.8692 0.65233 0.68735 0.0
H1872 H 0.41069 0.8977 0.2245 0.0
H1873 H 0.41819 0.91182 0.19909 0.0
H1874 H 0.48695 0.94438 0.21339 0.0
H1875 H 0.4796 0.93132 0.23911 0.0
H1876 H 0.47598 0.97024 0.19846 0.0
H1877 H 0.43945 0.88937 0.16417 0.0
H1878 H 0.42101 0.89239 0.17589 0.0
H1879 H 0.44453 0.8929 0.18517 0.0
C1880 C 0.42741 0.90808 0.22232 0.0
C1881 C 0.44455 0.91325 0.23383 0.0
C1882 C 0.43167 0.91588 0.2077 0.0
C1883 C 0.45314 0.92875 0.20423 0.0
C1884 C 0.47026 0.93429 0.21578 0.0
H1885 H 0.50008 0.95683 0.11362 0.0
H1886 H 0.48947 0.94262 0.13874 0.0
C1887 C 0.46602 0.92665 0.23043 0.0
C1888 C 0.45787 0.93672 0.18865 0.0
H1889 H 0.4504 0.91992 0.14974 0.0
C1890 C 0.4704 0.95925 0.1878 0.0
C1891 C 0.45082 0.92232 0.17479 0.0
C1892 C 0.43839 0.89789 0.17501 0.0
C1893 C 0.47606 0.9678 0.17347 0.0
C1894 C 0.46847 0.95344 0.15956 0.0
C1895 C 0.45599 0.9309 0.16041 0.0
C1896 C 0.47398 0.96142 0.14406 0.0
C1897 C 0.49064 0.99209 0.17344 0.0
C1898 C 0.46836 0.97632 0.13855 0.0
C1899 C 0.47454 0.98457 0.12427 0.0
C1900 C 0.48613 0.97777 0.11512 0.0
C1901 C 0.49105 0.96225 0.12038 0.0
C1902 C 0.48505 0.95418 0.13474 0.0
H1903 H 0.49973 0.99988 0.18509 0.0
H1904 H 0.5025 0.99586 0.16471 0.0
H1905 H 0.48059 0.99949 0.17041 0.0
H1906 H 0.45929 0.98168 0.14535 0.0
H1907 H 0.47024 0.99625 0.12036 0.0
H1908 H 0.10419 0.56829 0.24536 0.0
H1909 H 0.09062 0.56199 0.21778 0.0
H1910 H 0.04854 0.49383 0.22244 0.0
H1911 H 0.06158 0.50004 0.25022 0.0
H1912 H 0.07558 0.50421 0.19641 0.0
H1913 H 0.0287 0.5473 0.19906 0.0
H1914 H 0.05591 0.56227 0.20863 0.0
H1915 H 0.03616 0.53781 0.21604 0.0
C1916 C 0.09175 0.55202 0.24063 0.0
C1917 C 0.08389 0.53469 0.25004 0.0
C1918 C 0.08409 0.54845 0.22484 0.0
C1919 C 0.06846 0.5275 0.21816 0.0
C1920 C 0.06059 0.51013 0.22744 0.0
H1921 H 0.00131 0.49822 0.12442 0.0
H1922 H 0.00982 0.49843 0.1524 0.0
C1923 C 0.06815 0.5137 0.24327 0.0
C1924 C 0.06091 0.52372 0.20133 0.0
H1925 H 0.03471 0.53744 0.17382 0.0
C1926 C 0.06649 0.5113 0.19145 0.0
C1927 C 0.04892 0.53287 0.19499 0.0
C1928 C 0.04187 0.54567 0.20521 0.0
C1929 C 0.06095 0.50838 0.17525 0.0
C1930 C 0.04967 0.51823 0.16885 0.0
C1931 C 0.04349 0.53005 0.17879 0.0
C1932 C 0.04462 0.51697 0.15181 0.0
C1933 C 0.06722 0.49483 0.16508 0.0
C1934 C 0.06139 0.52733 0.14228 0.0
C1935 C 0.05659 0.52728 0.12633 0.0
C1936 C 0.03492 0.51681 0.11964 0.0
C1937 C 0.01816 0.50617 0.12921 0.0
C1938 C 0.02298 0.50638 0.14518 0.0
H1939 H 0.07123 0.48436 0.17197 0.0
H1940 H 0.05391 0.48434 0.1558 0.0
H1941 H 0.08173 0.5058 0.15935 0.0
H1942 H 0.0782 0.53584 0.14725 0.0
H1943 H 0.06983 0.53549 0.11923 0.0
H1944 H 0.43344 0.54211 0.22892 0.0
H1945 H 0.43998 0.53522 0.20222 0.0
H1946 H 0.50648 0.55602 0.21815 0.0
H1947 H 0.49983 0.56196 0.24491 0.0
H1948 H 0.468 0.56449 0.18448 0.0
H1949 H 0.48907 0.50023 0.19161 0.0
H1950 H 0.47654 0.5081 0.20623 0.0
H1951 H 0.50539 0.52387 0.20522 0.0
C1952 C 0.44932 0.54475 0.2268 0.0
C1953 C 0.46611 0.55257 0.23907 0.0
C1954 C 0.45307 0.54095 0.21151 0.0
C1955 C 0.47362 0.5448 0.20821 0.0
C1956 C 0.49035 0.55246 0.22045 0.0
H1957 H 0.54369 0.56016 0.12852 0.0
H1958 H 0.53084 0.55904 0.15424 0.0
C1959 C 0.4866 0.55615 0.23573 0.0
C1960 C 0.47803 0.54216 0.19188 0.0
H1961 H 0.49932 0.51871 0.16849 0.0
C1962 C 0.47454 0.55423 0.18092 0.0
C1963 C 0.48653 0.52873 0.18724 0.0
C1964 C 0.48939 0.51433 0.19816 0.0
C1965 C 0.48014 0.55389 0.16563 0.0
C1966 C 0.48935 0.54109 0.1612 0.0
C1967 C 0.49236 0.52861 0.172 0.0
C1968 C 0.49681 0.54117 0.14558 0.0
C1969 C 0.47688 0.56779 0.15445 0.0
C1970 C 0.48186 0.53129 0.13225 0.0
C1971 C 0.48913 0.53167 0.11751 0.0
C1972 C 0.5115 0.54197 0.11587 0.0
C1973 C 0.52637 0.55178 0.12934 0.0
C1974 C 0.51908 0.55128 0.14405 0.0
H1975 H 0.47235 0.57904 0.16033 0.0
H1976 H 0.49191 0.57751 0.14879 0.0
H1977 H 0.46375 0.5571 0.14512 0.0
H1978 H 0.46458 0.52321 0.13326 0.0
H1979 H 0.47722 0.52365 0.10744 0.0
H1980 H 0.94338 0.49599 0.77404 0.0
H1981 H 0.95589 0.50357 0.802 0.0
H1982 H 0.91202 0.43633 0.80836 0.0
H1983 H 0.89881 0.42886 0.78072 0.0
H1984 H 0.91128 0.46453 0.83093 0.0
H1985 H 0.99613 0.48554 0.82345 0.0
H1986 H 0.98684 0.50146 0.81368 0.0
H1987 H 0.97463 0.47286 0.80763 0.0
C1988 C 0.93628 0.48288 0.78143 0.0
C1989 C 0.92027 0.46176 0.77511 0.0
C1990 C 0.94361 0.48719 0.79737 0.0
C1991 C 0.93514 0.47042 0.8072 0.0
C1992 C 0.91888 0.44948 0.80096 0.0
H1993 H 0.98206 0.45006 0.89387 0.0
H1994 H 0.97188 0.45244 0.86687 0.0
C1995 C 0.9115 0.44519 0.78512 0.0
C1996 C 0.94306 0.47436 0.82401 0.0
H1997 H 0.98737 0.48691 0.84921 0.0
C1998 C 0.92796 0.46961 0.83497 0.0
C1999 C 0.9648 0.48082 0.82919 0.0
C2000 C 0.98155 0.48531 0.81791 0.0
C2001 C 0.93382 0.47053 0.85093 0.0
C2002 C 0.95553 0.47685 0.85611 0.0
C2003 C 0.97078 0.48219 0.8452 0.0
C2004 C 0.9623 0.47627 0.87257 0.0
C2005 C 0.91649 0.46372 0.86199 0.0
C2006 C 0.96056 0.4891 0.88476 0.0
C2007 C 0.96604 0.48751 0.90029 0.0
C2008 C 0.97356 0.4732 0.90388 0.0
C2009 C 0.97587 0.46087 0.89157 0.0
C2010 C 0.97028 0.46238 0.8761 0.0
H2011 H 0.89989 0.45471 0.8557 0.0
H2012 H 0.91804 0.45326 0.87043 0.0
H2013 H 0.91832 0.47844 0.86869 0.0
H2014 H 0.95482 0.50022 0.88228 0.0
H2015 H 0.964 0.49719 0.90947 0.0
H2016 H 0.59514 0.48373 0.79238 0.0
H2017 H 0.58773 0.48836 0.81927 0.0
H2018 H 0.52029 0.46309 0.8035 0.0
H2019 H 0.52756 0.45891 0.77658 0.0
H2020 H 0.56716 0.51298 0.83135 0.0
H2021 H 0.52117 0.42448 0.8383 0.0
H2022 H 0.53944 0.43545 0.82344 0.0
H2023 H 0.51293 0.43251 0.82098 0.0
C2024 C 0.57877 0.47938 0.79459 0.0
C2025 C 0.56191 0.47082 0.78231 0.0
C2026 C 0.57457 0.48193 0.80997 0.0
C2027 C 0.55343 0.47579 0.81335 0.0
C2028 C 0.53665 0.46757 0.80113 0.0
H2029 H 0.4862 0.4695 0.89384 0.0
H2030 H 0.49764 0.46731 0.86805 0.0
C2031 C 0.54083 0.46512 0.78577 0.0
C2032 C 0.5488 0.47797 0.82963 0.0
H2033 H 0.52045 0.44833 0.85829 0.0
C2034 C 0.5571 0.4989 0.83734 0.0
C2035 C 0.53565 0.45952 0.83731 0.0
C2036 C 0.52688 0.43669 0.82967 0.0
C2037 C 0.55197 0.50188 0.85242 0.0
C2038 C 0.53861 0.4834 0.86007 0.0
C2039 C 0.53066 0.46248 0.85241 0.0
C2040 C 0.53201 0.48531 0.8758 0.0
C2041 C 0.56025 0.52476 0.85977 0.0
C2042 C 0.54753 0.49602 0.88878 0.0
C2043 C 0.54104 0.49756 0.90355 0.0
C2044 C 0.51887 0.48824 0.90565 0.0
C2045 C 0.5034 0.47725 0.89262 0.0
C2046 C 0.50991 0.47582 0.87788 0.0
H2047 H 0.5654 0.53669 0.85094 0.0
H2048 H 0.54764 0.5258 0.86608 0.0
H2049 H 0.57453 0.52957 0.8683 0.0
H2050 H 0.56466 0.50307 0.88751 0.0
H2051 H 0.55339 0.50625 0.91329 0.0
H2052 H 0.53542 0.11711 0.79876 0.0
H2053 H 0.52902 0.10485 0.82481 0.0
H2054 H 0.55025 0.05901 0.81345 0.0
H2055 H 0.55701 0.0715 0.78742 0.0
H2056 H 0.50091 0.06459 0.83216 0.0
H2057 H 0.5847 0.08802 0.85537 0.0
H2058 H 0.57896 0.09778 0.83789 0.0
H2059 H 0.57537 0.07086 0.83724 0.0
C2060 C 0.53878 0.10446 0.80185 0.0
C2061 C 0.54669 0.09523 0.79108 0.0
C2062 C 0.53519 0.09753 0.81673 0.0
C2063 C 0.53943 0.08123 0.82115 0.0
C2064 C 0.54738 0.07199 0.81044 0.0
H2065 H 0.50594 0.00623 0.90111 0.0
H2066 H 0.51732 0.02008 0.87594 0.0
C2067 C 0.55115 0.07906 0.79556 0.0
C2068 C 0.53439 0.0732 0.83669 0.0
H2069 H 0.55639 0.06623 0.87064 0.0
C2070 C 0.51308 0.06506 0.84059 0.0
C2071 C 0.55029 0.0738 0.84767 0.0
C2072 C 0.57366 0.08327 0.84442 0.0
C2073 C 0.50722 0.05737 0.85512 0.0
C2074 C 0.52307 0.05791 0.86603 0.0
C2075 C 0.54433 0.06587 0.86217 0.0
C2076 C 0.51769 0.05029 0.88156 0.0
C2077 C 0.48407 0.04854 0.85874 0.0
C2078 C 0.51451 0.06292 0.89304 0.0
C2079 C 0.50805 0.0551 0.90739 0.0
C2080 C 0.50456 0.03446 0.91044 0.0
C2081 C 0.50827 0.02208 0.89901 0.0
C2082 C 0.51488 0.02999 0.8847 0.0
H2083 H 0.47311 0.04651 0.84828 0.0
H2084 H 0.47792 0.03256 0.86349 0.0
H2085 H 0.48344 0.05991 0.86779 0.0
H2086 H 0.51666 0.07866 0.89077 0.0
H2087 H 0.50515 0.06491 0.91592 0.0
H2088 H 0.07618 0.23189 0.55692 0.0
H2089 H 0.08252 0.24328 0.53054 0.0
H2090 H 0.15111 0.28274 0.54497 0.0
H2091 H 0.14495 0.27186 0.57136 0.0
H2092 H 0.10494 0.28801 0.52088 0.0
H2093 H 0.14518 0.24046 0.50659 0.0
H2094 H 0.1281 0.23491 0.52229 0.0
H2095 H 0.15551 0.25738 0.52486 0.0
C2096 C 0.09257 0.2432 0.55452 0.0
C2097 C 0.1101 0.25081 0.56619 0.0
C2098 C 0.09616 0.24959 0.53945 0.0
C2099 C 0.11731 0.26353 0.53581 0.0
C2100 C 0.13472 0.27162 0.54752 0.0
H2101 H 0.18682 0.32468 0.45967 0.0
H2102 H 0.17371 0.30991 0.48413 0.0
C2103 C 0.13117 0.26534 0.56256 0.0
C2104 C 0.12142 0.26965 0.51978 0.0
H2105 H 0.14836 0.2665 0.48932 0.0
C2106 C 0.11419 0.28314 0.51385 0.0
C2107 C 0.13347 0.26318 0.51072 0.0
C2108 C 0.14089 0.24803 0.51634 0.0
C2109 C 0.11958 0.29117 0.49931 0.0
C2110 C 0.13216 0.28517 0.49043 0.0
C2111 C 0.13879 0.27113 0.49619 0.0
C2112 C 0.1397 0.29418 0.47553 0.0
C2113 C 0.11259 0.30673 0.49388 0.0
C2114 C 0.12489 0.29006 0.46253 0.0
C2115 C 0.13234 0.29867 0.44854 0.0
C2116 C 0.15474 0.31145 0.4473 0.0
C2117 C 0.16948 0.31525 0.46031 0.0
C2118 C 0.16202 0.30669 0.47426 0.0
H2119 H 0.10718 0.31334 0.50351 0.0
H2120 H 0.12603 0.32055 0.48891 0.0
H2121 H 0.09881 0.29802 0.48461 0.0
H2122 H 0.1076 0.28011 0.46319 0.0
H2123 H 0.12057 0.29553 0.43876 0.0
H2124 H 0.7361 0.83751 0.58394 0.0
H2125 H 0.72346 0.83029 0.55598 0.0
H2126 H 0.77893 0.89116 0.54773 0.0
H2127 H 0.79176 0.89841 0.57558 0.0
H2128 H 0.71491 0.85954 0.53783 0.0
H2129 H 0.77785 0.844 0.51548 0.0
H2130 H 0.77177 0.84174 0.53554 0.0
H2131 H 0.78778 0.86808 0.52889 0.0
C2132 C 0.7457 0.84922 0.57612 0.0
C2133 C 0.7649 0.86853 0.58192 0.0
C2134 C 0.73843 0.84512 0.56021 0.0
C2135 C 0.75041 0.86009 0.54983 0.0
C2136 C 0.76963 0.87929 0.55555 0.0
H2137 H 0.73898 0.8759 0.45219 0.0
H2138 H 0.75074 0.87735 0.4797 0.0
C2139 C 0.77682 0.88349 0.57146 0.0
C2140 C 0.74239 0.85619 0.53308 0.0
H2141 H 0.75481 0.84804 0.49664 0.0
C2142 C 0.72347 0.85681 0.52879 0.0
C2143 C 0.75373 0.85278 0.52141 0.0
C2144 C 0.77383 0.85142 0.52549 0.0
C2145 C 0.71592 0.8548 0.51304 0.0
C2146 C 0.72732 0.85149 0.5013 0.0
C2147 C 0.74608 0.85055 0.50565 0.0
C2148 C 0.72044 0.84972 0.48446 0.0
C2149 C 0.69629 0.85707 0.50913 0.0
C2150 C 0.69971 0.83337 0.47792 0.0
C2151 C 0.69293 0.83258 0.46224 0.0
C2152 C 0.70688 0.84794 0.45276 0.0
C2153 C 0.72793 0.86377 0.45918 0.0
C2154 C 0.73464 0.86465 0.4749 0.0
H2155 H 0.69305 0.86523 0.51914 0.0
H2156 H 0.69837 0.86653 0.49895 0.0
H2157 H 0.6818 0.84064 0.50616 0.0
H2158 H 0.68871 0.82131 0.48498 0.0
H2159 H 0.67674 0.81999 0.45753 0.0
H2160 H 0.16514 0.89767 0.5782 0.0
H2161 H 0.17195 0.89225 0.55138 0.0
H2162 H 0.10501 0.86974 0.53562 0.0
H2163 H 0.09828 0.87613 0.56234 0.0
H2164 H 0.15444 0.8559 0.53063 0.0
H2165 H 0.1366 0.91727 0.50764 0.0
H2166 H 0.13985 0.91519 0.52825 0.0
H2167 H 0.11478 0.89639 0.51666 0.0
C2168 C 0.1519 0.8918 0.56902 0.0
C2169 C 0.13122 0.88761 0.57243 0.0
C2170 C 0.15578 0.88854 0.5537 0.0
C2171 C 0.1391 0.88097 0.54145 0.0
C2172 C 0.11825 0.87605 0.54484 0.0
H2173 H 0.14253 0.85731 0.44112 0.0
H2174 H 0.13023 0.85745 0.467 0.0
C2175 C 0.11437 0.87945 0.56017 0.0
C2176 C 0.14371 0.87841 0.52516 0.0
H2177 H 0.1443 0.89664 0.48932 0.0
C2178 C 0.15218 0.86477 0.52159 0.0
C2179 C 0.14075 0.89001 0.51338 0.0
C2180 C 0.13269 0.9057 0.51666 0.0
C2181 C 0.15788 0.86253 0.5066 0.0
C2182 C 0.15516 0.87432 0.49491 0.0
C2183 C 0.14627 0.88758 0.49834 0.0
C2184 C 0.1625 0.87398 0.47928 0.0
C2185 C 0.16681 0.8476 0.50333 0.0
C2186 C 0.18472 0.88351 0.47765 0.0
C2187 C 0.19183 0.88375 0.46291 0.0
C2188 C 0.17685 0.87438 0.44946 0.0
C2189 C 0.15455 0.86489 0.45117 0.0
C2190 C 0.14746 0.86481 0.46595 0.0
H2191 H 0.1634 0.83611 0.51236 0.0
H2192 H 0.15986 0.83809 0.49172 0.0
H2193 H 0.18468 0.85752 0.50322 0.0
H2194 H 0.19659 0.89104 0.4878 0.0
H2195 H 0.20913 0.89163 0.46204 0.0
H2196 H 0.61386 0.78572 0.10644 0.0
H2197 H 0.6249 0.79154 0.13447 0.0
H2198 H 0.58173 0.81634 0.14228 0.0
H2199 H 0.56984 0.80966 0.11431 0.0
H2200 H 0.64383 0.82883 0.15496 0.0
H2201 H 0.56276 0.76861 0.17143 0.0
H2202 H 0.56923 0.77016 0.15149 0.0
H2203 H 0.5631 0.78956 0.16061 0.0
C2204 C 0.60655 0.79223 0.11413 0.0
C2205 C 0.59079 0.797 0.10814 0.0
C2206 C 0.61301 0.7957 0.13013 0.0
C2207 C 0.60386 0.80402 0.14048 0.0
C2208 C 0.58866 0.80949 0.13453 0.0
H2209 H 0.62628 0.82532 0.24275 0.0
H2210 H 0.61516 0.82641 0.21553 0.0
C2211 C 0.5821 0.80591 0.11851 0.0
C2212 C 0.61018 0.80668 0.15749 0.0
H2213 H 0.59057 0.7884 0.192 0.0
C2214 C 0.63217 0.82007 0.16307 0.0
C2215 C 0.59491 0.79524 0.16804 0.0
C2216 C 0.57121 0.77993 0.16262 0.0
C2217 C 0.63935 0.82211 0.17891 0.0
C2218 C 0.62417 0.81032 0.18936 0.0
C2219 C 0.60211 0.79744 0.1839 0.0
C2220 C 0.63107 0.81002 0.2058 0.0
C2221 C 0.66315 0.83672 0.18434 0.0
C2222 C 0.64338 0.80014 0.20925 0.0
C2223 C 0.6495 0.79922 0.22473 0.0
C2224 C 0.64348 0.80822 0.23709 0.0
C2225 C 0.63102 0.81804 0.23354 0.0
C2226 C 0.62477 0.81882 0.21802 0.0
H2227 H 0.67171 0.84854 0.17584 0.0
H2228 H 0.66539 0.84586 0.19584 0.0
H2229 H 0.67085 0.8266 0.18571 0.0
H2230 H 0.648 0.79287 0.19996 0.0
H2231 H 0.65865 0.7911 0.227 0.0
H2232 H 0.2387 0.83646 0.11465 0.0
H2233 H 0.23181 0.84297 0.14138 0.0
H2234 H 0.22434 0.78119 0.15176 0.0
H2235 H 0.23144 0.77467 0.12514 0.0
H2236 H 0.19267 0.81402 0.15547 0.0
H2237 H 0.26806 0.82614 0.18808 0.0
H2238 H 0.26611 0.82914 0.16748 0.0
H2239 H 0.25422 0.80247 0.17405 0.0
C2240 C 0.2359 0.82442 0.12271 0.0
C2241 C 0.23562 0.80506 0.11782 0.0
C2242 C 0.23188 0.82811 0.13792 0.0
C2243 C 0.2278 0.81266 0.14855 0.0
C2244 C 0.22774 0.79344 0.14378 0.0
H2245 H 0.19319 0.79673 0.24308 0.0
H2246 H 0.20471 0.7944 0.21723 0.0
C2247 C 0.23161 0.78966 0.12854 0.0
C2248 C 0.22249 0.81608 0.1644 0.0
H2249 H 0.24001 0.82277 0.2031 0.0
C2250 C 0.20307 0.8161 0.1659 0.0
C2251 C 0.23606 0.81864 0.17793 0.0
C2252 C 0.25738 0.81929 0.1769 0.0
C2253 C 0.19653 0.81807 0.18063 0.0
C2254 C 0.2101 0.82066 0.19422 0.0
C2255 C 0.22965 0.82081 0.19269 0.0
C2256 C 0.20407 0.82277 0.21011 0.0
C2257 C 0.1748 0.81663 0.18149 0.0
C2258 C 0.20039 0.83977 0.21482 0.0
C2259 C 0.19371 0.84107 0.22954 0.0
C2260 C 0.19089 0.82556 0.23992 0.0
C2261 C 0.19534 0.80899 0.23538 0.0
C2262 C 0.20185 0.8076 0.2206 0.0
H2263 H 0.16401 0.80877 0.17044 0.0
H2264 H 0.16643 0.80729 0.19121 0.0
H2265 H 0.17731 0.8333 0.18358 0.0
H2266 H 0.20258 0.852 0.20708 0.0
H2267 H 0.19078 0.85424 0.23283 0.0
H2268 H 0.17941 0.39769 0.11551 0.0
H2269 H 0.17314 0.38507 0.14143 0.0
H2270 H 0.23921 0.43288 0.15854 0.0
H2271 H 0.24535 0.44633 0.13283 0.0
H2272 H 0.19275 0.3682 0.1597 0.0
H2273 H 0.20508 0.44573 0.18914 0.0
H2274 H 0.20211 0.44031 0.16818 0.0
H2275 H 0.22758 0.44844 0.17926 0.0
C2276 C 0.19256 0.40569 0.12482 0.0
C2277 C 0.21281 0.4232 0.12212 0.0
C2278 C 0.189 0.39833 0.13959 0.0
C2279 C 0.20558 0.4083 0.15197 0.0
C2280 C 0.22604 0.42527 0.14922 0.0
H2281 H 0.20262 0.38239 0.25004 0.0
H2282 H 0.21497 0.39522 0.22484 0.0
C2283 C 0.2296 0.43274 0.13446 0.0
C2284 C 0.20125 0.40098 0.16775 0.0
H2285 H 0.19893 0.41778 0.20514 0.0
C2286 C 0.19416 0.37905 0.16964 0.0
C2287 C 0.2031 0.41519 0.18071 0.0
C2288 C 0.20969 0.43868 0.17925 0.0
C2289 C 0.18873 0.37091 0.18413 0.0
C2290 C 0.1903 0.38504 0.19699 0.0
C2291 C 0.19785 0.40706 0.19522 0.0
C2292 C 0.18299 0.37701 0.21215 0.0
C2293 C 0.1813 0.34725 0.18559 0.0
C2294 C 0.16092 0.36279 0.21332 0.0
C2295 C 0.15377 0.35566 0.22769 0.0
C2296 C 0.16858 0.36259 0.24118 0.0
C2297 C 0.19074 0.37691 0.23993 0.0
C2298 C 0.19786 0.38415 0.22554 0.0
H2299 H 0.18579 0.33991 0.17581 0.0
H2300 H 0.1884 0.34534 0.19679 0.0
H2301 H 0.16337 0.33802 0.18544 0.0
H2302 H 0.14916 0.35746 0.20314 0.0
H2303 H 0.13655 0.34504 0.22825 0.0
H2304 H 0.76413 0.60362 0.90286 0.0
H2305 H 0.76925 0.61555 0.87662 0.0
H2306 H 0.79276 0.57174 0.86487 0.0
H2307 H 0.78703 0.55922 0.89084 0.0
H2308 H 0.80802 0.63527 0.86346 0.0
H2309 H 0.74854 0.55854 0.82772 0.0
H2310 H 0.74812 0.56268 0.84852 0.0
H2311 H 0.76679 0.55528 0.84102 0.0
C2312 C 0.77 0.59623 0.89458 0.0
C2313 C 0.77516 0.58046 0.89891 0.0
C2314 C 0.77302 0.60315 0.87964 0.0
C2315 C 0.78108 0.5943 0.86874 0.0
C2316 C 0.7861 0.57846 0.87299 0.0
H2317 H 0.83193 0.61957 0.78032 0.0
H2318 H 0.81889 0.60619 0.8052 0.0
C2319 C 0.78308 0.57153 0.88791 0.0
C2320 C 0.78556 0.60255 0.85325 0.0
H2321 H 0.77533 0.5864 0.81413 0.0
C2322 C 0.80067 0.62467 0.85266 0.0
C2323 C 0.77592 0.58866 0.8392 0.0
C2324 C 0.75878 0.56501 0.8391 0.0
C2325 C 0.80706 0.63311 0.83839 0.0
C2326 C 0.79786 0.61907 0.82437 0.0
C2327 C 0.78238 0.59707 0.82493 0.0
C2328 C 0.8049 0.62673 0.80907 0.0
C2329 C 0.82421 0.65675 0.83844 0.0
C2330 C 0.80102 0.64244 0.80293 0.0
C2331 C 0.80855 0.6502 0.78876 0.0
C2332 C 0.82005 0.64233 0.78049 0.0
C2333 C 0.82344 0.6262 0.78653 0.0
C2334 C 0.81587 0.61843 0.80067 0.0
H2335 H 0.83264 0.66422 0.8503 0.0
H2336 H 0.83647 0.65853 0.83044 0.0
H2337 H 0.81647 0.66599 0.83427 0.0
H2338 H 0.79233 0.64882 0.80917 0.0
H2339 H 0.80578 0.6627 0.78444 0.0
H2340 H 0.44519 0.23629 0.91183 0.0
H2341 H 0.43442 0.23062 0.88373 0.0
H2342 H 0.38862 0.16301 0.88748 0.0
H2343 H 0.39883 0.16868 0.9157 0.0
H2344 H 0.43646 0.20128 0.86132 0.0
H2345 H 0.35194 0.1844 0.86416 0.0
H2346 H 0.3723 0.19665 0.88074 0.0
H2347 H 0.3592 0.16786 0.87513 0.0
C2348 C 0.4326 0.22029 0.90672 0.0
C2349 C 0.42274 0.20297 0.91601 0.0
C2350 C 0.4266 0.21704 0.89065 0.0
C2351 C 0.41057 0.19647 0.88358 0.0
C2352 C 0.4008 0.17909 0.89277 0.0
H2353 H 0.35285 0.15428 0.78678 0.0
H2354 H 0.36383 0.15457 0.8143 0.0
C2355 C 0.40679 0.18232 0.90885 0.0
C2356 C 0.40436 0.19325 0.86654 0.0
H2357 H 0.36232 0.18102 0.83915 0.0
C2358 C 0.42024 0.19682 0.85645 0.0
C2359 C 0.38316 0.18732 0.86026 0.0
C2360 C 0.36567 0.18399 0.8706 0.0
C2361 C 0.41552 0.19469 0.8402 0.0
C2362 C 0.39445 0.18919 0.83394 0.0
C2363 C 0.37844 0.18519 0.84401 0.0
C2364 C 0.38893 0.18855 0.81703 0.0
C2365 C 0.43306 0.19822 0.82987 0.0
C2366 C 0.39945 0.20754 0.80948 0.0
C2367 C 0.39327 0.2074 0.79379 0.0
C2368 C 0.37637 0.18829 0.78536 0.0
C2369 C 0.3661 0.16918 0.7929 0.0
C2370 C 0.37225 0.16935 0.80863 0.0
H2371 H 0.44598 0.19617 0.836 0.0
H2372 H 0.42626 0.18674 0.81906 0.0
H2373 H 0.4407 0.21507 0.82647 0.0
H2374 H 0.4121 0.22262 0.81582 0.0
H2375 H 0.4016 0.22233 0.78828 0.0
H2376 H 0.83331 0.23156 0.91172 0.0
H2377 H 0.83969 0.22608 0.88478 0.0
H2378 H 0.77185 0.20033 0.86994 0.0
H2379 H 0.76549 0.20672 0.89679 0.0
H2380 H 0.82279 0.1891 0.86454 0.0
H2381 H 0.80091 0.24755 0.84113 0.0
H2382 H 0.80507 0.24626 0.86178 0.0
H2383 H 0.78003 0.22642 0.85065 0.0
C2384 C 0.81977 0.22496 0.90271 0.0
C2385 C 0.79893 0.21982 0.90641 0.0
C2386 C 0.82342 0.22167 0.88733 0.0
C2387 C 0.80633 0.21315 0.87531 0.0
C2388 C 0.78537 0.20736 0.87899 0.0
H2389 H 0.80924 0.18928 0.77488 0.0
H2390 H 0.79695 0.18901 0.80081 0.0
C2391 C 0.78171 0.21077 0.89438 0.0
C2392 C 0.81066 0.21047 0.85897 0.0
H2393 H 0.80966 0.2277 0.82295 0.0
C2394 C 0.81986 0.19749 0.85544 0.0
C2395 C 0.80681 0.22143 0.8471 0.0
C2396 C 0.79784 0.23636 0.85033 0.0
C2397 C 0.82548 0.19532 0.8404 0.0
C2398 C 0.82195 0.20655 0.82864 0.0
C2399 C 0.81227 0.21909 0.83203 0.0
C2400 C 0.82928 0.20643 0.81299 0.0
C2401 C 0.83522 0.18109 0.83719 0.0
C2402 C 0.85152 0.21658 0.81129 0.0
C2403 C 0.85862 0.21705 0.79652 0.0
C2404 C 0.8436 0.20729 0.78312 0.0
C2405 C 0.82127 0.19716 0.7849 0.0
C2406 C 0.8142 0.19685 0.7997 0.0
H2407 H 0.83224 0.16972 0.84625 0.0
H2408 H 0.82851 0.17149 0.82559 0.0
H2409 H 0.85303 0.19156 0.8371 0.0
H2410 H 0.86341 0.22443 0.8214 0.0
H2411 H 0.87592 0.2254 0.79559 0.0
H2412 H 0.27327 0.15888 0.44324 0.0
H2413 H 0.28442 0.16392 0.47136 0.0
H2414 H 0.23383 0.09824 0.47561 0.0
H2415 H 0.22244 0.09313 0.44767 0.0
H2416 H 0.25918 0.15779 0.49836 0.0
H2417 H 0.29162 0.10146 0.49222 0.0
H2418 H 0.28622 0.11337 0.47585 0.0
H2419 H 0.26431 0.09055 0.4834 0.0
C2420 C 0.26435 0.14563 0.45022 0.0
C2421 C 0.24716 0.12551 0.44321 0.0
C2422 C 0.27077 0.14852 0.46624 0.0
C2423 C 0.26016 0.13132 0.47545 0.0
C2424 C 0.24247 0.11156 0.46861 0.0
H2425 H 0.27185 0.10112 0.56898 0.0
H2426 H 0.26121 0.10235 0.54176 0.0
C2427 C 0.23604 0.10866 0.45266 0.0
C2428 C 0.26787 0.13359 0.49212 0.0
H2429 H 0.28847 0.11237 0.51799 0.0
C2430 C 0.26577 0.14803 0.50269 0.0
C2431 C 0.27652 0.12088 0.49765 0.0
C2432 C 0.28002 0.10582 0.4867 0.0
C2433 C 0.27134 0.14946 0.5188 0.0
C2434 C 0.27949 0.13632 0.52435 0.0
C2435 C 0.28206 0.12229 0.5137 0.0
C2436 C 0.28504 0.13636 0.54118 0.0
C2437 C 0.26779 0.16442 0.52978 0.0
C2438 C 0.3019 0.15513 0.54988 0.0
C2439 C 0.30806 0.15447 0.56546 0.0
C2440 C 0.29758 0.13495 0.57252 0.0
C2441 C 0.28043 0.11632 0.56382 0.0
C2442 C 0.27426 0.11701 0.5483 0.0
H2443 H 0.25692 0.16956 0.52409 0.0
H2444 H 0.26069 0.15641 0.54029 0.0
H2445 H 0.28363 0.17927 0.53368 0.0
H2446 H 0.31072 0.17011 0.54451 0.0
H2447 H 0.32152 0.16901 0.57179 0.0
H2448 H 0.905 0.1746 0.44787 0.0
H2449 H 0.89792 0.18166 0.47449 0.0
H2450 H 0.88849 0.11933 0.48533 0.0
H2451 H 0.89562 0.11221 0.45888 0.0
H2452 H 0.85786 0.15254 0.48895 0.0
H2453 H 0.9337 0.1652 0.52113 0.0
H2454 H 0.93154 0.16833 0.50057 0.0
H2455 H 0.92001 0.14162 0.50702 0.0
C2456 C 0.90163 0.16253 0.456 0.0
C2457 C 0.90082 0.14284 0.45132 0.0
C2458 C 0.89752 0.16654 0.47114 0.0
C2459 C 0.89291 0.15109 0.48186 0.0
C2460 C 0.89227 0.13154 0.47725 0.0
H2461 H 0.85841 0.13063 0.57546 0.0
H2462 H 0.87026 0.1305 0.54945 0.0
C2463 C 0.89617 0.12743 0.46212 0.0
C2464 C 0.88786 0.15486 0.49771 0.0
H2465 H 0.90537 0.16069 0.53632 0.0
C2466 C 0.86831 0.15458 0.49934 0.0
C2467 C 0.90153 0.15737 0.51116 0.0
C2468 C 0.92297 0.15834 0.50997 0.0
C2469 C 0.86164 0.15594 0.51413 0.0
C2470 C 0.8752 0.15819 0.52764 0.0
C2471 C 0.895 0.15895 0.52597 0.0
C2472 C 0.86876 0.15893 0.54359 0.0
C2473 C 0.83973 0.15402 0.51513 0.0
C2474 C 0.86442 0.17521 0.54904 0.0
C2475 C 0.85753 0.17523 0.56386 0.0
C2476 C 0.85519 0.15917 0.57359 0.0
C2477 C 0.8602 0.14329 0.56828 0.0
C2478 C 0.86691 0.14317 0.55341 0.0
H2479 H 0.82914 0.14674 0.50394 0.0
H2480 H 0.83128 0.14391 0.52451 0.0
H2481 H 0.84197 0.17049 0.51785 0.0
H2482 H 0.8663 0.18787 0.54183 0.0
H2483 H 0.85414 0.18789 0.56776 0.0
H2484 H 0.87397 0.78742 0.46693 0.0
H2485 H 0.86717 0.77627 0.49323 0.0
H2486 H 0.88753 0.72933 0.48369 0.0
H2487 H 0.8941 0.74018 0.45724 0.0
H2488 H 0.83708 0.73246 0.49892 0.0
H2489 H 0.92034 0.7615 0.52709 0.0
H2490 H 0.91529 0.77215 0.50981 0.0
H2491 H 0.91324 0.74591 0.50833 0.0
C2492 C 0.87708 0.77478 0.47044 0.0
C2493 C 0.88443 0.76456 0.45997 0.0
C2494 C 0.87332 0.76853 0.48548 0.0
C2495 C 0.87701 0.75211 0.4904 0.0
C2496 C 0.88494 0.7423 0.48018 0.0
H2497 H 0.84935 0.68454 0.57423 0.0
H2498 H 0.86205 0.6982 0.54929 0.0
C2499 C 0.88868 0.74852 0.46509 0.0
C2500 C 0.87086 0.74412 0.50577 0.0
H2501 H 0.89107 0.74015 0.54153 0.0
C2502 C 0.84888 0.7342 0.50827 0.0
C2503 C 0.8863 0.74624 0.51782 0.0
C2504 C 0.91016 0.75716 0.51575 0.0
C2505 C 0.84184 0.72622 0.52253 0.0
C2506 C 0.85731 0.72871 0.53473 0.0
C2507 C 0.87929 0.73839 0.53217 0.0
C2508 C 0.85087 0.72143 0.55024 0.0
C2509 C 0.81785 0.71483 0.5243 0.0
C2510 C 0.8409 0.73038 0.55919 0.0
C2511 C 0.83361 0.7226 0.57338 0.0
C2512 C 0.83637 0.70588 0.57897 0.0
C2513 C 0.84709 0.69751 0.57026 0.0
C2514 C 0.8543 0.70524 0.55601 0.0
H2515 H 0.80791 0.70903 0.51279 0.0
H2516 H 0.81301 0.70069 0.53118 0.0
H2517 H 0.81404 0.72641 0.53054 0.0
H2518 H 0.83858 0.74326 0.55511 0.0
H2519 H 0.82579 0.72967 0.57998 0.0
loop_
_geom_bond_atom_site_label_1
_geom_bond_atom_site_label_2
_geom_bond_distance
_geom_bond_site_symmetry_2
_ccdc_geom_bond_type
H0 C5 0.930 . S
H1 C8 0.930 . S
H2 C10 0.930 . S
H3 C4 1.016 . S
C4 H3 1.016 . S
C4 N11 1.286 . S
C5 H0 0.930 . S
C5 C6 1.397 . S
C5 C7 1.361 . S
C6 C5 1.397 . S
C6 C10 1.390 . S
C7 C5 1.361 . S
C7 C8 1.393 . S
C7 N11 1.413 . S
C8 H1 0.930 . S
C8 C7 1.393 . S
C8 C9 1.399 . S
C9 C8 1.399 . S
C9 C10 1.381 . S
C10 H2 0.930 . S
C10 C6 1.390 . S
C10 C9 1.381 . S
N11 C4 1.286 . S
N11 C7 1.413 . S
H12 C17 0.930 . S
H13 C20 0.930 . S
H14 C22 0.930 . S
H15 C16 1.016 . S
C16 H15 1.016 . S
C16 N23 1.286 . S
C17 H12 0.930 . S
C17 C18 1.397 . S
C17 C19 1.361 . S
C18 C17 1.397 . S
C18 C22 1.390 . S
C19 C17 1.361 . S
C19 C20 1.393 . S
C19 N23 1.413 . S
C20 H13 0.930 . S
C20 C19 1.393 . S
C20 C21 1.399 . S
C21 C20 1.399 . S
C21 C22 1.381 . S
C22 H14 0.930 . S
C22 C18 1.390 . S
C22 C21 1.381 . S
N23 C16 1.286 . S
N23 C19 1.413 . S
H24 C29 0.930 . S
H25 C32 0.930 . S
H26 C34 0.930 . S
H27 C28 1.016 . S
C28 H27 1.016 . S
C28 N35 1.286 . S
C29 H24 0.930 . S
C29 C30 1.397 . S
C29 C31 1.361 . S
C30 C29 1.397 . S
C30 C34 1.390 . S
C31 C29 1.361 . S
C31 C32 1.393 . S
C31 N35 1.413 . S
C32 H25 0.930 . S
C32 C31 1.393 . S
C32 C33 1.399 . S
C33 C32 1.399 . S
C33 C34 1.381 . S
C34 H26 0.930 . S
C34 C30 1.390 . S
C34 C33 1.381 . S
N35 C28 1.286 . S
N35 C31 1.413 . S
H36 C41 0.930 . S
H37 C44 0.930 . S
H38 C46 0.930 . S
H39 C40 1.016 . S
C40 H39 1.016 . S
C40 N47 1.286 . S
C41 H36 0.930 . S
C41 C42 1.397 . S
C41 C43 1.361 . S
C42 C41 1.397 . S
C42 C46 1.390 . S
C43 C41 1.361 . S
C43 C44 1.393 . S
C43 N47 1.413 . S
C44 H37 0.930 . S
C44 C43 1.393 . S
C44 C45 1.399 . S
C45 C44 1.399 . S
C45 C46 1.381 . S
C46 H38 0.930 . S
C46 C42 1.390 . S
C46 C45 1.381 . S
N47 C40 1.286 . S
N47 C43 1.413 . S
H48 C53 0.930 . S
H49 C56 0.930 . S
H50 C58 0.930 . S
H51 C52 1.016 . S
C52 H51 1.016 . S
C52 N59 1.286 . S
C53 H48 0.930 . S
C53 C54 1.397 . S
C53 C55 1.361 . S
C54 C53 1.397 . S
C54 C58 1.390 . S
C55 C53 1.361 . S
C55 C56 1.393 . S
C55 N59 1.413 . S
C56 H49 0.930 . S
C56 C55 1.393 . S
C56 C57 1.399 . S
C57 C56 1.399 . S
C57 C58 1.381 . S
C58 H50 0.930 . S
C58 C54 1.390 . S
C58 C57 1.381 . S
N59 C52 1.286 . S
N59 C55 1.413 . S
H60 C65 0.930 . S
H61 C68 0.930 . S
H62 C70 0.930 . S
H63 C64 1.016 . S
C64 H63 1.016 . S
C64 N71 1.286 . S
C65 H60 0.930 . S
C65 C66 1.397 . S
C65 C67 1.361 . S
C66 C65 1.397 . S
C66 C70 1.390 . S
C67 C65 1.361 . S
C67 C68 1.393 . S
C67 N71 1.413 . S
C68 H61 0.930 . S
C68 C67 1.393 . S
C68 C69 1.399 . S
C69 C68 1.399 . S
C69 C70 1.381 . S
C70 H62 0.930 . S
C70 C66 1.390 . S
C70 C69 1.381 . S
N71 C64 1.286 . S
N71 C67 1.413 . S
H72 C77 0.930 . S
H73 C80 0.930 . S
H74 C82 0.930 . S
H75 C76 1.016 . S
C76 H75 1.016 . S
C76 N83 1.286 . S
C77 H72 0.930 . S
C77 C78 1.397 . S
C77 C79 1.361 . S
C78 C77 1.397 . S
C78 C82 1.390 . S
C79 C77 1.361 . S
C79 C80 1.393 . S
C79 N83 1.413 . S
C80 H73 0.930 . S
C80 C79 1.393 . S
C80 C81 1.399 . S
C81 C80 1.399 . S
C81 C82 1.381 . S
C82 H74 0.930 . S
C82 C78 1.390 . S
C82 C81 1.381 . S
N83 C76 1.286 . S
N83 C79 1.413 . S
H84 C89 0.930 . S
H85 C92 0.930 . S
H86 C94 0.930 . S
H87 C88 1.016 . S
C88 H87 1.016 . S
C88 N95 1.286 . S
C89 H84 0.930 . S
C89 C90 1.397 . S
C89 C91 1.361 . S
C90 C89 1.397 . S
C90 C94 1.390 . S
C91 C89 1.361 . S
C91 C92 1.393 . S
C91 N95 1.413 . S
C92 H85 0.930 . S
C92 C91 1.393 . S
C92 C93 1.399 . S
C93 C92 1.399 . S
C93 C94 1.381 . S
C94 H86 0.930 . S
C94 C90 1.390 . S
C94 C93 1.381 . S
N95 C88 1.286 . S
N95 C91 1.413 . S
H96 C101 0.930 . S
H97 C104 0.930 . S
H98 C106 0.930 . S
H99 C100 1.016 . S
C100 H99 1.016 . S
C100 N107 1.286 . S
C101 H96 0.930 . S
C101 C102 1.397 . S
C101 C103 1.361 . S
C102 C101 1.397 . S
C102 C106 1.390 . S
C103 C101 1.361 . S
C103 C104 1.393 . S
C103 N107 1.413 . S
C104 H97 0.930 . S
C104 C103 1.393 . S
C104 C105 1.399 . S
C105 C104 1.399 . S
C105 C106 1.381 . S
C106 H98 0.930 . S
C106 C102 1.390 . S
C106 C105 1.381 . S
N107 C100 1.286 . S
N107 C103 1.413 . S
H108 C113 0.930 . S
H109 C116 0.930 . S
H110 C118 0.930 . S
H111 C112 1.016 . S
C112 H111 1.016 . S
C112 N119 1.286 . S
C113 H108 0.930 . S
C113 C114 1.397 . S
C113 C115 1.361 . S
C114 C113 1.397 . S
C114 C118 1.390 . S
C115 C113 1.361 . S
C115 C116 1.393 . S
C115 N119 1.413 . S
C116 H109 0.930 . S
C116 C115 1.393 . S
C116 C117 1.399 . S
C117 C116 1.399 . S
C117 C118 1.381 . S
C118 H110 0.930 . S
C118 C114 1.390 . S
C118 C117 1.381 . S
N119 C112 1.286 . S
N119 C115 1.413 . S
H120 C125 0.930 . S
H121 C128 0.930 . S
H122 C130 0.930 . S
H123 C124 1.016 . S
C124 H123 1.016 . S
C124 N131 1.286 . S
C125 H120 0.930 . S
C125 C126 1.397 . S
C125 C127 1.361 . S
C126 C125 1.397 . S
C126 C130 1.390 . S
C127 C125 1.361 . S
C127 C128 1.393 . S
C127 N131 1.413 . S
C128 H121 0.930 . S
C128 C127 1.393 . S
C128 C129 1.399 . S
C129 C128 1.399 . S
C129 C130 1.381 . S
C130 H122 0.930 . S
C130 C126 1.390 . S
C130 C129 1.381 . S
N131 C124 1.286 . S
N131 C127 1.413 . S
H132 C137 0.930 . S
H133 C140 0.930 . S
H134 C142 0.930 . S
H135 C136 1.016 . S
C136 H135 1.016 . S
C136 N143 1.286 . S
C137 H132 0.930 . S
C137 C138 1.397 . S
C137 C139 1.361 . S
C138 C137 1.397 . S
C138 C142 1.390 . S
C139 C137 1.361 . S
C139 C140 1.393 . S
C139 N143 1.413 . S
C140 H133 0.930 . S
C140 C139 1.393 . S
C140 C141 1.399 . S
C141 C140 1.399 . S
C141 C142 1.381 . S
C142 H134 0.930 . S
C142 C138 1.390 . S
C142 C141 1.381 . S
N143 C136 1.286 . S
N143 C139 1.413 . S
H144 C149 0.930 . S
H145 C152 0.930 . S
H146 C154 0.930 . S
H147 C148 1.016 . S
C148 H147 1.016 . S
C148 N155 1.286 . S
C149 H144 0.930 . S
C149 C150 1.397 . S
C149 C151 1.361 . S
C150 C149 1.397 . S
C150 C154 1.390 . S
C151 C149 1.361 . S
C151 C152 1.393 . S
C151 N155 1.413 . S
C152 H145 0.930 . S
C152 C151 1.393 . S
C152 C153 1.399 . S
C153 C152 1.399 . S
C153 C154 1.381 . S
C154 H146 0.930 . S
C154 C150 1.390 . S
C154 C153 1.381 . S
N155 C148 1.286 . S
N155 C151 1.413 . S
H156 C161 0.930 . S
H157 C164 0.930 . S
H158 C166 0.930 . S
H159 C160 1.016 . S
C160 H159 1.016 . S
C160 N167 1.286 . S
C161 H156 0.930 . S
C161 C162 1.397 . S
C161 C163 1.361 . S
C162 C161 1.397 . S
C162 C166 1.390 . S
C163 C161 1.361 . S
C163 C164 1.393 . S
C163 N167 1.413 . S
C164 H157 0.930 . S
C164 C163 1.393 . S
C164 C165 1.399 . S
C165 C164 1.399 . S
C165 C166 1.381 . S
C166 H158 0.930 . S
C166 C162 1.390 . S
C166 C165 1.381 . S
N167 C160 1.286 . S
N167 C163 1.413 . S
H168 C173 0.930 . S
H169 C176 0.930 . S
H170 C178 0.930 . S
H171 C172 1.016 . S
C172 H171 1.016 . S
C172 N179 1.286 . S
C173 H168 0.930 . S
C173 C174 1.397 . S
C173 C175 1.361 . S
C174 C173 1.397 . S
C174 C178 1.390 . S
C175 C173 1.361 . S
C175 C176 1.393 . S
C175 N179 1.413 . S
C176 H169 0.930 . S
C176 C175 1.393 . S
C176 C177 1.399 . S
C177 C176 1.399 . S
C177 C178 1.381 . S
C178 H170 0.930 . S
C178 C174 1.390 . S
C178 C177 1.381 . S
N179 C172 1.286 . S
N179 C175 1.413 . S
H180 C185 0.930 . S
H181 C188 0.930 . S
H182 C190 0.930 . S
H183 C184 1.016 . S
C184 H183 1.016 . S
C184 N191 1.286 . S
C185 H180 0.930 . S
C185 C186 1.397 . S
C185 C187 1.361 . S
C186 C185 1.397 . S
C186 C190 1.390 . S
C187 C185 1.361 . S
C187 C188 1.393 . S
C187 N191 1.413 . S
C188 H181 0.930 . S
C188 C187 1.393 . S
C188 C189 1.399 . S
C189 C188 1.399 . S
C189 C190 1.381 . S
C190 H182 0.930 . S
C190 C186 1.390 . S
C190 C189 1.381 . S
N191 C184 1.286 . S
N191 C187 1.413 . S
H192 C197 0.930 . S
H193 C200 0.930 . S
H194 C202 0.930 . S
H195 C196 1.016 . S
C196 H195 1.016 . S
C196 N203 1.286 . S
C197 H192 0.930 . S
C197 C198 1.397 . S
C197 C199 1.361 . S
C198 C197 1.397 . S
C198 C202 1.390 . S
C199 C197 1.361 . S
C199 C200 1.393 . S
C199 N203 1.413 . S
C200 H193 0.930 . S
C200 C199 1.393 . S
C200 C201 1.399 . S
C201 C200 1.399 . S
C201 C202 1.381 . S
C202 H194 0.930 . S
C202 C198 1.390 . S
C202 C201 1.381 . S
N203 C196 1.286 . S
N203 C199 1.413 . S
H204 C209 0.930 . S
H205 C212 0.930 . S
H206 C214 0.930 . S
H207 C208 1.016 . S
C208 H207 1.016 . S
C208 N215 1.286 . S
C209 H204 0.930 . S
C209 C210 1.397 . S
C209 C211 1.361 . S
C210 C209 1.397 . S
C210 C214 1.390 . S
C211 C209 1.361 . S
C211 C212 1.393 . S
C211 N215 1.413 . S
C212 H205 0.930 . S
C212 C211 1.393 . S
C212 C213 1.399 . S
C213 C212 1.399 . S
C213 C214 1.381 . S
C214 H206 0.930 . S
C214 C210 1.390 . S
C214 C213 1.381 . S
N215 C208 1.286 . S
N215 C211 1.413 . S
C216 Eu217 2.835 . S
C216 C218 1.500 1_545 S
C216 O236 1.257 1_545 S
C216 O237 1.260 . S
Eu217 C216 2.835 . S
Eu217 O236 2.473 1_545 S
Eu217 O237 2.480 . S
Eu217 O238 2.430 . S
Eu217 O239 2.670 . S
Eu217 O240 2.394 1_545 S
Eu217 O245 2.355 1_545 S
Eu217 O247 2.374 . S
C218 C216 1.500 1_565 S
C218 C219 1.377 1_565 S
C218 C223 1.377 . S
C219 C218 1.377 1_545 S
C219 C220 1.386 1_545 S
C219 H248 0.931 . S
C220 C219 1.386 1_565 S
C220 C221 1.425 . S
C220 H249 0.900 1_565 S
C221 C220 1.425 . S
C221 C222 1.394 . S
C222 C221 1.394 . S
C222 C223 1.378 . S
C222 H250 0.931 . S
C223 C218 1.377 . S
C223 C222 1.378 . S
C223 H251 0.931 . S
C224 O238 1.259 . S
C224 O239 1.270 . S
C225 O240 1.251 . S
C225 O241 1.251 . S
C226 Eu227 2.835 1_545 S
C226 C228 1.500 . S
C226 O242 1.257 . S
C226 O243 1.260 1_545 S
Eu227 C226 2.835 1_565 S
Eu227 O239 2.355 1_566 S
Eu227 O241 2.374 1_556 S
Eu227 O242 2.473 1_565 S
Eu227 O243 2.480 . S
Eu227 O244 2.430 . S
Eu227 O245 2.670 1_556 S
Eu227 O246 2.394 1_565 S
C228 C226 1.500 . S
C228 C229 1.377 . S
C228 C233 1.377 . S
C229 C228 1.377 . S
C229 C230 1.395 . S
C229 H252 0.931 1_545 S
C230 C229 1.395 . S
C230 C231 1.383 . S
C230 H253 0.931 . S
C231 C230 1.383 . S
C231 C232 1.394 . S
C232 C231 1.394 . S
C232 C233 1.378 . S
C232 H254 0.931 . S
C233 C228 1.377 . S
C233 C232 1.378 . S
C233 H255 0.931 . S
C234 O244 1.259 1_554 S
C234 O245 1.270 . S
C235 O246 1.251 1_554 S
C235 O247 1.251 . S
O236 C216 1.257 1_565 S
O236 Eu217 2.473 1_565 S
O237 C216 1.260 . S
O237 Eu217 2.480 . S
O238 Eu217 2.430 . S
O238 C224 1.259 . S
O239 Eu217 2.670 . S
O239 C224 1.270 . S
O239 Eu227 2.355 1_544 S
O240 Eu217 2.394 1_565 S
O240 C225 1.251 . S
O241 C225 1.251 . S
O241 Eu227 2.374 1_554 S
O242 C226 1.257 . S
O242 Eu227 2.473 1_545 S
O243 C226 1.260 1_565 S
O243 Eu227 2.480 . S
O244 Eu227 2.430 . S
O244 C234 1.259 1_556 S
O245 Eu217 2.355 1_565 S
O245 Eu227 2.670 1_554 S
O245 C234 1.270 . S
O246 Eu227 2.394 1_545 S
O246 C235 1.251 1_556 S
O247 Eu217 2.374 . S
O247 C235 1.251 . S
H248 C219 0.931 . S
H249 C220 0.900 1_545 S
H250 C222 0.931 . S
H251 C223 0.931 . S
H252 C229 0.931 1_565 S
H253 C230 0.931 . S
H254 C232 0.931 . S
H255 C233 0.931 . S
C256 Eu257 2.835 1_455 S
C256 C258 1.500 . S
C256 O276 1.257 . S
C256 O277 1.260 1_455 S
Eu257 C256 2.835 1_655 S
Eu257 O276 2.473 1_655 S
Eu257 O277 2.480 . S
Eu257 O278 2.430 . S
Eu257 O279 2.670 . S
Eu257 O280 2.394 1_655 S
Eu257 O285 2.355 1_655 S
Eu257 O287 2.374 . S
C258 C256 1.500 . S
C258 C259 1.377 . S
C258 C263 1.377 . S
C259 C258 1.377 . S
C259 C260 1.395 . S
C259 H288 0.931 1_455 S
C260 C259 1.395 . S
C260 C261 1.383 . S
C260 H289 0.931 . S
C261 C260 1.383 . S
C261 C262 1.394 . S
C262 C261 1.394 . S
C262 C263 1.378 . S
C262 H290 0.931 . S
C263 C258 1.377 . S
C263 C262 1.378 . S
C263 H291 0.931 . S
C264 O278 1.259 . S
C264 O279 1.270 . S
C265 O280 1.251 . S
C265 O281 1.251 . S
C266 Eu267 2.835 1_655 S
C266 C268 1.500 . S
C266 O282 1.257 . S
C266 O283 1.260 1_655 S
Eu267 C266 2.835 1_455 S
Eu267 O279 2.355 1_456 S
Eu267 O281 2.374 1_556 S
Eu267 O282 2.473 1_455 S
Eu267 O283 2.480 . S
Eu267 O284 2.430 . S
Eu267 O285 2.670 1_556 S
Eu267 O286 2.394 1_455 S
C268 C266 1.500 . S
C268 C269 1.377 1_655 S
C268 C273 1.377 . S
C269 C268 1.377 1_455 S
C269 C270 1.395 1_455 S
C269 H292 0.931 . S
C270 C269 1.395 1_655 S
C270 C271 1.383 . S
C270 H293 0.931 1_655 S
C271 C270 1.383 . S
C271 C272 1.394 . S
C272 C271 1.394 . S
C272 C273 1.378 . S
C272 H294 0.931 . S
C273 C268 1.377 . S
C273 C272 1.378 . S
C273 H295 0.931 . S
C274 O284 1.259 1_554 S
C274 O285 1.270 . S
C275 O286 1.295 . S
C275 O287 1.178 1_556 S
O276 C256 1.257 . S
O276 Eu257 2.473 1_455 S
O277 C256 1.260 1_655 S
O277 Eu257 2.480 . S
O278 Eu257 2.430 . S
O278 C264 1.259 . S
O279 Eu257 2.670 . S
O279 C264 1.270 . S
O279 Eu267 2.355 1_654 S
O280 Eu257 2.394 1_455 S
O280 C265 1.251 . S
O281 C265 1.251 . S
O281 Eu267 2.374 1_554 S
O282 C266 1.257 . S
O282 Eu267 2.473 1_655 S
O283 C266 1.260 1_455 S
O283 Eu267 2.480 . S
O284 Eu267 2.430 . S
O284 C274 1.259 1_556 S
O285 Eu257 2.355 1_455 S
O285 Eu267 2.670 1_554 S
O285 C274 1.270 . S
O286 Eu267 2.394 1_655 S
O286 C275 1.295 . S
O287 Eu257 2.374 . S
O287 C275 1.178 1_554 S
H288 C259 0.931 1_655 S
H289 C260 0.931 . S
H290 C262 0.931 . S
H291 C263 0.931 . S
H292 C269 0.931 . S
H293 C270 0.931 1_455 S
H294 C272 0.931 . S
H295 C273 0.931 . S
C296 Eu297 2.835 . S
C296 C298 1.500 . S
C296 O316 1.257 . S
C296 O317 1.260 . S
Eu297 C296 2.835 . S
Eu297 O316 2.473 . S
Eu297 O317 2.480 . S
Eu297 O318 2.430 1_556 S
Eu297 O319 2.670 1_556 S
Eu297 O320 2.394 . S
Eu297 O325 2.355 1_556 S
Eu297 O327 2.374 1_556 S
C298 C296 1.500 . S
C298 C299 1.377 . S
C298 C303 1.377 . S
C299 C298 1.377 . S
C299 C300 1.395 . S
C299 H328 0.931 . S
C300 C299 1.395 . S
C300 C301 1.383 . S
C300 H329 0.931 . S
C301 C300 1.383 . S
C301 C302 1.394 . S
C302 C301 1.394 . S
C302 C303 1.378 . S
C302 H330 0.931 . S
C303 C298 1.377 . S
C303 C302 1.378 . S
C303 H331 0.931 . S
C304 O318 1.259 . S
C304 O319 1.270 . S
C305 O320 1.251 1_554 S
C305 O321 1.251 . S
C306 Eu307 2.835 . S
C306 C308 1.500 . S
C306 O322 1.257 . S
C306 O323 1.260 . S
Eu307 C306 2.835 . S
Eu307 O319 2.355 . S
Eu307 O321 2.374 . S
Eu307 O322 2.473 . S
Eu307 O323 2.480 . S
Eu307 O324 2.430 . S
Eu307 O325 2.670 . S
Eu307 O326 2.394 . S
C308 C306 1.500 . S
C308 C309 1.377 . S
C308 C313 1.377 . S
C309 C308 1.377 . S
C309 C310 1.395 . S
C309 H332 0.931 . S
C310 C309 1.395 . S
C310 C311 1.383 . S
C310 H333 0.931 . S
C311 C310 1.383 . S
C311 C312 1.394 . S
C312 C311 1.394 . S
C312 C313 1.378 . S
C312 H334 0.931 . S
C313 C308 1.377 . S
C313 C312 1.378 . S
C313 H335 0.931 . S
C314 O324 1.259 . S
C314 O325 1.270 . S
C315 O326 1.251 . S
C315 O327 1.251 . S
O316 C296 1.257 . S
O316 Eu297 2.473 . S
O317 C296 1.260 . S
O317 Eu297 2.480 . S
O318 Eu297 2.430 1_554 S
O318 C304 1.259 . S
O319 Eu297 2.670 1_554 S
O319 C304 1.270 . S
O319 Eu307 2.355 . S
O320 Eu297 2.394 . S
O320 C305 1.251 1_556 S
O321 C305 1.251 . S
O321 Eu307 2.374 . S
O322 C306 1.257 . S
O322 Eu307 2.473 . S
O323 C306 1.260 . S
O323 Eu307 2.480 . S
O324 Eu307 2.430 . S
O324 C314 1.259 . S
O325 Eu297 2.355 1_554 S
O325 Eu307 2.670 . S
O325 C314 1.270 . S
O326 Eu307 2.394 . S
O326 C315 1.251 . S
O327 Eu297 2.374 1_554 S
O327 C315 1.251 . S
H328 C299 0.931 . S
H329 C300 0.931 . S
H330 C302 0.931 . S
H331 C303 0.931 . S
H332 C309 0.931 . S
H333 C310 0.931 . S
H334 C312 0.931 . S
H335 C313 0.931 . S
C336 Eu337 2.835 . S
C336 C338 1.500 . S
C336 O356 1.257 . S
C336 O357 1.260 . S
Eu337 C336 2.835 . S
Eu337 O356 2.473 . S
Eu337 O357 2.480 . S
Eu337 O358 2.430 . S
Eu337 O359 2.670 . S
Eu337 O360 2.394 . S
Eu337 O365 2.355 . S
Eu337 O367 2.374 . S
C338 C336 1.500 . S
C338 C339 1.377 . S
C338 C343 1.377 . S
C339 C338 1.377 . S
C339 C340 1.395 . S
C339 H368 0.931 . S
C340 C339 1.395 . S
C340 C341 1.383 . S
C340 H369 0.931 . S
C341 C340 1.383 . S
C341 C342 1.394 . S
C342 C341 1.394 . S
C342 C343 1.378 . S
C342 H370 0.931 . S
C343 C338 1.377 . S
C343 C342 1.378 . S
C343 H371 0.931 . S
C344 O358 1.259 . S
C344 O359 1.270 . S
C345 O360 1.251 . S
C345 O361 1.251 . S
C346 Eu347 2.835 . S
C346 C348 1.500 . S
C346 O362 1.257 . S
C346 O363 1.260 . S
Eu347 C346 2.835 . S
Eu347 O359 2.355 . S
Eu347 O361 2.374 . S
Eu347 O362 2.473 . S
Eu347 O363 2.480 . S
Eu347 O364 2.430 . S
Eu347 O365 2.670 . S
Eu347 O366 2.394 . S
C348 C346 1.500 . S
C348 C349 1.377 . S
C348 C353 1.377 . S
C349 C348 1.377 . S
C349 C350 1.395 . S
C349 H372 0.931 . S
C350 C349 1.395 . S
C350 C351 1.383 . S
C350 H373 0.931 . S
C351 C350 1.383 . S
C351 C352 1.394 . S
C352 C351 1.394 . S
C352 C353 1.378 . S
C352 H374 0.931 . S
C353 C348 1.377 . S
C353 C352 1.378 . S
C353 H375 0.931 . S
C354 O364 1.259 . S
C354 O365 1.270 . S
C355 O366 1.251 . S
C355 O367 1.251 . S
O356 C336 1.257 . S
O356 Eu337 2.473 . S
O357 C336 1.260 . S
O357 Eu337 2.480 . S
O358 Eu337 2.430 . S
O358 C344 1.259 . S
O359 Eu337 2.670 . S
O359 C344 1.270 . S
O359 Eu347 2.355 . S
O360 Eu337 2.394 . S
O360 C345 1.251 . S
O361 C345 1.251 . S
O361 Eu347 2.374 . S
O362 C346 1.257 . S
O362 Eu347 2.473 . S
O363 C346 1.260 . S
O363 Eu347 2.480 . S
O364 Eu347 2.430 . S
O364 C354 1.259 . S
O365 Eu337 2.355 . S
O365 Eu347 2.670 . S
O365 C354 1.270 . S
O366 Eu347 2.394 . S
O366 C355 1.251 . S
O367 Eu337 2.374 . S
O367 C355 1.251 . S
H368 C339 0.931 . S
H369 C340 0.931 . S
H370 C342 0.931 . S
H371 C343 0.931 . S
H372 C349 0.931 . S
H373 C350 0.931 . S
H374 C352 0.931 . S
H375 C353 0.931 . S
C376 Eu377 2.835 . S
C376 C378 1.500 . S
C376 O396 1.257 . S
C376 O397 1.260 . S
Eu377 C376 2.835 . S
Eu377 O396 2.473 . S
Eu377 O397 2.480 . S
Eu377 O398 2.430 . S
Eu377 O399 2.670 . S
Eu377 O400 2.394 . S
Eu377 O405 2.355 . S
Eu377 O407 2.374 . S
C378 C376 1.500 . S
C378 C379 1.377 . S
C378 C383 1.377 . S
C379 C378 1.377 . S
C379 C380 1.395 . S
C379 H408 0.931 . S
C380 C379 1.395 . S
C380 C381 1.383 . S
C380 H409 0.931 . S
C381 C380 1.383 . S
C381 C382 1.394 . S
C382 C381 1.394 . S
C382 C383 1.378 . S
C382 H410 0.931 . S
C383 C378 1.377 . S
C383 C382 1.378 . S
C383 H411 0.931 . S
C384 O398 1.259 . S
C384 O399 1.270 . S
C385 O400 1.251 . S
C385 O401 1.251 . S
C386 Eu387 2.835 . S
C386 C388 1.500 . S
C386 O402 1.257 . S
C386 O403 1.260 . S
Eu387 C386 2.835 . S
Eu387 O399 2.355 . S
Eu387 O401 2.374 . S
Eu387 O402 2.473 . S
Eu387 O403 2.480 . S
Eu387 O404 2.430 . S
Eu387 O405 2.670 . S
Eu387 O406 2.394 . S
C388 C386 1.500 . S
C388 C389 1.377 . S
C388 C393 1.377 . S
C389 C388 1.377 . S
C389 C390 1.395 . S
C389 H412 0.931 . S
C390 C389 1.395 . S
C390 C391 1.383 . S
C390 H413 0.931 . S
C391 C390 1.383 . S
C391 C392 1.394 . S
C392 C391 1.394 . S
C392 C393 1.378 . S
C392 H414 0.931 . S
C393 C388 1.377 . S
C393 C392 1.378 . S
C393 H415 0.931 . S
C394 O404 1.259 . S
C394 O405 1.270 . S
C395 O406 1.251 . S
C395 O407 1.251 . S
O396 C376 1.257 . S
O396 Eu377 2.473 . S
O397 C376 1.260 . S
O397 Eu377 2.480 . S
O398 Eu377 2.430 . S
O398 C384 1.259 . S
O399 Eu377 2.670 . S
O399 C384 1.270 . S
O399 Eu387 2.355 . S
O400 Eu377 2.394 . S
O400 C385 1.251 . S
O401 C385 1.251 . S
O401 Eu387 2.374 . S
O402 C386 1.257 . S
O402 Eu387 2.473 . S
O403 C386 1.260 . S
O403 Eu387 2.480 . S
O404 Eu387 2.430 . S
O404 C394 1.259 . S
O405 Eu377 2.355 . S
O405 Eu387 2.670 . S
O405 C394 1.270 . S
O406 Eu387 2.394 . S
O406 C395 1.251 . S
O407 Eu377 2.374 . S
O407 C395 1.251 . S
H408 C379 0.931 . S
H409 C380 0.931 . S
H410 C382 0.931 . S
H411 C383 0.931 . S
H412 C389 0.931 . S
H413 C390 0.931 . S
H414 C392 0.931 . S
H415 C393 0.931 . S
C416 Eu417 2.835 . S
C416 C418 1.500 . S
C416 O436 1.257 . S
C416 O437 1.260 . S
Eu417 C416 2.835 . S
Eu417 O436 2.473 . S
Eu417 O437 2.480 . S
Eu417 O438 2.430 . S
Eu417 O439 2.670 . S
Eu417 O440 2.394 . S
Eu417 O445 2.355 . S
Eu417 O447 2.374 . S
C418 C416 1.500 . S
C418 C419 1.377 . S
C418 C423 1.377 . S
C419 C418 1.377 . S
C419 C420 1.395 . S
C419 H448 0.931 . S
C420 C419 1.395 . S
C420 C421 1.383 . S
C420 H449 0.931 . S
C421 C420 1.383 . S
C421 C422 1.394 . S
C422 C421 1.394 . S
C422 C423 1.378 . S
C422 H450 0.931 . S
C423 C418 1.377 . S
C423 C422 1.378 . S
C423 H451 0.931 . S
C424 O438 1.259 . S
C424 O439 1.270 . S
C425 O440 1.251 . S
C425 O441 1.251 . S
C426 Eu427 2.835 . S
C426 C428 1.500 . S
C426 O442 1.257 . S
C426 O443 1.260 . S
Eu427 C426 2.835 . S
Eu427 O439 2.355 . S
Eu427 O441 2.374 . S
Eu427 O442 2.473 . S
Eu427 O443 2.480 . S
Eu427 O444 2.430 . S
Eu427 O445 2.670 . S
Eu427 O446 2.394 . S
C428 C426 1.500 . S
C428 C429 1.377 . S
C428 C433 1.377 . S
C429 C428 1.377 . S
C429 C430 1.395 . S
C429 H452 0.931 . S
C430 C429 1.395 . S
C430 C431 1.383 . S
C430 H453 0.931 . S
C431 C430 1.383 . S
C431 C432 1.394 . S
C432 C431 1.394 . S
C432 C433 1.378 . S
C432 H454 0.931 . S
C433 C428 1.377 . S
C433 C432 1.378 . S
C433 H455 0.931 . S
C434 O444 1.259 . S
C434 O445 1.270 . S
C435 O446 1.251 . S
C435 O447 1.251 . S
O436 C416 1.257 . S
O436 Eu417 2.473 . S
O437 C416 1.260 . S
O437 Eu417 2.480 . S
O438 Eu417 2.430 . S
O438 C424 1.259 . S
O439 Eu417 2.670 . S
O439 C424 1.270 . S
O439 Eu427 2.355 . S
O440 Eu417 2.394 . S
O440 C425 1.251 . S
O441 C425 1.251 . S
O441 Eu427 2.374 . S
O442 C426 1.257 . S
O442 Eu427 2.473 . S
O443 C426 1.260 . S
O443 Eu427 2.480 . S
O444 Eu427 2.430 . S
O444 C434 1.259 . S
O445 Eu417 2.355 . S
O445 Eu427 2.670 . S
O445 C434 1.270 . S
O446 Eu427 2.394 . S
O446 C435 1.251 . S
O447 Eu417 2.374 . S
O447 C435 1.251 . S
H448 C419 0.931 . S
H449 C420 0.931 . S
H450 C422 0.931 . S
H451 C423 0.931 . S
H452 C429 0.931 . S
H453 C430 0.931 . S
H454 C432 0.931 . S
H455 C433 0.931 . S
C456 Eu457 2.835 . S
C456 C458 1.500 . S
C456 O476 1.257 . S
C456 O477 1.260 . S
Eu457 C456 2.835 . S
Eu457 O476 2.473 . S
Eu457 O477 2.480 . S
Eu457 O478 2.430 . S
Eu457 O479 2.670 . S
Eu457 O480 2.394 . S
Eu457 O485 2.355 . S
Eu457 O487 2.374 . S
C458 C456 1.500 . S
C458 C459 1.377 . S
C458 C463 1.377 . S
C459 C458 1.377 . S
C459 C460 1.395 . S
C459 H488 0.931 . S
C460 C459 1.395 . S
C460 C461 1.383 . S
C460 H489 0.931 . S
C461 C460 1.383 . S
C461 C462 1.394 . S
C462 C461 1.394 . S
C462 C463 1.378 . S
C462 H490 0.931 . S
C463 C458 1.377 . S
C463 C462 1.378 . S
C463 H491 0.931 . S
C464 O478 1.259 . S
C464 O479 1.270 . S
C465 O480 1.251 . S
C465 O481 1.251 . S
C466 Eu467 2.835 . S
C466 C468 1.500 . S
C466 O482 1.257 . S
C466 O483 1.260 . S
Eu467 C466 2.835 . S
Eu467 O479 2.355 . S
Eu467 O481 2.374 . S
Eu467 O482 2.473 . S
Eu467 O483 2.480 . S
Eu467 O484 2.430 . S
Eu467 O485 2.670 . S
Eu467 O486 2.394 . S
C468 C466 1.500 . S
C468 C469 1.377 . S
C468 C473 1.377 . S
C469 C468 1.377 . S
C469 C470 1.395 . S
C469 H492 0.931 . S
C470 C469 1.395 . S
C470 C471 1.383 . S
C470 H493 0.931 . S
C471 C470 1.383 . S
C471 C472 1.394 . S
C472 C471 1.394 . S
C472 C473 1.378 . S
C472 H494 0.931 . S
C473 C468 1.377 . S
C473 C472 1.378 . S
C473 H495 0.931 . S
C474 O484 1.259 . S
C474 O485 1.270 . S
C475 O486 1.251 . S
C475 O487 1.251 . S
O476 C456 1.257 . S
O476 Eu457 2.473 . S
O477 C456 1.260 . S
O477 Eu457 2.480 . S
O478 Eu457 2.430 . S
O478 C464 1.259 . S
O479 Eu457 2.670 . S
O479 C464 1.270 . S
O479 Eu467 2.355 . S
O480 Eu457 2.394 . S
O480 C465 1.251 . S
O481 C465 1.251 . S
O481 Eu467 2.374 . S
O482 C466 1.257 . S
O482 Eu467 2.473 . S
O483 C466 1.260 . S
O483 Eu467 2.480 . S
O484 Eu467 2.430 . S
O484 C474 1.259 . S
O485 Eu457 2.355 . S
O485 Eu467 2.670 . S
O485 C474 1.270 . S
O486 Eu467 2.394 . S
O486 C475 1.251 . S
O487 Eu457 2.374 . S
O487 C475 1.251 . S
H488 C459 0.931 . S
H489 C460 0.931 . S
H490 C462 0.931 . S
H491 C463 0.931 . S
H492 C469 0.931 . S
H493 C470 0.931 . S
H494 C472 0.931 . S
H495 C473 0.931 . S
C496 Eu497 2.835 . S
C496 C498 1.500 . S
C496 O516 1.257 . S
C496 O517 1.260 . S
Eu497 C496 2.835 . S
Eu497 O516 2.473 . S
Eu497 O517 2.480 . S
Eu497 O518 2.430 . S
Eu497 O519 2.670 . S
Eu497 O520 2.394 . S
Eu497 O525 2.355 . S
Eu497 O527 2.374 . S
C498 C496 1.500 . S
C498 C499 1.377 . S
C498 C503 1.377 . S
C499 C498 1.377 . S
C499 C500 1.395 . S
C499 H528 0.931 . S
C500 C499 1.395 . S
C500 C501 1.383 . S
C500 H529 0.931 . S
C501 C500 1.383 . S
C501 C502 1.394 . S
C502 C501 1.394 . S
C502 C503 1.378 . S
C502 H530 0.931 . S
C503 C498 1.377 . S
C503 C502 1.378 . S
C503 H531 0.931 . S
C504 O518 1.259 . S
C504 O519 1.270 . S
C505 O520 1.251 . S
C505 O521 1.251 . S
C506 Eu507 2.835 . S
C506 C508 1.500 . S
C506 O522 1.257 . S
C506 O523 1.260 . S
Eu507 C506 2.835 . S
Eu507 O519 2.355 . S
Eu507 O521 2.374 . S
Eu507 O522 2.473 . S
Eu507 O523 2.480 . S
Eu507 O524 2.430 . S
Eu507 O525 2.670 . S
Eu507 O526 2.394 . S
C508 C506 1.500 . S
C508 C509 1.377 . S
C508 C513 1.377 . S
C509 C508 1.377 . S
C509 C510 1.395 . S
C509 H532 0.931 . S
C510 C509 1.395 . S
C510 C511 1.383 . S
C510 H533 0.931 . S
C511 C510 1.383 . S
C511 C512 1.394 . S
C512 C511 1.394 . S
C512 C513 1.378 . S
C512 H534 0.931 . S
C513 C508 1.377 . S
C513 C512 1.378 . S
C513 H535 0.931 . S
C514 O524 1.259 . S
C514 O525 1.270 . S
C515 O526 1.251 . S
C515 O527 1.251 . S
O516 C496 1.257 . S
O516 Eu497 2.473 . S
O517 C496 1.260 . S
O517 Eu497 2.480 . S
O518 Eu497 2.430 . S
O518 C504 1.259 . S
O519 Eu497 2.670 . S
O519 C504 1.270 . S
O519 Eu507 2.355 . S
O520 Eu497 2.394 . S
O520 C505 1.251 . S
O521 C505 1.251 . S
O521 Eu507 2.374 . S
O522 C506 1.257 . S
O522 Eu507 2.473 . S
O523 C506 1.260 . S
O523 Eu507 2.480 . S
O524 Eu507 2.430 . S
O524 C514 1.259 . S
O525 Eu497 2.355 . S
O525 Eu507 2.670 . S
O525 C514 1.270 . S
O526 Eu507 2.394 . S
O526 C515 1.251 . S
O527 Eu497 2.374 . S
O527 C515 1.251 . S
H528 C499 0.931 . S
H529 C500 0.931 . S
H530 C502 0.931 . S
H531 C503 0.931 . S
H532 C509 0.931 . S
H533 C510 0.931 . S
H534 C512 0.931 . S
H535 C513 0.931 . S
C536 Eu537 2.835 . S
C536 C538 1.500 . S
C536 O556 1.257 . S
C536 O557 1.260 . S
Eu537 C536 2.835 . S
Eu537 O556 2.473 . S
Eu537 O557 2.480 . S
Eu537 O558 2.430 . S
Eu537 O559 2.670 . S
Eu537 O560 2.394 . S
Eu537 O565 2.355 . S
Eu537 O567 2.374 . S
C538 C536 1.500 . S
C538 C539 1.377 . S
C538 C543 1.377 . S
C539 C538 1.377 . S
C539 C540 1.395 . S
C539 H568 0.931 . S
C540 C539 1.395 . S
C540 C541 1.383 . S
C540 H569 0.931 . S
C541 C540 1.383 . S
C541 C542 1.394 . S
C542 C541 1.394 . S
C542 C543 1.378 . S
C542 H570 0.931 . S
C543 C538 1.377 . S
C543 C542 1.378 . S
C543 H571 0.931 . S
C544 O558 1.259 . S
C544 O559 1.270 . S
C545 O560 1.251 . S
C545 O561 1.251 . S
C546 Eu547 2.835 . S
C546 C548 1.500 . S
C546 O562 1.257 . S
C546 O563 1.260 . S
Eu547 C546 2.835 . S
Eu547 O559 2.355 . S
Eu547 O561 2.374 . S
Eu547 O562 2.473 . S
Eu547 O563 2.480 . S
Eu547 O564 2.430 . S
Eu547 O565 2.670 . S
Eu547 O566 2.394 . S
C548 C546 1.500 . S
C548 C549 1.377 . S
C548 C553 1.377 . S
C549 C548 1.377 . S
C549 C550 1.395 . S
C549 H572 0.931 . S
C550 C549 1.395 . S
C550 C551 1.383 . S
C550 H573 0.931 . S
C551 C550 1.383 . S
C551 C552 1.394 . S
C552 C551 1.394 . S
C552 C553 1.378 . S
C552 H574 0.931 . S
C553 C548 1.377 . S
C553 C552 1.378 . S
C553 H575 0.931 . S
C554 O564 1.259 . S
C554 O565 1.270 . S
C555 O566 1.251 . S
C555 O567 1.251 . S
O556 C536 1.257 . S
O556 Eu537 2.473 . S
O557 C536 1.260 . S
O557 Eu537 2.480 . S
O558 Eu537 2.430 . S
O558 C544 1.259 . S
O559 Eu537 2.670 . S
O559 C544 1.270 . S
O559 Eu547 2.355 . S
O560 Eu537 2.394 . S
O560 C545 1.251 . S
O561 C545 1.251 . S
O561 Eu547 2.374 . S
O562 C546 1.257 . S
O562 Eu547 2.473 . S
O563 C546 1.260 . S
O563 Eu547 2.480 . S
O564 Eu547 2.430 . S
O564 C554 1.259 . S
O565 Eu537 2.355 . S
O565 Eu547 2.670 . S
O565 C554 1.270 . S
O566 Eu547 2.394 . S
O566 C555 1.251 . S
O567 Eu537 2.374 . S
O567 C555 1.251 . S
H568 C539 0.931 . S
H569 C540 0.931 . S
H570 C542 0.931 . S
H571 C543 0.931 . S
H572 C549 0.931 . S
H573 C550 0.931 . S
H574 C552 0.931 . S
H575 C553 0.931 . S
H576 C584 0.929 . S
H577 C586 0.930 . S
H578 C588 0.930 . S
H579 C591 0.929 . S
H580 C594 0.930 . S
H581 C596 0.960 . S
H582 C596 0.960 . S
H583 C596 0.960 . S
C584 H576 0.929 . S
C584 C585 1.377 . S
C584 C586 1.384 . S
C585 C584 1.377 . S
C585 C591 1.390 . S
C586 H577 0.930 . S
C586 C584 1.384 . S
C586 C587 1.372 . S
C587 C586 1.372 . S
C587 C588 1.400 . S
C587 C592 1.490 . S
C588 H578 0.930 . S
C588 C587 1.400 . S
C588 C591 1.386 . S
H589 C605 0.930 . S
H590 C606 0.931 . S
C591 H579 0.929 . S
C591 C585 1.390 . S
C591 C588 1.386 . S
C592 C587 1.490 . S
C592 C594 1.395 . S
C592 C595 1.403 . S
H593 C599 0.930 . S
C594 H580 0.930 . S
C594 C592 1.395 . S
C594 C597 1.403 . S
C595 C592 1.403 . S
C595 C596 1.524 . S
C595 C599 1.400 . S
C596 H581 0.960 . S
C596 H582 0.960 . S
C596 H583 0.960 . S
C596 C595 1.524 . S
C597 C594 1.403 . S
C597 C598 1.392 . S
C597 C601 1.495 . S
C598 C597 1.392 . S
C598 C599 1.385 . S
C598 C600 1.478 . S
C599 H593 0.930 . S
C599 C595 1.400 . S
C599 C598 1.385 . S
C600 C598 1.478 . S
C600 C602 1.381 . S
C600 C606 1.383 . S
C601 C597 1.495 . S
C601 H607 0.959 . S
C601 H608 0.961 . S
C601 H609 0.960 . S
C602 C600 1.381 . S
C602 C603 1.394 . S
C602 H610 0.930 . S
C603 C602 1.394 . S
C603 C604 1.383 . S
C603 H611 0.929 . S
C604 C603 1.383 . S
C604 C605 1.377 . S
C605 H589 0.930 . S
C605 C604 1.377 . S
C605 C606 1.379 . S
C606 H590 0.931 . S
C606 C600 1.383 . S
C606 C605 1.379 . S
H607 C601 0.959 . S
H608 C601 0.961 . S
H609 C601 0.960 . S
H610 C602 0.930 . S
H611 C603 0.929 . S
H612 C620 0.929 . S
H613 C622 0.930 . S
H614 C624 0.930 . S
H615 C627 0.929 . S
H616 C630 0.930 . S
H617 C632 0.960 . S
H618 C632 0.960 . S
H619 C632 0.960 . S
C620 H612 0.929 . S
C620 C621 1.377 . S
C620 C622 1.384 . S
C621 C620 1.377 . S
C621 C627 1.390 . S
C622 H613 0.930 . S
C622 C620 1.384 . S
C622 C623 1.372 . S
C623 C622 1.372 . S
C623 C624 1.400 . S
C623 C628 1.490 . S
C624 H614 0.930 . S
C624 C623 1.400 . S
C624 C627 1.386 . S
H625 C641 0.930 . S
H626 C642 0.931 . S
C627 H615 0.929 . S
C627 C621 1.390 . S
C627 C624 1.386 . S
C628 C623 1.490 . S
C628 C630 1.395 . S
C628 C631 1.403 . S
H629 C635 0.930 . S
C630 H616 0.930 . S
C630 C628 1.395 . S
C630 C633 1.403 . S
C631 C628 1.403 . S
C631 C632 1.524 . S
C631 C635 1.400 . S
C632 H617 0.960 . S
C632 H618 0.960 . S
C632 H619 0.960 . S
C632 C631 1.524 . S
C633 C630 1.403 . S
C633 C634 1.392 . S
C633 C637 1.495 . S
C634 C633 1.392 . S
C634 C635 1.385 . S
C634 C636 1.478 . S
C635 H629 0.930 . S
C635 C631 1.400 . S
C635 C634 1.385 . S
C636 C634 1.478 . S
C636 C638 1.381 . S
C636 C642 1.383 . S
C637 C633 1.495 . S
C637 H643 0.959 . S
C637 H644 0.961 . S
C637 H645 0.960 . S
C638 C636 1.381 . S
C638 C639 1.394 . S
C638 H646 0.930 . S
C639 C638 1.394 . S
C639 C640 1.383 . S
C639 H647 0.929 . S
C640 C639 1.383 . S
C640 C641 1.377 . S
C641 H625 0.930 . S
C641 C640 1.377 . S
C641 C642 1.379 . S
C642 H626 0.931 . S
C642 C636 1.383 . S
C642 C641 1.379 . S
H643 C637 0.959 . S
H644 C637 0.961 . S
H645 C637 0.960 . S
H646 C638 0.930 . S
H647 C639 0.929 . S
H648 C656 0.929 . S
H649 C658 0.930 . S
H650 C660 0.930 . S
H651 C663 0.929 . S
H652 C666 0.930 . S
H653 C668 0.960 . S
H654 C668 0.960 . S
H655 C668 0.960 . S
C656 H648 0.929 . S
C656 C657 1.377 . S
C656 C658 1.384 . S
C657 C656 1.377 . S
C657 C663 1.390 . S
C658 H649 0.930 . S
C658 C656 1.384 . S
C658 C659 1.372 . S
C659 C658 1.372 . S
C659 C660 1.400 . S
C659 C664 1.490 . S
C660 H650 0.930 . S
C660 C659 1.400 . S
C660 C663 1.386 . S
H661 C677 0.930 . S
H662 C678 0.931 . S
C663 H651 0.929 . S
C663 C657 1.390 . S
C663 C660 1.386 . S
C664 C659 1.490 . S
C664 C666 1.395 . S
C664 C667 1.403 . S
H665 C671 0.930 . S
C666 H652 0.930 . S
C666 C664 1.395 . S
C666 C669 1.403 . S
C667 C664 1.403 . S
C667 C668 1.524 . S
C667 C671 1.400 . S
C668 H653 0.960 . S
C668 H654 0.960 . S
C668 H655 0.960 . S
C668 C667 1.524 . S
C669 C666 1.403 . S
C669 C670 1.392 . S
C669 C673 1.495 . S
C670 C669 1.392 . S
C670 C671 1.385 . S
C670 C672 1.478 . S
C671 H665 0.930 . S
C671 C667 1.400 . S
C671 C670 1.385 . S
C672 C670 1.478 . S
C672 C674 1.381 . S
C672 C678 1.383 . S
C673 C669 1.495 . S
C673 H679 0.959 1_554 S
C673 H680 0.961 . S
C673 H681 0.960 1_554 S
C674 C672 1.381 . S
C674 C675 1.394 . S
C674 H682 0.930 . S
C675 C674 1.394 . S
C675 C676 1.383 . S
C675 H683 0.929 . S
C676 C675 1.383 . S
C676 C677 1.377 . S
C677 H661 0.930 . S
C677 C676 1.377 . S
C677 C678 1.379 . S
C678 H662 0.931 . S
C678 C672 1.383 . S
C678 C677 1.379 . S
H679 C673 0.959 1_556 S
H680 C673 0.961 . S
H681 C673 0.960 1_556 S
H682 C674 0.930 . S
H683 C675 0.929 . S
H684 C692 0.929 . S
H685 C694 0.930 . S
H686 C696 0.930 . S
H687 C699 0.929 . S
H688 C702 0.930 . S
H689 C704 0.960 . S
H690 C704 0.960 . S
H691 C704 0.960 1_556 S
C692 H684 0.929 . S
C692 C693 1.377 . S
C692 C694 1.384 . S
C693 C692 1.377 . S
C693 C699 1.390 . S
C694 H685 0.930 . S
C694 C692 1.384 . S
C694 C695 1.372 . S
C695 C694 1.372 . S
C695 C696 1.400 . S
C695 C700 1.490 . S
C696 H686 0.930 . S
C696 C695 1.400 . S
C696 C699 1.386 . S
H697 C713 0.930 . S
H698 C714 0.931 . S
C699 H687 0.929 . S
C699 C693 1.390 . S
C699 C696 1.386 . S
C700 C695 1.490 . S
C700 C702 1.395 . S
C700 C703 1.403 . S
H701 C707 0.930 1_554 S
C702 H688 0.930 . S
C702 C700 1.395 . S
C702 C705 1.403 . S
C703 C700 1.403 . S
C703 C704 1.524 1_556 S
C703 C707 1.400 . S
C704 H689 0.960 . S
C704 H690 0.960 . S
C704 H691 0.960 1_554 S
C704 C703 1.524 1_554 S
C705 C702 1.403 . S
C705 C706 1.392 . S
C705 C709 1.495 . S
C706 C705 1.392 . S
C706 C707 1.385 . S
C706 C708 1.478 . S
C707 H701 0.930 1_556 S
C707 C703 1.400 . S
C707 C706 1.385 . S
C708 C706 1.478 . S
C708 C710 1.381 . S
C708 C714 1.383 . S
C709 C705 1.495 . S
C709 H715 0.959 . S
C709 H716 0.961 . S
C709 H717 0.960 . S
C710 C708 1.381 . S
C710 C711 1.394 1_556 S
C710 H718 0.930 . S
C711 C710 1.394 1_554 S
C711 C712 1.384 1_554 S
C711 H719 0.929 . S
C712 C711 1.384 1_556 S
C712 C713 1.376 . S
C713 H697 0.930 . S
C713 C712 1.376 . S
C713 C714 1.379 . S
C714 H698 0.931 . S
C714 C708 1.383 . S
C714 C713 1.379 . S
H715 C709 0.959 . S
H716 C709 0.961 . S
H717 C709 0.960 . S
H718 C710 0.930 . S
H719 C711 0.929 . S
H720 C728 0.929 . S
H721 C730 0.930 . S
H722 C732 0.930 . S
H723 C735 0.929 . S
H724 C738 0.930 . S
H725 C740 0.960 . S
H726 C740 0.960 . S
H727 C740 0.960 . S
C728 H720 0.929 . S
C728 C729 1.377 . S
C728 C730 1.384 . S
C729 C728 1.377 . S
C729 C735 1.390 . S
C730 H721 0.930 . S
C730 C728 1.384 . S
C730 C731 1.372 . S
C731 C730 1.372 . S
C731 C732 1.400 . S
C731 C736 1.490 . S
C732 H722 0.930 . S
C732 C731 1.400 . S
C732 C735 1.386 . S
H733 C749 0.930 . S
H734 C750 0.931 . S
C735 H723 0.929 . S
C735 C729 1.390 . S
C735 C732 1.386 . S
C736 C731 1.490 . S
C736 C738 1.395 . S
C736 C739 1.403 . S
H737 C743 0.930 . S
C738 H724 0.930 . S
C738 C736 1.395 . S
C738 C741 1.403 . S
C739 C736 1.403 . S
C739 C740 1.524 . S
C739 C743 1.400 . S
C740 H725 0.960 . S
C740 H726 0.960 . S
C740 H727 0.960 . S
C740 C739 1.524 . S
C741 C738 1.403 . S
C741 C742 1.392 . S
C741 C745 1.495 . S
C742 C741 1.392 . S
C742 C743 1.385 . S
C742 C744 1.478 . S
C743 H737 0.930 . S
C743 C739 1.400 . S
C743 C742 1.385 . S
C744 C742 1.478 . S
C744 C746 1.381 1_556 S
C744 C750 1.383 . S
C745 C741 1.495 . S
C745 H751 0.959 . S
C745 H752 0.961 . S
C745 H753 0.960 1_556 S
C746 C744 1.381 1_554 S
C746 C747 1.394 . S
C746 H754 0.930 . S
C747 C746 1.394 . S
C747 C748 1.383 1_554 S
C747 H755 0.929 . S
C748 C747 1.383 1_556 S
C748 C749 1.377 . S
C749 H733 0.930 . S
C749 C748 1.377 . S
C749 C750 1.379 . S
C750 H734 0.931 . S
C750 C744 1.383 . S
C750 C749 1.379 . S
H751 C745 0.959 . S
H752 C745 0.961 . S
H753 C745 0.960 1_554 S
H754 C746 0.930 . S
H755 C747 0.929 . S
H756 C764 0.929 . S
H757 C766 0.922 1_554 S
H758 C768 0.930 . S
H759 C771 0.929 . S
H760 C774 0.930 . S
H761 C776 0.960 . S
H762 C776 0.960 . S
H763 C776 0.960 . S
C764 H756 0.929 . S
C764 C765 1.377 . S
C764 C766 1.384 . S
C765 C764 1.377 . S
C765 C771 1.390 . S
C766 H757 0.922 1_556 S
C766 C764 1.384 . S
C766 C767 1.372 . S
C767 C766 1.372 . S
C767 C768 1.400 . S
C767 C772 1.490 . S
C768 H758 0.930 . S
C768 C767 1.400 . S
C768 C771 1.386 . S
H769 C785 0.930 . S
H770 C786 0.931 . S
C771 H759 0.929 . S
C771 C765 1.390 . S
C771 C768 1.386 . S
C772 C767 1.490 . S
C772 C774 1.395 1_556 S
C772 C775 1.403 . S
H773 C779 0.930 . S
C774 H760 0.930 . S
C774 C772 1.395 1_554 S
C774 C777 1.403 . S
C775 C772 1.403 . S
C775 C776 1.524 . S
C775 C779 1.400 . S
C776 H761 0.960 . S
C776 H762 0.960 . S
C776 H763 0.960 . S
C776 C775 1.524 . S
C777 C774 1.403 . S
C777 C778 1.357 1_554 S
C777 C781 1.495 . S
C778 C777 1.357 1_556 S
C778 C779 1.434 . S
C778 C780 1.467 1_556 S
C779 H773 0.930 . S
C779 C775 1.400 . S
C779 C778 1.434 . S
C780 C778 1.467 1_554 S
C780 C782 1.381 . S
C780 C786 1.383 1_554 S
C781 C777 1.495 . S
C781 H787 0.959 . S
C781 H788 0.961 . S
C781 H789 0.960 . S
C782 C780 1.381 . S
C782 C783 1.394 . S
C782 H790 0.930 . S
C783 C782 1.394 . S
C783 C784 1.383 . S
C783 H791 0.929 . S
C784 C783 1.383 . S
C784 C785 1.377 1_554 S
C785 H769 0.930 . S
C785 C784 1.377 1_556 S
C785 C786 1.379 . S
C786 H770 0.931 . S
C786 C780 1.383 1_556 S
C786 C785 1.379 . S
H787 C781 0.959 . S
H788 C781 0.961 . S
H789 C781 0.960 . S
H790 C782 0.930 . S
H791 C783 0.929 . S
H792 C800 0.929 . S
H793 C802 0.930 . S
H794 C804 0.930 . S
H795 C807 0.929 . S
H796 C810 0.930 . S
H797 C812 0.923 1_554 S
H798 C812 0.926 1_554 S
H799 C812 1.007 . S
C800 H792 0.929 . S
C800 C801 1.377 . S
C800 C802 1.384 . S
C801 C800 1.377 . S
C801 C807 1.390 . S
C802 H793 0.930 . S
C802 C800 1.384 . S
C802 C803 1.372 . S
C803 C802 1.372 . S
C803 C804 1.400 . S
C803 C808 1.490 . S
C804 H794 0.930 . S
C804 C803 1.400 . S
C804 C807 1.386 . S
H805 C821 0.930 . S
H806 C822 0.931 . S
C807 H795 0.929 . S
C807 C801 1.390 . S
C807 C804 1.386 . S
C808 C803 1.490 . S
C808 C810 1.395 . S
C808 C811 1.403 . S
H809 C815 0.979 . S
C810 H796 0.930 . S
C810 C808 1.395 . S
C810 C813 1.403 . S
C811 C808 1.403 . S
C811 C812 1.553 . S
C811 C815 1.400 . S
C812 H797 0.923 1_556 S
C812 H798 0.926 1_556 S
C812 H799 1.007 . S
C812 C811 1.553 . S
C813 C810 1.403 . S
C813 C814 1.392 . S
C813 C817 1.495 . S
C814 C813 1.392 . S
C814 C815 1.385 . S
C814 C816 1.478 . S
C815 H809 0.979 . S
C815 C811 1.400 . S
C815 C814 1.385 . S
C816 C814 1.478 . S
C816 C818 1.405 . S
C816 C822 1.383 . S
C817 C813 1.495 . S
C817 H823 0.959 . S
C817 H824 0.961 . S
C817 H825 0.960 . S
C818 C816 1.405 . S
C818 C819 1.381 1_556 S
C818 H826 0.921 1_556 S
C819 C818 1.381 1_554 S
C819 C820 1.383 1_554 S
C819 H827 0.929 . S
C820 C819 1.383 1_556 S
C820 C821 1.377 . S
C821 H805 0.930 . S
C821 C820 1.377 . S
C821 C822 1.379 . S
C822 H806 0.931 . S
C822 C816 1.383 . S
C822 C821 1.379 . S
H823 C817 0.959 . S
H824 C817 0.961 . S
H825 C817 0.960 . S
H826 C818 0.921 1_554 S
H827 C819 0.929 . S
H828 C836 0.929 . S
H829 C838 0.930 . S
H830 C840 0.930 . S
H831 C843 0.929 . S
H832 C846 0.930 . S
H833 C848 0.960 . S
H834 C848 0.960 . S
H835 C848 0.960 . S
C836 H828 0.929 . S
C836 C837 1.377 . S
C836 C838 1.384 . S
C837 C836 1.377 . S
C837 C843 1.390 . S
C838 H829 0.930 . S
C838 C836 1.384 . S
C838 C839 1.372 . S
C839 C838 1.372 . S
C839 C840 1.400 . S
C839 C844 1.490 . S
C840 H830 0.930 . S
C840 C839 1.400 . S
C840 C843 1.386 . S
H841 C857 0.930 . S
H842 C858 0.931 . S
C843 H831 0.929 . S
C843 C837 1.390 . S
C843 C840 1.386 . S
C844 C839 1.490 . S
C844 C846 1.395 . S
C844 C847 1.403 . S
H845 C851 0.930 . S
C846 H832 0.930 . S
C846 C844 1.395 . S
C846 C849 1.403 . S
C847 C844 1.403 . S
C847 C848 1.524 . S
C847 C851 1.400 . S
C848 H833 0.960 . S
C848 H834 0.960 . S
C848 H835 0.960 . S
C848 C847 1.524 . S
C849 C846 1.403 . S
C849 C850 1.392 . S
C849 C853 1.495 . S
C850 C849 1.392 . S
C850 C851 1.385 . S
C850 C852 1.478 . S
C851 H845 0.930 . S
C851 C847 1.400 . S
C851 C850 1.385 . S
C852 C850 1.478 . S
C852 C854 1.381 . S
C852 C858 1.383 . S
C853 C849 1.495 . S
C853 H859 0.959 . S
C853 H860 0.961 . S
C853 H861 0.960 . S
C854 C852 1.381 . S
C854 C855 1.404 . S
C854 H862 0.917 1_556 S
C855 C854 1.404 . S
C855 C856 1.405 . S
C855 H863 0.900 1_556 S
C856 C855 1.405 . S
C856 C857 1.377 . S
C857 H841 0.930 . S
C857 C856 1.377 . S
C857 C858 1.379 . S
C858 H842 0.931 . S
C858 C852 1.383 . S
C858 C857 1.379 . S
H859 C853 0.959 . S
H860 C853 0.961 . S
H861 C853 0.960 . S
H862 C854 0.917 1_554 S
H863 C855 0.900 1_554 S
H864 C872 0.929 . S
H865 C874 0.930 . S
H866 C876 0.930 . S
H867 C879 0.929 . S
H868 C882 0.936 . S
H869 C884 0.966 . S
H870 C884 0.960 1_554 S
H871 C884 0.960 . S
C872 H864 0.929 . S
C872 C873 1.377 1_554 S
C872 C874 1.384 . S
C873 C872 1.377 1_556 S
C873 C879 1.390 . S
C874 H865 0.930 . S
C874 C872 1.384 . S
C874 C875 1.372 1_554 S
C875 C874 1.372 1_556 S
C875 C876 1.400 . S
C875 C880 1.490 . S
C876 H866 0.930 . S
C876 C875 1.400 . S
C876 C879 1.386 . S
H877 C893 0.930 . S
H878 C894 0.931 . S
C879 H867 0.929 . S
C879 C873 1.390 . S
C879 C876 1.386 . S
C880 C875 1.490 . S
C880 C882 1.394 . S
C880 C883 1.403 . S
H881 C887 0.933 . S
C882 H868 0.936 . S
C882 C880 1.394 . S
C882 C885 1.404 1_556 S
C883 C880 1.403 . S
C883 C884 1.524 . S
C883 C887 1.400 1_556 S
C884 H869 0.966 . S
C884 H870 0.960 1_556 S
C884 H871 0.960 . S
C884 C883 1.524 . S
C885 C882 1.404 1_554 S
C885 C886 1.392 . S
C885 C889 1.495 . S
C886 C885 1.392 . S
C886 C887 1.384 . S
C886 C888 1.478 . S
C887 H881 0.933 . S
C887 C883 1.400 1_554 S
C887 C886 1.384 . S
C888 C886 1.478 . S
C888 C890 1.381 . S
C888 C894 1.383 1_554 S
C889 C885 1.495 . S
C889 H895 0.959 . S
C889 H896 0.961 1_554 S
C889 H897 0.960 . S
C890 C888 1.381 . S
C890 C891 1.394 . S
C890 H898 0.930 . S
C891 C890 1.394 . S
C891 C892 1.383 . S
C891 H899 0.929 . S
C892 C891 1.383 . S
C892 C893 1.377 1_554 S
C893 H877 0.930 . S
C893 C892 1.377 1_556 S
C893 C894 1.379 . S
C894 H878 0.931 . S
C894 C888 1.383 1_556 S
C894 C893 1.379 . S
H895 C889 0.959 . S
H896 C889 0.961 1_556 S
H897 C889 0.960 . S
H898 C890 0.930 . S
H899 C891 0.929 . S
H900 C908 0.929 . S
H901 C910 0.930 . S
H902 C912 0.930 . S
H903 C915 0.929 . S
H904 C918 0.930 . S
H905 C920 0.960 1_556 S
H906 C920 0.960 . S
H907 C920 0.960 . S
C908 H900 0.929 . S
C908 C909 1.377 . S
C908 C910 1.384 . S
C909 C908 1.377 . S
C909 C915 1.390 . S
C910 H901 0.930 . S
C910 C908 1.384 . S
C910 C911 1.372 . S
C911 C910 1.372 . S
C911 C912 1.400 . S
C911 C916 1.490 . S
C912 H902 0.930 . S
C912 C911 1.400 . S
C912 C915 1.386 . S
H913 C929 0.930 . S
H914 C930 0.931 . S
C915 H903 0.929 . S
C915 C909 1.390 . S
C915 C912 1.386 . S
C916 C911 1.490 . S
C916 C918 1.395 . S
C916 C919 1.403 . S
H917 C923 0.930 . S
C918 H904 0.930 . S
C918 C916 1.395 . S
C918 C921 1.403 . S
C919 C916 1.403 . S
C919 C920 1.524 . S
C919 C923 1.400 . S
C920 H905 0.960 1_554 S
C920 H906 0.960 . S
C920 H907 0.960 . S
C920 C919 1.524 . S
C921 C918 1.403 . S
C921 C922 1.392 . S
C921 C925 1.495 . S
C922 C921 1.392 . S
C922 C923 1.385 . S
C922 C924 1.478 . S
C923 H917 0.930 . S
C923 C919 1.400 . S
C923 C922 1.385 . S
C924 C922 1.478 . S
C924 C926 1.381 . S
C924 C930 1.383 . S
C925 C921 1.495 . S
C925 H931 0.959 . S
C925 H932 0.961 . S
C925 H933 0.960 . S
C926 C924 1.381 . S
C926 C927 1.394 . S
C926 H934 0.930 . S
C927 C926 1.394 . S
C927 C928 1.383 . S
C927 H935 0.929 . S
C928 C927 1.383 . S
C928 C929 1.377 . S
C929 H913 0.930 . S
C929 C928 1.377 . S
C929 C930 1.379 . S
C930 H914 0.931 . S
C930 C924 1.383 . S
C930 C929 1.379 . S
H931 C925 0.959 . S
H932 C925 0.961 . S
H933 C925 0.960 . S
H934 C926 0.930 . S
H935 C927 0.929 . S
H936 C944 0.929 . S
H937 C946 0.930 . S
H938 C948 0.930 . S
H939 C951 0.929 . S
H940 C954 0.930 . S
H941 C956 0.960 . S
H942 C956 0.960 . S
H943 C956 0.960 . S
C944 H936 0.929 . S
C944 C945 1.377 . S
C944 C946 1.384 . S
C945 C944 1.377 . S
C945 C951 1.390 . S
C946 H937 0.930 . S
C946 C944 1.384 . S
C946 C947 1.372 . S
C947 C946 1.372 . S
C947 C948 1.400 . S
C947 C952 1.490 . S
C948 H938 0.930 . S
C948 C947 1.400 . S
C948 C951 1.386 . S
H949 C965 0.930 . S
H950 C966 0.931 . S
C951 H939 0.929 . S
C951 C945 1.390 . S
C951 C948 1.386 . S
C952 C947 1.490 . S
C952 C954 1.395 . S
C952 C955 1.403 . S
H953 C959 0.930 . S
C954 H940 0.930 . S
C954 C952 1.395 . S
C954 C957 1.403 . S
C955 C952 1.403 . S
C955 C956 1.524 . S
C955 C959 1.400 . S
C956 H941 0.960 . S
C956 H942 0.960 . S
C956 H943 0.960 . S
C956 C955 1.524 . S
C957 C954 1.403 . S
C957 C958 1.392 . S
C957 C961 1.495 . S
C958 C957 1.392 . S
C958 C959 1.385 . S
C958 C960 1.478 . S
C959 H953 0.930 . S
C959 C955 1.400 . S
C959 C958 1.385 . S
C960 C958 1.478 . S
C960 C962 1.381 . S
C960 C966 1.383 . S
C961 C957 1.495 . S
C961 H967 0.959 . S
C961 H968 0.961 . S
C961 H969 0.960 . S
C962 C960 1.381 . S
C962 C963 1.394 . S
C962 H970 0.930 . S
C963 C962 1.394 . S
C963 C964 1.383 . S
C963 H971 0.929 . S
C964 C963 1.383 . S
C964 C965 1.377 . S
C965 H949 0.930 . S
C965 C964 1.377 . S
C965 C966 1.379 . S
C966 H950 0.931 . S
C966 C960 1.383 . S
C966 C965 1.379 . S
H967 C961 0.959 . S
H968 C961 0.961 . S
H969 C961 0.960 . S
H970 C962 0.930 . S
H971 C963 0.929 . S
H972 C980 0.929 . S
H973 C982 0.930 . S
H974 C984 0.930 . S
H975 C987 0.929 . S
H976 C990 0.930 . S
H977 C992 0.960 . S
H978 C992 0.960 . S
H979 C992 0.960 . S
C980 H972 0.929 . S
C980 C981 1.377 . S
C980 C982 1.384 . S
C981 C980 1.377 . S
C981 C987 1.390 . S
C982 H973 0.930 . S
C982 C980 1.384 . S
C982 C983 1.372 . S
C983 C982 1.372 . S
C983 C984 1.400 . S
C983 C988 1.490 . S
C984 H974 0.930 . S
C984 C983 1.400 . S
C984 C987 1.386 . S
H985 C1001 0.930 . S
H986 C1002 0.931 . S
C987 H975 0.929 . S
C987 C981 1.390 . S
C987 C984 1.386 . S
C988 C983 1.490 . S
C988 C990 1.395 . S
C988 C991 1.403 . S
H989 C995 0.930 . S
C990 H976 0.930 . S
C990 C988 1.395 . S
C990 C993 1.403 . S
C991 C988 1.403 . S
C991 C992 1.524 . S
C991 C995 1.400 . S
C992 H977 0.960 . S
C992 H978 0.960 . S
C992 H979 0.960 . S
C992 C991 1.524 . S
C993 C990 1.403 . S
C993 C994 1.392 . S
C993 C997 1.495 1_554 S
C994 C993 1.392 . S
C994 C995 1.385 . S
C994 C996 1.478 . S
C995 H989 0.930 . S
C995 C991 1.400 . S
C995 C994 1.385 . S
C996 C994 1.478 . S
C996 C998 1.381 . S
C996 C1002 1.383 . S
C997 C993 1.495 1_556 S
C997 H1003 0.959 . S
C997 H1004 0.961 . S
C997 H1005 0.960 . S
C998 C996 1.381 . S
C998 C999 1.394 . S
C998 H1006 0.930 . S
C999 C998 1.394 . S
C999 C1000 1.383 . S
C999 H1007 0.929 . S
C1000 C999 1.383 . S
C1000 C1001 1.377 . S
C1001 H985 0.930 . S
C1001 C1000 1.377 . S
C1001 C1002 1.379 . S
C1002 H986 0.931 . S
C1002 C996 1.383 . S
C1002 C1001 1.379 . S
H1003 C997 0.959 . S
H1004 C997 0.961 . S
H1005 C997 0.960 . S
H1006 C998 0.930 . S
H1007 C999 0.929 . S
H1008 C1016 0.929 . S
H1009 C1018 0.930 . S
H1010 C1020 0.930 . S
H1011 C1023 0.929 . S
H1012 C1026 0.930 . S
H1013 C1028 0.960 . S
H1014 C1028 0.960 . S
H1015 C1028 0.960 . S
C1016 H1008 0.929 . S
C1016 C1017 1.377 . S
C1016 C1018 1.384 . S
C1017 C1016 1.377 . S
C1017 C1023 1.390 . S
C1018 H1009 0.930 . S
C1018 C1016 1.384 . S
C1018 C1019 1.372 . S
C1019 C1018 1.372 . S
C1019 C1020 1.400 . S
C1019 C1024 1.490 . S
C1020 H1010 0.930 . S
C1020 C1019 1.400 . S
C1020 C1023 1.386 . S
H1021 C1037 0.930 . S
H1022 C1038 0.931 . S
C1023 H1011 0.929 . S
C1023 C1017 1.390 . S
C1023 C1020 1.386 . S
C1024 C1019 1.490 . S
C1024 C1026 1.395 . S
C1024 C1027 1.403 . S
H1025 C1031 0.930 . S
C1026 H1012 0.930 . S
C1026 C1024 1.395 . S
C1026 C1029 1.381 1_655 S
C1027 C1024 1.403 . S
C1027 C1028 1.524 . S
C1027 C1031 1.400 1_655 S
C1028 H1013 0.960 . S
C1028 H1014 0.960 . S
C1028 H1015 0.960 . S
C1028 C1027 1.524 . S
C1029 C1026 1.381 1_455 S
C1029 C1030 1.427 . S
C1029 C1033 1.484 . S
C1030 C1029 1.427 . S
C1030 C1031 1.385 . S
C1030 C1032 1.478 . S
C1031 H1025 0.930 . S
C1031 C1027 1.400 1_455 S
C1031 C1030 1.385 . S
C1032 C1030 1.478 . S
C1032 C1034 1.381 . S
C1032 C1038 1.383 . S
C1033 C1029 1.484 . S
C1033 H1039 0.959 1_455 S
C1033 H1040 0.961 . S
C1033 H1041 0.960 . S
C1034 C1032 1.381 . S
C1034 C1035 1.394 . S
C1034 H1042 0.930 . S
C1035 C1034 1.394 . S
C1035 C1036 1.383 . S
C1035 H1043 0.929 . S
C1036 C1035 1.383 . S
C1036 C1037 1.377 . S
C1037 H1021 0.930 . S
C1037 C1036 1.377 . S
C1037 C1038 1.379 . S
C1038 H1022 0.931 . S
C1038 C1032 1.383 . S
C1038 C1037 1.379 . S
H1039 C1033 0.959 1_655 S
H1040 C1033 0.961 . S
H1041 C1033 0.960 . S
H1042 C1034 0.930 . S
H1043 C1035 0.929 . S
H1044 C1052 0.929 . S
H1045 C1054 0.930 . S
H1046 C1056 0.930 . S
H1047 C1059 0.929 . S
H1048 C1062 0.930 . S
H1049 C1064 0.960 . S
H1050 C1064 0.960 . S
H1051 C1064 0.960 . S
C1052 H1044 0.929 . S
C1052 C1053 1.377 . S
C1052 C1054 1.384 . S
C1053 C1052 1.377 . S
C1053 C1059 1.390 . S
C1054 H1045 0.930 . S
C1054 C1052 1.384 . S
C1054 C1055 1.372 . S
C1055 C1054 1.372 . S
C1055 C1056 1.400 . S
C1055 C1060 1.490 . S
C1056 H1046 0.930 . S
C1056 C1055 1.400 . S
C1056 C1059 1.386 . S
H1057 C1073 0.930 . S
H1058 C1074 0.931 . S
C1059 H1047 0.929 . S
C1059 C1053 1.390 . S
C1059 C1056 1.386 . S
C1060 C1055 1.490 . S
C1060 C1062 1.395 . S
C1060 C1063 1.403 . S
H1061 C1067 0.930 . S
C1062 H1048 0.930 . S
C1062 C1060 1.395 . S
C1062 C1065 1.403 . S
C1063 C1060 1.403 . S
C1063 C1064 1.524 . S
C1063 C1067 1.400 . S
C1064 H1049 0.960 . S
C1064 H1050 0.960 . S
C1064 H1051 0.960 . S
C1064 C1063 1.524 . S
C1065 C1062 1.403 . S
C1065 C1066 1.392 . S
C1065 C1069 1.495 . S
C1066 C1065 1.392 . S
C1066 C1067 1.385 . S
C1066 C1068 1.478 . S
C1067 H1061 0.930 . S
C1067 C1063 1.400 . S
C1067 C1066 1.385 . S
C1068 C1066 1.478 . S
C1068 C1070 1.381 . S
C1068 C1074 1.383 . S
C1069 C1065 1.495 . S
C1069 H1075 0.959 . S
C1069 H1076 0.961 . S
C1069 H1077 0.960 . S
C1070 C1068 1.381 . S
C1070 C1071 1.394 . S
C1070 H1078 0.930 . S
C1071 C1070 1.394 . S
C1071 C1072 1.383 . S
C1071 H1079 0.929 . S
C1072 C1071 1.383 . S
C1072 C1073 1.377 . S
C1073 H1057 0.930 . S
C1073 C1072 1.377 . S
C1073 C1074 1.379 . S
C1074 H1058 0.931 . S
C1074 C1068 1.383 . S
C1074 C1073 1.379 . S
H1075 C1069 0.959 . S
H1076 C1069 0.961 . S
H1077 C1069 0.960 . S
H1078 C1070 0.930 . S
H1079 C1071 0.929 . S
H1080 C1088 0.929 . S
H1081 C1090 0.930 . S
H1082 C1092 0.930 . S
H1083 C1095 0.929 . S
H1084 C1098 0.930 . S
H1085 C1100 0.960 . S
H1086 C1100 0.960 . S
H1087 C1100 0.960 . S
C1088 H1080 0.929 . S
C1088 C1089 1.377 . S
C1088 C1090 1.384 . S
C1089 C1088 1.377 . S
C1089 C1095 1.390 . S
C1090 H1081 0.930 . S
C1090 C1088 1.384 . S
C1090 C1091 1.372 . S
C1091 C1090 1.372 . S
C1091 C1092 1.400 . S
C1091 C1096 1.490 . S
C1092 H1082 0.930 . S
C1092 C1091 1.400 . S
C1092 C1095 1.386 . S
H1093 C1109 0.930 . S
H1094 C1110 0.931 . S
C1095 H1083 0.929 . S
C1095 C1089 1.390 . S
C1095 C1092 1.386 . S
C1096 C1091 1.490 . S
C1096 C1098 1.395 . S
C1096 C1099 1.403 . S
H1097 C1103 0.930 . S
C1098 H1084 0.930 . S
C1098 C1096 1.395 . S
C1098 C1101 1.403 . S
C1099 C1096 1.403 . S
C1099 C1100 1.524 . S
C1099 C1103 1.400 . S
C1100 H1085 0.960 . S
C1100 H1086 0.960 . S
C1100 H1087 0.960 . S
C1100 C1099 1.524 . S
C1101 C1098 1.403 . S
C1101 C1102 1.392 1_545 S
C1101 C1105 1.495 1_545 S
C1102 C1101 1.392 1_565 S
C1102 C1103 1.385 1_565 S
C1102 C1104 1.478 . S
C1103 H1097 0.930 . S
C1103 C1099 1.400 . S
C1103 C1102 1.385 1_545 S
C1104 C1102 1.478 . S
C1104 C1106 1.381 . S
C1104 C1110 1.383 . S
C1105 C1101 1.495 1_565 S
C1105 H1111 0.959 . S
C1105 H1112 0.961 . S
C1105 H1113 0.960 . S
C1106 C1104 1.381 . S
C1106 C1107 1.394 . S
C1106 H1114 0.930 . S
C1107 C1106 1.394 . S
C1107 C1108 1.383 . S
C1107 H1115 0.929 . S
C1108 C1107 1.383 . S
C1108 C1109 1.377 . S
C1109 H1093 0.930 . S
C1109 C1108 1.377 . S
C1109 C1110 1.379 . S
C1110 H1094 0.931 . S
C1110 C1104 1.383 . S
C1110 C1109 1.379 . S
H1111 C1105 0.959 . S
H1112 C1105 0.961 . S
H1113 C1105 0.960 . S
H1114 C1106 0.930 . S
H1115 C1107 0.929 . S
H1116 C1124 0.929 . S
H1117 C1126 0.930 . S
H1118 C1128 0.930 . S
H1119 C1131 0.929 . S
H1120 C1134 0.930 . S
H1121 C1136 0.960 . S
H1122 C1136 0.960 . S
H1123 C1136 0.960 . S
C1124 H1116 0.929 . S
C1124 C1125 1.377 . S
C1124 C1126 1.384 . S
C1125 C1124 1.377 . S
C1125 C1131 1.390 . S
C1126 H1117 0.930 . S
C1126 C1124 1.384 . S
C1126 C1127 1.372 . S
C1127 C1126 1.372 . S
C1127 C1128 1.400 . S
C1127 C1132 1.490 . S
C1128 H1118 0.930 . S
C1128 C1127 1.400 . S
C1128 C1131 1.386 . S
H1129 C1145 0.930 . S
H1130 C1146 0.931 . S
C1131 H1119 0.929 . S
C1131 C1125 1.390 . S
C1131 C1128 1.386 . S
C1132 C1127 1.490 . S
C1132 C1134 1.395 . S
C1132 C1135 1.403 . S
H1133 C1139 0.930 . S
C1134 H1120 0.930 . S
C1134 C1132 1.395 . S
C1134 C1137 1.403 . S
C1135 C1132 1.403 . S
C1135 C1136 1.524 . S
C1135 C1139 1.400 . S
C1136 H1121 0.960 . S
C1136 H1122 0.960 . S
C1136 H1123 0.960 . S
C1136 C1135 1.524 . S
C1137 C1134 1.403 . S
C1137 C1138 1.392 . S
C1137 C1141 1.495 . S
C1138 C1137 1.392 . S
C1138 C1139 1.385 . S
C1138 C1140 1.478 . S
C1139 H1133 0.930 . S
C1139 C1135 1.400 . S
C1139 C1138 1.385 . S
C1140 C1138 1.478 . S
C1140 C1142 1.381 . S
C1140 C1146 1.383 . S
C1141 C1137 1.495 . S
C1141 H1147 0.959 . S
C1141 H1148 0.961 . S
C1141 H1149 0.960 . S
C1142 C1140 1.381 . S
C1142 C1143 1.394 . S
C1142 H1150 0.930 . S
C1143 C1142 1.394 . S
C1143 C1144 1.383 . S
C1143 H1151 0.929 . S
C1144 C1143 1.383 . S
C1144 C1145 1.377 . S
C1145 H1129 0.930 . S
C1145 C1144 1.377 . S
C1145 C1146 1.379 . S
C1146 H1130 0.931 . S
C1146 C1140 1.383 . S
C1146 C1145 1.379 . S
H1147 C1141 0.959 . S
H1148 C1141 0.961 . S
H1149 C1141 0.960 . S
H1150 C1142 0.930 . S
H1151 C1143 0.929 . S
H1152 C1160 0.929 . S
H1153 C1162 0.930 . S
H1154 C1164 0.930 . S
H1155 C1167 0.929 . S
H1156 C1170 0.930 . S
H1157 C1172 0.960 . S
H1158 C1172 0.960 . S
H1159 C1172 0.960 . S
C1160 H1152 0.929 . S
C1160 C1161 1.377 . S
C1160 C1162 1.384 . S
C1161 C1160 1.377 . S
C1161 C1167 1.390 . S
C1162 H1153 0.930 . S
C1162 C1160 1.384 . S
C1162 C1163 1.372 . S
C1163 C1162 1.372 . S
C1163 C1164 1.400 . S
C1163 C1168 1.490 . S
C1164 H1154 0.930 . S
C1164 C1163 1.400 . S
C1164 C1167 1.386 . S
H1165 C1181 0.930 . S
H1166 C1182 0.931 . S
C1167 H1155 0.929 . S
C1167 C1161 1.390 . S
C1167 C1164 1.386 . S
C1168 C1163 1.490 . S
C1168 C1170 1.395 . S
C1168 C1171 1.403 . S
H1169 C1175 0.930 . S
C1170 H1156 0.930 . S
C1170 C1168 1.395 . S
C1170 C1173 1.403 . S
C1171 C1168 1.403 . S
C1171 C1172 1.524 . S
C1171 C1175 1.400 . S
C1172 H1157 0.960 . S
C1172 H1158 0.960 . S
C1172 H1159 0.960 . S
C1172 C1171 1.524 . S
C1173 C1170 1.403 . S
C1173 C1174 1.392 . S
C1173 C1177 1.495 . S
C1174 C1173 1.392 . S
C1174 C1175 1.385 . S
C1174 C1176 1.478 . S
C1175 H1169 0.930 . S
C1175 C1171 1.400 . S
C1175 C1174 1.385 . S
C1176 C1174 1.478 . S
C1176 C1178 1.381 . S
C1176 C1182 1.383 . S
C1177 C1173 1.495 . S
C1177 H1183 0.959 . S
C1177 H1184 0.961 . S
C1177 H1185 0.960 . S
C1178 C1176 1.381 . S
C1178 C1179 1.394 . S
C1178 H1186 0.930 . S
C1179 C1178 1.394 . S
C1179 C1180 1.383 . S
C1179 H1187 0.929 . S
C1180 C1179 1.383 . S
C1180 C1181 1.377 . S
C1181 H1165 0.930 . S
C1181 C1180 1.377 . S
C1181 C1182 1.379 . S
C1182 H1166 0.931 . S
C1182 C1176 1.383 . S
C1182 C1181 1.379 . S
H1183 C1177 0.959 . S
H1184 C1177 0.961 . S
H1185 C1177 0.960 . S
H1186 C1178 0.930 . S
H1187 C1179 0.929 . S
H1188 C1196 0.929 . S
H1189 C1198 0.930 . S
H1190 C1200 0.930 . S
H1191 C1203 0.929 . S
H1192 C1206 0.930 . S
H1193 C1208 0.960 . S
H1194 C1208 0.960 . S
H1195 C1208 0.960 . S
C1196 H1188 0.929 . S
C1196 C1197 1.377 . S
C1196 C1198 1.384 . S
C1197 C1196 1.377 . S
C1197 C1203 1.390 . S
C1198 H1189 0.930 . S
C1198 C1196 1.384 . S
C1198 C1199 1.372 . S
C1199 C1198 1.372 . S
C1199 C1200 1.400 . S
C1199 C1204 1.490 . S
C1200 H1190 0.930 . S
C1200 C1199 1.400 . S
C1200 C1203 1.386 . S
H1201 C1217 0.930 . S
H1202 C1218 0.931 . S
C1203 H1191 0.929 . S
C1203 C1197 1.390 . S
C1203 C1200 1.386 . S
C1204 C1199 1.490 . S
C1204 C1206 1.395 . S
C1204 C1207 1.403 . S
H1205 C1211 0.930 . S
C1206 H1192 0.930 . S
C1206 C1204 1.395 . S
C1206 C1209 1.403 . S
C1207 C1204 1.403 . S
C1207 C1208 1.524 . S
C1207 C1211 1.400 . S
C1208 H1193 0.960 . S
C1208 H1194 0.960 . S
C1208 H1195 0.960 . S
C1208 C1207 1.524 . S
C1209 C1206 1.403 . S
C1209 C1210 1.392 . S
C1209 C1213 1.495 . S
C1210 C1209 1.392 . S
C1210 C1211 1.385 . S
C1210 C1212 1.478 . S
C1211 H1205 0.930 . S
C1211 C1207 1.400 . S
C1211 C1210 1.385 . S
C1212 C1210 1.478 . S
C1212 C1214 1.381 . S
C1212 C1218 1.383 . S
C1213 C1209 1.495 . S
C1213 H1219 0.959 . S
C1213 H1220 0.961 . S
C1213 H1221 0.960 . S
C1214 C1212 1.381 . S
C1214 C1215 1.394 . S
C1214 H1222 0.930 . S
C1215 C1214 1.394 . S
C1215 C1216 1.383 . S
C1215 H1223 0.929 . S
C1216 C1215 1.383 . S
C1216 C1217 1.377 . S
C1217 H1201 0.930 . S
C1217 C1216 1.377 . S
C1217 C1218 1.379 . S
C1218 H1202 0.931 . S
C1218 C1212 1.383 . S
C1218 C1217 1.379 . S
H1219 C1213 0.959 . S
H1220 C1213 0.961 . S
H1221 C1213 0.960 . S
H1222 C1214 0.930 . S
H1223 C1215 0.929 . S
H1224 C1232 0.929 . S
H1225 C1234 0.930 . S
H1226 C1236 0.930 . S
H1227 C1239 0.929 . S
H1228 C1242 0.930 . S
H1229 C1244 0.960 . S
H1230 C1244 0.960 . S
H1231 C1244 0.960 . S
C1232 H1224 0.929 . S
C1232 C1233 1.377 . S
C1232 C1234 1.384 . S
C1233 C1232 1.377 . S
C1233 C1239 1.390 . S
C1234 H1225 0.930 . S
C1234 C1232 1.384 . S
C1234 C1235 1.372 . S
C1235 C1234 1.372 . S
C1235 C1236 1.400 . S
C1235 C1240 1.490 . S
C1236 H1226 0.930 . S
C1236 C1235 1.400 . S
C1236 C1239 1.386 . S
H1237 C1253 0.930 . S
H1238 C1254 0.931 . S
C1239 H1227 0.929 . S
C1239 C1233 1.390 . S
C1239 C1236 1.386 . S
C1240 C1235 1.490 . S
C1240 C1242 1.395 . S
C1240 C1243 1.403 . S
H1241 C1247 0.930 . S
C1242 H1228 0.930 . S
C1242 C1240 1.395 . S
C1242 C1245 1.403 . S
C1243 C1240 1.403 . S
C1243 C1244 1.524 . S
C1243 C1247 1.400 . S
C1244 H1229 0.960 . S
C1244 H1230 0.960 . S
C1244 H1231 0.960 . S
C1244 C1243 1.524 . S
C1245 C1242 1.403 . S
C1245 C1246 1.392 . S
C1245 C1249 1.495 . S
C1246 C1245 1.392 . S
C1246 C1247 1.385 . S
C1246 C1248 1.478 . S
C1247 H1241 0.930 . S
C1247 C1243 1.400 . S
C1247 C1246 1.385 . S
C1248 C1246 1.478 . S
C1248 C1250 1.381 . S
C1248 C1254 1.383 . S
C1249 C1245 1.495 . S
C1249 H1255 0.959 . S
C1249 H1256 0.961 . S
C1249 H1257 0.960 . S
C1250 C1248 1.381 . S
C1250 C1251 1.394 . S
C1250 H1258 0.930 . S
C1251 C1250 1.394 . S
C1251 C1252 1.383 . S
C1251 H1259 0.929 . S
C1252 C1251 1.383 . S
C1252 C1253 1.377 . S
C1253 H1237 0.930 . S
C1253 C1252 1.377 . S
C1253 C1254 1.379 . S
C1254 H1238 0.931 . S
C1254 C1248 1.383 . S
C1254 C1253 1.379 . S
H1255 C1249 0.959 . S
H1256 C1249 0.961 . S
H1257 C1249 0.960 . S
H1258 C1250 0.930 . S
H1259 C1251 0.929 . S
H1260 C1268 0.929 . S
H1261 C1270 0.930 . S
H1262 C1272 0.930 . S
H1263 C1275 0.929 . S
H1264 C1278 0.930 . S
H1265 C1280 0.960 . S
H1266 C1280 0.960 . S
H1267 C1280 0.960 . S
C1268 H1260 0.929 . S
C1268 C1269 1.377 . S
C1268 C1270 1.384 . S
C1269 C1268 1.377 . S
C1269 C1275 1.390 . S
C1270 H1261 0.930 . S
C1270 C1268 1.384 . S
C1270 C1271 1.372 . S
C1271 C1270 1.372 . S
C1271 C1272 1.400 . S
C1271 C1276 1.490 . S
C1272 H1262 0.930 . S
C1272 C1271 1.400 . S
C1272 C1275 1.386 . S
H1273 C1289 0.930 . S
H1274 C1290 0.931 . S
C1275 H1263 0.929 . S
C1275 C1269 1.390 . S
C1275 C1272 1.386 . S
C1276 C1271 1.490 . S
C1276 C1278 1.395 . S
C1276 C1279 1.403 . S
H1277 C1283 0.930 . S
C1278 H1264 0.930 . S
C1278 C1276 1.395 . S
C1278 C1281 1.403 . S
C1279 C1276 1.403 . S
C1279 C1280 1.524 . S
C1279 C1283 1.400 . S
C1280 H1265 0.960 . S
C1280 H1266 0.960 . S
C1280 H1267 0.960 . S
C1280 C1279 1.524 . S
C1281 C1278 1.403 . S
C1281 C1282 1.392 . S
C1281 C1285 1.495 . S
C1282 C1281 1.392 . S
C1282 C1283 1.385 . S
C1282 C1284 1.478 . S
C1283 H1277 0.930 . S
C1283 C1279 1.400 . S
C1283 C1282 1.385 . S
C1284 C1282 1.478 . S
C1284 C1286 1.381 . S
C1284 C1290 1.383 . S
C1285 C1281 1.495 . S
C1285 H1291 0.959 . S
C1285 H1292 0.961 . S
C1285 H1293 0.960 . S
C1286 C1284 1.381 . S
C1286 C1287 1.394 . S
C1286 H1294 0.930 . S
C1287 C1286 1.394 . S
C1287 C1288 1.383 . S
C1287 H1295 0.929 . S
C1288 C1287 1.383 . S
C1288 C1289 1.377 . S
C1289 H1273 0.930 . S
C1289 C1288 1.377 . S
C1289 C1290 1.379 . S
C1290 H1274 0.931 . S
C1290 C1284 1.383 . S
C1290 C1289 1.379 . S
H1291 C1285 0.959 . S
H1292 C1285 0.961 . S
H1293 C1285 0.960 . S
H1294 C1286 0.930 . S
H1295 C1287 0.929 . S
H1296 C1304 0.929 . S
H1297 C1306 0.930 . S
H1298 C1308 0.930 . S
H1299 C1311 0.929 . S
H1300 C1314 0.930 . S
H1301 C1316 0.960 . S
H1302 C1316 0.960 . S
H1303 C1316 0.960 . S
C1304 H1296 0.929 . S
C1304 C1305 1.377 . S
C1304 C1306 1.384 . S
C1305 C1304 1.377 . S
C1305 C1311 1.390 . S
C1306 H1297 0.930 . S
C1306 C1304 1.384 . S
C1306 C1307 1.372 . S
C1307 C1306 1.372 . S
C1307 C1308 1.400 . S
C1307 C1312 1.490 . S
C1308 H1298 0.930 . S
C1308 C1307 1.400 . S
C1308 C1311 1.386 . S
H1309 C1325 0.930 . S
H1310 C1326 0.931 . S
C1311 H1299 0.929 . S
C1311 C1305 1.390 . S
C1311 C1308 1.386 . S
C1312 C1307 1.490 . S
C1312 C1314 1.395 . S
C1312 C1315 1.403 . S
H1313 C1319 0.930 . S
C1314 H1300 0.930 . S
C1314 C1312 1.395 . S
C1314 C1317 1.403 . S
C1315 C1312 1.403 . S
C1315 C1316 1.524 . S
C1315 C1319 1.400 . S
C1316 H1301 0.960 . S
C1316 H1302 0.960 . S
C1316 H1303 0.960 . S
C1316 C1315 1.524 . S
C1317 C1314 1.403 . S
C1317 C1318 1.392 . S
C1317 C1321 1.495 . S
C1318 C1317 1.392 . S
C1318 C1319 1.385 . S
C1318 C1320 1.478 . S
C1319 H1313 0.930 . S
C1319 C1315 1.400 . S
C1319 C1318 1.385 . S
C1320 C1318 1.478 . S
C1320 C1322 1.381 . S
C1320 C1326 1.383 . S
C1321 C1317 1.495 . S
C1321 H1327 0.959 . S
C1321 H1328 0.961 . S
C1321 H1329 0.960 . S
C1322 C1320 1.381 . S
C1322 C1323 1.394 . S
C1322 H1330 0.930 . S
C1323 C1322 1.394 . S
C1323 C1324 1.383 . S
C1323 H1331 0.929 . S
C1324 C1323 1.383 . S
C1324 C1325 1.377 . S
C1325 H1309 0.930 . S
C1325 C1324 1.377 . S
C1325 C1326 1.379 . S
C1326 H1310 0.931 . S
C1326 C1320 1.383 . S
C1326 C1325 1.379 . S
H1327 C1321 0.959 . S
H1328 C1321 0.961 . S
H1329 C1321 0.960 . S
H1330 C1322 0.930 . S
H1331 C1323 0.929 . S
H1332 C1340 0.929 . S
H1333 C1342 0.930 . S
H1334 C1344 0.930 . S
H1335 C1347 0.929 . S
H1336 C1350 0.930 . S
H1337 C1352 0.960 . S
H1338 C1352 0.960 . S
H1339 C1352 0.960 . S
C1340 H1332 0.929 . S
C1340 C1341 1.377 . S
C1340 C1342 1.384 . S
C1341 C1340 1.377 . S
C1341 C1347 1.390 . S
C1342 H1333 0.930 . S
C1342 C1340 1.384 . S
C1342 C1343 1.372 . S
C1343 C1342 1.372 . S
C1343 C1344 1.400 . S
C1343 C1348 1.490 1_545 S
C1344 H1334 0.930 . S
C1344 C1343 1.400 . S
C1344 C1347 1.386 . S
H1345 C1361 0.930 . S
H1346 C1362 0.931 . S
C1347 H1335 0.929 . S
C1347 C1341 1.390 . S
C1347 C1344 1.386 . S
C1348 C1343 1.490 1_565 S
C1348 C1350 1.395 . S
C1348 C1351 1.403 . S
H1349 C1355 0.930 . S
C1350 H1336 0.930 . S
C1350 C1348 1.395 . S
C1350 C1353 1.403 . S
C1351 C1348 1.403 . S
C1351 C1352 1.524 . S
C1351 C1355 1.400 . S
C1352 H1337 0.960 . S
C1352 H1338 0.960 . S
C1352 H1339 0.960 . S
C1352 C1351 1.524 . S
C1353 C1350 1.403 . S
C1353 C1354 1.392 . S
C1353 C1357 1.495 . S
C1354 C1353 1.392 . S
C1354 C1355 1.385 . S
C1354 C1356 1.478 . S
C1355 H1349 0.930 . S
C1355 C1351 1.400 . S
C1355 C1354 1.385 . S
C1356 C1354 1.478 . S
C1356 C1358 1.381 . S
C1356 C1362 1.383 . S
C1357 C1353 1.495 . S
C1357 H1363 0.959 . S
C1357 H1364 0.961 . S
C1357 H1365 0.960 . S
C1358 C1356 1.381 . S
C1358 C1359 1.394 . S
C1358 H1366 0.930 . S
C1359 C1358 1.394 . S
C1359 C1360 1.383 . S
C1359 H1367 0.929 . S
C1360 C1359 1.383 . S
C1360 C1361 1.377 . S
C1361 H1345 0.930 . S
C1361 C1360 1.377 . S
C1361 C1362 1.379 . S
C1362 H1346 0.931 . S
C1362 C1356 1.383 . S
C1362 C1361 1.379 . S
H1363 C1357 0.959 . S
H1364 C1357 0.961 . S
H1365 C1357 0.960 . S
H1366 C1358 0.930 . S
H1367 C1359 0.929 . S
H1368 C1376 0.929 . S
H1369 C1378 0.930 . S
H1370 C1380 0.930 . S
H1371 C1383 0.929 . S
H1372 C1386 0.930 . S
H1373 C1388 0.960 . S
H1374 C1388 0.960 . S
H1375 C1388 0.960 . S
C1376 H1368 0.929 . S
C1376 C1377 1.377 . S
C1376 C1378 1.384 . S
C1377 C1376 1.377 . S
C1377 C1383 1.390 . S
C1378 H1369 0.930 . S
C1378 C1376 1.384 . S
C1378 C1379 1.372 1_655 S
C1379 C1378 1.372 1_455 S
C1379 C1380 1.400 . S
C1379 C1384 1.490 . S
C1380 H1370 0.930 . S
C1380 C1379 1.400 . S
C1380 C1383 1.386 1_455 S
H1381 C1397 0.930 . S
H1382 C1398 0.931 . S
C1383 H1371 0.929 . S
C1383 C1377 1.390 . S
C1383 C1380 1.386 1_655 S
C1384 C1379 1.490 . S
C1384 C1386 1.395 . S
C1384 C1387 1.403 . S
H1385 C1391 0.930 . S
C1386 H1372 0.930 . S
C1386 C1384 1.395 . S
C1386 C1389 1.403 . S
C1387 C1384 1.403 . S
C1387 C1388 1.524 . S
C1387 C1391 1.400 . S
C1388 H1373 0.960 . S
C1388 H1374 0.960 . S
C1388 H1375 0.960 . S
C1388 C1387 1.524 . S
C1389 C1386 1.403 . S
C1389 C1390 1.392 . S
C1389 C1393 1.495 . S
C1390 C1389 1.392 . S
C1390 C1391 1.385 . S
C1390 C1392 1.478 . S
C1391 H1385 0.930 . S
C1391 C1387 1.400 . S
C1391 C1390 1.385 . S
C1392 C1390 1.478 . S
C1392 C1394 1.381 . S
C1392 C1398 1.383 . S
C1393 C1389 1.495 . S
C1393 H1399 0.959 . S
C1393 H1400 0.961 . S
C1393 H1401 0.960 . S
C1394 C1392 1.381 . S
C1394 C1395 1.394 . S
C1394 H1402 0.930 . S
C1395 C1394 1.394 . S
C1395 C1396 1.383 . S
C1395 H1403 0.929 . S
C1396 C1395 1.383 . S
C1396 C1397 1.377 . S
C1397 H1381 0.930 . S
C1397 C1396 1.377 . S
C1397 C1398 1.379 . S
C1398 H1382 0.931 . S
C1398 C1392 1.383 . S
C1398 C1397 1.379 . S
H1399 C1393 0.959 . S
H1400 C1393 0.961 . S
H1401 C1393 0.960 . S
H1402 C1394 0.930 . S
H1403 C1395 0.929 . S
H1404 C1412 0.929 . S
H1405 C1414 0.930 . S
H1406 C1416 0.930 . S
H1407 C1419 0.929 . S
H1408 C1422 0.930 . S
H1409 C1424 0.960 . S
H1410 C1424 0.960 . S
H1411 C1424 0.960 . S
C1412 H1404 0.929 . S
C1412 C1413 1.377 . S
C1412 C1414 1.384 . S
C1413 C1412 1.377 . S
C1413 C1419 1.390 . S
C1414 H1405 0.930 . S
C1414 C1412 1.384 . S
C1414 C1415 1.372 . S
C1415 C1414 1.372 . S
C1415 C1416 1.400 . S
C1415 C1420 1.490 . S
C1416 H1406 0.930 . S
C1416 C1415 1.400 . S
C1416 C1419 1.386 . S
H1417 C1433 0.930 . S
H1418 C1434 0.931 . S
C1419 H1407 0.929 . S
C1419 C1413 1.390 . S
C1419 C1416 1.386 . S
C1420 C1415 1.490 . S
C1420 C1422 1.395 . S
C1420 C1423 1.403 . S
H1421 C1427 0.930 . S
C1422 H1408 0.930 . S
C1422 C1420 1.395 . S
C1422 C1425 1.403 . S
C1423 C1420 1.403 . S
C1423 C1424 1.524 . S
C1423 C1427 1.400 . S
C1424 H1409 0.960 . S
C1424 H1410 0.960 . S
C1424 H1411 0.960 . S
C1424 C1423 1.524 . S
C1425 C1422 1.403 . S
C1425 C1426 1.392 . S
C1425 C1429 1.495 . S
C1426 C1425 1.392 . S
C1426 C1427 1.385 . S
C1426 C1428 1.478 . S
C1427 H1421 0.930 . S
C1427 C1423 1.400 . S
C1427 C1426 1.385 . S
C1428 C1426 1.478 . S
C1428 C1430 1.381 . S
C1428 C1434 1.383 . S
C1429 C1425 1.495 . S
C1429 H1435 0.959 . S
C1429 H1436 0.961 . S
C1429 H1437 0.960 . S
C1430 C1428 1.381 . S
C1430 C1431 1.394 . S
C1430 H1438 0.930 . S
C1431 C1430 1.394 . S
C1431 C1432 1.383 . S
C1431 H1439 0.929 . S
C1432 C1431 1.383 . S
C1432 C1433 1.377 . S
C1433 H1417 0.930 . S
C1433 C1432 1.377 . S
C1433 C1434 1.379 . S
C1434 H1418 0.931 . S
C1434 C1428 1.383 . S
C1434 C1433 1.379 . S
H1435 C1429 0.959 . S
H1436 C1429 0.961 . S
H1437 C1429 0.960 . S
H1438 C1430 0.930 . S
H1439 C1431 0.929 . S
H1440 C1448 0.929 . S
H1441 C1450 0.930 . S
H1442 C1452 0.930 . S
H1443 C1455 0.929 . S
H1444 C1458 0.930 . S
H1445 C1460 0.960 . S
H1446 C1460 0.960 . S
H1447 C1460 0.960 . S
C1448 H1440 0.929 . S
C1448 C1449 1.377 . S
C1448 C1450 1.384 . S
C1449 C1448 1.377 . S
C1449 C1455 1.390 . S
C1450 H1441 0.930 . S
C1450 C1448 1.384 . S
C1450 C1451 1.372 . S
C1451 C1450 1.372 . S
C1451 C1452 1.400 . S
C1451 C1456 1.490 . S
C1452 H1442 0.930 . S
C1452 C1451 1.400 . S
C1452 C1455 1.386 . S
H1453 C1469 0.930 . S
H1454 C1470 0.931 . S
C1455 H1443 0.929 . S
C1455 C1449 1.390 . S
C1455 C1452 1.386 . S
C1456 C1451 1.490 . S
C1456 C1458 1.395 . S
C1456 C1459 1.403 . S
H1457 C1463 0.930 . S
C1458 H1444 0.930 . S
C1458 C1456 1.395 . S
C1458 C1461 1.403 . S
C1459 C1456 1.403 . S
C1459 C1460 1.524 . S
C1459 C1463 1.400 . S
C1460 H1445 0.960 . S
C1460 H1446 0.960 . S
C1460 H1447 0.960 . S
C1460 C1459 1.524 . S
C1461 C1458 1.403 . S
C1461 C1462 1.392 . S
C1461 C1465 1.495 . S
C1462 C1461 1.392 . S
C1462 C1463 1.385 . S
C1462 C1464 1.478 . S
C1463 H1457 0.930 . S
C1463 C1459 1.400 . S
C1463 C1462 1.385 . S
C1464 C1462 1.478 . S
C1464 C1466 1.381 . S
C1464 C1470 1.383 . S
C1465 C1461 1.495 . S
C1465 H1471 0.959 . S
C1465 H1472 0.961 . S
C1465 H1473 0.960 . S
C1466 C1464 1.381 . S
C1466 C1467 1.394 . S
C1466 H1474 0.930 . S
C1467 C1466 1.394 . S
C1467 C1468 1.383 . S
C1467 H1475 0.929 . S
C1468 C1467 1.383 . S
C1468 C1469 1.377 . S
C1469 H1453 0.930 . S
C1469 C1468 1.377 . S
C1469 C1470 1.379 . S
C1470 H1454 0.931 . S
C1470 C1464 1.383 . S
C1470 C1469 1.379 . S
H1471 C1465 0.959 . S
H1472 C1465 0.961 . S
H1473 C1465 0.960 . S
H1474 C1466 0.930 . S
H1475 C1467 0.929 . S
H1476 C1484 0.929 . S
H1477 C1486 0.930 . S
H1478 C1488 0.930 . S
H1479 C1491 0.929 . S
H1480 C1494 0.930 . S
H1481 C1496 0.960 . S
H1482 C1496 0.960 . S
H1483 C1496 0.960 . S
C1484 H1476 0.929 . S
C1484 C1485 1.377 . S
C1484 C1486 1.384 . S
C1485 C1484 1.377 . S
C1485 C1491 1.390 . S
C1486 H1477 0.930 . S
C1486 C1484 1.384 . S
C1486 C1487 1.372 . S
C1487 C1486 1.372 . S
C1487 C1488 1.400 . S
C1487 C1492 1.490 . S
C1488 H1478 0.930 . S
C1488 C1487 1.400 . S
C1488 C1491 1.386 . S
H1489 C1505 0.930 . S
H1490 C1506 0.931 . S
C1491 H1479 0.929 . S
C1491 C1485 1.390 . S
C1491 C1488 1.386 . S
C1492 C1487 1.490 . S
C1492 C1494 1.395 . S
C1492 C1495 1.403 . S
H1493 C1499 0.930 . S
C1494 H1480 0.930 . S
C1494 C1492 1.395 . S
C1494 C1497 1.403 . S
C1495 C1492 1.403 . S
C1495 C1496 1.524 . S
C1495 C1499 1.400 . S
C1496 H1481 0.960 . S
C1496 H1482 0.960 . S
C1496 H1483 0.960 . S
C1496 C1495 1.524 . S
C1497 C1494 1.403 . S
C1497 C1498 1.392 . S
C1497 C1501 1.495 . S
C1498 C1497 1.392 . S
C1498 C1499 1.385 . S
C1498 C1500 1.478 . S
C1499 H1493 0.930 . S
C1499 C1495 1.400 . S
C1499 C1498 1.385 . S
C1500 C1498 1.478 . S
C1500 C1502 1.381 . S
C1500 C1506 1.383 . S
C1501 C1497 1.495 . S
C1501 H1507 0.959 . S
C1501 H1508 0.961 . S
C1501 H1509 0.960 . S
C1502 C1500 1.381 . S
C1502 C1503 1.394 . S
C1502 H1510 0.930 . S
C1503 C1502 1.394 . S
C1503 C1504 1.383 . S
C1503 H1511 0.929 . S
C1504 C1503 1.383 . S
C1504 C1505 1.377 . S
C1505 H1489 0.930 . S
C1505 C1504 1.377 . S
C1505 C1506 1.379 . S
C1506 H1490 0.931 . S
C1506 C1500 1.383 . S
C1506 C1505 1.379 . S
H1507 C1501 0.959 . S
H1508 C1501 0.961 . S
H1509 C1501 0.960 . S
H1510 C1502 0.930 . S
H1511 C1503 0.929 . S
H1512 C1520 0.929 . S
H1513 C1522 0.930 . S
H1514 C1524 0.930 . S
H1515 C1527 0.929 . S
H1516 C1530 0.930 . S
H1517 C1532 0.960 . S
H1518 C1532 0.960 . S
H1519 C1532 0.960 . S
C1520 H1512 0.929 . S
C1520 C1521 1.377 . S
C1520 C1522 1.384 . S
C1521 C1520 1.377 . S
C1521 C1527 1.390 . S
C1522 H1513 0.930 . S
C1522 C1520 1.384 . S
C1522 C1523 1.372 . S
C1523 C1522 1.372 . S
C1523 C1524 1.400 . S
C1523 C1528 1.490 . S
C1524 H1514 0.930 . S
C1524 C1523 1.400 . S
C1524 C1527 1.386 . S
H1525 C1541 0.930 . S
H1526 C1542 0.931 . S
C1527 H1515 0.929 . S
C1527 C1521 1.390 . S
C1527 C1524 1.386 . S
C1528 C1523 1.490 . S
C1528 C1530 1.395 . S
C1528 C1531 1.403 . S
H1529 C1535 0.930 . S
C1530 H1516 0.930 . S
C1530 C1528 1.395 . S
C1530 C1533 1.403 . S
C1531 C1528 1.403 . S
C1531 C1532 1.524 . S
C1531 C1535 1.400 . S
C1532 H1517 0.960 . S
C1532 H1518 0.960 . S
C1532 H1519 0.960 . S
C1532 C1531 1.524 . S
C1533 C1530 1.403 . S
C1533 C1534 1.392 . S
C1533 C1537 1.495 . S
C1534 C1533 1.392 . S
C1534 C1535 1.385 . S
C1534 C1536 1.478 . S
C1535 H1529 0.930 . S
C1535 C1531 1.400 . S
C1535 C1534 1.385 . S
C1536 C1534 1.478 . S
C1536 C1538 1.381 . S
C1536 C1542 1.383 . S
C1537 C1533 1.495 . S
C1537 H1543 0.959 . S
C1537 H1544 0.961 . S
C1537 H1545 0.960 . S
C1538 C1536 1.381 . S
C1538 C1539 1.394 . S
C1538 H1546 0.930 . S
C1539 C1538 1.394 . S
C1539 C1540 1.383 . S
C1539 H1547 0.929 . S
C1540 C1539 1.383 . S
C1540 C1541 1.377 . S
C1541 H1525 0.930 . S
C1541 C1540 1.377 . S
C1541 C1542 1.379 . S
C1542 H1526 0.931 . S
C1542 C1536 1.383 . S
C1542 C1541 1.379 . S
H1543 C1537 0.959 . S
H1544 C1537 0.961 . S
H1545 C1537 0.960 . S
H1546 C1538 0.930 . S
H1547 C1539 0.929 . S
H1548 C1556 0.929 . S
H1549 C1558 0.930 . S
H1550 C1560 0.930 . S
H1551 C1563 0.929 . S
H1552 C1566 0.930 . S
H1553 C1568 0.960 . S
H1554 C1568 0.960 . S
H1555 C1568 0.960 . S
C1556 H1548 0.929 . S
C1556 C1557 1.377 . S
C1556 C1558 1.384 . S
C1557 C1556 1.377 . S
C1557 C1563 1.390 . S
C1558 H1549 0.930 . S
C1558 C1556 1.384 . S
C1558 C1559 1.372 . S
C1559 C1558 1.372 . S
C1559 C1560 1.400 . S
C1559 C1564 1.490 . S
C1560 H1550 0.930 . S
C1560 C1559 1.400 . S
C1560 C1563 1.386 . S
H1561 C1577 0.930 . S
H1562 C1578 0.931 . S
C1563 H1551 0.929 . S
C1563 C1557 1.390 . S
C1563 C1560 1.386 . S
C1564 C1559 1.490 . S
C1564 C1566 1.395 . S
C1564 C1567 1.403 . S
H1565 C1571 0.930 . S
C1566 H1552 0.930 . S
C1566 C1564 1.395 . S
C1566 C1569 1.403 1_565 S
C1567 C1564 1.403 . S
C1567 C1568 1.524 . S
C1567 C1571 1.400 1_565 S
C1568 H1553 0.960 . S
C1568 H1554 0.960 . S
C1568 H1555 0.960 . S
C1568 C1567 1.524 . S
C1569 C1566 1.403 1_545 S
C1569 C1570 1.392 . S
C1569 C1573 1.495 . S
C1570 C1569 1.392 . S
C1570 C1571 1.385 . S
C1570 C1572 1.478 . S
C1571 H1565 0.930 . S
C1571 C1567 1.400 1_545 S
C1571 C1570 1.385 . S
C1572 C1570 1.478 . S
C1572 C1574 1.381 . S
C1572 C1578 1.383 . S
C1573 C1569 1.495 . S
C1573 H1579 0.959 . S
C1573 H1580 0.961 . S
C1573 H1581 0.960 . S
C1574 C1572 1.381 . S
C1574 C1575 1.394 . S
C1574 H1582 0.930 . S
C1575 C1574 1.394 . S
C1575 C1576 1.383 . S
C1575 H1583 0.929 . S
C1576 C1575 1.383 . S
C1576 C1577 1.377 . S
C1577 H1561 0.930 . S
C1577 C1576 1.377 . S
C1577 C1578 1.379 . S
C1578 H1562 0.931 . S
C1578 C1572 1.383 . S
C1578 C1577 1.379 . S
H1579 C1573 0.959 . S
H1580 C1573 0.961 . S
H1581 C1573 0.960 . S
H1582 C1574 0.930 . S
H1583 C1575 0.929 . S
H1584 C1592 0.929 . S
H1585 C1594 0.930 . S
H1586 C1596 0.930 . S
H1587 C1599 0.929 . S
H1588 C1602 0.930 . S
H1589 C1604 0.960 . S
H1590 C1604 0.960 . S
H1591 C1604 0.960 . S
C1592 H1584 0.929 . S
C1592 C1593 1.377 . S
C1592 C1594 1.384 . S
C1593 C1592 1.377 . S
C1593 C1599 1.390 . S
C1594 H1585 0.930 . S
C1594 C1592 1.384 . S
C1594 C1595 1.372 . S
C1595 C1594 1.372 . S
C1595 C1596 1.400 . S
C1595 C1600 1.490 . S
C1596 H1586 0.930 . S
C1596 C1595 1.400 . S
C1596 C1599 1.386 . S
H1597 C1613 0.930 . S
H1598 C1614 0.931 . S
C1599 H1587 0.929 . S
C1599 C1593 1.390 . S
C1599 C1596 1.386 . S
C1600 C1595 1.490 . S
C1600 C1602 1.395 . S
C1600 C1603 1.403 . S
H1601 C1607 0.930 . S
C1602 H1588 0.930 . S
C1602 C1600 1.395 . S
C1602 C1605 1.403 1_455 S
C1603 C1600 1.403 . S
C1603 C1604 1.524 . S
C1603 C1607 1.400 1_455 S
C1604 H1589 0.960 . S
C1604 H1590 0.960 . S
C1604 H1591 0.960 . S
C1604 C1603 1.524 . S
C1605 C1602 1.403 1_655 S
C1605 C1606 1.392 . S
C1605 C1609 1.495 . S
C1606 C1605 1.392 . S
C1606 C1607 1.385 . S
C1606 C1608 1.478 . S
C1607 H1601 0.930 . S
C1607 C1603 1.400 1_655 S
C1607 C1606 1.385 . S
C1608 C1606 1.478 . S
C1608 C1610 1.381 . S
C1608 C1614 1.383 . S
C1609 C1605 1.495 . S
C1609 H1615 0.959 . S
C1609 H1616 0.961 . S
C1609 H1617 0.960 . S
C1610 C1608 1.381 . S
C1610 C1611 1.394 . S
C1610 H1618 0.930 . S
C1611 C1610 1.394 . S
C1611 C1612 1.383 . S
C1611 H1619 0.929 . S
C1612 C1611 1.383 . S
C1612 C1613 1.377 . S
C1613 H1597 0.930 . S
C1613 C1612 1.377 . S
C1613 C1614 1.379 . S
C1614 H1598 0.931 . S
C1614 C1608 1.383 . S
C1614 C1613 1.379 . S
H1615 C1609 0.959 . S
H1616 C1609 0.961 . S
H1617 C1609 0.960 . S
H1618 C1610 0.930 . S
H1619 C1611 0.929 . S
H1620 C1628 0.929 . S
H1621 C1630 0.930 . S
H1622 C1632 0.930 . S
H1623 C1635 0.929 . S
H1624 C1638 0.930 . S
H1625 C1640 0.960 . S
H1626 C1640 0.960 . S
H1627 C1640 0.960 . S
C1628 H1620 0.929 . S
C1628 C1629 1.377 . S
C1628 C1630 1.384 . S
C1629 C1628 1.377 . S
C1629 C1635 1.390 . S
C1630 H1621 0.930 . S
C1630 C1628 1.384 . S
C1630 C1631 1.372 . S
C1631 C1630 1.372 . S
C1631 C1632 1.400 . S
C1631 C1636 1.490 . S
C1632 H1622 0.930 . S
C1632 C1631 1.400 . S
C1632 C1635 1.386 . S
H1633 C1649 0.930 . S
H1634 C1650 0.931 . S
C1635 H1623 0.929 . S
C1635 C1629 1.390 . S
C1635 C1632 1.386 . S
C1636 C1631 1.490 . S
C1636 C1638 1.395 . S
C1636 C1639 1.403 . S
H1637 C1643 0.930 . S
C1638 H1624 0.930 . S
C1638 C1636 1.395 . S
C1638 C1641 1.403 . S
C1639 C1636 1.403 . S
C1639 C1640 1.524 . S
C1639 C1643 1.400 . S
C1640 H1625 0.960 . S
C1640 H1626 0.960 . S
C1640 H1627 0.960 . S
C1640 C1639 1.524 . S
C1641 C1638 1.403 . S
C1641 C1642 1.392 . S
C1641 C1645 1.495 . S
C1642 C1641 1.392 . S
C1642 C1643 1.385 . S
C1642 C1644 1.478 . S
C1643 H1637 0.930 . S
C1643 C1639 1.400 . S
C1643 C1642 1.385 . S
C1644 C1642 1.478 . S
C1644 C1646 1.381 . S
C1644 C1650 1.383 . S
C1645 C1641 1.495 . S
C1645 H1651 0.959 . S
C1645 H1652 0.961 . S
C1645 H1653 0.960 . S
C1646 C1644 1.381 . S
C1646 C1647 1.394 . S
C1646 H1654 0.930 . S
C1647 C1646 1.394 . S
C1647 C1648 1.383 . S
C1647 H1655 0.929 . S
C1648 C1647 1.383 . S
C1648 C1649 1.377 . S
C1649 H1633 0.930 . S
C1649 C1648 1.377 . S
C1649 C1650 1.379 . S
C1650 H1634 0.931 . S
C1650 C1644 1.383 . S
C1650 C1649 1.379 . S
H1651 C1645 0.959 . S
H1652 C1645 0.961 . S
H1653 C1645 0.960 . S
H1654 C1646 0.930 . S
H1655 C1647 0.929 . S
H1656 C1664 0.929 . S
H1657 C1666 0.930 . S
H1658 C1668 0.930 . S
H1659 C1671 0.929 . S
H1660 C1674 0.930 . S
H1661 C1676 0.960 . S
H1662 C1676 0.960 . S
H1663 C1676 0.960 . S
C1664 H1656 0.929 . S
C1664 C1665 1.377 . S
C1664 C1666 1.384 . S
C1665 C1664 1.377 . S
C1665 C1671 1.390 . S
C1666 H1657 0.930 . S
C1666 C1664 1.384 . S
C1666 C1667 1.372 . S
C1667 C1666 1.372 . S
C1667 C1668 1.400 . S
C1667 C1672 1.490 1_455 S
C1668 H1658 0.930 . S
C1668 C1667 1.400 . S
C1668 C1671 1.386 . S
H1669 C1685 0.930 . S
H1670 C1686 0.931 . S
C1671 H1659 0.929 . S
C1671 C1665 1.390 . S
C1671 C1668 1.386 . S
C1672 C1667 1.490 1_655 S
C1672 C1674 1.395 . S
C1672 C1675 1.403 . S
H1673 C1679 0.930 . S
C1674 H1660 0.930 . S
C1674 C1672 1.395 . S
C1674 C1677 1.403 . S
C1675 C1672 1.403 . S
C1675 C1676 1.524 . S
C1675 C1679 1.400 . S
C1676 H1661 0.960 . S
C1676 H1662 0.960 . S
C1676 H1663 0.960 . S
C1676 C1675 1.524 . S
C1677 C1674 1.403 . S
C1677 C1678 1.392 . S
C1677 C1681 1.495 . S
C1678 C1677 1.392 . S
C1678 C1679 1.385 . S
C1678 C1680 1.478 . S
C1679 H1673 0.930 . S
C1679 C1675 1.400 . S
C1679 C1678 1.385 . S
C1680 C1678 1.478 . S
C1680 C1682 1.381 . S
C1680 C1686 1.383 . S
C1681 C1677 1.495 . S
C1681 H1687 0.959 . S
C1681 H1688 0.961 . S
C1681 H1689 0.960 . S
C1682 C1680 1.381 . S
C1682 C1683 1.394 . S
C1682 H1690 0.930 . S
C1683 C1682 1.394 . S
C1683 C1684 1.383 . S
C1683 H1691 0.929 . S
C1684 C1683 1.383 . S
C1684 C1685 1.377 . S
C1685 H1669 0.930 . S
C1685 C1684 1.377 . S
C1685 C1686 1.379 . S
C1686 H1670 0.931 . S
C1686 C1680 1.383 . S
C1686 C1685 1.379 . S
H1687 C1681 0.959 . S
H1688 C1681 0.961 . S
H1689 C1681 0.960 . S
H1690 C1682 0.930 . S
H1691 C1683 0.929 . S
H1692 C1700 0.929 . S
H1693 C1702 0.930 . S
H1694 C1704 0.930 . S
H1695 C1707 0.929 . S
H1696 C1710 0.930 . S
H1697 C1712 0.960 . S
H1698 C1712 0.960 . S
H1699 C1712 0.960 . S
C1700 H1692 0.929 . S
C1700 C1701 1.377 . S
C1700 C1702 1.384 . S
C1701 C1700 1.377 . S
C1701 C1707 1.390 . S
C1702 H1693 0.930 . S
C1702 C1700 1.384 . S
C1702 C1703 1.372 . S
C1703 C1702 1.372 . S
C1703 C1704 1.400 . S
C1703 C1708 1.490 . S
C1704 H1694 0.930 . S
C1704 C1703 1.400 . S
C1704 C1707 1.386 . S
H1705 C1721 0.930 . S
H1706 C1722 0.931 . S
C1707 H1695 0.929 . S
C1707 C1701 1.390 . S
C1707 C1704 1.386 . S
C1708 C1703 1.490 . S
C1708 C1710 1.395 . S
C1708 C1711 1.403 . S
H1709 C1715 0.930 . S
C1710 H1696 0.930 . S
C1710 C1708 1.395 . S
C1710 C1713 1.403 . S
C1711 C1708 1.403 . S
C1711 C1712 1.524 . S
C1711 C1715 1.400 . S
C1712 H1697 0.960 . S
C1712 H1698 0.960 . S
C1712 H1699 0.960 . S
C1712 C1711 1.524 . S
C1713 C1710 1.403 . S
C1713 C1714 1.392 . S
C1713 C1717 1.495 . S
C1714 C1713 1.392 . S
C1714 C1715 1.385 . S
C1714 C1716 1.478 . S
C1715 H1709 0.930 . S
C1715 C1711 1.400 . S
C1715 C1714 1.385 . S
C1716 C1714 1.478 . S
C1716 C1718 1.381 . S
C1716 C1722 1.383 . S
C1717 C1713 1.495 . S
C1717 H1723 0.959 . S
C1717 H1724 0.961 . S
C1717 H1725 0.960 . S
C1718 C1716 1.381 . S
C1718 C1719 1.394 . S
C1718 H1726 0.930 . S
C1719 C1718 1.394 . S
C1719 C1720 1.383 . S
C1719 H1727 0.929 . S
C1720 C1719 1.383 . S
C1720 C1721 1.377 . S
C1721 H1705 0.930 . S
C1721 C1720 1.377 . S
C1721 C1722 1.379 . S
C1722 H1706 0.931 . S
C1722 C1716 1.383 . S
C1722 C1721 1.379 . S
H1723 C1717 0.959 . S
H1724 C1717 0.961 . S
H1725 C1717 0.960 . S
H1726 C1718 0.930 . S
H1727 C1719 0.929 . S
H1728 C1736 0.929 . S
H1729 C1738 0.930 . S
H1730 C1740 0.930 . S
H1731 C1743 0.929 . S
H1732 C1746 0.930 . S
H1733 C1748 0.960 . S
H1734 C1748 0.960 . S
H1735 C1748 0.960 . S
C1736 H1728 0.929 . S
C1736 C1737 1.377 . S
C1736 C1738 1.384 . S
C1737 C1736 1.377 . S
C1737 C1743 1.390 . S
C1738 H1729 0.930 . S
C1738 C1736 1.384 . S
C1738 C1739 1.372 . S
C1739 C1738 1.372 . S
C1739 C1740 1.400 . S
C1739 C1744 1.490 1_565 S
C1740 H1730 0.930 . S
C1740 C1739 1.400 . S
C1740 C1743 1.386 . S
H1741 C1757 0.930 . S
H1742 C1758 0.931 . S
C1743 H1731 0.929 . S
C1743 C1737 1.390 . S
C1743 C1740 1.386 . S
C1744 C1739 1.490 1_545 S
C1744 C1746 1.395 . S
C1744 C1747 1.403 . S
H1745 C1751 0.930 . S
C1746 H1732 0.930 . S
C1746 C1744 1.395 . S
C1746 C1749 1.403 . S
C1747 C1744 1.403 . S
C1747 C1748 1.524 . S
C1747 C1751 1.400 . S
C1748 H1733 0.960 . S
C1748 H1734 0.960 . S
C1748 H1735 0.960 . S
C1748 C1747 1.524 . S
C1749 C1746 1.403 . S
C1749 C1750 1.392 . S
C1749 C1753 1.495 . S
C1750 C1749 1.392 . S
C1750 C1751 1.385 . S
C1750 C1752 1.478 . S
C1751 H1745 0.930 . S
C1751 C1747 1.400 . S
C1751 C1750 1.385 . S
C1752 C1750 1.478 . S
C1752 C1754 1.381 . S
C1752 C1758 1.383 . S
C1753 C1749 1.495 . S
C1753 H1759 0.959 . S
C1753 H1760 0.961 . S
C1753 H1761 0.960 . S
C1754 C1752 1.381 . S
C1754 C1755 1.394 . S
C1754 H1762 0.930 . S
C1755 C1754 1.394 . S
C1755 C1756 1.383 . S
C1755 H1763 0.929 . S
C1756 C1755 1.383 . S
C1756 C1757 1.377 . S
C1757 H1741 0.930 . S
C1757 C1756 1.377 . S
C1757 C1758 1.379 . S
C1758 H1742 0.931 . S
C1758 C1752 1.383 . S
C1758 C1757 1.379 . S
H1759 C1753 0.959 . S
H1760 C1753 0.961 . S
H1761 C1753 0.960 . S
H1762 C1754 0.930 . S
H1763 C1755 0.929 . S
H1764 C1772 0.929 . S
H1765 C1774 0.930 . S
H1766 C1776 0.930 . S
H1767 C1779 0.929 . S
H1768 C1782 0.930 . S
H1769 C1784 0.960 . S
H1770 C1784 0.960 . S
H1771 C1784 0.960 . S
C1772 H1764 0.929 . S
C1772 C1773 1.377 . S
C1772 C1774 1.384 . S
C1773 C1772 1.377 . S
C1773 C1779 1.390 . S
C1774 H1765 0.930 . S
C1774 C1772 1.384 . S
C1774 C1775 1.372 . S
C1775 C1774 1.372 . S
C1775 C1776 1.400 . S
C1775 C1780 1.490 . S
C1776 H1766 0.930 . S
C1776 C1775 1.400 . S
C1776 C1779 1.386 . S
H1777 C1793 0.930 . S
H1778 C1794 0.931 . S
C1779 H1767 0.929 . S
C1779 C1773 1.390 . S
C1779 C1776 1.386 . S
C1780 C1775 1.490 . S
C1780 C1782 1.395 . S
C1780 C1783 1.403 . S
H1781 C1787 0.930 . S
C1782 H1768 0.930 . S
C1782 C1780 1.395 . S
C1782 C1785 1.403 . S
C1783 C1780 1.403 . S
C1783 C1784 1.524 . S
C1783 C1787 1.400 . S
C1784 H1769 0.960 . S
C1784 H1770 0.960 . S
C1784 H1771 0.960 . S
C1784 C1783 1.524 . S
C1785 C1782 1.403 . S
C1785 C1786 1.392 . S
C1785 C1789 1.495 . S
C1786 C1785 1.392 . S
C1786 C1787 1.385 . S
C1786 C1788 1.478 . S
C1787 H1781 0.930 . S
C1787 C1783 1.400 . S
C1787 C1786 1.385 . S
C1788 C1786 1.478 . S
C1788 C1790 1.381 . S
C1788 C1794 1.383 . S
C1789 C1785 1.495 . S
C1789 H1795 0.959 . S
C1789 H1796 0.961 . S
C1789 H1797 0.960 . S
C1790 C1788 1.381 . S
C1790 C1791 1.394 . S
C1790 H1798 0.930 . S
C1791 C1790 1.394 . S
C1791 C1792 1.383 . S
C1791 H1799 0.929 . S
C1792 C1791 1.383 . S
C1792 C1793 1.377 . S
C1793 H1777 0.930 . S
C1793 C1792 1.377 . S
C1793 C1794 1.379 . S
C1794 H1778 0.931 . S
C1794 C1788 1.383 . S
C1794 C1793 1.379 . S
H1795 C1789 0.959 . S
H1796 C1789 0.961 . S
H1797 C1789 0.960 . S
H1798 C1790 0.930 . S
H1799 C1791 0.929 . S
H1800 C1808 0.929 . S
H1801 C1810 0.930 . S
H1802 C1812 0.930 . S
H1803 C1815 0.929 . S
H1804 C1818 0.930 . S
H1805 C1820 0.960 . S
H1806 C1820 0.960 . S
H1807 C1820 0.960 . S
C1808 H1800 0.929 . S
C1808 C1809 1.377 . S
C1808 C1810 1.384 . S
C1809 C1808 1.377 . S
C1809 C1815 1.390 . S
C1810 H1801 0.930 . S
C1810 C1808 1.384 . S
C1810 C1811 1.372 . S
C1811 C1810 1.372 . S
C1811 C1812 1.400 . S
C1811 C1816 1.490 . S
C1812 H1802 0.930 . S
C1812 C1811 1.400 . S
C1812 C1815 1.386 . S
H1813 C1829 0.930 . S
H1814 C1830 0.931 . S
C1815 H1803 0.929 . S
C1815 C1809 1.390 . S
C1815 C1812 1.386 . S
C1816 C1811 1.490 . S
C1816 C1818 1.395 . S
C1816 C1819 1.403 . S
H1817 C1823 0.930 . S
C1818 H1804 0.930 . S
C1818 C1816 1.395 . S
C1818 C1821 1.403 . S
C1819 C1816 1.403 . S
C1819 C1820 1.524 . S
C1819 C1823 1.400 . S
C1820 H1805 0.960 . S
C1820 H1806 0.960 . S
C1820 H1807 0.960 . S
C1820 C1819 1.524 . S
C1821 C1818 1.403 . S
C1821 C1822 1.392 . S
C1821 C1825 1.495 . S
C1822 C1821 1.392 . S
C1822 C1823 1.385 . S
C1822 C1824 1.478 . S
C1823 H1817 0.930 . S
C1823 C1819 1.400 . S
C1823 C1822 1.385 . S
C1824 C1822 1.478 . S
C1824 C1826 1.381 . S
C1824 C1830 1.383 . S
C1825 C1821 1.495 . S
C1825 H1831 0.959 . S
C1825 H1832 0.961 . S
C1825 H1833 0.960 . S
C1826 C1824 1.381 . S
C1826 C1827 1.394 . S
C1826 H1834 0.930 . S
C1827 C1826 1.394 . S
C1827 C1828 1.383 . S
C1827 H1835 0.929 . S
C1828 C1827 1.383 . S
C1828 C1829 1.377 . S
C1829 H1813 0.930 . S
C1829 C1828 1.377 . S
C1829 C1830 1.379 . S
C1830 H1814 0.931 . S
C1830 C1824 1.383 . S
C1830 C1829 1.379 . S
H1831 C1825 0.959 . S
H1832 C1825 0.961 . S
H1833 C1825 0.960 . S
H1834 C1826 0.930 . S
H1835 C1827 0.929 . S
H1836 C1844 0.929 . S
H1837 C1846 0.930 . S
H1838 C1848 0.930 . S
H1839 C1851 0.929 . S
H1840 C1854 0.930 . S
H1841 C1856 0.960 . S
H1842 C1856 0.960 . S
H1843 C1856 0.960 . S
C1844 H1836 0.929 . S
C1844 C1845 1.377 . S
C1844 C1846 1.384 . S
C1845 C1844 1.377 . S
C1845 C1851 1.390 . S
C1846 H1837 0.930 . S
C1846 C1844 1.384 . S
C1846 C1847 1.372 . S
C1847 C1846 1.372 . S
C1847 C1848 1.400 . S
C1847 C1852 1.490 . S
C1848 H1838 0.930 . S
C1848 C1847 1.400 . S
C1848 C1851 1.386 . S
H1849 C1865 0.930 . S
H1850 C1866 0.931 . S
C1851 H1839 0.929 . S
C1851 C1845 1.390 . S
C1851 C1848 1.386 . S
C1852 C1847 1.490 . S
C1852 C1854 1.395 . S
C1852 C1855 1.403 . S
H1853 C1859 0.930 . S
C1854 H1840 0.930 . S
C1854 C1852 1.395 . S
C1854 C1857 1.403 . S
C1855 C1852 1.403 . S
C1855 C1856 1.524 . S
C1855 C1859 1.400 . S
C1856 H1841 0.960 . S
C1856 H1842 0.960 . S
C1856 H1843 0.960 . S
C1856 C1855 1.524 . S
C1857 C1854 1.403 . S
C1857 C1858 1.392 . S
C1857 C1861 1.495 . S
C1858 C1857 1.392 . S
C1858 C1859 1.385 . S
C1858 C1860 1.478 . S
C1859 H1853 0.930 . S
C1859 C1855 1.400 . S
C1859 C1858 1.385 . S
C1860 C1858 1.478 . S
C1860 C1862 1.381 . S
C1860 C1866 1.383 . S
C1861 C1857 1.495 . S
C1861 H1867 0.959 . S
C1861 H1868 0.961 . S
C1861 H1869 0.960 . S
C1862 C1860 1.381 . S
C1862 C1863 1.394 . S
C1862 H1870 0.930 . S
C1863 C1862 1.394 . S
C1863 C1864 1.383 . S
C1863 H1871 0.929 . S
C1864 C1863 1.383 . S
C1864 C1865 1.377 . S
C1865 H1849 0.930 . S
C1865 C1864 1.377 . S
C1865 C1866 1.379 . S
C1866 H1850 0.931 . S
C1866 C1860 1.383 . S
C1866 C1865 1.379 . S
H1867 C1861 0.959 . S
H1868 C1861 0.961 . S
H1869 C1861 0.960 . S
H1870 C1862 0.930 . S
H1871 C1863 0.929 . S
H1872 C1880 0.929 . S
H1873 C1882 0.930 . S
H1874 C1884 0.930 . S
H1875 C1887 0.929 . S
H1876 C1890 0.930 . S
H1877 C1892 0.960 . S
H1878 C1892 0.960 . S
H1879 C1892 0.960 . S
C1880 H1872 0.929 . S
C1880 C1881 1.377 . S
C1880 C1882 1.384 . S
C1881 C1880 1.377 . S
C1881 C1887 1.390 . S
C1882 H1873 0.930 . S
C1882 C1880 1.384 . S
C1882 C1883 1.372 . S
C1883 C1882 1.372 . S
C1883 C1884 1.400 . S
C1883 C1888 1.490 . S
C1884 H1874 0.930 . S
C1884 C1883 1.400 . S
C1884 C1887 1.386 . S
H1885 C1901 0.930 . S
H1886 C1902 0.931 . S
C1887 H1875 0.929 . S
C1887 C1881 1.390 . S
C1887 C1884 1.386 . S
C1888 C1883 1.490 . S
C1888 C1890 1.395 . S
C1888 C1891 1.403 . S
H1889 C1895 0.930 . S
C1890 H1876 0.930 . S
C1890 C1888 1.395 . S
C1890 C1893 1.403 . S
C1891 C1888 1.403 . S
C1891 C1892 1.524 . S
C1891 C1895 1.400 . S
C1892 H1877 0.960 . S
C1892 H1878 0.960 . S
C1892 H1879 0.960 . S
C1892 C1891 1.524 . S
C1893 C1890 1.403 . S
C1893 C1894 1.392 . S
C1893 C1897 1.495 . S
C1894 C1893 1.392 . S
C1894 C1895 1.385 . S
C1894 C1896 1.478 . S
C1895 H1889 0.930 . S
C1895 C1891 1.400 . S
C1895 C1894 1.385 . S
C1896 C1894 1.478 . S
C1896 C1898 1.381 . S
C1896 C1902 1.383 . S
C1897 C1893 1.495 . S
C1897 H1903 0.959 . S
C1897 H1904 0.961 1_565 S
C1897 H1905 0.960 . S
C1898 C1896 1.381 . S
C1898 C1899 1.394 . S
C1898 H1906 0.930 . S
C1899 C1898 1.394 . S
C1899 C1900 1.383 . S
C1899 H1907 0.929 . S
C1900 C1899 1.383 . S
C1900 C1901 1.377 . S
C1901 H1885 0.930 . S
C1901 C1900 1.377 . S
C1901 C1902 1.379 . S
C1902 H1886 0.931 . S
C1902 C1896 1.383 . S
C1902 C1901 1.379 . S
H1903 C1897 0.959 . S
H1904 C1897 0.961 1_545 S
H1905 C1897 0.960 . S
H1906 C1898 0.930 . S
H1907 C1899 0.929 . S
H1908 C1916 0.929 . S
H1909 C1918 0.930 . S
H1910 C1920 0.930 . S
H1911 C1923 0.929 . S
H1912 C1926 0.930 . S
H1913 C1928 0.960 . S
H1914 C1928 0.960 . S
H1915 C1928 0.960 . S
C1916 H1908 0.929 . S
C1916 C1917 1.377 . S
C1916 C1918 1.384 . S
C1917 C1916 1.377 . S
C1917 C1923 1.390 . S
C1918 H1909 0.930 . S
C1918 C1916 1.384 . S
C1918 C1919 1.372 . S
C1919 C1918 1.372 . S
C1919 C1920 1.400 . S
C1919 C1924 1.490 . S
C1920 H1910 0.930 . S
C1920 C1919 1.400 . S
C1920 C1923 1.386 . S
H1921 C1937 0.930 . S
H1922 C1938 0.931 . S
C1923 H1911 0.929 . S
C1923 C1917 1.390 . S
C1923 C1920 1.386 . S
C1924 C1919 1.490 . S
C1924 C1926 1.395 . S
C1924 C1927 1.403 . S
H1925 C1931 0.930 . S
C1926 H1912 0.930 . S
C1926 C1924 1.395 . S
C1926 C1929 1.403 . S
C1927 C1924 1.403 . S
C1927 C1928 1.524 . S
C1927 C1931 1.400 . S
C1928 H1913 0.960 . S
C1928 H1914 0.960 . S
C1928 H1915 0.960 . S
C1928 C1927 1.524 . S
C1929 C1926 1.403 . S
C1929 C1930 1.392 . S
C1929 C1933 1.495 . S
C1930 C1929 1.392 . S
C1930 C1931 1.385 . S
C1930 C1932 1.478 . S
C1931 H1925 0.930 . S
C1931 C1927 1.400 . S
C1931 C1930 1.385 . S
C1932 C1930 1.478 . S
C1932 C1934 1.381 . S
C1932 C1938 1.383 . S
C1933 C1929 1.495 . S
C1933 H1939 0.959 . S
C1933 H1940 0.961 . S
C1933 H1941 0.960 . S
C1934 C1932 1.381 . S
C1934 C1935 1.394 . S
C1934 H1942 0.930 . S
C1935 C1934 1.394 . S
C1935 C1936 1.383 . S
C1935 H1943 0.929 . S
C1936 C1935 1.383 . S
C1936 C1937 1.377 . S
C1937 H1921 0.930 . S
C1937 C1936 1.377 . S
C1937 C1938 1.379 . S
C1938 H1922 0.931 . S
C1938 C1932 1.383 . S
C1938 C1937 1.379 . S
H1939 C1933 0.959 . S
H1940 C1933 0.961 . S
H1941 C1933 0.960 . S
H1942 C1934 0.930 . S
H1943 C1935 0.929 . S
H1944 C1952 0.929 . S
H1945 C1954 0.930 . S
H1946 C1956 0.930 . S
H1947 C1959 0.929 . S
H1948 C1962 0.930 . S
H1949 C1964 0.960 . S
H1950 C1964 0.960 . S
H1951 C1964 0.960 . S
C1952 H1944 0.929 . S
C1952 C1953 1.377 . S
C1952 C1954 1.384 . S
C1953 C1952 1.377 . S
C1953 C1959 1.390 . S
C1954 H1945 0.930 . S
C1954 C1952 1.384 . S
C1954 C1955 1.372 . S
C1955 C1954 1.372 . S
C1955 C1956 1.400 . S
C1955 C1960 1.490 . S
C1956 H1946 0.930 . S
C1956 C1955 1.400 . S
C1956 C1959 1.386 . S
H1957 C1973 0.930 . S
H1958 C1974 0.931 . S
C1959 H1947 0.929 . S
C1959 C1953 1.390 . S
C1959 C1956 1.386 . S
C1960 C1955 1.490 . S
C1960 C1962 1.395 . S
C1960 C1963 1.403 . S
H1961 C1967 0.930 . S
C1962 H1948 0.930 . S
C1962 C1960 1.395 . S
C1962 C1965 1.403 . S
C1963 C1960 1.403 . S
C1963 C1964 1.524 . S
C1963 C1967 1.400 . S
C1964 H1949 0.960 . S
C1964 H1950 0.960 . S
C1964 H1951 0.960 . S
C1964 C1963 1.524 . S
C1965 C1962 1.403 . S
C1965 C1966 1.392 . S
C1965 C1969 1.495 . S
C1966 C1965 1.392 . S
C1966 C1967 1.385 . S
C1966 C1968 1.478 . S
C1967 H1961 0.930 . S
C1967 C1963 1.400 . S
C1967 C1966 1.385 . S
C1968 C1966 1.478 . S
C1968 C1970 1.381 . S
C1968 C1974 1.383 . S
C1969 C1965 1.495 . S
C1969 H1975 0.959 . S
C1969 H1976 0.961 . S
C1969 H1977 0.960 . S
C1970 C1968 1.381 . S
C1970 C1971 1.394 . S
C1970 H1978 0.930 . S
C1971 C1970 1.394 . S
C1971 C1972 1.383 . S
C1971 H1979 0.929 . S
C1972 C1971 1.383 . S
C1972 C1973 1.377 . S
C1973 H1957 0.930 . S
C1973 C1972 1.377 . S
C1973 C1974 1.379 . S
C1974 H1958 0.931 . S
C1974 C1968 1.383 . S
C1974 C1973 1.379 . S
H1975 C1969 0.959 . S
H1976 C1969 0.961 . S
H1977 C1969 0.960 . S
H1978 C1970 0.930 . S
H1979 C1971 0.929 . S
H1980 C1988 0.929 . S
H1981 C1990 0.930 . S
H1982 C1992 0.930 . S
H1983 C1995 0.929 . S
H1984 C1998 0.930 . S
H1985 C2000 0.977 . S
H1986 C2000 0.967 . S
H1987 C2000 0.960 . S
C1988 H1980 0.929 . S
C1988 C1989 1.377 . S
C1988 C1990 1.384 . S
C1989 C1988 1.377 . S
C1989 C1995 1.390 . S
C1990 H1981 0.930 . S
C1990 C1988 1.384 . S
C1990 C1991 1.372 . S
C1991 C1990 1.372 . S
C1991 C1992 1.400 . S
C1991 C1996 1.490 . S
C1992 H1982 0.930 . S
C1992 C1991 1.400 . S
C1992 C1995 1.386 . S
H1993 C2009 0.930 . S
H1994 C2010 0.931 . S
C1995 H1983 0.929 . S
C1995 C1989 1.390 . S
C1995 C1992 1.386 . S
C1996 C1991 1.490 . S
C1996 C1998 1.395 . S
C1996 C1999 1.403 . S
H1997 C2003 0.930 . S
C1998 H1984 0.930 . S
C1998 C1996 1.395 . S
C1998 C2001 1.403 . S
C1999 C1996 1.403 . S
C1999 C2000 1.524 . S
C1999 C2003 1.400 . S
C2000 H1985 0.977 . S
C2000 H1986 0.967 . S
C2000 H1987 0.960 . S
C2000 C1999 1.524 . S
C2001 C1998 1.403 . S
C2001 C2002 1.392 . S
C2001 C2005 1.495 . S
C2002 C2001 1.392 . S
C2002 C2003 1.385 . S
C2002 C2004 1.478 . S
C2003 H1997 0.930 . S
C2003 C1999 1.400 . S
C2003 C2002 1.385 . S
C2004 C2002 1.478 . S
C2004 C2006 1.381 . S
C2004 C2010 1.383 . S
C2005 C2001 1.495 . S
C2005 H2011 0.959 . S
C2005 H2012 0.961 . S
C2005 H2013 0.960 . S
C2006 C2004 1.381 . S
C2006 C2007 1.394 . S
C2006 H2014 0.930 . S
C2007 C2006 1.394 . S
C2007 C2008 1.383 . S
C2007 H2015 0.929 . S
C2008 C2007 1.383 . S
C2008 C2009 1.377 . S
C2009 H1993 0.930 . S
C2009 C2008 1.377 . S
C2009 C2010 1.379 . S
C2010 H1994 0.931 . S
C2010 C2004 1.383 . S
C2010 C2009 1.379 . S
H2011 C2005 0.959 . S
H2012 C2005 0.961 . S
H2013 C2005 0.960 . S
H2014 C2006 0.930 . S
H2015 C2007 0.929 . S
H2016 C2024 0.929 . S
H2017 C2026 0.930 . S
H2018 C2028 0.930 . S
H2019 C2031 0.929 . S
H2020 C2034 0.930 . S
H2021 C2036 0.960 . S
H2022 C2036 0.960 . S
H2023 C2036 0.960 . S
C2024 H2016 0.929 . S
C2024 C2025 1.377 . S
C2024 C2026 1.384 . S
C2025 C2024 1.377 . S
C2025 C2031 1.390 . S
C2026 H2017 0.930 . S
C2026 C2024 1.384 . S
C2026 C2027 1.372 . S
C2027 C2026 1.372 . S
C2027 C2028 1.400 . S
C2027 C2032 1.490 . S
C2028 H2018 0.930 . S
C2028 C2027 1.400 . S
C2028 C2031 1.386 . S
H2029 C2045 0.930 . S
H2030 C2046 0.931 . S
C2031 H2019 0.929 . S
C2031 C2025 1.390 . S
C2031 C2028 1.386 . S
C2032 C2027 1.490 . S
C2032 C2034 1.395 . S
C2032 C2035 1.403 . S
H2033 C2039 0.930 . S
C2034 H2020 0.930 . S
C2034 C2032 1.395 . S
C2034 C2037 1.403 . S
C2035 C2032 1.403 . S
C2035 C2036 1.524 . S
C2035 C2039 1.400 . S
C2036 H2021 0.960 . S
C2036 H2022 0.960 . S
C2036 H2023 0.960 . S
C2036 C2035 1.524 . S
C2037 C2034 1.403 . S
C2037 C2038 1.392 . S
C2037 C2041 1.495 . S
C2038 C2037 1.392 . S
C2038 C2039 1.385 . S
C2038 C2040 1.478 . S
C2039 H2033 0.930 . S
C2039 C2035 1.400 . S
C2039 C2038 1.385 . S
C2040 C2038 1.478 . S
C2040 C2042 1.381 . S
C2040 C2046 1.383 . S
C2041 C2037 1.495 . S
C2041 H2047 0.959 . S
C2041 H2048 0.961 . S
C2041 H2049 0.960 . S
C2042 C2040 1.381 . S
C2042 C2043 1.394 . S
C2042 H2050 0.930 . S
C2043 C2042 1.394 . S
C2043 C2044 1.383 . S
C2043 H2051 0.929 . S
C2044 C2043 1.383 . S
C2044 C2045 1.377 . S
C2045 H2029 0.930 . S
C2045 C2044 1.377 . S
C2045 C2046 1.379 . S
C2046 H2030 0.931 . S
C2046 C2040 1.383 . S
C2046 C2045 1.379 . S
H2047 C2041 0.959 . S
H2048 C2041 0.961 . S
H2049 C2041 0.960 . S
H2050 C2042 0.930 . S
H2051 C2043 0.929 . S
H2052 C2060 0.929 . S
H2053 C2062 0.930 . S
H2054 C2064 0.930 . S
H2055 C2067 0.929 . S
H2056 C2070 0.930 . S
H2057 C2072 0.960 . S
H2058 C2072 0.960 . S
H2059 C2072 0.960 . S
C2060 H2052 0.929 . S
C2060 C2061 1.377 . S
C2060 C2062 1.384 . S
C2061 C2060 1.377 . S
C2061 C2067 1.390 . S
C2062 H2053 0.930 . S
C2062 C2060 1.384 . S
C2062 C2063 1.372 . S
C2063 C2062 1.372 . S
C2063 C2064 1.400 . S
C2063 C2068 1.490 . S
C2064 H2054 0.930 . S
C2064 C2063 1.400 . S
C2064 C2067 1.386 . S
H2065 C2081 0.930 . S
H2066 C2082 0.931 . S
C2067 H2055 0.929 . S
C2067 C2061 1.390 . S
C2067 C2064 1.386 . S
C2068 C2063 1.490 . S
C2068 C2070 1.395 . S
C2068 C2071 1.403 . S
H2069 C2075 0.930 . S
C2070 H2056 0.930 . S
C2070 C2068 1.395 . S
C2070 C2073 1.403 . S
C2071 C2068 1.403 . S
C2071 C2072 1.524 . S
C2071 C2075 1.400 . S
C2072 H2057 0.960 . S
C2072 H2058 0.960 . S
C2072 H2059 0.960 . S
C2072 C2071 1.524 . S
C2073 C2070 1.403 . S
C2073 C2074 1.392 . S
C2073 C2077 1.495 . S
C2074 C2073 1.392 . S
C2074 C2075 1.385 . S
C2074 C2076 1.478 . S
C2075 H2069 0.930 . S
C2075 C2071 1.400 . S
C2075 C2074 1.385 . S
C2076 C2074 1.478 . S
C2076 C2078 1.381 . S
C2076 C2082 1.383 . S
C2077 C2073 1.495 . S
C2077 H2083 0.959 . S
C2077 H2084 0.961 . S
C2077 H2085 0.960 . S
C2078 C2076 1.381 . S
C2078 C2079 1.394 . S
C2078 H2086 0.930 . S
C2079 C2078 1.394 . S
C2079 C2080 1.383 . S
C2079 H2087 0.929 . S
C2080 C2079 1.383 . S
C2080 C2081 1.377 . S
C2081 H2065 0.930 . S
C2081 C2080 1.377 . S
C2081 C2082 1.379 . S
C2082 H2066 0.931 . S
C2082 C2076 1.383 . S
C2082 C2081 1.379 . S
H2083 C2077 0.959 . S
H2084 C2077 0.961 . S
H2085 C2077 0.960 . S
H2086 C2078 0.930 . S
H2087 C2079 0.929 . S
H2088 C2096 0.929 . S
H2089 C2098 0.930 . S
H2090 C2100 0.930 . S
H2091 C2103 0.929 . S
H2092 C2106 0.930 . S
H2093 C2108 0.960 . S
H2094 C2108 0.960 . S
H2095 C2108 0.960 . S
C2096 H2088 0.929 . S
C2096 C2097 1.377 . S
C2096 C2098 1.384 . S
C2097 C2096 1.377 . S
C2097 C2103 1.390 . S
C2098 H2089 0.930 . S
C2098 C2096 1.384 . S
C2098 C2099 1.372 . S
C2099 C2098 1.372 . S
C2099 C2100 1.400 . S
C2099 C2104 1.490 . S
C2100 H2090 0.930 . S
C2100 C2099 1.400 . S
C2100 C2103 1.386 . S
H2101 C2117 0.930 . S
H2102 C2118 0.931 . S
C2103 H2091 0.929 . S
C2103 C2097 1.390 . S
C2103 C2100 1.386 . S
C2104 C2099 1.490 . S
C2104 C2106 1.395 . S
C2104 C2107 1.403 . S
H2105 C2111 0.930 . S
C2106 H2092 0.930 . S
C2106 C2104 1.395 . S
C2106 C2109 1.403 . S
C2107 C2104 1.403 . S
C2107 C2108 1.524 . S
C2107 C2111 1.400 . S
C2108 H2093 0.960 . S
C2108 H2094 0.960 . S
C2108 H2095 0.960 . S
C2108 C2107 1.524 . S
C2109 C2106 1.403 . S
C2109 C2110 1.392 . S
C2109 C2113 1.495 . S
C2110 C2109 1.392 . S
C2110 C2111 1.385 . S
C2110 C2112 1.478 . S
C2111 H2105 0.930 . S
C2111 C2107 1.400 . S
C2111 C2110 1.385 . S
C2112 C2110 1.478 . S
C2112 C2114 1.381 . S
C2112 C2118 1.383 . S
C2113 C2109 1.495 . S
C2113 H2119 0.959 . S
C2113 H2120 0.961 . S
C2113 H2121 0.960 . S
C2114 C2112 1.381 . S
C2114 C2115 1.394 . S
C2114 H2122 0.930 . S
C2115 C2114 1.394 . S
C2115 C2116 1.383 . S
C2115 H2123 0.929 . S
C2116 C2115 1.383 . S
C2116 C2117 1.377 . S
C2117 H2101 0.930 . S
C2117 C2116 1.377 . S
C2117 C2118 1.379 . S
C2118 H2102 0.931 . S
C2118 C2112 1.383 . S
C2118 C2117 1.379 . S
H2119 C2113 0.959 . S
H2120 C2113 0.961 . S
H2121 C2113 0.960 . S
H2122 C2114 0.930 . S
H2123 C2115 0.929 . S
H2124 C2132 0.929 . S
H2125 C2134 0.930 . S
H2126 C2136 0.930 . S
H2127 C2139 0.929 . S
H2128 C2142 0.930 . S
H2129 C2144 0.960 . S
H2130 C2144 0.960 . S
H2131 C2144 0.960 . S
C2132 H2124 0.929 . S
C2132 C2133 1.377 . S
C2132 C2134 1.384 . S
C2133 C2132 1.377 . S
C2133 C2139 1.390 . S
C2134 H2125 0.930 . S
C2134 C2132 1.384 . S
C2134 C2135 1.372 . S
C2135 C2134 1.372 . S
C2135 C2136 1.400 . S
C2135 C2140 1.490 . S
C2136 H2126 0.930 . S
C2136 C2135 1.400 . S
C2136 C2139 1.386 . S
H2137 C2153 0.930 . S
H2138 C2154 0.931 . S
C2139 H2127 0.929 . S
C2139 C2133 1.390 . S
C2139 C2136 1.386 . S
C2140 C2135 1.490 . S
C2140 C2142 1.395 . S
C2140 C2143 1.403 . S
H2141 C2147 0.930 . S
C2142 H2128 0.930 . S
C2142 C2140 1.395 . S
C2142 C2145 1.403 . S
C2143 C2140 1.403 . S
C2143 C2144 1.524 . S
C2143 C2147 1.400 . S
C2144 H2129 0.960 . S
C2144 H2130 0.960 . S
C2144 H2131 0.960 . S
C2144 C2143 1.524 . S
C2145 C2142 1.403 . S
C2145 C2146 1.392 . S
C2145 C2149 1.495 . S
C2146 C2145 1.392 . S
C2146 C2147 1.385 . S
C2146 C2148 1.478 . S
C2147 H2141 0.930 . S
C2147 C2143 1.400 . S
C2147 C2146 1.385 . S
C2148 C2146 1.478 . S
C2148 C2150 1.381 . S
C2148 C2154 1.383 . S
C2149 C2145 1.495 . S
C2149 H2155 0.959 . S
C2149 H2156 0.961 . S
C2149 H2157 0.960 . S
C2150 C2148 1.381 . S
C2150 C2151 1.394 . S
C2150 H2158 0.930 . S
C2151 C2150 1.394 . S
C2151 C2152 1.383 . S
C2151 H2159 0.929 . S
C2152 C2151 1.383 . S
C2152 C2153 1.377 . S
C2153 H2137 0.930 . S
C2153 C2152 1.377 . S
C2153 C2154 1.379 . S
C2154 H2138 0.931 . S
C2154 C2148 1.383 . S
C2154 C2153 1.379 . S
H2155 C2149 0.959 . S
H2156 C2149 0.961 . S
H2157 C2149 0.960 . S
H2158 C2150 0.930 . S
H2159 C2151 0.929 . S
H2160 C2168 0.929 . S
H2161 C2170 0.930 . S
H2162 C2172 0.930 . S
H2163 C2175 0.929 . S
H2164 C2178 0.930 . S
H2165 C2180 0.960 . S
H2166 C2180 0.960 . S
H2167 C2180 0.960 . S
C2168 H2160 0.929 . S
C2168 C2169 1.377 . S
C2168 C2170 1.384 . S
C2169 C2168 1.377 . S
C2169 C2175 1.390 . S
C2170 H2161 0.930 . S
C2170 C2168 1.384 . S
C2170 C2171 1.372 . S
C2171 C2170 1.372 . S
C2171 C2172 1.400 . S
C2171 C2176 1.490 . S
C2172 H2162 0.930 . S
C2172 C2171 1.400 . S
C2172 C2175 1.386 . S
H2173 C2189 0.930 . S
H2174 C2190 0.931 . S
C2175 H2163 0.929 . S
C2175 C2169 1.390 . S
C2175 C2172 1.386 . S
C2176 C2171 1.490 . S
C2176 C2178 1.395 . S
C2176 C2179 1.403 . S
H2177 C2183 0.930 . S
C2178 H2164 0.930 . S
C2178 C2176 1.395 . S
C2178 C2181 1.403 . S
C2179 C2176 1.403 . S
C2179 C2180 1.524 . S
C2179 C2183 1.400 . S
C2180 H2165 0.960 . S
C2180 H2166 0.960 . S
C2180 H2167 0.960 . S
C2180 C2179 1.524 . S
C2181 C2178 1.403 . S
C2181 C2182 1.392 . S
C2181 C2185 1.495 . S
C2182 C2181 1.392 . S
C2182 C2183 1.385 . S
C2182 C2184 1.478 . S
C2183 H2177 0.930 . S
C2183 C2179 1.400 . S
C2183 C2182 1.385 . S
C2184 C2182 1.478 . S
C2184 C2186 1.381 . S
C2184 C2190 1.383 . S
C2185 C2181 1.495 . S
C2185 H2191 0.959 . S
C2185 H2192 0.961 . S
C2185 H2193 0.960 . S
C2186 C2184 1.381 . S
C2186 C2187 1.394 . S
C2186 H2194 0.930 . S
C2187 C2186 1.394 . S
C2187 C2188 1.383 . S
C2187 H2195 0.929 . S
C2188 C2187 1.383 . S
C2188 C2189 1.377 . S
C2189 H2173 0.930 . S
C2189 C2188 1.377 . S
C2189 C2190 1.379 . S
C2190 H2174 0.931 . S
C2190 C2184 1.383 . S
C2190 C2189 1.379 . S
H2191 C2185 0.959 . S
H2192 C2185 0.961 . S
H2193 C2185 0.960 . S
H2194 C2186 0.930 . S
H2195 C2187 0.929 . S
H2196 C2204 0.929 . S
H2197 C2206 0.930 . S
H2198 C2208 0.930 . S
H2199 C2211 0.929 . S
H2200 C2214 0.930 . S
H2201 C2216 0.960 . S
H2202 C2216 0.960 . S
H2203 C2216 0.960 . S
C2204 H2196 0.929 . S
C2204 C2205 1.377 . S
C2204 C2206 1.384 . S
C2205 C2204 1.377 . S
C2205 C2211 1.390 . S
C2206 H2197 0.930 . S
C2206 C2204 1.384 . S
C2206 C2207 1.372 . S
C2207 C2206 1.372 . S
C2207 C2208 1.400 . S
C2207 C2212 1.490 . S
C2208 H2198 0.930 . S
C2208 C2207 1.400 . S
C2208 C2211 1.386 . S
H2209 C2225 0.930 . S
H2210 C2226 0.931 . S
C2211 H2199 0.929 . S
C2211 C2205 1.390 . S
C2211 C2208 1.386 . S
C2212 C2207 1.490 . S
C2212 C2214 1.395 . S
C2212 C2215 1.403 . S
H2213 C2219 0.930 . S
C2214 H2200 0.930 . S
C2214 C2212 1.395 . S
C2214 C2217 1.403 . S
C2215 C2212 1.403 . S
C2215 C2216 1.524 . S
C2215 C2219 1.400 . S
C2216 H2201 0.960 . S
C2216 H2202 0.960 . S
C2216 H2203 0.960 . S
C2216 C2215 1.524 . S
C2217 C2214 1.403 . S
C2217 C2218 1.392 . S
C2217 C2221 1.495 . S
C2218 C2217 1.392 . S
C2218 C2219 1.385 . S
C2218 C2220 1.478 . S
C2219 H2213 0.930 . S
C2219 C2215 1.400 . S
C2219 C2218 1.385 . S
C2220 C2218 1.478 . S
C2220 C2222 1.381 . S
C2220 C2226 1.383 . S
C2221 C2217 1.495 . S
C2221 H2227 0.959 . S
C2221 H2228 0.961 . S
C2221 H2229 0.960 . S
C2222 C2220 1.381 . S
C2222 C2223 1.394 . S
C2222 H2230 0.930 . S
C2223 C2222 1.394 . S
C2223 C2224 1.383 . S
C2223 H2231 0.929 . S
C2224 C2223 1.383 . S
C2224 C2225 1.377 . S
C2225 H2209 0.930 . S
C2225 C2224 1.377 . S
C2225 C2226 1.379 . S
C2226 H2210 0.931 . S
C2226 C2220 1.383 . S
C2226 C2225 1.379 . S
H2227 C2221 0.959 . S
H2228 C2221 0.961 . S
H2229 C2221 0.960 . S
H2230 C2222 0.930 . S
H2231 C2223 0.929 . S
H2232 C2240 0.929 . S
H2233 C2242 0.930 . S
H2234 C2244 0.930 . S
H2235 C2247 0.929 . S
H2236 C2250 0.930 . S
H2237 C2252 0.960 . S
H2238 C2252 0.960 . S
H2239 C2252 0.960 . S
C2240 H2232 0.929 . S
C2240 C2241 1.377 . S
C2240 C2242 1.384 . S
C2241 C2240 1.377 . S
C2241 C2247 1.390 . S
C2242 H2233 0.930 . S
C2242 C2240 1.384 . S
C2242 C2243 1.372 . S
C2243 C2242 1.372 . S
C2243 C2244 1.400 . S
C2243 C2248 1.490 . S
C2244 H2234 0.930 . S
C2244 C2243 1.400 . S
C2244 C2247 1.386 . S
H2245 C2261 0.930 . S
H2246 C2262 0.931 . S
C2247 H2235 0.929 . S
C2247 C2241 1.390 . S
C2247 C2244 1.386 . S
C2248 C2243 1.490 . S
C2248 C2250 1.395 . S
C2248 C2251 1.403 . S
H2249 C2255 0.930 . S
C2250 H2236 0.930 . S
C2250 C2248 1.395 . S
C2250 C2253 1.403 . S
C2251 C2248 1.403 . S
C2251 C2252 1.524 . S
C2251 C2255 1.400 . S
C2252 H2237 0.960 . S
C2252 H2238 0.960 . S
C2252 H2239 0.960 . S
C2252 C2251 1.524 . S
C2253 C2250 1.403 . S
C2253 C2254 1.392 . S
C2253 C2257 1.495 . S
C2254 C2253 1.392 . S
C2254 C2255 1.385 . S
C2254 C2256 1.478 . S
C2255 H2249 0.930 . S
C2255 C2251 1.400 . S
C2255 C2254 1.385 . S
C2256 C2254 1.478 . S
C2256 C2258 1.381 . S
C2256 C2262 1.383 . S
C2257 C2253 1.495 . S
C2257 H2263 0.959 . S
C2257 H2264 0.961 . S
C2257 H2265 0.960 . S
C2258 C2256 1.381 . S
C2258 C2259 1.394 . S
C2258 H2266 0.930 . S
C2259 C2258 1.394 . S
C2259 C2260 1.383 . S
C2259 H2267 0.929 . S
C2260 C2259 1.383 . S
C2260 C2261 1.377 . S
C2261 H2245 0.930 . S
C2261 C2260 1.377 . S
C2261 C2262 1.379 . S
C2262 H2246 0.931 . S
C2262 C2256 1.383 . S
C2262 C2261 1.379 . S
H2263 C2257 0.959 . S
H2264 C2257 0.961 . S
H2265 C2257 0.960 . S
H2266 C2258 0.930 . S
H2267 C2259 0.929 . S
H2268 C2276 0.929 . S
H2269 C2278 0.930 . S
H2270 C2280 0.930 . S
H2271 C2283 0.929 . S
H2272 C2286 0.930 . S
H2273 C2288 0.960 . S
H2274 C2288 0.960 . S
H2275 C2288 0.960 . S
C2276 H2268 0.929 . S
C2276 C2277 1.377 . S
C2276 C2278 1.384 . S
C2277 C2276 1.377 . S
C2277 C2283 1.390 . S
C2278 H2269 0.930 . S
C2278 C2276 1.384 . S
C2278 C2279 1.372 . S
C2279 C2278 1.372 . S
C2279 C2280 1.400 . S
C2279 C2284 1.490 . S
C2280 H2270 0.930 . S
C2280 C2279 1.400 . S
C2280 C2283 1.386 . S
H2281 C2297 0.930 . S
H2282 C2298 0.931 . S
C2283 H2271 0.929 . S
C2283 C2277 1.390 . S
C2283 C2280 1.386 . S
C2284 C2279 1.490 . S
C2284 C2286 1.395 . S
C2284 C2287 1.403 . S
H2285 C2291 0.930 . S
C2286 H2272 0.930 . S
C2286 C2284 1.395 . S
C2286 C2289 1.403 . S
C2287 C2284 1.403 . S
C2287 C2288 1.524 . S
C2287 C2291 1.400 . S
C2288 H2273 0.960 . S
C2288 H2274 0.960 . S
C2288 H2275 0.960 . S
C2288 C2287 1.524 . S
C2289 C2286 1.403 . S
C2289 C2290 1.392 . S
C2289 C2293 1.495 . S
C2290 C2289 1.392 . S
C2290 C2291 1.385 . S
C2290 C2292 1.478 . S
C2291 H2285 0.930 . S
C2291 C2287 1.400 . S
C2291 C2290 1.385 . S
C2292 C2290 1.478 . S
C2292 C2294 1.381 . S
C2292 C2298 1.383 . S
C2293 C2289 1.495 . S
C2293 H2299 0.959 . S
C2293 H2300 0.961 . S
C2293 H2301 0.960 . S
C2294 C2292 1.381 . S
C2294 C2295 1.394 . S
C2294 H2302 0.930 . S
C2295 C2294 1.394 . S
C2295 C2296 1.383 . S
C2295 H2303 0.929 . S
C2296 C2295 1.383 . S
C2296 C2297 1.377 . S
C2297 H2281 0.930 . S
C2297 C2296 1.377 . S
C2297 C2298 1.379 . S
C2298 H2282 0.931 . S
C2298 C2292 1.383 . S
C2298 C2297 1.379 . S
H2299 C2293 0.959 . S
H2300 C2293 0.961 . S
H2301 C2293 0.960 . S
H2302 C2294 0.930 . S
H2303 C2295 0.929 . S
H2304 C2312 0.929 . S
H2305 C2314 0.930 . S
H2306 C2316 0.930 . S
H2307 C2319 0.929 . S
H2308 C2322 0.930 . S
H2309 C2324 0.960 . S
H2310 C2324 0.960 . S
H2311 C2324 0.960 . S
C2312 H2304 0.929 . S
C2312 C2313 1.377 . S
C2312 C2314 1.384 . S
C2313 C2312 1.377 . S
C2313 C2319 1.390 . S
C2314 H2305 0.930 . S
C2314 C2312 1.384 . S
C2314 C2315 1.372 . S
C2315 C2314 1.372 . S
C2315 C2316 1.400 . S
C2315 C2320 1.490 . S
C2316 H2306 0.930 . S
C2316 C2315 1.400 . S
C2316 C2319 1.386 . S
H2317 C2333 0.930 . S
H2318 C2334 0.931 . S
C2319 H2307 0.929 . S
C2319 C2313 1.390 . S
C2319 C2316 1.386 . S
C2320 C2315 1.490 . S
C2320 C2322 1.395 . S
C2320 C2323 1.403 . S
H2321 C2327 0.930 . S
C2322 H2308 0.930 . S
C2322 C2320 1.395 . S
C2322 C2325 1.403 . S
C2323 C2320 1.403 . S
C2323 C2324 1.524 . S
C2323 C2327 1.400 . S
C2324 H2309 0.960 . S
C2324 H2310 0.960 . S
C2324 H2311 0.960 . S
C2324 C2323 1.524 . S
C2325 C2322 1.403 . S
C2325 C2326 1.392 . S
C2325 C2329 1.495 . S
C2326 C2325 1.392 . S
C2326 C2327 1.385 . S
C2326 C2328 1.478 . S
C2327 H2321 0.930 . S
C2327 C2323 1.400 . S
C2327 C2326 1.385 . S
C2328 C2326 1.478 . S
C2328 C2330 1.381 . S
C2328 C2334 1.383 . S
C2329 C2325 1.495 . S
C2329 H2335 0.959 . S
C2329 H2336 0.961 . S
C2329 H2337 0.960 . S
C2330 C2328 1.381 . S
C2330 C2331 1.394 . S
C2330 H2338 0.930 . S
C2331 C2330 1.394 . S
C2331 C2332 1.383 . S
C2331 H2339 0.929 . S
C2332 C2331 1.383 . S
C2332 C2333 1.377 . S
C2333 H2317 0.930 . S
C2333 C2332 1.377 . S
C2333 C2334 1.379 . S
C2334 H2318 0.931 . S
C2334 C2328 1.383 . S
C2334 C2333 1.379 . S
H2335 C2329 0.959 . S
H2336 C2329 0.961 . S
H2337 C2329 0.960 . S
H2338 C2330 0.930 . S
H2339 C2331 0.929 . S
H2340 C2348 0.929 . S
H2341 C2350 0.930 . S
H2342 C2352 0.930 . S
H2343 C2355 0.929 . S
H2344 C2358 0.930 . S
H2345 C2360 0.960 . S
H2346 C2360 0.960 . S
H2347 C2360 0.960 . S
C2348 H2340 0.929 . S
C2348 C2349 1.377 . S
C2348 C2350 1.384 . S
C2349 C2348 1.377 . S
C2349 C2355 1.390 . S
C2350 H2341 0.930 . S
C2350 C2348 1.384 . S
C2350 C2351 1.372 . S
C2351 C2350 1.372 . S
C2351 C2352 1.400 . S
C2351 C2356 1.490 . S
C2352 H2342 0.930 . S
C2352 C2351 1.400 . S
C2352 C2355 1.386 . S
H2353 C2369 0.930 . S
H2354 C2370 0.931 . S
C2355 H2343 0.929 . S
C2355 C2349 1.390 . S
C2355 C2352 1.386 . S
C2356 C2351 1.490 . S
C2356 C2358 1.395 . S
C2356 C2359 1.403 . S
H2357 C2363 0.930 . S
C2358 H2344 0.930 . S
C2358 C2356 1.395 . S
C2358 C2361 1.403 . S
C2359 C2356 1.403 . S
C2359 C2360 1.524 . S
C2359 C2363 1.400 . S
C2360 H2345 0.960 . S
C2360 H2346 0.960 . S
C2360 H2347 0.960 . S
C2360 C2359 1.524 . S
C2361 C2358 1.403 . S
C2361 C2362 1.392 . S
C2361 C2365 1.495 . S
C2362 C2361 1.392 . S
C2362 C2363 1.385 . S
C2362 C2364 1.478 . S
C2363 H2357 0.930 . S
C2363 C2359 1.400 . S
C2363 C2362 1.385 . S
C2364 C2362 1.478 . S
C2364 C2366 1.381 . S
C2364 C2370 1.383 . S
C2365 C2361 1.495 . S
C2365 H2371 0.959 . S
C2365 H2372 0.961 . S
C2365 H2373 0.960 . S
C2366 C2364 1.381 . S
C2366 C2367 1.394 . S
C2366 H2374 0.930 . S
C2367 C2366 1.394 . S
C2367 C2368 1.383 . S
C2367 H2375 0.929 . S
C2368 C2367 1.383 . S
C2368 C2369 1.377 . S
C2369 H2353 0.930 . S
C2369 C2368 1.377 . S
C2369 C2370 1.379 . S
C2370 H2354 0.931 . S
C2370 C2364 1.383 . S
C2370 C2369 1.379 . S
H2371 C2365 0.959 . S
H2372 C2365 0.961 . S
H2373 C2365 0.960 . S
H2374 C2366 0.930 . S
H2375 C2367 0.929 . S
H2376 C2384 0.929 . S
H2377 C2386 0.930 . S
H2378 C2388 0.930 . S
H2379 C2391 0.929 . S
H2380 C2394 0.930 . S
H2381 C2396 0.960 . S
H2382 C2396 0.960 . S
H2383 C2396 0.960 . S
C2384 H2376 0.929 . S
C2384 C2385 1.377 . S
C2384 C2386 1.384 . S
C2385 C2384 1.377 . S
C2385 C2391 1.390 . S
C2386 H2377 0.930 . S
C2386 C2384 1.384 . S
C2386 C2387 1.372 . S
C2387 C2386 1.372 . S
C2387 C2388 1.400 . S
C2387 C2392 1.490 . S
C2388 H2378 0.930 . S
C2388 C2387 1.400 . S
C2388 C2391 1.386 . S
H2389 C2405 0.930 . S
H2390 C2406 0.931 . S
C2391 H2379 0.929 . S
C2391 C2385 1.390 . S
C2391 C2388 1.386 . S
C2392 C2387 1.490 . S
C2392 C2394 1.395 . S
C2392 C2395 1.403 . S
H2393 C2399 0.930 . S
C2394 H2380 0.930 . S
C2394 C2392 1.395 . S
C2394 C2397 1.403 . S
C2395 C2392 1.403 . S
C2395 C2396 1.524 . S
C2395 C2399 1.400 . S
C2396 H2381 0.960 . S
C2396 H2382 0.960 . S
C2396 H2383 0.960 . S
C2396 C2395 1.524 . S
C2397 C2394 1.403 . S
C2397 C2398 1.392 . S
C2397 C2401 1.495 . S
C2398 C2397 1.392 . S
C2398 C2399 1.385 . S
C2398 C2400 1.478 . S
C2399 H2393 0.930 . S
C2399 C2395 1.400 . S
C2399 C2398 1.385 . S
C2400 C2398 1.478 . S
C2400 C2402 1.381 . S
C2400 C2406 1.383 . S
C2401 C2397 1.495 . S
C2401 H2407 0.959 . S
C2401 H2408 0.961 . S
C2401 H2409 0.960 . S
C2402 C2400 1.381 . S
C2402 C2403 1.394 . S
C2402 H2410 0.930 . S
C2403 C2402 1.394 . S
C2403 C2404 1.383 . S
C2403 H2411 0.929 . S
C2404 C2403 1.383 . S
C2404 C2405 1.377 . S
C2405 H2389 0.930 . S
C2405 C2404 1.377 . S
C2405 C2406 1.379 . S
C2406 H2390 0.931 . S
C2406 C2400 1.383 . S
C2406 C2405 1.379 . S
H2407 C2401 0.959 . S
H2408 C2401 0.961 . S
H2409 C2401 0.960 . S
H2410 C2402 0.930 . S
H2411 C2403 0.929 . S
H2412 C2420 0.929 . S
H2413 C2422 0.930 . S
H2414 C2424 0.930 . S
H2415 C2427 0.929 . S
H2416 C2430 0.930 . S
H2417 C2432 0.960 . S
H2418 C2432 0.960 . S
H2419 C2432 0.960 . S
C2420 H2412 0.929 . S
C2420 C2421 1.377 . S
C2420 C2422 1.384 . S
C2421 C2420 1.377 . S
C2421 C2427 1.390 . S
C2422 H2413 0.930 . S
C2422 C2420 1.384 . S
C2422 C2423 1.372 . S
C2423 C2422 1.372 . S
C2423 C2424 1.400 . S
C2423 C2428 1.490 . S
C2424 H2414 0.930 . S
C2424 C2423 1.400 . S
C2424 C2427 1.386 . S
H2425 C2441 0.930 . S
H2426 C2442 0.931 . S
C2427 H2415 0.929 . S
C2427 C2421 1.390 . S
C2427 C2424 1.386 . S
C2428 C2423 1.490 . S
C2428 C2430 1.395 . S
C2428 C2431 1.403 . S
H2429 C2435 0.930 . S
C2430 H2416 0.930 . S
C2430 C2428 1.395 . S
C2430 C2433 1.403 . S
C2431 C2428 1.403 . S
C2431 C2432 1.524 . S
C2431 C2435 1.400 . S
C2432 H2417 0.960 . S
C2432 H2418 0.960 . S
C2432 H2419 0.960 . S
C2432 C2431 1.524 . S
C2433 C2430 1.403 . S
C2433 C2434 1.392 . S
C2433 C2437 1.495 . S
C2434 C2433 1.392 . S
C2434 C2435 1.385 . S
C2434 C2436 1.478 . S
C2435 H2429 0.930 . S
C2435 C2431 1.400 . S
C2435 C2434 1.385 . S
C2436 C2434 1.478 . S
C2436 C2438 1.381 . S
C2436 C2442 1.383 . S
C2437 C2433 1.495 . S
C2437 H2443 0.959 . S
C2437 H2444 0.961 . S
C2437 H2445 0.960 . S
C2438 C2436 1.381 . S
C2438 C2439 1.394 . S
C2438 H2446 0.930 . S
C2439 C2438 1.394 . S
C2439 C2440 1.383 . S
C2439 H2447 0.929 . S
C2440 C2439 1.383 . S
C2440 C2441 1.377 . S
C2441 H2425 0.930 . S
C2441 C2440 1.377 . S
C2441 C2442 1.379 . S
C2442 H2426 0.931 . S
C2442 C2436 1.383 . S
C2442 C2441 1.379 . S
H2443 C2437 0.959 . S
H2444 C2437 0.961 . S
H2445 C2437 0.960 . S
H2446 C2438 0.930 . S
H2447 C2439 0.929 . S
H2448 C2456 0.929 . S
H2449 C2458 0.930 . S
H2450 C2460 0.930 . S
H2451 C2463 0.929 . S
H2452 C2466 0.930 . S
H2453 C2468 0.960 . S
H2454 C2468 0.960 . S
H2455 C2468 0.960 . S
C2456 H2448 0.929 . S
C2456 C2457 1.377 . S
C2456 C2458 1.384 . S
C2457 C2456 1.377 . S
C2457 C2463 1.390 . S
C2458 H2449 0.930 . S
C2458 C2456 1.384 . S
C2458 C2459 1.372 . S
C2459 C2458 1.372 . S
C2459 C2460 1.400 . S
C2459 C2464 1.490 . S
C2460 H2450 0.930 . S
C2460 C2459 1.400 . S
C2460 C2463 1.386 . S
H2461 C2477 0.930 . S
H2462 C2478 0.931 . S
C2463 H2451 0.929 . S
C2463 C2457 1.390 . S
C2463 C2460 1.386 . S
C2464 C2459 1.490 . S
C2464 C2466 1.395 . S
C2464 C2467 1.403 . S
H2465 C2471 0.930 . S
C2466 H2452 0.930 . S
C2466 C2464 1.395 . S
C2466 C2469 1.403 . S
C2467 C2464 1.403 . S
C2467 C2468 1.524 . S
C2467 C2471 1.400 . S
C2468 H2453 0.960 . S
C2468 H2454 0.960 . S
C2468 H2455 0.960 . S
C2468 C2467 1.524 . S
C2469 C2466 1.403 . S
C2469 C2470 1.392 . S
C2469 C2473 1.495 . S
C2470 C2469 1.392 . S
C2470 C2471 1.385 . S
C2470 C2472 1.478 . S
C2471 H2465 0.930 . S
C2471 C2467 1.400 . S
C2471 C2470 1.385 . S
C2472 C2470 1.478 . S
C2472 C2474 1.381 . S
C2472 C2478 1.383 . S
C2473 C2469 1.495 . S
C2473 H2479 0.959 . S
C2473 H2480 0.961 . S
C2473 H2481 0.960 . S
C2474 C2472 1.381 . S
C2474 C2475 1.394 . S
C2474 H2482 0.930 . S
C2475 C2474 1.394 . S
C2475 C2476 1.383 . S
C2475 H2483 0.929 . S
C2476 C2475 1.383 . S
C2476 C2477 1.377 . S
C2477 H2461 0.930 . S
C2477 C2476 1.377 . S
C2477 C2478 1.379 . S
C2478 H2462 0.931 . S
C2478 C2472 1.383 . S
C2478 C2477 1.379 . S
H2479 C2473 0.959 . S
H2480 C2473 0.961 . S
H2481 C2473 0.960 . S
H2482 C2474 0.930 . S
H2483 C2475 0.929 . S
H2484 C2492 0.929 . S
H2485 C2494 0.930 . S
H2486 C2496 0.930 . S
H2487 C2499 0.929 . S
H2488 C2502 0.930 . S
H2489 C2504 0.960 . S
H2490 C2504 0.960 . S
H2491 C2504 0.960 . S
C2492 H2484 0.929 . S
C2492 C2493 1.377 . S
C2492 C2494 1.384 . S
C2493 C2492 1.377 . S
C2493 C2499 1.390 . S
C2494 H2485 0.930 . S
C2494 C2492 1.384 . S
C2494 C2495 1.372 . S
C2495 C2494 1.372 . S
C2495 C2496 1.400 . S
C2495 C2500 1.490 . S
C2496 H2486 0.930 . S
C2496 C2495 1.400 . S
C2496 C2499 1.386 . S
H2497 C2513 0.930 . S
H2498 C2514 0.931 . S
C2499 H2487 0.929 . S
C2499 C2493 1.390 . S
C2499 C2496 1.386 . S
C2500 C2495 1.490 . S
C2500 C2502 1.395 . S
C2500 C2503 1.403 . S
H2501 C2507 0.930 . S
C2502 H2488 0.930 . S
C2502 C2500 1.395 . S
C2502 C2505 1.403 . S
C2503 C2500 1.403 . S
C2503 C2504 1.524 . S
C2503 C2507 1.400 . S
C2504 H2489 0.960 . S
C2504 H2490 0.960 . S
C2504 H2491 0.960 . S
C2504 C2503 1.524 . S
C2505 C2502 1.403 . S
C2505 C2506 1.392 . S
C2505 C2509 1.495 . S
C2506 C2505 1.392 . S
C2506 C2507 1.385 . S
C2506 C2508 1.478 . S
C2507 H2501 0.930 . S
C2507 C2503 1.400 . S
C2507 C2506 1.385 . S
C2508 C2506 1.478 . S
C2508 C2510 1.381 . S
C2508 C2514 1.383 . S
C2509 C2505 1.495 . S
C2509 H2515 0.959 . S
C2509 H2516 0.961 . S
C2509 H2517 0.960 . S
C2510 C2508 1.381 . S
C2510 C2511 1.394 . S
C2510 H2518 0.930 . S
C2511 C2510 1.394 . S
C2511 C2512 1.383 . S
C2511 H2519 0.929 . S
C2512 C2511 1.383 . S
C2512 C2513 1.377 . S
C2513 H2497 0.930 . S
C2513 C2512 1.377 . S
C2513 C2514 1.379 . S
C2514 H2498 0.931 . S
C2514 C2508 1.383 . S
C2514 C2513 1.379 . S
H2515 C2509 0.959 . S
H2516 C2509 0.961 . S
H2517 C2509 0.960 . S
H2518 C2510 0.930 . S
H2519 C2511 0.929 . S
C585 C162 1.681 . S
C604 C225 1.676 . S
C621 C174 1.833 . S
C640 C265 1.817 . S
C657 C150 1.606 . S
C676 C304 1.561 . S
C693 C138 1.469 . S
C712 C264 1.450 1_556 S
C748 C305 1.474 1_556 S
C729 C114 1.491 . S
C765 C126 1.314 . S
C784 C224 1.274 . S
C820 C235 1.657 1_556 S
C801 C136 1.652 . S
C856 C275 1.711 . S
C837 C112 1.682 . S
C873 C124 1.662 . S
C892 C314 1.670 . S
C909 C160 1.485 . S
C928 C274 1.506 . S
C945 C172 1.432 . S
C964 C315 1.426 . S
C1000 C234 1.412 . S
C981 C148 1.413 . S
C1036 C345 1.661 . S
C1017 C18 1.681 . S
C1053 C30 1.834 . S
C1072 C385 1.812 . S
C1089 C6 1.603 . S
C1108 C424 1.546 . S
C1125 C210 1.466 . S
C1144 C384 1.409 . S
C1161 C186 1.490 . S
C1180 C425 1.490 . S
C1197 C198 1.314 . S
C1216 C344 1.276 . S
C1233 C208 1.651 . S
C1252 C355 1.642 . S
C1269 C184 1.678 . S
C1288 C395 1.661 . S
C1324 C434 1.686 . S
C1305 C196 1.661 . S
C1341 C16 1.479 . S
C1360 C394 1.501 . S
C1396 C435 1.434 . S
C1377 C28 1.435 . S
C1413 C4 1.419 . S
C1432 C354 1.424 . S
C1468 C465 1.660 . S
C1449 C90 1.678 . S
C1485 C102 1.833 . S
C1504 C505 1.816 . S
C1540 C544 1.565 . S
C1521 C78 1.605 . S
C1576 C504 1.444 . S
C1557 C66 1.469 . S
C1612 C545 1.483 . S
C1593 C42 1.491 . S
C1629 C54 1.314 . S
C1648 C464 1.277 . S
C1665 C64 1.652 . S
C1684 C475 1.651 . S
C1701 C40 1.682 . S
C1720 C515 1.682 . S
C1756 C554 1.693 . S
C1737 C52 1.658 . S
C1773 C88 1.478 . S
C1792 C514 1.488 . S
C1809 C100 1.430 . S
C1828 C555 1.408 . S
C1845 C76 1.410 . S
C1864 C474 1.421 . S
C1881 C189 1.430 . S
C1900 C221 1.430 . S
C1936 C261 1.994 . S
C1917 C201 1.990 . S
C1953 C213 1.575 . S
C1972 C311 1.590 . S
C1989 C81 1.835 . S
C2008 C271 1.846 . S
C2025 C93 1.697 . S
C2044 C301 1.700 . S
C2080 C231 1.270 . S
C2061 C105 1.261 . S
C2097 C45 1.432 . S
C2116 C341 1.436 . S
C2133 C57 1.988 . S
C2152 C381 1.978 . S
C2169 C69 1.571 . S
C2188 C431 1.575 . S
C2205 C153 1.831 . S
C2224 C391 1.836 . S
C2260 C421 1.696 . S
C2241 C165 1.697 . S
C2277 C177 1.258 . S
C2296 C351 1.264 . S
C2313 C117 1.429 . S
C2332 C461 1.408 . S
C2349 C129 1.991 . S
C2368 C501 1.993 . S
C2404 C551 1.576 . S
C2385 C141 1.571 . S
C2421 C9 1.833 . S
C2440 C511 1.838 . S
C2457 C21 1.697 . S
C2476 C541 1.687 . S
C2493 C33 1.262 . S
C2512 C471 1.269 . S
