# Generated by pormake.
# Topology zzz, (3,6)-cn, num edge types: 1
# Building blocks:
#     Node 0, Type 0, BuildingBlock: PAMTOO_clean_linker_0, # of connection points: 3
#     Node 1, Type 0, BuildingBlock: PAMTOO_clean_linker_0, # of connection points: 3
#     Node 2, Type 0, BuildingBlock: PAMTOO_clean_linker_0, # of connection points: 3
#     Node 3, Type 0, BuildingBlock: PAMTOO_clean_linker_0, # of connection points: 3
#     Node 4, Type 0, BuildingBlock: PAMTOO_clean_linker_0, # of connection points: 3
#     Node 5, Type 0, BuildingBlock: PAMTOO_clean_linker_0, # of connection points: 3
#     Node 6, Type 0, BuildingBlock: PAMTOO_clean_linker_0, # of connection points: 3
#     Node 7, Type 0, BuildingBlock: PAMTOO_clean_linker_0, # of connection points: 3
#     Node 8, Type 1, BuildingBlock: PAMTOO_clean_sbu_0, # of connection points: 6
#     Node 9, Type 1, BuildingBlock: PAMTOO_clean_sbu_0, # of connection points: 6
#     Node 10, Type 1, BuildingBlock: PAMTOO_clean_sbu_0, # of connection points: 6
#     Node 11, Type 1, BuildingBlock: PAMTOO_clean_sbu_0, # of connection points: 6
#     Edge 12, Type (0, 1), BuildingBlock: XIVTED_clean_linker_0, # of connection points: 2
#     Edge 13, Type (0, 1), BuildingBlock: XIVTED_clean_linker_0, # of connection points: 2
#     Edge 14, Type (0, 1), BuildingBlock: XIVTED_clean_linker_0, # of connection points: 2
#     Edge 15, Type (0, 1), BuildingBlock: XIVTED_clean_linker_0, # of connection points: 2
#     Edge 16, Type (0, 1), BuildingBlock: XIVTED_clean_linker_0, # of connection points: 2
#     Edge 17, Type (0, 1), BuildingBlock: XIVTED_clean_linker_0, # of connection points: 2
#     Edge 18, Type (0, 1), BuildingBlock: XIVTED_clean_linker_0, # of connection points: 2
#     Edge 19, Type (0, 1), BuildingBlock: XIVTED_clean_linker_0, # of connection points: 2
#     Edge 20, Type (0, 1), BuildingBlock: XIVTED_clean_linker_0, # of connection points: 2
#     Edge 21, Type (0, 1), BuildingBlock: XIVTED_clean_linker_0, # of connection points: 2
#     Edge 22, Type (0, 1), BuildingBlock: XIVTED_clean_linker_0, # of connection points: 2
#     Edge 23, Type (0, 1), BuildingBlock: XIVTED_clean_linker_0, # of connection points: 2
#     Edge 24, Type (0, 1), BuildingBlock: XIVTED_clean_linker_0, # of connection points: 2
#     Edge 25, Type (0, 1), BuildingBlock: XIVTED_clean_linker_0, # of connection points: 2
#     Edge 26, Type (0, 1), BuildingBlock: XIVTED_clean_linker_0, # of connection points: 2
#     Edge 27, Type (0, 1), BuildingBlock: XIVTED_clean_linker_0, # of connection points: 2
#     Edge 28, Type (0, 1), BuildingBlock: XIVTED_clean_linker_0, # of connection points: 2
#     Edge 29, Type (0, 1), BuildingBlock: XIVTED_clean_linker_0, # of connection points: 2
#     Edge 30, Type (0, 1), BuildingBlock: XIVTED_clean_linker_0, # of connection points: 2
#     Edge 31, Type (0, 1), BuildingBlock: XIVTED_clean_linker_0, # of connection points: 2
#     Edge 32, Type (0, 1), BuildingBlock: XIVTED_clean_linker_0, # of connection points: 2
#     Edge 33, Type (0, 1), BuildingBlock: XIVTED_clean_linker_0, # of connection points: 2
#     Edge 34, Type (0, 1), BuildingBlock: XIVTED_clean_linker_0, # of connection points: 2
#     Edge 35, Type (0, 1), BuildingBlock: XIVTED_clean_linker_0, # of connection points: 2
# Relax obj value: 0.217
# Max RMSD: 0.237
# Mean RMSD: 0.124
data_MOF--net-zzz--node1-PAMTOO_clean_sbu_0--node2-PAMTOO_clean_linker_0--edge1-XIVTED_clean_linker_0
_symmetry_space_group_name_H-M    P1
_symmetry_Int_Tables_number       1
_symmetry_cell_setting            triclinic
loop_
_symmetry_equiv_pos_as_xyz
'x, y, z'
_cell_length_a     56.937246
_cell_length_b     49.227543
_cell_length_c     15.674837
_cell_angle_alpha  91.916246
_cell_angle_beta   79.457797
_cell_angle_gamma 85.899753
loop_
_atom_site_label
_atom_site_type_symbol
_atom_site_fract_x
_atom_site_fract_y
_atom_site_fract_z
_atom_type_partial_charge
H0 H 0.84747 0.47016 0.46613 0.0
H1 H 0.78407 0.49238 0.36331 0.0
H2 H 0.80017 0.53939 0.57827 0.0
H3 H 0.73951 0.54482 0.55957 0.0
C4 C 0.74677 0.52859 0.50872 0.0
O5 O 0.76971 0.53412 0.47026 0.0
H6 H 0.74688 0.50902 0.5425 0.0
C7 C 0.83086 0.48274 0.46971 0.0
C8 C 0.82547 0.50477 0.53118 0.0
C9 C 0.81621 0.47807 0.40847 0.0
C10 C 0.79548 0.49544 0.41047 0.0
C11 C 0.78945 0.51719 0.47221 0.0
C12 C 0.80457 0.5221 0.53211 0.0
H13 H 0.98416 0.78956 0.40319 0.0
H14 H 0.99204 0.70307 0.35137 0.0
H15 H 1.01778 0.73777 0.56967 0.0
H16 H 0.03964 0.66451 0.49287 0.0
C17 C 0.033 0.67769 0.44481 0.0
O18 O 1.01175 0.69183 0.485 0.0
H19 H 0.0471 0.69197 0.42473 0.0
C20 C 0.98978 0.76943 0.42169 0.0
C21 C 1.00149 0.76691 0.49269 0.0
C22 C 0.98674 0.74671 0.3697 0.0
C23 C 0.99405 0.72067 0.39199 0.0
C24 C 1.00488 0.71735 0.46473 0.0
C25 C 1.00873 0.74046 0.51514 0.0
H26 H 0.71566 0.98929 0.29205 0.0
H27 H 0.79097 0.9867 0.18862 0.0
H28 H 0.76507 1.00383 0.46309 0.0
H29 H 0.82154 0.02642 0.38348 0.0
C30 C 0.81641 0.01942 0.32182 0.0
O31 O 0.80401 0.99627 0.33693 0.0
H32 H 0.80471 0.03646 0.30299 0.0
C33 C 0.73387 0.99055 0.30279 0.0
C34 C 0.7377 0.99708 0.38643 0.0
C35 C 0.7528 0.9869 0.23171 0.0
C36 C 0.77629 0.9891 0.24377 0.0
C37 C 0.7809 0.99485 0.3271 0.0
C38 C 0.76156 0.99888 0.39901 0.0
H39 H 0.51487 0.67889 0.32416 0.0
H40 H 0.50878 0.74589 0.15793 0.0
H41 H 0.54883 0.75203 0.36531 0.0
H42 H 0.52251 0.80616 0.33137 0.0
C43 C 0.5199 0.80058 0.26458 0.0
O44 O 0.53466 0.7774 0.23423 0.0
H45 H 0.50076 0.79652 0.26816 0.0
C46 C 0.51836 0.69958 0.30675 0.0
C47 C 0.53254 0.71402 0.35308 0.0
C48 C 0.5094 0.71076 0.23704 0.0
C49 C 0.51516 0.73704 0.21265 0.0
C50 C 0.52916 0.75212 0.25922 0.0
C51 C 0.53787 0.74057 0.32983 0.0
H52 H 0.19819 0.56799 0.09897 0.0
H53 H 0.26155 0.54909 0.20594 0.0
H54 H 0.2447 0.49636 0.00529 0.0
H55 H 0.27866 0.46452 0.1334 0.0
C56 C 0.27577 0.48472 0.16914 0.0
O57 O 0.27552 0.50487 0.10968 0.0
H58 H 0.25817 0.48488 0.21427 0.0
C59 C 0.21473 0.55555 0.09837 0.0
C60 C 0.22 0.53215 0.04245 0.0
C61 C 0.22928 0.56167 0.15874 0.0
C62 C 0.25006 0.5447 0.16004 0.0
C63 C 0.25566 0.52125 0.10503 0.0
C64 C 0.2405 0.51476 0.04678 0.0
H65 H 0.0665 0.21849 0.16375 0.0
H66 H 0.05599 0.30072 0.27228 0.0
H67 H 1.02 0.27722 0.0661 0.0
H68 H 0.02524 0.35018 0.10428 0.0
C69 C 0.03457 0.34147 0.15469 0.0
O70 O 0.02501 0.31711 0.17828 0.0
H71 H 0.05399 0.3381 0.12569 0.0
C72 C 0.05956 0.23953 0.16194 0.0
C73 C 0.04386 0.24568 0.10503 0.0
C74 C 0.06381 0.25903 0.22368 0.0
C75 C 0.05324 0.28563 0.22406 0.0
C76 C 0.03774 0.29246 0.16682 0.0
C77 C 0.03306 0.27244 0.10677 0.0
H78 H 0.33589 0.97526 0.26137 0.0
H79 H 0.26503 0.97868 0.41581 0.0
H80 H 0.28047 0.03166 0.20239 0.0
H81 H 0.23201 0.98266 0.29057 0.0
C82 C 0.22776 1.00501 0.30386 0.0
O83 O 0.24668 0.01685 0.3311 0.0
H84 H 0.22513 0.01401 0.24186 0.0
C85 C 0.31731 0.98347 0.27377 0.0
C86 C 0.31037 1.00441 0.22334 0.0
C87 C 0.30115 0.97389 0.34253 0.0
C88 C 0.27749 0.98547 0.36137 0.0
C89 C 0.26973 1.00586 0.31014 0.0
C90 C 0.28622 0.0154 0.24059 0.0
H91 H 0.53734 0.33104 0.29375 0.0
H92 H 0.52175 0.26092 0.44309 0.0
H93 H 0.50594 0.26421 0.18464 0.0
H94 H 0.53953 0.21392 0.28934 0.0
C95 C 0.52022 0.21 0.29755 0.0
O96 O 0.50568 0.23379 0.32216 0.0
H97 H 0.51717 0.20243 0.23318 0.0
C98 C 0.53134 0.31059 0.29789 0.0
C99 C 0.52211 0.29931 0.229 0.0
C100 C 0.53117 0.2971 0.37494 0.0
C101 C 0.52235 0.27129 0.38293 0.0
C102 C 0.51389 0.25897 0.31351 0.0
C103 C 0.51323 0.27329 0.23702 0.0
Dy104 Dy 1.01073 0.01877 0.73437 0.0
Dy105 Dy 0.03382 0.99293 0.89045 0.0
C106 C 0.06757 0.00621 0.7136 0.0
O107 O 1.00281 0.97509 0.72249 0.0
O108 O 0.02981 0.95735 0.80256 0.0
O109 O 1.01254 0.02605 0.59795 0.0
O110 O 0.98355 0.04556 0.69357 0.0
O111 O 0.99454 0.98685 0.92478 0.0
O112 O 0.98065 0.02152 0.84998 0.0
O113 O 0.02604 0.03756 0.92827 0.0
O114 O 0.02865 0.05222 0.79074 0.0
O115 O 0.03465 0.9894 0.02705 0.0
O116 O 0.06004 0.96459 0.93066 0.0
C117 C 1.0148 0.95419 0.74914 0.0
O118 O 0.04871 1.00431 0.6771 0.0
O119 O 0.06531 0.0072 0.79871 0.0
C120 C 1.00466 0.07319 0.59085 0.0
C121 C 0.03075 0.1193 0.55397 0.0
C122 C 0.0303 0.09918 0.48841 0.0
C123 C 1.01737 0.07632 0.50675 0.0
C124 C 1.00422 0.09397 0.65524 0.0
C125 C 1.01708 0.11677 0.63692 0.0
C126 C 0.99625 0.04643 0.61569 0.0
C127 C 0.97696 1.00391 0.91117 0.0
C128 C 0.02815 0.0573 0.87364 0.0
C129 C 0.03897 0.94202 0.04543 0.0
C130 C 1.01902 0.89126 0.06756 0.0
C131 C 1.00419 0.91545 0.07048 0.0
C132 C 1.01403 0.94046 0.06051 0.0
C133 C 0.05389 0.91808 0.04516 0.0
C134 C 0.044 0.89293 0.05683 0.0
C135 C 0.04898 0.96714 0.01142 0.0
H136 H 0.04018 0.10092 0.42313 0.0
H137 H 1.01822 0.06048 0.45635 0.0
H138 H 0.99494 0.09207 0.72131 0.0
H139 H 1.01706 0.13185 0.68883 0.0
H140 H 0.98494 0.91513 0.07744 0.0
H141 H 1.00204 0.95848 0.06027 0.0
H142 H 0.0732 0.91871 0.03233 0.0
H143 H 0.05597 0.87479 0.05633 0.0
Dy144 Dy 0.51548 0.9875 0.71232 0.0
Dy145 Dy 0.52743 0.02632 0.86705 0.0
C146 C 0.51284 0.05249 0.69529 0.0
O147 O 0.55292 0.99882 0.66378 0.0
O148 O 0.56218 1.0044 0.79808 0.0
O149 O 0.50832 0.97844 0.58392 0.0
O150 O 0.50941 0.94644 0.67438 0.0
O151 O 0.52014 0.98615 0.92411 0.0
O152 O 0.53278 0.96033 0.79936 0.0
O153 O 0.48734 0.0331 0.88702 0.0
O154 O 0.48097 0.99469 0.80928 0.0
O155 O 0.52748 0.03624 1.00269 0.0
O156 O 0.54727 0.05936 0.90288 0.0
C157 C 0.56896 1.0012 0.71349 0.0
O158 O 0.50438 0.02945 0.67481 0.0
O159 O 0.52447 0.05457 0.76001 0.0
C160 C 0.4799 0.94566 0.58977 0.0
C161 C 0.43402 0.92936 0.57957 0.0
C162 C 0.43684 0.95559 0.61295 0.0
C163 C 0.45951 0.96358 0.6185 0.0
C164 C 0.47731 0.91941 0.55725 0.0
C165 C 0.45454 0.91129 0.55213 0.0
C166 C 0.5035 0.9535 0.60152 0.0
C167 C 0.52756 0.96245 0.88443 0.0
C168 C 0.4729 0.01542 0.86491 0.0
C169 C 0.56788 0.04214 0.00621 0.0
C170 C 0.61566 0.02336 0.00952 0.0
C171 C 0.59915 1.00516 0.99114 0.0
C172 C 0.57556 0.01439 0.99024 0.0
C173 C 0.58399 0.06042 0.02664 0.0
C174 C 0.60768 0.05106 0.02915 0.0
C175 C 0.54506 0.05188 0.98267 0.0
H176 H 0.42159 0.9703 0.63301 0.0
H177 H 0.46112 0.98379 0.64537 0.0
H178 H 0.49287 0.90513 0.53659 0.0
H179 H 0.45302 0.89087 0.52687 0.0
H180 H 0.60458 0.98385 0.974 0.0
H181 H 0.56362 0.99993 0.97227 0.0
H182 H 0.57854 0.08198 0.03739 0.0
H183 H 0.61977 0.06559 0.04527 0.0
Dy184 Dy 0.55188 0.51102 0.82422 0.0
Dy185 Dy 0.50008 0.5061 0.74763 0.0
C186 C 0.51566 0.46685 0.89368 0.0
O187 O 0.55611 0.47242 0.7424 0.0
O188 O 0.53142 0.48744 0.65276 0.0
O189 O 0.58422 0.49251 0.85911 0.0
O190 O 0.57861 0.53645 0.8591 0.0
O191 O 0.51225 0.54773 0.7246 0.0
O192 O 0.55249 0.53616 0.70642 0.0
O193 O 0.48922 0.53612 0.85979 0.0
O194 O 0.52481 0.53932 0.91196 0.0
O195 O 0.46262 0.49737 0.75213 0.0
O196 O 0.48534 0.50829 0.63111 0.0
C197 C 0.54659 0.46874 0.67352 0.0
O198 O 0.52922 0.48549 0.916 0.0
O199 O 0.50507 0.46915 0.82569 0.0
C200 C 0.60447 0.51847 0.95182 0.0
C201 C 0.63321 0.52195 0.08173 0.0
C202 C 0.62056 0.49878 0.07215 0.0
C203 C 0.60639 0.49703 0.00796 0.0
C204 C 0.61658 0.54185 0.96277 0.0
C205 C 0.63069 0.54362 0.02688 0.0
C206 C 0.59243 0.51578 0.87568 0.0
C207 C 0.53445 0.55336 0.69697 0.0
C208 C 0.50194 0.54643 0.91342 0.0
C209 C 0.44451 0.49949 0.61989 0.0
C210 C 0.40718 0.49596 0.52279 0.0
C211 C 0.43061 0.50036 0.48162 0.0
C212 C 0.44897 0.50212 0.52941 0.0
C213 C 0.42114 0.49508 0.66152 0.0
C214 C 0.40266 0.49341 0.61355 0.0
C215 C 0.4643 0.50177 0.66935 0.0
H216 H 0.62174 0.48184 0.11388 0.0
H217 H 0.59741 0.47863 1.00113 0.0
H218 H 0.61576 0.55851 0.91969 0.0
H219 H 0.64035 0.56163 0.03118 0.0
H220 H 0.43476 0.50288 0.41225 0.0
H221 H 0.46672 0.50562 0.49511 0.0
H222 H 0.41712 0.49298 0.73113 0.0
H223 H 0.3849 0.48977 0.64744 0.0
Dy224 Dy 0.02724 0.54116 0.72895 0.0
Dy225 Dy 1.01675 0.49078 0.86079 0.0
C226 C 0.02728 0.47963 0.65424 0.0
O227 O 0.98714 0.54135 0.76324 0.0
O228 O 0.98393 0.49708 0.80195 0.0
O229 O 0.04265 0.55531 0.60403 0.0
O230 O 0.02198 0.5838 0.70292 0.0
O231 O 1.00848 0.5295 0.94496 0.0
O232 O 0.0312 0.55815 0.85871 0.0
O233 O 0.05395 0.50003 0.86981 0.0
O234 O 0.06386 0.52465 0.74752 0.0
O235 O 0.99843 0.47632 0.98126 0.0
O236 O 0.02283 0.44857 0.89121 0.0
C237 C 0.97461 0.51993 0.77659 0.0
O238 O 0.02162 0.50551 0.64449 0.0
O239 O 0.03103 0.47088 0.72919 0.0
C240 C 0.05532 0.59927 0.60949 0.0
C241 C 0.09852 0.62414 0.56155 0.0
C242 C 0.08315 0.62069 0.50162 0.0
C243 C 0.0618 0.60832 0.52547 0.0
C244 C 0.06946 0.60464 0.67171 0.0
C245 C 0.0908 0.61722 0.6481 0.0
C246 C 0.03606 0.58084 0.62695 0.0
C247 C 1.01942 0.55214 0.93479 0.0
C248 C 0.06979 0.51148 0.81343 0.0
C249 C 0.98794 0.43173 0.97021 0.0
C250 C 0.94415 0.40756 0.00635 0.0
C251 C 0.95931 0.40799 0.06807 0.0
C252 C 0.98102 0.42002 0.05005 0.0
C253 C 0.97425 0.42881 0.90508 0.0
C254 C 0.95259 0.41655 0.92276 0.0
C255 C 1.00654 0.45105 0.96174 0.0
H256 H 0.08845 0.62536 0.43414 0.0
H257 H 0.05118 0.60411 0.47654 0.0
H258 H 0.06475 0.59769 0.73706 0.0
H259 H 0.10193 0.61997 0.69632 0.0
H260 H 0.95348 0.40154 0.13339 0.0
H261 H 0.9914 0.42217 0.10103 0.0
H262 H 0.97939 0.43776 0.84283 0.0
H263 H 0.94163 0.41607 0.87316 0.0
H264 H 0.22057 0.99716 0.48132 0.0
H265 H 0.07713 0.01318 0.53859 0.0
H266 H 0.18229 0.02008 0.27852 0.0
H267 H 0.11286 1.00242 0.75666 0.0
H268 H 0.11589 0.01502 0.44373 0.0
H269 H 0.18211 0.99868 0.58417 0.0
C270 C 0.20413 1.003 0.45884 0.0
C271 C 0.20474 0.00908 0.37145 0.0
C272 C 0.11537 0.01229 0.51229 0.0
C273 C 0.16056 0.01009 0.48817 0.0
C274 C 0.09313 0.01113 0.56682 0.0
C275 C 0.09154 0.00751 0.65624 0.0
C276 C 0.13654 0.00962 0.54648 0.0
C277 C 0.11311 1.00522 0.68832 0.0
C278 C 0.18216 1.00372 0.51743 0.0
C279 C 0.18278 0.01574 0.34545 0.0
N280 N 0.13468 0.00617 0.63354 0.0
N281 N 0.16173 0.01599 0.40316 0.0
H282 H 0.53098 0.20906 0.46141 0.0
H283 H 0.4935 0.05648 0.54646 0.0
H284 H 0.49862 0.16192 0.28423 0.0
H285 H 0.52683 0.10392 0.72084 0.0
H286 H 0.49247 0.09577 0.4548 0.0
H287 H 0.52667 0.172 0.56272 0.0
C288 C 0.5227 0.19101 0.44445 0.0
C289 C 0.51522 0.18853 0.3643 0.0
C290 C 0.49987 0.09763 0.51342 0.0
C291 C 0.51043 0.14576 0.47935 0.0
C292 C 0.50043 0.07516 0.56601 0.0
C293 C 0.51036 0.07669 0.64166 0.0
C294 C 0.5093 0.12191 0.53635 0.0
C295 C 0.51908 0.10158 0.66317 0.0
C296 C 0.52032 0.16978 0.50202 0.0
C297 C 0.50468 0.16464 0.34528 0.0
N298 N 0.51844 0.12304 0.61081 0.0
N299 N 0.50274 0.14415 0.40198 0.0
H300 H 0.27319 0.5128 0.32602 0.0
H301 H 0.40993 0.47083 0.36157 0.0
H302 H 0.32302 0.46469 0.12892 0.0
H303 H 0.35995 0.51684 0.56441 0.0
H304 H 0.37855 0.46939 0.27466 0.0
H305 H 0.30487 0.51593 0.41257 0.0
C306 C 0.29085 0.50296 0.30103 0.0
C307 C 0.29545 0.48812 0.22091 0.0
C308 C 0.37439 0.47982 0.33815 0.0
C309 C 0.33183 0.49165 0.31916 0.0
C310 C 0.39238 0.48077 0.38786 0.0
C311 C 0.38773 0.49411 0.47065 0.0
C312 C 0.3514 0.49232 0.37092 0.0
C313 C 0.3644 0.5061 0.50148 0.0
C314 C 0.30891 0.50469 0.35041 0.0
C315 C 0.3187 0.47605 0.19083 0.0
N316 N 0.34718 0.50499 0.45163 0.0
N317 N 0.33595 0.47796 0.24006 0.0
H318 H 0.02458 0.33298 0.33349 0.0
H319 H 0.02717 0.48986 0.48286 0.0
H320 H 0.0384 0.39644 0.15183 0.0
H321 H 0.02999 0.42366 0.65535 0.0
H322 H 0.02816 0.4566 0.36229 0.0
H323 H 0.0232 0.36642 0.45303 0.0
C324 C 0.02734 0.35392 0.31835 0.0
C325 C 0.03166 0.36184 0.23181 0.0
C326 C 0.02863 0.44935 0.42648 0.0
C327 C 0.02992 0.40049 0.3697 0.0
C328 C 0.02804 0.46835 0.49552 0.0
C329 C 0.02858 0.45963 0.57968 0.0
C330 C 0.02949 0.42134 0.44151 0.0
C331 C 0.02969 0.43142 0.59172 0.0
C332 C 0.02651 0.37308 0.38705 0.0
C333 C 0.03487 0.38947 0.21739 0.0
N334 N 0.03001 0.41336 0.52367 0.0
N335 N 0.03388 0.40777 0.28539 0.0
H336 H 0.82735 0.04068 0.15975 0.0
H337 H 0.96225 0.9713 0.04765 0.0
H338 H 0.85704 0.98598 0.32828 0.0
H339 H 0.93579 0.03607 0.90322 0.0
H340 H 0.92293 0.97289 0.14256 0.0
H341 H 0.86556 0.03539 0.05662 0.0
C342 C 0.84186 0.02731 0.17459 0.0
C343 C 0.839 0.01379 0.25294 0.0
C344 C 0.92569 0.98673 0.09003 0.0
C345 C 0.88303 0.00772 0.13505 0.0
C346 C 0.94825 0.98587 0.0356 0.0
C347 C 0.95265 1.00375 0.9673 0.0
C348 C 0.90711 1.00548 0.07615 0.0
C349 C 0.93345 0.02194 0.95499 0.0
C350 C 0.86374 0.02438 0.11583 0.0
C351 C 0.85847 0.99673 0.26865 0.0
N352 N 0.91165 0.02235 0.00872 0.0
N353 N 0.87962 0.99427 0.21059 0.0
H354 H 0.52572 0.85374 0.30966 0.0
H355 H 0.53423 0.90829 0.82826 0.0
H356 H 0.52423 0.80102 0.08602 0.0
H357 H 0.5249 0.96057 0.06042 0.0
H358 H 0.53483 0.8684 0.91796 0.0
H359 H 0.52975 0.89256 0.21608 0.0
C360 C 0.52663 0.85028 0.24048 0.0
C361 C 0.52507 0.82401 0.20536 0.0
C362 C 0.53275 0.88861 0.94916 0.0
C363 C 0.52921 0.8686 0.09748 0.0
C364 C 0.53248 0.91142 0.89793 0.0
C365 C 0.52939 0.93791 0.93671 0.0
C366 C 0.53008 0.89225 0.03991 0.0
C367 C 0.52716 0.94062 0.02746 0.0
C368 C 0.52879 0.8725 0.18704 0.0
C369 C 0.5258 0.82086 0.11545 0.0
N370 N 0.52752 0.91816 0.07571 0.0
N371 N 0.52782 0.84285 0.06462 0.0
H372 H 0.73867 0.48439 0.40887 0.0
H373 H 0.64097 0.56609 0.18322 0.0
H374 H 0.71877 0.57038 0.45578 0.0
H375 H 0.66328 0.48072 0.12718 0.0
H376 H 0.66913 0.56803 0.28333 0.0
H377 H 0.71134 0.48261 0.30487 0.0
C378 C 0.72855 0.5029 0.39698 0.0
C379 C 0.73073 0.52749 0.4417 0.0
C380 C 0.66787 0.54885 0.24921 0.0
C381 C 0.69936 0.52572 0.32282 0.0
C382 C 0.65181 0.54774 0.1916 0.0
C383 C 0.64963 0.52319 0.14616 0.0
C384 C 0.682 0.52526 0.26194 0.0
C385 C 0.66398 0.50003 0.16134 0.0
C386 C 0.71292 0.5019 0.33778 0.0
C387 C 0.7174 0.55096 0.42332 0.0
N388 N 0.67951 0.50165 0.21761 0.0
N389 N 0.70221 0.54948 0.36578 0.0
H390 H 0.04606 0.68614 0.27037 0.0
H391 H 1.0004 0.54599 0.10758 0.0
H392 H 1.01112 0.62954 0.44528 0.0
H393 H 0.03842 0.60177 0.93651 0.0
H394 H 1.00218 0.57702 0.23157 0.0
H395 H 0.04134 0.65646 0.14696 0.0
C396 C 0.0374 0.6674 0.28261 0.0
C397 C 0.02928 0.66004 0.36801 0.0
C398 C 1.01005 0.58249 0.16682 0.0
C399 C 0.02368 0.6259 0.22707 0.0
C400 C 1.00901 0.56478 0.09585 0.0
C401 C 1.0193 0.57114 0.01108 0.0
C402 C 0.02144 0.60684 0.15319 0.0
C403 C 0.03026 0.59584 1.00037 0.0
C404 C 0.03468 0.65044 0.21222 0.0
C405 C 1.01784 0.63576 0.38031 0.0
N406 N 0.03105 0.61266 0.07031 0.0
N407 N 1.01549 0.61948 0.31075 0.0
H408 H 0.04736 0.27332 0.39569 0.0
H409 H 0.07593 0.12019 0.45662 0.0
H410 H 0.10236 0.222 0.22633 0.0
H411 H 1.01863 0.17257 0.61088 0.0
H412 H 0.09624 0.1605 0.40768 0.0
H413 H 0.04977 0.24243 0.51139 0.0
C414 C 0.06075 0.25619 0.38353 0.0
C415 C 0.07372 0.24935 0.2995 0.0
C416 C 0.07949 0.16314 0.45382 0.0
C417 C 0.07563 0.21323 0.4308 0.0
C418 C 0.06774 0.14016 0.48087 0.0
C419 C 0.04512 0.14307 0.53531 0.0
C420 C 0.06838 0.18921 0.48055 0.0
C421 C 0.03584 0.16933 0.5677 0.0
C422 C 0.06189 0.23827 0.44979 0.0
C423 C 0.09111 0.2272 0.28907 0.0
N424 N 0.04726 0.19139 0.53837 0.0
N425 N 0.09088 0.20921 0.3529 0.0
H426 H 0.29776 0.97829 0.51847 0.0
H427 H 0.42269 0.89939 0.44401 0.0
H428 H 0.32657 0.92504 0.29432 0.0
H429 H 0.39026 0.94267 0.6858 0.0
H430 H 0.38323 0.89713 0.40745 0.0
H431 H 0.32527 0.95462 0.59913 0.0
C432 C 0.30923 0.96089 0.48739 0.0
C433 C 0.31048 0.95403 0.39912 0.0
C434 C 0.38461 0.90665 0.46943 0.0
C435 C 0.34244 0.92749 0.48952 0.0
C436 C 0.40725 0.90783 0.49065 0.0
C437 C 0.40996 0.92212 0.56679 0.0
C438 C 0.36459 0.92038 0.52371 0.0
C439 C 0.38914 0.9325 0.62454 0.0
C440 C 0.3251 0.94748 0.53317 0.0
C441 C 0.32558 0.93132 0.36184 0.0
N442 N 0.3674 0.93207 0.6008 0.0
N443 N 0.34145 0.91931 0.40649 0.0
H444 H 0.50036 0.31703 0.51889 0.0
H445 H 0.58314 0.42805 0.65562 0.0
H446 H 0.57442 0.31477 0.39304 0.0
H447 H 0.51142 0.44583 0.60828 0.0
H448 H 0.58165 0.38037 0.60364 0.0
H449 H 0.50607 0.35733 0.60667 0.0
C450 C 0.51811 0.32422 0.51301 0.0
C451 C 0.53697 0.31272 0.4491 0.0
C452 C 0.56634 0.39488 0.60501 0.0
C453 C 0.54346 0.35881 0.54711 0.0
C454 C 0.56723 0.42197 0.63371 0.0
C455 C 0.54757 0.44095 0.63443 0.0
C456 C 0.54531 0.38675 0.58046 0.0
C457 C 0.52719 0.43203 0.60695 0.0
C458 C 0.52126 0.34739 0.56194 0.0
C459 C 0.55953 0.32314 0.44224 0.0
N460 N 0.52653 0.40553 0.58182 0.0
N461 N 0.56212 0.34597 0.48985 0.0
H462 H 0.20835 0.61303 0.14453 0.0
H463 H 0.13875 0.60214 0.61517 0.0
H464 H 0.22948 0.5588 0.33245 0.0
H465 H 0.11677 0.65799 0.43259 0.0
H466 H 0.17914 0.59884 0.53171 0.0
H467 H 0.18297 0.64089 0.26276 0.0
C468 C 0.20813 0.60739 0.21086 0.0
C469 C 0.22041 0.58306 0.22844 0.0
C470 C 0.16566 0.61235 0.51076 0.0
C471 C 0.19129 0.61465 0.36383 0.0
C472 C 0.14245 0.6145 0.55917 0.0
C473 C 0.12393 0.62956 0.52916 0.0
C474 C 0.1703 0.62482 0.43079 0.0
C475 C 0.13021 0.64512 0.45608 0.0
C476 C 0.19368 0.62333 0.27841 0.0
C477 C 0.22006 0.57714 0.3156 0.0
N478 N 0.1527 0.6417 0.40783 0.0
N479 N 0.20521 0.59242 0.37987 0.0
H480 H 0.94577 0.77204 0.33301 0.0
H481 H 0.03693 0.84122 0.98839 0.0
H482 H 1.01526 0.73511 0.21263 0.0
H483 H 0.97627 0.88026 0.16797 0.0
H484 H 0.02114 0.79699 0.02085 0.0
H485 H 0.94739 0.80341 0.21517 0.0
C486 C 0.96076 0.76953 0.27896 0.0
C487 C 0.98083 0.75186 0.28378 0.0
C488 C 1.01105 0.81538 0.05125 0.0
C489 C 0.98338 0.78827 0.15206 0.0
C490 C 1.02023 0.84061 0.03396 0.0
C491 C 1.00832 0.86457 0.07735 0.0
C492 C 0.98979 0.81414 0.11207 0.0
C493 C 0.98624 0.86252 0.13294 0.0
C494 C 0.96189 0.78771 0.21238 0.0
C495 C 0.99971 0.74909 0.21206 0.0
N496 N 0.97792 0.83777 0.14952 0.0
N497 N 1.00104 0.76798 0.15057 0.0
H498 H 0.75437 0.02517 0.11117 0.0
H499 H 0.63267 0.97376 0.05814 0.0
H500 H 0.73475 0.94363 0.16181 0.0
H501 H 0.6567 0.04958 0.95645 0.0
H502 H 0.67368 0.95844 0.06343 0.0
H503 H 0.7248 0.02996 0.01661 0.0
C504 C 0.74476 0.00772 0.09826 0.0
C505 C 0.74651 0.98418 0.14519 0.0
C506 C 0.67014 0.97829 0.03864 0.0
C507 C 0.71203 0.98984 0.04123 0.0
C508 C 0.64657 0.98712 0.0355 0.0
C509 C 0.64099 0.01329 0.00818 0.0
C510 C 0.68836 0.99596 0.01661 0.0
C511 C 0.65997 0.02963 0.98081 0.0
C512 C 0.72758 0.01057 0.04538 0.0
C513 C 0.73361 0.96221 0.12718 0.0
N514 N 0.68275 0.0209 0.98727 0.0
N515 N 0.71631 0.96585 0.07867 0.0
H516 H 0.4743 0.67776 0.30095 0.0
H517 H 0.4789 0.59125 0.86212 0.0
H518 H 0.51449 0.70307 0.05986 0.0
H519 H 0.503 0.5575 0.08431 0.0
H520 H 0.47144 0.63618 0.93993 0.0
H521 H 0.46344 0.63801 0.22309 0.0
C522 C 0.48021 0.67544 0.23117 0.0
C523 C 0.49603 0.69321 0.18716 0.0
C524 C 0.47758 0.61867 0.97226 0.0
C525 C 0.48293 0.64851 0.09824 0.0
C526 C 0.48171 0.59311 0.9285 0.0
C527 C 0.49155 0.57082 0.96734 0.0
C528 C 0.48259 0.62149 0.0561 0.0
C529 C 0.49535 0.57426 0.05259 0.0
C530 C 0.47394 0.65284 0.18715 0.0
C531 C 0.50253 0.6897 0.09647 0.0
N532 N 0.49089 0.59923 0.09431 0.0
N533 N 0.49631 0.66735 0.05494 0.0
H534 H 0.81495 0.48263 0.23559 0.0
H535 H 0.92305 0.37186 0.1242 0.0
H536 H 0.8366 0.42614 0.41665 0.0
H537 H 0.90573 0.43557 0.95785 0.0
H538 H 0.8825 0.37931 0.20957 0.0
H539 H 0.83799 0.45363 0.11598 0.0
C540 C 0.82395 0.4637 0.25027 0.0
C541 C 0.82448 0.45725 0.33648 0.0
C542 C 0.8874 0.39108 0.15274 0.0
C543 C 0.85147 0.42432 0.19965 0.0
C544 C 0.91058 0.38687 0.10401 0.0
C545 C 0.91824 0.40391 0.03592 0.0
C546 C 0.87188 0.41249 0.13316 0.0
C547 C 0.90097 0.42223 0.01068 0.0
C548 C 0.83725 0.44719 0.18175 0.0
C549 C 0.83643 0.43238 0.35117 0.0
N550 N 0.87882 0.42654 0.06072 0.0
N551 N 0.84995 0.41715 0.28354 0.0
H552 H 0.06009 0.22674 0.93593 0.0
H553 H 1.01505 0.07936 0.04026 0.0
H554 H 1.01223 0.20996 0.17088 0.0
H555 H 0.04389 0.10069 0.77932 0.0
H556 H 1.01564 0.12696 0.08976 0.0
H557 H 0.05498 0.18116 0.87514 0.0
C558 C 0.04788 0.2138 0.97338 0.0
C559 C 0.03615 0.22227 0.0577 0.0
C560 C 0.02177 0.12128 0.02155 0.0
C561 C 0.03113 0.16976 0.99085 0.0
C562 C 0.02162 0.09401 0.99337 0.0
C563 C 0.02941 0.08593 0.90543 0.0
C564 C 0.03008 0.14071 0.96174 0.0
C565 C 0.03756 0.10599 0.84764 0.0
C566 C 0.04518 0.18768 0.93927 0.0
C567 C 0.02119 0.20436 0.10493 0.0
N568 N 0.03782 0.13236 0.87679 0.0
N569 N 1.01934 0.17892 0.07141 0.0
H570 H 0.31896 0.99507 0.04622 0.0
H571 H 0.43677 0.98678 0.82134 0.0
H572 H 0.34675 0.03439 0.25172 0.0
H573 H 0.44941 0.04901 0.00427 0.0
H574 H 0.39524 0.988 0.89516 0.0
H575 H 0.35664 1.00069 0.94638 0.0
C576 C 0.33278 1.0056 0.06956 0.0
C577 C 0.32957 0.01462 0.15704 0.0
C578 C 0.40675 1.00192 0.91852 0.0
C579 C 0.37364 0.01964 0.04465 0.0
C580 C 0.43077 1.00102 0.87652 0.0
C581 C 0.44688 0.01778 0.90635 0.0
C582 C 0.39848 0.01971 0.99174 0.0
C583 C 0.43778 0.03572 0.97851 0.0
C584 C 0.35463 0.00825 0.01306 0.0
C585 C 0.34836 0.0275 0.18442 0.0
N586 N 0.41437 0.03597 0.01905 0.0
N587 N 0.36955 0.02943 0.12888 0.0
H588 H 0.48239 0.31749 0.1633 0.0
H589 H 0.54653 0.44736 0.99539 0.0
H590 H 0.55875 0.3225 0.12919 0.0
H591 H 0.48399 0.42658 0.89542 0.0
H592 H 0.54804 0.40321 0.06052 0.0
H593 H 0.47979 0.35742 0.07327 0.0
C594 C 0.49868 0.32633 0.13425 0.0
C595 C 0.52083 0.31668 0.15372 0.0
C596 C 0.53395 0.40827 0.0244 0.0
C597 C 0.51786 0.36282 0.05453 0.0
C598 C 0.53289 0.43368 0.98791 0.0
C599 C 0.51501 0.44089 0.94001 0.0
C600 C 0.5168 0.38984 0.01467 0.0
C601 C 0.49806 0.42193 0.93195 0.0
C602 C 0.49715 0.34929 0.08387 0.0
C603 C 0.54132 0.3293 0.11592 0.0
N604 N 0.49923 0.39733 0.96951 0.0
N605 N 0.53928 0.35195 0.06983 0.0
H606 H 0.20182 0.56501 0.92907 0.0
H607 H 0.09167 0.47599 0.91059 0.0
H608 H 0.19759 0.48493 0.03086 0.0
H609 H 0.10494 0.54574 0.75435 0.0
H610 H 0.13105 0.47802 0.95031 0.0
H611 H 0.16766 0.55749 0.85866 0.0
C612 C 0.19395 0.54561 0.93514 0.0
C613 C 0.20257 0.52556 0.98591 0.0
C614 C 0.12552 0.4927 0.90651 0.0
C615 C 0.16301 0.51701 0.90702 0.0
C616 C 0.10295 0.49161 0.88388 0.0
C617 C 0.09484 0.51081 0.82925 0.0
C618 C 0.14011 0.51342 0.87562 0.0
C619 C 0.11041 0.53047 0.79644 0.0
C620 C 0.1744 0.54135 0.89509 0.0
C621 C 0.19165 0.50084 0.99183 0.0
N622 N 0.13213 0.53149 0.82103 0.0
N623 N 0.17223 0.49743 0.95406 0.0
H624 H 0.99746 0.77988 0.6693 0.0
H625 H 1.00183 0.93861 0.59599 0.0
H626 H 1.01811 0.81271 0.41709 0.0
H627 H 0.02222 0.90569 0.82591 0.0
H628 H 1.00031 0.89208 0.53793 0.0
H629 H 1.00099 0.82518 0.73671 0.0
C630 C 1.00297 0.79639 0.62819 0.0
C631 C 1.00693 0.79251 0.53723 0.0
C632 C 1.00507 0.89505 0.60122 0.0
C633 C 1.01033 0.84431 0.61358 0.0
C634 C 1.00578 0.92162 0.63462 0.0
C635 C 1.01229 0.9261 0.71567 0.0
C636 C 1.0104 0.87267 0.6498 0.0
C637 C 1.01732 0.90316 0.7627 0.0
C638 C 1.00482 0.82224 0.66662 0.0
C639 C 1.01408 0.81479 0.48733 0.0
N640 N 1.01614 0.87743 0.72937 0.0
N641 N 1.01514 0.83965 0.52591 0.0
H642 H 0.70137 0.03565 0.38558 0.0
H643 H 0.60847 0.98946 0.78925 0.0
H644 H 0.7233 0.97112 0.53991 0.0
H645 H 0.58883 0.01299 0.54761 0.0
H646 H 0.65108 0.99074 0.72204 0.0
H647 H 0.66084 0.03736 0.47145 0.0
C648 C 0.69781 0.02237 0.43944 0.0
C649 C 0.71584 1.0032 0.45541 0.0
C650 C 0.63738 0.99555 0.68399 0.0
C651 C 0.66909 1.00486 0.55388 0.0
C652 C 0.61307 0.99486 0.72216 0.0
C653 C 0.59494 1.00094 0.67385 0.0
C654 C 0.64361 1.00317 0.59768 0.0
C655 C 0.60206 0.00789 0.58726 0.0
C656 C 0.67458 0.02314 0.48773 0.0
C657 C 0.71006 0.98637 0.5258 0.0
N658 N 0.6257 0.00906 0.55247 0.0
N659 N 0.68711 0.98744 0.5722 0.0
H660 H 0.51062 0.71493 0.52203 0.0
H661 H 0.57502 0.56904 0.59009 0.0
H662 H 0.57174 0.67813 0.34203 0.0
H663 H 0.50347 0.59882 0.71488 0.0
H664 H 0.57986 0.61309 0.5213 0.0
H665 H 0.51469 0.67776 0.61967 0.0
C666 C 0.52564 0.69972 0.50521 0.0
C667 C 0.5411 0.6998 0.42467 0.0
C668 C 0.56322 0.60997 0.56449 0.0
C669 C 0.54521 0.65642 0.53373 0.0
C670 C 0.56044 0.58485 0.60363 0.0
C671 C 0.53868 0.58004 0.65741 0.0
C672 C 0.54426 0.63055 0.58061 0.0
C673 C 0.52043 0.60137 0.67297 0.0
C674 C 0.5277 0.67819 0.56005 0.0
C675 C 0.55976 0.67902 0.40441 0.0
N676 N 0.52362 0.62554 0.63478 0.0
N677 N 0.56108 0.65792 0.45788 0.0
H678 H 0.84468 0.46874 0.63308 0.0
H679 H 0.94968 0.56154 0.70853 0.0
H680 H 0.84705 0.55195 0.5571 0.0
H681 H 0.94318 0.47983 0.79696 0.0
H682 H 0.91074 0.56022 0.66327 0.0
H683 H 0.87875 0.47429 0.70505 0.0
C684 C 0.85216 0.48837 0.6329 0.0
C685 C 0.84299 0.5099 0.58892 0.0
C686 C 0.91775 0.54269 0.69334 0.0
C687 C 0.88256 0.51634 0.67 0.0
C688 C 0.94001 0.54342 0.71936 0.0
C689 C 0.94995 0.5207 0.75632 0.0
C690 C 0.90525 0.51904 0.70401 0.0
C691 C 0.93645 0.49783 0.76844 0.0
C692 C 0.87171 0.49153 0.67375 0.0
C693 C 0.85342 0.53489 0.59078 0.0
N694 N 0.915 0.49754 0.7419 0.0
N695 N 0.87283 0.53732 0.62958 0.0
loop_
_geom_bond_atom_site_label_1
_geom_bond_atom_site_label_2
_geom_bond_distance
_geom_bond_site_symmetry_2
_ccdc_geom_bond_type
H0 C7 0.929 . S
H1 C10 0.930 . S
H2 C12 0.929 . S
H3 C4 0.969 . S
C4 H3 0.969 . S
C4 O5 1.550 . S
C4 H6 0.973 . S
O5 C4 1.550 . S
O5 C11 1.412 . S
H6 C4 0.973 . S
C7 H0 0.929 . S
C7 C8 1.400 . S
C7 C9 1.364 . S
C8 C7 1.400 . S
C8 C12 1.377 . S
C9 C7 1.364 . S
C9 C10 1.374 . S
C10 H1 0.930 . S
C10 C9 1.374 . S
C10 C11 1.383 . S
C11 O5 1.412 . S
C11 C10 1.383 . S
C11 C12 1.394 . S
C12 H2 0.929 . S
C12 C8 1.377 . S
C12 C11 1.394 . S
H13 C20 0.929 . S
H14 C23 0.930 . S
H15 C25 0.929 . S
H16 C17 0.969 1_455 S
C17 H16 0.969 1_655 S
C17 O18 1.550 . S
C17 H19 0.973 . S
O18 C17 1.550 . S
O18 C24 1.412 . S
H19 C17 0.973 . S
C20 H13 0.929 . S
C20 C21 1.400 . S
C20 C22 1.364 . S
C21 C20 1.400 . S
C21 C25 1.377 . S
C22 C20 1.364 . S
C22 C23 1.374 . S
C23 H14 0.930 . S
C23 C22 1.374 . S
C23 C24 1.383 . S
C24 O18 1.412 . S
C24 C23 1.383 . S
C24 C25 1.394 . S
C25 H15 0.929 . S
C25 C21 1.377 . S
C25 C24 1.394 . S
H26 C33 0.928 1_565 S
H27 C36 0.930 . S
H28 C38 0.929 1_565 S
H29 C30 0.969 . S
C30 H29 0.969 . S
C30 O31 1.550 1_545 S
C30 H32 0.973 1_545 S
O31 C30 1.550 1_565 S
O31 C37 1.407 1_565 S
H32 C30 0.973 1_565 S
C33 H26 0.928 1_545 S
C33 C34 1.399 . S
C33 C35 1.364 . S
C34 C33 1.399 . S
C34 C38 1.378 . S
C35 C33 1.364 . S
C35 C36 1.375 1_545 S
C36 H27 0.930 . S
C36 C35 1.375 1_565 S
C36 C37 1.382 1_565 S
C37 O31 1.407 1_545 S
C37 C36 1.382 1_545 S
C37 C38 1.392 . S
C38 H28 0.929 1_545 S
C38 C34 1.378 . S
C38 C37 1.392 . S
H39 C46 0.929 . S
H40 C49 0.930 . S
H41 C51 0.929 . S
H42 C43 0.969 . S
C43 H42 0.969 . S
C43 O44 1.550 . S
C43 H45 0.973 . S
O44 C43 1.550 . S
O44 C50 1.412 . S
H45 C43 0.973 . S
C46 H39 0.929 . S
C46 C47 1.400 . S
C46 C48 1.364 . S
C47 C46 1.400 . S
C47 C51 1.377 . S
C48 C46 1.364 . S
C48 C49 1.374 . S
C49 H40 0.930 . S
C49 C48 1.374 . S
C49 C50 1.383 . S
C50 O44 1.412 . S
C50 C49 1.383 . S
C50 C51 1.394 . S
C51 H41 0.929 . S
C51 C47 1.377 . S
C51 C50 1.394 . S
H52 C59 0.929 . S
H53 C62 0.930 . S
H54 C64 0.929 . S
H55 C56 0.969 . S
C56 H55 0.969 . S
C56 O57 1.550 1_554 S
C56 H58 0.973 . S
O57 C56 1.550 1_556 S
O57 C63 1.412 . S
H58 C56 0.973 . S
C59 H52 0.929 . S
C59 C60 1.400 . S
C59 C61 1.364 1_556 S
C60 C59 1.400 . S
C60 C64 1.377 . S
C61 C59 1.364 1_554 S
C61 C62 1.374 . S
C62 H53 0.930 . S
C62 C61 1.374 . S
C62 C63 1.383 1_554 S
C63 O57 1.412 . S
C63 C62 1.383 1_556 S
C63 C64 1.394 . S
C64 H54 0.929 . S
C64 C60 1.377 . S
C64 C63 1.394 . S
H65 C72 0.929 . S
H66 C75 0.930 . S
H67 C77 0.929 1_556 S
H68 C69 0.969 . S
C69 H68 0.969 . S
C69 O70 1.550 . S
C69 H71 0.973 . S
O70 C69 1.550 . S
O70 C76 1.412 . S
H71 C69 0.973 . S
C72 H65 0.929 . S
C72 C73 1.400 . S
C72 C74 1.364 . S
C73 C72 1.400 . S
C73 C77 1.377 . S
C74 C72 1.364 . S
C74 C75 1.374 . S
C75 H66 0.930 . S
C75 C74 1.374 . S
C75 C76 1.383 . S
C76 O70 1.412 . S
C76 C75 1.383 . S
C76 C77 1.394 . S
C77 H67 0.929 1_554 S
C77 C73 1.377 . S
C77 C76 1.394 . S
H78 C85 0.929 1_565 S
H79 C88 0.927 . S
H80 C90 0.928 1_565 S
H81 C82 0.969 . S
C82 H81 0.969 . S
C82 O83 1.550 1_545 S
C82 H84 0.973 1_545 S
O83 C82 1.550 1_565 S
O83 C89 1.399 1_565 S
H84 C82 0.973 1_565 S
C85 H78 0.929 1_545 S
C85 C86 1.400 . S
C85 C87 1.364 . S
C86 C85 1.400 . S
C86 C90 1.376 . S
C87 C85 1.364 . S
C87 C88 1.374 1_545 S
C88 H79 0.927 . S
C88 C87 1.374 1_565 S
C88 C89 1.382 1_565 S
C89 O83 1.399 1_545 S
C89 C88 1.382 1_545 S
C89 C90 1.396 . S
C90 H80 0.928 1_545 S
C90 C86 1.376 . S
C90 C89 1.396 . S
H91 C98 0.929 . S
H92 C101 0.930 . S
H93 C103 0.929 . S
H94 C95 0.969 . S
C95 H94 0.969 . S
C95 O96 1.550 . S
C95 H97 0.973 . S
O96 C95 1.550 . S
O96 C102 1.412 . S
H97 C95 0.973 . S
C98 H91 0.929 . S
C98 C99 1.400 . S
C98 C100 1.364 . S
C99 C98 1.400 . S
C99 C103 1.377 . S
C100 C98 1.364 . S
C100 C101 1.374 . S
C101 H92 0.930 . S
C101 C100 1.374 . S
C101 C102 1.383 . S
C102 O96 1.412 . S
C102 C101 1.383 . S
C102 C103 1.394 . S
C103 H93 0.929 . S
C103 C99 1.377 . S
C103 C102 1.394 . S
Dy104 O107 2.307 1_545 S
Dy104 O109 2.395 1_655 S
Dy104 O110 2.379 . S
Dy104 O112 2.339 . S
Dy104 O114 2.298 . S
Dy104 O118 2.275 1_655 S
Dy104 C126 2.738 . S
Dy105 O108 2.298 . S
Dy105 O111 2.275 1_455 S
Dy105 O113 2.307 1_565 S
Dy105 O115 2.395 1_455 S
Dy105 O116 2.379 . S
Dy105 O119 2.339 . S
Dy105 C135 2.738 . S
C106 O118 1.254 1_565 S
C106 O119 1.257 . S
O107 Dy104 2.307 1_565 S
O107 C117 1.266 . S
O108 Dy105 2.298 . S
O108 C117 1.236 1_455 S
O109 Dy104 2.395 1_455 S
O109 C126 1.255 1_455 S
O110 Dy104 2.379 . S
O110 C126 1.249 . S
O111 Dy105 2.275 1_655 S
O111 C127 1.254 1_565 S
O112 Dy104 2.339 . S
O112 C127 1.257 . S
O113 Dy105 2.307 1_545 S
O113 C128 1.266 . S
O114 Dy104 2.298 . S
O114 C128 1.236 1_655 S
O115 Dy105 2.395 1_655 S
O115 C135 1.255 1_655 S
O116 Dy105 2.379 . S
O116 C135 1.249 . S
C117 O107 1.266 . S
C117 O108 1.236 1_655 S
O118 Dy104 2.275 1_455 S
O118 C106 1.254 1_545 S
O119 Dy105 2.339 . S
O119 C106 1.257 . S
C120 C123 1.344 1_655 S
C120 C124 1.328 . S
C120 C126 1.516 . S
C121 C122 1.304 1_655 S
C121 C125 1.323 . S
C122 C121 1.304 1_455 S
C122 C123 1.371 . S
C122 H136 0.930 . S
C123 C120 1.344 1_455 S
C123 C122 1.371 . S
C123 H137 0.931 . S
C124 C120 1.328 . S
C124 C125 1.433 . S
C124 H138 0.931 . S
C125 C121 1.323 . S
C125 C124 1.433 . S
C125 H139 0.933 . S
C126 Dy104 2.738 . S
C126 O109 1.255 1_655 S
C126 O110 1.249 . S
C126 C120 1.516 . S
C127 O111 1.254 1_545 S
C127 O112 1.257 . S
C128 O113 1.266 . S
C128 O114 1.236 1_455 S
C129 C132 1.344 1_455 S
C129 C133 1.328 . S
C129 C135 1.516 1_554 S
C130 C131 1.304 1_455 S
C130 C134 1.323 . S
C131 C130 1.304 1_655 S
C131 C132 1.371 . S
C131 H140 0.930 . S
C132 C129 1.344 1_655 S
C132 C131 1.371 . S
C132 H141 0.931 . S
C133 C129 1.328 . S
C133 C134 1.433 . S
C133 H142 0.931 . S
C134 C130 1.323 . S
C134 C133 1.433 . S
C134 H143 0.933 . S
C135 Dy105 2.738 . S
C135 O115 1.255 1_455 S
C135 O116 1.249 . S
C135 C129 1.516 1_556 S
H136 C122 0.930 . S
H137 C123 0.931 . S
H138 C124 0.931 . S
H139 C125 0.933 . S
H140 C131 0.930 . S
H141 C132 0.931 . S
H142 C133 0.931 . S
H143 C134 0.933 . S
Dy144 O147 2.307 . S
Dy144 O149 2.395 1_565 S
Dy144 O150 2.379 . S
Dy144 O152 2.339 . S
Dy144 O154 2.298 . S
Dy144 O158 2.275 1_565 S
Dy144 C166 2.738 . S
Dy145 O148 2.298 . S
Dy145 O151 2.275 1_545 S
Dy145 O153 2.307 . S
Dy145 O155 2.395 1_545 S
Dy145 O156 2.379 . S
Dy145 O159 2.339 . S
Dy145 C175 2.738 . S
C146 O158 1.254 . S
C146 O159 1.257 . S
O147 Dy144 2.307 . S
O147 C157 1.266 . S
O148 Dy145 2.298 . S
O148 C157 1.236 1_545 S
O149 Dy144 2.395 1_545 S
O149 C166 1.255 1_545 S
O150 Dy144 2.379 . S
O150 C166 1.249 . S
O151 Dy145 2.275 1_565 S
O151 C167 1.254 . S
O152 Dy144 2.339 . S
O152 C167 1.257 . S
O153 Dy145 2.307 . S
O153 C168 1.266 . S
O154 Dy144 2.298 . S
O154 C168 1.236 1_565 S
O155 Dy145 2.395 1_565 S
O155 C175 1.255 1_565 S
O156 Dy145 2.379 . S
O156 C175 1.249 . S
C157 O147 1.266 . S
C157 O148 1.236 1_565 S
O158 Dy144 2.275 1_545 S
O158 C146 1.254 . S
O159 Dy145 2.339 . S
O159 C146 1.257 . S
C160 C163 1.344 1_565 S
C160 C164 1.328 . S
C160 C166 1.516 . S
C161 C162 1.304 1_565 S
C161 C165 1.323 . S
C162 C161 1.304 1_545 S
C162 C163 1.371 . S
C162 H176 0.930 . S
C163 C160 1.344 1_545 S
C163 C162 1.371 . S
C163 H177 0.931 . S
C164 C160 1.328 . S
C164 C165 1.433 . S
C164 H178 0.931 . S
C165 C161 1.323 . S
C165 C164 1.433 . S
C165 H179 0.933 . S
C166 Dy144 2.738 . S
C166 O149 1.255 1_565 S
C166 O150 1.249 . S
C166 C160 1.516 . S
C167 O151 1.254 . S
C167 O152 1.257 . S
C168 O153 1.266 . S
C168 O154 1.236 1_545 S
C169 C172 1.344 1_545 S
C169 C173 1.328 . S
C169 C175 1.516 1_554 S
C170 C171 1.304 1_545 S
C170 C174 1.323 . S
C171 C170 1.304 1_565 S
C171 C172 1.371 . S
C171 H180 0.930 . S
C172 C169 1.344 1_565 S
C172 C171 1.371 . S
C172 H181 0.931 1_554 S
C173 C169 1.328 . S
C173 C174 1.433 . S
C173 H182 0.931 . S
C174 C170 1.323 . S
C174 C173 1.433 . S
C174 H183 0.933 . S
C175 Dy145 2.738 . S
C175 O155 1.255 1_545 S
C175 O156 1.249 . S
C175 C169 1.516 1_556 S
H176 C162 0.930 . S
H177 C163 0.931 . S
H178 C164 0.931 . S
H179 C165 0.933 . S
H180 C171 0.930 . S
H181 C172 0.931 1_556 S
H182 C173 0.931 . S
H183 C174 0.933 . S
Dy184 O187 2.307 . S
Dy184 O189 2.395 . S
Dy184 O190 2.379 . S
Dy184 O192 2.339 . S
Dy184 O194 2.298 . S
Dy184 O198 2.275 . S
Dy184 C206 2.738 . S
Dy185 O188 2.298 . S
Dy185 O191 2.275 . S
Dy185 O193 2.307 . S
Dy185 O195 2.395 . S
Dy185 O196 2.379 . S
Dy185 O199 2.339 . S
Dy185 C215 2.738 . S
C186 O198 1.254 . S
C186 O199 1.257 . S
O187 Dy184 2.307 . S
O187 C197 1.266 . S
O188 Dy185 2.298 . S
O188 C197 1.236 . S
O189 Dy184 2.395 . S
O189 C206 1.255 . S
O190 Dy184 2.379 . S
O190 C206 1.249 . S
O191 Dy185 2.275 . S
O191 C207 1.254 . S
O192 Dy184 2.339 . S
O192 C207 1.257 . S
O193 Dy185 2.307 . S
O193 C208 1.266 . S
O194 Dy184 2.298 . S
O194 C208 1.236 . S
O195 Dy185 2.395 . S
O195 C215 1.255 . S
O196 Dy185 2.379 . S
O196 C215 1.249 . S
C197 O187 1.266 . S
C197 O188 1.236 . S
O198 Dy184 2.275 . S
O198 C186 1.254 . S
O199 Dy185 2.339 . S
O199 C186 1.257 . S
C200 C203 1.344 1_556 S
C200 C204 1.328 . S
C200 C206 1.516 . S
C201 C202 1.304 . S
C201 C205 1.323 1_554 S
C202 C201 1.304 . S
C202 C203 1.371 . S
C202 H216 0.930 . S
C203 C200 1.344 1_554 S
C203 C202 1.371 . S
C203 H217 0.931 . S
C204 C200 1.328 . S
C204 C205 1.433 . S
C204 H218 0.931 . S
C205 C201 1.323 1_556 S
C205 C204 1.433 . S
C205 H219 0.933 . S
C206 Dy184 2.738 . S
C206 O189 1.255 . S
C206 O190 1.249 . S
C206 C200 1.516 . S
C207 O191 1.254 . S
C207 O192 1.257 . S
C208 O193 1.266 . S
C208 O194 1.236 . S
C209 C212 1.344 . S
C209 C213 1.328 . S
C209 C215 1.516 . S
C210 C211 1.304 . S
C210 C214 1.323 . S
C211 C210 1.304 . S
C211 C212 1.371 . S
C211 H220 0.930 . S
C212 C209 1.344 . S
C212 C211 1.371 . S
C212 H221 0.931 . S
C213 C209 1.328 . S
C213 C214 1.433 . S
C213 H222 0.931 . S
C214 C210 1.323 . S
C214 C213 1.433 . S
C214 H223 0.933 . S
C215 Dy185 2.738 . S
C215 O195 1.255 . S
C215 O196 1.249 . S
C215 C209 1.516 . S
H216 C202 0.930 . S
H217 C203 0.931 . S
H218 C204 0.931 . S
H219 C205 0.933 . S
H220 C211 0.930 . S
H221 C212 0.931 . S
H222 C213 0.931 . S
H223 C214 0.933 . S
Dy224 O227 2.307 1_455 S
Dy224 O229 2.395 . S
Dy224 O230 2.379 . S
Dy224 O232 2.339 . S
Dy224 O234 2.298 . S
Dy224 O238 2.275 . S
Dy224 C246 2.738 . S
Dy225 O228 2.298 . S
Dy225 O231 2.275 . S
Dy225 O233 2.307 1_655 S
Dy225 O235 2.395 . S
Dy225 O236 2.379 . S
Dy225 O239 2.339 . S
Dy225 C255 2.743 . S
C226 O238 1.254 . S
C226 O239 1.257 1_455 S
O227 Dy224 2.307 1_655 S
O227 C237 1.266 . S
O228 Dy225 2.298 . S
O228 C237 1.236 . S
O229 Dy224 2.395 . S
O229 C246 1.255 . S
O230 Dy224 2.379 . S
O230 C246 1.249 . S
O231 Dy225 2.275 . S
O231 C247 1.254 1_655 S
O232 Dy224 2.339 . S
O232 C247 1.257 . S
O233 Dy225 2.307 1_455 S
O233 C248 1.266 . S
O234 Dy224 2.298 . S
O234 C248 1.236 . S
O235 Dy225 2.395 . S
O235 C255 1.255 . S
O236 Dy225 2.379 . S
O236 C255 1.255 . S
C237 O227 1.266 . S
C237 O228 1.236 . S
O238 Dy224 2.275 . S
O238 C226 1.254 . S
O239 Dy225 2.339 . S
O239 C226 1.257 1_655 S
C240 C243 1.344 . S
C240 C244 1.328 . S
C240 C246 1.516 . S
C241 C242 1.304 . S
C241 C245 1.323 . S
C242 C241 1.304 . S
C242 C243 1.371 . S
C242 H256 0.930 . S
C243 C240 1.344 . S
C243 C242 1.371 . S
C243 H257 0.931 . S
C244 C240 1.328 . S
C244 C245 1.433 . S
C244 H258 0.931 . S
C245 C241 1.323 . S
C245 C244 1.433 . S
C245 H259 0.933 . S
C246 Dy224 2.738 . S
C246 O229 1.255 . S
C246 O230 1.249 . S
C246 C240 1.516 . S
C247 O231 1.254 1_455 S
C247 O232 1.257 . S
C248 O233 1.266 . S
C248 O234 1.236 . S
C249 C252 1.344 . S
C249 C253 1.328 . S
C249 C255 1.510 1_554 S
C250 C251 1.304 . S
C250 C254 1.323 . S
C251 C250 1.304 . S
C251 C252 1.371 . S
C251 H260 0.930 . S
C252 C249 1.344 . S
C252 C251 1.371 . S
C252 H261 0.931 . S
C253 C249 1.328 . S
C253 C254 1.433 . S
C253 H262 0.931 . S
C254 C250 1.323 . S
C254 C253 1.433 . S
C254 H263 0.933 . S
C255 Dy225 2.743 . S
C255 O235 1.255 . S
C255 O236 1.255 . S
C255 C249 1.510 1_556 S
H256 C242 0.930 . S
H257 C243 0.931 . S
H258 C244 0.931 . S
H259 C245 0.933 . S
H260 C251 0.930 . S
H261 C252 0.931 . S
H262 C253 0.931 . S
H263 C254 0.933 . S
H264 C270 0.930 . S
H265 C274 0.930 . S
H266 C279 0.929 . S
H267 C277 0.929 . S
H268 C272 0.929 . S
H269 C278 0.929 . S
C270 H264 0.930 . S
C270 C271 1.395 . S
C270 C278 1.378 . S
C271 C270 1.395 . S
C271 C279 1.402 1_545 S
C272 H268 0.929 . S
C272 C274 1.378 . S
C272 C276 1.349 . S
C273 C276 1.463 1_545 S
C273 C278 1.350 . S
C273 N281 1.427 1_545 S
C274 H265 0.930 . S
C274 C272 1.378 . S
C274 C275 1.352 1_565 S
C275 C274 1.352 1_545 S
C275 C277 1.450 . S
C276 C272 1.349 . S
C276 C273 1.463 1_565 S
C276 N280 1.428 1_565 S
C277 H267 0.929 . S
C277 C275 1.450 . S
C277 N280 1.384 . S
C278 H269 0.929 . S
C278 C270 1.378 . S
C278 C273 1.350 . S
C279 H266 0.929 . S
C279 C271 1.402 1_565 S
C279 N281 1.384 . S
N280 C276 1.428 1_545 S
N280 C277 1.384 . S
N281 C273 1.427 1_565 S
N281 C279 1.384 . S
H282 C288 0.930 . S
H283 C292 0.930 . S
H284 C297 0.929 . S
H285 C295 0.929 . S
H286 C290 0.929 . S
H287 C296 0.929 . S
C288 H282 0.930 . S
C288 C289 1.367 . S
C288 C296 1.378 . S
C289 C288 1.367 . S
C289 C297 1.433 . S
C290 H286 0.929 . S
C290 C292 1.378 . S
C290 C294 1.350 . S
C291 C294 1.463 . S
C291 C296 1.350 . S
C291 N299 1.427 . S
C292 H283 0.930 . S
C292 C290 1.378 . S
C292 C293 1.367 . S
C293 C292 1.367 . S
C293 C295 1.433 . S
C294 C290 1.350 . S
C294 C291 1.463 . S
C294 N298 1.427 . S
C295 H285 0.929 . S
C295 C293 1.433 . S
C295 N298 1.384 . S
C296 H287 0.929 . S
C296 C288 1.378 . S
C296 C291 1.350 . S
C297 H284 0.929 . S
C297 C289 1.433 . S
C297 N299 1.384 . S
N298 C294 1.427 . S
N298 C295 1.384 . S
N299 C291 1.427 . S
N299 C297 1.384 . S
H300 C306 0.930 . S
H301 C310 0.930 . S
H302 C315 0.929 . S
H303 C313 0.929 . S
H304 C308 0.929 . S
H305 C314 0.929 . S
C306 H300 0.930 . S
C306 C307 1.367 . S
C306 C314 1.378 . S
C307 C306 1.367 . S
C307 C315 1.433 . S
C308 H304 0.929 . S
C308 C310 1.378 . S
C308 C312 1.350 . S
C309 C312 1.463 . S
C309 C314 1.350 . S
C309 N317 1.427 . S
C310 H301 0.930 . S
C310 C308 1.378 . S
C310 C311 1.367 . S
C311 C310 1.367 . S
C311 C313 1.433 . S
C312 C308 1.350 . S
C312 C309 1.463 . S
C312 N316 1.427 . S
C313 H303 0.929 . S
C313 C311 1.433 . S
C313 N316 1.384 . S
C314 H305 0.929 . S
C314 C306 1.378 . S
C314 C309 1.350 . S
C315 H302 0.929 . S
C315 C307 1.433 . S
C315 N317 1.384 . S
N316 C312 1.427 . S
N316 C313 1.384 . S
N317 C309 1.427 . S
N317 C315 1.384 . S
H318 C324 0.930 . S
H319 C328 0.930 1_655 S
H320 C333 0.929 . S
H321 C331 0.929 . S
H322 C326 0.929 . S
H323 C332 0.929 . S
C324 H318 0.930 . S
C324 C325 1.367 . S
C324 C332 1.378 . S
C325 C324 1.367 . S
C325 C333 1.433 . S
C326 H322 0.929 . S
C326 C328 1.378 . S
C326 C330 1.350 . S
C327 C330 1.463 . S
C327 C332 1.350 . S
C327 N335 1.427 . S
C328 H319 0.930 1_455 S
C328 C326 1.378 . S
C328 C329 1.367 . S
C329 C328 1.367 . S
C329 C331 1.433 . S
C330 C326 1.350 . S
C330 C327 1.463 . S
C330 N334 1.427 . S
C331 H321 0.929 . S
C331 C329 1.433 . S
C331 N334 1.384 . S
C332 H323 0.929 . S
C332 C324 1.378 . S
C332 C327 1.350 . S
C333 H320 0.929 . S
C333 C325 1.433 . S
C333 N335 1.384 . S
N334 C330 1.427 . S
N334 C331 1.384 . S
N335 C327 1.427 . S
N335 C333 1.384 . S
H336 C342 0.930 . S
H337 C346 0.930 . S
H338 C351 0.929 . S
H339 C349 0.929 . S
H340 C344 0.929 . S
H341 C350 0.929 . S
C342 H336 0.930 . S
C342 C343 1.386 . S
C342 C350 1.378 . S
C343 C342 1.386 . S
C343 C351 1.416 1_545 S
C344 H340 0.929 . S
C344 C346 1.378 1_554 S
C344 C348 1.350 . S
C345 C348 1.463 1_545 S
C345 C350 1.365 . S
C345 N353 1.410 1_545 S
C346 H337 0.930 . S
C346 C344 1.378 1_556 S
C346 C347 1.367 . S
C347 C346 1.367 . S
C347 C349 1.433 1_565 S
C348 C344 1.350 . S
C348 C345 1.463 1_565 S
C348 N352 1.427 1_565 S
C349 H339 0.929 . S
C349 C347 1.433 1_545 S
C349 N352 1.384 1_556 S
C350 H341 0.929 . S
C350 C342 1.378 . S
C350 C345 1.365 . S
C351 H338 0.929 . S
C351 C343 1.416 1_565 S
C351 N353 1.384 . S
N352 C348 1.427 1_545 S
N352 C349 1.384 1_554 S
N353 C345 1.410 1_565 S
N353 C351 1.384 . S
H354 C360 0.930 . S
H355 C364 0.930 . S
H356 C369 0.929 . S
H357 C367 0.929 1_554 S
H358 C362 0.929 . S
H359 C368 0.929 . S
C360 H354 0.930 . S
C360 C361 1.367 . S
C360 C368 1.378 . S
C361 C360 1.367 . S
C361 C369 1.433 1_554 S
C362 H358 0.929 . S
C362 C364 1.378 . S
C362 C366 1.350 . S
C363 C366 1.463 1_554 S
C363 C368 1.350 . S
C363 N371 1.427 1_554 S
C364 H355 0.930 . S
C364 C362 1.378 . S
C364 C365 1.367 . S
C365 C364 1.367 . S
C365 C367 1.433 . S
C366 C362 1.350 . S
C366 C363 1.463 1_556 S
C366 N370 1.427 1_556 S
C367 H357 0.929 1_556 S
C367 C365 1.433 . S
C367 N370 1.384 1_556 S
C368 H359 0.929 . S
C368 C360 1.378 . S
C368 C363 1.350 . S
C369 H356 0.929 . S
C369 C361 1.433 1_556 S
C369 N371 1.384 . S
N370 C366 1.427 1_554 S
N370 C367 1.384 1_554 S
N371 C363 1.427 1_556 S
N371 C369 1.384 . S
H372 C378 0.930 . S
H373 C382 0.930 . S
H374 C387 0.929 . S
H375 C385 0.929 . S
H376 C380 0.929 . S
H377 C386 0.929 . S
C378 H372 0.930 . S
C378 C379 1.367 . S
C378 C386 1.378 . S
C379 C378 1.367 . S
C379 C387 1.433 . S
C380 H376 0.929 . S
C380 C382 1.378 . S
C380 C384 1.350 . S
C381 C384 1.463 . S
C381 C386 1.350 . S
C381 N389 1.427 . S
C382 H373 0.930 . S
C382 C380 1.378 . S
C382 C383 1.367 . S
C383 C382 1.367 . S
C383 C385 1.433 . S
C384 C380 1.350 . S
C384 C381 1.463 . S
C384 N388 1.427 . S
C385 H375 0.929 . S
C385 C383 1.433 . S
C385 N388 1.384 . S
C386 H377 0.929 . S
C386 C378 1.378 . S
C386 C381 1.350 . S
C387 H374 0.929 . S
C387 C379 1.433 . S
C387 N389 1.384 . S
N388 C384 1.427 . S
N388 C385 1.384 . S
N389 C381 1.427 . S
N389 C387 1.384 . S
H390 C396 0.930 . S
H391 C400 0.930 1_556 S
H392 C405 0.929 . S
H393 C403 0.929 . S
H394 C398 0.929 . S
H395 C404 0.929 . S
C396 H390 0.930 . S
C396 C397 1.367 1_455 S
C396 C404 1.378 . S
C397 C396 1.367 1_655 S
C397 C405 1.433 . S
C398 H394 0.929 . S
C398 C400 1.378 . S
C398 C402 1.350 . S
C399 C402 1.463 . S
C399 C404 1.350 1_655 S
C399 N407 1.427 . S
C400 H391 0.930 1_554 S
C400 C398 1.378 . S
C400 C401 1.367 1_554 S
C401 C400 1.367 1_556 S
C401 C403 1.433 1_655 S
C402 C398 1.350 . S
C402 C399 1.463 . S
C402 N406 1.427 1_655 S
C403 H393 0.929 . S
C403 C401 1.433 1_455 S
C403 N406 1.384 1_556 S
C404 H395 0.929 . S
C404 C396 1.378 . S
C404 C399 1.350 1_455 S
C405 H392 0.929 . S
C405 C397 1.433 . S
C405 N407 1.384 . S
N406 C402 1.427 1_455 S
N406 C403 1.384 1_554 S
N407 C399 1.427 . S
N407 C405 1.384 . S
H408 C414 0.930 1_655 S
H409 C418 0.949 . S
H410 C423 0.929 . S
H411 C421 0.929 . S
H412 C416 0.956 . S
H413 C422 0.929 . S
C414 H408 0.930 1_455 S
C414 C415 1.367 . S
C414 C422 1.378 1_455 S
C415 C414 1.367 . S
C415 C423 1.433 . S
C416 H412 0.956 . S
C416 C418 1.370 1_455 S
C416 C420 1.333 1_455 S
C417 C420 1.456 1_455 S
C417 C422 1.334 1_455 S
C417 N425 1.453 . S
C418 H409 0.949 . S
C418 C416 1.370 1_655 S
C418 C419 1.367 . S
C419 C418 1.367 . S
C419 C421 1.433 . S
C420 C416 1.333 1_655 S
C420 C417 1.456 1_655 S
C420 N424 1.427 . S
C421 H411 0.929 . S
C421 C419 1.433 . S
C421 N424 1.384 . S
C422 H413 0.929 . S
C422 C414 1.378 1_655 S
C422 C417 1.334 1_655 S
C423 H410 0.929 . S
C423 C415 1.433 . S
C423 N425 1.384 . S
N424 C420 1.427 . S
N424 C421 1.384 . S
N425 C417 1.453 . S
N425 C423 1.384 . S
H426 C432 0.930 . S
H427 C436 0.930 . S
H428 C441 0.929 . S
H429 C439 0.929 1_545 S
H430 C434 0.929 . S
H431 C440 0.929 . S
C432 H426 0.930 . S
C432 C433 1.376 . S
C432 C440 1.378 . S
C433 C432 1.376 . S
C433 C441 1.422 1_545 S
C434 H430 0.929 . S
C434 C436 1.378 . S
C434 C438 1.350 . S
C435 C438 1.463 . S
C435 C440 1.350 1_565 S
C435 N443 1.427 . S
C436 H427 0.930 . S
C436 C434 1.378 . S
C436 C437 1.367 . S
C437 C436 1.367 . S
C437 C439 1.433 . S
C438 C434 1.350 . S
C438 C435 1.463 . S
C438 N442 1.427 . S
C439 H429 0.929 1_565 S
C439 C437 1.433 . S
C439 N442 1.384 . S
C440 H431 0.929 . S
C440 C432 1.378 . S
C440 C435 1.350 1_545 S
C441 H428 0.929 . S
C441 C433 1.422 1_565 S
C441 N443 1.384 . S
N442 C438 1.427 . S
N442 C439 1.384 . S
N443 C435 1.427 . S
N443 C441 1.384 . S
H444 C450 0.930 . S
H445 C454 0.930 . S
H446 C459 0.929 . S
H447 C457 0.929 . S
H448 C452 0.929 . S
H449 C458 0.929 . S
C450 H444 0.930 . S
C450 C451 1.367 . S
C450 C458 1.378 . S
C451 C450 1.367 . S
C451 C459 1.433 . S
C452 H448 0.929 . S
C452 C454 1.378 . S
C452 C456 1.350 . S
C453 C456 1.463 . S
C453 C458 1.350 . S
C453 N461 1.427 . S
C454 H445 0.930 . S
C454 C452 1.378 . S
C454 C455 1.367 . S
C455 C454 1.367 . S
C455 C457 1.433 . S
C456 C452 1.350 . S
C456 C453 1.463 . S
C456 N460 1.427 . S
C457 H447 0.929 . S
C457 C455 1.433 . S
C457 N460 1.384 . S
C458 H449 0.929 . S
C458 C450 1.378 . S
C458 C453 1.350 . S
C459 H446 0.929 . S
C459 C451 1.433 . S
C459 N461 1.384 . S
N460 C456 1.427 . S
N460 C457 1.384 . S
N461 C453 1.427 . S
N461 C459 1.384 . S
H462 C468 0.930 . S
H463 C472 0.930 . S
H464 C477 0.929 . S
H465 C475 0.929 . S
H466 C470 0.929 . S
H467 C476 0.929 . S
C468 H462 0.930 . S
C468 C469 1.367 . S
C468 C476 1.378 . S
C469 C468 1.367 . S
C469 C477 1.433 . S
C470 H466 0.929 . S
C470 C472 1.378 . S
C470 C474 1.350 . S
C471 C474 1.463 . S
C471 C476 1.350 . S
C471 N479 1.427 . S
C472 H463 0.930 . S
C472 C470 1.378 . S
C472 C473 1.367 . S
C473 C472 1.367 . S
C473 C475 1.433 . S
C474 C470 1.350 . S
C474 C471 1.463 . S
C474 N478 1.427 . S
C475 H465 0.929 . S
C475 C473 1.433 . S
C475 N478 1.384 . S
C476 H467 0.929 . S
C476 C468 1.378 . S
C476 C471 1.350 . S
C477 H464 0.929 . S
C477 C469 1.433 . S
C477 N479 1.384 . S
N478 C474 1.427 . S
N478 C475 1.384 . S
N479 C471 1.427 . S
N479 C477 1.384 . S
H480 C486 0.930 . S
H481 C490 0.930 . S
H482 C495 0.929 . S
H483 C493 0.929 . S
H484 C488 0.929 . S
H485 C494 0.929 . S
C486 H480 0.930 . S
C486 C487 1.367 . S
C486 C494 1.378 . S
C487 C486 1.367 . S
C487 C495 1.433 1_655 S
C488 H484 0.929 . S
C488 C490 1.378 . S
C488 C492 1.350 . S
C489 C492 1.463 . S
C489 C494 1.350 1_455 S
C489 N497 1.427 . S
C490 H481 0.930 . S
C490 C488 1.378 . S
C490 C491 1.367 . S
C491 C490 1.367 . S
C491 C493 1.433 1_455 S
C492 C488 1.350 . S
C492 C489 1.463 . S
C492 N496 1.427 1_455 S
C493 H483 0.929 . S
C493 C491 1.433 1_655 S
C493 N496 1.384 . S
C494 H485 0.929 . S
C494 C486 1.378 . S
C494 C489 1.350 1_655 S
C495 H482 0.929 . S
C495 C487 1.433 1_455 S
C495 N497 1.384 . S
N496 C492 1.427 1_655 S
N496 C493 1.384 . S
N497 C489 1.427 . S
N497 C495 1.384 . S
H498 C504 0.930 . S
H499 C508 0.930 . S
H500 C513 0.929 . S
H501 C511 0.929 . S
H502 C506 0.929 . S
H503 C512 0.929 . S
C504 H498 0.930 . S
C504 C505 1.388 . S
C504 C512 1.378 . S
C505 C504 1.388 . S
C505 C513 1.414 1_545 S
C506 H502 0.929 . S
C506 C508 1.378 . S
C506 C510 1.350 1_565 S
C507 C510 1.463 . S
C507 C512 1.350 . S
C507 N515 1.427 1_545 S
C508 H499 0.930 . S
C508 C506 1.378 . S
C508 C509 1.367 1_565 S
C509 C508 1.367 1_545 S
C509 C511 1.433 . S
C510 C506 1.350 1_545 S
C510 C507 1.463 . S
C510 N514 1.427 . S
C511 H501 0.929 . S
C511 C509 1.433 . S
C511 N514 1.384 . S
C512 H503 0.929 . S
C512 C504 1.378 . S
C512 C507 1.350 . S
C513 H500 0.929 . S
C513 C505 1.414 1_565 S
C513 N515 1.384 . S
N514 C510 1.427 . S
N514 C511 1.384 . S
N515 C507 1.427 1_565 S
N515 C513 1.384 . S
H516 C522 0.930 . S
H517 C526 0.930 . S
H518 C531 0.929 1_556 S
H519 C529 0.929 . S
H520 C524 0.929 . S
H521 C530 0.929 . S
C522 H516 0.930 . S
C522 C523 1.367 . S
C522 C530 1.378 . S
C523 C522 1.367 . S
C523 C531 1.433 . S
C524 H520 0.929 . S
C524 C526 1.378 . S
C524 C528 1.336 1_556 S
C525 C528 1.468 . S
C525 C530 1.350 . S
C525 N533 1.427 1_554 S
C526 H517 0.930 . S
C526 C524 1.378 . S
C526 C527 1.367 . S
C527 C526 1.367 . S
C527 C529 1.433 1_556 S
C528 C524 1.336 1_554 S
C528 C525 1.468 . S
C528 N532 1.437 . S
C529 H519 0.929 . S
C529 C527 1.433 1_554 S
C529 N532 1.384 . S
C530 H521 0.929 . S
C530 C522 1.378 . S
C530 C525 1.350 . S
C531 H518 0.929 1_554 S
C531 C523 1.433 . S
C531 N533 1.384 1_554 S
N532 C528 1.437 . S
N532 C529 1.384 . S
N533 C525 1.427 1_556 S
N533 C531 1.384 1_556 S
H534 C540 0.930 . S
H535 C544 0.930 . S
H536 C549 0.929 . S
H537 C547 0.929 . S
H538 C542 0.929 . S
H539 C548 0.929 . S
C540 H534 0.930 . S
C540 C541 1.367 . S
C540 C548 1.378 . S
C541 C540 1.367 . S
C541 C549 1.433 . S
C542 H538 0.929 . S
C542 C544 1.378 . S
C542 C546 1.350 . S
C543 C546 1.463 . S
C543 C548 1.350 . S
C543 N551 1.427 . S
C544 H535 0.930 . S
C544 C542 1.378 . S
C544 C545 1.367 . S
C545 C544 1.367 . S
C545 C547 1.433 . S
C546 C542 1.350 . S
C546 C543 1.463 . S
C546 N550 1.427 . S
C547 H537 0.929 . S
C547 C545 1.433 . S
C547 N550 1.384 . S
C548 H539 0.929 . S
C548 C540 1.378 . S
C548 C543 1.350 . S
C549 H536 0.929 . S
C549 C541 1.433 . S
C549 N551 1.384 . S
N550 C546 1.427 . S
N550 C547 1.384 . S
N551 C543 1.427 . S
N551 C549 1.384 . S
H552 C558 0.930 . S
H553 C562 0.930 1_654 S
H554 C567 0.923 1_655 S
H555 C565 0.929 . S
H556 C560 0.929 1_654 S
H557 C566 0.929 . S
C558 H552 0.930 . S
C558 C559 1.367 . S
C558 C566 1.378 . S
C559 C558 1.367 . S
C559 C567 1.444 1_556 S
C560 H556 0.929 1_456 S
C560 C562 1.378 . S
C560 C564 1.350 . S
C561 C564 1.463 . S
C561 C566 1.350 . S
C561 N569 1.439 1_556 S
C562 H553 0.930 1_456 S
C562 C560 1.378 . S
C562 C563 1.367 . S
C563 C562 1.367 . S
C563 C565 1.433 . S
C564 C560 1.350 . S
C564 C561 1.463 . S
C564 N568 1.427 . S
C565 H555 0.929 . S
C565 C563 1.433 . S
C565 N568 1.384 . S
C566 H557 0.929 . S
C566 C558 1.378 . S
C566 C561 1.350 . S
C567 H554 0.923 1_455 S
C567 C559 1.444 1_554 S
C567 N569 1.385 . S
N568 C564 1.427 . S
N568 C565 1.384 . S
N569 C561 1.439 1_554 S
N569 C567 1.385 . S
H570 C576 0.930 . S
H571 C580 0.930 . S
H572 C585 0.929 . S
H573 C583 0.929 1_565 S
H574 C578 0.929 . S
H575 C584 0.929 . S
C576 H570 0.930 . S
C576 C577 1.367 1_565 S
C576 C584 1.378 . S
C577 C576 1.367 1_545 S
C577 C585 1.433 1_554 S
C578 H574 0.929 . S
C578 C580 1.378 . S
C578 C582 1.350 . S
C579 C582 1.463 1_554 S
C579 C584 1.350 1_545 S
C579 N587 1.427 1_554 S
C580 H571 0.930 . S
C580 C578 1.378 . S
C580 C581 1.367 . S
C581 C580 1.367 . S
C581 C583 1.433 1_556 S
C582 C578 1.350 . S
C582 C579 1.463 1_556 S
C582 N586 1.431 1_556 S
C583 H573 0.929 1_545 S
C583 C581 1.433 1_554 S
C583 N586 1.387 . S
C584 H575 0.929 . S
C584 C576 1.378 . S
C584 C579 1.350 1_565 S
C585 H572 0.929 . S
C585 C577 1.433 1_556 S
C585 N587 1.384 . S
N586 C582 1.431 1_554 S
N586 C583 1.387 . S
N587 C579 1.427 1_556 S
N587 C585 1.384 . S
H588 C594 0.930 . S
H589 C598 0.930 . S
H590 C603 0.929 . S
H591 C601 0.929 . S
H592 C596 0.929 . S
H593 C602 0.929 . S
C594 H588 0.930 . S
C594 C595 1.367 . S
C594 C602 1.378 . S
C595 C594 1.367 . S
C595 C603 1.433 . S
C596 H592 0.929 . S
C596 C598 1.378 . S
C596 C600 1.350 . S
C597 C600 1.463 . S
C597 C602 1.350 . S
C597 N605 1.427 . S
C598 H589 0.930 . S
C598 C596 1.378 . S
C598 C599 1.367 1_554 S
C599 C598 1.367 1_556 S
C599 C601 1.433 . S
C600 C596 1.350 . S
C600 C597 1.463 . S
C600 N604 1.427 . S
C601 H591 0.929 . S
C601 C599 1.433 . S
C601 N604 1.384 1_556 S
C602 H593 0.929 . S
C602 C594 1.378 . S
C602 C597 1.350 . S
C603 H590 0.929 . S
C603 C595 1.433 . S
C603 N605 1.384 . S
N604 C600 1.427 . S
N604 C601 1.384 1_554 S
N605 C597 1.427 . S
N605 C603 1.384 . S
H606 C612 0.930 . S
H607 C616 0.930 . S
H608 C621 0.929 . S
H609 C619 0.929 . S
H610 C614 0.929 . S
H611 C620 0.929 . S
C612 H606 0.930 . S
C612 C613 1.367 . S
C612 C620 1.378 . S
C613 C612 1.367 . S
C613 C621 1.433 . S
C614 H610 0.929 . S
C614 C616 1.378 . S
C614 C618 1.350 . S
C615 C618 1.463 . S
C615 C620 1.350 . S
C615 N623 1.427 . S
C616 H607 0.930 . S
C616 C614 1.378 . S
C616 C617 1.367 . S
C617 C616 1.367 . S
C617 C619 1.433 . S
C618 C614 1.350 . S
C618 C615 1.463 . S
C618 N622 1.427 . S
C619 H609 0.929 . S
C619 C617 1.433 . S
C619 N622 1.384 . S
C620 H611 0.929 . S
C620 C612 1.378 . S
C620 C615 1.350 . S
C621 H608 0.929 . S
C621 C613 1.433 . S
C621 N623 1.384 . S
N622 C618 1.427 . S
N622 C619 1.384 . S
N623 C615 1.427 . S
N623 C621 1.384 . S
H624 C630 0.930 . S
H625 C634 0.929 1_455 S
H626 C639 0.929 1_455 S
H627 C637 0.929 . S
H628 C632 0.930 1_455 S
H629 C638 0.929 . S
C630 H624 0.930 . S
C630 C631 1.367 . S
C630 C638 1.378 . S
C631 C630 1.367 . S
C631 C639 1.433 . S
C632 H628 0.930 1_655 S
C632 C634 1.378 . S
C632 C636 1.350 . S
C633 C636 1.463 . S
C633 C638 1.350 . S
C633 N641 1.427 . S
C634 H625 0.929 1_655 S
C634 C632 1.378 . S
C634 C635 1.367 . S
C635 C634 1.367 . S
C635 C637 1.433 . S
C636 C632 1.350 . S
C636 C633 1.463 . S
C636 N640 1.427 . S
C637 H627 0.929 . S
C637 C635 1.433 . S
C637 N640 1.384 . S
C638 H629 0.929 . S
C638 C630 1.378 . S
C638 C633 1.350 . S
C639 H626 0.929 1_655 S
C639 C631 1.433 . S
C639 N641 1.384 . S
N640 C636 1.427 . S
N640 C637 1.384 . S
N641 C633 1.427 . S
N641 C639 1.384 . S
H642 C648 0.930 . S
H643 C652 0.930 . S
H644 C657 0.929 . S
H645 C655 0.929 . S
H646 C650 0.929 . S
H647 C656 0.929 . S
C648 H642 0.930 . S
C648 C649 1.351 1_545 S
C648 C656 1.378 . S
C649 C648 1.351 1_565 S
C649 C657 1.456 . S
C650 H646 0.929 . S
C650 C652 1.378 . S
C650 C654 1.350 . S
C651 C654 1.463 . S
C651 C656 1.350 1_565 S
C651 N659 1.427 . S
C652 H643 0.930 . S
C652 C650 1.378 . S
C652 C653 1.367 . S
C653 C652 1.367 . S
C653 C655 1.433 1_565 S
C654 C650 1.350 . S
C654 C651 1.463 . S
C654 N658 1.427 1_565 S
C655 H645 0.929 . S
C655 C653 1.433 1_545 S
C655 N658 1.384 . S
C656 H647 0.929 . S
C656 C648 1.378 . S
C656 C651 1.350 1_545 S
C657 H644 0.929 . S
C657 C649 1.456 . S
C657 N659 1.384 . S
N658 C654 1.427 1_545 S
N658 C655 1.384 . S
N659 C651 1.427 . S
N659 C657 1.384 . S
H660 C666 0.930 . S
H661 C670 0.930 . S
H662 C675 0.929 . S
H663 C673 0.929 . S
H664 C668 0.929 . S
H665 C674 0.929 . S
C666 H660 0.930 . S
C666 C667 1.367 . S
C666 C674 1.378 . S
C667 C666 1.367 . S
C667 C675 1.433 . S
C668 H664 0.929 . S
C668 C670 1.378 . S
C668 C672 1.350 . S
C669 C672 1.463 . S
C669 C674 1.350 . S
C669 N677 1.427 . S
C670 H661 0.930 . S
C670 C668 1.378 . S
C670 C671 1.367 . S
C671 C670 1.367 . S
C671 C673 1.433 . S
C672 C668 1.350 . S
C672 C669 1.463 . S
C672 N676 1.427 . S
C673 H663 0.929 . S
C673 C671 1.433 . S
C673 N676 1.384 . S
C674 H665 0.929 . S
C674 C666 1.378 . S
C674 C669 1.350 . S
C675 H662 0.929 . S
C675 C667 1.433 . S
C675 N677 1.384 . S
N676 C672 1.427 . S
N676 C673 1.384 . S
N677 C669 1.427 . S
N677 C675 1.384 . S
H678 C684 0.930 . S
H679 C688 0.930 . S
H680 C693 0.929 . S
H681 C691 0.929 . S
H682 C686 0.929 . S
H683 C692 0.929 . S
C684 H678 0.930 . S
C684 C685 1.367 . S
C684 C692 1.378 . S
C685 C684 1.367 . S
C685 C693 1.433 . S
C686 H682 0.929 . S
C686 C688 1.378 . S
C686 C690 1.350 . S
C687 C690 1.463 . S
C687 C692 1.350 . S
C687 N695 1.427 . S
C688 H679 0.930 . S
C688 C686 1.378 . S
C688 C689 1.367 . S
C689 C688 1.367 . S
C689 C691 1.433 . S
C690 C686 1.350 . S
C690 C687 1.463 . S
C690 N694 1.427 . S
C691 H681 0.929 . S
C691 C689 1.433 . S
C691 N694 1.384 . S
C692 H683 0.929 . S
C692 C684 1.378 . S
C692 C687 1.350 . S
C693 H680 0.929 . S
C693 C685 1.433 . S
C693 N695 1.384 . S
N694 C690 1.427 . S
N694 C691 1.384 . S
N695 C687 1.427 . S
N695 C693 1.384 . S
C271 C82 1.858 . S
C275 C106 2.035 1_545 S
C293 C146 2.045 . S
C289 C95 1.925 . S
C311 C210 1.886 . S
C307 C56 1.643 . S
C329 C226 1.639 . S
C325 C69 1.333 . S
C347 C127 2.044 1_565 S
C343 C30 1.856 . S
C361 C43 1.896 . S
C365 C167 2.049 . S
C379 C4 1.601 . S
C383 C201 1.891 . S
C397 C17 1.332 . S
C401 C247 1.644 1_655 S
C419 C121 0.433 . S
C415 C74 0.417 . S
C437 C161 0.744 . S
C433 C87 0.747 . S
C455 C197 0.723 . S
C451 C100 0.722 . S
C469 C61 0.575 . S
C473 C241 0.599 . S
C487 C22 0.455 . S
C491 C130 0.467 . S
C509 C170 0.721 . S
C505 C35 0.727 . S
C527 C208 0.719 . S
C523 C48 0.718 . S
C541 C9 0.613 . S
C545 C250 0.638 . S
C559 C73 1.826 1_556 S
C563 C128 2.014 . S
C577 C86 1.869 . S
C581 C168 2.034 . S
C599 C186 1.631 . S
C595 C99 1.617 . S
C617 C248 2.417 . S
C613 C60 2.172 . S
C631 C21 1.827 . S
C635 C117 2.024 . S
C653 C157 2.034 . S
C649 C34 1.861 1_565 S
C671 C207 1.620 . S
C667 C47 1.603 . S
C685 C8 2.170 . S
C689 C237 2.417 . S
