# Generated by pormake.
# Topology nom, (4,4)-cn, num edge types: 1
# Building blocks:
#     Node 0, Type 0, BuildingBlock: NAWXER_clean_linker_0, # of connection points: 4
#     Node 1, Type 0, BuildingBlock: NAWXER_clean_linker_0, # of connection points: 4
#     Node 2, Type 0, BuildingBlock: NAWXER_clean_linker_0, # of connection points: 4
#     Node 3, Type 0, BuildingBlock: NAWXER_clean_linker_0, # of connection points: 4
#     Node 4, Type 0, BuildingBlock: NAWXER_clean_linker_0, # of connection points: 4
#     Node 5, Type 0, BuildingBlock: NAWXER_clean_linker_0, # of connection points: 4
#     Node 6, Type 1, BuildingBlock: GALJAG_clean_sbu_0, # of connection points: 4
#     Node 7, Type 1, BuildingBlock: GALJAG_clean_sbu_0, # of connection points: 4
#     Node 8, Type 1, BuildingBlock: GALJAG_clean_sbu_0, # of connection points: 4
#     Node 9, Type 1, BuildingBlock: GALJAG_clean_sbu_0, # of connection points: 4
#     Node 10, Type 1, BuildingBlock: GALJAG_clean_sbu_0, # of connection points: 4
#     Node 11, Type 1, BuildingBlock: GALJAG_clean_sbu_0, # of connection points: 4
#     Edge 12, Type (0, 1), BuildingBlock: TEMPAE_clean_linker_10, # of connection points: 2
#     Edge 13, Type (0, 1), BuildingBlock: TEMPAE_clean_linker_10, # of connection points: 2
#     Edge 14, Type (0, 1), BuildingBlock: TEMPAE_clean_linker_10, # of connection points: 2
#     Edge 15, Type (0, 1), BuildingBlock: TEMPAE_clean_linker_10, # of connection points: 2
#     Edge 16, Type (0, 1), BuildingBlock: TEMPAE_clean_linker_10, # of connection points: 2
#     Edge 17, Type (0, 1), BuildingBlock: TEMPAE_clean_linker_10, # of connection points: 2
#     Edge 18, Type (0, 1), BuildingBlock: TEMPAE_clean_linker_10, # of connection points: 2
#     Edge 19, Type (0, 1), BuildingBlock: TEMPAE_clean_linker_10, # of connection points: 2
#     Edge 20, Type (0, 1), BuildingBlock: TEMPAE_clean_linker_10, # of connection points: 2
#     Edge 21, Type (0, 1), BuildingBlock: TEMPAE_clean_linker_10, # of connection points: 2
#     Edge 22, Type (0, 1), BuildingBlock: TEMPAE_clean_linker_10, # of connection points: 2
#     Edge 23, Type (0, 1), BuildingBlock: TEMPAE_clean_linker_10, # of connection points: 2
#     Edge 24, Type (0, 1), BuildingBlock: TEMPAE_clean_linker_10, # of connection points: 2
#     Edge 25, Type (0, 1), BuildingBlock: TEMPAE_clean_linker_10, # of connection points: 2
#     Edge 26, Type (0, 1), BuildingBlock: TEMPAE_clean_linker_10, # of connection points: 2
#     Edge 27, Type (0, 1), BuildingBlock: TEMPAE_clean_linker_10, # of connection points: 2
#     Edge 28, Type (0, 1), BuildingBlock: TEMPAE_clean_linker_10, # of connection points: 2
#     Edge 29, Type (0, 1), BuildingBlock: TEMPAE_clean_linker_10, # of connection points: 2
#     Edge 30, Type (0, 1), BuildingBlock: TEMPAE_clean_linker_10, # of connection points: 2
#     Edge 31, Type (0, 1), BuildingBlock: TEMPAE_clean_linker_10, # of connection points: 2
#     Edge 32, Type (0, 1), BuildingBlock: TEMPAE_clean_linker_10, # of connection points: 2
#     Edge 33, Type (0, 1), BuildingBlock: TEMPAE_clean_linker_10, # of connection points: 2
#     Edge 34, Type (0, 1), BuildingBlock: TEMPAE_clean_linker_10, # of connection points: 2
#     Edge 35, Type (0, 1), BuildingBlock: TEMPAE_clean_linker_10, # of connection points: 2
# Relax obj value: 0.004
# Max RMSD: 0.115
# Mean RMSD: 0.086
data_MOF--net-nom--node1-GALJAG_clean_sbu_0--node2-NAWXER_clean_linker_0--edge1-TEMPAE_clean_linker_10
_symmetry_space_group_name_H-M    P1
_symmetry_Int_Tables_number       1
_symmetry_cell_setting            triclinic
loop_
_symmetry_equiv_pos_as_xyz
'x, y, z'
_cell_length_a     52.685008
_cell_length_b     52.604078
_cell_length_c     60.195401
_cell_angle_alpha  90.003374
_cell_angle_beta   90.019121
_cell_angle_gamma 120.04443
loop_
_atom_site_label
_atom_site_type_symbol
_atom_site_fract_x
_atom_site_fract_y
_atom_site_fract_z
_atom_type_partial_charge
C0 C 0.90713 0.53055 0.3353 0.0
C1 C 0.89493 0.50852 0.35163 0.0
C2 C 0.9357 0.54089 0.32775 0.0
C3 C 0.95258 0.52921 0.33622 0.0
C4 C 0.91187 0.49687 0.36008 0.0
C5 C 0.94047 0.50725 0.35254 0.0
C6 C 0.98362 0.54165 0.3296 0.0
C7 C 0.93371 0.49786 0.26771 0.0
C8 C 0.94072 0.51533 0.24857 0.0
C9 C 0.95039 0.50893 0.28702 0.0
C10 C 0.97392 0.53802 0.2878 0.0
C11 C 0.96422 0.54434 0.24925 0.0
C12 C 0.98061 0.55559 0.26869 0.0
C13 C 0.99357 0.54911 0.30746 0.0
C14 C 0.12426 0.60152 0.31276 0.0
C15 C 0.13319 0.62833 0.30183 0.0
C16 C 0.09498 0.58359 0.31908 0.0
C17 C 0.07426 0.59223 0.31453 0.0
C18 C 0.11233 0.63679 0.29724 0.0
C19 C 0.08309 0.61878 0.30339 0.0
C20 C 0.04306 0.57343 0.32037 0.0
C21 C 0.09171 0.60127 0.38625 0.0
C22 C 0.08751 0.57718 0.39922 0.0
C23 C 0.07447 0.597 0.36739 0.0
C24 C 0.05286 0.56857 0.36114 0.0
C25 C 0.06599 0.54876 0.3927 0.0
C26 C 0.04873 0.54455 0.37397 0.0
C27 C 0.03313 0.56341 0.34212 0.0
H28 H 0.89484 0.54033 0.32874 0.0
H29 H 0.94485 0.55854 0.31571 0.0
H30 H 0.90299 0.47965 0.37248 0.0
H31 H 0.95317 0.49812 0.35947 0.0
H32 H 0.91601 0.47525 0.26747 0.0
H33 H 0.94544 0.49431 0.30104 0.0
H34 H 0.96999 0.55825 0.23469 0.0
H35 H -0.00116 0.57794 0.2687 0.0
H36 H 0.13994 0.59455 0.31654 0.0
H37 H 0.08849 0.56291 0.32729 0.0
H38 H 0.11853 0.65713 0.28859 0.0
H39 H 0.06735 0.62566 0.29953 0.0
H40 H 0.10778 0.62348 0.391 0.0
H41 H 0.07757 0.61592 0.35802 0.0
H42 H 0.06247 0.52969 0.40209 0.0
H43 H 0.03209 0.52243 0.36945 0.0
N44 N 0.00379 0.54834 0.34595 0.0
N45 N 0.02292 0.56546 0.30384 0.0
C46 C 0.40204 0.9075 0.50484 0.0
C47 C 0.41074 0.8966 0.52285 0.0
C48 C 0.41972 0.93631 0.49754 0.0
C49 C 0.44693 0.95474 0.50768 0.0
C50 C 0.43798 0.91504 0.53299 0.0
C51 C 0.45586 0.94381 0.5255 0.0
C52 C 0.46453 0.98614 0.50139 0.0
C53 C 0.46734 0.94101 0.43907 0.0
C54 C 0.45075 0.94251 0.4214 0.0
C55 C 0.472 0.95784 0.45817 0.0
C56 C 0.46037 0.97666 0.45983 0.0
C57 C 0.43874 0.96099 0.42318 0.0
C58 C 0.44386 0.97824 0.44215 0.0
C59 C 0.46734 0.99619 0.47928 0.0
C60 C 0.544 0.12672 0.48447 0.0
C61 C 0.5266 0.13554 0.47277 0.0
C62 C 0.53226 0.09754 0.49124 0.0
C63 C 0.50299 0.07679 0.48635 0.0
C64 C 0.4973 0.11471 0.468 0.0
C65 C 0.48569 0.08554 0.47457 0.0
C66 C 0.49051 0.04559 0.49225 0.0
C67 C 0.5067 0.0939 0.55787 0.0
C68 C 0.52689 0.09098 0.57143 0.0
C69 C 0.49494 0.07636 0.53896 0.0
C70 C 0.5032 0.05565 0.53327 0.0
C71 C 0.53526 0.07038 0.56545 0.0
C72 C 0.52334 0.05274 0.5467 0.0
C73 C 0.49003 0.03573 0.51412 0.0
H74 H 0.38138 0.89385 0.49645 0.0
H75 H 0.41157 0.94434 0.48439 0.0
H76 H 0.44519 0.90752 0.54711 0.0
H77 H 0.4765 0.95769 0.53386 0.0
H78 H 0.47677 0.92686 0.43805 0.0
H79 H 0.4853 0.95669 0.47144 0.0
H80 H 0.42605 0.96262 0.40967 0.0
H81 H 0.43495 0.99285 0.44303 0.0
H82 H 0.56664 0.1424 0.48838 0.0
H83 H 0.54613 0.09108 0.49996 0.0
H84 H 0.48354 0.12086 0.45877 0.0
H85 H 0.46314 0.06976 0.47045 0.0
H86 H 0.49941 0.10922 0.56216 0.0
H87 H 0.47894 0.07853 0.52907 0.0
H88 H 0.55113 0.06788 0.57524 0.0
H89 H 0.52996 0.03684 0.5426 0.0
N90 N 0.47665 0.00636 0.5179 0.0
N91 N 0.47954 0.02547 0.4756 0.0
C92 C 0.53525 0.4545 0.60065 0.0
C93 C 0.51758 0.44262 0.58173 0.0
C94 C 0.52413 0.46073 0.61964 0.0
C95 C 0.49485 0.45445 0.62031 0.0
C96 C 0.48832 0.43622 0.58238 0.0
C97 C 0.47706 0.44204 0.6015 0.0
C98 C 0.48365 0.46384 0.63939 0.0
C99 C 0.50399 0.39847 0.66994 0.0
C100 C 0.52822 0.4106 0.68443 0.0
C101 C 0.49215 0.41537 0.66225 0.0
C102 C 0.50419 0.44471 0.66897 0.0
C103 C 0.54023 0.44009 0.69107 0.0
C104 C 0.5281 0.45686 0.6836 0.0
C105 C 0.49073 0.46212 0.66175 0.0
C106 C 0.427 0.51198 0.71338 0.0
C107 C 0.44972 0.53004 0.72814 0.0
C108 C 0.43234 0.49825 0.69554 0.0
C109 C 0.46068 0.50294 0.69172 0.0
C110 C 0.47782 0.53388 0.72459 0.0
C111 C 0.48321 0.52055 0.7066 0.0
C112 C 0.46728 0.48884 0.67302 0.0
C113 C 0.42961 0.54111 0.64131 0.0
C114 C 0.40486 0.52374 0.62805 0.0
C115 C 0.44725 0.52998 0.64885 0.0
C116 C 0.44001 0.50109 0.64363 0.0
C117 C 0.39799 0.49504 0.6226 0.0
C118 C 0.41544 0.48388 0.63027 0.0
C119 C 0.45842 0.48874 0.65082 0.0
H120 H 0.55803 0.46009 0.60042 0.0
H121 H 0.53885 0.47152 0.63343 0.0
H122 H 0.47422 0.42694 0.56801 0.0
H123 H 0.45454 0.43729 0.60144 0.0
H124 H 0.49371 0.37569 0.66486 0.0
H125 H 0.47319 0.40531 0.65142 0.0
H126 H 0.55912 0.45031 0.70195 0.0
H127 H 0.53758 0.47944 0.68907 0.0
H128 H 0.40509 0.50853 0.71553 0.0
H129 H 0.41428 0.48392 0.6848 0.0
H130 H 0.49569 0.54689 0.7359 0.0
H131 H 0.50515 0.5241 0.70427 0.0
H132 H 0.43562 0.56346 0.64549 0.0
H133 H 0.46661 0.54397 0.65858 0.0
H134 H 0.37892 0.48108 0.61257 0.0
H135 H 0.4096 0.46162 0.62587 0.0
N136 N 0.46725 0.47653 0.63492 0.0
N137 N 0.48285 0.47524 0.6776 0.0
C138 C 0.90978 0.39989 0.81567 0.0
C139 C 0.89713 0.41198 0.8017 0.0
C140 C 0.93891 0.41668 0.82248 0.0
C141 C 0.95608 0.44588 0.81539 0.0
C142 C 0.9145 0.44126 0.79456 0.0
C143 C 0.9438 0.45794 0.80117 0.0
C144 C 0.98719 0.46324 0.822 0.0
C145 C 0.93673 0.45701 0.88355 0.0
C146 C 0.94205 0.44432 0.90219 0.0
C147 C 0.95402 0.46331 0.86453 0.0
C148 C 0.97653 0.45636 0.86355 0.0
C149 C 0.96457 0.43743 0.90128 0.0
C150 C 0.98164 0.44339 0.88214 0.0
C151 C 0.99662 0.46522 0.84421 0.0
C152 C 0.12836 0.54004 0.83906 0.0
C153 C 0.13551 0.52294 0.85282 0.0
C154 C 0.0994 0.5294 0.83221 0.0
C155 C 0.07732 0.50116 0.83853 0.0
C156 C 0.1133 0.49502 0.85951 0.0
C157 C 0.08451 0.48425 0.85242 0.0
C158 C 0.04637 0.48924 0.83192 0.0
C159 C 0.09824 0.50987 0.768 0.0
C160 C 0.09447 0.52923 0.75406 0.0
C161 C 0.07956 0.49655 0.78612 0.0
C162 C 0.05715 0.5028 0.79088 0.0
C163 C 0.07151 0.53477 0.75861 0.0
C164 C 0.05307 0.52168 0.77678 0.0
C165 C 0.03699 0.48919 0.80988 0.0
H166 H 0.89735 0.37724 0.82106 0.0
H167 H 0.94819 0.40668 0.833 0.0
H168 H 0.90542 0.45142 0.78402 0.0
H169 H 0.95679 0.48039 0.79541 0.0
H170 H 0.91987 0.46306 0.88398 0.0
H171 H 0.95034 0.47452 0.85092 0.0
H172 H 0.96905 0.42754 0.91542 0.0
H173 H -0.00093 0.43814 0.88194 0.0
H174 H 0.14508 0.56184 0.83398 0.0
H175 H 0.09426 0.54331 0.82218 0.0
H176 H 0.11828 0.48139 0.87005 0.0
H177 H 0.06779 0.46253 0.85771 0.0
H178 H 0.11572 0.50514 0.76501 0.0
H179 H 0.08264 0.48139 0.79637 0.0
H180 H 0.06747 0.54896 0.74794 0.0
H181 H 0.03564 0.52647 0.77991 0.0
N182 N 0.00771 0.47588 0.80578 0.0
N183 N 0.02579 0.47756 0.8482 0.0
C184 C 0.52865 0.91027 0.9826 0.0
C185 C 0.50646 0.89792 0.9664 0.0
C186 C 0.53799 0.93835 0.9909 0.0
C187 C 0.52536 0.95471 0.98321 0.0
C188 C 0.49379 0.91435 0.95877 0.0
C189 C 0.50335 0.94259 0.96696 0.0
C190 C 0.53688 0.9853 0.99074 0.0
C191 C 0.48877 0.93266 0.05042 0.0
C192 C 0.50621 0.93543 0.06893 0.0
C193 C 0.50097 0.95096 0.03202 0.0
C194 C 0.53086 0.97242 0.03175 0.0
C195 C 0.53625 0.9565 0.0685 0.0
C196 C 0.5484 0.97505 0.05014 0.0
C197 C 0.543 0.99374 0.01323 0.0
C198 C 0.59138 0.12424 0.01249 0.0
C199 C 0.61744 0.1334 0.02452 0.0
C200 C 0.57486 0.09523 0.00507 0.0
C201 C 0.58417 0.07498 0.00959 0.0
C202 C 0.6265 0.11299 0.02915 0.0
C203 C 0.60988 0.084 0.0219 0.0
C204 C 0.56685 0.04407 0.00243 0.0
C205 C 0.59925 0.0964 0.93817 0.0
C206 C 0.57609 0.09323 0.92456 0.0
C207 C 0.59367 0.0782 0.95666 0.0
C208 C 0.56484 0.05655 0.96184 0.0
C209 C 0.54722 0.07184 0.93016 0.0
C210 C 0.54172 0.05353 0.94846 0.0
C211 C 0.55847 0.03555 0.98017 0.0
H212 H 0.53933 0.89852 0.98851 0.0
H213 H 0.55568 0.94759 0.00291 0.0
H214 H 0.47639 0.90537 0.94653 0.0
H215 H 0.4935 0.95495 0.96066 0.0
H216 H 0.46559 0.91655 0.05031 0.0
H217 H 0.48677 0.94895 0.0183 0.0
H218 H 0.55011 0.95926 0.08265 0.0
H219 H 0.57142 0.99166 0.0504 0.0
H220 H 0.58396 0.13958 0.00865 0.0
H221 H 0.55474 0.08856 0.99598 0.0
H222 H 0.6463 0.11939 0.03862 0.0
H223 H 0.61725 0.06861 0.02576 0.0
H224 H 0.62178 0.11233 0.93419 0.0
H225 H 0.6119 0.08051 0.96654 0.0
H226 H 0.5288 0.06913 0.92034 0.0
H227 H 0.51932 0.03691 0.95217 0.0
N228 N 0.54418 0.00647 0.97512 0.0
N229 N 0.55841 0.02283 0.01818 0.0
C230 C 0.52276 0.63118 0.17163 0.0
C231 C 0.50083 0.62022 0.18803 0.0
C232 C 0.53388 0.6139 0.16344 0.0
C233 C 0.52319 0.5852 0.17136 0.0
C234 C 0.49023 0.59151 0.19602 0.0
C235 C 0.50145 0.57424 0.18785 0.0
C236 C 0.53628 0.56758 0.1637 0.0
C237 C 0.48748 0.56978 0.10338 0.0
C238 C 0.50523 0.58649 0.0856 0.0
C239 C 0.49986 0.56404 0.12184 0.0
C240 C 0.53019 0.57472 0.12277 0.0
C241 C 0.53566 0.59776 0.08675 0.0
C242 C 0.548 0.59161 0.10508 0.0
C243 C 0.54273 0.56591 0.14117 0.0
C244 C 0.5879 0.48495 0.13173 0.0
C245 C 0.61827 0.5028 0.12796 0.0
C246 C 0.57144 0.49705 0.13998 0.0
C247 C 0.58494 0.52721 0.14421 0.0
C248 C 0.63158 0.53308 0.13255 0.0
C249 C 0.61494 0.5452 0.14016 0.0
C250 C 0.56763 0.54048 0.15164 0.0
C251 C 0.59773 0.51375 0.21332 0.0
C252 C 0.57476 0.49559 0.22782 0.0
C253 C 0.5929 0.52819 0.19573 0.0
C254 C 0.56484 0.52422 0.19192 0.0
C255 C 0.5468 0.49202 0.2241 0.0
C256 C 0.54193 0.50615 0.20637 0.0
C257 C 0.5591 0.53994 0.17394 0.0
H258 H 0.53187 0.65341 0.16547 0.0
H259 H 0.5514 0.6233 0.15131 0.0
H260 H 0.47317 0.58234 0.20852 0.0
H261 H 0.49309 0.55227 0.19437 0.0
H262 H 0.46397 0.56089 0.10287 0.0
H263 H 0.48559 0.55042 0.13507 0.0
H264 H 0.54974 0.61049 0.07313 0.0
H265 H 0.57139 0.59978 0.10537 0.0
H266 H 0.57665 0.46171 0.128 0.0
H267 H 0.54811 0.48298 0.14268 0.0
H268 H 0.65493 0.54753 0.13046 0.0
H269 H 0.6256 0.56861 0.14328 0.0
H270 H 0.61954 0.51698 0.2156 0.0
H271 H 0.61133 0.54301 0.18556 0.0
H272 H 0.52872 0.47883 0.23519 0.0
H273 H 0.52017 0.50307 0.20402 0.0
N274 N 0.54406 0.5539 0.17915 0.0
N275 N 0.55874 0.55298 0.13603 0.0
In276 In 0.62677 0.39917 0.40653 0.0
O277 O 0.67337 0.43911 0.407 0.0
O278 O 0.66786 0.39775 0.39768 0.0
C279 C 0.6041 0.41273 0.44158 0.0
C280 C 0.60957 0.4127 0.36806 0.0
C281 C 0.60708 0.34317 0.41869 0.0
O282 O 0.63133 0.42607 0.43763 0.0
O283 O 0.58851 0.39325 0.42757 0.0
O284 O 0.59766 0.34968 0.40154 0.0
O285 O 0.62648 0.36485 0.42938 0.0
C286 C 0.68533 0.42472 0.40066 0.0
O287 O 0.61705 0.39342 0.36919 0.0
O288 O 0.61015 0.42462 0.38633 0.0
In289 In 0.24153 0.62808 0.57505 0.0
O290 O 0.2473 0.58793 0.57904 0.0
O291 O 0.28548 0.62984 0.57621 0.0
C292 C 0.20527 0.61222 0.53973 0.0
C293 C 0.21168 0.6141 0.61387 0.0
C294 C 0.27618 0.68575 0.5665 0.0
O295 O 0.22106 0.60092 0.54366 0.0
O296 O 0.2073 0.63083 0.5539 0.0
O297 O 0.26254 0.67665 0.58466 0.0
O298 O 0.27223 0.66585 0.55293 0.0
C299 C 0.27494 0.60266 0.57891 0.0
O300 O 0.2392 0.62988 0.61291 0.0
O301 O 0.19918 0.60605 0.59525 0.0
In302 In 0.62888 0.24631 0.74735 0.0
O303 O 0.67731 0.26065 0.74377 0.0
O304 O 0.66591 0.28666 0.76396 0.0
C305 C 0.60823 0.21127 0.71118 0.0
C306 C 0.61531 0.21294 0.78442 0.0
C307 C 0.6085 0.28272 0.73726 0.0
O308 O 0.63506 0.22971 0.71378 0.0
O309 O 0.59202 0.21009 0.727 0.0
O310 O 0.59486 0.26093 0.75003 0.0
O311 O 0.6324 0.28617 0.7298 0.0
C312 C 0.68601 0.28289 0.75614 0.0
O313 O 0.60696 0.23135 0.78141 0.0
O314 O 0.62991 0.211 0.76861 0.0
In315 In 0.40388 0.63192 0.90668 0.0
O316 O 0.35774 0.59141 0.90572 0.0
O317 O 0.36277 0.63306 0.89775 0.0
C318 C 0.42162 0.61744 0.94432 0.0
C319 C 0.41805 0.61582 0.86813 0.0
C320 C 0.42814 0.68995 0.91445 0.0
O321 O 0.39673 0.61524 0.94254 0.0
O322 O 0.43719 0.62637 0.92706 0.0
O323 O 0.44154 0.67961 0.9037 0.0
O324 O 0.40293 0.67113 0.92102 0.0
C325 C 0.3456 0.60586 0.89988 0.0
O326 O 0.41321 0.63697 0.86932 0.0
O327 O 0.41635 0.60331 0.88638 0.0
In328 In 0.7857 0.40207 0.0752 0.0
O329 O 0.80825 0.39832 0.10644 0.0
O330 O 0.82088 0.44104 0.09419 0.0
C331 C 0.74562 0.34505 0.06872 0.0
C332 C 0.74937 0.42305 0.08347 0.0
C333 C 0.82263 0.41437 0.04063 0.0
O334 O 0.76236 0.35358 0.08546 0.0
O335 O 0.74895 0.36524 0.0557 0.0
O336 O 0.81099 0.42972 0.04508 0.0
O337 O 0.81605 0.39338 0.05382 0.0
C338 C 0.824 0.4258 0.10897 0.0
O339 O 0.75829 0.42252 0.0641 0.0
O340 O 0.75859 0.41296 0.09842 0.0
In341 In 0.40232 0.78712 0.24717 0.0
O342 O 0.43959 0.77652 0.24768 0.0
O343 O 0.39751 0.74333 0.23705 0.0
C344 C 0.41861 0.823 0.28268 0.0
C345 C 0.42052 0.81882 0.2093 0.0
C346 C 0.34492 0.75568 0.25757 0.0
O347 O 0.42224 0.80103 0.28173 0.0
O348 O 0.40733 0.82717 0.26555 0.0
O349 O 0.35395 0.77232 0.24078 0.0
O350 O 0.36475 0.75503 0.26883 0.0
C351 C 0.42388 0.75069 0.24052 0.0
O352 O 0.43394 0.82778 0.22751 0.0
O353 O 0.39751 0.79399 0.2102 0.0
C354 C 0.17915 0.63548 0.2839 0.0
C355 C 0.16413 0.64741 0.29499 0.0
C356 C 0.2083 0.65339 0.27705 0.0
C357 C 0.22282 0.68388 0.28163 0.0
C358 C 0.20774 0.69605 0.29282 0.0
C359 C 0.17851 0.67766 0.29928 0.0
C360 C 0.22361 0.63969 0.26498 0.0
C361 C 0.22261 0.72839 0.29826 0.0
C362 C 0.30582 0.72374 0.28433 0.0
C363 C 0.31366 0.738 0.2637 0.0
C364 C 0.27634 0.70635 0.29045 0.0
C365 C 0.25413 0.70286 0.27546 0.0
C366 C 0.26187 0.71728 0.25461 0.0
C367 C 0.29162 0.73486 0.24902 0.0
C368 C 0.26897 0.69161 0.31293 0.0
C369 C 0.23874 0.71385 0.23815 0.0
H370 H 0.16793 0.61215 0.28031 0.0
H371 H 0.16699 0.68688 0.30803 0.0
H372 H 0.232 0.65073 0.24874 0.0
H373 H 0.24279 0.64277 0.27478 0.0
H374 H 0.20891 0.61581 0.26203 0.0
H375 H 0.20762 0.73447 0.30664 0.0
H376 H 0.24172 0.73448 0.30925 0.0
H377 H 0.23105 0.74158 0.28285 0.0
H378 H 0.3228 0.72622 0.29579 0.0
H379 H 0.29762 0.7458 0.23303 0.0
H380 H 0.25604 0.66743 0.31086 0.0
H381 H 0.25521 0.69827 0.32245 0.0
H382 H 0.28886 0.69715 0.32286 0.0
H383 H 0.22468 0.69035 0.23372 0.0
H384 H 0.24839 0.7266 0.22268 0.0
H385 H 0.22431 0.72122 0.24571 0.0
C386 C 0.56589 0.18027 0.45381 0.0
C387 C 0.53902 0.16623 0.46508 0.0
C388 C 0.57738 0.20897 0.44573 0.0
C389 C 0.56174 0.22402 0.44927 0.0
C390 C 0.53473 0.21004 0.46084 0.0
C391 C 0.52361 0.18122 0.46851 0.0
C392 C 0.60611 0.22311 0.43328 0.0
C393 C 0.51765 0.22555 0.46519 0.0
C394 C 0.60376 0.30722 0.44712 0.0
C395 C 0.59588 0.31265 0.42615 0.0
C396 C 0.59282 0.27846 0.45483 0.0
C397 C 0.57381 0.25458 0.44112 0.0
C398 C 0.56605 0.25991 0.41981 0.0
C399 C 0.57706 0.28895 0.41262 0.0
C400 C 0.60134 0.27364 0.47774 0.0
C401 C 0.54604 0.23494 0.40467 0.0
H402 H 0.57764 0.16855 0.45093 0.0
H403 H 0.50294 0.17044 0.4774 0.0
H404 H 0.60299 0.22954 0.41639 0.0
H405 H 0.62237 0.24344 0.44192 0.0
H406 H 0.61535 0.20827 0.43171 0.0
H407 H 0.49707 0.21162 0.47455 0.0
H408 H 0.5313 0.24596 0.4748 0.0
H409 H 0.512 0.23207 0.44924 0.0
H410 H 0.61822 0.3255 0.45768 0.0
H411 H 0.57099 0.29309 0.39637 0.0
H412 H 0.61221 0.26027 0.47664 0.0
H413 H 0.58142 0.26121 0.48811 0.0
H414 H 0.61639 0.29461 0.4863 0.0
H415 H 0.55525 0.22033 0.40174 0.0
H416 H 0.54276 0.2428 0.38838 0.0
H417 H 0.52434 0.22149 0.41269 0.0
C418 C 0.37695 0.53119 0.59757 0.0
C419 C 0.38616 0.53537 0.61981 0.0
C420 C 0.35869 0.54145 0.58963 0.0
C421 C 0.3493 0.55609 0.60432 0.0
C422 C 0.35856 0.56043 0.62678 0.0
C423 C 0.377 0.55011 0.63424 0.0
C424 C 0.34952 0.53672 0.56552 0.0
C425 C 0.34884 0.5758 0.64296 0.0
C426 C 0.32423 0.60723 0.58185 0.0
C427 C 0.29366 0.58974 0.58342 0.0
C428 C 0.34259 0.59628 0.58806 0.0
C429 C 0.33004 0.56722 0.59618 0.0
C430 C 0.29916 0.54918 0.59723 0.0
C431 C 0.2813 0.56065 0.59075 0.0
C432 C 0.37542 0.61608 0.5865 0.0
C433 C 0.28502 0.51808 0.60585 0.0
H434 H 0.38429 0.52008 0.58632 0.0
H435 H 0.38383 0.55307 0.65149 0.0
H436 H 0.32526 0.52392 0.56426 0.0
H437 H 0.35685 0.55818 0.55732 0.0
H438 H 0.35873 0.52489 0.55628 0.0
H439 H 0.35779 0.57717 0.65991 0.0
H440 H 0.35603 0.59839 0.63705 0.0
H441 H 0.32455 0.56399 0.64396 0.0
H442 H 0.33388 0.62973 0.57612 0.0
H443 H 0.25767 0.5471 0.59204 0.0
H444 H 0.38519 0.60527 0.57669 0.0
H445 H 0.38522 0.62019 0.60336 0.0
H446 H 0.38161 0.63755 0.57869 0.0
H447 H 0.29299 0.50538 0.59635 0.0
H448 H 0.26072 0.50655 0.60474 0.0
H449 H 0.2913 0.51825 0.62347 0.0
C450 C 0.85765 0.39626 0.77277 0.0
C451 C 0.86604 0.39393 0.79448 0.0
C452 C 0.82847 0.37899 0.76571 0.0
C453 C 0.80729 0.35857 0.78058 0.0
C454 C 0.81556 0.35606 0.80248 0.0
C455 C 0.84474 0.37396 0.80922 0.0
C456 C 0.82035 0.38251 0.74231 0.0
C457 C 0.7936 0.33435 0.81877 0.0
C458 C 0.72625 0.33015 0.77117 0.0
C459 C 0.71722 0.3027 0.76147 0.0
C460 C 0.75568 0.3489 0.77696 0.0
C461 C 0.7764 0.33971 0.7733 0.0
C462 C 0.76743 0.31209 0.76334 0.0
C463 C 0.73793 0.294 0.75736 0.0
C464 C 0.76455 0.37841 0.78719 0.0
C465 C 0.78883 0.30137 0.75948 0.0
H466 H 0.87397 0.41127 0.76114 0.0
H467 H 0.85083 0.37238 0.82614 0.0
H468 H 0.81205 0.36157 0.73308 0.0
H469 H 0.80243 0.38779 0.74265 0.0
H470 H 0.83922 0.40009 0.73305 0.0
H471 H 0.80372 0.3347 0.83505 0.0
H472 H 0.7757 0.33928 0.82159 0.0
H473 H 0.78347 0.31181 0.81184 0.0
H474 H 0.71029 0.33701 0.77424 0.0
H475 H 0.73096 0.27273 0.74992 0.0
H476 H 0.7827 0.39615 0.77752 0.0
H477 H 0.77276 0.37939 0.80432 0.0
H478 H 0.74605 0.38286 0.78788 0.0
H479 H 0.80739 0.31733 0.7491 0.0
H480 H 0.77844 0.27959 0.75118 0.0
H481 H 0.79812 0.29968 0.7756 0.0
C482 C 0.49394 0.84561 0.97159 0.0
C483 C 0.49674 0.86808 0.95745 0.0
C484 C 0.48451 0.81728 0.96348 0.0
C485 C 0.4773 0.81112 0.94072 0.0
C486 C 0.48036 0.83371 0.92628 0.0
C487 C 0.4902 0.86197 0.93479 0.0
C488 C 0.48163 0.79377 0.97938 0.0
C489 C 0.47266 0.82788 0.90194 0.0
C490 C 0.47101 0.74096 0.91754 0.0
C491 C 0.44084 0.72142 0.9196 0.0
C492 C 0.48326 0.77047 0.92401 0.0
C493 C 0.46476 0.78057 0.93242 0.0
C494 C 0.43416 0.76109 0.93383 0.0
C495 C 0.42262 0.73172 0.92754 0.0
C496 C 0.51602 0.79059 0.9225 0.0
C497 C 0.41366 0.77112 0.94242 0.0
H498 H 0.49856 0.84999 0.98916 0.0
H499 H 0.49282 0.87931 0.92366 0.0
H500 H 0.45824 0.77648 0.98086 0.0
H501 H 0.49374 0.7831 0.97295 0.0
H502 H 0.49006 0.80263 0.99622 0.0
H503 H 0.47739 0.8481 0.89275 0.0
H504 H 0.48509 0.81836 0.89411 0.0
H505 H 0.44901 0.81154 0.9001 0.0
H506 H 0.48514 0.733 0.91146 0.0
H507 H 0.39923 0.7167 0.929 0.0
H508 H 0.52523 0.79792 0.9394 0.0
H509 H 0.52113 0.81053 0.91282 0.0
H510 H 0.52717 0.77972 0.91461 0.0
H511 H 0.41884 0.77797 0.96004 0.0
H512 H 0.39028 0.75362 0.9413 0.0
H513 H 0.41668 0.79049 0.93288 0.0
C514 C 0.62941 0.46157 0.1255 0.0
C515 C 0.63613 0.49007 0.11944 0.0
C516 C 0.64666 0.44978 0.11817 0.0
C517 C 0.67184 0.46722 0.10511 0.0
C518 C 0.67866 0.49583 0.09874 0.0
C519 C 0.66043 0.50666 0.10561 0.0
C520 C 0.63827 0.41886 0.12483 0.0
C521 C 0.70572 0.51536 0.08525 0.0
C522 C 0.73254 0.44866 0.10895 0.0
C523 C 0.72994 0.43485 0.08852 0.0
C524 C 0.71416 0.45988 0.11432 0.0
C525 C 0.69197 0.45618 0.0992 0.0
C526 C 0.68906 0.44192 0.0786 0.0
C527 C 0.70851 0.43188 0.07332 0.0
C528 C 0.7186 0.47581 0.13612 0.0
C529 C 0.66505 0.43675 0.0624 0.0
H530 H 0.61105 0.44858 0.1364 0.0
H531 H 0.66548 0.52834 0.10023 0.0
H532 H 0.63796 0.40611 0.11004 0.0
H533 H 0.6548 0.41941 0.13653 0.0
H534 H 0.61643 0.40714 0.13296 0.0
H535 H 0.7078 0.53701 0.08153 0.0
H536 H 0.72557 0.5191 0.09446 0.0
H537 H 0.70532 0.50453 0.06935 0.0
H538 H 0.74932 0.45111 0.12061 0.0
H539 H 0.70642 0.42093 0.0576 0.0
H540 H 0.69881 0.46381 0.14666 0.0
H541 H 0.72181 0.49804 0.13309 0.0
H542 H 0.73781 0.47809 0.14548 0.0
H543 H 0.64335 0.42373 0.07053 0.0
H544 H 0.66551 0.4249 0.04726 0.0
H545 H 0.66715 0.45798 0.05732 0.0
C546 C 0.40264 0.84865 0.53807 0.0
C547 C 0.39111 0.86632 0.53121 0.0
C548 C 0.38417 0.81974 0.54533 0.0
C549 C 0.35344 0.80812 0.54545 0.0
C550 C 0.34169 0.82597 0.53895 0.0
C551 C 0.36067 0.85491 0.53208 0.0
C552 C 0.39749 0.80139 0.55233 0.0
C553 C 0.30901 0.81426 0.53869 0.0
C554 C 0.30541 0.72568 0.53952 0.0
C555 C 0.29553 0.71713 0.56134 0.0
C556 C 0.32411 0.75525 0.53415 0.0
C557 C 0.33348 0.77676 0.55107 0.0
C558 C 0.32364 0.76828 0.57317 0.0
C559 C 0.30455 0.7385 0.57803 0.0
C560 C 0.33378 0.76348 0.51032 0.0
C561 C 0.33347 0.79062 0.59167 0.0
H562 H 0.42608 0.85716 0.53728 0.0
H563 H 0.35159 0.8686 0.52732 0.0
H564 H 0.38923 0.79169 0.56897 0.0
H565 H 0.39087 0.78294 0.54052 0.0
H566 H 0.42183 0.81436 0.55291 0.0
H567 H 0.30346 0.8313 0.5339 0.0
H568 H 0.29834 0.79574 0.52677 0.0
H569 H 0.29954 0.8056 0.55531 0.0
H570 H 0.29836 0.70922 0.52655 0.0
H571 H 0.29703 0.73191 0.59493 0.0
H572 H 0.35802 0.77444 0.50922 0.0
H573 H 0.3273 0.77934 0.50426 0.0
H574 H 0.32416 0.74411 0.4991 0.0
H575 H 0.35774 0.80247 0.59299 0.0
H576 H 0.32401 0.7804 0.60799 0.0
H577 H 0.32696 0.80722 0.58792 0.0
C578 C 0.55057 0.3953 0.71476 0.0
C579 C 0.54058 0.39241 0.69276 0.0
C580 C 0.56206 0.3781 0.72284 0.0
C581 C 0.56312 0.35715 0.70873 0.0
C582 C 0.55296 0.35397 0.68658 0.0
C583 C 0.54209 0.37182 0.67881 0.0
C584 C 0.57304 0.38234 0.74649 0.0
C585 C 0.55352 0.33167 0.67108 0.0
C586 C 0.61569 0.32937 0.72086 0.0
C587 C 0.59713 0.30227 0.73098 0.0
C588 C 0.60504 0.34779 0.71403 0.0
C589 C 0.57502 0.3386 0.71704 0.0
C590 C 0.55623 0.31134 0.72742 0.0
C591 C 0.5676 0.29359 0.73445 0.0
C592 C 0.62585 0.37694 0.70338 0.0
C593 C 0.52399 0.30063 0.7306 0.0
H594 H 0.54908 0.41076 0.72581 0.0
H595 H 0.53495 0.36976 0.66169 0.0
H596 H 0.56025 0.36165 0.75598 0.0
H597 H 0.59628 0.38777 0.74672 0.0
H598 H 0.57137 0.4001 0.75514 0.0
H599 H 0.54401 0.33137 0.65454 0.0
H600 H 0.57641 0.33656 0.66872 0.0
H601 H 0.54104 0.3094 0.67846 0.0
H602 H 0.63859 0.33622 0.71827 0.0
H603 H 0.55319 0.27257 0.74219 0.0
H604 H 0.62517 0.39499 0.71239 0.0
H605 H 0.61899 0.37728 0.68601 0.0
H606 H 0.64883 0.38145 0.70324 0.0
H607 H 0.52106 0.31689 0.74031 0.0
H608 H 0.51246 0.27914 0.73931 0.0
H609 H 0.5134 0.29831 0.71421 0.0
C610 C 0.17194 0.53299 0.88296 0.0
C611 C 0.16601 0.53419 0.8604 0.0
C612 C 0.20073 0.54362 0.89043 0.0
C613 C 0.22402 0.55532 0.8749 0.0
C614 C 0.21807 0.55621 0.85205 0.0
C615 C 0.18911 0.54583 0.84509 0.0
C616 C 0.20629 0.5428 0.91496 0.0
C617 C 0.24232 0.56821 0.83497 0.0
C618 C 0.30115 0.60997 0.8936 0.0
C619 C 0.31402 0.59228 0.89501 0.0
C620 C 0.27165 0.59802 0.88764 0.0
C621 C 0.25476 0.56774 0.8826 0.0
C622 C 0.26751 0.54965 0.88433 0.0
C623 C 0.29701 0.56213 0.89072 0.0
C624 C 0.2587 0.61792 0.88637 0.0
C625 C 0.25022 0.51733 0.87883 0.0
H626 H 0.15405 0.52418 0.89482 0.0
H627 H 0.18444 0.54645 0.82762 0.0
H628 H 0.21793 0.53042 0.91789 0.0
H629 H 0.22067 0.56546 0.9212 0.0
H630 H 0.18569 0.53247 0.9248 0.0
H631 H 0.23385 0.56615 0.81776 0.0
H632 H 0.25791 0.59174 0.83838 0.0
H633 H 0.25483 0.55644 0.83602 0.0
H634 H 0.31424 0.63328 0.89705 0.0
H635 H 0.30699 0.54846 0.8917 0.0
H636 H 0.23866 0.60903 0.89676 0.0
H637 H 0.25212 0.61888 0.86902 0.0
H638 H 0.27435 0.64063 0.89197 0.0
H639 H 0.23006 0.50635 0.88911 0.0
H640 H 0.2631 0.50615 0.8816 0.0
H641 H 0.2432 0.51441 0.86119 0.0
C642 C 0.6657 0.17951 0.0287 0.0
C643 C 0.63531 0.1642 0.03214 0.0
C644 C 0.683 0.20872 0.03566 0.0
C645 C 0.66959 0.22285 0.0465 0.0
C646 C 0.63895 0.20739 0.05028 0.0
C647 C 0.62212 0.17825 0.04292 0.0
C648 C 0.71555 0.22461 0.03105 0.0
C649 C 0.62396 0.22168 0.06197 0.0
C650 C 0.72038 0.29181 0.07909 0.0
C651 C 0.72479 0.31382 0.06388 0.0
C652 C 0.70176 0.26203 0.07393 0.0
C653 C 0.68757 0.25421 0.053 0.0
C654 C 0.69156 0.27641 0.03778 0.0
C655 C 0.71 0.30594 0.04346 0.0
C656 C 0.69775 0.23892 0.09065 0.0
C657 C 0.67699 0.26896 0.01523 0.0
H658 H 0.67588 0.16875 0.02017 0.0
H659 H 0.59866 0.16631 0.04581 0.0
H660 H 0.72153 0.24385 0.0202 0.0
H661 H 0.72797 0.23303 0.04678 0.0
H662 H 0.72264 0.21027 0.02284 0.0
H663 H 0.60015 0.20626 0.06441 0.0
H664 H 0.63426 0.2301 0.07843 0.0
H665 H 0.6267 0.24076 0.05219 0.0
H666 H 0.7317 0.29783 0.09492 0.0
H667 H 0.71335 0.32288 0.03162 0.0
H668 H 0.70674 0.22542 0.08388 0.0
H669 H 0.67407 0.22391 0.09387 0.0
H670 H 0.70886 0.24865 0.10667 0.0
H671 H 0.68478 0.25627 0.0055 0.0
H672 H 0.68163 0.28885 0.00561 0.0
H673 H 0.6529 0.25491 0.01709 0.0
C674 C 0.48406 0.6567 0.18256 0.0
C675 C 0.48945 0.63893 0.19692 0.0
C676 C 0.4739 0.67497 0.1907 0.0
C677 C 0.46879 0.67532 0.21375 0.0
C678 C 0.47405 0.65737 0.22835 0.0
C679 C 0.48439 0.63942 0.21976 0.0
C680 C 0.4685 0.69379 0.1746 0.0
C681 C 0.46873 0.65712 0.25302 0.0
C682 C 0.46572 0.74152 0.23546 0.0
C683 C 0.43546 0.73094 0.23546 0.0
C684 C 0.47692 0.72343 0.22891 0.0
C685 C 0.45733 0.69408 0.22241 0.0
C686 C 0.42672 0.68304 0.22311 0.0
C687 C 0.41616 0.70166 0.22954 0.0
C688 C 0.50971 0.73597 0.22826 0.0
C689 C 0.40513 0.65179 0.21649 0.0
H690 H 0.48752 0.65612 0.16486 0.0
H691 H 0.4889 0.62607 0.23099 0.0
H692 H 0.44507 0.68767 0.17509 0.0
H693 H 0.48159 0.71723 0.1795 0.0
H694 H 0.47425 0.69148 0.15725 0.0
H695 H 0.47391 0.64191 0.26212 0.0
H696 H 0.48232 0.67953 0.25993 0.0
H697 H 0.44546 0.65044 0.25614 0.0
H698 H 0.4807 0.76416 0.24 0.0
H699 H 0.39272 0.69335 0.22963 0.0
H700 H 0.51684 0.73626 0.21088 0.0
H701 H 0.51584 0.72193 0.23798 0.0
H702 H 0.52189 0.75869 0.23497 0.0
H703 H 0.40798 0.64851 0.19866 0.0
H704 H 0.38203 0.64612 0.21924 0.0
H705 H 0.40933 0.63626 0.22609 0.0
C706 C 0.85848 0.49285 0.38272 0.0
C707 C 0.86474 0.49793 0.35996 0.0
C708 C 0.82993 0.48228 0.39075 0.0
C709 C 0.80712 0.47672 0.37566 0.0
C710 C 0.81338 0.4823 0.35272 0.0
C711 C 0.8421 0.49279 0.34515 0.0
C712 C 0.82407 0.47659 0.41532 0.0
C713 C 0.78961 0.47658 0.33611 0.0
C714 C 0.72868 0.42041 0.39006 0.0
C715 C 0.71698 0.43826 0.39591 0.0
C716 C 0.75818 0.43269 0.38395 0.0
C717 C 0.7764 0.46359 0.38361 0.0
C718 C 0.76492 0.48175 0.39003 0.0
C719 C 0.73528 0.46884 0.39616 0.0
C720 C 0.76964 0.41257 0.37735 0.0
C721 C 0.78374 0.51479 0.38985 0.0
H722 H 0.87597 0.49725 0.3943 0.0
H723 H 0.84672 0.49638 0.32752 0.0
H724 H 0.81349 0.48876 0.42183 0.0
H725 H 0.80864 0.45289 0.4182 0.0
H726 H 0.84442 0.48318 0.42496 0.0
H727 H 0.79836 0.48344 0.31902 0.0
H728 H 0.77308 0.45282 0.33587 0.0
H729 H 0.77809 0.4885 0.34103 0.0
H730 H 0.71465 0.39674 0.38992 0.0
H731 H 0.7263 0.4827 0.40066 0.0
H732 H 0.78916 0.41742 0.38747 0.0
H733 H 0.77667 0.41641 0.35971 0.0
H734 H 0.75294 0.38901 0.37944 0.0
H735 H 0.80379 0.52179 0.39994 0.0
H736 H 0.77192 0.52575 0.39639 0.0
H737 H 0.79094 0.52254 0.37262 0.0
C738 C 0.09129 0.56512 0.43894 0.0
C739 C 0.10488 0.5816 0.4198 0.0
C740 C 0.10724 0.569 0.45854 0.0
C741 C 0.13749 0.59007 0.45911 0.0
C742 C 0.1514 0.60677 0.43987 0.0
C743 C 0.13494 0.60229 0.42043 0.0
C744 C 0.09163 0.55078 0.47871 0.0
C745 C 0.18363 0.62951 0.43988 0.0
C746 C 0.17228 0.62101 0.51516 0.0
C747 C 0.18701 0.60554 0.51954 0.0
C748 C 0.15607 0.61615 0.49557 0.0
C749 C 0.15441 0.59518 0.48003 0.0
C750 C 0.1689 0.57918 0.48448 0.0
C751 C 0.18512 0.58462 0.50419 0.0
C752 C 0.14098 0.63369 0.49139 0.0
C753 C 0.16743 0.55649 0.46837 0.0
H754 H 0.06798 0.54944 0.43874 0.0
H755 H 0.14568 0.61484 0.40564 0.0
H756 H 0.10268 0.53877 0.48458 0.0
H757 H 0.09267 0.56531 0.49246 0.0
H758 H 0.06825 0.5346 0.4753 0.0
H759 H 0.1912 0.64045 0.42349 0.0
H760 H 0.1881 0.64652 0.45261 0.0
H761 H 0.19678 0.61913 0.44436 0.0
H762 H 0.17374 0.63729 0.52694 0.0
H763 H 0.19648 0.57262 0.5075 0.0
H764 H 0.11709 0.61869 0.48911 0.0
H765 H 0.14945 0.64657 0.47585 0.0
H766 H 0.14429 0.64905 0.50521 0.0
H767 H 0.14424 0.53944 0.46542 0.0
H768 H 0.17955 0.54562 0.47445 0.0
H769 H 0.17678 0.56696 0.45212 0.0
C770 C 0.54262 0.09617 0.61129 0.0
C771 C 0.53879 0.10885 0.59197 0.0
C772 C 0.55422 0.11272 0.63072 0.0
C773 C 0.56183 0.1426 0.63099 0.0
C774 C 0.55777 0.15551 0.61167 0.0
C775 C 0.54644 0.13852 0.59236 0.0
C776 C 0.55831 0.09819 0.65098 0.0
C777 C 0.56543 0.18727 0.6114 0.0
C778 C 0.56612 0.17727 0.68721 0.0
C779 C 0.59647 0.1933 0.69088 0.0
C780 C 0.55457 0.16089 0.66769 0.0
C781 C 0.57382 0.16025 0.6516 0.0
C782 C 0.60448 0.17619 0.65531 0.0
C783 C 0.61546 0.19268 0.67487 0.0
C784 C 0.52176 0.14441 0.66422 0.0
C785 C 0.62567 0.17573 0.63864 0.0
H786 H 0.53626 0.07313 0.61132 0.0
H787 H 0.5439 0.1486 0.57746 0.0
H788 H 0.58158 0.11029 0.65636 0.0
H789 H 0.54496 0.09893 0.66494 0.0
H790 H 0.55192 0.07492 0.64787 0.0
H791 H 0.56054 0.19387 0.59514 0.0
H792 H 0.553 0.19116 0.62454 0.0
H793 H 0.58908 0.20169 0.61509 0.0
H794 H 0.55136 0.17783 0.69949 0.0
H795 H 0.63893 0.20503 0.67767 0.0
H796 H 0.51374 0.1206 0.66236 0.0
H797 H 0.51624 0.1519 0.64867 0.0
H798 H 0.50983 0.14751 0.67822 0.0
H799 H 0.62071 0.15282 0.63595 0.0
H800 H 0.64885 0.18916 0.64409 0.0
H801 H 0.62313 0.18417 0.6224 0.0
C802 C 0.41793 0.52956 0.7595 0.0
C803 C 0.44423 0.54435 0.74746 0.0
C804 C 0.41322 0.54226 0.77843 0.0
C805 C 0.43553 0.57018 0.78575 0.0
C806 C 0.46188 0.58547 0.7735 0.0
C807 C 0.46577 0.57252 0.75439 0.0
C808 C 0.38463 0.52546 0.79089 0.0
C809 C 0.4863 0.61517 0.7809 0.0
C810 C 0.41636 0.61305 0.82668 0.0
C811 C 0.42382 0.60545 0.84697 0.0
C812 C 0.41997 0.60168 0.80657 0.0
C813 C 0.43186 0.58278 0.80681 0.0
C814 C 0.44008 0.57563 0.82724 0.0
C815 C 0.43567 0.58682 0.84711 0.0
C816 C 0.41048 0.60937 0.78514 0.0
C817 C 0.45336 0.55601 0.82815 0.0
H818 H 0.40127 0.50768 0.75452 0.0
H819 H 0.48589 0.58446 0.74496 0.0
H820 H 0.38876 0.51937 0.8076 0.0
H821 H 0.3746 0.53945 0.79336 0.0
H822 H 0.36866 0.5051 0.78208 0.0
H823 H 0.50517 0.62448 0.76923 0.0
H824 H 0.4781 0.63082 0.7824 0.0
H825 H 0.49421 0.61327 0.79756 0.0
H826 H 0.40697 0.62727 0.82656 0.0
H827 H 0.44155 0.58099 0.86279 0.0
H828 H 0.39317 0.58906 0.77709 0.0
H829 H 0.42919 0.61976 0.77341 0.0
H830 H 0.40184 0.62455 0.78778 0.0
H831 H 0.43753 0.53393 0.82157 0.0
H832 H 0.45957 0.55348 0.8453 0.0
H833 H 0.47318 0.56511 0.81749 0.0
C834 C 0.89423 0.42587 0.92194 0.0
C835 C 0.92487 0.43943 0.92281 0.0
C836 C 0.87778 0.42183 0.94128 0.0
C837 C 0.89238 0.43194 0.9619 0.0
C838 C 0.92333 0.44567 0.96286 0.0
C839 C 0.9392 0.44909 0.9433 0.0
C840 C 0.84477 0.40668 0.93966 0.0
C841 C 0.93968 0.45702 0.98451 0.0
C842 C 0.85105 0.44496 0.00809 0.0
C843 C 0.8414 0.41958 0.02098 0.0
C844 C 0.86807 0.4495 0.98897 0.0
C845 C 0.87523 0.42795 0.9825 0.0
C846 C 0.86565 0.40237 0.99553 0.0
C847 C 0.849 0.39858 0.0147 0.0
C848 C 0.87822 0.47723 0.97562 0.0
C849 C 0.87258 0.37877 0.98904 0.0
H850 H 0.88313 0.4182 0.90611 0.0
H851 H 0.96293 0.45992 0.94394 0.0
H852 H 0.8347 0.387 0.95051 0.0
H853 H 0.83701 0.42159 0.94559 0.0
H854 H 0.83679 0.39978 0.9224 0.0
H855 H 0.96379 0.46736 0.98239 0.0
H856 H 0.93476 0.47345 0.9918 0.0
H857 H 0.9323 0.43878 0.99663 0.0
H858 H 0.84527 0.46126 0.01293 0.0
H859 H 0.84147 0.37885 0.02457 0.0
H860 H 0.86892 0.47164 0.9586 0.0
H861 H 0.90245 0.48907 0.97396 0.0
H862 H 0.87162 0.49225 0.9833 0.0
H863 H 0.86334 0.37 0.97237 0.0
H864 H 0.86362 0.36025 0.00105 0.0
H865 H 0.89666 0.38816 0.98793 0.0
C866 C 0.46721 0.91507 0.09805 0.0
C867 C 0.49278 0.9173 0.08901 0.0
C868 C 0.45461 0.89875 0.11742 0.0
C869 C 0.46769 0.88401 0.12783 0.0
C870 C 0.49327 0.88582 0.11858 0.0
C871 C 0.50566 0.90267 0.09935 0.0
C872 C 0.42761 0.89772 0.12697 0.0
C873 C 0.5076 0.87007 0.12903 0.0
C874 C 0.45356 0.86531 0.18915 0.0
C875 C 0.43167 0.83565 0.18847 0.0
C876 C 0.46519 0.8814 0.16953 0.0
C877 C 0.45504 0.86732 0.14873 0.0
C878 C 0.43289 0.83736 0.14794 0.0
C879 C 0.42126 0.82194 0.16785 0.0
C880 C 0.4884 0.91344 0.17106 0.0
C881 C 0.4218 0.82152 0.12608 0.0
H882 H 0.45743 0.92667 0.09022 0.0
H883 H 0.52529 0.9042 0.09226 0.0
H884 H 0.40954 0.87464 0.12833 0.0
H885 H 0.43232 0.90708 0.144 0.0
H886 H 0.41994 0.91013 0.11671 0.0
H887 H 0.52672 0.87279 0.1193 0.0
H888 H 0.51509 0.87855 0.14607 0.0
H889 H 0.49147 0.84628 0.13051 0.0
H890 H 0.46158 0.876 0.20507 0.0
H891 H 0.40447 0.79895 0.16727 0.0
H892 H 0.48119 0.92703 0.16189 0.0
H893 H 0.50896 0.91704 0.16316 0.0
H894 H 0.49328 0.92131 0.18851 0.0
H895 H 0.41267 0.83259 0.11586 0.0
H896 H 0.40458 0.79817 0.12833 0.0
H897 H 0.44024 0.82232 0.11658 0.0
C898 C 0.55857 0.45308 0.2541 0.0
C899 C 0.58005 0.48131 0.24726 0.0
C900 C 0.56244 0.44018 0.27326 0.0
C901 C 0.58864 0.45565 0.28569 0.0
C902 C 0.61081 0.48371 0.27852 0.0
C903 C 0.60615 0.4963 0.25952 0.0
C904 C 0.53821 0.4103 0.28048 0.0
C905 C 0.6392 0.50076 0.29121 0.0
C906 C 0.58941 0.43952 0.34705 0.0
C907 C 0.60239 0.4219 0.34691 0.0
C908 C 0.5841 0.45 0.32717 0.0
C909 C 0.59245 0.44307 0.3067 0.0
C910 C 0.60521 0.42493 0.30644 0.0
C911 C 0.60981 0.41434 0.32657 0.0
C912 C 0.57 0.46889 0.32811 0.0
C913 C 0.61476 0.41742 0.28497 0.0
H914 H 0.53857 0.44106 0.24454 0.0
H915 H 0.62273 0.51826 0.25463 0.0
H916 H 0.54672 0.39489 0.28203 0.0
H917 H 0.53004 0.41196 0.2971 0.0
H918 H 0.51948 0.40085 0.26868 0.0
H919 H 0.655 0.5214 0.28262 0.0
H920 H 0.63471 0.50639 0.30796 0.0
H921 H 0.64964 0.48712 0.29356 0.0
H922 H 0.58354 0.4453 0.36275 0.0
H923 H 0.62002 0.40085 0.32642 0.0
H924 H 0.55031 0.4595 0.31729 0.0
H925 H 0.5855 0.49119 0.32175 0.0
H926 H 0.56342 0.47096 0.34525 0.0
H927 H 0.5961 0.40709 0.27318 0.0
H928 H 0.62346 0.40227 0.28755 0.0
H929 H 0.63207 0.43781 0.27703 0.0
C930 C 0.47107 0.92775 0.38971 0.0
C931 C 0.44668 0.92538 0.40091 0.0
C932 C 0.46765 0.91184 0.37015 0.0
C933 C 0.43911 0.89268 0.36192 0.0
C934 C 0.41438 0.89006 0.37331 0.0
C935 C 0.41849 0.90672 0.39257 0.0
C936 C 0.49456 0.91569 0.35821 0.0
C937 C 0.38358 0.86945 0.36527 0.0
C938 C 0.42786 0.86919 0.3014 0.0
C939 C 0.42547 0.84148 0.30271 0.0
C940 C 0.43298 0.8864 0.32049 0.0
C941 C 0.43508 0.8753 0.34142 0.0
C942 C 0.43284 0.84738 0.3428 0.0
C943 C 0.42838 0.83092 0.32337 0.0
C944 C 0.4359 0.91635 0.3183 0.0
C945 C 0.43446 0.8346 0.36486 0.0
H946 H 0.49288 0.94243 0.3961 0.0
H947 H 0.39966 0.90481 0.40137 0.0
H948 H 0.49407 0.89439 0.35734 0.0
H949 H 0.49478 0.92299 0.34088 0.0
H950 H 0.5152 0.93197 0.36653 0.0
H951 H 0.36672 0.86954 0.37628 0.0
H952 H 0.38065 0.87571 0.34827 0.0
H953 H 0.37976 0.84672 0.36435 0.0
H954 H 0.42574 0.87744 0.28541 0.0
H955 H 0.42632 0.80939 0.32443 0.0
H956 H 0.45686 0.93329 0.32579 0.0
H957 H 0.41792 0.91687 0.32749 0.0
H958 H 0.43518 0.92235 0.30071 0.0
H959 H 0.45558 0.84948 0.3732 0.0
H960 H 0.4324 0.81262 0.36307 0.0
H961 H 0.41669 0.83255 0.37593 0.0
C962 C 0.52658 0.44947 0.54087 0.0
C963 C 0.53008 0.43826 0.56103 0.0
C964 C 0.53897 0.4463 0.52119 0.0
C965 C 0.55486 0.43115 0.52167 0.0
C966 C 0.55829 0.4196 0.54198 0.0
C967 C 0.54605 0.42352 0.56148 0.0
C968 C 0.5352 0.45927 0.49992 0.0
C969 C 0.57466 0.40289 0.54307 0.0
C970 C 0.5624 0.39825 0.46771 0.0
C971 C 0.5914 0.41822 0.46163 0.0
C972 C 0.55027 0.40217 0.48724 0.0
C973 C 0.56743 0.42692 0.50084 0.0
C974 C 0.59659 0.44745 0.49459 0.0
C975 C 0.60833 0.44272 0.47512 0.0
C976 C 0.51923 0.3796 0.4935 0.0
C977 C 0.61538 0.47433 0.50851 0.0
H978 H 0.51456 0.46123 0.54059 0.0
H979 H 0.54862 0.41472 0.57707 0.0
H980 H 0.55699 0.47488 0.4928 0.0
H981 H 0.5234 0.44166 0.48746 0.0
H982 H 0.52282 0.47101 0.50248 0.0
H983 H 0.57522 0.39517 0.56015 0.0
H984 H 0.56417 0.38356 0.53186 0.0
H985 H 0.59752 0.41701 0.53724 0.0
H986 H 0.54928 0.37917 0.4574 0.0
H987 H 0.63074 0.45822 0.47043 0.0
H988 H 0.50562 0.39017 0.49494 0.0
H989 H 0.51905 0.37003 0.50996 0.0
H990 H 0.50888 0.36151 0.48116 0.0
H991 H 0.60427 0.48736 0.51063 0.0
H992 H 0.6373 0.48861 0.501 0.0
H993 H 0.61845 0.46764 0.52532 0.0
C994 C 0.12291 0.57243 0.72887 0.0
C995 C 0.1139 0.54322 0.73455 0.0
C996 C 0.13971 0.58539 0.70975 0.0
C997 C 0.14803 0.56889 0.69611 0.0
C998 C 0.13977 0.53972 0.70206 0.0
C999 C 0.12269 0.52718 0.72115 0.0
C1000 C 0.14803 0.61654 0.70392 0.0
C1001 C 0.14844 0.52151 0.688 0.0
C1002 C 0.16478 0.58893 0.63518 0.0
C1003 C 0.19551 0.60422 0.63508 0.0
C1004 C 0.14907 0.57779 0.65501 0.0
C1005 C 0.16449 0.58177 0.67517 0.0
C1006 C 0.19553 0.59755 0.67522 0.0
C1007 C 0.21069 0.60874 0.65516 0.0
C1008 C 0.11597 0.56138 0.65434 0.0
C1009 C 0.21272 0.60204 0.69636 0.0
H1010 H 0.11671 0.58518 0.73935 0.0
H1011 H 0.11558 0.50453 0.72523 0.0
H1012 H 0.17218 0.63029 0.70225 0.0
H1013 H 0.13833 0.61689 0.68764 0.0
H1014 H 0.14045 0.62663 0.71658 0.0
H1015 H 0.14168 0.49977 0.69558 0.0
H1016 H 0.13818 0.51793 0.67135 0.0
H1017 H 0.17255 0.53334 0.68553 0.0
H1018 H 0.15296 0.58545 0.6197 0.0
H1019 H 0.23446 0.62043 0.65514 0.0
H1020 H 0.10734 0.57159 0.66599 0.0
H1021 H 0.10738 0.53838 0.65984 0.0
H1022 H 0.10733 0.56111 0.63745 0.0
H1023 H 0.20624 0.61303 0.70903 0.0
H1024 H 0.23676 0.61545 0.69366 0.0
H1025 H 0.20763 0.58044 0.70327 0.0
C1026 C 0.60363 0.14123 0.90408 0.0
C1027 C 0.58191 0.11143 0.9042 0.0
C1028 C 0.60939 0.1584 0.88485 0.0
C1029 C 0.59285 0.14555 0.86534 0.0
C1030 C 0.5708 0.11558 0.86538 0.0
C1031 C 0.56576 0.09886 0.88472 0.0
C1032 C 0.63326 0.19025 0.88537 0.0
C1033 C 0.55262 0.10109 0.84492 0.0
C1034 C 0.58957 0.19515 0.82087 0.0
C1035 C 0.60935 0.19565 0.80507 0.0
C1036 C 0.584 0.17896 0.8406 0.0
C1037 C 0.59887 0.16325 0.84472 0.0
C1038 C 0.61906 0.16392 0.82889 0.0
C1039 C 0.62391 0.17995 0.80919 0.0
C1040 C 0.56202 0.17844 0.85696 0.0
C1041 C 0.63558 0.14771 0.83278 0.0
H1042 H 0.61598 0.15125 0.9191 0.0
H1043 H 0.54935 0.07574 0.88446 0.0
H1044 H 0.65001 0.19432 0.87255 0.0
H1045 H 0.62395 0.20451 0.88135 0.0
H1046 H 0.64426 0.19688 0.90181 0.0
H1047 H 0.53565 0.07782 0.84792 0.0
H1048 H 0.5416 0.11322 0.83926 0.0
H1049 H 0.56701 0.10182 0.83119 0.0
H1050 H 0.57826 0.20725 0.81773 0.0
H1051 H 0.63937 0.18043 0.79708 0.0
H1052 H 0.57263 0.18677 0.87334 0.0
H1053 H 0.54401 0.15552 0.85945 0.0
H1054 H 0.55241 0.19193 0.85132 0.0
H1055 H 0.64808 0.15515 0.84857 0.0
H1056 H 0.6511 0.1511 0.81909 0.0
H1057 H 0.61992 0.12384 0.83442 0.0
C1058 C 0.46888 0.56664 0.05466 0.0
C1059 C 0.49183 0.59088 0.06543 0.0
C1060 C 0.45657 0.57017 0.03506 0.0
C1061 C 0.46714 0.59869 0.02629 0.0
C1062 C 0.48996 0.62332 0.03736 0.0
C1063 C 0.50226 0.61907 0.05671 0.0
C1064 C 0.43268 0.54334 0.0235 0.0
C1065 C 0.50144 0.65411 0.02873 0.0
C1066 C 0.45696 0.60776 0.96494 0.0
C1067 C 0.43234 0.61135 0.96518 0.0
C1068 C 0.46821 0.60314 0.98469 0.0
C1069 C 0.45485 0.6027 0.0052 0.0
C1070 C 0.42992 0.60625 0.00553 0.0
C1071 C 0.41877 0.61025 0.98546 0.0
C1072 C 0.49447 0.59886 0.98361 0.0
C1073 C 0.41538 0.60637 0.02711 0.0
H1074 H 0.46104 0.5448 0.06131 0.0
H1075 H 0.51989 0.6378 0.06516 0.0
H1076 H 0.41273 0.54522 0.02175 0.0
H1077 H 0.43992 0.54174 0.0065 0.0
H1078 H 0.42678 0.52273 0.03259 0.0
H1079 H 0.51833 0.67096 0.03983 0.0
H1080 H 0.51119 0.6563 0.01201 0.0
H1081 H 0.48315 0.65871 0.02693 0.0
H1082 H 0.46743 0.60849 0.94926 0.0
H1083 H 0.39985 0.61323 0.9857 0.0
H1084 H 0.48926 0.57782 0.99167 0.0
H1085 H 0.51309 0.6167 0.99286 0.0
H1086 H 0.50161 0.59871 0.96627 0.0
H1087 H 0.40795 0.58541 0.0361 0.0
H1088 H 0.39621 0.60945 0.02452 0.0
H1089 H 0.43141 0.62428 0.03798 0.0
C1090 C 0.89356 0.48804 0.22764 0.0
C1091 C 0.92426 0.50282 0.2277 0.0
C1092 C 0.87771 0.47562 0.20804 0.0
C1093 C 0.89298 0.47758 0.18816 0.0
C1094 C 0.92401 0.49233 0.18819 0.0
C1095 C 0.9393 0.505 0.20794 0.0
C1096 C 0.84465 0.46054 0.20857 0.0
C1097 C 0.94102 0.49447 0.16741 0.0
C1098 C 0.84959 0.42233 0.14287 0.0
C1099 C 0.84305 0.43925 0.12853 0.0
C1100 C 0.86642 0.4347 0.16211 0.0
C1101 C 0.87643 0.46452 0.16728 0.0
C1102 C 0.87008 0.48174 0.15274 0.0
C1103 C 0.85368 0.46896 0.13343 0.0
C1104 C 0.8732 0.4158 0.17704 0.0
C1105 C 0.88001 0.51349 0.15783 0.0
H1106 H 0.88197 0.48651 0.24291 0.0
H1107 H 0.96306 0.51613 0.20807 0.0
H1108 H 0.83689 0.47112 0.19651 0.0
H1109 H 0.83507 0.43724 0.20352 0.0
H1110 H 0.83616 0.46128 0.22531 0.0
H1111 H 0.96507 0.50621 0.17033 0.0
H1112 H 0.93414 0.47215 0.16104 0.0
H1113 H 0.9362 0.50618 0.15423 0.0
H1114 H 0.84146 0.39938 0.13909 0.0
H1115 H 0.84852 0.48209 0.12246 0.0
H1116 H 0.86303 0.41367 0.19358 0.0
H1117 H 0.89722 0.42631 0.17965 0.0
H1118 H 0.86504 0.39346 0.17011 0.0
H1119 H 0.87042 0.51502 0.17384 0.0
H1120 H 0.87352 0.52394 0.14467 0.0
H1121 H 0.9042 0.5262 0.15969 0.0
loop_
_geom_bond_atom_site_label_1
_geom_bond_atom_site_label_2
_geom_bond_distance
_geom_bond_site_symmetry_2
_ccdc_geom_bond_type
C0 C1 1.384 . S
C0 C2 1.384 . S
C0 H28 0.931 . S
C1 C0 1.384 . S
C1 C4 1.382 . S
C2 C0 1.384 . S
C2 C3 1.381 . S
C2 H29 0.930 . S
C3 C2 1.381 . S
C3 C5 1.381 . S
C3 C6 1.487 . S
C4 C1 1.382 . S
C4 C5 1.387 . S
C4 H30 0.930 . S
C5 C3 1.381 . S
C5 C4 1.387 . S
C5 H31 0.931 . S
C6 C3 1.487 . S
C6 C13 1.409 . S
C6 N44 1.343 1_655 S
C7 C8 1.384 . S
C7 C9 1.384 . S
C7 H32 0.931 . S
C8 C7 1.384 . S
C8 C11 1.382 . S
C9 C7 1.384 . S
C9 C10 1.381 . S
C9 H33 0.930 . S
C10 C9 1.381 . S
C10 C12 1.381 . S
C10 C13 1.507 . S
C11 C8 1.382 . S
C11 C12 1.387 . S
C11 H34 0.930 . S
C12 C10 1.381 . S
C12 C11 1.387 . S
C12 H35 0.931 1_655 S
C13 C6 1.409 . S
C13 C10 1.507 . S
C13 N45 1.311 1_655 S
C14 C15 1.384 . S
C14 C16 1.384 . S
C14 H36 0.931 . S
C15 C14 1.384 . S
C15 C18 1.382 . S
C16 C14 1.384 . S
C16 C17 1.381 . S
C16 H37 0.930 . S
C17 C16 1.381 . S
C17 C19 1.381 . S
C17 C20 1.487 . S
C18 C15 1.382 . S
C18 C19 1.387 . S
C18 H38 0.930 . S
C19 C17 1.381 . S
C19 C18 1.387 . S
C19 H39 0.931 . S
C20 C17 1.487 . S
C20 C27 1.399 . S
C20 N45 1.343 . S
C21 C22 1.384 . S
C21 C23 1.384 . S
C21 H40 0.931 . S
C22 C21 1.384 . S
C22 C25 1.382 . S
C23 C21 1.384 . S
C23 C24 1.381 . S
C23 H41 0.930 . S
C24 C23 1.381 . S
C24 C26 1.381 . S
C24 C27 1.487 . S
C25 C22 1.382 . S
C25 C26 1.387 . S
C25 H42 0.930 . S
C26 C24 1.381 . S
C26 C25 1.387 . S
C26 H43 0.931 . S
C27 C20 1.399 . S
C27 C24 1.487 . S
C27 N44 1.343 . S
H28 C0 0.931 . S
H29 C2 0.930 . S
H30 C4 0.930 . S
H31 C5 0.931 . S
H32 C7 0.931 . S
H33 C9 0.930 . S
H34 C11 0.930 . S
H35 C12 0.931 1_455 S
H36 C14 0.931 . S
H37 C16 0.930 . S
H38 C18 0.930 . S
H39 C19 0.931 . S
H40 C21 0.931 . S
H41 C23 0.930 . S
H42 C25 0.930 . S
H43 C26 0.931 . S
N44 C6 1.343 1_455 S
N44 C27 1.343 . S
N45 C13 1.311 1_455 S
N45 C20 1.343 . S
C46 C47 1.384 . S
C46 C48 1.384 . S
C46 H74 0.931 . S
C47 C46 1.384 . S
C47 C50 1.382 . S
C48 C46 1.384 . S
C48 C49 1.381 . S
C48 H75 0.930 . S
C49 C48 1.381 . S
C49 C51 1.381 . S
C49 C52 1.487 . S
C50 C47 1.382 . S
C50 C51 1.387 . S
C50 H76 0.930 . S
C51 C49 1.381 . S
C51 C50 1.387 . S
C51 H77 0.931 . S
C52 C49 1.487 . S
C52 C59 1.403 . S
C52 N90 1.343 1_565 S
C53 C54 1.384 . S
C53 C55 1.384 . S
C53 H78 0.931 . S
C54 C53 1.384 . S
C54 C57 1.382 . S
C55 C53 1.384 . S
C55 C56 1.381 . S
C55 H79 0.930 . S
C56 C55 1.381 . S
C56 C58 1.381 . S
C56 C59 1.493 . S
C57 C54 1.382 . S
C57 C58 1.387 . S
C57 H80 0.930 . S
C58 C56 1.381 . S
C58 C57 1.387 . S
C58 H81 0.931 1_565 S
C59 C52 1.403 . S
C59 C56 1.493 . S
C59 N91 1.333 1_565 S
C60 C61 1.384 . S
C60 C62 1.384 . S
C60 H82 0.931 . S
C61 C60 1.384 . S
C61 C64 1.382 . S
C62 C60 1.384 . S
C62 C63 1.381 . S
C62 H83 0.930 . S
C63 C62 1.381 . S
C63 C65 1.381 . S
C63 C66 1.487 . S
C64 C61 1.382 . S
C64 C65 1.387 . S
C64 H84 0.930 . S
C65 C63 1.381 . S
C65 C64 1.387 . S
C65 H85 0.931 . S
C66 C63 1.487 . S
C66 C73 1.399 . S
C66 N91 1.343 . S
C67 C68 1.384 . S
C67 C69 1.384 . S
C67 H86 0.931 . S
C68 C67 1.384 . S
C68 C71 1.382 . S
C69 C67 1.384 . S
C69 C70 1.381 . S
C69 H87 0.930 . S
C70 C69 1.381 . S
C70 C72 1.381 . S
C70 C73 1.487 . S
C71 C68 1.382 . S
C71 C72 1.387 . S
C71 H88 0.930 . S
C72 C70 1.381 . S
C72 C71 1.387 . S
C72 H89 0.931 . S
C73 C66 1.399 . S
C73 C70 1.487 . S
C73 N90 1.343 . S
H74 C46 0.931 . S
H75 C48 0.930 . S
H76 C50 0.930 . S
H77 C51 0.931 . S
H78 C53 0.931 . S
H79 C55 0.930 . S
H80 C57 0.930 . S
H81 C58 0.931 1_545 S
H82 C60 0.931 . S
H83 C62 0.930 . S
H84 C64 0.930 . S
H85 C65 0.931 . S
H86 C67 0.931 . S
H87 C69 0.930 . S
H88 C71 0.930 . S
H89 C72 0.931 . S
N90 C52 1.343 1_545 S
N90 C73 1.343 . S
N91 C59 1.333 1_545 S
N91 C66 1.343 . S
C92 C93 1.384 . S
C92 C94 1.384 . S
C92 H120 0.931 . S
C93 C92 1.384 . S
C93 C96 1.382 . S
C94 C92 1.384 . S
C94 C95 1.381 . S
C94 H121 0.930 . S
C95 C94 1.381 . S
C95 C97 1.381 . S
C95 C98 1.487 . S
C96 C93 1.382 . S
C96 C97 1.387 . S
C96 H122 0.930 . S
C97 C95 1.381 . S
C97 C96 1.387 . S
C97 H123 0.931 . S
C98 C95 1.487 . S
C98 C105 1.399 . S
C98 N136 1.343 . S
C99 C100 1.384 . S
C99 C101 1.384 . S
C99 H124 0.931 . S
C100 C99 1.384 . S
C100 C103 1.382 . S
C101 C99 1.384 . S
C101 C102 1.381 . S
C101 H125 0.930 . S
C102 C101 1.381 . S
C102 C104 1.381 . S
C102 C105 1.487 . S
C103 C100 1.382 . S
C103 C104 1.387 . S
C103 H126 0.930 . S
C104 C102 1.381 . S
C104 C103 1.387 . S
C104 H127 0.931 . S
C105 C98 1.399 . S
C105 C102 1.487 . S
C105 N137 1.343 . S
C106 C107 1.384 . S
C106 C108 1.384 . S
C106 H128 0.931 . S
C107 C106 1.384 . S
C107 C110 1.382 . S
C108 C106 1.384 . S
C108 C109 1.381 . S
C108 H129 0.930 . S
C109 C108 1.381 . S
C109 C111 1.381 . S
C109 C112 1.487 . S
C110 C107 1.382 . S
C110 C111 1.387 . S
C110 H130 0.930 . S
C111 C109 1.381 . S
C111 C110 1.387 . S
C111 H131 0.931 . S
C112 C109 1.487 . S
C112 C119 1.399 . S
C112 N137 1.343 . S
C113 C114 1.384 . S
C113 C115 1.384 . S
C113 H132 0.931 . S
C114 C113 1.384 . S
C114 C117 1.382 . S
C115 C113 1.384 . S
C115 C116 1.381 . S
C115 H133 0.930 . S
C116 C115 1.381 . S
C116 C118 1.381 . S
C116 C119 1.487 . S
C117 C114 1.382 . S
C117 C118 1.387 . S
C117 H134 0.930 . S
C118 C116 1.381 . S
C118 C117 1.387 . S
C118 H135 0.931 . S
C119 C112 1.399 . S
C119 C116 1.487 . S
C119 N136 1.343 . S
H120 C92 0.931 . S
H121 C94 0.930 . S
H122 C96 0.930 . S
H123 C97 0.931 . S
H124 C99 0.931 . S
H125 C101 0.930 . S
H126 C103 0.930 . S
H127 C104 0.931 . S
H128 C106 0.931 . S
H129 C108 0.930 . S
H130 C110 0.930 . S
H131 C111 0.931 . S
H132 C113 0.931 . S
H133 C115 0.930 . S
H134 C117 0.930 . S
H135 C118 0.931 . S
N136 C98 1.343 . S
N136 C119 1.343 . S
N137 C105 1.343 . S
N137 C112 1.343 . S
C138 C139 1.384 . S
C138 C140 1.384 . S
C138 H166 0.931 . S
C139 C138 1.384 . S
C139 C142 1.382 . S
C140 C138 1.384 . S
C140 C141 1.381 . S
C140 H167 0.930 . S
C141 C140 1.381 . S
C141 C143 1.381 . S
C141 C144 1.487 . S
C142 C139 1.382 . S
C142 C143 1.387 . S
C142 H168 0.930 . S
C143 C141 1.381 . S
C143 C142 1.387 . S
C143 H169 0.931 . S
C144 C141 1.487 . S
C144 C151 1.399 . S
C144 N182 1.343 1_655 S
C145 C146 1.384 . S
C145 C147 1.384 . S
C145 H170 0.931 . S
C146 C145 1.384 . S
C146 C149 1.382 . S
C147 C145 1.384 . S
C147 C148 1.381 . S
C147 H171 0.930 . S
C148 C147 1.381 . S
C148 C150 1.381 . S
C148 C151 1.487 . S
C149 C146 1.382 . S
C149 C150 1.387 . S
C149 H172 0.930 . S
C150 C148 1.381 . S
C150 C149 1.387 . S
C150 H173 0.910 1_655 S
C151 C144 1.399 . S
C151 C148 1.487 . S
C151 N183 1.343 1_655 S
C152 C153 1.384 . S
C152 C154 1.384 . S
C152 H174 0.931 . S
C153 C152 1.384 . S
C153 C156 1.382 . S
C154 C152 1.384 . S
C154 C155 1.381 . S
C154 H175 0.930 . S
C155 C154 1.381 . S
C155 C157 1.381 . S
C155 C158 1.487 . S
C156 C153 1.382 . S
C156 C157 1.387 . S
C156 H176 0.930 . S
C157 C155 1.381 . S
C157 C156 1.387 . S
C157 H177 0.931 . S
C158 C155 1.487 . S
C158 C165 1.399 . S
C158 N183 1.343 . S
C159 C160 1.384 . S
C159 C161 1.384 . S
C159 H178 0.931 . S
C160 C159 1.384 . S
C160 C163 1.382 . S
C161 C159 1.384 . S
C161 C162 1.381 . S
C161 H179 0.930 . S
C162 C161 1.381 . S
C162 C164 1.381 . S
C162 C165 1.487 . S
C163 C160 1.382 . S
C163 C164 1.387 . S
C163 H180 0.930 . S
C164 C162 1.381 . S
C164 C163 1.387 . S
C164 H181 0.931 . S
C165 C158 1.399 . S
C165 C162 1.487 . S
C165 N182 1.343 . S
H166 C138 0.931 . S
H167 C140 0.930 . S
H168 C142 0.930 . S
H169 C143 0.931 . S
H170 C145 0.931 . S
H171 C147 0.930 . S
H172 C149 0.930 . S
H173 C150 0.910 1_455 S
H174 C152 0.931 . S
H175 C154 0.930 . S
H176 C156 0.930 . S
H177 C157 0.931 . S
H178 C159 0.931 . S
H179 C161 0.930 . S
H180 C163 0.930 . S
H181 C164 0.931 . S
N182 C144 1.343 1_455 S
N182 C165 1.343 . S
N183 C151 1.343 1_455 S
N183 C158 1.343 . S
C184 C185 1.384 . S
C184 C186 1.384 . S
C184 H212 0.931 . S
C185 C184 1.384 . S
C185 C188 1.382 . S
C186 C184 1.384 . S
C186 C187 1.381 . S
C186 H213 0.930 1_556 S
C187 C186 1.381 . S
C187 C189 1.381 . S
C187 C190 1.487 . S
C188 C185 1.382 . S
C188 C189 1.387 . S
C188 H214 0.930 . S
C189 C187 1.381 . S
C189 C188 1.387 . S
C189 H215 0.931 . S
C190 C187 1.487 . S
C190 C197 1.401 1_556 S
C190 N228 1.343 1_565 S
C191 C192 1.384 . S
C191 C193 1.384 . S
C191 H216 0.931 . S
C192 C191 1.384 . S
C192 C195 1.382 . S
C193 C191 1.384 . S
C193 C194 1.381 . S
C193 H217 0.930 . S
C194 C193 1.381 . S
C194 C196 1.381 . S
C194 C197 1.492 . S
C195 C192 1.382 . S
C195 C196 1.387 . S
C195 H218 0.930 . S
C196 C194 1.381 . S
C196 C195 1.387 . S
C196 H219 0.931 1_565 S
C197 C190 1.401 1_554 S
C197 C194 1.492 . S
C197 N229 1.335 1_565 S
C198 C199 1.384 . S
C198 C200 1.384 1_554 S
C198 H220 0.931 1_554 S
C199 C198 1.384 . S
C199 C202 1.382 . S
C200 C198 1.384 1_556 S
C200 C201 1.381 1_556 S
C200 H221 0.930 . S
C201 C200 1.381 1_554 S
C201 C203 1.381 . S
C201 C204 1.487 1_554 S
C202 C199 1.382 . S
C202 C203 1.387 . S
C202 H222 0.930 . S
C203 C201 1.381 . S
C203 C202 1.387 . S
C203 H223 0.931 . S
C204 C201 1.487 1_556 S
C204 C211 1.399 . S
C204 N229 1.343 1_556 S
C205 C206 1.384 . S
C205 C207 1.384 . S
C205 H224 0.931 . S
C206 C205 1.384 . S
C206 C209 1.382 . S
C207 C205 1.384 . S
C207 C208 1.381 . S
C207 H225 0.930 . S
C208 C207 1.381 . S
C208 C210 1.381 . S
C208 C211 1.487 . S
C209 C206 1.382 . S
C209 C210 1.387 . S
C209 H226 0.930 . S
C210 C208 1.381 . S
C210 C209 1.387 . S
C210 H227 0.931 . S
C211 C204 1.399 . S
C211 C208 1.487 . S
C211 N228 1.343 . S
H212 C184 0.931 . S
H213 C186 0.930 1_554 S
H214 C188 0.930 . S
H215 C189 0.931 . S
H216 C191 0.931 . S
H217 C193 0.930 . S
H218 C195 0.930 . S
H219 C196 0.931 1_545 S
H220 C198 0.931 1_556 S
H221 C200 0.930 . S
H222 C202 0.930 . S
H223 C203 0.931 . S
H224 C205 0.931 . S
H225 C207 0.930 . S
H226 C209 0.930 . S
H227 C210 0.931 . S
N228 C190 1.343 1_545 S
N228 C211 1.343 . S
N229 C197 1.335 1_545 S
N229 C204 1.343 1_554 S
C230 C231 1.384 . S
C230 C232 1.384 . S
C230 H258 0.931 . S
C231 C230 1.384 . S
C231 C234 1.382 . S
C232 C230 1.384 . S
C232 C233 1.381 . S
C232 H259 0.930 . S
C233 C232 1.381 . S
C233 C235 1.381 . S
C233 C236 1.487 . S
C234 C231 1.382 . S
C234 C235 1.387 . S
C234 H260 0.930 . S
C235 C233 1.381 . S
C235 C234 1.387 . S
C235 H261 0.931 . S
C236 C233 1.487 . S
C236 C243 1.399 . S
C236 N274 1.343 . S
C237 C238 1.384 . S
C237 C239 1.384 . S
C237 H262 0.931 . S
C238 C237 1.384 . S
C238 C241 1.382 . S
C239 C237 1.384 . S
C239 C240 1.381 . S
C239 H263 0.930 . S
C240 C239 1.381 . S
C240 C242 1.381 . S
C240 C243 1.487 . S
C241 C238 1.382 . S
C241 C242 1.387 . S
C241 H264 0.930 . S
C242 C240 1.381 . S
C242 C241 1.387 . S
C242 H265 0.931 . S
C243 C236 1.399 . S
C243 C240 1.487 . S
C243 N275 1.343 . S
C244 C245 1.384 . S
C244 C246 1.384 . S
C244 H266 0.931 . S
C245 C244 1.384 . S
C245 C248 1.382 . S
C246 C244 1.384 . S
C246 C247 1.381 . S
C246 H267 0.930 . S
C247 C246 1.381 . S
C247 C249 1.381 . S
C247 C250 1.487 . S
C248 C245 1.382 . S
C248 C249 1.387 . S
C248 H268 0.930 . S
C249 C247 1.381 . S
C249 C248 1.387 . S
C249 H269 0.931 . S
C250 C247 1.487 . S
C250 C257 1.399 . S
C250 N275 1.343 . S
C251 C252 1.384 . S
C251 C253 1.384 . S
C251 H270 0.931 . S
C252 C251 1.384 . S
C252 C255 1.382 . S
C253 C251 1.384 . S
C253 C254 1.381 . S
C253 H271 0.930 . S
C254 C253 1.381 . S
C254 C256 1.381 . S
C254 C257 1.487 . S
C255 C252 1.382 . S
C255 C256 1.387 . S
C255 H272 0.930 . S
C256 C254 1.381 . S
C256 C255 1.387 . S
C256 H273 0.931 . S
C257 C250 1.399 . S
C257 C254 1.487 . S
C257 N274 1.343 . S
H258 C230 0.931 . S
H259 C232 0.930 . S
H260 C234 0.930 . S
H261 C235 0.931 . S
H262 C237 0.931 . S
H263 C239 0.930 . S
H264 C241 0.930 . S
H265 C242 0.931 . S
H266 C244 0.931 . S
H267 C246 0.930 . S
H268 C248 0.930 . S
H269 C249 0.931 . S
H270 C251 0.931 . S
H271 C253 0.930 . S
H272 C255 0.930 . S
H273 C256 0.931 . S
N274 C236 1.343 . S
N274 C257 1.343 . S
N275 C243 1.343 . S
N275 C250 1.343 . S
In276 O277 2.294 . S
In276 O278 2.326 . S
In276 O282 2.266 . S
In276 O283 2.326 . S
In276 O284 2.266 . S
In276 O285 2.326 . S
In276 O287 2.294 . S
In276 O288 2.326 . S
O277 In276 2.294 . S
O277 C286 1.240 . S
O278 In276 2.326 . S
O278 C286 1.252 . S
C279 O282 1.252 . S
C279 O283 1.260 . S
C280 O287 1.240 . S
C280 O288 1.252 . S
C281 O284 1.252 . S
C281 O285 1.260 . S
O282 In276 2.266 . S
O282 C279 1.252 . S
O283 In276 2.326 . S
O283 C279 1.260 . S
O284 In276 2.266 . S
O284 C281 1.252 . S
O285 In276 2.326 . S
O285 C281 1.260 . S
C286 O277 1.240 . S
C286 O278 1.252 . S
O287 In276 2.294 . S
O287 C280 1.240 . S
O288 In276 2.326 . S
O288 C280 1.252 . S
In289 O290 2.294 . S
In289 O291 2.326 . S
In289 O295 2.266 . S
In289 O296 2.326 . S
In289 O297 2.266 . S
In289 O298 2.326 . S
In289 O300 2.294 . S
In289 O301 2.326 . S
O290 In289 2.294 . S
O290 C299 1.240 . S
O291 In289 2.326 . S
O291 C299 1.252 . S
C292 O295 1.252 . S
C292 O296 1.260 . S
C293 O300 1.240 . S
C293 O301 1.252 . S
C294 O297 1.252 . S
C294 O298 1.260 . S
O295 In289 2.266 . S
O295 C292 1.252 . S
O296 In289 2.326 . S
O296 C292 1.260 . S
O297 In289 2.266 . S
O297 C294 1.252 . S
O298 In289 2.326 . S
O298 C294 1.260 . S
C299 O290 1.240 . S
C299 O291 1.252 . S
O300 In289 2.294 . S
O300 C293 1.240 . S
O301 In289 2.326 . S
O301 C293 1.252 . S
In302 O303 2.294 . S
In302 O304 2.326 . S
In302 O308 2.266 . S
In302 O309 2.326 . S
In302 O310 2.266 . S
In302 O311 2.326 . S
In302 O313 2.294 . S
In302 O314 2.326 . S
O303 In302 2.294 . S
O303 C312 1.240 . S
O304 In302 2.326 . S
O304 C312 1.252 . S
C305 O308 1.252 . S
C305 O309 1.260 . S
C306 O313 1.240 . S
C306 O314 1.252 . S
C307 O310 1.252 . S
C307 O311 1.260 . S
O308 In302 2.266 . S
O308 C305 1.252 . S
O309 In302 2.326 . S
O309 C305 1.260 . S
O310 In302 2.266 . S
O310 C307 1.252 . S
O311 In302 2.326 . S
O311 C307 1.260 . S
C312 O303 1.240 . S
C312 O304 1.252 . S
O313 In302 2.294 . S
O313 C306 1.240 . S
O314 In302 2.326 . S
O314 C306 1.252 . S
In315 O316 2.294 . S
In315 O317 2.326 . S
In315 O321 2.266 . S
In315 O322 2.326 . S
In315 O323 2.266 . S
In315 O324 2.326 . S
In315 O326 2.294 . S
In315 O327 2.326 . S
O316 In315 2.294 . S
O316 C325 1.240 . S
O317 In315 2.326 . S
O317 C325 1.252 . S
C318 O321 1.252 . S
C318 O322 1.260 . S
C319 O326 1.240 . S
C319 O327 1.252 . S
C320 O323 1.252 . S
C320 O324 1.260 . S
O321 In315 2.266 . S
O321 C318 1.252 . S
O322 In315 2.326 . S
O322 C318 1.260 . S
O323 In315 2.266 . S
O323 C320 1.252 . S
O324 In315 2.326 . S
O324 C320 1.260 . S
C325 O316 1.240 . S
C325 O317 1.252 . S
O326 In315 2.294 . S
O326 C319 1.240 . S
O327 In315 2.326 . S
O327 C319 1.252 . S
In328 O329 2.294 . S
In328 O330 2.326 . S
In328 O334 2.266 . S
In328 O335 2.326 . S
In328 O336 2.266 . S
In328 O337 2.326 . S
In328 O339 2.294 . S
In328 O340 2.326 . S
O329 In328 2.294 . S
O329 C338 1.240 . S
O330 In328 2.326 . S
O330 C338 1.252 . S
C331 O334 1.252 . S
C331 O335 1.260 . S
C332 O339 1.240 . S
C332 O340 1.252 . S
C333 O336 1.252 . S
C333 O337 1.260 . S
O334 In328 2.266 . S
O334 C331 1.252 . S
O335 In328 2.326 . S
O335 C331 1.260 . S
O336 In328 2.266 . S
O336 C333 1.252 . S
O337 In328 2.326 . S
O337 C333 1.260 . S
C338 O329 1.240 . S
C338 O330 1.252 . S
O339 In328 2.294 . S
O339 C332 1.240 . S
O340 In328 2.326 . S
O340 C332 1.252 . S
In341 O342 2.294 . S
In341 O343 2.326 . S
In341 O347 2.266 . S
In341 O348 2.326 . S
In341 O349 2.266 . S
In341 O350 2.326 . S
In341 O352 2.294 . S
In341 O353 2.326 . S
O342 In341 2.294 . S
O342 C351 1.240 . S
O343 In341 2.326 . S
O343 C351 1.252 . S
C344 O347 1.252 . S
C344 O348 1.260 . S
C345 O352 1.240 . S
C345 O353 1.252 . S
C346 O349 1.252 . S
C346 O350 1.260 . S
O347 In341 2.266 . S
O347 C344 1.252 . S
O348 In341 2.326 . S
O348 C344 1.260 . S
O349 In341 2.266 . S
O349 C346 1.252 . S
O350 In341 2.326 . S
O350 C346 1.260 . S
C351 O342 1.240 . S
C351 O343 1.252 . S
O352 In341 2.294 . S
O352 C345 1.240 . S
O353 In341 2.326 . S
O353 C345 1.252 . S
C354 C355 1.391 . S
C354 C356 1.394 . S
C354 H370 0.931 . S
C355 C354 1.391 . S
C355 C359 1.376 . S
C356 C354 1.394 . S
C356 C357 1.369 . S
C356 C360 1.531 . S
C357 C356 1.369 . S
C357 C358 1.410 . S
C357 C365 1.503 . S
C358 C357 1.410 . S
C358 C359 1.392 . S
C358 C361 1.511 . S
C359 C355 1.376 . S
C359 C358 1.392 . S
C359 H371 0.929 . S
C360 C356 1.531 . S
C360 H372 0.960 . S
C360 H373 0.962 . S
C360 H374 0.960 . S
C361 C358 1.511 . S
C361 H375 0.961 . S
C361 H376 0.961 . S
C361 H377 0.961 . S
C362 C363 1.370 . S
C362 C364 1.363 . S
C362 H378 0.931 . S
C363 C362 1.370 . S
C363 C367 1.408 . S
C364 C362 1.363 . S
C364 C365 1.370 . S
C364 C368 1.524 . S
C365 C357 1.503 . S
C365 C364 1.370 . S
C365 C366 1.403 . S
C366 C365 1.403 . S
C366 C367 1.404 . S
C366 C369 1.539 . S
C367 C363 1.408 . S
C367 C366 1.404 . S
C367 H379 0.930 . S
C368 C364 1.524 . S
C368 H380 0.956 . S
C368 H381 0.961 . S
C368 H382 0.961 . S
C369 C366 1.539 . S
C369 H383 0.958 . S
C369 H384 0.961 . S
C369 H385 0.960 . S
H370 C354 0.931 . S
H371 C359 0.929 . S
H372 C360 0.960 . S
H373 C360 0.962 . S
H374 C360 0.960 . S
H375 C361 0.961 . S
H376 C361 0.961 . S
H377 C361 0.961 . S
H378 C362 0.931 . S
H379 C367 0.930 . S
H380 C368 0.956 . S
H381 C368 0.961 . S
H382 C368 0.961 . S
H383 C369 0.958 . S
H384 C369 0.961 . S
H385 C369 0.960 . S
C386 C387 1.391 . S
C386 C388 1.394 . S
C386 H402 0.931 . S
C387 C386 1.391 . S
C387 C391 1.376 . S
C388 C386 1.394 . S
C388 C389 1.369 . S
C388 C392 1.531 . S
C389 C388 1.369 . S
C389 C390 1.410 . S
C389 C397 1.503 . S
C390 C389 1.410 . S
C390 C391 1.392 . S
C390 C393 1.511 . S
C391 C387 1.376 . S
C391 C390 1.392 . S
C391 H403 0.929 . S
C392 C388 1.531 . S
C392 H404 0.960 . S
C392 H405 0.962 . S
C392 H406 0.960 . S
C393 C390 1.511 . S
C393 H407 0.961 . S
C393 H408 0.961 . S
C393 H409 0.961 . S
C394 C395 1.370 . S
C394 C396 1.363 . S
C394 H410 0.931 . S
C395 C394 1.370 . S
C395 C399 1.408 . S
C396 C394 1.363 . S
C396 C397 1.370 . S
C396 C400 1.524 . S
C397 C389 1.503 . S
C397 C396 1.370 . S
C397 C398 1.403 . S
C398 C397 1.403 . S
C398 C399 1.404 . S
C398 C401 1.539 . S
C399 C395 1.408 . S
C399 C398 1.404 . S
C399 H411 0.930 . S
C400 C396 1.524 . S
C400 H412 0.956 . S
C400 H413 0.961 . S
C400 H414 0.961 . S
C401 C398 1.539 . S
C401 H415 0.958 . S
C401 H416 0.961 . S
C401 H417 0.960 . S
H402 C386 0.931 . S
H403 C391 0.929 . S
H404 C392 0.960 . S
H405 C392 0.962 . S
H406 C392 0.960 . S
H407 C393 0.961 . S
H408 C393 0.961 . S
H409 C393 0.961 . S
H410 C394 0.931 . S
H411 C399 0.930 . S
H412 C400 0.956 . S
H413 C400 0.961 . S
H414 C400 0.961 . S
H415 C401 0.958 . S
H416 C401 0.961 . S
H417 C401 0.960 . S
C418 C419 1.391 . S
C418 C420 1.394 . S
C418 H434 0.931 . S
C419 C418 1.391 . S
C419 C423 1.376 . S
C420 C418 1.394 . S
C420 C421 1.369 . S
C420 C424 1.531 . S
C421 C420 1.369 . S
C421 C422 1.410 . S
C421 C429 1.503 . S
C422 C421 1.410 . S
C422 C423 1.392 . S
C422 C425 1.511 . S
C423 C419 1.376 . S
C423 C422 1.392 . S
C423 H435 0.929 . S
C424 C420 1.531 . S
C424 H436 0.960 . S
C424 H437 0.962 . S
C424 H438 0.960 . S
C425 C422 1.511 . S
C425 H439 0.961 . S
C425 H440 0.961 . S
C425 H441 0.961 . S
C426 C427 1.370 . S
C426 C428 1.363 . S
C426 H442 0.931 . S
C427 C426 1.370 . S
C427 C431 1.408 . S
C428 C426 1.363 . S
C428 C429 1.370 . S
C428 C432 1.524 . S
C429 C421 1.503 . S
C429 C428 1.370 . S
C429 C430 1.403 . S
C430 C429 1.403 . S
C430 C431 1.404 . S
C430 C433 1.539 . S
C431 C427 1.408 . S
C431 C430 1.404 . S
C431 H443 0.930 . S
C432 C428 1.524 . S
C432 H444 0.956 . S
C432 H445 0.961 . S
C432 H446 0.961 . S
C433 C430 1.539 . S
C433 H447 0.958 . S
C433 H448 0.961 . S
C433 H449 0.960 . S
H434 C418 0.931 . S
H435 C423 0.929 . S
H436 C424 0.960 . S
H437 C424 0.962 . S
H438 C424 0.960 . S
H439 C425 0.961 . S
H440 C425 0.961 . S
H441 C425 0.961 . S
H442 C426 0.931 . S
H443 C431 0.930 . S
H444 C432 0.956 . S
H445 C432 0.961 . S
H446 C432 0.961 . S
H447 C433 0.958 . S
H448 C433 0.961 . S
H449 C433 0.960 . S
C450 C451 1.391 . S
C450 C452 1.394 . S
C450 H466 0.931 . S
C451 C450 1.391 . S
C451 C455 1.376 . S
C452 C450 1.394 . S
C452 C453 1.369 . S
C452 C456 1.531 . S
C453 C452 1.369 . S
C453 C454 1.410 . S
C453 C461 1.503 . S
C454 C453 1.410 . S
C454 C455 1.392 . S
C454 C457 1.511 . S
C455 C451 1.376 . S
C455 C454 1.392 . S
C455 H467 0.929 . S
C456 C452 1.531 . S
C456 H468 0.960 . S
C456 H469 0.962 . S
C456 H470 0.960 . S
C457 C454 1.511 . S
C457 H471 0.961 . S
C457 H472 0.961 . S
C457 H473 0.961 . S
C458 C459 1.370 . S
C458 C460 1.363 . S
C458 H474 0.931 . S
C459 C458 1.370 . S
C459 C463 1.408 . S
C460 C458 1.363 . S
C460 C461 1.370 . S
C460 C464 1.524 . S
C461 C453 1.503 . S
C461 C460 1.370 . S
C461 C462 1.403 . S
C462 C461 1.403 . S
C462 C463 1.404 . S
C462 C465 1.539 . S
C463 C459 1.408 . S
C463 C462 1.404 . S
C463 H475 0.930 . S
C464 C460 1.524 . S
C464 H476 0.956 . S
C464 H477 0.961 . S
C464 H478 0.961 . S
C465 C462 1.539 . S
C465 H479 0.958 . S
C465 H480 0.961 . S
C465 H481 0.960 . S
H466 C450 0.931 . S
H467 C455 0.929 . S
H468 C456 0.960 . S
H469 C456 0.962 . S
H470 C456 0.960 . S
H471 C457 0.961 . S
H472 C457 0.961 . S
H473 C457 0.961 . S
H474 C458 0.931 . S
H475 C463 0.930 . S
H476 C464 0.956 . S
H477 C464 0.961 . S
H478 C464 0.961 . S
H479 C465 0.958 . S
H480 C465 0.961 . S
H481 C465 0.960 . S
C482 C483 1.391 . S
C482 C484 1.394 . S
C482 H498 0.931 . S
C483 C482 1.391 . S
C483 C487 1.376 . S
C484 C482 1.394 . S
C484 C485 1.369 . S
C484 C488 1.531 . S
C485 C484 1.369 . S
C485 C486 1.410 . S
C485 C493 1.503 . S
C486 C485 1.410 . S
C486 C487 1.392 . S
C486 C489 1.511 . S
C487 C483 1.376 . S
C487 C486 1.392 . S
C487 H499 0.929 . S
C488 C484 1.531 . S
C488 H500 0.960 . S
C488 H501 0.962 . S
C488 H502 0.960 . S
C489 C486 1.511 . S
C489 H503 0.961 . S
C489 H504 0.961 . S
C489 H505 0.961 . S
C490 C491 1.370 . S
C490 C492 1.363 . S
C490 H506 0.931 . S
C491 C490 1.370 . S
C491 C495 1.408 . S
C492 C490 1.363 . S
C492 C493 1.370 . S
C492 C496 1.524 . S
C493 C485 1.503 . S
C493 C492 1.370 . S
C493 C494 1.403 . S
C494 C493 1.403 . S
C494 C495 1.404 . S
C494 C497 1.539 . S
C495 C491 1.408 . S
C495 C494 1.404 . S
C495 H507 0.930 . S
C496 C492 1.524 . S
C496 H508 0.956 . S
C496 H509 0.961 . S
C496 H510 0.961 . S
C497 C494 1.539 . S
C497 H511 0.958 . S
C497 H512 0.961 . S
C497 H513 0.960 . S
H498 C482 0.931 . S
H499 C487 0.929 . S
H500 C488 0.960 . S
H501 C488 0.962 . S
H502 C488 0.960 . S
H503 C489 0.961 . S
H504 C489 0.961 . S
H505 C489 0.961 . S
H506 C490 0.931 . S
H507 C495 0.930 . S
H508 C496 0.956 . S
H509 C496 0.961 . S
H510 C496 0.961 . S
H511 C497 0.958 . S
H512 C497 0.961 . S
H513 C497 0.960 . S
C514 C515 1.391 . S
C514 C516 1.394 . S
C514 H530 0.931 . S
C515 C514 1.391 . S
C515 C519 1.376 . S
C516 C514 1.394 . S
C516 C517 1.369 . S
C516 C520 1.531 . S
C517 C516 1.369 . S
C517 C518 1.410 . S
C517 C525 1.503 . S
C518 C517 1.410 . S
C518 C519 1.392 . S
C518 C521 1.511 . S
C519 C515 1.376 . S
C519 C518 1.392 . S
C519 H531 0.929 . S
C520 C516 1.531 . S
C520 H532 0.960 . S
C520 H533 0.962 . S
C520 H534 0.960 . S
C521 C518 1.511 . S
C521 H535 0.961 . S
C521 H536 0.961 . S
C521 H537 0.961 . S
C522 C523 1.370 . S
C522 C524 1.363 . S
C522 H538 0.931 . S
C523 C522 1.370 . S
C523 C527 1.408 . S
C524 C522 1.363 . S
C524 C525 1.370 . S
C524 C528 1.524 . S
C525 C517 1.503 . S
C525 C524 1.370 . S
C525 C526 1.403 . S
C526 C525 1.403 . S
C526 C527 1.404 . S
C526 C529 1.539 . S
C527 C523 1.408 . S
C527 C526 1.404 . S
C527 H539 0.930 . S
C528 C524 1.524 . S
C528 H540 0.956 . S
C528 H541 0.961 . S
C528 H542 0.961 . S
C529 C526 1.539 . S
C529 H543 0.958 . S
C529 H544 0.961 . S
C529 H545 0.960 . S
H530 C514 0.931 . S
H531 C519 0.929 . S
H532 C520 0.960 . S
H533 C520 0.962 . S
H534 C520 0.960 . S
H535 C521 0.961 . S
H536 C521 0.961 . S
H537 C521 0.961 . S
H538 C522 0.931 . S
H539 C527 0.930 . S
H540 C528 0.956 . S
H541 C528 0.961 . S
H542 C528 0.961 . S
H543 C529 0.958 . S
H544 C529 0.961 . S
H545 C529 0.960 . S
C546 C547 1.391 . S
C546 C548 1.394 . S
C546 H562 0.931 . S
C547 C546 1.391 . S
C547 C551 1.376 . S
C548 C546 1.394 . S
C548 C549 1.369 . S
C548 C552 1.531 . S
C549 C548 1.369 . S
C549 C550 1.410 . S
C549 C557 1.503 . S
C550 C549 1.410 . S
C550 C551 1.392 . S
C550 C553 1.511 . S
C551 C547 1.376 . S
C551 C550 1.392 . S
C551 H563 0.929 . S
C552 C548 1.531 . S
C552 H564 0.960 . S
C552 H565 0.962 . S
C552 H566 0.960 . S
C553 C550 1.511 . S
C553 H567 0.961 . S
C553 H568 0.961 . S
C553 H569 0.961 . S
C554 C555 1.370 . S
C554 C556 1.363 . S
C554 H570 0.931 . S
C555 C554 1.370 . S
C555 C559 1.408 . S
C556 C554 1.363 . S
C556 C557 1.370 . S
C556 C560 1.524 . S
C557 C549 1.503 . S
C557 C556 1.370 . S
C557 C558 1.403 . S
C558 C557 1.403 . S
C558 C559 1.404 . S
C558 C561 1.539 . S
C559 C555 1.408 . S
C559 C558 1.404 . S
C559 H571 0.930 . S
C560 C556 1.524 . S
C560 H572 0.956 . S
C560 H573 0.961 . S
C560 H574 0.961 . S
C561 C558 1.539 . S
C561 H575 0.958 . S
C561 H576 0.961 . S
C561 H577 0.960 . S
H562 C546 0.931 . S
H563 C551 0.929 . S
H564 C552 0.960 . S
H565 C552 0.962 . S
H566 C552 0.960 . S
H567 C553 0.961 . S
H568 C553 0.961 . S
H569 C553 0.961 . S
H570 C554 0.931 . S
H571 C559 0.930 . S
H572 C560 0.956 . S
H573 C560 0.961 . S
H574 C560 0.961 . S
H575 C561 0.958 . S
H576 C561 0.961 . S
H577 C561 0.960 . S
C578 C579 1.391 . S
C578 C580 1.394 . S
C578 H594 0.931 . S
C579 C578 1.391 . S
C579 C583 1.376 . S
C580 C578 1.394 . S
C580 C581 1.369 . S
C580 C584 1.531 . S
C581 C580 1.369 . S
C581 C582 1.410 . S
C581 C589 1.503 . S
C582 C581 1.410 . S
C582 C583 1.392 . S
C582 C585 1.511 . S
C583 C579 1.376 . S
C583 C582 1.392 . S
C583 H595 0.929 . S
C584 C580 1.531 . S
C584 H596 0.960 . S
C584 H597 0.962 . S
C584 H598 0.960 . S
C585 C582 1.511 . S
C585 H599 0.961 . S
C585 H600 0.961 . S
C585 H601 0.961 . S
C586 C587 1.370 . S
C586 C588 1.363 . S
C586 H602 0.931 . S
C587 C586 1.370 . S
C587 C591 1.408 . S
C588 C586 1.363 . S
C588 C589 1.370 . S
C588 C592 1.524 . S
C589 C581 1.503 . S
C589 C588 1.370 . S
C589 C590 1.403 . S
C590 C589 1.403 . S
C590 C591 1.404 . S
C590 C593 1.539 . S
C591 C587 1.408 . S
C591 C590 1.404 . S
C591 H603 0.930 . S
C592 C588 1.524 . S
C592 H604 0.956 . S
C592 H605 0.961 . S
C592 H606 0.961 . S
C593 C590 1.539 . S
C593 H607 0.958 . S
C593 H608 0.961 . S
C593 H609 0.960 . S
H594 C578 0.931 . S
H595 C583 0.929 . S
H596 C584 0.960 . S
H597 C584 0.962 . S
H598 C584 0.960 . S
H599 C585 0.961 . S
H600 C585 0.961 . S
H601 C585 0.961 . S
H602 C586 0.931 . S
H603 C591 0.930 . S
H604 C592 0.956 . S
H605 C592 0.961 . S
H606 C592 0.961 . S
H607 C593 0.958 . S
H608 C593 0.961 . S
H609 C593 0.960 . S
C610 C611 1.391 . S
C610 C612 1.394 . S
C610 H626 0.931 . S
C611 C610 1.391 . S
C611 C615 1.376 . S
C612 C610 1.394 . S
C612 C613 1.369 . S
C612 C616 1.531 . S
C613 C612 1.369 . S
C613 C614 1.410 . S
C613 C621 1.503 . S
C614 C613 1.410 . S
C614 C615 1.392 . S
C614 C617 1.511 . S
C615 C611 1.376 . S
C615 C614 1.392 . S
C615 H627 0.929 . S
C616 C612 1.531 . S
C616 H628 0.960 . S
C616 H629 0.962 . S
C616 H630 0.960 . S
C617 C614 1.511 . S
C617 H631 0.961 . S
C617 H632 0.961 . S
C617 H633 0.961 . S
C618 C619 1.370 . S
C618 C620 1.363 . S
C618 H634 0.931 . S
C619 C618 1.370 . S
C619 C623 1.408 . S
C620 C618 1.363 . S
C620 C621 1.370 . S
C620 C624 1.524 . S
C621 C613 1.503 . S
C621 C620 1.370 . S
C621 C622 1.403 . S
C622 C621 1.403 . S
C622 C623 1.404 . S
C622 C625 1.539 . S
C623 C619 1.408 . S
C623 C622 1.404 . S
C623 H635 0.930 . S
C624 C620 1.524 . S
C624 H636 0.956 . S
C624 H637 0.961 . S
C624 H638 0.961 . S
C625 C622 1.539 . S
C625 H639 0.958 . S
C625 H640 0.961 . S
C625 H641 0.960 . S
H626 C610 0.931 . S
H627 C615 0.929 . S
H628 C616 0.960 . S
H629 C616 0.962 . S
H630 C616 0.960 . S
H631 C617 0.961 . S
H632 C617 0.961 . S
H633 C617 0.961 . S
H634 C618 0.931 . S
H635 C623 0.930 . S
H636 C624 0.956 . S
H637 C624 0.961 . S
H638 C624 0.961 . S
H639 C625 0.958 . S
H640 C625 0.961 . S
H641 C625 0.960 . S
C642 C643 1.391 . S
C642 C644 1.394 . S
C642 H658 0.931 . S
C643 C642 1.391 . S
C643 C647 1.376 . S
C644 C642 1.394 . S
C644 C645 1.369 . S
C644 C648 1.531 . S
C645 C644 1.369 . S
C645 C646 1.410 . S
C645 C653 1.503 . S
C646 C645 1.410 . S
C646 C647 1.392 . S
C646 C649 1.511 . S
C647 C643 1.376 . S
C647 C646 1.392 . S
C647 H659 0.929 . S
C648 C644 1.531 . S
C648 H660 0.960 . S
C648 H661 0.962 . S
C648 H662 0.960 . S
C649 C646 1.511 . S
C649 H663 0.961 . S
C649 H664 0.961 . S
C649 H665 0.961 . S
C650 C651 1.370 . S
C650 C652 1.363 . S
C650 H666 0.931 . S
C651 C650 1.370 . S
C651 C655 1.408 . S
C652 C650 1.363 . S
C652 C653 1.370 . S
C652 C656 1.524 . S
C653 C645 1.503 . S
C653 C652 1.370 . S
C653 C654 1.403 . S
C654 C653 1.403 . S
C654 C655 1.404 . S
C654 C657 1.539 . S
C655 C651 1.408 . S
C655 C654 1.404 . S
C655 H667 0.930 . S
C656 C652 1.524 . S
C656 H668 0.956 . S
C656 H669 0.961 . S
C656 H670 0.961 . S
C657 C654 1.539 . S
C657 H671 0.958 1_554 S
C657 H672 0.961 1_554 S
C657 H673 0.961 . S
H658 C642 0.931 . S
H659 C647 0.929 . S
H660 C648 0.960 . S
H661 C648 0.962 . S
H662 C648 0.960 . S
H663 C649 0.961 . S
H664 C649 0.961 . S
H665 C649 0.961 . S
H666 C650 0.931 . S
H667 C655 0.930 . S
H668 C656 0.956 . S
H669 C656 0.961 . S
H670 C656 0.961 . S
H671 C657 0.958 1_556 S
H672 C657 0.961 1_556 S
H673 C657 0.961 . S
C674 C675 1.391 . S
C674 C676 1.394 . S
C674 H690 0.931 . S
C675 C674 1.391 . S
C675 C679 1.376 . S
C676 C674 1.394 . S
C676 C677 1.369 . S
C676 C680 1.531 . S
C677 C676 1.369 . S
C677 C678 1.410 . S
C677 C685 1.503 . S
C678 C677 1.410 . S
C678 C679 1.392 . S
C678 C681 1.511 . S
C679 C675 1.376 . S
C679 C678 1.392 . S
C679 H691 0.929 . S
C680 C676 1.531 . S
C680 H692 0.960 . S
C680 H693 0.962 . S
C680 H694 0.960 . S
C681 C678 1.511 . S
C681 H695 0.961 . S
C681 H696 0.961 . S
C681 H697 0.961 . S
C682 C683 1.370 . S
C682 C684 1.363 . S
C682 H698 0.931 . S
C683 C682 1.370 . S
C683 C687 1.408 . S
C684 C682 1.363 . S
C684 C685 1.370 . S
C684 C688 1.524 . S
C685 C677 1.503 . S
C685 C684 1.370 . S
C685 C686 1.403 . S
C686 C685 1.403 . S
C686 C687 1.404 . S
C686 C689 1.539 . S
C687 C683 1.408 . S
C687 C686 1.404 . S
C687 H699 0.930 . S
C688 C684 1.524 . S
C688 H700 0.956 . S
C688 H701 0.961 . S
C688 H702 0.961 . S
C689 C686 1.539 . S
C689 H703 0.958 . S
C689 H704 0.961 . S
C689 H705 0.960 . S
H690 C674 0.931 . S
H691 C679 0.929 . S
H692 C680 0.960 . S
H693 C680 0.962 . S
H694 C680 0.960 . S
H695 C681 0.961 . S
H696 C681 0.961 . S
H697 C681 0.961 . S
H698 C682 0.931 . S
H699 C687 0.930 . S
H700 C688 0.956 . S
H701 C688 0.961 . S
H702 C688 0.961 . S
H703 C689 0.958 . S
H704 C689 0.961 . S
H705 C689 0.960 . S
C706 C707 1.391 . S
C706 C708 1.394 . S
C706 H722 0.931 . S
C707 C706 1.391 . S
C707 C711 1.376 . S
C708 C706 1.394 . S
C708 C709 1.369 . S
C708 C712 1.531 . S
C709 C708 1.369 . S
C709 C710 1.410 . S
C709 C717 1.503 . S
C710 C709 1.410 . S
C710 C711 1.392 . S
C710 C713 1.511 . S
C711 C707 1.376 . S
C711 C710 1.392 . S
C711 H723 0.929 . S
C712 C708 1.531 . S
C712 H724 0.960 . S
C712 H725 0.962 . S
C712 H726 0.960 . S
C713 C710 1.511 . S
C713 H727 0.961 . S
C713 H728 0.961 . S
C713 H729 0.961 . S
C714 C715 1.370 . S
C714 C716 1.363 . S
C714 H730 0.931 . S
C715 C714 1.370 . S
C715 C719 1.408 . S
C716 C714 1.363 . S
C716 C717 1.370 . S
C716 C720 1.524 . S
C717 C709 1.503 . S
C717 C716 1.370 . S
C717 C718 1.403 . S
C718 C717 1.403 . S
C718 C719 1.404 . S
C718 C721 1.539 . S
C719 C715 1.408 . S
C719 C718 1.404 . S
C719 H731 0.930 . S
C720 C716 1.524 . S
C720 H732 0.956 . S
C720 H733 0.961 . S
C720 H734 0.961 . S
C721 C718 1.539 . S
C721 H735 0.958 . S
C721 H736 0.961 . S
C721 H737 0.960 . S
H722 C706 0.931 . S
H723 C711 0.929 . S
H724 C712 0.960 . S
H725 C712 0.962 . S
H726 C712 0.960 . S
H727 C713 0.961 . S
H728 C713 0.961 . S
H729 C713 0.961 . S
H730 C714 0.931 . S
H731 C719 0.930 . S
H732 C720 0.956 . S
H733 C720 0.961 . S
H734 C720 0.961 . S
H735 C721 0.958 . S
H736 C721 0.961 . S
H737 C721 0.960 . S
C738 C739 1.391 . S
C738 C740 1.394 . S
C738 H754 0.931 . S
C739 C738 1.391 . S
C739 C743 1.376 . S
C740 C738 1.394 . S
C740 C741 1.369 . S
C740 C744 1.531 . S
C741 C740 1.369 . S
C741 C742 1.410 . S
C741 C749 1.503 . S
C742 C741 1.410 . S
C742 C743 1.392 . S
C742 C745 1.511 . S
C743 C739 1.376 . S
C743 C742 1.392 . S
C743 H755 0.929 . S
C744 C740 1.531 . S
C744 H756 0.960 . S
C744 H757 0.962 . S
C744 H758 0.960 . S
C745 C742 1.511 . S
C745 H759 0.961 . S
C745 H760 0.961 . S
C745 H761 0.961 . S
C746 C747 1.370 . S
C746 C748 1.363 . S
C746 H762 0.931 . S
C747 C746 1.370 . S
C747 C751 1.408 . S
C748 C746 1.363 . S
C748 C749 1.370 . S
C748 C752 1.524 . S
C749 C741 1.503 . S
C749 C748 1.370 . S
C749 C750 1.403 . S
C750 C749 1.403 . S
C750 C751 1.404 . S
C750 C753 1.539 . S
C751 C747 1.408 . S
C751 C750 1.404 . S
C751 H763 0.930 . S
C752 C748 1.524 . S
C752 H764 0.956 . S
C752 H765 0.961 . S
C752 H766 0.961 . S
C753 C750 1.539 . S
C753 H767 0.958 . S
C753 H768 0.961 . S
C753 H769 0.960 . S
H754 C738 0.931 . S
H755 C743 0.929 . S
H756 C744 0.960 . S
H757 C744 0.962 . S
H758 C744 0.960 . S
H759 C745 0.961 . S
H760 C745 0.961 . S
H761 C745 0.961 . S
H762 C746 0.931 . S
H763 C751 0.930 . S
H764 C752 0.956 . S
H765 C752 0.961 . S
H766 C752 0.961 . S
H767 C753 0.958 . S
H768 C753 0.961 . S
H769 C753 0.960 . S
C770 C771 1.391 . S
C770 C772 1.394 . S
C770 H786 0.931 . S
C771 C770 1.391 . S
C771 C775 1.376 . S
C772 C770 1.394 . S
C772 C773 1.369 . S
C772 C776 1.531 . S
C773 C772 1.369 . S
C773 C774 1.410 . S
C773 C781 1.503 . S
C774 C773 1.410 . S
C774 C775 1.392 . S
C774 C777 1.511 . S
C775 C771 1.376 . S
C775 C774 1.392 . S
C775 H787 0.929 . S
C776 C772 1.531 . S
C776 H788 0.960 . S
C776 H789 0.962 . S
C776 H790 0.960 . S
C777 C774 1.511 . S
C777 H791 0.961 . S
C777 H792 0.961 . S
C777 H793 0.961 . S
C778 C779 1.370 . S
C778 C780 1.363 . S
C778 H794 0.931 . S
C779 C778 1.370 . S
C779 C783 1.408 . S
C780 C778 1.363 . S
C780 C781 1.370 . S
C780 C784 1.524 . S
C781 C773 1.503 . S
C781 C780 1.370 . S
C781 C782 1.403 . S
C782 C781 1.403 . S
C782 C783 1.404 . S
C782 C785 1.539 . S
C783 C779 1.408 . S
C783 C782 1.404 . S
C783 H795 0.930 . S
C784 C780 1.524 . S
C784 H796 0.956 . S
C784 H797 0.961 . S
C784 H798 0.961 . S
C785 C782 1.539 . S
C785 H799 0.958 . S
C785 H800 0.961 . S
C785 H801 0.960 . S
H786 C770 0.931 . S
H787 C775 0.929 . S
H788 C776 0.960 . S
H789 C776 0.962 . S
H790 C776 0.960 . S
H791 C777 0.961 . S
H792 C777 0.961 . S
H793 C777 0.961 . S
H794 C778 0.931 . S
H795 C783 0.930 . S
H796 C784 0.956 . S
H797 C784 0.961 . S
H798 C784 0.961 . S
H799 C785 0.958 . S
H800 C785 0.961 . S
H801 C785 0.960 . S
C802 C803 1.391 . S
C802 C804 1.394 . S
C802 H818 0.931 . S
C803 C802 1.391 . S
C803 C807 1.376 . S
C804 C802 1.394 . S
C804 C805 1.369 . S
C804 C808 1.531 . S
C805 C804 1.369 . S
C805 C806 1.410 . S
C805 C813 1.503 . S
C806 C805 1.410 . S
C806 C807 1.392 . S
C806 C809 1.511 . S
C807 C803 1.376 . S
C807 C806 1.392 . S
C807 H819 0.929 . S
C808 C804 1.531 . S
C808 H820 0.960 . S
C808 H821 0.962 . S
C808 H822 0.960 . S
C809 C806 1.511 . S
C809 H823 0.961 . S
C809 H824 0.961 . S
C809 H825 0.961 . S
C810 C811 1.370 . S
C810 C812 1.363 . S
C810 H826 0.931 . S
C811 C810 1.370 . S
C811 C815 1.408 . S
C812 C810 1.363 . S
C812 C813 1.370 . S
C812 C816 1.524 . S
C813 C805 1.503 . S
C813 C812 1.370 . S
C813 C814 1.403 . S
C814 C813 1.403 . S
C814 C815 1.404 . S
C814 C817 1.539 . S
C815 C811 1.408 . S
C815 C814 1.404 . S
C815 H827 0.930 . S
C816 C812 1.524 . S
C816 H828 0.956 . S
C816 H829 0.961 . S
C816 H830 0.961 . S
C817 C814 1.539 . S
C817 H831 0.958 . S
C817 H832 0.961 . S
C817 H833 0.960 . S
H818 C802 0.931 . S
H819 C807 0.929 . S
H820 C808 0.960 . S
H821 C808 0.962 . S
H822 C808 0.960 . S
H823 C809 0.961 . S
H824 C809 0.961 . S
H825 C809 0.961 . S
H826 C810 0.931 . S
H827 C815 0.930 . S
H828 C816 0.956 . S
H829 C816 0.961 . S
H830 C816 0.961 . S
H831 C817 0.958 . S
H832 C817 0.961 . S
H833 C817 0.960 . S
C834 C835 1.391 . S
C834 C836 1.394 . S
C834 H850 0.931 . S
C835 C834 1.391 . S
C835 C839 1.376 . S
C836 C834 1.394 . S
C836 C837 1.369 . S
C836 C840 1.531 . S
C837 C836 1.369 . S
C837 C838 1.410 . S
C837 C845 1.503 . S
C838 C837 1.410 . S
C838 C839 1.392 . S
C838 C841 1.511 . S
C839 C835 1.376 . S
C839 C838 1.392 . S
C839 H851 0.929 . S
C840 C836 1.531 . S
C840 H852 0.960 . S
C840 H853 0.962 . S
C840 H854 0.960 . S
C841 C838 1.511 . S
C841 H855 0.961 . S
C841 H856 0.961 . S
C841 H857 0.961 . S
C842 C843 1.370 . S
C842 C844 1.363 1_554 S
C842 H858 0.931 . S
C843 C842 1.370 . S
C843 C847 1.408 . S
C844 C842 1.363 1_556 S
C844 C845 1.370 . S
C844 C848 1.524 . S
C845 C837 1.503 . S
C845 C844 1.370 . S
C845 C846 1.403 . S
C846 C845 1.403 . S
C846 C847 1.404 1_556 S
C846 C849 1.539 . S
C847 C843 1.408 . S
C847 C846 1.404 1_554 S
C847 H859 0.930 . S
C848 C844 1.524 . S
C848 H860 0.956 . S
C848 H861 0.961 . S
C848 H862 0.961 . S
C849 C846 1.539 . S
C849 H863 0.958 . S
C849 H864 0.961 1_556 S
C849 H865 0.960 . S
H850 C834 0.931 . S
H851 C839 0.929 . S
H852 C840 0.960 . S
H853 C840 0.962 . S
H854 C840 0.960 . S
H855 C841 0.961 . S
H856 C841 0.961 . S
H857 C841 0.961 . S
H858 C842 0.931 . S
H859 C847 0.930 . S
H860 C848 0.956 . S
H861 C848 0.961 . S
H862 C848 0.961 . S
H863 C849 0.958 . S
H864 C849 0.961 1_554 S
H865 C849 0.960 . S
C866 C867 1.391 . S
C866 C868 1.394 . S
C866 H882 0.931 . S
C867 C866 1.391 . S
C867 C871 1.376 . S
C868 C866 1.394 . S
C868 C869 1.369 . S
C868 C872 1.531 . S
C869 C868 1.369 . S
C869 C870 1.410 . S
C869 C877 1.503 . S
C870 C869 1.410 . S
C870 C871 1.392 . S
C870 C873 1.511 . S
C871 C867 1.376 . S
C871 C870 1.392 . S
C871 H883 0.929 . S
C872 C868 1.531 . S
C872 H884 0.960 . S
C872 H885 0.962 . S
C872 H886 0.960 . S
C873 C870 1.511 . S
C873 H887 0.961 . S
C873 H888 0.961 . S
C873 H889 0.961 . S
C874 C875 1.370 . S
C874 C876 1.363 . S
C874 H890 0.931 . S
C875 C874 1.370 . S
C875 C879 1.408 . S
C876 C874 1.363 . S
C876 C877 1.370 . S
C876 C880 1.524 . S
C877 C869 1.503 . S
C877 C876 1.370 . S
C877 C878 1.403 . S
C878 C877 1.403 . S
C878 C879 1.404 . S
C878 C881 1.539 . S
C879 C875 1.408 . S
C879 C878 1.404 . S
C879 H891 0.930 . S
C880 C876 1.524 . S
C880 H892 0.956 . S
C880 H893 0.961 . S
C880 H894 0.961 . S
C881 C878 1.539 . S
C881 H895 0.958 . S
C881 H896 0.961 . S
C881 H897 0.960 . S
H882 C866 0.931 . S
H883 C871 0.929 . S
H884 C872 0.960 . S
H885 C872 0.962 . S
H886 C872 0.960 . S
H887 C873 0.961 . S
H888 C873 0.961 . S
H889 C873 0.961 . S
H890 C874 0.931 . S
H891 C879 0.930 . S
H892 C880 0.956 . S
H893 C880 0.961 . S
H894 C880 0.961 . S
H895 C881 0.958 . S
H896 C881 0.961 . S
H897 C881 0.960 . S
C898 C899 1.391 . S
C898 C900 1.394 . S
C898 H914 0.931 . S
C899 C898 1.391 . S
C899 C903 1.376 . S
C900 C898 1.394 . S
C900 C901 1.369 . S
C900 C904 1.531 . S
C901 C900 1.369 . S
C901 C902 1.410 . S
C901 C909 1.503 . S
C902 C901 1.410 . S
C902 C903 1.392 . S
C902 C905 1.511 . S
C903 C899 1.376 . S
C903 C902 1.392 . S
C903 H915 0.929 . S
C904 C900 1.531 . S
C904 H916 0.960 . S
C904 H917 0.962 . S
C904 H918 0.960 . S
C905 C902 1.511 . S
C905 H919 0.961 . S
C905 H920 0.961 . S
C905 H921 0.961 . S
C906 C907 1.370 . S
C906 C908 1.363 . S
C906 H922 0.931 . S
C907 C906 1.370 . S
C907 C911 1.408 . S
C908 C906 1.363 . S
C908 C909 1.370 . S
C908 C912 1.524 . S
C909 C901 1.503 . S
C909 C908 1.370 . S
C909 C910 1.403 . S
C910 C909 1.403 . S
C910 C911 1.404 . S
C910 C913 1.539 . S
C911 C907 1.408 . S
C911 C910 1.404 . S
C911 H923 0.930 . S
C912 C908 1.524 . S
C912 H924 0.956 . S
C912 H925 0.961 . S
C912 H926 0.961 . S
C913 C910 1.539 . S
C913 H927 0.958 . S
C913 H928 0.961 . S
C913 H929 0.960 . S
H914 C898 0.931 . S
H915 C903 0.929 . S
H916 C904 0.960 . S
H917 C904 0.962 . S
H918 C904 0.960 . S
H919 C905 0.961 . S
H920 C905 0.961 . S
H921 C905 0.961 . S
H922 C906 0.931 . S
H923 C911 0.930 . S
H924 C912 0.956 . S
H925 C912 0.961 . S
H926 C912 0.961 . S
H927 C913 0.958 . S
H928 C913 0.961 . S
H929 C913 0.960 . S
C930 C931 1.391 . S
C930 C932 1.394 . S
C930 H946 0.931 . S
C931 C930 1.391 . S
C931 C935 1.376 . S
C932 C930 1.394 . S
C932 C933 1.369 . S
C932 C936 1.531 . S
C933 C932 1.369 . S
C933 C934 1.410 . S
C933 C941 1.503 . S
C934 C933 1.410 . S
C934 C935 1.392 . S
C934 C937 1.511 . S
C935 C931 1.376 . S
C935 C934 1.392 . S
C935 H947 0.929 . S
C936 C932 1.531 . S
C936 H948 0.960 . S
C936 H949 0.962 . S
C936 H950 0.960 . S
C937 C934 1.511 . S
C937 H951 0.961 . S
C937 H952 0.961 . S
C937 H953 0.961 . S
C938 C939 1.370 . S
C938 C940 1.363 . S
C938 H954 0.931 . S
C939 C938 1.370 . S
C939 C943 1.408 . S
C940 C938 1.363 . S
C940 C941 1.370 . S
C940 C944 1.524 . S
C941 C933 1.503 . S
C941 C940 1.370 . S
C941 C942 1.403 . S
C942 C941 1.403 . S
C942 C943 1.404 . S
C942 C945 1.539 . S
C943 C939 1.408 . S
C943 C942 1.404 . S
C943 H955 0.930 . S
C944 C940 1.524 . S
C944 H956 0.956 . S
C944 H957 0.961 . S
C944 H958 0.961 . S
C945 C942 1.539 . S
C945 H959 0.958 . S
C945 H960 0.961 . S
C945 H961 0.960 . S
H946 C930 0.931 . S
H947 C935 0.929 . S
H948 C936 0.960 . S
H949 C936 0.962 . S
H950 C936 0.960 . S
H951 C937 0.961 . S
H952 C937 0.961 . S
H953 C937 0.961 . S
H954 C938 0.931 . S
H955 C943 0.930 . S
H956 C944 0.956 . S
H957 C944 0.961 . S
H958 C944 0.961 . S
H959 C945 0.958 . S
H960 C945 0.961 . S
H961 C945 0.960 . S
C962 C963 1.391 . S
C962 C964 1.394 . S
C962 H978 0.931 . S
C963 C962 1.391 . S
C963 C967 1.376 . S
C964 C962 1.394 . S
C964 C965 1.369 . S
C964 C968 1.531 . S
C965 C964 1.369 . S
C965 C966 1.410 . S
C965 C973 1.503 . S
C966 C965 1.410 . S
C966 C967 1.392 . S
C966 C969 1.511 . S
C967 C963 1.376 . S
C967 C966 1.392 . S
C967 H979 0.929 . S
C968 C964 1.531 . S
C968 H980 0.960 . S
C968 H981 0.962 . S
C968 H982 0.960 . S
C969 C966 1.511 . S
C969 H983 0.961 . S
C969 H984 0.961 . S
C969 H985 0.961 . S
C970 C971 1.370 . S
C970 C972 1.363 . S
C970 H986 0.931 . S
C971 C970 1.370 . S
C971 C975 1.408 . S
C972 C970 1.363 . S
C972 C973 1.370 . S
C972 C976 1.524 . S
C973 C965 1.503 . S
C973 C972 1.370 . S
C973 C974 1.403 . S
C974 C973 1.403 . S
C974 C975 1.404 . S
C974 C977 1.539 . S
C975 C971 1.408 . S
C975 C974 1.404 . S
C975 H987 0.930 . S
C976 C972 1.524 . S
C976 H988 0.956 . S
C976 H989 0.961 . S
C976 H990 0.961 . S
C977 C974 1.539 . S
C977 H991 0.958 . S
C977 H992 0.961 . S
C977 H993 0.960 . S
H978 C962 0.931 . S
H979 C967 0.929 . S
H980 C968 0.960 . S
H981 C968 0.962 . S
H982 C968 0.960 . S
H983 C969 0.961 . S
H984 C969 0.961 . S
H985 C969 0.961 . S
H986 C970 0.931 . S
H987 C975 0.930 . S
H988 C976 0.956 . S
H989 C976 0.961 . S
H990 C976 0.961 . S
H991 C977 0.958 . S
H992 C977 0.961 . S
H993 C977 0.960 . S
C994 C995 1.391 . S
C994 C996 1.394 . S
C994 H1010 0.931 . S
C995 C994 1.391 . S
C995 C999 1.376 . S
C996 C994 1.394 . S
C996 C997 1.369 . S
C996 C1000 1.531 . S
C997 C996 1.369 . S
C997 C998 1.410 . S
C997 C1005 1.503 . S
C998 C997 1.410 . S
C998 C999 1.392 . S
C998 C1001 1.511 . S
C999 C995 1.376 . S
C999 C998 1.392 . S
C999 H1011 0.929 . S
C1000 C996 1.531 . S
C1000 H1012 0.960 . S
C1000 H1013 0.962 . S
C1000 H1014 0.960 . S
C1001 C998 1.511 . S
C1001 H1015 0.961 . S
C1001 H1016 0.961 . S
C1001 H1017 0.961 . S
C1002 C1003 1.370 . S
C1002 C1004 1.363 . S
C1002 H1018 0.931 . S
C1003 C1002 1.370 . S
C1003 C1007 1.408 . S
C1004 C1002 1.363 . S
C1004 C1005 1.370 . S
C1004 C1008 1.524 . S
C1005 C997 1.503 . S
C1005 C1004 1.370 . S
C1005 C1006 1.403 . S
C1006 C1005 1.403 . S
C1006 C1007 1.404 . S
C1006 C1009 1.539 . S
C1007 C1003 1.408 . S
C1007 C1006 1.404 . S
C1007 H1019 0.930 . S
C1008 C1004 1.524 . S
C1008 H1020 0.956 . S
C1008 H1021 0.961 . S
C1008 H1022 0.961 . S
C1009 C1006 1.539 . S
C1009 H1023 0.958 . S
C1009 H1024 0.961 . S
C1009 H1025 0.960 . S
H1010 C994 0.931 . S
H1011 C999 0.929 . S
H1012 C1000 0.960 . S
H1013 C1000 0.962 . S
H1014 C1000 0.960 . S
H1015 C1001 0.961 . S
H1016 C1001 0.961 . S
H1017 C1001 0.961 . S
H1018 C1002 0.931 . S
H1019 C1007 0.930 . S
H1020 C1008 0.956 . S
H1021 C1008 0.961 . S
H1022 C1008 0.961 . S
H1023 C1009 0.958 . S
H1024 C1009 0.961 . S
H1025 C1009 0.960 . S
C1026 C1027 1.391 . S
C1026 C1028 1.394 . S
C1026 H1042 0.931 . S
C1027 C1026 1.391 . S
C1027 C1031 1.376 . S
C1028 C1026 1.394 . S
C1028 C1029 1.369 . S
C1028 C1032 1.531 . S
C1029 C1028 1.369 . S
C1029 C1030 1.410 . S
C1029 C1037 1.503 . S
C1030 C1029 1.410 . S
C1030 C1031 1.392 . S
C1030 C1033 1.511 . S
C1031 C1027 1.376 . S
C1031 C1030 1.392 . S
C1031 H1043 0.929 . S
C1032 C1028 1.531 . S
C1032 H1044 0.960 . S
C1032 H1045 0.962 . S
C1032 H1046 0.960 . S
C1033 C1030 1.511 . S
C1033 H1047 0.961 . S
C1033 H1048 0.961 . S
C1033 H1049 0.961 . S
C1034 C1035 1.370 . S
C1034 C1036 1.363 . S
C1034 H1050 0.931 . S
C1035 C1034 1.370 . S
C1035 C1039 1.408 . S
C1036 C1034 1.363 . S
C1036 C1037 1.370 . S
C1036 C1040 1.524 . S
C1037 C1029 1.503 . S
C1037 C1036 1.370 . S
C1037 C1038 1.403 . S
C1038 C1037 1.403 . S
C1038 C1039 1.404 . S
C1038 C1041 1.539 . S
C1039 C1035 1.408 . S
C1039 C1038 1.404 . S
C1039 H1051 0.930 . S
C1040 C1036 1.524 . S
C1040 H1052 0.956 . S
C1040 H1053 0.961 . S
C1040 H1054 0.961 . S
C1041 C1038 1.539 . S
C1041 H1055 0.958 . S
C1041 H1056 0.961 . S
C1041 H1057 0.960 . S
H1042 C1026 0.931 . S
H1043 C1031 0.929 . S
H1044 C1032 0.960 . S
H1045 C1032 0.962 . S
H1046 C1032 0.960 . S
H1047 C1033 0.961 . S
H1048 C1033 0.961 . S
H1049 C1033 0.961 . S
H1050 C1034 0.931 . S
H1051 C1039 0.930 . S
H1052 C1040 0.956 . S
H1053 C1040 0.961 . S
H1054 C1040 0.961 . S
H1055 C1041 0.958 . S
H1056 C1041 0.961 . S
H1057 C1041 0.960 . S
C1058 C1059 1.391 . S
C1058 C1060 1.394 . S
C1058 H1074 0.931 . S
C1059 C1058 1.391 . S
C1059 C1063 1.376 . S
C1060 C1058 1.394 . S
C1060 C1061 1.369 . S
C1060 C1064 1.531 . S
C1061 C1060 1.369 . S
C1061 C1062 1.410 . S
C1061 C1069 1.503 . S
C1062 C1061 1.410 . S
C1062 C1063 1.392 . S
C1062 C1065 1.511 . S
C1063 C1059 1.376 . S
C1063 C1062 1.392 . S
C1063 H1075 0.929 . S
C1064 C1060 1.531 . S
C1064 H1076 0.960 . S
C1064 H1077 0.982 . S
C1064 H1078 0.960 . S
C1065 C1062 1.511 . S
C1065 H1079 0.961 . S
C1065 H1080 0.961 . S
C1065 H1081 0.961 . S
C1066 C1067 1.370 . S
C1066 C1068 1.363 . S
C1066 H1082 0.931 . S
C1067 C1066 1.370 . S
C1067 C1071 1.408 . S
C1068 C1066 1.363 . S
C1068 C1069 1.370 1_556 S
C1068 C1072 1.524 . S
C1069 C1061 1.503 . S
C1069 C1068 1.370 1_554 S
C1069 C1070 1.403 . S
C1070 C1069 1.403 . S
C1070 C1071 1.404 1_554 S
C1070 C1073 1.539 . S
C1071 C1067 1.408 . S
C1071 C1070 1.404 1_556 S
C1071 H1083 0.930 . S
C1072 C1068 1.524 . S
C1072 H1084 0.956 . S
C1072 H1085 0.961 1_556 S
C1072 H1086 0.961 . S
C1073 C1070 1.539 . S
C1073 H1087 0.958 . S
C1073 H1088 0.961 . S
C1073 H1089 0.960 . S
H1074 C1058 0.931 . S
H1075 C1063 0.929 . S
H1076 C1064 0.960 . S
H1077 C1064 0.982 . S
H1078 C1064 0.960 . S
H1079 C1065 0.961 . S
H1080 C1065 0.961 . S
H1081 C1065 0.961 . S
H1082 C1066 0.931 . S
H1083 C1071 0.930 . S
H1084 C1072 0.956 . S
H1085 C1072 0.961 1_554 S
H1086 C1072 0.961 . S
H1087 C1073 0.958 . S
H1088 C1073 0.961 . S
H1089 C1073 0.960 . S
C1090 C1091 1.391 . S
C1090 C1092 1.394 . S
C1090 H1106 0.931 . S
C1091 C1090 1.391 . S
C1091 C1095 1.376 . S
C1092 C1090 1.394 . S
C1092 C1093 1.369 . S
C1092 C1096 1.531 . S
C1093 C1092 1.369 . S
C1093 C1094 1.410 . S
C1093 C1101 1.503 . S
C1094 C1093 1.410 . S
C1094 C1095 1.392 . S
C1094 C1097 1.511 . S
C1095 C1091 1.376 . S
C1095 C1094 1.392 . S
C1095 H1107 0.929 . S
C1096 C1092 1.531 . S
C1096 H1108 0.960 . S
C1096 H1109 0.962 . S
C1096 H1110 0.960 . S
C1097 C1094 1.511 . S
C1097 H1111 0.961 . S
C1097 H1112 0.961 . S
C1097 H1113 0.961 . S
C1098 C1099 1.370 . S
C1098 C1100 1.363 . S
C1098 H1114 0.931 . S
C1099 C1098 1.370 . S
C1099 C1103 1.408 . S
C1100 C1098 1.363 . S
C1100 C1101 1.370 . S
C1100 C1104 1.524 . S
C1101 C1093 1.503 . S
C1101 C1100 1.370 . S
C1101 C1102 1.403 . S
C1102 C1101 1.403 . S
C1102 C1103 1.404 . S
C1102 C1105 1.539 . S
C1103 C1099 1.408 . S
C1103 C1102 1.404 . S
C1103 H1115 0.930 . S
C1104 C1100 1.524 . S
C1104 H1116 0.956 . S
C1104 H1117 0.961 . S
C1104 H1118 0.961 . S
C1105 C1102 1.539 . S
C1105 H1119 0.958 . S
C1105 H1120 0.961 . S
C1105 H1121 0.960 . S
H1106 C1090 0.931 . S
H1107 C1095 0.929 . S
H1108 C1096 0.960 . S
H1109 C1096 0.962 . S
H1110 C1096 0.960 . S
H1111 C1097 0.961 . S
H1112 C1097 0.961 . S
H1113 C1097 0.961 . S
H1114 C1098 0.931 . S
H1115 C1103 0.930 . S
H1116 C1104 0.956 . S
H1117 C1104 0.961 . S
H1118 C1104 0.961 . S
H1119 C1105 0.958 . S
H1120 C1105 0.961 . S
H1121 C1105 0.960 . S
C363 C346 1.565 . S
C355 C15 1.557 . S
C387 C61 1.553 . S
C395 C281 1.567 . S
C419 C114 1.542 . S
C427 C299 1.565 . S
C451 C139 1.547 . S
C459 C312 1.556 . S
C491 C320 1.568 . S
C483 C185 1.569 . S
C515 C245 1.562 . S
C523 C332 1.564 . S
C547 C47 1.561 . S
C555 C294 1.567 . S
C579 C100 1.554 . S
C587 C307 1.566 . S
C611 C153 1.538 . S
C619 C325 1.564 . S
C651 C331 1.569 . S
C643 C199 1.552 . S
C683 C351 1.557 . S
C675 C231 1.554 . S
C715 C286 1.565 . S
C707 C1 1.553 . S
C739 C22 1.552 . S
C747 C292 1.585 . S
C771 C68 1.561 . S
C779 C305 1.591 . S
C811 C319 1.584 . S
C803 C107 1.576 . S
C835 C146 1.590 . S
C843 C333 1.588 . S
C875 C345 1.575 . S
C867 C192 1.573 . S
C907 C280 1.580 . S
C899 C252 1.558 . S
C939 C344 1.587 . S
C931 C54 1.578 . S
C963 C93 1.567 . S
C971 C279 1.586 . S
C1003 C293 1.580 . S
C995 C160 1.560 . S
C1027 C206 1.570 . S
C1035 C306 1.575 . S
C1059 C238 1.572 . S
C1067 C318 1.590 . S
C1091 C8 1.585 . S
C1099 C338 1.582 . S
