# Generated by pormake.
# Topology pyr, (3,6)-cn, num edge types: 1
# Building blocks:
#     Node 0, Type 0, BuildingBlock: KAKCAD_clean_linker_0, # of connection points: 3
#     Node 1, Type 0, BuildingBlock: KAKCAD_clean_linker_0, # of connection points: 3
#     Node 2, Type 0, BuildingBlock: KAKCAD_clean_linker_0, # of connection points: 3
#     Node 3, Type 0, BuildingBlock: KAKCAD_clean_linker_0, # of connection points: 3
#     Node 4, Type 0, BuildingBlock: KAKCAD_clean_linker_0, # of connection points: 3
#     Node 5, Type 0, BuildingBlock: KAKCAD_clean_linker_0, # of connection points: 3
#     Node 6, Type 0, BuildingBlock: KAKCAD_clean_linker_0, # of connection points: 3
#     Node 7, Type 0, BuildingBlock: KAKCAD_clean_linker_0, # of connection points: 3
#     Node 8, Type 1, BuildingBlock: GEDQOX_clean_sbu_0, # of connection points: 6
#     Node 9, Type 1, BuildingBlock: GEDQOX_clean_sbu_0, # of connection points: 6
#     Node 10, Type 1, BuildingBlock: GEDQOX_clean_sbu_0, # of connection points: 6
#     Node 11, Type 1, BuildingBlock: GEDQOX_clean_sbu_0, # of connection points: 6
#     Edge 12, Type (0, 1), BuildingBlock: EZIPEK_clean_linker_0, # of connection points: 2
#     Edge 13, Type (0, 1), BuildingBlock: EZIPEK_clean_linker_0, # of connection points: 2
#     Edge 14, Type (0, 1), BuildingBlock: EZIPEK_clean_linker_0, # of connection points: 2
#     Edge 15, Type (0, 1), BuildingBlock: EZIPEK_clean_linker_0, # of connection points: 2
#     Edge 16, Type (0, 1), BuildingBlock: EZIPEK_clean_linker_0, # of connection points: 2
#     Edge 17, Type (0, 1), BuildingBlock: EZIPEK_clean_linker_0, # of connection points: 2
#     Edge 18, Type (0, 1), BuildingBlock: EZIPEK_clean_linker_0, # of connection points: 2
#     Edge 19, Type (0, 1), BuildingBlock: EZIPEK_clean_linker_0, # of connection points: 2
#     Edge 20, Type (0, 1), BuildingBlock: EZIPEK_clean_linker_0, # of connection points: 2
#     Edge 21, Type (0, 1), BuildingBlock: EZIPEK_clean_linker_0, # of connection points: 2
#     Edge 22, Type (0, 1), BuildingBlock: EZIPEK_clean_linker_0, # of connection points: 2
#     Edge 23, Type (0, 1), BuildingBlock: EZIPEK_clean_linker_0, # of connection points: 2
#     Edge 24, Type (0, 1), BuildingBlock: EZIPEK_clean_linker_0, # of connection points: 2
#     Edge 25, Type (0, 1), BuildingBlock: EZIPEK_clean_linker_0, # of connection points: 2
#     Edge 26, Type (0, 1), BuildingBlock: EZIPEK_clean_linker_0, # of connection points: 2
#     Edge 27, Type (0, 1), BuildingBlock: EZIPEK_clean_linker_0, # of connection points: 2
#     Edge 28, Type (0, 1), BuildingBlock: EZIPEK_clean_linker_0, # of connection points: 2
#     Edge 29, Type (0, 1), BuildingBlock: EZIPEK_clean_linker_0, # of connection points: 2
#     Edge 30, Type (0, 1), BuildingBlock: EZIPEK_clean_linker_0, # of connection points: 2
#     Edge 31, Type (0, 1), BuildingBlock: EZIPEK_clean_linker_0, # of connection points: 2
#     Edge 32, Type (0, 1), BuildingBlock: EZIPEK_clean_linker_0, # of connection points: 2
#     Edge 33, Type (0, 1), BuildingBlock: EZIPEK_clean_linker_0, # of connection points: 2
#     Edge 34, Type (0, 1), BuildingBlock: EZIPEK_clean_linker_0, # of connection points: 2
#     Edge 35, Type (0, 1), BuildingBlock: EZIPEK_clean_linker_0, # of connection points: 2
# Relax obj value: 0.137
# Max RMSD: 0.164
# Mean RMSD: 0.067
data_MOF--net-pyr--node1-GEDQOX_clean_sbu_0--node2-KAKCAD_clean_linker_0--edge1-EZIPEK_clean_linker_0
_symmetry_space_group_name_H-M    P1
_symmetry_Int_Tables_number       1
_symmetry_cell_setting            triclinic
loop_
_symmetry_equiv_pos_as_xyz
'x, y, z'
_cell_length_a     38.80243
_cell_length_b     38.307484
_cell_length_c     33.894119
_cell_angle_alpha  88.964696
_cell_angle_beta   91.35821
_cell_angle_gamma 86.195762
loop_
_atom_site_label
_atom_site_type_symbol
_atom_site_fract_x
_atom_site_fract_y
_atom_site_fract_z
_atom_type_partial_charge
C0 C 0.13368 0.15729 0.305 0.0
C1 C 0.13502 0.12061 0.31152 0.0
C2 C 0.15085 0.17292 0.27309 0.0
C3 C 0.17064 0.15289 0.24568 0.0
C4 C 0.17222 0.11611 0.25252 0.0
C5 C 0.15482 0.10045 0.28438 0.0
C6 C 0.18883 0.17034 0.21051 0.0
C7 C 0.17427 0.20222 0.19261 0.0
C8 C 0.19026 0.21997 0.16137 0.0
C9 C 0.22215 0.20443 0.14724 0.0
C10 C 0.23797 0.17184 0.16279 0.0
C11 C 0.22052 0.15564 0.19464 0.0
C12 C 0.27241 0.15485 0.14588 0.0
C13 C 0.28231 0.16038 0.10618 0.0
C14 C 0.29618 0.13252 0.1689 0.0
C15 C 0.32751 0.11699 0.1534 0.0
C16 C 0.33723 0.12254 0.11378 0.0
C17 C 0.17311 0.25474 0.14387 0.0
C18 C 0.13941 0.25677 0.12657 0.0
C19 C 0.18928 0.28678 0.14575 0.0
C20 C 0.17237 0.31914 0.13185 0.0
C21 C 0.13869 0.32122 0.11413 0.0
C22 C 0.12296 0.28889 0.11151 0.0
C23 C 0.31357 0.14469 0.09066 0.0
H24 H 0.11919 0.17416 0.32486 0.0
H25 H 0.14887 0.20117 0.27041 0.0
H26 H 0.1865 0.09902 0.23274 0.0
H27 H 0.15682 0.07222 0.28775 0.0
H28 H 0.14999 0.21364 0.20305 0.0
H29 H 0.23171 0.13127 0.20732 0.0
H30 H 0.2346 0.21798 0.12381 0.0
H31 H 0.26554 0.17657 0.08637 0.0
H32 H 0.29101 0.12724 0.19957 0.0
H33 H 0.34442 0.10047 0.17278 0.0
H34 H 0.12565 0.23317 0.12435 0.0
H35 H 0.21492 0.28703 0.15899 0.0
H36 H 0.31924 0.14992 0.06008 0.0
H37 H 0.09742 0.28845 0.09804 0.0
H38 H 0.18583 0.34282 0.13506 0.0
C39 C 0.40399 0.87054 0.87263 0.0
C40 C 0.4396 0.87482 0.87455 0.0
C41 C 0.39066 0.84543 0.8482 0.0
C42 C 0.41247 0.82462 0.824 0.0
C43 C 0.44833 0.82836 0.82686 0.0
C44 C 0.46174 0.85291 0.85217 0.0
C45 C 0.39749 0.80083 0.79446 0.0
C46 C 0.36526 0.81051 0.77589 0.0
C47 C 0.35089 0.78934 0.74738 0.0
C48 C 0.36887 0.75804 0.7373 0.0
C49 C 0.40122 0.7479 0.75467 0.0
C50 C 0.41548 0.76936 0.78328 0.0
C51 C 0.42039 0.71603 0.7401 0.0
C52 C 0.40322 0.68517 0.73468 0.0
C53 C 0.45404 0.71774 0.72604 0.0
C54 C 0.46923 0.69006 0.70463 0.0
C55 C 0.45105 0.66026 0.69725 0.0
C56 C 0.31794 0.80068 0.72644 0.0
C57 C 0.28925 0.81415 0.7473 0.0
C58 C 0.31514 0.79827 0.68514 0.0
C59 C 0.28442 0.80928 0.66509 0.0
C60 C 0.25596 0.82275 0.68595 0.0
C61 C 0.25839 0.82501 0.72716 0.0
C62 C 0.41843 0.65753 0.71346 0.0
H63 H 0.38642 0.88698 0.88977 0.0
H64 H 0.36306 0.84275 0.84796 0.0
H65 H 0.46604 0.81327 0.80859 0.0
H66 H 0.48934 0.85572 0.85325 0.0
H67 H 0.35181 0.83538 0.78224 0.0
H68 H 0.44032 0.76126 0.79691 0.0
H69 H 0.35797 0.74185 0.7149 0.0
H70 H 0.37733 0.68309 0.7454 0.0
H71 H 0.46771 0.7413 0.72944 0.0
H72 H 0.49448 0.69252 0.69232 0.0
H73 H 0.29066 0.81609 0.77913 0.0
H74 H 0.33694 0.78848 0.66823 0.0
H75 H 0.40413 0.63464 0.70818 0.0
H76 H 0.23659 0.83555 0.74357 0.0
H77 H 0.28294 0.80768 0.63321 0.0
C78 C 0.8431 0.46875 0.89905 0.0
C79 C 0.86027 0.44734 0.92835 0.0
C80 C 0.81165 0.45966 0.88251 0.0
C81 C 0.79702 0.42855 0.89433 0.0
C82 C 0.81498 0.4067 0.92293 0.0
C83 C 0.84596 0.41625 0.94013 0.0
C84 C 0.76275 0.41947 0.87787 0.0
C85 C 0.75256 0.42856 0.83862 0.0
C86 C 0.71973 0.42133 0.82351 0.0
C87 C 0.69742 0.40384 0.84801 0.0
C88 C 0.7074 0.39356 0.88677 0.0
C89 C 0.73979 0.40202 0.90164 0.0
C90 C 0.68436 0.37298 0.91125 0.0
C91 C 0.64855 0.38068 0.9104 0.0
C92 C 0.69785 0.34373 0.93331 0.0
C93 C 0.67606 0.32261 0.95384 0.0
C94 C 0.63986 0.33048 0.95436 0.0
C95 C 0.70826 0.4324 0.78252 0.0
C96 C 0.71792 0.46415 0.76577 0.0
C97 C 0.68614 0.41205 0.76041 0.0
C98 C 0.67254 0.424 0.72376 0.0
C99 C 0.68133 0.45614 0.70783 0.0
C100 C 0.70495 0.47565 0.72855 0.0
C101 C 0.6267 0.35952 0.9308 0.0
H102 H 0.85365 0.49297 0.88974 0.0
H103 H 0.79848 0.47755 0.86118 0.0
H104 H 0.80515 0.38215 0.93222 0.0
H105 H 0.85881 0.39938 0.96272 0.0
H106 H 0.77045 0.44074 0.81953 0.0
H107 H 0.7467 0.39551 0.93215 0.0
H108 H 0.67212 0.39797 0.83687 0.0
H109 H 0.63716 0.40278 0.89316 0.0
H110 H 0.72525 0.33614 0.93327 0.0
H111 H 0.68814 0.29911 0.96753 0.0
H112 H 0.73463 0.48074 0.78186 0.0
H113 H 0.67896 0.38695 0.7715 0.0
H114 H 0.59952 0.36586 0.92593 0.0
H115 H 0.71235 0.50037 0.7165 0.0
H116 H 0.65478 0.40827 0.70793 0.0
C117 C 0.82035 0.78353 0.14721 0.0
C118 C 0.851 0.76368 0.15756 0.0
C119 C 0.81043 0.8131 0.16889 0.0
C120 C 0.8313 0.82319 0.20069 0.0
C121 C 0.86393 0.80566 0.20745 0.0
C122 C 0.87361 0.77598 0.18614 0.0
C123 C 0.81627 0.84505 0.23236 0.0
C124 C 0.78559 0.83507 0.24918 0.0
C125 C 0.77559 0.8471 0.2863 0.0
C126 C 0.79563 0.87107 0.30562 0.0
C127 C 0.82587 0.88195 0.28874 0.0
C128 C 0.83597 0.86922 0.25195 0.0
C129 C 0.84983 0.90139 0.31288 0.0
C130 C 0.85589 0.93623 0.30357 0.0
C131 C 0.86621 0.8849 0.34624 0.0
C132 C 0.88791 0.90319 0.37052 0.0
C133 C 0.89304 0.93843 0.36216 0.0
C134 C 0.74879 0.82898 0.30769 0.0
C135 C 0.71851 0.8197 0.28793 0.0
C136 C 0.75593 0.81623 0.3464 0.0
C137 C 0.73446 0.79303 0.36401 0.0
C138 C 0.70548 0.78228 0.34332 0.0
C139 C 0.69695 0.79646 0.30567 0.0
C140 C 0.87718 0.9548 0.32833 0.0
H141 H 0.80277 0.77437 0.12498 0.0
H142 H 0.7852 0.82627 0.16306 0.0
H143 H 0.88045 0.81257 0.23191 0.0
H144 H 0.89748 0.76098 0.1942 0.0
H145 H 0.77172 0.81458 0.23557 0.0
H146 H 0.8605 0.87588 0.2402 0.0
H147 H 0.78882 0.87977 0.33487 0.0
H148 H 0.84345 0.94925 0.27786 0.0
H149 H 0.86194 0.85792 0.35365 0.0
H150 H 0.89996 0.89019 0.39647 0.0
H151 H 0.71234 0.82921 0.25814 0.0
H152 H 0.77931 0.8223 0.36218 0.0
H153 H 0.88083 0.98203 0.32155 0.0
H154 H 0.6746 0.78831 0.28941 0.0
H155 H 0.74135 0.78214 0.39308 0.0
C156 C 0.88768 0.93323 0.73252 0.0
C157 C 0.92406 0.93222 0.72921 0.0
C158 C 0.87157 0.91806 0.7656 0.0
C159 C 0.89092 0.90063 0.79709 0.0
C160 C 0.9274 0.89979 0.79357 0.0
C161 C 0.94346 0.91524 0.76071 0.0
C162 C 0.87354 0.88309 0.83271 0.0
C163 C 0.88876 0.85163 0.85083 0.0
C164 C 0.87385 0.83398 0.8832 0.0
C165 C 0.84232 0.85013 0.89813 0.0
C166 C 0.82558 0.88207 0.88174 0.0
C167 C 0.84191 0.89746 0.84864 0.0
C168 C 0.79128 0.89937 0.89883 0.0
C169 C 0.76771 0.88022 0.92078 0.0
C170 C 0.78115 0.93564 0.89349 0.0
C171 C 0.74976 0.95141 0.90849 0.0
C172 C 0.72633 0.93217 0.93016 0.0
C173 C 0.89153 0.7989 0.90089 0.0
C174 C 0.91415 0.77654 0.8786 0.0
C175 C 0.88665 0.78692 0.94025 0.0
C176 C 0.90337 0.75507 0.95609 0.0
C177 C 0.92625 0.73326 0.93376 0.0
C178 C 0.93106 0.74501 0.89456 0.0
C179 C 0.73641 0.8961 0.93599 0.0
H180 H 0.87149 0.94581 0.70925 0.0
H181 H 0.84363 0.91947 0.76597 0.0
H182 H 0.94394 0.88743 0.81665 0.0
H183 H 0.9714 0.91371 0.75987 0.0
H184 H 0.91273 0.84072 0.83924 0.0
H185 H 0.83 0.92109 0.83496 0.0
H186 H 0.83068 0.83766 0.92283 0.0
H187 H 0.77295 0.85243 0.92593 0.0
H188 H 0.7977 0.95252 0.87791 0.0
H189 H 0.74376 0.9791 0.90298 0.0
H190 H 0.91876 0.78291 0.84807 0.0
H191 H 0.87017 0.80238 0.95949 0.0
H192 H 0.71971 0.8798 0.95226 0.0
H193 H 0.94803 0.72948 0.87581 0.0
H194 H 0.89848 0.74754 0.98629 0.0
C195 C 0.65885 0.2014 0.14701 0.0
C196 C 0.62994 0.1855 0.16127 0.0
C197 C 0.67495 0.22612 0.16961 0.0
C198 C 0.66214 0.23577 0.20662 0.0
C199 C 0.63238 0.22081 0.22014 0.0
C200 C 0.61653 0.19572 0.19775 0.0
C201 C 0.68156 0.25899 0.23238 0.0
C202 C 0.71708 0.25114 0.23952 0.0
C203 C 0.73583 0.27125 0.26541 0.0
C204 C 0.7191 0.30006 0.28339 0.0
C205 C 0.68328 0.30755 0.27832 0.0
C206 C 0.66466 0.28701 0.25227 0.0
C207 C 0.66551 0.3347 0.30317 0.0
C208 C 0.67667 0.33844 0.34265 0.0
C209 C 0.63746 0.35673 0.2884 0.0
C210 C 0.62114 0.38186 0.31259 0.0
C211 C 0.63282 0.38552 0.35176 0.0
C212 C 0.77116 0.25919 0.2792 0.0
C213 C 0.777 0.2255 0.29602 0.0
C214 C 0.79759 0.28255 0.28124 0.0
C215 C 0.82871 0.27289 0.30151 0.0
C216 C 0.83331 0.24014 0.3209 0.0
C217 C 0.80773 0.21614 0.3169 0.0
C218 C 0.66078 0.36372 0.36642 0.0
H219 H 0.6694 0.19403 0.11881 0.0
H220 H 0.69777 0.23737 0.15843 0.0
H221 H 0.62218 0.22747 0.24872 0.0
H222 H 0.5942 0.18375 0.2092 0.0
H223 H 0.72991 0.22842 0.2262 0.0
H224 H 0.63698 0.29206 0.24831 0.0
H225 H 0.73385 0.31543 0.30339 0.0
H226 H 0.69738 0.32135 0.35566 0.0
H227 H 0.62825 0.35469 0.25818 0.0
H228 H 0.59931 0.39825 0.3009 0.0
H229 H 0.7569 0.20717 0.29526 0.0
H230 H 0.79359 0.30869 0.26851 0.0
H231 H 0.66984 0.36577 0.39673 0.0
H232 H 0.81092 0.19069 0.33149 0.0
H233 H 0.84835 0.2916 0.30401 0.0
C234 C 0.21033 0.62135 0.15978 0.0
C235 C 0.20902 0.58959 0.14002 0.0
C236 C 0.24087 0.62996 0.17878 0.0
C237 C 0.27039 0.60665 0.17897 0.0
C238 C 0.26891 0.57456 0.15981 0.0
C239 C 0.23851 0.56624 0.14006 0.0
C240 C 0.30318 0.61689 0.19709 0.0
C241 C 0.32045 0.59621 0.22714 0.0
C242 C 0.35157 0.60647 0.24401 0.0
C243 C 0.36529 0.6373 0.2303 0.0
C244 C 0.3481 0.65846 0.20081 0.0
C245 C 0.31701 0.64801 0.18433 0.0
C246 C 0.36269 0.69155 0.18784 0.0
C247 C 0.3781 0.7129 0.21565 0.0
C248 C 0.36231 0.70157 0.14766 0.0
C249 C 0.37783 0.73177 0.13555 0.0
C250 C 0.39418 0.75219 0.16338 0.0
C251 C 0.36923 0.58706 0.27783 0.0
C252 C 0.35125 0.58051 0.31244 0.0
C253 C 0.40528 0.58013 0.27797 0.0
C254 C 0.4233 0.56947 0.31272 0.0
C255 C 0.40557 0.56551 0.34788 0.0
C256 C 0.36935 0.5699 0.34734 0.0
C257 C 0.39386 0.7428 0.20349 0.0
H258 H 0.18779 0.63961 0.16008 0.0
H259 H 0.24149 0.65487 0.19333 0.0
H260 H 0.29149 0.55637 0.15929 0.0
H261 H 0.23789 0.54161 0.12496 0.0
H262 H 0.30955 0.57252 0.23761 0.0
H263 H 0.30334 0.66419 0.16167 0.0
H264 H 0.38931 0.64517 0.24324 0.0
H265 H 0.37816 0.70642 0.24688 0.0
H266 H 0.35089 0.6856 0.12549 0.0
H267 H 0.37782 0.73878 0.10444 0.0
H268 H 0.32352 0.58596 0.31321 0.0
H269 H 0.41972 0.5848 0.25163 0.0
H270 H 0.40617 0.75847 0.22535 0.0
H271 H 0.35534 0.56706 0.37435 0.0
H272 H 0.45125 0.56617 0.31268 0.0
C273 C 0.19191 0.11175 0.6688 0.0
C274 C 0.15599 0.11404 0.67283 0.0
C275 C 0.21216 0.13462 0.689 0.0
C276 C 0.19674 0.16012 0.71346 0.0
C277 C 0.16102 0.16063 0.71969 0.0
C278 C 0.1407 0.13772 0.69934 0.0
C279 C 0.21693 0.18906 0.7274 0.0
C280 C 0.23595 0.20727 0.69992 0.0
C281 C 0.25268 0.23697 0.71093 0.0
C282 C 0.25148 0.24764 0.75018 0.0
C283 C 0.23215 0.23019 0.77784 0.0
C284 C 0.2146 0.201 0.7663 0.0
C285 C 0.22551 0.24735 0.81575 0.0
C286 C 0.25328 0.25774 0.83917 0.0
C287 C 0.19193 0.26121 0.82295 0.0
C288 C 0.18677 0.2883 0.84954 0.0
C289 C 0.21506 0.30147 0.86949 0.0
C290 C 0.26804 0.25937 0.68095 0.0
C291 C 0.29988 0.27351 0.68886 0.0
C292 C 0.24951 0.26929 0.64584 0.0
C293 C 0.26219 0.29375 0.61972 0.0
C294 C 0.29358 0.30835 0.62839 0.0
C295 C 0.31253 0.29778 0.66275 0.0
C296 C 0.24799 0.28444 0.86639 0.0
H297 H 0.20398 0.09357 0.64836 0.0
H298 H 0.23968 0.1336 0.68396 0.0
H299 H 0.1485 0.18026 0.73809 0.0
H300 H 0.11293 0.13983 0.7025 0.0
H301 H 0.23648 0.19924 0.66942 0.0
H302 H 0.19864 0.1882 0.78721 0.0
H303 H 0.26315 0.2715 0.75845 0.0
H304 H 0.2794 0.2474 0.83391 0.0
H305 H 0.17021 0.25379 0.80502 0.0
H306 H 0.16112 0.30098 0.85194 0.0
H307 H 0.3147 0.2662 0.71557 0.0
H308 H 0.22463 0.25919 0.63934 0.0
H309 H 0.27001 0.29414 0.88193 0.0
H310 H 0.33691 0.30883 0.66966 0.0
H311 H 0.24732 0.30178 0.59327 0.0
Nd312 Nd 0.04663 0.99281 0.51105 0.0
Nd313 Nd 1.00661 0.05844 0.52373 0.0
C314 C 0.07182 0.92757 0.50414 0.0
C315 C 0.09059 0.90447 0.53348 0.0
C316 C 0.11465 0.87824 0.52118 0.0
C317 C 0.13833 0.8618 0.54844 0.0
C318 C 0.13816 0.87162 0.58813 0.0
C319 C 0.11278 0.89635 0.60086 0.0
C320 C 0.08917 0.91277 0.57366 0.0
C321 C 0.08007 0.03646 0.55991 0.0
C322 C 0.99264 0.99547 0.58814 0.0
C323 C 0.98356 0.12431 0.53087 0.0
C324 C 0.96749 0.15 0.50177 0.0
C325 C 0.98582 0.16183 0.46928 0.0
C326 C 0.9685 0.1813 0.43862 0.0
C327 C 0.93259 0.1885 0.43967 0.0
C328 C 0.9147 0.17835 0.47302 0.0
C329 C 0.93203 0.15953 0.50391 0.0
C330 C 0.97219 1.0154 0.4746 0.0
C331 C 0.0612 0.05565 0.44755 0.0
O332 O 0.03919 0.93577 0.51068 0.0
O333 O 0.08849 0.95462 0.49375 0.0
O334 O 0.09553 1.01719 0.534 0.0
O335 O 0.04855 0.03107 0.56124 0.0
O336 O 1.01084 0.97573 0.563 0.0
O337 O 0.99024 0.02995 0.58186 0.0
O338 O 1.01635 0.11484 0.52713 0.0
O339 O 0.96512 0.09788 0.53892 0.0
O340 O 0.95733 0.03626 0.4995 0.0
O341 O 1.00409 1.01969 0.4737 0.0
O342 O 0.04415 0.07549 0.47348 0.0
O343 O 0.06195 1.0211 0.45248 0.0
H344 H 0.11645 0.87198 0.49022 0.0
H345 H 0.15799 0.84292 0.53822 0.0
H346 H 0.11256 0.90437 0.63135 0.0
H347 H 0.07123 0.93346 0.5836 0.0
H348 H 1.01319 0.15493 0.46671 0.0
H349 H 0.98276 0.1893 0.41327 0.0
H350 H 0.88703 0.18401 0.47453 0.0
H351 H 0.91734 0.15092 0.52864 0.0
Nd352 Nd 0.53286 1.00915 0.05123 0.0
Nd353 Nd 0.53275 0.05146 0.98992 0.0
C354 C 0.53657 0.95458 0.10104 0.0
C355 C 0.51406 0.92663 0.11075 0.0
C356 C 0.52568 0.89966 0.13722 0.0
C357 C 0.50482 0.87211 0.14504 0.0
C358 C 0.47226 0.87122 0.12622 0.0
C359 C 0.46056 0.8984 0.09995 0.0
C360 C 0.48131 0.92605 0.09249 0.0
C361 C 0.47388 0.05688 0.05769 0.0
C362 C 0.49601 0.98406 0.96902 0.0
C363 C 0.53283 0.10741 0.94255 0.0
C364 C 0.54266 0.1434 0.94896 0.0
C365 C 0.53639 0.15992 0.98507 0.0
C366 C 0.54897 0.19257 0.9924 0.0
C367 C 0.56809 0.20905 0.96379 0.0
C368 C 0.57382 0.193 0.92744 0.0
C369 C 0.56119 0.16032 0.92009 0.0
C370 C 0.59025 1.00214 0.98367 0.0
C371 C 0.56851 0.07717 0.07033 0.0
O372 O 0.54901 0.95371 0.06568 0.0
O373 O 0.52563 0.98605 0.11078 0.0
O374 O 0.49583 0.04723 0.08573 0.0
O375 O 0.48391 0.04172 0.026 0.0
O376 O 0.51055 0.97399 1.00317 0.0
O377 O 0.49687 1.01668 0.9573 0.0
O378 O 0.50541 0.09793 0.96029 0.0
O379 O 0.5581 0.08336 0.94505 0.0
O380 O 0.56695 1.01021 0.9564 0.0
O381 O 0.58134 1.01846 1.01509 0.0
O382 O 0.54933 0.08741 0.03948 0.0
O383 O 0.57185 0.04378 0.07929 0.0
H384 H 0.55096 0.89975 0.15148 0.0
H385 H 0.51418 0.85126 0.16535 0.0
H386 H 0.43553 0.89805 0.08517 0.0
H387 H 0.47209 0.94686 0.07223 0.0
H388 H 0.52244 0.14737 1.00798 0.0
H389 H 0.5444 0.20467 0.02062 0.0
H390 H 0.58854 0.2055 0.90509 0.0
H391 H 0.56656 0.14789 0.89223 0.0
Nd392 Nd 0.52612 0.48686 0.54459 0.0
Nd393 Nd 0.56701 0.55051 0.51891 0.0
C394 C 0.48556 0.4378 0.56643 0.0
C395 C 0.4499 0.42808 0.56975 0.0
C396 C 0.42383 0.43953 0.54206 0.0
C397 C 0.39119 0.42604 0.54365 0.0
C398 C 0.38473 0.401 0.57281 0.0
C399 C 0.41041 0.39077 0.60122 0.0
C400 C 0.44276 0.40423 0.5997 0.0
C401 C 0.5934 0.48792 0.57438 0.0
C402 C 0.51027 0.56113 0.58706 0.0
C403 C 0.61466 0.59616 0.51274 0.0
C404 C 0.62639 0.62121 0.48374 0.0
C405 C 0.61422 0.62157 0.44437 0.0
C406 C 0.62442 0.64695 0.41769 0.0
C407 C 0.64671 0.67213 0.43031 0.0
C408 C 0.65886 0.67162 0.46961 0.0
C409 C 0.64874 0.64627 0.49618 0.0
C410 C 0.50605 0.55226 0.47406 0.0
C411 C 0.57292 0.47855 0.46868 0.0
O412 O 0.49759 0.4405 0.53087 0.0
O413 O 0.49646 0.46105 0.59074 0.0
O414 O 0.57895 0.45997 0.56392 0.0
O415 O 0.57141 0.51336 0.57093 0.0
O416 O 0.49655 0.53231 0.57529 0.0
O417 O 0.54006 0.57072 0.57412 0.0
O418 O 0.62043 0.56287 0.50515 0.0
O419 O 0.58399 0.60386 0.52668 0.0
O420 O 0.52947 0.57463 0.47009 0.0
O421 O 0.51621 0.53009 0.50027 0.0
O422 O 0.59024 0.5046 0.48237 0.0
O423 O 0.54305 0.47111 0.4832 0.0
H424 H 0.42897 0.45803 0.51874 0.0
H425 H 0.37146 0.43421 0.52165 0.0
H426 H 0.40565 0.37156 0.62398 0.0
H427 H 0.46262 0.39511 0.6212 0.0
H428 H 0.59669 0.60247 0.43449 0.0
H429 H 0.61492 0.64709 0.38737 0.0
H430 H 0.67612 0.6909 0.47966 0.0
H431 H 0.65809 0.64642 0.52656 0.0
Nd432 Nd 1.01527 0.53333 0.06266 0.0
Nd433 Nd 0.05202 0.52453 0.98957 0.0
C434 C 0.97259 0.53441 0.12177 0.0
C435 C 0.94506 0.56162 0.13009 0.0
C436 C 0.91526 0.56641 0.10548 0.0
C437 C 0.89405 0.59729 0.10688 0.0
C438 C 0.90245 0.62367 0.13281 0.0
C439 C 0.93048 0.61786 0.15945 0.0
C440 C 0.95149 0.58697 0.15831 0.0
C441 C 0.0784 0.56164 0.06502 0.0
C442 C 0.99982 0.59836 0.99758 0.0
C443 C 0.09557 0.52453 0.93138 0.0
C444 C 0.12444 0.49888 0.92374 0.0
C445 C 0.14775 0.48713 0.95442 0.0
C446 C 0.1695 0.45699 0.94997 0.0
C447 C 0.16768 0.43797 0.91515 0.0
C448 C 0.14619 0.45098 0.88361 0.0
C449 C 0.12479 0.48131 0.88784 0.0
C450 C 0.98958 0.4942 0.98901 0.0
C451 C 0.06706 0.45901 0.05419 0.0
O452 O 0.96807 0.51547 0.0905 0.0
O453 O 1.00399 0.54466 0.12491 0.0
O454 O 0.05032 0.57727 0.07796 0.0
O455 O 0.07228 0.53232 0.05109 0.0
O456 O 0.98991 0.58418 0.03111 0.0
O457 O 1.02494 0.58158 0.97767 0.0
O458 O 0.09879 0.54392 0.96252 0.0
O459 O 0.06502 0.51227 0.92792 0.0
O460 O 1.01753 0.48019 0.97387 0.0
O461 O 0.99528 0.52403 1.00163 0.0
O462 O 0.07687 0.4734 0.02068 0.0
O463 O 0.04212 0.47607 0.07423 0.0
H464 H 0.90926 0.5472 0.08377 0.0
H465 H 0.87205 0.60127 0.08665 0.0
H466 H 0.93684 0.63784 0.18013 0.0
H467 H 0.97405 0.58391 0.17783 0.0
H468 H 0.14784 0.5 0.98261 0.0
H469 H 0.18627 0.44742 0.97437 0.0
H470 H 0.14483 0.43672 0.85636 0.0
H471 H 0.1069 0.48975 0.86398 0.0
C472 C 0.07917 0.1075 0.3492 0.0
C473 C 0.11599 0.1037 0.34645 0.0
C474 C 0.11667 0.06658 0.4084 0.0
C475 C 0.0801 0.0725 0.41265 0.0
N476 N 1.02771 0.10412 0.38875 0.0
N477 N 0.16983 0.08425 0.3789 0.0
C478 C 0.06187 0.09476 0.38361 0.0
C479 C 0.13461 0.08425 0.37749 0.0
N480 N 0.06021 0.12181 0.31775 0.0
N481 N 0.13476 0.04418 0.43434 0.0
H482 H 0.18376 0.09718 0.35785 0.0
H483 H 0.18514 0.07434 0.40268 0.0
H484 H 0.12378 0.03327 0.45905 0.0
H485 H 0.16019 0.0348 0.43022 0.0
H486 H 0.0334 0.1219 0.31541 0.0
H487 H 0.07145 0.13062 0.29209 0.0
H488 H 1.01393 0.12362 0.37197 0.0
H489 H 1.01358 0.09429 0.41171 0.0
C490 C 0.47062 0.93049 0.87968 0.0
C491 C 0.4534 0.90341 0.89848 0.0
C492 C 0.45742 0.9343 0.96096 0.0
C493 C 0.47967 0.95791 0.9437 0.0
N494 N 0.51254 0.97381 0.88692 0.0
N495 N 0.43618 0.87641 0.95925 0.0
C496 C 0.48764 0.95486 0.90308 0.0
C497 C 0.44844 0.90439 0.93983 0.0
N498 N 0.46973 0.93386 0.83945 0.0
N499 N 0.44332 0.94139 0.99669 0.0
H500 H 0.43032 0.85353 0.94507 0.0
H501 H 0.43524 0.87465 0.98994 0.0
H502 H 0.44697 0.96463 1.01132 0.0
H503 H 0.42473 0.92646 1.00917 0.0
H504 H 0.47893 0.95525 0.82455 0.0
H505 H 0.4565 0.91741 0.82114 0.0
H506 H 0.52179 0.96943 0.85869 0.0
H507 H 0.52643 0.99143 0.90268 0.0
C508 C 0.67075 0.44972 0.63487 0.0
C509 C 0.66507 0.46922 0.66967 0.0
C510 C 0.62671 0.51119 0.63168 0.0
C511 C 0.62462 0.48667 0.60114 0.0
N512 N 0.65034 0.4363 0.56884 0.0
N513 N 0.63493 0.51792 0.70175 0.0
C514 C 0.6487 0.45712 0.60112 0.0
C515 C 0.6427 0.50014 0.66818 0.0
N516 N 0.69755 0.42475 0.63407 0.0
N517 N 0.61462 0.54514 0.62553 0.0
H518 H 0.64485 0.51017 0.72961 0.0
H519 H 0.616 0.53853 0.70229 0.0
H520 H 0.6068 0.55489 0.59761 0.0
H521 H 0.61743 0.56444 0.64645 0.0
H522 H 0.70485 0.41136 0.60884 0.0
H523 H 0.71456 0.41954 0.65809 0.0
H524 H 0.66383 0.4119 0.56853 0.0
H525 H 0.63774 0.44366 0.54212 0.0
C526 C 0.84338 0.6998 0.16544 0.0
C527 C 0.85737 0.72741 0.14377 0.0
C528 C 0.89276 0.68501 0.1063 0.0
C529 C 0.88271 0.65808 0.13209 0.0
N530 N 0.84801 0.63828 0.18485 0.0
N531 N 0.89358 0.74751 0.09264 0.0
C532 C 0.85737 0.66495 0.16081 0.0
C533 C 0.88115 0.7203 0.11339 0.0
N534 N 0.81704 0.70707 0.19079 0.0
N535 N 0.91365 0.67671 0.07542 0.0
H536 H 0.88422 0.77343 0.09608 0.0
H537 H 0.91378 0.74486 0.07304 0.0
H538 H 0.92328 0.6512 0.0701 0.0
H539 H 0.91961 0.69443 0.05342 0.0
H540 H 0.80332 0.68807 0.20457 0.0
H541 H 0.80698 0.73238 0.1962 0.0
H542 H 0.8331 0.64182 0.20974 0.0
H543 H 0.85643 0.61218 0.18076 0.0
C544 C 0.39832 0.1261 0.08254 0.0
C545 C 0.37161 0.10538 0.09684 0.0
C546 C 0.41122 0.05234 0.08327 0.0
C547 C 0.43693 0.07303 0.06686 0.0
N548 N 0.45103 0.13008 0.04487 0.0
N549 N 0.35143 0.04749 0.10275 0.0
C550 C 0.42908 0.11002 0.06468 0.0
C551 C 0.37792 0.06813 0.09496 0.0
N552 N 0.39535 0.1614 0.08791 0.0
N553 N 0.4188 1.01722 0.0885 0.0
H554 H 0.32698 0.05769 0.11046 0.0
H555 H 0.35258 1.02067 0.09799 0.0
H556 H 0.44157 1.00467 0.07863 0.0
H557 H 0.40365 1.00097 0.10465 0.0
H558 H 0.41514 0.17778 0.0825 0.0
H559 H 0.3742 0.17401 0.10134 0.0
H560 H 0.44573 0.15657 0.03828 0.0
H561 H 0.4732 0.11928 0.03172 0.0
C562 C 0.22216 0.87066 0.64828 0.0
C563 C 0.22419 0.83601 0.66395 0.0
C564 C 0.1675 0.8262 0.63415 0.0
C565 C 0.16724 0.85951 0.61518 0.0
N566 N 0.19573 0.9121 0.59995 0.0
N567 N 0.20087 0.77945 0.66999 0.0
C568 C 0.19489 0.88148 0.62124 0.0
C569 C 0.19733 0.8134 0.65654 0.0
N570 N 0.2461 0.89335 0.65975 0.0
N571 N 0.13896 0.80722 0.63133 0.0
H572 H 0.22186 0.76957 0.68754 0.0
H573 H 0.18419 0.76048 0.66191 0.0
H574 H 0.11693 0.81572 0.61467 0.0
H575 H 0.13598 0.78439 0.64766 0.0
H576 H 0.24392 0.92002 0.65293 0.0
H577 H 0.26686 0.88614 0.67896 0.0
H578 H 0.21706 0.9272 0.59954 0.0
H579 H 0.17609 0.92127 0.58012 0.0
C580 C 0.92373 0.43708 0.94556 0.0
C581 C 0.89252 0.45823 0.94791 0.0
C582 C 0.92311 0.50181 0.98496 0.0
C583 C 0.95457 0.48044 0.98221 0.0
N584 N 0.97896 0.42105 0.97726 0.0
N585 N 0.8605 0.50511 0.98031 0.0
C586 C 0.9531 0.44595 0.96788 0.0
C587 C 0.89161 0.48904 0.9706 0.0
N588 N 0.9259 0.40918 0.92099 0.0
N589 N 0.9227 0.53413 1.00124 0.0
H590 H 0.83686 0.49594 0.97151 0.0
H591 H 0.85798 0.52537 1.00033 0.0
H592 H 0.94185 0.54184 0.0204 0.0
H593 H 0.90241 0.55309 0.99661 0.0
H594 H 0.94916 0.39507 0.91561 0.0
H595 H 0.9053 0.40234 0.90305 0.0
H596 H 0.97778 0.39485 0.96983 0.0
H597 H 0.999 0.42551 0.99723 0.0
C598 C 0.69967 0.7185 0.35521 0.0
C599 C 0.68636 0.75352 0.36003 0.0
C600 C 0.64154 0.73336 0.40292 0.0
C601 C 0.65795 0.69917 0.4026 0.0
N602 N 0.70335 0.6587 0.38042 0.0
N603 N 0.6456 0.79528 0.38868 0.0
C604 C 0.68698 0.69146 0.37887 0.0
C605 C 0.65726 0.76123 0.3836 0.0
N606 N 0.72433 0.7112 0.32782 0.0
N607 N 0.6108 0.73895 0.42146 0.0
H608 H 0.65584 0.81618 0.37385 0.0
H609 H 0.62712 0.80309 0.40906 0.0
H610 H 0.59882 0.71902 0.43608 0.0
H611 H 0.59577 0.76248 0.41974 0.0
H612 H 0.73261 0.68593 0.31998 0.0
H613 H 0.73456 0.73049 0.31036 0.0
H614 H 0.72707 0.65248 0.36771 0.0
H615 H 0.69424 0.63794 0.39657 0.0
C616 C 0.13674 0.38014 0.07316 0.0
C617 C 0.12014 0.35666 0.09873 0.0
C618 C 0.06721 0.39786 0.09073 0.0
C619 C 0.08533 0.42363 0.06997 0.0
N620 N 0.14204 0.44048 0.05225 0.0
N621 N 0.07056 0.35009 0.13926 0.0
C622 C 0.1214 0.41499 0.0642 0.0
C623 C 0.08564 0.36757 0.10953 0.0
N624 N 0.16675 0.36895 0.05578 0.0
N625 N 0.03199 0.40097 0.09116 0.0
H626 H 0.08338 0.32949 0.15532 0.0
H627 H 0.04696 0.35875 0.15095 0.0
H628 H 1.01726 0.42079 0.07591 0.0
H629 H 1.01737 0.38145 0.10258 0.0
H630 H 0.17838 0.38367 0.03428 0.0
H631 H 0.17775 0.34348 0.05934 0.0
H632 H 0.16881 0.4364 0.0508 0.0
H633 H 0.13329 0.46668 0.04898 0.0
C634 C 0.58047 0.30657 0.96534 0.0
C635 C 0.61636 0.30542 0.97411 0.0
C636 C 0.61496 0.24365 0.99293 0.0
C637 C 0.58282 0.24291 0.9721 0.0
N638 N 0.53252 0.27457 0.94243 0.0
N639 N 0.65545 0.28055 0.02457 0.0
C640 C 0.56459 0.2747 0.95981 0.0
C641 C 0.63024 0.27614 0.99674 0.0
N642 N 0.56088 0.33714 0.96895 0.0
N643 N 0.63151 0.21339 1.00751 0.0
H644 H 0.66412 0.30529 0.03006 0.0
H645 H 0.66458 0.26097 0.04464 0.0
H646 H 0.62077 0.18919 1.00595 0.0
H647 H 0.65666 0.21217 1.01918 0.0
H648 H 0.534 0.33889 0.96622 0.0
H649 H 0.57153 0.35931 0.98033 0.0
H650 H 0.51991 0.29697 0.92952 0.0
H651 H 0.51949 0.25179 0.93914 0.0
C652 C 0.90089 0.96453 0.42876 0.0
C653 C 0.91338 0.9586 0.39035 0.0
C654 C 0.9621 0.99407 0.40502 0.0
C655 C 0.9524 0.99565 0.44526 0.0
N656 N 0.91549 0.9757 0.49664 0.0
N657 N 0.95952 0.96199 0.34426 0.0
C658 C 0.9226 0.979 0.4575 0.0
C659 C 0.94515 0.97158 0.37918 0.0
N660 N 0.86783 0.95743 0.43756 0.0
N661 N 0.98563 1.01565 0.3905 0.0
H662 H 0.94796 0.94538 0.32463 0.0
H663 H 0.98439 0.96787 0.33668 0.0
H664 H 0.99629 0.03502 0.40703 0.0
H665 H 0.99113 1.01745 0.36062 0.0
H666 H 0.85631 0.96473 0.46389 0.0
H667 H 0.8507 0.94758 0.41706 0.0
H668 H 0.8963 0.96037 0.50703 0.0
H669 H 0.93078 0.98513 0.51915 0.0
C670 C 0.45184 0.63319 0.63028 0.0
C671 C 0.46489 0.63316 0.66983 0.0
C672 C 0.50629 0.58399 0.65575 0.0
C673 C 0.49247 0.58339 0.61661 0.0
N674 N 0.44826 0.60249 0.56842 0.0
N675 N 0.5002 0.60553 0.72241 0.0
C676 C 0.4639 0.60638 0.60451 0.0
C677 C 0.49091 0.60765 0.68322 0.0
N678 N 0.42902 0.65977 0.61687 0.0
N679 N 0.53439 0.56213 0.66645 0.0
H680 H 0.48965 0.62268 0.74316 0.0
H681 H 0.51639 0.58541 0.73501 0.0
H682 H 0.54463 0.54269 0.64811 0.0
H683 H 0.54852 0.56412 0.6927 0.0
H684 H 0.42154 0.6636 0.58734 0.0
H685 H 0.41944 0.67985 0.63478 0.0
H686 H 0.42517 0.61597 0.55938 0.0
H687 H 0.45685 0.58358 0.54851 0.0
C688 C 0.95794 0.98068 0.69553 0.0
C689 C 0.94173 0.94837 0.69299 0.0
C690 C 0.95694 0.94751 0.62146 0.0
C691 C 0.97547 0.97866 0.62458 0.0
N692 N 0.99946 1.0195 0.66932 0.0
N693 N 0.93163 0.89818 0.65396 0.0
C694 C 0.97734 0.99378 0.66295 0.0
C695 C 0.94295 0.93112 0.65601 0.0
N696 N 0.95418 0.99964 0.72907 0.0
N697 N 0.95109 0.93402 0.58508 0.0
H698 H 0.92089 0.88567 0.67787 0.0
H699 H 0.93559 0.88208 0.62984 0.0
H700 H 0.9607 0.94417 0.55926 0.0
H701 H 0.93417 0.91452 0.57994 0.0
H702 H 0.96154 1.02519 0.73148 0.0
H703 H 0.94091 0.99094 0.75338 0.0
H704 H 1.0051 0.02896 0.69719 0.0
H705 H 1.01522 0.02878 0.64758 0.0
C706 C 0.58049 0.16318 0.12185 0.0
C707 C 0.61425 0.15738 0.1385 0.0
C708 C 0.61932 0.09941 0.10859 0.0
C709 C 0.58416 0.10376 0.09556 0.0
N710 N 0.52892 0.13651 0.09999 0.0
N711 N 0.66311 0.11698 0.15488 0.0
C712 C 0.56405 0.13477 0.10501 0.0
C713 C 0.63289 0.12458 0.13401 0.0
N714 N 0.56435 0.196 0.12114 0.0
N715 N 0.64037 0.07234 0.09531 0.0
H716 H 0.67585 0.09215 0.1559 0.0
H717 H 0.67372 0.13448 0.17421 0.0
H718 H 0.63198 0.0537 0.07597 0.0
H719 H 0.66701 0.07031 0.10048 0.0
H720 H 0.54123 0.20231 0.10556 0.0
H721 H 0.5757 0.21763 0.1328 0.0
H722 H 0.51288 0.1574 0.10955 0.0
H723 H 0.51547 0.11534 0.09082 0.0
C724 C 0.43533 0.59153 0.40558 0.0
C725 C 0.42549 0.56123 0.38584 0.0
C726 C 0.45908 0.52382 0.43445 0.0
C727 C 0.47294 0.55413 0.45036 0.0
N728 N 0.46388 0.6157 0.46236 0.0
N729 N 0.42734 0.4986 0.38044 0.0
C730 C 0.45788 0.58772 0.43925 0.0
C731 C 0.4368 0.52733 0.40033 0.0
N732 N 0.42457 0.62402 0.39081 0.0
N733 N 0.46567 0.4921 0.45295 0.0
H734 H 0.40996 0.50028 0.35641 0.0
H735 H 0.43806 0.47334 0.38615 0.0
H736 H 0.47824 0.48946 0.48029 0.0
H737 H 0.4547 0.46928 0.44439 0.0
H738 H 0.43441 0.6471 0.40042 0.0
H739 H 0.40699 0.628 0.36714 0.0
H740 H 0.45136 0.64042 0.45835 0.0
H741 H 0.47867 0.61322 0.4885 0.0
C742 C 0.18953 0.33977 0.92169 0.0
C743 C 0.21038 0.33613 0.88812 0.0
C744 C 0.21305 0.39975 0.8837 0.0
C745 C 0.18661 0.40336 0.91159 0.0
N746 N 0.14788 0.37684 0.95637 0.0
N747 N 0.23962 0.36313 0.83422 0.0
C748 C 0.17474 0.37342 0.93104 0.0
C749 C 0.22213 0.3662 0.86869 0.0
N750 N 0.1837 0.31096 0.94427 0.0
N751 N 0.22905 0.42854 0.87125 0.0
H752 H 0.24625 0.33929 0.82121 0.0
H753 H 0.24508 0.38455 0.81663 0.0
H754 H 0.22275 0.45348 0.88196 0.0
H755 H 0.25072 0.42712 0.85363 0.0
H756 H 0.1713 0.3123 0.97118 0.0
H757 H 0.19434 0.28602 0.93784 0.0
H758 H 0.13563 0.35565 0.96782 0.0
H759 H 0.13619 0.40095 0.96409 0.0
C760 C 0.65871 0.93782 0.93363 0.0
C761 C 0.69154 0.94945 0.94587 0.0
C762 C 0.65848 0.99668 0.98305 0.0
C763 C 0.62585 0.98295 0.97382 0.0
N764 N 0.59726 0.93488 0.94588 0.0
N765 N 0.72119 0.98672 0.98987 0.0
C766 C 0.62686 0.95192 0.95071 0.0
C767 C 0.69084 0.97795 0.97279 0.0
N768 N 0.65747 0.91431 0.9039 0.0
N769 N 0.65891 0.02886 0.99961 0.0
H770 H 0.74489 0.97364 0.98397 0.0
H771 H 0.72243 1.00444 1.01273 0.0
H772 H 0.63645 0.04389 1.00597 0.0
H773 H 0.6813 0.04214 1.00325 0.0
H774 H 0.6345 0.90767 0.89035 0.0
H775 H 0.67947 0.90414 0.88992 0.0
H776 H 0.59665 0.91034 0.93322 0.0
H777 H 0.57393 0.94344 0.9583 0.0
C778 C 0.86678 0.24887 0.38422 0.0
C779 C 0.86352 0.23131 0.34787 0.0
C780 C 0.90872 0.1871 0.36983 0.0
C781 C 0.91279 0.2054 0.40559 0.0
N782 N 0.90303 0.25859 0.44164 0.0
N783 N 0.88762 0.18976 0.30187 0.0
C784 C 0.89429 0.23803 0.41093 0.0
C785 C 0.88671 0.20245 0.33927 0.0
N786 N 0.8424 0.27423 0.39461 0.0
N787 N 0.92396 0.15418 0.3659 0.0
H788 H 0.87193 0.20074 0.27882 0.0
H789 H 0.90619 0.17084 0.29292 0.0
H790 H 0.93973 0.14146 0.38773 0.0
H791 H 0.91863 0.13825 0.34224 0.0
H792 H 0.84157 0.28495 0.42263 0.0
H793 H 0.82113 0.28245 0.37666 0.0
H794 H 0.89254 0.28409 0.44494 0.0
H795 H 0.92336 0.2514 0.46149 0.0
C796 C 0.16666 0.59733 0.08264 0.0
C797 C 0.17645 0.58088 0.11954 0.0
C798 C 0.12191 0.5519 0.12052 0.0
C799 C 0.11241 0.56784 0.0833 0.0
N800 N 0.12601 0.6026 0.02668 0.0
N801 N 0.16599 0.53971 0.17186 0.0
C802 C 0.13491 0.5897 0.0637 0.0
C803 C 0.15484 0.55724 0.13789 0.0
N804 N 0.18763 0.62064 0.06611 0.0
N805 N 0.09886 0.53262 0.1399 0.0
H806 H 0.18887 0.54452 0.18694 0.0
H807 H 0.15376 0.51892 0.18419 0.0
H808 H 0.07502 0.52694 0.12773 0.0
H809 H 0.10218 0.52381 0.16904 0.0
H810 H 0.18065 0.63659 0.04168 0.0
H811 H 0.21197 0.6252 0.07784 0.0
H812 H 0.14246 0.61569 1.00867 0.0
H813 H 0.10234 0.59864 1.01281 0.0
C814 C 0.30273 0.37094 0.61405 0.0
C815 C 0.30699 0.33557 0.60257 0.0
C816 C 0.35074 0.35057 0.55565 0.0
C817 C 0.35196 0.38348 0.57378 0.0
N818 N 0.32727 0.42767 0.61597 0.0
N819 N 0.33169 0.29153 0.55994 0.0
C820 C 0.32671 0.39483 0.60101 0.0
C821 C 0.32937 0.32551 0.57177 0.0
N822 N 0.27627 0.3811 0.63807 0.0
N823 N 0.37084 0.34326 0.52391 0.0
H824 H 0.31544 0.27299 0.57041 0.0
H825 H 0.35024 0.28131 0.5409 0.0
H826 H 0.38681 0.3614 0.51201 0.0
H827 H 0.36961 0.32074 0.50737 0.0
H828 H 0.27014 0.40692 0.6457 0.0
H829 H 0.25855 0.36374 0.6479 0.0
H830 H 0.31225 0.4366 0.63921 0.0
H831 H 0.34377 0.44594 0.60539 0.0
C832 C 0.93959 0.66541 0.93322 0.0
C833 C 0.94483 0.69846 0.95077 0.0
C834 C 0.9837 0.66548 1.0011 0.0
C835 C 0.98115 0.63309 0.98119 0.0
N836 N 0.9581 0.60375 0.92524 0.0
N837 N 0.97726 0.72934 0.99874 0.0
C838 C 0.95967 0.63373 0.94624 0.0
C839 C 0.96821 0.69814 0.98416 0.0
N840 N 0.91377 0.66374 0.90534 0.0
N841 N 1.00099 0.66526 0.03668 0.0
H842 H 0.96752 0.75343 0.98699 0.0
H843 H 0.99679 0.73153 1.01998 0.0
H844 H 1.01427 0.64291 0.04884 0.0
H845 H 1.00013 0.68653 0.05541 0.0
H846 H 0.90567 0.6404 0.89425 0.0
H847 H 0.89797 0.68554 0.89601 0.0
H848 H 0.94681 0.60299 0.89712 0.0
H849 H 0.9701 0.57983 0.93482 0.0
C850 C 0.44428 0.7782 0.1308 0.0
C851 C 0.41263 0.78303 0.15078 0.0
C852 C 0.42041 0.84575 0.15567 0.0
C853 C 0.45082 0.84123 0.13337 0.0
N854 N 0.4874 0.80493 0.09198 0.0
N855 N 0.36679 0.82198 0.17481 0.0
C856 C 0.46144 0.80796 0.11853 0.0
C857 C 0.39951 0.81705 0.16094 0.0
N858 N 0.45879 0.74522 0.12513 0.0
N859 N 0.41225 0.87701 0.17315 0.0
H860 H 0.35065 0.80152 0.17867 0.0
H861 H 0.35451 0.8466 0.17896 0.0
H862 H 0.42701 0.89864 0.17016 0.0
H863 H 0.39252 0.88063 0.19328 0.0
H864 H 0.48365 0.74028 0.11474 0.0
H865 H 0.44729 0.72262 0.134 0.0
H866 H 0.49379 0.78196 0.07704 0.0
H867 H 0.5004 0.82625 0.08201 0.0
C868 C 0.12202 0.06234 0.65676 0.0
C869 C 0.13435 0.0949 0.64522 0.0
C870 C 0.11277 0.08797 0.57758 0.0
C871 C 0.09857 0.05642 0.5895 0.0
N872 N 0.08715 1.01403 0.64031 0.0
N873 N 0.13635 0.1421 0.5974 0.0
C874 C 0.10223 0.04383 0.62919 0.0
C875 C 0.12819 0.10872 0.6064 0.0
N876 N 0.13036 0.04865 0.69356 0.0
N877 N 0.11224 0.09771 0.53853 0.0
H878 H 0.148 0.15812 0.61763 0.0
H879 H 0.12896 0.15512 0.57101 0.0
H880 H 0.10056 0.08363 0.5165 0.0
H881 H 0.12572 0.11818 0.5274 0.0
H882 H 0.12553 1.02339 0.70265 0.0
H883 H 0.14409 0.06199 0.71467 0.0
H884 H 0.08534 1.00562 0.66951 0.0
H885 H 0.07473 0.99831 0.62043 0.0
C886 C 0.61719 0.44694 0.37484 0.0
C887 C 0.61474 0.41025 0.37902 0.0
C888 C 0.58867 0.41846 0.44344 0.0
C889 C 0.58795 0.45539 0.43781 0.0
N890 N 0.59469 0.50463 0.39375 0.0
N891 N 0.58996 0.36211 0.41237 0.0
C892 C 0.6003 0.46968 0.40224 0.0
C893 C 0.5978 0.39638 0.41176 0.0
N894 N 0.63655 0.46006 0.34561 0.0
N895 N 0.58263 0.40421 0.47968 0.0
H896 H 0.59569 0.34522 0.38926 0.0
H897 H 0.57458 0.35157 0.43376 0.0
H898 H 0.57788 0.41915 0.50455 0.0
H899 H 0.5863 0.3775 0.48612 0.0
H900 H 0.64234 0.48621 0.34385 0.0
H901 H 0.64916 0.4443 0.32493 0.0
H902 H 0.60015 0.5158 0.36654 0.0
H903 H 0.58141 0.52196 0.41232 0.0
loop_
_geom_bond_atom_site_label_1
_geom_bond_atom_site_label_2
_geom_bond_distance
_geom_bond_site_symmetry_2
_ccdc_geom_bond_type
C0 C1 1.386 . S
C0 C2 1.397 . S
C0 H24 0.931 . S
C1 C0 1.386 . S
C1 C5 1.397 . S
C2 C0 1.397 . S
C2 C3 1.384 . S
C2 H25 0.930 . S
C3 C2 1.384 . S
C3 C4 1.377 . S
C3 C6 1.481 . S
C4 C3 1.377 . S
C4 C5 1.389 . S
C4 H26 0.929 . S
C5 C1 1.397 . S
C5 C4 1.389 . S
C5 H27 0.931 . S
C6 C3 1.481 . S
C6 C7 1.387 . S
C6 C11 1.390 . S
C7 C6 1.387 . S
C7 C8 1.401 . S
C7 H28 0.930 . S
C8 C7 1.401 . S
C8 C9 1.376 . S
C8 C17 1.511 . S
C9 C8 1.376 . S
C9 C10 1.392 . S
C9 H30 0.931 . S
C10 C9 1.392 . S
C10 C11 1.361 . S
C10 C12 1.500 . S
C11 C6 1.390 . S
C11 C10 1.361 . S
C11 H29 0.931 . S
C12 C10 1.500 . S
C12 C13 1.371 . S
C12 C14 1.365 . S
C13 C12 1.371 . S
C13 C23 1.386 . S
C13 H31 0.931 . S
C14 C12 1.365 . S
C14 C15 1.409 . S
C14 H32 0.929 . S
C15 C14 1.409 . S
C15 C16 1.380 . S
C15 H33 0.930 . S
C16 C15 1.380 . S
C16 C23 1.357 . S
C17 C8 1.511 . S
C17 C18 1.341 . S
C17 C19 1.371 . S
C18 C17 1.341 . S
C18 C22 1.394 . S
C18 H34 0.930 . S
C19 C17 1.371 . S
C19 C20 1.392 . S
C19 H35 0.931 . S
C20 C19 1.392 . S
C20 C21 1.331 . S
C20 H38 0.932 . S
C21 C20 1.331 . S
C21 C22 1.336 . S
C22 C18 1.394 . S
C22 C21 1.336 . S
C22 H37 0.929 . S
C23 C13 1.386 . S
C23 C16 1.357 . S
C23 H36 0.928 . S
H24 C0 0.931 . S
H25 C2 0.930 . S
H26 C4 0.929 . S
H27 C5 0.931 . S
H28 C7 0.930 . S
H29 C11 0.931 . S
H30 C9 0.931 . S
H31 C13 0.931 . S
H32 C14 0.929 . S
H33 C15 0.930 . S
H34 C18 0.930 . S
H35 C19 0.931 . S
H36 C23 0.928 . S
H37 C22 0.929 . S
H38 C20 0.932 . S
C39 C40 1.386 . S
C39 C41 1.397 . S
C39 H63 0.931 . S
C40 C39 1.386 . S
C40 C44 1.397 . S
C41 C39 1.397 . S
C41 C42 1.384 . S
C41 H64 0.930 . S
C42 C41 1.384 . S
C42 C43 1.377 . S
C42 C45 1.481 . S
C43 C42 1.377 . S
C43 C44 1.389 . S
C43 H65 0.929 . S
C44 C40 1.397 . S
C44 C43 1.389 . S
C44 H66 0.931 . S
C45 C42 1.481 . S
C45 C46 1.387 . S
C45 C50 1.390 . S
C46 C45 1.387 . S
C46 C47 1.401 . S
C46 H67 0.930 . S
C47 C46 1.401 . S
C47 C48 1.376 . S
C47 C56 1.511 . S
C48 C47 1.376 . S
C48 C49 1.392 . S
C48 H69 0.931 . S
C49 C48 1.392 . S
C49 C50 1.361 . S
C49 C51 1.500 . S
C50 C45 1.390 . S
C50 C49 1.361 . S
C50 H68 0.931 . S
C51 C49 1.500 . S
C51 C52 1.371 . S
C51 C53 1.365 . S
C52 C51 1.371 . S
C52 C62 1.386 . S
C52 H70 0.931 . S
C53 C51 1.365 . S
C53 C54 1.409 . S
C53 H71 0.929 . S
C54 C53 1.409 . S
C54 C55 1.380 . S
C54 H72 0.930 . S
C55 C54 1.380 . S
C55 C62 1.357 . S
C56 C47 1.511 . S
C56 C57 1.341 . S
C56 C58 1.371 . S
C57 C56 1.341 . S
C57 C61 1.394 . S
C57 H73 0.930 . S
C58 C56 1.371 . S
C58 C59 1.392 . S
C58 H74 0.931 . S
C59 C58 1.392 . S
C59 C60 1.331 . S
C59 H77 0.932 . S
C60 C59 1.331 . S
C60 C61 1.336 . S
C61 C57 1.394 . S
C61 C60 1.336 . S
C61 H76 0.929 . S
C62 C52 1.386 . S
C62 C55 1.357 . S
C62 H75 0.928 . S
H63 C39 0.931 . S
H64 C41 0.930 . S
H65 C43 0.929 . S
H66 C44 0.931 . S
H67 C46 0.930 . S
H68 C50 0.931 . S
H69 C48 0.931 . S
H70 C52 0.931 . S
H71 C53 0.929 . S
H72 C54 0.930 . S
H73 C57 0.930 . S
H74 C58 0.931 . S
H75 C62 0.928 . S
H76 C61 0.929 . S
H77 C59 0.932 . S
C78 C79 1.386 . S
C78 C80 1.397 . S
C78 H102 0.931 . S
C79 C78 1.386 . S
C79 C83 1.397 . S
C80 C78 1.397 . S
C80 C81 1.384 . S
C80 H103 0.930 . S
C81 C80 1.384 . S
C81 C82 1.377 . S
C81 C84 1.481 . S
C82 C81 1.377 . S
C82 C83 1.389 . S
C82 H104 0.929 . S
C83 C79 1.397 . S
C83 C82 1.389 . S
C83 H105 0.931 . S
C84 C81 1.481 . S
C84 C85 1.387 . S
C84 C89 1.390 . S
C85 C84 1.387 . S
C85 C86 1.401 . S
C85 H106 0.930 . S
C86 C85 1.401 . S
C86 C87 1.376 . S
C86 C95 1.511 . S
C87 C86 1.376 . S
C87 C88 1.392 . S
C87 H108 0.931 . S
C88 C87 1.392 . S
C88 C89 1.361 . S
C88 C90 1.500 . S
C89 C84 1.390 . S
C89 C88 1.361 . S
C89 H107 0.931 . S
C90 C88 1.500 . S
C90 C91 1.371 . S
C90 C92 1.365 . S
C91 C90 1.371 . S
C91 C101 1.386 . S
C91 H109 0.931 . S
C92 C90 1.365 . S
C92 C93 1.409 . S
C92 H110 0.929 . S
C93 C92 1.409 . S
C93 C94 1.380 . S
C93 H111 0.930 . S
C94 C93 1.380 . S
C94 C101 1.357 . S
C95 C86 1.511 . S
C95 C96 1.341 . S
C95 C97 1.371 . S
C96 C95 1.341 . S
C96 C100 1.394 . S
C96 H112 0.930 . S
C97 C95 1.371 . S
C97 C98 1.392 . S
C97 H113 0.931 . S
C98 C97 1.392 . S
C98 C99 1.331 . S
C98 H116 0.932 . S
C99 C98 1.331 . S
C99 C100 1.336 . S
C100 C96 1.394 . S
C100 C99 1.336 . S
C100 H115 0.929 . S
C101 C91 1.386 . S
C101 C94 1.357 . S
C101 H114 0.928 . S
H102 C78 0.931 . S
H103 C80 0.930 . S
H104 C82 0.929 . S
H105 C83 0.931 . S
H106 C85 0.930 . S
H107 C89 0.931 . S
H108 C87 0.931 . S
H109 C91 0.931 . S
H110 C92 0.929 . S
H111 C93 0.930 . S
H112 C96 0.930 . S
H113 C97 0.931 . S
H114 C101 0.928 . S
H115 C100 0.929 . S
H116 C98 0.932 . S
C117 C118 1.386 . S
C117 C119 1.397 . S
C117 H141 0.931 . S
C118 C117 1.386 . S
C118 C122 1.397 . S
C119 C117 1.397 . S
C119 C120 1.384 . S
C119 H142 0.930 . S
C120 C119 1.384 . S
C120 C121 1.377 . S
C120 C123 1.481 . S
C121 C120 1.377 . S
C121 C122 1.389 . S
C121 H143 0.929 . S
C122 C118 1.397 . S
C122 C121 1.389 . S
C122 H144 0.931 . S
C123 C120 1.481 . S
C123 C124 1.387 . S
C123 C128 1.390 . S
C124 C123 1.387 . S
C124 C125 1.401 . S
C124 H145 0.930 . S
C125 C124 1.401 . S
C125 C126 1.376 . S
C125 C134 1.511 . S
C126 C125 1.376 . S
C126 C127 1.392 . S
C126 H147 0.931 . S
C127 C126 1.392 . S
C127 C128 1.361 . S
C127 C129 1.500 . S
C128 C123 1.390 . S
C128 C127 1.361 . S
C128 H146 0.931 . S
C129 C127 1.500 . S
C129 C130 1.371 . S
C129 C131 1.365 . S
C130 C129 1.371 . S
C130 C140 1.386 . S
C130 H148 0.931 . S
C131 C129 1.365 . S
C131 C132 1.409 . S
C131 H149 0.929 . S
C132 C131 1.409 . S
C132 C133 1.380 . S
C132 H150 0.930 . S
C133 C132 1.380 . S
C133 C140 1.357 . S
C134 C125 1.511 . S
C134 C135 1.341 . S
C134 C136 1.371 . S
C135 C134 1.341 . S
C135 C139 1.394 . S
C135 H151 0.930 . S
C136 C134 1.371 . S
C136 C137 1.392 . S
C136 H152 0.931 . S
C137 C136 1.392 . S
C137 C138 1.331 . S
C137 H155 0.932 . S
C138 C137 1.331 . S
C138 C139 1.336 . S
C139 C135 1.394 . S
C139 C138 1.336 . S
C139 H154 0.929 . S
C140 C130 1.386 . S
C140 C133 1.357 . S
C140 H153 0.928 . S
H141 C117 0.931 . S
H142 C119 0.930 . S
H143 C121 0.929 . S
H144 C122 0.931 . S
H145 C124 0.930 . S
H146 C128 0.931 . S
H147 C126 0.931 . S
H148 C130 0.931 . S
H149 C131 0.929 . S
H150 C132 0.930 . S
H151 C135 0.930 . S
H152 C136 0.931 . S
H153 C140 0.928 . S
H154 C139 0.929 . S
H155 C137 0.932 . S
C156 C157 1.386 . S
C156 C158 1.397 . S
C156 H180 0.931 . S
C157 C156 1.386 . S
C157 C161 1.397 . S
C158 C156 1.397 . S
C158 C159 1.384 . S
C158 H181 0.930 . S
C159 C158 1.384 . S
C159 C160 1.377 . S
C159 C162 1.481 . S
C160 C159 1.377 . S
C160 C161 1.389 . S
C160 H182 0.929 . S
C161 C157 1.397 . S
C161 C160 1.389 . S
C161 H183 0.931 . S
C162 C159 1.481 . S
C162 C163 1.387 . S
C162 C167 1.390 . S
C163 C162 1.387 . S
C163 C164 1.401 . S
C163 H184 0.930 . S
C164 C163 1.401 . S
C164 C165 1.376 . S
C164 C173 1.511 . S
C165 C164 1.376 . S
C165 C166 1.392 . S
C165 H186 0.931 . S
C166 C165 1.392 . S
C166 C167 1.361 . S
C166 C168 1.500 . S
C167 C162 1.390 . S
C167 C166 1.361 . S
C167 H185 0.931 . S
C168 C166 1.500 . S
C168 C169 1.371 . S
C168 C170 1.365 . S
C169 C168 1.371 . S
C169 C179 1.386 . S
C169 H187 0.931 . S
C170 C168 1.365 . S
C170 C171 1.409 . S
C170 H188 0.929 . S
C171 C170 1.409 . S
C171 C172 1.380 . S
C171 H189 0.930 . S
C172 C171 1.380 . S
C172 C179 1.357 . S
C173 C164 1.511 . S
C173 C174 1.341 . S
C173 C175 1.371 . S
C174 C173 1.341 . S
C174 C178 1.394 . S
C174 H190 0.930 . S
C175 C173 1.371 . S
C175 C176 1.392 . S
C175 H191 0.931 . S
C176 C175 1.392 . S
C176 C177 1.331 . S
C176 H194 0.932 . S
C177 C176 1.331 . S
C177 C178 1.336 . S
C178 C174 1.394 . S
C178 C177 1.336 . S
C178 H193 0.929 . S
C179 C169 1.386 . S
C179 C172 1.357 . S
C179 H192 0.928 . S
H180 C156 0.931 . S
H181 C158 0.930 . S
H182 C160 0.929 . S
H183 C161 0.931 . S
H184 C163 0.930 . S
H185 C167 0.931 . S
H186 C165 0.931 . S
H187 C169 0.931 . S
H188 C170 0.929 . S
H189 C171 0.930 . S
H190 C174 0.930 . S
H191 C175 0.931 . S
H192 C179 0.928 . S
H193 C178 0.929 . S
H194 C176 0.932 . S
C195 C196 1.386 . S
C195 C197 1.397 . S
C195 H219 0.931 . S
C196 C195 1.386 . S
C196 C200 1.397 . S
C197 C195 1.397 . S
C197 C198 1.384 . S
C197 H220 0.930 . S
C198 C197 1.384 . S
C198 C199 1.377 . S
C198 C201 1.481 . S
C199 C198 1.377 . S
C199 C200 1.389 . S
C199 H221 0.929 . S
C200 C196 1.397 . S
C200 C199 1.389 . S
C200 H222 0.931 . S
C201 C198 1.481 . S
C201 C202 1.387 . S
C201 C206 1.390 . S
C202 C201 1.387 . S
C202 C203 1.401 . S
C202 H223 0.930 . S
C203 C202 1.401 . S
C203 C204 1.376 . S
C203 C212 1.511 . S
C204 C203 1.376 . S
C204 C205 1.392 . S
C204 H225 0.931 . S
C205 C204 1.392 . S
C205 C206 1.361 . S
C205 C207 1.500 . S
C206 C201 1.390 . S
C206 C205 1.361 . S
C206 H224 0.931 . S
C207 C205 1.500 . S
C207 C208 1.371 . S
C207 C209 1.365 . S
C208 C207 1.371 . S
C208 C218 1.386 . S
C208 H226 0.931 . S
C209 C207 1.365 . S
C209 C210 1.409 . S
C209 H227 0.929 . S
C210 C209 1.409 . S
C210 C211 1.380 . S
C210 H228 0.930 . S
C211 C210 1.380 . S
C211 C218 1.357 . S
C212 C203 1.511 . S
C212 C213 1.341 . S
C212 C214 1.371 . S
C213 C212 1.341 . S
C213 C217 1.394 . S
C213 H229 0.930 . S
C214 C212 1.371 . S
C214 C215 1.392 . S
C214 H230 0.931 . S
C215 C214 1.392 . S
C215 C216 1.331 . S
C215 H233 0.932 . S
C216 C215 1.331 . S
C216 C217 1.336 . S
C217 C213 1.394 . S
C217 C216 1.336 . S
C217 H232 0.929 . S
C218 C208 1.386 . S
C218 C211 1.357 . S
C218 H231 0.928 . S
H219 C195 0.931 . S
H220 C197 0.930 . S
H221 C199 0.929 . S
H222 C200 0.931 . S
H223 C202 0.930 . S
H224 C206 0.931 . S
H225 C204 0.931 . S
H226 C208 0.931 . S
H227 C209 0.929 . S
H228 C210 0.930 . S
H229 C213 0.930 . S
H230 C214 0.931 . S
H231 C218 0.928 . S
H232 C217 0.929 . S
H233 C215 0.932 . S
C234 C235 1.386 . S
C234 C236 1.397 . S
C234 H258 0.931 . S
C235 C234 1.386 . S
C235 C239 1.397 . S
C236 C234 1.397 . S
C236 C237 1.384 . S
C236 H259 0.930 . S
C237 C236 1.384 . S
C237 C238 1.377 . S
C237 C240 1.481 . S
C238 C237 1.377 . S
C238 C239 1.389 . S
C238 H260 0.929 . S
C239 C235 1.397 . S
C239 C238 1.389 . S
C239 H261 0.931 . S
C240 C237 1.481 . S
C240 C241 1.387 . S
C240 C245 1.390 . S
C241 C240 1.387 . S
C241 C242 1.401 . S
C241 H262 0.930 . S
C242 C241 1.401 . S
C242 C243 1.376 . S
C242 C251 1.511 . S
C243 C242 1.376 . S
C243 C244 1.392 . S
C243 H264 0.931 . S
C244 C243 1.392 . S
C244 C245 1.361 . S
C244 C246 1.500 . S
C245 C240 1.390 . S
C245 C244 1.361 . S
C245 H263 0.931 . S
C246 C244 1.500 . S
C246 C247 1.371 . S
C246 C248 1.365 . S
C247 C246 1.371 . S
C247 C257 1.386 . S
C247 H265 0.931 . S
C248 C246 1.365 . S
C248 C249 1.409 . S
C248 H266 0.929 . S
C249 C248 1.409 . S
C249 C250 1.380 . S
C249 H267 0.930 . S
C250 C249 1.380 . S
C250 C257 1.357 . S
C251 C242 1.511 . S
C251 C252 1.341 . S
C251 C253 1.371 . S
C252 C251 1.341 . S
C252 C256 1.394 . S
C252 H268 0.930 . S
C253 C251 1.371 . S
C253 C254 1.392 . S
C253 H269 0.931 . S
C254 C253 1.392 . S
C254 C255 1.331 . S
C254 H272 0.932 . S
C255 C254 1.331 . S
C255 C256 1.336 . S
C256 C252 1.394 . S
C256 C255 1.336 . S
C256 H271 0.929 . S
C257 C247 1.386 . S
C257 C250 1.357 . S
C257 H270 0.928 . S
H258 C234 0.931 . S
H259 C236 0.930 . S
H260 C238 0.929 . S
H261 C239 0.931 . S
H262 C241 0.930 . S
H263 C245 0.931 . S
H264 C243 0.931 . S
H265 C247 0.931 . S
H266 C248 0.929 . S
H267 C249 0.930 . S
H268 C252 0.930 . S
H269 C253 0.931 . S
H270 C257 0.928 . S
H271 C256 0.929 . S
H272 C254 0.932 . S
C273 C274 1.386 . S
C273 C275 1.397 . S
C273 H297 0.931 . S
C274 C273 1.386 . S
C274 C278 1.397 . S
C275 C273 1.397 . S
C275 C276 1.384 . S
C275 H298 0.930 . S
C276 C275 1.384 . S
C276 C277 1.377 . S
C276 C279 1.481 . S
C277 C276 1.377 . S
C277 C278 1.389 . S
C277 H299 0.929 . S
C278 C274 1.397 . S
C278 C277 1.389 . S
C278 H300 0.931 . S
C279 C276 1.481 . S
C279 C280 1.387 . S
C279 C284 1.390 . S
C280 C279 1.387 . S
C280 C281 1.401 . S
C280 H301 0.930 . S
C281 C280 1.401 . S
C281 C282 1.376 . S
C281 C290 1.511 . S
C282 C281 1.376 . S
C282 C283 1.392 . S
C282 H303 0.931 . S
C283 C282 1.392 . S
C283 C284 1.361 . S
C283 C285 1.500 . S
C284 C279 1.390 . S
C284 C283 1.361 . S
C284 H302 0.931 . S
C285 C283 1.500 . S
C285 C286 1.371 . S
C285 C287 1.365 . S
C286 C285 1.371 . S
C286 C296 1.386 . S
C286 H304 0.931 . S
C287 C285 1.365 . S
C287 C288 1.409 . S
C287 H305 0.929 . S
C288 C287 1.409 . S
C288 C289 1.380 . S
C288 H306 0.930 . S
C289 C288 1.380 . S
C289 C296 1.357 . S
C290 C281 1.511 . S
C290 C291 1.341 . S
C290 C292 1.371 . S
C291 C290 1.341 . S
C291 C295 1.394 . S
C291 H307 0.930 . S
C292 C290 1.371 . S
C292 C293 1.392 . S
C292 H308 0.931 . S
C293 C292 1.392 . S
C293 C294 1.331 . S
C293 H311 0.932 . S
C294 C293 1.331 . S
C294 C295 1.336 . S
C295 C291 1.394 . S
C295 C294 1.336 . S
C295 H310 0.929 . S
C296 C286 1.386 . S
C296 C289 1.357 . S
C296 H309 0.928 . S
H297 C273 0.931 . S
H298 C275 0.930 . S
H299 C277 0.929 . S
H300 C278 0.931 . S
H301 C280 0.930 . S
H302 C284 0.931 . S
H303 C282 0.931 . S
H304 C286 0.931 . S
H305 C287 0.929 . S
H306 C288 0.930 . S
H307 C291 0.930 . S
H308 C292 0.931 . S
H309 C296 0.928 . S
H310 C295 0.929 . S
H311 C293 0.932 . S
Nd312 C314 2.836 . S
Nd312 O332 2.500 . S
Nd312 O333 2.492 . S
Nd312 O334 2.487 1_565 S
Nd312 O335 2.682 1_565 S
Nd312 O336 2.410 . S
Nd312 O341 2.414 1_455 S
Nd312 O343 2.424 1_565 S
Nd313 C323 2.836 . S
Nd313 O335 2.414 1_655 S
Nd313 O337 2.424 1_545 S
Nd313 O338 2.500 . S
Nd313 O339 2.492 . S
Nd313 O340 2.487 1_545 S
Nd313 O341 2.682 1_545 S
Nd313 O342 2.410 . S
C314 Nd312 2.836 . S
C314 C315 1.498 . S
C314 O332 1.258 . S
C314 O333 1.239 . S
C315 C314 1.498 . S
C315 C316 1.366 . S
C315 C320 1.407 . S
C316 C315 1.366 . S
C316 C317 1.392 . S
C316 H344 0.930 . S
C317 C316 1.392 . S
C317 C318 1.398 . S
C317 H345 0.929 . S
C318 C317 1.398 . S
C318 C319 1.352 . S
C319 C318 1.352 . S
C319 C320 1.384 . S
C319 H346 0.930 . S
C320 C315 1.407 . S
C320 C319 1.384 . S
C320 H347 0.929 . S
C321 O334 1.241 . S
C321 O335 1.273 . S
C322 O336 1.251 1_655 S
C322 O337 1.268 . S
C323 Nd313 2.836 . S
C323 C324 1.498 . S
C323 O338 1.258 . S
C323 O339 1.239 . S
C324 C323 1.498 . S
C324 C325 1.366 . S
C324 C329 1.407 . S
C325 C324 1.366 . S
C325 C326 1.392 . S
C325 H348 0.930 . S
C326 C325 1.392 . S
C326 C327 1.398 . S
C326 H349 0.929 . S
C327 C326 1.398 . S
C327 C328 1.352 . S
C328 C327 1.352 . S
C328 C329 1.384 . S
C328 H350 0.930 . S
C329 C324 1.407 . S
C329 C328 1.384 . S
C329 H351 0.929 . S
C330 O340 1.241 . S
C330 O341 1.273 . S
C331 O342 1.251 1_455 S
C331 O343 1.268 . S
O332 Nd312 2.500 . S
O332 C314 1.258 . S
O333 Nd312 2.492 . S
O333 C314 1.239 . S
O334 Nd312 2.487 1_545 S
O334 C321 1.241 . S
O335 Nd312 2.682 1_545 S
O335 Nd313 2.414 1_455 S
O335 C321 1.273 . S
O336 Nd312 2.410 . S
O336 C322 1.251 1_455 S
O337 Nd313 2.424 1_565 S
O337 C322 1.268 . S
O338 Nd313 2.500 . S
O338 C323 1.258 . S
O339 Nd313 2.492 . S
O339 C323 1.239 . S
O340 Nd313 2.487 1_565 S
O340 C330 1.241 . S
O341 Nd312 2.414 1_655 S
O341 Nd313 2.682 1_565 S
O341 C330 1.273 . S
O342 Nd313 2.410 . S
O342 C331 1.251 1_655 S
O343 Nd312 2.424 1_545 S
O343 C331 1.268 . S
H344 C316 0.930 . S
H345 C317 0.929 . S
H346 C319 0.930 . S
H347 C320 0.929 . S
H348 C325 0.930 . S
H349 C326 0.929 . S
H350 C328 0.930 . S
H351 C329 0.929 . S
Nd352 C354 2.836 . S
Nd352 O372 2.500 . S
Nd352 O373 2.492 . S
Nd352 O374 2.487 1_565 S
Nd352 O375 2.682 1_565 S
Nd352 O376 2.410 1_554 S
Nd352 O381 2.414 1_554 S
Nd352 O383 2.424 1_565 S
Nd353 C363 2.836 . S
Nd353 O375 2.414 1_556 S
Nd353 O377 2.424 1_545 S
Nd353 O378 2.500 . S
Nd353 O379 2.492 . S
Nd353 O380 2.487 1_545 S
Nd353 O381 2.682 1_545 S
Nd353 O382 2.410 1_556 S
C354 Nd352 2.836 . S
C354 C355 1.498 . S
C354 O372 1.258 . S
C354 O373 1.239 . S
C355 C354 1.498 . S
C355 C356 1.366 . S
C355 C360 1.407 . S
C356 C355 1.366 . S
C356 C357 1.392 . S
C356 H384 0.930 . S
C357 C356 1.392 . S
C357 C358 1.398 . S
C357 H385 0.929 . S
C358 C357 1.398 . S
C358 C359 1.352 . S
C359 C358 1.352 . S
C359 C360 1.384 . S
C359 H386 0.930 . S
C360 C355 1.407 . S
C360 C359 1.384 . S
C360 H387 0.929 . S
C361 O374 1.241 . S
C361 O375 1.273 . S
C362 O376 1.251 . S
C362 O377 1.268 . S
C363 Nd353 2.836 . S
C363 C364 1.498 . S
C363 O378 1.258 . S
C363 O379 1.239 . S
C364 C363 1.498 . S
C364 C365 1.366 . S
C364 C369 1.407 . S
C365 C364 1.366 . S
C365 C366 1.392 . S
C365 H388 0.930 . S
C366 C365 1.392 . S
C366 C367 1.398 . S
C366 H389 0.929 . S
C367 C366 1.398 . S
C367 C368 1.352 . S
C368 C367 1.352 . S
C368 C369 1.384 . S
C368 H390 0.930 . S
C369 C364 1.407 . S
C369 C368 1.384 . S
C369 H391 0.929 . S
C370 O380 1.241 . S
C370 O381 1.273 . S
C371 O382 1.251 . S
C371 O383 1.268 . S
O372 Nd352 2.500 . S
O372 C354 1.258 . S
O373 Nd352 2.492 . S
O373 C354 1.239 . S
O374 Nd352 2.487 1_545 S
O374 C361 1.241 . S
O375 Nd352 2.682 1_545 S
O375 Nd353 2.414 1_554 S
O375 C361 1.273 . S
O376 Nd352 2.410 1_556 S
O376 C362 1.251 . S
O377 Nd353 2.424 1_565 S
O377 C362 1.268 . S
O378 Nd353 2.500 . S
O378 C363 1.258 . S
O379 Nd353 2.492 . S
O379 C363 1.239 . S
O380 Nd353 2.487 1_565 S
O380 C370 1.241 . S
O381 Nd352 2.414 1_556 S
O381 Nd353 2.682 1_565 S
O381 C370 1.273 . S
O382 Nd353 2.410 1_554 S
O382 C371 1.251 . S
O383 Nd352 2.424 1_545 S
O383 C371 1.268 . S
H384 C356 0.930 . S
H385 C357 0.929 . S
H386 C359 0.930 . S
H387 C360 0.929 . S
H388 C365 0.930 . S
H389 C366 0.929 . S
H390 C368 0.930 . S
H391 C369 0.929 . S
Nd392 C394 2.836 . S
Nd392 O412 2.500 . S
Nd392 O413 2.492 . S
Nd392 O414 2.487 . S
Nd392 O415 2.682 . S
Nd392 O416 2.410 . S
Nd392 O421 2.414 . S
Nd392 O423 2.424 . S
Nd393 C403 2.836 . S
Nd393 O415 2.414 . S
Nd393 O417 2.424 . S
Nd393 O418 2.500 . S
Nd393 O419 2.492 . S
Nd393 O420 2.487 . S
Nd393 O421 2.682 . S
Nd393 O422 2.410 . S
C394 Nd392 2.836 . S
C394 C395 1.498 . S
C394 O412 1.258 . S
C394 O413 1.239 . S
C395 C394 1.498 . S
C395 C396 1.366 . S
C395 C400 1.407 . S
C396 C395 1.366 . S
C396 C397 1.392 . S
C396 H424 0.930 . S
C397 C396 1.392 . S
C397 C398 1.398 . S
C397 H425 0.929 . S
C398 C397 1.398 . S
C398 C399 1.352 . S
C399 C398 1.352 . S
C399 C400 1.384 . S
C399 H426 0.930 . S
C400 C395 1.407 . S
C400 C399 1.384 . S
C400 H427 0.929 . S
C401 O414 1.241 . S
C401 O415 1.273 . S
C402 O416 1.251 . S
C402 O417 1.268 . S
C403 Nd393 2.836 . S
C403 C404 1.498 . S
C403 O418 1.258 . S
C403 O419 1.239 . S
C404 C403 1.498 . S
C404 C405 1.366 . S
C404 C409 1.407 . S
C405 C404 1.366 . S
C405 C406 1.392 . S
C405 H428 0.930 . S
C406 C405 1.392 . S
C406 C407 1.398 . S
C406 H429 0.929 . S
C407 C406 1.398 . S
C407 C408 1.352 . S
C408 C407 1.352 . S
C408 C409 1.384 . S
C408 H430 0.930 . S
C409 C404 1.407 . S
C409 C408 1.384 . S
C409 H431 0.929 . S
C410 O420 1.241 . S
C410 O421 1.273 . S
C411 O422 1.251 . S
C411 O423 1.268 . S
O412 Nd392 2.500 . S
O412 C394 1.258 . S
O413 Nd392 2.492 . S
O413 C394 1.239 . S
O414 Nd392 2.487 . S
O414 C401 1.241 . S
O415 Nd392 2.682 . S
O415 Nd393 2.414 . S
O415 C401 1.273 . S
O416 Nd392 2.410 . S
O416 C402 1.251 . S
O417 Nd393 2.424 . S
O417 C402 1.268 . S
O418 Nd393 2.500 . S
O418 C403 1.258 . S
O419 Nd393 2.492 . S
O419 C403 1.239 . S
O420 Nd393 2.487 . S
O420 C410 1.241 . S
O421 Nd392 2.414 . S
O421 Nd393 2.682 . S
O421 C410 1.273 . S
O422 Nd393 2.410 . S
O422 C411 1.251 . S
O423 Nd392 2.424 . S
O423 C411 1.268 . S
H424 C396 0.930 . S
H425 C397 0.929 . S
H426 C399 0.930 . S
H427 C400 0.929 . S
H428 C405 0.930 . S
H429 C406 0.929 . S
H430 C408 0.930 . S
H431 C409 0.929 . S
Nd432 C434 2.836 . S
Nd432 O452 2.500 . S
Nd432 O453 2.492 . S
Nd432 O454 2.487 1_655 S
Nd432 O455 2.682 1_655 S
Nd432 O456 2.410 . S
Nd432 O461 2.414 1_554 S
Nd432 O463 2.424 1_655 S
Nd433 C443 2.836 . S
Nd433 O455 2.414 1_556 S
Nd433 O457 2.424 1_455 S
Nd433 O458 2.500 . S
Nd433 O459 2.492 . S
Nd433 O460 2.487 1_455 S
Nd433 O461 2.682 1_455 S
Nd433 O462 2.410 . S
C434 Nd432 2.836 . S
C434 C435 1.498 . S
C434 O452 1.258 . S
C434 O453 1.239 . S
C435 C434 1.498 . S
C435 C436 1.366 . S
C435 C440 1.407 . S
C436 C435 1.366 . S
C436 C437 1.392 . S
C436 H464 0.930 . S
C437 C436 1.392 . S
C437 C438 1.398 . S
C437 H465 0.929 . S
C438 C437 1.398 . S
C438 C439 1.352 . S
C439 C438 1.352 . S
C439 C440 1.384 . S
C439 H466 0.930 . S
C440 C435 1.407 . S
C440 C439 1.384 . S
C440 H467 0.929 . S
C441 O454 1.241 . S
C441 O455 1.273 . S
C442 O456 1.251 1_556 S
C442 O457 1.268 . S
C443 Nd433 2.836 . S
C443 C444 1.498 . S
C443 O458 1.258 . S
C443 O459 1.239 . S
C444 C443 1.498 . S
C444 C445 1.366 . S
C444 C449 1.407 . S
C445 C444 1.366 . S
C445 C446 1.392 . S
C445 H468 0.930 . S
C446 C445 1.392 . S
C446 C447 1.398 . S
C446 H469 0.929 . S
C447 C446 1.398 . S
C447 C448 1.352 . S
C448 C447 1.352 . S
C448 C449 1.384 . S
C448 H470 0.930 . S
C449 C444 1.407 . S
C449 C448 1.384 . S
C449 H471 0.929 . S
C450 O460 1.241 . S
C450 O461 1.273 . S
C451 O462 1.251 1_554 S
C451 O463 1.268 . S
O452 Nd432 2.500 . S
O452 C434 1.258 . S
O453 Nd432 2.492 . S
O453 C434 1.239 . S
O454 Nd432 2.487 1_455 S
O454 C441 1.241 . S
O455 Nd432 2.682 1_455 S
O455 Nd433 2.414 1_554 S
O455 C441 1.273 . S
O456 Nd432 2.410 . S
O456 C442 1.251 1_554 S
O457 Nd433 2.424 1_655 S
O457 C442 1.268 . S
O458 Nd433 2.500 . S
O458 C443 1.258 . S
O459 Nd433 2.492 . S
O459 C443 1.239 . S
O460 Nd433 2.487 1_655 S
O460 C450 1.241 . S
O461 Nd432 2.414 1_556 S
O461 Nd433 2.682 1_655 S
O461 C450 1.273 . S
O462 Nd433 2.410 . S
O462 C451 1.251 1_556 S
O463 Nd432 2.424 1_455 S
O463 C451 1.268 . S
H464 C436 0.930 . S
H465 C437 0.929 . S
H466 C439 0.930 . S
H467 C440 0.929 . S
H468 C445 0.930 . S
H469 C446 0.929 . S
H470 C448 0.930 . S
H471 C449 0.929 . S
C472 C473 1.363 . S
C472 C478 1.379 . S
C472 N480 1.356 . S
C473 C472 1.363 . S
C473 C479 1.363 . S
C474 C475 1.363 . S
C474 C479 1.379 . S
C474 N481 1.356 . S
C475 C474 1.363 . S
C475 C478 1.363 . S
N476 C478 1.356 . S
N476 H488 0.984 1_455 S
N476 H489 0.985 . S
N477 C479 1.356 . S
N477 H482 0.984 . S
N477 H483 0.985 . S
C478 C472 1.379 . S
C478 C475 1.363 . S
C478 N476 1.356 . S
C479 C473 1.363 . S
C479 C474 1.379 . S
C479 N477 1.356 . S
N480 C472 1.356 . S
N480 H486 0.984 . S
N480 H487 0.984 . S
N481 C474 1.356 . S
N481 H484 0.984 . S
N481 H485 0.985 . S
H482 N477 0.984 . S
H483 N477 0.985 . S
H484 N481 0.984 . S
H485 N481 0.985 . S
H486 N480 0.984 . S
H487 N480 0.984 . S
H488 N476 0.984 1_655 S
H489 N476 0.985 . S
C490 C491 1.363 . S
C490 C496 1.379 . S
C490 N498 1.356 . S
C491 C490 1.363 . S
C491 C497 1.363 . S
C492 C493 1.363 . S
C492 C497 1.379 . S
C492 N499 1.356 . S
C493 C492 1.363 . S
C493 C496 1.363 . S
N494 C496 1.356 . S
N494 H506 0.984 . S
N494 H507 0.985 . S
N495 C497 1.356 . S
N495 H500 0.984 . S
N495 H501 0.985 . S
C496 C490 1.379 . S
C496 C493 1.363 . S
C496 N494 1.356 . S
C497 C491 1.363 . S
C497 C492 1.379 . S
C497 N495 1.356 . S
N498 C490 1.356 . S
N498 H504 0.984 . S
N498 H505 0.984 . S
N499 C492 1.356 . S
N499 H502 0.984 . S
N499 H503 0.985 1_556 S
H500 N495 0.984 . S
H501 N495 0.985 . S
H502 N499 0.984 . S
H503 N499 0.985 1_554 S
H504 N498 0.984 . S
H505 N498 0.984 . S
H506 N494 0.984 . S
H507 N494 0.985 . S
C508 C509 1.363 . S
C508 C514 1.379 . S
C508 N516 1.356 . S
C509 C508 1.363 . S
C509 C515 1.363 . S
C510 C511 1.363 . S
C510 C515 1.379 . S
C510 N517 1.356 . S
C511 C510 1.363 . S
C511 C514 1.363 . S
N512 C514 1.356 . S
N512 H524 0.984 . S
N512 H525 0.985 . S
N513 C515 1.356 . S
N513 H518 0.984 . S
N513 H519 0.985 . S
C514 C508 1.379 . S
C514 C511 1.363 . S
C514 N512 1.356 . S
C515 C509 1.363 . S
C515 C510 1.379 . S
C515 N513 1.356 . S
N516 C508 1.356 . S
N516 H522 0.984 . S
N516 H523 0.984 . S
N517 C510 1.356 . S
N517 H520 0.984 . S
N517 H521 0.985 . S
H518 N513 0.984 . S
H519 N513 0.985 . S
H520 N517 0.984 . S
H521 N517 0.985 . S
H522 N516 0.984 . S
H523 N516 0.984 . S
H524 N512 0.984 . S
H525 N512 0.985 . S
C526 C527 1.363 . S
C526 C532 1.379 . S
C526 N534 1.356 . S
C527 C526 1.363 . S
C527 C533 1.363 . S
C528 C529 1.363 . S
C528 C533 1.379 . S
C528 N535 1.356 . S
C529 C528 1.363 . S
C529 C532 1.363 . S
N530 C532 1.356 . S
N530 H542 0.984 . S
N530 H543 0.985 . S
N531 C533 1.356 . S
N531 H536 0.984 . S
N531 H537 0.985 . S
C532 C526 1.379 . S
C532 C529 1.363 . S
C532 N530 1.356 . S
C533 C527 1.363 . S
C533 C528 1.379 . S
C533 N531 1.356 . S
N534 C526 1.356 . S
N534 H540 0.984 . S
N534 H541 0.984 . S
N535 C528 1.356 . S
N535 H538 0.984 . S
N535 H539 0.985 . S
H536 N531 0.984 . S
H537 N531 0.985 . S
H538 N535 0.984 . S
H539 N535 0.985 . S
H540 N534 0.984 . S
H541 N534 0.984 . S
H542 N530 0.984 . S
H543 N530 0.985 . S
C544 C545 1.363 . S
C544 C550 1.379 . S
C544 N552 1.345 1_554 S
C545 C544 1.363 . S
C545 C551 1.363 . S
C546 C547 1.363 . S
C546 C551 1.379 . S
C546 N553 1.356 . S
C547 C546 1.363 . S
C547 C550 1.363 . S
N548 C550 1.356 1_556 S
N548 H560 0.984 . S
N548 H561 0.985 . S
N549 C551 1.356 . S
N549 H554 0.984 . S
N549 H555 0.985 . S
C550 C544 1.379 . S
C550 C547 1.363 . S
C550 N548 1.356 1_554 S
C551 C545 1.363 . S
C551 C546 1.379 . S
C551 N549 1.356 . S
N552 C544 1.345 1_556 S
N552 H558 1.013 . S
N552 H559 0.968 1_556 S
N553 C546 1.356 . S
N553 H556 0.984 . S
N553 H557 0.985 . S
H554 N549 0.984 . S
H555 N549 0.985 . S
H556 N553 0.984 . S
H557 N553 0.985 . S
H558 N552 1.013 . S
H559 N552 0.968 1_554 S
H560 N548 0.984 . S
H561 N548 0.985 . S
C562 C563 1.363 . S
C562 C568 1.379 . S
C562 N570 1.356 . S
C563 C562 1.363 . S
C563 C569 1.363 . S
C564 C565 1.363 . S
C564 C569 1.379 . S
C564 N571 1.356 . S
C565 C564 1.363 . S
C565 C568 1.363 . S
N566 C568 1.356 . S
N566 H578 0.984 . S
N566 H579 0.985 . S
N567 C569 1.356 . S
N567 H572 0.984 . S
N567 H573 0.985 . S
C568 C562 1.379 . S
C568 C565 1.363 . S
C568 N566 1.356 . S
C569 C563 1.363 . S
C569 C564 1.379 . S
C569 N567 1.356 . S
N570 C562 1.356 . S
N570 H576 0.984 . S
N570 H577 0.984 . S
N571 C564 1.356 . S
N571 H574 0.984 . S
N571 H575 0.985 . S
H572 N567 0.984 . S
H573 N567 0.985 . S
H574 N571 0.984 . S
H575 N571 0.985 . S
H576 N570 0.984 . S
H577 N570 0.984 . S
H578 N566 0.984 . S
H579 N566 0.985 . S
C580 C581 1.363 . S
C580 C586 1.379 . S
C580 N588 1.356 . S
C581 C580 1.363 . S
C581 C587 1.363 . S
C582 C583 1.363 . S
C582 C587 1.379 . S
C582 N589 1.356 . S
C583 C582 1.363 . S
C583 C586 1.363 . S
N584 C586 1.356 . S
N584 H596 0.984 . S
N584 H597 0.985 . S
N585 C587 1.356 . S
N585 H590 0.984 . S
N585 H591 0.985 . S
C586 C580 1.379 . S
C586 C583 1.363 . S
C586 N584 1.356 . S
C587 C581 1.363 . S
C587 C582 1.379 . S
C587 N585 1.356 . S
N588 C580 1.356 . S
N588 H594 0.984 . S
N588 H595 0.984 . S
N589 C582 1.356 . S
N589 H592 0.984 . S
N589 H593 0.985 . S
H590 N585 0.984 . S
H591 N585 0.985 . S
H592 N589 0.984 . S
H593 N589 0.985 . S
H594 N588 0.984 . S
H595 N588 0.984 . S
H596 N584 0.984 . S
H597 N584 0.985 . S
C598 C599 1.363 . S
C598 C604 1.379 . S
C598 N606 1.356 . S
C599 C598 1.363 . S
C599 C605 1.363 . S
C600 C601 1.363 . S
C600 C605 1.379 . S
C600 N607 1.356 . S
C601 C600 1.363 . S
C601 C604 1.363 . S
N602 C604 1.356 . S
N602 H614 0.984 . S
N602 H615 0.985 . S
N603 C605 1.356 . S
N603 H608 0.984 . S
N603 H609 0.985 . S
C604 C598 1.379 . S
C604 C601 1.363 . S
C604 N602 1.356 . S
C605 C599 1.363 . S
C605 C600 1.379 . S
C605 N603 1.356 . S
N606 C598 1.356 . S
N606 H612 0.984 . S
N606 H613 0.984 . S
N607 C600 1.356 . S
N607 H610 0.984 . S
N607 H611 0.985 . S
H608 N603 0.984 . S
H609 N603 0.985 . S
H610 N607 0.984 . S
H611 N607 0.985 . S
H612 N606 0.984 . S
H613 N606 0.984 . S
H614 N602 0.984 . S
H615 N602 0.985 . S
C616 C617 1.363 . S
C616 C622 1.379 . S
C616 N624 1.362 . S
C617 C616 1.363 . S
C617 C623 1.363 . S
C618 C619 1.363 . S
C618 C623 1.379 . S
C618 N625 1.356 . S
C619 C618 1.363 . S
C619 C622 1.363 . S
N620 C622 1.356 1_556 S
N620 H632 0.984 . S
N620 H633 0.985 . S
N621 C623 1.356 . S
N621 H626 0.984 . S
N621 H627 0.985 . S
C622 C616 1.379 . S
C622 C619 1.363 . S
C622 N620 1.356 1_554 S
C623 C617 1.363 . S
C623 C618 1.379 . S
C623 N621 1.356 . S
N624 C616 1.362 . S
N624 H630 0.973 1_554 S
N624 H631 0.990 . S
N625 C618 1.356 . S
N625 H628 0.984 . S
N625 H629 0.985 . S
H626 N621 0.984 . S
H627 N621 0.985 . S
H628 N625 0.984 . S
H629 N625 0.985 . S
H630 N624 0.973 1_556 S
H631 N624 0.990 . S
H632 N620 0.984 . S
H633 N620 0.985 . S
C634 C635 1.363 . S
C634 C640 1.379 . S
C634 N642 1.356 . S
C635 C634 1.363 . S
C635 C641 1.363 . S
C636 C637 1.363 . S
C636 C641 1.379 . S
C636 N643 1.356 . S
C637 C636 1.363 . S
C637 C640 1.363 . S
N638 C640 1.356 . S
N638 H650 0.984 . S
N638 H651 0.985 . S
N639 C641 1.356 . S
N639 H644 0.984 . S
N639 H645 0.985 . S
C640 C634 1.379 . S
C640 C637 1.363 . S
C640 N638 1.356 . S
C641 C635 1.363 . S
C641 C636 1.379 . S
C641 N639 1.356 . S
N642 C634 1.356 . S
N642 H648 0.984 . S
N642 H649 0.984 . S
N643 C636 1.356 . S
N643 H646 0.984 . S
N643 H647 0.985 . S
H644 N639 0.984 . S
H645 N639 0.985 . S
H646 N643 0.984 . S
H647 N643 0.985 . S
H648 N642 0.984 . S
H649 N642 0.984 . S
H650 N638 0.984 . S
H651 N638 0.985 . S
C652 C653 1.363 . S
C652 C658 1.379 . S
C652 N660 1.356 . S
C653 C652 1.363 . S
C653 C659 1.363 . S
C654 C655 1.363 . S
C654 C659 1.379 . S
C654 N661 1.356 . S
C655 C654 1.363 . S
C655 C658 1.363 . S
N656 C658 1.356 . S
N656 H668 0.984 . S
N656 H669 0.985 . S
N657 C659 1.356 . S
N657 H662 0.984 . S
N657 H663 0.985 . S
C658 C652 1.379 . S
C658 C655 1.363 . S
C658 N656 1.356 . S
C659 C653 1.363 . S
C659 C654 1.379 . S
C659 N657 1.356 . S
N660 C652 1.356 . S
N660 H666 0.984 . S
N660 H667 0.984 . S
N661 C654 1.356 . S
N661 H664 0.984 1_655 S
N661 H665 0.985 . S
H662 N657 0.984 . S
H663 N657 0.985 . S
H664 N661 0.984 1_455 S
H665 N661 0.985 . S
H666 N660 0.984 . S
H667 N660 0.984 . S
H668 N656 0.984 . S
H669 N656 0.985 . S
C670 C671 1.363 . S
C670 C676 1.379 . S
C670 N678 1.356 . S
C671 C670 1.363 . S
C671 C677 1.363 . S
C672 C673 1.363 . S
C672 C677 1.379 . S
C672 N679 1.356 . S
C673 C672 1.363 . S
C673 C676 1.363 . S
N674 C676 1.356 . S
N674 H686 0.984 . S
N674 H687 0.985 . S
N675 C677 1.356 . S
N675 H680 0.984 . S
N675 H681 0.985 . S
C676 C670 1.379 . S
C676 C673 1.363 . S
C676 N674 1.356 . S
C677 C671 1.363 . S
C677 C672 1.379 . S
C677 N675 1.356 . S
N678 C670 1.356 . S
N678 H684 0.984 . S
N678 H685 0.984 . S
N679 C672 1.356 . S
N679 H682 0.984 . S
N679 H683 0.985 . S
H680 N675 0.984 . S
H681 N675 0.985 . S
H682 N679 0.984 . S
H683 N679 0.985 . S
H684 N678 0.984 . S
H685 N678 0.984 . S
H686 N674 0.984 . S
H687 N674 0.985 . S
C688 C689 1.363 . S
C688 C694 1.379 . S
C688 N696 1.356 . S
C689 C688 1.363 . S
C689 C695 1.363 . S
C690 C691 1.363 . S
C690 C695 1.379 . S
C690 N697 1.356 . S
C691 C690 1.363 . S
C691 C694 1.363 . S
N692 C694 1.356 . S
N692 H704 0.984 1_565 S
N692 H705 0.985 . S
N693 C695 1.356 . S
N693 H698 0.984 . S
N693 H699 0.985 . S
C694 C688 1.379 . S
C694 C691 1.363 . S
C694 N692 1.356 . S
C695 C689 1.363 . S
C695 C690 1.379 . S
C695 N693 1.356 . S
N696 C688 1.356 . S
N696 H702 0.984 . S
N696 H703 0.984 . S
N697 C690 1.356 . S
N697 H700 0.980 1_655 S
N697 H701 0.985 1_655 S
H698 N693 0.984 . S
H699 N693 0.985 . S
H700 N697 0.980 1_455 S
H701 N697 0.985 1_455 S
H702 N696 0.984 . S
H703 N696 0.984 . S
H704 N692 0.984 1_545 S
H705 N692 0.985 . S
C706 C707 1.363 . S
C706 C712 1.379 . S
C706 N714 1.356 . S
C707 C706 1.363 . S
C707 C713 1.363 . S
C708 C709 1.363 . S
C708 C713 1.379 . S
C708 N715 1.356 . S
C709 C708 1.363 . S
C709 C712 1.363 . S
N710 C712 1.356 . S
N710 H722 0.984 1_554 S
N710 H723 0.985 . S
N711 C713 1.356 . S
N711 H716 0.984 . S
N711 H717 0.985 . S
C712 C706 1.379 . S
C712 C709 1.363 . S
C712 N710 1.356 . S
C713 C707 1.363 . S
C713 C708 1.379 . S
C713 N711 1.356 . S
N714 C706 1.356 . S
N714 H720 0.984 . S
N714 H721 0.984 . S
N715 C708 1.356 . S
N715 H718 0.984 . S
N715 H719 0.985 . S
H716 N711 0.984 . S
H717 N711 0.985 . S
H718 N715 0.984 . S
H719 N715 0.985 . S
H720 N714 0.984 . S
H721 N714 0.984 . S
H722 N710 0.984 1_556 S
H723 N710 0.985 . S
C724 C725 1.363 . S
C724 C730 1.379 . S
C724 N732 1.356 . S
C725 C724 1.363 . S
C725 C731 1.363 . S
C726 C727 1.363 . S
C726 C731 1.379 . S
C726 N733 1.356 . S
C727 C726 1.363 . S
C727 C730 1.363 . S
N728 C730 1.356 . S
N728 H740 0.984 . S
N728 H741 0.985 . S
N729 C731 1.356 . S
N729 H734 0.984 . S
N729 H735 0.985 . S
C730 C724 1.379 . S
C730 C727 1.363 . S
C730 N728 1.356 . S
C731 C725 1.363 . S
C731 C726 1.379 . S
C731 N729 1.356 . S
N732 C724 1.356 . S
N732 H738 0.984 . S
N732 H739 0.984 . S
N733 C726 1.356 . S
N733 H736 0.984 . S
N733 H737 0.985 . S
H734 N729 0.984 . S
H735 N729 0.985 . S
H736 N733 0.984 . S
H737 N733 0.985 . S
H738 N732 0.984 . S
H739 N732 0.984 . S
H740 N728 0.984 . S
H741 N728 0.985 . S
C742 C743 1.363 . S
C742 C748 1.379 . S
C742 N750 1.356 . S
C743 C742 1.363 . S
C743 C749 1.363 . S
C744 C745 1.363 . S
C744 C749 1.379 . S
C744 N751 1.356 . S
C745 C744 1.363 . S
C745 C748 1.363 . S
N746 C748 1.356 . S
N746 H758 0.984 . S
N746 H759 0.985 . S
N747 C749 1.356 . S
N747 H752 0.984 . S
N747 H753 0.985 . S
C748 C742 1.379 . S
C748 C745 1.363 . S
C748 N746 1.356 . S
C749 C743 1.363 . S
C749 C744 1.379 . S
C749 N747 1.356 . S
N750 C742 1.356 . S
N750 H756 0.984 . S
N750 H757 0.984 . S
N751 C744 1.356 . S
N751 H754 0.984 . S
N751 H755 0.985 . S
H752 N747 0.984 . S
H753 N747 0.985 . S
H754 N751 0.984 . S
H755 N751 0.985 . S
H756 N750 0.984 . S
H757 N750 0.984 . S
H758 N746 0.984 . S
H759 N746 0.985 . S
C760 C761 1.363 . S
C760 C766 1.379 . S
C760 N768 1.356 . S
C761 C760 1.363 . S
C761 C767 1.363 . S
C762 C763 1.363 . S
C762 C767 1.379 . S
C762 N769 1.356 . S
C763 C762 1.363 . S
C763 C766 1.363 . S
N764 C766 1.356 . S
N764 H776 0.984 . S
N764 H777 0.985 . S
N765 C767 1.356 . S
N765 H770 0.984 . S
N765 H771 0.985 . S
C766 C760 1.379 . S
C766 C763 1.363 . S
C766 N764 1.356 . S
C767 C761 1.363 . S
C767 C762 1.379 . S
C767 N765 1.356 . S
N768 C760 1.356 . S
N768 H774 0.984 . S
N768 H775 0.984 . S
N769 C762 1.356 . S
N769 H772 0.984 . S
N769 H773 0.985 1_565 S
H770 N765 0.984 . S
H771 N765 0.985 . S
H772 N769 0.984 . S
H773 N769 0.985 1_545 S
H774 N768 0.984 . S
H775 N768 0.984 . S
H776 N764 0.984 . S
H777 N764 0.985 . S
C778 C779 1.363 . S
C778 C784 1.379 . S
C778 N786 1.356 . S
C779 C778 1.363 . S
C779 C785 1.363 . S
C780 C781 1.363 . S
C780 C785 1.379 . S
C780 N787 1.356 . S
C781 C780 1.363 . S
C781 C784 1.363 . S
N782 C784 1.356 . S
N782 H794 0.984 . S
N782 H795 0.985 . S
N783 C785 1.356 . S
N783 H788 0.984 . S
N783 H789 0.985 . S
C784 C778 1.379 . S
C784 C781 1.363 . S
C784 N782 1.356 . S
C785 C779 1.363 . S
C785 C780 1.379 . S
C785 N783 1.356 . S
N786 C778 1.356 . S
N786 H792 0.984 . S
N786 H793 0.984 . S
N787 C780 1.356 . S
N787 H790 0.984 . S
N787 H791 0.985 . S
H788 N783 0.984 . S
H789 N783 0.985 . S
H790 N787 0.984 . S
H791 N787 0.985 . S
H792 N786 0.984 . S
H793 N786 0.984 . S
H794 N782 0.984 . S
H795 N782 0.985 . S
C796 C797 1.363 . S
C796 C802 1.379 . S
C796 N804 1.356 . S
C797 C796 1.363 . S
C797 C803 1.363 . S
C798 C799 1.363 . S
C798 C803 1.379 . S
C798 N805 1.356 . S
C799 C798 1.363 . S
C799 C802 1.363 . S
N800 C802 1.356 1_556 S
N800 H812 0.984 . S
N800 H813 0.985 . S
N801 C803 1.356 . S
N801 H806 0.984 . S
N801 H807 0.985 . S
C802 C796 1.379 . S
C802 C799 1.363 . S
C802 N800 1.356 1_554 S
C803 C797 1.363 . S
C803 C798 1.379 . S
C803 N801 1.356 . S
N804 C796 1.356 . S
N804 H810 0.984 . S
N804 H811 0.984 . S
N805 C798 1.356 . S
N805 H808 0.984 . S
N805 H809 0.985 . S
H806 N801 0.984 . S
H807 N801 0.985 . S
H808 N805 0.984 . S
H809 N805 0.985 . S
H810 N804 0.984 . S
H811 N804 0.984 . S
H812 N800 0.984 . S
H813 N800 0.985 . S
C814 C815 1.363 . S
C814 C820 1.379 . S
C814 N822 1.356 . S
C815 C814 1.363 . S
C815 C821 1.363 . S
C816 C817 1.363 . S
C816 C821 1.379 . S
C816 N823 1.356 . S
C817 C816 1.363 . S
C817 C820 1.363 . S
N818 C820 1.356 . S
N818 H830 0.984 . S
N818 H831 0.985 . S
N819 C821 1.356 . S
N819 H824 0.984 . S
N819 H825 0.985 . S
C820 C814 1.379 . S
C820 C817 1.363 . S
C820 N818 1.356 . S
C821 C815 1.363 . S
C821 C816 1.379 . S
C821 N819 1.356 . S
N822 C814 1.356 . S
N822 H828 0.984 . S
N822 H829 0.984 . S
N823 C816 1.356 . S
N823 H826 0.984 . S
N823 H827 0.985 . S
H824 N819 0.984 . S
H825 N819 0.985 . S
H826 N823 0.984 . S
H827 N823 0.985 . S
H828 N822 0.984 . S
H829 N822 0.984 . S
H830 N818 0.984 . S
H831 N818 0.985 . S
C832 C833 1.363 . S
C832 C838 1.379 . S
C832 N840 1.356 . S
C833 C832 1.363 . S
C833 C839 1.363 . S
C834 C835 1.363 . S
C834 C839 1.379 . S
C834 N841 1.356 1_556 S
C835 C834 1.363 . S
C835 C838 1.363 . S
N836 C838 1.356 . S
N836 H848 0.984 . S
N836 H849 0.985 . S
N837 C839 1.356 1_554 S
N837 H842 0.984 1_554 S
N837 H843 0.985 . S
C838 C832 1.379 . S
C838 C835 1.363 . S
C838 N836 1.356 . S
C839 C833 1.363 . S
C839 C834 1.379 . S
C839 N837 1.356 1_556 S
N840 C832 1.356 . S
N840 H846 0.984 . S
N840 H847 0.984 . S
N841 C834 1.356 1_554 S
N841 H844 0.984 . S
N841 H845 0.985 . S
H842 N837 0.984 1_556 S
H843 N837 0.985 . S
H844 N841 0.984 . S
H845 N841 0.985 . S
H846 N840 0.984 . S
H847 N840 0.984 . S
H848 N836 0.984 . S
H849 N836 0.985 . S
C850 C851 1.363 . S
C850 C856 1.379 . S
C850 N858 1.356 . S
C851 C850 1.363 . S
C851 C857 1.363 . S
C852 C853 1.363 . S
C852 C857 1.379 . S
C852 N859 1.356 . S
C853 C852 1.363 . S
C853 C856 1.363 . S
N854 C856 1.356 . S
N854 H866 0.984 . S
N854 H867 0.985 . S
N855 C857 1.356 . S
N855 H860 0.984 . S
N855 H861 0.985 . S
C856 C850 1.379 . S
C856 C853 1.363 . S
C856 N854 1.356 . S
C857 C851 1.363 . S
C857 C852 1.379 . S
C857 N855 1.356 . S
N858 C850 1.356 . S
N858 H864 0.984 . S
N858 H865 0.984 . S
N859 C852 1.356 . S
N859 H862 0.984 . S
N859 H863 0.985 . S
H860 N855 0.984 . S
H861 N855 0.985 . S
H862 N859 0.984 . S
H863 N859 0.985 . S
H864 N858 0.984 . S
H865 N858 0.984 . S
H866 N854 0.984 . S
H867 N854 0.985 . S
C868 C869 1.363 . S
C868 C874 1.379 . S
C868 N876 1.356 . S
C869 C868 1.363 . S
C869 C875 1.363 . S
C870 C871 1.363 . S
C870 C875 1.379 . S
C870 N877 1.356 . S
C871 C870 1.363 . S
C871 C874 1.363 . S
N872 C874 1.356 . S
N872 H884 0.984 . S
N872 H885 0.985 . S
N873 C875 1.356 . S
N873 H878 0.984 . S
N873 H879 0.985 . S
C874 C868 1.379 . S
C874 C871 1.363 . S
C874 N872 1.356 . S
C875 C869 1.363 . S
C875 C870 1.379 . S
C875 N873 1.356 . S
N876 C868 1.356 . S
N876 H882 0.984 . S
N876 H883 0.984 . S
N877 C870 1.356 . S
N877 H880 0.984 . S
N877 H881 0.985 . S
H878 N873 0.984 . S
H879 N873 0.985 . S
H880 N877 0.984 . S
H881 N877 0.985 . S
H882 N876 0.984 . S
H883 N876 0.984 . S
H884 N872 0.984 . S
H885 N872 0.985 . S
C886 C887 1.363 . S
C886 C892 1.379 . S
C886 N894 1.356 . S
C887 C886 1.363 . S
C887 C893 1.363 . S
C888 C889 1.363 . S
C888 C893 1.379 . S
C888 N895 1.356 . S
C889 C888 1.363 . S
C889 C892 1.363 . S
N890 C892 1.356 . S
N890 H902 0.984 . S
N890 H903 0.985 . S
N891 C893 1.356 . S
N891 H896 0.984 . S
N891 H897 0.985 . S
C892 C886 1.379 . S
C892 C889 1.363 . S
C892 N890 1.356 . S
C893 C887 1.363 . S
C893 C888 1.379 . S
C893 N891 1.356 . S
N894 C886 1.356 . S
N894 H900 0.984 . S
N894 H901 0.984 . S
N895 C888 1.356 . S
N895 H898 0.984 . S
N895 H899 0.985 . S
H896 N891 0.984 . S
H897 N891 0.985 . S
H898 N895 0.984 . S
H899 N895 0.985 . S
H900 N894 0.984 . S
H901 N894 0.984 . S
H902 N890 0.984 . S
H903 N890 0.985 . S
C473 C1 2.884 . S
C475 C331 2.856 . S
C491 C40 2.485 . S
C493 C362 2.646 . S
C511 C401 1.512 . S
C509 C99 1.506 . S
C527 C118 0.721 . S
C529 C438 0.720 . S
C547 C361 2.795 . S
C545 C16 2.882 . S
C565 C318 1.468 . S
C563 C60 1.438 . S
C583 C450 1.551 . S
C581 C79 1.601 . S
C601 C407 1.311 . S
C599 C138 1.349 . S
C617 C21 2.315 . S
C619 C451 2.320 . S
C637 C367 1.338 . S
C635 C94 1.339 . S
C653 C133 0.606 . S
C655 C330 0.668 . S
C671 C55 2.484 . S
C673 C402 2.554 . S
C691 C322 2.861 . S
C689 C157 2.887 . S
C707 C196 2.469 . S
C709 C371 2.645 . S
C725 C255 1.492 . S
C727 C410 1.509 . S
C743 C289 0.719 . S
C745 C447 0.719 . S
C761 C172 2.883 . S
C763 C370 2.793 . S
C781 C327 1.468 . S
C779 C216 1.427 . S
C799 C441 1.554 . S
C797 C235 1.598 . S
C817 C398 1.314 . S
C815 C294 1.334 . S
C833 C177 2.312 . S
C835 C442 2.320 . S
C853 C358 1.340 . S
C851 C250 1.341 . S
C871 C321 0.669 . S
C869 C274 0.604 . S
C887 C211 2.488 . S
C889 C411 2.550 . S
