# Generated by pormake.
# Topology ptr, (4,4)-cn, num edge types: 1
# Building blocks:
#     Node 0, Type 0, BuildingBlock: TATPOV_clean_sbu_0, # of connection points: 4
#     Node 1, Type 0, BuildingBlock: TATPOV_clean_sbu_0, # of connection points: 4
#     Node 2, Type 0, BuildingBlock: TATPOV_clean_sbu_0, # of connection points: 4
#     Node 3, Type 0, BuildingBlock: TATPOV_clean_sbu_0, # of connection points: 4
#     Node 4, Type 0, BuildingBlock: TATPOV_clean_sbu_0, # of connection points: 4
#     Node 5, Type 0, BuildingBlock: TATPOV_clean_sbu_0, # of connection points: 4
#     Node 6, Type 0, BuildingBlock: TATPOV_clean_sbu_0, # of connection points: 4
#     Node 7, Type 0, BuildingBlock: TATPOV_clean_sbu_0, # of connection points: 4
#     Node 8, Type 0, BuildingBlock: TATPOV_clean_sbu_0, # of connection points: 4
#     Node 9, Type 0, BuildingBlock: TATPOV_clean_sbu_0, # of connection points: 4
#     Node 10, Type 0, BuildingBlock: TATPOV_clean_sbu_0, # of connection points: 4
#     Node 11, Type 0, BuildingBlock: TATPOV_clean_sbu_0, # of connection points: 4
#     Node 12, Type 0, BuildingBlock: TATPOV_clean_sbu_0, # of connection points: 4
#     Node 13, Type 0, BuildingBlock: TATPOV_clean_sbu_0, # of connection points: 4
#     Node 14, Type 0, BuildingBlock: TATPOV_clean_sbu_0, # of connection points: 4
#     Node 15, Type 0, BuildingBlock: TATPOV_clean_sbu_0, # of connection points: 4
#     Node 16, Type 0, BuildingBlock: TATPOV_clean_sbu_0, # of connection points: 4
#     Node 17, Type 0, BuildingBlock: TATPOV_clean_sbu_0, # of connection points: 4
#     Node 18, Type 1, BuildingBlock: AZAVOO_clean_linker_0, # of connection points: 4
#     Node 19, Type 1, BuildingBlock: AZAVOO_clean_linker_0, # of connection points: 4
#     Node 20, Type 1, BuildingBlock: AZAVOO_clean_linker_0, # of connection points: 4
#     Node 21, Type 1, BuildingBlock: AZAVOO_clean_linker_0, # of connection points: 4
#     Node 22, Type 1, BuildingBlock: AZAVOO_clean_linker_0, # of connection points: 4
#     Node 23, Type 1, BuildingBlock: AZAVOO_clean_linker_0, # of connection points: 4
#     Node 24, Type 1, BuildingBlock: AZAVOO_clean_linker_0, # of connection points: 4
#     Node 25, Type 1, BuildingBlock: AZAVOO_clean_linker_0, # of connection points: 4
#     Node 26, Type 1, BuildingBlock: AZAVOO_clean_linker_0, # of connection points: 4
#     Node 27, Type 1, BuildingBlock: AZAVOO_clean_linker_0, # of connection points: 4
#     Node 28, Type 1, BuildingBlock: AZAVOO_clean_linker_0, # of connection points: 4
#     Node 29, Type 1, BuildingBlock: AZAVOO_clean_linker_0, # of connection points: 4
#     Node 30, Type 1, BuildingBlock: AZAVOO_clean_linker_0, # of connection points: 4
#     Node 31, Type 1, BuildingBlock: AZAVOO_clean_linker_0, # of connection points: 4
#     Node 32, Type 1, BuildingBlock: AZAVOO_clean_linker_0, # of connection points: 4
#     Node 33, Type 1, BuildingBlock: AZAVOO_clean_linker_0, # of connection points: 4
#     Node 34, Type 1, BuildingBlock: AZAVOO_clean_linker_0, # of connection points: 4
#     Node 35, Type 1, BuildingBlock: AZAVOO_clean_linker_0, # of connection points: 4
#     Edge 36, Type (0, 1), BuildingBlock: ZUJKAS_clean_linker_0, # of connection points: 2
#     Edge 37, Type (0, 1), BuildingBlock: ZUJKAS_clean_linker_0, # of connection points: 2
#     Edge 38, Type (0, 1), BuildingBlock: ZUJKAS_clean_linker_0, # of connection points: 2
#     Edge 39, Type (0, 1), BuildingBlock: ZUJKAS_clean_linker_0, # of connection points: 2
#     Edge 40, Type (0, 1), BuildingBlock: ZUJKAS_clean_linker_0, # of connection points: 2
#     Edge 41, Type (0, 1), BuildingBlock: ZUJKAS_clean_linker_0, # of connection points: 2
#     Edge 42, Type (0, 1), BuildingBlock: ZUJKAS_clean_linker_0, # of connection points: 2
#     Edge 43, Type (0, 1), BuildingBlock: ZUJKAS_clean_linker_0, # of connection points: 2
#     Edge 44, Type (0, 1), BuildingBlock: ZUJKAS_clean_linker_0, # of connection points: 2
#     Edge 45, Type (0, 1), BuildingBlock: ZUJKAS_clean_linker_0, # of connection points: 2
#     Edge 46, Type (0, 1), BuildingBlock: ZUJKAS_clean_linker_0, # of connection points: 2
#     Edge 47, Type (0, 1), BuildingBlock: ZUJKAS_clean_linker_0, # of connection points: 2
#     Edge 48, Type (0, 1), BuildingBlock: ZUJKAS_clean_linker_0, # of connection points: 2
#     Edge 49, Type (0, 1), BuildingBlock: ZUJKAS_clean_linker_0, # of connection points: 2
#     Edge 50, Type (0, 1), BuildingBlock: ZUJKAS_clean_linker_0, # of connection points: 2
#     Edge 51, Type (0, 1), BuildingBlock: ZUJKAS_clean_linker_0, # of connection points: 2
#     Edge 52, Type (0, 1), BuildingBlock: ZUJKAS_clean_linker_0, # of connection points: 2
#     Edge 53, Type (0, 1), BuildingBlock: ZUJKAS_clean_linker_0, # of connection points: 2
#     Edge 54, Type (0, 1), BuildingBlock: ZUJKAS_clean_linker_0, # of connection points: 2
#     Edge 55, Type (0, 1), BuildingBlock: ZUJKAS_clean_linker_0, # of connection points: 2
#     Edge 56, Type (0, 1), BuildingBlock: ZUJKAS_clean_linker_0, # of connection points: 2
#     Edge 57, Type (0, 1), BuildingBlock: ZUJKAS_clean_linker_0, # of connection points: 2
#     Edge 58, Type (0, 1), BuildingBlock: ZUJKAS_clean_linker_0, # of connection points: 2
#     Edge 59, Type (0, 1), BuildingBlock: ZUJKAS_clean_linker_0, # of connection points: 2
#     Edge 60, Type (0, 1), BuildingBlock: ZUJKAS_clean_linker_0, # of connection points: 2
#     Edge 61, Type (0, 1), BuildingBlock: ZUJKAS_clean_linker_0, # of connection points: 2
#     Edge 62, Type (0, 1), BuildingBlock: ZUJKAS_clean_linker_0, # of connection points: 2
#     Edge 63, Type (0, 1), BuildingBlock: ZUJKAS_clean_linker_0, # of connection points: 2
#     Edge 64, Type (0, 1), BuildingBlock: ZUJKAS_clean_linker_0, # of connection points: 2
#     Edge 65, Type (0, 1), BuildingBlock: ZUJKAS_clean_linker_0, # of connection points: 2
#     Edge 66, Type (0, 1), BuildingBlock: ZUJKAS_clean_linker_0, # of connection points: 2
#     Edge 67, Type (0, 1), BuildingBlock: ZUJKAS_clean_linker_0, # of connection points: 2
#     Edge 68, Type (0, 1), BuildingBlock: ZUJKAS_clean_linker_0, # of connection points: 2
#     Edge 69, Type (0, 1), BuildingBlock: ZUJKAS_clean_linker_0, # of connection points: 2
#     Edge 70, Type (0, 1), BuildingBlock: ZUJKAS_clean_linker_0, # of connection points: 2
#     Edge 71, Type (0, 1), BuildingBlock: ZUJKAS_clean_linker_0, # of connection points: 2
#     Edge 72, Type (0, 1), BuildingBlock: ZUJKAS_clean_linker_0, # of connection points: 2
#     Edge 73, Type (0, 1), BuildingBlock: ZUJKAS_clean_linker_0, # of connection points: 2
#     Edge 74, Type (0, 1), BuildingBlock: ZUJKAS_clean_linker_0, # of connection points: 2
#     Edge 75, Type (0, 1), BuildingBlock: ZUJKAS_clean_linker_0, # of connection points: 2
#     Edge 76, Type (0, 1), BuildingBlock: ZUJKAS_clean_linker_0, # of connection points: 2
#     Edge 77, Type (0, 1), BuildingBlock: ZUJKAS_clean_linker_0, # of connection points: 2
#     Edge 78, Type (0, 1), BuildingBlock: ZUJKAS_clean_linker_0, # of connection points: 2
#     Edge 79, Type (0, 1), BuildingBlock: ZUJKAS_clean_linker_0, # of connection points: 2
#     Edge 80, Type (0, 1), BuildingBlock: ZUJKAS_clean_linker_0, # of connection points: 2
#     Edge 81, Type (0, 1), BuildingBlock: ZUJKAS_clean_linker_0, # of connection points: 2
#     Edge 82, Type (0, 1), BuildingBlock: ZUJKAS_clean_linker_0, # of connection points: 2
#     Edge 83, Type (0, 1), BuildingBlock: ZUJKAS_clean_linker_0, # of connection points: 2
#     Edge 84, Type (0, 1), BuildingBlock: ZUJKAS_clean_linker_0, # of connection points: 2
#     Edge 85, Type (0, 1), BuildingBlock: ZUJKAS_clean_linker_0, # of connection points: 2
#     Edge 86, Type (0, 1), BuildingBlock: ZUJKAS_clean_linker_0, # of connection points: 2
#     Edge 87, Type (0, 1), BuildingBlock: ZUJKAS_clean_linker_0, # of connection points: 2
#     Edge 88, Type (0, 1), BuildingBlock: ZUJKAS_clean_linker_0, # of connection points: 2
#     Edge 89, Type (0, 1), BuildingBlock: ZUJKAS_clean_linker_0, # of connection points: 2
#     Edge 90, Type (0, 1), BuildingBlock: ZUJKAS_clean_linker_0, # of connection points: 2
#     Edge 91, Type (0, 1), BuildingBlock: ZUJKAS_clean_linker_0, # of connection points: 2
#     Edge 92, Type (0, 1), BuildingBlock: ZUJKAS_clean_linker_0, # of connection points: 2
#     Edge 93, Type (0, 1), BuildingBlock: ZUJKAS_clean_linker_0, # of connection points: 2
#     Edge 94, Type (0, 1), BuildingBlock: ZUJKAS_clean_linker_0, # of connection points: 2
#     Edge 95, Type (0, 1), BuildingBlock: ZUJKAS_clean_linker_0, # of connection points: 2
#     Edge 96, Type (0, 1), BuildingBlock: ZUJKAS_clean_linker_0, # of connection points: 2
#     Edge 97, Type (0, 1), BuildingBlock: ZUJKAS_clean_linker_0, # of connection points: 2
#     Edge 98, Type (0, 1), BuildingBlock: ZUJKAS_clean_linker_0, # of connection points: 2
#     Edge 99, Type (0, 1), BuildingBlock: ZUJKAS_clean_linker_0, # of connection points: 2
#     Edge 100, Type (0, 1), BuildingBlock: ZUJKAS_clean_linker_0, # of connection points: 2
#     Edge 101, Type (0, 1), BuildingBlock: ZUJKAS_clean_linker_0, # of connection points: 2
#     Edge 102, Type (0, 1), BuildingBlock: ZUJKAS_clean_linker_0, # of connection points: 2
#     Edge 103, Type (0, 1), BuildingBlock: ZUJKAS_clean_linker_0, # of connection points: 2
#     Edge 104, Type (0, 1), BuildingBlock: ZUJKAS_clean_linker_0, # of connection points: 2
#     Edge 105, Type (0, 1), BuildingBlock: ZUJKAS_clean_linker_0, # of connection points: 2
#     Edge 106, Type (0, 1), BuildingBlock: ZUJKAS_clean_linker_0, # of connection points: 2
#     Edge 107, Type (0, 1), BuildingBlock: ZUJKAS_clean_linker_0, # of connection points: 2
# Relax obj value: 0.090
# Max RMSD: 0.269
# Mean RMSD: 0.172
data_MOF--net-ptr--node1-TATPOV_clean_sbu_0--node2-AZAVOO_clean_linker_0--edge1-ZUJKAS_clean_linker_0
_symmetry_space_group_name_H-M    P1
_symmetry_Int_Tables_number       1
_symmetry_cell_setting            triclinic
loop_
_symmetry_equiv_pos_as_xyz
'x, y, z'
_cell_length_a     101.47625
_cell_length_b     101.70676
_cell_length_c     85.100895
_cell_angle_alpha  92.169989
_cell_angle_beta   92.843984
_cell_angle_gamma 121.61012
loop_
_atom_site_label
_atom_site_type_symbol
_atom_site_fract_x
_atom_site_fract_y
_atom_site_fract_z
_atom_type_partial_charge
Zn0 Zn 0.9665 0.3572 0.01142 0.0
Zn1 Zn 0.99449 0.36158 0.01997 0.0
O2 O 0.9804 0.33845 0.01233 0.0
O3 O 0.95731 0.33448 0.00576 0.0
O4 O 0.01402 0.36264 0.02853 0.0
O5 O 0.96524 0.36503 0.03308 0.0
O6 O 0.98858 0.36947 0.03945 0.0
C7 C 0.96628 0.32938 0.0071 0.0
C8 C 0.99185 0.37921 0.99331 0.0
O9 O 0.00046 0.37626 0.00201 0.0
O10 O 0.97746 0.3726 0.99516 0.0
C11 C 0.01852 0.35426 0.02224 0.0
O12 O 0.01118 0.34588 0.00902 0.0
C13 C 0.97685 0.3701 0.04303 0.0
Zn14 Zn 0.63806 0.5979 0.0525 0.0
Zn15 Zn 0.63744 0.62331 0.06178 0.0
O16 O 0.65993 0.63134 0.0568 0.0
O17 O 0.66095 0.611 0.0493 0.0
O18 O 0.63909 0.64308 0.06974 0.0
O19 O 0.63081 0.58928 0.07357 0.0
O20 O 0.62941 0.60958 0.08041 0.0
C21 C 0.66759 0.62552 0.05197 0.0
C22 C 0.61729 0.60334 0.03254 0.0
O23 O 0.622 0.61518 0.04212 0.0
O24 O 0.62231 0.59438 0.03455 0.0
C25 C 0.64698 0.65531 0.06261 0.0
O26 O 0.65294 0.65449 0.04951 0.0
C27 C 0.62756 0.59657 0.08347 0.0
Zn28 Zn 0.37761 0.97271 0.02567 0.0
Zn29 Zn 0.38211 0.00147 0.02454 0.0
O30 O 0.35941 0.98719 0.02913 0.0
O31 O 0.35512 0.96372 0.03027 0.0
O32 O 0.38301 0.02151 0.02177 0.0
O33 O 0.38355 0.97355 0.00316 0.0
O34 O 0.38832 0.9973 0.00319 0.0
C35 C 0.35029 0.97293 0.0312 0.0
C36 C 0.40122 0.99637 0.04926 0.0
O37 O 0.39763 0.00547 0.04321 0.0
O38 O 0.39457 0.98236 0.04379 0.0
C39 C 0.3754 0.02545 0.03011 0.0
O40 O 0.36825 0.01717 0.04183 0.0
C41 C 0.38814 0.98588 0.99626 0.0
Zn42 Zn 0.03627 0.64675 0.05762 0.0
Zn43 Zn 0.00833 0.6423 0.04861 0.0
O44 O 0.02268 0.66556 0.05562 0.0
O45 O 0.04596 0.66973 0.06156 0.0
O46 O 0.98909 0.64195 0.0404 0.0
O47 O 0.03683 0.63731 0.03651 0.0
O48 O 0.01399 0.63379 0.02943 0.0
C49 C 0.03697 0.67481 0.06019 0.0
C50 C 0.01105 0.62605 0.07656 0.0
O51 O 0.00228 0.62801 0.06693 0.0
O52 O 0.02552 0.63294 0.07513 0.0
C53 C 0.97969 0.63292 0.029 0.0
O54 O 0.98149 0.62199 0.02279 0.0
C55 C 0.0254 0.63243 0.02635 0.0
Zn56 Zn 0.36767 0.40675 0.01556 0.0
Zn57 Zn 0.36806 0.38179 0.00453 0.0
O58 O 0.34552 0.37336 0.00975 0.0
O59 O 0.34494 0.39348 0.01911 0.0
O60 O 0.36643 0.36243 0.99522 0.0
O61 O 0.37451 0.41638 0.99486 0.0
O62 O 0.37623 0.39657 0.9867 0.0
C63 C 0.33808 0.37906 0.01552 0.0
C64 C 0.38857 0.40058 0.03412 0.0
O65 O 0.38355 0.38898 0.02412 0.0
O66 O 0.38374 0.40976 0.03283 0.0
C67 C 0.35989 0.35019 0.00258 0.0
O68 O 0.35526 0.35076 0.01661 0.0
C69 C 0.37792 0.40967 0.98444 0.0
Zn70 Zn 0.62817 0.03673 0.04209 0.0
Zn71 Zn 0.62484 0.00858 0.04469 0.0
O72 O 0.64728 0.02307 0.03954 0.0
O73 O 0.65053 0.04598 0.03679 0.0
O74 O 0.62507 0.98914 0.04761 0.0
O75 O 0.62267 0.03659 0.06473 0.0
O76 O 0.6188 0.01325 0.06592 0.0
C77 C 0.65586 0.03717 0.03656 0.0
C78 C 0.60464 0.01191 0.01954 0.0
O79 O 0.60887 0.00348 0.02606 0.0
O80 O 0.61086 0.02603 0.02441 0.0
C81 C 0.61702 0.979 0.05701 0.0
O82 O 0.60679 0.98031 0.06467 0.0
C83 C 0.61864 0.02471 0.07228 0.0
Zn84 Zn 0.63745 0.70185 0.33681 0.0
Zn85 Zn 0.66236 0.70248 0.35015 0.0
O86 O 0.64745 0.67973 0.34165 0.0
O87 O 0.62681 0.67896 0.33107 0.0
O88 O 0.67986 0.70159 0.36132 0.0
O89 O 0.63445 0.71007 0.35744 0.0
O90 O 0.65471 0.71022 0.3682 0.0
C91 C 0.63393 0.67216 0.33444 0.0
C92 C 0.66602 0.72212 0.32245 0.0
O93 O 0.67227 0.71797 0.33295 0.0
O94 O 0.65155 0.71673 0.32174 0.0
C95 C 0.68554 0.69431 0.35498 0.0
O96 O 0.68053 0.68808 0.34046 0.0
C97 C 0.64371 0.71272 0.36935 0.0
Zn98 Zn 0.28964 0.92262 0.38997 0.0
Zn99 Zn 0.2942 0.9502 0.39973 0.0
O100 O 0.31534 0.95546 0.39234 0.0
O101 O 0.31175 0.93298 0.38403 0.0
O102 O 0.29871 0.97103 0.40834 0.0
O103 O 0.28438 0.91501 0.41157 0.0
O104 O 0.28667 0.93712 0.41906 0.0
C105 C 0.3205 0.94755 0.38629 0.0
C106 C 0.26999 0.93089 0.37249 0.0
O107 O 0.27753 0.94347 0.38128 0.0
O108 O 0.27273 0.9202 0.37421 0.0
C109 C 0.30584 0.98297 0.40062 0.0
O110 O 0.30975 0.98153 0.38646 0.0
C111 C 0.28352 0.92362 0.42208 0.0
Zn112 Zn 0.05641 0.30953 0.3637 0.0
Zn113 Zn 0.061 0.33765 0.35831 0.0
O114 O 0.03846 0.32491 0.36405 0.0
O115 O 0.03414 0.3018 0.36815 0.0
O116 O 0.06279 0.35763 0.35313 0.0
O117 O 0.06182 0.30748 0.34152 0.0
O118 O 0.06588 0.33055 0.33764 0.0
C119 C 0.02939 0.31109 0.36764 0.0
C120 C 0.08054 0.33504 0.38493 0.0
O121 O 0.07703 0.34336 0.37706 0.0
O122 O 0.07355 0.32057 0.38145 0.0
C123 C 0.05862 0.3645 0.36259 0.0
O124 O 0.05408 0.35893 0.37631 0.0
C125 C 0.06567 0.31846 0.33265 0.0
Zn126 Zn 0.69936 0.96743 0.39838 0.0
Zn127 Zn 0.67377 0.96533 0.38482 0.0
O128 O 0.68844 0.98837 0.39218 0.0
O129 O 0.71016 0.99065 0.40166 0.0
O130 O 0.65616 0.96596 0.37366 0.0
O131 O 0.70155 0.95751 0.37851 0.0
O132 O 0.68107 0.95666 0.3673 0.0
C133 C 0.70237 0.99676 0.39826 0.0
C134 C 0.67118 0.94807 0.41403 0.0
O135 O 0.66445 0.95094 0.40283 0.0
O136 O 0.68575 0.954 0.41481 0.0
C137 C 0.64379 0.95442 0.36693 0.0
O138 O 0.6415 0.94049 0.36748 0.0
C139 C 0.69205 0.95408 0.36659 0.0
Zn140 Zn 0.03759 0.74456 0.35801 0.0
Zn141 Zn 0.03968 0.72079 0.3461 0.0
O142 O 0.0166 0.71086 0.35005 0.0
O143 O 0.01449 0.73016 0.35915 0.0
O144 O 0.04017 0.70275 0.33615 0.0
O145 O 0.04592 0.75586 0.33844 0.0
O146 O 0.04783 0.73651 0.32906 0.0
C147 C 0.00833 0.71589 0.35514 0.0
C148 C 0.05795 0.73831 0.37725 0.0
O149 O 0.05419 0.72764 0.36643 0.0
O150 O 0.05245 0.74696 0.37633 0.0
C151 C 0.03309 0.68962 0.3419 0.0
O152 O 0.02602 0.68814 0.35483 0.0
C153 C 0.0496 0.74977 0.32763 0.0
Zn154 Zn 0.28578 0.36464 0.37231 0.0
Zn155 Zn 0.28421 0.3376 0.37703 0.0
O156 O 0.30623 0.35238 0.37087 0.0
O157 O 0.30845 0.3748 0.36777 0.0
O158 O 0.28528 0.31891 0.38178 0.0
O159 O 0.2799 0.36531 0.39458 0.0
O160 O 0.27865 0.34336 0.39807 0.0
C161 C 0.31432 0.36646 0.36765 0.0
C162 C 0.26297 0.33813 0.3509 0.0
O163 O 0.26759 0.33056 0.35857 0.0
O164 O 0.26885 0.35246 0.35452 0.0
C165 C 0.29192 0.31432 0.37275 0.0
O166 O 0.29679 0.32105 0.35958 0.0
C167 C 0.27739 0.35454 0.4033 0.0
Zn168 Zn 0.30348 0.0348 0.66833 0.0
Zn169 Zn 0.32927 0.03715 0.68207 0.0
O170 O 0.31496 0.01405 0.67454 0.0
O171 O 0.2937 0.01183 0.66368 0.0
O172 O 0.3473 0.03738 0.69355 0.0
O173 O 0.30028 0.04333 0.68872 0.0
O174 O 0.32149 0.04534 0.69949 0.0
C175 C 0.3014 0.00574 0.66755 0.0
C176 C 0.33179 0.0551 0.65332 0.0
O177 O 0.33844 0.05176 0.66418 0.0
O178 O 0.31724 0.0493 0.65265 0.0
C179 C 0.34389 0.02818 0.70448 0.0
O180 O 0.32928 0.01953 0.70753 0.0
C181 C 0.31002 0.04711 0.70051 0.0
Zn182 Zn 0.9664 0.25938 0.7104 0.0
Zn183 Zn 0.96595 0.28375 0.72321 0.0
O184 O 0.98821 0.29328 0.71658 0.0
O185 O 0.98885 0.27355 0.70608 0.0
O186 O 0.96659 0.3022 0.73365 0.0
O187 O 0.96077 0.24908 0.73087 0.0
O188 O 0.95961 0.26869 0.74086 0.0
C189 C 0.99556 0.28792 0.70988 0.0
C190 C 0.94419 0.26505 0.69409 0.0
O191 O 0.9495 0.2764 0.70446 0.0
O192 O 0.94937 0.25609 0.69427 0.0
C193 C 0.97142 0.31449 0.72652 0.0
O194 O 0.97547 0.31479 0.71205 0.0
C195 C 0.95816 0.25557 0.74225 0.0
Zn196 Zn 0.72417 0.6415 0.69565 0.0
Zn197 Zn 0.72402 0.66749 0.69014 0.0
O198 O 0.70217 0.65224 0.69634 0.0
O199 O 0.70157 0.63076 0.70066 0.0
O200 O 0.72213 0.68552 0.68455 0.0
O201 O 0.72994 0.64042 0.67347 0.0
O202 O 0.72983 0.6616 0.6693 0.0
C203 C 0.69486 0.63833 0.70019 0.0
C204 C 0.74621 0.66866 0.71646 0.0
O205 O 0.74068 0.67552 0.70886 0.0
O206 O 0.74123 0.65452 0.7129 0.0
C207 C 0.7158 0.69061 0.69341 0.0
O208 O 0.71157 0.68479 0.7071 0.0
C209 C 0.73174 0.65075 0.66443 0.0
Zn210 Zn 0.37051 0.30568 0.7275 0.0
Zn211 Zn 0.34404 0.30262 0.71457 0.0
O212 O 0.35818 0.32571 0.72208 0.0
O213 O 0.38003 0.32864 0.73213 0.0
O214 O 0.32555 0.30204 0.70378 0.0
O215 O 0.37338 0.29732 0.70686 0.0
O216 O 0.35161 0.29458 0.69677 0.0
C217 C 0.37187 0.33435 0.72868 0.0
C218 C 0.34263 0.28485 0.74307 0.0
O219 O 0.33559 0.28806 0.73252 0.0
O220 O 0.35721 0.29091 0.74335 0.0
C221 C 0.32043 0.31003 0.70965 0.0
O222 O 0.32664 0.3178 0.7234 0.0
C223 C 0.36327 0.29319 0.69535 0.0
Zn224 Zn 0.70928 0.0772 0.68159 0.0
Zn225 Zn 0.70607 0.0504 0.6707 0.0
O226 O 0.68439 0.04473 0.67679 0.0
O227 O 0.68662 0.06653 0.68536 0.0
O228 O 0.70131 0.02961 0.6617 0.0
O229 O 0.71646 0.08601 0.6607 0.0
O230 O 0.71499 0.06449 0.65231 0.0
C231 C 0.67836 0.05202 0.68232 0.0
C232 C 0.72807 0.06819 0.69982 0.0
O233 O 0.72186 0.05644 0.68984 0.0
O234 O 0.72466 0.07848 0.6987 0.0
C235 C 0.71078 0.02503 0.66111 0.0
O236 O 0.7253 0.03438 0.66666 0.0
C237 C 0.71825 0.07817 0.65006 0.0
Zn238 Zn 0.9475 0.69579 0.70132 0.0
Zn239 Zn 0.94273 0.66778 0.70789 0.0
O240 O 0.96561 0.68063 0.70328 0.0
O241 O 0.97016 0.7037 0.69852 0.0
O242 O 0.94093 0.64805 0.71409 0.0
O243 O 0.94081 0.69792 0.72286 0.0
O244 O 0.93678 0.67504 0.72766 0.0
C245 C 0.9749 0.69446 0.69985 0.0
C246 C 0.92452 0.66984 0.67956 0.0
O247 O 0.92753 0.66168 0.6883 0.0
O248 O 0.9314 0.68436 0.68269 0.0
C249 C 0.94594 0.6413 0.7056 0.0
O250 O 0.95132 0.64676 0.69206 0.0
C251 C 0.93662 0.68709 0.73198 0.0
H252 H 0.15861 0.32775 0.0398 0.0
H253 H 0.22595 0.2726 0.16476 0.0
H254 H 0.15353 0.33275 0.12697 0.0
H255 H 0.13586 0.33957 0.11456 0.0
H256 H 0.09816 0.29188 0.11401 0.0
H257 H 0.11603 0.28516 0.12647 0.0
H258 H 0.17554 0.3287 0.10674 0.0
H259 H 0.17236 0.33263 0.07894 0.0
H260 H 0.13062 0.28707 0.07269 0.0
H261 H 0.13404 0.28325 0.10048 0.0
H262 H 0.19835 0.32448 0.12781 0.0
H263 H 0.21758 0.32796 0.10967 0.0
H264 H 0.18437 0.28363 0.08514 0.0
H265 H 0.16498 0.28043 0.10332 0.0
H266 H 0.19723 0.31846 0.16209 0.0
H267 H 0.21773 0.31407 0.1714 0.0
H268 H 0.19257 0.26854 0.14673 0.0
H269 H 0.17207 0.27302 0.13767 0.0
H270 H 0.17247 0.32308 0.17729 0.0
H271 H 0.1812 0.32351 0.20468 0.0
H272 H 0.16624 0.27519 0.19761 0.0
H273 H 0.15705 0.27475 0.17027 0.0
H274 H 0.14965 0.32826 0.15914 0.0
H275 H 0.13573 0.33127 0.18026 0.0
H276 H 0.11386 0.28254 0.18741 0.0
H277 H 0.12745 0.27958 0.1659 0.0
O278 O 0.15968 0.32594 0.05075 0.0
O279 O 0.13823 0.30248 0.04818 0.0
O280 O 0.23046 0.29812 0.17378 0.0
O281 O 0.21802 0.27464 0.16126 0.0
C282 C 0.14729 0.30426 0.13325 0.0
C283 C 0.15696 0.30333 0.12244 0.0
C284 C 0.16873 0.30074 0.12776 0.0
C285 C 0.17058 0.29859 0.14382 0.0
C286 C 0.16087 0.29941 0.15467 0.0
C287 C 0.14919 0.30224 0.14937 0.0
C288 C 0.13602 0.30849 0.12766 0.0
C289 C 0.14139 0.32384 0.12443 0.0
C290 C 0.13128 0.32771 0.11737 0.0
C291 C 0.11563 0.31625 0.11328 0.0
C292 C 0.11019 0.30092 0.11692 0.0
C293 C 0.12031 0.29709 0.12413 0.0
C294 C 0.15506 0.30567 0.10556 0.0
C295 C 0.16577 0.31956 0.0993 0.0
C296 C 0.1639 0.32178 0.08344 0.0
C297 C 0.15124 0.31015 0.07358 0.0
C298 C 0.1405 0.29625 0.07995 0.0
C299 C 0.14242 0.29404 0.0958 0.0
C300 C 0.18035 0.30217 0.11692 0.0
C301 C 0.19529 0.31545 0.11861 0.0
C302 C 0.20628 0.31737 0.10827 0.0
C303 C 0.20258 0.30599 0.09602 0.0
C304 C 0.18756 0.29263 0.09438 0.0
C305 C 0.17651 0.29075 0.10477 0.0
C306 C 0.18312 0.296 0.14933 0.0
C307 C 0.19614 0.30751 0.1588 0.0
C308 C 0.20784 0.30499 0.16405 0.0
C309 C 0.20677 0.29093 0.15983 0.0
C310 C 0.19375 0.27948 0.15022 0.0
C311 C 0.18203 0.28201 0.14501 0.0
C312 C 0.1641 0.29888 0.1718 0.0
C313 C 0.17072 0.31248 0.18177 0.0
C314 C 0.17587 0.31275 0.19735 0.0
C315 C 0.1746 0.29944 0.20325 0.0
C316 C 0.16731 0.28561 0.19345 0.0
C317 C 0.1621 0.28535 0.17783 0.0
C318 C 0.13945 0.30368 0.16091 0.0
C319 C 0.14154 0.31818 0.165 0.0
C320 C 0.13373 0.3199 0.1772 0.0
C321 C 0.12375 0.30716 0.18558 0.0
C322 C 0.12131 0.29255 0.18108 0.0
C323 C 0.1291 0.29083 0.16885 0.0
C324 C 0.14927 0.31256 0.05674 0.0
C325 C 0.21916 0.28817 0.16541 0.0
H326 H 0.66037 0.82331 0.06101 0.0
H327 H 0.70796 0.9506 0.18953 0.0
H328 H 0.66949 0.81987 0.14739 0.0
H329 H 0.66505 0.79505 0.13693 0.0
H330 H 0.71459 0.81441 0.13965 0.0
H331 H 0.71893 0.83939 0.1501 0.0
H332 H 0.665 0.84128 0.12811 0.0
H333 H 0.65848 0.83231 0.10013 0.0
H334 H 0.70642 0.84707 0.09506 0.0
H335 H 0.7128 0.85614 0.12303 0.0
H336 H 0.66545 0.86534 0.15044 0.0
H337 H 0.65534 0.87793 0.13424 0.0
H338 H 0.69744 0.89955 0.11006 0.0
H339 H 0.70758 0.88699 0.12661 0.0
H340 H 0.67668 0.87406 0.18486 0.0
H341 H 0.67647 0.8968 0.19492 0.0
H342 H 0.71718 0.92615 0.17045 0.0
H343 H 0.71737 0.90331 0.16066 0.0
H344 H 0.6825 0.8494 0.19967 0.0
H345 H 0.68368 0.85903 0.2267 0.0
H346 H 0.726 0.90184 0.2191 0.0
H347 H 0.72517 0.89168 0.19234 0.0
H348 H 0.68008 0.8233 0.18056 0.0
H349 H 0.68439 0.80874 0.20012 0.0
H350 H 0.73276 0.8453 0.20731 0.0
H351 H 0.72826 0.85988 0.18766 0.0
O352 O 0.66321 0.82699 0.07203 0.0
O353 O 0.68799 0.83473 0.07007 0.0
O354 O 0.68689 0.92581 0.19812 0.0
O355 O 0.70776 0.9414 0.1857 0.0
C356 C 0.69685 0.84649 0.15511 0.0
C357 C 0.69337 0.85484 0.14453 0.0
C358 C 0.69332 0.86802 0.15019 0.0
C359 C 0.69742 0.87329 0.16629 0.0
C360 C 0.70124 0.86514 0.17686 0.0
C361 C 0.70091 0.85168 0.17127 0.0
C362 C 0.69452 0.83139 0.14945 0.0
C363 C 0.67938 0.81872 0.14579 0.0
C364 C 0.67687 0.80455 0.13993 0.0
C365 C 0.68947 0.80278 0.13752 0.0
C366 C 0.70467 0.81548 0.1413 0.0
C367 C 0.70717 0.82969 0.14732 0.0
C368 C 0.68939 0.84949 0.12753 0.0
C369 C 0.67409 0.84268 0.1209 0.0
C370 C 0.67039 0.83751 0.10493 0.0
C371 C 0.68193 0.839 0.09534 0.0
C372 C 0.69726 0.84577 0.10209 0.0
C373 C 0.70094 0.85096 0.11805 0.0
C374 C 0.68725 0.87532 0.13972 0.0
C375 C 0.67246 0.87276 0.1416 0.0
C376 C 0.66666 0.87986 0.13225 0.0
C377 C 0.67556 0.88968 0.12082 0.0
C378 C 0.69036 0.89212 0.11884 0.0
C379 C 0.69614 0.88493 0.1282 0.0
C380 C 0.69712 0.88707 0.17215 0.0
C381 C 0.68558 0.88542 0.18175 0.0
C382 C 0.68546 0.89842 0.18744 0.0
C383 C 0.69684 0.91331 0.18351 0.0
C384 C 0.70828 0.91487 0.17373 0.0
C385 C 0.7084 0.90186 0.1681 0.0
C386 C 0.70375 0.86983 0.19403 0.0
C387 C 0.69233 0.86062 0.20403 0.0
C388 C 0.69289 0.86627 0.2194 0.0
C389 C 0.70477 0.88134 0.225 0.0
C390 C 0.71674 0.89015 0.21525 0.0
C391 C 0.71627 0.8844 0.19992 0.0
C392 C 0.70389 0.84256 0.18255 0.0
C393 C 0.69167 0.82804 0.18614 0.0
C394 C 0.69418 0.81973 0.19731 0.0
C395 C 0.70896 0.8258 0.2052 0.0
C396 C 0.72123 0.84034 0.2015 0.0
C397 C 0.71871 0.84865 0.19025 0.0
C398 C 0.67796 0.83347 0.07839 0.0
C399 C 0.69681 0.92717 0.18958 0.0
H400 H 0.13695 0.86103 0.05392 0.0
H401 H 0.2646 0.9644 0.17995 0.0
H402 H 0.12711 0.86426 0.13712 0.0
H403 H 0.10495 0.83935 0.12596 0.0
H404 H 0.12696 0.81615 0.14526 0.0
H405 H 0.14879 0.84097 0.15648 0.0
H406 H 0.1554 0.89124 0.11784 0.0
H407 H 0.14714 0.88218 0.09 0.0
H408 H 0.15276 0.84349 0.09739 0.0
H409 H 0.1612 0.8528 0.12514 0.0
H410 H 0.18908 0.92007 0.13281 0.0
H411 H 0.20975 0.93262 0.11474 0.0
H412 H 0.21296 0.8919 0.11166 0.0
H413 H 0.19266 0.87965 0.12982 0.0
H414 H 0.1871 0.92443 0.17265 0.0
H415 H 0.21172 0.94861 0.18034 0.0
H416 H 0.23665 0.92675 0.16657 0.0
H417 H 0.21197 0.90262 0.15912 0.0
H418 H 0.16124 0.89795 0.19546 0.0
H419 H 0.17145 0.9065 0.22319 0.0
H420 H 0.20834 0.89833 0.21503 0.0
H421 H 0.19795 0.88955 0.18763 0.0
H422 H 0.13054 0.86823 0.17624 0.0
H423 H 0.11474 0.85105 0.19605 0.0
H424 H 0.15074 0.8416 0.20793 0.0
H425 H 0.16624 0.85848 0.18792 0.0
O426 O 0.14031 0.86445 0.06494 0.0
O427 O 0.14329 0.84472 0.0694 0.0
O428 O 0.24134 0.96568 0.18398 0.0
O429 O 0.25471 0.955 0.17701 0.0
C430 C 0.15397 0.86951 0.15226 0.0
C431 C 0.16359 0.87811 0.14044 0.0
C432 C 0.17812 0.89172 0.14469 0.0
C433 C 0.18273 0.89718 0.16072 0.0
C434 C 0.17322 0.88849 0.17259 0.0
C435 C 0.1589 0.87455 0.16835 0.0
C436 C 0.1395 0.85439 0.14766 0.0
C437 C 0.12692 0.85373 0.1392 0.0
C438 C 0.11436 0.83951 0.13274 0.0
C439 C 0.1142 0.82574 0.13465 0.0
C440 C 0.12654 0.82645 0.14376 0.0
C441 C 0.13906 0.84064 0.15019 0.0
C442 C 0.15874 0.8726 0.12352 0.0
C443 C 0.15486 0.88083 0.1134 0.0
C444 C 0.15013 0.87561 0.09752 0.0
C445 C 0.14923 0.86207 0.09148 0.0
C446 C 0.15327 0.85393 0.10167 0.0
C447 C 0.15803 0.85918 0.11753 0.0
C448 C 0.1894 0.89897 0.1326 0.0
C449 C 0.19417 0.91385 0.12806 0.0
C450 C 0.2059 0.92095 0.11773 0.0
C451 C 0.21304 0.91327 0.11192 0.0
C452 C 0.20783 0.89818 0.11613 0.0
C453 C 0.19615 0.89112 0.12637 0.0
C454 C 0.19776 0.91184 0.16519 0.0
C455 C 0.1979 0.92491 0.17129 0.0
C456 C 0.21197 0.93869 0.17566 0.0
C457 C 0.22617 0.93962 0.17402 0.0
C458 C 0.22595 0.92645 0.16794 0.0
C459 C 0.21187 0.91267 0.16361 0.0
C460 C 0.17899 0.89334 0.18948 0.0
C461 C 0.17149 0.89797 0.19972 0.0
C462 C 0.17731 0.90283 0.2155 0.0
C463 C 0.19081 0.90328 0.22117 0.0
C464 C 0.19811 0.89841 0.2109 0.0
C465 C 0.19219 0.89338 0.19526 0.0
C466 C 0.14955 0.86465 0.18073 0.0
C467 C 0.13499 0.86246 0.18317 0.0
C468 C 0.12603 0.85271 0.19451 0.0
C469 C 0.13149 0.84495 0.20353 0.0
C470 C 0.14613 0.84725 0.20105 0.0
C471 C 0.15507 0.857 0.18974 0.0
C472 C 0.14411 0.85651 0.07463 0.0
C473 C 0.24115 0.95424 0.17865 0.0
H474 H 0.30697 0.16912 0.00932 0.0
H475 H 0.32173 0.06668 0.88664 0.0
H476 H 0.28661 0.16314 0.92656 0.0
H477 H 0.29075 0.18819 0.93607 0.0
H478 H 0.33451 0.21154 0.91483 0.0
H479 H 0.33021 0.18653 0.90534 0.0
H480 H 0.28907 0.13702 0.94628 0.0
H481 H 0.29244 0.1468 0.97383 0.0
H482 H 0.3373 0.18629 0.96559 0.0
H483 H 0.33385 0.17627 0.93812 0.0
H484 H 0.29147 0.10835 0.93153 0.0
H485 H 0.30034 0.09585 0.9497 0.0
H486 H 0.34637 0.13695 0.95382 0.0
H487 H 0.33751 0.14918 0.93547 0.0
H488 H 0.28259 0.10251 0.89291 0.0
H489 H 0.28284 0.07907 0.88595 0.0
H490 H 0.33229 0.10402 0.89881 0.0
H491 H 0.33189 0.12741 0.90553 0.0
H492 H 0.2797 0.12461 0.86996 0.0
H493 H 0.27836 0.11392 0.84314 0.0
H494 H 0.32719 0.13001 0.84965 0.0
H495 H 0.32844 0.14088 0.87613 0.0
H496 H 0.2805 0.15601 0.88749 0.0
H497 H 0.27915 0.17212 0.86746 0.0
H498 H 0.32476 0.18457 0.85462 0.0
H499 H 0.3261 0.16873 0.87479 0.0
O500 O 0.30591 0.16541 0.9984 0.0
O501 O 0.32887 0.18552 0.99353 0.0
O502 O 0.2959 0.0635 0.88275 0.0
O503 O 0.3213 0.07577 0.88929 0.0
C504 C 0.3067 0.15799 0.91126 0.0
C505 C 0.30889 0.15006 0.92345 0.0
C506 C 0.30926 0.13662 0.91971 0.0
C507 C 0.30696 0.13082 0.90382 0.0
C508 C 0.30486 0.13876 0.89163 0.0
C509 C 0.3047 0.15233 0.89533 0.0
C510 C 0.30808 0.17303 0.91521 0.0
C511 C 0.29694 0.17369 0.92375 0.0
C512 C 0.29939 0.18799 0.92926 0.0
C513 C 0.313 0.20186 0.92627 0.0
C514 C 0.32381 0.20111 0.91716 0.0
C515 C 0.32138 0.18683 0.91172 0.0
C516 C 0.31115 0.156 0.9402 0.0
C517 C 0.29962 0.14776 0.95048 0.0
C518 C 0.30158 0.15339 0.96619 0.0
C519 C 0.31512 0.16736 0.9719 0.0
C520 C 0.32671 0.17552 0.96156 0.0
C521 C 0.32475 0.16985 0.94587 0.0
C522 C 0.31386 0.12965 0.9322 0.0
C523 C 0.3034 0.1147 0.93655 0.0
C524 C 0.30847 0.10762 0.94696 0.0
C525 C 0.32408 0.1154 0.95308 0.0
C526 C 0.33433 0.1306 0.94913 0.0
C527 C 0.32927 0.13765 0.93878 0.0
C528 C 0.30719 0.1166 0.89982 0.0
C529 C 0.29345 0.10287 0.89421 0.0
C530 C 0.29364 0.08951 0.89026 0.0
C531 C 0.30759 0.08966 0.89186 0.0
C532 C 0.32134 0.10348 0.89747 0.0
C533 C 0.32115 0.11684 0.90137 0.0
C534 C 0.30415 0.13346 0.87495 0.0
C535 C 0.29012 0.12598 0.86544 0.0
C536 C 0.28936 0.1198 0.85021 0.0
C537 C 0.30267 0.12108 0.84427 0.0
C538 C 0.31678 0.12899 0.85375 0.0
C539 C 0.31751 0.13513 0.86892 0.0
C540 C 0.30337 0.16118 0.88253 0.0
C541 C 0.29012 0.16215 0.88025 0.0
C542 C 0.28935 0.17128 0.86878 0.0
C543 C 0.30189 0.17967 0.85953 0.0
C544 C 0.315 0.17841 0.8617 0.0
C545 C 0.31573 0.16926 0.8731 0.0
C546 C 0.31711 0.17336 0.98858 0.0
C547 C 0.30785 0.0755 0.88768 0.0
H548 H 0.83832 0.14487 0.01055 0.0
H549 H 0.75693 0.02517 0.8727 0.0
H550 H 0.84671 0.15662 0.92729 0.0
H551 H 0.86728 0.18114 0.94059 0.0
H552 H 0.90077 0.16816 0.93217 0.0
H553 H 0.87993 0.14345 0.91881 0.0
H554 H 0.82164 0.13166 0.94256 0.0
H555 H 0.82513 0.13807 0.97105 0.0
H556 H 0.86231 0.12904 0.97458 0.0
H557 H 0.85855 0.12247 0.94608 0.0
H558 H 0.797 0.10744 0.91696 0.0
H559 H 0.77616 0.09474 0.93435 0.0
H560 H 0.80141 0.07724 0.95911 0.0
H561 H 0.82249 0.09035 0.94165 0.0
H562 H 0.79876 0.10234 0.88273 0.0
H563 H 0.77576 0.07854 0.87086 0.0
H564 H 0.79169 0.05158 0.89387 0.0
H565 H 0.81475 0.07549 0.9055 0.0
H566 H 0.82733 0.13023 0.87028 0.0
H567 H 0.81898 0.12222 0.84236 0.0
H568 H 0.82552 0.08379 0.84698 0.0
H569 H 0.83396 0.09198 0.87501 0.0
H570 H 0.85111 0.15722 0.89279 0.0
H571 H 0.86834 0.17559 0.87471 0.0
H572 H 0.88448 0.14498 0.86269 0.0
H573 H 0.86747 0.12685 0.88119 0.0
O574 O 0.8371 0.14223 0.99931 0.0
O575 O 0.85619 0.13753 0.00047 0.0
O576 O 0.7583 0.04917 0.86559 0.0
O577 O 0.76592 0.03477 0.87724 0.0
C578 C 0.84891 0.13295 0.91523 0.0
C579 C 0.83768 0.12261 0.92498 0.0
C580 C 0.82431 0.10891 0.91823 0.0
C581 C 0.82259 0.10509 0.90183 0.0
C582 C 0.83398 0.11528 0.89206 0.0
C583 C 0.84702 0.12935 0.89875 0.0
C584 C 0.86181 0.14821 0.92226 0.0
C585 C 0.85848 0.15906 0.92833 0.0
C586 C 0.87023 0.17301 0.93598 0.0
C587 C 0.8856 0.17646 0.93764 0.0
C588 C 0.88903 0.16579 0.93107 0.0
C589 C 0.87718 0.15172 0.92346 0.0
C590 C 0.83974 0.12645 0.9423 0.0
C591 C 0.83044 0.13095 0.94953 0.0
C592 C 0.8325 0.13466 0.9658 0.0
C593 C 0.84398 0.13404 0.97511 0.0
C594 C 0.85334 0.12961 0.96777 0.0
C595 C 0.85123 0.12585 0.95151 0.0
C596 C 0.81118 0.09972 0.92798 0.0
C597 C 0.79791 0.10063 0.92596 0.0
C598 C 0.78599 0.09333 0.93591 0.0
C599 C 0.78706 0.0849 0.94811 0.0
C600 C 0.80029 0.08375 0.94993 0.0
C601 C 0.81227 0.09112 0.93992 0.0
C602 C 0.80848 0.09063 0.89484 0.0
C603 C 0.7973 0.09128 0.88511 0.0
C604 C 0.78416 0.07767 0.87839 0.0
C605 C 0.78191 0.06315 0.88138 0.0
C606 C 0.79308 0.06256 0.89129 0.0
C607 C 0.80624 0.07619 0.89797 0.0
C608 C 0.83132 0.11173 0.87467 0.0
C609 C 0.8274 0.12035 0.86517 0.0
C610 C 0.82262 0.11573 0.84921 0.0
C611 C 0.82154 0.10233 0.84246 0.0
C612 C 0.82609 0.09407 0.85188 0.0
C613 C 0.83099 0.09878 0.86784 0.0
C614 C 0.85812 0.14076 0.88836 0.0
C615 C 0.85855 0.15461 0.88643 0.0
C616 C 0.86828 0.165 0.87599 0.0
C617 C 0.87773 0.16171 0.86722 0.0
C618 C 0.87747 0.14793 0.8694 0.0
C619 C 0.86772 0.13753 0.87988 0.0
C620 C 0.84617 0.13802 0.99238 0.0
C621 C 0.76798 0.04865 0.87424 0.0
H622 H 0.87696 0.70321 0.03165 0.0
H623 H 0.76267 0.70959 0.91717 0.0
H624 H 0.88716 0.71664 0.9502 0.0
H625 H 0.90364 0.70712 0.95951 0.0
H626 H 0.87259 0.66315 0.93327 0.0
H627 H 0.85591 0.6726 0.92451 0.0
H628 H 0.86448 0.72234 0.97158 0.0
H629 H 0.87145 0.71882 0.99836 0.0
H630 H 0.85315 0.6705 0.98488 0.0
H631 H 0.84605 0.67415 0.95822 0.0
H632 H 0.83582 0.72667 0.95823 0.0
H633 H 0.81809 0.72387 0.97832 0.0
H634 H 0.80204 0.67525 0.97872 0.0
H635 H 0.81952 0.6781 0.95867 0.0
H636 H 0.83773 0.7328 0.92004 0.0
H637 H 0.81719 0.73832 0.91516 0.0
H638 H 0.78303 0.69182 0.92604 0.0
H639 H 0.80365 0.6864 0.93069 0.0
H640 H 0.85817 0.72681 0.89499 0.0
H641 H 0.84867 0.72795 0.86821 0.0
H642 H 0.80522 0.68554 0.87351 0.0
H643 H 0.81484 0.68431 0.89995 0.0
H644 H 0.8841 0.72154 0.91135 0.0
H645 H 0.89666 0.71964 0.88821 0.0
H646 H 0.85471 0.67642 0.87205 0.0
H647 H 0.84237 0.67832 0.89531 0.0
O648 O 0.87406 0.70433 0.021 0.0
O649 O 0.86459 0.6796 0.01345 0.0
O650 O 0.78902 0.73147 0.91343 0.0
O651 O 0.77101 0.70771 0.919 0.0
C652 C 0.85867 0.69979 0.9339 0.0
C653 C 0.85076 0.70082 0.94669 0.0
C654 C 0.83867 0.7037 0.94403 0.0
C655 C 0.83473 0.70597 0.92864 0.0
C656 C 0.84251 0.70481 0.91581 0.0
C657 C 0.85447 0.70171 0.91845 0.0
C658 C 0.87032 0.69531 0.93671 0.0
C659 C 0.88412 0.70507 0.94619 0.0
C660 C 0.89353 0.69961 0.95148 0.0
C661 C 0.88933 0.6843 0.94729 0.0
C662 C 0.876 0.6749 0.93695 0.0
C663 C 0.86657 0.68035 0.93174 0.0
C664 C 0.85489 0.69854 0.96294 0.0
C665 C 0.86197 0.71101 0.97446 0.0
C666 C 0.86595 0.70896 0.98973 0.0
C667 C 0.8629 0.69439 0.99375 0.0
C668 C 0.85571 0.68189 0.98217 0.0
C669 C 0.85169 0.68395 0.96692 0.0
C670 C 0.82901 0.7026 0.95707 0.0
C671 C 0.82856 0.71547 0.9628 0.0
C672 C 0.81844 0.71385 0.97422 0.0
C673 C 0.80876 0.69937 0.98017 0.0
C674 C 0.80956 0.68662 0.97462 0.0
C675 C 0.81951 0.68822 0.96314 0.0
C676 C 0.82219 0.70925 0.92583 0.0
C677 C 0.8258 0.72383 0.92135 0.0
C678 C 0.81405 0.72695 0.91859 0.0
C679 C 0.79846 0.71551 0.92025 0.0
C680 C 0.7949 0.70089 0.92469 0.0
C681 C 0.80666 0.69778 0.92741 0.0
C682 C 0.83713 0.70555 0.89946 0.0
C683 C 0.84664 0.71775 0.8903 0.0
C684 C 0.84121 0.71839 0.87506 0.0
C685 C 0.82614 0.70694 0.86888 0.0
C686 C 0.81676 0.69469 0.87807 0.0
C687 C 0.82225 0.69395 0.89315 0.0
C688 C 0.86233 0.7001 0.90494 0.0
C689 C 0.87771 0.71161 0.90286 0.0
C690 C 0.8848 0.71055 0.88961 0.0
C691 C 0.87665 0.6979 0.87829 0.0
C692 C 0.86134 0.68622 0.88063 0.0
C693 C 0.85425 0.68732 0.89384 0.0
C694 C 0.86721 0.69227 0.00996 0.0
C695 C 0.78593 0.71877 0.91734 0.0
H696 H 0.83067 0.6703 0.37226 0.0
H697 H 0.88433 0.60036 0.49442 0.0
H698 H 0.82122 0.67022 0.45662 0.0
H699 H 0.80442 0.67839 0.44483 0.0
H700 H 0.76474 0.63197 0.44632 0.0
H701 H 0.7817 0.62396 0.45828 0.0
H702 H 0.84398 0.6662 0.43894 0.0
H703 H 0.84254 0.67206 0.41152 0.0
H704 H 0.79858 0.62871 0.40255 0.0
H705 H 0.80028 0.62292 0.42997 0.0
H706 H 0.86457 0.659 0.4613 0.0
H707 H 0.88429 0.66346 0.44332 0.0
H708 H 0.85019 0.6231 0.41361 0.0
H709 H 0.83047 0.61852 0.43196 0.0
H710 H 0.86072 0.6505 0.49444 0.0
H711 H 0.87933 0.6436 0.50389 0.0
H712 H 0.85339 0.60023 0.47523 0.0
H713 H 0.83476 0.6072 0.46603 0.0
H714 H 0.83673 0.6561 0.50913 0.0
H715 H 0.84317 0.65374 0.53645 0.0
H716 H 0.82482 0.60501 0.52577 0.0
H717 H 0.81821 0.60747 0.49834 0.0
H718 H 0.81796 0.66475 0.49248 0.0
H719 H 0.80423 0.66764 0.51401 0.0
H720 H 0.77499 0.6179 0.51373 0.0
H721 H 0.78896 0.6151 0.49238 0.0
O722 O 0.83103 0.66773 0.38305 0.0
O723 O 0.80841 0.64537 0.37908 0.0
O724 O 0.89004 0.62581 0.50543 0.0
O725 O 0.87716 0.60339 0.49086 0.0
C726 C 0.81324 0.64131 0.46365 0.0
C727 C 0.82315 0.64054 0.45304 0.0
C728 C 0.83413 0.63681 0.45837 0.0
C729 C 0.83483 0.63332 0.47417 0.0
C730 C 0.8249 0.63403 0.48479 0.0
C731 C 0.81413 0.63808 0.47952 0.0
C732 C 0.80267 0.64649 0.45821 0.0
C733 C 0.80887 0.66187 0.45455 0.0
C734 C 0.79927 0.66648 0.44772 0.0
C735 C 0.78327 0.65579 0.44448 0.0
C736 C 0.777 0.64051 0.44877 0.0
C737 C 0.78665 0.6359 0.45557 0.0
C738 C 0.82229 0.64409 0.43638 0.0
C739 C 0.83411 0.65794 0.431 0.0
C740 C 0.83322 0.66128 0.41534 0.0
C741 C 0.82045 0.65084 0.40483 0.0
C742 C 0.80859 0.63699 0.41033 0.0
C743 C 0.80951 0.63365 0.42597 0.0
C744 C 0.84612 0.63843 0.44794 0.0
C745 C 0.8614 0.65098 0.45104 0.0
C746 C 0.8726 0.65359 0.44068 0.0
C747 C 0.86873 0.64372 0.42697 0.0
C748 C 0.8535 0.63085 0.42412 0.0
C749 C 0.84224 0.62825 0.43453 0.0
C750 C 0.84633 0.62929 0.47966 0.0
C751 C 0.85904 0.63948 0.49029 0.0
C752 C 0.86967 0.63553 0.49562 0.0
C753 C 0.86782 0.62133 0.49034 0.0
C754 C 0.85514 0.61123 0.47956 0.0
C755 C 0.8445 0.61519 0.47426 0.0
C756 C 0.82686 0.63193 0.50177 0.0
C757 C 0.83367 0.64481 0.51278 0.0
C758 C 0.83737 0.64344 0.52839 0.0
C759 C 0.8345 0.62918 0.53328 0.0
C760 C 0.82726 0.61616 0.52233 0.0
C761 C 0.82341 0.61752 0.5067 0.0
C762 C 0.80443 0.63972 0.49092 0.0
C763 C 0.80841 0.6545 0.49689 0.0
C764 C 0.80064 0.65613 0.50919 0.0
C765 C 0.78861 0.64299 0.5155 0.0
C766 C 0.78415 0.6282 0.50897 0.0
C767 C 0.79211 0.62658 0.49684 0.0
C768 C 0.81954 0.65442 0.38821 0.0
C769 C 0.87904 0.61704 0.49603 0.0
H770 H 0.32515 0.15543 0.39024 0.0
H771 H 0.38307 0.2888 0.51402 0.0
H772 H 0.33224 0.15365 0.47555 0.0
H773 H 0.32625 0.12809 0.46566 0.0
H774 H 0.37481 0.14336 0.47298 0.0
H775 H 0.3807 0.16903 0.48295 0.0
H776 H 0.33044 0.17649 0.45645 0.0
H777 H 0.3238 0.16676 0.42868 0.0
H778 H 0.37018 0.17576 0.42536 0.0
H779 H 0.37671 0.18561 0.45311 0.0
H780 H 0.33363 0.20321 0.47837 0.0
H781 H 0.32569 0.21654 0.46062 0.0
H782 H 0.36665 0.23116 0.43552 0.0
H783 H 0.37475 0.21805 0.45376 0.0
H784 H 0.34412 0.21164 0.51205 0.0
H785 H 0.34673 0.23614 0.52083 0.0
H786 H 0.38876 0.26097 0.49681 0.0
H787 H 0.38611 0.23638 0.4883 0.0
H788 H 0.34544 0.1854 0.52777 0.0
H789 H 0.34694 0.19604 0.55448 0.0
H790 H 0.3928 0.23488 0.54826 0.0
H791 H 0.39136 0.22388 0.52163 0.0
H792 H 0.34178 0.15764 0.5114 0.0
H793 H 0.3444 0.14296 0.53216 0.0
H794 H 0.39381 0.17618 0.53811 0.0
H795 H 0.39108 0.19076 0.51717 0.0
O796 O 0.32805 0.15938 0.40119 0.0
O797 O 0.35202 0.16417 0.40012 0.0
O798 O 0.36012 0.26564 0.52292 0.0
O799 O 0.38175 0.27895 0.51071 0.0
C800 C 0.36036 0.17893 0.48481 0.0
C801 C 0.35812 0.18768 0.47363 0.0
C802 C 0.35944 0.20175 0.47857 0.0
C803 C 0.36359 0.20741 0.49457 0.0
C804 C 0.366 0.19877 0.50574 0.0
C805 C 0.36442 0.18454 0.50085 0.0
C806 C 0.35691 0.16321 0.47982 0.0
C807 C 0.34158 0.15147 0.47503 0.0
C808 C 0.3382 0.13691 0.46932 0.0
C809 C 0.35009 0.13376 0.46836 0.0
C810 C 0.36541 0.14542 0.47363 0.0
C811 C 0.3688 0.16007 0.4793 0.0
C812 C 0.3541 0.18188 0.45673 0.0
C813 C 0.33918 0.17647 0.44966 0.0
C814 C 0.33541 0.17086 0.43382 0.0
C815 C 0.34647 0.17051 0.42478 0.0
C816 C 0.3614 0.17589 0.43196 0.0
C817 C 0.36516 0.18152 0.4478 0.0
C818 C 0.35479 0.20975 0.4674 0.0
C819 C 0.34091 0.20933 0.46906 0.0
C820 C 0.33632 0.21682 0.4588 0.0
C821 C 0.34549 0.22484 0.44658 0.0
C822 C 0.3594 0.22518 0.44489 0.0
C823 C 0.36401 0.21766 0.45522 0.0
C824 C 0.36501 0.22227 0.49967 0.0
C825 C 0.35392 0.22239 0.50878 0.0
C826 C 0.35542 0.2364 0.51373 0.0
C827 C 0.36798 0.25053 0.50955 0.0
C828 C 0.37897 0.25032 0.50027 0.0
C829 C 0.37748 0.2363 0.49537 0.0
C830 C 0.3683 0.20385 0.52278 0.0
C831 C 0.356 0.19596 0.53235 0.0
C832 C 0.3568 0.20216 0.54752 0.0
C833 C 0.3699 0.21641 0.55338 0.0
C834 C 0.38259 0.22385 0.5441 0.0
C835 C 0.38179 0.2176 0.5289 0.0
C836 C 0.36624 0.1752 0.51275 0.0
C837 C 0.35318 0.16164 0.51706 0.0
C838 C 0.35469 0.15336 0.529 0.0
C839 C 0.36931 0.15849 0.53681 0.0
C840 C 0.38244 0.17191 0.53222 0.0
C841 C 0.38089 0.18025 0.52033 0.0
C842 C 0.34241 0.16451 0.40796 0.0
C843 C 0.36966 0.26545 0.51482 0.0
H844 H 0.81855 0.19564 0.37781 0.0
H845 H 0.93407 0.29633 0.51379 0.0
H846 H 0.80116 0.19155 0.45937 0.0
H847 H 0.7809 0.16594 0.44744 0.0
H848 H 0.80485 0.14583 0.46962 0.0
H849 H 0.82528 0.17142 0.48076 0.0
H850 H 0.82994 0.22186 0.44298 0.0
H851 H 0.82434 0.21428 0.41466 0.0
H852 H 0.83301 0.17749 0.42176 0.0
H853 H 0.83876 0.18531 0.45001 0.0
H854 H 0.8615 0.2515 0.46061 0.0
H855 H 0.88333 0.26638 0.44435 0.0
H856 H 0.89055 0.22814 0.44103 0.0
H857 H 0.86905 0.21357 0.45736 0.0
H858 H 0.85699 0.25372 0.49934 0.0
H859 H 0.88047 0.27821 0.5091 0.0
H860 H 0.90831 0.25877 0.4983 0.0
H861 H 0.88473 0.23432 0.48875 0.0
H862 H 0.83212 0.22779 0.5196 0.0
H863 H 0.83969 0.23449 0.54804 0.0
H864 H 0.87504 0.22331 0.54364 0.0
H865 H 0.86734 0.21657 0.51542 0.0
H866 H 0.80301 0.19633 0.5013 0.0
H867 H 0.78737 0.17831 0.52056 0.0
H868 H 0.82276 0.16724 0.52905 0.0
H869 H 0.83848 0.18576 0.51037 0.0
O870 O 0.82085 0.19846 0.38904 0.0
O871 O 0.82537 0.17968 0.39333 0.0
O872 O 0.90977 0.2962 0.51543 0.0
O873 O 0.92461 0.28678 0.51002 0.0
C874 C 0.8279 0.19893 0.47666 0.0
C875 C 0.83797 0.20874 0.46573 0.0
C876 C 0.85166 0.22283 0.47115 0.0
C877 C 0.85489 0.22749 0.48744 0.0
C878 C 0.84483 0.21771 0.49835 0.0
C879 C 0.83147 0.20334 0.49299 0.0
C880 C 0.81462 0.18332 0.47103 0.0
C881 C 0.80188 0.18155 0.46176 0.0
C882 C 0.79031 0.16692 0.45502 0.0
C883 C 0.79133 0.15386 0.45748 0.0
C884 C 0.80384 0.15567 0.46726 0.0
C885 C 0.81542 0.17026 0.47385 0.0
C886 C 0.83458 0.20403 0.44855 0.0
C887 C 0.83062 0.21217 0.43838 0.0
C888 C 0.82742 0.2078 0.42222 0.0
C889 C 0.82817 0.19524 0.41595 0.0
C890 C 0.83226 0.18718 0.4262 0.0
C891 C 0.83549 0.19158 0.44235 0.0
C892 C 0.86371 0.23147 0.46011 0.0
C893 C 0.86773 0.24634 0.45619 0.0
C894 C 0.88013 0.25477 0.4469 0.0
C895 C 0.8887 0.24845 0.44156 0.0
C896 C 0.8843 0.23338 0.44517 0.0
C897 C 0.87194 0.22499 0.45436 0.0
C898 C 0.8692 0.24233 0.49322 0.0
C899 C 0.86818 0.2548 0.4991 0.0
C900 C 0.8816 0.26876 0.50465 0.0
C901 C 0.89628 0.27046 0.50444 0.0
C902 C 0.89721 0.25787 0.4986 0.0
C903 C 0.88377 0.24391 0.49308 0.0
C904 C 0.84923 0.22176 0.51551 0.0
C905 C 0.84147 0.2268 0.52485 0.0
C906 C 0.84584 0.23065 0.54102 0.0
C907 C 0.85791 0.22935 0.54805 0.0
C908 C 0.86557 0.22423 0.5386 0.0
C909 C 0.86127 0.22049 0.52249 0.0
C910 C 0.82188 0.19239 0.50456 0.0
C911 C 0.80735 0.19003 0.50742 0.0
C912 C 0.79839 0.17963 0.51832 0.0
C913 C 0.80378 0.17129 0.52643 0.0
C914 C 0.81834 0.17365 0.52332 0.0
C915 C 0.82733 0.18417 0.51258 0.0
C916 C 0.82473 0.19061 0.39878 0.0
C917 C 0.91058 0.28527 0.51031 0.0
H918 H 0.01421 0.52501 0.34438 0.0
H919 H 0.01501 0.41429 0.22145 0.0
H920 H 0.98395 0.51228 0.26401 0.0
H921 H 0.9879 0.53719 0.27345 0.0
H922 H 0.0277 0.5607 0.24606 0.0
H923 H 0.02395 0.53571 0.23713 0.0
H924 H 0.98891 0.48903 0.2835 0.0
H925 H 0.99554 0.50063 0.31065 0.0
H926 H 0.03897 0.53853 0.29686 0.0
H927 H 0.03227 0.52671 0.26981 0.0
H928 H 0.98617 0.45884 0.26707 0.0
H929 H 0.9932 0.44522 0.28557 0.0
H930 H 0.04105 0.48311 0.28833 0.0
H931 H 0.03386 0.49667 0.26993 0.0
H932 H 0.97693 0.45095 0.23026 0.0
H933 H 0.97655 0.42713 0.22354 0.0
H934 H 0.02651 0.45214 0.23252 0.0
H935 H 0.02673 0.4759 0.23901 0.0
H936 H 0.97156 0.47093 0.2084 0.0
H937 H 0.96684 0.45681 0.18264 0.0
H938 H 0.01577 0.47348 0.18304 0.0
H939 H 0.02035 0.48765 0.20853 0.0
H940 H 0.97513 0.50568 0.22727 0.0
H941 H 0.96976 0.51863 0.20633 0.0
H942 H 0.0097 0.52532 0.18358 0.0
H943 H 0.01548 0.51311 0.20486 0.0
O944 O 0.01185 0.52059 0.33359 0.0
O945 O 0.03399 0.53985 0.32588 0.0
O946 O 0.98916 0.41123 0.21949 0.0
O947 O 0.01482 0.42354 0.22406 0.0
C948 C 0.00263 0.50727 0.24609 0.0
C949 C 0.00595 0.50001 0.25822 0.0
C950 C 0.00556 0.48615 0.25465 0.0
C951 C 0.00203 0.4796 0.23895 0.0
C952 C 0.99895 0.48694 0.22679 0.0
C953 C 0.99905 0.5007 0.23033 0.0
C954 C 0.0037 0.52219 0.24996 0.0
C955 C 0.99341 0.52281 0.25992 0.0
C956 C 0.99564 0.53706 0.26522 0.0
C957 C 0.00819 0.55096 0.26059 0.0
C958 C 0.01807 0.55023 0.25004 0.0
C959 C 0.01586 0.53597 0.24479 0.0
C960 C 0.01009 0.50705 0.2747 0.0
C961 C 0.99987 0.4998 0.2864 0.0
C962 C 0.00367 0.50648 0.30188 0.0
C963 C 0.01777 0.52053 0.30592 0.0
C964 C 0.02801 0.52772 0.29415 0.0
C965 C 0.0242 0.52102 0.27868 0.0
C966 C 0.00951 0.47872 0.26717 0.0
C967 C 0.99813 0.46426 0.27185 0.0
C968 C 0.00218 0.45647 0.28232 0.0
C969 C 0.01771 0.46304 0.28833 0.0
C970 C 0.02898 0.47781 0.28405 0.0
C971 C 0.02491 0.48556 0.27354 0.0
C972 C 0.00185 0.46511 0.23515 0.0
C973 C 0.98777 0.45124 0.23074 0.0
C974 C 0.98759 0.43767 0.22693 0.0
C975 C 0.00151 0.43773 0.2275 0.0
C976 C 0.01559 0.45167 0.23197 0.0
C977 C 0.01575 0.46525 0.23573 0.0
C978 C 0.99628 0.4803 0.21028 0.0
C979 C 0.98126 0.47177 0.20272 0.0
C980 C 0.97858 0.46362 0.18811 0.0
C981 C 0.99092 0.46398 0.18084 0.0
C982 C 0.00605 0.4731 0.18821 0.0
C983 C 0.00869 0.48116 0.20279 0.0
C984 C 0.99563 0.50831 0.21754 0.0
C985 C 0.98277 0.51002 0.2178 0.0
C986 C 0.97969 0.51736 0.20587 0.0
C987 C 0.98924 0.52279 0.19332 0.0
C988 C 0.00204 0.52101 0.19303 0.0
C989 C 0.00532 0.51401 0.20513 0.0
C990 C 0.02175 0.52761 0.32237 0.0
C991 C 0.00139 0.42334 0.22344 0.0
H992 H 0.49532 0.48012 0.34547 0.0
H993 H 0.42385 0.36146 0.20609 0.0
H994 H 0.5068 0.49387 0.26528 0.0
H995 H 0.52732 0.51838 0.27887 0.0
H996 H 0.56178 0.50859 0.26485 0.0
H997 H 0.54106 0.48354 0.2519 0.0
H998 H 0.48033 0.46713 0.27725 0.0
H999 H 0.48285 0.47302 0.30577 0.0
H1000 H 0.523 0.46863 0.31002 0.0
H1001 H 0.52022 0.46253 0.2815 0.0
H1002 H 0.45646 0.44084 0.24964 0.0
H1003 H 0.43535 0.42648 0.26645 0.0
H1004 H 0.46465 0.4163 0.29532 0.0
H1005 H 0.4857 0.43025 0.27796 0.0
H1006 H 0.46031 0.43844 0.21658 0.0
H1007 H 0.43878 0.41387 0.20415 0.0
H1008 H 0.45716 0.38948 0.2283 0.0
H1009 H 0.47876 0.41417 0.24047 0.0
H1010 H 0.4883 0.4683 0.20543 0.0
H1011 H 0.48014 0.46033 0.17748 0.0
H1012 H 0.48915 0.42347 0.18166 0.0
H1013 H 0.49736 0.43159 0.20973 0.0
H1014 H 0.51257 0.49639 0.22915 0.0
H1015 H 0.5303 0.51551 0.21188 0.0
H1016 H 0.54621 0.48508 0.19835 0.0
H1017 H 0.52857 0.46607 0.21584 0.0
O1018 O 0.49451 0.47771 0.33421 0.0
O1019 O 0.51518 0.47545 0.33575 0.0
O1020 O 0.42335 0.38445 0.19862 0.0
O1021 O 0.43224 0.37135 0.21086 0.0
C1022 C 0.50969 0.47149 0.25049 0.0
C1023 C 0.49848 0.46067 0.26 0.0
C1024 C 0.48568 0.44661 0.25297 0.0
C1025 C 0.48449 0.44305 0.23656 0.0
C1026 C 0.49572 0.4538 0.22704 0.0
C1027 C 0.50822 0.46812 0.23398 0.0
C1028 C 0.52239 0.48677 0.25783 0.0
C1029 C 0.51874 0.49688 0.26529 0.0
C1030 C 0.53043 0.51086 0.27299 0.0
C1031 C 0.54602 0.51518 0.27297 0.0
C1032 C 0.54979 0.50539 0.26503 0.0
C1033 C 0.53802 0.49117 0.25763 0.0
C1034 C 0.50001 0.46428 0.27733 0.0
C1035 C 0.48959 0.46733 0.28438 0.0
C1036 C 0.49109 0.47075 0.30067 0.0
C1037 C 0.50311 0.47127 0.31018 0.0
C1038 C 0.51359 0.46829 0.30304 0.0
C1039 C 0.51205 0.46482 0.28676 0.0
C1040 C 0.4726 0.43651 0.26248 0.0
C1041 C 0.45822 0.43515 0.25931 0.0
C1042 C 0.44619 0.42699 0.26894 0.0
C1043 C 0.44839 0.42028 0.28214 0.0
C1044 C 0.4627 0.42141 0.28521 0.0
C1045 C 0.47468 0.42933 0.27533 0.0
C1046 C 0.47118 0.42809 0.2293 0.0
C1047 C 0.45972 0.42778 0.21909 0.0
C1048 C 0.4474 0.41373 0.21205 0.0
C1049 C 0.44627 0.39971 0.2152 0.0
C1050 C 0.45769 0.40006 0.22559 0.0
C1051 C 0.47003 0.41414 0.23258 0.0
C1052 C 0.49341 0.45053 0.20962 0.0
C1053 C 0.48894 0.45879 0.20021 0.0
C1054 C 0.48428 0.4542 0.18423 0.0
C1055 C 0.48392 0.4412 0.17737 0.0
C1056 C 0.48914 0.43341 0.18666 0.0
C1057 C 0.49391 0.43809 0.20264 0.0
C1058 C 0.51934 0.47987 0.22382 0.0
C1059 C 0.52003 0.49394 0.22261 0.0
C1060 C 0.53016 0.50485 0.21277 0.0
C1061 C 0.53963 0.50178 0.20378 0.0
C1062 C 0.53894 0.48769 0.20504 0.0
C1063 C 0.52892 0.47685 0.21503 0.0
C1064 C 0.50468 0.47493 0.32748 0.0
C1065 C 0.43325 0.38475 0.2077 0.0
H1066 H 0.51223 0.99455 0.35998 0.0
H1067 H 0.41102 0.00215 0.22915 0.0
H1068 H 0.53499 0.01863 0.28284 0.0
H1069 H 0.55331 0.01194 0.29366 0.0
H1070 H 0.53087 0.97014 0.26246 0.0
H1071 H 0.51219 0.97665 0.25222 0.0
H1072 H 0.5081 0.01892 0.29999 0.0
H1073 H 0.51109 0.01299 0.32706 0.0
H1074 H 0.49767 0.96667 0.31004 0.0
H1075 H 0.49455 0.9727 0.28306 0.0
H1076 H 0.48358 0.02458 0.28251 0.0
H1077 H 0.46398 0.02123 0.30043 0.0
H1078 H 0.44579 0.97205 0.29829 0.0
H1079 H 0.46522 0.97548 0.28024 0.0
H1080 H 0.48688 0.03179 0.24548 0.0
H1081 H 0.46556 0.03533 0.23714 0.0
H1082 H 0.43274 0.98664 0.24139 0.0
H1083 H 0.45418 0.98325 0.24954 0.0
H1084 H 0.51129 0.03183 0.2256 0.0
H1085 H 0.50478 0.03561 0.19861 0.0
H1086 H 0.46549 0.98849 0.19404 0.0
H1087 H 0.47222 0.98481 0.22078 0.0
H1088 H 0.53775 0.02705 0.24508 0.0
H1089 H 0.5553 0.02986 0.22491 0.0
H1090 H 0.51907 0.98656 0.2009 0.0
H1091 H 0.50176 0.98373 0.22129 0.0
O1092 O 0.51094 0.99664 0.34919 0.0
O1093 O 0.50407 0.97299 0.33983 0.0
O1094 O 0.43701 0.02602 0.23037 0.0
O1095 O 0.41966 0.00108 0.23243 0.0
C1096 C 0.50972 0.00097 0.26203 0.0
C1097 C 0.49936 -8e-05 0.27317 0.0
C1098 C 0.48708 0.00209 0.26865 0.0
C1099 C 0.48506 0.00518 0.25298 0.0
C1100 C 0.49523 0.00599 0.24178 0.0
C1101 C 0.50765 0.00403 0.24632 0.0
C1102 C 0.52224 0.99811 0.26678 0.0
C1103 C 0.53417 0.00813 0.27822 0.0
C1104 C 0.54467 0.00431 0.28433 0.0
C1105 C 0.54351 0.99043 0.27901 0.0
C1106 C 0.53194 0.98078 0.26702 0.0
C1107 C 0.52138 0.98457 0.26099 0.0
C1108 C 0.50116 0.99626 0.28958 0.0
C1109 C 0.50577 0.00749 0.30216 0.0
C1110 C 0.50749 0.00407 0.31759 0.0
C1111 C 0.50464 0.98936 0.32071 0.0
C1112 C 0.49998 0.97812 0.30805 0.0
C1113 C 0.49822 0.98154 0.29263 0.0
C1114 C 0.47579 0.00027 0.28011 0.0
C1115 C 0.47538 0.01311 0.28599 0.0
C1116 C 0.46426 0.01119 0.29626 0.0
C1117 C 0.45332 0.99637 0.3007 0.0
C1118 C 0.45394 0.98358 0.29492 0.0
C1119 C 0.46508 0.98552 0.28472 0.0
C1120 C 0.47205 0.00729 0.24816 0.0
C1121 C 0.47507 0.02192 0.24459 0.0
C1122 C 0.46288 0.0239 0.23984 0.0
C1123 C 0.44743 0.01126 0.23861 0.0
C1124 C 0.44448 0.99662 0.24224 0.0
C1125 C 0.45669 0.99465 0.24694 0.0
C1126 C 0.49222 0.00805 0.22509 0.0
C1127 C 0.50141 0.0223 0.21864 0.0
C1128 C 0.49762 0.02446 0.2033 0.0
C1129 C 0.48462 0.01234 0.19419 0.0
C1130 C 0.4757 0.99798 0.20064 0.0
C1131 C 0.47946 0.99587 0.21594 0.0
C1132 C 0.51849 0.00523 0.23458 0.0
C1133 C 0.53369 0.01812 0.23553 0.0
C1134 C 0.54364 0.01974 0.22396 0.0
C1135 C 0.53855 0.00845 0.21128 0.0
C1136 C 0.5234 0.99537 0.2106 0.0
C1137 C 0.51346 0.99378 0.22215 0.0
C1138 C 0.50651 0.98578 0.33712 0.0
C1139 C 0.43444 0.01329 0.23356 0.0
H1140 H 0.49945 0.02176 0.71269 0.0
H1141 H 0.5726 0.9669 0.83096 0.0
H1142 H 0.49479 0.02292 0.79711 0.0
H1143 H 0.47529 0.02796 0.78624 0.0
H1144 H 0.43927 0.98078 0.79267 0.0
H1145 H 0.45905 0.97572 0.80306 0.0
H1146 H 0.51865 0.02116 0.77847 0.0
H1147 H 0.51459 0.02568 0.75111 0.0
H1148 H 0.47203 0.98075 0.74537 0.0
H1149 H 0.47633 0.97631 0.77271 0.0
H1150 H 0.54249 0.01651 0.79825 0.0
H1151 H 0.56082 0.01963 0.77901 0.0
H1152 H 0.52535 0.9769 0.75343 0.0
H1153 H 0.50715 0.97367 0.77309 0.0
H1154 H 0.54125 0.01046 0.83298 0.0
H1155 H 0.56244 0.00666 0.84105 0.0
H1156 H 0.53855 0.96227 0.81411 0.0
H1157 H 0.51734 0.96613 0.8063 0.0
H1158 H 0.51594 0.01237 0.85024 0.0
H1159 H 0.52461 0.01081 0.87708 0.0
H1160 H 0.51046 0.96322 0.86548 0.0
H1161 H 0.50152 0.96481 0.83872 0.0
H1162 H 0.49023 0.01683 0.83258 0.0
H1163 H 0.47451 0.01677 0.85356 0.0
H1164 H 0.45686 0.96825 0.85816 0.0
H1165 H 0.47248 0.96837 0.83708 0.0
O1166 O 0.50086 0.01972 0.72346 0.0
O1167 O 0.47902 0.99656 0.72115 0.0
O1168 O 0.57615 0.99157 0.84168 0.0
O1169 O 0.56439 0.96869 0.82796 0.0
C1170 C 0.4905 0.99557 0.80551 0.0
C1171 C 0.50027 0.99568 0.79416 0.0
C1172 C 0.51247 0.9934 0.79866 0.0
C1173 C 0.51477 0.99075 0.81444 0.0
C1174 C 0.5049 0.99046 0.82577 0.0
C1175 C 0.49272 0.99283 0.82131 0.0
C1176 C 0.47833 0.99894 0.80078 0.0
C1177 C 0.48267 0.01372 0.7963 0.0
C1178 C 0.47148 0.0166 0.79018 0.0
C1179 C 0.45569 0.00476 0.78851 0.0
C1180 C 0.45134 0.99008 0.79358 0.0
C1181 C 0.46258 0.9872 0.79965 0.0
C1182 C 0.49782 0.99838 0.77753 0.0
C1183 C 0.50851 0.01228 0.77125 0.0
C1184 C 0.50613 0.01484 0.75563 0.0
C1185 C 0.49298 0.00357 0.74605 0.0
C1186 C 0.48228 0.98966 0.75243 0.0
C1187 C 0.4847 0.9871 0.76803 0.0
C1188 C 0.52353 0.99486 0.78707 0.0
C1189 C 0.53873 0.00776 0.78856 0.0
C1190 C 0.54912 0.00959 0.77748 0.0
C1191 C 0.54449 0.99857 0.76462 0.0
C1192 C 0.52928 0.98552 0.76326 0.0
C1193 C 0.51887 0.9837 0.7744 0.0
C1194 C 0.52773 0.98853 0.81914 0.0
C1195 C 0.54059 0.99989 0.8289 0.0
C1196 C 0.55269 0.99771 0.83345 0.0
C1197 C 0.55218 0.98414 0.82824 0.0
C1198 C 0.53931 0.97284 0.81835 0.0
C1199 C 0.52719 0.97502 0.81385 0.0
C1200 C 0.50813 0.98872 0.84255 0.0
C1201 C 0.51442 0.00152 0.85361 0.0
C1202 C 0.51949 0.00064 0.86886 0.0
C1203 C 0.51837 0.98694 0.87333 0.0
C1204 C 0.51139 0.9739 0.86242 0.0
C1205 C 0.50634 0.9748 0.84714 0.0
C1206 C 0.48247 0.9926 0.8333 0.0
C1207 C 0.48278 0.00614 0.83796 0.0
C1208 C 0.47381 0.00609 0.84993 0.0
C1209 C 0.46451 0.99252 0.85753 0.0
C1210 C 0.46405 0.97891 0.85263 0.0
C1211 C 0.47291 0.97895 0.84058 0.0
C1212 C 0.49048 0.00634 0.72947 0.0
C1213 C 0.56499 0.98175 0.83306 0.0
H1214 H 0.95887 0.46951 0.73002 0.0
H1215 H 0.01521 0.60322 0.85356 0.0
H1216 H 0.97195 0.46905 0.81446 0.0
H1217 H 0.96858 0.44481 0.80348 0.0
H1218 H 0.0183 0.4653 0.80854 0.0
H1219 H 0.02154 0.48956 0.8196 0.0
H1220 H 0.96656 0.4912 0.79641 0.0
H1221 H 0.95884 0.48095 0.76882 0.0
H1222 H 0.0058 0.4928 0.76264 0.0
H1223 H 0.01339 0.50317 0.7902 0.0
H1224 H 0.96911 0.51773 0.81663 0.0
H1225 H 0.96088 0.53121 0.79935 0.0
H1226 H 0.00322 0.54899 0.77586 0.0
H1227 H 0.01114 0.5351 0.79304 0.0
H1228 H 0.98093 0.52637 0.85165 0.0
H1229 H 0.98209 0.55004 0.86098 0.0
H1230 H 0.0225 0.57699 0.83519 0.0
H1231 H 0.02132 0.55323 0.82613 0.0
H1232 H 0.98706 0.50417 0.86855 0.0
H1233 H 0.99126 0.51718 0.89476 0.0
H1234 H 0.03534 0.55515 0.88246 0.0
H1235 H 0.03114 0.54192 0.85641 0.0
H1236 H 0.98345 0.47464 0.85029 0.0
H1237 H 0.98902 0.46073 0.86969 0.0
H1238 H 0.03768 0.49671 0.87266 0.0
H1239 H 0.03188 0.51068 0.85338 0.0
O1240 O 0.96219 0.47369 0.74087 0.0
O1241 O 0.98648 0.47996 0.73833 0.0
O1242 O 0.99373 0.5793 0.86316 0.0
O1243 O 0.01447 0.59368 0.85003 0.0
C1244 C 0.9989 0.49611 0.82295 0.0
C1245 C 0.99519 0.50409 0.81204 0.0
C1246 C 0.99582 0.51778 0.81712 0.0
C1247 C 0.00058 0.52377 0.83298 0.0
C1248 C 0.00463 0.51601 0.84383 0.0
C1249 C 0.00371 0.50212 0.83885 0.0
C1250 C 0.99699 0.48107 0.81771 0.0
C1251 C 0.9821 0.46826 0.81329 0.0
C1252 C 0.98021 0.45447 0.80695 0.0
C1253 C 0.99319 0.4532 0.80499 0.0
C1254 C 0.00808 0.4659 0.80999 0.0
C1255 C 0.00996 0.47975 0.81628 0.0
C1256 C 0.99054 0.498 0.79525 0.0
C1257 C 0.97518 0.49167 0.78903 0.0
C1258 C 0.97079 0.48577 0.77329 0.0
C1259 C 0.98171 0.48606 0.76352 0.0
C1260 C 0.99711 0.49241 0.76983 0.0
C1261 C 0.00147 0.49833 0.78557 0.0
C1262 C 0.99072 0.5255 0.80609 0.0
C1263 C 0.97655 0.52449 0.80769 0.0
C1264 C 0.97193 0.53227 0.79787 0.0
C1265 C 0.98144 0.54129 0.78628 0.0
C1266 C 0.99554 0.54203 0.78454 0.0
C1267 C 0.00013 0.53418 0.79437 0.0
C1268 C 0.00109 0.53812 0.8383 0.0
C1269 C 0.99005 0.53741 0.84808 0.0
C1270 C 0.99072 0.55094 0.85336 0.0
C1271 C 0.00241 0.56542 0.84884 0.0
C1272 C 0.01336 0.56604 0.8389 0.0
C1273 C 0.0127 0.5525 0.83368 0.0
C1274 C 0.00879 0.52212 0.86061 0.0
C1275 C 0.99784 0.51506 0.87172 0.0
C1276 C 0.00017 0.52259 0.88659 0.0
C1277 C 0.01354 0.53728 0.89059 0.0
C1278 C 0.02498 0.54381 0.87979 0.0
C1279 C 0.02261 0.53628 0.86491 0.0
C1280 C 0.00726 0.49362 0.85041 0.0
C1281 C 0.99532 0.47945 0.85507 0.0
C1282 C 0.99856 0.47149 0.86608 0.0
C1283 C 0.01383 0.47755 0.87267 0.0
C1284 C 0.02578 0.49178 0.86793 0.0
C1285 C 0.02251 0.49975 0.85689 0.0
C1286 C 0.977 0.47974 0.74681 0.0
C1287 C 0.00322 0.57984 0.85447 0.0
H1288 H 0.47681 0.52527 0.71606 0.0
H1289 H 0.60655 0.61835 0.84399 0.0
H1290 H 0.46671 0.52609 0.7989 0.0
H1291 H 0.44382 0.5015 0.78803 0.0
H1292 H 0.4641 0.47685 0.80763 0.0
H1293 H 0.48676 0.50132 0.81835 0.0
H1294 H 0.49603 0.55356 0.78074 0.0
H1295 H 0.48769 0.54547 0.75274 0.0
H1296 H 0.49051 0.50492 0.75853 0.0
H1297 H 0.49903 0.51325 0.78644 0.0
H1298 H 0.53022 0.58139 0.79761 0.0
H1299 H 0.55061 0.59425 0.77938 0.0
H1300 H 0.55118 0.55228 0.77194 0.0
H1301 H 0.53097 0.53964 0.79009 0.0
H1302 H 0.52952 0.58498 0.83583 0.0
H1303 H 0.55522 0.6076 0.84407 0.0
H1304 H 0.57628 0.58196 0.82979 0.0
H1305 H 0.5505 0.55939 0.82176 0.0
H1306 H 0.50409 0.56229 0.85666 0.0
H1307 H 0.51497 0.57131 0.88408 0.0
H1308 H 0.54443 0.55278 0.8783 0.0
H1309 H 0.5338 0.54427 0.85092 0.0
H1310 H 0.47098 0.53149 0.8393 0.0
H1311 H 0.45436 0.51466 0.85884 0.0
H1312 H 0.48621 0.49911 0.86767 0.0
H1313 H 0.50289 0.51632 0.84855 0.0
O1314 O 0.48018 0.52828 0.72715 0.0
O1315 O 0.48172 0.50758 0.73078 0.0
O1316 O 0.58485 0.62223 0.8481 0.0
O1317 O 0.59625 0.60958 0.84085 0.0
C1318 C 0.49308 0.53027 0.81429 0.0
C1319 C 0.50296 0.53889 0.80263 0.0
C1320 C 0.51781 0.55202 0.80714 0.0
C1321 C 0.52254 0.55688 0.82329 0.0
C1322 C 0.51264 0.54832 0.83493 0.0
C1323 C 0.49798 0.53493 0.83045 0.0
C1324 C 0.47832 0.51547 0.80951 0.0
C1325 C 0.46602 0.51533 0.80106 0.0
C1326 C 0.45302 0.50131 0.79481 0.0
C1327 C 0.45213 0.48723 0.79699 0.0
C1328 C 0.46426 0.48744 0.80598 0.0
C1329 C 0.47724 0.50142 0.81213 0.0
C1330 C 0.49799 0.53392 0.78563 0.0
C1331 C 0.49485 0.54294 0.77592 0.0
C1332 C 0.49007 0.53828 0.75994 0.0
C1333 C 0.48838 0.52452 0.7534 0.0
C1334 C 0.49165 0.51556 0.76319 0.0
C1335 C 0.49646 0.52026 0.77915 0.0
C1336 C 0.52908 0.55957 0.79509 0.0
C1337 C 0.53466 0.57497 0.79187 0.0
C1338 C 0.54631 0.58229 0.78153 0.0
C1339 C 0.55246 0.57426 0.77418 0.0
C1340 C 0.54651 0.55871 0.77717 0.0
C1341 C 0.53498 0.55146 0.78755 0.0
C1342 C 0.53818 0.57061 0.82811 0.0
C1343 C 0.53971 0.58429 0.8345 0.0
C1344 C 0.55439 0.59718 0.83918 0.0
C1345 C 0.56781 0.5966 0.83756 0.0
C1346 C 0.5662 0.58282 0.83117 0.0
C1347 C 0.5515 0.56993 0.82653 0.0
C1348 C 0.51825 0.55274 0.85184 0.0
C1349 C 0.51283 0.56014 0.86142 0.0
C1350 C 0.51903 0.56522 0.87706 0.0
C1351 C 0.53071 0.56292 0.88335 0.0
C1352 C 0.53572 0.55507 0.87376 0.0
C1353 C 0.52959 0.55008 0.85816 0.0
C1354 C 0.48817 0.5252 0.84265 0.0
C1355 C 0.47438 0.52452 0.84559 0.0
C1356 C 0.46485 0.5148 0.85665 0.0
C1357 C 0.46893 0.5055 0.86485 0.0
C1358 C 0.48283 0.50629 0.86182 0.0
C1359 C 0.49237 0.51608 0.85087 0.0
C1360 C 0.48323 0.51957 0.73645 0.0
C1361 C 0.58344 0.61026 0.8425 0.0
H1362 H 0.6527 0.8361 0.67964 0.0
H1363 H 0.65332 0.73111 0.54704 0.0
H1364 H 0.62802 0.8329 0.59765 0.0
H1365 H 0.63541 0.85907 0.60752 0.0
H1366 H 0.67773 0.87807 0.58386 0.0
H1367 H 0.67048 0.85196 0.57454 0.0
H1368 H 0.62869 0.80466 0.61654 0.0
H1369 H 0.63455 0.81445 0.64431 0.0
H1370 H 0.68021 0.85108 0.63385 0.0
H1371 H 0.67426 0.84105 0.60617 0.0
H1372 H 0.62702 0.77392 0.59977 0.0
H1373 H 0.63481 0.75999 0.61712 0.0
H1374 H 0.6823 0.79858 0.61979 0.0
H1375 H 0.67446 0.81227 0.60235 0.0
H1376 H 0.61666 0.76724 0.56653 0.0
H1377 H 0.61563 0.7434 0.55812 0.0
H1378 H 0.66572 0.76908 0.55867 0.0
H1379 H 0.66654 0.79283 0.56699 0.0
H1380 H 0.6133 0.78298 0.54349 0.0
H1381 H 0.61085 0.77111 0.51694 0.0
H1382 H 0.66009 0.80201 0.51373 0.0
H1383 H 0.66247 0.81348 0.54031 0.0
H1384 H 0.61552 0.8193 0.5571 0.0
H1385 H 0.61221 0.83483 0.53768 0.0
H1386 H 0.65962 0.85382 0.52628 0.0
H1387 H 0.66282 0.83845 0.54577 0.0
O1388 O 0.65065 0.83239 0.6686 0.0
O1389 O 0.67397 0.85103 0.6626 0.0
O1390 O 0.62766 0.72768 0.55026 0.0
O1391 O 0.65338 0.74033 0.55039 0.0
C1392 C 0.64531 0.82477 0.58089 0.0
C1393 C 0.64728 0.81622 0.59252 0.0
C1394 C 0.64592 0.802 0.58811 0.0
C1395 C 0.64222 0.79616 0.57215 0.0
C1396 C 0.64011 0.80461 0.56056 0.0
C1397 C 0.64157 0.81887 0.56493 0.0
C1398 C 0.64866 0.84056 0.58528 0.0
C1399 C 0.63877 0.84276 0.59445 0.0
C1400 C 0.64299 0.8577 0.60003 0.0
C1401 C 0.65721 0.87064 0.59656 0.0
C1402 C 0.66682 0.86835 0.58694 0.0
C1403 C 0.6626 0.85346 0.58141 0.0
C1404 C 0.65099 0.82223 0.60934 0.0
C1405 C 0.63995 0.81479 0.62029 0.0
C1406 C 0.64333 0.82042 0.63613 0.0
C1407 C 0.65784 0.83359 0.64129 0.0
C1408 C 0.66892 0.84095 0.63026 0.0
C1409 C 0.66553 0.83528 0.61444 0.0
C1410 C 0.65017 0.7941 0.59983 0.0
C1411 C 0.63907 0.77938 0.60422 0.0
C1412 C 0.64354 0.77145 0.61407 0.0
C1413 C 0.65917 0.77821 0.61981 0.0
C1414 C 0.67015 0.79316 0.61574 0.0
C1415 C 0.6657 0.80099 0.60578 0.0
C1416 C 0.64166 0.7817 0.56733 0.0
C1417 C 0.62738 0.76766 0.56481 0.0
C1418 C 0.62684 0.75408 0.56002 0.0
C1419 C 0.6406 0.75434 0.55771 0.0
C1420 C 0.65491 0.76847 0.56033 0.0
C1421 C 0.65542 0.78204 0.56509 0.0
C1422 C 0.63803 0.79917 0.54371 0.0
C1423 C 0.62347 0.78735 0.53689 0.0
C1424 C 0.62212 0.78055 0.52183 0.0
C1425 C 0.63529 0.78567 0.51331 0.0
C1426 C 0.64973 0.79798 0.51994 0.0
C1427 C 0.6511 0.80457 0.53508 0.0
C1428 C 0.63939 0.82775 0.55277 0.0
C1429 C 0.62513 0.82677 0.55032 0.0
C1430 C 0.62325 0.83559 0.53922 0.0
C1431 C 0.63568 0.8456 0.53052 0.0
C1432 C 0.64989 0.84638 0.53294 0.0
C1433 C 0.65172 0.83752 0.54396 0.0
C1434 C 0.66136 0.83957 0.65812 0.0
C1435 C 0.64009 0.73995 0.55257 0.0
H1436 H 0.16934 0.8094 0.69293 0.0
H1437 H 0.08565 0.69551 0.55158 0.0
H1438 H 0.17589 0.82501 0.61254 0.0
H1439 H 0.19729 0.84956 0.62506 0.0
H1440 H 0.23024 0.83936 0.60711 0.0
H1441 H 0.20866 0.81422 0.59524 0.0
H1442 H 0.15055 0.79935 0.62533 0.0
H1443 H 0.15486 0.80428 0.65403 0.0
H1444 H 0.19284 0.79648 0.65359 0.0
H1445 H 0.18827 0.79137 0.62489 0.0
H1446 H 0.1255 0.77662 0.59781 0.0
H1447 H 0.10446 0.76297 0.61483 0.0
H1448 H 0.13026 0.7458 0.63905 0.0
H1449 H 0.15123 0.75925 0.62149 0.0
H1450 H 0.12676 0.77254 0.5638 0.0
H1451 H 0.10381 0.74886 0.55164 0.0
H1452 H 0.1205 0.7217 0.57274 0.0
H1453 H 0.1435 0.74549 0.58467 0.0
H1454 H 0.1547 0.80096 0.55171 0.0
H1455 H 0.14627 0.79375 0.52369 0.0
H1456 H 0.15406 0.75594 0.52614 0.0
H1457 H 0.16244 0.76325 0.55427 0.0
H1458 H 0.17988 0.82823 0.57578 0.0
H1459 H 0.19689 0.84744 0.55817 0.0
H1460 H 0.21142 0.8166 0.54185 0.0
H1461 H 0.19447 0.79748 0.55965 0.0
O1462 O 0.1678 0.80733 0.68158 0.0
O1463 O 0.18726 0.80328 0.6807 0.0
O1464 O 0.0866 0.71956 0.5456 0.0
O1465 O 0.09461 0.70505 0.55625 0.0
C1466 C 0.17746 0.80264 0.59593 0.0
C1467 C 0.16645 0.79185 0.6056 0.0
C1468 C 0.15293 0.77838 0.59865 0.0
C1469 C 0.15094 0.77512 0.58214 0.0
C1470 C 0.16209 0.78571 0.57245 0.0
C1471 C 0.17517 0.79965 0.57932 0.0
C1472 C 0.19068 0.81767 0.60321 0.0
C1473 C 0.18769 0.82788 0.61156 0.0
C1474 C 0.19989 0.8419 0.61864 0.0
C1475 C 0.21532 0.84618 0.61714 0.0
C1476 C 0.21839 0.83619 0.60847 0.0
C1477 C 0.20613 0.82192 0.60169 0.0
C1478 C 0.169 0.79484 0.62305 0.0
C1479 C 0.1597 0.79857 0.63147 0.0
C1480 C 0.16223 0.80145 0.64786 0.0
C1481 C 0.17417 0.80074 0.65612 0.0
C1482 C 0.18352 0.79709 0.64761 0.0
C1483 C 0.18095 0.79417 0.63122 0.0
C1484 C 0.13986 0.76889 0.60839 0.0
C1485 C 0.12652 0.76972 0.60662 0.0
C1486 C 0.1146 0.76207 0.61649 0.0
C1487 C 0.1158 0.75349 0.62844 0.0
C1488 C 0.129 0.75229 0.62992 0.0
C1489 C 0.14097 0.75997 0.61996 0.0
C1490 C 0.13685 0.76073 0.57498 0.0
C1491 C 0.12548 0.76147 0.56569 0.0
C1492 C 0.11236 0.74793 0.55881 0.0
C1493 C 0.11034 0.73338 0.56118 0.0
C1494 C 0.12171 0.7327 0.57064 0.0
C1495 C 0.13484 0.74626 0.57749 0.0
C1496 C 0.1592 0.78265 0.55502 0.0
C1497 C 0.15496 0.79136 0.5461 0.0
C1498 C 0.15015 0.78722 0.53008 0.0
C1499 C 0.14943 0.77422 0.52269 0.0
C1500 C 0.15431 0.76589 0.53153 0.0
C1501 C 0.15918 0.7701 0.54756 0.0
C1502 C 0.18598 0.81148 0.56904 0.0
C1503 C 0.18689 0.82571 0.56856 0.0
C1504 C 0.19663 0.83667 0.55852 0.0
C1505 C 0.20548 0.83352 0.54864 0.0
C1506 C 0.20462 0.81928 0.54923 0.0
C1507 C 0.19499 0.80838 0.55939 0.0
C1508 C 0.17685 0.80385 0.67353 0.0
C1509 C 0.09645 0.71896 0.55385 0.0
H1510 H 0.20412 0.36702 0.70061 0.0
H1511 H 0.09532 0.36761 0.57416 0.0
H1512 H 0.21966 0.37989 0.6199 0.0
H1513 H 0.23702 0.37203 0.63079 0.0
H1514 H 0.2094 0.32769 0.60409 0.0
H1515 H 0.19171 0.33542 0.59388 0.0
H1516 H 0.19509 0.38477 0.63827 0.0
H1517 H 0.2004 0.38181 0.66586 0.0
H1518 H 0.18434 0.33373 0.65389 0.0
H1519 H 0.17891 0.33681 0.6264 0.0
H1520 H 0.16753 0.38843 0.62156 0.0
H1521 H 0.14857 0.38592 0.63999 0.0
H1522 H 0.13254 0.33745 0.6423 0.0
H1523 H 0.15134 0.34006 0.62397 0.0
H1524 H 0.17101 0.39367 0.58392 0.0
H1525 H 0.15013 0.39816 0.57653 0.0
H1526 H 0.11619 0.35113 0.5861 0.0
H1527 H 0.13717 0.34676 0.59328 0.0
H1528 H 0.19324 0.38939 0.56246 0.0
H1529 H 0.186 0.39029 0.53468 0.0
H1530 H 0.14424 0.3453 0.53607 0.0
H1531 H 0.1516 0.34447 0.56363 0.0
H1532 H 0.21943 0.38262 0.58036 0.0
H1533 H 0.233 0.38014 0.55843 0.0
H1534 H 0.19123 0.3372 0.54125 0.0
H1535 H 0.17784 0.33971 0.56321 0.0
O1536 O 0.2019 0.36792 0.68964 0.0
O1537 O 0.19361 0.3433 0.68286 0.0
O1538 O 0.1217 0.39019 0.57213 0.0
O1539 O 0.10379 0.36615 0.57698 0.0
C1540 C 0.19241 0.36194 0.60179 0.0
C1541 C 0.18356 0.36295 0.6136 0.0
C1542 C 0.17139 0.36541 0.60948 0.0
C1543 C 0.16833 0.36729 0.59362 0.0
C1544 C 0.17709 0.36621 0.58181 0.0
C1545 C 0.18905 0.3634 0.58586 0.0
C1546 C 0.20441 0.35822 0.60613 0.0
C1547 C 0.21752 0.36857 0.61623 0.0
C1548 C 0.22746 0.36407 0.62239 0.0
C1549 C 0.22454 0.34915 0.61843 0.0
C1550 C 0.21184 0.33914 0.60761 0.0
C1551 C 0.20183 0.34361 0.60158 0.0
C1552 C 0.18673 0.36104 0.63033 0.0
C1553 C 0.19271 0.37361 0.64165 0.0
C1554 C 0.19574 0.37188 0.65739 0.0
C1555 C 0.19283 0.35754 0.66207 0.0
C1556 C 0.18676 0.34495 0.65068 0.0
C1557 C 0.18369 0.34668 0.63496 0.0
C1558 C 0.16085 0.36444 0.6215 0.0
C1559 C 0.15999 0.37733 0.6262 0.0
C1560 C 0.14916 0.37587 0.63666 0.0
C1561 C 0.13913 0.36151 0.64267 0.0
C1562 C 0.14029 0.34874 0.63815 0.0
C1563 C 0.151 0.35018 0.62764 0.0
C1564 C 0.15559 0.36993 0.58922 0.0
C1565 C 0.15905 0.38436 0.58439 0.0
C1566 C 0.14711 0.38688 0.5802 0.0
C1567 C 0.13148 0.375 0.58076 0.0
C1568 C 0.12808 0.36053 0.58557 0.0
C1569 C 0.14004 0.35802 0.58972 0.0
C1570 C 0.17292 0.36688 0.56502 0.0
C1571 C 0.18256 0.37975 0.5567 0.0
C1572 C 0.17838 0.38026 0.54091 0.0
C1573 C 0.16459 0.36783 0.5332 0.0
C1574 C 0.15503 0.35495 0.54162 0.0
C1575 C 0.15915 0.3545 0.55737 0.0
C1576 C 0.19762 0.36144 0.57326 0.0
C1577 C 0.21329 0.37262 0.57193 0.0
C1578 C 0.22101 0.37116 0.55944 0.0
C1579 C 0.21312 0.35854 0.54806 0.0
C1580 C 0.19753 0.34718 0.54969 0.0
C1581 C 0.18988 0.34857 0.56222 0.0
C1582 C 0.19611 0.35576 0.67879 0.0
C1583 C 0.11875 0.37763 0.57635 0.0
H1584 H 0.95371 0.37301 0.05443 0.0
H1585 H 0.95519 0.38805 0.07825 0.0
H1586 H 0.00224 0.40007 0.08989 0.0
H1587 H 0.00085 0.3849 0.06614 0.0
H1588 H 0.98376 0.39205 0.11595 0.0
H1589 H 0.9804 0.43576 0.08169 0.0
H1590 H 0.96484 0.41612 0.07666 0.0
H1591 H 0.98435 0.42188 0.07289 0.0
C1592 C 0.96435 0.37873 0.0621 0.0
C1593 C 0.97722 0.37786 0.05829 0.0
C1594 C 0.96519 0.38739 0.07567 0.0
C1595 C 0.97892 0.39541 0.08563 0.0
C1596 C 0.99157 0.39404 0.08227 0.0
H1597 H 0.00789 0.47185 0.15503 0.0
H1598 H 0.0046 0.45489 0.13205 0.0
C1599 C 0.99074 0.38536 0.06869 0.0
C1600 C 0.98022 0.40556 0.09934 0.0
H1601 H 0.97948 0.43799 0.10937 0.0
C1602 C 0.98282 0.40209 0.11454 0.0
C1603 C 0.97921 0.41877 0.0974 0.0
C1604 C 0.97719 0.42348 0.08129 0.0
C1605 C 0.98424 0.41139 0.12793 0.0
C1606 C 0.98281 0.42436 0.12601 0.0
C1607 C 0.9804 0.42793 0.11079 0.0
C1608 C 0.9843 0.43468 0.13965 0.0
C1609 C 0.98759 0.40745 0.14397 0.0
C1610 C 0.97373 0.42902 0.15132 0.0
C1611 C 0.97561 0.43867 0.16448 0.0
C1612 C 0.98805 0.45417 0.16616 0.0
C1613 C 0.99831 0.45992 0.15417 0.0
C1614 C 0.99641 0.45027 0.14102 0.0
H1615 H 0.99198 0.3995 0.1431 0.0
H1616 H 0.99627 0.41808 0.15133 0.0
H1617 H 0.97673 0.40164 0.15008 0.0
H1618 H 0.96414 0.41709 0.15033 0.0
H1619 H 0.96759 0.43386 0.17357 0.0
H1620 H 0.61377 0.60562 0.10462 0.0
H1621 H 0.60061 0.59231 0.12762 0.0
H1622 H 0.61274 0.55813 0.11843 0.0
H1623 H 0.62587 0.57126 0.09549 0.0
H1624 H 0.57524 0.56048 0.12566 0.0
H1625 H 0.62474 0.57092 0.16647 0.0
H1626 H 0.62707 0.58278 0.15028 0.0
H1627 H 0.62484 0.56417 0.14667 0.0
C1628 C 0.61384 0.5954 0.10763 0.0
C1629 C 0.62084 0.58948 0.0982 0.0
C1630 C 0.60631 0.58782 0.12075 0.0
C1631 C 0.60586 0.57435 0.12478 0.0
C1632 C 0.61318 0.56865 0.11565 0.0
H1633 H 0.54334 0.49589 0.17331 0.0
H1634 H 0.55965 0.51459 0.15489 0.0
C1635 C 0.62059 0.57613 0.10248 0.0
C1636 C 0.59671 0.56547 0.13773 0.0
H1637 H 0.59944 0.55097 0.17245 0.0
C1638 C 0.58054 0.55855 0.13599 0.0
C1639 C 0.60368 0.56306 0.15121 0.0
C1640 C 0.62106 0.57073 0.1539 0.0
C1641 C 0.57107 0.54874 0.1471 0.0
C1642 C 0.57799 0.54578 0.1602 0.0
C1643 C 0.5942 0.55319 0.16229 0.0
C1644 C 0.56847 0.53455 0.17152 0.0
C1645 C 0.55372 0.54145 0.14467 0.0
C1646 C 0.56829 0.53963 0.18701 0.0
C1647 C 0.55897 0.52898 0.19755 0.0
C1648 C 0.54987 0.51308 0.1928 0.0
C1649 C 0.55033 0.50804 0.17734 0.0
C1650 C 0.55954 0.5187 0.16679 0.0
H1651 H 0.55051 0.54734 0.13592 0.0
H1652 H 0.54827 0.52914 0.14029 0.0
H1653 H 0.54886 0.54177 0.15598 0.0
H1654 H 0.57519 0.55183 0.19086 0.0
H1655 H 0.55894 0.53316 0.20944 0.0
H1656 H 0.41492 0.024 0.06734 0.0
H1657 H 0.43319 0.03205 0.09086 0.0
H1658 H 0.43196 0.98908 0.08568 0.0
H1659 H 0.41391 0.981 0.0623 0.0
H1660 H 0.42731 0.01605 0.11851 0.0
H1661 H 0.47857 0.02148 0.09222 0.0
H1662 H 0.46309 0.02136 0.08064 0.0
H1663 H 0.46099 0.00347 0.08608 0.0
C1664 C 0.4187 0.01636 0.07111 0.0
C1665 C 0.41294 0.00185 0.06293 0.0
C1666 C 0.42913 0.02098 0.08453 0.0
C1667 C 0.43412 0.01127 0.08984 0.0
C1668 C 0.42854 0.9969 0.08158 0.0
H1669 H 0.47473 0.9926 0.16763 0.0
H1670 H 0.46419 0.99513 0.14227 0.0
C1671 C 0.4181 0.99225 0.06827 0.0
C1672 C 0.44417 0.01541 0.10469 0.0
H1673 H 0.47718 0.01787 0.12005 0.0
C1674 C 0.43838 0.0168 0.11888 0.0
C1675 C 0.4586 0.01636 0.10508 0.0
C1676 C 0.46576 0.01575 0.09017 0.0
C1677 C 0.44615 0.0181 0.13352 0.0
C1678 C 0.46021 0.01828 0.13392 0.0
C1679 C 0.46638 0.01766 0.1197 0.0
C1680 C 0.46787 0.01763 0.1489 0.0
C1681 C 0.43879 0.01834 0.14843 0.0
C1682 C 0.47381 0.02964 0.1609 0.0
C1683 C 0.47976 0.02818 0.17547 0.0
C1684 C 0.47989 0.01469 0.17825 0.0
C1685 C 0.47455 0.00301 0.16595 0.0
C1686 C 0.46862 0.00448 0.15141 0.0
H1687 H 0.42661 0.0153 0.14599 0.0
H1688 H 0.4389 0.01014 0.1566 0.0
H1689 H 0.44553 0.03013 0.1545 0.0
H1690 H 0.47355 0.03999 0.1591 0.0
H1691 H 0.48372 0.03735 0.18474 0.0
H1692 H 0.40276 0.01177 0.97973 0.0
H1693 H 0.41415 0.01427 0.95448 0.0
H1694 H 0.3984 0.96573 0.95186 0.0
H1695 H 0.38698 0.96307 0.97703 0.0
H1696 H 0.43746 0.00732 0.94896 0.0
H1697 H 0.38483 0.97249 0.90763 0.0
H1698 H 0.38428 0.9801 0.92696 0.0
H1699 H 0.38524 0.96298 0.92485 0.0
C1700 C 0.40153 0.00157 0.97369 0.0
C1701 C 0.39397 0.98722 0.98042 0.0
C1702 C 0.40806 0.00304 0.95928 0.0
C1703 C 0.40696 0.99016 0.95125 0.0
C1704 C 0.39914 0.97576 0.95775 0.0
H1705 H 0.46269 0.98007 0.88574 0.0
H1706 H 0.44861 0.98056 0.90804 0.0
C1707 C 0.3927 0.97429 0.97219 0.0
C1708 C 0.41498 0.99193 0.93671 0.0
H1709 H 0.40902 0.97865 0.89798 0.0
C1710 C 0.43124 0.0012 0.93777 0.0
C1711 C 0.40681 0.98403 0.92212 0.0
C1712 C 0.38931 0.97444 0.92021 0.0
C1713 C 0.4396 0.00228 0.92474 0.0
C1714 C 0.43147 0.9938 0.91035 0.0
C1715 C 0.41519 0.98503 0.9091 0.0
C1716 C 0.43975 0.9934 0.89672 0.0
C1717 C 0.45709 0.01232 0.92647 0.0
C1718 C 0.4392 0.00024 0.8829 0.0
C1719 C 0.44723 -3e-05 0.87012 0.0
C1720 C 0.45577 0.99267 0.87092 0.0
C1721 C 0.4561 0.98565 0.88472 0.0
C1722 C 0.44817 0.98602 0.89751 0.0
H1723 H 0.46134 0.0207 0.93701 0.0
H1724 H 0.462 0.00487 0.92778 0.0
H1725 H 0.46153 0.01882 0.91583 0.0
H1726 H 0.43267 0.00591 0.88208 0.0
H1727 H 0.44667 0.00536 0.85958 0.0
H1728 H 0.02227 0.39684 0.98582 0.0
H1729 H 0.03256 0.41649 0.96635 0.0
H1730 H 0.98643 0.40685 0.95414 0.0
H1731 H 0.97611 0.38745 0.9733 0.0
H1732 H 0.02313 0.41312 0.93232 0.0
H1733 H 0.01326 0.45434 0.96613 0.0
H1734 H 0.01419 0.43899 0.97509 0.0
H1735 H 0.9966 0.43497 0.96433 0.0
C1736 C 0.01434 0.39891 0.97895 0.0
C1737 C 0.99838 0.39064 0.98123 0.0
C1738 C 0.02024 0.41012 0.96786 0.0
C1739 C 0.01027 0.41327 0.95905 0.0
C1740 C 0.99435 0.40478 0.96104 0.0
H1741 H 0.00151 0.44634 0.87309 0.0
H1742 H 0.00455 0.43246 0.8943 0.0
C1743 C 0.98847 0.39363 0.972 0.0
C1744 C 0.01613 0.42534 0.94761 0.0
H1745 H 0.01485 0.45694 0.9382 0.0
C1746 C 0.02167 0.42292 0.9337 0.0
C1747 C 0.01449 0.43825 0.94957 0.0
C1748 C 0.00946 0.44191 0.96467 0.0
C1749 C 0.0245 0.43248 0.92119 0.0
C1750 C 0.02142 0.44452 0.9226 0.0
C1751 C 0.01703 0.44761 0.937 0.0
C1752 C 0.02117 0.4531 0.90896 0.0
C1753 C 0.03043 0.42935 0.90648 0.0
C1754 C 0.02933 0.46935 0.91018 0.0
C1755 C 0.02734 0.47734 0.89818 0.0
C1756 C 0.01709 0.46921 0.88475 0.0
C1757 C 0.00934 0.45296 0.88335 0.0
C1758 C 0.01128 0.445 0.89537 0.0
H1759 H 0.03747 0.42416 0.90927 0.0
H1760 H 0.02041 0.42095 0.89821 0.0
H1761 H 0.0376 0.4401 0.90046 0.0
H1762 H 0.0369 0.47585 0.92064 0.0
H1763 H 0.03337 0.48984 0.89972 0.0
H1764 H 0.6072 0.58063 0.0088 0.0
H1765 H 0.59003 0.57577 0.98542 0.0
H1766 H 0.58479 0.61339 0.00148 0.0
H1767 H 0.60239 0.61864 0.02492 0.0
H1768 H 0.55986 0.56802 0.98218 0.0
H1769 H 0.59845 0.62446 0.95726 0.0
H1770 H 0.60498 0.61787 0.97355 0.0
H1771 H 0.59283 0.62555 0.97672 0.0
C1772 C 0.60242 0.58791 0.00744 0.0
C1773 C 0.60627 0.60011 0.01871 0.0
C1774 C 0.59255 0.58507 0.99405 0.0
C1775 C 0.58627 0.59432 0.99159 0.0
C1776 C 0.58975 0.6063 0.00299 0.0
H1777 H 0.51654 0.563 0.91007 0.0
H1778 H 0.5286 0.57205 0.93707 0.0
C1779 C 0.59974 0.60923 0.01641 0.0
C1780 C 0.57633 0.59137 0.9769 0.0
H1781 H 0.57532 0.60664 0.94214 0.0
C1782 C 0.56311 0.57651 0.97348 0.0
C1783 C 0.58068 0.60247 0.96556 0.0
C1784 C 0.59506 0.61845 0.96833 0.0
C1785 C 0.5545 0.5722 0.95877 0.0
C1786 C 0.55902 0.5832 0.94731 0.0
C1787 C 0.57185 0.59826 0.95098 0.0
C1788 C 0.55168 0.57886 0.93092 0.0
C1789 C 0.5412 0.55566 0.95535 0.0
C1790 C 0.56074 0.58026 0.91843 0.0
C1791 C 0.55396 0.57537 0.90301 0.0
C1792 C 0.53792 0.56888 0.89972 0.0
C1793 C 0.52892 0.56794 0.91219 0.0
C1794 C 0.53577 0.57295 0.92765 0.0
H1795 H 0.54134 0.54794 0.96416 0.0
H1796 H 0.53006 0.55521 0.95568 0.0
H1797 H 0.54156 0.55107 0.94343 0.0
H1798 H 0.57307 0.58488 0.92065 0.0
H1799 H 0.56132 0.57663 0.89366 0.0
H1800 H 0.0483 0.62878 0.01551 0.0
H1801 H 0.04676 0.61342 0.99194 0.0
H1802 H 0.9998 0.60158 0.98002 0.0
H1803 H 0.00131 0.61716 0.00341 0.0
H1804 H 0.02661 0.58225 0.98546 0.0
H1805 H 0.01908 0.61455 0.93834 0.0
H1806 H 0.02545 0.62257 0.95851 0.0
H1807 H 0.0052 0.60904 0.95286 0.0
C1808 C 0.0377 0.6231 0.00777 0.0
C1809 C 0.02492 0.62423 0.01136 0.0
C1810 C 0.03684 0.61429 0.99432 0.0
C1811 C 0.02323 0.60648 0.98414 0.0
C1812 C 0.01054 0.60777 0.98753 0.0
H1813 H 0.99104 0.54068 0.90274 0.0
H1814 H 0.99358 0.55704 0.92592 0.0
C1815 C 0.0114 0.61663 0.00096 0.0
C1816 C 0.02205 0.59629 0.97051 0.0
H1817 H 0.01479 0.5898 0.93047 0.0
C1818 C 0.02413 0.58397 0.97342 0.0
C1819 C 0.01879 0.59854 0.95483 0.0
C1820 C 0.01714 0.61197 0.95089 0.0
C1821 C 0.02275 0.57364 0.96109 0.0
C1822 C 0.01937 0.57582 0.94545 0.0
C1823 C 0.01734 0.58816 0.94251 0.0
C1824 C 0.01779 0.56536 0.93192 0.0
C1825 C 0.02456 0.56028 0.96493 0.0
C1826 C 0.03057 0.5646 0.92767 0.0
C1827 C 0.02915 0.55519 0.91446 0.0
C1828 C 0.0149 0.54639 0.9053 0.0
C1829 C 0.00209 0.54708 0.90972 0.0
C1830 C 0.00355 0.55652 0.92287 0.0
H1831 H 0.02369 0.55824 0.97767 0.0
H1832 H 0.0156 0.54948 0.95797 0.0
H1833 H 0.03613 0.56285 0.96181 0.0
H1834 H 0.04172 0.5715 0.93439 0.0
H1835 H 0.03921 0.55489 0.91135 0.0
H1836 H 0.39397 0.40326 0.96371 0.0
H1837 H 0.40828 0.41869 0.94225 0.0
H1838 H 0.39166 0.44933 0.95128 0.0
H1839 H 0.37774 0.43429 0.97301 0.0
H1840 H 0.4004 0.42713 0.91498 0.0
H1841 H 0.4382 0.47894 0.95597 0.0
H1842 H 0.42534 0.4601 0.96281 0.0
H1843 H 0.41794 0.47194 0.95668 0.0
C1844 C 0.39325 0.4132 0.96103 0.0
C1845 C 0.38491 0.41769 0.97021 0.0
C1846 C 0.40143 0.42201 0.94877 0.0
C1847 C 0.40134 0.43538 0.94544 0.0
C1848 C 0.39226 0.43932 0.95396 0.0
H1849 H 0.43706 0.48804 0.86297 0.0
H1850 H 0.42046 0.47091 0.88222 0.0
C1851 C 0.38423 0.43066 0.96631 0.0
C1852 C 0.4112 0.44552 0.93348 0.0
H1853 H 0.44034 0.48252 0.92864 0.0
C1854 C 0.40917 0.43924 0.91794 0.0
C1855 C 0.42282 0.46124 0.93746 0.0
C1856 C 0.42634 0.46843 0.95417 0.0
C1857 C 0.41831 0.44832 0.90621 0.0
C1858 C 0.42951 0.46419 0.91007 0.0
C1859 C 0.43164 0.4704 0.92565 0.0
C1860 C 0.43949 0.47454 0.89829 0.0
C1861 C 0.41612 0.44072 0.88992 0.0
C1862 C 0.4557 0.48272 0.90117 0.0
C1863 C 0.46522 0.49282 0.8904 0.0
C1864 C 0.45874 0.49494 0.87645 0.0
C1865 C 0.44246 0.48681 0.87364 0.0
C1866 C 0.43294 0.4768 0.88452 0.0
H1867 H 0.41053 0.42797 0.89012 0.0
H1868 H 0.40848 0.44296 0.88221 0.0
H1869 H 0.42738 0.44543 0.88461 0.0
H1870 H 0.46101 0.48128 0.9118 0.0
H1871 H 0.47768 0.4991 0.89311 0.0
H1872 H 0.59063 0.02567 0.0056 0.0
H1873 H 0.57283 0.01639 0.98189 0.0
H1874 H 0.57413 0.97469 0.97851 0.0
H1875 H 0.59214 0.98396 0.00234 0.0
H1876 H 0.57993 0.98984 0.95055 0.0
H1877 H 0.52681 0.98236 0.97431 0.0
H1878 H 0.54376 0.00089 0.98045 0.0
H1879 H 0.54244 0.98356 0.98671 0.0
C1880 C 0.58702 0.01443 0.99996 0.0
C1881 C 0.59285 0.00557 0.00587 0.0
C1882 C 0.57673 0.00909 0.98646 0.0
C1883 C 0.57197 0.99475 0.97858 0.0
C1884 C 0.57756 0.98573 0.98453 0.0
H1885 H 0.50612 0.96411 0.89405 0.0
H1886 H 0.51827 0.96357 0.91952 0.0
C1887 C 0.58783 0.99104 0.99814 0.0
C1888 C 0.56225 0.98998 0.96343 0.0
H1889 H 0.5288 0.98548 0.9464 0.0
C1890 C 0.56862 0.9886 0.94966 0.0
C1891 C 0.54742 0.98817 0.9623 0.0
C1892 C 0.53963 0.98867 0.97675 0.0
C1893 C 0.56098 0.98641 0.93472 0.0
C1894 C 0.5467 0.98577 0.93354 0.0
C1895 C 0.53986 0.98617 0.94733 0.0
C1896 C 0.5393 0.98585 0.91813 0.0
C1897 C 0.56841 0.98515 0.92028 0.0
C1898 C 0.54702 0.99865 0.90909 0.0
C1899 C 0.54013 0.99901 0.89463 0.0
C1900 C 0.52535 0.98658 0.88894 0.0
C1901 C 0.51757 0.9738 0.89808 0.0
C1902 C 0.52446 0.97349 0.91262 0.0
H1903 H 0.57666 0.98136 0.92316 0.0
H1904 H 0.55951 0.97688 0.91097 0.0
H1905 H 0.575 0.99667 0.91545 0.0
H1906 H 0.55838 0.00842 0.91325 0.0
H1907 H 0.54651 0.00893 0.8878 0.0
H1908 H 0.6058 0.99983 0.09039 0.0
H1909 H 0.59386 0.99768 0.11521 0.0
H1910 H 0.60651 0.04528 0.11488 0.0
H1911 H 0.61823 0.0475 0.08996 0.0
H1912 H 0.60536 0.01411 0.14489 0.0
H1913 H 0.55946 0.02188 0.11708 0.0
H1914 H 0.57181 0.0181 0.10568 0.0
H1915 H 0.57886 0.03727 0.11435 0.0
C1916 C 0.60614 0.00989 0.09564 0.0
C1917 C 0.61281 0.02379 0.08807 0.0
C1918 C 0.59932 0.00863 0.10983 0.0
C1919 C 0.59903 0.02122 0.1167 0.0
C1920 C 0.6063 0.03532 0.10958 0.0
H1921 H 0.55702 0.03492 0.19682 0.0
H1922 H 0.57275 0.03817 0.17473 0.0
C1923 C 0.61306 0.03658 0.09536 0.0
C1924 C 0.59069 0.01949 0.13103 0.0
H1925 H 0.56073 0.02146 0.1449 0.0
C1926 C 0.59558 0.01567 0.14491 0.0
C1927 C 0.57788 0.02146 0.13097 0.0
C1928 C 0.57157 0.02476 0.1162 0.0
C1929 C 0.58816 0.01408 0.15885 0.0
C1930 C 0.57545 0.01618 0.1588 0.0
C1931 C 0.57055 0.01995 0.14491 0.0
C1932 C 0.56689 0.01439 0.17295 0.0
C1933 C 0.59414 0.01043 0.17359 0.0
C1934 C 0.5584 -5e-05 0.17926 0.0
C1935 C 0.54943 0.99806 0.19191 0.0
C1936 C 0.54877 0.0106 0.19845 0.0
C1937 C 0.55746 0.0251 0.19221 0.0
C1938 C 0.56638 0.02696 0.17954 0.0
H1939 H 0.60606 0.01277 0.17269 0.0
H1940 H 0.5942 0.01729 0.18409 0.0
H1941 H 0.58639 0.99798 0.17548 0.0
H1942 H 0.55844 0.99004 0.17417 0.0
H1943 H 0.54294 0.98677 0.19652 0.0
H1944 H 0.02599 0.62744 0.1044 0.0
H1945 H 0.01729 0.60782 0.12349 0.0
H1946 H 0.9732 0.5803 0.09619 0.0
H1947 H 0.98176 0.60025 0.07707 0.0
H1948 H 0.9711 0.57968 0.12967 0.0
H1949 H 0.01528 0.56747 0.11078 0.0
H1950 H 0.02354 0.58753 0.1169 0.0
H1951 H 0.00981 0.57897 0.09983 0.0
C1952 C 0.01435 0.61732 0.10255 0.0
C1953 C 0.00463 0.61525 0.08913 0.0
C1954 C 0.00941 0.60611 0.11345 0.0
C1955 C 0.99477 0.59244 0.11102 0.0
C1956 C 0.9846 0.59073 0.09819 0.0
H1957 H 0.98583 0.51569 0.16167 0.0
H1958 H 0.98355 0.53032 0.14063 0.0
C1959 C 0.98949 0.60212 0.0873 0.0
C1960 C 0.99078 0.57967 0.12135 0.0
H1961 H 0.0046 0.55776 0.13513 0.0
C1962 C 0.97826 0.5747 0.13076 0.0
C1963 C 0.9999 0.57291 0.12246 0.0
C1964 C 0.01277 0.57686 0.11183 0.0
C1965 C 0.97513 0.5637 0.14185 0.0
C1966 C 0.98502 0.55784 0.14379 0.0
C1967 C 0.99707 0.56231 0.13381 0.0
C1968 C 0.98374 0.54763 0.15645 0.0
C1969 C 0.96124 0.55847 0.1513 0.0
C1970 C 0.9843 0.55227 0.17237 0.0
C1971 C 0.98532 0.54375 0.18438 0.0
C1972 C 0.9862 0.53067 0.18068 0.0
C1973 C 0.98524 0.5258 0.16479 0.0
C1974 C 0.98392 0.53413 0.15279 0.0
H1975 H 0.95207 0.55941 0.14472 0.0
H1976 H 0.95621 0.54632 0.15438 0.0
H1977 H 0.96486 0.56605 0.16238 0.0
H1978 H 0.98467 0.56287 0.17557 0.0
H1979 H 0.98622 0.54781 0.19657 0.0
H1980 H 0.40081 0.42388 0.05749 0.0
H1981 H 0.41842 0.42809 0.08027 0.0
H1982 H 0.41945 0.3879 0.06441 0.0
H1983 H 0.4017 0.38352 0.04135 0.0
H1984 H 0.41188 0.40547 0.10325 0.0
H1985 H 0.46633 0.4239 0.07412 0.0
H1986 H 0.4505 0.4249 0.06485 0.0
H1987 H 0.44882 0.40653 0.06605 0.0
C1988 C 0.40481 0.41594 0.05872 0.0
C1989 C 0.3998 0.40333 0.04757 0.0
C1990 C 0.41489 0.41839 0.07177 0.0
C1991 C 0.42029 0.40837 0.07395 0.0
C1992 C 0.41553 0.39586 0.06281 0.0
H1993 H 0.46367 0.41102 0.1666 0.0
H1994 H 0.44912 0.40128 0.14074 0.0
C1995 C 0.40535 0.39335 0.04969 0.0
C1996 C 0.43032 0.41082 0.08836 0.0
H1997 H 0.46773 0.4238 0.10185 0.0
C1998 C 0.42405 0.40929 0.10297 0.0
C1999 C 0.44619 0.41591 0.08787 0.0
C2000 C 0.45349 0.41802 0.07242 0.0
C2001 C 0.43331 0.4131 0.11718 0.0
C2002 C 0.44924 0.41839 0.11673 0.0
C2003 C 0.45548 0.41962 0.10211 0.0
C2004 C 0.45973 0.4238 0.13138 0.0
C2005 C 0.42611 0.41207 0.13255 0.0
C2006 C 0.47101 0.43959 0.13439 0.0
C2007 C 0.47944 0.44519 0.1491 0.0
C2008 C 0.47678 0.43507 0.16104 0.0
C2009 C 0.4661 0.41911 0.15764 0.0
C2010 C 0.45767 0.41353 0.14292 0.0
H2011 H 0.41447 0.41059 0.13073 0.0
H2012 H 0.42476 0.40198 0.13854 0.0
H2013 H 0.43369 0.42263 0.14053 0.0
H2014 H 0.47279 0.44768 0.1256 0.0
H2015 H 0.48773 0.4575 0.1513 0.0
H2016 H 0.65749 0.71482 0.39862 0.0
H2017 H 0.65465 0.72573 0.42345 0.0
H2018 H 0.62374 0.73664 0.3989 0.0
H2019 H 0.62607 0.7253 0.37422 0.0
H2020 H 0.66234 0.75434 0.43176 0.0
H2021 H 0.59905 0.71557 0.43511 0.0
H2022 H 0.60962 0.71156 0.42126 0.0
H2023 H 0.60349 0.72486 0.41696 0.0
C2024 C 0.64997 0.71941 0.39855 0.0
C2025 C 0.64192 0.71909 0.38447 0.0
C2026 C 0.64837 0.72565 0.41274 0.0
C2027 C 0.63874 0.73173 0.41311 0.0
C2028 C 0.63085 0.73159 0.39902 0.0
H2029 H 0.64711 0.7985 0.48588 0.0
H2030 H 0.64746 0.78519 0.46146 0.0
C2031 C 0.63229 0.72519 0.38489 0.0
C2032 C 0.63754 0.73891 0.42805 0.0
H2033 H 0.6116 0.73882 0.45221 0.0
C2034 C 0.65125 0.75086 0.4363 0.0
C2035 C 0.62308 0.73423 0.43411 0.0
C2036 C 0.608 0.72074 0.42649 0.0
C2037 C 0.6509 0.75846 0.45023 0.0
C2038 C 0.63639 0.75434 0.45581 0.0
C2039 C 0.6227 0.74216 0.44778 0.0
C2040 C 0.63522 0.76232 0.47015 0.0
C2041 C 0.6661 0.77062 0.45896 0.0
C2042 C 0.62752 0.75382 0.48285 0.0
C2043 C 0.62705 0.76137 0.49668 0.0
C2044 C 0.63433 0.77757 0.49807 0.0
C2045 C 0.64157 0.78602 0.48517 0.0
C2046 C 0.64187 0.77844 0.47127 0.0
H2047 H 0.67575 0.76907 0.45592 0.0
H2048 H 0.66904 0.78224 0.4556 0.0
H2049 H 0.66538 0.77033 0.47193 0.0
H2050 H 0.62223 0.74137 0.48222 0.0
H2051 H 0.6215 0.7546 0.5065 0.0
H2052 H 0.28058 0.89771 0.43373 0.0
H2053 H 0.26932 0.88611 0.45795 0.0
H2054 H 0.26281 0.92383 0.46969 0.0
H2055 H 0.27413 0.93563 0.44535 0.0
H2056 H 0.27774 0.89921 0.4912 0.0
H2057 H 0.21849 0.8827 0.46715 0.0
H2058 H 0.23407 0.88783 0.4546 0.0
H2059 H 0.23395 0.9026 0.46667 0.0
C2060 C 0.27689 0.90365 0.4415 0.0
C2061 C 0.27812 0.91753 0.43753 0.0
C2062 C 0.27052 0.89702 0.45537 0.0
C2063 C 0.26513 0.90405 0.46549 0.0
C2064 C 0.26682 0.91819 0.46192 0.0
H2065 H 0.22504 0.86492 0.55407 0.0
H2066 H 0.24021 0.88354 0.53495 0.0
C2067 C 0.27332 0.92492 0.44806 0.0
C2068 C 0.25694 0.89594 0.47921 0.0
H2069 H 0.22061 0.87393 0.49173 0.0
C2070 C 0.26529 0.89387 0.49148 0.0
C2071 C 0.24068 0.88888 0.47937 0.0
C2072 C 0.23117 0.89047 0.46624 0.0
C2073 C 0.25771 0.88462 0.5038 0.0
C2074 C 0.24142 0.87729 0.50376 0.0
C2075 C 0.23313 0.87965 0.49169 0.0
C2076 C 0.23262 0.8662 0.51548 0.0
C2077 C 0.26702 0.88219 0.51645 0.0
C2078 C 0.22334 0.85036 0.51078 0.0
C2079 C 0.21472 0.83974 0.52162 0.0
C2080 C 0.21513 0.8448 0.53734 0.0
C2081 C 0.22445 0.86071 0.54202 0.0
C2082 C 0.23317 0.87133 0.53116 0.0
H2083 H 0.27935 0.8874 0.51387 0.0
H2084 H 0.26668 0.88751 0.52793 0.0
H2085 H 0.26185 0.86962 0.5177 0.0
H2086 H 0.22275 0.84623 0.49869 0.0
H2087 H 0.20749 0.82759 0.51763 0.0
H2088 H 0.09141 0.32067 0.40309 0.0
H2089 H 0.10959 0.33148 0.42652 0.0
H2090 H 0.11498 0.376 0.42117 0.0
H2091 H 0.09653 0.3652 0.39766 0.0
H2092 H 0.1408 0.35674 0.43072 0.0
H2093 H 0.10142 0.36616 0.46632 0.0
H2094 H 0.09465 0.35427 0.44796 0.0
H2095 H 0.10601 0.37498 0.44785 0.0
C2096 C 0.09647 0.33278 0.40681 0.0
C2097 C 0.09239 0.34203 0.39855 0.0
C2098 C 0.10691 0.33895 0.4202 0.0
C2099 C 0.11349 0.35447 0.42568 0.0
C2100 C 0.10984 0.36392 0.41725 0.0
H2101 H 0.16488 0.3917 0.51901 0.0
H2102 H 0.1551 0.39134 0.49192 0.0
C2103 C 0.09936 0.35774 0.40379 0.0
C2104 C 0.12371 0.36038 0.44054 0.0
H2105 H 0.12456 0.37087 0.47934 0.0
C2106 C 0.13737 0.36005 0.44131 0.0
C2107 C 0.11924 0.36476 0.45431 0.0
C2108 C 0.1045 0.36501 0.45421 0.0
C2109 C 0.1464 0.36341 0.45562 0.0
C2110 C 0.14148 0.36696 0.46955 0.0
C2111 C 0.12828 0.36812 0.46863 0.0
C2112 C 0.14884 0.36788 0.48536 0.0
C2113 C 0.16097 0.36284 0.45577 0.0
C2114 C 0.14857 0.35484 0.49061 0.0
C2115 C 0.1541 0.35501 0.506 0.0
C2116 C 0.15995 0.36821 0.5165 0.0
C2117 C 0.16057 0.38142 0.51113 0.0
C2118 C 0.15494 0.38121 0.4957 0.0
H2119 H 0.16576 0.36498 0.44403 0.0
H2120 H 0.17002 0.3715 0.46474 0.0
H2121 H 0.15818 0.35116 0.4587 0.0
H2122 H 0.14364 0.34433 0.48293 0.0
H2123 H 0.15359 0.34471 0.50977 0.0
H2124 H 0.06666 0.29444 0.31851 0.0
H2125 H 0.07562 0.29313 0.29272 0.0
H2126 H 0.08439 0.33857 0.28481 0.0
H2127 H 0.0753 0.33998 0.31059 0.0
H2128 H 0.06914 0.31624 0.25831 0.0
H2129 H 0.12183 0.31841 0.28359 0.0
H2130 H 0.10396 0.30352 0.29055 0.0
H2131 H 0.11053 0.32352 0.29521 0.0
C2132 C 0.07044 0.30416 0.31129 0.0
C2133 C 0.07038 0.31738 0.31669 0.0
C2134 C 0.0756 0.3034 0.29658 0.0
C2135 C 0.08088 0.31585 0.287 0.0
C2136 C 0.08043 0.32887 0.29209 0.0
H2137 H 0.13748 0.33077 0.20876 0.0
H2138 H 0.12649 0.33358 0.23262 0.0
C2139 C 0.07526 0.32966 0.30683 0.0
C2140 C 0.08715 0.31536 0.2718 0.0
H2141 H 0.11612 0.31299 0.25591 0.0
C2142 C 0.07944 0.31559 0.25775 0.0
C2143 C 0.10069 0.3147 0.27116 0.0
C2144 C 0.10985 0.31516 0.28593 0.0
C2145 C 0.08477 0.31486 0.24301 0.0
C2146 C 0.09804 0.31371 0.24237 0.0
C2147 C 0.10588 0.31377 0.25644 0.0
C2148 C 0.10411 0.31251 0.22725 0.0
C2149 C 0.0763 0.31552 0.22828 0.0
C2150 C 0.09513 0.29975 0.21629 0.0
C2151 C 0.10135 0.29816 0.20255 0.0
C2152 C 0.11668 0.30928 0.19958 0.0
C2153 C 0.12555 0.32214 0.21053 0.0
C2154 C 0.11933 0.32371 0.22424 0.0
H2155 H 0.06898 0.32035 0.23095 0.0
H2156 H 0.08459 0.32267 0.21967 0.0
H2157 H 0.06859 0.30364 0.22264 0.0
H2158 H 0.08345 0.29083 0.21852 0.0
H2159 H 0.0942 0.28817 0.19432 0.0
H2160 H 0.65525 0.72831 0.29573 0.0
H2161 H 0.66979 0.74843 0.2781 0.0
H2162 H 0.71248 0.76219 0.30558 0.0
H2163 H 0.69788 0.74176 0.32351 0.0
H2164 H 0.68972 0.78142 0.29037 0.0
H2165 H 0.7199 0.75819 0.25677 0.0
H2166 H 0.7023 0.74543 0.26591 0.0
H2167 H 0.71999 0.75776 0.27795 0.0
C2168 C 0.66775 0.73548 0.29804 0.0
C2169 C 0.67539 0.73351 0.31113 0.0
C2170 C 0.67604 0.74697 0.28791 0.0
C2171 C 0.69216 0.75678 0.29057 0.0
C2172 C 0.70002 0.75463 0.3033 0.0
H2173 H 0.72572 0.83749 0.23393 0.0
H2174 H 0.72632 0.82286 0.25587 0.0
C2175 C 0.69167 0.743 0.31352 0.0
C2176 C 0.70022 0.76973 0.28035 0.0
H2177 H 0.71994 0.77964 0.24719 0.0
C2178 C 0.69667 0.78132 0.28114 0.0
C2179 C 0.70916 0.7694 0.26833 0.0
C2180 C 0.71312 0.75705 0.26704 0.0
C2181 C 0.70095 0.79202 0.26961 0.0
C2182 C 0.70929 0.79128 0.25711 0.0
C2183 C 0.71363 0.78023 0.25683 0.0
C2184 C 0.71162 0.80042 0.24321 0.0
C2185 C 0.69548 0.80326 0.27029 0.0
C2186 C 0.70388 0.79269 0.22858 0.0
C2187 C 0.70368 0.801 0.21598 0.0
C2188 C 0.71119 0.81722 0.21778 0.0
C2189 C 0.71982 0.82501 0.23214 0.0
C2190 C 0.72007 0.81667 0.24474 0.0
H2191 H 0.68689 0.80048 0.27918 0.0
H2192 H 0.70556 0.81512 0.27351 0.0
H2193 H 0.6901 0.80328 0.25861 0.0
H2194 H 0.69734 0.78015 0.22712 0.0
H2195 H 0.69722 0.79467 0.20497 0.0
H2196 H 0.2679 0.9534 0.35788 0.0
H2197 H 0.25184 0.94987 0.33372 0.0
H2198 H 0.23052 0.90037 0.33376 0.0
H2199 H 0.24677 0.90382 0.35754 0.0
H2200 H 0.24252 0.91081 0.30649 0.0
H2201 H 0.20657 0.93493 0.32232 0.0
H2202 H 0.22698 0.948 0.32735 0.0
H2203 H 0.2167 0.93028 0.33698 0.0
C2204 C 0.25954 0.94176 0.35291 0.0
C2205 C 0.25869 0.92889 0.35951 0.0
C2206 C 0.2503 0.93975 0.33915 0.0
C2207 C 0.2399 0.92484 0.33197 0.0
C2208 C 0.23847 0.91198 0.33908 0.0
H2209 H 0.17541 0.89481 0.24803 0.0
H2210 H 0.18696 0.90114 0.27539 0.0
C2211 C 0.24779 0.91397 0.35266 0.0
C2212 C 0.2319 0.9226 0.31613 0.0
H2213 H 0.20704 0.9296 0.29481 0.0
C2214 C 0.23469 0.91485 0.304 0.0
C2215 C 0.22162 0.9278 0.31288 0.0
C2216 C 0.21765 0.93559 0.3256 0.0
C2217 C 0.22763 0.91225 0.28871 0.0
C2218 C 0.21778 0.91789 0.2853 0.0
C2219 C 0.21475 0.92546 0.29744 0.0
C2220 C 0.21054 0.91587 0.26914 0.0
C2221 C 0.23063 0.90326 0.27637 0.0
C2222 C 0.21992 0.9225 0.25668 0.0
C2223 C 0.2134 0.91884 0.24113 0.0
C2224 C 0.19734 0.9086 0.23775 0.0
C2225 C 0.18782 0.90274 0.25031 0.0
C2226 C 0.19439 0.90633 0.26591 0.0
H2227 H 0.2351 0.89643 0.28177 0.0
H2228 H 0.21989 0.89525 0.26872 0.0
H2229 H 0.23948 0.91147 0.26879 0.0
H2230 H 0.23238 0.93011 0.25896 0.0
H2231 H 0.22096 0.92375 0.23169 0.0
H2232 H 0.67603 0.94796 0.33764 0.0
H2233 H 0.67859 0.93551 0.31372 0.0
H2234 H 0.71407 0.93125 0.33859 0.0
H2235 H 0.71172 0.94373 0.36248 0.0
H2236 H 0.7091 0.94576 0.29841 0.0
H2237 H 0.67838 0.88613 0.31878 0.0
H2238 H 0.67542 0.90105 0.32668 0.0
H2239 H 0.69291 0.90151 0.33243 0.0
C2240 C 0.68439 0.9444 0.33802 0.0
C2241 C 0.69365 0.94681 0.35198 0.0
C2242 C 0.68585 0.93732 0.32436 0.0
C2243 C 0.69644 0.93241 0.3245 0.0
C2244 C 0.70576 0.93489 0.33834 0.0
H2245 H 0.72867 0.90076 0.24713 0.0
H2246 H 0.72709 0.91344 0.27143 0.0
C2247 C 0.70441 0.94205 0.35195 0.0
C2248 C 0.69778 0.92465 0.3102 0.0
H2249 H 0.68963 0.88956 0.29446 0.0
C2250 C 0.70487 0.93349 0.2975 0.0
C2251 C 0.69217 0.90864 0.30914 0.0
C2252 C 0.68419 0.89867 0.32241 0.0
C2253 C 0.70661 0.92669 0.28373 0.0
C2254 C 0.70113 0.9107 0.28273 0.0
C2255 C 0.69392 0.90185 0.29538 0.0
C2256 C 0.70218 0.90283 0.26833 0.0
C2257 C 0.71404 0.93654 0.27022 0.0
C2258 C 0.68867 0.89253 0.25875 0.0
C2259 C 0.68953 0.8854 0.24484 0.0
C2260 C 0.70392 0.88828 0.24032 0.0
C2261 C 0.71743 0.89841 0.25016 0.0
C2262 C 0.71656 0.90563 0.26405 0.0
H2263 H 0.71553 0.94814 0.27193 0.0
H2264 H 0.72565 0.93815 0.26917 0.0
H2265 H 0.70694 0.9307 0.25894 0.0
H2266 H 0.67748 0.89028 0.26188 0.0
H2267 H 0.67892 0.87795 0.23742 0.0
H2268 H 0.05316 0.77727 0.32016 0.0
H2269 H 0.06571 0.79227 0.29792 0.0
H2270 H 0.07453 0.75721 0.28136 0.0
H2271 H 0.06175 0.74194 0.30349 0.0
H2272 H 0.09613 0.80411 0.29163 0.0
H2273 H 0.05607 0.76454 0.24137 0.0
H2274 H 0.05083 0.76226 0.2615 0.0
H2275 H 0.06313 0.75583 0.25459 0.0
C2276 C 0.05762 0.77264 0.31172 0.0
C2277 C 0.05644 0.75839 0.31362 0.0
C2278 C 0.06479 0.78124 0.29901 0.0
C2279 C 0.0709 0.77578 0.2879 0.0
C2280 C 0.06962 0.76149 0.28963 0.0
H2281 H 0.12661 0.81649 0.20918 0.0
H2282 H 0.1118 0.79972 0.22964 0.0
C2283 C 0.06238 0.75282 0.30233 0.0
C2284 C 0.07939 0.78553 0.27507 0.0
H2285 H 0.07972 0.78652 0.23502 0.0
C2286 C 0.0925 0.8003 0.27925 0.0
C2287 C 0.07465 0.78049 0.25894 0.0
C2288 C 0.06032 0.76497 0.25378 0.0
C2289 C 0.10111 0.81012 0.26773 0.0
C2290 C 0.09635 0.8051 0.25161 0.0
C2291 C 0.0833 0.79031 0.2474 0.0
C2292 C 0.10487 0.81507 0.23896 0.0
C2293 C 0.11542 0.82566 0.2729 0.0
C2294 C 0.10565 0.82913 0.2373 0.0
C2295 C 0.11415 0.83877 0.22569 0.0
C2296 C 0.12199 0.83449 0.21551 0.0
C2297 C 0.1209 0.82022 0.21701 0.0
C2298 C 0.11237 0.81058 0.2286 0.0
H2299 H 0.11952 0.82623 0.2854 0.0
H2300 H 0.125 0.82823 0.26536 0.0
H2301 H 0.11268 0.83482 0.27175 0.0
H2302 H 0.09975 0.83269 0.24506 0.0
H2303 H 0.11483 0.84971 0.22489 0.0
H2304 H 0.24982 0.3085 0.33727 0.0
H2305 H 0.23179 0.29698 0.31349 0.0
H2306 H 0.2317 0.3391 0.30986 0.0
H2307 H 0.24945 0.35061 0.33356 0.0
H2308 H 0.20193 0.31176 0.30431 0.0
H2309 H 0.24609 0.31039 0.2691 0.0
H2310 H 0.24197 0.30066 0.28706 0.0
H2311 H 0.2512 0.32134 0.28794 0.0
C2312 C 0.24584 0.31526 0.33149 0.0
C2313 C 0.25119 0.33054 0.33726 0.0
C2314 C 0.2356 0.30868 0.31787 0.0
C2315 C 0.23057 0.31727 0.30982 0.0
C2316 C 0.23545 0.33228 0.31588 0.0
H2317 H 0.20287 0.32235 0.21659 0.0
H2318 H 0.21488 0.32417 0.24278 0.0
C2319 C 0.24567 0.33886 0.32942 0.0
C2320 C 0.22081 0.31113 0.29467 0.0
H2321 H 0.22225 0.3032 0.25567 0.0
C2322 C 0.20623 0.30963 0.29369 0.0
C2323 C 0.22656 0.3085 0.28086 0.0
C2324 C 0.24234 0.31038 0.28115 0.0
C2325 C 0.19746 0.30613 0.27916 0.0
C2326 C 0.20341 0.30392 0.26529 0.0
C2327 C 0.21772 0.30484 0.26636 0.0
C2328 C 0.19585 0.30237 0.24941 0.0
C2329 C 0.18232 0.30562 0.2786 0.0
C2330 C 0.18117 0.28943 0.24441 0.0
C2331 C 0.17418 0.2884 0.22941 0.0
C2332 C 0.18178 0.30032 0.21922 0.0
C2333 C 0.19656 0.31313 0.22426 0.0
C2334 C 0.20351 0.31413 0.23917 0.0
H2335 H 0.18054 0.30992 0.29001 0.0
H2336 H 0.18187 0.31267 0.26918 0.0
H2337 H 0.17256 0.2935 0.27582 0.0
H2338 H 0.17514 0.28014 0.25207 0.0
H2339 H 0.16279 0.27839 0.22587 0.0
H2340 H 0.27048 0.37477 0.41678 0.0
H2341 H 0.26175 0.37476 0.44295 0.0
H2342 H 0.26502 0.33523 0.45276 0.0
H2343 H 0.27344 0.3349 0.42634 0.0
H2344 H 0.23804 0.33137 0.46085 0.0
H2345 H 0.28606 0.38893 0.48542 0.0
H2346 H 0.27743 0.39013 0.46706 0.0
H2347 H 0.2872 0.37959 0.46752 0.0
C2348 C 0.26948 0.36613 0.42452 0.0
C2349 C 0.2727 0.35485 0.41946 0.0
C2350 C 0.2646 0.36623 0.43955 0.0
C2351 C 0.26304 0.3552 0.44995 0.0
C2352 C 0.26627 0.34393 0.44497 0.0
H2353 H 0.24235 0.36343 0.54754 0.0
H2354 H 0.25503 0.36158 0.52448 0.0
C2355 C 0.27107 0.34376 0.42987 0.0
C2356 C 0.25713 0.35493 0.46561 0.0
H2357 H 0.26248 0.37786 0.49863 0.0
C2358 C 0.2435 0.34147 0.46921 0.0
C2359 C 0.2644 0.368 0.47666 0.0
C2360 C 0.27967 0.38241 0.47405 0.0
C2361 C 0.23655 0.34096 0.48321 0.0
C2362 C 0.24321 0.35441 0.4937 0.0
C2363 C 0.25724 0.36763 0.49047 0.0
C2364 C 0.23548 0.35521 0.50773 0.0
C2365 C 0.22213 0.32602 0.48658 0.0
C2366 C 0.22041 0.35249 0.50594 0.0
C2367 C 0.21316 0.35348 0.51905 0.0
C2368 C 0.22091 0.35742 0.53422 0.0
C2369 C 0.23612 0.36041 0.53599 0.0
C2370 C 0.24334 0.35931 0.52285 0.0
H2371 H 0.22156 0.31587 0.48045 0.0
H2372 H 0.22164 0.32447 0.49943 0.0
H2373 H 0.21174 0.32618 0.48221 0.0
H2374 H 0.21431 0.34979 0.49435 0.0
H2375 H 0.20156 0.35144 0.51728 0.0
H2376 H 0.68245 0.94548 0.44256 0.0
H2377 H 0.66858 0.92671 0.46169 0.0
H2378 H 0.62583 0.90778 0.43229 0.0
H2379 H 0.63973 0.92674 0.41286 0.0
H2380 H 0.6402 0.91998 0.47767 0.0
H2381 H 0.63376 0.87112 0.43889 0.0
H2382 H 0.64799 0.89097 0.4357 0.0
H2383 H 0.62775 0.8836 0.4312 0.0
C2384 C 0.67007 0.93743 0.44015 0.0
C2385 C 0.66221 0.9375 0.42611 0.0
C2386 C 0.66216 0.92675 0.45115 0.0
C2387 C 0.64624 0.91583 0.44834 0.0
C2388 C 0.63816 0.9161 0.4346 0.0
H2389 H 0.6115 0.83736 0.5084 0.0
H2390 H 0.60976 0.85353 0.48868 0.0
C2391 C 0.64609 0.92695 0.42357 0.0
C2392 C 0.63868 0.90375 0.45958 0.0
H2393 H 0.62994 0.86715 0.46564 0.0
C2394 C 0.63755 0.90829 0.47497 0.0
C2395 C 0.63514 0.8885 0.45597 0.0
C2396 C 0.63621 0.88314 0.43958 0.0
C2397 C 0.63396 0.89827 0.48712 0.0
C2398 C 0.63182 0.88351 0.48382 0.0
C2399 C 0.63169 0.87852 0.46817 0.0
C2400 C 0.63191 0.87402 0.49658 0.0
C2401 C 0.63308 0.90381 0.5035 0.0
C2402 C 0.64495 0.88016 0.50748 0.0
C2403 C 0.64598 0.87101 0.51867 0.0
C2404 C 0.63403 0.85545 0.51914 0.0
C2405 C 0.62083 0.84935 0.5084 0.0
C2406 C 0.61983 0.85855 0.49712 0.0
H2407 H 0.62933 0.91229 0.50306 0.0
H2408 H 0.62492 0.89403 0.51026 0.0
H2409 H 0.64478 0.90973 0.50993 0.0
H2410 H 0.65458 0.89196 0.50706 0.0
H2411 H 0.65622 0.87608 0.52689 0.0
H2412 H 0.07307 0.72289 0.38321 0.0
H2413 H 0.08981 0.72639 0.40685 0.0
H2414 H 0.08341 0.76224 0.42625 0.0
H2415 H 0.06677 0.7589 0.40288 0.0
H2416 H 0.1181 0.75511 0.42077 0.0
H2417 H 0.07011 0.72986 0.4603 0.0
H2418 H 0.06684 0.72653 0.43907 0.0
H2419 H 0.07061 0.7444 0.44855 0.0
C2420 C 0.07525 0.73154 0.3925 0.0
C2421 C 0.06849 0.74055 0.39118 0.0
C2422 C 0.08483 0.73353 0.40597 0.0
C2423 C 0.08766 0.74443 0.41833 0.0
C2424 C 0.08118 0.75362 0.41691 0.0
H2425 H 0.1538 0.79162 0.49741 0.0
H2426 H 0.13972 0.78282 0.47129 0.0
C2427 C 0.0717 0.7517 0.40349 0.0
C2428 C 0.09727 0.74631 0.43288 0.0
H2429 H 0.09583 0.74441 0.47273 0.0
C2430 C 0.11325 0.75259 0.43213 0.0
C2431 C 0.09084 0.74281 0.44762 0.0
C2432 C 0.07363 0.73539 0.44899 0.0
C2433 C 0.1231 0.75616 0.4459 0.0
C2434 C 0.11678 0.75351 0.46074 0.0
C2435 C 0.10069 0.74655 0.46137 0.0
C2436 C 0.12662 0.75857 0.47585 0.0
C2437 C 0.14018 0.76283 0.44445 0.0
C2438 C 0.12389 0.74789 0.48714 0.0
C2439 C 0.13178 0.75292 0.50214 0.0
C2440 C 0.14249 0.76875 0.50619 0.0
C2441 C 0.14555 0.77937 0.49469 0.0
C2442 C 0.13765 0.77433 0.47969 0.0
H2443 H 0.14235 0.75971 0.43262 0.0
H2444 H 0.14641 0.77565 0.44608 0.0
H2445 H 0.14513 0.75874 0.45358 0.0
H2446 H 0.11532 0.7357 0.48447 0.0
H2447 H 0.12897 0.74446 0.51079 0.0
H2448 H 0.28638 0.05146 0.70709 0.0
H2449 H 0.28391 0.06356 0.73119 0.0
H2450 H 0.32712 0.07059 0.75149 0.0
H2451 H 0.3296 0.05826 0.72752 0.0
H2452 H 0.30397 0.0592 0.77222 0.0
H2453 H 0.30908 0.10993 0.74419 0.0
H2454 H 0.29397 0.09155 0.73498 0.0
H2455 H 0.31392 0.09706 0.73456 0.0
C2456 C 0.29537 0.05556 0.71667 0.0
C2457 C 0.30825 0.05398 0.71532 0.0
C2458 C 0.29397 0.06256 0.73041 0.0
C2459 C 0.30547 0.06823 0.743 0.0
C2460 C 0.31816 0.06637 0.74185 0.0
H2461 H 0.32363 0.13286 0.82189 0.0
H2462 H 0.32355 0.11963 0.79727 0.0
C2463 C 0.31956 0.05933 0.72814 0.0
C2464 C 0.30426 0.07604 0.75742 0.0
H2465 H 0.30267 0.10723 0.77077 0.0
C2466 C 0.30368 0.0697 0.77192 0.0
C2467 C 0.30406 0.08983 0.757 0.0
C2468 C 0.30543 0.0976 0.74189 0.0
C2469 C 0.30283 0.07674 0.78602 0.0
C2470 C 0.30226 0.09033 0.78555 0.0
C2471 C 0.30292 0.09671 0.77106 0.0
C2472 C 0.30173 0.0985 0.80007 0.0
C2473 C 0.30295 0.06979 0.80135 0.0
C2474 C 0.28928 0.09114 0.8096 0.0
C2475 C 0.28935 0.09864 0.82376 0.0
C2476 C 0.30183 0.11366 0.82857 0.0
C2477 C 0.31397 0.1212 0.81865 0.0
C2478 C 0.3139 0.11369 0.80454 0.0
H2479 H 0.30719 0.06173 0.80013 0.0
H2480 H 0.3104 0.07896 0.8108 0.0
H2481 H 0.29097 0.06316 0.8051 0.0
H2482 H 0.27963 0.07952 0.80621 0.0
H2483 H 0.27987 0.09247 0.83116 0.0
H2484 H 0.94833 0.26424 0.76791 0.0
H2485 H 0.93675 0.24927 0.79057 0.0
H2486 H 0.94367 0.21345 0.77211 0.0
H2487 H 0.95506 0.22817 0.74937 0.0
H2488 H 0.91363 0.20247 0.77949 0.0
H2489 H 0.95581 0.24039 0.8293 0.0
H2490 H 0.94915 0.24992 0.81676 0.0
H2491 H 0.96047 0.24266 0.80898 0.0
C2492 C 0.9476 0.25328 0.76878 0.0
C2493 C 0.95257 0.24738 0.75678 0.0
C2494 C 0.94105 0.24478 0.78179 0.0
C2495 C 0.93948 0.23032 0.78309 0.0
C2496 C 0.94481 0.22461 0.77135 0.0
H2497 H 0.90765 0.17105 0.86145 0.0
H2498 H 0.92298 0.18779 0.84115 0.0
C2499 C 0.95132 0.23306 0.75835 0.0
C2500 C 0.93119 0.22054 0.79596 0.0
H2501 H 0.93165 0.21917 0.83601 0.0
C2502 C 0.91762 0.20609 0.79184 0.0
C2503 C 0.93649 0.22524 0.81204 0.0
C2504 C 0.95135 0.24034 0.81708 0.0
C2505 C 0.90904 0.19632 0.80339 0.0
C2506 C 0.91405 0.20122 0.81949 0.0
C2507 C 0.92779 0.21552 0.82364 0.0
C2508 C 0.90506 0.19163 0.83215 0.0
C2509 C 0.89475 0.18075 0.79827 0.0
C2510 C 0.89002 0.18847 0.83392 0.0
C2511 C 0.88124 0.17889 0.8454 0.0
C2512 C 0.88735 0.17233 0.8554 0.0
C2513 C 0.90256 0.17577 0.8538 0.0
C2514 C 0.91136 0.1854 0.8423 0.0
H2515 H 0.89465 0.17718 0.78574 0.0
H2516 H 0.89396 0.17168 0.80574 0.0
H2517 H 0.88427 0.18139 0.79952 0.0
H2518 H 0.88503 0.19332 0.8263 0.0
H2519 H 0.86952 0.17635 0.84623 0.0
H2520 H 0.75281 0.69476 0.73442 0.0
H2521 H 0.76909 0.70524 0.75942 0.0
H2522 H 0.78196 0.67115 0.75431 0.0
H2523 H 0.76555 0.66046 0.72967 0.0
H2524 H 0.76994 0.67059 0.78211 0.0
H2525 H 0.81576 0.73089 0.77216 0.0
H2526 H 0.79625 0.72608 0.76705 0.0
H2527 H 0.80405 0.71657 0.75616 0.0
C2528 C 0.75939 0.68973 0.73847 0.0
C2529 C 0.75779 0.67669 0.73016 0.0
C2530 C 0.76874 0.69578 0.75272 0.0
C2531 C 0.7768 0.68902 0.7587 0.0
C2532 C 0.77583 0.67654 0.74994 0.0
H2533 H 0.84063 0.71217 0.84147 0.0
H2534 H 0.82912 0.70954 0.81459 0.0
C2535 C 0.76642 0.67042 0.73586 0.0
C2536 C 0.78478 0.69361 0.77482 0.0
H2537 H 0.81413 0.72361 0.79861 0.0
C2538 C 0.77963 0.68219 0.78569 0.0
C2539 C 0.79746 0.70871 0.77944 0.0
C2540 C 0.80383 0.72126 0.76808 0.0
C2541 C 0.78677 0.68541 0.80102 0.0
C2542 C 0.79921 0.70058 0.80579 0.0
C2543 C 0.80448 0.71203 0.79494 0.0
C2544 C 0.80693 0.70449 0.82198 0.0
C2545 C 0.7811 0.67242 0.81189 0.0
C2546 C 0.79844 0.70306 0.835 0.0
C2547 C 0.80493 0.70444 0.85029 0.0
C2548 C 0.82009 0.70745 0.85284 0.0
C2549 C 0.82893 0.70987 0.83984 0.0
C2550 C 0.82238 0.70837 0.82451 0.0
H2551 H 0.77418 0.66087 0.80529 0.0
H2552 H 0.79099 0.67303 0.81885 0.0
H2553 H 0.77358 0.67343 0.82027 0.0
H2554 H 0.78659 0.70033 0.83331 0.0
H2555 H 0.79795 0.70281 0.86011 0.0
H2556 H 0.74516 0.63539 0.65345 0.0
H2557 H 0.75343 0.63498 0.62712 0.0
H2558 H 0.73645 0.66395 0.61234 0.0
H2559 H 0.72877 0.66499 0.63898 0.0
H2560 H 0.73786 0.62426 0.59958 0.0
H2561 H 0.77916 0.68744 0.59789 0.0
H2562 H 0.77058 0.67879 0.61567 0.0
H2563 H 0.75976 0.68247 0.60095 0.0
C2564 C 0.74323 0.64173 0.64462 0.0
C2565 C 0.73641 0.65031 0.64832 0.0
C2566 C 0.74795 0.64147 0.62955 0.0
C2567 C 0.74581 0.64964 0.61778 0.0
C2568 C 0.73864 0.65793 0.62133 0.0
H2569 H 0.75777 0.62999 0.51964 0.0
H2570 H 0.74625 0.63203 0.54359 0.0
C2571 C 0.73416 0.65843 0.63652 0.0
C2572 C 0.75095 0.6492 0.60183 0.0
H2573 H 0.77442 0.67192 0.57438 0.0
C2574 C 0.74586 0.63469 0.59406 0.0
C2575 C 0.7615 0.6628 0.59469 0.0
C2576 C 0.76819 0.67875 0.60278 0.0
C2577 C 0.75124 0.63338 0.57956 0.0
C2578 C 0.76156 0.64699 0.57228 0.0
C2579 C 0.76641 0.6615 0.5799 0.0
C2580 C 0.7683 0.64648 0.55734 0.0
C2581 C 0.74634 0.61744 0.5726 0.0
C2582 C 0.78449 0.65451 0.55684 0.0
C2583 C 0.79104 0.65367 0.54309 0.0
C2584 C 0.78152 0.64467 0.52961 0.0
C2585 C 0.76533 0.63687 0.52996 0.0
C2586 C 0.75876 0.63795 0.54366 0.0
H2587 H 0.74209 0.60881 0.58163 0.0
H2588 H 0.73671 0.61358 0.56332 0.0
H2589 H 0.75609 0.61747 0.56719 0.0
H2590 H 0.7921 0.66118 0.56722 0.0
H2591 H 0.80357 0.65969 0.54314 0.0
H2592 H 0.32069 0.05779 0.62476 0.0
H2593 H 0.3346 0.07679 0.60585 0.0
H2594 H 0.37706 0.09614 0.63584 0.0
H2595 H 0.36311 0.07691 0.65502 0.0
H2596 H 0.36892 0.11796 0.62599 0.0
H2597 H 0.36681 0.08116 0.57522 0.0
H2598 H 0.34836 0.0732 0.58334 0.0
H2599 H 0.3646 0.07516 0.59515 0.0
C2600 C 0.33303 0.06595 0.6273 0.0
C2601 C 0.34079 0.06588 0.64142 0.0
C2602 C 0.34099 0.07672 0.6164 0.0
C2603 C 0.35689 0.08772 0.61934 0.0
C2604 C 0.36481 0.08761 0.6333 0.0
H2605 H 0.39069 0.15006 0.54208 0.0
H2606 H 0.39194 0.13497 0.56336 0.0
C2607 C 0.35684 0.07664 0.64421 0.0
C2608 C 0.36455 0.10006 0.60836 0.0
H2609 H 0.36818 0.10492 0.56904 0.0
C2610 C 0.36919 0.11523 0.6136 0.0
C2611 C 0.36508 0.09654 0.59226 0.0
C2612 C 0.3611 0.08065 0.58618 0.0
C2613 C 0.37302 0.12664 0.60289 0.0
C2614 C 0.372 0.12267 0.58658 0.0
C2615 C 0.36874 0.10789 0.58153 0.0
C2616 C 0.3723 0.13291 0.5745 0.0
C2617 C 0.37748 0.14266 0.60906 0.0
C2618 C 0.3608 0.13664 0.57369 0.0
C2619 C 0.36 0.14512 0.56158 0.0
C2620 C 0.37068 0.15003 0.54998 0.0
C2621 C 0.38238 0.14652 0.55093 0.0
C2622 C 0.38309 0.1379 0.56303 0.0
H2623 H 0.38268 0.1453 0.62143 0.0
H2624 H 0.38586 0.15161 0.60165 0.0
H2625 H 0.36693 0.14337 0.60889 0.0
H2626 H 0.35216 0.13264 0.58223 0.0
H2627 H 0.35097 0.14778 0.56124 0.0
H2628 H 0.92869 0.24043 0.67227 0.0
H2629 H 0.91042 0.23665 0.65031 0.0
H2630 H 0.91421 0.2796 0.66513 0.0
H2631 H 0.93274 0.28361 0.68724 0.0
H2632 H 0.88134 0.23541 0.65007 0.0
H2633 H 0.92616 0.28442 0.6187 0.0
H2634 H 0.93132 0.27633 0.63464 0.0
H2635 H 0.92371 0.28841 0.63876 0.0
C2636 C 0.92563 0.24908 0.67096 0.0
C2637 C 0.9323 0.26241 0.68145 0.0
C2638 C 0.91512 0.24686 0.65842 0.0
C2639 C 0.91109 0.25791 0.65602 0.0
C2640 C 0.91733 0.27102 0.66669 0.0
H2641 H 0.86296 0.25488 0.56576 0.0
H2642 H 0.87329 0.26262 0.59347 0.0
C2643 C 0.92786 0.27326 0.67934 0.0
C2644 C 0.90086 0.25575 0.64189 0.0
H2645 H 0.90181 0.26816 0.60502 0.0
C2646 C 0.88571 0.24272 0.6403 0.0
C2647 C 0.90656 0.26537 0.62923 0.0
C2648 C 0.92285 0.27939 0.63026 0.0
C2649 C 0.87634 0.23863 0.62611 0.0
C2650 C 0.88242 0.24766 0.61311 0.0
C2651 C 0.89721 0.26123 0.61501 0.0
C2652 C 0.8745 0.24231 0.597 0.0
C2653 C 0.86016 0.22446 0.62505 0.0
C2654 C 0.87172 0.22833 0.58986 0.0
C2655 C 0.86586 0.22391 0.57412 0.0
C2656 C 0.86273 0.23343 0.56515 0.0
C2657 C 0.86512 0.24724 0.57243 0.0
C2658 C 0.87107 0.2517 0.58821 0.0
H2659 H 0.85543 0.22213 0.63682 0.0
H2660 H 0.85214 0.22574 0.61681 0.0
H2661 H 0.86053 0.21425 0.62068 0.0
H2662 H 0.8746 0.22106 0.5963 0.0
H2663 H 0.86402 0.21314 0.56887 0.0
H2664 H 0.3876 0.29038 0.6877 0.0
H2665 H 0.38961 0.27781 0.66368 0.0
H2666 H 0.3446 0.26761 0.64533 0.0
H2667 H 0.3424 0.28013 0.66936 0.0
H2668 H 0.34923 0.24178 0.64442 0.0
H2669 H 0.39641 0.29349 0.61858 0.0
H2670 H 0.40008 0.29138 0.63894 0.0
H2671 H 0.38495 0.29489 0.63339 0.0
C2672 C 0.37816 0.28558 0.67852 0.0
C2673 C 0.36483 0.28627 0.68046 0.0
C2674 C 0.37938 0.27847 0.66478 0.0
C2675 C 0.36733 0.27194 0.6527 0.0
C2676 C 0.35405 0.27266 0.65452 0.0
H2677 H 0.34624 0.21884 0.56373 0.0
H2678 H 0.34598 0.23189 0.58825 0.0
C2679 C 0.35284 0.27984 0.66824 0.0
C2680 C 0.36826 0.26373 0.63848 0.0
H2681 H 0.38822 0.26906 0.6058 0.0
C2682 C 0.35772 0.24773 0.63594 0.0
C2683 C 0.37947 0.27154 0.62757 0.0
C2684 C 0.39082 0.28879 0.62962 0.0
C2685 C 0.35812 0.23925 0.62277 0.0
C2686 C 0.36913 0.24709 0.61168 0.0
C2687 C 0.3798 0.26308 0.61433 0.0
C2688 C 0.36935 0.23899 0.59694 0.0
C2689 C 0.34689 0.22196 0.62099 0.0
C2690 C 0.38273 0.23899 0.59348 0.0
C2691 C 0.38294 0.23155 0.5794 0.0
C2692 C 0.36976 0.224 0.56856 0.0
C2693 C 0.35644 0.22419 0.57203 0.0
C2694 C 0.35627 0.23166 0.58603 0.0
H2695 H 0.34263 0.21725 0.63249 0.0
H2696 H 0.33669 0.21929 0.61299 0.0
H2697 H 0.35234 0.21592 0.61586 0.0
H2698 H 0.39299 0.24469 0.60171 0.0
H2699 H 0.39336 0.23159 0.57705 0.0
H2700 H 0.7333 0.07032 0.62932 0.0
H2701 H 0.74718 0.08471 0.60708 0.0
H2702 H 0.73169 0.11641 0.61527 0.0
H2703 H 0.71831 0.10249 0.63774 0.0
H2704 H 0.73918 0.09257 0.57949 0.0
H2705 H 0.77819 0.14537 0.61864 0.0
H2706 H 0.76531 0.1269 0.62619 0.0
H2707 H 0.75812 0.13888 0.61993 0.0
C2708 C 0.73275 0.08028 0.62627 0.0
C2709 C 0.72493 0.08543 0.63542 0.0
C2710 C 0.74069 0.08849 0.61358 0.0
C2711 C 0.74081 0.10188 0.6098 0.0
C2712 C 0.73216 0.10641 0.61829 0.0
H2713 H 0.77204 0.15183 0.52535 0.0
H2714 H 0.75682 0.13455 0.54518 0.0
C2715 C 0.72445 0.09838 0.63108 0.0
C2716 C 0.75043 0.1115 0.59741 0.0
H2717 H 0.77889 0.14834 0.59106 0.0
C2718 C 0.74793 0.10474 0.58201 0.0
C2719 C 0.76208 0.12731 0.60079 0.0
C2720 C 0.76621 0.135 0.61732 0.0
C2721 C 0.75652 0.11348 0.5698 0.0
C2722 C 0.7676 0.12949 0.57304 0.0
C2723 C 0.77029 0.13612 0.58852 0.0
C2724 C 0.77676 0.13964 0.56069 0.0
C2725 C 0.75383 0.1054 0.55367 0.0
C2726 C 0.79301 0.14867 0.56302 0.0
C2727 C 0.80173 0.15892 0.55195 0.0
C2728 C 0.7944 0.16031 0.53819 0.0
C2729 C 0.7781 0.1512 0.53585 0.0
C2730 C 0.76936 0.14108 0.54706 0.0
H2731 H 0.74884 0.09278 0.55436 0.0
H2732 H 0.74545 0.10687 0.54627 0.0
H2733 H 0.76478 0.1103 0.54774 0.0
H2734 H 0.79898 0.14788 0.57352 0.0
H2735 H 0.81422 0.16595 0.55435 0.0
H2736 H 0.9063 0.63893 0.66961 0.0
H2737 H 0.88881 0.62745 0.64541 0.0
H2738 H 0.90019 0.67282 0.63335 0.0
H2739 H 0.91754 0.68439 0.65735 0.0
H2740 H 0.86232 0.63177 0.63431 0.0
H2741 H 0.91041 0.65254 0.59494 0.0
H2742 H 0.91291 0.65049 0.61569 0.0
H2743 H 0.91231 0.66686 0.60948 0.0
C2744 C 0.90502 0.64646 0.66184 0.0
C2745 C 0.91339 0.6626 0.66539 0.0
C2746 C 0.89502 0.63987 0.64806 0.0
C2747 C 0.89337 0.64933 0.63758 0.0
C2748 C 0.90145 0.66536 0.64124 0.0
H2749 H 0.83251 0.64215 0.56114 0.0
H2750 H 0.84529 0.64398 0.58696 0.0
C2751 C 0.91133 0.67193 0.655 0.0
C2752 C 0.88348 0.64269 0.6226 0.0
H2753 H 0.88528 0.64376 0.58273 0.0
C2754 C 0.86729 0.63417 0.62301 0.0
C2755 C 0.89003 0.64569 0.60792 0.0
C2756 C 0.90737 0.65428 0.60689 0.0
C2757 C 0.85745 0.62922 0.60902 0.0
C2758 C 0.86404 0.63305 0.59436 0.0
C2759 C 0.88023 0.64089 0.59398 0.0
C2760 C 0.85455 0.63008 0.57932 0.0
C2761 C 0.84011 0.62011 0.61007 0.0
C2762 C 0.85549 0.62166 0.56644 0.0
C2763 C 0.84832 0.62072 0.55163 0.0
C2764 C 0.84018 0.62832 0.5494 0.0
C2765 C 0.83878 0.63626 0.56247 0.0
C2766 C 0.84593 0.63717 0.57727 0.0
H2767 H 0.83698 0.61408 0.62115 0.0
H2768 H 0.83583 0.62816 0.61005 0.0
H2769 H 0.83408 0.61141 0.59987 0.0
H2770 H 0.86222 0.61623 0.56774 0.0
H2771 H 0.84979 0.61468 0.54176 0.0
H2772 H 0.93683 0.71195 0.74575 0.0
H2773 H 0.92778 0.71395 0.77129 0.0
H2774 H 0.91511 0.66719 0.77892 0.0
H2775 H 0.92442 0.66516 0.75353 0.0
H2776 H 0.89849 0.6965 0.78091 0.0
H2777 H 0.94016 0.69052 0.82004 0.0
H2778 H 0.94295 0.69431 0.79953 0.0
H2779 H 0.92974 0.675 0.80494 0.0
C2780 C 0.93223 0.70211 0.7529 0.0
C2781 C 0.9314 0.6884 0.7476 0.0
C2782 C 0.92705 0.70328 0.76749 0.0
C2783 C 0.92099 0.69081 0.77711 0.0
C2784 C 0.92009 0.67709 0.77186 0.0
H2785 H 0.87587 0.67272 0.86452 0.0
H2786 H 0.88678 0.67117 0.83996 0.0
C2787 C 0.92532 0.67592 0.75729 0.0
C2788 C 0.91499 0.69197 0.79231 0.0
H2789 H 0.91898 0.68952 0.832 0.0
C2790 C 0.90303 0.69507 0.79209 0.0
C2791 C 0.92093 0.69007 0.80688 0.0
C2792 C 0.93425 0.68743 0.80794 0.0
C2793 C 0.89668 0.69609 0.80602 0.0
C2794 C 0.90257 0.69412 0.82055 0.0
C2795 C 0.9145 0.691 0.82081 0.0
C2796 C 0.89642 0.69523 0.83562 0.0
C2797 C 0.88353 0.69898 0.80507 0.0
C2798 C 0.89847 0.70934 0.84139 0.0
C2799 C 0.89225 0.71026 0.85538 0.0
C2800 C 0.88388 0.69708 0.86384 0.0
C2801 C 0.8821 0.68302 0.85816 0.0
C2802 C 0.88839 0.68214 0.8442 0.0
H2803 H 0.87815 0.6969 0.79282 0.0
H2804 H 0.87441 0.69145 0.81282 0.0
H2805 H 0.88803 0.7112 0.80915 0.0
H2806 H 0.9048 0.71962 0.83501 0.0
H2807 H 0.89371 0.72122 0.85939 0.0
H2808 H 0.35478 0.2799 0.76975 0.0
H2809 H 0.3411 0.26112 0.78895 0.0
H2810 H 0.29735 0.24608 0.763 0.0
H2811 H 0.31102 0.26505 0.74353 0.0
H2812 H 0.3146 0.25748 0.80724 0.0
H2813 H 0.30129 0.2064 0.76744 0.0
H2814 H 0.3168 0.22567 0.76399 0.0
H2815 H 0.29701 0.22039 0.76047 0.0
C2816 C 0.34224 0.27267 0.76808 0.0
C2817 C 0.334 0.27391 0.75503 0.0
C2818 C 0.33445 0.26198 0.77912 0.0
C2819 C 0.31827 0.25221 0.77732 0.0
C2820 C 0.30988 0.25352 0.76451 0.0
H2821 H 0.27805 0.17398 0.83805 0.0
H2822 H 0.27831 0.19116 0.81835 0.0
C2823 C 0.3177 0.26436 0.75344 0.0
C2824 C 0.31057 0.24041 0.78879 0.0
H2825 H 0.29829 0.20276 0.7944 0.0
C2826 C 0.31067 0.24542 0.8044 0.0
C2827 C 0.30536 0.2247 0.78498 0.0
C2828 C 0.30507 0.21884 0.76834 0.0
C2829 C 0.30657 0.2353 0.8165 0.0
C2830 C 0.30264 0.21991 0.81291 0.0
C2831 C 0.30141 0.2146 0.79712 0.0
C2832 C 0.3018 0.20985 0.82546 0.0
C2833 C 0.30701 0.24134 0.8331 0.0
C2834 C 0.31494 0.21463 0.83587 0.0
C2835 C 0.31483 0.2049 0.84704 0.0
C2836 C 0.3016 0.19011 0.84798 0.0
C2837 C 0.28836 0.18537 0.83767 0.0
C2838 C 0.2885 0.19513 0.82641 0.0
H2839 H 0.30477 0.25093 0.83311 0.0
H2840 H 0.29833 0.23205 0.83999 0.0
H2841 H 0.31872 0.24598 0.83912 0.0
H2842 H 0.32544 0.2258 0.83513 0.0
H2843 H 0.32515 0.20896 0.85492 0.0
H2844 H 0.73928 0.04925 0.70595 0.0
H2845 H 0.75638 0.0517 0.72885 0.0
H2846 H 0.75837 0.09301 0.74657 0.0
H2847 H 0.74149 0.09079 0.72392 0.0
H2848 H 0.78831 0.08068 0.74101 0.0
H2849 H 0.74159 0.06042 0.78207 0.0
H2850 H 0.73762 0.05581 0.76099 0.0
H2851 H 0.74302 0.07467 0.76919 0.0
C2852 C 0.74343 0.0589 0.71469 0.0
C2853 C 0.73893 0.06978 0.71313 0.0
C2854 C 0.7532 0.06028 0.72772 0.0
C2855 C 0.75848 0.07246 0.7394 0.0
C2856 C 0.75429 0.08347 0.73771 0.0
H2857 H 0.82654 0.11877 0.81633 0.0
H2858 H 0.81206 0.10943 0.79042 0.0
C2859 C 0.74464 0.08217 0.72472 0.0
C2860 C 0.76807 0.07368 0.75368 0.0
H2861 H 0.76751 0.07306 0.79368 0.0
C2862 C 0.78376 0.07879 0.75253 0.0
C2863 C 0.76202 0.07105 0.76862 0.0
C2864 C 0.7451 0.06506 0.77037 0.0
C2865 C 0.79378 0.08208 0.7661 0.0
C2866 C 0.78791 0.08035 0.78113 0.0
C2867 C 0.77203 0.07446 0.78216 0.0
C2868 C 0.7981 0.08553 0.79601 0.0
C2869 C 0.81056 0.08758 0.76426 0.0
C2870 C 0.79506 0.07522 0.80779 0.0
C2871 C 0.80321 0.08056 0.82266 0.0
C2872 C 0.81447 0.09636 0.82608 0.0
C2873 C 0.81787 0.10656 0.81408 0.0
C2874 C 0.80973 0.1012 0.79921 0.0
H2875 H 0.81208 0.08371 0.75246 0.0
H2876 H 0.81753 0.10042 0.76542 0.0
H2877 H 0.81521 0.08329 0.77348 0.0
H2878 H 0.78601 0.06311 0.80562 0.0
H2879 H 0.80014 0.07244 0.8317 0.0
H2880 H 0.02709 0.33356 0.0147 0.0
H2881 H 0.04429 0.3282 0.03047 0.0
H2882 H 0.05416 0.36513 0.06484 0.0
H2883 H 0.03666 0.37034 0.04933 0.0
H2884 H 0.07503 0.34555 0.04067 0.0
H2885 H 0.03906 0.32868 0.09186 0.0
H2886 H 0.03233 0.33138 0.07294 0.0
H2887 H 0.04542 0.34785 0.0863 0.0
C2888 C 0.033 0.34064 0.02556 0.0
C2889 C 0.03036 0.35228 0.03083 0.0
C2890 C 0.04282 0.33754 0.03457 0.0
C2891 C 0.05023 0.34602 0.04902 0.0
C2892 C 0.04823 0.35816 0.05395 0.0
H2893 H 0.11266 0.34118 0.11922 0.0
H2894 H 0.09694 0.3486 0.10359 0.0
C2895 C 0.03832 0.3612 0.045 0.0
C2896 C 0.05981 0.34194 0.05899 0.0
H2897 H 0.06308 0.33004 0.09524 0.0
C2898 C 0.0724 0.34213 0.05259 0.0
C2899 C 0.05632 0.33742 0.07453 0.0
C2900 C 0.04246 0.33616 0.08179 0.0
C2901 C 0.08167 0.33808 0.06135 0.0
C2902 C 0.07819 0.33361 0.07687 0.0
C2903 C 0.06571 0.33352 0.08334 0.0
C2904 C 0.08733 0.32886 0.08652 0.0
C2905 C 0.09525 0.33877 0.05405 0.0
C2906 C 0.08685 0.31515 0.08225 0.0
C2907 C 0.09575 0.31085 0.09118 0.0
C2908 C 0.10531 0.32022 0.10451 0.0
C2909 C 0.10552 0.3338 0.10893 0.0
C2910 C 0.09652 0.33803 0.10005 0.0
H2911 H 0.09827 0.34541 0.04336 0.0
H2912 H 0.10562 0.34416 0.06266 0.0
H2913 H 0.09225 0.32683 0.05058 0.0
H2914 H 0.07967 0.30783 0.07194 0.0
H2915 H 0.09546 0.30041 0.0874 0.0
H2916 H 0.66669 0.6839 0.05247 0.0
H2917 H 0.67464 0.70908 0.06551 0.0
H2918 H 0.64379 0.68642 0.10183 0.0
H2919 H 0.636 0.66115 0.08905 0.0
H2920 H 0.65795 0.72234 0.07273 0.0
H2921 H 0.68488 0.71509 0.12741 0.0
H2922 H 0.67938 0.70231 0.1098 0.0
H2923 H 0.66498 0.69992 0.12285 0.0
C2924 C 0.66154 0.68425 0.0632 0.0
C2925 C 0.65079 0.67051 0.06979 0.0
C2926 C 0.66612 0.69866 0.07065 0.0
C2927 C 0.66006 0.69962 0.08481 0.0
C2928 C 0.64892 0.68594 0.09112 0.0
H2929 H 0.66828 0.77377 0.1456 0.0
H2930 H 0.6619 0.74898 0.13267 0.0
C2931 C 0.64439 0.67151 0.08374 0.0
C2932 C 0.66535 0.71495 0.09291 0.0
H2933 H 0.68207 0.7369 0.12773 0.0
C2934 C 0.66332 0.72557 0.08472 0.0
C2935 C 0.67242 0.71916 0.10853 0.0
C2936 C 0.6757 0.70859 0.11763 0.0
C2937 C 0.66781 0.74014 0.09187 0.0
C2938 C 0.67466 0.74423 0.10754 0.0
C2939 C 0.6768 0.73369 0.11571 0.0
C2940 C 0.67922 0.75925 0.11582 0.0
C2941 C 0.66488 0.75092 0.08275 0.0
C2942 C 0.69133 0.77318 0.11083 0.0
C2943 C 0.69501 0.78736 0.1182 0.0
C2944 C 0.6866 0.7878 0.13065 0.0
C2945 C 0.67481 0.77378 0.13591 0.0
C2946 C 0.6712 0.75963 0.12859 0.0
H2947 H 0.65688 0.74492 0.07199 0.0
H2948 H 0.65988 0.75613 0.09025 0.0
H2949 H 0.67605 0.76048 0.07906 0.0
H2950 H 0.69777 0.77308 0.1011 0.0
H2951 H 0.70409 0.79797 0.11385 0.0
H2952 H 0.33652 0.98977 0.035 0.0
H2953 H 0.31165 0.98143 0.04579 0.0
H2954 H 0.30342 0.93555 0.04909 0.0
H2955 H 0.32821 0.9437 0.0382 0.0
H2956 H 0.27662 0.93667 0.03794 0.0
H2957 H 0.3073 0.97368 0.09337 0.0
H2958 H 0.3121 0.98322 0.0753 0.0
H2959 H 0.31713 0.96907 0.07909 0.0
C2960 C 0.32936 0.97785 0.03784 0.0
C2961 C 0.33446 0.96744 0.03591 0.0
C2962 C 0.31517 0.97313 0.04404 0.0
C2963 C 0.30585 0.95795 0.04844 0.0
C2964 C 0.3105 0.94733 0.04579 0.0
H2965 H 0.24021 0.91406 0.11537 0.0
H2966 H 0.26201 0.92604 0.09887 0.0
C2967 C 0.32469 0.95203 0.0396 0.0
C2968 C 0.29178 0.95334 0.0568 0.0
H2969 H 0.28007 0.95853 0.09219 0.0
C2970 C 0.2773 0.94156 0.04972 0.0
C2971 C 0.2928 0.9597 0.07221 0.0
C2972 C 0.30815 0.97204 0.08055 0.0
C2973 C 0.26381 0.93573 0.05782 0.0
C2974 C 0.26491 0.94191 0.07332 0.0
C2975 C 0.27931 0.95394 0.08024 0.0
C2976 C 0.2516 0.93497 0.08319 0.0
C2977 C 0.24862 0.92255 0.05007 0.0
C2978 C 0.23862 0.93621 0.07991 0.0
C2979 C 0.22609 0.92935 0.08935 0.0
C2980 C 0.22638 0.92109 0.10211 0.0
C2981 C 0.23954 0.92012 0.10546 0.0
C2982 C 0.25203 0.92703 0.09611 0.0
H2983 H 0.25011 0.91782 0.03877 0.0
H2984 H 0.24307 0.91306 0.05809 0.0
H2985 H 0.24059 0.92668 0.04762 0.0
H2986 H 0.23818 0.94246 0.07007 0.0
H2987 H 0.21608 0.93025 0.08651 0.0
H2988 H 0.3543 0.03199 0.0407 0.0
H2989 H 0.34646 0.04877 0.02918 0.0
H2990 H 0.3818 0.06287 0.99641 0.0
H2991 H 0.38949 0.04586 0.0076 0.0
H2992 H 0.36132 0.08006 0.02452 0.0
H2993 H 0.34219 0.04467 0.96737 0.0
H2994 H 0.34712 0.03845 0.98509 0.0
H2995 H 0.36217 0.05222 0.97371 0.0
C2996 C 0.36056 0.03881 0.03118 0.0
C2997 C 0.37239 0.03743 0.02492 0.0
C2998 C 0.35604 0.04839 0.0246 0.0
C2999 C 0.36329 0.05675 0.01169 0.0
C3000 C 0.37578 0.05618 0.0061 0.0
H3001 H 0.35064 0.11529 0.95026 0.0
H3002 H 0.3601 0.10157 0.96553 0.0
C3003 C 0.38023 0.04653 0.01258 0.0
C3004 C 0.35731 0.06546 0.00358 0.0
H3005 H 0.3422 0.06802 0.96789 0.0
C3006 C 0.35707 0.0774 0.01216 0.0
C3007 C 0.35161 0.06183 0.98749 0.0
C3008 C 0.35061 0.0485 0.9779 0.0
C3009 C 0.35169 0.0861 0.00493 0.0
C3010 C 0.34634 0.08267 0.98878 0.0
C3011 C 0.34641 0.07064 0.98026 0.0
C3012 C 0.3409 0.0916 0.98031 0.0
C3013 C 0.35205 0.0991 0.01446 0.0
C3014 C 0.32692 0.09045 0.98356 0.0
C3015 C 0.32146 0.09828 0.97483 0.0
C3016 C 0.32994 0.10741 0.96277 0.0
C3017 C 0.34398 0.10857 0.95965 0.0
C3018 C 0.34936 0.10069 0.9683 0.0
H3019 H 0.3589 0.10194 0.02601 0.0
H3020 H 0.35705 0.10967 0.00782 0.0
H3021 H 0.34001 0.09567 0.01669 0.0
H3022 H 0.32012 0.08331 0.99266 0.0
H3023 H 0.31063 0.09721 0.97751 0.0
H3024 H 0.98238 0.31449 0.00715 0.0
H3025 H 0.9732 0.28825 0.99588 0.0
H3026 H 0.92821 0.2814 0.98336 0.0
H3027 H 0.93719 0.30746 0.99446 0.0
H3028 H 0.94676 0.25858 0.00287 0.0
H3029 H 0.94251 0.27272 0.94131 0.0
H3030 H 0.95364 0.28738 0.95722 0.0
H3031 H 0.93292 0.27854 0.95453 0.0
C3032 C 0.9705 0.30736 0.00208 0.0
C3033 C 0.96056 0.31313 0.00159 0.0
C3034 C 0.9653 0.2924 0.99565 0.0
C3035 C 0.95014 0.28305 0.98855 0.0
C3036 C 0.94006 0.28857 0.98853 0.0
H3037 H 0.88388 0.18922 0.96557 0.0
H3038 H 0.9026 0.21478 0.97829 0.0
C3039 C 0.9452 0.30346 0.99497 0.0
C3040 C 0.94467 0.26752 0.98097 0.0
H3041 H 0.92837 0.24579 0.94607 0.0
C3042 C 0.94297 0.2558 0.9904 0.0
C3043 C 0.94007 0.26401 0.96464 0.0
C3044 C 0.94251 0.27636 0.95378 0.0
C3045 C 0.93578 0.24039 0.9841 0.0
C3046 C 0.92999 0.23668 0.96805 0.0
C3047 C 0.93268 0.24861 0.95841 0.0
C3048 C 0.91971 0.22047 0.96135 0.0
C3049 C 0.93418 0.22821 0.99477 0.0
C3050 C 0.92304 0.21518 0.94751 0.0
C3051 C 0.91222 0.20059 0.94007 0.0
C3052 C 0.89784 0.19117 0.94628 0.0
C3053 C 0.89479 0.19631 0.96042 0.0
C3054 C 0.90558 0.21083 0.96783 0.0
H3055 H 0.94359 0.23328 0.00448 0.0
H3056 H 0.92295 0.22318 0.0002 0.0
H3057 H 0.9344 0.21873 0.98813 0.0
H3058 H 0.93382 0.22252 0.94223 0.0
H3059 H 0.91483 0.19697 0.92913 0.0
H3060 H 0.68534 0.65725 0.05546 0.0
H3061 H 0.71112 0.67408 0.04619 0.0
H3062 H 0.71234 0.63396 0.0305 0.0
H3063 H 0.68668 0.61704 0.0397 0.0
H3064 H 0.74142 0.67452 0.05281 0.0
H3065 H 0.71609 0.65966 0.99059 0.0
H3066 H 0.70462 0.65709 0.00709 0.0
H3067 H 0.71028 0.64347 0.0024 0.0
C3068 C 0.69118 0.652 0.05023 0.0
C3069 C 0.68388 0.63578 0.04819 0.0
C3070 C 0.7059 0.66164 0.04497 0.0
C3071 C 0.71348 0.65521 0.03754 0.0
C3072 C 0.70656 0.63909 0.03611 0.0
H3073 H 0.80171 0.68302 0.00642 0.0
H3074 H 0.7795 0.67545 0.02192 0.0
C3075 C 0.6919 0.62946 0.0414 0.0
C3076 C 0.72819 0.66517 0.03034 0.0
H3077 H 0.74352 0.6728 0.99468 0.0
C3078 C 0.74192 0.67433 0.04011 0.0
C3079 C 0.72869 0.66507 0.01378 0.0
C3080 C 0.71414 0.65591 0.0028 0.0
C3081 C 0.75633 0.68284 0.03368 0.0
C3082 C 0.75693 0.68199 0.01712 0.0
C3083 C 0.74307 0.67342 0.00738 0.0
C3084 C 0.77175 0.68873 0.00956 0.0
C3085 C 0.77078 0.69252 0.04466 0.0
C3086 C 0.77485 0.69878 0.99751 0.0
C3087 C 0.78746 0.703 0.98851 0.0
C3088 C 0.79709 0.69709 0.99132 0.0
C3089 C 0.7944 0.68765 0.00391 0.0
C3090 C 0.78183 0.68346 0.0129 0.0
H3091 H 0.76806 0.69598 0.056 0.0
H3092 H 0.77609 0.68562 0.04735 0.0
H3093 H 0.77945 0.70311 0.03922 0.0
H3094 H 0.76713 0.70286 0.99465 0.0
H3095 H 0.78913 0.71016 0.97879 0.0
H3096 H 0.97441 0.65586 0.03764 0.0
H3097 H 0.95754 0.66273 0.0236 0.0
H3098 H 0.94214 0.62416 0.98931 0.0
H3099 H 0.95918 0.6173 0.00316 0.0
H3100 H 0.95143 0.65153 0.97567 0.0
H3101 H 0.91061 0.64257 0.02093 0.0
H3102 H 0.93062 0.65493 0.02813 0.0
H3103 H 0.92316 0.63495 0.02207 0.0
C3104 C 0.96727 0.64867 0.02725 0.0
C3105 C 0.96816 0.63601 0.02153 0.0
C3106 C 0.95757 0.65259 0.01927 0.0
C3107 C 0.94846 0.64387 0.0055 0.0
C3108 C 0.94905 0.63102 0.99995 0.0
H3109 H 0.87762 0.65571 0.95847 0.0
H3110 H 0.89186 0.64535 0.97155 0.0
C3111 C 0.95876 0.62709 0.00792 0.0
C3112 C 0.93907 0.64873 0.99638 0.0
H3113 H 0.91052 0.65675 0.99926 0.0
C3114 C 0.9424 0.65256 0.98078 0.0
C3115 C 0.9272 0.64993 0.00301 0.0
C3116 C 0.92256 0.64523 0.0194 0.0
C3117 C 0.93441 0.6579 0.97176 0.0
C3118 C 0.92298 0.6597 0.97861 0.0
C3119 C 0.9194 0.65552 0.99407 0.0
C3120 C 0.91452 0.66583 0.96994 0.0
C3121 C 0.93818 0.6614 0.95492 0.0
C3122 C 0.92254 0.68081 0.96468 0.0
C3123 C 0.91444 0.68673 0.95703 0.0
C3124 C 0.89814 0.6778 0.95457 0.0
C3125 C 0.89018 0.66279 0.95986 0.0
C3126 C 0.89829 0.65689 0.96748 0.0
H3127 H 0.94391 0.65549 0.95019 0.0
H3128 H 0.92753 0.65782 0.94716 0.0
H3129 H 0.94624 0.67406 0.95443 0.0
H3130 H 0.93505 0.68803 0.96672 0.0
H3131 H 0.92093 0.69831 0.95308 0.0
H3132 H 0.34564 0.32193 0.01491 0.0
H3133 H 0.33798 0.29693 0.00159 0.0
H3134 H 0.35759 0.31937 0.95945 0.0
H3135 H 0.36551 0.34446 0.97273 0.0
H3136 H 0.31798 0.28282 0.97458 0.0
H3137 H 0.3761 0.29251 0.96527 0.0
H3138 H 0.3734 0.30486 0.97878 0.0
H3139 H 0.37301 0.30708 0.95794 0.0
C3140 C 0.3485 0.32159 0.00287 0.0
C3141 C 0.35624 0.33521 0.9949 0.0
C3142 C 0.34408 0.30728 0.99526 0.0
C3143 C 0.34736 0.30631 0.97959 0.0
C3144 C 0.35521 0.31989 0.97165 0.0
H3145 H 0.32578 0.22956 0.91268 0.0
H3146 H 0.3334 0.25487 0.9253 0.0
C3147 C 0.35967 0.33422 0.97925 0.0
C3148 C 0.34193 0.29101 0.97136 0.0
H3149 H 0.35437 0.26977 0.95239 0.0
C3150 C 0.32593 0.27993 0.96979 0.0
C3151 C 0.35234 0.2873 0.96506 0.0
C3152 C 0.36968 0.2985 0.96695 0.0
C3153 C 0.32004 0.26531 0.96192 0.0
C3154 C 0.33044 0.2616 0.95566 0.0
C3155 C 0.34643 0.27269 0.95716 0.0
C3156 C 0.32504 0.24616 0.94782 0.0
C3157 C 0.30271 0.25403 0.96015 0.0
C3158 C 0.31782 0.23291 0.95632 0.0
C3159 C 0.31352 0.21846 0.94918 0.0
C3160 C 0.31644 0.21701 0.93341 0.0
C3161 C 0.3235 0.23031 0.92487 0.0
C3162 C 0.32781 0.24475 0.93204 0.0
H3163 H 0.29622 0.25995 0.96192 0.0
H3164 H 0.29896 0.24768 0.9483 0.0
H3165 H 0.2995 0.24544 0.96913 0.0
H3166 H 0.31588 0.2338 0.96861 0.0
H3167 H 0.3084 0.20852 0.95618 0.0
H3168 H 0.67412 0.06316 0.02132 0.0
H3169 H 0.69828 0.07031 0.00958 0.0
H3170 H 0.69755 0.0313 0.02878 0.0
H3171 H 0.67306 0.02374 0.04009 0.0
H3172 H 0.72692 0.07779 0.0204 0.0
H3173 H 0.69852 0.02276 0.98245 0.0
H3174 H 0.68767 0.0285 0.99394 0.0
H3175 H 0.69772 0.02024 0.0032 0.0
C3176 C 0.67917 0.05619 0.02319 0.0
C3177 C 0.67156 0.04276 0.03144 0.0
C3178 C 0.69299 0.06029 0.01647 0.0
C3179 C 0.69952 0.05112 0.01797 0.0
C3180 C 0.69248 0.03828 0.02708 0.0
H3181 H 0.79026 0.08392 0.98022 0.0
H3182 H 0.76981 0.07447 0.9985 0.0
C3183 C 0.67854 0.03404 0.03362 0.0
C3184 C 0.71321 0.05465 0.00932 0.0
H3185 H 0.7252 0.04006 0.98038 0.0
C3186 C 0.72661 0.06953 0.01171 0.0
C3187 C 0.71269 0.04388 0.99787 0.0
C3188 C 0.69835 0.028 0.99407 0.0
C3189 C 0.73935 0.07406 0.00271 0.0
C3190 C 0.73884 0.06326 0.99131 0.0
C3191 C 0.72561 0.04827 0.98922 0.0
C3192 C 0.75121 0.06769 0.98036 0.0
C3193 C 0.75289 0.09059 0.00497 0.0
C3194 C 0.74743 0.06624 0.96405 0.0
C3195 C 0.759 0.07127 0.95357 0.0
C3196 C 0.77464 0.07795 0.95917 0.0
C3197 C 0.77833 0.07879 0.97549 0.0
C3198 C 0.76669 0.07361 0.98598 0.0
H3199 H 0.74987 0.09823 0.01144 0.0
H3200 H 0.76264 0.09098 0.01195 0.0
H3201 H 0.75698 0.09532 0.99345 0.0
H3202 H 0.73555 0.06157 0.95942 0.0
H3203 H 0.75571 0.07013 0.94106 0.0
H3204 H 0.6383 0.97397 0.04412 0.0
H3205 H 0.64683 0.95683 0.05285 0.0
H3206 H 0.613 0.94023 0.08742 0.0
H3207 H 0.60448 0.9575 0.0789 0.0
H3208 H 0.64287 0.95052 0.09992 0.0
H3209 H 0.62712 0.90989 0.04711 0.0
H3210 H 0.63812 0.92995 0.04315 0.0
H3211 H 0.61898 0.92185 0.04972 0.0
C3212 C 0.63247 0.96649 0.0534 0.0
C3213 C 0.62073 0.96715 0.06085 0.0
C3214 C 0.63732 0.95663 0.05831 0.0
C3215 C 0.63046 0.94716 0.07068 0.0
C3216 C 0.6184 0.94741 0.0778 0.0
H3217 H 0.64623 0.8776 0.10691 0.0
H3218 H 0.63554 0.89156 0.09412 0.0
C3219 C 0.61353 0.95727 0.0729 0.0
C3220 C 0.63678 0.93804 0.07709 0.0
H3221 H 0.64408 0.90968 0.0674 0.0
C3222 C 0.64306 0.94153 0.09283 0.0
C3223 C 0.63695 0.92629 0.06784 0.0
C3224 C 0.62981 0.92164 0.05106 0.0
C3225 C 0.64971 0.93373 0.09953 0.0
C3226 C 0.65029 0.9223 0.09015 0.0
C3227 C 0.64378 0.91861 0.07448 0.0
C3228 C 0.65717 0.91372 0.09665 0.0
C3229 C 0.65585 0.93764 0.11667 0.0
C3230 C 0.67298 0.92151 0.1019 0.0
C3231 C 0.67911 0.91359 0.10928 0.0
C3232 C 0.66953 0.89774 0.1115 0.0
C3233 C 0.65385 0.88986 0.10559 0.0
C3234 C 0.64774 0.89778 0.0982 0.0
H3235 H 0.65134 0.944 0.12309 0.0
H3236 H 0.65269 0.92699 0.12269 0.0
H3237 H 0.6687 0.9451 0.11744 0.0
H3238 H 0.68049 0.93378 0.1006 0.0
H3239 H 0.69121 0.91999 0.11376 0.0
H3240 H 0.02099 0.6898 0.05974 0.0
H3241 H 0.03075 0.71667 0.06915 0.0
H3242 H 0.07593 0.72368 0.081 0.0
H3243 H 0.06644 0.69711 0.07142 0.0
H3244 H 0.04235 0.73019 0.09889 0.0
H3245 H 0.0869 0.7613 0.05719 0.0
H3246 H 0.07207 0.74102 0.05371 0.0
H3247 H 0.08942 0.74705 0.06624 0.0
C3248 C 0.03307 0.69714 0.06414 0.0
C3249 C 0.04295 0.6913 0.06478 0.0
C3250 C 0.03861 0.71247 0.06953 0.0
C3251 C 0.05413 0.72225 0.07553 0.0
C3252 C 0.06402 0.71648 0.07604 0.0
H3253 H 0.09998 0.79671 0.14542 0.0
H3254 H 0.083 0.77208 0.13012 0.0
C3255 C 0.05853 0.70122 0.07064 0.0
C3256 C 0.05989 0.73817 0.08228 0.0
H3257 H 0.09028 0.7754 0.08206 0.0
C3258 C 0.05267 0.74014 0.09504 0.0
C3259 C 0.07314 0.7512 0.07706 0.0
C3260 C 0.08072 0.75007 0.06268 0.0
C3261 C 0.05896 0.75464 0.10334 0.0
C3262 C 0.073 0.76739 0.09897 0.0
C3263 C 0.07963 0.7656 0.08558 0.0
C3264 C 0.08171 0.78234 0.10871 0.0
C3265 C 0.05058 0.75609 0.11682 0.0
C3266 C 0.08677 0.79635 0.10176 0.0
C3267 C 0.09678 0.81048 0.11041 0.0
C3268 C 0.10195 0.81087 0.12617 0.0
C3269 C 0.09635 0.79682 0.13327 0.0
C3270 C 0.08644 0.78271 0.12459 0.0
H3271 H 0.03789 0.7475 0.11499 0.0
H3272 H 0.05494 0.75373 0.12791 0.0
H3273 H 0.05247 0.76787 0.11827 0.0
H3274 H 0.08338 0.79634 0.08949 0.0
H3275 H 0.10105 0.82106 0.10448 0.0
H3276 H 0.32051 0.38695 0.03192 0.0
H3277 H 0.29485 0.36972 0.04072 0.0
H3278 H 0.29274 0.33068 0.01618 0.0
H3279 H 0.31881 0.34785 0.00772 0.0
H3280 H 0.26664 0.35044 0.02585 0.0
H3281 H 0.28557 0.31699 0.06044 0.0
H3282 H 0.29917 0.33459 0.05188 0.0
H3283 H 0.28793 0.3168 0.03968 0.0
C3284 C 0.31459 0.37472 0.02827 0.0
C3285 C 0.3218 0.36876 0.01925 0.0
C3286 C 0.29988 0.36487 0.0333 0.0
C3287 C 0.29198 0.34886 0.02936 0.0
C3288 C 0.29878 0.34294 0.01969 0.0
H3289 H 0.19824 0.29926 0.06389 0.0
H3290 H 0.21827 0.3061 0.04544 0.0
C3291 C 0.31363 0.35279 0.01477 0.0
C3292 C 0.27698 0.33858 0.03608 0.0
H3293 H 0.26007 0.31097 0.06242 0.0
C3294 C 0.26509 0.34165 0.03369 0.0
C3295 C 0.27504 0.32716 0.04635 0.0
C3296 C 0.28762 0.32372 0.04989 0.0
C3297 C 0.25171 0.33429 0.04196 0.0
C3298 C 0.24994 0.32317 0.05254 0.0
C3299 C 0.26143 0.31945 0.05425 0.0
C3300 C 0.23744 0.31688 0.0635 0.0
C3301 C 0.24012 0.33929 0.04006 0.0
C3302 C 0.24147 0.31982 0.07981 0.0
C3303 C 0.23007 0.31561 0.09037 0.0
C3304 C 0.21436 0.30849 0.08485 0.0
C3305 C 0.21023 0.30475 0.06854 0.0
C3306 C 0.22168 0.30883 0.05796 0.0
H3307 H 0.24481 0.35016 0.03396 0.0
H3308 H 0.22958 0.33012 0.03291 0.0
H3309 H 0.23662 0.34111 0.05171 0.0
H3310 H 0.25354 0.32589 0.08439 0.0
H3311 H 0.23363 0.3183 0.10287 0.0
H3312 H 0.69963 0.67909 0.34512 0.0
H3313 H 0.71644 0.67326 0.36101 0.0
H3314 H 0.71303 0.69743 0.40184 0.0
H3315 H 0.69641 0.70353 0.386 0.0
H3316 H 0.74299 0.70429 0.39872 0.0
H3317 H 0.70123 0.64079 0.39347 0.0
H3318 H 0.70593 0.64916 0.37482 0.0
H3319 H 0.69581 0.6544 0.38799 0.0
C3320 C 0.7025 0.68324 0.35746 0.0
C3321 C 0.69658 0.69169 0.36431 0.0
C3322 C 0.71203 0.6798 0.36655 0.0
C3323 C 0.71572 0.68463 0.38268 0.0
C3324 C 0.71023 0.69348 0.38944 0.0
H3325 H 0.75395 0.6485 0.45051 0.0
H3326 H 0.73759 0.65597 0.43619 0.0
C3327 C 0.70073 0.69696 0.38035 0.0
C3328 C 0.72527 0.68043 0.3925 0.0
H3329 H 0.72665 0.64957 0.40482 0.0
C3330 C 0.7394 0.69233 0.40011 0.0
C3331 C 0.72043 0.66482 0.39453 0.0
C3332 C 0.70495 0.65155 0.38741 0.0
C3333 C 0.74902 0.68904 0.40938 0.0
C3334 C 0.74448 0.67342 0.41085 0.0
C3335 C 0.73017 0.66153 0.40356 0.0
C3336 C 0.75451 0.66916 0.41971 0.0
C3337 C 0.76386 0.7023 0.41765 0.0
C3338 C 0.76935 0.67393 0.41506 0.0
C3339 C 0.77869 0.66968 0.42318 0.0
C3340 C 0.77333 0.66045 0.43607 0.0
C3341 C 0.75838 0.65554 0.4406 0.0
C3342 C 0.74905 0.65985 0.43247 0.0
H3343 H 0.76346 0.71299 0.41905 0.0
H3344 H 0.7662 0.69936 0.42949 0.0
H3345 H 0.7737 0.70484 0.41054 0.0
H3346 H 0.77364 0.68077 0.40499 0.0
H3347 H 0.79 0.67336 0.41917 0.0
H3348 H 0.32067 0.01071 0.38723 0.0
H3349 H 0.3288 0.03626 0.39945 0.0
H3350 H 0.30976 0.01584 0.44259 0.0
H3351 H 0.30134 0.9902 0.43039 0.0
H3352 H 0.30178 0.03656 0.43405 0.0
H3353 H 0.36519 0.0624 0.43217 0.0
H3354 H 0.35452 0.0545 0.41326 0.0
H3355 H 0.35138 0.04186 0.42876 0.0
C3356 C 0.31821 0.01164 0.39932 0.0
C3357 C 0.3104 0.99841 0.40785 0.0
C3358 C 0.32297 0.02628 0.40632 0.0
C3359 C 0.32016 0.02799 0.42203 0.0
C3360 C 0.31215 0.01479 0.43049 0.0
H3361 H 0.36077 0.1157 0.47927 0.0
H3362 H 0.35367 0.08989 0.46847 0.0
C3363 C 0.30734 0.00014 0.42349 0.0
C3364 C 0.32517 0.04349 0.42951 0.0
H3365 H 0.35687 0.07979 0.43873 0.0
C3366 C 0.31383 0.04599 0.43515 0.0
C3367 C 0.34093 0.05571 0.43116 0.0
C3368 C 0.35374 0.05349 0.42617 0.0
C3369 C 0.31778 0.06048 0.44204 0.0
C3370 C 0.33345 0.07289 0.44304 0.0
C3371 C 0.34485 0.0703 0.43779 0.0
C3372 C 0.33816 0.08868 0.4493 0.0
C3373 C 0.30514 0.06233 0.44832 0.0
C3374 C 0.33208 0.09668 0.44187 0.0
C3375 C 0.33611 0.11136 0.44799 0.0
C3376 C 0.3464 0.11842 0.4616 0.0
C3377 C 0.35286 0.11059 0.46875 0.0
C3378 C 0.34877 0.09584 0.46263 0.0
H3379 H 0.29488 0.051 0.4507 0.0
H3380 H 0.30941 0.07004 0.45936 0.0
H3381 H 0.30129 0.06758 0.43942 0.0
H3382 H 0.32419 0.09155 0.43133 0.0
H3383 H 0.33121 0.11724 0.442 0.0
H3384 H 0.01621 0.32862 0.37032 0.0
H3385 H 0.991 0.32087 0.38006 0.0
H3386 H 0.98181 0.27483 0.38504 0.0
H3387 H 0.00684 0.28236 0.37522 0.0
H3388 H 0.95591 0.27611 0.3717 0.0
H3389 H 0.98384 0.31369 0.4274 0.0
H3390 H 0.98956 0.32286 0.40921 0.0
H3391 H 0.99443 0.30887 0.41435 0.0
C3392 C 0.00876 0.3168 0.37333 0.0
C3393 C 0.01361 0.30614 0.37213 0.0
C3394 C 0.99439 0.31242 0.37895 0.0
C3395 C 0.98467 0.29735 0.38345 0.0
C3396 C 0.98918 0.28653 0.38165 0.0
H3397 H 0.9169 0.25171 0.44697 0.0
H3398 H 0.93953 0.26538 0.43178 0.0
C3399 C 0.00353 0.29088 0.37607 0.0
C3400 C 0.97014 0.29291 0.39085 0.0
H3401 H 0.95666 0.29779 0.42518 0.0
C3402 C 0.956 0.281 0.38328 0.0
C3403 C 0.97039 0.29928 0.40601 0.0
C3404 C 0.98534 0.31181 0.41483 0.0
C3405 C 0.94212 0.27491 0.39071 0.0
C3406 C 0.94245 0.28099 0.40604 0.0
C3407 C 0.95649 0.29327 0.41337 0.0
C3408 C 0.9288 0.27349 0.41543 0.0
C3409 C 0.92735 0.26149 0.38251 0.0
C3410 C 0.91536 0.27375 0.41138 0.0
C3411 C 0.90235 0.2659 0.42006 0.0
C3412 C 0.90262 0.25762 0.43282 0.0
C3413 C 0.91627 0.25776 0.43703 0.0
C3414 C 0.92923 0.26565 0.42845 0.0
H3415 H 0.92945 0.25695 0.37145 0.0
H3416 H 0.92169 0.25194 0.39045 0.0
H3417 H 0.91914 0.26528 0.37952 0.0
H3418 H 0.9149 0.2799 0.40145 0.0
H3419 H 0.89198 0.26596 0.41657 0.0
H3420 H 0.06471 0.37716 0.33408 0.0
H3421 H 0.05958 0.39653 0.32463 0.0
H3422 H 0.04412 0.40061 0.36984 0.0
H3423 H 0.04896 0.38099 0.37935 0.0
H3424 H 0.02339 0.39595 0.34555 0.0
H3425 H 0.08208 0.44311 0.33327 0.0
H3426 H 0.07707 0.42478 0.32396 0.0
H3427 H 0.07895 0.42753 0.34516 0.0
C3428 C 0.06045 0.38234 0.34212 0.0
C3429 C 0.05721 0.3775 0.35747 0.0
C3430 C 0.05762 0.39351 0.33672 0.0
C3431 C 0.05166 0.40018 0.3466 0.0
C3432 C 0.0488 0.39567 0.36206 0.0
H3433 H 0.0381 0.47369 0.3148 0.0
H3434 H 0.04626 0.45908 0.33051 0.0
C3435 C 0.05159 0.38447 0.36747 0.0
C3436 C 0.04718 0.41081 0.34031 0.0
H3437 H 0.0606 0.44363 0.32073 0.0
C3438 C 0.03157 0.40649 0.34032 0.0
C3439 C 0.05789 0.42465 0.33366 0.0
C3440 C 0.07496 0.43039 0.33414 0.0
C3441 C 0.02626 0.41529 0.33325 0.0
C3442 C 0.03678 0.4286 0.32573 0.0
C3443 C 0.05252 0.43331 0.32634 0.0
C3444 C 0.03154 0.43738 0.31657 0.0
C3445 C 0.00941 0.41019 0.33383 0.0
C3446 C 0.0207 0.43004 0.30346 0.0
C3447 C 0.01605 0.43833 0.29447 0.0
C3448 C 0.02225 0.45418 0.29835 0.0
C3449 C 0.03318 0.46152 0.31147 0.0
C3450 C 0.03781 0.45319 0.32048 0.0
H3451 H 0.0042 0.4029 0.34383 0.0
H3452 H 0.00801 0.4203 0.33497 0.0
H3453 H 0.00282 0.40318 0.32275 0.0
H3454 H 0.01602 0.41794 0.29999 0.0
H3455 H 0.00789 0.43241 0.28423 0.0
H3456 H 0.60838 0.65437 0.31403 0.0
H3457 H 0.59592 0.6269 0.30615 0.0
H3458 H 0.62993 0.62443 0.33624 0.0
H3459 H 0.64287 0.65223 0.34387 0.0
H3460 H 0.62413 0.6084 0.30798 0.0
H3461 H 0.56853 0.59206 0.33237 0.0
H3462 H 0.57378 0.60683 0.31888 0.0
H3463 H 0.58586 0.61089 0.33685 0.0
C3464 C 0.61322 0.64802 0.31905 0.0
C3465 C 0.62652 0.65546 0.32972 0.0
C3466 C 0.60601 0.63227 0.31459 0.0
C3467 C 0.61175 0.62352 0.32092 0.0
C3468 C 0.62523 0.63095 0.33133 0.0
H3469 H 0.5494 0.52358 0.3042 0.0
H3470 H 0.56756 0.54913 0.3176 0.0
C3471 C 0.63258 0.64681 0.33569 0.0
C3472 C 0.60365 0.60669 0.3164 0.0
H3473 H 0.56768 0.57382 0.31293 0.0
C3474 C 0.61184 0.60075 0.30926 0.0
C3475 C 0.5877 0.59663 0.31842 0.0
C3476 C 0.57851 0.6019 0.32721 0.0
C3477 C 0.60429 0.58519 0.30335 0.0
C3478 C 0.58806 0.57546 0.30422 0.0
C3479 C 0.58008 0.58126 0.31205 0.0
C3480 C 0.57887 0.55945 0.2966 0.0
C3481 C 0.61383 0.57937 0.29631 0.0
C3482 C 0.57937 0.55661 0.2804 0.0
C3483 C 0.56922 0.54191 0.27284 0.0
C3484 C 0.55817 0.52998 0.28128 0.0
C3485 C 0.55788 0.53267 0.2975 0.0
C3486 C 0.56822 0.54725 0.30513 0.0
H3487 H 0.62601 0.58603 0.30163 0.0
H3488 H 0.60887 0.56691 0.29799 0.0
H3489 H 0.61414 0.58096 0.28347 0.0
H3490 H 0.58711 0.5659 0.27343 0.0
H3491 H 0.56946 0.54009 0.26025 0.0
H3492 H 0.34094 0.97869 0.38452 0.0
H3493 H 0.36599 0.99108 0.37288 0.0
H3494 H 0.36078 0.9465 0.36403 0.0
H3495 H 0.3359 0.93405 0.37566 0.0
H3496 H 0.3915 0.97122 0.37635 0.0
H3497 H 0.36761 0.98597 0.32421 0.0
H3498 H 0.36553 0.9924 0.3434 0.0
H3499 H 0.35526 0.97208 0.33753 0.0
C3500 C 0.34523 0.97155 0.38028 0.0
C3501 C 0.33635 0.95536 0.38088 0.0
C3502 C 0.3595 0.97864 0.37358 0.0
C3503 C 0.3651 0.96966 0.36744 0.0
C3504 C 0.35662 0.95362 0.36868 0.0
H3505 H 0.42254 0.97408 0.29686 0.0
H3506 H 0.40231 0.96974 0.31416 0.0
C3507 C 0.34237 0.94652 0.37529 0.0
C3508 C 0.37934 0.97666 0.3589 0.0
H3509 H 0.39311 0.9914 0.32384 0.0
C3510 C 0.392 0.97588 0.36498 0.0
C3511 C 0.37981 0.98256 0.34401 0.0
C3512 C 0.36633 0.98326 0.33677 0.0
C3513 C 0.40497 0.98044 0.35634 0.0
C3514 C 0.40527 0.98599 0.3413 0.0
C3515 C 0.39282 0.98721 0.33543 0.0
C3516 C 0.41766 0.98913 0.33084 0.0
C3517 C 0.41794 0.97861 0.36299 0.0
C3518 C 0.43294 0.00158 0.33445 0.0
C3519 C 0.44456 0.00408 0.32458 0.0
C3520 C 0.44104 0.99411 0.31102 0.0
C3521 C 0.42565 0.9818 0.30736 0.0
C3522 C 0.41407 0.97937 0.31716 0.0
H3523 H 0.41495 0.97218 0.37382 0.0
H3524 H 0.4208 0.97242 0.35408 0.0
H3525 H 0.4285 0.99022 0.36599 0.0
H3526 H 0.43588 0.00931 0.3449 0.0
H3527 H 0.45633 0.01362 0.32772 0.0
H3528 H 0.64697 0.98204 0.3607 0.0
H3529 H 0.62901 0.98635 0.3449 0.0
H3530 H 0.59732 0.93707 0.33658 0.0
H3531 H 0.61528 0.93256 0.35239 0.0
H3532 H 0.61709 0.97384 0.31162 0.0
H3533 H 0.57118 0.95532 0.35369 0.0
H3534 H 0.5909 0.96121 0.35998 0.0
H3535 H 0.57821 0.94266 0.34958 0.0
C3536 C 0.63615 0.97208 0.35561 0.0
C3537 C 0.63255 0.95693 0.35783 0.0
C3538 C 0.62592 0.97459 0.34655 0.0
C3539 C 0.61184 0.96204 0.33967 0.0
C3540 C 0.6081 0.9469 0.34193 0.0
H3541 H 0.53572 0.96143 0.2867 0.0
H3542 H 0.55231 0.95383 0.30005 0.0
C3543 C 0.61838 0.94436 0.35093 0.0
C3544 C 0.60128 0.96492 0.32986 0.0
H3545 H 0.56685 0.96335 0.32942 0.0
C3546 C 0.60607 0.97151 0.31545 0.0
C3547 C 0.58691 0.96176 0.33489 0.0
C3548 C 0.58144 0.95493 0.35042 0.0
C3549 C 0.59683 0.97507 0.30591 0.0
C3550 C 0.58264 0.97234 0.31115 0.0
C3551 C 0.57774 0.96548 0.32544 0.0
C3552 C 0.57287 0.97686 0.30221 0.0
C3553 C 0.60229 0.98154 0.29023 0.0
C3554 C 0.5789 0.99235 0.29897 0.0
C3555 C 0.5695 0.99671 0.29113 0.0
C3556 C 0.5538 0.9857 0.28653 0.0
C3557 C 0.54782 0.97018 0.28978 0.0
C3558 C 0.55725 0.96582 0.29755 0.0
H3559 H 0.61051 0.97841 0.28585 0.0
H3560 H 0.59238 0.97728 0.28119 0.0
H3561 H 0.60847 0.99436 0.29165 0.0
H3562 H 0.59082 0.00115 0.30275 0.0
H3563 H 0.57452 0.00874 0.28874 0.0
H3564 H 0.01734 0.65968 0.35004 0.0
H3565 H 0.01439 0.63696 0.33559 0.0
H3566 H 0.04326 0.66578 0.30054 0.0
H3567 H 0.0461 0.68859 0.3148 0.0
H3568 H 0.0162 0.63967 0.28754 0.0
H3569 H 0.0461 0.62405 0.33252 0.0
H3570 H 0.03092 0.62601 0.33994 0.0
H3571 H 0.04778 0.64264 0.33338 0.0
C3572 C 0.02319 0.66124 0.33933 0.0
C3573 C 0.032 0.67597 0.3336 0.0
C3574 C 0.02154 0.64823 0.33113 0.0
C3575 C 0.02878 0.64971 0.31711 0.0
C3576 C 0.03763 0.6644 0.31138 0.0
H3577 H 0.03639 0.57649 0.27081 0.0
H3578 H 0.04169 0.60099 0.28332 0.0
C3579 C 0.03927 0.67742 0.31956 0.0
C3580 C 0.02662 0.63584 0.30813 0.0
H3581 H 0.03144 0.60521 0.31113 0.0
C3582 C 0.01962 0.63218 0.29265 0.0
C3583 C 0.03125 0.62619 0.31475 0.0
C3584 C 0.03957 0.62997 0.331 0.0
C3585 C 0.0168 0.61893 0.28373 0.0
C3586 C 0.02087 0.60895 0.29059 0.0
C3587 C 0.02819 0.6128 0.30594 0.0
C3588 C 0.01762 0.59441 0.2821 0.0
C3589 C 0.00966 0.61583 0.26699 0.0
C3590 C 0.00232 0.58258 0.27723 0.0
C3591 C 0.99925 0.5686 0.26992 0.0
C3592 C 0.01143 0.56615 0.26744 0.0
C3593 C 0.02676 0.57809 0.27226 0.0
C3594 C 0.02981 0.59206 0.27954 0.0
H3595 H 0.01128 0.62652 0.26214 0.0
H3596 H 0.01476 0.61096 0.25918 0.0
H3597 H 0.99701 0.6073 0.26678 0.0
H3598 H 0.99271 0.58404 0.27935 0.0
H3599 H 0.98734 0.55969 0.26628 0.0
H3600 H 0.32784 0.35025 0.35953 0.0
H3601 H 0.35265 0.36003 0.34824 0.0
H3602 H 0.36167 0.40649 0.35332 0.0
H3603 H 0.33654 0.39668 0.36411 0.0
H3604 H 0.36581 0.40008 0.32467 0.0
H3605 H 0.39694 0.38275 0.36578 0.0
H3606 H 0.37828 0.36651 0.35867 0.0
H3607 H 0.37955 0.38224 0.37055 0.0
C3608 C 0.3352 0.36259 0.3585 0.0
C3609 C 0.33017 0.37268 0.36265 0.0
C3610 C 0.34948 0.36819 0.35215 0.0
C3611 C 0.35917 0.38404 0.35014 0.0
C3612 C 0.35442 0.39422 0.35482 0.0
H3613 H 0.45099 0.42597 0.31407 0.0
H3614 H 0.42974 0.41704 0.33144 0.0
C3615 C 0.34004 0.3886 0.36098 0.0
C3616 C 0.3734 0.38972 0.34164 0.0
H3617 H 0.40648 0.38878 0.34001 0.0
C3618 C 0.37478 0.39776 0.32816 0.0
C3619 C 0.38523 0.38686 0.34626 0.0
C3620 C 0.38502 0.37926 0.36121 0.0
C3621 C 0.38738 0.40261 0.31893 0.0
C3622 C 0.39868 0.39889 0.32298 0.0
C3623 C 0.39763 0.39134 0.33675 0.0
C3624 C 0.41164 0.40284 0.313 0.0
C3625 C 0.38849 0.4118 0.30499 0.0
C3626 C 0.40854 0.39731 0.29705 0.0
C3627 C 0.42059 0.40247 0.28714 0.0
C3628 C 0.43599 0.41303 0.29307 0.0
C3629 C 0.43921 0.41776 0.30925 0.0
C3630 C 0.4271 0.41272 0.31915 0.0
H3631 H 0.38179 0.41754 0.3063 0.0
H3632 H 0.40074 0.4208 0.30344 0.0
H3633 H 0.38358 0.40387 0.29412 0.0
H3634 H 0.39672 0.38934 0.29217 0.0
H3635 H 0.41785 0.39852 0.27474 0.0
H3636 H 0.28374 0.29832 0.39929 0.0
H3637 H 0.29305 0.28221 0.40951 0.0
H3638 H 0.31902 0.2892 0.36879 0.0
H3639 H 0.3096 0.30513 0.35832 0.0
H3640 H 0.3041 0.25878 0.37762 0.0
H3641 H 0.33768 0.30109 0.4287 0.0
H3642 H 0.31746 0.29476 0.42711 0.0
H3643 H 0.32957 0.30567 0.41198 0.0
C3644 C 0.29131 0.29631 0.39241 0.0
C3645 C 0.29605 0.30314 0.37806 0.0
C3646 C 0.29669 0.28718 0.39832 0.0
C3647 C 0.307 0.28482 0.39007 0.0
C3648 C 0.31117 0.29099 0.37539 0.0
H3649 H 0.36362 0.25361 0.43586 0.0
H3650 H 0.35509 0.26792 0.42021 0.0
C3651 C 0.30575 0.30009 0.36944 0.0
C3652 C 0.31378 0.27629 0.39699 0.0
H3653 H 0.33532 0.27659 0.42925 0.0
C3654 C 0.311 0.26269 0.38887 0.0
C3655 C 0.32306 0.28162 0.41149 0.0
C3656 C 0.32727 0.29667 0.42027 0.0
C3657 C 0.31684 0.25399 0.39514 0.0
C3658 C 0.32545 0.25891 0.41003 0.0
C3659 C 0.32862 0.27277 0.41789 0.0
C3660 C 0.33082 0.24964 0.41801 0.0
C3661 C 0.31382 0.23968 0.38571 0.0
C3662 C 0.32004 0.23458 0.42185 0.0
C3663 C 0.32489 0.22634 0.43066 0.0
C3664 C 0.34061 0.23307 0.43597 0.0
C3665 C 0.35146 0.24803 0.4318 0.0
C3666 C 0.34659 0.25626 0.42295 0.0
H3667 H 0.31149 0.24019 0.37292 0.0
H3668 H 0.32381 0.23809 0.38733 0.0
H3669 H 0.30344 0.22938 0.38975 0.0
H3670 H 0.30778 0.22934 0.41845 0.0
H3671 H 0.31627 0.21477 0.43353 0.0
H3672 H 0.68769 0.01297 0.39906 0.0
H3673 H 0.69947 0.04073 0.40624 0.0
H3674 H 0.74455 0.0462 0.41245 0.0
H3675 H 0.73296 0.01859 0.40549 0.0
H3676 H 0.71948 0.05673 0.43691 0.0
H3677 H 0.74874 0.08059 0.38248 0.0
H3678 H 0.73204 0.06118 0.38273 0.0
H3679 H 0.75092 0.06547 0.38995 0.0
C3680 C 0.70013 0.02012 0.40182 0.0
C3681 C 0.7094 0.01359 0.40173 0.0
C3682 C 0.70681 0.03594 0.40593 0.0
C3683 C 0.72286 0.04545 0.40971 0.0
C3684 C 0.73215 0.03903 0.40939 0.0
H3685 H 0.79712 0.13299 0.44364 0.0
H3686 H 0.77844 0.10725 0.43138 0.0
C3687 C 0.72549 0.02324 0.40547 0.0
C3688 C 0.73003 0.06198 0.41488 0.0
H3689 H 0.75752 0.0981 0.40547 0.0
C3690 C 0.72757 0.06587 0.42997 0.0
C3691 C 0.74054 0.07375 0.40573 0.0
C3692 C 0.74317 0.07012 0.38925 0.0
C3693 C 0.73618 0.08121 0.43662 0.0
C3694 C 0.74726 0.09293 0.42772 0.0
C3695 C 0.74905 0.08909 0.41227 0.0
C3696 C 0.75831 0.10883 0.43479 0.0
C3697 C 0.73407 0.08456 0.45342 0.0
C3698 C 0.75321 0.11837 0.44062 0.0
C3699 C 0.76389 0.13308 0.44791 0.0
C3700 C 0.77985 0.13849 0.44938 0.0
C3701 C 0.78489 0.12904 0.44307 0.0
C3702 C 0.77424 0.11438 0.43589 0.0
H3703 H 0.72726 0.07381 0.45957 0.0
H3704 H 0.74549 0.09206 0.46022 0.0
H3705 H 0.72777 0.09078 0.45345 0.0
H3706 H 0.74098 0.11441 0.43963 0.0
H3707 H 0.75964 0.14008 0.45264 0.0
H3708 H 0.99224 0.68411 0.35307 0.0
H3709 H 0.96547 0.66649 0.35955 0.0
H3710 H 0.96037 0.70548 0.36908 0.0
H3711 H 0.9869 0.72307 0.36257 0.0
H3712 H 0.95484 0.6671 0.38885 0.0
H3713 H 0.92012 0.67522 0.34261 0.0
H3714 H 0.93998 0.68069 0.3406 0.0
H3715 H 0.93579 0.69339 0.35156 0.0
C3716 C 0.98531 0.6889 0.35626 0.0
C3717 C 0.99172 0.70501 0.35734 0.0
C3718 C 0.97003 0.67881 0.35996 0.0
C3719 C 0.96086 0.68466 0.36456 0.0
C3720 C 0.9671 0.70068 0.3652 0.0
H3721 H 0.88852 0.67176 0.41617 0.0
H3722 H 0.90931 0.67842 0.39892 0.0
C3723 C 0.98234 0.71075 0.3616 0.0
C3724 C 0.94539 0.6744 0.37035 0.0
H3725 H 0.90833 0.66675 0.36728 0.0
C3726 C 0.94453 0.66664 0.38392 0.0
C3727 C 0.93197 0.67378 0.36383 0.0
C3728 C 0.93196 0.68109 0.34874 0.0
C3729 C 0.93094 0.65938 0.3919 0.0
C3730 C 0.91787 0.65974 0.38599 0.0
C3731 C 0.91841 0.66657 0.37182 0.0
C3732 C 0.90442 0.65504 0.39542 0.0
C3733 C 0.93102 0.65234 0.40718 0.0
C3734 C 0.89458 0.63961 0.39893 0.0
C3735 C 0.88269 0.63577 0.40891 0.0
C3736 C 0.88054 0.64733 0.41553 0.0
C3737 C 0.89009 0.66265 0.4115 0.0
C3738 C 0.90188 0.66645 0.40154 0.0
H3739 H 0.94274 0.65478 0.41114 0.0
H3740 H 0.92692 0.65684 0.41663 0.0
H3741 H 0.92296 0.6396 0.40558 0.0
H3742 H 0.89626 0.63062 0.39416 0.0
H3743 H 0.87548 0.62387 0.41181 0.0
H3744 H 0.3397 0.00801 0.72674 0.0
H3745 H 0.35943 0.00552 0.74144 0.0
H3746 H 0.39522 0.04298 0.71769 0.0
H3747 H 0.37545 0.04538 0.70262 0.0
H3748 H 0.39896 0.01831 0.71846 0.0
H3749 H 0.38933 0.03346 0.77821 0.0
H3750 H 0.37187 0.01797 0.7678 0.0
H3751 H 0.38145 0.03694 0.76048 0.0
C3752 C 0.35177 0.0158 0.72467 0.0
C3753 C 0.356 0.02695 0.71354 0.0
C3754 C 0.36305 0.01442 0.73319 0.0
C3755 C 0.37882 0.02426 0.7309 0.0
C3756 C 0.38311 0.03534 0.71972 0.0
H3757 H 0.45386 0.03067 0.7921 0.0
H3758 H 0.43579 0.03595 0.77785 0.0
C3759 C 0.3718 0.0367 0.71113 0.0
C3760 C 0.39073 0.02253 0.73977 0.0
H3761 H 0.40428 0.02154 0.77697 0.0
C3762 C 0.40022 0.01914 0.73126 0.0
C3763 C 0.39251 0.02383 0.75646 0.0
C3764 C 0.38336 0.02841 0.76628 0.0
C3765 C 0.41113 0.01657 0.73898 0.0
C3766 C 0.41233 0.01707 0.75566 0.0
C3767 C 0.40318 0.02093 0.76418 0.0
C3768 C 0.42307 0.01369 0.7645 0.0
C3769 C 0.42136 0.01349 0.72919 0.0
C3770 C 0.42171 0.99929 0.76198 0.0
C3771 C 0.4321 0.99628 0.76998 0.0
C3772 C 0.44399 0.00757 0.78081 0.0
C3773 C 0.44501 0.02181 0.78366 0.0
C3774 C 0.43464 0.02482 0.7756 0.0
H3775 H 0.42217 0.01788 0.71729 0.0
H3776 H 0.43326 0.01896 0.73507 0.0
H3777 H 0.41636 0.00082 0.72759 0.0
H3778 H 0.41264 0.99039 0.75373 0.0
H3779 H 0.43105 0.98525 0.76739 0.0
H3780 H 0.96578 0.31831 0.75696 0.0
H3781 H 0.96942 0.34174 0.77056 0.0
H3782 H 0.98441 0.36572 0.72818 0.0
H3783 H 0.98104 0.34243 0.71453 0.0
H3784 H 0.0037 0.38265 0.75483 0.0
H3785 H 0.942 0.35985 0.76506 0.0
H3786 H 0.94929 0.3483 0.7723 0.0
H3787 H 0.94781 0.35013 0.75145 0.0
C3788 C 0.96976 0.32853 0.75049 0.0
C3789 C 0.97306 0.32848 0.73463 0.0
C3790 C 0.97177 0.34189 0.75827 0.0
C3791 C 0.97699 0.3554 0.75032 0.0
C3792 C 0.98032 0.35539 0.73451 0.0
H3793 H 0.97428 0.43636 0.77874 0.0
H3794 H 0.97081 0.41276 0.7658 0.0
C3795 C 0.97835 0.34206 0.72672 0.0
C3796 C 0.97936 0.36967 0.75857 0.0
H3797 H 0.96061 0.38444 0.77775 0.0
C3798 C 0.99428 0.38306 0.75983 0.0
C3799 C 0.96702 0.37021 0.76493 0.0
C3800 C 0.95059 0.35641 0.76327 0.0
C3801 C 0.99724 0.39697 0.76739 0.0
C3802 C 0.98497 0.39739 0.7741 0.0
C3803 C 0.97003 0.38403 0.77273 0.0
C3804 C 0.98725 0.41173 0.78209 0.0
C3805 C 0.01337 0.41116 0.76781 0.0
C3806 C 0.99757 0.41891 0.79563 0.0
C3807 C 0.99957 0.43242 0.80308 0.0
C3808 C 0.99116 0.43887 0.7972 0.0
C3809 C 0.98077 0.43156 0.78369 0.0
C3810 C 0.97882 0.41812 0.77624 0.0
H3811 H 0.02032 0.40992 0.75886 0.0
H3812 H 0.01292 0.42164 0.76573 0.0
H3813 H 0.01947 0.41296 0.77961 0.0
H3814 H 0.00395 0.414 0.80053 0.0
H3815 H 0.00751 0.43768 0.81357 0.0
H3816 H 0.67591 0.60913 0.70955 0.0
H3817 H 0.65038 0.59848 0.71966 0.0
H3818 H 0.65222 0.64113 0.71244 0.0
H3819 H 0.67765 0.65184 0.70212 0.0
H3820 H 0.64458 0.61081 0.74609 0.0
H3821 H 0.60857 0.60815 0.69333 0.0
H3822 H 0.62729 0.61023 0.69209 0.0
H3823 H 0.62606 0.62668 0.69802 0.0
C3824 C 0.67081 0.61618 0.70989 0.0
C3825 C 0.67885 0.63135 0.70504 0.0
C3826 C 0.65622 0.61008 0.71568 0.0
C3827 C 0.64935 0.61896 0.71665 0.0
C3828 C 0.65718 0.63397 0.71151 0.0
H3829 H 0.57844 0.6032 0.77979 0.0
H3830 H 0.60161 0.61496 0.76505 0.0
C3831 C 0.67176 0.6401 0.7057 0.0
C3832 C 0.63458 0.61294 0.72415 0.0
H3833 H 0.59709 0.60375 0.71782 0.0
C3834 C 0.63419 0.60923 0.7399 0.0
C3835 C 0.62103 0.61082 0.716 0.0
C3836 C 0.62065 0.61404 0.69888 0.0
C3837 C 0.62063 0.60356 0.74779 0.0
C3838 C 0.60719 0.60179 0.73977 0.0
C3839 C 0.6075 0.60533 0.72397 0.0
C3840 C 0.59254 0.59563 0.74752 0.0
C3841 C 0.62073 0.59921 0.76454 0.0
C3842 C 0.57954 0.5812 0.74211 0.0
C3843 C 0.56625 0.57452 0.7504 0.0
C3844 C 0.5657 0.5822 0.76423 0.0
C3845 C 0.57846 0.59703 0.76914 0.0
C3846 C 0.59176 0.6037 0.76083 0.0
H3847 H 0.63076 0.59796 0.76771 0.0
H3848 H 0.62156 0.6084 0.77274 0.0
H3849 H 0.60986 0.58818 0.76636 0.0
H3850 H 0.5799 0.57485 0.73179 0.0
H3851 H 0.55651 0.56318 0.7462 0.0
H3852 H 0.70222 0.70384 0.70917 0.0
H3853 H 0.69306 0.71994 0.69856 0.0
H3854 H 0.71011 0.71779 0.65371 0.0
H3855 H 0.7196 0.702 0.66429 0.0
H3856 H 0.71648 0.74683 0.6624 0.0
H3857 H 0.65442 0.70297 0.66828 0.0
H3858 H 0.66656 0.70882 0.6864 0.0
H3859 H 0.6695 0.69864 0.67057 0.0
C3860 C 0.70414 0.7069 0.69709 0.0
C3861 C 0.71154 0.70153 0.68754 0.0
C3862 C 0.69879 0.71601 0.69101 0.0
C3863 C 0.7006 0.71977 0.67524 0.0
C3864 C 0.7085 0.71493 0.66588 0.0
H3865 H 0.65084 0.74808 0.61443 0.0
H3866 H 0.66084 0.73429 0.62879 0.0
C3867 C 0.71392 0.7059 0.67196 0.0
C3868 C 0.69408 0.72855 0.66834 0.0
H3869 H 0.66009 0.72709 0.65961 0.0
C3870 C 0.70416 0.74255 0.66183 0.0
C3871 C 0.67796 0.72281 0.6674 0.0
C3872 C 0.66644 0.70742 0.67339 0.0
C3873 C 0.69858 0.75098 0.65439 0.0
C3874 C 0.6825 0.74541 0.65376 0.0
C3875 C 0.67242 0.73141 0.66027 0.0
C3876 C 0.67584 0.75358 0.64574 0.0
C3877 C 0.70988 0.76549 0.64684 0.0
C3878 C 0.68066 0.76886 0.65076 0.0
C3879 C 0.67498 0.77677 0.64256 0.0
C3880 C 0.66424 0.76947 0.6293 0.0
C3881 C 0.65899 0.75397 0.62468 0.0
C3882 C 0.66475 0.7461 0.63282 0.0
H3883 H 0.72087 0.76598 0.64486 0.0
H3884 H 0.70475 0.7663 0.63535 0.0
H3885 H 0.71279 0.77575 0.65473 0.0
H3886 H 0.68891 0.77472 0.66094 0.0
H3887 H 0.67905 0.78863 0.64653 0.0
H3888 H 0.27548 0.98612 0.64826 0.0
H3889 H 0.26386 0.95844 0.64218 0.0
H3890 H 0.29993 0.95946 0.67223 0.0
H3891 H 0.31196 0.98743 0.67812 0.0
H3892 H 0.29343 0.94179 0.64441 0.0
H3893 H 0.23905 0.92542 0.6717 0.0
H3894 H 0.24307 0.93915 0.65724 0.0
H3895 H 0.25613 0.94464 0.67472 0.0
C3896 C 0.28096 0.98049 0.65363 0.0
C3897 C 0.29457 0.98896 0.66381 0.0
C3898 C 0.27425 0.96464 0.65019 0.0
C3899 C 0.28082 0.95683 0.65704 0.0
C3900 C 0.29461 0.96526 0.66693 0.0
H3901 H 0.22113 0.85632 0.64809 0.0
H3902 H 0.23965 0.88264 0.65957 0.0
C3903 C 0.30144 0.98122 0.67029 0.0
C3904 C 0.27318 0.93987 0.65374 0.0
H3905 H 0.23805 0.90627 0.65351 0.0
C3906 C 0.28138 0.93395 0.64659 0.0
C3907 C 0.25759 0.92961 0.65693 0.0
C3908 C 0.24851 0.93501 0.66573 0.0
C3909 C 0.27412 0.91812 0.64181 0.0
C3910 C 0.25816 0.90808 0.64389 0.0
C3911 C 0.25023 0.91394 0.65173 0.0
C3912 C 0.24911 0.89165 0.63745 0.0
C3913 C 0.28366 0.91238 0.63462 0.0
C3914 C 0.24853 0.88782 0.62127 0.0
C3915 C 0.23818 0.87271 0.61479 0.0
C3916 C 0.22801 0.86131 0.62432 0.0
C3917 C 0.22892 0.86497 0.64055 0.0
C3918 C 0.23946 0.87999 0.64708 0.0
H3919 H 0.29608 0.91973 0.63908 0.0
H3920 H 0.27937 0.90022 0.63718 0.0
H3921 H 0.28298 0.91299 0.62164 0.0
H3922 H 0.25549 0.89666 0.61348 0.0
H3923 H 0.23749 0.87014 0.60219 0.0
H3924 H 0.01329 0.31964 0.71464 0.0
H3925 H 0.039 0.337 0.70538 0.0
H3926 H 0.03971 0.29755 0.68623 0.0
H3927 H 0.01417 0.28017 0.69534 0.0
H3928 H 0.06846 0.33781 0.71122 0.0
H3929 H 0.04549 0.32482 0.6484 0.0
H3930 H 0.03323 0.32086 0.66445 0.0
H3931 H 0.03955 0.3079 0.65903 0.0
C3932 C 0.01898 0.31466 0.70858 0.0
C3933 C 0.01161 0.29851 0.70562 0.0
C3934 C 0.03365 0.3246 0.70331 0.0
C3935 C 0.04109 0.31853 0.69493 0.0
C3936 C 0.03402 0.30244 0.69247 0.0
H3937 H 0.13032 0.34535 0.66902 0.0
H3938 H 0.10738 0.33831 0.68306 0.0
C3939 C 0.01943 0.29253 0.69774 0.0
C3940 C 0.05606 0.32884 0.68831 0.0
H3941 H 0.07291 0.33669 0.65344 0.0
C3942 C 0.06946 0.33779 0.69859 0.0
C3943 C 0.05725 0.32901 0.67183 0.0
C3944 C 0.0431 0.32026 0.66025 0.0
C3945 C 0.08419 0.34621 0.69279 0.0
C3946 C 0.08547 0.34543 0.67634 0.0
C3947 C 0.07195 0.33722 0.66606 0.0
C3948 C 0.10063 0.35175 0.6695 0.0
C3949 C 0.09824 0.35565 0.70433 0.0
C3950 C 0.10451 0.36166 0.6572 0.0
C3951 C 0.11752 0.36552 0.64898 0.0
C3952 C 0.12681 0.35943 0.65286 0.0
C3953 C 0.1233 0.3501 0.66567 0.0
C3954 C 0.1103 0.34624 0.67385 0.0
H3955 H 0.09514 0.35942 0.71524 0.0
H3956 H 0.10299 0.34843 0.70778 0.0
H3957 H 0.10745 0.36604 0.69908 0.0
H3958 H 0.09712 0.36592 0.65356 0.0
H3959 H 0.11982 0.3726 0.63907 0.0
H3960 H 0.31017 0.32937 0.71698 0.0
H3961 H 0.29264 0.33395 0.70078 0.0
H3962 H 0.2867 0.29943 0.66531 0.0
H3963 H 0.30454 0.295 0.6813 0.0
H3964 H 0.2929 0.32588 0.65261 0.0
H3965 H 0.24598 0.30829 0.69267 0.0
H3966 H 0.26467 0.32262 0.70201 0.0
H3967 H 0.26087 0.30377 0.69565 0.0
C3968 C 0.30499 0.32259 0.70582 0.0
C3969 C 0.30874 0.31179 0.70045 0.0
C3970 C 0.2949 0.32518 0.69661 0.0
C3971 C 0.28817 0.31688 0.68193 0.0
C3972 C 0.29171 0.30592 0.67663 0.0
H3973 H 0.21461 0.32058 0.62904 0.0
H3974 H 0.23 0.31199 0.64307 0.0
C3975 C 0.30188 0.30338 0.6858 0.0
C3976 C 0.27815 0.32026 0.67177 0.0
H3977 H 0.24603 0.32301 0.67138 0.0
C3978 C 0.28257 0.32512 0.65665 0.0
C3979 C 0.26456 0.31907 0.67696 0.0
C3980 C 0.25864 0.313 0.69265 0.0
C3981 C 0.27401 0.32922 0.64676 0.0
C3982 C 0.26087 0.32879 0.65229 0.0
C3983 C 0.25621 0.32352 0.66722 0.0
C3984 C 0.2518 0.33381 0.64284 0.0
C3985 C 0.27904 0.33383 0.63045 0.0
C3986 C 0.25894 0.34894 0.63799 0.0
C3987 C 0.2502 0.35383 0.62973 0.0
C3988 C 0.2341 0.34374 0.62631 0.0
C3989 C 0.22702 0.32858 0.63116 0.0
C3990 C 0.23578 0.32368 0.63933 0.0
H3991 H 0.28608 0.32911 0.62636 0.0
H3992 H 0.26888 0.32974 0.62177 0.0
H3993 H 0.28632 0.34664 0.63067 0.0
H3994 H 0.27123 0.35708 0.64086 0.0
H3995 H 0.25605 0.36555 0.6261 0.0
H3996 H 0.72753 0.01104 0.6582 0.0
H3997 H 0.7182 0.98478 0.64699 0.0
H3998 H 0.67234 0.97689 0.63775 0.0
H3999 H 0.68154 0.00307 0.64873 0.0
H4000 H 0.69417 0.95645 0.65683 0.0
H4001 H 0.68131 0.96455 0.59501 0.0
H4002 H 0.69319 0.98061 0.6094 0.0
H4003 H 0.67239 0.97005 0.60942 0.0
C4004 C 0.71548 0.00374 0.65371 0.0
C4005 C 0.70531 0.0092 0.65429 0.0
C4006 C 0.71017 0.98874 0.64733 0.0
C4007 C 0.69464 0.97898 0.64133 0.0
C4008 C 0.68444 0.98434 0.64202 0.0
H4009 H 0.63998 0.88414 0.59938 0.0
H4010 H 0.64878 0.91022 0.61086 0.0
C4011 C 0.68972 0.9993 0.64838 0.0
C4012 C 0.68897 0.96304 0.63472 0.0
H4013 H 0.67263 0.93883 0.6012 0.0
C4014 C 0.68953 0.9526 0.64465 0.0
C4015 C 0.68285 0.95805 0.61885 0.0
C4016 C 0.6825 0.96892 0.60748 0.0
C4017 C 0.68392 0.93723 0.63918 0.0
C4018 C 0.67785 0.93226 0.6233 0.0
C4019 C 0.67725 0.94267 0.61338 0.0
C4020 C 0.67245 0.9164 0.61663 0.0
C4021 C 0.68428 0.92635 0.65054 0.0
C4022 C 0.68288 0.91133 0.61595 0.0
C4023 C 0.67789 0.89648 0.60947 0.0
C4024 C 0.66238 0.88642 0.60343 0.0
C4025 C 0.65196 0.89156 0.60407 0.0
C4026 C 0.65698 0.90646 0.61054 0.0
H4027 H 0.6853 0.93065 0.66302 0.0
H4028 H 0.67366 0.91462 0.64852 0.0
H4029 H 0.69448 0.92535 0.64872 0.0
H4030 H 0.69492 0.9189 0.62034 0.0
H4031 H 0.68618 0.89282 0.60933 0.0
H4032 H 0.98787 0.67672 0.69776 0.0
H4033 H 0.01384 0.6847 0.6901 0.0
H4034 H 0.02417 0.7313 0.68654 0.0
H4035 H 0.99835 0.72352 0.69424 0.0
H4036 H 0.0249 0.69705 0.6613 0.0
H4037 H 0.06303 0.73774 0.71159 0.0
H4038 H 0.04264 0.72378 0.71293 0.0
H4039 H 0.0487 0.74169 0.70411 0.0
C4040 C 0.99576 0.68873 0.69559 0.0
C4041 C 0.99102 0.69948 0.69658 0.0
C4042 C 0.01058 0.69325 0.69121 0.0
C4043 C 0.02098 0.70862 0.68797 0.0
C4044 C 0.01643 0.71945 0.68932 0.0
H4045 H 0.10114 0.7662 0.6426 0.0
H4046 H 0.079 0.75363 0.65854 0.0
C4047 C 0.00161 0.71494 0.69361 0.0
C4048 C 0.03605 0.71314 0.68173 0.0
H4049 H 0.07486 0.74004 0.68722 0.0
C4050 C 0.03589 0.70623 0.66708 0.0
C4051 C 0.05032 0.72509 0.68935 0.0
C4052 C 0.05124 0.73241 0.70544 0.0
C4053 C 0.04952 0.71165 0.65934 0.0
C4054 C 0.0637 0.72412 0.66663 0.0
C4055 C 0.06397 0.7305 0.68165 0.0
C4056 C 0.07797 0.73182 0.65811 0.0
C4057 C 0.04845 0.70464 0.64302 0.0
C4058 C 0.08498 0.72384 0.65288 0.0
C4059 C 0.09759 0.73097 0.64358 0.0
C4060 C 0.10336 0.7462 0.63941 0.0
C4061 C 0.09674 0.75435 0.64531 0.0
C4062 C 0.08418 0.74723 0.65454 0.0
H4063 H 0.03624 0.69708 0.63797 0.0
H4064 H 0.05487 0.71384 0.63489 0.0
H4065 H 0.05378 0.69751 0.64358 0.0
H4066 H 0.08052 0.71202 0.65574 0.0
H4067 H 0.10248 0.72442 0.63923 0.0
H4068 H 0.93857 0.62931 0.73433 0.0
H4069 H 0.9435 0.61038 0.74552 0.0
H4070 H 0.96127 0.60554 0.7021 0.0
H4071 H 0.95665 0.62471 0.69087 0.0
H4072 H 0.93315 0.57979 0.73608 0.0
H4073 H 0.99721 0.61743 0.73493 0.0
H4074 H 0.98441 0.62457 0.73175 0.0
H4075 H 0.98636 0.6134 0.71619 0.0
C4076 C 0.94343 0.62415 0.72709 0.0
C4077 C 0.94737 0.62864 0.71175 0.0
C4078 C 0.94623 0.61333 0.73352 0.0
C4079 C 0.95303 0.60679 0.72475 0.0
C4080 C 0.95634 0.61072 0.70919 0.0
H4081 H 0.98456 0.54555 0.75469 0.0
H4082 H 0.97712 0.56052 0.73865 0.0
C4083 C 0.95359 0.6216 0.70276 0.0
C4084 C 0.95698 0.5962 0.73214 0.0
H4085 H 0.98754 0.59269 0.74421 0.0
C4086 C 0.94503 0.58257 0.7378 0.0
C4087 C 0.9725 0.59987 0.73437 0.0
C4088 C 0.9859 0.61467 0.72912 0.0
C4089 C 0.94819 0.57256 0.74574 0.0
C4090 C 0.96373 0.57639 0.74822 0.0
C4091 C 0.97564 0.5898 0.74223 0.0
C4092 C 0.96796 0.56709 0.75777 0.0
C4093 C 0.9349 0.55797 0.75142 0.0
C4094 C 0.96549 0.56606 0.77386 0.0
C4095 C 0.96985 0.55768 0.78307 0.0
C4096 C 0.9768 0.55016 0.77637 0.0
C4097 C 0.97936 0.55131 0.76024 0.0
C4098 C 0.97504 0.55976 0.75104 0.0
H4099 H 0.92364 0.55466 0.74506 0.0
H4100 H 0.93676 0.54818 0.74987 0.0
H4101 H 0.93412 0.5599 0.76417 0.0
H4102 H 0.96039 0.57195 0.77936 0.0
H4103 H 0.96803 0.55734 0.79551 0.0
H4104 H 0.357 0.35028 0.72514 0.0
H4105 H 0.36716 0.3775 0.73342 0.0
H4106 H 0.41064 0.38296 0.75037 0.0
H4107 H 0.40075 0.35599 0.74204 0.0
H4108 H 0.37766 0.39189 0.76382 0.0
H4109 H 0.42437 0.41971 0.72346 0.0
H4110 H 0.40879 0.39967 0.72029 0.0
H4111 H 0.42535 0.40519 0.73386 0.0
C4112 C 0.36879 0.35733 0.73047 0.0
C4113 C 0.37809 0.35096 0.73288 0.0
C4114 C 0.37455 0.37286 0.73521 0.0
C4115 C 0.38972 0.38229 0.74228 0.0
C4116 C 0.39902 0.37598 0.74461 0.0
H4117 H 0.43647 0.45882 0.80897 0.0
H4118 H 0.41864 0.43392 0.79446 0.0
C4119 C 0.39329 0.36051 0.73992 0.0
C4120 C 0.39574 0.39853 0.74804 0.0
H4121 H 0.42709 0.43512 0.74703 0.0
C4122 C 0.38831 0.40142 0.75996 0.0
C4123 C 0.40945 0.41098 0.74278 0.0
C4124 C 0.41736 0.40877 0.72927 0.0
C4125 C 0.39483 0.41629 0.7675 0.0
C4126 C 0.40926 0.42846 0.76316 0.0
C4127 C 0.41612 0.42576 0.75051 0.0
C4128 C 0.4182 0.44367 0.77239 0.0
C4129 C 0.38632 0.41873 0.78021 0.0
C4130 C 0.42393 0.45747 0.76483 0.0
C4131 C 0.43436 0.47173 0.77306 0.0
C4132 C 0.4393 0.47243 0.78898 0.0
C4133 C 0.43299 0.45865 0.79668 0.0
C4134 C 0.42262 0.44441 0.78845 0.0
H4135 H 0.37359 0.41041 0.77821 0.0
H4136 H 0.39023 0.41673 0.7918 0.0
H4137 H 0.38862 0.43069 0.7808 0.0
H4138 H 0.42078 0.45715 0.75241 0.0
H4139 H 0.43916 0.48211 0.76672 0.0
H4140 H 0.65855 0.02062 0.68268 0.0
H4141 H 0.63239 0.00695 0.69187 0.0
H4142 H 0.63518 0.05046 0.70023 0.0
H4143 H 0.66116 0.06416 0.69105 0.0
H4144 H 0.62601 0.01223 0.72237 0.0
H4145 H 0.59181 0.02265 0.67749 0.0
H4146 H 0.61021 0.02477 0.6739 0.0
H4147 H 0.60962 0.04004 0.68459 0.0
C4148 C 0.65347 0.02724 0.6862 0.0
C4149 C 0.66196 0.04349 0.68618 0.0
C4150 C 0.63854 0.01941 0.69145 0.0
C4151 C 0.63179 0.02768 0.69653 0.0
C4152 C 0.64004 0.04382 0.69605 0.0
H4153 H 0.56444 0.02536 0.75152 0.0
H4154 H 0.58409 0.02972 0.73349 0.0
C4155 C 0.65496 0.05166 0.69091 0.0
C4156 C 0.61685 0.0198 0.70388 0.0
H4157 H 0.58156 0.01646 0.70296 0.0
C4158 C 0.61613 0.01282 0.71798 0.0
C4159 C 0.60401 0.02061 0.69808 0.0
C4160 C 0.60386 0.02729 0.68259 0.0
C4161 C 0.60332 0.00757 0.72702 0.0
C4162 C 0.59082 0.00912 0.72162 0.0
C4163 C 0.59119 0.01534 0.70709 0.0
C4164 C 0.57809 0.00589 0.73165 0.0
C4165 C 0.60371 0.00132 0.74273 0.0
C4166 C 0.56799 0.99097 0.73635 0.0
C4167 C 0.55682 0.98846 0.74683 0.0
C4168 C 0.55557 0.00085 0.75271 0.0
C4169 C 0.56533 0.01564 0.74747 0.0
C4170 C 0.57647 0.01813 0.73705 0.0
H4171 H 0.61538 0.00348 0.7464 0.0
H4172 H 0.6003 0.00664 0.75206 0.0
H4173 H 0.59531 0.98864 0.74189 0.0
H4174 H 0.56892 0.98133 0.73212 0.0
H4175 H 0.54949 0.97694 0.75066 0.0
loop_
_geom_bond_atom_site_label_1
_geom_bond_atom_site_label_2
_geom_bond_distance
_geom_bond_site_symmetry_2
_ccdc_geom_bond_type
Zn0 O3 2.031 . S
Zn0 O5 2.049 . S
Zn0 O10 2.067 . S
Zn1 O2 1.962 1_455 S
Zn1 O4 1.986 . S
Zn1 O6 1.996 1_455 S
Zn1 O9 1.943 . S
O2 Zn1 1.962 1_655 S
O2 C7 1.254 . S
O3 Zn0 2.031 . S
O3 C7 1.269 . S
O4 Zn1 1.986 . S
O4 C11 1.262 . S
O5 Zn0 2.049 . S
O5 C13 1.260 . S
O6 Zn1 1.996 1_655 S
O6 C13 1.257 . S
C7 O2 1.254 . S
C7 O3 1.269 . S
C8 O9 1.249 . S
C8 O10 1.270 1_455 S
O9 Zn1 1.943 . S
O9 C8 1.249 . S
O10 Zn0 2.067 . S
O10 C8 1.270 1_655 S
C11 O4 1.262 . S
C11 O12 1.232 . S
O12 C11 1.232 . S
C13 O5 1.260 . S
C13 O6 1.257 . S
Zn14 O17 2.031 . S
Zn14 O19 2.049 . S
Zn14 O24 2.067 . S
Zn15 O16 1.962 . S
Zn15 O18 1.986 . S
Zn15 O20 1.996 . S
Zn15 O23 1.943 . S
O16 Zn15 1.962 . S
O16 C21 1.254 . S
O17 Zn14 2.031 . S
O17 C21 1.269 . S
O18 Zn15 1.986 . S
O18 C25 1.262 . S
O19 Zn14 2.049 . S
O19 C27 1.260 . S
O20 Zn15 1.996 . S
O20 C27 1.257 . S
C21 O16 1.254 . S
C21 O17 1.269 . S
C22 O23 1.249 . S
C22 O24 1.270 . S
O23 Zn15 1.943 . S
O23 C22 1.249 . S
O24 Zn14 2.067 . S
O24 C22 1.270 . S
C25 O18 1.262 . S
C25 O26 1.232 . S
O26 C25 1.232 . S
C27 O19 1.260 . S
C27 O20 1.257 . S
Zn28 O31 2.031 . S
Zn28 O33 2.049 . S
Zn28 O38 2.064 1_565 S
Zn29 O30 1.962 1_545 S
Zn29 O32 1.986 . S
Zn29 O34 1.996 1_545 S
Zn29 O37 1.943 . S
O30 Zn29 1.962 1_565 S
O30 C35 1.254 . S
O31 Zn28 2.031 . S
O31 C35 1.269 . S
O32 Zn29 1.986 . S
O32 C39 1.262 . S
O33 Zn28 2.049 . S
O33 C41 1.260 . S
O34 Zn29 1.996 1_565 S
O34 C41 1.257 . S
C35 O30 1.254 . S
C35 O31 1.269 . S
C36 O37 1.249 . S
C36 O38 1.276 . S
O37 Zn29 1.943 . S
O37 C36 1.249 . S
O38 Zn28 2.064 1_545 S
O38 C36 1.276 . S
C39 O32 1.262 . S
C39 O40 1.232 . S
O40 C39 1.232 . S
C41 O33 1.260 . S
C41 O34 1.257 . S
Zn42 O45 2.031 . S
Zn42 O47 2.049 . S
Zn42 O52 2.067 . S
Zn43 O44 1.962 1_655 S
Zn43 O46 1.986 . S
Zn43 O48 1.996 1_655 S
Zn43 O51 1.943 . S
O44 Zn43 1.962 1_455 S
O44 C49 1.254 . S
O45 Zn42 2.031 . S
O45 C49 1.269 . S
O46 Zn43 1.986 . S
O46 C53 1.262 . S
O47 Zn42 2.049 . S
O47 C55 1.260 . S
O48 Zn43 1.996 1_455 S
O48 C55 1.257 . S
C49 O44 1.254 . S
C49 O45 1.269 . S
C50 O51 1.249 . S
C50 O52 1.270 1_655 S
O51 Zn43 1.943 . S
O51 C50 1.249 . S
O52 Zn42 2.067 . S
O52 C50 1.270 1_455 S
C53 O46 1.262 . S
C53 O54 1.232 . S
O54 C53 1.232 . S
C55 O47 1.260 . S
C55 O48 1.257 . S
Zn56 O59 2.031 . S
Zn56 O61 2.049 1_554 S
Zn56 O66 2.067 . S
Zn57 O58 1.962 . S
Zn57 O60 1.986 1_554 S
Zn57 O62 1.996 1_554 S
Zn57 O65 1.943 . S
O58 Zn57 1.962 . S
O58 C63 1.254 . S
O59 Zn56 2.031 . S
O59 C63 1.269 . S
O60 Zn57 1.986 1_556 S
O60 C67 1.262 . S
O61 Zn56 2.049 1_556 S
O61 C69 1.260 . S
O62 Zn57 1.996 1_556 S
O62 C69 1.257 . S
C63 O58 1.254 . S
C63 O59 1.269 . S
C64 O65 1.249 . S
C64 O66 1.270 . S
O65 Zn57 1.943 . S
O65 C64 1.249 . S
O66 Zn56 2.067 . S
O66 C64 1.270 . S
C67 O60 1.262 . S
C67 O68 1.232 1_556 S
O68 C67 1.232 1_554 S
C69 O61 1.260 . S
C69 O62 1.257 . S
Zn70 O73 2.031 . S
Zn70 O75 2.049 . S
Zn70 O80 2.067 . S
Zn71 O72 1.962 1_565 S
Zn71 O74 1.986 . S
Zn71 O76 1.996 1_565 S
Zn71 O79 1.943 . S
O72 Zn71 1.962 1_545 S
O72 C77 1.254 . S
O73 Zn70 2.031 . S
O73 C77 1.269 . S
O74 Zn71 1.986 . S
O74 C81 1.262 . S
O75 Zn70 2.049 . S
O75 C83 1.260 . S
O76 Zn71 1.996 1_545 S
O76 C83 1.257 . S
C77 O72 1.254 . S
C77 O73 1.269 . S
C78 O79 1.249 . S
C78 O80 1.270 1_565 S
O79 Zn71 1.943 . S
O79 C78 1.249 . S
O80 Zn70 2.067 . S
O80 C78 1.270 1_545 S
C81 O74 1.262 . S
C81 O82 1.232 . S
O82 C81 1.232 . S
C83 O75 1.260 . S
C83 O76 1.257 . S
Zn84 O87 2.031 . S
Zn84 O89 2.049 . S
Zn84 O94 2.067 . S
Zn85 O86 1.962 . S
Zn85 O88 1.986 . S
Zn85 O90 1.996 . S
Zn85 O93 1.943 . S
O86 Zn85 1.962 . S
O86 C91 1.254 . S
O87 Zn84 2.031 . S
O87 C91 1.269 . S
O88 Zn85 1.986 . S
O88 C95 1.262 . S
O89 Zn84 2.049 . S
O89 C97 1.260 . S
O90 Zn85 1.996 . S
O90 C97 1.257 . S
C91 O86 1.254 . S
C91 O87 1.269 . S
C92 O93 1.249 . S
C92 O94 1.270 . S
O93 Zn85 1.943 . S
O93 C92 1.249 . S
O94 Zn84 2.067 . S
O94 C92 1.270 . S
C95 O88 1.262 . S
C95 O96 1.232 . S
O96 C95 1.232 . S
C97 O89 1.260 . S
C97 O90 1.257 . S
Zn98 O101 2.031 . S
Zn98 O103 2.049 . S
Zn98 O108 2.067 . S
Zn99 O100 1.962 . S
Zn99 O102 1.986 . S
Zn99 O104 1.996 . S
Zn99 O107 1.943 . S
O100 Zn99 1.962 . S
O100 C105 1.254 . S
O101 Zn98 2.031 . S
O101 C105 1.269 . S
O102 Zn99 1.986 . S
O102 C109 1.262 . S
O103 Zn98 2.049 . S
O103 C111 1.260 . S
O104 Zn99 1.996 . S
O104 C111 1.257 . S
C105 O100 1.254 . S
C105 O101 1.269 . S
C106 O107 1.249 . S
C106 O108 1.270 . S
O107 Zn99 1.943 . S
O107 C106 1.249 . S
O108 Zn98 2.067 . S
O108 C106 1.270 . S
C109 O102 1.262 . S
C109 O110 1.232 . S
O110 C109 1.232 . S
C111 O103 1.260 . S
C111 O104 1.257 . S
Zn112 O115 2.031 . S
Zn112 O117 2.049 . S
Zn112 O122 2.067 . S
Zn113 O114 1.962 . S
Zn113 O116 1.986 . S
Zn113 O118 1.996 . S
Zn113 O121 1.943 . S
O114 Zn113 1.962 . S
O114 C119 1.254 . S
O115 Zn112 2.031 . S
O115 C119 1.269 . S
O116 Zn113 1.986 . S
O116 C123 1.262 . S
O117 Zn112 2.049 . S
O117 C125 1.260 . S
O118 Zn113 1.996 . S
O118 C125 1.257 . S
C119 O114 1.254 . S
C119 O115 1.269 . S
C120 O121 1.249 . S
C120 O122 1.270 . S
O121 Zn113 1.943 . S
O121 C120 1.249 . S
O122 Zn112 2.067 . S
O122 C120 1.270 . S
C123 O116 1.262 . S
C123 O124 1.232 . S
O124 C123 1.232 . S
C125 O117 1.260 . S
C125 O118 1.257 . S
Zn126 O129 2.031 . S
Zn126 O131 2.049 . S
Zn126 O136 2.067 . S
Zn127 O128 1.962 . S
Zn127 O130 1.986 . S
Zn127 O132 1.996 . S
Zn127 O135 1.943 . S
O128 Zn127 1.962 . S
O128 C133 1.254 . S
O129 Zn126 2.031 . S
O129 C133 1.269 . S
O130 Zn127 1.986 . S
O130 C137 1.262 . S
O131 Zn126 2.049 . S
O131 C139 1.260 . S
O132 Zn127 1.996 . S
O132 C139 1.257 . S
C133 O128 1.254 . S
C133 O129 1.269 . S
C134 O135 1.249 . S
C134 O136 1.270 . S
O135 Zn127 1.943 . S
O135 C134 1.249 . S
O136 Zn126 2.067 . S
O136 C134 1.270 . S
C137 O130 1.262 . S
C137 O138 1.232 . S
O138 C137 1.232 . S
C139 O131 1.260 . S
C139 O132 1.257 . S
Zn140 O143 2.031 . S
Zn140 O145 2.049 . S
Zn140 O150 2.067 . S
Zn141 O142 1.962 . S
Zn141 O144 1.986 . S
Zn141 O146 1.996 . S
Zn141 O149 1.943 . S
O142 Zn141 1.962 . S
O142 C147 1.254 . S
O143 Zn140 2.031 . S
O143 C147 1.269 . S
O144 Zn141 1.986 . S
O144 C151 1.262 . S
O145 Zn140 2.049 . S
O145 C153 1.260 . S
O146 Zn141 1.996 . S
O146 C153 1.257 . S
C147 O142 1.254 . S
C147 O143 1.269 . S
C148 O149 1.249 . S
C148 O150 1.270 . S
O149 Zn141 1.943 . S
O149 C148 1.249 . S
O150 Zn140 2.067 . S
O150 C148 1.270 . S
C151 O144 1.262 . S
C151 O152 1.232 . S
O152 C151 1.232 . S
C153 O145 1.260 . S
C153 O146 1.257 . S
Zn154 O157 2.031 . S
Zn154 O159 2.049 . S
Zn154 O164 2.067 . S
Zn155 O156 1.962 . S
Zn155 O158 1.986 . S
Zn155 O160 1.996 . S
Zn155 O163 1.943 . S
O156 Zn155 1.962 . S
O156 C161 1.254 . S
O157 Zn154 2.031 . S
O157 C161 1.269 . S
O158 Zn155 1.986 . S
O158 C165 1.262 . S
O159 Zn154 2.049 . S
O159 C167 1.260 . S
O160 Zn155 1.996 . S
O160 C167 1.257 . S
C161 O156 1.254 . S
C161 O157 1.269 . S
C162 O163 1.249 . S
C162 O164 1.270 . S
O163 Zn155 1.943 . S
O163 C162 1.249 . S
O164 Zn154 2.067 . S
O164 C162 1.270 . S
C165 O158 1.262 . S
C165 O166 1.232 . S
O166 C165 1.232 . S
C167 O159 1.260 . S
C167 O160 1.257 . S
Zn168 O171 2.031 . S
Zn168 O173 2.049 . S
Zn168 O178 2.067 . S
Zn169 O170 1.962 . S
Zn169 O172 1.986 . S
Zn169 O174 1.996 . S
Zn169 O177 1.943 . S
O170 Zn169 1.962 . S
O170 C175 1.254 . S
O171 Zn168 2.031 . S
O171 C175 1.269 . S
O172 Zn169 1.986 . S
O172 C179 1.262 . S
O173 Zn168 2.049 . S
O173 C181 1.260 . S
O174 Zn169 1.996 . S
O174 C181 1.257 . S
C175 O170 1.254 . S
C175 O171 1.269 . S
C176 O177 1.249 . S
C176 O178 1.270 . S
O177 Zn169 1.943 . S
O177 C176 1.249 . S
O178 Zn168 2.067 . S
O178 C176 1.270 . S
C179 O172 1.262 . S
C179 O180 1.232 . S
O180 C179 1.232 . S
C181 O173 1.260 . S
C181 O174 1.257 . S
Zn182 O185 2.031 . S
Zn182 O187 2.049 . S
Zn182 O192 2.067 . S
Zn183 O184 1.962 . S
Zn183 O186 1.986 . S
Zn183 O188 1.996 . S
Zn183 O191 1.943 . S
O184 Zn183 1.962 . S
O184 C189 1.254 . S
O185 Zn182 2.031 . S
O185 C189 1.269 . S
O186 Zn183 1.986 . S
O186 C193 1.262 . S
O187 Zn182 2.049 . S
O187 C195 1.260 . S
O188 Zn183 1.996 . S
O188 C195 1.257 . S
C189 O184 1.254 . S
C189 O185 1.269 . S
C190 O191 1.249 . S
C190 O192 1.270 . S
O191 Zn183 1.943 . S
O191 C190 1.249 . S
O192 Zn182 2.067 . S
O192 C190 1.270 . S
C193 O186 1.262 . S
C193 O194 1.232 . S
O194 C193 1.232 . S
C195 O187 1.260 . S
C195 O188 1.257 . S
Zn196 O199 2.031 . S
Zn196 O201 2.049 . S
Zn196 O206 2.067 . S
Zn197 O198 1.962 . S
Zn197 O200 1.986 . S
Zn197 O202 1.996 . S
Zn197 O205 1.943 . S
O198 Zn197 1.962 . S
O198 C203 1.254 . S
O199 Zn196 2.031 . S
O199 C203 1.269 . S
O200 Zn197 1.986 . S
O200 C207 1.262 . S
O201 Zn196 2.049 . S
O201 C209 1.260 . S
O202 Zn197 1.996 . S
O202 C209 1.257 . S
C203 O198 1.254 . S
C203 O199 1.269 . S
C204 O205 1.249 . S
C204 O206 1.270 . S
O205 Zn197 1.943 . S
O205 C204 1.249 . S
O206 Zn196 2.067 . S
O206 C204 1.270 . S
C207 O200 1.262 . S
C207 O208 1.232 . S
O208 C207 1.232 . S
C209 O201 1.260 . S
C209 O202 1.257 . S
Zn210 O213 2.031 . S
Zn210 O215 2.049 . S
Zn210 O220 2.067 . S
Zn211 O212 1.962 . S
Zn211 O214 1.986 . S
Zn211 O216 1.996 . S
Zn211 O219 1.943 . S
O212 Zn211 1.962 . S
O212 C217 1.254 . S
O213 Zn210 2.031 . S
O213 C217 1.269 . S
O214 Zn211 1.986 . S
O214 C221 1.262 . S
O215 Zn210 2.049 . S
O215 C223 1.260 . S
O216 Zn211 1.996 . S
O216 C223 1.257 . S
C217 O212 1.254 . S
C217 O213 1.269 . S
C218 O219 1.249 . S
C218 O220 1.270 . S
O219 Zn211 1.943 . S
O219 C218 1.249 . S
O220 Zn210 2.067 . S
O220 C218 1.270 . S
C221 O214 1.262 . S
C221 O222 1.232 . S
O222 C221 1.232 . S
C223 O215 1.260 . S
C223 O216 1.257 . S
Zn224 O227 2.031 . S
Zn224 O229 2.049 . S
Zn224 O234 2.067 . S
Zn225 O226 1.962 . S
Zn225 O228 1.986 . S
Zn225 O230 1.996 . S
Zn225 O233 1.943 . S
O226 Zn225 1.962 . S
O226 C231 1.254 . S
O227 Zn224 2.031 . S
O227 C231 1.269 . S
O228 Zn225 1.986 . S
O228 C235 1.262 . S
O229 Zn224 2.049 . S
O229 C237 1.260 . S
O230 Zn225 1.996 . S
O230 C237 1.257 . S
C231 O226 1.254 . S
C231 O227 1.269 . S
C232 O233 1.249 . S
C232 O234 1.270 . S
O233 Zn225 1.943 . S
O233 C232 1.249 . S
O234 Zn224 2.067 . S
O234 C232 1.270 . S
C235 O228 1.262 . S
C235 O236 1.232 . S
O236 C235 1.232 . S
C237 O229 1.260 . S
C237 O230 1.257 . S
Zn238 O241 2.031 . S
Zn238 O243 2.049 . S
Zn238 O248 2.067 . S
Zn239 O240 1.962 . S
Zn239 O242 1.986 . S
Zn239 O244 1.996 . S
Zn239 O247 1.943 . S
O240 Zn239 1.962 . S
O240 C245 1.254 . S
O241 Zn238 2.031 . S
O241 C245 1.269 . S
O242 Zn239 1.986 . S
O242 C249 1.262 . S
O243 Zn238 2.049 . S
O243 C251 1.260 . S
O244 Zn239 1.996 . S
O244 C251 1.257 . S
C245 O240 1.254 . S
C245 O241 1.269 . S
C246 O247 1.249 . S
C246 O248 1.270 . S
O247 Zn239 1.943 . S
O247 C246 1.249 . S
O248 Zn238 2.067 . S
O248 C246 1.270 . S
C249 O242 1.262 . S
C249 O250 1.232 . S
O250 C249 1.232 . S
C251 O243 1.260 . S
C251 O244 1.257 . S
H252 O278 0.856 . S
H253 O281 0.854 . S
H254 C289 0.930 . S
H255 C290 0.930 . S
H256 C292 0.930 . S
H257 C293 0.930 . S
H258 C295 0.931 . S
H259 C296 0.930 . S
H260 C298 0.930 . S
H261 C299 0.929 . S
H262 C301 0.930 . S
H263 C302 0.931 . S
H264 C304 0.930 . S
H265 C305 0.929 . S
H266 C307 0.931 . S
H267 C308 0.930 . S
H268 C310 0.930 . S
H269 C311 0.932 . S
H270 C313 0.930 . S
H271 C314 0.929 . S
H272 C316 0.931 . S
H273 C317 0.930 . S
H274 C319 0.929 . S
H275 C320 0.931 . S
H276 C322 0.930 . S
H277 C323 0.929 . S
O278 H252 0.856 . S
O278 C324 1.300 . S
O279 C324 1.209 . S
O280 C325 1.199 . S
O281 H253 0.854 . S
O281 C325 1.297 . S
C282 C283 1.404 . S
C282 C287 1.397 . S
C282 C288 1.492 . S
C283 C282 1.404 . S
C283 C284 1.396 . S
C283 C294 1.492 . S
C284 C283 1.396 . S
C284 C285 1.397 . S
C284 C300 1.509 . S
C285 C284 1.397 . S
C285 C286 1.412 . S
C285 C306 1.485 . S
C286 C285 1.412 . S
C286 C287 1.388 . S
C286 C312 1.490 . S
C287 C282 1.397 . S
C287 C286 1.388 . S
C287 C318 1.519 . S
C288 C282 1.492 . S
C288 C289 1.363 . S
C288 C293 1.390 . S
C289 H254 0.930 . S
C289 C288 1.363 . S
C289 C290 1.372 . S
C290 H255 0.930 . S
C290 C289 1.372 . S
C290 C291 1.383 . S
C291 C290 1.383 . S
C291 C292 1.395 . S
C292 H256 0.930 . S
C292 C291 1.395 . S
C292 C293 1.362 . S
C293 H257 0.930 . S
C293 C288 1.390 . S
C293 C292 1.362 . S
C294 C283 1.492 . S
C294 C295 1.377 . S
C294 C299 1.397 . S
C295 H258 0.931 . S
C295 C294 1.377 . S
C295 C296 1.376 . S
C296 H259 0.930 . S
C296 C295 1.376 . S
C296 C297 1.376 . S
C297 C296 1.376 . S
C297 C298 1.378 . S
C297 C324 1.486 . S
C298 H260 0.930 . S
C298 C297 1.378 . S
C298 C299 1.376 . S
C299 H261 0.929 . S
C299 C294 1.397 . S
C299 C298 1.376 . S
C300 C284 1.509 . S
C300 C301 1.391 . S
C300 C305 1.386 . S
C301 H262 0.930 . S
C301 C300 1.391 . S
C301 C302 1.375 . S
C302 H263 0.931 . S
C302 C301 1.375 . S
C302 C303 1.375 . S
C303 C302 1.375 . S
C303 C304 1.361 . S
C304 H264 0.930 . S
C304 C303 1.361 . S
C304 C305 1.399 . S
C305 H265 0.929 . S
C305 C300 1.386 . S
C305 C304 1.399 . S
C306 C285 1.485 . S
C306 C307 1.394 . S
C306 C311 1.360 . S
C307 H266 0.931 . S
C307 C306 1.394 . S
C307 C308 1.372 . S
C308 H267 0.930 . S
C308 C307 1.372 . S
C308 C309 1.397 . S
C309 C308 1.397 . S
C309 C310 1.390 . S
C309 C325 1.476 . S
C310 H268 0.930 . S
C310 C309 1.390 . S
C310 C311 1.366 . S
C311 H269 0.932 . S
C311 C306 1.360 . S
C311 C310 1.366 . S
C312 C286 1.490 . S
C312 C313 1.380 . S
C312 C317 1.386 . S
C313 H270 0.930 . S
C313 C312 1.380 . S
C313 C314 1.381 . S
C314 H271 0.929 . S
C314 C313 1.381 . S
C314 C315 1.371 . S
C315 C314 1.371 . S
C315 C316 1.380 . S
C316 H272 0.931 . S
C316 C315 1.380 . S
C316 C317 1.387 . S
C317 H273 0.930 . S
C317 C312 1.386 . S
C317 C316 1.387 . S
C318 C287 1.519 . S
C318 C319 1.377 . S
C318 C323 1.361 . S
C319 H274 0.929 . S
C319 C318 1.377 . S
C319 C320 1.386 . S
C320 H275 0.931 . S
C320 C319 1.386 . S
C320 C321 1.363 . S
C321 C320 1.363 . S
C321 C322 1.385 . S
C322 H276 0.930 . S
C322 C321 1.385 . S
C322 C323 1.396 . S
C323 H277 0.929 . S
C323 C318 1.361 . S
C323 C322 1.396 . S
C324 O278 1.300 . S
C324 O279 1.209 . S
C324 C297 1.486 . S
C325 O280 1.199 . S
C325 O281 1.297 . S
C325 C309 1.476 . S
H326 O352 0.856 . S
H327 O355 0.854 . S
H328 C363 0.930 . S
H329 C364 0.930 . S
H330 C366 0.930 . S
H331 C367 0.930 . S
H332 C369 0.931 . S
H333 C370 0.930 . S
H334 C372 0.930 . S
H335 C373 0.929 . S
H336 C375 0.930 . S
H337 C376 0.931 . S
H338 C378 0.930 . S
H339 C379 0.929 . S
H340 C381 0.931 . S
H341 C382 0.930 . S
H342 C384 0.930 . S
H343 C385 0.932 . S
H344 C387 0.930 . S
H345 C388 0.929 . S
H346 C390 0.931 . S
H347 C391 0.930 . S
H348 C393 0.929 . S
H349 C394 0.931 . S
H350 C396 0.930 . S
H351 C397 0.929 . S
O352 H326 0.856 . S
O352 C398 1.300 . S
O353 C398 1.209 . S
O354 C399 1.199 . S
O355 H327 0.854 . S
O355 C399 1.297 . S
C356 C357 1.404 . S
C356 C361 1.397 . S
C356 C362 1.492 . S
C357 C356 1.404 . S
C357 C358 1.396 . S
C357 C368 1.492 . S
C358 C357 1.396 . S
C358 C359 1.397 . S
C358 C374 1.509 . S
C359 C358 1.397 . S
C359 C360 1.412 . S
C359 C380 1.485 . S
C360 C359 1.412 . S
C360 C361 1.388 . S
C360 C386 1.490 . S
C361 C356 1.397 . S
C361 C360 1.388 . S
C361 C392 1.519 . S
C362 C356 1.492 . S
C362 C363 1.363 . S
C362 C367 1.390 . S
C363 H328 0.930 . S
C363 C362 1.363 . S
C363 C364 1.372 . S
C364 H329 0.930 . S
C364 C363 1.372 . S
C364 C365 1.383 . S
C365 C364 1.383 . S
C365 C366 1.395 . S
C366 H330 0.930 . S
C366 C365 1.395 . S
C366 C367 1.362 . S
C367 H331 0.930 . S
C367 C362 1.390 . S
C367 C366 1.362 . S
C368 C357 1.492 . S
C368 C369 1.377 . S
C368 C373 1.397 . S
C369 H332 0.931 . S
C369 C368 1.377 . S
C369 C370 1.376 . S
C370 H333 0.930 . S
C370 C369 1.376 . S
C370 C371 1.376 . S
C371 C370 1.376 . S
C371 C372 1.378 . S
C371 C398 1.486 . S
C372 H334 0.930 . S
C372 C371 1.378 . S
C372 C373 1.376 . S
C373 H335 0.929 . S
C373 C368 1.397 . S
C373 C372 1.376 . S
C374 C358 1.509 . S
C374 C375 1.391 . S
C374 C379 1.386 . S
C375 H336 0.930 . S
C375 C374 1.391 . S
C375 C376 1.375 . S
C376 H337 0.931 . S
C376 C375 1.375 . S
C376 C377 1.375 . S
C377 C376 1.375 . S
C377 C378 1.361 . S
C378 H338 0.930 . S
C378 C377 1.361 . S
C378 C379 1.399 . S
C379 H339 0.929 . S
C379 C374 1.386 . S
C379 C378 1.399 . S
C380 C359 1.485 . S
C380 C381 1.394 . S
C380 C385 1.360 . S
C381 H340 0.931 . S
C381 C380 1.394 . S
C381 C382 1.372 . S
C382 H341 0.930 . S
C382 C381 1.372 . S
C382 C383 1.397 . S
C383 C382 1.397 . S
C383 C384 1.390 . S
C383 C399 1.476 . S
C384 H342 0.930 . S
C384 C383 1.390 . S
C384 C385 1.366 . S
C385 H343 0.932 . S
C385 C380 1.360 . S
C385 C384 1.366 . S
C386 C360 1.490 . S
C386 C387 1.380 . S
C386 C391 1.386 . S
C387 H344 0.930 . S
C387 C386 1.380 . S
C387 C388 1.381 . S
C388 H345 0.929 . S
C388 C387 1.381 . S
C388 C389 1.371 . S
C389 C388 1.371 . S
C389 C390 1.380 . S
C390 H346 0.931 . S
C390 C389 1.380 . S
C390 C391 1.387 . S
C391 H347 0.930 . S
C391 C386 1.386 . S
C391 C390 1.387 . S
C392 C361 1.519 . S
C392 C393 1.377 . S
C392 C397 1.361 . S
C393 H348 0.929 . S
C393 C392 1.377 . S
C393 C394 1.386 . S
C394 H349 0.931 . S
C394 C393 1.386 . S
C394 C395 1.363 . S
C395 C394 1.363 . S
C395 C396 1.385 . S
C396 H350 0.930 . S
C396 C395 1.385 . S
C396 C397 1.396 . S
C397 H351 0.929 . S
C397 C392 1.361 . S
C397 C396 1.396 . S
C398 O352 1.300 . S
C398 O353 1.209 . S
C398 C371 1.486 . S
C399 O354 1.199 . S
C399 O355 1.297 . S
C399 C383 1.476 . S
H400 O426 0.856 . S
H401 O429 0.854 . S
H402 C437 0.930 . S
H403 C438 0.930 . S
H404 C440 0.930 . S
H405 C441 0.930 . S
H406 C443 0.931 . S
H407 C444 0.930 . S
H408 C446 0.930 . S
H409 C447 0.929 . S
H410 C449 0.930 . S
H411 C450 0.931 . S
H412 C452 0.930 . S
H413 C453 0.929 . S
H414 C455 0.931 . S
H415 C456 0.930 . S
H416 C458 0.930 . S
H417 C459 0.932 . S
H418 C461 0.930 . S
H419 C462 0.929 . S
H420 C464 0.931 . S
H421 C465 0.930 . S
H422 C467 0.929 . S
H423 C468 0.931 . S
H424 C470 0.930 . S
H425 C471 0.929 . S
O426 H400 0.856 . S
O426 C472 1.300 . S
O427 C472 1.209 . S
O428 C473 1.199 . S
O429 H401 0.854 . S
O429 C473 1.297 . S
C430 C431 1.404 . S
C430 C435 1.397 . S
C430 C436 1.492 . S
C431 C430 1.404 . S
C431 C432 1.396 . S
C431 C442 1.492 . S
C432 C431 1.396 . S
C432 C433 1.397 . S
C432 C448 1.509 . S
C433 C432 1.397 . S
C433 C434 1.412 . S
C433 C454 1.485 . S
C434 C433 1.412 . S
C434 C435 1.388 . S
C434 C460 1.490 . S
C435 C430 1.397 . S
C435 C434 1.388 . S
C435 C466 1.519 . S
C436 C430 1.492 . S
C436 C437 1.363 . S
C436 C441 1.390 . S
C437 H402 0.930 . S
C437 C436 1.363 . S
C437 C438 1.372 . S
C438 H403 0.930 . S
C438 C437 1.372 . S
C438 C439 1.383 . S
C439 C438 1.383 . S
C439 C440 1.395 . S
C440 H404 0.930 . S
C440 C439 1.395 . S
C440 C441 1.362 . S
C441 H405 0.930 . S
C441 C436 1.390 . S
C441 C440 1.362 . S
C442 C431 1.492 . S
C442 C443 1.377 . S
C442 C447 1.397 . S
C443 H406 0.931 . S
C443 C442 1.377 . S
C443 C444 1.376 . S
C444 H407 0.930 . S
C444 C443 1.376 . S
C444 C445 1.376 . S
C445 C444 1.376 . S
C445 C446 1.378 . S
C445 C472 1.486 . S
C446 H408 0.930 . S
C446 C445 1.378 . S
C446 C447 1.376 . S
C447 H409 0.929 . S
C447 C442 1.397 . S
C447 C446 1.376 . S
C448 C432 1.509 . S
C448 C449 1.391 . S
C448 C453 1.386 . S
C449 H410 0.930 . S
C449 C448 1.391 . S
C449 C450 1.375 . S
C450 H411 0.931 . S
C450 C449 1.375 . S
C450 C451 1.375 . S
C451 C450 1.375 . S
C451 C452 1.361 . S
C452 H412 0.930 . S
C452 C451 1.361 . S
C452 C453 1.399 . S
C453 H413 0.929 . S
C453 C448 1.386 . S
C453 C452 1.399 . S
C454 C433 1.485 . S
C454 C455 1.394 . S
C454 C459 1.360 . S
C455 H414 0.931 . S
C455 C454 1.394 . S
C455 C456 1.372 . S
C456 H415 0.930 . S
C456 C455 1.372 . S
C456 C457 1.397 . S
C457 C456 1.397 . S
C457 C458 1.390 . S
C457 C473 1.476 . S
C458 H416 0.930 . S
C458 C457 1.390 . S
C458 C459 1.366 . S
C459 H417 0.932 . S
C459 C454 1.360 . S
C459 C458 1.366 . S
C460 C434 1.490 . S
C460 C461 1.380 . S
C460 C465 1.386 . S
C461 H418 0.930 . S
C461 C460 1.380 . S
C461 C462 1.381 . S
C462 H419 0.929 . S
C462 C461 1.381 . S
C462 C463 1.371 . S
C463 C462 1.371 . S
C463 C464 1.380 . S
C464 H420 0.931 . S
C464 C463 1.380 . S
C464 C465 1.387 . S
C465 H421 0.930 . S
C465 C460 1.386 . S
C465 C464 1.387 . S
C466 C435 1.519 . S
C466 C467 1.377 . S
C466 C471 1.361 . S
C467 H422 0.929 . S
C467 C466 1.377 . S
C467 C468 1.386 . S
C468 H423 0.931 . S
C468 C467 1.386 . S
C468 C469 1.363 . S
C469 C468 1.363 . S
C469 C470 1.385 . S
C470 H424 0.930 . S
C470 C469 1.385 . S
C470 C471 1.396 . S
C471 H425 0.929 . S
C471 C466 1.361 . S
C471 C470 1.396 . S
C472 O426 1.300 . S
C472 O427 1.209 . S
C472 C445 1.486 . S
C473 O428 1.199 . S
C473 O429 1.297 . S
C473 C457 1.476 . S
H474 O500 0.856 . S
H475 O503 0.854 . S
H476 C511 0.930 . S
H477 C512 0.930 . S
H478 C514 0.930 . S
H479 C515 0.930 . S
H480 C517 0.931 . S
H481 C518 0.930 . S
H482 C520 0.930 . S
H483 C521 0.929 . S
H484 C523 0.930 . S
H485 C524 0.931 . S
H486 C526 0.930 . S
H487 C527 0.929 . S
H488 C529 0.931 . S
H489 C530 0.930 . S
H490 C532 0.930 . S
H491 C533 0.932 . S
H492 C535 0.930 . S
H493 C536 0.929 . S
H494 C538 0.931 . S
H495 C539 0.930 . S
H496 C541 0.929 . S
H497 C542 0.931 . S
H498 C544 0.930 . S
H499 C545 0.929 . S
O500 H474 0.856 . S
O500 C546 1.300 . S
O501 C546 1.209 . S
O502 C547 1.199 . S
O503 H475 0.854 . S
O503 C547 1.297 . S
C504 C505 1.404 . S
C504 C509 1.397 . S
C504 C510 1.492 . S
C505 C504 1.404 . S
C505 C506 1.396 . S
C505 C516 1.492 . S
C506 C505 1.396 . S
C506 C507 1.397 . S
C506 C522 1.509 . S
C507 C506 1.397 . S
C507 C508 1.412 . S
C507 C528 1.485 . S
C508 C507 1.412 . S
C508 C509 1.388 . S
C508 C534 1.490 . S
C509 C504 1.397 . S
C509 C508 1.388 . S
C509 C540 1.519 . S
C510 C504 1.492 . S
C510 C511 1.363 . S
C510 C515 1.390 . S
C511 H476 0.930 . S
C511 C510 1.363 . S
C511 C512 1.372 . S
C512 H477 0.930 . S
C512 C511 1.372 . S
C512 C513 1.383 . S
C513 C512 1.383 . S
C513 C514 1.395 . S
C514 H478 0.930 . S
C514 C513 1.395 . S
C514 C515 1.362 . S
C515 H479 0.930 . S
C515 C510 1.390 . S
C515 C514 1.362 . S
C516 C505 1.492 . S
C516 C517 1.377 . S
C516 C521 1.397 . S
C517 H480 0.931 . S
C517 C516 1.377 . S
C517 C518 1.376 . S
C518 H481 0.930 . S
C518 C517 1.376 . S
C518 C519 1.376 . S
C519 C518 1.376 . S
C519 C520 1.378 . S
C519 C546 1.486 . S
C520 H482 0.930 . S
C520 C519 1.378 . S
C520 C521 1.376 . S
C521 H483 0.929 . S
C521 C516 1.397 . S
C521 C520 1.376 . S
C522 C506 1.509 . S
C522 C523 1.391 . S
C522 C527 1.386 . S
C523 H484 0.930 . S
C523 C522 1.391 . S
C523 C524 1.375 . S
C524 H485 0.931 . S
C524 C523 1.375 . S
C524 C525 1.375 . S
C525 C524 1.375 . S
C525 C526 1.361 . S
C526 H486 0.930 . S
C526 C525 1.361 . S
C526 C527 1.399 . S
C527 H487 0.929 . S
C527 C522 1.386 . S
C527 C526 1.399 . S
C528 C507 1.485 . S
C528 C529 1.394 . S
C528 C533 1.360 . S
C529 H488 0.931 . S
C529 C528 1.394 . S
C529 C530 1.372 . S
C530 H489 0.930 . S
C530 C529 1.372 . S
C530 C531 1.397 . S
C531 C530 1.397 . S
C531 C532 1.390 . S
C531 C547 1.476 . S
C532 H490 0.930 . S
C532 C531 1.390 . S
C532 C533 1.366 . S
C533 H491 0.932 . S
C533 C528 1.360 . S
C533 C532 1.366 . S
C534 C508 1.490 . S
C534 C535 1.380 . S
C534 C539 1.386 . S
C535 H492 0.930 . S
C535 C534 1.380 . S
C535 C536 1.381 . S
C536 H493 0.929 . S
C536 C535 1.381 . S
C536 C537 1.371 . S
C537 C536 1.371 . S
C537 C538 1.380 . S
C538 H494 0.931 . S
C538 C537 1.380 . S
C538 C539 1.387 . S
C539 H495 0.930 . S
C539 C534 1.386 . S
C539 C538 1.387 . S
C540 C509 1.519 . S
C540 C541 1.377 . S
C540 C545 1.361 . S
C541 H496 0.929 . S
C541 C540 1.377 . S
C541 C542 1.386 . S
C542 H497 0.931 . S
C542 C541 1.386 . S
C542 C543 1.363 . S
C543 C542 1.363 . S
C543 C544 1.385 . S
C544 H498 0.930 . S
C544 C543 1.385 . S
C544 C545 1.396 . S
C545 H499 0.929 . S
C545 C540 1.361 . S
C545 C544 1.396 . S
C546 O500 1.300 . S
C546 O501 1.209 . S
C546 C519 1.486 . S
C547 O502 1.199 . S
C547 O503 1.297 . S
C547 C531 1.476 . S
H548 O574 0.856 1_554 S
H549 O577 0.854 . S
H550 C585 0.930 . S
H551 C586 0.930 . S
H552 C588 0.930 . S
H553 C589 0.930 . S
H554 C591 0.931 . S
H555 C592 0.930 . S
H556 C594 0.930 . S
H557 C595 0.929 . S
H558 C597 0.930 . S
H559 C598 0.931 . S
H560 C600 0.930 . S
H561 C601 0.929 . S
H562 C603 0.931 . S
H563 C604 0.930 . S
H564 C606 0.930 . S
H565 C607 0.932 . S
H566 C609 0.930 . S
H567 C610 0.929 . S
H568 C612 0.931 . S
H569 C613 0.930 . S
H570 C615 0.929 . S
H571 C616 0.931 . S
H572 C618 0.930 . S
H573 C619 0.929 . S
O574 H548 0.856 1_556 S
O574 C620 1.300 . S
O575 C620 1.209 . S
O576 C621 1.199 . S
O577 H549 0.854 . S
O577 C621 1.297 . S
C578 C579 1.404 . S
C578 C583 1.397 . S
C578 C584 1.492 . S
C579 C578 1.404 . S
C579 C580 1.396 . S
C579 C590 1.492 . S
C580 C579 1.396 . S
C580 C581 1.397 . S
C580 C596 1.509 . S
C581 C580 1.397 . S
C581 C582 1.412 . S
C581 C602 1.485 . S
C582 C581 1.412 . S
C582 C583 1.388 . S
C582 C608 1.490 . S
C583 C578 1.397 . S
C583 C582 1.388 . S
C583 C614 1.519 . S
C584 C578 1.492 . S
C584 C585 1.363 . S
C584 C589 1.390 . S
C585 H550 0.930 . S
C585 C584 1.363 . S
C585 C586 1.372 . S
C586 H551 0.930 . S
C586 C585 1.372 . S
C586 C587 1.383 . S
C587 C586 1.383 . S
C587 C588 1.395 . S
C588 H552 0.930 . S
C588 C587 1.395 . S
C588 C589 1.362 . S
C589 H553 0.930 . S
C589 C584 1.390 . S
C589 C588 1.362 . S
C590 C579 1.492 . S
C590 C591 1.377 . S
C590 C595 1.397 . S
C591 H554 0.931 . S
C591 C590 1.377 . S
C591 C592 1.376 . S
C592 H555 0.930 . S
C592 C591 1.376 . S
C592 C593 1.376 . S
C593 C592 1.376 . S
C593 C594 1.378 . S
C593 C620 1.486 . S
C594 H556 0.930 . S
C594 C593 1.378 . S
C594 C595 1.376 . S
C595 H557 0.929 . S
C595 C590 1.397 . S
C595 C594 1.376 . S
C596 C580 1.509 . S
C596 C597 1.391 . S
C596 C601 1.386 . S
C597 H558 0.930 . S
C597 C596 1.391 . S
C597 C598 1.375 . S
C598 H559 0.931 . S
C598 C597 1.375 . S
C598 C599 1.375 . S
C599 C598 1.375 . S
C599 C600 1.361 . S
C600 H560 0.930 . S
C600 C599 1.361 . S
C600 C601 1.399 . S
C601 H561 0.929 . S
C601 C596 1.386 . S
C601 C600 1.399 . S
C602 C581 1.485 . S
C602 C603 1.394 . S
C602 C607 1.360 . S
C603 H562 0.931 . S
C603 C602 1.394 . S
C603 C604 1.372 . S
C604 H563 0.930 . S
C604 C603 1.372 . S
C604 C605 1.397 . S
C605 C604 1.397 . S
C605 C606 1.390 . S
C605 C621 1.476 . S
C606 H564 0.930 . S
C606 C605 1.390 . S
C606 C607 1.366 . S
C607 H565 0.932 . S
C607 C602 1.360 . S
C607 C606 1.366 . S
C608 C582 1.490 . S
C608 C609 1.380 . S
C608 C613 1.386 . S
C609 H566 0.930 . S
C609 C608 1.380 . S
C609 C610 1.381 . S
C610 H567 0.929 . S
C610 C609 1.381 . S
C610 C611 1.371 . S
C611 C610 1.371 . S
C611 C612 1.380 . S
C612 H568 0.931 . S
C612 C611 1.380 . S
C612 C613 1.387 . S
C613 H569 0.930 . S
C613 C608 1.386 . S
C613 C612 1.387 . S
C614 C583 1.519 . S
C614 C615 1.377 . S
C614 C619 1.361 . S
C615 H570 0.929 . S
C615 C614 1.377 . S
C615 C616 1.386 . S
C616 H571 0.931 . S
C616 C615 1.386 . S
C616 C617 1.363 . S
C617 C616 1.363 . S
C617 C618 1.385 . S
C618 H572 0.930 . S
C618 C617 1.385 . S
C618 C619 1.396 . S
C619 H573 0.929 . S
C619 C614 1.361 . S
C619 C618 1.396 . S
C620 O574 1.300 . S
C620 O575 1.209 . S
C620 C593 1.486 . S
C621 O576 1.199 . S
C621 O577 1.297 . S
C621 C605 1.476 . S
H622 O648 0.856 . S
H623 O651 0.854 . S
H624 C659 0.930 . S
H625 C660 0.930 . S
H626 C662 0.930 . S
H627 C663 0.930 . S
H628 C665 0.931 . S
H629 C666 0.930 . S
H630 C668 0.930 . S
H631 C669 0.929 . S
H632 C671 0.930 . S
H633 C672 0.931 . S
H634 C674 0.930 . S
H635 C675 0.929 . S
H636 C677 0.931 . S
H637 C678 0.930 . S
H638 C680 0.930 . S
H639 C681 0.932 . S
H640 C683 0.930 . S
H641 C684 0.929 . S
H642 C686 0.931 . S
H643 C687 0.930 . S
H644 C689 0.929 . S
H645 C690 0.931 . S
H646 C692 0.930 . S
H647 C693 0.929 . S
O648 H622 0.856 . S
O648 C694 1.300 1_554 S
O649 C694 1.209 . S
O650 C695 1.199 . S
O651 H623 0.854 . S
O651 C695 1.297 . S
C652 C653 1.404 . S
C652 C657 1.397 . S
C652 C658 1.492 . S
C653 C652 1.404 . S
C653 C654 1.396 . S
C653 C664 1.492 . S
C654 C653 1.396 . S
C654 C655 1.397 . S
C654 C670 1.509 . S
C655 C654 1.397 . S
C655 C656 1.412 . S
C655 C676 1.485 . S
C656 C655 1.412 . S
C656 C657 1.388 . S
C656 C682 1.490 . S
C657 C652 1.397 . S
C657 C656 1.388 . S
C657 C688 1.519 . S
C658 C652 1.492 . S
C658 C659 1.363 . S
C658 C663 1.390 . S
C659 H624 0.930 . S
C659 C658 1.363 . S
C659 C660 1.372 . S
C660 H625 0.930 . S
C660 C659 1.372 . S
C660 C661 1.383 . S
C661 C660 1.383 . S
C661 C662 1.395 . S
C662 H626 0.930 . S
C662 C661 1.395 . S
C662 C663 1.362 . S
C663 H627 0.930 . S
C663 C658 1.390 . S
C663 C662 1.362 . S
C664 C653 1.492 . S
C664 C665 1.377 . S
C664 C669 1.397 . S
C665 H628 0.931 . S
C665 C664 1.377 . S
C665 C666 1.376 . S
C666 H629 0.930 . S
C666 C665 1.376 . S
C666 C667 1.376 . S
C667 C666 1.376 . S
C667 C668 1.378 . S
C667 C694 1.486 . S
C668 H630 0.930 . S
C668 C667 1.378 . S
C668 C669 1.376 . S
C669 H631 0.929 . S
C669 C664 1.397 . S
C669 C668 1.376 . S
C670 C654 1.509 . S
C670 C671 1.391 . S
C670 C675 1.386 . S
C671 H632 0.930 . S
C671 C670 1.391 . S
C671 C672 1.375 . S
C672 H633 0.931 . S
C672 C671 1.375 . S
C672 C673 1.375 . S
C673 C672 1.375 . S
C673 C674 1.361 . S
C674 H634 0.930 . S
C674 C673 1.361 . S
C674 C675 1.399 . S
C675 H635 0.929 . S
C675 C670 1.386 . S
C675 C674 1.399 . S
C676 C655 1.485 . S
C676 C677 1.394 . S
C676 C681 1.360 . S
C677 H636 0.931 . S
C677 C676 1.394 . S
C677 C678 1.372 . S
C678 H637 0.930 . S
C678 C677 1.372 . S
C678 C679 1.397 . S
C679 C678 1.397 . S
C679 C680 1.390 . S
C679 C695 1.476 . S
C680 H638 0.930 . S
C680 C679 1.390 . S
C680 C681 1.366 . S
C681 H639 0.932 . S
C681 C676 1.360 . S
C681 C680 1.366 . S
C682 C656 1.490 . S
C682 C683 1.380 . S
C682 C687 1.386 . S
C683 H640 0.930 . S
C683 C682 1.380 . S
C683 C684 1.381 . S
C684 H641 0.929 . S
C684 C683 1.381 . S
C684 C685 1.371 . S
C685 C684 1.371 . S
C685 C686 1.380 . S
C686 H642 0.931 . S
C686 C685 1.380 . S
C686 C687 1.387 . S
C687 H643 0.930 . S
C687 C682 1.386 . S
C687 C686 1.387 . S
C688 C657 1.519 . S
C688 C689 1.377 . S
C688 C693 1.361 . S
C689 H644 0.929 . S
C689 C688 1.377 . S
C689 C690 1.386 . S
C690 H645 0.931 . S
C690 C689 1.386 . S
C690 C691 1.363 . S
C691 C690 1.363 . S
C691 C692 1.385 . S
C692 H646 0.930 . S
C692 C691 1.385 . S
C692 C693 1.396 . S
C693 H647 0.929 . S
C693 C688 1.361 . S
C693 C692 1.396 . S
C694 O648 1.300 1_556 S
C694 O649 1.209 . S
C694 C667 1.486 . S
C695 O650 1.199 . S
C695 O651 1.297 . S
C695 C679 1.476 . S
H696 O722 0.856 . S
H697 O725 0.854 . S
H698 C733 0.930 . S
H699 C734 0.930 . S
H700 C736 0.930 . S
H701 C737 0.930 . S
H702 C739 0.931 . S
H703 C740 0.930 . S
H704 C742 0.930 . S
H705 C743 0.929 . S
H706 C745 0.930 . S
H707 C746 0.931 . S
H708 C748 0.930 . S
H709 C749 0.929 . S
H710 C751 0.931 . S
H711 C752 0.930 . S
H712 C754 0.930 . S
H713 C755 0.932 . S
H714 C757 0.930 . S
H715 C758 0.929 . S
H716 C760 0.931 . S
H717 C761 0.930 . S
H718 C763 0.929 . S
H719 C764 0.931 . S
H720 C766 0.930 . S
H721 C767 0.929 . S
O722 H696 0.856 . S
O722 C768 1.300 . S
O723 C768 1.209 . S
O724 C769 1.199 . S
O725 H697 0.854 . S
O725 C769 1.297 . S
C726 C727 1.404 . S
C726 C731 1.397 . S
C726 C732 1.492 . S
C727 C726 1.404 . S
C727 C728 1.396 . S
C727 C738 1.492 . S
C728 C727 1.396 . S
C728 C729 1.397 . S
C728 C744 1.509 . S
C729 C728 1.397 . S
C729 C730 1.412 . S
C729 C750 1.485 . S
C730 C729 1.412 . S
C730 C731 1.388 . S
C730 C756 1.490 . S
C731 C726 1.397 . S
C731 C730 1.388 . S
C731 C762 1.519 . S
C732 C726 1.492 . S
C732 C733 1.363 . S
C732 C737 1.390 . S
C733 H698 0.930 . S
C733 C732 1.363 . S
C733 C734 1.372 . S
C734 H699 0.930 . S
C734 C733 1.372 . S
C734 C735 1.383 . S
C735 C734 1.383 . S
C735 C736 1.395 . S
C736 H700 0.930 . S
C736 C735 1.395 . S
C736 C737 1.362 . S
C737 H701 0.930 . S
C737 C732 1.390 . S
C737 C736 1.362 . S
C738 C727 1.492 . S
C738 C739 1.377 . S
C738 C743 1.397 . S
C739 H702 0.931 . S
C739 C738 1.377 . S
C739 C740 1.376 . S
C740 H703 0.930 . S
C740 C739 1.376 . S
C740 C741 1.376 . S
C741 C740 1.376 . S
C741 C742 1.378 . S
C741 C768 1.486 . S
C742 H704 0.930 . S
C742 C741 1.378 . S
C742 C743 1.376 . S
C743 H705 0.929 . S
C743 C738 1.397 . S
C743 C742 1.376 . S
C744 C728 1.509 . S
C744 C745 1.391 . S
C744 C749 1.386 . S
C745 H706 0.930 . S
C745 C744 1.391 . S
C745 C746 1.375 . S
C746 H707 0.931 . S
C746 C745 1.375 . S
C746 C747 1.375 . S
C747 C746 1.375 . S
C747 C748 1.361 . S
C748 H708 0.930 . S
C748 C747 1.361 . S
C748 C749 1.399 . S
C749 H709 0.929 . S
C749 C744 1.386 . S
C749 C748 1.399 . S
C750 C729 1.485 . S
C750 C751 1.394 . S
C750 C755 1.360 . S
C751 H710 0.931 . S
C751 C750 1.394 . S
C751 C752 1.372 . S
C752 H711 0.930 . S
C752 C751 1.372 . S
C752 C753 1.397 . S
C753 C752 1.397 . S
C753 C754 1.390 . S
C753 C769 1.476 . S
C754 H712 0.930 . S
C754 C753 1.390 . S
C754 C755 1.366 . S
C755 H713 0.932 . S
C755 C750 1.360 . S
C755 C754 1.366 . S
C756 C730 1.490 . S
C756 C757 1.380 . S
C756 C761 1.386 . S
C757 H714 0.930 . S
C757 C756 1.380 . S
C757 C758 1.381 . S
C758 H715 0.929 . S
C758 C757 1.381 . S
C758 C759 1.371 . S
C759 C758 1.371 . S
C759 C760 1.380 . S
C760 H716 0.931 . S
C760 C759 1.380 . S
C760 C761 1.387 . S
C761 H717 0.930 . S
C761 C756 1.386 . S
C761 C760 1.387 . S
C762 C731 1.519 . S
C762 C763 1.377 . S
C762 C767 1.361 . S
C763 H718 0.929 . S
C763 C762 1.377 . S
C763 C764 1.386 . S
C764 H719 0.931 . S
C764 C763 1.386 . S
C764 C765 1.363 . S
C765 C764 1.363 . S
C765 C766 1.385 . S
C766 H720 0.930 . S
C766 C765 1.385 . S
C766 C767 1.396 . S
C767 H721 0.929 . S
C767 C762 1.361 . S
C767 C766 1.396 . S
C768 O722 1.300 . S
C768 O723 1.209 . S
C768 C741 1.486 . S
C769 O724 1.199 . S
C769 O725 1.297 . S
C769 C753 1.476 . S
H770 O796 0.856 . S
H771 O799 0.854 . S
H772 C807 0.930 . S
H773 C808 0.930 . S
H774 C810 0.930 . S
H775 C811 0.930 . S
H776 C813 0.931 . S
H777 C814 0.930 . S
H778 C816 0.930 . S
H779 C817 0.929 . S
H780 C819 0.930 . S
H781 C820 0.931 . S
H782 C822 0.930 . S
H783 C823 0.929 . S
H784 C825 0.931 . S
H785 C826 0.930 . S
H786 C828 0.930 . S
H787 C829 0.932 . S
H788 C831 0.930 . S
H789 C832 0.929 . S
H790 C834 0.931 . S
H791 C835 0.930 . S
H792 C837 0.929 . S
H793 C838 0.931 . S
H794 C840 0.930 . S
H795 C841 0.929 . S
O796 H770 0.856 . S
O796 C842 1.300 . S
O797 C842 1.209 . S
O798 C843 1.199 . S
O799 H771 0.854 . S
O799 C843 1.297 . S
C800 C801 1.404 . S
C800 C805 1.397 . S
C800 C806 1.492 . S
C801 C800 1.404 . S
C801 C802 1.396 . S
C801 C812 1.492 . S
C802 C801 1.396 . S
C802 C803 1.397 . S
C802 C818 1.509 . S
C803 C802 1.397 . S
C803 C804 1.412 . S
C803 C824 1.485 . S
C804 C803 1.412 . S
C804 C805 1.388 . S
C804 C830 1.490 . S
C805 C800 1.397 . S
C805 C804 1.388 . S
C805 C836 1.519 . S
C806 C800 1.492 . S
C806 C807 1.363 . S
C806 C811 1.390 . S
C807 H772 0.930 . S
C807 C806 1.363 . S
C807 C808 1.372 . S
C808 H773 0.930 . S
C808 C807 1.372 . S
C808 C809 1.383 . S
C809 C808 1.383 . S
C809 C810 1.395 . S
C810 H774 0.930 . S
C810 C809 1.395 . S
C810 C811 1.362 . S
C811 H775 0.930 . S
C811 C806 1.390 . S
C811 C810 1.362 . S
C812 C801 1.492 . S
C812 C813 1.377 . S
C812 C817 1.397 . S
C813 H776 0.931 . S
C813 C812 1.377 . S
C813 C814 1.376 . S
C814 H777 0.930 . S
C814 C813 1.376 . S
C814 C815 1.376 . S
C815 C814 1.376 . S
C815 C816 1.378 . S
C815 C842 1.486 . S
C816 H778 0.930 . S
C816 C815 1.378 . S
C816 C817 1.376 . S
C817 H779 0.929 . S
C817 C812 1.397 . S
C817 C816 1.376 . S
C818 C802 1.509 . S
C818 C819 1.391 . S
C818 C823 1.386 . S
C819 H780 0.930 . S
C819 C818 1.391 . S
C819 C820 1.375 . S
C820 H781 0.931 . S
C820 C819 1.375 . S
C820 C821 1.375 . S
C821 C820 1.375 . S
C821 C822 1.361 . S
C822 H782 0.930 . S
C822 C821 1.361 . S
C822 C823 1.399 . S
C823 H783 0.929 . S
C823 C818 1.386 . S
C823 C822 1.399 . S
C824 C803 1.485 . S
C824 C825 1.394 . S
C824 C829 1.360 . S
C825 H784 0.931 . S
C825 C824 1.394 . S
C825 C826 1.372 . S
C826 H785 0.930 . S
C826 C825 1.372 . S
C826 C827 1.397 . S
C827 C826 1.397 . S
C827 C828 1.390 . S
C827 C843 1.476 . S
C828 H786 0.930 . S
C828 C827 1.390 . S
C828 C829 1.366 . S
C829 H787 0.932 . S
C829 C824 1.360 . S
C829 C828 1.366 . S
C830 C804 1.490 . S
C830 C831 1.380 . S
C830 C835 1.386 . S
C831 H788 0.930 . S
C831 C830 1.380 . S
C831 C832 1.381 . S
C832 H789 0.929 . S
C832 C831 1.381 . S
C832 C833 1.371 . S
C833 C832 1.371 . S
C833 C834 1.380 . S
C834 H790 0.931 . S
C834 C833 1.380 . S
C834 C835 1.387 . S
C835 H791 0.930 . S
C835 C830 1.386 . S
C835 C834 1.387 . S
C836 C805 1.519 . S
C836 C837 1.377 . S
C836 C841 1.361 . S
C837 H792 0.929 . S
C837 C836 1.377 . S
C837 C838 1.386 . S
C838 H793 0.931 . S
C838 C837 1.386 . S
C838 C839 1.363 . S
C839 C838 1.363 . S
C839 C840 1.385 . S
C840 H794 0.930 . S
C840 C839 1.385 . S
C840 C841 1.396 . S
C841 H795 0.929 . S
C841 C836 1.361 . S
C841 C840 1.396 . S
C842 O796 1.300 . S
C842 O797 1.209 . S
C842 C815 1.486 . S
C843 O798 1.199 . S
C843 O799 1.297 . S
C843 C827 1.476 . S
H844 O870 0.856 . S
H845 O873 0.854 . S
H846 C881 0.930 . S
H847 C882 0.930 . S
H848 C884 0.930 . S
H849 C885 0.930 . S
H850 C887 0.931 . S
H851 C888 0.930 . S
H852 C890 0.930 . S
H853 C891 0.929 . S
H854 C893 0.930 . S
H855 C894 0.931 . S
H856 C896 0.930 . S
H857 C897 0.929 . S
H858 C899 0.931 . S
H859 C900 0.930 . S
H860 C902 0.930 . S
H861 C903 0.932 . S
H862 C905 0.930 . S
H863 C906 0.929 . S
H864 C908 0.931 . S
H865 C909 0.930 . S
H866 C911 0.929 . S
H867 C912 0.931 . S
H868 C914 0.930 . S
H869 C915 0.929 . S
O870 H844 0.856 . S
O870 C916 1.300 . S
O871 C916 1.209 . S
O872 C917 1.199 . S
O873 H845 0.854 . S
O873 C917 1.297 . S
C874 C875 1.404 . S
C874 C879 1.397 . S
C874 C880 1.492 . S
C875 C874 1.404 . S
C875 C876 1.396 . S
C875 C886 1.492 . S
C876 C875 1.396 . S
C876 C877 1.397 . S
C876 C892 1.509 . S
C877 C876 1.397 . S
C877 C878 1.412 . S
C877 C898 1.485 . S
C878 C877 1.412 . S
C878 C879 1.388 . S
C878 C904 1.490 . S
C879 C874 1.397 . S
C879 C878 1.388 . S
C879 C910 1.519 . S
C880 C874 1.492 . S
C880 C881 1.363 . S
C880 C885 1.390 . S
C881 H846 0.930 . S
C881 C880 1.363 . S
C881 C882 1.372 . S
C882 H847 0.930 . S
C882 C881 1.372 . S
C882 C883 1.383 . S
C883 C882 1.383 . S
C883 C884 1.395 . S
C884 H848 0.930 . S
C884 C883 1.395 . S
C884 C885 1.362 . S
C885 H849 0.930 . S
C885 C880 1.390 . S
C885 C884 1.362 . S
C886 C875 1.492 . S
C886 C887 1.377 . S
C886 C891 1.397 . S
C887 H850 0.931 . S
C887 C886 1.377 . S
C887 C888 1.376 . S
C888 H851 0.930 . S
C888 C887 1.376 . S
C888 C889 1.376 . S
C889 C888 1.376 . S
C889 C890 1.378 . S
C889 C916 1.486 . S
C890 H852 0.930 . S
C890 C889 1.378 . S
C890 C891 1.376 . S
C891 H853 0.929 . S
C891 C886 1.397 . S
C891 C890 1.376 . S
C892 C876 1.509 . S
C892 C893 1.391 . S
C892 C897 1.386 . S
C893 H854 0.930 . S
C893 C892 1.391 . S
C893 C894 1.375 . S
C894 H855 0.931 . S
C894 C893 1.375 . S
C894 C895 1.375 . S
C895 C894 1.375 . S
C895 C896 1.361 . S
C896 H856 0.930 . S
C896 C895 1.361 . S
C896 C897 1.399 . S
C897 H857 0.929 . S
C897 C892 1.386 . S
C897 C896 1.399 . S
C898 C877 1.485 . S
C898 C899 1.394 . S
C898 C903 1.360 . S
C899 H858 0.931 . S
C899 C898 1.394 . S
C899 C900 1.372 . S
C900 H859 0.930 . S
C900 C899 1.372 . S
C900 C901 1.397 . S
C901 C900 1.397 . S
C901 C902 1.390 . S
C901 C917 1.476 . S
C902 H860 0.930 . S
C902 C901 1.390 . S
C902 C903 1.366 . S
C903 H861 0.932 . S
C903 C898 1.360 . S
C903 C902 1.366 . S
C904 C878 1.490 . S
C904 C905 1.380 . S
C904 C909 1.386 . S
C905 H862 0.930 . S
C905 C904 1.380 . S
C905 C906 1.381 . S
C906 H863 0.929 . S
C906 C905 1.381 . S
C906 C907 1.371 . S
C907 C906 1.371 . S
C907 C908 1.380 . S
C908 H864 0.931 . S
C908 C907 1.380 . S
C908 C909 1.387 . S
C909 H865 0.930 . S
C909 C904 1.386 . S
C909 C908 1.387 . S
C910 C879 1.519 . S
C910 C911 1.377 . S
C910 C915 1.361 . S
C911 H866 0.929 . S
C911 C910 1.377 . S
C911 C912 1.386 . S
C912 H867 0.931 . S
C912 C911 1.386 . S
C912 C913 1.363 . S
C913 C912 1.363 . S
C913 C914 1.385 . S
C914 H868 0.930 . S
C914 C913 1.385 . S
C914 C915 1.396 . S
C915 H869 0.929 . S
C915 C910 1.361 . S
C915 C914 1.396 . S
C916 O870 1.300 . S
C916 O871 1.209 . S
C916 C889 1.486 . S
C917 O872 1.199 . S
C917 O873 1.297 . S
C917 C901 1.476 . S
H918 O944 0.856 . S
H919 O947 0.854 . S
H920 C955 0.930 . S
H921 C956 0.930 . S
H922 C958 0.930 . S
H923 C959 0.930 . S
H924 C961 0.931 . S
H925 C962 0.892 1_655 S
H926 C964 0.930 . S
H927 C965 0.929 . S
H928 C967 0.930 . S
H929 C968 0.907 1_655 S
H930 C970 0.930 . S
H931 C971 0.929 . S
H932 C973 0.931 . S
H933 C974 0.930 . S
H934 C976 0.930 . S
H935 C977 0.932 . S
H936 C979 0.930 . S
H937 C980 0.929 . S
H938 C982 0.931 . S
H939 C983 0.930 . S
H940 C985 0.929 . S
H941 C986 0.931 . S
H942 C988 0.930 . S
H943 C989 0.929 . S
O944 H918 0.856 . S
O944 C990 1.300 . S
O945 C990 1.209 . S
O946 C991 1.199 1_655 S
O947 H919 0.854 . S
O947 C991 1.297 . S
C948 C949 1.404 . S
C948 C953 1.393 . S
C948 C954 1.492 . S
C949 C948 1.404 . S
C949 C950 1.396 . S
C949 C960 1.492 . S
C950 C949 1.396 . S
C950 C951 1.397 . S
C950 C966 1.509 . S
C951 C950 1.397 . S
C951 C952 1.430 . S
C951 C972 1.485 . S
C952 C951 1.430 . S
C952 C953 1.399 . S
C952 C978 1.491 1_455 S
C953 C948 1.393 . S
C953 C952 1.399 . S
C953 C984 1.487 1_455 S
C954 C948 1.492 . S
C954 C955 1.363 1_455 S
C954 C959 1.390 . S
C955 H920 0.930 . S
C955 C954 1.363 1_655 S
C955 C956 1.372 . S
C956 H921 0.930 . S
C956 C955 1.372 . S
C956 C957 1.383 . S
C957 C956 1.383 . S
C957 C958 1.395 1_655 S
C958 H922 0.930 . S
C958 C957 1.395 1_455 S
C958 C959 1.362 . S
C959 H923 0.930 . S
C959 C954 1.390 . S
C959 C958 1.362 . S
C960 C949 1.492 . S
C960 C961 1.377 1_455 S
C960 C965 1.397 . S
C961 H924 0.931 . S
C961 C960 1.377 1_655 S
C961 C962 1.386 1_655 S
C962 H925 0.892 1_455 S
C962 C961 1.386 1_455 S
C962 C963 1.413 . S
C963 C962 1.413 . S
C963 C964 1.378 . S
C963 C990 1.486 . S
C964 H926 0.930 . S
C964 C963 1.378 . S
C964 C965 1.376 . S
C965 H927 0.929 . S
C965 C960 1.397 . S
C965 C964 1.376 . S
C966 C950 1.509 . S
C966 C967 1.391 1_455 S
C966 C971 1.386 . S
C967 H928 0.930 . S
C967 C966 1.391 1_655 S
C967 C968 1.338 1_655 S
C968 H929 0.907 1_455 S
C968 C967 1.338 1_455 S
C968 C969 1.440 . S
C969 C968 1.440 . S
C969 C970 1.361 . S
C970 H930 0.930 . S
C970 C969 1.361 . S
C970 C971 1.399 . S
C971 H931 0.929 . S
C971 C966 1.386 . S
C971 C970 1.399 . S
C972 C951 1.485 . S
C972 C973 1.394 1_455 S
C972 C977 1.360 . S
C973 H932 0.931 . S
C973 C972 1.394 1_655 S
C973 C974 1.372 . S
C974 H933 0.930 . S
C974 C973 1.372 . S
C974 C975 1.397 1_655 S
C975 C974 1.397 1_455 S
C975 C976 1.390 . S
C975 C991 1.476 . S
C976 H934 0.930 . S
C976 C975 1.390 . S
C976 C977 1.366 . S
C977 H935 0.932 . S
C977 C972 1.360 . S
C977 C976 1.366 . S
C978 C952 1.491 1_655 S
C978 C979 1.380 . S
C978 C983 1.386 1_655 S
C979 H936 0.930 . S
C979 C978 1.380 . S
C979 C980 1.381 . S
C980 H937 0.929 . S
C980 C979 1.381 . S
C980 C981 1.371 . S
C981 C980 1.371 . S
C981 C982 1.380 1_655 S
C982 H938 0.931 . S
C982 C981 1.380 1_455 S
C982 C983 1.387 . S
C983 H939 0.930 . S
C983 C978 1.386 1_455 S
C983 C982 1.387 . S
C984 C953 1.487 1_655 S
C984 C985 1.409 . S
C984 C989 1.340 1_655 S
C985 H940 0.929 . S
C985 C984 1.409 . S
C985 C986 1.386 . S
C986 H941 0.931 . S
C986 C985 1.386 . S
C986 C987 1.386 . S
C987 C986 1.386 . S
C987 C988 1.351 1_655 S
C988 H942 0.930 . S
C988 C987 1.351 1_455 S
C988 C989 1.396 . S
C989 H943 0.929 . S
C989 C984 1.340 1_455 S
C989 C988 1.396 . S
C990 O944 1.300 . S
C990 O945 1.209 . S
C990 C963 1.486 . S
C991 O946 1.199 1_455 S
C991 O947 1.297 . S
C991 C975 1.476 . S
H992 O1018 0.856 . S
H993 O1021 0.854 . S
H994 C1029 0.930 . S
H995 C1030 0.930 . S
H996 C1032 0.930 . S
H997 C1033 0.930 . S
H998 C1035 0.931 . S
H999 C1036 0.930 . S
H1000 C1038 0.930 . S
H1001 C1039 0.929 . S
H1002 C1041 0.930 . S
H1003 C1042 0.931 . S
H1004 C1044 0.930 . S
H1005 C1045 0.929 . S
H1006 C1047 0.931 . S
H1007 C1048 0.930 . S
H1008 C1050 0.930 . S
H1009 C1051 0.932 . S
H1010 C1053 0.930 . S
H1011 C1054 0.929 . S
H1012 C1056 0.931 . S
H1013 C1057 0.930 . S
H1014 C1059 0.929 . S
H1015 C1060 0.931 . S
H1016 C1062 0.930 . S
H1017 C1063 0.929 . S
O1018 H992 0.856 . S
O1018 C1064 1.300 . S
O1019 C1064 1.209 . S
O1020 C1065 1.199 . S
O1021 H993 0.854 . S
O1021 C1065 1.297 . S
C1022 C1023 1.404 . S
C1022 C1027 1.397 . S
C1022 C1028 1.492 . S
C1023 C1022 1.404 . S
C1023 C1024 1.396 . S
C1023 C1034 1.492 . S
C1024 C1023 1.396 . S
C1024 C1025 1.397 . S
C1024 C1040 1.509 . S
C1025 C1024 1.397 . S
C1025 C1026 1.412 . S
C1025 C1046 1.485 . S
C1026 C1025 1.412 . S
C1026 C1027 1.388 . S
C1026 C1052 1.490 . S
C1027 C1022 1.397 . S
C1027 C1026 1.388 . S
C1027 C1058 1.519 . S
C1028 C1022 1.492 . S
C1028 C1029 1.363 . S
C1028 C1033 1.390 . S
C1029 H994 0.930 . S
C1029 C1028 1.363 . S
C1029 C1030 1.372 . S
C1030 H995 0.930 . S
C1030 C1029 1.372 . S
C1030 C1031 1.383 . S
C1031 C1030 1.383 . S
C1031 C1032 1.395 . S
C1032 H996 0.930 . S
C1032 C1031 1.395 . S
C1032 C1033 1.362 . S
C1033 H997 0.930 . S
C1033 C1028 1.390 . S
C1033 C1032 1.362 . S
C1034 C1023 1.492 . S
C1034 C1035 1.377 . S
C1034 C1039 1.397 . S
C1035 H998 0.931 . S
C1035 C1034 1.377 . S
C1035 C1036 1.376 . S
C1036 H999 0.930 . S
C1036 C1035 1.376 . S
C1036 C1037 1.376 . S
C1037 C1036 1.376 . S
C1037 C1038 1.378 . S
C1037 C1064 1.486 . S
C1038 H1000 0.930 . S
C1038 C1037 1.378 . S
C1038 C1039 1.376 . S
C1039 H1001 0.929 . S
C1039 C1034 1.397 . S
C1039 C1038 1.376 . S
C1040 C1024 1.509 . S
C1040 C1041 1.391 . S
C1040 C1045 1.386 . S
C1041 H1002 0.930 . S
C1041 C1040 1.391 . S
C1041 C1042 1.375 . S
C1042 H1003 0.931 . S
C1042 C1041 1.375 . S
C1042 C1043 1.375 . S
C1043 C1042 1.375 . S
C1043 C1044 1.361 . S
C1044 H1004 0.930 . S
C1044 C1043 1.361 . S
C1044 C1045 1.399 . S
C1045 H1005 0.929 . S
C1045 C1040 1.386 . S
C1045 C1044 1.399 . S
C1046 C1025 1.485 . S
C1046 C1047 1.394 . S
C1046 C1051 1.360 . S
C1047 H1006 0.931 . S
C1047 C1046 1.394 . S
C1047 C1048 1.372 . S
C1048 H1007 0.930 . S
C1048 C1047 1.372 . S
C1048 C1049 1.397 . S
C1049 C1048 1.397 . S
C1049 C1050 1.390 . S
C1049 C1065 1.476 . S
C1050 H1008 0.930 . S
C1050 C1049 1.390 . S
C1050 C1051 1.366 . S
C1051 H1009 0.932 . S
C1051 C1046 1.360 . S
C1051 C1050 1.366 . S
C1052 C1026 1.490 . S
C1052 C1053 1.380 . S
C1052 C1057 1.386 . S
C1053 H1010 0.930 . S
C1053 C1052 1.380 . S
C1053 C1054 1.381 . S
C1054 H1011 0.929 . S
C1054 C1053 1.381 . S
C1054 C1055 1.371 . S
C1055 C1054 1.371 . S
C1055 C1056 1.380 . S
C1056 H1012 0.931 . S
C1056 C1055 1.380 . S
C1056 C1057 1.387 . S
C1057 H1013 0.930 . S
C1057 C1052 1.386 . S
C1057 C1056 1.387 . S
C1058 C1027 1.519 . S
C1058 C1059 1.377 . S
C1058 C1063 1.361 . S
C1059 H1014 0.929 . S
C1059 C1058 1.377 . S
C1059 C1060 1.386 . S
C1060 H1015 0.931 . S
C1060 C1059 1.386 . S
C1060 C1061 1.363 . S
C1061 C1060 1.363 . S
C1061 C1062 1.385 . S
C1062 H1016 0.930 . S
C1062 C1061 1.385 . S
C1062 C1063 1.396 . S
C1063 H1017 0.929 . S
C1063 C1058 1.361 . S
C1063 C1062 1.396 . S
C1064 O1018 1.300 . S
C1064 O1019 1.209 . S
C1064 C1037 1.486 . S
C1065 O1020 1.199 . S
C1065 O1021 1.297 . S
C1065 C1049 1.476 . S
H1066 O1092 0.856 . S
H1067 O1095 0.854 . S
H1068 C1103 0.930 . S
H1069 C1104 0.930 . S
H1070 C1106 0.930 . S
H1071 C1107 0.930 . S
H1072 C1109 0.931 . S
H1073 C1110 0.952 . S
H1074 C1112 0.930 . S
H1075 C1113 0.929 . S
H1076 C1115 0.930 . S
H1077 C1116 0.931 . S
H1078 C1118 0.930 . S
H1079 C1119 0.929 . S
H1080 C1121 0.931 . S
H1081 C1122 0.930 . S
H1082 C1124 0.930 . S
H1083 C1125 0.932 . S
H1084 C1127 0.930 . S
H1085 C1128 0.929 . S
H1086 C1130 0.931 . S
H1087 C1131 0.930 . S
H1088 C1133 0.929 . S
H1089 C1134 0.931 . S
H1090 C1136 0.930 . S
H1091 C1137 0.929 . S
O1092 H1066 0.856 . S
O1092 C1138 1.300 . S
O1093 C1138 1.209 . S
O1094 C1139 1.199 1_545 S
O1095 H1067 0.854 . S
O1095 C1139 1.297 . S
C1096 C1097 1.404 . S
C1096 C1101 1.412 . S
C1096 C1102 1.492 . S
C1097 C1096 1.404 . S
C1097 C1098 1.396 . S
C1097 C1108 1.492 . S
C1098 C1097 1.396 . S
C1098 C1099 1.397 . S
C1098 C1114 1.509 . S
C1099 C1098 1.397 . S
C1099 C1100 1.412 1_565 S
C1099 C1120 1.485 . S
C1100 C1099 1.412 1_545 S
C1100 C1101 1.365 1_545 S
C1100 C1126 1.489 . S
C1101 C1096 1.412 . S
C1101 C1100 1.365 1_565 S
C1101 C1132 1.534 . S
C1102 C1096 1.492 . S
C1102 C1103 1.363 1_565 S
C1102 C1107 1.390 . S
C1103 H1068 0.930 . S
C1103 C1102 1.363 1_545 S
C1103 C1104 1.372 . S
C1104 H1069 0.930 . S
C1104 C1103 1.372 . S
C1104 C1105 1.454 . S
C1105 C1104 1.454 . S
C1105 C1106 1.360 1_545 S
C1106 H1070 0.930 . S
C1106 C1105 1.360 1_565 S
C1106 C1107 1.362 . S
C1107 H1071 0.930 . S
C1107 C1102 1.390 . S
C1107 C1106 1.362 . S
C1108 C1097 1.492 . S
C1108 C1109 1.377 1_565 S
C1108 C1113 1.397 . S
C1109 H1072 0.931 . S
C1109 C1108 1.377 1_545 S
C1109 C1110 1.387 . S
C1110 H1073 0.952 . S
C1110 C1109 1.387 . S
C1110 C1111 1.342 1_545 S
C1111 C1110 1.342 1_565 S
C1111 C1112 1.378 . S
C1111 C1138 1.486 . S
C1112 H1074 0.930 . S
C1112 C1111 1.378 . S
C1112 C1113 1.376 . S
C1113 H1075 0.929 . S
C1113 C1108 1.397 . S
C1113 C1112 1.376 . S
C1114 C1098 1.509 . S
C1114 C1115 1.391 1_565 S
C1114 C1119 1.386 . S
C1115 H1076 0.930 . S
C1115 C1114 1.391 1_545 S
C1115 C1116 1.375 . S
C1116 H1077 0.931 . S
C1116 C1115 1.375 . S
C1116 C1117 1.375 1_545 S
C1117 C1116 1.375 1_565 S
C1117 C1118 1.361 . S
C1118 H1078 0.930 . S
C1118 C1117 1.361 . S
C1118 C1119 1.399 . S
C1119 H1079 0.929 . S
C1119 C1114 1.386 . S
C1119 C1118 1.399 . S
C1120 C1099 1.485 . S
C1120 C1121 1.394 1_565 S
C1120 C1125 1.360 . S
C1121 H1080 0.931 . S
C1121 C1120 1.394 1_545 S
C1121 C1122 1.372 . S
C1122 H1081 0.930 . S
C1122 C1121 1.372 . S
C1122 C1123 1.397 1_545 S
C1123 C1122 1.397 1_565 S
C1123 C1124 1.390 . S
C1123 C1139 1.476 . S
C1124 H1082 0.930 . S
C1124 C1123 1.390 . S
C1124 C1125 1.366 . S
C1125 H1083 0.932 . S
C1125 C1120 1.360 . S
C1125 C1124 1.366 . S
C1126 C1100 1.489 . S
C1126 C1127 1.380 . S
C1126 C1131 1.386 1_545 S
C1127 H1084 0.930 . S
C1127 C1126 1.380 . S
C1127 C1128 1.381 . S
C1128 H1085 0.929 . S
C1128 C1127 1.381 . S
C1128 C1129 1.371 . S
C1129 C1128 1.371 . S
C1129 C1130 1.380 1_545 S
C1130 H1086 0.931 . S
C1130 C1129 1.380 1_565 S
C1130 C1131 1.387 . S
C1131 H1087 0.930 . S
C1131 C1126 1.386 1_565 S
C1131 C1130 1.387 . S
C1132 C1101 1.534 . S
C1132 C1133 1.377 1_565 S
C1132 C1137 1.361 . S
C1133 H1088 0.929 . S
C1133 C1132 1.377 1_545 S
C1133 C1134 1.386 . S
C1134 H1089 0.931 . S
C1134 C1133 1.386 . S
C1134 C1135 1.363 1_545 S
C1135 C1134 1.363 1_565 S
C1135 C1136 1.385 . S
C1136 H1090 0.930 . S
C1136 C1135 1.385 . S
C1136 C1137 1.396 . S
C1137 H1091 0.929 . S
C1137 C1132 1.361 . S
C1137 C1136 1.396 . S
C1138 O1092 1.300 . S
C1138 O1093 1.209 . S
C1138 C1111 1.486 . S
C1139 O1094 1.199 1_565 S
C1139 O1095 1.297 . S
C1139 C1123 1.476 . S
H1140 O1166 0.856 . S
H1141 O1169 0.854 . S
H1142 C1177 0.930 . S
H1143 C1178 0.930 . S
H1144 C1180 0.930 . S
H1145 C1181 0.930 . S
H1146 C1183 0.931 . S
H1147 C1184 0.930 . S
H1148 C1186 0.930 . S
H1149 C1187 0.929 . S
H1150 C1189 0.930 . S
H1151 C1190 0.931 . S
H1152 C1192 0.930 . S
H1153 C1193 0.929 . S
H1154 C1195 0.931 . S
H1155 C1196 0.930 . S
H1156 C1198 0.930 . S
H1157 C1199 0.932 . S
H1158 C1201 0.930 . S
H1159 C1202 0.929 . S
H1160 C1204 0.931 . S
H1161 C1205 0.930 . S
H1162 C1207 0.929 . S
H1163 C1208 0.931 . S
H1164 C1210 0.930 . S
H1165 C1211 0.929 . S
O1166 H1140 0.856 . S
O1166 C1212 1.300 . S
O1167 C1212 1.209 1_565 S
O1168 C1213 1.199 1_545 S
O1169 H1141 0.854 . S
O1169 C1213 1.297 . S
C1170 C1171 1.404 . S
C1170 C1175 1.397 1_545 S
C1170 C1176 1.492 . S
C1171 C1170 1.404 . S
C1171 C1172 1.404 . S
C1171 C1182 1.492 . S
C1172 C1171 1.404 . S
C1172 C1173 1.379 1_545 S
C1172 C1188 1.503 1_545 S
C1173 C1172 1.379 1_565 S
C1173 C1174 1.410 . S
C1173 C1194 1.528 . S
C1174 C1173 1.410 . S
C1174 C1175 1.353 . S
C1174 C1200 1.488 . S
C1175 C1170 1.397 1_565 S
C1175 C1174 1.353 . S
C1175 C1206 1.519 . S
C1176 C1170 1.492 . S
C1176 C1177 1.363 . S
C1176 C1181 1.390 1_545 S
C1177 H1142 0.930 . S
C1177 C1176 1.363 . S
C1177 C1178 1.372 . S
C1178 H1143 0.930 . S
C1178 C1177 1.372 . S
C1178 C1179 1.383 . S
C1179 C1178 1.383 . S
C1179 C1180 1.395 1_545 S
C1180 H1144 0.930 . S
C1180 C1179 1.395 1_565 S
C1180 C1181 1.362 . S
C1181 H1145 0.930 . S
C1181 C1176 1.390 1_565 S
C1181 C1180 1.362 . S
C1182 C1171 1.492 . S
C1182 C1183 1.377 . S
C1182 C1187 1.397 1_545 S
C1183 H1146 0.931 . S
C1183 C1182 1.377 . S
C1183 C1184 1.376 . S
C1184 H1147 0.930 . S
C1184 C1183 1.376 . S
C1184 C1185 1.376 . S
C1185 C1184 1.376 . S
C1185 C1186 1.378 1_545 S
C1185 C1212 1.486 . S
C1186 H1148 0.930 . S
C1186 C1185 1.378 1_565 S
C1186 C1187 1.376 . S
C1187 H1149 0.929 . S
C1187 C1182 1.397 1_565 S
C1187 C1186 1.376 . S
C1188 C1172 1.503 1_565 S
C1188 C1189 1.390 1_565 S
C1188 C1193 1.389 . S
C1189 H1150 0.930 . S
C1189 C1188 1.390 1_545 S
C1189 C1190 1.375 . S
C1190 H1151 0.931 . S
C1190 C1189 1.375 . S
C1190 C1191 1.318 1_545 S
C1191 C1190 1.318 1_565 S
C1191 C1192 1.394 . S
C1192 H1152 0.930 . S
C1192 C1191 1.394 . S
C1192 C1193 1.399 . S
C1193 H1153 0.929 . S
C1193 C1188 1.389 . S
C1193 C1192 1.399 . S
C1194 C1173 1.528 . S
C1194 C1195 1.394 1_565 S
C1194 C1199 1.360 . S
C1195 H1154 0.931 . S
C1195 C1194 1.394 1_545 S
C1195 C1196 1.372 . S
C1196 H1155 0.930 . S
C1196 C1195 1.372 . S
C1196 C1197 1.397 1_545 S
C1197 C1196 1.397 1_565 S
C1197 C1198 1.390 . S
C1197 C1213 1.476 . S
C1198 H1156 0.930 . S
C1198 C1197 1.390 . S
C1198 C1199 1.366 . S
C1199 H1157 0.932 . S
C1199 C1194 1.360 . S
C1199 C1198 1.366 . S
C1200 C1174 1.488 . S
C1200 C1201 1.323 1_565 S
C1200 C1205 1.458 . S
C1201 H1158 0.930 . S
C1201 C1200 1.323 1_545 S
C1201 C1202 1.381 . S
C1202 H1159 0.929 . S
C1202 C1201 1.381 . S
C1202 C1203 1.376 1_545 S
C1203 C1202 1.376 1_565 S
C1203 C1204 1.376 . S
C1204 H1160 0.931 . S
C1204 C1203 1.376 . S
C1204 C1205 1.387 . S
C1205 H1161 0.930 . S
C1205 C1200 1.458 . S
C1205 C1204 1.387 . S
C1206 C1175 1.519 . S
C1206 C1207 1.377 1_565 S
C1206 C1211 1.361 . S
C1207 H1162 0.929 . S
C1207 C1206 1.377 1_545 S
C1207 C1208 1.386 . S
C1208 H1163 0.931 . S
C1208 C1207 1.386 . S
C1208 C1209 1.363 1_545 S
C1209 C1208 1.363 1_565 S
C1209 C1210 1.385 . S
C1210 H1164 0.930 . S
C1210 C1209 1.385 . S
C1210 C1211 1.396 . S
C1211 H1165 0.929 . S
C1211 C1206 1.361 . S
C1211 C1210 1.396 . S
C1212 O1166 1.300 . S
C1212 O1167 1.209 1_545 S
C1212 C1185 1.486 . S
C1213 O1168 1.199 1_565 S
C1213 O1169 1.297 . S
C1213 C1197 1.476 . S
H1214 O1240 0.856 . S
H1215 O1243 0.854 . S
H1216 C1251 0.930 . S
H1217 C1252 0.930 . S
H1218 C1254 0.930 . S
H1219 C1255 0.930 . S
H1220 C1257 0.931 . S
H1221 C1258 0.930 . S
H1222 C1260 0.930 . S
H1223 C1261 0.929 . S
H1224 C1263 0.930 . S
H1225 C1264 0.931 . S
H1226 C1266 0.930 . S
H1227 C1267 0.929 . S
H1228 C1269 0.931 . S
H1229 C1270 0.930 . S
H1230 C1272 0.930 . S
H1231 C1273 0.932 . S
H1232 C1275 0.930 . S
H1233 C1276 0.929 . S
H1234 C1278 0.931 . S
H1235 C1279 0.930 . S
H1236 C1281 0.929 . S
H1237 C1282 0.931 . S
H1238 C1284 0.930 . S
H1239 C1285 0.929 . S
O1240 H1214 0.856 . S
O1240 C1286 1.300 . S
O1241 C1286 1.209 1_455 S
O1242 C1287 1.199 1_655 S
O1243 H1215 0.854 . S
O1243 C1287 1.297 . S
C1244 C1245 1.404 . S
C1244 C1249 1.398 . S
C1244 C1250 1.492 . S
C1245 C1244 1.404 . S
C1245 C1246 1.396 . S
C1245 C1256 1.492 . S
C1246 C1245 1.396 . S
C1246 C1247 1.395 . S
C1246 C1262 1.509 . S
C1247 C1246 1.395 . S
C1247 C1248 1.396 1_655 S
C1247 C1268 1.520 1_655 S
C1248 C1247 1.396 1_455 S
C1248 C1249 1.399 1_455 S
C1248 C1274 1.486 . S
C1249 C1244 1.398 . S
C1249 C1248 1.399 1_655 S
C1249 C1280 1.522 1_655 S
C1250 C1244 1.492 . S
C1250 C1251 1.363 . S
C1250 C1255 1.390 1_655 S
C1251 H1216 0.930 . S
C1251 C1250 1.363 . S
C1251 C1252 1.372 . S
C1252 H1217 0.930 . S
C1252 C1251 1.372 . S
C1252 C1253 1.383 . S
C1253 C1252 1.383 . S
C1253 C1254 1.395 1_655 S
C1254 H1218 0.930 . S
C1254 C1253 1.395 1_455 S
C1254 C1255 1.362 . S
C1255 H1219 0.930 . S
C1255 C1250 1.390 1_455 S
C1255 C1254 1.362 . S
C1256 C1245 1.492 . S
C1256 C1257 1.377 . S
C1256 C1261 1.397 1_655 S
C1257 H1220 0.931 . S
C1257 C1256 1.377 . S
C1257 C1258 1.376 . S
C1258 H1221 0.930 . S
C1258 C1257 1.376 . S
C1258 C1259 1.376 . S
C1259 C1258 1.376 . S
C1259 C1260 1.378 1_655 S
C1259 C1286 1.486 . S
C1260 H1222 0.930 . S
C1260 C1259 1.378 1_455 S
C1260 C1261 1.376 . S
C1261 H1223 0.929 . S
C1261 C1256 1.397 1_455 S
C1261 C1260 1.376 . S
C1262 C1246 1.509 . S
C1262 C1263 1.391 . S
C1262 C1267 1.386 1_655 S
C1263 H1224 0.930 . S
C1263 C1262 1.391 . S
C1263 C1264 1.375 . S
C1264 H1225 0.931 . S
C1264 C1263 1.375 . S
C1264 C1265 1.375 . S
C1265 C1264 1.375 . S
C1265 C1266 1.361 1_655 S
C1266 H1226 0.930 . S
C1266 C1265 1.361 1_455 S
C1266 C1267 1.399 . S
C1267 H1227 0.929 . S
C1267 C1262 1.386 1_455 S
C1267 C1266 1.399 . S
C1268 C1247 1.520 1_455 S
C1268 C1269 1.350 1_455 S
C1268 C1273 1.379 . S
C1269 H1228 0.931 . S
C1269 C1268 1.350 1_655 S
C1269 C1270 1.372 . S
C1270 H1229 0.930 . S
C1270 C1269 1.372 . S
C1270 C1271 1.397 1_655 S
C1271 C1270 1.397 1_455 S
C1271 C1272 1.390 . S
C1271 C1287 1.476 . S
C1272 H1230 0.930 . S
C1272 C1271 1.390 . S
C1272 C1273 1.366 . S
C1273 H1231 0.932 . S
C1273 C1268 1.379 . S
C1273 C1272 1.366 . S
C1274 C1248 1.486 . S
C1274 C1275 1.380 1_455 S
C1274 C1279 1.386 . S
C1275 H1232 0.930 . S
C1275 C1274 1.380 1_655 S
C1275 C1276 1.381 . S
C1276 H1233 0.929 . S
C1276 C1275 1.381 . S
C1276 C1277 1.371 1_655 S
C1277 C1276 1.371 1_455 S
C1277 C1278 1.380 . S
C1278 H1234 0.931 . S
C1278 C1277 1.380 . S
C1278 C1279 1.387 . S
C1279 H1235 0.930 . S
C1279 C1274 1.386 . S
C1279 C1278 1.387 . S
C1280 C1249 1.522 1_455 S
C1280 C1281 1.377 1_455 S
C1280 C1285 1.361 . S
C1281 H1236 0.929 . S
C1281 C1280 1.377 1_655 S
C1281 C1282 1.386 . S
C1282 H1237 0.931 . S
C1282 C1281 1.386 . S
C1282 C1283 1.363 1_655 S
C1283 C1282 1.363 1_455 S
C1283 C1284 1.385 . S
C1284 H1238 0.930 . S
C1284 C1283 1.385 . S
C1284 C1285 1.396 . S
C1285 H1239 0.929 . S
C1285 C1280 1.361 . S
C1285 C1284 1.396 . S
C1286 O1240 1.300 . S
C1286 O1241 1.209 1_655 S
C1286 C1259 1.486 . S
C1287 O1242 1.199 1_455 S
C1287 O1243 1.297 . S
C1287 C1271 1.476 . S
H1288 O1314 0.856 . S
H1289 O1317 0.854 . S
H1290 C1325 0.930 . S
H1291 C1326 0.930 . S
H1292 C1328 0.930 . S
H1293 C1329 0.930 . S
H1294 C1331 0.931 . S
H1295 C1332 0.930 . S
H1296 C1334 0.930 . S
H1297 C1335 0.929 . S
H1298 C1337 0.930 . S
H1299 C1338 0.931 . S
H1300 C1340 0.930 . S
H1301 C1341 0.929 . S
H1302 C1343 0.931 . S
H1303 C1344 0.930 . S
H1304 C1346 0.930 . S
H1305 C1347 0.932 . S
H1306 C1349 0.930 . S
H1307 C1350 0.929 . S
H1308 C1352 0.931 . S
H1309 C1353 0.930 . S
H1310 C1355 0.929 . S
H1311 C1356 0.931 . S
H1312 C1358 0.930 . S
H1313 C1359 0.929 . S
O1314 H1288 0.856 . S
O1314 C1360 1.300 . S
O1315 C1360 1.209 . S
O1316 C1361 1.199 . S
O1317 H1289 0.854 . S
O1317 C1361 1.297 . S
C1318 C1319 1.404 . S
C1318 C1323 1.397 . S
C1318 C1324 1.492 . S
C1319 C1318 1.404 . S
C1319 C1320 1.396 . S
C1319 C1330 1.492 . S
C1320 C1319 1.396 . S
C1320 C1321 1.397 . S
C1320 C1336 1.509 . S
C1321 C1320 1.397 . S
C1321 C1322 1.412 . S
C1321 C1342 1.485 . S
C1322 C1321 1.412 . S
C1322 C1323 1.388 . S
C1322 C1348 1.490 . S
C1323 C1318 1.397 . S
C1323 C1322 1.388 . S
C1323 C1354 1.519 . S
C1324 C1318 1.492 . S
C1324 C1325 1.363 . S
C1324 C1329 1.390 . S
C1325 H1290 0.930 . S
C1325 C1324 1.363 . S
C1325 C1326 1.372 . S
C1326 H1291 0.930 . S
C1326 C1325 1.372 . S
C1326 C1327 1.383 . S
C1327 C1326 1.383 . S
C1327 C1328 1.395 . S
C1328 H1292 0.930 . S
C1328 C1327 1.395 . S
C1328 C1329 1.362 . S
C1329 H1293 0.930 . S
C1329 C1324 1.390 . S
C1329 C1328 1.362 . S
C1330 C1319 1.492 . S
C1330 C1331 1.377 . S
C1330 C1335 1.397 . S
C1331 H1294 0.931 . S
C1331 C1330 1.377 . S
C1331 C1332 1.376 . S
C1332 H1295 0.930 . S
C1332 C1331 1.376 . S
C1332 C1333 1.376 . S
C1333 C1332 1.376 . S
C1333 C1334 1.378 . S
C1333 C1360 1.486 . S
C1334 H1296 0.930 . S
C1334 C1333 1.378 . S
C1334 C1335 1.376 . S
C1335 H1297 0.929 . S
C1335 C1330 1.397 . S
C1335 C1334 1.376 . S
C1336 C1320 1.509 . S
C1336 C1337 1.391 . S
C1336 C1341 1.386 . S
C1337 H1298 0.930 . S
C1337 C1336 1.391 . S
C1337 C1338 1.375 . S
C1338 H1299 0.931 . S
C1338 C1337 1.375 . S
C1338 C1339 1.375 . S
C1339 C1338 1.375 . S
C1339 C1340 1.361 . S
C1340 H1300 0.930 . S
C1340 C1339 1.361 . S
C1340 C1341 1.399 . S
C1341 H1301 0.929 . S
C1341 C1336 1.386 . S
C1341 C1340 1.399 . S
C1342 C1321 1.485 . S
C1342 C1343 1.394 . S
C1342 C1347 1.360 . S
C1343 H1302 0.931 . S
C1343 C1342 1.394 . S
C1343 C1344 1.372 . S
C1344 H1303 0.930 . S
C1344 C1343 1.372 . S
C1344 C1345 1.397 . S
C1345 C1344 1.397 . S
C1345 C1346 1.390 . S
C1345 C1361 1.476 . S
C1346 H1304 0.930 . S
C1346 C1345 1.390 . S
C1346 C1347 1.366 . S
C1347 H1305 0.932 . S
C1347 C1342 1.360 . S
C1347 C1346 1.366 . S
C1348 C1322 1.490 . S
C1348 C1349 1.380 . S
C1348 C1353 1.386 . S
C1349 H1306 0.930 . S
C1349 C1348 1.380 . S
C1349 C1350 1.381 . S
C1350 H1307 0.929 . S
C1350 C1349 1.381 . S
C1350 C1351 1.371 . S
C1351 C1350 1.371 . S
C1351 C1352 1.380 . S
C1352 H1308 0.931 . S
C1352 C1351 1.380 . S
C1352 C1353 1.387 . S
C1353 H1309 0.930 . S
C1353 C1348 1.386 . S
C1353 C1352 1.387 . S
C1354 C1323 1.519 . S
C1354 C1355 1.377 . S
C1354 C1359 1.361 . S
C1355 H1310 0.929 . S
C1355 C1354 1.377 . S
C1355 C1356 1.386 . S
C1356 H1311 0.931 . S
C1356 C1355 1.386 . S
C1356 C1357 1.363 . S
C1357 C1356 1.363 . S
C1357 C1358 1.385 . S
C1358 H1312 0.930 . S
C1358 C1357 1.385 . S
C1358 C1359 1.396 . S
C1359 H1313 0.929 . S
C1359 C1354 1.361 . S
C1359 C1358 1.396 . S
C1360 O1314 1.300 . S
C1360 O1315 1.209 . S
C1360 C1333 1.486 . S
C1361 O1316 1.199 . S
C1361 O1317 1.297 . S
C1361 C1345 1.476 . S
H1362 O1388 0.856 . S
H1363 O1391 0.854 . S
H1364 C1399 0.930 . S
H1365 C1400 0.930 . S
H1366 C1402 0.930 . S
H1367 C1403 0.930 . S
H1368 C1405 0.931 . S
H1369 C1406 0.930 . S
H1370 C1408 0.930 . S
H1371 C1409 0.929 . S
H1372 C1411 0.930 . S
H1373 C1412 0.931 . S
H1374 C1414 0.930 . S
H1375 C1415 0.929 . S
H1376 C1417 0.931 . S
H1377 C1418 0.930 . S
H1378 C1420 0.930 . S
H1379 C1421 0.932 . S
H1380 C1423 0.930 . S
H1381 C1424 0.929 . S
H1382 C1426 0.931 . S
H1383 C1427 0.930 . S
H1384 C1429 0.929 . S
H1385 C1430 0.931 . S
H1386 C1432 0.930 . S
H1387 C1433 0.929 . S
O1388 H1362 0.856 . S
O1388 C1434 1.300 . S
O1389 C1434 1.209 . S
O1390 C1435 1.199 . S
O1391 H1363 0.854 . S
O1391 C1435 1.297 . S
C1392 C1393 1.404 . S
C1392 C1397 1.397 . S
C1392 C1398 1.492 . S
C1393 C1392 1.404 . S
C1393 C1394 1.396 . S
C1393 C1404 1.492 . S
C1394 C1393 1.396 . S
C1394 C1395 1.397 . S
C1394 C1410 1.509 . S
C1395 C1394 1.397 . S
C1395 C1396 1.412 . S
C1395 C1416 1.485 . S
C1396 C1395 1.412 . S
C1396 C1397 1.388 . S
C1396 C1422 1.490 . S
C1397 C1392 1.397 . S
C1397 C1396 1.388 . S
C1397 C1428 1.519 . S
C1398 C1392 1.492 . S
C1398 C1399 1.363 . S
C1398 C1403 1.390 . S
C1399 H1364 0.930 . S
C1399 C1398 1.363 . S
C1399 C1400 1.372 . S
C1400 H1365 0.930 . S
C1400 C1399 1.372 . S
C1400 C1401 1.383 . S
C1401 C1400 1.383 . S
C1401 C1402 1.395 . S
C1402 H1366 0.930 . S
C1402 C1401 1.395 . S
C1402 C1403 1.362 . S
C1403 H1367 0.930 . S
C1403 C1398 1.390 . S
C1403 C1402 1.362 . S
C1404 C1393 1.492 . S
C1404 C1405 1.377 . S
C1404 C1409 1.397 . S
C1405 H1368 0.931 . S
C1405 C1404 1.377 . S
C1405 C1406 1.376 . S
C1406 H1369 0.930 . S
C1406 C1405 1.376 . S
C1406 C1407 1.376 . S
C1407 C1406 1.376 . S
C1407 C1408 1.378 . S
C1407 C1434 1.486 . S
C1408 H1370 0.930 . S
C1408 C1407 1.378 . S
C1408 C1409 1.376 . S
C1409 H1371 0.929 . S
C1409 C1404 1.397 . S
C1409 C1408 1.376 . S
C1410 C1394 1.509 . S
C1410 C1411 1.391 . S
C1410 C1415 1.386 . S
C1411 H1372 0.930 . S
C1411 C1410 1.391 . S
C1411 C1412 1.375 . S
C1412 H1373 0.931 . S
C1412 C1411 1.375 . S
C1412 C1413 1.375 . S
C1413 C1412 1.375 . S
C1413 C1414 1.361 . S
C1414 H1374 0.930 . S
C1414 C1413 1.361 . S
C1414 C1415 1.399 . S
C1415 H1375 0.929 . S
C1415 C1410 1.386 . S
C1415 C1414 1.399 . S
C1416 C1395 1.485 . S
C1416 C1417 1.394 . S
C1416 C1421 1.360 . S
C1417 H1376 0.931 . S
C1417 C1416 1.394 . S
C1417 C1418 1.372 . S
C1418 H1377 0.930 . S
C1418 C1417 1.372 . S
C1418 C1419 1.397 . S
C1419 C1418 1.397 . S
C1419 C1420 1.390 . S
C1419 C1435 1.476 . S
C1420 H1378 0.930 . S
C1420 C1419 1.390 . S
C1420 C1421 1.366 . S
C1421 H1379 0.932 . S
C1421 C1416 1.360 . S
C1421 C1420 1.366 . S
C1422 C1396 1.490 . S
C1422 C1423 1.380 . S
C1422 C1427 1.386 . S
C1423 H1380 0.930 . S
C1423 C1422 1.380 . S
C1423 C1424 1.381 . S
C1424 H1381 0.929 . S
C1424 C1423 1.381 . S
C1424 C1425 1.371 . S
C1425 C1424 1.371 . S
C1425 C1426 1.380 . S
C1426 H1382 0.931 . S
C1426 C1425 1.380 . S
C1426 C1427 1.387 . S
C1427 H1383 0.930 . S
C1427 C1422 1.386 . S
C1427 C1426 1.387 . S
C1428 C1397 1.519 . S
C1428 C1429 1.377 . S
C1428 C1433 1.361 . S
C1429 H1384 0.929 . S
C1429 C1428 1.377 . S
C1429 C1430 1.386 . S
C1430 H1385 0.931 . S
C1430 C1429 1.386 . S
C1430 C1431 1.363 . S
C1431 C1430 1.363 . S
C1431 C1432 1.385 . S
C1432 H1386 0.930 . S
C1432 C1431 1.385 . S
C1432 C1433 1.396 . S
C1433 H1387 0.929 . S
C1433 C1428 1.361 . S
C1433 C1432 1.396 . S
C1434 O1388 1.300 . S
C1434 O1389 1.209 . S
C1434 C1407 1.486 . S
C1435 O1390 1.199 . S
C1435 O1391 1.297 . S
C1435 C1419 1.476 . S
H1436 O1462 0.856 . S
H1437 O1465 0.854 . S
H1438 C1473 0.930 . S
H1439 C1474 0.930 . S
H1440 C1476 0.930 . S
H1441 C1477 0.930 . S
H1442 C1479 0.931 . S
H1443 C1480 0.930 . S
H1444 C1482 0.930 . S
H1445 C1483 0.929 . S
H1446 C1485 0.930 . S
H1447 C1486 0.931 . S
H1448 C1488 0.930 . S
H1449 C1489 0.929 . S
H1450 C1491 0.931 . S
H1451 C1492 0.930 . S
H1452 C1494 0.930 . S
H1453 C1495 0.932 . S
H1454 C1497 0.930 . S
H1455 C1498 0.929 . S
H1456 C1500 0.931 . S
H1457 C1501 0.930 . S
H1458 C1503 0.929 . S
H1459 C1504 0.931 . S
H1460 C1506 0.930 . S
H1461 C1507 0.929 . S
O1462 H1436 0.856 . S
O1462 C1508 1.300 . S
O1463 C1508 1.209 . S
O1464 C1509 1.199 . S
O1465 H1437 0.854 . S
O1465 C1509 1.297 . S
C1466 C1467 1.404 . S
C1466 C1471 1.397 . S
C1466 C1472 1.492 . S
C1467 C1466 1.404 . S
C1467 C1468 1.396 . S
C1467 C1478 1.492 . S
C1468 C1467 1.396 . S
C1468 C1469 1.397 . S
C1468 C1484 1.509 . S
C1469 C1468 1.397 . S
C1469 C1470 1.412 . S
C1469 C1490 1.485 . S
C1470 C1469 1.412 . S
C1470 C1471 1.388 . S
C1470 C1496 1.490 . S
C1471 C1466 1.397 . S
C1471 C1470 1.388 . S
C1471 C1502 1.519 . S
C1472 C1466 1.492 . S
C1472 C1473 1.363 . S
C1472 C1477 1.390 . S
C1473 H1438 0.930 . S
C1473 C1472 1.363 . S
C1473 C1474 1.372 . S
C1474 H1439 0.930 . S
C1474 C1473 1.372 . S
C1474 C1475 1.383 . S
C1475 C1474 1.383 . S
C1475 C1476 1.395 . S
C1476 H1440 0.930 . S
C1476 C1475 1.395 . S
C1476 C1477 1.362 . S
C1477 H1441 0.930 . S
C1477 C1472 1.390 . S
C1477 C1476 1.362 . S
C1478 C1467 1.492 . S
C1478 C1479 1.377 . S
C1478 C1483 1.397 . S
C1479 H1442 0.931 . S
C1479 C1478 1.377 . S
C1479 C1480 1.376 . S
C1480 H1443 0.930 . S
C1480 C1479 1.376 . S
C1480 C1481 1.376 . S
C1481 C1480 1.376 . S
C1481 C1482 1.378 . S
C1481 C1508 1.486 . S
C1482 H1444 0.930 . S
C1482 C1481 1.378 . S
C1482 C1483 1.376 . S
C1483 H1445 0.929 . S
C1483 C1478 1.397 . S
C1483 C1482 1.376 . S
C1484 C1468 1.509 . S
C1484 C1485 1.391 . S
C1484 C1489 1.386 . S
C1485 H1446 0.930 . S
C1485 C1484 1.391 . S
C1485 C1486 1.375 . S
C1486 H1447 0.931 . S
C1486 C1485 1.375 . S
C1486 C1487 1.375 . S
C1487 C1486 1.375 . S
C1487 C1488 1.361 . S
C1488 H1448 0.930 . S
C1488 C1487 1.361 . S
C1488 C1489 1.399 . S
C1489 H1449 0.929 . S
C1489 C1484 1.386 . S
C1489 C1488 1.399 . S
C1490 C1469 1.485 . S
C1490 C1491 1.394 . S
C1490 C1495 1.360 . S
C1491 H1450 0.931 . S
C1491 C1490 1.394 . S
C1491 C1492 1.372 . S
C1492 H1451 0.930 . S
C1492 C1491 1.372 . S
C1492 C1493 1.397 . S
C1493 C1492 1.397 . S
C1493 C1494 1.390 . S
C1493 C1509 1.476 . S
C1494 H1452 0.930 . S
C1494 C1493 1.390 . S
C1494 C1495 1.366 . S
C1495 H1453 0.932 . S
C1495 C1490 1.360 . S
C1495 C1494 1.366 . S
C1496 C1470 1.490 . S
C1496 C1497 1.380 . S
C1496 C1501 1.386 . S
C1497 H1454 0.930 . S
C1497 C1496 1.380 . S
C1497 C1498 1.381 . S
C1498 H1455 0.929 . S
C1498 C1497 1.381 . S
C1498 C1499 1.371 . S
C1499 C1498 1.371 . S
C1499 C1500 1.380 . S
C1500 H1456 0.931 . S
C1500 C1499 1.380 . S
C1500 C1501 1.387 . S
C1501 H1457 0.930 . S
C1501 C1496 1.386 . S
C1501 C1500 1.387 . S
C1502 C1471 1.519 . S
C1502 C1503 1.377 . S
C1502 C1507 1.361 . S
C1503 H1458 0.929 . S
C1503 C1502 1.377 . S
C1503 C1504 1.386 . S
C1504 H1459 0.931 . S
C1504 C1503 1.386 . S
C1504 C1505 1.363 . S
C1505 C1504 1.363 . S
C1505 C1506 1.385 . S
C1506 H1460 0.930 . S
C1506 C1505 1.385 . S
C1506 C1507 1.396 . S
C1507 H1461 0.929 . S
C1507 C1502 1.361 . S
C1507 C1506 1.396 . S
C1508 O1462 1.300 . S
C1508 O1463 1.209 . S
C1508 C1481 1.486 . S
C1509 O1464 1.199 . S
C1509 O1465 1.297 . S
C1509 C1493 1.476 . S
H1510 O1536 0.856 . S
H1511 O1539 0.854 . S
H1512 C1547 0.930 . S
H1513 C1548 0.930 . S
H1514 C1550 0.930 . S
H1515 C1551 0.930 . S
H1516 C1553 0.931 . S
H1517 C1554 0.930 . S
H1518 C1556 0.930 . S
H1519 C1557 0.929 . S
H1520 C1559 0.930 . S
H1521 C1560 0.931 . S
H1522 C1562 0.930 . S
H1523 C1563 0.929 . S
H1524 C1565 0.931 . S
H1525 C1566 0.930 . S
H1526 C1568 0.930 . S
H1527 C1569 0.932 . S
H1528 C1571 0.930 . S
H1529 C1572 0.929 . S
H1530 C1574 0.931 . S
H1531 C1575 0.930 . S
H1532 C1577 0.929 . S
H1533 C1578 0.931 . S
H1534 C1580 0.930 . S
H1535 C1581 0.929 . S
O1536 H1510 0.856 . S
O1536 C1582 1.300 . S
O1537 C1582 1.209 . S
O1538 C1583 1.199 . S
O1539 H1511 0.854 . S
O1539 C1583 1.297 . S
C1540 C1541 1.404 . S
C1540 C1545 1.397 . S
C1540 C1546 1.492 . S
C1541 C1540 1.404 . S
C1541 C1542 1.396 . S
C1541 C1552 1.492 . S
C1542 C1541 1.396 . S
C1542 C1543 1.397 . S
C1542 C1558 1.509 . S
C1543 C1542 1.397 . S
C1543 C1544 1.412 . S
C1543 C1564 1.485 . S
C1544 C1543 1.412 . S
C1544 C1545 1.388 . S
C1544 C1570 1.490 . S
C1545 C1540 1.397 . S
C1545 C1544 1.388 . S
C1545 C1576 1.519 . S
C1546 C1540 1.492 . S
C1546 C1547 1.363 . S
C1546 C1551 1.390 . S
C1547 H1512 0.930 . S
C1547 C1546 1.363 . S
C1547 C1548 1.372 . S
C1548 H1513 0.930 . S
C1548 C1547 1.372 . S
C1548 C1549 1.383 . S
C1549 C1548 1.383 . S
C1549 C1550 1.395 . S
C1550 H1514 0.930 . S
C1550 C1549 1.395 . S
C1550 C1551 1.362 . S
C1551 H1515 0.930 . S
C1551 C1546 1.390 . S
C1551 C1550 1.362 . S
C1552 C1541 1.492 . S
C1552 C1553 1.377 . S
C1552 C1557 1.397 . S
C1553 H1516 0.931 . S
C1553 C1552 1.377 . S
C1553 C1554 1.376 . S
C1554 H1517 0.930 . S
C1554 C1553 1.376 . S
C1554 C1555 1.376 . S
C1555 C1554 1.376 . S
C1555 C1556 1.378 . S
C1555 C1582 1.486 . S
C1556 H1518 0.930 . S
C1556 C1555 1.378 . S
C1556 C1557 1.376 . S
C1557 H1519 0.929 . S
C1557 C1552 1.397 . S
C1557 C1556 1.376 . S
C1558 C1542 1.509 . S
C1558 C1559 1.391 . S
C1558 C1563 1.386 . S
C1559 H1520 0.930 . S
C1559 C1558 1.391 . S
C1559 C1560 1.375 . S
C1560 H1521 0.931 . S
C1560 C1559 1.375 . S
C1560 C1561 1.375 . S
C1561 C1560 1.375 . S
C1561 C1562 1.361 . S
C1562 H1522 0.930 . S
C1562 C1561 1.361 . S
C1562 C1563 1.399 . S
C1563 H1523 0.929 . S
C1563 C1558 1.386 . S
C1563 C1562 1.399 . S
C1564 C1543 1.485 . S
C1564 C1565 1.394 . S
C1564 C1569 1.360 . S
C1565 H1524 0.931 . S
C1565 C1564 1.394 . S
C1565 C1566 1.372 . S
C1566 H1525 0.930 . S
C1566 C1565 1.372 . S
C1566 C1567 1.397 . S
C1567 C1566 1.397 . S
C1567 C1568 1.390 . S
C1567 C1583 1.476 . S
C1568 H1526 0.930 . S
C1568 C1567 1.390 . S
C1568 C1569 1.366 . S
C1569 H1527 0.932 . S
C1569 C1564 1.360 . S
C1569 C1568 1.366 . S
C1570 C1544 1.490 . S
C1570 C1571 1.380 . S
C1570 C1575 1.386 . S
C1571 H1528 0.930 . S
C1571 C1570 1.380 . S
C1571 C1572 1.381 . S
C1572 H1529 0.929 . S
C1572 C1571 1.381 . S
C1572 C1573 1.371 . S
C1573 C1572 1.371 . S
C1573 C1574 1.380 . S
C1574 H1530 0.931 . S
C1574 C1573 1.380 . S
C1574 C1575 1.387 . S
C1575 H1531 0.930 . S
C1575 C1570 1.386 . S
C1575 C1574 1.387 . S
C1576 C1545 1.519 . S
C1576 C1577 1.377 . S
C1576 C1581 1.361 . S
C1577 H1532 0.929 . S
C1577 C1576 1.377 . S
C1577 C1578 1.386 . S
C1578 H1533 0.931 . S
C1578 C1577 1.386 . S
C1578 C1579 1.363 . S
C1579 C1578 1.363 . S
C1579 C1580 1.385 . S
C1580 H1534 0.930 . S
C1580 C1579 1.385 . S
C1580 C1581 1.396 . S
C1581 H1535 0.929 . S
C1581 C1576 1.361 . S
C1581 C1580 1.396 . S
C1582 O1536 1.300 . S
C1582 O1537 1.209 . S
C1582 C1555 1.486 . S
C1583 O1538 1.199 . S
C1583 O1539 1.297 . S
C1583 C1567 1.476 . S
H1584 C1592 0.929 . S
H1585 C1594 0.930 . S
H1586 C1596 0.930 . S
H1587 C1599 0.929 . S
H1588 C1602 0.963 . S
H1589 C1604 0.960 . S
H1590 C1604 0.960 . S
H1591 C1604 0.960 . S
C1592 H1584 0.929 . S
C1592 C1593 1.377 . S
C1592 C1594 1.384 . S
C1593 C1592 1.377 . S
C1593 C1599 1.390 1_655 S
C1594 H1585 0.930 . S
C1594 C1592 1.384 . S
C1594 C1595 1.372 . S
C1595 C1594 1.372 . S
C1595 C1596 1.400 1_655 S
C1595 C1600 1.490 . S
C1596 H1586 0.930 . S
C1596 C1595 1.400 1_455 S
C1596 C1599 1.386 . S
H1597 C1613 0.930 1_455 S
H1598 C1614 0.916 1_455 S
C1599 H1587 0.929 . S
C1599 C1593 1.390 1_455 S
C1599 C1596 1.386 . S
C1600 C1595 1.490 . S
C1600 C1602 1.395 . S
C1600 C1603 1.403 . S
H1601 C1607 0.930 . S
C1602 H1588 0.963 . S
C1602 C1600 1.395 . S
C1602 C1605 1.403 . S
C1603 C1600 1.403 . S
C1603 C1604 1.524 . S
C1603 C1607 1.400 . S
C1604 H1589 0.960 . S
C1604 H1590 0.960 . S
C1604 H1591 0.960 . S
C1604 C1603 1.524 . S
C1605 C1602 1.403 . S
C1605 C1606 1.392 . S
C1605 C1609 1.489 1_655 S
C1606 C1605 1.392 . S
C1606 C1607 1.385 . S
C1606 C1608 1.478 . S
C1607 H1601 0.930 . S
C1607 C1603 1.400 . S
C1607 C1606 1.385 . S
C1608 C1606 1.478 . S
C1608 C1610 1.381 . S
C1608 C1614 1.385 . S
C1609 C1605 1.489 1_455 S
C1609 H1615 0.975 . S
C1609 H1616 0.969 . S
C1609 H1617 0.944 1_455 S
C1610 C1608 1.381 . S
C1610 C1611 1.394 . S
C1610 H1618 0.930 . S
C1611 C1610 1.394 . S
C1611 C1612 1.383 . S
C1611 H1619 0.929 . S
C1612 C1611 1.383 . S
C1612 C1613 1.377 . S
C1613 H1597 0.930 1_655 S
C1613 C1612 1.377 . S
C1613 C1614 1.392 . S
C1614 H1598 0.916 1_655 S
C1614 C1608 1.385 . S
C1614 C1613 1.392 . S
H1615 C1609 0.975 . S
H1616 C1609 0.969 . S
H1617 C1609 0.944 1_655 S
H1618 C1610 0.930 . S
H1619 C1611 0.929 . S
H1620 C1628 0.929 . S
H1621 C1630 0.930 . S
H1622 C1632 0.930 . S
H1623 C1635 0.929 . S
H1624 C1638 0.930 . S
H1625 C1640 0.960 . S
H1626 C1640 0.960 . S
H1627 C1640 0.960 . S
C1628 H1620 0.929 . S
C1628 C1629 1.377 . S
C1628 C1630 1.384 . S
C1629 C1628 1.377 . S
C1629 C1635 1.390 . S
C1630 H1621 0.930 . S
C1630 C1628 1.384 . S
C1630 C1631 1.372 . S
C1631 C1630 1.372 . S
C1631 C1632 1.400 . S
C1631 C1636 1.490 . S
C1632 H1622 0.930 . S
C1632 C1631 1.400 . S
C1632 C1635 1.386 . S
H1633 C1649 0.930 . S
H1634 C1650 0.931 . S
C1635 H1623 0.929 . S
C1635 C1629 1.390 . S
C1635 C1632 1.386 . S
C1636 C1631 1.490 . S
C1636 C1638 1.395 . S
C1636 C1639 1.403 . S
H1637 C1643 0.930 . S
C1638 H1624 0.930 . S
C1638 C1636 1.395 . S
C1638 C1641 1.403 . S
C1639 C1636 1.403 . S
C1639 C1640 1.524 . S
C1639 C1643 1.400 . S
C1640 H1625 0.960 . S
C1640 H1626 0.960 . S
C1640 H1627 0.960 . S
C1640 C1639 1.524 . S
C1641 C1638 1.403 . S
C1641 C1642 1.392 . S
C1641 C1645 1.495 . S
C1642 C1641 1.392 . S
C1642 C1643 1.385 . S
C1642 C1644 1.478 . S
C1643 H1637 0.930 . S
C1643 C1639 1.400 . S
C1643 C1642 1.385 . S
C1644 C1642 1.478 . S
C1644 C1646 1.381 . S
C1644 C1650 1.383 . S
C1645 C1641 1.495 . S
C1645 H1651 0.959 . S
C1645 H1652 0.961 . S
C1645 H1653 0.960 . S
C1646 C1644 1.381 . S
C1646 C1647 1.394 . S
C1646 H1654 0.930 . S
C1647 C1646 1.394 . S
C1647 C1648 1.383 . S
C1647 H1655 0.929 . S
C1648 C1647 1.383 . S
C1648 C1649 1.377 . S
C1649 H1633 0.930 . S
C1649 C1648 1.377 . S
C1649 C1650 1.379 . S
C1650 H1634 0.931 . S
C1650 C1644 1.383 . S
C1650 C1649 1.379 . S
H1651 C1645 0.959 . S
H1652 C1645 0.961 . S
H1653 C1645 0.960 . S
H1654 C1646 0.930 . S
H1655 C1647 0.929 . S
H1656 C1664 0.929 . S
H1657 C1666 0.930 . S
H1658 C1668 0.930 1_565 S
H1659 C1671 0.929 1_565 S
H1660 C1674 0.930 . S
H1661 C1676 0.960 . S
H1662 C1676 0.960 . S
H1663 C1676 0.960 1_565 S
C1664 H1656 0.929 . S
C1664 C1665 1.377 . S
C1664 C1666 1.384 . S
C1665 C1664 1.377 . S
C1665 C1671 1.390 . S
C1666 H1657 0.930 . S
C1666 C1664 1.384 . S
C1666 C1667 1.372 . S
C1667 C1666 1.372 . S
C1667 C1668 1.400 . S
C1667 C1672 1.490 . S
C1668 H1658 0.930 1_545 S
C1668 C1667 1.400 . S
C1668 C1671 1.386 . S
H1669 C1685 0.869 1_565 S
H1670 C1686 0.931 1_565 S
C1671 H1659 0.929 1_545 S
C1671 C1665 1.390 . S
C1671 C1668 1.386 . S
C1672 C1667 1.490 . S
C1672 C1674 1.395 . S
C1672 C1675 1.403 . S
H1673 C1679 0.930 . S
C1674 H1660 0.930 . S
C1674 C1672 1.395 . S
C1674 C1677 1.403 . S
C1675 C1672 1.403 . S
C1675 C1676 1.524 . S
C1675 C1679 1.400 . S
C1676 H1661 0.960 . S
C1676 H1662 0.960 . S
C1676 H1663 0.960 1_545 S
C1676 C1675 1.524 . S
C1677 C1674 1.403 . S
C1677 C1678 1.392 . S
C1677 C1681 1.495 . S
C1678 C1677 1.392 . S
C1678 C1679 1.385 . S
C1678 C1680 1.478 . S
C1679 H1673 0.930 . S
C1679 C1675 1.400 . S
C1679 C1678 1.385 . S
C1680 C1678 1.478 . S
C1680 C1682 1.381 . S
C1680 C1686 1.383 . S
C1681 C1677 1.495 . S
C1681 H1687 0.959 . S
C1681 H1688 0.961 . S
C1681 H1689 0.960 . S
C1682 C1680 1.381 . S
C1682 C1683 1.394 . S
C1682 H1690 0.930 . S
C1683 C1682 1.394 . S
C1683 C1684 1.383 . S
C1683 H1691 0.929 . S
C1684 C1683 1.383 . S
C1684 C1685 1.411 . S
C1685 H1669 0.869 1_545 S
C1685 C1684 1.411 . S
C1685 C1686 1.408 . S
C1686 H1670 0.931 1_545 S
C1686 C1680 1.383 . S
C1686 C1685 1.408 . S
H1687 C1681 0.959 . S
H1688 C1681 0.961 . S
H1689 C1681 0.960 . S
H1690 C1682 0.930 . S
H1691 C1683 0.929 . S
H1692 C1700 0.929 . S
H1693 C1702 0.930 . S
H1694 C1704 0.930 . S
H1695 C1707 0.929 . S
H1696 C1710 0.930 . S
H1697 C1712 0.960 . S
H1698 C1712 0.960 . S
H1699 C1712 0.960 . S
C1700 H1692 0.929 . S
C1700 C1701 1.377 1_545 S
C1700 C1702 1.384 . S
C1701 C1700 1.377 1_565 S
C1701 C1707 1.390 . S
C1702 H1693 0.930 . S
C1702 C1700 1.384 . S
C1702 C1703 1.372 1_545 S
C1703 C1702 1.372 1_565 S
C1703 C1704 1.400 . S
C1703 C1708 1.490 . S
C1704 H1694 0.930 . S
C1704 C1703 1.400 . S
C1704 C1707 1.386 . S
H1705 C1721 0.930 . S
H1706 C1722 0.931 . S
C1707 H1695 0.929 . S
C1707 C1701 1.390 . S
C1707 C1704 1.386 . S
C1708 C1703 1.490 . S
C1708 C1710 1.395 1_565 S
C1708 C1711 1.403 . S
H1709 C1715 0.930 . S
C1710 H1696 0.930 . S
C1710 C1708 1.395 1_545 S
C1710 C1713 1.403 . S
C1711 C1708 1.403 . S
C1711 C1712 1.524 . S
C1711 C1715 1.400 . S
C1712 H1697 0.960 . S
C1712 H1698 0.960 . S
C1712 H1699 0.960 . S
C1712 C1711 1.524 . S
C1713 C1710 1.403 . S
C1713 C1714 1.392 1_545 S
C1713 C1717 1.495 . S
C1714 C1713 1.392 1_565 S
C1714 C1715 1.385 . S
C1714 C1716 1.478 . S
C1715 H1709 0.930 . S
C1715 C1711 1.400 . S
C1715 C1714 1.385 . S
C1716 C1714 1.478 . S
C1716 C1718 1.381 1_565 S
C1716 C1722 1.383 . S
C1717 C1713 1.495 . S
C1717 H1723 0.959 . S
C1717 H1724 0.961 . S
C1717 H1725 0.960 . S
C1718 C1716 1.381 1_545 S
C1718 C1719 1.394 . S
C1718 H1726 0.930 . S
C1719 C1718 1.394 . S
C1719 C1720 1.383 1_545 S
C1719 H1727 0.929 . S
C1720 C1719 1.383 1_565 S
C1720 C1721 1.377 . S
C1721 H1705 0.930 . S
C1721 C1720 1.377 . S
C1721 C1722 1.379 . S
C1722 H1706 0.931 . S
C1722 C1716 1.383 . S
C1722 C1721 1.379 . S
H1723 C1717 0.959 . S
H1724 C1717 0.961 . S
H1725 C1717 0.960 . S
H1726 C1718 0.930 . S
H1727 C1719 0.929 . S
H1728 C1736 0.929 1_554 S
H1729 C1738 0.930 . S
H1730 C1740 0.930 1_655 S
H1731 C1743 0.929 1_655 S
H1732 C1746 0.930 . S
H1733 C1748 0.960 . S
H1734 C1748 0.960 . S
H1735 C1748 0.960 . S
C1736 H1728 0.929 1_556 S
C1736 C1737 1.377 . S
C1736 C1738 1.384 . S
C1737 C1736 1.377 . S
C1737 C1743 1.390 . S
C1738 H1729 0.930 . S
C1738 C1736 1.384 . S
C1738 C1739 1.372 . S
C1739 C1738 1.372 . S
C1739 C1740 1.400 . S
C1739 C1744 1.490 . S
C1740 H1730 0.930 1_455 S
C1740 C1739 1.400 . S
C1740 C1743 1.386 . S
H1741 C1757 0.913 1_655 S
H1742 C1758 0.931 . S
C1743 H1731 0.929 1_455 S
C1743 C1737 1.390 . S
C1743 C1740 1.386 . S
C1744 C1739 1.490 . S
C1744 C1746 1.395 . S
C1744 C1747 1.402 . S
H1745 C1751 0.930 1_655 S
C1746 H1732 0.930 . S
C1746 C1744 1.395 . S
C1746 C1749 1.403 . S
C1747 C1744 1.402 . S
C1747 C1748 1.524 1_455 S
C1747 C1751 1.400 . S
C1748 H1733 0.960 . S
C1748 H1734 0.960 . S
C1748 H1735 0.960 . S
C1748 C1747 1.524 1_655 S
C1749 C1746 1.403 . S
C1749 C1750 1.392 . S
C1749 C1753 1.495 . S
C1750 C1749 1.392 . S
C1750 C1751 1.385 . S
C1750 C1752 1.478 . S
C1751 H1745 0.930 1_455 S
C1751 C1747 1.400 . S
C1751 C1750 1.385 . S
C1752 C1750 1.478 . S
C1752 C1754 1.381 . S
C1752 C1758 1.383 . S
C1753 C1749 1.495 . S
C1753 H1759 0.959 . S
C1753 H1760 0.961 . S
C1753 H1761 0.960 . S
C1754 C1752 1.381 . S
C1754 C1755 1.394 . S
C1754 H1762 0.930 . S
C1755 C1754 1.394 . S
C1755 C1756 1.383 . S
C1755 H1763 0.929 . S
C1756 C1755 1.383 . S
C1756 C1757 1.377 . S
C1757 H1741 0.913 1_455 S
C1757 C1756 1.377 . S
C1757 C1758 1.379 . S
C1758 H1742 0.931 . S
C1758 C1752 1.383 . S
C1758 C1757 1.379 . S
H1759 C1753 0.959 . S
H1760 C1753 0.961 . S
H1761 C1753 0.960 . S
H1762 C1754 0.930 . S
H1763 C1755 0.929 . S
H1764 C1772 0.929 . S
H1765 C1774 0.930 . S
H1766 C1776 0.930 . S
H1767 C1779 0.929 . S
H1768 C1782 0.930 . S
H1769 C1784 0.960 . S
H1770 C1784 0.960 . S
H1771 C1784 0.960 . S
C1772 H1764 0.929 . S
C1772 C1773 1.377 . S
C1772 C1774 1.384 1_554 S
C1773 C1772 1.377 . S
C1773 C1779 1.390 . S
C1774 H1765 0.930 . S
C1774 C1772 1.384 1_556 S
C1774 C1775 1.372 . S
C1775 C1774 1.372 . S
C1775 C1776 1.400 1_556 S
C1775 C1780 1.490 . S
C1776 H1766 0.930 . S
C1776 C1775 1.400 1_554 S
C1776 C1779 1.386 . S
H1777 C1793 0.930 . S
H1778 C1794 0.931 . S
C1779 H1767 0.929 . S
C1779 C1773 1.390 . S
C1779 C1776 1.386 . S
C1780 C1775 1.490 . S
C1780 C1782 1.395 . S
C1780 C1783 1.403 . S
H1781 C1787 0.930 . S
C1782 H1768 0.930 . S
C1782 C1780 1.395 . S
C1782 C1785 1.403 . S
C1783 C1780 1.403 . S
C1783 C1784 1.524 . S
C1783 C1787 1.400 . S
C1784 H1769 0.960 . S
C1784 H1770 0.960 . S
C1784 H1771 0.960 . S
C1784 C1783 1.524 . S
C1785 C1782 1.403 . S
C1785 C1786 1.392 . S
C1785 C1789 1.495 . S
C1786 C1785 1.392 . S
C1786 C1787 1.385 . S
C1786 C1788 1.478 . S
C1787 H1781 0.930 . S
C1787 C1783 1.400 . S
C1787 C1786 1.385 . S
C1788 C1786 1.478 . S
C1788 C1790 1.381 . S
C1788 C1794 1.383 . S
C1789 C1785 1.495 . S
C1789 H1795 0.959 . S
C1789 H1796 0.961 . S
C1789 H1797 0.960 . S
C1790 C1788 1.381 . S
C1790 C1791 1.394 . S
C1790 H1798 0.930 . S
C1791 C1790 1.394 . S
C1791 C1792 1.383 . S
C1791 H1799 0.929 . S
C1792 C1791 1.383 . S
C1792 C1793 1.377 . S
C1793 H1777 0.930 . S
C1793 C1792 1.377 . S
C1793 C1794 1.379 . S
C1794 H1778 0.931 . S
C1794 C1788 1.383 . S
C1794 C1793 1.379 . S
H1795 C1789 0.959 . S
H1796 C1789 0.961 . S
H1797 C1789 0.960 . S
H1798 C1790 0.930 . S
H1799 C1791 0.929 . S
H1800 C1808 0.929 . S
H1801 C1810 0.930 . S
H1802 C1812 0.930 . S
H1803 C1815 0.929 . S
H1804 C1818 0.930 . S
H1805 C1820 0.960 . S
H1806 C1820 0.960 . S
H1807 C1820 0.960 . S
C1808 H1800 0.929 . S
C1808 C1809 1.377 . S
C1808 C1810 1.384 1_554 S
C1809 C1808 1.377 . S
C1809 C1815 1.390 1_454 S
C1810 H1801 0.930 . S
C1810 C1808 1.384 1_556 S
C1810 C1811 1.372 . S
C1811 C1810 1.372 . S
C1811 C1812 1.400 1_455 S
C1811 C1816 1.490 . S
C1812 H1802 0.930 . S
C1812 C1811 1.400 1_655 S
C1812 C1815 1.386 . S
H1813 C1829 0.930 . S
H1814 C1830 0.931 . S
C1815 H1803 0.929 . S
C1815 C1809 1.390 1_656 S
C1815 C1812 1.386 . S
C1816 C1811 1.490 . S
C1816 C1818 1.395 . S
C1816 C1819 1.403 . S
H1817 C1823 0.930 . S
C1818 H1804 0.930 . S
C1818 C1816 1.395 . S
C1818 C1821 1.403 . S
C1819 C1816 1.403 . S
C1819 C1820 1.524 . S
C1819 C1823 1.400 . S
C1820 H1805 0.960 . S
C1820 H1806 0.960 . S
C1820 H1807 0.960 . S
C1820 C1819 1.524 . S
C1821 C1818 1.403 . S
C1821 C1822 1.392 . S
C1821 C1825 1.489 . S
C1822 C1821 1.392 . S
C1822 C1823 1.385 . S
C1822 C1824 1.478 . S
C1823 H1817 0.930 . S
C1823 C1819 1.400 . S
C1823 C1822 1.385 . S
C1824 C1822 1.478 . S
C1824 C1826 1.381 . S
C1824 C1830 1.383 1_455 S
C1825 C1821 1.489 . S
C1825 H1831 0.958 1_455 S
C1825 H1832 0.950 1_455 S
C1825 H1833 0.980 . S
C1826 C1824 1.381 . S
C1826 C1827 1.394 . S
C1826 H1834 0.930 . S
C1827 C1826 1.394 . S
C1827 C1828 1.436 . S
C1827 H1835 0.929 . S
C1828 C1827 1.436 . S
C1828 C1829 1.296 1_455 S
C1829 H1813 0.930 . S
C1829 C1828 1.296 1_655 S
C1829 C1830 1.379 . S
C1830 H1814 0.931 . S
C1830 C1824 1.383 1_655 S
C1830 C1829 1.379 . S
H1831 C1825 0.958 1_655 S
H1832 C1825 0.950 1_655 S
H1833 C1825 0.980 . S
H1834 C1826 0.930 . S
H1835 C1827 0.929 . S
H1836 C1844 0.929 . S
H1837 C1846 0.930 . S
H1838 C1848 0.930 . S
H1839 C1851 0.929 . S
H1840 C1854 0.930 . S
H1841 C1856 0.960 . S
H1842 C1856 0.960 . S
H1843 C1856 0.960 . S
C1844 H1836 0.929 . S
C1844 C1845 1.377 . S
C1844 C1846 1.384 . S
C1845 C1844 1.377 . S
C1845 C1851 1.390 . S
C1846 H1837 0.930 . S
C1846 C1844 1.384 . S
C1846 C1847 1.372 . S
C1847 C1846 1.372 . S
C1847 C1848 1.400 . S
C1847 C1852 1.490 . S
C1848 H1838 0.930 . S
C1848 C1847 1.400 . S
C1848 C1851 1.386 . S
H1849 C1865 0.930 . S
H1850 C1866 0.931 . S
C1851 H1839 0.929 . S
C1851 C1845 1.390 . S
C1851 C1848 1.386 . S
C1852 C1847 1.490 . S
C1852 C1854 1.395 . S
C1852 C1855 1.403 . S
H1853 C1859 0.930 . S
C1854 H1840 0.930 . S
C1854 C1852 1.395 . S
C1854 C1857 1.403 . S
C1855 C1852 1.403 . S
C1855 C1856 1.524 . S
C1855 C1859 1.400 . S
C1856 H1841 0.960 . S
C1856 H1842 0.960 . S
C1856 H1843 0.960 . S
C1856 C1855 1.524 . S
C1857 C1854 1.403 . S
C1857 C1858 1.392 . S
C1857 C1861 1.495 . S
C1858 C1857 1.392 . S
C1858 C1859 1.385 . S
C1858 C1860 1.478 . S
C1859 H1853 0.930 . S
C1859 C1855 1.400 . S
C1859 C1858 1.385 . S
C1860 C1858 1.478 . S
C1860 C1862 1.381 . S
C1860 C1866 1.383 . S
C1861 C1857 1.495 . S
C1861 H1867 0.959 . S
C1861 H1868 0.961 . S
C1861 H1869 0.960 . S
C1862 C1860 1.381 . S
C1862 C1863 1.394 . S
C1862 H1870 0.930 . S
C1863 C1862 1.394 . S
C1863 C1864 1.383 . S
C1863 H1871 0.929 . S
C1864 C1863 1.383 . S
C1864 C1865 1.377 . S
C1865 H1849 0.930 . S
C1865 C1864 1.377 . S
C1865 C1866 1.379 . S
C1866 H1850 0.931 . S
C1866 C1860 1.383 . S
C1866 C1865 1.379 . S
H1867 C1861 0.959 . S
H1868 C1861 0.961 . S
H1869 C1861 0.960 . S
H1870 C1862 0.930 . S
H1871 C1863 0.929 . S
H1872 C1880 0.929 . S
H1873 C1882 0.930 . S
H1874 C1884 0.930 . S
H1875 C1887 0.929 . S
H1876 C1890 0.930 . S
H1877 C1892 0.960 . S
H1878 C1892 0.960 . S
H1879 C1892 0.960 . S
C1880 H1872 0.929 . S
C1880 C1881 1.377 1_545 S
C1880 C1882 1.384 1_554 S
C1881 C1880 1.377 1_565 S
C1881 C1887 1.390 . S
C1882 H1873 0.930 . S
C1882 C1880 1.384 1_556 S
C1882 C1883 1.372 1_545 S
C1883 C1882 1.372 1_565 S
C1883 C1884 1.400 . S
C1883 C1888 1.490 . S
C1884 H1874 0.930 . S
C1884 C1883 1.400 . S
C1884 C1887 1.386 1_556 S
H1885 C1901 0.930 . S
H1886 C1902 0.931 . S
C1887 H1875 0.929 . S
C1887 C1881 1.390 . S
C1887 C1884 1.386 1_554 S
C1888 C1883 1.490 . S
C1888 C1890 1.395 1_565 S
C1888 C1891 1.403 . S
H1889 C1895 0.930 . S
C1890 H1876 0.930 . S
C1890 C1888 1.395 1_545 S
C1890 C1893 1.403 . S
C1891 C1888 1.403 . S
C1891 C1892 1.524 . S
C1891 C1895 1.400 . S
C1892 H1877 0.960 . S
C1892 H1878 0.960 . S
C1892 H1879 0.960 . S
C1892 C1891 1.524 . S
C1893 C1890 1.403 . S
C1893 C1894 1.392 1_545 S
C1893 C1897 1.495 . S
C1894 C1893 1.392 1_565 S
C1894 C1895 1.414 . S
C1894 C1896 1.450 1_565 S
C1895 H1889 0.930 . S
C1895 C1891 1.400 . S
C1895 C1894 1.414 . S
C1896 C1894 1.450 1_545 S
C1896 C1898 1.392 . S
C1896 C1902 1.376 1_545 S
C1897 C1893 1.495 . S
C1897 H1903 0.959 . S
C1897 H1904 0.961 . S
C1897 H1905 0.960 . S
C1898 C1896 1.392 . S
C1898 C1899 1.394 . S
C1898 H1906 0.930 . S
C1899 C1898 1.394 . S
C1899 C1900 1.435 . S
C1899 H1907 0.929 . S
C1900 C1899 1.435 . S
C1900 C1901 1.293 1_545 S
C1901 H1885 0.930 . S
C1901 C1900 1.293 1_565 S
C1901 C1902 1.379 . S
C1902 H1886 0.931 . S
C1902 C1896 1.376 1_565 S
C1902 C1901 1.379 . S
H1903 C1897 0.959 . S
H1904 C1897 0.961 . S
H1905 C1897 0.960 . S
H1906 C1898 0.930 . S
H1907 C1899 0.929 . S
H1908 C1916 0.929 . S
H1909 C1918 0.930 . S
H1910 C1920 0.930 . S
H1911 C1923 0.929 . S
H1912 C1926 0.945 . S
H1913 C1928 0.960 . S
H1914 C1928 0.960 . S
H1915 C1928 0.960 . S
C1916 H1908 0.929 . S
C1916 C1917 1.377 1_565 S
C1916 C1918 1.384 . S
C1917 C1916 1.377 1_545 S
C1917 C1923 1.390 . S
C1918 H1909 0.930 . S
C1918 C1916 1.384 . S
C1918 C1919 1.372 1_565 S
C1919 C1918 1.372 1_545 S
C1919 C1920 1.400 . S
C1919 C1924 1.490 . S
C1920 H1910 0.930 . S
C1920 C1919 1.400 . S
C1920 C1923 1.386 . S
H1921 C1937 0.930 . S
H1922 C1938 0.931 . S
C1923 H1911 0.929 . S
C1923 C1917 1.390 . S
C1923 C1920 1.386 . S
C1924 C1919 1.490 . S
C1924 C1926 1.384 1_545 S
C1924 C1927 1.403 . S
H1925 C1931 0.930 . S
C1926 H1912 0.945 . S
C1926 C1924 1.384 1_565 S
C1926 C1929 1.400 . S
C1927 C1924 1.403 . S
C1927 C1928 1.524 . S
C1927 C1931 1.400 . S
C1928 H1913 0.960 . S
C1928 H1914 0.960 . S
C1928 H1915 0.960 . S
C1928 C1927 1.524 . S
C1929 C1926 1.400 . S
C1929 C1930 1.392 1_565 S
C1929 C1933 1.495 . S
C1930 C1929 1.392 1_545 S
C1930 C1931 1.385 . S
C1930 C1932 1.460 . S
C1931 H1925 0.930 . S
C1931 C1927 1.400 . S
C1931 C1930 1.385 . S
C1932 C1930 1.460 . S
C1932 C1934 1.332 1_545 S
C1932 C1938 1.457 . S
C1933 C1929 1.495 . S
C1933 H1939 0.959 . S
C1933 H1940 0.945 1_565 S
C1933 H1941 0.960 . S
C1934 C1932 1.332 1_565 S
C1934 C1935 1.394 . S
C1934 H1942 0.930 . S
C1935 C1934 1.394 . S
C1935 C1936 1.466 . S
C1935 H1943 0.929 . S
C1936 C1935 1.466 . S
C1936 C1937 1.322 1_565 S
C1937 H1921 0.930 . S
C1937 C1936 1.322 1_545 S
C1937 C1938 1.379 . S
C1938 H1922 0.931 . S
C1938 C1932 1.457 . S
C1938 C1937 1.379 . S
H1939 C1933 0.959 . S
H1940 C1933 0.945 1_545 S
H1941 C1933 0.960 . S
H1942 C1934 0.930 . S
H1943 C1935 0.929 . S
H1944 C1952 0.931 1_455 S
H1945 C1954 0.930 1_455 S
H1946 C1956 0.930 . S
H1947 C1959 0.929 . S
H1948 C1962 0.930 . S
H1949 C1964 0.960 . S
H1950 C1964 0.960 . S
H1951 C1964 0.960 . S
C1952 H1944 0.931 1_655 S
C1952 C1953 1.377 . S
C1952 C1954 1.384 . S
C1953 C1952 1.377 . S
C1953 C1959 1.390 . S
C1954 H1945 0.930 1_655 S
C1954 C1952 1.384 . S
C1954 C1955 1.372 . S
C1955 C1954 1.372 . S
C1955 C1956 1.400 . S
C1955 C1960 1.490 . S
C1956 H1946 0.930 . S
C1956 C1955 1.400 . S
C1956 C1959 1.386 . S
H1957 C1973 0.930 . S
H1958 C1974 0.931 . S
C1959 H1947 0.929 . S
C1959 C1953 1.390 . S
C1959 C1956 1.386 . S
C1960 C1955 1.490 . S
C1960 C1962 1.395 . S
C1960 C1963 1.403 1_655 S
H1961 C1967 0.930 . S
C1962 H1948 0.930 . S
C1962 C1960 1.395 . S
C1962 C1965 1.403 . S
C1963 C1960 1.403 1_455 S
C1963 C1964 1.524 . S
C1963 C1967 1.400 . S
C1964 H1949 0.960 . S
C1964 H1950 0.960 . S
C1964 H1951 0.960 . S
C1964 C1963 1.524 . S
C1965 C1962 1.403 . S
C1965 C1966 1.392 . S
C1965 C1969 1.495 . S
C1966 C1965 1.392 . S
C1966 C1967 1.385 1_655 S
C1966 C1968 1.478 . S
C1967 H1961 0.930 . S
C1967 C1963 1.400 . S
C1967 C1966 1.385 1_455 S
C1968 C1966 1.478 . S
C1968 C1970 1.381 1_655 S
C1968 C1974 1.383 . S
C1969 C1965 1.495 . S
C1969 H1975 0.959 . S
C1969 H1976 0.961 . S
C1969 H1977 0.960 . S
C1970 C1968 1.381 1_455 S
C1970 C1971 1.394 . S
C1970 H1978 0.930 . S
C1971 C1970 1.394 . S
C1971 C1972 1.383 1_455 S
C1971 H1979 0.929 . S
C1972 C1971 1.383 1_655 S
C1972 C1973 1.377 . S
C1973 H1957 0.930 . S
C1973 C1972 1.377 . S
C1973 C1974 1.379 . S
C1974 H1958 0.931 . S
C1974 C1968 1.383 . S
C1974 C1973 1.379 . S
H1975 C1969 0.959 . S
H1976 C1969 0.961 . S
H1977 C1969 0.960 . S
H1978 C1970 0.930 . S
H1979 C1971 0.929 . S
H1980 C1988 0.929 . S
H1981 C1990 0.930 . S
H1982 C1992 0.930 . S
H1983 C1995 0.929 . S
H1984 C1998 0.930 . S
H1985 C2000 0.960 . S
H1986 C2000 0.960 . S
H1987 C2000 0.960 . S
C1988 H1980 0.929 . S
C1988 C1989 1.377 . S
C1988 C1990 1.384 . S
C1989 C1988 1.377 . S
C1989 C1995 1.390 . S
C1990 H1981 0.930 . S
C1990 C1988 1.384 . S
C1990 C1991 1.372 . S
C1991 C1990 1.372 . S
C1991 C1992 1.400 . S
C1991 C1996 1.490 . S
C1992 H1982 0.930 . S
C1992 C1991 1.400 . S
C1992 C1995 1.386 . S
H1993 C2009 0.930 . S
H1994 C2010 0.931 . S
C1995 H1983 0.929 . S
C1995 C1989 1.390 . S
C1995 C1992 1.386 . S
C1996 C1991 1.490 . S
C1996 C1998 1.395 . S
C1996 C1999 1.403 . S
H1997 C2003 0.930 . S
C1998 H1984 0.930 . S
C1998 C1996 1.395 . S
C1998 C2001 1.403 . S
C1999 C1996 1.403 . S
C1999 C2000 1.524 . S
C1999 C2003 1.400 . S
C2000 H1985 0.960 . S
C2000 H1986 0.960 . S
C2000 H1987 0.960 . S
C2000 C1999 1.524 . S
C2001 C1998 1.403 . S
C2001 C2002 1.392 . S
C2001 C2005 1.495 . S
C2002 C2001 1.392 . S
C2002 C2003 1.385 . S
C2002 C2004 1.478 . S
C2003 H1997 0.930 . S
C2003 C1999 1.400 . S
C2003 C2002 1.385 . S
C2004 C2002 1.478 . S
C2004 C2006 1.381 . S
C2004 C2010 1.383 . S
C2005 C2001 1.495 . S
C2005 H2011 0.959 . S
C2005 H2012 0.961 . S
C2005 H2013 0.960 . S
C2006 C2004 1.381 . S
C2006 C2007 1.394 . S
C2006 H2014 0.930 . S
C2007 C2006 1.394 . S
C2007 C2008 1.383 . S
C2007 H2015 0.929 . S
C2008 C2007 1.383 . S
C2008 C2009 1.377 . S
C2009 H1993 0.930 . S
C2009 C2008 1.377 . S
C2009 C2010 1.379 . S
C2010 H1994 0.931 . S
C2010 C2004 1.383 . S
C2010 C2009 1.379 . S
H2011 C2005 0.959 . S
H2012 C2005 0.961 . S
H2013 C2005 0.960 . S
H2014 C2006 0.930 . S
H2015 C2007 0.929 . S
H2016 C2024 0.929 . S
H2017 C2026 0.930 . S
H2018 C2028 0.930 . S
H2019 C2031 0.929 . S
H2020 C2034 0.930 . S
H2021 C2036 0.960 . S
H2022 C2036 0.960 . S
H2023 C2036 0.960 . S
C2024 H2016 0.929 . S
C2024 C2025 1.377 . S
C2024 C2026 1.384 . S
C2025 C2024 1.377 . S
C2025 C2031 1.390 . S
C2026 H2017 0.930 . S
C2026 C2024 1.384 . S
C2026 C2027 1.372 . S
C2027 C2026 1.372 . S
C2027 C2028 1.400 . S
C2027 C2032 1.490 . S
C2028 H2018 0.930 . S
C2028 C2027 1.400 . S
C2028 C2031 1.386 . S
H2029 C2045 0.930 . S
H2030 C2046 0.931 . S
C2031 H2019 0.929 . S
C2031 C2025 1.390 . S
C2031 C2028 1.386 . S
C2032 C2027 1.490 . S
C2032 C2034 1.395 . S
C2032 C2035 1.403 . S
H2033 C2039 0.930 . S
C2034 H2020 0.930 . S
C2034 C2032 1.395 . S
C2034 C2037 1.403 . S
C2035 C2032 1.403 . S
C2035 C2036 1.524 . S
C2035 C2039 1.400 . S
C2036 H2021 0.960 . S
C2036 H2022 0.960 . S
C2036 H2023 0.960 . S
C2036 C2035 1.524 . S
C2037 C2034 1.403 . S
C2037 C2038 1.392 . S
C2037 C2041 1.495 . S
C2038 C2037 1.392 . S
C2038 C2039 1.385 . S
C2038 C2040 1.478 . S
C2039 H2033 0.930 . S
C2039 C2035 1.400 . S
C2039 C2038 1.385 . S
C2040 C2038 1.478 . S
C2040 C2042 1.381 . S
C2040 C2046 1.383 . S
C2041 C2037 1.495 . S
C2041 H2047 0.959 . S
C2041 H2048 0.961 . S
C2041 H2049 0.960 . S
C2042 C2040 1.381 . S
C2042 C2043 1.394 . S
C2042 H2050 0.930 . S
C2043 C2042 1.394 . S
C2043 C2044 1.383 . S
C2043 H2051 0.929 . S
C2044 C2043 1.383 . S
C2044 C2045 1.377 . S
C2045 H2029 0.930 . S
C2045 C2044 1.377 . S
C2045 C2046 1.379 . S
C2046 H2030 0.931 . S
C2046 C2040 1.383 . S
C2046 C2045 1.379 . S
H2047 C2041 0.959 . S
H2048 C2041 0.961 . S
H2049 C2041 0.960 . S
H2050 C2042 0.930 . S
H2051 C2043 0.929 . S
H2052 C2060 0.929 . S
H2053 C2062 0.930 . S
H2054 C2064 0.930 . S
H2055 C2067 0.929 . S
H2056 C2070 0.930 . S
H2057 C2072 0.960 . S
H2058 C2072 0.960 . S
H2059 C2072 0.960 . S
C2060 H2052 0.929 . S
C2060 C2061 1.377 . S
C2060 C2062 1.384 . S
C2061 C2060 1.377 . S
C2061 C2067 1.390 . S
C2062 H2053 0.930 . S
C2062 C2060 1.384 . S
C2062 C2063 1.372 . S
C2063 C2062 1.372 . S
C2063 C2064 1.400 . S
C2063 C2068 1.490 . S
C2064 H2054 0.930 . S
C2064 C2063 1.400 . S
C2064 C2067 1.386 . S
H2065 C2081 0.930 . S
H2066 C2082 0.931 . S
C2067 H2055 0.929 . S
C2067 C2061 1.390 . S
C2067 C2064 1.386 . S
C2068 C2063 1.490 . S
C2068 C2070 1.395 . S
C2068 C2071 1.403 . S
H2069 C2075 0.930 . S
C2070 H2056 0.930 . S
C2070 C2068 1.395 . S
C2070 C2073 1.403 . S
C2071 C2068 1.403 . S
C2071 C2072 1.524 . S
C2071 C2075 1.400 . S
C2072 H2057 0.960 . S
C2072 H2058 0.960 . S
C2072 H2059 0.960 . S
C2072 C2071 1.524 . S
C2073 C2070 1.403 . S
C2073 C2074 1.392 . S
C2073 C2077 1.495 . S
C2074 C2073 1.392 . S
C2074 C2075 1.385 . S
C2074 C2076 1.478 . S
C2075 H2069 0.930 . S
C2075 C2071 1.400 . S
C2075 C2074 1.385 . S
C2076 C2074 1.478 . S
C2076 C2078 1.381 . S
C2076 C2082 1.383 . S
C2077 C2073 1.495 . S
C2077 H2083 0.959 . S
C2077 H2084 0.961 . S
C2077 H2085 0.960 . S
C2078 C2076 1.381 . S
C2078 C2079 1.394 . S
C2078 H2086 0.930 . S
C2079 C2078 1.394 . S
C2079 C2080 1.383 . S
C2079 H2087 0.929 . S
C2080 C2079 1.383 . S
C2080 C2081 1.377 . S
C2081 H2065 0.930 . S
C2081 C2080 1.377 . S
C2081 C2082 1.379 . S
C2082 H2066 0.931 . S
C2082 C2076 1.383 . S
C2082 C2081 1.379 . S
H2083 C2077 0.959 . S
H2084 C2077 0.961 . S
H2085 C2077 0.960 . S
H2086 C2078 0.930 . S
H2087 C2079 0.929 . S
H2088 C2096 0.929 . S
H2089 C2098 0.930 . S
H2090 C2100 0.930 . S
H2091 C2103 0.929 . S
H2092 C2106 0.930 . S
H2093 C2108 0.960 . S
H2094 C2108 0.960 . S
H2095 C2108 0.960 . S
C2096 H2088 0.929 . S
C2096 C2097 1.377 . S
C2096 C2098 1.384 . S
C2097 C2096 1.377 . S
C2097 C2103 1.390 . S
C2098 H2089 0.930 . S
C2098 C2096 1.384 . S
C2098 C2099 1.372 . S
C2099 C2098 1.372 . S
C2099 C2100 1.400 . S
C2099 C2104 1.490 . S
C2100 H2090 0.930 . S
C2100 C2099 1.400 . S
C2100 C2103 1.386 . S
H2101 C2117 0.930 . S
H2102 C2118 0.931 . S
C2103 H2091 0.929 . S
C2103 C2097 1.390 . S
C2103 C2100 1.386 . S
C2104 C2099 1.490 . S
C2104 C2106 1.395 . S
C2104 C2107 1.403 . S
H2105 C2111 0.930 . S
C2106 H2092 0.930 . S
C2106 C2104 1.395 . S
C2106 C2109 1.403 . S
C2107 C2104 1.403 . S
C2107 C2108 1.524 . S
C2107 C2111 1.400 . S
C2108 H2093 0.960 . S
C2108 H2094 0.960 . S
C2108 H2095 0.960 . S
C2108 C2107 1.524 . S
C2109 C2106 1.403 . S
C2109 C2110 1.392 . S
C2109 C2113 1.495 . S
C2110 C2109 1.392 . S
C2110 C2111 1.385 . S
C2110 C2112 1.478 . S
C2111 H2105 0.930 . S
C2111 C2107 1.400 . S
C2111 C2110 1.385 . S
C2112 C2110 1.478 . S
C2112 C2114 1.381 . S
C2112 C2118 1.383 . S
C2113 C2109 1.495 . S
C2113 H2119 0.959 . S
C2113 H2120 0.961 . S
C2113 H2121 0.960 . S
C2114 C2112 1.381 . S
C2114 C2115 1.394 . S
C2114 H2122 0.930 . S
C2115 C2114 1.394 . S
C2115 C2116 1.383 . S
C2115 H2123 0.929 . S
C2116 C2115 1.383 . S
C2116 C2117 1.377 . S
C2117 H2101 0.930 . S
C2117 C2116 1.377 . S
C2117 C2118 1.379 . S
C2118 H2102 0.931 . S
C2118 C2112 1.383 . S
C2118 C2117 1.379 . S
H2119 C2113 0.959 . S
H2120 C2113 0.961 . S
H2121 C2113 0.960 . S
H2122 C2114 0.930 . S
H2123 C2115 0.929 . S
H2124 C2132 0.929 . S
H2125 C2134 0.930 . S
H2126 C2136 0.930 . S
H2127 C2139 0.929 . S
H2128 C2142 0.930 . S
H2129 C2144 0.960 . S
H2130 C2144 0.960 . S
H2131 C2144 0.960 . S
C2132 H2124 0.929 . S
C2132 C2133 1.377 . S
C2132 C2134 1.384 . S
C2133 C2132 1.377 . S
C2133 C2139 1.390 . S
C2134 H2125 0.930 . S
C2134 C2132 1.384 . S
C2134 C2135 1.372 . S
C2135 C2134 1.372 . S
C2135 C2136 1.400 . S
C2135 C2140 1.490 . S
C2136 H2126 0.930 . S
C2136 C2135 1.400 . S
C2136 C2139 1.386 . S
H2137 C2153 0.930 . S
H2138 C2154 0.931 . S
C2139 H2127 0.929 . S
C2139 C2133 1.390 . S
C2139 C2136 1.386 . S
C2140 C2135 1.490 . S
C2140 C2142 1.395 . S
C2140 C2143 1.403 . S
H2141 C2147 0.930 . S
C2142 H2128 0.930 . S
C2142 C2140 1.395 . S
C2142 C2145 1.403 . S
C2143 C2140 1.403 . S
C2143 C2144 1.524 . S
C2143 C2147 1.400 . S
C2144 H2129 0.960 . S
C2144 H2130 0.960 . S
C2144 H2131 0.960 . S
C2144 C2143 1.524 . S
C2145 C2142 1.403 . S
C2145 C2146 1.392 . S
C2145 C2149 1.495 . S
C2146 C2145 1.392 . S
C2146 C2147 1.385 . S
C2146 C2148 1.478 . S
C2147 H2141 0.930 . S
C2147 C2143 1.400 . S
C2147 C2146 1.385 . S
C2148 C2146 1.478 . S
C2148 C2150 1.381 . S
C2148 C2154 1.383 . S
C2149 C2145 1.495 . S
C2149 H2155 0.959 . S
C2149 H2156 0.961 . S
C2149 H2157 0.960 . S
C2150 C2148 1.381 . S
C2150 C2151 1.394 . S
C2150 H2158 0.930 . S
C2151 C2150 1.394 . S
C2151 C2152 1.383 . S
C2151 H2159 0.929 . S
C2152 C2151 1.383 . S
C2152 C2153 1.377 . S
C2153 H2137 0.930 . S
C2153 C2152 1.377 . S
C2153 C2154 1.379 . S
C2154 H2138 0.931 . S
C2154 C2148 1.383 . S
C2154 C2153 1.379 . S
H2155 C2149 0.959 . S
H2156 C2149 0.961 . S
H2157 C2149 0.960 . S
H2158 C2150 0.930 . S
H2159 C2151 0.929 . S
H2160 C2168 0.929 . S
H2161 C2170 0.930 . S
H2162 C2172 0.930 . S
H2163 C2175 0.929 . S
H2164 C2178 0.930 . S
H2165 C2180 0.960 . S
H2166 C2180 0.960 . S
H2167 C2180 0.960 . S
C2168 H2160 0.929 . S
C2168 C2169 1.377 . S
C2168 C2170 1.384 . S
C2169 C2168 1.377 . S
C2169 C2175 1.390 . S
C2170 H2161 0.930 . S
C2170 C2168 1.384 . S
C2170 C2171 1.372 . S
C2171 C2170 1.372 . S
C2171 C2172 1.400 . S
C2171 C2176 1.490 . S
C2172 H2162 0.930 . S
C2172 C2171 1.400 . S
C2172 C2175 1.386 . S
H2173 C2189 0.930 . S
H2174 C2190 0.931 . S
C2175 H2163 0.929 . S
C2175 C2169 1.390 . S
C2175 C2172 1.386 . S
C2176 C2171 1.490 . S
C2176 C2178 1.395 . S
C2176 C2179 1.403 . S
H2177 C2183 0.930 . S
C2178 H2164 0.930 . S
C2178 C2176 1.395 . S
C2178 C2181 1.403 . S
C2179 C2176 1.403 . S
C2179 C2180 1.524 . S
C2179 C2183 1.400 . S
C2180 H2165 0.960 . S
C2180 H2166 0.960 . S
C2180 H2167 0.960 . S
C2180 C2179 1.524 . S
C2181 C2178 1.403 . S
C2181 C2182 1.392 . S
C2181 C2185 1.495 . S
C2182 C2181 1.392 . S
C2182 C2183 1.385 . S
C2182 C2184 1.478 . S
C2183 H2177 0.930 . S
C2183 C2179 1.400 . S
C2183 C2182 1.385 . S
C2184 C2182 1.478 . S
C2184 C2186 1.381 . S
C2184 C2190 1.383 . S
C2185 C2181 1.495 . S
C2185 H2191 0.959 . S
C2185 H2192 0.961 . S
C2185 H2193 0.960 . S
C2186 C2184 1.381 . S
C2186 C2187 1.394 . S
C2186 H2194 0.930 . S
C2187 C2186 1.394 . S
C2187 C2188 1.383 . S
C2187 H2195 0.929 . S
C2188 C2187 1.383 . S
C2188 C2189 1.377 . S
C2189 H2173 0.930 . S
C2189 C2188 1.377 . S
C2189 C2190 1.379 . S
C2190 H2174 0.931 . S
C2190 C2184 1.383 . S
C2190 C2189 1.379 . S
H2191 C2185 0.959 . S
H2192 C2185 0.961 . S
H2193 C2185 0.960 . S
H2194 C2186 0.930 . S
H2195 C2187 0.929 . S
H2196 C2204 0.929 . S
H2197 C2206 0.930 . S
H2198 C2208 0.930 . S
H2199 C2211 0.929 . S
H2200 C2214 0.930 . S
H2201 C2216 0.960 . S
H2202 C2216 0.960 . S
H2203 C2216 0.960 . S
C2204 H2196 0.929 . S
C2204 C2205 1.377 . S
C2204 C2206 1.384 . S
C2205 C2204 1.377 . S
C2205 C2211 1.390 . S
C2206 H2197 0.930 . S
C2206 C2204 1.384 . S
C2206 C2207 1.372 . S
C2207 C2206 1.372 . S
C2207 C2208 1.400 . S
C2207 C2212 1.490 . S
C2208 H2198 0.930 . S
C2208 C2207 1.400 . S
C2208 C2211 1.386 . S
H2209 C2225 0.930 . S
H2210 C2226 0.931 . S
C2211 H2199 0.929 . S
C2211 C2205 1.390 . S
C2211 C2208 1.386 . S
C2212 C2207 1.490 . S
C2212 C2214 1.395 . S
C2212 C2215 1.403 . S
H2213 C2219 0.930 . S
C2214 H2200 0.930 . S
C2214 C2212 1.395 . S
C2214 C2217 1.403 . S
C2215 C2212 1.403 . S
C2215 C2216 1.524 . S
C2215 C2219 1.400 . S
C2216 H2201 0.960 . S
C2216 H2202 0.960 . S
C2216 H2203 0.960 . S
C2216 C2215 1.524 . S
C2217 C2214 1.403 . S
C2217 C2218 1.392 . S
C2217 C2221 1.495 . S
C2218 C2217 1.392 . S
C2218 C2219 1.385 . S
C2218 C2220 1.478 . S
C2219 H2213 0.930 . S
C2219 C2215 1.400 . S
C2219 C2218 1.385 . S
C2220 C2218 1.478 . S
C2220 C2222 1.381 . S
C2220 C2226 1.383 . S
C2221 C2217 1.495 . S
C2221 H2227 0.959 . S
C2221 H2228 0.961 . S
C2221 H2229 0.960 . S
C2222 C2220 1.381 . S
C2222 C2223 1.394 . S
C2222 H2230 0.930 . S
C2223 C2222 1.394 . S
C2223 C2224 1.383 . S
C2223 H2231 0.929 . S
C2224 C2223 1.383 . S
C2224 C2225 1.377 . S
C2225 H2209 0.930 . S
C2225 C2224 1.377 . S
C2225 C2226 1.379 . S
C2226 H2210 0.931 . S
C2226 C2220 1.383 . S
C2226 C2225 1.379 . S
H2227 C2221 0.959 . S
H2228 C2221 0.961 . S
H2229 C2221 0.960 . S
H2230 C2222 0.930 . S
H2231 C2223 0.929 . S
H2232 C2240 0.929 . S
H2233 C2242 0.930 . S
H2234 C2244 0.930 . S
H2235 C2247 0.929 . S
H2236 C2250 0.930 . S
H2237 C2252 0.960 . S
H2238 C2252 0.960 . S
H2239 C2252 0.960 . S
C2240 H2232 0.929 . S
C2240 C2241 1.377 . S
C2240 C2242 1.384 . S
C2241 C2240 1.377 . S
C2241 C2247 1.390 . S
C2242 H2233 0.930 . S
C2242 C2240 1.384 . S
C2242 C2243 1.372 . S
C2243 C2242 1.372 . S
C2243 C2244 1.400 . S
C2243 C2248 1.490 . S
C2244 H2234 0.930 . S
C2244 C2243 1.400 . S
C2244 C2247 1.386 . S
H2245 C2261 0.930 . S
H2246 C2262 0.931 . S
C2247 H2235 0.929 . S
C2247 C2241 1.390 . S
C2247 C2244 1.386 . S
C2248 C2243 1.490 . S
C2248 C2250 1.395 . S
C2248 C2251 1.403 . S
H2249 C2255 0.930 . S
C2250 H2236 0.930 . S
C2250 C2248 1.395 . S
C2250 C2253 1.403 . S
C2251 C2248 1.403 . S
C2251 C2252 1.524 . S
C2251 C2255 1.400 . S
C2252 H2237 0.960 . S
C2252 H2238 0.960 . S
C2252 H2239 0.960 . S
C2252 C2251 1.524 . S
C2253 C2250 1.403 . S
C2253 C2254 1.392 . S
C2253 C2257 1.495 . S
C2254 C2253 1.392 . S
C2254 C2255 1.385 . S
C2254 C2256 1.478 . S
C2255 H2249 0.930 . S
C2255 C2251 1.400 . S
C2255 C2254 1.385 . S
C2256 C2254 1.478 . S
C2256 C2258 1.381 . S
C2256 C2262 1.383 . S
C2257 C2253 1.495 . S
C2257 H2263 0.959 . S
C2257 H2264 0.961 . S
C2257 H2265 0.960 . S
C2258 C2256 1.381 . S
C2258 C2259 1.394 . S
C2258 H2266 0.930 . S
C2259 C2258 1.394 . S
C2259 C2260 1.383 . S
C2259 H2267 0.929 . S
C2260 C2259 1.383 . S
C2260 C2261 1.377 . S
C2261 H2245 0.930 . S
C2261 C2260 1.377 . S
C2261 C2262 1.379 . S
C2262 H2246 0.931 . S
C2262 C2256 1.383 . S
C2262 C2261 1.379 . S
H2263 C2257 0.959 . S
H2264 C2257 0.961 . S
H2265 C2257 0.960 . S
H2266 C2258 0.930 . S
H2267 C2259 0.929 . S
H2268 C2276 0.929 . S
H2269 C2278 0.930 . S
H2270 C2280 0.930 . S
H2271 C2283 0.929 . S
H2272 C2286 0.930 . S
H2273 C2288 0.960 . S
H2274 C2288 0.960 . S
H2275 C2288 0.960 . S
C2276 H2268 0.929 . S
C2276 C2277 1.377 . S
C2276 C2278 1.384 . S
C2277 C2276 1.377 . S
C2277 C2283 1.390 . S
C2278 H2269 0.930 . S
C2278 C2276 1.384 . S
C2278 C2279 1.372 . S
C2279 C2278 1.372 . S
C2279 C2280 1.400 . S
C2279 C2284 1.490 . S
C2280 H2270 0.930 . S
C2280 C2279 1.400 . S
C2280 C2283 1.386 . S
H2281 C2297 0.930 . S
H2282 C2298 0.931 . S
C2283 H2271 0.929 . S
C2283 C2277 1.390 . S
C2283 C2280 1.386 . S
C2284 C2279 1.490 . S
C2284 C2286 1.395 . S
C2284 C2287 1.403 . S
H2285 C2291 0.930 . S
C2286 H2272 0.930 . S
C2286 C2284 1.395 . S
C2286 C2289 1.403 . S
C2287 C2284 1.403 . S
C2287 C2288 1.524 . S
C2287 C2291 1.400 . S
C2288 H2273 0.960 . S
C2288 H2274 0.960 . S
C2288 H2275 0.960 . S
C2288 C2287 1.524 . S
C2289 C2286 1.403 . S
C2289 C2290 1.392 . S
C2289 C2293 1.495 . S
C2290 C2289 1.392 . S
C2290 C2291 1.385 . S
C2290 C2292 1.478 . S
C2291 H2285 0.930 . S
C2291 C2287 1.400 . S
C2291 C2290 1.385 . S
C2292 C2290 1.478 . S
C2292 C2294 1.381 . S
C2292 C2298 1.383 . S
C2293 C2289 1.495 . S
C2293 H2299 0.959 . S
C2293 H2300 0.961 . S
C2293 H2301 0.960 . S
C2294 C2292 1.381 . S
C2294 C2295 1.394 . S
C2294 H2302 0.930 . S
C2295 C2294 1.394 . S
C2295 C2296 1.383 . S
C2295 H2303 0.929 . S
C2296 C2295 1.383 . S
C2296 C2297 1.377 . S
C2297 H2281 0.930 . S
C2297 C2296 1.377 . S
C2297 C2298 1.379 . S
C2298 H2282 0.931 . S
C2298 C2292 1.383 . S
C2298 C2297 1.379 . S
H2299 C2293 0.959 . S
H2300 C2293 0.961 . S
H2301 C2293 0.960 . S
H2302 C2294 0.930 . S
H2303 C2295 0.929 . S
H2304 C2312 0.929 . S
H2305 C2314 0.930 . S
H2306 C2316 0.930 . S
H2307 C2319 0.929 . S
H2308 C2322 0.930 . S
H2309 C2324 0.960 . S
H2310 C2324 0.960 . S
H2311 C2324 0.960 . S
C2312 H2304 0.929 . S
C2312 C2313 1.377 . S
C2312 C2314 1.384 . S
C2313 C2312 1.377 . S
C2313 C2319 1.390 . S
C2314 H2305 0.930 . S
C2314 C2312 1.384 . S
C2314 C2315 1.372 . S
C2315 C2314 1.372 . S
C2315 C2316 1.400 . S
C2315 C2320 1.490 . S
C2316 H2306 0.930 . S
C2316 C2315 1.400 . S
C2316 C2319 1.386 . S
H2317 C2333 0.930 . S
H2318 C2334 0.931 . S
C2319 H2307 0.929 . S
C2319 C2313 1.390 . S
C2319 C2316 1.386 . S
C2320 C2315 1.490 . S
C2320 C2322 1.395 . S
C2320 C2323 1.403 . S
H2321 C2327 0.930 . S
C2322 H2308 0.930 . S
C2322 C2320 1.395 . S
C2322 C2325 1.403 . S
C2323 C2320 1.403 . S
C2323 C2324 1.524 . S
C2323 C2327 1.400 . S
C2324 H2309 0.960 . S
C2324 H2310 0.960 . S
C2324 H2311 0.960 . S
C2324 C2323 1.524 . S
C2325 C2322 1.403 . S
C2325 C2326 1.392 . S
C2325 C2329 1.495 . S
C2326 C2325 1.392 . S
C2326 C2327 1.385 . S
C2326 C2328 1.478 . S
C2327 H2321 0.930 . S
C2327 C2323 1.400 . S
C2327 C2326 1.385 . S
C2328 C2326 1.478 . S
C2328 C2330 1.381 . S
C2328 C2334 1.383 . S
C2329 C2325 1.495 . S
C2329 H2335 0.959 . S
C2329 H2336 0.961 . S
C2329 H2337 0.960 . S
C2330 C2328 1.381 . S
C2330 C2331 1.394 . S
C2330 H2338 0.930 . S
C2331 C2330 1.394 . S
C2331 C2332 1.383 . S
C2331 H2339 0.929 . S
C2332 C2331 1.383 . S
C2332 C2333 1.377 . S
C2333 H2317 0.930 . S
C2333 C2332 1.377 . S
C2333 C2334 1.379 . S
C2334 H2318 0.931 . S
C2334 C2328 1.383 . S
C2334 C2333 1.379 . S
H2335 C2329 0.959 . S
H2336 C2329 0.961 . S
H2337 C2329 0.960 . S
H2338 C2330 0.930 . S
H2339 C2331 0.929 . S
H2340 C2348 0.929 . S
H2341 C2350 0.930 . S
H2342 C2352 0.930 . S
H2343 C2355 0.929 . S
H2344 C2358 0.930 . S
H2345 C2360 0.960 . S
H2346 C2360 0.960 . S
H2347 C2360 0.960 . S
C2348 H2340 0.929 . S
C2348 C2349 1.377 . S
C2348 C2350 1.384 . S
C2349 C2348 1.377 . S
C2349 C2355 1.390 . S
C2350 H2341 0.930 . S
C2350 C2348 1.384 . S
C2350 C2351 1.372 . S
C2351 C2350 1.372 . S
C2351 C2352 1.400 . S
C2351 C2356 1.490 . S
C2352 H2342 0.930 . S
C2352 C2351 1.400 . S
C2352 C2355 1.386 . S
H2353 C2369 0.930 . S
H2354 C2370 0.931 . S
C2355 H2343 0.929 . S
C2355 C2349 1.390 . S
C2355 C2352 1.386 . S
C2356 C2351 1.490 . S
C2356 C2358 1.395 . S
C2356 C2359 1.403 . S
H2357 C2363 0.930 . S
C2358 H2344 0.930 . S
C2358 C2356 1.395 . S
C2358 C2361 1.403 . S
C2359 C2356 1.403 . S
C2359 C2360 1.524 . S
C2359 C2363 1.400 . S
C2360 H2345 0.960 . S
C2360 H2346 0.960 . S
C2360 H2347 0.960 . S
C2360 C2359 1.524 . S
C2361 C2358 1.403 . S
C2361 C2362 1.392 . S
C2361 C2365 1.495 . S
C2362 C2361 1.392 . S
C2362 C2363 1.385 . S
C2362 C2364 1.478 . S
C2363 H2357 0.930 . S
C2363 C2359 1.400 . S
C2363 C2362 1.385 . S
C2364 C2362 1.478 . S
C2364 C2366 1.381 . S
C2364 C2370 1.383 . S
C2365 C2361 1.495 . S
C2365 H2371 0.959 . S
C2365 H2372 0.961 . S
C2365 H2373 0.960 . S
C2366 C2364 1.381 . S
C2366 C2367 1.394 . S
C2366 H2374 0.930 . S
C2367 C2366 1.394 . S
C2367 C2368 1.383 . S
C2367 H2375 0.929 . S
C2368 C2367 1.383 . S
C2368 C2369 1.377 . S
C2369 H2353 0.930 . S
C2369 C2368 1.377 . S
C2369 C2370 1.379 . S
C2370 H2354 0.931 . S
C2370 C2364 1.383 . S
C2370 C2369 1.379 . S
H2371 C2365 0.959 . S
H2372 C2365 0.961 . S
H2373 C2365 0.960 . S
H2374 C2366 0.930 . S
H2375 C2367 0.929 . S
H2376 C2384 0.929 . S
H2377 C2386 0.930 . S
H2378 C2388 0.930 . S
H2379 C2391 0.929 . S
H2380 C2394 0.930 . S
H2381 C2396 0.960 . S
H2382 C2396 0.960 . S
H2383 C2396 0.960 . S
C2384 H2376 0.929 . S
C2384 C2385 1.377 . S
C2384 C2386 1.384 . S
C2385 C2384 1.377 . S
C2385 C2391 1.390 . S
C2386 H2377 0.930 . S
C2386 C2384 1.384 . S
C2386 C2387 1.372 . S
C2387 C2386 1.372 . S
C2387 C2388 1.400 . S
C2387 C2392 1.490 . S
C2388 H2378 0.930 . S
C2388 C2387 1.400 . S
C2388 C2391 1.386 . S
H2389 C2405 0.930 . S
H2390 C2406 0.931 . S
C2391 H2379 0.929 . S
C2391 C2385 1.390 . S
C2391 C2388 1.386 . S
C2392 C2387 1.490 . S
C2392 C2394 1.395 . S
C2392 C2395 1.403 . S
H2393 C2399 0.930 . S
C2394 H2380 0.930 . S
C2394 C2392 1.395 . S
C2394 C2397 1.403 . S
C2395 C2392 1.403 . S
C2395 C2396 1.524 . S
C2395 C2399 1.400 . S
C2396 H2381 0.960 . S
C2396 H2382 0.960 . S
C2396 H2383 0.960 . S
C2396 C2395 1.524 . S
C2397 C2394 1.403 . S
C2397 C2398 1.392 . S
C2397 C2401 1.495 . S
C2398 C2397 1.392 . S
C2398 C2399 1.385 . S
C2398 C2400 1.478 . S
C2399 H2393 0.930 . S
C2399 C2395 1.400 . S
C2399 C2398 1.385 . S
C2400 C2398 1.478 . S
C2400 C2402 1.381 . S
C2400 C2406 1.383 . S
C2401 C2397 1.495 . S
C2401 H2407 0.959 . S
C2401 H2408 0.961 . S
C2401 H2409 0.960 . S
C2402 C2400 1.381 . S
C2402 C2403 1.394 . S
C2402 H2410 0.930 . S
C2403 C2402 1.394 . S
C2403 C2404 1.383 . S
C2403 H2411 0.929 . S
C2404 C2403 1.383 . S
C2404 C2405 1.377 . S
C2405 H2389 0.930 . S
C2405 C2404 1.377 . S
C2405 C2406 1.379 . S
C2406 H2390 0.931 . S
C2406 C2400 1.383 . S
C2406 C2405 1.379 . S
H2407 C2401 0.959 . S
H2408 C2401 0.961 . S
H2409 C2401 0.960 . S
H2410 C2402 0.930 . S
H2411 C2403 0.929 . S
H2412 C2420 0.929 . S
H2413 C2422 0.930 . S
H2414 C2424 0.930 . S
H2415 C2427 0.929 . S
H2416 C2430 0.930 . S
H2417 C2432 0.960 . S
H2418 C2432 0.960 . S
H2419 C2432 0.960 . S
C2420 H2412 0.929 . S
C2420 C2421 1.377 . S
C2420 C2422 1.384 . S
C2421 C2420 1.377 . S
C2421 C2427 1.390 . S
C2422 H2413 0.930 . S
C2422 C2420 1.384 . S
C2422 C2423 1.372 . S
C2423 C2422 1.372 . S
C2423 C2424 1.400 . S
C2423 C2428 1.490 . S
C2424 H2414 0.930 . S
C2424 C2423 1.400 . S
C2424 C2427 1.386 . S
H2425 C2441 0.930 . S
H2426 C2442 0.931 . S
C2427 H2415 0.929 . S
C2427 C2421 1.390 . S
C2427 C2424 1.386 . S
C2428 C2423 1.490 . S
C2428 C2430 1.395 . S
C2428 C2431 1.403 . S
H2429 C2435 0.930 . S
C2430 H2416 0.930 . S
C2430 C2428 1.395 . S
C2430 C2433 1.403 . S
C2431 C2428 1.403 . S
C2431 C2432 1.524 . S
C2431 C2435 1.400 . S
C2432 H2417 0.960 . S
C2432 H2418 0.960 . S
C2432 H2419 0.960 . S
C2432 C2431 1.524 . S
C2433 C2430 1.403 . S
C2433 C2434 1.392 . S
C2433 C2437 1.495 . S
C2434 C2433 1.392 . S
C2434 C2435 1.385 . S
C2434 C2436 1.478 . S
C2435 H2429 0.930 . S
C2435 C2431 1.400 . S
C2435 C2434 1.385 . S
C2436 C2434 1.478 . S
C2436 C2438 1.381 . S
C2436 C2442 1.383 . S
C2437 C2433 1.495 . S
C2437 H2443 0.959 . S
C2437 H2444 0.961 . S
C2437 H2445 0.960 . S
C2438 C2436 1.381 . S
C2438 C2439 1.394 . S
C2438 H2446 0.930 . S
C2439 C2438 1.394 . S
C2439 C2440 1.383 . S
C2439 H2447 0.929 . S
C2440 C2439 1.383 . S
C2440 C2441 1.377 . S
C2441 H2425 0.930 . S
C2441 C2440 1.377 . S
C2441 C2442 1.379 . S
C2442 H2426 0.931 . S
C2442 C2436 1.383 . S
C2442 C2441 1.379 . S
H2443 C2437 0.959 . S
H2444 C2437 0.961 . S
H2445 C2437 0.960 . S
H2446 C2438 0.930 . S
H2447 C2439 0.929 . S
H2448 C2456 0.929 . S
H2449 C2458 0.930 . S
H2450 C2460 0.930 . S
H2451 C2463 0.929 . S
H2452 C2466 0.930 . S
H2453 C2468 0.960 . S
H2454 C2468 0.960 . S
H2455 C2468 0.960 . S
C2456 H2448 0.929 . S
C2456 C2457 1.377 . S
C2456 C2458 1.384 . S
C2457 C2456 1.377 . S
C2457 C2463 1.390 . S
C2458 H2449 0.930 . S
C2458 C2456 1.384 . S
C2458 C2459 1.372 . S
C2459 C2458 1.372 . S
C2459 C2460 1.400 . S
C2459 C2464 1.490 . S
C2460 H2450 0.930 . S
C2460 C2459 1.400 . S
C2460 C2463 1.386 . S
H2461 C2477 0.930 . S
H2462 C2478 0.931 . S
C2463 H2451 0.929 . S
C2463 C2457 1.390 . S
C2463 C2460 1.386 . S
C2464 C2459 1.490 . S
C2464 C2466 1.395 . S
C2464 C2467 1.403 . S
H2465 C2471 0.930 . S
C2466 H2452 0.930 . S
C2466 C2464 1.395 . S
C2466 C2469 1.403 . S
C2467 C2464 1.403 . S
C2467 C2468 1.524 . S
C2467 C2471 1.400 . S
C2468 H2453 0.960 . S
C2468 H2454 0.960 . S
C2468 H2455 0.960 . S
C2468 C2467 1.524 . S
C2469 C2466 1.403 . S
C2469 C2470 1.392 . S
C2469 C2473 1.495 . S
C2470 C2469 1.392 . S
C2470 C2471 1.385 . S
C2470 C2472 1.478 . S
C2471 H2465 0.930 . S
C2471 C2467 1.400 . S
C2471 C2470 1.385 . S
C2472 C2470 1.478 . S
C2472 C2474 1.381 . S
C2472 C2478 1.383 . S
C2473 C2469 1.495 . S
C2473 H2479 0.959 . S
C2473 H2480 0.961 . S
C2473 H2481 0.960 . S
C2474 C2472 1.381 . S
C2474 C2475 1.394 . S
C2474 H2482 0.930 . S
C2475 C2474 1.394 . S
C2475 C2476 1.383 . S
C2475 H2483 0.929 . S
C2476 C2475 1.383 . S
C2476 C2477 1.377 . S
C2477 H2461 0.930 . S
C2477 C2476 1.377 . S
C2477 C2478 1.379 . S
C2478 H2462 0.931 . S
C2478 C2472 1.383 . S
C2478 C2477 1.379 . S
H2479 C2473 0.959 . S
H2480 C2473 0.961 . S
H2481 C2473 0.960 . S
H2482 C2474 0.930 . S
H2483 C2475 0.929 . S
H2484 C2492 0.929 . S
H2485 C2494 0.930 . S
H2486 C2496 0.930 . S
H2487 C2499 0.929 . S
H2488 C2502 0.930 . S
H2489 C2504 0.960 . S
H2490 C2504 0.960 . S
H2491 C2504 0.960 . S
C2492 H2484 0.929 . S
C2492 C2493 1.377 . S
C2492 C2494 1.384 . S
C2493 C2492 1.377 . S
C2493 C2499 1.390 . S
C2494 H2485 0.930 . S
C2494 C2492 1.384 . S
C2494 C2495 1.372 . S
C2495 C2494 1.372 . S
C2495 C2496 1.400 . S
C2495 C2500 1.490 . S
C2496 H2486 0.930 . S
C2496 C2495 1.400 . S
C2496 C2499 1.386 . S
H2497 C2513 0.930 . S
H2498 C2514 0.931 . S
C2499 H2487 0.929 . S
C2499 C2493 1.390 . S
C2499 C2496 1.386 . S
C2500 C2495 1.490 . S
C2500 C2502 1.395 . S
C2500 C2503 1.403 . S
H2501 C2507 0.930 . S
C2502 H2488 0.930 . S
C2502 C2500 1.395 . S
C2502 C2505 1.403 . S
C2503 C2500 1.403 . S
C2503 C2504 1.524 . S
C2503 C2507 1.400 . S
C2504 H2489 0.960 . S
C2504 H2490 0.960 . S
C2504 H2491 0.960 . S
C2504 C2503 1.524 . S
C2505 C2502 1.403 . S
C2505 C2506 1.392 . S
C2505 C2509 1.495 . S
C2506 C2505 1.392 . S
C2506 C2507 1.385 . S
C2506 C2508 1.478 . S
C2507 H2501 0.930 . S
C2507 C2503 1.400 . S
C2507 C2506 1.385 . S
C2508 C2506 1.478 . S
C2508 C2510 1.381 . S
C2508 C2514 1.383 . S
C2509 C2505 1.495 . S
C2509 H2515 0.959 . S
C2509 H2516 0.961 . S
C2509 H2517 0.960 . S
C2510 C2508 1.381 . S
C2510 C2511 1.394 . S
C2510 H2518 0.930 . S
C2511 C2510 1.394 . S
C2511 C2512 1.383 . S
C2511 H2519 0.929 . S
C2512 C2511 1.383 . S
C2512 C2513 1.377 . S
C2513 H2497 0.930 . S
C2513 C2512 1.377 . S
C2513 C2514 1.379 . S
C2514 H2498 0.931 . S
C2514 C2508 1.383 . S
C2514 C2513 1.379 . S
H2515 C2509 0.959 . S
H2516 C2509 0.961 . S
H2517 C2509 0.960 . S
H2518 C2510 0.930 . S
H2519 C2511 0.929 . S
H2520 C2528 0.929 . S
H2521 C2530 0.930 . S
H2522 C2532 0.930 . S
H2523 C2535 0.929 . S
H2524 C2538 0.930 . S
H2525 C2540 0.960 . S
H2526 C2540 0.960 . S
H2527 C2540 0.960 . S
C2528 H2520 0.929 . S
C2528 C2529 1.377 . S
C2528 C2530 1.384 . S
C2529 C2528 1.377 . S
C2529 C2535 1.390 . S
C2530 H2521 0.930 . S
C2530 C2528 1.384 . S
C2530 C2531 1.372 . S
C2531 C2530 1.372 . S
C2531 C2532 1.400 . S
C2531 C2536 1.490 . S
C2532 H2522 0.930 . S
C2532 C2531 1.400 . S
C2532 C2535 1.386 . S
H2533 C2549 0.930 . S
H2534 C2550 0.931 . S
C2535 H2523 0.929 . S
C2535 C2529 1.390 . S
C2535 C2532 1.386 . S
C2536 C2531 1.490 . S
C2536 C2538 1.395 . S
C2536 C2539 1.403 . S
H2537 C2543 0.930 . S
C2538 H2524 0.930 . S
C2538 C2536 1.395 . S
C2538 C2541 1.403 . S
C2539 C2536 1.403 . S
C2539 C2540 1.524 . S
C2539 C2543 1.400 . S
C2540 H2525 0.960 . S
C2540 H2526 0.960 . S
C2540 H2527 0.960 . S
C2540 C2539 1.524 . S
C2541 C2538 1.403 . S
C2541 C2542 1.392 . S
C2541 C2545 1.495 . S
C2542 C2541 1.392 . S
C2542 C2543 1.385 . S
C2542 C2544 1.478 . S
C2543 H2537 0.930 . S
C2543 C2539 1.400 . S
C2543 C2542 1.385 . S
C2544 C2542 1.478 . S
C2544 C2546 1.381 . S
C2544 C2550 1.383 . S
C2545 C2541 1.495 . S
C2545 H2551 0.959 . S
C2545 H2552 0.961 . S
C2545 H2553 0.960 . S
C2546 C2544 1.381 . S
C2546 C2547 1.394 . S
C2546 H2554 0.930 . S
C2547 C2546 1.394 . S
C2547 C2548 1.383 . S
C2547 H2555 0.929 . S
C2548 C2547 1.383 . S
C2548 C2549 1.377 . S
C2549 H2533 0.930 . S
C2549 C2548 1.377 . S
C2549 C2550 1.379 . S
C2550 H2534 0.931 . S
C2550 C2544 1.383 . S
C2550 C2549 1.379 . S
H2551 C2545 0.959 . S
H2552 C2545 0.961 . S
H2553 C2545 0.960 . S
H2554 C2546 0.930 . S
H2555 C2547 0.929 . S
H2556 C2564 0.929 . S
H2557 C2566 0.930 . S
H2558 C2568 0.930 . S
H2559 C2571 0.929 . S
H2560 C2574 0.930 . S
H2561 C2576 0.960 . S
H2562 C2576 0.960 . S
H2563 C2576 0.960 . S
C2564 H2556 0.929 . S
C2564 C2565 1.377 . S
C2564 C2566 1.384 . S
C2565 C2564 1.377 . S
C2565 C2571 1.390 . S
C2566 H2557 0.930 . S
C2566 C2564 1.384 . S
C2566 C2567 1.372 . S
C2567 C2566 1.372 . S
C2567 C2568 1.400 . S
C2567 C2572 1.490 . S
C2568 H2558 0.930 . S
C2568 C2567 1.400 . S
C2568 C2571 1.386 . S
H2569 C2585 0.930 . S
H2570 C2586 0.931 . S
C2571 H2559 0.929 . S
C2571 C2565 1.390 . S
C2571 C2568 1.386 . S
C2572 C2567 1.490 . S
C2572 C2574 1.395 . S
C2572 C2575 1.403 . S
H2573 C2579 0.930 . S
C2574 H2560 0.930 . S
C2574 C2572 1.395 . S
C2574 C2577 1.403 . S
C2575 C2572 1.403 . S
C2575 C2576 1.524 . S
C2575 C2579 1.400 . S
C2576 H2561 0.960 . S
C2576 H2562 0.960 . S
C2576 H2563 0.960 . S
C2576 C2575 1.524 . S
C2577 C2574 1.403 . S
C2577 C2578 1.392 . S
C2577 C2581 1.495 . S
C2578 C2577 1.392 . S
C2578 C2579 1.385 . S
C2578 C2580 1.478 . S
C2579 H2573 0.930 . S
C2579 C2575 1.400 . S
C2579 C2578 1.385 . S
C2580 C2578 1.478 . S
C2580 C2582 1.381 . S
C2580 C2586 1.383 . S
C2581 C2577 1.495 . S
C2581 H2587 0.959 . S
C2581 H2588 0.961 . S
C2581 H2589 0.960 . S
C2582 C2580 1.381 . S
C2582 C2583 1.394 . S
C2582 H2590 0.930 . S
C2583 C2582 1.394 . S
C2583 C2584 1.383 . S
C2583 H2591 0.929 . S
C2584 C2583 1.383 . S
C2584 C2585 1.377 . S
C2585 H2569 0.930 . S
C2585 C2584 1.377 . S
C2585 C2586 1.379 . S
C2586 H2570 0.931 . S
C2586 C2580 1.383 . S
C2586 C2585 1.379 . S
H2587 C2581 0.959 . S
H2588 C2581 0.961 . S
H2589 C2581 0.960 . S
H2590 C2582 0.930 . S
H2591 C2583 0.929 . S
H2592 C2600 0.929 . S
H2593 C2602 0.930 . S
H2594 C2604 0.930 . S
H2595 C2607 0.929 . S
H2596 C2610 0.930 . S
H2597 C2612 0.960 . S
H2598 C2612 0.960 . S
H2599 C2612 0.960 . S
C2600 H2592 0.929 . S
C2600 C2601 1.377 . S
C2600 C2602 1.384 . S
C2601 C2600 1.377 . S
C2601 C2607 1.390 . S
C2602 H2593 0.930 . S
C2602 C2600 1.384 . S
C2602 C2603 1.372 . S
C2603 C2602 1.372 . S
C2603 C2604 1.400 . S
C2603 C2608 1.490 . S
C2604 H2594 0.930 . S
C2604 C2603 1.400 . S
C2604 C2607 1.386 . S
H2605 C2621 0.930 . S
H2606 C2622 0.931 . S
C2607 H2595 0.929 . S
C2607 C2601 1.390 . S
C2607 C2604 1.386 . S
C2608 C2603 1.490 . S
C2608 C2610 1.395 . S
C2608 C2611 1.403 . S
H2609 C2615 0.930 . S
C2610 H2596 0.930 . S
C2610 C2608 1.395 . S
C2610 C2613 1.403 . S
C2611 C2608 1.403 . S
C2611 C2612 1.524 . S
C2611 C2615 1.400 . S
C2612 H2597 0.960 . S
C2612 H2598 0.960 . S
C2612 H2599 0.960 . S
C2612 C2611 1.524 . S
C2613 C2610 1.403 . S
C2613 C2614 1.392 . S
C2613 C2617 1.495 . S
C2614 C2613 1.392 . S
C2614 C2615 1.385 . S
C2614 C2616 1.478 . S
C2615 H2609 0.930 . S
C2615 C2611 1.400 . S
C2615 C2614 1.385 . S
C2616 C2614 1.478 . S
C2616 C2618 1.381 . S
C2616 C2622 1.383 . S
C2617 C2613 1.495 . S
C2617 H2623 0.959 . S
C2617 H2624 0.961 . S
C2617 H2625 0.960 . S
C2618 C2616 1.381 . S
C2618 C2619 1.394 . S
C2618 H2626 0.930 . S
C2619 C2618 1.394 . S
C2619 C2620 1.383 . S
C2619 H2627 0.929 . S
C2620 C2619 1.383 . S
C2620 C2621 1.377 . S
C2621 H2605 0.930 . S
C2621 C2620 1.377 . S
C2621 C2622 1.379 . S
C2622 H2606 0.931 . S
C2622 C2616 1.383 . S
C2622 C2621 1.379 . S
H2623 C2617 0.959 . S
H2624 C2617 0.961 . S
H2625 C2617 0.960 . S
H2626 C2618 0.930 . S
H2627 C2619 0.929 . S
H2628 C2636 0.929 . S
H2629 C2638 0.930 . S
H2630 C2640 0.930 . S
H2631 C2643 0.929 . S
H2632 C2646 0.930 . S
H2633 C2648 0.960 . S
H2634 C2648 0.960 . S
H2635 C2648 0.960 . S
C2636 H2628 0.929 . S
C2636 C2637 1.377 . S
C2636 C2638 1.384 . S
C2637 C2636 1.377 . S
C2637 C2643 1.390 . S
C2638 H2629 0.930 . S
C2638 C2636 1.384 . S
C2638 C2639 1.372 . S
C2639 C2638 1.372 . S
C2639 C2640 1.400 . S
C2639 C2644 1.490 . S
C2640 H2630 0.930 . S
C2640 C2639 1.400 . S
C2640 C2643 1.386 . S
H2641 C2657 0.930 . S
H2642 C2658 0.931 . S
C2643 H2631 0.929 . S
C2643 C2637 1.390 . S
C2643 C2640 1.386 . S
C2644 C2639 1.490 . S
C2644 C2646 1.395 . S
C2644 C2647 1.403 . S
H2645 C2651 0.930 . S
C2646 H2632 0.930 . S
C2646 C2644 1.395 . S
C2646 C2649 1.403 . S
C2647 C2644 1.403 . S
C2647 C2648 1.524 . S
C2647 C2651 1.400 . S
C2648 H2633 0.960 . S
C2648 H2634 0.960 . S
C2648 H2635 0.960 . S
C2648 C2647 1.524 . S
C2649 C2646 1.403 . S
C2649 C2650 1.392 . S
C2649 C2653 1.495 . S
C2650 C2649 1.392 . S
C2650 C2651 1.385 . S
C2650 C2652 1.478 . S
C2651 H2645 0.930 . S
C2651 C2647 1.400 . S
C2651 C2650 1.385 . S
C2652 C2650 1.478 . S
C2652 C2654 1.381 . S
C2652 C2658 1.383 . S
C2653 C2649 1.495 . S
C2653 H2659 0.959 . S
C2653 H2660 0.961 . S
C2653 H2661 0.960 . S
C2654 C2652 1.381 . S
C2654 C2655 1.394 . S
C2654 H2662 0.930 . S
C2655 C2654 1.394 . S
C2655 C2656 1.383 . S
C2655 H2663 0.929 . S
C2656 C2655 1.383 . S
C2656 C2657 1.377 . S
C2657 H2641 0.930 . S
C2657 C2656 1.377 . S
C2657 C2658 1.379 . S
C2658 H2642 0.931 . S
C2658 C2652 1.383 . S
C2658 C2657 1.379 . S
H2659 C2653 0.959 . S
H2660 C2653 0.961 . S
H2661 C2653 0.960 . S
H2662 C2654 0.930 . S
H2663 C2655 0.929 . S
H2664 C2672 0.929 . S
H2665 C2674 0.930 . S
H2666 C2676 0.930 . S
H2667 C2679 0.929 . S
H2668 C2682 0.930 . S
H2669 C2684 0.960 . S
H2670 C2684 0.960 . S
H2671 C2684 0.960 . S
C2672 H2664 0.929 . S
C2672 C2673 1.377 . S
C2672 C2674 1.384 . S
C2673 C2672 1.377 . S
C2673 C2679 1.390 . S
C2674 H2665 0.930 . S
C2674 C2672 1.384 . S
C2674 C2675 1.372 . S
C2675 C2674 1.372 . S
C2675 C2676 1.400 . S
C2675 C2680 1.490 . S
C2676 H2666 0.930 . S
C2676 C2675 1.400 . S
C2676 C2679 1.386 . S
H2677 C2693 0.930 . S
H2678 C2694 0.931 . S
C2679 H2667 0.929 . S
C2679 C2673 1.390 . S
C2679 C2676 1.386 . S
C2680 C2675 1.490 . S
C2680 C2682 1.395 . S
C2680 C2683 1.403 . S
H2681 C2687 0.930 . S
C2682 H2668 0.930 . S
C2682 C2680 1.395 . S
C2682 C2685 1.403 . S
C2683 C2680 1.403 . S
C2683 C2684 1.524 . S
C2683 C2687 1.400 . S
C2684 H2669 0.960 . S
C2684 H2670 0.960 . S
C2684 H2671 0.960 . S
C2684 C2683 1.524 . S
C2685 C2682 1.403 . S
C2685 C2686 1.392 . S
C2685 C2689 1.495 . S
C2686 C2685 1.392 . S
C2686 C2687 1.385 . S
C2686 C2688 1.478 . S
C2687 H2681 0.930 . S
C2687 C2683 1.400 . S
C2687 C2686 1.385 . S
C2688 C2686 1.478 . S
C2688 C2690 1.381 . S
C2688 C2694 1.383 . S
C2689 C2685 1.495 . S
C2689 H2695 0.959 . S
C2689 H2696 0.961 . S
C2689 H2697 0.960 . S
C2690 C2688 1.381 . S
C2690 C2691 1.394 . S
C2690 H2698 0.930 . S
C2691 C2690 1.394 . S
C2691 C2692 1.383 . S
C2691 H2699 0.929 . S
C2692 C2691 1.383 . S
C2692 C2693 1.377 . S
C2693 H2677 0.930 . S
C2693 C2692 1.377 . S
C2693 C2694 1.379 . S
C2694 H2678 0.931 . S
C2694 C2688 1.383 . S
C2694 C2693 1.379 . S
H2695 C2689 0.959 . S
H2696 C2689 0.961 . S
H2697 C2689 0.960 . S
H2698 C2690 0.930 . S
H2699 C2691 0.929 . S
H2700 C2708 0.929 . S
H2701 C2710 0.930 . S
H2702 C2712 0.930 . S
H2703 C2715 0.929 . S
H2704 C2718 0.930 . S
H2705 C2720 0.960 . S
H2706 C2720 0.960 . S
H2707 C2720 0.960 . S
C2708 H2700 0.929 . S
C2708 C2709 1.377 . S
C2708 C2710 1.384 . S
C2709 C2708 1.377 . S
C2709 C2715 1.390 . S
C2710 H2701 0.930 . S
C2710 C2708 1.384 . S
C2710 C2711 1.372 . S
C2711 C2710 1.372 . S
C2711 C2712 1.400 . S
C2711 C2716 1.490 . S
C2712 H2702 0.930 . S
C2712 C2711 1.400 . S
C2712 C2715 1.386 . S
H2713 C2729 0.930 . S
H2714 C2730 0.931 . S
C2715 H2703 0.929 . S
C2715 C2709 1.390 . S
C2715 C2712 1.386 . S
C2716 C2711 1.490 . S
C2716 C2718 1.395 . S
C2716 C2719 1.403 . S
H2717 C2723 0.930 . S
C2718 H2704 0.930 . S
C2718 C2716 1.395 . S
C2718 C2721 1.403 . S
C2719 C2716 1.403 . S
C2719 C2720 1.524 . S
C2719 C2723 1.400 . S
C2720 H2705 0.960 . S
C2720 H2706 0.960 . S
C2720 H2707 0.960 . S
C2720 C2719 1.524 . S
C2721 C2718 1.403 . S
C2721 C2722 1.392 . S
C2721 C2725 1.495 . S
C2722 C2721 1.392 . S
C2722 C2723 1.385 . S
C2722 C2724 1.478 . S
C2723 H2717 0.930 . S
C2723 C2719 1.400 . S
C2723 C2722 1.385 . S
C2724 C2722 1.478 . S
C2724 C2726 1.381 . S
C2724 C2730 1.383 . S
C2725 C2721 1.495 . S
C2725 H2731 0.959 . S
C2725 H2732 0.961 . S
C2725 H2733 0.960 . S
C2726 C2724 1.381 . S
C2726 C2727 1.394 . S
C2726 H2734 0.930 . S
C2727 C2726 1.394 . S
C2727 C2728 1.383 . S
C2727 H2735 0.929 . S
C2728 C2727 1.383 . S
C2728 C2729 1.377 . S
C2729 H2713 0.930 . S
C2729 C2728 1.377 . S
C2729 C2730 1.379 . S
C2730 H2714 0.931 . S
C2730 C2724 1.383 . S
C2730 C2729 1.379 . S
H2731 C2725 0.959 . S
H2732 C2725 0.961 . S
H2733 C2725 0.960 . S
H2734 C2726 0.930 . S
H2735 C2727 0.929 . S
H2736 C2744 0.929 . S
H2737 C2746 0.930 . S
H2738 C2748 0.930 . S
H2739 C2751 0.929 . S
H2740 C2754 0.930 . S
H2741 C2756 0.960 . S
H2742 C2756 0.960 . S
H2743 C2756 0.960 . S
C2744 H2736 0.929 . S
C2744 C2745 1.377 . S
C2744 C2746 1.384 . S
C2745 C2744 1.377 . S
C2745 C2751 1.390 . S
C2746 H2737 0.930 . S
C2746 C2744 1.384 . S
C2746 C2747 1.372 . S
C2747 C2746 1.372 . S
C2747 C2748 1.400 . S
C2747 C2752 1.490 . S
C2748 H2738 0.930 . S
C2748 C2747 1.400 . S
C2748 C2751 1.386 . S
H2749 C2765 0.930 . S
H2750 C2766 0.931 . S
C2751 H2739 0.929 . S
C2751 C2745 1.390 . S
C2751 C2748 1.386 . S
C2752 C2747 1.490 . S
C2752 C2754 1.395 . S
C2752 C2755 1.403 . S
H2753 C2759 0.930 . S
C2754 H2740 0.930 . S
C2754 C2752 1.395 . S
C2754 C2757 1.403 . S
C2755 C2752 1.403 . S
C2755 C2756 1.524 . S
C2755 C2759 1.400 . S
C2756 H2741 0.960 . S
C2756 H2742 0.960 . S
C2756 H2743 0.960 . S
C2756 C2755 1.524 . S
C2757 C2754 1.403 . S
C2757 C2758 1.392 . S
C2757 C2761 1.495 . S
C2758 C2757 1.392 . S
C2758 C2759 1.385 . S
C2758 C2760 1.478 . S
C2759 H2753 0.930 . S
C2759 C2755 1.400 . S
C2759 C2758 1.385 . S
C2760 C2758 1.478 . S
C2760 C2762 1.381 . S
C2760 C2766 1.383 . S
C2761 C2757 1.495 . S
C2761 H2767 0.959 . S
C2761 H2768 0.961 . S
C2761 H2769 0.960 . S
C2762 C2760 1.381 . S
C2762 C2763 1.394 . S
C2762 H2770 0.930 . S
C2763 C2762 1.394 . S
C2763 C2764 1.383 . S
C2763 H2771 0.929 . S
C2764 C2763 1.383 . S
C2764 C2765 1.377 . S
C2765 H2749 0.930 . S
C2765 C2764 1.377 . S
C2765 C2766 1.379 . S
C2766 H2750 0.931 . S
C2766 C2760 1.383 . S
C2766 C2765 1.379 . S
H2767 C2761 0.959 . S
H2768 C2761 0.961 . S
H2769 C2761 0.960 . S
H2770 C2762 0.930 . S
H2771 C2763 0.929 . S
H2772 C2780 0.929 . S
H2773 C2782 0.930 . S
H2774 C2784 0.930 . S
H2775 C2787 0.929 . S
H2776 C2790 0.930 . S
H2777 C2792 0.960 . S
H2778 C2792 0.960 . S
H2779 C2792 0.960 . S
C2780 H2772 0.929 . S
C2780 C2781 1.377 . S
C2780 C2782 1.384 . S
C2781 C2780 1.377 . S
C2781 C2787 1.390 . S
C2782 H2773 0.930 . S
C2782 C2780 1.384 . S
C2782 C2783 1.372 . S
C2783 C2782 1.372 . S
C2783 C2784 1.400 . S
C2783 C2788 1.490 . S
C2784 H2774 0.930 . S
C2784 C2783 1.400 . S
C2784 C2787 1.386 . S
H2785 C2801 0.930 . S
H2786 C2802 0.931 . S
C2787 H2775 0.929 . S
C2787 C2781 1.390 . S
C2787 C2784 1.386 . S
C2788 C2783 1.490 . S
C2788 C2790 1.395 . S
C2788 C2791 1.403 . S
H2789 C2795 0.930 . S
C2790 H2776 0.930 . S
C2790 C2788 1.395 . S
C2790 C2793 1.403 . S
C2791 C2788 1.403 . S
C2791 C2792 1.524 . S
C2791 C2795 1.400 . S
C2792 H2777 0.960 . S
C2792 H2778 0.960 . S
C2792 H2779 0.960 . S
C2792 C2791 1.524 . S
C2793 C2790 1.403 . S
C2793 C2794 1.392 . S
C2793 C2797 1.495 . S
C2794 C2793 1.392 . S
C2794 C2795 1.385 . S
C2794 C2796 1.478 . S
C2795 H2789 0.930 . S
C2795 C2791 1.400 . S
C2795 C2794 1.385 . S
C2796 C2794 1.478 . S
C2796 C2798 1.381 . S
C2796 C2802 1.383 . S
C2797 C2793 1.495 . S
C2797 H2803 0.959 . S
C2797 H2804 0.961 . S
C2797 H2805 0.960 . S
C2798 C2796 1.381 . S
C2798 C2799 1.394 . S
C2798 H2806 0.930 . S
C2799 C2798 1.394 . S
C2799 C2800 1.383 . S
C2799 H2807 0.929 . S
C2800 C2799 1.383 . S
C2800 C2801 1.377 . S
C2801 H2785 0.930 . S
C2801 C2800 1.377 . S
C2801 C2802 1.379 . S
C2802 H2786 0.931 . S
C2802 C2796 1.383 . S
C2802 C2801 1.379 . S
H2803 C2797 0.959 . S
H2804 C2797 0.961 . S
H2805 C2797 0.960 . S
H2806 C2798 0.930 . S
H2807 C2799 0.929 . S
H2808 C2816 0.929 . S
H2809 C2818 0.930 . S
H2810 C2820 0.930 . S
H2811 C2823 0.929 . S
H2812 C2826 0.930 . S
H2813 C2828 0.960 . S
H2814 C2828 0.960 . S
H2815 C2828 0.960 . S
C2816 H2808 0.929 . S
C2816 C2817 1.377 . S
C2816 C2818 1.384 . S
C2817 C2816 1.377 . S
C2817 C2823 1.390 . S
C2818 H2809 0.930 . S
C2818 C2816 1.384 . S
C2818 C2819 1.372 . S
C2819 C2818 1.372 . S
C2819 C2820 1.400 . S
C2819 C2824 1.490 . S
C2820 H2810 0.930 . S
C2820 C2819 1.400 . S
C2820 C2823 1.386 . S
H2821 C2837 0.930 . S
H2822 C2838 0.931 . S
C2823 H2811 0.929 . S
C2823 C2817 1.390 . S
C2823 C2820 1.386 . S
C2824 C2819 1.490 . S
C2824 C2826 1.395 . S
C2824 C2827 1.403 . S
H2825 C2831 0.930 . S
C2826 H2812 0.930 . S
C2826 C2824 1.395 . S
C2826 C2829 1.403 . S
C2827 C2824 1.403 . S
C2827 C2828 1.524 . S
C2827 C2831 1.400 . S
C2828 H2813 0.960 . S
C2828 H2814 0.960 . S
C2828 H2815 0.960 . S
C2828 C2827 1.524 . S
C2829 C2826 1.403 . S
C2829 C2830 1.392 . S
C2829 C2833 1.495 . S
C2830 C2829 1.392 . S
C2830 C2831 1.385 . S
C2830 C2832 1.478 . S
C2831 H2825 0.930 . S
C2831 C2827 1.400 . S
C2831 C2830 1.385 . S
C2832 C2830 1.478 . S
C2832 C2834 1.381 . S
C2832 C2838 1.383 . S
C2833 C2829 1.495 . S
C2833 H2839 0.959 . S
C2833 H2840 0.961 . S
C2833 H2841 0.960 . S
C2834 C2832 1.381 . S
C2834 C2835 1.394 . S
C2834 H2842 0.930 . S
C2835 C2834 1.394 . S
C2835 C2836 1.383 . S
C2835 H2843 0.929 . S
C2836 C2835 1.383 . S
C2836 C2837 1.377 . S
C2837 H2821 0.930 . S
C2837 C2836 1.377 . S
C2837 C2838 1.379 . S
C2838 H2822 0.931 . S
C2838 C2832 1.383 . S
C2838 C2837 1.379 . S
H2839 C2833 0.959 . S
H2840 C2833 0.961 . S
H2841 C2833 0.960 . S
H2842 C2834 0.930 . S
H2843 C2835 0.929 . S
H2844 C2852 0.929 . S
H2845 C2854 0.930 . S
H2846 C2856 0.930 . S
H2847 C2859 0.929 . S
H2848 C2862 0.930 . S
H2849 C2864 0.960 . S
H2850 C2864 0.960 . S
H2851 C2864 0.960 . S
C2852 H2844 0.929 . S
C2852 C2853 1.377 . S
C2852 C2854 1.384 . S
C2853 C2852 1.377 . S
C2853 C2859 1.390 . S
C2854 H2845 0.930 . S
C2854 C2852 1.384 . S
C2854 C2855 1.372 . S
C2855 C2854 1.372 . S
C2855 C2856 1.400 . S
C2855 C2860 1.490 . S
C2856 H2846 0.930 . S
C2856 C2855 1.400 . S
C2856 C2859 1.386 . S
H2857 C2873 0.930 . S
H2858 C2874 0.931 . S
C2859 H2847 0.929 . S
C2859 C2853 1.390 . S
C2859 C2856 1.386 . S
C2860 C2855 1.490 . S
C2860 C2862 1.395 . S
C2860 C2863 1.403 . S
H2861 C2867 0.930 . S
C2862 H2848 0.930 . S
C2862 C2860 1.395 . S
C2862 C2865 1.403 . S
C2863 C2860 1.403 . S
C2863 C2864 1.524 . S
C2863 C2867 1.400 . S
C2864 H2849 0.960 . S
C2864 H2850 0.960 . S
C2864 H2851 0.960 . S
C2864 C2863 1.524 . S
C2865 C2862 1.403 . S
C2865 C2866 1.392 . S
C2865 C2869 1.495 . S
C2866 C2865 1.392 . S
C2866 C2867 1.385 . S
C2866 C2868 1.478 . S
C2867 H2861 0.930 . S
C2867 C2863 1.400 . S
C2867 C2866 1.385 . S
C2868 C2866 1.478 . S
C2868 C2870 1.381 . S
C2868 C2874 1.383 . S
C2869 C2865 1.495 . S
C2869 H2875 0.959 . S
C2869 H2876 0.961 . S
C2869 H2877 0.960 . S
C2870 C2868 1.381 . S
C2870 C2871 1.394 . S
C2870 H2878 0.930 . S
C2871 C2870 1.394 . S
C2871 C2872 1.383 . S
C2871 H2879 0.929 . S
C2872 C2871 1.383 . S
C2872 C2873 1.377 . S
C2873 H2857 0.930 . S
C2873 C2872 1.377 . S
C2873 C2874 1.379 . S
C2874 H2858 0.931 . S
C2874 C2868 1.383 . S
C2874 C2873 1.379 . S
H2875 C2869 0.959 . S
H2876 C2869 0.961 . S
H2877 C2869 0.960 . S
H2878 C2870 0.930 . S
H2879 C2871 0.929 . S
H2880 C2888 0.929 . S
H2881 C2890 0.930 . S
H2882 C2892 0.930 . S
H2883 C2895 0.929 . S
H2884 C2898 0.930 . S
H2885 C2900 0.960 . S
H2886 C2900 0.960 . S
H2887 C2900 0.960 . S
C2888 H2880 0.929 . S
C2888 C2889 1.377 . S
C2888 C2890 1.384 . S
C2889 C2888 1.377 . S
C2889 C2895 1.390 . S
C2890 H2881 0.930 . S
C2890 C2888 1.384 . S
C2890 C2891 1.372 . S
C2891 C2890 1.372 . S
C2891 C2892 1.400 . S
C2891 C2896 1.490 . S
C2892 H2882 0.930 . S
C2892 C2891 1.400 . S
C2892 C2895 1.386 . S
H2893 C2909 0.930 . S
H2894 C2910 0.931 . S
C2895 H2883 0.929 . S
C2895 C2889 1.390 . S
C2895 C2892 1.386 . S
C2896 C2891 1.490 . S
C2896 C2898 1.395 . S
C2896 C2899 1.403 . S
H2897 C2903 0.930 . S
C2898 H2884 0.930 . S
C2898 C2896 1.395 . S
C2898 C2901 1.403 . S
C2899 C2896 1.403 . S
C2899 C2900 1.524 . S
C2899 C2903 1.400 . S
C2900 H2885 0.960 . S
C2900 H2886 0.960 . S
C2900 H2887 0.960 . S
C2900 C2899 1.524 . S
C2901 C2898 1.403 . S
C2901 C2902 1.392 . S
C2901 C2905 1.495 . S
C2902 C2901 1.392 . S
C2902 C2903 1.385 . S
C2902 C2904 1.478 . S
C2903 H2897 0.930 . S
C2903 C2899 1.400 . S
C2903 C2902 1.385 . S
C2904 C2902 1.478 . S
C2904 C2906 1.381 . S
C2904 C2910 1.383 . S
C2905 C2901 1.495 . S
C2905 H2911 0.959 . S
C2905 H2912 0.961 . S
C2905 H2913 0.960 . S
C2906 C2904 1.381 . S
C2906 C2907 1.394 . S
C2906 H2914 0.930 . S
C2907 C2906 1.394 . S
C2907 C2908 1.383 . S
C2907 H2915 0.929 . S
C2908 C2907 1.383 . S
C2908 C2909 1.377 . S
C2909 H2893 0.930 . S
C2909 C2908 1.377 . S
C2909 C2910 1.379 . S
C2910 H2894 0.931 . S
C2910 C2904 1.383 . S
C2910 C2909 1.379 . S
H2911 C2905 0.959 . S
H2912 C2905 0.961 . S
H2913 C2905 0.960 . S
H2914 C2906 0.930 . S
H2915 C2907 0.929 . S
H2916 C2924 0.929 . S
H2917 C2926 0.930 . S
H2918 C2928 0.930 . S
H2919 C2931 0.929 . S
H2920 C2934 0.930 . S
H2921 C2936 0.960 . S
H2922 C2936 0.960 . S
H2923 C2936 0.960 . S
C2924 H2916 0.929 . S
C2924 C2925 1.377 . S
C2924 C2926 1.384 . S
C2925 C2924 1.377 . S
C2925 C2931 1.390 . S
C2926 H2917 0.930 . S
C2926 C2924 1.384 . S
C2926 C2927 1.372 . S
C2927 C2926 1.372 . S
C2927 C2928 1.400 . S
C2927 C2932 1.490 . S
C2928 H2918 0.930 . S
C2928 C2927 1.400 . S
C2928 C2931 1.386 . S
H2929 C2945 0.930 . S
H2930 C2946 0.931 . S
C2931 H2919 0.929 . S
C2931 C2925 1.390 . S
C2931 C2928 1.386 . S
C2932 C2927 1.490 . S
C2932 C2934 1.395 . S
C2932 C2935 1.403 . S
H2933 C2939 0.930 . S
C2934 H2920 0.930 . S
C2934 C2932 1.395 . S
C2934 C2937 1.403 . S
C2935 C2932 1.403 . S
C2935 C2936 1.524 . S
C2935 C2939 1.400 . S
C2936 H2921 0.960 . S
C2936 H2922 0.960 . S
C2936 H2923 0.960 . S
C2936 C2935 1.524 . S
C2937 C2934 1.403 . S
C2937 C2938 1.392 . S
C2937 C2941 1.495 . S
C2938 C2937 1.392 . S
C2938 C2939 1.385 . S
C2938 C2940 1.478 . S
C2939 H2933 0.930 . S
C2939 C2935 1.400 . S
C2939 C2938 1.385 . S
C2940 C2938 1.478 . S
C2940 C2942 1.381 . S
C2940 C2946 1.383 . S
C2941 C2937 1.495 . S
C2941 H2947 0.959 . S
C2941 H2948 0.961 . S
C2941 H2949 0.960 . S
C2942 C2940 1.381 . S
C2942 C2943 1.394 . S
C2942 H2950 0.930 . S
C2943 C2942 1.394 . S
C2943 C2944 1.383 . S
C2943 H2951 0.929 . S
C2944 C2943 1.383 . S
C2944 C2945 1.377 . S
C2945 H2929 0.930 . S
C2945 C2944 1.377 . S
C2945 C2946 1.379 . S
C2946 H2930 0.931 . S
C2946 C2940 1.383 . S
C2946 C2945 1.379 . S
H2947 C2941 0.959 . S
H2948 C2941 0.961 . S
H2949 C2941 0.960 . S
H2950 C2942 0.930 . S
H2951 C2943 0.929 . S
H2952 C2960 0.929 . S
H2953 C2962 0.930 . S
H2954 C2964 0.930 . S
H2955 C2967 0.929 . S
H2956 C2970 0.930 . S
H2957 C2972 0.960 . S
H2958 C2972 0.960 . S
H2959 C2972 0.960 . S
C2960 H2952 0.929 . S
C2960 C2961 1.377 . S
C2960 C2962 1.384 . S
C2961 C2960 1.377 . S
C2961 C2967 1.390 . S
C2962 H2953 0.930 . S
C2962 C2960 1.384 . S
C2962 C2963 1.372 . S
C2963 C2962 1.372 . S
C2963 C2964 1.400 . S
C2963 C2968 1.490 . S
C2964 H2954 0.930 . S
C2964 C2963 1.400 . S
C2964 C2967 1.386 . S
H2965 C2981 0.930 . S
H2966 C2982 0.931 . S
C2967 H2955 0.929 . S
C2967 C2961 1.390 . S
C2967 C2964 1.386 . S
C2968 C2963 1.490 . S
C2968 C2970 1.395 . S
C2968 C2971 1.403 . S
H2969 C2975 0.930 . S
C2970 H2956 0.930 . S
C2970 C2968 1.395 . S
C2970 C2973 1.403 . S
C2971 C2968 1.403 . S
C2971 C2972 1.524 . S
C2971 C2975 1.400 . S
C2972 H2957 0.960 . S
C2972 H2958 0.960 . S
C2972 H2959 0.960 . S
C2972 C2971 1.524 . S
C2973 C2970 1.403 . S
C2973 C2974 1.392 . S
C2973 C2977 1.495 . S
C2974 C2973 1.392 . S
C2974 C2975 1.385 . S
C2974 C2976 1.478 . S
C2975 H2969 0.930 . S
C2975 C2971 1.400 . S
C2975 C2974 1.385 . S
C2976 C2974 1.478 . S
C2976 C2978 1.381 . S
C2976 C2982 1.383 . S
C2977 C2973 1.495 . S
C2977 H2983 0.959 . S
C2977 H2984 0.961 . S
C2977 H2985 0.960 . S
C2978 C2976 1.381 . S
C2978 C2979 1.394 . S
C2978 H2986 0.930 . S
C2979 C2978 1.394 . S
C2979 C2980 1.383 . S
C2979 H2987 0.929 . S
C2980 C2979 1.383 . S
C2980 C2981 1.377 . S
C2981 H2965 0.930 . S
C2981 C2980 1.377 . S
C2981 C2982 1.379 . S
C2982 H2966 0.931 . S
C2982 C2976 1.383 . S
C2982 C2981 1.379 . S
H2983 C2977 0.959 . S
H2984 C2977 0.961 . S
H2985 C2977 0.960 . S
H2986 C2978 0.930 . S
H2987 C2979 0.929 . S
H2988 C2996 0.929 . S
H2989 C2998 0.930 . S
H2990 C3000 0.930 . S
H2991 C3003 0.929 . S
H2992 C3006 0.930 1_554 S
H2993 C3008 0.960 . S
H2994 C3008 0.960 . S
H2995 C3008 0.960 . S
C2996 H2988 0.929 . S
C2996 C2997 1.377 . S
C2996 C2998 1.384 . S
C2997 C2996 1.377 . S
C2997 C3003 1.390 1_554 S
C2998 H2989 0.930 . S
C2998 C2996 1.384 . S
C2998 C2999 1.372 1_554 S
C2999 C2998 1.372 1_556 S
C2999 C3000 1.400 . S
C2999 C3004 1.490 . S
C3000 H2990 0.930 . S
C3000 C2999 1.400 . S
C3000 C3003 1.386 . S
H3001 C3017 0.930 . S
H3002 C3018 0.931 . S
C3003 H2991 0.929 . S
C3003 C2997 1.390 1_556 S
C3003 C3000 1.386 . S
C3004 C2999 1.490 . S
C3004 C3006 1.395 . S
C3004 C3007 1.403 . S
H3005 C3011 0.930 . S
C3006 H2992 0.930 1_556 S
C3006 C3004 1.395 . S
C3006 C3009 1.403 . S
C3007 C3004 1.403 . S
C3007 C3008 1.524 . S
C3007 C3011 1.400 . S
C3008 H2993 0.960 . S
C3008 H2994 0.960 . S
C3008 H2995 0.960 . S
C3008 C3007 1.524 . S
C3009 C3006 1.403 . S
C3009 C3010 1.392 . S
C3009 C3013 1.495 1_556 S
C3010 C3009 1.392 . S
C3010 C3011 1.385 . S
C3010 C3012 1.478 . S
C3011 H3005 0.930 . S
C3011 C3007 1.400 . S
C3011 C3010 1.385 . S
C3012 C3010 1.478 . S
C3012 C3014 1.381 . S
C3012 C3018 1.383 . S
C3013 C3009 1.495 1_554 S
C3013 H3019 0.959 . S
C3013 H3020 0.961 . S
C3013 H3021 0.960 1_554 S
C3014 C3012 1.381 . S
C3014 C3015 1.394 . S
C3014 H3022 0.930 . S
C3015 C3014 1.394 . S
C3015 C3016 1.383 . S
C3015 H3023 0.929 . S
C3016 C3015 1.383 . S
C3016 C3017 1.377 . S
C3017 H3001 0.930 . S
C3017 C3016 1.377 . S
C3017 C3018 1.379 . S
C3018 H3002 0.931 . S
C3018 C3012 1.383 . S
C3018 C3017 1.379 . S
H3019 C3013 0.959 . S
H3020 C3013 0.961 . S
H3021 C3013 0.960 1_556 S
H3022 C3014 0.930 . S
H3023 C3015 0.929 . S
H3024 C3032 0.929 . S
H3025 C3034 0.930 . S
H3026 C3036 0.932 . S
H3027 C3039 0.929 . S
H3028 C3042 0.930 . S
H3029 C3044 0.960 . S
H3030 C3044 0.960 . S
H3031 C3044 0.960 . S
C3032 H3024 0.929 . S
C3032 C3033 1.377 1_556 S
C3032 C3034 1.384 . S
C3033 C3032 1.377 1_554 S
C3033 C3039 1.390 . S
C3034 H3025 0.930 . S
C3034 C3032 1.384 . S
C3034 C3035 1.372 . S
C3035 C3034 1.372 . S
C3035 C3036 1.395 1_556 S
C3035 C3040 1.490 . S
C3036 H3026 0.932 . S
C3036 C3035 1.395 1_554 S
C3036 C3039 1.388 . S
H3037 C3053 0.930 . S
H3038 C3054 0.931 . S
C3039 H3027 0.929 . S
C3039 C3033 1.390 . S
C3039 C3036 1.388 . S
C3040 C3035 1.490 . S
C3040 C3042 1.395 . S
C3040 C3043 1.403 . S
H3041 C3047 0.930 . S
C3042 H3028 0.930 . S
C3042 C3040 1.395 . S
C3042 C3045 1.403 . S
C3043 C3040 1.403 . S
C3043 C3044 1.524 . S
C3043 C3047 1.400 . S
C3044 H3029 0.960 . S
C3044 H3030 0.960 . S
C3044 H3031 0.960 . S
C3044 C3043 1.524 . S
C3045 C3042 1.403 . S
C3045 C3046 1.392 . S
C3045 C3049 1.495 . S
C3046 C3045 1.392 . S
C3046 C3047 1.385 . S
C3046 C3048 1.478 . S
C3047 H3041 0.930 . S
C3047 C3043 1.400 . S
C3047 C3046 1.385 . S
C3048 C3046 1.478 . S
C3048 C3050 1.381 . S
C3048 C3054 1.383 . S
C3049 C3045 1.495 . S
C3049 H3055 0.959 . S
C3049 H3056 0.961 . S
C3049 H3057 0.960 . S
C3050 C3048 1.381 . S
C3050 C3051 1.394 . S
C3050 H3058 0.930 . S
C3051 C3050 1.394 . S
C3051 C3052 1.383 . S
C3051 H3059 0.929 . S
C3052 C3051 1.383 . S
C3052 C3053 1.377 . S
C3053 H3037 0.930 . S
C3053 C3052 1.377 . S
C3053 C3054 1.379 . S
C3054 H3038 0.931 . S
C3054 C3048 1.383 . S
C3054 C3053 1.379 . S
H3055 C3049 0.959 . S
H3056 C3049 0.961 . S
H3057 C3049 0.960 . S
H3058 C3050 0.930 . S
H3059 C3051 0.929 . S
H3060 C3068 0.929 . S
H3061 C3070 0.930 . S
H3062 C3072 0.930 . S
H3063 C3075 0.929 . S
H3064 C3078 0.930 . S
H3065 C3080 0.960 . S
H3066 C3080 0.960 . S
H3067 C3080 0.962 1_554 S
C3068 H3060 0.929 . S
C3068 C3069 1.377 . S
C3068 C3070 1.384 . S
C3069 C3068 1.377 . S
C3069 C3075 1.390 . S
C3070 H3061 0.930 . S
C3070 C3068 1.384 . S
C3070 C3071 1.372 . S
C3071 C3070 1.372 . S
C3071 C3072 1.400 . S
C3071 C3076 1.490 . S
C3072 H3062 0.930 . S
C3072 C3071 1.400 . S
C3072 C3075 1.386 . S
H3073 C3089 0.930 . S
H3074 C3090 0.931 . S
C3075 H3063 0.929 . S
C3075 C3069 1.390 . S
C3075 C3072 1.386 . S
C3076 C3071 1.490 . S
C3076 C3078 1.395 . S
C3076 C3079 1.415 . S
H3077 C3083 0.930 . S
C3078 H3064 0.930 . S
C3078 C3076 1.395 . S
C3078 C3081 1.403 . S
C3079 C3076 1.415 . S
C3079 C3080 1.519 1_554 S
C3079 C3083 1.392 1_554 S
C3080 H3065 0.960 . S
C3080 H3066 0.960 . S
C3080 H3067 0.962 1_556 S
C3080 C3079 1.519 1_556 S
C3081 C3078 1.403 . S
C3081 C3082 1.392 1_554 S
C3081 C3085 1.495 . S
C3082 C3081 1.392 1_556 S
C3082 C3083 1.385 . S
C3082 C3084 1.478 . S
C3083 H3077 0.930 . S
C3083 C3079 1.392 1_556 S
C3083 C3082 1.385 . S
C3084 C3082 1.478 . S
C3084 C3086 1.381 . S
C3084 C3090 1.383 . S
C3085 C3081 1.495 . S
C3085 H3091 0.959 . S
C3085 H3092 0.961 . S
C3085 H3093 0.960 . S
C3086 C3084 1.381 . S
C3086 C3087 1.394 . S
C3086 H3094 0.930 . S
C3087 C3086 1.394 . S
C3087 C3088 1.383 . S
C3087 H3095 0.929 . S
C3088 C3087 1.383 . S
C3088 C3089 1.377 . S
C3089 H3073 0.930 . S
C3089 C3088 1.377 . S
C3089 C3090 1.379 . S
C3090 H3074 0.931 . S
C3090 C3084 1.383 . S
C3090 C3089 1.379 . S
H3091 C3085 0.959 . S
H3092 C3085 0.961 . S
H3093 C3085 0.960 . S
H3094 C3086 0.930 . S
H3095 C3087 0.929 . S
H3096 C3104 0.929 . S
H3097 C3106 0.931 . S
H3098 C3108 0.930 . S
H3099 C3111 0.929 . S
H3100 C3114 0.930 . S
H3101 C3116 0.960 . S
H3102 C3116 0.960 . S
H3103 C3116 0.960 . S
C3104 H3096 0.929 . S
C3104 C3105 1.377 . S
C3104 C3106 1.384 . S
C3105 C3104 1.377 . S
C3105 C3111 1.390 . S
C3106 H3097 0.931 . S
C3106 C3104 1.384 . S
C3106 C3107 1.367 1_554 S
C3107 C3106 1.367 1_556 S
C3107 C3108 1.388 1_556 S
C3107 C3112 1.507 . S
C3108 H3098 0.930 . S
C3108 C3107 1.388 1_554 S
C3108 C3111 1.386 . S
H3109 C3125 0.930 . S
H3110 C3126 0.931 . S
C3111 H3099 0.929 . S
C3111 C3105 1.390 . S
C3111 C3108 1.386 . S
C3112 C3107 1.507 . S
C3112 C3114 1.395 . S
C3112 C3115 1.403 . S
H3113 C3119 0.930 . S
C3114 H3100 0.930 . S
C3114 C3112 1.395 . S
C3114 C3117 1.403 . S
C3115 C3112 1.403 . S
C3115 C3116 1.524 1_556 S
C3115 C3119 1.400 . S
C3116 H3101 0.960 . S
C3116 H3102 0.960 . S
C3116 H3103 0.960 . S
C3116 C3115 1.524 1_554 S
C3117 C3114 1.403 . S
C3117 C3118 1.392 . S
C3117 C3121 1.495 . S
C3118 C3117 1.392 . S
C3118 C3119 1.385 . S
C3118 C3120 1.478 . S
C3119 H3113 0.930 . S
C3119 C3115 1.400 . S
C3119 C3118 1.385 . S
C3120 C3118 1.478 . S
C3120 C3122 1.381 . S
C3120 C3126 1.383 . S
C3121 C3117 1.495 . S
C3121 H3127 0.959 . S
C3121 H3128 0.961 . S
C3121 H3129 0.960 . S
C3122 C3120 1.381 . S
C3122 C3123 1.394 . S
C3122 H3130 0.930 . S
C3123 C3122 1.394 . S
C3123 C3124 1.383 . S
C3123 H3131 0.929 . S
C3124 C3123 1.383 . S
C3124 C3125 1.377 . S
C3125 H3109 0.930 . S
C3125 C3124 1.377 . S
C3125 C3126 1.379 . S
C3126 H3110 0.931 . S
C3126 C3120 1.383 . S
C3126 C3125 1.379 . S
H3127 C3121 0.959 . S
H3128 C3121 0.961 . S
H3129 C3121 0.960 . S
H3130 C3122 0.930 . S
H3131 C3123 0.929 . S
H3132 C3140 0.929 . S
H3133 C3142 0.930 . S
H3134 C3144 0.930 . S
H3135 C3147 0.929 . S
H3136 C3150 0.930 . S
H3137 C3152 0.960 . S
H3138 C3152 0.960 . S
H3139 C3152 0.960 . S
C3140 H3132 0.929 . S
C3140 C3141 1.377 . S
C3140 C3142 1.384 . S
C3141 C3140 1.377 . S
C3141 C3147 1.390 . S
C3142 H3133 0.930 . S
C3142 C3140 1.384 . S
C3142 C3143 1.372 . S
C3143 C3142 1.372 . S
C3143 C3144 1.400 . S
C3143 C3148 1.490 . S
C3144 H3134 0.930 . S
C3144 C3143 1.400 . S
C3144 C3147 1.386 . S
H3145 C3161 0.930 . S
H3146 C3162 0.931 . S
C3147 H3135 0.929 . S
C3147 C3141 1.390 . S
C3147 C3144 1.386 . S
C3148 C3143 1.490 . S
C3148 C3150 1.395 . S
C3148 C3151 1.403 . S
H3149 C3155 0.930 . S
C3150 H3136 0.930 . S
C3150 C3148 1.395 . S
C3150 C3153 1.403 . S
C3151 C3148 1.403 . S
C3151 C3152 1.524 . S
C3151 C3155 1.400 . S
C3152 H3137 0.960 . S
C3152 H3138 0.960 . S
C3152 H3139 0.960 . S
C3152 C3151 1.524 . S
C3153 C3150 1.403 . S
C3153 C3154 1.392 . S
C3153 C3157 1.495 . S
C3154 C3153 1.392 . S
C3154 C3155 1.385 . S
C3154 C3156 1.478 . S
C3155 H3149 0.930 . S
C3155 C3151 1.400 . S
C3155 C3154 1.385 . S
C3156 C3154 1.478 . S
C3156 C3158 1.381 . S
C3156 C3162 1.383 . S
C3157 C3153 1.495 . S
C3157 H3163 0.959 . S
C3157 H3164 0.961 . S
C3157 H3165 0.960 . S
C3158 C3156 1.381 . S
C3158 C3159 1.394 . S
C3158 H3166 0.930 . S
C3159 C3158 1.394 . S
C3159 C3160 1.383 . S
C3159 H3167 0.929 . S
C3160 C3159 1.383 . S
C3160 C3161 1.377 . S
C3161 H3145 0.930 . S
C3161 C3160 1.377 . S
C3161 C3162 1.379 . S
C3162 H3146 0.931 . S
C3162 C3156 1.383 . S
C3162 C3161 1.379 . S
H3163 C3157 0.959 . S
H3164 C3157 0.961 . S
H3165 C3157 0.960 . S
H3166 C3158 0.930 . S
H3167 C3159 0.929 . S
H3168 C3176 0.929 . S
H3169 C3178 0.930 1_556 S
H3170 C3180 0.930 . S
H3171 C3183 0.929 . S
H3172 C3186 0.917 1_554 S
H3173 C3188 0.960 . S
H3174 C3188 0.960 . S
H3175 C3188 0.960 1_554 S
C3176 H3168 0.929 . S
C3176 C3177 1.377 . S
C3176 C3178 1.384 . S
C3177 C3176 1.377 . S
C3177 C3183 1.390 . S
C3178 H3169 0.930 1_554 S
C3178 C3176 1.384 . S
C3178 C3179 1.372 . S
C3179 C3178 1.372 . S
C3179 C3180 1.400 . S
C3179 C3184 1.512 . S
C3180 H3170 0.930 . S
C3180 C3179 1.400 . S
C3180 C3183 1.386 . S
H3181 C3197 0.930 . S
H3182 C3198 0.931 . S
C3183 H3171 0.929 . S
C3183 C3177 1.390 . S
C3183 C3180 1.386 . S
C3184 C3179 1.512 . S
C3184 C3186 1.385 1_554 S
C3184 C3187 1.391 1_554 S
H3185 C3191 0.930 . S
C3186 H3172 0.917 1_556 S
C3186 C3184 1.385 1_556 S
C3186 C3189 1.403 . S
C3187 C3184 1.391 1_556 S
C3187 C3188 1.524 . S
C3187 C3191 1.400 . S
C3188 H3173 0.960 . S
C3188 H3174 0.960 . S
C3188 H3175 0.960 1_556 S
C3188 C3187 1.524 . S
C3189 C3186 1.403 . S
C3189 C3190 1.392 . S
C3189 C3193 1.495 . S
C3190 C3189 1.392 . S
C3190 C3191 1.385 . S
C3190 C3192 1.478 . S
C3191 H3185 0.930 . S
C3191 C3187 1.400 . S
C3191 C3190 1.385 . S
C3192 C3190 1.478 . S
C3192 C3194 1.381 . S
C3192 C3198 1.383 . S
C3193 C3189 1.495 . S
C3193 H3199 0.959 . S
C3193 H3200 0.961 . S
C3193 H3201 0.960 . S
C3194 C3192 1.381 . S
C3194 C3195 1.394 . S
C3194 H3202 0.930 . S
C3195 C3194 1.394 . S
C3195 C3196 1.383 . S
C3195 H3203 0.929 . S
C3196 C3195 1.383 . S
C3196 C3197 1.377 . S
C3197 H3181 0.930 . S
C3197 C3196 1.377 . S
C3197 C3198 1.379 . S
C3198 H3182 0.931 . S
C3198 C3192 1.383 . S
C3198 C3197 1.379 . S
H3199 C3193 0.959 . S
H3200 C3193 0.961 . S
H3201 C3193 0.960 . S
H3202 C3194 0.930 . S
H3203 C3195 0.929 . S
H3204 C3212 0.929 . S
H3205 C3214 0.930 . S
H3206 C3216 0.930 . S
H3207 C3219 0.929 . S
H3208 C3222 0.930 . S
H3209 C3224 0.960 . S
H3210 C3224 0.960 . S
H3211 C3224 0.960 . S
C3212 H3204 0.929 . S
C3212 C3213 1.377 . S
C3212 C3214 1.384 . S
C3213 C3212 1.377 . S
C3213 C3219 1.390 . S
C3214 H3205 0.930 . S
C3214 C3212 1.384 . S
C3214 C3215 1.372 . S
C3215 C3214 1.372 . S
C3215 C3216 1.400 . S
C3215 C3220 1.490 . S
C3216 H3206 0.930 . S
C3216 C3215 1.400 . S
C3216 C3219 1.386 . S
H3217 C3233 0.930 . S
H3218 C3234 0.931 . S
C3219 H3207 0.929 . S
C3219 C3213 1.390 . S
C3219 C3216 1.386 . S
C3220 C3215 1.490 . S
C3220 C3222 1.395 . S
C3220 C3223 1.403 . S
H3221 C3227 0.930 . S
C3222 H3208 0.930 . S
C3222 C3220 1.395 . S
C3222 C3225 1.403 . S
C3223 C3220 1.403 . S
C3223 C3224 1.524 . S
C3223 C3227 1.400 . S
C3224 H3209 0.960 . S
C3224 H3210 0.960 . S
C3224 H3211 0.960 . S
C3224 C3223 1.524 . S
C3225 C3222 1.403 . S
C3225 C3226 1.392 . S
C3225 C3229 1.495 . S
C3226 C3225 1.392 . S
C3226 C3227 1.385 . S
C3226 C3228 1.478 . S
C3227 H3221 0.930 . S
C3227 C3223 1.400 . S
C3227 C3226 1.385 . S
C3228 C3226 1.478 . S
C3228 C3230 1.381 . S
C3228 C3234 1.383 . S
C3229 C3225 1.495 . S
C3229 H3235 0.959 . S
C3229 H3236 0.961 . S
C3229 H3237 0.960 . S
C3230 C3228 1.381 . S
C3230 C3231 1.394 . S
C3230 H3238 0.930 . S
C3231 C3230 1.394 . S
C3231 C3232 1.383 . S
C3231 H3239 0.929 . S
C3232 C3231 1.383 . S
C3232 C3233 1.377 . S
C3233 H3217 0.930 . S
C3233 C3232 1.377 . S
C3233 C3234 1.379 . S
C3234 H3218 0.931 . S
C3234 C3228 1.383 . S
C3234 C3233 1.379 . S
H3235 C3229 0.959 . S
H3236 C3229 0.961 . S
H3237 C3229 0.960 . S
H3238 C3230 0.930 . S
H3239 C3231 0.929 . S
H3240 C3248 0.929 . S
H3241 C3250 0.930 . S
H3242 C3252 0.930 . S
H3243 C3255 0.929 . S
H3244 C3258 0.930 . S
H3245 C3260 0.960 . S
H3246 C3260 0.960 . S
H3247 C3260 0.960 . S
C3248 H3240 0.929 . S
C3248 C3249 1.377 . S
C3248 C3250 1.384 . S
C3249 C3248 1.377 . S
C3249 C3255 1.390 . S
C3250 H3241 0.930 . S
C3250 C3248 1.384 . S
C3250 C3251 1.372 . S
C3251 C3250 1.372 . S
C3251 C3252 1.400 . S
C3251 C3256 1.490 . S
C3252 H3242 0.930 . S
C3252 C3251 1.400 . S
C3252 C3255 1.386 . S
H3253 C3269 0.930 . S
H3254 C3270 0.931 . S
C3255 H3243 0.929 . S
C3255 C3249 1.390 . S
C3255 C3252 1.386 . S
C3256 C3251 1.490 . S
C3256 C3258 1.395 . S
C3256 C3259 1.403 . S
H3257 C3263 0.930 . S
C3258 H3244 0.930 . S
C3258 C3256 1.395 . S
C3258 C3261 1.403 . S
C3259 C3256 1.403 . S
C3259 C3260 1.524 . S
C3259 C3263 1.400 . S
C3260 H3245 0.960 . S
C3260 H3246 0.960 . S
C3260 H3247 0.960 . S
C3260 C3259 1.524 . S
C3261 C3258 1.403 . S
C3261 C3262 1.392 . S
C3261 C3265 1.495 . S
C3262 C3261 1.392 . S
C3262 C3263 1.385 . S
C3262 C3264 1.478 . S
C3263 H3257 0.930 . S
C3263 C3259 1.400 . S
C3263 C3262 1.385 . S
C3264 C3262 1.478 . S
C3264 C3266 1.381 . S
C3264 C3270 1.383 . S
C3265 C3261 1.495 . S
C3265 H3271 0.959 . S
C3265 H3272 0.961 . S
C3265 H3273 0.960 . S
C3266 C3264 1.381 . S
C3266 C3267 1.394 . S
C3266 H3274 0.930 . S
C3267 C3266 1.394 . S
C3267 C3268 1.383 . S
C3267 H3275 0.929 . S
C3268 C3267 1.383 . S
C3268 C3269 1.377 . S
C3269 H3253 0.930 . S
C3269 C3268 1.377 . S
C3269 C3270 1.379 . S
C3270 H3254 0.931 . S
C3270 C3264 1.383 . S
C3270 C3269 1.379 . S
H3271 C3265 0.959 . S
H3272 C3265 0.961 . S
H3273 C3265 0.960 . S
H3274 C3266 0.930 . S
H3275 C3267 0.929 . S
H3276 C3284 0.929 . S
H3277 C3286 0.930 . S
H3278 C3288 0.930 . S
H3279 C3291 0.929 . S
H3280 C3294 0.930 . S
H3281 C3296 0.960 . S
H3282 C3296 0.960 . S
H3283 C3296 0.960 . S
C3284 H3276 0.929 . S
C3284 C3285 1.377 . S
C3284 C3286 1.384 . S
C3285 C3284 1.377 . S
C3285 C3291 1.390 . S
C3286 H3277 0.930 . S
C3286 C3284 1.384 . S
C3286 C3287 1.372 . S
C3287 C3286 1.372 . S
C3287 C3288 1.400 . S
C3287 C3292 1.490 . S
C3288 H3278 0.930 . S
C3288 C3287 1.400 . S
C3288 C3291 1.386 . S
H3289 C3305 0.930 . S
H3290 C3306 0.931 . S
C3291 H3279 0.929 . S
C3291 C3285 1.390 . S
C3291 C3288 1.386 . S
C3292 C3287 1.490 . S
C3292 C3294 1.395 . S
C3292 C3295 1.403 . S
H3293 C3299 0.930 . S
C3294 H3280 0.930 . S
C3294 C3292 1.395 . S
C3294 C3297 1.403 . S
C3295 C3292 1.403 . S
C3295 C3296 1.524 . S
C3295 C3299 1.400 . S
C3296 H3281 0.960 . S
C3296 H3282 0.960 . S
C3296 H3283 0.960 . S
C3296 C3295 1.524 . S
C3297 C3294 1.403 . S
C3297 C3298 1.392 . S
C3297 C3301 1.495 . S
C3298 C3297 1.392 . S
C3298 C3299 1.385 . S
C3298 C3300 1.478 . S
C3299 H3293 0.930 . S
C3299 C3295 1.400 . S
C3299 C3298 1.385 . S
C3300 C3298 1.478 . S
C3300 C3302 1.381 . S
C3300 C3306 1.383 . S
C3301 C3297 1.495 . S
C3301 H3307 0.959 . S
C3301 H3308 0.961 . S
C3301 H3309 0.960 . S
C3302 C3300 1.381 . S
C3302 C3303 1.394 . S
C3302 H3310 0.930 . S
C3303 C3302 1.394 . S
C3303 C3304 1.383 . S
C3303 H3311 0.929 . S
C3304 C3303 1.383 . S
C3304 C3305 1.377 . S
C3305 H3289 0.930 . S
C3305 C3304 1.377 . S
C3305 C3306 1.379 . S
C3306 H3290 0.931 . S
C3306 C3300 1.383 . S
C3306 C3305 1.379 . S
H3307 C3301 0.959 . S
H3308 C3301 0.961 . S
H3309 C3301 0.960 . S
H3310 C3302 0.930 . S
H3311 C3303 0.929 . S
H3312 C3320 0.929 . S
H3313 C3322 0.930 . S
H3314 C3324 0.930 . S
H3315 C3327 0.929 . S
H3316 C3330 0.930 . S
H3317 C3332 0.960 . S
H3318 C3332 0.960 . S
H3319 C3332 0.960 . S
C3320 H3312 0.929 . S
C3320 C3321 1.377 . S
C3320 C3322 1.384 . S
C3321 C3320 1.377 . S
C3321 C3327 1.390 . S
C3322 H3313 0.930 . S
C3322 C3320 1.384 . S
C3322 C3323 1.372 . S
C3323 C3322 1.372 . S
C3323 C3324 1.400 . S
C3323 C3328 1.490 . S
C3324 H3314 0.930 . S
C3324 C3323 1.400 . S
C3324 C3327 1.386 . S
H3325 C3341 0.930 . S
H3326 C3342 0.931 . S
C3327 H3315 0.929 . S
C3327 C3321 1.390 . S
C3327 C3324 1.386 . S
C3328 C3323 1.490 . S
C3328 C3330 1.395 . S
C3328 C3331 1.403 . S
H3329 C3335 0.930 . S
C3330 H3316 0.930 . S
C3330 C3328 1.395 . S
C3330 C3333 1.403 . S
C3331 C3328 1.403 . S
C3331 C3332 1.524 . S
C3331 C3335 1.400 . S
C3332 H3317 0.960 . S
C3332 H3318 0.960 . S
C3332 H3319 0.960 . S
C3332 C3331 1.524 . S
C3333 C3330 1.403 . S
C3333 C3334 1.392 . S
C3333 C3337 1.495 . S
C3334 C3333 1.392 . S
C3334 C3335 1.385 . S
C3334 C3336 1.478 . S
C3335 H3329 0.930 . S
C3335 C3331 1.400 . S
C3335 C3334 1.385 . S
C3336 C3334 1.478 . S
C3336 C3338 1.381 . S
C3336 C3342 1.383 . S
C3337 C3333 1.495 . S
C3337 H3343 0.959 . S
C3337 H3344 0.961 . S
C3337 H3345 0.960 . S
C3338 C3336 1.381 . S
C3338 C3339 1.394 . S
C3338 H3346 0.930 . S
C3339 C3338 1.394 . S
C3339 C3340 1.383 . S
C3339 H3347 0.929 . S
C3340 C3339 1.383 . S
C3340 C3341 1.377 . S
C3341 H3325 0.930 . S
C3341 C3340 1.377 . S
C3341 C3342 1.379 . S
C3342 H3326 0.931 . S
C3342 C3336 1.383 . S
C3342 C3341 1.379 . S
H3343 C3337 0.959 . S
H3344 C3337 0.961 . S
H3345 C3337 0.960 . S
H3346 C3338 0.930 . S
H3347 C3339 0.929 . S
H3348 C3356 0.929 . S
H3349 C3358 0.930 . S
H3350 C3360 0.930 . S
H3351 C3363 0.929 . S
H3352 C3366 0.930 . S
H3353 C3368 0.960 . S
H3354 C3368 0.960 . S
H3355 C3368 0.960 . S
C3356 H3348 0.929 . S
C3356 C3357 1.377 . S
C3356 C3358 1.384 . S
C3357 C3356 1.377 . S
C3357 C3363 1.390 . S
C3358 H3349 0.930 . S
C3358 C3356 1.384 . S
C3358 C3359 1.372 . S
C3359 C3358 1.372 . S
C3359 C3360 1.400 . S
C3359 C3364 1.490 . S
C3360 H3350 0.930 . S
C3360 C3359 1.400 . S
C3360 C3363 1.386 . S
H3361 C3377 0.930 . S
H3362 C3378 0.931 . S
C3363 H3351 0.929 . S
C3363 C3357 1.390 . S
C3363 C3360 1.386 . S
C3364 C3359 1.490 . S
C3364 C3366 1.395 . S
C3364 C3367 1.403 . S
H3365 C3371 0.930 . S
C3366 H3352 0.930 . S
C3366 C3364 1.395 . S
C3366 C3369 1.403 . S
C3367 C3364 1.403 . S
C3367 C3368 1.524 . S
C3367 C3371 1.400 . S
C3368 H3353 0.960 . S
C3368 H3354 0.960 . S
C3368 H3355 0.960 . S
C3368 C3367 1.524 . S
C3369 C3366 1.403 . S
C3369 C3370 1.392 . S
C3369 C3373 1.495 . S
C3370 C3369 1.392 . S
C3370 C3371 1.385 . S
C3370 C3372 1.478 . S
C3371 H3365 0.930 . S
C3371 C3367 1.400 . S
C3371 C3370 1.385 . S
C3372 C3370 1.478 . S
C3372 C3374 1.381 . S
C3372 C3378 1.383 . S
C3373 C3369 1.495 . S
C3373 H3379 0.959 . S
C3373 H3380 0.961 . S
C3373 H3381 0.960 . S
C3374 C3372 1.381 . S
C3374 C3375 1.394 . S
C3374 H3382 0.930 . S
C3375 C3374 1.394 . S
C3375 C3376 1.383 . S
C3375 H3383 0.929 . S
C3376 C3375 1.383 . S
C3376 C3377 1.377 . S
C3377 H3361 0.930 . S
C3377 C3376 1.377 . S
C3377 C3378 1.379 . S
C3378 H3362 0.931 . S
C3378 C3372 1.383 . S
C3378 C3377 1.379 . S
H3379 C3373 0.959 . S
H3380 C3373 0.961 . S
H3381 C3373 0.960 . S
H3382 C3374 0.930 . S
H3383 C3375 0.929 . S
H3384 C3392 0.929 . S
H3385 C3394 0.930 . S
H3386 C3396 0.930 . S
H3387 C3399 0.929 . S
H3388 C3402 0.930 . S
H3389 C3404 0.960 . S
H3390 C3404 0.960 . S
H3391 C3404 0.960 . S
C3392 H3384 0.929 . S
C3392 C3393 1.377 1_655 S
C3392 C3394 1.384 . S
C3393 C3392 1.377 1_455 S
C3393 C3399 1.390 . S
C3394 H3385 0.930 . S
C3394 C3392 1.384 . S
C3394 C3395 1.372 . S
C3395 C3394 1.372 . S
C3395 C3396 1.400 . S
C3395 C3400 1.490 . S
C3396 H3386 0.930 . S
C3396 C3395 1.400 . S
C3396 C3399 1.386 1_655 S
H3397 C3413 0.930 . S
H3398 C3414 0.931 . S
C3399 H3387 0.929 . S
C3399 C3393 1.390 . S
C3399 C3396 1.386 1_455 S
C3400 C3395 1.490 . S
C3400 C3402 1.395 . S
C3400 C3403 1.403 . S
H3401 C3407 0.930 . S
C3402 H3388 0.930 . S
C3402 C3400 1.395 . S
C3402 C3405 1.403 . S
C3403 C3400 1.403 . S
C3403 C3404 1.524 . S
C3403 C3407 1.400 . S
C3404 H3389 0.960 . S
C3404 H3390 0.960 . S
C3404 H3391 0.960 . S
C3404 C3403 1.524 . S
C3405 C3402 1.403 . S
C3405 C3406 1.392 . S
C3405 C3409 1.495 . S
C3406 C3405 1.392 . S
C3406 C3407 1.385 . S
C3406 C3408 1.478 . S
C3407 H3401 0.930 . S
C3407 C3403 1.400 . S
C3407 C3406 1.385 . S
C3408 C3406 1.478 . S
C3408 C3410 1.381 . S
C3408 C3414 1.383 . S
C3409 C3405 1.495 . S
C3409 H3415 0.959 . S
C3409 H3416 0.961 . S
C3409 H3417 0.960 . S
C3410 C3408 1.381 . S
C3410 C3411 1.394 . S
C3410 H3418 0.930 . S
C3411 C3410 1.394 . S
C3411 C3412 1.383 . S
C3411 H3419 0.929 . S
C3412 C3411 1.383 . S
C3412 C3413 1.377 . S
C3413 H3397 0.930 . S
C3413 C3412 1.377 . S
C3413 C3414 1.379 . S
C3414 H3398 0.931 . S
C3414 C3408 1.383 . S
C3414 C3413 1.379 . S
H3415 C3409 0.959 . S
H3416 C3409 0.961 . S
H3417 C3409 0.960 . S
H3418 C3410 0.930 . S
H3419 C3411 0.929 . S
H3420 C3428 0.929 . S
H3421 C3430 0.930 . S
H3422 C3432 0.930 . S
H3423 C3435 0.929 . S
H3424 C3438 0.930 . S
H3425 C3440 0.960 . S
H3426 C3440 0.960 . S
H3427 C3440 0.960 . S
C3428 H3420 0.929 . S
C3428 C3429 1.377 . S
C3428 C3430 1.384 . S
C3429 C3428 1.377 . S
C3429 C3435 1.390 . S
C3430 H3421 0.930 . S
C3430 C3428 1.384 . S
C3430 C3431 1.372 . S
C3431 C3430 1.372 . S
C3431 C3432 1.400 . S
C3431 C3436 1.490 . S
C3432 H3422 0.930 . S
C3432 C3431 1.400 . S
C3432 C3435 1.386 . S
H3433 C3449 0.930 . S
H3434 C3450 0.931 . S
C3435 H3423 0.929 . S
C3435 C3429 1.390 . S
C3435 C3432 1.386 . S
C3436 C3431 1.490 . S
C3436 C3438 1.395 . S
C3436 C3439 1.403 . S
H3437 C3443 0.930 . S
C3438 H3424 0.930 . S
C3438 C3436 1.395 . S
C3438 C3441 1.403 . S
C3439 C3436 1.403 . S
C3439 C3440 1.524 . S
C3439 C3443 1.400 . S
C3440 H3425 0.960 . S
C3440 H3426 0.960 . S
C3440 H3427 0.960 . S
C3440 C3439 1.524 . S
C3441 C3438 1.403 . S
C3441 C3442 1.392 . S
C3441 C3445 1.495 . S
C3442 C3441 1.392 . S
C3442 C3443 1.385 . S
C3442 C3444 1.478 . S
C3443 H3437 0.930 . S
C3443 C3439 1.400 . S
C3443 C3442 1.385 . S
C3444 C3442 1.478 . S
C3444 C3446 1.381 . S
C3444 C3450 1.383 . S
C3445 C3441 1.495 . S
C3445 H3451 0.959 . S
C3445 H3452 0.961 . S
C3445 H3453 0.960 1_455 S
C3446 C3444 1.381 . S
C3446 C3447 1.394 . S
C3446 H3454 0.929 1_455 S
C3447 C3446 1.394 . S
C3447 C3448 1.383 . S
C3447 H3455 0.929 1_455 S
C3448 C3447 1.383 . S
C3448 C3449 1.377 . S
C3449 H3433 0.930 . S
C3449 C3448 1.377 . S
C3449 C3450 1.379 . S
C3450 H3434 0.931 . S
C3450 C3444 1.383 . S
C3450 C3449 1.379 . S
H3451 C3445 0.959 . S
H3452 C3445 0.961 . S
H3453 C3445 0.960 1_655 S
H3454 C3446 0.929 1_655 S
H3455 C3447 0.929 1_655 S
H3456 C3464 0.929 . S
H3457 C3466 0.930 . S
H3458 C3468 0.930 . S
H3459 C3471 0.929 . S
H3460 C3474 0.930 . S
H3461 C3476 0.960 . S
H3462 C3476 0.960 . S
H3463 C3476 0.960 . S
C3464 H3456 0.929 . S
C3464 C3465 1.377 . S
C3464 C3466 1.384 . S
C3465 C3464 1.377 . S
C3465 C3471 1.390 . S
C3466 H3457 0.930 . S
C3466 C3464 1.384 . S
C3466 C3467 1.372 . S
C3467 C3466 1.372 . S
C3467 C3468 1.400 . S
C3467 C3472 1.490 . S
C3468 H3458 0.930 . S
C3468 C3467 1.400 . S
C3468 C3471 1.386 . S
H3469 C3485 0.930 . S
H3470 C3486 0.931 . S
C3471 H3459 0.929 . S
C3471 C3465 1.390 . S
C3471 C3468 1.386 . S
C3472 C3467 1.490 . S
C3472 C3474 1.395 . S
C3472 C3475 1.403 . S
H3473 C3479 0.930 . S
C3474 H3460 0.930 . S
C3474 C3472 1.395 . S
C3474 C3477 1.403 . S
C3475 C3472 1.403 . S
C3475 C3476 1.524 . S
C3475 C3479 1.400 . S
C3476 H3461 0.960 . S
C3476 H3462 0.960 . S
C3476 H3463 0.960 . S
C3476 C3475 1.524 . S
C3477 C3474 1.403 . S
C3477 C3478 1.392 . S
C3477 C3481 1.495 . S
C3478 C3477 1.392 . S
C3478 C3479 1.385 . S
C3478 C3480 1.478 . S
C3479 H3473 0.930 . S
C3479 C3475 1.400 . S
C3479 C3478 1.385 . S
C3480 C3478 1.478 . S
C3480 C3482 1.381 . S
C3480 C3486 1.383 . S
C3481 C3477 1.495 . S
C3481 H3487 0.959 . S
C3481 H3488 0.961 . S
C3481 H3489 0.960 . S
C3482 C3480 1.381 . S
C3482 C3483 1.394 . S
C3482 H3490 0.930 . S
C3483 C3482 1.394 . S
C3483 C3484 1.383 . S
C3483 H3491 0.929 . S
C3484 C3483 1.383 . S
C3484 C3485 1.377 . S
C3485 H3469 0.930 . S
C3485 C3484 1.377 . S
C3485 C3486 1.379 . S
C3486 H3470 0.931 . S
C3486 C3480 1.383 . S
C3486 C3485 1.379 . S
H3487 C3481 0.959 . S
H3488 C3481 0.961 . S
H3489 C3481 0.960 . S
H3490 C3482 0.930 . S
H3491 C3483 0.929 . S
H3492 C3500 0.929 . S
H3493 C3502 0.930 . S
H3494 C3504 0.930 . S
H3495 C3507 0.929 . S
H3496 C3510 0.930 . S
H3497 C3512 0.960 . S
H3498 C3512 0.960 . S
H3499 C3512 0.960 . S
C3500 H3492 0.929 . S
C3500 C3501 1.377 . S
C3500 C3502 1.384 . S
C3501 C3500 1.377 . S
C3501 C3507 1.390 . S
C3502 H3493 0.930 . S
C3502 C3500 1.384 . S
C3502 C3503 1.372 . S
C3503 C3502 1.372 . S
C3503 C3504 1.400 . S
C3503 C3508 1.490 . S
C3504 H3494 0.930 . S
C3504 C3503 1.400 . S
C3504 C3507 1.386 . S
H3505 C3521 0.930 . S
H3506 C3522 0.931 . S
C3507 H3495 0.929 . S
C3507 C3501 1.390 . S
C3507 C3504 1.386 . S
C3508 C3503 1.490 . S
C3508 C3510 1.395 . S
C3508 C3511 1.403 . S
H3509 C3515 0.930 . S
C3510 H3496 0.930 . S
C3510 C3508 1.395 . S
C3510 C3513 1.403 . S
C3511 C3508 1.403 . S
C3511 C3512 1.524 . S
C3511 C3515 1.400 . S
C3512 H3497 0.960 . S
C3512 H3498 0.960 . S
C3512 H3499 0.960 . S
C3512 C3511 1.524 . S
C3513 C3510 1.403 . S
C3513 C3514 1.392 . S
C3513 C3517 1.495 . S
C3514 C3513 1.392 . S
C3514 C3515 1.385 . S
C3514 C3516 1.478 . S
C3515 H3509 0.930 . S
C3515 C3511 1.400 . S
C3515 C3514 1.385 . S
C3516 C3514 1.478 . S
C3516 C3518 1.381 . S
C3516 C3522 1.383 . S
C3517 C3513 1.495 . S
C3517 H3523 0.959 . S
C3517 H3524 0.961 . S
C3517 H3525 0.960 . S
C3518 C3516 1.381 . S
C3518 C3519 1.394 . S
C3518 H3526 0.930 1_565 S
C3519 C3518 1.394 . S
C3519 C3520 1.383 . S
C3519 H3527 0.929 1_565 S
C3520 C3519 1.383 . S
C3520 C3521 1.377 . S
C3521 H3505 0.930 . S
C3521 C3520 1.377 . S
C3521 C3522 1.379 . S
C3522 H3506 0.931 . S
C3522 C3516 1.383 . S
C3522 C3521 1.379 . S
H3523 C3517 0.959 . S
H3524 C3517 0.961 . S
H3525 C3517 0.960 . S
H3526 C3518 0.930 1_545 S
H3527 C3519 0.929 1_545 S
H3528 C3536 0.929 . S
H3529 C3538 0.930 . S
H3530 C3540 0.930 . S
H3531 C3543 0.929 . S
H3532 C3546 0.930 . S
H3533 C3548 0.960 . S
H3534 C3548 0.960 . S
H3535 C3548 0.960 . S
C3536 H3528 0.929 . S
C3536 C3537 1.377 . S
C3536 C3538 1.384 . S
C3537 C3536 1.377 . S
C3537 C3543 1.390 . S
C3538 H3529 0.930 . S
C3538 C3536 1.384 . S
C3538 C3539 1.372 . S
C3539 C3538 1.372 . S
C3539 C3540 1.400 . S
C3539 C3544 1.490 . S
C3540 H3530 0.930 . S
C3540 C3539 1.400 . S
C3540 C3543 1.386 . S
H3541 C3557 0.930 . S
H3542 C3558 0.931 . S
C3543 H3531 0.929 . S
C3543 C3537 1.390 . S
C3543 C3540 1.386 . S
C3544 C3539 1.490 . S
C3544 C3546 1.395 . S
C3544 C3547 1.403 . S
H3545 C3551 0.930 . S
C3546 H3532 0.930 . S
C3546 C3544 1.395 . S
C3546 C3549 1.403 . S
C3547 C3544 1.403 . S
C3547 C3548 1.524 . S
C3547 C3551 1.400 . S
C3548 H3533 0.960 . S
C3548 H3534 0.960 . S
C3548 H3535 0.960 . S
C3548 C3547 1.524 . S
C3549 C3546 1.403 . S
C3549 C3550 1.392 . S
C3549 C3553 1.495 . S
C3550 C3549 1.392 . S
C3550 C3551 1.385 . S
C3550 C3552 1.478 . S
C3551 H3545 0.930 . S
C3551 C3547 1.400 . S
C3551 C3550 1.385 . S
C3552 C3550 1.478 . S
C3552 C3554 1.381 1_565 S
C3552 C3558 1.383 . S
C3553 C3549 1.495 . S
C3553 H3559 0.959 . S
C3553 H3560 0.961 . S
C3553 H3561 0.960 . S
C3554 C3552 1.381 1_545 S
C3554 C3555 1.394 . S
C3554 H3562 0.930 . S
C3555 C3554 1.394 . S
C3555 C3556 1.372 1_545 S
C3555 H3563 0.929 . S
C3556 C3555 1.372 1_565 S
C3556 C3557 1.434 . S
C3557 H3541 0.930 . S
C3557 C3556 1.434 . S
C3557 C3558 1.379 . S
C3558 H3542 0.931 . S
C3558 C3552 1.383 . S
C3558 C3557 1.379 . S
H3559 C3553 0.959 . S
H3560 C3553 0.961 . S
H3561 C3553 0.960 . S
H3562 C3554 0.930 . S
H3563 C3555 0.929 . S
H3564 C3572 0.929 . S
H3565 C3574 0.930 . S
H3566 C3576 0.930 . S
H3567 C3579 0.929 . S
H3568 C3582 0.930 . S
H3569 C3584 0.960 . S
H3570 C3584 0.960 . S
H3571 C3584 0.960 . S
C3572 H3564 0.929 . S
C3572 C3573 1.377 . S
C3572 C3574 1.384 . S
C3573 C3572 1.377 . S
C3573 C3579 1.390 . S
C3574 H3565 0.930 . S
C3574 C3572 1.384 . S
C3574 C3575 1.372 . S
C3575 C3574 1.372 . S
C3575 C3576 1.400 . S
C3575 C3580 1.490 . S
C3576 H3566 0.930 . S
C3576 C3575 1.400 . S
C3576 C3579 1.386 . S
H3577 C3593 0.930 . S
H3578 C3594 0.931 . S
C3579 H3567 0.929 . S
C3579 C3573 1.390 . S
C3579 C3576 1.386 . S
C3580 C3575 1.490 . S
C3580 C3582 1.395 . S
C3580 C3583 1.403 . S
H3581 C3587 0.930 . S
C3582 H3568 0.930 . S
C3582 C3580 1.395 . S
C3582 C3585 1.403 . S
C3583 C3580 1.403 . S
C3583 C3584 1.524 . S
C3583 C3587 1.400 . S
C3584 H3569 0.960 . S
C3584 H3570 0.960 . S
C3584 H3571 0.960 . S
C3584 C3583 1.524 . S
C3585 C3582 1.403 . S
C3585 C3586 1.392 . S
C3585 C3589 1.495 1_455 S
C3586 C3585 1.392 . S
C3586 C3587 1.385 . S
C3586 C3588 1.478 . S
C3587 H3581 0.930 . S
C3587 C3583 1.400 . S
C3587 C3586 1.385 . S
C3588 C3586 1.478 . S
C3588 C3590 1.381 1_455 S
C3588 C3594 1.383 . S
C3589 C3585 1.495 1_655 S
C3589 H3595 0.959 . S
C3589 H3596 0.964 1_655 S
C3589 H3597 0.960 . S
C3590 C3588 1.381 1_655 S
C3590 C3591 1.394 . S
C3590 H3598 0.930 . S
C3591 C3590 1.394 . S
C3591 C3592 1.383 . S
C3591 H3599 0.929 . S
C3592 C3591 1.383 . S
C3592 C3593 1.377 1_655 S
C3593 H3577 0.930 . S
C3593 C3592 1.377 1_455 S
C3593 C3594 1.379 . S
C3594 H3578 0.931 . S
C3594 C3588 1.383 . S
C3594 C3593 1.379 . S
H3595 C3589 0.959 . S
H3596 C3589 0.964 1_455 S
H3597 C3589 0.960 . S
H3598 C3590 0.930 . S
H3599 C3591 0.929 . S
H3600 C3608 0.929 . S
H3601 C3610 0.930 . S
H3602 C3612 0.930 . S
H3603 C3615 0.929 . S
H3604 C3618 0.930 . S
H3605 C3620 0.960 . S
H3606 C3620 0.960 . S
H3607 C3620 0.960 . S
C3608 H3600 0.929 . S
C3608 C3609 1.377 . S
C3608 C3610 1.384 . S
C3609 C3608 1.377 . S
C3609 C3615 1.390 . S
C3610 H3601 0.930 . S
C3610 C3608 1.384 . S
C3610 C3611 1.372 . S
C3611 C3610 1.372 . S
C3611 C3612 1.400 . S
C3611 C3616 1.490 . S
C3612 H3602 0.930 . S
C3612 C3611 1.400 . S
C3612 C3615 1.386 . S
H3613 C3629 0.930 . S
H3614 C3630 0.931 . S
C3615 H3603 0.929 . S
C3615 C3609 1.390 . S
C3615 C3612 1.386 . S
C3616 C3611 1.490 . S
C3616 C3618 1.395 . S
C3616 C3619 1.403 . S
H3617 C3623 0.930 . S
C3618 H3604 0.930 . S
C3618 C3616 1.395 . S
C3618 C3621 1.403 . S
C3619 C3616 1.403 . S
C3619 C3620 1.524 . S
C3619 C3623 1.400 . S
C3620 H3605 0.960 . S
C3620 H3606 0.960 . S
C3620 H3607 0.960 . S
C3620 C3619 1.524 . S
C3621 C3618 1.403 . S
C3621 C3622 1.392 . S
C3621 C3625 1.495 . S
C3622 C3621 1.392 . S
C3622 C3623 1.385 . S
C3622 C3624 1.478 . S
C3623 H3617 0.930 . S
C3623 C3619 1.400 . S
C3623 C3622 1.385 . S
C3624 C3622 1.478 . S
C3624 C3626 1.381 . S
C3624 C3630 1.383 . S
C3625 C3621 1.495 . S
C3625 H3631 0.959 . S
C3625 H3632 0.961 . S
C3625 H3633 0.960 . S
C3626 C3624 1.381 . S
C3626 C3627 1.394 . S
C3626 H3634 0.930 . S
C3627 C3626 1.394 . S
C3627 C3628 1.383 . S
C3627 H3635 0.929 . S
C3628 C3627 1.383 . S
C3628 C3629 1.377 . S
C3629 H3613 0.930 . S
C3629 C3628 1.377 . S
C3629 C3630 1.379 . S
C3630 H3614 0.931 . S
C3630 C3624 1.383 . S
C3630 C3629 1.379 . S
H3631 C3625 0.959 . S
H3632 C3625 0.961 . S
H3633 C3625 0.960 . S
H3634 C3626 0.930 . S
H3635 C3627 0.929 . S
H3636 C3644 0.929 . S
H3637 C3646 0.930 . S
H3638 C3648 0.930 . S
H3639 C3651 0.929 . S
H3640 C3654 0.930 . S
H3641 C3656 0.960 . S
H3642 C3656 0.960 . S
H3643 C3656 0.960 . S
C3644 H3636 0.929 . S
C3644 C3645 1.377 . S
C3644 C3646 1.384 . S
C3645 C3644 1.377 . S
C3645 C3651 1.390 . S
C3646 H3637 0.930 . S
C3646 C3644 1.384 . S
C3646 C3647 1.372 . S
C3647 C3646 1.372 . S
C3647 C3648 1.400 . S
C3647 C3652 1.490 . S
C3648 H3638 0.930 . S
C3648 C3647 1.400 . S
C3648 C3651 1.386 . S
H3649 C3665 0.930 . S
H3650 C3666 0.931 . S
C3651 H3639 0.929 . S
C3651 C3645 1.390 . S
C3651 C3648 1.386 . S
C3652 C3647 1.490 . S
C3652 C3654 1.395 . S
C3652 C3655 1.403 . S
H3653 C3659 0.930 . S
C3654 H3640 0.930 . S
C3654 C3652 1.395 . S
C3654 C3657 1.403 . S
C3655 C3652 1.403 . S
C3655 C3656 1.524 . S
C3655 C3659 1.400 . S
C3656 H3641 0.960 . S
C3656 H3642 0.960 . S
C3656 H3643 0.960 . S
C3656 C3655 1.524 . S
C3657 C3654 1.403 . S
C3657 C3658 1.392 . S
C3657 C3661 1.495 . S
C3658 C3657 1.392 . S
C3658 C3659 1.385 . S
C3658 C3660 1.478 . S
C3659 H3653 0.930 . S
C3659 C3655 1.400 . S
C3659 C3658 1.385 . S
C3660 C3658 1.478 . S
C3660 C3662 1.381 . S
C3660 C3666 1.383 . S
C3661 C3657 1.495 . S
C3661 H3667 0.959 . S
C3661 H3668 0.961 . S
C3661 H3669 0.960 . S
C3662 C3660 1.381 . S
C3662 C3663 1.394 . S
C3662 H3670 0.930 . S
C3663 C3662 1.394 . S
C3663 C3664 1.383 . S
C3663 H3671 0.929 . S
C3664 C3663 1.383 . S
C3664 C3665 1.377 . S
C3665 H3649 0.930 . S
C3665 C3664 1.377 . S
C3665 C3666 1.379 . S
C3666 H3650 0.931 . S
C3666 C3660 1.383 . S
C3666 C3665 1.379 . S
H3667 C3661 0.959 . S
H3668 C3661 0.961 . S
H3669 C3661 0.960 . S
H3670 C3662 0.930 . S
H3671 C3663 0.929 . S
H3672 C3680 0.929 . S
H3673 C3682 0.930 . S
H3674 C3684 0.930 . S
H3675 C3687 0.929 . S
H3676 C3690 0.930 . S
H3677 C3692 0.960 . S
H3678 C3692 0.960 . S
H3679 C3692 0.960 . S
C3680 H3672 0.929 . S
C3680 C3681 1.377 . S
C3680 C3682 1.384 . S
C3681 C3680 1.377 . S
C3681 C3687 1.390 . S
C3682 H3673 0.930 . S
C3682 C3680 1.384 . S
C3682 C3683 1.372 . S
C3683 C3682 1.372 . S
C3683 C3684 1.400 . S
C3683 C3688 1.490 . S
C3684 H3674 0.930 . S
C3684 C3683 1.400 . S
C3684 C3687 1.386 . S
H3685 C3701 0.930 . S
H3686 C3702 0.931 . S
C3687 H3675 0.929 . S
C3687 C3681 1.390 . S
C3687 C3684 1.386 . S
C3688 C3683 1.490 . S
C3688 C3690 1.395 . S
C3688 C3691 1.403 . S
H3689 C3695 0.930 . S
C3690 H3676 0.930 . S
C3690 C3688 1.395 . S
C3690 C3693 1.403 . S
C3691 C3688 1.403 . S
C3691 C3692 1.524 . S
C3691 C3695 1.400 . S
C3692 H3677 0.960 . S
C3692 H3678 0.960 . S
C3692 H3679 0.960 . S
C3692 C3691 1.524 . S
C3693 C3690 1.403 . S
C3693 C3694 1.392 . S
C3693 C3697 1.495 . S
C3694 C3693 1.392 . S
C3694 C3695 1.385 . S
C3694 C3696 1.478 . S
C3695 H3689 0.930 . S
C3695 C3691 1.400 . S
C3695 C3694 1.385 . S
C3696 C3694 1.478 . S
C3696 C3698 1.381 . S
C3696 C3702 1.383 . S
C3697 C3693 1.495 . S
C3697 H3703 0.959 . S
C3697 H3704 0.961 . S
C3697 H3705 0.960 . S
C3698 C3696 1.381 . S
C3698 C3699 1.394 . S
C3698 H3706 0.930 . S
C3699 C3698 1.394 . S
C3699 C3700 1.383 . S
C3699 H3707 0.929 . S
C3700 C3699 1.383 . S
C3700 C3701 1.377 . S
C3701 H3685 0.930 . S
C3701 C3700 1.377 . S
C3701 C3702 1.379 . S
C3702 H3686 0.931 . S
C3702 C3696 1.383 . S
C3702 C3701 1.379 . S
H3703 C3697 0.959 . S
H3704 C3697 0.961 . S
H3705 C3697 0.960 . S
H3706 C3698 0.930 . S
H3707 C3699 0.929 . S
H3708 C3716 0.929 . S
H3709 C3718 0.930 . S
H3710 C3720 0.930 . S
H3711 C3723 0.929 . S
H3712 C3726 0.930 . S
H3713 C3728 0.960 . S
H3714 C3728 0.960 . S
H3715 C3728 0.960 . S
C3716 H3708 0.929 . S
C3716 C3717 1.377 . S
C3716 C3718 1.384 . S
C3717 C3716 1.377 . S
C3717 C3723 1.390 . S
C3718 H3709 0.930 . S
C3718 C3716 1.384 . S
C3718 C3719 1.372 . S
C3719 C3718 1.372 . S
C3719 C3720 1.400 . S
C3719 C3724 1.490 . S
C3720 H3710 0.930 . S
C3720 C3719 1.400 . S
C3720 C3723 1.386 . S
H3721 C3737 0.930 . S
H3722 C3738 0.931 . S
C3723 H3711 0.929 . S
C3723 C3717 1.390 . S
C3723 C3720 1.386 . S
C3724 C3719 1.490 . S
C3724 C3726 1.395 . S
C3724 C3727 1.403 . S
H3725 C3731 0.930 . S
C3726 H3712 0.930 . S
C3726 C3724 1.395 . S
C3726 C3729 1.403 . S
C3727 C3724 1.403 . S
C3727 C3728 1.524 . S
C3727 C3731 1.400 . S
C3728 H3713 0.960 . S
C3728 H3714 0.960 . S
C3728 H3715 0.960 . S
C3728 C3727 1.524 . S
C3729 C3726 1.403 . S
C3729 C3730 1.392 . S
C3729 C3733 1.495 . S
C3730 C3729 1.392 . S
C3730 C3731 1.385 . S
C3730 C3732 1.478 . S
C3731 H3725 0.930 . S
C3731 C3727 1.400 . S
C3731 C3730 1.385 . S
C3732 C3730 1.478 . S
C3732 C3734 1.381 . S
C3732 C3738 1.383 . S
C3733 C3729 1.495 . S
C3733 H3739 0.959 . S
C3733 H3740 0.961 . S
C3733 H3741 0.960 . S
C3734 C3732 1.381 . S
C3734 C3735 1.394 . S
C3734 H3742 0.930 . S
C3735 C3734 1.394 . S
C3735 C3736 1.383 . S
C3735 H3743 0.929 . S
C3736 C3735 1.383 . S
C3736 C3737 1.377 . S
C3737 H3721 0.930 . S
C3737 C3736 1.377 . S
C3737 C3738 1.379 . S
C3738 H3722 0.931 . S
C3738 C3732 1.383 . S
C3738 C3737 1.379 . S
H3739 C3733 0.959 . S
H3740 C3733 0.961 . S
H3741 C3733 0.960 . S
H3742 C3734 0.930 . S
H3743 C3735 0.929 . S
H3744 C3752 0.929 . S
H3745 C3754 0.930 . S
H3746 C3756 0.930 . S
H3747 C3759 0.929 . S
H3748 C3762 0.930 . S
H3749 C3764 0.960 . S
H3750 C3764 0.960 . S
H3751 C3764 0.960 . S
C3752 H3744 0.929 . S
C3752 C3753 1.377 . S
C3752 C3754 1.384 . S
C3753 C3752 1.377 . S
C3753 C3759 1.390 . S
C3754 H3745 0.930 . S
C3754 C3752 1.384 . S
C3754 C3755 1.372 . S
C3755 C3754 1.372 . S
C3755 C3756 1.400 . S
C3755 C3760 1.490 . S
C3756 H3746 0.930 . S
C3756 C3755 1.400 . S
C3756 C3759 1.386 . S
H3757 C3773 0.930 . S
H3758 C3774 0.931 . S
C3759 H3747 0.929 . S
C3759 C3753 1.390 . S
C3759 C3756 1.386 . S
C3760 C3755 1.490 . S
C3760 C3762 1.395 . S
C3760 C3763 1.403 . S
H3761 C3767 0.930 . S
C3762 H3748 0.930 . S
C3762 C3760 1.395 . S
C3762 C3765 1.403 . S
C3763 C3760 1.403 . S
C3763 C3764 1.524 . S
C3763 C3767 1.400 . S
C3764 H3749 0.960 . S
C3764 H3750 0.960 . S
C3764 H3751 0.960 . S
C3764 C3763 1.524 . S
C3765 C3762 1.403 . S
C3765 C3766 1.392 . S
C3765 C3769 1.495 . S
C3766 C3765 1.392 . S
C3766 C3767 1.385 . S
C3766 C3768 1.478 . S
C3767 H3761 0.930 . S
C3767 C3763 1.400 . S
C3767 C3766 1.385 . S
C3768 C3766 1.478 . S
C3768 C3770 1.381 . S
C3768 C3774 1.383 . S
C3769 C3765 1.495 . S
C3769 H3775 0.959 . S
C3769 H3776 0.961 . S
C3769 H3777 0.960 1_545 S
C3770 C3768 1.381 . S
C3770 C3771 1.394 1_545 S
C3770 H3778 0.930 1_545 S
C3771 C3770 1.394 1_565 S
C3771 C3772 1.383 1_565 S
C3771 H3779 0.929 . S
C3772 C3771 1.383 1_545 S
C3772 C3773 1.377 . S
C3773 H3757 0.930 . S
C3773 C3772 1.377 . S
C3773 C3774 1.379 . S
C3774 H3758 0.931 . S
C3774 C3768 1.383 . S
C3774 C3773 1.379 . S
H3775 C3769 0.959 . S
H3776 C3769 0.961 . S
H3777 C3769 0.960 1_565 S
H3778 C3770 0.930 1_565 S
H3779 C3771 0.929 . S
H3780 C3788 0.929 . S
H3781 C3790 0.930 . S
H3782 C3792 0.930 . S
H3783 C3795 0.929 . S
H3784 C3798 0.930 . S
H3785 C3800 0.960 . S
H3786 C3800 0.960 . S
H3787 C3800 0.960 . S
C3788 H3780 0.929 . S
C3788 C3789 1.377 . S
C3788 C3790 1.384 . S
C3789 C3788 1.377 . S
C3789 C3795 1.390 . S
C3790 H3781 0.930 . S
C3790 C3788 1.384 . S
C3790 C3791 1.372 . S
C3791 C3790 1.372 . S
C3791 C3792 1.400 . S
C3791 C3796 1.490 . S
C3792 H3782 0.930 . S
C3792 C3791 1.400 . S
C3792 C3795 1.386 . S
H3793 C3809 0.930 . S
H3794 C3810 0.931 . S
C3795 H3783 0.929 . S
C3795 C3789 1.390 . S
C3795 C3792 1.386 . S
C3796 C3791 1.490 . S
C3796 C3798 1.395 . S
C3796 C3799 1.403 . S
H3797 C3803 0.930 . S
C3798 H3784 0.930 . S
C3798 C3796 1.395 . S
C3798 C3801 1.403 . S
C3799 C3796 1.403 . S
C3799 C3800 1.524 . S
C3799 C3803 1.400 . S
C3800 H3785 0.960 . S
C3800 H3786 0.960 . S
C3800 H3787 0.960 . S
C3800 C3799 1.524 . S
C3801 C3798 1.403 . S
C3801 C3802 1.392 . S
C3801 C3805 1.495 1_655 S
C3802 C3801 1.392 . S
C3802 C3803 1.385 . S
C3802 C3804 1.478 . S
C3803 H3797 0.930 . S
C3803 C3799 1.400 . S
C3803 C3802 1.385 . S
C3804 C3802 1.478 . S
C3804 C3806 1.381 . S
C3804 C3810 1.383 . S
C3805 C3801 1.495 1_455 S
C3805 H3811 0.959 . S
C3805 H3812 0.961 . S
C3805 H3813 0.960 . S
C3806 C3804 1.381 . S
C3806 C3807 1.394 . S
C3806 H3814 0.930 . S
C3807 C3806 1.394 . S
C3807 C3808 1.383 . S
C3807 H3815 0.929 . S
C3808 C3807 1.383 . S
C3808 C3809 1.377 . S
C3809 H3793 0.930 . S
C3809 C3808 1.377 . S
C3809 C3810 1.379 . S
C3810 H3794 0.931 . S
C3810 C3804 1.383 . S
C3810 C3809 1.379 . S
H3811 C3805 0.959 . S
H3812 C3805 0.961 . S
H3813 C3805 0.960 . S
H3814 C3806 0.930 . S
H3815 C3807 0.929 . S
H3816 C3824 0.929 . S
H3817 C3826 0.930 . S
H3818 C3828 0.930 . S
H3819 C3831 0.929 . S
H3820 C3834 0.930 . S
H3821 C3836 0.960 . S
H3822 C3836 0.960 . S
H3823 C3836 0.960 . S
C3824 H3816 0.929 . S
C3824 C3825 1.377 . S
C3824 C3826 1.384 . S
C3825 C3824 1.377 . S
C3825 C3831 1.390 . S
C3826 H3817 0.930 . S
C3826 C3824 1.384 . S
C3826 C3827 1.372 . S
C3827 C3826 1.372 . S
C3827 C3828 1.400 . S
C3827 C3832 1.490 . S
C3828 H3818 0.930 . S
C3828 C3827 1.400 . S
C3828 C3831 1.386 . S
H3829 C3845 0.930 . S
H3830 C3846 0.931 . S
C3831 H3819 0.929 . S
C3831 C3825 1.390 . S
C3831 C3828 1.386 . S
C3832 C3827 1.490 . S
C3832 C3834 1.395 . S
C3832 C3835 1.403 . S
H3833 C3839 0.930 . S
C3834 H3820 0.930 . S
C3834 C3832 1.395 . S
C3834 C3837 1.403 . S
C3835 C3832 1.403 . S
C3835 C3836 1.524 . S
C3835 C3839 1.400 . S
C3836 H3821 0.960 . S
C3836 H3822 0.960 . S
C3836 H3823 0.960 . S
C3836 C3835 1.524 . S
C3837 C3834 1.403 . S
C3837 C3838 1.392 . S
C3837 C3841 1.495 . S
C3838 C3837 1.392 . S
C3838 C3839 1.385 . S
C3838 C3840 1.478 . S
C3839 H3833 0.930 . S
C3839 C3835 1.400 . S
C3839 C3838 1.385 . S
C3840 C3838 1.478 . S
C3840 C3842 1.381 . S
C3840 C3846 1.383 . S
C3841 C3837 1.495 . S
C3841 H3847 0.959 . S
C3841 H3848 0.961 . S
C3841 H3849 0.960 . S
C3842 C3840 1.381 . S
C3842 C3843 1.394 . S
C3842 H3850 0.930 . S
C3843 C3842 1.394 . S
C3843 C3844 1.383 . S
C3843 H3851 0.929 . S
C3844 C3843 1.383 . S
C3844 C3845 1.377 . S
C3845 H3829 0.930 . S
C3845 C3844 1.377 . S
C3845 C3846 1.379 . S
C3846 H3830 0.931 . S
C3846 C3840 1.383 . S
C3846 C3845 1.379 . S
H3847 C3841 0.959 . S
H3848 C3841 0.961 . S
H3849 C3841 0.960 . S
H3850 C3842 0.930 . S
H3851 C3843 0.929 . S
H3852 C3860 0.929 . S
H3853 C3862 0.930 . S
H3854 C3864 0.930 . S
H3855 C3867 0.929 . S
H3856 C3870 0.930 . S
H3857 C3872 0.960 . S
H3858 C3872 0.960 . S
H3859 C3872 0.960 . S
C3860 H3852 0.929 . S
C3860 C3861 1.377 . S
C3860 C3862 1.384 . S
C3861 C3860 1.377 . S
C3861 C3867 1.390 . S
C3862 H3853 0.930 . S
C3862 C3860 1.384 . S
C3862 C3863 1.372 . S
C3863 C3862 1.372 . S
C3863 C3864 1.400 . S
C3863 C3868 1.490 . S
C3864 H3854 0.930 . S
C3864 C3863 1.400 . S
C3864 C3867 1.386 . S
H3865 C3881 0.930 . S
H3866 C3882 0.931 . S
C3867 H3855 0.929 . S
C3867 C3861 1.390 . S
C3867 C3864 1.386 . S
C3868 C3863 1.490 . S
C3868 C3870 1.395 . S
C3868 C3871 1.403 . S
H3869 C3875 0.930 . S
C3870 H3856 0.930 . S
C3870 C3868 1.395 . S
C3870 C3873 1.403 . S
C3871 C3868 1.403 . S
C3871 C3872 1.524 . S
C3871 C3875 1.400 . S
C3872 H3857 0.960 . S
C3872 H3858 0.960 . S
C3872 H3859 0.960 . S
C3872 C3871 1.524 . S
C3873 C3870 1.403 . S
C3873 C3874 1.392 . S
C3873 C3877 1.495 . S
C3874 C3873 1.392 . S
C3874 C3875 1.385 . S
C3874 C3876 1.478 . S
C3875 H3869 0.930 . S
C3875 C3871 1.400 . S
C3875 C3874 1.385 . S
C3876 C3874 1.478 . S
C3876 C3878 1.381 . S
C3876 C3882 1.383 . S
C3877 C3873 1.495 . S
C3877 H3883 0.959 . S
C3877 H3884 0.961 . S
C3877 H3885 0.960 . S
C3878 C3876 1.381 . S
C3878 C3879 1.394 . S
C3878 H3886 0.930 . S
C3879 C3878 1.394 . S
C3879 C3880 1.383 . S
C3879 H3887 0.929 . S
C3880 C3879 1.383 . S
C3880 C3881 1.377 . S
C3881 H3865 0.930 . S
C3881 C3880 1.377 . S
C3881 C3882 1.379 . S
C3882 H3866 0.931 . S
C3882 C3876 1.383 . S
C3882 C3881 1.379 . S
H3883 C3877 0.959 . S
H3884 C3877 0.961 . S
H3885 C3877 0.960 . S
H3886 C3878 0.930 . S
H3887 C3879 0.929 . S
H3888 C3896 0.929 1_545 S
H3889 C3898 0.930 . S
H3890 C3900 0.930 . S
H3891 C3903 0.929 . S
H3892 C3906 0.930 . S
H3893 C3908 0.960 . S
H3894 C3908 0.960 . S
H3895 C3908 0.960 . S
C3896 H3888 0.929 1_565 S
C3896 C3897 1.377 . S
C3896 C3898 1.384 . S
C3897 C3896 1.377 . S
C3897 C3903 1.390 . S
C3898 H3889 0.930 . S
C3898 C3896 1.384 . S
C3898 C3899 1.372 . S
C3899 C3898 1.372 . S
C3899 C3900 1.400 . S
C3899 C3904 1.490 . S
C3900 H3890 0.930 . S
C3900 C3899 1.400 . S
C3900 C3903 1.386 . S
H3901 C3917 0.930 . S
H3902 C3918 0.931 . S
C3903 H3891 0.929 . S
C3903 C3897 1.390 . S
C3903 C3900 1.386 . S
C3904 C3899 1.490 . S
C3904 C3906 1.395 . S
C3904 C3907 1.403 . S
H3905 C3911 0.930 . S
C3906 H3892 0.930 . S
C3906 C3904 1.395 . S
C3906 C3909 1.403 . S
C3907 C3904 1.403 . S
C3907 C3908 1.524 . S
C3907 C3911 1.400 . S
C3908 H3893 0.960 . S
C3908 H3894 0.960 . S
C3908 H3895 0.960 . S
C3908 C3907 1.524 . S
C3909 C3906 1.403 . S
C3909 C3910 1.392 . S
C3909 C3913 1.495 . S
C3910 C3909 1.392 . S
C3910 C3911 1.385 . S
C3910 C3912 1.478 . S
C3911 H3905 0.930 . S
C3911 C3907 1.400 . S
C3911 C3910 1.385 . S
C3912 C3910 1.478 . S
C3912 C3914 1.381 . S
C3912 C3918 1.383 . S
C3913 C3909 1.495 . S
C3913 H3919 0.959 . S
C3913 H3920 0.961 . S
C3913 H3921 0.960 . S
C3914 C3912 1.381 . S
C3914 C3915 1.394 . S
C3914 H3922 0.930 . S
C3915 C3914 1.394 . S
C3915 C3916 1.383 . S
C3915 H3923 0.929 . S
C3916 C3915 1.383 . S
C3916 C3917 1.377 . S
C3917 H3901 0.930 . S
C3917 C3916 1.377 . S
C3917 C3918 1.379 . S
C3918 H3902 0.931 . S
C3918 C3912 1.383 . S
C3918 C3917 1.379 . S
H3919 C3913 0.959 . S
H3920 C3913 0.961 . S
H3921 C3913 0.960 . S
H3922 C3914 0.930 . S
H3923 C3915 0.929 . S
H3924 C3932 0.929 . S
H3925 C3934 0.930 . S
H3926 C3936 0.930 . S
H3927 C3939 0.929 . S
H3928 C3942 0.930 . S
H3929 C3944 0.960 . S
H3930 C3944 0.960 . S
H3931 C3944 0.960 . S
C3932 H3924 0.929 . S
C3932 C3933 1.377 . S
C3932 C3934 1.384 . S
C3933 C3932 1.377 . S
C3933 C3939 1.390 . S
C3934 H3925 0.930 . S
C3934 C3932 1.384 . S
C3934 C3935 1.372 . S
C3935 C3934 1.372 . S
C3935 C3936 1.400 . S
C3935 C3940 1.490 . S
C3936 H3926 0.930 . S
C3936 C3935 1.400 . S
C3936 C3939 1.386 . S
H3937 C3953 0.930 . S
H3938 C3954 0.931 . S
C3939 H3927 0.929 . S
C3939 C3933 1.390 . S
C3939 C3936 1.386 . S
C3940 C3935 1.490 . S
C3940 C3942 1.395 . S
C3940 C3943 1.403 . S
H3941 C3947 0.930 . S
C3942 H3928 0.930 . S
C3942 C3940 1.395 . S
C3942 C3945 1.403 . S
C3943 C3940 1.403 . S
C3943 C3944 1.524 . S
C3943 C3947 1.400 . S
C3944 H3929 0.960 . S
C3944 H3930 0.960 . S
C3944 H3931 0.960 . S
C3944 C3943 1.524 . S
C3945 C3942 1.403 . S
C3945 C3946 1.392 . S
C3945 C3949 1.495 . S
C3946 C3945 1.392 . S
C3946 C3947 1.385 . S
C3946 C3948 1.478 . S
C3947 H3941 0.930 . S
C3947 C3943 1.400 . S
C3947 C3946 1.385 . S
C3948 C3946 1.478 . S
C3948 C3950 1.381 . S
C3948 C3954 1.383 . S
C3949 C3945 1.495 . S
C3949 H3955 0.959 . S
C3949 H3956 0.961 . S
C3949 H3957 0.960 . S
C3950 C3948 1.381 . S
C3950 C3951 1.394 . S
C3950 H3958 0.930 . S
C3951 C3950 1.394 . S
C3951 C3952 1.383 . S
C3951 H3959 0.929 . S
C3952 C3951 1.383 . S
C3952 C3953 1.377 . S
C3953 H3937 0.930 . S
C3953 C3952 1.377 . S
C3953 C3954 1.379 . S
C3954 H3938 0.931 . S
C3954 C3948 1.383 . S
C3954 C3953 1.379 . S
H3955 C3949 0.959 . S
H3956 C3949 0.961 . S
H3957 C3949 0.960 . S
H3958 C3950 0.930 . S
H3959 C3951 0.929 . S
H3960 C3968 0.929 . S
H3961 C3970 0.930 . S
H3962 C3972 0.930 . S
H3963 C3975 0.929 . S
H3964 C3978 0.930 . S
H3965 C3980 0.960 . S
H3966 C3980 0.960 . S
H3967 C3980 0.960 . S
C3968 H3960 0.929 . S
C3968 C3969 1.377 . S
C3968 C3970 1.384 . S
C3969 C3968 1.377 . S
C3969 C3975 1.390 . S
C3970 H3961 0.930 . S
C3970 C3968 1.384 . S
C3970 C3971 1.372 . S
C3971 C3970 1.372 . S
C3971 C3972 1.400 . S
C3971 C3976 1.490 . S
C3972 H3962 0.930 . S
C3972 C3971 1.400 . S
C3972 C3975 1.386 . S
H3973 C3989 0.930 . S
H3974 C3990 0.931 . S
C3975 H3963 0.929 . S
C3975 C3969 1.390 . S
C3975 C3972 1.386 . S
C3976 C3971 1.490 . S
C3976 C3978 1.395 . S
C3976 C3979 1.403 . S
H3977 C3983 0.930 . S
C3978 H3964 0.930 . S
C3978 C3976 1.395 . S
C3978 C3981 1.403 . S
C3979 C3976 1.403 . S
C3979 C3980 1.524 . S
C3979 C3983 1.400 . S
C3980 H3965 0.960 . S
C3980 H3966 0.960 . S
C3980 H3967 0.960 . S
C3980 C3979 1.524 . S
C3981 C3978 1.403 . S
C3981 C3982 1.392 . S
C3981 C3985 1.495 . S
C3982 C3981 1.392 . S
C3982 C3983 1.385 . S
C3982 C3984 1.478 . S
C3983 H3977 0.930 . S
C3983 C3979 1.400 . S
C3983 C3982 1.385 . S
C3984 C3982 1.478 . S
C3984 C3986 1.381 . S
C3984 C3990 1.383 . S
C3985 C3981 1.495 . S
C3985 H3991 0.959 . S
C3985 H3992 0.961 . S
C3985 H3993 0.960 . S
C3986 C3984 1.381 . S
C3986 C3987 1.394 . S
C3986 H3994 0.930 . S
C3987 C3986 1.394 . S
C3987 C3988 1.383 . S
C3987 H3995 0.929 . S
C3988 C3987 1.383 . S
C3988 C3989 1.377 . S
C3989 H3973 0.930 . S
C3989 C3988 1.377 . S
C3989 C3990 1.379 . S
C3990 H3974 0.931 . S
C3990 C3984 1.383 . S
C3990 C3989 1.379 . S
H3991 C3985 0.959 . S
H3992 C3985 0.961 . S
H3993 C3985 0.960 . S
H3994 C3986 0.930 . S
H3995 C3987 0.929 . S
H3996 C4004 0.929 . S
H3997 C4006 0.930 . S
H3998 C4008 0.930 . S
H3999 C4011 0.929 . S
H4000 C4014 0.930 . S
H4001 C4016 0.960 . S
H4002 C4016 0.960 . S
H4003 C4016 0.960 . S
C4004 H3996 0.929 . S
C4004 C4005 1.377 . S
C4004 C4006 1.384 . S
C4005 C4004 1.377 . S
C4005 C4011 1.390 . S
C4006 H3997 0.930 . S
C4006 C4004 1.384 . S
C4006 C4007 1.372 . S
C4007 C4006 1.372 . S
C4007 C4008 1.400 . S
C4007 C4012 1.490 . S
C4008 H3998 0.930 . S
C4008 C4007 1.400 . S
C4008 C4011 1.386 . S
H4009 C4025 0.930 . S
H4010 C4026 0.931 . S
C4011 H3999 0.929 . S
C4011 C4005 1.390 . S
C4011 C4008 1.386 . S
C4012 C4007 1.490 . S
C4012 C4014 1.395 . S
C4012 C4015 1.403 . S
H4013 C4019 0.930 . S
C4014 H4000 0.930 . S
C4014 C4012 1.395 . S
C4014 C4017 1.403 . S
C4015 C4012 1.403 . S
C4015 C4016 1.524 . S
C4015 C4019 1.400 . S
C4016 H4001 0.960 . S
C4016 H4002 0.960 . S
C4016 H4003 0.960 . S
C4016 C4015 1.524 . S
C4017 C4014 1.403 . S
C4017 C4018 1.392 . S
C4017 C4021 1.495 . S
C4018 C4017 1.392 . S
C4018 C4019 1.385 . S
C4018 C4020 1.478 . S
C4019 H4013 0.930 . S
C4019 C4015 1.400 . S
C4019 C4018 1.385 . S
C4020 C4018 1.478 . S
C4020 C4022 1.381 . S
C4020 C4026 1.383 . S
C4021 C4017 1.495 . S
C4021 H4027 0.959 . S
C4021 H4028 0.961 . S
C4021 H4029 0.960 . S
C4022 C4020 1.381 . S
C4022 C4023 1.394 . S
C4022 H4030 0.930 . S
C4023 C4022 1.394 . S
C4023 C4024 1.383 . S
C4023 H4031 0.929 . S
C4024 C4023 1.383 . S
C4024 C4025 1.377 . S
C4025 H4009 0.930 . S
C4025 C4024 1.377 . S
C4025 C4026 1.379 . S
C4026 H4010 0.931 . S
C4026 C4020 1.383 . S
C4026 C4025 1.379 . S
H4027 C4021 0.959 . S
H4028 C4021 0.961 . S
H4029 C4021 0.960 . S
H4030 C4022 0.930 . S
H4031 C4023 0.929 . S
H4032 C4040 0.929 . S
H4033 C4042 0.930 . S
H4034 C4044 0.930 . S
H4035 C4047 0.929 . S
H4036 C4050 0.930 . S
H4037 C4052 0.960 . S
H4038 C4052 0.960 . S
H4039 C4052 0.960 . S
C4040 H4032 0.929 . S
C4040 C4041 1.377 . S
C4040 C4042 1.384 1_655 S
C4041 C4040 1.377 . S
C4041 C4047 1.390 1_655 S
C4042 H4033 0.930 . S
C4042 C4040 1.384 1_455 S
C4042 C4043 1.372 . S
C4043 C4042 1.372 . S
C4043 C4044 1.400 . S
C4043 C4048 1.490 . S
C4044 H4034 0.930 . S
C4044 C4043 1.400 . S
C4044 C4047 1.386 . S
H4045 C4061 0.930 . S
H4046 C4062 0.931 . S
C4047 H4035 0.929 . S
C4047 C4041 1.390 1_455 S
C4047 C4044 1.386 . S
C4048 C4043 1.490 . S
C4048 C4050 1.395 . S
C4048 C4051 1.403 . S
H4049 C4055 0.930 . S
C4050 H4036 0.930 . S
C4050 C4048 1.395 . S
C4050 C4053 1.403 . S
C4051 C4048 1.403 . S
C4051 C4052 1.524 . S
C4051 C4055 1.400 . S
C4052 H4037 0.960 . S
C4052 H4038 0.960 . S
C4052 H4039 0.960 . S
C4052 C4051 1.524 . S
C4053 C4050 1.403 . S
C4053 C4054 1.392 . S
C4053 C4057 1.495 . S
C4054 C4053 1.392 . S
C4054 C4055 1.385 . S
C4054 C4056 1.478 . S
C4055 H4049 0.930 . S
C4055 C4051 1.400 . S
C4055 C4054 1.385 . S
C4056 C4054 1.478 . S
C4056 C4058 1.381 . S
C4056 C4062 1.383 . S
C4057 C4053 1.495 . S
C4057 H4063 0.959 . S
C4057 H4064 0.961 . S
C4057 H4065 0.960 . S
C4058 C4056 1.381 . S
C4058 C4059 1.394 . S
C4058 H4066 0.930 . S
C4059 C4058 1.394 . S
C4059 C4060 1.383 . S
C4059 H4067 0.929 . S
C4060 C4059 1.383 . S
C4060 C4061 1.377 . S
C4061 H4045 0.930 . S
C4061 C4060 1.377 . S
C4061 C4062 1.379 . S
C4062 H4046 0.931 . S
C4062 C4056 1.383 . S
C4062 C4061 1.379 . S
H4063 C4057 0.959 . S
H4064 C4057 0.961 . S
H4065 C4057 0.960 . S
H4066 C4058 0.930 . S
H4067 C4059 0.929 . S
H4068 C4076 0.929 . S
H4069 C4078 0.930 . S
H4070 C4080 0.930 . S
H4071 C4083 0.929 . S
H4072 C4086 0.930 . S
H4073 C4088 0.960 . S
H4074 C4088 1.004 . S
H4075 C4088 0.965 . S
C4076 H4068 0.929 . S
C4076 C4077 1.377 . S
C4076 C4078 1.384 . S
C4077 C4076 1.377 . S
C4077 C4083 1.390 . S
C4078 H4069 0.930 . S
C4078 C4076 1.384 . S
C4078 C4079 1.372 . S
C4079 C4078 1.372 . S
C4079 C4080 1.400 . S
C4079 C4084 1.490 . S
C4080 H4070 0.930 . S
C4080 C4079 1.400 . S
C4080 C4083 1.386 . S
H4081 C4097 0.930 1_455 S
H4082 C4098 0.931 . S
C4083 H4071 0.929 . S
C4083 C4077 1.390 . S
C4083 C4080 1.386 . S
C4084 C4079 1.490 . S
C4084 C4086 1.395 . S
C4084 C4087 1.403 . S
H4085 C4091 0.930 1_455 S
C4086 H4072 0.930 . S
C4086 C4084 1.395 . S
C4086 C4089 1.403 . S
C4087 C4084 1.403 . S
C4087 C4088 1.524 1_655 S
C4087 C4091 1.400 . S
C4088 H4073 0.960 . S
C4088 H4074 1.004 . S
C4088 H4075 0.965 . S
C4088 C4087 1.524 1_455 S
C4089 C4086 1.403 . S
C4089 C4090 1.392 . S
C4089 C4093 1.495 . S
C4090 C4089 1.392 . S
C4090 C4091 1.385 . S
C4090 C4092 1.478 . S
C4091 H4085 0.930 1_655 S
C4091 C4087 1.400 . S
C4091 C4090 1.385 . S
C4092 C4090 1.478 . S
C4092 C4094 1.381 . S
C4092 C4098 1.383 . S
C4093 C4089 1.495 . S
C4093 H4099 0.959 . S
C4093 H4100 0.961 . S
C4093 H4101 0.960 . S
C4094 C4092 1.381 . S
C4094 C4095 1.394 . S
C4094 H4102 0.930 . S
C4095 C4094 1.394 . S
C4095 C4096 1.383 . S
C4095 H4103 0.929 . S
C4096 C4095 1.383 . S
C4096 C4097 1.377 . S
C4097 H4081 0.930 1_655 S
C4097 C4096 1.377 . S
C4097 C4098 1.379 . S
C4098 H4082 0.931 . S
C4098 C4092 1.383 . S
C4098 C4097 1.379 . S
H4099 C4093 0.959 . S
H4100 C4093 0.961 . S
H4101 C4093 0.960 . S
H4102 C4094 0.930 . S
H4103 C4095 0.929 . S
H4104 C4112 0.929 . S
H4105 C4114 0.930 . S
H4106 C4116 0.930 . S
H4107 C4119 0.929 . S
H4108 C4122 0.930 . S
H4109 C4124 0.960 . S
H4110 C4124 0.960 . S
H4111 C4124 0.960 . S
C4112 H4104 0.929 . S
C4112 C4113 1.377 . S
C4112 C4114 1.384 . S
C4113 C4112 1.377 . S
C4113 C4119 1.390 . S
C4114 H4105 0.930 . S
C4114 C4112 1.384 . S
C4114 C4115 1.372 . S
C4115 C4114 1.372 . S
C4115 C4116 1.400 . S
C4115 C4120 1.490 . S
C4116 H4106 0.930 . S
C4116 C4115 1.400 . S
C4116 C4119 1.386 . S
H4117 C4133 0.930 . S
H4118 C4134 0.931 . S
C4119 H4107 0.929 . S
C4119 C4113 1.390 . S
C4119 C4116 1.386 . S
C4120 C4115 1.490 . S
C4120 C4122 1.395 . S
C4120 C4123 1.403 . S
H4121 C4127 0.930 . S
C4122 H4108 0.930 . S
C4122 C4120 1.395 . S
C4122 C4125 1.403 . S
C4123 C4120 1.403 . S
C4123 C4124 1.524 . S
C4123 C4127 1.400 . S
C4124 H4109 0.960 . S
C4124 H4110 0.960 . S
C4124 H4111 0.960 . S
C4124 C4123 1.524 . S
C4125 C4122 1.403 . S
C4125 C4126 1.392 . S
C4125 C4129 1.495 . S
C4126 C4125 1.392 . S
C4126 C4127 1.385 . S
C4126 C4128 1.478 . S
C4127 H4121 0.930 . S
C4127 C4123 1.400 . S
C4127 C4126 1.385 . S
C4128 C4126 1.478 . S
C4128 C4130 1.381 . S
C4128 C4134 1.383 . S
C4129 C4125 1.495 . S
C4129 H4135 0.959 . S
C4129 H4136 0.961 . S
C4129 H4137 0.960 . S
C4130 C4128 1.381 . S
C4130 C4131 1.394 . S
C4130 H4138 0.930 . S
C4131 C4130 1.394 . S
C4131 C4132 1.383 . S
C4131 H4139 0.929 . S
C4132 C4131 1.383 . S
C4132 C4133 1.377 . S
C4133 H4117 0.930 . S
C4133 C4132 1.377 . S
C4133 C4134 1.379 . S
C4134 H4118 0.931 . S
C4134 C4128 1.383 . S
C4134 C4133 1.379 . S
H4135 C4129 0.959 . S
H4136 C4129 0.961 . S
H4137 C4129 0.960 . S
H4138 C4130 0.930 . S
H4139 C4131 0.929 . S
H4140 C4148 0.929 . S
H4141 C4150 0.930 . S
H4142 C4152 0.930 . S
H4143 C4155 0.929 . S
H4144 C4158 0.930 . S
H4145 C4160 0.960 1_565 S
H4146 C4160 0.960 1_565 S
H4147 C4160 0.960 . S
C4148 H4140 0.929 . S
C4148 C4149 1.377 . S
C4148 C4150 1.384 . S
C4149 C4148 1.377 . S
C4149 C4155 1.390 . S
C4150 H4141 0.930 . S
C4150 C4148 1.384 . S
C4150 C4151 1.372 . S
C4151 C4150 1.372 . S
C4151 C4152 1.400 . S
C4151 C4156 1.490 . S
C4152 H4142 0.930 . S
C4152 C4151 1.400 . S
C4152 C4155 1.386 . S
H4153 C4169 0.930 . S
H4154 C4170 0.931 . S
C4155 H4143 0.929 . S
C4155 C4149 1.390 . S
C4155 C4152 1.386 . S
C4156 C4151 1.490 . S
C4156 C4158 1.395 . S
C4156 C4159 1.403 . S
H4157 C4163 0.930 . S
C4158 H4144 0.930 . S
C4158 C4156 1.395 . S
C4158 C4161 1.403 . S
C4159 C4156 1.403 . S
C4159 C4160 1.524 . S
C4159 C4163 1.400 . S
C4160 H4145 0.960 1_545 S
C4160 H4146 0.960 1_545 S
C4160 H4147 0.960 . S
C4160 C4159 1.524 . S
C4161 C4158 1.403 . S
C4161 C4162 1.392 . S
C4161 C4165 1.495 . S
C4162 C4161 1.392 . S
C4162 C4163 1.385 . S
C4162 C4164 1.478 . S
C4163 H4157 0.930 . S
C4163 C4159 1.400 . S
C4163 C4162 1.385 . S
C4164 C4162 1.478 . S
C4164 C4166 1.381 . S
C4164 C4170 1.383 . S
C4165 C4161 1.495 . S
C4165 H4171 0.959 . S
C4165 H4172 0.961 . S
C4165 H4173 0.960 . S
C4166 C4164 1.381 . S
C4166 C4167 1.394 1_545 S
C4166 H4174 0.930 1_545 S
C4167 C4166 1.394 1_565 S
C4167 C4168 1.383 1_565 S
C4167 H4175 0.929 . S
C4168 C4167 1.383 1_545 S
C4168 C4169 1.377 . S
C4169 H4153 0.930 . S
C4169 C4168 1.377 . S
C4169 C4170 1.379 . S
C4170 H4154 0.931 . S
C4170 C4164 1.383 . S
C4170 C4169 1.379 . S
H4171 C4165 0.959 . S
H4172 C4165 0.961 . S
H4173 C4165 0.960 . S
H4174 C4166 0.930 1_565 S
H4175 C4167 0.929 . S
C1593 C13 1.043 . S
C1612 C981 1.019 . S
C1629 C27 1.328 . S
C1648 C1061 1.347 . S
C1684 C1129 1.193 . S
C1665 C36 1.174 . S
C1701 C41 1.679 1_556 S
C1720 C1209 1.693 . S
C1737 C8 1.481 1_556 S
C1756 C1283 1.574 . S
C1773 C22 1.443 . S
C1792 C1351 1.407 . S
C1809 C55 0.991 . S
C1828 C1277 1.057 . S
C1864 C1357 1.286 . S
C1845 C69 1.231 . S
C1900 C1203 1.224 1_545 S
C1881 C78 1.158 . S
C1917 C83 1.647 . S
C1936 C1135 1.648 . S
C1972 C987 1.567 . S
C1953 C50 1.464 . S
C1989 C64 1.304 . S
C2008 C1055 1.340 . S
C2025 C97 1.279 . S
C2044 C1425 1.252 . S
C2061 C111 1.357 . S
C2080 C1505 1.423 . S
C2116 C1573 1.398 . S
C2097 C120 1.411 . S
C2133 C125 1.808 . S
C2152 C321 1.845 . S
C2169 C92 1.779 . S
C2188 C395 1.761 . S
C2205 C106 1.485 . S
C2224 C463 1.438 . S
C2241 C139 1.032 . S
C2260 C389 1.029 . S
C2277 C153 1.287 . S
C2296 C469 1.328 . S
C2332 C315 1.342 . S
C2313 C162 1.298 . S
C2368 C1579 1.843 . S
C2349 C167 1.794 . S
C2404 C1431 1.645 . S
C2385 C134 1.586 . S
C2440 C1499 1.397 . S
C2421 C148 1.366 . S
C2457 C181 1.186 . S
C2476 C537 1.191 . S
C2493 C195 1.385 . S
C2512 C617 1.410 . S
C2529 C204 1.459 . S
C2548 C685 1.407 . S
C2565 C209 1.905 . S
C2584 C765 1.926 . S
C2620 C839 1.760 . S
C2601 C176 1.761 . S
C2656 C907 1.513 . S
C2637 C190 1.518 . S
C2692 C833 1.178 . S
C2673 C223 1.125 . S
C2728 C913 1.323 . S
C2709 C237 1.264 . S
C2745 C246 1.228 . S
C2764 C759 1.260 . S
C2800 C691 1.723 . S
C2781 C251 1.688 . S
C2817 C218 1.619 . S
C2836 C543 1.683 . S
C2872 C611 1.362 . S
C2853 C232 1.336 . S
C2908 C291 1.883 . S
C2889 C11 1.889 . S
C2925 C25 1.225 . S
C2944 C365 1.216 . S
C2980 C451 1.368 . S
C2961 C35 1.364 . S
C3016 C525 1.107 . S
C2997 C39 1.072 . S
C3052 C587 1.621 . S
C3033 C7 1.630 . S
C3088 C673 1.447 . S
C3069 C21 1.443 . S
C3105 C53 2.052 . S
C3124 C661 2.038 . S
C3141 C67 1.415 . S
C3160 C513 1.409 . S
C3177 C77 1.551 . S
C3196 C599 1.493 . S
C3213 C81 1.324 . S
C3232 C377 1.302 . S
C3268 C439 1.732 . S
C3249 C49 1.791 . S
C3285 C63 1.652 . S
C3304 C303 1.581 . S
C3340 C735 1.839 . S
C3321 C95 1.843 . S
C3357 C109 1.371 1_545 S
C3376 C809 1.368 . S
C3393 C119 1.455 . S
C3412 C895 1.449 . S
C3448 C969 0.845 . S
C3429 C123 0.816 . S
C3465 C91 1.519 . S
C3484 C1031 1.512 . S
C3501 C105 1.230 . S
C3520 C1117 1.240 . S
C3537 C137 1.747 . S
C3556 C1105 1.653 1_565 S
C3573 C151 1.084 . S
C3592 C957 1.103 . S
C3628 C1043 1.415 . S
C3609 C161 1.474 . S
C3645 C165 1.309 . S
C3664 C821 1.282 . S
C3681 C133 1.824 1_545 S
C3700 C883 1.769 . S
C3736 C747 1.711 . S
C3717 C147 1.764 1_655 S
C3772 C1179 1.686 . S
C3753 C179 1.712 . S
C3789 C193 0.984 . S
C3808 C1253 0.988 . S
C3825 C203 1.295 . S
C3844 C1339 1.275 . S
C3880 C1413 1.027 . S
C3861 C207 1.057 . S
C3916 C1475 1.662 . S
C3897 C175 1.669 1_565 S
C3933 C189 1.558 1_455 S
C3952 C1561 1.558 . S
C3969 C221 2.001 . S
C3988 C1549 1.973 . S
C4005 C235 1.551 1_565 S
C4024 C1401 1.486 . S
C4060 C1487 1.566 . S
C4041 C245 1.636 . S
C4096 C1265 0.866 . S
C4077 C249 0.886 . S
C4132 C1327 1.638 . S
C4113 C217 1.682 . S
C4149 C231 1.344 . S
C4168 C1191 1.334 1_545 S
