# Generated by pormake.
# Topology hwx, (6,3)-cn, num edge types: 1
# Building blocks:
#     Node 0, Type 0, BuildingBlock: IZENUY_clean_sbu_0, # of connection points: 6
#     Node 1, Type 0, BuildingBlock: IZENUY_clean_sbu_0, # of connection points: 6
#     Node 2, Type 0, BuildingBlock: IZENUY_clean_sbu_0, # of connection points: 6
#     Node 3, Type 0, BuildingBlock: IZENUY_clean_sbu_0, # of connection points: 6
#     Node 4, Type 1, BuildingBlock: BETDAH_clean_linker_0, # of connection points: 3
#     Node 5, Type 1, BuildingBlock: BETDAH_clean_linker_0, # of connection points: 3
#     Node 6, Type 1, BuildingBlock: BETDAH_clean_linker_0, # of connection points: 3
#     Node 7, Type 1, BuildingBlock: BETDAH_clean_linker_0, # of connection points: 3
#     Node 8, Type 1, BuildingBlock: BETDAH_clean_linker_0, # of connection points: 3
#     Node 9, Type 1, BuildingBlock: BETDAH_clean_linker_0, # of connection points: 3
#     Node 10, Type 1, BuildingBlock: BETDAH_clean_linker_0, # of connection points: 3
#     Node 11, Type 1, BuildingBlock: BETDAH_clean_linker_0, # of connection points: 3
#     Edge 12, Type (0, 1), BuildingBlock: TEMPAE_clean_linker_10, # of connection points: 2
#     Edge 13, Type (0, 1), BuildingBlock: TEMPAE_clean_linker_10, # of connection points: 2
#     Edge 14, Type (0, 1), BuildingBlock: TEMPAE_clean_linker_10, # of connection points: 2
#     Edge 15, Type (0, 1), BuildingBlock: TEMPAE_clean_linker_10, # of connection points: 2
#     Edge 16, Type (0, 1), BuildingBlock: TEMPAE_clean_linker_10, # of connection points: 2
#     Edge 17, Type (0, 1), BuildingBlock: TEMPAE_clean_linker_10, # of connection points: 2
#     Edge 18, Type (0, 1), BuildingBlock: TEMPAE_clean_linker_10, # of connection points: 2
#     Edge 19, Type (0, 1), BuildingBlock: TEMPAE_clean_linker_10, # of connection points: 2
#     Edge 20, Type (0, 1), BuildingBlock: TEMPAE_clean_linker_10, # of connection points: 2
#     Edge 21, Type (0, 1), BuildingBlock: TEMPAE_clean_linker_10, # of connection points: 2
#     Edge 22, Type (0, 1), BuildingBlock: TEMPAE_clean_linker_10, # of connection points: 2
#     Edge 23, Type (0, 1), BuildingBlock: TEMPAE_clean_linker_10, # of connection points: 2
#     Edge 24, Type (0, 1), BuildingBlock: TEMPAE_clean_linker_10, # of connection points: 2
#     Edge 25, Type (0, 1), BuildingBlock: TEMPAE_clean_linker_10, # of connection points: 2
#     Edge 26, Type (0, 1), BuildingBlock: TEMPAE_clean_linker_10, # of connection points: 2
#     Edge 27, Type (0, 1), BuildingBlock: TEMPAE_clean_linker_10, # of connection points: 2
#     Edge 28, Type (0, 1), BuildingBlock: TEMPAE_clean_linker_10, # of connection points: 2
#     Edge 29, Type (0, 1), BuildingBlock: TEMPAE_clean_linker_10, # of connection points: 2
#     Edge 30, Type (0, 1), BuildingBlock: TEMPAE_clean_linker_10, # of connection points: 2
#     Edge 31, Type (0, 1), BuildingBlock: TEMPAE_clean_linker_10, # of connection points: 2
#     Edge 32, Type (0, 1), BuildingBlock: TEMPAE_clean_linker_10, # of connection points: 2
#     Edge 33, Type (0, 1), BuildingBlock: TEMPAE_clean_linker_10, # of connection points: 2
#     Edge 34, Type (0, 1), BuildingBlock: TEMPAE_clean_linker_10, # of connection points: 2
#     Edge 35, Type (0, 1), BuildingBlock: TEMPAE_clean_linker_10, # of connection points: 2
# Relax obj value: 0.003
# Max RMSD: 0.060
# Mean RMSD: 0.048
data_MOF--net-hwx--node1-IZENUY_clean_sbu_0--node2-BETDAH_clean_linker_0--edge1-TEMPAE_clean_linker_10
_symmetry_space_group_name_H-M    P1
_symmetry_Int_Tables_number       1
_symmetry_cell_setting            triclinic
loop_
_symmetry_equiv_pos_as_xyz
'x, y, z'
_cell_length_a     52.110914
_cell_length_b     52.231215
_cell_length_c     21.021426
_cell_angle_alpha  91.83175
_cell_angle_beta   91.882237
_cell_angle_gamma 90.003288
loop_
_atom_site_label
_atom_site_type_symbol
_atom_site_fract_x
_atom_site_fract_y
_atom_site_fract_z
_atom_type_partial_charge
Fe0 Fe 0.23924 0.23452 0.10124 0.0
Fe1 Fe 0.2387 0.2344 0.95508 0.0
O2 O 0.22717 0.2224 0.02649 0.0
Fe3 Fe 0.20333 0.19813 0.02306 0.0
O4 O 0.18849 0.20823 0.09788 0.0
O5 O 0.20747 0.24468 0.12436 0.0
O6 O 0.24413 0.26754 0.07474 0.0
C7 C 0.23515 0.27903 0.02656 0.0
C8 C 0.23473 0.18064 0.11823 0.0
O9 O 0.22865 0.26663 0.97615 0.0
C10 C 0.23507 0.1837 0.92141 0.0
O11 O 0.2718 0.22534 0.08343 0.0
O12 O 0.27169 0.24027 0.98683 0.0
O13 O 0.22458 0.17618 0.0637 0.0
O14 O 0.23657 0.20349 0.1409 0.0
C15 C 0.18484 0.22873 0.9297 0.0
O16 O 0.24964 0.20287 0.92909 0.0
O17 O 0.21355 0.18327 0.94756 0.0
C18 C 0.28373 0.23191 0.03534 0.0
O19 O 0.20762 0.23079 0.91054 0.0
O20 O 0.1807 0.21871 0.98221 0.0
C21 C 0.18858 0.22976 0.1272 0.0
Fe22 Fe 0.26461 0.7371 0.53219 0.0
Fe23 Fe 0.30053 0.69887 0.46661 0.0
O24 O 0.27692 0.72324 0.46149 0.0
Fe25 Fe 0.26575 0.73365 0.38592 0.0
O26 O 0.27575 0.76643 0.40449 0.0
O27 O 0.25988 0.76918 0.5 0.0
O28 O 0.29629 0.74788 0.56015 0.0
C29 C 0.31508 0.73307 0.56886 0.0
C30 C 0.22041 0.73285 0.45819 0.0
O31 O 0.31532 0.71103 0.54213 0.0
C32 C 0.26897 0.68189 0.36158 0.0
O33 O 0.26697 0.70745 0.57744 0.0
O34 O 0.27909 0.67815 0.50736 0.0
O35 O 0.23258 0.74012 0.41061 0.0
O36 O 0.23222 0.72735 0.50925 0.0
C37 C 0.3196 0.72712 0.37162 0.0
O38 O 0.29021 0.68192 0.3925 0.0
O39 O 0.25496 0.70159 0.36144 0.0
C40 C 0.2687 0.68413 0.55908 0.0
O41 O 0.3235 0.71804 0.42602 0.0
O42 O 0.29694 0.72908 0.34807 0.0
C43 C 0.26924 0.77972 0.45246 0.0
Fe44 Fe 0.76213 0.77434 0.95056 0.0
Fe45 Fe 0.76574 0.77445 0.09699 0.0
O46 O 0.77569 0.78664 0.02387 0.0
Fe47 Fe 0.79926 0.81116 0.02406 0.0
O48 O 0.78605 0.8265 0.95292 0.0
O49 O 0.75028 0.80559 0.92867 0.0
O50 O 0.73017 0.76826 0.982 0.0
C51 C 0.71943 0.7769 0.03154 0.0
C52 C 0.81488 0.78088 0.92421 0.0
O53 O 0.73265 0.78359 0.0806 0.0
C54 C 0.81752 0.77902 0.12175 0.0
O55 O 0.77303 0.74223 0.96672 0.0
O56 O 0.76011 0.74157 0.06508 0.0
O57 O 0.82064 0.79122 0.97778 0.0
O58 O 0.79159 0.7782 0.90579 0.0
C59 C 0.77061 0.828 0.12365 0.0
O60 O 0.79815 0.76446 0.11895 0.0
O61 O 0.81695 0.80043 0.09523 0.0
C62 C 0.7678 0.72997 0.0153 0.0
O63 O 0.76948 0.80513 0.14205 0.0
O64 O 0.7795 0.8328 0.07028 0.0
C65 C 0.76403 0.82535 0.92579 0.0
Fe66 Fe 0.70506 0.30895 0.52829 0.0
Fe67 Fe 0.73957 0.27198 0.60211 0.0
O68 O 0.72792 0.28386 0.5287 0.0
Fe69 Fe 0.73899 0.27071 0.45597 0.0
O70 O 0.75091 0.30147 0.43255 0.0
O71 O 0.71611 0.32307 0.4551 0.0
O72 O 0.72709 0.3304 0.572 0.0
C73 C 0.73672 0.32585 0.62626 0.0
C74 C 0.68541 0.2783 0.43093 0.0
O75 O 0.73742 0.30311 0.646 0.0
C76 C 0.73419 0.22703 0.52306 0.0
O77 O 0.68966 0.29954 0.60158 0.0
O78 O 0.70752 0.26265 0.62344 0.0
O79 O 0.70809 0.27489 0.41182 0.0
O80 O 0.68166 0.28908 0.48439 0.0
C81 C 0.78405 0.27323 0.53647 0.0
O82 O 0.74389 0.23878 0.57181 0.0
O83 O 0.72784 0.23903 0.47398 0.0
C84 C 0.68902 0.27807 0.62786 0.0
O85 O 0.77227 0.28049 0.58531 0.0
O86 O 0.77182 0.26427 0.4874 0.0
C87 C 0.73733 0.3213 0.42764 0.0
H88 H 0.25421 0.58448 0.96182 0.0
H89 H 0.23385 0.51324 0.04509 0.0
H90 H 0.22761 0.52137 0.84187 0.0
C91 C 0.24808 0.56466 0.95651 0.0
C92 C 0.24203 0.55452 0.89544 0.0
C93 C 0.24517 0.55012 0.0109 0.0
C94 C 0.23634 0.52462 0.00356 0.0
C95 C 0.23013 0.5142 0.94221 0.0
C96 C 0.23259 0.52941 0.88884 0.0
N97 N 0.22017 0.48904 0.93197 0.0
C98 C 0.22541 0.46816 0.96982 0.0
H99 H 0.91517 0.76573 0.51974 0.0
H100 H 0.98581 0.74261 0.43365 0.0
H101 H 0.97744 0.73752 0.63597 0.0
C102 C 0.93482 0.75902 0.52419 0.0
C103 C 0.94477 0.75288 0.58445 0.0
C104 C 0.94929 0.75541 0.46935 0.0
C105 C 0.97449 0.74569 0.47551 0.0
C106 C 0.98465 0.73932 0.536 0.0
C107 C 0.96956 0.7426 0.58971 0.0
N108 N 0.00938 0.72833 0.5449 0.0
C109 C 0.03047 0.73229 0.50749 0.0
H110 H 0.76865 0.4196 0.01005 0.0
H111 H 0.75965 0.49709 0.94915 0.0
H112 H 0.75941 0.48094 0.14854 0.0
C113 C 0.76655 0.43985 0.02175 0.0
C114 C 0.76454 0.44807 0.08547 0.0
C115 C 0.76472 0.45732 0.97247 0.0
C116 C 0.76165 0.48363 0.98713 0.0
C117 C 0.76031 0.49213 0.05133 0.0
C118 C 0.76155 0.47428 0.09962 0.0
N119 N 0.75609 0.51808 0.0701 0.0
C120 C 0.76004 0.53948 0.03408 0.0
H121 H 0.08641 0.24455 0.53736 0.0
H122 H 0.01897 0.27807 0.61821 0.0
H123 H 0.0333 0.28685 0.42015 0.0
C124 C 0.06866 0.25514 0.53144 0.0
C125 C 0.06177 0.26475 0.47164 0.0
C126 C 0.05375 0.26021 0.58484 0.0
C127 C 0.03046 0.27364 0.57728 0.0
C128 C 0.02278 0.28251 0.51704 0.0
C129 C 0.03874 0.27857 0.46522 0.0
N130 N 1.00077 0.29813 0.50864 0.0
C131 C 0.97625 0.29159 0.5267 0.0
H132 H 0.74822 0.92522 0.52225 0.0
H133 H 0.71513 0.99054 0.43129 0.0
H134 H 0.71141 0.98425 0.63393 0.0
C135 C 0.73909 0.94382 0.526 0.0
C136 C 0.73136 0.9533 0.58565 0.0
C137 C 0.73359 0.9571 0.47016 0.0
C138 C 0.72021 0.98045 0.47415 0.0
C139 C 0.71245 0.99024 0.53351 0.0
C140 C 0.71791 0.97662 0.58872 0.0
N141 N 0.69621 0.0119 0.53749 0.0
C142 C 0.70458 0.03669 0.52789 0.0
H143 H 0.58658 0.26487 0.03675 0.0
H144 H 0.51863 0.2318 0.11132 0.0
H145 H 0.53294 0.2237 0.9117 0.0
C146 C 0.56869 0.2545 0.02888 0.0
C147 C 0.56168 0.24526 0.9673 0.0
C148 C 0.55368 0.24939 0.08132 0.0
C149 C 0.53021 0.23623 0.07123 0.0
C150 C 0.52245 0.22768 0.00934 0.0
C151 C 0.53849 0.2317 0.95833 0.0
N152 N 0.50015 0.21248 0.99758 0.0
C153 C 0.47606 0.21802 0.02108 0.0
H154 H 0.25109 0.08267 0.49748 0.0
H155 H 0.29043 0.02737 0.61253 0.0
H156 H 0.28096 0.01373 0.41052 0.0
C157 C 0.26082 0.06446 0.50216 0.0
C158 C 0.26509 0.04936 0.44708 0.0
C159 C 0.27 0.05704 0.56234 0.0
C160 C 0.28256 0.03333 0.56702 0.0
C161 C 0.28564 0.01721 0.51313 0.0
C162 C 0.27724 0.02541 0.45275 0.0
N163 N 0.29963 0.99415 0.52083 0.0
C164 C 0.29319 0.97061 0.49173 0.0
H165 H 0.41669 0.74774 0.99596 0.0
H166 H 0.46972 0.79122 0.88976 0.0
H167 H 0.48508 0.77912 0.08849 0.0
C168 C 0.43454 0.75824 0.99334 0.0
C169 C 0.44986 0.76224 0.049 0.0
C170 C 0.44125 0.76866 0.93541 0.0
C171 C 0.46439 0.78236 0.93333 0.0
C172 C 0.4807 0.78533 0.98747 0.0
C173 C 0.47327 0.77554 0.04574 0.0
N174 N 0.50296 0.80071 0.98308 0.0
C175 C 0.52722 0.79446 0.00744 0.0
C176 C 0.16142 0.2613 0.18653 0.0
C177 C 0.16813 0.23582 0.17233 0.0
C178 C 0.14263 0.26718 0.23112 0.0
C179 C 0.13092 0.24714 0.26359 0.0
C180 C 0.1375 0.22137 0.24891 0.0
C181 C 0.15576 0.21601 0.20279 0.0
C182 C 0.1356 0.29485 0.24422 0.0
C183 C 0.126 0.19948 0.28365 0.0
C184 C 0.10609 0.26202 0.42824 0.0
C185 C 0.07934 0.26135 0.4173 0.0
C186 C 0.123 0.2575 0.37865 0.0
C187 C 0.11305 0.25307 0.31585 0.0
C188 C 0.08617 0.25338 0.30375 0.0
C189 C 0.06962 0.2572 0.35469 0.0
C190 C 0.15154 0.25694 0.39381 0.0
C191 C 0.07488 0.24931 0.23713 0.0
H192 H 0.17081 0.27662 0.16256 0.0
H193 H 0.16106 0.19629 0.19224 0.0
H194 H 0.11446 0.2973 0.24024 0.0
H195 H 0.14174 0.30067 0.29358 0.0
H196 H 0.14472 0.30793 0.21093 0.0
H197 H 0.13271 0.18051 0.26552 0.0
H198 H 0.13122 0.20143 0.33519 0.0
H199 H 0.10475 0.20002 0.27895 0.0
H200 H 0.11395 0.26604 0.47586 0.0
H201 H 0.04905 0.25647 0.34551 0.0
H202 H 0.16143 0.27166 0.36666 0.0
H203 H 0.15951 0.23804 0.37908 0.0
H204 H 0.15614 0.26043 0.44533 0.0
H205 H 0.08383 0.26268 0.20437 0.0
H206 H 0.05376 0.2522 0.23495 0.0
H207 H 0.07907 0.22957 0.21941 0.0
C208 C 0.26777 0.63788 0.58806 0.0
C209 C 0.26175 0.66358 0.60268 0.0
C210 C 0.26334 0.61855 0.63135 0.0
C211 C 0.25246 0.62499 0.69056 0.0
C212 C 0.24536 0.65069 0.70451 0.0
C213 C 0.25014 0.66966 0.66052 0.0
C214 C 0.27123 0.5914 0.61473 0.0
C215 C 0.23352 0.65832 0.76693 0.0
C216 C 0.22545 0.57329 0.79344 0.0
C217 C 0.24532 0.57069 0.83938 0.0
C218 C 0.22763 0.59054 0.74383 0.0
C219 C 0.25029 0.60533 0.73996 0.0
C220 C 0.27074 0.60207 0.78499 0.0
C221 C 0.26797 0.58486 0.83415 0.0
C222 C 0.20539 0.59355 0.69686 0.0
C223 C 0.29534 0.61723 0.78222 0.0
H224 H 0.27665 0.6329 0.54342 0.0
H225 H 0.2452 0.68939 0.6721 0.0
H226 H 0.2873 0.58564 0.64713 0.0
H227 H 0.25509 0.57801 0.62152 0.0
H228 H 0.27749 0.58916 0.56485 0.0
H229 H 0.22728 0.67866 0.76847 0.0
H230 H 0.2167 0.646 0.77524 0.0
H231 H 0.24767 0.65546 0.80667 0.0
H232 H 0.20784 0.56251 0.79763 0.0
H233 H 0.2835 0.58266 0.86917 0.0
H234 H 0.21199 0.59108 0.64741 0.0
H235 H 0.19742 0.61319 0.70183 0.0
H236 H 0.18977 0.57956 0.70404 0.0
H237 H 0.30375 0.61455 0.73467 0.0
H238 H 0.30984 0.61157 0.81906 0.0
H239 H 0.29124 0.63796 0.78922 0.0
C240 C 0.86424 0.78324 0.15131 0.0
C241 C 0.84012 0.7727 0.16291 0.0
C242 C 0.8854 0.77947 0.19311 0.0
C243 C 0.8822 0.7654 0.24874 0.0
C244 C 0.85811 0.75393 0.25941 0.0
C245 C 0.83745 0.75747 0.21596 0.0
C246 C 0.91089 0.7914 0.17898 0.0
C247 C 0.85376 0.73907 0.31858 0.0
C248 C 0.93686 0.74192 0.3566 0.0
C249 C 0.93666 0.76042 0.40643 0.0
C250 C 0.92031 0.74401 0.30269 0.0
C251 C 0.90299 0.76489 0.29918 0.0
C252 C 0.90405 0.78448 0.34731 0.0
C253 C 0.92106 0.78214 0.39981 0.0
C254 C 0.9203 0.72312 0.25143 0.0
C255 C 0.88596 0.80707 0.34572 0.0
H256 H 0.86649 0.79476 0.10984 0.0
H257 H 0.81886 0.74931 0.2252 0.0
H258 H 0.91481 0.80784 0.2126 0.0
H259 H 0.92667 0.77738 0.18573 0.0
H260 H 0.91124 0.79839 0.12966 0.0
H261 H 0.83439 0.73017 0.31811 0.0
H262 H 0.86838 0.72378 0.32356 0.0
H263 H 0.85586 0.75208 0.36123 0.0
H264 H 0.94881 0.72506 0.3614 0.0
H265 H 0.92118 0.79675 0.43767 0.0
H266 H 0.91961 0.73145 0.2035 0.0
H267 H 0.90295 0.71102 0.25501 0.0
H268 H 0.9375 0.71065 0.25573 0.0
H269 H 0.88706 0.81679 0.29976 0.0
H270 H 0.89021 0.82133 0.385 0.0
H271 H 0.86591 0.80028 0.34975 0.0
C272 C 0.74471 0.34439 0.73642 0.0
C273 C 0.74361 0.34769 0.67046 0.0
C274 C 0.74931 0.36522 0.77915 0.0
C275 C 0.75341 0.38994 0.75546 0.0
C276 C 0.7531 0.39329 0.68888 0.0
C277 C 0.74797 0.37217 0.64717 0.0
C278 C 0.74918 0.36083 0.84984 0.0
C279 C 0.75791 0.4192 0.66178 0.0
C280 C 0.73916 0.44314 0.87624 0.0
C281 C 0.76327 0.44667 0.90652 0.0
C282 C 0.73589 0.42593 0.82385 0.0
C283 C 0.75736 0.41218 0.80105 0.0
C284 C 0.78213 0.41749 0.8281 0.0
C285 C 0.78474 0.43444 0.88116 0.0
C286 C 0.70913 0.42072 0.79693 0.0
C287 C 0.8056 0.40371 0.80445 0.0
H288 H 0.74122 0.3256 0.75487 0.0
H289 H 0.74732 0.37485 0.59622 0.0
H290 H 0.76785 0.36673 0.87257 0.0
H291 H 0.73408 0.37276 0.87207 0.0
H292 H 0.74562 0.34046 0.86051 0.0
H293 H 0.75847 0.41833 0.60896 0.0
H294 H 0.74257 0.43273 0.67607 0.0
H295 H 0.77638 0.42717 0.6813 0.0
H296 H 0.72251 0.45223 0.89683 0.0
H297 H 0.80332 0.43692 0.90535 0.0
H298 H 0.70282 0.40149 0.81119 0.0
H299 H 0.70881 0.4206 0.74416 0.0
H300 H 0.69508 0.43512 0.81426 0.0
H301 H 0.80547 0.38366 0.82035 0.0
H302 H 0.82365 0.41301 0.82286 0.0
H303 H 0.80553 0.40303 0.75163 0.0
C304 C 0.66678 0.26279 0.32498 0.0
C305 C 0.66303 0.2725 0.38699 0.0
C306 C 0.64599 0.2588 0.28155 0.0
C307 C 0.62072 0.26457 0.30042 0.0
C308 C 0.61667 0.27364 0.36344 0.0
C309 C 0.63784 0.27751 0.40593 0.0
C310 C 0.65118 0.24903 0.21479 0.0
C311 C 0.59005 0.2799 0.3855 0.0
C312 C 0.57612 0.2792 0.16014 0.0
C313 C 0.5649 0.25518 0.14609 0.0
C314 C 0.59304 0.283 0.21293 0.0
C315 C 0.5989 0.26227 0.25271 0.0
C316 C 0.58592 0.23861 0.24186 0.0
C317 C 0.56903 0.23534 0.1886 0.0
C318 C 0.60618 0.30864 0.22301 0.0
C319 C 0.59142 0.21609 0.28341 0.0
H320 H 0.68608 0.25873 0.3098 0.0
H321 H 0.63464 0.28489 0.45379 0.0
H322 H 0.63967 0.23153 0.20319 0.0
H323 H 0.64527 0.26365 0.18007 0.0
H324 H 0.67178 0.24448 0.20837 0.0
H325 H 0.5899 0.2849 0.43725 0.0
H326 H 0.5822 0.29631 0.35889 0.0
H327 H 0.57697 0.26341 0.37531 0.0
H328 H 0.57287 0.2946 0.12743 0.0
H329 H 0.5606 0.21667 0.1776 0.0
H330 H 0.6267 0.30676 0.21104 0.0
H331 H 0.60554 0.31519 0.27364 0.0
H332 H 0.5973 0.32356 0.1929 0.0
H333 H 0.61071 0.2083 0.27315 0.0
H334 H 0.57707 0.20051 0.27495 0.0
H335 H 0.5916 0.22211 0.33451 0.0
C336 C 0.22167 0.15135 0.8371 0.0
C337 C 0.24136 0.16339 0.87395 0.0
C338 C 0.22725 0.13318 0.78895 0.0
C339 C 0.25311 0.1263 0.77872 0.0
C340 C 0.27302 0.13769 0.81749 0.0
C341 C 0.26692 0.15646 0.86399 0.0
C342 C 0.20551 0.12208 0.74747 0.0
C343 C 0.30074 0.1303 0.80932 0.0
C344 C 0.26248 0.06498 0.67942 0.0
C345 C 0.2672 0.0746 0.61925 0.0
C346 C 0.25886 0.08154 0.73243 0.0
C347 C 0.25928 0.10838 0.72483 0.0
C348 C 0.26442 0.11823 0.66465 0.0
C349 C 0.26879 0.10127 0.6131 0.0
C350 C 0.2541 0.07033 0.7963 0.0
C351 C 0.26461 0.14671 0.65415 0.0
H352 H 0.20189 0.15684 0.84438 0.0
H353 H 0.28214 0.16561 0.89287 0.0
H354 H 0.20814 0.12715 0.69723 0.0
H355 H 0.2056 0.10088 0.74906 0.0
H356 H 0.18644 0.12918 0.76227 0.0
H357 H 0.31364 0.1392 0.84693 0.0
H358 H 0.30287 0.10917 0.81038 0.0
H359 H 0.30714 0.13634 0.76229 0.0
H360 H 0.26104 0.04448 0.68497 0.0
H361 H 0.2733 0.10906 0.56764 0.0
H362 H 0.23418 0.0746 0.81028 0.0
H363 H 0.2672 0.0792 0.83343 0.0
H364 H 0.25688 0.04924 0.79572 0.0
H365 H 0.24568 0.15504 0.6659 0.0
H366 H 0.26876 0.15126 0.60425 0.0
H367 H 0.27923 0.15626 0.68625 0.0
C368 C 0.36714 0.72801 0.35379 0.0
C369 C 0.34189 0.73305 0.33209 0.0
C370 C 0.38821 0.73243 0.3154 0.0
C371 C 0.38399 0.74219 0.25389 0.0
C372 C 0.35863 0.74787 0.23235 0.0
C373 C 0.33795 0.74323 0.27159 0.0
C374 C 0.41493 0.72613 0.34008 0.0
C375 C 0.35325 0.75842 0.16717 0.0
C376 C 0.43483 0.77405 0.15769 0.0
C377 C 0.43906 0.75509 0.11051 0.0
C378 C 0.41823 0.76958 0.20763 0.0
C379 C 0.40573 0.74555 0.21039 0.0
C380 C 0.41179 0.72566 0.16604 0.0
C381 C 0.42834 0.7307 0.11656 0.0
C382 C 0.41245 0.79126 0.25413 0.0
C383 C 0.3992 0.69967 0.1676 0.0
H384 H 0.37047 0.72021 0.4005 0.0
H385 H 0.3186 0.74736 0.25441 0.0
H386 H 0.42304 0.71037 0.31036 0.0
H387 H 0.42775 0.74295 0.33655 0.0
H388 H 0.41516 0.72019 0.39037 0.0
H389 H 0.33258 0.7627 0.15845 0.0
H390 H 0.36443 0.77625 0.1617 0.0
H391 H 0.35943 0.7444 0.12996 0.0
H392 H 0.44287 0.793 0.15281 0.0
H393 H 0.43166 0.71599 0.08018 0.0
H394 H 0.41252 0.78441 0.30354 0.0
H395 H 0.39298 0.79886 0.24303 0.0
H396 H 0.42648 0.80719 0.25184 0.0
H397 H 0.39993 0.69243 0.21665 0.0
H398 H 0.40844 0.6854 0.13542 0.0
H399 H 0.37866 0.7013 0.15255 0.0
C400 C 0.76498 0.87111 0.89545 0.0
C401 C 0.75607 0.84605 0.88317 0.0
C402 C 0.75962 0.89057 0.85246 0.0
C403 C 0.74564 0.88461 0.79502 0.0
C404 C 0.73598 0.85948 0.78327 0.0
C405 C 0.74103 0.84056 0.82795 0.0
C406 C 0.7696 0.91728 0.86758 0.0
C407 C 0.72141 0.85223 0.72204 0.0
C408 C 0.71727 0.93595 0.68947 0.0
C409 C 0.73601 0.93778 0.64327 0.0
C410 C 0.72056 0.91947 0.74066 0.0
C411 C 0.74282 0.90401 0.74495 0.0
C412 C 0.7621 0.90627 0.69959 0.0
C413 C 0.75864 0.92338 0.65001 0.0
C414 C 0.69989 0.91805 0.78909 0.0
C415 C 0.78604 0.88996 0.70209 0.0
H416 H 0.7764 0.87545 0.93851 0.0
H417 H 0.73424 0.82117 0.81817 0.0
H418 H 0.78506 0.92185 0.83472 0.0
H419 H 0.75408 0.93156 0.86045 0.0
H420 H 0.77742 0.91945 0.91727 0.0
H421 H 0.71418 0.83221 0.72151 0.0
H422 H 0.70488 0.86529 0.71463 0.0
H423 H 0.73415 0.8543 0.68121 0.0
H424 H 0.69959 0.94673 0.68463 0.0
H425 H 0.77354 0.92509 0.61563 0.0
H426 H 0.70844 0.91996 0.83805 0.0
H427 H 0.69027 0.8991 0.78468 0.0
H428 H 0.68512 0.93319 0.78288 0.0
H429 H 0.79651 0.8931 0.74844 0.0
H430 H 0.79925 0.89414 0.66333 0.0
H431 H 0.78068 0.86938 0.69811 0.0
C432 C 0.82961 0.7628 0.81975 0.0
C433 C 0.83557 0.77449 0.87945 0.0
C434 C 0.84869 0.75813 0.77525 0.0
C435 C 0.87439 0.76538 0.7906 0.0
C436 C 0.88071 0.77646 0.85143 0.0
C437 C 0.86125 0.78083 0.89518 0.0
C438 C 0.84119 0.74612 0.71101 0.0
C439 C 0.90788 0.78448 0.86956 0.0
C440 C 0.9259 0.7373 0.68468 0.0
C441 C 0.92869 0.75678 0.64103 0.0
C442 C 0.90876 0.74004 0.73476 0.0
C443 C 0.89423 0.76284 0.74137 0.0
C444 C 0.89771 0.78291 0.69879 0.0
C445 C 0.91485 0.77962 0.64917 0.0
C446 C 0.90554 0.71821 0.77916 0.0
C447 C 0.88277 0.80762 0.7045 0.0
H448 H 0.80989 0.75763 0.80726 0.0
H449 H 0.86612 0.78977 0.94124 0.0
H450 H 0.84443 0.76 0.67322 0.0
H451 H 0.85336 0.72914 0.70088 0.0
H452 H 0.82072 0.7401 0.70796 0.0
H453 H 0.90997 0.79112 0.9202 0.0
H454 H 0.92129 0.7683 0.86126 0.0
H455 H 0.9138 0.80025 0.83908 0.0
H456 H 0.93641 0.71955 0.67829 0.0
H457 H 0.91723 0.79487 0.61602 0.0
H458 H 0.88584 0.71026 0.7729 0.0
H459 H 0.90791 0.72517 0.82942 0.0
H460 H 0.91952 0.70253 0.77043 0.0
H461 H 0.86197 0.80368 0.69657 0.0
H462 H 0.88871 0.82185 0.66964 0.0
H463 H 0.88542 0.81624 0.7532 0.0
C464 C 0.7658 0.33782 0.3441 0.0
C465 C 0.74446 0.34117 0.38259 0.0
C466 C 0.77135 0.35549 0.29749 0.0
C467 C 0.75523 0.37703 0.28934 0.0
C468 C 0.73429 0.38105 0.32965 0.0
C469 C 0.72916 0.36309 0.37575 0.0
C470 C 0.79389 0.35061 0.25544 0.0
C471 C 0.71673 0.40387 0.32264 0.0
C472 C 0.77663 0.43379 0.19543 0.0
C473 C 0.76361 0.42916 0.13669 0.0
C474 C 0.77458 0.41669 0.24525 0.0
C475 C 0.75914 0.3945 0.23603 0.0
C476 C 0.74639 0.38947 0.17644 0.0
C477 C 0.74874 0.40688 0.12759 0.0
C478 C 0.78851 0.42262 0.3081 0.0
C479 C 0.72969 0.36604 0.16478 0.0
H480 H 0.77782 0.32103 0.34919 0.0
H481 H 0.71277 0.36599 0.40558 0.0
H482 H 0.78685 0.3466 0.20573 0.0
H483 H 0.8063 0.36785 0.25507 0.0
H484 H 0.80571 0.33413 0.27113 0.0
H485 H 0.70231 0.40509 0.36037 0.0
H486 H 0.72809 0.42185 0.32437 0.0
H487 H 0.70642 0.4026 0.27561 0.0
H488 H 0.78835 0.45085 0.20249 0.0
H489 H 0.73828 0.40338 0.08273 0.0
H490 H 0.80079 0.4062 0.32176 0.0
H491 H 0.77439 0.42558 0.34601 0.0
H492 H 0.80071 0.44001 0.30659 0.0
H493 H 0.74075 0.34848 0.17566 0.0
H494 H 0.72207 0.36431 0.11484 0.0
H495 H 0.71324 0.36688 0.19698 0.0
C496 C 0.13734 0.23051 0.90461 0.0
C497 C 0.16266 0.23495 0.88651 0.0
C498 C 0.11631 0.23474 0.86261 0.0
C499 C 0.12063 0.24365 0.801 0.0
C500 C 0.14605 0.24885 0.7831 0.0
C501 C 0.16671 0.24446 0.82599 0.0
C502 C 0.08953 0.22903 0.88355 0.0
C503 C 0.15152 0.25848 0.7179 0.0
C504 C 0.07571 0.22995 0.65844 0.0
C505 C 0.06495 0.25416 0.64849 0.0
C506 C 0.09258 0.2258 0.71051 0.0
C507 C 0.0989 0.24639 0.75364 0.0
C508 C 0.08643 0.27031 0.74675 0.0
C509 C 0.06953 0.2739 0.6942 0.0
C510 C 0.10516 0.1999 0.71639 0.0
C511 C 0.09246 0.29271 0.79188 0.0
H512 H 0.13392 0.22327 0.95133 0.0
H513 H 0.18611 0.24809 0.81153 0.0
H514 H 0.07684 0.24579 0.87605 0.0
H515 H 0.08132 0.2128 0.85422 0.0
H516 H 0.08922 0.224 0.93448 0.0
H517 H 0.17222 0.26262 0.7123 0.0
H518 H 0.14532 0.24396 0.68086 0.0
H519 H 0.1404 0.27619 0.70899 0.0
H520 H 0.07212 0.21464 0.62319 0.0
H521 H 0.06148 0.29272 0.68633 0.0
H522 H 0.10437 0.19336 0.76597 0.0
H523 H 0.12571 0.20138 0.7047 0.0
H524 H 0.09594 0.18517 0.68388 0.0
H525 H 0.09247 0.2867 0.84202 0.0
H526 H 0.07852 0.30861 0.78588 0.0
H527 H 0.11195 0.30004 0.7829 0.0
C528 C 0.27268 0.63528 0.33265 0.0
C529 C 0.26236 0.65942 0.31934 0.0
C530 C 0.26877 0.61421 0.2902 0.0
C531 C 0.2547 0.6175 0.23233 0.0
C532 C 0.24334 0.64159 0.21989 0.0
C533 C 0.24708 0.66219 0.26389 0.0
C534 C 0.28064 0.58874 0.30611 0.0
C535 C 0.22842 0.646 0.15843 0.0
C536 C 0.27166 0.57875 0.08419 0.0
C537 C 0.25005 0.56291 0.07439 0.0
C538 C 0.27386 0.59584 0.13683 0.0
C539 C 0.25419 0.59682 0.18171 0.0
C540 C 0.23337 0.57936 0.175 0.0
C541 C 0.23146 0.56266 0.1211 0.0
C542 C 0.29644 0.61402 0.14201 0.0
C543 C 0.21236 0.57935 0.22271 0.0
H544 H 0.2842 0.63292 0.37596 0.0
H545 H 0.23905 0.68079 0.25335 0.0
H546 H 0.26652 0.57303 0.29714 0.0
H547 H 0.29707 0.58483 0.27502 0.0
H548 H 0.2877 0.58834 0.35652 0.0
H549 H 0.21942 0.66528 0.15776 0.0
H550 H 0.24146 0.64409 0.11785 0.0
H551 H 0.21315 0.63132 0.15079 0.0
H552 H 0.28628 0.57871 0.04863 0.0
H553 H 0.21467 0.55054 0.11369 0.0
H554 H 0.30618 0.61297 0.18954 0.0
H555 H 0.28956 0.63399 0.13686 0.0
H556 H 0.31074 0.60987 0.10502 0.0
H557 H 0.22064 0.58003 0.27204 0.0
H558 H 0.19983 0.56218 0.21633 0.0
H559 H 0.20028 0.59667 0.21709 0.0
C560 C 0.34128 0.76544 0.63321 0.0
C561 C 0.33508 0.7398 0.61811 0.0
C562 C 0.35974 0.77181 0.68143 0.0
C563 C 0.37167 0.75209 0.71646 0.0
C564 C 0.36552 0.72617 0.70109 0.0
C565 C 0.34757 0.72035 0.65159 0.0
C566 C 0.36628 0.79962 0.69535 0.0
C567 C 0.37727 0.70459 0.7383 0.0
C568 C 0.4331 0.76233 0.81696 0.0
C569 C 0.42352 0.76599 0.87827 0.0
C570 C 0.41643 0.75883 0.7634 0.0
C571 C 0.38956 0.75839 0.77142 0.0
C572 C 0.37975 0.76252 0.83286 0.0
C573 C 0.39679 0.76667 0.8852 0.0
C574 C 0.4276 0.75502 0.69842 0.0
C575 C 0.35125 0.76182 0.84368 0.0
H576 H 0.33178 0.78051 0.60708 0.0
H577 H 0.34269 0.70049 0.64048 0.0
H578 H 0.36024 0.80536 0.74385 0.0
H579 H 0.38737 0.80249 0.6943 0.0
H580 H 0.35679 0.81249 0.66069 0.0
H581 H 0.37065 0.68546 0.71981 0.0
H582 H 0.3985 0.70531 0.73666 0.0
H583 H 0.37219 0.70675 0.78905 0.0
H584 H 0.45365 0.7616 0.81085 0.0
H585 H 0.38905 0.77029 0.93184 0.0
H586 H 0.41828 0.76816 0.66425 0.0
H587 H 0.42379 0.73517 0.6802 0.0
H588 H 0.44866 0.75839 0.69935 0.0
H589 H 0.34118 0.7762 0.81428 0.0
H590 H 0.34671 0.76565 0.89437 0.0
H591 H 0.34341 0.74273 0.82866 0.0
C592 C 0.75376 0.84459 0.22736 0.0
C593 C 0.76381 0.84952 0.16787 0.0
C594 C 0.74833 0.86462 0.27095 0.0
C595 C 0.75309 0.89029 0.25488 0.0
C596 C 0.76261 0.89549 0.19436 0.0
C597 C 0.76782 0.87506 0.15153 0.0
C598 C 0.73805 0.85824 0.33491 0.0
C599 C 0.76793 0.92258 0.17549 0.0
C600 C 0.72063 0.9399 0.36128 0.0
C601 C 0.73993 0.94471 0.40813 0.0
C602 C 0.72503 0.92328 0.3088 0.0
C603 C 0.74932 0.91136 0.30316 0.0
C604 C 0.76938 0.9177 0.34796 0.0
C605 C 0.76442 0.93424 0.39996 0.0
C606 C 0.70316 0.9171 0.26197 0.0
C607 C 0.79565 0.90568 0.34341 0.0
H608 H 0.75039 0.82498 0.24034 0.0
H609 H 0.77547 0.87914 0.1056 0.0
H610 H 0.75205 0.86432 0.37335 0.0
H611 H 0.71995 0.86884 0.34316 0.0
H612 H 0.73426 0.83743 0.33891 0.0
H613 H 0.77359 0.92355 0.12512 0.0
H614 H 0.75071 0.93472 0.18233 0.0
H615 H 0.78363 0.93089 0.20655 0.0
H616 H 0.70162 0.94779 0.36779 0.0
H617 H 0.7794 0.93808 0.43604 0.0
H618 H 0.69635 0.89729 0.26901 0.0
H619 H 0.70965 0.91793 0.21235 0.0
H620 H 0.68672 0.93041 0.26791 0.0
H621 H 0.79437 0.88499 0.3533 0.0
H622 H 0.80984 0.9147 0.37779 0.0
H623 H 0.80284 0.90727 0.29461 0.0
C624 C 0.66091 0.24737 0.68215 0.0
C625 C 0.6683 0.27266 0.6718 0.0
C626 C 0.642 0.242 0.72596 0.0
C627 C 0.63085 0.26236 0.76157 0.0
C628 C 0.63808 0.28796 0.75069 0.0
C629 C 0.65645 0.29281 0.70526 0.0
C630 C 0.6343 0.21452 0.73496 0.0
C631 C 0.62717 0.31016 0.78883 0.0
C632 C 0.56951 0.25327 0.85175 0.0
C633 C 0.57925 0.24878 0.91351 0.0
C634 C 0.58605 0.25701 0.80133 0.0
C635 C 0.61295 0.25689 0.8132 0.0
C636 C 0.62291 0.25223 0.87515 0.0
C637 C 0.606 0.24781 0.92412 0.0
C638 C 0.57475 0.26136 0.73551 0.0
C639 C 0.65147 0.25232 0.89009 0.0
H640 H 0.6699 0.23178 0.65586 0.0
H641 H 0.66228 0.31238 0.6977 0.0
H642 H 0.64042 0.20862 0.78335 0.0
H643 H 0.6131 0.21255 0.73095 0.0
H644 H 0.643 0.20118 0.69952 0.0
H645 H 0.63423 0.32895 0.77326 0.0
H646 H 0.60591 0.31002 0.78457 0.0
H647 H 0.63254 0.30824 0.83999 0.0
H648 H 0.54895 0.25426 0.84287 0.0
H649 H 0.61386 0.24355 0.97094 0.0
H650 H 0.58321 0.2477 0.70053 0.0
H651 H 0.5795 0.28095 0.72076 0.0
H652 H 0.55354 0.25906 0.73319 0.0
H653 H 0.661 0.23733 0.86074 0.0
H654 H 0.65608 0.2489 0.94108 0.0
H655 H 0.65982 0.27103 0.87794 0.0
C656 C 0.25069 0.16283 0.22186 0.0
C657 C 0.24122 0.15866 0.15914 0.0
C658 C 0.2551 0.14228 0.26238 0.0
C659 C 0.24992 0.11687 0.23982 0.0
C660 C 0.24111 0.11244 0.17604 0.0
C661 C 0.23691 0.13334 0.13649 0.0
C662 C 0.26466 0.14784 0.33002 0.0
C663 C 0.23539 0.08569 0.15013 0.0
C664 C 0.2794 0.06538 0.34333 0.0
C665 C 0.25939 0.06084 0.38449 0.0
C666 C 0.2762 0.08251 0.29336 0.0
C667 C 0.2524 0.09526 0.28441 0.0
C668 C 0.23155 0.08908 0.3227 0.0
C669 C 0.23533 0.072 0.37235 0.0
C670 C 0.29887 0.08843 0.25345 0.0
C671 C 0.20575 0.10192 0.31434 0.0
H672 H 0.25423 0.18223 0.23983 0.0
H673 H 0.2297 0.12981 0.08805 0.0
H674 H 0.24995 0.14193 0.36364 0.0
H675 H 0.28227 0.1366 0.34046 0.0
H676 H 0.269 0.16848 0.33927 0.0
H677 H 0.23053 0.08527 0.09825 0.0
H678 H 0.25211 0.07299 0.15881 0.0
H679 H 0.219 0.07761 0.17529 0.0
H680 H 0.29811 0.05704 0.35311 0.0
H681 H 0.21985 0.06852 0.40425 0.0
H682 H 0.30625 0.10785 0.26691 0.0
H683 H 0.29307 0.08846 0.2022 0.0
H684 H 0.31472 0.07446 0.26018 0.0
H685 H 0.20745 0.12243 0.32935 0.0
H686 H 0.19083 0.09296 0.34296 0.0
H687 H 0.19927 0.1011 0.26353 0.0
C688 C 0.24268 0.32245 0.08026 0.0
C689 C 0.23401 0.30757 0.02697 0.0
C690 C 0.24219 0.34944 0.07979 0.0
C691 C 0.23282 0.36187 0.02477 0.0
C692 C 0.22377 0.34693 0.97123 0.0
C693 C 0.22445 0.3201 0.97301 0.0
C694 C 0.2519 0.36465 0.13789 0.0
C695 C 0.21357 0.35932 0.91155 0.0
C696 C 0.20897 0.43076 0.02436 0.0
C697 C 0.22925 0.44308 0.99588 0.0
C698 C 0.21048 0.40457 0.03792 0.0
C699 C 0.23274 0.39045 0.02193 0.0
C700 C 0.25381 0.40333 0.99628 0.0
C701 C 0.25176 0.42953 0.98337 0.0
C702 C 0.18763 0.39169 0.06551 0.0
C703 C 0.27788 0.3891 0.97852 0.0
H704 H 0.25005 0.31304 0.12227 0.0
H705 H 0.21758 0.30891 0.93159 0.0
H706 H 0.26852 0.37658 0.12549 0.0
H707 H 0.23675 0.3779 0.15477 0.0
H708 H 0.25792 0.35218 0.17751 0.0
H709 H 0.20694 0.34501 0.87433 0.0
H710 H 0.19727 0.37214 0.923 0.0
H711 H 0.22874 0.3713 0.89161 0.0
H712 H 0.19143 0.44128 0.03323 0.0
H713 H 0.2673 0.4391 0.96054 0.0
H714 H 0.19381 0.37957 0.10559 0.0
H715 H 0.17818 0.37895 0.02854 0.0
H716 H 0.17326 0.40578 0.08275 0.0
H717 H 0.28483 0.37719 0.0183 0.0
H718 H 0.29353 0.4023 0.96601 0.0
H719 H 0.27357 0.37598 0.93697 0.0
C720 C 0.17761 0.74103 0.4028 0.0
C721 C 0.19179 0.73282 0.45639 0.0
C722 C 0.15057 0.74176 0.4021 0.0
C723 C 0.13736 0.7341 0.45621 0.0
C724 C 0.15156 0.7255 0.51002 0.0
C725 C 0.17848 0.72495 0.50942 0.0
C726 C 0.13613 0.75096 0.34379 0.0
C727 C 0.13832 0.71711 0.56875 0.0
C728 C 0.07025 0.75677 0.49587 0.0
C729 C 0.05577 0.73464 0.48199 0.0
C730 C 0.09663 0.75745 0.48389 0.0
C731 C 0.10873 0.73536 0.45782 0.0
C732 C 0.0937 0.71346 0.44033 0.0
C733 C 0.06735 0.71333 0.45296 0.0
C734 C 0.11185 0.78119 0.50318 0.0
C735 C 0.10574 0.68955 0.41227 0.0
H736 H 0.18764 0.74711 0.36152 0.0
H737 H 0.18912 0.71846 0.55104 0.0
H738 H 0.12222 0.73614 0.32581 0.0
H739 H 0.12494 0.76836 0.35635 0.0
H740 H 0.14915 0.75554 0.3049 0.0
H741 H 0.15211 0.7106 0.60627 0.0
H742 H 0.12691 0.7332 0.58881 0.0
H743 H 0.12478 0.70122 0.55609 0.0
H744 H 0.06124 0.77311 0.51914 0.0
H745 H 0.0561 0.69611 0.44305 0.0
H746 H 0.12438 0.78674 0.46425 0.0
H747 H 0.1245 0.77719 0.5452 0.0
H748 H 0.09925 0.79764 0.51561 0.0
H749 H 0.11842 0.69439 0.37301 0.0
H750 H 0.09108 0.67551 0.39378 0.0
H751 H 0.11783 0.68029 0.44937 0.0
C752 C 0.76195 0.68737 0.06478 0.0
C753 C 0.76837 0.70149 0.0119 0.0
C754 C 0.76165 0.66047 0.06175 0.0
C755 C 0.7679 0.64725 0.00443 0.0
C756 C 0.77467 0.66132 0.95104 0.0
C757 C 0.77485 0.68824 0.95541 0.0
C758 C 0.75443 0.64618 0.11993 0.0
C759 C 0.78148 0.64794 0.88916 0.0
C760 C 0.78687 0.57773 0.02572 0.0
C761 C 0.76345 0.56523 0.01292 0.0
C762 C 0.78902 0.60435 0.01968 0.0
C763 C 0.76712 0.61868 0.0008 0.0
C764 C 0.74379 0.60577 0.98431 0.0
C765 C 0.74221 0.57912 0.99091 0.0
C766 C 0.81424 0.61731 0.03757 0.0
C767 C 0.72005 0.62027 0.96366 0.0
H768 H 0.75698 0.69733 0.10869 0.0
H769 H 0.7799 0.69891 0.91423 0.0
H770 H 0.73715 0.63425 0.10879 0.0
H771 H 0.7702 0.63306 0.13414 0.0
H772 H 0.75038 0.65928 0.16105 0.0
H773 H 0.78676 0.66163 0.85238 0.0
H774 H 0.7978 0.63467 0.89729 0.0
H775 H 0.76498 0.63623 0.87044 0.0
H776 H 0.80315 0.56689 0.04375 0.0
H777 H 0.72401 0.56936 0.98203 0.0
H778 H 0.81231 0.62867 0.08268 0.0
H779 H 0.81958 0.6308 0.00048 0.0
H780 H 0.83007 0.6033 0.04422 0.0
H781 H 0.71302 0.63193 0.00456 0.0
H782 H 0.70436 0.60725 0.94589 0.0
H783 H 0.72457 0.63365 0.92564 0.0
C784 C 0.82638 0.28202 0.59375 0.0
C785 C 0.81264 0.27404 0.53796 0.0
C786 C 0.85332 0.28372 0.59547 0.0
C787 C 0.86698 0.27743 0.54001 0.0
C788 C 0.85331 0.26897 0.48384 0.0
C789 C 0.82635 0.26735 0.4835 0.0
C790 C 0.86713 0.29278 0.65635 0.0
C791 C 0.86712 0.26219 0.42358 0.0
C792 C 0.93232 0.30819 0.52063 0.0
C793 C 0.94904 0.28811 0.53498 0.0
C794 C 0.90561 0.30502 0.52273 0.0
C795 C 0.89541 0.28112 0.53966 0.0
C796 C 0.91239 0.26084 0.55522 0.0
C797 C 0.93912 0.26457 0.55245 0.0
C798 C 0.88829 0.32712 0.50564 0.0
C799 C 0.90231 0.23514 0.57376 0.0
H800 H 0.81607 0.28719 0.63622 0.0
H801 H 0.816 0.26119 0.44013 0.0
H802 H 0.88208 0.27873 0.67037 0.0
H803 H 0.87701 0.31119 0.64873 0.0
H804 H 0.85387 0.29559 0.69629 0.0
H805 H 0.85385 0.25481 0.3848 0.0
H806 H 0.87708 0.27937 0.40681 0.0
H807 H 0.882 0.24749 0.43305 0.0
H808 H 0.94016 0.32633 0.50658 0.0
H809 H 0.9522 0.24901 0.56298 0.0
H810 H 0.87551 0.33186 0.54551 0.0
H811 H 0.87582 0.32163 0.46361 0.0
H812 H 0.89926 0.34457 0.49459 0.0
H813 H 0.88962 0.23756 0.61487 0.0
H814 H 0.918 0.22166 0.58657 0.0
H815 H 0.89056 0.22645 0.53373 0.0
C816 C 0.73839 0.1847 0.57609 0.0
C817 C 0.73155 0.19866 0.52214 0.0
C818 C 0.7353 0.15796 0.57617 0.0
C819 C 0.72513 0.1448 0.52101 0.0
C820 C 0.71858 0.1587 0.4661 0.0
C821 C 0.72183 0.18541 0.46733 0.0
C822 C 0.74246 0.14385 0.63575 0.0
C823 C 0.70765 0.1454 0.40635 0.0
C824 C 0.73376 0.07236 0.50477 0.0
C825 C 0.70997 0.06371 0.52423 0.0
C826 C 0.73903 0.09878 0.50327 0.0
C827 C 0.72002 0.11671 0.52187 0.0
C828 C 0.69591 0.10781 0.54135 0.0
C829 C 0.69121 0.08137 0.54227 0.0
C830 C 0.76491 0.10751 0.48213 0.0
C831 C 0.67512 0.12621 0.56153 0.0
H832 H 0.74592 0.1947 0.61866 0.0
H833 H 0.7165 0.19593 0.4253 0.0
H834 H 0.72511 0.13484 0.65456 0.0
H835 H 0.7562 0.12823 0.62464 0.0
H836 H 0.75123 0.15668 0.67363 0.0
H837 H 0.70466 0.15877 0.36673 0.0
H838 H 0.72069 0.12983 0.39056 0.0
H839 H 0.68896 0.13644 0.41632 0.0
H840 H 0.74824 0.05852 0.49108 0.0
H841 H 0.67283 0.07447 0.55752 0.0
H842 H 0.77469 0.11909 0.52089 0.0
H843 H 0.76245 0.11998 0.44063 0.0
H844 H 0.77751 0.09118 0.46878 0.0
H845 H 0.68218 0.13842 0.60258 0.0
H846 H 0.65744 0.11617 0.57526 0.0
H847 H 0.67008 0.13912 0.52214 0.0
C848 C 0.32605 0.22593 0.09394 0.0
C849 C 0.31231 0.23117 0.03719 0.0
C850 C 0.35302 0.22478 0.09618 0.0
C851 C 0.36671 0.22871 0.04023 0.0
C852 C 0.35301 0.23422 0.98295 0.0
C853 C 0.32604 0.23547 0.98216 0.0
C854 C 0.36688 0.21901 0.15829 0.0
C855 C 0.36682 0.23832 0.92206 0.0
C856 C 0.43832 0.24451 0.04832 0.0
C857 C 0.44902 0.22061 0.03327 0.0
C858 C 0.41153 0.24737 0.05253 0.0
C859 C 0.39525 0.22584 0.04068 0.0
C860 C 0.40625 0.20156 0.02683 0.0
C861 C 0.43302 0.19927 0.02334 0.0
C862 C 0.40061 0.27352 0.06785 0.0
C863 C 0.38968 0.17814 0.01364 0.0
H864 H 0.31571 0.22268 0.13686 0.0
H865 H 0.31568 0.23947 0.93804 0.0
H866 H 0.37739 0.20062 0.15333 0.0
H867 H 0.38131 0.23413 0.17064 0.0
H868 H 0.35355 0.21766 0.19823 0.0
H869 H 0.35346 0.24319 0.882 0.0
H870 H 0.38111 0.25397 0.92934 0.0
H871 H 0.37749 0.22071 0.90839 0.0
H872 H 0.45082 0.26103 0.05531 0.0
H873 H 0.44144 0.18085 0.01099 0.0
H874 H 0.38766 0.27255 0.10856 0.0
H875 H 0.38896 0.28016 0.02647 0.0
H876 H 0.41585 0.28793 0.07976 0.0
H877 H 0.3769 0.1752 0.05393 0.0
H878 H 0.40125 0.16052 0.00593 0.0
H879 H 0.37722 0.18096 0.97062 0.0
C880 C 0.26724 0.8229 0.50805 0.0
C881 C 0.27149 0.80816 0.45235 0.0
C882 C 0.27004 0.84968 0.50962 0.0
C883 C 0.2771 0.86222 0.45403 0.0
C884 C 0.28098 0.84755 0.39731 0.0
C885 C 0.27826 0.82072 0.3972 0.0
C886 C 0.26595 0.86451 0.57132 0.0
C887 C 0.28836 0.86017 0.33694 0.0
C888 C 0.26524 0.93438 0.4546 0.0
C889 C 0.28948 0.94384 0.47379 0.0
C890 C 0.26109 0.90783 0.44544 0.0
C891 C 0.28163 0.89052 0.45656 0.0
C892 C 0.30632 0.90027 0.47419 0.0
C893 C 0.30992 0.92684 0.48255 0.0
C894 C 0.23455 0.89826 0.42618 0.0
C895 C 0.32872 0.8826 0.48691 0.0
H896 H 0.2621 0.81346 0.55102 0.0
H897 H 0.28153 0.80959 0.35383 0.0
H898 H 0.28402 0.87433 0.58734 0.0
H899 H 0.25119 0.87952 0.56404 0.0
H900 H 0.2598 0.85201 0.60981 0.0
H901 H 0.28937 0.84627 0.29598 0.0
H902 H 0.27426 0.87531 0.32472 0.0
H903 H 0.30735 0.8696 0.34425 0.0
H904 H 0.24941 0.94764 0.44849 0.0
H905 H 0.3286 0.93429 0.49808 0.0
H906 H 0.22646 0.88763 0.46577 0.0
H907 H 0.23546 0.88472 0.38456 0.0
H908 H 0.22127 0.91413 0.41402 0.0
H909 H 0.32483 0.87085 0.52858 0.0
H910 H 0.34696 0.89324 0.49667 0.0
H911 H 0.33127 0.86921 0.44558 0.0
C912 C 0.6759 0.77266 0.97725 0.0
C913 C 0.69088 0.77792 0.03287 0.0
C914 C 0.64897 0.77434 0.97715 0.0
C915 C 0.63657 0.78132 0.03412 0.0
C916 C 0.65151 0.78615 0.09073 0.0
C917 C 0.67844 0.7845 0.0894 0.0
C918 C 0.63382 0.76922 0.91559 0.0
C919 C 0.63906 0.7935 0.15252 0.0
C920 C 0.5708 0.8121 0.01359 0.0
C921 C 0.55438 0.79136 0.02156 0.0
C922 C 0.59756 0.80923 0.01924 0.0
C923 C 0.60812 0.78497 0.0333 0.0
C924 C 0.59143 0.7641 0.04333 0.0
C925 C 0.56465 0.76753 0.03696 0.0
C926 C 0.61455 0.83195 0.00787 0.0
C927 C 0.60189 0.73802 0.05884 0.0
H928 H 0.68523 0.7676 0.93328 0.0
H929 H 0.68976 0.78852 0.13275 0.0
H930 H 0.61925 0.75412 0.92199 0.0
H931 H 0.62336 0.7868 0.90176 0.0
H932 H 0.64624 0.76308 0.87595 0.0
H933 H 0.65321 0.79519 0.19312 0.0
H934 H 0.62904 0.81212 0.14785 0.0
H935 H 0.62438 0.77907 0.16361 0.0
H936 H 0.5627 0.83047 0.00106 0.0
H937 H 0.55181 0.75148 0.04253 0.0
H938 H 0.62616 0.82795 0.96537 0.0
H939 H 0.62814 0.83533 0.04899 0.0
H940 H 0.60333 0.84974 0.0002 0.0
H941 H 0.61254 0.73008 0.01786 0.0
H942 H 0.58645 0.72433 0.06984 0.0
H943 H 0.61566 0.73956 0.10017 0.0
loop_
_geom_bond_atom_site_label_1
_geom_bond_atom_site_label_2
_geom_bond_distance
_geom_bond_site_symmetry_2
_ccdc_geom_bond_type
Fe0 O2 1.918 . S
Fe0 O5 1.997 . S
Fe0 O6 2.002 . S
Fe0 O11 1.976 . S
Fe0 O14 1.996 . S
Fe1 O2 1.918 1_556 S
Fe1 O9 1.997 . S
Fe1 O12 1.996 . S
Fe1 O16 1.976 . S
Fe1 O19 2.002 . S
O2 Fe0 1.918 . S
O2 Fe1 1.918 1_554 S
O2 Fe3 1.918 . S
Fe3 O2 1.918 . S
Fe3 O4 2.006 . S
Fe3 O13 1.979 . S
Fe3 O17 1.992 1_554 S
Fe3 O20 1.993 1_554 S
O4 Fe3 2.006 . S
O4 C21 1.295 . S
O5 Fe0 1.997 . S
O5 C21 1.235 . S
O6 Fe0 2.002 . S
O6 C7 1.295 . S
C7 O6 1.295 . S
C7 O9 1.235 1_554 S
C8 O13 1.287 . S
C8 O14 1.255 . S
O9 Fe1 1.997 . S
O9 C7 1.235 1_556 S
C10 O16 1.287 . S
C10 O17 1.255 . S
O11 Fe0 1.976 . S
O11 C18 1.287 . S
O12 Fe1 1.996 . S
O12 C18 1.255 1_556 S
O13 Fe3 1.979 . S
O13 C8 1.287 . S
O14 Fe0 1.996 . S
O14 C8 1.255 . S
C15 O19 1.295 . S
C15 O20 1.235 . S
O16 Fe1 1.976 . S
O16 C10 1.287 . S
O17 Fe3 1.992 1_556 S
O17 C10 1.255 . S
C18 O11 1.287 . S
C18 O12 1.255 1_554 S
O19 Fe1 2.002 . S
O19 C15 1.295 . S
O20 Fe3 1.993 1_556 S
O20 C15 1.235 . S
C21 O4 1.295 . S
C21 O5 1.235 . S
Fe22 O24 1.918 . S
Fe22 O27 1.997 . S
Fe22 O28 2.002 . S
Fe22 O33 1.976 . S
Fe22 O36 1.996 . S
Fe23 O24 1.918 . S
Fe23 O31 1.997 . S
Fe23 O34 1.996 . S
Fe23 O38 1.976 . S
Fe23 O41 2.002 . S
O24 Fe22 1.918 . S
O24 Fe23 1.918 . S
O24 Fe25 1.918 . S
Fe25 O24 1.918 . S
Fe25 O26 2.002 . S
Fe25 O35 1.976 . S
Fe25 O39 1.996 . S
Fe25 O42 1.997 . S
O26 Fe25 2.002 . S
O26 C43 1.295 . S
O27 Fe22 1.997 . S
O27 C43 1.235 . S
O28 Fe22 2.002 . S
O28 C29 1.295 . S
C29 O28 1.295 . S
C29 O31 1.235 . S
C30 O35 1.287 . S
C30 O36 1.255 . S
O31 Fe23 1.997 . S
O31 C29 1.235 . S
C32 O38 1.287 . S
C32 O39 1.255 . S
O33 Fe22 1.976 . S
O33 C40 1.287 . S
O34 Fe23 1.996 . S
O34 C40 1.255 . S
O35 Fe25 1.976 . S
O35 C30 1.287 . S
O36 Fe22 1.996 . S
O36 C30 1.255 . S
C37 O41 1.295 . S
C37 O42 1.235 . S
O38 Fe23 1.976 . S
O38 C32 1.287 . S
O39 Fe25 1.996 . S
O39 C32 1.255 . S
C40 O33 1.287 . S
C40 O34 1.255 . S
O41 Fe23 2.002 . S
O41 C37 1.295 . S
O42 Fe25 1.997 . S
O42 C37 1.235 . S
C43 O26 1.295 . S
C43 O27 1.235 . S
Fe44 O46 1.918 1_556 S
Fe44 O49 1.997 . S
Fe44 O50 2.002 . S
Fe44 O55 1.976 . S
Fe44 O58 1.996 . S
Fe45 O46 1.918 . S
Fe45 O53 1.997 . S
Fe45 O56 1.996 . S
Fe45 O60 1.976 . S
Fe45 O63 2.002 . S
O46 Fe44 1.918 1_554 S
O46 Fe45 1.918 . S
O46 Fe47 1.918 . S
Fe47 O46 1.918 . S
Fe47 O48 2.002 1_554 S
Fe47 O57 1.976 1_554 S
Fe47 O61 1.996 . S
Fe47 O64 1.997 . S
O48 Fe47 2.002 1_556 S
O48 C65 1.295 . S
O49 Fe44 1.997 . S
O49 C65 1.235 . S
O50 Fe44 2.002 . S
O50 C51 1.295 1_556 S
C51 O50 1.295 1_554 S
C51 O53 1.235 . S
C52 O57 1.287 . S
C52 O58 1.255 . S
O53 Fe45 1.997 . S
O53 C51 1.235 . S
C54 O60 1.287 . S
C54 O61 1.255 . S
O55 Fe44 1.976 . S
O55 C62 1.287 1_556 S
O56 Fe45 1.996 . S
O56 C62 1.255 . S
O57 Fe47 1.976 1_556 S
O57 C52 1.287 . S
O58 Fe44 1.996 . S
O58 C52 1.255 . S
C59 O63 1.295 . S
C59 O64 1.235 . S
O60 Fe45 1.976 . S
O60 C54 1.287 . S
O61 Fe47 1.996 . S
O61 C54 1.255 . S
C62 O55 1.287 1_554 S
C62 O56 1.255 . S
O63 Fe45 2.002 . S
O63 C59 1.295 . S
O64 Fe47 1.997 . S
O64 C59 1.235 . S
C65 O48 1.295 . S
C65 O49 1.235 . S
Fe66 O68 1.918 . S
Fe66 O71 1.997 . S
Fe66 O72 2.002 . S
Fe66 O77 1.976 . S
Fe66 O80 1.996 . S
Fe67 O68 1.918 . S
Fe67 O75 1.997 . S
Fe67 O78 1.996 . S
Fe67 O82 1.976 . S
Fe67 O85 2.002 . S
O68 Fe66 1.918 . S
O68 Fe67 1.918 . S
O68 Fe69 1.918 . S
Fe69 O68 1.918 . S
Fe69 O70 2.002 . S
Fe69 O79 1.976 . S
Fe69 O83 1.996 . S
Fe69 O86 1.997 . S
O70 Fe69 2.002 . S
O70 C87 1.295 . S
O71 Fe66 1.997 . S
O71 C87 1.235 . S
O72 Fe66 2.002 . S
O72 C73 1.295 . S
C73 O72 1.295 . S
C73 O75 1.235 . S
C74 O79 1.287 . S
C74 O80 1.255 . S
O75 Fe67 1.997 . S
O75 C73 1.235 . S
C76 O82 1.287 . S
C76 O83 1.255 . S
O77 Fe66 1.976 . S
O77 C84 1.287 . S
O78 Fe67 1.996 . S
O78 C84 1.255 . S
O79 Fe69 1.976 . S
O79 C74 1.287 . S
O80 Fe66 1.996 . S
O80 C74 1.255 . S
C81 O85 1.295 . S
C81 O86 1.235 . S
O82 Fe67 1.976 . S
O82 C76 1.287 . S
O83 Fe69 1.996 . S
O83 C76 1.255 . S
C84 O77 1.287 . S
C84 O78 1.255 . S
O85 Fe67 2.002 . S
O85 C81 1.295 . S
O86 Fe69 1.997 . S
O86 C81 1.235 . S
C87 O70 1.295 . S
C87 O71 1.235 . S
H88 C91 0.929 1_554 S
H89 C94 0.929 . S
H90 C96 0.930 . S
C91 H88 0.929 1_556 S
C91 C92 1.409 . S
C91 C93 1.386 1_556 S
C92 C91 1.409 . S
C92 C96 1.407 . S
C93 C91 1.386 1_554 S
C93 C94 1.394 . S
C94 H89 0.929 . S
C94 C93 1.394 . S
C94 C95 1.382 1_554 S
C95 C94 1.382 1_556 S
C95 C96 1.392 . S
C95 N97 1.420 . S
C96 H90 0.930 . S
C96 C92 1.407 . S
C96 C95 1.392 . S
N97 C95 1.420 . S
N97 C98 1.244 1_556 S
C98 N97 1.244 1_554 S
H99 C102 0.929 . S
H100 C105 0.957 . S
H101 C107 0.930 . S
C102 H99 0.929 . S
C102 C103 1.398 . S
C102 C104 1.396 . S
C103 C102 1.398 . S
C103 C107 1.407 . S
C104 C102 1.396 . S
C104 C105 1.394 . S
C105 H100 0.957 . S
C105 C104 1.394 . S
C105 C106 1.376 1_655 S
C106 C105 1.376 1_455 S
C106 C107 1.383 1_455 S
C106 N108 1.435 . S
C107 H101 0.930 . S
C107 C103 1.407 . S
C107 C106 1.383 1_655 S
N108 C106 1.435 . S
N108 C109 1.244 . S
C109 N108 1.244 . S
H110 C113 0.929 . S
H111 C116 0.929 . S
H112 C118 0.930 . S
C113 H110 0.929 . S
C113 C114 1.398 . S
C113 C115 1.396 1_554 S
C114 C113 1.398 . S
C114 C118 1.407 . S
C115 C113 1.396 1_556 S
C115 C116 1.394 . S
C116 H111 0.929 . S
C116 C115 1.394 . S
C116 C117 1.382 1_556 S
C117 C116 1.382 1_554 S
C117 C118 1.392 . S
C117 N119 1.420 . S
C118 H112 0.930 . S
C118 C114 1.407 . S
C118 C117 1.392 . S
N119 C117 1.420 . S
N119 C120 1.244 . S
C120 N119 1.244 . S
H121 C124 0.929 . S
H122 C127 0.953 . S
H123 C129 0.930 . S
C124 H121 0.929 . S
C124 C125 1.398 . S
C124 C126 1.396 . S
C125 C124 1.398 . S
C125 C129 1.407 . S
C126 C124 1.396 . S
C126 C127 1.394 . S
C127 H122 0.953 . S
C127 C126 1.394 . S
C127 C128 1.374 1_455 S
C128 C127 1.374 1_655 S
C128 C129 1.380 1_655 S
C128 N130 1.440 . S
C129 H123 0.930 . S
C129 C125 1.407 . S
C129 C128 1.380 1_455 S
N130 C128 1.440 . S
N130 C131 1.244 . S
C131 N130 1.244 . S
H132 C135 0.929 . S
H133 C138 0.929 1_545 S
H134 C140 0.930 . S
C135 H132 0.929 . S
C135 C136 1.398 . S
C135 C137 1.396 . S
C136 C135 1.398 . S
C136 C140 1.407 . S
C137 C135 1.396 . S
C137 C138 1.394 . S
C138 H133 0.929 1_565 S
C138 C137 1.394 . S
C138 C139 1.382 1_565 S
C139 C138 1.382 1_545 S
C139 C140 1.392 1_545 S
C139 N141 1.420 . S
C140 H134 0.930 . S
C140 C136 1.407 . S
C140 C139 1.392 1_565 S
N141 C139 1.420 . S
N141 C142 1.244 . S
C142 N141 1.244 . S
H143 C146 0.929 . S
H144 C149 0.929 . S
H145 C151 0.930 . S
C146 H143 0.929 . S
C146 C147 1.398 1_554 S
C146 C148 1.396 . S
C147 C146 1.398 1_556 S
C147 C151 1.407 . S
C148 C146 1.396 . S
C148 C149 1.394 . S
C149 H144 0.929 . S
C149 C148 1.394 . S
C149 C150 1.382 1_554 S
C150 C149 1.382 1_556 S
C150 C151 1.392 . S
C150 N152 1.420 . S
C151 H145 0.930 . S
C151 C147 1.407 . S
C151 C150 1.392 . S
N152 C150 1.420 . S
N152 C153 1.244 1_556 S
C153 N152 1.244 1_554 S
H154 C157 0.929 . S
H155 C160 0.903 1_565 S
H156 C162 0.930 . S
C157 H154 0.929 . S
C157 C158 1.398 . S
C157 C159 1.396 . S
C158 C157 1.398 . S
C158 C162 1.407 . S
C159 C157 1.396 . S
C159 C160 1.394 . S
C160 H155 0.903 1_545 S
C160 C159 1.394 . S
C160 C161 1.382 1_545 S
C161 C160 1.382 1_565 S
C161 C162 1.392 1_565 S
C161 N163 1.420 . S
C162 H156 0.930 . S
C162 C158 1.407 . S
C162 C161 1.392 1_545 S
N163 C161 1.420 . S
N163 C164 1.244 . S
C164 N163 1.244 . S
H165 C168 0.929 . S
H166 C171 0.929 . S
H167 C173 0.930 . S
C168 H165 0.929 . S
C168 C169 1.398 . S
C168 C170 1.396 1_554 S
C169 C168 1.398 . S
C169 C173 1.407 . S
C170 C168 1.396 1_556 S
C170 C171 1.394 . S
C171 H166 0.929 . S
C171 C170 1.394 . S
C171 C172 1.382 1_556 S
C172 C171 1.382 1_554 S
C172 C173 1.392 . S
C172 N174 1.420 . S
C173 H167 0.930 . S
C173 C169 1.407 . S
C173 C172 1.392 . S
N174 C172 1.420 . S
N174 C175 1.244 . S
C175 N174 1.244 . S
C176 C177 1.391 . S
C176 C178 1.394 . S
C176 H192 0.931 . S
C177 C176 1.391 . S
C177 C181 1.376 . S
C178 C176 1.394 . S
C178 C179 1.369 . S
C178 C182 1.531 . S
C179 C178 1.369 . S
C179 C180 1.410 . S
C179 C187 1.503 . S
C180 C179 1.410 . S
C180 C181 1.392 . S
C180 C183 1.511 . S
C181 C177 1.376 . S
C181 C180 1.392 . S
C181 H193 0.929 . S
C182 C178 1.531 . S
C182 H194 0.960 . S
C182 H195 0.962 . S
C182 H196 0.960 . S
C183 C180 1.511 . S
C183 H197 0.961 . S
C183 H198 0.961 . S
C183 H199 0.961 . S
C184 C185 1.370 . S
C184 C186 1.363 . S
C184 H200 0.931 . S
C185 C184 1.370 . S
C185 C189 1.408 . S
C186 C184 1.363 . S
C186 C187 1.370 . S
C186 C190 1.524 . S
C187 C179 1.503 . S
C187 C186 1.370 . S
C187 C188 1.403 . S
C188 C187 1.403 . S
C188 C189 1.404 . S
C188 C191 1.539 . S
C189 C185 1.408 . S
C189 C188 1.404 . S
C189 H201 0.930 . S
C190 C186 1.524 . S
C190 H202 0.956 . S
C190 H203 0.961 . S
C190 H204 0.961 . S
C191 C188 1.539 . S
C191 H205 0.958 . S
C191 H206 0.961 . S
C191 H207 0.960 . S
H192 C176 0.931 . S
H193 C181 0.929 . S
H194 C182 0.960 . S
H195 C182 0.962 . S
H196 C182 0.960 . S
H197 C183 0.961 . S
H198 C183 0.961 . S
H199 C183 0.961 . S
H200 C184 0.931 . S
H201 C189 0.930 . S
H202 C190 0.956 . S
H203 C190 0.961 . S
H204 C190 0.961 . S
H205 C191 0.958 . S
H206 C191 0.961 . S
H207 C191 0.960 . S
C208 C209 1.391 . S
C208 C210 1.394 . S
C208 H224 0.931 . S
C209 C208 1.391 . S
C209 C213 1.376 . S
C210 C208 1.394 . S
C210 C211 1.369 . S
C210 C214 1.531 . S
C211 C210 1.369 . S
C211 C212 1.410 . S
C211 C219 1.503 . S
C212 C211 1.410 . S
C212 C213 1.392 . S
C212 C215 1.511 . S
C213 C209 1.376 . S
C213 C212 1.392 . S
C213 H225 0.929 . S
C214 C210 1.531 . S
C214 H226 0.960 . S
C214 H227 0.962 . S
C214 H228 0.960 . S
C215 C212 1.511 . S
C215 H229 0.961 . S
C215 H230 0.961 . S
C215 H231 0.961 . S
C216 C217 1.370 . S
C216 C218 1.363 . S
C216 H232 0.931 . S
C217 C216 1.370 . S
C217 C221 1.408 . S
C218 C216 1.363 . S
C218 C219 1.370 . S
C218 C222 1.524 . S
C219 C211 1.503 . S
C219 C218 1.370 . S
C219 C220 1.403 . S
C220 C219 1.403 . S
C220 C221 1.404 . S
C220 C223 1.539 . S
C221 C217 1.408 . S
C221 C220 1.404 . S
C221 H233 0.930 . S
C222 C218 1.524 . S
C222 H234 0.956 . S
C222 H235 0.961 . S
C222 H236 0.961 . S
C223 C220 1.539 . S
C223 H237 0.958 . S
C223 H238 0.961 . S
C223 H239 0.960 . S
H224 C208 0.931 . S
H225 C213 0.929 . S
H226 C214 0.960 . S
H227 C214 0.962 . S
H228 C214 0.960 . S
H229 C215 0.961 . S
H230 C215 0.961 . S
H231 C215 0.961 . S
H232 C216 0.931 . S
H233 C221 0.930 . S
H234 C222 0.956 . S
H235 C222 0.961 . S
H236 C222 0.961 . S
H237 C223 0.958 . S
H238 C223 0.961 . S
H239 C223 0.960 . S
C240 C241 1.391 . S
C240 C242 1.394 . S
C240 H256 0.931 . S
C241 C240 1.391 . S
C241 C245 1.376 . S
C242 C240 1.394 . S
C242 C243 1.369 . S
C242 C246 1.531 . S
C243 C242 1.369 . S
C243 C244 1.410 . S
C243 C251 1.503 . S
C244 C243 1.410 . S
C244 C245 1.392 . S
C244 C247 1.511 . S
C245 C241 1.376 . S
C245 C244 1.392 . S
C245 H257 0.929 . S
C246 C242 1.531 . S
C246 H258 0.960 . S
C246 H259 0.962 . S
C246 H260 0.960 . S
C247 C244 1.511 . S
C247 H261 0.961 . S
C247 H262 0.961 . S
C247 H263 0.961 . S
C248 C249 1.370 . S
C248 C250 1.363 . S
C248 H264 0.931 . S
C249 C248 1.370 . S
C249 C253 1.408 . S
C250 C248 1.363 . S
C250 C251 1.370 . S
C250 C254 1.524 . S
C251 C243 1.503 . S
C251 C250 1.370 . S
C251 C252 1.403 . S
C252 C251 1.403 . S
C252 C253 1.404 . S
C252 C255 1.539 . S
C253 C249 1.408 . S
C253 C252 1.404 . S
C253 H265 0.930 . S
C254 C250 1.524 . S
C254 H266 0.956 . S
C254 H267 0.961 . S
C254 H268 0.961 . S
C255 C252 1.539 . S
C255 H269 0.958 . S
C255 H270 0.961 . S
C255 H271 0.960 . S
H256 C240 0.931 . S
H257 C245 0.929 . S
H258 C246 0.960 . S
H259 C246 0.962 . S
H260 C246 0.960 . S
H261 C247 0.961 . S
H262 C247 0.961 . S
H263 C247 0.961 . S
H264 C248 0.931 . S
H265 C253 0.930 . S
H266 C254 0.956 . S
H267 C254 0.961 . S
H268 C254 0.961 . S
H269 C255 0.958 . S
H270 C255 0.961 . S
H271 C255 0.960 . S
C272 C273 1.391 . S
C272 C274 1.394 . S
C272 H288 0.931 . S
C273 C272 1.391 . S
C273 C277 1.376 . S
C274 C272 1.394 . S
C274 C275 1.369 . S
C274 C278 1.531 . S
C275 C274 1.369 . S
C275 C276 1.410 . S
C275 C283 1.503 . S
C276 C275 1.410 . S
C276 C277 1.392 . S
C276 C279 1.511 . S
C277 C273 1.376 . S
C277 C276 1.392 . S
C277 H289 0.929 . S
C278 C274 1.531 . S
C278 H290 0.960 . S
C278 H291 0.962 . S
C278 H292 0.960 . S
C279 C276 1.511 . S
C279 H293 0.961 . S
C279 H294 0.961 . S
C279 H295 0.961 . S
C280 C281 1.370 . S
C280 C282 1.363 . S
C280 H296 0.931 . S
C281 C280 1.370 . S
C281 C285 1.408 . S
C282 C280 1.363 . S
C282 C283 1.370 . S
C282 C286 1.524 . S
C283 C275 1.503 . S
C283 C282 1.370 . S
C283 C284 1.403 . S
C284 C283 1.403 . S
C284 C285 1.404 . S
C284 C287 1.539 . S
C285 C281 1.408 . S
C285 C284 1.404 . S
C285 H297 0.930 . S
C286 C282 1.524 . S
C286 H298 0.956 . S
C286 H299 0.961 . S
C286 H300 0.961 . S
C287 C284 1.539 . S
C287 H301 0.958 . S
C287 H302 0.961 . S
C287 H303 0.960 . S
H288 C272 0.931 . S
H289 C277 0.929 . S
H290 C278 0.960 . S
H291 C278 0.962 . S
H292 C278 0.960 . S
H293 C279 0.961 . S
H294 C279 0.961 . S
H295 C279 0.961 . S
H296 C280 0.931 . S
H297 C285 0.930 . S
H298 C286 0.956 . S
H299 C286 0.961 . S
H300 C286 0.961 . S
H301 C287 0.958 . S
H302 C287 0.961 . S
H303 C287 0.960 . S
C304 C305 1.391 . S
C304 C306 1.394 . S
C304 H320 0.931 . S
C305 C304 1.391 . S
C305 C309 1.376 . S
C306 C304 1.394 . S
C306 C307 1.369 . S
C306 C310 1.531 . S
C307 C306 1.369 . S
C307 C308 1.410 . S
C307 C315 1.503 . S
C308 C307 1.410 . S
C308 C309 1.392 . S
C308 C311 1.511 . S
C309 C305 1.376 . S
C309 C308 1.392 . S
C309 H321 0.929 . S
C310 C306 1.531 . S
C310 H322 0.960 . S
C310 H323 0.962 . S
C310 H324 0.960 . S
C311 C308 1.511 . S
C311 H325 0.961 . S
C311 H326 0.961 . S
C311 H327 0.961 . S
C312 C313 1.370 . S
C312 C314 1.363 . S
C312 H328 0.931 . S
C313 C312 1.370 . S
C313 C317 1.408 . S
C314 C312 1.363 . S
C314 C315 1.370 . S
C314 C318 1.524 . S
C315 C307 1.503 . S
C315 C314 1.370 . S
C315 C316 1.403 . S
C316 C315 1.403 . S
C316 C317 1.404 . S
C316 C319 1.539 . S
C317 C313 1.408 . S
C317 C316 1.404 . S
C317 H329 0.930 . S
C318 C314 1.524 . S
C318 H330 0.956 . S
C318 H331 0.961 . S
C318 H332 0.961 . S
C319 C316 1.539 . S
C319 H333 0.958 . S
C319 H334 0.961 . S
C319 H335 0.960 . S
H320 C304 0.931 . S
H321 C309 0.929 . S
H322 C310 0.960 . S
H323 C310 0.962 . S
H324 C310 0.960 . S
H325 C311 0.961 . S
H326 C311 0.961 . S
H327 C311 0.961 . S
H328 C312 0.931 . S
H329 C317 0.930 . S
H330 C318 0.956 . S
H331 C318 0.961 . S
H332 C318 0.961 . S
H333 C319 0.958 . S
H334 C319 0.961 . S
H335 C319 0.960 . S
C336 C337 1.391 . S
C336 C338 1.394 . S
C336 H352 0.931 . S
C337 C336 1.391 . S
C337 C341 1.376 . S
C338 C336 1.394 . S
C338 C339 1.369 . S
C338 C342 1.531 . S
C339 C338 1.369 . S
C339 C340 1.410 . S
C339 C347 1.503 . S
C340 C339 1.410 . S
C340 C341 1.392 . S
C340 C343 1.511 . S
C341 C337 1.376 . S
C341 C340 1.392 . S
C341 H353 0.929 . S
C342 C338 1.531 . S
C342 H354 0.960 . S
C342 H355 0.962 . S
C342 H356 0.960 . S
C343 C340 1.511 . S
C343 H357 0.961 . S
C343 H358 0.961 . S
C343 H359 0.961 . S
C344 C345 1.370 . S
C344 C346 1.363 . S
C344 H360 0.931 . S
C345 C344 1.370 . S
C345 C349 1.408 . S
C346 C344 1.363 . S
C346 C347 1.370 . S
C346 C350 1.524 . S
C347 C339 1.503 . S
C347 C346 1.370 . S
C347 C348 1.403 . S
C348 C347 1.403 . S
C348 C349 1.404 . S
C348 C351 1.539 . S
C349 C345 1.408 . S
C349 C348 1.404 . S
C349 H361 0.930 . S
C350 C346 1.524 . S
C350 H362 0.956 . S
C350 H363 0.961 . S
C350 H364 0.961 . S
C351 C348 1.539 . S
C351 H365 0.958 . S
C351 H366 0.961 . S
C351 H367 0.960 . S
H352 C336 0.931 . S
H353 C341 0.929 . S
H354 C342 0.960 . S
H355 C342 0.962 . S
H356 C342 0.960 . S
H357 C343 0.961 . S
H358 C343 0.961 . S
H359 C343 0.961 . S
H360 C344 0.931 . S
H361 C349 0.930 . S
H362 C350 0.956 . S
H363 C350 0.961 . S
H364 C350 0.961 . S
H365 C351 0.958 . S
H366 C351 0.961 . S
H367 C351 0.960 . S
C368 C369 1.391 . S
C368 C370 1.394 . S
C368 H384 0.931 . S
C369 C368 1.391 . S
C369 C373 1.376 . S
C370 C368 1.394 . S
C370 C371 1.369 . S
C370 C374 1.531 . S
C371 C370 1.369 . S
C371 C372 1.410 . S
C371 C379 1.503 . S
C372 C371 1.410 . S
C372 C373 1.392 . S
C372 C375 1.511 . S
C373 C369 1.376 . S
C373 C372 1.392 . S
C373 H385 0.929 . S
C374 C370 1.531 . S
C374 H386 0.960 . S
C374 H387 0.962 . S
C374 H388 0.960 . S
C375 C372 1.511 . S
C375 H389 0.961 . S
C375 H390 0.961 . S
C375 H391 0.961 . S
C376 C377 1.370 . S
C376 C378 1.363 . S
C376 H392 0.931 . S
C377 C376 1.370 . S
C377 C381 1.408 . S
C378 C376 1.363 . S
C378 C379 1.370 . S
C378 C382 1.524 . S
C379 C371 1.503 . S
C379 C378 1.370 . S
C379 C380 1.403 . S
C380 C379 1.403 . S
C380 C381 1.404 . S
C380 C383 1.539 . S
C381 C377 1.408 . S
C381 C380 1.404 . S
C381 H393 0.930 . S
C382 C378 1.524 . S
C382 H394 0.956 . S
C382 H395 0.961 . S
C382 H396 0.961 . S
C383 C380 1.539 . S
C383 H397 0.958 . S
C383 H398 0.961 . S
C383 H399 0.960 . S
H384 C368 0.931 . S
H385 C373 0.929 . S
H386 C374 0.960 . S
H387 C374 0.962 . S
H388 C374 0.960 . S
H389 C375 0.961 . S
H390 C375 0.961 . S
H391 C375 0.961 . S
H392 C376 0.931 . S
H393 C381 0.930 . S
H394 C382 0.956 . S
H395 C382 0.961 . S
H396 C382 0.961 . S
H397 C383 0.958 . S
H398 C383 0.961 . S
H399 C383 0.960 . S
C400 C401 1.391 . S
C400 C402 1.394 . S
C400 H416 0.931 . S
C401 C400 1.391 . S
C401 C405 1.376 . S
C402 C400 1.394 . S
C402 C403 1.369 . S
C402 C406 1.531 . S
C403 C402 1.369 . S
C403 C404 1.410 . S
C403 C411 1.503 . S
C404 C403 1.410 . S
C404 C405 1.392 . S
C404 C407 1.511 . S
C405 C401 1.376 . S
C405 C404 1.392 . S
C405 H417 0.929 . S
C406 C402 1.531 . S
C406 H418 0.960 . S
C406 H419 0.962 . S
C406 H420 0.960 . S
C407 C404 1.511 . S
C407 H421 0.961 . S
C407 H422 0.961 . S
C407 H423 0.961 . S
C408 C409 1.370 . S
C408 C410 1.363 . S
C408 H424 0.931 . S
C409 C408 1.370 . S
C409 C413 1.408 . S
C410 C408 1.363 . S
C410 C411 1.370 . S
C410 C414 1.524 . S
C411 C403 1.503 . S
C411 C410 1.370 . S
C411 C412 1.403 . S
C412 C411 1.403 . S
C412 C413 1.404 . S
C412 C415 1.539 . S
C413 C409 1.408 . S
C413 C412 1.404 . S
C413 H425 0.930 . S
C414 C410 1.524 . S
C414 H426 0.956 . S
C414 H427 0.961 . S
C414 H428 0.961 . S
C415 C412 1.539 . S
C415 H429 0.958 . S
C415 H430 0.961 . S
C415 H431 0.960 . S
H416 C400 0.931 . S
H417 C405 0.929 . S
H418 C406 0.960 . S
H419 C406 0.962 . S
H420 C406 0.960 . S
H421 C407 0.961 . S
H422 C407 0.961 . S
H423 C407 0.961 . S
H424 C408 0.931 . S
H425 C413 0.930 . S
H426 C414 0.956 . S
H427 C414 0.961 . S
H428 C414 0.961 . S
H429 C415 0.958 . S
H430 C415 0.961 . S
H431 C415 0.960 . S
C432 C433 1.391 . S
C432 C434 1.394 . S
C432 H448 0.931 . S
C433 C432 1.391 . S
C433 C437 1.376 . S
C434 C432 1.394 . S
C434 C435 1.369 . S
C434 C438 1.531 . S
C435 C434 1.369 . S
C435 C436 1.410 . S
C435 C443 1.503 . S
C436 C435 1.410 . S
C436 C437 1.392 . S
C436 C439 1.511 . S
C437 C433 1.376 . S
C437 C436 1.392 . S
C437 H449 0.929 . S
C438 C434 1.531 . S
C438 H450 0.960 . S
C438 H451 0.962 . S
C438 H452 0.960 . S
C439 C436 1.511 . S
C439 H453 0.961 . S
C439 H454 0.961 . S
C439 H455 0.961 . S
C440 C441 1.370 . S
C440 C442 1.363 . S
C440 H456 0.931 . S
C441 C440 1.370 . S
C441 C445 1.408 . S
C442 C440 1.363 . S
C442 C443 1.370 . S
C442 C446 1.524 . S
C443 C435 1.503 . S
C443 C442 1.370 . S
C443 C444 1.403 . S
C444 C443 1.403 . S
C444 C445 1.404 . S
C444 C447 1.539 . S
C445 C441 1.408 . S
C445 C444 1.404 . S
C445 H457 0.930 . S
C446 C442 1.524 . S
C446 H458 0.956 . S
C446 H459 0.961 . S
C446 H460 0.961 . S
C447 C444 1.539 . S
C447 H461 0.958 . S
C447 H462 0.961 . S
C447 H463 0.960 . S
H448 C432 0.931 . S
H449 C437 0.929 . S
H450 C438 0.960 . S
H451 C438 0.962 . S
H452 C438 0.960 . S
H453 C439 0.961 . S
H454 C439 0.961 . S
H455 C439 0.961 . S
H456 C440 0.931 . S
H457 C445 0.930 . S
H458 C446 0.956 . S
H459 C446 0.961 . S
H460 C446 0.961 . S
H461 C447 0.958 . S
H462 C447 0.961 . S
H463 C447 0.960 . S
C464 C465 1.391 . S
C464 C466 1.394 . S
C464 H480 0.931 . S
C465 C464 1.391 . S
C465 C469 1.376 . S
C466 C464 1.394 . S
C466 C467 1.369 . S
C466 C470 1.531 . S
C467 C466 1.369 . S
C467 C468 1.410 . S
C467 C475 1.503 . S
C468 C467 1.410 . S
C468 C469 1.392 . S
C468 C471 1.511 . S
C469 C465 1.376 . S
C469 C468 1.392 . S
C469 H481 0.929 . S
C470 C466 1.531 . S
C470 H482 0.960 . S
C470 H483 0.962 . S
C470 H484 0.960 . S
C471 C468 1.511 . S
C471 H485 0.961 . S
C471 H486 0.961 . S
C471 H487 0.961 . S
C472 C473 1.370 . S
C472 C474 1.363 . S
C472 H488 0.931 . S
C473 C472 1.370 . S
C473 C477 1.408 . S
C474 C472 1.363 . S
C474 C475 1.370 . S
C474 C478 1.524 . S
C475 C467 1.503 . S
C475 C474 1.370 . S
C475 C476 1.403 . S
C476 C475 1.403 . S
C476 C477 1.404 . S
C476 C479 1.539 . S
C477 C473 1.408 . S
C477 C476 1.404 . S
C477 H489 0.930 . S
C478 C474 1.524 . S
C478 H490 0.956 . S
C478 H491 0.961 . S
C478 H492 0.961 . S
C479 C476 1.539 . S
C479 H493 0.958 . S
C479 H494 0.961 . S
C479 H495 0.960 . S
H480 C464 0.931 . S
H481 C469 0.929 . S
H482 C470 0.960 . S
H483 C470 0.962 . S
H484 C470 0.960 . S
H485 C471 0.961 . S
H486 C471 0.961 . S
H487 C471 0.961 . S
H488 C472 0.931 . S
H489 C477 0.930 . S
H490 C478 0.956 . S
H491 C478 0.961 . S
H492 C478 0.961 . S
H493 C479 0.958 . S
H494 C479 0.961 . S
H495 C479 0.960 . S
C496 C497 1.391 . S
C496 C498 1.394 . S
C496 H512 0.931 . S
C497 C496 1.391 . S
C497 C501 1.376 . S
C498 C496 1.394 . S
C498 C499 1.369 . S
C498 C502 1.531 . S
C499 C498 1.369 . S
C499 C500 1.410 . S
C499 C507 1.503 . S
C500 C499 1.410 . S
C500 C501 1.392 . S
C500 C503 1.511 . S
C501 C497 1.376 . S
C501 C500 1.392 . S
C501 H513 0.929 . S
C502 C498 1.531 . S
C502 H514 0.960 . S
C502 H515 0.962 . S
C502 H516 0.960 . S
C503 C500 1.511 . S
C503 H517 0.961 . S
C503 H518 0.961 . S
C503 H519 0.961 . S
C504 C505 1.370 . S
C504 C506 1.363 . S
C504 H520 0.931 . S
C505 C504 1.370 . S
C505 C509 1.408 . S
C506 C504 1.363 . S
C506 C507 1.370 . S
C506 C510 1.524 . S
C507 C499 1.503 . S
C507 C506 1.370 . S
C507 C508 1.403 . S
C508 C507 1.403 . S
C508 C509 1.404 . S
C508 C511 1.539 . S
C509 C505 1.408 . S
C509 C508 1.404 . S
C509 H521 0.930 . S
C510 C506 1.524 . S
C510 H522 0.956 . S
C510 H523 0.961 . S
C510 H524 0.961 . S
C511 C508 1.539 . S
C511 H525 0.958 . S
C511 H526 0.961 . S
C511 H527 0.960 . S
H512 C496 0.931 . S
H513 C501 0.929 . S
H514 C502 0.960 . S
H515 C502 0.962 . S
H516 C502 0.960 . S
H517 C503 0.961 . S
H518 C503 0.961 . S
H519 C503 0.961 . S
H520 C504 0.931 . S
H521 C509 0.930 . S
H522 C510 0.956 . S
H523 C510 0.961 . S
H524 C510 0.961 . S
H525 C511 0.958 . S
H526 C511 0.961 . S
H527 C511 0.960 . S
C528 C529 1.391 . S
C528 C530 1.394 . S
C528 H544 0.931 . S
C529 C528 1.391 . S
C529 C533 1.376 . S
C530 C528 1.394 . S
C530 C531 1.369 . S
C530 C534 1.531 . S
C531 C530 1.369 . S
C531 C532 1.410 . S
C531 C539 1.503 . S
C532 C531 1.410 . S
C532 C533 1.392 . S
C532 C535 1.511 . S
C533 C529 1.376 . S
C533 C532 1.392 . S
C533 H545 0.929 . S
C534 C530 1.531 . S
C534 H546 0.960 . S
C534 H547 0.962 . S
C534 H548 0.960 . S
C535 C532 1.511 . S
C535 H549 0.961 . S
C535 H550 0.961 . S
C535 H551 0.961 . S
C536 C537 1.370 . S
C536 C538 1.363 . S
C536 H552 0.931 . S
C537 C536 1.370 . S
C537 C541 1.408 . S
C538 C536 1.363 . S
C538 C539 1.370 . S
C538 C542 1.524 . S
C539 C531 1.503 . S
C539 C538 1.370 . S
C539 C540 1.403 . S
C540 C539 1.403 . S
C540 C541 1.404 . S
C540 C543 1.539 . S
C541 C537 1.408 . S
C541 C540 1.404 . S
C541 H553 0.930 . S
C542 C538 1.524 . S
C542 H554 0.956 . S
C542 H555 0.961 . S
C542 H556 0.961 . S
C543 C540 1.539 . S
C543 H557 0.958 . S
C543 H558 0.961 . S
C543 H559 0.960 . S
H544 C528 0.931 . S
H545 C533 0.929 . S
H546 C534 0.960 . S
H547 C534 0.962 . S
H548 C534 0.960 . S
H549 C535 0.961 . S
H550 C535 0.961 . S
H551 C535 0.961 . S
H552 C536 0.931 . S
H553 C541 0.930 . S
H554 C542 0.956 . S
H555 C542 0.961 . S
H556 C542 0.961 . S
H557 C543 0.958 . S
H558 C543 0.961 . S
H559 C543 0.960 . S
C560 C561 1.391 . S
C560 C562 1.394 . S
C560 H576 0.931 . S
C561 C560 1.391 . S
C561 C565 1.376 . S
C562 C560 1.394 . S
C562 C563 1.369 . S
C562 C566 1.531 . S
C563 C562 1.369 . S
C563 C564 1.410 . S
C563 C571 1.503 . S
C564 C563 1.410 . S
C564 C565 1.392 . S
C564 C567 1.511 . S
C565 C561 1.376 . S
C565 C564 1.392 . S
C565 H577 0.929 . S
C566 C562 1.531 . S
C566 H578 0.960 . S
C566 H579 0.962 . S
C566 H580 0.960 . S
C567 C564 1.511 . S
C567 H581 0.961 . S
C567 H582 0.961 . S
C567 H583 0.961 . S
C568 C569 1.370 . S
C568 C570 1.363 . S
C568 H584 0.931 . S
C569 C568 1.370 . S
C569 C573 1.408 . S
C570 C568 1.363 . S
C570 C571 1.370 . S
C570 C574 1.524 . S
C571 C563 1.503 . S
C571 C570 1.370 . S
C571 C572 1.403 . S
C572 C571 1.403 . S
C572 C573 1.404 . S
C572 C575 1.539 . S
C573 C569 1.408 . S
C573 C572 1.404 . S
C573 H585 0.930 . S
C574 C570 1.524 . S
C574 H586 0.956 . S
C574 H587 0.961 . S
C574 H588 0.961 . S
C575 C572 1.539 . S
C575 H589 0.958 . S
C575 H590 0.961 . S
C575 H591 0.960 . S
H576 C560 0.931 . S
H577 C565 0.929 . S
H578 C566 0.960 . S
H579 C566 0.962 . S
H580 C566 0.960 . S
H581 C567 0.961 . S
H582 C567 0.961 . S
H583 C567 0.961 . S
H584 C568 0.931 . S
H585 C573 0.930 . S
H586 C574 0.956 . S
H587 C574 0.961 . S
H588 C574 0.961 . S
H589 C575 0.958 . S
H590 C575 0.961 . S
H591 C575 0.960 . S
C592 C593 1.391 . S
C592 C594 1.394 . S
C592 H608 0.931 . S
C593 C592 1.391 . S
C593 C597 1.376 . S
C594 C592 1.394 . S
C594 C595 1.369 . S
C594 C598 1.531 . S
C595 C594 1.369 . S
C595 C596 1.410 . S
C595 C603 1.503 . S
C596 C595 1.410 . S
C596 C597 1.392 . S
C596 C599 1.511 . S
C597 C593 1.376 . S
C597 C596 1.392 . S
C597 H609 0.929 . S
C598 C594 1.531 . S
C598 H610 0.960 . S
C598 H611 0.962 . S
C598 H612 0.960 . S
C599 C596 1.511 . S
C599 H613 0.961 . S
C599 H614 0.961 . S
C599 H615 0.961 . S
C600 C601 1.370 . S
C600 C602 1.363 . S
C600 H616 0.931 . S
C601 C600 1.370 . S
C601 C605 1.408 . S
C602 C600 1.363 . S
C602 C603 1.370 . S
C602 C606 1.524 . S
C603 C595 1.503 . S
C603 C602 1.370 . S
C603 C604 1.403 . S
C604 C603 1.403 . S
C604 C605 1.404 . S
C604 C607 1.539 . S
C605 C601 1.408 . S
C605 C604 1.404 . S
C605 H617 0.930 . S
C606 C602 1.524 . S
C606 H618 0.956 . S
C606 H619 0.961 . S
C606 H620 0.961 . S
C607 C604 1.539 . S
C607 H621 0.958 . S
C607 H622 0.961 . S
C607 H623 0.960 . S
H608 C592 0.931 . S
H609 C597 0.929 . S
H610 C598 0.960 . S
H611 C598 0.962 . S
H612 C598 0.960 . S
H613 C599 0.961 . S
H614 C599 0.961 . S
H615 C599 0.961 . S
H616 C600 0.931 . S
H617 C605 0.930 . S
H618 C606 0.956 . S
H619 C606 0.961 . S
H620 C606 0.961 . S
H621 C607 0.958 . S
H622 C607 0.961 . S
H623 C607 0.960 . S
C624 C625 1.391 . S
C624 C626 1.394 . S
C624 H640 0.931 . S
C625 C624 1.391 . S
C625 C629 1.376 . S
C626 C624 1.394 . S
C626 C627 1.369 . S
C626 C630 1.531 . S
C627 C626 1.369 . S
C627 C628 1.410 . S
C627 C635 1.503 . S
C628 C627 1.410 . S
C628 C629 1.392 . S
C628 C631 1.511 . S
C629 C625 1.376 . S
C629 C628 1.392 . S
C629 H641 0.929 . S
C630 C626 1.531 . S
C630 H642 0.960 . S
C630 H643 0.962 . S
C630 H644 0.960 . S
C631 C628 1.511 . S
C631 H645 0.961 . S
C631 H646 0.961 . S
C631 H647 0.961 . S
C632 C633 1.370 . S
C632 C634 1.363 . S
C632 H648 0.931 . S
C633 C632 1.370 . S
C633 C637 1.408 . S
C634 C632 1.363 . S
C634 C635 1.370 . S
C634 C638 1.524 . S
C635 C627 1.503 . S
C635 C634 1.370 . S
C635 C636 1.403 . S
C636 C635 1.403 . S
C636 C637 1.404 . S
C636 C639 1.539 . S
C637 C633 1.408 . S
C637 C636 1.404 . S
C637 H649 0.930 . S
C638 C634 1.524 . S
C638 H650 0.956 . S
C638 H651 0.961 . S
C638 H652 0.961 . S
C639 C636 1.539 . S
C639 H653 0.958 . S
C639 H654 0.961 . S
C639 H655 0.960 . S
H640 C624 0.931 . S
H641 C629 0.929 . S
H642 C630 0.960 . S
H643 C630 0.962 . S
H644 C630 0.960 . S
H645 C631 0.961 . S
H646 C631 0.961 . S
H647 C631 0.961 . S
H648 C632 0.931 . S
H649 C637 0.930 . S
H650 C638 0.956 . S
H651 C638 0.961 . S
H652 C638 0.961 . S
H653 C639 0.958 . S
H654 C639 0.961 . S
H655 C639 0.960 . S
C656 C657 1.391 . S
C656 C658 1.394 . S
C656 H672 0.931 . S
C657 C656 1.391 . S
C657 C661 1.376 . S
C658 C656 1.394 . S
C658 C659 1.369 . S
C658 C662 1.531 . S
C659 C658 1.369 . S
C659 C660 1.410 . S
C659 C667 1.503 . S
C660 C659 1.410 . S
C660 C661 1.392 . S
C660 C663 1.511 . S
C661 C657 1.376 . S
C661 C660 1.392 . S
C661 H673 0.929 . S
C662 C658 1.531 . S
C662 H674 0.960 . S
C662 H675 0.962 . S
C662 H676 0.960 . S
C663 C660 1.511 . S
C663 H677 0.961 . S
C663 H678 0.961 . S
C663 H679 0.961 . S
C664 C665 1.370 . S
C664 C666 1.363 . S
C664 H680 0.931 . S
C665 C664 1.370 . S
C665 C669 1.408 . S
C666 C664 1.363 . S
C666 C667 1.370 . S
C666 C670 1.524 . S
C667 C659 1.503 . S
C667 C666 1.370 . S
C667 C668 1.403 . S
C668 C667 1.403 . S
C668 C669 1.404 . S
C668 C671 1.539 . S
C669 C665 1.408 . S
C669 C668 1.404 . S
C669 H681 0.930 . S
C670 C666 1.524 . S
C670 H682 0.956 . S
C670 H683 0.961 . S
C670 H684 0.961 . S
C671 C668 1.539 . S
C671 H685 0.958 . S
C671 H686 0.961 . S
C671 H687 0.960 . S
H672 C656 0.931 . S
H673 C661 0.929 . S
H674 C662 0.960 . S
H675 C662 0.962 . S
H676 C662 0.960 . S
H677 C663 0.961 . S
H678 C663 0.961 . S
H679 C663 0.961 . S
H680 C664 0.931 . S
H681 C669 0.930 . S
H682 C670 0.956 . S
H683 C670 0.961 . S
H684 C670 0.961 . S
H685 C671 0.958 . S
H686 C671 0.961 . S
H687 C671 0.960 . S
C688 C689 1.391 . S
C688 C690 1.394 . S
C688 H704 0.931 . S
C689 C688 1.391 . S
C689 C693 1.376 1_554 S
C690 C688 1.394 . S
C690 C691 1.369 1_554 S
C690 C694 1.531 . S
C691 C690 1.369 1_556 S
C691 C692 1.410 . S
C691 C699 1.503 . S
C692 C691 1.410 . S
C692 C693 1.392 . S
C692 C695 1.511 . S
C693 C689 1.376 1_556 S
C693 C692 1.392 . S
C693 H705 0.929 . S
C694 C690 1.531 . S
C694 H706 0.960 . S
C694 H707 0.962 . S
C694 H708 0.960 . S
C695 C692 1.511 . S
C695 H709 0.961 . S
C695 H710 0.961 . S
C695 H711 0.961 . S
C696 C697 1.370 . S
C696 C698 1.363 . S
C696 H712 0.931 . S
C697 C696 1.370 . S
C697 C701 1.408 1_554 S
C698 C696 1.363 . S
C698 C699 1.370 1_554 S
C698 C702 1.524 . S
C699 C691 1.503 . S
C699 C698 1.370 1_556 S
C699 C700 1.403 . S
C700 C699 1.403 . S
C700 C701 1.404 . S
C700 C703 1.539 . S
C701 C697 1.408 1_556 S
C701 C700 1.404 . S
C701 H713 0.930 . S
C702 C698 1.524 . S
C702 H714 0.956 . S
C702 H715 0.961 . S
C702 H716 0.961 . S
C703 C700 1.539 . S
C703 H717 0.958 . S
C703 H718 0.961 . S
C703 H719 0.960 . S
H704 C688 0.931 . S
H705 C693 0.929 . S
H706 C694 0.960 . S
H707 C694 0.962 . S
H708 C694 0.960 . S
H709 C695 0.961 . S
H710 C695 0.961 . S
H711 C695 0.961 . S
H712 C696 0.931 . S
H713 C701 0.930 . S
H714 C702 0.956 . S
H715 C702 0.961 . S
H716 C702 0.961 . S
H717 C703 0.958 . S
H718 C703 0.961 . S
H719 C703 0.960 . S
C720 C721 1.391 . S
C720 C722 1.394 . S
C720 H736 0.931 . S
C721 C720 1.391 . S
C721 C725 1.376 . S
C722 C720 1.394 . S
C722 C723 1.369 . S
C722 C726 1.531 . S
C723 C722 1.369 . S
C723 C724 1.410 . S
C723 C731 1.503 . S
C724 C723 1.410 . S
C724 C725 1.392 . S
C724 C727 1.511 . S
C725 C721 1.376 . S
C725 C724 1.392 . S
C725 H737 0.929 . S
C726 C722 1.531 . S
C726 H738 0.960 . S
C726 H739 0.962 . S
C726 H740 0.960 . S
C727 C724 1.511 . S
C727 H741 0.961 . S
C727 H742 0.961 . S
C727 H743 0.961 . S
C728 C729 1.370 . S
C728 C730 1.363 . S
C728 H744 0.931 . S
C729 C728 1.370 . S
C729 C733 1.408 . S
C730 C728 1.363 . S
C730 C731 1.370 . S
C730 C734 1.524 . S
C731 C723 1.503 . S
C731 C730 1.370 . S
C731 C732 1.403 . S
C732 C731 1.403 . S
C732 C733 1.404 . S
C732 C735 1.539 . S
C733 C729 1.408 . S
C733 C732 1.404 . S
C733 H745 0.930 . S
C734 C730 1.524 . S
C734 H746 0.956 . S
C734 H747 0.961 . S
C734 H748 0.961 . S
C735 C732 1.539 . S
C735 H749 0.958 . S
C735 H750 0.961 . S
C735 H751 0.960 . S
H736 C720 0.931 . S
H737 C725 0.929 . S
H738 C726 0.960 . S
H739 C726 0.962 . S
H740 C726 0.960 . S
H741 C727 0.961 . S
H742 C727 0.961 . S
H743 C727 0.961 . S
H744 C728 0.931 . S
H745 C733 0.930 . S
H746 C734 0.956 . S
H747 C734 0.961 . S
H748 C734 0.961 . S
H749 C735 0.958 . S
H750 C735 0.961 . S
H751 C735 0.960 . S
C752 C753 1.391 . S
C752 C754 1.394 . S
C752 H768 0.931 . S
C753 C752 1.391 . S
C753 C757 1.376 . S
C754 C752 1.394 . S
C754 C755 1.368 1_554 S
C754 C758 1.532 1_554 S
C755 C754 1.368 1_556 S
C755 C756 1.410 . S
C755 C763 1.503 1_556 S
C756 C755 1.410 . S
C756 C757 1.392 1_556 S
C756 C759 1.511 . S
C757 C753 1.376 . S
C757 C756 1.392 1_554 S
C757 H769 0.929 . S
C758 C754 1.532 1_556 S
C758 H770 0.970 . S
C758 H771 0.944 1_556 S
C758 H772 0.968 . S
C759 C756 1.511 . S
C759 H773 0.961 1_556 S
C759 H774 0.961 1_556 S
C759 H775 0.961 . S
C760 C761 1.370 . S
C760 C762 1.363 . S
C760 H776 0.931 . S
C761 C760 1.370 . S
C761 C765 1.408 1_554 S
C762 C760 1.363 . S
C762 C763 1.370 . S
C762 C766 1.524 . S
C763 C755 1.503 1_554 S
C763 C762 1.370 . S
C763 C764 1.403 1_554 S
C764 C763 1.403 1_556 S
C764 C765 1.404 . S
C764 C767 1.539 . S
C765 C761 1.408 1_556 S
C765 C764 1.404 . S
C765 H777 0.930 . S
C766 C762 1.524 . S
C766 H778 0.956 . S
C766 H779 0.961 . S
C766 H780 0.961 . S
C767 C764 1.539 . S
C767 H781 0.958 . S
C767 H782 0.961 . S
C767 H783 0.960 . S
H768 C752 0.931 . S
H769 C757 0.929 . S
H770 C758 0.970 . S
H771 C758 0.944 1_554 S
H772 C758 0.968 . S
H773 C759 0.961 1_554 S
H774 C759 0.961 1_554 S
H775 C759 0.961 . S
H776 C760 0.931 . S
H777 C765 0.930 . S
H778 C766 0.956 . S
H779 C766 0.961 . S
H780 C766 0.961 . S
H781 C767 0.958 . S
H782 C767 0.961 . S
H783 C767 0.960 . S
C784 C785 1.391 . S
C784 C786 1.394 . S
C784 H800 0.931 . S
C785 C784 1.391 . S
C785 C789 1.376 . S
C786 C784 1.394 . S
C786 C787 1.369 . S
C786 C790 1.531 . S
C787 C786 1.369 . S
C787 C788 1.410 . S
C787 C795 1.503 . S
C788 C787 1.410 . S
C788 C789 1.392 . S
C788 C791 1.511 . S
C789 C785 1.376 . S
C789 C788 1.392 . S
C789 H801 0.929 . S
C790 C786 1.531 . S
C790 H802 0.960 . S
C790 H803 0.962 . S
C790 H804 0.960 . S
C791 C788 1.511 . S
C791 H805 0.961 . S
C791 H806 0.961 . S
C791 H807 0.961 . S
C792 C793 1.370 . S
C792 C794 1.363 . S
C792 H808 0.931 . S
C793 C792 1.370 . S
C793 C797 1.408 . S
C794 C792 1.363 . S
C794 C795 1.370 . S
C794 C798 1.524 . S
C795 C787 1.503 . S
C795 C794 1.370 . S
C795 C796 1.403 . S
C796 C795 1.403 . S
C796 C797 1.404 . S
C796 C799 1.539 . S
C797 C793 1.408 . S
C797 C796 1.404 . S
C797 H809 0.930 . S
C798 C794 1.524 . S
C798 H810 0.956 . S
C798 H811 0.961 . S
C798 H812 0.961 . S
C799 C796 1.539 . S
C799 H813 0.958 . S
C799 H814 0.961 . S
C799 H815 0.960 . S
H800 C784 0.931 . S
H801 C789 0.929 . S
H802 C790 0.960 . S
H803 C790 0.962 . S
H804 C790 0.960 . S
H805 C791 0.961 . S
H806 C791 0.961 . S
H807 C791 0.961 . S
H808 C792 0.931 . S
H809 C797 0.930 . S
H810 C798 0.956 . S
H811 C798 0.961 . S
H812 C798 0.961 . S
H813 C799 0.958 . S
H814 C799 0.961 . S
H815 C799 0.960 . S
C816 C817 1.391 . S
C816 C818 1.394 . S
C816 H832 0.931 . S
C817 C816 1.391 . S
C817 C821 1.376 . S
C818 C816 1.394 . S
C818 C819 1.369 . S
C818 C822 1.531 . S
C819 C818 1.369 . S
C819 C820 1.410 . S
C819 C827 1.503 . S
C820 C819 1.410 . S
C820 C821 1.392 . S
C820 C823 1.511 . S
C821 C817 1.376 . S
C821 C820 1.392 . S
C821 H833 0.929 . S
C822 C818 1.531 . S
C822 H834 0.960 . S
C822 H835 0.962 . S
C822 H836 0.960 . S
C823 C820 1.511 . S
C823 H837 0.961 . S
C823 H838 0.961 . S
C823 H839 0.961 . S
C824 C825 1.370 . S
C824 C826 1.363 . S
C824 H840 0.931 . S
C825 C824 1.370 . S
C825 C829 1.408 . S
C826 C824 1.363 . S
C826 C827 1.370 . S
C826 C830 1.524 . S
C827 C819 1.503 . S
C827 C826 1.370 . S
C827 C828 1.403 . S
C828 C827 1.403 . S
C828 C829 1.404 . S
C828 C831 1.539 . S
C829 C825 1.408 . S
C829 C828 1.404 . S
C829 H841 0.930 . S
C830 C826 1.524 . S
C830 H842 0.956 . S
C830 H843 0.961 . S
C830 H844 0.961 . S
C831 C828 1.539 . S
C831 H845 0.958 . S
C831 H846 0.961 . S
C831 H847 0.960 . S
H832 C816 0.931 . S
H833 C821 0.929 . S
H834 C822 0.960 . S
H835 C822 0.962 . S
H836 C822 0.960 . S
H837 C823 0.961 . S
H838 C823 0.961 . S
H839 C823 0.961 . S
H840 C824 0.931 . S
H841 C829 0.930 . S
H842 C830 0.956 . S
H843 C830 0.961 . S
H844 C830 0.961 . S
H845 C831 0.958 . S
H846 C831 0.961 . S
H847 C831 0.960 . S
C848 C849 1.391 . S
C848 C850 1.394 . S
C848 H864 0.931 . S
C849 C848 1.391 . S
C849 C853 1.376 1_554 S
C850 C848 1.394 . S
C850 C851 1.369 . S
C850 C854 1.531 . S
C851 C850 1.369 . S
C851 C852 1.410 1_554 S
C851 C859 1.503 . S
C852 C851 1.410 1_556 S
C852 C853 1.392 . S
C852 C855 1.511 . S
C853 C849 1.376 1_556 S
C853 C852 1.392 . S
C853 H865 0.929 . S
C854 C850 1.531 . S
C854 H866 0.960 . S
C854 H867 0.962 . S
C854 H868 0.960 . S
C855 C852 1.511 . S
C855 H869 0.961 . S
C855 H870 0.961 . S
C855 H871 0.961 . S
C856 C857 1.370 1_556 S
C856 C858 1.363 . S
C856 H872 0.931 . S
C857 C856 1.370 1_554 S
C857 C861 1.408 . S
C858 C856 1.363 . S
C858 C859 1.370 1_556 S
C858 C862 1.524 . S
C859 C851 1.503 . S
C859 C858 1.370 1_554 S
C859 C860 1.403 . S
C860 C859 1.403 . S
C860 C861 1.404 . S
C860 C863 1.539 . S
C861 C857 1.408 . S
C861 C860 1.404 . S
C861 H873 0.930 . S
C862 C858 1.524 . S
C862 H874 0.956 . S
C862 H875 0.961 . S
C862 H876 0.961 . S
C863 C860 1.539 . S
C863 H877 0.958 . S
C863 H878 0.961 . S
C863 H879 0.960 . S
H864 C848 0.931 . S
H865 C853 0.929 . S
H866 C854 0.960 . S
H867 C854 0.962 . S
H868 C854 0.960 . S
H869 C855 0.961 . S
H870 C855 0.961 . S
H871 C855 0.961 . S
H872 C856 0.931 . S
H873 C861 0.930 . S
H874 C862 0.956 . S
H875 C862 0.961 . S
H876 C862 0.961 . S
H877 C863 0.958 . S
H878 C863 0.961 . S
H879 C863 0.960 . S
C880 C881 1.391 . S
C880 C882 1.394 . S
C880 H896 0.931 . S
C881 C880 1.391 . S
C881 C885 1.376 . S
C882 C880 1.394 . S
C882 C883 1.369 . S
C882 C886 1.531 . S
C883 C882 1.369 . S
C883 C884 1.410 . S
C883 C891 1.503 . S
C884 C883 1.410 . S
C884 C885 1.392 . S
C884 C887 1.511 . S
C885 C881 1.376 . S
C885 C884 1.392 . S
C885 H897 0.929 . S
C886 C882 1.531 . S
C886 H898 0.960 . S
C886 H899 0.962 . S
C886 H900 0.960 . S
C887 C884 1.511 . S
C887 H901 0.961 . S
C887 H902 0.961 . S
C887 H903 0.961 . S
C888 C889 1.370 . S
C888 C890 1.363 . S
C888 H904 0.931 . S
C889 C888 1.370 . S
C889 C893 1.408 . S
C890 C888 1.363 . S
C890 C891 1.370 . S
C890 C894 1.524 . S
C891 C883 1.503 . S
C891 C890 1.370 . S
C891 C892 1.403 . S
C892 C891 1.403 . S
C892 C893 1.404 . S
C892 C895 1.539 . S
C893 C889 1.408 . S
C893 C892 1.404 . S
C893 H905 0.930 . S
C894 C890 1.524 . S
C894 H906 0.956 . S
C894 H907 0.961 . S
C894 H908 0.961 . S
C895 C892 1.539 . S
C895 H909 0.958 . S
C895 H910 0.961 . S
C895 H911 0.960 . S
H896 C880 0.931 . S
H897 C885 0.929 . S
H898 C886 0.960 . S
H899 C886 0.962 . S
H900 C886 0.960 . S
H901 C887 0.961 . S
H902 C887 0.961 . S
H903 C887 0.961 . S
H904 C888 0.931 . S
H905 C893 0.930 . S
H906 C894 0.956 . S
H907 C894 0.961 . S
H908 C894 0.961 . S
H909 C895 0.958 . S
H910 C895 0.961 . S
H911 C895 0.960 . S
C912 C913 1.391 1_556 S
C912 C914 1.394 . S
C912 H928 0.931 . S
C913 C912 1.391 1_554 S
C913 C917 1.376 . S
C914 C912 1.394 . S
C914 C915 1.369 1_556 S
C914 C918 1.531 . S
C915 C914 1.369 1_554 S
C915 C916 1.410 . S
C915 C923 1.503 . S
C916 C915 1.410 . S
C916 C917 1.392 . S
C916 C919 1.511 . S
C917 C913 1.376 . S
C917 C916 1.392 . S
C917 H929 0.929 . S
C918 C914 1.531 . S
C918 H930 0.960 . S
C918 H931 0.962 . S
C918 H932 0.960 . S
C919 C916 1.511 . S
C919 H933 0.961 . S
C919 H934 0.961 . S
C919 H935 0.961 . S
C920 C921 1.370 1_556 S
C920 C922 1.363 . S
C920 H936 0.931 . S
C921 C920 1.370 1_554 S
C921 C925 1.408 . S
C922 C920 1.363 . S
C922 C923 1.370 1_556 S
C922 C926 1.524 . S
C923 C915 1.503 . S
C923 C922 1.370 1_554 S
C923 C924 1.403 . S
C924 C923 1.403 . S
C924 C925 1.404 . S
C924 C927 1.539 . S
C925 C921 1.408 . S
C925 C924 1.404 . S
C925 H937 0.930 . S
C926 C922 1.524 . S
C926 H938 0.956 . S
C926 H939 0.961 . S
C926 H940 0.961 . S
C927 C924 1.539 . S
C927 H941 0.958 . S
C927 H942 0.961 . S
C927 H943 0.960 . S
H928 C912 0.931 . S
H929 C917 0.929 . S
H930 C918 0.960 . S
H931 C918 0.962 . S
H932 C918 0.960 . S
H933 C919 0.961 . S
H934 C919 0.961 . S
H935 C919 0.961 . S
H936 C920 0.931 . S
H937 C925 0.930 . S
H938 C926 0.956 . S
H939 C926 0.961 . S
H940 C926 0.961 . S
H941 C927 0.958 . S
H942 C927 0.961 . S
H943 C927 0.960 . S
C177 C21 1.492 . S
C185 C125 1.495 . S
C209 C40 1.491 . S
C217 C92 1.487 . S
C249 C104 1.439 . S
C241 C54 1.462 . S
C273 C73 1.524 . S
C281 C115 1.504 . S
C313 C148 1.445 . S
C305 C74 1.467 . S
C345 C159 1.475 . S
C337 C10 1.508 . S
C377 C169 1.502 . S
C369 C37 1.484 . S
C409 C136 1.505 . S
C401 C65 1.491 . S
C433 C52 1.428 . S
C441 C103 1.434 . S
C465 C87 1.498 . S
C473 C114 1.503 . S
C497 C15 1.517 . S
C505 C126 1.496 . S
C537 C93 1.482 . S
C529 C32 1.502 . S
C561 C29 1.491 . S
C569 C170 1.483 . S
C601 C137 1.508 . S
C593 C59 1.517 . S
C633 C147 1.440 . S
C625 C84 1.442 . S
C657 C8 1.475 . S
C665 C158 1.462 . S
C697 C98 1.534 . S
C689 C7 1.527 . S
C729 C109 1.485 . S
C721 C30 1.491 . S
C753 C62 1.538 . S
C761 C120 1.531 . S
C785 C81 1.499 . S
C793 C131 1.511 . S
C825 C142 1.532 . S
C817 C76 1.537 . S
C849 C18 1.491 . S
C857 C153 1.481 . S
C881 C43 1.538 . S
C889 C164 1.537 . S
C913 C51 1.494 . S
C921 C175 1.517 . S
