# Generated by pormake.
# Topology rtl, (3,6)-cn, num edge types: 1
# Building blocks:
#     Node 0, Type 0, BuildingBlock: ESEHIV_clean_linker_0, # of connection points: 3
#     Node 1, Type 0, BuildingBlock: ESEHIV_clean_linker_0, # of connection points: 3
#     Node 2, Type 0, BuildingBlock: ESEHIV_clean_linker_0, # of connection points: 3
#     Node 3, Type 0, BuildingBlock: ESEHIV_clean_linker_0, # of connection points: 3
#     Node 4, Type 1, BuildingBlock: LEVNOQ01_clean_sbu_1, # of connection points: 6
#     Node 5, Type 1, BuildingBlock: LEVNOQ01_clean_sbu_1, # of connection points: 6
#     Edge 6, Type (0, 1), BuildingBlock: UVAHIK_clean_linker_0, # of connection points: 2
#     Edge 7, Type (0, 1), BuildingBlock: UVAHIK_clean_linker_0, # of connection points: 2
#     Edge 8, Type (0, 1), BuildingBlock: UVAHIK_clean_linker_0, # of connection points: 2
#     Edge 9, Type (0, 1), BuildingBlock: UVAHIK_clean_linker_0, # of connection points: 2
#     Edge 10, Type (0, 1), BuildingBlock: UVAHIK_clean_linker_0, # of connection points: 2
#     Edge 11, Type (0, 1), BuildingBlock: UVAHIK_clean_linker_0, # of connection points: 2
#     Edge 12, Type (0, 1), BuildingBlock: UVAHIK_clean_linker_0, # of connection points: 2
#     Edge 13, Type (0, 1), BuildingBlock: UVAHIK_clean_linker_0, # of connection points: 2
#     Edge 14, Type (0, 1), BuildingBlock: UVAHIK_clean_linker_0, # of connection points: 2
#     Edge 15, Type (0, 1), BuildingBlock: UVAHIK_clean_linker_0, # of connection points: 2
#     Edge 16, Type (0, 1), BuildingBlock: UVAHIK_clean_linker_0, # of connection points: 2
#     Edge 17, Type (0, 1), BuildingBlock: UVAHIK_clean_linker_0, # of connection points: 2
# Relax obj value: 0.026
# Max RMSD: 0.060
# Mean RMSD: 0.045
data_MOF--net-rtl--node1-LEVNOQ01_clean_sbu_1--node2-ESEHIV_clean_linker_0--edge1-UVAHIK_clean_linker_0
_symmetry_space_group_name_H-M    P1
_symmetry_Int_Tables_number       1
_symmetry_cell_setting            triclinic
loop_
_symmetry_equiv_pos_as_xyz
'x, y, z'
_cell_length_a     38.35818
_cell_length_b     42.820621
_cell_length_c     29.994269
_cell_angle_alpha  89.925541
_cell_angle_beta   97.822828
_cell_angle_gamma 89.891135
loop_
_atom_site_label
_atom_site_type_symbol
_atom_site_fract_x
_atom_site_fract_y
_atom_site_fract_z
_atom_type_partial_charge
H0 H 0.21423 0.93288 0.08939 0.0
H1 H 0.28223 0.86967 0.17238 0.0
H2 H 0.27407 0.86336 0.0287 0.0
C3 C 0.23355 0.91425 0.09258 0.0
C4 C 0.24279 0.89998 0.05352 0.0
C5 C 0.2477 0.90375 0.13575 0.0
C6 C 0.27092 0.87816 0.13951 0.0
C7 C 0.28015 0.8635 0.10107 0.0
C8 C 0.26653 0.8747 0.05823 0.0
H9 H 0.70844 0.59839 0.57635 0.0
H10 H 0.75722 0.6745 0.51466 0.0
H11 H 0.77459 0.66338 0.65821 0.0
C12 C 0.72619 0.61816 0.57944 0.0
C13 C 0.74056 0.62887 0.62234 0.0
C14 C 0.73237 0.63428 0.54038 0.0
C15 C 0.75302 0.66146 0.54447 0.0
C16 C 0.76855 0.67172 0.58697 0.0
C17 C 0.76289 0.655 0.62549 0.0
H18 H 0.7891 0.0928 0.99639 0.0
H19 H 0.74672 0.17265 0.05682 0.0
H20 H 0.73919 0.16666 0.9129 0.0
C21 C 0.77559 0.11507 0.99279 0.0
C22 C 0.76495 0.12745 0.94953 0.0
C23 C 0.76966 0.13141 0.03167 0.0
C24 C 0.75205 0.1602 0.02703 0.0
C25 C 0.7405 0.17277 0.98429 0.0
C26 C 0.74702 0.15632 0.94572 0.0
H27 H 0.2817 0.42509 0.49177 0.0
H28 H 0.23154 0.34759 0.54754 0.0
H29 H 0.22007 0.36017 0.40391 0.0
C30 C 0.2653 0.40445 0.48688 0.0
C31 C 0.25196 0.39471 0.4431 0.0
C32 C 0.25817 0.38737 0.5245 0.0
C33 C 0.23694 0.36078 0.51837 0.0
C34 C 0.22265 0.35109 0.47502 0.0
C35 C 0.23048 0.36797 0.43744 0.0
O36 O 0.93544 0.05601 0.57951 0.0
Mg37 Mg -0.00956 0.05336 0.58896 0.0
O38 O 0.94897 0.00671 0.58129 0.0
Mg39 Mg -0.00153 0.00405 0.54034 0.0
O40 O 0.01556 0.05774 0.5335 0.0
O41 O 0.00757 0.09672 0.5814 0.0
O42 O 0.04741 -0.00236 0.5007 0.0
O43 O 0.96016 0.01273 0.47396 0.0
Mg44 Mg -0.00644 0.9443 0.47959 0.0
O45 O 0.98409 0.95181 0.54378 0.0
O46 O 0.04664 0.94971 0.47299 0.0
O47 O 0.95574 0.96882 0.43444 0.0
O48 O 0.97946 0.90491 0.51107 0.0
C49 C 0.03794 0.00888 0.64405 0.0
C50 C 0.92699 0.02833 0.58651 0.0
C51 C 0.01903 0.08701 0.54543 0.0
C52 C 0.0619 0.97566 0.48093 0.0
C53 C 0.94714 -0.00286 0.43936 0.0
C54 C 0.97615 0.92241 0.54523 0.0
O55 O 0.01923 0.03293 0.64772 0.0
O56 O 0.03639 0.99509 0.60624 0.0
O57 O 0.5146 0.4887 0.14294 0.0
Mg58 Mg 0.49179 0.46168 0.08664 0.0
O59 O 0.52746 0.52649 0.09816 0.0
Mg60 Mg 0.48934 0.51204 0.03478 0.0
O61 O 0.51658 0.46208 0.03051 0.0
O62 O 0.51915 0.42225 0.08011 0.0
O63 O 0.45002 0.49513 0.97161 0.0
O64 O 0.53425 0.5248 0.9914 0.0
Mg65 Mg 0.46643 0.56377 0.97149 0.0
O66 O 0.46717 0.56316 0.03963 0.0
O67 O 0.42729 0.53682 0.93533 0.0
O68 O 0.5161 0.56629 0.95069 0.0
O69 O 0.44925 0.60403 0.99492 0.0
C70 C 0.42477 0.47803 0.08448 0.0
C71 C 0.52994 0.51431 0.13724 0.0
C72 C 0.52723 0.43415 0.0434 0.0
C73 C 0.42821 0.50756 0.94062 0.0
C74 C 0.53952 0.54616 0.96334 0.0
C75 C 0.45484 0.59152 0.03441 0.0
O76 O 0.43803 0.45181 0.07809 0.0
O77 O 0.44238 0.50247 0.07795 0.0
C78 C 0.20619 0.29858 0.44101 0.0
C79 C 0.19974 0.32316 0.46985 0.0
C80 C 0.18696 0.27075 0.44069 0.0
C81 C 0.1372 0.22618 0.51587 0.0
H82 H 0.09932 0.17907 0.40985 0.0
C83 C 0.02691 0.1415 0.5215 0.0
C84 C 0.03666 0.10996 0.51941 0.0
C85 C 0.04744 0.1648 0.50606 0.0
C86 C 0.1103 0.19184 0.43961 0.0
H87 H 0.16659 0.33894 0.51832 0.0
H88 H 0.13274 0.2909 0.51728 0.0
H89 H 0.13401 0.22662 0.40166 0.0
H90 H 0.07391 0.07779 0.49608 0.0
H91 H 0.11046 0.11924 0.46889 0.0
H92 H 0.11256 0.19234 0.55364 0.0
C93 C 0.15329 0.29255 0.49594 0.0
C94 C 0.13002 0.21897 0.43502 0.0
C95 C 0.17254 0.32012 0.49644 0.0
C96 C 0.06584 0.10196 0.49798 0.0
C97 C 0.08667 0.12555 0.4825 0.0
C98 C 0.11752 0.19939 0.52035 0.0
C99 C 0.16095 0.26718 0.46914 0.0
C100 C 0.14283 0.23686 0.47313 0.0
C101 C 0.07819 0.15713 0.48814 0.0
C102 C 0.10326 0.1824 0.48231 0.0
H103 H 0.2271 0.30038 0.42024 0.0
H104 H 0.19343 0.25163 0.41967 0.0
H105 H 0.14749 0.23889 0.546 0.0
H106 H 0.00428 0.14833 0.53729 0.0
H107 H 0.04037 0.18901 0.51046 0.0
C108 C 0.29143 0.80816 0.12467 0.0
C109 C 0.30305 0.83562 0.10593 0.0
C110 C 0.31257 0.7814 0.12845 0.0
C111 C 0.38957 0.7469 0.08267 0.0
H112 H 0.38218 0.68393 0.17406 0.0
C113 C 0.47039 0.63701 0.08242 0.0
C114 C 0.44834 0.61117 0.07234 0.0
C115 C 0.45768 0.66384 0.10116 0.0
C116 C 0.38466 0.70149 0.14866 0.0
H117 H 0.34599 0.85742 0.07797 0.0
H118 H 0.3839 0.81134 0.08655 0.0
H119 H 0.35049 0.73344 0.17646 0.0
H120 H 0.39717 0.5916 0.07772 0.0
H121 H 0.375 0.63841 0.11159 0.0
H122 H 0.42393 0.71508 0.05523 0.0
C123 C 0.35797 0.80976 0.09678 0.0
C124 C 0.36626 0.72975 0.14962 0.0
C125 C 0.33645 0.83628 0.09206 0.0
C126 C 0.41485 0.61106 0.08617 0.0
C127 C 0.40212 0.63792 0.10522 0.0
C128 C 0.40844 0.71907 0.08232 0.0
C129 C 0.34615 0.78173 0.11442 0.0
C130 C 0.36795 0.75266 0.11609 0.0
C131 C 0.4227 0.66517 0.11004 0.0
C132 C 0.40582 0.69591 0.11487 0.0
H133 H 0.26561 0.80723 0.13545 0.0
H134 H 0.30207 0.7603 0.14134 0.0
H135 H 0.39105 0.76334 0.05556 0.0
H136 H 0.49608 0.63774 0.07124 0.0
H137 H 0.47412 0.68447 0.10488 0.0
C138 C 0.77198 0.72947 0.57779 0.0
C139 C 0.78849 0.70126 0.592 0.0
C140 C 0.78981 0.75778 0.58564 0.0
C141 C 0.87088 0.79302 0.65057 0.0
H142 H 0.85471 0.85662 0.55802 0.0
C143 C 0.97115 0.87969 0.59898 0.0
C144 C 0.95917 0.9088 0.58164 0.0
C145 C 0.9483 0.8595 0.6172 0.0
C146 C 0.85895 0.83947 0.58481 0.0
H147 H 0.83639 0.68012 0.62508 0.0
H148 H 0.86852 0.72923 0.63639 0.0
H149 H 0.81889 0.80992 0.55184 0.0
H150 H 0.91551 0.94129 0.574 0.0
H151 H 0.87511 0.90568 0.60527 0.0
H152 H 0.91311 0.82196 0.68129 0.0
C153 C 0.84138 0.72992 0.62077 0.0
C154 C 0.83839 0.81252 0.58127 0.0
C155 C 0.82323 0.70169 0.61377 0.0
C156 C 0.92539 0.91905 0.58771 0.0
C157 C 0.90222 0.89858 0.60514 0.0
C158 C 0.89193 0.81981 0.65363 0.0
C159 C 0.82486 0.75845 0.60707 0.0
C160 C 0.84454 0.78853 0.61353 0.0
C161 C 0.91293 0.86794 0.6174 0.0
C162 C 0.88658 0.843 0.62028 0.0
H163 H 0.74493 0.72966 0.56167 0.0
H164 H 0.77585 0.77915 0.57535 0.0
H165 H 0.87588 0.77553 0.67676 0.0
H166 H -0.00297 0.87125 0.59414 0.0
H167 H 0.95727 0.83603 0.62622 0.0
C168 C 0.73534 0.22861 0.00715 0.0
C169 C 0.72192 0.20331 0.98047 0.0
C170 C 0.71667 0.25667 0.00648 0.0
C171 C 0.64165 0.3015 0.94428 0.0
H172 H 0.64181 0.34107 0.06049 0.0
C173 C 0.53884 0.39231 0.98999 0.0
C174 C 0.55155 0.41644 0.01931 0.0
C175 C 0.5619 0.36953 0.97747 0.0
C176 C 0.6419 0.33063 0.02763 0.0
H177 H 0.67891 0.18776 0.93126 0.0
H178 H 0.64568 0.23658 0.93083 0.0
H179 H 0.67713 0.2946 0.05451 0.0
H180 H 0.59791 0.43669 0.05737 0.0
H181 H 0.63833 0.39708 0.03541 0.0
H182 H 0.605 0.33721 0.91809 0.0
C183 C 0.67099 0.23501 0.95168 0.0
C184 C 0.66225 0.30393 0.02413 0.0
C185 C 0.68993 0.20698 0.95199 0.0
C186 C 0.58774 0.41856 0.03398 0.0
C187 C 0.61072 0.39572 0.02184 0.0
C188 C 0.62092 0.32815 0.94791 0.0
C189 C 0.68384 0.26005 0.97955 0.0
C190 C 0.66251 0.28898 0.98244 0.0
C191 C 0.59785 0.37031 0.99487 0.0
C192 C 0.62093 0.34302 0.98966 0.0
H193 H 0.76024 0.22661 0.02885 0.0
H194 H 0.72791 0.27565 0.02751 0.0
H195 H 0.64143 0.29082 0.91154 0.0
H196 H 0.51085 0.38993 0.97919 0.0
H197 H 0.55119 0.35012 0.95692 0.0
C198 C 0.23194 0.95137 0.17837 0.0
C199 C 0.23739 0.91887 0.17678 0.0
C200 C 0.22123 0.96529 0.21648 0.0
C201 C 0.21754 0.95258 0.33744 0.0
H202 H 0.13248 0.00266 0.31887 0.0
C203 C 0.11772 0.95475 0.46037 0.0
C204 C 0.09518 0.9804 0.46241 0.0
C205 C 0.14388 0.9554 0.43244 0.0
C206 C 0.15683 0.98952 0.32489 0.0
H207 H 0.23558 0.87565 0.21438 0.0
H208 H 0.21784 0.90002 0.28091 0.0
H209 H 0.16124 0.9876 0.25449 0.0
H210 H 0.08404 0.02786 0.43982 0.0
H211 H 0.13022 0.02917 0.39064 0.0
H212 H 0.21259 0.95358 0.40761 0.0
C213 C 0.22219 0.91474 0.2528 0.0
C214 C 0.17319 0.98075 0.28789 0.0
C215 C 0.23242 0.90078 0.21459 0.0
C216 C 0.10125 0.00784 0.439 0.0
C217 C 0.12739 0.00842 0.41051 0.0
C218 C 0.20139 0.96158 0.37445 0.0
C219 C 0.21625 0.94709 0.25407 0.0
C220 C 0.20287 0.96114 0.29365 0.0
C221 C 0.14802 0.98169 0.40556 0.0
C222 C 0.16996 0.979 0.36844 0.0
H223 H 0.23604 0.96612 0.15021 0.0
H224 H 0.21695 0.9903 0.21664 0.0
H225 H 0.24079 0.93794 0.34291 0.0
H226 H 0.11356 0.9333 0.47813 0.0
H227 H 0.15891 0.93427 0.42933 0.0
C228 C 0.72217 0.58334 0.6677 0.0
C229 C 0.72878 0.6155 0.66365 0.0
C230 C 0.70724 0.57186 0.70463 0.0
C231 C 0.65006 0.59975 0.78431 0.0
H232 H 0.67698 0.52508 0.85408 0.0
C233 C 0.58833 0.5771 0.94071 0.0
C234 C 0.57241 0.54786 0.94345 0.0
C235 C 0.61321 0.58173 0.91168 0.0
C236 C 0.66916 0.54587 0.83465 0.0
H237 H 0.72555 0.66055 0.69615 0.0
H238 H 0.7009 0.64053 0.76045 0.0
H239 H 0.70933 0.53992 0.79179 0.0
H240 H 0.57161 0.49987 0.9208 0.0
H241 H 0.61509 0.50812 0.86876 0.0
H242 H 0.60999 0.6059 0.8262 0.0
C243 C 0.70678 0.62419 0.73493 0.0
C244 C 0.68756 0.55431 0.79906 0.0
C245 C 0.72144 0.63561 0.69822 0.0
C246 C 0.58388 0.52256 0.91944 0.0
C247 C 0.60862 0.52732 0.88966 0.0
C248 C 0.63188 0.59142 0.81955 0.0
C249 C 0.69856 0.59239 0.73797 0.0
C250 C 0.67853 0.58171 0.77414 0.0
C251 C 0.62215 0.55738 0.88397 0.0
C252 C 0.64158 0.56478 0.84574 0.0
H253 H 0.72785 0.56715 0.64192 0.0
H254 H 0.70118 0.54722 0.70612 0.0
H255 H 0.64174 0.62045 0.76489 0.0
H256 H 0.57992 0.5969 0.95908 0.0
H257 H 0.62386 0.60496 0.90884 0.0
C258 C 0.77995 0.08676 0.08635 0.0
C259 C 0.78286 0.11875 0.07707 0.0
C260 C 0.79435 0.07454 0.12803 0.0
C261 C 0.82801 0.09537 0.24582 0.0
H262 H 0.88114 0.01856 0.24186 0.0
C263 C 0.90299 0.99388 0.37023 0.0
C264 C 0.92296 0.01231 0.40298 0.0
C265 C 0.88289 0.00767 0.33314 0.0
C266 C 0.86597 0.03976 0.24376 0.0
H267 H 0.80262 0.1631 0.10473 0.0
H268 H 0.82771 0.14171 0.17759 0.0
H269 H 0.8514 0.0409 0.17246 0.0
H270 H 0.93628 0.05985 0.42344 0.0
H271 H 0.90156 0.08403 0.35791 0.0
H272 H 0.84288 0.09417 0.31739 0.0
C273 C 0.81398 0.12616 0.15273 0.0
C274 C 0.84892 0.05259 0.20388 0.0
C275 C 0.7996 0.13839 0.11096 0.0
C276 C 0.92117 0.04501 0.39876 0.0
C277 C 0.90119 0.05886 0.36128 0.0
C278 C 0.84504 0.08244 0.28592 0.0
C279 C 0.812 0.094 0.16146 0.0
C280 C 0.82965 0.08047 0.20437 0.0
C281 C 0.88248 0.04027 0.32751 0.0
C282 C 0.86411 0.05438 0.28534 0.0
H283 H 0.76663 0.07111 0.06131 0.0
H284 H 0.79181 0.04975 0.13402 0.0
H285 H 0.81317 0.1168 0.24732 0.0
H286 H 0.90332 0.96864 0.37279 0.0
H287 H 0.86806 0.99268 0.30842 0.0
C288 C 0.29463 0.37649 0.59847 0.0
C289 C 0.2732 0.39705 0.57034 0.0
C290 C 0.30934 0.38581 0.64161 0.0
C291 C 0.32957 0.45756 0.70969 0.0
H292 H 0.34493 0.39937 0.80977 0.0
C293 C 0.37389 0.50191 0.88606 0.0
C294 C 0.40496 0.48845 0.90817 0.0
C295 C 0.35503 0.48733 0.84896 0.0
C296 C 0.34086 0.41577 0.78201 0.0
H297 H 0.24914 0.44284 0.56525 0.0
H298 H 0.27344 0.45884 0.64116 0.0
H299 H 0.317 0.38126 0.73606 0.0
H300 H 0.43911 0.44793 0.91117 0.0
H301 H 0.4059 0.42225 0.84543 0.0
H302 H 0.35281 0.49211 0.75564 0.0
C303 C 0.28015 0.43593 0.62964 0.0
C304 C 0.32502 0.40545 0.73973 0.0
C305 C 0.26603 0.4268 0.58625 0.0
C306 C 0.41525 0.45879 0.89468 0.0
C307 C 0.39629 0.44415 0.85713 0.0
C308 C 0.34488 0.46788 0.75186 0.0
C309 C 0.30242 0.41573 0.65774 0.0
C310 C 0.31908 0.42629 0.70302 0.0
C311 C 0.36685 0.45901 0.8329 0.0
C312 C 0.35056 0.44719 0.7885 0.0
H313 H 0.30057 0.35343 0.58668 0.0
H314 H 0.32673 0.36977 0.66185 0.0
H315 H 0.32646 0.47415 0.68216 0.0
H316 H 0.36497 0.52451 0.89622 0.0
H317 H 0.33197 0.49894 0.83153 0.0
C318 C 0.69547 0.64419 0.46606 0.0
C319 C 0.71551 0.62353 0.49565 0.0
C320 C 0.67746 0.63344 0.42527 0.0
C321 C 0.64377 0.55966 0.37005 0.0
H322 H 0.62583 0.61243 0.26428 0.0
C323 C 0.54384 0.5227 0.22 0.0
C324 C 0.55083 0.52954 0.1763 0.0
C325 C 0.56434 0.5356 0.25741 0.0
C326 C 0.6309 0.5972 0.29329 0.0
H327 H 0.7339 0.57586 0.50508 0.0
H328 H 0.70381 0.55723 0.43326 0.0
H329 H 0.66313 0.63146 0.33088 0.0
H330 H 0.58444 0.55574 0.13741 0.0
H331 H 0.62133 0.57742 0.20293 0.0
H332 H 0.61298 0.52492 0.33216 0.0
C333 C 0.70076 0.58151 0.44199 0.0
C334 C 0.65194 0.60831 0.33183 0.0
C335 C 0.71824 0.59217 0.48305 0.0
C336 C 0.57841 0.5501 0.17074 0.0
C337 C 0.59943 0.56263 0.20834 0.0
C338 C 0.62322 0.54844 0.33145 0.0
C339 C 0.67951 0.60183 0.41288 0.0
C340 C 0.65843 0.58977 0.37092 0.0
C341 C 0.59292 0.55522 0.25225 0.0
C342 C 0.61605 0.56715 0.29269 0.0
H343 H 0.69272 0.66845 0.47519 0.0
H344 H 0.66104 0.64974 0.40422 0.0
H345 H 0.64756 0.54477 0.39951 0.0
H346 H 0.52239 0.50733 0.22537 0.0
H347 H 0.55771 0.53008 0.29046 0.0
C348 C 0.75113 0.11174 0.86773 0.0
C349 C 0.77387 0.11077 0.90877 0.0
C350 C 0.76035 0.09701 0.82933 0.0
C351 C 0.81569 0.03572 0.79013 0.0
H352 H 0.82077 0.08935 0.68718 0.0
C353 C 0.90395 0.00795 0.65435 0.0
C354 C 0.8977 0.02343 0.61278 0.0
C355 C 0.88135 0.01252 0.68671 0.0
C356 C 0.81866 0.07353 0.71483 0.0
H357 H 0.82448 0.09336 0.9408 0.0
H358 H 0.83958 0.06677 0.87448 0.0
H359 H 0.79524 0.10916 0.75119 0.0
H360 H 0.86119 0.05277 0.57022 0.0
H361 H 0.82013 0.05865 0.62488 0.0
H362 H 0.83887 -6e-05 0.75398 0.0
C363 C 0.81457 0.07888 0.87228 0.0
C364 C 0.80418 0.08513 0.75178 0.0
C365 C 0.80574 0.09409 0.91039 0.0
C366 C 0.86655 0.04064 0.60215 0.0
C367 C 0.84341 0.04446 0.63393 0.0
C368 C 0.82954 0.02383 0.75274 0.0
C369 C 0.79217 0.08046 0.83129 0.0
C370 C 0.80334 0.06662 0.79019 0.0
C371 C 0.85162 0.03213 0.67769 0.0
C372 C 0.8321 0.04283 0.71491 0.0
H373 H 0.72613 0.12385 0.86517 0.0
H374 H 0.7426 0.09852 0.79805 0.0
H375 H 0.81505 0.0209 0.81931 0.0
H376 H 0.9281 0.99489 0.66356 0.0
H377 H 0.88892 0.00263 0.71983 0.0
C378 C 0.23652 0.41845 0.36608 0.0
C379 C 0.26172 0.41175 0.40345 0.0
C380 C 0.24633 0.43348 0.32822 0.0
C381 C 0.32038 0.4774 0.2881 0.0
H382 H 0.28309 0.44267 0.17217 0.0
C383 C 0.38552 0.50621 0.13183 0.0
C384 C 0.39337 0.47935 0.10817 0.0
C385 C 0.36082 0.50487 0.1622 0.0
C386 C 0.2937 0.45276 0.20425 0.0
H387 H 0.31691 0.41555 0.4304 0.0
H388 H 0.33415 0.44106 0.36446 0.0
H389 H 0.25809 0.42689 0.23898 0.0
H390 H 0.37912 0.43097 0.09453 0.0
H391 H 0.33687 0.42847 0.14738 0.0
H392 H 0.35774 0.50142 0.25396 0.0
C393 C 0.30661 0.4356 0.36459 0.0
C394 C 0.27907 0.44396 0.24259 0.0
C395 C 0.29677 0.4208 0.40242 0.0
C396 C 0.37392 0.45201 0.11255 0.0
C397 C 0.34937 0.45067 0.14274 0.0
C398 C 0.33522 0.48598 0.24984 0.0
C399 C 0.28161 0.44194 0.32681 0.0
C400 C 0.29308 0.4553 0.28526 0.0
C401 C 0.34346 0.47669 0.16928 0.0
C402 C 0.32291 0.47287 0.20766 0.0
H403 H 0.20921 0.4121 0.36616 0.0
H404 H 0.2263 0.43833 0.29999 0.0
H405 H 0.33128 0.48721 0.32025 0.0
H406 H 0.39993 0.5277 0.12899 0.0
H407 H 0.35644 0.52552 0.1815 0.0
C408 C 0.21947 0.94271 0.99986 0.0
C409 C 0.22635 0.91078 0.00816 0.0
C410 C 0.20126 0.9527 0.9588 0.0
C411 C 0.17552 0.93179 0.84031 0.0
H412 H 0.09644 0.98692 0.84892 0.0
C413 C 0.07558 0.96675 0.68468 0.0
C414 C 0.06148 -0.00289 0.68383 0.0
C415 C 0.09684 0.95558 0.72312 0.0
C416 C 0.11874 0.97197 0.84568 0.0
H417 H 0.22028 0.86447 0.97872 0.0
H418 H 0.18925 0.88217 0.90654 0.0
H419 H 0.13265 0.96924 0.91712 0.0
H420 H 0.05967 0.0399 0.72205 0.0
H421 H 0.09746 0.02097 0.78808 0.0
H422 H 0.16207 0.93501 0.76874 0.0
C423 C 0.19794 0.89935 0.93212 0.0
C424 C 0.13942 0.96174 0.88489 0.0
C425 C 0.21584 0.88926 0.97346 0.0
C426 C 0.06973 0.01625 0.72178 0.0
C427 C 0.09127 0.00527 0.75985 0.0
C428 C 0.15505 0.94236 0.80088 0.0
C429 C 0.18984 0.9311 0.92476 0.0
C430 C 0.16809 0.94166 0.88268 0.0
C431 C 0.10477 0.97465 0.76137 0.0
C432 C 0.12645 0.96274 0.80306 0.0
H433 H 0.22787 0.96005 0.0253 0.0
H434 H 0.19589 0.97739 0.95375 0.0
H435 H 0.19758 0.9164 0.83764 0.0
H436 H 0.06961 0.95139 0.656 0.0
H437 H 0.1064 0.93177 0.72313 0.0
loop_
_geom_bond_atom_site_label_1
_geom_bond_atom_site_label_2
_geom_bond_distance
_geom_bond_site_symmetry_2
_ccdc_geom_bond_type
H0 C3 0.931 . S
H1 C6 0.928 . S
H2 C8 0.930 . S
C3 H0 0.931 . S
C3 C4 1.413 . S
C3 C5 1.360 . S
C4 C3 1.413 . S
C4 C8 1.429 . S
C5 C3 1.360 . S
C5 C6 1.372 . S
C6 H1 0.928 . S
C6 C5 1.372 . S
C6 C7 1.404 . S
C7 C6 1.404 . S
C7 C8 1.391 . S
C8 H2 0.930 . S
C8 C4 1.429 . S
C8 C7 1.391 . S
H9 C12 0.931 . S
H10 C15 0.928 . S
H11 C17 0.930 . S
C12 H9 0.931 . S
C12 C13 1.413 . S
C12 C14 1.360 . S
C13 C12 1.413 . S
C13 C17 1.429 . S
C14 C12 1.360 . S
C14 C15 1.372 . S
C15 H10 0.928 . S
C15 C14 1.372 . S
C15 C16 1.404 . S
C16 C15 1.404 . S
C16 C17 1.391 . S
C17 H11 0.930 . S
C17 C13 1.429 . S
C17 C16 1.391 . S
H18 C21 0.931 . S
H19 C24 0.928 . S
H20 C26 0.930 . S
C21 H18 0.931 . S
C21 C22 1.413 1_554 S
C21 C23 1.360 . S
C22 C21 1.413 1_556 S
C22 C26 1.429 . S
C23 C21 1.360 . S
C23 C24 1.372 . S
C24 H19 0.928 . S
C24 C23 1.372 . S
C24 C25 1.391 1_554 S
C25 C24 1.391 1_556 S
C25 C26 1.405 . S
C26 H20 0.930 . S
C26 C22 1.429 . S
C26 C25 1.405 . S
H27 C30 0.931 . S
H28 C33 0.928 . S
H29 C35 0.930 . S
C30 H27 0.931 . S
C30 C31 1.413 . S
C30 C32 1.360 . S
C31 C30 1.413 . S
C31 C35 1.429 . S
C32 C30 1.360 . S
C32 C33 1.372 . S
C33 H28 0.928 . S
C33 C32 1.372 . S
C33 C34 1.404 . S
C34 C33 1.404 . S
C34 C35 1.391 . S
C35 H29 0.930 . S
C35 C31 1.429 . S
C35 C34 1.391 . S
O36 Mg37 1.990 1_655 S
O36 C50 1.253 . S
Mg37 O36 1.990 1_455 S
Mg37 O40 2.180 . S
Mg37 O41 2.117 . S
Mg37 O55 2.030 . S
O38 Mg39 2.072 1_655 S
O38 C50 1.260 . S
Mg39 O38 2.072 1_455 S
Mg39 O40 2.099 . S
Mg39 O42 2.079 1_545 S
Mg39 O43 2.072 1_455 S
Mg39 O45 2.099 1_445 S
Mg39 O56 2.079 1_545 S
O40 Mg37 2.180 . S
O40 Mg39 2.099 . S
O40 C51 1.279 . S
O41 Mg37 2.117 . S
O41 C51 1.250 . S
O42 Mg39 2.079 1_565 S
O42 C52 1.264 . S
O43 Mg39 2.072 1_655 S
O43 C53 1.260 . S
Mg44 O45 2.180 . S
Mg44 O46 2.030 1_655 S
Mg44 O47 1.990 1_565 S
Mg44 O48 2.117 . S
O45 Mg39 2.099 1_665 S
O45 Mg44 2.180 . S
O45 C54 1.279 . S
O46 Mg44 2.030 1_455 S
O46 C52 1.248 . S
O47 Mg44 1.990 1_545 S
O47 C53 1.253 . S
O48 Mg44 2.117 . S
O48 C54 1.250 . S
C49 O55 1.248 1_565 S
C49 O56 1.264 . S
C50 O36 1.253 . S
C50 O38 1.260 . S
C51 O40 1.279 . S
C51 O41 1.250 . S
C52 O42 1.264 . S
C52 O46 1.248 . S
C53 O43 1.260 . S
C53 O47 1.253 . S
C54 O45 1.279 . S
C54 O48 1.250 . S
O55 Mg37 2.030 . S
O55 C49 1.248 1_545 S
O56 Mg39 2.079 1_565 S
O56 C49 1.264 . S
O57 Mg58 1.990 . S
O57 C71 1.253 . S
Mg58 O57 1.990 . S
Mg58 O61 2.180 . S
Mg58 O62 2.117 . S
Mg58 O76 2.030 . S
O59 Mg60 2.072 . S
O59 C71 1.260 . S
Mg60 O59 2.072 . S
Mg60 O61 2.099 . S
Mg60 O63 2.079 1_554 S
Mg60 O64 2.072 1_554 S
Mg60 O66 2.099 . S
Mg60 O77 2.079 . S
O61 Mg58 2.180 . S
O61 Mg60 2.099 . S
O61 C72 1.279 . S
O62 Mg58 2.117 . S
O62 C72 1.250 . S
O63 Mg60 2.079 1_556 S
O63 C73 1.264 . S
O64 Mg60 2.072 1_556 S
O64 C74 1.260 . S
Mg65 O66 2.180 1_556 S
Mg65 O67 2.030 . S
Mg65 O68 1.990 . S
Mg65 O69 2.122 . S
O66 Mg60 2.099 . S
O66 Mg65 2.180 1_554 S
O66 C75 1.279 . S
O67 Mg65 2.030 . S
O67 C73 1.248 . S
O68 Mg65 1.990 . S
O68 C74 1.253 . S
O69 Mg65 2.122 . S
O69 C75 1.245 1_556 S
C70 O76 1.248 . S
C70 O77 1.264 . S
C71 O57 1.253 . S
C71 O59 1.260 . S
C72 O61 1.279 . S
C72 O62 1.250 . S
C73 O63 1.264 . S
C73 O67 1.248 . S
C74 O64 1.260 . S
C74 O68 1.253 . S
C75 O66 1.279 . S
C75 O69 1.245 1_554 S
O76 Mg58 2.030 . S
O76 C70 1.248 . S
O77 Mg60 2.079 . S
O77 C70 1.264 . S
C78 C79 1.349 . S
C78 C80 1.327 . S
C78 H103 0.950 . S
C79 C78 1.349 . S
C79 C95 1.349 . S
C80 C78 1.327 . S
C80 C99 1.429 . S
C80 H104 0.950 . S
C81 C98 1.574 . S
C81 C100 1.368 . S
C81 H105 0.949 . S
H82 C86 0.949 . S
C83 C84 1.349 . S
C83 C85 1.327 . S
C83 H106 0.950 . S
C84 C83 1.349 . S
C84 C96 1.349 . S
C85 C83 1.327 . S
C85 C101 1.429 . S
C85 H107 0.950 . S
C86 H82 0.949 . S
C86 C94 1.574 . S
C86 C102 1.368 . S
H87 C95 0.950 . S
H88 C93 0.950 . S
H89 C94 0.949 . S
H90 C96 0.950 . S
H91 C97 0.950 . S
H92 C98 0.949 . S
C93 H88 0.950 . S
C93 C95 1.327 . S
C93 C99 1.429 . S
C94 C86 1.574 . S
C94 H89 0.949 . S
C94 C100 1.368 . S
C95 C79 1.349 . S
C95 H87 0.950 . S
C95 C93 1.327 . S
C96 C84 1.349 . S
C96 H90 0.950 . S
C96 C97 1.327 . S
C97 H91 0.950 . S
C97 C96 1.327 . S
C97 C101 1.429 . S
C98 C81 1.574 . S
C98 H92 0.949 . S
C98 C102 1.368 . S
C99 C80 1.429 . S
C99 C93 1.429 . S
C99 C100 1.523 . S
C100 C81 1.368 . S
C100 C94 1.368 . S
C100 C99 1.523 . S
C101 C85 1.429 . S
C101 C97 1.429 . S
C101 C102 1.523 . S
C102 C86 1.368 . S
C102 C98 1.368 . S
C102 C101 1.523 . S
H103 C78 0.950 . S
H104 C80 0.950 . S
H105 C81 0.949 . S
H106 C83 0.950 . S
H107 C85 0.950 . S
C108 C109 1.349 . S
C108 C110 1.327 . S
C108 H133 0.950 . S
C109 C108 1.349 . S
C109 C125 1.349 . S
C110 C108 1.327 . S
C110 C129 1.429 . S
C110 H134 0.950 . S
C111 C128 1.574 . S
C111 C130 1.368 . S
C111 H135 0.949 . S
H112 C116 0.949 . S
C113 C114 1.349 . S
C113 C115 1.327 . S
C113 H136 0.950 . S
C114 C113 1.349 . S
C114 C126 1.349 . S
C115 C113 1.327 . S
C115 C131 1.429 . S
C115 H137 0.950 . S
C116 H112 0.949 . S
C116 C124 1.574 . S
C116 C132 1.368 . S
H117 C125 0.950 . S
H118 C123 0.950 . S
H119 C124 0.949 . S
H120 C126 0.950 . S
H121 C127 0.950 . S
H122 C128 0.949 . S
C123 H118 0.950 . S
C123 C125 1.327 . S
C123 C129 1.429 . S
C124 C116 1.574 . S
C124 H119 0.949 . S
C124 C130 1.368 . S
C125 C109 1.349 . S
C125 H117 0.950 . S
C125 C123 1.327 . S
C126 C114 1.349 . S
C126 H120 0.950 . S
C126 C127 1.327 . S
C127 H121 0.950 . S
C127 C126 1.327 . S
C127 C131 1.429 . S
C128 C111 1.574 . S
C128 H122 0.949 . S
C128 C132 1.368 . S
C129 C110 1.429 . S
C129 C123 1.429 . S
C129 C130 1.523 . S
C130 C111 1.368 . S
C130 C124 1.368 . S
C130 C129 1.523 . S
C131 C115 1.429 . S
C131 C127 1.429 . S
C131 C132 1.523 . S
C132 C116 1.368 . S
C132 C128 1.368 . S
C132 C131 1.523 . S
H133 C108 0.950 . S
H134 C110 0.950 . S
H135 C111 0.949 . S
H136 C113 0.950 . S
H137 C115 0.950 . S
C138 C139 1.349 . S
C138 C140 1.327 . S
C138 H163 0.950 . S
C139 C138 1.349 . S
C139 C155 1.349 . S
C140 C138 1.327 . S
C140 C159 1.429 . S
C140 H164 0.950 . S
C141 C158 1.574 . S
C141 C160 1.368 . S
C141 H165 0.949 . S
H142 C146 0.949 . S
C143 C144 1.349 . S
C143 C145 1.327 . S
C143 H166 0.950 . S
C144 C143 1.349 . S
C144 C156 1.349 . S
C145 C143 1.327 . S
C145 C161 1.429 . S
C145 H167 0.950 . S
C146 H142 0.949 . S
C146 C154 1.574 . S
C146 C162 1.368 . S
H147 C155 0.950 . S
H148 C153 0.950 . S
H149 C154 0.949 . S
H150 C156 0.950 . S
H151 C157 0.950 . S
H152 C158 0.949 . S
C153 H148 0.950 . S
C153 C155 1.327 . S
C153 C159 1.429 . S
C154 C146 1.574 . S
C154 H149 0.949 . S
C154 C160 1.368 . S
C155 C139 1.349 . S
C155 H147 0.950 . S
C155 C153 1.327 . S
C156 C144 1.349 . S
C156 H150 0.950 . S
C156 C157 1.327 . S
C157 H151 0.950 . S
C157 C156 1.327 . S
C157 C161 1.429 . S
C158 C141 1.574 . S
C158 H152 0.949 . S
C158 C162 1.368 . S
C159 C140 1.429 . S
C159 C153 1.429 . S
C159 C160 1.523 . S
C160 C141 1.368 . S
C160 C154 1.368 . S
C160 C159 1.523 . S
C161 C145 1.429 . S
C161 C157 1.429 . S
C161 C162 1.523 . S
C162 C146 1.368 . S
C162 C158 1.368 . S
C162 C161 1.523 . S
H163 C138 0.950 . S
H164 C140 0.950 . S
H165 C141 0.949 . S
H166 C143 0.950 . S
H167 C145 0.950 . S
C168 C169 1.347 1_554 S
C168 C170 1.327 . S
C168 H193 0.950 . S
C169 C168 1.347 1_556 S
C169 C185 1.351 . S
C170 C168 1.327 . S
C170 C189 1.429 . S
C170 H194 0.950 . S
C171 C188 1.574 . S
C171 C190 1.368 1_556 S
C171 H195 0.949 . S
H172 C176 0.949 . S
C173 C174 1.349 1_556 S
C173 C175 1.327 . S
C173 H196 0.950 . S
C174 C173 1.349 1_554 S
C174 C186 1.349 . S
C175 C173 1.327 . S
C175 C191 1.429 1_556 S
C175 H197 0.950 . S
C176 H172 0.949 . S
C176 C184 1.574 . S
C176 C192 1.368 . S
H177 C185 0.950 . S
H178 C183 0.950 . S
H179 C184 0.949 . S
H180 C186 0.950 . S
H181 C187 0.950 . S
H182 C188 0.949 . S
C183 H178 0.950 . S
C183 C185 1.327 . S
C183 C189 1.429 1_556 S
C184 C176 1.574 . S
C184 H179 0.949 . S
C184 C190 1.368 . S
C185 C169 1.351 . S
C185 H177 0.950 . S
C185 C183 1.327 . S
C186 C174 1.349 . S
C186 H180 0.950 . S
C186 C187 1.327 . S
C187 H181 0.950 . S
C187 C186 1.327 . S
C187 C191 1.429 . S
C188 C171 1.574 . S
C188 H182 0.949 . S
C188 C192 1.368 1_556 S
C189 C170 1.429 . S
C189 C183 1.429 1_554 S
C189 C190 1.523 . S
C190 C171 1.368 1_554 S
C190 C184 1.368 . S
C190 C189 1.523 . S
C191 C175 1.429 1_554 S
C191 C187 1.429 . S
C191 C192 1.523 . S
C192 C176 1.368 . S
C192 C188 1.368 1_554 S
C192 C191 1.523 . S
H193 C168 0.950 . S
H194 C170 0.950 . S
H195 C171 0.949 . S
H196 C173 0.950 . S
H197 C175 0.950 . S
C198 C199 1.349 . S
C198 C200 1.327 . S
C198 H223 0.950 . S
C199 C198 1.349 . S
C199 C215 1.349 . S
C200 C198 1.327 . S
C200 C219 1.429 . S
C200 H224 0.950 . S
C201 C218 1.574 . S
C201 C220 1.368 . S
C201 H225 0.949 . S
H202 C206 0.949 . S
C203 C204 1.349 . S
C203 C205 1.327 . S
C203 H226 0.950 . S
C204 C203 1.349 . S
C204 C216 1.352 . S
C205 C203 1.327 . S
C205 C221 1.429 . S
C205 H227 0.950 . S
C206 H202 0.949 . S
C206 C214 1.574 . S
C206 C222 1.368 . S
H207 C215 0.950 . S
H208 C213 0.950 . S
H209 C214 0.949 . S
H210 C216 0.946 1_545 S
H211 C217 0.950 1_545 S
H212 C218 0.949 . S
C213 H208 0.950 . S
C213 C215 1.327 . S
C213 C219 1.429 . S
C214 C206 1.574 . S
C214 H209 0.949 . S
C214 C220 1.368 . S
C215 C199 1.349 . S
C215 H207 0.950 . S
C215 C213 1.327 . S
C216 C204 1.352 . S
C216 H210 0.946 1_565 S
C216 C217 1.328 . S
C217 H211 0.950 1_565 S
C217 C216 1.328 . S
C217 C221 1.429 . S
C218 C201 1.574 . S
C218 H212 0.949 . S
C218 C222 1.368 . S
C219 C200 1.429 . S
C219 C213 1.429 . S
C219 C220 1.523 . S
C220 C201 1.368 . S
C220 C214 1.368 . S
C220 C219 1.523 . S
C221 C205 1.429 . S
C221 C217 1.429 . S
C221 C222 1.523 . S
C222 C206 1.368 . S
C222 C218 1.368 . S
C222 C221 1.523 . S
H223 C198 0.950 . S
H224 C200 0.950 . S
H225 C201 0.949 . S
H226 C203 0.950 . S
H227 C205 0.950 . S
C228 C229 1.349 . S
C228 C230 1.327 . S
C228 H253 0.950 . S
C229 C228 1.349 . S
C229 C245 1.349 . S
C230 C228 1.327 . S
C230 C249 1.429 . S
C230 H254 0.950 . S
C231 C248 1.574 . S
C231 C250 1.368 . S
C231 H255 0.949 . S
H232 C236 0.949 . S
C233 C234 1.349 . S
C233 C235 1.327 . S
C233 H256 0.950 . S
C234 C233 1.349 . S
C234 C246 1.349 . S
C235 C233 1.327 . S
C235 C251 1.429 . S
C235 H257 0.950 . S
C236 H232 0.949 . S
C236 C244 1.574 . S
C236 C252 1.368 . S
H237 C245 0.950 . S
H238 C243 0.950 . S
H239 C244 0.949 . S
H240 C246 0.950 . S
H241 C247 0.950 . S
H242 C248 0.949 . S
C243 H238 0.950 . S
C243 C245 1.327 . S
C243 C249 1.429 . S
C244 C236 1.574 . S
C244 H239 0.949 . S
C244 C250 1.368 . S
C245 C229 1.349 . S
C245 H237 0.950 . S
C245 C243 1.327 . S
C246 C234 1.349 . S
C246 H240 0.950 . S
C246 C247 1.327 . S
C247 H241 0.950 . S
C247 C246 1.327 . S
C247 C251 1.429 . S
C248 C231 1.574 . S
C248 H242 0.949 . S
C248 C252 1.368 . S
C249 C230 1.429 . S
C249 C243 1.429 . S
C249 C250 1.523 . S
C250 C231 1.368 . S
C250 C244 1.368 . S
C250 C249 1.523 . S
C251 C235 1.429 . S
C251 C247 1.429 . S
C251 C252 1.523 . S
C252 C236 1.368 . S
C252 C248 1.368 . S
C252 C251 1.523 . S
H253 C228 0.950 . S
H254 C230 0.950 . S
H255 C231 0.949 . S
H256 C233 0.950 . S
H257 C235 0.950 . S
C258 C259 1.349 . S
C258 C260 1.327 . S
C258 H283 0.950 . S
C259 C258 1.349 . S
C259 C275 1.349 . S
C260 C258 1.327 . S
C260 C279 1.429 . S
C260 H284 0.950 . S
C261 C278 1.574 . S
C261 C280 1.368 . S
C261 H285 0.949 . S
H262 C266 0.949 . S
C263 C264 1.349 . S
C263 C265 1.327 . S
C263 H286 0.950 . S
C264 C263 1.349 . S
C264 C276 1.349 . S
C265 C263 1.327 . S
C265 C281 1.429 . S
C265 H287 0.950 . S
C266 H262 0.949 . S
C266 C274 1.574 . S
C266 C282 1.368 . S
H267 C275 0.950 . S
H268 C273 0.950 . S
H269 C274 0.949 . S
H270 C276 0.950 . S
H271 C277 0.950 . S
H272 C278 0.949 . S
C273 H268 0.950 . S
C273 C275 1.327 . S
C273 C279 1.429 . S
C274 C266 1.574 . S
C274 H269 0.949 . S
C274 C280 1.368 . S
C275 C259 1.349 . S
C275 H267 0.950 . S
C275 C273 1.327 . S
C276 C264 1.349 . S
C276 H270 0.950 . S
C276 C277 1.327 . S
C277 H271 0.950 . S
C277 C276 1.327 . S
C277 C281 1.429 . S
C278 C261 1.574 . S
C278 H272 0.949 . S
C278 C282 1.368 . S
C279 C260 1.429 . S
C279 C273 1.429 . S
C279 C280 1.523 . S
C280 C261 1.368 . S
C280 C274 1.368 . S
C280 C279 1.523 . S
C281 C265 1.429 . S
C281 C277 1.429 . S
C281 C282 1.523 . S
C282 C266 1.368 . S
C282 C278 1.368 . S
C282 C281 1.523 . S
H283 C258 0.950 . S
H284 C260 0.950 . S
H285 C261 0.949 . S
H286 C263 0.950 . S
H287 C265 0.950 . S
C288 C289 1.349 . S
C288 C290 1.327 . S
C288 H313 0.950 . S
C289 C288 1.349 . S
C289 C305 1.349 . S
C290 C288 1.327 . S
C290 C309 1.429 . S
C290 H314 0.950 . S
C291 C308 1.574 . S
C291 C310 1.368 . S
C291 H315 0.949 . S
H292 C296 0.949 . S
C293 C294 1.349 . S
C293 C295 1.327 . S
C293 H316 0.950 . S
C294 C293 1.349 . S
C294 C306 1.349 . S
C295 C293 1.327 . S
C295 C311 1.429 . S
C295 H317 0.950 . S
C296 H292 0.949 . S
C296 C304 1.574 . S
C296 C312 1.368 . S
H297 C305 0.950 . S
H298 C303 0.950 . S
H299 C304 0.949 . S
H300 C306 0.950 . S
H301 C307 0.950 . S
H302 C308 0.949 . S
C303 H298 0.950 . S
C303 C305 1.327 . S
C303 C309 1.429 . S
C304 C296 1.574 . S
C304 H299 0.949 . S
C304 C310 1.368 . S
C305 C289 1.349 . S
C305 H297 0.950 . S
C305 C303 1.327 . S
C306 C294 1.349 . S
C306 H300 0.950 . S
C306 C307 1.327 . S
C307 H301 0.950 . S
C307 C306 1.327 . S
C307 C311 1.429 . S
C308 C291 1.574 . S
C308 H302 0.949 . S
C308 C312 1.368 . S
C309 C290 1.429 . S
C309 C303 1.429 . S
C309 C310 1.523 . S
C310 C291 1.368 . S
C310 C304 1.368 . S
C310 C309 1.523 . S
C311 C295 1.429 . S
C311 C307 1.429 . S
C311 C312 1.523 . S
C312 C296 1.368 . S
C312 C308 1.368 . S
C312 C311 1.523 . S
H313 C288 0.950 . S
H314 C290 0.950 . S
H315 C291 0.949 . S
H316 C293 0.950 . S
H317 C295 0.950 . S
C318 C319 1.349 . S
C318 C320 1.327 . S
C318 H343 0.950 . S
C319 C318 1.349 . S
C319 C335 1.349 . S
C320 C318 1.327 . S
C320 C339 1.429 . S
C320 H344 0.950 . S
C321 C338 1.574 . S
C321 C340 1.368 . S
C321 H345 0.949 . S
H322 C326 0.949 . S
C323 C324 1.349 . S
C323 C325 1.327 . S
C323 H346 0.950 . S
C324 C323 1.349 . S
C324 C336 1.349 . S
C325 C323 1.327 . S
C325 C341 1.429 . S
C325 H347 0.950 . S
C326 H322 0.949 . S
C326 C334 1.574 . S
C326 C342 1.368 . S
H327 C335 0.950 . S
H328 C333 0.950 . S
H329 C334 0.949 . S
H330 C336 0.950 . S
H331 C337 0.950 . S
H332 C338 0.949 . S
C333 H328 0.950 . S
C333 C335 1.327 . S
C333 C339 1.429 . S
C334 C326 1.574 . S
C334 H329 0.949 . S
C334 C340 1.368 . S
C335 C319 1.349 . S
C335 H327 0.950 . S
C335 C333 1.327 . S
C336 C324 1.349 . S
C336 H330 0.950 . S
C336 C337 1.327 . S
C337 H331 0.950 . S
C337 C336 1.327 . S
C337 C341 1.429 . S
C338 C321 1.574 . S
C338 H332 0.949 . S
C338 C342 1.368 . S
C339 C320 1.429 . S
C339 C333 1.429 . S
C339 C340 1.523 . S
C340 C321 1.368 . S
C340 C334 1.368 . S
C340 C339 1.523 . S
C341 C325 1.429 . S
C341 C337 1.429 . S
C341 C342 1.523 . S
C342 C326 1.368 . S
C342 C338 1.368 . S
C342 C341 1.523 . S
H343 C318 0.950 . S
H344 C320 0.950 . S
H345 C321 0.949 . S
H346 C323 0.950 . S
H347 C325 0.950 . S
C348 C349 1.349 . S
C348 C350 1.327 . S
C348 H373 0.950 . S
C349 C348 1.349 . S
C349 C365 1.349 . S
C350 C348 1.327 . S
C350 C369 1.429 . S
C350 H374 0.950 . S
C351 C368 1.574 . S
C351 C370 1.368 . S
C351 H375 0.949 . S
H352 C356 0.949 . S
C353 C354 1.349 . S
C353 C355 1.327 . S
C353 H376 0.950 . S
C354 C353 1.349 . S
C354 C366 1.349 . S
C355 C353 1.327 . S
C355 C371 1.429 . S
C355 H377 0.950 . S
C356 H352 0.949 . S
C356 C364 1.574 . S
C356 C372 1.368 . S
H357 C365 0.950 . S
H358 C363 0.950 . S
H359 C364 0.949 . S
H360 C366 0.950 . S
H361 C367 0.950 . S
H362 C368 0.949 . S
C363 H358 0.950 . S
C363 C365 1.327 . S
C363 C369 1.429 . S
C364 C356 1.574 . S
C364 H359 0.949 . S
C364 C370 1.368 . S
C365 C349 1.349 . S
C365 H357 0.950 . S
C365 C363 1.327 . S
C366 C354 1.349 . S
C366 H360 0.950 . S
C366 C367 1.327 . S
C367 H361 0.950 . S
C367 C366 1.327 . S
C367 C371 1.429 . S
C368 C351 1.574 . S
C368 H362 0.949 . S
C368 C372 1.368 . S
C369 C350 1.429 . S
C369 C363 1.429 . S
C369 C370 1.523 . S
C370 C351 1.368 . S
C370 C364 1.368 . S
C370 C369 1.523 . S
C371 C355 1.429 . S
C371 C367 1.429 . S
C371 C372 1.523 . S
C372 C356 1.368 . S
C372 C368 1.368 . S
C372 C371 1.523 . S
H373 C348 0.950 . S
H374 C350 0.950 . S
H375 C351 0.949 . S
H376 C353 0.950 . S
H377 C355 0.950 . S
C378 C379 1.349 . S
C378 C380 1.327 . S
C378 H403 0.950 . S
C379 C378 1.349 . S
C379 C395 1.349 . S
C380 C378 1.327 . S
C380 C399 1.429 . S
C380 H404 0.950 . S
C381 C398 1.574 . S
C381 C400 1.368 . S
C381 H405 0.949 . S
H382 C386 0.949 . S
C383 C384 1.349 . S
C383 C385 1.327 . S
C383 H406 0.950 . S
C384 C383 1.349 . S
C384 C396 1.349 . S
C385 C383 1.327 . S
C385 C401 1.429 . S
C385 H407 0.950 . S
C386 H382 0.949 . S
C386 C394 1.574 . S
C386 C402 1.368 . S
H387 C395 0.950 . S
H388 C393 0.950 . S
H389 C394 0.949 . S
H390 C396 0.950 . S
H391 C397 0.950 . S
H392 C398 0.949 . S
C393 H388 0.950 . S
C393 C395 1.327 . S
C393 C399 1.429 . S
C394 C386 1.574 . S
C394 H389 0.949 . S
C394 C400 1.368 . S
C395 C379 1.349 . S
C395 H387 0.950 . S
C395 C393 1.327 . S
C396 C384 1.349 . S
C396 H390 0.950 . S
C396 C397 1.327 . S
C397 H391 0.950 . S
C397 C396 1.327 . S
C397 C401 1.429 . S
C398 C381 1.574 . S
C398 H392 0.949 . S
C398 C402 1.368 . S
C399 C380 1.429 . S
C399 C393 1.429 . S
C399 C400 1.523 . S
C400 C381 1.368 . S
C400 C394 1.368 . S
C400 C399 1.523 . S
C401 C385 1.429 . S
C401 C397 1.429 . S
C401 C402 1.523 . S
C402 C386 1.368 . S
C402 C398 1.368 . S
C402 C401 1.523 . S
H403 C378 0.950 . S
H404 C380 0.950 . S
H405 C381 0.949 . S
H406 C383 0.950 . S
H407 C385 0.950 . S
C408 C409 1.349 1_556 S
C408 C410 1.327 . S
C408 H433 0.950 1_556 S
C409 C408 1.349 1_554 S
C409 C425 1.350 1_554 S
C410 C408 1.327 . S
C410 C429 1.429 . S
C410 H434 0.950 . S
C411 C428 1.574 . S
C411 C430 1.368 . S
C411 H435 0.949 . S
H412 C416 0.975 . S
C413 C414 1.349 . S
C413 C415 1.327 . S
C413 H436 0.950 . S
C414 C413 1.349 . S
C414 C426 1.334 1_565 S
C415 C413 1.327 . S
C415 C431 1.429 . S
C415 H437 0.950 . S
C416 H412 0.975 . S
C416 C424 1.574 . S
C416 C432 1.368 . S
H417 C425 0.950 . S
H418 C423 0.950 . S
H419 C424 0.949 . S
H420 C426 0.970 . S
H421 C427 0.950 1_545 S
H422 C428 0.949 . S
C423 H418 0.950 . S
C423 C425 1.327 . S
C423 C429 1.429 . S
C424 C416 1.574 . S
C424 H419 0.949 . S
C424 C430 1.368 . S
C425 C409 1.350 1_556 S
C425 H417 0.950 . S
C425 C423 1.327 . S
C426 C414 1.334 1_545 S
C426 H420 0.970 . S
C426 C427 1.322 1_545 S
C427 H421 0.950 1_565 S
C427 C426 1.322 1_565 S
C427 C431 1.429 . S
C428 C411 1.574 . S
C428 H422 0.949 . S
C428 C432 1.368 . S
C429 C410 1.429 . S
C429 C423 1.429 . S
C429 C430 1.523 . S
C430 C411 1.368 . S
C430 C424 1.368 . S
C430 C429 1.523 . S
C431 C415 1.429 . S
C431 C427 1.429 . S
C431 C432 1.523 . S
C432 C416 1.368 . S
C432 C428 1.368 . S
C432 C431 1.523 . S
H433 C408 0.950 1_554 S
H434 C410 0.950 . S
H435 C411 0.949 . S
H436 C413 0.950 . S
H437 C415 0.950 . S
C84 C51 1.242 . S
C79 C34 1.425 . S
C109 C7 1.430 . S
C114 C75 1.242 . S
C139 C16 1.597 . S
C144 C54 1.382 . S
C169 C25 1.596 . S
C174 C72 1.382 . S
C204 C52 1.473 . S
C199 C5 1.510 . S
C234 C74 1.488 . S
C229 C13 1.546 . S
C259 C23 1.537 . S
C264 C53 1.476 . S
C289 C32 1.505 . S
C294 C73 1.452 . S
C324 C71 1.474 . S
C319 C14 1.535 . S
C354 C50 1.486 . S
C349 C22 1.544 . S
C384 C70 1.471 . S
C379 C31 1.504 . S
C409 C4 1.505 . S
C414 C49 1.450 . S
