# Generated by pormake.
# Topology zzz, (3,6)-cn, num edge types: 1
# Building blocks:
#     Node 0, Type 0, BuildingBlock: BELTOD_clean_linker_0, # of connection points: 3
#     Node 1, Type 0, BuildingBlock: BELTOD_clean_linker_0, # of connection points: 3
#     Node 2, Type 0, BuildingBlock: BELTOD_clean_linker_0, # of connection points: 3
#     Node 3, Type 0, BuildingBlock: BELTOD_clean_linker_0, # of connection points: 3
#     Node 4, Type 0, BuildingBlock: BELTOD_clean_linker_0, # of connection points: 3
#     Node 5, Type 0, BuildingBlock: BELTOD_clean_linker_0, # of connection points: 3
#     Node 6, Type 0, BuildingBlock: BELTOD_clean_linker_0, # of connection points: 3
#     Node 7, Type 0, BuildingBlock: BELTOD_clean_linker_0, # of connection points: 3
#     Node 8, Type 1, BuildingBlock: BETDEL_clean_sbu_0, # of connection points: 6
#     Node 9, Type 1, BuildingBlock: BETDEL_clean_sbu_0, # of connection points: 6
#     Node 10, Type 1, BuildingBlock: BETDEL_clean_sbu_0, # of connection points: 6
#     Node 11, Type 1, BuildingBlock: BETDEL_clean_sbu_0, # of connection points: 6
#     Edge 12, Type (0, 1), BuildingBlock: UVAHIK_clean_linker_0, # of connection points: 2
#     Edge 13, Type (0, 1), BuildingBlock: UVAHIK_clean_linker_0, # of connection points: 2
#     Edge 14, Type (0, 1), BuildingBlock: UVAHIK_clean_linker_0, # of connection points: 2
#     Edge 15, Type (0, 1), BuildingBlock: UVAHIK_clean_linker_0, # of connection points: 2
#     Edge 16, Type (0, 1), BuildingBlock: UVAHIK_clean_linker_0, # of connection points: 2
#     Edge 17, Type (0, 1), BuildingBlock: UVAHIK_clean_linker_0, # of connection points: 2
#     Edge 18, Type (0, 1), BuildingBlock: UVAHIK_clean_linker_0, # of connection points: 2
#     Edge 19, Type (0, 1), BuildingBlock: UVAHIK_clean_linker_0, # of connection points: 2
#     Edge 20, Type (0, 1), BuildingBlock: UVAHIK_clean_linker_0, # of connection points: 2
#     Edge 21, Type (0, 1), BuildingBlock: UVAHIK_clean_linker_0, # of connection points: 2
#     Edge 22, Type (0, 1), BuildingBlock: UVAHIK_clean_linker_0, # of connection points: 2
#     Edge 23, Type (0, 1), BuildingBlock: UVAHIK_clean_linker_0, # of connection points: 2
#     Edge 24, Type (0, 1), BuildingBlock: UVAHIK_clean_linker_0, # of connection points: 2
#     Edge 25, Type (0, 1), BuildingBlock: UVAHIK_clean_linker_0, # of connection points: 2
#     Edge 26, Type (0, 1), BuildingBlock: UVAHIK_clean_linker_0, # of connection points: 2
#     Edge 27, Type (0, 1), BuildingBlock: UVAHIK_clean_linker_0, # of connection points: 2
#     Edge 28, Type (0, 1), BuildingBlock: UVAHIK_clean_linker_0, # of connection points: 2
#     Edge 29, Type (0, 1), BuildingBlock: UVAHIK_clean_linker_0, # of connection points: 2
#     Edge 30, Type (0, 1), BuildingBlock: UVAHIK_clean_linker_0, # of connection points: 2
#     Edge 31, Type (0, 1), BuildingBlock: UVAHIK_clean_linker_0, # of connection points: 2
#     Edge 32, Type (0, 1), BuildingBlock: UVAHIK_clean_linker_0, # of connection points: 2
#     Edge 33, Type (0, 1), BuildingBlock: UVAHIK_clean_linker_0, # of connection points: 2
#     Edge 34, Type (0, 1), BuildingBlock: UVAHIK_clean_linker_0, # of connection points: 2
#     Edge 35, Type (0, 1), BuildingBlock: UVAHIK_clean_linker_0, # of connection points: 2
# Relax obj value: 0.304
# Max RMSD: 0.213
# Mean RMSD: 0.198
data_MOF--net-zzz--node1-BETDEL_clean_sbu_0--node2-BELTOD_clean_linker_0--edge1-UVAHIK_clean_linker_0
_symmetry_space_group_name_H-M    P1
_symmetry_Int_Tables_number       1
_symmetry_cell_setting            triclinic
loop_
_symmetry_equiv_pos_as_xyz
'x, y, z'
_cell_length_a     66.943442
_cell_length_b     66.25411
_cell_length_c     23.207193
_cell_angle_alpha  91.294706
_cell_angle_beta   89.550011
_cell_angle_gamma 96.180026
loop_
_atom_site_label
_atom_site_type_symbol
_atom_site_fract_x
_atom_site_fract_y
_atom_site_fract_z
_atom_type_partial_charge
P0 P 0.73232 0.41618 0.11592 0.0
H1 H 0.74537 0.40839 0.23181 0.0
H2 H 0.76894 0.4284 0.29509 0.0
H3 H 0.76584 0.48061 0.18844 0.0
H4 H 0.74256 0.46018 0.12424 0.0
H5 H 0.71666 0.40384 0.00363 0.0
H6 H 0.69013 0.41474 0.94454 0.0
H7 H 0.67635 0.4573 0.07927 0.0
H8 H 0.70346 0.44646 0.13807 0.0
H9 H 0.76513 0.39036 0.11582 0.0
H10 H 0.74822 0.44089 0.02025 0.0
O11 O 0.72473 0.39317 0.14076 0.0
H12 H 0.79796 0.39353 0.06752 0.0
H13 H 0.78065 0.44385 0.97113 0.0
C14 C 0.74194 0.43285 0.17376 0.0
C15 C 0.74902 0.42438 0.2234 0.0
C16 C 0.76261 0.43589 0.25964 0.0
C17 C 0.76951 0.45609 0.24654 0.0
C18 C 0.76105 0.46502 0.19933 0.0
C19 C 0.74747 0.45344 0.16305 0.0
C20 C 0.71227 0.42462 0.07463 0.0
C21 C 0.70797 0.41556 0.02045 0.0
C22 C 0.69265 0.42171 0.9869 0.0
C23 C 0.68103 0.43687 0.0072 0.0
C24 C 0.68518 0.44576 0.06211 0.0
C25 C 0.70063 0.43956 0.09579 0.0
C26 C 0.75406 0.41504 0.07052 0.0
C27 C 0.76822 0.40166 0.08302 0.0
C28 C 0.78699 0.40353 0.05554 0.0
C29 C 0.79193 0.41902 0.01581 0.0
C30 C 0.77738 0.43191 0.00203 0.0
C31 C 0.7587 0.43004 0.02949 0.0
P32 P 0.98232 0.72834 0.16737 0.0
H33 H 0.976 0.73728 0.28946 0.0
H34 H 0.95875 0.7637 0.33508 0.0
H35 H 0.92829 0.77205 0.17503 0.0
H36 H 0.94693 0.74658 0.12857 0.0
H37 H 0.00491 0.69653 0.12403 0.0
H38 H 0.99724 0.66811 0.05663 0.0
H39 H 0.93613 0.68286 0.04433 0.0
H40 H 0.94389 0.7113 0.11269 0.0
H41 H 0.00655 0.76602 0.19641 0.0
H42 H 0.98139 0.73583 0.04269 0.0
O43 O 0.99945 0.72258 0.21443 0.0
H44 H 0.01635 0.79665 0.14155 0.0
H45 H 0.99125 0.76634 0.98767 0.0
C46 C 0.96274 0.73979 0.20555 0.0
C47 C 0.96504 0.7442 0.26459 0.0
C48 C 0.95503 0.75943 0.29086 0.0
C49 C 0.94237 0.77048 0.25856 0.0
C50 C 0.93831 0.76429 0.20099 0.0
C51 C 0.94863 0.7493 0.17452 0.0
C52 C 0.97495 0.70593 0.12397 0.0
C53 C 0.98972 0.69342 0.10788 0.0
C54 C 0.98531 0.67714 0.06934 0.0
C55 C 0.96604 0.67317 0.04537 0.0
C56 C 0.95113 0.68561 0.06199 0.0
C57 C 0.95555 0.70185 0.10119 0.0
C58 C 0.9936 0.74854 0.12347 0.0
C59 C 0.00367 0.76579 0.15051 0.0
C60 C 0.00907 0.78333 0.11932 0.0
C61 C 0.00451 0.78387 0.06042 0.0
C62 C 0.99517 0.76626 0.03287 0.0
C63 C 0.98957 0.74878 0.0643 0.0
P64 P 0.77665 0.05319 0.14126 0.0
H65 H 0.77142 0.05353 0.26666 0.0
H66 H 0.74422 0.03863 0.3283 0.0
H67 H 0.71708 0.00561 0.18105 0.0
H68 H 0.7444 0.0203 0.11999 0.0
H69 H 0.81832 0.06685 0.1149 0.0
H70 H 0.8446 0.05094 0.06343 0.0
H71 H 0.8054 0.9949 0.04915 0.0
H72 H 0.77916 0.01082 0.10216 0.0
H73 H 0.75397 0.08805 0.12877 0.0
H74 H 0.76543 0.03505 0.02777 0.0
O75 O 0.78657 0.0739 0.17743 0.0
H76 H 0.72985 0.09636 0.05688 0.0
H77 H 0.74087 0.04264 0.95744 0.0
C78 C 0.75978 0.03828 0.18854 0.0
C79 C 0.75988 0.04272 0.24786 0.0
C80 C 0.74426 0.03426 0.28304 0.0
C81 C 0.72832 0.02118 0.2594 0.0
C82 C 0.72916 0.01554 0.20073 0.0
C83 C 0.74477 0.02403 0.16562 0.0
C84 C 0.79684 0.03998 0.11289 0.0
C85 C 0.81551 0.05098 0.10222 0.0
C86 C 0.83055 0.04187 0.07279 0.0
C87 C 0.82703 0.02168 0.05242 0.0
C88 C 0.80847 0.01049 0.0644 0.0
C89 C 0.79353 0.01955 0.09488 0.0
C90 C 0.76175 0.0611 0.08333 0.0
C91 C 0.75158 0.0784 0.09063 0.0
C92 C 0.73761 0.083 0.04975 0.0
C93 C 0.73329 0.07014 0.00131 0.0
C94 C 0.74402 0.05314 0.99346 0.0
C95 C 0.7581 0.0487 0.03402 0.0
P96 P 0.52658 0.76294 0.17549 0.0
H97 H 0.53303 0.75999 0.29934 0.0
H98 H 0.55272 0.73705 0.34859 0.0
H99 H 0.58575 0.72774 0.19124 0.0
H100 H 0.56564 0.75059 0.14187 0.0
H101 H 0.52401 0.80655 0.18071 0.0
H102 H 0.53015 0.83315 0.10956 0.0
H103 H 0.55138 0.78976 0.9883 0.0
H104 H 0.54549 0.76319 0.06022 0.0
H105 H 0.52386 0.72097 0.2132 0.0
H106 H 0.50623 0.75232 0.06379 0.0
O107 O 0.50885 0.77037 0.21964 0.0
H108 H 0.51596 0.68857 0.16309 0.0
H109 H 0.4981 0.71953 0.01333 0.0
C110 C 0.54769 0.75684 0.21673 0.0
C111 C 0.54522 0.75393 0.27609 0.0
C112 C 0.55654 0.74068 0.30432 0.0
C113 C 0.57045 0.73011 0.2734 0.0
C114 C 0.57485 0.73534 0.21592 0.0
C115 C 0.56354 0.74865 0.18778 0.0
C116 C 0.53372 0.78278 0.12512 0.0
C117 C 0.53018 0.80277 0.13906 0.0
C118 C 0.53381 0.818 0.09847 0.0
C119 C 0.54101 0.81346 0.04316 0.0
C120 C 0.54553 0.7936 0.03033 0.0
C121 C 0.54217 0.77843 0.07136 0.0
C122 C 0.51678 0.73922 0.14112 0.0
C123 C 0.51833 0.72098 0.16955 0.0
C124 C 0.51374 0.70238 0.14098 0.0
C125 C 0.50695 0.70161 0.08391 0.0
C126 C 0.50357 0.71977 0.05717 0.0
C127 C 0.50838 0.7385 0.08578 0.0
P128 P 0.26527 0.48012 0.00037 0.0
H129 H 0.25867 0.46898 0.87884 0.0
H130 H 0.23691 0.4833 0.81108 0.0
H131 H 0.23776 0.53746 0.91858 0.0
H132 H 0.25947 0.52287 0.98682 0.0
H133 H 0.28535 0.45761 0.08226 0.0
H134 H 0.31575 0.46498 0.13886 0.0
H135 H 0.32696 0.52361 0.05989 0.0
H136 H 0.29603 0.51607 0.0032 0.0
H137 H 0.22299 0.46606 0.99218 0.0
H138 H 0.26149 0.50433 0.10738 0.0
O139 O 0.2635 0.45555 0.98121 0.0
H140 H 0.19342 0.47702 0.04115 0.0
H141 H 0.2319 0.51515 0.15698 0.0
C142 C 0.26052 0.49472 0.93839 0.0
C143 C 0.25509 0.48437 0.88655 0.0
C144 C 0.24253 0.4926 0.84766 0.0
C145 C 0.23515 0.5113 0.86024 0.0
C146 C 0.24288 0.52283 0.90828 0.0
C147 C 0.25557 0.51462 0.94696 0.0
C148 C 0.28868 0.4861 0.03773 0.0
C149 C 0.29447 0.47196 0.07643 0.0
C150 C 0.31193 0.47618 0.1087 0.0
C151 C 0.32398 0.49477 0.1033 0.0
C152 C 0.318 0.50914 0.06493 0.0
C153 C 0.30042 0.50482 0.03229 0.0
C154 C 0.24441 0.48401 0.04693 0.0
C155 C 0.22507 0.47631 0.0292 0.0
C156 C 0.20821 0.48279 0.05664 0.0
C157 C 0.21043 0.49703 0.10249 0.0
C158 C 0.22982 0.50406 0.12195 0.0
C159 C 0.24672 0.49776 0.09389 0.0
P160 P 0.10788 0.2689 0.04033 0.0
H161 H 0.12365 0.26104 0.92471 0.0
H162 H 0.11186 0.2357 0.85136 0.0
H163 H 0.0557 0.22386 0.94403 0.0
H164 H 0.06727 0.24974 0.01557 0.0
H165 H 0.12764 0.30204 0.10858 0.0
H166 H 0.11573 0.33145 0.15701 0.0
H167 H 0.05743 0.31677 0.07898 0.0
H168 H 0.06977 0.28751 0.02888 0.0
H169 H 0.12624 0.23258 0.06943 0.0
H170 H 0.07579 0.2632 0.12716 0.0
O171 O 0.13276 0.27225 0.03101 0.0
H172 H 0.11425 0.20331 0.12721 0.0
H173 H 0.0633 0.23389 0.18282 0.0
C174 C 0.09644 0.25718 0.97606 0.0
C175 C 0.1085 0.25357 0.92808 0.0
C176 C 0.10183 0.23883 0.88648 0.0
C177 C 0.08304 0.22726 0.89252 0.0
C178 C 0.07024 0.2324 0.93768 0.0
C179 C 0.07686 0.2473 0.97887 0.0
C180 C 0.09969 0.29269 0.06463 0.0
C181 C 0.11245 0.30542 0.10056 0.0
C182 C 0.10553 0.32212 0.12884 0.0
C183 C 0.08553 0.3263 0.12259 0.0
C184 C 0.07295 0.31403 0.08446 0.0
C185 C 0.07998 0.29729 0.05579 0.0
C186 C 0.10214 0.25022 0.09473 0.0
C187 C 0.11289 0.23324 0.09579 0.0
C188 C 0.10583 0.21639 0.12817 0.0
C189 C 0.08767 0.21612 0.15925 0.0
C190 C 0.07748 0.23362 0.16018 0.0
C191 C 0.08464 0.25049 0.1282 0.0
P192 P 0.25065 0.04403 0.02657 0.0
H193 H 0.25494 0.06022 0.91008 0.0
H194 H 0.27702 0.05227 0.83049 0.0
H195 H 0.29169 0.99932 0.92025 0.0
H196 H 0.26878 0.00682 0.99775 0.0
H197 H 0.21222 0.06084 0.04037 0.0
H198 H 0.18039 0.04713 0.08328 0.0
H199 H 0.20237 0.98842 0.09428 0.0
H200 H 0.23424 0.00219 0.0501 0.0
H201 H 0.29422 0.04998 0.03274 0.0
H202 H 0.24527 0.02897 0.14595 0.0
O203 O 0.25049 0.06912 0.02207 0.0
H204 H 0.3182 0.03978 0.10201 0.0
H205 H 0.26922 0.01876 0.21549 0.0
C206 C 0.26064 0.03439 0.9604 0.0
C207 C 0.26237 0.04651 0.9116 0.0
C208 C 0.2752 0.04204 0.86635 0.0
C209 C 0.28673 0.02552 0.86965 0.0
C210 C 0.28316 0.01218 0.91591 0.0
C211 C 0.27006 0.0165 0.96061 0.0
C212 C 0.22567 0.03257 0.04268 0.0
C213 C 0.21004 0.04487 0.05032 0.0
C214 C 0.19179 0.03701 0.07474 0.0
C215 C 0.18902 0.01678 0.09261 0.0
C216 C 0.20421 0.00411 0.08122 0.0
C217 C 0.22234 0.01192 0.05573 0.0
C218 C 0.26792 0.03953 0.08299 0.0
C219 C 0.28862 0.04332 0.07272 0.0
C220 C 0.30233 0.03758 0.11255 0.0
C221 C 0.29558 0.02815 0.16386 0.0
C222 C 0.27484 0.02553 0.17569 0.0
C223 C 0.26112 0.03135 0.13577 0.0
P224 P 0.41207 0.23538 0.01684 0.0
H225 H 0.40325 0.2363 0.89348 0.0
H226 H 0.41829 0.2586 0.81897 0.0
H227 H 0.46744 0.27878 0.93323 0.0
H228 H 0.45253 0.25614 0.00688 0.0
H229 H 0.39605 0.212 0.11336 0.0
H230 H 0.40976 0.18775 0.17553 0.0
H231 H 0.46496 0.19358 0.07647 0.0
H232 H 0.45083 0.21744 0.01332 0.0
H233 H 0.39153 0.27095 0.99734 0.0
H234 H 0.4307 0.25083 0.12594 0.0
O235 O 0.38904 0.22616 0.99574 0.0
H236 H 0.39641 0.3054 0.039 0.0
H237 H 0.43534 0.28503 0.16804 0.0
C238 C 0.42682 0.24445 0.95567 0.0
C239 C 0.4177 0.24484 0.90164 0.0
C240 C 0.4262 0.25782 0.85926 0.0
C241 C 0.44387 0.27078 0.87051 0.0
C242 C 0.45391 0.26894 0.92284 0.0
C243 C 0.44543 0.25589 0.96506 0.0
C244 C 0.42238 0.21649 0.05877 0.0
C245 C 0.41104 0.2079 0.10472 0.0
C246 C 0.41899 0.1942 0.14059 0.0
C247 C 0.43856 0.18886 0.13139 0.0
C248 C 0.44981 0.19727 0.08456 0.0
C249 C 0.44178 0.21102 0.04855 0.0
C250 C 0.41045 0.25823 0.05907 0.0
C251 C 0.40053 0.27375 0.03588 0.0
C252 C 0.40348 0.29344 0.05929 0.0
C253 C 0.4163 0.29785 0.10657 0.0
C254 C 0.42519 0.28199 0.13201 0.0
C255 C 0.42246 0.26237 0.10805 0.0
Dy256 Dy 0.01079 0.98502 0.61677 0.0
C257 C 0.99629 0.03864 0.43445 0.0
C258 C 0.01462 0.95775 0.70129 0.0
Dy259 Dy 0.99672 0.01129 0.52044 0.0
O260 O 0.02348 0.9578 0.65142 0.0
O261 O 0.0037 0.9728 0.70553 0.0
O262 O 0.04254 0.99114 0.58499 0.0
O263 O 0.01866 0.98951 0.52625 0.0
C264 C 0.03742 0.99327 0.53174 0.0
C265 C 0.9702 0.00309 0.60553 0.0
O266 O 0.98507 0.98109 0.48366 0.0
O267 O 0.98765 0.96376 0.56894 0.0
O268 O 0.98762 0.04014 0.48437 0.0
O269 O 0.00463 0.02186 0.43094 0.0
O270 O 0.96484 0.00582 0.55268 0.0
O271 O 0.98896 0.00677 0.61048 0.0
O272 O 0.02088 0.0156 0.65527 0.0
O273 O 0.01965 0.0324 0.56887 0.0
C274 C 0.98136 0.96459 0.51492 0.0
C275 C 0.02485 0.03204 0.62387 0.0
Dy276 Dy 0.4924 0.98931 0.54232 0.0
C277 C 0.55779 0.03787 0.65719 0.0
C278 C 0.45692 0.97323 0.49452 0.0
Dy279 Dy 0.52363 0.01912 0.608 0.0
O280 O 0.47444 0.97325 0.46994 0.0
O281 O 0.45897 0.98142 0.5457 0.0
O282 O 0.51746 0.97372 0.5018 0.0
O283 O 0.52172 0.00496 0.52292 0.0
C284 C 0.53027 0.98996 0.50514 0.0
C285 C 0.48559 0.01919 0.643 0.0
O286 O 0.5172 0.03927 0.53605 0.0
O287 O 0.48768 0.02 0.5078 0.0
O288 O 0.53963 0.04022 0.67406 0.0
O289 O 0.55729 0.02534 0.61328 0.0
O290 O 0.49857 0.03527 0.64531 0.0
O291 O 0.49403 0.00386 0.6271 0.0
O292 O 0.49993 0.96816 0.61018 0.0
O293 O 0.52761 0.98883 0.64662 0.0
C294 C 0.50023 0.03694 0.50631 0.0
C295 C 0.51593 0.97126 0.64395 0.0
Dy296 Dy 0.50935 0.51021 0.607 0.0
C297 C 0.50965 0.47248 0.38197 0.0
C298 C 0.50627 0.52722 0.71443 0.0
Dy299 Dy 0.51598 0.48767 0.49132 0.0
O300 O 0.49126 0.52018 0.68215 0.0
O301 O 0.52309 0.52448 0.68856 0.0
O302 O 0.48638 0.52655 0.56133 0.0
O303 O 0.49019 0.49648 0.53822 0.0
C304 C 0.481 0.51141 0.52643 0.0
C305 C 0.54428 0.48459 0.56962 0.0
O306 O 0.52752 0.51987 0.46928 0.0
O307 O 0.52818 0.53475 0.56136 0.0
O308 O 0.523 0.46704 0.41718 0.0
O309 O 0.50042 0.48676 0.40592 0.0
O310 O 0.54 0.47107 0.52876 0.0
O311 O 0.53519 0.50004 0.5618 0.0
O312 O 0.5043 0.47751 0.63245 0.0
O313 O 0.49789 0.4635 0.54094 0.0
C314 C 0.53202 0.5356 0.50525 0.0
C315 C 0.49818 0.46188 0.5978 0.0
Dy316 Dy 0.99295 0.48953 0.60755 0.0
C317 C 0.03284 0.52293 0.40606 0.0
C318 C 0.9708 0.47625 0.70111 0.0
Dy319 Dy 0.01039 0.51271 0.50155 0.0
O320 O 0.97989 0.46477 0.6658 0.0
O321 O 0.97404 0.49505 0.68578 0.0
O322 O 0.00944 0.46306 0.58073 0.0
O323 O 0.99871 0.48152 0.51789 0.0
C324 C 0.00889 0.46693 0.52614 0.0
C325 C 0.9946 0.5354 0.58287 0.0
O326 O 0.97903 0.50582 0.4699 0.0
O327 O 0.96521 0.49434 0.5572 0.0
O328 O 0.03063 0.53503 0.44996 0.0
O329 O 0.02245 0.50553 0.41401 0.0
O330 O 0.99456 0.53972 0.52837 0.0
O331 O 0.0046 0.52065 0.59087 0.0
O332 O 0.02363 0.49962 0.64124 0.0
O333 O 0.03782 0.50622 0.55104 0.0
C334 C 0.96335 0.49982 0.5029 0.0
C335 C 0.03954 0.50349 0.60725 0.0
C336 C 0.17465 0.00127 0.18288 0.0
C337 C 0.17153 0.00991 0.12947 0.0
C338 C 0.1588 0.99751 0.22198 0.0
C339 C 0.10845 0.01365 0.25607 0.0
H340 H 0.10784 0.97122 0.36868 0.0
C341 C 0.04495 0.99529 0.42602 0.0
C342 C 0.05179 0.99502 0.48306 0.0
C343 C 0.05861 0.99638 0.37997 0.0
C344 C 0.10787 0.98314 0.33746 0.0
H345 H 0.14924 0.02045 0.07371 0.0
H346 H 0.12125 0.01303 0.14083 0.0
H347 H 0.13263 0.97284 0.29094 0.0
H348 H 0.0782 0.99547 0.53673 0.0
H349 H 0.10202 0.99678 0.45606 0.0
H350 H 0.08327 0.02354 0.30245 0.0
C351 C 0.13608 0.00978 0.15354 0.0
C352 C 0.12213 0.98417 0.29303 0.0
C353 C 0.15205 0.01386 0.11478 0.0
C354 C 0.07251 0.99571 0.49322 0.0
C355 C 0.08612 0.99638 0.44715 0.0
C356 C 0.09394 0.01236 0.29993 0.0
C357 C 0.13933 0.00201 0.20831 0.0
C358 C 0.12289 0.99968 0.25231 0.0
C359 C 0.07929 0.99672 0.39016 0.0
C360 C 0.09378 0.99732 0.34157 0.0
H361 H 0.1896 0.99841 0.19575 0.0
H362 H 0.1621 0.9919 0.26392 0.0
H363 H 0.10869 0.02603 0.22635 0.0
H364 H 0.02906 0.99435 0.41688 0.0
H365 H 0.05299 0.99649 0.33634 0.0
C366 C 0.44341 0.17596 0.23065 0.0
C367 C 0.44709 0.17468 0.171 0.0
C368 C 0.45045 0.16207 0.26783 0.0
C369 C 0.487 0.12447 0.28111 0.0
H370 H 0.44942 0.10151 0.39632 0.0
C371 C 0.50888 0.07061 0.45905 0.0
C372 C 0.49507 0.05348 0.46905 0.0
C373 C 0.50384 0.086 0.4232 0.0
C374 C 0.46008 0.10773 0.36428 0.0
H375 H 0.46145 0.15797 0.10391 0.0
H376 H 0.47385 0.13371 0.16905 0.0
H377 H 0.43944 0.12721 0.33223 0.0
H378 H 0.4651 0.03919 0.44919 0.0
H379 H 0.45643 0.06592 0.38707 0.0
H380 H 0.50752 0.10465 0.3128 0.0
C381 C 0.4656 0.1456 0.18697 0.0
C382 C 0.45443 0.1226 0.32792 0.0
C383 C 0.4585 0.1595 0.14965 0.0
C384 C 0.47613 0.05214 0.44257 0.0
C385 C 0.47108 0.06754 0.40715 0.0
C386 C 0.49271 0.10963 0.3178 0.0
C387 C 0.46141 0.14657 0.24639 0.0
C388 C 0.46777 0.13109 0.28573 0.0
C389 C 0.48485 0.08465 0.39706 0.0
C390 C 0.47923 0.10099 0.35949 0.0
H391 H 0.43507 0.18775 0.24874 0.0
H392 H 0.44729 0.16347 0.31352 0.0
H393 H 0.49767 0.13083 0.24932 0.0
H394 H 0.5236 0.07211 0.47868 0.0
H395 H 0.51471 0.09908 0.41656 0.0
C396 C 0.34695 0.51776 0.16789 0.0
C397 C 0.34238 0.49894 0.13905 0.0
C398 C 0.36289 0.52058 0.20712 0.0
C399 C 0.39063 0.49082 0.30354 0.0
H400 H 0.42971 0.53837 0.31393 0.0
C401 C 0.45887 0.49285 0.45232 0.0
C402 C 0.46546 0.5111 0.48152 0.0
C403 C 0.44429 0.49235 0.40952 0.0
C404 C 0.41874 0.52511 0.31211 0.0
H405 H 0.3519 0.46891 0.12548 0.0
H406 H 0.37944 0.47378 0.19398 0.0
H407 H 0.40377 0.53616 0.23956 0.0
H408 H 0.46178 0.54311 0.48965 0.0
H409 H 0.43576 0.5422 0.41585 0.0
H410 H 0.40512 0.47983 0.37629 0.0
C411 C 0.37049 0.4862 0.18723 0.0
C412 C 0.40395 0.52384 0.26939 0.0
C413 C 0.35471 0.48342 0.14801 0.0
C414 C 0.45702 0.52885 0.46756 0.0
C415 C 0.44224 0.52833 0.42497 0.0
C416 C 0.40524 0.49215 0.34637 0.0
C417 C 0.37446 0.50461 0.21829 0.0
C418 C 0.3899 0.50655 0.26428 0.0
C419 C 0.43565 0.51004 0.39548 0.0
C420 C 0.41966 0.50918 0.35088 0.0
H421 H 0.33768 0.52998 0.16216 0.0
H422 H 0.36559 0.53493 0.23054 0.0
H423 H 0.37974 0.4775 0.30148 0.0
H424 H 0.465 0.47888 0.4625 0.0
H425 H 0.43991 0.47806 0.38714 0.0
C426 C 0.08309 0.34467 0.21742 0.0
C427 C 0.07766 0.34249 0.15903 0.0
C428 C 0.07602 0.35979 0.25234 0.0
C429 C 0.03582 0.39353 0.26597 0.0
H430 H 0.07182 0.42105 0.37981 0.0
C431 C 0.01214 0.45664 0.42218 0.0
C432 C 0.01746 0.45471 0.48008 0.0
C433 C 0.01995 0.44458 0.379 0.0
C434 C 0.06155 0.41344 0.34843 0.0
H435 H 0.0603 0.35443 0.09175 0.0
H436 H 0.0479 0.38105 0.15307 0.0
H437 H 0.08447 0.39712 0.31103 0.0
H438 H 0.03514 0.43885 0.53833 0.0
H439 H 0.04874 0.41779 0.46324 0.0
H440 H 0.01286 0.40982 0.304 0.0
C441 C 0.0576 0.3709 0.17173 0.0
C442 C 0.06878 0.3997 0.30903 0.0
C443 C 0.0647 0.35567 0.13661 0.0
C444 C 0.03081 0.44066 0.49403 0.0
C445 C 0.0387 0.42871 0.45094 0.0
C446 C 0.02859 0.40737 0.30536 0.0
C447 C 0.06331 0.3732 0.22998 0.0
C448 C 0.05592 0.38924 0.26808 0.0
C449 C 0.0333 0.43046 0.39295 0.0
C450 C 0.04129 0.41717 0.34776 0.0
H451 H 0.09262 0.33445 0.23655 0.0
H452 H 0.08031 0.36075 0.29731 0.0
H453 H 0.02547 0.38564 0.23531 0.0
H454 H 0.00173 0.46726 0.41034 0.0
H455 H 0.0156 0.44636 0.3347 0.0
C456 C 0.83638 0.00447 0.9606 0.0
C457 C 0.8421 0.01321 0.01447 0.0
C458 C 0.85092 0.99946 0.92074 0.0
C459 C 0.9043 0.01428 0.88566 0.0
H460 H 0.89557 0.97097 0.77047 0.0
C461 C 0.9635 0.00188 0.71135 0.0
C462 C 0.95621 1.00004 0.6547 0.0
C463 C 0.95021 1.00044 0.75812 0.0
C464 C 0.89817 0.98314 0.80237 0.0
H465 H 0.86732 0.02222 0.07063 0.0
H466 H 0.89272 0.01287 0.00194 0.0
H467 H 0.87132 0.97319 0.84909 0.0
H468 H 0.92947 0.99449 0.6023 0.0
H469 H 0.90614 0.99199 0.6842 0.0
H470 H 0.93103 0.0243 0.83883 0.0
C471 C 0.87706 0.01048 0.98955 0.0
C472 C 0.88428 0.98446 0.84734 0.0
C473 C 0.86254 0.01571 0.02909 0.0
C474 C 0.93545 0.99603 0.6456 0.0
C475 C 0.92214 0.99446 0.69245 0.0
C476 C 0.91823 0.01286 0.84111 0.0
C477 C 0.87149 0.00291 0.93415 0.0
C478 C 0.88704 1.00022 0.88915 0.0
C479 C 0.92937 0.99701 0.74916 0.0
C480 C 0.9152 0.99744 0.79857 0.0
H481 H 0.82073 0.00258 0.948 0.0
H482 H 0.84603 0.99389 0.87839 0.0
H483 H 0.90675 0.0269 0.91617 0.0
H484 H 0.97946 0.00495 0.71959 0.0
H485 H 0.95622 0.00225 0.80134 0.0
C486 C 0.53384 0.82458 0.94373 0.0
C487 C 0.54243 0.82911 0.99815 0.0
C488 C 0.53313 0.8398 0.9033 0.0
C489 C 0.53525 0.89587 0.89509 0.0
H490 H 0.53752 0.88487 0.73046 0.0
C491 C 0.53441 0.95881 0.72732 0.0
C492 C 0.52069 0.95473 0.68184 0.0
C493 C 0.53847 0.94343 0.76432 0.0
C494 C 0.53677 0.88811 0.77634 0.0
H495 H 0.55791 0.85285 0.05193 0.0
H496 H 0.55731 0.87935 0.98081 0.0
H497 H 0.5431 0.8582 0.79754 0.0
H498 H 0.50086 0.93113 0.63885 0.0
H499 H 0.50815 0.90421 0.70327 0.0
H500 H 0.52914 0.92586 0.87365 0.0
C501 C 0.55052 0.86419 0.96983 0.0
C502 C 0.53991 0.87283 0.81485 0.0
C503 C 0.551 0.849 0.01051 0.0
C504 C 0.51143 0.93481 0.67357 0.0
C505 C 0.51569 0.91936 0.7102 0.0
C506 C 0.53235 0.91119 0.8566 0.0
C507 C 0.54119 0.8599 0.9161 0.0
C508 C 0.53901 0.87644 0.8748 0.0
C509 C 0.52911 0.92356 0.75628 0.0
C510 C 0.53291 0.90743 0.79685 0.0
H511 H 0.52688 0.80942 0.93331 0.0
H512 H 0.52556 0.83593 0.86287 0.0
H513 H 0.534 0.89916 0.94081 0.0
H514 H 0.54182 0.97397 0.73501 0.0
H515 H 0.549 0.94706 0.79919 0.0
C516 C 0.6529 0.42885 0.93692 0.0
C517 C 0.6649 0.44334 0.97029 0.0
C518 C 0.6393 0.43487 0.89725 0.0
C519 C 0.61019 0.47574 0.85431 0.0
H520 H 0.61445 0.45109 0.70218 0.0
C521 C 0.56469 0.49772 0.65571 0.0
C522 C 0.55758 0.48162 0.61834 0.0
C523 C 0.57773 0.49447 0.70079 0.0
C524 C 0.61285 0.45795 0.74452 0.0
H525 H 0.6712 0.47555 0.99006 0.0
H526 H 0.64703 0.48606 0.92097 0.0
H527 H 0.63652 0.44262 0.77851 0.0
H528 H 0.55781 0.44945 0.59983 0.0
H529 H 0.57999 0.44366 0.67854 0.0
H530 H 0.58613 0.49075 0.82034 0.0
C531 C 0.64835 0.47003 0.92562 0.0
C532 C 0.62556 0.45313 0.78822 0.0
C533 C 0.66213 0.46399 0.96522 0.0
C534 C 0.5633 0.46221 0.62747 0.0
C535 C 0.57613 0.45893 0.67248 0.0
C536 C 0.59726 0.48046 0.81049 0.0
C537 C 0.6372 0.45552 0.89022 0.0
C538 C 0.62419 0.46171 0.84377 0.0
C539 C 0.58379 0.47504 0.70923 0.0
C540 C 0.59824 0.47133 0.75529 0.0
H541 H 0.65425 0.41279 0.94078 0.0
H542 H 0.63059 0.42333 0.87137 0.0
H543 H 0.60884 0.48257 0.89681 0.0
H544 H 0.56048 0.51285 0.64946 0.0
H545 H 0.58342 0.50723 0.72812 0.0
C546 C 0.96969 0.63804 0.00727 0.0
C547 C 0.96215 0.65685 0.0007 0.0
C548 C 0.96847 0.62364 0.96219 0.0
C549 C 0.96663 0.62104 0.80469 0.0
H550 H 0.959 0.56292 0.82746 0.0
C551 C 0.97562 0.56394 0.61708 0.0
C552 C 0.98672 0.5478 0.62966 0.0
C553 C 0.96899 0.57625 0.6615 0.0
C554 C 0.96125 0.57911 0.82043 0.0
H555 H 0.94664 0.67495 0.94258 0.0
H556 H 0.94434 0.64967 0.86385 0.0
H557 H 0.95324 0.58614 0.90758 0.0
H558 H 0.99937 0.53163 0.69832 0.0
H559 H 0.98803 0.55317 0.77569 0.0
H560 H 0.97527 0.61412 0.71821 0.0
C561 C 0.95136 0.64617 0.90377 0.0
C562 C 0.95791 0.5924 0.86631 0.0
C563 C 0.95249 0.66055 0.94904 0.0
C564 C 0.99072 0.54391 0.6874 0.0
C565 C 0.98412 0.5562 0.73177 0.0
C566 C 0.97002 0.60776 0.75888 0.0
C567 C 0.95975 0.62774 0.90939 0.0
C568 C 0.96093 0.61353 0.85925 0.0
C569 C 0.97336 0.57267 0.71937 0.0
C570 C 0.96775 0.58664 0.76647 0.0
H571 H 0.97703 0.63467 0.04681 0.0
H572 H 0.97522 0.60968 0.96787 0.0
H573 H 0.96939 0.63723 0.79798 0.0
H574 H 0.97223 0.56718 0.57291 0.0
H575 H 0.96052 0.58865 0.65047 0.0
C576 C 0.07935 0.17825 0.15824 0.0
C577 C 0.07844 0.19719 0.18629 0.0
C578 C 0.06934 0.1606 0.18102 0.0
C579 C 0.02683 0.14288 0.27339 0.0
H580 H 0.05384 0.09432 0.28669 0.0
C581 C 0.99583 0.07503 0.41069 0.0
C582 C 0.00046 0.05554 0.3945 0.0
C583 C 0.00335 0.09185 0.37894 0.0
C584 C 0.04589 0.10758 0.28219 0.0
H585 H 0.06674 0.21223 0.2614 0.0
H586 H 0.04899 0.18138 0.30057 0.0
H587 H 0.07172 0.12464 0.24567 0.0
H588 H 0.01529 0.03803 0.3304 0.0
H589 H 0.02785 0.06731 0.27357 0.0
H590 H 0.00094 0.12586 0.3095 0.0
C591 C 0.05734 0.18032 0.26065 0.0
C592 C 0.05622 0.125 0.25903 0.0
C593 C 0.06752 0.19797 0.2382 0.0
C594 C 0.01157 0.05294 0.34386 0.0
C595 C 0.01893 0.06974 0.31174 0.0
C596 C 0.01641 0.12539 0.29603 0.0
C597 C 0.05804 0.16151 0.23202 0.0
C598 C 0.04687 0.14288 0.25505 0.0
C599 C 0.01552 0.08948 0.33005 0.0
C600 C 0.02589 0.10758 0.30134 0.0
H601 H 0.08724 0.17709 0.11759 0.0
H602 H 0.06998 0.14631 0.15783 0.0
H603 H 0.01917 0.15639 0.26993 0.0
H604 H 0.98737 0.07745 0.44977 0.0
H605 H 0.00054 0.1068 0.39471 0.0
C606 C 0.306 0.00079 0.22662 0.0
C607 C 0.31013 0.02019 0.20314 0.0
C608 C 0.32046 0.99252 0.25931 0.0
C609 C 0.37519 0.997 0.28092 0.0
H610 H 0.36214 0.96761 0.42127 0.0
C611 C 0.42005 0.97522 0.49105 0.0
C612 C 0.43762 0.9699 0.46393 0.0
C613 C 0.40278 0.97684 0.45884 0.0
C614 C 0.36599 0.97573 0.38205 0.0
H615 H 0.33225 0.04652 0.19791 0.0
H616 H 0.3574 0.03216 0.25508 0.0
H617 H 0.33544 0.98108 0.36739 0.0
H618 H 0.45048 0.96029 0.38327 0.0
H619 H 0.42016 0.96266 0.32707 0.0
H620 H 0.40574 0.99244 0.29635 0.0
C621 C 0.34317 0.02315 0.24719 0.0
C622 C 0.3507 0.98333 0.35103 0.0
C623 C 0.32875 0.0314 0.21457 0.0
C624 C 0.43714 0.96454 0.40511 0.0
C625 C 0.41984 0.96607 0.37291 0.0
C626 C 0.39042 0.98941 0.31178 0.0
C627 C 0.33933 0.00348 0.26908 0.0
C628 C 0.35521 0.99436 0.30068 0.0
C629 C 0.40277 0.97311 0.39895 0.0
C630 C 0.38608 0.97893 0.36315 0.0
H631 H 0.29188 0.99168 0.218 0.0
H632 H 0.31709 0.97729 0.27527 0.0
H633 H 0.37911 0.00512 0.24174 0.0
H634 H 0.42002 0.97944 0.53643 0.0
H635 H 0.38995 0.98239 0.48028 0.0
C636 C 0.42902 0.33371 0.08449 0.0
C637 C 0.42225 0.31914 0.12534 0.0
C638 C 0.43706 0.35316 0.10222 0.0
C639 C 0.46756 0.38532 0.15867 0.0
H640 H 0.44355 0.41591 0.28032 0.0
C641 C 0.51118 0.44323 0.31321 0.0
C642 C 0.5019 0.46028 0.33154 0.0
C643 C 0.50128 0.42887 0.27529 0.0
C644 C 0.45031 0.40772 0.24567 0.0
H645 H 0.41781 0.31366 0.21642 0.0
H646 H 0.43162 0.34784 0.24753 0.0
H647 H 0.42502 0.38499 0.24065 0.0
H648 H 0.47582 0.47663 0.32133 0.0
H649 H 0.45848 0.45145 0.25545 0.0
H650 H 0.4932 0.40762 0.16537 0.0
C651 C 0.43073 0.34417 0.20183 0.0
C652 C 0.43978 0.38995 0.22341 0.0
C653 C 0.42293 0.32462 0.18413 0.0
C654 C 0.4833 0.46358 0.30795 0.0
C655 C 0.47331 0.44913 0.27056 0.0
C656 C 0.47821 0.40297 0.18147 0.0
C657 C 0.43824 0.35848 0.16108 0.0
C658 C 0.44844 0.3784 0.1804 0.0
C659 C 0.48189 0.43128 0.2556 0.0
C660 C 0.4698 0.41416 0.22582 0.0
H661 H 0.42888 0.32979 0.0389 0.0
H662 H 0.44267 0.36395 0.06999 0.0
H663 H 0.47464 0.37661 0.12577 0.0
H664 H 0.5255 0.44033 0.33088 0.0
H665 H 0.50821 0.41521 0.26468 0.0
C666 C 0.18976 0.50597 0.18788 0.0
C667 C 0.19253 0.50516 0.12794 0.0
C668 C 0.17231 0.5127 0.21143 0.0
C669 C 0.13753 0.5347 0.25388 0.0
H670 H 0.08775 0.51556 0.17632 0.0
C671 C 0.06136 0.54447 0.36059 0.0
C672 C 0.04804 0.52659 0.36028 0.0
C673 C 0.07803 0.5462 0.32364 0.0
C674 C 0.10151 0.52107 0.19849 0.0
H675 H 0.17995 0.51183 0.04566 0.0
H676 H 0.1497 0.52401 0.08665 0.0
H677 H 0.11962 0.51006 0.13113 0.0
H678 H 0.04089 0.49705 0.31909 0.0
H679 H 0.06997 0.49986 0.2555 0.0
H680 H 0.11935 0.54445 0.32303 0.0
C681 C 0.16063 0.51888 0.11555 0.0
C682 C 0.11984 0.51813 0.17225 0.0
C683 C 0.17795 0.51193 0.09204 0.0
C684 C 0.05092 0.51103 0.32011 0.0
C685 C 0.06757 0.51271 0.2834 0.0
C686 C 0.11919 0.53748 0.28035 0.0
C687 C 0.15741 0.51902 0.1755 0.0
C688 C 0.13808 0.52443 0.20029 0.0
C689 C 0.08167 0.53006 0.2859 0.0
C690 C 0.10095 0.53019 0.25365 0.0
H691 H 0.20077 0.50077 0.21642 0.0
H692 H 0.17022 0.51228 0.25772 0.0
H693 H 0.15129 0.54011 0.27618 0.0
H694 H 0.05941 0.55672 0.39116 0.0
H695 H 0.08843 0.5599 0.32597 0.0
C696 C 0.01664 0.80349 0.97337 0.0
C697 C 0.0081 0.80313 0.02887 0.0
C698 C 0.01899 0.82152 0.94267 0.0
C699 C 0.99747 0.8695 0.92919 0.0
H700 H 0.04657 0.88656 0.84577 0.0
C701 C 0.00609 0.94308 0.79804 0.0
C702 C 0.01577 0.94194 0.7444 0.0
C703 C 0.00647 0.9274 0.83731 0.0
C704 C 0.03267 0.88192 0.86834 0.0
H705 H 0.99528 0.82125 0.09571 0.0
H706 H 0.99931 0.85272 0.04189 0.0
H707 H 0.04475 0.85645 0.90499 0.0
H708 H 0.03354 0.92375 0.68969 0.0
H709 H 0.03378 0.89624 0.7571 0.0
H710 H 0.98508 0.89444 0.89121 0.0
C711 C 0.00425 0.8391 0.02231 0.0
C712 C 0.03168 0.86471 0.90236 0.0
C713 C 0.00212 0.82115 0.05326 0.0
C714 C 0.02604 0.92506 0.73094 0.0
C715 C 0.02629 0.90935 0.76984 0.0
C716 C 0.99837 0.88659 0.89469 0.0
C717 C 0.0126 0.83943 0.9666 0.0
C718 C 0.01402 0.85823 0.93272 0.0
C719 C 0.01642 0.91023 0.82342 0.0
C720 C 0.01592 0.8929 0.86333 0.0
H721 H 0.02142 0.78982 0.95367 0.0
H722 H 0.02532 0.82131 0.89959 0.0
H723 H 0.98358 0.86471 0.95168 0.0
H724 H 0.99811 0.956 0.80944 0.0
H725 H 0.99895 0.92873 0.87848 0.0
C726 C 0.69856 0.07968 0.98397 0.0
C727 C 0.71652 0.07329 0.96186 0.0
C728 C 0.68189 0.08023 0.94849 0.0
C729 C 0.66489 0.07661 0.79545 0.0
H730 H 0.61453 0.05462 0.86476 0.0
C731 C 0.59516 0.04275 0.66575 0.0
C732 C 0.5762 0.04661 0.68682 0.0
C733 C 0.61251 0.04949 0.69679 0.0
C734 C 0.62839 0.06109 0.84494 0.0
H735 H 0.73133 0.06371 0.88396 0.0
H736 H 0.70203 0.06384 0.82269 0.0
H737 H 0.64449 0.06032 0.92366 0.0
H738 H 0.56044 0.06117 0.75534 0.0
H739 H 0.59075 0.07291 0.8097 0.0
H740 H 0.64869 0.07656 0.71604 0.0
C741 C 0.70088 0.0687 0.86734 0.0
C742 C 0.64561 0.06443 0.87877 0.0
C743 C 0.71764 0.06836 0.90272 0.0
C744 C 0.57489 0.05792 0.7383 0.0
C745 C 0.59221 0.06456 0.76949 0.0
C746 C 0.64764 0.07311 0.76143 0.0
C747 C 0.68264 0.07417 0.89012 0.0
C748 C 0.66413 0.07208 0.85444 0.0
C749 C 0.61117 0.06009 0.7496 0.0
C750 C 0.62925 0.06517 0.7858 0.0
H751 H 0.69701 0.08344 0.02932 0.0
H752 H 0.66822 0.08492 0.96727 0.0
H753 H 0.67882 0.08277 0.77545 0.0
H754 H 0.59655 0.03407 0.62607 0.0
H755 H 0.62689 0.04567 0.68063 0.0
C756 C 0.52059 0.66962 0.05207 0.0
C757 C 0.50484 0.68199 0.05163 0.0
C758 C 0.51905 0.65118 0.02143 0.0
C759 C 0.49071 0.62324 0.90246 0.0
H760 H 0.51695 0.57811 0.95854 0.0
C761 C 0.48558 0.54648 0.78091 0.0
C762 C 0.50439 0.5403 0.76591 0.0
C763 C 0.4841 0.56177 0.82261 0.0
C764 C 0.50954 0.5906 0.94252 0.0
H765 H 0.47502 0.68477 0.01953 0.0
H766 H 0.47194 0.65213 0.96719 0.0
H767 H 0.51661 0.60893 0.01809 0.0
H768 H 0.5362 0.54418 0.78511 0.0
H769 H 0.53356 0.57072 0.85918 0.0
H770 H 0.48349 0.6047 0.82719 0.0
C771 C 0.48573 0.65688 0.9901 0.0
C772 C 0.50943 0.60832 0.97634 0.0
C773 C 0.48742 0.67553 0.02018 0.0
C774 C 0.52153 0.54868 0.79599 0.0
C775 C 0.52001 0.56382 0.83833 0.0
C776 C 0.49055 0.60541 0.86914 0.0
C777 C 0.50159 0.6445 0.99013 0.0
C778 C 0.50031 0.62502 0.95631 0.0
C779 C 0.50137 0.57094 0.8506 0.0
C780 C 0.50021 0.58905 0.88848 0.0
H781 H 0.53433 0.67442 0.0753 0.0
H782 H 0.53179 0.6424 0.0214 0.0
H783 H 0.48385 0.63583 0.88502 0.0
H784 H 0.47212 0.54024 0.75839 0.0
H785 H 0.46954 0.56686 0.83177 0.0
C786 C 0.82295 0.40658 0.97174 0.0
C787 C 0.81255 0.42272 0.99164 0.0
C788 C 0.84228 0.41039 0.94826 0.0
C789 C 0.88583 0.44997 0.94006 0.0
H790 H 0.89675 0.42318 0.79477 0.0
C791 C 0.9461 0.48228 0.77891 0.0
C792 C 0.9566 0.4687 0.74648 0.0
C793 C 0.93081 0.475 0.81678 0.0
C794 C 0.89412 0.43053 0.83588 0.0
H795 H 0.81454 0.45541 0.00463 0.0
H796 H 0.84792 0.46205 0.96276 0.0
H797 H 0.8655 0.4132 0.84611 0.0
H798 H 0.96013 0.43695 0.72993 0.0
H799 H 0.93347 0.4242 0.79644 0.0
H800 H 0.91421 0.46772 0.92888 0.0
C801 C 0.84129 0.44645 0.96553 0.0
C802 C 0.87619 0.4248 0.8653 0.0
C803 C 0.82202 0.44266 0.98874 0.0
C804 C 0.95219 0.44775 0.75435 0.0
C805 C 0.93687 0.44045 0.79212 0.0
C806 C 0.90375 0.45572 0.9106 0.0
C807 C 0.85161 0.43039 0.94469 0.0
C808 C 0.87165 0.43478 0.91707 0.0
C809 C 0.92572 0.45399 0.82282 0.0
C810 C 0.9079 0.44635 0.85758 0.0
H811 H 0.81602 0.39106 0.9734 0.0
H812 H 0.84992 0.39768 0.93291 0.0
H813 H 0.88293 0.45769 0.98042 0.0
H814 H 0.94921 0.49852 0.77353 0.0
H815 H 0.92239 0.48584 0.83934 0.0
C816 C 0.05791 0.20213 0.84079 0.0
C817 C 0.07788 0.20845 0.85676 0.0
C818 C 0.05291 0.18324 0.81334 0.0
C819 C 0.07432 0.14211 0.73118 0.0
H820 H 0.02768 0.10847 0.78832 0.0
C821 C 0.04094 0.06779 0.61677 0.0
C822 C 0.03397 0.05126 0.65119 0.0
C823 C 0.0475 0.08668 0.64187 0.0
C824 C 0.04084 0.11762 0.77223 0.0
H825 H 0.10825 0.19972 0.85548 0.0
H826 H 0.09958 0.16717 0.80672 0.0
H827 H 0.03625 0.14251 0.82954 0.0
H828 H 0.02899 0.0415 0.7392 0.0
H829 H 0.04052 0.07458 0.78311 0.0
H830 H 0.07898 0.11716 0.67409 0.0
C831 C 0.08781 0.17688 0.81506 0.0
C832 C 0.04559 0.13722 0.79529 0.0
C833 C 0.09279 0.19566 0.8428 0.0
C834 C 0.03431 0.0539 0.71145 0.0
C835 C 0.04074 0.07289 0.73659 0.0
C836 C 0.06949 0.12256 0.70782 0.0
C837 C 0.06777 0.17029 0.80087 0.0
C838 C 0.0624 0.14969 0.77507 0.0
C839 C 0.04714 0.08956 0.702 0.0
C840 C 0.0527 0.11008 0.72811 0.0
H841 H 0.04607 0.21165 0.85014 0.0
H842 H 0.03737 0.17872 0.80212 0.0
H843 H 0.0873 0.15138 0.71447 0.0
H844 H 0.04092 0.0663 0.57019 0.0
H845 H 0.0522 0.09922 0.61398 0.0
C846 C 0.31075 0.00506 0.81481 0.0
C847 C 0.30435 0.02399 0.83062 0.0
C848 C 0.32924 0.00396 0.78681 0.0
C849 C 0.3783 0.03448 0.77404 0.0
H850 H 0.38967 0.9947 0.65657 0.0
C851 C 0.45576 0.0374 0.66565 0.0
C852 C 0.46417 0.019 0.6585 0.0
C853 C 0.43563 0.03751 0.68164 0.0
C854 C 0.38672 0.00579 0.6897 0.0
H855 H 0.31219 0.05663 0.82637 0.0
H856 H 0.34371 0.05466 0.7759 0.0
H857 H 0.35513 0.99582 0.69127 0.0
H858 H 0.45822 0.98626 0.66234 0.0
H859 H 0.42289 0.98642 0.69043 0.0
H860 H 0.40973 0.04438 0.77314 0.0
C861 C 0.33469 0.04064 0.78631 0.0
C862 C 0.36696 0.00644 0.70952 0.0
C863 C 0.31635 0.04175 0.8145 0.0
C864 C 0.45201 0.00066 0.66697 0.0
C865 C 0.4318 0.00075 0.68291 0.0
C866 C 0.39795 0.03385 0.75429 0.0
C867 C 0.3417 0.02177 0.77391 0.0
C868 C 0.36252 0.0209 0.75172 0.0
C869 C 0.42346 0.01921 0.69108 0.0
C870 C 0.40241 0.01958 0.71172 0.0
H871 H 0.30179 0.99106 0.82572 0.0
H872 H 0.33417 0.98917 0.77779 0.0
H873 H 0.37555 0.04545 0.80769 0.0
H874 H 0.46477 0.05175 0.65898 0.0
H875 H 0.42959 0.05197 0.68668 0.0
C876 C 0.43571 0.29942 0.80936 0.0
C877 C 0.45021 0.28796 0.83195 0.0
C878 C 0.44148 0.31712 0.77923 0.0
C879 C 0.48383 0.35704 0.76514 0.0
H880 H 0.45296 0.37311 0.63649 0.0
C881 C 0.49243 0.43916 0.68287 0.0
C882 C 0.49211 0.44175 0.62294 0.0
C883 C 0.48764 0.41994 0.70616 0.0
C884 C 0.46187 0.3688 0.67202 0.0
H885 H 0.48219 0.28575 0.83844 0.0
H886 H 0.49229 0.31666 0.78527 0.0
H887 H 0.44483 0.33966 0.6773 0.0
H888 H 0.48642 0.42609 0.54055 0.0
H889 H 0.47831 0.39266 0.58107 0.0
H890 H 0.50105 0.38608 0.75934 0.0
C891 C 0.47643 0.31206 0.79177 0.0
C892 C 0.45708 0.34968 0.6958 0.0
C893 C 0.47065 0.29432 0.82203 0.0
C894 C 0.48672 0.42471 0.58693 0.0
C895 C 0.48198 0.40551 0.6102 0.0
C896 C 0.48864 0.37616 0.74129 0.0
C897 C 0.4619 0.32386 0.77086 0.0
C898 C 0.46788 0.34363 0.74299 0.0
C899 C 0.48247 0.40285 0.67008 0.0
C900 C 0.47762 0.38234 0.69473 0.0
H901 H 0.41985 0.29527 0.81725 0.0
H902 H 0.42988 0.32597 0.76462 0.0
H903 H 0.49232 0.35298 0.80187 0.0
H904 H 0.4965 0.45194 0.71192 0.0
H905 H 0.48786 0.4185 0.75253 0.0
C906 C 0.21433 0.51311 0.77078 0.0
C907 C 0.21688 0.51657 0.83043 0.0
C908 C 0.19562 0.51436 0.74523 0.0
C909 C 0.14236 0.50674 0.78315 0.0
H910 H 0.13357 0.53097 0.63632 0.0
C911 C 0.06253 0.50816 0.69249 0.0
C912 C 0.05991 0.50559 0.63268 0.0
C913 C 0.08181 0.51079 0.71616 0.0
C914 C 0.13578 0.52388 0.67703 0.0
H915 H 0.20188 0.52476 0.90952 0.0
H916 H 0.16949 0.52714 0.86487 0.0
H917 H 0.1673 0.5342 0.67733 0.0
H918 H 0.07553 0.50344 0.55086 0.0
H919 H 0.10905 0.50734 0.59217 0.0
H920 H 0.11115 0.49585 0.7825 0.0
C921 C 0.18191 0.52338 0.83793 0.0
C922 C 0.15511 0.52584 0.70058 0.0
C923 C 0.20059 0.5223 0.86333 0.0
C924 C 0.07701 0.50551 0.59712 0.0
C925 C 0.09628 0.50791 0.62083 0.0
C926 C 0.12312 0.50459 0.7594 0.0
C927 C 0.17906 0.51886 0.77897 0.0
C928 C 0.15858 0.51733 0.75399 0.0
C929 C 0.09897 0.51066 0.68067 0.0
C930 C 0.11953 0.51315 0.70603 0.0
H931 H 0.2266 0.50871 0.74429 0.0
H932 H 0.19386 0.51076 0.69966 0.0
H933 H 0.14464 0.49967 0.82388 0.0
H934 H 0.04969 0.5085 0.72106 0.0
H935 H 0.08324 0.51321 0.7623 0.0
C936 C 0.93341 0.7934 0.34115 0.0
C937 C 0.93651 0.79023 0.2817 0.0
C938 C 0.93262 0.81302 0.36409 0.0
C939 C 0.95198 0.8654 0.32764 0.0
H940 H 0.92488 0.8794 0.46887 0.0
C941 C 0.96587 0.94545 0.42902 0.0
C942 C 0.97062 0.94607 0.48799 0.0
C943 C 0.95749 0.9274 0.40244 0.0
C944 C 0.93253 0.87568 0.42936 0.0
H945 H 0.93939 0.80539 0.1994 0.0
H946 H 0.9368 0.83909 0.23885 0.0
H947 H 0.91665 0.84584 0.42371 0.0
H948 H 0.96928 0.92839 0.56584 0.0
H949 H 0.95478 0.89691 0.51931 0.0
H950 H 0.96809 0.89499 0.33365 0.0
C951 C 0.93578 0.82651 0.26813 0.0
C952 C 0.92785 0.85646 0.40353 0.0
C953 C 0.93689 0.807 0.24532 0.0
C954 C 0.96593 0.92845 0.52028 0.0
C955 C 0.95746 0.91042 0.49371 0.0
C956 C 0.95652 0.88458 0.35314 0.0
C957 C 0.93463 0.82991 0.328 0.0
C958 C 0.93776 0.85096 0.35275 0.0
C959 C 0.95357 0.90958 0.43425 0.0
C960 C 0.9471 0.88986 0.40474 0.0
H961 H 0.93258 0.78085 0.37045 0.0
H962 H 0.93167 0.81499 0.41043 0.0
H963 H 0.96031 0.86164 0.28941 0.0
H964 H 0.96915 0.95875 0.40287 0.0
H965 H 0.95442 0.92728 0.35668 0.0
C966 C 0.70149 0.0304 0.32757 0.0
C967 C 0.70979 0.01552 0.29363 0.0
C968 C 0.68274 0.02616 0.35381 0.0
C969 C 0.64454 0.98586 0.40074 0.0
H970 H 0.60791 0.02614 0.37357 0.0
C971 C 0.55973 0.97432 0.46285 0.0
C972 C 0.55117 0.99152 0.48367 0.0
C973 C 0.5794 0.97618 0.44105 0.0
C974 C 0.61798 0.01486 0.3824 0.0
H975 H 0.70534 0.9842 0.26308 0.0
H976 H 0.67241 0.97677 0.30941 0.0
H977 H 0.64197 0.03114 0.33571 0.0
H978 H 0.5564 0.02408 0.49827 0.0
H979 H 0.59077 0.02723 0.4627 0.0
H980 H 0.62055 0.96972 0.44831 0.0
C981 C 0.68051 0.99171 0.31542 0.0
C982 C 0.63751 0.01772 0.3605 0.0
C983 C 0.69927 0.99601 0.28867 0.0
C984 C 0.56265 0.01052 0.48295 0.0
C985 C 0.5823 0.01235 0.46181 0.0
C986 C 0.62497 0.98307 0.42325 0.0
C987 C 0.67186 0.00693 0.347 0.0
C988 C 0.65105 0.00337 0.36981 0.0
C989 C 0.59087 0.99527 0.43986 0.0
C990 C 0.61151 0.99766 0.41475 0.0
H991 H 0.70905 0.04565 0.33173 0.0
H992 H 0.67654 0.03811 0.37848 0.0
H993 H 0.65471 0.97458 0.40861 0.0
H994 H 0.55116 0.9595 0.46281 0.0
H995 H 0.58545 0.96274 0.42399 0.0
C996 C 0.58106 0.70972 0.35593 0.0
C997 C 0.57676 0.71112 0.29706 0.0
C998 C 0.58216 0.69076 0.38046 0.0
C999 C 0.5826 0.63533 0.34685 0.0
H1000 H 0.54972 0.62947 0.48493 0.0
C1001 C 0.5436 0.5581 0.42292 0.0
C1002 C 0.54186 0.55495 0.48253 0.0
C1003 C 0.55179 0.57691 0.40214 0.0
C1004 C 0.55926 0.63083 0.447 0.0
H1005 H 0.57145 0.6937 0.21722 0.0
H1006 H 0.5734 0.66092 0.2597 0.0
H1007 H 0.5586 0.66297 0.4462 0.0
H1008 H 0.54825 0.56885 0.56697 0.0
H1009 H 0.56265 0.60137 0.5308 0.0
H1010 H 0.58263 0.60296 0.34692 0.0
C1011 C 0.57618 0.67438 0.28701 0.0
C1012 C 0.56442 0.65011 0.42482 0.0
C1013 C 0.57512 0.69329 0.26253 0.0
C1014 C 0.5491 0.57078 0.52078 0.0
C1015 C 0.55733 0.58949 0.50005 0.0
C1016 C 0.5774 0.61598 0.36907 0.0
C1017 C 0.5789 0.67282 0.34665 0.0
C1018 C 0.57588 0.65259 0.37396 0.0
C1019 C 0.55846 0.59293 0.44055 0.0
C1020 C 0.5654 0.61349 0.41894 0.0
H1021 H 0.58263 0.72318 0.38356 0.0
H1022 H 0.5847 0.69011 0.42637 0.0
H1023 H 0.59163 0.63673 0.30793 0.0
H1024 H 0.53817 0.54624 0.39225 0.0
H1025 H 0.55225 0.5791 0.35604 0.0
C1026 C 0.79034 0.46396 0.33587 0.0
C1027 C 0.78742 0.46652 0.27663 0.0
C1028 C 0.8087 0.47089 0.36171 0.0
C1029 C 0.86204 0.48132 0.32232 0.0
H1030 H 0.86797 0.50309 0.47843 0.0
C1031 C 0.9401 0.50452 0.42105 0.0
C1032 C 0.94291 0.49869 0.47804 0.0
C1033 C 0.92086 0.50288 0.39718 0.0
C1034 C 0.86655 0.49689 0.4349 0.0
H1035 H 0.80136 0.47922 0.19877 0.0
H1036 H 0.83301 0.49176 0.24411 0.0
H1037 H 0.83452 0.49687 0.43601 0.0
H1038 H 0.92754 0.48685 0.5549 0.0
H1039 H 0.89411 0.48373 0.51298 0.0
H1040 H 0.89392 0.48094 0.32135 0.0
C1041 C 0.82123 0.48409 0.27042 0.0
C1042 C 0.84738 0.49335 0.4106 0.0
C1043 C 0.80292 0.47716 0.24461 0.0
C1044 C 0.92597 0.49149 0.51086 0.0
C1045 C 0.90675 0.48983 0.48696 0.0
C1046 C 0.88115 0.48483 0.34658 0.0
C1047 C 0.82455 0.48051 0.32884 0.0
C1048 C 0.8449 0.48542 0.3541 0.0
C1049 C 0.90397 0.49535 0.42967 0.0
C1050 C 0.88365 0.49253 0.40328 0.0
H1051 H 0.77865 0.45601 0.3619 0.0
H1052 H 0.81077 0.46782 0.40678 0.0
H1053 H 0.86065 0.4748 0.27914 0.0
H1054 H 0.95276 0.51026 0.3946 0.0
H1055 H 0.91923 0.50754 0.35319 0.0
loop_
_geom_bond_atom_site_label_1
_geom_bond_atom_site_label_2
_geom_bond_distance
_geom_bond_site_symmetry_2
_ccdc_geom_bond_type
P0 O11 1.490 . S
P0 C14 1.812 . S
P0 C20 1.803 . S
P0 C26 1.819 1_554 S
H1 C15 0.941 . S
H2 C16 0.939 . S
H3 C18 0.940 . S
H4 C19 0.940 . S
H5 C21 0.939 . S
H6 C22 0.942 . S
H7 C24 0.940 . S
H8 C25 0.939 . S
H9 C27 0.941 . S
H10 C31 0.939 . S
O11 P0 1.490 . S
H12 C28 0.939 . S
H13 C30 0.940 . S
C14 P0 1.812 . S
C14 C15 1.389 . S
C14 C19 1.391 . S
C15 H1 0.941 . S
C15 C14 1.389 . S
C15 C16 1.397 . S
C16 H2 0.939 . S
C16 C15 1.397 . S
C16 C17 1.378 . S
C17 C16 1.378 . S
C17 C18 1.378 . S
C18 H3 0.940 . S
C18 C17 1.378 . S
C18 C19 1.396 . S
C19 H4 0.940 . S
C19 C14 1.391 . S
C19 C18 1.396 . S
C20 P0 1.803 . S
C20 C21 1.378 1_554 S
C20 C25 1.400 . S
C21 H5 0.939 . S
C21 C20 1.378 1_556 S
C21 C22 1.361 . S
C22 H6 0.942 . S
C22 C21 1.361 . S
C22 C23 1.369 . S
C23 C22 1.369 . S
C23 C24 1.404 1_556 S
C24 H7 0.940 . S
C24 C23 1.404 1_554 S
C24 C25 1.389 . S
C25 H8 0.939 . S
C25 C20 1.400 . S
C25 C24 1.389 . S
C26 P0 1.819 1_556 S
C26 C27 1.391 . S
C26 C31 1.391 . S
C27 H9 0.941 . S
C27 C26 1.391 . S
C27 C28 1.396 . S
C28 H12 0.939 . S
C28 C27 1.396 . S
C28 C29 1.397 . S
C29 C28 1.397 . S
C29 C30 1.385 . S
C30 H13 0.940 . S
C30 C29 1.385 . S
C30 C31 1.388 . S
C31 H10 0.939 . S
C31 C26 1.391 . S
C31 C30 1.388 . S
P32 O43 1.490 . S
P32 C46 1.812 . S
P32 C52 1.803 1_554 S
P32 C58 1.819 1_554 S
H33 C47 0.941 . S
H34 C48 0.939 . S
H35 C50 0.940 . S
H36 C51 0.940 . S
H37 C53 0.939 . S
H38 C54 0.942 . S
H39 C56 0.940 1_554 S
H40 C57 0.939 . S
H41 C59 0.941 . S
H42 C63 0.939 . S
O43 P32 1.490 . S
H44 C60 0.939 . S
H45 C62 0.940 . S
C46 P32 1.812 . S
C46 C47 1.389 . S
C46 C51 1.391 . S
C47 H33 0.941 . S
C47 C46 1.389 . S
C47 C48 1.397 . S
C48 H34 0.939 . S
C48 C47 1.397 . S
C48 C49 1.378 . S
C49 C48 1.378 . S
C49 C50 1.378 . S
C50 H35 0.940 . S
C50 C49 1.378 . S
C50 C51 1.396 . S
C51 H36 0.940 . S
C51 C46 1.391 . S
C51 C50 1.396 . S
C52 P32 1.803 1_556 S
C52 C53 1.378 . S
C52 C57 1.400 1_556 S
C53 H37 0.939 . S
C53 C52 1.378 . S
C53 C54 1.361 . S
C54 H38 0.942 . S
C54 C53 1.361 . S
C54 C55 1.369 . S
C55 C54 1.369 . S
C55 C56 1.404 . S
C56 H39 0.940 1_556 S
C56 C55 1.404 . S
C56 C57 1.389 1_556 S
C57 H40 0.939 . S
C57 C52 1.400 1_554 S
C57 C56 1.389 1_554 S
C58 P32 1.819 1_556 S
C58 C59 1.391 . S
C58 C63 1.391 . S
C59 H41 0.941 . S
C59 C58 1.391 . S
C59 C60 1.396 . S
C60 H44 0.939 . S
C60 C59 1.396 . S
C60 C61 1.397 . S
C61 C60 1.397 . S
C61 C62 1.385 . S
C62 H45 0.940 . S
C62 C61 1.385 . S
C62 C63 1.388 . S
C63 H42 0.939 . S
C63 C58 1.391 . S
C63 C62 1.388 . S
P64 O75 1.490 . S
P64 C78 1.812 . S
P64 C84 1.803 . S
P64 C90 1.819 1_554 S
H65 C79 0.941 . S
H66 C80 0.939 . S
H67 C82 0.940 . S
H68 C83 0.950 . S
H69 C85 0.939 . S
H70 C86 0.942 . S
H71 C88 0.940 . S
H72 C89 0.957 . S
H73 C91 0.941 1_554 S
H74 C95 0.926 1_565 S
O75 P64 1.490 . S
H76 C92 0.939 . S
H77 C94 0.940 . S
C78 P64 1.812 . S
C78 C79 1.389 . S
C78 C83 1.376 1_545 S
C79 H65 0.941 . S
C79 C78 1.389 . S
C79 C80 1.397 . S
C80 H66 0.939 . S
C80 C79 1.397 . S
C80 C81 1.378 . S
C81 C80 1.378 . S
C81 C82 1.378 1_545 S
C82 H67 0.940 . S
C82 C81 1.378 1_565 S
C82 C83 1.402 . S
C83 H68 0.950 . S
C83 C78 1.376 1_565 S
C83 C82 1.402 . S
C84 P64 1.803 . S
C84 C85 1.378 1_554 S
C84 C89 1.367 1_545 S
C85 H69 0.939 . S
C85 C84 1.378 1_556 S
C85 C86 1.361 . S
C86 H70 0.942 . S
C86 C85 1.361 . S
C86 C87 1.369 . S
C87 C86 1.369 . S
C87 C88 1.404 1_546 S
C88 H71 0.940 . S
C88 C87 1.404 1_564 S
C88 C89 1.405 . S
C89 H72 0.957 . S
C89 C84 1.367 1_565 S
C89 C88 1.405 . S
C90 P64 1.819 1_556 S
C90 C91 1.391 . S
C90 C95 1.391 . S
C91 H73 0.941 1_556 S
C91 C90 1.391 . S
C91 C92 1.396 . S
C92 H76 0.939 . S
C92 C91 1.396 . S
C92 C93 1.397 . S
C93 C92 1.397 . S
C93 C94 1.385 1_545 S
C94 H77 0.940 . S
C94 C93 1.385 1_565 S
C94 C95 1.388 1_565 S
C95 H74 0.926 1_545 S
C95 C90 1.391 . S
C95 C94 1.388 1_545 S
P96 O107 1.490 . S
P96 C110 1.812 . S
P96 C116 1.803 . S
P96 C122 1.819 . S
H97 C111 0.941 . S
H98 C112 0.939 . S
H99 C114 0.940 . S
H100 C115 0.940 . S
H101 C117 0.939 . S
H102 C118 0.942 1_556 S
H103 C120 0.940 . S
H104 C121 0.939 . S
H105 C123 0.941 . S
H106 C127 0.939 . S
O107 P96 1.490 . S
H108 C124 0.939 . S
H109 C126 0.940 . S
C110 P96 1.812 . S
C110 C111 1.389 . S
C110 C115 1.391 . S
C111 H97 0.941 . S
C111 C110 1.389 . S
C111 C112 1.397 . S
C112 H98 0.939 . S
C112 C111 1.397 . S
C112 C113 1.378 . S
C113 C112 1.378 . S
C113 C114 1.378 . S
C114 H99 0.940 . S
C114 C113 1.378 . S
C114 C115 1.396 . S
C115 H100 0.940 . S
C115 C110 1.391 . S
C115 C114 1.396 . S
C116 P96 1.803 . S
C116 C117 1.378 . S
C116 C121 1.400 . S
C117 H101 0.939 . S
C117 C116 1.378 . S
C117 C118 1.361 . S
C118 H102 0.942 1_554 S
C118 C117 1.361 . S
C118 C119 1.369 . S
C119 C118 1.369 . S
C119 C120 1.404 . S
C120 H103 0.940 . S
C120 C119 1.404 . S
C120 C121 1.389 . S
C121 H104 0.939 . S
C121 C116 1.400 . S
C121 C120 1.389 . S
C122 P96 1.819 . S
C122 C123 1.391 . S
C122 C127 1.391 1_554 S
C123 H105 0.941 . S
C123 C122 1.391 . S
C123 C124 1.396 1_554 S
C124 H108 0.939 . S
C124 C123 1.396 1_556 S
C124 C125 1.397 . S
C125 C124 1.397 . S
C125 C126 1.385 . S
C126 H109 0.940 . S
C126 C125 1.385 . S
C126 C127 1.388 . S
C127 H106 0.939 . S
C127 C122 1.391 1_556 S
C127 C126 1.388 . S
P128 O139 1.490 . S
P128 C142 1.812 . S
P128 C148 1.803 . S
P128 C154 1.819 . S
H129 C143 0.941 . S
H130 C144 0.939 . S
H131 C146 0.940 . S
H132 C147 0.940 . S
H133 C149 0.939 . S
H134 C150 0.942 . S
H135 C152 0.940 . S
H136 C153 0.939 . S
H137 C155 0.941 . S
H138 C159 0.939 . S
O139 P128 1.490 . S
H140 C156 0.939 . S
H141 C158 0.940 . S
C142 P128 1.812 . S
C142 C143 1.389 1_554 S
C142 C147 1.391 . S
C143 H129 0.941 . S
C143 C142 1.389 1_556 S
C143 C144 1.397 . S
C144 H130 0.939 . S
C144 C143 1.397 . S
C144 C145 1.378 . S
C145 C144 1.378 . S
C145 C146 1.378 . S
C146 H131 0.940 . S
C146 C145 1.378 . S
C146 C147 1.396 1_556 S
C147 H132 0.940 . S
C147 C142 1.391 . S
C147 C146 1.396 1_554 S
C148 P128 1.803 . S
C148 C149 1.378 . S
C148 C153 1.400 . S
C149 H133 0.939 . S
C149 C148 1.378 . S
C149 C150 1.361 . S
C150 H134 0.942 . S
C150 C149 1.361 . S
C150 C151 1.369 . S
C151 C150 1.369 . S
C151 C152 1.404 . S
C152 H135 0.940 . S
C152 C151 1.404 . S
C152 C153 1.389 . S
C153 H136 0.939 . S
C153 C148 1.400 . S
C153 C152 1.389 . S
C154 P128 1.819 . S
C154 C155 1.391 . S
C154 C159 1.391 . S
C155 H137 0.941 . S
C155 C154 1.391 . S
C155 C156 1.396 . S
C156 H140 0.939 . S
C156 C155 1.396 . S
C156 C157 1.397 . S
C157 C156 1.397 . S
C157 C158 1.385 . S
C158 H141 0.940 . S
C158 C157 1.385 . S
C158 C159 1.388 . S
C159 H138 0.939 . S
C159 C154 1.391 . S
C159 C158 1.388 . S
P160 O171 1.490 . S
P160 C174 1.812 . S
P160 C180 1.803 . S
P160 C186 1.819 . S
H161 C175 0.941 . S
H162 C176 0.939 . S
H163 C178 0.940 . S
H164 C179 0.940 . S
H165 C181 0.939 . S
H166 C182 0.942 . S
H167 C184 0.940 . S
H168 C185 0.939 . S
H169 C187 0.941 . S
H170 C191 0.939 . S
O171 P160 1.490 . S
H172 C188 0.939 . S
H173 C190 0.940 . S
C174 P160 1.812 . S
C174 C175 1.389 . S
C174 C179 1.391 . S
C175 H161 0.941 . S
C175 C174 1.389 . S
C175 C176 1.397 1_554 S
C176 H162 0.939 . S
C176 C175 1.397 1_556 S
C176 C177 1.378 . S
C177 C176 1.378 . S
C177 C178 1.378 1_556 S
C178 H163 0.940 . S
C178 C177 1.378 1_554 S
C178 C179 1.396 . S
C179 H164 0.940 . S
C179 C174 1.391 . S
C179 C178 1.396 . S
C180 P160 1.803 . S
C180 C181 1.378 . S
C180 C185 1.400 . S
C181 H165 0.939 . S
C181 C180 1.378 . S
C181 C182 1.361 . S
C182 H166 0.942 . S
C182 C181 1.361 . S
C182 C183 1.369 . S
C183 C182 1.369 . S
C183 C184 1.404 . S
C184 H167 0.940 . S
C184 C183 1.404 . S
C184 C185 1.389 . S
C185 H168 0.939 . S
C185 C180 1.400 . S
C185 C184 1.389 . S
C186 P160 1.819 . S
C186 C187 1.391 . S
C186 C191 1.391 . S
C187 H169 0.941 . S
C187 C186 1.391 . S
C187 C188 1.396 . S
C188 H172 0.939 . S
C188 C187 1.396 . S
C188 C189 1.397 . S
C189 C188 1.397 . S
C189 C190 1.385 . S
C190 H173 0.940 . S
C190 C189 1.385 . S
C190 C191 1.388 . S
C191 H170 0.939 . S
C191 C186 1.391 . S
C191 C190 1.388 . S
P192 O203 1.490 . S
P192 C206 1.812 . S
P192 C212 1.803 . S
P192 C218 1.819 . S
H193 C207 0.941 . S
H194 C208 0.939 . S
H195 C210 0.940 . S
H196 C211 0.943 . S
H197 C213 0.939 . S
H198 C214 0.942 . S
H199 C216 0.940 . S
H200 C217 0.953 . S
H201 C219 0.941 . S
H202 C223 0.935 1_565 S
O203 P192 1.490 . S
H204 C220 0.939 . S
H205 C222 0.940 . S
C206 P192 1.812 . S
C206 C207 1.389 1_554 S
C206 C211 1.387 1_545 S
C207 H193 0.941 . S
C207 C206 1.389 1_556 S
C207 C208 1.397 . S
C208 H194 0.939 . S
C208 C207 1.397 . S
C208 C209 1.378 . S
C209 C208 1.378 . S
C209 C210 1.378 1_545 S
C210 H195 0.940 . S
C210 C209 1.378 1_565 S
C210 C211 1.398 1_556 S
C211 H196 0.943 . S
C211 C206 1.387 1_565 S
C211 C210 1.398 1_554 S
C212 P192 1.803 . S
C212 C213 1.378 . S
C212 C217 1.381 1_545 S
C213 H197 0.939 . S
C213 C212 1.378 . S
C213 C214 1.361 . S
C214 H198 0.942 . S
C214 C213 1.361 . S
C214 C215 1.369 . S
C215 C214 1.369 . S
C215 C216 1.404 1_545 S
C216 H199 0.940 . S
C216 C215 1.404 1_565 S
C216 C217 1.395 . S
C217 H200 0.953 . S
C217 C212 1.381 1_565 S
C217 C216 1.395 . S
C218 P192 1.819 . S
C218 C219 1.391 . S
C218 C223 1.391 . S
C219 H201 0.941 . S
C219 C218 1.391 . S
C219 C220 1.396 . S
C220 H204 0.939 . S
C220 C219 1.396 . S
C220 C221 1.397 . S
C221 C220 1.397 . S
C221 C222 1.385 1_545 S
C222 H205 0.940 . S
C222 C221 1.385 1_565 S
C222 C223 1.388 1_565 S
C223 H202 0.935 1_545 S
C223 C218 1.391 . S
C223 C222 1.388 1_545 S
P224 O235 1.490 . S
P224 C238 1.812 . S
P224 C244 1.803 . S
P224 C250 1.819 . S
H225 C239 0.941 . S
H226 C240 0.939 . S
H227 C242 0.940 . S
H228 C243 0.940 . S
H229 C245 0.939 . S
H230 C246 0.942 . S
H231 C248 0.940 . S
H232 C249 0.939 . S
H233 C251 0.941 . S
H234 C255 0.939 . S
O235 P224 1.490 . S
H236 C252 0.939 . S
H237 C254 0.940 . S
C238 P224 1.812 . S
C238 C239 1.389 1_554 S
C238 C243 1.391 . S
C239 H225 0.941 . S
C239 C238 1.389 1_556 S
C239 C240 1.397 . S
C240 H226 0.939 . S
C240 C239 1.397 . S
C240 C241 1.378 . S
C241 C240 1.378 . S
C241 C242 1.378 . S
C242 H227 0.940 . S
C242 C241 1.378 . S
C242 C243 1.396 1_556 S
C243 H228 0.940 . S
C243 C238 1.391 . S
C243 C242 1.396 1_554 S
C244 P224 1.803 . S
C244 C245 1.378 . S
C244 C249 1.400 . S
C245 H229 0.939 . S
C245 C244 1.378 . S
C245 C246 1.361 . S
C246 H230 0.942 . S
C246 C245 1.361 . S
C246 C247 1.369 . S
C247 C246 1.369 . S
C247 C248 1.404 . S
C248 H231 0.940 . S
C248 C247 1.404 . S
C248 C249 1.389 . S
C249 H232 0.939 . S
C249 C244 1.400 . S
C249 C248 1.389 . S
C250 P224 1.819 . S
C250 C251 1.391 . S
C250 C255 1.391 . S
C251 H233 0.941 . S
C251 C250 1.391 . S
C251 C252 1.396 . S
C252 H236 0.939 . S
C252 C251 1.396 . S
C252 C253 1.397 . S
C253 C252 1.397 . S
C253 C254 1.385 . S
C254 H237 0.940 . S
C254 C253 1.385 . S
C254 C255 1.388 . S
C255 H234 0.939 . S
C255 C250 1.391 . S
C255 C254 1.388 . S
Dy256 O260 2.398 . S
Dy256 O261 2.491 1_455 S
Dy256 O262 2.403 . S
Dy256 O263 2.664 1_565 S
Dy256 O267 2.326 . S
Dy256 O271 2.310 1_455 S
Dy256 O272 2.351 1_565 S
C257 O268 1.185 1_455 S
C257 O269 1.355 . S
C258 O260 1.185 . S
C258 O261 1.355 1_455 S
Dy259 O263 2.270 1_655 S
Dy259 O266 2.360 1_545 S
Dy259 O268 2.411 . S
Dy259 O269 2.464 1_655 S
Dy259 O270 2.443 . S
Dy259 O271 2.677 1_545 S
Dy259 O273 2.317 1_655 S
O260 Dy256 2.398 . S
O260 C258 1.185 . S
O261 Dy256 2.491 1_655 S
O261 C258 1.355 1_655 S
O262 Dy256 2.403 . S
O262 C264 1.254 . S
O263 Dy256 2.664 1_545 S
O263 Dy259 2.270 1_455 S
O263 C264 1.268 1_545 S
C264 O262 1.254 . S
C264 O263 1.268 1_565 S
C265 O270 1.254 . S
C265 O271 1.268 1_545 S
O266 Dy259 2.360 1_565 S
O266 C274 1.249 . S
O267 Dy256 2.326 . S
O267 C274 1.267 1_455 S
O268 C257 1.185 1_655 S
O268 Dy259 2.411 . S
O269 C257 1.355 . S
O269 Dy259 2.464 1_455 S
O270 Dy259 2.443 . S
O270 C265 1.254 . S
O271 Dy256 2.310 1_655 S
O271 Dy259 2.677 1_565 S
O271 C265 1.268 1_565 S
O272 Dy256 2.351 1_545 S
O272 C275 1.249 . S
O273 Dy259 2.317 1_455 S
O273 C275 1.267 . S
C274 O266 1.249 . S
C274 O267 1.267 1_655 S
C275 O272 1.249 . S
C275 O273 1.267 . S
Dy276 O280 2.398 . S
Dy276 O281 2.491 . S
Dy276 O282 2.403 . S
Dy276 O283 2.664 . S
Dy276 O287 2.326 1_565 S
Dy276 O291 2.310 1_565 S
Dy276 O292 2.351 . S
C277 O288 1.185 . S
C277 O289 1.355 . S
C278 O280 1.185 . S
C278 O281 1.355 . S
Dy279 O283 2.310 1_545 S
Dy279 O286 2.351 . S
Dy279 O288 2.398 . S
Dy279 O289 2.491 . S
Dy279 O290 2.403 . S
Dy279 O291 2.664 . S
Dy279 O293 2.326 1_545 S
O280 Dy276 2.398 . S
O280 C278 1.185 . S
O281 Dy276 2.491 . S
O281 C278 1.355 . S
O282 Dy276 2.403 . S
O282 C284 1.254 . S
O283 Dy276 2.664 . S
O283 Dy279 2.310 1_565 S
O283 C284 1.268 . S
C284 O282 1.254 . S
C284 O283 1.268 . S
C285 O290 1.254 . S
C285 O291 1.268 . S
O286 Dy279 2.351 . S
O286 C294 1.249 . S
O287 Dy276 2.326 1_545 S
O287 C294 1.267 . S
O288 C277 1.185 . S
O288 Dy279 2.398 . S
O289 C277 1.355 . S
O289 Dy279 2.491 . S
O290 Dy279 2.403 . S
O290 C285 1.254 . S
O291 Dy276 2.310 1_545 S
O291 Dy279 2.664 . S
O291 C285 1.268 . S
O292 Dy276 2.351 . S
O292 C295 1.249 . S
O293 Dy279 2.326 1_565 S
O293 C295 1.267 . S
C294 O286 1.249 . S
C294 O287 1.267 . S
C295 O292 1.249 . S
C295 O293 1.267 . S
Dy296 O300 2.398 . S
Dy296 O301 2.491 . S
Dy296 O302 2.403 . S
Dy296 O303 2.664 . S
Dy296 O307 2.326 . S
Dy296 O311 2.310 . S
Dy296 O312 2.351 . S
C297 O308 1.185 . S
C297 O309 1.355 . S
C298 O300 1.185 . S
C298 O301 1.355 . S
Dy299 O303 2.310 . S
Dy299 O306 2.351 . S
Dy299 O308 2.398 . S
Dy299 O309 2.491 . S
Dy299 O310 2.403 . S
Dy299 O311 2.664 . S
Dy299 O313 2.326 . S
O300 Dy296 2.398 . S
O300 C298 1.185 . S
O301 Dy296 2.491 . S
O301 C298 1.355 . S
O302 Dy296 2.403 . S
O302 C304 1.254 . S
O303 Dy296 2.664 . S
O303 Dy299 2.310 . S
O303 C304 1.268 . S
C304 O302 1.254 . S
C304 O303 1.268 . S
C305 O310 1.254 . S
C305 O311 1.268 . S
O306 Dy299 2.351 . S
O306 C314 1.249 . S
O307 Dy296 2.326 . S
O307 C314 1.267 . S
O308 C297 1.185 . S
O308 Dy299 2.398 . S
O309 C297 1.355 . S
O309 Dy299 2.491 . S
O310 Dy299 2.403 . S
O310 C305 1.254 . S
O311 Dy296 2.310 . S
O311 Dy299 2.664 . S
O311 C305 1.268 . S
O312 Dy296 2.351 . S
O312 C315 1.249 . S
O313 Dy299 2.326 . S
O313 C315 1.267 . S
C314 O306 1.249 . S
C314 O307 1.267 . S
C315 O312 1.249 . S
C315 O313 1.267 . S
Dy316 O320 2.398 . S
Dy316 O321 2.491 . S
Dy316 O322 2.403 1_655 S
Dy316 O323 2.664 1_655 S
Dy316 O327 2.326 . S
Dy316 O331 2.310 . S
Dy316 O332 2.351 1_655 S
C317 O328 1.185 . S
C317 O329 1.355 . S
C318 O320 1.185 . S
C318 O321 1.355 . S
Dy319 O323 2.310 . S
Dy319 O326 2.351 1_455 S
Dy319 O328 2.398 . S
Dy319 O329 2.491 . S
Dy319 O330 2.403 . S
Dy319 O331 2.664 1_455 S
Dy319 O333 2.326 . S
O320 Dy316 2.398 . S
O320 C318 1.185 . S
O321 Dy316 2.491 . S
O321 C318 1.355 . S
O322 Dy316 2.403 1_455 S
O322 C324 1.254 . S
O323 Dy316 2.664 1_455 S
O323 Dy319 2.310 . S
O323 C324 1.268 . S
C324 O322 1.254 . S
C324 O323 1.268 . S
C325 O330 1.254 1_655 S
C325 O331 1.268 . S
O326 Dy319 2.351 1_655 S
O326 C334 1.249 . S
O327 Dy316 2.326 . S
O327 C334 1.267 . S
O328 C317 1.185 . S
O328 Dy319 2.398 . S
O329 C317 1.355 . S
O329 Dy319 2.491 . S
O330 Dy319 2.403 . S
O330 C325 1.254 1_455 S
O331 Dy316 2.310 . S
O331 Dy319 2.664 1_655 S
O331 C325 1.268 . S
O332 Dy316 2.351 1_455 S
O332 C335 1.249 . S
O333 Dy319 2.326 . S
O333 C335 1.267 . S
C334 O326 1.249 . S
C334 O327 1.267 . S
C335 O332 1.249 . S
C335 O333 1.267 . S
C336 C337 1.351 . S
C336 C338 1.327 . S
C336 H361 0.950 . S
C337 C336 1.351 . S
C337 C353 1.347 1_565 S
C338 C336 1.327 . S
C338 C357 1.469 . S
C338 H362 0.950 . S
C339 C356 1.574 . S
C339 C358 1.368 1_545 S
C339 H363 0.949 . S
H340 C344 0.949 . S
C341 C342 1.349 1_545 S
C341 C343 1.327 . S
C341 H364 0.950 . S
C342 C341 1.349 1_565 S
C342 C354 1.349 . S
C343 C341 1.327 . S
C343 C359 1.429 1_545 S
C343 H365 0.950 . S
C344 H340 0.949 . S
C344 C352 1.574 . S
C344 C360 1.368 . S
H345 C353 0.950 . S
H346 C351 0.950 . S
H347 C352 0.949 . S
H348 C354 0.950 . S
H349 C355 0.950 . S
H350 C356 0.949 . S
C351 H346 0.950 . S
C351 C353 1.327 . S
C351 C357 1.392 1_545 S
C352 C344 1.574 . S
C352 H347 0.949 . S
C352 C358 1.368 . S
C353 C337 1.347 1_545 S
C353 H345 0.950 . S
C353 C351 1.327 . S
C354 C342 1.349 . S
C354 H348 0.950 . S
C354 C355 1.327 . S
C355 H349 0.950 . S
C355 C354 1.327 . S
C355 C359 1.429 . S
C356 C339 1.574 . S
C356 H350 0.949 . S
C356 C360 1.368 1_545 S
C357 C338 1.469 . S
C357 C351 1.392 1_565 S
C357 C358 1.521 . S
C358 C339 1.368 1_565 S
C358 C352 1.368 . S
C358 C357 1.521 . S
C359 C343 1.429 1_565 S
C359 C355 1.429 . S
C359 C360 1.523 . S
C360 C344 1.368 . S
C360 C356 1.368 1_565 S
C360 C359 1.523 . S
H361 C336 0.950 . S
H362 C338 0.950 . S
H363 C339 0.949 . S
H364 C341 0.950 . S
H365 C343 0.950 . S
C366 C367 1.349 . S
C366 C368 1.327 . S
C366 H391 0.950 . S
C367 C366 1.349 . S
C367 C383 1.349 . S
C368 C366 1.327 . S
C368 C387 1.429 . S
C368 H392 0.950 . S
C369 C386 1.574 . S
C369 C388 1.368 . S
C369 H393 0.949 . S
H370 C374 0.949 . S
C371 C372 1.349 . S
C371 C373 1.327 . S
C371 H394 0.950 . S
C372 C371 1.349 . S
C372 C384 1.349 . S
C373 C371 1.327 . S
C373 C389 1.429 . S
C373 H395 0.950 . S
C374 H370 0.949 . S
C374 C382 1.574 . S
C374 C390 1.368 . S
H375 C383 0.950 . S
H376 C381 0.950 . S
H377 C382 0.949 . S
H378 C384 0.950 . S
H379 C385 0.950 . S
H380 C386 0.949 . S
C381 H376 0.950 . S
C381 C383 1.327 . S
C381 C387 1.429 . S
C382 C374 1.574 . S
C382 H377 0.949 . S
C382 C388 1.368 . S
C383 C367 1.349 . S
C383 H375 0.950 . S
C383 C381 1.327 . S
C384 C372 1.349 . S
C384 H378 0.950 . S
C384 C385 1.327 . S
C385 H379 0.950 . S
C385 C384 1.327 . S
C385 C389 1.429 . S
C386 C369 1.574 . S
C386 H380 0.949 . S
C386 C390 1.368 . S
C387 C368 1.429 . S
C387 C381 1.429 . S
C387 C388 1.523 . S
C388 C369 1.368 . S
C388 C382 1.368 . S
C388 C387 1.523 . S
C389 C373 1.429 . S
C389 C385 1.429 . S
C389 C390 1.523 . S
C390 C374 1.368 . S
C390 C386 1.368 . S
C390 C389 1.523 . S
H391 C366 0.950 . S
H392 C368 0.950 . S
H393 C369 0.949 . S
H394 C371 0.950 . S
H395 C373 0.950 . S
C396 C397 1.349 . S
C396 C398 1.327 . S
C396 H421 0.950 . S
C397 C396 1.349 . S
C397 C413 1.349 . S
C398 C396 1.327 . S
C398 C417 1.429 . S
C398 H422 0.950 . S
C399 C416 1.574 . S
C399 C418 1.368 . S
C399 H423 0.949 . S
H400 C404 0.949 . S
C401 C402 1.349 . S
C401 C403 1.327 . S
C401 H424 0.950 . S
C402 C401 1.349 . S
C402 C414 1.349 . S
C403 C401 1.327 . S
C403 C419 1.429 . S
C403 H425 0.950 . S
C404 H400 0.949 . S
C404 C412 1.574 . S
C404 C420 1.368 . S
H405 C413 0.950 . S
H406 C411 0.950 . S
H407 C412 0.949 . S
H408 C414 0.950 . S
H409 C415 0.950 . S
H410 C416 0.949 . S
C411 H406 0.950 . S
C411 C413 1.327 . S
C411 C417 1.429 . S
C412 C404 1.574 . S
C412 H407 0.949 . S
C412 C418 1.368 . S
C413 C397 1.349 . S
C413 H405 0.950 . S
C413 C411 1.327 . S
C414 C402 1.349 . S
C414 H408 0.950 . S
C414 C415 1.327 . S
C415 H409 0.950 . S
C415 C414 1.327 . S
C415 C419 1.429 . S
C416 C399 1.574 . S
C416 H410 0.949 . S
C416 C420 1.368 . S
C417 C398 1.429 . S
C417 C411 1.429 . S
C417 C418 1.523 . S
C418 C399 1.368 . S
C418 C412 1.368 . S
C418 C417 1.523 . S
C419 C403 1.429 . S
C419 C415 1.429 . S
C419 C420 1.523 . S
C420 C404 1.368 . S
C420 C416 1.368 . S
C420 C419 1.523 . S
H421 C396 0.950 . S
H422 C398 0.950 . S
H423 C399 0.949 . S
H424 C401 0.950 . S
H425 C403 0.950 . S
C426 C427 1.349 . S
C426 C428 1.327 . S
C426 H451 0.950 . S
C427 C426 1.349 . S
C427 C443 1.349 . S
C428 C426 1.327 . S
C428 C447 1.429 . S
C428 H452 0.950 . S
C429 C446 1.574 . S
C429 C448 1.368 . S
C429 H453 0.949 . S
H430 C434 0.949 . S
C431 C432 1.349 . S
C431 C433 1.327 . S
C431 H454 0.950 . S
C432 C431 1.349 . S
C432 C444 1.349 . S
C433 C431 1.327 . S
C433 C449 1.429 . S
C433 H455 0.950 . S
C434 H430 0.949 . S
C434 C442 1.574 . S
C434 C450 1.368 . S
H435 C443 0.950 . S
H436 C441 0.950 . S
H437 C442 0.949 . S
H438 C444 0.950 . S
H439 C445 0.950 . S
H440 C446 0.949 . S
C441 H436 0.950 . S
C441 C443 1.327 . S
C441 C447 1.429 . S
C442 C434 1.574 . S
C442 H437 0.949 . S
C442 C448 1.368 . S
C443 C427 1.349 . S
C443 H435 0.950 . S
C443 C441 1.327 . S
C444 C432 1.349 . S
C444 H438 0.950 . S
C444 C445 1.327 . S
C445 H439 0.950 . S
C445 C444 1.327 . S
C445 C449 1.429 . S
C446 C429 1.574 . S
C446 H440 0.949 . S
C446 C450 1.368 . S
C447 C428 1.429 . S
C447 C441 1.429 . S
C447 C448 1.523 . S
C448 C429 1.368 . S
C448 C442 1.368 . S
C448 C447 1.523 . S
C449 C433 1.429 . S
C449 C445 1.429 . S
C449 C450 1.523 . S
C450 C434 1.368 . S
C450 C446 1.368 . S
C450 C449 1.523 . S
H451 C426 0.950 . S
H452 C428 0.950 . S
H453 C429 0.949 . S
H454 C431 0.950 . S
H455 C433 0.950 . S
C456 C457 1.338 1_565 S
C456 C458 1.327 . S
C456 H481 0.950 . S
C457 C456 1.338 1_545 S
C457 C473 1.359 . S
C458 C456 1.327 . S
C458 C477 1.429 1_565 S
C458 H482 0.950 . S
C459 C476 1.574 . S
C459 C478 1.368 . S
C459 H483 0.949 . S
H460 C464 0.949 . S
C461 C462 1.349 . S
C461 C463 1.327 . S
C461 H484 0.950 . S
C462 C461 1.349 . S
C462 C474 1.349 1_545 S
C463 C461 1.327 . S
C463 C479 1.429 . S
C463 H485 0.950 . S
C464 H460 0.949 . S
C464 C472 1.574 . S
C464 C480 1.368 1_565 S
H465 C473 0.950 . S
H466 C471 0.950 . S
H467 C472 0.949 . S
H468 C474 0.950 . S
H469 C475 0.950 . S
H470 C476 0.949 . S
C471 H466 0.950 . S
C471 C473 1.327 . S
C471 C477 1.429 . S
C472 C464 1.574 . S
C472 H467 0.949 . S
C472 C478 1.368 1_565 S
C473 C457 1.359 . S
C473 H465 0.950 . S
C473 C471 1.327 . S
C474 C462 1.349 1_565 S
C474 H468 0.950 . S
C474 C475 1.327 . S
C475 H469 0.950 . S
C475 C474 1.327 . S
C475 C479 1.429 1_565 S
C476 C459 1.574 . S
C476 H470 0.949 . S
C476 C480 1.368 . S
C477 C458 1.429 1_545 S
C477 C471 1.429 . S
C477 C478 1.523 . S
C478 C459 1.368 . S
C478 C472 1.368 1_545 S
C478 C477 1.523 . S
C479 C463 1.429 . S
C479 C475 1.429 1_545 S
C479 C480 1.523 . S
C480 C464 1.368 1_545 S
C480 C476 1.368 . S
C480 C479 1.523 . S
H481 C456 0.950 . S
H482 C458 0.950 . S
H483 C459 0.949 . S
H484 C461 0.950 . S
H485 C463 0.950 . S
C486 C487 1.349 . S
C486 C488 1.327 . S
C486 H511 0.950 . S
C487 C486 1.349 . S
C487 C503 1.349 . S
C488 C486 1.327 . S
C488 C507 1.429 . S
C488 H512 0.950 . S
C489 C506 1.574 . S
C489 C508 1.368 . S
C489 H513 0.949 . S
H490 C494 0.949 . S
C491 C492 1.349 . S
C491 C493 1.327 . S
C491 H514 0.950 . S
C492 C491 1.349 . S
C492 C504 1.349 . S
C493 C491 1.327 . S
C493 C509 1.429 . S
C493 H515 0.950 . S
C494 H490 0.949 . S
C494 C502 1.574 . S
C494 C510 1.368 . S
H495 C503 0.950 1_554 S
H496 C501 0.950 . S
H497 C502 0.949 . S
H498 C504 0.950 . S
H499 C505 0.950 . S
H500 C506 0.949 . S
C501 H496 0.950 . S
C501 C503 1.327 . S
C501 C507 1.429 . S
C502 C494 1.574 . S
C502 H497 0.949 . S
C502 C508 1.368 . S
C503 C487 1.349 . S
C503 H495 0.950 1_556 S
C503 C501 1.327 . S
C504 C492 1.349 . S
C504 H498 0.950 . S
C504 C505 1.327 . S
C505 H499 0.950 . S
C505 C504 1.327 . S
C505 C509 1.429 . S
C506 C489 1.574 . S
C506 H500 0.949 . S
C506 C510 1.368 . S
C507 C488 1.429 . S
C507 C501 1.429 . S
C507 C508 1.523 . S
C508 C489 1.368 . S
C508 C502 1.368 . S
C508 C507 1.523 . S
C509 C493 1.429 . S
C509 C505 1.429 . S
C509 C510 1.523 . S
C510 C494 1.368 . S
C510 C506 1.368 . S
C510 C509 1.523 . S
H511 C486 0.950 . S
H512 C488 0.950 . S
H513 C489 0.949 . S
H514 C491 0.950 . S
H515 C493 0.950 . S
C516 C517 1.349 . S
C516 C518 1.327 . S
C516 H541 0.950 . S
C517 C516 1.349 . S
C517 C533 1.349 . S
C518 C516 1.327 . S
C518 C537 1.429 . S
C518 H542 0.950 . S
C519 C536 1.574 . S
C519 C538 1.368 . S
C519 H543 0.949 . S
H520 C524 0.949 . S
C521 C522 1.349 . S
C521 C523 1.327 . S
C521 H544 0.950 . S
C522 C521 1.349 . S
C522 C534 1.349 . S
C523 C521 1.327 . S
C523 C539 1.429 . S
C523 H545 0.950 . S
C524 H520 0.949 . S
C524 C532 1.574 . S
C524 C540 1.368 . S
H525 C533 0.950 . S
H526 C531 0.950 . S
H527 C532 0.949 . S
H528 C534 0.950 . S
H529 C535 0.950 . S
H530 C536 0.949 . S
C531 H526 0.950 . S
C531 C533 1.327 . S
C531 C537 1.429 . S
C532 C524 1.574 . S
C532 H527 0.949 . S
C532 C538 1.368 . S
C533 C517 1.349 . S
C533 H525 0.950 . S
C533 C531 1.327 . S
C534 C522 1.349 . S
C534 H528 0.950 . S
C534 C535 1.327 . S
C535 H529 0.950 . S
C535 C534 1.327 . S
C535 C539 1.429 . S
C536 C519 1.574 . S
C536 H530 0.949 . S
C536 C540 1.368 . S
C537 C518 1.429 . S
C537 C531 1.429 . S
C537 C538 1.523 . S
C538 C519 1.368 . S
C538 C532 1.368 . S
C538 C537 1.523 . S
C539 C523 1.429 . S
C539 C535 1.429 . S
C539 C540 1.523 . S
C540 C524 1.368 . S
C540 C536 1.368 . S
C540 C539 1.523 . S
H541 C516 0.950 . S
H542 C518 0.950 . S
H543 C519 0.949 . S
H544 C521 0.950 . S
H545 C523 0.950 . S
C546 C547 1.349 . S
C546 C548 1.327 . S
C546 H571 0.950 . S
C547 C546 1.349 . S
C547 C563 1.349 . S
C548 C546 1.327 . S
C548 C567 1.429 . S
C548 H572 0.950 . S
C549 C566 1.574 . S
C549 C568 1.368 . S
C549 H573 0.949 . S
H550 C554 0.949 . S
C551 C552 1.349 . S
C551 C553 1.327 . S
C551 H574 0.950 1_655 S
C552 C551 1.349 . S
C552 C564 1.349 . S
C553 C551 1.327 . S
C553 C569 1.429 . S
C553 H575 0.950 . S
C554 H550 0.949 . S
C554 C562 1.574 . S
C554 C570 1.368 . S
H555 C563 0.950 . S
H556 C561 0.950 . S
H557 C562 0.949 . S
H558 C564 0.950 . S
H559 C565 0.950 . S
H560 C566 0.949 . S
C561 H556 0.950 . S
C561 C563 1.327 . S
C561 C567 1.429 . S
C562 C554 1.574 . S
C562 H557 0.949 . S
C562 C568 1.368 . S
C563 C547 1.349 . S
C563 H555 0.950 . S
C563 C561 1.327 . S
C564 C552 1.349 . S
C564 H558 0.950 . S
C564 C565 1.327 . S
C565 H559 0.950 . S
C565 C564 1.327 . S
C565 C569 1.429 . S
C566 C549 1.574 . S
C566 H560 0.949 . S
C566 C570 1.368 . S
C567 C548 1.429 . S
C567 C561 1.429 . S
C567 C568 1.523 . S
C568 C549 1.368 . S
C568 C562 1.368 . S
C568 C567 1.523 . S
C569 C553 1.429 . S
C569 C565 1.429 . S
C569 C570 1.523 . S
C570 C554 1.368 . S
C570 C566 1.368 . S
C570 C569 1.523 . S
H571 C546 0.950 . S
H572 C548 0.950 . S
H573 C549 0.949 . S
H574 C551 0.950 1_455 S
H575 C553 0.950 . S
C576 C577 1.349 . S
C576 C578 1.327 . S
C576 H601 0.950 . S
C577 C576 1.349 . S
C577 C593 1.349 . S
C578 C576 1.327 . S
C578 C597 1.429 . S
C578 H602 0.950 . S
C579 C596 1.574 . S
C579 C598 1.368 . S
C579 H603 0.949 . S
H580 C584 0.949 . S
C581 C582 1.349 . S
C581 C583 1.327 . S
C581 H604 0.950 . S
C582 C581 1.349 . S
C582 C594 1.349 . S
C583 C581 1.327 . S
C583 C599 1.429 . S
C583 H605 0.950 . S
C584 H580 0.949 . S
C584 C592 1.574 . S
C584 C600 1.368 . S
H585 C593 0.950 . S
H586 C591 0.950 . S
H587 C592 0.949 . S
H588 C594 0.950 . S
H589 C595 0.950 . S
H590 C596 0.949 . S
C591 H586 0.950 . S
C591 C593 1.327 . S
C591 C597 1.429 . S
C592 C584 1.574 . S
C592 H587 0.949 . S
C592 C598 1.368 . S
C593 C577 1.349 . S
C593 H585 0.950 . S
C593 C591 1.327 . S
C594 C582 1.349 . S
C594 H588 0.950 . S
C594 C595 1.327 . S
C595 H589 0.950 . S
C595 C594 1.327 . S
C595 C599 1.429 . S
C596 C579 1.574 . S
C596 H590 0.949 . S
C596 C600 1.368 . S
C597 C578 1.429 . S
C597 C591 1.429 . S
C597 C598 1.523 . S
C598 C579 1.368 . S
C598 C592 1.368 . S
C598 C597 1.523 . S
C599 C583 1.429 . S
C599 C595 1.429 . S
C599 C600 1.523 . S
C600 C584 1.368 . S
C600 C596 1.368 . S
C600 C599 1.523 . S
H601 C576 0.950 . S
H602 C578 0.950 . S
H603 C579 0.949 . S
H604 C581 0.950 . S
H605 C583 0.950 . S
C606 C607 1.310 1_565 S
C606 C608 1.327 . S
C606 H631 0.950 . S
C607 C606 1.310 1_545 S
C607 C623 1.380 . S
C608 C606 1.327 . S
C608 C627 1.429 . S
C608 H632 0.950 . S
C609 C626 1.574 . S
C609 C628 1.368 1_545 S
C609 H633 0.949 . S
H610 C614 0.949 . S
C611 C612 1.349 1_545 S
C611 C613 1.327 . S
C611 H634 0.950 . S
C612 C611 1.349 1_565 S
C612 C624 1.349 . S
C613 C611 1.327 . S
C613 C629 1.429 1_545 S
C613 H635 0.950 . S
C614 H610 0.949 . S
C614 C622 1.574 . S
C614 C630 1.368 . S
H615 C623 0.950 . S
H616 C621 0.950 . S
H617 C622 0.949 . S
H618 C624 0.950 . S
H619 C625 0.950 . S
H620 C626 0.949 . S
C621 H616 0.950 . S
C621 C623 1.327 . S
C621 C627 1.429 1_545 S
C622 C614 1.574 . S
C622 H617 0.949 . S
C622 C628 1.368 . S
C623 C607 1.380 . S
C623 H615 0.950 . S
C623 C621 1.327 . S
C624 C612 1.349 . S
C624 H618 0.950 . S
C624 C625 1.327 . S
C625 H619 0.950 . S
C625 C624 1.327 . S
C625 C629 1.429 . S
C626 C609 1.574 . S
C626 H620 0.949 . S
C626 C630 1.368 1_545 S
C627 C608 1.429 . S
C627 C621 1.429 1_565 S
C627 C628 1.523 . S
C628 C609 1.368 1_565 S
C628 C622 1.368 . S
C628 C627 1.523 . S
C629 C613 1.429 1_565 S
C629 C625 1.429 . S
C629 C630 1.523 . S
C630 C614 1.368 . S
C630 C626 1.368 1_565 S
C630 C629 1.523 . S
H631 C606 0.950 . S
H632 C608 0.950 . S
H633 C609 0.949 . S
H634 C611 0.950 . S
H635 C613 0.950 . S
C636 C637 1.349 . S
C636 C638 1.327 . S
C636 H661 0.950 . S
C637 C636 1.349 . S
C637 C653 1.349 . S
C638 C636 1.327 . S
C638 C657 1.429 . S
C638 H662 0.950 . S
C639 C656 1.574 . S
C639 C658 1.368 . S
C639 H663 0.949 . S
H640 C644 0.949 . S
C641 C642 1.349 . S
C641 C643 1.327 . S
C641 H664 0.950 . S
C642 C641 1.349 . S
C642 C654 1.349 . S
C643 C641 1.327 . S
C643 C659 1.429 . S
C643 H665 0.950 . S
C644 H640 0.949 . S
C644 C652 1.574 . S
C644 C660 1.368 . S
H645 C653 0.950 . S
H646 C651 0.950 . S
H647 C652 0.949 . S
H648 C654 0.950 . S
H649 C655 0.950 . S
H650 C656 0.949 . S
C651 H646 0.950 . S
C651 C653 1.327 . S
C651 C657 1.429 . S
C652 C644 1.574 . S
C652 H647 0.949 . S
C652 C658 1.368 . S
C653 C637 1.349 . S
C653 H645 0.950 . S
C653 C651 1.327 . S
C654 C642 1.349 . S
C654 H648 0.950 . S
C654 C655 1.327 . S
C655 H649 0.950 . S
C655 C654 1.327 . S
C655 C659 1.429 . S
C656 C639 1.574 . S
C656 H650 0.949 . S
C656 C660 1.368 . S
C657 C638 1.429 . S
C657 C651 1.429 . S
C657 C658 1.523 . S
C658 C639 1.368 . S
C658 C652 1.368 . S
C658 C657 1.523 . S
C659 C643 1.429 . S
C659 C655 1.429 . S
C659 C660 1.523 . S
C660 C644 1.368 . S
C660 C656 1.368 . S
C660 C659 1.523 . S
H661 C636 0.950 . S
H662 C638 0.950 . S
H663 C639 0.949 . S
H664 C641 0.950 . S
H665 C643 0.950 . S
C666 C667 1.349 . S
C666 C668 1.327 . S
C666 H691 0.950 . S
C667 C666 1.349 . S
C667 C683 1.349 . S
C668 C666 1.327 . S
C668 C687 1.429 . S
C668 H692 0.950 . S
C669 C686 1.574 . S
C669 C688 1.368 . S
C669 H693 0.949 . S
H670 C674 0.949 . S
C671 C672 1.349 . S
C671 C673 1.327 . S
C671 H694 0.950 . S
C672 C671 1.349 . S
C672 C684 1.349 . S
C673 C671 1.327 . S
C673 C689 1.429 . S
C673 H695 0.950 . S
C674 H670 0.949 . S
C674 C682 1.574 . S
C674 C690 1.368 . S
H675 C683 0.950 . S
H676 C681 0.950 . S
H677 C682 0.949 . S
H678 C684 0.950 . S
H679 C685 0.950 . S
H680 C686 0.949 . S
C681 H676 0.950 . S
C681 C683 1.327 . S
C681 C687 1.429 . S
C682 C674 1.574 . S
C682 H677 0.949 . S
C682 C688 1.368 . S
C683 C667 1.349 . S
C683 H675 0.950 . S
C683 C681 1.327 . S
C684 C672 1.349 . S
C684 H678 0.950 . S
C684 C685 1.327 . S
C685 H679 0.950 . S
C685 C684 1.327 . S
C685 C689 1.429 . S
C686 C669 1.574 . S
C686 H680 0.949 . S
C686 C690 1.368 . S
C687 C668 1.429 . S
C687 C681 1.429 . S
C687 C688 1.523 . S
C688 C669 1.368 . S
C688 C682 1.368 . S
C688 C687 1.523 . S
C689 C673 1.429 . S
C689 C685 1.429 . S
C689 C690 1.523 . S
C690 C674 1.368 . S
C690 C686 1.368 . S
C690 C689 1.523 . S
H691 C666 0.950 . S
H692 C668 0.950 . S
H693 C669 0.949 . S
H694 C671 0.950 . S
H695 C673 0.950 . S
C696 C697 1.349 . S
C696 C698 1.327 . S
C696 H721 0.950 . S
C697 C696 1.349 . S
C697 C713 1.349 . S
C698 C696 1.327 . S
C698 C717 1.429 . S
C698 H722 0.950 . S
C699 C716 1.574 . S
C699 C718 1.368 . S
C699 H723 0.949 . S
H700 C704 0.949 . S
C701 C702 1.304 1_655 S
C701 C703 1.327 . S
C701 H724 0.950 . S
C702 C701 1.304 1_455 S
C702 C714 1.375 . S
C703 C701 1.327 . S
C703 C719 1.429 . S
C703 H725 0.950 . S
C704 H700 0.949 . S
C704 C712 1.574 . S
C704 C720 1.368 . S
H705 C713 0.950 . S
H706 C711 0.950 . S
H707 C712 0.949 . S
H708 C714 0.950 . S
H709 C715 0.957 . S
H710 C716 0.949 . S
C711 H706 0.950 . S
C711 C713 1.327 . S
C711 C717 1.429 . S
C712 C704 1.574 . S
C712 H707 0.949 . S
C712 C718 1.368 . S
C713 C697 1.349 . S
C713 H705 0.950 . S
C713 C711 1.327 . S
C714 C702 1.375 . S
C714 H708 0.950 . S
C714 C715 1.333 . S
C715 H709 0.957 . S
C715 C714 1.333 . S
C715 C719 1.416 1_455 S
C716 C699 1.574 . S
C716 H710 0.949 . S
C716 C720 1.368 . S
C717 C698 1.429 . S
C717 C711 1.429 . S
C717 C718 1.523 . S
C718 C699 1.368 . S
C718 C712 1.368 . S
C718 C717 1.523 . S
C719 C703 1.429 . S
C719 C715 1.416 1_655 S
C719 C720 1.523 . S
C720 C704 1.368 . S
C720 C716 1.368 . S
C720 C719 1.523 . S
H721 C696 0.950 . S
H722 C698 0.950 . S
H723 C699 0.949 . S
H724 C701 0.950 . S
H725 C703 0.950 . S
C726 C727 1.372 . S
C726 C728 1.327 . S
C726 H751 0.950 . S
C727 C726 1.372 . S
C727 C743 1.319 1_565 S
C728 C726 1.327 . S
C728 C747 1.429 1_565 S
C728 H752 0.950 . S
C729 C746 1.574 . S
C729 C748 1.368 . S
C729 H753 0.949 . S
H730 C734 0.949 . S
C731 C732 1.349 . S
C731 C733 1.327 . S
C731 H754 0.950 . S
C732 C731 1.349 . S
C732 C744 1.349 1_545 S
C733 C731 1.327 . S
C733 C749 1.429 . S
C733 H755 0.950 . S
C734 H730 0.949 . S
C734 C742 1.574 . S
C734 C750 1.368 1_565 S
H735 C743 0.950 . S
H736 C741 0.950 . S
H737 C742 0.949 . S
H738 C744 0.950 . S
H739 C745 0.950 . S
H740 C746 0.949 . S
C741 H736 0.950 . S
C741 C743 1.327 . S
C741 C747 1.429 . S
C742 C734 1.574 . S
C742 H737 0.949 . S
C742 C748 1.368 1_565 S
C743 C727 1.319 1_545 S
C743 H735 0.950 . S
C743 C741 1.327 . S
C744 C732 1.349 1_565 S
C744 H738 0.950 . S
C744 C745 1.327 . S
C745 H739 0.950 . S
C745 C744 1.327 . S
C745 C749 1.429 1_565 S
C746 C729 1.574 . S
C746 H740 0.949 . S
C746 C750 1.368 . S
C747 C728 1.429 1_545 S
C747 C741 1.429 . S
C747 C748 1.523 . S
C748 C729 1.368 . S
C748 C742 1.368 1_545 S
C748 C747 1.523 . S
C749 C733 1.429 . S
C749 C745 1.429 1_545 S
C749 C750 1.523 . S
C750 C734 1.368 1_545 S
C750 C746 1.368 . S
C750 C749 1.523 . S
H751 C726 0.950 . S
H752 C728 0.950 . S
H753 C729 0.949 . S
H754 C731 0.950 . S
H755 C733 0.950 . S
C756 C757 1.349 . S
C756 C758 1.327 . S
C756 H781 0.950 . S
C757 C756 1.349 . S
C757 C773 1.349 . S
C758 C756 1.327 . S
C758 C777 1.429 . S
C758 H782 0.950 . S
C759 C776 1.574 . S
C759 C778 1.368 . S
C759 H783 0.949 . S
H760 C764 0.949 . S
C761 C762 1.349 . S
C761 C763 1.327 . S
C761 H784 0.950 . S
C762 C761 1.349 . S
C762 C774 1.349 . S
C763 C761 1.327 . S
C763 C779 1.429 . S
C763 H785 0.950 . S
C764 H760 0.949 . S
C764 C772 1.574 . S
C764 C780 1.368 . S
H765 C773 0.950 . S
H766 C771 0.950 . S
H767 C772 0.949 . S
H768 C774 0.950 . S
H769 C775 0.950 . S
H770 C776 0.949 . S
C771 H766 0.950 . S
C771 C773 1.327 . S
C771 C777 1.429 . S
C772 C764 1.574 . S
C772 H767 0.949 . S
C772 C778 1.368 . S
C773 C757 1.349 . S
C773 H765 0.950 . S
C773 C771 1.327 . S
C774 C762 1.349 . S
C774 H768 0.950 . S
C774 C775 1.327 . S
C775 H769 0.950 . S
C775 C774 1.327 . S
C775 C779 1.429 . S
C776 C759 1.574 . S
C776 H770 0.949 . S
C776 C780 1.368 . S
C777 C758 1.429 . S
C777 C771 1.429 . S
C777 C778 1.523 . S
C778 C759 1.368 . S
C778 C772 1.368 . S
C778 C777 1.523 . S
C779 C763 1.429 . S
C779 C775 1.429 . S
C779 C780 1.523 . S
C780 C764 1.368 . S
C780 C776 1.368 . S
C780 C779 1.523 . S
H781 C756 0.950 . S
H782 C758 0.950 . S
H783 C759 0.949 . S
H784 C761 0.950 . S
H785 C763 0.950 . S
C786 C787 1.349 . S
C786 C788 1.327 . S
C786 H811 0.950 . S
C787 C786 1.349 . S
C787 C803 1.349 . S
C788 C786 1.327 . S
C788 C807 1.429 . S
C788 H812 0.950 . S
C789 C806 1.574 . S
C789 C808 1.368 . S
C789 H813 0.949 . S
H790 C794 0.949 . S
C791 C792 1.349 . S
C791 C793 1.327 . S
C791 H814 0.950 . S
C792 C791 1.349 . S
C792 C804 1.349 . S
C793 C791 1.327 . S
C793 C809 1.429 . S
C793 H815 0.950 . S
C794 H790 0.949 . S
C794 C802 1.574 . S
C794 C810 1.368 . S
H795 C803 0.950 . S
H796 C801 0.950 . S
H797 C802 0.949 . S
H798 C804 0.950 . S
H799 C805 0.950 . S
H800 C806 0.949 . S
C801 H796 0.950 . S
C801 C803 1.327 . S
C801 C807 1.429 . S
C802 C794 1.574 . S
C802 H797 0.949 . S
C802 C808 1.368 . S
C803 C787 1.349 . S
C803 H795 0.950 . S
C803 C801 1.327 . S
C804 C792 1.349 . S
C804 H798 0.950 . S
C804 C805 1.327 . S
C805 H799 0.950 . S
C805 C804 1.327 . S
C805 C809 1.429 . S
C806 C789 1.574 . S
C806 H800 0.949 . S
C806 C810 1.368 . S
C807 C788 1.429 . S
C807 C801 1.429 . S
C807 C808 1.523 . S
C808 C789 1.368 . S
C808 C802 1.368 . S
C808 C807 1.523 . S
C809 C793 1.429 . S
C809 C805 1.429 . S
C809 C810 1.523 . S
C810 C794 1.368 . S
C810 C806 1.368 . S
C810 C809 1.523 . S
H811 C786 0.950 . S
H812 C788 0.950 . S
H813 C789 0.949 . S
H814 C791 0.950 . S
H815 C793 0.950 . S
C816 C817 1.349 . S
C816 C818 1.327 . S
C816 H841 0.950 . S
C817 C816 1.349 . S
C817 C833 1.349 . S
C818 C816 1.327 . S
C818 C837 1.429 . S
C818 H842 0.950 . S
C819 C836 1.574 . S
C819 C838 1.368 . S
C819 H843 0.949 . S
H820 C824 0.949 . S
C821 C822 1.349 . S
C821 C823 1.327 . S
C821 H844 0.950 . S
C822 C821 1.349 . S
C822 C834 1.349 . S
C823 C821 1.327 . S
C823 C839 1.429 . S
C823 H845 0.950 . S
C824 H820 0.949 . S
C824 C832 1.574 . S
C824 C840 1.368 . S
H825 C833 0.950 . S
H826 C831 0.950 . S
H827 C832 0.949 . S
H828 C834 0.950 . S
H829 C835 0.950 . S
H830 C836 0.949 . S
C831 H826 0.950 . S
C831 C833 1.327 . S
C831 C837 1.429 . S
C832 C824 1.574 . S
C832 H827 0.949 . S
C832 C838 1.368 . S
C833 C817 1.349 . S
C833 H825 0.950 . S
C833 C831 1.327 . S
C834 C822 1.349 . S
C834 H828 0.950 . S
C834 C835 1.327 . S
C835 H829 0.950 . S
C835 C834 1.327 . S
C835 C839 1.429 . S
C836 C819 1.574 . S
C836 H830 0.949 . S
C836 C840 1.368 . S
C837 C818 1.429 . S
C837 C831 1.429 . S
C837 C838 1.523 . S
C838 C819 1.368 . S
C838 C832 1.368 . S
C838 C837 1.523 . S
C839 C823 1.429 . S
C839 C835 1.429 . S
C839 C840 1.523 . S
C840 C824 1.368 . S
C840 C836 1.368 . S
C840 C839 1.523 . S
H841 C816 0.950 . S
H842 C818 0.950 . S
H843 C819 0.949 . S
H844 C821 0.950 . S
H845 C823 0.950 . S
C846 C847 1.337 1_565 S
C846 C848 1.327 . S
C846 H871 0.950 . S
C847 C846 1.337 1_545 S
C847 C863 1.360 . S
C848 C846 1.327 . S
C848 C867 1.429 1_565 S
C848 H872 0.950 . S
C849 C866 1.574 . S
C849 C868 1.368 . S
C849 H873 0.949 . S
H850 C854 0.949 . S
C851 C852 1.349 . S
C851 C853 1.327 . S
C851 H874 0.950 . S
C852 C851 1.349 . S
C852 C864 1.349 1_545 S
C853 C851 1.327 . S
C853 C869 1.429 . S
C853 H875 0.950 . S
C854 H850 0.949 . S
C854 C862 1.574 . S
C854 C870 1.368 1_565 S
H855 C863 0.950 . S
H856 C861 0.950 . S
H857 C862 0.949 . S
H858 C864 0.950 . S
H859 C865 0.950 . S
H860 C866 0.949 . S
C861 H856 0.950 . S
C861 C863 1.327 . S
C861 C867 1.429 . S
C862 C854 1.574 . S
C862 H857 0.949 . S
C862 C868 1.368 1_565 S
C863 C847 1.360 . S
C863 H855 0.950 . S
C863 C861 1.327 . S
C864 C852 1.349 1_565 S
C864 H858 0.950 . S
C864 C865 1.327 . S
C865 H859 0.950 . S
C865 C864 1.327 . S
C865 C869 1.429 1_565 S
C866 C849 1.574 . S
C866 H860 0.949 . S
C866 C870 1.368 . S
C867 C848 1.429 1_545 S
C867 C861 1.429 . S
C867 C868 1.523 . S
C868 C849 1.368 . S
C868 C862 1.368 1_545 S
C868 C867 1.523 . S
C869 C853 1.429 . S
C869 C865 1.429 1_545 S
C869 C870 1.523 . S
C870 C854 1.368 1_545 S
C870 C866 1.368 . S
C870 C869 1.523 . S
H871 C846 0.950 . S
H872 C848 0.950 . S
H873 C849 0.949 . S
H874 C851 0.950 . S
H875 C853 0.950 . S
C876 C877 1.349 . S
C876 C878 1.327 . S
C876 H901 0.950 . S
C877 C876 1.349 . S
C877 C893 1.349 . S
C878 C876 1.327 . S
C878 C897 1.429 . S
C878 H902 0.950 . S
C879 C896 1.574 . S
C879 C898 1.368 . S
C879 H903 0.949 . S
H880 C884 0.949 . S
C881 C882 1.349 . S
C881 C883 1.327 . S
C881 H904 0.950 . S
C882 C881 1.349 . S
C882 C894 1.349 . S
C883 C881 1.327 . S
C883 C899 1.429 . S
C883 H905 0.950 . S
C884 H880 0.949 . S
C884 C892 1.574 . S
C884 C900 1.368 . S
H885 C893 0.950 . S
H886 C891 0.950 . S
H887 C892 0.949 . S
H888 C894 0.950 . S
H889 C895 0.950 . S
H890 C896 0.949 . S
C891 H886 0.950 . S
C891 C893 1.327 . S
C891 C897 1.429 . S
C892 C884 1.574 . S
C892 H887 0.949 . S
C892 C898 1.368 . S
C893 C877 1.349 . S
C893 H885 0.950 . S
C893 C891 1.327 . S
C894 C882 1.349 . S
C894 H888 0.950 . S
C894 C895 1.327 . S
C895 H889 0.950 . S
C895 C894 1.327 . S
C895 C899 1.429 . S
C896 C879 1.574 . S
C896 H890 0.949 . S
C896 C900 1.368 . S
C897 C878 1.429 . S
C897 C891 1.429 . S
C897 C898 1.523 . S
C898 C879 1.368 . S
C898 C892 1.368 . S
C898 C897 1.523 . S
C899 C883 1.429 . S
C899 C895 1.429 . S
C899 C900 1.523 . S
C900 C884 1.368 . S
C900 C896 1.368 . S
C900 C899 1.523 . S
H901 C876 0.950 . S
H902 C878 0.950 . S
H903 C879 0.949 . S
H904 C881 0.950 . S
H905 C883 0.950 . S
C906 C907 1.349 . S
C906 C908 1.327 . S
C906 H931 0.950 . S
C907 C906 1.349 . S
C907 C923 1.349 . S
C908 C906 1.327 . S
C908 C927 1.429 . S
C908 H932 0.950 . S
C909 C926 1.574 . S
C909 C928 1.368 . S
C909 H933 0.949 . S
H910 C914 0.949 . S
C911 C912 1.349 . S
C911 C913 1.327 . S
C911 H934 0.950 . S
C912 C911 1.349 . S
C912 C924 1.349 . S
C913 C911 1.327 . S
C913 C929 1.429 . S
C913 H935 0.950 . S
C914 H910 0.949 . S
C914 C922 1.574 . S
C914 C930 1.368 . S
H915 C923 0.950 . S
H916 C921 0.950 . S
H917 C922 0.949 . S
H918 C924 0.950 . S
H919 C925 0.950 . S
H920 C926 0.949 . S
C921 H916 0.950 . S
C921 C923 1.327 . S
C921 C927 1.429 . S
C922 C914 1.574 . S
C922 H917 0.949 . S
C922 C928 1.368 . S
C923 C907 1.349 . S
C923 H915 0.950 . S
C923 C921 1.327 . S
C924 C912 1.349 . S
C924 H918 0.950 . S
C924 C925 1.327 . S
C925 H919 0.950 . S
C925 C924 1.327 . S
C925 C929 1.429 . S
C926 C909 1.574 . S
C926 H920 0.949 . S
C926 C930 1.368 . S
C927 C908 1.429 . S
C927 C921 1.429 . S
C927 C928 1.523 . S
C928 C909 1.368 . S
C928 C922 1.368 . S
C928 C927 1.523 . S
C929 C913 1.429 . S
C929 C925 1.429 . S
C929 C930 1.523 . S
C930 C914 1.368 . S
C930 C926 1.368 . S
C930 C929 1.523 . S
H931 C906 0.950 . S
H932 C908 0.950 . S
H933 C909 0.949 . S
H934 C911 0.950 . S
H935 C913 0.950 . S
C936 C937 1.349 . S
C936 C938 1.327 . S
C936 H961 0.950 . S
C937 C936 1.349 . S
C937 C953 1.349 . S
C938 C936 1.327 . S
C938 C957 1.429 . S
C938 H962 0.950 . S
C939 C956 1.574 . S
C939 C958 1.368 . S
C939 H963 0.949 . S
H940 C944 0.949 . S
C941 C942 1.349 . S
C941 C943 1.327 . S
C941 H964 0.950 . S
C942 C941 1.349 . S
C942 C954 1.349 . S
C943 C941 1.327 . S
C943 C959 1.429 . S
C943 H965 0.950 . S
C944 H940 0.949 . S
C944 C952 1.574 . S
C944 C960 1.368 . S
H945 C953 0.950 . S
H946 C951 0.950 . S
H947 C952 0.949 . S
H948 C954 0.950 . S
H949 C955 0.950 . S
H950 C956 0.949 . S
C951 H946 0.950 . S
C951 C953 1.327 . S
C951 C957 1.429 . S
C952 C944 1.574 . S
C952 H947 0.949 . S
C952 C958 1.368 . S
C953 C937 1.349 . S
C953 H945 0.950 . S
C953 C951 1.327 . S
C954 C942 1.349 . S
C954 H948 0.950 . S
C954 C955 1.327 . S
C955 H949 0.950 . S
C955 C954 1.327 . S
C955 C959 1.429 . S
C956 C939 1.574 . S
C956 H950 0.949 . S
C956 C960 1.368 . S
C957 C938 1.429 . S
C957 C951 1.429 . S
C957 C958 1.523 . S
C958 C939 1.368 . S
C958 C952 1.368 . S
C958 C957 1.523 . S
C959 C943 1.429 . S
C959 C955 1.429 . S
C959 C960 1.523 . S
C960 C944 1.368 . S
C960 C956 1.368 . S
C960 C959 1.523 . S
H961 C936 0.950 . S
H962 C938 0.950 . S
H963 C939 0.949 . S
H964 C941 0.950 . S
H965 C943 0.950 . S
C966 C967 1.346 1_545 S
C966 C968 1.327 . S
C966 H991 0.950 . S
C967 C966 1.346 1_565 S
C967 C983 1.351 . S
C968 C966 1.327 . S
C968 C987 1.392 1_545 S
C968 H992 0.950 . S
C969 C986 1.574 . S
C969 C988 1.368 . S
C969 H993 0.949 . S
H970 C974 0.949 . S
C971 C972 1.349 . S
C971 C973 1.327 . S
C971 H994 0.950 . S
C972 C971 1.349 . S
C972 C984 1.349 1_565 S
C973 C971 1.327 . S
C973 C989 1.429 . S
C973 H995 0.950 . S
C974 H970 0.949 . S
C974 C982 1.574 . S
C974 C990 1.368 1_545 S
H975 C983 0.950 . S
H976 C981 0.950 . S
H977 C982 0.949 . S
H978 C984 0.950 . S
H979 C985 0.950 . S
H980 C986 0.949 . S
C981 H976 0.950 . S
C981 C983 1.327 . S
C981 C987 1.471 . S
C982 C974 1.574 . S
C982 H977 0.949 . S
C982 C988 1.368 1_545 S
C983 C967 1.351 . S
C983 H975 0.950 . S
C983 C981 1.327 . S
C984 C972 1.349 1_545 S
C984 H978 0.950 . S
C984 C985 1.327 . S
C985 H979 0.950 . S
C985 C984 1.327 . S
C985 C989 1.429 1_545 S
C986 C969 1.574 . S
C986 H980 0.949 . S
C986 C990 1.368 . S
C987 C968 1.392 1_565 S
C987 C981 1.471 . S
C987 C988 1.520 . S
C988 C969 1.368 . S
C988 C982 1.368 1_565 S
C988 C987 1.520 . S
C989 C973 1.429 . S
C989 C985 1.429 1_565 S
C989 C990 1.523 . S
C990 C974 1.368 1_565 S
C990 C986 1.368 . S
C990 C989 1.523 . S
H991 C966 0.950 . S
H992 C968 0.950 . S
H993 C969 0.949 . S
H994 C971 0.950 . S
H995 C973 0.950 . S
C996 C997 1.349 . S
C996 C998 1.327 . S
C996 H1021 0.950 . S
C997 C996 1.349 . S
C997 C1013 1.349 . S
C998 C996 1.327 . S
C998 C1017 1.429 . S
C998 H1022 0.950 . S
C999 C1016 1.574 . S
C999 C1018 1.368 . S
C999 H1023 0.949 . S
H1000 C1004 0.949 . S
C1001 C1002 1.349 . S
C1001 C1003 1.327 . S
C1001 H1024 0.950 . S
C1002 C1001 1.349 . S
C1002 C1014 1.349 . S
C1003 C1001 1.327 . S
C1003 C1019 1.429 . S
C1003 H1025 0.950 . S
C1004 H1000 0.949 . S
C1004 C1012 1.574 . S
C1004 C1020 1.368 . S
H1005 C1013 0.950 . S
H1006 C1011 0.950 . S
H1007 C1012 0.949 . S
H1008 C1014 0.950 . S
H1009 C1015 0.950 . S
H1010 C1016 0.949 . S
C1011 H1006 0.950 . S
C1011 C1013 1.327 . S
C1011 C1017 1.429 . S
C1012 C1004 1.574 . S
C1012 H1007 0.949 . S
C1012 C1018 1.368 . S
C1013 C997 1.349 . S
C1013 H1005 0.950 . S
C1013 C1011 1.327 . S
C1014 C1002 1.349 . S
C1014 H1008 0.950 . S
C1014 C1015 1.327 . S
C1015 H1009 0.950 . S
C1015 C1014 1.327 . S
C1015 C1019 1.429 . S
C1016 C999 1.574 . S
C1016 H1010 0.949 . S
C1016 C1020 1.368 . S
C1017 C998 1.429 . S
C1017 C1011 1.429 . S
C1017 C1018 1.523 . S
C1018 C999 1.368 . S
C1018 C1012 1.368 . S
C1018 C1017 1.523 . S
C1019 C1003 1.429 . S
C1019 C1015 1.429 . S
C1019 C1020 1.523 . S
C1020 C1004 1.368 . S
C1020 C1016 1.368 . S
C1020 C1019 1.523 . S
H1021 C996 0.950 . S
H1022 C998 0.950 . S
H1023 C999 0.949 . S
H1024 C1001 0.950 . S
H1025 C1003 0.950 . S
C1026 C1027 1.349 . S
C1026 C1028 1.327 . S
C1026 H1051 0.950 . S
C1027 C1026 1.349 . S
C1027 C1043 1.349 . S
C1028 C1026 1.327 . S
C1028 C1047 1.429 . S
C1028 H1052 0.950 . S
C1029 C1046 1.574 . S
C1029 C1048 1.368 . S
C1029 H1053 0.949 . S
H1030 C1034 0.949 . S
C1031 C1032 1.349 . S
C1031 C1033 1.327 . S
C1031 H1054 0.950 . S
C1032 C1031 1.349 . S
C1032 C1044 1.349 . S
C1033 C1031 1.327 . S
C1033 C1049 1.429 . S
C1033 H1055 0.950 . S
C1034 H1030 0.949 . S
C1034 C1042 1.574 . S
C1034 C1050 1.368 . S
H1035 C1043 0.950 . S
H1036 C1041 0.950 . S
H1037 C1042 0.949 . S
H1038 C1044 0.950 . S
H1039 C1045 0.950 . S
H1040 C1046 0.949 . S
C1041 H1036 0.950 . S
C1041 C1043 1.327 . S
C1041 C1047 1.429 . S
C1042 C1034 1.574 . S
C1042 H1037 0.949 . S
C1042 C1048 1.368 . S
C1043 C1027 1.349 . S
C1043 H1035 0.950 . S
C1043 C1041 1.327 . S
C1044 C1032 1.349 . S
C1044 H1038 0.950 . S
C1044 C1045 1.327 . S
C1045 H1039 0.950 . S
C1045 C1044 1.327 . S
C1045 C1049 1.429 . S
C1046 C1029 1.574 . S
C1046 H1040 0.949 . S
C1046 C1050 1.368 . S
C1047 C1028 1.429 . S
C1047 C1041 1.429 . S
C1047 C1048 1.523 . S
C1048 C1029 1.368 . S
C1048 C1042 1.368 . S
C1048 C1047 1.523 . S
C1049 C1033 1.429 . S
C1049 C1045 1.429 . S
C1049 C1050 1.523 . S
C1050 C1034 1.368 . S
C1050 C1046 1.368 . S
C1050 C1049 1.523 . S
H1051 C1026 0.950 . S
H1052 C1028 0.950 . S
H1053 C1029 0.949 . S
H1054 C1031 0.950 . S
H1055 C1033 0.950 . S
C337 C215 1.544 1_565 S
C342 C264 1.593 . S
C372 C294 2.207 . S
C367 C247 2.190 . S
C402 C304 1.620 . S
C397 C151 1.517 . S
C432 C324 1.487 . S
C427 C183 1.464 . S
C462 C265 1.593 . S
C457 C87 1.539 . S
C487 C119 2.037 1_556 S
C492 C295 2.211 . S
C517 C23 1.612 . S
C522 C305 1.620 . S
C547 C55 1.361 . S
C552 C325 1.487 . S
C582 C257 0.502 . S
C577 C189 0.480 . S
C612 C278 0.297 . S
C607 C221 0.448 . S
C642 C297 0.830 . S
C637 C253 0.833 . S
C667 C157 0.502 . S
C672 C317 0.359 . S
C697 C61 0.622 . S
C702 C258 0.515 . S
C732 C277 0.297 . S
C727 C93 0.448 1_565 S
C762 C298 0.831 . S
C757 C125 0.802 . S
C787 C29 0.357 . S
C792 C318 0.359 . S
C817 C177 2.049 . S
C822 C275 2.115 . S
C847 C209 1.425 . S
C852 C285 1.530 . S
C882 C315 2.268 . S
C877 C241 2.184 . S
C912 C335 2.177 . S
C907 C145 2.003 . S
C937 C49 1.945 . S
C942 C274 2.125 . S
C972 C284 1.531 . S
C967 C81 1.425 1_565 S
C1002 C314 2.268 . S
C997 C113 2.050 . S
C1027 C17 2.113 . S
C1032 C334 2.177 . S
